# Generated by pormake.
# Topology pyr, (3,6)-cn, num edge types: 1
# Building blocks:
#     Node 0, Type 0, BuildingBlock: PAMTOO_clean_linker_0, # of connection points: 3
#     Node 1, Type 0, BuildingBlock: PAMTOO_clean_linker_0, # of connection points: 3
#     Node 2, Type 0, BuildingBlock: PAMTOO_clean_linker_0, # of connection points: 3
#     Node 3, Type 0, BuildingBlock: PAMTOO_clean_linker_0, # of connection points: 3
#     Node 4, Type 0, BuildingBlock: PAMTOO_clean_linker_0, # of connection points: 3
#     Node 5, Type 0, BuildingBlock: PAMTOO_clean_linker_0, # of connection points: 3
#     Node 6, Type 0, BuildingBlock: PAMTOO_clean_linker_0, # of connection points: 3
#     Node 7, Type 0, BuildingBlock: PAMTOO_clean_linker_0, # of connection points: 3
#     Node 8, Type 1, BuildingBlock: BETGAK_clean_sbu_0, # of connection points: 6
#     Node 9, Type 1, BuildingBlock: BETGAK_clean_sbu_0, # of connection points: 6
#     Node 10, Type 1, BuildingBlock: BETGAK_clean_sbu_0, # of connection points: 6
#     Node 11, Type 1, BuildingBlock: BETGAK_clean_sbu_0, # of connection points: 6
#     Edge 12, Type (0, 1), BuildingBlock: UVAHIK_clean_linker_0, # of connection points: 2
#     Edge 13, Type (0, 1), BuildingBlock: UVAHIK_clean_linker_0, # of connection points: 2
#     Edge 14, Type (0, 1), BuildingBlock: UVAHIK_clean_linker_0, # of connection points: 2
#     Edge 15, Type (0, 1), BuildingBlock: UVAHIK_clean_linker_0, # of connection points: 2
#     Edge 16, Type (0, 1), BuildingBlock: UVAHIK_clean_linker_0, # of connection points: 2
#     Edge 17, Type (0, 1), BuildingBlock: UVAHIK_clean_linker_0, # of connection points: 2
#     Edge 18, Type (0, 1), BuildingBlock: UVAHIK_clean_linker_0, # of connection points: 2
#     Edge 19, Type (0, 1), BuildingBlock: UVAHIK_clean_linker_0, # of connection points: 2
#     Edge 20, Type (0, 1), BuildingBlock: UVAHIK_clean_linker_0, # of connection points: 2
#     Edge 21, Type (0, 1), BuildingBlock: UVAHIK_clean_linker_0, # of connection points: 2
#     Edge 22, Type (0, 1), BuildingBlock: UVAHIK_clean_linker_0, # of connection points: 2
#     Edge 23, Type (0, 1), BuildingBlock: UVAHIK_clean_linker_0, # of connection points: 2
#     Edge 24, Type (0, 1), BuildingBlock: UVAHIK_clean_linker_0, # of connection points: 2
#     Edge 25, Type (0, 1), BuildingBlock: UVAHIK_clean_linker_0, # of connection points: 2
#     Edge 26, Type (0, 1), BuildingBlock: UVAHIK_clean_linker_0, # of connection points: 2
#     Edge 27, Type (0, 1), BuildingBlock: UVAHIK_clean_linker_0, # of connection points: 2
#     Edge 28, Type (0, 1), BuildingBlock: UVAHIK_clean_linker_0, # of connection points: 2
#     Edge 29, Type (0, 1), BuildingBlock: UVAHIK_clean_linker_0, # of connection points: 2
#     Edge 30, Type (0, 1), BuildingBlock: UVAHIK_clean_linker_0, # of connection points: 2
#     Edge 31, Type (0, 1), BuildingBlock: UVAHIK_clean_linker_0, # of connection points: 2
#     Edge 32, Type (0, 1), BuildingBlock: UVAHIK_clean_linker_0, # of connection points: 2
#     Edge 33, Type (0, 1), BuildingBlock: UVAHIK_clean_linker_0, # of connection points: 2
#     Edge 34, Type (0, 1), BuildingBlock: UVAHIK_clean_linker_0, # of connection points: 2
#     Edge 35, Type (0, 1), BuildingBlock: UVAHIK_clean_linker_0, # of connection points: 2
# Relax obj value: 0.138
# Max RMSD: 0.216
# Mean RMSD: 0.147
data_MOF--net-pyr--node1-BETGAK_clean_sbu_0--node2-PAMTOO_clean_linker_0--edge1-UVAHIK_clean_linker_0
_symmetry_space_group_name_H-M    P1
_symmetry_Int_Tables_number       1
_symmetry_cell_setting            triclinic
loop_
_symmetry_equiv_pos_as_xyz
'x, y, z'
_cell_length_a     48.034522
_cell_length_b     52.281294
_cell_length_c     46.515065
_cell_angle_alpha  91.563561
_cell_angle_beta   89.792571
_cell_angle_gamma 105.01351
loop_
_atom_site_label
_atom_site_type_symbol
_atom_site_fract_x
_atom_site_fract_y
_atom_site_fract_z
_atom_type_partial_charge
H0 H 0.30697 0.31442 0.24216 0.0
H1 H 0.34275 0.24783 0.2522 0.0
H2 H 0.36062 0.29331 0.17593 0.0
H3 H 0.33936 0.23435 0.16979 0.0
C4 C 0.35189 0.22885 0.18765 0.0
O5 O 0.36735 0.25162 0.20189 0.0
H6 H 0.33656 0.21634 0.20278 0.0
C7 C 0.32077 0.30232 0.23437 0.0
C8 C 0.33404 0.30716 0.20734 0.0
C9 C 0.32371 0.28101 0.25077 0.0
C10 C 0.34093 0.26487 0.24032 0.0
C11 C 0.35385 0.2692 0.21324 0.0
C12 C 0.35069 0.29042 0.19695 0.0
H13 H 0.31697 0.91106 0.6512 0.0
H14 H 0.26771 0.85791 0.58664 0.0
H15 H 0.33629 0.83663 0.63081 0.0
H16 H 0.31504 0.83969 0.5544 0.0
C17 C 0.30778 0.82 0.56455 0.0
O18 O 0.29586 0.82203 0.59127 0.0
H19 H 0.29094 0.80757 0.55013 0.0
C20 C 0.31305 0.89282 0.63839 0.0
C21 C 0.32965 0.87483 0.64322 0.0
C22 C 0.29044 0.88684 0.61829 0.0
C23 C 0.28483 0.86278 0.60255 0.0
C24 C 0.30152 0.84496 0.60684 0.0
C25 C 0.32372 0.85077 0.62736 0.0
H26 H 0.73469 0.33143 0.91401 0.0
H27 H 0.66772 0.32526 0.85096 0.0
H28 H 0.73819 0.3951 0.85588 0.0
H29 H 0.677 0.4009 0.85089 0.0
C30 C 0.6703 0.38648 0.83255 0.0
O31 O 0.69037 0.37187 0.82883 0.0
H32 H 0.64909 0.37295 0.83795 0.0
C33 C 0.7258 0.33971 0.8962 0.0
C34 C 0.73998 0.36514 0.88669 0.0
C35 C 0.69971 0.32508 0.88361 0.0
C36 C 0.68764 0.33628 0.86113 0.0
C37 C 0.70151 0.36156 0.85125 0.0
C38 C 0.72753 0.37584 0.86404 0.0
H39 H 0.88127 0.73545 0.42341 0.0
H40 H 0.88196 0.6725 0.36186 0.0
H41 H 0.95034 0.74412 0.3621 0.0
H42 H 0.93264 0.72087 0.30328 0.0
C43 C 0.9244 0.69971 0.30892 0.0
O44 O 0.93043 0.69687 0.33755 0.0
H45 H 0.90065 0.69411 0.30538 0.0
C46 C 0.89131 0.72762 0.40551 0.0
C47 C 0.91738 0.74305 0.39433 0.0
C48 C 0.87813 0.70217 0.39402 0.0
C49 C 0.89163 0.69205 0.37105 0.0
C50 C 0.91747 0.7072 0.35936 0.0
C51 C 0.93019 0.7327 0.37094 0.0
H52 H 0.75688 0.84583 0.86507 0.0
H53 H 0.71818 0.79372 0.93262 0.0
H54 H 0.78472 0.77548 0.88068 0.0
H55 H 0.72708 0.73429 0.89139 0.0
C56 C 0.73488 0.73471 0.91399 0.0
O57 O 0.74925 0.76001 0.92317 0.0
H58 H 0.71562 0.72743 0.92772 0.0
C59 C 0.75466 0.82759 0.87647 0.0
C60 C 0.77275 0.81108 0.86954 0.0
C61 C 0.73525 0.82173 0.89949 0.0
C62 C 0.73301 0.79849 0.91477 0.0
C63 C 0.75058 0.78173 0.90765 0.0
C64 C 0.77072 0.78826 0.88548 0.0
H65 H 0.79039 0.1699 0.44503 0.0
H66 H 0.72687 0.21195 0.46727 0.0
H67 H 0.78613 0.20115 0.53122 0.0
H68 H 0.72711 0.20007 0.55857 0.0
C69 C 0.71881 0.20463 0.53756 0.0
O70 O 0.74151 0.21884 0.52147 0.0
H71 H 0.70792 0.18542 0.52661 0.0
C72 C 0.78117 0.18115 0.46056 0.0
C73 C 0.79168 0.18455 0.48898 0.0
C74 C 0.75794 0.19109 0.45228 0.0
C75 C 0.74486 0.20416 0.47301 0.0
C76 C 0.75485 0.20721 0.50141 0.0
C77 C 0.77842 0.19795 0.50922 0.0
H78 H 0.38503 0.74351 0.17316 0.0
H79 H 0.38217 0.68375 0.23576 0.0
H80 H 0.45113 0.75473 0.23833 0.0
H81 H 0.4674 0.70481 0.24941 0.0
C82 C 0.44788 0.69406 0.26126 0.0
O83 O 0.42873 0.70975 0.26341 0.0
H84 H 0.43785 0.67561 0.24862 0.0
C85 C 0.3946 0.73636 0.19131 0.0
C86 C 0.42006 0.75242 0.20393 0.0
C87 C 0.38071 0.71147 0.20236 0.0
C88 C 0.39237 0.70283 0.22689 0.0
C89 C 0.4177 0.71843 0.2398 0.0
C90 C 0.43142 0.74309 0.22832 0.0
H91 H 0.14777 0.35255 0.76975 0.0
H92 H 0.21676 0.42441 0.76761 0.0
H93 H 0.21564 0.36132 0.70684 0.0
H94 H 0.27109 0.38772 0.73816 0.0
C95 C 0.27052 0.40852 0.73433 0.0
O96 O 0.24359 0.40883 0.72418 0.0
H97 H 0.27466 0.41974 0.7552 0.0
C98 C 0.16776 0.36407 0.76068 0.0
C99 C 0.17997 0.35364 0.73681 0.0
C100 C 0.18055 0.3899 0.77183 0.0
C101 C 0.20626 0.40473 0.75928 0.0
C102 C 0.21891 0.39431 0.73612 0.0
C103 C 0.20567 0.36902 0.72489 0.0
La104 La 0.05427 0.06208 0.53558 0.0
La105 La 0.04783 0.03544 0.59295 0.0
C106 C 0.05425 0.09214 0.49423 0.0
C107 C 0.07695 0.11352 0.482 0.0
C108 C 0.10586 0.11255 0.48294 0.0
C109 C 0.12728 0.13219 0.47022 0.0
C110 C 0.12035 0.1535 0.45668 0.0
C111 C 0.09142 0.15484 0.45669 0.0
C112 C 0.0699 0.13495 0.46917 0.0
C113 C 0.09841 0.04432 0.55091 0.0
C114 C 0.07375 0.09649 0.59372 0.0
C115 C 0.04912 1.00565 0.63425 0.0
C116 C 0.02807 0.98292 0.64636 0.0
C117 C 0.9986 0.98194 0.64658 0.0
C118 C 0.97895 0.9614 0.66007 0.0
C119 C 0.98826 0.94113 0.67325 0.0
C120 C 0.0177 0.9416 0.67181 0.0
C121 C 0.03744 0.9624 0.65858 0.0
C122 C 1.0038 0.05343 0.5775 0.0
C123 C 0.02731 1.00099 0.535 0.0
O124 O 0.05822 0.06839 0.49135 0.0
O125 O 0.04563 0.09674 0.5201 0.0
O126 O 0.09147 0.04677 0.52455 0.0
O127 O 0.0832 0.05451 0.56715 0.0
O128 O 0.06432 0.0958 0.56686 0.0
O129 O 0.07428 0.07438 0.60672 0.0
O130 O 0.04267 1.02842 0.63692 0.0
O131 O 0.05894 1.00194 0.60861 0.0
O132 O 1.01055 0.05088 0.60393 0.0
O133 O 0.01907 0.04316 0.56146 0.0
O134 O 0.03658 1.00158 0.56191 0.0
O135 O 0.02735 1.0232 0.52186 0.0
H136 H 0.11185 0.09631 0.49303 0.0
H137 H 0.14915 0.13017 0.4703 0.0
H138 H 0.08534 0.17118 0.44694 0.0
H139 H 0.04773 0.13617 0.46857 0.0
H140 H 0.99082 0.99745 0.637 0.0
H141 H 0.95662 0.96203 0.66105 0.0
H142 H 0.02559 0.92609 0.6812 0.0
H143 H 0.06007 0.96269 0.65831 0.0
La144 La 0.58519 0.05257 0.05933 0.0
La145 La 0.53027 1.02206 1.02051 0.0
C146 C 0.62837 0.08644 0.07925 0.0
C147 C 0.63861 0.09595 0.10822 0.0
C148 C 0.62422 0.08371 0.13248 0.0
C149 C 0.63365 0.09324 0.16004 0.0
C150 C 0.65755 0.11527 0.1638 0.0
C151 C 0.67191 0.12742 0.13933 0.0
C152 C 0.66248 0.1178 0.11175 0.0
C153 C 0.55386 1.00834 0.08349 0.0
C154 C 0.52363 0.06232 0.07072 0.0
C155 C 0.48781 0.9882 0.99948 0.0
C156 C 0.47829 0.97846 0.9701 0.0
C157 C 0.47128 0.99522 0.94977 0.0
C158 C 0.46339 0.98582 0.92178 0.0
C159 C 0.46249 0.95954 0.91346 0.0
C160 C 0.46927 0.94277 0.93394 0.0
C161 C 0.47696 0.95212 0.96198 0.0
C162 C 0.56139 0.06664 0.99674 0.0
C163 C 0.59167 1.01215 1.00889 0.0
O164 O 0.62836 0.06186 0.07269 0.0
O165 O 0.60452 0.09207 0.07133 0.0
O166 O 0.57655 1.02427 0.09514 0.0
O167 O 0.55027 1.01842 0.06008 0.0
O168 O 0.55199 0.07156 0.07322 0.0
O169 O 0.51098 0.04108 0.05471 0.0
O170 O 0.48726 1.01257 1.00657 0.0
O171 O 0.51129 0.9825 1.00845 0.0
O172 O 0.53821 0.05116 0.98545 0.0
O173 O 0.56543 0.05597 1.01962 0.0
O174 O 0.56337 1.00357 1.00561 0.0
O175 O 0.60456 1.03263 1.02585 0.0
H176 H 0.60566 0.06685 0.13009 0.0
H177 H 0.62237 0.08319 0.1784 0.0
H178 H 0.69013 0.14462 0.14146 0.0
H179 H 0.67367 0.12756 0.09318 0.0
H180 H 0.47202 1.01563 0.95534 0.0
H181 H 0.45779 0.99914 0.90673 0.0
H182 H 0.46911 0.92252 0.9282 0.0
H183 H 0.48228 0.93882 0.97726 0.0
La184 La 0.56525 0.52856 0.52971 0.0
La185 La 0.56885 0.57296 0.57057 0.0
C186 C 0.57579 0.49188 0.49898 0.0
C187 C 0.58154 0.46631 0.50538 0.0
C188 C 0.5648 0.44302 0.49211 0.0
C189 C 0.56903 0.41844 0.49891 0.0
C190 C 0.59018 0.41674 0.51909 0.0
C191 C 0.60701 0.44016 0.53224 0.0
C192 C 0.60271 0.46469 0.52551 0.0
C193 C 0.51706 0.52627 0.55842 0.0
C194 C 0.58922 0.52546 0.59382 0.0
C195 C 0.55899 0.60931 0.60256 0.0
C196 C 0.54419 0.63035 0.59951 0.0
C197 C 0.55275 0.65352 0.61662 0.0
C198 C 0.53882 0.67371 0.61404 0.0
C199 C 0.51619 0.67104 0.59417 0.0
C200 C 0.50791 0.64785 0.57683 0.0
C201 C 0.52176 0.62765 0.57953 0.0
C202 C 0.61715 0.57459 0.54241 0.0
C203 C 0.54497 0.57556 0.50664 0.0
O204 O 0.54971 0.49372 0.50474 0.0
O205 O 0.59545 0.51325 0.50713 0.0
O206 O 0.51814 0.51887 0.53175 0.0
O207 O 0.54236 0.53344 0.56828 0.0
O208 O 0.58629 0.51582 0.56699 0.0
O209 O 0.58128 0.54713 0.6011 0.0
O210 O 0.58248 0.61188 0.58746 0.0
O211 O 0.54266 0.585 0.60147 0.0
O212 O 0.61586 0.58144 0.56925 0.0
O213 O 0.59197 0.56804 0.53215 0.0
O214 O 0.54445 0.58323 0.53405 0.0
O215 O 0.55657 0.55609 0.49918 0.0
H216 H 0.54822 0.44383 0.47668 0.0
H217 H 0.55551 0.40075 0.48862 0.0
H218 H 0.62382 0.43962 0.54749 0.0
H219 H 0.61593 0.48232 0.53616 0.0
H220 H 0.57015 0.65594 0.63205 0.0
H221 H 0.54579 0.69144 0.62752 0.0
H222 H 0.49026 0.64504 0.56164 0.0
H223 H 0.5147 0.60982 0.56626 0.0
La224 La 0.06035 0.51203 0.06578 0.0
La225 La 0.0541 0.56391 0.03789 0.0
C226 C 0.07704 0.47349 0.08361 0.0
C227 C 0.10474 0.46689 0.08757 0.0
C228 C 0.11 0.45606 0.11358 0.0
C229 C 0.13593 0.44939 0.11805 0.0
C230 C 0.15705 0.45328 0.09647 0.0
C231 C 0.15184 0.46428 0.07041 0.0
C232 C 0.12595 0.47121 0.06605 0.0
C233 C 0.03185 0.54091 0.09551 0.0
C234 C 0.11279 0.56482 0.06794 0.0
C235 C 0.03635 0.60459 0.03168 0.0
C236 C 1.01316 0.61092 1.01487 0.0
C237 C 0.01771 0.63561 1.00202 0.0
C238 C 0.99499 0.64255 0.98817 0.0
C239 C 0.96734 0.62492 0.98717 0.0
C240 C 0.96317 0.59986 0.99919 0.0
C241 C 0.98582 0.59293 1.01287 0.0
C242 C 0.07473 0.53421 0.99991 0.0
C243 C 1.00548 0.50917 1.02818 0.0
O244 O 0.07259 0.49249 0.10049 0.0
O245 O 0.06856 0.47512 0.05713 0.0
O246 O 0.02548 0.51524 0.09524 0.0
O247 O 0.05395 0.54923 0.08033 0.0
O248 O 0.1042 0.53854 0.06913 0.0
O249 O 0.09581 0.5792 0.05859 0.0
O250 O 0.05822 0.60012 1.01725 0.0
O251 O 0.02771 0.58762 0.05216 0.0
O252 O 0.07018 0.55701 0.99442 0.0
O253 O 0.06779 0.52993 1.02577 0.0
O254 O 1.01239 0.53551 1.02855 0.0
O255 O 0.02245 0.49555 0.03921 0.0
H256 H 0.09393 0.4526 0.13044 0.0
H257 H 0.13917 0.44061 0.13818 0.0
H258 H 0.16784 0.46763 0.0535 0.0
H259 H 0.1225 0.4798 0.04586 0.0
H260 H 0.03863 0.64977 1.00336 0.0
H261 H 0.99876 0.66206 0.97923 0.0
H262 H 0.9422 0.58574 0.99841 0.0
H263 H 0.98171 0.57377 1.0226 0.0
C264 C 0.31789 0.26639 0.30204 0.0
C265 C 0.30608 0.27382 0.277 0.0
C266 C 0.30048 0.25818 0.32602 0.0
C267 C 0.22808 0.25666 0.35672 0.0
H268 H 0.23741 0.19443 0.39498 0.0
C269 C 0.13675 0.18329 0.41504 0.0
C270 C 0.14303 0.17328 0.44132 0.0
C271 C 0.15855 0.19986 0.3992 0.0
C272 C 0.23483 0.21208 0.38482 0.0
H273 H 0.26678 0.27817 0.25728 0.0
H274 H 0.23648 0.26352 0.29858 0.0
H275 H 0.27266 0.21546 0.35934 0.0
H276 H 0.1771 0.17419 0.47223 0.0
H277 H 0.2153 0.20242 0.44394 0.0
H278 H 0.18933 0.25227 0.38122 0.0
C279 C 0.25928 0.26477 0.30027 0.0
C280 C 0.25507 0.22421 0.36445 0.0
C281 C 0.27666 0.27312 0.27649 0.0
C282 C 0.17155 0.18101 0.45179 0.0
C283 C 0.19343 0.19729 0.43572 0.0
C284 C 0.20768 0.24434 0.37683 0.0
C285 C 0.27087 0.25702 0.32529 0.0
C286 C 0.25157 0.24628 0.34963 0.0
C287 C 0.18718 0.20656 0.4091 0.0
C288 C 0.21055 0.22161 0.39061 0.0
H289 H 0.34054 0.26687 0.30304 0.0
H290 H 0.31019 0.25262 0.34504 0.0
H291 H 0.22506 0.274 0.34624 0.0
H292 H 0.11521 0.17748 0.40602 0.0
H293 H 0.15321 0.20648 0.37856 0.0
C294 C 0.37152 0.90596 0.66796 0.0
C295 C 0.35182 0.88092 0.66616 0.0
C296 C 0.38921 0.91349 0.69211 0.0
C297 C 0.41375 0.88894 0.75964 0.0
H298 H 0.4162 0.95993 0.78807 0.0
C299 C 0.43693 0.92396 0.87819 0.0
C300 C 0.45445 0.94971 0.88355 0.0
C301 C 0.4286 0.91507 0.85015 0.0
C302 C 0.41612 0.94021 0.78024 0.0
H303 H 0.33612 0.84357 0.68731 0.0
H304 H 0.36653 0.85683 0.72987 0.0
H305 H 0.39502 0.94503 0.74127 0.0
H306 H 0.47789 0.98589 0.86338 0.0
H307 H 0.46286 0.97051 0.81452 0.0
H308 H 0.43395 0.88398 0.79941 0.0
C309 C 0.36877 0.87056 0.71248 0.0
C310 C 0.40406 0.93165 0.75332 0.0
C311 C 0.35129 0.86294 0.68813 0.0
C312 C 0.46389 0.96615 0.86011 0.0
C313 C 0.4554 0.95732 0.83211 0.0
C314 C 0.42565 0.89748 0.78674 0.0
C315 C 0.38729 0.89625 0.71515 0.0
C316 C 0.40245 0.90582 0.74276 0.0
C317 C 0.43745 0.93178 0.82686 0.0
C318 C 0.42669 0.92312 0.79741 0.0
H319 H 0.37256 0.92005 0.65108 0.0
H320 H 0.40374 0.93316 0.6931 0.0
H321 H 0.4132 0.86906 0.75203 0.0
H322 H 0.42896 0.91088 0.89574 0.0
H323 H 0.41443 0.89541 0.84679 0.0
C324 C 0.66666 0.42785 0.80725 0.0
C325 C 0.66675 0.40099 0.80549 0.0
C326 C 0.66054 0.44083 0.78303 0.0
C327 C 0.6251 0.4278 0.71095 0.0
H328 H 0.66209 0.50225 0.70108 0.0
C329 C 0.60389 0.48539 0.61113 0.0
C330 C 0.60022 0.51095 0.61656 0.0
C331 C 0.61343 0.47157 0.63292 0.0
C332 C 0.65136 0.4815 0.70359 0.0
H333 H 0.66011 0.3666 0.77691 0.0
H334 H 0.65012 0.38934 0.73427 0.0
H335 H 0.67668 0.47903 0.74069 0.0
H336 H 0.60405 0.54196 0.64937 0.0
H337 H 0.62063 0.51801 0.68713 0.0
H338 H 0.59982 0.43039 0.67371 0.0
C339 C 0.65458 0.40042 0.75448 0.0
C340 C 0.65972 0.46813 0.72642 0.0
C341 C 0.66063 0.38741 0.77882 0.0
C342 C 0.60662 0.52237 0.64429 0.0
C343 C 0.61633 0.50865 0.66597 0.0
C344 C 0.61685 0.44117 0.688 0.0
C345 C 0.65421 0.42732 0.75625 0.0
C346 C 0.64647 0.44114 0.73073 0.0
C347 C 0.61979 0.48302 0.66068 0.0
C348 C 0.62961 0.46831 0.6842 0.0
H349 H 0.6707 0.43875 0.8276 0.0
H350 H 0.65993 0.46132 0.78559 0.0
H351 H 0.61405 0.40716 0.71365 0.0
H352 H 0.59908 0.47587 0.59012 0.0
H353 H 0.61604 0.45197 0.62793 0.0
C354 C 0.96238 0.6934 0.27316 0.0
C355 C 0.9377 0.68234 0.28944 0.0
C356 C 0.97304 0.6778 0.25309 0.0
C357 C 0.95009 0.61498 0.20948 0.0
H358 H 0.032 0.62681 0.19557 0.0
C359 C 0.99621 0.54587 0.13355 0.0
C360 C 0.0201 0.55743 0.11645 0.0
C361 C 0.98609 0.561 0.15456 0.0
C362 C 1.00902 0.62342 0.19888 0.0
H363 H 0.90565 0.64603 0.29844 0.0
H364 H 0.9244 0.61859 0.26378 0.0
H365 H 0.01528 0.65267 0.2331 0.0
H366 H 0.05202 0.59405 0.10793 0.0
H367 H 0.03418 0.62057 0.14417 0.0
H368 H 0.94383 0.58576 0.17524 0.0
C369 C 0.93522 0.63947 0.26595 0.0
C370 C 0.99939 0.63828 0.22051 0.0
C371 C 0.92458 0.6551 0.28602 0.0
C372 C 0.03346 0.58456 0.12063 0.0
C373 C 0.02338 0.59971 0.14166 0.0
C374 C 0.95972 0.60011 0.18786 0.0
C375 C 0.95936 0.65066 0.24882 0.0
C376 C 0.96976 0.63434 0.22615 0.0
C377 C 0.99965 0.58813 0.15912 0.0
C378 C 0.98934 0.60411 0.18217 0.0
H379 H 0.97299 0.71433 0.27536 0.0
H380 H 0.99149 0.68727 0.24025 0.0
H381 H 0.92711 0.61164 0.2127 0.0
H382 H 0.98552 0.52499 0.13097 0.0
H383 H 0.96801 0.55123 0.1677 0.0
C384 C 0.39772 0.21308 0.18884 0.0
C385 C 0.37133 0.21275 0.17567 0.0
C386 C 0.41449 0.19669 0.17823 0.0
C387 C 0.42349 0.15597 0.11371 0.0
H388 H 0.46543 0.12345 0.16661 0.0
C389 C 0.47629 0.07342 0.07747 0.0
C390 C 0.50525 0.07721 0.08565 0.0
C391 C 0.45971 0.08924 0.08964 0.0
C392 C 0.45393 0.13252 0.15162 0.0
H393 H 0.34101 0.19399 0.14233 0.0
H394 H 0.3698 0.165 0.12417 0.0
H395 H 0.43721 0.15292 0.18528 0.0
H396 H 0.53913 0.09986 0.11393 0.0
H397 H 0.50997 0.12724 0.1354 0.0
H398 H 0.43983 0.13514 0.08013 0.0
C399 C 0.37824 0.17863 0.14188 0.0
C400 C 0.43788 0.14952 0.16225 0.0
C401 C 0.36167 0.19517 0.15232 0.0
C402 C 0.51693 0.0965 0.10705 0.0
C403 C 0.50022 0.11211 0.11946 0.0
C404 C 0.43926 0.13878 0.10314 0.0
C405 C 0.40493 0.17922 0.15462 0.0
C406 C 0.42243 0.16145 0.14342 0.0
C407 C 0.47162 0.10895 0.11049 0.0
C408 C 0.4546 0.12687 0.12197 0.0
H409 H 0.40541 0.22594 0.20736 0.0
H410 H 0.43499 0.19783 0.18846 0.0
H411 H 0.41239 0.1652 0.09849 0.0
H412 H 0.46663 0.05877 0.06103 0.0
H413 H 0.4376 0.08621 0.08257 0.0
C414 C 0.24218 0.89588 0.61238 0.0
C415 C 0.27228 0.90541 0.61423 0.0
C416 C 0.225 0.91329 0.6084 0.0
C417 C 0.19317 0.95615 0.61529 0.0
H418 H 0.21545 1.00834 0.55611 0.0
C419 C 0.12631 1.02993 0.58961 0.0
C420 C 0.12078 1.03182 0.56025 0.0
C421 C 0.14668 1.0169 0.59834 0.0
C422 C 0.209 0.99388 0.57272 0.0
H423 H 0.30805 0.94059 0.61349 0.0
H424 H 0.27793 0.97113 0.60667 0.0
H425 H 0.24723 0.98045 0.56777 0.0
H426 H 0.13231 1.02222 0.51696 0.0
H427 H 0.16789 0.99945 0.53215 0.0
H428 H 0.1545 0.969 0.61958 0.0
C429 C 0.26768 0.95016 0.60818 0.0
C430 C 0.22729 0.9781 0.57958 0.0
C431 C 0.28488 0.93274 0.61228 0.0
C432 C 0.13627 1.02104 0.53974 0.0
C433 C 0.15672 1.00816 0.54843 0.0
C434 C 0.17493 0.972 0.60851 0.0
C435 C 0.23758 0.94058 0.60612 0.0
C436 C 0.21932 0.95878 0.60059 0.0
C437 C 0.16196 1.00576 0.57781 0.0
C438 C 0.18246 0.9907 0.58682 0.0
H439 H 0.23188 0.87495 0.61416 0.0
H440 H 0.20188 0.90532 0.60656 0.0
H441 H 0.18665 0.9416 0.63181 0.0
H442 H 0.1147 0.03826 0.60581 0.0
H443 H 0.15048 1.01552 0.62111 0.0
C444 C 0.7736 0.40796 0.90536 0.0
C445 C 0.76767 0.38036 0.9005 0.0
C446 C 0.79923 0.42201 0.91897 0.0
C447 C 0.85711 0.413 0.96708 0.0
H448 H 0.89969 0.48123 0.93939 0.0
C449 C 0.97063 0.46661 1.01119 0.0
C450 C 0.97782 0.49441 1.01429 0.0
C451 C 0.94497 0.45282 0.99746 0.0
C452 C 0.88792 0.46238 0.94771 0.0
H453 H 0.78485 0.34621 0.90554 0.0
H454 H 0.82917 0.37062 0.92946 0.0
H455 H 0.85525 0.4573 0.91522 0.0
H456 H 0.9632 0.52933 1.00536 0.0
H457 H 0.91842 0.50538 0.98215 0.0
H458 H 0.88952 0.41811 0.99975 0.0
C459 C 0.81379 0.38134 0.92313 0.0
C460 C 0.86239 0.44861 0.93377 0.0
C461 C 0.78827 0.36732 0.9094 0.0
C462 C 0.95853 0.50797 1.00343 0.0
C463 C 0.93283 0.49419 0.98983 0.0
C464 C 0.88254 0.42682 0.98113 0.0
C465 C 0.81959 0.40886 0.92821 0.0
C466 C 0.84668 0.42369 0.9432 0.0
C467 C 0.9257 0.4664 0.98652 0.0
C468 C 0.89839 0.4517 0.97163 0.0
H469 H 0.75816 0.41868 0.89922 0.0
H470 H 0.80281 0.44315 0.9228 0.0
H471 H 0.84535 0.39406 0.97525 0.0
H472 H 0.98495 0.45543 1.01907 0.0
H473 H 0.94054 0.43149 0.995 0.0
C474 C 0.84609 0.6592 0.41158 0.0
C475 C 0.8504 0.68631 0.40626 0.0
C476 C 0.8205 0.64472 0.42426 0.0
C477 C 0.74454 0.64556 0.43861 0.0
H478 H 0.74954 0.59819 0.49995 0.0
C479 C 0.64256 0.58264 0.49485 0.0
C480 C 0.64379 0.58268 0.52504 0.0
C481 C 0.66757 0.59278 0.47877 0.0
C482 C 0.74774 0.61135 0.48287 0.0
H483 H 0.83066 0.71917 0.40933 0.0
H484 H 0.78628 0.69406 0.43155 0.0
H485 H 0.79318 0.62112 0.47476 0.0
H486 H 0.67228 0.59246 0.56196 0.0
H487 H 0.71582 0.61002 0.53404 0.0
H488 H 0.69921 0.63629 0.44717 0.0
C489 C 0.80261 0.68391 0.42588 0.0
C490 C 0.77276 0.62431 0.46822 0.0
C491 C 0.82823 0.69841 0.41341 0.0
C492 C 0.67065 0.59218 0.53873 0.0
C493 C 0.69565 0.60213 0.52268 0.0
C494 C 0.7195 0.63247 0.45313 0.0
C495 C 0.79846 0.65692 0.4317 0.0
C496 C 0.77156 0.64186 0.44613 0.0
C497 C 0.6944 0.60297 0.49251 0.0
C498 C 0.7208 0.61543 0.47571 0.0
H499 H 0.86277 0.64928 0.40653 0.0
H500 H 0.81796 0.62391 0.42819 0.0
H501 H 0.74273 0.65869 0.4215 0.0
H502 H 0.62217 0.5754 0.48369 0.0
H503 H 0.66586 0.5928 0.45556 0.0
C504 C 0.3253 0.35205 0.20154 0.0
C505 C 0.32768 0.32789 0.1891 0.0
C506 C 0.31426 0.36952 0.18571 0.0
C507 C 0.26494 0.36708 0.12495 0.0
H508 H 0.28224 0.44283 0.14041 0.0
C509 C 0.19353 0.42947 0.07982 0.0
C510 C 0.18384 0.4448 0.10098 0.0
C511 C 0.21666 0.41871 0.08551 0.0
C512 C 0.27726 0.42171 0.1358 0.0
H513 H 0.32228 0.30413 0.14955 0.0
H514 H 0.30406 0.33507 0.12163 0.0
H515 H 0.31422 0.41757 0.15895 0.0
H516 H 0.19184 0.46233 0.1439 0.0
H517 H 0.23211 0.44346 0.1539 0.0
H518 H 0.22764 0.37109 0.10245 0.0
C519 C 0.31 0.34017 0.14389 0.0
C520 C 0.29551 0.40722 0.14646 0.0
C521 C 0.32083 0.32258 0.15981 0.0
C522 C 0.19868 0.45034 0.12732 0.0
C523 C 0.22192 0.43976 0.13292 0.0
C524 C 0.24686 0.38159 0.11413 0.0
C525 C 0.30556 0.36339 0.15694 0.0
C526 C 0.28911 0.37959 0.14186 0.0
C527 C 0.23069 0.42328 0.11236 0.0
C528 C 0.25238 0.40892 0.1201 0.0
H529 H 0.33087 0.35696 0.22392 0.0
H530 H 0.31104 0.3871 0.19659 0.0
H531 H 0.25897 0.34581 0.12135 0.0
H532 H 0.18242 0.4248 0.05937 0.0
H533 H 0.22311 0.40624 0.06919 0.0
C534 C 0.70138 0.27949 0.89823 0.0
C535 C 0.68538 0.29813 0.89414 0.0
C536 C 0.68833 0.25448 0.90905 0.0
C537 C 0.61593 0.20804 0.92328 0.0
H538 H 0.66143 0.17319 0.96943 0.0
C539 C 0.56927 0.10028 0.95846 0.0
C540 C 0.5775 0.09248 0.9851 0.0
C541 C 0.58301 0.12498 0.94741 0.0
C542 C 0.64817 0.18266 0.95692 0.0
H543 H 0.64308 0.30513 0.89847 0.0
H544 H 0.62043 0.26201 0.91828 0.0
H545 H 0.68328 0.21687 0.95127 0.0
H546 H 0.60741 0.10424 1.02046 0.0
H547 H 0.63052 0.14796 1.00227 0.0
H548 H 0.58041 0.17454 0.9302 0.0
C549 C 0.64293 0.26622 0.91235 0.0
C550 C 0.66094 0.20772 0.94598 0.0
C551 C 0.65592 0.2911 0.90106 0.0
C552 C 0.60025 0.10982 1.00021 0.0
C553 C 0.61375 0.13484 0.98943 0.0
C554 C 0.60305 0.18319 0.93459 0.0
C555 C 0.65892 0.24746 0.91659 0.0
C556 C 0.64511 0.22079 0.92877 0.0
C557 C 0.60518 0.14295 0.9629 0.0
C558 C 0.61898 0.16991 0.95141 0.0
H559 H 0.72406 0.28419 0.8928 0.0
H560 H 0.70139 0.24059 0.91121 0.0
H561 H 0.60291 0.21704 0.9099 0.0
H562 H 0.55202 0.08724 0.94604 0.0
H563 H 0.57619 0.12985 0.92657 0.0
C564 C 0.94128 0.79203 0.39055 0.0
C565 C 0.93107 0.76973 0.4076 0.0
C566 C 0.95253 0.81726 0.40335 0.0
C567 C 0.98446 0.85115 0.47116 0.0
H568 H 0.95948 0.91094 0.44368 0.0
C569 C 1.01042 0.95118 0.535 0.0
C570 C 0.01584 0.97487 0.51982 0.0
C571 C 1.00042 0.92653 0.52073 0.0
C572 C 0.96712 0.89463 0.45144 0.0
H573 H 0.92562 0.75645 0.45149 0.0
H574 H 0.94539 0.8002 0.4737 0.0
H575 H 0.94269 0.86767 0.41951 0.0
H576 H 0.01498 0.991 0.4775 0.0
H577 H 0.99832 0.94814 0.45251 0.0
H578 H 1.00923 0.87793 0.50276 0.0
C579 C 0.94461 0.7983 0.45045 0.0
C580 C 0.95738 0.86973 0.43754 0.0
C581 C 0.93305 0.77321 0.4377 0.0
C582 C 1.01086 0.97321 0.48996 0.0
C583 C 1.00113 0.94852 0.47561 0.0
C584 C 0.99443 0.87606 0.48487 0.0
C585 C 0.95428 0.82073 0.43349 0.0
C586 C 0.96571 0.84759 0.44738 0.0
C587 C 0.99583 0.92473 0.49074 0.0
C588 C 0.98571 0.89821 0.47545 0.0
H589 H 0.93993 0.79008 0.36733 0.0
H590 H 0.95999 0.83406 0.38963 0.0
H591 H 0.99168 0.83465 0.47908 0.0
H592 H 0.01379 0.95162 0.55804 0.0
H593 H 0.99606 0.90888 0.53339 0.0
C594 C 0.32648 0.77997 0.57103 0.0
C595 C 0.33227 0.80737 0.56741 0.0
C596 C 0.34898 0.76815 0.57529 0.0
C597 C 0.42614 0.77689 0.56347 0.0
H598 H 0.41709 0.72299 0.62096 0.0
C599 C 0.4923 0.69926 0.56541 0.0
C600 C 0.50037 0.69177 0.59228 0.0
C601 C 0.4751 0.71699 0.56374 0.0
C602 C 0.42014 0.73824 0.60508 0.0
H603 H 0.3657 0.84417 0.56628 0.0
H604 H 0.40538 0.82341 0.57344 0.0
H605 H 0.38012 0.74684 0.61576 0.0
H606 H 0.49757 0.69762 0.63844 0.0
H607 H 0.46771 0.72878 0.63549 0.0
H608 H 0.46607 0.76799 0.55259 0.0
C609 C 0.38347 0.81105 0.57254 0.0
C610 C 0.39882 0.75167 0.6019 0.0
C611 C 0.36088 0.82289 0.56844 0.0
C612 C 0.49182 0.70314 0.61742 0.0
C613 C 0.47453 0.72078 0.61575 0.0
C614 C 0.44744 0.76331 0.56655 0.0
C615 C 0.37769 0.78357 0.57614 0.0
C616 C 0.40139 0.77082 0.58078 0.0
C617 C 0.46554 0.72747 0.58891 0.0
C618 C 0.44445 0.74363 0.58716 0.0
H619 H 0.30449 0.76776 0.57069 0.0
H620 H 0.34393 0.7469 0.57772 0.0
H621 H 0.42859 0.79151 0.54695 0.0
H622 H 0.49888 0.69105 0.54568 0.0
H623 H 0.46834 0.72163 0.54275 0.0
C624 C 0.78818 0.82764 0.82038 0.0
C625 C 0.795 0.81866 0.84699 0.0
C626 C 0.80965 0.83634 0.79987 0.0
C627 C 0.88655 0.8667 0.79526 0.0
H628 H 0.87722 0.84838 0.71389 0.0
C629 C 0.97622 0.91204 0.71609 0.0
C630 C 0.96761 0.9208 0.69006 0.0
C631 C 0.95612 0.89547 0.73365 0.0
C632 C 0.88008 0.85388 0.73651 0.0
H633 H 0.82946 0.81138 0.87288 0.0
H634 H 0.86699 0.82674 0.83711 0.0
H635 H 0.83961 0.82734 0.74761 0.0
H636 H 0.93127 0.91736 0.66128 0.0
H637 H 0.89605 0.88968 0.69252 0.0
H638 H 0.92619 0.89404 0.78442 0.0
C639 C 0.84504 0.82696 0.83211 0.0
C640 C 0.85858 0.84175 0.75578 0.0
C641 C 0.82355 0.81801 0.85247 0.0
C642 C 0.9386 0.91152 0.68146 0.0
C643 C 0.91842 0.89525 0.69923 0.0
C644 C 0.90783 0.87904 0.77603 0.0
C645 C 0.83837 0.83651 0.80577 0.0
C646 C 0.86158 0.84817 0.78531 0.0
C647 C 0.9268 0.88753 0.72589 0.0
C648 C 0.90485 0.87293 0.74636 0.0
H649 H 0.76629 0.82817 0.81555 0.0
H650 H 0.80397 0.84378 0.7798 0.0
H651 H 0.88921 0.87233 0.81787 0.0
H652 H 0.99827 0.91885 0.72361 0.0
H653 H 0.96351 0.88944 0.75371 0.0
C654 C 0.71709 0.17963 0.41669 0.0
C655 C 0.74688 0.18692 0.42227 0.0
C656 C 0.70674 0.1742 0.38855 0.0
C657 C 0.72847 0.18285 0.31203 0.0
H658 H 0.66415 0.12115 0.29944 0.0
C659 C 0.69692 0.13404 0.1998 0.0
C660 C 0.66737 0.12553 0.19315 0.0
C661 C 0.70608 0.14321 0.22756 0.0
C662 C 0.6819 0.13863 0.30263 0.0
H663 H 0.78916 0.19521 0.40256 0.0
H664 H 0.77114 0.18508 0.3536 0.0
H665 H 0.68098 0.13453 0.34824 0.0
H666 H 0.6243 0.12073 0.21031 0.0
H667 H 0.64033 0.13647 0.2588 0.0
H668 H 0.72964 0.18657 0.26627 0.0
C669 C 0.75574 0.1838 0.37091 0.0
C670 C 0.69152 0.14634 0.33061 0.0
C671 C 0.76608 0.18929 0.39902 0.0
C672 C 0.64721 0.12666 0.21483 0.0
C673 C 0.65638 0.13573 0.2426 0.0
C674 C 0.71891 0.17506 0.28402 0.0
C675 C 0.72595 0.17589 0.36536 0.0
C676 C 0.71501 0.16846 0.33565 0.0
C677 C 0.6859 0.14399 0.2493 0.0
C678 C 0.6956 0.15279 0.27903 0.0
H679 H 0.70171 0.17742 0.43412 0.0
H680 H 0.68366 0.16851 0.38498 0.0
H681 H 0.74634 0.20021 0.31519 0.0
H682 H 0.713 0.13309 0.18371 0.0
H683 H 0.72898 0.1491 0.23218 0.0
C684 C 0.48448 0.69641 0.30115 0.0
C685 C 0.45622 0.68648 0.29066 0.0
C686 C 0.4933 0.6869 0.32653 0.0
C687 C 0.46728 0.64872 0.39239 0.0
H688 H 0.54183 0.63306 0.38869 0.0
C689 C 0.52003 0.60981 0.48995 0.0
C690 C 0.53368 0.58953 0.48357 0.0
C691 C 0.50996 0.62291 0.46777 0.0
C692 C 0.52091 0.63722 0.39013 0.0
H693 H 0.41471 0.65969 0.29925 0.0
H694 H 0.43001 0.643 0.3437 0.0
H695 H 0.52515 0.6538 0.34829 0.0
H696 H 0.54709 0.56714 0.44858 0.0
H697 H 0.52972 0.58978 0.41037 0.0
H698 H 0.46297 0.63157 0.43418 0.0
C699 C 0.4454 0.65822 0.33237 0.0
C700 C 0.51145 0.64943 0.36701 0.0
C701 C 0.4366 0.66771 0.30688 0.0
C702 C 0.53682 0.58267 0.45448 0.0
C703 C 0.52698 0.59582 0.43244 0.0
C704 C 0.47688 0.63663 0.41569 0.0
C705 C 0.47408 0.66724 0.3422 0.0
C706 C 0.48442 0.65521 0.36766 0.0
C707 C 0.51355 0.61623 0.43868 0.0
C708 C 0.50371 0.63043 0.41472 0.0
H709 H 0.50006 0.71099 0.28923 0.0
H710 H 0.51539 0.69471 0.33366 0.0
H711 H 0.44645 0.65304 0.39379 0.0
H712 H 0.51721 0.61566 0.51204 0.0
H713 H 0.49986 0.63863 0.4734 0.0
C714 C 0.16567 0.42855 0.79465 0.0
C715 C 0.16699 0.40202 0.79589 0.0
C716 C 0.15409 0.44056 0.81736 0.0
C717 C 0.13819 0.43643 0.89537 0.0
H718 H 0.09139 0.48424 0.87763 0.0
C719 C 0.0859 0.49102 0.98415 0.0
C720 C 0.08532 0.51717 0.97859 0.0
C721 C 0.09485 0.47524 0.96282 0.0
C722 C 0.1047 0.47122 0.88309 0.0
H723 H 0.15684 0.36733 0.82228 0.0
H724 H 0.13651 0.38836 0.86211 0.0
H725 H 0.10822 0.45994 0.83891 0.0
H726 H 0.0943 0.54738 0.94641 0.0
H727 H 0.11023 0.52043 0.90976 0.0
H728 H 0.13496 0.44813 0.93964 0.0
C729 C 0.14464 0.39988 0.84346 0.0
C730 C 0.11433 0.45718 0.86077 0.0
C731 C 0.15605 0.38774 0.8205 0.0
C732 C 0.09428 0.52726 0.95143 0.0
C733 C 0.10323 0.51165 0.93024 0.0
C734 C 0.12862 0.45063 0.9178 0.0
C735 C 0.14351 0.4265 0.84219 0.0
C736 C 0.13159 0.43988 0.86647 0.0
C737 C 0.10336 0.48527 0.93538 0.0
C738 C 0.11212 0.4686 0.91194 0.0
H739 H 0.17358 0.44013 0.77596 0.0
H740 H 0.15391 0.46114 0.81563 0.0
H741 H 0.15158 0.42343 0.90061 0.0
H742 H 0.07893 0.48259 1.0047 0.0
H743 H 0.09444 0.455 0.96763 0.0
C744 C 0.70282 0.85109 0.88961 0.0
C745 C 0.7194 0.84114 0.9091 0.0
C746 C 0.68932 0.87064 0.89854 0.0
C747 C 0.69615 0.92569 0.94914 0.0
H748 H 0.61358 0.91462 0.94117 0.0
C749 C 0.63509 0.99426 1.00602 0.0
C750 C 0.60949 0.99704 0.99365 0.0
C751 C 0.64972 0.97687 0.99356 0.0
C752 C 0.63676 0.91842 0.94302 0.0
H753 H 0.73521 0.84381 0.95293 0.0
H754 H 0.71208 0.87846 0.96838 0.0
H755 H 0.63628 0.88077 0.92322 0.0
H756 H 0.58006 0.9853 0.95762 0.0
H757 H 0.60632 0.95617 0.93499 0.0
H758 H 0.69704 0.96354 0.96819 0.0
C759 C 0.70929 0.87091 0.94637 0.0
C760 C 0.64966 0.89886 0.9329 0.0
C761 C 0.72226 0.851 0.93762 0.0
C762 C 0.59962 0.98328 0.96778 0.0
C763 C 0.61455 0.96637 0.95498 0.0
C764 C 0.68337 0.9455 0.95876 0.0
C765 C 0.69279 0.88094 0.92689 0.0
C766 C 0.67938 0.9022 0.93623 0.0
C767 C 0.63935 0.9623 0.96812 0.0
C768 C 0.65341 0.94201 0.95619 0.0
H769 H 0.70041 0.84378 0.8675 0.0
H770 H 0.6767 0.87814 0.88318 0.0
H771 H 0.71921 0.92876 0.95164 0.0
H772 H 0.64301 1.00446 1.02612 0.0
H773 H 0.66847 0.9741 1.0046 0.0
C774 C 0.81572 0.1624 0.5251 0.0
C775 C 0.81565 0.17325 0.49774 0.0
C776 C 0.83782 0.15124 0.53315 0.0
C777 C 0.88756 0.11646 0.50481 0.0
H778 H 0.93007 0.13778 0.57597 0.0
C779 C 0.97929 0.07087 0.53836 0.0
C780 C 0.98255 0.06706 0.56775 0.0
C781 C 0.96012 0.08498 0.52916 0.0
C782 C 0.91813 0.13129 0.55624 0.0
H783 H 0.83931 0.18124 0.45765 0.0
H784 H 0.87724 0.16056 0.47146 0.0
H785 H 0.89443 0.16067 0.56123 0.0
H786 H 0.96787 0.07406 0.6106 0.0
H787 H 0.93329 0.09753 0.5946 0.0
H788 H 0.91002 0.0863 0.50027 0.0
C789 C 0.86015 0.161 0.48657 0.0
C790 C 0.89793 0.14456 0.54775 0.0
C791 C 0.83833 0.17266 0.47867 0.0
C792 C 0.96585 0.07694 0.5878 0.0
C793 C 0.94628 0.09063 0.5786 0.0
C794 C 0.90738 0.10284 0.51353 0.0
C795 C 0.86001 0.15023 0.51386 0.0
C796 C 0.88244 0.13717 0.52205 0.0
C797 C 0.94336 0.09507 0.54918 0.0
C798 C 0.92281 0.10999 0.53946 0.0
H799 H 0.79835 0.16194 0.54014 0.0
H800 H 0.83715 0.14273 0.5542 0.0
H801 H 0.87557 0.11028 0.48502 0.0
H802 H 0.99184 0.06327 0.52247 0.0
H803 H 0.95878 0.08827 0.50639 0.0
C804 C 0.3521 0.69252 0.15788 0.0
C805 C 0.35411 0.69468 0.18807 0.0
C806 C 0.32698 0.67747 0.1443 0.0
C807 C 0.25921 0.62493 0.15691 0.0
H808 H 0.23386 0.65206 0.08771 0.0
C809 C 0.16055 0.5647 0.09039 0.0
C810 C 0.14193 0.57883 0.07925 0.0
C811 C 0.18712 0.57808 0.10274 0.0
C812 C 0.24046 0.64422 0.10711 0.0
H813 H 0.33105 0.68244 0.22758 0.0
H814 H 0.28711 0.65639 0.20395 0.0
H815 H 0.27798 0.67672 0.11163 0.0
H816 H 0.1371 0.61833 0.07223 0.0
H817 H 0.18297 0.64149 0.09388 0.0
H818 H 0.22114 0.59282 0.15282 0.0
C819 C 0.30518 0.66602 0.19071 0.0
C820 C 0.26607 0.65824 0.12068 0.0
C821 C 0.3304 0.68102 0.20431 0.0
C822 C 0.15083 0.6067 0.08039 0.0
C823 C 0.17733 0.62004 0.09276 0.0
C824 C 0.23354 0.6109 0.14334 0.0
C825 C 0.30302 0.66417 0.16048 0.0
C826 C 0.27581 0.64887 0.14584 0.0
C827 C 0.19581 0.60597 0.10431 0.0
C828 C 0.22371 0.62041 0.1183 0.0
H829 H 0.37011 0.70233 0.14466 0.0
H830 H 0.32646 0.67611 0.12104 0.0
H831 H 0.2661 0.61688 0.17603 0.0
H832 H 0.15451 0.54322 0.08988 0.0
H833 H 0.2009 0.56652 0.111 0.0
C834 C 0.31504 0.40821 0.70513 0.0
C835 C 0.29397 0.42121 0.71342 0.0
C836 C 0.33833 0.42078 0.68799 0.0
C837 C 0.36401 0.47601 0.63807 0.0
H838 H 0.43942 0.46762 0.65797 0.0
C839 C 0.46379 0.50713 0.5635 0.0
C840 C 0.49082 0.51814 0.57638 0.0
C841 C 0.43934 0.49724 0.58038 0.0
C842 C 0.41859 0.4704 0.65224 0.0
H843 H 0.28089 0.45765 0.71042 0.0
H844 H 0.32154 0.47969 0.68019 0.0
H845 H 0.39765 0.44642 0.68661 0.0
H846 H 0.51324 0.52818 0.61711 0.0
H847 H 0.47058 0.51102 0.64663 0.0
H848 H 0.38509 0.50011 0.60371 0.0
C849 C 0.31985 0.4596 0.68665 0.0
C850 C 0.39453 0.45795 0.66847 0.0
C851 C 0.29658 0.44703 0.70395 0.0
C852 C 0.49272 0.51975 0.60654 0.0
C853 C 0.4683 0.50974 0.62345 0.0
C854 C 0.3881 0.48835 0.62169 0.0
C855 C 0.34125 0.44675 0.67875 0.0
C856 C 0.36688 0.46046 0.66155 0.0
C857 C 0.44134 0.49801 0.61059 0.0
C858 C 0.41572 0.48566 0.62851 0.0
H859 H 0.31377 0.3884 0.71229 0.0
H860 H 0.35414 0.41012 0.68203 0.0
H861 H 0.34305 0.47828 0.63202 0.0
H862 H 0.46165 0.50562 0.5403 0.0
H863 H 0.41905 0.48819 0.5697 0.0
C864 C 0.75667 0.70388 0.94164 0.0
C865 C 0.75519 0.7173 0.91621 0.0
C866 C 0.77811 0.69056 0.94523 0.0
C867 C 0.85156 0.69362 0.92333 0.0
H868 H 0.83729 0.62456 0.9573 0.0
C869 C 0.94451 0.64616 0.94911 0.0
C870 C 0.94245 0.63307 0.97531 0.0
C871 C 0.92095 0.65414 0.93848 0.0
C872 C 0.84169 0.64396 0.94802 0.0
H873 H 0.77458 0.7273 0.87456 0.0
H874 H 0.81245 0.70429 0.88096 0.0
H875 H 0.79674 0.64227 0.94497 0.0
H876 H 0.91441 0.61853 1.01117 0.0
H877 H 0.8737 0.63287 0.9931 0.0
H878 H 0.89647 0.69595 0.92743 0.0
C879 C 0.79689 0.70388 0.89798 0.0
C880 C 0.81844 0.65402 0.94086 0.0
C881 C 0.77523 0.71692 0.89427 0.0
C882 C 0.91646 0.62815 0.99065 0.0
C883 C 0.89306 0.6363 0.9802 0.0
C884 C 0.87484 0.68371 0.93077 0.0
C885 C 0.79875 0.69086 0.92365 0.0
C886 C 0.82317 0.6791 0.92882 0.0
C887 C 0.89496 0.64941 0.95399 0.0
C888 C 0.87022 0.65893 0.94366 0.0
H889 H 0.74175 0.70434 0.95904 0.0
H890 H 0.77927 0.68098 0.96539 0.0
H891 H 0.85583 0.71316 0.91436 0.0
H892 H 0.96423 0.65002 0.93674 0.0
H893 H 0.92307 0.66391 0.91806 0.0
C894 C 0.43422 0.78262 0.16171 0.0
C895 C 0.43437 0.77885 0.19161 0.0
C896 C 0.44646 0.8075 0.15018 0.0
C897 C 0.49943 0.87149 0.16524 0.0
H898 H 0.45779 0.89795 0.10661 0.0
C899 C 0.54107 0.97821 0.12492 0.0
C900 C 0.53732 0.98298 0.09579 0.0
C901 C 0.52757 0.95377 0.13673 0.0
C902 C 0.47 0.89081 0.12265 0.0
H903 H 0.44801 0.79886 0.23264 0.0
H904 H 0.46997 0.842 0.21241 0.0
H905 H 0.43696 0.85455 0.12662 0.0
H906 H 0.51643 0.96568 0.0563 0.0
H907 H 0.49332 0.92277 0.07639 0.0
H908 H 0.53279 0.90725 0.16092 0.0
C909 C 0.46027 0.82556 0.19793 0.0
C910 C 0.45794 0.86587 0.13422 0.0
C911 C 0.44774 0.80072 0.20952 0.0
C912 C 0.5194 0.9628 0.07881 0.0
C913 C 0.50611 0.93813 0.09049 0.0
C914 C 0.51164 0.89628 0.15347 0.0
C915 C 0.45958 0.82934 0.16811 0.0
C916 C 0.47245 0.8559 0.15574 0.0
C917 C 0.51022 0.93311 0.11963 0.0
C918 C 0.49709 0.90645 0.13205 0.0
H919 H 0.42481 0.76626 0.14703 0.0
H920 H 0.44597 0.80954 0.12709 0.0
H921 H 0.51141 0.86429 0.18146 0.0
H922 H 0.55468 0.99342 0.13867 0.0
H923 H 0.53082 0.95115 0.15936 0.0
C924 C 0.15698 0.30443 0.74014 0.0
C925 C 0.16596 0.3271 0.72345 0.0
C926 C 0.14627 0.27926 0.72695 0.0
C927 C 0.14562 0.24391 0.65558 0.0
H928 H 0.08654 0.18876 0.69068 0.0
C929 C 0.08901 0.14639 0.59424 0.0
C930 C 0.08463 0.12258 0.6091 0.0
C931 C 0.0988 0.17096 0.60871 0.0
C932 C 0.10324 0.20388 0.6807 0.0
H933 H 0.16916 0.34125 0.67993 0.0
H934 H 0.14982 0.29792 0.65709 0.0
H935 H 0.10283 0.23213 0.7149 0.0
H936 H 0.08694 0.10618 0.65108 0.0
H937 H 0.10382 0.14906 0.67633 0.0
H938 H 0.14564 0.2158 0.62119 0.0
C939 C 0.15197 0.29915 0.68027 0.0
C940 C 0.11267 0.22882 0.69464 0.0
C941 C 0.16292 0.32414 0.6934 0.0
C942 C 0.09017 0.12406 0.63889 0.0
C943 C 0.09966 0.14867 0.65343 0.0
C944 C 0.136 0.21913 0.64156 0.0
C945 C 0.14399 0.27618 0.69673 0.0
C946 C 0.13395 0.24931 0.68224 0.0
C947 C 0.10419 0.17247 0.63853 0.0
C948 C 0.11462 0.19877 0.65385 0.0
H949 H 0.15919 0.30602 0.76333 0.0
H950 H 0.14061 0.26216 0.74046 0.0
H951 H 0.16254 0.25877 0.64554 0.0
H952 H 0.08493 0.14609 0.57133 0.0
H953 H 0.10175 0.18884 0.59657 0.0
C954 C 0.6963 0.23481 0.56752 0.0
C955 C 0.69745 0.22081 0.54158 0.0
C956 C 0.67876 0.2523 0.5699 0.0
C957 C 0.62033 0.27397 0.53292 0.0
H958 H 0.65787 0.34219 0.56821 0.0
C959 C 0.59505 0.37174 0.50386 0.0
C960 C 0.59535 0.39079 0.52585 0.0
C961 C 0.60223 0.34821 0.50978 0.0
C962 C 0.64681 0.32311 0.55877 0.0
H963 H 0.6813 0.21366 0.49797 0.0
H964 H 0.65116 0.24465 0.50172 0.0
H965 H 0.68016 0.30564 0.57161 0.0
H966 H 0.60179 0.39936 0.57163 0.0
H967 H 0.61488 0.35841 0.58182 0.0
H968 H 0.58767 0.29207 0.5189 0.0
C969 C 0.66304 0.24168 0.52054 0.0
C970 C 0.65956 0.3021 0.56076 0.0
C971 C 0.68039 0.22407 0.51827 0.0
C972 C 0.60195 0.38534 0.5541 0.0
C973 C 0.60931 0.36187 0.55998 0.0
C974 C 0.60768 0.29507 0.53076 0.0
C975 C 0.66241 0.25637 0.54622 0.0
C976 C 0.64681 0.27745 0.54731 0.0
C977 C 0.60999 0.3433 0.53778 0.0
C978 C 0.62114 0.31999 0.54315 0.0
H979 H 0.70948 0.23271 0.5857 0.0
H980 H 0.6785 0.26307 0.59007 0.0
H981 H 0.60969 0.25509 0.52278 0.0
H982 H 0.59042 0.37545 0.48182 0.0
H983 H 0.60297 0.33442 0.49217 0.0
loop_
_geom_bond_atom_site_label_1
_geom_bond_atom_site_label_2
_geom_bond_distance
_geom_bond_site_symmetry_2
_ccdc_geom_bond_type
H0 C7 0.929 . S
H1 C10 0.930 . S
H2 C12 0.929 . S
H3 C4 0.969 . S
C4 H3 0.969 . S
C4 O5 1.550 . S
C4 H6 0.973 . S
O5 C4 1.550 . S
O5 C11 1.412 . S
H6 C4 0.973 . S
C7 H0 0.929 . S
C7 C8 1.400 . S
C7 C9 1.364 . S
C8 C7 1.400 . S
C8 C12 1.377 . S
C9 C7 1.364 . S
C9 C10 1.374 . S
C10 H1 0.930 . S
C10 C9 1.374 . S
C10 C11 1.383 . S
C11 O5 1.412 . S
C11 C10 1.383 . S
C11 C12 1.394 . S
C12 H2 0.929 . S
C12 C8 1.377 . S
C12 C11 1.394 . S
H13 C20 0.929 . S
H14 C23 0.930 . S
H15 C25 0.929 . S
H16 C17 0.969 . S
C17 H16 0.969 . S
C17 O18 1.550 . S
C17 H19 0.973 . S
O18 C17 1.550 . S
O18 C24 1.412 . S
H19 C17 0.973 . S
C20 H13 0.929 . S
C20 C21 1.400 . S
C20 C22 1.364 . S
C21 C20 1.400 . S
C21 C25 1.377 . S
C22 C20 1.364 . S
C22 C23 1.374 . S
C23 H14 0.930 . S
C23 C22 1.374 . S
C23 C24 1.383 . S
C24 O18 1.412 . S
C24 C23 1.383 . S
C24 C25 1.394 . S
C25 H15 0.929 . S
C25 C21 1.377 . S
C25 C24 1.394 . S
H26 C33 0.929 . S
H27 C36 0.930 . S
H28 C38 0.929 . S
H29 C30 0.969 . S
C30 H29 0.969 . S
C30 O31 1.550 . S
C30 H32 0.973 . S
O31 C30 1.550 . S
O31 C37 1.412 . S
H32 C30 0.973 . S
C33 H26 0.929 . S
C33 C34 1.400 . S
C33 C35 1.364 . S
C34 C33 1.400 . S
C34 C38 1.377 . S
C35 C33 1.364 . S
C35 C36 1.374 . S
C36 H27 0.930 . S
C36 C35 1.374 . S
C36 C37 1.383 . S
C37 O31 1.412 . S
C37 C36 1.383 . S
C37 C38 1.394 . S
C38 H28 0.929 . S
C38 C34 1.377 . S
C38 C37 1.394 . S
H39 C46 0.929 . S
H40 C49 0.930 . S
H41 C51 0.929 . S
H42 C43 0.969 . S
C43 H42 0.969 . S
C43 O44 1.550 . S
C43 H45 0.973 . S
O44 C43 1.550 . S
O44 C50 1.412 . S
H45 C43 0.973 . S
C46 H39 0.929 . S
C46 C47 1.400 . S
C46 C48 1.364 . S
C47 C46 1.400 . S
C47 C51 1.377 . S
C48 C46 1.364 . S
C48 C49 1.374 . S
C49 H40 0.930 . S
C49 C48 1.374 . S
C49 C50 1.383 . S
C50 O44 1.412 . S
C50 C49 1.383 . S
C50 C51 1.394 . S
C51 H41 0.929 . S
C51 C47 1.377 . S
C51 C50 1.394 . S
H52 C59 0.929 . S
H53 C62 0.930 . S
H54 C64 0.929 . S
H55 C56 0.969 . S
C56 H55 0.969 . S
C56 O57 1.550 . S
C56 H58 0.973 . S
O57 C56 1.550 . S
O57 C63 1.412 . S
H58 C56 0.973 . S
C59 H52 0.929 . S
C59 C60 1.400 . S
C59 C61 1.364 . S
C60 C59 1.400 . S
C60 C64 1.377 . S
C61 C59 1.364 . S
C61 C62 1.374 . S
C62 H53 0.930 . S
C62 C61 1.374 . S
C62 C63 1.383 . S
C63 O57 1.412 . S
C63 C62 1.383 . S
C63 C64 1.394 . S
C64 H54 0.929 . S
C64 C60 1.377 . S
C64 C63 1.394 . S
H65 C72 0.929 . S
H66 C75 0.930 . S
H67 C77 0.929 . S
H68 C69 0.969 . S
C69 H68 0.969 . S
C69 O70 1.550 . S
C69 H71 0.973 . S
O70 C69 1.550 . S
O70 C76 1.412 . S
H71 C69 0.973 . S
C72 H65 0.929 . S
C72 C73 1.400 . S
C72 C74 1.364 . S
C73 C72 1.400 . S
C73 C77 1.377 . S
C74 C72 1.364 . S
C74 C75 1.374 . S
C75 H66 0.930 . S
C75 C74 1.374 . S
C75 C76 1.383 . S
C76 O70 1.412 . S
C76 C75 1.383 . S
C76 C77 1.394 . S
C77 H67 0.929 . S
C77 C73 1.377 . S
C77 C76 1.394 . S
H78 C85 0.929 . S
H79 C88 0.930 . S
H80 C90 0.929 . S
H81 C82 0.969 . S
C82 H81 0.969 . S
C82 O83 1.550 . S
C82 H84 0.973 . S
O83 C82 1.550 . S
O83 C89 1.412 . S
H84 C82 0.973 . S
C85 H78 0.929 . S
C85 C86 1.400 . S
C85 C87 1.364 . S
C86 C85 1.400 . S
C86 C90 1.377 . S
C87 C85 1.364 . S
C87 C88 1.374 . S
C88 H79 0.930 . S
C88 C87 1.374 . S
C88 C89 1.383 . S
C89 O83 1.412 . S
C89 C88 1.383 . S
C89 C90 1.394 . S
C90 H80 0.929 . S
C90 C86 1.377 . S
C90 C89 1.394 . S
H91 C98 0.929 . S
H92 C101 0.930 . S
H93 C103 0.929 . S
H94 C95 0.969 . S
C95 H94 0.969 . S
C95 O96 1.550 . S
C95 H97 0.973 . S
O96 C95 1.550 . S
O96 C102 1.412 . S
H97 C95 0.973 . S
C98 H91 0.929 . S
C98 C99 1.400 . S
C98 C100 1.364 . S
C99 C98 1.400 . S
C99 C103 1.377 . S
C100 C98 1.364 . S
C100 C101 1.374 . S
C101 H92 0.930 . S
C101 C100 1.374 . S
C101 C102 1.383 . S
C102 O96 1.412 . S
C102 C101 1.383 . S
C102 C103 1.394 . S
C103 H93 0.929 . S
C103 C99 1.377 . S
C103 C102 1.394 . S
La104 C106 2.928 . S
La104 O124 2.521 . S
La104 O125 2.628 . S
La104 O126 2.554 . S
La104 O127 2.776 . S
La104 O128 2.470 . S
La104 O133 2.482 . S
La104 O135 2.503 1_545 S
La105 C115 2.939 1_545 S
La105 O127 2.476 1_655 S
La105 O129 2.490 1_655 S
La105 O130 2.541 1_545 S
La105 O131 2.628 1_545 S
La105 O132 2.574 . S
La105 O133 2.757 1_655 S
La105 O134 2.476 1_545 S
C106 La104 2.928 . S
C106 C107 1.503 . S
C106 O124 1.261 . S
C106 O125 1.243 . S
C107 C106 1.503 . S
C107 C108 1.394 . S
C107 C112 1.373 . S
C108 C107 1.394 . S
C108 C109 1.380 . S
C108 H136 0.930 . S
C109 C108 1.380 . S
C109 C110 1.376 . S
C109 H137 0.930 . S
C110 C109 1.376 . S
C110 C111 1.370 . S
C111 C110 1.370 . S
C111 C112 1.396 . S
C111 H138 0.929 . S
C112 C107 1.373 . S
C112 C111 1.396 . S
C112 H139 0.929 . S
C113 O126 1.240 1_565 S
C113 O127 1.277 1_565 S
C114 O128 1.258 . S
C114 O129 1.256 . S
C115 La105 2.939 1_565 S
C115 C116 1.503 . S
C115 O130 1.261 . S
C115 O131 1.243 . S
C116 C115 1.503 . S
C116 C117 1.394 . S
C116 C121 1.373 . S
C117 C116 1.394 . S
C117 C118 1.380 . S
C117 H140 0.930 . S
C118 C117 1.380 . S
C118 C119 1.376 . S
C118 H141 0.930 . S
C119 C118 1.376 . S
C119 C120 1.370 . S
C120 C119 1.370 . S
C120 C121 1.396 . S
C120 H142 0.929 . S
C121 C116 1.373 . S
C121 C120 1.396 . S
C121 H143 0.929 . S
C122 O132 1.240 . S
C122 O133 1.289 1_655 S
C123 O134 1.258 . S
C123 O135 1.256 1_655 S
O124 La104 2.521 . S
O124 C106 1.261 . S
O125 La104 2.628 . S
O125 C106 1.243 . S
O126 La104 2.554 . S
O126 C113 1.240 1_545 S
O127 La104 2.776 . S
O127 La105 2.476 1_455 S
O127 C113 1.277 1_545 S
O128 La104 2.470 . S
O128 C114 1.258 . S
O129 La105 2.490 1_455 S
O129 C114 1.256 . S
O130 La105 2.541 1_565 S
O130 C115 1.261 . S
O131 La105 2.628 1_565 S
O131 C115 1.243 . S
O132 La105 2.574 . S
O132 C122 1.240 . S
O133 La104 2.482 . S
O133 La105 2.757 1_455 S
O133 C122 1.289 1_455 S
O134 La105 2.476 1_565 S
O134 C123 1.258 . S
O135 La104 2.503 1_565 S
O135 C123 1.256 1_455 S
H136 C108 0.930 . S
H137 C109 0.930 . S
H138 C111 0.929 . S
H139 C112 0.929 . S
H140 C117 0.930 . S
H141 C118 0.930 . S
H142 C120 0.929 . S
H143 C121 0.929 . S
La144 C146 2.928 . S
La144 O164 2.521 . S
La144 O165 2.628 . S
La144 O166 2.554 1_545 S
La144 O167 2.757 1_545 S
La144 O168 2.470 . S
La144 O173 2.514 . S
La144 O175 2.503 1_544 S
La145 C155 2.928 1_545 S
La145 O167 2.482 1_546 S
La145 O169 2.503 1_556 S
La145 O170 2.521 1_545 S
La145 O171 2.628 1_545 S
La145 O172 2.554 . S
La145 O173 2.741 1_556 S
La145 O174 2.470 1_545 S
C146 La144 2.928 . S
C146 C147 1.503 . S
C146 O164 1.261 . S
C146 O165 1.243 . S
C147 C146 1.503 . S
C147 C148 1.394 . S
C147 C152 1.373 . S
C148 C147 1.394 . S
C148 C149 1.380 . S
C148 H176 0.930 . S
C149 C148 1.380 . S
C149 C150 1.376 . S
C149 H177 0.930 . S
C150 C149 1.376 . S
C150 C151 1.370 . S
C151 C150 1.370 . S
C151 C152 1.396 . S
C151 H178 0.929 . S
C152 C147 1.373 . S
C152 C151 1.396 . S
C152 H179 0.929 . S
C153 O166 1.240 . S
C153 O167 1.289 . S
C154 O168 1.258 . S
C154 O169 1.256 . S
C155 La145 2.928 1_565 S
C155 C156 1.503 . S
C155 O170 1.261 . S
C155 O171 1.243 . S
C156 C155 1.503 . S
C156 C157 1.394 . S
C156 C161 1.373 . S
C157 C156 1.394 . S
C157 C158 1.380 . S
C157 H180 0.930 . S
C158 C157 1.380 . S
C158 C159 1.376 . S
C158 H181 0.930 . S
C159 C158 1.376 . S
C159 C160 1.370 . S
C160 C159 1.370 . S
C160 C161 1.396 . S
C160 H182 0.929 . S
C161 C156 1.373 . S
C161 C160 1.396 . S
C161 H183 0.929 . S
C162 O172 1.240 . S
C162 O173 1.253 1_556 S
C163 O174 1.258 . S
C163 O175 1.256 . S
O164 La144 2.521 . S
O164 C146 1.261 . S
O165 La144 2.628 . S
O165 C146 1.243 . S
O166 La144 2.554 1_565 S
O166 C153 1.240 . S
O167 La144 2.757 1_565 S
O167 La145 2.482 1_564 S
O167 C153 1.289 . S
O168 La144 2.470 . S
O168 C154 1.258 . S
O169 La145 2.503 1_554 S
O169 C154 1.256 . S
O170 La145 2.521 1_565 S
O170 C155 1.261 . S
O171 La145 2.628 1_565 S
O171 C155 1.243 . S
O172 La145 2.554 . S
O172 C162 1.240 . S
O173 La144 2.514 . S
O173 La145 2.741 1_554 S
O173 C162 1.253 1_554 S
O174 La145 2.470 1_565 S
O174 C163 1.258 . S
O175 La144 2.503 1_566 S
O175 C163 1.256 . S
H176 C148 0.930 . S
H177 C149 0.930 . S
H178 C151 0.929 . S
H179 C152 0.929 . S
H180 C157 0.930 . S
H181 C158 0.930 . S
H182 C160 0.929 . S
H183 C161 0.929 . S
La184 C186 2.928 . S
La184 O204 2.521 . S
La184 O205 2.628 . S
La184 O206 2.554 . S
La184 O207 2.757 . S
La184 O208 2.470 . S
La184 O213 2.482 . S
La184 O215 2.503 . S
La185 C195 2.928 . S
La185 O207 2.482 . S
La185 O209 2.503 . S
La185 O210 2.521 . S
La185 O211 2.628 . S
La185 O212 2.554 . S
La185 O213 2.757 . S
La185 O214 2.470 . S
C186 La184 2.928 . S
C186 C187 1.503 . S
C186 O204 1.261 . S
C186 O205 1.243 . S
C187 C186 1.503 . S
C187 C188 1.394 . S
C187 C192 1.373 . S
C188 C187 1.394 . S
C188 C189 1.380 . S
C188 H216 0.930 . S
C189 C188 1.380 . S
C189 C190 1.376 . S
C189 H217 0.930 . S
C190 C189 1.376 . S
C190 C191 1.370 . S
C191 C190 1.370 . S
C191 C192 1.396 . S
C191 H218 0.929 . S
C192 C187 1.373 . S
C192 C191 1.396 . S
C192 H219 0.929 . S
C193 O206 1.240 . S
C193 O207 1.289 . S
C194 O208 1.258 . S
C194 O209 1.256 . S
C195 La185 2.928 . S
C195 C196 1.503 . S
C195 O210 1.261 . S
C195 O211 1.243 . S
C196 C195 1.503 . S
C196 C197 1.394 . S
C196 C201 1.373 . S
C197 C196 1.394 . S
C197 C198 1.380 . S
C197 H220 0.930 . S
C198 C197 1.380 . S
C198 C199 1.376 . S
C198 H221 0.930 . S
C199 C198 1.376 . S
C199 C200 1.370 . S
C200 C199 1.370 . S
C200 C201 1.396 . S
C200 H222 0.929 . S
C201 C196 1.373 . S
C201 C200 1.396 . S
C201 H223 0.929 . S
C202 O212 1.240 . S
C202 O213 1.289 . S
C203 O214 1.258 . S
C203 O215 1.256 . S
O204 La184 2.521 . S
O204 C186 1.261 . S
O205 La184 2.628 . S
O205 C186 1.243 . S
O206 La184 2.554 . S
O206 C193 1.240 . S
O207 La184 2.757 . S
O207 La185 2.482 . S
O207 C193 1.289 . S
O208 La184 2.470 . S
O208 C194 1.258 . S
O209 La185 2.503 . S
O209 C194 1.256 . S
O210 La185 2.521 . S
O210 C195 1.261 . S
O211 La185 2.628 . S
O211 C195 1.243 . S
O212 La185 2.554 . S
O212 C202 1.240 . S
O213 La184 2.482 . S
O213 La185 2.757 . S
O213 C202 1.289 . S
O214 La185 2.470 . S
O214 C203 1.258 . S
O215 La184 2.503 . S
O215 C203 1.256 . S
H216 C188 0.930 . S
H217 C189 0.930 . S
H218 C191 0.929 . S
H219 C192 0.929 . S
H220 C197 0.930 . S
H221 C198 0.930 . S
H222 C200 0.929 . S
H223 C201 0.929 . S
La224 C226 2.928 . S
La224 O244 2.521 . S
La224 O245 2.628 . S
La224 O246 2.554 . S
La224 O247 2.757 . S
La224 O248 2.470 . S
La224 O253 2.482 . S
La224 O255 2.503 1_455 S
La225 C235 2.928 1_454 S
La225 O247 2.482 . S
La225 O249 2.503 . S
La225 O250 2.521 1_554 S
La225 O251 2.628 1_455 S
La225 O252 2.554 1_554 S
La225 O253 2.757 . S
La225 O254 2.473 1_455 S
C226 La224 2.928 . S
C226 C227 1.503 . S
C226 O244 1.261 . S
C226 O245 1.243 . S
C227 C226 1.503 . S
C227 C228 1.394 . S
C227 C232 1.373 . S
C228 C227 1.394 . S
C228 C229 1.380 . S
C228 H256 0.930 . S
C229 C228 1.380 . S
C229 C230 1.376 . S
C229 H257 0.930 . S
C230 C229 1.376 . S
C230 C231 1.370 . S
C231 C230 1.370 . S
C231 C232 1.396 . S
C231 H258 0.929 . S
C232 C227 1.373 . S
C232 C231 1.396 . S
C232 H259 0.929 . S
C233 O246 1.240 . S
C233 O247 1.289 . S
C234 O248 1.258 . S
C234 O249 1.256 . S
C235 La225 2.928 1_656 S
C235 C236 1.503 . S
C235 O250 1.261 1_655 S
C235 O251 1.243 1_556 S
C236 C235 1.503 . S
C236 C237 1.394 . S
C236 C241 1.373 . S
C237 C236 1.394 . S
C237 C238 1.380 . S
C237 H260 0.930 . S
C238 C237 1.380 . S
C238 C239 1.376 . S
C238 H261 0.930 . S
C239 C238 1.376 . S
C239 C240 1.370 . S
C240 C239 1.370 . S
C240 C241 1.396 . S
C240 H262 0.929 . S
C241 C236 1.373 . S
C241 C240 1.396 . S
C241 H263 0.929 1_556 S
C242 O252 1.240 . S
C242 O253 1.289 1_556 S
C243 O254 1.264 . S
C243 O255 1.256 . S
O244 La224 2.521 . S
O244 C226 1.261 . S
O245 La224 2.628 . S
O245 C226 1.243 . S
O246 La224 2.554 . S
O246 C233 1.240 . S
O247 La224 2.757 . S
O247 La225 2.482 . S
O247 C233 1.289 . S
O248 La224 2.470 . S
O248 C234 1.258 . S
O249 La225 2.503 . S
O249 C234 1.256 . S
O250 La225 2.521 1_556 S
O250 C235 1.261 1_455 S
O251 La225 2.628 1_655 S
O251 C235 1.243 1_554 S
O252 La225 2.554 1_556 S
O252 C242 1.240 . S
O253 La224 2.482 . S
O253 La225 2.757 . S
O253 C242 1.289 1_554 S
O254 La225 2.473 1_655 S
O254 C243 1.264 . S
O255 La224 2.503 1_655 S
O255 C243 1.256 . S
H256 C228 0.930 . S
H257 C229 0.930 . S
H258 C231 0.929 . S
H259 C232 0.929 . S
H260 C237 0.930 . S
H261 C238 0.930 . S
H262 C240 0.929 . S
H263 C241 0.929 1_554 S
C264 C265 1.349 . S
C264 C266 1.327 . S
C264 H289 0.950 . S
C265 C264 1.349 . S
C265 C281 1.349 . S
C266 C264 1.327 . S
C266 C285 1.429 . S
C266 H290 0.950 . S
C267 C284 1.574 . S
C267 C286 1.368 . S
C267 H291 0.949 . S
H268 C272 0.949 . S
C269 C270 1.349 . S
C269 C271 1.327 . S
C269 H292 0.950 . S
C270 C269 1.349 . S
C270 C282 1.349 . S
C271 C269 1.327 . S
C271 C287 1.429 . S
C271 H293 0.950 . S
C272 H268 0.949 . S
C272 C280 1.574 . S
C272 C288 1.368 . S
H273 C281 0.950 . S
H274 C279 0.950 . S
H275 C280 0.949 . S
H276 C282 0.950 . S
H277 C283 0.950 . S
H278 C284 0.949 . S
C279 H274 0.950 . S
C279 C281 1.327 . S
C279 C285 1.429 . S
C280 C272 1.574 . S
C280 H275 0.949 . S
C280 C286 1.368 . S
C281 C265 1.349 . S
C281 H273 0.950 . S
C281 C279 1.327 . S
C282 C270 1.349 . S
C282 H276 0.950 . S
C282 C283 1.327 . S
C283 H277 0.950 . S
C283 C282 1.327 . S
C283 C287 1.429 . S
C284 C267 1.574 . S
C284 H278 0.949 . S
C284 C288 1.368 . S
C285 C266 1.429 . S
C285 C279 1.429 . S
C285 C286 1.523 . S
C286 C267 1.368 . S
C286 C280 1.368 . S
C286 C285 1.523 . S
C287 C271 1.429 . S
C287 C283 1.429 . S
C287 C288 1.523 . S
C288 C272 1.368 . S
C288 C284 1.368 . S
C288 C287 1.523 . S
H289 C264 0.950 . S
H290 C266 0.950 . S
H291 C267 0.949 . S
H292 C269 0.950 . S
H293 C271 0.950 . S
C294 C295 1.349 . S
C294 C296 1.327 . S
C294 H319 0.950 . S
C295 C294 1.349 . S
C295 C311 1.349 . S
C296 C294 1.327 . S
C296 C315 1.429 . S
C296 H320 0.950 . S
C297 C314 1.574 . S
C297 C316 1.368 . S
C297 H321 0.949 . S
H298 C302 0.949 . S
C299 C300 1.349 . S
C299 C301 1.327 . S
C299 H322 0.950 . S
C300 C299 1.349 . S
C300 C312 1.349 . S
C301 C299 1.327 . S
C301 C317 1.429 . S
C301 H323 0.950 . S
C302 H298 0.949 . S
C302 C310 1.574 . S
C302 C318 1.368 . S
H303 C311 0.950 . S
H304 C309 0.950 . S
H305 C310 0.949 . S
H306 C312 0.950 . S
H307 C313 0.950 . S
H308 C314 0.949 . S
C309 H304 0.950 . S
C309 C311 1.327 . S
C309 C315 1.429 . S
C310 C302 1.574 . S
C310 H305 0.949 . S
C310 C316 1.368 . S
C311 C295 1.349 . S
C311 H303 0.950 . S
C311 C309 1.327 . S
C312 C300 1.349 . S
C312 H306 0.950 . S
C312 C313 1.327 . S
C313 H307 0.950 . S
C313 C312 1.327 . S
C313 C317 1.429 . S
C314 C297 1.574 . S
C314 H308 0.949 . S
C314 C318 1.368 . S
C315 C296 1.429 . S
C315 C309 1.429 . S
C315 C316 1.523 . S
C316 C297 1.368 . S
C316 C310 1.368 . S
C316 C315 1.523 . S
C317 C301 1.429 . S
C317 C313 1.429 . S
C317 C318 1.523 . S
C318 C302 1.368 . S
C318 C314 1.368 . S
C318 C317 1.523 . S
H319 C294 0.950 . S
H320 C296 0.950 . S
H321 C297 0.949 . S
H322 C299 0.950 . S
H323 C301 0.950 . S
C324 C325 1.349 . S
C324 C326 1.327 . S
C324 H349 0.950 . S
C325 C324 1.349 . S
C325 C341 1.349 . S
C326 C324 1.327 . S
C326 C345 1.429 . S
C326 H350 0.950 . S
C327 C344 1.574 . S
C327 C346 1.368 . S
C327 H351 0.949 . S
H328 C332 0.949 . S
C329 C330 1.349 . S
C329 C331 1.327 . S
C329 H352 0.950 . S
C330 C329 1.349 . S
C330 C342 1.349 . S
C331 C329 1.327 . S
C331 C347 1.429 . S
C331 H353 0.950 . S
C332 H328 0.949 . S
C332 C340 1.574 . S
C332 C348 1.368 . S
H333 C341 0.950 . S
H334 C339 0.950 . S
H335 C340 0.949 . S
H336 C342 0.950 . S
H337 C343 0.950 . S
H338 C344 0.949 . S
C339 H334 0.950 . S
C339 C341 1.327 . S
C339 C345 1.429 . S
C340 C332 1.574 . S
C340 H335 0.949 . S
C340 C346 1.368 . S
C341 C325 1.349 . S
C341 H333 0.950 . S
C341 C339 1.327 . S
C342 C330 1.349 . S
C342 H336 0.950 . S
C342 C343 1.327 . S
C343 H337 0.950 . S
C343 C342 1.327 . S
C343 C347 1.429 . S
C344 C327 1.574 . S
C344 H338 0.949 . S
C344 C348 1.368 . S
C345 C326 1.429 . S
C345 C339 1.429 . S
C345 C346 1.523 . S
C346 C327 1.368 . S
C346 C340 1.368 . S
C346 C345 1.523 . S
C347 C331 1.429 . S
C347 C343 1.429 . S
C347 C348 1.523 . S
C348 C332 1.368 . S
C348 C344 1.368 . S
C348 C347 1.523 . S
H349 C324 0.950 . S
H350 C326 0.950 . S
H351 C327 0.949 . S
H352 C329 0.950 . S
H353 C331 0.950 . S
C354 C355 1.349 . S
C354 C356 1.327 . S
C354 H379 0.950 . S
C355 C354 1.349 . S
C355 C371 1.349 . S
C356 C354 1.327 . S
C356 C375 1.429 . S
C356 H380 0.950 . S
C357 C374 1.574 . S
C357 C376 1.368 . S
C357 H381 0.949 . S
H358 C362 0.949 . S
C359 C360 1.349 . S
C359 C361 1.327 . S
C359 H382 0.950 . S
C360 C359 1.349 . S
C360 C372 1.349 1_655 S
C361 C359 1.327 . S
C361 C377 1.429 . S
C361 H383 0.950 . S
C362 H358 0.949 . S
C362 C370 1.574 . S
C362 C378 1.368 . S
H363 C371 0.950 . S
H364 C369 0.950 . S
H365 C370 0.949 . S
H366 C372 0.950 . S
H367 C373 0.950 1_455 S
H368 C374 0.949 . S
C369 H364 0.950 . S
C369 C371 1.327 . S
C369 C375 1.429 . S
C370 C362 1.574 . S
C370 H365 0.949 . S
C370 C376 1.368 . S
C371 C355 1.349 . S
C371 H363 0.950 . S
C371 C369 1.327 . S
C372 C360 1.349 1_455 S
C372 H366 0.950 . S
C372 C373 1.327 1_455 S
C373 H367 0.950 1_655 S
C373 C372 1.327 1_655 S
C373 C377 1.429 . S
C374 C357 1.574 . S
C374 H368 0.949 . S
C374 C378 1.368 . S
C375 C356 1.429 . S
C375 C369 1.429 . S
C375 C376 1.523 . S
C376 C357 1.368 . S
C376 C370 1.368 . S
C376 C375 1.523 . S
C377 C361 1.429 . S
C377 C373 1.429 . S
C377 C378 1.523 . S
C378 C362 1.368 . S
C378 C374 1.368 . S
C378 C377 1.523 . S
H379 C354 0.950 . S
H380 C356 0.950 . S
H381 C357 0.949 . S
H382 C359 0.950 . S
H383 C361 0.950 . S
C384 C385 1.349 . S
C384 C386 1.327 . S
C384 H409 0.950 . S
C385 C384 1.349 . S
C385 C401 1.349 . S
C386 C384 1.327 . S
C386 C405 1.429 . S
C386 H410 0.950 . S
C387 C404 1.574 . S
C387 C406 1.368 . S
C387 H411 0.949 . S
H388 C392 0.949 . S
C389 C390 1.349 . S
C389 C391 1.327 . S
C389 H412 0.950 . S
C390 C389 1.349 . S
C390 C402 1.349 . S
C391 C389 1.327 . S
C391 C407 1.429 . S
C391 H413 0.950 . S
C392 H388 0.949 . S
C392 C400 1.574 . S
C392 C408 1.368 . S
H393 C401 0.950 . S
H394 C399 0.950 . S
H395 C400 0.949 . S
H396 C402 0.950 . S
H397 C403 0.950 . S
H398 C404 0.949 . S
C399 H394 0.950 . S
C399 C401 1.327 . S
C399 C405 1.429 . S
C400 C392 1.574 . S
C400 H395 0.949 . S
C400 C406 1.368 . S
C401 C385 1.349 . S
C401 H393 0.950 . S
C401 C399 1.327 . S
C402 C390 1.349 . S
C402 H396 0.950 . S
C402 C403 1.327 . S
C403 H397 0.950 . S
C403 C402 1.327 . S
C403 C407 1.429 . S
C404 C387 1.574 . S
C404 H398 0.949 . S
C404 C408 1.368 . S
C405 C386 1.429 . S
C405 C399 1.429 . S
C405 C406 1.523 . S
C406 C387 1.368 . S
C406 C400 1.368 . S
C406 C405 1.523 . S
C407 C391 1.429 . S
C407 C403 1.429 . S
C407 C408 1.523 . S
C408 C392 1.368 . S
C408 C404 1.368 . S
C408 C407 1.523 . S
H409 C384 0.950 . S
H410 C386 0.950 . S
H411 C387 0.949 . S
H412 C389 0.950 . S
H413 C391 0.950 . S
C414 C415 1.349 . S
C414 C416 1.327 . S
C414 H439 0.950 . S
C415 C414 1.349 . S
C415 C431 1.349 . S
C416 C414 1.327 . S
C416 C435 1.429 . S
C416 H440 0.950 . S
C417 C434 1.574 . S
C417 C436 1.368 . S
C417 H441 0.949 . S
H418 C422 0.949 . S
C419 C420 1.349 . S
C419 C421 1.327 . S
C419 H442 0.950 1_565 S
C420 C419 1.349 . S
C420 C432 1.349 . S
C421 C419 1.327 . S
C421 C437 1.429 . S
C421 H443 0.950 . S
C422 H418 0.949 . S
C422 C430 1.574 . S
C422 C438 1.368 . S
H423 C431 0.950 . S
H424 C429 0.950 . S
H425 C430 0.949 . S
H426 C432 0.950 . S
H427 C433 0.950 . S
H428 C434 0.949 . S
C429 H424 0.950 . S
C429 C431 1.327 . S
C429 C435 1.429 . S
C430 C422 1.574 . S
C430 H425 0.949 . S
C430 C436 1.368 . S
C431 C415 1.349 . S
C431 H423 0.950 . S
C431 C429 1.327 . S
C432 C420 1.349 . S
C432 H426 0.950 . S
C432 C433 1.327 . S
C433 H427 0.950 . S
C433 C432 1.327 . S
C433 C437 1.429 . S
C434 C417 1.574 . S
C434 H428 0.949 . S
C434 C438 1.368 . S
C435 C416 1.429 . S
C435 C429 1.429 . S
C435 C436 1.523 . S
C436 C417 1.368 . S
C436 C430 1.368 . S
C436 C435 1.523 . S
C437 C421 1.429 . S
C437 C433 1.429 . S
C437 C438 1.523 . S
C438 C422 1.368 . S
C438 C434 1.368 . S
C438 C437 1.523 . S
H439 C414 0.950 . S
H440 C416 0.950 . S
H441 C417 0.949 . S
H442 C419 0.950 1_545 S
H443 C421 0.950 . S
C444 C445 1.349 . S
C444 C446 1.327 . S
C444 H469 0.950 . S
C445 C444 1.349 . S
C445 C461 1.349 . S
C446 C444 1.327 . S
C446 C465 1.429 . S
C446 H470 0.950 . S
C447 C464 1.574 . S
C447 C466 1.368 . S
C447 H471 0.949 . S
H448 C452 0.949 . S
C449 C450 1.353 . S
C449 C451 1.327 1_554 S
C449 H472 0.950 . S
C450 C449 1.353 . S
C450 C462 1.328 1_554 S
C451 C449 1.327 1_556 S
C451 C467 1.429 . S
C451 H473 0.950 . S
C452 H448 0.949 . S
C452 C460 1.574 . S
C452 C468 1.368 . S
H453 C461 0.950 . S
H454 C459 0.950 . S
H455 C460 0.949 . S
H456 C462 0.950 . S
H457 C463 0.950 . S
H458 C464 0.949 . S
C459 H454 0.950 . S
C459 C461 1.327 . S
C459 C465 1.429 . S
C460 C452 1.574 . S
C460 H455 0.949 . S
C460 C466 1.368 . S
C461 C445 1.349 . S
C461 H453 0.950 . S
C461 C459 1.327 . S
C462 C450 1.328 1_556 S
C462 H456 0.950 . S
C462 C463 1.327 . S
C463 H457 0.950 . S
C463 C462 1.327 . S
C463 C467 1.429 . S
C464 C447 1.574 . S
C464 H458 0.949 . S
C464 C468 1.368 . S
C465 C446 1.429 . S
C465 C459 1.429 . S
C465 C466 1.523 . S
C466 C447 1.368 . S
C466 C460 1.368 . S
C466 C465 1.523 . S
C467 C451 1.429 . S
C467 C463 1.429 . S
C467 C468 1.523 . S
C468 C452 1.368 . S
C468 C464 1.368 . S
C468 C467 1.523 . S
H469 C444 0.950 . S
H470 C446 0.950 . S
H471 C447 0.949 . S
H472 C449 0.950 . S
H473 C451 0.950 . S
C474 C475 1.349 . S
C474 C476 1.327 . S
C474 H499 0.950 . S
C475 C474 1.349 . S
C475 C491 1.349 . S
C476 C474 1.327 . S
C476 C495 1.429 . S
C476 H500 0.950 . S
C477 C494 1.574 . S
C477 C496 1.368 . S
C477 H501 0.949 . S
H478 C482 0.949 . S
C479 C480 1.349 . S
C479 C481 1.327 . S
C479 H502 0.950 . S
C480 C479 1.349 . S
C480 C492 1.349 . S
C481 C479 1.327 . S
C481 C497 1.429 . S
C481 H503 0.950 . S
C482 H478 0.949 . S
C482 C490 1.574 . S
C482 C498 1.368 . S
H483 C491 0.950 . S
H484 C489 0.950 . S
H485 C490 0.949 . S
H486 C492 0.950 . S
H487 C493 0.950 . S
H488 C494 0.949 . S
C489 H484 0.950 . S
C489 C491 1.327 . S
C489 C495 1.429 . S
C490 C482 1.574 . S
C490 H485 0.949 . S
C490 C496 1.368 . S
C491 C475 1.349 . S
C491 H483 0.950 . S
C491 C489 1.327 . S
C492 C480 1.349 . S
C492 H486 0.950 . S
C492 C493 1.327 . S
C493 H487 0.950 . S
C493 C492 1.327 . S
C493 C497 1.429 . S
C494 C477 1.574 . S
C494 H488 0.949 . S
C494 C498 1.368 . S
C495 C476 1.429 . S
C495 C489 1.429 . S
C495 C496 1.523 . S
C496 C477 1.368 . S
C496 C490 1.368 . S
C496 C495 1.523 . S
C497 C481 1.429 . S
C497 C493 1.429 . S
C497 C498 1.523 . S
C498 C482 1.368 . S
C498 C494 1.368 . S
C498 C497 1.523 . S
H499 C474 0.950 . S
H500 C476 0.950 . S
H501 C477 0.949 . S
H502 C479 0.950 . S
H503 C481 0.950 . S
C504 C505 1.349 . S
C504 C506 1.327 . S
C504 H529 0.950 . S
C505 C504 1.349 . S
C505 C521 1.349 . S
C506 C504 1.327 . S
C506 C525 1.429 . S
C506 H530 0.950 . S
C507 C524 1.574 . S
C507 C526 1.368 . S
C507 H531 0.949 . S
H508 C512 0.949 . S
C509 C510 1.349 . S
C509 C511 1.327 . S
C509 H532 0.950 . S
C510 C509 1.349 . S
C510 C522 1.349 . S
C511 C509 1.327 . S
C511 C527 1.429 . S
C511 H533 0.950 . S
C512 H508 0.949 . S
C512 C520 1.574 . S
C512 C528 1.368 . S
H513 C521 0.950 . S
H514 C519 0.950 . S
H515 C520 0.949 . S
H516 C522 0.950 . S
H517 C523 0.950 . S
H518 C524 0.949 . S
C519 H514 0.950 . S
C519 C521 1.327 . S
C519 C525 1.429 . S
C520 C512 1.574 . S
C520 H515 0.949 . S
C520 C526 1.368 . S
C521 C505 1.349 . S
C521 H513 0.950 . S
C521 C519 1.327 . S
C522 C510 1.349 . S
C522 H516 0.950 . S
C522 C523 1.327 . S
C523 H517 0.950 . S
C523 C522 1.327 . S
C523 C527 1.429 . S
C524 C507 1.574 . S
C524 H518 0.949 . S
C524 C528 1.368 . S
C525 C506 1.429 . S
C525 C519 1.429 . S
C525 C526 1.523 . S
C526 C507 1.368 . S
C526 C520 1.368 . S
C526 C525 1.523 . S
C527 C511 1.429 . S
C527 C523 1.429 . S
C527 C528 1.523 . S
C528 C512 1.368 . S
C528 C524 1.368 . S
C528 C527 1.523 . S
H529 C504 0.950 . S
H530 C506 0.950 . S
H531 C507 0.949 . S
H532 C509 0.950 . S
H533 C511 0.950 . S
C534 C535 1.349 . S
C534 C536 1.327 . S
C534 H559 0.950 . S
C535 C534 1.349 . S
C535 C551 1.349 . S
C536 C534 1.327 . S
C536 C555 1.429 . S
C536 H560 0.950 . S
C537 C554 1.574 . S
C537 C556 1.368 . S
C537 H561 0.949 . S
H538 C542 0.949 . S
C539 C540 1.349 . S
C539 C541 1.327 . S
C539 H562 0.950 . S
C540 C539 1.349 . S
C540 C552 1.349 . S
C541 C539 1.327 . S
C541 C557 1.429 . S
C541 H563 0.950 . S
C542 H538 0.949 . S
C542 C550 1.574 . S
C542 C558 1.368 . S
H543 C551 0.950 . S
H544 C549 0.950 . S
H545 C550 0.949 . S
H546 C552 0.950 . S
H547 C553 0.950 . S
H548 C554 0.949 . S
C549 H544 0.950 . S
C549 C551 1.327 . S
C549 C555 1.429 . S
C550 C542 1.574 . S
C550 H545 0.949 . S
C550 C556 1.368 . S
C551 C535 1.349 . S
C551 H543 0.950 . S
C551 C549 1.327 . S
C552 C540 1.349 . S
C552 H546 0.950 . S
C552 C553 1.327 . S
C553 H547 0.950 . S
C553 C552 1.327 . S
C553 C557 1.429 . S
C554 C537 1.574 . S
C554 H548 0.949 . S
C554 C558 1.368 . S
C555 C536 1.429 . S
C555 C549 1.429 . S
C555 C556 1.523 . S
C556 C537 1.368 . S
C556 C550 1.368 . S
C556 C555 1.523 . S
C557 C541 1.429 . S
C557 C553 1.429 . S
C557 C558 1.523 . S
C558 C542 1.368 . S
C558 C554 1.368 . S
C558 C557 1.523 . S
H559 C534 0.950 . S
H560 C536 0.950 . S
H561 C537 0.949 . S
H562 C539 0.950 . S
H563 C541 0.950 . S
C564 C565 1.349 . S
C564 C566 1.327 . S
C564 H589 0.950 . S
C565 C564 1.349 . S
C565 C581 1.349 . S
C566 C564 1.327 . S
C566 C585 1.429 . S
C566 H590 0.950 . S
C567 C584 1.574 . S
C567 C586 1.368 . S
C567 H591 0.949 . S
H568 C572 0.949 . S
C569 C570 1.349 . S
C569 C571 1.327 . S
C569 H592 0.950 . S
C570 C569 1.349 . S
C570 C582 1.349 . S
C571 C569 1.327 . S
C571 C587 1.429 . S
C571 H593 0.950 . S
C572 H568 0.949 . S
C572 C580 1.574 . S
C572 C588 1.368 . S
H573 C581 0.950 . S
H574 C579 0.950 . S
H575 C580 0.949 . S
H576 C582 0.950 . S
H577 C583 0.950 . S
H578 C584 0.949 . S
C579 H574 0.950 . S
C579 C581 1.327 . S
C579 C585 1.429 . S
C580 C572 1.574 . S
C580 H575 0.949 . S
C580 C586 1.368 . S
C581 C565 1.349 . S
C581 H573 0.950 . S
C581 C579 1.327 . S
C582 C570 1.349 . S
C582 H576 0.950 . S
C582 C583 1.327 . S
C583 H577 0.950 . S
C583 C582 1.327 . S
C583 C587 1.429 . S
C584 C567 1.574 . S
C584 H578 0.949 . S
C584 C588 1.368 . S
C585 C566 1.429 . S
C585 C579 1.429 . S
C585 C586 1.523 . S
C586 C567 1.368 . S
C586 C580 1.368 . S
C586 C585 1.523 . S
C587 C571 1.429 . S
C587 C583 1.429 . S
C587 C588 1.523 . S
C588 C572 1.368 . S
C588 C584 1.368 . S
C588 C587 1.523 . S
H589 C564 0.950 . S
H590 C566 0.950 . S
H591 C567 0.949 . S
H592 C569 0.950 . S
H593 C571 0.950 . S
C594 C595 1.349 . S
C594 C596 1.327 . S
C594 H619 0.950 . S
C595 C594 1.349 . S
C595 C611 1.349 . S
C596 C594 1.327 . S
C596 C615 1.429 . S
C596 H620 0.950 . S
C597 C614 1.574 . S
C597 C616 1.368 . S
C597 H621 0.949 . S
H598 C602 0.949 . S
C599 C600 1.349 . S
C599 C601 1.327 . S
C599 H622 0.950 . S
C600 C599 1.349 . S
C600 C612 1.349 . S
C601 C599 1.327 . S
C601 C617 1.429 . S
C601 H623 0.950 . S
C602 H598 0.949 . S
C602 C610 1.574 . S
C602 C618 1.368 . S
H603 C611 0.950 . S
H604 C609 0.950 . S
H605 C610 0.949 . S
H606 C612 0.950 . S
H607 C613 0.950 . S
H608 C614 0.949 . S
C609 H604 0.950 . S
C609 C611 1.327 . S
C609 C615 1.429 . S
C610 C602 1.574 . S
C610 H605 0.949 . S
C610 C616 1.368 . S
C611 C595 1.349 . S
C611 H603 0.950 . S
C611 C609 1.327 . S
C612 C600 1.349 . S
C612 H606 0.950 . S
C612 C613 1.327 . S
C613 H607 0.950 . S
C613 C612 1.327 . S
C613 C617 1.429 . S
C614 C597 1.574 . S
C614 H608 0.949 . S
C614 C618 1.368 . S
C615 C596 1.429 . S
C615 C609 1.429 . S
C615 C616 1.523 . S
C616 C597 1.368 . S
C616 C610 1.368 . S
C616 C615 1.523 . S
C617 C601 1.429 . S
C617 C613 1.429 . S
C617 C618 1.523 . S
C618 C602 1.368 . S
C618 C614 1.368 . S
C618 C617 1.523 . S
H619 C594 0.950 . S
H620 C596 0.950 . S
H621 C597 0.949 . S
H622 C599 0.950 . S
H623 C601 0.950 . S
C624 C625 1.349 . S
C624 C626 1.327 . S
C624 H649 0.950 . S
C625 C624 1.349 . S
C625 C641 1.349 . S
C626 C624 1.327 . S
C626 C645 1.429 . S
C626 H650 0.950 . S
C627 C644 1.574 . S
C627 C646 1.368 . S
C627 H651 0.949 . S
H628 C632 0.949 . S
C629 C630 1.349 . S
C629 C631 1.327 . S
C629 H652 0.950 . S
C630 C629 1.349 . S
C630 C642 1.349 . S
C631 C629 1.327 . S
C631 C647 1.429 . S
C631 H653 0.950 . S
C632 H628 0.949 . S
C632 C640 1.574 . S
C632 C648 1.368 . S
H633 C641 0.950 . S
H634 C639 0.950 . S
H635 C640 0.949 . S
H636 C642 0.950 . S
H637 C643 0.950 . S
H638 C644 0.949 . S
C639 H634 0.950 . S
C639 C641 1.327 . S
C639 C645 1.429 . S
C640 C632 1.574 . S
C640 H635 0.949 . S
C640 C646 1.368 . S
C641 C625 1.349 . S
C641 H633 0.950 . S
C641 C639 1.327 . S
C642 C630 1.349 . S
C642 H636 0.950 . S
C642 C643 1.327 . S
C643 H637 0.950 . S
C643 C642 1.327 . S
C643 C647 1.429 . S
C644 C627 1.574 . S
C644 H638 0.949 . S
C644 C648 1.368 . S
C645 C626 1.429 . S
C645 C639 1.429 . S
C645 C646 1.523 . S
C646 C627 1.368 . S
C646 C640 1.368 . S
C646 C645 1.523 . S
C647 C631 1.429 . S
C647 C643 1.429 . S
C647 C648 1.523 . S
C648 C632 1.368 . S
C648 C644 1.368 . S
C648 C647 1.523 . S
H649 C624 0.950 . S
H650 C626 0.950 . S
H651 C627 0.949 . S
H652 C629 0.950 . S
H653 C631 0.950 . S
C654 C655 1.349 . S
C654 C656 1.327 . S
C654 H679 0.950 . S
C655 C654 1.349 . S
C655 C671 1.349 . S
C656 C654 1.327 . S
C656 C675 1.429 . S
C656 H680 0.950 . S
C657 C674 1.574 . S
C657 C676 1.368 . S
C657 H681 0.949 . S
H658 C662 0.949 . S
C659 C660 1.349 . S
C659 C661 1.327 . S
C659 H682 0.950 . S
C660 C659 1.349 . S
C660 C672 1.349 . S
C661 C659 1.327 . S
C661 C677 1.429 . S
C661 H683 0.950 . S
C662 H658 0.949 . S
C662 C670 1.574 . S
C662 C678 1.368 . S
H663 C671 0.950 . S
H664 C669 0.950 . S
H665 C670 0.949 . S
H666 C672 0.950 . S
H667 C673 0.950 . S
H668 C674 0.949 . S
C669 H664 0.950 . S
C669 C671 1.327 . S
C669 C675 1.429 . S
C670 C662 1.574 . S
C670 H665 0.949 . S
C670 C676 1.368 . S
C671 C655 1.349 . S
C671 H663 0.950 . S
C671 C669 1.327 . S
C672 C660 1.349 . S
C672 H666 0.950 . S
C672 C673 1.327 . S
C673 H667 0.950 . S
C673 C672 1.327 . S
C673 C677 1.429 . S
C674 C657 1.574 . S
C674 H668 0.949 . S
C674 C678 1.368 . S
C675 C656 1.429 . S
C675 C669 1.429 . S
C675 C676 1.523 . S
C676 C657 1.368 . S
C676 C670 1.368 . S
C676 C675 1.523 . S
C677 C661 1.429 . S
C677 C673 1.429 . S
C677 C678 1.523 . S
C678 C662 1.368 . S
C678 C674 1.368 . S
C678 C677 1.523 . S
H679 C654 0.950 . S
H680 C656 0.950 . S
H681 C657 0.949 . S
H682 C659 0.950 . S
H683 C661 0.950 . S
C684 C685 1.349 . S
C684 C686 1.327 . S
C684 H709 0.950 . S
C685 C684 1.349 . S
C685 C701 1.349 . S
C686 C684 1.327 . S
C686 C705 1.429 . S
C686 H710 0.950 . S
C687 C704 1.574 . S
C687 C706 1.368 . S
C687 H711 0.949 . S
H688 C692 0.949 . S
C689 C690 1.349 . S
C689 C691 1.327 . S
C689 H712 0.950 . S
C690 C689 1.349 . S
C690 C702 1.349 . S
C691 C689 1.327 . S
C691 C707 1.429 . S
C691 H713 0.950 . S
C692 H688 0.949 . S
C692 C700 1.574 . S
C692 C708 1.368 . S
H693 C701 0.950 . S
H694 C699 0.950 . S
H695 C700 0.949 . S
H696 C702 0.950 . S
H697 C703 0.950 . S
H698 C704 0.949 . S
C699 H694 0.950 . S
C699 C701 1.327 . S
C699 C705 1.429 . S
C700 C692 1.574 . S
C700 H695 0.949 . S
C700 C706 1.368 . S
C701 C685 1.349 . S
C701 H693 0.950 . S
C701 C699 1.327 . S
C702 C690 1.349 . S
C702 H696 0.950 . S
C702 C703 1.327 . S
C703 H697 0.950 . S
C703 C702 1.327 . S
C703 C707 1.429 . S
C704 C687 1.574 . S
C704 H698 0.949 . S
C704 C708 1.368 . S
C705 C686 1.429 . S
C705 C699 1.429 . S
C705 C706 1.523 . S
C706 C687 1.368 . S
C706 C700 1.368 . S
C706 C705 1.523 . S
C707 C691 1.429 . S
C707 C703 1.429 . S
C707 C708 1.523 . S
C708 C692 1.368 . S
C708 C704 1.368 . S
C708 C707 1.523 . S
H709 C684 0.950 . S
H710 C686 0.950 . S
H711 C687 0.949 . S
H712 C689 0.950 . S
H713 C691 0.950 . S
C714 C715 1.349 . S
C714 C716 1.327 . S
C714 H739 0.950 . S
C715 C714 1.349 . S
C715 C731 1.349 . S
C716 C714 1.327 . S
C716 C735 1.429 . S
C716 H740 0.950 . S
C717 C734 1.574 . S
C717 C736 1.368 . S
C717 H741 0.949 . S
H718 C722 0.949 . S
C719 C720 1.349 . S
C719 C721 1.327 . S
C719 H742 0.950 . S
C720 C719 1.349 . S
C720 C732 1.349 . S
C721 C719 1.327 . S
C721 C737 1.429 . S
C721 H743 0.950 . S
C722 H718 0.949 . S
C722 C730 1.574 . S
C722 C738 1.368 . S
H723 C731 0.950 . S
H724 C729 0.950 . S
H725 C730 0.949 . S
H726 C732 0.950 . S
H727 C733 0.950 . S
H728 C734 0.949 . S
C729 H724 0.950 . S
C729 C731 1.327 . S
C729 C735 1.429 . S
C730 C722 1.574 . S
C730 H725 0.949 . S
C730 C736 1.368 . S
C731 C715 1.349 . S
C731 H723 0.950 . S
C731 C729 1.327 . S
C732 C720 1.349 . S
C732 H726 0.950 . S
C732 C733 1.327 . S
C733 H727 0.950 . S
C733 C732 1.327 . S
C733 C737 1.429 . S
C734 C717 1.574 . S
C734 H728 0.949 . S
C734 C738 1.368 . S
C735 C716 1.429 . S
C735 C729 1.429 . S
C735 C736 1.523 . S
C736 C717 1.368 . S
C736 C730 1.368 . S
C736 C735 1.523 . S
C737 C721 1.429 . S
C737 C733 1.429 . S
C737 C738 1.523 . S
C738 C722 1.368 . S
C738 C734 1.368 . S
C738 C737 1.523 . S
H739 C714 0.950 . S
H740 C716 0.950 . S
H741 C717 0.949 . S
H742 C719 0.950 . S
H743 C721 0.950 . S
C744 C745 1.349 . S
C744 C746 1.327 . S
C744 H769 0.950 . S
C745 C744 1.349 . S
C745 C761 1.349 . S
C746 C744 1.327 . S
C746 C765 1.429 . S
C746 H770 0.950 . S
C747 C764 1.574 . S
C747 C766 1.368 . S
C747 H771 0.949 . S
H748 C752 0.949 . S
C749 C750 1.349 . S
C749 C751 1.327 . S
C749 H772 0.950 . S
C750 C749 1.349 . S
C750 C762 1.349 . S
C751 C749 1.327 . S
C751 C767 1.429 . S
C751 H773 0.950 . S
C752 H748 0.949 . S
C752 C760 1.574 . S
C752 C768 1.368 . S
H753 C761 0.950 . S
H754 C759 0.950 . S
H755 C760 0.949 . S
H756 C762 0.950 . S
H757 C763 0.950 . S
H758 C764 0.949 . S
C759 H754 0.950 . S
C759 C761 1.327 . S
C759 C765 1.429 . S
C760 C752 1.574 . S
C760 H755 0.949 . S
C760 C766 1.368 . S
C761 C745 1.349 . S
C761 H753 0.950 . S
C761 C759 1.327 . S
C762 C750 1.349 . S
C762 H756 0.950 . S
C762 C763 1.327 . S
C763 H757 0.950 . S
C763 C762 1.327 . S
C763 C767 1.429 . S
C764 C747 1.574 . S
C764 H758 0.949 . S
C764 C768 1.368 . S
C765 C746 1.429 . S
C765 C759 1.429 . S
C765 C766 1.523 . S
C766 C747 1.368 . S
C766 C760 1.368 . S
C766 C765 1.523 . S
C767 C751 1.429 . S
C767 C763 1.429 . S
C767 C768 1.523 . S
C768 C752 1.368 . S
C768 C764 1.368 . S
C768 C767 1.523 . S
H769 C744 0.950 . S
H770 C746 0.950 . S
H771 C747 0.949 . S
H772 C749 0.950 . S
H773 C751 0.950 . S
C774 C775 1.349 . S
C774 C776 1.327 . S
C774 H799 0.950 . S
C775 C774 1.349 . S
C775 C791 1.349 . S
C776 C774 1.327 . S
C776 C795 1.429 . S
C776 H800 0.950 . S
C777 C794 1.574 . S
C777 C796 1.368 . S
C777 H801 0.949 . S
H778 C782 0.949 . S
C779 C780 1.349 . S
C779 C781 1.327 . S
C779 H802 0.950 . S
C780 C779 1.349 . S
C780 C792 1.349 . S
C781 C779 1.327 . S
C781 C797 1.429 . S
C781 H803 0.950 . S
C782 H778 0.949 . S
C782 C790 1.574 . S
C782 C798 1.368 . S
H783 C791 0.950 . S
H784 C789 0.950 . S
H785 C790 0.949 . S
H786 C792 0.950 . S
H787 C793 0.950 . S
H788 C794 0.949 . S
C789 H784 0.950 . S
C789 C791 1.327 . S
C789 C795 1.429 . S
C790 C782 1.574 . S
C790 H785 0.949 . S
C790 C796 1.368 . S
C791 C775 1.349 . S
C791 H783 0.950 . S
C791 C789 1.327 . S
C792 C780 1.349 . S
C792 H786 0.950 . S
C792 C793 1.327 . S
C793 H787 0.950 . S
C793 C792 1.327 . S
C793 C797 1.429 . S
C794 C777 1.574 . S
C794 H788 0.949 . S
C794 C798 1.368 . S
C795 C776 1.429 . S
C795 C789 1.429 . S
C795 C796 1.523 . S
C796 C777 1.368 . S
C796 C790 1.368 . S
C796 C795 1.523 . S
C797 C781 1.429 . S
C797 C793 1.429 . S
C797 C798 1.523 . S
C798 C782 1.368 . S
C798 C794 1.368 . S
C798 C797 1.523 . S
H799 C774 0.950 . S
H800 C776 0.950 . S
H801 C777 0.949 . S
H802 C779 0.950 . S
H803 C781 0.950 . S
C804 C805 1.349 . S
C804 C806 1.327 . S
C804 H829 0.950 . S
C805 C804 1.349 . S
C805 C821 1.349 . S
C806 C804 1.327 . S
C806 C825 1.429 . S
C806 H830 0.950 . S
C807 C824 1.574 . S
C807 C826 1.368 . S
C807 H831 0.949 . S
H808 C812 0.949 . S
C809 C810 1.349 . S
C809 C811 1.327 . S
C809 H832 0.950 . S
C810 C809 1.349 . S
C810 C822 1.349 . S
C811 C809 1.327 . S
C811 C827 1.429 . S
C811 H833 0.950 . S
C812 H808 0.949 . S
C812 C820 1.574 . S
C812 C828 1.368 . S
H813 C821 0.950 . S
H814 C819 0.950 . S
H815 C820 0.949 . S
H816 C822 0.950 . S
H817 C823 0.950 . S
H818 C824 0.949 . S
C819 H814 0.950 . S
C819 C821 1.327 . S
C819 C825 1.429 . S
C820 C812 1.574 . S
C820 H815 0.949 . S
C820 C826 1.368 . S
C821 C805 1.349 . S
C821 H813 0.950 . S
C821 C819 1.327 . S
C822 C810 1.349 . S
C822 H816 0.950 . S
C822 C823 1.327 . S
C823 H817 0.950 . S
C823 C822 1.327 . S
C823 C827 1.429 . S
C824 C807 1.574 . S
C824 H818 0.949 . S
C824 C828 1.368 . S
C825 C806 1.429 . S
C825 C819 1.429 . S
C825 C826 1.523 . S
C826 C807 1.368 . S
C826 C820 1.368 . S
C826 C825 1.523 . S
C827 C811 1.429 . S
C827 C823 1.429 . S
C827 C828 1.523 . S
C828 C812 1.368 . S
C828 C824 1.368 . S
C828 C827 1.523 . S
H829 C804 0.950 . S
H830 C806 0.950 . S
H831 C807 0.949 . S
H832 C809 0.950 . S
H833 C811 0.950 . S
C834 C835 1.349 . S
C834 C836 1.327 . S
C834 H859 0.950 . S
C835 C834 1.349 . S
C835 C851 1.349 . S
C836 C834 1.327 . S
C836 C855 1.429 . S
C836 H860 0.950 . S
C837 C854 1.574 . S
C837 C856 1.368 . S
C837 H861 0.949 . S
H838 C842 0.949 . S
C839 C840 1.349 . S
C839 C841 1.327 . S
C839 H862 0.950 . S
C840 C839 1.349 . S
C840 C852 1.349 . S
C841 C839 1.327 . S
C841 C857 1.429 . S
C841 H863 0.950 . S
C842 H838 0.949 . S
C842 C850 1.574 . S
C842 C858 1.368 . S
H843 C851 0.950 . S
H844 C849 0.950 . S
H845 C850 0.949 . S
H846 C852 0.950 . S
H847 C853 0.950 . S
H848 C854 0.949 . S
C849 H844 0.950 . S
C849 C851 1.327 . S
C849 C855 1.429 . S
C850 C842 1.574 . S
C850 H845 0.949 . S
C850 C856 1.368 . S
C851 C835 1.349 . S
C851 H843 0.950 . S
C851 C849 1.327 . S
C852 C840 1.349 . S
C852 H846 0.950 . S
C852 C853 1.327 . S
C853 H847 0.950 . S
C853 C852 1.327 . S
C853 C857 1.429 . S
C854 C837 1.574 . S
C854 H848 0.949 . S
C854 C858 1.368 . S
C855 C836 1.429 . S
C855 C849 1.429 . S
C855 C856 1.523 . S
C856 C837 1.368 . S
C856 C850 1.368 . S
C856 C855 1.523 . S
C857 C841 1.429 . S
C857 C853 1.429 . S
C857 C858 1.523 . S
C858 C842 1.368 . S
C858 C854 1.368 . S
C858 C857 1.523 . S
H859 C834 0.950 . S
H860 C836 0.950 . S
H861 C837 0.949 . S
H862 C839 0.950 . S
H863 C841 0.950 . S
C864 C865 1.349 . S
C864 C866 1.327 . S
C864 H889 0.950 . S
C865 C864 1.349 . S
C865 C881 1.349 . S
C866 C864 1.327 . S
C866 C885 1.429 . S
C866 H890 0.950 . S
C867 C884 1.574 . S
C867 C886 1.368 . S
C867 H891 0.949 . S
H868 C872 0.949 . S
C869 C870 1.349 . S
C869 C871 1.327 . S
C869 H892 0.950 . S
C870 C869 1.349 . S
C870 C882 1.349 . S
C871 C869 1.327 . S
C871 C887 1.429 . S
C871 H893 0.950 . S
C872 H868 0.949 . S
C872 C880 1.574 . S
C872 C888 1.368 . S
H873 C881 0.950 . S
H874 C879 0.950 . S
H875 C880 0.949 . S
H876 C882 0.950 . S
H877 C883 0.950 . S
H878 C884 0.949 . S
C879 H874 0.950 . S
C879 C881 1.327 . S
C879 C885 1.429 . S
C880 C872 1.574 . S
C880 H875 0.949 . S
C880 C886 1.368 . S
C881 C865 1.349 . S
C881 H873 0.950 . S
C881 C879 1.327 . S
C882 C870 1.349 . S
C882 H876 0.950 . S
C882 C883 1.327 . S
C883 H877 0.950 . S
C883 C882 1.327 . S
C883 C887 1.429 . S
C884 C867 1.574 . S
C884 H878 0.949 . S
C884 C888 1.368 . S
C885 C866 1.429 . S
C885 C879 1.429 . S
C885 C886 1.523 . S
C886 C867 1.368 . S
C886 C880 1.368 . S
C886 C885 1.523 . S
C887 C871 1.429 . S
C887 C883 1.429 . S
C887 C888 1.523 . S
C888 C872 1.368 . S
C888 C884 1.368 . S
C888 C887 1.523 . S
H889 C864 0.950 . S
H890 C866 0.950 . S
H891 C867 0.949 . S
H892 C869 0.950 . S
H893 C871 0.950 . S
C894 C895 1.349 . S
C894 C896 1.327 . S
C894 H919 0.950 . S
C895 C894 1.349 . S
C895 C911 1.349 . S
C896 C894 1.327 . S
C896 C915 1.429 . S
C896 H920 0.950 . S
C897 C914 1.574 . S
C897 C916 1.368 . S
C897 H921 0.949 . S
H898 C902 0.949 . S
C899 C900 1.349 . S
C899 C901 1.327 . S
C899 H922 0.950 . S
C900 C899 1.349 . S
C900 C912 1.349 . S
C901 C899 1.327 . S
C901 C917 1.429 . S
C901 H923 0.950 . S
C902 H898 0.949 . S
C902 C910 1.574 . S
C902 C918 1.368 . S
H903 C911 0.950 . S
H904 C909 0.950 . S
H905 C910 0.949 . S
H906 C912 0.950 . S
H907 C913 0.950 . S
H908 C914 0.949 . S
C909 H904 0.950 . S
C909 C911 1.327 . S
C909 C915 1.429 . S
C910 C902 1.574 . S
C910 H905 0.949 . S
C910 C916 1.368 . S
C911 C895 1.349 . S
C911 H903 0.950 . S
C911 C909 1.327 . S
C912 C900 1.349 . S
C912 H906 0.950 . S
C912 C913 1.327 . S
C913 H907 0.950 . S
C913 C912 1.327 . S
C913 C917 1.429 . S
C914 C897 1.574 . S
C914 H908 0.949 . S
C914 C918 1.368 . S
C915 C896 1.429 . S
C915 C909 1.429 . S
C915 C916 1.523 . S
C916 C897 1.368 . S
C916 C910 1.368 . S
C916 C915 1.523 . S
C917 C901 1.429 . S
C917 C913 1.429 . S
C917 C918 1.523 . S
C918 C902 1.368 . S
C918 C914 1.368 . S
C918 C917 1.523 . S
H919 C894 0.950 . S
H920 C896 0.950 . S
H921 C897 0.949 . S
H922 C899 0.950 . S
H923 C901 0.950 . S
C924 C925 1.349 . S
C924 C926 1.327 . S
C924 H949 0.950 . S
C925 C924 1.349 . S
C925 C941 1.349 . S
C926 C924 1.327 . S
C926 C945 1.429 . S
C926 H950 0.950 . S
C927 C944 1.574 . S
C927 C946 1.368 . S
C927 H951 0.949 . S
H928 C932 0.949 . S
C929 C930 1.349 . S
C929 C931 1.327 . S
C929 H952 0.950 . S
C930 C929 1.349 . S
C930 C942 1.349 . S
C931 C929 1.327 . S
C931 C947 1.429 . S
C931 H953 0.950 . S
C932 H928 0.949 . S
C932 C940 1.574 . S
C932 C948 1.368 . S
H933 C941 0.950 . S
H934 C939 0.950 . S
H935 C940 0.949 . S
H936 C942 0.950 . S
H937 C943 0.950 . S
H938 C944 0.949 . S
C939 H934 0.950 . S
C939 C941 1.327 . S
C939 C945 1.429 . S
C940 C932 1.574 . S
C940 H935 0.949 . S
C940 C946 1.368 . S
C941 C925 1.349 . S
C941 H933 0.950 . S
C941 C939 1.327 . S
C942 C930 1.349 . S
C942 H936 0.950 . S
C942 C943 1.327 . S
C943 H937 0.950 . S
C943 C942 1.327 . S
C943 C947 1.429 . S
C944 C927 1.574 . S
C944 H938 0.949 . S
C944 C948 1.368 . S
C945 C926 1.429 . S
C945 C939 1.429 . S
C945 C946 1.523 . S
C946 C927 1.368 . S
C946 C940 1.368 . S
C946 C945 1.523 . S
C947 C931 1.429 . S
C947 C943 1.429 . S
C947 C948 1.523 . S
C948 C932 1.368 . S
C948 C944 1.368 . S
C948 C947 1.523 . S
H949 C924 0.950 . S
H950 C926 0.950 . S
H951 C927 0.949 . S
H952 C929 0.950 . S
H953 C931 0.950 . S
C954 C955 1.349 . S
C954 C956 1.327 . S
C954 H979 0.950 . S
C955 C954 1.349 . S
C955 C971 1.349 . S
C956 C954 1.327 . S
C956 C975 1.429 . S
C956 H980 0.950 . S
C957 C974 1.574 . S
C957 C976 1.368 . S
C957 H981 0.949 . S
H958 C962 0.949 . S
C959 C960 1.349 . S
C959 C961 1.327 . S
C959 H982 0.950 . S
C960 C959 1.349 . S
C960 C972 1.349 . S
C961 C959 1.327 . S
C961 C977 1.429 . S
C961 H983 0.950 . S
C962 H958 0.949 . S
C962 C970 1.574 . S
C962 C978 1.368 . S
H963 C971 0.950 . S
H964 C969 0.950 . S
H965 C970 0.949 . S
H966 C972 0.950 . S
H967 C973 0.950 . S
H968 C974 0.949 . S
C969 H964 0.950 . S
C969 C971 1.327 . S
C969 C975 1.429 . S
C970 C962 1.574 . S
C970 H965 0.949 . S
C970 C976 1.368 . S
C971 C955 1.349 . S
C971 H963 0.950 . S
C971 C969 1.327 . S
C972 C960 1.349 . S
C972 H966 0.950 . S
C972 C973 1.327 . S
C973 H967 0.950 . S
C973 C972 1.327 . S
C973 C977 1.429 . S
C974 C957 1.574 . S
C974 H968 0.949 . S
C974 C978 1.368 . S
C975 C956 1.429 . S
C975 C969 1.429 . S
C975 C976 1.523 . S
C976 C957 1.368 . S
C976 C970 1.368 . S
C976 C975 1.523 . S
C977 C961 1.429 . S
C977 C973 1.429 . S
C977 C978 1.523 . S
C978 C962 1.368 . S
C978 C974 1.368 . S
C978 C977 1.523 . S
H979 C954 0.950 . S
H980 C956 0.950 . S
H981 C957 0.949 . S
H982 C959 0.950 . S
H983 C961 0.950 . S
C265 C9 1.473 . S
C270 C110 1.500 . S
C295 C21 1.000 . S
C300 C159 1.000 . S
C330 C194 2.116 . S
C325 C30 2.128 . S
C355 C43 2.109 . S
C360 C233 2.173 1_655 S
C390 C154 2.108 . S
C385 C4 1.896 . S
C420 C113 1.660 . S
C415 C22 1.725 . S
C450 C243 1.457 . S
C445 C34 1.492 . S
C480 C202 1.400 . S
C475 C48 1.423 . S
C505 C8 1.592 . S
C510 C230 1.631 . S
C540 C162 2.255 . S
C535 C35 2.334 . S
C565 C47 2.593 . S
C570 C123 2.580 . S
C595 C17 0.653 . S
C600 C199 0.650 . S
C630 C119 1.012 . S
C625 C60 1.002 . S
C655 C74 1.083 . S
C660 C150 1.077 . S
C685 C82 1.851 . S
C690 C203 1.884 . S
C715 C100 2.737 . S
C720 C242 2.663 . S
C745 C61 2.564 . S
C750 C163 2.641 . S
C780 C122 0.857 . S
C775 C73 0.873 . S
C810 C234 2.116 . S
C805 C87 2.181 . S
C840 C193 1.142 . S
C835 C95 1.136 . S
C865 C56 1.533 . S
C870 C239 1.539 . S
C900 C153 2.472 . S
C895 C86 2.548 . S
C930 C114 2.304 . S
C925 C99 2.317 . S
C955 C69 0.634 . S
C960 C190 0.579 . S
