# Generated by pormake.
# Topology pyr, (3,6)-cn, num edge types: 1
# Building blocks:
#     Node 0, Type 0, BuildingBlock: ESEHIV_clean_linker_0, # of connection points: 3
#     Node 1, Type 0, BuildingBlock: ESEHIV_clean_linker_0, # of connection points: 3
#     Node 2, Type 0, BuildingBlock: ESEHIV_clean_linker_0, # of connection points: 3
#     Node 3, Type 0, BuildingBlock: ESEHIV_clean_linker_0, # of connection points: 3
#     Node 4, Type 0, BuildingBlock: ESEHIV_clean_linker_0, # of connection points: 3
#     Node 5, Type 0, BuildingBlock: ESEHIV_clean_linker_0, # of connection points: 3
#     Node 6, Type 0, BuildingBlock: ESEHIV_clean_linker_0, # of connection points: 3
#     Node 7, Type 0, BuildingBlock: ESEHIV_clean_linker_0, # of connection points: 3
#     Node 8, Type 1, BuildingBlock: BETDEL_clean_sbu_0, # of connection points: 6
#     Node 9, Type 1, BuildingBlock: BETDEL_clean_sbu_0, # of connection points: 6
#     Node 10, Type 1, BuildingBlock: BETDEL_clean_sbu_0, # of connection points: 6
#     Node 11, Type 1, BuildingBlock: BETDEL_clean_sbu_0, # of connection points: 6
#     Edge 12, Type (0, 1), BuildingBlock: ZUJKAS_clean_linker_0, # of connection points: 2
#     Edge 13, Type (0, 1), BuildingBlock: ZUJKAS_clean_linker_0, # of connection points: 2
#     Edge 14, Type (0, 1), BuildingBlock: ZUJKAS_clean_linker_0, # of connection points: 2
#     Edge 15, Type (0, 1), BuildingBlock: ZUJKAS_clean_linker_0, # of connection points: 2
#     Edge 16, Type (0, 1), BuildingBlock: ZUJKAS_clean_linker_0, # of connection points: 2
#     Edge 17, Type (0, 1), BuildingBlock: ZUJKAS_clean_linker_0, # of connection points: 2
#     Edge 18, Type (0, 1), BuildingBlock: ZUJKAS_clean_linker_0, # of connection points: 2
#     Edge 19, Type (0, 1), BuildingBlock: ZUJKAS_clean_linker_0, # of connection points: 2
#     Edge 20, Type (0, 1), BuildingBlock: ZUJKAS_clean_linker_0, # of connection points: 2
#     Edge 21, Type (0, 1), BuildingBlock: ZUJKAS_clean_linker_0, # of connection points: 2
#     Edge 22, Type (0, 1), BuildingBlock: ZUJKAS_clean_linker_0, # of connection points: 2
#     Edge 23, Type (0, 1), BuildingBlock: ZUJKAS_clean_linker_0, # of connection points: 2
#     Edge 24, Type (0, 1), BuildingBlock: ZUJKAS_clean_linker_0, # of connection points: 2
#     Edge 25, Type (0, 1), BuildingBlock: ZUJKAS_clean_linker_0, # of connection points: 2
#     Edge 26, Type (0, 1), BuildingBlock: ZUJKAS_clean_linker_0, # of connection points: 2
#     Edge 27, Type (0, 1), BuildingBlock: ZUJKAS_clean_linker_0, # of connection points: 2
#     Edge 28, Type (0, 1), BuildingBlock: ZUJKAS_clean_linker_0, # of connection points: 2
#     Edge 29, Type (0, 1), BuildingBlock: ZUJKAS_clean_linker_0, # of connection points: 2
#     Edge 30, Type (0, 1), BuildingBlock: ZUJKAS_clean_linker_0, # of connection points: 2
#     Edge 31, Type (0, 1), BuildingBlock: ZUJKAS_clean_linker_0, # of connection points: 2
#     Edge 32, Type (0, 1), BuildingBlock: ZUJKAS_clean_linker_0, # of connection points: 2
#     Edge 33, Type (0, 1), BuildingBlock: ZUJKAS_clean_linker_0, # of connection points: 2
#     Edge 34, Type (0, 1), BuildingBlock: ZUJKAS_clean_linker_0, # of connection points: 2
#     Edge 35, Type (0, 1), BuildingBlock: ZUJKAS_clean_linker_0, # of connection points: 2
# Relax obj value: 0.027
# Max RMSD: 0.089
# Mean RMSD: 0.038
data_MOF--net-pyr--node1-BETDEL_clean_sbu_0--node2-ESEHIV_clean_linker_0--edge1-ZUJKAS_clean_linker_0
_symmetry_space_group_name_H-M    P1
_symmetry_Int_Tables_number       1
_symmetry_cell_setting            triclinic
loop_
_symmetry_equiv_pos_as_xyz
'x, y, z'
_cell_length_a     45.763393
_cell_length_b     47.501664
_cell_length_c     43.900039
_cell_angle_alpha  91.609662
_cell_angle_beta   89.285599
_cell_angle_gamma 95.041666
loop_
_atom_site_label
_atom_site_type_symbol
_atom_site_fract_x
_atom_site_fract_y
_atom_site_fract_z
_atom_type_partial_charge
H0 H 0.16844 0.22761 0.18819 0.0
H1 H 0.23271 0.16929 0.20485 0.0
H2 H 0.24494 0.22656 0.13063 0.0
C3 C 0.18946 0.21963 0.18297 0.0
C4 C 0.20615 0.23041 0.1582 0.0
C5 C 0.19866 0.19735 0.19968 0.0
C6 C 0.22523 0.18623 0.19175 0.0
C7 C 0.24204 0.19653 0.16681 0.0
C8 C 0.23243 0.21879 0.15025 0.0
H9 H 0.25891 0.86428 0.68437 0.0
H10 H 0.32523 0.80591 0.68863 0.0
H11 H 0.27412 0.80895 0.60752 0.0
C12 C 0.27099 0.84796 0.67372 0.0
C13 C 0.26405 0.83826 0.64391 0.0
C14 C 0.29293 0.83632 0.6901 0.0
C15 C 0.30803 0.81482 0.67629 0.0
C16 C 0.30127 0.80469 0.64665 0.0
C17 C 0.27907 0.81634 0.63062 0.0
H18 H 0.6794 0.30918 0.88015 0.0
H19 H 0.67952 0.37637 0.81679 0.0
H20 H 0.60835 0.31079 0.81703 0.0
C21 C 0.66898 0.31917 0.86179 0.0
C22 C 0.64236 0.30659 0.84989 0.0
C23 C 0.68233 0.34456 0.85034 0.0
C24 C 0.66882 0.35731 0.82634 0.0
C25 C 0.64221 0.34529 0.8139 0.0
C26 C 0.62918 0.31986 0.82588 0.0
H27 H 0.8104 0.69143 0.37507 0.0
H28 H 0.87724 0.69105 0.30553 0.0
H29 H 0.81077 0.62131 0.3109 0.0
C30 C 0.81983 0.6813 0.3553 0.0
C31 C 0.80721 0.65486 0.34455 0.0
C32 C 0.84513 0.69445 0.34148 0.0
C33 C 0.85805 0.68075 0.3166 0.0
C34 C 0.84575 0.65435 0.30525 0.0
C35 C 0.82034 0.64163 0.31943 0.0
H36 H 0.78489 0.84605 0.8067 0.0
H37 H 0.84269 0.78253 0.82662 0.0
H38 H 0.76409 0.78898 0.87987 0.0
C39 C 0.79001 0.82822 0.81989 0.0
C40 C 0.771 0.81876 0.84359 0.0
C41 C 0.81603 0.81538 0.81375 0.0
C42 C 0.82257 0.79246 0.83111 0.0
C43 C 0.80391 0.78283 0.85491 0.0
C44 C 0.77818 0.79604 0.86105 0.0
H45 H 0.69411 0.22394 0.30615 0.0
H46 H 0.75471 0.16057 0.31512 0.0
H47 H 0.74811 0.2246 0.38562 0.0
C48 C 0.7111 0.215 0.3188 0.0
C49 C 0.7197 0.22716 0.34714 0.0
C50 C 0.7235 0.19092 0.30709 0.0
C51 C 0.74551 0.17956 0.32364 0.0
C52 C 0.75453 0.19156 0.35199 0.0
C53 C 0.74132 0.21524 0.36375 0.0
H54 H 0.32932 0.7 0.12519 0.0
H55 H 0.32556 0.63517 0.1919 0.0
H56 H 0.39441 0.70312 0.19527 0.0
C57 C 0.33818 0.69097 0.14513 0.0
C58 C 0.36353 0.70445 0.15872 0.0
C59 C 0.32412 0.66609 0.15708 0.0
C60 C 0.33613 0.65446 0.18275 0.0
C61 C 0.36157 0.66749 0.19677 0.0
C62 C 0.37499 0.69267 0.18463 0.0
H63 H 0.12434 0.3224 0.70043 0.0
H64 H 0.19113 0.32334 0.63064 0.0
H65 H 0.1901 0.39273 0.69559 0.0
C66 C 0.14363 0.33277 0.68961 0.0
C67 C 0.156 0.35892 0.70154 0.0
C68 C 0.1559 0.31996 0.66373 0.0
C69 C 0.18103 0.33355 0.64995 0.0
C70 C 0.19376 0.3597 0.66137 0.0
C71 C 0.18101 0.37219 0.68716 0.0
Dy72 Dy 0.00934 0.01687 0.47201 0.0
C73 C 0.97705 0.96905 0.58699 0.0
C74 C 0.02168 0.04588 0.42008 0.0
Dy75 Dy 0.98917 0.99755 0.5347 0.0
O76 O 0.02924 0.02079 0.42525 0.0
O77 O 0.00693 0.05508 0.44318 0.0
O78 O 0.04116 0.98367 0.46902 0.0
O79 O 0.03147 1.00197 0.51158 0.0
C80 C 0.04451 0.98281 0.49823 0.0
C81 C 0.95463 0.03202 0.50799 0.0
O82 O 0.02026 0.03419 0.54944 0.0
O83 O 0.02399 0.0548 0.50211 0.0
O84 O 0.96446 0.99097 0.57871 0.0
O85 O 0.99651 0.96268 0.56677 0.0
O86 O 0.95838 0.03192 0.53723 0.0
O87 O 0.96724 0.01239 0.4951 0.0
O88 O 0.97696 0.98093 0.45789 0.0
O89 O 0.97538 0.9594 0.50467 0.0
C90 C 0.02822 0.05598 0.53204 0.0
C91 C 0.97011 0.95864 0.47496 0.0
Dy92 Dy 0.52845 0.01483 0.02682 0.0
C93 C 0.43456 0.96267 0.95049 0.0
C94 C 0.56783 0.04269 0.06536 0.0
Dy95 Dy 0.47871 0.99385 0.97997 0.0
O96 O 0.54477 0.02675 0.07372 0.0
O97 O 0.56943 0.04354 0.03579 0.0
O98 O 0.52894 0.97002 0.0415 0.0
O99 O 0.48947 0.98425 0.02682 0.0
C100 C 0.50156 0.96292 0.03528 0.0
C101 C 0.50989 0.04105 0.9601 0.0
O102 O 0.45333 0.0173 0.01446 0.0
O103 O 0.49268 0.04259 0.03896 0.0
O104 O 0.43658 0.99001 0.95413 0.0
O105 O 0.45658 0.95225 0.96328 0.0
O106 O 0.48861 0.02769 0.94477 0.0
O107 O 0.51285 0.02775 0.98402 0.0
O108 O 0.55489 0.99595 0.98992 0.0
O109 O 0.51643 0.9694 0.96518 0.0
C110 C 0.46421 0.0377 0.03342 0.0
C111 C 0.54484 0.97605 0.96996 0.0
Dy112 Dy 0.51076 0.48258 0.48586 0.0
C113 C 0.46118 0.5701 0.55478 0.0
C114 C 0.54286 0.44436 0.45621 0.0
Dy115 Dy 0.49301 0.53123 0.52592 0.0
O116 O 0.51524 0.43999 0.46335 0.0
O117 O 0.55279 0.4697 0.46489 0.0
O118 O 0.46364 0.46517 0.48269 0.0
O119 O 0.47883 0.48643 0.52282 0.0
C120 C 0.45642 0.47504 0.50942 0.0
C121 C 0.5472 0.53913 0.50179 0.0
O122 O 0.50738 0.504 0.56281 0.0
O123 O 0.53288 0.47527 0.53049 0.0
O124 O 0.48964 0.57121 0.55397 0.0
O125 O 0.45016 0.5475 0.54033 0.0
O126 O 0.53999 0.54943 0.52829 0.0
O127 O 0.5247 0.52745 0.48885 0.0
O128 O 0.49456 0.50847 0.44872 0.0
O129 O 0.47175 0.53941 0.48109 0.0
C130 C 0.52604 0.48438 0.55836 0.0
C131 C 0.47717 0.52916 0.4533 0.0
Dy132 Dy 0.01092 0.47754 0.01567 0.0
C133 C 0.96426 0.58049 0.98771 0.0
C134 C 0.03984 0.4307 0.02383 0.0
Dy135 Dy 0.99392 0.53389 0.99442 0.0
O136 O 0.01735 0.43752 0.03984 0.0
O137 O 0.04638 0.44933 0.00323 0.0
O138 O 0.9778 0.47829 0.05389 0.0
O139 O 0.9992 0.5163 0.03885 0.0
C140 C 0.97927 0.50571 0.05617 0.0
C141 C 0.02561 0.50578 0.95387 0.0
O142 O 0.03408 0.54985 0.02042 0.0
O143 O 0.05229 0.5061 0.02461 0.0
O144 O 0.98698 0.5745 0.97154 0.0
O145 O 0.95791 0.56114 0.00758 0.0
O146 O 0.02685 0.53321 0.95596 0.0
O147 O 0.00571 0.49521 0.97124 0.0
O148 O 0.97103 0.46146 0.98935 0.0
O149 O 0.95275 0.50515 0.98496 0.0
C150 C 0.05556 0.53413 0.02719 0.0
C151 C 0.94957 0.4771 0.98237 0.0
H152 H 0.18662 0.14116 0.21015 0.0
H153 H 0.1534 0.1194 0.24841 0.0
H154 H 0.133 0.20185 0.28131 0.0
H155 H 0.16673 0.22398 0.24336 0.0
H156 H 0.1562 0.12982 0.31411 0.0
H157 H 0.05168 0.15673 0.26297 0.0
H158 H 0.08555 0.15706 0.24133 0.0
H159 H 0.08015 0.18498 0.26863 0.0
C160 C 0.17542 0.15473 0.22578 0.0
C161 C 0.17939 0.18431 0.2238 0.0
C162 C 0.15627 0.14224 0.24743 0.0
C163 C 0.14056 0.15905 0.26732 0.0
C164 C 0.14462 0.18857 0.26574 0.0
H165 H 0.01835 0.10237 0.41257 0.0
H166 H 0.04549 0.13192 0.37479 0.0
C167 C 0.16388 0.20113 0.24412 0.0
C168 C 0.12047 0.14539 0.2901 0.0
H169 H 0.04802 0.13053 0.30795 0.0
C170 C 0.13256 0.13008 0.3129 0.0
C171 C 0.08971 0.14603 0.28844 0.0
C172 C 0.07581 0.16192 0.26397 0.0
C173 C 0.11462 0.11494 0.33393 0.0
C174 C 0.0838 0.11466 0.3316 0.0
C175 C 0.07167 0.1307 0.30942 0.0
C176 C 0.06409 0.09686 0.35145 0.0
C177 C 0.12881 0.09928 0.35843 0.0
C178 C 0.06464 0.06739 0.34981 0.0
C179 C 0.04935 0.05059 0.37126 0.0
C180 C 0.03308 0.06302 0.3945 0.0
C181 C 0.03081 0.09233 0.39485 0.0
C182 C 0.04628 0.10919 0.37338 0.0
H183 H 0.15201 0.10756 0.36204 0.0
H184 H 0.11666 0.10078 0.38039 0.0
H185 H 0.12854 0.07661 0.35151 0.0
H186 H 0.07789 0.05751 0.33265 0.0
H187 H 0.05126 0.02801 0.3704 0.0
H188 H 0.30583 0.80555 0.73926 0.0
H189 H 0.32355 0.82357 0.78905 0.0
H190 H 0.31484 0.90888 0.76178 0.0
H191 H 0.29798 0.89121 0.71157 0.0
H192 H 0.37588 0.86533 0.79357 0.0
H193 H 0.2756 0.9014 0.8497 0.0
H194 H 0.27417 0.87469 0.81945 0.0
H195 H 0.28218 0.91125 0.81075 0.0
C196 C 0.30764 0.82816 0.74384 0.0
C197 C 0.30072 0.84697 0.72134 0.0
C198 C 0.3175 0.83835 0.77236 0.0
C199 C 0.32018 0.86746 0.77905 0.0
C200 C 0.3124 0.88628 0.75712 0.0
H201 H 0.39471 0.98367 0.91403 0.0
H202 H 0.36468 0.95779 0.87505 0.0
C203 C 0.30275 0.87613 0.72848 0.0
C204 C 0.33388 0.87838 0.80774 0.0
H205 H 0.32104 0.91501 0.87377 0.0
C206 C 0.36391 0.8759 0.81135 0.0
C207 C 0.31808 0.8923 0.83055 0.0
C208 C 0.28565 0.89499 0.82769 0.0
C209 C 0.37895 0.88796 0.83678 0.0
C210 C 0.36322 0.90207 0.85968 0.0
C211 C 0.33298 0.904 0.85632 0.0
C212 C 0.37831 0.91679 0.88601 0.0
C213 C 0.41177 0.88666 0.83807 0.0
C214 C 0.39502 0.90216 0.90588 0.0
C215 C 0.41253 0.91698 0.9279 0.0
C216 C 0.41308 0.94653 0.93067 0.0
C217 C 0.39475 0.96088 0.91226 0.0
C218 C 0.37755 0.94612 0.89003 0.0
H219 H 0.42124 0.88138 0.8154 0.0
H220 H 0.42283 0.9071 0.84644 0.0
H221 H 0.41677 0.86999 0.85393 0.0
H222 H 0.3953 0.87943 0.90367 0.0
H223 H 0.42629 0.90544 0.94207 0.0
H224 H 0.63873 0.40214 0.80641 0.0
H225 H 0.61824 0.42543 0.76365 0.0
H226 H 0.59324 0.34426 0.72088 0.0
H227 H 0.61418 0.32069 0.76336 0.0
H228 H 0.63469 0.42166 0.70159 0.0
H229 H 0.51722 0.38505 0.71913 0.0
H230 H 0.54438 0.38312 0.74833 0.0
H231 H 0.54176 0.35749 0.71739 0.0
C232 C 0.62902 0.38914 0.78788 0.0
C233 C 0.62827 0.35944 0.78843 0.0
C234 C 0.61716 0.40255 0.76348 0.0
C235 C 0.60394 0.38665 0.73914 0.0
C236 C 0.60285 0.357 0.73965 0.0
H237 H 0.56727 0.44581 0.55848 0.0
H238 H 0.58622 0.42264 0.60221 0.0
C239 C 0.61482 0.34354 0.76403 0.0
C240 C 0.59224 0.4012 0.71284 0.0
H241 H 0.52949 0.40971 0.67384 0.0
C242 C 0.61168 0.41906 0.69554 0.0
C243 C 0.56216 0.39807 0.70512 0.0
C244 C 0.54004 0.3801 0.72356 0.0
C245 C 0.60197 0.43351 0.67055 0.0
C246 C 0.57202 0.42987 0.66239 0.0
C247 C 0.55248 0.41235 0.67995 0.0
C248 C 0.56056 0.44415 0.63577 0.0
C249 C 0.62379 0.45292 0.65333 0.0
C250 C 0.53946 0.46371 0.63995 0.0
C251 C 0.52854 0.47708 0.61493 0.0
C252 C 0.53828 0.47095 0.58511 0.0
C253 C 0.55932 0.4512 0.58105 0.0
C254 C 0.57031 0.43797 0.60608 0.0
H255 H 0.64401 0.45866 0.66668 0.0
H256 H 0.63015 0.44209 0.63184 0.0
H257 H 0.61404 0.47261 0.64735 0.0
H258 H 0.53152 0.46875 0.66263 0.0
H259 H 0.51226 0.49202 0.61898 0.0
H260 H 0.81812 0.62613 0.25676 0.0
H261 H 0.84042 0.60142 0.21397 0.0
H262 H 0.92642 0.62638 0.2497 0.0
H263 H 0.90428 0.65037 0.29311 0.0
H264 H 0.88019 0.62162 0.16945 0.0
H265 H 0.9271 0.5407 0.23836 0.0
H266 H 0.90003 0.56293 0.25342 0.0
H267 H 0.93786 0.5765 0.25047 0.0
C268 C 0.84177 0.62611 0.25574 0.0
C269 C 0.85937 0.64005 0.2786 0.0
C270 C 0.8545 0.61216 0.2311 0.0
C271 C 0.88507 0.61168 0.22882 0.0
C272 C 0.90275 0.62603 0.25124 0.0
H273 H 0.98593 0.5626 0.06869 0.0
H274 H 0.96242 0.58875 0.10971 0.0
C275 C 0.89005 0.64 0.2759 0.0
C276 C 0.8984 0.59616 0.203 0.0
H277 H 0.94094 0.54206 0.18616 0.0
C278 C 0.89345 0.6042 0.17308 0.0
C279 C 0.91536 0.57317 0.20772 0.0
C280 C 0.92023 0.56258 0.23919 0.0
C281 C 0.90533 0.59015 0.1478 0.0
C282 C 0.92299 0.56768 0.15258 0.0
C283 C 0.92761 0.55942 0.18249 0.0
C284 C 0.93658 0.55212 0.12695 0.0
C285 C 0.89839 0.59913 0.11618 0.0
C286 C 0.93028 0.52276 0.1232 0.0
C287 C 0.94384 0.50776 0.09991 0.0
C288 C 0.9641 0.52181 0.07999 0.0
C289 C 0.97029 0.55122 0.0836 0.0
C290 C 0.95673 0.56622 0.10694 0.0
H291 H 0.87863 0.61114 0.11615 0.0
H292 H 0.91716 0.61305 0.10736 0.0
H293 H 0.89477 0.58055 0.10034 0.0
H294 H 0.91489 0.5114 0.1384 0.0
H295 H 0.93864 0.48511 0.09767 0.0
H296 H 0.295 0.22151 0.14712 0.0
H297 H 0.33697 0.19785 0.12697 0.0
H298 H 0.29046 0.11669 0.14343 0.0
H299 H 0.24841 0.13998 0.16313 0.0
H300 H 0.35094 0.12241 0.16188 0.0
H301 H 0.33454 0.15498 0.04285 0.0
H302 H 0.33766 0.18278 0.07159 0.0
H303 H 0.30661 0.15693 0.07205 0.0
C304 C 0.29375 0.19862 0.14642 0.0
C305 C 0.26838 0.18261 0.15665 0.0
C306 C 0.31771 0.18519 0.13498 0.0
C307 C 0.31659 0.15558 0.13352 0.0
C308 C 0.2917 0.13958 0.14449 0.0
H309 H 0.40482 0.03621 0.02639 0.0
H310 H 0.37101 0.06634 0.05193 0.0
C311 C 0.26776 0.15294 0.15586 0.0
C312 C 0.3408 0.14098 0.11955 0.0
H313 H 0.3735 0.12701 0.05119 0.0
C314 C 0.35614 0.12358 0.13775 0.0
C315 C 0.34714 0.14242 0.08801 0.0
C316 C 0.33055 0.16009 0.06732 0.0
C317 C 0.3775 0.10718 0.12509 0.0
C318 C 0.38372 0.10851 0.09353 0.0
C319 C 0.36869 0.12623 0.07542 0.0
C320 C 0.40451 0.09041 0.07847 0.0
C321 C 0.39251 0.08781 0.14529 0.0
C322 C 0.43454 0.09417 0.08489 0.0
C323 C 0.454 0.07698 0.07034 0.0
C324 C 0.44368 0.05579 0.04908 0.0
C325 C 0.41353 0.05223 0.04268 0.0
C326 C 0.39416 0.06945 0.05719 0.0
H327 H 0.38144 0.08547 0.16786 0.0
H328 H 0.39309 0.06654 0.13424 0.0
H329 H 0.4155 0.09659 0.14907 0.0
H330 H 0.44294 0.11052 0.10098 0.0
H331 H 0.47709 0.08037 0.07574 0.0
H332 H 0.21983 0.81182 0.60931 0.0
H333 H 0.18169 0.83394 0.58209 0.0
H334 H 0.2186 0.91625 0.61316 0.0
H335 H 0.25699 0.89443 0.63986 0.0
H336 H 0.14029 0.86994 0.60831 0.0
H337 H 0.21113 0.92343 0.51991 0.0
H338 H 0.22274 0.89494 0.54195 0.0
H339 H 0.22375 0.93014 0.55823 0.0
C340 C 0.21999 0.83465 0.60999 0.0
C341 C 0.24136 0.85141 0.62671 0.0
C342 C 0.19814 0.84721 0.59461 0.0
C343 C 0.19756 0.8767 0.59543 0.0
C344 C 0.21893 0.89347 0.61195 0.0
H345 H 0.05903 0.98298 0.5584 0.0
H346 H 0.09497 0.9552 0.58192 0.0
C347 C 0.24066 0.88096 0.62741 0.0
C348 C 0.17414 0.89006 0.5798 0.0
H349 H 0.16252 0.93721 0.52498 0.0
C350 C 0.14505 0.8845 0.58993 0.0
C351 C 0.18048 0.90879 0.55568 0.0
C352 C 0.21117 0.91454 0.54305 0.0
C353 C 0.12215 0.89784 0.57707 0.0
C354 C 0.12868 0.91741 0.55375 0.0
C355 C 0.15765 0.92237 0.54307 0.0
C356 C 0.10583 0.9331 0.54005 0.0
C357 C 0.09118 0.89078 0.58839 0.0
C358 C 0.10031 0.93005 0.50873 0.0
C359 C 0.07996 0.94594 0.49529 0.0
C360 C 0.06495 0.96527 0.51292 0.0
C361 C 0.07025 0.96813 0.54434 0.0
C362 C 0.09062 0.95219 0.5578 0.0
H363 H 0.08891 0.87045 0.60048 0.0
H364 H 0.08512 0.90769 0.60461 0.0
H365 H 0.07543 0.88946 0.56926 0.0
H366 H 0.11191 0.9155 0.49466 0.0
H367 H 0.07623 0.94331 0.47101 0.0
H368 H 0.69744 0.40074 0.86329 0.0
H369 H 0.74316 0.42253 0.88521 0.0
H370 H 0.77579 0.34041 0.89059 0.0
H371 H 0.73057 0.31854 0.86774 0.0
H372 H 0.76738 0.41349 0.94139 0.0
H373 H 0.84317 0.38588 0.84773 0.0
H374 H 0.80386 0.38326 0.84328 0.0
H375 H 0.82099 0.35618 0.86248 0.0
C376 C 0.71451 0.38733 0.8687 0.0
C377 C 0.71031 0.35786 0.86357 0.0
C378 C 0.74056 0.39981 0.88144 0.0
C379 C 0.76311 0.38318 0.88918 0.0
C380 C 0.75896 0.35376 0.8843 0.0
H381 H 0.93528 0.42044 0.9711 0.0
H382 H 0.8898 0.3977 0.94955 0.0
C383 C 0.73291 0.34125 0.87155 0.0
C384 C 0.7906 0.39658 0.90308 0.0
H385 H 0.86501 0.40574 0.89307 0.0
C386 C 0.78872 0.41189 0.93077 0.0
C387 C 0.81847 0.39442 0.88926 0.0
C388 C 0.82185 0.37928 0.85891 0.0
C389 C 0.81392 0.42475 0.94522 0.0
C390 C 0.84177 0.42268 0.93135 0.0
C391 C 0.84368 0.40728 0.90372 0.0
C392 C 0.86917 0.4366 0.94495 0.0
C393 C 0.81053 0.43995 0.97553 0.0
C394 C 0.87286 0.46608 0.94929 0.0
C395 C 0.89882 0.47919 0.96164 0.0
C396 C 0.92179 0.46309 0.96976 0.0
C397 C 0.91807 0.43354 0.96523 0.0
C398 C 0.89208 0.42046 0.95285 0.0
H399 H 0.78933 0.43315 0.98685 0.0
H400 H 0.82868 0.43624 0.99108 0.0
H401 H 0.81108 0.46301 0.97188 0.0
H402 H 0.85577 0.47906 0.94278 0.0
H403 H 0.90091 0.50197 0.96462 0.0
H404 H 0.75932 0.67991 0.36705 0.0
H405 H 0.71649 0.65774 0.39364 0.0
H406 H 0.75059 0.57633 0.38167 0.0
H407 H 0.79426 0.59852 0.3564 0.0
H408 H 0.67456 0.61808 0.37468 0.0
H409 H 0.73321 0.57794 0.47206 0.0
H410 H 0.75076 0.60279 0.4458 0.0
H411 H 0.74591 0.56574 0.4356 0.0
C412 C 0.75799 0.65734 0.37045 0.0
C413 C 0.78049 0.6411 0.35977 0.0
C414 C 0.73332 0.64465 0.38545 0.0
C415 C 0.73049 0.61541 0.39016 0.0
C416 C 0.75254 0.59901 0.37895 0.0
H417 H 0.56305 0.525 0.44348 0.0
H418 H 0.60797 0.54151 0.41601 0.0
C419 C 0.77735 0.61171 0.36408 0.0
C420 C 0.70421 0.60223 0.4064 0.0
H421 H 0.68244 0.56332 0.46833 0.0
C422 C 0.67629 0.6061 0.39515 0.0
C423 C 0.70643 0.58687 0.43336 0.0
C424 C 0.73566 0.58328 0.44763 0.0
C425 C 0.65059 0.59508 0.41002 0.0
C426 C 0.65281 0.57911 0.43654 0.0
C427 C 0.68073 0.57527 0.44783 0.0
C428 C 0.62644 0.56733 0.45365 0.0
C429 C 0.62131 0.60143 0.39768 0.0
C430 C 0.62241 0.57528 0.48438 0.0
C431 C 0.59699 0.56549 0.50026 0.0
C432 C 0.57507 0.54757 0.48571 0.0
C433 C 0.57952 0.53889 0.45525 0.0
C434 C 0.60506 0.54852 0.43944 0.0
H435 H 0.62347 0.61989 0.38256 0.0
H436 H 0.61182 0.58288 0.38409 0.0
H437 H 0.6057 0.60579 0.41644 0.0
H438 H 0.63865 0.58963 0.49591 0.0
H439 H 0.59422 0.57246 0.52374 0.0
H440 H 0.18265 0.27848 0.17805 0.0
H441 H 0.15842 0.31167 0.14743 0.0
H442 H 0.17968 0.26517 0.06552 0.0
H443 H 0.20346 0.23148 0.09607 0.0
H444 H 0.17962 0.34574 0.09691 0.0
H445 H 0.0885 0.26462 0.06652 0.0
H446 H 0.11348 0.26014 0.09715 0.0
H447 H 0.1252 0.25563 0.05829 0.0
C448 C 0.18229 0.27544 0.1535 0.0
C449 C 0.19472 0.25232 0.13944 0.0
C450 C 0.16861 0.29445 0.13607 0.0
C451 C 0.16701 0.29057 0.10434 0.0
C452 C 0.18047 0.26825 0.09005 0.0
H453 H 0.08993 0.41698 0.99505 0.0
H454 H 0.12214 0.38123 0.01014 0.0
C455 C 0.19424 0.24922 0.10749 0.0
C456 C 0.14986 0.30918 0.08666 0.0
H457 H 0.08521 0.31056 0.04906 0.0
C458 C 0.15917 0.33808 0.08605 0.0
C459 C 0.12309 0.29897 0.07288 0.0
C460 C 0.11173 0.26819 0.0738 0.0
C461 C 0.14198 0.35726 0.07262 0.0
C462 C 0.11501 0.3471 0.05923 0.0
C463 C 0.10605 0.31811 0.05916 0.0
C464 C 0.09452 0.36661 0.04788 0.0
C465 C 0.15211 0.38838 0.07409 0.0
C466 C 0.06794 0.36936 0.06346 0.0
C467 C 0.04956 0.3896 0.05488 0.0
C468 C 0.05748 0.40727 0.03051 0.0
C469 C 0.08345 0.40364 0.01403 0.0
C470 C 0.10188 0.38339 0.02267 0.0
H471 H 0.17099 0.39313 0.08963 0.0
H472 H 0.15897 0.39539 0.05099 0.0
H473 H 0.13394 0.40093 0.08192 0.0
H474 H 0.06192 0.3565 0.08293 0.0
H475 H 0.02961 0.39196 0.06788 0.0
H476 H 0.61401 0.26095 0.81921 0.0
H477 H 0.5926 0.21653 0.84025 0.0
H478 H 0.61945 0.24587 0.93029 0.0
H479 H 0.63949 0.29079 0.90977 0.0
H480 H 0.61876 0.17651 0.86959 0.0
H481 H 0.53524 0.21892 0.94657 0.0
H482 H 0.55457 0.24004 0.91796 0.0
H483 H 0.57172 0.23451 0.95372 0.0
C484 C 0.61487 0.25822 0.84358 0.0
C485 C 0.62851 0.27964 0.86271 0.0
C486 C 0.60283 0.23266 0.85557 0.0
C487 C 0.604 0.22788 0.88697 0.0
C488 C 0.61764 0.24916 0.90611 0.0
H489 H 0.54724 0.07791 0.99396 0.0
H490 H 0.57237 0.12304 0.97743 0.0
C491 C 0.62952 0.27477 0.89419 0.0
C492 C 0.59183 0.20031 0.89948 0.0
H493 H 0.5429 0.17043 0.95143 0.0
C494 C 0.60213 0.17524 0.88744 0.0
C495 C 0.57018 0.19851 0.92292 0.0
C496 C 0.55705 0.2244 0.93586 0.0
C497 C 0.59145 0.1486 0.89812 0.0
C498 C 0.56974 0.14684 0.92137 0.0
C499 C 0.55973 0.17184 0.93379 0.0
C500 C 0.55565 0.11918 0.93146 0.0
C501 C 0.6035 0.12245 0.8845 0.0
C502 C 0.53786 0.10218 0.91122 0.0
C503 C 0.52348 0.07667 0.92064 0.0
C504 C 0.52667 0.06747 0.95048 0.0
C505 C 0.54469 0.08433 0.97075 0.0
C506 C 0.55891 0.11012 0.96137 0.0
H507 H 0.6247 0.12752 0.87239 0.0
H508 H 0.60674 0.10699 0.90241 0.0
H509 H 0.5876 0.11223 0.86783 0.0
H510 H 0.53468 0.1089 0.88821 0.0
H511 H 0.50963 0.0642 0.90454 0.0
H512 H 0.81632 0.74101 0.3565 0.0
H513 H 0.83704 0.78678 0.37703 0.0
H514 H 0.92337 0.75685 0.37452 0.0
H515 H 0.90279 0.71123 0.35332 0.0
H516 H 0.86434 0.79984 0.42885 0.0
H517 H 0.93991 0.83115 0.33389 0.0
H518 H 0.91232 0.80172 0.33054 0.0
H519 H 0.94668 0.79756 0.34871 0.0
C520 C 0.83974 0.74424 0.36022 0.0
C521 C 0.85794 0.72253 0.35319 0.0
C522 C 0.85158 0.77043 0.3719 0.0
C523 C 0.88187 0.77553 0.37692 0.0
C524 C 0.90007 0.7538 0.37008 0.0
H525 H 0.96191 0.90627 0.49966 0.0
H526 H 0.94012 0.8625 0.47575 0.0
C527 C 0.88827 0.72767 0.35807 0.0
C528 C 0.89409 0.80315 0.39045 0.0
H529 H 0.94625 0.85825 0.38033 0.0
C530 C 0.88214 0.81268 0.41812 0.0
C531 C 0.91701 0.82021 0.37628 0.0
C532 C 0.92952 0.81231 0.34557 0.0
C533 C 0.89277 0.83841 0.43224 0.0
C534 C 0.91663 0.85481 0.41882 0.0
C535 C 0.92821 0.84557 0.39085 0.0
C536 C 0.92992 0.88156 0.43338 0.0
C537 C 0.87786 0.84798 0.4611 0.0
C538 C 0.93239 0.90681 0.41727 0.0
C539 C 0.9453 0.93189 0.43074 0.0
C540 C 0.95596 0.93225 0.46069 0.0
C541 C 0.95358 0.90689 0.47671 0.0
C542 C 0.94095 0.88181 0.46312 0.0
H543 H 0.85499 0.83813 0.46292 0.0
H544 H 0.89005 0.84151 0.48107 0.0
H545 H 0.87738 0.87131 0.46227 0.0
H546 H 0.92421 0.90717 0.39424 0.0
H547 H 0.94682 0.95099 0.4177 0.0
H548 H 0.36038 0.8009 0.64638 0.0
H549 H 0.3868 0.76081 0.6289 0.0
H550 H 0.30545 0.71651 0.59893 0.0
H551 H 0.27884 0.75667 0.61636 0.0
H552 H 0.37696 0.70664 0.65127 0.0
H553 H 0.36065 0.70608 0.52608 0.0
H554 H 0.35455 0.73627 0.5505 0.0
H555 H 0.32753 0.70647 0.54841 0.0
C556 C 0.34816 0.7827 0.63582 0.0
C557 C 0.31753 0.78179 0.63288 0.0
C558 C 0.36328 0.75988 0.62579 0.0
C559 C 0.34811 0.73579 0.61248 0.0
C560 C 0.31764 0.73512 0.60865 0.0
H561 H 0.40194 0.57183 0.55355 0.0
H562 H 0.37386 0.61151 0.56921 0.0
C563 C 0.30247 0.75803 0.61862 0.0
C564 C 0.36398 0.71068 0.60471 0.0
H565 H 0.38189 0.66672 0.5459 0.0
C566 C 0.37814 0.69796 0.62822 0.0
C567 C 0.36533 0.69938 0.57465 0.0
C568 C 0.35144 0.71285 0.54836 0.0
C569 C 0.39346 0.67402 0.62252 0.0
C570 C 0.39493 0.6628 0.59245 0.0
C571 C 0.38062 0.67539 0.56895 0.0
C572 C 0.41172 0.63831 0.58474 0.0
C573 C 0.40755 0.6607 0.64879 0.0
C574 C 0.44225 0.64026 0.58848 0.0
C575 C 0.4583 0.61765 0.57965 0.0
C576 C 0.44404 0.59282 0.56681 0.0
C577 C 0.41343 0.59071 0.56354 0.0
C578 C 0.3974 0.61335 0.57234 0.0
H579 H 0.39817 0.66726 0.67108 0.0
H580 H 0.40484 0.63727 0.64657 0.0
H581 H 0.43139 0.66745 0.64882 0.0
H582 H 0.45376 0.65953 0.59753 0.0
H583 H 0.48191 0.61986 0.58217 0.0
H584 H 0.80436 0.83342 0.75683 0.0
H585 H 0.83927 0.85534 0.72007 0.0
H586 H 0.91048 0.84502 0.78108 0.0
H587 H 0.87563 0.8241 0.81844 0.0
H588 H 0.91204 0.89828 0.75994 0.0
H589 H 0.89833 0.82055 0.66382 0.0
H590 H 0.86396 0.83216 0.67689 0.0
H591 H 0.88519 0.81274 0.70189 0.0
C592 C 0.82746 0.83577 0.76238 0.0
C593 C 0.83724 0.82696 0.79049 0.0
C594 C 0.84742 0.84795 0.7412 0.0
C595 C 0.87751 0.85131 0.74765 0.0
C596 C 0.88738 0.84232 0.77556 0.0
H597 H 0.99663 0.91908 0.60365 0.0
H598 H 0.97773 0.8893 0.64563 0.0
C599 C 0.86744 0.83021 0.79677 0.0
C600 C 0.89831 0.86614 0.7262 0.0
H601 H 0.91998 0.867 0.65161 0.0
C602 C 0.91416 0.89121 0.73637 0.0
C603 C 0.90148 0.8566 0.69564 0.0
C604 C 0.88657 0.82887 0.68398 0.0
C605 C 0.93177 0.90789 0.71628 0.0
C606 C 0.93309 0.89946 0.6852 0.0
C607 C 0.91867 0.87355 0.67543 0.0
C608 C 0.94685 0.9184 0.66196 0.0
C609 C 0.94834 0.93464 0.7284 0.0
C610 C 0.93579 0.94457 0.65744 0.0
C611 C 0.94645 0.96146 0.63362 0.0
C612 C 0.96823 0.95239 0.61381 0.0
C613 C 0.97987 0.92654 0.61874 0.0
C614 C 0.96911 0.90955 0.64261 0.0
H615 H 0.95295 0.93328 0.75308 0.0
H616 H 0.96942 0.93918 0.71593 0.0
H617 H 0.93482 0.95265 0.72555 0.0
H618 H 0.91815 0.95149 0.67169 0.0
H619 H 0.93703 0.98126 0.6302 0.0
H620 H 0.66637 0.18101 0.29001 0.0
H621 H 0.64712 0.1569 0.24377 0.0
H622 H 0.73506 0.14371 0.21368 0.0
H623 H 0.7547 0.16832 0.25995 0.0
H624 H 0.66055 0.17046 0.1812 0.0
H625 H 0.68962 0.06349 0.21217 0.0
H626 H 0.68855 0.09216 0.23995 0.0
H627 H 0.71845 0.09182 0.21316 0.0
C628 C 0.68171 0.17337 0.2734 0.0
C629 C 0.71209 0.1767 0.27858 0.0
C630 C 0.67065 0.15948 0.24707 0.0
C631 C 0.68968 0.14844 0.22548 0.0
C632 C 0.72004 0.15185 0.23031 0.0
H633 H 0.61582 0.07865 0.05162 0.0
H634 H 0.64959 0.1046 0.08777 0.0
C635 C 0.73118 0.16583 0.25673 0.0
C636 C 0.67725 0.13305 0.19825 0.0
H637 H 0.66307 0.06671 0.16712 0.0
C638 C 0.66143 0.14784 0.17777 0.0
C639 C 0.67836 0.10355 0.19416 0.0
C640 C 0.69448 0.08664 0.21604 0.0
C641 C 0.64579 0.13372 0.15377 0.0
C642 C 0.64632 0.10411 0.1501 0.0
C643 C 0.66294 0.08945 0.16998 0.0
C644 C 0.62727 0.08764 0.12788 0.0
C645 C 0.62762 0.15031 0.13349 0.0
C646 C 0.60402 0.0692 0.13856 0.0
C647 C 0.58486 0.05445 0.1181 0.0
C648 C 0.58873 0.0578 0.0866 0.0
C649 C 0.61235 0.07583 0.07584 0.0
C650 C 0.63155 0.09067 0.09639 0.0
H651 H 0.62605 0.17228 0.14232 0.0
H652 H 0.63776 0.15132 0.11041 0.0
H653 H 0.60511 0.13971 0.1312 0.0
H654 H 0.60039 0.06662 0.1628 0.0
H655 H 0.56686 0.04061 0.12697 0.0
H656 H 0.33191 0.64293 0.24541 0.0
H657 H 0.35211 0.61981 0.28849 0.0
H658 H 0.43956 0.63939 0.25303 0.0
H659 H 0.41952 0.66233 0.20961 0.0
H660 H 0.38572 0.57367 0.28791 0.0
H661 H 0.44646 0.66809 0.34176 0.0
H662 H 0.41901 0.67068 0.31304 0.0
H663 H 0.45528 0.66221 0.30224 0.0
C664 C 0.35545 0.64227 0.24664 0.0
C665 C 0.37405 0.65454 0.22389 0.0
C666 C 0.36698 0.62911 0.27141 0.0
C667 C 0.39739 0.62807 0.27424 0.0
C668 C 0.41607 0.64038 0.25171 0.0
H669 H 0.4838 0.51566 0.39238 0.0
H670 H 0.46458 0.53902 0.3488 0.0
C671 C 0.40455 0.65355 0.22687 0.0
C672 C 0.40936 0.61343 0.30036 0.0
H673 H 0.45407 0.62369 0.36227 0.0
C674 C 0.40067 0.58461 0.30416 0.0
C675 C 0.42862 0.62775 0.3218 0.0
C676 C 0.43774 0.65894 0.31978 0.0
C677 C 0.4109 0.5697 0.32857 0.0
C678 C 0.43066 0.58387 0.34963 0.0
C679 C 0.43913 0.61275 0.346 0.0
C680 C 0.4422 0.56933 0.37604 0.0
C681 C 0.39993 0.53905 0.33199 0.0
C682 C 0.43647 0.57879 0.40592 0.0
C683 C 0.44747 0.56552 0.43091 0.0
C684 C 0.46471 0.54255 0.42662 0.0
C685 C 0.47049 0.53314 0.39662 0.0
C686 C 0.4594 0.54642 0.37162 0.0
H687 H 0.37972 0.53329 0.31864 0.0
H688 H 0.41706 0.52552 0.32357 0.0
H689 H 0.39529 0.53425 0.35627 0.0
H690 H 0.42333 0.59645 0.40995 0.0
H691 H 0.44258 0.57347 0.45359 0.0
H692 H 0.09756 0.36236 0.71484 0.0
H693 H 0.07596 0.38576 0.75894 0.0
H694 H 0.16241 0.41064 0.79356 0.0
H695 H 0.1842 0.3865 0.75004 0.0
H696 H 0.12326 0.39012 0.83853 0.0
H697 H 0.07529 0.47137 0.77098 0.0
H698 H 0.06442 0.43562 0.75877 0.0
H699 H 0.10219 0.44925 0.75535 0.0
C700 C 0.11201 0.37254 0.73197 0.0
C701 C 0.14267 0.37265 0.72874 0.0
C702 C 0.09961 0.38619 0.75703 0.0
C703 C 0.11756 0.40038 0.77932 0.0
C704 C 0.14812 0.40001 0.77654 0.0
H705 H 0.06574 0.52643 0.91192 0.0
H706 H 0.08896 0.50022 0.87076 0.0
C707 C 0.16054 0.38638 0.7515 0.0
C708 C 0.10455 0.41574 0.80546 0.0
H709 H 0.06221 0.46975 0.82335 0.0
C710 C 0.10993 0.40755 0.83524 0.0
C711 C 0.0875 0.43874 0.80118 0.0
C712 C 0.08218 0.4495 0.76988 0.0
C713 C 0.0984 0.42149 0.8608 0.0
C714 C 0.08066 0.44399 0.85645 0.0
C715 C 0.0756 0.45237 0.82669 0.0
C716 C 0.06747 0.45947 0.8824 0.0
C717 C 0.1058 0.41236 0.89222 0.0
C718 C 0.04762 0.44532 0.90268 0.0
C719 C 0.03437 0.46027 0.92626 0.0
C720 C 0.04056 0.48969 0.92986 0.0
C721 C 0.06055 0.50378 0.9097 0.0
C722 C 0.0738 0.48883 0.88616 0.0
H723 H 0.12556 0.40033 0.89185 0.0
H724 H 0.10967 0.43088 0.90812 0.0
H725 H 0.08716 0.39841 0.90126 0.0
H726 H 0.04191 0.42279 0.89991 0.0
H727 H 0.01894 0.44887 0.94137 0.0
H728 H 0.71613 0.79537 0.8589 0.0
H729 H 0.67372 0.82021 0.87536 0.0
H730 H 0.72378 0.90027 0.86238 0.0
H731 H 0.76633 0.87573 0.8464 0.0
H732 H 0.6736 0.85804 0.92583 0.0
H733 H 0.64566 0.90954 0.81942 0.0
H734 H 0.66808 0.88008 0.8197 0.0
H735 H 0.68374 0.91519 0.82932 0.0
C736 C 0.71805 0.81827 0.85944 0.0
C737 C 0.74457 0.83359 0.85132 0.0
C738 C 0.69378 0.83239 0.86865 0.0
C739 C 0.69556 0.86202 0.86963 0.0
C740 C 0.72179 0.87738 0.86106 0.0
H741 H 0.6042 0.97879 0.97785 0.0
H742 H 0.63913 0.94995 0.95215 0.0
C743 C 0.74608 0.86331 0.85194 0.0
C744 C 0.67089 0.87699 0.88206 0.0
H745 H 0.62454 0.92689 0.86566 0.0
C746 C 0.66263 0.87286 0.91259 0.0
C747 C 0.65653 0.89611 0.86462 0.0
C748 C 0.66372 0.90036 0.83135 0.0
C749 C 0.64109 0.88818 0.92653 0.0
C750 C 0.62774 0.90826 0.90951 0.0
C751 C 0.63513 0.91164 0.87866 0.0
C752 C 0.60666 0.9265 0.92379 0.0
C753 C 0.63293 0.88301 0.95944 0.0
C754 C 0.57702 0.92322 0.91572 0.0
C755 C 0.55691 0.93963 0.93039 0.0
C756 C 0.56625 0.95975 0.95317 0.0
C757 C 0.5962 0.96347 0.9605 0.0
C758 C 0.61621 0.94696 0.94593 0.0
H759 H 0.64027 0.86272 0.96718 0.0
H760 H 0.64356 0.90038 0.97396 0.0
H761 H 0.60883 0.88273 0.96294 0.0
H762 H 0.56936 0.90756 0.89853 0.0
H763 H 0.53403 0.93631 0.92408 0.0
H764 H 0.80666 0.17417 0.33137 0.0
H765 H 0.84193 0.14938 0.35973 0.0
H766 H 0.78816 0.1545 0.4407 0.0
H767 H 0.75266 0.17918 0.41245 0.0
H768 H 0.8717 0.1678 0.41995 0.0
H769 H 0.79918 0.06723 0.42078 0.0
H770 H 0.79506 0.0943 0.39344 0.0
H771 H 0.78317 0.09925 0.43215 0.0
C772 C 0.80242 0.17008 0.35524 0.0
C773 C 0.77688 0.17847 0.3697 0.0
C774 C 0.82261 0.15608 0.3714 0.0
C775 C 0.81745 0.15003 0.40215 0.0
C776 C 0.79237 0.15895 0.4169 0.0
H777 H 0.9278 0.07632 0.53272 0.0
H778 H 0.89533 0.10637 0.50703 0.0
C779 C 0.77226 0.17315 0.40081 0.0
C780 C 0.83778 0.13341 0.41844 0.0
H781 H 0.84439 0.06785 0.44606 0.0
C782 C 0.86577 0.14599 0.42581 0.0
C783 C 0.82991 0.10493 0.42569 0.0
C784 C 0.80028 0.09041 0.41752 0.0
C785 C 0.88613 0.13075 0.44054 0.0
C786 C 0.87818 0.10232 0.4479 0.0
C787 C 0.85026 0.08972 0.4404 0.0
C788 C 0.89872 0.08511 0.46307 0.0
C789 C 0.91616 0.14484 0.44777 0.0
C790 C 0.9112 0.0633 0.44674 0.0
C791 C 0.92979 0.04624 0.46127 0.0
C792 C 0.93582 0.05057 0.49243 0.0
C793 C 0.92341 0.07254 0.50869 0.0
C794 C 0.905 0.08973 0.49408 0.0
H795 H 0.92022 0.16573 0.43702 0.0
H796 H 0.91825 0.14798 0.47282 0.0
H797 H 0.93337 0.13113 0.43992 0.0
H798 H 0.90647 0.05945 0.42279 0.0
H799 H 0.93913 0.02947 0.44823 0.0
H800 H 0.27707 0.69171 0.13621 0.0
H801 H 0.23184 0.66927 0.11382 0.0
H802 H 0.26372 0.58728 0.12354 0.0
H803 H 0.30905 0.60954 0.14585 0.0
H804 H 0.2234 0.63491 0.06202 0.0
H805 H 0.18332 0.57726 0.16469 0.0
H806 H 0.21278 0.60512 0.16606 0.0
H807 H 0.21966 0.57015 0.15272 0.0
C808 C 0.27457 0.6689 0.13341 0.0
C809 C 0.2967 0.65244 0.143 0.0
C810 C 0.24862 0.6561 0.12073 0.0
C811 C 0.24412 0.62655 0.11746 0.0
C812 C 0.26634 0.61007 0.12652 0.0
H813 H 0.10388 0.509 0.04544 0.0
H814 H 0.14954 0.53182 0.06632 0.0
C815 C 0.29228 0.62284 0.13926 0.0
C816 C 0.21638 0.61306 0.10414 0.0
H817 H 0.15721 0.56616 0.11892 0.0
C818 C 0.20885 0.61998 0.07451 0.0
C819 C 0.19738 0.59356 0.12044 0.0
C820 C 0.20347 0.58623 0.15284 0.0
C821 C 0.1832 0.60755 0.06054 0.0
C822 C 0.16426 0.58799 0.0768 0.0
C823 C 0.17176 0.5811 0.10643 0.0
C824 C 0.13659 0.57437 0.0635 0.0
C825 C 0.17693 0.61498 0.02821 0.0
C826 C 0.11394 0.59066 0.05516 0.0
C827 C 0.08774 0.57767 0.04319 0.0
C828 C 0.08354 0.54806 0.03943 0.0
C829 C 0.10628 0.53182 0.04791 0.0
C830 C 0.13244 0.54484 0.05991 0.0
H831 H 0.19692 0.6244 0.01642 0.0
H832 H 0.16798 0.59602 0.01487 0.0
H833 H 0.16036 0.63069 0.02847 0.0
H834 H 0.11638 0.61344 0.05827 0.0
H835 H 0.07069 0.59087 0.03707 0.0
H836 H 0.20624 0.36293 0.60014 0.0
H837 H 0.25056 0.38463 0.57565 0.0
H838 H 0.28518 0.41174 0.6636 0.0
H839 H 0.24157 0.38895 0.6884 0.0
H840 H 0.27428 0.43939 0.5758 0.0
H841 H 0.35223 0.3716 0.6271 0.0
H842 H 0.31301 0.36351 0.62915 0.0
H843 H 0.33086 0.38972 0.65465 0.0
C844 C 0.22344 0.37314 0.61436 0.0
C845 C 0.22036 0.37388 0.64633 0.0
C846 C 0.24868 0.38578 0.60027 0.0
C847 C 0.27147 0.39942 0.61777 0.0
C848 C 0.26821 0.40081 0.64962 0.0
H849 H 0.44187 0.48468 0.56911 0.0
H850 H 0.39623 0.46835 0.59554 0.0
C851 C 0.24303 0.38806 0.66376 0.0
C852 C 0.2985 0.41227 0.60259 0.0
H853 H 0.37295 0.41018 0.59861 0.0
C854 C 0.29584 0.43296 0.58076 0.0
C855 C 0.32668 0.40388 0.60902 0.0
C856 C 0.33094 0.38078 0.63103 0.0
C857 C 0.32055 0.4456 0.56541 0.0
C858 C 0.34865 0.43717 0.57184 0.0
C859 C 0.35138 0.41671 0.59383 0.0
C860 C 0.37545 0.44866 0.55539 0.0
C861 C 0.31648 0.46813 0.54268 0.0
C862 C 0.37888 0.44307 0.52402 0.0
C863 C 0.40496 0.45225 0.50891 0.0
C864 C 0.4281 0.46716 0.52491 0.0
C865 C 0.42441 0.47325 0.55618 0.0
C866 C 0.39839 0.46391 0.57132 0.0
H867 H 0.2949 0.47697 0.54564 0.0
H868 H 0.33414 0.48565 0.54478 0.0
H869 H 0.31757 0.4588 0.51928 0.0
H870 H 0.36165 0.43098 0.51138 0.0
H871 H 0.40721 0.44722 0.48483 0.0
H872 H 0.82349 0.73241 0.83687 0.0
H873 H 0.84426 0.69811 0.86896 0.0
H874 H 0.82533 0.74817 0.94913 0.0
H875 H 0.80482 0.78285 0.91703 0.0
H876 H 0.88412 0.73542 0.94346 0.0
H877 H 0.80764 0.63913 0.92846 0.0
H878 H 0.81868 0.65504 0.89304 0.0
H879 H 0.79755 0.67404 0.9202 0.0
C880 C 0.82336 0.73585 0.86138 0.0
C881 C 0.81262 0.76024 0.87451 0.0
C882 C 0.83497 0.71616 0.87968 0.0
C883 C 0.83599 0.7205 0.9114 0.0
C884 C 0.82445 0.74438 0.92469 0.0
H885 H 0.91335 0.59178 0.01632 0.0
H886 H 0.88106 0.62817 0.00348 0.0
C887 C 0.81265 0.76404 0.90638 0.0
C888 C 0.85195 0.70162 0.93003 0.0
H889 H 0.85636 0.63214 0.94512 0.0
C890 C 0.87779 0.71291 0.94437 0.0
C891 C 0.84345 0.67237 0.93141 0.0
C892 C 0.81515 0.65944 0.91771 0.0
C893 C 0.89632 0.69536 0.95847 0.0
C894 C 0.88886 0.66586 0.95788 0.0
C895 C 0.86213 0.65479 0.94524 0.0
C896 C 0.90954 0.64591 0.96789 0.0
C897 C 0.92408 0.70843 0.97319 0.0
C898 C 0.93622 0.64405 0.95218 0.0
C899 C 0.95458 0.62329 0.95935 0.0
C900 C 0.94643 0.60407 0.98226 0.0
C901 C 0.92011 0.60643 0.99857 0.0
C902 C 0.90168 0.62713 0.99128 0.0
H903 H 0.92238 0.73103 0.9796 0.0
H904 H 0.9292 0.6969 0.99385 0.0
H905 H 0.94263 0.70733 0.9568 0.0
H906 H 0.94238 0.65804 0.93367 0.0
H907 H 0.97471 0.6218 0.94639 0.0
H908 H 0.37923 0.75478 0.18856 0.0
H909 H 0.40037 0.79901 0.16661 0.0
H910 H 0.40235 0.75766 0.07791 0.0
H911 H 0.38 0.71389 0.0996 0.0
H912 H 0.44958 0.81412 0.14067 0.0
H913 H 0.3641 0.82545 0.05525 0.0
H914 H 0.35977 0.7993 0.0843 0.0
H915 H 0.38007 0.79256 0.04978 0.0
C916 C 0.38415 0.75521 0.16437 0.0
C917 C 0.37774 0.73096 0.14575 0.0
C918 C 0.39619 0.78051 0.15179 0.0
C919 C 0.40238 0.78207 0.12035 0.0
C920 C 0.39684 0.7575 0.10196 0.0
H921 H 0.52519 0.91358 0.0452 0.0
H922 H 0.50062 0.86977 0.0645 0.0
C923 C 0.3843 0.73237 0.11443 0.0
C924 C 0.41547 0.80907 0.10709 0.0
H925 H 0.40898 0.85472 0.04908 0.0
C926 C 0.44051 0.82305 0.12077 0.0
C927 C 0.40346 0.82127 0.08144 0.0
C928 C 0.37519 0.80903 0.06707 0.0
C929 C 0.45411 0.84834 0.1093 0.0
C930 C 0.44319 0.85957 0.08253 0.0
C931 C 0.41777 0.84597 0.06923 0.0
C932 C 0.45767 0.88549 0.06822 0.0
C933 C 0.47962 0.86306 0.12664 0.0
C934 C 0.4415 0.90848 0.06181 0.0
C935 C 0.45544 0.93334 0.04986 0.0
C936 C 0.48587 0.93578 0.04439 0.0
C937 C 0.50178 0.91244 0.04963 0.0
C938 C 0.48778 0.88746 0.06099 0.0
H939 H 0.4788 0.85738 0.15104 0.0
H940 H 0.50043 0.85633 0.11681 0.0
H941 H 0.48 0.8864 0.12535 0.0
H942 H 0.4182 0.90749 0.06681 0.0
H943 H 0.4426 0.95098 0.04594 0.0
H944 H 0.13454 0.27285 0.69464 0.0
H945 H 0.11364 0.22742 0.67316 0.0
H946 H 0.126 0.25935 0.58251 0.0
H947 H 0.14685 0.30473 0.60375 0.0
H948 H 0.0651 0.2147 0.63672 0.0
H949 H 0.16568 0.18608 0.57598 0.0
H950 H 0.16614 0.21432 0.6044 0.0
H951 H 0.15476 0.22002 0.56615 0.0
C952 C 0.13267 0.27025 0.67014 0.0
C953 C 0.1426 0.2924 0.65092 0.0
C954 C 0.12084 0.24422 0.65788 0.0
C955 C 0.11878 0.23975 0.62619 0.0
C956 C 0.1281 0.262 0.60699 0.0
H957 H 0.0492 0.10457 0.50385 0.0
H958 H 0.07095 0.14856 0.52757 0.0
C959 C 0.13999 0.28798 0.61919 0.0
C960 C 0.10634 0.21205 0.61317 0.0
H961 H 0.1215 0.15779 0.56431 0.0
C962 C 0.0775 0.20215 0.62107 0.0
C963 C 0.12254 0.19565 0.59273 0.0
C964 C 0.15409 0.20438 0.58451 0.0
C965 C 0.06417 0.1767 0.60851 0.0
C966 C 0.08026 0.16049 0.58781 0.0
C967 C 0.10917 0.17027 0.58009 0.0
C968 C 0.06736 0.1335 0.57362 0.0
C969 C 0.03269 0.16776 0.61684 0.0
C970 C 0.05853 0.11021 0.59157 0.0
C971 C 0.04611 0.08495 0.57808 0.0
C972 C 0.04234 0.08243 0.54631 0.0
C973 C 0.05167 0.1057 0.52837 0.0
C974 C 0.06414 0.13091 0.54188 0.0
H975 H 0.02139 0.18556 0.62708 0.0
H976 H 0.02029 0.15927 0.59651 0.0
H977 H 0.03215 0.15081 0.63376 0.0
H978 H 0.06131 0.11153 0.61605 0.0
H979 H 0.03931 0.06748 0.59263 0.0
H980 H 0.6966 0.23377 0.40428 0.0
H981 H 0.66723 0.27153 0.42296 0.0
H982 H 0.68004 0.31302 0.33705 0.0
H983 H 0.70904 0.27518 0.31815 0.0
H984 H 0.6788 0.32892 0.43014 0.0
H985 H 0.5912 0.30346 0.34508 0.0
H986 H 0.61963 0.28037 0.35158 0.0
H987 H 0.62687 0.31074 0.32818 0.0
C988 C 0.69344 0.25115 0.38957 0.0
C989 C 0.70483 0.25147 0.35969 0.0
C990 C 0.67658 0.27261 0.40019 0.0
C991 C 0.67091 0.29469 0.38112 0.0
C992 C 0.68348 0.29575 0.35182 0.0
H993 H 0.60003 0.45183 0.43819 0.0
H994 H 0.63115 0.41551 0.41957 0.0
C995 C 0.70013 0.27423 0.34112 0.0
C996 C 0.65147 0.31639 0.39168 0.0
H997 H 0.5886 0.346 0.37446 0.0
C998 C 0.65903 0.33264 0.41805 0.0
C999 C 0.62541 0.32079 0.37615 0.0
C1000 C 0.61508 0.30273 0.34886 0.0
C1001 C 0.64149 0.35358 0.42901 0.0
C1002 C 0.61612 0.35881 0.41271 0.0
C1003 C 0.60828 0.3422 0.38667 0.0
C1004 C 0.59706 0.38106 0.42262 0.0
C1005 C 0.65001 0.36947 0.45827 0.0
C1006 C 0.56727 0.37393 0.42921 0.0
C1007 C 0.54936 0.3947 0.43936 0.0
C1008 C 0.56101 0.4229 0.44309 0.0
C1009 C 0.59059 0.43017 0.43568 0.0
C1010 C 0.60843 0.40943 0.42532 0.0
H1011 H 0.66473 0.35769 0.47216 0.0
H1012 H 0.66193 0.3901 0.45279 0.0
H1013 H 0.63035 0.3736 0.47221 0.0
H1014 H 0.55801 0.35218 0.42706 0.0
H1015 H 0.52661 0.38858 0.44493 0.0
loop_
_geom_bond_atom_site_label_1
_geom_bond_atom_site_label_2
_geom_bond_distance
_geom_bond_site_symmetry_2
_ccdc_geom_bond_type
H0 C3 0.931 . S
H1 C6 0.928 . S
H2 C8 0.930 . S
C3 H0 0.931 . S
C3 C4 1.413 . S
C3 C5 1.360 . S
C4 C3 1.413 . S
C4 C8 1.429 . S
C5 C3 1.360 . S
C5 C6 1.372 . S
C6 H1 0.928 . S
C6 C5 1.372 . S
C6 C7 1.404 . S
C7 C6 1.404 . S
C7 C8 1.391 . S
C8 H2 0.930 . S
C8 C4 1.429 . S
C8 C7 1.391 . S
H9 C12 0.931 . S
H10 C15 0.928 . S
H11 C17 0.930 . S
C12 H9 0.931 . S
C12 C13 1.413 . S
C12 C14 1.360 . S
C13 C12 1.413 . S
C13 C17 1.429 . S
C14 C12 1.360 . S
C14 C15 1.372 . S
C15 H10 0.928 . S
C15 C14 1.372 . S
C15 C16 1.404 . S
C16 C15 1.404 . S
C16 C17 1.391 . S
C17 H11 0.930 . S
C17 C13 1.429 . S
C17 C16 1.391 . S
H18 C21 0.931 . S
H19 C24 0.928 . S
H20 C26 0.930 . S
C21 H18 0.931 . S
C21 C22 1.413 . S
C21 C23 1.360 . S
C22 C21 1.413 . S
C22 C26 1.429 . S
C23 C21 1.360 . S
C23 C24 1.372 . S
C24 H19 0.928 . S
C24 C23 1.372 . S
C24 C25 1.404 . S
C25 C24 1.404 . S
C25 C26 1.391 . S
C26 H20 0.930 . S
C26 C22 1.429 . S
C26 C25 1.391 . S
H27 C30 0.931 . S
H28 C33 0.928 . S
H29 C35 0.930 . S
C30 H27 0.931 . S
C30 C31 1.413 . S
C30 C32 1.360 . S
C31 C30 1.413 . S
C31 C35 1.429 . S
C32 C30 1.360 . S
C32 C33 1.372 . S
C33 H28 0.928 . S
C33 C32 1.372 . S
C33 C34 1.404 . S
C34 C33 1.404 . S
C34 C35 1.391 . S
C35 H29 0.930 . S
C35 C31 1.429 . S
C35 C34 1.391 . S
H36 C39 0.931 . S
H37 C42 0.928 . S
H38 C44 0.930 . S
C39 H36 0.931 . S
C39 C40 1.413 . S
C39 C41 1.360 . S
C40 C39 1.413 . S
C40 C44 1.429 . S
C41 C39 1.360 . S
C41 C42 1.372 . S
C42 H37 0.928 . S
C42 C41 1.372 . S
C42 C43 1.404 . S
C43 C42 1.404 . S
C43 C44 1.391 . S
C44 H38 0.930 . S
C44 C40 1.429 . S
C44 C43 1.391 . S
H45 C48 0.931 . S
H46 C51 0.928 . S
H47 C53 0.930 . S
C48 H45 0.931 . S
C48 C49 1.413 . S
C48 C50 1.360 . S
C49 C48 1.413 . S
C49 C53 1.429 . S
C50 C48 1.360 . S
C50 C51 1.372 . S
C51 H46 0.928 . S
C51 C50 1.372 . S
C51 C52 1.404 . S
C52 C51 1.404 . S
C52 C53 1.391 . S
C53 H47 0.930 . S
C53 C49 1.429 . S
C53 C52 1.391 . S
H54 C57 0.931 . S
H55 C60 0.928 . S
H56 C62 0.930 . S
C57 H54 0.931 . S
C57 C58 1.413 . S
C57 C59 1.360 . S
C58 C57 1.413 . S
C58 C62 1.429 . S
C59 C57 1.360 . S
C59 C60 1.372 . S
C60 H55 0.928 . S
C60 C59 1.372 . S
C60 C61 1.404 . S
C61 C60 1.404 . S
C61 C62 1.391 . S
C62 H56 0.930 . S
C62 C58 1.429 . S
C62 C61 1.391 . S
H63 C66 0.931 . S
H64 C69 0.928 . S
H65 C71 0.930 . S
C66 H63 0.931 . S
C66 C67 1.413 . S
C66 C68 1.360 . S
C67 C66 1.413 . S
C67 C71 1.429 . S
C68 C66 1.360 . S
C68 C69 1.372 . S
C69 H64 0.928 . S
C69 C68 1.372 . S
C69 C70 1.404 . S
C70 C69 1.404 . S
C70 C71 1.391 . S
C71 H65 0.930 . S
C71 C67 1.429 . S
C71 C70 1.391 . S
Dy72 O76 2.398 . S
Dy72 O77 2.491 . S
Dy72 O78 2.403 1_545 S
Dy72 O79 2.664 1_545 S
Dy72 O83 2.326 . S
Dy72 O87 2.310 1_455 S
Dy72 O88 2.351 1_445 S
C73 O84 1.185 . S
C73 O85 1.355 . S
C74 O76 1.185 . S
C74 O77 1.355 . S
Dy75 O79 2.310 1_655 S
Dy75 O82 2.351 1_665 S
Dy75 O84 2.398 . S
Dy75 O85 2.491 . S
Dy75 O86 2.403 1_565 S
Dy75 O87 2.664 1_565 S
Dy75 O89 2.326 . S
O76 Dy72 2.398 . S
O76 C74 1.185 . S
O77 Dy72 2.491 . S
O77 C74 1.355 . S
O78 Dy72 2.403 1_565 S
O78 C80 1.254 . S
O79 Dy72 2.664 1_565 S
O79 Dy75 2.310 1_455 S
O79 C80 1.268 . S
C80 O78 1.254 . S
C80 O79 1.268 . S
C81 O86 1.254 . S
C81 O87 1.268 . S
O82 Dy75 2.351 1_445 S
O82 C90 1.249 . S
O83 Dy72 2.326 . S
O83 C90 1.267 . S
O84 C73 1.185 . S
O84 Dy75 2.398 . S
O85 C73 1.355 . S
O85 Dy75 2.491 . S
O86 Dy75 2.403 1_545 S
O86 C81 1.254 . S
O87 Dy72 2.310 1_655 S
O87 Dy75 2.664 1_545 S
O87 C81 1.268 . S
O88 Dy72 2.351 1_665 S
O88 C91 1.249 . S
O89 Dy75 2.326 . S
O89 C91 1.267 . S
C90 O82 1.249 . S
C90 O83 1.267 . S
C91 O88 1.249 . S
C91 O89 1.267 . S
Dy92 O96 2.398 . S
Dy92 O97 2.491 . S
Dy92 O98 2.403 1_545 S
Dy92 O99 2.664 1_545 S
Dy92 O103 2.326 . S
Dy92 O107 2.310 1_554 S
Dy92 O108 2.351 1_544 S
C93 O104 1.185 . S
C93 O105 1.355 . S
C94 O96 1.185 . S
C94 O97 1.355 . S
Dy95 O99 2.310 1_546 S
Dy95 O102 2.351 1_556 S
Dy95 O104 2.398 1_545 S
Dy95 O105 2.491 1_545 S
Dy95 O106 2.403 . S
Dy95 O107 2.664 . S
Dy95 O109 2.326 1_545 S
O96 Dy92 2.398 . S
O96 C94 1.185 . S
O97 Dy92 2.491 . S
O97 C94 1.355 . S
O98 Dy92 2.403 1_565 S
O98 C100 1.254 . S
O99 Dy92 2.664 1_565 S
O99 Dy95 2.310 1_564 S
O99 C100 1.268 . S
C100 O98 1.254 . S
C100 O99 1.268 . S
C101 O106 1.254 . S
C101 O107 1.268 . S
O102 Dy95 2.351 1_554 S
O102 C110 1.249 . S
O103 Dy92 2.326 . S
O103 C110 1.267 . S
O104 C93 1.185 . S
O104 Dy95 2.398 1_565 S
O105 C93 1.355 . S
O105 Dy95 2.491 1_565 S
O106 Dy95 2.403 . S
O106 C101 1.254 . S
O107 Dy92 2.310 1_556 S
O107 Dy95 2.664 . S
O107 C101 1.268 . S
O108 Dy92 2.351 1_566 S
O108 C111 1.249 . S
O109 Dy95 2.326 1_565 S
O109 C111 1.267 . S
C110 O102 1.249 . S
C110 O103 1.267 . S
C111 O108 1.249 . S
C111 O109 1.267 . S
Dy112 O116 2.398 . S
Dy112 O117 2.491 . S
Dy112 O118 2.403 . S
Dy112 O119 2.664 . S
Dy112 O123 2.326 . S
Dy112 O127 2.310 . S
Dy112 O128 2.351 . S
C113 O124 1.185 . S
C113 O125 1.355 . S
C114 O116 1.185 . S
C114 O117 1.355 . S
Dy115 O119 2.310 . S
Dy115 O122 2.351 . S
Dy115 O124 2.398 . S
Dy115 O125 2.491 . S
Dy115 O126 2.403 . S
Dy115 O127 2.664 . S
Dy115 O129 2.326 . S
O116 Dy112 2.398 . S
O116 C114 1.185 . S
O117 Dy112 2.491 . S
O117 C114 1.355 . S
O118 Dy112 2.403 . S
O118 C120 1.254 . S
O119 Dy112 2.664 . S
O119 Dy115 2.310 . S
O119 C120 1.268 . S
C120 O118 1.254 . S
C120 O119 1.268 . S
C121 O126 1.254 . S
C121 O127 1.268 . S
O122 Dy115 2.351 . S
O122 C130 1.249 . S
O123 Dy112 2.326 . S
O123 C130 1.267 . S
O124 C113 1.185 . S
O124 Dy115 2.398 . S
O125 C113 1.355 . S
O125 Dy115 2.491 . S
O126 Dy115 2.403 . S
O126 C121 1.254 . S
O127 Dy112 2.310 . S
O127 Dy115 2.664 . S
O127 C121 1.268 . S
O128 Dy112 2.351 . S
O128 C131 1.249 . S
O129 Dy115 2.326 . S
O129 C131 1.267 . S
C130 O122 1.249 . S
C130 O123 1.267 . S
C131 O128 1.249 . S
C131 O129 1.267 . S
Dy132 O136 2.398 . S
Dy132 O137 2.491 . S
Dy132 O138 2.403 1_455 S
Dy132 O139 2.664 1_455 S
Dy132 O143 2.326 . S
Dy132 O147 2.310 1_554 S
Dy132 O148 2.351 1_454 S
C133 O144 1.185 . S
C133 O145 1.355 . S
C134 O136 1.185 . S
C134 O137 1.355 . S
Dy135 O139 2.310 1_556 S
Dy135 O142 2.351 1_656 S
Dy135 O144 2.398 . S
Dy135 O145 2.491 . S
Dy135 O146 2.403 1_655 S
Dy135 O147 2.664 1_655 S
Dy135 O149 2.326 . S
O136 Dy132 2.398 . S
O136 C134 1.185 . S
O137 Dy132 2.491 . S
O137 C134 1.355 . S
O138 Dy132 2.403 1_655 S
O138 C140 1.254 . S
O139 Dy132 2.664 1_655 S
O139 Dy135 2.310 1_554 S
O139 C140 1.268 . S
C140 O138 1.254 . S
C140 O139 1.268 . S
C141 O146 1.254 . S
C141 O147 1.268 . S
O142 Dy135 2.351 1_454 S
O142 C150 1.249 . S
O143 Dy132 2.326 . S
O143 C150 1.267 . S
O144 C133 1.185 . S
O144 Dy135 2.398 . S
O145 C133 1.355 . S
O145 Dy135 2.491 . S
O146 Dy135 2.403 1_455 S
O146 C141 1.254 . S
O147 Dy132 2.310 1_556 S
O147 Dy135 2.664 1_455 S
O147 C141 1.268 . S
O148 Dy132 2.351 1_656 S
O148 C151 1.249 . S
O149 Dy135 2.326 . S
O149 C151 1.267 . S
C150 O142 1.249 . S
C150 O143 1.267 . S
C151 O148 1.249 . S
C151 O149 1.267 . S
H152 C160 0.929 . S
H153 C162 0.930 . S
H154 C164 0.930 . S
H155 C167 0.929 . S
H156 C170 0.930 . S
H157 C172 0.960 . S
H158 C172 0.960 . S
H159 C172 0.960 . S
C160 H152 0.929 . S
C160 C161 1.377 . S
C160 C162 1.384 . S
C161 C160 1.377 . S
C161 C167 1.390 . S
C162 H153 0.930 . S
C162 C160 1.384 . S
C162 C163 1.372 . S
C163 C162 1.372 . S
C163 C164 1.400 . S
C163 C168 1.490 . S
C164 H154 0.930 . S
C164 C163 1.400 . S
C164 C167 1.386 . S
H165 C181 0.930 . S
H166 C182 0.931 . S
C167 H155 0.929 . S
C167 C161 1.390 . S
C167 C164 1.386 . S
C168 C163 1.490 . S
C168 C170 1.395 . S
C168 C171 1.403 . S
H169 C175 0.930 . S
C170 H156 0.930 . S
C170 C168 1.395 . S
C170 C173 1.403 . S
C171 C168 1.403 . S
C171 C172 1.524 . S
C171 C175 1.400 . S
C172 H157 0.960 . S
C172 H158 0.960 . S
C172 H159 0.960 . S
C172 C171 1.524 . S
C173 C170 1.403 . S
C173 C174 1.392 . S
C173 C177 1.495 . S
C174 C173 1.392 . S
C174 C175 1.385 . S
C174 C176 1.478 . S
C175 H169 0.930 . S
C175 C171 1.400 . S
C175 C174 1.385 . S
C176 C174 1.478 . S
C176 C178 1.381 . S
C176 C182 1.383 . S
C177 C173 1.495 . S
C177 H183 0.959 . S
C177 H184 0.961 . S
C177 H185 0.960 . S
C178 C176 1.381 . S
C178 C179 1.394 . S
C178 H186 0.930 . S
C179 C178 1.394 . S
C179 C180 1.383 . S
C179 H187 0.929 . S
C180 C179 1.383 . S
C180 C181 1.377 . S
C181 H165 0.930 . S
C181 C180 1.377 . S
C181 C182 1.379 . S
C182 H166 0.931 . S
C182 C176 1.383 . S
C182 C181 1.379 . S
H183 C177 0.959 . S
H184 C177 0.961 . S
H185 C177 0.960 . S
H186 C178 0.930 . S
H187 C179 0.929 . S
H188 C196 0.929 . S
H189 C198 0.930 . S
H190 C200 0.930 . S
H191 C203 0.929 . S
H192 C206 0.930 . S
H193 C208 0.960 . S
H194 C208 0.960 . S
H195 C208 0.960 . S
C196 H188 0.929 . S
C196 C197 1.377 . S
C196 C198 1.384 . S
C197 C196 1.377 . S
C197 C203 1.390 . S
C198 H189 0.930 . S
C198 C196 1.384 . S
C198 C199 1.372 . S
C199 C198 1.372 . S
C199 C200 1.400 . S
C199 C204 1.490 . S
C200 H190 0.930 . S
C200 C199 1.400 . S
C200 C203 1.386 . S
H201 C217 0.930 . S
H202 C218 0.931 . S
C203 H191 0.929 . S
C203 C197 1.390 . S
C203 C200 1.386 . S
C204 C199 1.490 . S
C204 C206 1.395 . S
C204 C207 1.403 . S
H205 C211 0.930 . S
C206 H192 0.930 . S
C206 C204 1.395 . S
C206 C209 1.403 . S
C207 C204 1.403 . S
C207 C208 1.524 . S
C207 C211 1.400 . S
C208 H193 0.960 . S
C208 H194 0.960 . S
C208 H195 0.960 . S
C208 C207 1.524 . S
C209 C206 1.403 . S
C209 C210 1.392 . S
C209 C213 1.495 . S
C210 C209 1.392 . S
C210 C211 1.385 . S
C210 C212 1.478 . S
C211 H205 0.930 . S
C211 C207 1.400 . S
C211 C210 1.385 . S
C212 C210 1.478 . S
C212 C214 1.381 . S
C212 C218 1.383 . S
C213 C209 1.495 . S
C213 H219 0.959 . S
C213 H220 0.961 . S
C213 H221 0.960 . S
C214 C212 1.381 . S
C214 C215 1.394 . S
C214 H222 0.930 . S
C215 C214 1.394 . S
C215 C216 1.383 . S
C215 H223 0.929 . S
C216 C215 1.383 . S
C216 C217 1.377 . S
C217 H201 0.930 . S
C217 C216 1.377 . S
C217 C218 1.379 . S
C218 H202 0.931 . S
C218 C212 1.383 . S
C218 C217 1.379 . S
H219 C213 0.959 . S
H220 C213 0.961 . S
H221 C213 0.960 . S
H222 C214 0.930 . S
H223 C215 0.929 . S
H224 C232 0.929 . S
H225 C234 0.930 . S
H226 C236 0.930 . S
H227 C239 0.929 . S
H228 C242 0.930 . S
H229 C244 0.960 . S
H230 C244 0.960 . S
H231 C244 0.960 . S
C232 H224 0.929 . S
C232 C233 1.377 . S
C232 C234 1.384 . S
C233 C232 1.377 . S
C233 C239 1.390 . S
C234 H225 0.930 . S
C234 C232 1.384 . S
C234 C235 1.372 . S
C235 C234 1.372 . S
C235 C236 1.400 . S
C235 C240 1.490 . S
C236 H226 0.930 . S
C236 C235 1.400 . S
C236 C239 1.386 . S
H237 C253 0.930 . S
H238 C254 0.931 . S
C239 H227 0.929 . S
C239 C233 1.390 . S
C239 C236 1.386 . S
C240 C235 1.490 . S
C240 C242 1.395 . S
C240 C243 1.403 . S
H241 C247 0.930 . S
C242 H228 0.930 . S
C242 C240 1.395 . S
C242 C245 1.403 . S
C243 C240 1.403 . S
C243 C244 1.524 . S
C243 C247 1.400 . S
C244 H229 0.960 . S
C244 H230 0.960 . S
C244 H231 0.960 . S
C244 C243 1.524 . S
C245 C242 1.403 . S
C245 C246 1.392 . S
C245 C249 1.495 . S
C246 C245 1.392 . S
C246 C247 1.385 . S
C246 C248 1.478 . S
C247 H241 0.930 . S
C247 C243 1.400 . S
C247 C246 1.385 . S
C248 C246 1.478 . S
C248 C250 1.381 . S
C248 C254 1.383 . S
C249 C245 1.495 . S
C249 H255 0.959 . S
C249 H256 0.961 . S
C249 H257 0.960 . S
C250 C248 1.381 . S
C250 C251 1.394 . S
C250 H258 0.930 . S
C251 C250 1.394 . S
C251 C252 1.383 . S
C251 H259 0.929 . S
C252 C251 1.383 . S
C252 C253 1.377 . S
C253 H237 0.930 . S
C253 C252 1.377 . S
C253 C254 1.379 . S
C254 H238 0.931 . S
C254 C248 1.383 . S
C254 C253 1.379 . S
H255 C249 0.959 . S
H256 C249 0.961 . S
H257 C249 0.960 . S
H258 C250 0.930 . S
H259 C251 0.929 . S
H260 C268 0.929 . S
H261 C270 0.930 . S
H262 C272 0.930 . S
H263 C275 0.929 . S
H264 C278 0.930 . S
H265 C280 0.960 . S
H266 C280 0.960 . S
H267 C280 0.960 . S
C268 H260 0.929 . S
C268 C269 1.377 . S
C268 C270 1.384 . S
C269 C268 1.377 . S
C269 C275 1.390 . S
C270 H261 0.930 . S
C270 C268 1.384 . S
C270 C271 1.372 . S
C271 C270 1.372 . S
C271 C272 1.400 . S
C271 C276 1.490 . S
C272 H262 0.930 . S
C272 C271 1.400 . S
C272 C275 1.386 . S
H273 C289 0.930 . S
H274 C290 0.931 . S
C275 H263 0.929 . S
C275 C269 1.390 . S
C275 C272 1.386 . S
C276 C271 1.490 . S
C276 C278 1.395 . S
C276 C279 1.403 . S
H277 C283 0.930 . S
C278 H264 0.930 . S
C278 C276 1.395 . S
C278 C281 1.403 . S
C279 C276 1.403 . S
C279 C280 1.524 . S
C279 C283 1.400 . S
C280 H265 0.960 . S
C280 H266 0.960 . S
C280 H267 0.960 . S
C280 C279 1.524 . S
C281 C278 1.403 . S
C281 C282 1.392 . S
C281 C285 1.495 . S
C282 C281 1.392 . S
C282 C283 1.385 . S
C282 C284 1.478 . S
C283 H277 0.930 . S
C283 C279 1.400 . S
C283 C282 1.385 . S
C284 C282 1.478 . S
C284 C286 1.381 . S
C284 C290 1.383 . S
C285 C281 1.495 . S
C285 H291 0.959 . S
C285 H292 0.961 . S
C285 H293 0.960 . S
C286 C284 1.381 . S
C286 C287 1.394 . S
C286 H294 0.930 . S
C287 C286 1.394 . S
C287 C288 1.383 . S
C287 H295 0.929 . S
C288 C287 1.383 . S
C288 C289 1.377 . S
C289 H273 0.930 . S
C289 C288 1.377 . S
C289 C290 1.379 . S
C290 H274 0.931 . S
C290 C284 1.383 . S
C290 C289 1.379 . S
H291 C285 0.959 . S
H292 C285 0.961 . S
H293 C285 0.960 . S
H294 C286 0.930 . S
H295 C287 0.929 . S
H296 C304 0.929 . S
H297 C306 0.930 . S
H298 C308 0.930 . S
H299 C311 0.929 . S
H300 C314 0.930 . S
H301 C316 0.960 . S
H302 C316 0.960 . S
H303 C316 0.960 . S
C304 H296 0.929 . S
C304 C305 1.377 . S
C304 C306 1.384 . S
C305 C304 1.377 . S
C305 C311 1.390 . S
C306 H297 0.930 . S
C306 C304 1.384 . S
C306 C307 1.372 . S
C307 C306 1.372 . S
C307 C308 1.400 . S
C307 C312 1.490 . S
C308 H298 0.930 . S
C308 C307 1.400 . S
C308 C311 1.386 . S
H309 C325 0.930 . S
H310 C326 0.931 . S
C311 H299 0.929 . S
C311 C305 1.390 . S
C311 C308 1.386 . S
C312 C307 1.490 . S
C312 C314 1.395 . S
C312 C315 1.403 . S
H313 C319 0.930 . S
C314 H300 0.930 . S
C314 C312 1.395 . S
C314 C317 1.403 . S
C315 C312 1.403 . S
C315 C316 1.524 . S
C315 C319 1.400 . S
C316 H301 0.960 . S
C316 H302 0.960 . S
C316 H303 0.960 . S
C316 C315 1.524 . S
C317 C314 1.403 . S
C317 C318 1.392 . S
C317 C321 1.495 . S
C318 C317 1.392 . S
C318 C319 1.385 . S
C318 C320 1.478 . S
C319 H313 0.930 . S
C319 C315 1.400 . S
C319 C318 1.385 . S
C320 C318 1.478 . S
C320 C322 1.381 . S
C320 C326 1.383 . S
C321 C317 1.495 . S
C321 H327 0.959 . S
C321 H328 0.961 . S
C321 H329 0.960 . S
C322 C320 1.381 . S
C322 C323 1.394 . S
C322 H330 0.930 . S
C323 C322 1.394 . S
C323 C324 1.383 . S
C323 H331 0.929 . S
C324 C323 1.383 . S
C324 C325 1.377 . S
C325 H309 0.930 . S
C325 C324 1.377 . S
C325 C326 1.379 . S
C326 H310 0.931 . S
C326 C320 1.383 . S
C326 C325 1.379 . S
H327 C321 0.959 . S
H328 C321 0.961 . S
H329 C321 0.960 . S
H330 C322 0.930 . S
H331 C323 0.929 . S
H332 C340 0.929 . S
H333 C342 0.930 . S
H334 C344 0.930 . S
H335 C347 0.929 . S
H336 C350 0.930 . S
H337 C352 0.960 . S
H338 C352 0.960 . S
H339 C352 0.960 . S
C340 H332 0.929 . S
C340 C341 1.377 . S
C340 C342 1.384 . S
C341 C340 1.377 . S
C341 C347 1.390 . S
C342 H333 0.930 . S
C342 C340 1.384 . S
C342 C343 1.372 . S
C343 C342 1.372 . S
C343 C344 1.400 . S
C343 C348 1.490 . S
C344 H334 0.930 . S
C344 C343 1.400 . S
C344 C347 1.386 . S
H345 C361 0.930 1_545 S
H346 C362 0.931 . S
C347 H335 0.929 . S
C347 C341 1.390 . S
C347 C344 1.386 . S
C348 C343 1.490 . S
C348 C350 1.395 . S
C348 C351 1.403 . S
H349 C355 0.930 . S
C350 H336 0.930 . S
C350 C348 1.395 . S
C350 C353 1.403 . S
C351 C348 1.403 . S
C351 C352 1.524 . S
C351 C355 1.400 . S
C352 H337 0.960 . S
C352 H338 0.960 . S
C352 H339 0.960 . S
C352 C351 1.524 . S
C353 C350 1.403 . S
C353 C354 1.392 . S
C353 C357 1.495 . S
C354 C353 1.392 . S
C354 C355 1.385 . S
C354 C356 1.478 . S
C355 H349 0.930 . S
C355 C351 1.400 . S
C355 C354 1.385 . S
C356 C354 1.478 . S
C356 C358 1.381 . S
C356 C362 1.383 . S
C357 C353 1.495 . S
C357 H363 0.959 . S
C357 H364 0.961 . S
C357 H365 0.960 . S
C358 C356 1.381 . S
C358 C359 1.394 . S
C358 H366 0.930 . S
C359 C358 1.394 . S
C359 C360 1.383 . S
C359 H367 0.929 . S
C360 C359 1.383 . S
C360 C361 1.377 . S
C361 H345 0.930 1_565 S
C361 C360 1.377 . S
C361 C362 1.379 . S
C362 H346 0.931 . S
C362 C356 1.383 . S
C362 C361 1.379 . S
H363 C357 0.959 . S
H364 C357 0.961 . S
H365 C357 0.960 . S
H366 C358 0.930 . S
H367 C359 0.929 . S
H368 C376 0.929 . S
H369 C378 0.930 . S
H370 C380 0.930 . S
H371 C383 0.929 . S
H372 C386 0.930 . S
H373 C388 0.960 . S
H374 C388 0.960 . S
H375 C388 0.960 . S
C376 H368 0.929 . S
C376 C377 1.377 . S
C376 C378 1.384 . S
C377 C376 1.377 . S
C377 C383 1.390 . S
C378 H369 0.930 . S
C378 C376 1.384 . S
C378 C379 1.372 . S
C379 C378 1.372 . S
C379 C380 1.400 . S
C379 C384 1.490 . S
C380 H370 0.930 . S
C380 C379 1.400 . S
C380 C383 1.386 . S
H381 C397 0.930 . S
H382 C398 0.931 . S
C383 H371 0.929 . S
C383 C377 1.390 . S
C383 C380 1.386 . S
C384 C379 1.490 . S
C384 C386 1.395 . S
C384 C387 1.403 . S
H385 C391 0.930 . S
C386 H372 0.930 . S
C386 C384 1.395 . S
C386 C389 1.403 . S
C387 C384 1.403 . S
C387 C388 1.524 . S
C387 C391 1.400 . S
C388 H373 0.960 . S
C388 H374 0.960 . S
C388 H375 0.960 . S
C388 C387 1.524 . S
C389 C386 1.403 . S
C389 C390 1.392 . S
C389 C393 1.495 . S
C390 C389 1.392 . S
C390 C391 1.385 . S
C390 C392 1.478 . S
C391 H385 0.930 . S
C391 C387 1.400 . S
C391 C390 1.385 . S
C392 C390 1.478 . S
C392 C394 1.381 . S
C392 C398 1.383 . S
C393 C389 1.495 . S
C393 H399 0.959 . S
C393 H400 0.961 . S
C393 H401 0.960 . S
C394 C392 1.381 . S
C394 C395 1.394 . S
C394 H402 0.930 . S
C395 C394 1.394 . S
C395 C396 1.383 . S
C395 H403 0.929 . S
C396 C395 1.383 . S
C396 C397 1.377 . S
C397 H381 0.930 . S
C397 C396 1.377 . S
C397 C398 1.379 . S
C398 H382 0.931 . S
C398 C392 1.383 . S
C398 C397 1.379 . S
H399 C393 0.959 . S
H400 C393 0.961 . S
H401 C393 0.960 . S
H402 C394 0.930 . S
H403 C395 0.929 . S
H404 C412 0.929 . S
H405 C414 0.930 . S
H406 C416 0.930 . S
H407 C419 0.929 . S
H408 C422 0.930 . S
H409 C424 0.960 . S
H410 C424 0.960 . S
H411 C424 0.960 . S
C412 H404 0.929 . S
C412 C413 1.377 . S
C412 C414 1.384 . S
C413 C412 1.377 . S
C413 C419 1.390 . S
C414 H405 0.930 . S
C414 C412 1.384 . S
C414 C415 1.372 . S
C415 C414 1.372 . S
C415 C416 1.400 . S
C415 C420 1.490 . S
C416 H406 0.930 . S
C416 C415 1.400 . S
C416 C419 1.386 . S
H417 C433 0.930 . S
H418 C434 0.931 . S
C419 H407 0.929 . S
C419 C413 1.390 . S
C419 C416 1.386 . S
C420 C415 1.490 . S
C420 C422 1.395 . S
C420 C423 1.403 . S
H421 C427 0.930 . S
C422 H408 0.930 . S
C422 C420 1.395 . S
C422 C425 1.403 . S
C423 C420 1.403 . S
C423 C424 1.524 . S
C423 C427 1.400 . S
C424 H409 0.960 . S
C424 H410 0.960 . S
C424 H411 0.960 . S
C424 C423 1.524 . S
C425 C422 1.403 . S
C425 C426 1.392 . S
C425 C429 1.495 . S
C426 C425 1.392 . S
C426 C427 1.385 . S
C426 C428 1.478 . S
C427 H421 0.930 . S
C427 C423 1.400 . S
C427 C426 1.385 . S
C428 C426 1.478 . S
C428 C430 1.381 . S
C428 C434 1.383 . S
C429 C425 1.495 . S
C429 H435 0.959 . S
C429 H436 0.961 . S
C429 H437 0.960 . S
C430 C428 1.381 . S
C430 C431 1.394 . S
C430 H438 0.930 . S
C431 C430 1.394 . S
C431 C432 1.383 . S
C431 H439 0.929 . S
C432 C431 1.383 . S
C432 C433 1.377 . S
C433 H417 0.930 . S
C433 C432 1.377 . S
C433 C434 1.379 . S
C434 H418 0.931 . S
C434 C428 1.383 . S
C434 C433 1.379 . S
H435 C429 0.959 . S
H436 C429 0.961 . S
H437 C429 0.960 . S
H438 C430 0.930 . S
H439 C431 0.929 . S
H440 C448 0.929 . S
H441 C450 0.930 . S
H442 C452 0.930 . S
H443 C455 0.929 . S
H444 C458 0.930 . S
H445 C460 0.960 . S
H446 C460 0.960 . S
H447 C460 0.960 . S
C448 H440 0.929 . S
C448 C449 1.377 . S
C448 C450 1.384 . S
C449 C448 1.377 . S
C449 C455 1.390 . S
C450 H441 0.930 . S
C450 C448 1.384 . S
C450 C451 1.372 . S
C451 C450 1.372 . S
C451 C452 1.400 . S
C451 C456 1.490 . S
C452 H442 0.930 . S
C452 C451 1.400 . S
C452 C455 1.386 . S
H453 C469 0.930 . S
H454 C470 0.931 . S
C455 H443 0.929 . S
C455 C449 1.390 . S
C455 C452 1.386 . S
C456 C451 1.490 . S
C456 C458 1.395 . S
C456 C459 1.403 . S
H457 C463 0.930 . S
C458 H444 0.930 . S
C458 C456 1.395 . S
C458 C461 1.403 . S
C459 C456 1.403 . S
C459 C460 1.524 . S
C459 C463 1.400 . S
C460 H445 0.960 . S
C460 H446 0.960 . S
C460 H447 0.960 . S
C460 C459 1.524 . S
C461 C458 1.403 . S
C461 C462 1.392 . S
C461 C465 1.495 . S
C462 C461 1.392 . S
C462 C463 1.385 . S
C462 C464 1.478 . S
C463 H457 0.930 . S
C463 C459 1.400 . S
C463 C462 1.385 . S
C464 C462 1.478 . S
C464 C466 1.381 . S
C464 C470 1.383 . S
C465 C461 1.495 . S
C465 H471 0.959 . S
C465 H472 0.961 . S
C465 H473 0.960 . S
C466 C464 1.381 . S
C466 C467 1.394 . S
C466 H474 0.930 . S
C467 C466 1.394 . S
C467 C468 1.383 . S
C467 H475 0.929 . S
C468 C467 1.383 . S
C468 C469 1.377 . S
C469 H453 0.930 . S
C469 C468 1.377 . S
C469 C470 1.379 . S
C470 H454 0.931 . S
C470 C464 1.383 . S
C470 C469 1.379 . S
H471 C465 0.959 . S
H472 C465 0.961 . S
H473 C465 0.960 . S
H474 C466 0.930 . S
H475 C467 0.929 . S
H476 C484 0.929 . S
H477 C486 0.930 . S
H478 C488 0.930 . S
H479 C491 0.929 . S
H480 C494 0.930 . S
H481 C496 0.960 . S
H482 C496 0.960 . S
H483 C496 0.960 . S
C484 H476 0.929 . S
C484 C485 1.377 . S
C484 C486 1.384 . S
C485 C484 1.377 . S
C485 C491 1.390 . S
C486 H477 0.930 . S
C486 C484 1.384 . S
C486 C487 1.372 . S
C487 C486 1.372 . S
C487 C488 1.400 . S
C487 C492 1.490 . S
C488 H478 0.930 . S
C488 C487 1.400 . S
C488 C491 1.386 . S
H489 C505 0.930 1_554 S
H490 C506 0.931 . S
C491 H479 0.929 . S
C491 C485 1.390 . S
C491 C488 1.386 . S
C492 C487 1.490 . S
C492 C494 1.395 . S
C492 C495 1.403 . S
H493 C499 0.930 . S
C494 H480 0.930 . S
C494 C492 1.395 . S
C494 C497 1.403 . S
C495 C492 1.403 . S
C495 C496 1.524 . S
C495 C499 1.400 . S
C496 H481 0.960 . S
C496 H482 0.960 . S
C496 H483 0.960 . S
C496 C495 1.524 . S
C497 C494 1.403 . S
C497 C498 1.392 . S
C497 C501 1.495 . S
C498 C497 1.392 . S
C498 C499 1.385 . S
C498 C500 1.478 . S
C499 H493 0.930 . S
C499 C495 1.400 . S
C499 C498 1.385 . S
C500 C498 1.478 . S
C500 C502 1.381 . S
C500 C506 1.383 . S
C501 C497 1.495 . S
C501 H507 0.959 . S
C501 H508 0.961 . S
C501 H509 0.960 . S
C502 C500 1.381 . S
C502 C503 1.394 . S
C502 H510 0.930 . S
C503 C502 1.394 . S
C503 C504 1.383 . S
C503 H511 0.929 . S
C504 C503 1.383 . S
C504 C505 1.377 . S
C505 H489 0.930 1_556 S
C505 C504 1.377 . S
C505 C506 1.379 . S
C506 H490 0.931 . S
C506 C500 1.383 . S
C506 C505 1.379 . S
H507 C501 0.959 . S
H508 C501 0.961 . S
H509 C501 0.960 . S
H510 C502 0.930 . S
H511 C503 0.929 . S
H512 C520 0.929 . S
H513 C522 0.930 . S
H514 C524 0.930 . S
H515 C527 0.929 . S
H516 C530 0.930 . S
H517 C532 0.960 . S
H518 C532 0.960 . S
H519 C532 0.960 . S
C520 H512 0.929 . S
C520 C521 1.377 . S
C520 C522 1.384 . S
C521 C520 1.377 . S
C521 C527 1.390 . S
C522 H513 0.930 . S
C522 C520 1.384 . S
C522 C523 1.372 . S
C523 C522 1.372 . S
C523 C524 1.400 . S
C523 C528 1.490 . S
C524 H514 0.930 . S
C524 C523 1.400 . S
C524 C527 1.386 . S
H525 C541 0.930 . S
H526 C542 0.931 . S
C527 H515 0.929 . S
C527 C521 1.390 . S
C527 C524 1.386 . S
C528 C523 1.490 . S
C528 C530 1.395 . S
C528 C531 1.403 . S
H529 C535 0.930 . S
C530 H516 0.930 . S
C530 C528 1.395 . S
C530 C533 1.403 . S
C531 C528 1.403 . S
C531 C532 1.524 . S
C531 C535 1.400 . S
C532 H517 0.960 . S
C532 H518 0.960 . S
C532 H519 0.960 . S
C532 C531 1.524 . S
C533 C530 1.403 . S
C533 C534 1.392 . S
C533 C537 1.495 . S
C534 C533 1.392 . S
C534 C535 1.385 . S
C534 C536 1.478 . S
C535 H529 0.930 . S
C535 C531 1.400 . S
C535 C534 1.385 . S
C536 C534 1.478 . S
C536 C538 1.381 . S
C536 C542 1.383 . S
C537 C533 1.495 . S
C537 H543 0.959 . S
C537 H544 0.961 . S
C537 H545 0.960 . S
C538 C536 1.381 . S
C538 C539 1.394 . S
C538 H546 0.930 . S
C539 C538 1.394 . S
C539 C540 1.383 . S
C539 H547 0.929 . S
C540 C539 1.383 . S
C540 C541 1.377 . S
C541 H525 0.930 . S
C541 C540 1.377 . S
C541 C542 1.379 . S
C542 H526 0.931 . S
C542 C536 1.383 . S
C542 C541 1.379 . S
H543 C537 0.959 . S
H544 C537 0.961 . S
H545 C537 0.960 . S
H546 C538 0.930 . S
H547 C539 0.929 . S
H548 C556 0.929 . S
H549 C558 0.930 . S
H550 C560 0.930 . S
H551 C563 0.929 . S
H552 C566 0.930 . S
H553 C568 0.960 . S
H554 C568 0.960 . S
H555 C568 0.960 . S
C556 H548 0.929 . S
C556 C557 1.377 . S
C556 C558 1.384 . S
C557 C556 1.377 . S
C557 C563 1.390 . S
C558 H549 0.930 . S
C558 C556 1.384 . S
C558 C559 1.372 . S
C559 C558 1.372 . S
C559 C560 1.400 . S
C559 C564 1.490 . S
C560 H550 0.930 . S
C560 C559 1.400 . S
C560 C563 1.386 . S
H561 C577 0.930 . S
H562 C578 0.931 . S
C563 H551 0.929 . S
C563 C557 1.390 . S
C563 C560 1.386 . S
C564 C559 1.490 . S
C564 C566 1.395 . S
C564 C567 1.403 . S
H565 C571 0.930 . S
C566 H552 0.930 . S
C566 C564 1.395 . S
C566 C569 1.403 . S
C567 C564 1.403 . S
C567 C568 1.524 . S
C567 C571 1.400 . S
C568 H553 0.960 . S
C568 H554 0.960 . S
C568 H555 0.960 . S
C568 C567 1.524 . S
C569 C566 1.403 . S
C569 C570 1.392 . S
C569 C573 1.495 . S
C570 C569 1.392 . S
C570 C571 1.385 . S
C570 C572 1.478 . S
C571 H565 0.930 . S
C571 C567 1.400 . S
C571 C570 1.385 . S
C572 C570 1.478 . S
C572 C574 1.381 . S
C572 C578 1.383 . S
C573 C569 1.495 . S
C573 H579 0.959 . S
C573 H580 0.961 . S
C573 H581 0.960 . S
C574 C572 1.381 . S
C574 C575 1.394 . S
C574 H582 0.930 . S
C575 C574 1.394 . S
C575 C576 1.383 . S
C575 H583 0.929 . S
C576 C575 1.383 . S
C576 C577 1.377 . S
C577 H561 0.930 . S
C577 C576 1.377 . S
C577 C578 1.379 . S
C578 H562 0.931 . S
C578 C572 1.383 . S
C578 C577 1.379 . S
H579 C573 0.959 . S
H580 C573 0.961 . S
H581 C573 0.960 . S
H582 C574 0.930 . S
H583 C575 0.929 . S
H584 C592 0.929 . S
H585 C594 0.930 . S
H586 C596 0.930 . S
H587 C599 0.929 . S
H588 C602 0.930 . S
H589 C604 0.960 . S
H590 C604 0.960 . S
H591 C604 0.960 . S
C592 H584 0.929 . S
C592 C593 1.377 . S
C592 C594 1.384 . S
C593 C592 1.377 . S
C593 C599 1.390 . S
C594 H585 0.930 . S
C594 C592 1.384 . S
C594 C595 1.372 . S
C595 C594 1.372 . S
C595 C596 1.400 . S
C595 C600 1.490 . S
C596 H586 0.930 . S
C596 C595 1.400 . S
C596 C599 1.386 . S
H597 C613 0.930 . S
H598 C614 0.931 . S
C599 H587 0.929 . S
C599 C593 1.390 . S
C599 C596 1.386 . S
C600 C595 1.490 . S
C600 C602 1.395 . S
C600 C603 1.403 . S
H601 C607 0.930 . S
C602 H588 0.930 . S
C602 C600 1.395 . S
C602 C605 1.403 . S
C603 C600 1.403 . S
C603 C604 1.524 . S
C603 C607 1.400 . S
C604 H589 0.960 . S
C604 H590 0.960 . S
C604 H591 0.960 . S
C604 C603 1.524 . S
C605 C602 1.403 . S
C605 C606 1.392 . S
C605 C609 1.495 . S
C606 C605 1.392 . S
C606 C607 1.385 . S
C606 C608 1.478 . S
C607 H601 0.930 . S
C607 C603 1.400 . S
C607 C606 1.385 . S
C608 C606 1.478 . S
C608 C610 1.381 . S
C608 C614 1.383 . S
C609 C605 1.495 . S
C609 H615 0.959 . S
C609 H616 0.961 . S
C609 H617 0.960 . S
C610 C608 1.381 . S
C610 C611 1.394 . S
C610 H618 0.930 . S
C611 C610 1.394 . S
C611 C612 1.383 . S
C611 H619 0.929 . S
C612 C611 1.383 . S
C612 C613 1.377 . S
C613 H597 0.930 . S
C613 C612 1.377 . S
C613 C614 1.379 . S
C614 H598 0.931 . S
C614 C608 1.383 . S
C614 C613 1.379 . S
H615 C609 0.959 . S
H616 C609 0.961 . S
H617 C609 0.960 . S
H618 C610 0.930 . S
H619 C611 0.929 . S
H620 C628 0.929 . S
H621 C630 0.930 . S
H622 C632 0.930 . S
H623 C635 0.929 . S
H624 C638 0.930 . S
H625 C640 0.960 . S
H626 C640 0.960 . S
H627 C640 0.960 . S
C628 H620 0.929 . S
C628 C629 1.377 . S
C628 C630 1.384 . S
C629 C628 1.377 . S
C629 C635 1.390 . S
C630 H621 0.930 . S
C630 C628 1.384 . S
C630 C631 1.372 . S
C631 C630 1.372 . S
C631 C632 1.400 . S
C631 C636 1.490 . S
C632 H622 0.930 . S
C632 C631 1.400 . S
C632 C635 1.386 . S
H633 C649 0.930 . S
H634 C650 0.931 . S
C635 H623 0.929 . S
C635 C629 1.390 . S
C635 C632 1.386 . S
C636 C631 1.490 . S
C636 C638 1.395 . S
C636 C639 1.403 . S
H637 C643 0.930 . S
C638 H624 0.930 . S
C638 C636 1.395 . S
C638 C641 1.403 . S
C639 C636 1.403 . S
C639 C640 1.524 . S
C639 C643 1.400 . S
C640 H625 0.960 . S
C640 H626 0.960 . S
C640 H627 0.960 . S
C640 C639 1.524 . S
C641 C638 1.403 . S
C641 C642 1.392 . S
C641 C645 1.495 . S
C642 C641 1.392 . S
C642 C643 1.385 . S
C642 C644 1.478 . S
C643 H637 0.930 . S
C643 C639 1.400 . S
C643 C642 1.385 . S
C644 C642 1.478 . S
C644 C646 1.381 . S
C644 C650 1.383 . S
C645 C641 1.495 . S
C645 H651 0.959 . S
C645 H652 0.961 . S
C645 H653 0.960 . S
C646 C644 1.381 . S
C646 C647 1.394 . S
C646 H654 0.930 . S
C647 C646 1.394 . S
C647 C648 1.383 . S
C647 H655 0.929 . S
C648 C647 1.383 . S
C648 C649 1.377 . S
C649 H633 0.930 . S
C649 C648 1.377 . S
C649 C650 1.379 . S
C650 H634 0.931 . S
C650 C644 1.383 . S
C650 C649 1.379 . S
H651 C645 0.959 . S
H652 C645 0.961 . S
H653 C645 0.960 . S
H654 C646 0.930 . S
H655 C647 0.929 . S
H656 C664 0.929 . S
H657 C666 0.930 . S
H658 C668 0.930 . S
H659 C671 0.929 . S
H660 C674 0.930 . S
H661 C676 0.960 . S
H662 C676 0.960 . S
H663 C676 0.960 . S
C664 H656 0.929 . S
C664 C665 1.377 . S
C664 C666 1.384 . S
C665 C664 1.377 . S
C665 C671 1.390 . S
C666 H657 0.930 . S
C666 C664 1.384 . S
C666 C667 1.372 . S
C667 C666 1.372 . S
C667 C668 1.400 . S
C667 C672 1.490 . S
C668 H658 0.930 . S
C668 C667 1.400 . S
C668 C671 1.386 . S
H669 C685 0.930 . S
H670 C686 0.931 . S
C671 H659 0.929 . S
C671 C665 1.390 . S
C671 C668 1.386 . S
C672 C667 1.490 . S
C672 C674 1.395 . S
C672 C675 1.403 . S
H673 C679 0.930 . S
C674 H660 0.930 . S
C674 C672 1.395 . S
C674 C677 1.403 . S
C675 C672 1.403 . S
C675 C676 1.524 . S
C675 C679 1.400 . S
C676 H661 0.960 . S
C676 H662 0.960 . S
C676 H663 0.960 . S
C676 C675 1.524 . S
C677 C674 1.403 . S
C677 C678 1.392 . S
C677 C681 1.495 . S
C678 C677 1.392 . S
C678 C679 1.385 . S
C678 C680 1.478 . S
C679 H673 0.930 . S
C679 C675 1.400 . S
C679 C678 1.385 . S
C680 C678 1.478 . S
C680 C682 1.381 . S
C680 C686 1.383 . S
C681 C677 1.495 . S
C681 H687 0.959 . S
C681 H688 0.961 . S
C681 H689 0.960 . S
C682 C680 1.381 . S
C682 C683 1.394 . S
C682 H690 0.930 . S
C683 C682 1.394 . S
C683 C684 1.383 . S
C683 H691 0.929 . S
C684 C683 1.383 . S
C684 C685 1.377 . S
C685 H669 0.930 . S
C685 C684 1.377 . S
C685 C686 1.379 . S
C686 H670 0.931 . S
C686 C680 1.383 . S
C686 C685 1.379 . S
H687 C681 0.959 . S
H688 C681 0.961 . S
H689 C681 0.960 . S
H690 C682 0.930 . S
H691 C683 0.929 . S
H692 C700 0.929 . S
H693 C702 0.930 . S
H694 C704 0.930 . S
H695 C707 0.929 . S
H696 C710 0.930 . S
H697 C712 0.960 . S
H698 C712 0.960 . S
H699 C712 0.960 . S
C700 H692 0.929 . S
C700 C701 1.377 . S
C700 C702 1.384 . S
C701 C700 1.377 . S
C701 C707 1.390 . S
C702 H693 0.930 . S
C702 C700 1.384 . S
C702 C703 1.372 . S
C703 C702 1.372 . S
C703 C704 1.400 . S
C703 C708 1.490 . S
C704 H694 0.930 . S
C704 C703 1.400 . S
C704 C707 1.386 . S
H705 C721 0.930 . S
H706 C722 0.931 . S
C707 H695 0.929 . S
C707 C701 1.390 . S
C707 C704 1.386 . S
C708 C703 1.490 . S
C708 C710 1.395 . S
C708 C711 1.403 . S
H709 C715 0.930 . S
C710 H696 0.930 . S
C710 C708 1.395 . S
C710 C713 1.403 . S
C711 C708 1.403 . S
C711 C712 1.524 . S
C711 C715 1.400 . S
C712 H697 0.960 . S
C712 H698 0.960 . S
C712 H699 0.960 . S
C712 C711 1.524 . S
C713 C710 1.403 . S
C713 C714 1.392 . S
C713 C717 1.495 . S
C714 C713 1.392 . S
C714 C715 1.385 . S
C714 C716 1.478 . S
C715 H709 0.930 . S
C715 C711 1.400 . S
C715 C714 1.385 . S
C716 C714 1.478 . S
C716 C718 1.381 . S
C716 C722 1.383 . S
C717 C713 1.495 . S
C717 H723 0.959 . S
C717 H724 0.961 . S
C717 H725 0.960 . S
C718 C716 1.381 . S
C718 C719 1.394 . S
C718 H726 0.930 . S
C719 C718 1.394 . S
C719 C720 1.383 . S
C719 H727 0.929 . S
C720 C719 1.383 . S
C720 C721 1.377 . S
C721 H705 0.930 . S
C721 C720 1.377 . S
C721 C722 1.379 . S
C722 H706 0.931 . S
C722 C716 1.383 . S
C722 C721 1.379 . S
H723 C717 0.959 . S
H724 C717 0.961 . S
H725 C717 0.960 . S
H726 C718 0.930 . S
H727 C719 0.929 . S
H728 C736 0.929 . S
H729 C738 0.930 . S
H730 C740 0.930 . S
H731 C743 0.929 . S
H732 C746 0.930 . S
H733 C748 0.960 . S
H734 C748 0.960 . S
H735 C748 0.960 . S
C736 H728 0.929 . S
C736 C737 1.377 . S
C736 C738 1.384 . S
C737 C736 1.377 . S
C737 C743 1.390 . S
C738 H729 0.930 . S
C738 C736 1.384 . S
C738 C739 1.372 . S
C739 C738 1.372 . S
C739 C740 1.400 . S
C739 C744 1.490 . S
C740 H730 0.930 . S
C740 C739 1.400 . S
C740 C743 1.386 . S
H741 C757 0.930 . S
H742 C758 0.931 . S
C743 H731 0.929 . S
C743 C737 1.390 . S
C743 C740 1.386 . S
C744 C739 1.490 . S
C744 C746 1.395 . S
C744 C747 1.403 . S
H745 C751 0.930 . S
C746 H732 0.930 . S
C746 C744 1.395 . S
C746 C749 1.403 . S
C747 C744 1.403 . S
C747 C748 1.524 . S
C747 C751 1.400 . S
C748 H733 0.960 . S
C748 H734 0.960 . S
C748 H735 0.960 . S
C748 C747 1.524 . S
C749 C746 1.403 . S
C749 C750 1.392 . S
C749 C753 1.495 . S
C750 C749 1.392 . S
C750 C751 1.385 . S
C750 C752 1.478 . S
C751 H745 0.930 . S
C751 C747 1.400 . S
C751 C750 1.385 . S
C752 C750 1.478 . S
C752 C754 1.381 . S
C752 C758 1.383 . S
C753 C749 1.495 . S
C753 H759 0.959 . S
C753 H760 0.961 . S
C753 H761 0.960 . S
C754 C752 1.381 . S
C754 C755 1.394 . S
C754 H762 0.930 . S
C755 C754 1.394 . S
C755 C756 1.383 . S
C755 H763 0.929 . S
C756 C755 1.383 . S
C756 C757 1.377 . S
C757 H741 0.930 . S
C757 C756 1.377 . S
C757 C758 1.379 . S
C758 H742 0.931 . S
C758 C752 1.383 . S
C758 C757 1.379 . S
H759 C753 0.959 . S
H760 C753 0.961 . S
H761 C753 0.960 . S
H762 C754 0.930 . S
H763 C755 0.929 . S
H764 C772 0.929 . S
H765 C774 0.930 . S
H766 C776 0.930 . S
H767 C779 0.929 . S
H768 C782 0.930 . S
H769 C784 0.960 . S
H770 C784 0.960 . S
H771 C784 0.960 . S
C772 H764 0.929 . S
C772 C773 1.377 . S
C772 C774 1.384 . S
C773 C772 1.377 . S
C773 C779 1.390 . S
C774 H765 0.930 . S
C774 C772 1.384 . S
C774 C775 1.372 . S
C775 C774 1.372 . S
C775 C776 1.400 . S
C775 C780 1.490 . S
C776 H766 0.930 . S
C776 C775 1.400 . S
C776 C779 1.386 . S
H777 C793 0.930 . S
H778 C794 0.931 . S
C779 H767 0.929 . S
C779 C773 1.390 . S
C779 C776 1.386 . S
C780 C775 1.490 . S
C780 C782 1.395 . S
C780 C783 1.403 . S
H781 C787 0.930 . S
C782 H768 0.930 . S
C782 C780 1.395 . S
C782 C785 1.403 . S
C783 C780 1.403 . S
C783 C784 1.524 . S
C783 C787 1.400 . S
C784 H769 0.960 . S
C784 H770 0.960 . S
C784 H771 0.960 . S
C784 C783 1.524 . S
C785 C782 1.403 . S
C785 C786 1.392 . S
C785 C789 1.495 . S
C786 C785 1.392 . S
C786 C787 1.385 . S
C786 C788 1.478 . S
C787 H781 0.930 . S
C787 C783 1.400 . S
C787 C786 1.385 . S
C788 C786 1.478 . S
C788 C790 1.381 . S
C788 C794 1.383 . S
C789 C785 1.495 . S
C789 H795 0.959 . S
C789 H796 0.961 . S
C789 H797 0.960 . S
C790 C788 1.381 . S
C790 C791 1.394 . S
C790 H798 0.930 . S
C791 C790 1.394 . S
C791 C792 1.383 . S
C791 H799 0.929 . S
C792 C791 1.383 . S
C792 C793 1.377 . S
C793 H777 0.930 . S
C793 C792 1.377 . S
C793 C794 1.379 . S
C794 H778 0.931 . S
C794 C788 1.383 . S
C794 C793 1.379 . S
H795 C789 0.959 . S
H796 C789 0.961 . S
H797 C789 0.960 . S
H798 C790 0.930 . S
H799 C791 0.929 . S
H800 C808 0.929 . S
H801 C810 0.930 . S
H802 C812 0.930 . S
H803 C815 0.929 . S
H804 C818 0.930 . S
H805 C820 0.960 . S
H806 C820 0.960 . S
H807 C820 0.960 . S
C808 H800 0.929 . S
C808 C809 1.377 . S
C808 C810 1.384 . S
C809 C808 1.377 . S
C809 C815 1.390 . S
C810 H801 0.930 . S
C810 C808 1.384 . S
C810 C811 1.372 . S
C811 C810 1.372 . S
C811 C812 1.400 . S
C811 C816 1.490 . S
C812 H802 0.930 . S
C812 C811 1.400 . S
C812 C815 1.386 . S
H813 C829 0.930 . S
H814 C830 0.931 . S
C815 H803 0.929 . S
C815 C809 1.390 . S
C815 C812 1.386 . S
C816 C811 1.490 . S
C816 C818 1.395 . S
C816 C819 1.403 . S
H817 C823 0.930 . S
C818 H804 0.930 . S
C818 C816 1.395 . S
C818 C821 1.403 . S
C819 C816 1.403 . S
C819 C820 1.524 . S
C819 C823 1.400 . S
C820 H805 0.960 . S
C820 H806 0.960 . S
C820 H807 0.960 . S
C820 C819 1.524 . S
C821 C818 1.403 . S
C821 C822 1.392 . S
C821 C825 1.495 . S
C822 C821 1.392 . S
C822 C823 1.385 . S
C822 C824 1.478 . S
C823 H817 0.930 . S
C823 C819 1.400 . S
C823 C822 1.385 . S
C824 C822 1.478 . S
C824 C826 1.381 . S
C824 C830 1.383 . S
C825 C821 1.495 . S
C825 H831 0.959 . S
C825 H832 0.961 . S
C825 H833 0.960 . S
C826 C824 1.381 . S
C826 C827 1.394 . S
C826 H834 0.930 . S
C827 C826 1.394 . S
C827 C828 1.383 . S
C827 H835 0.929 . S
C828 C827 1.383 . S
C828 C829 1.377 . S
C829 H813 0.930 . S
C829 C828 1.377 . S
C829 C830 1.379 . S
C830 H814 0.931 . S
C830 C824 1.383 . S
C830 C829 1.379 . S
H831 C825 0.959 . S
H832 C825 0.961 . S
H833 C825 0.960 . S
H834 C826 0.930 . S
H835 C827 0.929 . S
H836 C844 0.929 . S
H837 C846 0.930 . S
H838 C848 0.930 . S
H839 C851 0.929 . S
H840 C854 0.930 . S
H841 C856 0.960 . S
H842 C856 0.960 . S
H843 C856 0.960 . S
C844 H836 0.929 . S
C844 C845 1.377 . S
C844 C846 1.384 . S
C845 C844 1.377 . S
C845 C851 1.390 . S
C846 H837 0.930 . S
C846 C844 1.384 . S
C846 C847 1.372 . S
C847 C846 1.372 . S
C847 C848 1.400 . S
C847 C852 1.490 . S
C848 H838 0.930 . S
C848 C847 1.400 . S
C848 C851 1.386 . S
H849 C865 0.930 . S
H850 C866 0.931 . S
C851 H839 0.929 . S
C851 C845 1.390 . S
C851 C848 1.386 . S
C852 C847 1.490 . S
C852 C854 1.395 . S
C852 C855 1.403 . S
H853 C859 0.930 . S
C854 H840 0.930 . S
C854 C852 1.395 . S
C854 C857 1.403 . S
C855 C852 1.403 . S
C855 C856 1.524 . S
C855 C859 1.400 . S
C856 H841 0.960 . S
C856 H842 0.960 . S
C856 H843 0.960 . S
C856 C855 1.524 . S
C857 C854 1.403 . S
C857 C858 1.392 . S
C857 C861 1.495 . S
C858 C857 1.392 . S
C858 C859 1.385 . S
C858 C860 1.478 . S
C859 H853 0.930 . S
C859 C855 1.400 . S
C859 C858 1.385 . S
C860 C858 1.478 . S
C860 C862 1.381 . S
C860 C866 1.383 . S
C861 C857 1.495 . S
C861 H867 0.959 . S
C861 H868 0.961 . S
C861 H869 0.960 . S
C862 C860 1.381 . S
C862 C863 1.394 . S
C862 H870 0.930 . S
C863 C862 1.394 . S
C863 C864 1.383 . S
C863 H871 0.929 . S
C864 C863 1.383 . S
C864 C865 1.377 . S
C865 H849 0.930 . S
C865 C864 1.377 . S
C865 C866 1.379 . S
C866 H850 0.931 . S
C866 C860 1.383 . S
C866 C865 1.379 . S
H867 C861 0.959 . S
H868 C861 0.961 . S
H869 C861 0.960 . S
H870 C862 0.930 . S
H871 C863 0.929 . S
H872 C880 0.929 . S
H873 C882 0.930 . S
H874 C884 0.930 . S
H875 C887 0.929 . S
H876 C890 0.930 . S
H877 C892 0.960 . S
H878 C892 0.960 . S
H879 C892 0.960 . S
C880 H872 0.929 . S
C880 C881 1.377 . S
C880 C882 1.384 . S
C881 C880 1.377 . S
C881 C887 1.390 . S
C882 H873 0.930 . S
C882 C880 1.384 . S
C882 C883 1.372 . S
C883 C882 1.372 . S
C883 C884 1.400 . S
C883 C888 1.490 . S
C884 H874 0.930 . S
C884 C883 1.400 . S
C884 C887 1.386 . S
H885 C901 0.930 . S
H886 C902 0.931 . S
C887 H875 0.929 . S
C887 C881 1.390 . S
C887 C884 1.386 . S
C888 C883 1.490 . S
C888 C890 1.395 . S
C888 C891 1.403 . S
H889 C895 0.930 . S
C890 H876 0.930 . S
C890 C888 1.395 . S
C890 C893 1.403 . S
C891 C888 1.403 . S
C891 C892 1.524 . S
C891 C895 1.400 . S
C892 H877 0.960 . S
C892 H878 0.960 . S
C892 H879 0.960 . S
C892 C891 1.524 . S
C893 C890 1.403 . S
C893 C894 1.392 . S
C893 C897 1.495 . S
C894 C893 1.392 . S
C894 C895 1.385 . S
C894 C896 1.478 . S
C895 H889 0.930 . S
C895 C891 1.400 . S
C895 C894 1.385 . S
C896 C894 1.478 . S
C896 C898 1.381 . S
C896 C902 1.383 . S
C897 C893 1.495 . S
C897 H903 0.959 . S
C897 H904 0.961 . S
C897 H905 0.960 . S
C898 C896 1.381 . S
C898 C899 1.394 . S
C898 H906 0.930 . S
C899 C898 1.394 . S
C899 C900 1.383 . S
C899 H907 0.929 . S
C900 C899 1.383 . S
C900 C901 1.377 . S
C901 H885 0.930 . S
C901 C900 1.377 . S
C901 C902 1.379 . S
C902 H886 0.931 . S
C902 C896 1.383 . S
C902 C901 1.379 . S
H903 C897 0.959 . S
H904 C897 0.961 . S
H905 C897 0.960 . S
H906 C898 0.930 . S
H907 C899 0.929 . S
H908 C916 0.929 . S
H909 C918 0.930 . S
H910 C920 0.930 . S
H911 C923 0.929 . S
H912 C926 0.930 . S
H913 C928 0.960 . S
H914 C928 0.960 . S
H915 C928 0.960 . S
C916 H908 0.929 . S
C916 C917 1.377 . S
C916 C918 1.384 . S
C917 C916 1.377 . S
C917 C923 1.390 . S
C918 H909 0.930 . S
C918 C916 1.384 . S
C918 C919 1.372 . S
C919 C918 1.372 . S
C919 C920 1.400 . S
C919 C924 1.490 . S
C920 H910 0.930 . S
C920 C919 1.400 . S
C920 C923 1.386 . S
H921 C937 0.930 . S
H922 C938 0.931 . S
C923 H911 0.929 . S
C923 C917 1.390 . S
C923 C920 1.386 . S
C924 C919 1.490 . S
C924 C926 1.395 . S
C924 C927 1.403 . S
H925 C931 0.930 . S
C926 H912 0.930 . S
C926 C924 1.395 . S
C926 C929 1.403 . S
C927 C924 1.403 . S
C927 C928 1.524 . S
C927 C931 1.400 . S
C928 H913 0.960 . S
C928 H914 0.960 . S
C928 H915 0.960 . S
C928 C927 1.524 . S
C929 C926 1.403 . S
C929 C930 1.392 . S
C929 C933 1.495 . S
C930 C929 1.392 . S
C930 C931 1.385 . S
C930 C932 1.478 . S
C931 H925 0.930 . S
C931 C927 1.400 . S
C931 C930 1.385 . S
C932 C930 1.478 . S
C932 C934 1.381 . S
C932 C938 1.383 . S
C933 C929 1.495 . S
C933 H939 0.959 . S
C933 H940 0.961 . S
C933 H941 0.960 . S
C934 C932 1.381 . S
C934 C935 1.394 . S
C934 H942 0.930 . S
C935 C934 1.394 . S
C935 C936 1.383 . S
C935 H943 0.929 . S
C936 C935 1.383 . S
C936 C937 1.377 . S
C937 H921 0.930 . S
C937 C936 1.377 . S
C937 C938 1.379 . S
C938 H922 0.931 . S
C938 C932 1.383 . S
C938 C937 1.379 . S
H939 C933 0.959 . S
H940 C933 0.961 . S
H941 C933 0.960 . S
H942 C934 0.930 . S
H943 C935 0.929 . S
H944 C952 0.929 . S
H945 C954 0.930 . S
H946 C956 0.930 . S
H947 C959 0.929 . S
H948 C962 0.930 . S
H949 C964 0.960 . S
H950 C964 0.960 . S
H951 C964 0.960 . S
C952 H944 0.929 . S
C952 C953 1.377 . S
C952 C954 1.384 . S
C953 C952 1.377 . S
C953 C959 1.390 . S
C954 H945 0.930 . S
C954 C952 1.384 . S
C954 C955 1.372 . S
C955 C954 1.372 . S
C955 C956 1.400 . S
C955 C960 1.490 . S
C956 H946 0.930 . S
C956 C955 1.400 . S
C956 C959 1.386 . S
H957 C973 0.930 . S
H958 C974 0.931 . S
C959 H947 0.929 . S
C959 C953 1.390 . S
C959 C956 1.386 . S
C960 C955 1.490 . S
C960 C962 1.395 . S
C960 C963 1.403 . S
H961 C967 0.930 . S
C962 H948 0.930 . S
C962 C960 1.395 . S
C962 C965 1.403 . S
C963 C960 1.403 . S
C963 C964 1.524 . S
C963 C967 1.400 . S
C964 H949 0.960 . S
C964 H950 0.960 . S
C964 H951 0.960 . S
C964 C963 1.524 . S
C965 C962 1.403 . S
C965 C966 1.392 . S
C965 C969 1.495 . S
C966 C965 1.392 . S
C966 C967 1.385 . S
C966 C968 1.478 . S
C967 H961 0.930 . S
C967 C963 1.400 . S
C967 C966 1.385 . S
C968 C966 1.478 . S
C968 C970 1.381 . S
C968 C974 1.383 . S
C969 C965 1.495 . S
C969 H975 0.959 . S
C969 H976 0.961 . S
C969 H977 0.960 . S
C970 C968 1.381 . S
C970 C971 1.394 . S
C970 H978 0.930 . S
C971 C970 1.394 . S
C971 C972 1.383 . S
C971 H979 0.929 . S
C972 C971 1.383 . S
C972 C973 1.377 . S
C973 H957 0.930 . S
C973 C972 1.377 . S
C973 C974 1.379 . S
C974 H958 0.931 . S
C974 C968 1.383 . S
C974 C973 1.379 . S
H975 C969 0.959 . S
H976 C969 0.961 . S
H977 C969 0.960 . S
H978 C970 0.930 . S
H979 C971 0.929 . S
H980 C988 0.929 . S
H981 C990 0.930 . S
H982 C992 0.930 . S
H983 C995 0.929 . S
H984 C998 0.930 . S
H985 C1000 0.960 . S
H986 C1000 0.960 . S
H987 C1000 0.960 . S
C988 H980 0.929 . S
C988 C989 1.377 . S
C988 C990 1.384 . S
C989 C988 1.377 . S
C989 C995 1.390 . S
C990 H981 0.930 . S
C990 C988 1.384 . S
C990 C991 1.372 . S
C991 C990 1.372 . S
C991 C992 1.400 . S
C991 C996 1.490 . S
C992 H982 0.930 . S
C992 C991 1.400 . S
C992 C995 1.386 . S
H993 C1009 0.930 . S
H994 C1010 0.931 . S
C995 H983 0.929 . S
C995 C989 1.390 . S
C995 C992 1.386 . S
C996 C991 1.490 . S
C996 C998 1.395 . S
C996 C999 1.403 . S
H997 C1003 0.930 . S
C998 H984 0.930 . S
C998 C996 1.395 . S
C998 C1001 1.403 . S
C999 C996 1.403 . S
C999 C1000 1.524 . S
C999 C1003 1.400 . S
C1000 H985 0.960 . S
C1000 H986 0.960 . S
C1000 H987 0.960 . S
C1000 C999 1.524 . S
C1001 C998 1.403 . S
C1001 C1002 1.392 . S
C1001 C1005 1.495 . S
C1002 C1001 1.392 . S
C1002 C1003 1.385 . S
C1002 C1004 1.478 . S
C1003 H997 0.930 . S
C1003 C999 1.400 . S
C1003 C1002 1.385 . S
C1004 C1002 1.478 . S
C1004 C1006 1.381 . S
C1004 C1010 1.383 . S
C1005 C1001 1.495 . S
C1005 H1011 0.959 . S
C1005 H1012 0.961 . S
C1005 H1013 0.960 . S
C1006 C1004 1.381 . S
C1006 C1007 1.394 . S
C1006 H1014 0.930 . S
C1007 C1006 1.394 . S
C1007 C1008 1.383 . S
C1007 H1015 0.929 . S
C1008 C1007 1.383 . S
C1008 C1009 1.377 . S
C1009 H993 0.930 . S
C1009 C1008 1.377 . S
C1009 C1010 1.379 . S
C1010 H994 0.931 . S
C1010 C1004 1.383 . S
C1010 C1009 1.379 . S
H1011 C1005 0.959 . S
H1012 C1005 0.961 . S
H1013 C1005 0.960 . S
H1014 C1006 0.930 . S
H1015 C1007 0.929 . S
C161 C5 1.420 . S
C180 C74 1.406 . S
C197 C14 1.340 . S
C216 C93 1.335 . S
C252 C130 1.745 . S
C233 C25 1.760 . S
C269 C34 1.684 . S
C288 C140 1.652 . S
C324 C110 1.848 . S
C305 C7 1.831 . S
C360 C80 1.430 . S
C341 C13 1.462 . S
C396 C151 1.506 . S
C377 C23 1.520 . S
C432 C121 1.374 . S
C413 C31 1.404 . S
C449 C4 1.649 . S
C468 C134 1.653 . S
C504 C101 1.705 . S
C485 C22 1.749 . S
C521 C32 1.732 . S
C540 C91 1.721 . S
C557 C16 1.194 . S
C576 C113 1.160 . S
C612 C73 1.385 . S
C593 C41 1.411 . S
C629 C50 1.351 . S
C648 C94 1.343 . S
C665 C61 1.753 . S
C684 C131 1.731 . S
C701 C67 1.696 . S
C720 C141 1.667 . S
C737 C40 1.855 . S
C756 C111 1.859 . S
C792 C81 1.394 . S
C773 C52 1.434 . S
C828 C150 1.516 . S
C809 C59 1.530 . S
C864 C120 1.379 . S
C845 C70 1.398 . S
C881 C43 1.647 . S
C900 C133 1.622 . S
C936 C100 1.683 . S
C917 C58 1.758 . S
C972 C90 1.712 . S
C953 C68 1.714 . S
C989 C49 1.201 . S
C1008 C114 1.200 . S
