# Generated by pormake.
# Topology zzz, (3,6)-cn, num edge types: 1
# Building blocks:
#     Node 0, Type 0, BuildingBlock: KAKCAD_clean_linker_0, # of connection points: 3
#     Node 1, Type 0, BuildingBlock: KAKCAD_clean_linker_0, # of connection points: 3
#     Node 2, Type 0, BuildingBlock: KAKCAD_clean_linker_0, # of connection points: 3
#     Node 3, Type 0, BuildingBlock: KAKCAD_clean_linker_0, # of connection points: 3
#     Node 4, Type 0, BuildingBlock: KAKCAD_clean_linker_0, # of connection points: 3
#     Node 5, Type 0, BuildingBlock: KAKCAD_clean_linker_0, # of connection points: 3
#     Node 6, Type 0, BuildingBlock: KAKCAD_clean_linker_0, # of connection points: 3
#     Node 7, Type 0, BuildingBlock: KAKCAD_clean_linker_0, # of connection points: 3
#     Node 8, Type 1, BuildingBlock: KUMBOL_clean_sbu_0, # of connection points: 6
#     Node 9, Type 1, BuildingBlock: KUMBOL_clean_sbu_0, # of connection points: 6
#     Node 10, Type 1, BuildingBlock: KUMBOL_clean_sbu_0, # of connection points: 6
#     Node 11, Type 1, BuildingBlock: KUMBOL_clean_sbu_0, # of connection points: 6
#     Edge 12, Type (0, 1), BuildingBlock: ZUJKAS_clean_linker_0, # of connection points: 2
#     Edge 13, Type (0, 1), BuildingBlock: ZUJKAS_clean_linker_0, # of connection points: 2
#     Edge 14, Type (0, 1), BuildingBlock: ZUJKAS_clean_linker_0, # of connection points: 2
#     Edge 15, Type (0, 1), BuildingBlock: ZUJKAS_clean_linker_0, # of connection points: 2
#     Edge 16, Type (0, 1), BuildingBlock: ZUJKAS_clean_linker_0, # of connection points: 2
#     Edge 17, Type (0, 1), BuildingBlock: ZUJKAS_clean_linker_0, # of connection points: 2
#     Edge 18, Type (0, 1), BuildingBlock: ZUJKAS_clean_linker_0, # of connection points: 2
#     Edge 19, Type (0, 1), BuildingBlock: ZUJKAS_clean_linker_0, # of connection points: 2
#     Edge 20, Type (0, 1), BuildingBlock: ZUJKAS_clean_linker_0, # of connection points: 2
#     Edge 21, Type (0, 1), BuildingBlock: ZUJKAS_clean_linker_0, # of connection points: 2
#     Edge 22, Type (0, 1), BuildingBlock: ZUJKAS_clean_linker_0, # of connection points: 2
#     Edge 23, Type (0, 1), BuildingBlock: ZUJKAS_clean_linker_0, # of connection points: 2
#     Edge 24, Type (0, 1), BuildingBlock: ZUJKAS_clean_linker_0, # of connection points: 2
#     Edge 25, Type (0, 1), BuildingBlock: ZUJKAS_clean_linker_0, # of connection points: 2
#     Edge 26, Type (0, 1), BuildingBlock: ZUJKAS_clean_linker_0, # of connection points: 2
#     Edge 27, Type (0, 1), BuildingBlock: ZUJKAS_clean_linker_0, # of connection points: 2
#     Edge 28, Type (0, 1), BuildingBlock: ZUJKAS_clean_linker_0, # of connection points: 2
#     Edge 29, Type (0, 1), BuildingBlock: ZUJKAS_clean_linker_0, # of connection points: 2
#     Edge 30, Type (0, 1), BuildingBlock: ZUJKAS_clean_linker_0, # of connection points: 2
#     Edge 31, Type (0, 1), BuildingBlock: ZUJKAS_clean_linker_0, # of connection points: 2
#     Edge 32, Type (0, 1), BuildingBlock: ZUJKAS_clean_linker_0, # of connection points: 2
#     Edge 33, Type (0, 1), BuildingBlock: ZUJKAS_clean_linker_0, # of connection points: 2
#     Edge 34, Type (0, 1), BuildingBlock: ZUJKAS_clean_linker_0, # of connection points: 2
#     Edge 35, Type (0, 1), BuildingBlock: ZUJKAS_clean_linker_0, # of connection points: 2
# Relax obj value: 0.272
# Max RMSD: 0.226
# Mean RMSD: 0.209
data_MOF--net-zzz--node1-KUMBOL_clean_sbu_0--node2-KAKCAD_clean_linker_0--edge1-ZUJKAS_clean_linker_0
_symmetry_space_group_name_H-M    P1
_symmetry_Int_Tables_number       1
_symmetry_cell_setting            triclinic
loop_
_symmetry_equiv_pos_as_xyz
'x, y, z'
_cell_length_a     71.757902
_cell_length_b     71.613077
_cell_length_c     24.892035
_cell_angle_alpha  90.197344
_cell_angle_beta   90.074648
_cell_angle_gamma 89.935529
loop_
_atom_site_label
_atom_site_type_symbol
_atom_site_fract_x
_atom_site_fract_y
_atom_site_fract_z
_atom_type_partial_charge
C0 C 0.78414 0.58359 0.94145 0.0
C1 C 0.80082 0.57361 0.93417 0.0
C2 C 0.77164 0.57845 0.98202 0.0
C3 C 0.77579 0.56342 0.01629 0.0
C4 C 0.79249 0.55354 0.00891 0.0
C5 C 0.80485 0.55859 0.96849 0.0
C6 C 0.76284 0.5577 0.05956 0.0
C7 C 0.74377 0.5556 0.04934 0.0
C8 C 0.73173 0.54836 0.08864 0.0
C9 C 0.73909 0.54314 0.13922 0.0
C10 C 0.7582 0.54588 0.15034 0.0
C11 C 0.76981 0.55316 0.1104 0.0
C12 C 0.76705 0.54107 0.20236 0.0
C13 C 0.77316 0.5555 0.23637 0.0
C14 C 0.77378 0.52291 0.21089 0.0
C15 C 0.78726 0.51947 0.2506 0.0
C16 C 0.79433 0.53416 0.2825 0.0
C17 C 0.71174 0.54589 0.07418 0.0
C18 C 0.70195 0.56075 0.05041 0.0
C19 C 0.70324 0.52824 0.07609 0.0
C20 C 0.68581 0.52529 0.05169 0.0
C21 C 0.67646 0.53998 0.02531 0.0
C22 C 0.68455 0.55786 0.02644 0.0
C23 C 0.78655 0.55209 0.27618 0.0
H24 H 0.7807 0.59523 0.91557 0.0
H25 H 0.75887 0.58634 0.98701 0.0
H26 H 0.79597 0.54176 0.03419 0.0
H27 H 0.81774 0.55082 0.96458 0.0
H28 H 0.73839 0.55885 0.00972 0.0
H29 H 0.78453 0.55505 0.11889 0.0
H30 H 0.73005 0.53734 0.1697 0.0
H31 H 0.76855 0.56971 0.2296 0.0
H32 H 0.76962 0.51164 0.18435 0.0
H33 H 0.79272 0.50545 0.25475 0.0
H34 H 0.70818 0.5745 0.04824 0.0
H35 H 0.71053 0.5165 0.09372 0.0
H36 H 0.79173 0.56379 0.29941 0.0
H37 H 0.67794 0.56948 0.00624 0.0
H38 H 0.67989 0.5114 0.05224 0.0
C39 C 0.91774 0.79194 0.94767 0.0
C40 C 0.92392 0.81039 0.94078 0.0
C41 C 0.92624 0.78033 0.98581 0.0
C42 C 0.94126 0.7869 0.01711 0.0
C43 C 0.94708 0.80549 0.0106 0.0
C44 C 0.93847 0.81707 0.97334 0.0
C45 C 0.95179 0.7744 0.05408 0.0
C46 C 0.95565 0.75583 0.03989 0.0
C47 C 0.96753 0.7446 0.07138 0.0
C48 C 0.97613 0.75258 0.1174 0.0
C49 C 0.97208 0.77122 0.1323 0.0
C50 C 0.95958 0.78165 0.10134 0.0
C51 C 0.98136 0.78125 0.1773 0.0
C52 C 0.97291 0.78195 0.22809 0.0
C53 C 0.99519 0.79443 0.16517 0.0
C54 C 0.99965 0.80873 0.20157 0.0
C55 C 0.99036 0.81027 0.25126 0.0
C56 C 0.97116 0.72497 0.05311 0.0
C57 C 0.95634 0.71405 0.03338 0.0
C58 C 0.98934 0.71773 0.04926 0.0
C59 C 0.99264 0.70047 0.02368 0.0
C60 C 0.97783 0.68999 1.00143 0.0
C61 C 0.95961 0.69693 0.00781 0.0
C62 C 0.97746 0.79619 0.26482 0.0
H63 H 0.90661 0.7864 0.92287 0.0
H64 H 0.92127 0.76615 0.99012 0.0
H65 H 0.95892 0.81099 0.03252 0.0
H66 H 0.94401 0.83101 0.96796 0.0
H67 H 0.9501 0.7503 1.0026 0.0
H68 H 0.95643 0.79586 0.1135 0.0
H69 H 0.98581 0.74445 0.14121 0.0
H70 H 0.96186 0.77225 0.23794 0.0
H71 H 1.00151 0.79457 0.12565 0.0
H72 H 0.00948 0.81929 0.18891 0.0
H73 H 0.94212 0.71907 0.0361 0.0
H74 H 1.00109 0.72578 0.06379 0.0
H75 H 0.97025 0.79657 0.30299 0.0
H76 H 0.94779 0.68955 0.99102 0.0
H77 H 0.00685 0.69551 0.02056 0.0
C78 C 0.72309 0.92217 0.93358 0.0
C79 C 0.70408 0.9267 0.93299 0.0
C80 C 0.73462 0.92889 0.97481 0.0
C81 C 0.72745 0.94081 0.01512 0.0
C82 C 0.70824 0.94492 0.01442 0.0
C83 C 0.69671 0.93776 0.97432 0.0
C84 C 0.73991 0.95002 0.05553 0.0
C85 C 0.75827 0.95499 0.0423 0.0
C86 C 0.76941 0.96537 0.07798 0.0
C87 C 0.76177 0.97154 0.12723 0.0
C88 C 0.74355 0.96617 0.14188 0.0
C89 C 0.73305 0.95512 0.10634 0.0
C90 C 0.73443 0.97245 0.19255 0.0
C91 C 0.72599 0.95921 0.22626 0.0
C92 C 0.73095 0.99148 0.20203 0.0
C93 C 0.7183 0.99706 0.24209 0.0
C94 C 0.70897 0.98372 0.27374 0.0
C95 C 0.78895 0.96942 0.06188 0.0
C96 C 0.80087 0.95454 0.04845 0.0
C97 C 0.79499 0.98777 0.0525 0.0
C98 C 0.81228 0.99109 0.02778 0.0
C99 C 0.82396 0.97612 0.01263 0.0
C100 C 0.81817 0.95783 0.02449 0.0
C101 C 0.7135 0.96476 0.26639 0.0
H102 H 0.72905 0.91377 0.90166 0.0
H103 H 0.7492 0.92503 0.9743 0.0
H104 H 0.7021 0.95442 0.0433 0.0
H105 H 0.68214 0.94178 0.97386 0.0
H106 H 0.76388 0.9514 1.00323 0.0
H107 H 0.71913 0.95095 0.11809 0.0
H108 H 0.77007 0.97998 0.15441 0.0
H109 H 0.72831 0.94443 0.21955 0.0
H110 H 0.73707 1.00197 0.17626 0.0
H111 H 0.71537 0.0118 0.24706 0.0
H112 H 0.79648 0.94025 0.05482 0.0
H113 H 0.78597 0.99948 0.06188 0.0
H114 H 0.70654 0.95404 0.28944 0.0
H115 H 0.82664 0.94596 0.01296 0.0
H116 H 0.81637 0.00535 0.01963 0.0
C117 C 0.52795 0.72061 0.2299 0.0
C118 C 0.53849 0.71981 0.27757 0.0
C119 C 0.53172 0.73409 0.19083 0.0
C120 C 0.54595 0.74728 0.19867 0.0
C121 C 0.55583 0.74723 0.24739 0.0
C122 C 0.55217 0.7336 0.28642 0.0
C123 C 0.55286 0.75818 0.15218 0.0
C124 C 0.55063 0.7777 0.14815 0.0
C125 C 0.55745 0.78722 0.10261 0.0
C126 C 0.56645 0.77708 0.06177 0.0
C127 C 0.56834 0.75764 0.06478 0.0
C128 C 0.56157 0.74836 0.11029 0.0
C129 C 0.57603 0.74679 0.01883 0.0
C130 C 0.57101 0.7513 0.96578 0.0
C131 C 0.58718 0.73096 0.02779 0.0
C132 C 0.59205 0.71918 0.98526 0.0
C133 C 0.58598 0.72301 0.93266 0.0
C134 C 0.55429 0.80747 0.09372 0.0
C135 C 0.53614 0.81437 0.08659 0.0
C136 C 0.56946 0.8191 0.08145 0.0
C137 C 0.56658 0.83683 0.05949 0.0
C138 C 0.54844 0.84326 0.04863 0.0
C139 C 0.53323 0.83206 0.06401 0.0
C140 C 0.576 0.73958 0.92317 0.0
H141 H 0.51747 0.71014 0.22129 0.0
H142 H 0.52416 0.73363 0.15314 0.0
H143 H 0.56709 0.75704 0.25392 0.0
H144 H 0.56044 0.73352 0.32285 0.0
H145 H 0.54353 0.78536 0.17969 0.0
H146 H 0.56264 0.73328 0.1128 0.0
H147 H 0.57154 0.78437 0.02662 0.0
H148 H 0.56236 0.76334 0.95734 0.0
H149 H 0.59159 0.72729 0.06803 0.0
H150 H 0.59961 0.70647 0.99428 0.0
H151 H 0.52422 0.80558 0.095 0.0
H152 H 0.5836 0.81401 0.08603 0.0
H153 H 0.57133 0.74309 0.88306 0.0
H154 H 0.51908 0.8367 0.05674 0.0
H155 H 0.57861 0.84498 0.04784 0.0
C156 C 0.23813 0.43833 0.22703 0.0
C157 C 0.22324 0.42704 0.21022 0.0
C158 C 0.25104 0.44493 0.18997 0.0
C159 C 0.24953 0.44017 0.13522 0.0
C160 C 0.23576 0.42727 0.11949 0.0
C161 C 0.22269 0.42078 0.15669 0.0
C162 C 0.26059 0.45065 0.0947 0.0
C163 C 0.2786 0.45684 0.10706 0.0
C164 C 0.28763 0.4703 0.0755 0.0
C165 C 0.27887 0.47672 0.0281 0.0
C166 C 0.26112 0.46977 0.01354 0.0
C167 C 0.25218 0.45688 0.04713 0.0
C168 C 0.25047 0.47666 0.96635 0.0
C169 C 0.24128 0.49396 0.9687 0.0
C170 C 0.24588 0.46416 0.92484 0.0
C171 C 0.23173 0.46844 0.88805 0.0
C172 C 0.22153 0.4852 0.8924 0.0
C173 C 0.30538 0.47826 0.09661 0.0
C174 C 0.3061 0.48414 0.1505 0.0
C175 C 0.32202 0.47765 0.06699 0.0
C176 C 0.33915 0.48183 0.09193 0.0
C177 C 0.33996 0.48669 0.14696 0.0
C178 C 0.32307 0.48814 0.17535 0.0
C179 C 0.22697 0.49821 0.93214 0.0
H180 H 0.239 0.44318 0.26824 0.0
H181 H 0.2613 0.45492 0.20389 0.0
H182 H 0.23445 0.42298 0.0779 0.0
H183 H 0.21134 0.41208 0.14262 0.0
H184 H 0.28541 0.45174 0.14305 0.0
H185 H 0.23806 0.45264 0.03757 0.0
H186 H 0.2855 0.4873 1.00374 0.0
H187 H 0.24425 0.50364 1.00115 0.0
H188 H 0.25257 0.45061 0.92265 0.0
H189 H 0.22832 0.45824 0.85738 0.0
H190 H 0.2935 0.4848 0.17437 0.0
H191 H 0.32188 0.47309 0.02547 0.0
H192 H 0.21942 0.51119 0.93725 0.0
H193 H 0.32288 0.49151 0.21776 0.0
H194 H 0.35178 0.48087 0.06833 0.0
C195 C 0.07631 0.23094 0.25315 0.0
C196 C 0.0856 0.21477 0.23516 0.0
C197 C 0.06713 0.24263 0.21686 0.0
C198 C 0.06744 0.23875 0.16142 0.0
C199 C 0.0786 0.22387 0.14308 0.0
C200 C 0.08737 0.2119 0.17944 0.0
C201 C 0.0545 0.24864 0.124 0.0
C202 C 0.04953 0.26739 0.13242 0.0
C203 C 0.03542 0.27591 0.10183 0.0
C204 C 0.02663 0.26563 0.06027 0.0
C205 C 0.03188 0.24691 0.05027 0.0
C206 C 0.04564 0.23867 0.08261 0.0
C207 C 0.02315 0.23507 0.00768 0.0
C208 C 0.01575 0.21757 0.02157 0.0
C209 C 0.02518 0.23937 0.95298 0.0
C210 C 0.02093 0.22599 0.91321 0.0
C211 C 0.01448 0.20804 0.9273 0.0
C212 C 0.02939 0.29505 0.11777 0.0
C213 C 0.01197 0.29788 0.14222 0.0
C214 C 0.04236 0.30976 0.11826 0.0
C215 C 0.03827 0.32668 0.14423 0.0
C216 C 0.02125 0.3292 0.17135 0.0
C217 C 0.00799 0.31472 0.16903 0.0
C218 C 0.01149 0.20427 0.98211 0.0
H219 H 0.07515 0.23403 0.29562 0.0
H220 H 0.0588 0.25395 0.2329 0.0
H221 H 0.07977 0.22081 0.10059 0.0
H222 H 0.0944 0.19969 0.16361 0.0
H223 H 0.0562 0.27531 0.16422 0.0
H224 H 0.04903 0.22408 0.07614 0.0
H225 H 0.01566 0.27202 0.03668 0.0
H226 H 0.01417 0.21379 0.06344 0.0
H227 H 0.03106 0.25265 0.94109 0.0
H228 H 0.02315 0.22957 0.87149 0.0
H229 H 1.00187 0.28666 0.14333 0.0
H230 H 0.05601 0.30784 0.10054 0.0
H231 H 0.0068 0.19065 0.99506 0.0
H232 H 0.99469 0.31624 0.18912 0.0
H233 H 0.04887 0.33743 0.14552 0.0
C234 C 0.28864 0.09208 0.23536 0.0
C235 C 0.30573 0.09984 0.21924 0.0
C236 C 0.27624 0.08479 0.19755 0.0
C237 C 0.28008 0.0859 0.14214 0.0
C238 C 0.29588 0.09609 0.12604 0.0
C239 C 0.30872 0.10263 0.16396 0.0
C240 C 0.26898 0.0747 0.10239 0.0
C241 C 0.25061 0.06926 0.11367 0.0
C242 C 0.24135 0.05581 0.08226 0.0
C243 C 0.25009 0.04877 0.03552 0.0
C244 C 0.26813 0.05499 0.02157 0.0
C245 C 0.27744 0.06755 0.05576 0.0
C246 C 0.2785 0.04803 0.97368 0.0
C247 C 0.28383 0.0292 0.96931 0.0
C248 C 0.28631 0.061 0.93795 0.0
C249 C 0.29994 0.05556 0.90091 0.0
C250 C 0.30626 0.03696 0.89861 0.0
C251 C 0.22329 0.04854 0.10287 0.0
C252 C 0.22252 0.04184 0.15581 0.0
C253 C 0.20655 0.05076 0.07429 0.0
C254 C 0.18933 0.04726 0.09941 0.0
C255 C 0.18855 0.04142 0.15352 0.0
C256 C 0.20547 0.03838 0.18077 0.0
C257 C 0.29759 0.02373 0.93223 0.0
H258 H 0.28528 0.09047 0.27747 0.0
H259 H 0.26432 0.07724 0.21264 0.0
H260 H 0.29899 0.09821 0.08398 0.0
H261 H 0.32153 0.1087 0.1493 0.0
H262 H 0.24347 0.07501 0.14827 0.0
H263 H 0.2918 0.07092 0.0468 0.0
H264 H 0.24311 0.0384 0.01095 0.0
H265 H 0.27824 0.01895 0.99682 0.0
H266 H 0.28262 0.07565 0.94084 0.0
H267 H 0.30632 0.06625 0.87637 0.0
H268 H 0.23522 0.04009 0.17891 0.0
H269 H 0.20673 0.05606 0.0336 0.0
H270 H 0.30187 0.00923 0.93113 0.0
H271 H 0.20564 0.0342 0.22251 0.0
H272 H 0.17663 0.0495 0.07677 0.0
C273 C 0.45271 0.29467 0.88674 0.0
C274 C 0.47123 0.30001 0.87658 0.0
C275 C 0.44847 0.28268 0.92922 0.0
C276 C 0.46264 0.27559 0.96241 0.0
C277 C 0.48128 0.27954 0.9495 0.0
C278 C 0.48554 0.29164 0.907 0.0
C279 C 0.45782 0.26795 0.0161 0.0
C280 C 0.46473 0.25072 0.0349 0.0
C281 C 0.46131 0.24514 0.08835 0.0
C282 C 0.45143 0.25722 0.12285 0.0
C283 C 0.4445 0.27445 0.10476 0.0
C284 C 0.44732 0.27931 0.05079 0.0
C285 C 0.43573 0.28801 0.14297 0.0
C286 C 0.4255 0.28192 0.188 0.0
C287 C 0.43857 0.30734 0.13643 0.0
C288 C 0.43183 0.32008 0.1741 0.0
C289 C 0.42246 0.3139 0.22006 0.0
C290 C 0.46792 0.22688 0.10979 0.0
C291 C 0.46346 0.21001 0.08377 0.0
C292 C 0.47677 0.22616 0.16015 0.0
C293 C 0.48003 0.20908 0.18547 0.0
C294 C 0.4745 0.1922 0.16123 0.0
C295 C 0.4667 0.19283 0.10926 0.0
C296 C 0.41918 0.29473 0.2266 0.0
H297 H 0.44135 0.30047 0.86339 0.0
H298 H 0.43398 0.27986 0.93828 0.0
H299 H 0.49246 0.27448 0.97488 0.0
H300 H 0.49996 0.29545 0.90051 0.0
H301 H 0.47287 0.24187 0.00845 0.0
H302 H 0.44192 0.29243 0.03584 0.0
H303 H 0.44944 0.25322 0.16435 0.0
H304 H 0.42266 0.26725 0.19411 0.0
H305 H 0.44679 0.31273 0.10354 0.0
H306 H 0.43491 0.33478 0.16884 0.0
H307 H 0.45652 0.21014 0.04509 0.0
H308 H 0.48064 0.23891 0.18086 0.0
H309 H 0.41207 0.28967 0.26202 0.0
H310 H 0.46223 0.18012 0.08941 0.0
H311 H 0.48652 0.20913 0.22479 0.0
Gd312 Gd 0.98741 0.01279 0.53792 0.0
Gd313 Gd 0.02623 0.0069 0.63302 0.0
C314 C 0.05141 0.05211 0.74088 0.0
C315 C 0.0825 0.05549 0.70364 0.0
C316 C 0.06056 0.03351 0.66398 0.0
C317 C 0.04712 0.03888 0.7006 0.0
C318 C 0.07852 0.04151 0.66564 0.0
C319 C 0.069 0.06069 0.74142 0.0
C320 C 0.03813 0.05587 0.78057 0.0
C321 C 0.02111 0.04656 0.77943 0.0
N322 N 0.03029 0.03024 0.69916 0.0
C323 C 0.0175 0.03358 0.73872 0.0
H324 H 0.00432 0.02652 0.7391 0.0
C325 C 0.07007 0.01207 0.597 0.0
N326 N 0.05646 0.01957 0.629 0.0
C327 C 0.08798 0.01973 0.59656 0.0
C328 C 0.09216 0.0347 0.63052 0.0
H329 H 0.0669 1.00046 0.57069 0.0
H330 H 0.07245 0.07105 0.77167 0.0
H331 H 0.00812 0.99301 0.4299 0.0
H332 H 0.04097 0.06576 0.81258 0.0
H333 H 0.01078 0.04928 0.81012 0.0
H334 H 0.09616 0.06189 0.70531 0.0
H335 H 0.94676 0.02047 0.59945 0.0
H336 H 0.97253 0.95025 0.36854 0.0
H337 H 1.00192 0.96815 0.36431 0.0
H338 H 0.91762 0.95603 0.47657 0.0
H339 H 0.09854 0.01406 0.57011 0.0
H340 H 0.1061 0.0405 0.6305 0.0
H341 H 0.94123 0.94559 0.41139 0.0
H342 H 0.91524 0.00669 0.60323 0.0
N343 N 0.9827 0.98923 0.47265 0.0
C344 C 0.97515 0.96125 0.39758 0.0
C345 C 0.99173 0.97134 0.39501 0.0
C346 C 0.96194 0.96581 0.43676 0.0
C347 C 0.96609 0.98019 0.4738 0.0
C348 C 0.99519 0.9855 0.43256 0.0
N349 N 0.95702 1.00056 0.54311 0.0
C350 C 0.95284 0.98602 0.51032 0.0
C351 C 0.9257 1.00068 0.57708 0.0
C352 C 0.92151 0.98502 0.54575 0.0
C353 C 0.94354 0.00847 0.57473 0.0
C354 C 0.93504 0.97769 0.51112 0.0
H355 H 0.90767 0.97902 0.54755 0.0
O356 O 0.96881 0.03551 0.51714 0.0
O357 O 0.00664 0.02691 0.5957 0.0
O358 O 0.99774 1.00383 0.6735 0.0
O359 O 0.97728 0.9946 0.60582 0.0
O360 O 0.9792 0.03514 0.59843 0.0
O361 O 0.99031 0.02673 0.46114 0.0
O362 O 0.04608 0.98568 0.65664 0.0
O363 O 0.00733 0.9929 0.57473 0.0
O364 O 0.01578 0.01546 0.49694 0.0
O365 O 0.03634 0.02484 0.56421 0.0
O366 O 0.03467 0.98429 0.57355 0.0
O367 O 0.02232 0.99185 0.70774 0.0
C368 C 0.99549 0.03805 0.61832 0.0
C369 C 0.93114 0.96274 0.47619 0.0
C370 C 0.94458 0.95681 0.43907 0.0
C371 C 0.97774 0.03928 0.473 0.0
C372 C 0.98288 0.05898 0.46603 0.0
C373 C 0.96869 0.07227 0.45998 0.0
C374 C 1.0016 0.0648 0.46733 0.0
C375 C 0.00614 0.08379 0.46192 0.0
C376 C 0.97307 0.09113 0.45508 0.0
C377 C 0.99163 0.09689 0.45586 0.0
C378 C 0.98171 0.99643 0.65723 0.0
C379 C 0.01847 0.98156 0.55287 0.0
C380 C 0.03645 0.98079 0.69857 0.0
C381 C 0.03342 0.96063 0.7041 0.0
C382 C 0.04882 0.94923 0.71541 0.0
C383 C 0.01581 0.95248 0.69548 0.0
C384 C 0.01376 0.93299 0.69784 0.0
C385 C 0.04681 0.92991 0.71778 0.0
C386 C 0.02943 0.92181 0.70896 0.0
C387 C 0.03178 0.02299 0.51285 0.0
H388 H 0.9542 0.06803 0.45929 0.0
H389 H 0.0126 0.05465 0.47276 0.0
H390 H 0.96205 0.10132 0.45021 0.0
H391 H 0.99461 0.11158 0.45038 0.0
H392 H 0.06248 0.95531 0.72183 0.0
H393 H 1.00386 0.96116 0.68617 0.0
H394 H 0.05877 0.92119 0.72647 0.0
H395 H 0.02816 0.90677 0.71172 0.0
Gd396 Gd 0.50534 0.99173 0.55 0.0
Gd397 Gd 0.51277 0.03456 0.6284 0.0
C398 C 0.46845 0.06345 0.73113 0.0
C399 C 0.46347 0.09242 0.68264 0.0
C400 C 0.48584 0.06954 0.64984 0.0
C401 C 0.4815 0.0578 0.6919 0.0
C402 C 0.47713 0.08714 0.64522 0.0
C403 C 0.45919 0.08063 0.72565 0.0
C404 C 0.4655 0.05192 0.77554 0.0
C405 C 0.47551 0.03533 0.78023 0.0
N406 N 0.49078 0.04134 0.69619 0.0
C407 C 0.4883 0.03034 0.74037 0.0
H408 H 0.49582 0.01748 0.74505 0.0
C409 C 0.50576 0.07629 0.57687 0.0
N410 N 0.49934 0.06418 0.61502 0.0
C411 C 0.49743 0.0938 0.57035 0.0
C412 C 0.48287 0.09916 0.60422 0.0
H413 H 0.51696 0.07216 0.55039 0.0
H414 H 0.44899 0.0851 0.75509 0.0
H415 H 0.52292 0.00932 0.43504 0.0
H416 H 0.45573 0.05583 0.80678 0.0
H417 H 0.47343 0.02637 0.81463 0.0
H418 H 0.45652 0.10581 0.67955 0.0
H419 H 0.50058 0.9538 0.62636 0.0
H420 H 0.56285 0.9709 0.37255 0.0
H421 H 0.54548 1.00059 0.36562 0.0
H422 H 0.56102 0.92016 0.49725 0.0
H423 H 0.50223 0.10312 0.53916 0.0
H424 H 0.4765 0.11277 0.59928 0.0
H425 H 0.56893 0.94116 0.4227 0.0
H426 H 0.51497 0.92264 0.63667 0.0
N427 N 0.52767 0.98518 0.48301 0.0
C428 C 0.55301 0.97474 0.4037 0.0
C429 C 0.54321 0.99147 0.39957 0.0
C430 C 0.54978 0.96298 0.44745 0.0
C431 C 0.53674 0.96859 0.48672 0.0
C432 C 0.53036 0.99638 0.43934 0.0
N433 N 0.51857 0.96198 0.56278 0.0
C434 C 0.53213 0.95667 0.52814 0.0
C435 C 0.51999 0.93209 0.6061 0.0
C436 C 0.53461 0.92676 0.57241 0.0
C437 C 0.51186 0.94972 0.60011 0.0
C438 C 0.54061 0.93894 0.53212 0.0
H439 H 0.5408 0.91305 0.57685 0.0
O440 O 0.48318 0.97151 0.54053 0.0
O441 O 0.49233 0.01328 0.60239 0.0
O442 O 0.51741 0.00832 0.67915 0.0
O443 O 0.52489 0.98474 0.61811 0.0
O444 O 0.48464 0.98615 0.61698 0.0
O445 O 0.48961 0.99061 0.47556 0.0
O446 O 0.53476 0.0551 0.63588 0.0
O447 O 0.52581 0.01285 0.57663 0.0
O448 O 0.50058 0.01818 0.4998 0.0
O449 O 0.49246 0.04108 0.562 0.0
O450 O 0.53328 0.03988 0.56061 0.0
O451 O 0.52928 0.03592 0.70139 0.0
C452 C 0.48196 1.00324 0.63108 0.0
C453 C 0.55427 0.93367 0.49467 0.0
C454 C 0.55876 0.94562 0.45223 0.0
C455 C 0.478 0.9782 0.49428 0.0
C456 C 0.45792 0.982 0.48884 0.0
C457 C 0.44515 0.96797 0.50266 0.0
C458 C 0.45127 0.99934 0.47056 0.0
C459 C 0.43204 1.00247 0.46523 0.0
C460 C 0.42604 0.97117 0.49839 0.0
C461 C 0.41948 0.98828 0.47963 0.0
C462 C 0.52431 0.99153 0.66762 0.0
C463 C 0.53621 0.02273 0.54768 0.0
C464 C 0.54054 0.04847 0.68156 0.0
C465 C 0.56053 0.04431 0.68376 0.0
C466 C 0.57318 0.05879 0.69362 0.0
C467 C 0.56715 0.02618 0.67364 0.0
C468 C 0.58636 0.02225 0.67554 0.0
C469 C 0.59227 0.05516 0.69423 0.0
C470 C 0.59885 0.03703 0.6857 0.0
C471 C 0.49318 0.03468 0.51215 0.0
H472 H 0.44999 0.95453 0.5169 0.0
H473 H 0.46096 0.01024 0.45926 0.0
H474 H 0.41629 0.96031 0.50932 0.0
H475 H 0.40458 0.99044 0.47629 0.0
H476 H 0.56827 0.0729 0.70067 0.0
H477 H 0.5573 0.01517 0.66465 0.0
H478 H 0.602 0.06637 0.70222 0.0
H479 H 0.61369 0.03458 0.68888 0.0
Gd480 Gd 0.49092 0.51161 0.60426 0.0
Gd481 Gd 0.53662 0.50191 0.54111 0.0
C482 C 0.5934 0.51644 0.6126 0.0
C483 C 0.60426 0.54076 0.55245 0.0
C484 C 0.57407 0.52614 0.5378 0.0
C485 C 0.57664 0.51527 0.58308 0.0
C486 C 0.58799 0.53881 0.52151 0.0
C487 C 0.60699 0.52954 0.5978 0.0
C488 C 0.5963 0.50395 0.65487 0.0
C489 C 0.58277 0.4906 0.66651 0.0
N490 N 0.56325 0.50275 0.59637 0.0
C491 C 0.56633 0.49006 0.63632 0.0
H492 H 0.55602 0.47955 0.64528 0.0
C493 C 0.55616 0.53268 0.46024 0.0
N494 N 0.55833 0.52371 0.5083 0.0
C495 C 0.56949 0.54551 0.44273 0.0
C496 C 0.58538 0.54876 0.47379 0.0
H497 H 0.54392 0.53036 0.43594 0.0
H498 H 0.61985 0.53079 0.62039 0.0
H499 H 0.47433 0.54198 0.51083 0.0
H500 H 0.60914 0.50417 0.67783 0.0
H501 H 0.58499 0.48069 0.69863 0.0
H502 H 0.61504 0.55052 0.54081 0.0
H503 H 0.48008 0.47764 0.69033 0.0
H504 H 0.41948 0.52543 0.46683 0.0
H505 H 0.44591 0.54742 0.45993 0.0
H506 H 0.40808 0.4718 0.57618 0.0
H507 H 0.56749 0.5529 0.4053 0.0
H508 H 0.59572 0.55865 0.45998 0.0
H509 H 0.40568 0.49698 0.50952 0.0
H510 H 0.45438 0.45548 0.70713 0.0
N511 N 0.46454 0.51737 0.54951 0.0
C512 C 0.43197 0.52308 0.4904 0.0
C513 C 0.44687 0.53543 0.48611 0.0
C514 C 0.43323 0.50804 0.52582 0.0
C515 C 0.44978 0.5057 0.55587 0.0
C516 C 0.4631 0.53232 0.51578 0.0
N517 N 0.46679 0.49033 0.62323 0.0
C518 C 0.45106 0.4916 0.59337 0.0
C519 C 0.45328 0.4655 0.67484 0.0
C520 C 0.43737 0.46599 0.64255 0.0
C521 C 0.46778 0.47807 0.66523 0.0
C522 C 0.43595 0.47936 0.60187 0.0
H523 H 0.4261 0.4563 0.65021 0.0
O524 O 0.47814 0.51746 0.68112 0.0
O525 O 0.52164 0.51169 0.61404 0.0
O526 O 0.52621 0.47744 0.59138 0.0
O527 O 0.494 0.4806 0.58834 0.0
O528 O 0.50659 0.50235 0.67888 0.0
O529 O 0.48683 0.54036 0.63034 0.0
O530 O 0.54112 0.48782 0.4646 0.0
O531 O 0.50583 0.50134 0.53262 0.0
O532 O 0.5019 0.53652 0.55605 0.0
O533 O 0.53428 0.53314 0.55135 0.0
O534 O 0.52058 0.50792 0.46436 0.0
O535 O 0.55376 0.47708 0.53723 0.0
C536 C 0.52305 0.50636 0.66206 0.0
C537 C 0.41977 0.48116 0.57056 0.0
C538 C 0.4184 0.49551 0.53268 0.0
C539 C 0.48181 0.53523 0.67853 0.0
C540 C 0.49244 0.54279 0.72463 0.0
C541 C 0.48877 0.53599 0.77647 0.0
C542 C 0.50712 0.55557 0.71733 0.0
C543 C 0.51818 0.56118 0.76118 0.0
C544 C 0.4998 0.54143 0.8199 0.0
C545 C 0.51447 0.55388 0.81239 0.0
C546 C 0.50919 0.4704 0.59558 0.0
C547 C 0.50412 0.5054 0.4836 0.0
C548 C 0.55029 0.47411 0.4867 0.0
C549 C 0.54408 0.45513 0.47424 0.0
C550 C 0.55745 0.44131 0.46424 0.0
C551 C 0.52513 0.45031 0.47712 0.0
C552 C 0.51954 0.43163 0.47057 0.0
C553 C 0.55201 0.42279 0.45715 0.0
C554 C 0.53322 0.41794 0.46033 0.0
C555 C 0.51893 0.54341 0.54825 0.0
H556 H 0.47756 0.52615 0.78323 0.0
H557 H 0.51021 0.5609 0.67763 0.0
H558 H 0.49696 0.53598 0.85957 0.0
H559 H 0.52263 0.55816 0.84693 0.0
H560 H 0.57213 0.44482 0.46263 0.0
H561 H 0.51485 0.46104 0.48536 0.0
H562 H 0.56238 0.41215 0.44925 0.0
H563 H 0.5294 0.4035 0.45362 0.0
Gd564 Gd 1.0 0.49323 0.62639 0.0
Gd565 Gd 0.01723 0.5301 0.53647 0.0
C566 C 0.02215 0.59072 0.59685 0.0
C567 C 1.00036 0.60684 0.53847 0.0
C568 C 0.0054 0.57336 0.52876 0.0
C569 C 0.01784 0.5736 0.57122 0.0
C570 C 0.99686 0.59005 0.51114 0.0
C571 C 0.01308 0.60719 0.58102 0.0
C572 C 0.0359 0.59098 0.63654 0.0
C573 C 0.04514 0.57456 0.64953 0.0
N574 N 0.02653 0.55741 0.58533 0.0
C575 C 0.04047 0.55795 0.62324 0.0
H576 H 0.04798 0.54577 0.63567 0.0
C577 C 0.99293 0.55687 0.45473 0.0
N578 N 1.00269 0.55709 0.50206 0.0
C579 C 0.98394 0.57293 0.43625 0.0
C580 C 0.98566 0.58955 0.46511 0.0
H581 H 0.99187 0.54409 0.43169 0.0
H582 H 0.01614 0.62038 0.60057 0.0
H583 H 0.96107 0.48182 0.5496 0.0
H584 H 0.03973 0.60385 0.65674 0.0
H585 H 0.05591 0.57464 0.68 0.0
H586 H 0.99382 0.61974 0.5258 0.0
H587 H 0.02953 0.47199 0.71218 0.0
H588 H 0.96875 0.42746 0.4854 0.0
H589 H 0.95051 0.45659 0.49268 0.0
H590 H 0.02276 0.40476 0.57642 0.0
H591 H 0.97583 0.57249 0.39958 0.0
H592 H 0.97886 0.60206 0.45044 0.0
H593 H 0.99599 0.40846 0.51563 0.0
H594 H 0.04731 0.44262 0.71871 0.0
N595 N 0.98655 0.4685 0.57401 0.0
C596 C 0.97376 0.43875 0.51064 0.0
C597 C 0.96347 0.45516 0.51459 0.0
C598 C 0.99 0.43683 0.54098 0.0
C599 C 0.99597 0.45201 0.57323 0.0
C600 C 0.96989 0.46978 0.54701 0.0
N601 N 0.01544 0.46426 0.64018 0.0
C602 C 0.01105 0.44993 0.60692 0.0
C603 C 0.03739 0.44456 0.68643 0.0
C604 C 0.03425 0.43032 0.64922 0.0
C605 C 0.02745 0.46128 0.68215 0.0
C606 C 0.02053 0.43265 0.60989 0.0
H607 H 0.04183 0.41728 0.65283 0.0
O608 O 0.99452 0.48231 0.70612 0.0
O609 O 0.0042 0.52394 0.61547 0.0
O610 O 0.04149 0.5202 0.58691 0.0
O611 O 0.03152 0.49404 0.63473 0.0
O612 O 0.01257 0.51273 0.688 0.0
O613 O 0.97295 0.49721 0.66407 0.0
O614 O 0.02881 0.54153 0.46284 0.0
O615 O 0.01203 0.49956 0.54619 0.0
O616 O 0.97534 0.50693 0.58507 0.0
O617 O 0.98574 0.531 0.5296 0.0
O618 O 1.00333 0.51158 0.47483 0.0
O619 O 0.04362 0.51997 0.50516 0.0
C620 C 0.01036 0.52805 0.66164 0.0
C621 C 0.01543 0.41799 0.57535 0.0
C622 C 1.00017 0.42008 0.54093 0.0
C623 C 0.97888 0.49134 0.7105 0.0
C624 C 0.9775 0.50468 0.75601 0.0
C625 C 0.98992 0.50345 0.79969 0.0
C626 C 0.965 0.51981 0.75374 0.0
C627 C 0.96507 0.53369 0.79385 0.0
C628 C 0.99013 0.51726 0.83935 0.0
C629 C 0.97787 0.53234 0.83645 0.0
C630 C 0.04458 0.5059 0.61925 0.0
C631 C 0.00495 0.49606 0.50061 0.0
C632 C 0.04187 0.52901 0.46029 0.0
C633 C 0.04286 0.51753 0.41102 0.0
C634 C 0.02985 0.51972 0.36914 0.0
C635 C 0.05627 0.50332 0.40733 0.0
C636 C 0.05676 0.49137 0.36258 0.0
C637 C 0.03026 0.50783 0.3246 0.0
C638 C 0.04364 0.49372 0.3212 0.0
C639 C 0.97234 0.52062 0.55046 0.0
H640 H 0.99978 0.49204 0.80262 0.0
H641 H 0.95512 0.52071 0.72087 0.0
H642 H 0.99992 0.51631 0.87237 0.0
H643 H 0.97833 0.54291 0.86765 0.0
H644 H 0.0192 0.53043 0.371 0.0
H645 H 0.06643 0.50162 0.43926 0.0
H646 H 0.02014 0.50952 0.2927 0.0
H647 H 0.0437 0.48459 0.28641 0.0
H648 H 0.15658 0.0627 0.14373 0.0
H649 H 0.1282 0.06104 0.19776 0.0
H650 H 0.15139 0.01499 0.28684 0.0
H651 H 0.17916 0.0157 0.23082 0.0
H652 H 0.11655 0.00853 0.26908 0.0
H653 H 0.12175 0.08105 0.34605 0.0
H654 H 0.11995 0.07985 0.27429 0.0
H655 H 0.14011 0.07027 0.30744 0.0
C656 C 0.15555 0.05198 0.17411 0.0
C657 C 0.17042 0.03949 0.18305 0.0
C658 C 0.13937 0.05128 0.20579 0.0
C659 C 0.13777 0.03827 0.24776 0.0
C660 C 0.15228 0.02535 0.25534 0.0
H661 H 0.06469 0.04223 0.52606 0.0
H662 H 0.08958 0.04633 0.46024 0.0
C663 C 0.1683 0.02589 0.22337 0.0
C664 C 0.12104 0.03782 0.28372 0.0
H665 H 0.0947 0.06418 0.36999 0.0
C666 C 0.11177 0.02074 0.29102 0.0
C667 C 0.11487 0.05365 0.31325 0.0
C668 C 0.12479 0.07219 0.31038 0.0
C669 C 0.09675 0.01896 0.32689 0.0
C670 C 0.09019 0.0349 0.35514 0.0
C671 C 0.09942 0.05201 0.34785 0.0
C672 C 0.07435 0.03384 0.39413 0.0
C673 C 0.08861 0.99977 0.33567 0.0
C674 C 0.05708 0.02622 0.37887 0.0
C675 C 0.04304 0.0233 0.41697 0.0
C676 C 0.04577 0.02822 0.47121 0.0
C677 C 0.06242 0.03739 0.48537 0.0
C678 C 0.07661 0.03999 0.44745 0.0
H679 H 0.09857 0.98858 0.32401 0.0
H680 H 0.08467 0.99768 0.37834 0.0
H681 H 0.07596 0.99813 0.31042 0.0
H682 H 0.05459 0.02211 0.3376 0.0
H683 H 0.03021 0.01676 0.40393 0.0
H684 H 0.46642 0.18638 0.26713 0.0
H685 H 0.46843 0.15738 0.31802 0.0
H686 H 0.48669 0.12814 0.17587 0.0
H687 H 0.48509 0.15734 0.12456 0.0
H688 H 0.44929 0.12342 0.29797 0.0
H689 H 0.52619 0.11399 0.29035 0.0
H690 H 0.51508 0.136 0.27525 0.0
H691 H 0.5146 0.11732 0.22701 0.0
C692 C 0.47114 0.17387 0.24668 0.0
C693 C 0.47582 0.1743 0.19175 0.0
C694 C 0.47214 0.15725 0.27584 0.0
C695 C 0.47793 0.14061 0.25103 0.0
C696 C 0.48246 0.14086 0.19611 0.0
H697 H 0.50151 0.03291 0.40426 0.0
H698 H 0.49582 0.05695 0.33651 0.0
C699 C 0.48139 0.15754 0.16671 0.0
C700 C 0.4788 0.12307 0.28294 0.0
H701 H 0.50896 0.09096 0.33542 0.0
C702 C 0.46232 0.11625 0.30596 0.0
C703 C 0.49577 0.11365 0.2931 0.0
C704 C 0.51398 0.12061 0.27056 0.0
C705 C 0.46234 0.10038 0.33911 0.0
C706 C 0.47941 0.09123 0.35076 0.0
C707 C 0.49584 0.09784 0.3266 0.0
C708 C 0.48078 0.0755 0.38999 0.0
C709 C 0.44398 0.09351 0.36057 0.0
C710 C 0.47383 0.07753 0.44245 0.0
C711 C 0.47672 0.06361 0.48084 0.0
C712 C 0.48723 0.04756 0.46851 0.0
C713 C 0.49349 0.04511 0.41543 0.0
C714 C 0.49034 0.05895 0.37665 0.0
H715 H 0.43228 0.09765 0.33388 0.0
H716 H 0.44399 0.0781 0.36483 0.0
H717 H 0.44135 0.09989 0.40052 0.0
H718 H 0.46678 0.09022 0.45458 0.0
H719 H 0.47129 0.06579 0.52095 0.0
H720 H 0.37354 0.46856 0.13026 0.0
H721 H 0.40223 0.47137 0.18262 0.0
H722 H 0.37591 0.51233 0.28487 0.0
H723 H 0.34791 0.51087 0.23017 0.0
H724 H 0.40884 0.52284 0.26784 0.0
H725 H 0.41391 0.44816 0.32251 0.0
H726 H 0.41469 0.45168 0.25131 0.0
H727 H 0.3939 0.45762 0.28818 0.0
C728 C 0.37392 0.47844 0.16322 0.0
C729 C 0.35812 0.48929 0.17607 0.0
C730 C 0.3903 0.47974 0.194 0.0
C731 C 0.39118 0.4916 0.23912 0.0
C732 C 0.37564 0.50285 0.25087 0.0
H733 H 0.47436 0.48152 0.49529 0.0
H734 H 0.44714 0.47861 0.4363 0.0
C735 C 0.35946 0.50184 0.21963 0.0
C736 C 0.40829 0.49287 0.27351 0.0
H737 H 0.43966 0.46728 0.34622 0.0
C738 C 0.41547 0.51065 0.28529 0.0
C739 C 0.41696 0.47707 0.29699 0.0
C740 C 0.40936 0.45758 0.2896 0.0
C741 C 0.43075 0.51318 0.31993 0.0
C742 C 0.43996 0.49735 0.34189 0.0
C743 C 0.43284 0.4795 0.32972 0.0
C744 C 0.4567 0.49893 0.37798 0.0
C745 C 0.43622 0.533 0.33337 0.0
C746 C 0.47163 0.51079 0.36489 0.0
C747 C 0.48663 0.51318 0.40021 0.0
C748 C 0.48748 0.50329 0.44877 0.0
C749 C 0.47349 0.49018 0.45983 0.0
C750 C 0.45809 0.48827 0.42538 0.0
H751 H 0.42398 0.54251 0.33184 0.0
H752 H 0.4425 0.53412 0.37377 0.0
H753 H 0.44641 0.53802 0.30321 0.0
H754 H 0.47174 0.51831 0.32729 0.0
H755 H 0.49768 0.52273 0.38933 0.0
H756 H 0.00751 0.33138 0.27389 0.0
H757 H 0.00433 0.35906 0.33099 0.0
H758 H 0.02434 0.39357 0.20171 0.0
H759 H 0.02812 0.36579 0.14507 0.0
H760 H 0.04075 0.40354 0.29019 0.0
H761 H 0.96553 0.39851 0.33595 0.0
H762 H 0.97796 0.37793 0.35573 0.0
H763 H 0.97651 0.38405 0.28569 0.0
C764 C 0.01095 0.3449 0.25731 0.0
C765 C 0.01795 0.34634 0.20466 0.0
C766 C 0.00905 0.36079 0.29004 0.0
C767 C 0.01372 0.37862 0.27066 0.0
C768 C 0.02057 0.38007 0.21786 0.0
H769 H 0.98281 0.48445 0.41923 0.0
H770 H 0.98568 0.45617 0.3643 0.0
C771 C 0.02272 0.36415 0.18539 0.0
C772 C 0.01235 0.39562 0.30592 0.0
H773 H 0.98297 0.42031 0.38812 0.0
C774 C 0.02805 0.40721 0.31132 0.0
C775 C 0.99578 0.40068 0.33345 0.0
C776 C 0.97794 0.38974 0.32702 0.0
C777 C 0.02769 0.42351 0.34312 0.0
C778 C 0.01135 0.42824 0.37211 0.0
C779 C 0.99561 0.41668 0.36664 0.0
C780 C 0.00992 0.44552 0.4061 0.0
C781 C 0.04472 0.43577 0.34401 0.0
C782 C 0.02257 0.44918 0.4482 0.0
C783 C 0.02092 0.46545 0.47968 0.0
C784 C 0.00632 0.47816 0.47055 0.0
C785 C 0.99391 0.47466 0.42801 0.0
C786 C 0.99556 0.45848 0.39657 0.0
H787 H 0.05376 0.43333 0.30846 0.0
H788 H 0.04076 0.45075 0.34509 0.0
H789 H 0.053 0.43251 0.38043 0.0
H790 H 0.03363 0.43938 0.45718 0.0
H791 H 0.03103 0.46807 0.51117 0.0
H792 H 0.85795 0.9591 0.02624 0.0
H793 H 0.88593 0.96238 0.9709 0.0
H794 H 0.85757 1.00284 0.87222 0.0
H795 H 0.82968 0.99983 0.9279 0.0
H796 H 0.89104 0.95454 0.86759 0.0
H797 H 0.90574 0.02962 0.89861 0.0
H798 H 0.88918 0.01707 0.93923 0.0
H799 H 0.88258 0.02565 0.87399 0.0
C800 C 0.85772 0.96883 0.99303 0.0
C801 C 0.84155 0.97927 0.98179 0.0
C802 C 0.87375 0.97069 0.96137 0.0
C803 C 0.87406 0.98305 0.91761 0.0
C804 C 0.85796 0.99359 0.9065 0.0
H805 H 0.9494 0.97643 0.64329 0.0
H806 H 0.92379 0.97282 0.70684 0.0
C807 C 0.84196 0.99184 0.93843 0.0
C808 C 0.89086 0.9842 0.88224 0.0
H809 H 0.92192 0.0147 0.82649 0.0
C810 C 0.89786 0.9677 0.85897 0.0
C811 C 0.90002 1.00129 0.87131 0.0
C812 C 0.89413 0.01938 0.89753 0.0
C813 C 0.91339 0.96786 0.82445 0.0
C814 C 0.92201 0.98506 0.81155 0.0
C815 C 0.91527 1.00151 0.83573 0.0
C816 C 0.93798 0.98639 0.77316 0.0
C817 C 0.92052 0.94953 0.80268 0.0
C818 C 0.95456 0.99538 0.78855 0.0
C819 C 0.96908 0.99791 0.75165 0.0
C820 C 0.96734 0.99165 0.69821 0.0
C821 C 0.95107 0.9819 0.68358 0.0
C822 C 0.93647 0.97955 0.72031 0.0
H823 H 0.91634 0.93763 0.8285 0.0
H824 H 0.91446 0.94719 0.76222 0.0
H825 H 0.93594 0.94957 0.79906 0.0
H826 H 0.95618 1.0007 0.82907 0.0
H827 H 0.98143 0.00523 0.76486 0.0
H828 H 0.56632 0.87703 0.05952 0.0
H829 H 0.56326 0.90464 1.00216 0.0
H830 H 0.52187 0.8761 0.90678 0.0
H831 H 0.52463 0.8487 0.96432 0.0
H832 H 0.5704 0.90887 0.89804 0.0
H833 H 0.49595 0.92484 0.93164 0.0
H834 H 0.5086 0.90849 0.97291 0.0
H835 H 0.49917 0.90127 0.90902 0.0
C836 C 0.55642 0.87673 0.02666 0.0
C837 C 0.54557 0.8607 0.01693 0.0
C838 C 0.55469 0.89252 0.99385 0.0
C839 C 0.5421 0.89265 0.95052 0.0
C840 C 0.53127 0.87665 0.94081 0.0
H841 H 0.54451 0.95905 0.66136 0.0
H842 H 0.54999 0.93632 0.73246 0.0
C843 C 0.53287 0.86094 0.97383 0.0
C844 C 0.54089 0.9091 0.91396 0.0
H845 H 0.51001 0.93899 0.85455 0.0
C846 C 0.55721 0.91557 0.88896 0.0
C847 C 0.52377 0.91815 0.90267 0.0
C848 C 0.50593 0.91296 0.93094 0.0
C849 C 0.55676 0.93033 0.85175 0.0
C850 C 0.53946 0.93858 0.83802 0.0
C851 C 0.52326 0.93255 0.86441 0.0
C852 C 0.53763 0.95313 0.79554 0.0
C853 C 0.57488 0.93711 0.82815 0.0
C854 C 0.52879 0.97021 0.80682 0.0
C855 C 0.52522 0.98309 0.76579 0.0
C856 C 0.53025 0.9791 0.71236 0.0
C857 C 0.5399 0.96237 0.70166 0.0
C858 C 0.54336 0.94945 0.7426 0.0
H859 H 0.58694 0.93345 0.8541 0.0
H860 H 0.57708 0.93039 0.78843 0.0
H861 H 0.57465 0.95248 0.82251 0.0
H862 H 0.52426 0.97343 0.84731 0.0
H863 H 0.51799 0.99588 0.77588 0.0
H864 H 0.66837 0.51008 0.96006 0.0
H865 H 0.64142 0.50593 0.90101 0.0
H866 H 0.61866 0.55828 0.95635 0.0
H867 H 0.64533 0.5623 0.01679 0.0
H868 H 0.59173 0.53057 0.94698 0.0
H869 H 0.63395 0.53502 0.76123 0.0
H870 H 0.64196 0.51742 0.80698 0.0
H871 H 0.64294 0.54162 0.82635 0.0
C872 C 0.6575 0.52058 0.96049 0.0
C873 C 0.65914 0.53659 0.99316 0.0
C874 C 0.64219 0.5183 0.92607 0.0
C875 C 0.62818 0.53199 0.92329 0.0
C876 C 0.62937 0.54762 0.95733 0.0
H877 H 0.54766 0.53559 0.65671 0.0
H878 H 0.57262 0.5432 0.72056 0.0
C879 C 0.6447 0.54993 0.99172 0.0
C880 C 0.61243 0.53008 0.88448 0.0
H881 H 0.60256 0.52529 0.7509 0.0
C882 C 0.59409 0.5294 0.90407 0.0
C883 C 0.61541 0.52909 0.82832 0.0
C884 C 0.6346 0.53102 0.80429 0.0
C885 C 0.57878 0.52699 0.8693 0.0
C886 C 0.58187 0.52482 0.81335 0.0
C887 C 0.60014 0.5264 0.79369 0.0
C888 C 0.56651 0.52041 0.77475 0.0
C889 C 0.55943 0.52708 0.89302 0.0
C890 C 0.55493 0.50487 0.78309 0.0
C891 C 0.54081 0.50043 0.74639 0.0
C892 C 0.53825 0.51114 0.69985 0.0
C893 C 0.54964 0.52682 0.6916 0.0
C894 C 0.56383 0.53123 0.72827 0.0
H895 H 0.55892 0.53551 0.93055 0.0
H896 H 0.549 0.53273 0.86443 0.0
H897 H 0.55543 0.51257 0.90339 0.0
H898 H 0.55696 0.49596 0.81765 0.0
H899 H 0.53209 0.48837 0.75385 0.0
H900 H 0.95614 0.65818 0.99507 0.0
H901 H 0.96019 0.6312 0.93613 0.0
H902 H 0.01157 0.6544 0.87688 0.0
H903 H 0.00708 0.682 0.93332 0.0
H904 H 0.99095 0.64173 0.79579 0.0
H905 H 0.99337 0.58673 0.9516 0.0
H906 H 0.97241 0.60038 0.95362 0.0
H907 H 0.99448 0.61125 0.96811 0.0
C908 C 0.9683 0.65767 0.96943 0.0
C909 C 0.98125 0.67249 0.96929 0.0
C910 C 0.97073 0.642 0.93614 0.0
C911 C 0.98635 0.64048 0.90239 0.0
C912 C 0.99943 0.6551 0.90264 0.0
H913 H 0.02747 0.53949 0.75266 0.0
H914 H 0.02087 0.56706 0.80741 0.0
C915 C 0.99694 0.67086 0.93558 0.0
C916 C 0.98877 0.62411 0.86531 0.0
H917 H 0.99197 0.57646 0.86115 0.0
C918 C 0.99124 0.62745 0.81017 0.0
C919 C 0.98913 0.60541 0.88373 0.0
C920 C 0.98738 0.60069 0.94254 0.0
C921 C 0.99436 0.6128 0.7733 0.0
C922 C 0.99468 0.59405 0.79158 0.0
C923 C 0.99181 0.59072 0.84668 0.0
C924 C 0.99912 0.57776 0.75551 0.0
C925 C 0.998 0.61776 0.71551 0.0
C926 C 0.98931 0.5744 0.70731 0.0
C927 C 0.99336 0.55869 0.67527 0.0
C928 C 0.0072 0.5459 0.69099 0.0
C929 C 0.0169 0.54922 0.73913 0.0
C930 C 0.01303 0.56496 0.77068 0.0
H931 H 1.00256 0.63249 0.71109 0.0
H932 H 0.00888 0.60858 0.69839 0.0
H933 H 0.98502 0.61593 0.69185 0.0
H934 H 0.97811 0.5836 0.69513 0.0
H935 H 0.98529 0.55623 0.63914 0.0
H936 H 0.11488 0.18949 0.22975 0.0
H937 H 0.11779 0.16043 0.28092 0.0
H938 H 0.071 0.17671 0.37883 0.0
H939 H 0.06739 0.20503 0.32737 0.0
H940 H 0.1022 0.15565 0.43443 0.0
H941 H 0.0742 0.12259 0.24763 0.0
H942 H 0.09518 0.13636 0.24569 0.0
H943 H 0.07311 0.1476 0.25595 0.0
C944 C 0.10536 0.18703 0.26267 0.0
C945 C 0.09068 0.19961 0.27356 0.0
C946 C 0.10719 0.17048 0.29215 0.0
C947 C 0.09452 0.1664 0.33331 0.0
C948 C 0.08102 0.17967 0.34744 0.0
H949 H 0.02152 0.11498 0.507 0.0
H950 H 0.05095 0.12927 0.48323 0.0
C951 C 0.07904 0.19601 0.31783 0.0
C952 C 0.09266 0.1474 0.3558 0.0
H953 H 0.06718 0.10844 0.32912 0.0
C954 C 0.09514 0.14493 0.41123 0.0
C955 C 0.08392 0.1332 0.32533 0.0
C956 C 0.08138 0.13491 0.26532 0.0
C957 C 0.08712 0.12967 0.43785 0.0
C958 C 0.07574 0.11711 0.40848 0.0
C959 C 0.07556 0.1182 0.35211 0.0
C960 C 0.06073 0.10605 0.43454 0.0
C961 C 0.09002 0.12782 0.49757 0.0
C962 C 0.05627 0.08801 0.41612 0.0
C963 C 0.03897 0.08007 0.42824 0.0
C964 C 0.02586 0.09002 0.45914 0.0
C965 C 0.03113 0.10717 0.482 0.0
C966 C 0.04825 0.11519 0.46934 0.0
H967 H 0.10469 0.13113 0.50817 0.0
H968 H 0.08107 0.13809 0.51889 0.0
H969 H 0.08669 0.11356 0.51205 0.0
H970 H 0.06554 0.08068 0.38903 0.0
H971 H 0.03538 0.0668 0.40998 0.0
H972 H 0.31213 0.07933 0.31027 0.0
H973 H 0.34022 0.07774 0.3626 0.0
H974 H 0.36445 0.12196 0.26889 0.0
H975 H 0.33549 0.12469 0.21739 0.0
H976 H 0.38338 0.08777 0.26294 0.0
H977 H 0.37117 0.10565 0.47521 0.0
H978 H 0.35185 0.09261 0.44901 0.0
H979 H 0.3572 0.1152 0.42125 0.0
C980 C 0.32283 0.08954 0.30204 0.0
C981 C 0.32134 0.10205 0.25864 0.0
C982 C 0.33908 0.08855 0.3324 0.0
C983 C 0.3544 0.09982 0.32001 0.0
C984 C 0.3527 0.11322 0.27933 0.0
H985 H 0.4415 0.03835 0.49311 0.0
H986 H 0.42832 0.0674 0.45638 0.0
C987 C 0.33619 0.11454 0.24943 0.0
C988 C 0.3728 0.09439 0.34178 0.0
H989 H 0.39104 0.0779 0.45883 0.0
C990 C 0.38552 0.08626 0.30587 0.0
C991 C 0.37583 0.09267 0.39765 0.0
C992 C 0.36335 0.1022 0.43793 0.0
C993 C 0.3995 0.0742 0.32422 0.0
C994 C 0.40078 0.07033 0.37979 0.0
C995 C 0.38984 0.08059 0.41611 0.0
C996 C 0.41026 0.05333 0.39946 0.0
C997 C 0.41177 0.06461 0.28338 0.0
C998 C 0.40429 0.03591 0.38013 0.0
C999 C 0.41159 0.01949 0.40119 0.0
C1000 C 0.42498 0.02012 0.44222 0.0
C1001 C 0.43124 0.03755 0.46121 0.0
C1002 C 0.42375 0.05408 0.44035 0.0
H1003 H 0.41519 0.07428 0.25002 0.0
H1004 H 0.42494 0.05942 0.30138 0.0
H1005 H 0.40413 0.05258 0.26579 0.0
H1006 H 0.39356 0.03499 0.34957 0.0
H1007 H 0.40665 0.00625 0.38554 0.0
H1008 H 0.40183 0.34591 0.21496 0.0
H1009 H 0.40364 0.37226 0.278 0.0
H1010 H 0.43797 0.33919 0.3837 0.0
H1011 H 0.43538 0.31266 0.32222 0.0
H1012 H 0.41762 0.36618 0.43965 0.0
H1013 H 0.4539 0.3967 0.26223 0.0
H1014 H 0.42962 0.39149 0.25407 0.0
H1015 H 0.44614 0.37282 0.26274 0.0
C1016 C 0.40908 0.3441 0.25279 0.0
C1017 C 0.41866 0.32742 0.26365 0.0
C1018 C 0.4102 0.35916 0.28859 0.0
C1019 C 0.42145 0.35787 0.33465 0.0
C1020 C 0.42929 0.34054 0.34827 0.0
H1021 H 0.50378 0.4005 0.51464 0.0
H1022 H 0.47336 0.38769 0.49319 0.0
C1023 C 0.42782 0.32537 0.31311 0.0
C1024 C 0.42818 0.37489 0.36271 0.0
H1025 H 0.45851 0.41087 0.34434 0.0
C1026 C 0.42622 0.37626 0.41875 0.0
C1027 C 0.43929 0.38817 0.33539 0.0
C1028 C 0.44252 0.38726 0.27541 0.0
C1029 C 0.43613 0.38971 0.44852 0.0
C1030 C 0.44851 0.40184 0.42155 0.0
C1031 C 0.44904 0.40159 0.36518 0.0
C1032 C 0.46373 0.41202 0.44956 0.0
C1033 C 0.43378 0.39028 0.50868 0.0
C1034 C 0.46838 0.43031 0.43418 0.0
C1035 C 0.48616 0.43741 0.44475 0.0
C1036 C 0.49952 0.42636 0.47121 0.0
C1037 C 0.49401 0.40907 0.49247 0.0
C1038 C 0.47637 0.40189 0.48129 0.0
H1039 H 0.41911 0.38721 0.51981 0.0
H1040 H 0.44264 0.37932 0.52714 0.0
H1041 H 0.43774 0.40406 0.52578 0.0
H1042 H 0.45886 0.43844 0.40979 0.0
H1043 H 0.48987 0.45086 0.42816 0.0
H1044 H 0.20249 0.39542 0.23099 0.0
H1045 H 0.17269 0.39406 0.2797 0.0
H1046 H 0.17667 0.45317 0.31272 0.0
H1047 H 0.20631 0.45437 0.26677 0.0
H1048 H 0.16211 0.43583 0.39577 0.0
H1049 H 0.12611 0.41183 0.20913 0.0
H1050 H 0.1432 0.3966 0.23837 0.0
H1051 H 0.15035 0.41828 0.20863 0.0
C1052 C 0.19707 0.40798 0.24969 0.0
C1053 C 0.20672 0.42498 0.24524 0.0
C1054 C 0.18003 0.40722 0.27716 0.0
C1055 C 0.17224 0.42359 0.29909 0.0
C1056 C 0.18238 0.4403 0.29657 0.0
H1057 H 0.07909 0.48439 0.27709 0.0
H1058 H 0.10478 0.46224 0.27139 0.0
C1059 C 0.1994 0.44098 0.27023 0.0
C1060 C 0.15293 0.42443 0.32022 0.0
H1061 H 0.10807 0.42594 0.27499 0.0
C1062 C 0.15016 0.43331 0.36999 0.0
C1063 C 0.13736 0.42084 0.28676 0.0
C1064 C 0.13928 0.41144 0.23265 0.0
C1065 C 0.13286 0.44109 0.38377 0.0
C1066 C 0.11766 0.43898 0.3479 0.0
C1067 C 0.11984 0.4278 0.30184 0.0
C1068 C 0.10084 0.451 0.35137 0.0
C1069 C 0.13166 0.45307 0.43373 0.0
C1070 C 0.08984 0.45196 0.39794 0.0
C1071 C 0.07544 0.46508 0.40175 0.0
C1072 C 0.07141 0.47693 0.35831 0.0
C1073 C 0.08183 0.47532 0.31096 0.0
C1074 C 0.09647 0.4626 0.30769 0.0
H1075 H 0.14557 0.4558 0.45175 0.0
H1076 H 0.12503 0.46672 0.42462 0.0
H1077 H 0.12307 0.44586 0.46429 0.0
H1078 H 0.09252 0.44278 0.43152 0.0
H1079 H 0.06731 0.46584 0.43835 0.0
H1080 H 0.91895 0.79998 0.83593 0.0
H1081 H 0.92102 0.82108 0.75922 0.0
H1082 H 0.91787 0.86842 0.8663 0.0
H1083 H 0.91491 0.84746 0.94273 0.0
H1084 H 0.90676 0.87672 0.75716 0.0
H1085 H 0.97507 0.83974 0.77368 0.0
H1086 H 0.95509 0.82573 0.7577 0.0
H1087 H 0.95693 0.83664 0.82267 0.0
C1088 C 0.91761 0.81486 0.84287 0.0
C1089 C 0.91746 0.82212 0.89542 0.0
C1090 C 0.91887 0.82692 0.79894 0.0
C1091 C 0.92031 0.84626 0.80742 0.0
C1092 C 0.91704 0.85352 0.85893 0.0
H1093 H 0.98112 0.94138 0.74912 0.0
H1094 H 0.95397 0.92094 0.75613 0.0
C1095 C 0.91552 0.84151 0.90269 0.0
C1096 C 0.93012 0.85821 0.76816 0.0
H1097 H 0.97426 0.86705 0.72528 0.0
C1098 C 0.92141 0.87443 0.74881 0.0
C1099 C 0.9493 0.85525 0.75769 0.0
C1100 C 0.95975 0.8385 0.77916 0.0
C1101 C 0.93161 0.88815 0.72118 0.0
C1102 C 0.95102 0.88572 0.71402 0.0
C1103 C 0.95937 0.86894 0.73041 0.0
C1104 C 0.96372 0.90094 0.69686 0.0
C1105 C 0.92158 0.90528 0.70139 0.0
C1106 C 0.97798 0.89695 0.65999 0.0
C1107 C 0.99377 0.90822 0.65767 0.0
C1108 C 0.99537 0.924 0.69081 0.0
C1109 C 0.98018 0.92928 0.72301 0.0
C1110 C 0.96454 0.91768 0.72655 0.0
H1111 H 0.90714 0.9018 0.68881 0.0
H1112 H 0.92062 0.91551 0.73476 0.0
H1113 H 0.92895 0.91189 0.66718 0.0
H1114 H 0.97771 0.88415 0.63668 0.0
H1115 H 0.00536 0.90388 0.63288 0.0
H1116 H 0.70787 0.94008 0.83237 0.0
H1117 H 0.6829 0.94269 0.76601 0.0
H1118 H 0.64831 0.90655 0.86176 0.0
H1119 H 0.673 0.90484 0.92988 0.0
H1120 H 0.65762 0.92307 0.70304 0.0
H1121 H 0.62271 0.95613 0.87973 0.0
H1122 H 0.64662 0.94862 0.88243 0.0
H1123 H 0.62806 0.93177 0.88548 0.0
C1124 C 0.69521 0.93211 0.83813 0.0
C1125 C 0.69217 0.92246 0.88624 0.0
C1126 C 0.68093 0.93358 0.8002 0.0
C1127 C 0.66353 0.92527 0.80976 0.0
C1128 C 0.66146 0.91347 0.85432 0.0
H1129 H 0.56942 0.99065 0.71354 0.0
H1130 H 0.58367 0.96035 0.72796 0.0
C1131 C 0.67557 0.91238 0.89297 0.0
C1132 C 0.64705 0.93221 0.77978 0.0
H1133 H 0.6101 0.96154 0.79627 0.0
C1134 C 0.64692 0.93114 0.72337 0.0
C1135 C 0.63303 0.94269 0.80632 0.0
C1136 C 0.63258 0.94504 0.86672 0.0
C1137 C 0.63383 0.94118 0.69279 0.0
C1138 C 0.62079 0.95278 0.71939 0.0
C1139 C 0.62002 0.9526 0.77573 0.0
C1140 C 0.61001 0.96763 0.69167 0.0
C1141 C 0.63449 0.93969 0.6324 0.0
C1142 C 0.61952 0.98138 0.66237 0.0
C1143 C 0.61112 0.99862 0.65225 0.0
C1144 C 0.59328 1.00264 0.67266 0.0
C1145 C 0.58311 0.98815 0.69689 0.0
C1146 C 0.59132 0.97075 0.70561 0.0
H1147 H 0.6387 0.92541 0.61977 0.0
H1148 H 0.62082 0.94308 0.61384 0.0
H1149 H 0.64511 0.94953 0.6168 0.0
H1150 H 0.63401 0.97951 0.65158 0.0
H1151 H 0.61914 0.00922 0.63174 0.0
H1152 H 0.5599 0.71309 0.858 0.0
H1153 H 0.5594 0.6848 0.80385 0.0
H1154 H 0.61479 0.67096 0.85786 0.0
H1155 H 0.61564 0.69964 0.91183 0.0
H1156 H 0.58396 0.66424 0.72482 0.0
H1157 H 0.57779 0.63279 0.92896 0.0
H1158 H 0.57508 0.65754 0.91845 0.0
H1159 H 0.59778 0.64706 0.91482 0.0
C1160 C 0.57234 0.70453 0.85679 0.0
C1161 C 0.58771 0.7085 0.8901 0.0
C1162 C 0.572 0.6883 0.8257 0.0
C1163 C 0.58695 0.67573 0.82747 0.0
C1164 C 0.60306 0.68048 0.85637 0.0
H1165 H 0.55369 0.56026 0.80051 0.0
H1166 H 0.57627 0.58567 0.80186 0.0
C1167 C 0.60345 0.69678 0.88749 0.0
C1168 C 0.58389 0.65644 0.80827 0.0
H1169 H 0.57 0.61424 0.85598 0.0
C1170 C 0.58133 0.65308 0.75318 0.0
C1171 C 0.58055 0.64196 0.84547 0.0
C1172 C 0.58283 0.64489 0.90528 0.0
C1173 C 0.57467 0.63578 0.73449 0.0
C1174 C 0.56989 0.6218 0.77216 0.0
C1175 C 0.57365 0.62486 0.8269 0.0
C1176 C 0.55877 0.605 0.75781 0.0
C1177 C 0.57248 0.63289 0.67477 0.0
C1178 C 0.54173 0.607 0.73045 0.0
C1179 C 0.52907 0.59222 0.72815 0.0
C1180 C 0.53297 0.57538 0.7546 0.0
C1181 C 0.55036 0.57306 0.77962 0.0
C1182 C 0.56326 0.58761 0.78043 0.0
H1183 H 0.58358 0.64039 0.65247 0.0
H1184 H 0.57298 0.61788 0.66359 0.0
H1185 H 0.55892 0.63879 0.66166 0.0
H1186 H 0.53756 0.62036 0.71417 0.0
H1187 H 0.51566 0.59446 0.70917 0.0
H1188 H 0.81344 0.60859 0.90772 0.0
H1189 H 0.8404 0.61595 0.85109 0.0
H1190 H 0.84656 0.55735 0.8134 0.0
H1191 H 0.8193 0.55025 0.86663 0.0
H1192 H 0.87335 0.60699 0.87282 0.0
H1193 H 0.86234 0.57686 0.67452 0.0
H1194 H 0.84295 0.58103 0.71918 0.0
H1195 H 0.85524 0.55895 0.71984 0.0
C1196 C 0.82015 0.59744 0.88545 0.0
C1197 C 0.81447 0.5788 0.89216 0.0
C1198 C 0.83559 0.60164 0.85327 0.0
C1199 C 0.84551 0.58728 0.82725 0.0
C1200 C 0.83897 0.56885 0.83136 0.0
H1201 H 0.94457 0.54654 0.87778 0.0
H1202 H 0.91823 0.56765 0.87504 0.0
C1203 C 0.82353 0.5647 0.86284 0.0
C1204 C 0.86439 0.59049 0.80466 0.0
H1205 H 0.89372 0.56898 0.71683 0.0
C1206 C 0.87774 0.59928 0.83745 0.0
C1207 C 0.87037 0.58142 0.75712 0.0
C1208 C 0.85683 0.57429 0.71551 0.0
C1209 C 0.89685 0.59653 0.82869 0.0
C1210 C 0.90261 0.58403 0.7878 0.0
C1211 C 0.88943 0.5779 0.74986 0.0
C1212 C 0.92085 0.5742 0.79032 0.0
C1213 C 0.91056 0.60616 0.86545 0.0
C1214 C 0.93114 0.57043 0.74353 0.0
C1215 C 0.946 0.55776 0.74479 0.0
C1216 C 0.951 0.54887 0.79303 0.0
C1217 C 0.94132 0.55342 0.84022 0.0
C1218 C 0.9263 0.56573 0.83875 0.0
H1219 H 0.90602 0.62075 0.87337 0.0
H1220 H 0.91092 0.59888 0.90474 0.0
H1221 H 0.92483 0.60641 0.84823 0.0
H1222 H 0.92718 0.57662 0.70556 0.0
H1223 H 0.95321 0.55452 0.70773 0.0
H1224 H 0.03569 0.20077 0.83719 0.0
H1225 H 0.03315 0.17442 0.7748 0.0
H1226 H 0.98608 0.15358 0.86365 0.0
H1227 H 0.98785 0.18032 0.9242 0.0
H1228 H 0.03755 0.13861 0.79233 0.0
H1229 H 0.96621 0.14805 0.7151 0.0
H1230 H 0.97805 0.16598 0.75303 0.0
H1231 H 0.96612 0.1473 0.78703 0.0
C1232 C 0.02445 0.19089 0.84269 0.0
C1233 C 0.01197 0.19285 0.88606 0.0
C1234 C 0.02313 0.17566 0.80712 0.0
C1235 C 0.00926 0.16199 0.81372 0.0
C1236 C 0.99665 0.16405 0.85653 0.0
H1237 H 0.97558 0.05437 0.69746 0.0
H1238 H 0.98087 0.08447 0.74116 0.0
C1239 C 0.99787 0.17931 0.89183 0.0
C1240 C 0.00866 0.14499 0.77834 0.0
H1241 H 0.97914 0.11727 0.70552 0.0
C1242 C 0.0248 0.13402 0.77294 0.0
C1243 C 0.99219 0.13907 0.7519 0.0
C1244 C 0.97474 0.15085 0.75153 0.0
C1245 C 0.02468 0.11684 0.745 0.0
C1246 C 0.00784 0.11026 0.72144 0.0
C1247 C 0.99196 0.12181 0.72457 0.0
C1248 C 0.0058 0.0912 0.69613 0.0
C1249 C 0.04257 0.10586 0.74275 0.0
C1250 C 0.01809 0.08446 0.65624 0.0
C1251 C 0.01541 0.06675 0.63261 0.0
C1252 C 1.00008 0.05565 0.64718 0.0
C1253 C 0.98765 0.06251 0.686 0.0
C1254 C 0.99063 0.07984 0.71074 0.0
H1255 H 0.05196 0.10938 0.77684 0.0
H1256 H 0.03988 0.09073 0.74335 0.0
H1257 H 0.05001 0.10925 0.70497 0.0
H1258 H 0.02954 0.09299 0.64243 0.0
H1259 H 0.02491 0.06206 0.60157 0.0
H1260 H 0.31529 0.04975 0.7975 0.0
H1261 H 0.344 0.0442 0.74691 0.0
H1262 H 0.36367 0.00757 0.87177 0.0
H1263 H 0.33517 0.0132 0.92295 0.0
H1264 H 0.37999 0.05236 0.77912 0.0
H1265 H 0.37352 0.97674 0.73662 0.0
H1266 H 0.35407 0.99083 0.75857 0.0
H1267 H 0.37086 0.98242 0.80648 0.0
C1268 C 0.32566 0.04043 0.81421 0.0
C1269 C 0.32278 0.03193 0.86455 0.0
C1270 C 0.34208 0.03722 0.78505 0.0
C1271 C 0.35599 0.02531 0.8051 0.0
C1272 C 0.35302 0.0165 0.85473 0.0
H1273 H 0.46617 0.98728 0.71793 0.0
H1274 H 0.43594 0.99423 0.75859 0.0
C1275 C 0.33662 0.01972 0.88399 0.0
C1276 C 0.37404 0.02296 0.77586 0.0
H1277 H 0.40336 0.99022 0.72229 0.0
C1278 C 0.38509 0.03878 0.76636 0.0
C1279 C 0.38066 0.00529 0.75882 0.0
C1280 C 0.3691 0.98786 0.7651 0.0
C1281 C 0.40287 0.03738 0.74265 0.0
C1282 C 0.40981 0.0196 0.72688 0.0
C1283 C 0.39839 1.00385 0.73491 0.0
C1284 C 0.42898 0.01667 0.70388 0.0
C1285 C 0.41415 0.05498 0.73679 0.0
C1286 C 0.43558 0.02706 0.65978 0.0
C1287 C 0.45326 0.02347 0.63769 0.0
C1288 C 0.46452 0.00909 0.6583 0.0
C1289 C 0.45788 0.9986 0.70175 0.0
C1290 C 0.44051 1.00252 0.72475 0.0
H1291 H 0.40983 0.06584 0.76626 0.0
H1292 H 0.42915 0.05218 0.74236 0.0
H1293 H 0.41198 0.06076 0.69595 0.0
H1294 H 0.4269 0.0376 0.64132 0.0
H1295 H 0.45777 0.03141 0.60312 0.0
H1296 H 0.45174 0.33251 0.86411 0.0
H1297 H 0.45916 0.35911 0.80716 0.0
H1298 H 0.50784 0.33039 0.74803 0.0
H1299 H 0.5003 0.30336 0.8045 0.0
H1300 H 0.49273 0.37991 0.81411 0.0
H1301 H 0.48157 0.35046 0.60955 0.0
H1302 H 0.47178 0.33998 0.66909 0.0
H1303 H 0.49605 0.33702 0.65412 0.0
C1304 C 0.46381 0.33158 0.83814 0.0
C1305 C 0.47533 0.31564 0.83867 0.0
C1306 C 0.4681 0.34691 0.80584 0.0
C1307 C 0.48394 0.34671 0.7729 0.0
C1308 C 0.49538 0.33077 0.77254 0.0
H1309 H 0.53493 0.44796 0.64473 0.0
H1310 H 0.52987 0.41695 0.68323 0.0
C1311 C 0.49114 0.31539 0.80519 0.0
C1312 C 0.48896 0.36374 0.74191 0.0
H1313 H 0.49325 0.38132 0.61481 0.0
C1314 C 0.49294 0.38018 0.77055 0.0
C1315 C 0.48903 0.36413 0.68505 0.0
C1316 C 0.48426 0.34703 0.65237 0.0
C1317 C 0.49699 0.39698 0.74402 0.0
C1318 C 0.49729 0.39735 0.68718 0.0
C1319 C 0.49322 0.38095 0.65837 0.0
C1320 C 0.50113 0.41493 0.65755 0.0
C1321 C 0.50045 0.41435 0.77704 0.0
C1322 C 0.4869 0.42374 0.62833 0.0
C1323 C 0.48975 0.44147 0.60625 0.0
C1324 C 0.50691 0.45071 0.61294 0.0
C1325 C 0.5215 0.44133 0.63929 0.0
C1326 C 0.51861 0.42363 0.6615 0.0
H1327 H 0.49606 0.41259 0.81951 0.0
H1328 H 0.51557 0.41761 0.77667 0.0
H1329 H 0.4929 0.42648 0.75981 0.0
H1330 H 0.47336 0.41721 0.6243 0.0
H1331 H 0.47837 0.44811 0.58499 0.0
H1332 H 0.20836 0.51819 0.8488 0.0
H1333 H 0.17947 0.52314 0.79811 0.0
H1334 H 0.16701 0.46442 0.80869 0.0
H1335 H 0.19552 0.45937 0.86 0.0
H1336 H 0.16111 0.47935 0.70502 0.0
H1337 H 0.12661 0.52211 0.863 0.0
H1338 H 0.14911 0.53022 0.84173 0.0
H1339 H 0.14717 0.50831 0.87614 0.0
C1340 C 0.19946 0.50632 0.84064 0.0
C1341 C 0.20444 0.48835 0.85869 0.0
C1342 C 0.18291 0.50918 0.81154 0.0
C1343 C 0.17092 0.49418 0.79995 0.0
C1344 C 0.17602 0.47622 0.81693 0.0
H1345 H 0.05417 0.49157 0.71726 0.0
H1346 H 0.08511 0.48891 0.75719 0.0
C1347 C 0.19248 0.47335 0.84608 0.0
C1348 C 0.15292 0.49707 0.7709 0.0
H1349 H 0.11006 0.5177 0.78202 0.0
C1350 C 0.14998 0.48783 0.72167 0.0
C1351 C 0.13829 0.50796 0.79288 0.0
C1352 C 0.14029 0.51762 0.84654 0.0
C1353 C 0.13288 0.48915 0.69403 0.0
C1354 C 0.11829 0.50011 0.71592 0.0
C1355 C 0.12125 0.5094 0.76502 0.0
C1356 C 0.09954 0.50136 0.69005 0.0
C1357 C 0.13034 0.47831 0.64246 0.0
C1358 C 0.09719 0.50934 0.63892 0.0
C1359 C 0.0794 0.51067 0.61562 0.0
C1360 C 0.06358 0.50396 0.64283 0.0
C1361 C 0.06601 0.49617 0.69417 0.0
C1362 C 0.08374 0.49491 0.71747 0.0
H1363 H 0.14133 0.46754 0.63698 0.0
H1364 H 0.11651 0.47137 0.6415 0.0
H1365 H 0.13104 0.48807 0.60798 0.0
H1366 H 0.10909 0.51476 0.61731 0.0
H1367 H 0.07802 0.51696 0.5763 0.0
H1368 H 0.96426 0.82858 0.3135 0.0
H1369 H 0.96801 0.85734 0.36548 0.0
H1370 H 0.02569 0.86019 0.31876 0.0
H1371 H 0.02237 0.83102 0.26823 0.0
H1372 H 0.99565 0.86563 0.45209 0.0
H1373 H 1.00177 0.91204 0.27453 0.0
H1374 H 0.9915 0.88905 0.27059 0.0
H1375 H 0.01634 0.89157 0.27472 0.0
C1376 C 0.97789 0.83502 0.31495 0.0
C1377 C 0.99299 0.82726 0.28622 0.0
C1378 C 0.97993 0.85164 0.34439 0.0
C1379 C 0.99704 0.86112 0.3454 0.0
C1380 C 0.01225 0.85332 0.31781 0.0
H1381 H 0.03995 0.96443 0.47848 0.0
H1382 H 0.0339 0.93524 0.43001 0.0
C1383 C 0.01028 0.8366 0.28876 0.0
C1384 C 0.99903 0.87905 0.37565 0.0
H1385 H 0.00682 0.92585 0.35972 0.0
C1386 C 0.99799 0.87882 0.43193 0.0
C1387 C 1.00212 0.89627 0.34937 0.0
C1388 C 1.00288 0.89742 0.28894 0.0
C1389 C 1.00053 0.89519 0.46265 0.0
C1390 C 1.00365 0.91247 0.43651 0.0
C1391 C 0.00441 0.9127 0.38004 0.0
C1392 C 0.00707 0.93027 0.46685 0.0
C1393 C 1.00069 0.89367 0.52293 0.0
C1394 C 0.99404 0.93739 0.50401 0.0
C1395 C 0.99752 0.95415 0.53186 0.0
C1396 C 0.01394 0.96431 0.52234 0.0
C1397 C 0.02703 0.95706 0.48588 0.0
C1398 C 0.02357 0.94037 0.45811 0.0
H1399 H 1.00263 0.87903 0.53651 0.0
H1400 H 0.01204 0.90236 0.54016 0.0
H1401 H 0.98719 0.89876 0.53893 0.0
H1402 H 0.98105 0.93013 0.51102 0.0
H1403 H 0.98739 0.95917 0.56074 0.0
H1404 H 0.68159 0.00986 0.25711 0.0
H1405 H 0.65437 0.01645 0.31279 0.0
H1406 H 0.67332 0.9763 0.4294 0.0
H1407 H 0.70067 0.96961 0.37379 0.0
H1408 H 0.63726 0.97087 0.40423 0.0
H1409 H 0.64745 0.04565 0.45022 0.0
H1410 H 0.64841 0.04107 0.3794 0.0
H1411 H 0.6658 0.03116 0.42311 0.0
C1412 C 0.68028 1.00275 0.29523 0.0
C1413 C 0.69346 0.98923 0.31086 0.0
C1414 C 0.66463 0.00655 0.32716 0.0
C1415 C 0.66182 0.99708 0.37586 0.0
C1416 C 0.67514 0.98385 0.39215 0.0
H1417 H 0.55961 0.99417 0.57825 0.0
H1418 H 0.59077 0.98733 0.54323 0.0
C1419 C 0.69078 0.98 0.36016 0.0
C1420 C 0.64435 1.00001 0.40752 0.0
H1421 H 0.61667 0.03372 0.46338 0.0
C1422 C 0.63281 0.98459 0.41762 0.0
C1423 C 0.63859 0.01786 0.42566 0.0
C1424 C 0.65081 0.03484 0.41958 0.0
C1425 C 0.61528 0.98662 0.4424 0.0
C1426 C 0.60904 1.00464 0.45836 0.0
C1427 C 0.62106 0.01993 0.45038 0.0
C1428 C 0.5899 0.00833 0.48062 0.0
C1429 C 0.60345 0.96942 0.44893 0.0
C1430 C 0.57901 0.02284 0.45896 0.0
C1431 C 0.56149 0.02718 0.48034 0.0
C1432 C 0.55407 0.01677 0.52288 0.0
C1433 C 0.56474 1.00211 0.54445 0.0
C1434 C 0.58259 0.99813 0.52413 0.0
H1435 H 0.60743 0.95825 0.42003 0.0
H1436 H 0.60535 0.96382 0.49008 0.0
H1437 H 0.58857 0.97272 0.443 0.0
H1438 H 0.58412 0.031 0.42553 0.0
H1439 H 0.55365 0.03869 0.46339 0.0
H1440 H 0.56575 0.69955 0.32851 0.0
H1441 H 0.56208 0.67121 0.38218 0.0
H1442 H 0.5024 0.67521 0.36573 0.0
H1443 H 0.50596 0.70349 0.31176 0.0
H1444 H 0.54379 0.66266 0.47692 0.0
H1445 H 0.51274 0.62337 0.30657 0.0
H1446 H 0.52377 0.64579 0.29803 0.0
H1447 H 0.50033 0.64436 0.32324 0.0
C1448 C 0.55181 0.6946 0.33699 0.0
C1449 C 0.53615 0.70377 0.31534 0.0
C1450 C 0.54974 0.67831 0.36754 0.0
C1451 C 0.53199 0.67079 0.37711 0.0
C1452 C 0.51628 0.68041 0.35775 0.0
H1453 H 0.4912 0.56847 0.52253 0.0
H1454 H 0.49459 0.59975 0.48561 0.0
C1455 C 0.51834 0.69663 0.32697 0.0
C1456 C 0.52994 0.6526 0.40572 0.0
H1457 H 0.51291 0.60829 0.39096 0.0
C1458 C 0.53707 0.65076 0.4581 0.0
C1459 C 0.52126 0.63699 0.38116 0.0
C1460 C 0.51424 0.6376 0.32399 0.0
C1461 C 0.53542 0.63391 0.48683 0.0
C1462 C 0.52662 0.61837 0.46229 0.0
C1463 C 0.51954 0.62022 0.40995 0.0
C1464 C 0.5247 0.59994 0.48955 0.0
C1465 C 0.54279 0.633 0.54357 0.0
C1466 C 0.54047 0.58961 0.50495 0.0
C1467 C 0.53856 0.57158 0.52602 0.0
C1468 C 0.52085 0.5633 0.53135 0.0
C1469 C 0.50507 0.57403 0.51794 0.0
C1470 C 0.50699 0.59205 0.49692 0.0
H1471 H 0.54449 0.64714 0.56138 0.0
H1472 H 0.53338 0.62472 0.56968 0.0
H1473 H 0.55665 0.62611 0.54337 0.0
H1474 H 0.55431 0.59526 0.49923 0.0
H1475 H 0.55103 0.56402 0.53719 0.0
H1476 H 0.80105 0.54903 0.38302 0.0
H1477 H 0.8296 0.54668 0.43667 0.0
H1478 H 0.85396 0.51088 0.31613 0.0
H1479 H 0.82553 0.51311 0.26244 0.0
H1480 H 0.86166 0.49852 0.41764 0.0
H1481 H 0.87752 0.57415 0.40208 0.0
H1482 H 0.85518 0.56909 0.43091 0.0
H1483 H 0.85973 0.56303 0.36199 0.0
C1484 C 0.81246 0.54063 0.36793 0.0
C1485 C 0.81092 0.53132 0.31815 0.0
C1486 C 0.82883 0.53934 0.39862 0.0
C1487 C 0.84414 0.52889 0.38007 0.0
C1488 C 0.8424 0.51907 0.33138 0.0
H1489 H 0.96083 0.5369 0.45654 0.0
H1490 H 0.92941 0.53915 0.42049 0.0
C1491 C 0.82604 0.52028 0.30078 0.0
C1492 C 0.86213 0.52845 0.41043 0.0
H1493 H 0.89769 0.5561 0.45606 0.0
C1494 C 0.86949 0.51113 0.42629 0.0
C1495 C 0.87253 0.54487 0.42116 0.0
C1496 C 0.86597 0.56383 0.40277 0.0
C1497 C 0.88691 0.50974 0.45219 0.0
C1498 C 0.89718 0.52618 0.46355 0.0
C1499 C 0.88977 0.54351 0.44797 0.0
C1500 C 0.91621 0.52564 0.48803 0.0
C1501 C 0.89446 0.49062 0.46531 0.0
C1502 C 0.91939 0.51768 0.53881 0.0
C1503 C 0.93753 0.51649 0.55984 0.0
C1504 C 0.95287 0.52341 0.53081 0.0
C1505 C 0.94949 0.53182 0.48074 0.0
C1506 C 0.93143 0.53297 0.45974 0.0
H1507 H 0.88707 0.47944 0.44274 0.0
H1508 H 0.90957 0.4897 0.45606 0.0
H1509 H 0.8926 0.48792 0.50884 0.0
H1510 H 0.90787 0.51227 0.56208 0.0
H1511 H 0.93955 0.50998 0.59863 0.0
loop_
_geom_bond_atom_site_label_1
_geom_bond_atom_site_label_2
_geom_bond_distance
_geom_bond_site_symmetry_2
_ccdc_geom_bond_type
C0 C1 1.386 . S
C0 C2 1.397 1_556 S
C0 H24 0.931 . S
C1 C0 1.386 . S
C1 C5 1.397 1_556 S
C2 C0 1.397 1_554 S
C2 C3 1.384 . S
C2 H25 0.930 . S
C3 C2 1.384 . S
C3 C4 1.377 . S
C3 C6 1.481 . S
C4 C3 1.377 . S
C4 C5 1.389 . S
C4 H26 0.929 . S
C5 C1 1.397 1_554 S
C5 C4 1.389 . S
C5 H27 0.931 . S
C6 C3 1.481 . S
C6 C7 1.387 . S
C6 C11 1.390 . S
C7 C6 1.387 . S
C7 C8 1.401 . S
C7 H28 0.930 . S
C8 C7 1.401 . S
C8 C9 1.376 . S
C8 C17 1.511 . S
C9 C8 1.376 . S
C9 C10 1.392 . S
C9 H30 0.931 . S
C10 C9 1.392 . S
C10 C11 1.361 . S
C10 C12 1.500 . S
C11 C6 1.390 . S
C11 C10 1.361 . S
C11 H29 0.931 . S
C12 C10 1.500 . S
C12 C13 1.371 . S
C12 C14 1.365 . S
C13 C12 1.371 . S
C13 C23 1.386 . S
C13 H31 0.931 . S
C14 C12 1.365 . S
C14 C15 1.409 . S
C14 H32 0.929 . S
C15 C14 1.409 . S
C15 C16 1.380 . S
C15 H33 0.930 . S
C16 C15 1.380 . S
C16 C23 1.357 . S
C17 C8 1.511 . S
C17 C18 1.341 . S
C17 C19 1.371 . S
C18 C17 1.341 . S
C18 C22 1.394 . S
C18 H34 0.930 . S
C19 C17 1.371 . S
C19 C20 1.392 . S
C19 H35 0.931 . S
C20 C19 1.392 . S
C20 C21 1.331 . S
C20 H38 0.932 . S
C21 C20 1.331 . S
C21 C22 1.336 . S
C22 C18 1.394 . S
C22 C21 1.336 . S
C22 H37 0.929 . S
C23 C13 1.386 . S
C23 C16 1.357 . S
C23 H36 0.928 . S
H24 C0 0.931 . S
H25 C2 0.930 . S
H26 C4 0.929 . S
H27 C5 0.931 . S
H28 C7 0.930 . S
H29 C11 0.931 . S
H30 C9 0.931 . S
H31 C13 0.931 . S
H32 C14 0.929 . S
H33 C15 0.930 . S
H34 C18 0.930 . S
H35 C19 0.931 . S
H36 C23 0.928 . S
H37 C22 0.929 . S
H38 C20 0.932 . S
C39 C40 1.386 . S
C39 C41 1.397 1_556 S
C39 H63 0.931 . S
C40 C39 1.386 . S
C40 C44 1.397 1_556 S
C41 C39 1.397 1_554 S
C41 C42 1.384 . S
C41 H64 0.930 . S
C42 C41 1.384 . S
C42 C43 1.377 . S
C42 C45 1.481 . S
C43 C42 1.377 . S
C43 C44 1.389 . S
C43 H65 0.929 . S
C44 C40 1.397 1_554 S
C44 C43 1.389 . S
C44 H66 0.931 . S
C45 C42 1.481 . S
C45 C46 1.387 . S
C45 C50 1.390 . S
C46 C45 1.387 . S
C46 C47 1.401 . S
C46 H67 0.930 . S
C47 C46 1.401 . S
C47 C48 1.376 . S
C47 C56 1.511 . S
C48 C47 1.376 . S
C48 C49 1.392 . S
C48 H69 0.931 . S
C49 C48 1.392 . S
C49 C50 1.361 . S
C49 C51 1.500 . S
C50 C45 1.390 . S
C50 C49 1.361 . S
C50 H68 0.931 . S
C51 C49 1.500 . S
C51 C52 1.371 . S
C51 C53 1.365 . S
C52 C51 1.371 . S
C52 C62 1.386 . S
C52 H70 0.931 . S
C53 C51 1.365 . S
C53 C54 1.409 . S
C53 H71 0.929 . S
C54 C53 1.409 . S
C54 C55 1.380 . S
C54 H72 0.930 . S
C55 C54 1.380 . S
C55 C62 1.357 . S
C56 C47 1.511 . S
C56 C57 1.341 . S
C56 C58 1.371 . S
C57 C56 1.341 . S
C57 C61 1.394 . S
C57 H73 0.930 . S
C58 C56 1.371 . S
C58 C59 1.392 . S
C58 H74 0.931 . S
C59 C58 1.392 . S
C59 C60 1.331 . S
C59 H77 0.932 . S
C60 C59 1.331 . S
C60 C61 1.336 . S
C61 C57 1.394 . S
C61 C60 1.336 . S
C61 H76 0.929 . S
C62 C52 1.386 . S
C62 C55 1.357 . S
C62 H75 0.928 . S
H63 C39 0.931 . S
H64 C41 0.930 . S
H65 C43 0.929 . S
H66 C44 0.931 . S
H67 C46 0.930 . S
H68 C50 0.931 . S
H69 C48 0.931 . S
H70 C52 0.931 . S
H71 C53 0.929 . S
H72 C54 0.930 . S
H73 C57 0.930 . S
H74 C58 0.931 . S
H75 C62 0.928 . S
H76 C61 0.929 . S
H77 C59 0.932 . S
C78 C79 1.386 . S
C78 C80 1.397 1_556 S
C78 H102 0.931 . S
C79 C78 1.386 . S
C79 C83 1.397 1_556 S
C80 C78 1.397 1_554 S
C80 C81 1.384 . S
C80 H103 0.930 . S
C81 C80 1.384 . S
C81 C82 1.377 . S
C81 C84 1.481 . S
C82 C81 1.377 . S
C82 C83 1.389 . S
C82 H104 0.929 . S
C83 C79 1.397 1_554 S
C83 C82 1.389 . S
C83 H105 0.931 . S
C84 C81 1.481 . S
C84 C85 1.387 . S
C84 C89 1.390 . S
C85 C84 1.387 . S
C85 C86 1.401 . S
C85 H106 0.930 . S
C86 C85 1.401 . S
C86 C87 1.376 . S
C86 C95 1.511 . S
C87 C86 1.376 . S
C87 C88 1.392 . S
C87 H108 0.931 . S
C88 C87 1.392 . S
C88 C89 1.361 . S
C88 C90 1.500 . S
C89 C84 1.390 . S
C89 C88 1.361 . S
C89 H107 0.931 . S
C90 C88 1.500 . S
C90 C91 1.371 . S
C90 C92 1.365 . S
C91 C90 1.371 . S
C91 C101 1.386 . S
C91 H109 0.931 . S
C92 C90 1.365 . S
C92 C93 1.409 . S
C92 H110 0.929 . S
C93 C92 1.409 . S
C93 C94 1.380 . S
C93 H111 0.930 . S
C94 C93 1.380 . S
C94 C101 1.357 . S
C95 C86 1.511 . S
C95 C96 1.341 . S
C95 C97 1.371 . S
C96 C95 1.341 . S
C96 C100 1.394 . S
C96 H112 0.930 . S
C97 C95 1.371 . S
C97 C98 1.392 . S
C97 H113 0.931 . S
C98 C97 1.392 . S
C98 C99 1.331 . S
C98 H116 0.932 . S
C99 C98 1.331 . S
C99 C100 1.336 . S
C100 C96 1.394 . S
C100 C99 1.336 . S
C100 H115 0.929 . S
C101 C91 1.386 . S
C101 C94 1.357 . S
C101 H114 0.928 . S
H102 C78 0.931 . S
H103 C80 0.930 . S
H104 C82 0.929 . S
H105 C83 0.931 . S
H106 C85 0.930 . S
H107 C89 0.931 . S
H108 C87 0.931 . S
H109 C91 0.931 . S
H110 C92 0.929 . S
H111 C93 0.930 . S
H112 C96 0.930 . S
H113 C97 0.931 . S
H114 C101 0.928 . S
H115 C100 0.929 . S
H116 C98 0.932 . S
C117 C118 1.386 . S
C117 C119 1.397 . S
C117 H141 0.931 . S
C118 C117 1.386 . S
C118 C122 1.397 . S
C119 C117 1.397 . S
C119 C120 1.384 . S
C119 H142 0.930 . S
C120 C119 1.384 . S
C120 C121 1.377 . S
C120 C123 1.481 . S
C121 C120 1.377 . S
C121 C122 1.389 . S
C121 H143 0.929 . S
C122 C118 1.397 . S
C122 C121 1.389 . S
C122 H144 0.931 . S
C123 C120 1.481 . S
C123 C124 1.387 . S
C123 C128 1.390 . S
C124 C123 1.387 . S
C124 C125 1.401 . S
C124 H145 0.930 . S
C125 C124 1.401 . S
C125 C126 1.376 . S
C125 C134 1.511 . S
C126 C125 1.376 . S
C126 C127 1.392 . S
C126 H147 0.931 . S
C127 C126 1.392 . S
C127 C128 1.361 . S
C127 C129 1.500 . S
C128 C123 1.390 . S
C128 C127 1.361 . S
C128 H146 0.931 . S
C129 C127 1.500 . S
C129 C130 1.371 . S
C129 C131 1.365 . S
C130 C129 1.371 . S
C130 C140 1.386 1_554 S
C130 H148 0.930 1_554 S
C131 C129 1.365 . S
C131 C132 1.409 . S
C131 H149 0.929 . S
C132 C131 1.409 . S
C132 C133 1.380 1_554 S
C132 H150 0.930 . S
C133 C132 1.380 1_556 S
C133 C140 1.357 . S
C134 C125 1.511 . S
C134 C135 1.341 . S
C134 C136 1.371 . S
C135 C134 1.341 . S
C135 C139 1.394 . S
C135 H151 0.930 . S
C136 C134 1.371 . S
C136 C137 1.392 . S
C136 H152 0.931 . S
C137 C136 1.392 . S
C137 C138 1.331 . S
C137 H155 0.932 . S
C138 C137 1.331 . S
C138 C139 1.336 . S
C139 C135 1.394 . S
C139 C138 1.336 . S
C139 H154 0.929 . S
C140 C130 1.386 1_556 S
C140 C133 1.357 . S
C140 H153 0.928 . S
H141 C117 0.931 . S
H142 C119 0.930 . S
H143 C121 0.929 . S
H144 C122 0.931 . S
H145 C124 0.930 . S
H146 C128 0.931 . S
H147 C126 0.931 . S
H148 C130 0.930 1_556 S
H149 C131 0.929 . S
H150 C132 0.930 . S
H151 C135 0.930 . S
H152 C136 0.931 . S
H153 C140 0.928 . S
H154 C139 0.929 . S
H155 C137 0.932 . S
C156 C157 1.386 . S
C156 C158 1.397 . S
C156 H180 0.931 . S
C157 C156 1.386 . S
C157 C161 1.397 . S
C158 C156 1.397 . S
C158 C159 1.384 . S
C158 H181 0.930 . S
C159 C158 1.384 . S
C159 C160 1.377 . S
C159 C162 1.481 . S
C160 C159 1.377 . S
C160 C161 1.389 . S
C160 H182 0.929 . S
C161 C157 1.397 . S
C161 C160 1.389 . S
C161 H183 0.931 . S
C162 C159 1.481 . S
C162 C163 1.387 . S
C162 C167 1.390 . S
C163 C162 1.387 . S
C163 C164 1.401 . S
C163 H184 0.930 . S
C164 C163 1.401 . S
C164 C165 1.376 1_554 S
C164 C173 1.511 . S
C165 C164 1.376 1_556 S
C165 C166 1.392 . S
C165 H186 0.931 . S
C166 C165 1.392 . S
C166 C167 1.361 1_556 S
C166 C168 1.500 . S
C167 C162 1.390 . S
C167 C166 1.361 1_554 S
C167 H185 0.931 1_554 S
C168 C166 1.500 . S
C168 C169 1.371 . S
C168 C170 1.365 . S
C169 C168 1.371 . S
C169 C179 1.386 . S
C169 H187 0.931 . S
C170 C168 1.365 . S
C170 C171 1.409 . S
C170 H188 0.929 . S
C171 C170 1.409 . S
C171 C172 1.380 . S
C171 H189 0.930 . S
C172 C171 1.380 . S
C172 C179 1.357 . S
C173 C164 1.511 . S
C173 C174 1.341 . S
C173 C175 1.371 . S
C174 C173 1.341 . S
C174 C178 1.394 . S
C174 H190 0.930 . S
C175 C173 1.371 . S
C175 C176 1.392 . S
C175 H191 0.931 1_554 S
C176 C175 1.392 . S
C176 C177 1.331 . S
C176 H194 0.932 1_554 S
C177 C176 1.331 . S
C177 C178 1.336 . S
C178 C174 1.394 . S
C178 C177 1.336 . S
C178 H193 0.929 . S
C179 C169 1.386 . S
C179 C172 1.357 . S
C179 H192 0.928 . S
H180 C156 0.931 . S
H181 C158 0.930 . S
H182 C160 0.929 . S
H183 C161 0.931 . S
H184 C163 0.930 . S
H185 C167 0.931 1_556 S
H186 C165 0.931 . S
H187 C169 0.931 . S
H188 C170 0.929 . S
H189 C171 0.930 . S
H190 C174 0.930 . S
H191 C175 0.931 1_556 S
H192 C179 0.928 . S
H193 C178 0.929 . S
H194 C176 0.932 1_556 S
C195 C196 1.386 . S
C195 C197 1.397 . S
C195 H219 0.931 . S
C196 C195 1.386 . S
C196 C200 1.397 . S
C197 C195 1.397 . S
C197 C198 1.384 . S
C197 H220 0.930 . S
C198 C197 1.384 . S
C198 C199 1.377 . S
C198 C201 1.481 . S
C199 C198 1.377 . S
C199 C200 1.389 . S
C199 H221 0.929 . S
C200 C196 1.397 . S
C200 C199 1.389 . S
C200 H222 0.931 . S
C201 C198 1.481 . S
C201 C202 1.387 . S
C201 C206 1.390 1_554 S
C202 C201 1.387 . S
C202 C203 1.401 . S
C202 H223 0.930 . S
C203 C202 1.401 . S
C203 C204 1.376 1_554 S
C203 C212 1.511 . S
C204 C203 1.376 1_556 S
C204 C205 1.392 . S
C204 H225 0.931 . S
C205 C204 1.392 . S
C205 C206 1.361 . S
C205 C207 1.500 . S
C206 C201 1.390 1_556 S
C206 C205 1.361 . S
C206 H224 0.931 . S
C207 C205 1.500 . S
C207 C208 1.371 . S
C207 C209 1.365 . S
C208 C207 1.371 . S
C208 C218 1.386 . S
C208 H226 0.931 . S
C209 C207 1.365 . S
C209 C210 1.409 . S
C209 H227 0.929 . S
C210 C209 1.409 . S
C210 C211 1.380 . S
C210 H228 0.930 . S
C211 C210 1.380 . S
C211 C218 1.357 . S
C212 C203 1.511 . S
C212 C213 1.341 . S
C212 C214 1.371 1_554 S
C213 C212 1.341 . S
C213 C217 1.394 . S
C213 H229 0.930 . S
C214 C212 1.371 1_556 S
C214 C215 1.392 1_556 S
C214 H230 0.931 . S
C215 C214 1.392 1_554 S
C215 C216 1.331 . S
C215 H233 0.932 1_554 S
C216 C215 1.331 . S
C216 C217 1.336 . S
C217 C213 1.394 . S
C217 C216 1.336 . S
C217 H232 0.929 . S
C218 C208 1.386 . S
C218 C211 1.357 . S
C218 H231 0.928 . S
H219 C195 0.931 . S
H220 C197 0.930 . S
H221 C199 0.929 . S
H222 C200 0.931 . S
H223 C202 0.930 . S
H224 C206 0.931 . S
H225 C204 0.931 . S
H226 C208 0.931 . S
H227 C209 0.929 . S
H228 C210 0.930 . S
H229 C213 0.930 . S
H230 C214 0.931 . S
H231 C218 0.928 . S
H232 C217 0.929 . S
H233 C215 0.932 1_556 S
C234 C235 1.386 . S
C234 C236 1.397 . S
C234 H258 0.931 . S
C235 C234 1.386 . S
C235 C239 1.397 . S
C236 C234 1.397 . S
C236 C237 1.384 . S
C236 H259 0.930 . S
C237 C236 1.384 . S
C237 C238 1.377 . S
C237 C240 1.481 . S
C238 C237 1.377 . S
C238 C239 1.389 . S
C238 H260 0.929 . S
C239 C235 1.397 . S
C239 C238 1.389 . S
C239 H261 0.931 . S
C240 C237 1.481 . S
C240 C241 1.387 . S
C240 C245 1.390 1_554 S
C241 C240 1.387 . S
C241 C242 1.401 . S
C241 H262 0.930 . S
C242 C241 1.401 . S
C242 C243 1.376 1_554 S
C242 C251 1.511 . S
C243 C242 1.376 1_556 S
C243 C244 1.392 . S
C243 H264 0.931 . S
C244 C243 1.392 . S
C244 C245 1.361 . S
C244 C246 1.500 . S
C245 C240 1.390 1_556 S
C245 C244 1.361 . S
C245 H263 0.931 . S
C246 C244 1.500 . S
C246 C247 1.371 . S
C246 C248 1.365 . S
C247 C246 1.371 . S
C247 C257 1.386 . S
C247 H265 0.931 . S
C248 C246 1.365 . S
C248 C249 1.409 . S
C248 H266 0.929 . S
C249 C248 1.409 . S
C249 C250 1.380 . S
C249 H267 0.930 . S
C250 C249 1.380 . S
C250 C257 1.357 . S
C251 C242 1.511 . S
C251 C252 1.341 . S
C251 C253 1.371 1_554 S
C252 C251 1.341 . S
C252 C256 1.394 . S
C252 H268 0.930 . S
C253 C251 1.371 1_556 S
C253 C254 1.392 1_556 S
C253 H269 0.931 . S
C254 C253 1.392 1_554 S
C254 C255 1.331 . S
C254 H272 0.932 1_554 S
C255 C254 1.331 . S
C255 C256 1.336 . S
C256 C252 1.394 . S
C256 C255 1.336 . S
C256 H271 0.929 . S
C257 C247 1.386 . S
C257 C250 1.357 . S
C257 H270 0.928 . S
H258 C234 0.931 . S
H259 C236 0.930 . S
H260 C238 0.929 . S
H261 C239 0.931 . S
H262 C241 0.930 . S
H263 C245 0.931 . S
H264 C243 0.931 . S
H265 C247 0.931 . S
H266 C248 0.929 . S
H267 C249 0.930 . S
H268 C252 0.930 . S
H269 C253 0.931 . S
H270 C257 0.928 . S
H271 C256 0.929 . S
H272 C254 0.932 1_556 S
C273 C274 1.386 . S
C273 C275 1.397 . S
C273 H297 0.931 . S
C274 C273 1.386 . S
C274 C278 1.397 . S
C275 C273 1.397 . S
C275 C276 1.384 . S
C275 H298 0.930 . S
C276 C275 1.384 . S
C276 C277 1.377 . S
C276 C279 1.481 . S
C277 C276 1.377 . S
C277 C278 1.389 . S
C277 H299 0.929 . S
C278 C274 1.397 . S
C278 C277 1.389 . S
C278 H300 0.931 . S
C279 C276 1.481 . S
C279 C280 1.387 . S
C279 C284 1.390 1_556 S
C280 C279 1.387 . S
C280 C281 1.401 1_556 S
C280 H301 0.930 . S
C281 C280 1.401 1_554 S
C281 C282 1.376 . S
C281 C290 1.511 . S
C282 C281 1.376 . S
C282 C283 1.392 . S
C282 H303 0.931 . S
C283 C282 1.392 . S
C283 C284 1.361 . S
C283 C285 1.500 . S
C284 C279 1.390 1_554 S
C284 C283 1.361 . S
C284 H302 0.931 1_554 S
C285 C283 1.500 . S
C285 C286 1.371 . S
C285 C287 1.365 . S
C286 C285 1.371 . S
C286 C296 1.386 . S
C286 H304 0.931 . S
C287 C285 1.365 . S
C287 C288 1.409 . S
C287 H305 0.929 . S
C288 C287 1.409 . S
C288 C289 1.380 . S
C288 H306 0.930 . S
C289 C288 1.380 . S
C289 C296 1.357 . S
C290 C281 1.511 . S
C290 C291 1.341 . S
C290 C292 1.371 . S
C291 C290 1.341 . S
C291 C295 1.394 . S
C291 H307 0.930 1_554 S
C292 C290 1.371 . S
C292 C293 1.392 . S
C292 H308 0.931 . S
C293 C292 1.392 . S
C293 C294 1.331 . S
C293 H311 0.932 . S
C294 C293 1.331 . S
C294 C295 1.336 . S
C295 C291 1.394 . S
C295 C294 1.336 . S
C295 H310 0.929 1_554 S
C296 C286 1.386 . S
C296 C289 1.357 . S
C296 H309 0.928 . S
H297 C273 0.931 . S
H298 C275 0.930 . S
H299 C277 0.929 . S
H300 C278 0.931 . S
H301 C280 0.930 . S
H302 C284 0.931 1_556 S
H303 C282 0.931 . S
H304 C286 0.931 . S
H305 C287 0.929 . S
H306 C288 0.930 . S
H307 C291 0.930 1_556 S
H308 C292 0.931 . S
H309 C296 0.928 . S
H310 C295 0.929 1_556 S
H311 C293 0.932 . S
Gd312 N343 2.661 . S
Gd312 N349 2.601 . S
Gd312 O356 2.545 . S
Gd312 O357 2.606 1_655 S
Gd312 O359 2.429 . S
Gd312 O360 2.545 1_655 S
Gd312 O361 2.412 . S
Gd312 O363 2.362 1_545 S
Gd312 O364 2.324 1_655 S
Gd312 C371 2.828 . S
Gd313 N322 2.661 1_565 S
Gd313 N326 2.601 . S
Gd313 O357 2.362 1_565 S
Gd313 O358 2.324 1_455 S
Gd313 O362 2.545 . S
Gd313 O363 2.606 1_455 S
Gd313 O365 2.429 . S
Gd313 O366 2.545 . S
Gd313 O367 2.412 . S
Gd313 C380 2.828 . S
C314 C317 1.417 . S
C314 C319 1.431 . S
C314 C320 1.412 . S
C315 C318 1.437 . S
C315 C319 1.317 . S
C315 H334 0.929 . S
C316 C317 1.426 . S
C316 C318 1.413 . S
C316 N326 1.359 1_545 S
C317 C314 1.417 . S
C317 C316 1.426 . S
C317 N322 1.350 . S
C318 C315 1.437 . S
C318 C316 1.413 . S
C318 C328 1.391 1_545 S
C319 C314 1.431 . S
C319 C315 1.317 . S
C319 H330 0.930 . S
C320 C314 1.412 . S
C320 C321 1.355 . S
C320 H332 0.930 . S
C321 C320 1.355 . S
C321 C323 1.402 . S
C321 H333 0.930 1_455 S
N322 Gd313 2.661 1_545 S
N322 C317 1.350 . S
N322 C323 1.307 . S
C323 C321 1.402 . S
C323 N322 1.307 . S
C323 H324 0.930 1_455 S
H324 C323 0.930 1_655 S
C325 N326 1.334 . S
C325 C327 1.394 . S
C325 H329 0.930 . S
N326 Gd313 2.601 . S
N326 C316 1.359 1_565 S
N326 C325 1.334 . S
C327 C325 1.394 . S
C327 C328 1.359 . S
C327 H339 0.930 . S
C328 C318 1.391 1_565 S
C328 C327 1.359 . S
C328 H340 0.929 . S
H329 C325 0.930 . S
H330 C319 0.930 . S
H331 C348 0.930 . S
H332 C320 0.930 . S
H333 C321 0.930 1_655 S
H334 C315 0.929 . S
H335 C353 0.930 . S
H336 C344 0.930 . S
H337 C345 0.930 . S
H338 C369 0.929 . S
H339 C327 0.930 . S
H340 C328 0.929 . S
H341 C370 0.930 . S
H342 C351 0.930 . S
N343 Gd312 2.661 . S
N343 C347 1.348 1_545 S
N343 C348 1.307 1_645 S
C344 H336 0.930 . S
C344 C345 1.355 1_655 S
C344 C346 1.412 . S
C345 H337 0.930 . S
C345 C344 1.355 1_455 S
C345 C348 1.402 . S
C346 C344 1.412 . S
C346 C347 1.426 . S
C346 C370 1.431 . S
C347 N343 1.348 1_565 S
C347 C346 1.426 . S
C347 C350 1.420 1_565 S
C348 H331 0.930 . S
C348 N343 1.307 1_465 S
C348 C345 1.402 . S
N349 Gd312 2.601 . S
N349 C350 1.359 . S
N349 C353 1.334 . S
C350 C347 1.420 1_545 S
C350 N349 1.359 . S
C350 C354 1.413 . S
C351 H342 0.930 . S
C351 C352 1.359 . S
C351 C353 1.394 . S
C352 C351 1.359 . S
C352 C354 1.391 . S
C352 H355 0.929 . S
C353 H335 0.930 . S
C353 N349 1.334 . S
C353 C351 1.394 . S
C354 C350 1.413 . S
C354 C352 1.391 . S
C354 C369 1.437 1_545 S
H355 C352 0.929 . S
O356 Gd312 2.545 . S
O356 C371 1.258 . S
O357 Gd312 2.606 1_455 S
O357 Gd313 2.362 1_545 S
O357 C368 1.284 . S
O358 Gd313 2.324 1_655 S
O358 C378 1.254 1_565 S
O359 Gd312 2.429 . S
O359 C378 1.268 . S
O360 Gd312 2.545 1_455 S
O360 C368 1.250 . S
O361 Gd312 2.412 . S
O361 C371 1.252 . S
O362 Gd313 2.545 . S
O362 C380 1.258 . S
O363 Gd312 2.362 1_565 S
O363 Gd313 2.606 1_655 S
O363 C379 1.284 . S
O364 Gd312 2.324 1_455 S
O364 C387 1.254 . S
O365 Gd313 2.429 . S
O365 C387 1.268 1_565 S
O366 Gd313 2.545 . S
O366 C379 1.250 1_455 S
O367 Gd313 2.412 . S
O367 C380 1.252 . S
C368 O357 1.284 . S
C368 O360 1.250 . S
C369 H338 0.929 . S
C369 C354 1.437 1_565 S
C369 C370 1.317 . S
C370 H341 0.930 . S
C370 C346 1.431 . S
C370 C369 1.317 . S
C371 Gd312 2.828 . S
C371 O356 1.258 . S
C371 O361 1.252 . S
C371 C372 1.497 . S
C372 C371 1.497 . S
C372 C373 1.395 . S
C372 C374 1.425 . S
C373 C372 1.395 . S
C373 C376 1.398 . S
C373 H388 0.930 . S
C374 C372 1.425 . S
C374 C375 1.394 . S
C374 H389 0.883 1_655 S
C375 C374 1.394 . S
C375 C377 1.387 . S
C376 C373 1.398 . S
C376 C377 1.380 . S
C376 H390 0.930 . S
C377 C375 1.387 . S
C377 C376 1.380 . S
C377 H391 0.930 . S
C378 O358 1.254 1_545 S
C378 O359 1.268 . S
C379 O363 1.284 . S
C379 O366 1.250 1_655 S
C380 Gd313 2.828 . S
C380 O362 1.258 . S
C380 O367 1.252 . S
C380 C381 1.497 . S
C381 C380 1.497 . S
C381 C382 1.395 . S
C381 C383 1.380 . S
C382 C381 1.395 . S
C382 C385 1.398 . S
C382 H392 0.930 . S
C383 C381 1.380 . S
C383 C384 1.391 . S
C383 H393 0.930 1_455 S
C384 C383 1.391 . S
C384 C386 1.387 . S
C385 C382 1.398 . S
C385 C386 1.380 . S
C385 H394 0.930 . S
C386 C384 1.387 . S
C386 C385 1.380 . S
C386 H395 0.930 . S
C387 O364 1.254 . S
C387 O365 1.268 1_545 S
H388 C373 0.930 . S
H389 C374 0.883 1_455 S
H390 C376 0.930 . S
H391 C377 0.930 . S
H392 C382 0.930 . S
H393 C383 0.930 1_655 S
H394 C385 0.930 . S
H395 C386 0.930 . S
Gd396 N427 2.661 . S
Gd396 N433 2.601 . S
Gd396 O440 2.545 . S
Gd396 O441 2.606 1_565 S
Gd396 O443 2.429 . S
Gd396 O444 2.545 1_565 S
Gd396 O445 2.424 . S
Gd396 O447 2.362 . S
Gd396 O448 2.324 1_565 S
Gd396 C455 2.828 . S
Gd397 N406 2.661 . S
Gd397 N410 2.601 . S
Gd397 O441 2.362 . S
Gd397 O442 2.324 1_545 S
Gd397 O446 2.545 . S
Gd397 O447 2.606 1_545 S
Gd397 O449 2.429 . S
Gd397 O450 2.545 . S
Gd397 O451 2.412 . S
Gd397 C464 2.828 . S
C398 C401 1.417 . S
C398 C403 1.431 . S
C398 C404 1.412 . S
C399 C402 1.437 . S
C399 C403 1.317 . S
C399 H418 0.929 . S
C400 C401 1.426 . S
C400 C402 1.413 . S
C400 N410 1.359 . S
C401 C398 1.417 . S
C401 C400 1.426 . S
C401 N406 1.350 . S
C402 C399 1.437 . S
C402 C400 1.413 . S
C402 C412 1.391 . S
C403 C398 1.431 . S
C403 C399 1.317 . S
C403 H414 0.930 . S
C404 C398 1.412 . S
C404 C405 1.355 . S
C404 H416 0.930 . S
C405 C404 1.355 . S
C405 C407 1.402 . S
C405 H417 0.930 1_545 S
N406 Gd397 2.661 . S
N406 C401 1.350 . S
N406 C407 1.307 . S
C407 C405 1.402 . S
C407 N406 1.307 . S
C407 H408 0.930 1_545 S
H408 C407 0.930 1_565 S
C409 N410 1.334 . S
C409 C411 1.394 . S
C409 H413 0.930 . S
N410 Gd397 2.601 . S
N410 C400 1.359 . S
N410 C409 1.334 . S
C411 C409 1.394 . S
C411 C412 1.359 . S
C411 H423 0.930 . S
C412 C402 1.391 . S
C412 C411 1.359 . S
C412 H424 0.929 . S
H413 C409 0.930 . S
H414 C403 0.930 . S
H415 C432 0.930 . S
H416 C404 0.930 . S
H417 C405 0.930 1_565 S
H418 C399 0.929 . S
H419 C437 0.930 . S
H420 C428 0.930 . S
H421 C429 0.930 . S
H422 C453 0.929 . S
H423 C411 0.930 . S
H424 C412 0.929 . S
H425 C454 0.930 . S
H426 C435 0.930 . S
N427 Gd396 2.661 . S
N427 C431 1.350 . S
N427 C432 1.307 1_565 S
C428 H420 0.930 . S
C428 C429 1.355 1_565 S
C428 C430 1.412 . S
C429 H421 0.930 . S
C429 C428 1.355 1_545 S
C429 C432 1.402 . S
C430 C428 1.412 . S
C430 C431 1.417 . S
C430 C454 1.431 . S
C431 N427 1.350 . S
C431 C430 1.417 . S
C431 C434 1.426 . S
C432 H415 0.930 . S
C432 N427 1.307 1_545 S
C432 C429 1.402 . S
N433 Gd396 2.601 . S
N433 C434 1.359 . S
N433 C437 1.334 . S
C434 C431 1.426 . S
C434 N433 1.359 . S
C434 C438 1.413 . S
C435 H426 0.930 . S
C435 C436 1.359 . S
C435 C437 1.394 . S
C436 C435 1.359 . S
C436 C438 1.391 . S
C436 H439 0.929 . S
C437 H419 0.930 . S
C437 N433 1.334 . S
C437 C435 1.394 . S
C438 C434 1.413 . S
C438 C436 1.391 . S
C438 C453 1.437 . S
H439 C436 0.929 . S
O440 Gd396 2.545 . S
O440 C455 1.258 . S
O441 Gd396 2.606 1_545 S
O441 Gd397 2.362 . S
O441 C452 1.284 . S
O442 Gd397 2.324 1_565 S
O442 C462 1.254 . S
O443 Gd396 2.429 . S
O443 C462 1.268 . S
O444 Gd396 2.545 1_545 S
O444 C452 1.250 . S
O445 Gd396 2.424 . S
O445 C455 1.293 . S
O446 Gd397 2.545 . S
O446 C464 1.258 . S
O447 Gd396 2.362 . S
O447 Gd397 2.606 1_565 S
O447 C463 1.284 . S
O448 Gd396 2.324 1_545 S
O448 C471 1.254 . S
O449 Gd397 2.429 . S
O449 C471 1.268 . S
O450 Gd397 2.545 . S
O450 C463 1.250 1_545 S
O451 Gd397 2.412 . S
O451 C464 1.252 . S
C452 O441 1.284 . S
C452 O444 1.250 . S
C453 H422 0.929 . S
C453 C438 1.437 . S
C453 C454 1.317 . S
C454 H425 0.930 . S
C454 C430 1.431 . S
C454 C453 1.317 . S
C455 Gd396 2.828 . S
C455 O440 1.258 . S
C455 O445 1.293 . S
C455 C456 1.497 . S
C456 C455 1.497 . S
C456 C457 1.395 . S
C456 C458 1.397 . S
C457 C456 1.395 . S
C457 C460 1.398 . S
C457 H472 0.930 . S
C458 C456 1.397 . S
C458 C459 1.392 . S
C458 H473 0.912 1_565 S
C459 C458 1.392 . S
C459 C461 1.387 . S
C460 C457 1.398 . S
C460 C461 1.380 . S
C460 H474 0.930 . S
C461 C459 1.387 . S
C461 C460 1.380 . S
C461 H475 0.930 . S
C462 O442 1.254 . S
C462 O443 1.268 . S
C463 O447 1.284 . S
C463 O450 1.250 1_565 S
C464 Gd397 2.828 . S
C464 O446 1.258 . S
C464 O451 1.252 . S
C464 C465 1.497 . S
C465 C464 1.497 . S
C465 C466 1.395 . S
C465 C467 1.380 . S
C466 C465 1.395 . S
C466 C469 1.398 . S
C466 H476 0.930 . S
C467 C465 1.380 . S
C467 C468 1.391 . S
C467 H477 0.931 . S
C468 C467 1.391 . S
C468 C470 1.387 . S
C469 C466 1.398 . S
C469 C470 1.380 . S
C469 H478 0.930 . S
C470 C468 1.387 . S
C470 C469 1.380 . S
C470 H479 0.930 . S
C471 O448 1.254 . S
C471 O449 1.268 . S
H472 C457 0.930 . S
H473 C458 0.912 1_545 S
H474 C460 0.930 . S
H475 C461 0.930 . S
H476 C466 0.930 . S
H477 C467 0.931 . S
H478 C469 0.930 . S
H479 C470 0.930 . S
Gd480 N511 2.661 . S
Gd480 N517 2.601 . S
Gd480 O524 2.545 . S
Gd480 O525 2.606 . S
Gd480 O527 2.429 . S
Gd480 O528 2.545 . S
Gd480 O529 2.412 . S
Gd480 O531 2.362 . S
Gd480 O532 2.324 . S
Gd480 C539 2.828 . S
Gd481 N490 2.661 . S
Gd481 N494 2.601 . S
Gd481 O525 2.362 . S
Gd481 O526 2.324 . S
Gd481 O530 2.545 . S
Gd481 O531 2.606 . S
Gd481 O533 2.429 . S
Gd481 O534 2.545 . S
Gd481 O535 2.412 . S
Gd481 C548 2.828 . S
C482 C485 1.417 . S
C482 C487 1.431 . S
C482 C488 1.412 . S
C483 C486 1.437 . S
C483 C487 1.317 . S
C483 H502 0.929 . S
C484 C485 1.426 . S
C484 C486 1.413 . S
C484 N494 1.359 . S
C485 C482 1.417 . S
C485 C484 1.426 . S
C485 N490 1.350 . S
C486 C483 1.437 . S
C486 C484 1.413 . S
C486 C496 1.391 . S
C487 C482 1.431 . S
C487 C483 1.317 . S
C487 H498 0.930 . S
C488 C482 1.412 . S
C488 C489 1.355 . S
C488 H500 0.930 . S
C489 C488 1.355 . S
C489 C491 1.402 . S
C489 H501 0.930 . S
N490 Gd481 2.661 . S
N490 C485 1.350 . S
N490 C491 1.307 . S
C491 C489 1.402 . S
C491 N490 1.307 . S
C491 H492 0.930 . S
H492 C491 0.930 . S
C493 N494 1.334 . S
C493 C495 1.394 . S
C493 H497 0.930 . S
N494 Gd481 2.601 . S
N494 C484 1.359 . S
N494 C493 1.334 . S
C495 C493 1.394 . S
C495 C496 1.359 . S
C495 H507 0.930 . S
C496 C486 1.391 . S
C496 C495 1.359 . S
C496 H508 0.929 . S
H497 C493 0.930 . S
H498 C487 0.930 . S
H499 C516 0.930 . S
H500 C488 0.930 . S
H501 C489 0.930 . S
H502 C483 0.929 . S
H503 C521 0.930 . S
H504 C512 0.930 . S
H505 C513 0.930 . S
H506 C537 0.929 . S
H507 C495 0.930 . S
H508 C496 0.929 . S
H509 C538 0.930 . S
H510 C519 0.930 . S
N511 Gd480 2.661 . S
N511 C515 1.350 . S
N511 C516 1.307 . S
C512 H504 0.930 . S
C512 C513 1.355 . S
C512 C514 1.412 . S
C513 H505 0.930 . S
C513 C512 1.355 . S
C513 C516 1.402 . S
C514 C512 1.412 . S
C514 C515 1.417 . S
C514 C538 1.431 . S
C515 N511 1.350 . S
C515 C514 1.417 . S
C515 C518 1.426 . S
C516 H499 0.930 . S
C516 N511 1.307 . S
C516 C513 1.402 . S
N517 Gd480 2.601 . S
N517 C518 1.359 . S
N517 C521 1.334 . S
C518 C515 1.426 . S
C518 N517 1.359 . S
C518 C522 1.413 . S
C519 H510 0.930 . S
C519 C520 1.359 . S
C519 C521 1.394 . S
C520 C519 1.359 . S
C520 C522 1.391 . S
C520 H523 0.929 . S
C521 H503 0.930 . S
C521 N517 1.334 . S
C521 C519 1.394 . S
C522 C518 1.413 . S
C522 C520 1.391 . S
C522 C537 1.437 . S
H523 C520 0.929 . S
O524 Gd480 2.545 . S
O524 C539 1.258 . S
O525 Gd480 2.606 . S
O525 Gd481 2.362 . S
O525 C536 1.284 . S
O526 Gd481 2.324 . S
O526 C546 1.254 . S
O527 Gd480 2.429 . S
O527 C546 1.268 . S
O528 Gd480 2.545 . S
O528 C536 1.250 . S
O529 Gd480 2.412 . S
O529 C539 1.252 . S
O530 Gd481 2.545 . S
O530 C548 1.258 . S
O531 Gd480 2.362 . S
O531 Gd481 2.606 . S
O531 C547 1.284 . S
O532 Gd480 2.324 . S
O532 C555 1.254 . S
O533 Gd481 2.429 . S
O533 C555 1.268 . S
O534 Gd481 2.545 . S
O534 C547 1.250 . S
O535 Gd481 2.412 . S
O535 C548 1.252 . S
C536 O525 1.284 . S
C536 O528 1.250 . S
C537 H506 0.929 . S
C537 C522 1.437 . S
C537 C538 1.317 . S
C538 H509 0.930 . S
C538 C514 1.431 . S
C538 C537 1.317 . S
C539 Gd480 2.828 . S
C539 O524 1.258 . S
C539 O529 1.252 . S
C539 C540 1.497 . S
C540 C539 1.497 . S
C540 C541 1.395 . S
C540 C542 1.380 . S
C541 C540 1.395 . S
C541 C544 1.398 . S
C541 H556 0.930 . S
C542 C540 1.380 . S
C542 C543 1.391 . S
C542 H557 0.930 . S
C543 C542 1.391 . S
C543 C545 1.387 . S
C544 C541 1.398 . S
C544 C545 1.380 . S
C544 H558 0.930 . S
C545 C543 1.387 . S
C545 C544 1.380 . S
C545 H559 0.930 . S
C546 O526 1.254 . S
C546 O527 1.268 . S
C547 O531 1.284 . S
C547 O534 1.250 . S
C548 Gd481 2.828 . S
C548 O530 1.258 . S
C548 O535 1.252 . S
C548 C549 1.497 . S
C549 C548 1.497 . S
C549 C550 1.395 . S
C549 C551 1.380 . S
C550 C549 1.395 . S
C550 C553 1.398 . S
C550 H560 0.930 . S
C551 C549 1.380 . S
C551 C552 1.391 . S
C551 H561 0.930 . S
C552 C551 1.391 . S
C552 C554 1.387 . S
C553 C550 1.398 . S
C553 C554 1.380 . S
C553 H562 0.930 . S
C554 C552 1.387 . S
C554 C553 1.380 . S
C554 H563 0.930 . S
C555 O532 1.254 . S
C555 O533 1.268 . S
H556 C541 0.930 . S
H557 C542 0.930 . S
H558 C544 0.930 . S
H559 C545 0.930 . S
H560 C550 0.930 . S
H561 C551 0.930 . S
H562 C553 0.930 . S
H563 C554 0.930 . S
Gd564 N595 2.661 . S
Gd564 N601 2.601 . S
Gd564 O608 2.545 . S
Gd564 O609 2.606 1_655 S
Gd564 O611 2.429 1_655 S
Gd564 O612 2.545 . S
Gd564 O613 2.412 . S
Gd564 O615 2.362 1_655 S
Gd564 O616 2.324 . S
Gd564 C623 2.828 . S
Gd565 N574 2.661 . S
Gd565 N578 2.601 . S
Gd565 O609 2.362 . S
Gd565 O610 2.324 . S
Gd565 O614 2.545 . S
Gd565 O615 2.606 . S
Gd565 O617 2.429 1_455 S
Gd565 O618 2.545 . S
Gd565 O619 2.412 . S
Gd565 C632 2.828 . S
C566 C569 1.417 . S
C566 C571 1.431 . S
C566 C572 1.412 . S
C567 C570 1.437 . S
C567 C571 1.317 . S
C567 H586 0.929 . S
C568 C569 1.426 . S
C568 C570 1.413 . S
C568 N578 1.359 . S
C569 C566 1.417 . S
C569 C568 1.426 . S
C569 N574 1.350 . S
C570 C567 1.437 . S
C570 C568 1.413 . S
C570 C580 1.391 . S
C571 C566 1.431 . S
C571 C567 1.317 . S
C571 H582 0.930 . S
C572 C566 1.412 . S
C572 C573 1.355 . S
C572 H584 0.930 . S
C573 C572 1.355 . S
C573 C575 1.402 . S
C573 H585 0.930 . S
N574 Gd565 2.661 . S
N574 C569 1.350 . S
N574 C575 1.307 . S
C575 C573 1.402 . S
C575 N574 1.307 . S
C575 H576 0.930 . S
H576 C575 0.930 . S
C577 N578 1.334 . S
C577 C579 1.394 . S
C577 H581 0.930 1_455 S
N578 Gd565 2.601 . S
N578 C568 1.359 . S
N578 C577 1.334 . S
C579 C577 1.394 . S
C579 C580 1.359 . S
C579 H591 0.930 1_455 S
C580 C570 1.391 . S
C580 C579 1.359 . S
C580 H592 0.929 . S
H581 C577 0.930 1_655 S
H582 C571 0.930 . S
H583 C600 0.930 . S
H584 C572 0.930 . S
H585 C573 0.930 . S
H586 C567 0.929 . S
H587 C605 0.930 . S
H588 C596 0.930 . S
H589 C597 0.930 . S
H590 C621 0.929 . S
H591 C579 0.930 1_655 S
H592 C580 0.929 . S
H593 C622 0.930 . S
H594 C603 0.930 . S
N595 Gd564 2.661 . S
N595 C599 1.350 . S
N595 C600 1.307 . S
C596 H588 0.930 . S
C596 C597 1.355 . S
C596 C598 1.412 . S
C597 H589 0.930 . S
C597 C596 1.355 . S
C597 C600 1.402 . S
C598 C596 1.412 . S
C598 C599 1.417 . S
C598 C622 1.431 . S
C599 N595 1.350 . S
C599 C598 1.417 . S
C599 C602 1.426 . S
C600 H583 0.930 . S
C600 N595 1.307 . S
C600 C597 1.402 . S
N601 Gd564 2.601 . S
N601 C602 1.359 . S
N601 C605 1.334 1_655 S
C602 C599 1.426 . S
C602 N601 1.359 . S
C602 C606 1.413 . S
C603 H594 0.930 . S
C603 C604 1.359 1_455 S
C603 C605 1.394 . S
C604 C603 1.359 1_655 S
C604 C606 1.391 . S
C604 H607 0.929 . S
C605 H587 0.930 . S
C605 N601 1.334 1_455 S
C605 C603 1.394 . S
C606 C602 1.413 . S
C606 C604 1.391 . S
C606 C621 1.437 . S
H607 C604 0.929 . S
O608 Gd564 2.545 . S
O608 C623 1.258 . S
O609 Gd564 2.606 1_455 S
O609 Gd565 2.362 . S
O609 C620 1.284 1_455 S
O610 Gd565 2.324 . S
O610 C630 1.254 . S
O611 Gd564 2.429 1_455 S
O611 C630 1.268 . S
O612 Gd564 2.545 . S
O612 C620 1.250 . S
O613 Gd564 2.412 . S
O613 C623 1.252 . S
O614 Gd565 2.545 . S
O614 C632 1.258 . S
O615 Gd564 2.362 1_455 S
O615 Gd565 2.606 . S
O615 C631 1.284 . S
O616 Gd564 2.324 . S
O616 C639 1.254 . S
O617 Gd565 2.429 1_655 S
O617 C639 1.268 . S
O618 Gd565 2.545 . S
O618 C631 1.250 . S
O619 Gd565 2.412 . S
O619 C632 1.252 . S
C620 O609 1.284 1_655 S
C620 O612 1.250 . S
C621 H590 0.929 . S
C621 C606 1.437 . S
C621 C622 1.317 . S
C622 H593 0.930 . S
C622 C598 1.431 . S
C622 C621 1.317 . S
C623 Gd564 2.828 . S
C623 O608 1.258 . S
C623 O613 1.252 . S
C623 C624 1.497 . S
C624 C623 1.497 . S
C624 C625 1.395 . S
C624 C626 1.380 . S
C625 C624 1.395 . S
C625 C628 1.398 . S
C625 H640 0.930 . S
C626 C624 1.380 . S
C626 C627 1.391 . S
C626 H641 0.930 . S
C627 C626 1.391 . S
C627 C629 1.387 . S
C628 C625 1.398 . S
C628 C629 1.380 . S
C628 H642 0.930 . S
C629 C627 1.387 . S
C629 C628 1.380 . S
C629 H643 0.930 . S
C630 O610 1.254 . S
C630 O611 1.268 . S
C631 O615 1.284 . S
C631 O618 1.250 . S
C632 Gd565 2.828 . S
C632 O614 1.258 . S
C632 O619 1.252 . S
C632 C633 1.497 . S
C633 C632 1.497 . S
C633 C634 1.395 . S
C633 C635 1.380 . S
C634 C633 1.395 . S
C634 C637 1.398 . S
C634 H644 0.930 . S
C635 C633 1.380 . S
C635 C636 1.391 . S
C635 H645 0.930 . S
C636 C635 1.391 . S
C636 C638 1.387 . S
C637 C634 1.398 . S
C637 C638 1.380 . S
C637 H646 0.930 . S
C638 C636 1.387 . S
C638 C637 1.380 . S
C638 H647 0.930 . S
C639 O616 1.254 . S
C639 O617 1.268 . S
H640 C625 0.930 . S
H641 C626 0.930 . S
H642 C628 0.930 . S
H643 C629 0.930 . S
H644 C634 0.930 . S
H645 C635 0.930 . S
H646 C637 0.930 . S
H647 C638 0.930 . S
H648 C656 0.929 . S
H649 C658 0.930 . S
H650 C660 0.930 . S
H651 C663 0.929 . S
H652 C666 0.930 . S
H653 C668 0.960 . S
H654 C668 0.960 . S
H655 C668 0.960 . S
C656 H648 0.929 . S
C656 C657 1.377 . S
C656 C658 1.384 . S
C657 C656 1.377 . S
C657 C663 1.390 . S
C658 H649 0.930 . S
C658 C656 1.384 . S
C658 C659 1.372 . S
C659 C658 1.372 . S
C659 C660 1.400 . S
C659 C664 1.490 . S
C660 H650 0.930 . S
C660 C659 1.400 . S
C660 C663 1.386 . S
H661 C677 0.930 1_565 S
H662 C678 0.931 . S
C663 H651 0.929 . S
C663 C657 1.390 . S
C663 C660 1.386 . S
C664 C659 1.490 . S
C664 C666 1.395 . S
C664 C667 1.403 . S
H665 C671 0.930 . S
C666 H652 0.930 . S
C666 C664 1.395 . S
C666 C669 1.403 . S
C667 C664 1.403 . S
C667 C668 1.524 . S
C667 C671 1.400 . S
C668 H653 0.960 . S
C668 H654 0.960 . S
C668 H655 0.960 . S
C668 C667 1.524 . S
C669 C666 1.403 . S
C669 C670 1.392 . S
C669 C673 1.495 . S
C670 C669 1.392 . S
C670 C671 1.385 . S
C670 C672 1.478 . S
C671 H665 0.930 . S
C671 C667 1.400 . S
C671 C670 1.385 . S
C672 C670 1.478 . S
C672 C674 1.381 . S
C672 C678 1.383 . S
C673 C669 1.495 . S
C673 H679 0.959 . S
C673 H680 0.961 . S
C673 H681 0.960 . S
C674 C672 1.381 . S
C674 C675 1.394 . S
C674 H682 0.930 . S
C675 C674 1.394 . S
C675 C676 1.383 . S
C675 H683 0.929 . S
C676 C675 1.383 . S
C676 C677 1.377 . S
C677 H661 0.930 1_545 S
C677 C676 1.377 . S
C677 C678 1.379 . S
C678 H662 0.931 . S
C678 C672 1.383 . S
C678 C677 1.379 . S
H679 C673 0.959 . S
H680 C673 0.961 . S
H681 C673 0.960 . S
H682 C674 0.930 . S
H683 C675 0.929 . S
H684 C692 0.929 . S
H685 C694 0.930 . S
H686 C696 0.930 . S
H687 C699 0.929 . S
H688 C702 0.930 . S
H689 C704 0.960 . S
H690 C704 0.960 . S
H691 C704 0.960 . S
C692 H684 0.929 . S
C692 C693 1.377 . S
C692 C694 1.384 . S
C693 C692 1.377 . S
C693 C699 1.390 . S
C694 H685 0.930 . S
C694 C692 1.384 . S
C694 C695 1.372 . S
C695 C694 1.372 . S
C695 C696 1.400 . S
C695 C700 1.490 . S
C696 H686 0.930 . S
C696 C695 1.400 . S
C696 C699 1.386 . S
H697 C713 0.930 . S
H698 C714 0.931 . S
C699 H687 0.929 . S
C699 C693 1.390 . S
C699 C696 1.386 . S
C700 C695 1.490 . S
C700 C702 1.395 . S
C700 C703 1.403 . S
H701 C707 0.930 . S
C702 H688 0.930 . S
C702 C700 1.395 . S
C702 C705 1.403 . S
C703 C700 1.403 . S
C703 C704 1.524 . S
C703 C707 1.400 . S
C704 H689 0.960 . S
C704 H690 0.960 . S
C704 H691 0.960 . S
C704 C703 1.524 . S
C705 C702 1.403 . S
C705 C706 1.392 . S
C705 C709 1.495 . S
C706 C705 1.392 . S
C706 C707 1.385 . S
C706 C708 1.478 . S
C707 H701 0.930 . S
C707 C703 1.400 . S
C707 C706 1.385 . S
C708 C706 1.478 . S
C708 C710 1.381 . S
C708 C714 1.383 . S
C709 C705 1.495 . S
C709 H715 0.959 . S
C709 H716 0.961 . S
C709 H717 0.960 . S
C710 C708 1.381 . S
C710 C711 1.394 . S
C710 H718 0.930 . S
C711 C710 1.394 . S
C711 C712 1.383 . S
C711 H719 0.929 . S
C712 C711 1.383 . S
C712 C713 1.377 . S
C713 H697 0.930 . S
C713 C712 1.377 . S
C713 C714 1.379 . S
C714 H698 0.931 . S
C714 C708 1.383 . S
C714 C713 1.379 . S
H715 C709 0.959 . S
H716 C709 0.961 . S
H717 C709 0.960 . S
H718 C710 0.930 . S
H719 C711 0.929 . S
H720 C728 0.929 . S
H721 C730 0.930 . S
H722 C732 0.930 . S
H723 C735 0.929 . S
H724 C738 0.930 . S
H725 C740 0.960 . S
H726 C740 0.960 . S
H727 C740 0.960 . S
C728 H720 0.929 . S
C728 C729 1.377 . S
C728 C730 1.384 . S
C729 C728 1.377 . S
C729 C735 1.390 . S
C730 H721 0.930 . S
C730 C728 1.384 . S
C730 C731 1.372 . S
C731 C730 1.372 . S
C731 C732 1.400 . S
C731 C736 1.490 . S
C732 H722 0.930 . S
C732 C731 1.400 . S
C732 C735 1.386 . S
H733 C749 0.930 . S
H734 C750 0.931 . S
C735 H723 0.929 . S
C735 C729 1.390 . S
C735 C732 1.386 . S
C736 C731 1.490 . S
C736 C738 1.395 . S
C736 C739 1.403 . S
H737 C743 0.930 . S
C738 H724 0.930 . S
C738 C736 1.395 . S
C738 C741 1.403 . S
C739 C736 1.403 . S
C739 C740 1.524 . S
C739 C743 1.400 . S
C740 H725 0.960 . S
C740 H726 0.960 . S
C740 H727 0.960 . S
C740 C739 1.524 . S
C741 C738 1.403 . S
C741 C742 1.392 . S
C741 C745 1.495 . S
C742 C741 1.392 . S
C742 C743 1.385 . S
C742 C744 1.478 . S
C743 H737 0.930 . S
C743 C739 1.400 . S
C743 C742 1.385 . S
C744 C742 1.478 . S
C744 C746 1.381 . S
C744 C750 1.383 . S
C745 C741 1.495 . S
C745 H751 0.959 . S
C745 H752 0.961 . S
C745 H753 0.960 . S
C746 C744 1.381 . S
C746 C747 1.394 . S
C746 H754 0.930 . S
C747 C746 1.394 . S
C747 C748 1.383 . S
C747 H755 0.929 . S
C748 C747 1.383 . S
C748 C749 1.377 . S
C749 H733 0.930 . S
C749 C748 1.377 . S
C749 C750 1.379 . S
C750 H734 0.931 . S
C750 C744 1.383 . S
C750 C749 1.379 . S
H751 C745 0.959 . S
H752 C745 0.961 . S
H753 C745 0.960 . S
H754 C746 0.930 . S
H755 C747 0.929 . S
H756 C764 0.929 . S
H757 C766 0.930 . S
H758 C768 0.930 . S
H759 C771 0.929 . S
H760 C774 0.930 . S
H761 C776 0.960 . S
H762 C776 0.960 . S
H763 C776 0.960 . S
C764 H756 0.929 . S
C764 C765 1.377 . S
C764 C766 1.384 . S
C765 C764 1.377 . S
C765 C771 1.390 . S
C766 H757 0.930 . S
C766 C764 1.384 . S
C766 C767 1.372 . S
C767 C766 1.372 . S
C767 C768 1.400 . S
C767 C772 1.490 . S
C768 H758 0.930 . S
C768 C767 1.400 . S
C768 C771 1.386 . S
H769 C785 0.930 . S
H770 C786 0.931 . S
C771 H759 0.929 . S
C771 C765 1.390 . S
C771 C768 1.386 . S
C772 C767 1.490 . S
C772 C774 1.395 . S
C772 C775 1.403 . S
H773 C779 0.930 . S
C774 H760 0.930 . S
C774 C772 1.395 . S
C774 C777 1.403 . S
C775 C772 1.403 . S
C775 C776 1.524 . S
C775 C779 1.400 . S
C776 H761 0.960 . S
C776 H762 0.960 . S
C776 H763 0.960 . S
C776 C775 1.524 . S
C777 C774 1.403 . S
C777 C778 1.392 . S
C777 C781 1.495 . S
C778 C777 1.392 . S
C778 C779 1.385 . S
C778 C780 1.478 . S
C779 H773 0.930 . S
C779 C775 1.400 . S
C779 C778 1.385 . S
C780 C778 1.478 . S
C780 C782 1.381 . S
C780 C786 1.383 . S
C781 C777 1.495 . S
C781 H787 0.959 . S
C781 H788 0.961 . S
C781 H789 0.960 . S
C782 C780 1.381 . S
C782 C783 1.394 . S
C782 H790 0.930 . S
C783 C782 1.394 . S
C783 C784 1.383 . S
C783 H791 0.929 . S
C784 C783 1.383 . S
C784 C785 1.377 . S
C785 H769 0.930 . S
C785 C784 1.377 . S
C785 C786 1.379 . S
C786 H770 0.931 . S
C786 C780 1.383 . S
C786 C785 1.379 . S
H787 C781 0.959 . S
H788 C781 0.961 . S
H789 C781 0.960 . S
H790 C782 0.930 . S
H791 C783 0.929 . S
H792 C800 0.929 . S
H793 C802 0.930 . S
H794 C804 0.930 . S
H795 C807 0.929 . S
H796 C810 0.930 . S
H797 C812 0.960 . S
H798 C812 0.960 . S
H799 C812 0.960 . S
C800 H792 0.929 . S
C800 C801 1.377 . S
C800 C802 1.384 1_554 S
C801 C800 1.377 . S
C801 C807 1.390 . S
C802 H793 0.930 . S
C802 C800 1.384 1_556 S
C802 C803 1.372 . S
C803 C802 1.372 . S
C803 C804 1.400 . S
C803 C808 1.490 . S
C804 H794 0.930 . S
C804 C803 1.400 . S
C804 C807 1.386 1_556 S
H805 C821 0.930 . S
H806 C822 0.931 1_545 S
C807 H795 0.929 . S
C807 C801 1.390 . S
C807 C804 1.386 1_554 S
C808 C803 1.490 . S
C808 C810 1.395 . S
C808 C811 1.403 . S
H809 C815 0.930 . S
C810 H796 0.930 . S
C810 C808 1.395 . S
C810 C813 1.403 . S
C811 C808 1.403 . S
C811 C812 1.524 . S
C811 C815 1.400 . S
C812 H797 0.960 . S
C812 H798 0.960 . S
C812 H799 0.960 . S
C812 C811 1.524 . S
C813 C810 1.403 . S
C813 C814 1.392 . S
C813 C817 1.495 . S
C814 C813 1.392 . S
C814 C815 1.385 . S
C814 C816 1.478 . S
C815 H809 0.930 . S
C815 C811 1.400 . S
C815 C814 1.385 . S
C816 C814 1.478 . S
C816 C818 1.381 . S
C816 C822 1.383 . S
C817 C813 1.495 . S
C817 H823 0.959 . S
C817 H824 0.961 . S
C817 H825 0.960 . S
C818 C816 1.381 . S
C818 C819 1.394 . S
C818 H826 0.930 . S
C819 C818 1.394 . S
C819 C820 1.383 . S
C819 H827 0.929 . S
C820 C819 1.383 . S
C820 C821 1.377 1_565 S
C821 H805 0.930 . S
C821 C820 1.377 1_545 S
C821 C822 1.379 1_545 S
C822 H806 0.931 1_565 S
C822 C816 1.383 . S
C822 C821 1.379 1_565 S
H823 C817 0.959 . S
H824 C817 0.961 . S
H825 C817 0.960 . S
H826 C818 0.930 . S
H827 C819 0.929 . S
H828 C836 0.929 . S
H829 C838 0.930 . S
H830 C840 0.930 . S
H831 C843 0.929 . S
H832 C846 0.930 . S
H833 C848 0.960 . S
H834 C848 0.960 . S
H835 C848 0.960 . S
C836 H828 0.929 . S
C836 C837 1.377 . S
C836 C838 1.384 1_554 S
C837 C836 1.377 . S
C837 C843 1.390 . S
C838 H829 0.930 . S
C838 C836 1.384 1_556 S
C838 C839 1.372 . S
C839 C838 1.372 . S
C839 C840 1.400 . S
C839 C844 1.490 . S
C840 H830 0.930 . S
C840 C839 1.400 . S
C840 C843 1.386 1_556 S
H841 C857 0.930 . S
H842 C858 0.931 . S
C843 H831 0.929 . S
C843 C837 1.390 . S
C843 C840 1.386 1_554 S
C844 C839 1.490 . S
C844 C846 1.395 . S
C844 C847 1.403 . S
H845 C851 0.930 . S
C846 H832 0.930 . S
C846 C844 1.395 . S
C846 C849 1.403 . S
C847 C844 1.403 . S
C847 C848 1.524 . S
C847 C851 1.400 . S
C848 H833 0.960 . S
C848 H834 0.960 . S
C848 H835 0.960 . S
C848 C847 1.524 . S
C849 C846 1.403 . S
C849 C850 1.392 . S
C849 C853 1.495 . S
C850 C849 1.392 . S
C850 C851 1.385 . S
C850 C852 1.478 . S
C851 H845 0.930 . S
C851 C847 1.400 . S
C851 C850 1.385 . S
C852 C850 1.478 . S
C852 C854 1.381 . S
C852 C858 1.383 . S
C853 C849 1.495 . S
C853 H859 0.959 . S
C853 H860 0.961 . S
C853 H861 0.960 . S
C854 C852 1.381 . S
C854 C855 1.394 . S
C854 H862 0.930 . S
C855 C854 1.394 . S
C855 C856 1.383 . S
C855 H863 0.929 . S
C856 C855 1.383 . S
C856 C857 1.377 . S
C857 H841 0.930 . S
C857 C856 1.377 . S
C857 C858 1.379 . S
C858 H842 0.931 . S
C858 C852 1.383 . S
C858 C857 1.379 . S
H859 C853 0.959 . S
H860 C853 0.961 . S
H861 C853 0.960 . S
H862 C854 0.930 . S
H863 C855 0.929 . S
H864 C872 0.929 . S
H865 C874 0.930 . S
H866 C876 0.930 . S
H867 C879 0.929 . S
H868 C882 0.930 . S
H869 C884 0.960 . S
H870 C884 0.960 . S
H871 C884 0.960 . S
C872 H864 0.929 . S
C872 C873 1.377 . S
C872 C874 1.384 1_554 S
C873 C872 1.377 . S
C873 C879 1.390 . S
C874 H865 0.930 . S
C874 C872 1.384 1_556 S
C874 C875 1.372 . S
C875 C874 1.372 . S
C875 C876 1.400 . S
C875 C880 1.490 . S
C876 H866 0.930 . S
C876 C875 1.400 . S
C876 C879 1.386 1_556 S
H877 C893 0.930 . S
H878 C894 0.931 . S
C879 H867 0.929 . S
C879 C873 1.390 . S
C879 C876 1.386 1_554 S
C880 C875 1.490 . S
C880 C882 1.395 . S
C880 C883 1.403 . S
H881 C887 0.930 . S
C882 H868 0.930 . S
C882 C880 1.395 . S
C882 C885 1.403 . S
C883 C880 1.403 . S
C883 C884 1.524 . S
C883 C887 1.400 . S
C884 H869 0.960 . S
C884 H870 0.960 . S
C884 H871 0.960 . S
C884 C883 1.524 . S
C885 C882 1.403 . S
C885 C886 1.392 . S
C885 C889 1.495 . S
C886 C885 1.392 . S
C886 C887 1.385 . S
C886 C888 1.478 . S
C887 H881 0.930 . S
C887 C883 1.400 . S
C887 C886 1.385 . S
C888 C886 1.478 . S
C888 C890 1.381 . S
C888 C894 1.383 . S
C889 C885 1.495 . S
C889 H895 0.959 . S
C889 H896 0.961 . S
C889 H897 0.960 . S
C890 C888 1.381 . S
C890 C891 1.394 . S
C890 H898 0.930 . S
C891 C890 1.394 . S
C891 C892 1.383 . S
C891 H899 0.929 . S
C892 C891 1.383 . S
C892 C893 1.377 . S
C893 H877 0.930 . S
C893 C892 1.377 . S
C893 C894 1.379 . S
C894 H878 0.931 . S
C894 C888 1.383 . S
C894 C893 1.379 . S
H895 C889 0.959 . S
H896 C889 0.961 . S
H897 C889 0.960 . S
H898 C890 0.930 . S
H899 C891 0.929 . S
H900 C908 0.929 . S
H901 C910 0.930 . S
H902 C912 0.930 . S
H903 C915 0.929 . S
H904 C918 0.930 . S
H905 C920 0.960 . S
H906 C920 0.960 . S
H907 C920 0.960 . S
C908 H900 0.929 . S
C908 C909 1.377 . S
C908 C910 1.384 1_554 S
C909 C908 1.377 . S
C909 C915 1.390 . S
C910 H901 0.930 . S
C910 C908 1.384 1_556 S
C910 C911 1.372 . S
C911 C910 1.372 . S
C911 C912 1.400 . S
C911 C916 1.490 . S
C912 H902 0.930 . S
C912 C911 1.400 . S
C912 C915 1.386 1_556 S
H913 C929 0.870 1_455 S
H914 C930 0.908 1_455 S
C915 H903 0.929 . S
C915 C909 1.390 . S
C915 C912 1.386 1_554 S
C916 C911 1.490 . S
C916 C918 1.395 . S
C916 C919 1.403 . S
H917 C923 0.930 . S
C918 H904 0.930 . S
C918 C916 1.395 . S
C918 C921 1.403 . S
C919 C916 1.403 . S
C919 C920 1.524 . S
C919 C923 1.400 . S
C920 H905 0.960 . S
C920 H906 0.960 . S
C920 H907 0.960 . S
C920 C919 1.524 . S
C921 C918 1.403 . S
C921 C922 1.392 . S
C921 C925 1.495 . S
C922 C921 1.392 . S
C922 C923 1.385 . S
C922 C924 1.478 . S
C923 H917 0.930 . S
C923 C919 1.400 . S
C923 C922 1.385 . S
C924 C922 1.478 . S
C924 C926 1.381 . S
C924 C930 1.383 . S
C925 C921 1.495 . S
C925 H931 0.959 . S
C925 H932 0.961 . S
C925 H933 0.960 . S
C926 C924 1.381 . S
C926 C927 1.394 . S
C926 H934 0.930 . S
C927 C926 1.394 . S
C927 C928 1.383 . S
C927 H935 0.929 . S
C928 C927 1.383 . S
C928 C929 1.415 . S
C929 H913 0.870 1_655 S
C929 C928 1.415 . S
C929 C930 1.402 . S
C930 H914 0.908 1_655 S
C930 C924 1.383 . S
C930 C929 1.402 . S
H931 C925 0.959 . S
H932 C925 0.961 . S
H933 C925 0.960 . S
H934 C926 0.930 . S
H935 C927 0.929 . S
H936 C944 0.929 . S
H937 C946 0.930 . S
H938 C948 0.930 . S
H939 C951 0.929 . S
H940 C954 0.930 . S
H941 C956 0.960 . S
H942 C956 0.960 . S
H943 C956 0.960 . S
C944 H936 0.929 . S
C944 C945 1.377 . S
C944 C946 1.384 . S
C945 C944 1.377 . S
C945 C951 1.390 . S
C946 H937 0.930 . S
C946 C944 1.384 . S
C946 C947 1.372 . S
C947 C946 1.372 . S
C947 C948 1.400 . S
C947 C952 1.490 . S
C948 H938 0.930 . S
C948 C947 1.400 . S
C948 C951 1.386 . S
H949 C965 0.930 . S
H950 C966 0.909 1_655 S
C951 H939 0.929 . S
C951 C945 1.390 . S
C951 C948 1.386 . S
C952 C947 1.490 . S
C952 C954 1.395 . S
C952 C955 1.403 . S
H953 C959 0.930 . S
C954 H940 0.930 . S
C954 C952 1.395 . S
C954 C957 1.403 . S
C955 C952 1.403 . S
C955 C956 1.524 . S
C955 C959 1.400 . S
C956 H941 0.960 . S
C956 H942 0.960 . S
C956 H943 0.960 . S
C956 C955 1.524 . S
C957 C954 1.403 . S
C957 C958 1.392 . S
C957 C961 1.495 . S
C958 C957 1.392 . S
C958 C959 1.385 . S
C958 C960 1.478 . S
C959 H953 0.930 . S
C959 C955 1.400 . S
C959 C958 1.385 . S
C960 C958 1.478 . S
C960 C962 1.381 . S
C960 C966 1.383 . S
C961 C957 1.495 . S
C961 H967 0.959 . S
C961 H968 0.961 . S
C961 H969 0.960 . S
C962 C960 1.381 . S
C962 C963 1.394 . S
C962 H970 0.930 . S
C963 C962 1.394 . S
C963 C964 1.383 . S
C963 H971 0.929 . S
C964 C963 1.383 . S
C964 C965 1.377 1_455 S
C965 H949 0.930 . S
C965 C964 1.377 1_655 S
C965 C966 1.379 1_655 S
C966 H950 0.909 1_455 S
C966 C960 1.383 . S
C966 C965 1.379 1_455 S
H967 C961 0.959 . S
H968 C961 0.961 . S
H969 C961 0.960 . S
H970 C962 0.930 . S
H971 C963 0.929 . S
H972 C980 0.929 . S
H973 C982 0.930 . S
H974 C984 0.930 . S
H975 C987 0.929 . S
H976 C990 0.930 . S
H977 C992 0.960 . S
H978 C992 0.960 . S
H979 C992 0.960 . S
C980 H972 0.929 . S
C980 C981 1.377 . S
C980 C982 1.384 . S
C981 C980 1.377 . S
C981 C987 1.390 . S
C982 H973 0.930 . S
C982 C980 1.384 . S
C982 C983 1.372 . S
C983 C982 1.372 . S
C983 C984 1.400 . S
C983 C988 1.490 . S
C984 H974 0.930 . S
C984 C983 1.400 . S
C984 C987 1.386 . S
H985 C1001 0.930 . S
H986 C1002 0.931 . S
C987 H975 0.929 . S
C987 C981 1.390 . S
C987 C984 1.386 . S
C988 C983 1.490 . S
C988 C990 1.395 . S
C988 C991 1.403 . S
H989 C995 0.930 . S
C990 H976 0.930 . S
C990 C988 1.395 . S
C990 C993 1.403 . S
C991 C988 1.403 . S
C991 C992 1.524 . S
C991 C995 1.400 . S
C992 H977 0.960 . S
C992 H978 0.960 . S
C992 H979 0.960 . S
C992 C991 1.524 . S
C993 C990 1.403 . S
C993 C994 1.392 . S
C993 C997 1.495 . S
C994 C993 1.392 . S
C994 C995 1.385 . S
C994 C996 1.478 . S
C995 H989 0.930 . S
C995 C991 1.400 . S
C995 C994 1.385 . S
C996 C994 1.478 . S
C996 C998 1.381 . S
C996 C1002 1.383 . S
C997 C993 1.495 . S
C997 H1003 0.959 . S
C997 H1004 0.961 . S
C997 H1005 0.960 . S
C998 C996 1.381 . S
C998 C999 1.394 1_545 S
C998 H1006 0.930 1_545 S
C999 C998 1.394 1_565 S
C999 C1000 1.383 1_565 S
C999 H1007 0.929 . S
C1000 C999 1.383 1_545 S
C1000 C1001 1.377 . S
C1001 H985 0.930 . S
C1001 C1000 1.377 . S
C1001 C1002 1.379 . S
C1002 H986 0.931 . S
C1002 C996 1.383 . S
C1002 C1001 1.379 . S
H1003 C997 0.959 . S
H1004 C997 0.961 . S
H1005 C997 0.960 . S
H1006 C998 0.930 1_565 S
H1007 C999 0.929 . S
H1008 C1016 0.929 . S
H1009 C1018 0.930 . S
H1010 C1020 0.930 . S
H1011 C1023 0.929 . S
H1012 C1026 0.930 . S
H1013 C1028 0.960 . S
H1014 C1028 0.960 . S
H1015 C1028 0.960 . S
C1016 H1008 0.929 . S
C1016 C1017 1.377 . S
C1016 C1018 1.384 . S
C1017 C1016 1.377 . S
C1017 C1023 1.390 . S
C1018 H1009 0.930 . S
C1018 C1016 1.384 . S
C1018 C1019 1.372 . S
C1019 C1018 1.372 . S
C1019 C1020 1.400 . S
C1019 C1024 1.490 . S
C1020 H1010 0.930 . S
C1020 C1019 1.400 . S
C1020 C1023 1.386 . S
H1021 C1037 0.930 . S
H1022 C1038 0.931 . S
C1023 H1011 0.929 . S
C1023 C1017 1.390 . S
C1023 C1020 1.386 . S
C1024 C1019 1.490 . S
C1024 C1026 1.395 . S
C1024 C1027 1.403 . S
H1025 C1031 0.930 . S
C1026 H1012 0.930 . S
C1026 C1024 1.395 . S
C1026 C1029 1.403 . S
C1027 C1024 1.403 . S
C1027 C1028 1.524 . S
C1027 C1031 1.400 . S
C1028 H1013 0.960 . S
C1028 H1014 0.960 . S
C1028 H1015 0.960 . S
C1028 C1027 1.524 . S
C1029 C1026 1.403 . S
C1029 C1030 1.392 . S
C1029 C1033 1.495 . S
C1030 C1029 1.392 . S
C1030 C1031 1.385 . S
C1030 C1032 1.478 . S
C1031 H1025 0.930 . S
C1031 C1027 1.400 . S
C1031 C1030 1.385 . S
C1032 C1030 1.478 . S
C1032 C1034 1.381 . S
C1032 C1038 1.383 . S
C1033 C1029 1.495 . S
C1033 H1039 0.959 . S
C1033 H1040 0.961 . S
C1033 H1041 0.960 . S
C1034 C1032 1.381 . S
C1034 C1035 1.394 . S
C1034 H1042 0.930 . S
C1035 C1034 1.394 . S
C1035 C1036 1.383 . S
C1035 H1043 0.929 . S
C1036 C1035 1.383 . S
C1036 C1037 1.377 . S
C1037 H1021 0.930 . S
C1037 C1036 1.377 . S
C1037 C1038 1.379 . S
C1038 H1022 0.931 . S
C1038 C1032 1.383 . S
C1038 C1037 1.379 . S
H1039 C1033 0.959 . S
H1040 C1033 0.961 . S
H1041 C1033 0.960 . S
H1042 C1034 0.930 . S
H1043 C1035 0.929 . S
H1044 C1052 0.929 . S
H1045 C1054 0.930 . S
H1046 C1056 0.930 . S
H1047 C1059 0.929 . S
H1048 C1062 0.930 . S
H1049 C1064 0.960 . S
H1050 C1064 0.960 . S
H1051 C1064 0.960 . S
C1052 H1044 0.929 . S
C1052 C1053 1.377 . S
C1052 C1054 1.384 . S
C1053 C1052 1.377 . S
C1053 C1059 1.390 . S
C1054 H1045 0.930 . S
C1054 C1052 1.384 . S
C1054 C1055 1.372 . S
C1055 C1054 1.372 . S
C1055 C1056 1.400 . S
C1055 C1060 1.490 . S
C1056 H1046 0.930 . S
C1056 C1055 1.400 . S
C1056 C1059 1.386 . S
H1057 C1073 0.930 . S
H1058 C1074 0.931 . S
C1059 H1047 0.929 . S
C1059 C1053 1.390 . S
C1059 C1056 1.386 . S
C1060 C1055 1.490 . S
C1060 C1062 1.395 . S
C1060 C1063 1.403 . S
H1061 C1067 0.930 . S
C1062 H1048 0.930 . S
C1062 C1060 1.395 . S
C1062 C1065 1.403 . S
C1063 C1060 1.403 . S
C1063 C1064 1.524 . S
C1063 C1067 1.400 . S
C1064 H1049 0.960 . S
C1064 H1050 0.960 . S
C1064 H1051 0.960 . S
C1064 C1063 1.524 . S
C1065 C1062 1.403 . S
C1065 C1066 1.392 . S
C1065 C1069 1.495 . S
C1066 C1065 1.392 . S
C1066 C1067 1.385 . S
C1066 C1068 1.478 . S
C1067 H1061 0.930 . S
C1067 C1063 1.400 . S
C1067 C1066 1.385 . S
C1068 C1066 1.478 . S
C1068 C1070 1.381 . S
C1068 C1074 1.383 . S
C1069 C1065 1.495 . S
C1069 H1075 0.959 . S
C1069 H1076 0.961 . S
C1069 H1077 0.960 . S
C1070 C1068 1.381 . S
C1070 C1071 1.394 . S
C1070 H1078 0.930 . S
C1071 C1070 1.394 . S
C1071 C1072 1.383 . S
C1071 H1079 0.929 . S
C1072 C1071 1.383 . S
C1072 C1073 1.377 . S
C1073 H1057 0.930 . S
C1073 C1072 1.377 . S
C1073 C1074 1.379 . S
C1074 H1058 0.931 . S
C1074 C1068 1.383 . S
C1074 C1073 1.379 . S
H1075 C1069 0.959 . S
H1076 C1069 0.961 . S
H1077 C1069 0.960 . S
H1078 C1070 0.930 . S
H1079 C1071 0.929 . S
H1080 C1088 0.929 . S
H1081 C1090 0.930 . S
H1082 C1092 0.930 . S
H1083 C1095 0.929 1_554 S
H1084 C1098 0.930 . S
H1085 C1100 0.955 1_455 S
H1086 C1100 0.960 . S
H1087 C1100 0.960 . S
C1088 H1080 0.929 . S
C1088 C1089 1.377 . S
C1088 C1090 1.384 . S
C1089 C1088 1.377 . S
C1089 C1095 1.390 . S
C1090 H1081 0.930 . S
C1090 C1088 1.384 . S
C1090 C1091 1.372 . S
C1091 C1090 1.372 . S
C1091 C1092 1.400 . S
C1091 C1096 1.490 . S
C1092 H1082 0.930 . S
C1092 C1091 1.400 . S
C1092 C1095 1.386 . S
H1093 C1109 0.948 . S
H1094 C1110 0.931 . S
C1095 H1083 0.929 1_556 S
C1095 C1089 1.390 . S
C1095 C1092 1.386 . S
C1096 C1091 1.490 . S
C1096 C1098 1.395 . S
C1096 C1099 1.403 . S
H1097 C1103 0.930 . S
C1098 H1084 0.930 . S
C1098 C1096 1.395 . S
C1098 C1101 1.403 . S
C1099 C1096 1.403 . S
C1099 C1100 1.524 . S
C1099 C1103 1.400 . S
C1100 H1085 0.955 1_655 S
C1100 H1086 0.960 . S
C1100 H1087 0.960 . S
C1100 C1099 1.524 . S
C1101 C1098 1.403 . S
C1101 C1102 1.392 . S
C1101 C1105 1.495 . S
C1102 C1101 1.392 . S
C1102 C1103 1.385 . S
C1102 C1104 1.478 . S
C1103 H1097 0.930 . S
C1103 C1099 1.400 . S
C1103 C1102 1.385 . S
C1104 C1102 1.478 . S
C1104 C1106 1.381 . S
C1104 C1110 1.383 . S
C1105 C1101 1.495 . S
C1105 H1111 0.959 . S
C1105 H1112 0.961 . S
C1105 H1113 0.960 . S
C1106 C1104 1.381 . S
C1106 C1107 1.394 . S
C1106 H1114 0.930 . S
C1107 C1106 1.394 . S
C1107 C1108 1.383 1_655 S
C1107 H1115 0.929 . S
C1108 C1107 1.383 1_455 S
C1108 C1109 1.384 . S
C1109 H1093 0.948 . S
C1109 C1108 1.384 . S
C1109 C1110 1.356 1_455 S
C1110 H1094 0.931 . S
C1110 C1104 1.383 . S
C1110 C1109 1.356 1_655 S
H1111 C1105 0.959 . S
H1112 C1105 0.961 . S
H1113 C1105 0.960 . S
H1114 C1106 0.930 . S
H1115 C1107 0.929 . S
H1116 C1124 0.929 . S
H1117 C1126 0.930 . S
H1118 C1128 0.930 . S
H1119 C1131 0.929 . S
H1120 C1134 0.930 . S
H1121 C1136 0.960 . S
H1122 C1136 0.960 . S
H1123 C1136 0.960 . S
C1124 H1116 0.929 . S
C1124 C1125 1.377 . S
C1124 C1126 1.384 . S
C1125 C1124 1.377 . S
C1125 C1131 1.390 . S
C1126 H1117 0.930 . S
C1126 C1124 1.384 . S
C1126 C1127 1.372 . S
C1127 C1126 1.372 . S
C1127 C1128 1.400 . S
C1127 C1132 1.490 . S
C1128 H1118 0.930 . S
C1128 C1127 1.400 . S
C1128 C1131 1.386 . S
H1129 C1145 0.930 . S
H1130 C1146 0.931 . S
C1131 H1119 0.929 . S
C1131 C1125 1.390 . S
C1131 C1128 1.386 . S
C1132 C1127 1.490 . S
C1132 C1134 1.395 . S
C1132 C1135 1.403 . S
H1133 C1139 0.930 . S
C1134 H1120 0.930 . S
C1134 C1132 1.395 . S
C1134 C1137 1.403 . S
C1135 C1132 1.403 . S
C1135 C1136 1.524 . S
C1135 C1139 1.400 . S
C1136 H1121 0.960 . S
C1136 H1122 0.960 . S
C1136 H1123 0.960 . S
C1136 C1135 1.524 . S
C1137 C1134 1.403 . S
C1137 C1138 1.392 . S
C1137 C1141 1.495 . S
C1138 C1137 1.392 . S
C1138 C1139 1.385 . S
C1138 C1140 1.478 . S
C1139 H1133 0.930 . S
C1139 C1135 1.400 . S
C1139 C1138 1.385 . S
C1140 C1138 1.478 . S
C1140 C1142 1.381 1_565 S
C1140 C1146 1.383 . S
C1141 C1137 1.495 . S
C1141 H1147 0.959 . S
C1141 H1148 0.961 . S
C1141 H1149 0.960 . S
C1142 C1140 1.381 1_545 S
C1142 C1143 1.394 . S
C1142 H1150 0.930 . S
C1143 C1142 1.394 . S
C1143 C1144 1.383 . S
C1143 H1151 0.929 . S
C1144 C1143 1.383 . S
C1144 C1145 1.377 1_545 S
C1145 H1129 0.930 . S
C1145 C1144 1.377 1_565 S
C1145 C1146 1.379 . S
C1146 H1130 0.931 . S
C1146 C1140 1.383 . S
C1146 C1145 1.379 . S
H1147 C1141 0.959 . S
H1148 C1141 0.961 . S
H1149 C1141 0.960 . S
H1150 C1142 0.930 . S
H1151 C1143 0.929 . S
H1152 C1160 0.927 1_554 S
H1153 C1162 0.930 . S
H1154 C1164 0.930 . S
H1155 C1167 0.929 . S
H1156 C1170 0.930 . S
H1157 C1172 0.960 . S
H1158 C1172 0.960 . S
H1159 C1172 0.960 . S
C1160 H1152 0.927 1_556 S
C1160 C1161 1.377 . S
C1160 C1162 1.384 . S
C1161 C1160 1.377 . S
C1161 C1167 1.390 . S
C1162 H1153 0.930 . S
C1162 C1160 1.384 . S
C1162 C1163 1.372 . S
C1163 C1162 1.372 . S
C1163 C1164 1.400 . S
C1163 C1168 1.490 . S
C1164 H1154 0.930 . S
C1164 C1163 1.400 . S
C1164 C1167 1.386 . S
H1165 C1181 0.930 . S
H1166 C1182 0.931 . S
C1167 H1155 0.929 . S
C1167 C1161 1.390 . S
C1167 C1164 1.386 . S
C1168 C1163 1.490 . S
C1168 C1170 1.395 . S
C1168 C1171 1.403 . S
H1169 C1175 0.930 . S
C1170 H1156 0.930 . S
C1170 C1168 1.395 . S
C1170 C1173 1.403 . S
C1171 C1168 1.403 . S
C1171 C1172 1.524 . S
C1171 C1175 1.400 . S
C1172 H1157 0.960 . S
C1172 H1158 0.960 . S
C1172 H1159 0.960 . S
C1172 C1171 1.524 . S
C1173 C1170 1.403 . S
C1173 C1174 1.392 . S
C1173 C1177 1.495 . S
C1174 C1173 1.392 . S
C1174 C1175 1.385 . S
C1174 C1176 1.478 . S
C1175 H1169 0.930 . S
C1175 C1171 1.400 . S
C1175 C1174 1.385 . S
C1176 C1174 1.478 . S
C1176 C1178 1.381 . S
C1176 C1182 1.383 . S
C1177 C1173 1.495 . S
C1177 H1183 0.959 . S
C1177 H1184 0.961 . S
C1177 H1185 0.960 . S
C1178 C1176 1.381 . S
C1178 C1179 1.394 . S
C1178 H1186 0.930 . S
C1179 C1178 1.394 . S
C1179 C1180 1.383 . S
C1179 H1187 0.929 . S
C1180 C1179 1.383 . S
C1180 C1181 1.377 . S
C1181 H1165 0.930 . S
C1181 C1180 1.377 . S
C1181 C1182 1.379 . S
C1182 H1166 0.931 . S
C1182 C1176 1.383 . S
C1182 C1181 1.379 . S
H1183 C1177 0.959 . S
H1184 C1177 0.961 . S
H1185 C1177 0.960 . S
H1186 C1178 0.930 . S
H1187 C1179 0.929 . S
H1188 C1196 0.929 . S
H1189 C1198 0.930 . S
H1190 C1200 0.930 . S
H1191 C1203 0.929 . S
H1192 C1206 0.930 . S
H1193 C1208 0.960 . S
H1194 C1208 0.960 . S
H1195 C1208 0.960 . S
C1196 H1188 0.929 . S
C1196 C1197 1.377 . S
C1196 C1198 1.384 . S
C1197 C1196 1.377 . S
C1197 C1203 1.390 . S
C1198 H1189 0.930 . S
C1198 C1196 1.384 . S
C1198 C1199 1.372 . S
C1199 C1198 1.372 . S
C1199 C1200 1.400 . S
C1199 C1204 1.490 . S
C1200 H1190 0.930 . S
C1200 C1199 1.400 . S
C1200 C1203 1.386 . S
H1201 C1217 0.930 . S
H1202 C1218 0.931 . S
C1203 H1191 0.929 . S
C1203 C1197 1.390 . S
C1203 C1200 1.386 . S
C1204 C1199 1.490 . S
C1204 C1206 1.395 . S
C1204 C1207 1.403 . S
H1205 C1211 0.930 . S
C1206 H1192 0.930 . S
C1206 C1204 1.395 . S
C1206 C1209 1.403 . S
C1207 C1204 1.403 . S
C1207 C1208 1.524 . S
C1207 C1211 1.400 . S
C1208 H1193 0.960 . S
C1208 H1194 0.960 . S
C1208 H1195 0.960 . S
C1208 C1207 1.524 . S
C1209 C1206 1.403 . S
C1209 C1210 1.392 . S
C1209 C1213 1.495 . S
C1210 C1209 1.392 . S
C1210 C1211 1.385 . S
C1210 C1212 1.478 . S
C1211 H1205 0.930 . S
C1211 C1207 1.400 . S
C1211 C1210 1.385 . S
C1212 C1210 1.478 . S
C1212 C1214 1.381 . S
C1212 C1218 1.383 . S
C1213 C1209 1.495 . S
C1213 H1219 0.959 . S
C1213 H1220 0.961 . S
C1213 H1221 0.960 . S
C1214 C1212 1.381 . S
C1214 C1215 1.394 . S
C1214 H1222 0.930 . S
C1215 C1214 1.394 . S
C1215 C1216 1.383 . S
C1215 H1223 0.929 . S
C1216 C1215 1.383 . S
C1216 C1217 1.377 . S
C1217 H1201 0.930 . S
C1217 C1216 1.377 . S
C1217 C1218 1.379 . S
C1218 H1202 0.931 . S
C1218 C1212 1.383 . S
C1218 C1217 1.379 . S
H1219 C1213 0.959 . S
H1220 C1213 0.961 . S
H1221 C1213 0.960 . S
H1222 C1214 0.930 . S
H1223 C1215 0.929 . S
H1224 C1232 0.929 . S
H1225 C1234 0.930 . S
H1226 C1236 0.930 . S
H1227 C1239 0.929 . S
H1228 C1242 0.930 . S
H1229 C1244 0.960 . S
H1230 C1244 0.960 . S
H1231 C1244 0.960 . S
C1232 H1224 0.929 . S
C1232 C1233 1.377 . S
C1232 C1234 1.384 . S
C1233 C1232 1.377 . S
C1233 C1239 1.390 . S
C1234 H1225 0.930 . S
C1234 C1232 1.384 . S
C1234 C1235 1.372 . S
C1235 C1234 1.372 . S
C1235 C1236 1.400 . S
C1235 C1240 1.490 . S
C1236 H1226 0.930 . S
C1236 C1235 1.400 . S
C1236 C1239 1.386 . S
H1237 C1253 0.930 . S
H1238 C1254 0.931 . S
C1239 H1227 0.929 . S
C1239 C1233 1.390 . S
C1239 C1236 1.386 . S
C1240 C1235 1.490 . S
C1240 C1242 1.395 . S
C1240 C1243 1.403 . S
H1241 C1247 0.930 . S
C1242 H1228 0.930 . S
C1242 C1240 1.395 . S
C1242 C1245 1.403 . S
C1243 C1240 1.403 . S
C1243 C1244 1.524 . S
C1243 C1247 1.400 . S
C1244 H1229 0.960 . S
C1244 H1230 0.960 . S
C1244 H1231 0.960 . S
C1244 C1243 1.524 . S
C1245 C1242 1.403 . S
C1245 C1246 1.392 . S
C1245 C1249 1.495 . S
C1246 C1245 1.392 . S
C1246 C1247 1.385 . S
C1246 C1248 1.478 . S
C1247 H1241 0.930 . S
C1247 C1243 1.400 . S
C1247 C1246 1.385 . S
C1248 C1246 1.478 . S
C1248 C1250 1.381 . S
C1248 C1254 1.383 . S
C1249 C1245 1.495 . S
C1249 H1255 0.959 . S
C1249 H1256 0.961 . S
C1249 H1257 0.960 . S
C1250 C1248 1.381 . S
C1250 C1251 1.394 . S
C1250 H1258 0.930 . S
C1251 C1250 1.394 . S
C1251 C1252 1.383 . S
C1251 H1259 0.929 . S
C1252 C1251 1.383 . S
C1252 C1253 1.377 . S
C1253 H1237 0.930 . S
C1253 C1252 1.377 . S
C1253 C1254 1.379 . S
C1254 H1238 0.931 . S
C1254 C1248 1.383 . S
C1254 C1253 1.379 . S
H1255 C1249 0.959 . S
H1256 C1249 0.961 . S
H1257 C1249 0.960 . S
H1258 C1250 0.930 . S
H1259 C1251 0.929 . S
H1260 C1268 0.929 . S
H1261 C1270 0.930 . S
H1262 C1272 0.930 . S
H1263 C1275 0.929 . S
H1264 C1278 0.930 . S
H1265 C1280 0.960 . S
H1266 C1280 0.960 . S
H1267 C1280 0.960 . S
C1268 H1260 0.929 . S
C1268 C1269 1.377 . S
C1268 C1270 1.384 . S
C1269 C1268 1.377 . S
C1269 C1275 1.390 . S
C1270 H1261 0.930 . S
C1270 C1268 1.384 . S
C1270 C1271 1.372 . S
C1271 C1270 1.372 . S
C1271 C1272 1.400 . S
C1271 C1276 1.490 . S
C1272 H1262 0.930 . S
C1272 C1271 1.400 . S
C1272 C1275 1.386 . S
H1273 C1289 0.930 . S
H1274 C1290 0.931 . S
C1275 H1263 0.929 . S
C1275 C1269 1.390 . S
C1275 C1272 1.386 . S
C1276 C1271 1.490 . S
C1276 C1278 1.395 . S
C1276 C1279 1.403 . S
H1277 C1283 0.930 . S
C1278 H1264 0.930 . S
C1278 C1276 1.395 . S
C1278 C1281 1.403 . S
C1279 C1276 1.403 . S
C1279 C1280 1.524 . S
C1279 C1283 1.400 . S
C1280 H1265 0.960 . S
C1280 H1266 0.960 . S
C1280 H1267 0.960 . S
C1280 C1279 1.524 . S
C1281 C1278 1.403 . S
C1281 C1282 1.392 . S
C1281 C1285 1.495 . S
C1282 C1281 1.392 . S
C1282 C1283 1.385 . S
C1282 C1284 1.478 . S
C1283 H1277 0.930 . S
C1283 C1279 1.400 . S
C1283 C1282 1.385 . S
C1284 C1282 1.478 . S
C1284 C1286 1.381 . S
C1284 C1290 1.383 . S
C1285 C1281 1.495 . S
C1285 H1291 0.959 . S
C1285 H1292 0.961 . S
C1285 H1293 0.960 . S
C1286 C1284 1.381 . S
C1286 C1287 1.394 . S
C1286 H1294 0.930 . S
C1287 C1286 1.394 . S
C1287 C1288 1.383 . S
C1287 H1295 0.929 . S
C1288 C1287 1.383 . S
C1288 C1289 1.377 . S
C1289 H1273 0.930 . S
C1289 C1288 1.377 . S
C1289 C1290 1.379 . S
C1290 H1274 0.931 . S
C1290 C1284 1.383 . S
C1290 C1289 1.379 . S
H1291 C1285 0.959 . S
H1292 C1285 0.961 . S
H1293 C1285 0.960 . S
H1294 C1286 0.930 . S
H1295 C1287 0.929 . S
H1296 C1304 0.929 . S
H1297 C1306 0.930 . S
H1298 C1308 0.930 . S
H1299 C1311 0.929 . S
H1300 C1314 0.930 . S
H1301 C1316 0.960 . S
H1302 C1316 0.960 . S
H1303 C1316 0.960 . S
C1304 H1296 0.929 . S
C1304 C1305 1.377 . S
C1304 C1306 1.384 . S
C1305 C1304 1.377 . S
C1305 C1311 1.390 . S
C1306 H1297 0.930 . S
C1306 C1304 1.384 . S
C1306 C1307 1.372 . S
C1307 C1306 1.372 . S
C1307 C1308 1.400 . S
C1307 C1312 1.490 . S
C1308 H1298 0.930 . S
C1308 C1307 1.400 . S
C1308 C1311 1.386 . S
H1309 C1325 0.930 . S
H1310 C1326 0.931 . S
C1311 H1299 0.929 . S
C1311 C1305 1.390 . S
C1311 C1308 1.386 . S
C1312 C1307 1.490 . S
C1312 C1314 1.395 . S
C1312 C1315 1.403 . S
H1313 C1319 0.930 . S
C1314 H1300 0.930 . S
C1314 C1312 1.395 . S
C1314 C1317 1.403 . S
C1315 C1312 1.403 . S
C1315 C1316 1.524 . S
C1315 C1319 1.400 . S
C1316 H1301 0.960 . S
C1316 H1302 0.960 . S
C1316 H1303 0.960 . S
C1316 C1315 1.524 . S
C1317 C1314 1.403 . S
C1317 C1318 1.392 . S
C1317 C1321 1.495 . S
C1318 C1317 1.392 . S
C1318 C1319 1.385 . S
C1318 C1320 1.478 . S
C1319 H1313 0.930 . S
C1319 C1315 1.400 . S
C1319 C1318 1.385 . S
C1320 C1318 1.478 . S
C1320 C1322 1.381 . S
C1320 C1326 1.383 . S
C1321 C1317 1.495 . S
C1321 H1327 0.959 . S
C1321 H1328 0.961 . S
C1321 H1329 0.960 . S
C1322 C1320 1.381 . S
C1322 C1323 1.394 . S
C1322 H1330 0.930 . S
C1323 C1322 1.394 . S
C1323 C1324 1.383 . S
C1323 H1331 0.929 . S
C1324 C1323 1.383 . S
C1324 C1325 1.377 . S
C1325 H1309 0.930 . S
C1325 C1324 1.377 . S
C1325 C1326 1.379 . S
C1326 H1310 0.931 . S
C1326 C1320 1.383 . S
C1326 C1325 1.379 . S
H1327 C1321 0.959 . S
H1328 C1321 0.961 . S
H1329 C1321 0.960 . S
H1330 C1322 0.930 . S
H1331 C1323 0.929 . S
H1332 C1340 0.929 . S
H1333 C1342 0.930 . S
H1334 C1344 0.930 . S
H1335 C1347 0.929 . S
H1336 C1350 0.930 . S
H1337 C1352 0.960 . S
H1338 C1352 0.960 . S
H1339 C1352 0.960 . S
C1340 H1332 0.929 . S
C1340 C1341 1.377 . S
C1340 C1342 1.384 . S
C1341 C1340 1.377 . S
C1341 C1347 1.390 . S
C1342 H1333 0.930 . S
C1342 C1340 1.384 . S
C1342 C1343 1.372 . S
C1343 C1342 1.372 . S
C1343 C1344 1.400 . S
C1343 C1348 1.490 . S
C1344 H1334 0.930 . S
C1344 C1343 1.400 . S
C1344 C1347 1.386 . S
H1345 C1361 0.930 . S
H1346 C1362 0.931 . S
C1347 H1335 0.929 . S
C1347 C1341 1.390 . S
C1347 C1344 1.386 . S
C1348 C1343 1.490 . S
C1348 C1350 1.395 . S
C1348 C1351 1.403 . S
H1349 C1355 0.930 . S
C1350 H1336 0.930 . S
C1350 C1348 1.395 . S
C1350 C1353 1.403 . S
C1351 C1348 1.403 . S
C1351 C1352 1.524 . S
C1351 C1355 1.400 . S
C1352 H1337 0.960 . S
C1352 H1338 0.960 . S
C1352 H1339 0.960 . S
C1352 C1351 1.524 . S
C1353 C1350 1.403 . S
C1353 C1354 1.392 . S
C1353 C1357 1.495 . S
C1354 C1353 1.392 . S
C1354 C1355 1.385 . S
C1354 C1356 1.478 . S
C1355 H1349 0.930 . S
C1355 C1351 1.400 . S
C1355 C1354 1.385 . S
C1356 C1354 1.478 . S
C1356 C1358 1.381 . S
C1356 C1362 1.383 . S
C1357 C1353 1.495 . S
C1357 H1363 0.959 . S
C1357 H1364 0.961 . S
C1357 H1365 0.960 . S
C1358 C1356 1.381 . S
C1358 C1359 1.394 . S
C1358 H1366 0.930 . S
C1359 C1358 1.394 . S
C1359 C1360 1.383 . S
C1359 H1367 0.929 . S
C1360 C1359 1.383 . S
C1360 C1361 1.377 . S
C1361 H1345 0.930 . S
C1361 C1360 1.377 . S
C1361 C1362 1.379 . S
C1362 H1346 0.931 . S
C1362 C1356 1.383 . S
C1362 C1361 1.379 . S
H1363 C1357 0.959 . S
H1364 C1357 0.961 . S
H1365 C1357 0.960 . S
H1366 C1358 0.930 . S
H1367 C1359 0.929 . S
H1368 C1376 0.929 . S
H1369 C1378 0.930 . S
H1370 C1380 0.930 . S
H1371 C1383 0.929 . S
H1372 C1386 0.930 . S
H1373 C1388 0.960 . S
H1374 C1388 0.960 . S
H1375 C1388 0.960 . S
C1376 H1368 0.929 . S
C1376 C1377 1.377 . S
C1376 C1378 1.384 . S
C1377 C1376 1.377 . S
C1377 C1383 1.390 . S
C1378 H1369 0.930 . S
C1378 C1376 1.384 . S
C1378 C1379 1.372 . S
C1379 C1378 1.372 . S
C1379 C1380 1.400 . S
C1379 C1384 1.490 . S
C1380 H1370 0.930 . S
C1380 C1379 1.400 . S
C1380 C1383 1.386 . S
H1381 C1397 0.930 . S
H1382 C1398 0.931 . S
C1383 H1371 0.929 . S
C1383 C1377 1.390 . S
C1383 C1380 1.386 . S
C1384 C1379 1.490 . S
C1384 C1386 1.395 . S
C1384 C1387 1.403 . S
H1385 C1391 0.930 . S
C1386 H1372 0.930 . S
C1386 C1384 1.395 . S
C1386 C1389 1.403 . S
C1387 C1384 1.403 . S
C1387 C1388 1.524 . S
C1387 C1391 1.400 . S
C1388 H1373 0.960 . S
C1388 H1374 0.960 . S
C1388 H1375 0.960 . S
C1388 C1387 1.524 . S
C1389 C1386 1.403 . S
C1389 C1390 1.392 . S
C1389 C1393 1.495 . S
C1390 C1389 1.392 . S
C1390 C1391 1.385 . S
C1390 C1392 1.478 . S
C1391 H1385 0.930 . S
C1391 C1387 1.400 . S
C1391 C1390 1.385 . S
C1392 C1390 1.478 . S
C1392 C1394 1.381 . S
C1392 C1398 1.383 . S
C1393 C1389 1.495 . S
C1393 H1399 0.959 . S
C1393 H1400 0.961 . S
C1393 H1401 0.960 . S
C1394 C1392 1.381 . S
C1394 C1395 1.394 . S
C1394 H1402 0.930 . S
C1395 C1394 1.394 . S
C1395 C1396 1.383 . S
C1395 H1403 0.929 . S
C1396 C1395 1.383 . S
C1396 C1397 1.377 . S
C1397 H1381 0.930 . S
C1397 C1396 1.377 . S
C1397 C1398 1.379 . S
C1398 H1382 0.931 . S
C1398 C1392 1.383 . S
C1398 C1397 1.379 . S
H1399 C1393 0.959 . S
H1400 C1393 0.961 . S
H1401 C1393 0.960 . S
H1402 C1394 0.930 . S
H1403 C1395 0.929 . S
H1404 C1412 0.929 . S
H1405 C1414 0.930 . S
H1406 C1416 0.930 . S
H1407 C1419 0.929 . S
H1408 C1422 0.930 . S
H1409 C1424 0.949 1_545 S
H1410 C1424 0.960 . S
H1411 C1424 0.960 . S
C1412 H1404 0.929 . S
C1412 C1413 1.377 . S
C1412 C1414 1.384 . S
C1413 C1412 1.377 . S
C1413 C1419 1.390 . S
C1414 H1405 0.930 . S
C1414 C1412 1.384 . S
C1414 C1415 1.372 . S
C1415 C1414 1.372 . S
C1415 C1416 1.400 . S
C1415 C1420 1.490 . S
C1416 H1406 0.930 . S
C1416 C1415 1.400 . S
C1416 C1419 1.386 . S
H1417 C1433 0.930 . S
H1418 C1434 0.931 . S
C1419 H1407 0.929 . S
C1419 C1413 1.390 . S
C1419 C1416 1.386 . S
C1420 C1415 1.490 . S
C1420 C1422 1.395 . S
C1420 C1423 1.403 . S
H1421 C1427 0.930 . S
C1422 H1408 0.930 . S
C1422 C1420 1.395 . S
C1422 C1425 1.403 . S
C1423 C1420 1.403 . S
C1423 C1424 1.524 . S
C1423 C1427 1.400 . S
C1424 H1409 0.949 1_565 S
C1424 H1410 0.960 . S
C1424 H1411 0.960 . S
C1424 C1423 1.524 . S
C1425 C1422 1.403 . S
C1425 C1426 1.392 . S
C1425 C1429 1.495 . S
C1426 C1425 1.392 . S
C1426 C1427 1.385 . S
C1426 C1428 1.478 . S
C1427 H1421 0.930 . S
C1427 C1423 1.400 . S
C1427 C1426 1.385 . S
C1428 C1426 1.478 . S
C1428 C1430 1.381 . S
C1428 C1434 1.383 . S
C1429 C1425 1.495 . S
C1429 H1435 0.959 . S
C1429 H1436 0.961 . S
C1429 H1437 0.960 . S
C1430 C1428 1.381 . S
C1430 C1431 1.394 . S
C1430 H1438 0.930 . S
C1431 C1430 1.394 . S
C1431 C1432 1.383 . S
C1431 H1439 0.929 . S
C1432 C1431 1.383 . S
C1432 C1433 1.377 . S
C1433 H1417 0.930 . S
C1433 C1432 1.377 . S
C1433 C1434 1.379 . S
C1434 H1418 0.931 . S
C1434 C1428 1.383 . S
C1434 C1433 1.379 . S
H1435 C1429 0.959 . S
H1436 C1429 0.961 . S
H1437 C1429 0.960 . S
H1438 C1430 0.930 . S
H1439 C1431 0.929 . S
H1440 C1448 0.929 . S
H1441 C1450 0.930 . S
H1442 C1452 0.930 . S
H1443 C1455 0.929 . S
H1444 C1458 0.930 . S
H1445 C1460 0.960 . S
H1446 C1460 0.960 . S
H1447 C1460 0.960 . S
C1448 H1440 0.929 . S
C1448 C1449 1.377 . S
C1448 C1450 1.384 . S
C1449 C1448 1.377 . S
C1449 C1455 1.390 . S
C1450 H1441 0.930 . S
C1450 C1448 1.384 . S
C1450 C1451 1.372 . S
C1451 C1450 1.372 . S
C1451 C1452 1.400 . S
C1451 C1456 1.490 . S
C1452 H1442 0.930 . S
C1452 C1451 1.400 . S
C1452 C1455 1.386 . S
H1453 C1469 0.930 . S
H1454 C1470 0.931 . S
C1455 H1443 0.929 . S
C1455 C1449 1.390 . S
C1455 C1452 1.386 . S
C1456 C1451 1.490 . S
C1456 C1458 1.395 . S
C1456 C1459 1.403 . S
H1457 C1463 0.930 . S
C1458 H1444 0.930 . S
C1458 C1456 1.395 . S
C1458 C1461 1.403 . S
C1459 C1456 1.403 . S
C1459 C1460 1.524 . S
C1459 C1463 1.400 . S
C1460 H1445 0.960 . S
C1460 H1446 0.960 . S
C1460 H1447 0.960 . S
C1460 C1459 1.524 . S
C1461 C1458 1.403 . S
C1461 C1462 1.392 . S
C1461 C1465 1.495 . S
C1462 C1461 1.392 . S
C1462 C1463 1.385 . S
C1462 C1464 1.478 . S
C1463 H1457 0.930 . S
C1463 C1459 1.400 . S
C1463 C1462 1.385 . S
C1464 C1462 1.478 . S
C1464 C1466 1.381 . S
C1464 C1470 1.383 . S
C1465 C1461 1.495 . S
C1465 H1471 0.959 . S
C1465 H1472 0.961 . S
C1465 H1473 0.960 . S
C1466 C1464 1.381 . S
C1466 C1467 1.394 . S
C1466 H1474 0.930 . S
C1467 C1466 1.394 . S
C1467 C1468 1.383 . S
C1467 H1475 0.929 . S
C1468 C1467 1.383 . S
C1468 C1469 1.377 . S
C1469 H1453 0.930 . S
C1469 C1468 1.377 . S
C1469 C1470 1.379 . S
C1470 H1454 0.931 . S
C1470 C1464 1.383 . S
C1470 C1469 1.379 . S
H1471 C1465 0.959 . S
H1472 C1465 0.961 . S
H1473 C1465 0.960 . S
H1474 C1466 0.930 . S
H1475 C1467 0.929 . S
H1476 C1484 0.929 . S
H1477 C1486 0.930 . S
H1478 C1488 0.930 . S
H1479 C1491 0.929 . S
H1480 C1494 0.930 . S
H1481 C1496 0.960 . S
H1482 C1496 0.960 . S
H1483 C1496 0.960 . S
C1484 H1476 0.929 . S
C1484 C1485 1.377 . S
C1484 C1486 1.384 . S
C1485 C1484 1.377 . S
C1485 C1491 1.390 . S
C1486 H1477 0.930 . S
C1486 C1484 1.384 . S
C1486 C1487 1.372 . S
C1487 C1486 1.372 . S
C1487 C1488 1.400 . S
C1487 C1492 1.490 . S
C1488 H1478 0.930 . S
C1488 C1487 1.400 . S
C1488 C1491 1.386 . S
H1489 C1505 0.930 . S
H1490 C1506 0.931 . S
C1491 H1479 0.929 . S
C1491 C1485 1.390 . S
C1491 C1488 1.386 . S
C1492 C1487 1.490 . S
C1492 C1494 1.395 . S
C1492 C1495 1.403 . S
H1493 C1499 0.930 . S
C1494 H1480 0.930 . S
C1494 C1492 1.395 . S
C1494 C1497 1.403 . S
C1495 C1492 1.403 . S
C1495 C1496 1.524 . S
C1495 C1499 1.400 . S
C1496 H1481 0.960 . S
C1496 H1482 0.960 . S
C1496 H1483 0.960 . S
C1496 C1495 1.524 . S
C1497 C1494 1.403 . S
C1497 C1498 1.392 . S
C1497 C1501 1.495 . S
C1498 C1497 1.392 . S
C1498 C1499 1.385 . S
C1498 C1500 1.478 . S
C1499 H1493 0.930 . S
C1499 C1495 1.400 . S
C1499 C1498 1.385 . S
C1500 C1498 1.478 . S
C1500 C1502 1.381 . S
C1500 C1506 1.383 . S
C1501 C1497 1.495 . S
C1501 H1507 0.959 . S
C1501 H1508 0.961 . S
C1501 H1509 0.960 . S
C1502 C1500 1.381 . S
C1502 C1503 1.394 . S
C1502 H1510 0.930 . S
C1503 C1502 1.394 . S
C1503 C1504 1.383 . S
C1503 H1511 0.929 . S
C1504 C1503 1.383 . S
C1504 C1505 1.377 . S
C1505 H1489 0.930 . S
C1505 C1504 1.377 . S
C1505 C1506 1.379 . S
C1506 H1490 0.931 . S
C1506 C1500 1.383 . S
C1506 C1505 1.379 . S
H1507 C1501 0.959 . S
H1508 C1501 0.961 . S
H1509 C1501 0.960 . S
H1510 C1502 0.930 . S
H1511 C1503 0.929 . S
C657 C255 2.060 . S
C676 C387 2.101 . S
C712 C471 2.168 . S
C693 C294 2.088 . S
C748 C547 2.094 . S
C729 C177 2.229 . S
C784 C631 2.078 . S
C765 C216 2.203 . S
C820 C378 2.134 1_565 S
C801 C99 2.081 . S
C837 C138 2.084 . S
C856 C462 2.172 . S
C873 C21 2.236 . S
C892 C536 2.095 . S
C909 C60 2.226 . S
C928 C620 2.116 . S
C964 C375 0.474 1_455 S
C945 C196 0.459 . S
C1000 C459 0.376 1_545 S
C981 C235 0.412 . S
C1036 C552 0.543 . S
C1017 C289 0.424 . S
C1053 C157 0.442 . S
C1072 C636 0.545 . S
C1089 C40 0.438 . S
C1108 C384 0.509 . S
C1144 C468 0.424 . S
C1125 C79 0.384 . S
C1180 C543 0.490 . S
C1161 C133 0.391 . S
C1197 C1 0.446 . S
C1216 C627 0.402 . S
C1233 C211 2.597 . S
C1252 C368 2.717 . S
C1269 C250 2.546 . S
C1288 C452 2.664 . S
C1324 C546 2.656 . S
C1305 C274 2.428 . S
C1360 C630 2.703 . S
C1341 C172 2.453 . S
C1377 C55 2.584 . S
C1396 C379 2.705 . S
C1432 C463 2.664 . S
C1413 C94 2.533 . S
C1468 C555 2.668 . S
C1449 C118 2.414 . S
C1485 C16 2.450 . S
C1504 C639 2.690 . S
