# Generated by pormake.
# Topology rtl, (3,6)-cn, num edge types: 1
# Building blocks:
#     Node 0, Type 0, BuildingBlock: BETDIP_clean_linker_0, # of connection points: 3
#     Node 1, Type 0, BuildingBlock: BETDIP_clean_linker_0, # of connection points: 3
#     Node 2, Type 0, BuildingBlock: BETDIP_clean_linker_0, # of connection points: 3
#     Node 3, Type 0, BuildingBlock: BETDIP_clean_linker_0, # of connection points: 3
#     Node 4, Type 1, BuildingBlock: FUNLAD_clean_sbu_0, # of connection points: 6
#     Node 5, Type 1, BuildingBlock: FUNLAD_clean_sbu_0, # of connection points: 6
#     Edge 6, Type (0, 1), BuildingBlock: MIFKUJ_clean_linker_0, # of connection points: 2
#     Edge 7, Type (0, 1), BuildingBlock: MIFKUJ_clean_linker_0, # of connection points: 2
#     Edge 8, Type (0, 1), BuildingBlock: MIFKUJ_clean_linker_0, # of connection points: 2
#     Edge 9, Type (0, 1), BuildingBlock: MIFKUJ_clean_linker_0, # of connection points: 2
#     Edge 10, Type (0, 1), BuildingBlock: MIFKUJ_clean_linker_0, # of connection points: 2
#     Edge 11, Type (0, 1), BuildingBlock: MIFKUJ_clean_linker_0, # of connection points: 2
#     Edge 12, Type (0, 1), BuildingBlock: MIFKUJ_clean_linker_0, # of connection points: 2
#     Edge 13, Type (0, 1), BuildingBlock: MIFKUJ_clean_linker_0, # of connection points: 2
#     Edge 14, Type (0, 1), BuildingBlock: MIFKUJ_clean_linker_0, # of connection points: 2
#     Edge 15, Type (0, 1), BuildingBlock: MIFKUJ_clean_linker_0, # of connection points: 2
#     Edge 16, Type (0, 1), BuildingBlock: MIFKUJ_clean_linker_0, # of connection points: 2
#     Edge 17, Type (0, 1), BuildingBlock: MIFKUJ_clean_linker_0, # of connection points: 2
# Relax obj value: 0.002
# Max RMSD: 0.051
# Mean RMSD: 0.036
data_MOF--net-rtl--node1-FUNLAD_clean_sbu_0--node2-BETDIP_clean_linker_0--edge1-MIFKUJ_clean_linker_0
_symmetry_space_group_name_H-M    P1
_symmetry_Int_Tables_number       1
_symmetry_cell_setting            triclinic
loop_
_symmetry_equiv_pos_as_xyz
'x, y, z'
_cell_length_a     51.274572
_cell_length_b     51.263318
_cell_length_c     27.418765
_cell_angle_alpha  90.886154
_cell_angle_beta   91.909356
_cell_angle_gamma 89.98818
loop_
_atom_site_label
_atom_site_type_symbol
_atom_site_fract_x
_atom_site_fract_y
_atom_site_fract_z
_atom_type_partial_charge
H0 H 0.19162 0.81609 0.93616 0.0
H1 H 0.18653 0.81373 0.09242 0.0
H2 H 0.13491 0.8631 0.00803 0.0
H3 H 0.22978 0.80228 0.08739 0.0
C4 C 0.22956 0.7895 0.05541 0.0
C5 C 0.18272 0.82272 0.96946 0.0
C6 C 0.16186 0.84032 0.96715 0.0
C7 C 0.19207 0.81341 0.01449 0.0
C8 C 0.18015 0.82166 0.0577 0.0
C9 C 0.15922 0.83946 0.05586 0.0
C10 C 0.15044 0.84876 0.01025 0.0
N11 N 0.21271 0.79492 0.01465 0.0
H12 H 0.68804 0.69198 0.61591 0.0
H13 H 0.68516 0.68935 0.45865 0.0
H14 H 0.62902 0.64664 0.53819 0.0
H15 H 0.69966 0.7314 0.47051 0.0
C16 C 0.7141 0.7294 0.50014 0.0
C17 C 0.67899 0.68507 0.58183 0.0
C18 C 0.65724 0.66845 0.58232 0.0
C19 C 0.68857 0.6936 0.53746 0.0
C20 C 0.67726 0.68399 0.49322 0.0
C21 C 0.65567 0.66722 0.49345 0.0
C22 C 0.6455 0.65991 0.53801 0.0
N23 N 0.7096 0.7117 0.53838 0.0
H24 H 0.81382 0.18502 0.92568 0.0
H25 H 0.81116 0.18683 0.08261 0.0
H26 H 0.85578 0.12783 0.01084 0.0
H27 H 0.80357 0.23031 0.06856 0.0
C28 C 0.78993 0.22929 0.03742 0.0
C29 C 0.81959 0.17694 0.96071 0.0
C30 C 0.83588 0.15491 0.96289 0.0
C31 C 0.81073 0.18878 0.00355 0.0
C32 C 0.81814 0.17829 0.04914 0.0
C33 C 0.83404 0.15607 0.05164 0.0
C34 C 0.84276 0.14448 0.00856 0.0
N35 N 0.79372 0.2106 0.99949 0.0
H36 H 0.31391 0.31454 0.42386 0.0
H37 H 0.31533 0.3159 0.5811 0.0
H38 H 0.35834 0.37308 0.50379 0.0
H39 H 0.30561 0.27241 0.5688 0.0
C40 C 0.29165 0.27309 0.53816 0.0
C41 C 0.32063 0.32323 0.45832 0.0
C42 C 0.33692 0.34521 0.45874 0.0
C43 C 0.31286 0.31236 0.50213 0.0
C44 C 0.32161 0.32367 0.54694 0.0
C45 C 0.3378 0.34579 0.54773 0.0
C46 C 0.34525 0.35644 0.50346 0.0
N47 N 0.29539 0.29083 0.49971 0.0
C48 C 0.02906 0.97448 0.44066 0.0
N49 N 0.04481 0.04631 0.51095 0.0
C50 C 0.0703 0.03889 0.51261 0.0
C51 C 0.09012 0.05756 0.51456 0.0
C52 C 0.08371 0.0842 0.51463 0.0
C53 C 0.05724 0.09133 0.51238 0.0
C54 C 0.03801 0.07197 0.51068 0.0
Zn55 Zn 0.01673 0.01789 0.50969 0.0
C56 C 0.97407 0.02771 0.43727 0.0
N57 N 0.95932 0.95738 0.50877 0.0
C58 C 0.9667 0.93193 0.51173 0.0
C59 C 0.93367 0.96418 0.50542 0.0
C60 C 0.91429 0.94504 0.50483 0.0
C61 C 0.92133 0.91862 0.50798 0.0
C62 C 0.94794 0.91216 0.51154 0.0
Zn63 Zn 0.98714 0.98602 0.50977 0.0
O64 O 0.03683 0.99697 0.45487 0.0
C65 C 0.02983 0.97623 0.58206 0.0
O66 O 0.00854 0.96488 0.4579 0.0
H67 H 0.92821 0.98452 0.50337 0.0
H68 H 0.07532 0.0184 0.51256 0.0
H69 H 0.98718 0.92692 0.51419 0.0
O70 O 0.03816 0.99741 0.56476 0.0
O71 O 0.00814 0.96698 0.56615 0.0
H72 H 0.01762 0.07745 0.50948 0.0
O73 O 0.96642 0.00726 0.56235 0.0
O74 O 0.99582 0.03844 0.56405 0.0
O75 O 0.9664 0.00585 0.45281 0.0
O76 O 0.99505 0.03768 0.45507 0.0
C77 C 0.97466 0.02907 0.57924 0.0
H78 H 0.11027 0.05119 0.51553 0.0
H79 H 0.05144 0.11165 0.51279 0.0
H80 H 0.894 0.95089 0.50264 0.0
H81 H 0.95421 0.89202 0.5135 0.0
C82 C 0.47528 0.47632 0.94401 0.0
N83 N 0.54521 0.45833 0.02099 0.0
C84 C 0.53829 0.43273 0.0172 0.0
C85 C 0.5574 0.41328 0.01757 0.0
C86 C 0.58388 0.42023 0.02214 0.0
C87 C 0.59043 0.4468 0.02596 0.0
C88 C 0.57072 0.4656 0.0252 0.0
Zn89 Zn 0.51697 0.48659 0.02054 0.0
C90 C 0.52956 0.5301 0.95423 0.0
N91 N 0.45833 0.54589 0.01936 0.0
C92 C 0.43261 0.53935 0.01585 0.0
C93 C 0.46599 0.57124 0.02421 0.0
C94 C 0.44749 0.59115 0.0264 0.0
C95 C 0.4208 0.58497 0.02337 0.0
C96 C 0.41343 0.55868 0.01763 0.0
Zn97 Zn 0.48625 0.51738 0.01932 0.0
O98 O 0.49632 0.46695 0.96232 0.0
C99 C 0.47357 0.47399 0.0856 0.0
O100 O 0.46655 0.49778 0.96061 0.0
H101 H 0.48654 0.57604 0.02675 0.0
H102 H 0.5179 0.42736 0.01405 0.0
H103 H 0.42694 0.51907 0.01221 0.0
O104 O 0.49531 0.46534 0.07127 0.0
O105 O 0.46504 0.49564 0.06966 0.0
H106 H 0.57582 0.48605 0.02794 0.0
O107 O 0.50635 0.53655 0.07805 0.0
O108 O 0.53701 0.50671 0.07891 0.0
O109 O 0.50789 0.53865 0.969 0.0
O110 O 0.53817 0.50838 0.96972 0.0
C111 C 0.52767 0.52777 0.09607 0.0
H112 H 0.55148 0.39301 0.01506 0.0
H113 H 0.61061 0.45304 0.02892 0.0
H114 H 0.45402 0.61119 0.03017 0.0
H115 H 0.39305 0.55307 0.01559 0.0
H116 H 0.24947 0.27179 0.47382 0.0
H117 H 0.21382 0.24 0.47027 0.0
H118 H 0.24951 0.19929 0.59174 0.0
H119 H 0.2852 0.23123 0.59574 0.0
H120 H 0.233 0.16624 0.51355 0.0
H121 H 0.19908 0.23593 0.61239 0.0
H122 H 0.18744 0.28153 0.63156 0.0
H123 H 0.13516 0.28289 0.50599 0.0
H124 H 0.14678 0.23739 0.48566 0.0
H125 H 0.12814 0.08452 0.57253 0.0
H126 H 0.16309 0.11692 0.57553 0.0
H127 H 0.12161 0.16179 0.46603 0.0
H128 H 0.08645 0.12942 0.46301 0.0
H129 H 0.14115 0.19303 0.53659 0.0
H130 H 0.17413 0.12409 0.43695 0.0
H131 H 0.18576 0.0788 0.41527 0.0
H132 H 0.23981 0.07627 0.53812 0.0
H133 H 0.22823 0.12145 0.56097 0.0
C134 C 0.24977 0.25605 0.49972 0.0
C135 C 0.27012 0.25389 0.53507 0.0
C136 C 0.22934 0.23797 0.49774 0.0
C137 C 0.22899 0.21739 0.5309 0.0
C138 C 0.24945 0.21504 0.56584 0.0
C139 C 0.26974 0.23328 0.56816 0.0
C140 C 0.20728 0.19828 0.52903 0.0
C141 C 0.21295 0.172 0.51922 0.0
C142 C 0.18107 0.206 0.53503 0.0
C143 C 0.17402 0.23334 0.54722 0.0
C144 C 0.18529 0.24603 0.58861 0.0
C145 C 0.17865 0.27184 0.59974 0.0
C146 C 0.16063 0.28513 0.56993 0.0
C147 C 0.14915 0.27259 0.529 0.0
C148 C 0.15574 0.24678 0.51768 0.0
C149 C 0.12653 0.10119 0.54883 0.0
C150 C 0.10461 0.1043 0.51726 0.0
C151 C 0.14652 0.11971 0.5506 0.0
C152 C 0.14517 0.1416 0.52046 0.0
C153 C 0.12308 0.14504 0.48957 0.0
C154 C 0.10299 0.12656 0.48796 0.0
C155 C 0.16683 0.16086 0.52128 0.0
C156 C 0.16118 0.18721 0.53084 0.0
C157 C 0.19305 0.15323 0.51463 0.0
C158 C 0.20012 0.12607 0.50094 0.0
C159 C 0.18835 0.11381 0.45958 0.0
C160 C 0.19495 0.08817 0.44703 0.0
C161 C 0.21346 0.07464 0.47537 0.0
C162 C 0.22545 0.08676 0.51625 0.0
C163 C 0.21889 0.11239 0.52899 0.0
H164 H 0.21855 0.0548 0.46559 0.0
H165 H 0.15551 0.30511 0.57862 0.0
H166 H 0.23207 0.75018 0.98674 0.0
H167 H 0.26445 0.71523 0.98287 0.0
H168 H 0.30319 0.74574 0.11365 0.0
H169 H 0.27064 0.78077 0.11794 0.0
H170 H 0.33731 0.73366 0.0378 0.0
H171 H 0.26768 0.69355 0.12279 0.0
H172 H 0.22218 0.68021 0.13487 0.0
H173 H 0.2225 0.63445 0.00238 0.0
H174 H 0.26791 0.64784 0.98913 0.0
H175 H 0.42066 0.62654 0.0869 0.0
H176 H 0.38804 0.66112 0.09239 0.0
H177 H 0.34323 0.62526 0.9734 0.0
H178 H 0.37574 0.59044 0.96803 0.0
H179 H 0.31202 0.64035 0.04342 0.0
H180 H 0.38064 0.67997 0.95673 0.0
H181 H 0.42579 0.69348 0.94179 0.0
H182 H 0.42715 0.7404 0.07295 0.0
H183 H 0.38211 0.72687 0.08905 0.0
C184 C 0.24748 0.74947 0.01468 0.0
C185 C 0.24893 0.7682 0.05268 0.0
C186 C 0.2659 0.72944 0.0125 0.0
C187 C 0.28612 0.72786 0.0481 0.0
C188 C 0.28772 0.74665 0.08584 0.0
C189 C 0.26913 0.76655 0.08833 0.0
C190 C 0.30567 0.70664 0.04567 0.0
C191 C 0.33189 0.71326 0.03972 0.0
C192 C 0.29839 0.68005 0.04677 0.0
C193 C 0.27111 0.67191 0.05472 0.0
C194 C 0.25797 0.68083 0.096 0.0
C195 C 0.23221 0.67322 0.10311 0.0
C196 C 0.21943 0.65655 0.06935 0.0
C197 C 0.23241 0.64739 0.02847 0.0
C198 C 0.25817 0.65497 0.02116 0.0
C199 C 0.40396 0.62614 0.06164 0.0
C200 C 0.40085 0.60585 0.02682 0.0
C201 C 0.38532 0.64591 0.06482 0.0
C202 C 0.36336 0.64601 0.03284 0.0
C203 C 0.36002 0.6256 0.99844 0.0
C204 C 0.37858 0.6057 0.99546 0.0
C205 C 0.3438 0.66731 0.03554 0.0
C206 C 0.31753 0.66073 0.0415 0.0
C207 C 0.35102 0.69395 0.03399 0.0
C208 C 0.37808 0.7022 0.02435 0.0
C209 C 0.39063 0.69301 0.9826 0.0
C210 C 0.4162 0.70069 0.97388 0.0
C211 C 0.42935 0.71773 0.00647 0.0
C212 C 0.41695 0.72717 0.04778 0.0
C213 C 0.39139 0.71952 0.0567 0.0
H214 H 0.44914 0.72366 0.99965 0.0
H215 H 0.19949 0.65067 0.07492 0.0
H216 H 0.72267 0.76947 0.43997 0.0
H217 H 0.75931 0.80002 0.44249 0.0
H218 H 0.79328 0.76021 0.56677 0.0
H219 H 0.7562 0.73 0.56515 0.0
H220 H 0.79654 0.81116 0.58076 0.0
H221 H 0.81769 0.75246 0.45103 0.0
H222 H 0.81019 0.7272 0.37459 0.0
H223 H 0.7984 0.79818 0.29574 0.0
H224 H 0.80548 0.82387 0.37185 0.0
H225 H 0.91946 0.87559 0.56567 0.0
H226 H 0.88567 0.84182 0.56521 0.0
H227 H 0.84342 0.88139 0.44954 0.0
H228 H 0.87733 0.91495 0.4492 0.0
H229 H 0.84648 0.82855 0.43277 0.0
H230 H 0.82376 0.88679 0.56449 0.0
H231 H 0.83189 0.91153 0.64133 0.0
H232 H 0.84781 0.84021 0.71682 0.0
H233 H 0.84012 0.81505 0.64022 0.0
C234 C 0.738 0.76725 0.46778 0.0
C235 C 0.73664 0.7474 0.50227 0.0
C236 C 0.75899 0.78461 0.46904 0.0
C237 C 0.77929 0.78218 0.50434 0.0
C238 C 0.77788 0.76242 0.53912 0.0
C239 C 0.75672 0.74514 0.5381 0.0
C240 C 0.80169 0.80059 0.50532 0.0
C241 C 0.80774 0.81462 0.54861 0.0
C242 C 0.81607 0.80546 0.46316 0.0
C243 C 0.81191 0.79008 0.41725 0.0
C244 C 0.81332 0.76268 0.41746 0.0
C245 C 0.80917 0.74828 0.37417 0.0
C246 C 0.80377 0.76108 0.33036 0.0
C247 C 0.80257 0.7883 0.32971 0.0
C248 C 0.80668 0.80279 0.37291 0.0
C249 C 0.90307 0.87697 0.53988 0.0
C250 C 0.90101 0.89798 0.50756 0.0
C251 C 0.8837 0.85778 0.53992 0.0
C252 C 0.86193 0.85924 0.50763 0.0
C253 C 0.86003 0.87995 0.47484 0.0
C254 C 0.8793 0.89921 0.47495 0.0
C255 C 0.84106 0.83923 0.50798 0.0
C256 C 0.83535 0.82491 0.46494 0.0
C257 C 0.82713 0.83398 0.55042 0.0
C258 C 0.83164 0.84907 0.59652 0.0
C259 C 0.82921 0.8764 0.59739 0.0
C260 C 0.8337 0.8905 0.64091 0.0
C261 C 0.84044 0.87746 0.6839 0.0
C262 C 0.84263 0.85029 0.68347 0.0
C263 C 0.83819 0.8361 0.64003 0.0
H264 H 0.8439 0.88841 0.71756 0.0
H265 H 0.80056 0.74989 0.29689 0.0
H266 H 0.7489 0.23095 0.97039 0.0
H267 H 0.71337 0.26277 0.96695 0.0
H268 H 0.74751 0.30336 0.09254 0.0
H269 H 0.78268 0.27106 0.09695 0.0
H270 H 0.69718 0.29919 0.10212 0.0
H271 H 0.7519 0.32653 0.97355 0.0
H272 H 0.77667 0.32125 0.89847 0.0
H273 H 0.70631 0.30034 0.81793 0.0
H274 H 0.68116 0.30517 0.89271 0.0
H275 H 0.62757 0.41828 0.08198 0.0
H276 H 0.66186 0.38513 0.08305 0.0
H277 H 0.62122 0.34294 0.96635 0.0
H278 H 0.58705 0.37635 0.96439 0.0
H279 H 0.67368 0.34715 0.95113 0.0
H280 H 0.61899 0.32129 0.08059 0.0
H281 H 0.59467 0.32754 0.15596 0.0
H282 H 0.66587 0.34681 0.23527 0.0
H283 H 0.69058 0.34104 0.16017 0.0
C284 C 0.74889 0.24672 0.99713 0.0
C285 C 0.76861 0.24868 0.03383 0.0
C286 C 0.72861 0.26496 0.99502 0.0
C287 C 0.72792 0.28571 0.02908 0.0
C288 C 0.74761 0.28757 0.06583 0.0
C289 C 0.76773 0.26919 0.06823 0.0
C290 C 0.70649 0.30524 0.02706 0.0
C291 C 0.6923 0.30991 0.06925 0.0
C292 C 0.69963 0.31881 0.98387 0.0
C293 C 0.7147 0.31596 0.93884 0.0
C294 C 0.74174 0.32062 0.93991 0.0
C295 C 0.75585 0.31774 0.89739 0.0
C296 C 0.74309 0.3104 0.85349 0.0
C297 C 0.71618 0.30599 0.85198 0.0
C298 C 0.70199 0.30882 0.89441 0.0
C299 C 0.626 0.40204 0.05631 0.0
C300 C 0.60457 0.39993 0.02312 0.0
C301 C 0.64551 0.38301 0.05724 0.0
C302 C 0.64395 0.36144 0.02508 0.0
C303 C 0.62273 0.35938 0.99158 0.0
C304 C 0.60314 0.37837 0.99077 0.0
C305 C 0.66462 0.34118 0.02625 0.0
C306 C 0.6786 0.33637 0.98392 0.0
C307 C 0.6714 0.32759 0.06937 0.0
C308 C 0.6566 0.33096 0.11464 0.0
C309 C 0.62944 0.32706 0.11401 0.0
C310 C 0.61559 0.33048 0.1567 0.0
C311 C 0.62871 0.33763 0.20035 0.0
C312 C 0.65573 0.34131 0.20142 0.0
C313 C 0.66967 0.33794 0.15881 0.0
H314 H 0.61795 0.34027 0.23337 0.0
H315 H 0.75404 0.30818 0.82061 0.0
H316 H 0.10736 0.8494 0.06816 0.0
H317 H 0.08734 0.87033 0.13758 0.0
H318 H 0.16132 0.8695 0.21742 0.0
H319 H 0.18207 0.8505 0.14619 0.0
H320 H 0.07792 0.86011 0.22386 0.0
H321 H 0.16672 0.92146 0.29424 0.0
H322 H 0.20644 0.94138 0.26251 0.0
H323 H 0.16977 0.9452 0.11969 0.0
H324 H 0.12976 0.92562 0.15071 0.0
H325 H 0.03772 0.92226 0.43953 0.0
H326 H 0.06242 0.89692 0.38057 0.0
H327 H 0.0771 0.9672 0.30092 0.0
H328 H 0.05418 0.99276 0.36227 0.0
H329 H 0.11729 0.94061 0.29694 0.0
H330 H 0.02729 0.91871 0.26703 0.0
H331 H 0.98337 0.90359 0.28752 0.0
H332 H 0.01492 0.82924 0.3289 0.0
H333 H 0.05909 0.84405 0.30921 0.0
C334 C 0.11954 0.85394 0.10019 0.0
C335 C 0.14652 0.84882 0.10097 0.0
C336 C 0.10793 0.86561 0.14027 0.0
C337 C 0.12286 0.87203 0.18256 0.0
C338 C 0.14947 0.86537 0.18478 0.0
C339 C 0.16126 0.85414 0.14419 0.0
C340 C 0.11056 0.88657 0.2232 0.0
C341 C 0.0866 0.87767 0.23992 0.0
C342 C 0.1215 0.90982 0.24361 0.0
C343 C 0.1454 0.92178 0.2247 0.0
C344 C 0.16714 0.92661 0.2561 0.0
C345 C 0.18969 0.93784 0.23824 0.0
C346 C 0.19066 0.94446 0.18908 0.0
C347 C 0.16904 0.93997 0.15771 0.0
C348 C 0.14643 0.92878 0.1754 0.0
C349 C 0.04634 0.93222 0.40944 0.0
C350 C 0.04393 0.95935 0.40501 0.0
C351 C 0.06032 0.91773 0.37557 0.0
C352 C 0.07115 0.92996 0.33538 0.0
C353 C 0.06898 0.95722 0.33146 0.0
C354 C 0.05578 0.97182 0.36633 0.0
C355 C 0.08438 0.91442 0.29706 0.0
C356 C 0.10863 0.92301 0.28105 0.0
C357 C 0.07306 0.8916 0.27552 0.0
C358 C 0.04651 0.88258 0.28713 0.0
C359 C 0.02487 0.89919 0.28078 0.0
C360 C 0.99994 0.89067 0.29222 0.0
C361 C 0.99637 0.86549 0.30963 0.0
C362 C 0.01772 0.84875 0.31549 0.0
C363 C 0.0427 0.85719 0.30416 0.0
H364 H 0.97706 0.85893 0.31848 0.0
H365 H 0.20815 0.95313 0.17532 0.0
H366 H 0.68381 0.64357 0.65573 0.0
H367 H 0.66519 0.62249 0.72657 0.0
H368 H 0.58886 0.65099 0.68332 0.0
H369 H 0.6073 0.67169 0.61218 0.0
H370 H 0.60191 0.65393 0.78832 0.0
H371 H 0.60123 0.5939 0.64927 0.0
H372 H 0.62213 0.56976 0.58264 0.0
H373 H 0.67365 0.53238 0.68661 0.0
H374 H 0.6533 0.55667 0.75385 0.0
H375 H 0.51289 0.57176 0.90088 0.0
H376 H 0.53777 0.59724 0.84413 0.0
H377 H 0.60555 0.5494 0.87403 0.0
H378 H 0.58042 0.5232 0.92969 0.0
H379 H 0.60105 0.55712 0.78096 0.0
H380 H 0.59993 0.61304 0.92119 0.0
H381 H 0.58045 0.63734 0.98921 0.0
H382 H 0.53488 0.68269 0.8873 0.0
H383 H 0.55382 0.65842 0.81863 0.0
C384 C 0.66318 0.64575 0.66204 0.0
C385 C 0.64692 0.65913 0.62865 0.0
C386 C 0.65258 0.63367 0.70227 0.0
C387 C 0.62567 0.63514 0.7099 0.0
C388 C 0.60968 0.64973 0.67806 0.0
C389 C 0.62018 0.66142 0.63746 0.0
C390 C 0.61373 0.6197 0.74846 0.0
C391 C 0.60156 0.63277 0.78677 0.0
C392 C 0.61393 0.59212 0.74684 0.0
C393 C 0.62596 0.57732 0.70651 0.0
C394 C 0.61717 0.58071 0.65788 0.0
C395 C 0.62888 0.56697 0.62001 0.0
C396 C 0.64926 0.5496 0.63036 0.0
C397 C 0.6579 0.54588 0.67864 0.0
C398 C 0.64628 0.55962 0.71664 0.0
C399 C 0.53311 0.56667 0.89545 0.0
C400 C 0.5447 0.54549 0.91984 0.0
C401 C 0.54738 0.58138 0.86322 0.0
C402 C 0.57372 0.57559 0.85546 0.0
C403 C 0.5853 0.55432 0.87954 0.0
C404 C 0.57091 0.53937 0.91135 0.0
C405 C 0.58886 0.59128 0.82109 0.0
C406 C 0.60162 0.57826 0.78328 0.0
C407 C 0.58943 0.61892 0.82357 0.0
C408 C 0.57817 0.63376 0.86475 0.0
C409 C 0.58563 0.62808 0.91328 0.0
C410 C 0.5747 0.64187 0.95196 0.0
C411 C 0.5564 0.66151 0.94259 0.0
C412 C 0.54905 0.66746 0.8945 0.0
C413 C 0.55991 0.65372 0.85568 0.0
H414 H 0.54795 0.67215 0.97258 0.0
H415 H 0.6583 0.53897 0.601 0.0
H416 H 0.86228 0.18067 0.12424 0.0
H417 H 0.88307 0.16055 0.19642 0.0
H418 H 0.84634 0.08715 0.15731 0.0
H419 H 0.82613 0.10703 0.08442 0.0
H420 H 0.84912 0.10277 0.265 0.0
H421 H 0.90014 0.0911 0.12066 0.0
H422 H 0.92152 0.10768 0.04839 0.0
H423 H 0.97128 0.1564 0.14002 0.0
H424 H 0.94942 0.14076 0.21297 0.0
H425 H 0.92969 0.01101 0.3881 0.0
H426 H 0.9035 0.03472 0.32729 0.0
H427 H 0.95639 0.10006 0.3416 0.0
H428 H 0.98298 0.07629 0.40164 0.0
H429 H 0.94455 0.09065 0.24882 0.0
H430 H 0.89674 0.10129 0.39359 0.0
H431 H 0.87476 0.08723 0.46719 0.0
H432 H 0.81952 0.04304 0.37856 0.0
H433 H 0.84155 0.0564 0.30429 0.0
C434 C 0.85821 0.16042 0.13183 0.0
C435 C 0.84274 0.1453 0.09905 0.0
C436 C 0.87005 0.14898 0.17287 0.0
C437 C 0.8662 0.12241 0.18195 0.0
C438 C 0.84938 0.10772 0.15094 0.0
C439 C 0.83797 0.11901 0.10938 0.0
C440 C 0.88208 0.10924 0.22021 0.0
C441 C 0.86994 0.09986 0.26147 0.0
C442 C 0.90929 0.10608 0.2158 0.0
C443 C 0.92291 0.11503 0.17219 0.0
C444 C 0.91544 0.10556 0.12539 0.0
C445 C 0.92768 0.11476 0.08428 0.0
C446 C 0.94779 0.13307 0.08953 0.0
C447 C 0.95567 0.14223 0.13599 0.0
C448 C 0.94332 0.13326 0.17724 0.0
C449 C 0.93578 0.03041 0.37826 0.0
C450 C 0.95841 0.04177 0.39976 0.0
C451 C 0.9207 0.044 0.34369 0.0
C452 C 0.92778 0.06932 0.33038 0.0
C453 C 0.95053 0.08057 0.35137 0.0
C454 C 0.96569 0.06695 0.38574 0.0
C455 C 0.91167 0.08394 0.29405 0.0
C456 C 0.92377 0.09359 0.25286 0.0
C457 C 0.88446 0.08756 0.2989 0.0
C458 C 0.87096 0.07965 0.34338 0.0
C459 C 0.88003 0.08841 0.38978 0.0
C460 C 0.86753 0.08058 0.43165 0.0
C461 C 0.84576 0.06423 0.42762 0.0
C462 C 0.83641 0.05569 0.38164 0.0
C463 C 0.84889 0.06338 0.33963 0.0
H464 H 0.83611 0.05821 0.46011 0.0
H465 H 0.95728 0.14014 0.05761 0.0
H466 H 0.33773 0.39724 0.57373 0.0
H467 H 0.35932 0.41773 0.64526 0.0
H468 H 0.38233 0.34199 0.69798 0.0
H469 H 0.36036 0.3213 0.62646 0.0
H470 H 0.36938 0.37455 0.77294 0.0
H471 H 0.42522 0.37705 0.63785 0.0
H472 H 0.43695 0.38513 0.55302 0.0
H473 H 0.42143 0.46686 0.57304 0.0
H474 H 0.40932 0.45918 0.65801 0.0
H475 H 0.47831 0.42454 0.91986 0.0
H476 H 0.45303 0.40093 0.85575 0.0
H477 H 0.41454 0.47244 0.81456 0.0
H478 H 0.43923 0.49609 0.87922 0.0
H479 H 0.4367 0.44017 0.73506 0.0
H480 H 0.38047 0.43555 0.87289 0.0
H481 H 0.37077 0.42555 0.95801 0.0
H482 H 0.39032 0.34512 0.93279 0.0
H483 H 0.40051 0.35475 0.84756 0.0
C484 C 0.34715 0.38495 0.60086 0.0
C485 C 0.34768 0.35772 0.59433 0.0
C486 C 0.35949 0.39666 0.64166 0.0
C487 C 0.37291 0.38141 0.67639 0.0
C488 C 0.37217 0.35411 0.67149 0.0
C489 C 0.35961 0.34233 0.63072 0.0
C490 C 0.38906 0.3942 0.71577 0.0
C491 C 0.38431 0.38864 0.76465 0.0
C492 C 0.40852 0.41266 0.70497 0.0
C493 C 0.41614 0.4175 0.65414 0.0
C494 C 0.42415 0.39672 0.62407 0.0
C495 C 0.43088 0.40123 0.57596 0.0
C496 C 0.42984 0.42648 0.55754 0.0
C497 C 0.42219 0.4473 0.58732 0.0
C498 C 0.41543 0.44289 0.6355 0.0
C499 C 0.4645 0.43523 0.89705 0.0
C500 C 0.46073 0.46215 0.90448 0.0
C501 C 0.45005 0.42171 0.86066 0.0
C502 C 0.43193 0.43499 0.8307 0.0
C503 C 0.42844 0.46192 0.83745 0.0
C504 C 0.44251 0.47535 0.87441 0.0
C505 C 0.41668 0.42084 0.79202 0.0
C506 C 0.42175 0.42606 0.74325 0.0
C507 C 0.39787 0.40182 0.80298 0.0
C508 C 0.39154 0.39593 0.85403 0.0
C509 C 0.38294 0.41578 0.88562 0.0
C510 C 0.3773 0.41017 0.93387 0.0
C511 C 0.38001 0.38473 0.95088 0.0
C512 C 0.38828 0.36483 0.91959 0.0
C513 C 0.39396 0.37035 0.87129 0.0
H514 H 0.37565 0.38042 0.98826 0.0
H515 H 0.43503 0.42993 0.52024 0.0
H516 H 0.60536 0.67135 0.4604 0.0
H517 H 0.58487 0.64941 0.38904 0.0
H518 H 0.65908 0.61541 0.35373 0.0
H519 H 0.67979 0.63844 0.42395 0.0
H520 H 0.63364 0.62685 0.27298 0.0
H521 H 0.61227 0.58145 0.41734 0.0
H522 H 0.59602 0.57695 0.50043 0.0
H523 H 0.52009 0.60264 0.45094 0.0
H524 H 0.53599 0.60767 0.36765 0.0
H525 H 0.57782 0.52073 0.1308 0.0
H526 H 0.60083 0.54566 0.196 0.0
H527 H 0.53192 0.5922 0.21701 0.0
H528 H 0.50887 0.56764 0.15174 0.0
H529 H 0.55563 0.57311 0.3044 0.0
H530 H 0.57897 0.6179 0.15822 0.0
H531 H 0.59651 0.62029 0.07576 0.0
H532 H 0.67063 0.59216 0.1302 0.0
H533 H 0.6534 0.58922 0.21291 0.0
C534 C 0.61728 0.65948 0.43686 0.0
C535 C 0.64404 0.65639 0.44752 0.0
C536 C 0.60559 0.64683 0.39636 0.0
C537 C 0.62029 0.63018 0.36673 0.0
C538 C 0.64731 0.62803 0.37617 0.0
C539 C 0.65912 0.64115 0.41618 0.0
C540 C 0.60726 0.61415 0.32744 0.0
C541 C 0.61679 0.61486 0.28004 0.0
C542 C 0.58514 0.59856 0.33646 0.0
C543 C 0.57539 0.59515 0.38634 0.0
C544 C 0.59214 0.58627 0.42423 0.0
C545 C 0.583 0.58363 0.47136 0.0
C546 C 0.55706 0.58956 0.48099 0.0
C547 C 0.54018 0.59808 0.44344 0.0
C548 C 0.54925 0.60081 0.39625 0.0
C549 C 0.56756 0.53624 0.1494 0.0
C550 C 0.54154 0.54224 0.13613 0.0
C551 C 0.58075 0.5505 0.18644 0.0
C552 C 0.56807 0.57082 0.21103 0.0
C553 C 0.54201 0.57658 0.19838 0.0
C554 C 0.52891 0.56257 0.16102 0.0
C555 C 0.58188 0.58609 0.25016 0.0
C556 C 0.57251 0.58512 0.29753 0.0
C557 C 0.60435 0.60105 0.24124 0.0
C558 C 0.61481 0.60309 0.19165 0.0
C559 C 0.59895 0.61202 0.15254 0.0
C560 C 0.60885 0.61352 0.10576 0.0
C561 C 0.63465 0.60632 0.09771 0.0
C562 C 0.65064 0.5977 0.13647 0.0
C563 C 0.64082 0.59613 0.18331 0.0
H564 H 0.64227 0.60748 0.06147 0.0
H565 H 0.55002 0.58752 0.51751 0.0
H566 H 0.83883 0.1033 0.93785 0.0
H567 H 0.8614 0.08375 0.86924 0.0
H568 H 0.88071 0.16042 0.81866 0.0
H569 H 0.85792 0.18014 0.88725 0.0
H570 H 0.86805 0.12857 0.74298 0.0
H571 H 0.92643 0.12531 0.88168 0.0
H572 H 0.94132 0.11606 0.96602 0.0
H573 H 0.92673 0.03436 0.94112 0.0
H574 H 0.91165 0.04317 0.85656 0.0
H575 H 0.97666 0.0811 0.6031 0.0
H576 H 0.9512 0.10425 0.66451 0.0
H577 H 0.91381 0.0321 0.70077 0.0
H578 H 0.93862 0.00896 0.63888 0.0
H579 H 0.93721 0.06375 0.78249 0.0
H580 H 0.87818 0.06905 0.64159 0.0
H581 H 0.8659 0.07999 0.55669 0.0
H582 H 0.88504 0.16039 0.58605 0.0
H583 H 0.89766 0.14984 0.67115 0.0
C584 C 0.84776 0.11599 0.91194 0.0
C585 C 0.84683 0.14324 0.91814 0.0
C586 C 0.86069 0.10481 0.87282 0.0
C587 C 0.87322 0.12062 0.8394 0.0
C588 C 0.87127 0.14786 0.84414 0.0
C589 C 0.85818 0.15909 0.88321 0.0
C590 C 0.88904 0.10859 0.80069 0.0
C591 C 0.8834 0.11467 0.7517 0.0
C592 C 0.909 0.09032 0.81194 0.0
C593 C 0.91768 0.08494 0.86295 0.0
C594 C 0.92618 0.1054 0.89432 0.0
C595 C 0.93472 0.10022 0.94214 0.0
C596 C 0.93488 0.07464 0.959 0.0
C597 C 0.92656 0.05417 0.92803 0.0
C598 C 0.91807 0.05924 0.88012 0.0
C599 C 0.96298 0.07021 0.62415 0.0
C600 C 0.95963 0.04323 0.61629 0.0
C601 C 0.94841 0.08346 0.65896 0.0
C602 C 0.93064 0.06983 0.6869 0.0
C603 C 0.92742 0.0429 0.67941 0.0
C604 C 0.94157 0.02976 0.64404 0.0
C605 C 0.91589 0.08344 0.72507 0.0
C606 C 0.92186 0.0777 0.77394 0.0
C607 C 0.89657 0.10225 0.71369 0.0
C608 C 0.88916 0.1086 0.66253 0.0
C609 C 0.88004 0.08901 0.6298 0.0
C610 C 0.87295 0.09516 0.58167 0.0
C611 C 0.8748 0.12087 0.5659 0.0
C612 C 0.88367 0.14048 0.59829 0.0
C613 C 0.89076 0.13444 0.64649 0.0
H614 H 0.86926 0.12561 0.52865 0.0
H615 H 0.94154 0.07065 0.99601 0.0
H616 H 0.36215 0.31958 0.38645 0.0
H617 H 0.38294 0.33896 0.31615 0.0
H618 H 0.35376 0.41468 0.35801 0.0
H619 H 0.33339 0.39548 0.42878 0.0
H620 H 0.35054 0.40125 0.25194 0.0
H621 H 0.41062 0.40454 0.39278 0.0
H622 H 0.43521 0.38487 0.46163 0.0
H623 H 0.47345 0.33291 0.36259 0.0
H624 H 0.44875 0.35208 0.2931 0.0
H625 H 0.4314 0.49054 0.13579 0.0
H626 H 0.40612 0.46588 0.19317 0.0
H627 H 0.455 0.39857 0.16995 0.0
H628 H 0.48097 0.42346 0.11363 0.0
H629 H 0.44734 0.40413 0.26242 0.0
H630 H 0.3913 0.40256 0.12041 0.0
H631 H 0.36651 0.42063 0.05019 0.0
H632 H 0.32039 0.46659 0.14714 0.0
H633 H 0.34513 0.44903 0.21803 0.0
C634 C 0.35978 0.34025 0.37999 0.0
C635 C 0.34627 0.35611 0.41287 0.0
C636 C 0.37168 0.35128 0.34005 0.0
C637 C 0.36989 0.37822 0.33214 0.0
C638 C 0.35525 0.39384 0.36351 0.0
C639 C 0.34375 0.38291 0.40389 0.0
C640 C 0.38503 0.3905 0.29368 0.0
C641 C 0.37169 0.40208 0.2542 0.0
C642 C 0.4126 0.39088 0.29624 0.0
C643 C 0.42763 0.37952 0.33786 0.0
C644 C 0.4241 0.38877 0.38574 0.0
C645 C 0.43809 0.37774 0.42487 0.0
C646 C 0.45583 0.35759 0.41654 0.0
C647 C 0.45967 0.34849 0.369 0.0
C648 C 0.44569 0.35944 0.32973 0.0
C649 C 0.43675 0.47046 0.1428 0.0
C650 C 0.45817 0.45894 0.12013 0.0
C651 C 0.42216 0.45631 0.17539 0.0
C652 C 0.42834 0.43018 0.18528 0.0
C653 C 0.4498 0.41866 0.16281 0.0
C654 C 0.46462 0.43292 0.13061 0.0
C655 C 0.41293 0.41523 0.22032 0.0
C656 C 0.42621 0.40313 0.25946 0.0
C657 C 0.38529 0.41413 0.21702 0.0
C658 C 0.37022 0.42462 0.17453 0.0
C659 C 0.37598 0.41665 0.12677 0.0
C660 C 0.36192 0.42678 0.08683 0.0
C661 C 0.34193 0.44479 0.09417 0.0
C662 C 0.3359 0.45265 0.1415 0.0
C663 C 0.34991 0.44258 0.18159 0.0
H664 H 0.33108 0.45262 0.06318 0.0
H665 H 0.46664 0.34907 0.44691 0.0
H666 H 0.18834 0.8673 0.89962 0.0
H667 H 0.16967 0.88885 0.82688 0.0
H668 H 0.09397 0.8573 0.85676 0.0
H669 H 0.11243 0.83625 0.92977 0.0
H670 H 0.10805 0.85572 0.75439 0.0
H671 H 0.10463 0.91441 0.89513 0.0
H672 H 0.12437 0.93884 0.96521 0.0
H673 H 0.17448 0.97925 0.86921 0.0
H674 H 0.15531 0.9547 0.79861 0.0
H675 H 0.01494 0.93449 0.63508 0.0
H676 H 0.04123 0.91017 0.69458 0.0
H677 H 0.10679 0.96076 0.67142 0.0
H678 H 0.0803 0.98572 0.61275 0.0
H679 H 0.10301 0.95234 0.76474 0.0
H680 H 0.10384 0.89809 0.6226 0.0
H681 H 0.08536 0.87367 0.5514 0.0
H682 H 0.04258 0.82478 0.64624 0.0
H683 H 0.0605 0.84918 0.71802 0.0
C684 C 0.16784 0.86464 0.88996 0.0
C685 C 0.15172 0.85027 0.92002 0.0
C686 C 0.15722 0.87695 0.84868 0.0
C687 C 0.13046 0.87468 0.83674 0.0
C688 C 0.11467 0.85918 0.86538 0.0
C689 C 0.12516 0.84728 0.90701 0.0
C690 C 0.11835 0.89004 0.79686 0.0
C691 C 0.10681 0.87683 0.75655 0.0
C692 C 0.11743 0.91759 0.79937 0.0
C693 C 0.12878 0.93249 0.84171 0.0
C694 C 0.12003 0.92832 0.88903 0.0
C695 C 0.13108 0.94222 0.92883 0.0
C696 C 0.15072 0.96052 0.92169 0.0
C697 C 0.1593 0.96502 0.8747 0.0
C698 C 0.14835 0.95112 0.83478 0.0
C699 C 0.03494 0.94049 0.64268 0.0
C700 C 0.04556 0.96199 0.61911 0.0
C701 C 0.05002 0.92645 0.67647 0.0
C702 C 0.07616 0.93331 0.68676 0.0
C703 C 0.08671 0.95503 0.66387 0.0
C704 C 0.07154 0.96927 0.63037 0.0
C705 C 0.09223 0.91805 0.72217 0.0
C706 C 0.10451 0.93127 0.76185 0.0
C707 C 0.09406 0.8905 0.71875 0.0
C708 C 0.08338 0.87561 0.6757 0.0
C709 C 0.09036 0.88225 0.62827 0.0
C710 C 0.08 0.86839 0.58781 0.0
C711 C 0.06277 0.84772 0.59429 0.0
C712 C 0.05592 0.84081 0.64127 0.0
C713 C 0.0662 0.85463 0.68187 0.0
H714 H 0.05476 0.83702 0.56291 0.0
H715 H 0.15925 0.97127 0.95254 0.0
loop_
_geom_bond_atom_site_label_1
_geom_bond_atom_site_label_2
_geom_bond_distance
_geom_bond_site_symmetry_2
_ccdc_geom_bond_type
H0 C5 0.930 . S
H1 C8 0.930 . S
H2 C10 0.930 . S
H3 C4 1.016 . S
C4 H3 1.016 . S
C4 N11 1.286 . S
C5 H0 0.930 . S
C5 C6 1.397 . S
C5 C7 1.361 1_556 S
C6 C5 1.397 . S
C6 C10 1.390 1_556 S
C7 C5 1.361 1_554 S
C7 C8 1.393 . S
C7 N11 1.413 . S
C8 H1 0.930 . S
C8 C7 1.393 . S
C8 C9 1.399 . S
C9 C8 1.399 . S
C9 C10 1.381 . S
C10 H2 0.930 . S
C10 C6 1.390 1_554 S
C10 C9 1.381 . S
N11 C4 1.286 . S
N11 C7 1.413 . S
H12 C17 0.930 . S
H13 C20 0.930 . S
H14 C22 0.930 . S
H15 C16 1.016 . S
C16 H15 1.016 . S
C16 N23 1.286 . S
C17 H12 0.930 . S
C17 C18 1.397 . S
C17 C19 1.361 . S
C18 C17 1.397 . S
C18 C22 1.390 . S
C19 C17 1.361 . S
C19 C20 1.393 . S
C19 N23 1.413 . S
C20 H13 0.930 . S
C20 C19 1.393 . S
C20 C21 1.399 . S
C21 C20 1.399 . S
C21 C22 1.381 . S
C22 H14 0.930 . S
C22 C18 1.390 . S
C22 C21 1.381 . S
N23 C16 1.286 . S
N23 C19 1.413 . S
H24 C29 0.930 . S
H25 C32 0.930 . S
H26 C34 0.930 . S
H27 C28 1.016 . S
C28 H27 1.016 . S
C28 N35 1.286 1_554 S
C29 H24 0.930 . S
C29 C30 1.397 . S
C29 C31 1.361 . S
C30 C29 1.397 . S
C30 C34 1.390 1_556 S
C31 C29 1.361 . S
C31 C32 1.393 1_556 S
C31 N35 1.413 . S
C32 H25 0.930 . S
C32 C31 1.393 1_554 S
C32 C33 1.399 . S
C33 C32 1.399 . S
C33 C34 1.381 . S
C34 H26 0.930 . S
C34 C30 1.390 1_554 S
C34 C33 1.381 . S
N35 C28 1.286 1_556 S
N35 C31 1.413 . S
H36 C41 0.930 . S
H37 C44 0.930 . S
H38 C46 0.930 . S
H39 C40 1.016 . S
C40 H39 1.016 . S
C40 N47 1.286 . S
C41 H36 0.930 . S
C41 C42 1.397 . S
C41 C43 1.361 . S
C42 C41 1.397 . S
C42 C46 1.390 . S
C43 C41 1.361 . S
C43 C44 1.393 . S
C43 N47 1.413 . S
C44 H37 0.930 . S
C44 C43 1.393 . S
C44 C45 1.399 . S
C45 C44 1.399 . S
C45 C46 1.381 . S
C46 H38 0.930 . S
C46 C42 1.390 . S
C46 C45 1.381 . S
N47 C40 1.286 . S
N47 C43 1.413 . S
C48 O64 1.263 . S
C48 O66 1.254 . S
N49 C50 1.333 . S
N49 C54 1.307 . S
N49 Zn55 2.020 . S
C50 N49 1.333 . S
C50 C51 1.379 . S
C50 H68 0.952 . S
C51 C50 1.379 . S
C51 C52 1.390 . S
C51 H78 0.949 . S
C52 C51 1.390 . S
C52 C53 1.357 . S
C53 C52 1.357 . S
C53 C54 1.370 . S
C53 H79 0.950 . S
C54 N49 1.307 . S
C54 C53 1.370 . S
C54 H72 0.948 . S
Zn55 N49 2.020 . S
Zn55 O64 2.031 1_545 S
Zn55 O70 2.034 1_545 S
Zn55 O74 2.025 1_455 S
Zn55 O76 2.024 1_455 S
C56 O75 1.246 . S
C56 O76 1.249 . S
N57 C58 1.307 . S
N57 C59 1.333 . S
N57 Zn63 2.020 . S
C58 N57 1.307 . S
C58 C62 1.370 . S
C58 H69 0.948 . S
C59 N57 1.333 . S
C59 C60 1.379 . S
C59 H67 0.952 . S
C60 C59 1.379 . S
C60 C61 1.390 . S
C60 H80 0.949 . S
C61 C60 1.390 . S
C61 C62 1.357 . S
C62 C58 1.370 . S
C62 C61 1.357 . S
C62 H81 0.950 . S
Zn63 N57 2.020 . S
Zn63 O66 2.025 1_655 S
Zn63 O71 2.024 1_655 S
Zn63 O73 2.039 1_565 S
Zn63 O75 2.034 1_565 S
O64 C48 1.263 . S
O64 Zn55 2.031 1_565 S
C65 O70 1.246 . S
C65 O71 1.249 . S
O66 C48 1.254 . S
O66 Zn63 2.025 1_455 S
H67 C59 0.952 . S
H68 C50 0.952 . S
H69 C58 0.948 . S
O70 Zn55 2.034 1_565 S
O70 C65 1.246 . S
O71 Zn63 2.024 1_455 S
O71 C65 1.249 . S
H72 C54 0.948 . S
O73 Zn63 2.039 1_545 S
O73 C77 1.251 . S
O74 Zn55 2.025 1_655 S
O74 C77 1.254 . S
O75 C56 1.246 . S
O75 Zn63 2.034 1_545 S
O76 Zn55 2.024 1_655 S
O76 C56 1.249 . S
C77 O73 1.251 . S
C77 O74 1.254 . S
H78 C51 0.949 . S
H79 C53 0.950 . S
H80 C60 0.949 . S
H81 C62 0.950 . S
C82 O98 1.251 . S
C82 O100 1.254 . S
N83 C84 1.333 . S
N83 C88 1.307 . S
N83 Zn89 2.020 . S
C84 N83 1.333 . S
C84 C85 1.379 . S
C84 H102 0.952 1_554 S
C85 C84 1.379 . S
C85 C86 1.390 . S
C85 H112 0.949 1_554 S
C86 C85 1.390 . S
C86 C87 1.357 . S
C87 C86 1.357 . S
C87 C88 1.370 . S
C87 H113 0.950 . S
C88 N83 1.307 . S
C88 C87 1.370 . S
C88 H106 0.948 . S
Zn89 N83 2.020 . S
Zn89 O98 2.039 1_554 S
Zn89 O104 2.034 . S
Zn89 O108 2.025 . S
Zn89 O110 2.024 1_554 S
C90 O109 1.246 . S
C90 O110 1.249 . S
N91 C92 1.307 . S
N91 C93 1.333 . S
N91 Zn97 2.020 . S
C92 N91 1.307 . S
C92 C96 1.370 . S
C92 H103 0.948 . S
C93 N91 1.333 . S
C93 C94 1.379 . S
C93 H101 0.952 . S
C94 C93 1.379 . S
C94 C95 1.390 . S
C94 H114 0.949 . S
C95 C94 1.390 . S
C95 C96 1.357 . S
C96 C92 1.370 . S
C96 C95 1.357 . S
C96 H115 0.950 . S
Zn97 N91 2.020 . S
Zn97 O100 2.025 1_554 S
Zn97 O105 2.024 . S
Zn97 O107 2.039 . S
Zn97 O109 2.034 1_554 S
O98 C82 1.251 . S
O98 Zn89 2.039 1_556 S
C99 O104 1.246 . S
C99 O105 1.249 . S
O100 C82 1.254 . S
O100 Zn97 2.025 1_556 S
H101 C93 0.952 . S
H102 C84 0.952 1_556 S
H103 C92 0.948 . S
O104 Zn89 2.034 . S
O104 C99 1.246 . S
O105 Zn97 2.024 . S
O105 C99 1.249 . S
H106 C88 0.948 . S
O107 Zn97 2.039 . S
O107 C111 1.251 . S
O108 Zn89 2.025 . S
O108 C111 1.254 . S
O109 C90 1.246 . S
O109 Zn97 2.034 1_556 S
O110 Zn89 2.024 1_556 S
O110 C90 1.249 . S
C111 O107 1.251 . S
C111 O108 1.254 . S
H112 C85 0.949 1_556 S
H113 C87 0.950 . S
H114 C94 0.949 . S
H115 C96 0.950 . S
H116 C134 0.951 . S
H117 C136 0.951 . S
H118 C138 0.950 . S
H119 C139 0.950 . S
H120 C141 0.950 . S
H121 C144 0.950 . S
H122 C145 0.950 . S
H123 C147 0.950 . S
H124 C148 0.950 . S
H125 C149 0.951 . S
H126 C151 0.951 . S
H127 C153 0.950 . S
H128 C154 0.950 . S
H129 C156 0.950 . S
H130 C159 0.950 . S
H131 C160 0.950 . S
H132 C162 0.950 . S
H133 C163 0.950 . S
C134 H116 0.951 . S
C134 C135 1.366 . S
C134 C136 1.388 . S
C135 C134 1.366 . S
C135 C139 1.385 . S
C136 H117 0.951 . S
C136 C134 1.388 . S
C136 C137 1.366 . S
C137 C136 1.366 . S
C137 C138 1.414 . S
C137 C140 1.499 . S
C138 H118 0.950 . S
C138 C137 1.414 . S
C138 C139 1.374 . S
C139 H119 0.950 . S
C139 C135 1.385 . S
C139 C138 1.374 . S
C140 C137 1.499 . S
C140 C141 1.373 . S
C140 C142 1.389 . S
C141 H120 0.950 . S
C141 C140 1.373 . S
C141 C157 1.377 . S
C142 C140 1.389 . S
C142 C143 1.524 . S
C142 C156 1.377 . S
C143 C142 1.524 . S
C143 C144 1.397 . S
C143 C148 1.363 . S
C144 H121 0.950 . S
C144 C143 1.397 . S
C144 C145 1.334 . S
C145 H122 0.950 . S
C145 C144 1.334 . S
C145 C146 1.287 . S
C146 C145 1.287 . S
C146 C147 1.524 . S
C146 H165 0.913 . S
C147 H123 0.950 . S
C147 C146 1.524 . S
C147 C148 1.415 . S
C148 H124 0.950 . S
C148 C143 1.363 . S
C148 C147 1.415 . S
C149 H125 0.951 . S
C149 C150 1.366 . S
C149 C151 1.388 . S
C150 C149 1.366 . S
C150 C154 1.385 . S
C151 H126 0.951 . S
C151 C149 1.388 . S
C151 C152 1.366 . S
C152 C151 1.366 . S
C152 C153 1.414 . S
C152 C155 1.499 . S
C153 H127 0.950 . S
C153 C152 1.414 . S
C153 C154 1.374 . S
C154 H128 0.950 . S
C154 C150 1.385 . S
C154 C153 1.374 . S
C155 C152 1.499 . S
C155 C156 1.373 . S
C155 C157 1.389 . S
C156 H129 0.950 . S
C156 C142 1.377 . S
C156 C155 1.373 . S
C157 C141 1.377 . S
C157 C155 1.389 . S
C157 C158 1.524 . S
C158 C157 1.524 . S
C158 C159 1.397 . S
C158 C163 1.363 . S
C159 H130 0.950 . S
C159 C158 1.397 . S
C159 C160 1.334 . S
C160 H131 0.950 . S
C160 C159 1.334 . S
C160 C161 1.287 . S
C161 C160 1.287 . S
C161 C162 1.524 . S
C161 H164 0.999 . S
C162 H132 0.950 . S
C162 C161 1.524 . S
C162 C163 1.415 . S
C163 H133 0.950 . S
C163 C158 1.363 . S
C163 C162 1.415 . S
H164 C161 0.999 . S
H165 C146 0.913 . S
H166 C184 0.951 1_556 S
H167 C186 0.951 1_556 S
H168 C188 0.950 . S
H169 C189 0.950 . S
H170 C191 0.950 . S
H171 C194 0.950 . S
H172 C195 0.950 . S
H173 C197 0.950 . S
H174 C198 0.950 . S
H175 C199 0.951 . S
H176 C201 0.951 . S
H177 C203 0.950 1_556 S
H178 C204 0.950 1_556 S
H179 C206 0.950 . S
H180 C209 0.950 . S
H181 C210 0.950 . S
H182 C212 0.950 . S
H183 C213 0.963 . S
C184 H166 0.951 1_554 S
C184 C185 1.366 . S
C184 C186 1.388 . S
C185 C184 1.366 . S
C185 C189 1.385 . S
C186 H167 0.951 1_554 S
C186 C184 1.388 . S
C186 C187 1.366 . S
C187 C186 1.366 . S
C187 C188 1.414 . S
C187 C190 1.499 . S
C188 H168 0.950 . S
C188 C187 1.414 . S
C188 C189 1.374 . S
C189 H169 0.950 . S
C189 C185 1.385 . S
C189 C188 1.374 . S
C190 C187 1.499 . S
C190 C191 1.373 . S
C190 C192 1.389 . S
C191 H170 0.950 . S
C191 C190 1.373 . S
C191 C207 1.377 . S
C192 C190 1.389 . S
C192 C193 1.524 . S
C192 C206 1.377 . S
C193 C192 1.524 . S
C193 C194 1.397 . S
C193 C198 1.363 . S
C194 H171 0.950 . S
C194 C193 1.397 . S
C194 C195 1.334 . S
C195 H172 0.950 . S
C195 C194 1.334 . S
C195 C196 1.287 . S
C196 C195 1.287 . S
C196 C197 1.524 . S
C196 H215 0.913 . S
C197 H173 0.950 . S
C197 C196 1.524 . S
C197 C198 1.415 . S
C198 H174 0.950 . S
C198 C193 1.363 . S
C198 C197 1.415 . S
C199 H175 0.951 . S
C199 C200 1.366 . S
C199 C201 1.388 . S
C200 C199 1.366 . S
C200 C204 1.385 . S
C201 H176 0.951 . S
C201 C199 1.388 . S
C201 C202 1.366 . S
C202 C201 1.366 . S
C202 C203 1.414 . S
C202 C205 1.499 . S
C203 H177 0.950 1_554 S
C203 C202 1.414 . S
C203 C204 1.374 . S
C204 H178 0.950 1_554 S
C204 C200 1.385 . S
C204 C203 1.374 . S
C205 C202 1.499 . S
C205 C206 1.373 . S
C205 C207 1.389 . S
C206 H179 0.950 . S
C206 C192 1.377 . S
C206 C205 1.373 . S
C207 C191 1.377 . S
C207 C205 1.389 . S
C207 C208 1.524 1_554 S
C208 C207 1.524 1_556 S
C208 C209 1.397 . S
C208 C213 1.358 1_556 S
C209 H180 0.950 . S
C209 C208 1.397 . S
C209 C210 1.334 . S
C210 H181 0.950 . S
C210 C209 1.334 . S
C210 C211 1.287 . S
C211 C210 1.287 . S
C211 C212 1.524 . S
C211 H214 0.999 . S
C212 H182 0.950 . S
C212 C211 1.524 . S
C212 C213 1.407 1_556 S
C213 H183 0.963 . S
C213 C208 1.358 1_554 S
C213 C212 1.407 1_554 S
H214 C211 0.999 . S
H215 C196 0.913 . S
H216 C234 0.951 . S
H217 C236 0.951 . S
H218 C238 0.950 . S
H219 C239 0.950 . S
H220 C241 0.950 . S
H221 C244 0.950 . S
H222 C245 0.950 . S
H223 C247 0.950 . S
H224 C248 0.950 . S
H225 C249 0.951 . S
H226 C251 0.951 . S
H227 C253 0.950 . S
H228 C254 0.950 . S
H229 C256 0.950 . S
H230 C259 0.950 . S
H231 C260 0.950 . S
H232 C262 0.950 . S
H233 C263 0.950 . S
C234 H216 0.951 . S
C234 C235 1.366 . S
C234 C236 1.388 . S
C235 C234 1.366 . S
C235 C239 1.385 . S
C236 H217 0.951 . S
C236 C234 1.388 . S
C236 C237 1.366 . S
C237 C236 1.366 . S
C237 C238 1.414 . S
C237 C240 1.499 . S
C238 H218 0.950 . S
C238 C237 1.414 . S
C238 C239 1.374 . S
C239 H219 0.950 . S
C239 C235 1.385 . S
C239 C238 1.374 . S
C240 C237 1.499 . S
C240 C241 1.373 . S
C240 C242 1.389 . S
C241 H220 0.950 . S
C241 C240 1.373 . S
C241 C257 1.377 . S
C242 C240 1.389 . S
C242 C243 1.524 . S
C242 C256 1.377 . S
C243 C242 1.524 . S
C243 C244 1.397 . S
C243 C248 1.363 . S
C244 H221 0.950 . S
C244 C243 1.397 . S
C244 C245 1.334 . S
C245 H222 0.950 . S
C245 C244 1.334 . S
C245 C246 1.287 . S
C246 C245 1.287 . S
C246 C247 1.524 . S
C246 H265 0.913 . S
C247 H223 0.950 . S
C247 C246 1.524 . S
C247 C248 1.415 . S
C248 H224 0.950 . S
C248 C243 1.363 . S
C248 C247 1.415 . S
C249 H225 0.951 . S
C249 C250 1.366 . S
C249 C251 1.388 . S
C250 C249 1.366 . S
C250 C254 1.385 . S
C251 H226 0.951 . S
C251 C249 1.388 . S
C251 C252 1.366 . S
C252 C251 1.366 . S
C252 C253 1.414 . S
C252 C255 1.499 . S
C253 H227 0.950 . S
C253 C252 1.414 . S
C253 C254 1.374 . S
C254 H228 0.950 . S
C254 C250 1.385 . S
C254 C253 1.374 . S
C255 C252 1.499 . S
C255 C256 1.373 . S
C255 C257 1.389 . S
C256 H229 0.950 . S
C256 C242 1.377 . S
C256 C255 1.373 . S
C257 C241 1.377 . S
C257 C255 1.389 . S
C257 C258 1.524 . S
C258 C257 1.524 . S
C258 C259 1.397 . S
C258 C263 1.363 . S
C259 H230 0.950 . S
C259 C258 1.397 . S
C259 C260 1.334 . S
C260 H231 0.950 . S
C260 C259 1.334 . S
C260 C261 1.287 . S
C261 C260 1.287 . S
C261 C262 1.524 . S
C261 H264 0.999 . S
C262 H232 0.950 . S
C262 C261 1.524 . S
C262 C263 1.415 . S
C263 H233 0.950 . S
C263 C258 1.363 . S
C263 C262 1.415 . S
H264 C261 0.999 . S
H265 C246 0.913 . S
H266 C284 0.951 . S
H267 C286 0.951 . S
H268 C288 0.950 . S
H269 C289 0.950 . S
H270 C291 0.950 . S
H271 C294 0.950 . S
H272 C295 0.950 . S
H273 C297 0.950 . S
H274 C298 0.950 . S
H275 C299 0.951 . S
H276 C301 0.951 . S
H277 C303 0.950 . S
H278 C304 0.950 . S
H279 C306 0.950 . S
H280 C309 0.950 . S
H281 C310 0.950 . S
H282 C312 0.950 . S
H283 C313 0.950 . S
C284 H266 0.951 . S
C284 C285 1.366 1_556 S
C284 C286 1.388 . S
C285 C284 1.366 1_554 S
C285 C289 1.385 . S
C286 H267 0.951 . S
C286 C284 1.388 . S
C286 C287 1.366 1_556 S
C287 C286 1.366 1_554 S
C287 C288 1.414 . S
C287 C290 1.499 . S
C288 H268 0.950 . S
C288 C287 1.414 . S
C288 C289 1.374 . S
C289 H269 0.950 . S
C289 C285 1.385 . S
C289 C288 1.374 . S
C290 C287 1.499 . S
C290 C291 1.373 . S
C290 C292 1.389 1_554 S
C291 H270 0.950 . S
C291 C290 1.373 . S
C291 C307 1.377 . S
C292 C290 1.389 1_556 S
C292 C293 1.524 . S
C292 C306 1.377 . S
C293 C292 1.524 . S
C293 C294 1.397 . S
C293 C298 1.363 . S
C294 H271 0.950 . S
C294 C293 1.397 . S
C294 C295 1.334 . S
C295 H272 0.950 . S
C295 C294 1.334 . S
C295 C296 1.287 . S
C296 C295 1.287 . S
C296 C297 1.524 . S
C296 H315 0.913 . S
C297 H273 0.950 . S
C297 C296 1.524 . S
C297 C298 1.415 . S
C298 H274 0.950 . S
C298 C293 1.363 . S
C298 C297 1.415 . S
C299 H275 0.951 . S
C299 C300 1.366 . S
C299 C301 1.388 . S
C300 C299 1.366 . S
C300 C304 1.385 1_554 S
C301 H276 0.951 . S
C301 C299 1.388 . S
C301 C302 1.366 . S
C302 C301 1.366 . S
C302 C303 1.414 1_554 S
C302 C305 1.499 . S
C303 H277 0.950 . S
C303 C302 1.414 1_556 S
C303 C304 1.374 . S
C304 H278 0.950 . S
C304 C300 1.385 1_556 S
C304 C303 1.374 . S
C305 C302 1.499 . S
C305 C306 1.373 1_554 S
C305 C307 1.389 . S
C306 H279 0.950 . S
C306 C292 1.377 . S
C306 C305 1.373 1_556 S
C307 C291 1.377 . S
C307 C305 1.389 . S
C307 C308 1.524 . S
C308 C307 1.524 . S
C308 C309 1.397 . S
C308 C313 1.363 . S
C309 H280 0.950 . S
C309 C308 1.397 . S
C309 C310 1.334 . S
C310 H281 0.950 . S
C310 C309 1.334 . S
C310 C311 1.287 . S
C311 C310 1.287 . S
C311 C312 1.524 . S
C311 H314 0.999 . S
C312 H282 0.950 . S
C312 C311 1.524 . S
C312 C313 1.415 . S
C313 H283 0.950 . S
C313 C308 1.363 . S
C313 C312 1.415 . S
H314 C311 0.999 . S
H315 C296 0.913 . S
H316 C334 0.951 . S
H317 C336 0.951 . S
H318 C338 0.950 . S
H319 C339 0.950 . S
H320 C341 0.950 . S
H321 C344 0.950 . S
H322 C345 0.950 . S
H323 C347 0.962 . S
H324 C348 0.950 . S
H325 C349 0.951 . S
H326 C351 0.951 . S
H327 C353 0.950 . S
H328 C354 0.950 . S
H329 C356 0.950 . S
H330 C359 0.950 . S
H331 C360 0.950 . S
H332 C362 0.950 . S
H333 C363 0.950 . S
C334 H316 0.951 . S
C334 C335 1.366 . S
C334 C336 1.388 . S
C335 C334 1.366 . S
C335 C339 1.385 . S
C336 H317 0.951 . S
C336 C334 1.388 . S
C336 C337 1.366 . S
C337 C336 1.366 . S
C337 C338 1.414 . S
C337 C340 1.499 . S
C338 H318 0.950 . S
C338 C337 1.414 . S
C338 C339 1.374 . S
C339 H319 0.950 . S
C339 C335 1.385 . S
C339 C338 1.374 . S
C340 C337 1.499 . S
C340 C341 1.373 . S
C340 C342 1.389 . S
C341 H320 0.950 . S
C341 C340 1.373 . S
C341 C357 1.377 . S
C342 C340 1.389 . S
C342 C343 1.524 . S
C342 C356 1.377 . S
C343 C342 1.524 . S
C343 C344 1.397 . S
C343 C348 1.363 . S
C344 H321 0.950 . S
C344 C343 1.397 . S
C344 C345 1.334 . S
C345 H322 0.950 . S
C345 C344 1.334 . S
C345 C346 1.287 . S
C346 C345 1.287 . S
C346 C347 1.524 . S
C346 H365 0.913 . S
C347 H323 0.962 . S
C347 C346 1.524 . S
C347 C348 1.415 . S
C348 H324 0.950 . S
C348 C343 1.363 . S
C348 C347 1.415 . S
C349 H325 0.951 . S
C349 C350 1.366 . S
C349 C351 1.388 . S
C350 C349 1.366 . S
C350 C354 1.385 . S
C351 H326 0.951 . S
C351 C349 1.388 . S
C351 C352 1.366 . S
C352 C351 1.366 . S
C352 C353 1.414 . S
C352 C355 1.499 . S
C353 H327 0.950 . S
C353 C352 1.414 . S
C353 C354 1.374 . S
C354 H328 0.950 . S
C354 C350 1.385 . S
C354 C353 1.374 . S
C355 C352 1.499 . S
C355 C356 1.373 . S
C355 C357 1.389 . S
C356 H329 0.950 . S
C356 C342 1.377 . S
C356 C355 1.373 . S
C357 C341 1.377 . S
C357 C355 1.389 . S
C357 C358 1.524 . S
C358 C357 1.524 . S
C358 C359 1.397 . S
C358 C363 1.363 . S
C359 H330 0.950 . S
C359 C358 1.397 . S
C359 C360 1.334 . S
C360 H331 0.950 . S
C360 C359 1.334 . S
C360 C361 1.287 . S
C361 C360 1.287 . S
C361 C362 1.524 . S
C361 H364 0.999 . S
C362 H332 0.950 . S
C362 C361 1.524 . S
C362 C363 1.415 . S
C363 H333 0.950 . S
C363 C358 1.363 . S
C363 C362 1.415 . S
H364 C361 0.999 . S
H365 C346 0.913 . S
H366 C384 0.951 . S
H367 C386 0.951 . S
H368 C388 0.950 . S
H369 C389 0.950 . S
H370 C391 0.950 . S
H371 C394 0.950 . S
H372 C395 0.950 . S
H373 C397 0.950 . S
H374 C398 0.950 . S
H375 C399 0.951 . S
H376 C401 0.951 . S
H377 C403 0.950 . S
H378 C404 0.950 . S
H379 C406 0.950 . S
H380 C409 0.950 . S
H381 C410 0.950 . S
H382 C412 0.950 . S
H383 C413 0.950 . S
C384 H366 0.951 . S
C384 C385 1.366 . S
C384 C386 1.388 . S
C385 C384 1.366 . S
C385 C389 1.385 . S
C386 H367 0.951 . S
C386 C384 1.388 . S
C386 C387 1.366 . S
C387 C386 1.366 . S
C387 C388 1.414 . S
C387 C390 1.499 . S
C388 H368 0.950 . S
C388 C387 1.414 . S
C388 C389 1.374 . S
C389 H369 0.950 . S
C389 C385 1.385 . S
C389 C388 1.374 . S
C390 C387 1.499 . S
C390 C391 1.373 . S
C390 C392 1.389 . S
C391 H370 0.950 . S
C391 C390 1.373 . S
C391 C407 1.377 . S
C392 C390 1.389 . S
C392 C393 1.524 . S
C392 C406 1.377 . S
C393 C392 1.524 . S
C393 C394 1.397 . S
C393 C398 1.363 . S
C394 H371 0.950 . S
C394 C393 1.397 . S
C394 C395 1.334 . S
C395 H372 0.950 . S
C395 C394 1.334 . S
C395 C396 1.287 . S
C396 C395 1.287 . S
C396 C397 1.524 . S
C396 H415 0.913 . S
C397 H373 0.950 . S
C397 C396 1.524 . S
C397 C398 1.415 . S
C398 H374 0.950 . S
C398 C393 1.363 . S
C398 C397 1.415 . S
C399 H375 0.951 . S
C399 C400 1.366 . S
C399 C401 1.388 . S
C400 C399 1.366 . S
C400 C404 1.385 . S
C401 H376 0.951 . S
C401 C399 1.388 . S
C401 C402 1.366 . S
C402 C401 1.366 . S
C402 C403 1.414 . S
C402 C405 1.499 . S
C403 H377 0.950 . S
C403 C402 1.414 . S
C403 C404 1.374 . S
C404 H378 0.950 . S
C404 C400 1.385 . S
C404 C403 1.374 . S
C405 C402 1.499 . S
C405 C406 1.373 . S
C405 C407 1.389 . S
C406 H379 0.950 . S
C406 C392 1.377 . S
C406 C405 1.373 . S
C407 C391 1.377 . S
C407 C405 1.389 . S
C407 C408 1.524 . S
C408 C407 1.524 . S
C408 C409 1.397 . S
C408 C413 1.363 . S
C409 H380 0.950 . S
C409 C408 1.397 . S
C409 C410 1.334 . S
C410 H381 0.950 . S
C410 C409 1.334 . S
C410 C411 1.287 . S
C411 C410 1.287 . S
C411 C412 1.524 . S
C411 H414 0.999 . S
C412 H382 0.950 . S
C412 C411 1.524 . S
C412 C413 1.415 . S
C413 H383 0.950 . S
C413 C408 1.363 . S
C413 C412 1.415 . S
H414 C411 0.999 . S
H415 C396 0.913 . S
H416 C434 0.951 . S
H417 C436 0.951 . S
H418 C438 0.950 . S
H419 C439 0.950 . S
H420 C441 0.950 . S
H421 C444 0.950 . S
H422 C445 0.950 . S
H423 C447 0.950 . S
H424 C448 0.950 . S
H425 C449 0.951 . S
H426 C451 0.951 . S
H427 C453 0.950 . S
H428 C454 0.950 . S
H429 C456 0.950 . S
H430 C459 0.950 . S
H431 C460 0.950 . S
H432 C462 0.950 . S
H433 C463 0.950 . S
C434 H416 0.951 . S
C434 C435 1.366 . S
C434 C436 1.388 . S
C435 C434 1.366 . S
C435 C439 1.385 . S
C436 H417 0.951 . S
C436 C434 1.388 . S
C436 C437 1.366 . S
C437 C436 1.366 . S
C437 C438 1.414 . S
C437 C440 1.499 . S
C438 H418 0.950 . S
C438 C437 1.414 . S
C438 C439 1.374 . S
C439 H419 0.950 . S
C439 C435 1.385 . S
C439 C438 1.374 . S
C440 C437 1.499 . S
C440 C441 1.373 . S
C440 C442 1.389 . S
C441 H420 0.950 . S
C441 C440 1.373 . S
C441 C457 1.377 . S
C442 C440 1.389 . S
C442 C443 1.524 . S
C442 C456 1.377 . S
C443 C442 1.524 . S
C443 C444 1.397 . S
C443 C448 1.363 . S
C444 H421 0.950 . S
C444 C443 1.397 . S
C444 C445 1.334 . S
C445 H422 0.950 . S
C445 C444 1.334 . S
C445 C446 1.287 . S
C446 C445 1.287 . S
C446 C447 1.524 . S
C446 H465 0.913 . S
C447 H423 0.950 . S
C447 C446 1.524 . S
C447 C448 1.415 . S
C448 H424 0.950 . S
C448 C443 1.363 . S
C448 C447 1.415 . S
C449 H425 0.951 . S
C449 C450 1.366 . S
C449 C451 1.388 . S
C450 C449 1.366 . S
C450 C454 1.385 . S
C451 H426 0.951 . S
C451 C449 1.388 . S
C451 C452 1.366 . S
C452 C451 1.366 . S
C452 C453 1.414 . S
C452 C455 1.499 . S
C453 H427 0.950 . S
C453 C452 1.414 . S
C453 C454 1.374 . S
C454 H428 0.950 . S
C454 C450 1.385 . S
C454 C453 1.374 . S
C455 C452 1.499 . S
C455 C456 1.373 . S
C455 C457 1.389 . S
C456 H429 0.950 . S
C456 C442 1.377 . S
C456 C455 1.373 . S
C457 C441 1.377 . S
C457 C455 1.389 . S
C457 C458 1.524 . S
C458 C457 1.524 . S
C458 C459 1.397 . S
C458 C463 1.363 . S
C459 H430 0.950 . S
C459 C458 1.397 . S
C459 C460 1.334 . S
C460 H431 0.950 . S
C460 C459 1.334 . S
C460 C461 1.287 . S
C461 C460 1.287 . S
C461 C462 1.524 . S
C461 H464 0.999 . S
C462 H432 0.950 . S
C462 C461 1.524 . S
C462 C463 1.415 . S
C463 H433 0.950 . S
C463 C458 1.363 . S
C463 C462 1.415 . S
H464 C461 0.999 . S
H465 C446 0.913 . S
H466 C484 0.951 . S
H467 C486 0.951 . S
H468 C488 0.950 . S
H469 C489 0.950 . S
H470 C491 0.950 . S
H471 C494 0.950 . S
H472 C495 0.950 . S
H473 C497 0.950 . S
H474 C498 0.950 . S
H475 C499 0.951 . S
H476 C501 0.951 . S
H477 C503 0.950 . S
H478 C504 0.950 . S
H479 C506 0.950 . S
H480 C509 0.950 . S
H481 C510 0.950 . S
H482 C512 0.950 . S
H483 C513 0.950 . S
C484 H466 0.951 . S
C484 C485 1.366 . S
C484 C486 1.388 . S
C485 C484 1.366 . S
C485 C489 1.385 . S
C486 H467 0.951 . S
C486 C484 1.388 . S
C486 C487 1.366 . S
C487 C486 1.366 . S
C487 C488 1.414 . S
C487 C490 1.499 . S
C488 H468 0.950 . S
C488 C487 1.414 . S
C488 C489 1.374 . S
C489 H469 0.950 . S
C489 C485 1.385 . S
C489 C488 1.374 . S
C490 C487 1.499 . S
C490 C491 1.373 . S
C490 C492 1.389 . S
C491 H470 0.950 . S
C491 C490 1.373 . S
C491 C507 1.377 . S
C492 C490 1.389 . S
C492 C493 1.524 . S
C492 C506 1.377 . S
C493 C492 1.524 . S
C493 C494 1.397 . S
C493 C498 1.363 . S
C494 H471 0.950 . S
C494 C493 1.397 . S
C494 C495 1.334 . S
C495 H472 0.950 . S
C495 C494 1.334 . S
C495 C496 1.287 . S
C496 C495 1.287 . S
C496 C497 1.524 . S
C496 H515 0.913 . S
C497 H473 0.950 . S
C497 C496 1.524 . S
C497 C498 1.415 . S
C498 H474 0.950 . S
C498 C493 1.363 . S
C498 C497 1.415 . S
C499 H475 0.951 . S
C499 C500 1.366 . S
C499 C501 1.388 . S
C500 C499 1.366 . S
C500 C504 1.385 . S
C501 H476 0.951 . S
C501 C499 1.388 . S
C501 C502 1.366 . S
C502 C501 1.366 . S
C502 C503 1.414 . S
C502 C505 1.499 . S
C503 H477 0.950 . S
C503 C502 1.414 . S
C503 C504 1.374 . S
C504 H478 0.950 . S
C504 C500 1.385 . S
C504 C503 1.374 . S
C505 C502 1.499 . S
C505 C506 1.373 . S
C505 C507 1.389 . S
C506 H479 0.950 . S
C506 C492 1.377 . S
C506 C505 1.373 . S
C507 C491 1.377 . S
C507 C505 1.389 . S
C507 C508 1.524 . S
C508 C507 1.524 . S
C508 C509 1.397 . S
C508 C513 1.363 . S
C509 H480 0.950 . S
C509 C508 1.397 . S
C509 C510 1.334 . S
C510 H481 0.950 . S
C510 C509 1.334 . S
C510 C511 1.287 . S
C511 C510 1.287 . S
C511 C512 1.524 . S
C511 H514 0.999 . S
C512 H482 0.950 . S
C512 C511 1.524 . S
C512 C513 1.415 . S
C513 H483 0.950 . S
C513 C508 1.363 . S
C513 C512 1.415 . S
H514 C511 0.999 . S
H515 C496 0.913 . S
H516 C534 0.951 . S
H517 C536 0.951 . S
H518 C538 0.950 . S
H519 C539 0.950 . S
H520 C541 0.950 . S
H521 C544 0.950 . S
H522 C545 0.950 . S
H523 C547 0.950 . S
H524 C548 0.950 . S
H525 C549 0.951 . S
H526 C551 0.951 . S
H527 C553 0.950 . S
H528 C554 0.950 . S
H529 C556 0.950 . S
H530 C559 0.950 . S
H531 C560 0.950 . S
H532 C562 0.950 . S
H533 C563 0.950 . S
C534 H516 0.951 . S
C534 C535 1.366 . S
C534 C536 1.388 . S
C535 C534 1.366 . S
C535 C539 1.385 . S
C536 H517 0.951 . S
C536 C534 1.388 . S
C536 C537 1.366 . S
C537 C536 1.366 . S
C537 C538 1.414 . S
C537 C540 1.499 . S
C538 H518 0.950 . S
C538 C537 1.414 . S
C538 C539 1.374 . S
C539 H519 0.950 . S
C539 C535 1.385 . S
C539 C538 1.374 . S
C540 C537 1.499 . S
C540 C541 1.373 . S
C540 C542 1.389 . S
C541 H520 0.950 . S
C541 C540 1.373 . S
C541 C557 1.377 . S
C542 C540 1.389 . S
C542 C543 1.524 . S
C542 C556 1.377 . S
C543 C542 1.524 . S
C543 C544 1.397 . S
C543 C548 1.363 . S
C544 H521 0.950 . S
C544 C543 1.397 . S
C544 C545 1.334 . S
C545 H522 0.950 . S
C545 C544 1.334 . S
C545 C546 1.287 . S
C546 C545 1.287 . S
C546 C547 1.524 . S
C546 H565 0.913 . S
C547 H523 0.950 . S
C547 C546 1.524 . S
C547 C548 1.415 . S
C548 H524 0.950 . S
C548 C543 1.363 . S
C548 C547 1.415 . S
C549 H525 0.951 . S
C549 C550 1.366 . S
C549 C551 1.388 . S
C550 C549 1.366 . S
C550 C554 1.385 . S
C551 H526 0.951 . S
C551 C549 1.388 . S
C551 C552 1.366 . S
C552 C551 1.366 . S
C552 C553 1.414 . S
C552 C555 1.499 . S
C553 H527 0.950 . S
C553 C552 1.414 . S
C553 C554 1.374 . S
C554 H528 0.950 . S
C554 C550 1.385 . S
C554 C553 1.374 . S
C555 C552 1.499 . S
C555 C556 1.373 . S
C555 C557 1.389 . S
C556 H529 0.950 . S
C556 C542 1.377 . S
C556 C555 1.373 . S
C557 C541 1.377 . S
C557 C555 1.389 . S
C557 C558 1.524 . S
C558 C557 1.524 . S
C558 C559 1.397 . S
C558 C563 1.363 . S
C559 H530 0.950 . S
C559 C558 1.397 . S
C559 C560 1.334 . S
C560 H531 0.950 . S
C560 C559 1.334 . S
C560 C561 1.287 . S
C561 C560 1.287 . S
C561 C562 1.524 . S
C561 H564 0.999 . S
C562 H532 0.950 . S
C562 C561 1.524 . S
C562 C563 1.415 . S
C563 H533 0.950 . S
C563 C558 1.363 . S
C563 C562 1.415 . S
H564 C561 0.999 . S
H565 C546 0.913 . S
H566 C584 0.951 . S
H567 C586 0.951 . S
H568 C588 0.950 . S
H569 C589 0.950 . S
H570 C591 0.950 . S
H571 C594 0.950 . S
H572 C595 0.950 . S
H573 C597 0.950 . S
H574 C598 0.950 . S
H575 C599 0.951 . S
H576 C601 0.951 . S
H577 C603 0.950 . S
H578 C604 0.950 . S
H579 C606 0.950 . S
H580 C609 0.950 . S
H581 C610 0.950 . S
H582 C612 0.950 . S
H583 C613 0.950 . S
C584 H566 0.951 . S
C584 C585 1.366 . S
C584 C586 1.388 . S
C585 C584 1.366 . S
C585 C589 1.385 . S
C586 H567 0.951 . S
C586 C584 1.388 . S
C586 C587 1.366 . S
C587 C586 1.366 . S
C587 C588 1.414 . S
C587 C590 1.499 . S
C588 H568 0.950 . S
C588 C587 1.414 . S
C588 C589 1.374 . S
C589 H569 0.950 . S
C589 C585 1.385 . S
C589 C588 1.374 . S
C590 C587 1.499 . S
C590 C591 1.373 . S
C590 C592 1.389 . S
C591 H570 0.950 . S
C591 C590 1.373 . S
C591 C607 1.377 . S
C592 C590 1.389 . S
C592 C593 1.524 . S
C592 C606 1.377 . S
C593 C592 1.524 . S
C593 C594 1.397 . S
C593 C598 1.363 . S
C594 H571 0.950 . S
C594 C593 1.397 . S
C594 C595 1.334 . S
C595 H572 0.950 . S
C595 C594 1.334 . S
C595 C596 1.287 . S
C596 C595 1.287 . S
C596 C597 1.524 . S
C596 H615 0.913 . S
C597 H573 0.950 . S
C597 C596 1.524 . S
C597 C598 1.415 . S
C598 H574 0.950 . S
C598 C593 1.363 . S
C598 C597 1.415 . S
C599 H575 0.951 . S
C599 C600 1.366 . S
C599 C601 1.388 . S
C600 C599 1.366 . S
C600 C604 1.385 . S
C601 H576 0.951 . S
C601 C599 1.388 . S
C601 C602 1.366 . S
C602 C601 1.366 . S
C602 C603 1.414 . S
C602 C605 1.499 . S
C603 H577 0.950 . S
C603 C602 1.414 . S
C603 C604 1.374 . S
C604 H578 0.950 . S
C604 C600 1.385 . S
C604 C603 1.374 . S
C605 C602 1.499 . S
C605 C606 1.373 . S
C605 C607 1.389 . S
C606 H579 0.950 . S
C606 C592 1.377 . S
C606 C605 1.373 . S
C607 C591 1.377 . S
C607 C605 1.389 . S
C607 C608 1.524 . S
C608 C607 1.524 . S
C608 C609 1.397 . S
C608 C613 1.363 . S
C609 H580 0.950 . S
C609 C608 1.397 . S
C609 C610 1.334 . S
C610 H581 0.950 . S
C610 C609 1.334 . S
C610 C611 1.287 . S
C611 C610 1.287 . S
C611 C612 1.524 . S
C611 H614 0.999 . S
C612 H582 0.950 . S
C612 C611 1.524 . S
C612 C613 1.415 . S
C613 H583 0.950 . S
C613 C608 1.363 . S
C613 C612 1.415 . S
H614 C611 0.999 . S
H615 C596 0.913 . S
H616 C634 0.951 . S
H617 C636 0.951 . S
H618 C638 0.950 . S
H619 C639 0.950 . S
H620 C641 0.950 . S
H621 C644 0.950 . S
H622 C645 0.950 . S
H623 C647 0.950 . S
H624 C648 0.950 . S
H625 C649 0.951 . S
H626 C651 0.951 . S
H627 C653 0.950 . S
H628 C654 0.950 . S
H629 C656 0.950 . S
H630 C659 0.950 . S
H631 C660 0.950 . S
H632 C662 0.950 . S
H633 C663 0.950 . S
C634 H616 0.951 . S
C634 C635 1.366 . S
C634 C636 1.388 . S
C635 C634 1.366 . S
C635 C639 1.385 . S
C636 H617 0.951 . S
C636 C634 1.388 . S
C636 C637 1.366 . S
C637 C636 1.366 . S
C637 C638 1.414 . S
C637 C640 1.499 . S
C638 H618 0.950 . S
C638 C637 1.414 . S
C638 C639 1.374 . S
C639 H619 0.950 . S
C639 C635 1.385 . S
C639 C638 1.374 . S
C640 C637 1.499 . S
C640 C641 1.373 . S
C640 C642 1.389 . S
C641 H620 0.950 . S
C641 C640 1.373 . S
C641 C657 1.377 . S
C642 C640 1.389 . S
C642 C643 1.524 . S
C642 C656 1.377 . S
C643 C642 1.524 . S
C643 C644 1.397 . S
C643 C648 1.363 . S
C644 H621 0.950 . S
C644 C643 1.397 . S
C644 C645 1.334 . S
C645 H622 0.950 . S
C645 C644 1.334 . S
C645 C646 1.287 . S
C646 C645 1.287 . S
C646 C647 1.524 . S
C646 H665 0.913 . S
C647 H623 0.950 . S
C647 C646 1.524 . S
C647 C648 1.415 . S
C648 H624 0.950 . S
C648 C643 1.363 . S
C648 C647 1.415 . S
C649 H625 0.951 . S
C649 C650 1.366 . S
C649 C651 1.388 . S
C650 C649 1.366 . S
C650 C654 1.385 . S
C651 H626 0.951 . S
C651 C649 1.388 . S
C651 C652 1.366 . S
C652 C651 1.366 . S
C652 C653 1.414 . S
C652 C655 1.499 . S
C653 H627 0.950 . S
C653 C652 1.414 . S
C653 C654 1.374 . S
C654 H628 0.950 . S
C654 C650 1.385 . S
C654 C653 1.374 . S
C655 C652 1.499 . S
C655 C656 1.373 . S
C655 C657 1.389 . S
C656 H629 0.950 . S
C656 C642 1.377 . S
C656 C655 1.373 . S
C657 C641 1.377 . S
C657 C655 1.389 . S
C657 C658 1.524 . S
C658 C657 1.524 . S
C658 C659 1.397 . S
C658 C663 1.363 . S
C659 H630 0.950 . S
C659 C658 1.397 . S
C659 C660 1.334 . S
C660 H631 0.950 . S
C660 C659 1.334 . S
C660 C661 1.287 . S
C661 C660 1.287 . S
C661 C662 1.524 . S
C661 H664 0.999 . S
C662 H632 0.950 . S
C662 C661 1.524 . S
C662 C663 1.415 . S
C663 H633 0.950 . S
C663 C658 1.363 . S
C663 C662 1.415 . S
H664 C661 0.999 . S
H665 C646 0.913 . S
H666 C684 0.951 . S
H667 C686 0.951 . S
H668 C688 0.950 . S
H669 C689 0.950 . S
H670 C691 0.950 . S
H671 C694 0.950 . S
H672 C695 0.950 . S
H673 C697 0.950 1_545 S
H674 C698 0.950 . S
H675 C699 0.951 . S
H676 C701 0.951 . S
H677 C703 0.950 . S
H678 C704 0.950 . S
H679 C706 0.950 . S
H680 C709 0.950 . S
H681 C710 0.950 . S
H682 C712 0.950 . S
H683 C713 0.950 . S
C684 H666 0.951 . S
C684 C685 1.366 . S
C684 C686 1.388 . S
C685 C684 1.366 . S
C685 C689 1.385 . S
C686 H667 0.951 . S
C686 C684 1.388 . S
C686 C687 1.366 . S
C687 C686 1.366 . S
C687 C688 1.414 . S
C687 C690 1.499 . S
C688 H668 0.950 . S
C688 C687 1.414 . S
C688 C689 1.374 . S
C689 H669 0.950 . S
C689 C685 1.385 . S
C689 C688 1.374 . S
C690 C687 1.499 . S
C690 C691 1.373 . S
C690 C692 1.389 . S
C691 H670 0.950 . S
C691 C690 1.373 . S
C691 C707 1.377 . S
C692 C690 1.389 . S
C692 C693 1.524 . S
C692 C706 1.377 . S
C693 C692 1.524 . S
C693 C694 1.397 . S
C693 C698 1.363 . S
C694 H671 0.950 . S
C694 C693 1.397 . S
C694 C695 1.334 . S
C695 H672 0.950 . S
C695 C694 1.334 . S
C695 C696 1.287 . S
C696 C695 1.287 . S
C696 C697 1.524 . S
C696 H715 0.913 . S
C697 H673 0.950 1_565 S
C697 C696 1.524 . S
C697 C698 1.415 . S
C698 H674 0.950 . S
C698 C693 1.363 . S
C698 C697 1.415 . S
C699 H675 0.951 . S
C699 C700 1.366 . S
C699 C701 1.388 . S
C700 C699 1.366 . S
C700 C704 1.385 . S
C701 H676 0.951 . S
C701 C699 1.388 . S
C701 C702 1.366 . S
C702 C701 1.366 . S
C702 C703 1.414 . S
C702 C705 1.499 . S
C703 H677 0.950 . S
C703 C702 1.414 . S
C703 C704 1.374 . S
C704 H678 0.950 . S
C704 C700 1.385 . S
C704 C703 1.374 . S
C705 C702 1.499 . S
C705 C706 1.373 . S
C705 C707 1.389 . S
C706 H679 0.950 . S
C706 C692 1.377 . S
C706 C705 1.373 . S
C707 C691 1.377 . S
C707 C705 1.389 . S
C707 C708 1.524 . S
C708 C707 1.524 . S
C708 C709 1.397 . S
C708 C713 1.363 . S
C709 H680 0.950 . S
C709 C708 1.397 . S
C709 C710 1.334 . S
C710 H681 0.950 . S
C710 C709 1.334 . S
C710 C711 1.287 . S
C711 C710 1.287 . S
C711 C712 1.524 . S
C711 H714 0.999 . S
C712 H682 0.950 . S
C712 C711 1.524 . S
C712 C713 1.415 . S
C713 H683 0.950 . S
C713 C708 1.363 . S
C713 C712 1.415 . S
H714 C711 0.999 . S
H715 C696 0.913 . S
C150 C52 1.512 . S
C135 C40 1.509 . S
C185 C4 1.512 . S
C200 C95 1.514 . S
C235 C16 1.506 . S
C250 C61 1.514 . S
C285 C28 1.508 . S
C300 C86 1.513 . S
C350 C48 1.562 . S
C335 C9 1.541 . S
C400 C90 1.545 . S
C385 C18 1.543 . S
C435 C33 1.543 . S
C450 C56 1.558 . S
C485 C45 1.528 . S
C500 C82 1.546 . S
C550 C111 1.481 . S
C535 C21 1.465 . S
C600 C77 1.469 . S
C585 C30 1.463 . S
C650 C99 1.479 . S
C635 C42 1.476 . S
C685 C6 1.463 . S
C700 C65 1.466 . S
