# Generated by pormake.
# Topology nom, (4,4)-cn, num edge types: 1
# Building blocks:
#     Node 0, Type 0, BuildingBlock: AZAVOO_clean_linker_0, # of connection points: 4
#     Node 1, Type 0, BuildingBlock: AZAVOO_clean_linker_0, # of connection points: 4
#     Node 2, Type 0, BuildingBlock: AZAVOO_clean_linker_0, # of connection points: 4
#     Node 3, Type 0, BuildingBlock: AZAVOO_clean_linker_0, # of connection points: 4
#     Node 4, Type 0, BuildingBlock: AZAVOO_clean_linker_0, # of connection points: 4
#     Node 5, Type 0, BuildingBlock: AZAVOO_clean_linker_0, # of connection points: 4
#     Node 6, Type 1, BuildingBlock: CEKHIL_clean_sbu_0, # of connection points: 4
#     Node 7, Type 1, BuildingBlock: CEKHIL_clean_sbu_0, # of connection points: 4
#     Node 8, Type 1, BuildingBlock: CEKHIL_clean_sbu_0, # of connection points: 4
#     Node 9, Type 1, BuildingBlock: CEKHIL_clean_sbu_0, # of connection points: 4
#     Node 10, Type 1, BuildingBlock: CEKHIL_clean_sbu_0, # of connection points: 4
#     Node 11, Type 1, BuildingBlock: CEKHIL_clean_sbu_0, # of connection points: 4
#     Edge 12, Type (0, 1), BuildingBlock: AJUNOK_clean_linker_0, # of connection points: 2
#     Edge 13, Type (0, 1), BuildingBlock: AJUNOK_clean_linker_0, # of connection points: 2
#     Edge 14, Type (0, 1), BuildingBlock: AJUNOK_clean_linker_0, # of connection points: 2
#     Edge 15, Type (0, 1), BuildingBlock: AJUNOK_clean_linker_0, # of connection points: 2
#     Edge 16, Type (0, 1), BuildingBlock: AJUNOK_clean_linker_0, # of connection points: 2
#     Edge 17, Type (0, 1), BuildingBlock: AJUNOK_clean_linker_0, # of connection points: 2
#     Edge 18, Type (0, 1), BuildingBlock: AJUNOK_clean_linker_0, # of connection points: 2
#     Edge 19, Type (0, 1), BuildingBlock: AJUNOK_clean_linker_0, # of connection points: 2
#     Edge 20, Type (0, 1), BuildingBlock: AJUNOK_clean_linker_0, # of connection points: 2
#     Edge 21, Type (0, 1), BuildingBlock: AJUNOK_clean_linker_0, # of connection points: 2
#     Edge 22, Type (0, 1), BuildingBlock: AJUNOK_clean_linker_0, # of connection points: 2
#     Edge 23, Type (0, 1), BuildingBlock: AJUNOK_clean_linker_0, # of connection points: 2
#     Edge 24, Type (0, 1), BuildingBlock: AJUNOK_clean_linker_0, # of connection points: 2
#     Edge 25, Type (0, 1), BuildingBlock: AJUNOK_clean_linker_0, # of connection points: 2
#     Edge 26, Type (0, 1), BuildingBlock: AJUNOK_clean_linker_0, # of connection points: 2
#     Edge 27, Type (0, 1), BuildingBlock: AJUNOK_clean_linker_0, # of connection points: 2
#     Edge 28, Type (0, 1), BuildingBlock: AJUNOK_clean_linker_0, # of connection points: 2
#     Edge 29, Type (0, 1), BuildingBlock: AJUNOK_clean_linker_0, # of connection points: 2
#     Edge 30, Type (0, 1), BuildingBlock: AJUNOK_clean_linker_0, # of connection points: 2
#     Edge 31, Type (0, 1), BuildingBlock: AJUNOK_clean_linker_0, # of connection points: 2
#     Edge 32, Type (0, 1), BuildingBlock: AJUNOK_clean_linker_0, # of connection points: 2
#     Edge 33, Type (0, 1), BuildingBlock: AJUNOK_clean_linker_0, # of connection points: 2
#     Edge 34, Type (0, 1), BuildingBlock: AJUNOK_clean_linker_0, # of connection points: 2
#     Edge 35, Type (0, 1), BuildingBlock: AJUNOK_clean_linker_0, # of connection points: 2
# Relax obj value: 0.151
# Max RMSD: 0.228
# Mean RMSD: 0.145
data_MOF--net-nom--node1-CEKHIL_clean_sbu_0--node2-AZAVOO_clean_linker_0--edge1-AJUNOK_clean_linker_0
_symmetry_space_group_name_H-M    P1
_symmetry_Int_Tables_number       1
_symmetry_cell_setting            triclinic
loop_
_symmetry_equiv_pos_as_xyz
'x, y, z'
_cell_length_a     38.456675
_cell_length_b     38.473932
_cell_length_c     46.23587
_cell_angle_alpha  90.069392
_cell_angle_beta   90.054259
_cell_angle_gamma 123.71783
loop_
_atom_site_label
_atom_site_type_symbol
_atom_site_fract_x
_atom_site_fract_y
_atom_site_fract_z
_atom_type_partial_charge
H0 H 0.0315 0.51437 0.14047 0.0
H1 H 0.30625 0.77985 0.40116 0.0
H2 H 0.96985 0.50319 0.30079 0.0
H3 H 0.92727 0.46436 0.25872 0.0
H4 H 0.94054 0.57642 0.22642 0.0
H5 H 0.9816 0.61451 0.26923 0.0
H6 H 0.05418 0.53734 0.26573 0.0
H7 H 0.04667 0.51825 0.2145 0.0
H8 H 0.04952 0.62908 0.19269 0.0
H9 H 0.05698 0.64772 0.244 0.0
H10 H 0.14995 0.60163 0.30856 0.0
H11 H 0.21959 0.63701 0.28768 0.0
H12 H 0.19687 0.72071 0.24198 0.0
H13 H 0.12959 0.68873 0.26637 0.0
H14 H 0.13303 0.59736 0.36488 0.0
H15 H 0.20067 0.6364 0.38959 0.0
H16 H 0.21579 0.75233 0.3646 0.0
H17 H 0.14764 0.71279 0.34041 0.0
H18 H 0.05027 0.55045 0.38349 0.0
H19 H 0.08515 0.56218 0.42987 0.0
H20 H 0.10095 0.68226 0.4366 0.0
H21 H 0.06948 0.67168 0.38868 0.0
H22 H 0.96067 0.52137 0.36411 0.0
H23 H 0.89201 0.50294 0.38182 0.0
H24 H 0.92066 0.62336 0.35444 0.0
H25 H 0.98888 0.64145 0.3368 0.0
O26 O 0.03608 0.52332 0.16049 0.0
O27 O 0.03953 0.58162 0.15025 0.0
O28 O 0.26861 0.70319 0.40587 0.0
O29 O 0.27907 0.76364 0.39201 0.0
C30 C 0.01855 0.58729 0.30463 0.0
C31 C 0.05668 0.60295 0.2898 0.0
C32 C 0.09478 0.62477 0.30498 0.0
C33 C 0.09476 0.62865 0.33532 0.0
C34 C 0.05655 0.61127 0.35046 0.0
C35 C 0.01853 0.59251 0.33492 0.0
C36 C 0.97905 0.56173 0.28798 0.0
C37 C 0.96142 0.51872 0.28555 0.0
C38 C 0.93777 0.49679 0.2612 0.0
C39 C 0.9314 0.51756 0.23891 0.0
C40 C 0.94463 0.5594 0.24322 0.0
C41 C 0.96794 0.58121 0.26781 0.0
C42 C 0.05625 0.59392 0.25849 0.0
C43 C 0.05374 0.5577 0.24979 0.0
C44 C 0.04926 0.5468 0.22054 0.0
C45 C 0.04729 0.57203 0.1995 0.0
C46 C 0.05088 0.60892 0.20832 0.0
C47 C 0.05536 0.61977 0.23758 0.0
C48 C 0.13484 0.64283 0.28922 0.0
C49 C 0.16021 0.62783 0.2942 0.0
C50 C 0.19973 0.64756 0.28165 0.0
C51 C 0.21382 0.68139 0.26262 0.0
C52 C 0.18734 0.69505 0.2567 0.0
C53 C 0.14856 0.67642 0.27027 0.0
C54 C 0.13526 0.65227 0.35116 0.0
C55 C 0.15071 0.63117 0.36514 0.0
C56 C 0.1895 0.65356 0.37905 0.0
C57 C 0.21374 0.69752 0.37895 0.0
C58 C 0.19799 0.71852 0.36501 0.0
C59 C 0.15907 0.69605 0.35124 0.0
C60 C 0.05778 0.6104 0.3825 0.0
C61 C 0.05972 0.57858 0.39551 0.0
C62 C 0.08013 0.58558 0.42205 0.0
C63 C 0.09793 0.62415 0.43641 0.0
C64 C 0.08991 0.65321 0.42536 0.0
C65 C 0.07068 0.64673 0.39835 0.0
C66 C 0.97968 0.58274 0.34927 0.0
C67 C 0.95238 0.54399 0.3625 0.0
C68 C 0.91332 0.53359 0.37258 0.0
C69 C 0.90103 0.56168 0.36927 0.0
C70 C 0.92922 0.60104 0.35701 0.0
C71 C 0.96817 0.61144 0.34708 0.0
C72 C 0.04084 0.55949 0.16858 0.0
C73 C 0.25542 0.72145 0.3931 0.0
H74 H 0.57547 0.09232 0.28186 0.0
H75 H 0.5796 0.26839 0.57021 0.0
H76 H 0.55652 0.9939 0.42165 0.0
H77 H 0.53872 0.95345 0.37684 0.0
H78 H 0.40869 0.90727 0.38943 0.0
H79 H 0.42693 0.94876 0.43391 0.0
H80 H 0.59231 0.08521 0.40711 0.0
H81 H 0.59801 0.09424 0.35454 0.0
H82 H 0.46474 0.0382 0.34917 0.0
H83 H 0.45948 0.02901 0.40172 0.0
H84 H 0.61425 0.15224 0.45705 0.0
H85 H 0.63655 0.22385 0.44503 0.0
H86 H 0.50954 0.17968 0.42208 0.0
H87 H 0.48731 0.10807 0.43443 0.0
H88 H 0.60756 0.12456 0.51647 0.0
H89 H 0.63335 0.1876 0.54554 0.0
H90 H 0.51633 0.17657 0.53193 0.0
H91 H 0.49067 0.1131 0.50338 0.0
H92 H 0.57828 0.03941 0.52895 0.0
H93 H 0.60014 0.06537 0.57797 0.0
H94 H 0.48299 0.05373 0.59234 0.0
H95 H 0.4631 0.03121 0.5421 0.0
H96 H 0.52071 0.94386 0.48076 0.0
H97 H 0.47759 0.87168 0.49896 0.0
H98 H 0.38342 0.89298 0.52596 0.0
H99 H 0.42646 0.9646 0.50808 0.0
O100 O 0.5726 0.08891 0.30262 0.0
O101 O 0.50395 0.05976 0.30104 0.0
O102 O 0.62775 0.2449 0.56845 0.0
O103 O 0.56963 0.24264 0.55978 0.0
C104 C 0.5057 0.00919 0.45131 0.0
C105 C 0.52203 0.04954 0.43984 0.0
C106 C 0.53465 0.08344 0.4585 0.0
C107 C 0.53268 0.07766 0.48866 0.0
C108 C 0.51641 0.03744 0.50024 0.0
C109 C 0.50127 0.00272 0.48158 0.0
C110 C 0.49303 0.97443 0.43085 0.0
C111 C 0.52399 0.97375 0.41532 0.0
C112 C 0.51382 0.95077 0.38971 0.0
C113 C 0.47252 0.92813 0.3794 0.0
C114 C 0.44092 0.92524 0.39668 0.0
C115 C 0.45115 0.94842 0.42224 0.0
C116 C 0.52549 0.0563 0.4081 0.0
C117 C 0.56444 0.07502 0.3945 0.0
C118 C 0.56757 0.08004 0.36449 0.0
C119 C 0.53177 0.06666 0.34762 0.0
C120 C 0.49286 0.04854 0.36148 0.0
C121 C 0.48976 0.04332 0.39147 0.0
C122 C 0.54919 0.12518 0.44672 0.0
C123 C 0.5914 0.15799 0.44904 0.0
C124 C 0.60397 0.19873 0.4424 0.0
C125 C 0.57454 0.20712 0.43315 0.0
C126 C 0.5327 0.17388 0.42927 0.0
C127 C 0.52006 0.13313 0.43617 0.0
C128 C 0.54714 0.11412 0.50807 0.0
C129 C 0.58731 0.13543 0.52022 0.0
C130 C 0.60205 0.17158 0.53663 0.0
C131 C 0.57698 0.18729 0.54088 0.0
C132 C 0.53649 0.16543 0.52899 0.0
C133 C 0.5217 0.12911 0.51276 0.0
C134 C 0.51933 0.03381 0.53189 0.0
C135 C 0.55657 0.04078 0.54305 0.0
C136 C 0.56911 0.05591 0.57117 0.0
C137 C 0.54408 0.06339 0.58882 0.0
C138 C 0.50394 0.05033 0.57888 0.0
C139 C 0.49195 0.03634 0.5504 0.0
C140 C 0.477 0.95968 0.4935 0.0
C141 C 0.49091 0.93293 0.49081 0.0
C142 C 0.46623 0.89177 0.50106 0.0
C143 C 0.42745 0.87695 0.51425 0.0
C144 C 0.4136 0.90381 0.51657 0.0
C145 C 0.43815 0.94473 0.50637 0.0
C146 C 0.53509 0.07152 0.3157 0.0
C147 C 0.59312 0.22665 0.55724 0.0
H148 H 0.46189 0.42901 0.83132 0.0
H149 H 0.53347 0.29336 0.53561 0.0
H150 H 0.46134 0.5134 0.66446 0.0
H151 H 0.46535 0.55079 0.70817 0.0
H152 H 0.35644 0.43813 0.74194 0.0
H153 H 0.35125 0.4012 0.69725 0.0
H154 H 0.48646 0.46533 0.70754 0.0
H155 H 0.48731 0.46145 0.76032 0.0
H156 H 0.37774 0.33488 0.75686 0.0
H157 H 0.37703 0.33942 0.70403 0.0
H158 H 0.52585 0.42518 0.67051 0.0
H159 H 0.56011 0.38993 0.68521 0.0
H160 H 0.44278 0.27036 0.67718 0.0
H161 H 0.40859 0.30584 0.66184 0.0
H162 H 0.53323 0.44197 0.61008 0.0
H163 H 0.57145 0.41858 0.58318 0.0
H164 H 0.45569 0.29906 0.56829 0.0
H165 H 0.41796 0.32267 0.59578 0.0
H166 H 0.50183 0.4951 0.59028 0.0
H167 H 0.53672 0.50463 0.54404 0.0
H168 H 0.43336 0.38289 0.51654 0.0
H169 H 0.39775 0.37471 0.56216 0.0
H170 H 0.45535 0.51619 0.60673 0.0
H171 H 0.42208 0.5526 0.59263 0.0
H172 H 0.30075 0.44054 0.60928 0.0
H173 H 0.33418 0.40416 0.62281 0.0
O174 O 0.46139 0.42957 0.81041 0.0
O175 O 0.40622 0.36394 0.80746 0.0
O176 O 0.5774 0.36592 0.55368 0.0
O177 O 0.51902 0.30342 0.54621 0.0
C178 C 0.41508 0.42986 0.65803 0.0
C179 C 0.42966 0.40632 0.67021 0.0
C180 C 0.44616 0.38939 0.65231 0.0
C181 C 0.45033 0.39774 0.62244 0.0
C182 C 0.43622 0.42157 0.61011 0.0
C183 C 0.41686 0.43623 0.62775 0.0
C184 C 0.40627 0.45445 0.67779 0.0
C185 C 0.43677 0.49735 0.68042 0.0
C186 C 0.43946 0.51851 0.70564 0.0
C187 C 0.41185 0.497 0.72862 0.0
C188 C 0.37808 0.45542 0.72451 0.0
C189 C 0.37503 0.43434 0.69898 0.0
C190 C 0.4315 0.40276 0.70208 0.0
C191 C 0.46276 0.43677 0.71825 0.0
C192 C 0.46313 0.43447 0.74838 0.0
C193 C 0.43245 0.39793 0.76283 0.0
C194 C 0.40173 0.36354 0.74642 0.0
C195 C 0.40131 0.36595 0.71627 0.0
C196 C 0.46484 0.368 0.66514 0.0
C197 C 0.50739 0.39144 0.6724 0.0
C198 C 0.52685 0.37138 0.68071 0.0
C199 C 0.50389 0.32762 0.68224 0.0
C200 C 0.46086 0.30417 0.67627 0.0
C201 C 0.44144 0.3243 0.66757 0.0
C202 C 0.47284 0.38412 0.60458 0.0
C203 C 0.51618 0.41087 0.60079 0.0
C204 C 0.53791 0.39741 0.58544 0.0
C205 C 0.51659 0.35702 0.5734 0.0
C206 C 0.47305 0.33039 0.57718 0.0
C207 C 0.4514 0.34379 0.59277 0.0
C208 C 0.44699 0.43436 0.57952 0.0
C209 C 0.48551 0.47167 0.57356 0.0
C210 C 0.50598 0.47655 0.54744 0.0
C211 C 0.4885 0.44387 0.5271 0.0
C212 C 0.44779 0.40861 0.5318 0.0
C213 C 0.42708 0.40402 0.55776 0.0
C214 C 0.39725 0.45715 0.61524 0.0
C215 C 0.42158 0.49908 0.60644 0.0
C216 C 0.40251 0.51999 0.59874 0.0
C217 C 0.35871 0.49938 0.5996 0.0
C218 C 0.33444 0.45709 0.60777 0.0
C219 C 0.35353 0.43629 0.61557 0.0
C220 C 0.43245 0.39593 0.79488 0.0
C221 C 0.53963 0.34256 0.55718 0.0
H222 H 0.07117 0.55929 0.01572 0.0
H223 H 0.2853 0.59658 0.72925 0.0
H224 H 0.98841 0.53874 0.87252 0.0
H225 H 0.94933 0.51488 0.91774 0.0
H226 H 0.91421 0.38923 0.89929 0.0
H227 H 0.95579 0.41406 0.85492 0.0
H228 H 0.07623 0.58066 0.89021 0.0
H229 H 0.07866 0.58422 0.94313 0.0
H230 H 0.03918 0.45492 0.94659 0.0
H231 H 0.03544 0.4514 0.8937 0.0
H232 H 0.15931 0.60595 0.84806 0.0
H233 H 0.22852 0.62151 0.86108 0.0
H234 H 0.17429 0.49013 0.87556 0.0
H235 H 0.10546 0.4748 0.86241 0.0
H236 H 0.13095 0.60576 0.78587 0.0
H237 H 0.19702 0.63918 0.75938 0.0
H238 H 0.19696 0.52741 0.76903 0.0
H239 H 0.1315 0.49479 0.79624 0.0
H240 H 0.03404 0.55778 0.76057 0.0
H241 H 0.06415 0.58191 0.7124 0.0
H242 H 0.09733 0.49154 0.7108 0.0
H243 H 0.06414 0.46541 0.7579 0.0
H244 H 0.95195 0.51104 0.80717 0.0
H245 H 0.88227 0.46774 0.78505 0.0
H246 H 0.90766 0.37475 0.76289 0.0
H247 H 0.97733 0.41858 0.78419 0.0
O248 O 0.07066 0.55743 0.99487 0.0
O249 O 0.04903 0.4905 0.99543 0.0
O250 O 0.2577 0.64081 0.73541 0.0
O251 O 0.2595 0.5843 0.74008 0.0
C252 C 0.01319 0.49575 0.8422 0.0
C253 C 0.05225 0.5134 0.85622 0.0
C254 C 0.08856 0.52829 0.83989 0.0
C255 C 0.08687 0.52824 0.80952 0.0
C256 C 0.04793 0.5097 0.7952 0.0
C257 C 0.01079 0.49248 0.81161 0.0
C258 C 0.97549 0.47828 0.86065 0.0
C259 C 0.97082 0.50572 0.87762 0.0
C260 C 0.94868 0.49206 0.90362 0.0
C261 C 0.93016 0.4505 0.91268 0.0
C262 C 0.92969 0.42183 0.89345 0.0
C263 C 0.95258 0.43572 0.86772 0.0
C264 C 0.0553 0.5157 0.88826 0.0
C265 C 0.06804 0.55315 0.9025 0.0
C266 C 0.06936 0.55506 0.93269 0.0
C267 C 0.05853 0.51965 0.9491 0.0
C268 C 0.04695 0.4825 0.93462 0.0
C269 C 0.04503 0.48046 0.90444 0.0
C270 C 0.12771 0.53931 0.85424 0.0
C271 C 0.16232 0.58079 0.85484 0.0
C272 C 0.20163 0.58952 0.86203 0.0
C273 C 0.20645 0.55681 0.86877 0.0
C274 C 0.17116 0.51574 0.87042 0.0
C275 C 0.13198 0.50702 0.86306 0.0
C276 C 0.12637 0.54781 0.79273 0.0
C277 C 0.14522 0.58854 0.78215 0.0
C278 C 0.18285 0.60748 0.76696 0.0
C279 C 0.20192 0.58573 0.76169 0.0
C280 C 0.18296 0.54492 0.77251 0.0
C281 C 0.14559 0.52621 0.78802 0.0
C282 C 0.04781 0.51053 0.76305 0.0
C283 C 0.04558 0.54156 0.74912 0.0
C284 C 0.06363 0.55588 0.72184 0.0
C285 C 0.08512 0.5401 0.70855 0.0
C286 C 0.08166 0.50482 0.72064 0.0
C287 C 0.06252 0.48973 0.74756 0.0
C288 C 0.96967 0.46801 0.79705 0.0
C289 C 0.94253 0.48155 0.79718 0.0
C290 C 0.90283 0.45679 0.78465 0.0
C291 C 0.88974 0.41811 0.77191 0.0
C292 C 0.91723 0.40487 0.77178 0.0
C293 C 0.95691 0.42972 0.7841 0.0
C294 C 0.05913 0.52149 0.98118 0.0
C295 C 0.24139 0.60542 0.74495 0.0
H296 H 0.60013 0.9934 0.77114 0.0
H297 H 0.55285 0.78311 0.05958 0.0
H298 H 0.59133 0.06299 0.9208 0.0
H299 H 0.60198 0.10751 0.87945 0.0
H300 H 0.73526 0.16531 0.88592 0.0
H301 H 0.7242 0.11982 0.92698 0.0
H302 H 0.5694 0.98022 0.89577 0.0
H303 H 0.56947 0.97861 0.84284 0.0
H304 H 0.70405 0.04241 0.84363 0.0
H305 H 0.70344 0.04355 0.89657 0.0
H306 H 0.54211 0.9183 0.94005 0.0
H307 H 0.51386 0.84535 0.92781 0.0
H308 H 0.6391 0.87554 0.91602 0.0
H309 H 0.66744 0.94895 0.92853 0.0
H310 H 0.54494 0.93925 0.00527 0.0
H311 H 0.51252 0.87464 0.03334 0.0
H312 H 0.62169 0.87106 0.01947 0.0
H313 H 0.65404 0.93608 0.99186 0.0
H314 H 0.58488 0.03909 0.01897 0.0
H315 H 0.55362 0.01583 0.06671 0.0
H316 H 0.63507 0.97427 0.0849 0.0
H317 H 0.66876 0.00084 0.03781 0.0
H318 H 0.61778 0.10349 0.97954 0.0
H319 H 0.65076 0.17288 0.0017 0.0
H320 H 0.75858 0.17043 0.02396 0.0
H321 H 0.72483 0.10065 0.00262 0.0
O322 O 0.60075 0.99386 0.79206 0.0
O323 O 0.66965 0.02456 0.79365 0.0
O324 O 0.51047 0.81313 0.05633 0.0
O325 O 0.56512 0.8089 0.04881 0.0
C326 C 0.64892 0.05299 0.94528 0.0
C327 C 0.63647 0.01476 0.93193 0.0
C328 C 0.62294 0.97929 0.94899 0.0
C329 C 0.62127 0.98151 0.97937 0.0
C330 C 0.63545 0.02019 0.99293 0.0
C331 C 0.65019 0.05613 0.97574 0.0
C332 C 0.657 0.08812 0.92672 0.0
C333 C 0.62293 0.08631 0.91392 0.0
C334 C 0.62903 0.11167 0.8903 0.0
C335 C 0.66933 0.13917 0.87917 0.0
C336 C 0.70378 0.14373 0.8938 0.0
C337 C 0.69763 0.1182 0.9174 0.0
C338 C 0.63637 0.01174 0.89992 0.0
C339 C 0.59878 0.9934 0.88444 0.0
C340 C 0.59896 0.99273 0.85423 0.0
C341 C 0.63677 0.0104 0.83899 0.0
C342 C 0.67438 0.02846 0.85468 0.0
C343 C 0.67413 0.0291 0.88489 0.0
C344 C 0.60665 0.93847 0.93526 0.0
C345 C 0.56336 0.90937 0.93409 0.0
C346 C 0.5474 0.86792 0.92736 0.0
C347 C 0.57457 0.85526 0.9216 0.0
C348 C 0.61784 0.88496 0.9206 0.0
C349 C 0.6339 0.9266 0.92753 0.0
C350 C 0.60191 0.94242 0.99667 0.0
C351 C 0.56189 0.92459 0.00848 0.0
C352 C 0.54342 0.88765 0.02444 0.0
C353 C 0.56456 0.86771 0.02868 0.0
C354 C 0.60459 0.88563 0.01666 0.0
C355 C 0.62312 0.92271 0.00084 0.0
C356 C 0.62856 0.0209 0.02456 0.0
C357 C 0.59774 0.02722 0.03378 0.0
C358 C 0.57935 0.01318 0.06091 0.0
C359 C 0.59067 0.99155 0.07889 0.0
C360 C 0.62533 0.9903 0.0713 0.0
C361 C 0.64457 0.00546 0.04439 0.0
C362 C 0.669 0.09729 0.98962 0.0
C363 C 0.64837 0.11794 0.9894 0.0
C364 C 0.66724 0.15743 0.00196 0.0
C365 C 0.70702 0.17675 0.01475 0.0
C366 C 0.72752 0.15585 0.01487 0.0
C367 C 0.70848 0.11625 0.00255 0.0
C368 C 0.6369 0.01011 0.80689 0.0
C369 C 0.54497 0.82832 0.04547 0.0
H370 H 0.50291 0.4397 0.97458 0.0
H371 H 0.71374 0.48993 0.27068 0.0
H372 H 0.47756 0.53022 0.11062 0.0
H373 H 0.4583 0.54471 0.06384 0.0
H374 H 0.58563 0.65066 0.05277 0.0
H375 H 0.60345 0.63772 0.10032 0.0
H376 H 0.50603 0.46779 0.09917 0.0
H377 H 0.4937 0.44492 0.0486 0.0
H378 H 0.60867 0.56012 0.02444 0.0
H379 H 0.62071 0.5824 0.07514 0.0
H380 H 0.56779 0.44794 0.14144 0.0
H381 H 0.61181 0.42303 0.12645 0.0
H382 H 0.7097 0.54904 0.10227 0.0
H383 H 0.66553 0.57324 0.11664 0.0
H384 H 0.54949 0.46865 0.203 0.0
H385 H 0.57784 0.44258 0.23778 0.0
H386 H 0.70291 0.54746 0.21821 0.0
H387 H 0.67402 0.57334 0.1837 0.0
H388 H 0.51634 0.52019 0.21824 0.0
H389 H 0.52752 0.50925 0.26802 0.0
H390 H 0.65644 0.61387 0.26236 0.0
H391 H 0.64514 0.62304 0.21162 0.0
H392 H 0.48596 0.56833 0.16406 0.0
H393 H 0.47193 0.62198 0.17442 0.0
H394 H 0.60434 0.71365 0.18514 0.0
H395 H 0.61802 0.65972 0.17514 0.0
O396 O 0.50864 0.44914 0.99445 0.0
O397 O 0.56652 0.51005 0.98289 0.0
O398 O 0.63693 0.44509 0.26523 0.0
O399 O 0.70174 0.49928 0.2568 0.0
C400 C 0.55695 0.56654 0.13075 0.0
C401 C 0.57027 0.54085 0.12127 0.0
C402 C 0.5897 0.52886 0.14076 0.0
C403 C 0.59217 0.53877 0.17025 0.0
C404 C 0.57832 0.56398 0.17995 0.0
C405 C 0.562 0.57914 0.16001 0.0
C406 C 0.54186 0.58296 0.10872 0.0
C407 C 0.50063 0.55772 0.09863 0.0
C408 C 0.49002 0.56545 0.0716 0.0
C409 C 0.52089 0.59777 0.05403 0.0
C410 C 0.5611 0.62539 0.06562 0.0
C411 C 0.57136 0.61825 0.0929 0.0
C412 C 0.56418 0.52669 0.09071 0.0
C413 C 0.52861 0.48786 0.08291 0.0
C414 C 0.52162 0.47496 0.05402 0.0
C415 C 0.55018 0.50071 0.03246 0.0
C416 C 0.58604 0.53954 0.04049 0.0
C417 C 0.59303 0.55232 0.06941 0.0
C418 C 0.61351 0.51216 0.1297 0.0
C419 C 0.59846 0.4698 0.13241 0.0
C420 C 0.62359 0.4558 0.12403 0.0
C421 C 0.66382 0.48411 0.11288 0.0
C422 C 0.67842 0.52642 0.11007 0.0
C423 C 0.65337 0.54028 0.11833 0.0
C424 C 0.60973 0.52289 0.19098 0.0
C425 C 0.58299 0.48589 0.20629 0.0
C426 C 0.59927 0.47107 0.22608 0.0
C427 C 0.64268 0.4929 0.23073 0.0
C428 C 0.66937 0.52987 0.21513 0.0
C429 C 0.653 0.54472 0.19541 0.0
C430 C 0.57992 0.5722 0.21132 0.0
C431 C 0.54629 0.54236 0.22822 0.0
C432 C 0.5529 0.53616 0.25686 0.0
C433 C 0.59312 0.56046 0.26922 0.0
C434 C 0.62527 0.59431 0.25335 0.0
C435 C 0.61872 0.60008 0.2245 0.0
C436 C 0.55294 0.61017 0.16906 0.0
C437 C 0.51182 0.59988 0.16903 0.0
C438 C 0.50393 0.63053 0.17477 0.0
C439 C 0.53708 0.67191 0.18065 0.0
C440 C 0.57819 0.6819 0.18117 0.0
C441 C 0.58603 0.6512 0.17546 0.0
C442 C 0.54245 0.48707 0.00176 0.0
C443 C 0.66011 0.47747 0.25192 0.0
Co444 Co 0.65719 0.44684 0.40098 0.0
O445 O 0.70368 0.45688 0.37828 0.0
O446 O 0.70796 0.49911 0.4128 0.0
C447 C 0.63277 0.37968 0.41135 0.0
O448 O 0.61517 0.44535 0.42906 0.0
Co449 Co 0.56694 0.3798 0.37987 0.0
O450 O 0.55015 0.39186 0.41686 0.0
C451 C 0.61223 0.46495 0.35525 0.0
C452 C 0.72665 0.49067 0.39329 0.0
C453 C 0.57526 0.42245 0.43319 0.0
O454 O 0.64419 0.47663 0.37138 0.0
O455 O 0.57955 0.42766 0.35457 0.0
O456 O 0.66268 0.40999 0.42651 0.0
O457 O 0.62123 0.39087 0.38893 0.0
Co458 Co 0.26496 0.64038 0.56941 0.0
O459 O 0.30128 0.63153 0.59246 0.0
O460 O 0.25488 0.58578 0.56131 0.0
C461 C 0.31622 0.70601 0.55544 0.0
O462 O 0.22342 0.63928 0.54084 0.0
Co463 Co 0.25284 0.71225 0.58343 0.0
O464 O 0.22833 0.70027 0.54411 0.0
C465 C 0.20921 0.63451 0.61848 0.0
C466 C 0.28472 0.59566 0.57968 0.0
C467 C 0.21498 0.66549 0.53163 0.0
O468 O 0.22136 0.61678 0.60129 0.0
O469 O 0.22082 0.67264 0.61582 0.0
O470 O 0.31063 0.67372 0.5418 0.0
O471 O 0.29274 0.6975 0.57773 0.0
Co472 Co 0.65304 0.24959 0.72275 0.0
O473 O 0.64 0.27812 0.69529 0.0
O474 O 0.599 0.23998 0.73153 0.0
C475 C 0.71919 0.30333 0.73154 0.0
O476 O 0.65764 0.21736 0.7561 0.0
Co477 Co 0.72203 0.23382 0.7085 0.0
O478 O 0.71716 0.22007 0.75011 0.0
C479 C 0.63943 0.18148 0.68089 0.0
C480 C 0.60533 0.26346 0.70924 0.0
C481 C 0.68547 0.21107 0.76516 0.0
O482 O 0.62572 0.19896 0.69665 0.0
O483 O 0.67748 0.1923 0.68125 0.0
O484 O 0.68811 0.301 0.74466 0.0
O485 O 0.70901 0.27567 0.71158 0.0
Co486 Co 0.4381 0.61167 0.89045 0.0
O487 O 0.40297 0.62104 0.86714 0.0
O488 O 0.38053 0.57126 0.90022 0.0
C489 C 0.48276 0.67863 0.90245 0.0
O490 O 0.46497 0.59422 0.91977 0.0
Co491 Co 0.53019 0.64863 0.87545 0.0
O492 O 0.53365 0.64335 0.91796 0.0
C493 C 0.46276 0.58075 0.83989 0.0
C494 C 0.37186 0.59005 0.88098 0.0
C495 C 0.50135 0.6152 0.93153 0.0
O496 O 0.43626 0.57409 0.85958 0.0
O497 O 0.50156 0.61038 0.8414 0.0
O498 O 0.44807 0.65543 0.91661 0.0
O499 O 0.48822 0.66155 0.8803 0.0
Co500 Co 0.8171 0.41042 0.07604 0.0
O501 O 0.77244 0.40165 0.10029 0.0
O502 O 0.80761 0.4536 0.06895 0.0
C503 C 0.7847 0.34427 0.06082 0.0
O504 O 0.86242 0.42823 0.04577 0.0
Co505 Co 0.86439 0.36853 0.08738 0.0
O506 O 0.87913 0.38104 0.0458 0.0
C507 C 0.87626 0.43474 0.12662 0.0
C508 C 0.77764 0.43443 0.08778 0.0
C509 C 0.87815 0.41001 0.03339 0.0
O510 O 0.8581 0.44426 0.10792 0.0
O511 O 0.87993 0.40387 0.12326 0.0
O512 O 0.77708 0.36977 0.04862 0.0
O513 O 0.80917 0.35858 0.08317 0.0
Co514 Co 0.45485 0.81812 0.21495 0.0
O515 O 0.45723 0.78274 0.18678 0.0
O516 O 0.50177 0.81417 0.22304 0.0
C517 C 0.38618 0.77504 0.22393 0.0
O518 O 0.46088 0.85434 0.2494 0.0
Co519 Co 0.40162 0.85489 0.20447 0.0
O520 O 0.41329 0.87063 0.24581 0.0
C521 C 0.47895 0.88618 0.17128 0.0
C522 C 0.4891 0.78863 0.20116 0.0
C523 C 0.44128 0.86984 0.25993 0.0
O524 O 0.48999 0.86824 0.18905 0.0
O525 O 0.44331 0.88148 0.17227 0.0
O526 O 0.41262 0.76889 0.2363 0.0
O527 O 0.40141 0.80445 0.20487 0.0
C528 C 0.28057 0.74824 0.24879 0.0
C529 C 0.25695 0.70425 0.25057 0.0
C530 C 0.322 0.77091 0.23913 0.0
C531 C 0.3418 0.75061 0.23187 0.0
H532 H 0.26743 0.76556 0.25559 0.0
H533 H 0.33895 0.80461 0.23829 0.0
S534 S 0.29349 0.63643 0.22931 0.0
N535 N 0.25574 0.64128 0.2408 0.0
N536 N 0.3348 0.68453 0.22492 0.0
C537 C 0.31874 0.70689 0.23291 0.0
C538 C 0.27605 0.68356 0.24175 0.0
C539 C 0.57914 0.26271 0.40208 0.0
C540 C 0.58732 0.2507 0.42857 0.0
C541 C 0.5929 0.30439 0.39697 0.0
C542 C 0.61527 0.33539 0.41819 0.0
H543 H 0.56292 0.23994 0.38496 0.0
H544 H 0.58694 0.31252 0.37597 0.0
S545 S 0.63932 0.31842 0.49261 0.0
N546 N 0.61531 0.27188 0.47722 0.0
N547 N 0.64146 0.35026 0.46768 0.0
C548 C 0.62204 0.32331 0.44522 0.0
C549 C 0.608 0.28093 0.45038 0.0
C550 C 0.35425 0.56129 0.60787 0.0
C551 C 0.33874 0.52279 0.59398 0.0
C552 C 0.33597 0.58389 0.60348 0.0
C553 C 0.30143 0.56921 0.58485 0.0
H554 H 0.38059 0.57396 0.62254 0.0
H555 H 0.34943 0.61342 0.6147 0.0
S556 S 0.24927 0.47027 0.54279 0.0
N557 N 0.28696 0.47101 0.56055 0.0
N558 N 0.25256 0.51343 0.55225 0.0
C559 C 0.28547 0.53062 0.57084 0.0
C560 C 0.30406 0.50745 0.57544 0.0
C561 C 0.81241 0.38285 0.77668 0.0
C562 C 0.84672 0.39052 0.76021 0.0
C563 C 0.77135 0.35501 0.76701 0.0
C564 C 0.76298 0.33359 0.74057 0.0
H565 H 0.81727 0.3977 0.79757 0.0
H566 H 0.74597 0.34967 0.78069 0.0
S567 S 0.84188 0.34536 0.68818 0.0
N568 N 0.86974 0.37666 0.71525 0.0
N569 N 0.79247 0.32363 0.69732 0.0
C570 C 0.79699 0.3416 0.72358 0.0
C571 C 0.83886 0.37021 0.73335 0.0
C572 C 0.56057 0.7944 0.8923 0.0
C573 C 0.5572 0.81051 0.91859 0.0
C574 C 0.5382 0.75116 0.88777 0.0
C575 C 0.51186 0.72312 0.90939 0.0
H576 H 0.57877 0.81526 0.87472 0.0
H577 H 0.53976 0.73979 0.86668 0.0
S578 S 0.49913 0.75051 0.98382 0.0
N579 N 0.53062 0.79592 0.96775 0.0
N580 N 0.48841 0.71456 0.95932 0.0
C581 C 0.51094 0.73906 0.93651 0.0
C582 C 0.5337 0.78291 0.94109 0.0
C583 C 0.69823 0.44711 0.12553 0.0
C584 C 0.69162 0.47029 0.10546 0.0
C585 C 0.72646 0.43591 0.11971 0.0
C586 C 0.74921 0.44781 0.09373 0.0
H587 H 0.68207 0.43826 0.14611 0.0
H588 H 0.73082 0.41822 0.13582 0.0
S589 S 0.74062 0.50588 0.03319 0.0
N590 N 0.70799 0.50257 0.05793 0.0
N591 N 0.76176 0.48224 0.04716 0.0
C592 C 0.7425 0.47056 0.07333 0.0
C593 C 0.71348 0.4816 0.07915 0.0
C594 C 0.39121 0.79925 0.50808 0.0
C595 C 0.4011 0.83358 0.52558 0.0
C596 C 0.36409 0.758 0.51793 0.0
C597 C 0.34592 0.74966 0.54561 0.0
H598 H 0.4037 0.80428 0.48638 0.0
H599 H 0.35678 0.73253 0.50356 0.0
S600 S 0.36533 0.82886 0.60081 0.0
N601 N 0.3932 0.85658 0.5726 0.0
N602 N 0.34212 0.7795 0.59103 0.0
C603 C 0.35658 0.78384 0.56356 0.0
C604 C 0.38418 0.82565 0.55358 0.0
C605 C 0.52105 0.28627 0.71395 0.0
C606 C 0.52605 0.3069 0.6877 0.0
C607 C 0.54566 0.27063 0.7204 0.0
C608 C 0.57594 0.27519 0.70077 0.0
H609 H 0.49911 0.28356 0.72995 0.0
H610 H 0.54199 0.25631 0.74131 0.0
S611 S 0.59642 0.32205 0.62741 0.0
N612 N 0.56021 0.32778 0.64098 0.0
N613 N 0.60614 0.29822 0.65268 0.0
C614 C 0.57939 0.29386 0.67378 0.0
C615 C 0.55452 0.3098 0.66737 0.0
C616 C 0.25907 0.55069 0.89569 0.0
C617 C 0.24845 0.56479 0.87137 0.0
C618 C 0.29878 0.55774 0.89823 0.0
C619 C 0.32899 0.57905 0.8765 0.0
H620 H 0.23675 0.53471 0.91303 0.0
H621 H 0.30618 0.54742 0.91769 0.0
S622 S 0.31428 0.61724 0.80686 0.0
N623 N 0.26947 0.59737 0.82401 0.0
N624 N 0.34431 0.61101 0.82879 0.0
C625 C 0.3181 0.59191 0.85159 0.0
C626 C 0.27774 0.5847 0.84903 0.0
C627 C 0.72863 0.25078 0.01095 0.0
C628 C 0.7276 0.21926 0.02704 0.0
C629 C 0.74764 0.29122 0.02201 0.0
C630 C 0.76647 0.3017 0.04951 0.0
H631 H 0.71486 0.24419 0.98954 0.0
H632 H 0.74757 0.31444 0.00882 0.0
S633 S 0.77121 0.23013 0.1006 0.0
N634 N 0.74607 0.20078 0.07212 0.0
N635 N 0.78262 0.27723 0.09276 0.0
C636 C 0.76597 0.27059 0.06578 0.0
C637 C 0.74633 0.22925 0.05457 0.0
C638 C 0.5026 0.70814 0.16573 0.0
C639 C 0.52854 0.70465 0.18524 0.0
C640 C 0.49179 0.73694 0.17038 0.0
C641 C 0.50643 0.76337 0.19475 0.0
H642 H 0.4901 0.68806 0.14687 0.0
H643 H 0.47084 0.73763 0.15506 0.0
S644 S 0.57658 0.76743 0.25186 0.0
N645 N 0.56963 0.73065 0.22942 0.0
N646 N 0.54967 0.78519 0.23813 0.0
C647 C 0.53368 0.76124 0.21392 0.0
C648 C 0.54464 0.73178 0.20917 0.0
C649 C 0.84094 0.53308 0.40408 0.0
C650 C 0.85774 0.54868 0.37644 0.0
C651 C 0.79888 0.51737 0.41028 0.0
C652 C 0.77222 0.51614 0.38888 0.0
H653 H 0.86021 0.53221 0.42079 0.0
H654 H 0.78658 0.504 0.4314 0.0
S655 S 0.8008 0.5537 0.31347 0.0
N656 N 0.84453 0.56302 0.32788 0.0
N657 N 0.76544 0.53248 0.33942 0.0
C658 C 0.78882 0.53249 0.36148 0.0
C659 C 0.83164 0.54909 0.3553 0.0
C660 C 0.12101 0.60509 0.48153 0.0
C661 C 0.12803 0.63531 0.46085 0.0
C662 C 0.14998 0.61444 0.50377 0.0
C663 C 0.18679 0.65456 0.50647 0.0
H664 H 0.09266 0.57401 0.48078 0.0
H665 H 0.14288 0.59047 0.51946 0.0
S666 S 0.22233 0.74407 0.45709 0.0
N667 N 0.17698 0.70635 0.44358 0.0
N668 N 0.2299 0.72415 0.48611 0.0
C669 C 0.19458 0.68488 0.48588 0.0
C670 C 0.16562 0.67525 0.46295 0.0
C671 C 0.58981 0.08535 0.633 0.0
C672 C 0.56254 0.08969 0.61535 0.0
C673 C 0.61367 0.11448 0.65478 0.0
C674 C 0.61045 0.14852 0.66028 0.0
H675 H 0.59386 0.05999 0.62935 0.0
H676 H 0.63536 0.11072 0.66709 0.0
S677 S 0.54261 0.17365 0.6216 0.0
N678 N 0.53355 0.13105 0.60549 0.0
N679 N 0.57672 0.18418 0.64748 0.0
C680 C 0.58177 0.15213 0.644 0.0
C681 C 0.55816 0.12309 0.62133 0.0
C682 C 0.46324 0.53289 0.76856 0.0
C683 C 0.4226 0.51595 0.75782 0.0
C684 C 0.47542 0.55231 0.79563 0.0
C685 C 0.44736 0.55527 0.81316 0.0
H686 H 0.48599 0.53139 0.75581 0.0
H687 H 0.50733 0.56565 0.80266 0.0
S688 S 0.3369 0.51503 0.79513 0.0
N689 N 0.35399 0.50253 0.76681 0.0
N690 N 0.37658 0.53885 0.81799 0.0
C691 C 0.4061 0.53724 0.80306 0.0
C692 C 0.39378 0.51759 0.77533 0.0
C693 C 0.8928 0.45224 0.95676 0.0
C694 C 0.91609 0.43877 0.94322 0.0
C695 C 0.88159 0.44372 0.98604 0.0
C696 C 0.89334 0.42145 0.00307 0.0
H697 H 0.88285 0.46932 0.94456 0.0
H698 H 0.86298 0.45412 0.9952 0.0
S699 S 0.95717 0.3818 0.9785 0.0
N700 N 0.95231 0.40378 0.94953 0.0
N701 N 0.93126 0.38767 0.00433 0.0
C702 C 0.9172 0.40834 0.98988 0.0
C703 C 0.92851 0.41695 0.96007 0.0
C704 C 0.57803 0.96513 0.13027 0.0
C705 C 0.56241 0.96492 0.10266 0.0
C706 C 0.55108 0.93913 0.15248 0.0
C707 C 0.50771 0.91234 0.14776 0.0
H708 H 0.61115 0.98577 0.13479 0.0
H709 H 0.56412 0.94057 0.17357 0.0
S710 S 0.45222 0.89545 0.07819 0.0
N711 N 0.50148 0.93207 0.07109 0.0
N712 N 0.45107 0.88434 0.11278 0.0
C713 C 0.49204 0.91095 0.12002 0.0
C714 C 0.51933 0.93692 0.09748 0.0
C715 C 0.63785 0.54186 0.29516 0.0
C716 C 0.60292 0.54495 0.2954 0.0
C717 C 0.64238 0.518 0.31585 0.0
C718 C 0.61185 0.49607 0.33714 0.0
H719 H 0.66042 0.55554 0.27777 0.0
H720 H 0.66838 0.51452 0.31405 0.0
S721 S 0.51979 0.50088 0.3512 0.0
N722 N 0.54154 0.52991 0.32208 0.0
N723 N 0.54917 0.48354 0.36013 0.0
C724 C 0.57878 0.50156 0.33913 0.0
C725 C 0.57457 0.52645 0.31848 0.0
C726 C 0.47748 0.88807 0.33847 0.0
C727 C 0.46363 0.91259 0.34917 0.0
C728 C 0.4708 0.87491 0.30947 0.0
C729 C 0.45027 0.88609 0.29008 0.0
H730 H 0.49333 0.87874 0.35268 0.0
H731 H 0.4813 0.85539 0.30237 0.0
S732 S 0.41202 0.95384 0.30699 0.0
N733 N 0.4312 0.95001 0.33785 0.0
N734 N 0.41865 0.92564 0.28354 0.0
C735 C 0.43724 0.91155 0.3005 0.0
C736 C 0.4439 0.92469 0.32996 0.0
C737 C 0.49534 0.43018 0.4752 0.0
C738 C 0.51372 0.44403 0.50265 0.0
C739 C 0.51614 0.42445 0.45281 0.0
C740 C 0.55632 0.43253 0.45684 0.0
H741 H 0.4642 0.42285 0.47114 0.0
H742 H 0.50028 0.41305 0.43219 0.0
S743 S 0.61873 0.47002 0.52435 0.0
N744 N 0.57494 0.46621 0.53252 0.0
N745 N 0.61424 0.45609 0.49005 0.0
C746 C 0.57582 0.44785 0.48378 0.0
C747 C 0.55448 0.45343 0.50677 0.0
C748 C 0.11963 0.54394 0.66104 0.0
C749 C 0.11626 0.56418 0.68527 0.0
C750 C 0.15047 0.56649 0.63981 0.0
C751 C 0.17915 0.61006 0.64212 0.0
H752 H 0.098 0.51052 0.65832 0.0
H753 H 0.15123 0.54981 0.6212 0.0
S754 S 0.18688 0.67703 0.70313 0.0
N755 N 0.14662 0.62986 0.71134 0.0
N756 N 0.20418 0.67189 0.67186 0.0
C757 C 0.17688 0.63032 0.66674 0.0
C758 C 0.14557 0.60752 0.68815 0.0
C759 C 0.65565 0.18021 0.84403 0.0
C760 C 0.67463 0.15864 0.85042 0.0
C761 C 0.65875 0.19673 0.81631 0.0
C762 C 0.68089 0.19216 0.79405 0.0
H763 H 0.63843 0.18447 0.8606 0.0
H764 H 0.64417 0.21362 0.81244 0.0
S765 S 0.73208 0.13401 0.79901 0.0
N766 N 0.71335 0.1307 0.83171 0.0
N767 N 0.7196 0.1618 0.77993 0.0
C768 C 0.69921 0.1698 0.80012 0.0
C769 C 0.69598 0.15305 0.82821 0.0
C770 C 0.52973 0.64037 0.01035 0.0
C771 C 0.51286 0.60085 0.02298 0.0
C772 C 0.52635 0.64456 0.98061 0.0
C773 C 0.50525 0.60936 0.96247 0.0
H774 H 0.54595 0.66841 0.02351 0.0
H775 H 0.53986 0.6756 0.97178 0.0
S776 S 0.45599 0.49903 0.98406 0.0
N777 N 0.47539 0.52576 0.01442 0.0
N778 N 0.46703 0.53392 0.95872 0.0
C779 C 0.48741 0.56965 0.97465 0.0
C780 C 0.49168 0.56531 0.00486 0.0
C781 C 0.93471 0.47747 0.19764 0.0
C782 C 0.91676 0.49747 0.20998 0.0
C783 C 0.92233 0.45847 0.17038 0.0
C784 C 0.89162 0.45884 0.1541 0.0
H785 H 0.95878 0.47659 0.20911 0.0
H786 H 0.93689 0.44315 0.16208 0.0
S787 S 0.83441 0.50667 0.1767 0.0
N788 N 0.86646 0.51632 0.20391 0.0
N789 N 0.84332 0.48095 0.15246 0.0
C790 C 0.87384 0.47938 0.16593 0.0
C791 C 0.88638 0.4986 0.19387 0.0
loop_
_geom_bond_atom_site_label_1
_geom_bond_atom_site_label_2
_geom_bond_distance
_geom_bond_site_symmetry_2
_ccdc_geom_bond_type
H0 O26 0.856 . S
H1 O29 0.854 . S
H2 C37 0.930 1_455 S
H3 C38 0.930 . S
H4 C40 0.930 . S
H5 C41 0.930 . S
H6 C43 0.931 . S
H7 C44 0.930 . S
H8 C46 0.930 . S
H9 C47 0.929 . S
H10 C49 0.930 . S
H11 C50 0.931 . S
H12 C52 0.930 . S
H13 C53 0.929 . S
H14 C55 0.931 . S
H15 C56 0.930 . S
H16 C58 0.930 . S
H17 C59 0.932 . S
H18 C61 0.930 . S
H19 C62 0.929 . S
H20 C64 0.931 . S
H21 C65 0.930 . S
H22 C67 0.929 . S
H23 C68 0.931 . S
H24 C70 0.930 . S
H25 C71 0.929 1_455 S
O26 H0 0.856 . S
O26 C72 1.300 . S
O27 C72 1.209 . S
O28 C73 1.199 . S
O29 H1 0.854 . S
O29 C73 1.297 . S
C30 C31 1.404 . S
C30 C35 1.397 . S
C30 C36 1.492 . S
C31 C30 1.404 . S
C31 C32 1.396 . S
C31 C42 1.492 . S
C32 C31 1.396 . S
C32 C33 1.397 . S
C32 C48 1.509 . S
C33 C32 1.397 . S
C33 C34 1.412 . S
C33 C54 1.485 . S
C34 C33 1.412 . S
C34 C35 1.388 . S
C34 C60 1.490 . S
C35 C30 1.397 . S
C35 C34 1.388 . S
C35 C66 1.519 1_455 S
C36 C30 1.492 . S
C36 C37 1.363 1_455 S
C36 C41 1.390 1_455 S
C37 H2 0.930 1_655 S
C37 C36 1.363 1_655 S
C37 C38 1.372 . S
C38 H3 0.930 . S
C38 C37 1.372 . S
C38 C39 1.383 . S
C39 C38 1.383 . S
C39 C40 1.395 . S
C40 H4 0.930 . S
C40 C39 1.395 . S
C40 C41 1.362 . S
C41 H5 0.930 . S
C41 C36 1.390 1_655 S
C41 C40 1.362 . S
C42 C31 1.492 . S
C42 C43 1.377 . S
C42 C47 1.397 . S
C43 H6 0.931 . S
C43 C42 1.377 . S
C43 C44 1.376 . S
C44 H7 0.930 . S
C44 C43 1.376 . S
C44 C45 1.376 . S
C45 C44 1.376 . S
C45 C46 1.378 . S
C45 C72 1.486 . S
C46 H8 0.930 . S
C46 C45 1.378 . S
C46 C47 1.376 . S
C47 H9 0.929 . S
C47 C42 1.397 . S
C47 C46 1.376 . S
C48 C32 1.509 . S
C48 C49 1.391 . S
C48 C53 1.386 . S
C49 H10 0.930 . S
C49 C48 1.391 . S
C49 C50 1.375 . S
C50 H11 0.931 . S
C50 C49 1.375 . S
C50 C51 1.375 . S
C51 C50 1.375 . S
C51 C52 1.361 . S
C52 H12 0.930 . S
C52 C51 1.361 . S
C52 C53 1.399 . S
C53 H13 0.929 . S
C53 C48 1.386 . S
C53 C52 1.399 . S
C54 C33 1.485 . S
C54 C55 1.394 . S
C54 C59 1.360 . S
C55 H14 0.931 . S
C55 C54 1.394 . S
C55 C56 1.372 . S
C56 H15 0.930 . S
C56 C55 1.372 . S
C56 C57 1.397 . S
C57 C56 1.397 . S
C57 C58 1.390 . S
C57 C73 1.476 . S
C58 H16 0.930 . S
C58 C57 1.390 . S
C58 C59 1.366 . S
C59 H17 0.932 . S
C59 C54 1.360 . S
C59 C58 1.366 . S
C60 C34 1.490 . S
C60 C61 1.380 . S
C60 C65 1.386 . S
C61 H18 0.930 . S
C61 C60 1.380 . S
C61 C62 1.381 . S
C62 H19 0.929 . S
C62 C61 1.381 . S
C62 C63 1.371 . S
C63 C62 1.371 . S
C63 C64 1.380 . S
C64 H20 0.931 . S
C64 C63 1.380 . S
C64 C65 1.387 . S
C65 H21 0.930 . S
C65 C60 1.386 . S
C65 C64 1.387 . S
C66 C35 1.519 1_655 S
C66 C67 1.377 . S
C66 C71 1.361 . S
C67 H22 0.929 . S
C67 C66 1.377 . S
C67 C68 1.386 . S
C68 H23 0.931 . S
C68 C67 1.386 . S
C68 C69 1.363 . S
C69 C68 1.363 . S
C69 C70 1.385 . S
C70 H24 0.930 . S
C70 C69 1.385 . S
C70 C71 1.396 . S
C71 H25 0.929 1_655 S
C71 C66 1.361 . S
C71 C70 1.396 . S
C72 O26 1.300 . S
C72 O27 1.209 . S
C72 C45 1.486 . S
C73 O28 1.199 . S
C73 O29 1.297 . S
C73 C57 1.476 . S
H74 O100 0.856 . S
H75 O103 0.854 . S
H76 C111 0.930 . S
H77 C112 0.930 . S
H78 C114 0.930 . S
H79 C115 0.930 . S
H80 C117 0.931 . S
H81 C118 0.930 . S
H82 C120 0.930 . S
H83 C121 0.929 . S
H84 C123 0.930 . S
H85 C124 0.931 . S
H86 C126 0.930 . S
H87 C127 0.929 . S
H88 C129 0.931 . S
H89 C130 0.930 . S
H90 C132 0.930 . S
H91 C133 0.932 . S
H92 C135 0.930 . S
H93 C136 0.929 . S
H94 C138 0.931 . S
H95 C139 0.930 . S
H96 C141 0.929 . S
H97 C142 0.931 . S
H98 C144 0.930 . S
H99 C145 0.929 1_545 S
O100 H74 0.856 . S
O100 C146 1.300 . S
O101 C146 1.209 . S
O102 C147 1.199 . S
O103 H75 0.854 . S
O103 C147 1.297 . S
C104 C105 1.404 . S
C104 C109 1.397 . S
C104 C110 1.492 . S
C105 C104 1.404 . S
C105 C106 1.396 . S
C105 C116 1.492 . S
C106 C105 1.396 . S
C106 C107 1.397 . S
C106 C122 1.509 . S
C107 C106 1.397 . S
C107 C108 1.412 . S
C107 C128 1.485 . S
C108 C107 1.412 . S
C108 C109 1.388 . S
C108 C134 1.490 . S
C109 C104 1.397 . S
C109 C108 1.388 . S
C109 C140 1.519 . S
C110 C104 1.492 . S
C110 C111 1.363 . S
C110 C115 1.390 1_545 S
C111 H76 0.930 . S
C111 C110 1.363 . S
C111 C112 1.372 1_545 S
C112 H77 0.930 . S
C112 C111 1.372 1_565 S
C112 C113 1.383 . S
C113 C112 1.383 . S
C113 C114 1.395 . S
C114 H78 0.930 . S
C114 C113 1.395 . S
C114 C115 1.362 . S
C115 H79 0.930 . S
C115 C110 1.390 1_565 S
C115 C114 1.362 . S
C116 C105 1.492 . S
C116 C117 1.377 . S
C116 C121 1.397 . S
C117 H80 0.931 . S
C117 C116 1.377 . S
C117 C118 1.376 . S
C118 H81 0.930 . S
C118 C117 1.376 . S
C118 C119 1.376 . S
C119 C118 1.376 . S
C119 C120 1.378 . S
C119 C146 1.486 . S
C120 H82 0.930 . S
C120 C119 1.378 . S
C120 C121 1.376 . S
C121 H83 0.929 . S
C121 C116 1.397 . S
C121 C120 1.376 . S
C122 C106 1.509 . S
C122 C123 1.391 . S
C122 C127 1.386 . S
C123 H84 0.930 . S
C123 C122 1.391 . S
C123 C124 1.375 . S
C124 H85 0.931 . S
C124 C123 1.375 . S
C124 C125 1.375 . S
C125 C124 1.375 . S
C125 C126 1.361 . S
C126 H86 0.930 . S
C126 C125 1.361 . S
C126 C127 1.399 . S
C127 H87 0.929 . S
C127 C122 1.386 . S
C127 C126 1.399 . S
C128 C107 1.485 . S
C128 C129 1.394 . S
C128 C133 1.360 . S
C129 H88 0.931 . S
C129 C128 1.394 . S
C129 C130 1.372 . S
C130 H89 0.930 . S
C130 C129 1.372 . S
C130 C131 1.397 . S
C131 C130 1.397 . S
C131 C132 1.390 . S
C131 C147 1.476 . S
C132 H90 0.930 . S
C132 C131 1.390 . S
C132 C133 1.366 . S
C133 H91 0.932 . S
C133 C128 1.360 . S
C133 C132 1.366 . S
C134 C108 1.490 . S
C134 C135 1.380 . S
C134 C139 1.386 . S
C135 H92 0.930 . S
C135 C134 1.380 . S
C135 C136 1.381 . S
C136 H93 0.929 . S
C136 C135 1.381 . S
C136 C137 1.371 . S
C137 C136 1.371 . S
C137 C138 1.380 . S
C138 H94 0.931 . S
C138 C137 1.380 . S
C138 C139 1.387 . S
C139 H95 0.930 . S
C139 C134 1.386 . S
C139 C138 1.387 . S
C140 C109 1.519 . S
C140 C141 1.377 1_545 S
C140 C145 1.361 1_545 S
C141 H96 0.929 . S
C141 C140 1.377 1_565 S
C141 C142 1.386 . S
C142 H97 0.931 . S
C142 C141 1.386 . S
C142 C143 1.363 . S
C143 C142 1.363 . S
C143 C144 1.385 . S
C144 H98 0.930 . S
C144 C143 1.385 . S
C144 C145 1.396 . S
C145 H99 0.929 1_565 S
C145 C140 1.361 1_565 S
C145 C144 1.396 . S
C146 O100 1.300 . S
C146 O101 1.209 . S
C146 C119 1.486 . S
C147 O102 1.199 . S
C147 O103 1.297 . S
C147 C131 1.476 . S
H148 O174 0.856 . S
H149 O177 0.854 . S
H150 C185 0.930 . S
H151 C186 0.930 . S
H152 C188 0.930 . S
H153 C189 0.930 . S
H154 C191 0.931 . S
H155 C192 0.930 . S
H156 C194 0.930 . S
H157 C195 0.929 . S
H158 C197 0.930 . S
H159 C198 0.931 . S
H160 C200 0.930 . S
H161 C201 0.929 . S
H162 C203 0.931 . S
H163 C204 0.930 . S
H164 C206 0.930 . S
H165 C207 0.932 . S
H166 C209 0.930 . S
H167 C210 0.929 . S
H168 C212 0.931 . S
H169 C213 0.930 . S
H170 C215 0.929 . S
H171 C216 0.931 . S
H172 C218 0.930 . S
H173 C219 0.929 . S
O174 H148 0.856 . S
O174 C220 1.300 . S
O175 C220 1.209 . S
O176 C221 1.199 . S
O177 H149 0.854 . S
O177 C221 1.297 . S
C178 C179 1.404 . S
C178 C183 1.397 . S
C178 C184 1.492 . S
C179 C178 1.404 . S
C179 C180 1.396 . S
C179 C190 1.492 . S
C180 C179 1.396 . S
C180 C181 1.397 . S
C180 C196 1.509 . S
C181 C180 1.397 . S
C181 C182 1.412 . S
C181 C202 1.485 . S
C182 C181 1.412 . S
C182 C183 1.388 . S
C182 C208 1.490 . S
C183 C178 1.397 . S
C183 C182 1.388 . S
C183 C214 1.519 . S
C184 C178 1.492 . S
C184 C185 1.363 . S
C184 C189 1.390 . S
C185 H150 0.930 . S
C185 C184 1.363 . S
C185 C186 1.372 . S
C186 H151 0.930 . S
C186 C185 1.372 . S
C186 C187 1.383 . S
C187 C186 1.383 . S
C187 C188 1.395 . S
C188 H152 0.930 . S
C188 C187 1.395 . S
C188 C189 1.362 . S
C189 H153 0.930 . S
C189 C184 1.390 . S
C189 C188 1.362 . S
C190 C179 1.492 . S
C190 C191 1.377 . S
C190 C195 1.397 . S
C191 H154 0.931 . S
C191 C190 1.377 . S
C191 C192 1.376 . S
C192 H155 0.930 . S
C192 C191 1.376 . S
C192 C193 1.376 . S
C193 C192 1.376 . S
C193 C194 1.378 . S
C193 C220 1.486 . S
C194 H156 0.930 . S
C194 C193 1.378 . S
C194 C195 1.376 . S
C195 H157 0.929 . S
C195 C190 1.397 . S
C195 C194 1.376 . S
C196 C180 1.509 . S
C196 C197 1.391 . S
C196 C201 1.386 . S
C197 H158 0.930 . S
C197 C196 1.391 . S
C197 C198 1.375 . S
C198 H159 0.931 . S
C198 C197 1.375 . S
C198 C199 1.375 . S
C199 C198 1.375 . S
C199 C200 1.361 . S
C200 H160 0.930 . S
C200 C199 1.361 . S
C200 C201 1.399 . S
C201 H161 0.929 . S
C201 C196 1.386 . S
C201 C200 1.399 . S
C202 C181 1.485 . S
C202 C203 1.394 . S
C202 C207 1.360 . S
C203 H162 0.931 . S
C203 C202 1.394 . S
C203 C204 1.372 . S
C204 H163 0.930 . S
C204 C203 1.372 . S
C204 C205 1.397 . S
C205 C204 1.397 . S
C205 C206 1.390 . S
C205 C221 1.476 . S
C206 H164 0.930 . S
C206 C205 1.390 . S
C206 C207 1.366 . S
C207 H165 0.932 . S
C207 C202 1.360 . S
C207 C206 1.366 . S
C208 C182 1.490 . S
C208 C209 1.380 . S
C208 C213 1.386 . S
C209 H166 0.930 . S
C209 C208 1.380 . S
C209 C210 1.381 . S
C210 H167 0.929 . S
C210 C209 1.381 . S
C210 C211 1.371 . S
C211 C210 1.371 . S
C211 C212 1.380 . S
C212 H168 0.931 . S
C212 C211 1.380 . S
C212 C213 1.387 . S
C213 H169 0.930 . S
C213 C208 1.386 . S
C213 C212 1.387 . S
C214 C183 1.519 . S
C214 C215 1.377 . S
C214 C219 1.361 . S
C215 H170 0.929 . S
C215 C214 1.377 . S
C215 C216 1.386 . S
C216 H171 0.931 . S
C216 C215 1.386 . S
C216 C217 1.363 . S
C217 C216 1.363 . S
C217 C218 1.385 . S
C218 H172 0.930 . S
C218 C217 1.385 . S
C218 C219 1.396 . S
C219 H173 0.929 . S
C219 C214 1.361 . S
C219 C218 1.396 . S
C220 O174 1.300 . S
C220 O175 1.209 . S
C220 C193 1.486 . S
C221 O176 1.199 . S
C221 O177 1.297 . S
C221 C205 1.476 . S
H222 O248 0.856 1_554 S
H223 O251 0.854 . S
H224 C259 0.930 1_455 S
H225 C260 0.930 . S
H226 C262 0.930 . S
H227 C263 0.930 . S
H228 C265 0.931 . S
H229 C266 0.930 . S
H230 C268 0.930 . S
H231 C269 0.929 . S
H232 C271 0.930 . S
H233 C272 0.931 . S
H234 C274 0.930 . S
H235 C275 0.929 . S
H236 C277 0.931 . S
H237 C278 0.930 . S
H238 C280 0.930 . S
H239 C281 0.932 . S
H240 C283 0.930 . S
H241 C284 0.929 . S
H242 C286 0.931 . S
H243 C287 0.930 . S
H244 C289 0.929 . S
H245 C290 0.931 . S
H246 C292 0.930 . S
H247 C293 0.929 . S
O248 H222 0.856 1_556 S
O248 C294 1.300 . S
O249 C294 1.209 . S
O250 C295 1.199 . S
O251 H223 0.854 . S
O251 C295 1.297 . S
C252 C253 1.404 . S
C252 C257 1.397 . S
C252 C258 1.492 1_455 S
C253 C252 1.404 . S
C253 C254 1.396 . S
C253 C264 1.492 . S
C254 C253 1.396 . S
C254 C255 1.397 . S
C254 C270 1.509 . S
C255 C254 1.397 . S
C255 C256 1.412 . S
C255 C276 1.485 . S
C256 C255 1.412 . S
C256 C257 1.388 . S
C256 C282 1.490 . S
C257 C252 1.397 . S
C257 C256 1.388 . S
C257 C288 1.519 1_455 S
C258 C252 1.492 1_655 S
C258 C259 1.363 . S
C258 C263 1.390 . S
C259 H224 0.930 1_655 S
C259 C258 1.363 . S
C259 C260 1.372 . S
C260 H225 0.930 . S
C260 C259 1.372 . S
C260 C261 1.383 . S
C261 C260 1.383 . S
C261 C262 1.395 . S
C262 H226 0.930 . S
C262 C261 1.395 . S
C262 C263 1.362 . S
C263 H227 0.930 . S
C263 C258 1.390 . S
C263 C262 1.362 . S
C264 C253 1.492 . S
C264 C265 1.377 . S
C264 C269 1.397 . S
C265 H228 0.931 . S
C265 C264 1.377 . S
C265 C266 1.376 . S
C266 H229 0.930 . S
C266 C265 1.376 . S
C266 C267 1.376 . S
C267 C266 1.376 . S
C267 C268 1.378 . S
C267 C294 1.486 . S
C268 H230 0.930 . S
C268 C267 1.378 . S
C268 C269 1.376 . S
C269 H231 0.929 . S
C269 C264 1.397 . S
C269 C268 1.376 . S
C270 C254 1.509 . S
C270 C271 1.391 . S
C270 C275 1.386 . S
C271 H232 0.930 . S
C271 C270 1.391 . S
C271 C272 1.375 . S
C272 H233 0.931 . S
C272 C271 1.375 . S
C272 C273 1.375 . S
C273 C272 1.375 . S
C273 C274 1.361 . S
C274 H234 0.930 . S
C274 C273 1.361 . S
C274 C275 1.399 . S
C275 H235 0.929 . S
C275 C270 1.386 . S
C275 C274 1.399 . S
C276 C255 1.485 . S
C276 C277 1.394 . S
C276 C281 1.360 . S
C277 H236 0.931 . S
C277 C276 1.394 . S
C277 C278 1.372 . S
C278 H237 0.930 . S
C278 C277 1.372 . S
C278 C279 1.397 . S
C279 C278 1.397 . S
C279 C280 1.390 . S
C279 C295 1.476 . S
C280 H238 0.930 . S
C280 C279 1.390 . S
C280 C281 1.366 . S
C281 H239 0.932 . S
C281 C276 1.360 . S
C281 C280 1.366 . S
C282 C256 1.490 . S
C282 C283 1.380 . S
C282 C287 1.386 . S
C283 H240 0.930 . S
C283 C282 1.380 . S
C283 C284 1.381 . S
C284 H241 0.929 . S
C284 C283 1.381 . S
C284 C285 1.371 . S
C285 C284 1.371 . S
C285 C286 1.380 . S
C286 H242 0.931 . S
C286 C285 1.380 . S
C286 C287 1.387 . S
C287 H243 0.930 . S
C287 C282 1.386 . S
C287 C286 1.387 . S
C288 C257 1.519 1_655 S
C288 C289 1.377 . S
C288 C293 1.361 . S
C289 H244 0.929 . S
C289 C288 1.377 . S
C289 C290 1.386 . S
C290 H245 0.931 . S
C290 C289 1.386 . S
C290 C291 1.363 . S
C291 C290 1.363 . S
C291 C292 1.385 . S
C292 H246 0.930 . S
C292 C291 1.385 . S
C292 C293 1.396 . S
C293 H247 0.929 . S
C293 C288 1.361 . S
C293 C292 1.396 . S
C294 O248 1.300 . S
C294 O249 1.209 . S
C294 C267 1.486 . S
C295 O250 1.199 . S
C295 O251 1.297 . S
C295 C279 1.476 . S
H296 O322 0.856 . S
H297 O325 0.854 . S
H298 C333 0.930 . S
H299 C334 0.930 . S
H300 C336 0.930 . S
H301 C337 0.930 . S
H302 C339 0.931 . S
H303 C340 0.930 . S
H304 C342 0.930 . S
H305 C343 0.929 1_545 S
H306 C345 0.930 . S
H307 C346 0.931 . S
H308 C348 0.930 . S
H309 C349 0.929 . S
H310 C351 0.931 . S
H311 C352 0.930 . S
H312 C354 0.930 . S
H313 C355 0.932 . S
H314 C357 0.930 . S
H315 C358 0.929 . S
H316 C360 0.931 . S
H317 C361 0.930 . S
H318 C363 0.946 . S
H319 C364 0.931 . S
H320 C366 0.930 . S
H321 C367 0.929 . S
O322 H296 0.856 . S
O322 C368 1.300 . S
O323 C368 1.209 . S
O324 C369 1.199 . S
O325 H297 0.854 . S
O325 C369 1.297 . S
C326 C327 1.404 1_545 S
C326 C331 1.397 . S
C326 C332 1.492 . S
C327 C326 1.404 1_565 S
C327 C328 1.396 . S
C327 C338 1.492 . S
C328 C327 1.396 . S
C328 C329 1.397 . S
C328 C344 1.509 . S
C329 C328 1.397 . S
C329 C330 1.412 1_556 S
C329 C350 1.485 1_556 S
C330 C329 1.412 1_554 S
C330 C331 1.388 1_564 S
C330 C356 1.490 . S
C331 C326 1.397 . S
C331 C330 1.388 1_546 S
C331 C362 1.519 1_556 S
C332 C326 1.492 . S
C332 C333 1.363 . S
C332 C337 1.390 . S
C333 H298 0.930 . S
C333 C332 1.363 . S
C333 C334 1.372 . S
C334 H299 0.930 . S
C334 C333 1.372 . S
C334 C335 1.383 . S
C335 C334 1.383 . S
C335 C336 1.395 . S
C336 H300 0.930 . S
C336 C335 1.395 . S
C336 C337 1.362 . S
C337 H301 0.930 . S
C337 C332 1.390 . S
C337 C336 1.362 . S
C338 C327 1.492 . S
C338 C339 1.377 . S
C338 C343 1.397 . S
C339 H302 0.931 . S
C339 C338 1.377 . S
C339 C340 1.376 . S
C340 H303 0.930 . S
C340 C339 1.376 . S
C340 C341 1.376 . S
C341 C340 1.376 . S
C341 C342 1.378 . S
C341 C368 1.486 . S
C342 H304 0.930 . S
C342 C341 1.378 . S
C342 C343 1.376 . S
C343 H305 0.929 1_565 S
C343 C338 1.397 . S
C343 C342 1.376 . S
C344 C328 1.509 . S
C344 C345 1.391 . S
C344 C349 1.386 . S
C345 H306 0.930 . S
C345 C344 1.391 . S
C345 C346 1.375 . S
C346 H307 0.931 . S
C346 C345 1.375 . S
C346 C347 1.375 . S
C347 C346 1.375 . S
C347 C348 1.361 . S
C348 H308 0.930 . S
C348 C347 1.361 . S
C348 C349 1.399 . S
C349 H309 0.929 . S
C349 C344 1.386 . S
C349 C348 1.399 . S
C350 C329 1.485 1_554 S
C350 C351 1.394 . S
C350 C355 1.360 . S
C351 H310 0.931 . S
C351 C350 1.394 . S
C351 C352 1.372 . S
C352 H311 0.930 . S
C352 C351 1.372 . S
C352 C353 1.397 . S
C353 C352 1.397 . S
C353 C354 1.390 . S
C353 C369 1.476 . S
C354 H312 0.930 . S
C354 C353 1.390 . S
C354 C355 1.366 . S
C355 H313 0.932 . S
C355 C350 1.360 . S
C355 C354 1.366 . S
C356 C330 1.490 . S
C356 C357 1.380 1_565 S
C356 C361 1.386 . S
C357 H314 0.930 . S
C357 C356 1.380 1_545 S
C357 C358 1.381 . S
C358 H315 0.929 . S
C358 C357 1.381 . S
C358 C359 1.371 . S
C359 C358 1.371 . S
C359 C360 1.380 1_545 S
C360 H316 0.931 . S
C360 C359 1.380 1_565 S
C360 C361 1.387 . S
C361 H317 0.930 . S
C361 C356 1.386 . S
C361 C360 1.387 . S
C362 C331 1.519 1_554 S
C362 C363 1.376 1_554 S
C362 C367 1.361 . S
C363 H318 0.946 . S
C363 C362 1.376 1_556 S
C363 C364 1.372 1_556 S
C364 H319 0.931 . S
C364 C363 1.372 1_554 S
C364 C365 1.363 . S
C365 C364 1.363 . S
C365 C366 1.385 . S
C366 H320 0.930 . S
C366 C365 1.385 . S
C366 C367 1.396 . S
C367 H321 0.929 . S
C367 C362 1.361 . S
C367 C366 1.396 . S
C368 O322 1.300 . S
C368 O323 1.209 . S
C368 C341 1.486 . S
C369 O324 1.199 . S
C369 O325 1.297 . S
C369 C353 1.476 . S
H370 O396 0.856 . S
H371 O399 0.854 . S
H372 C407 0.930 . S
H373 C408 0.930 . S
H374 C410 0.930 . S
H375 C411 0.930 . S
H376 C413 0.931 . S
H377 C414 0.930 . S
H378 C416 0.930 . S
H379 C417 0.929 . S
H380 C419 0.930 . S
H381 C420 0.931 . S
H382 C422 0.930 . S
H383 C423 0.929 . S
H384 C425 0.931 . S
H385 C426 0.930 . S
H386 C428 0.930 . S
H387 C429 0.932 . S
H388 C431 0.930 . S
H389 C432 0.929 . S
H390 C434 0.931 . S
H391 C435 0.930 . S
H392 C437 0.929 . S
H393 C438 0.931 . S
H394 C440 0.930 . S
H395 C441 0.929 . S
O396 H370 0.856 . S
O396 C442 1.300 . S
O397 C442 1.209 . S
O398 C443 1.199 . S
O399 H371 0.854 . S
O399 C443 1.297 . S
C400 C401 1.404 . S
C400 C405 1.397 . S
C400 C406 1.492 . S
C401 C400 1.404 . S
C401 C402 1.396 . S
C401 C412 1.492 . S
C402 C401 1.396 . S
C402 C403 1.397 . S
C402 C418 1.509 . S
C403 C402 1.397 . S
C403 C404 1.412 . S
C403 C424 1.485 . S
C404 C403 1.412 . S
C404 C405 1.388 . S
C404 C430 1.490 . S
C405 C400 1.397 . S
C405 C404 1.388 . S
C405 C436 1.519 . S
C406 C400 1.492 . S
C406 C407 1.363 . S
C406 C411 1.390 . S
C407 H372 0.930 . S
C407 C406 1.363 . S
C407 C408 1.372 . S
C408 H373 0.930 . S
C408 C407 1.372 . S
C408 C409 1.383 . S
C409 C408 1.383 . S
C409 C410 1.395 . S
C410 H374 0.930 . S
C410 C409 1.395 . S
C410 C411 1.362 . S
C411 H375 0.930 . S
C411 C406 1.390 . S
C411 C410 1.362 . S
C412 C401 1.492 . S
C412 C413 1.377 . S
C412 C417 1.397 . S
C413 H376 0.931 . S
C413 C412 1.377 . S
C413 C414 1.376 . S
C414 H377 0.930 . S
C414 C413 1.376 . S
C414 C415 1.376 . S
C415 C414 1.376 . S
C415 C416 1.378 . S
C415 C442 1.486 1_554 S
C416 H378 0.930 . S
C416 C415 1.378 . S
C416 C417 1.376 . S
C417 H379 0.929 . S
C417 C412 1.397 . S
C417 C416 1.376 . S
C418 C402 1.509 . S
C418 C419 1.391 . S
C418 C423 1.386 . S
C419 H380 0.930 . S
C419 C418 1.391 . S
C419 C420 1.375 . S
C420 H381 0.931 . S
C420 C419 1.375 . S
C420 C421 1.375 . S
C421 C420 1.375 . S
C421 C422 1.361 . S
C422 H382 0.930 . S
C422 C421 1.361 . S
C422 C423 1.399 . S
C423 H383 0.929 . S
C423 C418 1.386 . S
C423 C422 1.399 . S
C424 C403 1.485 . S
C424 C425 1.394 . S
C424 C429 1.360 . S
C425 H384 0.931 . S
C425 C424 1.394 . S
C425 C426 1.372 . S
C426 H385 0.930 . S
C426 C425 1.372 . S
C426 C427 1.397 . S
C427 C426 1.397 . S
C427 C428 1.390 . S
C427 C443 1.476 . S
C428 H386 0.930 . S
C428 C427 1.390 . S
C428 C429 1.366 . S
C429 H387 0.932 . S
C429 C424 1.360 . S
C429 C428 1.366 . S
C430 C404 1.490 . S
C430 C431 1.380 . S
C430 C435 1.386 . S
C431 H388 0.930 . S
C431 C430 1.380 . S
C431 C432 1.381 . S
C432 H389 0.929 . S
C432 C431 1.381 . S
C432 C433 1.371 . S
C433 C432 1.371 . S
C433 C434 1.380 . S
C434 H390 0.931 . S
C434 C433 1.380 . S
C434 C435 1.387 . S
C435 H391 0.930 . S
C435 C430 1.386 . S
C435 C434 1.387 . S
C436 C405 1.519 . S
C436 C437 1.377 . S
C436 C441 1.361 . S
C437 H392 0.929 . S
C437 C436 1.377 . S
C437 C438 1.386 . S
C438 H393 0.931 . S
C438 C437 1.386 . S
C438 C439 1.363 . S
C439 C438 1.363 . S
C439 C440 1.385 . S
C440 H394 0.930 . S
C440 C439 1.385 . S
C440 C441 1.396 . S
C441 H395 0.929 . S
C441 C436 1.361 . S
C441 C440 1.396 . S
C442 O396 1.300 . S
C442 O397 1.209 . S
C442 C415 1.486 1_556 S
C443 O398 1.199 . S
C443 O399 1.297 . S
C443 C427 1.476 . S
Co444 O445 2.216 . S
Co444 O446 2.091 . S
Co444 O448 2.004 . S
Co444 O454 2.021 . S
Co444 O456 2.137 . S
Co444 O457 2.244 . S
O445 Co444 2.216 . S
O445 C452 1.247 . S
O446 Co444 2.091 . S
O446 C452 1.261 . S
C447 O456 1.247 . S
C447 O457 1.272 . S
O448 Co444 2.004 . S
O448 C453 1.259 . S
Co449 O450 2.061 . S
Co449 O455 2.052 . S
Co449 O457 2.135 . S
O450 Co449 2.061 . S
O450 C453 1.235 . S
C451 O454 1.238 . S
C451 O455 1.241 . S
C452 O445 1.247 . S
C452 O446 1.261 . S
C453 O448 1.259 . S
C453 O450 1.235 . S
O454 Co444 2.021 . S
O454 C451 1.238 . S
O455 Co449 2.052 . S
O455 C451 1.241 . S
O456 Co444 2.137 . S
O456 C447 1.247 . S
O457 Co444 2.244 . S
O457 C447 1.272 . S
O457 Co449 2.135 . S
Co458 O459 2.216 . S
Co458 O460 2.091 . S
Co458 O462 2.004 . S
Co458 O468 2.021 . S
Co458 O470 2.137 . S
Co458 O471 2.244 . S
O459 Co458 2.216 . S
O459 C466 1.247 . S
O460 Co458 2.091 . S
O460 C466 1.261 . S
C461 O470 1.247 . S
C461 O471 1.272 . S
O462 Co458 2.004 . S
O462 C467 1.259 . S
Co463 O464 2.061 . S
Co463 O469 2.052 . S
Co463 O471 2.135 . S
O464 Co463 2.061 . S
O464 C467 1.235 . S
C465 O468 1.238 . S
C465 O469 1.241 . S
C466 O459 1.247 . S
C466 O460 1.261 . S
C467 O462 1.259 . S
C467 O464 1.235 . S
O468 Co458 2.021 . S
O468 C465 1.238 . S
O469 Co463 2.052 . S
O469 C465 1.241 . S
O470 Co458 2.137 . S
O470 C461 1.247 . S
O471 Co458 2.244 . S
O471 C461 1.272 . S
O471 Co463 2.135 . S
Co472 O473 2.216 . S
Co472 O474 2.091 . S
Co472 O476 2.004 . S
Co472 O482 2.021 . S
Co472 O484 2.137 . S
Co472 O485 2.244 . S
O473 Co472 2.216 . S
O473 C480 1.247 . S
O474 Co472 2.091 . S
O474 C480 1.261 . S
C475 O484 1.247 . S
C475 O485 1.272 . S
O476 Co472 2.004 . S
O476 C481 1.259 . S
Co477 O478 2.061 . S
Co477 O483 2.052 . S
Co477 O485 2.135 . S
O478 Co477 2.061 . S
O478 C481 1.235 . S
C479 O482 1.238 . S
C479 O483 1.241 . S
C480 O473 1.247 . S
C480 O474 1.261 . S
C481 O476 1.259 . S
C481 O478 1.235 . S
O482 Co472 2.021 . S
O482 C479 1.238 . S
O483 Co477 2.052 . S
O483 C479 1.241 . S
O484 Co472 2.137 . S
O484 C475 1.247 . S
O485 Co472 2.244 . S
O485 C475 1.272 . S
O485 Co477 2.135 . S
Co486 O487 2.216 . S
Co486 O488 2.091 . S
Co486 O490 2.004 . S
Co486 O496 2.021 . S
Co486 O498 2.137 . S
Co486 O499 2.244 . S
O487 Co486 2.216 . S
O487 C494 1.247 . S
O488 Co486 2.091 . S
O488 C494 1.261 . S
C489 O498 1.247 . S
C489 O499 1.272 . S
O490 Co486 2.004 . S
O490 C495 1.259 . S
Co491 O492 2.061 . S
Co491 O497 2.052 . S
Co491 O499 2.135 . S
O492 Co491 2.061 . S
O492 C495 1.235 . S
C493 O496 1.238 . S
C493 O497 1.241 . S
C494 O487 1.247 . S
C494 O488 1.261 . S
C495 O490 1.259 . S
C495 O492 1.235 . S
O496 Co486 2.021 . S
O496 C493 1.238 . S
O497 Co491 2.052 . S
O497 C493 1.241 . S
O498 Co486 2.137 . S
O498 C489 1.247 . S
O499 Co486 2.244 . S
O499 C489 1.272 . S
O499 Co491 2.135 . S
Co500 O501 2.216 . S
Co500 O502 2.091 . S
Co500 O504 2.004 . S
Co500 O510 2.021 . S
Co500 O512 2.137 . S
Co500 O513 2.244 . S
O501 Co500 2.216 . S
O501 C508 1.247 . S
O502 Co500 2.091 . S
O502 C508 1.261 . S
C503 O512 1.247 . S
C503 O513 1.272 . S
O504 Co500 2.004 . S
O504 C509 1.259 . S
Co505 O506 2.061 . S
Co505 O511 2.052 . S
Co505 O513 2.135 . S
O506 Co505 2.061 . S
O506 C509 1.235 . S
C507 O510 1.238 . S
C507 O511 1.241 . S
C508 O501 1.247 . S
C508 O502 1.261 . S
C509 O504 1.259 . S
C509 O506 1.235 . S
O510 Co500 2.021 . S
O510 C507 1.238 . S
O511 Co505 2.052 . S
O511 C507 1.241 . S
O512 Co500 2.137 . S
O512 C503 1.247 . S
O513 Co500 2.244 . S
O513 C503 1.272 . S
O513 Co505 2.135 . S
Co514 O515 2.216 . S
Co514 O516 2.091 . S
Co514 O518 2.004 . S
Co514 O524 2.021 . S
Co514 O526 2.137 . S
Co514 O527 2.244 . S
O515 Co514 2.216 . S
O515 C522 1.247 . S
O516 Co514 2.091 . S
O516 C522 1.261 . S
C517 O526 1.247 . S
C517 O527 1.272 . S
O518 Co514 2.004 . S
O518 C523 1.259 . S
Co519 O520 2.061 . S
Co519 O525 2.052 . S
Co519 O527 2.135 . S
O520 Co519 2.061 . S
O520 C523 1.235 . S
C521 O524 1.238 . S
C521 O525 1.241 . S
C522 O515 1.247 . S
C522 O516 1.261 . S
C523 O518 1.259 . S
C523 O520 1.235 . S
O524 Co514 2.021 . S
O524 C521 1.238 . S
O525 Co519 2.052 . S
O525 C521 1.241 . S
O526 Co514 2.137 . S
O526 C517 1.247 . S
O527 Co514 2.244 . S
O527 C517 1.272 . S
O527 Co519 2.135 . S
C528 C529 1.369 . S
C528 C530 1.419 . S
C528 H532 0.930 . S
C529 C528 1.369 . S
C529 C538 1.429 . S
C530 C528 1.419 . S
C530 C531 1.363 . S
C530 H533 0.929 . S
C531 C530 1.363 . S
C531 C537 1.428 . S
H532 C528 0.930 . S
H533 C530 0.929 . S
S534 N535 1.613 . S
S534 N536 1.610 . S
N535 S534 1.613 . S
N535 C538 1.350 . S
N536 S534 1.610 . S
N536 C537 1.351 . S
C537 C531 1.428 . S
C537 N536 1.351 . S
C537 C538 1.434 . S
C538 C529 1.429 . S
C538 N535 1.350 . S
C538 C537 1.434 . S
C539 C540 1.369 . S
C539 C541 1.419 . S
C539 H543 0.930 . S
C540 C539 1.369 . S
C540 C549 1.429 . S
C541 C539 1.419 . S
C541 C542 1.363 . S
C541 H544 0.929 . S
C542 C541 1.363 . S
C542 C548 1.428 . S
H543 C539 0.930 . S
H544 C541 0.929 . S
S545 N546 1.613 . S
S545 N547 1.610 . S
N546 S545 1.613 . S
N546 C549 1.350 . S
N547 S545 1.610 . S
N547 C548 1.351 . S
C548 C542 1.428 . S
C548 N547 1.351 . S
C548 C549 1.434 . S
C549 C540 1.429 . S
C549 N546 1.350 . S
C549 C548 1.434 . S
C550 C551 1.369 . S
C550 C552 1.419 . S
C550 H554 0.930 . S
C551 C550 1.369 . S
C551 C560 1.429 . S
C552 C550 1.419 . S
C552 C553 1.363 . S
C552 H555 0.929 . S
C553 C552 1.363 . S
C553 C559 1.428 . S
H554 C550 0.930 . S
H555 C552 0.929 . S
S556 N557 1.613 . S
S556 N558 1.610 . S
N557 S556 1.613 . S
N557 C560 1.350 . S
N558 S556 1.610 . S
N558 C559 1.351 . S
C559 C553 1.428 . S
C559 N558 1.351 . S
C559 C560 1.434 . S
C560 C551 1.429 . S
C560 N557 1.350 . S
C560 C559 1.434 . S
C561 C562 1.369 . S
C561 C563 1.419 . S
C561 H565 0.930 . S
C562 C561 1.369 . S
C562 C571 1.429 . S
C563 C561 1.419 . S
C563 C564 1.363 . S
C563 H566 0.929 . S
C564 C563 1.363 . S
C564 C570 1.428 . S
H565 C561 0.930 . S
H566 C563 0.929 . S
S567 N568 1.613 . S
S567 N569 1.610 . S
N568 S567 1.613 . S
N568 C571 1.350 . S
N569 S567 1.610 . S
N569 C570 1.351 . S
C570 C564 1.428 . S
C570 N569 1.351 . S
C570 C571 1.434 . S
C571 C562 1.429 . S
C571 N568 1.350 . S
C571 C570 1.434 . S
C572 C573 1.369 . S
C572 C574 1.419 . S
C572 H576 0.930 . S
C573 C572 1.369 . S
C573 C582 1.429 . S
C574 C572 1.419 . S
C574 C575 1.363 . S
C574 H577 0.929 . S
C575 C574 1.363 . S
C575 C581 1.428 . S
H576 C572 0.930 . S
H577 C574 0.929 . S
S578 N579 1.613 . S
S578 N580 1.610 . S
N579 S578 1.613 . S
N579 C582 1.350 . S
N580 S578 1.610 . S
N580 C581 1.351 . S
C581 C575 1.428 . S
C581 N580 1.351 . S
C581 C582 1.434 . S
C582 C573 1.429 . S
C582 N579 1.350 . S
C582 C581 1.434 . S
C583 C584 1.369 . S
C583 C585 1.419 . S
C583 H587 0.930 . S
C584 C583 1.369 . S
C584 C593 1.429 . S
C585 C583 1.419 . S
C585 C586 1.363 . S
C585 H588 0.929 . S
C586 C585 1.363 . S
C586 C592 1.428 . S
H587 C583 0.930 . S
H588 C585 0.929 . S
S589 N590 1.613 . S
S589 N591 1.610 . S
N590 S589 1.613 . S
N590 C593 1.350 . S
N591 S589 1.610 . S
N591 C592 1.351 . S
C592 C586 1.428 . S
C592 N591 1.351 . S
C592 C593 1.434 . S
C593 C584 1.429 . S
C593 N590 1.350 . S
C593 C592 1.434 . S
C594 C595 1.369 . S
C594 C596 1.419 . S
C594 H598 0.930 . S
C595 C594 1.369 . S
C595 C604 1.429 . S
C596 C594 1.419 . S
C596 C597 1.363 . S
C596 H599 0.929 . S
C597 C596 1.363 . S
C597 C603 1.428 . S
H598 C594 0.930 . S
H599 C596 0.929 . S
S600 N601 1.613 . S
S600 N602 1.610 . S
N601 S600 1.613 . S
N601 C604 1.350 . S
N602 S600 1.610 . S
N602 C603 1.351 . S
C603 C597 1.428 . S
C603 N602 1.351 . S
C603 C604 1.434 . S
C604 C595 1.429 . S
C604 N601 1.350 . S
C604 C603 1.434 . S
C605 C606 1.369 . S
C605 C607 1.419 . S
C605 H609 0.930 . S
C606 C605 1.369 . S
C606 C615 1.429 . S
C607 C605 1.419 . S
C607 C608 1.363 . S
C607 H610 0.929 . S
C608 C607 1.363 . S
C608 C614 1.428 . S
H609 C605 0.930 . S
H610 C607 0.929 . S
S611 N612 1.613 . S
S611 N613 1.610 . S
N612 S611 1.613 . S
N612 C615 1.350 . S
N613 S611 1.610 . S
N613 C614 1.351 . S
C614 C608 1.428 . S
C614 N613 1.351 . S
C614 C615 1.434 . S
C615 C606 1.429 . S
C615 N612 1.350 . S
C615 C614 1.434 . S
C616 C617 1.369 . S
C616 C618 1.419 . S
C616 H620 0.930 . S
C617 C616 1.369 . S
C617 C626 1.429 . S
C618 C616 1.419 . S
C618 C619 1.363 . S
C618 H621 0.929 . S
C619 C618 1.363 . S
C619 C625 1.428 . S
H620 C616 0.930 . S
H621 C618 0.929 . S
S622 N623 1.613 . S
S622 N624 1.610 . S
N623 S622 1.613 . S
N623 C626 1.350 . S
N624 S622 1.610 . S
N624 C625 1.351 . S
C625 C619 1.428 . S
C625 N624 1.351 . S
C625 C626 1.434 . S
C626 C617 1.429 . S
C626 N623 1.350 . S
C626 C625 1.434 . S
C627 C628 1.369 . S
C627 C629 1.419 . S
C627 H631 0.930 1_554 S
C628 C627 1.369 . S
C628 C637 1.429 . S
C629 C627 1.419 . S
C629 C630 1.363 . S
C629 H632 0.953 . S
C630 C629 1.363 . S
C630 C636 1.428 . S
H631 C627 0.930 1_556 S
H632 C629 0.953 . S
S633 N634 1.613 . S
S633 N635 1.610 . S
N634 S633 1.613 . S
N634 C637 1.350 . S
N635 S633 1.610 . S
N635 C636 1.351 . S
C636 C630 1.428 . S
C636 N635 1.351 . S
C636 C637 1.434 . S
C637 C628 1.429 . S
C637 N634 1.350 . S
C637 C636 1.434 . S
C638 C639 1.369 . S
C638 C640 1.419 . S
C638 H642 0.930 . S
C639 C638 1.369 . S
C639 C648 1.429 . S
C640 C638 1.419 . S
C640 C641 1.363 . S
C640 H643 0.929 . S
C641 C640 1.363 . S
C641 C647 1.428 . S
H642 C638 0.930 . S
H643 C640 0.929 . S
S644 N645 1.613 . S
S644 N646 1.610 . S
N645 S644 1.613 . S
N645 C648 1.350 . S
N646 S644 1.610 . S
N646 C647 1.351 . S
C647 C641 1.428 . S
C647 N646 1.351 . S
C647 C648 1.434 . S
C648 C639 1.429 . S
C648 N645 1.350 . S
C648 C647 1.434 . S
C649 C650 1.369 . S
C649 C651 1.419 . S
C649 H653 0.930 . S
C650 C649 1.369 . S
C650 C659 1.429 . S
C651 C649 1.419 . S
C651 C652 1.363 . S
C651 H654 0.929 . S
C652 C651 1.363 . S
C652 C658 1.428 . S
H653 C649 0.930 . S
H654 C651 0.929 . S
S655 N656 1.613 . S
S655 N657 1.610 . S
N656 S655 1.613 . S
N656 C659 1.350 . S
N657 S655 1.610 . S
N657 C658 1.351 . S
C658 C652 1.428 . S
C658 N657 1.351 . S
C658 C659 1.434 . S
C659 C650 1.429 . S
C659 N656 1.350 . S
C659 C658 1.434 . S
C660 C661 1.369 . S
C660 C662 1.419 . S
C660 H664 0.930 . S
C661 C660 1.369 . S
C661 C670 1.429 . S
C662 C660 1.419 . S
C662 C663 1.363 . S
C662 H665 0.929 . S
C663 C662 1.363 . S
C663 C669 1.428 . S
H664 C660 0.930 . S
H665 C662 0.929 . S
S666 N667 1.613 . S
S666 N668 1.610 . S
N667 S666 1.613 . S
N667 C670 1.350 . S
N668 S666 1.610 . S
N668 C669 1.351 . S
C669 C663 1.428 . S
C669 N668 1.351 . S
C669 C670 1.434 . S
C670 C661 1.429 . S
C670 N667 1.350 . S
C670 C669 1.434 . S
C671 C672 1.369 . S
C671 C673 1.419 . S
C671 H675 0.930 . S
C672 C671 1.369 . S
C672 C681 1.429 . S
C673 C671 1.419 . S
C673 C674 1.363 . S
C673 H676 0.929 . S
C674 C673 1.363 . S
C674 C680 1.428 . S
H675 C671 0.930 . S
H676 C673 0.929 . S
S677 N678 1.613 . S
S677 N679 1.610 . S
N678 S677 1.613 . S
N678 C681 1.350 . S
N679 S677 1.610 . S
N679 C680 1.351 . S
C680 C674 1.428 . S
C680 N679 1.351 . S
C680 C681 1.434 . S
C681 C672 1.429 . S
C681 N678 1.350 . S
C681 C680 1.434 . S
C682 C683 1.369 . S
C682 C684 1.419 . S
C682 H686 0.930 . S
C683 C682 1.369 . S
C683 C692 1.429 . S
C684 C682 1.419 . S
C684 C685 1.363 . S
C684 H687 0.929 . S
C685 C684 1.363 . S
C685 C691 1.428 . S
H686 C682 0.930 . S
H687 C684 0.929 . S
S688 N689 1.613 . S
S688 N690 1.610 . S
N689 S688 1.613 . S
N689 C692 1.350 . S
N690 S688 1.610 . S
N690 C691 1.351 . S
C691 C685 1.428 . S
C691 N690 1.351 . S
C691 C692 1.434 . S
C692 C683 1.429 . S
C692 N689 1.350 . S
C692 C691 1.434 . S
C693 C694 1.369 . S
C693 C695 1.419 . S
C693 H697 0.930 . S
C694 C693 1.369 . S
C694 C703 1.429 . S
C695 C693 1.419 . S
C695 C696 1.363 . S
C695 H698 0.929 . S
C696 C695 1.363 . S
C696 C702 1.428 . S
H697 C693 0.930 . S
H698 C695 0.929 . S
S699 N700 1.613 . S
S699 N701 1.610 . S
N700 S699 1.613 . S
N700 C703 1.350 . S
N701 S699 1.610 . S
N701 C702 1.351 . S
C702 C696 1.428 . S
C702 N701 1.351 . S
C702 C703 1.434 . S
C703 C694 1.429 . S
C703 N700 1.350 . S
C703 C702 1.434 . S
C704 C705 1.369 . S
C704 C706 1.419 . S
C704 H708 0.930 1_565 S
C705 C704 1.369 . S
C705 C714 1.429 . S
C706 C704 1.419 . S
C706 C707 1.363 . S
C706 H709 0.929 . S
C707 C706 1.363 . S
C707 C713 1.428 . S
H708 C704 0.930 1_545 S
H709 C706 0.929 . S
S710 N711 1.613 . S
S710 N712 1.610 . S
N711 S710 1.613 . S
N711 C714 1.350 . S
N712 S710 1.610 . S
N712 C713 1.351 . S
C713 C707 1.428 . S
C713 N712 1.351 . S
C713 C714 1.434 . S
C714 C705 1.429 . S
C714 N711 1.350 . S
C714 C713 1.434 . S
C715 C716 1.369 . S
C715 C717 1.419 . S
C715 H719 0.930 . S
C716 C715 1.369 . S
C716 C725 1.429 . S
C717 C715 1.419 . S
C717 C718 1.363 . S
C717 H720 0.929 . S
C718 C717 1.363 . S
C718 C724 1.428 . S
H719 C715 0.930 . S
H720 C717 0.929 . S
S721 N722 1.613 . S
S721 N723 1.610 . S
N722 S721 1.613 . S
N722 C725 1.350 . S
N723 S721 1.610 . S
N723 C724 1.351 . S
C724 C718 1.428 . S
C724 N723 1.351 . S
C724 C725 1.434 . S
C725 C716 1.429 . S
C725 N722 1.350 . S
C725 C724 1.434 . S
C726 C727 1.369 . S
C726 C728 1.419 . S
C726 H730 0.930 . S
C727 C726 1.369 . S
C727 C736 1.429 . S
C728 C726 1.419 . S
C728 C729 1.363 . S
C728 H731 0.929 . S
C729 C728 1.363 . S
C729 C735 1.428 . S
H730 C726 0.930 . S
H731 C728 0.929 . S
S732 N733 1.613 . S
S732 N734 1.610 . S
N733 S732 1.613 . S
N733 C736 1.350 . S
N734 S732 1.610 . S
N734 C735 1.351 . S
C735 C729 1.428 . S
C735 N734 1.351 . S
C735 C736 1.434 . S
C736 C727 1.429 . S
C736 N733 1.350 . S
C736 C735 1.434 . S
C737 C738 1.369 . S
C737 C739 1.419 . S
C737 H741 0.930 . S
C738 C737 1.369 . S
C738 C747 1.429 . S
C739 C737 1.419 . S
C739 C740 1.363 . S
C739 H742 0.929 . S
C740 C739 1.363 . S
C740 C746 1.428 . S
H741 C737 0.930 . S
H742 C739 0.929 . S
S743 N744 1.613 . S
S743 N745 1.610 . S
N744 S743 1.613 . S
N744 C747 1.350 . S
N745 S743 1.610 . S
N745 C746 1.351 . S
C746 C740 1.428 . S
C746 N745 1.351 . S
C746 C747 1.434 . S
C747 C738 1.429 . S
C747 N744 1.350 . S
C747 C746 1.434 . S
C748 C749 1.369 . S
C748 C750 1.419 . S
C748 H752 0.930 . S
C749 C748 1.369 . S
C749 C758 1.429 . S
C750 C748 1.419 . S
C750 C751 1.363 . S
C750 H753 0.929 . S
C751 C750 1.363 . S
C751 C757 1.428 . S
H752 C748 0.930 . S
H753 C750 0.929 . S
S754 N755 1.613 . S
S754 N756 1.610 . S
N755 S754 1.613 . S
N755 C758 1.350 . S
N756 S754 1.610 . S
N756 C757 1.351 . S
C757 C751 1.428 . S
C757 N756 1.351 . S
C757 C758 1.434 . S
C758 C749 1.429 . S
C758 N755 1.350 . S
C758 C757 1.434 . S
C759 C760 1.369 . S
C759 C761 1.419 . S
C759 H763 0.930 . S
C760 C759 1.369 . S
C760 C769 1.429 . S
C761 C759 1.419 . S
C761 C762 1.363 . S
C761 H764 0.929 . S
C762 C761 1.363 . S
C762 C768 1.428 . S
H763 C759 0.930 . S
H764 C761 0.929 . S
S765 N766 1.613 . S
S765 N767 1.610 . S
N766 S765 1.613 . S
N766 C769 1.350 . S
N767 S765 1.610 . S
N767 C768 1.351 . S
C768 C762 1.428 . S
C768 N767 1.351 . S
C768 C769 1.434 . S
C769 C760 1.429 . S
C769 N766 1.350 . S
C769 C768 1.434 . S
C770 C771 1.369 . S
C770 C772 1.419 1_554 S
C770 H774 0.930 . S
C771 C770 1.369 . S
C771 C780 1.429 . S
C772 C770 1.419 1_556 S
C772 C773 1.363 . S
C772 H775 0.929 . S
C773 C772 1.363 . S
C773 C779 1.428 . S
H774 C770 0.930 . S
H775 C772 0.929 . S
S776 N777 1.613 1_556 S
S776 N778 1.610 . S
N777 S776 1.613 1_554 S
N777 C780 1.350 . S
N778 S776 1.610 . S
N778 C779 1.351 . S
C779 C773 1.428 . S
C779 N778 1.351 . S
C779 C780 1.434 1_556 S
C780 C771 1.429 . S
C780 N777 1.350 . S
C780 C779 1.434 1_554 S
C781 C782 1.369 . S
C781 C783 1.419 . S
C781 H785 0.930 . S
C782 C781 1.369 . S
C782 C791 1.429 . S
C783 C781 1.419 . S
C783 C784 1.363 . S
C783 H786 0.929 . S
C784 C783 1.363 . S
C784 C790 1.428 . S
H785 C781 0.930 . S
H786 C783 0.929 . S
S787 N788 1.613 . S
S787 N789 1.610 . S
N788 S787 1.613 . S
N788 C791 1.350 . S
N789 S787 1.610 . S
N789 C790 1.351 . S
C790 C784 1.428 . S
C790 N789 1.351 . S
C790 C791 1.434 . S
C791 C782 1.429 . S
C791 N788 1.350 . S
C791 C790 1.434 . S
C531 C517 1.236 . S
C529 C51 1.208 . S
C540 C125 1.758 . S
C542 C447 1.786 . S
C551 C217 2.244 . S
C553 C466 2.239 . S
C562 C291 1.987 . S
C564 C475 2.036 . S
C575 C489 0.821 . S
C573 C347 0.822 . S
C584 C421 1.270 . S
C586 C508 1.299 . S
C595 C143 2.476 . S
C597 C461 2.513 . S
C606 C199 1.248 . S
C608 C480 1.253 . S
C617 C273 1.124 . S
C619 C494 1.157 . S
C630 C503 1.342 . S
C628 C365 1.335 . S
C641 C522 2.196 . S
C639 C439 2.166 . S
C652 C452 2.031 . S
C650 C69 2.057 . S
C661 C63 1.608 . S
C663 C467 1.729 . S
C672 C137 1.474 . S
C674 C479 1.574 . S
C685 C493 1.556 . S
C683 C187 1.472 . S
C694 C261 1.549 . S
C696 C509 1.678 1_556 S
C707 C521 1.515 . S
C705 C359 1.407 1_565 S
C718 C451 1.471 . S
C716 C433 1.400 . S
C729 C523 1.597 . S
C727 C113 1.569 . S
C738 C211 1.538 . S
C740 C453 1.616 . S
C751 C465 1.706 . S
C749 C285 1.561 . S
C760 C335 1.428 . S
C762 C481 1.453 . S
C771 C409 1.522 . S
C773 C495 1.659 . S
C782 C39 1.736 . S
C784 C507 1.821 . S
