# Generated by pormake.
# Topology zzz, (3,6)-cn, num edge types: 1
# Building blocks:
#     Node 0, Type 0, BuildingBlock: MIDCAF_clean_linker_0, # of connection points: 3
#     Node 1, Type 0, BuildingBlock: MIDCAF_clean_linker_0, # of connection points: 3
#     Node 2, Type 0, BuildingBlock: MIDCAF_clean_linker_0, # of connection points: 3
#     Node 3, Type 0, BuildingBlock: MIDCAF_clean_linker_0, # of connection points: 3
#     Node 4, Type 0, BuildingBlock: MIDCAF_clean_linker_0, # of connection points: 3
#     Node 5, Type 0, BuildingBlock: MIDCAF_clean_linker_0, # of connection points: 3
#     Node 6, Type 0, BuildingBlock: MIDCAF_clean_linker_0, # of connection points: 3
#     Node 7, Type 0, BuildingBlock: MIDCAF_clean_linker_0, # of connection points: 3
#     Node 8, Type 1, BuildingBlock: VOLQOD_clean_sbu_1, # of connection points: 6
#     Node 9, Type 1, BuildingBlock: VOLQOD_clean_sbu_1, # of connection points: 6
#     Node 10, Type 1, BuildingBlock: VOLQOD_clean_sbu_1, # of connection points: 6
#     Node 11, Type 1, BuildingBlock: VOLQOD_clean_sbu_1, # of connection points: 6
#     Edge 12, Type (0, 1), BuildingBlock: AJUNOK_clean_linker_0, # of connection points: 2
#     Edge 13, Type (0, 1), BuildingBlock: AJUNOK_clean_linker_0, # of connection points: 2
#     Edge 14, Type (0, 1), BuildingBlock: AJUNOK_clean_linker_0, # of connection points: 2
#     Edge 15, Type (0, 1), BuildingBlock: AJUNOK_clean_linker_0, # of connection points: 2
#     Edge 16, Type (0, 1), BuildingBlock: AJUNOK_clean_linker_0, # of connection points: 2
#     Edge 17, Type (0, 1), BuildingBlock: AJUNOK_clean_linker_0, # of connection points: 2
#     Edge 18, Type (0, 1), BuildingBlock: AJUNOK_clean_linker_0, # of connection points: 2
#     Edge 19, Type (0, 1), BuildingBlock: AJUNOK_clean_linker_0, # of connection points: 2
#     Edge 20, Type (0, 1), BuildingBlock: AJUNOK_clean_linker_0, # of connection points: 2
#     Edge 21, Type (0, 1), BuildingBlock: AJUNOK_clean_linker_0, # of connection points: 2
#     Edge 22, Type (0, 1), BuildingBlock: AJUNOK_clean_linker_0, # of connection points: 2
#     Edge 23, Type (0, 1), BuildingBlock: AJUNOK_clean_linker_0, # of connection points: 2
#     Edge 24, Type (0, 1), BuildingBlock: AJUNOK_clean_linker_0, # of connection points: 2
#     Edge 25, Type (0, 1), BuildingBlock: AJUNOK_clean_linker_0, # of connection points: 2
#     Edge 26, Type (0, 1), BuildingBlock: AJUNOK_clean_linker_0, # of connection points: 2
#     Edge 27, Type (0, 1), BuildingBlock: AJUNOK_clean_linker_0, # of connection points: 2
#     Edge 28, Type (0, 1), BuildingBlock: AJUNOK_clean_linker_0, # of connection points: 2
#     Edge 29, Type (0, 1), BuildingBlock: AJUNOK_clean_linker_0, # of connection points: 2
#     Edge 30, Type (0, 1), BuildingBlock: AJUNOK_clean_linker_0, # of connection points: 2
#     Edge 31, Type (0, 1), BuildingBlock: AJUNOK_clean_linker_0, # of connection points: 2
#     Edge 32, Type (0, 1), BuildingBlock: AJUNOK_clean_linker_0, # of connection points: 2
#     Edge 33, Type (0, 1), BuildingBlock: AJUNOK_clean_linker_0, # of connection points: 2
#     Edge 34, Type (0, 1), BuildingBlock: AJUNOK_clean_linker_0, # of connection points: 2
#     Edge 35, Type (0, 1), BuildingBlock: AJUNOK_clean_linker_0, # of connection points: 2
# Relax obj value: 0.362
# Max RMSD: 0.259
# Mean RMSD: 0.209
data_MOF--net-zzz--node1-VOLQOD_clean_sbu_1--node2-MIDCAF_clean_linker_0--edge1-AJUNOK_clean_linker_0
_symmetry_space_group_name_H-M    P1
_symmetry_Int_Tables_number       1
_symmetry_cell_setting            triclinic
loop_
_symmetry_equiv_pos_as_xyz
'x, y, z'
_cell_length_a     45.50263
_cell_length_b     44.787442
_cell_length_c     17.94349
_cell_angle_alpha  90.111571
_cell_angle_beta   90.2568
_cell_angle_gamma 92.381434
loop_
_atom_site_label
_atom_site_type_symbol
_atom_site_fract_x
_atom_site_fract_y
_atom_site_fract_z
_atom_type_partial_charge
C0 C 0.8573 0.53658 0.31739 0.0
C1 C 0.84939 0.52594 0.38835 0.0
C2 C 0.82156 0.51139 0.39748 0.0
C3 C 0.80405 0.5038 0.33517 0.0
H4 H 0.72296 0.51087 0.14604 0.0
H5 H 0.67672 0.51547 0.07753 0.0
H6 H 0.70413 0.45009 0.91797 0.0
H7 H 0.74956 0.44475 0.98659 0.0
H8 H 0.81291 0.41475 0.99899 0.0
H9 H 0.85266 0.39551 0.92362 0.0
H10 H 0.91563 0.45095 0.0482 0.0
H11 H 0.87681 0.46819 0.12572 0.0
H12 H 0.84806 0.5348 0.20053 0.0
H13 H 0.87849 0.54789 0.30832 0.0
H14 H 0.81456 0.50357 0.45191 0.0
H15 H 0.78441 0.48962 0.34252 0.0
N16 N 0.77649 0.49288 0.17064 0.0
N17 N 0.7903 0.45916 0.07728 0.0
N18 N 0.82461 0.47601 0.16627 0.0
C19 C 0.76941 0.476 0.10899 0.0
C20 C 0.8179 0.45897 0.10592 0.0
C21 C 0.80429 0.49278 0.19912 0.0
C22 C 0.74021 0.47758 0.07187 0.0
C23 C 0.71902 0.49729 0.09674 0.0
C24 C 0.69264 0.50015 0.05709 0.0
C25 C 0.68697 0.48345 0.9917 0.0
C26 C 0.70778 0.46321 0.9682 0.0
C27 C 0.73396 0.46027 0.00768 0.0
C28 C 0.84158 0.44354 0.06719 0.0
C29 C 0.83537 0.42225 0.01102 0.0
C30 C 0.85812 0.41139 0.9676 0.0
C31 C 0.88731 0.42235 0.97819 0.0
C32 C 0.89355 0.4418 0.03827 0.0
C33 C 0.87106 0.45203 0.08252 0.0
C34 C 0.81407 0.51106 0.26343 0.0
C35 C 0.83982 0.52913 0.25552 0.0
C36 C 0.98292 0.80717 0.37369 0.0
C37 C 0.00198 0.82033 0.42753 0.0
C38 C 0.03117 0.81137 0.43111 0.0
C39 C 0.04198 0.7924 0.37681 0.0
H40 H 0.00876 0.69097 0.18759 0.0
H41 H 0.99649 0.64601 0.1132 0.0
H42 H 0.04056 0.68632 0.92372 0.0
H43 H 0.05237 0.73082 0.99612 0.0
H44 H 0.08085 0.79172 0.99885 0.0
H45 H 0.09129 0.83749 0.9295 0.0
H46 H 0.09964 0.88706 0.1354 0.0
H47 H 0.08878 0.84138 0.20552 0.0
H48 H 0.97933 0.78016 0.27469 0.0
H49 H 0.96025 0.81352 0.37015 0.0
H50 H 0.04638 0.82122 0.47173 0.0
H51 H 0.06529 0.78829 0.37647 0.0
N52 N 0.02895 0.74719 0.21089 0.0
N53 N 0.05911 0.76264 0.11079 0.0
N54 N 0.0564 0.79283 0.21624 0.0
C55 C 0.04035 0.74184 0.14202 0.0
C56 C 0.06727 0.78816 0.14737 0.0
C57 C 0.03746 0.77264 0.24847 0.0
C58 C 0.03172 0.71456 0.09829 0.0
C59 C 0.01568 0.69025 0.12997 0.0
C60 C 0.00878 0.66446 0.08756 0.0
C61 C 0.01767 0.66264 0.01268 0.0
C62 C 0.03319 0.68712 0.98101 0.0
C63 C 0.04015 0.71263 0.02306 0.0
C64 C 0.08288 0.81305 0.1077 0.0
C65 C 0.08587 0.81211 0.02975 0.0
C66 C 0.09206 0.83834 0.98983 0.0
C67 C 0.09547 0.86584 0.02721 0.0
C68 C 0.09648 0.86615 0.10538 0.0
C69 C 0.09019 0.83996 0.14538 0.0
C70 C 0.02371 0.78157 0.31874 0.0
C71 C 0.99371 0.78777 0.31974 0.0
C72 C 0.70799 0.97527 0.34326 0.0
C73 C 0.69558 0.99513 0.3939 0.0
C74 C 0.70292 0.0258 0.38817 0.0
C75 C 0.72014 0.03667 0.32915 0.0
H76 H 0.81924 0.0028 0.1505 0.0
H77 H 0.86469 0.9931 0.08304 0.0
H78 H 0.82739 0.02918 0.88268 0.0
H79 H 0.78256 0.03914 0.94891 0.0
H80 H 0.71958 0.05968 0.94386 0.0
H81 H 0.67471 0.0694 0.87601 0.0
H82 H 0.63262 0.09348 0.08147 0.0
H83 H 0.67734 0.08273 0.15028 0.0
H84 H 0.73323 0.97065 0.24324 0.0
H85 H 0.70248 0.95154 0.34627 0.0
H86 H 0.69328 0.04167 0.42556 0.0
H87 H 0.72334 0.06062 0.32233 0.0
N88 N 0.76452 0.02063 0.16695 0.0
N89 N 0.7503 0.04716 0.06061 0.0
N90 N 0.72048 0.04631 0.16607 0.0
C91 C 0.77018 0.03021 0.09601 0.0
C92 C 0.72546 0.05536 0.09518 0.0
C93 C 0.73971 0.02907 0.20228 0.0
C94 C 0.79723 0.02205 0.05561 0.0
C95 C 0.82065 0.0084 0.09191 0.0
C96 C 0.84662 0.00269 0.05324 0.0
C97 C 0.84958 0.01046 0.97761 0.0
C98 C 0.82587 0.02324 0.94109 0.0
C99 C 0.80011 0.02894 0.97938 0.0
C100 C 0.70175 0.06949 0.05279 0.0
C101 C 0.70111 0.06785 0.97458 0.0
C102 C 0.67537 0.07362 0.93548 0.0
C103 C 0.64989 0.0814 0.97375 0.0
C104 C 0.65169 0.08668 0.05084 0.0
C105 C 0.67734 0.08057 0.09015 0.0
C106 C 0.73081 0.01705 0.27552 0.0
C107 C 0.72577 0.98615 0.28484 0.0
C108 C 0.45136 0.63011 0.10715 0.0
C109 C 0.45283 0.62934 0.02908 0.0
C110 C 0.45907 0.65602 0.99016 0.0
C111 C 0.46695 0.68227 0.02874 0.0
H112 H 0.52461 0.75532 0.99607 0.0
H113 H 0.53393 0.79976 0.91984 0.0
H114 H 0.53079 0.85524 0.11615 0.0
H115 H 0.52194 0.81049 0.19342 0.0
H116 H 0.56767 0.72048 0.29612 0.0
H117 H 0.58474 0.68844 0.39694 0.0
H118 H 0.4955 0.67621 0.47505 0.0
H119 H 0.47858 0.70775 0.37431 0.0
H120 H 0.45985 0.65565 0.20614 0.0
H121 H 0.44609 0.60991 0.13832 0.0
H122 H 0.46036 0.65603 0.92988 0.0
H123 H 0.47372 0.70187 0.99692 0.0
N124 N 0.49447 0.73184 0.10957 0.0
N125 N 0.52062 0.74898 0.21592 0.0
N126 N 0.4925 0.70377 0.21892 0.0
C127 C 0.51218 0.75296 0.14368 0.0
C128 C 0.51047 0.72433 0.25377 0.0
C129 C 0.48439 0.70724 0.14692 0.0
C130 C 0.52229 0.77952 0.10059 0.0
C131 C 0.52646 0.77694 0.02327 0.0
C132 C 0.53198 0.8023 0.97966 0.0
C133 C 0.53291 0.83079 0.01222 0.0
C134 C 0.53011 0.83341 0.08996 0.0
C135 C 0.52515 0.80789 0.13402 0.0
C136 C 0.52184 0.71649 0.32775 0.0
C137 C 0.55202 0.7122 0.33727 0.0
C138 C 0.56172 0.69364 0.39437 0.0
C139 C 0.54134 0.67951 0.4429 0.0
C140 C 0.51169 0.68686 0.4386 0.0
C141 C 0.50199 0.70498 0.38108 0.0
C142 C 0.46879 0.68225 0.10698 0.0
C143 C 0.45931 0.65633 0.14582 0.0
C144 C 0.19941 0.54453 0.96812 0.0
C145 C 0.1952 0.51341 0.9616 0.0
C146 C 0.2103 0.49489 0.01061 0.0
C147 C 0.2276 0.5074 0.06858 0.0
H148 H 0.31198 0.51321 0.21148 0.0
H149 H 0.35499 0.49753 0.28141 0.0
H150 H 0.33232 0.55511 0.4636 0.0
H151 H 0.28937 0.57042 0.39528 0.0
H152 H 0.22407 0.58961 0.40546 0.0
H153 H 0.17974 0.59966 0.47378 0.0
H154 H 0.13476 0.61791 0.26748 0.0
H155 H 0.17907 0.60711 0.19834 0.0
H156 H 0.21725 0.58102 0.03346 0.0
H157 H 0.18792 0.55932 0.93135 0.0
H158 H 0.20751 0.47081 0.00637 0.0
H159 H 0.23739 0.49272 0.10875 0.0
N160 N 0.2639 0.54222 0.1867 0.0
N161 N 0.25222 0.57179 0.29 0.0
N162 N 0.2217 0.57068 0.18505 0.0
C163 C 0.2707 0.55288 0.25628 0.0
C164 C 0.22769 0.58083 0.2548 0.0
C165 C 0.23953 0.55152 0.15059 0.0
C166 C 0.29711 0.54317 0.29739 0.0
C167 C 0.31616 0.52255 0.2664 0.0
C168 C 0.34088 0.51366 0.30628 0.0
C169 C 0.3471 0.52523 0.37784 0.0
C170 C 0.328 0.54563 0.40885 0.0
C171 C 0.30339 0.55451 0.36924 0.0
C172 C 0.20485 0.59657 0.29625 0.0
C173 C 0.20516 0.59688 0.37457 0.0
C174 C 0.1797 0.60297 0.41401 0.0
C175 C 0.1536 0.60925 0.3759 0.0
C176 C 0.15448 0.61281 0.29819 0.0
C177 C 0.17987 0.6065 0.25866 0.0
C178 C 0.22955 0.53852 0.0788 0.0
C179 C 0.21619 0.55695 0.02651 0.0
C180 C 0.11189 0.17292 0.99751 0.0
C181 C 0.0959 0.17786 0.93185 0.0
C182 C 0.0821 0.20528 0.9235 0.0
C183 C 0.08085 0.2253 0.98344 0.0
H184 H 0.06091 0.31937 0.14961 0.0
H185 H 0.05802 0.36711 0.21725 0.0
H186 H 0.08515 0.32402 0.41966 0.0
H187 H 0.08753 0.27667 0.35288 0.0
H188 H 0.00303 0.22316 0.31549 0.0
H189 H 0.9758 0.18453 0.38639 0.0
H190 H 0.03203 0.11788 0.29671 0.0
H191 H 0.05771 0.15588 0.223 0.0
H192 H 0.12036 0.18682 0.10987 0.0
H193 H 0.12239 0.15197 0.00659 0.0
H194 H 0.06983 0.20985 0.87322 0.0
H195 H 0.06702 0.24433 0.97876 0.0
N196 N 0.08313 0.25729 0.14668 0.0
N197 N 0.05351 0.24378 0.24993 0.0
N198 N 0.06363 0.20812 0.15986 0.0
C199 C 0.07006 0.26468 0.21226 0.0
C200 C 0.05002 0.21554 0.2235 0.0
C201 C 0.08004 0.22861 0.12115 0.0
C202 C 0.07438 0.29451 0.2463 0.0
C203 C 0.06701 0.32047 0.208 0.0
C204 C 0.06516 0.34759 0.24672 0.0
C205 C 0.07116 0.34907 0.32373 0.0
C206 C 0.08053 0.32351 0.36037 0.0
C207 C 0.08183 0.29646 0.32221 0.0
C208 C 0.03268 0.19253 0.26459 0.0
C209 C 0.00929 0.20017 0.31071 0.0
C210 C 0.99378 0.17808 0.35132 0.0
C211 C 0.00202 0.14817 0.34811 0.0
C212 C 0.0248 0.14058 0.29986 0.0
C213 C 0.03976 0.16245 0.25812 0.0
C214 C 0.09354 0.2182 0.05212 0.0
C215 C 0.11078 0.19298 0.05695 0.0
C216 C 0.35866 0.01097 0.02643 0.0
C217 C 0.34765 0.00661 0.95384 0.0
C218 C 0.31814 0.99626 0.94462 0.0
C219 C 0.30117 0.9874 0.00662 0.0
H220 H 0.22412 0.00258 0.19965 0.0
H221 H 0.18046 0.01418 0.27268 0.0
H222 H 0.20061 0.94496 0.42937 0.0
H223 H 0.24363 0.9333 0.358 0.0
H224 H 0.31481 0.92704 0.38193 0.0
H225 H 0.35852 0.9121 0.44723 0.0
H226 H 0.39693 0.88604 0.23826 0.0
H227 H 0.3537 0.90317 0.17215 0.0
H228 H 0.35182 0.00351 0.14278 0.0
H229 H 0.38123 0.01879 0.03575 0.0
H230 H 0.30882 0.99326 0.88935 0.0
H231 H 0.27947 0.97709 0.99794 0.0
N232 N 0.27433 0.9763 0.1711 0.0
N233 N 0.28351 0.94058 0.26353 0.0
N234 N 0.31842 0.95065 0.17133 0.0
C235 C 0.26541 0.96077 0.23319 0.0
C236 C 0.3098 0.93515 0.23246 0.0
C237 C 0.301 0.97108 0.14021 0.0
C238 C 0.23763 0.96709 0.27276 0.0
C239 C 0.21909 0.98969 0.2493 0.0
C240 C 0.19409 0.99631 0.29098 0.0
C241 C 0.18731 0.98054 0.3569 0.0
C242 C 0.20549 0.9577 0.37934 0.0
C243 C 0.23018 0.95099 0.33787 0.0
C244 C 0.3313 0.9171 0.27189 0.0
C245 C 0.33218 0.91731 0.35002 0.0
C246 C 0.3573 0.90857 0.38754 0.0
C247 C 0.38175 0.89894 0.34765 0.0
C248 C 0.379 0.89463 0.27026 0.0
C249 C 0.35417 0.90416 0.23248 0.0
C250 C 0.31351 0.989 0.07835 0.0
C251 C 0.34181 0.00217 0.08787 0.0
C252 C 0.56708 0.35177 0.25859 0.0
C253 C 0.56488 0.35222 0.33664 0.0
C254 C 0.55538 0.32595 0.37385 0.0
C255 C 0.54528 0.30085 0.33354 0.0
H256 H 0.45362 0.19647 0.22707 0.0
H257 H 0.44992 0.14966 0.29887 0.0
H258 H 0.54452 0.15059 0.31799 0.0
H259 H 0.54819 0.19714 0.24776 0.0
H260 H 0.4823 0.24892 0.97984 0.0
H261 H 0.47081 0.28054 0.87284 0.0
H262 H 0.4484 0.3513 0.0237 0.0
H263 H 0.45841 0.3194 0.12892 0.0
H264 H 0.55609 0.32801 0.15796 0.0
H265 H 0.57529 0.37131 0.22852 0.0
H266 H 0.55345 0.32555 0.43399 0.0
H267 H 0.53596 0.28176 0.36353 0.0
N268 N 0.52314 0.25078 0.23706 0.0
N269 N 0.48661 0.2406 0.14562 0.0
N270 N 0.50885 0.2887 0.15756 0.0
C271 C 0.50385 0.23113 0.20284 0.0
C272 C 0.48925 0.26966 0.12314 0.0
C273 C 0.52589 0.27951 0.21411 0.0
C274 C 0.50118 0.20036 0.23209 0.0
C275 C 0.47356 0.18619 0.24515 0.0
C276 C 0.47144 0.15967 0.28673 0.0
C277 C 0.49696 0.14678 0.31445 0.0
C278 C 0.52455 0.16005 0.29723 0.0
C279 C 0.52662 0.18667 0.2571 0.0
C280 C 0.47163 0.28197 0.0623 0.0
C281 C 0.47339 0.27062 0.98964 0.0
C282 C 0.46731 0.28897 0.92856 0.0
C283 C 0.45991 0.31893 0.93977 0.0
C284 C 0.45427 0.32852 0.01268 0.0
C285 C 0.46005 0.31022 0.07322 0.0
C286 C 0.54412 0.30185 0.2555 0.0
C287 C 0.55633 0.32694 0.21828 0.0
O288 O 0.09282 0.00233 0.62285 0.0
Zn289 Zn 0.06625 0.00694 0.71241 0.0
O290 O 0.02441 0.0007 0.68386 0.0
Zn291 Zn 0.00314 0.03542 0.71303 0.0
Zn292 Zn 0.0211 0.99486 0.57604 0.0
Zn293 Zn 0.00595 0.96617 0.73403 0.0
O294 O 0.96861 0.02528 0.77869 0.0
O295 O 0.96858 0.97606 0.78985 0.0
O296 O 0.07446 0.04872 0.75584 0.0
O297 O 0.02956 0.06572 0.76443 0.0
O298 O 0.98891 0.05663 0.62364 0.0
O299 O 0.99983 0.02836 0.52704 0.0
O300 O 0.00264 0.95431 0.55085 0.0
O301 O 0.07708 0.97663 0.791 0.0
O302 O 0.99728 0.9322 0.66088 0.0
O303 O 0.03426 0.95177 0.80964 0.0
C304 C 0.08763 0.99817 0.55357 0.0
C305 C 0.9572 0.00097 0.80408 0.0
C306 C 0.98911 0.05191 0.55384 0.0
C307 C 0.05718 0.06911 0.77475 0.0
C308 C 0.99597 0.93128 0.58987 0.0
C309 C 0.06129 0.957 0.82551 0.0
O310 O 0.06135 0.99531 0.52922 0.0
O311 O 0.49933 0.05366 0.59553 0.0
Zn312 Zn 0.50367 0.02784 0.68779 0.0
O313 O 0.51761 0.98794 0.65985 0.0
Zn314 Zn 0.48801 0.95747 0.68778 0.0
Zn315 Zn 0.52422 0.98593 0.55266 0.0
Zn316 Zn 0.55448 0.97913 0.71033 0.0
O317 O 0.50312 0.93021 0.76626 0.0
O318 O 0.55071 0.94254 0.77717 0.0
O319 O 0.46358 0.02458 0.7394 0.0
O320 O 0.4529 0.97594 0.73221 0.0
O321 O 0.47353 0.93336 0.59947 0.0
O322 O 0.49846 0.95368 0.50538 0.0
O323 O 0.56663 0.97927 0.52806 0.0
O324 O 0.533 0.04884 0.75873 0.0
O325 O 0.58843 0.97553 0.63824 0.0
O326 O 0.56541 0.01347 0.7765 0.0
C327 C 0.50426 0.04921 0.52653 0.0
C328 C 0.52816 0.9265 0.79581 0.0
C329 C 0.4794 0.93466 0.53022 0.0
C330 C 0.44596 0.00213 0.75068 0.0
C331 C 0.58968 0.97612 0.56732 0.0
C332 C 0.55605 0.0393 0.78975 0.0
O333 O 0.51395 0.02454 0.50375 0.0
O334 O 0.44648 0.49291 0.62668 0.0
Zn335 Zn 0.47495 0.48702 0.71267 0.0
O336 O 0.51614 0.49552 0.6809 0.0
Zn337 Zn 0.53955 0.46085 0.69894 0.0
Zn338 Zn 0.51699 0.50495 0.57495 0.0
Zn339 Zn 0.5343 0.52926 0.73572 0.0
O340 O 0.57343 0.46982 0.76933 0.0
O341 O 0.57119 0.51835 0.79119 0.0
O342 O 0.46926 0.44415 0.75134 0.0
O343 O 0.51452 0.42793 0.74348 0.0
O344 O 0.55499 0.44417 0.60365 0.0
O345 O 0.53823 0.47428 0.5169 0.0
O346 O 0.53529 0.54581 0.55597 0.0
O347 O 0.46413 0.51561 0.79554 0.0
O348 O 0.54343 0.56491 0.66875 0.0
O349 O 0.50615 0.54219 0.81247 0.0
C350 C 0.45025 0.50037 0.55868 0.0
C351 C 0.58351 0.49362 0.80085 0.0
C352 C 0.55222 0.45142 0.53552 0.0
C353 C 0.48754 0.42354 0.76002 0.0
C354 C 0.54361 0.5675 0.59804 0.0
C355 C 0.4796 0.53569 0.82987 0.0
O356 O 0.47597 0.50549 0.53291 0.0
O357 O 0.96869 0.53905 0.59682 0.0
Zn358 Zn 0.00925 0.5423 0.64695 0.0
O359 O 0.02447 0.50242 0.66906 0.0
Zn360 Zn 0.0277 0.49687 0.77681 0.0
Zn361 Zn 0.99779 0.47173 0.62719 0.0
Zn362 Zn 0.06312 0.49752 0.62519 0.0
O363 O 0.0691 0.48808 0.80827 0.0
O364 O 0.09469 0.49379 0.70402 0.0
O365 O 0.00628 0.56651 0.74201 0.0
O366 O 0.01872 0.53503 0.83084 0.0
O367 O 0.99884 0.46464 0.81224 0.0
O368 O 0.97947 0.44621 0.70721 0.0
O369 O 0.01722 0.44597 0.55136 0.0
O370 O 0.03742 0.56546 0.57846 0.0
O371 O 0.06392 0.46215 0.55449 0.0
O372 O 0.07354 0.53372 0.56514 0.0
C373 C 0.95387 0.51625 0.5723 0.0
C374 C 0.09359 0.48922 0.77404 0.0
C375 C 0.98118 0.44648 0.77796 0.0
C376 C 0.01081 0.56075 0.81061 0.0
C377 C 0.04361 0.44454 0.52878 0.0
C378 C 0.06208 0.55855 0.55141 0.0
O379 O 0.96359 0.49017 0.57837 0.0
C380 C 0.16571 0.99236 0.48096 0.0
C381 C 0.16171 0.98771 0.40395 0.0
C382 C 0.14177 0.9964 0.5283 0.0
C383 C 0.1127 0.99575 0.50079 0.0
H384 H 0.18759 0.9925 0.50506 0.0
H385 H 0.14616 0.99948 0.58725 0.0
S386 S 0.09057 0.9849 0.30233 0.0
N387 N 0.12674 0.98322 0.30168 0.0
N388 N 0.08156 0.99086 0.39 0.0
C389 C 0.10849 0.99179 0.42324 0.0
C390 C 0.133 0.98781 0.37504 0.0
C391 C 0.51176 0.09555 0.34977 0.0
C392 C 0.49538 0.12071 0.36539 0.0
C393 C 0.51375 0.07226 0.40136 0.0
C394 C 0.49984 0.0734 0.47133 0.0
H395 H 0.52362 0.09416 0.29773 0.0
H396 H 0.52709 0.05364 0.38698 0.0
S397 S 0.45333 0.13414 0.53791 0.0
N398 N 0.46419 0.14513 0.45428 0.0
N399 N 0.468 0.10149 0.55179 0.0
C400 C 0.48276 0.09818 0.48682 0.0
C401 C 0.48047 0.12175 0.43372 0.0
C402 C 0.37085 0.50829 0.49598 0.0
C403 C 0.37352 0.5166 0.42063 0.0
C404 C 0.39562 0.50231 0.53942 0.0
C405 C 0.4242 0.50455 0.50951 0.0
H406 H 0.34938 0.50669 0.52188 0.0
H407 H 0.39227 0.49648 0.5974 0.0
S408 S 0.443 0.52496 0.31398 0.0
N409 N 0.40685 0.52638 0.3174 0.0
N410 N 0.45344 0.51489 0.39817 0.0
C411 C 0.42709 0.51218 0.43344 0.0
C412 C 0.40178 0.51821 0.38927 0.0
C413 C 0.08632 0.38878 0.41651 0.0
C414 C 0.06479 0.37592 0.36847 0.0
C415 C 0.07953 0.41158 0.46666 0.0
C416 C 0.05077 0.42187 0.47178 0.0
H417 H 0.10845 0.38073 0.41629 0.0
H418 H 0.09673 0.42047 0.50336 0.0
S419 S 0.9867 0.39603 0.35609 0.0
N420 N 0.01388 0.37567 0.32729 0.0
N421 N 0.00092 0.41822 0.42167 0.0
C422 C 0.02922 0.4096 0.42267 0.0
C423 C 0.03628 0.38674 0.37096 0.0
C424 C 0.88976 0.03162 0.8967 0.0
C425 C 0.87768 0.00716 0.93681 0.0
C426 C 0.91539 0.02927 0.85469 0.0
C427 C 0.93014 0.00226 0.85037 0.0
H428 H 0.87926 0.05289 0.89779 0.0
H429 H 0.9235 0.04889 0.82476 0.0
S430 S 0.90765 0.93151 0.9462 0.0
N431 N 0.88239 0.95508 0.97049 0.0
N432 N 0.93078 0.95049 0.89158 0.0
C433 C 0.91844 0.9776 0.89094 0.0
C434 C 0.89226 0.98011 0.93425 0.0
C435 C 0.55629 0.86273 0.91218 0.0
C436 C 0.53335 0.85745 0.96348 0.0
C437 C 0.55509 0.88586 0.85952 0.0
C438 C 0.53049 0.90381 0.85512 0.0
H439 H 0.57501 0.84855 0.91203 0.0
H440 H 0.57297 0.88898 0.82027 0.0
S441 S 0.46527 0.89965 0.97874 0.0
N442 N 0.48603 0.87271 0.00856 0.0
N443 N 0.48338 0.91563 0.90887 0.0
C444 C 0.50775 0.89908 0.9072 0.0
C445 C 0.50928 0.87604 0.96158 0.0
C446 C 0.64372 0.46153 0.92058 0.0
C447 C 0.65974 0.487 0.94674 0.0
C448 C 0.61921 0.46399 0.87379 0.0
C449 C 0.60955 0.49206 0.85113 0.0
H450 H 0.65024 0.4394 0.93624 0.0
H451 H 0.60777 0.44359 0.85536 0.0
S452 S 0.64426 0.56578 0.9032 0.0
N453 N 0.66456 0.54124 0.94574 0.0
N454 N 0.6182 0.54602 0.85878 0.0
C455 C 0.6252 0.5178 0.87763 0.0
C456 C 0.6503 0.51524 0.9252 0.0
C457 C 0.00084 0.63783 0.89386 0.0
C458 C 0.01191 0.63526 0.96682 0.0
C459 C 0.99939 0.61334 0.84503 0.0
C460 C 0.00901 0.58516 0.86693 0.0
H461 H 0.994 0.65924 0.87356 0.0
H462 H 0.99145 0.61686 0.78886 0.0
S463 S 0.03827 0.56629 0.05418 0.0
N464 N 0.03144 0.60213 0.06 0.0
N465 N 0.02848 0.55589 0.96899 0.0
C466 C 0.01883 0.58196 0.94118 0.0
C467 C 0.02031 0.60702 0.99089 0.0
C468 C 0.98453 0.0956 0.37521 0.0
C469 C 0.98975 0.12518 0.40021 0.0
C470 C 0.98135 0.07188 0.42565 0.0
C471 C 0.98285 0.07694 0.50297 0.0
H472 H 0.98498 0.09048 0.3162 0.0
H473 H 0.97974 0.0493 0.40378 0.0
S474 S 0.9905 0.15093 0.59705 0.0
N475 N 0.99254 0.15859 0.50732 0.0
N476 N 0.9851 0.11435 0.60204 0.0
C477 C 0.98445 0.10678 0.52857 0.0
C478 C 0.98826 0.13086 0.47718 0.0
C479 C 0.41322 0.88945 0.4593 0.0
C480 C 0.41098 0.89942 0.38527 0.0
C481 C 0.43718 0.89849 0.50441 0.0
C482 C 0.4599 0.91772 0.47701 0.0
H483 H 0.39523 0.87648 0.48432 0.0
H484 H 0.43667 0.89217 0.56265 0.0
S485 S 0.46791 0.94437 0.28194 0.0
N486 N 0.43593 0.92565 0.28321 0.0
N487 N 0.48141 0.94155 0.36697 0.0
C488 C 0.45984 0.92451 0.40039 0.0
C489 C 0.43525 0.91563 0.35469 0.0
C490 C 0.5816 0.38169 0.44891 0.0
C491 C 0.56773 0.38078 0.37874 0.0
C492 C 0.57848 0.40591 0.49732 0.0
C493 C 0.56139 0.43019 0.47732 0.0
H494 H 0.59366 0.3628 0.46817 0.0
H495 H 0.5882 0.40476 0.55241 0.0
S496 S 0.52338 0.44027 0.29596 0.0
N497 N 0.53825 0.40741 0.28911 0.0
N498 N 0.53313 0.45325 0.37892 0.0
C499 C 0.54956 0.43075 0.40468 0.0
C500 C 0.55252 0.40595 0.35568 0.0
C501 C 0.10435 0.58343 0.38375 0.0
C502 C 0.12496 0.60445 0.41427 0.0
C503 C 0.08163 0.57079 0.4271 0.0
C504 C 0.07844 0.5791 0.50186 0.0
H505 H 0.10738 0.57446 0.32833 0.0
H506 H 0.06796 0.55267 0.40378 0.0
S507 S 0.12296 0.63686 0.60438 0.0
N508 N 0.13804 0.63601 0.52081 0.0
N509 N 0.09507 0.61202 0.60236 0.0
C510 C 0.09687 0.60215 0.53096 0.0
C511 C 0.12022 0.61494 0.48701 0.0
C512 C 0.10757 0.90007 0.92001 0.0
C513 C 0.09134 0.89377 0.98514 0.0
C514 C 0.09928 0.92261 0.87078 0.0
C515 C 0.07416 0.93894 0.88466 0.0
H516 H 0.12585 0.8865 0.9053 0.0
H517 H 0.11128 0.92578 0.81919 0.0
S518 S 0.02566 0.93279 0.04963 0.0
N519 N 0.05029 0.90728 0.06308 0.0
N520 N 0.03463 0.94917 0.97012 0.0
C521 C 0.05885 0.93405 0.95145 0.0
C522 C 0.06748 0.91157 0.00191 0.0
C523 C 0.61751 0.08933 0.86249 0.0
C524 C 0.62095 0.07817 0.93526 0.0
C525 C 0.59389 0.07928 0.81708 0.0
C526 C 0.57308 0.05783 0.84325 0.0
H527 H 0.63432 0.10423 0.83873 0.0
H528 H 0.5934 0.0863 0.75934 0.0
S529 S 0.57001 0.02397 0.03105 0.0
N530 N 0.59972 0.04641 0.03294 0.0
N531 N 0.55551 0.02786 0.94732 0.0
C532 C 0.57478 0.04849 0.91748 0.0
C533 C 0.59866 0.05866 0.96376 0.0
C534 C 0.43758 0.59582 0.92238 0.0
C535 C 0.45377 0.60052 0.98875 0.0
C536 C 0.44388 0.57235 0.87372 0.0
C537 C 0.46684 0.55332 0.88969 0.0
H538 H 0.42122 0.61145 0.90591 0.0
H539 H 0.43245 0.57068 0.82067 0.0
S540 S 0.51377 0.55424 0.05879 0.0
N541 N 0.49199 0.58243 0.07043 0.0
N542 N 0.50392 0.53877 0.97841 0.0
C543 C 0.48167 0.55644 0.95803 0.0
C544 C 0.47508 0.57994 0.00787 0.0
C545 C 0.94012 0.41602 0.94475 0.0
C546 C 0.91061 0.41801 0.92159 0.0
C547 C 0.9634 0.42258 0.89581 0.0
C548 C 0.95801 0.43038 0.82138 0.0
H549 H 0.94529 0.41186 0.00271 0.0
H550 H 0.98566 0.42353 0.91767 0.0
S551 S 0.88505 0.43291 0.72877 0.0
N552 N 0.87754 0.4246 0.81632 0.0
N553 N 0.92125 0.43512 0.72366 0.0
C554 C 0.92879 0.42857 0.79504 0.0
C555 C 0.90506 0.42271 0.8453 0.0
C556 C 0.0582 0.14607 0.86431 0.0
C557 C 0.08802 0.15216 0.88168 0.0
C558 C 0.04881 0.11953 0.82878 0.0
C559 C 0.06876 0.09764 0.80897 0.0
H560 H 0.0416 0.16129 0.88147 0.0
H561 H 0.02545 0.11597 0.81854 0.0
S562 S 0.14983 0.10407 0.83497 0.0
N563 N 0.1379 0.13526 0.87107 0.0
N564 N 0.12028 0.08502 0.80463 0.0
C565 C 0.09889 0.10394 0.82313 0.0
C566 C 0.10848 0.13119 0.85941 0.0
C567 C 0.38988 0.03211 0.88552 0.0
C568 C 0.36865 0.00835 0.8902 0.0
C569 C 0.41393 0.03088 0.83683 0.0
C570 C 0.41783 0.00571 0.79135 0.0
H571 H 0.38862 0.05121 0.92231 0.0
H572 H 0.43037 0.04907 0.83798 0.0
S573 S 0.36672 0.939 0.77624 0.0
N574 N 0.352 0.95995 0.8407 0.0
N575 N 0.39657 0.95788 0.74841 0.0
C576 C 0.39564 0.98275 0.79178 0.0
C577 C 0.37121 0.98403 0.84126 0.0
C578 C 0.44415 0.36543 0.87445 0.0
C579 C 0.46368 0.34189 0.87995 0.0
C580 C 0.45116 0.39114 0.83221 0.0
C581 C 0.47805 0.39436 0.79394 0.0
H582 H 0.42391 0.36463 0.90608 0.0
H583 H 0.43605 0.40919 0.83281 0.0
S584 S 0.53522 0.33758 0.78229 0.0
N585 N 0.51003 0.32258 0.83815 0.0
N586 N 0.52271 0.37011 0.75717 0.0
C587 C 0.49671 0.36998 0.79433 0.0
C588 C 0.48964 0.34394 0.83755 0.0
C589 C 0.17167 0.51008 0.83522 0.0
C590 C 0.17199 0.50117 0.91029 0.0
C591 C 0.14695 0.50409 0.78975 0.0
C592 C 0.12136 0.48946 0.81811 0.0
H593 H 0.19019 0.52298 0.81245 0.0
H594 H 0.1473 0.51269 0.73336 0.0
S595 S 0.11216 0.45905 0.00933 0.0
N596 N 0.14556 0.47494 0.00945 0.0
N597 N 0.09903 0.46378 0.92443 0.0
C598 C 0.12212 0.47885 0.8919 0.0
C599 C 0.14744 0.48467 0.93786 0.0
C600 C 0.99944 0.84835 0.54851 0.0
C601 C 0.99358 0.84681 0.47153 0.0
C602 C 0.99783 0.87538 0.58787 0.0
C603 C 0.99087 0.90204 0.55138 0.0
H604 H 0.00667 0.82881 0.57778 0.0
H605 H 0.00401 0.87569 0.64625 0.0
S606 S 0.97088 0.90928 0.35158 0.0
N607 N 0.97827 0.87373 0.36145 0.0
N608 N 0.97534 0.92444 0.43503 0.0
C609 C 0.98316 0.90033 0.47535 0.0
C610 C 0.98449 0.87276 0.43555 0.0
C611 C 0.64577 0.97102 0.41252 0.0
C612 C 0.67117 0.98504 0.4438 0.0
C613 C 0.61992 0.96683 0.45415 0.0
C614 C 0.61858 0.97607 0.52906 0.0
H615 H 0.64527 0.9649 0.35406 0.0
H616 H 0.60051 0.95724 0.42654 0.0
S617 S 0.68021 0.01109 0.63905 0.0
N618 N 0.69421 0.00615 0.55536 0.0
N619 N 0.64583 0.99784 0.63436 0.0
C620 C 0.64446 0.98835 0.5624 0.0
C621 C 0.67067 0.99301 0.51954 0.0
C622 C 0.54093 0.6507 0.56269 0.0
C623 C 0.54915 0.65305 0.48738 0.0
C624 C 0.54157 0.62328 0.60045 0.0
C625 C 0.54982 0.59714 0.56359 0.0
H626 H 0.53249 0.66982 0.59139 0.0
H627 H 0.53353 0.62216 0.65715 0.0
S628 S 0.57608 0.59208 0.36872 0.0
N629 N 0.56816 0.62748 0.37929 0.0
N630 N 0.5691 0.57602 0.44983 0.0
C631 C 0.5599 0.59967 0.48981 0.0
C632 C 0.55964 0.62761 0.45181 0.0
C633 C 0.89162 0.54978 0.46144 0.0
C634 C 0.87256 0.52479 0.44711 0.0
C635 C 0.91723 0.54729 0.50483 0.0
C636 C 0.92494 0.51962 0.5347 0.0
H637 H 0.88726 0.57117 0.43655 0.0
H638 H 0.9317 0.5669 0.51212 0.0
S639 S 0.88136 0.44779 0.51782 0.0
N640 N 0.86254 0.47182 0.46944 0.0
N641 N 0.91003 0.46719 0.55157 0.0
C642 C 0.90523 0.49482 0.52388 0.0
C643 C 0.87922 0.49739 0.48006 0.0
loop_
_geom_bond_atom_site_label_1
_geom_bond_atom_site_label_2
_geom_bond_distance
_geom_bond_site_symmetry_2
_ccdc_geom_bond_type
C0 C1 1.384 . S
C0 H13 0.947 . S
C0 C35 1.382 . S
C1 C0 1.384 . S
C1 C2 1.378 . S
C2 C1 1.378 . S
C2 C3 1.378 . S
C2 H14 0.952 . S
C3 C2 1.378 . S
C3 H15 0.950 . S
C3 C34 1.383 . S
H4 C23 0.947 . S
H5 C24 0.946 . S
H6 C26 0.953 . S
H7 C27 0.945 . S
H8 C29 0.952 . S
H9 C30 0.949 . S
H10 C32 0.950 . S
H11 C33 0.948 . S
H12 C35 0.951 . S
H13 C0 0.947 . S
H14 C2 0.952 . S
H15 C3 0.950 . S
N16 C19 1.382 . S
N16 C21 1.363 . S
N17 C19 1.371 1_556 S
N17 C20 1.372 . S
N18 C20 1.361 1_554 S
N18 C21 1.377 . S
C19 N16 1.382 . S
C19 N17 1.371 1_554 S
C19 C22 1.480 1_554 S
C20 N17 1.372 . S
C20 N18 1.361 1_556 S
C20 C28 1.457 . S
C21 N16 1.363 . S
C21 N18 1.377 . S
C21 C34 1.479 . S
C22 C19 1.480 1_556 S
C22 C23 1.383 1_556 S
C22 C27 1.385 . S
C23 H4 0.947 . S
C23 C22 1.383 1_554 S
C23 C24 1.388 . S
C24 H5 0.946 . S
C24 C23 1.388 . S
C24 C25 1.384 1_554 S
C25 C24 1.384 1_556 S
C25 C26 1.377 . S
C26 H6 0.953 . S
C26 C25 1.377 . S
C26 C27 1.369 . S
C27 H7 0.945 . S
C27 C22 1.385 . S
C27 C26 1.369 . S
C28 C20 1.457 . S
C28 C29 1.372 . S
C28 C33 1.364 . S
C29 H8 0.952 . S
C29 C28 1.372 . S
C29 C30 1.389 . S
C30 H9 0.949 . S
C30 C29 1.389 . S
C30 C31 1.387 . S
C31 C30 1.387 . S
C31 C32 1.372 . S
C32 H10 0.950 . S
C32 C31 1.372 . S
C32 C33 1.379 . S
C33 H11 0.948 . S
C33 C28 1.364 . S
C33 C32 1.379 . S
C34 C3 1.383 . S
C34 C21 1.479 . S
C34 C35 1.398 . S
C35 C0 1.382 . S
C35 H12 0.951 . S
C35 C34 1.398 . S
C36 C37 1.384 . S
C36 H49 0.947 . S
C36 C71 1.382 . S
C37 C36 1.384 . S
C37 C38 1.378 . S
C38 C37 1.378 . S
C38 C39 1.378 . S
C38 H50 0.952 . S
C39 C38 1.378 . S
C39 H51 0.950 1_655 S
C39 C70 1.383 . S
H40 C59 0.947 . S
H41 C60 0.946 . S
H42 C62 0.953 . S
H43 C63 0.945 . S
H44 C65 0.952 . S
H45 C66 0.949 . S
H46 C68 0.950 . S
H47 C69 0.948 . S
H48 C71 0.951 . S
H49 C36 0.947 . S
H50 C38 0.952 . S
H51 C39 0.950 1_455 S
N52 C55 1.382 . S
N52 C57 1.363 . S
N53 C55 1.371 . S
N53 C56 1.372 . S
N54 C56 1.361 . S
N54 C57 1.377 . S
C55 N52 1.382 . S
C55 N53 1.371 . S
C55 C58 1.480 . S
C56 N53 1.372 . S
C56 N54 1.361 . S
C56 C64 1.457 1_554 S
C57 N52 1.363 . S
C57 N54 1.377 . S
C57 C70 1.479 . S
C58 C55 1.480 . S
C58 C59 1.383 . S
C58 C63 1.385 1_554 S
C59 H40 0.947 . S
C59 C58 1.383 . S
C59 C60 1.388 . S
C60 H41 0.946 . S
C60 C59 1.388 . S
C60 C61 1.384 . S
C61 C60 1.384 . S
C61 C62 1.377 1_554 S
C62 H42 0.953 . S
C62 C61 1.377 1_556 S
C62 C63 1.369 . S
C63 H43 0.945 . S
C63 C58 1.385 1_556 S
C63 C62 1.369 . S
C64 C56 1.457 1_556 S
C64 C65 1.381 . S
C64 C69 1.362 1_656 S
C65 H44 0.952 . S
C65 C64 1.381 . S
C65 C66 1.389 . S
C66 H45 0.949 . S
C66 C65 1.389 . S
C66 C67 1.387 . S
C67 C66 1.387 . S
C67 C68 1.372 1_655 S
C68 H46 0.950 . S
C68 C67 1.372 1_455 S
C68 C69 1.379 1_556 S
C69 H47 0.948 . S
C69 C64 1.362 1_454 S
C69 C68 1.379 1_554 S
C70 C39 1.383 . S
C70 C57 1.479 . S
C70 C71 1.398 . S
C71 C36 1.382 . S
C71 H48 0.951 . S
C71 C70 1.398 . S
C72 C73 1.384 1_565 S
C72 H85 0.947 . S
C72 C107 1.382 1_565 S
C73 C72 1.384 1_545 S
C73 C74 1.378 . S
C74 C73 1.378 . S
C74 C75 1.378 . S
C74 H86 0.952 . S
C75 C74 1.378 . S
C75 H87 0.950 . S
C75 C106 1.383 . S
H76 C95 0.947 . S
H77 C96 0.946 . S
H78 C98 0.953 . S
H79 C99 0.945 . S
H80 C101 0.947 1_565 S
H81 C102 0.955 . S
H82 C104 0.950 . S
H83 C105 0.948 1_554 S
H84 C107 0.951 1_565 S
H85 C72 0.947 . S
H86 C74 0.952 . S
H87 C75 0.950 . S
N88 C91 1.382 . S
N88 C93 1.363 . S
N89 C91 1.371 1_556 S
N89 C92 1.372 1_556 S
N90 C92 1.361 . S
N90 C93 1.377 . S
C91 N88 1.382 . S
C91 N89 1.371 1_554 S
C91 C94 1.480 . S
C92 N89 1.372 1_554 S
C92 N90 1.361 . S
C92 C100 1.457 1_554 S
C93 N88 1.363 . S
C93 N90 1.377 . S
C93 C106 1.479 . S
C94 C91 1.480 . S
C94 C95 1.383 . S
C94 C99 1.385 1_554 S
C95 H76 0.947 . S
C95 C94 1.383 . S
C95 C96 1.388 1_545 S
C96 H77 0.946 . S
C96 C95 1.388 1_565 S
C96 C97 1.384 1_564 S
C97 C96 1.384 1_546 S
C97 C98 1.377 . S
C98 H78 0.953 . S
C98 C97 1.377 . S
C98 C99 1.369 . S
C99 H79 0.945 . S
C99 C94 1.385 1_556 S
C99 C98 1.369 . S
C100 C92 1.457 1_556 S
C100 C101 1.378 . S
C100 C105 1.364 . S
C101 H80 0.947 1_545 S
C101 C100 1.378 . S
C101 C102 1.389 1_545 S
C102 H81 0.955 . S
C102 C101 1.389 1_565 S
C102 C103 1.382 1_565 S
C103 C102 1.382 1_545 S
C103 C104 1.372 . S
C104 H82 0.950 . S
C104 C103 1.372 . S
C104 C105 1.379 . S
C105 H83 0.948 1_556 S
C105 C100 1.364 . S
C105 C104 1.379 . S
C106 C75 1.383 . S
C106 C93 1.479 . S
C106 C107 1.399 . S
C107 C72 1.382 1_545 S
C107 H84 0.951 1_545 S
C107 C106 1.399 . S
C108 C109 1.384 . S
C108 H121 0.947 . S
C108 C143 1.382 . S
C109 C108 1.384 . S
C109 C110 1.378 . S
C110 C109 1.378 . S
C110 C111 1.378 . S
C110 H122 0.952 . S
C111 C110 1.378 . S
C111 H123 0.950 . S
C111 C142 1.383 . S
H112 C131 0.947 . S
H113 C132 0.946 . S
H114 C134 0.953 . S
H115 C135 0.945 . S
H116 C137 0.952 . S
H117 C138 0.949 . S
H118 C140 0.950 . S
H119 C141 0.948 . S
H120 C143 0.951 1_554 S
H121 C108 0.947 . S
H122 C110 0.952 . S
H123 C111 0.950 . S
N124 C127 1.382 1_556 S
N124 C129 1.363 1_556 S
N125 C127 1.371 . S
N125 C128 1.372 . S
N126 C128 1.361 . S
N126 C129 1.377 . S
C127 N124 1.382 1_554 S
C127 N125 1.371 . S
C127 C130 1.480 . S
C128 N125 1.372 . S
C128 N126 1.361 . S
C128 C136 1.457 . S
C129 N124 1.363 1_554 S
C129 N126 1.377 . S
C129 C142 1.479 1_554 S
C130 C127 1.480 . S
C130 C131 1.383 1_554 S
C130 C135 1.385 . S
C131 H112 0.947 . S
C131 C130 1.383 1_556 S
C131 C132 1.388 . S
C132 H113 0.946 . S
C132 C131 1.388 . S
C132 C133 1.384 . S
C133 C132 1.384 . S
C133 C134 1.377 1_556 S
C134 H114 0.953 . S
C134 C133 1.377 1_554 S
C134 C135 1.369 . S
C135 H115 0.945 . S
C135 C130 1.385 . S
C135 C134 1.369 . S
C136 C128 1.457 . S
C136 C137 1.372 . S
C136 C141 1.364 . S
C137 H116 0.952 . S
C137 C136 1.372 . S
C137 C138 1.389 . S
C138 H117 0.949 . S
C138 C137 1.389 . S
C138 C139 1.387 . S
C139 C138 1.387 . S
C139 C140 1.372 . S
C140 H118 0.950 . S
C140 C139 1.372 . S
C140 C141 1.379 . S
C141 H119 0.948 . S
C141 C136 1.364 . S
C141 C140 1.379 . S
C142 C111 1.383 . S
C142 C129 1.479 1_556 S
C142 C143 1.398 . S
C143 C108 1.382 . S
C143 H120 0.951 1_556 S
C143 C142 1.398 . S
C144 C145 1.384 1_554 S
C144 H157 0.947 . S
C144 C179 1.382 . S
C145 C144 1.384 1_556 S
C145 C146 1.378 . S
C146 C145 1.378 . S
C146 C147 1.378 1_556 S
C146 H158 0.952 . S
C147 C146 1.378 1_554 S
C147 H159 0.950 . S
C147 C178 1.383 . S
H148 C167 0.947 . S
H149 C168 0.946 . S
H150 C170 0.953 . S
H151 C171 0.945 . S
H152 C173 0.952 . S
H153 C174 0.949 . S
H154 C176 0.950 . S
H155 C177 0.948 . S
H156 C179 0.951 . S
H157 C144 0.947 . S
H158 C146 0.952 . S
H159 C147 0.950 . S
N160 C163 1.382 . S
N160 C165 1.363 . S
N161 C163 1.371 . S
N161 C164 1.372 . S
N162 C164 1.361 . S
N162 C165 1.377 . S
C163 N160 1.382 . S
C163 N161 1.371 . S
C163 C166 1.480 . S
C164 N161 1.372 . S
C164 N162 1.361 . S
C164 C172 1.457 . S
C165 N160 1.363 . S
C165 N162 1.377 . S
C165 C178 1.479 . S
C166 C163 1.480 . S
C166 C167 1.383 . S
C166 C171 1.385 . S
C167 H148 0.947 . S
C167 C166 1.383 . S
C167 C168 1.388 . S
C168 H149 0.946 . S
C168 C167 1.388 . S
C168 C169 1.384 . S
C169 C168 1.384 . S
C169 C170 1.377 . S
C170 H150 0.953 . S
C170 C169 1.377 . S
C170 C171 1.369 . S
C171 H151 0.945 . S
C171 C166 1.385 . S
C171 C170 1.369 . S
C172 C164 1.457 . S
C172 C173 1.372 . S
C172 C177 1.364 . S
C173 H152 0.952 . S
C173 C172 1.372 . S
C173 C174 1.389 . S
C174 H153 0.949 . S
C174 C173 1.389 . S
C174 C175 1.387 . S
C175 C174 1.387 . S
C175 C176 1.372 . S
C176 H154 0.950 . S
C176 C175 1.372 . S
C176 C177 1.379 . S
C177 H155 0.948 . S
C177 C172 1.364 . S
C177 C176 1.379 . S
C178 C147 1.383 . S
C178 C165 1.479 . S
C178 C179 1.398 . S
C179 C144 1.382 . S
C179 H156 0.951 . S
C179 C178 1.398 . S
C180 C181 1.384 . S
C180 H193 0.947 . S
C180 C215 1.382 . S
C181 C180 1.384 . S
C181 C182 1.378 . S
C182 C181 1.378 . S
C182 C183 1.378 . S
C182 H194 0.952 . S
C183 C182 1.378 . S
C183 H195 0.950 . S
C183 C214 1.383 . S
H184 C203 0.947 . S
H185 C204 0.946 . S
H186 C206 0.953 . S
H187 C207 0.945 . S
H188 C209 0.952 . S
H189 C210 0.949 . S
H190 C212 0.950 . S
H191 C213 0.948 . S
H192 C215 0.951 . S
H193 C180 0.947 . S
H194 C182 0.952 . S
H195 C183 0.950 . S
N196 C199 1.382 . S
N196 C201 1.363 . S
N197 C199 1.371 . S
N197 C200 1.372 . S
N198 C200 1.361 . S
N198 C201 1.377 . S
C199 N196 1.382 . S
C199 N197 1.371 . S
C199 C202 1.480 . S
C200 N197 1.372 . S
C200 N198 1.361 . S
C200 C208 1.457 . S
C201 N196 1.363 . S
C201 N198 1.377 . S
C201 C214 1.479 . S
C202 C199 1.480 . S
C202 C203 1.383 . S
C202 C207 1.385 . S
C203 H184 0.947 . S
C203 C202 1.383 . S
C203 C204 1.388 . S
C204 H185 0.946 . S
C204 C203 1.388 . S
C204 C205 1.384 . S
C205 C204 1.384 . S
C205 C206 1.377 . S
C206 H186 0.953 . S
C206 C205 1.377 . S
C206 C207 1.369 . S
C207 H187 0.945 . S
C207 C202 1.385 . S
C207 C206 1.369 . S
C208 C200 1.457 . S
C208 C209 1.372 . S
C208 C213 1.364 . S
C209 H188 0.952 . S
C209 C208 1.372 . S
C209 C210 1.389 . S
C210 H189 0.949 . S
C210 C209 1.389 . S
C210 C211 1.387 . S
C211 C210 1.387 . S
C211 C212 1.372 . S
C212 H190 0.950 . S
C212 C211 1.372 . S
C212 C213 1.379 . S
C213 H191 0.948 . S
C213 C208 1.364 . S
C213 C212 1.379 . S
C214 C183 1.383 . S
C214 C201 1.479 . S
C214 C215 1.398 . S
C215 C180 1.382 . S
C215 H192 0.951 . S
C215 C214 1.398 . S
C216 C217 1.384 1_554 S
C216 H229 0.947 1_545 S
C216 C251 1.382 . S
C217 C216 1.384 1_556 S
C217 C218 1.378 1_556 S
C218 C217 1.378 1_554 S
C218 C219 1.378 . S
C218 H230 0.952 1_554 S
C219 C218 1.378 . S
C219 H231 0.950 . S
C219 C250 1.383 . S
H220 C239 0.947 . S
H221 C240 0.953 . S
H222 C242 0.953 . S
H223 C243 0.945 . S
H224 C245 0.948 1_565 S
H225 C246 0.953 . S
H226 C248 0.950 . S
H227 C249 0.948 . S
H228 C251 0.949 1_565 S
H229 C216 0.947 1_565 S
H230 C218 0.952 1_556 S
H231 C219 0.950 . S
N232 C235 1.382 . S
N232 C237 1.363 . S
N233 C235 1.371 . S
N233 C236 1.372 . S
N234 C236 1.361 . S
N234 C237 1.377 . S
C235 N232 1.382 . S
C235 N233 1.371 . S
C235 C238 1.480 . S
C236 N233 1.372 . S
C236 N234 1.361 . S
C236 C244 1.457 . S
C237 N232 1.363 . S
C237 N234 1.377 . S
C237 C250 1.479 . S
C238 C235 1.480 . S
C238 C239 1.383 . S
C238 C243 1.385 . S
C239 H220 0.947 . S
C239 C238 1.383 . S
C239 C240 1.386 1_545 S
C240 H221 0.953 . S
C240 C239 1.386 1_565 S
C240 C241 1.380 1_565 S
C241 C240 1.380 1_545 S
C241 C242 1.377 . S
C242 H222 0.953 . S
C242 C241 1.377 . S
C242 C243 1.369 . S
C243 H223 0.945 . S
C243 C238 1.385 . S
C243 C242 1.369 . S
C244 C236 1.457 . S
C244 C245 1.380 . S
C244 C249 1.364 . S
C245 H224 0.948 1_545 S
C245 C244 1.380 . S
C245 C246 1.385 1_545 S
C246 H225 0.953 . S
C246 C245 1.385 1_565 S
C246 C247 1.385 1_565 S
C247 C246 1.385 1_545 S
C247 C248 1.372 . S
C248 H226 0.950 . S
C248 C247 1.372 . S
C248 C249 1.379 . S
C249 H227 0.948 . S
C249 C244 1.364 . S
C249 C248 1.379 . S
C250 C219 1.383 . S
C250 C237 1.479 . S
C250 C251 1.401 . S
C251 C216 1.382 . S
C251 H228 0.949 1_545 S
C251 C250 1.401 . S
C252 C253 1.384 . S
C252 H265 0.947 . S
C252 C287 1.382 . S
C253 C252 1.384 . S
C253 C254 1.378 . S
C254 C253 1.378 . S
C254 C255 1.378 . S
C254 H266 0.952 . S
C255 C254 1.378 . S
C255 H267 0.950 . S
C255 C286 1.383 . S
H256 C275 0.947 . S
H257 C276 0.946 . S
H258 C278 0.953 . S
H259 C279 0.945 . S
H260 C281 0.952 . S
H261 C282 0.949 . S
H262 C284 0.950 . S
H263 C285 0.948 . S
H264 C287 0.951 . S
H265 C252 0.947 . S
H266 C254 0.952 . S
H267 C255 0.950 . S
N268 C271 1.382 . S
N268 C273 1.363 . S
N269 C271 1.371 . S
N269 C272 1.372 . S
N270 C272 1.361 . S
N270 C273 1.377 . S
C271 N268 1.382 . S
C271 N269 1.371 . S
C271 C274 1.480 . S
C272 N269 1.372 . S
C272 N270 1.361 . S
C272 C280 1.457 . S
C273 N268 1.363 . S
C273 N270 1.377 . S
C273 C286 1.479 . S
C274 C271 1.480 . S
C274 C275 1.383 . S
C274 C279 1.385 . S
C275 H256 0.947 . S
C275 C274 1.383 . S
C275 C276 1.388 . S
C276 H257 0.946 . S
C276 C275 1.388 . S
C276 C277 1.384 . S
C277 C276 1.384 . S
C277 C278 1.377 . S
C278 H258 0.953 . S
C278 C277 1.377 . S
C278 C279 1.369 . S
C279 H259 0.945 . S
C279 C274 1.385 . S
C279 C278 1.369 . S
C280 C272 1.457 . S
C280 C281 1.372 . S
C280 C285 1.364 . S
C281 H260 0.952 . S
C281 C280 1.372 . S
C281 C282 1.389 1_554 S
C282 H261 0.949 . S
C282 C281 1.389 1_556 S
C282 C283 1.387 . S
C283 C282 1.387 . S
C283 C284 1.372 1_556 S
C284 H262 0.950 . S
C284 C283 1.372 1_554 S
C284 C285 1.379 . S
C285 H263 0.948 . S
C285 C280 1.364 . S
C285 C284 1.379 . S
C286 C255 1.383 . S
C286 C273 1.479 . S
C286 C287 1.398 . S
C287 C252 1.382 . S
C287 H264 0.951 . S
C287 C286 1.398 . S
O288 Zn289 1.953 . S
O288 C304 1.225 . S
Zn289 O288 1.953 . S
Zn289 O290 1.950 . S
Zn289 O296 1.919 1_565 S
Zn289 O301 1.924 . S
O290 Zn289 1.950 . S
O290 Zn291 1.900 1_565 S
O290 Zn292 1.953 . S
O290 Zn293 1.964 . S
Zn291 O290 1.900 1_545 S
Zn291 O294 1.933 1_455 S
Zn291 O297 1.941 . S
Zn291 O298 1.965 . S
Zn292 O290 1.953 . S
Zn292 O299 1.938 1_565 S
Zn292 O300 1.906 . S
Zn292 O310 1.953 . S
Zn293 O290 1.964 . S
Zn293 O295 1.932 1_455 S
Zn293 O302 1.977 1_455 S
Zn293 O303 1.910 . S
O294 Zn291 1.933 1_655 S
O294 C305 1.226 . S
O295 Zn293 1.932 1_655 S
O295 C305 1.307 1_565 S
O296 Zn289 1.919 1_545 S
O296 C307 1.253 . S
O297 Zn291 1.941 . S
O297 C307 1.283 . S
O298 Zn291 1.965 . S
O298 C306 1.303 . S
O299 Zn292 1.938 1_545 S
O299 C306 1.247 . S
O300 Zn292 1.906 . S
O300 C308 1.304 1_455 S
O301 Zn289 1.924 . S
O301 C309 1.311 . S
O302 Zn293 1.977 1_655 S
O302 C308 1.272 . S
O303 Zn293 1.910 . S
O303 C309 1.231 . S
C304 O288 1.225 . S
C304 O310 1.298 . S
C305 O294 1.226 . S
C305 O295 1.307 1_545 S
C306 O298 1.303 . S
C306 O299 1.247 . S
C307 O296 1.253 . S
C307 O297 1.283 . S
C308 O300 1.304 1_655 S
C308 O302 1.272 . S
C309 O301 1.311 . S
C309 O303 1.231 . S
O310 Zn292 1.953 . S
O310 C304 1.298 . S
O311 Zn312 1.953 . S
O311 C327 1.225 . S
Zn312 O311 1.953 . S
Zn312 O313 1.949 . S
Zn312 O319 1.919 . S
Zn312 O324 1.924 . S
O313 Zn312 1.949 . S
O313 Zn314 1.923 1_545 S
O313 Zn315 1.950 . S
O313 Zn316 1.945 1_545 S
Zn314 O313 1.923 1_565 S
Zn314 O317 1.933 . S
Zn314 O320 1.941 . S
Zn314 O321 1.965 . S
Zn315 O313 1.950 . S
Zn315 O322 1.938 . S
Zn315 O323 1.906 1_545 S
Zn315 O333 1.953 . S
Zn316 O313 1.945 1_565 S
Zn316 O318 1.932 . S
Zn316 O325 1.977 . S
Zn316 O326 1.910 1_565 S
O317 Zn314 1.933 . S
O317 C328 1.226 . S
O318 Zn316 1.932 . S
O318 C328 1.307 . S
O319 Zn312 1.919 . S
O319 C330 1.253 . S
O320 Zn314 1.941 . S
O320 C330 1.283 1_565 S
O321 Zn314 1.965 . S
O321 C329 1.303 . S
O322 Zn315 1.938 . S
O322 C329 1.247 1_545 S
O323 Zn315 1.906 1_565 S
O323 C331 1.304 . S
O324 Zn312 1.924 . S
O324 C332 1.311 . S
O325 Zn316 1.977 . S
O325 C331 1.272 . S
O326 Zn316 1.910 1_545 S
O326 C332 1.231 . S
C327 O311 1.225 . S
C327 O333 1.298 . S
C328 O317 1.226 . S
C328 O318 1.307 . S
C329 O321 1.303 . S
C329 O322 1.247 1_565 S
C330 O319 1.253 . S
C330 O320 1.283 1_545 S
C331 O323 1.304 . S
C331 O325 1.272 . S
C332 O324 1.311 . S
C332 O326 1.231 . S
O333 Zn315 1.953 . S
O333 C327 1.298 . S
O334 Zn335 1.953 . S
O334 C350 1.225 . S
Zn335 O334 1.953 . S
Zn335 O336 1.949 . S
Zn335 O342 1.919 . S
Zn335 O347 1.924 . S
O336 Zn335 1.949 . S
O336 Zn337 1.923 . S
O336 Zn338 1.950 . S
O336 Zn339 1.945 . S
Zn337 O336 1.923 . S
Zn337 O340 1.933 . S
Zn337 O343 1.941 . S
Zn337 O344 1.965 . S
Zn338 O336 1.950 . S
Zn338 O345 1.938 . S
Zn338 O346 1.906 . S
Zn338 O356 1.953 . S
Zn339 O336 1.945 . S
Zn339 O341 1.932 . S
Zn339 O348 1.977 . S
Zn339 O349 1.910 . S
O340 Zn337 1.933 . S
O340 C351 1.226 . S
O341 Zn339 1.932 . S
O341 C351 1.307 . S
O342 Zn335 1.919 . S
O342 C353 1.253 . S
O343 Zn337 1.941 . S
O343 C353 1.283 . S
O344 Zn337 1.965 . S
O344 C352 1.303 . S
O345 Zn338 1.938 . S
O345 C352 1.247 . S
O346 Zn338 1.906 . S
O346 C354 1.304 . S
O347 Zn335 1.924 . S
O347 C355 1.311 . S
O348 Zn339 1.977 . S
O348 C354 1.272 . S
O349 Zn339 1.910 . S
O349 C355 1.231 . S
C350 O334 1.225 . S
C350 O356 1.298 . S
C351 O340 1.226 . S
C351 O341 1.307 . S
C352 O344 1.303 . S
C352 O345 1.247 . S
C353 O342 1.253 . S
C353 O343 1.283 . S
C354 O346 1.304 . S
C354 O348 1.272 . S
C355 O347 1.311 . S
C355 O349 1.231 . S
O356 Zn338 1.953 . S
O356 C350 1.298 . S
O357 Zn358 1.953 1_655 S
O357 C373 1.225 . S
Zn358 O357 1.953 1_455 S
Zn358 O359 1.949 . S
Zn358 O365 1.919 . S
Zn358 O370 1.924 . S
O359 Zn358 1.949 . S
O359 Zn360 1.923 . S
O359 Zn361 1.950 1_455 S
O359 Zn362 1.945 . S
Zn360 O359 1.923 . S
Zn360 O363 1.933 . S
Zn360 O366 1.941 1_455 S
Zn360 O367 1.965 1_455 S
Zn361 O359 1.950 1_655 S
Zn361 O368 1.938 . S
Zn361 O369 1.906 1_655 S
Zn361 O379 1.953 . S
Zn362 O359 1.945 . S
Zn362 O364 1.932 . S
Zn362 O371 1.977 . S
Zn362 O372 1.910 . S
O363 Zn360 1.933 . S
O363 C374 1.226 . S
O364 Zn362 1.932 . S
O364 C374 1.307 . S
O365 Zn358 1.919 . S
O365 C376 1.253 . S
O366 Zn360 1.941 1_655 S
O366 C376 1.283 1_655 S
O367 Zn360 1.965 1_655 S
O367 C375 1.303 . S
O368 Zn361 1.938 . S
O368 C375 1.247 . S
O369 Zn361 1.906 1_455 S
O369 C377 1.304 . S
O370 Zn358 1.924 . S
O370 C378 1.311 . S
O371 Zn362 1.977 . S
O371 C377 1.272 . S
O372 Zn362 1.910 . S
O372 C378 1.231 . S
C373 O357 1.225 . S
C373 O379 1.298 . S
C374 O363 1.226 . S
C374 O364 1.307 . S
C375 O367 1.303 . S
C375 O368 1.247 . S
C376 O365 1.253 . S
C376 O366 1.283 1_455 S
C377 O369 1.304 . S
C377 O371 1.272 . S
C378 O370 1.311 . S
C378 O372 1.231 . S
O379 Zn361 1.953 . S
O379 C373 1.298 . S
C380 C381 1.369 1_545 S
C380 C382 1.419 . S
C380 H384 0.930 . S
C381 C380 1.369 1_565 S
C381 C390 1.429 . S
C382 C380 1.419 . S
C382 C383 1.363 1_545 S
C382 H385 0.929 . S
C383 C382 1.363 1_565 S
C383 C389 1.428 . S
H384 C380 0.930 . S
H385 C382 0.929 . S
S386 N387 1.613 . S
S386 N388 1.610 . S
N387 S386 1.613 . S
N387 C390 1.350 . S
N388 S386 1.610 . S
N388 C389 1.351 . S
C389 C383 1.428 . S
C389 N388 1.351 . S
C389 C390 1.434 . S
C390 C381 1.429 . S
C390 N387 1.350 . S
C390 C389 1.434 . S
C391 C392 1.369 . S
C391 C393 1.419 . S
C391 H395 0.930 . S
C392 C391 1.369 . S
C392 C401 1.429 . S
C393 C391 1.419 . S
C393 C394 1.363 . S
C393 H396 0.929 . S
C394 C393 1.363 . S
C394 C400 1.428 . S
H395 C391 0.930 . S
H396 C393 0.929 . S
S397 N398 1.613 . S
S397 N399 1.610 . S
N398 S397 1.613 . S
N398 C401 1.350 . S
N399 S397 1.610 . S
N399 C400 1.351 . S
C400 C394 1.428 . S
C400 N399 1.351 . S
C400 C401 1.434 . S
C401 C392 1.429 . S
C401 N398 1.350 . S
C401 C400 1.434 . S
C402 C403 1.369 . S
C402 C404 1.419 . S
C402 H406 0.930 . S
C403 C402 1.369 . S
C403 C412 1.429 . S
C404 C402 1.419 . S
C404 C405 1.363 . S
C404 H407 0.929 . S
C405 C404 1.363 . S
C405 C411 1.428 . S
H406 C402 0.930 . S
H407 C404 0.929 . S
S408 N409 1.613 . S
S408 N410 1.610 . S
N409 S408 1.613 . S
N409 C412 1.350 . S
N410 S408 1.610 . S
N410 C411 1.351 . S
C411 C405 1.428 . S
C411 N410 1.351 . S
C411 C412 1.434 . S
C412 C403 1.429 . S
C412 N409 1.350 . S
C412 C411 1.434 . S
C413 C414 1.369 . S
C413 C415 1.419 . S
C413 H417 0.930 . S
C414 C413 1.369 . S
C414 C423 1.429 . S
C415 C413 1.419 . S
C415 C416 1.363 . S
C415 H418 0.929 . S
C416 C415 1.363 . S
C416 C422 1.428 . S
H417 C413 0.930 . S
H418 C415 0.929 . S
S419 N420 1.613 . S
S419 N421 1.610 . S
N420 S419 1.613 . S
N420 C423 1.350 . S
N421 S419 1.610 . S
N421 C422 1.351 . S
C422 C416 1.428 . S
C422 N421 1.351 . S
C422 C423 1.434 . S
C423 C414 1.429 . S
C423 N420 1.350 . S
C423 C422 1.434 . S
C424 C425 1.369 . S
C424 C426 1.419 . S
C424 H428 0.930 . S
C425 C424 1.369 . S
C425 C434 1.429 1_545 S
C426 C424 1.419 . S
C426 C427 1.363 . S
C426 H429 0.929 . S
C427 C426 1.363 . S
C427 C433 1.428 1_545 S
H428 C424 0.930 . S
H429 C426 0.929 . S
S430 N431 1.613 . S
S430 N432 1.610 . S
N431 S430 1.613 . S
N431 C434 1.350 . S
N432 S430 1.610 . S
N432 C433 1.351 . S
C433 C427 1.428 1_565 S
C433 N432 1.351 . S
C433 C434 1.434 . S
C434 C425 1.429 1_565 S
C434 N431 1.350 . S
C434 C433 1.434 . S
C435 C436 1.369 . S
C435 C437 1.419 . S
C435 H439 0.930 . S
C436 C435 1.369 . S
C436 C445 1.429 . S
C437 C435 1.419 . S
C437 C438 1.363 . S
C437 H440 0.929 . S
C438 C437 1.363 . S
C438 C444 1.428 . S
H439 C435 0.930 . S
H440 C437 0.929 . S
S441 N442 1.613 . S
S441 N443 1.610 . S
N442 S441 1.613 . S
N442 C445 1.350 . S
N443 S441 1.610 . S
N443 C444 1.351 . S
C444 C438 1.428 . S
C444 N443 1.351 . S
C444 C445 1.434 . S
C445 C436 1.429 . S
C445 N442 1.350 . S
C445 C444 1.434 . S
C446 C447 1.369 . S
C446 C448 1.419 . S
C446 H450 0.930 . S
C447 C446 1.369 . S
C447 C456 1.429 . S
C448 C446 1.419 . S
C448 C449 1.363 . S
C448 H451 0.929 . S
C449 C448 1.363 . S
C449 C455 1.428 . S
H450 C446 0.930 . S
H451 C448 0.929 . S
S452 N453 1.613 . S
S452 N454 1.610 . S
N453 S452 1.613 . S
N453 C456 1.350 . S
N454 S452 1.610 . S
N454 C455 1.351 . S
C455 C449 1.428 . S
C455 N454 1.351 . S
C455 C456 1.434 . S
C456 C447 1.429 . S
C456 N453 1.350 . S
C456 C455 1.434 . S
C457 C458 1.369 . S
C457 C459 1.419 . S
C457 H461 0.930 . S
C458 C457 1.369 . S
C458 C467 1.429 1_655 S
C459 C457 1.419 . S
C459 C460 1.363 1_655 S
C459 H462 0.929 . S
C460 C459 1.363 1_455 S
C460 C466 1.428 . S
H461 C457 0.930 . S
H462 C459 0.929 . S
S463 N464 1.613 . S
S463 N465 1.610 . S
N464 S463 1.613 . S
N464 C467 1.350 . S
N465 S463 1.610 . S
N465 C466 1.351 . S
C466 C460 1.428 . S
C466 N465 1.351 . S
C466 C467 1.434 . S
C467 C458 1.429 1_455 S
C467 N464 1.350 . S
C467 C466 1.434 . S
C468 C469 1.369 . S
C468 C470 1.419 . S
C468 H472 0.930 . S
C469 C468 1.369 . S
C469 C478 1.429 . S
C470 C468 1.419 . S
C470 C471 1.363 . S
C470 H473 0.929 . S
C471 C470 1.363 . S
C471 C477 1.428 . S
H472 C468 0.930 . S
H473 C470 0.929 . S
S474 N475 1.613 . S
S474 N476 1.610 . S
N475 S474 1.613 . S
N475 C478 1.350 . S
N476 S474 1.610 . S
N476 C477 1.351 . S
C477 C471 1.428 . S
C477 N476 1.351 . S
C477 C478 1.434 . S
C478 C469 1.429 . S
C478 N475 1.350 . S
C478 C477 1.434 . S
C479 C480 1.369 1_565 S
C479 C481 1.419 . S
C479 H483 0.930 . S
C480 C479 1.369 1_545 S
C480 C489 1.429 . S
C481 C479 1.419 . S
C481 C482 1.363 . S
C481 H484 0.929 . S
C482 C481 1.363 . S
C482 C488 1.428 1_565 S
H483 C479 0.930 . S
H484 C481 0.929 . S
S485 N486 1.613 . S
S485 N487 1.610 . S
N486 S485 1.613 . S
N486 C489 1.350 . S
N487 S485 1.610 . S
N487 C488 1.351 . S
C488 C482 1.428 1_545 S
C488 N487 1.351 . S
C488 C489 1.434 . S
C489 C480 1.429 . S
C489 N486 1.350 . S
C489 C488 1.434 . S
C490 C491 1.369 . S
C490 C492 1.419 . S
C490 H494 0.930 . S
C491 C490 1.369 . S
C491 C500 1.429 . S
C492 C490 1.419 . S
C492 C493 1.363 . S
C492 H495 0.929 . S
C493 C492 1.363 . S
C493 C499 1.428 . S
H494 C490 0.930 . S
H495 C492 0.929 . S
S496 N497 1.613 . S
S496 N498 1.610 . S
N497 S496 1.613 . S
N497 C500 1.350 . S
N498 S496 1.610 . S
N498 C499 1.351 . S
C499 C493 1.428 . S
C499 N498 1.351 . S
C499 C500 1.434 . S
C500 C491 1.429 . S
C500 N497 1.350 . S
C500 C499 1.434 . S
C501 C502 1.369 . S
C501 C503 1.419 . S
C501 H505 0.930 . S
C502 C501 1.369 . S
C502 C511 1.429 . S
C503 C501 1.419 . S
C503 C504 1.363 . S
C503 H506 0.929 . S
C504 C503 1.363 . S
C504 C510 1.428 . S
H505 C501 0.930 . S
H506 C503 0.929 . S
S507 N508 1.613 . S
S507 N509 1.610 . S
N508 S507 1.613 . S
N508 C511 1.350 . S
N509 S507 1.610 . S
N509 C510 1.351 . S
C510 C504 1.428 . S
C510 N509 1.351 . S
C510 C511 1.434 . S
C511 C502 1.429 . S
C511 N508 1.350 . S
C511 C510 1.434 . S
C512 C513 1.369 1_455 S
C512 C514 1.419 . S
C512 H516 0.930 . S
C513 C512 1.369 1_655 S
C513 C522 1.429 1_655 S
C514 C512 1.419 . S
C514 C515 1.363 . S
C514 H517 0.929 . S
C515 C514 1.363 . S
C515 C521 1.428 . S
H516 C512 0.930 . S
H517 C514 0.929 . S
S518 N519 1.613 . S
S518 N520 1.610 1_655 S
N519 S518 1.613 . S
N519 C522 1.350 1_655 S
N520 S518 1.610 1_455 S
N520 C521 1.351 . S
C521 C515 1.428 . S
C521 N520 1.351 . S
C521 C522 1.434 . S
C522 C513 1.429 1_455 S
C522 N519 1.350 1_455 S
C522 C521 1.434 . S
C523 C524 1.389 . S
C523 C525 1.419 . S
C523 H527 0.930 . S
C524 C523 1.389 . S
C524 C533 1.422 1_545 S
C525 C523 1.419 . S
C525 C526 1.363 . S
C525 H528 0.929 . S
C526 C525 1.363 . S
C526 C532 1.428 . S
H527 C523 0.930 . S
H528 C525 0.929 . S
S529 N530 1.613 . S
S529 N531 1.610 . S
N530 S529 1.613 . S
N530 C533 1.350 . S
N531 S529 1.610 . S
N531 C532 1.351 1_565 S
C532 C526 1.428 . S
C532 N531 1.351 1_545 S
C532 C533 1.434 1_545 S
C533 C524 1.422 1_565 S
C533 N530 1.350 . S
C533 C532 1.434 1_565 S
C534 C535 1.369 . S
C534 C536 1.419 . S
C534 H538 0.930 . S
C535 C534 1.369 . S
C535 C544 1.429 . S
C536 C534 1.419 . S
C536 C537 1.363 . S
C536 H539 0.929 . S
C537 C536 1.363 . S
C537 C543 1.428 . S
H538 C534 0.930 . S
H539 C536 0.929 . S
S540 N541 1.613 . S
S540 N542 1.610 . S
N541 S540 1.613 . S
N541 C544 1.350 . S
N542 S540 1.610 . S
N542 C543 1.351 . S
C543 C537 1.428 . S
C543 N542 1.351 . S
C543 C544 1.434 . S
C544 C535 1.429 . S
C544 N541 1.350 . S
C544 C543 1.434 . S
C545 C546 1.369 . S
C545 C547 1.419 . S
C545 H549 0.930 . S
C546 C545 1.369 . S
C546 C555 1.429 . S
C547 C545 1.419 . S
C547 C548 1.363 . S
C547 H550 0.929 . S
C548 C547 1.363 . S
C548 C554 1.428 . S
H549 C545 0.930 . S
H550 C547 0.929 . S
S551 N552 1.613 . S
S551 N553 1.610 . S
N552 S551 1.613 . S
N552 C555 1.350 . S
N553 S551 1.610 . S
N553 C554 1.351 . S
C554 C548 1.428 . S
C554 N553 1.351 . S
C554 C555 1.434 . S
C555 C546 1.429 . S
C555 N552 1.350 . S
C555 C554 1.434 . S
C556 C557 1.369 . S
C556 C558 1.419 . S
C556 H560 0.930 1_556 S
C557 C556 1.369 . S
C557 C566 1.429 . S
C558 C556 1.419 . S
C558 C559 1.363 . S
C558 H561 0.929 . S
C559 C558 1.363 . S
C559 C565 1.428 . S
H560 C556 0.930 1_554 S
H561 C558 0.929 . S
S562 N563 1.613 . S
S562 N564 1.610 . S
N563 S562 1.613 . S
N563 C566 1.350 . S
N564 S562 1.610 . S
N564 C565 1.351 . S
C565 C559 1.428 . S
C565 N564 1.351 . S
C565 C566 1.434 . S
C566 C557 1.429 . S
C566 N563 1.350 . S
C566 C565 1.434 . S
C567 C568 1.367 1_545 S
C567 C569 1.419 . S
C567 H571 0.930 . S
C568 C567 1.367 1_565 S
C568 C577 1.431 . S
C569 C567 1.419 . S
C569 C570 1.346 1_545 S
C569 H572 0.929 . S
C570 C569 1.346 1_565 S
C570 C576 1.444 . S
H571 C567 0.930 . S
H572 C569 0.929 . S
S573 N574 1.613 . S
S573 N575 1.610 1_554 S
N574 S573 1.613 . S
N574 C577 1.350 1_554 S
N575 S573 1.610 1_556 S
N575 C576 1.351 . S
C576 C570 1.444 . S
C576 N575 1.351 . S
C576 C577 1.434 . S
C577 C568 1.431 . S
C577 N574 1.350 1_556 S
C577 C576 1.434 . S
C578 C579 1.369 . S
C578 C580 1.419 . S
C578 H582 0.930 . S
C579 C578 1.369 . S
C579 C588 1.429 . S
C580 C578 1.419 . S
C580 C581 1.363 . S
C580 H583 0.929 . S
C581 C580 1.363 . S
C581 C587 1.428 . S
H582 C578 0.930 . S
H583 C580 0.929 . S
S584 N585 1.613 . S
S584 N586 1.610 . S
N585 S584 1.613 . S
N585 C588 1.350 . S
N586 S584 1.610 . S
N586 C587 1.351 . S
C587 C581 1.428 . S
C587 N586 1.351 . S
C587 C588 1.434 . S
C588 C579 1.429 . S
C588 N585 1.350 . S
C588 C587 1.434 . S
C589 C590 1.369 . S
C589 C591 1.419 . S
C589 H593 0.930 . S
C590 C589 1.369 . S
C590 C599 1.429 . S
C591 C589 1.419 . S
C591 C592 1.363 . S
C591 H594 0.929 . S
C592 C591 1.363 . S
C592 C598 1.428 . S
H593 C589 0.930 . S
H594 C591 0.929 . S
S595 N596 1.613 . S
S595 N597 1.610 1_554 S
N596 S595 1.613 . S
N596 C599 1.350 1_554 S
N597 S595 1.610 1_556 S
N597 C598 1.351 . S
C598 C592 1.428 . S
C598 N597 1.351 . S
C598 C599 1.434 . S
C599 C590 1.429 . S
C599 N596 1.350 1_556 S
C599 C598 1.434 . S
C600 C601 1.369 . S
C600 C602 1.419 . S
C600 H604 0.930 . S
C601 C600 1.369 . S
C601 C610 1.429 1_655 S
C602 C600 1.419 . S
C602 C603 1.363 . S
C602 H605 0.929 . S
C603 C602 1.363 . S
C603 C609 1.428 1_655 S
H604 C600 0.930 . S
H605 C602 0.929 . S
S606 N607 1.613 . S
S606 N608 1.610 . S
N607 S606 1.613 . S
N607 C610 1.350 . S
N608 S606 1.610 . S
N608 C609 1.351 . S
C609 C603 1.428 1_455 S
C609 N608 1.351 . S
C609 C610 1.434 . S
C610 C601 1.429 1_455 S
C610 N607 1.350 . S
C610 C609 1.434 . S
C611 C612 1.369 1_545 S
C611 C613 1.417 1_545 S
C611 H615 0.930 . S
C612 C611 1.369 1_565 S
C612 C621 1.429 . S
C613 C611 1.417 1_565 S
C613 C614 1.370 . S
C613 H616 0.924 1_565 S
C614 C613 1.370 . S
C614 C620 1.428 . S
H615 C611 0.930 . S
H616 C613 0.924 1_545 S
S617 N618 1.613 . S
S617 N619 1.610 . S
N618 S617 1.613 . S
N618 C621 1.350 . S
N619 S617 1.610 . S
N619 C620 1.351 . S
C620 C614 1.428 . S
C620 N619 1.351 . S
C620 C621 1.434 . S
C621 C612 1.429 . S
C621 N618 1.350 . S
C621 C620 1.434 . S
C622 C623 1.369 . S
C622 C624 1.419 . S
C622 H626 0.930 . S
C623 C622 1.369 . S
C623 C632 1.429 . S
C624 C622 1.419 . S
C624 C625 1.363 . S
C624 H627 0.929 . S
C625 C624 1.363 . S
C625 C631 1.428 . S
H626 C622 0.930 . S
H627 C624 0.929 . S
S628 N629 1.613 . S
S628 N630 1.610 . S
N629 S628 1.613 . S
N629 C632 1.350 . S
N630 S628 1.610 . S
N630 C631 1.351 . S
C631 C625 1.428 . S
C631 N630 1.351 . S
C631 C632 1.434 . S
C632 C623 1.429 . S
C632 N629 1.350 . S
C632 C631 1.434 . S
C633 C634 1.369 . S
C633 C635 1.419 . S
C633 H637 0.930 . S
C634 C633 1.369 . S
C634 C643 1.429 . S
C635 C633 1.419 . S
C635 C636 1.363 . S
C635 H638 0.929 . S
C636 C635 1.363 . S
C636 C642 1.428 . S
H637 C633 0.930 . S
H638 C635 0.929 . S
S639 N640 1.613 . S
S639 N641 1.610 . S
N640 S639 1.613 . S
N640 C643 1.350 . S
N641 S639 1.610 . S
N641 C642 1.351 . S
C642 C636 1.428 . S
C642 N641 1.351 . S
C642 C643 1.434 . S
C643 C634 1.429 . S
C643 N640 1.350 . S
C643 C642 1.434 . S
C381 C241 1.798 1_565 S
C383 C304 1.828 . S
C394 C327 2.025 . S
C392 C277 1.981 . S
C405 C350 1.856 . S
C403 C169 1.797 . S
C416 C377 1.740 . S
C414 C205 1.842 . S
C427 C305 1.702 . S
C425 C97 1.652 . S
C436 C133 1.802 . S
C438 C328 1.807 . S
C447 C25 1.597 . S
C449 C351 1.645 . S
C458 C61 1.763 1_556 S
C460 C376 1.850 . S
C471 C306 0.824 . S
C469 C211 0.804 . S
C482 C329 0.425 . S
C480 C247 0.568 . S
C493 C352 0.621 . S
C491 C253 0.678 . S
C502 C175 0.716 . S
C504 C378 0.718 . S
C513 C67 0.833 . S
C515 C309 0.800 . S
C526 C332 0.749 . S
C524 C103 0.785 . S
C537 C355 0.841 . S
C535 C109 0.959 . S
C546 C31 0.517 . S
C548 C375 0.371 . S
C557 C181 2.051 1_556 S
C559 C307 2.019 . S
C568 C217 1.954 1_565 S
C570 C330 1.990 1_565 S
C581 C353 2.047 . S
C579 C283 1.917 . S
C592 C374 1.881 . S
C590 C145 1.731 . S
C601 C37 2.103 . S
C603 C308 2.059 . S
C614 C331 1.906 . S
C612 C73 1.962 1_565 S
C625 C354 1.933 . S
C623 C139 1.904 . S
C634 C1 2.061 . S
C636 C373 2.158 . S
