# Generated by pormake.
# Topology ctn, (3,4)-cn, num edge types: 1
# Building blocks:
#     Node 0, Type 0, BuildingBlock: MIDCAF_clean_linker_0, # of connection points: 3
#     Node 1, Type 0, BuildingBlock: MIDCAF_clean_linker_0, # of connection points: 3
#     Node 2, Type 0, BuildingBlock: MIDCAF_clean_linker_0, # of connection points: 3
#     Node 3, Type 0, BuildingBlock: MIDCAF_clean_linker_0, # of connection points: 3
#     Node 4, Type 0, BuildingBlock: MIDCAF_clean_linker_0, # of connection points: 3
#     Node 5, Type 0, BuildingBlock: MIDCAF_clean_linker_0, # of connection points: 3
#     Node 6, Type 0, BuildingBlock: MIDCAF_clean_linker_0, # of connection points: 3
#     Node 7, Type 0, BuildingBlock: MIDCAF_clean_linker_0, # of connection points: 3
#     Node 8, Type 0, BuildingBlock: MIDCAF_clean_linker_0, # of connection points: 3
#     Node 9, Type 0, BuildingBlock: MIDCAF_clean_linker_0, # of connection points: 3
#     Node 10, Type 0, BuildingBlock: MIDCAF_clean_linker_0, # of connection points: 3
#     Node 11, Type 0, BuildingBlock: MIDCAF_clean_linker_0, # of connection points: 3
#     Node 12, Type 0, BuildingBlock: MIDCAF_clean_linker_0, # of connection points: 3
#     Node 13, Type 0, BuildingBlock: MIDCAF_clean_linker_0, # of connection points: 3
#     Node 14, Type 0, BuildingBlock: MIDCAF_clean_linker_0, # of connection points: 3
#     Node 15, Type 0, BuildingBlock: MIDCAF_clean_linker_0, # of connection points: 3
#     Node 16, Type 1, BuildingBlock: TATPOV_clean_sbu_0, # of connection points: 4
#     Node 17, Type 1, BuildingBlock: TATPOV_clean_sbu_0, # of connection points: 4
#     Node 18, Type 1, BuildingBlock: TATPOV_clean_sbu_0, # of connection points: 4
#     Node 19, Type 1, BuildingBlock: TATPOV_clean_sbu_0, # of connection points: 4
#     Node 20, Type 1, BuildingBlock: TATPOV_clean_sbu_0, # of connection points: 4
#     Node 21, Type 1, BuildingBlock: TATPOV_clean_sbu_0, # of connection points: 4
#     Node 22, Type 1, BuildingBlock: TATPOV_clean_sbu_0, # of connection points: 4
#     Node 23, Type 1, BuildingBlock: TATPOV_clean_sbu_0, # of connection points: 4
#     Node 24, Type 1, BuildingBlock: TATPOV_clean_sbu_0, # of connection points: 4
#     Node 25, Type 1, BuildingBlock: TATPOV_clean_sbu_0, # of connection points: 4
#     Node 26, Type 1, BuildingBlock: TATPOV_clean_sbu_0, # of connection points: 4
#     Node 27, Type 1, BuildingBlock: TATPOV_clean_sbu_0, # of connection points: 4
#     Edge 28, Type (0, 1), BuildingBlock: TEMPAE_clean_linker_10, # of connection points: 2
#     Edge 29, Type (0, 1), BuildingBlock: TEMPAE_clean_linker_10, # of connection points: 2
#     Edge 30, Type (0, 1), BuildingBlock: TEMPAE_clean_linker_10, # of connection points: 2
#     Edge 31, Type (0, 1), BuildingBlock: TEMPAE_clean_linker_10, # of connection points: 2
#     Edge 32, Type (0, 1), BuildingBlock: TEMPAE_clean_linker_10, # of connection points: 2
#     Edge 33, Type (0, 1), BuildingBlock: TEMPAE_clean_linker_10, # of connection points: 2
#     Edge 34, Type (0, 1), BuildingBlock: TEMPAE_clean_linker_10, # of connection points: 2
#     Edge 35, Type (0, 1), BuildingBlock: TEMPAE_clean_linker_10, # of connection points: 2
#     Edge 36, Type (0, 1), BuildingBlock: TEMPAE_clean_linker_10, # of connection points: 2
#     Edge 37, Type (0, 1), BuildingBlock: TEMPAE_clean_linker_10, # of connection points: 2
#     Edge 38, Type (0, 1), BuildingBlock: TEMPAE_clean_linker_10, # of connection points: 2
#     Edge 39, Type (0, 1), BuildingBlock: TEMPAE_clean_linker_10, # of connection points: 2
#     Edge 40, Type (0, 1), BuildingBlock: TEMPAE_clean_linker_10, # of connection points: 2
#     Edge 41, Type (0, 1), BuildingBlock: TEMPAE_clean_linker_10, # of connection points: 2
#     Edge 42, Type (0, 1), BuildingBlock: TEMPAE_clean_linker_10, # of connection points: 2
#     Edge 43, Type (0, 1), BuildingBlock: TEMPAE_clean_linker_10, # of connection points: 2
#     Edge 44, Type (0, 1), BuildingBlock: TEMPAE_clean_linker_10, # of connection points: 2
#     Edge 45, Type (0, 1), BuildingBlock: TEMPAE_clean_linker_10, # of connection points: 2
#     Edge 46, Type (0, 1), BuildingBlock: TEMPAE_clean_linker_10, # of connection points: 2
#     Edge 47, Type (0, 1), BuildingBlock: TEMPAE_clean_linker_10, # of connection points: 2
#     Edge 48, Type (0, 1), BuildingBlock: TEMPAE_clean_linker_10, # of connection points: 2
#     Edge 49, Type (0, 1), BuildingBlock: TEMPAE_clean_linker_10, # of connection points: 2
#     Edge 50, Type (0, 1), BuildingBlock: TEMPAE_clean_linker_10, # of connection points: 2
#     Edge 51, Type (0, 1), BuildingBlock: TEMPAE_clean_linker_10, # of connection points: 2
#     Edge 52, Type (0, 1), BuildingBlock: TEMPAE_clean_linker_10, # of connection points: 2
#     Edge 53, Type (0, 1), BuildingBlock: TEMPAE_clean_linker_10, # of connection points: 2
#     Edge 54, Type (0, 1), BuildingBlock: TEMPAE_clean_linker_10, # of connection points: 2
#     Edge 55, Type (0, 1), BuildingBlock: TEMPAE_clean_linker_10, # of connection points: 2
#     Edge 56, Type (0, 1), BuildingBlock: TEMPAE_clean_linker_10, # of connection points: 2
#     Edge 57, Type (0, 1), BuildingBlock: TEMPAE_clean_linker_10, # of connection points: 2
#     Edge 58, Type (0, 1), BuildingBlock: TEMPAE_clean_linker_10, # of connection points: 2
#     Edge 59, Type (0, 1), BuildingBlock: TEMPAE_clean_linker_10, # of connection points: 2
#     Edge 60, Type (0, 1), BuildingBlock: TEMPAE_clean_linker_10, # of connection points: 2
#     Edge 61, Type (0, 1), BuildingBlock: TEMPAE_clean_linker_10, # of connection points: 2
#     Edge 62, Type (0, 1), BuildingBlock: TEMPAE_clean_linker_10, # of connection points: 2
#     Edge 63, Type (0, 1), BuildingBlock: TEMPAE_clean_linker_10, # of connection points: 2
#     Edge 64, Type (0, 1), BuildingBlock: TEMPAE_clean_linker_10, # of connection points: 2
#     Edge 65, Type (0, 1), BuildingBlock: TEMPAE_clean_linker_10, # of connection points: 2
#     Edge 66, Type (0, 1), BuildingBlock: TEMPAE_clean_linker_10, # of connection points: 2
#     Edge 67, Type (0, 1), BuildingBlock: TEMPAE_clean_linker_10, # of connection points: 2
#     Edge 68, Type (0, 1), BuildingBlock: TEMPAE_clean_linker_10, # of connection points: 2
#     Edge 69, Type (0, 1), BuildingBlock: TEMPAE_clean_linker_10, # of connection points: 2
#     Edge 70, Type (0, 1), BuildingBlock: TEMPAE_clean_linker_10, # of connection points: 2
#     Edge 71, Type (0, 1), BuildingBlock: TEMPAE_clean_linker_10, # of connection points: 2
#     Edge 72, Type (0, 1), BuildingBlock: TEMPAE_clean_linker_10, # of connection points: 2
#     Edge 73, Type (0, 1), BuildingBlock: TEMPAE_clean_linker_10, # of connection points: 2
#     Edge 74, Type (0, 1), BuildingBlock: TEMPAE_clean_linker_10, # of connection points: 2
#     Edge 75, Type (0, 1), BuildingBlock: TEMPAE_clean_linker_10, # of connection points: 2
# Relax obj value: 0.003
# Max RMSD: 0.048
# Mean RMSD: 0.021
data_MOF--net-ctn--node1-TATPOV_clean_sbu_0--node2-MIDCAF_clean_linker_0--edge1-TEMPAE_clean_linker_10
_symmetry_space_group_name_H-M    P1
_symmetry_Int_Tables_number       1
_symmetry_cell_setting            triclinic
loop_
_symmetry_equiv_pos_as_xyz
'x, y, z'
_cell_length_a     67.586569
_cell_length_b     67.611701
_cell_length_c     67.58456
_cell_angle_alpha  91.068339
_cell_angle_beta   91.036985
_cell_angle_gamma 91.056761
loop_
_atom_site_label
_atom_site_type_symbol
_atom_site_fract_x
_atom_site_fract_y
_atom_site_fract_z
_atom_type_partial_charge
C0 C 0.97207 0.03753 0.07604 0.0
C1 C 0.97415 0.02235 0.08982 0.0
C2 C 0.98929 0.00861 0.08719 0.0
C3 C 0.00212 0.01009 0.07124 0.0
H4 H 0.04795 0.98153 0.0435 0.0
H5 H 0.07502 0.95846 0.03966 0.0
H6 H 0.09944 0.99459 0.99376 0.0
H7 H 0.07255 0.01775 0.99759 0.0
H8 H 0.04772 0.05227 0.98045 0.0
H9 H 0.0437 0.07861 0.95673 0.0
H10 H 0.99197 0.09844 0.98739 0.0
H11 H 0.99572 0.07191 0.011 0.0
H12 H 0.98278 0.05092 0.0498 0.0
H13 H 0.96041 0.04821 0.07748 0.0
H14 H 0.99145 0.99687 0.09765 0.0
H15 H 0.01367 -0.00071 0.06979 0.0
N16 N 0.02883 0.01407 0.03841 0.0
N17 N 0.03932 0.03062 0.01017 0.0
N18 N 0.0118 0.04184 0.02743 0.0
C19 C 0.04163 0.01574 0.02321 0.0
C20 C 0.02444 0.04372 0.01212 0.0
C21 C 0.01389 0.02708 0.04066 0.0
C22 C 0.05802 0.00156 0.02088 0.0
C23 C 0.05908 0.9846 0.03259 0.0
C24 C 0.07453 0.9713 0.03032 0.0
C25 C 0.08938 0.97472 0.01642 0.0
C26 C 0.08835 0.99166 0.00474 0.0
C27 C 0.07283 0.00488 0.00689 0.0
C28 C 0.02205 0.05989 0.9977 0.0
C29 C 0.03546 0.0622 0.98219 0.0
C30 C 0.03323 0.0774 0.96861 0.0
C31 C 0.01752 0.09065 0.97016 0.0
C32 C 0.0041 0.08834 0.98564 0.0
C33 C 0.00634 0.07317 -0.00075 0.0
C34 C 0.00011 0.02533 0.05749 0.0
C35 C 0.98487 0.039 0.06008 0.0
C36 C 0.22171 0.64521 0.26104 0.0
C37 C 0.20319 0.64521 0.25122 0.0
C38 C 0.19926 0.66017 0.23763 0.0
C39 C 0.21372 0.67446 0.23349 0.0
H40 H 0.22505 0.7299 0.2049 0.0
H41 H 0.21936 0.75207 0.17711 0.0
H42 H 0.28114 0.74939 0.1626 0.0
H43 H 0.28706 0.72772 0.19058 0.0
H44 H 0.31658 0.71458 0.22643 0.0
H45 H 0.34898 0.71457 0.2428 0.0
H46 H 0.32423 0.68305 0.29178 0.0
H47 H 0.29166 0.68298 0.27543 0.0
H48 H 0.25041 0.65874 0.26444 0.0
H49 H 0.22528 0.63376 0.27144 0.0
H50 H 0.18503 0.66073 0.23004 0.0
H51 H 0.21025 0.68556 0.22267 0.0
N52 N 0.24516 0.70129 0.2225 0.0
N53 N 0.27821 0.71236 0.22507 0.0
N54 N 0.26663 0.68757 0.24597 0.0
C55 C 0.26 0.71338 0.21635 0.0
C56 C 0.28161 0.69961 0.24001 0.0
C57 C 0.24838 0.68824 0.23723 0.0
C58 C 0.25651 0.72707 0.1999 0.0
C59 C 0.23743 0.73411 0.19582 0.0
C60 C 0.23416 0.74681 0.18003 0.0
C61 C 0.24982 0.75227 0.16781 0.0
C62 C 0.26885 0.74527 0.17185 0.0
C63 C 0.27222 0.73296 0.18787 0.0
C64 C 0.30146 0.69886 0.24964 0.0
C65 C 0.318 0.70755 0.24064 0.0
C66 C 0.33662 0.70741 0.24993 0.0
C67 C 0.33913 0.69875 0.26853 0.0
C68 C 0.32269 0.68988 0.27747 0.0
C69 C 0.30407 0.6898 0.26806 0.0
C70 C 0.23248 0.67412 0.24285 0.0
C71 C 0.23617 0.6595 0.25692 0.0
C72 C 0.98633 0.3782 0.0138 0.0
C73 C 0.97444 0.37625 0.99657 0.0
C74 C 0.95906 0.38964 0.9936 0.0
C75 C 0.95567 0.40468 0.00747 0.0
H76 H 0.91857 0.45001 0.01862 0.0
H77 H 0.89487 0.47526 0.01001 0.0
H78 H 0.91536 0.51121 0.06001 0.0
H79 H 0.93927 0.48606 0.06863 0.0
H80 H 0.96185 0.45674 0.10438 0.0
H81 H 0.98186 0.46025 0.13452 0.0
H82 H 0.03068 0.43253 0.10495 0.0
H83 H 0.01014 0.428 0.07517 0.0
H84 H 0.99239 0.39436 0.04082 0.0
H85 H 0.99819 0.36801 0.01657 0.0
H86 H 0.94983 0.38873 0.98033 0.0
H87 H 0.94374 0.41476 0.00456 0.0
N88 N 0.94958 0.43618 0.03571 0.0
N89 N 0.95752 0.45293 0.06552 0.0
N90 N 0.97541 0.425 0.05596 0.0
C91 C 0.94622 0.45121 0.04874 0.0
C92 C 0.97212 0.43989 0.06922 0.0
C93 C 0.96409 0.42298 0.0392 0.0
C94 C 0.93094 0.46601 0.04427 0.0
C95 C 0.918 0.46322 0.02788 0.0
C96 C 0.90431 0.47764 0.023 0.0
C97 C 0.90331 0.49521 0.03432 0.0
C98 C 0.91596 0.49788 0.05091 0.0
C99 C 0.92958 0.48341 0.05588 0.0
C100 C 0.98442 0.44207 0.08744 0.0
C101 C 0.97686 0.45138 0.10436 0.0
C102 C 0.98843 0.45352 0.12161 0.0
C103 C 0.00801 0.4468 0.12224 0.0
C104 C 0.01558 0.43759 0.1052 0.0
C105 C 0.00385 0.43507 0.08806 0.0
C106 C 0.9676 0.40675 0.02468 0.0
C107 C 0.98293 0.39327 0.02773 0.0
C108 C 0.76478 0.73863 0.15348 0.0
C109 C 0.75437 0.72071 0.14994 0.0
C110 C 0.74018 0.71456 0.16358 0.0
C111 C 0.73631 0.72625 0.18031 0.0
H112 H 0.69277 0.73814 0.22169 0.0
H113 H 0.66408 0.73163 0.24178 0.0
H114 H 0.68902 0.7697 0.28831 0.0
H115 H 0.71736 0.77698 0.26769 0.0
H116 H 0.75168 0.80976 0.2537 0.0
H117 H 0.76901 0.84172 0.25757 0.0
H118 H 0.78748 0.8378 0.19685 0.0
H119 H 0.77035 0.80589 0.1929 0.0
H120 H 0.76926 0.76402 0.17236 0.0
H121 H 0.77601 0.74362 0.14338 0.0
H122 H 0.73183 0.70088 0.16115 0.0
H123 H 0.72515 0.72116 0.19043 0.0
N124 N 0.72789 0.75178 0.21398 0.0
N125 N 0.7344 0.78064 0.23303 0.0
N126 N 0.7526 0.7742 0.2045 0.0
C127 C 0.72385 0.7635 0.22991 0.0
C128 C 0.74878 0.78611 0.22031 0.0
C129 C 0.74235 0.75697 0.20128 0.0
C130 C 0.7073 0.75822 0.24301 0.0
C131 C 0.69224 0.745 0.23628 0.0
C132 C 0.6758 0.74115 0.24791 0.0
C133 C 0.6741 0.75015 0.26673 0.0
C134 C 0.68957 0.76279 0.27376 0.0
C135 C 0.7059 0.7669 0.26197 0.0
C136 C 0.75962 0.80525 0.223 0.0
C137 C 0.75947 0.81568 0.24119 0.0
C138 C 0.76946 0.83391 0.24345 0.0
C139 C 0.77953 0.84219 0.22749 0.0
C140 C 0.7797 0.83179 0.20934 0.0
C141 C 0.76998 0.81346 0.20715 0.0
C142 C 0.7466 0.7443 0.18377 0.0
C143 C 0.76096 0.75028 0.17019 0.0
C144 C 0.04827 0.93525 0.51148 0.0
C145 C 0.04272 0.91605 0.50479 0.0
C146 C 0.04193 0.91211 0.48424 0.0
C147 C 0.04591 0.92707 0.47081 0.0
H148 H 0.01646 0.95365 0.42126 0.0
H149 H 0.99475 0.95754 0.39259 0.0
H150 H 0.03046 0.00729 0.37411 0.0
H151 H 0.05198 0.00375 0.40305 0.0
H152 H 0.08275 0.02309 0.4326 0.0
H153 H 0.10962 0.04689 0.43894 0.0
H154 H 0.1227 0.01929 0.49467 0.0
H155 H 0.09602 0.99518 0.48826 0.0
H156 H 0.05677 0.96472 0.50368 0.0
H157 H 0.04866 0.93909 0.5271 0.0
H158 H 0.03823 0.89745 0.47843 0.0
H159 H 0.04494 0.92363 0.4551 0.0
N160 N 0.04485 0.9625 0.44602 0.0
N161 N 0.0616 0.9918 0.43781 0.0
N162 N 0.0686 0.97669 0.468 0.0
C163 C 0.04794 0.9774 0.43313 0.0
C164 C 0.07203 0.99154 0.45517 0.0
C165 C 0.05512 0.9621 0.46346 0.0
C166 C 0.03588 0.97851 0.41464 0.0
C167 C 0.01985 0.96531 0.41102 0.0
C168 C 0.00744 0.96746 0.39447 0.0
C169 C 0.01081 0.98279 0.3811 0.0
C170 C 0.02728 0.99551 0.3843 0.0
C171 C 0.03966 0.99342 0.40088 0.0
C172 C 0.08731 0.00703 0.45981 0.0
C173 C 0.0912 0.02214 0.4463 0.0
C174 C 0.10652 0.03592 0.45 0.0
C175 C 0.11831 0.03493 0.46728 0.0
C176 C 0.11401 0.02027 0.48111 0.0
C177 C 0.09867 0.00648 0.47743 0.0
C178 C 0.05133 0.94617 0.4776 0.0
C179 C 0.05277 0.95005 0.49805 0.0
C180 C 0.23306 0.75071 0.83909 0.0
C181 C 0.21666 0.75974 0.84768 0.0
C182 C 0.19813 0.75805 0.83803 0.0
C183 C 0.19604 0.74758 0.82005 0.0
H184 H 0.16384 0.74748 0.76694 0.0
H185 H 0.13477 0.75227 0.74605 0.0
H186 H 0.14954 0.70094 0.71067 0.0
H187 H 0.17902 0.69639 0.73126 0.0
H188 H 0.22186 0.67826 0.73734 0.0
H189 H 0.24441 0.65147 0.73016 0.0
H190 H 0.27583 0.66389 0.78535 0.0
H191 H 0.25369 0.69091 0.79236 0.0
H192 H 0.24382 0.73307 0.81512 0.0
H193 H 0.24748 0.75168 0.84634 0.0
H194 H 0.18528 0.76497 0.84431 0.0
H195 H 0.18153 0.74653 0.81299 0.0
N196 N 0.194 0.72936 0.78078 0.0
N197 N 0.20519 0.70499 0.75876 0.0
N198 N 0.22366 0.71317 0.78757 0.0
C199 C 0.19149 0.7186 0.76371 0.0
C200 C 0.22134 0.70218 0.7706 0.0
C201 C 0.21004 0.72677 0.79277 0.0
C202 C 0.17381 0.72152 0.75084 0.0
C203 C 0.16095 0.73717 0.75472 0.0
C204 C 0.14417 0.73987 0.74279 0.0
C205 C 0.13974 0.72692 0.72674 0.0
C206 C 0.15263 0.71131 0.72278 0.0
C207 C 0.1695 0.70866 0.73466 0.0
C208 C 0.23581 0.68671 0.76553 0.0
C209 C 0.23368 0.67542 0.74789 0.0
C210 C 0.24657 0.65999 0.74378 0.0
C211 C 0.26189 0.65546 0.7572 0.0
C212 C 0.26437 0.66712 0.77454 0.0
C213 C 0.25153 0.68257 0.77864 0.0
C214 C 0.21239 0.73831 0.81154 0.0
C215 C 0.23092 0.73998 0.82128 0.0
C216 C 0.95115 0.62765 0.50242 0.0
C217 C 0.94488 0.62752 0.52217 0.0
C218 C 0.93582 0.61018 0.52927 0.0
C219 C 0.93305 0.5935 0.51692 0.0
H220 H 0.89137 0.5471 0.50387 0.0
H221 H 0.8652 0.52253 0.50924 0.0
H222 H 0.88677 0.48696 0.46075 0.0
H223 H 0.91255 0.51151 0.45507 0.0
H224 H 0.94525 0.52795 0.42815 0.0
H225 H 0.9695 0.52026 0.40319 0.0
H226 H 0.00678 0.56882 0.4248 0.0
H227 H 0.98257 0.57651 0.45007 0.0
H228 H 0.95377 0.61148 0.47512 0.0
H229 H 0.95773 0.64082 0.49623 0.0
H230 H 0.9311 0.60935 0.54445 0.0
H231 H 0.92612 0.58037 0.52285 0.0
N232 N 0.92245 0.56242 0.48758 0.0
N233 N 0.93289 0.54331 0.46057 0.0
N234 N 0.94975 0.57288 0.46919 0.0
C235 C 0.92016 0.54611 0.47564 0.0
C236 C 0.94774 0.55656 0.45726 0.0
C237 C 0.93716 0.5759 0.48436 0.0
C238 C 0.90412 0.53135 0.47902 0.0
C239 C 0.89051 0.53408 0.4943 0.0
C240 C 0.87554 0.51996 0.49745 0.0
C241 C 0.87385 0.50283 0.48537 0.0
C242 C 0.88743 0.50015 0.4701 0.0
C243 C 0.90234 0.51422 0.46694 0.0
C244 C 0.96197 0.55279 0.44123 0.0
C245 C 0.95853 0.53711 0.42758 0.0
C246 C 0.97238 0.53277 0.41314 0.0
C247 C 0.99003 0.54395 0.41204 0.0
C248 C 0.99336 0.55986 0.42542 0.0
C249 C 0.97943 0.5643 0.43982 0.0
C250 C 0.93962 0.59364 0.49733 0.0
C251 C 0.94874 0.61086 0.49023 0.0
C252 C 0.89934 0.82055 0.80469 0.0
C253 C 0.90056 0.83223 0.78775 0.0
C254 C 0.88893 0.84919 0.78652 0.0
C255 C 0.87569 0.85386 0.80143 0.0
H256 H 0.81542 0.86979 0.80318 0.0
H257 H 0.78587 0.88746 0.79376 0.0
H258 H 0.77386 0.89887 0.85558 0.0
H259 H 0.80279 0.87992 0.86489 0.0
H260 H 0.80574 0.82334 0.876 0.0
H261 H 0.80023 0.79648 0.89848 0.0
H262 H 0.86354 0.79019 0.90594 0.0
H263 H 0.86891 0.81636 0.88215 0.0
H264 H 0.88513 0.8156 0.83223 0.0
H265 H 0.90829 0.80751 0.80614 0.0
H266 H 0.88937 0.85838 0.77357 0.0
H267 H 0.86651 0.86669 0.79962 0.0
N268 N 0.84341 0.85831 0.82818 0.0
N269 N 0.82648 0.84917 0.85664 0.0
N270 N 0.85634 0.83398 0.84876 0.0
C271 C 0.82782 0.8605 0.84034 0.0
C272 C 0.84071 0.83592 0.86098 0.0
C273 C 0.85785 0.84522 0.83236 0.0
C274 C 0.81132 0.87339 0.83476 0.0
C275 C 0.80656 0.87626 0.81474 0.0
C276 C 0.78961 0.88653 0.80935 0.0
C277 C 0.77726 0.89458 0.82387 0.0
C278 C 0.78265 0.89247 0.84394 0.0
C279 C 0.79934 0.88176 0.84932 0.0
C280 C 0.83776 0.82184 0.87716 0.0
C281 C 0.8185 0.81644 0.88266 0.0
C282 C 0.81536 0.80104 0.89575 0.0
C283 C 0.83142 0.79091 0.90406 0.0
C284 C 0.85076 0.79723 0.89948 0.0
C285 C 0.85388 0.81235 0.88597 0.0
C286 C 0.87376 0.84169 0.81795 0.0
C287 C 0.88613 0.82527 0.81968 0.0
C288 C 0.39352 0.31794 0.27646 0.0
C289 C 0.38683 0.32112 0.25704 0.0
C290 C 0.36827 0.32953 0.25381 0.0
C291 C 0.35643 0.33455 0.26979 0.0
H292 H 0.31253 0.37359 0.28721 0.0
H293 H 0.2834 0.39387 0.28259 0.0
H294 H 0.26358 0.37845 0.34082 0.0
H295 H 0.29275 0.35861 0.34568 0.0
H296 H 0.31516 0.32811 0.3706 0.0
H297 H 0.31104 0.30297 0.39557 0.0
H298 H 0.35552 0.26766 0.36745 0.0
H299 H 0.36 0.29291 0.34268 0.0
H300 H 0.38679 0.31958 0.30731 0.0
H301 H 0.40782 0.31143 0.2792 0.0
H302 H 0.3629 0.33211 0.23889 0.0
H303 H 0.34205 0.34078 0.26682 0.0
N304 N 0.33481 0.34801 0.30429 0.0
N305 N 0.32335 0.33957 0.33557 0.0
N306 N 0.35085 0.32363 0.32257 0.0
C307 C 0.32177 0.35069 0.31912 0.0
C308 C 0.33781 0.32603 0.33745 0.0
C309 C 0.34949 0.33463 0.30599 0.0
C310 C 0.30498 0.36433 0.31678 0.0
C311 C 0.30208 0.37468 0.29913 0.0
C312 C 0.28533 0.38623 0.29642 0.0
C313 C 0.27113 0.3877 0.3113 0.0
C314 C 0.27434 0.37783 0.32915 0.0
C315 C 0.29105 0.36632 0.33187 0.0
C316 C 0.33769 0.31241 0.35439 0.0
C317 C 0.32433 0.31515 0.36988 0.0
C318 C 0.32189 0.30071 0.38418 0.0
C319 C 0.33274 0.2832 0.38332 0.0
C320 C 0.34702 0.28104 0.36861 0.0
C321 C 0.34951 0.2955 0.35432 0.0
C322 C 0.36278 0.33083 0.28927 0.0
C323 C 0.38149 0.32256 0.29246 0.0
C324 C 0.50345 0.88686 0.49656 0.0
C325 C 0.4907 0.88376 0.48009 0.0
C326 C 0.47603 0.8977 0.47622 0.0
C327 C 0.47414 0.91437 0.48849 0.0
H328 H 0.44998 0.97179 0.49082 0.0
H329 H 0.4239 0.99549 0.48412 0.0
H330 H 0.42402 0.0128 0.54589 0.0
H331 H 0.45036 0.98938 0.55267 0.0
H332 H 0.4952 0.98523 0.57293 0.0
H333 H 0.51609 0.98986 0.60239 0.0
H334 H 0.54502 0.93483 0.5893 0.0
H335 H 0.52441 0.93029 0.55958 0.0
H336 H 0.5116 0.90541 0.52147 0.0
H337 H 0.5148 0.8763 0.50002 0.0
H338 H 0.46618 0.89592 0.46346 0.0
H339 H 0.46269 0.9248 0.48496 0.0
N340 N 0.4704 0.9485 0.51423 0.0
N341 N 0.48024 0.96719 0.54238 0.0
N342 N 0.49691 0.93817 0.53411 0.0
C343 C 0.46804 0.96449 0.52635 0.0
C344 C 0.49479 0.95417 0.54631 0.0
C345 C 0.48475 0.9352 0.51805 0.0
C346 C 0.45223 0.97875 0.52227 0.0
C347 C 0.44446 0.98064 0.50298 0.0
C348 C 0.42964 0.99424 0.49911 0.0
C349 C 0.42206 0.0059 0.51451 0.0
C350 C 0.42964 0.0039 0.53381 0.0
C351 C 0.44474 0.99058 0.53763 0.0
C352 C 0.508 0.9573 0.56389 0.0
C353 C 0.50606 0.97413 0.57622 0.0
C354 C 0.51799 0.97678 0.59317 0.0
C355 C 0.53214 0.96268 0.59821 0.0
C356 C 0.5344 0.94608 0.58569 0.0
C357 C 0.52247 0.94341 0.56871 0.0
C358 C 0.48688 0.91752 0.50498 0.0
C359 C 0.50155 0.90354 0.50888 0.0
C360 C 0.25927 0.219 0.65912 0.0
C361 C 0.24669 0.20289 0.65395 0.0
C362 C 0.22974 0.19942 0.66522 0.0
C363 C 0.22528 0.21204 0.6811 0.0
H364 H 0.18786 0.21879 0.72891 0.0
H365 H 0.15918 0.21289 0.74957 0.0
H366 H 0.16788 0.2707 0.77697 0.0
H367 H 0.19665 0.27647 0.75679 0.0
H368 H 0.22638 0.30695 0.73869 0.0
H369 H 0.2437 0.33886 0.74106 0.0
H370 H 0.28915 0.31681 0.70287 0.0
H371 H 0.27194 0.28478 0.70047 0.0
H372 H 0.26467 0.24411 0.67819 0.0
H373 H 0.27233 0.22219 0.65059 0.0
H374 H 0.21986 0.18701 0.66168 0.0
H375 H 0.21195 0.2091 0.68929 0.0
N376 N 0.21689 0.23882 0.71396 0.0
N377 N 0.22173 0.26976 0.72976 0.0
N378 N 0.24228 0.26029 0.70387 0.0
C379 C 0.21159 0.25224 0.72805 0.0
C380 C 0.2371 0.27389 0.71776 0.0
C381 C 0.23227 0.24274 0.70183 0.0
C382 C 0.19459 0.24816 0.74108 0.0
C383 C 0.18376 0.2302 0.73944 0.0
C384 C 0.16726 0.22682 0.75124 0.0
C385 C 0.16124 0.2413 0.76495 0.0
C386 C 0.17228 0.25908 0.76682 0.0
C387 C 0.18874 0.26245 0.75507 0.0
C388 C 0.24775 0.29325 0.7194 0.0
C389 C 0.24007 0.30884 0.7308 0.0
C390 C 0.2499 0.32719 0.73205 0.0
C391 C 0.26771 0.33033 0.72208 0.0
C392 C 0.27549 0.31476 0.71078 0.0
C393 C 0.26557 0.29644 0.70937 0.0
C394 C 0.2376 0.22849 0.68594 0.0
C395 C 0.25477 0.23166 0.67489 0.0
C396 C 0.71814 0.15473 0.75471 0.0
C397 C 0.70212 0.15086 0.74159 0.0
C398 C 0.69904 0.16358 0.72566 0.0
C399 C 0.71176 0.17979 0.72287 0.0
H400 H 0.72877 0.22199 0.68149 0.0
H401 H 0.72497 0.24328 0.6532 0.0
H402 H 0.75927 0.28929 0.68406 0.0
H403 H 0.76397 0.26742 0.71194 0.0
H404 H 0.79574 0.25077 0.74596 0.0
H405 H 0.82734 0.25308 0.76403 0.0
H406 H 0.82051 0.19227 0.7814 0.0
H407 H 0.78886 0.18987 0.76346 0.0
H408 H 0.74318 0.17329 0.76223 0.0
H409 H 0.72104 0.14506 0.76698 0.0
H410 H 0.6867 0.16106 0.71541 0.0
H411 H 0.70895 0.18924 0.71041 0.0
N412 N 0.73796 0.21369 0.71826 0.0
N413 N 0.76703 0.23152 0.72699 0.0
N414 N 0.75836 0.2029 0.74416 0.0
C415 C 0.75051 0.22925 0.71534 0.0
C416 C 0.77111 0.21833 0.74138 0.0
C417 C 0.74168 0.20055 0.73277 0.0
C418 C 0.7468 0.24296 0.6989 0.0
C419 C 0.73537 0.23671 0.6823 0.0
C420 C 0.73308 0.24903 0.66609 0.0
C421 C 0.74184 0.26809 0.66619 0.0
C422 C 0.75265 0.27458 0.68319 0.0
C423 C 0.75527 0.26209 0.69925 0.0
C424 C 0.78976 0.22013 0.75321 0.0
C425 C 0.80089 0.23791 0.75371 0.0
C426 C 0.81893 0.23928 0.76414 0.0
C427 C 0.82635 0.22284 0.77407 0.0
C428 C 0.81517 0.20512 0.77376 0.0
C429 C 0.797 0.20382 0.76356 0.0
C430 C 0.72792 0.18358 0.73589 0.0
C431 C 0.73091 0.17087 0.75188 0.0
C432 C 0.47557 0.54012 0.58463 0.0
C433 C 0.47616 0.52347 0.59678 0.0
C434 C 0.48963 0.50848 0.59238 0.0
C435 C 0.50225 0.51013 0.5763 0.0
H436 H 0.54965 0.48402 0.55086 0.0
H437 H 0.57569 0.46007 0.54641 0.0
H438 H 0.59629 0.49171 0.49558 0.0
H439 H 0.57 0.51553 0.49973 0.0
H440 H 0.54481 0.55153 0.48382 0.0
H441 H 0.54082 0.57879 0.46103 0.0
H442 H 0.49697 0.60422 0.49904 0.0
H443 H 0.50102 0.57719 0.52195 0.0
H444 H 0.4873 0.55484 0.55957 0.0
H445 H 0.46558 0.55208 0.58775 0.0
H446 H 0.49029 0.49532 0.60124 0.0
H447 H 0.51239 0.49824 0.57338 0.0
N448 N 0.52946 0.51505 0.5441 0.0
N449 N 0.53978 0.5318 0.51591 0.0
N450 N 0.5133 0.54374 0.53434 0.0
C451 C 0.54188 0.51655 0.52858 0.0
C452 C 0.52552 0.54547 0.51868 0.0
C453 C 0.51513 0.52856 0.5471 0.0
C454 C 0.55766 0.5018 0.52568 0.0
C455 C 0.55967 0.48592 0.53869 0.0
C456 C 0.57469 0.4722 0.53621 0.0
C457 C 0.58813 0.474 0.52068 0.0
C458 C 0.58606 0.48977 0.50757 0.0
C459 C 0.57102 0.5035 0.51004 0.0
C460 C 0.52325 0.56209 0.50478 0.0
C461 C 0.53434 0.56294 0.48738 0.0
C462 C 0.53199 0.57851 0.47423 0.0
C463 C 0.51858 0.59366 0.47823 0.0
C464 C 0.50758 0.59289 0.49565 0.0
C465 C 0.50984 0.57729 0.50873 0.0
C466 C 0.50168 0.52679 0.56416 0.0
C467 C 0.48814 0.54174 0.56851 0.0
C468 C 0.56476 0.41678 0.98821 0.0
C469 C 0.55082 0.40166 0.98356 0.0
C470 C 0.54138 0.40137 0.96486 0.0
C471 C 0.54545 0.41611 0.95126 0.0
H472 H 0.52182 0.44069 0.90187 0.0
H473 H 0.49836 0.44543 0.87484 0.0
H474 H 0.53229 0.49631 0.85613 0.0
H475 H 0.55563 0.4919 0.88353 0.0
H476 H 0.59062 0.50828 0.91045 0.0
H477 H 0.61677 0.53281 0.91725 0.0
H478 H 0.63011 0.50507 0.97286 0.0
H479 H 0.60424 0.48025 0.96597 0.0
H480 H 0.57957 0.44307 0.97872 0.0
H481 H 0.57237 0.41728 0.00246 0.0
H482 H 0.53039 0.39004 0.96094 0.0
H483 H 0.53765 0.41556 0.93711 0.0
N484 N 0.55114 0.44905 0.92533 0.0
N485 N 0.56821 0.478 0.91666 0.0
N486 N 0.57691 0.46169 0.94578 0.0
C487 C 0.55383 0.46415 0.91261 0.0
C488 C 0.57983 0.47687 0.9332 0.0
C489 C 0.56263 0.44768 0.94192 0.0
C490 C 0.54056 0.46602 0.89505 0.0
C491 C 0.52445 0.4528 0.89193 0.0
C492 C 0.51104 0.45543 0.8763 0.0
C493 C 0.51342 0.47128 0.86333 0.0
C494 C 0.52989 0.48411 0.86602 0.0
C495 C 0.54331 0.48152 0.8817 0.0
C496 C 0.59537 0.49217 0.93759 0.0
C497 C 0.59906 0.5074 0.92417 0.0
C498 C 0.61397 0.52157 0.92812 0.0
C499 C 0.62551 0.52087 0.94559 0.0
C500 C 0.62162 0.50586 0.95916 0.0
C501 C 0.60674 0.49166 0.95521 0.0
C502 C 0.55912 0.43149 0.956 0.0
C503 C 0.56892 0.4315 0.97455 0.0
C504 C 0.72603 0.25178 0.33489 0.0
C505 C 0.71458 0.26871 0.33766 0.0
C506 C 0.70234 0.27494 0.32205 0.0
C507 C 0.70142 0.26431 0.30408 0.0
H508 H 0.66701 0.25616 0.25344 0.0
H509 H 0.63837 0.2595 0.23155 0.0
H510 H 0.65594 0.208 0.1979 0.0
H511 H 0.68492 0.2049 0.21947 0.0
H512 H 0.72682 0.18652 0.22856 0.0
H513 H 0.75082 0.16072 0.2225 0.0
H514 H 0.78092 0.17634 0.27766 0.0
H515 H 0.75727 0.20231 0.28361 0.0
H516 H 0.73434 0.22833 0.31528 0.0
H517 H 0.73577 0.24679 0.3466 0.0
H518 H 0.69333 0.28792 0.32382 0.0
H519 H 0.69176 0.26945 0.29237 0.0
N520 N 0.69676 0.23862 0.26921 0.0
N521 N 0.70947 0.21427 0.24806 0.0
N522 N 0.72587 0.2224 0.27806 0.0
C523 C 0.69539 0.22779 0.25208 0.0
C524 C 0.72483 0.21155 0.26093 0.0
C525 C 0.71192 0.23599 0.2823 0.0
C526 C 0.6783 0.23022 0.2383 0.0
C527 C 0.66485 0.24555 0.24135 0.0
C528 C 0.64833 0.24742 0.22885 0.0
C529 C 0.64477 0.23394 0.21304 0.0
C530 C 0.65835 0.21876 0.2098 0.0
C531 C 0.67494 0.21695 0.22225 0.0
C532 C 0.73997 0.19647 0.25666 0.0
C533 C 0.73863 0.18459 0.23935 0.0
C534 C 0.75236 0.16974 0.23587 0.0
C535 C 0.76778 0.16645 0.2496 0.0
C536 C 0.76941 0.17865 0.26664 0.0
C537 C 0.75569 0.19347 0.27013 0.0
C538 C 0.71294 0.24739 0.30127 0.0
C539 C 0.72531 0.24131 0.31688 0.0
C540 C 0.46791 0.10375 0.99416 0.0
C541 C 0.45459 0.10978 0.00873 0.0
C542 C 0.43699 0.09873 0.01104 0.0
C543 C 0.4327 0.08218 -0.00106 0.0
H544 H 0.40289 0.02495 0.99769 0.0
H545 H 0.3751 0.00284 0.00422 0.0
H546 H 0.36906 0.98923 0.94155 0.0
H547 H 0.39774 0.01038 0.93533 0.0
H548 H 0.45393 0.00166 0.92737 0.0
H549 H 0.47754 0.99217 0.90206 0.0
H550 H 0.4978 0.05286 0.89859 0.0
H551 H 0.4745 0.06242 0.92426 0.0
H552 H 0.47418 0.08308 0.9709 0.0
H553 H 0.48172 0.11179 0.99217 0.0
H554 H 0.42626 0.10314 0.02191 0.0
H555 H 0.4189 0.07417 0.00105 0.0
N556 N 0.42477 0.04753 0.97429 0.0
N557 N 0.43236 0.0271 0.94714 0.0
N558 N 0.45305 0.05426 0.95579 0.0
C559 C 0.42025 0.03168 0.96231 0.0
C560 C 0.44881 0.03832 0.94382 0.0
C561 C 0.44111 0.05896 0.97108 0.0
C562 C 0.40257 0.01924 0.96604 0.0
C563 C 0.39555 0.01727 0.98533 0.0
C564 C 0.37947 0.00468 0.98902 0.0
C565 C 0.36972 0.9941 0.97344 0.0
C566 C 0.37641 0.99669 0.95402 0.0
C567 C 0.3928 0.00892 0.9504 0.0
C568 C 0.46239 0.03278 0.92783 0.0
C569 C 0.46333 0.01301 0.92116 0.0
C570 C 0.47688 0.00755 0.90677 0.0
C571 C 0.48942 0.02181 0.8985 0.0
C572 C 0.4882 0.04164 0.90477 0.0
C573 C 0.47495 0.04706 0.91948 0.0
C574 C 0.44589 0.07629 0.98418 0.0
C575 C 0.4636 0.08723 0.98201 0.0
Zn576 Zn 0.27249 0.84022 0.01032 0.0
Zn577 Zn 0.23797 0.85949 0.01157 0.0
O578 O 0.23924 0.84429 0.03799 0.0
O579 O 0.26837 0.83016 0.03764 0.0
O580 O 0.21274 0.87491 0.01393 0.0
O581 O 0.28728 0.86601 0.00731 0.0
O582 O 0.25897 0.88164 0.0079 0.0
C583 C 0.25237 0.83377 0.0463 0.0
C584 C 0.24469 0.82869 0.97877 0.0
O585 O 0.23388 0.84179 0.9867 0.0
O586 O 0.26152 0.82499 0.98628 0.0
C587 C 0.20434 0.88268 -0.00093 0.0
O588 O 0.21196 0.88016 0.98147 0.0
C589 C 0.27776 0.88193 0.00658 0.0
Zn590 Zn 0.09434 0.44834 0.29204 0.0
Zn591 Zn 0.11116 0.48312 0.28069 0.0
O592 O 0.09386 0.49122 0.30398 0.0
O593 O 0.08112 0.46316 0.31436 0.0
O594 O 0.12478 0.50856 0.2734 0.0
O595 O 0.1218 0.43714 0.29606 0.0
O596 O 0.13467 0.4657 0.28727 0.0
C597 C 0.08299 0.48181 0.31595 0.0
C598 C 0.08384 0.45982 0.25198 0.0
O599 O 0.09553 0.47445 0.25575 0.0
O600 O 0.08066 0.44691 0.26497 0.0
C601 C 0.11627 0.52516 0.27321 0.0
O602 O 0.09738 0.52599 0.27739 0.0
C603 C 0.13685 0.44802 0.29296 0.0
Zn604 Zn 0.78824 0.61545 0.94913 0.0
Zn605 Zn 0.77916 0.62825 0.98616 0.0
O606 O 0.80054 0.60812 0.99167 0.0
O607 O 0.80932 0.59839 0.96188 0.0
O608 O 0.77226 0.63868 0.01311 0.0
O609 O 0.79439 0.64375 0.9417 0.0
O610 O 0.7888 0.65332 0.9724 0.0
C611 C 0.81129 0.59758 0.98054 0.0
C612 C 0.74795 0.6066 0.95974 0.0
O613 O 0.75315 0.61555 0.9758 0.0
O614 O 0.76024 0.60458 0.94594 0.0
C615 C 0.78591 0.64528 0.02475 0.0
O616 O 0.80436 0.64469 0.01899 0.0
C617 C 0.79393 0.65729 0.95486 0.0
Zn618 Zn 0.85313 0.00727 0.28194 0.0
Zn619 Zn 0.87411 0.00926 0.24886 0.0
O620 O 0.85851 0.03545 0.24901 0.0
O621 O 0.84266 0.03434 0.27714 0.0
O622 O 0.89084 0.01094 0.22442 0.0
O623 O 0.87809 0.00393 0.29814 0.0
O624 O 0.8953 0.0067 0.27099 0.0
C625 C 0.84691 0.04333 0.26147 0.0
C626 C 0.84338 0.97577 0.25425 0.0
O627 O 0.8571 0.98381 0.24426 0.0
O628 O 0.83847 0.98332 0.27068 0.0
C629 C 0.88357 0.01321 0.20714 0.0
O630 O 0.86429 0.01453 0.20486 0.0
C631 C 0.89463 0.0044 0.28965 0.0
Zn632 Zn 0.28604 0.11399 0.44702 0.0
Zn633 Zn 0.28362 0.13045 0.48369 0.0
O634 O 0.30551 0.11021 0.48741 0.0
O635 O 0.30648 0.09544 0.45809 0.0
O636 O 0.28063 0.14279 0.51073 0.0
O637 O 0.29436 0.1408 0.43682 0.0
O638 O 0.29156 0.15397 0.46665 0.0
C639 C 0.3126 0.09712 0.47589 0.0
C640 C 0.24756 0.10934 0.46342 0.0
O641 O 0.25597 0.1183 0.47813 0.0
O642 O 0.25714 0.10604 0.44781 0.0
C643 C 0.27555 0.13229 0.52526 0.0
O644 O 0.27281 0.11314 0.52249 0.0
C645 C 0.29549 0.15576 0.4484 0.0
Zn646 Zn 0.34693 0.49288 0.78072 0.0
Zn647 Zn 0.36419 0.49605 0.74542 0.0
O648 O 0.34826 0.52179 0.74771 0.0
O649 O 0.33439 0.51935 0.7768 0.0
O650 O 0.37825 0.49852 0.71946 0.0
O651 O 0.37359 0.49125 0.79422 0.0
O652 O 0.38757 0.49379 0.76522 0.0
C653 C 0.33727 0.5289 0.76113 0.0
C654 C 0.33585 0.46113 0.75351 0.0
O655 O 0.34725 0.47045 0.74191 0.0
O656 O 0.33317 0.46777 0.77089 0.0
C657 C 0.38921 0.51366 0.71661 0.0
O658 O 0.39056 0.52755 0.73045 0.0
C659 C 0.38904 0.49191 0.78392 0.0
Zn660 Zn 0.77346 0.34378 0.50097 0.0
Zn661 Zn 0.7409 0.36584 0.50315 0.0
O662 O 0.73993 0.34981 0.52886 0.0
O663 O 0.76545 0.33021 0.52603 0.0
O664 O 0.71722 0.38352 0.50479 0.0
O665 O 0.79076 0.36848 0.50206 0.0
O666 O 0.76382 0.38623 0.50229 0.0
C667 C 0.75056 0.33594 0.53552 0.0
C668 C 0.74698 0.33762 0.46756 0.0
O669 O 0.73618 0.34965 0.4771 0.0
O670 O 0.76377 0.33303 0.47451 0.0
C671 C 0.69956 0.37708 0.5066 0.0
O672 O 0.69625 0.3579 0.50735 0.0
C673 C 0.78262 0.38521 0.50214 0.0
Zn674 Zn 0.60365 0.94559 0.77085 0.0
Zn675 Zn 0.61952 0.98274 0.76808 0.0
O676 O 0.59863 0.98682 0.78914 0.0
O677 O 0.585 0.95706 0.79127 0.0
O678 O 0.63251 0.00949 0.76529 0.0
O679 O 0.63077 0.93556 0.77877 0.0
O680 O 0.64276 0.96599 0.77708 0.0
C681 C 0.58591 0.97515 0.79661 0.0
C682 C 0.59928 0.96176 0.73202 0.0
O683 O 0.60813 0.97667 0.74019 0.0
O684 O 0.59581 0.94639 0.74192 0.0
C685 C 0.62302 0.0249 0.76091 0.0
O686 O 0.60372 0.02361 0.75832 0.0
C687 C 0.64519 0.94775 0.78055 0.0
Zn688 Zn 0.99537 0.27482 0.83869 0.0
Zn689 Zn 0.99759 0.24257 0.8612 0.0
O690 O 0.02326 0.24161 0.84492 0.0
O691 O 0.02187 0.26863 0.82733 0.0
O692 O -0.00041 0.21906 0.87907 0.0
O693 O 0.99373 0.29216 0.86324 0.0
O694 O 0.99633 0.26564 0.88139 0.0
C695 C 0.03087 0.25318 0.83231 0.0
C696 C 0.96287 0.2473 0.83173 0.0
O697 O 0.97143 0.2377 0.84541 0.0
O698 O 0.97043 0.26337 0.82583 0.0
C699 C 0.00269 0.20157 0.87279 0.0
O700 O 0.00451 0.19833 0.85368 0.0
C701 C 0.99463 0.28431 0.88009 0.0
Zn702 Zn 0.50282 0.76724 0.33195 0.0
Zn703 Zn 0.5071 0.73708 0.35671 0.0
O704 O 0.53307 0.73741 0.34099 0.0
O705 O 0.52862 0.76074 0.31912 0.0
O706 O 0.51093 0.7142 0.37517 0.0
O707 O 0.50232 0.78602 0.35548 0.0
O708 O 0.50444 0.76101 0.37574 0.0
C709 C 0.53922 0.74735 0.32639 0.0
C710 C 0.47131 0.73853 0.32767 0.0
O711 O 0.48136 0.72961 0.34082 0.0
O712 O 0.47732 0.7551 0.32147 0.0
C713 C 0.49657 0.70606 0.38404 0.0
O714 O 0.47861 0.71264 0.38107 0.0
C715 C 0.50291 0.77952 0.37293 0.0
Zn716 Zn 0.95394 0.79514 0.61296 0.0
Zn717 Zn 0.98882 0.78199 0.62763 0.0
O718 O 0.99731 0.8044 0.60933 0.0
O719 O 0.96903 0.81722 0.59973 0.0
O720 O 0.01462 0.77311 0.63955 0.0
O721 O 0.94438 0.79933 0.64089 0.0
O722 O 0.9735 0.79037 0.65227 0.0
C723 C 0.98778 0.81735 0.5998 0.0
C724 C 0.96237 0.75472 0.6015 0.0
O725 O 0.97757 0.7576 0.61266 0.0
O726 O 0.95023 0.76851 0.59876 0.0
C727 C 0.0167 0.7559 0.64646 0.0
O728 O 0.00174 0.74322 0.64534 0.0
C729 C 0.95612 0.79659 0.65535 0.0
Zn730 Zn 0.45701 0.28068 0.08925 0.0
Zn731 Zn 0.49163 0.27144 0.10731 0.0
O732 O 0.49958 0.29352 0.08836 0.0
O733 O 0.47171 0.30075 0.07302 0.0
O734 O 0.51736 0.2657 0.12141 0.0
O735 O 0.44611 0.28902 0.11568 0.0
O736 O 0.47373 0.27968 0.13024 0.0
C737 C 0.49016 0.30353 0.0756 0.0
C738 C 0.46837 0.23999 0.08283 0.0
O739 O 0.48359 0.2454 0.09308 0.0
O740 O 0.45468 0.25214 0.07952 0.0
C741 C 0.5209 0.24915 0.12922 0.0
O742 O 0.50746 0.23488 0.12783 0.0
C743 C 0.45638 0.28664 0.13128 0.0
C744 C 0.23404 0.78493 0.86962 0.0
C745 C 0.21889 0.77068 0.86682 0.0
C746 C 0.2368 0.79491 0.88787 0.0
C747 C 0.22431 0.79026 0.9038 0.0
C748 C 0.2088 0.77606 0.90097 0.0
C749 C 0.20618 0.76654 0.88244 0.0
C750 C 0.25331 0.81017 0.89021 0.0
C751 C 0.19539 0.77047 0.91768 0.0
C752 C 0.24692 0.8003 0.95484 0.0
C753 C 0.23815 0.81818 0.96032 0.0
C754 C 0.24202 0.79075 0.93677 0.0
C755 C 0.22826 0.79945 0.92369 0.0
C756 C 0.21903 0.81729 0.92929 0.0
C757 C 0.22396 0.82637 0.94765 0.0
C758 C 0.25192 0.77155 0.93151 0.0
C759 C 0.20448 0.82714 0.91562 0.0
H760 H 0.24374 0.78828 0.85747 0.0
H761 H 0.19455 0.75541 0.88031 0.0
H762 H 0.24744 0.82432 0.896 0.0
H763 H 0.26447 0.80508 0.90113 0.0
H764 H 0.26084 0.81301 0.87604 0.0
H765 H 0.18347 0.75984 0.9128 0.0
H766 H 0.20421 0.76367 0.92968 0.0
H767 H 0.1885 0.78385 0.92407 0.0
H768 H 0.25777 0.7938 0.96464 0.0
H769 H 0.2172 0.84023 0.95178 0.0
H770 H 0.26138 0.77365 0.91844 0.0
H771 H 0.24061 0.76001 0.92745 0.0
H772 H 0.26127 0.76608 0.94386 0.0
H773 H 0.21204 0.83159 0.90192 0.0
H774 H 0.19791 0.84046 0.92254 0.0
H775 H 0.19236 0.81661 0.91116 0.0
C776 C -0.00038 0.53303 0.37801 0.0
C777 C 0.00522 0.5383 0.3975 0.0
C778 C 0.01344 0.5256 0.3647 0.0
C779 C 0.03333 0.52334 0.37105 0.0
C780 C 0.03927 0.52946 0.39044 0.0
C781 C 0.02513 0.53689 0.40345 0.0
C782 C 0.00655 0.5194 0.34408 0.0
C783 C 0.06034 0.52726 0.39775 0.0
C784 C 0.06055 0.48222 0.34493 0.0
C785 C 0.07163 0.49268 0.33107 0.0
C786 C 0.04847 0.49211 0.35838 0.0
C787 C 0.04739 0.51299 0.35796 0.0
C788 C 0.05897 0.52371 0.34443 0.0
C789 C 0.071 0.51342 0.33116 0.0
C790 C 0.03643 0.48015 0.37267 0.0
C791 C 0.0582 0.54598 0.34359 0.0
H792 H 0.9843 0.53439 0.37328 0.0
H793 H 0.02951 0.5408 0.41855 0.0
H794 H 0.0162 0.52624 0.33289 0.0
H795 H 0.00765 0.50311 0.34225 0.0
H796 H 0.991 0.52358 0.34096 0.0
H797 H 0.06301 0.53454 0.41245 0.0
H798 H 0.0637 0.51132 0.39897 0.0
H799 H 0.07083 0.53366 0.38706 0.0
H800 H 0.06102 0.46621 0.34507 0.0
H801 H 0.07952 0.52163 0.32051 0.0
H802 H 0.02042 0.48203 0.36948 0.0
H803 H 0.03938 0.48553 0.38806 0.0
H804 H 0.03971 0.46412 0.37177 0.0
H805 H 0.04316 0.55044 0.33881 0.0
H806 H 0.0691 0.5522 0.33316 0.0
H807 H 0.06111 0.55266 0.3585 0.0
C808 C 0.81085 0.77094 0.92748 0.0
C809 C 0.82783 0.7728 0.9159 0.0
C810 C 0.80553 0.75282 0.93588 0.0
C811 C 0.81784 0.73632 0.93324 0.0
C812 C 0.83578 0.73848 0.92299 0.0
C813 C 0.84041 0.75656 0.91418 0.0
C814 C 0.7861 0.75104 0.94646 0.0
C815 C 0.8496 0.72137 0.92035 0.0
C816 C 0.809 0.69037 0.96372 0.0
C817 C 0.7994 0.67775 0.94977 0.0
C818 C 0.81516 0.70954 0.95861 0.0
C819 C 0.81102 0.71635 0.93931 0.0
C820 C 0.80075 0.70383 0.9254 0.0
C821 C 0.79536 0.68456 0.93071 0.0
C822 C 0.8266 0.72225 0.97361 0.0
C823 C 0.79556 0.71073 0.90485 0.0
H824 H 0.80129 0.78348 0.92947 0.0
H825 H 0.85345 0.75757 0.90515 0.0
H826 H 0.77574 0.74132 0.93762 0.0
H827 H 0.78825 0.74407 0.96105 0.0
H828 H 0.77908 0.76561 0.94876 0.0
H829 H 0.8642 0.72619 0.91465 0.0
H830 H 0.85199 0.71379 0.93459 0.0
H831 H 0.84289 0.71037 0.90971 0.0
H832 H 0.81225 0.68502 0.97843 0.0
H833 H 0.78777 0.67485 0.91999 0.0
H834 H 0.81926 0.73663 0.97579 0.0
H835 H 0.84164 0.72548 0.96804 0.0
H836 H 0.82805 0.71499 0.98817 0.0
H837 H 0.78735 0.72477 0.90574 0.0
H838 H 0.78639 0.69964 0.8963 0.0
H839 H 0.80928 0.71371 0.89658 0.0
C840 C 0.98767 0.97031 0.35399 0.0
C841 C 0.9964 0.98627 0.36471 0.0
C842 C 0.97243 0.97331 0.34005 0.0
C843 C 0.96579 0.99273 0.33673 0.0
C844 C 0.97521 0.00898 0.34675 0.0
C845 C 0.99036 0.00555 0.36066 0.0
C846 C 0.96279 0.9556 0.3296 0.0
C847 C 0.96859 0.02991 0.3436 0.0
C848 C 0.93165 0.00216 0.29264 0.0
C849 C 0.91303 0.00178 0.30152 0.0
C850 C 0.94903 -0.00074 0.30388 0.0
C851 C 0.94771 0.99586 0.32442 0.0
C852 C 0.92898 0.99552 0.33345 0.0
C853 C 0.91191 0.9985 0.32191 0.0
C854 C 0.96877 -0.00022 0.2938 0.0
C855 C 0.92694 0.99192 0.35533 0.0
H856 H 0.9925 0.95541 0.3568 0.0
H857 H 0.99686 0.01796 0.36901 0.0
H858 H 0.9474 0.95365 0.33479 0.0
H859 H 0.96195 0.95796 0.31341 0.0
H860 H 0.97089 0.94175 0.33236 0.0
H861 H 0.9788 0.04101 0.35083 0.0
H862 H 0.96753 0.03303 0.32756 0.0
H863 H 0.95362 0.03178 0.34977 0.0
H864 H 0.93266 0.00467 0.27689 0.0
H865 H 0.89762 0.99815 0.32894 0.0
H866 H 0.97631 0.98549 0.29573 0.0
H867 H 0.97848 0.01147 0.30074 0.0
H868 H 0.96728 0.00266 0.27771 0.0
H869 H 0.93326 0.9774 0.35908 0.0
H870 H 0.91128 0.99206 0.36004 0.0
H871 H 0.93539 0.00343 0.36402 0.0
C872 C 0.23567 0.18551 0.62251 0.0
C873 C 0.25084 0.19039 0.63627 0.0
C874 C 0.23965 0.17509 0.60493 0.0
C875 C 0.25927 0.16936 0.60105 0.0
C876 C 0.27454 0.1737 0.61516 0.0
C877 C 0.27015 0.18421 0.63259 0.0
C878 C 0.22298 0.17081 0.5902 0.0
C879 C 0.29561 0.16767 0.61163 0.0
C880 C 0.26688 0.13008 0.56106 0.0
C881 C 0.27199 0.14166 0.54484 0.0
C882 C 0.2629 0.13886 0.57952 0.0
C883 C 0.26397 0.15971 0.58178 0.0
C884 C 0.26928 0.17146 0.56552 0.0
C885 C 0.27327 0.1623 0.54727 0.0
C886 C 0.25738 0.12586 0.59656 0.0
C887 C 0.27052 0.19376 0.56734 0.0
H888 H 0.22076 0.19044 0.62518 0.0
H889 H 0.28187 0.18774 0.6433 0.0
H890 H 0.22581 0.17881 0.57631 0.0
H891 H 0.22222 0.15478 0.58637 0.0
H892 H 0.2084 0.17533 0.5959 0.0
H893 H 0.30552 0.17116 0.62456 0.0
H894 H 0.29615 0.15157 0.60828 0.0
H895 H 0.30142 0.17545 0.59858 0.0
H896 H 0.26589 0.11413 0.55933 0.0
H897 H 0.27718 0.17138 0.53483 0.0
H898 H 0.24231 0.12943 0.6016 0.0
H899 H 0.2677 0.12872 0.60929 0.0
H900 H 0.25769 0.10987 0.59252 0.0
H901 H 0.25594 0.19962 0.57159 0.0
H902 H 0.27504 0.20075 0.55334 0.0
H903 H 0.28133 0.19828 0.5792 0.0
C904 C 0.46999 0.51441 0.63205 0.0
C905 C 0.46288 0.52182 0.61406 0.0
C906 C 0.4577 0.51289 0.6485 0.0
C907 C 0.43782 0.51901 0.647 0.0
C908 C 0.43052 0.52646 0.6289 0.0
C909 C 0.44311 0.52773 0.61265 0.0
C910 C 0.46605 0.50486 0.66755 0.0
C911 C 0.40941 0.53316 0.62673 0.0
C912 C 0.4015 0.49946 0.68464 0.0
C913 C 0.40101 0.51526 0.69838 0.0
C914 C 0.41328 0.50054 0.66776 0.0
C915 C 0.42476 0.51786 0.66448 0.0
C916 C 0.42408 0.53397 0.67813 0.0
C917 C 0.41226 0.53246 0.69492 0.0
C918 C 0.41368 0.48302 0.65359 0.0
C919 C 0.43602 0.55274 0.67509 0.0
H920 H 0.48531 0.51008 0.63339 0.0
H921 H 0.43739 0.53319 0.59874 0.0
H922 H 0.46528 0.51625 0.67953 0.0
H923 H 0.45707 0.49189 0.67216 0.0
H924 H 0.48168 0.5003 0.66615 0.0
H925 H 0.40601 0.53858 0.61165 0.0
H926 H 0.39904 0.52077 0.62993 0.0
H927 H 0.4066 0.54522 0.63762 0.0
H928 H 0.39288 0.48611 0.6872 0.0
H929 H 0.41194 0.54476 0.70541 0.0
H930 H 0.42893 0.47729 0.65285 0.0
H931 H 0.40939 0.48763 0.63846 0.0
H932 H 0.40356 0.47082 0.65802 0.0
H933 H 0.45203 0.5494 0.67504 0.0
H934 H 0.43345 0.56411 0.68679 0.0
H935 H 0.43222 0.55904 0.6605 0.0
C936 C 0.72369 0.27996 0.63586 0.0
C937 C 0.74064 0.28059 0.64824 0.0
C938 C 0.72326 0.28993 0.61781 0.0
C939 C 0.74002 0.30119 0.61217 0.0
C940 C 0.75673 0.30282 0.62506 0.0
C941 C 0.75693 0.29234 0.64278 0.0
C942 C 0.70524 0.28765 0.60437 0.0
C943 C 0.77479 0.31494 0.61973 0.0
C944 C 0.7521 0.3073 0.55808 0.0
C945 C 0.74606 0.32667 0.5546 0.0
C946 C 0.74944 0.29861 0.57652 0.0
C947 C 0.74093 0.30971 0.59205 0.0
C948 C 0.73438 0.32914 0.58852 0.0
C949 C 0.73682 0.33733 0.56972 0.0
C950 C 0.75622 0.27768 0.57951 0.0
C951 C 0.72559 0.34155 0.60482 0.0
H952 H 0.71082 0.27134 0.64008 0.0
H953 H 0.77024 0.2928 0.65197 0.0
H954 H 0.70006 0.30234 0.59968 0.0
H955 H 0.70918 0.27925 0.59078 0.0
H956 H 0.69285 0.27971 0.61157 0.0
H957 H 0.78556 0.31658 0.6323 0.0
H958 H 0.7823 0.30772 0.60713 0.0
H959 H 0.77044 0.32989 0.61497 0.0
H960 H 0.75907 0.29894 0.54635 0.0
H961 H 0.73223 0.35235 0.5671 0.0
H962 H 0.74407 0.26854 0.58565 0.0
H963 H 0.76873 0.2777 0.59037 0.0
H964 H 0.76112 0.27057 0.56553 0.0
H965 H 0.71328 0.33337 0.61183 0.0
H966 H 0.71996 0.35582 0.59934 0.0
H967 H 0.73701 0.34473 0.6165 0.0
C968 C 0.53449 0.97044 0.6345 0.0
C969 C 0.54382 0.96477 0.61697 0.0
C970 C 0.54489 0.97118 0.65263 0.0
C971 C 0.56511 0.96608 0.65326 0.0
C972 C 0.5748 0.96097 0.63555 0.0
C973 C 0.56402 0.96034 0.61759 0.0
C974 C 0.53402 0.97665 0.67122 0.0
C975 C 0.59637 0.95557 0.63565 0.0
C976 C 0.59357 0.98017 0.70059 0.0
C977 C 0.59212 0.96258 0.71121 0.0
C978 C 0.58539 0.98141 0.6814 0.0
C979 C 0.57557 0.96466 0.67269 0.0
C980 C 0.57466 0.94669 0.68306 0.0
C981 C 0.58294 0.94587 0.70217 0.0
C982 C 0.58668 0.0008 0.67073 0.0
C983 C 0.56436 0.92847 0.67423 0.0
H984 H 0.51884 0.97365 0.63416 0.0
H985 H 0.57135 0.95622 0.60403 0.0
H986 H 0.53327 0.96371 0.68106 0.0
H987 H 0.54211 0.9887 0.67948 0.0
H988 H 0.5187 0.98152 0.66802 0.0
H989 H 0.6021 0.9535 0.62046 0.0
H990 H 0.60543 0.96723 0.64348 0.0
H991 H 0.59839 0.94163 0.6438 0.0
H992 H 0.60067 0.99315 0.70743 0.0
H993 H 0.58186 0.93216 0.71018 0.0
H994 H 0.57165 0.00689 0.66887 0.0
H995 H 0.59268 0.99847 0.65571 0.0
H996 H 0.59617 0.01194 0.67886 0.0
H997 H 0.54838 0.93136 0.672 0.0
H998 H 0.56588 0.91538 0.68379 0.0
H999 H 0.57048 0.92485 0.65951 0.0
C1000 C 0.86016 0.2096 0.78044 0.0
C1001 C 0.84601 0.22404 0.78416 0.0
C1002 C 0.87935 0.21134 0.7887 0.0
C1003 C 0.88437 0.22781 0.80116 0.0
C1004 C 0.86988 0.24203 0.80557 0.0
C1005 C 0.85091 0.24005 0.79689 0.0
C1006 C 0.89445 0.19604 0.78342 0.0
C1007 C 0.87457 0.25965 0.81901 0.0
C1008 C 0.93087 0.22811 0.83382 0.0
C1009 C 0.94356 0.24046 0.82319 0.0
C1010 C 0.91164 0.22346 0.82667 0.0
C1011 C 0.90514 0.2311 0.80833 0.0
C1012 C 0.91823 0.24283 0.79716 0.0
C1013 C 0.9372 0.24749 0.80479 0.0
C1014 C 0.89802 0.21107 0.83908 0.0
C1015 C 0.91202 0.25097 0.77738 0.0
H1016 H 0.85644 0.19729 0.77046 0.0
H1017 H 0.83991 0.25111 0.79995 0.0
H1018 H 0.90627 0.20295 0.77453 0.0
H1019 H 0.9016 0.19032 0.797 0.0
H1020 H 0.88781 0.18338 0.77476 0.0
H1021 H 0.86124 0.26843 0.82225 0.0
H1022 H 0.88116 0.25472 0.8332 0.0
H1023 H 0.88565 0.26944 0.81198 0.0
H1024 H 0.93568 0.22272 0.84809 0.0
H1025 H 0.947 0.25689 0.79641 0.0
H1026 H 0.89168 0.19847 0.83016 0.0
H1027 H 0.88547 0.22015 0.84405 0.0
H1028 H 0.90571 0.20518 0.85232 0.0
H1029 H 0.90622 0.23886 0.76746 0.0
H1030 H 0.92441 0.25865 0.76992 0.0
H1031 H 0.89989 0.26162 0.77944 0.0
C1032 C 0.47615 0.85591 0.45925 0.0
C1033 C 0.49291 0.86634 0.46665 0.0
C1034 C 0.4779 0.84046 0.44528 0.0
C1035 C 0.49687 0.83531 0.43856 0.0
C1036 C 0.51391 0.84524 0.44656 0.0
C1037 C 0.51173 0.86066 0.4605 0.0
C1038 C 0.45938 0.83017 0.43716 0.0
C1039 C 0.53439 0.84018 0.43975 0.0
C1040 C 0.50228 0.78702 0.40949 0.0
C1041 C 0.50164 0.79361 0.38992 0.0
C1042 C 0.50087 0.80041 0.42555 0.0
C1043 C 0.49874 0.82083 0.42191 0.0
C1044 C 0.49816 0.82756 0.40222 0.0
C1045 C 0.49963 0.8139 0.3865 0.0
C1046 C 0.50156 0.79274 0.44637 0.0
C1047 C 0.49588 0.84921 0.39772 0.0
H1048 H 0.4616 0.86001 0.46421 0.0
H1049 H 0.52473 0.86876 0.46604 0.0
H1050 H 0.45745 0.83355 0.42124 0.0
H1051 H 0.46069 0.8139 0.43826 0.0
H1052 H 0.44591 0.83483 0.44506 0.0
H1053 H 0.54617 0.84798 0.44872 0.0
H1054 H 0.53668 0.82401 0.44056 0.0
H1055 H 0.53602 0.84435 0.42406 0.0
H1056 H 0.50384 0.77139 0.41228 0.0
H1057 H 0.49912 0.81918 0.37146 0.0
H1058 H 0.48768 0.79638 0.45403 0.0
H1059 H 0.51392 0.80006 0.4549 0.0
H1060 H 0.50353 0.77647 0.44671 0.0
H1061 H 0.48182 0.85464 0.40386 0.0
H1062 H 0.49587 0.85204 0.38158 0.0
H1063 H 0.50811 0.85803 0.4049 0.0
C1064 C 0.12563 0.23062 0.76743 0.0
C1065 C 0.14292 0.23851 0.77655 0.0
C1066 C 0.10759 0.23031 0.77741 0.0
C1067 C 0.10679 0.23819 0.79693 0.0
C1068 C 0.1244 0.24509 0.80662 0.0
C1069 C 0.14225 0.24513 0.79633 0.0
C1070 C 0.08916 0.22272 0.76659 0.0
C1071 C 0.1242 0.25358 0.82744 0.0
C1072 C 0.05923 0.26304 0.81128 0.0
C1073 C 0.0503 0.24897 0.82344 0.0
C1074 C 0.07757 0.25965 0.80267 0.0
C1075 C 0.0873 0.24166 0.80616 0.0
C1076 C 0.07843 0.22732 0.81837 0.0
C1077 C 0.06002 0.23116 0.82693 0.0
C1078 C 0.08656 0.2754 0.78984 0.0
C1079 C 0.08835 0.20793 0.82231 0.0
H1080 H 0.12595 0.22559 0.75212 0.0
H1081 H 0.15563 0.25087 0.80362 0.0
H1082 H 0.0805 0.21269 0.77611 0.0
H1083 H 0.07959 0.23535 0.7629 0.0
H1084 H 0.09264 0.21467 0.75264 0.0
H1085 H 0.13938 0.25614 0.83367 0.0
H1086 H 0.11645 0.26791 0.82744 0.0
H1087 H 0.11598 0.24356 0.83731 0.0
H1088 H 0.05192 0.27688 0.80852 0.0
H1089 H 0.05322 0.22019 0.83627 0.0
H1090 H 0.08889 0.26932 0.77472 0.0
H1091 H 0.10126 0.28018 0.79598 0.0
H1092 H 0.07711 0.28862 0.78868 0.0
H1093 H 0.09074 0.19986 0.80814 0.0
H1094 H 0.07949 0.19831 0.83209 0.0
H1095 H 0.10312 0.21072 0.82935 0.0
C1096 C 0.51432 0.60637 0.44378 0.0
C1097 C 0.51595 0.61017 0.46423 0.0
C1098 C 0.51137 0.62178 0.43044 0.0
C1099 C 0.51013 0.64149 0.43771 0.0
C1100 C 0.51197 0.64545 0.45832 0.0
C1101 C 0.5148 0.62975 0.47132 0.0
C1102 C 0.50936 0.61694 0.40859 0.0
C1103 C 0.51089 0.66627 0.46664 0.0
C1104 C 0.5194 0.6836 0.40228 0.0
C1105 C 0.50006 0.68944 0.39764 0.0
C1106 C 0.52289 0.66803 0.41529 0.0
C1107 C 0.50667 0.65796 0.42379 0.0
C1108 C 0.48713 0.6637 0.41908 0.0
C1109 C 0.48406 0.6794 0.40612 0.0
C1110 C 0.54395 0.66241 0.42003 0.0
C1111 C 0.46944 0.65327 0.42776 0.0
H1112 H 0.51497 0.59126 0.43822 0.0
H1113 H 0.51631 0.63281 0.48708 0.0
H1114 H 0.49469 0.62163 0.40295 0.0
H1115 H 0.52075 0.62523 0.40033 0.0
H1116 H 0.51092 0.60089 0.40531 0.0
H1117 H 0.51289 0.66689 0.483 0.0
H1118 H 0.52244 0.67578 0.45998 0.0
H1119 H 0.49634 0.67265 0.46277 0.0
H1120 H 0.53186 0.69129 0.39585 0.0
H1121 H 0.46908 0.68376 0.40259 0.0
H1122 H 0.54622 0.64668 0.41585 0.0
H1123 H 0.5469 0.66395 0.43619 0.0
H1124 H 0.55492 0.67169 0.41219 0.0
H1125 H 0.46966 0.63725 0.42389 0.0
H1126 H 0.4552 0.65935 0.42241 0.0
H1127 H 0.47011 0.65463 0.44415 0.0
C1128 C 0.92342 0.83993 0.76001 0.0
C1129 C 0.91253 0.82595 0.77061 0.0
C1130 C 0.93249 0.83467 0.74221 0.0
C1131 C 0.93057 0.81498 0.73483 0.0
C1132 C 0.92052 0.80057 0.74601 0.0
C1133 C 0.91161 0.80623 0.76377 0.0
C1134 C 0.94324 0.85042 0.73079 0.0
C1135 C 0.91815 0.77942 0.73865 0.0
C1136 C 0.93048 0.8077 0.67909 0.0
C1137 C 0.94965 0.80091 0.6758 0.0
C1138 C 0.92413 0.81224 0.69824 0.0
C1139 C 0.93727 0.80995 0.71455 0.0
C1140 C 0.9566 0.803 0.71141 0.0
C1141 C 0.96258 0.79855 0.69205 0.0
C1142 C 0.90336 0.81958 0.70099 0.0
C1143 C 0.97098 0.80036 0.72847 0.0
H1144 H 0.92441 0.85512 0.76539 0.0
H1145 H 0.90305 0.79539 0.77178 0.0
H1146 H 0.95803 0.84522 0.72639 0.0
H1147 H 0.93477 0.8535 0.717 0.0
H1148 H 0.94515 0.86447 0.73947 0.0
H1149 H 0.91187 0.7696 0.75004 0.0
H1150 H 0.90814 0.77883 0.72544 0.0
H1151 H 0.93261 0.77354 0.73405 0.0
H1152 H 0.92037 0.80957 0.66666 0.0
H1153 H 0.97742 0.79331 0.68966 0.0
H1154 H 0.90388 0.83451 0.70809 0.0
H1155 H 0.89516 0.80963 0.71097 0.0
H1156 H 0.89495 0.82039 0.68677 0.0
H1157 H 0.97362 0.81471 0.7364 0.0
H1158 H 0.98542 0.79464 0.72355 0.0
H1159 H 0.96461 0.78995 0.73925 0.0
C1160 C 0.02199 0.88654 0.51422 0.0
C1161 C 0.03702 0.9005 0.51913 0.0
C1162 C 0.01579 0.87241 0.52783 0.0
C1163 C 0.02433 0.8726 0.5471 0.0
C1164 C 0.03965 0.8864 0.55216 0.0
C1165 C 0.04602 0.89997 0.53803 0.0
C1166 C -0.00031 0.85763 0.52172 0.0
C1167 C 0.04885 0.88728 0.57269 0.0
C1168 C 0.99052 0.85091 0.58551 0.0
C1169 C 0.9984 0.83209 0.58797 0.0
C1170 C -0.00054 0.86461 0.573 0.0
C1171 C 0.01631 0.85907 0.56221 0.0
C1172 C 0.02459 0.84021 0.56496 0.0
C1173 C 0.01568 0.82701 0.57807 0.0
C1174 C 0.99053 0.88479 0.57092 0.0
C1175 C 0.04222 0.83358 0.55332 0.0
H1176 H 0.0146 0.88691 0.49988 0.0
H1177 H 0.05795 0.91031 0.54193 0.0
H1178 H 0.00428 0.84241 0.52527 0.0
H1179 H 0.98608 0.86066 0.53011 0.0
H1180 H 0.996 0.85817 0.50565 0.0
H1181 H 0.06108 0.89846 0.57408 0.0
H1182 H 0.03739 0.89103 0.58364 0.0
H1183 H 0.05469 0.87263 0.57665 0.0
H1184 H 0.97724 0.85489 0.59331 0.0
H1185 H 0.02168 0.81238 0.57986 0.0
H1186 H 0.98414 0.88625 0.5558 0.0
H1187 H 0.00213 0.89651 0.57299 0.0
H1188 H 0.97867 0.88744 0.58177 0.0
H1189 H 0.03806 0.83241 0.53737 0.0
H1190 H 0.04768 0.81902 0.55815 0.0
H1191 H 0.0545 0.84464 0.55481 0.0
C1192 C 0.12232 0.72737 0.69359 0.0
C1193 C 0.12171 0.72978 0.71424 0.0
C1194 C 0.10552 0.73065 0.68165 0.0
C1195 C 0.08774 0.73661 0.69056 0.0
C1196 C 0.08695 0.7388 0.71139 0.0
C1197 C 0.10389 0.73527 0.72297 0.0
C1198 C 0.10689 0.72807 0.65948 0.0
C1199 C 0.06826 0.74514 0.72145 0.0
C1200 C 0.05008 0.76515 0.66075 0.0
C1201 C 0.03539 0.75063 0.65669 0.0
C1202 C 0.06735 0.76068 0.67145 0.0
C1203 C 0.07009 0.74119 0.67812 0.0
C1204 C 0.05559 0.72633 0.67362 0.0
C1205 C 0.03836 0.73125 0.66302 0.0
C1206 C 0.08243 0.77696 0.67607 0.0
C1207 C 0.0581 0.70533 0.68032 0.0
H1208 H 0.13606 0.72334 0.6867 0.0
H1209 H 0.10318 0.7368 0.73894 0.0
H1210 H 0.09512 0.71766 0.65385 0.0
H1211 H 0.10448 0.74245 0.65226 0.0
H1212 H 0.12148 0.7224 0.65495 0.0
H1213 H 0.07001 0.74587 0.73783 0.0
H1214 H 0.06394 0.75994 0.71621 0.0
H1215 H 0.05592 0.73468 0.71752 0.0
H1216 H 0.04791 0.78017 0.65593 0.0
H1217 H 0.02714 0.71991 0.65986 0.0
H1218 H 0.09719 0.77263 0.67074 0.0
H1219 H 0.08379 0.77935 0.69233 0.0
H1220 H 0.07842 0.79118 0.66921 0.0
H1221 H 0.07243 0.69955 0.67522 0.0
H1222 H 0.04599 0.69529 0.67469 0.0
H1223 H 0.05839 0.70498 0.69673 0.0
C1224 C 0.96454 0.65771 0.53343 0.0
C1225 C 0.94769 0.64543 0.5352 0.0
C1226 C 0.96694 0.67515 0.54485 0.0
C1227 C 0.95242 0.68021 0.55879 0.0
C1228 C 0.93573 0.6676 0.56117 0.0
C1229 C 0.93343 0.65051 0.54919 0.0
C1230 C 0.98482 0.68837 0.54168 0.0
C1231 C 0.92011 0.67234 0.57615 0.0
C1232 C 0.9678 0.7183 0.59844 0.0
C1233 C 0.95923 0.73547 0.5911 0.0
C1234 C 0.96527 0.70005 0.58836 0.0
C1235 C 0.95435 0.69913 0.57028 0.0
C1236 C 0.94566 0.71643 0.56282 0.0
C1237 C 0.94801 0.73435 0.57346 0.0
C1238 C 0.97434 0.68181 0.59699 0.0
C1239 C 0.93427 0.71612 0.54337 0.0
H1240 H 0.9759 0.65375 0.52306 0.0
H1241 H 0.92023 0.64135 0.55054 0.0
H1242 H 0.97999 0.70321 0.53704 0.0
H1243 H 0.9934 0.69044 0.55573 0.0
H1244 H 0.99476 0.6823 0.53025 0.0
H1245 H 0.90885 0.66025 0.57726 0.0
H1246 H 0.92708 0.67506 0.59097 0.0
H1247 H 0.91248 0.68608 0.57199 0.0
H1248 H 0.97638 0.71909 0.61215 0.0
H1249 H 0.94149 0.74762 0.56765 0.0
H1250 H 0.98559 0.67588 0.58683 0.0
H1251 H 0.9628 0.67008 0.5986 0.0
H1252 H 0.98152 0.68485 0.61168 0.0
H1253 H 0.944 0.71115 0.53127 0.0
H1254 H 0.92844 0.73088 0.53966 0.0
H1255 H 0.92168 0.70541 0.54389 0.0
C1256 C 0.78621 0.87649 0.21574 0.0
C1257 C 0.78962 0.86177 0.22967 0.0
C1258 C 0.79511 0.89534 0.21799 0.0
C1259 C 0.80794 0.89942 0.23441 0.0
C1260 C 0.81183 0.88442 0.24823 0.0
C1261 C 0.80248 0.86581 0.24578 0.0
C1262 C 0.79034 0.91104 0.20313 0.0
C1263 C 0.82562 0.88812 0.26579 0.0
C1264 C 0.84322 0.94393 0.23463 0.0
C1265 C 0.83362 0.95706 0.24738 0.0
C1266 C 0.83488 0.92519 0.22992 0.0
C1267 C 0.81637 0.91968 0.23788 0.0
C1268 C 0.80623 0.93326 0.25002 0.0
C1269 C 0.81505 0.9517 0.25475 0.0
C1270 C 0.84621 0.911 0.21709 0.0
C1271 C 0.78629 0.92812 0.25848 0.0
H1272 H 0.77613 0.87341 0.20335 0.0
H1273 H 0.80529 0.85435 0.25643 0.0
H1274 H 0.78259 0.92336 0.21057 0.0
H1275 H 0.80416 0.91732 0.19701 0.0
H1276 H 0.78083 0.90522 0.1907 0.0
H1277 H 0.82807 0.87453 0.27444 0.0
H1278 H 0.84014 0.89385 0.26078 0.0
H1279 H 0.8194 0.89956 0.27575 0.0
H1280 H 0.85762 0.94797 0.22898 0.0
H1281 H 0.80747 0.96188 0.26447 0.0
H1282 H 0.83677 0.90547 0.20451 0.0
H1283 H 0.85045 0.89798 0.22586 0.0
H1284 H 0.85985 0.91793 0.21114 0.0
H1285 H 0.77585 0.92305 0.2465 0.0
H1286 H 0.77973 0.94085 0.26647 0.0
H1287 H 0.78782 0.91576 0.26894 0.0
C1288 C 0.77383 0.13091 0.24092 0.0
C1289 C 0.78137 0.14958 0.24692 0.0
C1290 C 0.78591 0.11426 0.24078 0.0
C1291 C 0.80603 0.1163 0.24683 0.0
C1292 C 0.81402 0.1353 0.25176 0.0
C1293 C 0.80158 0.15171 0.25177 0.0
C1294 C 0.7768 0.09426 0.23542 0.0
C1295 C 0.83541 0.13812 0.25816 0.0
C1296 C 0.82688 0.07188 0.27272 0.0
C1297 C 0.83774 0.0627 0.25773 0.0
C1298 C 0.81693 0.08952 0.26941 0.0
C1299 C 0.8178 0.09832 0.25061 0.0
C1300 C 0.82915 0.08949 0.23552 0.0
C1301 C 0.83903 0.07176 0.23926 0.0
C1302 C 0.80509 0.09849 0.28597 0.0
C1303 C 0.83043 0.09851 0.21532 0.0
H1304 H 0.7582 0.12908 0.2373 0.0
H1305 H 0.80759 0.16616 0.25608 0.0
H1306 H 0.78623 0.0862 0.22484 0.0
H1307 H 0.77576 0.08524 0.24893 0.0
H1308 H 0.76172 0.09548 0.22878 0.0
H1309 H 0.83998 0.15399 0.25888 0.0
H1310 H 0.83767 0.13179 0.27304 0.0
H1311 H 0.84524 0.13018 0.24786 0.0
H1312 H 0.8259 0.06513 0.2871 0.0
H1313 H 0.84739 0.06478 0.2276 0.0
H1314 H 0.78921 0.09877 0.28154 0.0
H1315 H 0.81005 0.11401 0.28895 0.0
H1316 H 0.80648 0.09014 0.29992 0.0
H1317 H 0.81561 0.09804 0.20798 0.0
H1318 H 0.84097 0.09064 0.20566 0.0
H1319 H 0.83513 0.11429 0.2167 0.0
C1320 C 0.35141 0.96195 0.96651 0.0
C1321 C 0.35337 0.9797 0.97757 0.0
C1322 C 0.33709 0.94758 0.9711 0.0
C1323 C 0.32473 0.95071 0.9875 0.0
C1324 C 0.32619 0.96875 0.99842 0.0
C1325 C 0.34031 0.98313 0.99317 0.0
C1326 C 0.33575 0.92866 0.95886 0.0
C1327 C 0.31346 0.9725 0.01618 0.0
C1328 C 0.2805 0.91561 0.99206 0.0
C1329 C 0.28872 0.90066 0.00351 0.0
C1330 C 0.29186 0.93235 0.98709 0.0
C1331 C 0.31167 0.93432 0.9942 0.0
C1332 C 0.3196 0.91975 0.00669 0.0
C1333 C 0.30811 0.90296 0.01096 0.0
C1334 C 0.28305 0.94736 0.9734 0.0
C1335 C 0.34047 0.92153 0.01499 0.0
H1336 H 0.36153 0.95888 0.95465 0.0
H1337 H 0.34131 0.99694 0.00155 0.0
H1338 H 0.34107 0.91617 0.9678 0.0
H1339 H 0.32015 0.92527 0.95443 0.0
H1340 H 0.34476 0.92948 0.94529 0.0
H1341 H 0.31534 0.98785 0.02218 0.0
H1342 H 0.29762 0.96981 0.01229 0.0
H1343 H 0.31742 0.96205 0.02802 0.0
H1344 H 0.26553 0.91375 0.9862 0.0
H1345 H 0.31441 0.89148 0.01998 0.0
H1346 H 0.29068 0.94675 0.95901 0.0
H1347 H 0.2853 0.96255 0.97962 0.0
H1348 H 0.26696 0.94466 0.97065 0.0
H1349 H 0.35117 0.9202 0.00281 0.0
H1350 H 0.3437 0.90994 0.02597 0.0
H1351 H 0.34298 0.93626 0.0222 0.0
C1352 C 0.24457 0.41022 0.32316 0.0
C1353 C 0.25252 0.3986 0.30794 0.0
C1354 C 0.22617 0.41923 0.32074 0.0
C1355 C 0.2155 0.41661 0.30264 0.0
C1356 C 0.22371 0.40542 0.287 0.0
C1357 C 0.2421 0.39652 0.28985 0.0
C1358 C 0.21792 0.43111 0.33773 0.0
C1359 C 0.21279 0.40235 0.26746 0.0
C1360 C 0.15963 0.42107 0.30309 0.0
C1361 C 0.157 0.44012 0.29571 0.0
C1362 C 0.1786 0.41331 0.30551 0.0
C1363 C 0.19537 0.42483 0.30036 0.0
C1364 C 0.19286 0.44408 0.29295 0.0
C1365 C 0.17371 0.45151 0.29075 0.0
C1366 C 0.1807 0.39273 0.31353 0.0
C1367 C 0.2104 0.45675 0.28723 0.0
H1368 H 0.25268 0.41212 0.33707 0.0
H1369 H 0.24802 0.38737 0.27811 0.0
H1370 H 0.21419 0.44618 0.33282 0.0
H1371 H 0.20402 0.42399 0.34277 0.0
H1372 H 0.22845 0.43245 0.35052 0.0
H1373 H 0.22173 0.39427 0.25641 0.0
H1374 H 0.19887 0.39381 0.26975 0.0
H1375 H 0.20864 0.41681 0.26127 0.0
H1376 H 0.14683 0.41217 0.30699 0.0
H1377 H 0.17185 0.46623 0.285 0.0
H1378 H 0.19009 0.39326 0.32718 0.0
H1379 H 0.18819 0.38315 0.30258 0.0
H1380 H 0.16619 0.38577 0.31702 0.0
H1381 H 0.22066 0.45897 0.30012 0.0
H1382 H 0.20594 0.47147 0.28185 0.0
H1383 H 0.21875 0.44915 0.27543 0.0
C1384 C 0.15408 0.04033 0.47609 0.0
C1385 C 0.13594 0.04817 0.47003 0.0
C1386 C 0.17142 0.05201 0.47658 0.0
C1387 C 0.17061 0.07202 0.47087 0.0
C1388 C 0.1522 0.0803 0.46567 0.0
C1389 C 0.13506 0.06825 0.46526 0.0
C1390 C 0.19079 0.04262 0.48218 0.0
C1391 C 0.15074 0.10163 0.45969 0.0
C1392 C 0.21673 0.10328 0.48271 0.0
C1393 C 0.22698 0.10165 0.46489 0.0
C1394 C 0.19795 0.09436 0.4847 0.0
C1395 C 0.18931 0.08356 0.46852 0.0
C1396 C 0.19924 0.08254 0.45028 0.0
C1397 C 0.21792 0.09162 0.44868 0.0
C1398 C 0.18771 0.09587 0.50432 0.0
C1399 C 0.19048 0.07119 0.43264 0.0
H1400 H 0.1549 0.02478 0.47957 0.0
H1401 H 0.12101 0.07443 0.46083 0.0
H1402 H 0.20039 0.04187 0.46905 0.0
H1403 H 0.19877 0.05173 0.49369 0.0
H1404 H 0.18866 0.02741 0.48781 0.0
H1405 H 0.13514 0.10638 0.45826 0.0
H1406 H 0.15861 0.11148 0.47067 0.0
H1407 H 0.15799 0.10366 0.44525 0.0
H1408 H 0.22358 0.11107 0.49529 0.0
H1409 H 0.22565 0.09038 0.43481 0.0
H1410 H 0.18714 0.08111 0.51121 0.0
H1411 H 0.17222 0.10064 0.50214 0.0
H1412 H 0.19543 0.10643 0.51477 0.0
H1413 H 0.18926 0.05524 0.43612 0.0
H1414 H 0.19956 0.07279 0.41921 0.0
H1415 H 0.17533 0.07634 0.42926 0.0
C1416 C 0.68354 0.12102 0.7281 0.0
C1417 C 0.68896 0.13332 0.74431 0.0
C1418 C 0.67196 0.10383 0.7306 0.0
C1419 C 0.66562 0.09888 0.74977 0.0
C1420 C 0.67065 0.11149 0.76611 0.0
C1421 C 0.6823 0.12854 0.76319 0.0
C1422 C 0.667 0.09069 0.71282 0.0
C1423 C 0.66403 0.10677 0.78675 0.0
C1424 C 0.62347 0.06127 0.75421 0.0
C1425 C 0.63378 0.04395 0.75833 0.0
C1426 C 0.63362 0.07931 0.75149 0.0
C1427 C 0.65455 0.08001 0.75285 0.0
C1428 C 0.66502 0.0626 0.75705 0.0
C1429 C 0.65452 0.04481 0.75978 0.0
C1430 C 0.62196 0.09761 0.74712 0.0
C1431 C 0.68735 0.06273 0.75855 0.0
H1432 H 0.68882 0.12454 0.71351 0.0
H1433 H 0.68624 0.13816 0.77572 0.0
H1434 H 0.67387 0.07605 0.71469 0.0
H1435 H 0.65076 0.08813 0.71154 0.0
H1436 H 0.67226 0.09712 0.69881 0.0
H1437 H 0.66837 0.1186 0.7977 0.0
H1438 H 0.64772 0.10468 0.7869 0.0
H1439 H 0.67064 0.0927 0.79152 0.0
H1440 H 0.60745 0.06075 0.75309 0.0
H1441 H 0.66263 0.03151 0.76293 0.0
H1442 H 0.62627 0.10355 0.73259 0.0
H1443 H 0.62541 0.10929 0.75846 0.0
H1444 H 0.60573 0.09464 0.74681 0.0
H1445 H 0.69371 0.06771 0.74443 0.0
H1446 H 0.69326 0.04792 0.76194 0.0
H1447 H 0.69254 0.07337 0.77031 0.0
C1448 C 0.38848 0.01912 0.52081 0.0
C1449 C 0.40619 0.02005 0.51039 0.0
C1450 C 0.37291 0.03184 0.51634 0.0
C1451 C 0.37536 0.04605 0.5014 0.0
C1452 C 0.39348 0.0474 0.49127 0.0
C1453 C 0.40861 0.03421 0.49574 0.0
C1454 C 0.35367 0.02969 0.52717 0.0
C1455 C 0.39678 0.0626 0.47551 0.0
C1456 C 0.33074 0.06543 0.47367 0.0
C1457 C 0.32811 0.0838 0.48312 0.0
C1458 C 0.34572 0.05277 0.47988 0.0
C1459 C 0.35867 0.05884 0.49562 0.0
C1460 C 0.35601 0.07732 0.50533 0.0
C1461 C 0.34058 0.0895 0.4991 0.0
C1462 C 0.34781 0.03298 0.46944 0.0
C1463 C 0.36977 0.08442 0.52193 0.0
H1464 H 0.38662 0.00804 0.53206 0.0
H1465 H 0.42242 0.03499 0.48784 0.0
H1466 H 0.34968 0.04401 0.53414 0.0
H1467 H 0.34158 0.02546 0.5165 0.0
H1468 H 0.35439 0.01833 0.53882 0.0
H1469 H 0.41216 0.06258 0.47 0.0
H1470 H 0.38646 0.0596 0.46281 0.0
H1471 H 0.39359 0.07761 0.48142 0.0
H1472 H 0.321 0.06087 0.46144 0.0
H1473 H 0.33864 0.10374 0.50637 0.0
H1474 H 0.34762 0.02093 0.48036 0.0
H1475 H 0.36223 0.03247 0.4619 0.0
H1476 H 0.33582 0.03001 0.45826 0.0
H1477 H 0.36998 0.0735 0.53396 0.0
H1478 H 0.36544 0.09898 0.52821 0.0
H1479 H 0.38509 0.08577 0.5164 0.0
C1480 C 0.60923 0.45227 0.49948 0.0
C1481 C 0.60433 0.45956 0.51831 0.0
C1482 C 0.62452 0.43868 0.49708 0.0
C1483 C 0.6352 0.43222 0.5139 0.0
C1484 C 0.63031 0.43949 0.53295 0.0
C1485 C 0.61497 0.45306 0.53491 0.0
C1486 C 0.62927 0.43125 0.47653 0.0
C1487 C 0.64139 0.43302 0.55125 0.0
C1488 C 0.66354 0.38419 0.5106 0.0
C1489 C 0.68301 0.39113 0.50811 0.0
C1490 C 0.64781 0.39738 0.51236 0.0
C1491 C 0.65163 0.41801 0.51161 0.0
C1492 C 0.67122 0.42511 0.50895 0.0
C1493 C 0.68666 0.4116 0.50724 0.0
C1494 C 0.62712 0.38924 0.51519 0.0
C1495 C 0.67591 0.447 0.50805 0.0
H1496 H 0.60092 0.45701 0.4866 0.0
H1497 H 0.61149 0.45883 0.54948 0.0
H1498 H 0.64489 0.43496 0.47314 0.0
H1499 H 0.62761 0.4149 0.47571 0.0
H1500 H 0.61955 0.43768 0.46499 0.0
H1501 H 0.63559 0.43984 0.565 0.0
H1502 H 0.64037 0.41669 0.55245 0.0
H1503 H 0.65731 0.43708 0.55017 0.0
H1504 H 0.66055 0.36841 0.51128 0.0
H1505 H 0.70164 0.41713 0.5053 0.0
H1506 H 0.61711 0.39446 0.50327 0.0
H1507 H 0.62129 0.3948 0.52945 0.0
H1508 H 0.62656 0.37281 0.51513 0.0
H1509 H 0.6672 0.45368 0.4959 0.0
H1510 H 0.69187 0.45011 0.50564 0.0
H1511 H 0.6716 0.45445 0.52205 0.0
C1512 C 0.71481 0.27 0.37468 0.0
C1513 C 0.71581 0.27997 0.35671 0.0
C1514 C 0.71763 0.28018 0.39281 0.0
C1515 C 0.72182 0.30079 0.39297 0.0
C1516 C 0.72209 0.31105 0.37489 0.0
C1517 C 0.71897 0.30052 0.35696 0.0
C1518 C 0.71698 0.26873 0.41177 0.0
C1519 C 0.72672 0.33297 0.37441 0.0
C1520 C 0.72035 0.32932 0.44208 0.0
C1521 C 0.74028 0.32893 0.44823 0.0
C1522 C 0.71405 0.32036 0.42403 0.0
C1523 C 0.72807 0.31106 0.41179 0.0
C1524 C 0.74824 0.31103 0.41775 0.0
C1525 C 0.75406 0.31984 0.4359 0.0
C1526 C 0.69239 0.3205 0.41822 0.0
C1527 C 0.76371 0.30149 0.40504 0.0
H1528 H 0.71208 0.25415 0.37451 0.0
H1529 H 0.71986 0.30824 0.34308 0.0
H1530 H 0.73205 0.26827 0.41851 0.0
H1531 H 0.70733 0.27617 0.42261 0.0
H1532 H 0.71147 0.25328 0.40927 0.0
H1533 H 0.72442 0.33909 0.35942 0.0
H1534 H 0.71737 0.34112 0.385 0.0
H1535 H 0.74238 0.33573 0.37905 0.0
H1536 H 0.70962 0.33628 0.45155 0.0
H1537 H 0.76952 0.31962 0.44042 0.0
H1538 H 0.68648 0.30509 0.41707 0.0
H1539 H 0.69045 0.32715 0.40345 0.0
H1540 H 0.68346 0.32888 0.42906 0.0
H1541 H 0.76041 0.28541 0.40327 0.0
H1542 H 0.77889 0.30345 0.41145 0.0
H1543 H 0.76342 0.30789 0.39004 0.0
C1544 C 0.50395 0.02452 0.86494 0.0
C1545 C 0.504 0.01587 0.8836 0.0
C1546 C 0.51732 0.01847 0.85046 0.0
C1547 C 0.53131 0.0038 0.85501 0.0
C1548 C 0.53167 0.99539 0.87404 0.0
C1549 C 0.51783 0.00137 0.88805 0.0
C1550 C 0.51619 0.02745 0.83019 0.0
C1551 C 0.54663 0.98003 0.87959 0.0
C1552 C 0.55363 0.97303 0.81385 0.0
C1553 C 0.57192 0.9827 0.81137 0.0
C1554 C 0.5401 0.98003 0.8277 0.0
C1555 C 0.5452 0.99679 0.8397 0.0
C1556 C 0.5637 0.00657 0.83734 0.0
C1557 C 0.57675 -0.00045 0.823 0.0
C1558 C 0.52033 0.96947 0.82947 0.0
C1559 C 0.56982 0.02423 0.85018 0.0
H1560 H 0.49314 0.03566 0.86154 0.0
H1561 H 0.5179 0.99485 0.90259 0.0
H1562 H 0.53062 0.03444 0.82657 0.0
H1563 H 0.51305 0.01567 0.81885 0.0
H1564 H 0.50452 0.03875 0.82909 0.0
H1565 H 0.54559 0.97574 0.89533 0.0
H1566 H 0.54434 0.96658 0.87012 0.0
H1567 H 0.56183 0.98575 0.87697 0.0
H1568 H 0.54976 0.96012 0.80474 0.0
H1569 H 0.59092 0.007 0.82118 0.0
H1570 H 0.50816 0.98009 0.82747 0.0
H1571 H 0.51896 0.9633 0.84449 0.0
H1572 H 0.51829 0.95721 0.81841 0.0
H1573 H 0.55898 0.03622 0.84846 0.0
H1574 H 0.58474 0.03011 0.84651 0.0
H1575 H 0.56992 0.02005 0.86598 0.0
C1576 C 0.34277 0.2548 0.40448 0.0
C1577 C 0.32782 0.26646 0.39638 0.0
C1578 C 0.3381 0.23757 0.41483 0.0
C1579 C 0.31801 0.23187 0.41704 0.0
C1580 C 0.30286 0.24404 0.40967 0.0
C1581 C 0.30795 0.26117 0.39942 0.0
C1582 C 0.35465 0.22502 0.42262 0.0
C1583 C 0.28126 0.23843 0.41168 0.0
C1584 C 0.30523 0.17724 0.42037 0.0
C1585 C 0.3015 0.17526 0.4406 0.0
C1586 C 0.31083 0.19554 0.41262 0.0
C1587 C 0.3128 0.21232 0.42539 0.0
C1588 C 0.30923 0.21045 0.44585 0.0
C1589 C 0.30359 0.19193 0.45322 0.0
C1590 C 0.31445 0.19696 0.39068 0.0
C1591 C 0.3112 0.22803 0.45988 0.0
H1592 H 0.35815 0.25896 0.40238 0.0
H1593 H 0.2963 0.26993 0.39297 0.0
H1594 H 0.35222 0.22145 0.43836 0.0
H1595 H 0.35484 0.21081 0.41416 0.0
H1596 H 0.36936 0.23246 0.42139 0.0
H1597 H 0.27132 0.25037 0.40678 0.0
H1598 H 0.2778 0.22491 0.40262 0.0
H1599 H 0.27797 0.23497 0.42728 0.0
H1600 H 0.30369 0.16448 0.41049 0.0
H1601 H 0.30078 0.19054 0.46887 0.0
H1602 H 0.32964 0.20275 0.38819 0.0
H1603 H 0.304 0.2075 0.38398 0.0
H1604 H 0.31261 0.18244 0.38283 0.0
H1605 H 0.32624 0.23478 0.459 0.0
H1606 H 0.30851 0.22399 0.47548 0.0
H1607 H 0.30051 0.2395 0.45556 0.0
C1608 C 0.49135 0.49439 0.84509 0.0
C1609 C 0.49799 0.47509 0.848 0.0
C1610 C 0.47506 0.49796 0.8326 0.0
C1611 C 0.46509 0.48183 0.82289 0.0
C1612 C 0.47239 0.46247 0.82488 0.0
C1613 C 0.48879 0.45934 0.83738 0.0
C1614 C 0.46779 0.51884 0.83077 0.0
C1615 C 0.46219 0.44489 0.81473 0.0
C1616 C 0.40988 0.48628 0.81408 0.0
C1617 C 0.40867 0.48991 0.79373 0.0
C1618 C 0.42816 0.4837 0.82367 0.0
C1619 C 0.44576 0.48488 0.81269 0.0
C1620 C 0.44474 0.48876 0.79218 0.0
C1621 C 0.42618 0.49119 0.78291 0.0
C1622 C 0.42861 0.47953 0.84556 0.0
C1623 C 0.46323 0.49023 0.78006 0.0
H1624 H 0.49826 0.50664 0.85336 0.0
H1625 H 0.49408 0.44444 0.83926 0.0
H1626 H 0.46483 0.52232 0.81503 0.0
H1627 H 0.45365 0.5203 0.83871 0.0
H1628 H 0.47858 0.52993 0.8371 0.0
H1629 H 0.47091 0.43119 0.81606 0.0
H1630 H 0.44753 0.44229 0.82143 0.0
H1631 H 0.45958 0.44781 0.79881 0.0
H1632 H 0.39647 0.48523 0.82258 0.0
H1633 H 0.42539 0.49402 0.76719 0.0
H1634 H 0.43767 0.49103 0.85363 0.0
H1635 H 0.43562 0.46509 0.84819 0.0
H1636 H 0.41358 0.47917 0.85196 0.0
H1637 H 0.47337 0.50186 0.78646 0.0
H1638 H 0.45995 0.49374 0.76437 0.0
H1639 H 0.47123 0.47606 0.78051 0.0
C1640 C 0.76025 0.71776 0.11358 0.0
C1641 C 0.75827 0.70862 0.13192 0.0
C1642 C 0.76441 0.7067 0.09647 0.0
C1643 C 0.76666 0.68599 0.09771 0.0
C1644 C 0.76447 0.67662 0.11612 0.0
C1645 C 0.76026 0.68806 0.13303 0.0
C1646 C 0.76652 0.71721 0.07707 0.0
C1647 C 0.76683 0.65457 0.118 0.0
C1648 C 0.76119 0.65657 0.04948 0.0
C1649 C 0.781 0.65454 0.04403 0.0
C1650 C 0.75631 0.66636 0.06717 0.0
C1651 C 0.7716 0.67426 0.07971 0.0
C1652 C 0.79162 0.67179 0.07456 0.0
C1653 C 0.79608 0.66198 0.05677 0.0
C1654 C 0.73478 0.6687 0.07218 0.0
C1655 C 0.80833 0.67996 0.08761 0.0
H1656 H 0.75841 0.73361 0.1126 0.0
H1657 H 0.75892 0.68097 0.1472 0.0
H1658 H 0.78155 0.71495 0.0712 0.0
H1659 H 0.75577 0.7109 0.06596 0.0
H1660 H 0.76405 0.73336 0.07858 0.0
H1661 H 0.76421 0.6495 0.13329 0.0
H1662 H 0.75634 0.64656 0.10774 0.0
H1663 H 0.78199 0.65039 0.11373 0.0
H1664 H 0.74943 0.65082 0.03975 0.0
H1665 H 0.81142 0.6604 0.05271 0.0
H1666 H 0.73108 0.68463 0.07242 0.0
H1667 H 0.73194 0.66299 0.08717 0.0
H1668 H 0.72471 0.66083 0.06138 0.0
H1669 H 0.80759 0.69634 0.08848 0.0
H1670 H 0.8231 0.67588 0.08202 0.0
H1671 H 0.80688 0.67445 0.10288 0.0
C1672 C 0.95538 0.03801 0.11757 0.0
C1673 C 0.96064 0.02093 0.10693 0.0
C1674 C 0.94274 0.0369 0.1338 0.0
C1675 C 0.93514 0.01826 0.13957 0.0
C1676 C 0.94034 0.00097 0.12887 0.0
C1677 C 0.95302 0.00251 0.1127 0.0
C1678 C 0.93762 0.05567 0.14487 0.0
C1679 C 0.9325 0.98083 0.13451 0.0
C1680 C 0.91733 0.01303 0.19232 0.0
C1681 C 0.89673 0.01441 0.18982 0.0
C1682 C 0.92998 0.01422 0.1761 0.0
C1683 C 0.92187 0.01685 0.15689 0.0
C1684 C 0.90111 0.01822 0.15424 0.0
C1685 C 0.8888 0.01699 0.17073 0.0
C1686 C 0.95203 0.01269 0.17954 0.0
C1687 C 0.8919 0.02103 0.13399 0.0
H1688 H 0.96141 0.05226 0.11339 0.0
H1689 H 0.9568 0.98928 0.10441 0.0
H1690 H 0.92134 0.05749 0.14478 0.0
H1691 H 0.94257 0.05477 0.16056 0.0
H1692 H 0.94457 0.06902 0.13837 0.0
H1693 H 0.93792 0.96884 0.12466 0.0
H1694 H 0.93702 0.97765 0.14997 0.0
H1695 H 0.91609 0.9806 0.13385 0.0
H1696 H 0.92362 0.01104 0.207 0.0
H1697 H 0.87292 0.01807 0.16863 0.0
H1698 H 0.95965 0.02629 0.17442 0.0
H1699 H 0.95779 8e-05 0.17079 0.0
H1700 H 0.95598 0.01061 0.19538 0.0
H1701 H 0.89769 0.03491 0.12755 0.0
H1702 H 0.87551 0.02169 0.13441 0.0
H1703 H 0.896 0.00869 0.12391 0.0
C1704 C 0.24022 0.78448 0.15324 0.0
C1705 C 0.24642 0.76498 0.1506 0.0
C1706 C 0.23887 0.79722 0.13709 0.0
C1707 C 0.24345 0.79005 0.11791 0.0
C1708 C 0.24873 0.77002 0.11513 0.0
C1709 C 0.2504 0.75779 0.13157 0.0
C1710 C 0.23356 0.81855 0.14071 0.0
C1711 C 0.25337 0.76169 0.09489 0.0
C1712 C 0.23045 0.81772 0.07106 0.0
C1713 C 0.2491 0.82514 0.06589 0.0
C1714 C 0.22811 0.80682 0.08842 0.0
C1715 C 0.24474 0.80378 0.10101 0.0
C1716 C 0.26329 0.81242 0.09643 0.0
C1717 C 0.26529 0.82276 0.0788 0.0
C1718 C 0.20818 0.79756 0.09264 0.0
C1719 C 0.28129 0.80997 0.10968 0.0
H1720 H 0.23724 0.78997 0.16805 0.0
H1721 H 0.25506 0.74263 0.12962 0.0
H1722 H 0.2467 0.82819 0.13812 0.0
H1723 H 0.22174 0.82301 0.1302 0.0
H1724 H 0.22853 0.82129 0.15606 0.0
H1725 H 0.25516 0.74539 0.09497 0.0
H1726 H 0.24144 0.76523 0.08411 0.0
H1727 H 0.26729 0.76857 0.0896 0.0
H1728 H 0.21795 0.81947 0.061 0.0
H1729 H 0.27969 0.82869 0.07489 0.0
H1730 H 0.20407 0.80053 0.10822 0.0
H1731 H 0.20894 0.78127 0.0906 0.0
H1732 H 0.19633 0.8031 0.0827 0.0
H1733 H 0.27775 0.8137 0.12527 0.0
H1734 H 0.29398 0.81944 0.10518 0.0
H1735 H 0.28591 0.79431 0.10917 0.0
C1736 C 0.03378 0.43466 0.14621 0.0
C1737 C 0.02036 0.44926 0.14066 0.0
C1738 C 0.04514 0.4366 0.16375 0.0
C1739 C 0.04266 0.4533 0.17633 0.0
C1740 C 0.02928 0.46815 0.17082 0.0
C1741 C 0.0185 0.46609 0.15295 0.0
C1742 C 0.05954 0.42062 0.16898 0.0
C1743 C 0.02601 0.48603 0.18401 0.0
C1744 C 0.05548 0.44757 0.23076 0.0
C1745 C 0.07353 0.45804 0.23255 0.0
C1746 C 0.04521 0.44607 0.21257 0.0
C1747 C 0.05345 0.45484 0.19566 0.0
C1748 C 0.07184 0.46517 0.1973 0.0
C1749 C 0.08156 0.46687 0.21582 0.0
C1750 C 0.02541 0.43533 0.21151 0.0
C1751 C 0.0813 0.4743 0.17949 0.0
H1752 H 0.03518 0.42145 0.13706 0.0
H1753 H 0.00857 0.47771 0.14865 0.0
H1754 H 0.07441 0.42723 0.17228 0.0
H1755 H 0.05465 0.41303 0.1825 0.0
H1756 H 0.06084 0.40938 0.15689 0.0
H1757 H 0.01509 0.49629 0.17754 0.0
H1758 H 0.02062 0.48123 0.19861 0.0
H1759 H 0.04018 0.49426 0.18671 0.0
H1760 H 0.04914 0.44087 0.24371 0.0
H1761 H 0.09558 0.47487 0.21714 0.0
H1762 H 0.02596 0.42268 0.20086 0.0
H1763 H 0.01385 0.44541 0.20602 0.0
H1764 H 0.02089 0.42966 0.22611 0.0
H1765 H 0.08328 0.46282 0.16779 0.0
H1766 H 0.09593 0.48133 0.18315 0.0
H1767 H 0.07149 0.48566 0.17321 0.0
C1768 C 0.37601 0.69579 0.26868 0.0
C1769 C 0.35867 0.70003 0.27889 0.0
C1770 C 0.39472 0.69928 0.27755 0.0
C1771 C 0.39609 0.70745 0.29698 0.0
C1772 C 0.37862 0.71077 0.30772 0.0
C1773 C 0.3601 0.70693 0.29856 0.0
C1774 C 0.41299 0.69527 0.2657 0.0
C1775 C 0.37943 0.71964 0.32839 0.0
C1776 C 0.44602 0.71078 0.32419 0.0
C1777 C 0.45224 0.73011 0.31985 0.0
C1778 C 0.42781 0.70304 0.31677 0.0
C1779 C 0.41552 0.71502 0.30497 0.0
C1780 C 0.42171 0.73455 0.30066 0.0
C1781 C 0.43997 0.74178 0.30804 0.0
C1782 C 0.42175 0.68209 0.32149 0.0
C1783 C 0.40897 0.7479 0.28828 0.0
H1784 H 0.37493 0.69019 0.25356 0.0
H1785 H 0.34672 0.71033 0.30645 0.0
H1786 H 0.42 0.70951 0.26149 0.0
H1787 H 0.42399 0.68722 0.2747 0.0
H1788 H 0.40952 0.68649 0.25198 0.0
H1789 H 0.36477 0.71909 0.33556 0.0
H1790 H 0.39025 0.7118 0.33779 0.0
H1791 H 0.38446 0.73533 0.32777 0.0
H1792 H 0.45541 0.70166 0.33328 0.0
H1793 H 0.44455 0.75678 0.30468 0.0
H1794 H 0.41931 0.67334 0.30757 0.0
H1795 H 0.40754 0.682 0.32944 0.0
H1796 H 0.43304 0.67464 0.33073 0.0
H1797 H 0.40634 0.74116 0.27336 0.0
H1798 H 0.41583 0.76281 0.28655 0.0
H1799 H 0.39433 0.74965 0.2952 0.0
C1800 C 0.96246 0.35025 0.9721 0.0
C1801 C 0.97828 0.3607 0.98139 0.0
C1802 C 0.96569 0.33672 0.95657 0.0
C1803 C 0.98523 0.3335 0.95022 0.0
C1804 C 0.00134 0.34342 0.96002 0.0
C1805 C 0.99767 0.35693 0.97549 0.0
C1806 C 0.94813 0.32637 0.94653 0.0
C1807 C 0.02238 0.34035 0.95367 0.0
C1808 C 0.99373 0.28853 0.91705 0.0
C1809 C 0.99313 0.29688 0.89819 0.0
C1810 C 0.99153 0.3003 0.93419 0.0
C1811 C 0.98862 0.32088 0.9324 0.0
C1812 C 0.98832 0.32943 0.91345 0.0
C1813 C 0.9906 0.31735 0.8966 0.0
C1814 C 0.992 0.2907 0.95418 0.0
C1815 C 0.98523 0.35132 0.91093 0.0
H1816 H 0.94747 0.35285 0.97683 0.0
H1817 H 0.00994 0.36507 0.98249 0.0
H1818 H 0.94684 0.33118 0.93096 0.0
H1819 H 0.95023 0.31013 0.94619 0.0
H1820 H 0.93403 0.32956 0.95405 0.0
H1821 H 0.03332 0.34786 0.96387 0.0
H1822 H 0.02563 0.32433 0.95294 0.0
H1823 H 0.02436 0.34623 0.9386 0.0
H1824 H 0.99572 0.27274 0.91843 0.0
H1825 H 0.99015 0.32398 0.88212 0.0
H1826 H 0.97753 0.29251 0.96143 0.0
H1827 H 0.0034 0.29807 0.96392 0.0
H1828 H 0.9952 0.27466 0.9531 0.0
H1829 H 0.97059 0.35544 0.91675 0.0
H1830 H 0.98593 0.35574 0.89521 0.0
H1831 H 0.99663 0.35996 0.91958 0.0
C1832 C 0.64781 0.76319 0.28904 0.0
C1833 C 0.65572 0.74729 0.27832 0.0
C1834 C 0.62954 0.76135 0.2984 0.0
C1835 C 0.61864 0.7433 0.29671 0.0
C1836 C 0.62681 0.72695 0.2866 0.0
C1837 C 0.64533 0.72909 0.27769 0.0
C1838 C 0.62146 0.77906 0.30932 0.0
C1839 C 0.61559 0.7075 0.28435 0.0
C1840 C 0.57448 0.73704 0.33034 0.0
C1841 C 0.55913 0.74414 0.31834 0.0
C1842 C 0.59394 0.73621 0.32339 0.0
C1843 C 0.59797 0.74225 0.30389 0.0
C1844 C 0.58231 0.74849 0.29144 0.0
C1845 C 0.56314 0.74955 0.29888 0.0
C1846 C 0.6103 0.72976 0.33719 0.0
C1847 C 0.5859 0.75466 0.27042 0.0
H1848 H 0.65549 0.77741 0.28947 0.0
H1849 H 0.65146 0.71656 0.26986 0.0
H1850 H 0.60853 0.78477 0.30101 0.0
H1851 H 0.61628 0.77477 0.32414 0.0
H1852 H 0.63265 0.79123 0.31119 0.0
H1853 H 0.62468 0.69574 0.27757 0.0
H1854 H 0.61045 0.70244 0.29893 0.0
H1855 H 0.60223 0.70951 0.27485 0.0
H1856 H 0.57145 0.73296 0.34544 0.0
H1857 H 0.55127 0.75487 0.2895 0.0
H1858 H 0.62041 0.74252 0.34068 0.0
H1859 H 0.61922 0.71815 0.33 0.0
H1860 H 0.60452 0.72397 0.35128 0.0
H1861 H 0.59533 0.76827 0.27047 0.0
H1862 H 0.57191 0.75763 0.26221 0.0
H1863 H 0.59393 0.74297 0.26231 0.0
C1864 C 0.03173 0.11786 0.94966 0.0
C1865 C 0.01519 0.10683 0.95571 0.0
C1866 C 0.02976 0.13318 0.93606 0.0
C1867 C 0.01079 0.1376 0.92828 0.0
C1868 C 0.99404 0.12651 0.93428 0.0
C1869 C 0.99644 0.11128 0.94793 0.0
C1870 C 0.04797 0.14473 0.93012 0.0
C1871 C 0.97358 0.13073 0.92627 0.0
C1872 C 0.00304 0.18877 0.90737 0.0
C1873 C 0.00451 0.18513 0.88693 0.0
C1874 C 0.00499 0.17344 0.92096 0.0
C1875 C 0.00847 0.15396 0.91399 0.0
C1876 C 0.00986 0.15015 0.89339 0.0
C1877 C 0.00788 0.16577 0.88012 0.0
C1878 C 0.00342 0.17811 0.94281 0.0
C1879 C 0.01354 0.12957 0.88538 0.0
H1880 H 0.04623 0.11469 0.9558 0.0
H1881 H 0.98363 0.10266 0.95233 0.0
H1882 H 0.04969 0.14372 0.91384 0.0
H1883 H 0.04635 0.16061 0.93409 0.0
H1884 H 0.06167 0.13932 0.93736 0.0
H1885 H 0.96209 0.12071 0.93237 0.0
H1886 H 0.96969 0.14623 0.92988 0.0
H1887 H 0.97326 0.12907 0.9099 0.0
H1888 H 0.00044 0.20366 0.91281 0.0
H1889 H 0.00903 0.1628 0.86437 0.0
H1890 H 0.01732 0.17413 0.95063 0.0
H1891 H 0.99128 0.16914 0.94919 0.0
H1892 H 0.00057 0.194 0.94583 0.0
H1893 H 0.02779 0.12415 0.89139 0.0
H1894 H 0.01401 0.12902 0.86896 0.0
H1895 H 0.00173 0.11923 0.89023 0.0
C1896 C 0.417 0.32459 0.23658 0.0
C1897 C 0.39883 0.31513 0.24003 0.0
C1898 C 0.42778 0.31994 0.2196 0.0
C1899 C 0.42035 0.30519 0.20611 0.0
C1900 C 0.40235 0.29508 0.21004 0.0
C1901 C 0.39166 0.30037 0.22685 0.0
C1902 C 0.44669 0.33132 0.21569 0.0
C1903 C 0.39414 0.27899 0.19625 0.0
C1904 C 0.43341 0.30636 0.15185 0.0
C1905 C 0.44805 0.29199 0.15067 0.0
C1906 C 0.4248 0.31126 0.16996 0.0
C1907 C 0.43062 0.30119 0.18723 0.0
C1908 C 0.44553 0.28678 0.18618 0.0
C1909 C 0.45427 0.28253 0.16792 0.0
C1910 C 0.40926 0.32702 0.17053 0.0
C1911 C 0.4518 0.27545 0.20421 0.0
H1912 H 0.4224 0.33606 0.24683 0.0
H1913 H 0.37763 0.29303 0.22971 0.0
H1914 H 0.459 0.32099 0.21319 0.0
H1915 H 0.44485 0.34 0.20203 0.0
H1916 H 0.45094 0.34163 0.22811 0.0
H1917 H 0.38089 0.27144 0.20232 0.0
H1918 H 0.38995 0.28541 0.18182 0.0
H1919 H 0.40557 0.26778 0.19337 0.0
H1920 H 0.42871 0.31386 0.13857 0.0
H1921 H 0.46553 0.27134 0.16702 0.0
H1922 H 0.41324 0.33842 0.18202 0.0
H1923 H 0.3948 0.32036 0.17458 0.0
H1924 H 0.40742 0.33441 0.15609 0.0
H1925 H 0.45658 0.28582 0.21635 0.0
H1926 H 0.46409 0.26523 0.20107 0.0
H1927 H 0.43903 0.26669 0.20963 0.0
C1928 C 0.54279 0.36678 0.99285 0.0
C1929 C 0.54531 0.38676 0.99843 0.0
C1930 C 0.53563 0.35289 0.00625 0.0
C1931 C 0.5308 0.35916 0.02564 0.0
C1932 C 0.53412 0.37914 0.03162 0.0
C1933 C 0.54136 0.39271 0.01793 0.0
C1934 C 0.53244 0.33167 -0.00063 0.0
C1935 C 0.52909 0.3864 0.05215 0.0
C1936 C 0.49001 0.33007 0.05038 0.0
C1937 C 0.50072 0.31818 0.0634 0.0
C1938 C 0.49966 0.34358 0.03821 0.0
C1939 C 0.52056 0.34525 0.039 0.0
C1940 C 0.5315 0.33348 0.05223 0.0
C1941 C 0.52144 0.32009 0.06432 0.0
C1942 C 0.48745 0.35595 0.02435 0.0
C1943 C 0.55381 0.33487 0.05341 0.0
H1944 H 0.54611 0.36208 0.97787 0.0
H1945 H 0.54312 0.40817 0.02227 0.0
H1946 H 0.53941 0.32148 0.01001 0.0
H1947 H 0.51636 0.32805 0.99878 0.0
H1948 H 0.53859 0.32883 0.98448 0.0
H1949 H 0.53431 0.40187 0.05507 0.0
H1950 H 0.51281 0.3857 0.05397 0.0
H1951 H 0.53574 0.37675 0.06348 0.0
H1952 H 0.47401 0.32877 0.0496 0.0
H1953 H 0.52984 0.31096 0.07431 0.0
H1954 H 0.49149 0.3527 0.0088 0.0
H1955 H 0.49062 0.3719 0.02729 0.0
H1956 H 0.4713 0.35316 0.02585 0.0
H1957 H 0.56005 0.33079 0.03886 0.0
H1958 H 0.5601 0.32503 0.06481 0.0
H1959 H 0.55868 0.35032 0.05691 0.0
C1960 C 0.60854 0.24028 0.20848 0.0
C1961 C 0.62679 0.23557 0.20018 0.0
C1962 C 0.59147 0.24211 0.19658 0.0
C1963 C 0.59261 0.23902 0.17587 0.0
C1964 C 0.6109 0.23405 0.16739 0.0
C1965 C 0.62779 0.23244 0.17963 0.0
C1966 C 0.57224 0.24745 0.20619 0.0
C1967 C 0.61267 0.23059 0.14536 0.0
C1968 C 0.54425 0.22773 0.148 0.0
C1969 C 0.53966 0.2463 0.14043 0.0
C1970 C 0.56164 0.22504 0.15924 0.0
C1971 C 0.57468 0.24134 0.16309 0.0
C1972 C 0.57027 0.26006 0.15527 0.0
C1973 C 0.55285 0.2623 0.14398 0.0
C1974 C 0.56593 0.20482 0.16722 0.0
C1975 C 0.58376 0.27782 0.15914 0.0
H1976 H 0.60754 0.24237 0.22437 0.0
H1977 H 0.64186 0.22902 0.17306 0.0
H1978 H 0.56667 0.26142 0.2 0.0
H1979 H 0.56085 0.23577 0.2029 0.0
H1980 H 0.57384 0.24933 0.22251 0.0
H1981 H 0.62783 0.22626 0.14116 0.0
H1982 H 0.60206 0.21878 0.14023 0.0
H1983 H 0.6088 0.24423 0.1374 0.0
H1984 H 0.53419 0.21527 0.14526 0.0
H1985 H 0.54943 0.27671 0.1382 0.0
H1986 H 0.56627 0.20546 0.18364 0.0
H1987 H 0.58072 0.19999 0.16242 0.0
H1988 H 0.55471 0.1935 0.16223 0.0
H1989 H 0.58478 0.28111 0.17528 0.0
H1990 H 0.57849 0.29121 0.15153 0.0
H1991 H 0.59892 0.27462 0.15412 0.0
C1992 C 0.45417 0.12837 0.04121 0.0
C1993 C 0.45865 0.12791 0.02101 0.0
C1994 C 0.45664 0.14583 0.05262 0.0
C1995 C 0.46383 0.16321 0.04362 0.0
C1996 C 0.469 0.16267 0.02342 0.0
C1997 C 0.46629 0.14505 0.01235 0.0
C1998 C 0.45101 0.14583 0.07414 0.0
C1999 C 0.47674 0.1809 0.0133 0.0
C2000 C 0.44948 0.21342 0.06401 0.0
C2001 C 0.4669 0.21977 0.07402 0.0
C2002 C 0.44817 0.19484 0.05449 0.0
C2003 C 0.4647 0.1823 0.0549 0.0
C2004 C 0.48216 0.18837 0.06536 0.0
C2005 C 0.48305 0.20704 0.07486 0.0
C2006 C 0.42922 0.18883 0.0436 0.0
C2007 C 0.50009 0.17538 0.06608 0.0
H2008 H 0.44856 0.11509 0.04808 0.0
H2009 H 0.46957 0.1449 0.99671 0.0
H2010 H 0.46346 0.1517 0.08356 0.0
H2011 H 0.4383 0.15571 0.07643 0.0
H2012 H 0.44685 0.13081 0.07921 0.0
H2013 H 0.48138 0.17768 0.9979 0.0
H2014 H 0.46508 0.19224 0.01287 0.0
H2015 H 0.48956 0.18743 0.02176 0.0
H2016 H 0.43688 0.22309 0.06338 0.0
H2017 H 0.49656 0.21181 0.08256 0.0
H2018 H 0.42366 0.17439 0.04899 0.0
H2019 H 0.43209 0.18692 0.02757 0.0
H2020 H 0.41744 0.19992 0.04544 0.0
H2021 H 0.49596 0.16052 0.07154 0.0
H2022 H 0.51212 0.18178 0.07576 0.0
H2023 H 0.50588 0.1733 0.05094 0.0
C2024 C 0.29867 0.35061 0.72816 0.0
C2025 C 0.2783 0.34972 0.72384 0.0
C2026 C 0.30858 0.36885 0.73133 0.0
C2027 C 0.29788 0.3866 0.72998 0.0
C2028 C 0.27748 0.38581 0.72483 0.0
C2029 C 0.26791 0.36736 0.72193 0.0
C2030 C 0.3303 0.36907 0.73698 0.0
C2031 C 0.26561 0.40441 0.72305 0.0
C2032 C 0.31614 0.4307 0.76106 0.0
C2033 C 0.32602 0.44223 0.74713 0.0
C2034 C 0.30701 0.41259 0.75562 0.0
C2035 C 0.30758 0.40584 0.73571 0.0
C2036 C 0.31738 0.41742 0.72149 0.0
C2037 C 0.32658 0.43546 0.72739 0.0
C2038 C 0.29685 0.40061 0.77127 0.0
C2039 C 0.31812 0.41075 0.70009 0.0
H2040 H 0.30671 0.33699 0.72978 0.0
H2041 H 0.25221 0.36672 0.71831 0.0
H2042 H 0.33868 0.37919 0.72732 0.0
H2043 H 0.3323 0.37474 0.75242 0.0
H2044 H 0.3368 0.35413 0.7359 0.0
H2045 H 0.25037 0.40135 0.7172 0.0
H2046 H 0.26459 0.41178 0.73779 0.0
H2047 H 0.2731 0.41498 0.71316 0.0
H2048 H 0.31567 0.43572 0.77636 0.0
H2049 H 0.33415 0.44429 0.71653 0.0
H2050 H 0.30354 0.38578 0.77216 0.0
H2051 H 0.28097 0.39832 0.76724 0.0
H2052 H 0.2979 0.40787 0.78614 0.0
H2053 H 0.32557 0.3963 0.69893 0.0
H2054 H 0.32611 0.42157 0.69081 0.0
H2055 H 0.30288 0.40854 0.69398 0.0
C2056 C 0.29474 0.6387 0.75874 0.0
C2057 C 0.27446 0.63792 0.75386 0.0
C2058 C 0.30623 0.62163 0.75788 0.0
C2059 C 0.29723 0.60334 0.75196 0.0
C2060 C 0.27704 0.60266 0.74598 0.0
C2061 C 0.26589 0.61993 0.74705 0.0
C2062 C 0.32773 0.62298 0.76431 0.0
C2063 C 0.2669 0.58345 0.73954 0.0
C2064 C 0.32878 0.55849 0.74081 0.0
C2065 C 0.32763 0.54826 0.75865 0.0
C2066 C 0.31914 0.57658 0.7384 0.0
C2067 C 0.3082 0.58461 0.75422 0.0
C2068 C 0.30726 0.57449 0.77233 0.0
C2069 C 0.31694 0.55648 0.7743 0.0
C2070 C 0.32042 0.58697 0.71888 0.0
C2071 C 0.29584 0.58258 0.78961 0.0
H2072 H 0.30155 0.65262 0.76367 0.0
H2073 H 0.25021 0.61912 0.74343 0.0
H2074 H 0.32975 0.61524 0.77852 0.0
H2075 H 0.33713 0.61553 0.75326 0.0
H2076 H 0.33302 0.63854 0.76638 0.0
H2077 H 0.25184 0.58579 0.73324 0.0
H2078 H 0.2758 0.57562 0.72832 0.0
H2079 H 0.26559 0.57363 0.75244 0.0
H2080 H 0.33702 0.55227 0.72865 0.0
H2081 H 0.31603 0.54878 0.78819 0.0
H2082 H 0.32624 0.60229 0.72125 0.0
H2083 H 0.30542 0.58804 0.71209 0.0
H2084 H 0.33008 0.57915 0.70828 0.0
H2085 H 0.30142 0.59766 0.79375 0.0
H2086 H 0.29695 0.57311 0.80282 0.0
H2087 H 0.27998 0.58382 0.78536 0.0
C2088 C 0.85418 0.48148 0.5081 0.0
C2089 C 0.85833 0.4875 0.48883 0.0
C2090 C 0.84073 0.46586 0.5114 0.0
C2091 C 0.8313 0.456 0.49504 0.0
C2092 C 0.83489 0.46247 0.47562 0.0
C2093 C 0.84831 0.47817 0.47276 0.0
C2094 C 0.8372 0.45942 0.53234 0.0
C2095 C 0.8251 0.45236 0.45779 0.0
C2096 C 0.81565 0.40217 0.49961 0.0
C2097 C 0.79505 0.40347 0.50139 0.0
C2098 C 0.8276 0.41918 0.49789 0.0
C2099 C 0.8188 0.43801 0.49805 0.0
C2100 C 0.79809 0.43951 0.50029 0.0
C2101 C 0.78644 0.42221 0.50188 0.0
C2102 C 0.84964 0.41697 0.49546 0.0
C2103 C 0.78823 0.45936 0.50065 0.0
H2104 H 0.86197 0.4885 0.52058 0.0
H2105 H 0.85117 0.483 0.45786 0.0
H2106 H 0.82109 0.45842 0.53516 0.0
H2107 H 0.84328 0.44446 0.53446 0.0
H2108 H 0.84425 0.46972 0.54348 0.0
H2109 H 0.82859 0.45992 0.44379 0.0
H2110 H 0.8301 0.43684 0.45661 0.0
H2111 H 0.80881 0.45185 0.45946 0.0
H2112 H 0.82246 0.38778 0.49923 0.0
H2113 H 0.77056 0.42337 0.50332 0.0
H2114 H 0.85783 0.4257 0.50712 0.0
H2115 H 0.85411 0.42287 0.48097 0.0
H2116 H 0.85424 0.40131 0.49626 0.0
H2117 H 0.79524 0.46915 0.51223 0.0
H2118 H 0.77213 0.45806 0.50352 0.0
H2119 H 0.79023 0.46669 0.48625 0.0
C2120 C 0.74148 0.90195 0.82974 0.0
C2121 C 0.75836 0.90419 0.81809 0.0
C2122 C 0.72334 0.91002 0.82402 0.0
C2123 C 0.72181 0.92008 0.80592 0.0
C2124 C 0.73873 0.92257 0.79414 0.0
C2125 C 0.75686 0.91487 0.80051 0.0
C2126 C 0.70569 0.90742 0.8372 0.0
C2127 C 0.73759 0.93294 0.77456 0.0
C2128 C 0.67043 0.92136 0.78244 0.0
C2129 C 0.66488 0.94081 0.78676 0.0
C2130 C 0.68912 0.91458 0.78819 0.0
C2131 C 0.70231 0.9274 0.79901 0.0
C2132 C 0.69672 0.94702 0.80354 0.0
C2133 C 0.67815 0.95358 0.79709 0.0
C2134 C 0.69476 0.89371 0.78265 0.0
C2135 C 0.71018 0.96093 0.81551 0.0
H2136 H 0.74223 0.89343 0.84314 0.0
H2137 H 0.76982 0.91711 0.79157 0.0
H2138 H 0.69883 0.92193 0.84021 0.0
H2139 H 0.69432 0.89782 0.82961 0.0
H2140 H 0.70973 0.90067 0.85154 0.0
H2141 H 0.75213 0.9337 0.76717 0.0
H2142 H 0.72681 0.92502 0.76451 0.0
H2143 H 0.73219 0.9482 0.77673 0.0
H2144 H 0.66025 0.91152 0.77429 0.0
H2145 H 0.67382 0.9686 0.80056 0.0
H2146 H 0.69729 0.88506 0.79622 0.0
H2147 H 0.70882 0.8939 0.77441 0.0
H2148 H 0.68318 0.88596 0.77338 0.0
H2149 H 0.7134 0.95452 0.83019 0.0
H2150 H 0.70358 0.97571 0.8178 0.0
H2151 H 0.72451 0.96288 0.808 0.0
C2152 C 0.63989 0.55534 0.94494 0.0
C2153 C 0.64209 0.53526 0.94921 0.0
C2154 C 0.65587 0.5688 0.94721 0.0
C2155 C 0.67445 0.56197 0.95388 0.0
C2156 C 0.67661 0.54183 0.95872 0.0
C2157 C 0.66042 0.52873 0.9563 0.0
C2158 C 0.65301 0.59019 0.94202 0.0
C2159 C 0.69622 0.53398 0.96586 0.0
C2160 C 0.72222 0.58771 0.93978 0.0
C2161 C 0.72801 0.59723 0.95763 0.0
C2162 C 0.70438 0.57686 0.93814 0.0
C2163 C 0.69202 0.5755 0.95475 0.0
C2164 C 0.6973 0.58582 0.97254 0.0
C2165 C 0.71525 0.59659 0.97377 0.0
C2166 C 0.69919 0.56615 0.91887 0.0
C2167 C 0.68443 0.58475 0.99053 0.0
H2168 H 0.62567 0.56051 0.93971 0.0
H2169 H 0.66229 0.51319 0.95939 0.0
H2170 H 0.65794 0.60001 0.95455 0.0
H2171 H 0.66224 0.59397 0.92917 0.0
H2172 H 0.63733 0.59338 0.93826 0.0
H2173 H 0.69515 0.51818 0.96998 0.0
H2174 H 0.70732 0.53549 0.95406 0.0
H2175 H 0.7018 0.54275 0.97889 0.0
H2176 H 0.73189 0.58824 0.92717 0.0
H2177 H 0.71956 0.60396 0.9876 0.0
H2178 H 0.68398 0.56981 0.91389 0.0
H2179 H 0.69948 0.54994 0.92108 0.0
H2180 H 0.70962 0.56992 0.90693 0.0
H2181 H 0.66888 0.58812 0.98653 0.0
H2182 H 0.6896 0.59516 0.00253 0.0
H2183 H 0.68451 0.56951 0.99633 0.0
C2184 C 0.1782 0.6201 0.23835 0.0
C2185 C 0.18844 0.62908 0.25449 0.0
C2186 C 0.16529 0.60391 0.24099 0.0
C2187 C 0.1626 0.59649 0.26021 0.0
C2188 C 0.17244 0.60583 0.27663 0.0
C2189 C 0.18524 0.62202 0.27357 0.0
C2190 C 0.15506 0.59433 0.22311 0.0
C2191 C 0.16989 0.59838 0.29737 0.0
C2192 C 0.1189 0.562 0.2699 0.0
C2193 C 0.12784 0.54343 0.26921 0.0
C2194 C 0.12998 0.57943 0.26684 0.0
C2195 C 0.15045 0.57823 0.26302 0.0
C2196 C 0.1595 0.55953 0.26208 0.0
C2197 C 0.14809 0.54238 0.26517 0.0
C2198 C 0.11984 0.59912 0.26789 0.0
C2199 C 0.18129 0.55765 0.25801 0.0
H2200 H 0.18077 0.62531 0.22353 0.0
H2201 H 0.1929 0.62907 0.28612 0.0
H2202 H 0.16057 0.5791 0.2209 0.0
H2203 H 0.13889 0.59309 0.22548 0.0
H2204 H 0.15762 0.60273 0.20939 0.0
H2205 H 0.17773 0.60794 0.30865 0.0
H2206 H 0.15396 0.59759 0.301 0.0
H2207 H 0.17568 0.58317 0.29838 0.0
H2208 H 0.10327 0.56295 0.27301 0.0
H2209 H 0.15513 0.52811 0.26458 0.0
H2210 H 0.12187 0.60712 0.25387 0.0
H2211 H 0.12666 0.60847 0.27994 0.0
H2212 H 0.10374 0.59749 0.27061 0.0
H2213 H 0.18483 0.56452 0.24369 0.0
H2214 H 0.18599 0.54199 0.25748 0.0
H2215 H 0.19016 0.56567 0.26968 0.0
C2216 C 0.87003 0.5062 0.02251 0.0
C2217 C 0.88958 0.51097 0.02834 0.0
C2218 C 0.85725 0.52079 0.01568 0.0
C2219 C 0.86425 0.5406 0.01455 0.0
C2220 C 0.88383 0.54559 0.02082 0.0
C2221 C 0.89626 0.53071 0.02768 0.0
C2222 C 0.83639 0.51495 0.0093 0.0
C2223 C 0.89183 0.56653 0.01973 0.0
C2224 C 0.83819 0.57286 0.9773 0.0
C2225 C 0.82556 0.58377 0.9894 0.0
C2226 C 0.85109 0.559 0.98536 0.0
C2227 C 0.8513 0.55591 0.00602 0.0
C2228 C 0.83885 0.56708 0.01838 0.0
C2229 C 0.82616 0.58093 0.00993 0.0
C2230 C 0.86427 0.54745 0.97172 0.0
C2231 C 0.83865 0.56413 0.04047 0.0
H2232 H 0.86475 0.49099 0.02323 0.0
H2233 H 0.91143 0.53441 0.03198 0.0
H2234 H 0.8256 0.5241 0.01738 0.0
H2235 H 0.83423 0.51774 0.99329 0.0
H2236 H 0.83298 0.49909 0.01197 0.0
H2237 H 0.90707 0.56813 0.02606 0.0
H2238 H 0.89202 0.57117 0.00407 0.0
H2239 H 0.88207 0.57682 0.02778 0.0
H2240 H 0.83789 0.575 0.96144 0.0
H2241 H 0.81645 0.58928 0.01941 0.0
H2242 H 0.86051 0.53144 0.97241 0.0
H2243 H 0.87997 0.54937 0.97657 0.0
H2244 H 0.86281 0.55211 0.9561 0.0
H2245 H 0.83392 0.54872 0.04361 0.0
H2246 H 0.82853 0.57443 0.04808 0.0
H2247 H 0.85377 0.56635 0.04687 0.0
C2248 C 0.10228 0.94024 0.01326 0.0
C2249 C 0.10594 0.96073 0.01413 0.0
C2250 C 0.11779 0.9269 0.01081 0.0
C2251 C 0.13747 0.93423 0.00935 0.0
C2252 C 0.14127 0.9549 0.01037 0.0
C2253 C 0.12547 0.96789 0.01267 0.0
C2254 C 0.11312 0.90499 0.00963 0.0
C2255 C 0.16205 0.9633 0.00906 0.0
C2256 C 0.18029 0.90026 0.02073 0.0
C2257 C 0.18672 0.89519 0.0017 0.0
C2258 C 0.16416 0.91279 0.02344 0.0
C2259 C 0.15411 0.92033 0.00671 0.0
C2260 C 0.16029 0.91497 0.98746 0.0
C2261 C 0.17655 0.90253 0.98519 0.0
C2262 C 0.1581 0.91824 0.0442 0.0
C2263 C 0.14986 0.92258 0.96926 0.0
H2264 H 0.08719 0.93463 0.01417 0.0
H2265 H 0.12842 0.98369 0.01358 0.0
H2266 H 0.11809 0.89876 0.99529 0.0
H2267 H 0.12127 0.89728 0.02152 0.0
H2268 H 0.09705 0.90168 0.01105 0.0
H2269 H 0.16253 0.97971 0.01028 0.0
H2270 H 0.17151 0.95729 0.02103 0.0
H2271 H 0.1686 0.95878 0.99477 0.0
H2272 H 0.18805 0.89469 0.03358 0.0
H2273 H 0.18135 0.89864 0.97043 0.0
H2274 H 0.14232 0.91417 0.04631 0.0
H2275 H 0.15961 0.93449 0.0466 0.0
H2276 H 0.16718 0.91081 0.05563 0.0
H2277 H 0.13385 0.91871 0.96963 0.0
H2278 H 0.15602 0.91645 0.95535 0.0
H2279 H 0.15119 0.93895 0.96901 0.0
loop_
_geom_bond_atom_site_label_1
_geom_bond_atom_site_label_2
_geom_bond_distance
_geom_bond_site_symmetry_2
_ccdc_geom_bond_type
C0 C1 1.384 . S
C0 H13 0.947 . S
C0 C35 1.382 1_655 S
C1 C0 1.384 . S
C1 C2 1.378 1_655 S
C2 C1 1.378 1_455 S
C2 C3 1.378 . S
C2 H14 0.952 . S
C3 C2 1.378 . S
C3 H15 0.950 . S
C3 C34 1.383 . S
H4 C23 0.946 1_565 S
H5 C24 0.946 . S
H6 C26 0.953 . S
H7 C27 0.945 . S
H8 C29 0.952 1_556 S
H9 C30 0.949 . S
H10 C32 0.950 . S
H11 C33 0.948 . S
H12 C35 0.951 1_655 S
H13 C0 0.947 . S
H14 C2 0.952 . S
H15 C3 0.950 . S
N16 C19 1.382 . S
N16 C21 1.363 . S
N17 C19 1.371 . S
N17 C20 1.372 . S
N18 C20 1.361 . S
N18 C21 1.377 . S
C19 N16 1.382 . S
C19 N17 1.371 . S
C19 C22 1.480 . S
C20 N17 1.372 . S
C20 N18 1.361 . S
C20 C28 1.457 . S
C21 N16 1.363 . S
C21 N18 1.377 . S
C21 C34 1.479 . S
C22 C19 1.480 . S
C22 C23 1.383 . S
C22 C27 1.385 . S
C23 H4 0.946 1_545 S
C23 C22 1.383 . S
C23 C24 1.388 1_545 S
C24 H5 0.946 . S
C24 C23 1.388 1_565 S
C24 C25 1.384 . S
C25 C24 1.384 . S
C25 C26 1.377 1_565 S
C26 H6 0.953 . S
C26 C25 1.377 1_545 S
C26 C27 1.369 . S
C27 H7 0.945 . S
C27 C22 1.385 . S
C27 C26 1.369 . S
C28 C20 1.457 . S
C28 C29 1.372 . S
C28 C33 1.364 . S
C29 H8 0.952 1_554 S
C29 C28 1.372 . S
C29 C30 1.389 1_554 S
C30 H9 0.949 . S
C30 C29 1.389 1_556 S
C30 C31 1.387 . S
C31 C30 1.387 . S
C31 C32 1.372 1_556 S
C32 H10 0.950 . S
C32 C31 1.372 1_554 S
C32 C33 1.379 . S
C33 H11 0.948 . S
C33 C28 1.364 . S
C33 C32 1.379 . S
C34 C3 1.383 . S
C34 C21 1.479 . S
C34 C35 1.398 . S
C35 C0 1.382 1_455 S
C35 H12 0.951 1_455 S
C35 C34 1.398 . S
C36 C37 1.384 . S
C36 H49 0.947 . S
C36 C71 1.382 . S
C37 C36 1.384 . S
C37 C38 1.378 . S
C38 C37 1.378 . S
C38 C39 1.378 . S
C38 H50 0.952 . S
C39 C38 1.378 . S
C39 H51 0.950 . S
C39 C70 1.383 . S
H40 C59 0.947 . S
H41 C60 0.946 . S
H42 C62 0.953 . S
H43 C63 0.945 . S
H44 C65 0.952 . S
H45 C66 0.949 . S
H46 C68 0.950 . S
H47 C69 0.948 . S
H48 C71 0.951 . S
H49 C36 0.947 . S
H50 C38 0.952 . S
H51 C39 0.950 . S
N52 C55 1.382 . S
N52 C57 1.363 . S
N53 C55 1.371 . S
N53 C56 1.372 . S
N54 C56 1.361 . S
N54 C57 1.377 . S
C55 N52 1.382 . S
C55 N53 1.371 . S
C55 C58 1.480 . S
C56 N53 1.372 . S
C56 N54 1.361 . S
C56 C64 1.457 . S
C57 N52 1.363 . S
C57 N54 1.377 . S
C57 C70 1.479 . S
C58 C55 1.480 . S
C58 C59 1.383 . S
C58 C63 1.385 . S
C59 H40 0.947 . S
C59 C58 1.383 . S
C59 C60 1.388 . S
C60 H41 0.946 . S
C60 C59 1.388 . S
C60 C61 1.384 . S
C61 C60 1.384 . S
C61 C62 1.377 . S
C62 H42 0.953 . S
C62 C61 1.377 . S
C62 C63 1.369 . S
C63 H43 0.945 . S
C63 C58 1.385 . S
C63 C62 1.369 . S
C64 C56 1.457 . S
C64 C65 1.372 . S
C64 C69 1.364 . S
C65 H44 0.952 . S
C65 C64 1.372 . S
C65 C66 1.389 . S
C66 H45 0.949 . S
C66 C65 1.389 . S
C66 C67 1.387 . S
C67 C66 1.387 . S
C67 C68 1.372 . S
C68 H46 0.950 . S
C68 C67 1.372 . S
C68 C69 1.379 . S
C69 H47 0.948 . S
C69 C64 1.364 . S
C69 C68 1.379 . S
C70 C39 1.383 . S
C70 C57 1.479 . S
C70 C71 1.398 . S
C71 C36 1.382 . S
C71 H48 0.951 . S
C71 C70 1.398 . S
C72 C73 1.384 . S
C72 H85 0.947 . S
C72 C107 1.382 . S
C73 C72 1.384 . S
C73 C74 1.378 1_554 S
C74 C73 1.378 1_556 S
C74 C75 1.378 1_556 S
C74 H86 0.952 . S
C75 C74 1.378 1_554 S
C75 H87 0.950 . S
C75 C106 1.383 . S
H76 C95 0.947 . S
H77 C96 0.946 . S
H78 C98 0.953 . S
H79 C99 0.945 . S
H80 C101 0.952 . S
H81 C102 0.949 . S
H82 C104 0.950 . S
H83 C105 0.948 . S
H84 C107 0.951 . S
H85 C72 0.947 . S
H86 C74 0.952 . S
H87 C75 0.950 . S
N88 C91 1.382 . S
N88 C93 1.363 . S
N89 C91 1.371 . S
N89 C92 1.372 . S
N90 C92 1.361 . S
N90 C93 1.377 . S
C91 N88 1.382 . S
C91 N89 1.371 . S
C91 C94 1.480 . S
C92 N89 1.372 . S
C92 N90 1.361 . S
C92 C100 1.457 . S
C93 N88 1.363 . S
C93 N90 1.377 . S
C93 C106 1.479 . S
C94 C91 1.480 . S
C94 C95 1.383 . S
C94 C99 1.385 . S
C95 H76 0.947 . S
C95 C94 1.383 . S
C95 C96 1.388 . S
C96 H77 0.946 . S
C96 C95 1.388 . S
C96 C97 1.384 . S
C97 C96 1.384 . S
C97 C98 1.377 . S
C98 H78 0.953 . S
C98 C97 1.377 . S
C98 C99 1.369 . S
C99 H79 0.945 . S
C99 C94 1.385 . S
C99 C98 1.369 . S
C100 C92 1.457 . S
C100 C101 1.372 . S
C100 C105 1.364 . S
C101 H80 0.952 . S
C101 C100 1.372 . S
C101 C102 1.389 . S
C102 H81 0.949 . S
C102 C101 1.389 . S
C102 C103 1.387 1_655 S
C103 C102 1.387 1_455 S
C103 C104 1.372 . S
C104 H82 0.950 . S
C104 C103 1.372 . S
C104 C105 1.379 1_455 S
C105 H83 0.948 . S
C105 C100 1.364 . S
C105 C104 1.379 1_655 S
C106 C75 1.383 . S
C106 C93 1.479 . S
C106 C107 1.398 . S
C107 C72 1.382 . S
C107 H84 0.951 . S
C107 C106 1.398 . S
C108 C109 1.384 . S
C108 H121 0.947 . S
C108 C143 1.382 . S
C109 C108 1.384 . S
C109 C110 1.378 . S
C110 C109 1.378 . S
C110 C111 1.378 . S
C110 H122 0.952 . S
C111 C110 1.378 . S
C111 H123 0.950 . S
C111 C142 1.383 . S
H112 C131 0.947 . S
H113 C132 0.946 . S
H114 C134 0.953 . S
H115 C135 0.945 . S
H116 C137 0.952 . S
H117 C138 0.949 . S
H118 C140 0.950 . S
H119 C141 0.948 . S
H120 C143 0.951 . S
H121 C108 0.947 . S
H122 C110 0.952 . S
H123 C111 0.950 . S
N124 C127 1.382 . S
N124 C129 1.363 . S
N125 C127 1.371 . S
N125 C128 1.372 . S
N126 C128 1.361 . S
N126 C129 1.377 . S
C127 N124 1.382 . S
C127 N125 1.371 . S
C127 C130 1.480 . S
C128 N125 1.372 . S
C128 N126 1.361 . S
C128 C136 1.457 . S
C129 N124 1.363 . S
C129 N126 1.377 . S
C129 C142 1.479 . S
C130 C127 1.480 . S
C130 C131 1.383 . S
C130 C135 1.385 . S
C131 H112 0.947 . S
C131 C130 1.383 . S
C131 C132 1.388 . S
C132 H113 0.946 . S
C132 C131 1.388 . S
C132 C133 1.384 . S
C133 C132 1.384 . S
C133 C134 1.377 . S
C134 H114 0.953 . S
C134 C133 1.377 . S
C134 C135 1.369 . S
C135 H115 0.945 . S
C135 C130 1.385 . S
C135 C134 1.369 . S
C136 C128 1.457 . S
C136 C137 1.372 . S
C136 C141 1.364 . S
C137 H116 0.952 . S
C137 C136 1.372 . S
C137 C138 1.389 . S
C138 H117 0.949 . S
C138 C137 1.389 . S
C138 C139 1.387 . S
C139 C138 1.387 . S
C139 C140 1.372 . S
C140 H118 0.950 . S
C140 C139 1.372 . S
C140 C141 1.379 . S
C141 H119 0.948 . S
C141 C136 1.364 . S
C141 C140 1.379 . S
C142 C111 1.383 . S
C142 C129 1.479 . S
C142 C143 1.398 . S
C143 C108 1.382 . S
C143 H120 0.951 . S
C143 C142 1.398 . S
C144 C145 1.384 . S
C144 H157 0.947 . S
C144 C179 1.382 . S
C145 C144 1.384 . S
C145 C146 1.378 . S
C146 C145 1.378 . S
C146 C147 1.378 . S
C146 H158 0.952 . S
C147 C146 1.378 . S
C147 H159 0.950 . S
C147 C178 1.383 . S
H148 C167 0.947 . S
H149 C168 0.954 . S
H150 C170 0.953 . S
H151 C171 0.945 . S
H152 C173 0.952 . S
H153 C174 0.949 . S
H154 C176 0.950 . S
H155 C177 0.948 . S
H156 C179 0.951 . S
H157 C144 0.947 . S
H158 C146 0.952 . S
H159 C147 0.950 . S
N160 C163 1.382 . S
N160 C165 1.363 . S
N161 C163 1.371 . S
N161 C164 1.372 . S
N162 C164 1.361 . S
N162 C165 1.377 . S
C163 N160 1.382 . S
C163 N161 1.371 . S
C163 C166 1.480 . S
C164 N161 1.372 . S
C164 N162 1.361 . S
C164 C172 1.457 . S
C165 N160 1.363 . S
C165 N162 1.377 . S
C165 C178 1.479 . S
C166 C163 1.480 . S
C166 C167 1.383 . S
C166 C171 1.385 . S
C167 H148 0.947 . S
C167 C166 1.383 . S
C167 C168 1.382 1_455 S
C168 H149 0.954 . S
C168 C167 1.382 1_655 S
C168 C169 1.382 1_655 S
C169 C168 1.382 1_455 S
C169 C170 1.377 . S
C170 H150 0.953 . S
C170 C169 1.377 . S
C170 C171 1.369 . S
C171 H151 0.945 . S
C171 C166 1.385 . S
C171 C170 1.369 . S
C172 C164 1.457 . S
C172 C173 1.372 . S
C172 C177 1.364 . S
C173 H152 0.952 . S
C173 C172 1.372 . S
C173 C174 1.389 1_565 S
C174 H153 0.949 . S
C174 C173 1.389 1_545 S
C174 C175 1.385 . S
C175 C174 1.385 . S
C175 C176 1.376 1_545 S
C176 H154 0.950 . S
C176 C175 1.376 1_565 S
C176 C177 1.379 . S
C177 H155 0.948 . S
C177 C172 1.364 . S
C177 C176 1.379 . S
C178 C147 1.383 . S
C178 C165 1.479 . S
C178 C179 1.398 . S
C179 C144 1.382 . S
C179 H156 0.951 . S
C179 C178 1.398 . S
C180 C181 1.384 . S
C180 H193 0.947 . S
C180 C215 1.382 . S
C181 C180 1.384 . S
C181 C182 1.378 . S
C182 C181 1.378 . S
C182 C183 1.378 . S
C182 H194 0.952 . S
C183 C182 1.378 . S
C183 H195 0.950 . S
C183 C214 1.383 . S
H184 C203 0.947 . S
H185 C204 0.946 . S
H186 C206 0.953 . S
H187 C207 0.945 . S
H188 C209 0.952 . S
H189 C210 0.949 . S
H190 C212 0.950 . S
H191 C213 0.948 . S
H192 C215 0.951 . S
H193 C180 0.947 . S
H194 C182 0.952 . S
H195 C183 0.950 . S
N196 C199 1.382 . S
N196 C201 1.363 . S
N197 C199 1.371 . S
N197 C200 1.372 . S
N198 C200 1.361 . S
N198 C201 1.377 . S
C199 N196 1.382 . S
C199 N197 1.371 . S
C199 C202 1.480 . S
C200 N197 1.372 . S
C200 N198 1.361 . S
C200 C208 1.457 . S
C201 N196 1.363 . S
C201 N198 1.377 . S
C201 C214 1.479 . S
C202 C199 1.480 . S
C202 C203 1.383 . S
C202 C207 1.385 . S
C203 H184 0.947 . S
C203 C202 1.383 . S
C203 C204 1.388 . S
C204 H185 0.946 . S
C204 C203 1.388 . S
C204 C205 1.384 . S
C205 C204 1.384 . S
C205 C206 1.377 . S
C206 H186 0.953 . S
C206 C205 1.377 . S
C206 C207 1.369 . S
C207 H187 0.945 . S
C207 C202 1.385 . S
C207 C206 1.369 . S
C208 C200 1.457 . S
C208 C209 1.372 . S
C208 C213 1.364 . S
C209 H188 0.952 . S
C209 C208 1.372 . S
C209 C210 1.389 . S
C210 H189 0.949 . S
C210 C209 1.389 . S
C210 C211 1.387 . S
C211 C210 1.387 . S
C211 C212 1.372 . S
C212 H190 0.950 . S
C212 C211 1.372 . S
C212 C213 1.379 . S
C213 H191 0.948 . S
C213 C208 1.364 . S
C213 C212 1.379 . S
C214 C183 1.383 . S
C214 C201 1.479 . S
C214 C215 1.398 . S
C215 C180 1.382 . S
C215 H192 0.951 . S
C215 C214 1.398 . S
C216 C217 1.384 . S
C216 H229 0.947 . S
C216 C251 1.382 . S
C217 C216 1.384 . S
C217 C218 1.378 . S
C218 C217 1.378 . S
C218 C219 1.378 . S
C218 H230 0.952 . S
C219 C218 1.378 . S
C219 H231 0.950 . S
C219 C250 1.383 . S
H220 C239 0.947 . S
H221 C240 0.946 . S
H222 C242 0.953 . S
H223 C243 0.945 . S
H224 C245 0.952 . S
H225 C246 0.949 . S
H226 C248 0.950 . S
H227 C249 0.948 . S
H228 C251 0.951 . S
H229 C216 0.947 . S
H230 C218 0.952 . S
H231 C219 0.950 . S
N232 C235 1.382 . S
N232 C237 1.363 . S
N233 C235 1.371 . S
N233 C236 1.372 . S
N234 C236 1.361 . S
N234 C237 1.377 . S
C235 N232 1.382 . S
C235 N233 1.371 . S
C235 C238 1.480 . S
C236 N233 1.372 . S
C236 N234 1.361 . S
C236 C244 1.457 . S
C237 N232 1.363 . S
C237 N234 1.377 . S
C237 C250 1.479 . S
C238 C235 1.480 . S
C238 C239 1.383 . S
C238 C243 1.385 . S
C239 H220 0.947 . S
C239 C238 1.383 . S
C239 C240 1.388 . S
C240 H221 0.946 . S
C240 C239 1.388 . S
C240 C241 1.384 . S
C241 C240 1.384 . S
C241 C242 1.377 . S
C242 H222 0.953 . S
C242 C241 1.377 . S
C242 C243 1.369 . S
C243 H223 0.945 . S
C243 C238 1.385 . S
C243 C242 1.369 . S
C244 C236 1.457 . S
C244 C245 1.372 . S
C244 C249 1.364 1_655 S
C245 H224 0.952 . S
C245 C244 1.372 . S
C245 C246 1.389 . S
C246 H225 0.949 . S
C246 C245 1.389 . S
C246 C247 1.387 1_655 S
C247 C246 1.387 1_455 S
C247 C248 1.372 . S
C248 H226 0.950 . S
C248 C247 1.372 . S
C248 C249 1.379 . S
C249 H227 0.948 . S
C249 C244 1.364 1_455 S
C249 C248 1.379 . S
C250 C219 1.383 . S
C250 C237 1.479 . S
C250 C251 1.398 . S
C251 C216 1.382 . S
C251 H228 0.951 . S
C251 C250 1.398 . S
C252 C253 1.384 . S
C252 H265 0.947 . S
C252 C287 1.382 . S
C253 C252 1.384 . S
C253 C254 1.378 . S
C254 C253 1.378 . S
C254 C255 1.378 . S
C254 H266 0.952 . S
C255 C254 1.378 . S
C255 H267 0.950 . S
C255 C286 1.383 . S
H256 C275 0.947 . S
H257 C276 0.946 . S
H258 C278 0.953 . S
H259 C279 0.945 . S
H260 C281 0.952 . S
H261 C282 0.949 . S
H262 C284 0.950 . S
H263 C285 0.948 . S
H264 C287 0.951 . S
H265 C252 0.947 . S
H266 C254 0.952 . S
H267 C255 0.950 . S
N268 C271 1.382 . S
N268 C273 1.363 . S
N269 C271 1.371 . S
N269 C272 1.372 . S
N270 C272 1.361 . S
N270 C273 1.377 . S
C271 N268 1.382 . S
C271 N269 1.371 . S
C271 C274 1.480 . S
C272 N269 1.372 . S
C272 N270 1.361 . S
C272 C280 1.457 . S
C273 N268 1.363 . S
C273 N270 1.377 . S
C273 C286 1.479 . S
C274 C271 1.480 . S
C274 C275 1.383 . S
C274 C279 1.385 . S
C275 H256 0.947 . S
C275 C274 1.383 . S
C275 C276 1.388 . S
C276 H257 0.946 . S
C276 C275 1.388 . S
C276 C277 1.384 . S
C277 C276 1.384 . S
C277 C278 1.377 . S
C278 H258 0.953 . S
C278 C277 1.377 . S
C278 C279 1.369 . S
C279 H259 0.945 . S
C279 C274 1.385 . S
C279 C278 1.369 . S
C280 C272 1.457 . S
C280 C281 1.372 . S
C280 C285 1.364 . S
C281 H260 0.952 . S
C281 C280 1.372 . S
C281 C282 1.389 . S
C282 H261 0.949 . S
C282 C281 1.389 . S
C282 C283 1.387 . S
C283 C282 1.387 . S
C283 C284 1.372 . S
C284 H262 0.950 . S
C284 C283 1.372 . S
C284 C285 1.379 . S
C285 H263 0.948 . S
C285 C280 1.364 . S
C285 C284 1.379 . S
C286 C255 1.383 . S
C286 C273 1.479 . S
C286 C287 1.398 . S
C287 C252 1.382 . S
C287 H264 0.951 . S
C287 C286 1.398 . S
C288 C289 1.384 . S
C288 H301 0.947 . S
C288 C323 1.382 . S
C289 C288 1.384 . S
C289 C290 1.378 . S
C290 C289 1.378 . S
C290 C291 1.378 . S
C290 H302 0.952 . S
C291 C290 1.378 . S
C291 H303 0.950 . S
C291 C322 1.383 . S
H292 C311 0.947 . S
H293 C312 0.946 . S
H294 C314 0.953 . S
H295 C315 0.945 . S
H296 C317 0.952 . S
H297 C318 0.949 . S
H298 C320 0.950 . S
H299 C321 0.948 . S
H300 C323 0.951 . S
H301 C288 0.947 . S
H302 C290 0.952 . S
H303 C291 0.950 . S
N304 C307 1.382 . S
N304 C309 1.363 . S
N305 C307 1.371 . S
N305 C308 1.372 . S
N306 C308 1.361 . S
N306 C309 1.377 . S
C307 N304 1.382 . S
C307 N305 1.371 . S
C307 C310 1.480 . S
C308 N305 1.372 . S
C308 N306 1.361 . S
C308 C316 1.457 . S
C309 N304 1.363 . S
C309 N306 1.377 . S
C309 C322 1.479 . S
C310 C307 1.480 . S
C310 C311 1.383 . S
C310 C315 1.385 . S
C311 H292 0.947 . S
C311 C310 1.383 . S
C311 C312 1.388 . S
C312 H293 0.946 . S
C312 C311 1.388 . S
C312 C313 1.384 . S
C313 C312 1.384 . S
C313 C314 1.377 . S
C314 H294 0.953 . S
C314 C313 1.377 . S
C314 C315 1.369 . S
C315 H295 0.945 . S
C315 C310 1.385 . S
C315 C314 1.369 . S
C316 C308 1.457 . S
C316 C317 1.372 . S
C316 C321 1.364 . S
C317 H296 0.952 . S
C317 C316 1.372 . S
C317 C318 1.389 . S
C318 H297 0.949 . S
C318 C317 1.389 . S
C318 C319 1.387 . S
C319 C318 1.387 . S
C319 C320 1.372 . S
C320 H298 0.950 . S
C320 C319 1.372 . S
C320 C321 1.379 . S
C321 H299 0.948 . S
C321 C316 1.364 . S
C321 C320 1.379 . S
C322 C291 1.383 . S
C322 C309 1.479 . S
C322 C323 1.398 . S
C323 C288 1.382 . S
C323 H300 0.951 . S
C323 C322 1.398 . S
C324 C325 1.384 . S
C324 H337 0.947 . S
C324 C359 1.382 . S
C325 C324 1.384 . S
C325 C326 1.378 . S
C326 C325 1.378 . S
C326 C327 1.378 . S
C326 H338 0.952 . S
C327 C326 1.378 . S
C327 H339 0.950 . S
C327 C358 1.383 . S
H328 C347 0.947 . S
H329 C348 0.946 . S
H330 C350 0.953 . S
H331 C351 0.945 . S
H332 C353 0.952 . S
H333 C354 0.949 . S
H334 C356 0.950 . S
H335 C357 0.948 . S
H336 C359 0.951 . S
H337 C324 0.947 . S
H338 C326 0.952 . S
H339 C327 0.950 . S
N340 C343 1.382 . S
N340 C345 1.363 . S
N341 C343 1.371 . S
N341 C344 1.372 . S
N342 C344 1.361 . S
N342 C345 1.377 . S
C343 N340 1.382 . S
C343 N341 1.371 . S
C343 C346 1.480 . S
C344 N341 1.372 . S
C344 N342 1.361 . S
C344 C352 1.457 . S
C345 N340 1.363 . S
C345 N342 1.377 . S
C345 C358 1.479 . S
C346 C343 1.480 . S
C346 C347 1.383 . S
C346 C351 1.385 1_565 S
C347 H328 0.947 . S
C347 C346 1.383 . S
C347 C348 1.388 . S
C348 H329 0.946 . S
C348 C347 1.388 . S
C348 C349 1.384 1_565 S
C349 C348 1.384 1_545 S
C349 C350 1.377 . S
C350 H330 0.953 . S
C350 C349 1.377 . S
C350 C351 1.369 . S
C351 H331 0.945 . S
C351 C346 1.385 1_545 S
C351 C350 1.369 . S
C352 C344 1.457 . S
C352 C353 1.372 . S
C352 C357 1.364 . S
C353 H332 0.952 . S
C353 C352 1.372 . S
C353 C354 1.389 . S
C354 H333 0.949 . S
C354 C353 1.389 . S
C354 C355 1.387 . S
C355 C354 1.387 . S
C355 C356 1.372 . S
C356 H334 0.950 . S
C356 C355 1.372 . S
C356 C357 1.379 . S
C357 H335 0.948 . S
C357 C352 1.364 . S
C357 C356 1.379 . S
C358 C327 1.383 . S
C358 C345 1.479 . S
C358 C359 1.398 . S
C359 C324 1.382 . S
C359 H336 0.951 . S
C359 C358 1.398 . S
C360 C361 1.384 . S
C360 H373 0.947 . S
C360 C395 1.382 . S
C361 C360 1.384 . S
C361 C362 1.378 . S
C362 C361 1.378 . S
C362 C363 1.378 . S
C362 H374 0.952 . S
C363 C362 1.378 . S
C363 H375 0.950 . S
C363 C394 1.383 . S
H364 C383 0.947 . S
H365 C384 0.946 . S
H366 C386 0.953 . S
H367 C387 0.945 . S
H368 C389 0.952 . S
H369 C390 0.949 . S
H370 C392 0.950 . S
H371 C393 0.948 . S
H372 C395 0.951 . S
H373 C360 0.947 . S
H374 C362 0.952 . S
H375 C363 0.950 . S
N376 C379 1.382 . S
N376 C381 1.363 . S
N377 C379 1.371 . S
N377 C380 1.372 . S
N378 C380 1.361 . S
N378 C381 1.377 . S
C379 N376 1.382 . S
C379 N377 1.371 . S
C379 C382 1.480 . S
C380 N377 1.372 . S
C380 N378 1.361 . S
C380 C388 1.457 . S
C381 N376 1.363 . S
C381 N378 1.377 . S
C381 C394 1.479 . S
C382 C379 1.480 . S
C382 C383 1.383 . S
C382 C387 1.385 . S
C383 H364 0.947 . S
C383 C382 1.383 . S
C383 C384 1.388 . S
C384 H365 0.946 . S
C384 C383 1.388 . S
C384 C385 1.384 . S
C385 C384 1.384 . S
C385 C386 1.377 . S
C386 H366 0.953 . S
C386 C385 1.377 . S
C386 C387 1.369 . S
C387 H367 0.945 . S
C387 C382 1.385 . S
C387 C386 1.369 . S
C388 C380 1.457 . S
C388 C389 1.372 . S
C388 C393 1.364 . S
C389 H368 0.952 . S
C389 C388 1.372 . S
C389 C390 1.389 . S
C390 H369 0.949 . S
C390 C389 1.389 . S
C390 C391 1.387 . S
C391 C390 1.387 . S
C391 C392 1.372 . S
C392 H370 0.950 . S
C392 C391 1.372 . S
C392 C393 1.379 . S
C393 H371 0.948 . S
C393 C388 1.364 . S
C393 C392 1.379 . S
C394 C363 1.383 . S
C394 C381 1.479 . S
C394 C395 1.398 . S
C395 C360 1.382 . S
C395 H372 0.951 . S
C395 C394 1.398 . S
C396 C397 1.384 . S
C396 H409 0.947 . S
C396 C431 1.382 . S
C397 C396 1.384 . S
C397 C398 1.378 . S
C398 C397 1.378 . S
C398 C399 1.378 . S
C398 H410 0.952 . S
C399 C398 1.378 . S
C399 H411 0.950 . S
C399 C430 1.383 . S
H400 C419 0.947 . S
H401 C420 0.946 . S
H402 C422 0.953 . S
H403 C423 0.945 . S
H404 C425 0.952 . S
H405 C426 0.949 . S
H406 C428 0.950 . S
H407 C429 0.948 . S
H408 C431 0.951 . S
H409 C396 0.947 . S
H410 C398 0.952 . S
H411 C399 0.950 . S
N412 C415 1.382 . S
N412 C417 1.363 . S
N413 C415 1.371 . S
N413 C416 1.372 . S
N414 C416 1.361 . S
N414 C417 1.377 . S
C415 N412 1.382 . S
C415 N413 1.371 . S
C415 C418 1.480 . S
C416 N413 1.372 . S
C416 N414 1.361 . S
C416 C424 1.457 . S
C417 N412 1.363 . S
C417 N414 1.377 . S
C417 C430 1.479 . S
C418 C415 1.480 . S
C418 C419 1.383 . S
C418 C423 1.385 . S
C419 H400 0.947 . S
C419 C418 1.383 . S
C419 C420 1.388 . S
C420 H401 0.946 . S
C420 C419 1.388 . S
C420 C421 1.384 . S
C421 C420 1.384 . S
C421 C422 1.377 . S
C422 H402 0.953 . S
C422 C421 1.377 . S
C422 C423 1.369 . S
C423 H403 0.945 . S
C423 C418 1.385 . S
C423 C422 1.369 . S
C424 C416 1.457 . S
C424 C425 1.372 . S
C424 C429 1.364 . S
C425 H404 0.952 . S
C425 C424 1.372 . S
C425 C426 1.389 . S
C426 H405 0.949 . S
C426 C425 1.389 . S
C426 C427 1.387 . S
C427 C426 1.387 . S
C427 C428 1.372 . S
C428 H406 0.950 . S
C428 C427 1.372 . S
C428 C429 1.379 . S
C429 H407 0.948 . S
C429 C424 1.364 . S
C429 C428 1.379 . S
C430 C399 1.383 . S
C430 C417 1.479 . S
C430 C431 1.398 . S
C431 C396 1.382 . S
C431 H408 0.951 . S
C431 C430 1.398 . S
C432 C433 1.384 . S
C432 H445 0.947 . S
C432 C467 1.382 . S
C433 C432 1.384 . S
C433 C434 1.378 . S
C434 C433 1.378 . S
C434 C435 1.378 . S
C434 H446 0.952 . S
C435 C434 1.378 . S
C435 H447 0.950 . S
C435 C466 1.383 . S
H436 C455 0.947 . S
H437 C456 0.946 . S
H438 C458 0.953 . S
H439 C459 0.945 . S
H440 C461 0.952 . S
H441 C462 0.949 . S
H442 C464 0.950 . S
H443 C465 0.948 . S
H444 C467 0.951 . S
H445 C432 0.947 . S
H446 C434 0.952 . S
H447 C435 0.950 . S
N448 C451 1.382 . S
N448 C453 1.363 . S
N449 C451 1.371 . S
N449 C452 1.372 . S
N450 C452 1.361 . S
N450 C453 1.377 . S
C451 N448 1.382 . S
C451 N449 1.371 . S
C451 C454 1.480 . S
C452 N449 1.372 . S
C452 N450 1.361 . S
C452 C460 1.457 . S
C453 N448 1.363 . S
C453 N450 1.377 . S
C453 C466 1.479 . S
C454 C451 1.480 . S
C454 C455 1.383 . S
C454 C459 1.385 . S
C455 H436 0.947 . S
C455 C454 1.383 . S
C455 C456 1.388 . S
C456 H437 0.946 . S
C456 C455 1.388 . S
C456 C457 1.384 . S
C457 C456 1.384 . S
C457 C458 1.377 . S
C458 H438 0.953 . S
C458 C457 1.377 . S
C458 C459 1.369 . S
C459 H439 0.945 . S
C459 C454 1.385 . S
C459 C458 1.369 . S
C460 C452 1.457 . S
C460 C461 1.372 . S
C460 C465 1.364 . S
C461 H440 0.952 . S
C461 C460 1.372 . S
C461 C462 1.389 . S
C462 H441 0.949 . S
C462 C461 1.389 . S
C462 C463 1.387 . S
C463 C462 1.387 . S
C463 C464 1.372 . S
C464 H442 0.950 . S
C464 C463 1.372 . S
C464 C465 1.379 . S
C465 H443 0.948 . S
C465 C460 1.364 . S
C465 C464 1.379 . S
C466 C435 1.383 . S
C466 C453 1.479 . S
C466 C467 1.398 . S
C467 C432 1.382 . S
C467 H444 0.951 . S
C467 C466 1.398 . S
C468 C469 1.384 . S
C468 H481 0.947 . S
C468 C503 1.382 1_554 S
C469 C468 1.384 . S
C469 C470 1.378 1_554 S
C470 C469 1.378 1_556 S
C470 C471 1.378 . S
C470 H482 0.952 . S
C471 C470 1.378 . S
C471 H483 0.950 . S
C471 C502 1.383 . S
H472 C491 0.947 . S
H473 C492 0.946 . S
H474 C494 0.953 . S
H475 C495 0.945 . S
H476 C497 0.952 . S
H477 C498 0.949 . S
H478 C500 0.950 . S
H479 C501 0.948 . S
H480 C503 0.948 1_554 S
H481 C468 0.947 . S
H482 C470 0.952 . S
H483 C471 0.950 . S
N484 C487 1.382 . S
N484 C489 1.363 . S
N485 C487 1.371 . S
N485 C488 1.372 . S
N486 C488 1.361 . S
N486 C489 1.377 . S
C487 N484 1.382 . S
C487 N485 1.371 . S
C487 C490 1.480 . S
C488 N485 1.372 . S
C488 N486 1.361 . S
C488 C496 1.457 . S
C489 N484 1.363 . S
C489 N486 1.377 . S
C489 C502 1.479 . S
C490 C487 1.480 . S
C490 C491 1.383 . S
C490 C495 1.385 . S
C491 H472 0.947 . S
C491 C490 1.383 . S
C491 C492 1.388 . S
C492 H473 0.946 . S
C492 C491 1.388 . S
C492 C493 1.384 . S
C493 C492 1.384 . S
C493 C494 1.377 . S
C494 H474 0.953 . S
C494 C493 1.377 . S
C494 C495 1.369 . S
C495 H475 0.945 . S
C495 C490 1.385 . S
C495 C494 1.369 . S
C496 C488 1.457 . S
C496 C497 1.372 . S
C496 C501 1.364 . S
C497 H476 0.952 . S
C497 C496 1.372 . S
C497 C498 1.389 . S
C498 H477 0.949 . S
C498 C497 1.389 . S
C498 C499 1.387 . S
C499 C498 1.387 . S
C499 C500 1.372 . S
C500 H478 0.950 . S
C500 C499 1.372 . S
C500 C501 1.379 . S
C501 H479 0.948 . S
C501 C496 1.364 . S
C501 C500 1.379 . S
C502 C471 1.383 . S
C502 C489 1.479 . S
C502 C503 1.398 . S
C503 C468 1.382 1_556 S
C503 H480 0.948 1_556 S
C503 C502 1.398 . S
C504 C505 1.384 . S
C504 H517 0.947 . S
C504 C539 1.382 . S
C505 C504 1.384 . S
C505 C506 1.378 . S
C506 C505 1.378 . S
C506 C507 1.378 . S
C506 H518 0.952 . S
C507 C506 1.378 . S
C507 H519 0.950 . S
C507 C538 1.383 . S
H508 C527 0.947 . S
H509 C528 0.946 . S
H510 C530 0.953 . S
H511 C531 0.945 . S
H512 C533 0.952 . S
H513 C534 0.949 . S
H514 C536 0.950 . S
H515 C537 0.948 . S
H516 C539 0.951 . S
H517 C504 0.947 . S
H518 C506 0.952 . S
H519 C507 0.950 . S
N520 C523 1.382 . S
N520 C525 1.363 . S
N521 C523 1.371 . S
N521 C524 1.372 . S
N522 C524 1.361 . S
N522 C525 1.377 . S
C523 N520 1.382 . S
C523 N521 1.371 . S
C523 C526 1.480 . S
C524 N521 1.372 . S
C524 N522 1.361 . S
C524 C532 1.457 . S
C525 N520 1.363 . S
C525 N522 1.377 . S
C525 C538 1.479 . S
C526 C523 1.480 . S
C526 C527 1.383 . S
C526 C531 1.385 . S
C527 H508 0.947 . S
C527 C526 1.383 . S
C527 C528 1.388 . S
C528 H509 0.946 . S
C528 C527 1.388 . S
C528 C529 1.384 . S
C529 C528 1.384 . S
C529 C530 1.377 . S
C530 H510 0.953 . S
C530 C529 1.377 . S
C530 C531 1.369 . S
C531 H511 0.945 . S
C531 C526 1.385 . S
C531 C530 1.369 . S
C532 C524 1.457 . S
C532 C533 1.372 . S
C532 C537 1.364 . S
C533 H512 0.952 . S
C533 C532 1.372 . S
C533 C534 1.389 . S
C534 H513 0.949 . S
C534 C533 1.389 . S
C534 C535 1.387 . S
C535 C534 1.387 . S
C535 C536 1.372 . S
C536 H514 0.950 . S
C536 C535 1.372 . S
C536 C537 1.379 . S
C537 H515 0.948 . S
C537 C532 1.364 . S
C537 C536 1.379 . S
C538 C507 1.383 . S
C538 C525 1.479 . S
C538 C539 1.398 . S
C539 C504 1.382 . S
C539 H516 0.951 . S
C539 C538 1.398 . S
C540 C541 1.384 1_556 S
C540 H553 0.947 . S
C540 C575 1.382 . S
C541 C540 1.384 1_554 S
C541 C542 1.378 . S
C542 C541 1.378 . S
C542 C543 1.378 1_554 S
C542 H554 0.952 . S
C543 C542 1.378 1_556 S
C543 H555 0.950 . S
C543 C574 1.383 . S
H544 C563 0.947 . S
H545 C564 0.946 . S
H546 C566 0.953 . S
H547 C567 0.945 . S
H548 C569 0.952 . S
H549 C570 0.949 . S
H550 C572 0.950 . S
H551 C573 0.948 . S
H552 C575 0.951 . S
H553 C540 0.947 . S
H554 C542 0.952 . S
H555 C543 0.950 . S
N556 C559 1.382 . S
N556 C561 1.363 . S
N557 C559 1.371 . S
N557 C560 1.372 . S
N558 C560 1.361 . S
N558 C561 1.377 . S
C559 N556 1.382 . S
C559 N557 1.371 . S
C559 C562 1.480 . S
C560 N557 1.372 . S
C560 N558 1.361 . S
C560 C568 1.457 . S
C561 N556 1.363 . S
C561 N558 1.377 . S
C561 C574 1.479 . S
C562 C559 1.480 . S
C562 C563 1.383 . S
C562 C567 1.385 . S
C563 H544 0.947 . S
C563 C562 1.383 . S
C563 C564 1.388 . S
C564 H545 0.946 . S
C564 C563 1.388 . S
C564 C565 1.405 . S
C565 C564 1.405 . S
C565 C566 1.371 1_545 S
C566 H546 0.953 . S
C566 C565 1.371 1_565 S
C566 C567 1.369 1_565 S
C567 H547 0.945 . S
C567 C562 1.385 . S
C567 C566 1.369 1_545 S
C568 C560 1.457 . S
C568 C569 1.372 . S
C568 C573 1.364 . S
C569 H548 0.952 . S
C569 C568 1.372 . S
C569 C570 1.389 . S
C570 H549 0.949 . S
C570 C569 1.389 . S
C570 C571 1.387 . S
C571 C570 1.387 . S
C571 C572 1.372 . S
C572 H550 0.950 . S
C572 C571 1.372 . S
C572 C573 1.379 . S
C573 H551 0.948 . S
C573 C568 1.364 . S
C573 C572 1.379 . S
C574 C543 1.383 . S
C574 C561 1.479 . S
C574 C575 1.398 . S
C575 C540 1.382 . S
C575 H552 0.951 . S
C575 C574 1.398 . S
Zn576 O579 2.037 . S
Zn576 O581 2.045 1_554 S
Zn576 O586 2.060 1_554 S
Zn577 O578 1.962 . S
Zn577 O580 1.986 . S
Zn577 O582 1.996 . S
Zn577 O585 1.943 1_554 S
O578 Zn577 1.962 . S
O578 C583 1.254 . S
O579 Zn576 2.037 . S
O579 C583 1.269 . S
O580 Zn577 1.986 . S
O580 C587 1.262 . S
O581 Zn576 2.045 1_556 S
O581 C589 1.260 . S
O582 Zn577 1.996 . S
O582 C589 1.257 1_554 S
C583 O578 1.254 . S
C583 O579 1.269 . S
C584 O585 1.249 . S
C584 O586 1.270 . S
O585 Zn577 1.943 1_556 S
O585 C584 1.249 . S
O586 Zn576 2.060 1_556 S
O586 C584 1.270 . S
C587 O580 1.262 . S
C587 O588 1.232 . S
O588 C587 1.232 . S
C589 O581 1.260 . S
C589 O582 1.257 1_556 S
Zn590 O593 2.031 . S
Zn590 O595 2.049 . S
Zn590 O600 2.067 . S
Zn591 O592 1.962 . S
Zn591 O594 1.986 . S
Zn591 O596 1.996 . S
Zn591 O599 1.943 . S
O592 Zn591 1.962 . S
O592 C597 1.254 . S
O593 Zn590 2.031 . S
O593 C597 1.269 . S
O594 Zn591 1.986 . S
O594 C601 1.262 . S
O595 Zn590 2.049 . S
O595 C603 1.260 . S
O596 Zn591 1.996 . S
O596 C603 1.257 . S
C597 O592 1.254 . S
C597 O593 1.269 . S
C598 O599 1.249 . S
C598 O600 1.270 . S
O599 Zn591 1.943 . S
O599 C598 1.249 . S
O600 Zn590 2.067 . S
O600 C598 1.270 . S
C601 O594 1.262 . S
C601 O602 1.232 . S
O602 C601 1.232 . S
C603 O595 1.260 . S
C603 O596 1.257 . S
Zn604 O607 2.031 . S
Zn604 O609 2.049 . S
Zn604 O614 2.067 . S
Zn605 O606 1.962 . S
Zn605 O608 1.986 . S
Zn605 O610 1.996 1_554 S
Zn605 O613 1.943 . S
O606 Zn605 1.962 . S
O606 C611 1.254 . S
O607 Zn604 2.031 . S
O607 C611 1.269 1_556 S
O608 Zn605 1.986 . S
O608 C615 1.262 . S
O609 Zn604 2.049 . S
O609 C617 1.260 . S
O610 Zn605 1.996 1_556 S
O610 C617 1.257 . S
C611 O606 1.254 . S
C611 O607 1.269 1_554 S
C612 O613 1.249 1_556 S
C612 O614 1.270 . S
O613 Zn605 1.943 . S
O613 C612 1.249 1_554 S
O614 Zn604 2.067 . S
O614 C612 1.270 . S
C615 O608 1.262 . S
C615 O616 1.232 . S
O616 C615 1.232 . S
C617 O609 1.260 . S
C617 O610 1.257 . S
Zn618 O621 2.047 . S
Zn618 O623 2.038 1_545 S
Zn618 O628 2.046 1_545 S
Zn619 O620 1.962 . S
Zn619 O622 1.986 . S
Zn619 O624 1.996 . S
Zn619 O627 1.943 1_545 S
O620 Zn619 1.962 . S
O620 C625 1.254 . S
O621 Zn618 2.047 . S
O621 C625 1.269 . S
O622 Zn619 1.986 . S
O622 C629 1.262 . S
O623 Zn618 2.038 1_565 S
O623 C631 1.260 . S
O624 Zn619 1.996 . S
O624 C631 1.257 1_545 S
C625 O620 1.254 . S
C625 O621 1.269 . S
C626 O627 1.249 . S
C626 O628 1.270 . S
O627 Zn619 1.943 1_565 S
O627 C626 1.249 . S
O628 Zn618 2.046 1_565 S
O628 C626 1.270 . S
C629 O622 1.262 . S
C629 O630 1.232 . S
O630 C629 1.232 . S
C631 O623 1.260 . S
C631 O624 1.257 1_565 S
Zn632 O635 2.031 . S
Zn632 O637 2.049 . S
Zn632 O642 2.067 . S
Zn633 O634 1.962 . S
Zn633 O636 1.986 . S
Zn633 O638 1.996 . S
Zn633 O641 1.943 . S
O634 Zn633 1.962 . S
O634 C639 1.254 . S
O635 Zn632 2.031 . S
O635 C639 1.269 . S
O636 Zn633 1.986 . S
O636 C643 1.262 . S
O637 Zn632 2.049 . S
O637 C645 1.260 . S
O638 Zn633 1.996 . S
O638 C645 1.257 . S
C639 O634 1.254 . S
C639 O635 1.269 . S
C640 O641 1.249 . S
C640 O642 1.270 . S
O641 Zn633 1.943 . S
O641 C640 1.249 . S
O642 Zn632 2.067 . S
O642 C640 1.270 . S
C643 O636 1.262 . S
C643 O644 1.232 . S
O644 C643 1.232 . S
C645 O637 1.260 . S
C645 O638 1.257 . S
Zn646 O649 2.031 . S
Zn646 O651 2.049 . S
Zn646 O656 2.067 . S
Zn647 O648 1.962 . S
Zn647 O650 1.986 . S
Zn647 O652 1.996 . S
Zn647 O655 1.943 . S
O648 Zn647 1.962 . S
O648 C653 1.254 . S
O649 Zn646 2.031 . S
O649 C653 1.269 . S
O650 Zn647 1.986 . S
O650 C657 1.262 . S
O651 Zn646 2.049 . S
O651 C659 1.260 . S
O652 Zn647 1.996 . S
O652 C659 1.257 . S
C653 O648 1.254 . S
C653 O649 1.269 . S
C654 O655 1.249 . S
C654 O656 1.270 . S
O655 Zn647 1.943 . S
O655 C654 1.249 . S
O656 Zn646 2.067 . S
O656 C654 1.270 . S
C657 O650 1.262 . S
C657 O658 1.232 . S
O658 C657 1.232 . S
C659 O651 1.260 . S
C659 O652 1.257 . S
Zn660 O663 2.031 . S
Zn660 O665 2.049 . S
Zn660 O670 2.067 . S
Zn661 O662 1.962 . S
Zn661 O664 1.986 . S
Zn661 O666 1.996 . S
Zn661 O669 1.943 . S
O662 Zn661 1.962 . S
O662 C667 1.254 . S
O663 Zn660 2.031 . S
O663 C667 1.269 . S
O664 Zn661 1.986 . S
O664 C671 1.262 . S
O665 Zn660 2.049 . S
O665 C673 1.260 . S
O666 Zn661 1.996 . S
O666 C673 1.257 . S
C667 O662 1.254 . S
C667 O663 1.269 . S
C668 O669 1.249 . S
C668 O670 1.270 . S
O669 Zn661 1.943 . S
O669 C668 1.249 . S
O670 Zn660 2.067 . S
O670 C668 1.270 . S
C671 O664 1.262 . S
C671 O672 1.232 . S
O672 C671 1.232 . S
C673 O665 1.260 . S
C673 O666 1.257 . S
Zn674 O677 2.031 . S
Zn674 O679 2.049 . S
Zn674 O684 2.067 . S
Zn675 O676 1.962 . S
Zn675 O678 1.986 . S
Zn675 O680 1.996 1_545 S
Zn675 O683 1.943 . S
O676 Zn675 1.962 . S
O676 C681 1.254 . S
O677 Zn674 2.031 . S
O677 C681 1.269 1_565 S
O678 Zn675 1.986 . S
O678 C685 1.262 . S
O679 Zn674 2.049 . S
O679 C687 1.260 . S
O680 Zn675 1.996 1_565 S
O680 C687 1.257 . S
C681 O676 1.254 . S
C681 O677 1.269 1_545 S
C682 O683 1.249 1_565 S
C682 O684 1.270 . S
O683 Zn675 1.943 . S
O683 C682 1.249 1_545 S
O684 Zn674 2.067 . S
O684 C682 1.270 . S
C685 O678 1.262 . S
C685 O686 1.232 . S
O686 C685 1.232 . S
C687 O679 1.260 . S
C687 O680 1.257 . S
Zn688 O691 2.035 . S
Zn688 O693 2.047 1_455 S
Zn688 O698 2.062 1_455 S
Zn689 O690 1.962 . S
Zn689 O692 1.986 . S
Zn689 O694 1.996 . S
Zn689 O697 1.943 1_455 S
O690 Zn689 1.962 . S
O690 C695 1.254 . S
O691 Zn688 2.035 . S
O691 C695 1.269 . S
O692 Zn689 1.986 . S
O692 C699 1.262 . S
O693 Zn688 2.047 1_655 S
O693 C701 1.260 . S
O694 Zn689 1.996 . S
O694 C701 1.257 1_455 S
C695 O690 1.254 . S
C695 O691 1.269 . S
C696 O697 1.249 . S
C696 O698 1.270 . S
O697 Zn689 1.943 1_655 S
O697 C696 1.249 . S
O698 Zn688 2.062 1_655 S
O698 C696 1.270 . S
C699 O692 1.262 . S
C699 O700 1.232 . S
O700 C699 1.232 . S
C701 O693 1.260 . S
C701 O694 1.257 1_655 S
Zn702 O705 2.031 . S
Zn702 O707 2.049 . S
Zn702 O712 2.067 . S
Zn703 O704 1.962 . S
Zn703 O706 1.986 . S
Zn703 O708 1.996 . S
Zn703 O711 1.943 . S
O704 Zn703 1.962 . S
O704 C709 1.254 . S
O705 Zn702 2.031 . S
O705 C709 1.269 . S
O706 Zn703 1.986 . S
O706 C713 1.262 . S
O707 Zn702 2.049 . S
O707 C715 1.260 . S
O708 Zn703 1.996 . S
O708 C715 1.257 . S
C709 O704 1.254 . S
C709 O705 1.269 . S
C710 O711 1.249 . S
C710 O712 1.270 . S
O711 Zn703 1.943 . S
O711 C710 1.249 . S
O712 Zn702 2.067 . S
O712 C710 1.270 . S
C713 O706 1.262 . S
C713 O714 1.232 . S
O714 C713 1.232 . S
C715 O707 1.260 . S
C715 O708 1.257 . S
Zn716 O719 2.031 . S
Zn716 O721 2.049 . S
Zn716 O726 2.067 . S
Zn717 O718 1.962 . S
Zn717 O720 1.986 . S
Zn717 O722 1.996 1_455 S
Zn717 O725 1.943 . S
O718 Zn717 1.962 . S
O718 C723 1.254 . S
O719 Zn716 2.031 . S
O719 C723 1.269 1_655 S
O720 Zn717 1.986 . S
O720 C727 1.262 . S
O721 Zn716 2.049 . S
O721 C729 1.260 . S
O722 Zn717 1.996 1_655 S
O722 C729 1.257 . S
C723 O718 1.254 . S
C723 O719 1.269 1_455 S
C724 O725 1.249 1_655 S
C724 O726 1.270 . S
O725 Zn717 1.943 . S
O725 C724 1.249 1_455 S
O726 Zn716 2.067 . S
O726 C724 1.270 . S
C727 O720 1.262 . S
C727 O728 1.232 . S
O728 C727 1.232 . S
C729 O721 1.260 . S
C729 O722 1.257 . S
Zn730 O733 2.031 . S
Zn730 O735 2.049 . S
Zn730 O740 2.067 . S
Zn731 O732 1.962 . S
Zn731 O734 1.986 . S
Zn731 O736 1.996 . S
Zn731 O739 1.943 . S
O732 Zn731 1.962 . S
O732 C737 1.254 . S
O733 Zn730 2.031 . S
O733 C737 1.269 . S
O734 Zn731 1.986 . S
O734 C741 1.262 . S
O735 Zn730 2.049 . S
O735 C743 1.260 . S
O736 Zn731 1.996 . S
O736 C743 1.257 . S
C737 O732 1.254 . S
C737 O733 1.269 . S
C738 O739 1.249 . S
C738 O740 1.270 . S
O739 Zn731 1.943 . S
O739 C738 1.249 . S
O740 Zn730 2.067 . S
O740 C738 1.270 . S
C741 O734 1.262 . S
C741 O742 1.232 . S
O742 C741 1.232 . S
C743 O735 1.260 . S
C743 O736 1.257 . S
C744 C745 1.391 . S
C744 C746 1.394 . S
C744 H760 0.931 . S
C745 C744 1.391 . S
C745 C749 1.376 . S
C746 C744 1.394 . S
C746 C747 1.369 . S
C746 C750 1.531 . S
C747 C746 1.369 . S
C747 C748 1.410 . S
C747 C755 1.503 . S
C748 C747 1.410 . S
C748 C749 1.392 . S
C748 C751 1.511 . S
C749 C745 1.376 . S
C749 C748 1.392 . S
C749 H761 0.929 . S
C750 C746 1.531 . S
C750 H762 0.960 . S
C750 H763 0.962 . S
C750 H764 0.960 . S
C751 C748 1.511 . S
C751 H765 0.961 . S
C751 H766 0.961 . S
C751 H767 0.961 . S
C752 C753 1.370 . S
C752 C754 1.363 . S
C752 H768 0.931 . S
C753 C752 1.370 . S
C753 C757 1.408 . S
C754 C752 1.363 . S
C754 C755 1.370 . S
C754 C758 1.524 . S
C755 C747 1.503 . S
C755 C754 1.370 . S
C755 C756 1.403 . S
C756 C755 1.403 . S
C756 C757 1.404 . S
C756 C759 1.539 . S
C757 C753 1.408 . S
C757 C756 1.404 . S
C757 H769 0.930 . S
C758 C754 1.524 . S
C758 H770 0.956 . S
C758 H771 0.961 . S
C758 H772 0.961 . S
C759 C756 1.539 . S
C759 H773 0.958 . S
C759 H774 0.961 . S
C759 H775 0.960 . S
H760 C744 0.931 . S
H761 C749 0.929 . S
H762 C750 0.960 . S
H763 C750 0.962 . S
H764 C750 0.960 . S
H765 C751 0.961 . S
H766 C751 0.961 . S
H767 C751 0.961 . S
H768 C752 0.931 . S
H769 C757 0.930 . S
H770 C758 0.956 . S
H771 C758 0.961 . S
H772 C758 0.961 . S
H773 C759 0.958 . S
H774 C759 0.961 . S
H775 C759 0.960 . S
C776 C777 1.391 . S
C776 C778 1.394 . S
C776 H792 0.931 . S
C777 C776 1.391 . S
C777 C781 1.376 . S
C778 C776 1.394 . S
C778 C779 1.369 . S
C778 C782 1.531 . S
C779 C778 1.369 . S
C779 C780 1.410 . S
C779 C787 1.503 . S
C780 C779 1.410 . S
C780 C781 1.392 . S
C780 C783 1.511 . S
C781 C777 1.376 . S
C781 C780 1.392 . S
C781 H793 0.929 . S
C782 C778 1.531 . S
C782 H794 0.960 . S
C782 H795 0.962 . S
C782 H796 0.960 . S
C783 C780 1.511 . S
C783 H797 0.961 . S
C783 H798 0.961 . S
C783 H799 0.961 . S
C784 C785 1.370 . S
C784 C786 1.363 . S
C784 H800 0.931 . S
C785 C784 1.370 . S
C785 C789 1.408 . S
C786 C784 1.363 . S
C786 C787 1.370 . S
C786 C790 1.524 . S
C787 C779 1.503 . S
C787 C786 1.370 . S
C787 C788 1.403 . S
C788 C787 1.403 . S
C788 C789 1.404 . S
C788 C791 1.539 . S
C789 C785 1.408 . S
C789 C788 1.404 . S
C789 H801 0.930 . S
C790 C786 1.524 . S
C790 H802 0.956 . S
C790 H803 0.961 . S
C790 H804 0.961 . S
C791 C788 1.539 . S
C791 H805 0.958 . S
C791 H806 0.961 . S
C791 H807 0.960 . S
H792 C776 0.931 . S
H793 C781 0.929 . S
H794 C782 0.960 . S
H795 C782 0.962 . S
H796 C782 0.960 . S
H797 C783 0.961 . S
H798 C783 0.961 . S
H799 C783 0.961 . S
H800 C784 0.931 . S
H801 C789 0.930 . S
H802 C790 0.956 . S
H803 C790 0.961 . S
H804 C790 0.961 . S
H805 C791 0.958 . S
H806 C791 0.961 . S
H807 C791 0.960 . S
C808 C809 1.391 . S
C808 C810 1.394 . S
C808 H824 0.931 . S
C809 C808 1.391 . S
C809 C813 1.376 . S
C810 C808 1.394 . S
C810 C811 1.369 . S
C810 C814 1.531 . S
C811 C810 1.369 . S
C811 C812 1.410 . S
C811 C819 1.503 . S
C812 C811 1.410 . S
C812 C813 1.392 . S
C812 C815 1.511 . S
C813 C809 1.376 . S
C813 C812 1.392 . S
C813 H825 0.929 . S
C814 C810 1.531 . S
C814 H826 0.960 . S
C814 H827 0.962 . S
C814 H828 0.960 . S
C815 C812 1.511 . S
C815 H829 0.961 . S
C815 H830 0.961 . S
C815 H831 0.961 . S
C816 C817 1.370 . S
C816 C818 1.363 . S
C816 H832 0.931 . S
C817 C816 1.370 . S
C817 C821 1.408 . S
C818 C816 1.363 . S
C818 C819 1.370 . S
C818 C822 1.524 . S
C819 C811 1.503 . S
C819 C818 1.370 . S
C819 C820 1.403 . S
C820 C819 1.403 . S
C820 C821 1.404 . S
C820 C823 1.539 . S
C821 C817 1.408 . S
C821 C820 1.404 . S
C821 H833 0.930 . S
C822 C818 1.524 . S
C822 H834 0.956 . S
C822 H835 0.961 . S
C822 H836 0.961 . S
C823 C820 1.539 . S
C823 H837 0.958 . S
C823 H838 0.961 . S
C823 H839 0.960 . S
H824 C808 0.931 . S
H825 C813 0.929 . S
H826 C814 0.960 . S
H827 C814 0.962 . S
H828 C814 0.960 . S
H829 C815 0.961 . S
H830 C815 0.961 . S
H831 C815 0.961 . S
H832 C816 0.931 . S
H833 C821 0.930 . S
H834 C822 0.956 . S
H835 C822 0.961 . S
H836 C822 0.961 . S
H837 C823 0.958 . S
H838 C823 0.961 . S
H839 C823 0.960 . S
C840 C841 1.391 . S
C840 C842 1.394 . S
C840 H856 0.931 1_655 S
C841 C840 1.391 . S
C841 C845 1.376 . S
C842 C840 1.394 . S
C842 C843 1.369 . S
C842 C846 1.531 . S
C843 C842 1.369 . S
C843 C844 1.410 . S
C843 C851 1.503 . S
C844 C843 1.410 . S
C844 C845 1.392 . S
C844 C847 1.511 . S
C845 C841 1.376 . S
C845 C844 1.392 . S
C845 H857 0.929 . S
C846 C842 1.531 . S
C846 H858 0.960 . S
C846 H859 0.962 . S
C846 H860 0.960 . S
C847 C844 1.511 . S
C847 H861 0.961 . S
C847 H862 0.961 . S
C847 H863 0.961 . S
C848 C849 1.355 1_545 S
C848 C850 1.355 1_545 S
C848 H864 0.956 . S
C849 C848 1.355 1_565 S
C849 C853 1.408 . S
C850 C848 1.355 1_565 S
C850 C851 1.370 . S
C850 C854 1.524 1_565 S
C851 C843 1.503 . S
C851 C850 1.370 . S
C851 C852 1.403 . S
C852 C851 1.403 . S
C852 C853 1.404 . S
C852 C855 1.539 . S
C853 C849 1.408 . S
C853 C852 1.404 . S
C853 H865 0.930 . S
C854 C850 1.524 1_545 S
C854 H866 0.956 . S
C854 H867 0.961 . S
C854 H868 0.961 . S
C855 C852 1.539 . S
C855 H869 0.958 . S
C855 H870 0.961 . S
C855 H871 0.960 . S
H856 C840 0.931 1_455 S
H857 C845 0.929 . S
H858 C846 0.960 . S
H859 C846 0.962 . S
H860 C846 0.960 . S
H861 C847 0.961 . S
H862 C847 0.961 . S
H863 C847 0.961 . S
H864 C848 0.956 . S
H865 C853 0.930 . S
H866 C854 0.956 . S
H867 C854 0.961 . S
H868 C854 0.961 . S
H869 C855 0.958 . S
H870 C855 0.961 . S
H871 C855 0.960 . S
C872 C873 1.391 . S
C872 C874 1.394 . S
C872 H888 0.931 . S
C873 C872 1.391 . S
C873 C877 1.376 . S
C874 C872 1.394 . S
C874 C875 1.369 . S
C874 C878 1.531 . S
C875 C874 1.369 . S
C875 C876 1.410 . S
C875 C883 1.503 . S
C876 C875 1.410 . S
C876 C877 1.392 . S
C876 C879 1.511 . S
C877 C873 1.376 . S
C877 C876 1.392 . S
C877 H889 0.929 . S
C878 C874 1.531 . S
C878 H890 0.960 . S
C878 H891 0.962 . S
C878 H892 0.960 . S
C879 C876 1.511 . S
C879 H893 0.961 . S
C879 H894 0.961 . S
C879 H895 0.961 . S
C880 C881 1.370 . S
C880 C882 1.363 . S
C880 H896 0.931 . S
C881 C880 1.370 . S
C881 C885 1.408 . S
C882 C880 1.363 . S
C882 C883 1.370 . S
C882 C886 1.524 . S
C883 C875 1.503 . S
C883 C882 1.370 . S
C883 C884 1.403 . S
C884 C883 1.403 . S
C884 C885 1.404 . S
C884 C887 1.539 . S
C885 C881 1.408 . S
C885 C884 1.404 . S
C885 H897 0.930 . S
C886 C882 1.524 . S
C886 H898 0.956 . S
C886 H899 0.961 . S
C886 H900 0.961 . S
C887 C884 1.539 . S
C887 H901 0.958 . S
C887 H902 0.961 . S
C887 H903 0.960 . S
H888 C872 0.931 . S
H889 C877 0.929 . S
H890 C878 0.960 . S
H891 C878 0.962 . S
H892 C878 0.960 . S
H893 C879 0.961 . S
H894 C879 0.961 . S
H895 C879 0.961 . S
H896 C880 0.931 . S
H897 C885 0.930 . S
H898 C886 0.956 . S
H899 C886 0.961 . S
H900 C886 0.961 . S
H901 C887 0.958 . S
H902 C887 0.961 . S
H903 C887 0.960 . S
C904 C905 1.391 . S
C904 C906 1.394 . S
C904 H920 0.931 . S
C905 C904 1.391 . S
C905 C909 1.376 . S
C906 C904 1.394 . S
C906 C907 1.369 . S
C906 C910 1.531 . S
C907 C906 1.369 . S
C907 C908 1.410 . S
C907 C915 1.503 . S
C908 C907 1.410 . S
C908 C909 1.392 . S
C908 C911 1.511 . S
C909 C905 1.376 . S
C909 C908 1.392 . S
C909 H921 0.929 . S
C910 C906 1.531 . S
C910 H922 0.960 . S
C910 H923 0.962 . S
C910 H924 0.960 . S
C911 C908 1.511 . S
C911 H925 0.961 . S
C911 H926 0.961 . S
C911 H927 0.961 . S
C912 C913 1.370 . S
C912 C914 1.363 . S
C912 H928 0.931 . S
C913 C912 1.370 . S
C913 C917 1.408 . S
C914 C912 1.363 . S
C914 C915 1.370 . S
C914 C918 1.524 . S
C915 C907 1.503 . S
C915 C914 1.370 . S
C915 C916 1.403 . S
C916 C915 1.403 . S
C916 C917 1.404 . S
C916 C919 1.539 . S
C917 C913 1.408 . S
C917 C916 1.404 . S
C917 H929 0.930 . S
C918 C914 1.524 . S
C918 H930 0.956 . S
C918 H931 0.961 . S
C918 H932 0.961 . S
C919 C916 1.539 . S
C919 H933 0.958 . S
C919 H934 0.961 . S
C919 H935 0.960 . S
H920 C904 0.931 . S
H921 C909 0.929 . S
H922 C910 0.960 . S
H923 C910 0.962 . S
H924 C910 0.960 . S
H925 C911 0.961 . S
H926 C911 0.961 . S
H927 C911 0.961 . S
H928 C912 0.931 . S
H929 C917 0.930 . S
H930 C918 0.956 . S
H931 C918 0.961 . S
H932 C918 0.961 . S
H933 C919 0.958 . S
H934 C919 0.961 . S
H935 C919 0.960 . S
C936 C937 1.391 . S
C936 C938 1.394 . S
C936 H952 0.931 . S
C937 C936 1.391 . S
C937 C941 1.376 . S
C938 C936 1.394 . S
C938 C939 1.369 . S
C938 C942 1.531 . S
C939 C938 1.369 . S
C939 C940 1.410 . S
C939 C947 1.503 . S
C940 C939 1.410 . S
C940 C941 1.392 . S
C940 C943 1.511 . S
C941 C937 1.376 . S
C941 C940 1.392 . S
C941 H953 0.929 . S
C942 C938 1.531 . S
C942 H954 0.960 . S
C942 H955 0.962 . S
C942 H956 0.960 . S
C943 C940 1.511 . S
C943 H957 0.961 . S
C943 H958 0.961 . S
C943 H959 0.961 . S
C944 C945 1.370 . S
C944 C946 1.363 . S
C944 H960 0.931 . S
C945 C944 1.370 . S
C945 C949 1.408 . S
C946 C944 1.363 . S
C946 C947 1.370 . S
C946 C950 1.524 . S
C947 C939 1.503 . S
C947 C946 1.370 . S
C947 C948 1.403 . S
C948 C947 1.403 . S
C948 C949 1.404 . S
C948 C951 1.539 . S
C949 C945 1.408 . S
C949 C948 1.404 . S
C949 H961 0.930 . S
C950 C946 1.524 . S
C950 H962 0.956 . S
C950 H963 0.961 . S
C950 H964 0.961 . S
C951 C948 1.539 . S
C951 H965 0.958 . S
C951 H966 0.961 . S
C951 H967 0.960 . S
H952 C936 0.931 . S
H953 C941 0.929 . S
H954 C942 0.960 . S
H955 C942 0.962 . S
H956 C942 0.960 . S
H957 C943 0.961 . S
H958 C943 0.961 . S
H959 C943 0.961 . S
H960 C944 0.931 . S
H961 C949 0.930 . S
H962 C950 0.956 . S
H963 C950 0.961 . S
H964 C950 0.961 . S
H965 C951 0.958 . S
H966 C951 0.961 . S
H967 C951 0.960 . S
C968 C969 1.391 . S
C968 C970 1.394 . S
C968 H984 0.931 . S
C969 C968 1.391 . S
C969 C973 1.376 . S
C970 C968 1.394 . S
C970 C971 1.369 . S
C970 C974 1.531 . S
C971 C970 1.369 . S
C971 C972 1.410 . S
C971 C979 1.503 . S
C972 C971 1.410 . S
C972 C973 1.392 . S
C972 C975 1.511 . S
C973 C969 1.376 . S
C973 C972 1.392 . S
C973 H985 0.929 . S
C974 C970 1.531 . S
C974 H986 0.960 . S
C974 H987 0.962 . S
C974 H988 0.960 . S
C975 C972 1.511 . S
C975 H989 0.961 . S
C975 H990 0.961 . S
C975 H991 0.961 . S
C976 C977 1.370 1_545 S
C976 C978 1.363 . S
C976 H992 0.931 . S
C977 C976 1.370 1_565 S
C977 C981 1.408 . S
C978 C976 1.363 . S
C978 C979 1.370 1_545 S
C978 C982 1.524 . S
C979 C971 1.503 . S
C979 C978 1.370 1_565 S
C979 C980 1.403 . S
C980 C979 1.403 . S
C980 C981 1.404 . S
C980 C983 1.539 . S
C981 C977 1.408 . S
C981 C980 1.404 . S
C981 H993 0.930 . S
C982 C978 1.524 . S
C982 H994 0.956 . S
C982 H995 0.961 . S
C982 H996 0.961 . S
C983 C980 1.539 . S
C983 H997 0.958 . S
C983 H998 0.961 . S
C983 H999 0.960 . S
H984 C968 0.931 . S
H985 C973 0.929 . S
H986 C974 0.960 . S
H987 C974 0.962 . S
H988 C974 0.960 . S
H989 C975 0.961 . S
H990 C975 0.961 . S
H991 C975 0.961 . S
H992 C976 0.931 . S
H993 C981 0.930 . S
H994 C982 0.956 . S
H995 C982 0.961 . S
H996 C982 0.961 . S
H997 C983 0.958 . S
H998 C983 0.961 . S
H999 C983 0.960 . S
C1000 C1001 1.391 . S
C1000 C1002 1.394 . S
C1000 H1016 0.931 . S
C1001 C1000 1.391 . S
C1001 C1005 1.376 . S
C1002 C1000 1.394 . S
C1002 C1003 1.369 . S
C1002 C1006 1.531 . S
C1003 C1002 1.369 . S
C1003 C1004 1.410 . S
C1003 C1011 1.503 . S
C1004 C1003 1.410 . S
C1004 C1005 1.392 . S
C1004 C1007 1.511 . S
C1005 C1001 1.376 . S
C1005 C1004 1.392 . S
C1005 H1017 0.929 . S
C1006 C1002 1.531 . S
C1006 H1018 0.960 . S
C1006 H1019 0.962 . S
C1006 H1020 0.960 . S
C1007 C1004 1.511 . S
C1007 H1021 0.961 . S
C1007 H1022 0.961 . S
C1007 H1023 0.961 . S
C1008 C1009 1.370 . S
C1008 C1010 1.363 . S
C1008 H1024 0.931 . S
C1009 C1008 1.370 . S
C1009 C1013 1.408 . S
C1010 C1008 1.363 . S
C1010 C1011 1.370 . S
C1010 C1014 1.524 . S
C1011 C1003 1.503 . S
C1011 C1010 1.370 . S
C1011 C1012 1.403 . S
C1012 C1011 1.403 . S
C1012 C1013 1.404 . S
C1012 C1015 1.539 . S
C1013 C1009 1.408 . S
C1013 C1012 1.404 . S
C1013 H1025 0.930 . S
C1014 C1010 1.524 . S
C1014 H1026 0.956 . S
C1014 H1027 0.961 . S
C1014 H1028 0.961 . S
C1015 C1012 1.539 . S
C1015 H1029 0.958 . S
C1015 H1030 0.961 . S
C1015 H1031 0.960 . S
H1016 C1000 0.931 . S
H1017 C1005 0.929 . S
H1018 C1006 0.960 . S
H1019 C1006 0.962 . S
H1020 C1006 0.960 . S
H1021 C1007 0.961 . S
H1022 C1007 0.961 . S
H1023 C1007 0.961 . S
H1024 C1008 0.931 . S
H1025 C1013 0.930 . S
H1026 C1014 0.956 . S
H1027 C1014 0.961 . S
H1028 C1014 0.961 . S
H1029 C1015 0.958 . S
H1030 C1015 0.961 . S
H1031 C1015 0.960 . S
C1032 C1033 1.391 . S
C1032 C1034 1.394 . S
C1032 H1048 0.931 . S
C1033 C1032 1.391 . S
C1033 C1037 1.376 . S
C1034 C1032 1.394 . S
C1034 C1035 1.369 . S
C1034 C1038 1.531 . S
C1035 C1034 1.369 . S
C1035 C1036 1.410 . S
C1035 C1043 1.503 . S
C1036 C1035 1.410 . S
C1036 C1037 1.392 . S
C1036 C1039 1.511 . S
C1037 C1033 1.376 . S
C1037 C1036 1.392 . S
C1037 H1049 0.929 . S
C1038 C1034 1.531 . S
C1038 H1050 0.960 . S
C1038 H1051 0.962 . S
C1038 H1052 0.960 . S
C1039 C1036 1.511 . S
C1039 H1053 0.961 . S
C1039 H1054 0.961 . S
C1039 H1055 0.961 . S
C1040 C1041 1.370 . S
C1040 C1042 1.363 . S
C1040 H1056 0.931 . S
C1041 C1040 1.370 . S
C1041 C1045 1.408 . S
C1042 C1040 1.363 . S
C1042 C1043 1.370 . S
C1042 C1046 1.524 . S
C1043 C1035 1.503 . S
C1043 C1042 1.370 . S
C1043 C1044 1.403 . S
C1044 C1043 1.403 . S
C1044 C1045 1.404 . S
C1044 C1047 1.539 . S
C1045 C1041 1.408 . S
C1045 C1044 1.404 . S
C1045 H1057 0.930 . S
C1046 C1042 1.524 . S
C1046 H1058 0.956 . S
C1046 H1059 0.961 . S
C1046 H1060 0.961 . S
C1047 C1044 1.539 . S
C1047 H1061 0.958 . S
C1047 H1062 0.961 . S
C1047 H1063 0.960 . S
H1048 C1032 0.931 . S
H1049 C1037 0.929 . S
H1050 C1038 0.960 . S
H1051 C1038 0.962 . S
H1052 C1038 0.960 . S
H1053 C1039 0.961 . S
H1054 C1039 0.961 . S
H1055 C1039 0.961 . S
H1056 C1040 0.931 . S
H1057 C1045 0.930 . S
H1058 C1046 0.956 . S
H1059 C1046 0.961 . S
H1060 C1046 0.961 . S
H1061 C1047 0.958 . S
H1062 C1047 0.961 . S
H1063 C1047 0.960 . S
C1064 C1065 1.391 . S
C1064 C1066 1.394 . S
C1064 H1080 0.931 . S
C1065 C1064 1.391 . S
C1065 C1069 1.376 . S
C1066 C1064 1.394 . S
C1066 C1067 1.369 . S
C1066 C1070 1.531 . S
C1067 C1066 1.369 . S
C1067 C1068 1.410 . S
C1067 C1075 1.503 . S
C1068 C1067 1.410 . S
C1068 C1069 1.392 . S
C1068 C1071 1.511 . S
C1069 C1065 1.376 . S
C1069 C1068 1.392 . S
C1069 H1081 0.929 . S
C1070 C1066 1.531 . S
C1070 H1082 0.960 . S
C1070 H1083 0.962 . S
C1070 H1084 0.960 . S
C1071 C1068 1.511 . S
C1071 H1085 0.961 . S
C1071 H1086 0.961 . S
C1071 H1087 0.961 . S
C1072 C1073 1.370 . S
C1072 C1074 1.363 . S
C1072 H1088 0.931 . S
C1073 C1072 1.370 . S
C1073 C1077 1.408 . S
C1074 C1072 1.363 . S
C1074 C1075 1.370 . S
C1074 C1078 1.524 . S
C1075 C1067 1.503 . S
C1075 C1074 1.370 . S
C1075 C1076 1.403 . S
C1076 C1075 1.403 . S
C1076 C1077 1.404 . S
C1076 C1079 1.539 . S
C1077 C1073 1.408 . S
C1077 C1076 1.404 . S
C1077 H1089 0.930 . S
C1078 C1074 1.524 . S
C1078 H1090 0.956 . S
C1078 H1091 0.961 . S
C1078 H1092 0.961 . S
C1079 C1076 1.539 . S
C1079 H1093 0.958 . S
C1079 H1094 0.961 . S
C1079 H1095 0.960 . S
H1080 C1064 0.931 . S
H1081 C1069 0.929 . S
H1082 C1070 0.960 . S
H1083 C1070 0.962 . S
H1084 C1070 0.960 . S
H1085 C1071 0.961 . S
H1086 C1071 0.961 . S
H1087 C1071 0.961 . S
H1088 C1072 0.931 . S
H1089 C1077 0.930 . S
H1090 C1078 0.956 . S
H1091 C1078 0.961 . S
H1092 C1078 0.961 . S
H1093 C1079 0.958 . S
H1094 C1079 0.961 . S
H1095 C1079 0.960 . S
C1096 C1097 1.391 . S
C1096 C1098 1.394 . S
C1096 H1112 0.931 . S
C1097 C1096 1.391 . S
C1097 C1101 1.376 . S
C1098 C1096 1.394 . S
C1098 C1099 1.369 . S
C1098 C1102 1.531 . S
C1099 C1098 1.369 . S
C1099 C1100 1.410 . S
C1099 C1107 1.503 . S
C1100 C1099 1.410 . S
C1100 C1101 1.392 . S
C1100 C1103 1.511 . S
C1101 C1097 1.376 . S
C1101 C1100 1.392 . S
C1101 H1113 0.929 . S
C1102 C1098 1.531 . S
C1102 H1114 0.960 . S
C1102 H1115 0.962 . S
C1102 H1116 0.960 . S
C1103 C1100 1.511 . S
C1103 H1117 0.961 . S
C1103 H1118 0.961 . S
C1103 H1119 0.961 . S
C1104 C1105 1.370 . S
C1104 C1106 1.363 . S
C1104 H1120 0.931 . S
C1105 C1104 1.370 . S
C1105 C1109 1.408 . S
C1106 C1104 1.363 . S
C1106 C1107 1.370 . S
C1106 C1110 1.524 . S
C1107 C1099 1.503 . S
C1107 C1106 1.370 . S
C1107 C1108 1.403 . S
C1108 C1107 1.403 . S
C1108 C1109 1.404 . S
C1108 C1111 1.539 . S
C1109 C1105 1.408 . S
C1109 C1108 1.404 . S
C1109 H1121 0.930 . S
C1110 C1106 1.524 . S
C1110 H1122 0.956 . S
C1110 H1123 0.961 . S
C1110 H1124 0.961 . S
C1111 C1108 1.539 . S
C1111 H1125 0.958 . S
C1111 H1126 0.961 . S
C1111 H1127 0.960 . S
H1112 C1096 0.931 . S
H1113 C1101 0.929 . S
H1114 C1102 0.960 . S
H1115 C1102 0.962 . S
H1116 C1102 0.960 . S
H1117 C1103 0.961 . S
H1118 C1103 0.961 . S
H1119 C1103 0.961 . S
H1120 C1104 0.931 . S
H1121 C1109 0.930 . S
H1122 C1110 0.956 . S
H1123 C1110 0.961 . S
H1124 C1110 0.961 . S
H1125 C1111 0.958 . S
H1126 C1111 0.961 . S
H1127 C1111 0.960 . S
C1128 C1129 1.391 . S
C1128 C1130 1.394 . S
C1128 H1144 0.931 . S
C1129 C1128 1.391 . S
C1129 C1133 1.376 . S
C1130 C1128 1.394 . S
C1130 C1131 1.369 . S
C1130 C1134 1.531 . S
C1131 C1130 1.369 . S
C1131 C1132 1.410 . S
C1131 C1139 1.503 . S
C1132 C1131 1.410 . S
C1132 C1133 1.392 . S
C1132 C1135 1.511 . S
C1133 C1129 1.376 . S
C1133 C1132 1.392 . S
C1133 H1145 0.929 . S
C1134 C1130 1.531 . S
C1134 H1146 0.960 . S
C1134 H1147 0.962 . S
C1134 H1148 0.960 . S
C1135 C1132 1.511 . S
C1135 H1149 0.961 . S
C1135 H1150 0.961 . S
C1135 H1151 0.961 . S
C1136 C1137 1.370 . S
C1136 C1138 1.363 . S
C1136 H1152 0.931 . S
C1137 C1136 1.370 . S
C1137 C1141 1.408 . S
C1138 C1136 1.363 . S
C1138 C1139 1.370 . S
C1138 C1142 1.524 . S
C1139 C1131 1.503 . S
C1139 C1138 1.370 . S
C1139 C1140 1.403 . S
C1140 C1139 1.403 . S
C1140 C1141 1.404 . S
C1140 C1143 1.539 . S
C1141 C1137 1.408 . S
C1141 C1140 1.404 . S
C1141 H1153 0.930 . S
C1142 C1138 1.524 . S
C1142 H1154 0.956 . S
C1142 H1155 0.961 . S
C1142 H1156 0.961 . S
C1143 C1140 1.539 . S
C1143 H1157 0.958 . S
C1143 H1158 0.961 . S
C1143 H1159 0.960 . S
H1144 C1128 0.931 . S
H1145 C1133 0.929 . S
H1146 C1134 0.960 . S
H1147 C1134 0.962 . S
H1148 C1134 0.960 . S
H1149 C1135 0.961 . S
H1150 C1135 0.961 . S
H1151 C1135 0.961 . S
H1152 C1136 0.931 . S
H1153 C1141 0.930 . S
H1154 C1142 0.956 . S
H1155 C1142 0.961 . S
H1156 C1142 0.961 . S
H1157 C1143 0.958 . S
H1158 C1143 0.961 . S
H1159 C1143 0.960 . S
C1160 C1161 1.391 . S
C1160 C1162 1.394 . S
C1160 H1176 0.931 . S
C1161 C1160 1.391 . S
C1161 C1165 1.376 . S
C1162 C1160 1.394 . S
C1162 C1163 1.369 . S
C1162 C1166 1.531 1_455 S
C1163 C1162 1.369 . S
C1163 C1164 1.410 . S
C1163 C1171 1.503 . S
C1164 C1163 1.410 . S
C1164 C1165 1.392 . S
C1164 C1167 1.511 . S
C1165 C1161 1.376 . S
C1165 C1164 1.392 . S
C1165 H1177 0.929 . S
C1166 C1162 1.531 1_655 S
C1166 H1178 0.960 . S
C1166 H1179 0.962 . S
C1166 H1180 0.960 . S
C1167 C1164 1.511 . S
C1167 H1181 0.961 . S
C1167 H1182 0.961 . S
C1167 H1183 0.961 . S
C1168 C1169 1.370 . S
C1168 C1170 1.363 . S
C1168 H1184 0.931 . S
C1169 C1168 1.370 . S
C1169 C1173 1.408 . S
C1170 C1168 1.363 . S
C1170 C1171 1.370 . S
C1170 C1174 1.524 . S
C1171 C1163 1.503 . S
C1171 C1170 1.370 . S
C1171 C1172 1.403 . S
C1172 C1171 1.403 . S
C1172 C1173 1.404 . S
C1172 C1175 1.539 . S
C1173 C1169 1.408 . S
C1173 C1172 1.404 . S
C1173 H1185 0.930 . S
C1174 C1170 1.524 . S
C1174 H1186 0.956 . S
C1174 H1187 0.961 . S
C1174 H1188 0.961 . S
C1175 C1172 1.539 . S
C1175 H1189 0.958 . S
C1175 H1190 0.961 . S
C1175 H1191 0.960 . S
H1176 C1160 0.931 . S
H1177 C1165 0.929 . S
H1178 C1166 0.960 . S
H1179 C1166 0.962 . S
H1180 C1166 0.960 . S
H1181 C1167 0.961 . S
H1182 C1167 0.961 . S
H1183 C1167 0.961 . S
H1184 C1168 0.931 . S
H1185 C1173 0.930 . S
H1186 C1174 0.956 . S
H1187 C1174 0.961 . S
H1188 C1174 0.961 . S
H1189 C1175 0.958 . S
H1190 C1175 0.961 . S
H1191 C1175 0.960 . S
C1192 C1193 1.391 . S
C1192 C1194 1.394 . S
C1192 H1208 0.931 . S
C1193 C1192 1.391 . S
C1193 C1197 1.376 . S
C1194 C1192 1.394 . S
C1194 C1195 1.369 . S
C1194 C1198 1.531 . S
C1195 C1194 1.369 . S
C1195 C1196 1.410 . S
C1195 C1203 1.503 . S
C1196 C1195 1.410 . S
C1196 C1197 1.392 . S
C1196 C1199 1.511 . S
C1197 C1193 1.376 . S
C1197 C1196 1.392 . S
C1197 H1209 0.929 . S
C1198 C1194 1.531 . S
C1198 H1210 0.960 . S
C1198 H1211 0.962 . S
C1198 H1212 0.960 . S
C1199 C1196 1.511 . S
C1199 H1213 0.961 . S
C1199 H1214 0.961 . S
C1199 H1215 0.961 . S
C1200 C1201 1.370 . S
C1200 C1202 1.363 . S
C1200 H1216 0.931 . S
C1201 C1200 1.370 . S
C1201 C1205 1.408 . S
C1202 C1200 1.363 . S
C1202 C1203 1.370 . S
C1202 C1206 1.524 . S
C1203 C1195 1.503 . S
C1203 C1202 1.370 . S
C1203 C1204 1.403 . S
C1204 C1203 1.403 . S
C1204 C1205 1.404 . S
C1204 C1207 1.539 . S
C1205 C1201 1.408 . S
C1205 C1204 1.404 . S
C1205 H1217 0.930 . S
C1206 C1202 1.524 . S
C1206 H1218 0.956 . S
C1206 H1219 0.961 . S
C1206 H1220 0.961 . S
C1207 C1204 1.539 . S
C1207 H1221 0.958 . S
C1207 H1222 0.961 . S
C1207 H1223 0.960 . S
H1208 C1192 0.931 . S
H1209 C1197 0.929 . S
H1210 C1198 0.960 . S
H1211 C1198 0.962 . S
H1212 C1198 0.960 . S
H1213 C1199 0.961 . S
H1214 C1199 0.961 . S
H1215 C1199 0.961 . S
H1216 C1200 0.931 . S
H1217 C1205 0.930 . S
H1218 C1206 0.956 . S
H1219 C1206 0.961 . S
H1220 C1206 0.961 . S
H1221 C1207 0.958 . S
H1222 C1207 0.961 . S
H1223 C1207 0.960 . S
C1224 C1225 1.391 . S
C1224 C1226 1.394 . S
C1224 H1240 0.900 1_655 S
C1225 C1224 1.391 . S
C1225 C1229 1.376 . S
C1226 C1224 1.394 . S
C1226 C1227 1.369 . S
C1226 C1230 1.531 1_655 S
C1227 C1226 1.369 . S
C1227 C1228 1.410 . S
C1227 C1235 1.503 . S
C1228 C1227 1.410 . S
C1228 C1229 1.392 . S
C1228 C1231 1.511 . S
C1229 C1225 1.376 . S
C1229 C1228 1.392 . S
C1229 H1241 0.929 . S
C1230 C1226 1.531 1_455 S
C1230 H1242 0.960 . S
C1230 H1243 0.962 . S
C1230 H1244 0.960 . S
C1231 C1228 1.511 . S
C1231 H1245 0.961 . S
C1231 H1246 0.961 . S
C1231 H1247 0.961 . S
C1232 C1233 1.362 1_455 S
C1232 C1234 1.359 1_455 S
C1232 H1248 0.944 . S
C1233 C1232 1.362 1_655 S
C1233 C1237 1.408 . S
C1234 C1232 1.359 1_655 S
C1234 C1235 1.370 . S
C1234 C1238 1.524 1_655 S
C1235 C1227 1.503 . S
C1235 C1234 1.370 . S
C1235 C1236 1.403 . S
C1236 C1235 1.403 . S
C1236 C1237 1.404 . S
C1236 C1239 1.539 . S
C1237 C1233 1.408 . S
C1237 C1236 1.404 . S
C1237 H1249 0.930 . S
C1238 C1234 1.524 1_455 S
C1238 H1250 0.956 . S
C1238 H1251 0.961 1_455 S
C1238 H1252 0.961 . S
C1239 C1236 1.539 . S
C1239 H1253 0.958 . S
C1239 H1254 0.961 . S
C1239 H1255 0.960 . S
H1240 C1224 0.900 1_455 S
H1241 C1229 0.929 . S
H1242 C1230 0.960 . S
H1243 C1230 0.962 . S
H1244 C1230 0.960 . S
H1245 C1231 0.961 . S
H1246 C1231 0.961 . S
H1247 C1231 0.961 . S
H1248 C1232 0.944 . S
H1249 C1237 0.930 . S
H1250 C1238 0.956 . S
H1251 C1238 0.961 1_655 S
H1252 C1238 0.961 . S
H1253 C1239 0.958 . S
H1254 C1239 0.961 . S
H1255 C1239 0.960 . S
C1256 C1257 1.391 . S
C1256 C1258 1.394 . S
C1256 H1272 0.931 . S
C1257 C1256 1.391 . S
C1257 C1261 1.376 . S
C1258 C1256 1.394 . S
C1258 C1259 1.369 . S
C1258 C1262 1.531 . S
C1259 C1258 1.369 . S
C1259 C1260 1.410 . S
C1259 C1267 1.503 . S
C1260 C1259 1.410 . S
C1260 C1261 1.392 . S
C1260 C1263 1.511 . S
C1261 C1257 1.376 . S
C1261 C1260 1.392 . S
C1261 H1273 0.929 . S
C1262 C1258 1.531 . S
C1262 H1274 0.960 . S
C1262 H1275 0.962 . S
C1262 H1276 0.960 . S
C1263 C1260 1.511 . S
C1263 H1277 0.961 . S
C1263 H1278 0.961 . S
C1263 H1279 0.961 . S
C1264 C1265 1.370 . S
C1264 C1266 1.363 . S
C1264 H1280 0.931 . S
C1265 C1264 1.370 . S
C1265 C1269 1.408 . S
C1266 C1264 1.363 . S
C1266 C1267 1.370 . S
C1266 C1270 1.524 . S
C1267 C1259 1.503 . S
C1267 C1266 1.370 . S
C1267 C1268 1.403 . S
C1268 C1267 1.403 . S
C1268 C1269 1.404 . S
C1268 C1271 1.539 . S
C1269 C1265 1.408 . S
C1269 C1268 1.404 . S
C1269 H1281 0.930 . S
C1270 C1266 1.524 . S
C1270 H1282 0.956 . S
C1270 H1283 0.961 . S
C1270 H1284 0.961 . S
C1271 C1268 1.539 . S
C1271 H1285 0.958 . S
C1271 H1286 0.961 . S
C1271 H1287 0.960 . S
H1272 C1256 0.931 . S
H1273 C1261 0.929 . S
H1274 C1262 0.960 . S
H1275 C1262 0.962 . S
H1276 C1262 0.960 . S
H1277 C1263 0.961 . S
H1278 C1263 0.961 . S
H1279 C1263 0.961 . S
H1280 C1264 0.931 . S
H1281 C1269 0.930 . S
H1282 C1270 0.956 . S
H1283 C1270 0.961 . S
H1284 C1270 0.961 . S
H1285 C1271 0.958 . S
H1286 C1271 0.961 . S
H1287 C1271 0.960 . S
C1288 C1289 1.391 . S
C1288 C1290 1.394 . S
C1288 H1304 0.931 . S
C1289 C1288 1.391 . S
C1289 C1293 1.376 . S
C1290 C1288 1.394 . S
C1290 C1291 1.369 . S
C1290 C1294 1.531 . S
C1291 C1290 1.369 . S
C1291 C1292 1.410 . S
C1291 C1299 1.503 . S
C1292 C1291 1.410 . S
C1292 C1293 1.392 . S
C1292 C1295 1.511 . S
C1293 C1289 1.376 . S
C1293 C1292 1.392 . S
C1293 H1305 0.929 . S
C1294 C1290 1.531 . S
C1294 H1306 0.960 . S
C1294 H1307 0.962 . S
C1294 H1308 0.960 . S
C1295 C1292 1.511 . S
C1295 H1309 0.961 . S
C1295 H1310 0.961 . S
C1295 H1311 0.961 . S
C1296 C1297 1.370 . S
C1296 C1298 1.363 . S
C1296 H1312 0.931 . S
C1297 C1296 1.370 . S
C1297 C1301 1.408 . S
C1298 C1296 1.363 . S
C1298 C1299 1.370 . S
C1298 C1302 1.524 . S
C1299 C1291 1.503 . S
C1299 C1298 1.370 . S
C1299 C1300 1.403 . S
C1300 C1299 1.403 . S
C1300 C1301 1.404 . S
C1300 C1303 1.539 . S
C1301 C1297 1.408 . S
C1301 C1300 1.404 . S
C1301 H1313 0.930 . S
C1302 C1298 1.524 . S
C1302 H1314 0.956 . S
C1302 H1315 0.961 . S
C1302 H1316 0.961 . S
C1303 C1300 1.539 . S
C1303 H1317 0.958 . S
C1303 H1318 0.961 . S
C1303 H1319 0.960 . S
H1304 C1288 0.931 . S
H1305 C1293 0.929 . S
H1306 C1294 0.960 . S
H1307 C1294 0.962 . S
H1308 C1294 0.960 . S
H1309 C1295 0.961 . S
H1310 C1295 0.961 . S
H1311 C1295 0.961 . S
H1312 C1296 0.931 . S
H1313 C1301 0.930 . S
H1314 C1302 0.956 . S
H1315 C1302 0.961 . S
H1316 C1302 0.961 . S
H1317 C1303 0.958 . S
H1318 C1303 0.961 . S
H1319 C1303 0.960 . S
C1320 C1321 1.391 . S
C1320 C1322 1.394 . S
C1320 H1336 0.931 . S
C1321 C1320 1.391 . S
C1321 C1325 1.376 . S
C1322 C1320 1.394 . S
C1322 C1323 1.369 . S
C1322 C1326 1.531 . S
C1323 C1322 1.369 . S
C1323 C1324 1.410 . S
C1323 C1331 1.503 . S
C1324 C1323 1.410 . S
C1324 C1325 1.392 . S
C1324 C1327 1.511 . S
C1325 C1321 1.376 . S
C1325 C1324 1.392 . S
C1325 H1337 0.929 1_565 S
C1326 C1322 1.531 . S
C1326 H1338 0.960 . S
C1326 H1339 0.962 . S
C1326 H1340 0.960 . S
C1327 C1324 1.511 . S
C1327 H1341 0.961 1_565 S
C1327 H1342 0.961 . S
C1327 H1343 0.961 1_556 S
C1328 C1329 1.370 . S
C1328 C1330 1.363 . S
C1328 H1344 0.931 . S
C1329 C1328 1.370 . S
C1329 C1333 1.408 1_556 S
C1330 C1328 1.363 . S
C1330 C1331 1.370 . S
C1330 C1334 1.524 . S
C1331 C1323 1.503 . S
C1331 C1330 1.370 . S
C1331 C1332 1.403 1_556 S
C1332 C1331 1.403 1_554 S
C1332 C1333 1.404 . S
C1332 C1335 1.539 . S
C1333 C1329 1.408 1_554 S
C1333 C1332 1.404 . S
C1333 H1345 0.930 . S
C1334 C1330 1.524 . S
C1334 H1346 0.956 . S
C1334 H1347 0.961 . S
C1334 H1348 0.961 . S
C1335 C1332 1.539 . S
C1335 H1349 0.958 . S
C1335 H1350 0.961 . S
C1335 H1351 0.960 . S
H1336 C1320 0.931 . S
H1337 C1325 0.929 1_545 S
H1338 C1326 0.960 . S
H1339 C1326 0.962 . S
H1340 C1326 0.960 . S
H1341 C1327 0.961 1_545 S
H1342 C1327 0.961 . S
H1343 C1327 0.961 1_554 S
H1344 C1328 0.931 . S
H1345 C1333 0.930 . S
H1346 C1334 0.956 . S
H1347 C1334 0.961 . S
H1348 C1334 0.961 . S
H1349 C1335 0.958 . S
H1350 C1335 0.961 . S
H1351 C1335 0.960 . S
C1352 C1353 1.391 . S
C1352 C1354 1.394 . S
C1352 H1368 0.931 . S
C1353 C1352 1.391 . S
C1353 C1357 1.376 . S
C1354 C1352 1.394 . S
C1354 C1355 1.369 . S
C1354 C1358 1.531 . S
C1355 C1354 1.369 . S
C1355 C1356 1.410 . S
C1355 C1363 1.503 . S
C1356 C1355 1.410 . S
C1356 C1357 1.392 . S
C1356 C1359 1.511 . S
C1357 C1353 1.376 . S
C1357 C1356 1.392 . S
C1357 H1369 0.929 . S
C1358 C1354 1.531 . S
C1358 H1370 0.960 . S
C1358 H1371 0.962 . S
C1358 H1372 0.960 . S
C1359 C1356 1.511 . S
C1359 H1373 0.961 . S
C1359 H1374 0.961 . S
C1359 H1375 0.961 . S
C1360 C1361 1.370 . S
C1360 C1362 1.363 . S
C1360 H1376 0.931 . S
C1361 C1360 1.370 . S
C1361 C1365 1.408 . S
C1362 C1360 1.363 . S
C1362 C1363 1.370 . S
C1362 C1366 1.524 . S
C1363 C1355 1.503 . S
C1363 C1362 1.370 . S
C1363 C1364 1.403 . S
C1364 C1363 1.403 . S
C1364 C1365 1.404 . S
C1364 C1367 1.539 . S
C1365 C1361 1.408 . S
C1365 C1364 1.404 . S
C1365 H1377 0.930 . S
C1366 C1362 1.524 . S
C1366 H1378 0.956 . S
C1366 H1379 0.961 . S
C1366 H1380 0.961 . S
C1367 C1364 1.539 . S
C1367 H1381 0.958 . S
C1367 H1382 0.961 . S
C1367 H1383 0.960 . S
H1368 C1352 0.931 . S
H1369 C1357 0.929 . S
H1370 C1358 0.960 . S
H1371 C1358 0.962 . S
H1372 C1358 0.960 . S
H1373 C1359 0.961 . S
H1374 C1359 0.961 . S
H1375 C1359 0.961 . S
H1376 C1360 0.931 . S
H1377 C1365 0.930 . S
H1378 C1366 0.956 . S
H1379 C1366 0.961 . S
H1380 C1366 0.961 . S
H1381 C1367 0.958 . S
H1382 C1367 0.961 . S
H1383 C1367 0.960 . S
C1384 C1385 1.391 . S
C1384 C1386 1.394 . S
C1384 H1400 0.916 1_545 S
C1385 C1384 1.391 . S
C1385 C1389 1.376 . S
C1386 C1384 1.394 . S
C1386 C1387 1.369 . S
C1386 C1390 1.531 . S
C1387 C1386 1.369 . S
C1387 C1388 1.410 . S
C1387 C1395 1.503 . S
C1388 C1387 1.410 . S
C1388 C1389 1.392 . S
C1388 C1391 1.511 . S
C1389 C1385 1.376 . S
C1389 C1388 1.392 . S
C1389 H1401 0.929 . S
C1390 C1386 1.531 . S
C1390 H1402 0.960 . S
C1390 H1403 0.962 . S
C1390 H1404 0.960 . S
C1391 C1388 1.511 . S
C1391 H1405 0.961 . S
C1391 H1406 0.961 . S
C1391 H1407 0.961 . S
C1392 C1393 1.370 . S
C1392 C1394 1.363 . S
C1392 H1408 0.931 . S
C1393 C1392 1.370 . S
C1393 C1397 1.408 . S
C1394 C1392 1.363 . S
C1394 C1395 1.370 . S
C1394 C1398 1.524 . S
C1395 C1387 1.503 . S
C1395 C1394 1.370 . S
C1395 C1396 1.403 . S
C1396 C1395 1.403 . S
C1396 C1397 1.404 . S
C1396 C1399 1.539 . S
C1397 C1393 1.408 . S
C1397 C1396 1.404 . S
C1397 H1409 0.930 . S
C1398 C1394 1.524 . S
C1398 H1410 0.956 . S
C1398 H1411 0.961 . S
C1398 H1412 0.961 . S
C1399 C1396 1.539 . S
C1399 H1413 0.958 . S
C1399 H1414 0.961 . S
C1399 H1415 0.960 . S
H1400 C1384 0.916 1_565 S
H1401 C1389 0.929 . S
H1402 C1390 0.960 . S
H1403 C1390 0.962 . S
H1404 C1390 0.960 . S
H1405 C1391 0.961 . S
H1406 C1391 0.961 . S
H1407 C1391 0.961 . S
H1408 C1392 0.931 . S
H1409 C1397 0.930 . S
H1410 C1398 0.956 . S
H1411 C1398 0.961 . S
H1412 C1398 0.961 . S
H1413 C1399 0.958 . S
H1414 C1399 0.961 . S
H1415 C1399 0.960 . S
C1416 C1417 1.391 . S
C1416 C1418 1.394 . S
C1416 H1432 0.931 . S
C1417 C1416 1.391 . S
C1417 C1421 1.376 . S
C1418 C1416 1.394 . S
C1418 C1419 1.369 . S
C1418 C1422 1.531 . S
C1419 C1418 1.369 . S
C1419 C1420 1.410 . S
C1419 C1427 1.503 . S
C1420 C1419 1.410 . S
C1420 C1421 1.392 . S
C1420 C1423 1.511 . S
C1421 C1417 1.376 . S
C1421 C1420 1.392 . S
C1421 H1433 0.929 . S
C1422 C1418 1.531 . S
C1422 H1434 0.960 . S
C1422 H1435 0.962 . S
C1422 H1436 0.960 . S
C1423 C1420 1.511 . S
C1423 H1437 0.961 . S
C1423 H1438 0.961 . S
C1423 H1439 0.961 . S
C1424 C1425 1.370 . S
C1424 C1426 1.363 . S
C1424 H1440 0.931 . S
C1425 C1424 1.370 . S
C1425 C1429 1.408 . S
C1426 C1424 1.363 . S
C1426 C1427 1.370 . S
C1426 C1430 1.524 . S
C1427 C1419 1.503 . S
C1427 C1426 1.370 . S
C1427 C1428 1.403 . S
C1428 C1427 1.403 . S
C1428 C1429 1.404 . S
C1428 C1431 1.539 . S
C1429 C1425 1.408 . S
C1429 C1428 1.404 . S
C1429 H1441 0.930 . S
C1430 C1426 1.524 . S
C1430 H1442 0.956 . S
C1430 H1443 0.961 . S
C1430 H1444 0.961 . S
C1431 C1428 1.539 . S
C1431 H1445 0.958 . S
C1431 H1446 0.961 . S
C1431 H1447 0.960 . S
H1432 C1416 0.931 . S
H1433 C1421 0.929 . S
H1434 C1422 0.960 . S
H1435 C1422 0.962 . S
H1436 C1422 0.960 . S
H1437 C1423 0.961 . S
H1438 C1423 0.961 . S
H1439 C1423 0.961 . S
H1440 C1424 0.931 . S
H1441 C1429 0.930 . S
H1442 C1430 0.956 . S
H1443 C1430 0.961 . S
H1444 C1430 0.961 . S
H1445 C1431 0.958 . S
H1446 C1431 0.961 . S
H1447 C1431 0.960 . S
C1448 C1449 1.391 . S
C1448 C1450 1.394 . S
C1448 H1464 0.931 . S
C1449 C1448 1.391 . S
C1449 C1453 1.376 . S
C1450 C1448 1.394 . S
C1450 C1451 1.369 . S
C1450 C1454 1.531 . S
C1451 C1450 1.369 . S
C1451 C1452 1.410 . S
C1451 C1459 1.503 . S
C1452 C1451 1.410 . S
C1452 C1453 1.392 . S
C1452 C1455 1.511 . S
C1453 C1449 1.376 . S
C1453 C1452 1.392 . S
C1453 H1465 0.929 . S
C1454 C1450 1.531 . S
C1454 H1466 0.960 . S
C1454 H1467 0.962 . S
C1454 H1468 0.960 . S
C1455 C1452 1.511 . S
C1455 H1469 0.961 . S
C1455 H1470 0.961 . S
C1455 H1471 0.961 . S
C1456 C1457 1.370 . S
C1456 C1458 1.363 . S
C1456 H1472 0.931 . S
C1457 C1456 1.370 . S
C1457 C1461 1.408 . S
C1458 C1456 1.363 . S
C1458 C1459 1.370 . S
C1458 C1462 1.524 . S
C1459 C1451 1.503 . S
C1459 C1458 1.370 . S
C1459 C1460 1.403 . S
C1460 C1459 1.403 . S
C1460 C1461 1.404 . S
C1460 C1463 1.539 . S
C1461 C1457 1.408 . S
C1461 C1460 1.404 . S
C1461 H1473 0.930 . S
C1462 C1458 1.524 . S
C1462 H1474 0.956 . S
C1462 H1475 0.961 . S
C1462 H1476 0.961 . S
C1463 C1460 1.539 . S
C1463 H1477 0.958 . S
C1463 H1478 0.961 . S
C1463 H1479 0.960 . S
H1464 C1448 0.931 . S
H1465 C1453 0.929 . S
H1466 C1454 0.960 . S
H1467 C1454 0.962 . S
H1468 C1454 0.960 . S
H1469 C1455 0.961 . S
H1470 C1455 0.961 . S
H1471 C1455 0.961 . S
H1472 C1456 0.931 . S
H1473 C1461 0.930 . S
H1474 C1462 0.956 . S
H1475 C1462 0.961 . S
H1476 C1462 0.961 . S
H1477 C1463 0.958 . S
H1478 C1463 0.961 . S
H1479 C1463 0.960 . S
C1480 C1481 1.391 . S
C1480 C1482 1.394 . S
C1480 H1496 0.931 . S
C1481 C1480 1.391 . S
C1481 C1485 1.376 . S
C1482 C1480 1.394 . S
C1482 C1483 1.369 . S
C1482 C1486 1.531 . S
C1483 C1482 1.369 . S
C1483 C1484 1.410 . S
C1483 C1491 1.503 . S
C1484 C1483 1.410 . S
C1484 C1485 1.392 . S
C1484 C1487 1.511 . S
C1485 C1481 1.376 . S
C1485 C1484 1.392 . S
C1485 H1497 0.929 . S
C1486 C1482 1.531 . S
C1486 H1498 0.960 . S
C1486 H1499 0.962 . S
C1486 H1500 0.960 . S
C1487 C1484 1.511 . S
C1487 H1501 0.961 . S
C1487 H1502 0.961 . S
C1487 H1503 0.961 . S
C1488 C1489 1.370 . S
C1488 C1490 1.363 . S
C1488 H1504 0.931 . S
C1489 C1488 1.370 . S
C1489 C1493 1.408 . S
C1490 C1488 1.363 . S
C1490 C1491 1.370 . S
C1490 C1494 1.524 . S
C1491 C1483 1.503 . S
C1491 C1490 1.370 . S
C1491 C1492 1.403 . S
C1492 C1491 1.403 . S
C1492 C1493 1.404 . S
C1492 C1495 1.539 . S
C1493 C1489 1.408 . S
C1493 C1492 1.404 . S
C1493 H1505 0.930 . S
C1494 C1490 1.524 . S
C1494 H1506 0.956 . S
C1494 H1507 0.961 . S
C1494 H1508 0.961 . S
C1495 C1492 1.539 . S
C1495 H1509 0.958 . S
C1495 H1510 0.961 . S
C1495 H1511 0.960 . S
H1496 C1480 0.931 . S
H1497 C1485 0.929 . S
H1498 C1486 0.960 . S
H1499 C1486 0.962 . S
H1500 C1486 0.960 . S
H1501 C1487 0.961 . S
H1502 C1487 0.961 . S
H1503 C1487 0.961 . S
H1504 C1488 0.931 . S
H1505 C1493 0.930 . S
H1506 C1494 0.956 . S
H1507 C1494 0.961 . S
H1508 C1494 0.961 . S
H1509 C1495 0.958 . S
H1510 C1495 0.961 . S
H1511 C1495 0.960 . S
C1512 C1513 1.391 . S
C1512 C1514 1.394 . S
C1512 H1528 0.931 . S
C1513 C1512 1.391 . S
C1513 C1517 1.376 . S
C1514 C1512 1.394 . S
C1514 C1515 1.369 . S
C1514 C1518 1.531 . S
C1515 C1514 1.369 . S
C1515 C1516 1.410 . S
C1515 C1523 1.503 . S
C1516 C1515 1.410 . S
C1516 C1517 1.392 . S
C1516 C1519 1.511 . S
C1517 C1513 1.376 . S
C1517 C1516 1.392 . S
C1517 H1529 0.929 . S
C1518 C1514 1.531 . S
C1518 H1530 0.960 . S
C1518 H1531 0.962 . S
C1518 H1532 0.960 . S
C1519 C1516 1.511 . S
C1519 H1533 0.961 . S
C1519 H1534 0.961 . S
C1519 H1535 0.961 . S
C1520 C1521 1.370 . S
C1520 C1522 1.363 . S
C1520 H1536 0.931 . S
C1521 C1520 1.370 . S
C1521 C1525 1.408 . S
C1522 C1520 1.363 . S
C1522 C1523 1.370 . S
C1522 C1526 1.524 . S
C1523 C1515 1.503 . S
C1523 C1522 1.370 . S
C1523 C1524 1.403 . S
C1524 C1523 1.403 . S
C1524 C1525 1.404 . S
C1524 C1527 1.539 . S
C1525 C1521 1.408 . S
C1525 C1524 1.404 . S
C1525 H1537 0.930 . S
C1526 C1522 1.524 . S
C1526 H1538 0.956 . S
C1526 H1539 0.961 . S
C1526 H1540 0.961 . S
C1527 C1524 1.539 . S
C1527 H1541 0.958 . S
C1527 H1542 0.961 . S
C1527 H1543 0.960 . S
H1528 C1512 0.931 . S
H1529 C1517 0.929 . S
H1530 C1518 0.960 . S
H1531 C1518 0.962 . S
H1532 C1518 0.960 . S
H1533 C1519 0.961 . S
H1534 C1519 0.961 . S
H1535 C1519 0.961 . S
H1536 C1520 0.931 . S
H1537 C1525 0.930 . S
H1538 C1526 0.956 . S
H1539 C1526 0.961 . S
H1540 C1526 0.961 . S
H1541 C1527 0.958 . S
H1542 C1527 0.961 . S
H1543 C1527 0.960 . S
C1544 C1545 1.391 . S
C1544 C1546 1.394 . S
C1544 H1560 0.931 . S
C1545 C1544 1.391 . S
C1545 C1549 1.376 . S
C1546 C1544 1.394 . S
C1546 C1547 1.369 . S
C1546 C1550 1.531 . S
C1547 C1546 1.369 . S
C1547 C1548 1.410 . S
C1547 C1555 1.503 . S
C1548 C1547 1.410 . S
C1548 C1549 1.392 . S
C1548 C1551 1.511 . S
C1549 C1545 1.376 . S
C1549 C1548 1.392 . S
C1549 H1561 0.929 . S
C1550 C1546 1.531 . S
C1550 H1562 0.960 . S
C1550 H1563 0.962 . S
C1550 H1564 0.960 . S
C1551 C1548 1.511 . S
C1551 H1565 0.961 1_545 S
C1551 H1566 0.959 . S
C1551 H1567 0.961 . S
C1552 C1553 1.370 . S
C1552 C1554 1.363 . S
C1552 H1568 0.931 1_545 S
C1553 C1552 1.370 . S
C1553 C1557 1.408 . S
C1554 C1552 1.363 . S
C1554 C1555 1.370 . S
C1554 C1558 1.524 . S
C1555 C1547 1.503 . S
C1555 C1554 1.370 . S
C1555 C1556 1.403 . S
C1556 C1555 1.403 . S
C1556 C1557 1.404 . S
C1556 C1559 1.539 . S
C1557 C1553 1.408 . S
C1557 C1556 1.404 . S
C1557 H1569 0.930 . S
C1558 C1554 1.524 . S
C1558 H1570 0.956 . S
C1558 H1571 0.961 1_545 S
C1558 H1572 0.961 1_545 S
C1559 C1556 1.539 . S
C1559 H1573 0.958 . S
C1559 H1574 0.961 . S
C1559 H1575 0.960 . S
H1560 C1544 0.931 . S
H1561 C1549 0.929 . S
H1562 C1550 0.960 . S
H1563 C1550 0.962 . S
H1564 C1550 0.960 . S
H1565 C1551 0.961 1_565 S
H1566 C1551 0.959 . S
H1567 C1551 0.961 . S
H1568 C1552 0.931 1_565 S
H1569 C1557 0.930 . S
H1570 C1558 0.956 . S
H1571 C1558 0.961 1_565 S
H1572 C1558 0.961 1_565 S
H1573 C1559 0.958 . S
H1574 C1559 0.961 . S
H1575 C1559 0.960 . S
C1576 C1577 1.391 . S
C1576 C1578 1.394 . S
C1576 H1592 0.931 . S
C1577 C1576 1.391 . S
C1577 C1581 1.376 . S
C1578 C1576 1.394 . S
C1578 C1579 1.369 . S
C1578 C1582 1.531 . S
C1579 C1578 1.369 . S
C1579 C1580 1.410 . S
C1579 C1587 1.503 . S
C1580 C1579 1.410 . S
C1580 C1581 1.392 . S
C1580 C1583 1.511 . S
C1581 C1577 1.376 . S
C1581 C1580 1.392 . S
C1581 H1593 0.929 . S
C1582 C1578 1.531 . S
C1582 H1594 0.960 . S
C1582 H1595 0.962 . S
C1582 H1596 0.960 . S
C1583 C1580 1.511 . S
C1583 H1597 0.961 . S
C1583 H1598 0.961 . S
C1583 H1599 0.961 . S
C1584 C1585 1.370 . S
C1584 C1586 1.363 . S
C1584 H1600 0.931 . S
C1585 C1584 1.370 . S
C1585 C1589 1.408 . S
C1586 C1584 1.363 . S
C1586 C1587 1.370 . S
C1586 C1590 1.524 . S
C1587 C1579 1.503 . S
C1587 C1586 1.370 . S
C1587 C1588 1.403 . S
C1588 C1587 1.403 . S
C1588 C1589 1.404 . S
C1588 C1591 1.539 . S
C1589 C1585 1.408 . S
C1589 C1588 1.404 . S
C1589 H1601 0.930 . S
C1590 C1586 1.524 . S
C1590 H1602 0.956 . S
C1590 H1603 0.961 . S
C1590 H1604 0.961 . S
C1591 C1588 1.539 . S
C1591 H1605 0.958 . S
C1591 H1606 0.961 . S
C1591 H1607 0.960 . S
H1592 C1576 0.931 . S
H1593 C1581 0.929 . S
H1594 C1582 0.960 . S
H1595 C1582 0.962 . S
H1596 C1582 0.960 . S
H1597 C1583 0.961 . S
H1598 C1583 0.961 . S
H1599 C1583 0.961 . S
H1600 C1584 0.931 . S
H1601 C1589 0.930 . S
H1602 C1590 0.956 . S
H1603 C1590 0.961 . S
H1604 C1590 0.961 . S
H1605 C1591 0.958 . S
H1606 C1591 0.961 . S
H1607 C1591 0.960 . S
C1608 C1609 1.391 . S
C1608 C1610 1.394 . S
C1608 H1624 0.931 . S
C1609 C1608 1.391 . S
C1609 C1613 1.376 . S
C1610 C1608 1.394 . S
C1610 C1611 1.369 . S
C1610 C1614 1.531 . S
C1611 C1610 1.369 . S
C1611 C1612 1.410 . S
C1611 C1619 1.503 . S
C1612 C1611 1.410 . S
C1612 C1613 1.392 . S
C1612 C1615 1.511 . S
C1613 C1609 1.376 . S
C1613 C1612 1.392 . S
C1613 H1625 0.929 . S
C1614 C1610 1.531 . S
C1614 H1626 0.960 . S
C1614 H1627 0.962 . S
C1614 H1628 0.960 . S
C1615 C1612 1.511 . S
C1615 H1629 0.961 . S
C1615 H1630 0.961 . S
C1615 H1631 0.961 . S
C1616 C1617 1.370 . S
C1616 C1618 1.363 . S
C1616 H1632 0.931 . S
C1617 C1616 1.370 . S
C1617 C1621 1.408 . S
C1618 C1616 1.363 . S
C1618 C1619 1.370 . S
C1618 C1622 1.524 . S
C1619 C1611 1.503 . S
C1619 C1618 1.370 . S
C1619 C1620 1.403 . S
C1620 C1619 1.403 . S
C1620 C1621 1.404 . S
C1620 C1623 1.539 . S
C1621 C1617 1.408 . S
C1621 C1620 1.404 . S
C1621 H1633 0.930 . S
C1622 C1618 1.524 . S
C1622 H1634 0.956 . S
C1622 H1635 0.961 . S
C1622 H1636 0.961 . S
C1623 C1620 1.539 . S
C1623 H1637 0.958 . S
C1623 H1638 0.961 . S
C1623 H1639 0.960 . S
H1624 C1608 0.931 . S
H1625 C1613 0.929 . S
H1626 C1614 0.960 . S
H1627 C1614 0.962 . S
H1628 C1614 0.960 . S
H1629 C1615 0.961 . S
H1630 C1615 0.961 . S
H1631 C1615 0.961 . S
H1632 C1616 0.931 . S
H1633 C1621 0.930 . S
H1634 C1622 0.956 . S
H1635 C1622 0.961 . S
H1636 C1622 0.961 . S
H1637 C1623 0.958 . S
H1638 C1623 0.961 . S
H1639 C1623 0.960 . S
C1640 C1641 1.391 . S
C1640 C1642 1.394 . S
C1640 H1656 0.931 . S
C1641 C1640 1.391 . S
C1641 C1645 1.376 . S
C1642 C1640 1.394 . S
C1642 C1643 1.369 . S
C1642 C1646 1.531 . S
C1643 C1642 1.369 . S
C1643 C1644 1.410 . S
C1643 C1651 1.503 . S
C1644 C1643 1.410 . S
C1644 C1645 1.392 . S
C1644 C1647 1.511 . S
C1645 C1641 1.376 . S
C1645 C1644 1.392 . S
C1645 H1657 0.929 . S
C1646 C1642 1.531 . S
C1646 H1658 0.960 . S
C1646 H1659 0.962 . S
C1646 H1660 0.960 . S
C1647 C1644 1.511 . S
C1647 H1661 0.961 . S
C1647 H1662 0.961 . S
C1647 H1663 0.961 . S
C1648 C1649 1.370 . S
C1648 C1650 1.363 . S
C1648 H1664 0.931 . S
C1649 C1648 1.370 . S
C1649 C1653 1.408 . S
C1650 C1648 1.363 . S
C1650 C1651 1.370 . S
C1650 C1654 1.524 . S
C1651 C1643 1.503 . S
C1651 C1650 1.370 . S
C1651 C1652 1.403 . S
C1652 C1651 1.403 . S
C1652 C1653 1.404 . S
C1652 C1655 1.539 . S
C1653 C1649 1.408 . S
C1653 C1652 1.404 . S
C1653 H1665 0.930 . S
C1654 C1650 1.524 . S
C1654 H1666 0.956 . S
C1654 H1667 0.961 . S
C1654 H1668 0.961 . S
C1655 C1652 1.539 . S
C1655 H1669 0.958 . S
C1655 H1670 0.961 . S
C1655 H1671 0.960 . S
H1656 C1640 0.931 . S
H1657 C1645 0.929 . S
H1658 C1646 0.960 . S
H1659 C1646 0.962 . S
H1660 C1646 0.960 . S
H1661 C1647 0.961 . S
H1662 C1647 0.961 . S
H1663 C1647 0.961 . S
H1664 C1648 0.931 . S
H1665 C1653 0.930 . S
H1666 C1654 0.956 . S
H1667 C1654 0.961 . S
H1668 C1654 0.961 . S
H1669 C1655 0.958 . S
H1670 C1655 0.961 . S
H1671 C1655 0.960 . S
C1672 C1673 1.391 . S
C1672 C1674 1.394 . S
C1672 H1688 0.931 . S
C1673 C1672 1.391 . S
C1673 C1677 1.376 . S
C1674 C1672 1.394 . S
C1674 C1675 1.369 . S
C1674 C1678 1.531 . S
C1675 C1674 1.369 . S
C1675 C1676 1.410 . S
C1675 C1683 1.503 . S
C1676 C1675 1.410 . S
C1676 C1677 1.392 . S
C1676 C1679 1.511 1_545 S
C1677 C1673 1.376 . S
C1677 C1676 1.392 . S
C1677 H1689 0.929 . S
C1678 C1674 1.531 . S
C1678 H1690 0.960 . S
C1678 H1691 0.962 . S
C1678 H1692 0.960 . S
C1679 C1676 1.511 1_565 S
C1679 H1693 0.961 . S
C1679 H1694 0.961 . S
C1679 H1695 0.961 1_565 S
C1680 C1681 1.370 . S
C1680 C1682 1.363 . S
C1680 H1696 0.931 1_545 S
C1681 C1680 1.370 . S
C1681 C1685 1.408 . S
C1682 C1680 1.363 . S
C1682 C1683 1.370 . S
C1682 C1686 1.524 1_545 S
C1683 C1675 1.503 . S
C1683 C1682 1.370 . S
C1683 C1684 1.403 . S
C1684 C1683 1.403 . S
C1684 C1685 1.404 . S
C1684 C1687 1.539 . S
C1685 C1681 1.408 . S
C1685 C1684 1.404 . S
C1685 H1697 0.930 . S
C1686 C1682 1.524 1_565 S
C1686 H1698 0.956 1_565 S
C1686 H1699 0.961 . S
C1686 H1700 0.961 . S
C1687 C1684 1.539 . S
C1687 H1701 0.958 . S
C1687 H1702 0.961 . S
C1687 H1703 0.960 . S
H1688 C1672 0.931 . S
H1689 C1677 0.929 . S
H1690 C1678 0.960 . S
H1691 C1678 0.962 . S
H1692 C1678 0.960 . S
H1693 C1679 0.961 . S
H1694 C1679 0.961 . S
H1695 C1679 0.961 1_545 S
H1696 C1680 0.931 1_565 S
H1697 C1685 0.930 . S
H1698 C1686 0.956 1_545 S
H1699 C1686 0.961 . S
H1700 C1686 0.961 . S
H1701 C1687 0.958 . S
H1702 C1687 0.961 . S
H1703 C1687 0.960 . S
C1704 C1705 1.391 . S
C1704 C1706 1.394 . S
C1704 H1720 0.931 . S
C1705 C1704 1.391 . S
C1705 C1709 1.376 . S
C1706 C1704 1.394 . S
C1706 C1707 1.369 . S
C1706 C1710 1.531 . S
C1707 C1706 1.369 . S
C1707 C1708 1.410 . S
C1707 C1715 1.503 . S
C1708 C1707 1.410 . S
C1708 C1709 1.392 . S
C1708 C1711 1.511 . S
C1709 C1705 1.376 . S
C1709 C1708 1.392 . S
C1709 H1721 0.929 . S
C1710 C1706 1.531 . S
C1710 H1722 0.960 . S
C1710 H1723 0.962 . S
C1710 H1724 0.960 . S
C1711 C1708 1.511 . S
C1711 H1725 0.961 . S
C1711 H1726 0.961 . S
C1711 H1727 0.961 . S
C1712 C1713 1.370 . S
C1712 C1714 1.363 . S
C1712 H1728 0.931 . S
C1713 C1712 1.370 . S
C1713 C1717 1.408 . S
C1714 C1712 1.363 . S
C1714 C1715 1.370 . S
C1714 C1718 1.524 . S
C1715 C1707 1.503 . S
C1715 C1714 1.370 . S
C1715 C1716 1.403 . S
C1716 C1715 1.403 . S
C1716 C1717 1.404 . S
C1716 C1719 1.539 . S
C1717 C1713 1.408 . S
C1717 C1716 1.404 . S
C1717 H1729 0.930 . S
C1718 C1714 1.524 . S
C1718 H1730 0.956 . S
C1718 H1731 0.961 . S
C1718 H1732 0.961 . S
C1719 C1716 1.539 . S
C1719 H1733 0.958 . S
C1719 H1734 0.961 . S
C1719 H1735 0.960 . S
H1720 C1704 0.931 . S
H1721 C1709 0.929 . S
H1722 C1710 0.960 . S
H1723 C1710 0.962 . S
H1724 C1710 0.960 . S
H1725 C1711 0.961 . S
H1726 C1711 0.961 . S
H1727 C1711 0.961 . S
H1728 C1712 0.931 . S
H1729 C1717 0.930 . S
H1730 C1718 0.956 . S
H1731 C1718 0.961 . S
H1732 C1718 0.961 . S
H1733 C1719 0.958 . S
H1734 C1719 0.961 . S
H1735 C1719 0.960 . S
C1736 C1737 1.391 . S
C1736 C1738 1.394 . S
C1736 H1752 0.931 . S
C1737 C1736 1.391 . S
C1737 C1741 1.376 . S
C1738 C1736 1.394 . S
C1738 C1739 1.369 . S
C1738 C1742 1.531 . S
C1739 C1738 1.369 . S
C1739 C1740 1.410 . S
C1739 C1747 1.503 . S
C1740 C1739 1.410 . S
C1740 C1741 1.392 . S
C1740 C1743 1.511 . S
C1741 C1737 1.376 . S
C1741 C1740 1.392 . S
C1741 H1753 0.929 . S
C1742 C1738 1.531 . S
C1742 H1754 0.960 . S
C1742 H1755 0.962 . S
C1742 H1756 0.960 . S
C1743 C1740 1.511 . S
C1743 H1757 0.961 . S
C1743 H1758 0.961 . S
C1743 H1759 0.961 . S
C1744 C1745 1.370 . S
C1744 C1746 1.363 . S
C1744 H1760 0.931 . S
C1745 C1744 1.370 . S
C1745 C1749 1.408 . S
C1746 C1744 1.363 . S
C1746 C1747 1.370 . S
C1746 C1750 1.524 . S
C1747 C1739 1.503 . S
C1747 C1746 1.370 . S
C1747 C1748 1.403 . S
C1748 C1747 1.403 . S
C1748 C1749 1.404 . S
C1748 C1751 1.539 . S
C1749 C1745 1.408 . S
C1749 C1748 1.404 . S
C1749 H1761 0.930 . S
C1750 C1746 1.524 . S
C1750 H1762 0.956 . S
C1750 H1763 0.961 . S
C1750 H1764 0.961 . S
C1751 C1748 1.539 . S
C1751 H1765 0.958 . S
C1751 H1766 0.961 . S
C1751 H1767 0.960 . S
H1752 C1736 0.931 . S
H1753 C1741 0.929 . S
H1754 C1742 0.960 . S
H1755 C1742 0.962 . S
H1756 C1742 0.960 . S
H1757 C1743 0.961 . S
H1758 C1743 0.961 . S
H1759 C1743 0.961 . S
H1760 C1744 0.931 . S
H1761 C1749 0.930 . S
H1762 C1750 0.956 . S
H1763 C1750 0.961 . S
H1764 C1750 0.961 . S
H1765 C1751 0.958 . S
H1766 C1751 0.961 . S
H1767 C1751 0.960 . S
C1768 C1769 1.391 . S
C1768 C1770 1.394 . S
C1768 H1784 0.931 . S
C1769 C1768 1.391 . S
C1769 C1773 1.376 . S
C1770 C1768 1.394 . S
C1770 C1771 1.369 . S
C1770 C1774 1.531 . S
C1771 C1770 1.369 . S
C1771 C1772 1.410 . S
C1771 C1779 1.503 . S
C1772 C1771 1.410 . S
C1772 C1773 1.392 . S
C1772 C1775 1.511 . S
C1773 C1769 1.376 . S
C1773 C1772 1.392 . S
C1773 H1785 0.929 . S
C1774 C1770 1.531 . S
C1774 H1786 0.960 . S
C1774 H1787 0.962 . S
C1774 H1788 0.960 . S
C1775 C1772 1.511 . S
C1775 H1789 0.961 . S
C1775 H1790 0.961 . S
C1775 H1791 0.961 . S
C1776 C1777 1.370 . S
C1776 C1778 1.363 . S
C1776 H1792 0.931 . S
C1777 C1776 1.370 . S
C1777 C1781 1.408 . S
C1778 C1776 1.363 . S
C1778 C1779 1.370 . S
C1778 C1782 1.524 . S
C1779 C1771 1.503 . S
C1779 C1778 1.370 . S
C1779 C1780 1.403 . S
C1780 C1779 1.403 . S
C1780 C1781 1.404 . S
C1780 C1783 1.539 . S
C1781 C1777 1.408 . S
C1781 C1780 1.404 . S
C1781 H1793 0.930 . S
C1782 C1778 1.524 . S
C1782 H1794 0.956 . S
C1782 H1795 0.961 . S
C1782 H1796 0.961 . S
C1783 C1780 1.539 . S
C1783 H1797 0.958 . S
C1783 H1798 0.961 . S
C1783 H1799 0.960 . S
H1784 C1768 0.931 . S
H1785 C1773 0.929 . S
H1786 C1774 0.960 . S
H1787 C1774 0.962 . S
H1788 C1774 0.960 . S
H1789 C1775 0.961 . S
H1790 C1775 0.961 . S
H1791 C1775 0.961 . S
H1792 C1776 0.931 . S
H1793 C1781 0.930 . S
H1794 C1782 0.956 . S
H1795 C1782 0.961 . S
H1796 C1782 0.961 . S
H1797 C1783 0.958 . S
H1798 C1783 0.961 . S
H1799 C1783 0.960 . S
C1800 C1801 1.391 . S
C1800 C1802 1.394 . S
C1800 H1816 0.931 . S
C1801 C1800 1.391 . S
C1801 C1805 1.376 . S
C1802 C1800 1.394 . S
C1802 C1803 1.369 . S
C1802 C1806 1.531 . S
C1803 C1802 1.369 . S
C1803 C1804 1.410 . S
C1803 C1811 1.503 . S
C1804 C1803 1.410 . S
C1804 C1805 1.392 . S
C1804 C1807 1.511 1_655 S
C1805 C1801 1.376 . S
C1805 C1804 1.392 . S
C1805 H1817 0.929 1_556 S
C1806 C1802 1.531 . S
C1806 H1818 0.960 . S
C1806 H1819 0.962 . S
C1806 H1820 0.960 . S
C1807 C1804 1.511 1_455 S
C1807 H1821 0.961 . S
C1807 H1822 0.961 . S
C1807 H1823 0.961 . S
C1808 C1809 1.370 . S
C1808 C1810 1.363 . S
C1808 H1824 0.931 . S
C1809 C1808 1.370 . S
C1809 C1813 1.409 . S
C1810 C1808 1.363 . S
C1810 C1811 1.370 . S
C1810 C1814 1.524 . S
C1811 C1803 1.503 . S
C1811 C1810 1.370 . S
C1811 C1812 1.403 . S
C1812 C1811 1.403 . S
C1812 C1813 1.404 . S
C1812 C1815 1.539 1_655 S
C1813 C1809 1.409 . S
C1813 C1812 1.404 . S
C1813 H1825 0.930 1_655 S
C1814 C1810 1.524 . S
C1814 H1826 0.956 . S
C1814 H1827 0.961 . S
C1814 H1828 0.961 . S
C1815 C1812 1.539 1_455 S
C1815 H1829 0.958 . S
C1815 H1830 0.961 . S
C1815 H1831 0.960 . S
H1816 C1800 0.931 . S
H1817 C1805 0.929 1_554 S
H1818 C1806 0.960 . S
H1819 C1806 0.962 . S
H1820 C1806 0.960 . S
H1821 C1807 0.961 . S
H1822 C1807 0.961 . S
H1823 C1807 0.961 . S
H1824 C1808 0.931 . S
H1825 C1813 0.930 1_455 S
H1826 C1814 0.956 . S
H1827 C1814 0.961 . S
H1828 C1814 0.961 . S
H1829 C1815 0.958 . S
H1830 C1815 0.961 . S
H1831 C1815 0.960 . S
C1832 C1833 1.391 . S
C1832 C1834 1.394 . S
C1832 H1848 0.931 . S
C1833 C1832 1.391 . S
C1833 C1837 1.376 . S
C1834 C1832 1.394 . S
C1834 C1835 1.369 . S
C1834 C1838 1.531 . S
C1835 C1834 1.369 . S
C1835 C1836 1.410 . S
C1835 C1843 1.503 . S
C1836 C1835 1.410 . S
C1836 C1837 1.392 . S
C1836 C1839 1.511 . S
C1837 C1833 1.376 . S
C1837 C1836 1.392 . S
C1837 H1849 0.929 . S
C1838 C1834 1.531 . S
C1838 H1850 0.960 . S
C1838 H1851 0.962 . S
C1838 H1852 0.960 . S
C1839 C1836 1.511 . S
C1839 H1853 0.961 . S
C1839 H1854 0.961 . S
C1839 H1855 0.961 . S
C1840 C1841 1.370 . S
C1840 C1842 1.363 . S
C1840 H1856 0.931 . S
C1841 C1840 1.370 . S
C1841 C1845 1.408 . S
C1842 C1840 1.363 . S
C1842 C1843 1.370 . S
C1842 C1846 1.524 . S
C1843 C1835 1.503 . S
C1843 C1842 1.370 . S
C1843 C1844 1.403 . S
C1844 C1843 1.403 . S
C1844 C1845 1.404 . S
C1844 C1847 1.539 . S
C1845 C1841 1.408 . S
C1845 C1844 1.404 . S
C1845 H1857 0.930 . S
C1846 C1842 1.524 . S
C1846 H1858 0.956 . S
C1846 H1859 0.961 . S
C1846 H1860 0.961 . S
C1847 C1844 1.539 . S
C1847 H1861 0.958 . S
C1847 H1862 0.961 . S
C1847 H1863 0.960 . S
H1848 C1832 0.931 . S
H1849 C1837 0.929 . S
H1850 C1838 0.960 . S
H1851 C1838 0.962 . S
H1852 C1838 0.960 . S
H1853 C1839 0.961 . S
H1854 C1839 0.961 . S
H1855 C1839 0.961 . S
H1856 C1840 0.931 . S
H1857 C1845 0.930 . S
H1858 C1846 0.956 . S
H1859 C1846 0.961 . S
H1860 C1846 0.961 . S
H1861 C1847 0.958 . S
H1862 C1847 0.961 . S
H1863 C1847 0.960 . S
C1864 C1865 1.391 . S
C1864 C1866 1.394 . S
C1864 H1880 0.931 . S
C1865 C1864 1.391 . S
C1865 C1869 1.376 . S
C1866 C1864 1.394 . S
C1866 C1867 1.369 . S
C1866 C1870 1.531 . S
C1867 C1866 1.369 . S
C1867 C1868 1.410 . S
C1867 C1875 1.503 . S
C1868 C1867 1.410 . S
C1868 C1869 1.392 . S
C1868 C1871 1.511 1_455 S
C1869 C1865 1.376 . S
C1869 C1868 1.392 . S
C1869 H1881 0.929 1_455 S
C1870 C1866 1.531 . S
C1870 H1882 0.960 . S
C1870 H1883 0.962 . S
C1870 H1884 0.960 . S
C1871 C1868 1.511 1_655 S
C1871 H1885 0.961 . S
C1871 H1886 0.961 . S
C1871 H1887 0.961 . S
C1872 C1873 1.370 . S
C1872 C1874 1.363 . S
C1872 H1888 0.931 . S
C1873 C1872 1.370 . S
C1873 C1877 1.408 . S
C1874 C1872 1.363 . S
C1874 C1875 1.370 . S
C1874 C1878 1.524 . S
C1875 C1867 1.503 . S
C1875 C1874 1.370 . S
C1875 C1876 1.403 . S
C1876 C1875 1.403 . S
C1876 C1877 1.404 . S
C1876 C1879 1.539 . S
C1877 C1873 1.408 . S
C1877 C1876 1.404 . S
C1877 H1889 0.930 . S
C1878 C1874 1.524 . S
C1878 H1890 0.956 . S
C1878 H1891 0.961 . S
C1878 H1892 0.961 . S
C1879 C1876 1.539 . S
C1879 H1893 0.958 . S
C1879 H1894 0.961 1_455 S
C1879 H1895 0.958 . S
H1880 C1864 0.931 . S
H1881 C1869 0.929 1_655 S
H1882 C1870 0.960 . S
H1883 C1870 0.962 . S
H1884 C1870 0.960 . S
H1885 C1871 0.961 . S
H1886 C1871 0.961 . S
H1887 C1871 0.961 . S
H1888 C1872 0.931 . S
H1889 C1877 0.930 . S
H1890 C1878 0.956 . S
H1891 C1878 0.961 . S
H1892 C1878 0.961 . S
H1893 C1879 0.958 . S
H1894 C1879 0.961 1_655 S
H1895 C1879 0.958 . S
C1896 C1897 1.391 . S
C1896 C1898 1.394 . S
C1896 H1912 0.931 . S
C1897 C1896 1.391 . S
C1897 C1901 1.376 . S
C1898 C1896 1.394 . S
C1898 C1899 1.369 . S
C1898 C1902 1.531 . S
C1899 C1898 1.369 . S
C1899 C1900 1.410 . S
C1899 C1907 1.503 . S
C1900 C1899 1.410 . S
C1900 C1901 1.392 . S
C1900 C1903 1.511 . S
C1901 C1897 1.376 . S
C1901 C1900 1.392 . S
C1901 H1913 0.929 . S
C1902 C1898 1.531 . S
C1902 H1914 0.960 . S
C1902 H1915 0.962 . S
C1902 H1916 0.960 . S
C1903 C1900 1.511 . S
C1903 H1917 0.961 . S
C1903 H1918 0.961 . S
C1903 H1919 0.961 . S
C1904 C1905 1.370 . S
C1904 C1906 1.363 . S
C1904 H1920 0.931 . S
C1905 C1904 1.370 . S
C1905 C1909 1.408 . S
C1906 C1904 1.363 . S
C1906 C1907 1.370 . S
C1906 C1910 1.524 . S
C1907 C1899 1.503 . S
C1907 C1906 1.370 . S
C1907 C1908 1.403 . S
C1908 C1907 1.403 . S
C1908 C1909 1.404 . S
C1908 C1911 1.539 . S
C1909 C1905 1.408 . S
C1909 C1908 1.404 . S
C1909 H1921 0.930 . S
C1910 C1906 1.524 . S
C1910 H1922 0.956 . S
C1910 H1923 0.961 . S
C1910 H1924 0.961 . S
C1911 C1908 1.539 . S
C1911 H1925 0.958 . S
C1911 H1926 0.961 . S
C1911 H1927 0.960 . S
H1912 C1896 0.931 . S
H1913 C1901 0.929 . S
H1914 C1902 0.960 . S
H1915 C1902 0.962 . S
H1916 C1902 0.960 . S
H1917 C1903 0.961 . S
H1918 C1903 0.961 . S
H1919 C1903 0.961 . S
H1920 C1904 0.931 . S
H1921 C1909 0.930 . S
H1922 C1910 0.956 . S
H1923 C1910 0.961 . S
H1924 C1910 0.961 . S
H1925 C1911 0.958 . S
H1926 C1911 0.961 . S
H1927 C1911 0.960 . S
C1928 C1929 1.391 . S
C1928 C1930 1.394 . S
C1928 H1944 0.973 . S
C1929 C1928 1.391 . S
C1929 C1933 1.376 . S
C1930 C1928 1.394 . S
C1930 C1931 1.369 . S
C1930 C1934 1.531 . S
C1931 C1930 1.369 . S
C1931 C1932 1.410 . S
C1931 C1939 1.503 . S
C1932 C1931 1.410 . S
C1932 C1933 1.392 . S
C1932 C1935 1.511 . S
C1933 C1929 1.376 . S
C1933 C1932 1.392 . S
C1933 H1945 0.929 . S
C1934 C1930 1.531 . S
C1934 H1946 0.960 . S
C1934 H1947 0.962 . S
C1934 H1948 0.960 . S
C1935 C1932 1.511 . S
C1935 H1949 0.961 . S
C1935 H1950 0.961 . S
C1935 H1951 0.961 . S
C1936 C1937 1.370 . S
C1936 C1938 1.363 . S
C1936 H1952 0.931 . S
C1937 C1936 1.370 . S
C1937 C1941 1.408 . S
C1938 C1936 1.363 . S
C1938 C1939 1.370 . S
C1938 C1942 1.524 . S
C1939 C1931 1.503 . S
C1939 C1938 1.370 . S
C1939 C1940 1.403 . S
C1940 C1939 1.403 . S
C1940 C1941 1.404 . S
C1940 C1943 1.539 . S
C1941 C1937 1.408 . S
C1941 C1940 1.404 . S
C1941 H1953 0.930 . S
C1942 C1938 1.524 . S
C1942 H1954 0.956 . S
C1942 H1955 0.961 . S
C1942 H1956 0.961 . S
C1943 C1940 1.539 . S
C1943 H1957 0.958 . S
C1943 H1958 0.961 . S
C1943 H1959 0.960 . S
H1944 C1928 0.973 . S
H1945 C1933 0.929 . S
H1946 C1934 0.960 . S
H1947 C1934 0.962 . S
H1948 C1934 0.960 . S
H1949 C1935 0.961 . S
H1950 C1935 0.961 . S
H1951 C1935 0.961 . S
H1952 C1936 0.931 . S
H1953 C1941 0.930 . S
H1954 C1942 0.956 . S
H1955 C1942 0.961 . S
H1956 C1942 0.961 . S
H1957 C1943 0.958 . S
H1958 C1943 0.961 . S
H1959 C1943 0.960 . S
C1960 C1961 1.391 . S
C1960 C1962 1.394 . S
C1960 H1976 0.931 . S
C1961 C1960 1.391 . S
C1961 C1965 1.376 . S
C1962 C1960 1.394 . S
C1962 C1963 1.369 . S
C1962 C1966 1.531 . S
C1963 C1962 1.369 . S
C1963 C1964 1.410 . S
C1963 C1971 1.503 . S
C1964 C1963 1.410 . S
C1964 C1965 1.392 . S
C1964 C1967 1.511 . S
C1965 C1961 1.376 . S
C1965 C1964 1.392 . S
C1965 H1977 0.929 . S
C1966 C1962 1.531 . S
C1966 H1978 0.960 . S
C1966 H1979 0.962 . S
C1966 H1980 0.960 . S
C1967 C1964 1.511 . S
C1967 H1981 0.961 . S
C1967 H1982 0.961 . S
C1967 H1983 0.961 . S
C1968 C1969 1.370 . S
C1968 C1970 1.363 . S
C1968 H1984 0.931 . S
C1969 C1968 1.370 . S
C1969 C1973 1.408 . S
C1970 C1968 1.363 . S
C1970 C1971 1.370 . S
C1970 C1974 1.524 . S
C1971 C1963 1.503 . S
C1971 C1970 1.370 . S
C1971 C1972 1.403 . S
C1972 C1971 1.403 . S
C1972 C1973 1.404 . S
C1972 C1975 1.539 . S
C1973 C1969 1.408 . S
C1973 C1972 1.404 . S
C1973 H1985 0.930 . S
C1974 C1970 1.524 . S
C1974 H1986 0.956 . S
C1974 H1987 0.961 . S
C1974 H1988 0.961 . S
C1975 C1972 1.539 . S
C1975 H1989 0.958 . S
C1975 H1990 0.961 . S
C1975 H1991 0.960 . S
H1976 C1960 0.931 . S
H1977 C1965 0.929 . S
H1978 C1966 0.960 . S
H1979 C1966 0.962 . S
H1980 C1966 0.960 . S
H1981 C1967 0.961 . S
H1982 C1967 0.961 . S
H1983 C1967 0.961 . S
H1984 C1968 0.931 . S
H1985 C1973 0.930 . S
H1986 C1974 0.956 . S
H1987 C1974 0.961 . S
H1988 C1974 0.961 . S
H1989 C1975 0.958 . S
H1990 C1975 0.961 . S
H1991 C1975 0.960 . S
C1992 C1993 1.391 . S
C1992 C1994 1.394 . S
C1992 H2008 0.931 . S
C1993 C1992 1.391 . S
C1993 C1997 1.376 . S
C1994 C1992 1.394 . S
C1994 C1995 1.369 . S
C1994 C1998 1.531 . S
C1995 C1994 1.369 . S
C1995 C1996 1.410 . S
C1995 C2003 1.503 . S
C1996 C1995 1.410 . S
C1996 C1997 1.392 . S
C1996 C1999 1.511 . S
C1997 C1993 1.376 . S
C1997 C1996 1.392 . S
C1997 H2009 0.929 . S
C1998 C1994 1.531 . S
C1998 H2010 0.960 . S
C1998 H2011 0.962 . S
C1998 H2012 0.960 . S
C1999 C1996 1.511 . S
C1999 H2013 0.961 . S
C1999 H2014 0.961 . S
C1999 H2015 0.961 . S
C2000 C2001 1.370 . S
C2000 C2002 1.363 . S
C2000 H2016 0.931 . S
C2001 C2000 1.370 . S
C2001 C2005 1.408 . S
C2002 C2000 1.363 . S
C2002 C2003 1.370 . S
C2002 C2006 1.524 . S
C2003 C1995 1.503 . S
C2003 C2002 1.370 . S
C2003 C2004 1.403 . S
C2004 C2003 1.403 . S
C2004 C2005 1.404 . S
C2004 C2007 1.539 . S
C2005 C2001 1.408 . S
C2005 C2004 1.404 . S
C2005 H2017 0.930 . S
C2006 C2002 1.524 . S
C2006 H2018 0.956 . S
C2006 H2019 0.961 . S
C2006 H2020 0.961 . S
C2007 C2004 1.539 . S
C2007 H2021 0.958 . S
C2007 H2022 0.961 . S
C2007 H2023 0.960 . S
H2008 C1992 0.931 . S
H2009 C1997 0.929 . S
H2010 C1998 0.960 . S
H2011 C1998 0.962 . S
H2012 C1998 0.960 . S
H2013 C1999 0.961 . S
H2014 C1999 0.961 . S
H2015 C1999 0.961 . S
H2016 C2000 0.931 . S
H2017 C2005 0.930 . S
H2018 C2006 0.956 . S
H2019 C2006 0.961 . S
H2020 C2006 0.961 . S
H2021 C2007 0.958 . S
H2022 C2007 0.961 . S
H2023 C2007 0.960 . S
C2024 C2025 1.391 . S
C2024 C2026 1.394 . S
C2024 H2040 0.931 . S
C2025 C2024 1.391 . S
C2025 C2029 1.376 . S
C2026 C2024 1.394 . S
C2026 C2027 1.369 . S
C2026 C2030 1.531 . S
C2027 C2026 1.369 . S
C2027 C2028 1.410 . S
C2027 C2035 1.503 . S
C2028 C2027 1.410 . S
C2028 C2029 1.392 . S
C2028 C2031 1.511 . S
C2029 C2025 1.376 . S
C2029 C2028 1.392 . S
C2029 H2041 0.929 . S
C2030 C2026 1.531 . S
C2030 H2042 0.960 . S
C2030 H2043 0.962 . S
C2030 H2044 0.960 . S
C2031 C2028 1.511 . S
C2031 H2045 0.961 . S
C2031 H2046 0.961 . S
C2031 H2047 0.961 . S
C2032 C2033 1.370 . S
C2032 C2034 1.363 . S
C2032 H2048 0.931 . S
C2033 C2032 1.370 . S
C2033 C2037 1.408 . S
C2034 C2032 1.363 . S
C2034 C2035 1.370 . S
C2034 C2038 1.524 . S
C2035 C2027 1.503 . S
C2035 C2034 1.370 . S
C2035 C2036 1.403 . S
C2036 C2035 1.403 . S
C2036 C2037 1.404 . S
C2036 C2039 1.539 . S
C2037 C2033 1.408 . S
C2037 C2036 1.404 . S
C2037 H2049 0.930 . S
C2038 C2034 1.524 . S
C2038 H2050 0.956 . S
C2038 H2051 0.961 . S
C2038 H2052 0.961 . S
C2039 C2036 1.539 . S
C2039 H2053 0.958 . S
C2039 H2054 0.961 . S
C2039 H2055 0.960 . S
H2040 C2024 0.931 . S
H2041 C2029 0.929 . S
H2042 C2030 0.960 . S
H2043 C2030 0.962 . S
H2044 C2030 0.960 . S
H2045 C2031 0.961 . S
H2046 C2031 0.961 . S
H2047 C2031 0.961 . S
H2048 C2032 0.931 . S
H2049 C2037 0.930 . S
H2050 C2038 0.956 . S
H2051 C2038 0.961 . S
H2052 C2038 0.961 . S
H2053 C2039 0.958 . S
H2054 C2039 0.961 . S
H2055 C2039 0.960 . S
C2056 C2057 1.391 . S
C2056 C2058 1.394 . S
C2056 H2072 0.931 . S
C2057 C2056 1.391 . S
C2057 C2061 1.376 . S
C2058 C2056 1.394 . S
C2058 C2059 1.369 . S
C2058 C2062 1.531 . S
C2059 C2058 1.369 . S
C2059 C2060 1.410 . S
C2059 C2067 1.503 . S
C2060 C2059 1.410 . S
C2060 C2061 1.392 . S
C2060 C2063 1.511 . S
C2061 C2057 1.376 . S
C2061 C2060 1.392 . S
C2061 H2073 0.929 . S
C2062 C2058 1.531 . S
C2062 H2074 0.960 . S
C2062 H2075 0.962 . S
C2062 H2076 0.960 . S
C2063 C2060 1.511 . S
C2063 H2077 0.961 . S
C2063 H2078 0.961 . S
C2063 H2079 0.961 . S
C2064 C2065 1.370 . S
C2064 C2066 1.363 . S
C2064 H2080 0.931 . S
C2065 C2064 1.370 . S
C2065 C2069 1.408 . S
C2066 C2064 1.363 . S
C2066 C2067 1.370 . S
C2066 C2070 1.524 . S
C2067 C2059 1.503 . S
C2067 C2066 1.370 . S
C2067 C2068 1.403 . S
C2068 C2067 1.403 . S
C2068 C2069 1.404 . S
C2068 C2071 1.539 . S
C2069 C2065 1.408 . S
C2069 C2068 1.404 . S
C2069 H2081 0.930 . S
C2070 C2066 1.524 . S
C2070 H2082 0.956 . S
C2070 H2083 0.961 . S
C2070 H2084 0.961 . S
C2071 C2068 1.539 . S
C2071 H2085 0.958 . S
C2071 H2086 0.961 . S
C2071 H2087 0.960 . S
H2072 C2056 0.931 . S
H2073 C2061 0.929 . S
H2074 C2062 0.960 . S
H2075 C2062 0.962 . S
H2076 C2062 0.960 . S
H2077 C2063 0.961 . S
H2078 C2063 0.961 . S
H2079 C2063 0.961 . S
H2080 C2064 0.931 . S
H2081 C2069 0.930 . S
H2082 C2070 0.956 . S
H2083 C2070 0.961 . S
H2084 C2070 0.961 . S
H2085 C2071 0.958 . S
H2086 C2071 0.961 . S
H2087 C2071 0.960 . S
C2088 C2089 1.391 . S
C2088 C2090 1.394 . S
C2088 H2104 0.931 . S
C2089 C2088 1.391 . S
C2089 C2093 1.376 . S
C2090 C2088 1.394 . S
C2090 C2091 1.369 . S
C2090 C2094 1.531 . S
C2091 C2090 1.369 . S
C2091 C2092 1.410 . S
C2091 C2099 1.503 . S
C2092 C2091 1.410 . S
C2092 C2093 1.392 . S
C2092 C2095 1.511 . S
C2093 C2089 1.376 . S
C2093 C2092 1.392 . S
C2093 H2105 0.929 . S
C2094 C2090 1.531 . S
C2094 H2106 0.960 . S
C2094 H2107 0.962 . S
C2094 H2108 0.960 . S
C2095 C2092 1.511 . S
C2095 H2109 0.961 . S
C2095 H2110 0.961 . S
C2095 H2111 0.961 . S
C2096 C2097 1.370 . S
C2096 C2098 1.363 . S
C2096 H2112 0.931 . S
C2097 C2096 1.370 . S
C2097 C2101 1.408 . S
C2098 C2096 1.363 . S
C2098 C2099 1.370 . S
C2098 C2102 1.524 . S
C2099 C2091 1.503 . S
C2099 C2098 1.370 . S
C2099 C2100 1.403 . S
C2100 C2099 1.403 . S
C2100 C2101 1.404 . S
C2100 C2103 1.539 . S
C2101 C2097 1.408 . S
C2101 C2100 1.404 . S
C2101 H2113 0.930 . S
C2102 C2098 1.524 . S
C2102 H2114 0.956 . S
C2102 H2115 0.961 . S
C2102 H2116 0.961 . S
C2103 C2100 1.539 . S
C2103 H2117 0.958 . S
C2103 H2118 0.961 . S
C2103 H2119 0.960 . S
H2104 C2088 0.931 . S
H2105 C2093 0.929 . S
H2106 C2094 0.960 . S
H2107 C2094 0.962 . S
H2108 C2094 0.960 . S
H2109 C2095 0.961 . S
H2110 C2095 0.961 . S
H2111 C2095 0.961 . S
H2112 C2096 0.931 . S
H2113 C2101 0.930 . S
H2114 C2102 0.956 . S
H2115 C2102 0.961 . S
H2116 C2102 0.961 . S
H2117 C2103 0.958 . S
H2118 C2103 0.961 . S
H2119 C2103 0.960 . S
C2120 C2121 1.391 . S
C2120 C2122 1.394 . S
C2120 H2136 0.931 . S
C2121 C2120 1.391 . S
C2121 C2125 1.376 . S
C2122 C2120 1.394 . S
C2122 C2123 1.369 . S
C2122 C2126 1.531 . S
C2123 C2122 1.369 . S
C2123 C2124 1.410 . S
C2123 C2131 1.503 . S
C2124 C2123 1.410 . S
C2124 C2125 1.392 . S
C2124 C2127 1.511 . S
C2125 C2121 1.376 . S
C2125 C2124 1.392 . S
C2125 H2137 0.929 . S
C2126 C2122 1.531 . S
C2126 H2138 0.960 . S
C2126 H2139 0.962 . S
C2126 H2140 0.960 . S
C2127 C2124 1.511 . S
C2127 H2141 0.961 . S
C2127 H2142 0.961 . S
C2127 H2143 0.961 . S
C2128 C2129 1.370 . S
C2128 C2130 1.363 . S
C2128 H2144 0.931 . S
C2129 C2128 1.370 . S
C2129 C2133 1.408 . S
C2130 C2128 1.363 . S
C2130 C2131 1.370 . S
C2130 C2134 1.524 . S
C2131 C2123 1.503 . S
C2131 C2130 1.370 . S
C2131 C2132 1.403 . S
C2132 C2131 1.403 . S
C2132 C2133 1.404 . S
C2132 C2135 1.539 . S
C2133 C2129 1.408 . S
C2133 C2132 1.404 . S
C2133 H2145 0.930 . S
C2134 C2130 1.524 . S
C2134 H2146 0.956 . S
C2134 H2147 0.961 . S
C2134 H2148 0.961 . S
C2135 C2132 1.539 . S
C2135 H2149 0.958 . S
C2135 H2150 0.961 . S
C2135 H2151 0.960 . S
H2136 C2120 0.931 . S
H2137 C2125 0.929 . S
H2138 C2126 0.960 . S
H2139 C2126 0.962 . S
H2140 C2126 0.960 . S
H2141 C2127 0.961 . S
H2142 C2127 0.961 . S
H2143 C2127 0.961 . S
H2144 C2128 0.931 . S
H2145 C2133 0.930 . S
H2146 C2134 0.956 . S
H2147 C2134 0.961 . S
H2148 C2134 0.961 . S
H2149 C2135 0.958 . S
H2150 C2135 0.961 . S
H2151 C2135 0.960 . S
C2152 C2153 1.391 . S
C2152 C2154 1.394 . S
C2152 H2168 0.931 . S
C2153 C2152 1.391 . S
C2153 C2157 1.376 . S
C2154 C2152 1.394 . S
C2154 C2155 1.369 . S
C2154 C2158 1.553 . S
C2155 C2154 1.369 . S
C2155 C2156 1.410 . S
C2155 C2163 1.503 . S
C2156 C2155 1.410 . S
C2156 C2157 1.392 . S
C2156 C2159 1.511 . S
C2157 C2153 1.376 . S
C2157 C2156 1.392 . S
C2157 H2169 0.929 . S
C2158 C2154 1.553 . S
C2158 H2170 0.929 1_556 S
C2158 H2171 1.004 . S
C2158 H2172 0.931 1_556 S
C2159 C2156 1.511 . S
C2159 H2173 0.961 . S
C2159 H2174 0.961 . S
C2159 H2175 0.961 . S
C2160 C2161 1.370 . S
C2160 C2162 1.363 . S
C2160 H2176 0.931 . S
C2161 C2160 1.370 . S
C2161 C2165 1.408 1_556 S
C2162 C2160 1.363 . S
C2162 C2163 1.370 . S
C2162 C2166 1.524 . S
C2163 C2155 1.503 . S
C2163 C2162 1.370 . S
C2163 C2164 1.403 1_556 S
C2164 C2163 1.403 1_554 S
C2164 C2165 1.404 . S
C2164 C2167 1.539 . S
C2165 C2161 1.408 1_554 S
C2165 C2164 1.404 . S
C2165 H2177 0.930 . S
C2166 C2162 1.524 . S
C2166 H2178 0.956 . S
C2166 H2179 0.961 . S
C2166 H2180 0.961 . S
C2167 C2164 1.539 . S
C2167 H2181 0.958 . S
C2167 H2182 0.961 . S
C2167 H2183 0.960 . S
H2168 C2152 0.931 . S
H2169 C2157 0.929 . S
H2170 C2158 0.929 1_554 S
H2171 C2158 1.004 . S
H2172 C2158 0.931 1_554 S
H2173 C2159 0.961 . S
H2174 C2159 0.961 . S
H2175 C2159 0.961 . S
H2176 C2160 0.931 . S
H2177 C2165 0.930 . S
H2178 C2166 0.956 . S
H2179 C2166 0.961 . S
H2180 C2166 0.961 . S
H2181 C2167 0.958 . S
H2182 C2167 0.961 . S
H2183 C2167 0.960 . S
C2184 C2185 1.391 . S
C2184 C2186 1.394 . S
C2184 H2200 0.931 . S
C2185 C2184 1.391 . S
C2185 C2189 1.376 . S
C2186 C2184 1.394 . S
C2186 C2187 1.369 . S
C2186 C2190 1.531 . S
C2187 C2186 1.369 . S
C2187 C2188 1.410 . S
C2187 C2195 1.503 . S
C2188 C2187 1.410 . S
C2188 C2189 1.392 . S
C2188 C2191 1.511 . S
C2189 C2185 1.376 . S
C2189 C2188 1.392 . S
C2189 H2201 0.929 . S
C2190 C2186 1.531 . S
C2190 H2202 0.960 . S
C2190 H2203 0.962 . S
C2190 H2204 0.960 . S
C2191 C2188 1.511 . S
C2191 H2205 0.961 . S
C2191 H2206 0.961 . S
C2191 H2207 0.961 . S
C2192 C2193 1.370 . S
C2192 C2194 1.363 . S
C2192 H2208 0.931 . S
C2193 C2192 1.370 . S
C2193 C2197 1.408 . S
C2194 C2192 1.363 . S
C2194 C2195 1.370 . S
C2194 C2198 1.524 . S
C2195 C2187 1.503 . S
C2195 C2194 1.370 . S
C2195 C2196 1.403 . S
C2196 C2195 1.403 . S
C2196 C2197 1.404 . S
C2196 C2199 1.539 . S
C2197 C2193 1.408 . S
C2197 C2196 1.404 . S
C2197 H2209 0.930 . S
C2198 C2194 1.524 . S
C2198 H2210 0.956 . S
C2198 H2211 0.961 . S
C2198 H2212 0.961 . S
C2199 C2196 1.539 . S
C2199 H2213 0.958 . S
C2199 H2214 0.961 . S
C2199 H2215 0.960 . S
H2200 C2184 0.931 . S
H2201 C2189 0.929 . S
H2202 C2190 0.960 . S
H2203 C2190 0.962 . S
H2204 C2190 0.960 . S
H2205 C2191 0.961 . S
H2206 C2191 0.961 . S
H2207 C2191 0.961 . S
H2208 C2192 0.931 . S
H2209 C2197 0.930 . S
H2210 C2198 0.956 . S
H2211 C2198 0.961 . S
H2212 C2198 0.961 . S
H2213 C2199 0.958 . S
H2214 C2199 0.961 . S
H2215 C2199 0.960 . S
C2216 C2217 1.391 . S
C2216 C2218 1.394 . S
C2216 H2232 0.931 . S
C2217 C2216 1.391 . S
C2217 C2221 1.376 . S
C2218 C2216 1.394 . S
C2218 C2219 1.369 . S
C2218 C2222 1.531 . S
C2219 C2218 1.369 . S
C2219 C2220 1.410 . S
C2219 C2227 1.503 . S
C2220 C2219 1.410 . S
C2220 C2221 1.392 . S
C2220 C2223 1.511 . S
C2221 C2217 1.376 . S
C2221 C2220 1.392 . S
C2221 H2233 0.929 . S
C2222 C2218 1.531 . S
C2222 H2234 0.960 . S
C2222 H2235 0.962 . S
C2222 H2236 0.960 . S
C2223 C2220 1.511 . S
C2223 H2237 0.961 . S
C2223 H2238 0.961 . S
C2223 H2239 0.961 . S
C2224 C2225 1.370 . S
C2224 C2226 1.363 . S
C2224 H2240 0.931 1_554 S
C2225 C2224 1.370 . S
C2225 C2229 1.408 . S
C2226 C2224 1.363 . S
C2226 C2227 1.370 . S
C2226 C2230 1.524 1_554 S
C2227 C2219 1.503 . S
C2227 C2226 1.370 . S
C2227 C2228 1.403 . S
C2228 C2227 1.403 . S
C2228 C2229 1.404 . S
C2228 C2231 1.539 . S
C2229 C2225 1.408 . S
C2229 C2228 1.404 . S
C2229 H2241 0.930 . S
C2230 C2226 1.524 1_556 S
C2230 H2242 0.973 . S
C2230 H2243 0.961 . S
C2230 H2244 0.961 . S
C2231 C2228 1.539 . S
C2231 H2245 0.958 . S
C2231 H2246 0.961 . S
C2231 H2247 0.960 . S
H2232 C2216 0.931 . S
H2233 C2221 0.929 . S
H2234 C2222 0.960 . S
H2235 C2222 0.962 . S
H2236 C2222 0.960 . S
H2237 C2223 0.961 . S
H2238 C2223 0.961 . S
H2239 C2223 0.961 . S
H2240 C2224 0.931 1_556 S
H2241 C2229 0.930 . S
H2242 C2230 0.973 . S
H2243 C2230 0.961 . S
H2244 C2230 0.961 . S
H2245 C2231 0.958 . S
H2246 C2231 0.961 . S
H2247 C2231 0.960 . S
C2248 C2249 1.391 . S
C2248 C2250 1.394 . S
C2248 H2264 0.931 . S
C2249 C2248 1.391 . S
C2249 C2253 1.376 . S
C2250 C2248 1.394 . S
C2250 C2251 1.369 . S
C2250 C2254 1.531 . S
C2251 C2250 1.369 . S
C2251 C2252 1.410 . S
C2251 C2259 1.503 . S
C2252 C2251 1.410 . S
C2252 C2253 1.392 . S
C2252 C2255 1.511 . S
C2253 C2249 1.376 . S
C2253 C2252 1.392 . S
C2253 H2265 0.923 . S
C2254 C2250 1.531 . S
C2254 H2266 0.960 . S
C2254 H2267 0.962 . S
C2254 H2268 0.960 . S
C2255 C2252 1.511 . S
C2255 H2269 0.961 . S
C2255 H2270 0.961 . S
C2255 H2271 0.961 1_554 S
C2256 C2257 1.370 . S
C2256 C2258 1.363 . S
C2256 H2272 0.931 . S
C2257 C2256 1.370 . S
C2257 C2261 1.408 1_554 S
C2258 C2256 1.363 . S
C2258 C2259 1.370 . S
C2258 C2262 1.524 . S
C2259 C2251 1.503 . S
C2259 C2258 1.370 . S
C2259 C2260 1.403 1_554 S
C2260 C2259 1.403 1_556 S
C2260 C2261 1.404 . S
C2260 C2263 1.539 . S
C2261 C2257 1.408 1_556 S
C2261 C2260 1.404 . S
C2261 H2273 0.930 . S
C2262 C2258 1.524 . S
C2262 H2274 0.956 . S
C2262 H2275 0.961 . S
C2262 H2276 0.961 . S
C2263 C2260 1.539 . S
C2263 H2277 0.958 . S
C2263 H2278 0.961 . S
C2263 H2279 0.960 . S
H2264 C2248 0.931 . S
H2265 C2253 0.923 . S
H2266 C2254 0.960 . S
H2267 C2254 0.962 . S
H2268 C2254 0.960 . S
H2269 C2255 0.961 . S
H2270 C2255 0.961 . S
H2271 C2255 0.961 1_556 S
H2272 C2256 0.931 . S
H2273 C2261 0.930 . S
H2274 C2262 0.956 . S
H2275 C2262 0.961 . S
H2276 C2262 0.961 . S
H2277 C2263 0.958 . S
H2278 C2263 0.961 . S
H2279 C2263 0.960 . S
C753 C584 1.483 . S
C745 C181 1.499 . S
C785 C597 1.482 . S
C777 C247 1.469 . S
C809 C283 1.658 . S
C817 C617 1.532 . S
C849 C631 1.364 . S
C841 C169 1.444 1_655 S
C881 C643 1.519 . S
C873 C361 1.515 . S
C913 C657 1.419 . S
C905 C433 1.419 . S
C937 C421 1.489 . S
C945 C667 1.480 . S
C977 C682 1.512 . S
C969 C355 1.542 . S
C1001 C427 1.521 . S
C1009 C696 1.503 . S
C1041 C715 1.357 . S
C1033 C325 1.422 . S
C1065 C385 1.491 . S
C1073 C695 1.488 . S
C1105 C713 1.429 . S
C1097 C463 1.428 . S
C1129 C253 1.662 . S
C1137 C729 1.549 . S
C1161 C145 1.482 . S
C1169 C723 1.483 . S
C1193 C205 1.492 . S
C1201 C727 1.500 . S
C1225 C217 1.534 . S
C1233 C724 1.495 . S
C1257 C139 1.522 . S
C1265 C626 1.498 . S
C1289 C535 1.486 . S
C1297 C625 1.486 . S
C1329 C589 1.352 . S
C1321 C565 1.388 1_565 S
C1361 C603 1.533 . S
C1353 C313 1.650 . S
C1385 C175 1.549 . S
C1393 C640 1.515 . S
C1425 C685 1.511 . S
C1417 C397 1.512 . S
C1457 C639 1.484 . S
C1449 C349 1.464 . S
C1489 C671 1.434 . S
C1481 C457 1.413 . S
C1521 C668 1.472 . S
C1513 C505 1.510 . S
C1545 C571 1.467 . S
C1553 C681 1.482 . S
C1577 C319 1.644 . S
C1585 C645 1.557 . S
C1617 C659 1.385 . S
C1609 C493 1.433 . S
C1641 C109 1.520 . S
C1649 C615 1.513 . S
C1681 C629 1.419 . S
C1673 C1 1.421 . S
C1713 C583 1.474 . S
C1705 C61 1.482 . S
C1745 C598 1.529 . S
C1737 C103 1.528 . S
C1769 C67 1.530 . S
C1777 C710 1.492 . S
C1801 C73 1.422 1_556 S
C1809 C701 1.362 . S
C1833 C133 1.479 . S
C1841 C709 1.480 . S
C1865 C31 1.432 . S
C1873 C699 1.426 . S
C1905 C743 1.555 . S
C1897 C289 1.658 . S
C1937 C737 1.487 . S
C1929 C469 1.488 . S
C1969 C741 1.496 . S
C1961 C529 1.501 . S
C1993 C541 1.512 . S
C2001 C738 1.511 . S
C2025 C391 1.514 . S
C2033 C654 1.509 . S
C2065 C653 1.478 . S
C2057 C211 1.477 . S
C2097 C673 1.369 . S
C2089 C241 1.421 . S
C2129 C687 1.551 . S
C2121 C277 1.614 . S
C2153 C499 1.555 . S
C2161 C612 1.532 . S
C2193 C601 1.515 . S
C2185 C37 1.507 . S
C2217 C97 1.473 . S
C2225 C611 1.486 . S
C2257 C587 1.433 . S
C2249 C25 1.430 . S
