# Generated by pormake.
# Topology zzz, (3,6)-cn, num edge types: 1
# Building blocks:
#     Node 0, Type 0, BuildingBlock: MIDCAF_clean_linker_0, # of connection points: 3
#     Node 1, Type 0, BuildingBlock: MIDCAF_clean_linker_0, # of connection points: 3
#     Node 2, Type 0, BuildingBlock: MIDCAF_clean_linker_0, # of connection points: 3
#     Node 3, Type 0, BuildingBlock: MIDCAF_clean_linker_0, # of connection points: 3
#     Node 4, Type 0, BuildingBlock: MIDCAF_clean_linker_0, # of connection points: 3
#     Node 5, Type 0, BuildingBlock: MIDCAF_clean_linker_0, # of connection points: 3
#     Node 6, Type 0, BuildingBlock: MIDCAF_clean_linker_0, # of connection points: 3
#     Node 7, Type 0, BuildingBlock: MIDCAF_clean_linker_0, # of connection points: 3
#     Node 8, Type 1, BuildingBlock: INOVEN_clean_sbu_0, # of connection points: 6
#     Node 9, Type 1, BuildingBlock: INOVEN_clean_sbu_0, # of connection points: 6
#     Node 10, Type 1, BuildingBlock: INOVEN_clean_sbu_0, # of connection points: 6
#     Node 11, Type 1, BuildingBlock: INOVEN_clean_sbu_0, # of connection points: 6
#     Edge 12, Type (0, 1), BuildingBlock: ZUJKAS_clean_linker_0, # of connection points: 2
#     Edge 13, Type (0, 1), BuildingBlock: ZUJKAS_clean_linker_0, # of connection points: 2
#     Edge 14, Type (0, 1), BuildingBlock: ZUJKAS_clean_linker_0, # of connection points: 2
#     Edge 15, Type (0, 1), BuildingBlock: ZUJKAS_clean_linker_0, # of connection points: 2
#     Edge 16, Type (0, 1), BuildingBlock: ZUJKAS_clean_linker_0, # of connection points: 2
#     Edge 17, Type (0, 1), BuildingBlock: ZUJKAS_clean_linker_0, # of connection points: 2
#     Edge 18, Type (0, 1), BuildingBlock: ZUJKAS_clean_linker_0, # of connection points: 2
#     Edge 19, Type (0, 1), BuildingBlock: ZUJKAS_clean_linker_0, # of connection points: 2
#     Edge 20, Type (0, 1), BuildingBlock: ZUJKAS_clean_linker_0, # of connection points: 2
#     Edge 21, Type (0, 1), BuildingBlock: ZUJKAS_clean_linker_0, # of connection points: 2
#     Edge 22, Type (0, 1), BuildingBlock: ZUJKAS_clean_linker_0, # of connection points: 2
#     Edge 23, Type (0, 1), BuildingBlock: ZUJKAS_clean_linker_0, # of connection points: 2
#     Edge 24, Type (0, 1), BuildingBlock: ZUJKAS_clean_linker_0, # of connection points: 2
#     Edge 25, Type (0, 1), BuildingBlock: ZUJKAS_clean_linker_0, # of connection points: 2
#     Edge 26, Type (0, 1), BuildingBlock: ZUJKAS_clean_linker_0, # of connection points: 2
#     Edge 27, Type (0, 1), BuildingBlock: ZUJKAS_clean_linker_0, # of connection points: 2
#     Edge 28, Type (0, 1), BuildingBlock: ZUJKAS_clean_linker_0, # of connection points: 2
#     Edge 29, Type (0, 1), BuildingBlock: ZUJKAS_clean_linker_0, # of connection points: 2
#     Edge 30, Type (0, 1), BuildingBlock: ZUJKAS_clean_linker_0, # of connection points: 2
#     Edge 31, Type (0, 1), BuildingBlock: ZUJKAS_clean_linker_0, # of connection points: 2
#     Edge 32, Type (0, 1), BuildingBlock: ZUJKAS_clean_linker_0, # of connection points: 2
#     Edge 33, Type (0, 1), BuildingBlock: ZUJKAS_clean_linker_0, # of connection points: 2
#     Edge 34, Type (0, 1), BuildingBlock: ZUJKAS_clean_linker_0, # of connection points: 2
#     Edge 35, Type (0, 1), BuildingBlock: ZUJKAS_clean_linker_0, # of connection points: 2
# Relax obj value: 0.401
# Max RMSD: 0.274
# Mean RMSD: 0.250
data_MOF--net-zzz--node1-INOVEN_clean_sbu_0--node2-MIDCAF_clean_linker_0--edge1-ZUJKAS_clean_linker_0
_symmetry_space_group_name_H-M    P1
_symmetry_Int_Tables_number       1
_symmetry_cell_setting            triclinic
loop_
_symmetry_equiv_pos_as_xyz
'x, y, z'
_cell_length_a     74.417207
_cell_length_b     74.556499
_cell_length_c     22.780493
_cell_angle_alpha  89.802088
_cell_angle_beta   89.893425
_cell_angle_gamma 90.500347
loop_
_atom_site_label
_atom_site_type_symbol
_atom_site_fract_x
_atom_site_fract_y
_atom_site_fract_z
_atom_type_partial_charge
C0 C 0.78428 0.55258 0.37605 0.0
C1 C 0.78805 0.53512 0.39568 0.0
C2 C 0.77653 0.521 0.37828 0.0
C3 C 0.76218 0.52418 0.33965 0.0
H4 H 0.6898 0.54624 0.25442 0.0
H5 H 0.6604 0.53904 0.21134 0.0
H6 H 0.68624 0.50412 0.08666 0.0
H7 H 0.71536 0.51139 0.12976 0.0
H8 H 0.73952 0.55106 0.05368 0.0
H9 H 0.75838 0.56131 0.97322 0.0
H10 H 0.78832 0.5951 0.0929 0.0
H11 H 0.76997 0.58396 0.17414 0.0
H12 H 0.76833 0.56915 0.32019 0.0
H13 H 0.79291 0.56375 0.38793 0.0
H14 H 0.77897 0.50741 0.39301 0.0
H15 H 0.75415 0.51293 0.32446 0.0
N16 N 0.73153 0.53568 0.2581 0.0
N17 N 0.72921 0.54816 0.16326 0.0
N18 N 0.75412 0.55499 0.22138 0.0
C19 C 0.72221 0.53785 0.20694 0.0
C20 C 0.74506 0.55689 0.17029 0.0
C21 C 0.74761 0.54441 0.26531 0.0
C22 C 0.70473 0.52909 0.19598 0.0
C23 C 0.689 0.5364 0.2196 0.0
C24 C 0.67224 0.53248 0.19431 0.0
C25 C 0.67097 0.52113 0.14514 0.0
C26 C 0.68665 0.51275 0.12478 0.0
C27 C 0.70335 0.51683 0.1496 0.0
C28 C 0.75358 0.56637 0.12039 0.0
C29 C 0.74985 0.561 0.06262 0.0
C30 C 0.76063 0.56702 0.01624 0.0
C31 C 0.77518 0.57877 0.02661 0.0
C32 C 0.77759 0.58562 0.08359 0.0
C33 C 0.76705 0.57931 0.13015 0.0
C34 C 0.75929 0.54147 0.31707 0.0
C35 C 0.77018 0.55568 0.33704 0.0
C36 C 0.99199 0.78598 0.34766 0.0
C37 C 0.00594 0.79484 0.37811 0.0
C38 C 0.02329 0.78758 0.37592 0.0
C39 C 0.02697 0.77291 0.34015 0.0
H40 H 0.98235 0.71604 0.18611 0.0
H41 H 0.97216 0.68799 0.13971 0.0
H42 H 0.02705 0.6696 0.13479 0.0
H43 H 0.03697 0.69733 0.1806 0.0
H44 H 0.051 0.7354 0.07247 0.0
H45 H 0.0674 0.75099 0.99453 0.0
H46 H 0.06883 0.79899 0.1005 0.0
H47 H 0.05322 0.78338 0.17847 0.0
H48 H 0.98506 0.76536 0.28535 0.0
H49 H 0.97847 0.79124 0.34841 0.0
H50 H 0.03426 0.79376 0.39986 0.0
H51 H 0.04074 0.76842 0.33647 0.0
N52 N 0.01124 0.73693 0.24613 0.0
N53 N 0.0306 0.7336 0.16487 0.0
N54 N 0.03195 0.75972 0.22062 0.0
C55 C 0.01747 0.72688 0.20039 0.0
C56 C 0.0378 0.75006 0.17431 0.0
C57 C 0.01884 0.75336 0.25674 0.0
C58 C 0.01042 0.70877 0.18704 0.0
C59 C 0.99205 0.70568 0.17686 0.0
C60 C 0.98629 0.68973 0.14972 0.0
C61 C 0.9988 0.67655 0.13319 0.0
C62 C 0.01699 0.67927 0.14741 0.0
C63 C 0.02271 0.69521 0.17359 0.0
C64 C 0.05046 0.75823 0.13139 0.0
C65 C 0.0552 0.74917 0.07962 0.0
C66 C 0.06454 0.75813 0.03476 0.0
C67 C 0.06928 0.77634 0.0407 0.0
C68 C 0.06566 0.78493 0.09428 0.0
C69 C 0.05646 0.77598 0.13908 0.0
C70 C 0.0134 0.76493 0.30616 0.0
C71 C 0.9957 0.77111 0.31186 0.0
C72 C 0.72222 0.97335 0.38788 0.0
C73 C 0.71841 0.99081 0.40707 0.0
C74 C 0.73006 0.00489 0.38985 0.0
C75 C 0.74459 1.00169 0.35183 0.0
H76 H 0.81721 0.98102 0.27163 0.0
H77 H 0.84683 0.98846 0.23004 0.0
H78 H 0.82132 0.02125 0.09812 0.0
H79 H 0.792 0.01376 0.13972 0.0
H80 H 0.76744 0.97543 0.06745 0.0
H81 H 0.74862 0.96508 0.98761 0.0
H82 H 0.72028 0.92958 0.10734 0.0
H83 H 0.73853 0.9409 0.1881 0.0
H84 H 0.73839 0.95674 0.33301 0.0
H85 H 0.7135 0.96219 0.39962 0.0
H86 H 0.72761 0.01848 0.40427 0.0
H87 H 0.75272 0.01291 0.33675 0.0
N88 N 0.77549 0.99029 0.27126 0.0
N89 N 0.77822 0.97773 0.17691 0.0
N90 N 0.7532 0.97072 0.23476 0.0
C91 C 0.78499 0.98815 0.22038 0.0
C92 C 0.76244 0.96885 0.18395 0.0
C93 C 0.75946 0.98142 0.27844 0.0
C94 C 0.80242 0.99708 0.2094 0.0
C95 C 0.8181 0.99045 0.23543 0.0
C96 C 0.83499 0.9945 0.21102 0.0
C97 C 0.83646 0.00533 0.16037 0.0
C98 C 0.82077 0.01304 0.13742 0.0
C99 C 0.80395 0.00883 0.16136 0.0
C100 C 0.75413 0.95929 0.13419 0.0
C101 C 0.75748 0.9651 0.07648 0.0
C102 C 0.74671 0.95902 0.03044 0.0
C103 C 0.73258 0.94675 0.04105 0.0
C104 C 0.73064 0.93946 0.09785 0.0
C105 C 0.74114 0.94587 0.14413 0.0
C106 C 0.74754 0.98439 0.32968 0.0
C107 C 0.7365 0.97021 0.34951 0.0
C108 C 0.52815 0.73625 0.04601 0.0
C109 C 0.52544 0.7466 0.99509 0.0
C110 C 0.52522 0.76537 0.99981 0.0
C111 C 0.52662 0.77354 0.0548 0.0
H112 H 0.49237 0.81638 0.23016 0.0
H113 H 0.48874 0.84652 0.1888 0.0
H114 H 0.54627 0.85133 0.16886 0.0
H115 H 0.54976 0.82119 0.20944 0.0
H116 H 0.53486 0.76473 0.37363 0.0
H117 H 0.53148 0.73903 0.44103 0.0
H118 H 0.48991 0.71712 0.32947 0.0
H119 H 0.49332 0.74257 0.26332 0.0
H120 H 0.53077 0.73589 0.1392 0.0
H121 H 0.52813 0.72173 0.04426 0.0
H122 H 0.52332 0.7737 0.9613 0.0
H123 H 0.52561 0.788 0.05726 0.0
N124 N 0.52642 0.78926 0.17091 0.0
N125 N 0.51895 0.78639 0.27116 0.0
N126 N 0.52249 0.76082 0.21204 0.0
C127 C 0.52289 0.79695 0.22349 0.0
C128 C 0.51899 0.76814 0.26523 0.0
C129 C 0.52629 0.77124 0.16477 0.0
C130 C 0.52137 0.81663 0.22396 0.0
C131 C 0.50426 0.82429 0.21988 0.0
C132 C 0.50218 0.84142 0.19528 0.0
C133 C 0.51721 0.85122 0.17484 0.0
C134 C 0.53444 0.84422 0.18451 0.0
C135 C 0.53647 0.82701 0.20823 0.0
C136 C 0.51422 0.7557 0.31368 0.0
C137 C 0.5246 0.7547 0.36497 0.0
C138 C 0.52282 0.73986 0.403 0.0
C139 C 0.51047 0.7259 0.39064 0.0
C140 C 0.49939 0.72763 0.34105 0.0
C141 C 0.50133 0.74224 0.303 0.0
C142 C 0.52808 0.76305 0.10605 0.0
C143 C 0.52948 0.74437 0.10077 0.0
C144 C 0.2307 0.50192 0.9388 0.0
C145 C 0.21897 0.48776 0.92339 0.0
C146 C 0.22327 0.47028 0.94144 0.0
C147 C 0.23795 0.46721 0.97805 0.0
H148 H 0.2938 0.5162 0.15558 0.0
H149 H 0.32192 0.5249 0.20376 0.0
H150 H 0.34774 0.4784 0.13018 0.0
H151 H 0.31968 0.47004 0.08155 0.0
H152 H 0.27025 0.4703 0.25772 0.0
H153 H 0.25112 0.46001 0.33772 0.0
H154 H 0.22164 0.42618 0.21708 0.0
H155 H 0.24025 0.43729 0.13646 0.0
H156 H 0.25363 0.51008 0.99017 0.0
H157 H 0.22777 0.51555 0.92558 0.0
H158 H 0.21482 0.459 0.92922 0.0
H159 H 0.24022 0.45368 0.99372 0.0
N160 N 0.27713 0.48709 0.05448 0.0
N161 N 0.28061 0.47328 0.14706 0.0
N162 N 0.255 0.46729 0.0913 0.0
C163 C 0.28709 0.48417 0.10397 0.0
C164 C 0.26461 0.46476 0.14096 0.0
C165 C 0.26101 0.47838 0.04798 0.0
C166 C 0.30474 0.49269 0.11389 0.0
C167 C 0.30576 0.50839 0.14751 0.0
C168 C 0.32179 0.51316 0.17588 0.0
C169 C 0.33707 0.50221 0.17166 0.0
C170 C 0.33635 0.48726 0.1341 0.0
C171 C 0.32031 0.4825 0.10584 0.0
C172 C 0.25642 0.45492 0.19069 0.0
C173 C 0.26 0.46029 0.24857 0.0
C174 C 0.24906 0.45428 0.29462 0.0
C175 C 0.23451 0.44258 0.28368 0.0
C176 C 0.23236 0.43562 0.22675 0.0
C177 C 0.24306 0.44191 0.18056 0.0
C178 C 0.24886 0.48148 0.99738 0.0
C179 C 0.24557 0.4988 0.97554 0.0
C180 C 0.00666 0.23643 0.93834 0.0
C181 C 0.01893 0.22215 0.94175 0.0
C182 C 0.03296 0.22332 0.98288 0.0
C183 C 0.03374 0.23742 0.02303 0.0
H184 H 0.03917 0.31594 0.09047 0.0
H185 H 0.03929 0.34711 0.12496 0.0
H186 H 0.98608 0.33903 0.19724 0.0
H187 H 0.98605 0.30829 0.16224 0.0
H188 H 0.01633 0.27864 0.28814 0.0
H189 H 0.01195 0.26337 0.38201 0.0
H190 H 0.00784 0.21265 0.29134 0.0
H191 H 0.01284 0.22771 0.19848 0.0
H192 H 0.99724 0.26087 0.97763 0.0
H193 H 0.99565 0.23599 0.90736 0.0
H194 H 0.04296 0.21289 0.98586 0.0
H195 H 0.04403 0.23724 0.05665 0.0
N196 N 0.01686 0.28064 0.07167 0.0
N197 N 0.01422 0.28163 0.17473 0.0
N198 N 0.01863 0.2542 0.12824 0.0
C199 C 0.01461 0.29022 0.12219 0.0
C200 C 0.01625 0.26366 0.17825 0.0
C201 C 0.01893 0.26245 0.07501 0.0
C202 C 0.01249 0.30986 0.12301 0.0
C203 C 0.02722 0.3212 0.11123 0.0
C204 C 0.02738 0.33893 0.13193 0.0
C205 C 0.01278 0.34559 0.1646 0.0
C206 C 0.99749 0.33456 0.17181 0.0
C207 C 0.99741 0.3169 0.15156 0.0
C208 C 0.01488 0.2544 0.23568 0.0
C209 C 0.01469 0.2642 0.2884 0.0
C210 C 0.01211 0.25546 0.34224 0.0
C211 C 0.00957 0.23677 0.34445 0.0
C212 C 0.01015 0.22701 0.29171 0.0
C213 C 0.01288 0.23568 0.23813 0.0
C214 C 0.02076 0.25095 0.02251 0.0
C215 C 0.0076 0.25075 0.97837 0.0
C216 C 0.27368 0.02542 0.93256 0.0
C217 C 0.28579 0.03976 0.92214 0.0
C218 C 0.28166 0.05666 0.94554 0.0
C219 C 0.26685 0.05884 0.98242 0.0
H220 H 0.19828 0.01025 0.07983 0.0
H221 H 0.16797 1.00242 0.11483 0.0
H222 H 0.15824 0.05845 0.15051 0.0
H223 H 0.18796 0.06599 0.11419 0.0
H224 H 0.22515 0.05113 0.25534 0.0
H225 H 0.24052 0.05609 0.34849 0.0
H226 H 0.2866 0.0774 0.25536 0.0
H227 H 0.27138 0.07241 0.16225 0.0
H228 H 0.2502 0.01618 0.97978 0.0
H229 H 0.27642 0.01219 0.9154 0.0
H230 H 0.29033 0.06814 0.93727 0.0
H231 H 0.26473 0.07181 0.00251 0.0
N232 N 0.2254 0.04068 0.04453 0.0
N233 N 0.22179 0.0502 0.14236 0.0
N234 N 0.24974 0.0532 0.09685 0.0
C235 C 0.2147 0.04312 0.0927 0.0
C236 C 0.23927 0.05515 0.14504 0.0
C237 C 0.24303 0.04602 0.04662 0.0
C238 C 0.19533 0.03873 0.09374 0.0
C239 C 0.18925 0.02087 0.09257 0.0
C240 C 0.172 0.01641 0.11369 0.0
C241 C 0.1606 0.02975 0.13647 0.0
C242 C 0.16635 0.04775 0.13286 0.0
C243 C 0.18346 0.05214 0.11191 0.0
C244 C 0.24719 0.0611 0.20128 0.0
C245 C 0.23839 0.05728 0.2547 0.0
C246 C 0.24715 0.0601 0.3081 0.0
C247 C 0.26473 0.06707 0.30908 0.0
C248 C 0.27296 0.07218 0.25596 0.0
C249 C 0.26432 0.06914 0.20256 0.0
C250 C 0.25548 0.04429 0.99617 0.0
C251 C 0.25861 0.02768 0.96922 0.0
C252 C 0.49434 0.2807 0.27076 0.0
C253 C 0.49855 0.27013 0.32001 0.0
C254 C 0.50048 0.25156 0.31307 0.0
C255 C 0.49836 0.24374 0.25782 0.0
H256 H 0.46595 0.19697 0.07276 0.0
H257 H 0.46525 0.16628 0.11161 0.0
H258 H 0.52205 0.17016 0.14883 0.0
H259 H 0.52259 0.20056 0.10956 0.0
H260 H 0.46287 0.2735 0.03275 0.0
H261 H 0.46271 0.29913 0.96596 0.0
H262 H 0.51132 0.28008 0.88436 0.0
H263 H 0.51125 0.25413 0.95139 0.0
H264 H 0.48923 0.28156 0.17868 0.0
H265 H 0.49313 0.29513 0.27441 0.0
H266 H 0.50366 0.24309 0.35029 0.0
H267 H 0.50007 0.22939 0.25389 0.0
N268 N 0.49448 0.22836 0.14272 0.0
N269 N 0.49083 0.23116 0.04039 0.0
N270 N 0.4902 0.25664 0.10131 0.0
C271 C 0.49339 0.22068 0.08903 0.0
C272 C 0.48926 0.24932 0.04689 0.0
C273 C 0.49288 0.24627 0.14939 0.0
C274 C 0.4944 0.20097 0.08714 0.0
C275 C 0.47843 0.19083 0.08623 0.0
C276 C 0.47799 0.17339 0.1096 0.0
C277 C 0.49353 0.1658 0.13435 0.0
C278 C 0.50984 0.17541 0.12984 0.0
C279 C 0.51022 0.19283 0.10685 0.0
C280 C 0.48691 0.26171 0.99664 0.0
C281 C 0.47315 0.27445 0.9991 0.0
C282 C 0.47309 0.28917 0.96086 0.0
C283 C 0.48705 0.29175 0.91993 0.0
C284 C 0.50042 0.27853 0.9156 0.0
C285 C 0.50027 0.26356 0.95335 0.0
C286 C 0.49439 0.25438 0.20837 0.0
C287 C 0.49226 0.27293 0.21565 0.0
Gd288 Gd 0.01222 0.00544 0.69386 0.0
Gd289 Gd 0.98592 0.01452 0.60605 0.0
C290 C 0.99557 0.9739 0.61014 0.0
C291 C 0.03094 0.98993 0.77436 0.0
C292 C 0.03828 0.97168 0.77904 0.0
C293 C 0.05681 0.9693 0.78674 0.0
C294 C 0.02714 0.95654 0.77181 0.0
C295 C 0.053 0.93693 0.77867 0.0
C296 C 0.03442 0.93937 0.77159 0.0
C297 C 0.06412 0.95208 0.78663 0.0
C298 C 0.02708 0.01565 0.5902 0.0
C299 C 1.00244 0.04623 0.68946 0.0
C300 C 0.96753 0.03086 0.52718 0.0
C301 C 0.96022 0.04912 0.52954 0.0
C302 C 0.95174 0.05535 0.58073 0.0
C303 C 0.96451 0.06129 0.48471 0.0
C304 C 0.95371 0.08602 0.5446 0.0
C305 C 0.96139 0.07956 0.49221 0.0
C306 C 0.9484 0.07361 0.58797 0.0
C307 C 0.97098 0.00474 0.71001 0.0
O308 O 1.00233 0.97809 0.66205 0.0
O309 O 0.99031 0.98663 0.57397 0.0
O310 O 0.0381 1.00002 0.73345 0.0
O311 O 0.01344 0.99139 0.77705 0.0
O312 O 0.03276 0.02093 0.64103 0.0
O313 O 0.01376 0.00523 0.59631 0.0
O314 O 0.99528 0.042 0.63823 0.0
O315 O 0.00817 0.03355 0.72503 0.0
O316 O 0.96039 0.01906 0.56306 0.0
O317 O 0.98509 0.03021 0.52595 0.0
O318 O 0.9651 0.99959 0.65926 0.0
O319 O 0.98447 0.01492 0.70357 0.0
H320 H 0.06567 0.98079 0.79197 0.0
H321 H 0.01279 0.95793 0.76588 0.0
H322 H 0.02542 0.92798 0.76663 0.0
H323 H 0.07849 0.95064 0.79197 0.0
H324 H 0.94849 0.04627 0.61649 0.0
H325 H 0.97132 0.05682 0.44537 0.0
H326 H 0.96602 0.08867 0.45819 0.0
H327 H 0.94223 0.07804 0.62842 0.0
Gd328 Gd 0.50835 0.02344 0.71692 0.0
Gd329 Gd 0.49532 0.99879 0.61095 0.0
C330 C 0.53693 0.00618 0.62268 0.0
C331 C 0.52546 0.03105 0.81113 0.0
C332 C 0.54263 0.02303 0.82925 0.0
C333 C 0.55789 0.034 0.83649 0.0
C334 C 0.54475 0.00433 0.82727 0.0
C335 C 0.57714 0.0078 0.83276 0.0
C336 C 0.56179 0.9968 0.82912 0.0
C337 C 0.57503 0.02644 0.83833 0.0
C338 C 0.5021 0.04337 0.61845 0.0
C339 C 0.46621 0.01946 0.69917 0.0
C340 C 0.47591 0.98702 0.52672 0.0
C341 C 0.45784 0.99356 0.51212 0.0
C342 C 0.44322 0.98155 0.51076 0.0
C343 C 0.45458 0.0121 0.51119 0.0
C344 C 0.4224 0.00656 0.51293 0.0
C345 C 0.43707 0.01851 0.51141 0.0
C346 C 0.42561 0.988 0.51101 0.0
C347 C 0.50666 0.98139 0.70814 0.0
O348 O 0.53341 0.01106 0.67748 0.0
O349 O 0.52402 1.00278 0.58426 0.0
O350 O 0.52661 0.041 0.76378 0.0
O351 O 0.51132 0.02039 0.81112 0.0
O352 O 0.50612 0.05041 0.66895 0.0
O353 O 0.50114 0.02672 0.62581 0.0
O354 O 0.46982 0.01069 0.64981 0.0
O355 O 0.47892 0.02531 0.73521 0.0
O356 O 0.47686 0.97872 0.57739 0.0
O357 O 0.48928 0.99834 0.51796 0.0
O358 O 0.50881 0.97532 0.6551 0.0
O359 O 0.49784 0.99577 0.70659 0.0
H360 H 0.55664 0.04847 0.83719 0.0
H361 H 0.53334 0.9955 0.82108 0.0
H362 H 0.56295 0.98236 0.82612 0.0
H363 H 0.58664 0.03525 0.84118 0.0
H364 H 0.44541 0.96722 0.51259 0.0
H365 H 0.46552 0.02174 0.51324 0.0
H366 H 0.43503 0.03288 0.51153 0.0
H367 H 0.41454 0.97848 0.51216 0.0
Gd368 Gd 0.4927 0.51619 0.71997 0.0
Gd369 Gd 0.51454 0.50309 0.60833 0.0
C370 C 0.50598 0.54461 0.61603 0.0
C371 C 0.48739 0.53385 0.81459 0.0
C372 C 0.48433 0.55331 0.81974 0.0
C373 C 0.46903 0.55988 0.84845 0.0
C374 C 0.49583 0.56543 0.79022 0.0
C375 C 0.47628 0.59006 0.81463 0.0
C376 C 0.49177 0.58356 0.78743 0.0
C377 C 0.46512 0.57824 0.84643 0.0
C378 C 0.47041 0.51193 0.62616 0.0
C379 C 0.49685 0.47408 0.70421 0.0
C380 C 0.52654 0.48428 0.52268 0.0
C381 C 0.52548 0.46474 0.5143 0.0
C382 C 0.54128 0.455 0.5053 0.0
C383 C 0.50931 0.45546 0.52516 0.0
C384 C 0.52508 0.42704 0.52422 0.0
C385 C 0.50912 0.43683 0.52994 0.0
C386 C 0.54109 0.4363 0.51012 0.0
C387 C 0.53375 0.51393 0.70234 0.0
O388 O 0.50113 0.54163 0.67142 0.0
O389 O 0.51024 0.53148 0.57968 0.0
O390 O 0.4745 0.52461 0.78918 0.0
O391 O 0.50347 0.52934 0.79659 0.0
O392 O 0.46483 0.51628 0.67825 0.0
O393 O 0.4871 0.50971 0.62898 0.0
O394 O 0.50355 0.47747 0.65102 0.0
O395 O 0.49276 0.48692 0.74187 0.0
O396 O 0.53657 0.48925 0.56692 0.0
O397 O 0.51139 0.49309 0.51968 0.0
O398 O 0.53853 0.5172 0.64842 0.0
O399 O 0.51941 0.50481 0.70325 0.0
H400 H 0.45996 0.55079 0.87125 0.0
H401 H 0.50779 0.56091 0.76777 0.0
H402 H 0.50076 0.59256 0.76383 0.0
H403 H 0.45323 0.58314 0.86848 0.0
H404 H 0.55392 0.46191 0.49722 0.0
H405 H 0.49694 0.46262 0.53307 0.0
H406 H 0.49656 0.4302 0.54098 0.0
H407 H 0.55355 0.42915 0.50387 0.0
Gd408 Gd 0.99864 0.50209 0.69958 0.0
Gd409 Gd 0.01119 0.52277 0.59368 0.0
C410 C 0.96941 0.5193 0.60773 0.0
C411 C 0.97987 0.4935 0.78998 0.0
C412 C 0.96231 0.50123 0.8056 0.0
C413 C 0.94678 0.4904 0.80495 0.0
C414 C 0.96047 0.51995 0.81031 0.0
C415 C 0.928 0.51695 0.80684 0.0
C416 C 0.94352 0.5277 0.81091 0.0
C417 C 0.92975 0.49819 0.80566 0.0
C418 C 0.00836 0.48129 0.60826 0.0
C419 C 0.04042 0.50564 0.68618 0.0
C420 C 0.03007 0.53129 0.50356 0.0
C421 C 0.04772 0.52349 0.48908 0.0
C422 C 0.06349 0.53374 0.49644 0.0
C423 C 0.04918 0.50494 0.47919 0.0
C424 C 0.08152 0.5067 0.49193 0.0
C425 C 0.06587 0.49665 0.48076 0.0
C426 C 0.08027 0.52541 0.49777 0.0
C427 C 1.00095 0.54354 0.68421 0.0
O428 O 0.97325 0.51447 0.66222 0.0
O429 O 0.98221 0.52175 0.56825 0.0
O430 O 0.97984 0.48383 0.74213 0.0
O431 O 0.99376 0.50438 0.79301 0.0
O432 O 0.01095 0.47688 0.66283 0.0
O433 O 0.9998 0.49577 0.60523 0.0
O434 O 0.03671 0.51079 0.63187 0.0
O435 O 0.02755 0.50281 0.72507 0.0
O436 O 0.02982 0.54118 0.55095 0.0
O437 O 0.01621 0.52038 0.50037 0.0
O438 O 0.99841 0.54782 0.6295 0.0
O439 O 0.0098 0.52922 0.68784 0.0
H440 H 0.94783 0.47598 0.80066 0.0
H441 H 0.97211 0.52875 0.81061 0.0
H442 H 0.94257 0.54217 0.81322 0.0
H443 H 0.91799 0.48959 0.80256 0.0
H444 H 0.06276 0.54802 0.5046 0.0
H445 H 0.03737 0.49657 0.47327 0.0
H446 H 0.06648 0.48227 0.47453 0.0
H447 H 0.09214 0.53349 0.50627 0.0
H448 H 0.1287 0.04827 0.14207 0.0
H449 H 0.10442 0.04411 0.21307 0.0
H450 H 0.12952 0.99596 0.27691 0.0
H451 H 0.15452 1.00069 0.20909 0.0
H452 H 0.07947 0.01982 0.23946 0.0
H453 H 0.12729 0.02433 0.42517 0.0
H454 H 0.13399 0.02877 0.35046 0.0
H455 H 0.132 0.00603 0.37683 0.0
C456 C 0.12915 0.0368 0.17126 0.0
C457 C 0.14392 0.02509 0.17045 0.0
C458 C 0.11511 0.03435 0.21163 0.0
C459 C 0.11537 0.02004 0.25184 0.0
C460 C 0.12927 0.00745 0.24776 0.0
H461 H 0.02548 0.9948 0.49141 0.0
H462 H 0.04607 0.99551 0.40729 0.0
C463 C 0.14346 0.01003 0.208 0.0
C464 C 0.10168 0.01893 0.29978 0.0
H465 H 0.09713 0.01739 0.44905 0.0
C466 C 0.08333 0.01929 0.28531 0.0
C467 C 0.10665 0.0186 0.35982 0.0
C468 C 0.12604 0.0196 0.37914 0.0
C469 C 0.06988 0.01928 0.32896 0.0
C470 C 0.07487 0.01838 0.38891 0.0
C471 C 0.09322 0.01797 0.40324 0.0
C472 C 0.06148 0.01842 0.43792 0.0
C473 C 0.05051 0.02087 0.31026 0.0
C474 C 0.06334 0.03082 0.48393 0.0
C475 C 0.05184 0.03016 0.53256 0.0
C476 C 0.03809 0.01719 0.53615 0.0
C477 C 0.03585 0.00507 0.48953 0.0
C478 C 0.04757 0.00554 0.44119 0.0
H479 H 0.04936 0.02688 0.26573 0.0
H480 H 0.04431 0.00729 0.30881 0.0
H481 H 0.04275 0.02918 0.34152 0.0
H482 H 0.07391 0.04091 0.48267 0.0
H483 H 0.05387 0.03968 0.5678 0.0
H484 H 0.51765 0.13805 0.14228 0.0
H485 H 0.51791 0.11375 0.21491 0.0
H486 H 0.46766 0.13233 0.28565 0.0
H487 H 0.4673 0.15657 0.21357 0.0
H488 H 0.51964 0.11823 0.33214 0.0
H489 H 0.45839 0.07885 0.28027 0.0
H490 H 0.46799 0.09503 0.22977 0.0
H491 H 0.45384 0.10227 0.28915 0.0
C492 C 0.5065 0.1368 0.17269 0.0
C493 C 0.49243 0.1493 0.17175 0.0
C494 C 0.50666 0.12286 0.21417 0.0
C495 C 0.49271 0.12102 0.2555 0.0
C496 C 0.47835 0.13311 0.25341 0.0
H497 H 0.49833 0.07934 0.60736 0.0
H498 H 0.49592 0.09699 0.51707 0.0
C499 C 0.47817 0.14702 0.21193 0.0
C500 C 0.49401 0.10768 0.30427 0.0
H501 H 0.47102 0.07424 0.37621 0.0
C502 C 0.50908 0.10848 0.34125 0.0
C503 C 0.48035 0.0948 0.31613 0.0
C504 C 0.46432 0.09253 0.27637 0.0
C505 C 0.51056 0.09728 0.39071 0.0
C506 C 0.49646 0.08509 0.40435 0.0
C507 C 0.48171 0.08375 0.36621 0.0
C508 C 0.49666 0.07409 0.45906 0.0
C509 C 0.52723 0.09864 0.42813 0.0
C510 C 0.49728 0.05527 0.45673 0.0
C511 C 0.49863 0.04512 0.50856 0.0
C512 C 0.49914 0.05361 0.5635 0.0
C513 C 0.49798 0.0724 0.56567 0.0
C514 C 0.49668 0.08252 0.51407 0.0
H515 H 0.53863 0.10482 0.4036 0.0
H516 H 0.52439 0.10719 0.46678 0.0
H517 H 0.53137 0.08522 0.44424 0.0
H518 H 0.49728 0.04847 0.41478 0.0
H519 H 0.49984 0.03073 0.50551 0.0
H520 H 0.33643 0.51126 0.2878 0.0
H521 H 0.36153 0.51274 0.35641 0.0
H522 H 0.39833 0.49985 0.21682 0.0
H523 H 0.37321 0.49864 0.14716 0.0
H524 H 0.38518 0.48284 0.37885 0.0
H525 H 0.42214 0.54377 0.30165 0.0
H526 H 0.39879 0.53973 0.28405 0.0
H527 H 0.41601 0.52734 0.24734 0.0
C528 C 0.34988 0.50918 0.27111 0.0
C529 C 0.35276 0.50495 0.21165 0.0
C530 C 0.36423 0.50988 0.31065 0.0
C531 C 0.38183 0.50652 0.29177 0.0
C532 C 0.38489 0.5027 0.23226 0.0
H533 H 0.4799 0.50668 0.51048 0.0
H534 H 0.45959 0.50384 0.42577 0.0
C535 C 0.37049 0.5019 0.19258 0.0
C536 C 0.39665 0.50595 0.33549 0.0
H537 H 0.43432 0.52821 0.38237 0.0
C538 C 0.39598 0.49271 0.37942 0.0
C539 C 0.41086 0.51868 0.3358 0.0
C540 C 0.41207 0.53329 0.29 0.0
C541 C 0.4089 0.49204 0.42423 0.0
C542 C 0.42268 0.50525 0.42615 0.0
C543 C 0.42374 0.51813 0.38104 0.0
C544 C 0.43523 0.50662 0.4769 0.0
C545 C 0.40765 0.47717 0.46918 0.0
C546 C 0.42836 0.50935 0.53356 0.0
C547 C 0.43989 0.51082 0.58166 0.0
C548 C 0.4586 0.50972 0.57432 0.0
C549 C 0.46555 0.50721 0.51757 0.0
C550 C 0.45396 0.50573 0.46917 0.0
H551 H 0.40038 0.46528 0.4515 0.0
H552 H 0.42118 0.47293 0.48392 0.0
H553 H 0.40007 0.48198 0.50796 0.0
H554 H 0.41402 0.51053 0.54059 0.0
H555 H 0.43411 0.51295 0.62472 0.0
H556 H 0.98649 0.37075 0.18223 0.0
H557 H 0.98728 0.39608 0.25023 0.0
H558 H 0.04263 0.38487 0.29042 0.0
H559 H 0.04191 0.35934 0.22345 0.0
H560 H 0.99445 0.39196 0.37102 0.0
H561 H 0.04252 0.43988 0.26736 0.0
H562 H 0.03159 0.42209 0.22685 0.0
H563 H 0.05041 0.41723 0.27337 0.0
C564 C 0.99892 0.37378 0.20495 0.0
C565 C 0.01411 0.3629 0.19734 0.0
C566 C 0.99935 0.38832 0.2437 0.0
C567 C 0.01503 0.39245 0.27524 0.0
C568 C 0.03047 0.38215 0.26583 0.0
H569 H 0.02308 0.44786 0.60967 0.0
H570 H 0.0254 0.42673 0.52774 0.0
C571 C 0.03004 0.36756 0.22724 0.0
C572 C 0.0147 0.40637 0.32191 0.0
H573 H 0.03388 0.44595 0.36599 0.0
C574 C 1.00302 0.4038 0.36975 0.0
C575 C 0.02584 0.42184 0.32017 0.0
C576 C 0.03821 0.42558 0.26899 0.0
C577 C 1.00237 0.41611 0.41625 0.0
C578 C 0.0138 0.43136 0.41521 0.0
C579 C 0.02526 0.43415 0.36693 0.0
C580 C 0.01371 0.44464 0.46371 0.0
C581 C 0.98934 0.41279 0.46604 0.0
C582 C 0.00676 0.46186 0.45456 0.0
C583 C 0.00532 0.47391 0.50136 0.0
C584 C 0.01099 0.46901 0.55801 0.0
C585 C 0.01852 0.45198 0.5666 0.0
C586 C 0.01984 0.4399 0.51988 0.0
H587 H 0.97912 0.40241 0.45488 0.0
H588 H 0.99685 0.40814 0.5052 0.0
H589 H 0.98234 0.42537 0.47795 0.0
H590 H 1.00198 0.4658 0.41156 0.0
H591 H 0.99945 0.48693 0.49338 0.0
H592 H 0.8604 0.97874 0.13586 0.0
H593 H 0.886 0.98004 0.06878 0.0
H594 H 0.87696 0.03646 0.04042 0.0
H595 H 0.85117 0.0352 0.10728 0.0
H596 H 0.87948 0.01903 0.93881 0.0
H597 H 0.93669 0.99912 0.07855 0.0
H598 H 0.9185 0.98321 0.08202 0.0
H599 H 0.91529 0.00565 0.10879 0.0
C600 C 0.86416 0.99156 0.11677 0.0
C601 C 0.85372 0.00688 0.12715 0.0
C602 C 0.87886 0.99228 0.07831 0.0
C603 C 0.88361 0.00839 0.04987 0.0
C604 C 0.87361 0.02387 0.06185 0.0
H605 H 0.97646 0.02228 0.81419 0.0
H606 H 0.95589 0.02353 0.89855 0.0
C607 C 0.85885 0.02313 0.10005 0.0
C608 C 0.89779 0.00868 0.00348 0.0
H609 H 0.94135 0.99734 0.97433 0.0
C610 C 0.89305 0.01445 0.94686 0.0
C611 C 0.91559 1.00289 0.01382 0.0
C612 C 0.92189 0.99754 0.07424 0.0
C613 C 0.90539 0.01409 0.90013 0.0
C614 C 0.92289 0.00741 0.90975 0.0
C615 C 0.92786 1.0022 0.96672 0.0
C616 C 0.93605 0.0056 0.86084 0.0
C617 C 0.89955 0.021 0.84085 0.0
C618 C 0.93203 0.99466 0.81245 0.0
C619 C 0.9437 0.99397 0.76432 0.0
C620 C 0.95972 0.00408 0.76373 0.0
C621 C 0.96417 0.01438 0.81332 0.0
C622 C 0.95244 0.01511 0.86151 0.0
H623 H 0.88792 0.03017 0.8446 0.0
H624 H 0.91071 0.02824 0.81828 0.0
H625 H 0.89539 0.00951 0.81303 0.0
H626 H 0.91968 0.98688 0.81148 0.0
H627 H 0.93998 0.98578 0.727 0.0
H628 H 0.49438 0.85472 0.08227 0.0
H629 H 0.49321 0.87899 0.01029 0.0
H630 H 0.53362 0.90825 0.10711 0.0
H631 H 0.53529 0.88357 0.17837 0.0
H632 H 0.48488 0.91282 0.01192 0.0
H633 H 0.5567 0.90807 0.9493 0.0
H634 H 0.54592 0.89188 0.99689 0.0
H635 H 0.55348 0.91313 0.02546 0.0
C636 C 0.50284 0.86643 0.08878 0.0
C637 C 0.51495 0.86719 0.13608 0.0
C638 C 0.50223 0.8803 0.04733 0.0
C639 C 0.51362 0.89535 0.05223 0.0
C640 C 0.5251 0.89656 0.10109 0.0
H641 H 0.49488 0.98816 0.81987 0.0
H642 H 0.4975 0.96882 0.90643 0.0
C643 C 0.52593 0.88253 0.14217 0.0
C644 C 0.51352 0.90947 0.00548 0.0
H645 H 0.54021 0.93161 0.90599 0.0
C646 C 0.497 0.91693 0.98885 0.0
C647 C 0.52928 0.91472 0.97454 0.0
C648 C 0.54731 0.90642 0.98696 0.0
C649 C 0.49574 0.92923 0.94207 0.0
C650 C 0.51155 0.93482 0.91212 0.0
C651 C 0.5281 0.92752 0.92917 0.0
C652 C 0.51113 0.94739 0.86092 0.0
C653 C 0.47733 0.93546 0.92377 0.0
C654 C 0.51874 0.94232 0.807 0.0
C655 C 0.51772 0.95361 0.75789 0.0
C656 C 0.509 0.97021 0.7615 0.0
C657 C 0.50174 0.97549 0.81572 0.0
C658 C 0.50302 0.96431 0.86511 0.0
H659 H 0.46659 0.92613 0.93927 0.0
H660 H 0.47472 0.94879 0.94339 0.0
H661 H 0.47632 0.9367 0.8753 0.0
H662 H 0.52516 0.92941 0.80247 0.0
H663 H 0.52345 0.94917 0.71674 0.0
H664 H 0.65576 0.49108 0.09544 0.0
H665 H 0.63046 0.48979 0.02689 0.0
H666 H 0.62292 0.54675 0.04602 0.0
H667 H 0.64804 0.5481 0.11491 0.0
H668 H 0.59076 0.52869 0.04053 0.0
H669 H 0.63548 0.5074 0.85902 0.0
H670 H 0.63569 0.49255 0.92116 0.0
H671 H 0.64405 0.51515 0.92855 0.0
C672 C 0.64861 0.5033 0.08546 0.0
C673 C 0.65402 0.51971 0.11048 0.0
C674 C 0.63419 0.50256 0.04604 0.0
C675 C 0.62504 0.51825 0.03014 0.0
C676 C 0.62981 0.53447 0.05734 0.0
H677 H 0.56507 0.53308 0.70706 0.0
H678 H 0.58627 0.53503 0.78894 0.0
C679 C 0.64414 0.5352 0.09705 0.0
C680 C 0.61105 0.51797 0.98338 0.0
H681 H 0.60434 0.50803 0.83868 0.0
C682 C 0.59372 0.52416 0.99639 0.0
C683 C 0.61498 0.51239 0.9254 0.0
C684 C 0.63359 0.50666 0.90737 0.0
C685 C 0.58019 0.52473 0.95329 0.0
C686 C 0.58398 0.51863 0.8958 0.0
C687 C 0.60136 0.51259 0.88277 0.0
C688 C 0.57031 0.51857 0.84805 0.0
C689 C 0.5621 0.53228 0.96944 0.0
C690 C 0.55416 0.5088 0.85395 0.0
C691 C 0.54195 0.5078 0.80728 0.0
C692 C 0.54576 0.51638 0.75355 0.0
C693 C 0.56177 0.52636 0.74796 0.0
C694 C 0.57391 0.52744 0.7947 0.0
H695 H 0.56295 0.54098 0.00886 0.0
H696 H 0.55639 0.5402 0.93267 0.0
H697 H 0.55269 0.52106 0.97963 0.0
H698 H 0.55122 0.50149 0.89403 0.0
H699 H 0.5298 0.49986 0.81268 0.0
H700 H 0.01009 0.64165 0.14144 0.0
H701 H 0.00623 0.6179 0.06845 0.0
H702 H 0.97194 0.65234 0.96667 0.0
H703 H 0.97609 0.67632 0.03861 0.0
H704 H 0.97573 0.59988 0.01626 0.0
H705 H 0.01446 0.64126 0.8558 0.0
H706 H 0.01383 0.64639 0.93312 0.0
H707 H 0.9951 0.65189 0.88697 0.0
C708 C 1.00155 0.64411 0.10385 0.0
C709 C 0.99358 0.661 0.0956 0.0
C710 C 0.9993 0.63048 0.06231 0.0
C711 C 0.98909 0.63346 0.01155 0.0
C712 C 0.98011 0.64984 0.00509 0.0
H713 H 0.98181 0.57449 0.68247 0.0
H714 H 0.977 0.59547 0.76338 0.0
C715 C 0.98234 0.66349 0.04665 0.0
C716 C 0.98902 0.62 0.96347 0.0
H717 H 1.00327 0.61351 0.82252 0.0
C718 C 0.98169 0.60285 0.97382 0.0
C719 C 0.99688 0.62387 0.90817 0.0
C720 C 0.00567 0.64178 0.89521 0.0
C721 C 0.98184 0.58953 0.93007 0.0
C722 C 0.98987 0.59338 0.87498 0.0
C723 C 0.99706 0.61058 0.86463 0.0
C724 C 0.99141 0.57975 0.82763 0.0
C725 C 0.97317 0.57158 0.94292 0.0
C726 C 1.00106 0.56385 0.83674 0.0
C727 C 1.00382 0.55184 0.79049 0.0
C728 C 0.9971 0.55557 0.73417 0.0
C729 C 0.98719 0.57129 0.72536 0.0
C730 C 0.98441 0.58328 0.77158 0.0
H731 H 0.96326 0.57247 0.97932 0.0
H732 H 0.96628 0.56615 0.90348 0.0
H733 H 0.98369 0.56194 0.9563 0.0
H734 H 0.00694 0.56099 0.87916 0.0
H735 H 0.01157 0.53985 0.7985 0.0
H736 H 0.02076 0.20373 0.38057 0.0
H737 H 0.00809 0.18564 0.45928 0.0
H738 H 0.97708 0.23079 0.51838 0.0
H739 H 0.98852 0.24861 0.43589 0.0
H740 H 0.00521 0.18487 0.57421 0.0
H741 H 0.93712 0.19737 0.48103 0.0
H742 H 0.95705 0.20554 0.44465 0.0
H743 H 0.94927 0.21611 0.51078 0.0
C744 C 0.01121 0.20986 0.41013 0.0
C745 C 0.00515 0.22741 0.40043 0.0
C746 C 1.00416 0.19956 0.45585 0.0
C747 C 0.99114 0.20665 0.49377 0.0
C748 C 0.9866 0.22482 0.48845 0.0
H749 H 0.95905 0.10401 0.64883 0.0
H750 H 0.96322 0.13625 0.66181 0.0
C751 C 0.99338 0.23508 0.44165 0.0
C752 C 0.98106 0.19407 0.53264 0.0
H753 H 0.94086 0.17177 0.53699 0.0
C754 C 0.99102 0.18216 0.56734 0.0
C755 C 0.96242 0.19087 0.52484 0.0
C756 C 0.95078 0.20305 0.48822 0.0
C757 C 0.98364 0.16576 0.58638 0.0
C758 C 0.96551 0.16162 0.57247 0.0
C759 C 0.95484 0.17486 0.54637 0.0
C760 C 0.95886 0.14279 0.57026 0.0
C761 C 0.99588 0.15237 0.61547 0.0
C762 C 0.95336 0.13589 0.51579 0.0
C763 C 0.95026 0.11759 0.5087 0.0
C764 C 0.95298 0.10566 0.55559 0.0
C765 C 0.95696 0.11275 0.61146 0.0
C766 C 0.95965 0.13121 0.61886 0.0
H767 H 0.01007 0.15712 0.61703 0.0
H768 H 0.99131 0.15003 0.66122 0.0
H769 H 0.99549 0.13938 0.59184 0.0
H770 H 0.95242 0.14452 0.47757 0.0
H771 H 0.94656 0.11273 0.46561 0.0
H772 H 0.26805 0.03877 0.38312 0.0
H773 H 0.2922 0.03395 0.45279 0.0
H774 H 0.3106 0.08847 0.42681 0.0
H775 H 0.28662 0.09315 0.3551 0.0
H776 H 0.33511 0.06635 0.39597 0.0
H777 H 0.31133 0.04344 0.61258 0.0
H778 H 0.29986 0.03092 0.55693 0.0
H779 H 0.29673 0.05485 0.56161 0.0
C780 C 0.27674 0.04999 0.39419 0.0
C781 C 0.27562 0.06627 0.36326 0.0
C782 C 0.29052 0.04725 0.43453 0.0
C783 C 0.30324 0.06085 0.44539 0.0
C784 C 0.30094 0.07778 0.41917 0.0
H785 H 0.4102 0.03374 0.58237 0.0
H786 H 0.38071 0.04805 0.57839 0.0
C787 C 0.2873 0.08044 0.3781 0.0
C788 C 0.32079 0.05604 0.47157 0.0
H789 H 0.33988 0.03021 0.57846 0.0
C790 C 0.33618 0.05896 0.43691 0.0
C791 C 0.32231 0.04635 0.52491 0.0
C792 C 0.30665 0.0439 0.5663 0.0
C793 C 0.35265 0.05136 0.45175 0.0
C794 C 0.35373 0.04036 0.50207 0.0
C795 C 0.33881 0.03842 0.53925 0.0
C796 C 0.37003 0.02987 0.51325 0.0
C797 C 0.36863 0.05434 0.41183 0.0
C798 C 0.37346 0.01469 0.47896 0.0
C799 C 0.39027 0.00658 0.48071 0.0
C800 C 0.4039 0.01362 0.51662 0.0
C801 C 0.40003 0.02822 0.5535 0.0
C802 C 0.38318 0.03629 0.55183 0.0
H803 H 0.36647 0.0656 0.38064 0.0
H804 H 0.38091 0.05718 0.43794 0.0
H805 H 0.37104 0.04198 0.38606 0.0
H806 H 0.3634 0.00969 0.44866 0.0
H807 H 0.39287 0.99542 0.4517 0.0
H808 H 0.4791 0.29667 0.37072 0.0
H809 H 0.48848 0.31586 0.45129 0.0
H810 H 0.53438 0.28214 0.48211 0.0
H811 H 0.52554 0.26334 0.3988 0.0
H812 H 0.49731 0.31434 0.56842 0.0
H813 H 0.55815 0.32842 0.43089 0.0
H814 H 0.53985 0.31503 0.40288 0.0
H815 H 0.5545 0.30604 0.45809 0.0
C816 C 0.49109 0.29321 0.39502 0.0
C817 C 0.50189 0.27887 0.3773 0.0
C818 C 0.49633 0.30405 0.44161 0.0
C819 C 0.51239 0.30069 0.47173 0.0
C820 C 0.52217 0.2852 0.45849 0.0
H821 H 0.55102 0.40654 0.57739 0.0
H822 H 0.55108 0.37387 0.58977 0.0
C823 C 0.51701 0.2744 0.4112 0.0
C824 C 0.51988 0.31514 0.50897 0.0
H825 H 0.54878 0.35062 0.49451 0.0
C826 C 0.50896 0.322 0.55382 0.0
C827 C 0.53528 0.32501 0.49064 0.0
C828 C 0.54765 0.31837 0.44294 0.0
C829 C 0.51162 0.33945 0.57492 0.0
C830 C 0.52551 0.35014 0.55052 0.0
C831 C 0.53799 0.34238 0.51243 0.0
C832 C 0.52475 0.36991 0.55175 0.0
C833 C 0.49858 0.34682 0.61922 0.0
C834 C 0.51007 0.37838 0.52539 0.0
C835 C 0.5102 0.39686 0.51657 0.0
C836 C 0.52499 0.40734 0.53433 0.0
C837 C 0.53955 0.39885 0.56207 0.0
C838 C 0.53951 0.38024 0.57011 0.0
H839 H 0.49409 0.33616 0.65029 0.0
H840 H 0.50463 0.35803 0.64444 0.0
H841 H 0.48652 0.35185 0.59602 0.0
H842 H 0.4988 0.37058 0.50903 0.0
H843 H 0.49891 0.40282 0.49405 0.0
H844 H 0.23747 0.43923 0.40424 0.0
H845 H 0.21311 0.44225 0.47618 0.0
H846 H 0.17463 0.44467 0.33506 0.0
H847 H 0.19848 0.44192 0.26394 0.0
H848 H 0.19311 0.47134 0.48476 0.0
H849 H 0.14691 0.41478 0.44953 0.0
H850 H 0.16995 0.41429 0.42441 0.0
H851 H 0.1526 0.42388 0.37906 0.0
C852 C 0.22375 0.43998 0.38873 0.0
C853 C 0.21999 0.44031 0.32814 0.0
C854 C 0.20986 0.44161 0.42991 0.0
C855 C 0.192 0.44338 0.41114 0.0
C856 C 0.18819 0.4427 0.35091 0.0
H857 H 0.11386 0.51651 0.44467 0.0
H858 H 0.14184 0.49975 0.44737 0.0
C859 C 0.20197 0.44113 0.30999 0.0
C860 C 0.17758 0.44894 0.45197 0.0
H861 H 0.13228 0.44421 0.4676 0.0
C862 C 0.17991 0.46508 0.4828 0.0
C863 C 0.16046 0.44057 0.45141 0.0
C864 C 0.15744 0.4223 0.42482 0.0
C865 C 0.16513 0.47416 0.50627 0.0
C866 C 0.14765 0.46716 0.49699 0.0
C867 C 0.14563 0.44992 0.47316 0.0
C868 C 0.13143 0.4784 0.503 0.0
C869 C 0.16833 0.49158 0.53818 0.0
C870 C 0.11616 0.4719 0.53261 0.0
C871 C 0.10009 0.48142 0.53066 0.0
C872 C 0.09896 0.4975 0.4984 0.0
C873 C 0.11439 0.50427 0.47034 0.0
C874 C 0.13044 0.49474 0.47229 0.0
H875 H 0.18123 0.49122 0.56262 0.0
H876 H 0.16931 0.5027 0.50577 0.0
H877 H 0.1573 0.49451 0.56952 0.0
H878 H 0.11658 0.45929 0.55632 0.0
H879 H 0.08846 0.47607 0.55365 0.0
H880 H 0.09368 0.80422 0.03917 0.0
H881 H 0.09617 0.82732 0.96357 0.0
H882 H 0.0626 0.79574 0.84875 0.0
H883 H 0.05887 0.77321 0.9256 0.0
H884 H 0.10502 0.83268 0.84766 0.0
H885 H 0.0311 0.83829 0.8822 0.0
H886 H 0.04485 0.82406 0.92721 0.0
H887 H 0.03859 0.81715 0.85442 0.0
C888 C 0.08697 0.80206 0.99761 0.0
C889 C 0.07552 0.78716 0.98945 0.0
C890 C 0.08859 0.8152 0.95412 0.0
C891 C 0.07904 0.81352 0.90138 0.0
C892 C 0.06965 0.79752 0.8899 0.0
H893 H 0.04424 0.90844 0.70834 0.0
H894 H 0.05313 0.87716 0.72145 0.0
C895 C 0.06772 0.78452 0.93383 0.0
C896 C 0.07662 0.82957 0.86381 0.0
H897 H 0.04502 0.86034 0.82556 0.0
C898 C 0.09187 0.8386 0.84185 0.0
C899 C 0.05943 0.83732 0.85651 0.0
C900 C 0.04256 0.82883 0.88164 0.0
C901 C 0.09046 0.85551 0.81493 0.0
C902 C 0.07339 0.86355 0.81031 0.0
C903 C 0.05807 0.85406 0.82897 0.0
C904 C 0.07109 0.88261 0.79392 0.0
C905 C 0.10725 0.86484 0.79318 0.0
C906 C 0.07847 0.89605 0.82973 0.0
C907 C 0.07327 0.91387 0.82285 0.0
C908 C 0.06049 0.91855 0.78023 0.0
C909 C 0.05389 0.9052 0.74224 0.0
C910 C 0.05908 0.88737 0.74923 0.0
H911 H 0.11785 0.85502 0.78187 0.0
H912 H 0.10444 0.87327 0.75405 0.0
H913 H 0.11259 0.87364 0.82838 0.0
H914 H 0.08739 0.89261 0.86551 0.0
H915 H 0.07845 0.92378 0.85323 0.0
H916 H 0.69651 0.94344 0.06026 0.0
H917 H 0.6727 0.94645 0.98926 0.0
H918 H 0.71158 0.94878 0.84882 0.0
H919 H 0.73587 0.94511 0.92019 0.0
H920 H 0.69052 0.97853 0.85387 0.0
H921 H 0.64673 0.91875 0.86247 0.0
H922 H 0.65237 0.92549 0.93562 0.0
H923 H 0.66988 0.9183 0.8864 0.0
C924 C 0.70014 0.94367 0.01424 0.0
C925 C 0.71825 0.94415 0.99628 0.0
C926 C 0.68638 0.94542 0.97342 0.0
C927 C 0.69033 0.94769 0.91365 0.0
C928 C 0.70826 0.94694 0.89479 0.0
H929 H 0.58852 0.98166 0.75784 0.0
H930 H 0.61766 0.96664 0.75741 0.0
C931 C 0.72212 0.945 0.93574 0.0
C932 C 0.67596 0.95414 0.8743 0.0
H933 H 0.63122 0.94769 0.85013 0.0
C934 C 0.6777 0.97155 0.85114 0.0
C935 C 0.65933 0.94496 0.86961 0.0
C936 C 0.65706 0.92575 0.88934 0.0
C937 C 0.6627 0.98075 0.82983 0.0
C938 C 0.64562 0.97238 0.83269 0.0
C939 C 0.64428 0.95426 0.84922 0.0
C940 C 0.62887 0.98276 0.82733 0.0
C941 C 0.66513 0.99968 0.80753 0.0
C942 C 0.62556 0.99681 0.86673 0.0
C943 C 0.60893 0.00529 0.86748 0.0
C944 C 0.59523 0.99974 0.8292 0.0
C945 C 0.59873 0.986 0.78862 0.0
C946 C 0.61539 0.97751 0.7879 0.0
H947 H 0.67873 1.00169 0.78825 0.0
H948 H 0.65489 1.00306 0.77393 0.0
H949 H 0.66377 0.00915 0.84474 0.0
H950 H 0.63562 1.00075 0.89861 0.0
H951 H 0.60656 0.0157 0.89957 0.0
H952 H 0.49923 0.75598 0.9165 0.0
H953 H 0.48565 0.7364 0.84276 0.0
H954 H 0.5259 0.69649 0.87813 0.0
H955 H 0.54024 0.71644 0.94833 0.0
H956 H 0.51446 0.69419 0.7674 0.0
H957 H 0.45532 0.69815 0.91775 0.0
H958 H 0.46195 0.71818 0.87928 0.0
H959 H 0.47629 0.70905 0.93518 0.0
C960 C 0.50565 0.74336 0.90668 0.0
C961 C 0.5205 0.73748 0.93958 0.0
C962 C 0.4977 0.73208 0.86504 0.0
C963 C 0.50428 0.71469 0.85684 0.0
C964 C 0.52038 0.70975 0.88434 0.0
H965 H 0.47478 0.61331 0.90525 0.0
H966 H 0.47658 0.64597 0.89871 0.0
C967 C 0.5285 0.7211 0.92499 0.0
C968 C 0.49337 0.70047 0.82832 0.0
H969 H 0.45741 0.67319 0.85817 0.0
C970 C 0.50173 0.68976 0.78595 0.0
C971 C 0.47665 0.69486 0.85239 0.0
C972 C 0.467 0.70555 0.89883 0.0
C973 C 0.49509 0.67259 0.77259 0.0
C974 C 0.47924 0.66632 0.80087 0.0
C975 C 0.46966 0.67799 0.83723 0.0
C976 C 0.47462 0.64696 0.80373 0.0
C977 C 0.50614 0.66075 0.7331 0.0
C978 C 0.47203 0.6367 0.75287 0.0
C979 C 0.47133 0.61799 0.75671 0.0
C980 C 0.4727 0.60941 0.81152 0.0
C981 C 0.47357 0.6197 0.86267 0.0
C982 C 0.47463 0.63834 0.85878 0.0
H983 H 0.51936 0.66689 0.72171 0.0
H984 H 0.50859 0.64759 0.75448 0.0
H985 H 0.49876 0.65834 0.69158 0.0
H986 H 0.47144 0.64305 0.71014 0.0
H987 H 0.47052 0.61018 0.71678 0.0
H988 H 0.81138 0.58036 0.04356 0.0
H989 H 0.83473 0.57767 0.97055 0.0
H990 H 0.79512 0.5787 0.83268 0.0
H991 H 0.7713 0.5819 0.90631 0.0
H992 H 0.81543 0.54891 0.8287 0.0
H993 H 0.86087 0.60703 0.84855 0.0
H994 H 0.8556 0.59884 0.92061 0.0
H995 H 0.83792 0.60752 0.87472 0.0
C996 C 0.80753 0.5809 0.9978 0.0
C997 C 0.78935 0.5813 0.98109 0.0
C998 C 0.82101 0.57934 0.95581 0.0
C999 C 0.81672 0.57819 0.89604 0.0
C1000 C 0.79872 0.57968 0.87861 0.0
H1001 H 0.91846 0.54557 0.73887 0.0
H1002 H 0.88967 0.56123 0.73852 0.0
C1003 C 0.78513 0.58138 0.9208 0.0
C1004 C 0.83078 0.57226 0.85456 0.0
H1005 H 0.87567 0.57786 0.83095 0.0
C1006 C 0.82847 0.55553 0.82733 0.0
C1007 C 0.84767 0.58103 0.8513 0.0
C1008 C 0.85056 0.5997 0.87487 0.0
C1009 C 0.84315 0.5464 0.80347 0.0
C1010 C 0.86052 0.55408 0.8082 0.0
C1011 C 0.86241 0.57174 0.82866 0.0
C1012 C 0.87694 0.54326 0.80106 0.0
C1013 C 0.84005 0.52822 0.77632 0.0
C1014 C 0.8793 0.5279 0.83606 0.0
C1015 C 0.8957 0.51899 0.83652 0.0
C1016 C 0.91014 0.52543 0.8026 0.0
C1017 C 0.90762 0.54049 0.76622 0.0
C1018 C 0.89116 0.54936 0.76556 0.0
H1019 H 0.82661 0.52747 0.75524 0.0
H1020 H 0.85048 0.52512 0.74302 0.0
H1021 H 0.84041 0.5178 0.8112 0.0
H1022 H 0.8687 0.52326 0.86518 0.0
H1023 H 0.89732 0.50754 0.86536 0.0
H1024 H 0.02322 0.18766 0.97955 0.0
H1025 H 0.01889 0.15992 0.92525 0.0
H1026 H 1.0032 0.19007 0.77219 0.0
H1027 H 0.00808 0.21821 0.82614 0.0
H1028 H 0.98713 0.14737 0.87373 0.0
H1029 H 0.04134 0.15564 0.70669 0.0
H1030 H 0.04058 0.1691 0.77242 0.0
H1031 H 0.0254 0.17353 0.71309 0.0
C1032 C 0.0192 0.18853 0.93398 0.0
C1033 C 0.0163 0.2053 0.90709 0.0
C1034 C 0.01655 0.17257 0.90309 0.0
C1035 C 0.01094 0.17285 0.84438 0.0
C1036 C 0.00784 0.1895 0.81717 0.0
H1037 H 0.99374 0.07637 0.62566 0.0
H1038 H 0.99478 0.10773 0.65819 0.0
C1039 C 0.01048 0.20558 0.84825 0.0
C1040 C 0.00794 0.15551 0.81324 0.0
H1041 H 0.02478 0.12859 0.70524 0.0
C1042 C 0.99527 0.14335 0.83654 0.0
C1043 C 0.01843 0.15028 0.76438 0.0
C1044 C 0.0323 0.16272 0.73764 0.0
C1045 C 0.99315 0.126 0.81352 0.0
C1046 C 1.00424 0.12045 0.7666 0.0
C1047 C 0.01641 0.13281 0.74159 0.0
C1048 C 1.00411 0.10155 0.74571 0.0
C1049 C 0.97915 0.11365 0.84004 0.0
C1050 C 0.0094 0.08769 0.78365 0.0
C1051 C 0.00902 0.06982 0.76514 0.0
C1052 C 1.0033 0.06534 0.70817 0.0
C1053 C 0.9982 0.07929 0.66988 0.0
C1054 C 0.99876 0.09724 0.68836 0.0
H1055 H 0.96869 0.12122 0.86413 0.0
H1056 H 0.97253 0.1054 0.80567 0.0
H1057 H 0.98572 0.10445 0.87163 0.0
H1058 H 0.01384 0.09072 0.82781 0.0
H1059 H 0.01308 0.05949 0.7958 0.0
H1060 H 0.31847 0.05382 0.9524 0.0
H1061 H 0.34748 0.04946 0.90542 0.0
H1062 H 0.32288 0.01431 0.7784 0.0
H1063 H 0.2934 0.01905 0.82453 0.0
H1064 H 0.36522 0.01704 0.89277 0.0
H1065 H 0.35318 0.04853 0.6746 0.0
H1066 H 0.33861 0.05235 0.73675 0.0
H1067 H 0.33739 0.03152 0.69767 0.0
C1068 C 0.31905 0.04543 0.91373 0.0
C1069 C 0.30343 0.037 0.89188 0.0
C1070 C 0.33575 0.04284 0.88714 0.0
C1071 C 0.3374 0.03176 0.83783 0.0
C1072 C 0.32192 0.0232 0.81574 0.0
H1073 H 0.43621 0.00587 0.64433 0.0
H1074 H 0.40486 0.00816 0.67552 0.0
C1075 C 0.30509 0.02578 0.84254 0.0
C1076 C 0.35559 0.02866 0.81227 0.0
H1077 H 0.3819 0.0364 0.69125 0.0
C1078 C 0.36883 0.02123 0.84861 0.0
C1079 C 0.36029 0.03392 0.75439 0.0
C1080 C 0.34671 0.04214 0.71349 0.0
C1081 C 0.38663 0.01918 0.82926 0.0
C1082 C 0.39156 0.02515 0.77232 0.0
C1083 C 0.3782 0.03202 0.73511 0.0
C1084 C 0.41057 0.02462 0.75137 0.0
C1085 C 0.39994 0.01043 0.86999 0.0
C1086 C 0.42426 0.0335 0.78257 0.0
C1087 C 0.44226 0.03214 0.7651 0.0
C1088 C 0.44699 0.02203 0.71545 0.0
C1089 C 0.43315 0.01374 0.68288 0.0
C1090 C 0.41516 0.01503 0.70065 0.0
H1091 H 0.39309 1.00182 0.90323 0.0
H1092 H 0.40966 1.00211 0.84532 0.0
H1093 H 0.40755 0.02099 0.89382 0.0
H1094 H 0.42105 0.04138 0.82097 0.0
H1095 H 0.45247 0.03886 0.79096 0.0
H1096 H 0.51673 0.31319 0.90317 0.0
H1097 H 0.51794 0.34338 0.86056 0.0
H1098 H 0.46161 0.33957 0.81802 0.0
H1099 H 0.46024 0.30954 0.86177 0.0
H1100 H 0.51155 0.3582 0.75501 0.0
H1101 H 0.46235 0.38442 0.91537 0.0
H1102 H 0.47201 0.36242 0.92222 0.0
H1103 H 0.45358 0.36618 0.87272 0.0
C1104 C 0.50466 0.31866 0.88392 0.0
C1105 C 0.48835 0.30898 0.88639 0.0
C1106 C 0.50535 0.33599 0.85976 0.0
C1107 C 0.48976 0.34403 0.83737 0.0
C1108 C 0.4737 0.33396 0.83666 0.0
H1109 H 0.49047 0.44484 0.63532 0.0
H1110 H 0.48867 0.41328 0.66506 0.0
C1111 C 0.47296 0.31672 0.86137 0.0
C1112 C 0.49022 0.36309 0.81666 0.0
H1113 H 0.4711 0.4041 0.83847 0.0
C1114 C 0.50268 0.36823 0.77317 0.0
C1115 C 0.47892 0.37634 0.84115 0.0
C1116 C 0.46609 0.37214 0.89085 0.0
C1117 C 0.50399 0.3861 0.75307 0.0
C1118 C 0.49229 0.39922 0.7763 0.0
C1119 C 0.47995 0.39409 0.82012 0.0
C1120 C 0.49302 0.41846 0.75751 0.0
C1121 C 0.51826 0.39083 0.70834 0.0
C1122 C 0.49526 0.43211 0.79946 0.0
C1123 C 0.49606 0.45019 0.78239 0.0
C1124 C 0.49475 0.45505 0.72288 0.0
C1125 C 0.49206 0.44145 0.68114 0.0
C1126 C 0.49107 0.42338 0.69822 0.0
H1127 H 0.52896 0.38054 0.70651 0.0
H1128 H 0.51202 0.39162 0.66426 0.0
H1129 H 0.52457 0.40403 0.71811 0.0
H1130 H 0.49667 0.42875 0.84552 0.0
H1131 H 0.49817 0.46032 0.81569 0.0
H1132 H 0.21184 0.50969 0.8282 0.0
H1133 H 0.18257 0.51465 0.78063 0.0
H1134 H 0.15737 0.47838 0.90404 0.0
H1135 H 0.18624 0.47351 0.95169 0.0
H1136 H 0.15736 0.48639 0.73183 0.0
H1137 H 0.1281 0.52624 0.91308 0.0
H1138 H 0.15204 0.5236 0.90346 0.0
H1139 H 0.13881 0.50585 0.93569 0.0
C1140 C 0.20003 0.50285 0.84523 0.0
C1141 C 0.20144 0.4911 0.89352 0.0
C1142 C 0.18335 0.50563 0.81788 0.0
C1143 C 0.16777 0.49696 0.83904 0.0
C1144 C 0.16917 0.4853 0.88719 0.0
H1145 H 0.05358 0.49096 0.78771 0.0
H1146 H 0.08489 0.48903 0.81893 0.0
C1147 C 0.18576 0.48242 0.91409 0.0
C1148 C 0.14991 0.49986 0.81143 0.0
H1149 H 0.10774 0.51504 0.84171 0.0
C1150 C 0.14652 0.49283 0.7554 0.0
C1151 C 0.1358 0.50824 0.84231 0.0
C1152 C 0.13883 0.51657 0.90178 0.0
C1153 C 0.12918 0.4932 0.7306 0.0
C1154 C 0.11489 0.50118 0.76228 0.0
C1155 C 0.11854 0.50875 0.8175 0.0
C1156 C 0.09594 0.50139 0.74046 0.0
C1157 C 0.12624 0.48439 0.67187 0.0
C1158 C 0.09154 0.50886 0.68562 0.0
C1159 C 0.07359 0.50975 0.66728 0.0
C1160 C 0.05955 0.5035 0.70381 0.0
C1161 C 0.06399 0.49593 0.75845 0.0
C1162 C 0.08194 0.49486 0.77643 0.0
H1163 H 0.13701 0.47465 0.66153 0.0
H1164 H 0.11308 0.47728 0.67035 0.0
H1165 H 0.12643 0.49483 0.63707 0.0
H1166 H 0.10193 0.51443 0.65747 0.0
H1167 H 0.07069 0.5158 0.62512 0.0
H1168 H 0.02735 0.82459 0.3715 0.0
H1169 H 0.02344 0.85346 0.41919 0.0
H1170 H 0.97408 0.83448 0.49802 0.0
H1171 H 0.97786 0.80531 0.44952 0.0
H1172 H 0.97064 0.86823 0.4546 0.0
H1173 H 0.03226 0.86553 0.58894 0.0
H1174 H 0.03718 0.86222 0.5127 0.0
H1175 H 0.02336 0.84611 0.55145 0.0
C1176 C 0.01577 0.8264 0.39967 0.0
C1177 C 1.00309 0.81246 0.40754 0.0
C1178 C 0.01357 0.84297 0.42704 0.0
C1179 C 0.99873 0.84606 0.46361 0.0
C1180 C 0.98576 0.83236 0.47056 0.0
H1181 H 0.99976 0.94377 0.67803 0.0
H1182 H 0.99877 0.91244 0.64676 0.0
C1183 C 0.9879 0.81571 0.44274 0.0
C1184 C 0.99669 0.86382 0.49271 0.0
H1185 H 0.0195 0.89473 0.5751 0.0
C1186 C 0.98122 0.87394 0.48155 0.0
C1187 C 0.0103 0.87121 0.52897 0.0
C1188 C 0.02661 0.86061 0.54677 0.0
C1189 C 0.97938 0.89148 0.50333 0.0
C1190 C 0.99361 0.89935 0.53593 0.0
C1191 C 0.00869 0.88891 0.54932 0.0
C1192 C 0.99337 0.91845 0.55544 0.0
C1193 C 0.96213 0.90131 0.49142 0.0
C1194 C 0.99085 0.9324 0.51468 0.0
C1195 C 0.99127 0.95035 0.53261 0.0
C1196 C 0.99456 0.95481 0.5916 0.0
C1197 C 0.99724 0.94085 0.63228 0.0
C1198 C 0.99665 0.92289 0.61442 0.0
H1199 H 0.95074 0.8918 0.48466 0.0
H1200 H 0.95867 0.91045 0.52803 0.0
H1201 H 0.96367 0.90938 0.45069 0.0
H1202 H 0.98888 0.92945 0.46863 0.0
H1203 H 0.98937 0.96074 0.49992 0.0
H1204 H 0.6944 0.01806 0.39077 0.0
H1205 H 0.6647 0.02129 0.43541 0.0
H1206 H 0.6739 0.97432 0.54178 0.0
H1207 H 0.70362 0.97099 0.49716 0.0
H1208 H 0.642 0.97232 0.48573 0.0
H1209 H 0.64791 0.03837 0.59468 0.0
H1210 H 0.65398 0.0392 0.51844 0.0
H1211 H 0.66723 0.02621 0.56879 0.0
C1212 C 0.69032 0.00869 0.42478 0.0
C1213 C 0.70146 0.99426 0.44032 0.0
C1214 C 0.67328 0.01054 0.45031 0.0
C1215 C 0.66704 0.99814 0.49245 0.0
C1216 C 0.67836 0.98407 0.50938 0.0
H1217 H 0.56699 0.00896 0.69186 0.0
H1218 H 0.59844 0.00636 0.66219 0.0
C1219 C 0.69536 0.98216 0.48376 0.0
C1220 C 0.64828 0.99903 0.51551 0.0
H1221 H 0.61816 0.02652 0.58335 0.0
C1222 C 0.63685 0.98414 0.50743 0.0
C1223 C 0.64154 0.01434 0.54454 0.0
C1224 C 0.65334 0.03037 0.55771 0.0
C1225 C 0.61883 0.9843 0.52615 0.0
C1226 C 0.61185 0.99991 0.55272 0.0
C1227 C 0.6234 0.01463 0.56229 0.0
C1228 C 0.59262 1.00123 0.57072 0.0
C1229 C 0.60748 0.96762 0.5179 0.0
C1230 C 0.57879 0.99934 0.5292 0.0
C1231 C 0.56073 1.00073 0.54604 0.0
C1232 C 0.55608 0.00423 0.60477 0.0
C1233 C 0.57 0.00624 0.64622 0.0
C1234 C 0.58804 0.00479 0.62934 0.0
H1235 H 0.61591 0.95549 0.5129 0.0
H1236 H 0.5982 0.96551 0.55555 0.0
H1237 H 0.59933 0.96908 0.47747 0.0
H1238 H 0.58197 0.99697 0.48348 0.0
H1239 H 0.55044 0.99927 0.51282 0.0
H1240 H 0.539 0.70685 0.43407 0.0
H1241 H 0.53844 0.67676 0.47775 0.0
H1242 H 0.48061 0.67591 0.46838 0.0
H1243 H 0.48102 0.70599 0.42514 0.0
H1244 H 0.52154 0.66127 0.5784 0.0
H1245 H 0.49548 0.63192 0.37137 0.0
H1246 H 0.50454 0.65441 0.37523 0.0
H1247 H 0.48209 0.64974 0.40055 0.0
C1248 C 0.52613 0.70045 0.44245 0.0
C1249 C 0.51006 0.70883 0.42542 0.0
C1250 C 0.52584 0.68317 0.46715 0.0
C1251 C 0.50951 0.67389 0.47518 0.0
C1252 C 0.49341 0.68261 0.46134 0.0
H1253 H 0.49008 0.57388 0.66507 0.0
H1254 H 0.49156 0.60505 0.63213 0.0
C1255 C 0.49367 0.69985 0.43666 0.0
C1256 C 0.50933 0.65483 0.49544 0.0
H1257 H 0.49723 0.61241 0.45338 0.0
C1258 C 0.51624 0.65058 0.55108 0.0
C1259 C 0.50269 0.64081 0.45944 0.0
C1260 C 0.49593 0.64435 0.3981 0.0
C1261 C 0.51639 0.63277 0.57199 0.0
C1262 C 0.50922 0.61884 0.53666 0.0
C1263 C 0.5026 0.62307 0.48067 0.0
C1264 C 0.50845 0.59978 0.5569 0.0
C1265 C 0.52461 0.62894 0.63116 0.0
C1266 C 0.51695 0.58622 0.52461 0.0
C1267 C 0.51609 0.56828 0.54336 0.0
C1268 C 0.50668 0.56352 0.59482 0.0
C1269 C 0.49788 0.5771 0.62628 0.0
C1270 C 0.49872 0.59498 0.60749 0.0
H1271 H 0.53319 0.64024 0.64654 0.0
H1272 H 0.51375 0.62677 0.6639 0.0
H1273 H 0.53284 0.61659 0.62962 0.0
H1274 H 0.5244 0.58955 0.48509 0.0
H1275 H 0.52296 0.55819 0.51788 0.0
H1276 H 0.81229 0.50809 0.37992 0.0
H1277 H 0.84187 0.50501 0.42518 0.0
H1278 H 0.83191 0.55158 0.5317 0.0
H1279 H 0.80232 0.5548 0.48632 0.0
H1280 H 0.86386 0.55415 0.47693 0.0
H1281 H 0.85855 0.48756 0.58393 0.0
H1282 H 0.8527 0.48686 0.50759 0.0
H1283 H 0.83914 0.49953 0.5578 0.0
C1284 C 0.81618 0.5174 0.41411 0.0
C1285 C 0.80488 0.53169 0.42945 0.0
C1286 C 0.83315 0.51562 0.44001 0.0
C1287 C 0.83914 0.52796 0.48236 0.0
C1288 C 0.82764 0.54189 0.49915 0.0
H1289 H 0.93965 0.51614 0.67827 0.0
H1290 H 0.90809 0.51904 0.65048 0.0
C1291 C 0.81071 0.54372 0.47311 0.0
C1292 C 0.85786 0.52719 0.50565 0.0
H1293 H 0.88826 0.49961 0.57186 0.0
C1294 C 0.86913 0.54225 0.4981 0.0
C1295 C 0.86475 0.5118 0.53407 0.0
C1296 C 0.8531 0.49559 0.54692 0.0
C1297 C 0.88716 0.54217 0.51655 0.0
C1298 C 0.89431 0.52645 0.54219 0.0
C1299 C 0.8829 0.51158 0.55145 0.0
C1300 C 0.91359 0.52513 0.55924 0.0
C1301 C 0.89832 0.55901 0.50894 0.0
C1302 C 0.92728 0.52747 0.51722 0.0
C1303 C 0.9454 0.52588 0.53302 0.0
C1304 C 0.95024 0.52177 0.59116 0.0
C1305 C 0.93648 0.5194 0.63314 0.0
C1306 C 0.91838 0.52101 0.61731 0.0
H1307 H 0.88975 0.57109 0.5052 0.0
H1308 H 0.90771 0.5609 0.54627 0.0
H1309 H 0.90634 0.55799 0.46801 0.0
H1310 H 0.92395 0.53026 0.47187 0.0
H1311 H 0.95558 0.52764 0.49941 0.0
loop_
_geom_bond_atom_site_label_1
_geom_bond_atom_site_label_2
_geom_bond_distance
_geom_bond_site_symmetry_2
_ccdc_geom_bond_type
C0 C1 1.384 . S
C0 H13 0.947 . S
C0 C35 1.382 . S
C1 C0 1.384 . S
C1 C2 1.378 . S
C2 C1 1.378 . S
C2 C3 1.378 . S
C2 H14 0.952 . S
C3 C2 1.378 . S
C3 H15 0.950 . S
C3 C34 1.383 . S
H4 C23 0.947 . S
H5 C24 0.946 . S
H6 C26 0.953 . S
H7 C27 0.945 . S
H8 C29 0.952 . S
H9 C30 0.949 . S
H10 C32 0.950 . S
H11 C33 0.948 . S
H12 C35 0.951 . S
H13 C0 0.947 . S
H14 C2 0.952 . S
H15 C3 0.950 . S
N16 C19 1.382 . S
N16 C21 1.363 . S
N17 C19 1.371 . S
N17 C20 1.372 . S
N18 C20 1.361 . S
N18 C21 1.377 . S
C19 N16 1.382 . S
C19 N17 1.371 . S
C19 C22 1.480 . S
C20 N17 1.372 . S
C20 N18 1.361 . S
C20 C28 1.457 . S
C21 N16 1.363 . S
C21 N18 1.377 . S
C21 C34 1.479 . S
C22 C19 1.480 . S
C22 C23 1.383 . S
C22 C27 1.385 . S
C23 H4 0.947 . S
C23 C22 1.383 . S
C23 C24 1.388 . S
C24 H5 0.946 . S
C24 C23 1.388 . S
C24 C25 1.384 . S
C25 C24 1.384 . S
C25 C26 1.377 . S
C26 H6 0.953 . S
C26 C25 1.377 . S
C26 C27 1.369 . S
C27 H7 0.945 . S
C27 C22 1.385 . S
C27 C26 1.369 . S
C28 C20 1.457 . S
C28 C29 1.372 . S
C28 C33 1.364 . S
C29 H8 0.952 . S
C29 C28 1.372 . S
C29 C30 1.389 . S
C30 H9 0.949 . S
C30 C29 1.389 . S
C30 C31 1.387 . S
C31 C30 1.387 . S
C31 C32 1.372 . S
C32 H10 0.950 . S
C32 C31 1.372 . S
C32 C33 1.379 . S
C33 H11 0.948 . S
C33 C28 1.364 . S
C33 C32 1.379 . S
C34 C3 1.383 . S
C34 C21 1.479 . S
C34 C35 1.398 . S
C35 C0 1.382 . S
C35 H12 0.951 . S
C35 C34 1.398 . S
C36 C37 1.381 1_655 S
C36 H49 0.948 . S
C36 C71 1.382 1_655 S
C37 C36 1.381 1_455 S
C37 C38 1.388 . S
C38 C37 1.388 . S
C38 C39 1.378 . S
C38 H50 0.952 . S
C39 C38 1.378 . S
C39 H51 0.950 . S
C39 C70 1.383 . S
H40 C59 0.947 . S
H41 C60 0.952 . S
H42 C62 0.953 . S
H43 C63 0.945 . S
H44 C65 0.950 1_655 S
H45 C66 0.956 . S
H46 C68 0.950 . S
H47 C69 0.948 . S
H48 C71 0.952 1_655 S
H49 C36 0.948 . S
H50 C38 0.952 . S
H51 C39 0.950 . S
N52 C55 1.382 . S
N52 C57 1.363 . S
N53 C55 1.371 . S
N53 C56 1.372 . S
N54 C56 1.361 . S
N54 C57 1.377 . S
C55 N52 1.382 . S
C55 N53 1.371 . S
C55 C58 1.480 . S
C56 N53 1.372 . S
C56 N54 1.361 . S
C56 C64 1.457 . S
C57 N52 1.363 . S
C57 N54 1.377 . S
C57 C70 1.479 . S
C58 C55 1.480 . S
C58 C59 1.383 . S
C58 C63 1.385 . S
C59 H40 0.947 . S
C59 C58 1.383 . S
C59 C60 1.386 1_455 S
C60 H41 0.952 . S
C60 C59 1.386 1_655 S
C60 C61 1.381 1_655 S
C61 C60 1.381 1_455 S
C61 C62 1.377 . S
C62 H42 0.953 . S
C62 C61 1.377 . S
C62 C63 1.369 . S
C63 H43 0.945 . S
C63 C58 1.385 . S
C63 C62 1.369 . S
C64 C56 1.457 . S
C64 C65 1.375 . S
C64 C69 1.364 . S
C65 H44 0.950 1_455 S
C65 C64 1.375 . S
C65 C66 1.386 1_455 S
C66 H45 0.956 . S
C66 C65 1.386 1_655 S
C66 C67 1.383 1_655 S
C67 C66 1.383 1_455 S
C67 C68 1.372 . S
C68 H46 0.950 . S
C68 C67 1.372 . S
C68 C69 1.379 . S
C69 H47 0.948 . S
C69 C64 1.364 . S
C69 C68 1.379 . S
C70 C39 1.383 . S
C70 C57 1.479 . S
C70 C71 1.397 . S
C71 C36 1.382 1_455 S
C71 H48 0.952 1_455 S
C71 C70 1.397 . S
C72 C73 1.384 . S
C72 H85 0.947 . S
C72 C107 1.382 . S
C73 C72 1.384 . S
C73 C74 1.378 . S
C74 C73 1.378 . S
C74 C75 1.378 . S
C74 H86 0.952 . S
C75 C74 1.378 . S
C75 H87 0.950 . S
C75 C106 1.383 . S
H76 C95 0.947 . S
H77 C96 0.946 . S
H78 C98 0.953 . S
H79 C99 0.945 . S
H80 C101 0.952 . S
H81 C102 0.949 . S
H82 C104 0.950 . S
H83 C105 0.948 . S
H84 C107 0.951 . S
H85 C72 0.947 . S
H86 C74 0.952 . S
H87 C75 0.950 . S
N88 C91 1.382 . S
N88 C93 1.363 . S
N89 C91 1.371 . S
N89 C92 1.372 . S
N90 C92 1.361 . S
N90 C93 1.377 . S
C91 N88 1.382 . S
C91 N89 1.371 . S
C91 C94 1.480 . S
C92 N89 1.372 . S
C92 N90 1.361 . S
C92 C100 1.457 . S
C93 N88 1.363 . S
C93 N90 1.377 . S
C93 C106 1.479 . S
C94 C91 1.480 . S
C94 C95 1.383 . S
C94 C99 1.385 . S
C95 H76 0.947 . S
C95 C94 1.383 . S
C95 C96 1.388 . S
C96 H77 0.946 . S
C96 C95 1.388 . S
C96 C97 1.384 . S
C97 C96 1.384 . S
C97 C98 1.377 . S
C98 H78 0.953 . S
C98 C97 1.377 . S
C98 C99 1.369 . S
C99 H79 0.945 . S
C99 C94 1.385 . S
C99 C98 1.369 . S
C100 C92 1.457 . S
C100 C101 1.372 . S
C100 C105 1.364 . S
C101 H80 0.952 . S
C101 C100 1.372 . S
C101 C102 1.389 . S
C102 H81 0.949 . S
C102 C101 1.389 . S
C102 C103 1.387 . S
C103 C102 1.387 . S
C103 C104 1.372 . S
C104 H82 0.950 . S
C104 C103 1.372 . S
C104 C105 1.379 . S
C105 H83 0.948 . S
C105 C100 1.364 . S
C105 C104 1.379 . S
C106 C75 1.383 . S
C106 C93 1.479 . S
C106 C107 1.398 . S
C107 C72 1.382 . S
C107 H84 0.951 . S
C107 C106 1.398 . S
C108 C109 1.384 . S
C108 H121 0.947 . S
C108 C143 1.382 . S
C109 C108 1.384 . S
C109 C110 1.378 . S
C110 C109 1.378 . S
C110 C111 1.378 . S
C110 H122 0.952 . S
C111 C110 1.378 . S
C111 H123 0.950 . S
C111 C142 1.383 . S
H112 C131 0.947 . S
H113 C132 0.946 . S
H114 C134 0.953 . S
H115 C135 0.945 . S
H116 C137 0.952 . S
H117 C138 0.949 . S
H118 C140 0.950 . S
H119 C141 0.948 . S
H120 C143 0.951 . S
H121 C108 0.947 . S
H122 C110 0.952 . S
H123 C111 0.950 . S
N124 C127 1.382 . S
N124 C129 1.363 . S
N125 C127 1.371 . S
N125 C128 1.372 . S
N126 C128 1.361 . S
N126 C129 1.377 . S
C127 N124 1.382 . S
C127 N125 1.371 . S
C127 C130 1.480 . S
C128 N125 1.372 . S
C128 N126 1.361 . S
C128 C136 1.457 . S
C129 N124 1.363 . S
C129 N126 1.377 . S
C129 C142 1.479 . S
C130 C127 1.480 . S
C130 C131 1.383 . S
C130 C135 1.385 . S
C131 H112 0.947 . S
C131 C130 1.383 . S
C131 C132 1.388 . S
C132 H113 0.946 . S
C132 C131 1.388 . S
C132 C133 1.384 . S
C133 C132 1.384 . S
C133 C134 1.377 . S
C134 H114 0.953 . S
C134 C133 1.377 . S
C134 C135 1.369 . S
C135 H115 0.945 . S
C135 C130 1.385 . S
C135 C134 1.369 . S
C136 C128 1.457 . S
C136 C137 1.372 . S
C136 C141 1.364 . S
C137 H116 0.952 . S
C137 C136 1.372 . S
C137 C138 1.389 . S
C138 H117 0.949 . S
C138 C137 1.389 . S
C138 C139 1.387 . S
C139 C138 1.387 . S
C139 C140 1.372 . S
C140 H118 0.950 . S
C140 C139 1.372 . S
C140 C141 1.379 . S
C141 H119 0.948 . S
C141 C136 1.364 . S
C141 C140 1.379 . S
C142 C111 1.383 . S
C142 C129 1.479 . S
C142 C143 1.398 . S
C143 C108 1.382 . S
C143 H120 0.951 . S
C143 C142 1.398 . S
C144 C145 1.384 . S
C144 H157 0.947 . S
C144 C179 1.382 . S
C145 C144 1.384 . S
C145 C146 1.378 . S
C146 C145 1.378 . S
C146 C147 1.378 . S
C146 H158 0.952 . S
C147 C146 1.378 . S
C147 H159 0.950 . S
C147 C178 1.383 . S
H148 C167 0.947 1_556 S
H149 C168 0.946 . S
H150 C170 0.953 . S
H151 C171 0.945 . S
H152 C173 0.952 . S
H153 C174 0.949 . S
H154 C176 0.950 . S
H155 C177 0.948 . S
H156 C179 0.951 . S
H157 C144 0.947 . S
H158 C146 0.952 . S
H159 C147 0.950 . S
N160 C163 1.382 1_556 S
N160 C165 1.363 . S
N161 C163 1.371 . S
N161 C164 1.372 . S
N162 C164 1.361 . S
N162 C165 1.377 1_554 S
C163 N160 1.382 1_554 S
C163 N161 1.371 . S
C163 C166 1.480 . S
C164 N161 1.372 . S
C164 N162 1.361 . S
C164 C172 1.457 . S
C165 N160 1.363 . S
C165 N162 1.377 1_556 S
C165 C178 1.479 . S
C166 C163 1.480 . S
C166 C167 1.383 . S
C166 C171 1.385 . S
C167 H148 0.947 1_554 S
C167 C166 1.383 . S
C167 C168 1.388 . S
C168 H149 0.946 . S
C168 C167 1.388 . S
C168 C169 1.384 . S
C169 C168 1.384 . S
C169 C170 1.377 . S
C170 H150 0.953 . S
C170 C169 1.377 . S
C170 C171 1.369 . S
C171 H151 0.945 . S
C171 C166 1.385 . S
C171 C170 1.369 . S
C172 C164 1.457 . S
C172 C173 1.372 . S
C172 C177 1.364 . S
C173 H152 0.952 . S
C173 C172 1.372 . S
C173 C174 1.389 . S
C174 H153 0.949 . S
C174 C173 1.389 . S
C174 C175 1.387 . S
C175 C174 1.387 . S
C175 C176 1.372 . S
C176 H154 0.950 . S
C176 C175 1.372 . S
C176 C177 1.379 . S
C177 H155 0.948 . S
C177 C172 1.364 . S
C177 C176 1.379 . S
C178 C147 1.383 . S
C178 C165 1.479 . S
C178 C179 1.398 . S
C179 C144 1.382 . S
C179 H156 0.951 . S
C179 C178 1.398 . S
C180 C181 1.384 . S
C180 H193 0.948 1_455 S
C180 C215 1.382 . S
C181 C180 1.384 . S
C181 C182 1.378 . S
C182 C181 1.378 . S
C182 C183 1.378 . S
C182 H194 0.952 . S
C183 C182 1.378 . S
C183 H195 0.950 . S
C183 C214 1.383 . S
H184 C203 0.947 1_556 S
H185 C204 0.948 . S
H186 C206 0.953 . S
H187 C207 0.945 . S
H188 C209 0.947 1_655 S
H189 C210 0.954 . S
H190 C212 0.950 . S
H191 C213 0.948 . S
H192 C215 0.950 1_655 S
H193 C180 0.948 1_655 S
H194 C182 0.952 . S
H195 C183 0.950 . S
N196 C199 1.382 1_556 S
N196 C201 1.363 . S
N197 C199 1.371 . S
N197 C200 1.372 . S
N198 C200 1.361 . S
N198 C201 1.377 1_554 S
C199 N196 1.382 1_554 S
C199 N197 1.371 . S
C199 C202 1.480 . S
C200 N197 1.372 . S
C200 N198 1.361 . S
C200 C208 1.457 . S
C201 N196 1.363 . S
C201 N198 1.377 1_556 S
C201 C214 1.479 . S
C202 C199 1.480 . S
C202 C203 1.383 . S
C202 C207 1.385 . S
C203 H184 0.947 1_554 S
C203 C202 1.383 . S
C203 C204 1.387 1_455 S
C204 H185 0.948 . S
C204 C203 1.387 1_655 S
C204 C205 1.383 1_655 S
C205 C204 1.383 1_455 S
C205 C206 1.377 . S
C206 H186 0.953 . S
C206 C205 1.377 . S
C206 C207 1.369 . S
C207 H187 0.945 . S
C207 C202 1.385 . S
C207 C206 1.369 . S
C208 C200 1.457 . S
C208 C209 1.379 . S
C208 C213 1.364 . S
C209 H188 0.947 1_455 S
C209 C208 1.379 . S
C209 C210 1.387 1_455 S
C210 H189 0.954 . S
C210 C209 1.387 1_655 S
C210 C211 1.384 1_655 S
C211 C210 1.384 1_455 S
C211 C212 1.372 . S
C212 H190 0.950 . S
C212 C211 1.372 . S
C212 C213 1.379 . S
C213 H191 0.948 . S
C213 C208 1.364 . S
C213 C212 1.379 . S
C214 C183 1.383 . S
C214 C201 1.479 . S
C214 C215 1.399 . S
C215 C180 1.382 . S
C215 H192 0.950 1_455 S
C215 C214 1.399 . S
C216 C217 1.384 . S
C216 H229 0.947 . S
C216 C251 1.382 . S
C217 C216 1.384 . S
C217 C218 1.378 . S
C218 C217 1.378 . S
C218 C219 1.378 . S
C218 H230 0.952 . S
C219 C218 1.378 . S
C219 H231 0.950 . S
C219 C250 1.383 . S
H220 C239 0.947 1_556 S
H221 C240 0.946 . S
H222 C242 0.953 . S
H223 C243 0.945 . S
H224 C245 0.952 . S
H225 C246 0.949 . S
H226 C248 0.950 . S
H227 C249 0.948 . S
H228 C251 0.951 . S
H229 C216 0.947 . S
H230 C218 0.952 . S
H231 C219 0.950 . S
N232 C235 1.382 1_556 S
N232 C237 1.363 . S
N233 C235 1.371 . S
N233 C236 1.372 . S
N234 C236 1.361 . S
N234 C237 1.377 1_554 S
C235 N232 1.382 1_554 S
C235 N233 1.371 . S
C235 C238 1.480 . S
C236 N233 1.372 . S
C236 N234 1.361 . S
C236 C244 1.457 . S
C237 N232 1.363 . S
C237 N234 1.377 1_556 S
C237 C250 1.479 . S
C238 C235 1.480 . S
C238 C239 1.383 . S
C238 C243 1.385 . S
C239 H220 0.947 1_554 S
C239 C238 1.383 . S
C239 C240 1.388 . S
C240 H221 0.946 . S
C240 C239 1.388 . S
C240 C241 1.384 . S
C241 C240 1.384 . S
C241 C242 1.377 . S
C242 H222 0.953 . S
C242 C241 1.377 . S
C242 C243 1.369 . S
C243 H223 0.945 . S
C243 C238 1.385 . S
C243 C242 1.369 . S
C244 C236 1.457 . S
C244 C245 1.372 . S
C244 C249 1.364 . S
C245 H224 0.952 . S
C245 C244 1.372 . S
C245 C246 1.389 . S
C246 H225 0.949 . S
C246 C245 1.389 . S
C246 C247 1.387 . S
C247 C246 1.387 . S
C247 C248 1.372 . S
C248 H226 0.950 . S
C248 C247 1.372 . S
C248 C249 1.379 . S
C249 H227 0.948 . S
C249 C244 1.364 . S
C249 C248 1.379 . S
C250 C219 1.383 . S
C250 C237 1.479 . S
C250 C251 1.398 . S
C251 C216 1.382 . S
C251 H228 0.951 . S
C251 C250 1.398 . S
C252 C253 1.384 . S
C252 H265 0.947 . S
C252 C287 1.382 . S
C253 C252 1.384 . S
C253 C254 1.378 . S
C254 C253 1.378 . S
C254 C255 1.378 . S
C254 H266 0.952 . S
C255 C254 1.378 . S
C255 H267 0.950 . S
C255 C286 1.383 . S
H256 C275 0.947 . S
H257 C276 0.946 . S
H258 C278 0.953 1_556 S
H259 C279 0.945 1_556 S
H260 C281 0.952 . S
H261 C282 0.949 . S
H262 C284 0.950 . S
H263 C285 0.948 . S
H264 C287 0.951 . S
H265 C252 0.947 . S
H266 C254 0.952 . S
H267 C255 0.950 . S
N268 C271 1.382 . S
N268 C273 1.363 . S
N269 C271 1.371 1_556 S
N269 C272 1.372 . S
N270 C272 1.361 1_554 S
N270 C273 1.377 . S
C271 N268 1.382 . S
C271 N269 1.371 1_554 S
C271 C274 1.480 . S
C272 N269 1.372 . S
C272 N270 1.361 1_556 S
C272 C280 1.457 . S
C273 N268 1.363 . S
C273 N270 1.377 . S
C273 C286 1.479 . S
C274 C271 1.480 . S
C274 C275 1.383 . S
C274 C279 1.385 . S
C275 H256 0.947 . S
C275 C274 1.383 . S
C275 C276 1.388 . S
C276 H257 0.946 . S
C276 C275 1.388 . S
C276 C277 1.384 . S
C277 C276 1.384 . S
C277 C278 1.377 . S
C278 H258 0.953 1_554 S
C278 C277 1.377 . S
C278 C279 1.369 . S
C279 H259 0.945 1_554 S
C279 C274 1.385 . S
C279 C278 1.369 . S
C280 C272 1.457 . S
C280 C281 1.372 . S
C280 C285 1.364 . S
C281 H260 0.952 . S
C281 C280 1.372 . S
C281 C282 1.389 . S
C282 H261 0.949 . S
C282 C281 1.389 . S
C282 C283 1.387 . S
C283 C282 1.387 . S
C283 C284 1.372 . S
C284 H262 0.950 . S
C284 C283 1.372 . S
C284 C285 1.379 . S
C285 H263 0.948 . S
C285 C280 1.364 . S
C285 C284 1.379 . S
C286 C255 1.383 . S
C286 C273 1.479 . S
C286 C287 1.398 . S
C287 C252 1.382 . S
C287 H264 0.951 . S
C287 C286 1.398 . S
Gd288 C291 2.818 . S
Gd288 O308 2.377 . S
Gd288 O310 2.448 . S
Gd288 O311 2.506 . S
Gd288 O312 2.435 . S
Gd288 O313 2.717 1_565 S
Gd288 O315 2.395 1_565 S
Gd288 O319 2.327 1_465 S
Gd289 C300 2.818 . S
Gd289 O309 2.395 1_545 S
Gd289 O313 2.327 1_655 S
Gd289 O314 2.377 . S
Gd289 O316 2.448 . S
Gd289 O317 2.506 . S
Gd289 O318 2.435 . S
Gd289 O319 2.717 . S
C290 O308 1.240 1_655 S
C290 O309 1.240 . S
C291 Gd288 2.818 . S
C291 C292 1.510 . S
C291 O310 1.249 . S
C291 O311 1.252 . S
C292 C291 1.510 . S
C292 C293 1.404 . S
C292 C294 1.352 . S
C293 C292 1.404 . S
C293 C297 1.389 . S
C293 H320 0.930 . S
C294 C292 1.352 . S
C294 C296 1.374 . S
C294 H321 0.931 1_455 S
C295 C296 1.359 . S
C295 C297 1.364 . S
C296 C294 1.374 . S
C296 C295 1.359 . S
C296 H322 0.931 1_455 S
C297 C293 1.389 . S
C297 C295 1.364 . S
C297 H323 0.931 . S
C298 O312 1.256 1_545 S
C298 O313 1.257 . S
C299 O314 1.240 1_455 S
C299 O315 1.240 . S
C300 Gd289 2.818 . S
C300 C301 1.510 . S
C300 O316 1.249 . S
C300 O317 1.252 . S
C301 C300 1.510 . S
C301 C302 1.404 . S
C301 C303 1.352 . S
C302 C301 1.404 . S
C302 C306 1.389 . S
C302 H324 0.930 . S
C303 C301 1.352 . S
C303 C305 1.374 . S
C303 H325 0.931 1_655 S
C304 C305 1.359 . S
C304 C306 1.364 . S
C305 C303 1.374 . S
C305 C304 1.359 . S
C305 H326 0.931 1_655 S
C306 C302 1.389 . S
C306 C304 1.364 . S
C306 H327 0.931 . S
C307 O318 1.256 . S
C307 O319 1.257 . S
O308 Gd288 2.377 . S
O308 C290 1.240 1_455 S
O309 Gd289 2.395 1_565 S
O309 C290 1.240 . S
O310 Gd288 2.448 . S
O310 C291 1.249 . S
O311 Gd288 2.506 . S
O311 C291 1.252 . S
O312 Gd288 2.435 . S
O312 C298 1.256 1_565 S
O313 Gd288 2.717 1_545 S
O313 Gd289 2.327 1_455 S
O313 C298 1.257 . S
O314 Gd289 2.377 . S
O314 C299 1.240 1_655 S
O315 Gd288 2.395 1_545 S
O315 C299 1.240 . S
O316 Gd289 2.448 . S
O316 C300 1.249 . S
O317 Gd289 2.506 . S
O317 C300 1.252 . S
O318 Gd289 2.435 . S
O318 C307 1.256 . S
O319 Gd288 2.327 1_645 S
O319 Gd289 2.717 . S
O319 C307 1.257 . S
H320 C293 0.930 . S
H321 C294 0.931 1_655 S
H322 C296 0.931 1_655 S
H323 C297 0.931 . S
H324 C302 0.930 . S
H325 C303 0.931 1_455 S
H326 C305 0.931 1_455 S
H327 C306 0.931 . S
Gd328 C331 2.818 . S
Gd328 O348 2.377 . S
Gd328 O350 2.448 . S
Gd328 O351 2.506 . S
Gd328 O352 2.435 . S
Gd328 O353 2.717 . S
Gd328 O355 2.395 . S
Gd328 O359 2.327 1_545 S
Gd329 C340 2.818 . S
Gd329 O349 2.395 . S
Gd329 O353 2.327 1_565 S
Gd329 O354 2.377 1_565 S
Gd329 O356 2.448 . S
Gd329 O357 2.506 1_565 S
Gd329 O358 2.435 . S
Gd329 O359 2.717 . S
C330 O348 1.240 1_565 S
C330 O349 1.240 . S
C331 Gd328 2.818 . S
C331 C332 1.510 . S
C331 O350 1.249 . S
C331 O351 1.252 . S
C332 C331 1.510 . S
C332 C333 1.404 . S
C332 C334 1.352 . S
C333 C332 1.404 . S
C333 C337 1.389 . S
C333 H360 0.930 . S
C334 C332 1.352 . S
C334 C336 1.374 . S
C334 H361 0.931 1_545 S
C335 C336 1.359 . S
C335 C337 1.364 . S
C336 C334 1.374 . S
C336 C335 1.359 . S
C336 H362 0.931 1_545 S
C337 C333 1.389 . S
C337 C335 1.364 . S
C337 H363 0.931 . S
C338 O352 1.256 . S
C338 O353 1.257 . S
C339 O354 1.240 . S
C339 O355 1.240 . S
C340 Gd329 2.818 . S
C340 C341 1.510 . S
C340 O356 1.249 . S
C340 O357 1.252 1_565 S
C341 C340 1.510 . S
C341 C342 1.404 . S
C341 C343 1.352 1_565 S
C342 C341 1.404 . S
C342 C346 1.389 . S
C342 H364 0.930 . S
C343 C341 1.352 1_545 S
C343 C345 1.374 . S
C343 H365 0.931 . S
C344 C345 1.359 1_565 S
C344 C346 1.364 . S
C345 C343 1.374 . S
C345 C344 1.359 1_545 S
C345 H366 0.931 . S
C346 C342 1.389 . S
C346 C344 1.364 . S
C346 H367 0.931 . S
C347 O358 1.256 . S
C347 O359 1.257 . S
O348 Gd328 2.377 . S
O348 C330 1.240 1_545 S
O349 Gd329 2.395 . S
O349 C330 1.240 . S
O350 Gd328 2.448 . S
O350 C331 1.249 . S
O351 Gd328 2.506 . S
O351 C331 1.252 . S
O352 Gd328 2.435 . S
O352 C338 1.256 . S
O353 Gd328 2.717 . S
O353 Gd329 2.327 1_545 S
O353 C338 1.257 . S
O354 Gd329 2.377 1_545 S
O354 C339 1.240 . S
O355 Gd328 2.395 . S
O355 C339 1.240 . S
O356 Gd329 2.448 . S
O356 C340 1.249 . S
O357 Gd329 2.506 1_545 S
O357 C340 1.252 1_545 S
O358 Gd329 2.435 . S
O358 C347 1.256 . S
O359 Gd328 2.327 1_565 S
O359 Gd329 2.717 . S
O359 C347 1.257 . S
H360 C333 0.930 . S
H361 C334 0.931 1_565 S
H362 C336 0.931 1_565 S
H363 C337 0.931 . S
H364 C342 0.930 . S
H365 C343 0.931 . S
H366 C345 0.931 . S
H367 C346 0.931 . S
Gd368 C371 2.818 . S
Gd368 O388 2.377 . S
Gd368 O390 2.448 . S
Gd368 O391 2.506 . S
Gd368 O392 2.435 . S
Gd368 O393 2.717 . S
Gd368 O395 2.395 . S
Gd368 O399 2.327 . S
Gd369 C380 2.818 . S
Gd369 O389 2.395 . S
Gd369 O393 2.327 . S
Gd369 O394 2.377 . S
Gd369 O396 2.448 . S
Gd369 O397 2.506 . S
Gd369 O398 2.435 . S
Gd369 O399 2.717 . S
C370 O388 1.240 . S
C370 O389 1.240 . S
C371 Gd368 2.818 . S
C371 C372 1.510 . S
C371 O390 1.249 . S
C371 O391 1.252 . S
C372 C371 1.510 . S
C372 C373 1.404 . S
C372 C374 1.352 . S
C373 C372 1.404 . S
C373 C377 1.389 . S
C373 H400 0.930 . S
C374 C372 1.352 . S
C374 C376 1.374 . S
C374 H401 0.931 . S
C375 C376 1.359 . S
C375 C377 1.364 . S
C376 C374 1.374 . S
C376 C375 1.359 . S
C376 H402 0.931 . S
C377 C373 1.389 . S
C377 C375 1.364 . S
C377 H403 0.931 . S
C378 O392 1.256 . S
C378 O393 1.257 . S
C379 O394 1.240 . S
C379 O395 1.240 . S
C380 Gd369 2.818 . S
C380 C381 1.510 . S
C380 O396 1.249 . S
C380 O397 1.252 . S
C381 C380 1.510 . S
C381 C382 1.404 . S
C381 C383 1.352 . S
C382 C381 1.404 . S
C382 C386 1.389 . S
C382 H404 0.930 . S
C383 C381 1.352 . S
C383 C385 1.374 . S
C383 H405 0.931 . S
C384 C385 1.359 . S
C384 C386 1.364 . S
C385 C383 1.374 . S
C385 C384 1.359 . S
C385 H406 0.931 . S
C386 C382 1.389 . S
C386 C384 1.364 . S
C386 H407 0.931 . S
C387 O398 1.256 . S
C387 O399 1.257 . S
O388 Gd368 2.377 . S
O388 C370 1.240 . S
O389 Gd369 2.395 . S
O389 C370 1.240 . S
O390 Gd368 2.448 . S
O390 C371 1.249 . S
O391 Gd368 2.506 . S
O391 C371 1.252 . S
O392 Gd368 2.435 . S
O392 C378 1.256 . S
O393 Gd368 2.717 . S
O393 Gd369 2.327 . S
O393 C378 1.257 . S
O394 Gd369 2.377 . S
O394 C379 1.240 . S
O395 Gd368 2.395 . S
O395 C379 1.240 . S
O396 Gd369 2.448 . S
O396 C380 1.249 . S
O397 Gd369 2.506 . S
O397 C380 1.252 . S
O398 Gd369 2.435 . S
O398 C387 1.256 . S
O399 Gd368 2.327 . S
O399 Gd369 2.717 . S
O399 C387 1.257 . S
H400 C373 0.930 . S
H401 C374 0.931 . S
H402 C376 0.931 . S
H403 C377 0.931 . S
H404 C382 0.930 . S
H405 C383 0.931 . S
H406 C385 0.931 . S
H407 C386 0.931 . S
Gd408 C411 2.818 . S
Gd408 O428 2.377 . S
Gd408 O430 2.448 . S
Gd408 O431 2.506 . S
Gd408 O432 2.435 . S
Gd408 O433 2.717 1_655 S
Gd408 O435 2.395 1_655 S
Gd408 O439 2.327 . S
Gd409 C420 2.818 . S
Gd409 O429 2.395 1_455 S
Gd409 O433 2.327 . S
Gd409 O434 2.377 . S
Gd409 O436 2.448 . S
Gd409 O437 2.506 . S
Gd409 O438 2.435 . S
Gd409 O439 2.717 1_455 S
C410 O428 1.240 . S
C410 O429 1.240 . S
C411 Gd408 2.818 . S
C411 C412 1.510 . S
C411 O430 1.249 . S
C411 O431 1.252 . S
C412 C411 1.510 . S
C412 C413 1.404 . S
C412 C414 1.352 . S
C413 C412 1.404 . S
C413 C417 1.389 . S
C413 H440 0.930 . S
C414 C412 1.352 . S
C414 C416 1.374 . S
C414 H441 0.931 . S
C415 C416 1.359 . S
C415 C417 1.364 . S
C416 C414 1.374 . S
C416 C415 1.359 . S
C416 H442 0.931 . S
C417 C413 1.389 . S
C417 C415 1.364 . S
C417 H443 0.931 . S
C418 O432 1.256 . S
C418 O433 1.257 1_655 S
C419 O434 1.240 . S
C419 O435 1.240 . S
C420 Gd409 2.818 . S
C420 C421 1.510 . S
C420 O436 1.249 . S
C420 O437 1.252 . S
C421 C420 1.510 . S
C421 C422 1.404 . S
C421 C423 1.352 . S
C422 C421 1.404 . S
C422 C426 1.389 . S
C422 H444 0.930 . S
C423 C421 1.352 . S
C423 C425 1.374 . S
C423 H445 0.931 . S
C424 C425 1.359 . S
C424 C426 1.364 . S
C425 C423 1.374 . S
C425 C424 1.359 . S
C425 H446 0.931 . S
C426 C422 1.389 . S
C426 C424 1.364 . S
C426 H447 0.931 . S
C427 O438 1.256 . S
C427 O439 1.257 1_455 S
O428 Gd408 2.377 . S
O428 C410 1.240 . S
O429 Gd409 2.395 1_655 S
O429 C410 1.240 . S
O430 Gd408 2.448 . S
O430 C411 1.249 . S
O431 Gd408 2.506 . S
O431 C411 1.252 . S
O432 Gd408 2.435 . S
O432 C418 1.256 . S
O433 Gd408 2.717 1_455 S
O433 Gd409 2.327 . S
O433 C418 1.257 1_455 S
O434 Gd409 2.377 . S
O434 C419 1.240 . S
O435 Gd408 2.395 1_455 S
O435 C419 1.240 . S
O436 Gd409 2.448 . S
O436 C420 1.249 . S
O437 Gd409 2.506 . S
O437 C420 1.252 . S
O438 Gd409 2.435 . S
O438 C427 1.256 . S
O439 Gd408 2.327 . S
O439 Gd409 2.717 1_655 S
O439 C427 1.257 1_655 S
H440 C413 0.930 . S
H441 C414 0.931 . S
H442 C416 0.931 . S
H443 C417 0.931 . S
H444 C422 0.930 . S
H445 C423 0.931 . S
H446 C425 0.931 . S
H447 C426 0.931 . S
H448 C456 0.929 . S
H449 C458 0.930 . S
H450 C460 0.930 1_565 S
H451 C463 0.929 1_565 S
H452 C466 0.930 . S
H453 C468 0.960 1_565 S
H454 C468 0.960 . S
H455 C468 0.960 1_565 S
C456 H448 0.929 . S
C456 C457 1.377 . S
C456 C458 1.384 . S
C457 C456 1.377 . S
C457 C463 1.390 . S
C458 H449 0.930 . S
C458 C456 1.384 . S
C458 C459 1.372 . S
C459 C458 1.372 . S
C459 C460 1.400 . S
C459 C464 1.490 . S
C460 H450 0.930 1_545 S
C460 C459 1.400 . S
C460 C463 1.386 . S
H461 C477 0.930 . S
H462 C478 0.895 1_565 S
C463 H451 0.929 1_545 S
C463 C457 1.390 . S
C463 C460 1.386 . S
C464 C459 1.490 . S
C464 C466 1.395 . S
C464 C467 1.403 . S
H465 C471 0.930 . S
C466 H452 0.930 . S
C466 C464 1.395 . S
C466 C469 1.403 . S
C467 C464 1.403 . S
C467 C468 1.524 . S
C467 C471 1.400 . S
C468 H453 0.960 1_545 S
C468 H454 0.960 . S
C468 H455 0.960 1_545 S
C468 C467 1.524 . S
C469 C466 1.403 . S
C469 C470 1.392 . S
C469 C473 1.495 . S
C470 C469 1.392 . S
C470 C471 1.385 . S
C470 C472 1.478 . S
C471 H465 0.930 . S
C471 C467 1.400 . S
C471 C470 1.385 . S
C472 C470 1.478 . S
C472 C474 1.381 . S
C472 C478 1.424 . S
C473 C469 1.495 . S
C473 H479 0.959 . S
C473 H480 0.961 . S
C473 H481 0.960 . S
C474 C472 1.381 . S
C474 C475 1.394 . S
C474 H482 0.930 . S
C475 C474 1.394 . S
C475 C476 1.383 . S
C475 H483 0.929 . S
C476 C475 1.383 . S
C476 C477 1.377 1_545 S
C477 H461 0.930 . S
C477 C476 1.377 1_565 S
C477 C478 1.375 1_565 S
C478 H462 0.895 1_545 S
C478 C472 1.424 . S
C478 C477 1.375 1_545 S
H479 C473 0.959 . S
H480 C473 0.961 . S
H481 C473 0.960 . S
H482 C474 0.930 . S
H483 C475 0.929 . S
H484 C492 0.929 . S
H485 C494 0.930 . S
H486 C496 0.930 . S
H487 C499 0.929 . S
H488 C502 0.930 . S
H489 C504 0.960 . S
H490 C504 0.960 . S
H491 C504 0.960 . S
C492 H484 0.929 . S
C492 C493 1.377 . S
C492 C494 1.384 . S
C493 C492 1.377 . S
C493 C499 1.390 . S
C494 H485 0.930 . S
C494 C492 1.384 . S
C494 C495 1.372 . S
C495 C494 1.372 . S
C495 C496 1.400 . S
C495 C500 1.490 . S
C496 H486 0.930 . S
C496 C495 1.400 . S
C496 C499 1.386 . S
H497 C513 0.930 . S
H498 C514 0.931 . S
C499 H487 0.929 . S
C499 C493 1.390 . S
C499 C496 1.386 . S
C500 C495 1.490 . S
C500 C502 1.395 . S
C500 C503 1.403 . S
H501 C507 0.930 . S
C502 H488 0.930 . S
C502 C500 1.395 . S
C502 C505 1.403 . S
C503 C500 1.403 . S
C503 C504 1.524 . S
C503 C507 1.400 . S
C504 H489 0.960 . S
C504 H490 0.960 . S
C504 H491 0.960 . S
C504 C503 1.524 . S
C505 C502 1.403 . S
C505 C506 1.392 . S
C505 C509 1.495 . S
C506 C505 1.392 . S
C506 C507 1.385 . S
C506 C508 1.478 . S
C507 H501 0.930 . S
C507 C503 1.400 . S
C507 C506 1.385 . S
C508 C506 1.478 . S
C508 C510 1.381 . S
C508 C514 1.383 . S
C509 C505 1.495 . S
C509 H515 0.959 . S
C509 H516 0.961 . S
C509 H517 0.960 . S
C510 C508 1.381 . S
C510 C511 1.394 . S
C510 H518 0.930 . S
C511 C510 1.394 . S
C511 C512 1.383 . S
C511 H519 0.929 . S
C512 C511 1.383 . S
C512 C513 1.377 . S
C513 H497 0.930 . S
C513 C512 1.377 . S
C513 C514 1.379 . S
C514 H498 0.931 . S
C514 C508 1.383 . S
C514 C513 1.379 . S
H515 C509 0.959 . S
H516 C509 0.961 . S
H517 C509 0.960 . S
H518 C510 0.930 . S
H519 C511 0.929 . S
H520 C528 0.929 . S
H521 C530 0.930 . S
H522 C532 0.930 . S
H523 C535 0.929 . S
H524 C538 0.930 . S
H525 C540 0.960 . S
H526 C540 0.960 . S
H527 C540 0.960 . S
C528 H520 0.929 . S
C528 C529 1.377 . S
C528 C530 1.384 . S
C529 C528 1.377 . S
C529 C535 1.390 . S
C530 H521 0.930 . S
C530 C528 1.384 . S
C530 C531 1.372 . S
C531 C530 1.372 . S
C531 C532 1.400 . S
C531 C536 1.490 . S
C532 H522 0.930 . S
C532 C531 1.400 . S
C532 C535 1.386 . S
H533 C549 0.930 . S
H534 C550 0.931 . S
C535 H523 0.929 . S
C535 C529 1.390 . S
C535 C532 1.386 . S
C536 C531 1.490 . S
C536 C538 1.395 . S
C536 C539 1.403 . S
H537 C543 0.930 . S
C538 H524 0.930 . S
C538 C536 1.395 . S
C538 C541 1.403 . S
C539 C536 1.403 . S
C539 C540 1.524 . S
C539 C543 1.400 . S
C540 H525 0.960 . S
C540 H526 0.960 . S
C540 H527 0.960 . S
C540 C539 1.524 . S
C541 C538 1.403 . S
C541 C542 1.392 . S
C541 C545 1.495 . S
C542 C541 1.392 . S
C542 C543 1.385 . S
C542 C544 1.478 . S
C543 H537 0.930 . S
C543 C539 1.400 . S
C543 C542 1.385 . S
C544 C542 1.478 . S
C544 C546 1.381 . S
C544 C550 1.383 . S
C545 C541 1.495 . S
C545 H551 0.959 . S
C545 H552 0.961 . S
C545 H553 0.960 . S
C546 C544 1.381 . S
C546 C547 1.394 . S
C546 H554 0.930 . S
C547 C546 1.394 . S
C547 C548 1.383 . S
C547 H555 0.929 . S
C548 C547 1.383 . S
C548 C549 1.377 . S
C549 H533 0.930 . S
C549 C548 1.377 . S
C549 C550 1.379 . S
C550 H534 0.931 . S
C550 C544 1.383 . S
C550 C549 1.379 . S
H551 C545 0.959 . S
H552 C545 0.961 . S
H553 C545 0.960 . S
H554 C546 0.930 . S
H555 C547 0.929 . S
H556 C564 0.929 . S
H557 C566 0.930 . S
H558 C568 0.930 . S
H559 C571 0.929 . S
H560 C574 0.930 . S
H561 C576 0.960 . S
H562 C576 0.960 . S
H563 C576 0.960 . S
C564 H556 0.929 . S
C564 C565 1.382 1_655 S
C564 C566 1.384 . S
C565 C564 1.382 1_455 S
C565 C571 1.385 . S
C566 H557 0.930 . S
C566 C564 1.384 . S
C566 C567 1.409 . S
C567 C566 1.409 . S
C567 C568 1.362 1_655 S
C567 C572 1.492 . S
C568 H558 0.930 . S
C568 C567 1.362 1_455 S
C568 C571 1.386 . S
H569 C585 0.930 . S
H570 C586 0.931 . S
C571 H559 0.929 . S
C571 C565 1.385 . S
C571 C568 1.386 . S
C572 C567 1.492 . S
C572 C574 1.395 . S
C572 C575 1.403 1_655 S
H573 C579 0.930 . S
C574 H560 0.930 . S
C574 C572 1.395 . S
C574 C577 1.403 . S
C575 C572 1.403 1_455 S
C575 C576 1.524 . S
C575 C579 1.400 . S
C576 H561 0.960 . S
C576 H562 0.960 . S
C576 H563 0.960 . S
C576 C575 1.524 . S
C577 C574 1.403 . S
C577 C578 1.392 . S
C577 C581 1.495 . S
C578 C577 1.392 . S
C578 C579 1.385 1_655 S
C578 C580 1.478 . S
C579 H573 0.930 . S
C579 C575 1.400 . S
C579 C578 1.385 1_455 S
C580 C578 1.478 . S
C580 C582 1.381 . S
C580 C586 1.383 1_655 S
C581 C577 1.495 . S
C581 H587 0.959 . S
C581 H588 0.961 . S
C581 H589 0.960 . S
C582 C580 1.381 . S
C582 C583 1.394 . S
C582 H590 0.930 . S
C583 C582 1.394 . S
C583 C584 1.407 . S
C583 H591 0.929 . S
C584 C583 1.407 . S
C584 C585 1.355 1_655 S
C585 H569 0.930 . S
C585 C584 1.355 1_455 S
C585 C586 1.379 . S
C586 H570 0.931 . S
C586 C580 1.383 1_455 S
C586 C585 1.379 . S
H587 C581 0.959 . S
H588 C581 0.961 . S
H589 C581 0.960 . S
H590 C582 0.930 . S
H591 C583 0.929 . S
H592 C600 0.929 . S
H593 C602 0.930 . S
H594 C604 0.930 . S
H595 C607 0.940 . S
H596 C610 0.930 1_545 S
H597 C612 0.960 . S
H598 C612 0.960 . S
H599 C612 0.960 . S
C600 H592 0.929 . S
C600 C601 1.377 . S
C600 C602 1.384 . S
C601 C600 1.377 . S
C601 C607 1.378 1_565 S
C602 H593 0.930 . S
C602 C600 1.384 . S
C602 C603 1.372 . S
C603 C602 1.372 . S
C603 C604 1.400 1_565 S
C603 C608 1.490 . S
C604 H594 0.930 . S
C604 C603 1.400 1_545 S
C604 C607 1.387 . S
H605 C621 0.930 . S
H606 C622 0.931 . S
C607 H595 0.940 . S
C607 C601 1.378 1_545 S
C607 C604 1.387 . S
C608 C603 1.490 . S
C608 C610 1.395 1_554 S
C608 C611 1.403 . S
H609 C615 0.930 . S
C610 H596 0.930 1_565 S
C610 C608 1.395 1_556 S
C610 C613 1.403 1_565 S
C611 C608 1.403 . S
C611 C612 1.524 . S
C611 C615 1.400 1_554 S
C612 H597 0.960 . S
C612 H598 0.960 . S
C612 H599 0.960 . S
C612 C611 1.524 . S
C613 C610 1.403 1_545 S
C613 C614 1.392 1_545 S
C613 C617 1.495 . S
C614 C613 1.392 1_565 S
C614 C615 1.385 . S
C614 C616 1.478 . S
C615 H609 0.930 . S
C615 C611 1.400 1_556 S
C615 C614 1.385 . S
C616 C614 1.478 . S
C616 C618 1.385 . S
C616 C622 1.378 1_565 S
C617 C613 1.495 . S
C617 H623 0.959 . S
C617 H624 0.961 . S
C617 H625 0.960 1_545 S
C618 C616 1.385 . S
C618 C619 1.394 . S
C618 H626 0.930 . S
C619 C618 1.394 . S
C619 C620 1.383 1_565 S
C619 H627 0.929 . S
C620 C619 1.383 1_545 S
C620 C621 1.377 . S
C621 H605 0.930 . S
C621 C620 1.377 . S
C621 C622 1.379 . S
C622 H606 0.931 . S
C622 C616 1.378 1_545 S
C622 C621 1.379 . S
H623 C617 0.959 . S
H624 C617 0.961 . S
H625 C617 0.960 1_565 S
H626 C618 0.930 . S
H627 C619 0.929 . S
H628 C636 0.929 . S
H629 C638 0.930 . S
H630 C640 0.930 . S
H631 C643 0.929 . S
H632 C646 0.930 . S
H633 C648 0.960 . S
H634 C648 0.960 . S
H635 C648 0.960 . S
C636 H628 0.929 . S
C636 C637 1.377 . S
C636 C638 1.384 . S
C637 C636 1.377 . S
C637 C643 1.390 . S
C638 H629 0.930 . S
C638 C636 1.384 . S
C638 C639 1.372 . S
C639 C638 1.372 . S
C639 C640 1.400 . S
C639 C644 1.490 . S
C640 H630 0.930 . S
C640 C639 1.400 . S
C640 C643 1.386 . S
H641 C657 0.930 . S
H642 C658 0.931 . S
C643 H631 0.929 . S
C643 C637 1.390 . S
C643 C640 1.386 . S
C644 C639 1.490 . S
C644 C646 1.395 1_554 S
C644 C647 1.403 . S
H645 C651 0.930 . S
C646 H632 0.930 . S
C646 C644 1.395 1_556 S
C646 C649 1.403 . S
C647 C644 1.403 . S
C647 C648 1.524 . S
C647 C651 1.400 1_554 S
C648 H633 0.960 . S
C648 H634 0.960 . S
C648 H635 0.960 . S
C648 C647 1.524 . S
C649 C646 1.403 . S
C649 C650 1.392 . S
C649 C653 1.495 . S
C650 C649 1.392 . S
C650 C651 1.385 . S
C650 C652 1.478 . S
C651 H645 0.930 . S
C651 C647 1.400 1_556 S
C651 C650 1.385 . S
C652 C650 1.478 . S
C652 C654 1.381 . S
C652 C658 1.383 . S
C653 C649 1.495 . S
C653 H659 0.959 . S
C653 H660 0.961 . S
C653 H661 0.960 . S
C654 C652 1.381 . S
C654 C655 1.394 . S
C654 H662 0.930 . S
C655 C654 1.394 . S
C655 C656 1.383 . S
C655 H663 0.929 . S
C656 C655 1.383 . S
C656 C657 1.377 . S
C657 H641 0.930 . S
C657 C656 1.377 . S
C657 C658 1.379 . S
C658 H642 0.931 . S
C658 C652 1.383 . S
C658 C657 1.379 . S
H659 C653 0.959 . S
H660 C653 0.961 . S
H661 C653 0.960 . S
H662 C654 0.930 . S
H663 C655 0.929 . S
H664 C672 0.929 . S
H665 C674 0.930 . S
H666 C676 0.930 . S
H667 C679 0.929 . S
H668 C682 0.930 . S
H669 C684 0.960 . S
H670 C684 0.960 . S
H671 C684 0.960 . S
C672 H664 0.929 . S
C672 C673 1.377 . S
C672 C674 1.384 . S
C673 C672 1.377 . S
C673 C679 1.390 . S
C674 H665 0.930 . S
C674 C672 1.384 . S
C674 C675 1.372 . S
C675 C674 1.372 . S
C675 C676 1.400 . S
C675 C680 1.490 . S
C676 H666 0.930 . S
C676 C675 1.400 . S
C676 C679 1.386 . S
H677 C693 0.930 . S
H678 C694 0.931 . S
C679 H667 0.929 . S
C679 C673 1.390 . S
C679 C676 1.386 . S
C680 C675 1.490 . S
C680 C682 1.395 . S
C680 C683 1.403 1_554 S
H681 C687 0.930 . S
C682 H668 0.930 . S
C682 C680 1.395 . S
C682 C685 1.403 1_554 S
C683 C680 1.403 1_556 S
C683 C684 1.524 . S
C683 C687 1.400 . S
C684 H669 0.960 . S
C684 H670 0.960 . S
C684 H671 0.960 . S
C684 C683 1.524 . S
C685 C682 1.403 1_556 S
C685 C686 1.392 . S
C685 C689 1.495 . S
C686 C685 1.392 . S
C686 C687 1.385 . S
C686 C688 1.478 . S
C687 H681 0.930 . S
C687 C683 1.400 . S
C687 C686 1.385 . S
C688 C686 1.478 . S
C688 C690 1.381 . S
C688 C694 1.383 . S
C689 C685 1.495 . S
C689 H695 0.959 1_556 S
C689 H696 0.961 . S
C689 H697 0.960 . S
C690 C688 1.381 . S
C690 C691 1.394 . S
C690 H698 0.930 . S
C691 C690 1.394 . S
C691 C692 1.383 . S
C691 H699 0.929 . S
C692 C691 1.383 . S
C692 C693 1.377 . S
C693 H677 0.930 . S
C693 C692 1.377 . S
C693 C694 1.379 . S
C694 H678 0.931 . S
C694 C688 1.383 . S
C694 C693 1.379 . S
H695 C689 0.959 1_554 S
H696 C689 0.961 . S
H697 C689 0.960 . S
H698 C690 0.930 . S
H699 C691 0.929 . S
H700 C708 0.929 . S
H701 C710 0.930 . S
H702 C712 0.930 . S
H703 C715 0.929 . S
H704 C718 0.930 . S
H705 C720 0.960 . S
H706 C720 0.980 . S
H707 C720 0.960 . S
C708 H700 0.929 . S
C708 C709 1.376 . S
C708 C710 1.384 . S
C709 C708 1.376 . S
C709 C715 1.391 1_455 S
C710 H701 0.930 . S
C710 C708 1.384 . S
C710 C711 1.416 . S
C711 C710 1.416 . S
C711 C712 1.355 1_455 S
C711 C716 1.492 . S
C712 H702 0.930 . S
C712 C711 1.355 1_655 S
C712 C715 1.386 . S
H713 C729 0.930 . S
H714 C730 0.931 . S
C715 H703 0.929 . S
C715 C709 1.391 1_655 S
C715 C712 1.386 . S
C716 C711 1.492 . S
C716 C718 1.395 . S
C716 C719 1.403 1_454 S
H717 C723 0.930 . S
C718 H704 0.930 . S
C718 C716 1.395 . S
C718 C721 1.403 1_554 S
C719 C716 1.403 1_656 S
C719 C720 1.524 . S
C719 C723 1.400 . S
C720 H705 0.960 . S
C720 H706 0.980 . S
C720 H707 0.960 . S
C720 C719 1.524 . S
C721 C718 1.403 1_556 S
C721 C722 1.392 . S
C721 C725 1.495 . S
C722 C721 1.392 . S
C722 C723 1.385 1_455 S
C722 C724 1.478 . S
C723 H717 0.930 . S
C723 C719 1.400 . S
C723 C722 1.385 1_655 S
C724 C722 1.478 . S
C724 C726 1.381 . S
C724 C730 1.383 1_455 S
C725 C721 1.495 . S
C725 H731 0.959 1_556 S
C725 H732 0.961 . S
C725 H733 0.960 . S
C726 C724 1.381 . S
C726 C727 1.394 . S
C726 H734 0.930 . S
C727 C726 1.394 . S
C727 C728 1.388 1_455 S
C727 H735 0.929 . S
C728 C727 1.388 1_655 S
C728 C729 1.373 . S
C729 H713 0.930 . S
C729 C728 1.373 . S
C729 C730 1.379 . S
C730 H714 0.931 . S
C730 C724 1.383 1_655 S
C730 C729 1.379 . S
H731 C725 0.959 1_554 S
H732 C725 0.961 . S
H733 C725 0.960 . S
H734 C726 0.930 . S
H735 C727 0.929 . S
H736 C744 0.929 . S
H737 C746 0.930 . S
H738 C748 0.930 . S
H739 C751 0.929 . S
H740 C754 0.930 . S
H741 C756 0.960 . S
H742 C756 0.960 . S
H743 C756 0.960 . S
C744 H736 0.929 . S
C744 C745 1.377 . S
C744 C746 1.384 . S
C745 C744 1.377 . S
C745 C751 1.390 1_455 S
C746 H737 0.930 . S
C746 C744 1.384 . S
C746 C747 1.372 1_455 S
C747 C746 1.372 1_655 S
C747 C748 1.400 . S
C747 C752 1.490 . S
C748 H738 0.930 . S
C748 C747 1.400 . S
C748 C751 1.386 . S
H749 C765 0.930 . S
H750 C766 0.931 . S
C751 H739 0.929 . S
C751 C745 1.390 1_655 S
C751 C748 1.386 . S
C752 C747 1.490 . S
C752 C754 1.395 1_655 S
C752 C755 1.403 . S
H753 C759 0.930 . S
C754 H740 0.930 . S
C754 C752 1.395 1_455 S
C754 C757 1.403 . S
C755 C752 1.403 . S
C755 C756 1.524 . S
C755 C759 1.400 . S
C756 H741 0.960 . S
C756 H742 0.960 . S
C756 H743 0.960 . S
C756 C755 1.524 . S
C757 C754 1.403 . S
C757 C758 1.392 1_455 S
C757 C761 1.495 . S
C758 C757 1.392 1_655 S
C758 C759 1.385 . S
C758 C760 1.478 . S
C759 H753 0.930 . S
C759 C755 1.400 . S
C759 C758 1.385 . S
C760 C758 1.478 . S
C760 C762 1.381 . S
C760 C766 1.383 . S
C761 C757 1.495 . S
C761 H767 0.959 . S
C761 H768 0.961 . S
C761 H769 0.960 . S
C762 C760 1.381 . S
C762 C763 1.394 . S
C762 H770 0.930 . S
C763 C762 1.394 . S
C763 C764 1.383 . S
C763 H771 0.929 . S
C764 C763 1.383 . S
C764 C765 1.377 . S
C765 H749 0.930 . S
C765 C764 1.377 . S
C765 C766 1.379 . S
C766 H750 0.931 . S
C766 C760 1.383 . S
C766 C765 1.379 . S
H767 C761 0.959 . S
H768 C761 0.961 . S
H769 C761 0.960 . S
H770 C762 0.930 . S
H771 C763 0.929 . S
H772 C780 0.929 . S
H773 C782 0.930 1_565 S
H774 C784 0.930 . S
H775 C787 0.929 . S
H776 C790 0.937 . S
H777 C792 0.960 . S
H778 C792 0.960 . S
H779 C792 0.960 . S
C780 H772 0.929 . S
C780 C781 1.377 . S
C780 C782 1.384 . S
C781 C780 1.377 . S
C781 C787 1.390 . S
C782 H773 0.930 1_545 S
C782 C780 1.384 . S
C782 C783 1.372 . S
C783 C782 1.372 . S
C783 C784 1.400 . S
C783 C788 1.490 . S
C784 H774 0.930 . S
C784 C783 1.400 . S
C784 C787 1.386 . S
H785 C801 0.930 . S
H786 C802 0.931 . S
C787 H775 0.929 . S
C787 C781 1.390 . S
C787 C784 1.386 . S
C788 C783 1.490 . S
C788 C790 1.395 . S
C788 C791 1.403 . S
H789 C795 0.930 . S
C790 H776 0.937 . S
C790 C788 1.395 . S
C790 C793 1.403 1_545 S
C791 C788 1.403 . S
C791 C792 1.524 . S
C791 C795 1.400 . S
C792 H777 0.960 . S
C792 H778 0.960 . S
C792 H779 0.960 . S
C792 C791 1.524 . S
C793 C790 1.403 1_565 S
C793 C794 1.386 1_565 S
C793 C797 1.495 . S
C794 C793 1.386 1_545 S
C794 C795 1.403 . S
C794 C796 1.468 1_545 S
C795 H789 0.930 . S
C795 C791 1.400 . S
C795 C794 1.403 . S
C796 C794 1.468 1_565 S
C796 C798 1.381 . S
C796 C802 1.383 1_565 S
C797 C793 1.495 . S
C797 H803 0.959 . S
C797 H804 0.961 . S
C797 H805 0.960 . S
C798 C796 1.381 . S
C798 C799 1.394 . S
C798 H806 0.930 . S
C799 C798 1.394 . S
C799 C800 1.383 . S
C799 H807 0.929 . S
C800 C799 1.383 . S
C800 C801 1.377 1_565 S
C801 H785 0.930 . S
C801 C800 1.377 1_545 S
C801 C802 1.379 . S
C802 H786 0.931 . S
C802 C796 1.383 1_545 S
C802 C801 1.379 . S
H803 C797 0.959 . S
H804 C797 0.961 . S
H805 C797 0.960 . S
H806 C798 0.930 . S
H807 C799 0.929 . S
H808 C816 0.929 . S
H809 C818 0.930 . S
H810 C820 0.930 . S
H811 C823 0.929 . S
H812 C826 0.930 . S
H813 C828 0.960 . S
H814 C828 0.960 . S
H815 C828 0.960 . S
C816 H808 0.929 . S
C816 C817 1.377 . S
C816 C818 1.384 . S
C817 C816 1.377 . S
C817 C823 1.390 . S
C818 H809 0.930 . S
C818 C816 1.384 . S
C818 C819 1.372 . S
C819 C818 1.372 . S
C819 C820 1.400 . S
C819 C824 1.490 . S
C820 H810 0.930 . S
C820 C819 1.400 . S
C820 C823 1.386 . S
H821 C837 0.930 . S
H822 C838 0.931 . S
C823 H811 0.929 . S
C823 C817 1.390 . S
C823 C820 1.386 . S
C824 C819 1.490 . S
C824 C826 1.395 . S
C824 C827 1.403 . S
H825 C831 0.930 . S
C826 H812 0.930 . S
C826 C824 1.395 . S
C826 C829 1.403 . S
C827 C824 1.403 . S
C827 C828 1.524 . S
C827 C831 1.400 . S
C828 H813 0.960 . S
C828 H814 0.960 . S
C828 H815 0.960 . S
C828 C827 1.524 . S
C829 C826 1.403 . S
C829 C830 1.392 . S
C829 C833 1.495 . S
C830 C829 1.392 . S
C830 C831 1.385 . S
C830 C832 1.478 . S
C831 H825 0.930 . S
C831 C827 1.400 . S
C831 C830 1.385 . S
C832 C830 1.478 . S
C832 C834 1.381 . S
C832 C838 1.383 . S
C833 C829 1.495 . S
C833 H839 0.959 . S
C833 H840 0.961 . S
C833 H841 0.960 . S
C834 C832 1.381 . S
C834 C835 1.394 . S
C834 H842 0.930 . S
C835 C834 1.394 . S
C835 C836 1.383 . S
C835 H843 0.929 . S
C836 C835 1.383 . S
C836 C837 1.377 . S
C837 H821 0.930 . S
C837 C836 1.377 . S
C837 C838 1.379 . S
C838 H822 0.931 . S
C838 C832 1.383 . S
C838 C837 1.379 . S
H839 C833 0.959 . S
H840 C833 0.961 . S
H841 C833 0.960 . S
H842 C834 0.930 . S
H843 C835 0.929 . S
H844 C852 0.929 . S
H845 C854 0.930 . S
H846 C856 0.930 . S
H847 C859 0.929 . S
H848 C862 0.930 . S
H849 C864 0.960 . S
H850 C864 0.960 . S
H851 C864 0.960 . S
C852 H844 0.929 . S
C852 C853 1.377 . S
C852 C854 1.384 . S
C853 C852 1.377 . S
C853 C859 1.390 . S
C854 H845 0.930 . S
C854 C852 1.384 . S
C854 C855 1.372 . S
C855 C854 1.372 . S
C855 C856 1.400 . S
C855 C860 1.490 . S
C856 H846 0.930 . S
C856 C855 1.400 . S
C856 C859 1.386 . S
H857 C873 0.930 . S
H858 C874 0.931 . S
C859 H847 0.929 . S
C859 C853 1.390 . S
C859 C856 1.386 . S
C860 C855 1.490 . S
C860 C862 1.395 . S
C860 C863 1.403 . S
H861 C867 0.930 . S
C862 H848 0.930 . S
C862 C860 1.395 . S
C862 C865 1.403 . S
C863 C860 1.403 . S
C863 C864 1.524 . S
C863 C867 1.400 . S
C864 H849 0.960 . S
C864 H850 0.960 . S
C864 H851 0.960 . S
C864 C863 1.524 . S
C865 C862 1.403 . S
C865 C866 1.392 . S
C865 C869 1.495 . S
C866 C865 1.392 . S
C866 C867 1.385 . S
C866 C868 1.478 . S
C867 H861 0.930 . S
C867 C863 1.400 . S
C867 C866 1.385 . S
C868 C866 1.478 . S
C868 C870 1.381 . S
C868 C874 1.383 . S
C869 C865 1.495 . S
C869 H875 0.959 . S
C869 H876 0.961 . S
C869 H877 0.960 . S
C870 C868 1.381 . S
C870 C871 1.394 . S
C870 H878 0.930 . S
C871 C870 1.394 . S
C871 C872 1.383 . S
C871 H879 0.929 . S
C872 C871 1.383 . S
C872 C873 1.377 . S
C873 H857 0.930 . S
C873 C872 1.377 . S
C873 C874 1.379 . S
C874 H858 0.931 . S
C874 C868 1.383 . S
C874 C873 1.379 . S
H875 C869 0.959 . S
H876 C869 0.961 . S
H877 C869 0.960 . S
H878 C870 0.930 . S
H879 C871 0.929 . S
H880 C888 0.929 . S
H881 C890 0.930 . S
H882 C892 0.930 1_556 S
H883 C895 0.929 . S
H884 C898 0.930 . S
H885 C900 0.960 . S
H886 C900 0.960 . S
H887 C900 0.960 . S
C888 H880 0.929 . S
C888 C889 1.377 1_455 S
C888 C890 1.384 . S
C889 C888 1.377 1_655 S
C889 C895 1.390 . S
C890 H881 0.930 . S
C890 C888 1.384 . S
C890 C891 1.372 . S
C891 C890 1.372 . S
C891 C892 1.400 1_455 S
C891 C896 1.490 . S
C892 H882 0.930 1_554 S
C892 C891 1.400 1_655 S
C892 C895 1.386 . S
H893 C909 0.930 . S
H894 C910 0.931 . S
C895 H883 0.929 . S
C895 C889 1.390 . S
C895 C892 1.386 . S
C896 C891 1.490 . S
C896 C898 1.395 1_554 S
C896 C899 1.403 1_455 S
H897 C903 0.930 1_655 S
C898 H884 0.930 . S
C898 C896 1.395 1_556 S
C898 C901 1.403 . S
C899 C896 1.403 1_655 S
C899 C900 1.524 . S
C899 C903 1.400 1_654 S
C900 H885 0.960 . S
C900 H886 0.960 . S
C900 H887 0.960 . S
C900 C899 1.524 . S
C901 C898 1.403 . S
C901 C902 1.392 . S
C901 C905 1.495 . S
C902 C901 1.392 . S
C902 C903 1.385 . S
C902 C904 1.478 . S
C903 H897 0.930 1_455 S
C903 C899 1.400 1_456 S
C903 C902 1.385 . S
C904 C902 1.478 . S
C904 C906 1.381 . S
C904 C910 1.383 . S
C905 C901 1.495 . S
C905 H911 0.959 . S
C905 H912 0.961 . S
C905 H913 0.960 . S
C906 C904 1.381 . S
C906 C907 1.394 . S
C906 H914 0.930 . S
C907 C906 1.394 . S
C907 C908 1.383 . S
C907 H915 0.929 . S
C908 C907 1.383 . S
C908 C909 1.377 . S
C909 H893 0.930 . S
C909 C908 1.377 . S
C909 C910 1.379 . S
C910 H894 0.931 . S
C910 C904 1.383 . S
C910 C909 1.379 . S
H911 C905 0.959 . S
H912 C905 0.961 . S
H913 C905 0.960 . S
H914 C906 0.930 . S
H915 C907 0.929 . S
H916 C924 0.929 . S
H917 C926 0.906 1_545 S
H918 C928 0.930 1_556 S
H919 C931 0.929 . S
H920 C934 0.930 . S
H921 C936 0.960 . S
H922 C936 0.960 1_554 S
H923 C936 0.960 . S
C924 H916 0.929 . S
C924 C925 1.377 . S
C924 C926 1.400 . S
C925 C924 1.377 . S
C925 C931 1.390 . S
C926 H917 0.906 1_565 S
C926 C924 1.400 . S
C926 C927 1.382 . S
C927 C926 1.382 . S
C927 C928 1.400 . S
C927 C932 1.490 1_565 S
C928 H918 0.930 1_554 S
C928 C927 1.400 . S
C928 C931 1.386 . S
H929 C945 0.930 . S
H930 C946 0.931 . S
C931 H919 0.929 . S
C931 C925 1.390 . S
C931 C928 1.386 . S
C932 C927 1.490 1_545 S
C932 C934 1.395 . S
C932 C935 1.403 1_544 S
H933 C939 0.930 . S
C934 H920 0.930 . S
C934 C932 1.395 . S
C934 C937 1.403 1_554 S
C935 C932 1.403 1_566 S
C935 C936 1.524 . S
C935 C939 1.400 . S
C936 H921 0.960 . S
C936 H922 0.960 1_556 S
C936 H923 0.960 . S
C936 C935 1.524 . S
C937 C934 1.403 1_556 S
C937 C938 1.392 . S
C937 C941 1.495 . S
C938 C937 1.392 . S
C938 C939 1.385 1_545 S
C938 C940 1.478 . S
C939 H933 0.930 . S
C939 C935 1.400 . S
C939 C938 1.385 1_565 S
C940 C938 1.478 . S
C940 C942 1.381 . S
C940 C946 1.383 . S
C941 C937 1.495 . S
C941 H947 0.959 . S
C941 H948 0.961 . S
C941 H949 0.960 . S
C942 C940 1.381 . S
C942 C943 1.394 . S
C942 H950 0.930 . S
C943 C942 1.394 . S
C943 C944 1.383 . S
C943 H951 0.929 . S
C944 C943 1.383 . S
C944 C945 1.377 . S
C945 H929 0.930 . S
C945 C944 1.377 . S
C945 C946 1.379 . S
C946 H930 0.931 . S
C946 C940 1.383 . S
C946 C945 1.379 . S
H947 C941 0.959 . S
H948 C941 0.961 . S
H949 C941 0.960 . S
H950 C942 0.930 . S
H951 C943 0.929 . S
H952 C960 0.929 . S
H953 C962 0.930 1_556 S
H954 C964 0.930 . S
H955 C967 0.929 . S
H956 C970 0.930 . S
H957 C972 0.960 . S
H958 C972 0.960 . S
H959 C972 0.960 . S
C960 H952 0.929 . S
C960 C961 1.377 . S
C960 C962 1.384 . S
C961 C960 1.377 . S
C961 C967 1.390 . S
C962 H953 0.930 1_554 S
C962 C960 1.384 . S
C962 C963 1.372 . S
C963 C962 1.372 . S
C963 C964 1.400 . S
C963 C968 1.482 1_554 S
C964 H954 0.930 . S
C964 C963 1.400 . S
C964 C967 1.386 . S
H965 C981 0.930 . S
H966 C982 0.931 . S
C967 H955 0.929 . S
C967 C961 1.390 . S
C967 C964 1.386 . S
C968 C963 1.482 1_556 S
C968 C970 1.406 . S
C968 C971 1.400 1_556 S
H969 C975 0.930 . S
C970 H956 0.930 . S
C970 C968 1.406 . S
C970 C973 1.403 . S
C971 C968 1.400 1_554 S
C971 C972 1.524 . S
C971 C975 1.400 1_554 S
C972 H957 0.960 . S
C972 H958 0.960 . S
C972 H959 0.960 . S
C972 C971 1.524 . S
C973 C970 1.403 . S
C973 C974 1.392 . S
C973 C977 1.495 . S
C974 C973 1.392 . S
C974 C975 1.385 . S
C974 C976 1.478 . S
C975 H969 0.930 . S
C975 C971 1.400 1_556 S
C975 C974 1.385 . S
C976 C974 1.478 . S
C976 C978 1.381 . S
C976 C982 1.383 . S
C977 C973 1.495 . S
C977 H983 0.959 . S
C977 H984 0.961 . S
C977 H985 0.960 . S
C978 C976 1.381 . S
C978 C979 1.394 . S
C978 H986 0.930 . S
C979 C978 1.394 . S
C979 C980 1.383 . S
C979 H987 0.929 . S
C980 C979 1.383 . S
C980 C981 1.377 . S
C981 H965 0.930 . S
C981 C980 1.377 . S
C981 C982 1.379 . S
C982 H966 0.931 . S
C982 C976 1.383 . S
C982 C981 1.379 . S
H983 C977 0.959 . S
H984 C977 0.961 . S
H985 C977 0.960 . S
H986 C978 0.930 . S
H987 C979 0.929 . S
H988 C996 0.929 . S
H989 C998 0.930 . S
H990 C1000 0.930 1_556 S
H991 C1003 0.929 . S
H992 C1006 0.930 . S
H993 C1008 0.960 . S
H994 C1008 0.960 . S
H995 C1008 0.960 . S
C996 H988 0.929 . S
C996 C997 1.377 . S
C996 C998 1.384 . S
C997 C996 1.377 . S
C997 C1003 1.390 . S
C998 H989 0.930 . S
C998 C996 1.384 . S
C998 C999 1.372 . S
C999 C998 1.372 . S
C999 C1000 1.400 . S
C999 C1004 1.490 . S
C1000 H990 0.930 1_554 S
C1000 C999 1.400 . S
C1000 C1003 1.386 . S
H1001 C1017 0.930 . S
H1002 C1018 0.931 . S
C1003 H991 0.929 . S
C1003 C997 1.390 . S
C1003 C1000 1.386 . S
C1004 C999 1.490 . S
C1004 C1006 1.395 1_554 S
C1004 C1007 1.402 1_554 S
H1005 C1011 0.930 . S
C1006 H992 0.930 . S
C1006 C1004 1.395 1_556 S
C1006 C1009 1.403 . S
C1007 C1004 1.402 1_556 S
C1007 C1008 1.521 1_556 S
C1007 C1011 1.403 . S
C1008 H993 0.960 . S
C1008 H994 0.960 . S
C1008 H995 0.960 . S
C1008 C1007 1.521 1_554 S
C1009 C1006 1.403 . S
C1009 C1010 1.392 . S
C1009 C1013 1.495 . S
C1010 C1009 1.392 . S
C1010 C1011 1.385 . S
C1010 C1012 1.478 . S
C1011 H1005 0.930 . S
C1011 C1007 1.403 . S
C1011 C1010 1.385 . S
C1012 C1010 1.478 . S
C1012 C1014 1.381 . S
C1012 C1018 1.383 . S
C1013 C1009 1.495 . S
C1013 H1019 0.959 . S
C1013 H1020 0.961 . S
C1013 H1021 0.960 . S
C1014 C1012 1.381 . S
C1014 C1015 1.394 . S
C1014 H1022 0.930 . S
C1015 C1014 1.394 . S
C1015 C1016 1.383 . S
C1015 H1023 0.929 . S
C1016 C1015 1.383 . S
C1016 C1017 1.377 . S
C1017 H1001 0.930 . S
C1017 C1016 1.377 . S
C1017 C1018 1.379 . S
C1018 H1002 0.931 . S
C1018 C1012 1.383 . S
C1018 C1017 1.379 . S
H1019 C1013 0.959 . S
H1020 C1013 0.961 . S
H1021 C1013 0.960 . S
H1022 C1014 0.930 . S
H1023 C1015 0.929 . S
H1024 C1032 0.929 . S
H1025 C1034 0.930 . S
H1026 C1036 0.930 . S
H1027 C1039 0.929 . S
H1028 C1042 0.930 . S
H1029 C1044 0.960 . S
H1030 C1044 0.960 . S
H1031 C1044 0.960 . S
C1032 H1024 0.929 . S
C1032 C1033 1.377 . S
C1032 C1034 1.384 . S
C1033 C1032 1.377 . S
C1033 C1039 1.390 1_455 S
C1034 H1025 0.930 . S
C1034 C1032 1.384 . S
C1034 C1035 1.372 . S
C1035 C1034 1.372 . S
C1035 C1036 1.400 1_455 S
C1035 C1040 1.490 . S
C1036 H1026 0.930 . S
C1036 C1035 1.400 1_655 S
C1036 C1039 1.386 . S
H1037 C1053 0.930 . S
H1038 C1054 0.931 . S
C1039 H1027 0.929 . S
C1039 C1033 1.390 1_655 S
C1039 C1036 1.386 . S
C1040 C1035 1.490 . S
C1040 C1042 1.395 1_455 S
C1040 C1043 1.403 . S
H1041 C1047 0.930 . S
C1042 H1028 0.930 . S
C1042 C1040 1.395 1_655 S
C1042 C1045 1.403 . S
C1043 C1040 1.403 . S
C1043 C1044 1.524 . S
C1043 C1047 1.400 . S
C1044 H1029 0.960 . S
C1044 H1030 0.960 . S
C1044 H1031 0.960 . S
C1044 C1043 1.524 . S
C1045 C1042 1.403 . S
C1045 C1046 1.392 1_655 S
C1045 C1049 1.495 . S
C1046 C1045 1.392 1_455 S
C1046 C1047 1.385 . S
C1046 C1048 1.478 . S
C1047 H1041 0.930 . S
C1047 C1043 1.400 . S
C1047 C1046 1.385 . S
C1048 C1046 1.478 . S
C1048 C1050 1.381 . S
C1048 C1054 1.383 1_455 S
C1049 C1045 1.495 . S
C1049 H1055 0.959 . S
C1049 H1056 0.961 . S
C1049 H1057 0.960 . S
C1050 C1048 1.381 . S
C1050 C1051 1.394 . S
C1050 H1058 0.930 . S
C1051 C1050 1.394 . S
C1051 C1052 1.383 . S
C1051 H1059 0.929 . S
C1052 C1051 1.383 . S
C1052 C1053 1.377 1_455 S
C1053 H1037 0.930 . S
C1053 C1052 1.377 1_655 S
C1053 C1054 1.379 . S
C1054 H1038 0.931 . S
C1054 C1048 1.383 1_655 S
C1054 C1053 1.379 . S
H1055 C1049 0.959 . S
H1056 C1049 0.961 . S
H1057 C1049 0.960 . S
H1058 C1050 0.930 . S
H1059 C1051 0.929 . S
H1060 C1068 0.929 . S
H1061 C1070 0.930 . S
H1062 C1072 0.930 . S
H1063 C1075 0.929 . S
H1064 C1078 0.930 . S
H1065 C1080 0.960 . S
H1066 C1080 0.960 . S
H1067 C1080 0.960 . S
C1068 H1060 0.929 . S
C1068 C1069 1.377 . S
C1068 C1070 1.384 . S
C1069 C1068 1.377 . S
C1069 C1075 1.390 . S
C1070 H1061 0.930 . S
C1070 C1068 1.384 . S
C1070 C1071 1.372 . S
C1071 C1070 1.372 . S
C1071 C1072 1.400 . S
C1071 C1076 1.490 . S
C1072 H1062 0.930 . S
C1072 C1071 1.400 . S
C1072 C1075 1.386 . S
H1073 C1089 0.930 1_565 S
H1074 C1090 0.931 1_565 S
C1075 H1063 0.929 . S
C1075 C1069 1.390 . S
C1075 C1072 1.386 . S
C1076 C1071 1.490 . S
C1076 C1078 1.395 . S
C1076 C1079 1.403 . S
H1077 C1083 0.930 . S
C1078 H1064 0.930 . S
C1078 C1076 1.395 . S
C1078 C1081 1.403 . S
C1079 C1076 1.403 . S
C1079 C1080 1.524 . S
C1079 C1083 1.400 . S
C1080 H1065 0.960 . S
C1080 H1066 0.960 . S
C1080 H1067 0.960 . S
C1080 C1079 1.524 . S
C1081 C1078 1.403 . S
C1081 C1082 1.392 . S
C1081 C1085 1.495 . S
C1082 C1081 1.392 . S
C1082 C1083 1.385 . S
C1082 C1084 1.478 . S
C1083 H1077 0.930 . S
C1083 C1079 1.400 . S
C1083 C1082 1.385 . S
C1084 C1082 1.478 . S
C1084 C1086 1.381 . S
C1084 C1090 1.383 . S
C1085 C1081 1.495 . S
C1085 H1091 0.959 . S
C1085 H1092 0.961 . S
C1085 H1093 0.960 . S
C1086 C1084 1.381 . S
C1086 C1087 1.394 . S
C1086 H1094 0.930 . S
C1087 C1086 1.394 . S
C1087 C1088 1.383 . S
C1087 H1095 0.929 . S
C1088 C1087 1.383 . S
C1088 C1089 1.377 . S
C1089 H1073 0.930 1_545 S
C1089 C1088 1.377 . S
C1089 C1090 1.379 . S
C1090 H1074 0.931 1_545 S
C1090 C1084 1.383 . S
C1090 C1089 1.379 . S
H1091 C1085 0.959 . S
H1092 C1085 0.961 . S
H1093 C1085 0.960 . S
H1094 C1086 0.930 . S
H1095 C1087 0.929 . S
H1096 C1104 0.929 . S
H1097 C1106 0.930 . S
H1098 C1108 0.930 . S
H1099 C1111 0.929 . S
H1100 C1114 0.930 . S
H1101 C1116 0.960 . S
H1102 C1116 0.960 . S
H1103 C1116 0.960 . S
C1104 H1096 0.929 . S
C1104 C1105 1.377 . S
C1104 C1106 1.384 . S
C1105 C1104 1.377 . S
C1105 C1111 1.390 . S
C1106 H1097 0.930 . S
C1106 C1104 1.384 . S
C1106 C1107 1.372 . S
C1107 C1106 1.372 . S
C1107 C1108 1.400 . S
C1107 C1112 1.490 . S
C1108 H1098 0.930 . S
C1108 C1107 1.400 . S
C1108 C1111 1.386 . S
H1109 C1125 0.930 . S
H1110 C1126 0.931 . S
C1111 H1099 0.929 . S
C1111 C1105 1.390 . S
C1111 C1108 1.386 . S
C1112 C1107 1.490 . S
C1112 C1114 1.395 . S
C1112 C1115 1.403 . S
H1113 C1119 0.930 . S
C1114 H1100 0.930 . S
C1114 C1112 1.395 . S
C1114 C1117 1.403 . S
C1115 C1112 1.403 . S
C1115 C1116 1.524 . S
C1115 C1119 1.400 . S
C1116 H1101 0.960 . S
C1116 H1102 0.960 . S
C1116 H1103 0.960 . S
C1116 C1115 1.524 . S
C1117 C1114 1.403 . S
C1117 C1118 1.392 . S
C1117 C1121 1.495 . S
C1118 C1117 1.392 . S
C1118 C1119 1.385 . S
C1118 C1120 1.478 . S
C1119 H1113 0.930 . S
C1119 C1115 1.400 . S
C1119 C1118 1.385 . S
C1120 C1118 1.478 . S
C1120 C1122 1.381 . S
C1120 C1126 1.383 . S
C1121 C1117 1.495 . S
C1121 H1127 0.959 . S
C1121 H1128 0.961 . S
C1121 H1129 0.960 . S
C1122 C1120 1.381 . S
C1122 C1123 1.394 . S
C1122 H1130 0.930 . S
C1123 C1122 1.394 . S
C1123 C1124 1.383 . S
C1123 H1131 0.929 . S
C1124 C1123 1.383 . S
C1124 C1125 1.377 . S
C1125 H1109 0.930 . S
C1125 C1124 1.377 . S
C1125 C1126 1.379 . S
C1126 H1110 0.931 . S
C1126 C1120 1.383 . S
C1126 C1125 1.379 . S
H1127 C1121 0.959 . S
H1128 C1121 0.961 . S
H1129 C1121 0.960 . S
H1130 C1122 0.930 . S
H1131 C1123 0.929 . S
H1132 C1140 0.929 . S
H1133 C1142 0.930 . S
H1134 C1144 0.930 . S
H1135 C1147 0.929 . S
H1136 C1150 0.930 . S
H1137 C1152 0.960 . S
H1138 C1152 0.960 . S
H1139 C1152 0.960 . S
C1140 H1132 0.929 . S
C1140 C1141 1.377 . S
C1140 C1142 1.384 . S
C1141 C1140 1.377 . S
C1141 C1147 1.390 . S
C1142 H1133 0.930 . S
C1142 C1140 1.384 . S
C1142 C1143 1.372 . S
C1143 C1142 1.372 . S
C1143 C1144 1.400 . S
C1143 C1148 1.490 . S
C1144 H1134 0.930 . S
C1144 C1143 1.400 . S
C1144 C1147 1.386 . S
H1145 C1161 0.930 . S
H1146 C1162 0.931 . S
C1147 H1135 0.929 . S
C1147 C1141 1.390 . S
C1147 C1144 1.386 . S
C1148 C1143 1.490 . S
C1148 C1150 1.395 . S
C1148 C1151 1.403 . S
H1149 C1155 0.930 . S
C1150 H1136 0.930 . S
C1150 C1148 1.395 . S
C1150 C1153 1.403 . S
C1151 C1148 1.403 . S
C1151 C1152 1.524 . S
C1151 C1155 1.400 . S
C1152 H1137 0.960 . S
C1152 H1138 0.960 . S
C1152 H1139 0.960 . S
C1152 C1151 1.524 . S
C1153 C1150 1.403 . S
C1153 C1154 1.392 . S
C1153 C1157 1.495 . S
C1154 C1153 1.392 . S
C1154 C1155 1.385 . S
C1154 C1156 1.478 . S
C1155 H1149 0.930 . S
C1155 C1151 1.400 . S
C1155 C1154 1.385 . S
C1156 C1154 1.478 . S
C1156 C1158 1.381 . S
C1156 C1162 1.383 . S
C1157 C1153 1.495 . S
C1157 H1163 0.959 . S
C1157 H1164 0.961 . S
C1157 H1165 0.960 . S
C1158 C1156 1.381 . S
C1158 C1159 1.394 . S
C1158 H1166 0.930 . S
C1159 C1158 1.394 . S
C1159 C1160 1.383 . S
C1159 H1167 0.929 . S
C1160 C1159 1.383 . S
C1160 C1161 1.377 . S
C1161 H1145 0.930 . S
C1161 C1160 1.377 . S
C1161 C1162 1.379 . S
C1162 H1146 0.931 . S
C1162 C1156 1.383 . S
C1162 C1161 1.379 . S
H1163 C1157 0.959 . S
H1164 C1157 0.961 . S
H1165 C1157 0.960 . S
H1166 C1158 0.930 . S
H1167 C1159 0.929 . S
H1168 C1176 0.929 . S
H1169 C1178 0.930 . S
H1170 C1180 0.930 . S
H1171 C1183 0.929 . S
H1172 C1186 0.930 . S
H1173 C1188 0.960 . S
H1174 C1188 0.960 . S
H1175 C1188 0.960 . S
C1176 H1168 0.929 . S
C1176 C1177 1.377 1_455 S
C1176 C1178 1.384 . S
C1177 C1176 1.377 1_655 S
C1177 C1183 1.390 . S
C1178 H1169 0.930 . S
C1178 C1176 1.384 . S
C1178 C1179 1.372 1_455 S
C1179 C1178 1.372 1_655 S
C1179 C1180 1.400 . S
C1179 C1184 1.490 . S
C1180 H1170 0.930 . S
C1180 C1179 1.400 . S
C1180 C1183 1.386 . S
H1181 C1197 0.930 . S
H1182 C1198 0.931 . S
C1183 H1171 0.929 . S
C1183 C1177 1.390 . S
C1183 C1180 1.386 . S
C1184 C1179 1.490 . S
C1184 C1186 1.395 . S
C1184 C1187 1.403 1_655 S
H1185 C1191 0.930 . S
C1186 H1172 0.930 . S
C1186 C1184 1.395 . S
C1186 C1189 1.403 . S
C1187 C1184 1.403 1_455 S
C1187 C1188 1.524 . S
C1187 C1191 1.400 . S
C1188 H1173 0.960 . S
C1188 H1174 0.960 . S
C1188 H1175 0.960 . S
C1188 C1187 1.524 . S
C1189 C1186 1.403 . S
C1189 C1190 1.392 . S
C1189 C1193 1.495 . S
C1190 C1189 1.392 . S
C1190 C1191 1.385 1_655 S
C1190 C1192 1.478 . S
C1191 H1185 0.930 . S
C1191 C1187 1.400 . S
C1191 C1190 1.385 1_455 S
C1192 C1190 1.478 . S
C1192 C1194 1.381 1_655 S
C1192 C1198 1.383 . S
C1193 C1189 1.495 . S
C1193 H1199 0.959 . S
C1193 H1200 0.961 . S
C1193 H1201 0.960 . S
C1194 C1192 1.381 1_455 S
C1194 C1195 1.394 . S
C1194 H1202 0.930 . S
C1195 C1194 1.394 . S
C1195 C1196 1.383 1_455 S
C1195 H1203 0.929 . S
C1196 C1195 1.383 1_655 S
C1196 C1197 1.377 . S
C1197 H1181 0.930 . S
C1197 C1196 1.377 . S
C1197 C1198 1.379 . S
C1198 H1182 0.931 . S
C1198 C1192 1.383 . S
C1198 C1197 1.379 . S
H1199 C1193 0.959 . S
H1200 C1193 0.961 . S
H1201 C1193 0.960 . S
H1202 C1194 0.930 . S
H1203 C1195 0.929 . S
H1204 C1212 0.929 . S
H1205 C1214 0.930 . S
H1206 C1216 0.930 . S
H1207 C1219 0.929 . S
H1208 C1222 0.930 . S
H1209 C1224 0.960 . S
H1210 C1224 0.960 1_545 S
H1211 C1224 0.960 . S
C1212 H1204 0.929 . S
C1212 C1213 1.377 1_545 S
C1212 C1214 1.384 . S
C1213 C1212 1.377 1_565 S
C1213 C1219 1.390 . S
C1214 H1205 0.930 . S
C1214 C1212 1.384 . S
C1214 C1215 1.372 1_545 S
C1215 C1214 1.372 1_565 S
C1215 C1216 1.400 . S
C1215 C1220 1.490 . S
C1216 H1206 0.930 . S
C1216 C1215 1.400 . S
C1216 C1219 1.386 . S
H1217 C1233 0.930 . S
H1218 C1234 0.931 . S
C1219 H1207 0.929 . S
C1219 C1213 1.390 . S
C1219 C1216 1.386 . S
C1220 C1215 1.490 . S
C1220 C1222 1.395 . S
C1220 C1223 1.403 . S
H1221 C1227 0.930 . S
C1222 H1208 0.930 . S
C1222 C1220 1.395 . S
C1222 C1225 1.403 . S
C1223 C1220 1.403 . S
C1223 C1224 1.524 . S
C1223 C1227 1.400 . S
C1224 H1209 0.960 . S
C1224 H1210 0.960 1_565 S
C1224 H1211 0.960 . S
C1224 C1223 1.524 . S
C1225 C1222 1.403 . S
C1225 C1226 1.392 . S
C1225 C1229 1.495 . S
C1226 C1225 1.392 . S
C1226 C1227 1.385 . S
C1226 C1228 1.478 . S
C1227 H1221 0.930 . S
C1227 C1223 1.400 . S
C1227 C1226 1.385 . S
C1228 C1226 1.478 . S
C1228 C1230 1.381 1_565 S
C1228 C1234 1.383 . S
C1229 C1225 1.495 . S
C1229 H1235 0.959 . S
C1229 H1236 0.961 . S
C1229 H1237 0.960 . S
C1230 C1228 1.381 1_545 S
C1230 C1231 1.394 . S
C1230 H1238 0.930 . S
C1231 C1230 1.394 . S
C1231 C1232 1.383 1_545 S
C1231 H1239 0.929 . S
C1232 C1231 1.383 1_565 S
C1232 C1233 1.377 . S
C1233 H1217 0.930 . S
C1233 C1232 1.377 . S
C1233 C1234 1.379 . S
C1234 H1218 0.931 . S
C1234 C1228 1.383 . S
C1234 C1233 1.379 . S
H1235 C1229 0.959 . S
H1236 C1229 0.961 . S
H1237 C1229 0.960 . S
H1238 C1230 0.930 . S
H1239 C1231 0.929 . S
H1240 C1248 0.929 . S
H1241 C1250 0.930 . S
H1242 C1252 0.930 . S
H1243 C1255 0.929 . S
H1244 C1258 0.930 . S
H1245 C1260 0.960 . S
H1246 C1260 0.960 . S
H1247 C1260 0.960 . S
C1248 H1240 0.929 . S
C1248 C1249 1.377 . S
C1248 C1250 1.384 . S
C1249 C1248 1.377 . S
C1249 C1255 1.390 . S
C1250 H1241 0.930 . S
C1250 C1248 1.384 . S
C1250 C1251 1.372 . S
C1251 C1250 1.372 . S
C1251 C1252 1.400 . S
C1251 C1256 1.490 . S
C1252 H1242 0.930 . S
C1252 C1251 1.400 . S
C1252 C1255 1.386 . S
H1253 C1269 0.930 . S
H1254 C1270 0.931 . S
C1255 H1243 0.929 . S
C1255 C1249 1.390 . S
C1255 C1252 1.386 . S
C1256 C1251 1.490 . S
C1256 C1258 1.395 . S
C1256 C1259 1.403 . S
H1257 C1263 0.930 . S
C1258 H1244 0.930 . S
C1258 C1256 1.395 . S
C1258 C1261 1.403 . S
C1259 C1256 1.403 . S
C1259 C1260 1.524 . S
C1259 C1263 1.400 . S
C1260 H1245 0.960 . S
C1260 H1246 0.960 . S
C1260 H1247 0.960 . S
C1260 C1259 1.524 . S
C1261 C1258 1.403 . S
C1261 C1262 1.392 . S
C1261 C1265 1.495 . S
C1262 C1261 1.392 . S
C1262 C1263 1.385 . S
C1262 C1264 1.478 . S
C1263 H1257 0.930 . S
C1263 C1259 1.400 . S
C1263 C1262 1.385 . S
C1264 C1262 1.478 . S
C1264 C1266 1.381 . S
C1264 C1270 1.383 . S
C1265 C1261 1.495 . S
C1265 H1271 0.959 . S
C1265 H1272 0.961 . S
C1265 H1273 0.960 . S
C1266 C1264 1.381 . S
C1266 C1267 1.394 . S
C1266 H1274 0.930 . S
C1267 C1266 1.394 . S
C1267 C1268 1.383 . S
C1267 H1275 0.929 . S
C1268 C1267 1.383 . S
C1268 C1269 1.377 . S
C1269 H1253 0.930 . S
C1269 C1268 1.377 . S
C1269 C1270 1.379 . S
C1270 H1254 0.931 . S
C1270 C1264 1.383 . S
C1270 C1269 1.379 . S
H1271 C1265 0.959 . S
H1272 C1265 0.961 . S
H1273 C1265 0.960 . S
H1274 C1266 0.930 . S
H1275 C1267 0.929 . S
H1276 C1284 0.929 . S
H1277 C1286 0.930 . S
H1278 C1288 0.930 . S
H1279 C1291 0.929 . S
H1280 C1294 0.930 . S
H1281 C1296 0.960 . S
H1282 C1296 0.960 . S
H1283 C1296 0.960 . S
C1284 H1276 0.929 . S
C1284 C1285 1.377 . S
C1284 C1286 1.384 . S
C1285 C1284 1.377 . S
C1285 C1291 1.390 . S
C1286 H1277 0.930 . S
C1286 C1284 1.384 . S
C1286 C1287 1.372 . S
C1287 C1286 1.372 . S
C1287 C1288 1.400 . S
C1287 C1292 1.490 . S
C1288 H1278 0.930 . S
C1288 C1287 1.400 . S
C1288 C1291 1.386 . S
H1289 C1305 0.930 . S
H1290 C1306 0.931 . S
C1291 H1279 0.929 . S
C1291 C1285 1.390 . S
C1291 C1288 1.386 . S
C1292 C1287 1.490 . S
C1292 C1294 1.395 . S
C1292 C1295 1.403 . S
H1293 C1299 0.930 . S
C1294 H1280 0.930 . S
C1294 C1292 1.395 . S
C1294 C1297 1.403 . S
C1295 C1292 1.403 . S
C1295 C1296 1.524 . S
C1295 C1299 1.400 . S
C1296 H1281 0.960 . S
C1296 H1282 0.960 . S
C1296 H1283 0.960 . S
C1296 C1295 1.524 . S
C1297 C1294 1.403 . S
C1297 C1298 1.392 . S
C1297 C1301 1.495 . S
C1298 C1297 1.392 . S
C1298 C1299 1.385 . S
C1298 C1300 1.478 . S
C1299 H1293 0.930 . S
C1299 C1295 1.400 . S
C1299 C1298 1.385 . S
C1300 C1298 1.478 . S
C1300 C1302 1.381 . S
C1300 C1306 1.383 . S
C1301 C1297 1.495 . S
C1301 H1307 0.959 . S
C1301 H1308 0.961 . S
C1301 H1309 0.960 . S
C1302 C1300 1.381 . S
C1302 C1303 1.394 . S
C1302 H1310 0.930 . S
C1303 C1302 1.394 . S
C1303 C1304 1.383 . S
C1303 H1311 0.929 . S
C1304 C1303 1.383 . S
C1304 C1305 1.377 . S
C1305 H1289 0.930 . S
C1305 C1304 1.377 . S
C1305 C1306 1.379 . S
C1306 H1290 0.931 . S
C1306 C1300 1.383 . S
C1306 C1305 1.379 . S
H1307 C1301 0.959 . S
H1308 C1301 0.961 . S
H1309 C1301 0.960 . S
H1310 C1302 0.930 . S
H1311 C1303 0.929 . S
C457 C241 1.866 . S
C476 C298 2.011 . S
C512 C338 2.000 . S
C493 C277 1.920 . S
C548 C378 2.015 . S
C529 C169 1.874 . S
C584 C418 1.998 . S
C565 C205 1.867 . S
C620 C307 2.008 . S
C601 C97 1.866 . S
C637 C133 1.910 . S
C656 C347 2.003 . S
C673 C25 1.855 . S
C692 C387 2.008 . S
C709 C61 1.856 . S
C728 C427 1.999 1_655 S
C764 C304 0.202 . S
C745 C211 0.250 . S
C800 C344 0.353 . S
C781 C247 0.300 . S
C836 C384 0.252 . S
C817 C253 0.266 . S
C853 C175 0.298 . S
C872 C424 0.398 . S
C889 C67 0.334 1_655 S
C908 C295 0.381 . S
C944 C335 0.421 . S
C925 C103 0.385 . S
C980 C375 0.221 . S
C961 C109 0.204 . S
C997 C31 0.375 . S
C1016 C415 0.422 . S
C1033 C181 2.533 . S
C1052 C299 2.811 . S
C1069 C217 2.526 . S
C1088 C339 2.801 . S
C1124 C379 2.796 . S
C1105 C283 2.458 . S
C1160 C419 2.816 . S
C1141 C145 2.533 . S
C1177 C37 2.536 1_655 S
C1196 C290 2.822 . S
C1232 C330 2.803 . S
C1213 C73 2.520 . S
C1268 C370 2.810 . S
C1249 C139 2.446 . S
C1285 C1 2.532 . S
C1304 C410 2.831 . S
