# Generated by pormake.
# Topology zzz, (3,6)-cn, num edge types: 1
# Building blocks:
#     Node 0, Type 0, BuildingBlock: PAMTOO_clean_linker_0, # of connection points: 3
#     Node 1, Type 0, BuildingBlock: PAMTOO_clean_linker_0, # of connection points: 3
#     Node 2, Type 0, BuildingBlock: PAMTOO_clean_linker_0, # of connection points: 3
#     Node 3, Type 0, BuildingBlock: PAMTOO_clean_linker_0, # of connection points: 3
#     Node 4, Type 0, BuildingBlock: PAMTOO_clean_linker_0, # of connection points: 3
#     Node 5, Type 0, BuildingBlock: PAMTOO_clean_linker_0, # of connection points: 3
#     Node 6, Type 0, BuildingBlock: PAMTOO_clean_linker_0, # of connection points: 3
#     Node 7, Type 0, BuildingBlock: PAMTOO_clean_linker_0, # of connection points: 3
#     Node 8, Type 1, BuildingBlock: VOLQOD_clean_sbu_1, # of connection points: 6
#     Node 9, Type 1, BuildingBlock: VOLQOD_clean_sbu_1, # of connection points: 6
#     Node 10, Type 1, BuildingBlock: VOLQOD_clean_sbu_1, # of connection points: 6
#     Node 11, Type 1, BuildingBlock: VOLQOD_clean_sbu_1, # of connection points: 6
#     Edge 12, Type (0, 1), BuildingBlock: CIFDUS_clean_linker_0, # of connection points: 2
#     Edge 13, Type (0, 1), BuildingBlock: CIFDUS_clean_linker_0, # of connection points: 2
#     Edge 14, Type (0, 1), BuildingBlock: CIFDUS_clean_linker_0, # of connection points: 2
#     Edge 15, Type (0, 1), BuildingBlock: CIFDUS_clean_linker_0, # of connection points: 2
#     Edge 16, Type (0, 1), BuildingBlock: CIFDUS_clean_linker_0, # of connection points: 2
#     Edge 17, Type (0, 1), BuildingBlock: CIFDUS_clean_linker_0, # of connection points: 2
#     Edge 18, Type (0, 1), BuildingBlock: CIFDUS_clean_linker_0, # of connection points: 2
#     Edge 19, Type (0, 1), BuildingBlock: CIFDUS_clean_linker_0, # of connection points: 2
#     Edge 20, Type (0, 1), BuildingBlock: CIFDUS_clean_linker_0, # of connection points: 2
#     Edge 21, Type (0, 1), BuildingBlock: CIFDUS_clean_linker_0, # of connection points: 2
#     Edge 22, Type (0, 1), BuildingBlock: CIFDUS_clean_linker_0, # of connection points: 2
#     Edge 23, Type (0, 1), BuildingBlock: CIFDUS_clean_linker_0, # of connection points: 2
#     Edge 24, Type (0, 1), BuildingBlock: CIFDUS_clean_linker_0, # of connection points: 2
#     Edge 25, Type (0, 1), BuildingBlock: CIFDUS_clean_linker_0, # of connection points: 2
#     Edge 26, Type (0, 1), BuildingBlock: CIFDUS_clean_linker_0, # of connection points: 2
#     Edge 27, Type (0, 1), BuildingBlock: CIFDUS_clean_linker_0, # of connection points: 2
#     Edge 28, Type (0, 1), BuildingBlock: CIFDUS_clean_linker_0, # of connection points: 2
#     Edge 29, Type (0, 1), BuildingBlock: CIFDUS_clean_linker_0, # of connection points: 2
#     Edge 30, Type (0, 1), BuildingBlock: CIFDUS_clean_linker_0, # of connection points: 2
#     Edge 31, Type (0, 1), BuildingBlock: CIFDUS_clean_linker_0, # of connection points: 2
#     Edge 32, Type (0, 1), BuildingBlock: CIFDUS_clean_linker_0, # of connection points: 2
#     Edge 33, Type (0, 1), BuildingBlock: CIFDUS_clean_linker_0, # of connection points: 2
#     Edge 34, Type (0, 1), BuildingBlock: CIFDUS_clean_linker_0, # of connection points: 2
#     Edge 35, Type (0, 1), BuildingBlock: CIFDUS_clean_linker_0, # of connection points: 2
# Relax obj value: 0.190
# Max RMSD: 0.234
# Mean RMSD: 0.108
data_MOF--net-zzz--node1-VOLQOD_clean_sbu_1--node2-PAMTOO_clean_linker_0--edge1-CIFDUS_clean_linker_0
_symmetry_space_group_name_H-M    P1
_symmetry_Int_Tables_number       1
_symmetry_cell_setting            triclinic
loop_
_symmetry_equiv_pos_as_xyz
'x, y, z'
_cell_length_a     45.029887
_cell_length_b     44.629738
_cell_length_c     15.296982
_cell_angle_alpha  89.970671
_cell_angle_beta   90.185058
_cell_angle_gamma 90.876034
loop_
_atom_site_label
_atom_site_type_symbol
_atom_site_fract_x
_atom_site_fract_y
_atom_site_fract_z
_atom_type_partial_charge
H0 H 0.85398 0.51427 0.15253 0.0
H1 H 0.7745 0.5159 0.99473 0.0
H2 H 0.78023 0.56707 0.23282 0.0
H3 H 0.7129 0.55127 0.18108 0.0
C4 C 0.72111 0.53974 0.12168 0.0
O5 O 0.74706 0.55375 0.09456 0.0
H6 H 0.72506 0.51598 0.14041 0.0
C7 C 0.83136 0.52138 0.14142 0.0
C8 C 0.81882 0.54093 0.2017 0.0
C9 C 0.81572 0.5117 0.06681 0.0
C10 C 0.78703 0.52267 0.05217 0.0
C11 C 0.7743 0.5427 0.11154 0.0
C12 C 0.79016 0.55178 0.18677 0.0
H13 H 0.02312 0.84901 0.12725 0.0
H14 H 0.03305 0.76269 0.00666 0.0
H15 H 0.97466 0.77283 0.22655 0.0
H16 H 1.00428 0.70922 0.2158 0.0
C17 C 0.01123 0.71192 0.14651 0.0
O18 O 0.99545 0.73509 0.10986 0.0
H19 H 0.0355 0.71704 0.14527 0.0
C20 C 0.01846 0.8251 0.12565 0.0
C21 C 0.99766 0.81318 0.18442 0.0
C22 C 0.03158 0.80736 0.0613 0.0
C23 C 0.02398 0.77673 0.05747 0.0
C24 C 1.00388 0.76418 0.11788 0.0
C25 C 0.99087 0.78238 0.18191 0.0
H26 H 0.67297 0.02369 0.12265 0.0
H27 H 0.75671 0.02481 0.98972 0.0
H28 H 0.75045 0.99014 0.25203 0.0
H29 H 0.81808 0.0092 0.20623 0.0
C30 C 0.8088 0.01792 0.14402 0.0
O31 O 0.78582 0.99919 0.11718 0.0
H32 H 0.80072 0.04094 0.15776 0.0
C33 C 0.69677 0.02037 0.12384 0.0
C34 C 0.70971 0.00762 0.1982 0.0
C35 C 0.71332 0.02739 0.04919 0.0
C36 C 0.74359 0.02036 0.04766 0.0
C37 C 0.75692 0.00692 0.12076 0.0
C38 C 0.74 1.00051 0.19602 0.0
H39 H 0.50668 0.66916 0.11202 0.0
H40 H 0.50549 0.75646 -0.00332 0.0
H41 H 0.53842 0.74522 0.25941 0.0
H42 H 0.52208 0.81837 0.21008 0.0
C43 C 0.51212 0.80619 0.15361 0.0
O44 O 0.53097 0.78347 0.12957 0.0
H45 H 0.49029 0.79691 0.1759 0.0
C46 C 0.50961 0.69318 0.11929 0.0
C47 C 0.52165 0.70471 0.19709 0.0
C48 C 0.50247 0.7115 0.04844 0.0
C49 C 0.50967 0.7421 0.05237 0.0
C50 C 0.52279 0.75418 0.12827 0.0
C51 C 0.52853 0.7356 0.20101 0.0
H52 H 0.16671 0.53525 0.21511 0.0
H53 H 0.24718 0.54597 0.36568 0.0
H54 H 0.24591 0.49069 0.13587 0.0
H55 H 0.28611 0.46489 0.28007 0.0
C56 C 0.28332 0.48479 0.32279 0.0
O57 O 0.27783 0.50952 0.27093 0.0
H58 H 0.26415 0.4797 0.36662 0.0
C59 C 0.19019 0.53139 0.22447 0.0
C60 C 0.20451 0.51231 0.16591 0.0
C61 C 0.20494 0.54362 0.2975 0.0
C62 C 0.23518 0.5373 0.30942 0.0
C63 C 0.24982 0.51806 0.25194 0.0
C64 C 0.23465 0.50596 0.17918 0.0
H65 H 0.01635 0.16171 0.17129 0.0
H66 H 0.99779 0.24244 0.3137 0.0
H67 H 0.04531 0.24704 0.07044 0.0
H68 H 0.06627 0.29821 0.20462 0.0
C69 C 0.04896 0.29069 0.25178 0.0
O70 O 0.02558 0.27803 0.20503 0.0
H71 H 0.05913 0.27398 0.2965 0.0
C72 C 0.01764 0.18589 0.17756 0.0
C73 C 0.03211 0.20249 0.11231 0.0
C74 C 0.00459 0.19986 0.2497 0.0
C75 C 0.00727 0.23112 0.25797 0.0
C76 C 0.02242 0.24804 0.19439 0.0
C77 C 0.03429 0.23382 0.12048 0.0
H78 H 0.35067 0.00584 0.18033 0.0
H79 H 0.26815 0.9915 0.31653 0.0
H80 H 0.26947 0.03853 0.07081 0.0
H81 H 0.21538 0.06033 0.19059 0.0
C82 C 0.2244 0.0454 0.24213 0.0
O83 O 0.23599 0.0203 0.20273 0.0
H84 H 0.24195 0.05861 0.27722 0.0
C85 C 0.32679 0.00829 0.18435 0.0
C86 C 0.31217 0.02353 0.11738 0.0
C87 C 0.31129 0.99594 0.25549 0.0
C88 C 0.28055 1.00027 0.26134 0.0
C89 C 0.26556 0.01595 0.19547 0.0
C90 C 0.28124 0.02701 0.12241 0.0
H91 H 0.49838 0.33826 0.24476 0.0
H92 H 0.5073 0.24645 0.31941 0.0
H93 H 0.47691 0.26844 0.05976 0.0
H94 H 0.44828 0.20266 0.13634 0.0
C95 C 0.46068 0.20913 0.19653 0.0
O96 O 0.48633 0.22449 0.17268 0.0
H97 H 0.4456 0.22357 0.23524 0.0
C98 C 0.49687 0.31475 0.22705 0.0
C99 C 0.48815 0.30652 0.14235 0.0
C100 C 0.50452 0.29351 0.28987 0.0
C101 C 0.50166 0.26306 0.27068 0.0
C102 C 0.49055 0.25406 0.18878 0.0
C103 C 0.4842 0.27571 0.12395 0.0
O104 O 0.0813 0.01156 0.60091 0.0
Zn105 Zn 0.05405 0.00704 0.70682 0.0
O106 O 0.01197 1.00291 0.66723 0.0
Zn107 Zn 0.98902 0.03666 0.70872 0.0
Zn108 Zn 0.00936 1.00097 0.53957 0.0
Zn109 Zn 0.9937 0.96663 0.71394 0.0
O110 O 0.95457 0.02399 0.78584 0.0
O111 O 0.95921 0.97469 0.79469 0.0
O112 O 0.05982 0.04438 0.78387 0.0
O113 O 0.01507 0.06469 0.77664 0.0
O114 O 0.9742 0.06129 0.60951 0.0
O115 O 0.9855 0.03518 0.49102 0.0
O116 O 0.99284 0.96099 0.49702 0.0
O117 O 0.06699 0.96964 0.77403 0.0
O118 O 0.981 0.9377 0.62047 0.0
O119 O 0.02427 0.94389 0.77687 0.0
C120 C 0.07647 0.01043 0.51864 0.0
C121 C 0.94593 0.99865 0.81556 0.0
C122 C 0.97404 0.05798 0.52702 0.0
C123 C 0.04199 0.06547 0.80196 0.0
C124 C 0.98268 0.9381 0.53757 0.0
C125 C 0.05178 0.94634 0.7945 0.0
O126 O 0.05034 0.00619 0.48837 0.0
O127 O 0.50068 0.07868 0.62061 0.0
Zn128 Zn 0.50773 0.04654 0.71382 0.0
O129 O 0.50813 0.00614 0.6593 0.0
Zn130 Zn 0.47624 0.98109 0.70547 0.0
Zn131 Zn 0.50353 0.00984 0.53392 0.0
Zn132 Zn 0.54539 0.98536 0.6798 0.0
O133 O 0.49157 0.94624 0.77695 0.0
O134 O 0.54012 0.94761 0.75246 0.0
O135 O 0.47296 0.04969 0.79997 0.0
O136 O 0.44997 0.00569 0.78044 0.0
O137 O 0.44981 0.96572 0.60977 0.0
O138 O 0.47113 0.98243 0.48787 0.0
O139 O 0.54244 1.00324 0.4755 0.0
O140 O 0.54788 0.05554 0.77344 0.0
O141 O 0.57016 0.97889 0.57117 0.0
O142 O 0.57135 0.01304 0.74644 0.0
C143 C 0.49436 0.0771 0.53926 0.0
C144 C 0.51738 0.93551 0.78835 0.0
C145 C 0.45078 0.96749 0.52687 0.0
C146 C 0.45108 0.03176 0.81396 0.0
C147 C 0.56664 0.99068 0.4962 0.0
C148 C 0.57104 0.03939 0.77766 0.0
O149 O 0.49331 0.05197 0.49997 0.0
O150 O 0.4427 0.49747 0.64004 0.0
Zn151 Zn 0.47726 0.50364 0.72711 0.0
O152 O 0.51657 0.5041 0.66669 0.0
Zn153 Zn 0.54175 0.47272 0.71071 0.0
Zn154 Zn 0.51074 0.49753 0.54297 0.0
Zn155 Zn 0.53889 0.54148 0.68209 0.0
O156 O 0.58227 0.48695 0.7499 0.0
O157 O 0.57826 0.53641 0.74661 0.0
O158 O 0.47575 0.46968 0.81955 0.0
O159 O 0.52259 0.45446 0.81387 0.0
O160 O 0.54349 0.4382 0.62815 0.0
O161 O 0.52462 0.45697 0.50607 0.0
O162 O 0.52508 0.53259 0.47138 0.0
O163 O 0.47121 0.54477 0.78371 0.0
O164 O 0.54412 0.5643 0.569 0.0
O165 O 0.51354 0.56846 0.74998 0.0
C166 C 0.44318 0.49475 0.55699 0.0
C167 C 0.59283 0.51301 0.76599 0.0
C168 C 0.53539 0.43522 0.54908 0.0
C169 C 0.49682 0.45324 0.84719 0.0
C170 C 0.53643 0.55807 0.49091 0.0
C171 C 0.48783 0.56825 0.78403 0.0
O172 O 0.46759 0.49496 0.51566 0.0
O173 O 0.96335 0.54085 0.56431 0.0
Zn174 Zn 1.00206 0.54178 0.63684 0.0
O175 O 0.00981 0.5023 0.69226 0.0
Zn176 Zn 0.00669 0.50499 0.81925 0.0
Zn177 Zn 0.98162 0.47235 0.64782 0.0
Zn178 Zn 0.04947 0.48887 0.66569 0.0
O179 O 0.04336 0.49001 0.881 0.0
O180 O 0.07449 0.48104 0.77254 0.0
O181 O 0.99827 0.57337 0.73133 0.0
O182 O 1.00218 0.54826 0.85616 0.0
O183 O 0.97088 0.48168 0.86022 0.0
O184 O 0.95556 0.45607 0.74336 0.0
O185 O 1.00121 0.43903 0.57927 0.0
O186 O 0.03766 0.55575 0.56359 0.0
O187 O 0.04884 0.45213 0.58855 0.0
O188 O 0.07039 0.52133 0.60252 0.0
C189 C 0.94625 0.51866 0.54537 0.0
C190 C 0.06882 0.48223 0.85383 0.0
C191 C 0.95321 0.46294 0.82369 0.0
C192 C 0.99915 0.57282 0.81469 0.0
C193 C 0.02835 0.43462 0.56025 0.0
C194 C 0.06406 0.54571 0.56434 0.0
O195 O 0.95214 0.49229 0.57099 0.0
H196 H 0.16572 0.03546 0.20693 0.0
H197 H 0.22919 0.03474 0.41803 0.0
H198 H 0.18942 0.02321 0.52248 0.0
H199 H 0.13612 0.01544 0.55423 0.0
H200 H 0.07294 0.01578 0.34112 0.0
H201 H 0.1129 0.02533 0.23756 0.0
C202 C 0.17074 0.03268 0.27583 0.0
C203 C 0.20013 0.0365 0.30527 0.0
C204 C 0.14777 0.02612 0.33527 0.0
C205 C 0.20658 0.03234 0.39433 0.0
C206 C 0.18386 0.02577 0.45392 0.0
C207 C 0.13107 0.01752 0.48515 0.0
C208 C 0.1014 0.01504 0.45605 0.0
C209 C 0.15428 0.023 0.42533 0.0
C210 C 0.09545 0.0176 0.36592 0.0
C211 C 0.11833 0.02311 0.30632 0.0
H212 H 0.46896 0.20467 0.37336 0.0
H213 H 0.46997 0.1523 0.13689 0.0
H214 H 0.48047 0.10709 0.22159 0.0
H215 H 0.48823 0.08235 0.36272 0.0
H216 H 0.48789 0.13453 0.6003 0.0
H217 H 0.47822 0.17986 0.51552 0.0
C218 C 0.47154 0.18331 0.34071 0.0
C219 C 0.46826 0.18163 0.24926 0.0
C220 C 0.47756 0.15741 0.39 0.0
C221 C 0.47205 0.154 0.20729 0.0
C222 C 0.47803 0.12819 0.25571 0.0
C223 C 0.48599 0.10359 0.3963 0.0
C224 C 0.48863 0.10486 0.48814 0.0
C225 C 0.48058 0.12958 0.34714 0.0
C226 C 0.48593 0.13276 0.5299 0.0
C227 C 0.48039 0.15874 0.4814 0.0
H228 H 0.34036 0.47166 0.2818 0.0
H229 H 0.28753 0.50999 0.48608 0.0
H230 H 0.33186 0.51591 0.57877 0.0
H231 H 0.38598 0.50927 0.60208 0.0
H232 H 0.43805 0.47144 0.39402 0.0
H233 H 0.39391 0.46601 0.30342 0.0
C234 C 0.33866 0.48134 0.34661 0.0
C235 C 0.3108 0.48996 0.3778 0.0
C236 C 0.36413 0.48457 0.39924 0.0
C237 C 0.30881 0.50289 0.4613 0.0
C238 C 0.33411 0.50621 0.51425 0.0
C239 C 0.38757 0.49969 0.53717 0.0
C240 C 0.41539 0.49078 0.50528 0.0
C241 C 0.36193 0.49687 0.48423 0.0
C242 C 0.41705 0.47866 0.42045 0.0
C243 C 0.39177 0.47551 0.36826 0.0
H244 H 0.08295 0.33696 0.31028 0.0
H245 H 0.99335 0.30184 0.32176 0.0
H246 H 0.97913 0.34314 0.41713 0.0
H247 H 0.99234 0.3892 0.49863 0.0
H248 H 0.08269 0.423 0.49043 0.0
H249 H 0.09632 0.38239 0.39294 0.0
C250 C 0.06023 0.33862 0.3329 0.0
C251 C 0.03909 0.3169 0.30668 0.0
C252 C 0.05234 0.36213 0.38892 0.0
C253 C 0.00992 0.3187 0.33881 0.0
C254 C 1.0018 0.34224 0.39386 0.0
C255 C 0.01501 0.38771 0.47556 0.0
C256 C 0.03639 0.40928 0.50216 0.0
C257 C 0.02284 0.3641 0.41946 0.0
C258 C 0.06571 0.40679 0.47159 0.0
C259 C 0.07357 0.38356 0.4155 0.0
H260 H 0.84532 0.97287 0.09557 0.0
H261 H 0.82571 0.06507 0.03921 0.0
H262 H 0.86604 0.06721 0.93233 0.0
H263 H 0.90762 0.04318 0.85754 0.0
H264 H 0.92675 0.9505 0.91202 0.0
H265 H 0.88593 0.9482 0.0165 0.0
C266 C 0.84993 0.99333 0.05948 0.0
C267 C 0.83286 0.01884 0.07564 0.0
C268 C 0.87308 0.99433 -0.00204 0.0
C269 C 0.83875 0.04523 0.02826 0.0
C270 C 0.86178 0.04645 0.96721 0.0
C271 C 0.90287 0.02244 0.8921 0.0
C272 C 0.92041 0.9971 0.87694 0.0
C273 C 0.87925 0.0212 0.952 0.0
C274 C 0.91369 0.97038 0.92211 0.0
C275 C 0.89034 0.96903 0.98211 0.0
H276 H 0.55501 0.83513 0.05827 0.0
H277 H 0.46 0.82673 0.08427 0.0
H278 H 0.45316 0.86492 0.97149 0.0
H279 H 0.47421 0.90222 0.87 0.0
H280 H 0.56942 0.91057 0.84338 0.0
H281 H 0.5761 0.87077 0.95073 0.0
C282 C 0.53285 0.84147 0.03826 0.0
C283 C 0.50805 0.82801 0.07901 0.0
C284 C 0.5291 0.86349 0.97338 0.0
C285 C 0.47942 0.83662 0.05343 0.0
C286 C 0.47551 0.8585 0.98909 0.0
C287 C 0.49645 0.89524 0.88709 0.0
C288 C 0.52125 0.90962 0.8486 0.0
C289 C 0.50019 0.87232 0.94923 0.0
C290 C 0.54987 0.90004 0.87168 0.0
C291 C 0.55375 0.87727 0.93339 0.0
H292 H 0.70692 0.49668 0.00119 0.0
H293 H 0.68421 0.58591 0.08124 0.0
H294 H 0.64433 0.58696 0.97174 0.0
H295 H 0.61345 0.56078 0.86139 0.0
H296 H 0.63531 0.4706 0.78593 0.0
H297 H 0.678 0.47169 0.88454 0.0
C298 C 0.69326 0.51635 0.9942 0.0
C299 C 0.69798 0.54096 0.05014 0.0
C300 C 0.67019 0.51658 0.93197 0.0
C301 C 0.68058 0.56656 0.03961 0.0
C302 C 0.65783 0.56714 0.97708 0.0
C303 C 0.62784 0.54156 0.86537 0.0
C304 C 0.62104 0.51561 0.81637 0.0
C305 C 0.65206 0.54205 0.92395 0.0
C306 C 0.63986 0.49082 0.82307 0.0
C307 C 0.66429 0.49138 0.87969 0.0
H308 H 0.00717 0.70428 0.96899 0.0
H309 H 0.00502 0.6551 0.21152 0.0
H310 H 0.99995 0.6079 0.13112 0.0
H311 H 0.99778 0.58054 0.99182 0.0
H312 H 0.99958 0.6299 0.74892 0.0
H313 H 1.00259 0.677 0.82949 0.0
C314 C 0.00509 0.68324 0.00413 0.0
C315 C 0.00582 0.6832 0.09614 0.0
C316 C 1.00215 0.6562 0.95742 0.0
C317 C 1.00395 0.65573 0.14079 0.0
C318 C 1.00115 0.62875 0.09484 0.0
C319 C 0.99862 0.60158 0.95633 0.0
C320 C 0.99857 0.60151 0.86419 0.0
C321 C 1.00041 0.62869 0.0031 0.0
C322 C 0.99957 0.62912 0.81968 0.0
C323 C 1.00139 0.65615 0.86575 0.0
H324 H 0.96917 0.15069 0.22434 0.0
H325 H 0.00717 0.20634 0.42796 0.0
H326 H 0.99358 0.16867 0.53694 0.0
H327 H 0.98105 0.11625 0.5688 0.0
H328 H 0.95174 0.05757 0.36067 0.0
H329 H 0.95193 0.09986 0.25875 0.0
C330 C 0.97435 0.15468 0.29269 0.0
C331 C 0.98997 0.18094 0.31753 0.0
C332 C 0.96839 0.13208 0.35394 0.0
C333 C 0.99533 0.18632 0.40674 0.0
C334 C 0.98785 0.1646 0.46905 0.0
C335 C 0.9738 0.1129 0.50175 0.0
C336 C 0.96651 0.08387 0.47189 0.0
C337 C 0.97583 0.13683 0.44265 0.0
C338 C 0.95753 0.07973 0.38476 0.0
C339 C 0.95781 0.10385 0.32656 0.0
H340 H 0.35634 0.95703 0.23347 0.0
H341 H 0.30489 1.0002 0.43339 0.0
H342 H 0.34204 0.98695 0.5429 0.0
H343 H 0.39393 0.97454 0.5732 0.0
H344 H 0.44907 0.9414 0.36577 0.0
H345 H 0.40608 0.93937 0.26745 0.0
C346 C 0.3531 0.96325 0.30129 0.0
C347 C 0.3284 0.98045 0.32476 0.0
C348 C 0.37563 0.95778 0.36211 0.0
C349 C 0.3238 0.98721 0.41332 0.0
C350 C 0.34526 0.97996 0.47578 0.0
C351 C 0.39624 0.96587 0.50733 0.0
C352 C 0.42446 0.95814 0.47623 0.0
C353 C 0.37201 0.96693 0.44978 0.0
C354 C 0.42747 0.94745 0.3906 0.0
C355 C 0.40297 0.94649 0.33449 0.0
H356 H 0.4725 0.3191 0.41365 0.0
H357 H 0.56196 0.29678 0.34526 0.0
H358 H 0.58118 0.33905 0.43197 0.0
H359 H 0.57114 0.389 0.4978 0.0
H360 H 0.48028 0.41396 0.54162 0.0
H361 H 0.46278 0.36485 0.49291 0.0
C362 C 0.49625 0.32267 0.4219 0.0
C363 C 0.51582 0.30516 0.37364 0.0
C364 C 0.50671 0.3486 0.46372 0.0
C365 C 0.54656 0.30994 0.38297 0.0
C366 C 0.55745 0.33459 0.43052 0.0
C367 C 0.54763 0.38338 0.49684 0.0
C368 C 0.52687 0.405 0.52058 0.0
C369 C 0.53759 0.35525 0.46595 0.0
C370 C 0.49646 0.39767 0.52104 0.0
C371 C 0.48647 0.36956 0.4942 0.0
H372 H 0.15617 0.57956 0.28044 0.0
H373 H 0.21264 0.53888 0.47494 0.0
H374 H 0.17423 0.54447 0.58378 0.0
H375 H 0.12123 0.54695 0.61201 0.0
H376 H 0.06168 0.57863 0.4123 0.0
H377 H 0.10417 0.5901 0.31723 0.0
C378 C 0.16023 0.57221 0.34693 0.0
C379 C 0.18692 0.55754 0.36788 0.0
C380 C 0.13701 0.57302 0.40779 0.0
C381 C 0.19239 0.54988 0.45565 0.0
C382 C 0.17015 0.55262 0.51812 0.0
C383 C 0.11761 0.55703 0.54833 0.0
C384 C 0.08848 0.56112 0.51776 0.0
C385 C 0.1418 0.56195 0.49302 0.0
C386 C 0.08395 0.57497 0.43657 0.0
C387 C 0.10823 0.58128 0.38213 0.0
H388 H 0.07359 0.85176 0.07792 0.0
H389 H 0.02679 0.7983 0.88534 0.0
H390 H 0.03728 0.83603 0.77432 0.0
H391 H 0.04607 0.88928 0.74525 0.0
H392 H 0.0864 0.94571 0.94217 0.0
H393 H 0.09224 0.90212 0.03825 0.0
C394 C 0.06649 0.84802 0.01092 0.0
C395 C 0.0485 0.82277 0.99066 0.0
C396 C 0.07072 0.87085 0.94891 0.0
C397 C 0.04035 0.81761 0.90318 0.0
C398 C 0.04595 0.83946 0.8398 0.0
C399 C 0.05714 0.89174 0.80806 0.0
C400 C 0.06533 0.92049 0.83783 0.0
C401 C 0.05902 0.86699 0.86383 0.0
C402 C 0.07991 0.9237 0.91842 0.0
C403 C 0.08293 0.89883 0.97349 0.0
H404 H 0.67181 0.07094 0.0434 0.0
H405 H 0.71739 0.00757 0.88084 0.0
H406 H 0.67834 0.01126 0.77055 0.0
H407 H 0.62652 0.0226 0.73897 0.0
H408 H 0.57777 0.08069 0.91012 0.0
H409 H 0.62262 0.08895 -0.0011 0.0
C410 C 0.67353 0.05857 0.98262 0.0
C411 C 0.697 0.03834 0.97128 0.0
C412 C 0.64995 0.05917 0.92259 0.0
C413 C 0.69952 0.02311 0.89149 0.0
C414 C 0.67691 0.02486 0.82904 0.0
C415 C 0.6258 0.03748 0.79498 0.0
C416 C 0.59871 0.05034 0.81977 0.0
C417 C 0.65122 0.04119 0.84689 0.0
C418 C 0.59827 0.07027 0.89058 0.0
C419 C 0.62387 0.07485 0.94141 0.0
H420 H 0.45649 0.67203 0.03788 0.0
H421 H 0.52358 0.71633 0.88201 0.0
H422 H 0.51982 0.67642 0.7731 0.0
H423 H 0.5074 0.62389 0.74434 0.0
H424 H 0.44568 0.57626 0.91136 0.0
H425 H 0.43747 0.6223 0.9946 0.0
C426 C 0.46946 0.67339 0.97828 0.0
C427 C 0.49086 0.69655 0.96875 0.0
C428 C 0.46896 0.64917 0.92011 0.0
C429 C 0.50714 0.69863 0.89097 0.0
C430 C 0.50538 0.6755 0.82961 0.0
C431 C 0.49181 0.62363 0.7983 0.0
C432 C 0.4779 0.59652 0.82378 0.0
C433 C 0.48805 0.64976 0.84712 0.0
C434 C 0.45703 0.59673 0.89163 0.0
C435 C 0.45239 0.62303 0.93915 0.0
H436 H 0.85393 0.46622 0.09934 0.0
H437 H 0.81257 0.51424 0.8874 0.0
H438 H 0.84873 0.49426 0.78559 0.0
H439 H 0.89885 0.47482 0.76527 0.0
H440 H 0.94593 0.43787 0.98487 0.0
H441 H 0.90139 0.44189 0.07548 0.0
C442 C 0.85266 0.47218 0.03069 0.0
C443 C 0.8312 0.49266 0.0019 0.0
C444 C 0.87511 0.4629 0.97417 0.0
C445 C 0.82894 0.49883 0.91199 0.0
C446 C 0.84992 0.4877 0.85374 0.0
C447 C 0.89886 0.46656 0.83203 0.0
C448 C 0.9253 0.45588 0.86878 0.0
C449 C 0.87412 0.47139 0.88524 0.0
C450 C 0.9256 0.44591 0.95564 0.0
C451 C 0.90027 0.4485 0.00736 0.0
H452 H 0.06958 0.1555 0.10569 0.0
H453 H 0.0152 0.21182 0.94408 0.0
H454 H 0.01702 0.17497 0.8259 0.0
H455 H 0.02591 0.12297 0.78117 0.0
H456 H 0.07945 0.06593 0.94323 0.0
H457 H 0.08636 0.10682 0.04878 0.0
C458 C 0.05904 0.16009 0.04331 0.0
C459 C 0.04206 0.18616 0.03355 0.0
C460 C 0.05946 0.13837 0.97688 0.0
C461 C 0.02852 0.19202 0.95275 0.0
C462 C 0.02921 0.17074 0.88574 0.0
C463 C 0.03961 0.11973 0.83879 0.0
C464 C 0.05172 0.09139 0.85554 0.0
C465 C 0.0433 0.14323 0.89898 0.0
C466 C 0.06984 0.08753 0.92934 0.0
C467 C 0.07364 0.11085 0.98979 0.0
H468 H 0.36179 0.05879 0.11694 0.0
H469 H 0.30341 0.00791 0.94742 0.0
H470 H 0.34107 0.00904 0.83241 0.0
H471 H 0.39336 0.01673 0.7913 0.0
H472 H 0.45241 0.06677 0.96118 0.0
H473 H 0.41176 0.07385 0.06525 0.0
C474 C 0.35704 0.04882 0.05364 0.0
C475 C 0.33 0.03307 0.04062 0.0
C476 C 0.37917 0.04878 0.98909 0.0
C477 C 0.32394 0.0203 0.9586 0.0
C478 C 0.34566 0.02058 0.89342 0.0
C479 C 0.3972 0.02958 0.85059 0.0
C480 C 0.42593 0.04069 0.8697 0.0
C481 C 0.3738 0.03346 0.9097 0.0
C482 C 0.43053 0.05785 0.94553 0.0
C483 C 0.40732 0.06179 0.00502 0.0
H484 H 0.52195 0.35687 0.12751 0.0
H485 H 0.4474 0.31139 0.00566 0.0
H486 H 0.44093 0.35449 0.90727 0.0
H487 H 0.45744 0.40565 0.85608 0.0
H488 H 0.52916 0.45059 0.99306 0.0
H489 H 0.53416 0.40792 0.09067 0.0
C490 C 0.50357 0.35643 0.08153 0.0
C491 C 0.48477 0.33096 0.07593 0.0
C492 C 0.49896 0.38168 0.02956 0.0
C493 C 0.46229 0.33055 0.01177 0.0
C494 C 0.45834 0.3554 0.95631 0.0
C495 C 0.47333 0.40638 0.90946 0.0
C496 C 0.49266 0.4314 0.9185 0.0
C497 C 0.47642 0.3813 0.96519 0.0
C498 C 0.51381 0.43179 0.98598 0.0
C499 C 0.51697 0.40723 0.0409 0.0
H500 H 0.15219 0.48268 0.18229 0.0
H501 H 0.21612 0.51174 0.98996 0.0
H502 H 0.18036 0.50023 0.87269 0.0
H503 H 0.12834 0.4899 0.82824 0.0
H504 H 0.06358 0.46585 0.02459 0.0
H505 H 0.10213 0.46746 0.13705 0.0
C506 C 0.15845 0.48599 0.11447 0.0
C507 C 0.18652 0.49847 0.09461 0.0
C508 C 0.1374 0.48069 0.04841 0.0
C509 C 0.19463 0.50218 0.00671 0.0
C510 C 0.17406 0.4959 0.93989 0.0
C511 C 0.12282 0.48434 0.89533 0.0
C512 C 0.09305 0.47799 0.91819 0.0
C513 C 0.14497 0.48635 0.96032 0.0
C514 C 0.08622 0.47106 0.00547 0.0
C515 C 0.10826 0.472 0.06981 0.0
H516 H 0.99588 0.81221 0.36269 0.0
H517 H 0.96688 0.86223 0.13786 0.0
H518 H 0.95611 0.90527 0.23004 0.0
H519 H 0.96347 0.93139 0.36995 0.0
H520 H 0.99108 0.88135 0.59649 0.0
H521 H 0.99346 0.8357 0.5091 0.0
C522 C 0.98617 0.83215 0.33471 0.0
C523 C 0.98266 0.83434 0.24374 0.0
C524 C 0.98035 0.85706 0.38817 0.0
C525 C 0.97008 0.86028 0.20788 0.0
C526 C 0.96412 0.88496 0.26039 0.0
C527 C 0.96932 0.91033 0.40045 0.0
C528 C 0.97752 0.90984 0.48899 0.0
C529 C 0.97056 0.88411 0.34991 0.0
C530 C 0.9847 0.88234 0.5282 0.0
C531 C 0.98625 0.8562 0.47817 0.0
H532 H 0.66877 0.04422 0.26434 0.0
H533 H 0.7061 0.95682 0.30223 0.0
H534 H 0.66555 0.94372 0.40345 0.0
H535 H 0.61603 0.95583 0.46837 0.0
H536 H 0.57675 0.04082 0.40409 0.0
H537 H 0.62066 0.05554 0.32279 0.0
C538 C 0.66812 0.02222 0.29466 0.0
C539 C 0.6901 1.00136 0.27447 0.0
C540 C 0.64374 0.01409 0.346 0.0
C541 C 0.68946 0.97335 0.31666 0.0
C542 C 0.666 0.96571 0.37336 0.0
C543 C 0.61713 0.97739 0.43575 0.0
C544 C 0.59291 0.99697 0.44113 0.0
C545 C 0.64239 0.98556 0.38607 0.0
C546 C 0.5947 0.025 0.39935 0.0
C547 C 0.61998 0.03367 0.35367 0.0
H548 H 0.4874 0.65712 0.24334 0.0
H549 H 0.56858 0.70341 0.31602 0.0
H550 H 0.58078 0.6621 0.41581 0.0
H551 H 0.56952 0.61048 0.47379 0.0
H552 H 0.49296 0.56245 0.37119 0.0
H553 H 0.47907 0.60589 0.2865 0.0
C554 C 0.50819 0.65815 0.27934 0.0
C555 C 0.52737 0.68314 0.26993 0.0
C556 C 0.51638 0.6334 0.32916 0.0
C557 C 0.5533 0.68454 0.32151 0.0
C558 C 0.56053 0.66066 0.37747 0.0
C559 C 0.55018 0.60945 0.43144 0.0
C560 C 0.53251 0.58304 0.42834 0.0
C561 C 0.5426 0.63452 0.37994 0.0
C562 C 0.50734 0.58212 0.37374 0.0
C563 C 0.49905 0.60715 0.32613 0.0
H564 H 0.82479 0.50676 0.34347 0.0
H565 H 0.85516 0.58958 0.22853 0.0
H566 H 0.89713 0.59183 0.3315 0.0
H567 H 0.92909 0.56579 0.44 0.0
H568 H 0.89874 0.48086 0.54518 0.0
H569 H 0.85323 0.48383 0.46092 0.0
C570 C 0.83995 0.5259 0.3437 0.0
C571 C 0.83667 0.54827 0.28024 0.0
C572 C 0.86465 0.52616 0.39979 0.0
C573 C 0.8569 0.57253 0.27864 0.0
C574 C 0.88117 0.57349 0.33645 0.0
C575 C 0.91235 0.54816 0.44506 0.0
C576 C 0.91779 0.52285 0.49757 0.0
C577 C 0.88597 0.54974 0.39501 0.0
C578 C 0.89566 0.5003 0.50384 0.0
C579 C 0.86939 0.50201 0.45606 0.0
loop_
_geom_bond_atom_site_label_1
_geom_bond_atom_site_label_2
_geom_bond_distance
_geom_bond_site_symmetry_2
_ccdc_geom_bond_type
H0 C7 0.929 . S
H1 C10 0.930 . S
H2 C12 0.929 . S
H3 C4 0.969 . S
C4 H3 0.969 . S
C4 O5 1.550 1_556 S
C4 H6 0.973 . S
O5 C4 1.550 1_554 S
O5 C11 1.412 . S
H6 C4 0.973 . S
C7 H0 0.929 . S
C7 C8 1.400 . S
C7 C9 1.364 1_554 S
C8 C7 1.400 . S
C8 C12 1.377 . S
C9 C7 1.364 1_556 S
C9 C10 1.374 . S
C10 H1 0.930 . S
C10 C9 1.374 . S
C10 C11 1.383 1_556 S
C11 O5 1.412 . S
C11 C10 1.383 1_554 S
C11 C12 1.394 . S
C12 H2 0.929 . S
C12 C8 1.377 . S
C12 C11 1.394 . S
H13 C20 0.929 . S
H14 C23 0.931 1_556 S
H15 C25 0.929 . S
H16 C17 0.969 . S
C17 H16 0.969 . S
C17 O18 1.550 1_455 S
C17 H19 0.973 1_454 S
O18 C17 1.550 1_655 S
O18 C24 1.410 1_655 S
H19 C17 0.973 1_656 S
C20 H13 0.929 . S
C20 C21 1.400 . S
C20 C22 1.364 . S
C21 C20 1.400 . S
C21 C25 1.377 1_455 S
C22 C20 1.364 . S
C22 C23 1.374 1_455 S
C23 H14 0.931 1_554 S
C23 C22 1.374 1_655 S
C23 C24 1.383 1_655 S
C24 O18 1.410 1_455 S
C24 C23 1.383 1_455 S
C24 C25 1.394 1_455 S
C25 H15 0.929 . S
C25 C21 1.377 1_655 S
C25 C24 1.394 1_655 S
H26 C33 0.929 . S
H27 C36 0.931 1_556 S
H28 C38 0.928 1_565 S
H29 C30 0.969 . S
C30 H29 0.969 . S
C30 O31 1.550 1_546 S
C30 H32 0.973 1_545 S
O31 C30 1.550 1_564 S
O31 C37 1.406 1_565 S
H32 C30 0.973 1_565 S
C33 H26 0.929 . S
C33 C34 1.400 . S
C33 C35 1.364 . S
C34 C33 1.400 . S
C34 C38 1.376 . S
C35 C33 1.364 . S
C35 C36 1.374 1_545 S
C36 H27 0.931 1_554 S
C36 C35 1.374 1_565 S
C36 C37 1.383 1_565 S
C37 O31 1.406 1_545 S
C37 C36 1.383 1_545 S
C37 C38 1.394 . S
C38 H28 0.928 1_545 S
C38 C34 1.376 . S
C38 C37 1.394 . S
H39 C46 0.929 . S
H40 C49 0.930 . S
H41 C51 0.929 . S
H42 C43 0.969 . S
C43 H42 0.969 . S
C43 O44 1.550 1_556 S
C43 H45 0.973 . S
O44 C43 1.550 1_554 S
O44 C50 1.412 . S
H45 C43 0.973 . S
C46 H39 0.929 . S
C46 C47 1.400 . S
C46 C48 1.364 1_554 S
C47 C46 1.400 . S
C47 C51 1.377 . S
C48 C46 1.364 1_556 S
C48 C49 1.374 . S
C49 H40 0.930 . S
C49 C48 1.374 . S
C49 C50 1.383 1_556 S
C50 O44 1.412 . S
C50 C49 1.383 1_554 S
C50 C51 1.394 . S
C51 H41 0.929 . S
C51 C47 1.377 . S
C51 C50 1.394 . S
H52 C59 0.929 . S
H53 C62 0.930 . S
H54 C64 0.929 . S
H55 C56 0.969 . S
C56 H55 0.969 . S
C56 O57 1.550 . S
C56 H58 0.973 . S
O57 C56 1.550 . S
O57 C63 1.412 . S
H58 C56 0.973 . S
C59 H52 0.929 . S
C59 C60 1.400 . S
C59 C61 1.364 . S
C60 C59 1.400 . S
C60 C64 1.377 . S
C61 C59 1.364 . S
C61 C62 1.374 . S
C62 H53 0.930 . S
C62 C61 1.374 . S
C62 C63 1.383 . S
C63 O57 1.412 . S
C63 C62 1.383 . S
C63 C64 1.394 . S
C64 H54 0.929 . S
C64 C60 1.377 . S
C64 C63 1.394 . S
H65 C72 0.929 . S
H66 C75 0.930 . S
H67 C77 0.929 . S
H68 C69 0.969 . S
C69 H68 0.969 . S
C69 O70 1.550 . S
C69 H71 0.973 . S
O70 C69 1.550 . S
O70 C76 1.412 . S
H71 C69 0.973 . S
C72 H65 0.929 . S
C72 C73 1.400 . S
C72 C74 1.364 . S
C73 C72 1.400 . S
C73 C77 1.377 . S
C74 C72 1.364 . S
C74 C75 1.374 . S
C75 H66 0.930 . S
C75 C74 1.374 . S
C75 C76 1.383 . S
C76 O70 1.412 . S
C76 C75 1.383 . S
C76 C77 1.394 . S
C77 H67 0.929 . S
C77 C73 1.377 . S
C77 C76 1.394 . S
H78 C85 0.929 . S
H79 C88 0.930 . S
H80 C90 0.929 . S
H81 C82 0.969 . S
C82 H81 0.969 . S
C82 O83 1.560 . S
C82 H84 0.973 . S
O83 C82 1.560 . S
O83 C89 1.420 . S
H84 C82 0.973 . S
C85 H78 0.929 . S
C85 C86 1.400 . S
C85 C87 1.364 . S
C86 C85 1.400 . S
C86 C90 1.377 . S
C87 C85 1.364 . S
C87 C88 1.374 . S
C88 H79 0.930 . S
C88 C87 1.374 . S
C88 C89 1.383 . S
C89 O83 1.420 . S
C89 C88 1.383 . S
C89 C90 1.394 . S
C90 H80 0.929 . S
C90 C86 1.377 . S
C90 C89 1.394 . S
H91 C98 0.929 . S
H92 C101 0.930 . S
H93 C103 0.929 . S
H94 C95 0.969 . S
C95 H94 0.969 . S
C95 O96 1.550 . S
C95 H97 0.973 . S
O96 C95 1.550 . S
O96 C102 1.412 . S
H97 C95 0.973 . S
C98 H91 0.929 . S
C98 C99 1.400 . S
C98 C100 1.364 . S
C99 C98 1.400 . S
C99 C103 1.377 . S
C100 C98 1.364 . S
C100 C101 1.374 . S
C101 H92 0.930 . S
C101 C100 1.374 . S
C101 C102 1.383 . S
C102 O96 1.412 . S
C102 C101 1.383 . S
C102 C103 1.394 . S
C103 H93 0.929 . S
C103 C99 1.377 . S
C103 C102 1.394 . S
O104 Zn105 1.955 . S
O104 C120 1.225 1_545 S
Zn105 O104 1.955 . S
Zn105 O106 1.948 1_545 S
Zn105 O112 1.944 . S
Zn105 O117 1.894 1_545 S
O106 Zn105 1.948 1_565 S
O106 Zn107 1.900 1_465 S
O106 Zn108 1.952 . S
O106 Zn109 1.966 1_455 S
Zn107 O106 1.900 1_645 S
Zn107 O110 1.933 . S
Zn107 O113 1.941 1_655 S
Zn107 O114 1.965 . S
Zn108 O106 1.952 . S
Zn108 O115 1.938 1_565 S
Zn108 O116 1.906 . S
Zn108 O126 1.953 . S
Zn109 O106 1.966 1_655 S
Zn109 O111 1.932 . S
Zn109 O118 1.977 . S
Zn109 O119 1.910 1_655 S
O110 Zn107 1.933 . S
O110 C121 1.226 . S
O111 Zn109 1.932 . S
O111 C121 1.307 1_565 S
O112 Zn105 1.944 . S
O112 C123 1.253 . S
O113 Zn107 1.941 1_455 S
O113 C123 1.283 . S
O114 Zn107 1.965 . S
O114 C122 1.303 1_655 S
O115 Zn108 1.938 1_545 S
O115 C122 1.247 . S
O116 Zn108 1.906 . S
O116 C124 1.304 1_455 S
O117 Zn105 1.894 1_565 S
O117 C125 1.311 . S
O118 Zn109 1.977 . S
O118 C124 1.272 . S
O119 Zn109 1.910 1_455 S
O119 C125 1.231 . S
C120 O104 1.225 1_565 S
C120 O126 1.298 . S
C121 O110 1.226 . S
C121 O111 1.307 1_545 S
C122 O114 1.303 1_455 S
C122 O115 1.247 . S
C123 O112 1.253 . S
C123 O113 1.283 . S
C124 O116 1.304 1_655 S
C124 O118 1.272 . S
C125 O117 1.311 . S
C125 O119 1.231 . S
O126 Zn108 1.953 . S
O126 C120 1.298 . S
O127 Zn128 1.953 . S
O127 C143 1.225 . S
Zn128 O127 1.953 . S
Zn128 O129 1.949 . S
Zn128 O135 1.919 . S
Zn128 O140 1.924 . S
O129 Zn128 1.949 . S
O129 Zn130 1.923 1_545 S
O129 Zn131 1.950 . S
O129 Zn132 1.945 1_545 S
Zn130 O129 1.923 1_565 S
Zn130 O133 1.933 . S
Zn130 O136 1.941 . S
Zn130 O137 1.965 . S
Zn131 O129 1.950 . S
Zn131 O138 1.938 . S
Zn131 O139 1.906 . S
Zn131 O149 1.953 . S
Zn132 O129 1.945 1_565 S
Zn132 O134 1.932 . S
Zn132 O141 1.977 . S
Zn132 O142 1.910 1_565 S
O133 Zn130 1.933 . S
O133 C144 1.226 . S
O134 Zn132 1.932 . S
O134 C144 1.307 . S
O135 Zn128 1.919 . S
O135 C146 1.253 . S
O136 Zn130 1.941 . S
O136 C146 1.283 1_565 S
O137 Zn130 1.965 . S
O137 C145 1.303 1_565 S
O138 Zn131 1.938 . S
O138 C145 1.247 . S
O139 Zn131 1.906 . S
O139 C147 1.304 1_545 S
O140 Zn128 1.924 . S
O140 C148 1.311 . S
O141 Zn132 1.977 . S
O141 C147 1.272 . S
O142 Zn132 1.910 1_545 S
O142 C148 1.231 . S
C143 O127 1.225 . S
C143 O149 1.298 . S
C144 O133 1.226 . S
C144 O134 1.307 . S
C145 O137 1.303 1_545 S
C145 O138 1.247 . S
C146 O135 1.253 . S
C146 O136 1.283 1_545 S
C147 O139 1.304 1_565 S
C147 O141 1.272 . S
C148 O140 1.311 . S
C148 O142 1.231 . S
O149 Zn131 1.953 . S
O149 C143 1.298 . S
O150 Zn151 1.953 . S
O150 C166 1.225 . S
Zn151 O150 1.953 . S
Zn151 O152 1.949 . S
Zn151 O158 1.919 . S
Zn151 O163 1.924 . S
O152 Zn151 1.949 . S
O152 Zn153 1.923 . S
O152 Zn154 1.950 . S
O152 Zn155 1.945 . S
Zn153 O152 1.923 . S
Zn153 O156 1.933 . S
Zn153 O159 1.941 . S
Zn153 O160 1.965 . S
Zn154 O152 1.950 . S
Zn154 O161 1.938 . S
Zn154 O162 1.906 . S
Zn154 O172 1.953 . S
Zn155 O152 1.945 . S
Zn155 O157 1.932 . S
Zn155 O164 1.977 . S
Zn155 O165 1.910 . S
O156 Zn153 1.933 . S
O156 C167 1.226 . S
O157 Zn155 1.932 . S
O157 C167 1.307 . S
O158 Zn151 1.919 . S
O158 C169 1.253 . S
O159 Zn153 1.941 . S
O159 C169 1.283 . S
O160 Zn153 1.965 . S
O160 C168 1.303 . S
O161 Zn154 1.938 . S
O161 C168 1.247 . S
O162 Zn154 1.906 . S
O162 C170 1.304 . S
O163 Zn151 1.924 . S
O163 C171 1.311 . S
O164 Zn155 1.977 . S
O164 C170 1.272 . S
O165 Zn155 1.910 . S
O165 C171 1.231 . S
C166 O150 1.225 . S
C166 O172 1.298 . S
C167 O156 1.226 . S
C167 O157 1.307 . S
C168 O160 1.303 . S
C168 O161 1.247 . S
C169 O158 1.253 . S
C169 O159 1.283 . S
C170 O162 1.304 . S
C170 O164 1.272 . S
C171 O163 1.311 . S
C171 O165 1.231 . S
O172 Zn154 1.953 . S
O172 C166 1.298 . S
O173 Zn174 1.953 1_655 S
O173 C189 1.225 . S
Zn174 O173 1.953 1_455 S
Zn174 O175 1.949 . S
Zn174 O181 1.919 . S
Zn174 O186 1.924 . S
O175 Zn174 1.949 . S
O175 Zn176 1.918 1_455 S
O175 Zn177 1.929 1_455 S
O175 Zn178 1.973 . S
Zn176 O175 1.918 1_655 S
Zn176 O179 1.933 1_655 S
Zn176 O182 1.941 . S
Zn176 O183 1.965 . S
Zn177 O175 1.929 1_655 S
Zn177 O184 1.938 . S
Zn177 O185 1.906 . S
Zn177 O195 1.953 . S
Zn178 O175 1.973 . S
Zn178 O180 1.932 . S
Zn178 O187 1.977 . S
Zn178 O188 1.910 . S
O179 Zn176 1.933 1_455 S
O179 C190 1.226 . S
O180 Zn178 1.932 . S
O180 C190 1.307 . S
O181 Zn174 1.919 . S
O181 C192 1.253 . S
O182 Zn176 1.941 . S
O182 C192 1.284 1_655 S
O183 Zn176 1.965 . S
O183 C191 1.303 . S
O184 Zn177 1.938 . S
O184 C191 1.247 . S
O185 Zn177 1.906 . S
O185 C193 1.304 1_655 S
O186 Zn174 1.924 . S
O186 C194 1.311 . S
O187 Zn178 1.977 . S
O187 C193 1.272 . S
O188 Zn178 1.910 . S
O188 C194 1.231 . S
C189 O173 1.225 . S
C189 O195 1.298 . S
C190 O179 1.226 . S
C190 O180 1.307 . S
C191 O183 1.303 . S
C191 O184 1.247 . S
C192 O181 1.253 . S
C192 O182 1.284 1_455 S
C193 O185 1.304 1_455 S
C193 O187 1.272 . S
C194 O186 1.311 . S
C194 O188 1.231 . S
O195 Zn177 1.953 . S
O195 C189 1.298 . S
H196 C202 0.930 . S
H197 C205 0.930 . S
H198 C206 0.930 . S
H199 C207 0.930 . S
H200 C210 0.930 . S
H201 C211 0.930 . S
C202 H196 0.930 . S
C202 C203 1.355 . S
C202 C204 1.415 . S
C203 C202 1.355 . S
C203 C205 1.419 . S
C204 C202 1.415 . S
C204 C209 1.425 1_545 S
C204 C211 1.409 . S
C205 H197 0.930 . S
C205 C203 1.419 . S
C205 C206 1.362 1_545 S
C206 H198 0.930 . S
C206 C205 1.362 1_565 S
C206 C209 1.409 . S
C207 H199 0.930 . S
C207 C208 1.355 . S
C207 C209 1.415 . S
C208 C207 1.355 . S
C208 C210 1.419 1_565 S
C209 C204 1.425 1_565 S
C209 C206 1.409 . S
C209 C207 1.415 . S
C210 H200 0.930 . S
C210 C208 1.419 1_545 S
C210 C211 1.362 . S
C211 H201 0.930 . S
C211 C204 1.409 . S
C211 C210 1.362 . S
H212 C218 0.930 . S
H213 C221 0.930 . S
H214 C222 0.930 . S
H215 C223 0.930 . S
H216 C226 0.930 . S
H217 C227 0.930 . S
C218 H212 0.930 . S
C218 C219 1.355 . S
C218 C220 1.415 . S
C219 C218 1.355 . S
C219 C221 1.419 . S
C220 C218 1.415 . S
C220 C225 1.425 . S
C220 C227 1.409 . S
C221 H213 0.930 . S
C221 C219 1.419 . S
C221 C222 1.362 . S
C222 H214 0.930 . S
C222 C221 1.362 . S
C222 C225 1.409 . S
C223 H215 0.930 . S
C223 C224 1.355 . S
C223 C225 1.415 . S
C224 C223 1.355 . S
C224 C226 1.419 . S
C225 C220 1.425 . S
C225 C222 1.409 . S
C225 C223 1.415 . S
C226 H216 0.930 . S
C226 C224 1.419 . S
C226 C227 1.362 . S
C227 H217 0.930 . S
C227 C220 1.409 . S
C227 C226 1.362 . S
H228 C234 0.930 . S
H229 C237 0.930 . S
H230 C238 0.930 . S
H231 C239 0.930 . S
H232 C242 0.930 . S
H233 C243 0.930 . S
C234 H228 0.930 . S
C234 C235 1.355 . S
C234 C236 1.415 . S
C235 C234 1.355 . S
C235 C237 1.419 . S
C236 C234 1.415 . S
C236 C241 1.425 . S
C236 C243 1.409 . S
C237 H229 0.930 . S
C237 C235 1.419 . S
C237 C238 1.362 . S
C238 H230 0.930 . S
C238 C237 1.362 . S
C238 C241 1.409 . S
C239 H231 0.930 . S
C239 C240 1.355 . S
C239 C241 1.415 . S
C240 C239 1.355 . S
C240 C242 1.419 . S
C241 C236 1.425 . S
C241 C238 1.409 . S
C241 C239 1.415 . S
C242 H232 0.930 . S
C242 C240 1.419 . S
C242 C243 1.362 . S
C243 H233 0.930 . S
C243 C236 1.409 . S
C243 C242 1.362 . S
H244 C250 0.930 . S
H245 C253 0.930 1_655 S
H246 C254 0.930 . S
H247 C255 0.926 . S
H248 C258 0.930 . S
H249 C259 0.930 . S
C250 H244 0.930 . S
C250 C251 1.355 . S
C250 C252 1.415 . S
C251 C250 1.355 . S
C251 C253 1.419 . S
C252 C250 1.415 . S
C252 C257 1.425 . S
C252 C259 1.409 . S
C253 H245 0.930 1_455 S
C253 C251 1.419 . S
C253 C254 1.362 1_455 S
C254 H246 0.930 . S
C254 C253 1.362 1_655 S
C254 C257 1.409 1_655 S
C255 H247 0.926 . S
C255 C256 1.357 1_655 S
C255 C257 1.416 1_655 S
C256 C255 1.357 1_455 S
C256 C258 1.419 . S
C257 C252 1.425 . S
C257 C254 1.409 1_455 S
C257 C255 1.416 1_455 S
C258 H248 0.930 . S
C258 C256 1.419 . S
C258 C259 1.362 . S
C259 H249 0.930 . S
C259 C252 1.409 . S
C259 C258 1.362 . S
H260 C266 0.930 1_554 S
H261 C269 0.930 . S
H262 C270 0.930 . S
H263 C271 0.930 . S
H264 C274 0.930 . S
H265 C275 0.930 1_554 S
C266 H260 0.930 1_556 S
C266 C267 1.355 1_565 S
C266 C268 1.415 . S
C267 C266 1.355 1_545 S
C267 C269 1.419 . S
C268 C266 1.415 . S
C268 C273 1.425 1_565 S
C268 C275 1.409 . S
C269 H261 0.930 . S
C269 C267 1.419 . S
C269 C270 1.362 . S
C270 H262 0.930 . S
C270 C269 1.362 . S
C270 C273 1.409 . S
C271 H263 0.930 . S
C271 C272 1.359 . S
C271 C273 1.415 . S
C272 C271 1.359 . S
C272 C274 1.414 1_545 S
C273 C268 1.425 1_545 S
C273 C270 1.409 . S
C273 C271 1.415 . S
C274 H264 0.930 . S
C274 C272 1.414 1_565 S
C274 C275 1.362 . S
C275 H265 0.930 1_556 S
C275 C268 1.409 . S
C275 C274 1.362 . S
H276 C282 0.930 . S
H277 C285 0.930 . S
H278 C286 0.930 1_554 S
H279 C287 0.930 . S
H280 C290 0.930 . S
H281 C291 0.930 . S
C282 H276 0.930 . S
C282 C283 1.355 . S
C282 C284 1.415 . S
C283 C282 1.355 . S
C283 C285 1.419 1_556 S
C284 C282 1.415 . S
C284 C289 1.425 . S
C284 C291 1.409 . S
C285 H277 0.930 . S
C285 C283 1.419 1_554 S
C285 C286 1.362 1_554 S
C286 H278 0.930 1_556 S
C286 C285 1.362 1_556 S
C286 C289 1.409 . S
C287 H279 0.930 . S
C287 C288 1.355 . S
C287 C289 1.415 . S
C288 C287 1.355 . S
C288 C290 1.419 . S
C289 C284 1.425 . S
C289 C286 1.409 . S
C289 C287 1.415 . S
C290 H280 0.930 . S
C290 C288 1.419 . S
C290 C291 1.362 . S
C291 H281 0.930 . S
C291 C284 1.409 . S
C291 C290 1.362 . S
H292 C298 0.930 . S
H293 C301 0.930 1_554 S
H294 C302 0.930 . S
H295 C303 0.930 . S
H296 C306 0.930 . S
H297 C307 0.930 . S
C298 H292 0.930 . S
C298 C299 1.355 . S
C298 C300 1.415 . S
C299 C298 1.355 . S
C299 C301 1.419 . S
C300 C298 1.415 . S
C300 C305 1.425 . S
C300 C307 1.409 . S
C301 H293 0.930 1_556 S
C301 C299 1.419 . S
C301 C302 1.362 . S
C302 H294 0.930 . S
C302 C301 1.362 . S
C302 C305 1.409 . S
C303 H295 0.930 . S
C303 C304 1.355 . S
C303 C305 1.415 . S
C304 C303 1.355 . S
C304 C306 1.419 . S
C305 C300 1.425 . S
C305 C302 1.409 . S
C305 C303 1.415 . S
C306 H296 0.930 . S
C306 C304 1.419 . S
C306 C307 1.362 . S
C307 H297 0.930 . S
C307 C300 1.409 . S
C307 C306 1.362 . S
H308 C314 0.930 . S
H309 C317 0.930 . S
H310 C318 0.930 . S
H311 C319 0.930 . S
H312 C322 0.930 . S
H313 C323 0.932 . S
C314 H308 0.930 . S
C314 C315 1.355 1_556 S
C314 C316 1.412 1_655 S
C315 C314 1.355 1_554 S
C315 C317 1.419 . S
C316 C314 1.412 1_455 S
C316 C321 1.428 . S
C316 C323 1.410 . S
C317 H309 0.930 . S
C317 C315 1.419 . S
C317 C318 1.362 1_655 S
C318 H310 0.930 . S
C318 C317 1.362 1_455 S
C318 C321 1.409 1_554 S
C319 H311 0.930 . S
C319 C320 1.355 . S
C319 C321 1.415 . S
C320 C319 1.355 . S
C320 C322 1.419 . S
C321 C316 1.428 . S
C321 C318 1.409 1_556 S
C321 C319 1.415 . S
C322 H312 0.930 . S
C322 C320 1.419 . S
C322 C323 1.362 . S
C323 H313 0.932 . S
C323 C316 1.410 . S
C323 C322 1.362 . S
H324 C330 0.930 . S
H325 C333 0.930 . S
H326 C334 0.930 . S
H327 C335 0.930 . S
H328 C338 0.930 . S
H329 C339 0.930 . S
C330 H324 0.930 . S
C330 C331 1.355 . S
C330 C332 1.415 . S
C331 C330 1.355 . S
C331 C333 1.419 . S
C332 C330 1.415 . S
C332 C337 1.425 . S
C332 C339 1.409 . S
C333 H325 0.930 . S
C333 C331 1.419 . S
C333 C334 1.362 . S
C334 H326 0.930 . S
C334 C333 1.362 . S
C334 C337 1.409 . S
C335 H327 0.930 . S
C335 C336 1.355 . S
C335 C337 1.415 . S
C336 C335 1.355 . S
C336 C338 1.419 . S
C337 C332 1.425 . S
C337 C334 1.409 . S
C337 C335 1.415 . S
C338 H328 0.930 . S
C338 C336 1.419 . S
C338 C339 1.362 . S
C339 H329 0.930 . S
C339 C332 1.409 . S
C339 C338 1.362 . S
H340 C346 0.916 1_565 S
H341 C349 0.930 . S
H342 C350 0.930 . S
H343 C351 0.930 . S
H344 C354 0.930 . S
H345 C355 0.930 . S
C346 H340 0.916 1_545 S
C346 C347 1.368 . S
C346 C348 1.416 . S
C347 C346 1.368 . S
C347 C349 1.419 . S
C348 C346 1.416 . S
C348 C353 1.425 . S
C348 C355 1.409 1_545 S
C349 H341 0.930 . S
C349 C347 1.419 . S
C349 C350 1.362 . S
C350 H342 0.930 . S
C350 C349 1.362 . S
C350 C353 1.409 . S
C351 H343 0.930 . S
C351 C352 1.355 . S
C351 C353 1.415 . S
C352 C351 1.355 . S
C352 C354 1.419 1_545 S
C353 C348 1.425 . S
C353 C350 1.409 . S
C353 C351 1.415 . S
C354 H344 0.930 . S
C354 C352 1.419 1_565 S
C354 C355 1.362 . S
C355 H345 0.930 . S
C355 C348 1.409 1_565 S
C355 C354 1.362 . S
H356 C362 0.930 . S
H357 C365 0.930 . S
H358 C366 0.930 . S
H359 C367 0.930 . S
H360 C370 0.930 . S
H361 C371 0.930 . S
C362 H356 0.930 . S
C362 C363 1.355 . S
C362 C364 1.415 . S
C363 C362 1.355 . S
C363 C365 1.419 . S
C364 C362 1.415 . S
C364 C369 1.425 . S
C364 C371 1.409 . S
C365 H357 0.930 . S
C365 C363 1.419 . S
C365 C366 1.362 . S
C366 H358 0.930 . S
C366 C365 1.362 . S
C366 C369 1.409 . S
C367 H359 0.930 . S
C367 C368 1.355 . S
C367 C369 1.415 . S
C368 C367 1.355 . S
C368 C370 1.419 . S
C369 C364 1.425 . S
C369 C366 1.409 . S
C369 C367 1.415 . S
C370 H360 0.930 . S
C370 C368 1.419 . S
C370 C371 1.362 . S
C371 H361 0.930 . S
C371 C364 1.409 . S
C371 C370 1.362 . S
H372 C378 0.930 . S
H373 C381 0.930 . S
H374 C382 0.930 . S
H375 C383 0.930 . S
H376 C386 0.930 . S
H377 C387 0.930 . S
C378 H372 0.930 . S
C378 C379 1.355 . S
C378 C380 1.415 . S
C379 C378 1.355 . S
C379 C381 1.419 . S
C380 C378 1.415 . S
C380 C385 1.425 . S
C380 C387 1.409 . S
C381 H373 0.930 . S
C381 C379 1.419 . S
C381 C382 1.362 . S
C382 H374 0.930 . S
C382 C381 1.362 . S
C382 C385 1.409 . S
C383 H375 0.930 . S
C383 C384 1.355 . S
C383 C385 1.415 . S
C384 C383 1.355 . S
C384 C386 1.419 . S
C385 C380 1.425 . S
C385 C382 1.409 . S
C385 C383 1.415 . S
C386 H376 0.930 . S
C386 C384 1.419 . S
C386 C387 1.362 . S
C387 H377 0.930 . S
C387 C380 1.409 . S
C387 C386 1.362 . S
H388 C394 0.930 . S
H389 C397 0.930 . S
H390 C398 0.930 . S
H391 C399 0.930 . S
H392 C402 0.930 . S
H393 C403 0.930 1_654 S
C394 H388 0.930 . S
C394 C395 1.355 1_655 S
C394 C396 1.415 1_654 S
C395 C394 1.355 1_455 S
C395 C397 1.419 1_554 S
C396 C394 1.415 1_456 S
C396 C401 1.425 . S
C396 C403 1.409 . S
C397 H389 0.930 . S
C397 C395 1.419 1_556 S
C397 C398 1.362 . S
C398 H390 0.930 . S
C398 C397 1.362 . S
C398 C401 1.409 . S
C399 H391 0.930 . S
C399 C400 1.355 . S
C399 C401 1.415 . S
C400 C399 1.355 . S
C400 C402 1.419 . S
C401 C396 1.425 . S
C401 C398 1.409 . S
C401 C399 1.415 . S
C402 H392 0.930 . S
C402 C400 1.419 . S
C402 C403 1.362 . S
C403 H393 0.930 1_456 S
C403 C396 1.409 . S
C403 C402 1.362 . S
H404 C410 0.930 . S
H405 C413 0.930 . S
H406 C414 0.930 . S
H407 C415 0.930 1_565 S
H408 C418 0.930 . S
H409 C419 0.930 . S
C410 H404 0.930 . S
C410 C411 1.355 1_545 S
C410 C412 1.415 . S
C411 C410 1.355 1_565 S
C411 C413 1.419 . S
C412 C410 1.415 . S
C412 C417 1.425 . S
C412 C419 1.409 . S
C413 H405 0.930 . S
C413 C411 1.419 . S
C413 C414 1.362 . S
C414 H406 0.930 . S
C414 C413 1.362 . S
C414 C417 1.409 1_565 S
C415 H407 0.930 1_545 S
C415 C416 1.355 . S
C415 C417 1.415 . S
C416 C415 1.355 . S
C416 C418 1.419 . S
C417 C412 1.425 . S
C417 C414 1.409 1_545 S
C417 C415 1.415 . S
C418 H408 0.930 . S
C418 C416 1.419 . S
C418 C419 1.362 . S
C419 H409 0.930 . S
C419 C412 1.409 . S
C419 C418 1.362 . S
H420 C426 0.930 . S
H421 C429 0.930 . S
H422 C430 0.930 . S
H423 C431 0.930 . S
H424 C434 0.930 . S
H425 C435 0.930 . S
C426 H420 0.930 . S
C426 C427 1.355 . S
C426 C428 1.415 . S
C427 C426 1.355 . S
C427 C429 1.419 . S
C428 C426 1.415 . S
C428 C433 1.425 . S
C428 C435 1.409 . S
C429 H421 0.930 . S
C429 C427 1.419 . S
C429 C430 1.362 . S
C430 H422 0.930 . S
C430 C429 1.362 . S
C430 C433 1.409 . S
C431 H423 0.930 . S
C431 C432 1.355 . S
C431 C433 1.415 . S
C432 C431 1.355 . S
C432 C434 1.419 . S
C433 C428 1.425 . S
C433 C430 1.409 . S
C433 C431 1.415 . S
C434 H424 0.930 . S
C434 C432 1.419 . S
C434 C435 1.362 . S
C435 H425 0.930 . S
C435 C428 1.409 . S
C435 C434 1.362 . S
H436 C442 0.930 . S
H437 C445 0.924 1_554 S
H438 C446 0.930 1_554 S
H439 C447 0.930 . S
H440 C450 0.930 . S
H441 C451 0.930 . S
C442 H436 0.930 . S
C442 C443 1.355 . S
C442 C444 1.415 . S
C443 C442 1.355 . S
C443 C445 1.423 . S
C444 C442 1.415 . S
C444 C449 1.425 . S
C444 C451 1.409 . S
C445 H437 0.924 1_556 S
C445 C443 1.423 . S
C445 C446 1.364 . S
C446 H438 0.930 1_556 S
C446 C445 1.364 . S
C446 C449 1.409 . S
C447 H439 0.930 . S
C447 C448 1.355 . S
C447 C449 1.415 . S
C448 C447 1.355 . S
C448 C450 1.419 . S
C449 C444 1.425 . S
C449 C446 1.409 . S
C449 C447 1.415 . S
C450 H440 0.930 . S
C450 C448 1.419 . S
C450 C451 1.362 . S
C451 H441 0.930 . S
C451 C444 1.409 . S
C451 C450 1.362 . S
H452 C458 0.930 . S
H453 C461 0.930 . S
H454 C462 0.930 1_556 S
H455 C463 0.930 . S
H456 C466 0.930 . S
H457 C467 0.930 . S
C458 H452 0.930 . S
C458 C459 1.355 . S
C458 C460 1.415 . S
C459 C458 1.355 . S
C459 C461 1.419 . S
C460 C458 1.415 . S
C460 C465 1.425 . S
C460 C467 1.409 . S
C461 H453 0.930 . S
C461 C459 1.419 . S
C461 C462 1.362 . S
C462 H454 0.930 1_554 S
C462 C461 1.362 . S
C462 C465 1.409 . S
C463 H455 0.930 . S
C463 C464 1.355 . S
C463 C465 1.415 1_556 S
C464 C463 1.355 . S
C464 C466 1.419 1_556 S
C465 C460 1.425 . S
C465 C462 1.409 . S
C465 C463 1.415 1_554 S
C466 H456 0.930 . S
C466 C464 1.419 1_554 S
C466 C467 1.362 . S
C467 H457 0.930 . S
C467 C460 1.409 . S
C467 C466 1.362 . S
H468 C474 0.930 . S
H469 C477 0.930 . S
H470 C478 0.930 . S
H471 C479 0.930 . S
H472 C482 0.931 . S
H473 C483 0.933 . S
C474 H468 0.930 . S
C474 C475 1.355 . S
C474 C476 1.415 . S
C475 C474 1.355 . S
C475 C477 1.419 . S
C476 C474 1.415 . S
C476 C481 1.425 1_554 S
C476 C483 1.409 . S
C477 H469 0.930 . S
C477 C475 1.419 . S
C477 C478 1.362 1_554 S
C478 H470 0.930 . S
C478 C477 1.362 1_556 S
C478 C481 1.409 . S
C479 H471 0.930 . S
C479 C480 1.355 . S
C479 C481 1.415 . S
C480 C479 1.355 . S
C480 C482 1.419 1_556 S
C481 C476 1.425 1_556 S
C481 C478 1.409 . S
C481 C479 1.415 . S
C482 H472 0.931 . S
C482 C480 1.419 1_554 S
C482 C483 1.362 . S
C483 H473 0.933 . S
C483 C476 1.409 . S
C483 C482 1.362 . S
H484 C490 0.930 . S
H485 C493 0.930 . S
H486 C494 0.930 . S
H487 C495 0.930 . S
H488 C498 0.930 1_554 S
H489 C499 0.930 . S
C490 H484 0.930 . S
C490 C491 1.355 . S
C490 C492 1.415 . S
C491 C490 1.355 . S
C491 C493 1.419 1_554 S
C492 C490 1.415 . S
C492 C497 1.425 1_554 S
C492 C499 1.409 . S
C493 H485 0.930 . S
C493 C491 1.419 1_556 S
C493 C494 1.362 . S
C494 H486 0.930 . S
C494 C493 1.362 . S
C494 C497 1.409 . S
C495 H487 0.930 . S
C495 C496 1.355 . S
C495 C497 1.415 . S
C496 C495 1.355 . S
C496 C498 1.419 . S
C497 C492 1.425 1_556 S
C497 C494 1.409 . S
C497 C495 1.415 . S
C498 H488 0.930 1_556 S
C498 C496 1.419 . S
C498 C499 1.362 1_556 S
C499 H489 0.930 . S
C499 C492 1.409 . S
C499 C498 1.362 1_554 S
H500 C506 0.930 1_556 S
H501 C509 0.930 . S
H502 C510 0.930 . S
H503 C511 0.930 1_554 S
H504 C514 0.930 . S
H505 C515 0.930 . S
C506 H500 0.930 1_554 S
C506 C507 1.355 . S
C506 C508 1.415 1_554 S
C507 C506 1.355 . S
C507 C509 1.419 . S
C508 C506 1.415 1_556 S
C508 C513 1.425 1_556 S
C508 C515 1.409 . S
C509 H501 0.930 . S
C509 C507 1.419 . S
C509 C510 1.362 . S
C510 H502 0.930 . S
C510 C509 1.362 . S
C510 C513 1.409 . S
C511 H503 0.930 1_556 S
C511 C512 1.355 . S
C511 C513 1.415 1_556 S
C512 C511 1.355 . S
C512 C514 1.419 . S
C513 C508 1.425 1_554 S
C513 C510 1.409 . S
C513 C511 1.415 1_554 S
C514 H504 0.930 . S
C514 C512 1.419 . S
C514 C515 1.362 . S
C515 H505 0.930 . S
C515 C508 1.409 . S
C515 C514 1.362 . S
H516 C522 0.930 . S
H517 C525 0.930 . S
H518 C526 0.930 . S
H519 C527 0.930 . S
H520 C530 0.930 . S
H521 C531 0.930 . S
C522 H516 0.930 . S
C522 C523 1.355 1_455 S
C522 C524 1.415 . S
C523 C522 1.355 1_655 S
C523 C525 1.419 . S
C524 C522 1.415 . S
C524 C529 1.425 1_455 S
C524 C531 1.409 . S
C525 H517 0.930 . S
C525 C523 1.419 . S
C525 C526 1.362 . S
C526 H518 0.930 . S
C526 C525 1.362 . S
C526 C529 1.409 . S
C527 H519 0.930 . S
C527 C528 1.355 . S
C527 C529 1.415 . S
C528 C527 1.355 . S
C528 C530 1.419 1_655 S
C529 C524 1.425 1_655 S
C529 C526 1.409 . S
C529 C527 1.415 . S
C530 H520 0.930 . S
C530 C528 1.419 1_455 S
C530 C531 1.362 . S
C531 H521 0.930 . S
C531 C524 1.409 . S
C531 C530 1.362 . S
H532 C538 0.930 . S
H533 C541 0.930 . S
H534 C542 0.930 . S
H535 C543 0.930 . S
H536 C546 0.930 1_545 S
H537 C547 0.930 . S
C538 H532 0.930 . S
C538 C539 1.355 1_545 S
C538 C540 1.415 1_545 S
C539 C538 1.355 1_565 S
C539 C541 1.419 . S
C540 C538 1.415 1_565 S
C540 C545 1.425 . S
C540 C547 1.409 1_565 S
C541 H533 0.930 . S
C541 C539 1.419 . S
C541 C542 1.362 . S
C542 H534 0.930 . S
C542 C541 1.362 . S
C542 C545 1.409 . S
C543 H535 0.930 . S
C543 C544 1.355 . S
C543 C545 1.415 . S
C544 C543 1.355 . S
C544 C546 1.419 . S
C545 C540 1.425 . S
C545 C542 1.409 . S
C545 C543 1.415 . S
C546 H536 0.930 1_565 S
C546 C544 1.419 . S
C546 C547 1.362 1_565 S
C547 H537 0.930 . S
C547 C540 1.409 1_545 S
C547 C546 1.362 1_545 S
H548 C554 0.930 . S
H549 C557 0.930 . S
H550 C558 0.930 . S
H551 C559 0.930 . S
H552 C562 0.930 . S
H553 C563 0.930 . S
C554 H548 0.930 . S
C554 C555 1.355 . S
C554 C556 1.415 . S
C555 C554 1.355 . S
C555 C557 1.419 . S
C556 C554 1.415 . S
C556 C561 1.425 . S
C556 C563 1.409 . S
C557 H549 0.930 . S
C557 C555 1.419 . S
C557 C558 1.362 . S
C558 H550 0.930 . S
C558 C557 1.362 . S
C558 C561 1.409 . S
C559 H551 0.930 . S
C559 C560 1.355 . S
C559 C561 1.415 . S
C560 C559 1.355 . S
C560 C562 1.419 . S
C561 C556 1.425 . S
C561 C558 1.409 . S
C561 C559 1.415 . S
C562 H552 0.930 . S
C562 C560 1.419 . S
C562 C563 1.362 . S
C563 H553 0.930 . S
C563 C556 1.409 . S
C563 C562 1.362 . S
H564 C570 0.930 . S
H565 C573 0.930 . S
H566 C574 0.930 . S
H567 C575 0.930 . S
H568 C578 0.930 . S
H569 C579 0.930 . S
C570 H564 0.930 . S
C570 C571 1.355 . S
C570 C572 1.415 . S
C571 C570 1.355 . S
C571 C573 1.419 . S
C572 C570 1.415 . S
C572 C577 1.425 . S
C572 C579 1.409 . S
C573 H565 0.930 . S
C573 C571 1.419 . S
C573 C574 1.362 . S
C574 H566 0.930 . S
C574 C573 1.362 . S
C574 C577 1.409 . S
C575 H567 0.930 . S
C575 C576 1.355 . S
C575 C577 1.415 . S
C576 C575 1.355 . S
C576 C578 1.419 . S
C577 C572 1.425 . S
C577 C574 1.409 . S
C577 C575 1.415 . S
C578 H568 0.930 . S
C578 C576 1.419 . S
C578 C579 1.362 . S
C579 H569 0.930 . S
C579 C572 1.409 . S
C579 C578 1.362 . S
C203 C82 1.419 . S
C208 C120 1.566 . S
C224 C143 1.645 . S
C219 C95 1.556 . S
C240 C166 1.606 . S
C235 C56 1.456 . S
C256 C193 1.502 . S
C251 C69 1.505 . S
C272 C121 1.544 . S
C267 C30 1.391 . S
C283 C43 1.436 . S
C288 C144 1.525 . S
C299 C4 1.435 . S
C304 C167 1.516 . S
C315 C17 1.509 1_655 S
C320 C192 1.592 . S
C336 C122 0.577 . S
C331 C74 0.698 . S
C352 C145 0.523 . S
C347 C87 0.526 . S
C368 C168 0.616 . S
C363 C100 0.541 . S
C379 C61 0.665 . S
C384 C194 0.650 . S
C395 C22 0.863 . S
C400 C125 0.775 . S
C416 C148 0.894 . S
C411 C35 0.828 1_566 S
C432 C171 0.865 . S
C427 C48 0.793 . S
C443 C9 0.497 . S
C448 C191 0.589 . S
C459 C73 1.594 . S
C464 C123 1.569 . S
C475 C86 1.554 . S
C480 C146 1.557 . S
C496 C169 1.569 . S
C491 C99 1.572 . S
C512 C190 1.409 . S
C507 C60 1.344 . S
C523 C21 1.629 1_655 S
C528 C124 1.525 . S
C544 C147 1.513 . S
C539 C34 1.599 1_565 S
C560 C170 1.460 . S
C555 C47 1.565 . S
C571 C8 1.687 . S
C576 C189 1.713 . S
