# Generated by pormake.
# Topology pyr, (3,6)-cn, num edge types: 1
# Building blocks:
#     Node 0, Type 0, BuildingBlock: BETDIP_clean_linker_0, # of connection points: 3
#     Node 1, Type 0, BuildingBlock: BETDIP_clean_linker_0, # of connection points: 3
#     Node 2, Type 0, BuildingBlock: BETDIP_clean_linker_0, # of connection points: 3
#     Node 3, Type 0, BuildingBlock: BETDIP_clean_linker_0, # of connection points: 3
#     Node 4, Type 0, BuildingBlock: BETDIP_clean_linker_0, # of connection points: 3
#     Node 5, Type 0, BuildingBlock: BETDIP_clean_linker_0, # of connection points: 3
#     Node 6, Type 0, BuildingBlock: BETDIP_clean_linker_0, # of connection points: 3
#     Node 7, Type 0, BuildingBlock: BETDIP_clean_linker_0, # of connection points: 3
#     Node 8, Type 1, BuildingBlock: VOLQOD_clean_sbu_1, # of connection points: 6
#     Node 9, Type 1, BuildingBlock: VOLQOD_clean_sbu_1, # of connection points: 6
#     Node 10, Type 1, BuildingBlock: VOLQOD_clean_sbu_1, # of connection points: 6
#     Node 11, Type 1, BuildingBlock: VOLQOD_clean_sbu_1, # of connection points: 6
#     Edge 12, Type (0, 1), BuildingBlock: MIFKUJ_clean_linker_0, # of connection points: 2
#     Edge 13, Type (0, 1), BuildingBlock: MIFKUJ_clean_linker_0, # of connection points: 2
#     Edge 14, Type (0, 1), BuildingBlock: MIFKUJ_clean_linker_0, # of connection points: 2
#     Edge 15, Type (0, 1), BuildingBlock: MIFKUJ_clean_linker_0, # of connection points: 2
#     Edge 16, Type (0, 1), BuildingBlock: MIFKUJ_clean_linker_0, # of connection points: 2
#     Edge 17, Type (0, 1), BuildingBlock: MIFKUJ_clean_linker_0, # of connection points: 2
#     Edge 18, Type (0, 1), BuildingBlock: MIFKUJ_clean_linker_0, # of connection points: 2
#     Edge 19, Type (0, 1), BuildingBlock: MIFKUJ_clean_linker_0, # of connection points: 2
#     Edge 20, Type (0, 1), BuildingBlock: MIFKUJ_clean_linker_0, # of connection points: 2
#     Edge 21, Type (0, 1), BuildingBlock: MIFKUJ_clean_linker_0, # of connection points: 2
#     Edge 22, Type (0, 1), BuildingBlock: MIFKUJ_clean_linker_0, # of connection points: 2
#     Edge 23, Type (0, 1), BuildingBlock: MIFKUJ_clean_linker_0, # of connection points: 2
#     Edge 24, Type (0, 1), BuildingBlock: MIFKUJ_clean_linker_0, # of connection points: 2
#     Edge 25, Type (0, 1), BuildingBlock: MIFKUJ_clean_linker_0, # of connection points: 2
#     Edge 26, Type (0, 1), BuildingBlock: MIFKUJ_clean_linker_0, # of connection points: 2
#     Edge 27, Type (0, 1), BuildingBlock: MIFKUJ_clean_linker_0, # of connection points: 2
#     Edge 28, Type (0, 1), BuildingBlock: MIFKUJ_clean_linker_0, # of connection points: 2
#     Edge 29, Type (0, 1), BuildingBlock: MIFKUJ_clean_linker_0, # of connection points: 2
#     Edge 30, Type (0, 1), BuildingBlock: MIFKUJ_clean_linker_0, # of connection points: 2
#     Edge 31, Type (0, 1), BuildingBlock: MIFKUJ_clean_linker_0, # of connection points: 2
#     Edge 32, Type (0, 1), BuildingBlock: MIFKUJ_clean_linker_0, # of connection points: 2
#     Edge 33, Type (0, 1), BuildingBlock: MIFKUJ_clean_linker_0, # of connection points: 2
#     Edge 34, Type (0, 1), BuildingBlock: MIFKUJ_clean_linker_0, # of connection points: 2
#     Edge 35, Type (0, 1), BuildingBlock: MIFKUJ_clean_linker_0, # of connection points: 2
# Relax obj value: 0.104
# Max RMSD: 0.185
# Mean RMSD: 0.151
data_MOF--net-pry--node1-VOLQOD_clean_sbu_1--node2-BETDIP_clean_linker_0--edge1-MIFKUJ_clean_linker_0
_symmetry_space_group_name_H-M    P1
_symmetry_Int_Tables_number       1
_symmetry_cell_setting            triclinic
loop_
_symmetry_equiv_pos_as_xyz
'x, y, z'
_cell_length_a     47.239956
_cell_length_b     46.702069
_cell_length_c     49.306559
_cell_angle_alpha  93.315233
_cell_angle_beta   85.764825
_cell_angle_gamma 97.168362
loop_
_atom_site_label
_atom_site_type_symbol
_atom_site_fract_x
_atom_site_fract_y
_atom_site_fract_z
_atom_type_partial_charge
H0 H 0.1053 0.16822 0.18432 0.0
H1 H 0.17189 0.16835 0.11987 0.0
H2 H 0.17083 0.11234 0.186 0.0
H3 H 0.14172 0.18675 0.09601 0.0
C4 C 0.12881 0.1992 0.11019 0.0
C5 C 0.12431 0.15982 0.17506 0.0
C6 C 0.13703 0.13946 0.18843 0.0
C7 C 0.13623 0.16992 0.14999 0.0
C8 C 0.1615 0.15971 0.13841 0.0
C9 C 0.17422 0.13895 0.15128 0.0
C10 C 0.16167 0.12888 0.17619 0.0
N11 N 0.12292 0.19111 0.13761 0.0
H12 H 0.35509 0.899 0.68955 0.0
H13 H 0.363 0.83887 0.62132 0.0
H14 H 0.42263 0.84458 0.68395 0.0
H15 H 0.34722 0.87824 0.59986 0.0
C16 C 0.32987 0.8823 0.61476 0.0
C17 C 0.36656 0.88264 0.67876 0.0
C18 C 0.38999 0.87312 0.69004 0.0
C19 C 0.35755 0.8712 0.65357 0.0
C20 C 0.37122 0.84892 0.63994 0.0
C21 C 0.39444 0.83861 0.65101 0.0
C22 C 0.40402 0.8514 0.67579 0.0
N23 N 0.33387 0.88171 0.64299 0.0
H24 H 0.66823 0.42437 0.86901 0.0
H25 H 0.59878 0.35603 0.87517 0.0
H26 H 0.65932 0.36888 0.93672 0.0
H27 H 0.59979 0.36014 0.83052 0.0
C28 C 0.60471 0.38312 0.82752 0.0
C29 C 0.65672 0.40679 0.88024 0.0
C30 C 0.66724 0.39832 0.90411 0.0
C31 C 0.63211 0.39174 0.86969 0.0
C32 C 0.61761 0.368 0.8833 0.0
C33 C 0.62772 0.35914 0.90717 0.0
C34 C 0.65204 0.37498 0.91779 0.0
N35 N 0.6228 0.40083 0.84515 0.0
H36 H 0.88119 0.54938 0.39561 0.0
H37 H 0.94816 0.62021 0.38684 0.0
H38 H 0.87705 0.62831 0.44467 0.0
H39 H 0.9733 0.58585 0.36645 0.0
C40 C 0.95698 0.57301 0.35505 0.0
C41 C 0.89051 0.57087 0.40202 0.0
C42 C 0.87601 0.58718 0.42216 0.0
C43 C 0.91669 0.5823 0.38942 0.0
C44 C 0.92853 0.61052 0.39704 0.0
C45 C 0.91454 0.62691 0.41736 0.0
C46 C 0.88848 0.61504 0.42996 0.0
N47 N 0.92904 0.56599 0.36741 0.0
H48 H 0.86605 0.90573 0.93794 0.0
H49 H 0.92731 0.90918 0.86877 0.0
H50 H 0.85422 0.95535 0.86962 0.0
H51 H 0.92944 0.86376 0.87965 0.0
C52 C 0.92863 0.86443 0.90174 0.0
C53 C 0.87352 0.914 0.91825 0.0
C54 C 0.85724 0.93185 0.90548 0.0
C55 C 0.89839 0.90503 0.90488 0.0
C56 C 0.90788 0.91547 0.87914 0.0
C57 C 0.89186 0.93335 0.86618 0.0
C58 C 0.86663 0.94147 0.87952 0.0
N59 N 0.91248 0.8843 0.91705 0.0
H60 H 0.6289 0.08277 0.36656 0.0
H61 H 0.62854 0.14714 0.43275 0.0
H62 H 0.57207 0.14813 0.36869 0.0
H63 H 0.65474 0.12014 0.45261 0.0
C64 C 0.66494 0.10641 0.43737 0.0
C65 C 0.62013 0.10122 0.37678 0.0
C66 C 0.59914 0.11402 0.36474 0.0
C67 C 0.63085 0.11269 0.40138 0.0
C68 C 0.62021 0.13736 0.41413 0.0
C69 C 0.59866 0.14991 0.4026 0.0
C70 C 0.58825 0.13812 0.37794 0.0
N71 N 0.65328 0.09966 0.41167 0.0
H72 H 0.37976 0.55758 0.1253 0.0
H73 H 0.44932 0.62492 0.13661 0.0
H74 H 0.39189 0.63007 0.07396 0.0
H75 H 0.46959 0.58561 0.15278 0.0
C76 C 0.45094 0.57709 0.16538 0.0
C77 C 0.3921 0.57749 0.1189 0.0
C78 C 0.38344 0.59208 0.09745 0.0
C79 C 0.41638 0.58859 0.13248 0.0
C80 C 0.43154 0.61521 0.1252 0.0
C81 C 0.42286 0.63016 0.10397 0.0
C82 C 0.39927 0.61809 0.08972 0.0
N83 N 0.42345 0.57385 0.15495 0.0
H84 H 0.04364 0.3934 0.60587 0.0
H85 H 0.10712 0.46734 0.61165 0.0
H86 H 0.13314 0.38288 0.59502 0.0
H87 H 0.04444 0.49468 0.62077 0.0
C88 C 0.05218 0.4762 0.62889 0.0
C89 C 0.06597 0.4023 0.6051 0.0
C90 C 0.08756 0.38405 0.60068 0.0
C91 C 0.07288 0.43217 0.60928 0.0
C92 C 0.10171 0.44418 0.60881 0.0
C93 C 0.12354 0.42635 0.60396 0.0
C94 C 0.11627 0.39643 0.59991 0.0
N95 N 0.05045 0.4499 0.61282 0.0
O96 O 0.00078 0.06805 0.54139 0.0
Zn97 Zn 0.98136 0.02767 0.53788 0.0
O98 O 0.00532 0.00335 0.51529 0.0
Zn99 Zn 0.98655 0.99068 0.48174 0.0
Zn100 Zn 0.043 0.02496 0.50656 0.0
Zn101 Zn 0.00999 0.9699 0.53555 0.0
O102 O 0.98243 0.94712 0.47629 0.0
O103 O 0.99577 0.93319 0.51525 0.0
O104 O 0.94386 0.02934 0.52161 0.0
O105 O 0.94702 0.00335 0.48263 0.0
O106 O 0.00932 0.00807 0.44921 0.0
O107 O 0.0493 0.02976 0.46603 0.0
O108 O 0.07516 0.00503 0.51923 0.0
O109 O 0.97294 0.0134 0.57581 0.0
O110 O 0.05139 0.96823 0.54112 0.0
O111 O 0.98946 0.97081 0.57268 0.0
C112 C 0.0262 0.07976 0.53595 0.0
C113 C 0.98624 0.92726 0.49184 0.0
C114 C 0.03389 0.02265 0.44598 0.0
C115 C 0.93315 0.01878 0.49973 0.0
C116 C 0.0748 0.98293 0.53333 0.0
C117 C 0.97669 0.98997 0.58625 0.0
O118 O 0.04521 0.0655 0.52397 0.0
O119 O 0.49746 0.06534 0.99565 0.0
Zn120 Zn 0.47821 0.02498 0.00187 0.0
O121 O 0.50154 0.00394 0.0232 0.0
Zn122 Zn 0.51362 0.97124 0.00082 0.0
Zn123 Zn 0.53531 0.02935 0.03406 0.0
Zn124 Zn 0.47936 0.99009 0.05602 0.0
O125 O 0.50086 0.93404 0.01902 0.0
O126 O 0.47488 0.94655 0.0562 0.0
O127 O 0.47133 0.0049 0.96503 0.0
O128 O 0.49633 0.96766 0.96456 0.0
O129 O 0.55649 0.97476 0.99432 0.0
O130 O 0.57159 0.01328 0.02028 0.0
O131 O 0.53588 0.03513 0.0748 0.0
O132 O 0.44002 0.02873 0.02184 0.0
O133 O 0.49877 0.005 0.08997 0.0
O134 O 0.44064 0.00456 0.05929 0.0
C135 C 0.52045 0.07945 0.00362 0.0
C136 C 0.48532 0.92734 0.04045 0.0
C137 C 0.57668 0.99203 0.00408 0.0
C138 C 0.48002 0.98233 0.95315 0.0
C139 C 0.52046 0.02331 0.09433 0.0
C140 C 0.42814 0.01974 0.04433 0.0
O141 O 0.53663 0.06821 0.01843 0.0
O142 O 0.52438 0.50602 0.5733 0.0
Zn143 Zn 0.52393 0.52503 0.5377 0.0
O144 O 0.49995 0.5003 0.5126 0.0
Zn145 Zn 0.52346 0.48838 0.48095 0.0
Zn146 Zn 0.48152 0.46571 0.53054 0.0
Zn147 Zn 0.47088 0.522 0.50055 0.0
O148 O 0.50939 0.49974 0.4461 0.0
O149 O 0.4719 0.52248 0.45966 0.0
O150 O 0.5651 0.53189 0.52221 0.0
O151 O 0.56384 0.50637 0.48285 0.0
O152 O 0.52416 0.44549 0.47868 0.0
O153 O 0.49113 0.42875 0.51014 0.0
O154 O 0.43864 0.46584 0.5354 0.0
O155 O 0.50932 0.56385 0.54532 0.0
O156 O 0.43174 0.50481 0.51418 0.0
O157 O 0.47567 0.56303 0.516 0.0
C158 C 0.51259 0.482 0.58214 0.0
C159 C 0.48865 0.51298 0.44077 0.0
C160 C 0.50978 0.4245 0.49076 0.0
C161 C 0.57754 0.52284 0.50011 0.0
C162 C 0.42206 0.48294 0.52781 0.0
C163 C 0.49076 0.57616 0.53432 0.0
O164 O 0.49599 0.46475 0.5678 0.0
O165 O 0.9944 0.51771 0.052 0.0
Zn166 Zn 0.99955 0.50067 0.01374 0.0
O167 O 0.02662 0.52629 0.99138 0.0
Zn168 Zn 0.00732 0.53958 0.96191 0.0
Zn169 Zn 0.04191 0.56003 0.01379 0.0
Zn170 Zn 0.05741 0.50481 0.97551 0.0
O171 O 0.02582 0.52906 0.92534 0.0
O172 O 0.05827 0.50104 0.93441 0.0
O173 O 0.96096 0.49345 0.99781 0.0
O174 O 0.96629 0.52209 0.96288 0.0
O175 O 0.00766 0.5824 0.96451 0.0
O176 O 0.0315 0.59774 0.00073 0.0
O177 O 0.08474 0.56187 0.01387 0.0
O178 O 0.01444 0.46252 0.01754 0.0
O179 O 0.09543 0.52498 0.98603 0.0
O180 O 0.05409 0.46506 0.99024 0.0
C181 C 0.00721 0.53944 0.06477 0.0
C182 C 0.04504 0.51305 0.91746 0.0
C183 C 0.01769 0.60278 0.98061 0.0
C184 C 0.95092 0.50405 0.97783 0.0
C185 C 0.10298 0.54676 0.00175 0.0
C186 C 0.03628 0.45146 0.00705 0.0
O187 O 0.02632 0.55685 0.05273 0.0
H188 H 0.08115 0.121 0.204 0.0
H189 H 0.06229 0.10091 0.24746 0.0
H190 H 0.14701 0.1148 0.27679 0.0
H191 H 0.16593 0.1344 0.23334 0.0
H192 H 0.12317 0.06289 0.28781 0.0
H193 H 0.09414 0.1579 0.29908 0.0
H194 H 0.07087 0.19938 0.28695 0.0
H195 H 0.98951 0.14674 0.2891 0.0
H196 H 0.01237 0.10481 0.3009 0.0
H197 H 0.08749 0.04751 0.4294 0.0
H198 H 0.10361 0.06639 0.38493 0.0
H199 H 0.01977 0.04017 0.35628 0.0
H200 H 0.00342 0.02113 0.40068 0.0
H201 H 0.04148 0.09684 0.34437 0.0
H202 H 0.07171 0.00212 0.33491 0.0
H203 H 0.09595 0.96182 0.34825 0.0
H204 H 0.17652 0.01582 0.34401 0.0
H205 H 0.15269 0.0566 0.33102 0.0
C206 C 0.09563 0.12006 0.21987 0.0
C207 C 0.125 0.12915 0.21528 0.0
C208 C 0.08486 0.10859 0.24469 0.0
C209 C 0.10321 0.10646 0.26549 0.0
C210 C 0.13246 0.11604 0.26103 0.0
C211 C 0.14324 0.12725 0.23621 0.0
C212 C 0.09227 0.09344 0.29161 0.0
C213 C 0.10553 0.0706 0.30031 0.0
C214 C 0.06882 0.10298 0.30767 0.0
C215 C 0.05502 0.12814 0.30058 0.0
C216 C 0.07132 0.15511 0.29674 0.0
C217 C 0.0582 0.17871 0.28997 0.0
C218 C 0.02874 0.17567 0.28718 0.0
C219 C 0.01233 0.14904 0.29123 0.0
C220 C 0.02536 0.12536 0.29797 0.0
C221 C 0.0725 0.04558 0.41362 0.0
C222 C 0.04416 0.03274 0.41862 0.0
C223 C 0.08177 0.05634 0.3882 0.0
C224 C 0.0629 0.05457 0.36731 0.0
C225 C 0.03465 0.04174 0.37216 0.0
C226 C 0.02541 0.03074 0.39751 0.0
C227 C 0.07257 0.06659 0.34055 0.0
C228 C 0.05906 0.08917 0.33175 0.0
C229 C 0.09596 0.05701 0.32452 0.0
C230 C 0.11036 0.03249 0.33224 0.0
C231 C 0.09456 0.00548 0.33705 0.0
C232 C 0.10824 0.98253 0.3445 0.0
C233 C 0.13775 0.98628 0.34704 0.0
C234 C 0.15366 0.01296 0.34207 0.0
C235 C 0.14008 0.03599 0.33463 0.0
H236 H 0.1483 0.96848 0.35281 0.0
H237 H 0.01862 0.19397 0.28194 0.0
H238 H 0.39282 0.92953 0.70986 0.0
H239 H 0.40717 0.9493 0.75438 0.0
H240 H 0.42426 0.86489 0.77509 0.0
H241 H 0.40841 0.84465 0.73125 0.0
H242 H 0.39731 0.88912 0.81649 0.0
H243 H 0.47858 0.91943 0.75643 0.0
H244 H 0.50434 0.9425 0.71651 0.0
H245 H 0.4782 0.02432 0.74535 0.0
H246 H 0.45195 0.00165 0.78529 0.0
H247 H 0.48449 0.92997 0.92658 0.0
H248 H 0.46834 0.9133 0.88182 0.0
H249 H 0.43846 0.99551 0.87263 0.0
H250 H 0.45438 0.01244 0.91765 0.0
H251 H 0.47071 0.97424 0.8259 0.0
H252 H 0.39074 0.94242 0.88743 0.0
H253 H 0.36709 0.91819 0.92765 0.0
H254 H 0.39355 0.83745 0.89587 0.0
H255 H 0.41774 0.86131 0.85562 0.0
C256 C 0.39935 0.91508 0.72397 0.0
C257 C 0.3995 0.88547 0.71687 0.0
C258 C 0.4079 0.92651 0.74932 0.0
C259 C 0.4172 0.90868 0.76798 0.0
C260 C 0.41728 0.87912 0.76101 0.0
C261 C 0.4085 0.86763 0.73578 0.0
C262 C 0.42643 0.92066 0.79495 0.0
C263 C 0.41361 0.90752 0.81846 0.0
C264 C 0.44727 0.94507 0.79767 0.0
C265 C 0.46305 0.95877 0.7737 0.0
C266 C 0.47813 0.9423 0.75415 0.0
C267 C 0.49286 0.95531 0.73154 0.0
C268 C 0.49284 0.98484 0.72835 0.0
C269 C 0.47816 0.00144 0.74782 0.0
C270 C 0.46337 0.98852 0.77046 0.0
C271 C 0.47455 0.9446 0.91507 0.0
C272 C 0.47066 0.97254 0.92575 0.0
C273 C 0.46526 0.93497 0.88952 0.0
C274 C 0.45206 0.95311 0.87404 0.0
C275 C 0.44858 0.98119 0.88433 0.0
C276 C 0.45759 0.99076 0.91007 0.0
C277 C 0.44175 0.94252 0.84719 0.0
C278 C 0.45434 0.95592 0.82379 0.0
C279 C 0.42096 0.91815 0.84453 0.0
C280 C 0.40627 0.90371 0.86863 0.0
C281 C 0.39172 0.91955 0.88912 0.0
C282 C 0.37818 0.90587 0.91191 0.0
C283 C 0.37888 0.87631 0.91435 0.0
C284 C 0.39306 0.86035 0.89397 0.0
C285 C 0.40666 0.87394 0.87115 0.0
H286 H 0.36838 0.86576 0.93201 0.0
H287 H 0.50425 0.99488 0.71084 0.0
H288 H 0.57352 0.35334 0.78907 0.0
H289 H 0.55682 0.37165 0.74833 0.0
H290 H 0.59605 0.45738 0.77066 0.0
H291 H 0.61258 0.43922 0.81161 0.0
H292 H 0.54269 0.45806 0.75318 0.0
H293 H 0.62816 0.41782 0.72178 0.0
H294 H 0.66109 0.38059 0.71575 0.0
H295 H 0.59839 0.32392 0.67349 0.0
H296 H 0.5649 0.36068 0.67961 0.0
H297 H 0.54138 0.51512 0.62141 0.0
H298 H 0.55522 0.49953 0.66455 0.0
H299 H 0.51358 0.41366 0.6468 0.0
H300 H 0.49957 0.42897 0.60371 0.0
H301 H 0.56886 0.41427 0.6621 0.0
H302 H 0.48339 0.45526 0.69377 0.0
H303 H 0.45121 0.49318 0.6995 0.0
H304 H 0.51504 0.54941 0.74075 0.0
H305 H 0.54779 0.51194 0.73491 0.0
C306 C 0.57854 0.37609 0.78527 0.0
C307 C 0.59447 0.3948 0.80333 0.0
C308 C 0.56907 0.3865 0.762 0.0
C309 C 0.5755 0.4158 0.75633 0.0
C310 C 0.59094 0.43468 0.77466 0.0
C311 C 0.60045 0.42425 0.79796 0.0
C312 C 0.56634 0.42656 0.7311 0.0
C313 C 0.54873 0.44878 0.73322 0.0
C314 C 0.57384 0.41408 0.70513 0.0
C315 C 0.59392 0.39191 0.7014 0.0
C316 C 0.6213 0.39733 0.71141 0.0
C317 C 0.64008 0.37633 0.70793 0.0
C318 C 0.63181 0.34988 0.69431 0.0
C319 C 0.60475 0.3444 0.68407 0.0
C320 C 0.58587 0.36533 0.68752 0.0
C321 C 0.53496 0.49297 0.62677 0.0
C322 C 0.5194 0.47328 0.60907 0.0
C323 C 0.54281 0.48415 0.65146 0.0
C324 C 0.53534 0.45548 0.65884 0.0
C325 C 0.51954 0.43588 0.64142 0.0
C326 C 0.51147 0.44472 0.61686 0.0
C327 C 0.54502 0.44557 0.68419 0.0
C328 C 0.56282 0.42355 0.68206 0.0
C329 C 0.53781 0.45835 0.71008 0.0
C330 C 0.51816 0.4809 0.71364 0.0
C331 C 0.49067 0.47581 0.70384 0.0
C332 C 0.4723 0.4972 0.70715 0.0
C333 C 0.4811 0.52372 0.72041 0.0
C334 C 0.50827 0.52887 0.73044 0.0
C335 C 0.52674 0.50755 0.72716 0.0
H336 H 0.46685 0.54025 0.72296 0.0
H337 H 0.64639 0.33365 0.69163 0.0
H338 H 0.00461 0.59205 0.32418 0.0
H339 H 0.01346 0.58511 0.27475 0.0
H340 H 0.93204 0.53233 0.27047 0.0
H341 H 0.92308 0.53917 0.3198 0.0
H342 H 0.97635 0.51009 0.23789 0.0
H343 H 0.93627 0.59999 0.25501 0.0
H344 H 0.93372 0.64863 0.27663 0.0
H345 H 0.01762 0.67708 0.24132 0.0
H346 H 0.02084 0.62845 0.21981 0.0
H347 H 0.96275 0.51246 0.09628 0.0
H348 H 0.95404 0.51756 0.14567 0.0
H349 H 0.02909 0.58019 0.15001 0.0
H350 H 0.03745 0.57589 0.10058 0.0
H351 H 0.98795 0.59709 0.18299 0.0
H352 H 0.02911 0.50849 0.16592 0.0
H353 H 0.03339 0.45993 0.14475 0.0
H354 H 0.95026 0.42896 0.18024 0.0
H355 H 0.9453 0.47746 0.20131 0.0
C356 C 0.98878 0.57871 0.31268 0.0
C357 C 0.96313 0.56633 0.32572 0.0
C358 C 0.99379 0.57486 0.28452 0.0
C359 C 0.97324 0.55849 0.26899 0.0
C360 C 0.94811 0.54509 0.28212 0.0
C361 C 0.943 0.5491 0.31028 0.0
C362 C 0.97741 0.55634 0.23893 0.0
C363 C 0.97856 0.52903 0.2258 0.0
C364 C 0.98093 0.58118 0.22333 0.0
C365 C 0.97891 0.61051 0.23602 0.0
C366 C 0.95427 0.61656 0.25202 0.0
C367 C 0.95268 0.64413 0.26423 0.0
C368 C 0.97552 0.66591 0.26041 0.0
C369 C -4e-05 0.66018 0.2443 0.0
C370 C 0.00167 0.63262 0.23207 0.0
C371 C 0.97732 0.52744 0.10772 0.0
C372 C 0.00088 0.54366 0.09448 0.0
C373 C 0.9724 0.53021 0.13598 0.0
C374 C 0.99123 0.54884 0.15162 0.0
C375 C 0.01433 0.5656 0.13839 0.0
C376 C 0.01908 0.5631 0.11011 0.0
C377 C 0.98701 0.55077 0.18177 0.0
C378 C 0.9858 0.57808 0.19497 0.0
C379 C 0.98371 0.52593 0.19745 0.0
C380 C 0.98672 0.49668 0.18497 0.0
C381 C 0.01165 0.49137 0.16905 0.0
C382 C 0.01422 0.46385 0.15709 0.0
C383 C 0.99208 0.4414 0.16109 0.0
C384 C 0.96737 0.44639 0.17713 0.0
C385 C 0.96468 0.47388 0.1891 0.0
H386 H 0.9941 0.42011 0.15181 0.0
H387 H 0.97426 0.68725 0.26989 0.0
H388 H 0.22019 0.12645 0.17727 0.0
H389 H 0.26222 0.10567 0.15744 0.0
H390 H 0.23126 0.10662 0.07736 0.0
H391 H 0.18813 0.12583 0.0973 0.0
H392 H 0.25099 0.05776 0.08232 0.0
H393 H 0.28717 0.15634 0.09955 0.0
H394 H 0.29628 0.2026 0.12599 0.0
H395 H 0.34285 0.16225 0.18161 0.0
H396 H 0.33367 0.11562 0.15572 0.0
H397 H 0.3889 0.03971 0.01437 0.0
H398 H 0.34457 0.05882 0.03134 0.0
H399 H 0.36031 0.04073 0.11329 0.0
H400 H 0.40438 0.02114 0.09652 0.0
H401 H 0.34874 0.09918 0.10515 0.0
H402 H 0.31061 -0.00023 0.08613 0.0
H403 H 0.30229 0.95513 0.05714 0.0
H404 H 0.26046 0.00013 0.00121 0.0
H405 H 0.26892 0.04519 0.02969 0.0
C406 C 0.22211 0.12201 0.15546 0.0
C407 C 0.20066 0.12775 0.13891 0.0
C408 C 0.24641 0.11046 0.14408 0.0
C409 C 0.25016 0.10495 0.11583 0.0
C410 C 0.2289 0.11078 0.0992 0.0
C411 C 0.20438 0.12206 0.11061 0.0
C412 C 0.27598 0.09244 0.10385 0.0
C413 C 0.27237 0.06713 0.08699 0.0
C414 C 0.30393 0.10439 0.11016 0.0
C415 C 0.3095 0.13241 0.12582 0.0
C416 C 0.29916 0.15727 0.11754 0.0
C417 C 0.30437 0.18357 0.13241 0.0
C418 C 0.32007 0.18535 0.1555 0.0
C419 C 0.33066 0.16083 0.16374 0.0
C420 C 0.32548 0.13446 0.14896 0.0
C421 C 0.38276 0.0395 0.03597 0.0
C422 C 0.40014 0.02892 0.05411 0.0
C423 C 0.35744 0.05038 0.0456 0.0
C424 C 0.34928 0.05118 0.07354 0.0
C425 C 0.36632 0.04028 0.09165 0.0
C426 C 0.39139 0.02896 0.08201 0.0
C427 C 0.32358 0.0645 0.08403 0.0
C428 C 0.32729 0.08999 0.1005 0.0
C429 C 0.29583 0.05301 0.07699 0.0
C430 C 0.29069 0.02593 0.05989 0.0
C431 C 0.29989 0.00022 0.06752 0.0
C432 C 0.29509 0.97483 0.05121 0.0
C433 C 0.28093 0.97481 0.02731 0.0
C434 C 0.27147 0.00019 0.01971 0.0
C435 C 0.27624 0.02565 0.03594 0.0
H436 H 0.27723 0.95513 0.01471 0.0
H437 H 0.32409 0.20574 0.16698 0.0
H438 H 0.32316 0.90235 0.56538 0.0
H439 H 0.28059 0.92023 0.54996 0.0
H440 H 0.23554 0.90212 0.62752 0.0
H441 H 0.27815 0.88489 0.64325 0.0
H442 H 0.20544 0.8812 0.57814 0.0
H443 H 0.25692 0.96703 0.61974 0.0
H444 H 0.29937 0.00273 0.62558 0.0
H445 H 0.3003 0.02377 0.54186 0.0
H446 H 0.25807 0.98784 0.53542 0.0
H447 H 0.08242 0.94996 0.57533 0.0
H448 H 0.12659 0.93359 0.58745 0.0
H449 H 0.17275 0.97779 0.52014 0.0
H450 H 0.12857 0.99539 0.50862 0.0
H451 H 0.20399 0.98471 0.56119 0.0
H452 H 0.15307 0.90219 0.51823 0.0
H453 H 0.11207 0.86558 0.50932 0.0
H454 H 0.11175 0.83644 0.59037 0.0
H455 H 0.15251 0.87316 0.59991 0.0
C456 C 0.30415 0.90225 0.5791 0.0
C457 C 0.30395 0.89245 0.60551 0.0
C458 C 0.27994 0.91247 0.57031 0.0
C459 C 0.25505 0.91256 0.58767 0.0
C460 C 0.25461 0.90223 0.61388 0.0
C461 C 0.27897 0.89252 0.62285 0.0
C462 C 0.22941 0.92348 0.57857 0.0
C463 C 0.20492 0.90386 0.57469 0.0
C464 C 0.22927 0.95284 0.57312 0.0
C465 C 0.25455 0.97452 0.57702 0.0
C466 C 0.26634 0.97906 0.60251 0.0
C467 C 0.29033 0.99938 0.60594 0.0
C468 C 0.30258 0.01545 0.58408 0.0
C469 C 0.29082 0.01128 0.55876 0.0
C470 C 0.26685 0.99095 0.55521 0.0
C471 C 0.10196 0.95623 0.56309 0.0
C472 C 0.10196 0.97379 0.54087 0.0
C473 C 0.12722 0.9467 0.56995 0.0
C474 C 0.15296 0.9538 0.55432 0.0
C475 C 0.15316 0.97186 0.53243 0.0
C476 C 0.12791 0.98188 0.52584 0.0
C477 C 0.17956 0.94248 0.56106 0.0
C478 C 0.20435 0.96199 0.56444 0.0
C479 C 0.18016 0.91284 0.56553 0.0
C480 C 0.15571 0.89061 0.55986 0.0
C481 C 0.14413 0.88811 0.53422 0.0
C482 C 0.12096 0.86732 0.52905 0.0
C483 C 0.10928 0.84874 0.54928 0.0
C484 C 0.12081 0.85087 0.57472 0.0
C485 C 0.14397 0.87165 0.58001 0.0
H486 H 0.09133 0.83266 0.54524 0.0
H487 H 0.32114 0.03117 0.58678 0.0
H488 H 0.70812 0.37271 0.9272 0.0
H489 H 0.75407 0.39508 0.94206 0.0
H490 H 0.7371 0.47735 0.91591 0.0
H491 H 0.69002 0.4556 0.90236 0.0
H492 H 0.79315 0.45521 0.8962 0.0
H493 H 0.73421 0.47542 0.97732 0.0
H494 H 0.6979 0.46274 0.0146 0.0
H495 H 0.74955 0.40213 0.04198 0.0
H496 H 0.78598 0.41414 0.00458 0.0
H497 H 0.9184 0.53169 0.94676 0.0
H498 H 0.86896 0.51712 0.93597 0.0
H499 H 0.86602 0.44188 0.98346 0.0
H500 H 0.91525 0.45695 0.9952 0.0
H501 H 0.81824 0.46375 0.99256 0.0
H502 H 0.87488 0.43874 0.91225 0.0
H503 H 0.91128 0.44662 0.87409 0.0
H504 H 0.86492 0.5102 0.84395 0.0
H505 H 0.82841 0.50298 0.88218 0.0
C506 C 0.71363 0.39573 0.9252 0.0
C507 C 0.69505 0.41235 0.91375 0.0
C508 C 0.74009 0.40838 0.9335 0.0
C509 C 0.7488 0.43779 0.93013 0.0
C510 C 0.73062 0.45456 0.91861 0.0
C511 C 0.70382 0.44202 0.91074 0.0
C512 C 0.7774 0.45054 0.93796 0.0
C513 C 0.79862 0.4577 0.91727 0.0
C514 C 0.78451 0.45264 0.96539 0.0
C515 C 0.7627 0.4455 0.98799 0.0
C516 C 0.73771 0.4592 0.99113 0.0
C517 C 0.71713 0.45217 0.01232 0.0
C518 C 0.72138 0.43159 0.03061 0.0
C519 C 0.74627 0.41805 0.02778 0.0
C520 C 0.7669 0.42498 0.00661 0.0
C521 C 0.90724 0.51203 0.95493 0.0
C522 C 0.9208 0.49534 0.97169 0.0
C523 C 0.87898 0.50368 0.94866 0.0
C524 C 0.86391 0.47812 0.95848 0.0
C525 C 0.87724 0.46167 0.9756 0.0
C526 C 0.90539 0.47026 0.98224 0.0
C527 C 0.83432 0.46842 0.95076 0.0
C528 C 0.81287 0.46166 0.97146 0.0
C529 C 0.82713 0.46611 0.92324 0.0
C530 C 0.84907 0.47054 0.90025 0.0
C531 C 0.87257 0.45457 0.89761 0.0
C532 C 0.8932 0.45889 0.87594 0.0
C533 C 0.89046 0.47895 0.85664 0.0
C534 C 0.86704 0.4947 0.85894 0.0
C535 C 0.84636 0.4905 0.8806 0.0
H536 H 0.90643 0.48224 0.83985 0.0
H537 H 0.70542 0.42619 0.04701 0.0
H538 H 0.85291 0.59301 0.47463 0.0
H539 H 0.80279 0.58193 0.49083 0.0
H540 H 0.7827 0.54595 0.41097 0.0
H541 H 0.83237 0.55819 0.39432 0.0
H542 H 0.7471 0.58307 0.42856 0.0
H543 H 0.78343 0.50335 0.46635 0.0
H544 H 0.8151 0.48011 0.49352 0.0
H545 H 0.78572 0.52656 0.56573 0.0
H546 H 0.75413 0.55038 0.53892 0.0
H547 H 0.60923 0.51118 0.45325 0.0
H548 H 0.66047 0.52288 0.4436 0.0
H549 H 0.66804 0.56415 0.5237 0.0
H550 H 0.61638 0.55228 0.53378 0.0
H551 H 0.70999 0.52774 0.50927 0.0
H552 H 0.67173 0.60546 0.47124 0.0
H553 H 0.63957 0.62766 0.44375 0.0
H554 H 0.67261 0.58399 0.37144 0.0
H555 H 0.70469 0.56119 0.39856 0.0
C556 C 0.83783 0.5826 0.46056 0.0
C557 C 0.84665 0.57661 0.43314 0.0
C558 C 0.80923 0.57603 0.46992 0.0
C559 C 0.78899 0.56303 0.45212 0.0
C560 C 0.79796 0.55602 0.42505 0.0
C561 C 0.82646 0.56274 0.41563 0.0
C562 C 0.75816 0.5585 0.46107 0.0
C563 C 0.73899 0.57065 0.44601 0.0
C564 C 0.74767 0.5432 0.48442 0.0
C565 C 0.76665 0.52889 0.50057 0.0
C566 C 0.7839 0.5088 0.48798 0.0
C567 C 0.8018 0.49548 0.50332 0.0
C568 C 0.80249 0.50192 0.53132 0.0
C569 C 0.78521 0.52163 0.54404 0.0
C570 C 0.76728 0.53503 0.52878 0.0
C571 C 0.62165 0.52282 0.46889 0.0
C572 C 0.60863 0.53089 0.4943 0.0
C573 C 0.65098 0.52955 0.46327 0.0
C574 C 0.66796 0.5446 0.48284 0.0
C575 C 0.65522 0.55256 0.50832 0.0
C576 C 0.62572 0.54589 0.51398 0.0
C577 C 0.69905 0.55177 0.47637 0.0
C578 C 0.71822 0.54027 0.49192 0.0
C579 C 0.70961 0.5676 0.4534 0.0
C580 C 0.69047 0.58145 0.43698 0.0
C581 C 0.672 0.60042 0.4495 0.0
C582 C 0.65381 0.61314 0.43398 0.0
C583 C 0.65401 0.60719 0.40587 0.0
C584 C 0.67246 0.58856 0.39322 0.0
C585 C 0.69068 0.57577 0.40865 0.0
H586 H 0.6399 0.61705 0.39389 0.0
H587 H 0.81635 0.49158 0.54316 0.0
H588 H 0.09019 0.23284 0.13638 0.0
H589 H 0.07237 0.27481 0.11884 0.0
H590 H 0.1241 0.2645 0.04392 0.0
H591 H 0.14184 0.22245 0.06126 0.0
H592 H 0.12876 0.3213 0.06589 0.0
H593 H 0.05459 0.2438 0.04475 0.0
H594 H 0.01801 0.20296 0.05583 0.0
H595 H 0.97312 0.2585 0.11146 0.0
H596 H 0.00967 0.29961 0.10098 0.0
H597 H 0.07495 0.4168 0.98378 0.0
H598 H 0.08829 0.37293 0.0014 0.0
H599 H 0.02586 0.37913 0.06925 0.0
H600 H 0.01176 0.42255 0.05129 0.0
H601 H 0.02611 0.32484 0.05286 0.0
H602 H 0.09782 0.40196 0.07548 0.0
H603 H 0.13414 0.44381 0.06727 0.0
H604 H 0.18361 0.3909 0.0132 0.0
H605 H 0.14737 0.34879 0.02079 0.0
C606 C 0.09771 0.23948 0.11616 0.0
C607 C 0.1174 0.22441 0.10011 0.0
C608 C 0.08745 0.2634 0.10614 0.0
C609 C 0.09683 0.27266 0.08003 0.0
C610 C 0.1166 0.2577 0.06411 0.0
C611 C 0.12664 0.23368 0.074 0.0
C612 C 0.0864 0.29817 0.06932 0.0
C613 C 0.10637 0.32197 0.06271 0.0
C614 C 0.05707 0.29937 0.06608 0.0
C615 C 0.03503 0.2747 0.07229 0.0
C616 C 0.03705 0.24725 0.05951 0.0
C617 C 0.0163 0.22406 0.06565 0.0
C618 C 0.9933 0.22811 0.08439 0.0
C619 C 0.99097 0.25538 0.09698 0.0
C620 C 0.01168 0.27864 0.09093 0.0
C621 C 0.06384 0.40869 0.00231 0.0
C622 C 0.04242 0.42332 0.01622 0.0
C623 C 0.07161 0.38368 0.01246 0.0
C624 C 0.05854 0.37306 0.037 0.0
C625 C 0.03636 0.38696 0.05035 0.0
C626 C 0.02832 0.41181 0.04004 0.0
C627 C 0.06854 0.34795 0.04906 0.0
C628 C 0.04851 0.32426 0.05603 0.0
C629 C 0.09781 0.34703 0.05307 0.0
C630 C 0.11973 0.37228 0.04851 0.0
C631 C 0.11634 0.39929 0.06168 0.0
C632 C 0.13693 0.42305 0.05716 0.0
C633 C 0.16113 0.42003 0.03967 0.0
C634 C 0.16483 0.39321 0.02671 0.0
C635 C 0.14428 0.36938 0.03114 0.0
H636 H 0.17705 0.43846 0.0362 0.0
H637 H 0.97725 0.21014 0.08912 0.0
H638 H 0.57057 0.33798 0.91299 0.0
H639 H 0.54974 0.29127 0.92978 0.0
H640 H 0.63348 0.27298 0.94787 0.0
H641 H 0.65464 0.31849 0.92939 0.0
H642 H 0.6079 0.22833 0.92334 0.0
H643 H 0.5809 0.29195 0.99821 0.0
H644 H 0.55903 0.33315 0.02071 0.0
H645 H 0.47687 0.29668 0.99475 0.0
H646 H 0.49832 0.25542 0.97178 0.0
H647 H 0.57164 0.1126 0.00962 0.0
H648 H 0.58661 0.16109 0.99392 0.0
H649 H 0.50398 0.16271 0.96267 0.0
H650 H 0.48868 0.11395 0.97825 0.0
H651 H 0.52593 0.21495 0.99222 0.0
H652 H 0.55486 0.14974 0.91892 0.0
H653 H 0.5781 0.10808 0.89934 0.0
H654 H 0.65893 0.1481 0.9257 0.0
H655 H 0.63609 0.18985 0.94577 0.0
C656 C 0.58459 0.32396 0.92041 0.0
C657 C 0.61433 0.3321 0.9198 0.0
C658 C 0.57258 0.29739 0.93034 0.0
C659 C 0.59 0.27868 0.94034 0.0
C660 C 0.61958 0.28703 0.94028 0.0
C661 C 0.63162 0.31332 0.93002 0.0
C662 C 0.57782 0.24982 0.94977 0.0
C663 C 0.59019 0.22555 0.93864 0.0
C664 C 0.55423 0.24597 0.96923 0.0
C665 C 0.54128 0.27076 0.98302 0.0
C666 C 0.55821 0.29283 0.99711 0.0
C667 C 0.54588 0.31618 0.00998 0.0
C668 C 0.51659 0.31758 0.00909 0.0
C669 C 0.49956 0.29559 0.99538 0.0
C670 C 0.51179 0.27221 0.98245 0.0
C671 C 0.55653 0.12324 0.99955 0.0
C672 C 0.529 0.10931 0.99504 0.0
C673 C 0.56516 0.15094 0.99056 0.0
C674 C 0.54645 0.16528 0.97699 0.0
C675 C 0.51869 0.15189 0.9731 0.0
C676 C 0.51008 0.12401 0.9819 0.0
C677 C 0.55641 0.19389 0.96611 0.0
C678 C 0.54356 0.21795 0.97685 0.0
C679 C 0.57982 0.19766 0.94657 0.0
C680 C 0.59371 0.17282 0.93404 0.0
C681 C 0.57756 0.14958 0.92069 0.0
C682 C 0.59066 0.12596 0.90948 0.0
C683 C 0.61996 0.12541 0.91133 0.0
C684 C 0.63624 0.14855 0.9243 0.0
C685 C 0.62323 0.17221 0.93556 0.0
H686 H 0.63006 0.10709 0.90269 0.0
H687 H 0.50709 0.33566 0.01908 0.0
H688 H 0.93196 0.66948 0.3821 0.0
H689 H 0.94609 0.72071 0.39334 0.0
H690 H 0.93642 0.70404 0.47896 0.0
H691 H 0.92158 0.65288 0.46773 0.0
H692 H 0.911 0.74854 0.47023 0.0
H693 H 0.00333 0.71953 0.44367 0.0
H694 H 0.03943 0.69731 0.41355 0.0
H695 H 0.03146 0.75675 0.35207 0.0
H696 H 0.99501 0.77909 0.3817 0.0
H697 H 0.9814 0.88015 0.52281 0.0
H698 H 0.97043 0.82947 0.50807 0.0
H699 H 0.96536 0.85383 0.4257 0.0
H700 H 0.97619 0.90489 0.44028 0.0
H701 H 0.99798 0.80659 0.43102 0.0
H702 H 0.90594 0.83592 0.45921 0.0
H703 H 0.87086 0.85814 0.49057 0.0
H704 H 0.87986 0.79747 0.55064 0.0
H705 H 0.91534 0.77515 0.51977 0.0
C706 C 0.93334 0.67672 0.40329 0.0
C707 C 0.92578 0.6573 0.42408 0.0
C708 C 0.94143 0.70598 0.4097 0.0
C709 C 0.94257 0.71621 0.437 0.0
C710 C 0.93563 0.69666 0.45776 0.0
C711 C 0.92722 0.66748 0.45136 0.0
C712 C 0.94952 0.74749 0.44403 0.0
C713 C 0.93025 0.76108 0.46193 0.0
C714 C 0.97422 0.7641 0.43262 0.0
C715 C 0.99623 0.75079 0.41481 0.0
C716 C 0.00911 0.72772 0.42365 0.0
C717 C 0.02967 0.71513 0.40668 0.0
C718 C 0.03768 0.72556 0.38088 0.0
C719 C 0.0252 0.74867 0.37204 0.0
C720 C 0.00462 0.76132 0.38893 0.0
C721 C 0.97798 0.87482 0.50153 0.0
C722 C 0.97957 0.89658 0.48272 0.0
C723 C 0.97167 0.84584 0.49319 0.0
C724 C 0.96696 0.83802 0.46587 0.0
C725 C 0.96893 0.85954 0.44689 0.0
C726 C 0.97497 0.88865 0.45529 0.0
C727 C 0.95965 0.80728 0.45739 0.0
C728 C 0.97877 0.7939 0.43922 0.0
C729 C 0.93495 0.79075 0.4687 0.0
C730 C 0.9135 0.80404 0.48726 0.0
C731 C 0.90062 0.82747 0.47919 0.0
C732 C 0.88063 0.84006 0.49686 0.0
C733 C 0.87319 0.82927 0.5226 0.0
C734 C 0.88567 0.80583 0.5307 0.0
C735 C 0.9057 0.79318 0.51311 0.0
H736 H 0.8577 0.83904 0.53626 0.0
H737 H 0.05359 0.71578 0.36777 0.0
H738 H 0.40347 0.82566 0.59602 0.0
H739 H 0.42276 0.78323 0.57413 0.0
H740 H 0.43657 0.75362 0.6527 0.0
H741 H 0.41593 0.79494 0.67493 0.0
H742 H 0.4843 0.75138 0.61042 0.0
H743 H 0.38225 0.72311 0.62662 0.0
H744 H 0.33146 0.72879 0.62315 0.0
H745 H 0.34345 0.72407 0.5359 0.0
H746 H 0.39446 0.71879 0.53888 0.0
H747 H 0.5034 0.60428 0.58292 0.0
H748 H 0.4905 0.65128 0.60026 0.0
H749 H 0.45384 0.66233 0.52446 0.0
H750 H 0.46553 0.61474 0.50753 0.0
H751 H 0.41904 0.67656 0.56298 0.0
H752 H 0.51917 0.70177 0.54469 0.0
H753 H 0.57061 0.69785 0.54599 0.0
H754 H 0.56424 0.71075 0.63305 0.0
H755 H 0.51266 0.71436 0.63232 0.0
C756 C 0.41033 0.81005 0.60874 0.0
C757 C 0.40796 0.81384 0.63735 0.0
C758 C 0.42161 0.78595 0.59614 0.0
C759 C 0.43108 0.76539 0.61184 0.0
C760 C 0.42957 0.76942 0.64026 0.0
C761 C 0.41787 0.79322 0.6529 0.0
C762 C 0.44135 0.73893 0.59876 0.0
C763 C 0.47009 0.73484 0.60019 0.0
C764 C 0.4229 0.71791 0.58477 0.0
C765 C 0.39222 0.72091 0.58298 0.0
C766 C 0.37412 0.72357 0.6067 0.0
C767 C 0.34528 0.72665 0.60483 0.0
C768 C 0.33425 0.72689 0.57932 0.0
C769 C 0.35203 0.72394 0.55564 0.0
C770 C 0.3809 0.72089 0.55741 0.0
C771 C 0.49289 0.61688 0.56983 0.0
C772 C 0.48546 0.60578 0.54386 0.0
C773 C 0.48564 0.64386 0.57972 0.0
C774 C 0.47147 0.66065 0.56358 0.0
C775 C 0.46469 0.64984 0.53736 0.0
C776 C 0.47146 0.62264 0.52767 0.0
C777 C 0.46225 0.68864 0.57458 0.0
C778 C 0.43356 0.69308 0.57287 0.0
C779 C 0.48093 0.71019 0.58791 0.0
C780 C 0.51198 0.70809 0.58845 0.0
C781 C 0.52869 0.70356 0.56413 0.0
C782 C 0.55789 0.70143 0.56476 0.0
C783 C 0.57068 0.70398 0.58959 0.0
C784 C 0.5543 0.70875 0.61384 0.0
C785 C 0.52509 0.71088 0.61332 0.0
H786 H 0.59328 0.70232 0.59004 0.0
H787 H 0.31192 0.72927 0.57791 0.0
H788 H 0.85784 0.93087 0.82364 0.0
H789 H 0.87201 0.94215 0.77645 0.0
H790 H 0.95906 0.96643 0.79769 0.0
H791 H 0.945 0.95472 0.84498 0.0
H792 H 0.89338 0.9886 0.75149 0.0
H793 H 0.00457 0.94736 0.74512 0.0
H794 H 0.02895 0.91153 0.76642 0.0
H795 H 0.94816 0.86098 0.78468 0.0
H796 H 0.92337 0.89626 0.76315 0.0
H797 H 0.96757 0.03061 0.627 0.0
H798 H 0.9533 0.02252 0.67487 0.0
H799 H 0.94809 0.93035 0.65783 0.0
H800 H 0.96375 0.93842 0.61028 0.0
H801 H 0.9721 0.94186 0.70204 0.0
H802 H 0.88714 0.96896 0.66821 0.0
H803 H 0.85835 0.99969 0.64532 0.0
H804 H 0.87857 0.06917 0.70429 0.0
H805 H 0.90777 0.03895 0.72734 0.0
C806 C 0.87994 0.93893 0.81831 0.0
C807 C 0.90036 0.94186 0.83795 0.0
C808 C 0.88801 0.94535 0.79133 0.0
C809 C 0.91664 0.95484 0.78345 0.0
C810 C 0.93694 0.95863 0.80321 0.0
C811 C 0.92891 0.95197 0.83019 0.0
C812 C 0.92526 0.95991 0.75441 0.0
C813 C 0.91064 0.97845 0.74067 0.0
C814 C 0.94736 0.94619 0.74013 0.0
C815 C 0.96212 0.92464 0.7528 0.0
C816 C 0.99204 0.92854 0.7536 0.0
C817 C 0.00592 0.90834 0.76572 0.0
C818 C 0.9901 0.88405 0.77699 0.0
C819 C 0.96038 0.87985 0.77605 0.0
C820 C 0.9464 0.89996 0.76391 0.0
C821 C 0.96323 0.00863 0.63347 0.0
C822 C 0.96669 0.98513 0.6149 0.0
C823 C 0.95496 0.00401 0.66082 0.0
C824 C 0.9492 0.97579 0.66997 0.0
C825 C 0.95248 0.95232 0.65134 0.0
C826 C 0.96133 0.95695 0.62414 0.0
C827 C 0.94024 0.97061 0.69899 0.0
C828 C 0.95488 0.95212 0.7128 0.0
C829 C 0.91752 0.98363 0.71307 0.0
C830 C 0.89985 0.00178 0.69934 0.0
C831 C 0.88559 0.99085 0.67619 0.0
C832 C 0.86918 0.00817 0.6632 0.0
C833 C 0.86669 0.03639 0.6733 0.0
C834 C 0.88054 0.04732 0.69647 0.0
C835 C 0.897 0.0301 0.70951 0.0
H836 H 0.85398 0.04976 0.66322 0.0
H837 H 0.00089 0.86845 0.78639 0.0
H838 H 0.57989 0.0586 0.34817 0.0
H839 H 0.56461 0.04121 0.30306 0.0
H840 H 0.58327 0.12789 0.27502 0.0
H841 H 0.59739 0.14537 0.32031 0.0
H842 H 0.53625 0.10523 0.25634 0.0
H843 H 0.62842 0.07299 0.25935 0.0
H844 H 0.66526 0.04795 0.27775 0.0
H845 H 0.61174 0.967 0.26952 0.0
H846 H 0.57441 0.99163 0.2514 0.0
H847 H 0.55226 0.07225 0.11321 0.0
H848 H 0.5636 0.08562 0.16028 0.0
H849 H 0.51722 0.00542 0.18643 0.0
H850 H 0.5052 0.99209 0.13946 0.0
H851 H 0.57592 0.02232 0.20628 0.0
H852 H 0.48463 0.05725 0.20065 0.0
H853 H 0.4507 0.08422 0.18005 0.0
H854 H 0.50707 0.16297 0.19089 0.0
H855 H 0.54156 0.13635 0.21118 0.0
C856 C 0.58067 0.07384 0.3323 0.0
C857 C 0.58974 0.10329 0.33763 0.0
C858 C 0.57208 0.06391 0.30652 0.0
C859 C 0.57316 0.08316 0.28545 0.0
C860 C 0.58214 0.11261 0.2909 0.0
C861 C 0.59022 0.12259 0.31676 0.0
C862 C 0.56484 0.07283 0.25773 0.0
C863 C 0.54521 0.08728 0.24537 0.0
C864 C 0.57608 0.04907 0.24344 0.0
C865 C 0.59849 0.0342 0.25431 0.0
C866 C 0.62442 0.04988 0.26167 0.0
C867 C 0.6454 0.03576 0.27201 0.0
C868 C 0.64081 0.00592 0.27488 0.0
C869 C 0.61525 0.99012 0.26733 0.0
C870 C 0.59418 0.00415 0.25701 0.0
C871 C 0.54451 0.05743 0.12896 0.0
C872 C 0.52778 0.03115 0.12266 0.0
C873 C 0.55096 0.06512 0.1558 0.0
C874 C 0.54117 0.04649 0.1767 0.0
C875 C 0.52493 0.02003 0.17049 0.0
C876 C 0.518 0.01254 0.14371 0.0
C877 C 0.54773 0.05493 0.20511 0.0
C878 C 0.56697 0.04014 0.21749 0.0
C879 C 0.53658 0.07868 0.21923 0.0
C880 C 0.5158 0.09475 0.20718 0.0
C881 C 0.48991 0.08026 0.1984 0.0
C882 C 0.47055 0.0955 0.18683 0.0
C883 C 0.47676 0.12528 0.1841 0.0
C884 C 0.50231 0.13989 0.19299 0.0
C885 C 0.52175 0.12475 0.20455 0.0
H886 H 0.46174 0.13704 0.17514 0.0
H887 H 0.65708 0.99502 0.28288 0.0
H888 H 0.4094 0.56427 0.20607 0.0
H889 H 0.41612 0.55168 0.25244 0.0
H890 H 0.50715 0.55686 0.23346 0.0
H891 H 0.50061 0.56999 0.18698 0.0
H892 H 0.48059 0.50616 0.26303 0.0
H893 H 0.48669 0.61043 0.26663 0.0
H894 H 0.46954 0.65686 0.25896 0.0
H895 H 0.39316 0.6331 0.30943 0.0
H896 H 0.40967 0.5863 0.31707 0.0
H897 H 0.52664 0.509 0.39659 0.0
H898 H 0.51979 0.51812 0.34944 0.0
H899 H 0.43359 0.53595 0.37265 0.0
H900 H 0.4407 0.52792 0.42008 0.0
H901 H 0.45739 0.57433 0.34009 0.0
H902 H 0.4494 0.47129 0.33775 0.0
H903 H 0.46376 0.42351 0.34513 0.0
H904 H 0.5395 0.44231 0.29241 0.0
H905 H 0.52579 0.49039 0.285 0.0
C906 C 0.43083 0.56253 0.21168 0.0
C907 C 0.45456 0.56806 0.19298 0.0
C908 C 0.43462 0.5554 0.23817 0.0
C909 C 0.46211 0.55344 0.24628 0.0
C910 C 0.48577 0.55823 0.22747 0.0
C911 C 0.48203 0.56579 0.20106 0.0
C912 C 0.46616 0.5473 0.2747 0.0
C913 C 0.4759 0.52115 0.27993 0.0
C914 C 0.45916 0.56655 0.29663 0.0
C915 C 0.44928 0.59475 0.29219 0.0
C916 C 0.46612 0.61499 0.27589 0.0
C917 C 0.45654 0.6414 0.27159 0.0
C918 C 0.43024 0.64789 0.28364 0.0
C919 C 0.4135 0.62802 0.30008 0.0
C920 C 0.42297 0.60156 0.30442 0.0
C921 C 0.50617 0.51473 0.39165 0.0
C922 C 0.48419 0.5177 0.41207 0.0
C923 C 0.50223 0.51979 0.36463 0.0
C924 C 0.47601 0.52728 0.35737 0.0
C925 C 0.454 0.53018 0.37774 0.0
C926 C 0.45808 0.52555 0.40484 0.0
C927 C 0.47185 0.53301 0.32871 0.0
C928 C 0.46208 0.55917 0.32334 0.0
C929 C 0.47841 0.5135 0.3067 0.0
C930 C 0.4867 0.48456 0.31104 0.0
C931 C 0.46923 0.46533 0.32789 0.0
C932 C 0.47723 0.43817 0.33206 0.0
C933 C 0.50256 0.42991 0.31931 0.0
C934 C 0.5199 0.44875 0.3023 0.0
C935 C 0.51201 0.47595 0.29809 0.0
H936 H 0.50872 0.40887 0.32256 0.0
H937 H 0.42286 0.66835 0.28029 0.0
H938 H 0.06293 0.52432 0.66136 0.0
H939 H 0.06875 0.52766 0.71039 0.0
H940 H 0.06025 0.43465 0.7113 0.0
H941 H 0.05365 0.43118 0.6626 0.0
H942 H 0.02675 0.45569 0.75054 0.0
H943 H 0.12438 0.47428 0.7211 0.0
H944 H 0.16716 0.49657 0.69502 0.0
H945 H 0.15479 0.57958 0.733 0.0
H946 H 0.11162 0.55784 0.75904 0.0
H947 H 0.06383 0.46528 0.89081 0.0
H948 H 0.07137 0.45633 0.84134 0.0
H949 H 0.04975 0.54127 0.82842 0.0
H950 H 0.04125 0.55 0.87763 0.0
H951 H 0.10309 0.5194 0.79605 0.0
H952 H 0.00036 0.49824 0.82013 0.0
H953 H 0.95926 0.47341 0.84677 0.0
H954 H 0.98472 0.39112 0.81855 0.0
H955 H 0.02638 0.41555 0.79218 0.0
C956 C 0.0627 0.50463 0.672 0.0
C957 C 0.05824 0.47759 0.65804 0.0
C958 C 0.06618 0.50654 0.69996 0.0
C959 C 0.06529 0.48139 0.71447 0.0
C960 C 0.06121 0.45433 0.70048 0.0
C961 C 0.05771 0.45241 0.67251 0.0
C962 C 0.06654 0.48345 0.74451 0.0
C963 C 0.04378 0.46918 0.76042 0.0
C964 C 0.08865 0.50116 0.75749 0.0
C965 C 0.11459 0.51445 0.74187 0.0
C966 C 0.13062 0.49733 0.72373 0.0
C967 C 0.15499 0.50987 0.70898 0.0
C968 C 0.16367 0.53949 0.71231 0.0
C969 C 0.14802 0.55663 0.73043 0.0
C970 C 0.12362 0.54421 0.74522 0.0
C971 C 0.06096 0.48211 0.87739 0.0
C972 C 0.05178 0.50825 0.88797 0.0
C973 C 0.06529 0.47698 0.84924 0.0
C974 C 0.06116 0.4982 0.83141 0.0
C975 C 0.05315 0.52474 0.84196 0.0
C976 C 0.04813 0.52959 0.87 0.0
C977 C 0.06313 0.49212 0.80166 0.0
C978 C 0.08641 0.50563 0.78596 0.0
C979 C 0.04179 0.47337 0.78883 0.0
C980 C 0.01668 0.45871 0.80452 0.0
C981 C 0.99738 0.47486 0.81987 0.0
C982 C 0.97394 0.46086 0.83485 0.0
C983 C 0.9694 0.4307 0.83441 0.0
C984 C 0.98829 0.41448 0.81893 0.0
C985 C 0.01183 0.42839 0.80397 0.0
H986 H 0.95123 0.41989 0.84599 0.0
H987 H 0.18255 0.54917 0.70088 0.0
H988 H 0.84502 0.95223 0.95776 0.0
H989 H 0.79899 0.96547 0.97772 0.0
H990 H 0.76084 0.94013 0.90174 0.0
H991 H 0.8067 0.92752 0.88171 0.0
H992 H 0.74473 0.98933 0.92029 0.0
H993 H 0.75027 0.89757 0.95848 0.0
H994 H 0.77192 0.86293 0.98399 0.0
H995 H 0.76902 0.91956 0.05566 0.0
H996 H 0.74769 0.95472 0.03045 0.0
H997 H 0.59678 0.9619 0.9592 0.0
H998 H 0.64649 0.95517 0.94567 0.0
H999 H 0.67399 0.0045 0.01767 0.0
H1000 H 0.62429 0.0119 0.03115 0.0
H1001 H 0.69727 0.94824 0.00499 0.0
H1002 H 0.68731 0.03807 0.96621 0.0
H1003 H 0.66384 0.07062 0.93991 0.0
H1004 H 0.67347 0.01505 0.86821 0.0
H1005 H 0.6966 0.98191 0.8942 0.0
C1006 C 0.82671 0.94939 0.94546 0.0
C1007 C 0.82941 0.93902 0.91818 0.0
C1008 C 0.80045 0.95692 0.95684 0.0
C1009 C 0.77639 0.95367 0.94126 0.0
C1010 C 0.77911 0.94305 0.9141 0.0
C1011 C 0.80532 0.93584 0.90268 0.0
C1012 C 0.74828 0.96139 0.95289 0.0
C1013 C 0.73432 0.98016 0.93871 0.0
C1014 C 0.73493 0.95003 0.97731 0.0
C1015 C 0.74771 0.92891 0.99249 0.0
C1016 C 0.75447 0.90273 0.97962 0.0
C1017 C 0.76664 0.88299 0.99403 0.0
C1018 C 0.77192 0.88908 0.0214 0.0
C1019 C 0.76497 0.9149 0.03444 0.0
C1020 C 0.75283 0.93473 0.0201 0.0
C1021 C 0.61337 0.97127 0.9722 0.0
C1022 C 0.60665 0.98748 0.99621 0.0
C1023 C 0.64172 0.96747 0.96441 0.0
C1024 C 0.66378 0.97943 0.98067 0.0
C1025 C 0.65718 0.99515 0.0049 0.0
C1026 C 0.62884 0.99943 0.01247 0.0
C1027 C 0.69373 0.97555 0.97203 0.0
C1028 C 0.70795 0.9576 0.98676 0.0
C1029 C 0.70723 0.9874 0.94798 0.0
C1030 C 0.69346 0.00736 0.93223 0.0
C1031 C 0.68419 0.03265 0.9449 0.0
C1032 C 0.67099 0.05123 0.93004 0.0
C1033 C 0.6671 0.04486 0.90243 0.0
C1034 C 0.67647 0.01993 0.88961 0.0
C1035 C 0.68965 0.00126 0.90439 0.0
H1036 H 0.65689 0.05928 0.89095 0.0
H1037 H 0.78134 0.87376 0.03253 0.0
H1038 H 0.69431 0.11926 0.48249 0.0
H1039 H 0.73918 0.10239 0.49293 0.0
H1040 H 0.74023 0.05129 0.41721 0.0
H1041 H 0.69536 0.06802 0.40669 0.0
H1042 H 0.75463 0.02164 0.46018 0.0
H1043 H 0.78203 0.11336 0.42106 0.0
H1044 H 0.78099 0.16542 0.41599 0.0
H1045 H 0.8071 0.18373 0.4974 0.0
H1046 H 0.80789 0.1317 0.50311 0.0
H1047 H 0.90205 0.99902 0.45607 0.0
H1048 H 0.85548 0.01177 0.44566 0.0
H1049 H 0.85256 0.06611 0.51934 0.0
H1050 H 0.89908 0.05371 0.52984 0.0
H1051 H 0.8391 0.0935 0.47617 0.0
H1052 H 0.8116 0.00159 0.51533 0.0
H1053 H 0.81281 0.94953 0.52024 0.0
H1054 H 0.78721 0.93146 0.43863 0.0
H1055 H 0.78624 0.9835 0.43309 0.0
C1056 C 0.70409 0.10434 0.46815 0.0
C1057 C 0.69146 0.0951 0.44376 0.0
C1058 C 0.72971 0.09479 0.47408 0.0
C1059 C 0.74317 0.07581 0.45571 0.0
C1060 C 0.73021 0.06596 0.43163 0.0
C1061 C 0.70463 0.07564 0.42562 0.0
C1062 C 0.77107 0.0668 0.46141 0.0
C1063 C 0.77323 0.03729 0.46333 0.0
C1064 C 0.79515 0.08729 0.46597 0.0
C1065 C 0.79473 0.1186 0.46261 0.0
C1066 C 0.78731 0.12846 0.43797 0.0
C1067 C 0.78681 0.15797 0.43496 0.0
C1068 C 0.7939 0.17786 0.45639 0.0
C1069 C 0.80157 0.16829 0.48084 0.0
C1070 C 0.80207 0.13879 0.48397 0.0
C1071 C 0.89145 0.01357 0.47015 0.0
C1072 C 0.90437 0.02535 0.49379 0.0
C1073 C 0.86478 0.02075 0.46421 0.0
C1074 C 0.85049 0.03977 0.48181 0.0
C1075 C 0.86323 0.05141 0.50547 0.0
C1076 C 0.88981 0.0442 0.51147 0.0
C1077 C 0.82266 0.04833 0.47522 0.0
C1078 C 0.82053 0.0778 0.47304 0.0
C1079 C 0.79866 0.02779 0.47041 0.0
C1080 C 0.79915 0.99648 0.4737 0.0
C1081 C 0.80647 0.98655 0.49835 0.0
C1082 C 0.80706 0.95703 0.50126 0.0
C1083 C 0.80017 0.93721 0.47973 0.0
C1084 C 0.79259 0.94685 0.45527 0.0
C1085 C 0.79199 0.97635 0.45224 0.0
H1086 H 0.80064 0.91436 0.48203 0.0
H1087 H 0.79351 0.2007 0.45401 0.0
H1088 H 0.33125 0.57971 0.12371 0.0
H1089 H 0.28524 0.56891 0.10362 0.0
H1090 H 0.32808 0.57111 0.02315 0.0
H1091 H 0.37421 0.5833 0.04342 0.0
H1092 H 0.28579 0.5995 0.02329 0.0
H1093 H 0.29464 0.50627 0.05223 0.0
H1094 H 0.30352 0.46912 0.08306 0.0
H1095 H 0.2323 0.48962 0.13674 0.0
H1096 H 0.22323 0.52719 0.10644 0.0
H1097 H 0.14979 0.53175 0.97078 0.0
H1098 H 0.19956 0.538 0.98339 0.0
H1099 H 0.17414 0.58052 0.05962 0.0
H1100 H 0.12455 0.57513 0.04697 0.0
H1101 H 0.20859 0.52535 0.05663 0.0
H1102 H 0.20537 0.62322 0.02653 0.0
H1103 H 0.19695 0.6572 0.99235 0.0
H1104 H 0.25899 0.62206 0.93613 0.0
H1105 H 0.26744 0.58756 0.96989 0.0
C1106 C 0.33084 0.57733 0.10175 0.0
C1107 C 0.35618 0.58209 0.08506 0.0
C1108 C 0.30455 0.57107 0.09024 0.0
C1109 C 0.30313 0.56869 0.06181 0.0
C1110 C 0.32859 0.57278 0.04511 0.0
C1111 C 0.3549 0.57962 0.05665 0.0
C1112 C 0.27493 0.56388 0.04971 0.0
C1113 C 0.26916 0.58289 0.03029 0.0
C1114 C 0.25302 0.5423 0.05878 0.0
C1115 C 0.25839 0.51972 0.07713 0.0
C1116 C 0.281 0.50301 0.07071 0.0
C1117 C 0.28605 0.48185 0.08808 0.0
C1118 C 0.26852 0.47705 0.11187 0.0
C1119 C 0.24587 0.49337 0.11831 0.0
C1120 C 0.24074 0.51458 0.10102 0.0
C1121 C 0.15489 0.54279 0.99006 0.0
C1122 C 0.13331 0.55299 0.00789 0.0
C1123 C 0.18325 0.54631 0.99719 0.0
C1124 C 0.19028 0.55963 0.0224 0.0
C1125 C 0.16895 0.57022 0.04005 0.0
C1126 C 0.14072 0.56726 0.03272 0.0
C1127 C 0.21967 0.56134 0.03102 0.0
C1128 C 0.22553 0.54166 0.04961 0.0
C1129 C 0.24178 0.5818 0.02078 0.0
C1130 C 0.23673 0.60257 0.00057 0.0
C1131 C 0.21696 0.62251 0.00677 0.0
C1132 C 0.21225 0.64193 0.98751 0.0
C1133 C 0.22735 0.64172 0.96205 0.0
C1134 C 0.24726 0.62215 0.95584 0.0
C1135 C 0.25203 0.60268 0.97503 0.0
H1136 H 0.22368 0.65677 0.94716 0.0
H1137 H 0.27247 0.46065 0.12529 0.0
H1138 H 0.16843 0.40754 0.62651 0.0
H1139 H 0.21929 0.42246 0.61606 0.0
H1140 H 0.19851 0.48762 0.56478 0.0
H1141 H 0.14745 0.47228 0.57473 0.0
H1142 H 0.23507 0.45432 0.53854 0.0
H1143 H 0.23025 0.50732 0.62379 0.0
H1144 H 0.21781 0.51535 0.67283 0.0
H1145 H 0.27047 0.45132 0.69106 0.0
H1146 H 0.28306 0.44271 0.64205 0.0
H1147 H 0.38008 0.51264 0.51232 0.0
H1148 H 0.32946 0.5067 0.52748 0.0
H1149 H 0.34301 0.43725 0.57716 0.0
H1150 H 0.3939 0.44312 0.56225 0.0
H1151 H 0.31011 0.47634 0.60454 0.0
H1152 H 0.31243 0.42198 0.5185 0.0
H1153 H 0.32441 0.41447 0.46928 0.0
H1154 H 0.27562 0.48235 0.45265 0.0
H1155 H 0.26366 0.49053 0.50183 0.0
C1156 C 0.17473 0.42532 0.61331 0.0
C1157 C 0.15403 0.43865 0.60129 0.0
C1158 C 0.20379 0.43397 0.60751 0.0
C1159 C 0.2127 0.45621 0.5897 0.0
C1160 C 0.19206 0.47042 0.5786 0.0
C1161 C 0.16294 0.46181 0.58446 0.0
C1162 C 0.24339 0.46269 0.58084 0.0
C1163 C 0.25144 0.45973 0.55294 0.0
C1164 C 0.26475 0.469 0.59969 0.0
C1165 C 0.25741 0.4742 0.62921 0.0
C1166 C 0.23902 0.49479 0.63824 0.0
C1167 C 0.23196 0.49948 0.66603 0.0
C1168 C 0.24324 0.48377 0.68505 0.0
C1169 C 0.26172 0.46344 0.6763 0.0
C1170 C 0.26887 0.4587 0.64851 0.0
C1171 C 0.37235 0.49599 0.52639 0.0
C1172 C 0.39108 0.47828 0.536 0.0
C1173 C 0.34337 0.49263 0.535 0.0
C1174 C 0.33249 0.47146 0.55333 0.0
C1175 C 0.35104 0.45375 0.56302 0.0
C1176 C 0.38007 0.45702 0.55434 0.0
C1177 C 0.30168 0.46779 0.56231 0.0
C1178 C 0.29367 0.4712 0.59018 0.0
C1179 C 0.2803 0.46202 0.54344 0.0
C1180 C 0.28741 0.45707 0.51386 0.0
C1181 C 0.30446 0.43547 0.50436 0.0
C1182 C 0.3112 0.43106 0.47647 0.0
C1183 C 0.30086 0.44798 0.45785 0.0
C1184 C 0.28367 0.46929 0.46709 0.0
C1185 C 0.27688 0.47381 0.49497 0.0
H1186 H 0.3061 0.44452 0.43627 0.0
H1187 H 0.23772 0.48741 0.70656 0.0
H1188 H 0.94734 0.81716 0.87621 0.0
H1189 H 0.9634 0.77597 0.89652 0.0
H1190 H 0.95179 0.81701 0.97649 0.0
H1191 H 0.93506 0.85832 0.95623 0.0
H1192 H 0.00729 0.78855 0.96113 0.0
H1193 H 0.90461 0.77022 0.96797 0.0
H1194 H 0.85659 0.76759 0.9508 0.0
H1195 H 0.87871 0.70455 0.88853 0.0
H1196 H 0.92705 0.70715 0.90506 0.0
H1197 H 0.02233 0.65066 0.0161 0.0
H1198 H 0.00846 0.69846 0.0089 0.0
H1199 H 0.98687 0.66978 0.92741 0.0
H1200 H -2e-05 0.62223 0.93458 0.0
H1201 H 0.94516 0.69509 0.95241 0.0
H1202 H 0.04811 0.71639 0.94116 0.0
H1203 H 0.09742 0.71955 0.95537 0.0
H1204 H 0.07639 0.7767 0.02322 0.0
H1205 H 0.02682 0.77358 0.00958 0.0
C1206 C 0.94835 0.81749 0.89812 0.0
C1207 C 0.93977 0.84074 0.91467 0.0
C1208 C 0.95754 0.79401 0.90966 0.0
C1209 C 0.95867 0.79351 0.93795 0.0
C1210 C 0.95106 0.81712 0.95459 0.0
C1211 C 0.94141 0.84056 0.94303 0.0
C1212 C 0.96647 0.76739 0.94973 0.0
C1213 C 0.99354 0.76816 0.95987 0.0
C1214 C 0.94865 0.74086 0.94753 0.0
C1215 C 0.91953 0.73906 0.93763 0.0
C1216 C 0.89932 0.75598 0.95047 0.0
C1217 C 0.87203 0.75446 0.94088 0.0
C1218 C 0.86462 0.73596 0.91855 0.0
C1219 C 0.88448 0.71889 0.90581 0.0
C1220 C 0.91182 0.72035 0.9153 0.0
C1221 C 0.01489 0.6547 0.99658 0.0
C1222 C 0.01207 0.63257 0.97598 0.0
C1223 C 0.00701 0.68202 0.99248 0.0
C1224 C 0.99656 0.68771 0.96762 0.0
C1225 C 0.9946 0.66586 0.94685 0.0
C1226 C 0.00219 0.63865 0.95098 0.0
C1227 C 0.98649 0.71585 0.96312 0.0
C1228 C 0.95885 0.71547 0.9543 0.0
C1229 C 0.00394 0.74262 0.96633 0.0
C1230 C 0.03368 0.74445 0.97456 0.0
C1231 C 0.05394 0.72942 0.95925 0.0
C1232 C 0.08194 0.73125 0.96717 0.0
C1233 C 0.09001 0.74823 0.99024 0.0
C1234 C 0.0701 0.7635 0.00539 0.0
C1235 C 0.04205 0.76172 0.99757 0.0
H1236 H 0.1117 0.74963 0.99633 0.0
H1237 H 0.84348 0.7348 0.91117 0.0
H1238 H 0.44413 0.65197 0.05542 0.0
H1239 H 0.45902 0.70298 0.04618 0.0
H1240 H 0.4437 0.72651 0.13139 0.0
H1241 H 0.42937 0.67557 0.14079 0.0
H1242 H 0.41398 0.75552 0.0922 0.0
H1243 H 0.50739 0.73392 0.11102 0.0
H1244 H 0.54896 0.70651 0.10549 0.0
H1245 H 0.56141 0.72644 0.02119 0.0
H1246 H 0.51961 0.75362 0.02612 0.0
H1247 H 0.46087 0.90516 0.08806 0.0
H1248 H 0.45325 0.85456 0.09978 0.0
H1249 H 0.48944 0.82943 0.02034 0.0
H1250 H 0.49781 0.88002 0.00869 0.0
H1251 H 0.50939 0.80082 0.05753 0.0
H1252 H 0.4168 0.82 0.03625 0.0
H1253 H 0.3742 0.84588 0.03886 0.0
H1254 H 0.35848 0.82866 0.1236 0.0
H1255 H 0.40125 0.803 0.12159 0.0
C1256 C 0.44456 0.66803 0.07219 0.0
C1257 C 0.4358 0.65997 0.09881 0.0
C1258 C 0.45303 0.69703 0.06693 0.0
C1259 C 0.45239 0.71835 0.08814 0.0
C1260 C 0.44437 0.71027 0.11482 0.0
C1261 C 0.43641 0.68124 0.12017 0.0
C1262 C 0.45795 0.74922 0.08213 0.0
C1263 C 0.43492 0.76564 0.08504 0.0
C1264 C 0.48505 0.76189 0.0719 0.0
C1265 C 0.51017 0.74554 0.06887 0.0
C1266 C 0.5188 0.73221 0.09123 0.0
C1267 C 0.54245 0.71677 0.08822 0.0
C1268 C 0.55776 0.71466 0.06298 0.0
C1269 C 0.5495 0.72805 0.04072 0.0
C1270 C 0.52584 0.7435 0.04361 0.0
C1271 C 0.46712 0.88888 0.07303 0.0
C1272 C 0.47986 0.89664 0.0474 0.0
C1273 C 0.46269 0.85994 0.07974 0.0
C1274 C 0.47049 0.83816 0.06082 0.0
C1275 C 0.48329 0.84587 0.03527 0.0
C1276 C 0.48795 0.8748 0.02862 0.0
C1277 C 0.46538 0.80736 0.06768 0.0
C1278 C 0.48844 0.79086 0.06481 0.0
C1279 C 0.43814 0.79442 0.07753 0.0
C1280 C 0.41241 0.80985 0.07884 0.0
C1281 C 0.4044 0.82194 0.0555 0.0
C1282 C 0.3802 0.83653 0.05686 0.0
C1283 C 0.36369 0.83899 0.0814 0.0
C1284 C 0.37132 0.82678 0.10462 0.0
C1285 C 0.39553 0.81219 0.10338 0.0
H1286 H 0.34495 0.85028 0.08241 0.0
H1287 H 0.57608 0.70271 0.0607 0.0
H1288 H 0.04294 0.35455 0.57377 0.0
H1289 H 0.03269 0.30232 0.5652 0.0
H1290 H 0.10664 0.28925 0.60696 0.0
H1291 H 0.11614 0.34116 0.6173 0.0
H1292 H 0.09687 0.26249 0.54673 0.0
H1293 H 0.05781 0.2699 0.64098 0.0
H1294 H 0.0271 0.29031 0.67789 0.0
H1295 H 0.95309 0.26343 0.63293 0.0
H1296 H 0.98348 0.24326 0.59554 0.0
H1297 H 0.07881 0.10927 0.54471 0.0
H1298 H 0.08982 0.16071 0.55734 0.0
H1299 H 0.00067 0.17177 0.55478 0.0
H1300 H 0.98944 0.12031 0.54355 0.0
H1301 H 0.01923 0.20049 0.59615 0.0
H1302 H 0.05396 0.19328 0.5027 0.0
H1303 H 0.08177 0.1749 0.46256 0.0
H1304 H 0.15991 0.20332 0.50069 0.0
H1305 H 0.13253 0.22154 0.54123 0.0
C1306 C 0.05672 0.34064 0.5817 0.0
C1307 C 0.08048 0.35224 0.59615 0.0
C1308 C 0.05095 0.31083 0.57653 0.0
C1309 C 0.06904 0.29219 0.58537 0.0
C1310 C 0.09261 0.30347 0.59986 0.0
C1311 C 0.09807 0.33318 0.60555 0.0
C1312 C 0.06359 0.26086 0.57901 0.0
C1313 C 0.0802 0.24871 0.5577 0.0
C1314 C 0.04122 0.24341 0.59284 0.0
C1315 C 0.02296 0.25541 0.61534 0.0
C1316 C 0.03504 0.26864 0.63883 0.0
C1317 C 0.01768 0.28009 0.65987 0.0
C1318 C 0.98817 0.27826 0.65772 0.0
C1319 C 0.97596 0.26489 0.63455 0.0
C1320 C 0.99323 0.25343 0.61344 0.0
C1321 C 0.06162 0.12274 0.54685 0.0
C1322 C 0.03329 0.11081 0.54316 0.0
C1323 C 0.06793 0.15215 0.55393 0.0
C1324 C 0.04613 0.17027 0.55664 0.0
C1325 C 0.01785 0.15828 0.55291 0.0
C1326 C 0.01147 0.12885 0.54643 0.0
C1327 C 0.05254 0.20165 0.56365 0.0
C1328 C 0.03606 0.21399 0.5851 0.0
C1329 C 0.07464 0.21941 0.54947 0.0
C1330 C 0.09118 0.20848 0.52512 0.0
C1331 C 0.07706 0.19541 0.50261 0.0
C1332 C 0.09275 0.18505 0.47977 0.0
C1333 C 0.12258 0.18786 0.47911 0.0
C1334 C 0.1368 0.20111 0.50125 0.0
C1335 C 0.12121 0.21147 0.52416 0.0
H1336 H 0.13469 0.17984 0.4614 0.0
H1337 H 0.97476 0.28713 0.67403 0.0
H1338 H 0.62958 0.2005 0.41839 0.0
H1339 H 0.61143 0.24501 0.43657 0.0
H1340 H 0.52489 0.20268 0.43461 0.0
H1341 H 0.54311 0.15849 0.41527 0.0
H1342 H 0.52614 0.25246 0.41604 0.0
H1343 H 0.55999 0.22015 0.4959 0.0
H1344 H 0.59388 0.20206 0.52453 0.0
H1345 H 0.65208 0.27945 0.51361 0.0
H1346 H 0.61872 0.29784 0.48458 0.0
H1347 H 0.4753 0.37331 0.49823 0.0
H1348 H 0.48731 0.32427 0.48588 0.0
H1349 H 0.5712 0.3598 0.45468 0.0
H1350 H 0.55924 0.40863 0.46617 0.0
H1351 H 0.56674 0.31149 0.49404 0.0
H1352 H 0.53198 0.34001 0.41002 0.0
H1353 H 0.49579 0.35705 0.38333 0.0
H1354 H 0.43565 0.28432 0.40618 0.0
H1355 H 0.4714 0.26708 0.43336 0.0
C1356 C 0.60671 0.20067 0.42218 0.0
C1357 C 0.58772 0.17612 0.41557 0.0
C1358 C 0.59632 0.22606 0.43267 0.0
C1359 C 0.56673 0.22717 0.43744 0.0
C1360 C 0.54777 0.20244 0.43115 0.0
C1361 C 0.55816 0.1772 0.42018 0.0
C1362 C 0.55564 0.25453 0.44772 0.0
C1363 C 0.53469 0.265 0.43344 0.0
C1364 C 0.5668 0.27119 0.47033 0.0
C1365 C 0.58692 0.26028 0.48788 0.0
C1366 C 0.5801 0.23323 0.49944 0.0
C1367 C 0.59921 0.22293 0.51577 0.0
C1368 C 0.62514 0.23957 0.52084 0.0
C1369 C 0.63199 0.26658 0.50965 0.0
C1370 C 0.61297 0.27697 0.49328 0.0
C1371 C 0.49624 0.37062 0.48864 0.0
C1372 C 0.51628 0.39481 0.48305 0.0
C1373 C 0.50304 0.34267 0.48163 0.0
C1374 C 0.53014 0.33856 0.46947 0.0
C1375 C 0.55021 0.36261 0.46412 0.0
C1376 C 0.54325 0.39048 0.47055 0.0
C1377 C 0.53781 0.30924 0.46209 0.0
C1378 C 0.55805 0.29854 0.47692 0.0
C1379 C 0.52565 0.29214 0.44036 0.0
C1380 C 0.50422 0.30248 0.42401 0.0
C1381 C 0.51094 0.32783 0.4096 0.0
C1382 C 0.49054 0.33748 0.39432 0.0
C1383 C 0.4634 0.32184 0.39314 0.0
C1384 C 0.45665 0.29645 0.40717 0.0
C1385 C 0.47698 0.28673 0.4225 0.0
H1386 H 0.44764 0.32933 0.38129 0.0
H1387 H 0.6399 0.23156 0.53348 0.0
loop_
_geom_bond_atom_site_label_1
_geom_bond_atom_site_label_2
_geom_bond_distance
_geom_bond_site_symmetry_2
_ccdc_geom_bond_type
H0 C5 0.930 . S
H1 C8 0.930 . S
H2 C10 0.930 . S
H3 C4 1.016 . S
C4 H3 1.016 . S
C4 N11 1.286 . S
C5 H0 0.930 . S
C5 C6 1.397 . S
C5 C7 1.361 . S
C6 C5 1.397 . S
C6 C10 1.390 . S
C7 C5 1.361 . S
C7 C8 1.393 . S
C7 N11 1.413 . S
C8 H1 0.930 . S
C8 C7 1.393 . S
C8 C9 1.399 . S
C9 C8 1.399 . S
C9 C10 1.381 . S
C10 H2 0.930 . S
C10 C6 1.390 . S
C10 C9 1.381 . S
N11 C4 1.286 . S
N11 C7 1.413 . S
H12 C17 0.930 . S
H13 C20 0.930 . S
H14 C22 0.930 . S
H15 C16 1.016 . S
C16 H15 1.016 . S
C16 N23 1.286 . S
C17 H12 0.930 . S
C17 C18 1.397 . S
C17 C19 1.361 . S
C18 C17 1.397 . S
C18 C22 1.390 . S
C19 C17 1.361 . S
C19 C20 1.393 . S
C19 N23 1.413 . S
C20 H13 0.930 . S
C20 C19 1.393 . S
C20 C21 1.399 . S
C21 C20 1.399 . S
C21 C22 1.381 . S
C22 H14 0.930 . S
C22 C18 1.390 . S
C22 C21 1.381 . S
N23 C16 1.286 . S
N23 C19 1.413 . S
H24 C29 0.930 . S
H25 C32 0.930 . S
H26 C34 0.930 . S
H27 C28 1.016 . S
C28 H27 1.016 . S
C28 N35 1.286 . S
C29 H24 0.930 . S
C29 C30 1.397 . S
C29 C31 1.361 . S
C30 C29 1.397 . S
C30 C34 1.390 . S
C31 C29 1.361 . S
C31 C32 1.393 . S
C31 N35 1.413 . S
C32 H25 0.930 . S
C32 C31 1.393 . S
C32 C33 1.399 . S
C33 C32 1.399 . S
C33 C34 1.381 . S
C34 H26 0.930 . S
C34 C30 1.390 . S
C34 C33 1.381 . S
N35 C28 1.286 . S
N35 C31 1.413 . S
H36 C41 0.930 . S
H37 C44 0.930 . S
H38 C46 0.930 . S
H39 C40 1.016 . S
C40 H39 1.016 . S
C40 N47 1.286 . S
C41 H36 0.930 . S
C41 C42 1.397 . S
C41 C43 1.361 . S
C42 C41 1.397 . S
C42 C46 1.390 . S
C43 C41 1.361 . S
C43 C44 1.393 . S
C43 N47 1.413 . S
C44 H37 0.930 . S
C44 C43 1.393 . S
C44 C45 1.399 . S
C45 C44 1.399 . S
C45 C46 1.381 . S
C46 H38 0.930 . S
C46 C42 1.390 . S
C46 C45 1.381 . S
N47 C40 1.286 . S
N47 C43 1.413 . S
H48 C53 0.930 . S
H49 C56 0.930 . S
H50 C58 0.930 . S
H51 C52 1.016 . S
C52 H51 1.016 . S
C52 N59 1.286 . S
C53 H48 0.930 . S
C53 C54 1.397 . S
C53 C55 1.361 . S
C54 C53 1.397 . S
C54 C58 1.390 . S
C55 C53 1.361 . S
C55 C56 1.393 . S
C55 N59 1.413 . S
C56 H49 0.930 . S
C56 C55 1.393 . S
C56 C57 1.399 . S
C57 C56 1.399 . S
C57 C58 1.381 . S
C58 H50 0.930 . S
C58 C54 1.390 . S
C58 C57 1.381 . S
N59 C52 1.286 . S
N59 C55 1.413 . S
H60 C65 0.930 . S
H61 C68 0.930 . S
H62 C70 0.930 . S
H63 C64 1.016 . S
C64 H63 1.016 . S
C64 N71 1.286 . S
C65 H60 0.930 . S
C65 C66 1.397 . S
C65 C67 1.361 . S
C66 C65 1.397 . S
C66 C70 1.390 . S
C67 C65 1.361 . S
C67 C68 1.393 . S
C67 N71 1.413 . S
C68 H61 0.930 . S
C68 C67 1.393 . S
C68 C69 1.399 . S
C69 C68 1.399 . S
C69 C70 1.381 . S
C70 H62 0.930 . S
C70 C66 1.390 . S
C70 C69 1.381 . S
N71 C64 1.286 . S
N71 C67 1.413 . S
H72 C77 0.930 . S
H73 C80 0.930 . S
H74 C82 0.930 . S
H75 C76 1.016 . S
C76 H75 1.016 . S
C76 N83 1.286 . S
C77 H72 0.930 . S
C77 C78 1.397 . S
C77 C79 1.361 . S
C78 C77 1.397 . S
C78 C82 1.390 . S
C79 C77 1.361 . S
C79 C80 1.393 . S
C79 N83 1.413 . S
C80 H73 0.930 . S
C80 C79 1.393 . S
C80 C81 1.399 . S
C81 C80 1.399 . S
C81 C82 1.381 . S
C82 H74 0.930 . S
C82 C78 1.390 . S
C82 C81 1.381 . S
N83 C76 1.286 . S
N83 C79 1.413 . S
H84 C89 0.930 . S
H85 C92 0.930 . S
H86 C94 0.930 . S
H87 C88 1.016 . S
C88 H87 1.016 . S
C88 N95 1.286 . S
C89 H84 0.930 . S
C89 C90 1.397 . S
C89 C91 1.361 . S
C90 C89 1.397 . S
C90 C94 1.390 . S
C91 C89 1.361 . S
C91 C92 1.393 . S
C91 N95 1.413 . S
C92 H85 0.930 . S
C92 C91 1.393 . S
C92 C93 1.399 . S
C93 C92 1.399 . S
C93 C94 1.381 . S
C94 H86 0.930 . S
C94 C90 1.390 . S
C94 C93 1.381 . S
N95 C88 1.286 . S
N95 C91 1.413 . S
O96 Zn97 1.953 1_455 S
O96 C112 1.224 . S
Zn97 O96 1.953 1_655 S
Zn97 O98 1.949 1_655 S
Zn97 O104 1.919 . S
Zn97 O109 1.924 . S
O98 Zn97 1.949 1_455 S
O98 Zn99 1.923 1_445 S
O98 Zn100 1.950 . S
O98 Zn101 1.945 1_545 S
Zn99 O98 1.923 1_665 S
Zn99 O102 1.933 . S
Zn99 O105 1.941 1_565 S
Zn99 O106 1.965 1_665 S
Zn100 O98 1.950 . S
Zn100 O107 1.938 . S
Zn100 O108 1.890 1_545 S
Zn100 O118 1.953 . S
Zn101 O98 1.945 1_565 S
Zn101 O103 1.932 1_455 S
Zn101 O110 1.977 . S
Zn101 O111 1.910 1_455 S
O102 Zn99 1.933 . S
O102 C113 1.226 . S
O103 Zn101 1.932 1_655 S
O103 C113 1.307 . S
O104 Zn97 1.919 . S
O104 C115 1.253 . S
O105 Zn99 1.941 1_545 S
O105 C115 1.283 . S
O106 Zn99 1.965 1_445 S
O106 C114 1.303 . S
O107 Zn100 1.938 . S
O107 C114 1.247 . S
O108 Zn100 1.890 1_565 S
O108 C116 1.327 . S
O109 Zn97 1.924 . S
O109 C117 1.311 1_545 S
O110 Zn101 1.977 . S
O110 C116 1.272 . S
O111 Zn101 1.910 1_655 S
O111 C117 1.231 . S
C112 O96 1.224 . S
C112 O118 1.298 . S
C113 O102 1.226 . S
C113 O103 1.307 . S
C114 O106 1.303 . S
C114 O107 1.247 . S
C115 O104 1.253 . S
C115 O105 1.283 . S
C116 O108 1.327 . S
C116 O110 1.272 . S
C117 O109 1.311 1_565 S
C117 O111 1.231 . S
O118 Zn100 1.953 . S
O118 C112 1.298 . S
O119 Zn120 1.953 . S
O119 C135 1.225 . S
Zn120 O119 1.953 . S
Zn120 O121 1.949 1_556 S
Zn120 O127 1.919 . S
Zn120 O132 1.924 1_556 S
O121 Zn120 1.949 1_554 S
O121 Zn122 1.923 1_545 S
O121 Zn123 1.950 . S
O121 Zn124 1.951 . S
Zn122 O121 1.923 1_565 S
Zn122 O125 1.933 . S
Zn122 O128 1.941 1_554 S
Zn122 O129 1.965 1_554 S
Zn123 O121 1.950 . S
Zn123 O130 1.938 . S
Zn123 O131 1.906 . S
Zn123 O141 1.953 . S
Zn124 O121 1.951 . S
Zn124 O126 1.901 1_545 S
Zn124 O133 1.984 . S
Zn124 O134 1.929 . S
O125 Zn122 1.933 . S
O125 C136 1.226 . S
O126 Zn124 1.901 1_565 S
O126 C136 1.307 . S
O127 Zn120 1.919 . S
O127 C138 1.253 1_545 S
O128 Zn122 1.941 1_556 S
O128 C138 1.283 . S
O129 Zn122 1.965 1_556 S
O129 C137 1.304 1_565 S
O130 Zn123 1.938 . S
O130 C137 1.243 1_554 S
O131 Zn123 1.906 . S
O131 C139 1.304 . S
O132 Zn120 1.924 1_554 S
O132 C140 1.311 . S
O133 Zn124 1.984 . S
O133 C139 1.272 . S
O134 Zn124 1.929 . S
O134 C140 1.231 . S
C135 O119 1.225 . S
C135 O141 1.298 1_556 S
C136 O125 1.226 . S
C136 O126 1.307 . S
C137 O129 1.304 1_545 S
C137 O130 1.243 1_556 S
C138 O127 1.253 1_565 S
C138 O128 1.283 . S
C139 O131 1.304 . S
C139 O133 1.272 . S
C140 O132 1.311 . S
C140 O134 1.231 . S
O141 Zn123 1.953 . S
O141 C135 1.298 1_554 S
O142 Zn143 1.953 . S
O142 C158 1.225 . S
Zn143 O142 1.953 . S
Zn143 O144 1.949 . S
Zn143 O150 1.919 . S
Zn143 O155 1.924 . S
O144 Zn143 1.949 . S
O144 Zn145 1.923 . S
O144 Zn146 1.950 . S
O144 Zn147 1.945 . S
Zn145 O144 1.923 . S
Zn145 O148 1.933 . S
Zn145 O151 1.941 . S
Zn145 O152 1.965 . S
Zn146 O144 1.950 . S
Zn146 O153 1.938 . S
Zn146 O154 1.906 . S
Zn146 O164 1.953 . S
Zn147 O144 1.945 . S
Zn147 O149 1.932 . S
Zn147 O156 1.977 . S
Zn147 O157 1.910 . S
O148 Zn145 1.933 . S
O148 C159 1.226 . S
O149 Zn147 1.932 . S
O149 C159 1.307 . S
O150 Zn143 1.919 . S
O150 C161 1.253 . S
O151 Zn145 1.941 . S
O151 C161 1.283 . S
O152 Zn145 1.965 . S
O152 C160 1.303 . S
O153 Zn146 1.938 . S
O153 C160 1.247 . S
O154 Zn146 1.906 . S
O154 C162 1.304 . S
O155 Zn143 1.924 . S
O155 C163 1.311 . S
O156 Zn147 1.977 . S
O156 C162 1.272 . S
O157 Zn147 1.910 . S
O157 C163 1.231 . S
C158 O142 1.225 . S
C158 O164 1.298 . S
C159 O148 1.226 . S
C159 O149 1.307 . S
C160 O152 1.303 . S
C160 O153 1.247 . S
C161 O150 1.253 . S
C161 O151 1.283 . S
C162 O154 1.304 . S
C162 O156 1.272 . S
C163 O155 1.311 . S
C163 O157 1.231 . S
O164 Zn146 1.953 . S
O164 C158 1.298 . S
O165 Zn166 1.953 . S
O165 C181 1.225 . S
Zn166 O165 1.953 . S
Zn166 O167 1.949 1_655 S
Zn166 O173 1.919 . S
Zn166 O178 1.924 1_655 S
O167 Zn166 1.949 1_455 S
O167 Zn168 1.923 1_554 S
O167 Zn169 1.950 . S
O167 Zn170 1.945 1_554 S
Zn168 O167 1.923 1_556 S
Zn168 O171 1.933 . S
Zn168 O174 1.941 1_455 S
Zn168 O175 1.965 . S
Zn169 O167 1.950 . S
Zn169 O176 1.938 . S
Zn169 O177 1.906 . S
Zn169 O187 1.953 . S
Zn170 O167 1.945 1_556 S
Zn170 O172 1.932 . S
Zn170 O179 1.977 1_556 S
Zn170 O180 1.910 1_556 S
O171 Zn168 1.933 . S
O171 C182 1.226 . S
O172 Zn170 1.932 . S
O172 C182 1.307 . S
O173 Zn166 1.919 . S
O173 C184 1.253 1_554 S
O174 Zn168 1.941 1_655 S
O174 C184 1.283 . S
O175 Zn168 1.965 . S
O175 C183 1.303 . S
O176 Zn169 1.938 . S
O176 C183 1.247 1_554 S
O177 Zn169 1.906 . S
O177 C185 1.304 . S
O178 Zn166 1.924 1_455 S
O178 C186 1.311 . S
O179 Zn170 1.977 1_554 S
O179 C185 1.272 . S
O180 Zn170 1.910 1_554 S
O180 C186 1.231 . S
C181 O165 1.225 . S
C181 O187 1.298 1_655 S
C182 O171 1.226 . S
C182 O172 1.307 . S
C183 O175 1.303 . S
C183 O176 1.247 1_556 S
C184 O173 1.253 1_556 S
C184 O174 1.283 . S
C185 O177 1.304 . S
C185 O179 1.272 . S
C186 O178 1.311 . S
C186 O180 1.231 . S
O187 Zn169 1.953 . S
O187 C181 1.298 1_455 S
H188 C206 0.951 . S
H189 C208 0.951 . S
H190 C210 0.950 . S
H191 C211 0.950 . S
H192 C213 0.950 . S
H193 C216 0.950 . S
H194 C217 0.950 . S
H195 C219 0.927 1_655 S
H196 C220 0.950 . S
H197 C221 0.951 . S
H198 C223 0.951 . S
H199 C225 0.950 . S
H200 C226 0.950 . S
H201 C228 0.950 . S
H202 C231 0.950 . S
H203 C232 0.950 . S
H204 C234 0.950 . S
H205 C235 0.950 . S
C206 H188 0.951 . S
C206 C207 1.366 . S
C206 C208 1.388 . S
C207 C206 1.366 . S
C207 C211 1.385 . S
C208 H189 0.951 . S
C208 C206 1.388 . S
C208 C209 1.366 . S
C209 C208 1.366 . S
C209 C210 1.414 . S
C209 C212 1.499 . S
C210 H190 0.950 . S
C210 C209 1.414 . S
C210 C211 1.374 . S
C211 H191 0.950 . S
C211 C207 1.385 . S
C211 C210 1.374 . S
C212 C209 1.499 . S
C212 C213 1.373 . S
C212 C214 1.389 . S
C213 H192 0.950 . S
C213 C212 1.373 . S
C213 C229 1.377 . S
C214 C212 1.389 . S
C214 C215 1.524 . S
C214 C228 1.377 . S
C215 C214 1.524 . S
C215 C216 1.397 . S
C215 C220 1.363 . S
C216 H193 0.950 . S
C216 C215 1.397 . S
C216 C217 1.334 . S
C217 H194 0.950 . S
C217 C216 1.334 . S
C217 C218 1.287 . S
C218 C217 1.287 . S
C218 C219 1.524 . S
C218 H237 0.913 . S
C219 H195 0.927 1_455 S
C219 C218 1.524 . S
C219 C220 1.415 . S
C220 H196 0.950 . S
C220 C215 1.363 . S
C220 C219 1.415 . S
C221 H197 0.951 . S
C221 C222 1.366 . S
C221 C223 1.388 . S
C222 C221 1.366 . S
C222 C226 1.385 . S
C223 H198 0.951 . S
C223 C221 1.388 . S
C223 C224 1.366 . S
C224 C223 1.366 . S
C224 C225 1.414 . S
C224 C227 1.499 . S
C225 H199 0.950 . S
C225 C224 1.414 . S
C225 C226 1.374 . S
C226 H200 0.950 . S
C226 C222 1.385 . S
C226 C225 1.374 . S
C227 C224 1.499 . S
C227 C228 1.373 . S
C227 C229 1.389 . S
C228 H201 0.950 . S
C228 C214 1.377 . S
C228 C227 1.373 . S
C229 C213 1.377 . S
C229 C227 1.389 . S
C229 C230 1.524 . S
C230 C229 1.524 . S
C230 C231 1.397 . S
C230 C235 1.363 . S
C231 H202 0.950 . S
C231 C230 1.397 . S
C231 C232 1.334 1_545 S
C232 H203 0.950 . S
C232 C231 1.334 1_565 S
C232 C233 1.287 . S
C233 C232 1.287 . S
C233 C234 1.524 1_565 S
C233 H236 0.999 . S
C234 H204 0.950 . S
C234 C233 1.524 1_545 S
C234 C235 1.415 . S
C235 H205 0.950 . S
C235 C230 1.363 . S
C235 C234 1.415 . S
H236 C233 0.999 . S
H237 C218 0.913 . S
H238 C256 0.951 . S
H239 C258 0.951 . S
H240 C260 0.950 . S
H241 C261 0.950 . S
H242 C263 0.950 . S
H243 C266 0.950 . S
H244 C267 0.950 . S
H245 C269 0.950 . S
H246 C270 0.950 . S
H247 C271 0.951 . S
H248 C273 0.951 . S
H249 C275 0.950 . S
H250 C276 0.950 1_545 S
H251 C278 0.950 . S
H252 C281 0.950 . S
H253 C282 0.950 . S
H254 C284 0.950 . S
H255 C285 0.950 . S
C256 H238 0.951 . S
C256 C257 1.366 . S
C256 C258 1.388 . S
C257 C256 1.366 . S
C257 C261 1.385 . S
C258 H239 0.951 . S
C258 C256 1.388 . S
C258 C259 1.366 . S
C259 C258 1.366 . S
C259 C260 1.414 . S
C259 C262 1.499 . S
C260 H240 0.950 . S
C260 C259 1.414 . S
C260 C261 1.374 . S
C261 H241 0.950 . S
C261 C257 1.385 . S
C261 C260 1.374 . S
C262 C259 1.499 . S
C262 C263 1.373 . S
C262 C264 1.389 . S
C263 H242 0.950 . S
C263 C262 1.373 . S
C263 C279 1.377 . S
C264 C262 1.389 . S
C264 C265 1.524 . S
C264 C278 1.377 . S
C265 C264 1.524 . S
C265 C266 1.397 . S
C265 C270 1.363 . S
C266 H243 0.950 . S
C266 C265 1.397 . S
C266 C267 1.334 . S
C267 H244 0.950 . S
C267 C266 1.334 . S
C267 C268 1.287 . S
C268 C267 1.287 . S
C268 C269 1.524 . S
C268 H287 0.913 . S
C269 H245 0.950 . S
C269 C268 1.524 . S
C269 C270 1.415 . S
C270 H246 0.950 . S
C270 C265 1.363 . S
C270 C269 1.415 . S
C271 H247 0.951 . S
C271 C272 1.366 . S
C271 C273 1.388 . S
C272 C271 1.366 . S
C272 C276 1.385 . S
C273 H248 0.951 . S
C273 C271 1.388 . S
C273 C274 1.366 . S
C274 C273 1.366 . S
C274 C275 1.414 . S
C274 C277 1.499 . S
C275 H249 0.950 . S
C275 C274 1.414 . S
C275 C276 1.374 . S
C276 H250 0.950 1_565 S
C276 C272 1.385 . S
C276 C275 1.374 . S
C277 C274 1.499 . S
C277 C278 1.373 . S
C277 C279 1.389 . S
C278 H251 0.950 . S
C278 C264 1.377 . S
C278 C277 1.373 . S
C279 C263 1.377 . S
C279 C277 1.389 . S
C279 C280 1.524 . S
C280 C279 1.524 . S
C280 C281 1.397 . S
C280 C285 1.363 . S
C281 H252 0.950 . S
C281 C280 1.397 . S
C281 C282 1.334 . S
C282 H253 0.950 . S
C282 C281 1.334 . S
C282 C283 1.287 . S
C283 C282 1.287 . S
C283 C284 1.524 . S
C283 H286 0.999 . S
C284 H254 0.950 . S
C284 C283 1.524 . S
C284 C285 1.415 . S
C285 H255 0.950 . S
C285 C280 1.363 . S
C285 C284 1.415 . S
H286 C283 0.999 . S
H287 C268 0.913 . S
H288 C306 0.951 . S
H289 C308 0.951 . S
H290 C310 0.950 . S
H291 C311 0.950 . S
H292 C313 0.950 . S
H293 C316 0.950 . S
H294 C317 0.950 . S
H295 C319 0.950 . S
H296 C320 0.950 . S
H297 C321 0.951 . S
H298 C323 0.951 . S
H299 C325 0.950 . S
H300 C326 0.950 . S
H301 C328 0.950 . S
H302 C331 0.950 . S
H303 C332 0.950 . S
H304 C334 0.950 . S
H305 C335 0.950 . S
C306 H288 0.951 . S
C306 C307 1.366 . S
C306 C308 1.388 . S
C307 C306 1.366 . S
C307 C311 1.385 . S
C308 H289 0.951 . S
C308 C306 1.388 . S
C308 C309 1.366 . S
C309 C308 1.366 . S
C309 C310 1.414 . S
C309 C312 1.499 . S
C310 H290 0.950 . S
C310 C309 1.414 . S
C310 C311 1.374 . S
C311 H291 0.950 . S
C311 C307 1.385 . S
C311 C310 1.374 . S
C312 C309 1.499 . S
C312 C313 1.373 . S
C312 C314 1.389 . S
C313 H292 0.950 . S
C313 C312 1.373 . S
C313 C329 1.377 . S
C314 C312 1.389 . S
C314 C315 1.524 . S
C314 C328 1.377 . S
C315 C314 1.524 . S
C315 C316 1.397 . S
C315 C320 1.363 . S
C316 H293 0.950 . S
C316 C315 1.397 . S
C316 C317 1.334 . S
C317 H294 0.950 . S
C317 C316 1.334 . S
C317 C318 1.287 . S
C318 C317 1.287 . S
C318 C319 1.524 . S
C318 H337 0.913 . S
C319 H295 0.950 . S
C319 C318 1.524 . S
C319 C320 1.415 . S
C320 H296 0.950 . S
C320 C315 1.363 . S
C320 C319 1.415 . S
C321 H297 0.951 . S
C321 C322 1.366 . S
C321 C323 1.388 . S
C322 C321 1.366 . S
C322 C326 1.385 . S
C323 H298 0.951 . S
C323 C321 1.388 . S
C323 C324 1.366 . S
C324 C323 1.366 . S
C324 C325 1.414 . S
C324 C327 1.499 . S
C325 H299 0.950 . S
C325 C324 1.414 . S
C325 C326 1.374 . S
C326 H300 0.950 . S
C326 C322 1.385 . S
C326 C325 1.374 . S
C327 C324 1.499 . S
C327 C328 1.373 . S
C327 C329 1.389 . S
C328 H301 0.950 . S
C328 C314 1.377 . S
C328 C327 1.373 . S
C329 C313 1.377 . S
C329 C327 1.389 . S
C329 C330 1.524 . S
C330 C329 1.524 . S
C330 C331 1.397 . S
C330 C335 1.363 . S
C331 H302 0.950 . S
C331 C330 1.397 . S
C331 C332 1.334 . S
C332 H303 0.950 . S
C332 C331 1.334 . S
C332 C333 1.287 . S
C333 C332 1.287 . S
C333 C334 1.524 . S
C333 H336 0.999 . S
C334 H304 0.950 . S
C334 C333 1.524 . S
C334 C335 1.415 . S
C335 H305 0.950 . S
C335 C330 1.363 . S
C335 C334 1.415 . S
H336 C333 0.999 . S
H337 C318 0.913 . S
H338 C356 0.951 . S
H339 C358 0.951 . S
H340 C360 0.950 . S
H341 C361 0.950 . S
H342 C363 0.950 . S
H343 C366 0.950 . S
H344 C367 0.950 . S
H345 C369 0.950 . S
H346 C370 0.954 . S
H347 C371 0.951 . S
H348 C373 0.951 . S
H349 C375 0.950 . S
H350 C376 0.950 . S
H351 C378 0.950 . S
H352 C381 0.950 . S
H353 C382 0.950 . S
H354 C384 0.950 . S
H355 C385 0.950 . S
C356 H338 0.951 . S
C356 C357 1.366 . S
C356 C358 1.388 . S
C357 C356 1.366 . S
C357 C361 1.385 . S
C358 H339 0.951 . S
C358 C356 1.388 . S
C358 C359 1.366 . S
C359 C358 1.366 . S
C359 C360 1.414 . S
C359 C362 1.499 . S
C360 H340 0.950 . S
C360 C359 1.414 . S
C360 C361 1.374 . S
C361 H341 0.950 . S
C361 C357 1.385 . S
C361 C360 1.374 . S
C362 C359 1.499 . S
C362 C363 1.373 . S
C362 C364 1.389 . S
C363 H342 0.950 . S
C363 C362 1.373 . S
C363 C379 1.377 . S
C364 C362 1.389 . S
C364 C365 1.524 . S
C364 C378 1.377 . S
C365 C364 1.524 . S
C365 C366 1.397 . S
C365 C370 1.358 1_655 S
C366 H343 0.950 . S
C366 C365 1.397 . S
C366 C367 1.334 . S
C367 H344 0.950 . S
C367 C366 1.334 . S
C367 C368 1.287 . S
C368 C367 1.287 . S
C368 C369 1.524 1_655 S
C368 H387 0.913 . S
C369 H345 0.950 . S
C369 C368 1.524 1_455 S
C369 C370 1.416 . S
C370 H346 0.954 . S
C370 C365 1.358 1_455 S
C370 C369 1.416 . S
C371 H347 0.951 . S
C371 C372 1.366 . S
C371 C373 1.388 . S
C372 C371 1.366 . S
C372 C376 1.385 1_655 S
C373 H348 0.951 . S
C373 C371 1.388 . S
C373 C374 1.366 . S
C374 C373 1.366 . S
C374 C375 1.414 1_655 S
C374 C377 1.499 . S
C375 H349 0.950 . S
C375 C374 1.414 1_455 S
C375 C376 1.374 . S
C376 H350 0.950 . S
C376 C372 1.385 1_455 S
C376 C375 1.374 . S
C377 C374 1.499 . S
C377 C378 1.373 . S
C377 C379 1.389 . S
C378 H351 0.950 . S
C378 C364 1.377 . S
C378 C377 1.373 . S
C379 C363 1.377 . S
C379 C377 1.389 . S
C379 C380 1.524 . S
C380 C379 1.524 . S
C380 C381 1.397 . S
C380 C385 1.363 . S
C381 H352 0.950 . S
C381 C380 1.397 . S
C381 C382 1.334 . S
C382 H353 0.950 . S
C382 C381 1.334 . S
C382 C383 1.287 . S
C383 C382 1.287 . S
C383 C384 1.524 . S
C383 H386 0.999 . S
C384 H354 0.950 . S
C384 C383 1.524 . S
C384 C385 1.415 . S
C385 H355 0.950 . S
C385 C380 1.363 . S
C385 C384 1.415 . S
H386 C383 0.999 . S
H387 C368 0.913 . S
H388 C406 0.951 . S
H389 C408 0.951 . S
H390 C410 0.950 . S
H391 C411 0.950 . S
H392 C413 0.950 . S
H393 C416 0.950 . S
H394 C417 0.950 . S
H395 C419 0.950 . S
H396 C420 0.950 . S
H397 C421 0.951 . S
H398 C423 0.951 . S
H399 C425 0.950 . S
H400 C426 0.950 . S
H401 C428 0.950 . S
H402 C431 0.950 . S
H403 C432 0.950 . S
H404 C434 0.950 . S
H405 C435 0.950 . S
C406 H388 0.951 . S
C406 C407 1.366 . S
C406 C408 1.388 . S
C407 C406 1.366 . S
C407 C411 1.385 . S
C408 H389 0.951 . S
C408 C406 1.388 . S
C408 C409 1.366 . S
C409 C408 1.366 . S
C409 C410 1.414 . S
C409 C412 1.499 . S
C410 H390 0.950 . S
C410 C409 1.414 . S
C410 C411 1.374 . S
C411 H391 0.950 . S
C411 C407 1.385 . S
C411 C410 1.374 . S
C412 C409 1.499 . S
C412 C413 1.373 . S
C412 C414 1.389 . S
C413 H392 0.950 . S
C413 C412 1.373 . S
C413 C429 1.377 . S
C414 C412 1.389 . S
C414 C415 1.524 . S
C414 C428 1.377 . S
C415 C414 1.524 . S
C415 C416 1.397 . S
C415 C420 1.363 . S
C416 H393 0.950 . S
C416 C415 1.397 . S
C416 C417 1.334 . S
C417 H394 0.950 . S
C417 C416 1.334 . S
C417 C418 1.287 . S
C418 C417 1.287 . S
C418 C419 1.524 . S
C418 H437 0.913 . S
C419 H395 0.950 . S
C419 C418 1.524 . S
C419 C420 1.415 . S
C420 H396 0.950 . S
C420 C415 1.363 . S
C420 C419 1.415 . S
C421 H397 0.951 . S
C421 C422 1.366 . S
C421 C423 1.388 . S
C422 C421 1.366 . S
C422 C426 1.385 . S
C423 H398 0.951 . S
C423 C421 1.388 . S
C423 C424 1.366 . S
C424 C423 1.366 . S
C424 C425 1.414 . S
C424 C427 1.499 . S
C425 H399 0.950 . S
C425 C424 1.414 . S
C425 C426 1.374 . S
C426 H400 0.950 . S
C426 C422 1.385 . S
C426 C425 1.374 . S
C427 C424 1.499 . S
C427 C428 1.373 . S
C427 C429 1.389 . S
C428 H401 0.950 . S
C428 C414 1.377 . S
C428 C427 1.373 . S
C429 C413 1.377 . S
C429 C427 1.389 . S
C429 C430 1.524 . S
C430 C429 1.524 . S
C430 C431 1.397 . S
C430 C435 1.363 . S
C431 H402 0.950 . S
C431 C430 1.397 . S
C431 C432 1.334 1_545 S
C432 H403 0.950 . S
C432 C431 1.334 1_565 S
C432 C433 1.287 . S
C433 C432 1.287 . S
C433 C434 1.524 . S
C433 H436 0.999 . S
C434 H404 0.950 . S
C434 C433 1.524 . S
C434 C435 1.415 1_565 S
C435 H405 0.950 . S
C435 C430 1.363 . S
C435 C434 1.415 1_545 S
H436 C433 0.999 . S
H437 C418 0.913 . S
H438 C456 0.951 . S
H439 C458 0.951 . S
H440 C460 0.950 . S
H441 C461 0.950 . S
H442 C463 0.950 . S
H443 C466 0.950 . S
H444 C467 0.950 1_545 S
H445 C469 0.950 . S
H446 C470 0.950 . S
H447 C471 0.951 . S
H448 C473 0.951 . S
H449 C475 0.950 . S
H450 C476 0.950 . S
H451 C478 0.950 . S
H452 C481 0.950 . S
H453 C482 0.950 . S
H454 C484 0.950 . S
H455 C485 0.950 . S
C456 H438 0.951 . S
C456 C457 1.366 . S
C456 C458 1.388 . S
C457 C456 1.366 . S
C457 C461 1.385 . S
C458 H439 0.951 . S
C458 C456 1.388 . S
C458 C459 1.366 . S
C459 C458 1.366 . S
C459 C460 1.414 . S
C459 C462 1.499 . S
C460 H440 0.950 . S
C460 C459 1.414 . S
C460 C461 1.374 . S
C461 H441 0.950 . S
C461 C457 1.385 . S
C461 C460 1.374 . S
C462 C459 1.499 . S
C462 C463 1.373 . S
C462 C464 1.389 . S
C463 H442 0.950 . S
C463 C462 1.373 . S
C463 C479 1.377 . S
C464 C462 1.389 . S
C464 C465 1.524 . S
C464 C478 1.377 . S
C465 C464 1.524 . S
C465 C466 1.397 . S
C465 C470 1.363 . S
C466 H443 0.950 . S
C466 C465 1.397 . S
C466 C467 1.334 . S
C467 H444 0.950 1_565 S
C467 C466 1.334 . S
C467 C468 1.287 1_565 S
C468 C467 1.287 1_545 S
C468 C469 1.524 . S
C468 H487 0.913 . S
C469 H445 0.950 . S
C469 C468 1.524 . S
C469 C470 1.415 1_545 S
C470 H446 0.950 . S
C470 C465 1.363 . S
C470 C469 1.415 1_565 S
C471 H447 0.951 . S
C471 C472 1.366 . S
C471 C473 1.388 . S
C472 C471 1.366 . S
C472 C476 1.385 . S
C473 H448 0.951 . S
C473 C471 1.388 . S
C473 C474 1.366 . S
C474 C473 1.366 . S
C474 C475 1.414 . S
C474 C477 1.499 . S
C475 H449 0.950 . S
C475 C474 1.414 . S
C475 C476 1.374 . S
C476 H450 0.950 . S
C476 C472 1.385 . S
C476 C475 1.374 . S
C477 C474 1.499 . S
C477 C478 1.373 . S
C477 C479 1.389 . S
C478 H451 0.950 . S
C478 C464 1.377 . S
C478 C477 1.373 . S
C479 C463 1.377 . S
C479 C477 1.389 . S
C479 C480 1.524 . S
C480 C479 1.524 . S
C480 C481 1.397 . S
C480 C485 1.363 . S
C481 H452 0.950 . S
C481 C480 1.397 . S
C481 C482 1.334 . S
C482 H453 0.950 . S
C482 C481 1.334 . S
C482 C483 1.287 . S
C483 C482 1.287 . S
C483 C484 1.524 . S
C483 H486 0.999 . S
C484 H454 0.950 . S
C484 C483 1.524 . S
C484 C485 1.415 . S
C485 H455 0.950 . S
C485 C480 1.363 . S
C485 C484 1.415 . S
H486 C483 0.999 . S
H487 C468 0.913 . S
H488 C506 0.951 . S
H489 C508 0.951 . S
H490 C510 0.950 . S
H491 C511 0.950 . S
H492 C513 0.950 . S
H493 C516 0.950 . S
H494 C517 0.950 . S
H495 C519 0.950 . S
H496 C520 0.950 1_556 S
H497 C521 0.951 . S
H498 C523 0.951 . S
H499 C525 0.950 . S
H500 C526 0.950 . S
H501 C528 0.950 . S
H502 C531 0.950 . S
H503 C532 0.950 . S
H504 C534 0.950 . S
H505 C535 0.950 . S
C506 H488 0.951 . S
C506 C507 1.366 . S
C506 C508 1.388 . S
C507 C506 1.366 . S
C507 C511 1.385 . S
C508 H489 0.951 . S
C508 C506 1.388 . S
C508 C509 1.366 . S
C509 C508 1.366 . S
C509 C510 1.414 . S
C509 C512 1.499 . S
C510 H490 0.950 . S
C510 C509 1.414 . S
C510 C511 1.374 . S
C511 H491 0.950 . S
C511 C507 1.385 . S
C511 C510 1.374 . S
C512 C509 1.499 . S
C512 C513 1.373 . S
C512 C514 1.389 . S
C513 H492 0.950 . S
C513 C512 1.373 . S
C513 C529 1.377 . S
C514 C512 1.389 . S
C514 C515 1.524 . S
C514 C528 1.377 . S
C515 C514 1.524 . S
C515 C516 1.397 . S
C515 C520 1.363 1_556 S
C516 H493 0.950 . S
C516 C515 1.397 . S
C516 C517 1.334 1_556 S
C517 H494 0.950 . S
C517 C516 1.334 1_554 S
C517 C518 1.287 . S
C518 C517 1.287 . S
C518 C519 1.524 . S
C518 H537 0.913 . S
C519 H495 0.950 . S
C519 C518 1.524 . S
C519 C520 1.415 . S
C520 H496 0.950 1_554 S
C520 C515 1.363 1_554 S
C520 C519 1.415 . S
C521 H497 0.951 . S
C521 C522 1.366 . S
C521 C523 1.388 . S
C522 C521 1.366 . S
C522 C526 1.385 . S
C523 H498 0.951 . S
C523 C521 1.388 . S
C523 C524 1.366 . S
C524 C523 1.366 . S
C524 C525 1.414 . S
C524 C527 1.499 . S
C525 H499 0.950 . S
C525 C524 1.414 . S
C525 C526 1.374 . S
C526 H500 0.950 . S
C526 C522 1.385 . S
C526 C525 1.374 . S
C527 C524 1.499 . S
C527 C528 1.373 . S
C527 C529 1.389 . S
C528 H501 0.950 . S
C528 C514 1.377 . S
C528 C527 1.373 . S
C529 C513 1.377 . S
C529 C527 1.389 . S
C529 C530 1.524 . S
C530 C529 1.524 . S
C530 C531 1.397 . S
C530 C535 1.363 . S
C531 H502 0.950 . S
C531 C530 1.397 . S
C531 C532 1.334 . S
C532 H503 0.950 . S
C532 C531 1.334 . S
C532 C533 1.287 . S
C533 C532 1.287 . S
C533 C534 1.524 . S
C533 H536 0.999 . S
C534 H504 0.950 . S
C534 C533 1.524 . S
C534 C535 1.415 . S
C535 H505 0.950 . S
C535 C530 1.363 . S
C535 C534 1.415 . S
H536 C533 0.999 . S
H537 C518 0.913 . S
H538 C556 0.951 . S
H539 C558 0.951 . S
H540 C560 0.950 . S
H541 C561 0.950 . S
H542 C563 0.950 . S
H543 C566 0.950 . S
H544 C567 0.950 . S
H545 C569 0.950 . S
H546 C570 0.950 . S
H547 C571 0.951 . S
H548 C573 0.951 . S
H549 C575 0.950 . S
H550 C576 0.950 . S
H551 C578 0.950 . S
H552 C581 0.950 . S
H553 C582 0.950 . S
H554 C584 0.950 . S
H555 C585 0.950 . S
C556 H538 0.951 . S
C556 C557 1.366 . S
C556 C558 1.388 . S
C557 C556 1.366 . S
C557 C561 1.385 . S
C558 H539 0.951 . S
C558 C556 1.388 . S
C558 C559 1.366 . S
C559 C558 1.366 . S
C559 C560 1.414 . S
C559 C562 1.499 . S
C560 H540 0.950 . S
C560 C559 1.414 . S
C560 C561 1.374 . S
C561 H541 0.950 . S
C561 C557 1.385 . S
C561 C560 1.374 . S
C562 C559 1.499 . S
C562 C563 1.373 . S
C562 C564 1.389 . S
C563 H542 0.950 . S
C563 C562 1.373 . S
C563 C579 1.377 . S
C564 C562 1.389 . S
C564 C565 1.524 . S
C564 C578 1.377 . S
C565 C564 1.524 . S
C565 C566 1.397 . S
C565 C570 1.363 . S
C566 H543 0.950 . S
C566 C565 1.397 . S
C566 C567 1.334 . S
C567 H544 0.950 . S
C567 C566 1.334 . S
C567 C568 1.287 . S
C568 C567 1.287 . S
C568 C569 1.524 . S
C568 H587 0.913 . S
C569 H545 0.950 . S
C569 C568 1.524 . S
C569 C570 1.415 . S
C570 H546 0.950 . S
C570 C565 1.363 . S
C570 C569 1.415 . S
C571 H547 0.951 . S
C571 C572 1.366 . S
C571 C573 1.388 . S
C572 C571 1.366 . S
C572 C576 1.385 . S
C573 H548 0.951 . S
C573 C571 1.388 . S
C573 C574 1.366 . S
C574 C573 1.366 . S
C574 C575 1.414 . S
C574 C577 1.499 . S
C575 H549 0.950 . S
C575 C574 1.414 . S
C575 C576 1.374 . S
C576 H550 0.950 . S
C576 C572 1.385 . S
C576 C575 1.374 . S
C577 C574 1.499 . S
C577 C578 1.373 . S
C577 C579 1.389 . S
C578 H551 0.950 . S
C578 C564 1.377 . S
C578 C577 1.373 . S
C579 C563 1.377 . S
C579 C577 1.389 . S
C579 C580 1.524 . S
C580 C579 1.524 . S
C580 C581 1.397 . S
C580 C585 1.363 . S
C581 H552 0.950 . S
C581 C580 1.397 . S
C581 C582 1.334 . S
C582 H553 0.950 . S
C582 C581 1.334 . S
C582 C583 1.287 . S
C583 C582 1.287 . S
C583 C584 1.524 . S
C583 H586 0.999 . S
C584 H554 0.950 . S
C584 C583 1.524 . S
C584 C585 1.415 . S
C585 H555 0.950 . S
C585 C580 1.363 . S
C585 C584 1.415 . S
H586 C583 0.999 . S
H587 C568 0.913 . S
H588 C606 0.951 . S
H589 C608 0.951 . S
H590 C610 0.950 . S
H591 C611 0.950 . S
H592 C613 0.950 . S
H593 C616 0.950 . S
H594 C617 0.950 . S
H595 C619 0.950 . S
H596 C620 0.950 . S
H597 C621 0.951 . S
H598 C623 0.951 . S
H599 C625 0.950 . S
H600 C626 0.950 . S
H601 C628 0.950 . S
H602 C631 0.950 . S
H603 C632 0.950 . S
H604 C634 0.950 . S
H605 C635 0.950 . S
C606 H588 0.951 . S
C606 C607 1.366 . S
C606 C608 1.388 . S
C607 C606 1.366 . S
C607 C611 1.385 . S
C608 H589 0.951 . S
C608 C606 1.388 . S
C608 C609 1.366 . S
C609 C608 1.366 . S
C609 C610 1.414 . S
C609 C612 1.499 . S
C610 H590 0.950 . S
C610 C609 1.414 . S
C610 C611 1.374 . S
C611 H591 0.950 . S
C611 C607 1.385 . S
C611 C610 1.374 . S
C612 C609 1.499 . S
C612 C613 1.373 . S
C612 C614 1.389 . S
C613 H592 0.950 . S
C613 C612 1.373 . S
C613 C629 1.377 . S
C614 C612 1.389 . S
C614 C615 1.524 . S
C614 C628 1.377 . S
C615 C614 1.524 . S
C615 C616 1.397 . S
C615 C620 1.363 . S
C616 H593 0.950 . S
C616 C615 1.397 . S
C616 C617 1.334 1_455 S
C617 H594 0.950 . S
C617 C616 1.334 1_655 S
C617 C618 1.287 . S
C618 C617 1.287 . S
C618 C619 1.524 . S
C618 H637 0.913 . S
C619 H595 0.950 . S
C619 C618 1.524 . S
C619 C620 1.415 1_655 S
C620 H596 0.950 . S
C620 C615 1.363 . S
C620 C619 1.415 1_455 S
C621 H597 0.951 . S
C621 C622 1.366 . S
C621 C623 1.388 . S
C622 C621 1.366 . S
C622 C626 1.385 . S
C623 H598 0.951 . S
C623 C621 1.388 . S
C623 C624 1.366 . S
C624 C623 1.366 . S
C624 C625 1.414 . S
C624 C627 1.499 . S
C625 H599 0.950 . S
C625 C624 1.414 . S
C625 C626 1.374 . S
C626 H600 0.950 . S
C626 C622 1.385 . S
C626 C625 1.374 . S
C627 C624 1.499 . S
C627 C628 1.373 . S
C627 C629 1.389 . S
C628 H601 0.950 . S
C628 C614 1.377 . S
C628 C627 1.373 . S
C629 C613 1.377 . S
C629 C627 1.389 . S
C629 C630 1.524 . S
C630 C629 1.524 . S
C630 C631 1.397 . S
C630 C635 1.363 . S
C631 H602 0.950 . S
C631 C630 1.397 . S
C631 C632 1.334 . S
C632 H603 0.950 . S
C632 C631 1.334 . S
C632 C633 1.287 . S
C633 C632 1.287 . S
C633 C634 1.524 . S
C633 H636 0.999 . S
C634 H604 0.950 . S
C634 C633 1.524 . S
C634 C635 1.415 . S
C635 H605 0.950 . S
C635 C630 1.363 . S
C635 C634 1.415 . S
H636 C633 0.999 . S
H637 C618 0.913 . S
H638 C656 0.951 . S
H639 C658 0.951 . S
H640 C660 0.950 . S
H641 C661 0.950 . S
H642 C663 0.950 . S
H643 C666 0.950 . S
H644 C667 0.950 . S
H645 C669 0.950 . S
H646 C670 0.950 . S
H647 C671 0.951 . S
H648 C673 0.951 . S
H649 C675 0.950 . S
H650 C676 0.950 . S
H651 C678 0.950 . S
H652 C681 0.950 . S
H653 C682 0.950 . S
H654 C684 0.950 . S
H655 C685 0.950 . S
C656 H638 0.951 . S
C656 C657 1.366 . S
C656 C658 1.388 . S
C657 C656 1.366 . S
C657 C661 1.385 . S
C658 H639 0.951 . S
C658 C656 1.388 . S
C658 C659 1.366 . S
C659 C658 1.366 . S
C659 C660 1.414 . S
C659 C662 1.499 . S
C660 H640 0.950 . S
C660 C659 1.414 . S
C660 C661 1.374 . S
C661 H641 0.950 . S
C661 C657 1.385 . S
C661 C660 1.374 . S
C662 C659 1.499 . S
C662 C663 1.373 . S
C662 C664 1.389 . S
C663 H642 0.950 . S
C663 C662 1.373 . S
C663 C679 1.377 . S
C664 C662 1.389 . S
C664 C665 1.524 . S
C664 C678 1.377 . S
C665 C664 1.524 . S
C665 C666 1.397 . S
C665 C670 1.363 . S
C666 H643 0.950 . S
C666 C665 1.397 . S
C666 C667 1.334 1_556 S
C667 H644 0.950 . S
C667 C666 1.334 1_554 S
C667 C668 1.287 . S
C668 C667 1.287 . S
C668 C669 1.524 . S
C668 H687 0.913 . S
C669 H645 0.950 . S
C669 C668 1.524 . S
C669 C670 1.415 1_554 S
C670 H646 0.950 . S
C670 C665 1.363 . S
C670 C669 1.415 1_556 S
C671 H647 0.951 . S
C671 C672 1.366 . S
C671 C673 1.388 . S
C672 C671 1.366 . S
C672 C676 1.385 . S
C673 H648 0.951 . S
C673 C671 1.388 . S
C673 C674 1.366 . S
C674 C673 1.366 . S
C674 C675 1.414 . S
C674 C677 1.499 . S
C675 H649 0.950 . S
C675 C674 1.414 . S
C675 C676 1.374 . S
C676 H650 0.950 . S
C676 C672 1.385 . S
C676 C675 1.374 . S
C677 C674 1.499 . S
C677 C678 1.373 . S
C677 C679 1.389 . S
C678 H651 0.950 . S
C678 C664 1.377 . S
C678 C677 1.373 . S
C679 C663 1.377 . S
C679 C677 1.389 . S
C679 C680 1.524 . S
C680 C679 1.524 . S
C680 C681 1.397 . S
C680 C685 1.363 . S
C681 H652 0.950 . S
C681 C680 1.397 . S
C681 C682 1.334 . S
C682 H653 0.950 . S
C682 C681 1.334 . S
C682 C683 1.287 . S
C683 C682 1.287 . S
C683 C684 1.524 . S
C683 H686 0.999 . S
C684 H654 0.950 . S
C684 C683 1.524 . S
C684 C685 1.415 . S
C685 H655 0.950 . S
C685 C680 1.363 . S
C685 C684 1.415 . S
H686 C683 0.999 . S
H687 C668 0.913 . S
H688 C706 0.951 . S
H689 C708 0.951 . S
H690 C710 0.950 . S
H691 C711 0.950 . S
H692 C713 0.950 . S
H693 C716 0.950 . S
H694 C717 0.950 . S
H695 C719 0.950 . S
H696 C720 0.950 . S
H697 C721 0.951 . S
H698 C723 0.951 . S
H699 C725 0.950 . S
H700 C726 0.950 . S
H701 C728 0.950 . S
H702 C731 0.950 . S
H703 C732 0.950 . S
H704 C734 0.950 . S
H705 C735 0.950 . S
C706 H688 0.951 . S
C706 C707 1.366 . S
C706 C708 1.388 . S
C707 C706 1.366 . S
C707 C711 1.385 . S
C708 H689 0.951 . S
C708 C706 1.388 . S
C708 C709 1.366 . S
C709 C708 1.366 . S
C709 C710 1.414 . S
C709 C712 1.499 . S
C710 H690 0.950 . S
C710 C709 1.414 . S
C710 C711 1.374 . S
C711 H691 0.950 . S
C711 C707 1.385 . S
C711 C710 1.374 . S
C712 C709 1.499 . S
C712 C713 1.373 . S
C712 C714 1.389 . S
C713 H692 0.950 . S
C713 C712 1.373 . S
C713 C729 1.377 . S
C714 C712 1.389 . S
C714 C715 1.524 . S
C714 C728 1.377 . S
C715 C714 1.524 . S
C715 C716 1.397 . S
C715 C720 1.363 . S
C716 H693 0.950 . S
C716 C715 1.397 . S
C716 C717 1.334 1_655 S
C717 H694 0.950 . S
C717 C716 1.334 1_455 S
C717 C718 1.287 . S
C718 C717 1.287 . S
C718 C719 1.524 . S
C718 H737 0.913 . S
C719 H695 0.950 . S
C719 C718 1.524 . S
C719 C720 1.415 1_455 S
C720 H696 0.950 . S
C720 C715 1.363 . S
C720 C719 1.415 1_655 S
C721 H697 0.951 . S
C721 C722 1.366 . S
C721 C723 1.388 . S
C722 C721 1.366 . S
C722 C726 1.385 . S
C723 H698 0.951 . S
C723 C721 1.388 . S
C723 C724 1.366 . S
C724 C723 1.366 . S
C724 C725 1.414 . S
C724 C727 1.499 . S
C725 H699 0.950 . S
C725 C724 1.414 . S
C725 C726 1.374 . S
C726 H700 0.950 . S
C726 C722 1.385 . S
C726 C725 1.374 . S
C727 C724 1.499 . S
C727 C728 1.373 . S
C727 C729 1.389 . S
C728 H701 0.950 . S
C728 C714 1.377 . S
C728 C727 1.373 . S
C729 C713 1.377 . S
C729 C727 1.389 . S
C729 C730 1.524 . S
C730 C729 1.524 . S
C730 C731 1.397 . S
C730 C735 1.363 . S
C731 H702 0.950 . S
C731 C730 1.397 . S
C731 C732 1.334 . S
C732 H703 0.950 . S
C732 C731 1.334 . S
C732 C733 1.287 . S
C733 C732 1.287 . S
C733 C734 1.524 . S
C733 H736 0.999 . S
C734 H704 0.950 . S
C734 C733 1.524 . S
C734 C735 1.415 . S
C735 H705 0.950 . S
C735 C730 1.363 . S
C735 C734 1.415 . S
H736 C733 0.999 . S
H737 C718 0.913 . S
H738 C756 0.951 . S
H739 C758 0.951 . S
H740 C760 0.950 . S
H741 C761 0.950 . S
H742 C763 0.950 . S
H743 C766 0.950 . S
H744 C767 0.950 . S
H745 C769 0.950 . S
H746 C770 0.950 . S
H747 C771 0.951 . S
H748 C773 0.951 . S
H749 C775 0.950 . S
H750 C776 0.950 . S
H751 C778 0.950 . S
H752 C781 0.950 . S
H753 C782 0.950 . S
H754 C784 0.950 . S
H755 C785 0.950 . S
C756 H738 0.951 . S
C756 C757 1.366 . S
C756 C758 1.388 . S
C757 C756 1.366 . S
C757 C761 1.385 . S
C758 H739 0.951 . S
C758 C756 1.388 . S
C758 C759 1.366 . S
C759 C758 1.366 . S
C759 C760 1.414 . S
C759 C762 1.499 . S
C760 H740 0.950 . S
C760 C759 1.414 . S
C760 C761 1.374 . S
C761 H741 0.950 . S
C761 C757 1.385 . S
C761 C760 1.374 . S
C762 C759 1.499 . S
C762 C763 1.373 . S
C762 C764 1.389 . S
C763 H742 0.950 . S
C763 C762 1.373 . S
C763 C779 1.377 . S
C764 C762 1.389 . S
C764 C765 1.524 . S
C764 C778 1.377 . S
C765 C764 1.524 . S
C765 C766 1.397 . S
C765 C770 1.363 . S
C766 H743 0.950 . S
C766 C765 1.397 . S
C766 C767 1.334 . S
C767 H744 0.950 . S
C767 C766 1.334 . S
C767 C768 1.287 . S
C768 C767 1.287 . S
C768 C769 1.524 . S
C768 H787 0.913 . S
C769 H745 0.950 . S
C769 C768 1.524 . S
C769 C770 1.415 . S
C770 H746 0.950 . S
C770 C765 1.363 . S
C770 C769 1.415 . S
C771 H747 0.951 . S
C771 C772 1.366 . S
C771 C773 1.388 . S
C772 C771 1.366 . S
C772 C776 1.385 . S
C773 H748 0.951 . S
C773 C771 1.388 . S
C773 C774 1.366 . S
C774 C773 1.366 . S
C774 C775 1.414 . S
C774 C777 1.499 . S
C775 H749 0.950 . S
C775 C774 1.414 . S
C775 C776 1.374 . S
C776 H750 0.950 . S
C776 C772 1.385 . S
C776 C775 1.374 . S
C777 C774 1.499 . S
C777 C778 1.373 . S
C777 C779 1.389 . S
C778 H751 0.950 . S
C778 C764 1.377 . S
C778 C777 1.373 . S
C779 C763 1.377 . S
C779 C777 1.389 . S
C779 C780 1.524 . S
C780 C779 1.524 . S
C780 C781 1.397 . S
C780 C785 1.363 . S
C781 H752 0.950 . S
C781 C780 1.397 . S
C781 C782 1.334 . S
C782 H753 0.950 . S
C782 C781 1.334 . S
C782 C783 1.287 . S
C783 C782 1.287 . S
C783 C784 1.524 . S
C783 H786 0.999 . S
C784 H754 0.950 . S
C784 C783 1.524 . S
C784 C785 1.415 . S
C785 H755 0.950 . S
C785 C780 1.363 . S
C785 C784 1.415 . S
H786 C783 0.999 . S
H787 C768 0.913 . S
H788 C806 0.951 . S
H789 C808 0.951 . S
H790 C810 0.950 1_545 S
H791 C811 0.950 . S
H792 C813 0.950 . S
H793 C816 0.950 . S
H794 C817 0.950 . S
H795 C819 0.950 . S
H796 C820 0.950 . S
H797 C821 0.951 1_455 S
H798 C823 0.951 . S
H799 C825 0.950 . S
H800 C826 0.950 . S
H801 C828 0.950 . S
H802 C831 0.950 . S
H803 C832 0.950 . S
H804 C834 0.950 . S
H805 C835 0.950 . S
C806 H788 0.951 . S
C806 C807 1.366 . S
C806 C808 1.388 . S
C807 C806 1.366 . S
C807 C811 1.385 . S
C808 H789 0.951 . S
C808 C806 1.388 . S
C808 C809 1.366 . S
C809 C808 1.366 . S
C809 C810 1.414 . S
C809 C812 1.499 . S
C810 H790 0.950 1_565 S
C810 C809 1.414 . S
C810 C811 1.374 . S
C811 H791 0.950 . S
C811 C807 1.385 . S
C811 C810 1.374 . S
C812 C809 1.499 . S
C812 C813 1.373 1_565 S
C812 C814 1.389 . S
C813 H792 0.950 . S
C813 C812 1.373 1_545 S
C813 C829 1.377 . S
C814 C812 1.389 . S
C814 C815 1.524 . S
C814 C828 1.377 . S
C815 C814 1.524 . S
C815 C816 1.397 . S
C815 C820 1.363 . S
C816 H793 0.950 . S
C816 C815 1.397 . S
C816 C817 1.334 . S
C817 H794 0.950 . S
C817 C816 1.334 . S
C817 C818 1.287 . S
C818 C817 1.287 . S
C818 C819 1.524 . S
C818 H837 0.913 . S
C819 H795 0.950 . S
C819 C818 1.524 . S
C819 C820 1.415 . S
C820 H796 0.950 . S
C820 C815 1.363 . S
C820 C819 1.415 . S
C821 H797 0.951 1_655 S
C821 C822 1.366 1_545 S
C821 C823 1.388 . S
C822 C821 1.366 1_565 S
C822 C826 1.385 . S
C823 H798 0.951 . S
C823 C821 1.388 . S
C823 C824 1.366 1_545 S
C824 C823 1.366 1_565 S
C824 C825 1.414 . S
C824 C827 1.499 . S
C825 H799 0.950 . S
C825 C824 1.414 . S
C825 C826 1.374 . S
C826 H800 0.950 . S
C826 C822 1.385 . S
C826 C825 1.374 . S
C827 C824 1.499 . S
C827 C828 1.373 . S
C827 C829 1.389 1_565 S
C828 H801 0.950 . S
C828 C814 1.377 . S
C828 C827 1.373 . S
C829 C813 1.377 . S
C829 C827 1.389 1_545 S
C829 C830 1.524 . S
C830 C829 1.524 . S
C830 C831 1.397 . S
C830 C835 1.363 . S
C831 H802 0.950 . S
C831 C830 1.397 . S
C831 C832 1.334 . S
C832 H803 0.950 . S
C832 C831 1.334 . S
C832 C833 1.287 . S
C833 C832 1.287 . S
C833 C834 1.524 . S
C833 H836 0.999 . S
C834 H804 0.950 . S
C834 C833 1.524 . S
C834 C835 1.415 . S
C835 H805 0.950 . S
C835 C830 1.363 . S
C835 C834 1.415 . S
H836 C833 0.999 . S
H837 C818 0.913 . S
H838 C856 0.951 . S
H839 C858 0.951 . S
H840 C860 0.950 . S
H841 C861 0.950 . S
H842 C863 0.950 . S
H843 C866 0.950 . S
H844 C867 0.950 . S
H845 C869 0.950 . S
H846 C870 0.950 . S
H847 C871 0.951 . S
H848 C873 0.951 . S
H849 C875 0.950 1_565 S
H850 C876 0.950 1_565 S
H851 C878 0.950 . S
H852 C881 0.950 . S
H853 C882 0.950 . S
H854 C884 0.950 . S
H855 C885 0.950 . S
C856 H838 0.951 . S
C856 C857 1.366 . S
C856 C858 1.388 . S
C857 C856 1.366 . S
C857 C861 1.385 . S
C858 H839 0.951 . S
C858 C856 1.388 . S
C858 C859 1.366 . S
C859 C858 1.366 . S
C859 C860 1.414 . S
C859 C862 1.499 . S
C860 H840 0.950 . S
C860 C859 1.414 . S
C860 C861 1.374 . S
C861 H841 0.950 . S
C861 C857 1.385 . S
C861 C860 1.374 . S
C862 C859 1.499 . S
C862 C863 1.373 . S
C862 C864 1.389 . S
C863 H842 0.950 . S
C863 C862 1.373 . S
C863 C879 1.377 . S
C864 C862 1.389 . S
C864 C865 1.524 . S
C864 C878 1.377 . S
C865 C864 1.524 . S
C865 C866 1.397 . S
C865 C870 1.363 1_545 S
C866 H843 0.950 . S
C866 C865 1.397 . S
C866 C867 1.334 . S
C867 H844 0.950 . S
C867 C866 1.334 . S
C867 C868 1.287 1_545 S
C868 C867 1.287 1_565 S
C868 C869 1.524 . S
C868 H887 0.913 . S
C869 H845 0.950 . S
C869 C868 1.524 . S
C869 C870 1.415 . S
C870 H846 0.950 . S
C870 C865 1.363 1_565 S
C870 C869 1.415 . S
C871 H847 0.951 . S
C871 C872 1.366 . S
C871 C873 1.388 . S
C872 C871 1.366 . S
C872 C876 1.385 . S
C873 H848 0.951 . S
C873 C871 1.388 . S
C873 C874 1.366 . S
C874 C873 1.366 . S
C874 C875 1.414 . S
C874 C877 1.499 . S
C875 H849 0.950 1_545 S
C875 C874 1.414 . S
C875 C876 1.374 . S
C876 H850 0.950 1_545 S
C876 C872 1.385 . S
C876 C875 1.374 . S
C877 C874 1.499 . S
C877 C878 1.373 . S
C877 C879 1.389 . S
C878 H851 0.950 . S
C878 C864 1.377 . S
C878 C877 1.373 . S
C879 C863 1.377 . S
C879 C877 1.389 . S
C879 C880 1.524 . S
C880 C879 1.524 . S
C880 C881 1.397 . S
C880 C885 1.363 . S
C881 H852 0.950 . S
C881 C880 1.397 . S
C881 C882 1.334 . S
C882 H853 0.950 . S
C882 C881 1.334 . S
C882 C883 1.287 . S
C883 C882 1.287 . S
C883 C884 1.524 . S
C883 H886 0.999 . S
C884 H854 0.950 . S
C884 C883 1.524 . S
C884 C885 1.415 . S
C885 H855 0.950 . S
C885 C880 1.363 . S
C885 C884 1.415 . S
H886 C883 0.999 . S
H887 C868 0.913 . S
H888 C906 0.951 . S
H889 C908 0.951 . S
H890 C910 0.950 . S
H891 C911 0.950 . S
H892 C913 0.950 . S
H893 C916 0.950 . S
H894 C917 0.950 . S
H895 C919 0.950 . S
H896 C920 0.950 . S
H897 C921 0.951 . S
H898 C923 0.951 . S
H899 C925 0.950 . S
H900 C926 0.950 . S
H901 C928 0.950 . S
H902 C931 0.950 . S
H903 C932 0.950 . S
H904 C934 0.950 . S
H905 C935 0.950 . S
C906 H888 0.951 . S
C906 C907 1.366 . S
C906 C908 1.388 . S
C907 C906 1.366 . S
C907 C911 1.385 . S
C908 H889 0.951 . S
C908 C906 1.388 . S
C908 C909 1.366 . S
C909 C908 1.366 . S
C909 C910 1.414 . S
C909 C912 1.499 . S
C910 H890 0.950 . S
C910 C909 1.414 . S
C910 C911 1.374 . S
C911 H891 0.950 . S
C911 C907 1.385 . S
C911 C910 1.374 . S
C912 C909 1.499 . S
C912 C913 1.373 . S
C912 C914 1.389 . S
C913 H892 0.950 . S
C913 C912 1.373 . S
C913 C929 1.377 . S
C914 C912 1.389 . S
C914 C915 1.524 . S
C914 C928 1.377 . S
C915 C914 1.524 . S
C915 C916 1.397 . S
C915 C920 1.363 . S
C916 H893 0.950 . S
C916 C915 1.397 . S
C916 C917 1.334 . S
C917 H894 0.950 . S
C917 C916 1.334 . S
C917 C918 1.287 . S
C918 C917 1.287 . S
C918 C919 1.524 . S
C918 H937 0.913 . S
C919 H895 0.950 . S
C919 C918 1.524 . S
C919 C920 1.415 . S
C920 H896 0.950 . S
C920 C915 1.363 . S
C920 C919 1.415 . S
C921 H897 0.951 . S
C921 C922 1.366 . S
C921 C923 1.388 . S
C922 C921 1.366 . S
C922 C926 1.385 . S
C923 H898 0.951 . S
C923 C921 1.388 . S
C923 C924 1.366 . S
C924 C923 1.366 . S
C924 C925 1.414 . S
C924 C927 1.499 . S
C925 H899 0.950 . S
C925 C924 1.414 . S
C925 C926 1.374 . S
C926 H900 0.950 . S
C926 C922 1.385 . S
C926 C925 1.374 . S
C927 C924 1.499 . S
C927 C928 1.373 . S
C927 C929 1.389 . S
C928 H901 0.950 . S
C928 C914 1.377 . S
C928 C927 1.373 . S
C929 C913 1.377 . S
C929 C927 1.389 . S
C929 C930 1.524 . S
C930 C929 1.524 . S
C930 C931 1.397 . S
C930 C935 1.363 . S
C931 H902 0.950 . S
C931 C930 1.397 . S
C931 C932 1.334 . S
C932 H903 0.950 . S
C932 C931 1.334 . S
C932 C933 1.287 . S
C933 C932 1.287 . S
C933 C934 1.524 . S
C933 H936 0.999 . S
C934 H904 0.950 . S
C934 C933 1.524 . S
C934 C935 1.415 . S
C935 H905 0.950 . S
C935 C930 1.363 . S
C935 C934 1.415 . S
H936 C933 0.999 . S
H937 C918 0.913 . S
H938 C956 0.951 . S
H939 C958 0.951 . S
H940 C960 0.950 . S
H941 C961 0.950 . S
H942 C963 0.950 . S
H943 C966 0.950 . S
H944 C967 0.950 . S
H945 C969 0.950 . S
H946 C970 0.950 . S
H947 C971 0.951 . S
H948 C973 0.951 . S
H949 C975 0.950 . S
H950 C976 0.950 . S
H951 C978 0.950 . S
H952 C981 0.939 1_455 S
H953 C982 0.950 . S
H954 C984 0.950 . S
H955 C985 0.950 . S
C956 H938 0.951 . S
C956 C957 1.366 . S
C956 C958 1.388 . S
C957 C956 1.366 . S
C957 C961 1.385 . S
C958 H939 0.951 . S
C958 C956 1.388 . S
C958 C959 1.366 . S
C959 C958 1.366 . S
C959 C960 1.414 . S
C959 C962 1.499 . S
C960 H940 0.950 . S
C960 C959 1.414 . S
C960 C961 1.374 . S
C961 H941 0.950 . S
C961 C957 1.385 . S
C961 C960 1.374 . S
C962 C959 1.499 . S
C962 C963 1.373 . S
C962 C964 1.389 . S
C963 H942 0.950 . S
C963 C962 1.373 . S
C963 C979 1.377 . S
C964 C962 1.389 . S
C964 C965 1.524 . S
C964 C978 1.377 . S
C965 C964 1.524 . S
C965 C966 1.397 . S
C965 C970 1.363 . S
C966 H943 0.950 . S
C966 C965 1.397 . S
C966 C967 1.334 . S
C967 H944 0.950 . S
C967 C966 1.334 . S
C967 C968 1.287 . S
C968 C967 1.287 . S
C968 C969 1.524 . S
C968 H987 0.913 . S
C969 H945 0.950 . S
C969 C968 1.524 . S
C969 C970 1.415 . S
C970 H946 0.950 . S
C970 C965 1.363 . S
C970 C969 1.415 . S
C971 H947 0.951 . S
C971 C972 1.366 . S
C971 C973 1.388 . S
C972 C971 1.366 . S
C972 C976 1.385 . S
C973 H948 0.951 . S
C973 C971 1.388 . S
C973 C974 1.366 . S
C974 C973 1.366 . S
C974 C975 1.414 . S
C974 C977 1.499 . S
C975 H949 0.950 . S
C975 C974 1.414 . S
C975 C976 1.374 . S
C976 H950 0.950 . S
C976 C972 1.385 . S
C976 C975 1.374 . S
C977 C974 1.499 . S
C977 C978 1.373 . S
C977 C979 1.389 . S
C978 H951 0.950 . S
C978 C964 1.377 . S
C978 C977 1.373 . S
C979 C963 1.377 . S
C979 C977 1.389 . S
C979 C980 1.524 . S
C980 C979 1.524 . S
C980 C981 1.378 1_455 S
C980 C985 1.363 . S
C981 H952 0.939 1_655 S
C981 C980 1.378 1_655 S
C981 C982 1.364 . S
C982 H953 0.950 . S
C982 C981 1.364 . S
C982 C983 1.287 . S
C983 C982 1.287 . S
C983 C984 1.524 . S
C983 H986 0.999 . S
C984 H954 0.950 . S
C984 C983 1.524 . S
C984 C985 1.415 1_655 S
C985 H955 0.950 . S
C985 C980 1.363 . S
C985 C984 1.415 1_455 S
H986 C983 0.999 . S
H987 C968 0.913 . S
H988 C1006 0.951 . S
H989 C1008 0.951 . S
H990 C1010 0.950 . S
H991 C1011 0.950 . S
H992 C1013 0.950 . S
H993 C1016 0.950 . S
H994 C1017 0.950 . S
H995 C1019 0.950 . S
H996 C1020 0.950 . S
H997 C1021 0.956 . S
H998 C1023 0.951 . S
H999 C1025 0.953 . S
H1000 C1026 0.951 . S
H1001 C1028 0.950 . S
H1002 C1031 0.950 . S
H1003 C1032 0.950 . S
H1004 C1034 0.950 . S
H1005 C1035 0.950 . S
C1006 H988 0.951 . S
C1006 C1007 1.366 . S
C1006 C1008 1.388 . S
C1007 C1006 1.366 . S
C1007 C1011 1.385 . S
C1008 H989 0.951 . S
C1008 C1006 1.388 . S
C1008 C1009 1.366 . S
C1009 C1008 1.366 . S
C1009 C1010 1.414 . S
C1009 C1012 1.499 . S
C1010 H990 0.950 . S
C1010 C1009 1.414 . S
C1010 C1011 1.374 . S
C1011 H991 0.950 . S
C1011 C1007 1.385 . S
C1011 C1010 1.374 . S
C1012 C1009 1.499 . S
C1012 C1013 1.373 1_565 S
C1012 C1014 1.389 . S
C1013 H992 0.950 . S
C1013 C1012 1.373 1_545 S
C1013 C1029 1.377 . S
C1014 C1012 1.389 . S
C1014 C1015 1.524 . S
C1014 C1028 1.377 . S
C1015 C1014 1.524 . S
C1015 C1016 1.397 . S
C1015 C1020 1.363 1_556 S
C1016 H993 0.950 . S
C1016 C1015 1.397 . S
C1016 C1017 1.334 . S
C1017 H994 0.950 . S
C1017 C1016 1.334 . S
C1017 C1018 1.287 . S
C1018 C1017 1.287 . S
C1018 C1019 1.524 1_556 S
C1018 H1037 0.913 1_556 S
C1019 H995 0.950 . S
C1019 C1018 1.524 1_554 S
C1019 C1020 1.415 . S
C1020 H996 0.950 . S
C1020 C1015 1.363 1_554 S
C1020 C1019 1.415 . S
C1021 H997 0.956 . S
C1021 C1022 1.367 . S
C1021 C1023 1.383 1_545 S
C1022 C1021 1.367 . S
C1022 C1026 1.385 1_546 S
C1023 H998 0.951 . S
C1023 C1021 1.383 1_565 S
C1023 C1024 1.366 . S
C1024 C1023 1.366 . S
C1024 C1025 1.411 1_556 S
C1024 C1027 1.499 . S
C1025 H999 0.953 . S
C1025 C1024 1.411 1_554 S
C1025 C1026 1.374 . S
C1026 H1000 0.951 . S
C1026 C1022 1.385 1_564 S
C1026 C1025 1.374 . S
C1027 C1024 1.499 . S
C1027 C1028 1.373 . S
C1027 C1029 1.389 1_565 S
C1028 H1001 0.950 . S
C1028 C1014 1.377 . S
C1028 C1027 1.373 . S
C1029 C1013 1.377 . S
C1029 C1027 1.389 1_545 S
C1029 C1030 1.524 . S
C1030 C1029 1.524 . S
C1030 C1031 1.397 . S
C1030 C1035 1.363 . S
C1031 H1002 0.950 . S
C1031 C1030 1.397 . S
C1031 C1032 1.334 . S
C1032 H1003 0.950 . S
C1032 C1031 1.334 . S
C1032 C1033 1.287 . S
C1033 C1032 1.287 . S
C1033 C1034 1.524 . S
C1033 H1036 0.999 . S
C1034 H1004 0.950 . S
C1034 C1033 1.524 . S
C1034 C1035 1.415 . S
C1035 H1005 0.950 . S
C1035 C1030 1.363 . S
C1035 C1034 1.415 . S
H1036 C1033 0.999 . S
H1037 C1018 0.913 1_554 S
H1038 C1056 0.951 . S
H1039 C1058 0.951 . S
H1040 C1060 0.923 1_565 S
H1041 C1061 0.950 . S
H1042 C1063 0.971 . S
H1043 C1066 0.950 . S
H1044 C1067 0.950 . S
H1045 C1069 0.950 . S
H1046 C1070 0.950 . S
H1047 C1071 0.951 . S
H1048 C1073 0.951 . S
H1049 C1075 0.950 . S
H1050 C1076 0.950 . S
H1051 C1078 0.950 . S
H1052 C1081 0.950 1_545 S
H1053 C1082 0.950 . S
H1054 C1084 0.950 . S
H1055 C1085 0.950 . S
C1056 H1038 0.951 . S
C1056 C1057 1.366 . S
C1056 C1058 1.388 . S
C1057 C1056 1.366 . S
C1057 C1061 1.385 . S
C1058 H1039 0.951 . S
C1058 C1056 1.388 . S
C1058 C1059 1.366 . S
C1059 C1058 1.366 . S
C1059 C1060 1.414 . S
C1059 C1062 1.499 . S
C1060 H1040 0.923 1_545 S
C1060 C1059 1.414 . S
C1060 C1061 1.374 . S
C1061 H1041 0.950 . S
C1061 C1057 1.385 . S
C1061 C1060 1.374 . S
C1062 C1059 1.499 . S
C1062 C1063 1.373 . S
C1062 C1064 1.389 . S
C1063 H1042 0.971 . S
C1063 C1062 1.373 . S
C1063 C1079 1.377 . S
C1064 C1062 1.389 . S
C1064 C1065 1.524 . S
C1064 C1078 1.377 . S
C1065 C1064 1.524 . S
C1065 C1066 1.397 . S
C1065 C1070 1.363 . S
C1066 H1043 0.950 . S
C1066 C1065 1.397 . S
C1066 C1067 1.334 . S
C1067 H1044 0.950 . S
C1067 C1066 1.334 . S
C1067 C1068 1.287 . S
C1068 C1067 1.287 . S
C1068 C1069 1.524 . S
C1068 H1087 0.913 . S
C1069 H1045 0.950 . S
C1069 C1068 1.524 . S
C1069 C1070 1.415 . S
C1070 H1046 0.950 . S
C1070 C1065 1.363 . S
C1070 C1069 1.415 . S
C1071 H1047 0.951 . S
C1071 C1072 1.366 1_565 S
C1071 C1073 1.388 . S
C1072 C1071 1.366 1_545 S
C1072 C1076 1.385 . S
C1073 H1048 0.951 . S
C1073 C1071 1.388 . S
C1073 C1074 1.366 1_565 S
C1074 C1073 1.366 1_545 S
C1074 C1075 1.414 . S
C1074 C1077 1.499 . S
C1075 H1049 0.950 . S
C1075 C1074 1.414 . S
C1075 C1076 1.374 . S
C1076 H1050 0.950 . S
C1076 C1072 1.385 . S
C1076 C1075 1.374 . S
C1077 C1074 1.499 . S
C1077 C1078 1.373 . S
C1077 C1079 1.389 . S
C1078 H1051 0.950 . S
C1078 C1064 1.377 . S
C1078 C1077 1.373 . S
C1079 C1063 1.377 . S
C1079 C1077 1.389 . S
C1079 C1080 1.524 1_545 S
C1080 C1079 1.524 1_565 S
C1080 C1081 1.397 . S
C1080 C1085 1.363 . S
C1081 H1052 0.950 1_565 S
C1081 C1080 1.397 . S
C1081 C1082 1.334 . S
C1082 H1053 0.950 . S
C1082 C1081 1.334 . S
C1082 C1083 1.287 . S
C1083 C1082 1.287 . S
C1083 C1084 1.524 . S
C1083 H1086 0.999 . S
C1084 H1054 0.950 . S
C1084 C1083 1.524 . S
C1084 C1085 1.415 . S
C1085 H1055 0.950 . S
C1085 C1080 1.363 . S
C1085 C1084 1.415 . S
H1086 C1083 0.999 . S
H1087 C1068 0.913 . S
H1088 C1106 0.951 . S
H1089 C1108 0.951 . S
H1090 C1110 0.950 . S
H1091 C1111 0.950 . S
H1092 C1113 0.950 . S
H1093 C1116 0.950 . S
H1094 C1117 0.950 . S
H1095 C1119 0.950 . S
H1096 C1120 0.950 . S
H1097 C1121 0.951 . S
H1098 C1123 0.951 1_556 S
H1099 C1125 0.950 . S
H1100 C1126 0.950 . S
H1101 C1128 0.950 . S
H1102 C1131 0.950 . S
H1103 C1132 0.950 . S
H1104 C1134 0.950 . S
H1105 C1135 0.950 . S
C1106 H1088 0.951 . S
C1106 C1107 1.366 . S
C1106 C1108 1.388 . S
C1107 C1106 1.366 . S
C1107 C1111 1.385 . S
C1108 H1089 0.951 . S
C1108 C1106 1.388 . S
C1108 C1109 1.366 . S
C1109 C1108 1.366 . S
C1109 C1110 1.414 . S
C1109 C1112 1.499 . S
C1110 H1090 0.950 . S
C1110 C1109 1.414 . S
C1110 C1111 1.374 . S
C1111 H1091 0.950 . S
C1111 C1107 1.385 . S
C1111 C1110 1.374 . S
C1112 C1109 1.499 . S
C1112 C1113 1.373 . S
C1112 C1114 1.389 . S
C1113 H1092 0.950 . S
C1113 C1112 1.373 . S
C1113 C1129 1.377 . S
C1114 C1112 1.389 . S
C1114 C1115 1.524 . S
C1114 C1128 1.377 . S
C1115 C1114 1.524 . S
C1115 C1116 1.397 . S
C1115 C1120 1.363 . S
C1116 H1093 0.950 . S
C1116 C1115 1.397 . S
C1116 C1117 1.334 . S
C1117 H1094 0.950 . S
C1117 C1116 1.334 . S
C1117 C1118 1.287 . S
C1118 C1117 1.287 . S
C1118 C1119 1.524 . S
C1118 H1137 0.913 . S
C1119 H1095 0.950 . S
C1119 C1118 1.524 . S
C1119 C1120 1.415 . S
C1120 H1096 0.950 . S
C1120 C1115 1.363 . S
C1120 C1119 1.415 . S
C1121 H1097 0.951 . S
C1121 C1122 1.366 1_556 S
C1121 C1123 1.388 1_556 S
C1122 C1121 1.366 1_554 S
C1122 C1126 1.385 . S
C1123 H1098 0.951 1_554 S
C1123 C1121 1.388 1_554 S
C1123 C1124 1.366 . S
C1124 C1123 1.366 . S
C1124 C1125 1.414 . S
C1124 C1127 1.499 . S
C1125 H1099 0.950 . S
C1125 C1124 1.414 . S
C1125 C1126 1.374 . S
C1126 H1100 0.950 . S
C1126 C1122 1.385 . S
C1126 C1125 1.374 . S
C1127 C1124 1.499 . S
C1127 C1128 1.373 . S
C1127 C1129 1.389 . S
C1128 H1101 0.950 . S
C1128 C1114 1.377 . S
C1128 C1127 1.373 . S
C1129 C1113 1.377 . S
C1129 C1127 1.389 . S
C1129 C1130 1.532 . S
C1130 C1129 1.532 . S
C1130 C1131 1.398 . S
C1130 C1135 1.356 1_554 S
C1131 H1102 0.950 . S
C1131 C1130 1.398 . S
C1131 C1132 1.334 1_554 S
C1132 H1103 0.950 . S
C1132 C1131 1.334 1_556 S
C1132 C1133 1.287 . S
C1133 C1132 1.287 . S
C1133 C1134 1.524 . S
C1133 H1136 0.999 . S
C1134 H1104 0.950 . S
C1134 C1133 1.524 . S
C1134 C1135 1.415 . S
C1135 H1105 0.950 . S
C1135 C1130 1.356 1_556 S
C1135 C1134 1.415 . S
H1136 C1133 0.999 . S
H1137 C1118 0.913 . S
H1138 C1156 0.951 . S
H1139 C1158 0.951 . S
H1140 C1160 0.950 . S
H1141 C1161 0.950 . S
H1142 C1163 0.950 . S
H1143 C1166 0.950 . S
H1144 C1167 0.950 . S
H1145 C1169 0.950 . S
H1146 C1170 0.950 . S
H1147 C1171 0.951 . S
H1148 C1173 0.951 . S
H1149 C1175 0.950 . S
H1150 C1176 0.950 . S
H1151 C1178 0.950 . S
H1152 C1181 0.950 . S
H1153 C1182 0.950 . S
H1154 C1184 0.950 . S
H1155 C1185 0.950 . S
C1156 H1138 0.951 . S
C1156 C1157 1.366 . S
C1156 C1158 1.388 . S
C1157 C1156 1.366 . S
C1157 C1161 1.385 . S
C1158 H1139 0.951 . S
C1158 C1156 1.388 . S
C1158 C1159 1.366 . S
C1159 C1158 1.366 . S
C1159 C1160 1.414 . S
C1159 C1162 1.499 . S
C1160 H1140 0.950 . S
C1160 C1159 1.414 . S
C1160 C1161 1.374 . S
C1161 H1141 0.950 . S
C1161 C1157 1.385 . S
C1161 C1160 1.374 . S
C1162 C1159 1.499 . S
C1162 C1163 1.373 . S
C1162 C1164 1.389 . S
C1163 H1142 0.950 . S
C1163 C1162 1.373 . S
C1163 C1179 1.377 . S
C1164 C1162 1.389 . S
C1164 C1165 1.524 . S
C1164 C1178 1.377 . S
C1165 C1164 1.524 . S
C1165 C1166 1.397 . S
C1165 C1170 1.363 . S
C1166 H1143 0.950 . S
C1166 C1165 1.397 . S
C1166 C1167 1.334 . S
C1167 H1144 0.950 . S
C1167 C1166 1.334 . S
C1167 C1168 1.287 . S
C1168 C1167 1.287 . S
C1168 C1169 1.524 . S
C1168 H1187 0.913 . S
C1169 H1145 0.950 . S
C1169 C1168 1.524 . S
C1169 C1170 1.415 . S
C1170 H1146 0.950 . S
C1170 C1165 1.363 . S
C1170 C1169 1.415 . S
C1171 H1147 0.951 . S
C1171 C1172 1.366 . S
C1171 C1173 1.388 . S
C1172 C1171 1.366 . S
C1172 C1176 1.385 . S
C1173 H1148 0.951 . S
C1173 C1171 1.388 . S
C1173 C1174 1.366 . S
C1174 C1173 1.366 . S
C1174 C1175 1.414 . S
C1174 C1177 1.499 . S
C1175 H1149 0.950 . S
C1175 C1174 1.414 . S
C1175 C1176 1.374 . S
C1176 H1150 0.950 . S
C1176 C1172 1.385 . S
C1176 C1175 1.374 . S
C1177 C1174 1.499 . S
C1177 C1178 1.373 . S
C1177 C1179 1.389 . S
C1178 H1151 0.950 . S
C1178 C1164 1.377 . S
C1178 C1177 1.373 . S
C1179 C1163 1.377 . S
C1179 C1177 1.389 . S
C1179 C1180 1.524 . S
C1180 C1179 1.524 . S
C1180 C1181 1.397 . S
C1180 C1185 1.363 . S
C1181 H1152 0.950 . S
C1181 C1180 1.397 . S
C1181 C1182 1.334 . S
C1182 H1153 0.950 . S
C1182 C1181 1.334 . S
C1182 C1183 1.287 . S
C1183 C1182 1.287 . S
C1183 C1184 1.524 . S
C1183 H1186 0.999 . S
C1184 H1154 0.950 . S
C1184 C1183 1.524 . S
C1184 C1185 1.415 . S
C1185 H1155 0.950 . S
C1185 C1180 1.363 . S
C1185 C1184 1.415 . S
H1186 C1183 0.999 . S
H1187 C1168 0.913 . S
H1188 C1206 0.951 . S
H1189 C1208 0.951 . S
H1190 C1210 0.950 . S
H1191 C1211 0.950 . S
H1192 C1213 0.950 1_455 S
H1193 C1216 0.950 . S
H1194 C1217 0.950 . S
H1195 C1219 0.950 . S
H1196 C1220 0.950 . S
H1197 C1221 0.951 . S
H1198 C1223 0.945 1_455 S
H1199 C1225 0.950 . S
H1200 C1226 0.950 . S
H1201 C1228 0.950 . S
H1202 C1231 0.950 . S
H1203 C1232 0.950 . S
H1204 C1234 0.950 . S
H1205 C1235 0.964 . S
C1206 H1188 0.951 . S
C1206 C1207 1.366 . S
C1206 C1208 1.388 . S
C1207 C1206 1.366 . S
C1207 C1211 1.385 . S
C1208 H1189 0.951 . S
C1208 C1206 1.388 . S
C1208 C1209 1.366 . S
C1209 C1208 1.366 . S
C1209 C1210 1.414 . S
C1209 C1212 1.499 . S
C1210 H1190 0.950 . S
C1210 C1209 1.414 . S
C1210 C1211 1.374 . S
C1211 H1191 0.950 . S
C1211 C1207 1.385 . S
C1211 C1210 1.374 . S
C1212 C1209 1.499 . S
C1212 C1213 1.373 . S
C1212 C1214 1.389 . S
C1213 H1192 0.950 1_655 S
C1213 C1212 1.373 . S
C1213 C1229 1.377 1_655 S
C1214 C1212 1.389 . S
C1214 C1215 1.524 . S
C1214 C1228 1.377 . S
C1215 C1214 1.524 . S
C1215 C1216 1.397 . S
C1215 C1220 1.363 . S
C1216 H1193 0.950 . S
C1216 C1215 1.397 . S
C1216 C1217 1.334 . S
C1217 H1194 0.950 . S
C1217 C1216 1.334 . S
C1217 C1218 1.287 . S
C1218 C1217 1.287 . S
C1218 C1219 1.524 . S
C1218 H1237 0.913 . S
C1219 H1195 0.950 . S
C1219 C1218 1.524 . S
C1219 C1220 1.415 . S
C1220 H1196 0.950 . S
C1220 C1215 1.363 . S
C1220 C1219 1.415 . S
C1221 H1197 0.951 . S
C1221 C1222 1.366 1_454 S
C1221 C1223 1.378 1_455 S
C1222 C1221 1.366 1_656 S
C1222 C1226 1.385 . S
C1223 H1198 0.945 1_655 S
C1223 C1221 1.378 1_655 S
C1223 C1224 1.382 1_554 S
C1224 C1223 1.382 1_556 S
C1224 C1225 1.414 . S
C1224 C1227 1.499 . S
C1225 H1199 0.950 . S
C1225 C1224 1.414 . S
C1225 C1226 1.374 . S
C1226 H1200 0.950 . S
C1226 C1222 1.385 . S
C1226 C1225 1.374 . S
C1227 C1224 1.499 . S
C1227 C1228 1.373 . S
C1227 C1229 1.389 1_655 S
C1228 H1201 0.950 . S
C1228 C1214 1.377 . S
C1228 C1227 1.373 . S
C1229 C1213 1.377 1_455 S
C1229 C1227 1.389 1_455 S
C1229 C1230 1.524 . S
C1230 C1229 1.524 . S
C1230 C1231 1.397 . S
C1230 C1235 1.343 1_556 S
C1231 H1202 0.950 . S
C1231 C1230 1.397 . S
C1231 C1232 1.334 . S
C1232 H1203 0.950 . S
C1232 C1231 1.334 . S
C1232 C1233 1.287 . S
C1233 C1232 1.287 . S
C1233 C1234 1.524 1_556 S
C1233 H1236 0.999 . S
C1234 H1204 0.950 . S
C1234 C1233 1.524 1_554 S
C1234 C1235 1.421 . S
C1235 H1205 0.964 . S
C1235 C1230 1.343 1_554 S
C1235 C1234 1.421 . S
H1236 C1233 0.999 . S
H1237 C1218 0.913 . S
H1238 C1256 0.951 . S
H1239 C1258 0.951 . S
H1240 C1260 0.950 . S
H1241 C1261 0.950 . S
H1242 C1263 0.950 . S
H1243 C1266 0.950 . S
H1244 C1267 0.950 . S
H1245 C1269 0.950 . S
H1246 C1270 0.950 . S
H1247 C1271 0.951 . S
H1248 C1273 0.951 . S
H1249 C1275 0.950 . S
H1250 C1276 0.950 . S
H1251 C1278 0.950 . S
H1252 C1281 0.950 . S
H1253 C1282 0.950 1_556 S
H1254 C1284 0.950 . S
H1255 C1285 0.950 . S
C1256 H1238 0.951 . S
C1256 C1257 1.366 . S
C1256 C1258 1.388 . S
C1257 C1256 1.366 . S
C1257 C1261 1.385 . S
C1258 H1239 0.951 . S
C1258 C1256 1.388 . S
C1258 C1259 1.366 . S
C1259 C1258 1.366 . S
C1259 C1260 1.414 . S
C1259 C1262 1.499 . S
C1260 H1240 0.950 . S
C1260 C1259 1.414 . S
C1260 C1261 1.374 . S
C1261 H1241 0.950 . S
C1261 C1257 1.385 . S
C1261 C1260 1.374 . S
C1262 C1259 1.499 . S
C1262 C1263 1.373 . S
C1262 C1264 1.389 . S
C1263 H1242 0.950 . S
C1263 C1262 1.373 . S
C1263 C1279 1.377 . S
C1264 C1262 1.389 . S
C1264 C1265 1.524 . S
C1264 C1278 1.377 . S
C1265 C1264 1.524 . S
C1265 C1266 1.397 . S
C1265 C1270 1.363 . S
C1266 H1243 0.950 . S
C1266 C1265 1.397 . S
C1266 C1267 1.334 . S
C1267 H1244 0.950 . S
C1267 C1266 1.334 . S
C1267 C1268 1.287 . S
C1268 C1267 1.287 . S
C1268 C1269 1.524 . S
C1268 H1287 0.913 . S
C1269 H1245 0.950 . S
C1269 C1268 1.524 . S
C1269 C1270 1.415 . S
C1270 H1246 0.950 . S
C1270 C1265 1.363 . S
C1270 C1269 1.415 . S
C1271 H1247 0.951 . S
C1271 C1272 1.366 . S
C1271 C1273 1.388 . S
C1272 C1271 1.366 . S
C1272 C1276 1.385 . S
C1273 H1248 0.951 . S
C1273 C1271 1.388 . S
C1273 C1274 1.366 . S
C1274 C1273 1.366 . S
C1274 C1275 1.414 . S
C1274 C1277 1.499 . S
C1275 H1249 0.950 . S
C1275 C1274 1.414 . S
C1275 C1276 1.374 . S
C1276 H1250 0.950 . S
C1276 C1272 1.385 . S
C1276 C1275 1.374 . S
C1277 C1274 1.499 . S
C1277 C1278 1.373 . S
C1277 C1279 1.389 . S
C1278 H1251 0.950 . S
C1278 C1264 1.377 . S
C1278 C1277 1.373 . S
C1279 C1263 1.377 . S
C1279 C1277 1.389 . S
C1279 C1280 1.524 . S
C1280 C1279 1.524 . S
C1280 C1281 1.397 . S
C1280 C1285 1.363 . S
C1281 H1252 0.950 . S
C1281 C1280 1.397 . S
C1281 C1282 1.334 . S
C1282 H1253 0.950 1_554 S
C1282 C1281 1.334 . S
C1282 C1283 1.287 . S
C1283 C1282 1.287 . S
C1283 C1284 1.524 . S
C1283 H1286 0.999 . S
C1284 H1254 0.950 . S
C1284 C1283 1.524 . S
C1284 C1285 1.415 . S
C1285 H1255 0.950 . S
C1285 C1280 1.363 . S
C1285 C1284 1.415 . S
H1286 C1283 0.999 . S
H1287 C1268 0.913 . S
H1288 C1306 0.951 . S
H1289 C1308 0.951 . S
H1290 C1310 0.950 . S
H1291 C1311 0.950 . S
H1292 C1313 0.950 . S
H1293 C1316 0.950 . S
H1294 C1317 0.950 . S
H1295 C1319 0.950 . S
H1296 C1320 0.930 1_655 S
H1297 C1321 0.951 . S
H1298 C1323 0.951 . S
H1299 C1325 0.950 . S
H1300 C1326 0.950 1_655 S
H1301 C1328 0.950 . S
H1302 C1331 0.950 . S
H1303 C1332 0.950 . S
H1304 C1334 0.950 . S
H1305 C1335 0.950 . S
C1306 H1288 0.951 . S
C1306 C1307 1.366 . S
C1306 C1308 1.388 . S
C1307 C1306 1.366 . S
C1307 C1311 1.385 . S
C1308 H1289 0.951 . S
C1308 C1306 1.388 . S
C1308 C1309 1.366 . S
C1309 C1308 1.366 . S
C1309 C1310 1.414 . S
C1309 C1312 1.499 . S
C1310 H1290 0.950 . S
C1310 C1309 1.414 . S
C1310 C1311 1.374 . S
C1311 H1291 0.950 . S
C1311 C1307 1.385 . S
C1311 C1310 1.374 . S
C1312 C1309 1.499 . S
C1312 C1313 1.373 . S
C1312 C1314 1.389 . S
C1313 H1292 0.950 . S
C1313 C1312 1.373 . S
C1313 C1329 1.377 . S
C1314 C1312 1.389 . S
C1314 C1315 1.524 . S
C1314 C1328 1.377 . S
C1315 C1314 1.524 . S
C1315 C1316 1.397 . S
C1315 C1320 1.363 . S
C1316 H1293 0.950 . S
C1316 C1315 1.397 . S
C1316 C1317 1.334 . S
C1317 H1294 0.950 . S
C1317 C1316 1.334 . S
C1317 C1318 1.287 . S
C1318 C1317 1.287 . S
C1318 C1319 1.524 1_455 S
C1318 H1337 0.913 . S
C1319 H1295 0.950 . S
C1319 C1318 1.524 1_655 S
C1319 C1320 1.415 1_655 S
C1320 H1296 0.930 1_455 S
C1320 C1315 1.363 . S
C1320 C1319 1.415 1_455 S
C1321 H1297 0.951 . S
C1321 C1322 1.366 . S
C1321 C1323 1.388 . S
C1322 C1321 1.366 . S
C1322 C1326 1.385 . S
C1323 H1298 0.951 . S
C1323 C1321 1.388 . S
C1323 C1324 1.366 . S
C1324 C1323 1.366 . S
C1324 C1325 1.414 . S
C1324 C1327 1.499 . S
C1325 H1299 0.950 . S
C1325 C1324 1.414 . S
C1325 C1326 1.374 . S
C1326 H1300 0.950 1_455 S
C1326 C1322 1.385 . S
C1326 C1325 1.374 . S
C1327 C1324 1.499 . S
C1327 C1328 1.373 . S
C1327 C1329 1.389 . S
C1328 H1301 0.950 . S
C1328 C1314 1.377 . S
C1328 C1327 1.373 . S
C1329 C1313 1.377 . S
C1329 C1327 1.389 . S
C1329 C1330 1.524 . S
C1330 C1329 1.524 . S
C1330 C1331 1.397 . S
C1330 C1335 1.363 . S
C1331 H1302 0.950 . S
C1331 C1330 1.397 . S
C1331 C1332 1.334 . S
C1332 H1303 0.950 . S
C1332 C1331 1.334 . S
C1332 C1333 1.287 . S
C1333 C1332 1.287 . S
C1333 C1334 1.524 . S
C1333 H1336 0.999 . S
C1334 H1304 0.950 . S
C1334 C1333 1.524 . S
C1334 C1335 1.415 . S
C1335 H1305 0.950 . S
C1335 C1330 1.363 . S
C1335 C1334 1.415 . S
H1336 C1333 0.999 . S
H1337 C1318 0.913 . S
H1338 C1356 0.951 . S
H1339 C1358 0.951 . S
H1340 C1360 0.950 . S
H1341 C1361 0.950 . S
H1342 C1363 0.950 . S
H1343 C1366 0.950 . S
H1344 C1367 0.950 . S
H1345 C1369 0.950 . S
H1346 C1370 0.950 . S
H1347 C1371 0.951 . S
H1348 C1373 0.951 . S
H1349 C1375 0.950 . S
H1350 C1376 0.950 . S
H1351 C1378 0.950 . S
H1352 C1381 0.950 . S
H1353 C1382 0.950 . S
H1354 C1384 0.950 . S
H1355 C1385 0.950 . S
C1356 H1338 0.951 . S
C1356 C1357 1.366 . S
C1356 C1358 1.388 . S
C1357 C1356 1.366 . S
C1357 C1361 1.385 . S
C1358 H1339 0.951 . S
C1358 C1356 1.388 . S
C1358 C1359 1.366 . S
C1359 C1358 1.366 . S
C1359 C1360 1.414 . S
C1359 C1362 1.499 . S
C1360 H1340 0.950 . S
C1360 C1359 1.414 . S
C1360 C1361 1.374 . S
C1361 H1341 0.950 . S
C1361 C1357 1.385 . S
C1361 C1360 1.374 . S
C1362 C1359 1.499 . S
C1362 C1363 1.373 . S
C1362 C1364 1.389 . S
C1363 H1342 0.950 . S
C1363 C1362 1.373 . S
C1363 C1379 1.377 . S
C1364 C1362 1.389 . S
C1364 C1365 1.524 . S
C1364 C1378 1.377 . S
C1365 C1364 1.524 . S
C1365 C1366 1.397 . S
C1365 C1370 1.363 . S
C1366 H1343 0.950 . S
C1366 C1365 1.397 . S
C1366 C1367 1.334 . S
C1367 H1344 0.950 . S
C1367 C1366 1.334 . S
C1367 C1368 1.287 . S
C1368 C1367 1.287 . S
C1368 C1369 1.524 . S
C1368 H1387 0.913 . S
C1369 H1345 0.950 . S
C1369 C1368 1.524 . S
C1369 C1370 1.415 . S
C1370 H1346 0.950 . S
C1370 C1365 1.363 . S
C1370 C1369 1.415 . S
C1371 H1347 0.951 . S
C1371 C1372 1.366 . S
C1371 C1373 1.388 . S
C1372 C1371 1.366 . S
C1372 C1376 1.385 . S
C1373 H1348 0.951 . S
C1373 C1371 1.388 . S
C1373 C1374 1.366 . S
C1374 C1373 1.366 . S
C1374 C1375 1.414 . S
C1374 C1377 1.499 . S
C1375 H1349 0.950 . S
C1375 C1374 1.414 . S
C1375 C1376 1.374 . S
C1376 H1350 0.950 . S
C1376 C1372 1.385 . S
C1376 C1375 1.374 . S
C1377 C1374 1.499 . S
C1377 C1378 1.373 . S
C1377 C1379 1.389 . S
C1378 H1351 0.950 . S
C1378 C1364 1.377 . S
C1378 C1377 1.373 . S
C1379 C1363 1.377 . S
C1379 C1377 1.389 . S
C1379 C1380 1.524 . S
C1380 C1379 1.524 . S
C1380 C1381 1.397 . S
C1380 C1385 1.363 . S
C1381 H1352 0.950 . S
C1381 C1380 1.397 . S
C1381 C1382 1.334 . S
C1382 H1353 0.950 . S
C1382 C1381 1.334 . S
C1382 C1383 1.287 . S
C1383 C1382 1.287 . S
C1383 C1384 1.524 . S
C1383 H1386 0.999 . S
C1384 H1354 0.950 . S
C1384 C1383 1.524 . S
C1384 C1385 1.415 . S
C1385 H1355 0.950 . S
C1385 C1380 1.363 . S
C1385 C1384 1.415 . S
H1386 C1383 0.999 . S
H1387 C1368 0.913 . S
C207 C6 1.803 . S
C222 C114 1.774 . S
C257 C18 1.932 . S
C272 C138 1.906 . S
C322 C158 1.415 . S
C307 C28 1.396 . S
C357 C40 0.797 . S
C372 C181 0.799 . S
C422 C140 2.016 . S
C407 C9 2.047 . S
C472 C116 1.647 . S
C457 C16 1.689 . S
C522 C184 1.548 . S
C507 C30 1.590 . S
C572 C161 1.193 . S
C557 C42 1.224 . S
C607 C4 1.370 . S
C622 C186 1.349 . S
C672 C135 1.707 . S
C657 C33 1.699 . S
C707 C45 1.336 . S
C722 C113 1.341 . S
C757 C21 1.660 . S
C772 C163 1.627 . S
C822 C117 1.853 . S
C807 C57 1.848 . S
C857 C66 1.883 . S
C872 C139 1.868 . S
C907 C76 1.802 . S
C922 C159 1.819 . S
C957 C88 1.091 . S
C972 C182 1.113 . S
C1007 C54 1.802 . S
C1022 C137 1.766 . S
C1072 C115 1.546 . S
C1057 C64 1.543 . S
C1122 C185 1.298 . S
C1107 C78 1.329 . S
C1172 C162 1.151 . S
C1157 C93 1.173 . S
C1207 C52 1.703 . S
C1222 C183 1.706 1_655 S
C1272 C136 1.579 . S
C1257 C81 1.550 . S
C1322 C112 1.263 . S
C1307 C90 1.255 . S
C1357 C69 2.092 . S
C1372 C160 2.070 . S
