# Generated by pormake.
# Topology zzz, (3,6)-cn, num edge types: 1
# Building blocks:
#     Node 0, Type 0, BuildingBlock: BELTOD_clean_linker_0, # of connection points: 3
#     Node 1, Type 0, BuildingBlock: BELTOD_clean_linker_0, # of connection points: 3
#     Node 2, Type 0, BuildingBlock: BELTOD_clean_linker_0, # of connection points: 3
#     Node 3, Type 0, BuildingBlock: BELTOD_clean_linker_0, # of connection points: 3
#     Node 4, Type 0, BuildingBlock: BELTOD_clean_linker_0, # of connection points: 3
#     Node 5, Type 0, BuildingBlock: BELTOD_clean_linker_0, # of connection points: 3
#     Node 6, Type 0, BuildingBlock: BELTOD_clean_linker_0, # of connection points: 3
#     Node 7, Type 0, BuildingBlock: BELTOD_clean_linker_0, # of connection points: 3
#     Node 8, Type 1, BuildingBlock: BETFAJ_clean_sbu_0, # of connection points: 6
#     Node 9, Type 1, BuildingBlock: BETFAJ_clean_sbu_0, # of connection points: 6
#     Node 10, Type 1, BuildingBlock: BETFAJ_clean_sbu_0, # of connection points: 6
#     Node 11, Type 1, BuildingBlock: BETFAJ_clean_sbu_0, # of connection points: 6
#     Edge 12, Type (0, 1), BuildingBlock: MIFKUJ_clean_linker_0, # of connection points: 2
#     Edge 13, Type (0, 1), BuildingBlock: MIFKUJ_clean_linker_0, # of connection points: 2
#     Edge 14, Type (0, 1), BuildingBlock: MIFKUJ_clean_linker_0, # of connection points: 2
#     Edge 15, Type (0, 1), BuildingBlock: MIFKUJ_clean_linker_0, # of connection points: 2
#     Edge 16, Type (0, 1), BuildingBlock: MIFKUJ_clean_linker_0, # of connection points: 2
#     Edge 17, Type (0, 1), BuildingBlock: MIFKUJ_clean_linker_0, # of connection points: 2
#     Edge 18, Type (0, 1), BuildingBlock: MIFKUJ_clean_linker_0, # of connection points: 2
#     Edge 19, Type (0, 1), BuildingBlock: MIFKUJ_clean_linker_0, # of connection points: 2
#     Edge 20, Type (0, 1), BuildingBlock: MIFKUJ_clean_linker_0, # of connection points: 2
#     Edge 21, Type (0, 1), BuildingBlock: MIFKUJ_clean_linker_0, # of connection points: 2
#     Edge 22, Type (0, 1), BuildingBlock: MIFKUJ_clean_linker_0, # of connection points: 2
#     Edge 23, Type (0, 1), BuildingBlock: MIFKUJ_clean_linker_0, # of connection points: 2
#     Edge 24, Type (0, 1), BuildingBlock: MIFKUJ_clean_linker_0, # of connection points: 2
#     Edge 25, Type (0, 1), BuildingBlock: MIFKUJ_clean_linker_0, # of connection points: 2
#     Edge 26, Type (0, 1), BuildingBlock: MIFKUJ_clean_linker_0, # of connection points: 2
#     Edge 27, Type (0, 1), BuildingBlock: MIFKUJ_clean_linker_0, # of connection points: 2
#     Edge 28, Type (0, 1), BuildingBlock: MIFKUJ_clean_linker_0, # of connection points: 2
#     Edge 29, Type (0, 1), BuildingBlock: MIFKUJ_clean_linker_0, # of connection points: 2
#     Edge 30, Type (0, 1), BuildingBlock: MIFKUJ_clean_linker_0, # of connection points: 2
#     Edge 31, Type (0, 1), BuildingBlock: MIFKUJ_clean_linker_0, # of connection points: 2
#     Edge 32, Type (0, 1), BuildingBlock: MIFKUJ_clean_linker_0, # of connection points: 2
#     Edge 33, Type (0, 1), BuildingBlock: MIFKUJ_clean_linker_0, # of connection points: 2
#     Edge 34, Type (0, 1), BuildingBlock: MIFKUJ_clean_linker_0, # of connection points: 2
#     Edge 35, Type (0, 1), BuildingBlock: MIFKUJ_clean_linker_0, # of connection points: 2
# Relax obj value: 0.399
# Max RMSD: 0.261
# Mean RMSD: 0.243
data_MOF--net-zzz--node1-BETFAJ_clean_sbu_0--node2-BELTOD_clean_linker_0--edge1-MIFKUJ_clean_linker_0
_symmetry_space_group_name_H-M    P1
_symmetry_Int_Tables_number       1
_symmetry_cell_setting            triclinic
loop_
_symmetry_equiv_pos_as_xyz
'x, y, z'
_cell_length_a     71.309752
_cell_length_b     71.295694
_cell_length_c     21.37062
_cell_angle_alpha  90.015258
_cell_angle_beta   89.941805
_cell_angle_gamma 89.938892
loop_
_atom_site_label
_atom_site_type_symbol
_atom_site_fract_x
_atom_site_fract_y
_atom_site_fract_z
_atom_type_partial_charge
P0 P 0.71631 0.47627 0.34592 0.0
H1 H 0.73032 0.47251 0.47398 0.0
H2 H 0.75981 0.48169 0.52117 0.0
H3 H 0.77175 0.51685 0.36118 0.0
H4 H 0.74244 0.50667 0.31268 0.0
H5 H 0.67831 0.4632 0.3291 0.0
H6 H 0.6521 0.47512 0.26916 0.0
H7 H 0.68177 0.52717 0.23933 0.0
H8 H 0.70835 0.51489 0.30004 0.0
H9 H 0.7451 0.44773 0.33178 0.0
H10 H 0.71472 0.48558 0.21098 0.0
O11 O 0.70962 0.45786 0.38874 0.0
H12 H 0.76518 0.43878 0.24381 0.0
H13 H 0.73451 0.47658 0.12353 0.0
C14 C 0.734 0.48892 0.38967 0.0
C15 C 0.73896 0.48263 0.44964 0.0
C16 C 0.75599 0.48796 0.47684 0.0
C17 C 0.76853 0.49984 0.44488 0.0
C18 C 0.76277 0.50732 0.38681 0.0
C19 C 0.74576 0.50182 0.35938 0.0
C20 C 0.69527 0.48821 0.32009 0.0
C21 C 0.679 0.47746 0.3119 0.0
C22 C 0.66392 0.48433 0.2772 0.0
C23 C 0.66475 0.50212 0.24897 0.0
C24 C 0.6807 0.51334 0.25994 0.0
C25 C 0.69583 0.50645 0.29542 0.0
C26 C 0.72833 0.46725 0.27822 0.0
C27 C 0.7424 0.45373 0.2861 0.0
C28 C 0.75381 0.44857 0.23576 0.0
C29 C 0.75138 0.45701 0.17686 0.0
C30 C 0.73675 0.46995 0.16852 0.0
C31 C 0.72537 0.47508 0.21879 0.0
P32 P 0.02922 0.71769 0.34176 0.0
H33 H 0.03223 0.73082 0.47104 0.0
H34 H 0.02297 0.76049 0.51858 0.0
H35 H 0.98831 0.77283 0.35841 0.0
H36 H 0.99776 0.743 0.31045 0.0
H37 H 0.04698 0.6831 0.30758 0.0
H38 H 0.03705 0.65638 0.24728 0.0
H39 H 0.97993 0.67693 0.25109 0.0
H40 H 0.99053 0.70458 0.31009 0.0
H41 H 0.05864 0.7453 0.32208 0.0
H42 H 0.01538 0.7188 0.2122 0.0
O43 O 0.04841 0.71239 0.38287 0.0
H44 H 0.0658 0.76612 0.2345 0.0
H45 H 0.02276 0.73917 0.12432 0.0
C46 C 0.01578 0.73458 0.38683 0.0
C47 C 0.02212 0.73951 0.44681 0.0
C48 C 0.01698 0.75665 0.47383 0.0
C49 C 0.00523 0.76923 0.44174 0.0
C50 C 0.99741 0.76348 0.38437 0.0
C51 C 0.0027 0.74631 0.35705 0.0
C52 C 0.01947 0.69571 0.31476 0.0
C53 C 0.03218 0.68163 0.29744 0.0
C54 C 0.02638 0.66617 0.26261 0.0
C55 C 0.00757 0.66417 0.24397 0.0
C56 C 0.99458 0.67796 0.26381 0.0
C57 C 1.00052 0.69367 0.29855 0.0
C58 C 0.0367 0.7303 0.27345 0.0
C59 C 0.05108 0.74357 0.27851 0.0
C60 C 0.0552 0.7554 0.22832 0.0
C61 C 0.04485 0.75423 0.17248 0.0
C62 C 0.0309 0.74045 0.16688 0.0
C63 C 0.02677 0.72868 0.21711 0.0
P64 P 0.78961 0.01877 0.35215 0.0
H65 H 0.77667 0.01607 0.48156 0.0
H66 H 0.74631 0.00752 0.52322 0.0
H67 H 0.73201 0.98165 0.34659 0.0
H68 H 0.76209 0.99145 0.304 0.0
H69 H 0.82765 0.03088 0.32802 0.0
H70 H 0.85139 0.02158 0.25256 0.0
H71 H 0.81617 0.97588 0.19157 0.0
H72 H 0.79234 0.98519 0.26857 0.0
H73 H 0.76626 0.05088 0.38252 0.0
H74 H 0.77989 0.01827 0.21861 0.0
O75 O 0.79973 0.03205 0.40692 0.0
H76 H 0.73893 0.06377 0.32877 0.0
H77 H 0.75257 0.03067 0.16549 0.0
C78 C 0.77203 0.00423 0.3896 0.0
C79 C 0.76737 0.00791 0.45227 0.0
C80 C 0.74977 0.00301 0.47625 0.0
C81 C 0.7363 0.99414 0.43824 0.0
C82 C 0.7417 0.98889 0.37714 0.0
C83 C 0.75926 0.99404 0.35297 0.0
C84 C 0.80821 0.00862 0.30499 0.0
C85 C 0.82515 0.0185 0.2999 0.0
C86 C 0.83879 0.01317 0.25643 0.0
C87 C 0.83575 0.99795 0.21592 0.0
C88 C 0.81893 0.98772 0.22191 0.0
C89 C 0.80532 0.99295 0.26633 0.0
C90 C 0.77524 0.03372 0.30452 0.0
C91 C 0.76388 0.04712 0.33406 0.0
C92 C 0.74812 0.0543 0.30358 0.0
C93 C 0.74344 0.04804 0.24322 0.0
C94 C 0.75585 0.03595 0.21172 0.0
C95 C 0.77158 0.02879 0.24225 0.0
P96 P 0.48239 0.78998 0.35718 0.0
H97 H 0.48681 0.77613 0.48454 0.0
H98 H 0.49684 0.74577 0.52229 0.0
H99 H 0.52113 0.73357 0.3413 0.0
H100 H 0.51013 0.76394 0.30297 0.0
H101 H 0.46372 0.82201 0.30551 0.0
H102 H 0.47224 0.84548 0.22786 0.0
H103 H 0.52809 0.82227 0.21751 0.0
H104 H 0.51935 0.79846 0.29624 0.0
H105 H 0.44998 0.76717 0.39063 0.0
H106 H 0.48209 0.77987 0.22489 0.0
O107 O 0.46999 0.8001 0.41429 0.0
H108 H 0.43431 0.74161 0.335 0.0
H109 H 0.46692 0.75433 0.16972 0.0
C110 C 0.49787 0.77258 0.39094 0.0
C111 C 0.49498 0.76733 0.45347 0.0
C112 C 0.50073 0.74973 0.47514 0.0
C113 C 0.5096 0.73685 0.43482 0.0
C114 C 0.51397 0.74284 0.37357 0.0
C115 C 0.50807 0.76047 0.35182 0.0
C116 C 0.49091 0.80855 0.30707 0.0
C117 C 0.47792 0.82209 0.28746 0.0
C118 C 0.48276 0.83544 0.24263 0.0
C119 C 0.50077 0.83564 0.21612 0.0
C120 C 0.51411 0.82248 0.23733 0.0
C121 C 0.50914 0.80888 0.28221 0.0
C122 C 0.4669 0.77566 0.31152 0.0
C123 C 0.45314 0.76492 0.34162 0.0
C124 C 0.44437 0.75018 0.31 0.0
C125 C 0.4494 0.74589 0.24798 0.0
C126 C 0.46241 0.75744 0.217 0.0
C127 C 0.47114 0.77212 0.24861 0.0
P128 P 0.27518 0.46071 0.05655 0.0
H129 H 0.26708 0.45066 0.92616 0.0
H130 H 0.24182 0.46092 0.85735 0.0
H131 H 0.23007 0.50705 0.98274 0.0
H132 H 0.25595 0.4972 0.04942 0.0
H133 H 0.30741 0.43763 0.0876 0.0
H134 H 0.33658 0.44455 0.14112 0.0
H135 H 0.32491 0.50383 0.12707 0.0
H136 H 0.29558 0.49673 0.07128 0.0
H137 H 0.23635 0.45156 0.08132 0.0
H138 H 0.28157 0.47855 0.18078 0.0
O139 O 0.27432 0.43782 0.0403 0.0
H140 H 0.21418 0.46287 0.15999 0.0
H141 H 0.25949 0.49018 0.25817 0.0
C142 C 0.26329 0.47295 0.99365 0.0
C143 C 0.25959 0.46343 0.93757 0.0
C144 C 0.24484 0.46916 0.89867 0.0
C145 C 0.23333 0.48446 0.91531 0.0
C146 C 0.23846 0.49517 0.96807 0.0
C147 C 0.2534 0.48956 0.00645 0.0
C148 C 0.29925 0.46665 0.07501 0.0
C149 C 0.31133 0.45218 0.09377 0.0
C150 C 0.32798 0.45615 0.12532 0.0
C151 C 0.3329 0.47473 0.13986 0.0
C152 C 0.32155 0.48936 0.11664 0.0
C153 C 0.30483 0.48533 0.08438 0.0
C154 C 0.26058 0.46444 0.12427 0.0
C155 C 0.24159 0.45952 0.12079 0.0
C156 C 0.22892 0.46612 0.16543 0.0
C157 C 0.23508 0.47771 0.21447 0.0
C158 C 0.25434 0.48129 0.22085 0.0
C159 C 0.267 0.47473 0.176 0.0
P160 P 0.0399 0.28445 0.99679 0.0
H161 H 0.03414 0.27305 0.86691 0.0
H162 H 0.02203 0.24367 0.82682 0.0
H163 H 0.99598 0.23255 0.00561 0.0
H164 H 0.00866 0.26199 0.04597 0.0
H165 H 0.06202 0.3123 0.05995 0.0
H166 H 0.05496 0.33689 0.13561 0.0
H167 H 0.99607 0.32322 0.12432 0.0
H168 H 0.00334 0.29842 0.04752 0.0
H169 H 0.06352 0.25334 0.95886 0.0
H170 H 0.04148 0.27589 0.13127 0.0
O171 O 0.05442 0.29301 0.9426 0.0
H172 H 0.06731 0.22284 0.00841 0.0
H173 H 0.04626 0.24579 0.18203 0.0
C174 C 0.02229 0.26995 0.95956 0.0
C175 C 0.02504 0.26484 0.89679 0.0
C176 C 0.01817 0.24778 0.87386 0.0
C177 C 0.00833 0.23537 0.91324 0.0
C178 C 0.00386 0.24149 0.9742 0.0
C179 C 0.01073 0.25862 0.99703 0.0
C180 C 0.03323 0.30358 0.04786 0.0
C181 C 0.04754 0.31469 0.07316 0.0
C182 C 0.0435 0.32866 0.1169 0.0
C183 C 0.02497 0.33194 0.13657 0.0
C184 C 0.01049 0.3211 0.10995 0.0
C185 C 0.01461 0.3069 0.06618 0.0
C186 C 0.05213 0.26689 0.04112 0.0
C187 C 0.06058 0.25205 0.00841 0.0
C188 C 0.06267 0.23454 0.03682 0.0
C189 C 0.05657 0.23177 0.09868 0.0
C190 C 0.05058 0.24738 0.13372 0.0
C191 C 0.04814 0.26475 0.10492 0.0
P192 P 0.22102 0.04915 0.01048 0.0
H193 H 0.23549 0.05503 0.8839 0.0
H194 H 0.26386 0.04386 0.83369 0.0
H195 H 0.27039 1.00207 0.97844 0.0
H196 H 0.24215 0.01386 0.02985 0.0
H197 H 0.18632 0.06702 0.04656 0.0
H198 H 0.15956 0.05713 0.10818 0.0
H199 H 0.18187 1.00082 0.11538 0.0
H200 H 0.20899 0.01099 0.05287 0.0
H201 H 0.24664 0.08066 0.02727 0.0
H202 H 0.2299 0.0314 0.13001 0.0
O203 O 0.2151 0.06853 0.97129 0.0
H204 H 0.27327 0.08479 0.09758 0.0
H205 H 0.25677 0.03476 0.19795 0.0
C206 C 0.23639 0.03528 0.9608 0.0
C207 C 0.24254 0.043 0.90392 0.0
C208 C 0.25898 0.03658 0.87503 0.0
C209 C 0.2698 0.0222 0.90226 0.0
C210 C 0.26275 0.01344 0.9566 0.0
C211 C 0.24628 0.01994 0.98558 0.0
C212 C 0.19961 0.03972 0.04382 0.0
C213 C 0.1853 0.05238 0.05961 0.0
C214 C 0.16989 0.04669 0.09519 0.0
C215 C 0.16842 0.02814 0.11687 0.0
C216 C 0.18258 0.01526 0.09982 0.0
C217 C 0.19803 0.021 0.06351 0.0
C218 C 0.23619 0.05582 0.07365 0.0
C219 C 0.24832 0.07109 0.0662 0.0
C220 C 0.26369 0.07329 0.10601 0.0
C221 C 0.26741 0.05993 0.15289 0.0
C222 C 0.25433 0.04549 0.16308 0.0
C223 C 0.23886 0.04349 0.12385 0.0
P224 P 0.45684 0.2247 0.04544 0.0
H225 H 0.44017 0.24192 0.9346 0.0
H226 H 0.44836 0.27019 0.8768 0.0
H227 H 0.50189 0.27198 0.97026 0.0
H228 H 0.49347 0.24368 0.02949 0.0
H229 H 0.44582 0.18528 0.03582 0.0
H230 H 0.45679 0.15781 0.09224 0.0
H231 H 0.50561 0.18859 0.1532 0.0
H232 H 0.49433 0.21628 0.09696 0.0
H233 H 0.45085 0.26461 0.07047 0.0
H234 H 0.45906 0.21424 0.17944 0.0
O235 O 0.43479 0.21943 0.02617 0.0
H236 H 0.45469 0.28347 0.16411 0.0
H237 H 0.46311 0.23324 0.27363 0.0
C238 C 0.46627 0.24036 0.98617 0.0
C239 C 0.45397 0.24787 0.94135 0.0
C240 C 0.45857 0.26424 0.90864 0.0
C241 C 0.47567 0.27344 0.91945 0.0
C242 C 0.48864 0.26514 0.96067 0.0
C243 C 0.48391 0.24881 0.99413 0.0
C244 C 0.46917 0.20299 0.06206 0.0
C245 C 0.45926 0.18601 0.05918 0.0
C246 C 0.46556 0.1702 0.09184 0.0
C247 C 0.48192 0.17103 0.12848 0.0
C248 C 0.49277 0.18754 0.12642 0.0
C249 C 0.4865 0.20334 0.0932 0.0
C250 C 0.45577 0.23805 0.11704 0.0
C251 C 0.45337 0.25754 0.11447 0.0
C252 C 0.45531 0.26833 0.16838 0.0
C253 C 0.45943 0.25979 0.22603 0.0
C254 C 0.46025 0.24015 0.22953 0.0
C255 C 0.45811 0.22933 0.17548 0.0
Sm256 Sm 0.01198 0.99763 0.71826 0.0
Sm257 Sm 0.98844 0.00969 0.59834 0.0
C258 C 0.02601 0.98763 0.82744 0.0
C259 C 0.02927 0.96872 0.85215 0.0
C260 C 0.01874 0.95368 0.82866 0.0
C261 C 0.02237 0.93545 0.84826 0.0
C262 C 0.03655 0.93187 0.89218 0.0
C263 C 0.04709 0.94696 0.91593 0.0
C264 C 0.04348 0.9653 0.89589 0.0
C265 C 0.03181 0.99994 0.60774 0.0
C266 C 0.99613 0.96489 0.62747 0.0
C267 C 0.97901 0.01943 0.48321 0.0
C268 C 0.98598 0.03232 0.43519 0.0
C269 C 0.99997 0.04542 0.44972 0.0
C270 C 0.00678 0.05748 0.40367 0.0
C271 C 0.99923 0.05702 0.34308 0.0
C272 C 0.98501 0.04414 0.32873 0.0
C273 C 0.97857 0.03168 0.37448 0.0
C274 C 0.96436 1.00049 0.69647 0.0
C275 C 0.0029 0.04264 0.69576 0.0
O276 O 0.00839 0.99216 0.81955 0.0
O277 O 0.03655 0.99235 0.77988 0.0
O278 O 0.01915 0.01134 0.62485 0.0
O279 O 0.03485 0.98742 0.65061 0.0
O280 O 0.99994 0.96933 0.68614 0.0
O281 O 0.99386 0.97788 0.58374 0.0
O282 O 0.98981 0.00502 0.49578 0.0
O283 O 0.97189 0.0273 0.53332 0.0
O284 O 0.98193 1.00019 0.69515 0.0
O285 O 0.95846 0.00552 0.64161 0.0
O286 O 0.99642 0.03874 0.63903 0.0
O287 O 0.00865 0.02942 0.73484 0.0
H288 H 0.00778 0.95597 0.79456 0.0
H289 H 0.01425 0.92411 0.82815 0.0
H290 H 0.05803 0.94459 0.95018 0.0
H291 H 0.05183 0.97675 0.91407 0.0
H292 H 0.00549 0.04643 0.4968 0.0
H293 H 0.01752 0.06759 0.41584 0.0
H294 H 0.9789 0.04379 0.28236 0.0
H295 H 0.96767 0.02171 0.36275 0.0
Sm296 Sm 0.50722 0.01251 0.72839 0.0
Sm297 Sm 0.4967 0.9892 0.60603 0.0
C298 C 0.51536 0.02206 0.84459 0.0
C299 C 0.53157 0.02057 0.88602 0.0
C300 C 0.54776 0.01111 0.86622 0.0
C301 C 0.56428 0.0125 0.90091 0.0
C302 C 0.5648 0.02343 0.95572 0.0
C303 C 0.54824 0.0321 0.97686 0.0
C304 C 0.53175 0.0307 0.94208 0.0
C305 C 0.49756 0.03658 0.63042 0.0
C306 C 0.54161 0.99903 0.63587 0.0
C307 C 0.49011 0.97754 0.49084 0.0
C308 C 0.47453 0.98112 0.44679 0.0
C309 C 0.47422 0.99752 0.41023 0.0
C310 C 0.45811 0.00253 0.37725 0.0
C311 C 0.44205 0.99115 0.37974 0.0
C312 C 0.44284 0.97408 0.41242 0.0
C313 C 0.45895 0.96907 0.44545 0.0
C314 C 0.50071 0.96866 0.7143 0.0
C315 C 0.46294 0.00408 0.69503 0.0
O316 O 0.50663 0.00645 0.83044 0.0
O317 O 0.51786 0.03314 0.79651 0.0
O318 O 0.49756 0.01902 0.63169 0.0
O319 O 0.5028 0.04243 0.68515 0.0
O320 O 0.53697 0.00662 0.69041 0.0
O321 O 0.52897 0.99203 0.59678 0.0
O322 O 0.50098 0.99183 0.50363 0.0
O323 O 0.48602 0.96758 0.5405 0.0
O324 O 0.51097 0.98228 0.69809 0.0
O325 O 0.48871 0.9647 0.67059 0.0
O326 O 0.4678 1.00094 0.63601 0.0
O327 O 0.47565 0.00603 0.73973 0.0
H328 H 0.54783 0.00331 0.8227 0.0
H329 H 0.57676 0.00547 0.88398 0.0
H330 H 0.54826 0.04075 0.01853 0.0
H331 H 0.51937 0.03824 0.95748 0.0
H332 H 0.48611 0.00696 0.40934 0.0
H333 H 0.45791 0.0158 0.35259 0.0
H334 H 0.43077 0.96487 0.41407 0.0
H335 H 0.45887 0.95616 0.47218 0.0
Sm336 Sm 0.48998 0.50888 0.72846 0.0
Sm337 Sm 0.51737 0.49965 0.63019 0.0
C338 C 0.47032 0.52163 0.82491 0.0
C339 C 0.46563 0.5393 0.85597 0.0
C340 C 0.47369 0.55626 0.83656 0.0
C341 C 0.46936 0.57291 0.86796 0.0
C342 C 0.45696 0.57278 0.91923 0.0
C343 C 0.44876 0.55573 0.93776 0.0
C344 C 0.45308 0.53913 0.90633 0.0
C345 C 0.4734 0.49661 0.61915 0.0
C346 C 0.50685 0.54312 0.63958 0.0
C347 C 0.53563 0.48312 0.53811 0.0
C348 C 0.53229 0.46429 0.51279 0.0
C349 C 0.51413 0.45676 0.51536 0.0
C350 C 0.51093 0.43823 0.49838 0.0
C351 C 0.52579 0.42679 0.4782 0.0
C352 C 0.54401 0.43431 0.47554 0.0
C353 C 0.54724 0.45298 0.49285 0.0
C354 C 0.53395 0.51153 0.73953 0.0
C355 C 0.49925 0.46532 0.71451 0.0
O356 O 0.48778 0.51618 0.82907 0.0
O357 O 0.46322 0.5191 0.76927 0.0
O358 O 0.48692 0.50799 0.62247 0.0
O359 O 0.46818 0.49138 0.67461 0.0
O360 O 0.49954 0.53851 0.69449 0.0
O361 O 0.51328 0.53017 0.60118 0.0
O362 O 0.52222 0.49532 0.52862 0.0
O363 O 0.54189 0.48341 0.5955 0.0
O364 O 0.52028 0.50031 0.73592 0.0
O365 O 0.53953 0.51659 0.68421 0.0
O366 O 0.506 0.47038 0.65951 0.0
O367 O 0.49394 0.47808 0.75537 0.0
H368 H 0.48344 0.55657 0.79771 0.0
H369 H 0.47605 0.58579 0.85305 0.0
H370 H 0.43897 0.55523 0.97651 0.0
H371 H 0.44671 0.52612 0.9216 0.0
H372 H 0.50241 0.46509 0.53193 0.0
H373 H 0.49681 0.43275 0.5022 0.0
H374 H 0.5557 0.4258 0.45987 0.0
H375 H 0.56139 0.45848 0.49167 0.0
Sm376 Sm 0.99764 0.48946 0.73334 0.0
Sm377 Sm 0.00657 0.51475 0.61445 0.0
C378 C 0.98418 0.47458 0.83717 0.0
C379 C 0.96514 0.47248 0.86191 0.0
C380 C 0.95082 0.48447 0.84151 0.0
C381 C 0.93224 0.48098 0.85805 0.0
C382 C 0.92768 0.46554 0.89609 0.0
C383 C 0.94223 0.45396 0.91837 0.0
C384 C 0.96081 0.45735 0.90102 0.0
C385 C 0.00785 0.47066 0.62613 0.0
C386 C 0.96261 0.50496 0.64304 0.0
C387 C 0.01844 0.52544 0.50356 0.0
C388 C 0.03544 0.53542 0.48455 0.0
C389 C 0.04362 0.53134 0.42664 0.0
C390 C 0.06193 0.53708 0.41394 0.0
C391 C 0.07235 0.547 0.45911 0.0
C392 C 0.06354 0.55221 0.51539 0.0
C393 C 0.04527 0.54635 0.52819 0.0
C394 C 0.00371 0.53701 0.72078 0.0
C395 C 0.04102 0.50151 0.70962 0.0
O396 O 0.99068 0.49175 0.83425 0.0
O397 O 0.98766 0.46478 0.78673 0.0
O398 O 0.9971 0.48476 0.62864 0.0
O399 O 0.01335 0.46581 0.68185 0.0
O400 O 0.96793 0.49747 0.69706 0.0
O401 O 0.9748 0.51137 0.6015 0.0
O402 O 0.0216 0.50865 0.52632 0.0
O403 O 0.00608 0.53509 0.53588 0.0
O404 O 1.00183 0.51959 0.71606 0.0
O405 O 0.00766 0.54373 0.66591 0.0
O406 O 0.03602 0.50676 0.65245 0.0
O407 O 0.02857 0.49631 0.75222 0.0
H408 H 0.95393 0.49626 0.81137 0.0
H409 H 0.92143 0.49007 0.83941 0.0
H410 H 0.93926 0.44219 0.94879 0.0
H411 H 0.97174 0.44793 0.91702 0.0
H412 H 0.03632 0.52267 0.3929 0.0
H413 H 0.06832 0.53253 0.37052 0.0
H414 H 0.07108 0.56002 0.55081 0.0
H415 H 0.03924 0.54942 0.57361 0.0
H416 H 0.1699 0.00597 0.22204 0.0
H417 H 0.14501 1.0002 0.29844 0.0
H418 H 0.10661 0.03305 0.18763 0.0
H419 H 0.13139 0.03876 0.11083 0.0
H420 H 0.10447 0.04325 0.30743 0.0
H421 H 0.10269 0.98486 0.19681 0.0
H422 H 0.11543 0.95577 0.15092 0.0
H423 H 0.13381 0.93771 0.33247 0.0
H424 H 0.12136 0.9668 0.37936 0.0
H425 H 0.02577 0.02091 0.50233 0.0
H426 H 0.04671 0.02485 0.41197 0.0
H427 H 0.08733 0.98861 0.50051 0.0
H428 H 0.06605 0.98413 0.58865 0.0
H429 H 0.08653 0.98024 0.38503 0.0
H430 H 0.08934 0.03927 0.4954 0.0
H431 H 0.07625 0.06819 0.5414 0.0
H432 H 0.05641 0.08544 0.3608 0.0
H433 H 0.06906 0.05643 0.31379 0.0
C434 C 0.15607 0.01165 0.21314 0.0
C435 C 0.15274 0.02287 0.1601 0.0
C436 C 0.14182 0.00839 0.25711 0.0
C437 C 0.12383 0.01613 0.24894 0.0
C438 C 0.12035 0.02699 0.19536 0.0
C439 C 0.13458 0.03026 0.15142 0.0
C440 C 0.10888 0.01351 0.29732 0.0
C441 C 0.10035 0.02945 0.32375 0.0
C442 C 0.10366 0.99556 0.31961 0.0
C443 C 0.11123 0.97809 0.2915 0.0
C444 C 0.10958 0.97476 0.22687 0.0
C445 C 0.11672 0.95825 0.2007 0.0
C446 C 0.12546 0.94492 0.23873 0.0
C447 C 0.12705 0.94805 0.30305 0.0
C448 C 0.11993 0.96454 0.32947 0.0
C449 C 0.03916 0.01388 0.50215 0.0
C450 C 0.04427 0.00239 0.55262 0.0
C451 C 0.05121 0.01615 0.45068 0.0
C452 C 0.06889 0.00729 0.44945 0.0
C453 C 0.07385 0.99563 0.49985 0.0
C454 C 0.06166 0.99312 0.55051 0.0
C455 C 0.08233 0.01 0.39626 0.0
C456 C 0.09058 0.99407 0.36871 0.0
C457 C 0.08732 0.02798 0.37315 0.0
C458 C 0.07991 0.04553 0.40124 0.0
C459 C 0.08204 0.04915 0.46556 0.0
C460 C 0.0747 0.06556 0.4918 0.0
C461 C 0.06539 0.07858 0.45407 0.0
C462 C 0.06351 0.07527 0.38996 0.0
C463 C 0.07076 0.05885 0.36351 0.0
H464 H 0.05972 0.09127 0.47447 0.0
H465 H 0.13096 0.93214 0.21838 0.0
H466 H 0.49381 0.17436 0.24971 0.0
H467 H 0.49762 0.14968 0.3276 0.0
H468 H 0.48311 0.10803 0.18953 0.0
H469 H 0.47917 0.13279 0.11111 0.0
H470 H 0.46473 0.10117 0.29329 0.0
H471 H 0.52882 0.11295 0.24589 0.0
H472 H 0.55733 0.13183 0.22906 0.0
H473 H 0.55508 0.15096 0.41945 0.0
H474 H 0.5264 0.13239 0.43722 0.0
H475 H 0.4885 0.02656 0.5097 0.0
H476 H 0.4868 0.04716 0.41755 0.0
H477 H 0.49905 0.09491 0.53467 0.0
H478 H 0.50121 0.07438 0.62568 0.0
H479 H 0.51993 0.09609 0.43301 0.0
H480 H 0.45463 0.08278 0.47739 0.0
H481 H 0.4265 0.063 0.48879 0.0
H482 H 0.43132 0.04592 0.29679 0.0
H483 H 0.45993 0.06473 0.28516 0.0
C484 C 0.49186 0.15993 0.23532 0.0
C485 C 0.48631 0.15562 0.17376 0.0
C486 C 0.49398 0.14577 0.28016 0.0
C487 C 0.49084 0.12686 0.26463 0.0
C488 C 0.4856 0.12247 0.20293 0.0
C489 C 0.48337 0.13666 0.15804 0.0
C490 C 0.49227 0.11189 0.31351 0.0
C491 C 0.47695 0.09984 0.32316 0.0
C492 C 0.50809 0.11021 0.35313 0.0
C493 C 0.52537 0.12138 0.34272 0.0
C494 C 0.53433 0.12129 0.28405 0.0
C495 C 0.55053 0.13192 0.27436 0.0
C496 C 0.55799 0.14262 0.32311 0.0
C497 C 0.54928 0.14268 0.38171 0.0
C498 C 0.53306 0.13208 0.39164 0.0
C499 C 0.49084 0.04143 0.51548 0.0
C500 C 0.49514 0.04881 0.57476 0.0
C501 C 0.48976 0.05324 0.46291 0.0
C502 C 0.49277 0.07269 0.46891 0.0
C503 C 0.49677 0.08 0.52847 0.0
C504 C 0.49791 0.06823 0.58065 0.0
C505 C 0.49222 0.08559 0.41374 0.0
C506 C 0.50776 0.09729 0.40287 0.0
C507 C 0.47666 0.08674 0.3726 0.0
C508 C 0.45966 0.07497 0.38068 0.0
C509 C 0.44991 0.07451 0.43795 0.0
C510 C 0.43386 0.0634 0.4445 0.0
C511 C 0.4272 0.05299 0.39378 0.0
C512 C 0.43658 0.05369 0.33643 0.0
C513 C 0.45277 0.06452 0.32989 0.0
H514 H 0.41471 0.0445 0.39876 0.0
H515 H 0.57054 0.15084 0.31552 0.0
H516 H 0.36039 0.50206 0.13422 0.0
H517 H 0.38583 0.50764 0.20975 0.0
H518 H 0.36614 0.46132 0.32156 0.0
H519 H 0.34077 0.45592 0.24758 0.0
H520 H 0.37324 0.49179 0.39279 0.0
H521 H 0.40484 0.45722 0.22792 0.0
H522 H 0.41549 0.45199 0.11947 0.0
H523 H 0.44566 0.50407 0.12341 0.0
H524 H 0.43499 0.50972 0.2317 0.0
H525 H 0.44493 0.47171 0.60405 0.0
H526 H 0.42293 0.46944 0.51681 0.0
H527 H 0.45224 0.51387 0.42091 0.0
H528 H 0.47472 0.51578 0.50773 0.0
H529 H 0.44079 0.48841 0.3382 0.0
H530 H 0.41134 0.52261 0.50273 0.0
H531 H 0.40076 0.52895 0.61057 0.0
H532 H 0.36618 0.47971 0.60618 0.0
H533 H 0.37676 0.47292 0.49859 0.0
C534 C 0.36151 0.49311 0.17496 0.0
C535 C 0.34864 0.4784 0.18434 0.0
C536 C 0.37612 0.49623 0.2179 0.0
C537 C 0.37802 0.48479 0.27122 0.0
C538 C 0.36505 0.4703 0.28081 0.0
C539 C 0.35062 0.46712 0.23801 0.0
C540 C 0.39318 0.4879 0.31824 0.0
C541 C 0.388 0.4909 0.38085 0.0
C542 C 0.41248 0.48742 0.30257 0.0
C543 C 0.41894 0.48399 0.23761 0.0
C544 C 0.41362 0.46763 0.20547 0.0
C545 C 0.41968 0.46458 0.14408 0.0
C546 C 0.4312 0.47772 0.1145 0.0
C547 C 0.43671 0.49392 0.14634 0.0
C548 C 0.43067 0.49705 0.20773 0.0
C549 C 0.4468 0.48088 0.56412 0.0
C550 C 0.46141 0.49408 0.5631 0.0
C551 C 0.43415 0.47965 0.51432 0.0
C552 C 0.43557 0.49183 0.46276 0.0
C553 C 0.45072 0.50442 0.46025 0.0
C554 C 0.46355 0.50552 0.50994 0.0
C555 C 0.42081 0.49176 0.41309 0.0
C556 C 0.42604 0.48944 0.35009 0.0
C557 C 0.40149 0.49307 0.42818 0.0
C558 C 0.39496 0.49718 0.49274 0.0
C559 C 0.40157 0.51307 0.5249 0.0
C560 C 0.39556 0.51675 0.58597 0.0
C561 C 0.38283 0.50472 0.61525 0.0
C562 C 0.37605 0.48901 0.58345 0.0
C563 C 0.38203 0.48524 0.5224 0.0
H564 H 0.3782 0.50759 0.66254 0.0
H565 H 0.43588 0.47533 0.06696 0.0
H566 H 0.99729 0.35895 0.13975 0.0
H567 H 0.99253 0.38341 0.21939 0.0
H568 H 0.03948 0.3618 0.32408 0.0
H569 H 0.04413 0.33737 0.2455 0.0
H570 H 0.00986 0.36965 0.39983 0.0
H571 H 0.04377 0.40073 0.23295 0.0
H572 H 0.04851 0.41159 0.12452 0.0
H573 H 0.99734 0.44327 0.13399 0.0
H574 H 0.99217 0.43238 0.24225 0.0
H575 H 0.03163 0.44109 0.61206 0.0
H576 H 0.03311 0.41874 0.52552 0.0
H577 H 0.98959 0.44929 0.42919 0.0
H578 H 0.98855 0.47214 0.51512 0.0
H579 H 0.01412 0.43725 0.3468 0.0
H580 H 0.9803 0.40809 0.51261 0.0
H581 H 0.97428 0.39733 0.62043 0.0
H582 H 0.02293 0.36186 0.61224 0.0
H583 H 0.02939 0.37261 0.50463 0.0
C584 C 0.00647 0.35935 0.18005 0.0
C585 C 0.02118 0.34628 0.18597 0.0
C586 C 0.00384 0.37342 0.2253 0.0
C587 C 0.01579 0.37461 0.27753 0.0
C588 C 0.03013 0.36126 0.2842 0.0
C589 C 0.03284 0.34735 0.23896 0.0
C590 C 0.01356 0.38967 0.32555 0.0
C591 C 0.01095 0.38442 0.38826 0.0
C592 C 0.01435 0.40901 0.31042 0.0
C593 C 0.01747 0.41556 0.24541 0.0
C594 C 0.03345 0.40988 0.21172 0.0
C595 C 0.03623 0.41607 0.15033 0.0
C596 C 0.0232 0.42807 0.12232 0.0
C597 C 0.00739 0.43395 0.1557 0.0
C598 C 0.00454 0.42778 0.21708 0.0
C599 C 0.02249 0.44315 0.57218 0.0
C600 C 0.00985 0.45827 0.57069 0.0
C601 C 0.02325 0.43027 0.52281 0.0
C602 C 0.0111 0.43196 0.47128 0.0
C603 C 0.99901 0.44754 0.46849 0.0
C604 C 0.99841 0.46059 0.51767 0.0
C605 C 0.01081 0.41721 0.42143 0.0
C606 C 0.01288 0.42249 0.35843 0.0
C607 C 0.0093 0.39786 0.43612 0.0
C608 C 0.00541 0.39127 0.50072 0.0
C609 C 0.98978 0.39808 0.53394 0.0
C610 C 0.98628 0.39198 0.595 0.0
C611 C 0.99824 0.37895 0.62321 0.0
C612 C 0.01369 0.37197 0.59034 0.0
C613 C 0.01726 0.37804 0.52929 0.0
H614 H 0.99551 0.37425 0.67049 0.0
H615 H 0.02538 0.43285 0.0748 0.0
H616 H 0.8741 0.99678 0.22461 0.0
H617 H 0.89686 0.994 0.13943 0.0
H618 H 0.85171 0.98752 0.0071 0.0
H619 H 0.82886 0.99008 0.09236 0.0
H620 H 0.88034 0.965 0.97626 0.0
H621 H 0.87382 0.03031 0.03134 0.0
H622 H 0.87411 0.05745 0.10291 0.0
H623 H 0.93203 0.04703 0.14549 0.0
H624 H 0.932 0.01965 0.0748 0.0
H625 H 0.92672 0.99422 0.69728 0.0
H626 H 0.90607 0.99051 0.78809 0.0
H627 H 0.95367 0.99586 0.91114 0.0
H628 H 0.97425 0.99988 0.82021 0.0
H629 H 0.92512 0.01762 0.94964 0.0
H630 H 0.9325 0.95361 0.89057 0.0
H631 H 0.93259 0.9264 0.81937 0.0
H632 H 0.87378 0.93406 0.78469 0.0
H633 H 0.87339 0.96152 0.85499 0.0
C634 C 0.86901 0.99463 0.17742 0.0
C635 C 0.84962 0.99382 0.16532 0.0
C636 C 0.88205 0.99307 0.12867 0.0
C637 C 0.87605 0.99095 0.06643 0.0
C638 C 0.85674 0.98922 0.05458 0.0
C639 C 0.84366 0.99063 0.10346 0.0
C640 C 0.88979 0.9914 0.01358 0.0
C641 C 0.88999 0.97661 0.9701 0.0
C642 C 0.90279 0.00629 0.00613 0.0
C643 C 0.90285 0.02282 0.04828 0.0
C644 C 0.88658 0.03373 0.0563 0.0
C645 C 0.8867 0.04916 0.09666 0.0
C646 C 0.90307 0.05393 0.12885 0.0
C647 C 0.91936 0.0433 0.1206 0.0
C648 C 0.9193 0.02783 0.08037 0.0
C649 C 0.9328 0.99441 0.74371 0.0
C650 C 0.95219 0.99706 0.75163 0.0
C651 C 0.92099 0.99221 0.79562 0.0
C652 C 0.9283 0.99268 0.85668 0.0
C653 C 0.94769 0.99531 0.86461 0.0
C654 C 0.9595 0.99741 0.8126 0.0
C655 C 0.91559 0.99128 0.91207 0.0
C656 C 0.91556 0.00594 0.95597 0.0
C657 C 0.9028 0.97626 0.91989 0.0
C658 C 0.90296 0.95974 0.87762 0.0
C659 C 0.91961 0.9496 0.86735 0.0
C660 C 0.91971 0.93411 0.82723 0.0
C661 C 0.90321 0.92853 0.79741 0.0
C662 C 0.88656 0.93841 0.80777 0.0
C663 C 0.88639 0.95393 0.8478 0.0
H664 H 0.90331 0.91653 0.76637 0.0
H665 H 0.90313 0.06589 0.16008 0.0
H666 H 0.53082 0.85966 0.20333 0.0
H667 H 0.53577 0.88322 0.12054 0.0
H668 H 0.48485 0.8652 0.03001 0.0
H669 H 0.47991 0.84187 0.11194 0.0
H670 H 0.51371 0.87004 0.94645 0.0
H671 H 0.48532 0.90396 0.11969 0.0
H672 H 0.48393 0.91581 0.22804 0.0
H673 H 0.53618 0.94462 0.20127 0.0
H674 H 0.53798 0.93273 0.09294 0.0
H675 H 0.4792 0.93942 0.75085 0.0
H676 H 0.48419 0.918 0.83802 0.0
H677 H 0.53365 0.94881 0.89176 0.0
H678 H 0.52854 0.97064 0.80392 0.0
H679 H 0.51251 0.93813 0.99465 0.0
H680 H 0.53897 0.90786 0.81748 0.0
H681 H 0.54046 0.89641 0.70873 0.0
H682 H 0.49311 0.86064 0.74246 0.0
H683 H 0.49115 0.87208 0.8512 0.0
C684 C 0.52083 0.86066 0.16534 0.0
C685 C 0.50492 0.84901 0.16432 0.0
C686 C 0.52359 0.87418 0.11834 0.0
C687 C 0.51059 0.8761 0.06923 0.0
C688 C 0.49506 0.86405 0.06735 0.0
C689 C 0.4922 0.85076 0.1144 0.0
C690 C 0.51272 0.89071 0.01977 0.0
C691 C 0.51341 0.88493 0.95703 0.0
C692 C 0.51299 0.91016 0.03346 0.0
C693 C 0.51191 0.91725 0.09855 0.0
C694 C 0.4966 0.91267 0.13712 0.0
C695 C 0.49572 0.91943 0.19847 0.0
C696 C 0.50999 0.9309 0.2216 0.0
C697 C 0.52515 0.93569 0.18335 0.0
C698 C 0.52611 0.92895 0.12197 0.0
C699 C 0.49113 0.94172 0.78121 0.0
C700 C 0.50358 0.95662 0.77009 0.0
C701 C 0.49401 0.9294 0.83102 0.0
C702 C 0.50951 0.93151 0.87087 0.0
C703 C 0.52167 0.9468 0.8614 0.0
C704 C 0.51876 0.95924 0.81121 0.0
C705 C 0.51286 0.91741 0.92129 0.0
C706 C 0.5132 0.92326 0.98406 0.0
C707 C 0.51367 0.89797 0.90775 0.0
C708 C 0.51485 0.89092 0.84246 0.0
C709 C 0.52879 0.89764 0.80162 0.0
C710 C 0.52973 0.89114 0.73997 0.0
C711 C 0.51687 0.87782 0.71868 0.0
C712 C 0.50306 0.87095 0.75903 0.0
C713 C 0.50205 0.87742 0.82071 0.0
H714 H 0.51762 0.87281 0.67093 0.0
H715 H 0.50928 0.93613 0.2691 0.0
H716 H 0.66885 0.51999 0.13587 0.0
H717 H 0.64496 0.52502 0.05557 0.0
H718 H 0.60296 0.50154 0.17777 0.0
H719 H 0.62669 0.49676 0.25869 0.0
H720 H 0.60232 0.48512 0.06381 0.0
H721 H 0.60288 0.54808 0.14254 0.0
H722 H 0.61716 0.57812 0.17393 0.0
H723 H 0.63759 0.58632 0.98687 0.0
H724 H 0.62365 0.55619 0.95453 0.0
H725 H 0.52594 0.50013 0.85887 0.0
H726 H 0.54631 0.50186 0.95093 0.0
H727 H 0.58884 0.52937 0.84045 0.0
H728 H 0.56827 0.52823 0.749 0.0
H729 H 0.58823 0.54445 0.95211 0.0
H730 H 0.59014 0.48125 0.87431 0.0
H731 H 0.57681 0.45099 0.84064 0.0
H732 H 0.55314 0.44282 0.02344 0.0
H733 H 0.56613 0.47318 0.05796 0.0
C734 C 0.65445 0.51637 0.14645 0.0
C735 C 0.64978 0.50787 0.20387 0.0
C736 C 0.64079 0.51918 0.10025 0.0
C737 C 0.62212 0.51363 0.11044 0.0
C738 C 0.61727 0.50583 0.16856 0.0
C739 C 0.63089 0.50308 0.2148 0.0
C740 C 0.60795 0.51476 0.05922 0.0
C741 C 0.599 0.49817 0.04015 0.0
C742 C 0.60398 0.53165 0.02696 0.0
C743 C 0.61237 0.54978 0.04626 0.0
C744 C 0.61055 0.55621 0.10821 0.0
C745 C 0.61856 0.57327 0.12616 0.0
C746 C 0.62832 0.5841 0.08246 0.0
C747 C 0.63005 0.57791 0.02068 0.0
C748 C 0.62208 0.56085 0.00251 0.0
C749 C 0.53956 0.50671 0.85444 0.0
C750 C 0.54557 0.51388 0.79654 0.0
C751 C 0.55126 0.5076 0.90702 0.0
C752 C 0.56934 0.5154 0.90257 0.0
C753 C 0.57503 0.52322 0.84526 0.0
C754 C 0.56326 0.5225 0.79287 0.0
C755 C 0.58259 0.5148 0.95669 0.0
C756 C 0.59143 0.53143 0.97611 0.0
C757 C 0.58663 0.4979 0.98898 0.0
C758 C 0.57894 0.47957 0.9685 0.0
C759 C 0.58199 0.47306 0.90719 0.0
C760 C 0.57451 0.45588 0.88797 0.0
C761 C 0.56409 0.44501 0.92982 0.0
C762 C 0.56119 0.45127 0.99105 0.0
C763 C 0.56861 0.46845 0.01048 0.0
H764 H 0.5583 0.43172 0.91484 0.0
H765 H 0.6345 0.59731 0.09645 0.0
H766 H 0.0222 0.62836 0.23663 0.0
H767 H 0.01862 0.60593 0.15203 0.0
H768 H 0.97581 0.64077 0.06929 0.0
H769 H 0.9808 0.66433 0.15019 0.0
H770 H 0.99628 0.58393 0.10348 0.0
H771 H 0.97534 0.63799 0.91381 0.0
H772 H 0.97921 0.67171 0.89104 0.0
H773 H 0.02971 0.67281 1.0003 0.0
H774 H 0.02625 0.63906 0.02304 0.0
H775 H 0.98116 0.53132 0.823 0.0
H776 H 0.97808 0.55156 0.91532 0.0
H777 H 0.02169 0.58754 0.84263 0.0
H778 H 0.02352 0.56821 0.7486 0.0
H779 H 0.99869 0.60875 0.88699 0.0
H780 H 0.02641 0.55305 0.97262 0.0
H781 H 0.02886 0.5192 0.99513 0.0
H782 H 0.97647 0.52107 0.09421 0.0
H783 H 0.9736 0.5549 0.07161 0.0
C784 C 0.01216 0.63149 0.20012 0.0
C785 C 0.0023 0.64865 0.1997 0.0
C786 C 0.0099 0.61839 0.15194 0.0
C787 C 0.99736 0.62178 0.10258 0.0
C788 C 0.98612 0.63802 0.10531 0.0
C789 C 0.98876 0.65142 0.15259 0.0
C790 C 0.99703 0.60895 0.04689 0.0
C791 C 0.99677 0.5894 0.05616 0.0
C792 C 0.99808 0.61584 0.98472 0.0
C793 C 1.00039 0.63608 0.9707 0.0
C794 C 0.98729 0.64543 0.93279 0.0
C795 C 0.98941 0.66454 0.91993 0.0
C796 C 0.00466 0.67441 0.94441 0.0
C797 C 0.01787 0.66517 0.98156 0.0
C798 C 0.01583 0.64606 0.99446 0.0
C799 C 0.9901 0.54353 0.82721 0.0
C800 C 0.00262 0.54821 0.77893 0.0
C801 C 0.98844 0.55508 0.8802 0.0
C802 C 0.99983 0.57111 0.88713 0.0
C803 C 0.01257 0.57545 0.83888 0.0
C804 C 0.01373 0.56432 0.78515 0.0
C805 C 0.99842 0.58366 0.9434 0.0
C806 C 0.99818 0.60321 0.93422 0.0
C807 C 0.99792 0.57673 0.00564 0.0
C808 C 0.9997 0.55645 0.01987 0.0
C809 C 0.01536 0.54621 0.99892 0.0
C810 C 0.01683 0.52704 0.01171 0.0
C811 C 0.0028 0.51798 0.04591 0.0
C812 C 0.98731 0.5281 0.06762 0.0
C813 C 0.98576 0.54727 0.05488 0.0
H814 H 0.00395 0.50313 0.05572 0.0
H815 H 0.00626 0.68921 0.93446 0.0
H816 H 0.02625 0.21937 0.16344 0.0
H817 H 0.01914 0.18758 0.19621 0.0
H818 H 0.07138 0.1682 0.11726 0.0
H819 H 0.07883 0.20037 0.08459 0.0
H820 H 0.04157 0.14565 0.08575 0.0
H821 H 0.06705 0.17155 0.2737 0.0
H822 H 0.07075 0.19495 0.35775 0.0
H823 H 0.01321 0.18735 0.41132 0.0
H824 H 0.00908 0.1641 0.327 0.0
H825 H 0.03388 0.06128 0.29215 0.0
H826 H 0.04537 0.08879 0.23422 0.0
H827 H 0.9897 0.11246 0.23704 0.0
H828 H 0.97817 0.08486 0.2938 0.0
H829 H 0.02443 0.13131 0.30548 0.0
H830 H 0.99893 0.10742 0.11044 0.0
H831 H 0.99534 0.08488 0.02375 0.0
H832 H 0.0543 0.08842 0.98459 0.0
H833 H 0.05828 0.11077 0.07175 0.0
C834 C 0.03654 0.20851 0.15447 0.0
C835 C 0.05334 0.21252 0.12269 0.0
C836 C 0.03235 0.19028 0.17282 0.0
C837 C 0.04487 0.17561 0.16012 0.0
C838 C 0.0616 0.17941 0.12788 0.0
C839 C 0.06585 0.19776 0.10941 0.0
C840 C 0.04004 0.15633 0.17984 0.0
C841 C 0.03829 0.14234 0.13399 0.0
C842 C 0.03528 0.15224 0.24264 0.0
C843 C 0.03774 0.16616 0.29372 0.0
C844 C 0.05515 0.17496 0.30312 0.0
C845 C 0.05733 0.18818 0.35086 0.0
C846 C 0.04221 0.19266 0.38979 0.0
C847 C 0.0249 0.18388 0.38113 0.0
C848 C 0.02264 0.17066 0.33342 0.0
C849 C 0.02408 0.07214 0.27848 0.0
C850 C 0.00524 0.07116 0.29722 0.0
C851 C 0.03058 0.08771 0.24528 0.0
C852 C 0.01831 0.10249 0.23125 0.0
C853 C 0.99927 0.10102 0.2469 0.0
C854 C 0.99272 0.08533 0.27917 0.0
C855 C 0.02585 0.12075 0.21125 0.0
C856 C 0.02812 0.13452 0.25737 0.0
C857 C 0.03121 0.12453 0.14894 0.0
C858 C 0.02895 0.11053 0.09826 0.0
C859 C 0.01118 0.10315 0.08405 0.0
C860 C 0.00906 0.09048 0.03461 0.0
C861 C 0.02459 0.08515 0.99885 0.0
C862 C 0.04229 0.09249 0.01248 0.0
C863 C 0.04448 0.10516 0.06189 0.0
H864 H 0.02291 0.07539 0.96048 0.0
H865 H 0.04393 0.2029 0.42672 0.0
H866 H 0.27567 0.04927 0.27356 0.0
H867 H 0.30645 0.04059 0.31392 0.0
H868 H 0.33228 0.06051 0.14381 0.0
H869 H 0.30159 0.06796 0.10137 0.0
H870 H 0.34283 0.02646 0.16542 0.0
H871 H 0.3388 0.08215 0.29113 0.0
H872 H 0.32431 0.10423 0.36578 0.0
H873 H 0.32346 0.06135 0.50679 0.0
H874 H 0.33771 0.03893 0.43275 0.0
H875 H 0.43614 0.00802 0.26646 0.0
H876 H 0.40708 0.02237 0.22902 0.0
H877 H 0.37844 0.00363 0.39568 0.0
H878 H 0.40761 0.99005 0.4345 0.0
H879 H 0.37032 0.03871 0.37444 0.0
H880 H 0.3719 0.98262 0.2485 0.0
H881 H 0.38582 0.9599 0.17479 0.0
H882 H 0.39064 0.00299 0.0354 0.0
H883 H 0.3769 0.02603 0.10848 0.0
C884 C 0.28792 0.05201 0.24498 0.0
C885 C 0.28605 0.0591 0.18385 0.0
C886 C 0.30555 0.04724 0.26847 0.0
C887 C 0.3217 0.04989 0.23185 0.0
C888 C 0.32 0.05829 0.1728 0.0
C889 C 0.30238 0.06278 0.14891 0.0
C890 C 0.33996 0.04193 0.25168 0.0
C891 C 0.34902 0.02945 0.21071 0.0
C892 C 0.34772 0.04532 0.31151 0.0
C893 C 0.3392 0.05882 0.35618 0.0
C894 C 0.3354 0.07739 0.33791 0.0
C895 C 0.32725 0.08997 0.38015 0.0
C896 C 0.32293 0.08418 0.44094 0.0
C897 C 0.3268 0.06581 0.45968 0.0
C898 C 0.33493 0.05317 0.41761 0.0
C899 C 0.4236 0.00688 0.29484 0.0
C900 C 0.42412 0.99791 0.35329 0.0
C901 C 0.40697 0.01495 0.27325 0.0
C902 C 0.39055 0.01397 0.3094 0.0
C903 C 0.39096 0.0046 0.36708 0.0
C904 C 0.40758 0.99664 0.38885 0.0
C905 C 0.37307 0.02321 0.28829 0.0
C906 C 0.36416 0.03589 0.329 0.0
C907 C 0.36537 0.01993 0.22835 0.0
C908 C 0.37354 0.00608 0.1842 0.0
C909 C 0.37604 0.98728 0.20227 0.0
C910 C 0.38387 0.97434 0.16056 0.0
C911 C 0.38914 0.98001 0.10049 0.0
C912 C 0.38655 0.99863 0.08193 0.0
C913 C 0.37872 0.01162 0.12345 0.0
H914 H 0.39521 0.96998 0.06828 0.0
H915 H 0.31662 0.09395 0.47356 0.0
H916 H 0.44206 0.29122 0.26995 0.0
H917 H 0.45662 0.31557 0.33391 0.0
H918 H 0.50446 0.27981 0.36547 0.0
H919 H 0.49008 0.2554 0.30079 0.0
H920 H 0.49274 0.3085 0.47013 0.0
H921 H 0.51212 0.30184 0.25445 0.0
H922 H 0.50608 0.2962 0.1424 0.0
H923 H 0.47086 0.34503 0.13534 0.0
H924 H 0.47635 0.35071 0.24779 0.0
H925 H 0.5459 0.39508 0.50752 0.0
H926 H 0.53821 0.36254 0.47942 0.0
H927 H 0.48901 0.38201 0.38144 0.0
H928 H 0.49693 0.41426 0.40704 0.0
H929 H 0.50822 0.35747 0.31326 0.0
H930 H 0.4885 0.3632 0.53259 0.0
H931 H 0.49419 0.36755 0.64551 0.0
H932 H 0.53105 0.32 0.64671 0.0
H933 H 0.52597 0.31554 0.53347 0.0
C934 C 0.45538 0.28831 0.29231 0.0
C935 C 0.46512 0.27163 0.2795 0.0
C936 C 0.46361 0.30215 0.32911 0.0
C937 C 0.48167 0.29948 0.35346 0.0
C938 C 0.49047 0.28202 0.34712 0.0
C939 C 0.48223 0.26812 0.31013 0.0
C940 C 0.49255 0.31605 0.37267 0.0
C941 C 0.49647 0.31914 0.43606 0.0
C942 C 0.49751 0.3297 0.32771 0.0
C943 C 0.49452 0.3266 0.25968 0.0
C944 C 0.50296 0.31128 0.22914 0.0
C945 C 0.49964 0.30808 0.16554 0.0
C946 C 0.48807 0.32023 0.13178 0.0
C947 C 0.47981 0.33562 0.16156 0.0
C948 C 0.48302 0.33884 0.22523 0.0
C949 C 0.53359 0.39235 0.47933 0.0
C950 C 0.52196 0.40717 0.45967 0.0
C951 C 0.52912 0.37379 0.46396 0.0
C952 C 0.51294 0.36989 0.42894 0.0
C953 C 0.50153 0.38472 0.40867 0.0
C954 C 0.50601 0.40314 0.42367 0.0
C955 C 0.50768 0.35053 0.41146 0.0
C956 C 0.5049 0.34679 0.34771 0.0
C957 C 0.50399 0.33633 0.45627 0.0
C958 C 0.50706 0.33919 0.52429 0.0
C959 C 0.49798 0.35379 0.55672 0.0
C960 C 0.50106 0.35625 0.62083 0.0
C961 C 0.51297 0.3441 0.65321 0.0
C962 C 0.52185 0.32943 0.62155 0.0
C963 C 0.5189 0.32694 0.5574 0.0
H964 H 0.5153 0.34603 0.7028 0.0
H965 H 0.48553 0.31773 0.08254 0.0
H966 H 0.23593 0.48317 0.34177 0.0
H967 H 0.21361 0.50144 0.40495 0.0
H968 H 0.1813 0.51338 0.23902 0.0
H969 H 0.20352 0.49555 0.17599 0.0
H970 H 0.18702 0.54486 0.31282 0.0
H971 H 0.16833 0.47886 0.3386 0.0
H972 H 0.17306 0.44617 0.37302 0.0
H973 H 0.18416 0.46518 0.56006 0.0
H974 H 0.17976 0.498 0.52643 0.0
H975 H 0.09144 0.55579 0.35174 0.0
H976 H 0.12473 0.55128 0.3328 0.0
H977 H 0.13338 0.53982 0.52908 0.0
H978 H 0.09983 0.54293 0.54746 0.0
H979 H 0.14649 0.51293 0.46817 0.0
H980 H 0.1561 0.57772 0.44923 0.0
H981 H 0.15027 0.61048 0.41797 0.0
H982 H 0.15658 0.59536 0.22461 0.0
H983 H 0.16216 0.56245 0.25451 0.0
C984 C 0.22405 0.48972 0.31899 0.0
C985 C 0.22132 0.48776 0.25414 0.0
C986 C 0.21135 0.50012 0.35502 0.0
C987 C 0.19586 0.50876 0.32652 0.0
C988 C 0.19323 0.50689 0.26182 0.0
C989 C 0.20579 0.49647 0.22602 0.0
C990 C 0.18181 0.51928 0.36335 0.0
C991 C 0.17812 0.53799 0.34701 0.0
C992 C 0.1709 0.51055 0.41019 0.0
C993 C 0.17403 0.49087 0.4298 0.0
C994 C 0.17202 0.47607 0.38686 0.0
C995 C 0.17459 0.45752 0.40627 0.0
C996 C 0.179 0.4536 0.46862 0.0
C997 C 0.18085 0.46823 0.5117 0.0
C998 C 0.17836 0.48681 0.49248 0.0
C999 C 0.10046 0.55263 0.39109 0.0
C1000 C 0.09288 0.5494 0.45081 0.0
C1001 C 0.11962 0.55036 0.38043 0.0
C1002 C 0.13168 0.54527 0.42958 0.0
C1003 C 0.12438 0.54374 0.49039 0.0
C1004 C 0.10516 0.5457 0.50091 0.0
C1005 C 0.15083 0.53831 0.41514 0.0
C1006 C 0.15563 0.52023 0.43579 0.0
C1007 C 0.16283 0.54773 0.37277 0.0
C1008 C 0.15953 0.56756 0.35423 0.0
C1009 C 0.15614 0.58134 0.4 0.0
C1010 C 0.15289 0.59995 0.38251 0.0
C1011 C 0.15305 0.605 0.31935 0.0
C1012 C 0.15649 0.59144 0.27354 0.0
C1013 C 0.15974 0.5728 0.29075 0.0
H1014 H 0.15053 0.61942 0.30591 0.0
H1015 H 0.18092 0.43923 0.48359 0.0
H1016 H 0.01723 0.77266 0.10986 0.0
H1017 H 0.0205 0.79977 0.04178 0.0
H1018 H 0.08074 0.79626 0.05726 0.0
H1019 H 0.07754 0.76894 0.12605 0.0
H1020 H 0.06854 0.82997 0.08787 0.0
H1021 H 0.05835 0.78906 0.91539 0.0
H1022 H 0.04296 0.7641 0.85434 0.0
H1023 H 0.9921 0.79634 0.84863 0.0
H1024 H 0.00707 0.82137 0.91045 0.0
H1025 H 0.07052 0.91466 0.90882 0.0
H1026 H 0.07625 0.88201 0.93904 0.0
H1027 H 0.0166 0.87248 0.9503 0.0
H1028 H 0.01078 0.90497 0.92053 0.0
H1029 H 0.03439 0.84382 0.89114 0.0
H1030 H 0.0418 0.88035 0.08081 0.0
H1031 H 0.05568 0.90541 0.14547 0.0
H1032 H 0.11031 0.88105 0.12129 0.0
H1033 H 0.09675 0.85597 0.05579 0.0
C1034 C 0.03121 0.77724 0.09722 0.0
C1035 C 0.04714 0.7687 0.1234 0.0
C1036 C 0.03306 0.79276 0.05812 0.0
C1037 C 0.05087 0.79994 0.04394 0.0
C1038 C 0.06687 0.79089 0.06754 0.0
C1039 C 0.06502 0.77537 0.10695 0.0
C1040 C 0.05248 0.81825 0.01185 0.0
C1041 C 0.06153 0.83286 0.04387 0.0
C1042 C 0.04292 0.82212 0.95529 0.0
C1043 C 0.03384 0.80708 0.9179 0.0
C1044 C 0.04384 0.79078 0.90153 0.0
C1045 C 0.03519 0.77662 0.8667 0.0
C1046 C 0.01656 0.77862 0.84768 0.0
C1047 C 0.00654 0.7948 0.86337 0.0
C1048 C 0.01511 0.809 0.89822 0.0
C1049 C 0.05866 0.90564 0.91839 0.0
C1050 C 0.04021 0.91237 0.91249 0.0
C1051 C 0.06194 0.88698 0.93511 0.0
C1052 C 0.04683 0.87488 0.94685 0.0
C1053 C 0.02844 0.88157 0.94084 0.0
C1054 C 0.02515 0.90014 0.92397 0.0
C1055 C 0.04999 0.85542 0.96812 0.0
C1056 C 0.04183 0.84071 0.93416 0.0
C1057 C 0.06017 0.85143 0.02324 0.0
C1058 C 0.06831 0.86644 0.06279 0.0
C1059 C 0.05679 0.88043 0.08889 0.0
C1060 C 0.06459 0.89462 0.12575 0.0
C1061 C 0.08388 0.89486 0.13729 0.0
C1062 C 0.09538 0.88087 0.11218 0.0
C1063 C 0.08765 0.86667 0.07521 0.0
H1064 H 0.08989 0.90586 0.16583 0.0
H1065 H 0.00989 0.76764 0.82073 0.0
H1066 H 0.71012 0.04692 0.30579 0.0
H1067 H 0.6788 0.0462 0.26043 0.0
H1068 H 0.70226 0.05461 0.07663 0.0
H1069 H 0.73375 0.05596 0.12181 0.0
H1070 H 0.66954 0.07281 0.08832 0.0
H1071 H 0.69336 0.0115 0.13676 0.0
H1072 H 0.70552 0.98564 0.20164 0.0
H1073 H 0.65488 0.98601 0.31053 0.0
H1074 H 0.64282 0.01247 0.24847 0.0
H1075 H 0.59864 0.03142 0.90264 0.0
H1076 H 0.62807 0.03865 0.9557 0.0
H1077 H 0.60095 0.03156 0.1347 0.0
H1078 H 0.57152 0.02379 0.08181 0.0
H1079 H 0.63449 0.014 0.12947 0.0
H1080 H 0.61053 0.075 0.08084 0.0
H1081 H 0.59762 0.09974 0.01271 0.0
H1082 H 0.64759 0.09847 0.90049 0.0
H1083 H 0.6607 0.07352 0.96745 0.0
C1084 C 0.70863 0.04929 0.25598 0.0
C1085 C 0.72446 0.05141 0.21726 0.0
C1086 C 0.6907 0.04868 0.23014 0.0
C1087 C 0.68826 0.04998 0.16523 0.0
C1088 C 0.70387 0.05343 0.12689 0.0
C1089 C 0.72184 0.05411 0.15268 0.0
C1090 C 0.66968 0.04636 0.13695 0.0
C1091 C 0.66194 0.0599 0.09693 0.0
C1092 C 0.6596 0.02962 0.14929 0.0
C1093 C 0.66728 0.01419 0.1884 0.0
C1094 C 0.68496 0.00633 0.17532 0.0
C1095 C 0.69185 0.99155 0.21166 0.0
C1096 C 0.68103 0.98424 0.2604 0.0
C1097 C 0.66334 0.99177 0.27315 0.0
C1098 C 0.65651 0.00673 0.23763 0.0
C1099 C 0.599 0.03115 0.9533 0.0
C1100 C 0.58279 0.02697 0.98812 0.0
C1101 C 0.61575 0.03554 0.98351 0.0
C1102 C 0.61658 0.03593 0.04905 0.0
C1103 C 0.60053 0.03147 0.08402 0.0
C1104 C 0.58374 0.0271 0.05381 0.0
C1105 C 0.63439 0.04043 0.08105 0.0
C1106 C 0.64201 0.02701 0.12154 0.0
C1107 C 0.64434 0.05721 0.06908 0.0
C1108 C 0.63653 0.07228 0.02888 0.0
C1109 C 0.61871 0.07989 0.04135 0.0
C1110 C 0.61137 0.09397 0.00299 0.0
C1111 C 0.62176 0.10065 0.95222 0.0
C1112 C 0.63955 0.09328 0.9398 0.0
C1113 C 0.64695 0.07918 0.97799 0.0
H1114 H 0.61605 0.11155 0.92257 0.0
H1115 H 0.68633 0.97271 0.28819 0.0
H1116 H 0.44634 0.71138 0.30268 0.0
H1117 H 0.44258 0.6813 0.24994 0.0
H1118 H 0.43636 0.70974 0.07304 0.0
H1119 H 0.43924 0.74001 0.12587 0.0
H1120 H 0.41493 0.67888 0.07667 0.0
H1121 H 0.47855 0.69517 0.12473 0.0
H1122 H 0.50527 0.7039 0.19174 0.0
H1123 H 0.49969 0.65227 0.29337 0.0
H1124 H 0.47267 0.64339 0.22776 0.0
H1125 H 0.45009 0.60785 0.87229 0.0
H1126 H 0.44467 0.63679 0.93133 0.0
H1127 H 0.44913 0.60599 0.10445 0.0
H1128 H 0.45507 0.57715 0.0459 0.0
H1129 H 0.4702 0.6374 0.10517 0.0
H1130 H 0.4068 0.62093 0.05244 0.0
H1131 H 0.38102 0.61236 0.98114 0.0
H1132 H 0.38771 0.66444 0.88276 0.0
H1133 H 0.41371 0.67321 0.95296 0.0
C1134 C 0.44348 0.71132 0.25291 0.0
C1135 C 0.44331 0.72811 0.21828 0.0
C1136 C 0.44154 0.69408 0.22277 0.0
C1137 C 0.43967 0.6933 0.15747 0.0
C1138 C 0.43797 0.71004 0.12344 0.0
C1139 C 0.43976 0.72731 0.15361 0.0
C1140 C 0.44133 0.6752 0.12404 0.0
C1141 C 0.42706 0.66985 0.08258 0.0
C1142 C 0.45712 0.66336 0.13228 0.0
C1143 C 0.47335 0.66875 0.17196 0.0
C1144 C 0.48285 0.68577 0.16186 0.0
C1145 C 0.49808 0.69074 0.19953 0.0
C1146 C 0.50412 0.67867 0.24692 0.0
C1147 C 0.49494 0.66163 0.25681 0.0
C1148 C 0.47965 0.65664 0.21944 0.0
C1149 C 0.44995 0.60727 0.92293 0.0
C1150 C 0.45298 0.59024 0.95448 0.0
C1151 C 0.44667 0.62376 0.95655 0.0
C1152 C 0.4463 0.62346 0.02221 0.0
C1153 C 0.44926 0.60647 0.05377 0.0
C1154 C 0.45252 0.59 0.02025 0.0
C1155 C 0.44375 0.641 0.05822 0.0
C1156 C 0.45796 0.64631 0.09986 0.0
C1157 C 0.42803 0.65284 0.04965 0.0
C1158 C 0.41231 0.64765 0.00765 0.0
C1159 C 0.40287 0.63049 0.01532 0.0
C1160 C 0.3882 0.62561 0.97515 0.0
C1161 C 0.38276 0.63783 0.92736 0.0
C1162 C 0.39195 0.65498 0.91976 0.0
C1163 C 0.40664 0.65992 0.95977 0.0
H1164 H 0.3714 0.63403 0.89631 0.0
H1165 H 0.51601 0.68247 0.2757 0.0
H1166 H 0.76657 0.42378 0.13668 0.0
H1167 H 0.79339 0.41983 0.06599 0.0
H1168 H 0.79498 0.47967 0.03594 0.0
H1169 H 0.76813 0.48362 0.1052 0.0
H1170 H 0.8052 0.46165 0.93155 0.0
H1171 H 0.82042 0.4589 0.15342 0.0
H1172 H 0.81744 0.44582 0.25982 0.0
H1173 H 0.83519 0.39188 0.19244 0.0
H1174 H 0.838 0.40462 0.0854 0.0
H1175 H 0.89953 0.49058 0.92148 0.0
H1176 H 0.86686 0.48376 0.9461 0.0
H1177 H 0.8781 0.42446 0.93252 0.0
H1178 H 0.91074 0.43111 0.90517 0.0
H1179 H 0.86029 0.43565 0.04391 0.0
H1180 H 0.85221 0.44216 0.82449 0.0
H1181 H 0.85568 0.45684 0.7207 0.0
H1182 H 0.82559 0.50537 0.78473 0.0
H1183 H 0.82218 0.49113 0.88932 0.0
C1184 C 0.77245 0.43601 0.11393 0.0
C1185 C 0.7654 0.45401 0.12679 0.0
C1186 C 0.78771 0.43375 0.07353 0.0
C1187 C 0.79635 0.4495 0.04658 0.0
C1188 C 0.7885 0.46732 0.05606 0.0
C1189 C 0.77315 0.46956 0.09577 0.0
C1190 C 0.81485 0.44797 0.01549 0.0
C1191 C 0.81726 0.45593 0.9559 0.0
C1192 C 0.8305 0.44019 0.04692 0.0
C1193 C 0.82918 0.43263 0.11139 0.0
C1194 C 0.82359 0.44423 0.1613 0.0
C1195 C 0.82194 0.43688 0.22168 0.0
C1196 C 0.82605 0.41801 0.23282 0.0
C1197 C 0.83195 0.40648 0.18368 0.0
C1198 C 0.83357 0.41375 0.12316 0.0
C1199 C 0.89503 0.47609 0.92243 0.0
C1200 C 0.9078 0.4614 0.91138 0.0
C1201 C 0.87635 0.47222 0.93655 0.0
C1202 C 0.8701 0.45363 0.94035 0.0
C1203 C 0.88271 0.43891 0.92946 0.0
C1204 C 0.90138 0.44275 0.91454 0.0
C1205 C 0.85072 0.44974 0.96072 0.0
C1206 C 0.84817 0.44087 0.01857 0.0
C1207 C 0.83506 0.45691 0.92796 0.0
C1208 C 0.83702 0.46558 0.86501 0.0
C1209 C 0.84645 0.45603 0.81667 0.0
C1210 C 0.84839 0.46426 0.75763 0.0
C1211 C 0.84085 0.48202 0.74611 0.0
C1212 C 0.83139 0.4916 0.79369 0.0
C1213 C 0.82943 0.48344 0.85287 0.0
H1214 H 0.84233 0.48833 0.7003 0.0
H1215 H 0.8247 0.41231 0.27953 0.0
H1216 H 0.01069 0.20318 0.98377 0.0
H1217 H 0.0083 0.17073 0.94854 0.0
H1218 H 0.99701 0.18974 0.76076 0.0
H1219 H 0.99839 0.2223 0.79631 0.0
H1220 H 0.97629 0.16019 0.78466 0.0
H1221 H 0.04116 0.17553 0.81288 0.0
H1222 H 0.06893 0.1864 0.87103 0.0
H1223 H 0.06317 0.14053 0.99953 0.0
H1224 H 0.03481 0.12982 0.94387 0.0
H1225 H 0.99718 0.07479 0.62674 0.0
H1226 H 0.9975 0.10729 0.66374 0.0
H1227 H 0.00979 0.0882 0.85076 0.0
H1228 H 0.01004 0.05582 0.81391 0.0
H1229 H 0.02991 0.11776 0.82788 0.0
H1230 H 0.9646 0.10313 0.80293 0.0
H1231 H 0.9365 0.09233 0.74622 0.0
H1232 H 0.94367 0.13636 0.61125 0.0
H1233 H 0.97195 0.14727 0.66674 0.0
C1234 C 0.00721 0.20055 0.93526 0.0
C1235 C 0.00479 0.21554 0.89297 0.0
C1236 C 0.00613 0.18189 0.91491 0.0
C1237 C 0.0029 0.17766 0.85155 0.0
C1238 C 0.99968 0.19255 0.80977 0.0
C1239 C 1.00062 0.21122 0.83015 0.0
C1240 C 0.00338 0.15783 0.82839 0.0
C1241 C 0.98814 0.15101 0.79352 0.0
C1242 C 0.01864 0.14558 0.8409 0.0
C1243 C 0.03569 0.152 0.87456 0.0
C1244 C 0.04564 0.16789 0.85404 0.0
C1245 C 0.06146 0.17406 0.88669 0.0
C1246 C 0.06769 0.16425 0.93932 0.0
C1247 C 0.05816 0.14822 0.95923 0.0
C1248 C 0.04219 0.14212 0.92724 0.0
C1249 C 1.0 0.07749 0.67581 0.0
C1250 C 0.00353 0.06257 0.71728 0.0
C1251 C 1.00007 0.09613 0.697 0.0
C1252 C 0.00336 0.10033 0.76046 0.0
C1253 C 0.00719 0.08546 0.80166 0.0
C1254 C 0.00729 0.06685 0.78044 0.0
C1255 C 0.00282 0.12012 0.78411 0.0
C1256 C 0.01805 0.12694 0.81908 0.0
C1257 C 0.98756 0.13236 0.77184 0.0
C1258 C 0.97049 0.1259 0.73866 0.0
C1259 C 0.96025 0.11043 0.76093 0.0
C1260 C 0.94428 0.1043 0.72904 0.0
C1261 C 0.93833 0.11362 0.67508 0.0
C1262 C 0.94831 0.12913 0.653 0.0
C1263 C 0.9643 0.13531 0.68468 0.0
H1264 H 0.92597 0.10885 0.65044 0.0
H1265 H 0.07996 0.16903 0.96448 0.0
H1266 H 0.2821 0.02177 0.77944 0.0
H1267 H 0.31417 0.01813 0.74113 0.0
H1268 H 0.33335 0.0084 0.92967 0.0
H1269 H 0.30156 0.01307 0.96871 0.0
H1270 H 0.35585 0.03184 0.87599 0.0
H1271 H 0.32965 0.97259 0.81299 0.0
H1272 H 0.30704 0.95178 0.76016 0.0
H1273 H 0.32099 0.97651 0.58295 0.0
H1274 H 0.34353 0.99763 0.63484 0.0
H1275 H 0.44775 1.00104 0.81196 0.0
H1276 H 0.41492 0.003 0.84266 0.0
H1277 H 0.39916 0.01203 0.65017 0.0
H1278 H 0.43218 0.00933 0.61867 0.0
H1279 H 0.37462 0.98983 0.70184 0.0
H1280 H 0.40152 0.0485 0.76476 0.0
H1281 H 0.42405 0.06932 0.81788 0.0
H1282 H 0.40849 0.04596 0.99569 0.0
H1283 H 0.38602 0.02486 0.94353 0.0
C1284 C 0.2931 0.01886 0.81294 0.0
C1285 C 0.28903 0.01773 0.87743 0.0
C1286 C 0.3115 0.01656 0.79074 0.0
C1287 C 0.32633 0.01279 0.83224 0.0
C1288 C 0.32225 0.01126 0.89643 0.0
C1289 C 0.3039 0.0137 0.9187 0.0
C1290 C 0.3462 0.01131 0.80957 0.0
C1291 C 0.35996 0.02243 0.83848 0.0
C1292 C 0.35163 0.99954 0.75916 0.0
C1293 C 0.33814 0.98681 0.7279 0.0
C1294 C 0.3278 0.97368 0.76282 0.0
C1295 C 0.31501 0.96182 0.73303 0.0
C1296 C 0.31254 0.96286 0.66827 0.0
C1297 C 0.3229 0.97573 0.63312 0.0
C1298 C 0.33569 0.98764 0.66269 0.0
C1299 C 0.43736 0.00349 0.77596 0.0
C1300 C 0.44272 0.0052 0.71278 0.0
C1301 C 0.41849 0.00471 0.79373 0.0
C1302 C 0.40442 0.00813 0.74913 0.0
C1303 C 0.40967 0.0095 0.68574 0.0
C1304 C 0.4286 0.008 0.66773 0.0
C1305 C 0.38431 0.01017 0.76891 0.0
C1306 C 0.37051 0.99924 0.73932 0.0
C1307 C 0.3788 0.02215 0.81874 0.0
C1308 C 0.39223 0.03495 0.85015 0.0
C1309 C 0.40299 0.04771 0.81514 0.0
C1310 C 0.41574 0.05959 0.84508 0.0
C1311 C 0.41775 0.05893 0.91009 0.0
C1312 C 0.40696 0.04644 0.94532 0.0
C1313 C 0.3942 0.03453 0.9156 0.0
H1314 H 0.42762 0.06813 0.93317 0.0
H1315 H 0.30264 0.95366 0.6453 0.0
H1316 H 0.50615 0.28626 0.85274 0.0
H1317 H 0.51092 0.31774 0.80886 0.0
H1318 H 0.45767 0.3353 0.88543 0.0
H1319 H 0.45255 0.30372 0.92611 0.0
H1320 H 0.46024 0.35028 0.77949 0.0
H1321 H 0.50296 0.34661 0.95218 0.0
H1322 H 0.5287 0.33332 0.01516 0.0
H1323 H 0.56677 0.34073 0.86127 0.0
H1324 H 0.54116 0.35385 0.79707 0.0
H1325 H 0.47744 0.4494 0.80557 0.0
H1326 H 0.47428 0.41607 0.83144 0.0
H1327 H 0.51377 0.40195 0.68611 0.0
H1328 H 0.51666 0.43528 0.65865 0.0
H1329 H 0.51943 0.38495 0.81705 0.0
H1330 H 0.47398 0.39388 0.65236 0.0
H1331 H 0.44691 0.40887 0.60171 0.0
H1332 H 0.41195 0.39392 0.75752 0.0
H1333 H 0.43893 0.37902 0.80978 0.0
C1334 C 0.49549 0.29687 0.85994 0.0
C1335 C 0.47896 0.29249 0.89267 0.0
C1336 C 0.49824 0.31493 0.83516 0.0
C1337 C 0.48479 0.32919 0.84436 0.0
C1338 C 0.46827 0.32469 0.87708 0.0
C1339 C 0.46536 0.3066 0.90055 0.0
C1340 C 0.48779 0.34881 0.82076 0.0
C1341 C 0.47316 0.35785 0.78837 0.0
C1342 C 0.50469 0.35884 0.83119 0.0
C1343 C 0.52012 0.35102 0.86964 0.0
C1344 C 0.5168 0.34529 0.93165 0.0
C1345 C 0.53136 0.3378 0.96758 0.0
C1346 C 0.54935 0.33614 0.94217 0.0
C1347 C 0.55282 0.342 0.88084 0.0
C1348 C 0.53829 0.34947 0.84467 0.0
C1349 C 0.48546 0.43923 0.779 0.0
C1350 C 0.49732 0.44505 0.73005 0.0
C1351 C 0.48361 0.42018 0.79383 0.0
C1352 C 0.49381 0.40653 0.7608 0.0
C1353 C 0.50582 0.41225 0.71232 0.0
C1354 C 0.50739 0.43131 0.69656 0.0
C1355 C 0.4918 0.38631 0.77713 0.0
C1356 C 0.50661 0.37724 0.808 0.0
C1357 C 0.47484 0.37647 0.7671 0.0
C1358 C 0.45858 0.38539 0.73531 0.0
C1359 C 0.4606 0.39386 0.67619 0.0
C1360 C 0.44523 0.40234 0.64708 0.0
C1361 C 0.42772 0.40238 0.6764 0.0
C1362 C 0.42553 0.39389 0.73486 0.0
C1363 C 0.44086 0.3854 0.76422 0.0
H1364 H 0.41584 0.40896 0.65378 0.0
H1365 H 0.56061 0.33034 0.97005 0.0
H1366 H 0.21557 0.51823 0.89068 0.0
H1367 H 0.18404 0.52303 0.84822 0.0
H1368 H 0.17795 0.46338 0.82293 0.0
H1369 H 0.20909 0.45838 0.86642 0.0
H1370 H 0.16292 0.48218 0.7246 0.0
H1371 H 0.1597 0.48455 0.94966 0.0
H1372 H 0.16824 0.4963 0.05438 0.0
H1373 H 0.14952 0.5515 0.00365 0.0
H1374 H 0.14113 0.54012 0.89823 0.0
H1375 H 0.05723 0.48855 0.81763 0.0
H1376 H 0.09047 0.48742 0.84437 0.0
H1377 H 0.10431 0.5131 0.66753 0.0
H1378 H 0.07103 0.51391 0.63977 0.0
H1379 H 0.11611 0.51273 0.86318 0.0
H1380 H 0.14735 0.49789 0.61871 0.0
H1381 H 0.13812 0.48296 0.51908 0.0
H1382 H 0.09957 0.4473 0.61706 0.0
H1383 H 0.10862 0.46187 0.71725 0.0
C1384 C 0.20758 0.50611 0.87598 0.0
C1385 C 0.21505 0.48789 0.88238 0.0
C1386 C 0.18953 0.5089 0.85142 0.0
C1387 C 0.17849 0.49356 0.83273 0.0
C1388 C 0.18618 0.47547 0.83661 0.0
C1389 C 0.20414 0.47266 0.86134 0.0
C1390 C 0.15855 0.49609 0.8129 0.0
C1391 C 0.15272 0.48902 0.75466 0.0
C1392 C 0.14508 0.5047 0.85239 0.0
C1393 C 0.14998 0.51154 0.91586 0.0
C1394 C 0.15754 0.49923 0.96069 0.0
C1395 C 0.16233 0.50581 0.02018 0.0
C1396 C 0.15947 0.52465 0.0356 0.0
C1397 C 0.15176 0.53692 0.99159 0.0
C1398 C 0.14698 0.53042 0.93197 0.0
C1399 C 0.06729 0.49396 0.78424 0.0
C1400 C 0.06134 0.50121 0.7263 0.0
C1401 C 0.08637 0.49337 0.79977 0.0
C1402 C 0.10005 0.5 0.75789 0.0
C1403 C 0.09414 0.50757 0.70037 0.0
C1404 C 0.07504 0.50808 0.68462 0.0
C1405 C 0.1204 0.49883 0.77474 0.0
C1406 C 0.12632 0.50615 0.83254 0.0
C1407 C 0.13387 0.49011 0.73534 0.0
C1408 C 0.12852 0.48112 0.67538 0.0
C1409 C 0.13694 0.48683 0.619 0.0
C1410 C 0.13174 0.47845 0.56245 0.0
C1411 C 0.11827 0.46424 0.56176 0.0
C1412 C 0.10997 0.45835 0.61763 0.0
C1413 C 0.11509 0.46669 0.6743 0.0
H1414 H 0.11428 0.45778 0.51792 0.0
H1415 H 0.16319 0.52972 0.08169 0.0
H1416 H 0.9728 0.79012 0.45242 0.0
H1417 H 0.96969 0.82271 0.48807 0.0
H1418 H 0.02958 0.82559 0.51542 0.0
H1419 H 0.03255 0.79296 0.4825 0.0
H1420 H 0.01508 0.84331 0.60443 0.0
H1421 H 0.00511 0.84534 0.38305 0.0
H1422 H 0.99028 0.83694 0.28267 0.0
H1423 H 0.93714 0.85676 0.35064 0.0
H1424 H 0.95162 0.86507 0.45175 0.0
H1425 H 1.00131 0.94934 0.51158 0.0
H1426 H 1.00199 0.91611 0.4837 0.0
H1427 H 0.98873 0.90147 0.67466 0.0
H1428 H 0.98913 0.93466 0.70332 0.0
H1429 H 0.97956 0.88946 0.4777 0.0
H1430 H 0.00521 0.85876 0.71426 0.0
H1431 H 0.02464 0.86805 0.80458 0.0
H1432 H 0.05439 0.90741 0.68952 0.0
H1433 H 0.03534 0.89818 0.59832 0.0
C1434 C 0.98526 0.79772 0.46634 0.0
C1435 C 0.0029 0.78889 0.46488 0.0
C1436 C 0.98351 0.81642 0.48644 0.0
C1437 C 0.99944 0.82691 0.50383 0.0
C1438 C 0.01701 0.81796 0.50278 0.0
C1439 C 0.01871 0.79923 0.48387 0.0
C1440 C 0.99801 0.84719 0.52229 0.0
C1441 C 0.00725 0.85336 0.57668 0.0
C1442 C 0.98815 0.86058 0.48586 0.0
C1443 C 0.9794 0.85563 0.42516 0.0
C1444 C 0.99023 0.84778 0.37672 0.0
C1445 C 0.98189 0.84306 0.31969 0.0
C1446 C 0.96277 0.84626 0.31035 0.0
C1447 C 0.95195 0.85425 0.35798 0.0
C1448 C 0.96021 0.85898 0.41514 0.0
C1449 C 0.99852 0.93904 0.54764 0.0
C1450 C 0.99527 0.9447 0.60976 0.0
C1451 C 0.99887 0.91997 0.53162 0.0
C1452 C 0.99572 0.90603 0.57707 0.0
C1453 C 0.99177 0.91175 0.63878 0.0
C1454 C 0.99185 0.93081 0.65512 0.0
C1455 C 0.99672 0.88563 0.55969 0.0
C1456 C 0.98733 0.87942 0.50565 0.0
C1457 C 0.00707 0.87234 0.59512 0.0
C1458 C 0.01869 0.87791 0.64963 0.0
C1459 C 0.01593 0.86936 0.70821 0.0
C1460 C 0.02688 0.87462 0.75956 0.0
C1461 C 0.0407 0.88834 0.75279 0.0
C1462 C 0.04363 0.89683 0.6947 0.0
C1463 C 0.03276 0.89159 0.64318 0.0
H1464 H 0.04921 0.89233 0.79243 0.0
H1465 H 0.95634 0.8426 0.26616 0.0
H1466 H 0.70405 0.99656 0.36802 0.0
H1467 H 0.67174 0.99579 0.40352 0.0
H1468 H 0.69028 0.98899 0.59396 0.0
H1469 H 0.72278 0.98792 0.55821 0.0
H1470 H 0.6607 0.97016 0.5838 0.0
H1471 H 0.67413 0.03342 0.52585 0.0
H1472 H 0.68504 0.05927 0.45838 0.0
H1473 H 0.64369 0.04489 0.3206 0.0
H1474 H 0.63266 0.0188 0.38698 0.0
H1475 H 0.57269 0.00272 0.71114 0.0
H1476 H 0.60579 1.00096 0.68013 0.0
H1477 H 0.58936 0.99171 0.48857 0.0
H1478 H 0.55633 0.9932 0.51911 0.0
H1479 H 0.61774 0.01928 0.50317 0.0
H1480 H 0.60436 0.95586 0.56971 0.0
H1481 H 0.59347 0.93195 0.64474 0.0
H1482 H 0.63551 0.94937 0.77614 0.0
H1483 H 0.64648 0.97357 0.70218 0.0
C1484 C 0.7014 0.9943 0.41728 0.0
C1485 C 0.71632 0.99228 0.45994 0.0
C1486 C 0.68276 0.99428 0.43778 0.0
C1487 C 0.67835 0.9929 0.50172 0.0
C1488 C 0.69314 0.99028 0.54436 0.0
C1489 C 0.71184 0.98988 0.52377 0.0
C1490 C 0.6584 0.99438 0.52381 0.0
C1491 C 0.65147 0.98111 0.56675 0.0
C1492 C 0.64603 0.0085 0.50151 0.0
C1493 C 0.65261 0.02413 0.46131 0.0
C1494 C 0.66742 0.03572 0.48104 0.0
C1495 C 0.67361 0.05042 0.44304 0.0
C1496 C 0.66502 0.05376 0.38539 0.0
C1497 C 0.65027 0.04234 0.36544 0.0
C1498 C 0.64403 0.0276 0.40325 0.0
C1499 C 0.57611 1.0003 0.6624 0.0
C1500 C 0.56179 0.99805 0.61768 0.0
C1501 C 0.59506 0.99924 0.64478 0.0
C1502 C 0.6001 0.99613 0.582 0.0
C1503 C 0.58584 0.99411 0.53725 0.0
C1504 C 0.56693 0.99489 0.55492 0.0
C1505 C 0.62019 0.99507 0.56262 0.0
C1506 C 0.6271 0.00842 0.52023 0.0
C1507 C 0.6326 0.9813 0.58644 0.0
C1508 C 0.62612 0.96665 0.63067 0.0
C1509 C 0.61118 0.95469 0.6148 0.0
C1510 C 0.60501 0.94107 0.6571 0.0
C1511 C 0.61375 0.93918 0.71524 0.0
C1512 C 0.62873 0.95087 0.73113 0.0
C1513 C 0.63494 0.96453 0.68901 0.0
H1514 H 0.60895 0.92863 0.74793 0.0
H1515 H 0.6698 0.06519 0.35618 0.0
H1516 H 0.50691 0.70484 0.36318 0.0
H1517 H 0.50828 0.67231 0.39745 0.0
H1518 H 0.51797 0.69053 0.58711 0.0
H1519 H 0.51825 0.72309 0.5523 0.0
H1520 H 0.53679 0.66076 0.57131 0.0
H1521 H 0.47351 0.67691 0.52598 0.0
H1522 H 0.447 0.68862 0.46317 0.0
H1523 H 0.45506 0.644 0.33099 0.0
H1524 H 0.48204 0.63234 0.39187 0.0
H1525 H 0.50424 0.57477 0.71295 0.0
H1526 H 0.50573 0.60765 0.67892 0.0
H1527 H 0.51212 0.58965 0.48753 0.0
H1528 H 0.511 0.55687 0.52108 0.0
H1529 H 0.48467 0.61903 0.50662 0.0
H1530 H 0.54913 0.60401 0.55734 0.0
H1531 H 0.57431 0.59275 0.6269 0.0
H1532 H 0.56096 0.63594 0.75983 0.0
H1533 H 0.53551 0.64728 0.6914 0.0
C1534 C 0.50991 0.70202 0.41189 0.0
C1535 C 0.51237 0.71683 0.4548 0.0
C1536 C 0.51032 0.68329 0.43174 0.0
C1537 C 0.51266 0.6788 0.49535 0.0
C1538 C 0.51592 0.69349 0.53787 0.0
C1539 C 0.51588 0.71222 0.51787 0.0
C1540 C 0.51123 0.65893 0.51782 0.0
C1541 C 0.52523 0.65179 0.55763 0.0
C1542 C 0.49623 0.64695 0.50001 0.0
C1543 C 0.47997 0.65388 0.46319 0.0
C1544 C 0.46978 0.6697 0.48315 0.0
C1545 C 0.45468 0.67635 0.44782 0.0
C1546 C 0.44943 0.66713 0.3929 0.0
C1547 C 0.45924 0.65121 0.37329 0.0
C1548 C 0.47445 0.64458 0.40817 0.0
C1549 C 0.50597 0.57781 0.66364 0.0
C1550 C 0.50759 0.56315 0.61983 0.0
C1551 C 0.50685 0.59661 0.64426 0.0
C1552 C 0.50908 0.60113 0.58062 0.0
C1553 C 0.51038 0.58653 0.53681 0.0
C1554 C 0.50983 0.56777 0.5562 0.0
C1555 C 0.51023 0.62104 0.55949 0.0
C1556 C 0.49616 0.62813 0.52009 0.0
C1557 C 0.5249 0.63308 0.57868 0.0
C1558 C 0.54029 0.62636 0.61956 0.0
C1559 C 0.55146 0.611 0.60164 0.0
C1560 C 0.5658 0.60463 0.64082 0.0
C1561 C 0.5692 0.61359 0.69783 0.0
C1562 C 0.5583 0.62899 0.7157 0.0
C1563 C 0.54392 0.6354 0.67672 0.0
H1564 H 0.58031 0.60863 0.7281 0.0
H1565 H 0.4377 0.67227 0.36575 0.0
H1566 H 0.80125 0.50365 0.37757 0.0
H1567 H 0.83318 0.50581 0.41658 0.0
H1568 H 0.81276 0.50349 0.6064 0.0
H1569 H 0.78052 0.50265 0.56779 0.0
H1570 H 0.84105 0.52624 0.60357 0.0
H1571 H 0.83192 0.4641 0.53093 0.0
H1572 H 0.82298 0.43876 0.45836 0.0
H1573 H 0.86436 0.45752 0.32652 0.0
H1574 H 0.87343 0.48314 0.39803 0.0
H1575 H 0.93232 0.49883 0.72051 0.0
H1576 H 0.899 0.49887 0.69264 0.0
H1577 H 0.91336 0.51192 0.50159 0.0
H1578 H 0.94661 0.51204 0.529 0.0
H1579 H 0.8877 0.4823 0.51274 0.0
H1580 H 0.89612 0.54521 0.59366 0.0
H1581 H 0.90509 0.56827 0.67424 0.0
H1582 H 0.86451 0.54492 0.80066 0.0
H1583 H 0.85546 0.52159 0.72104 0.0
C1584 C 0.80336 0.50408 0.42768 0.0
C1585 C 0.78806 0.50287 0.46926 0.0
C1586 C 0.82179 0.50499 0.45003 0.0
C1587 C 0.82556 0.50431 0.51457 0.0
C1588 C 0.81034 0.50385 0.55638 0.0
C1589 C 0.79184 0.50318 0.53406 0.0
C1590 C 0.84535 0.50368 0.53792 0.0
C1591 C 0.85115 0.51645 0.5842 0.0
C1592 C 0.8587 0.49092 0.51307 0.0
C1593 C 0.85324 0.47564 0.46963 0.0
C1594 C 0.83902 0.46292 0.48625 0.0
C1595 C 0.83395 0.44849 0.44536 0.0
C1596 C 0.84309 0.44655 0.38789 0.0
C1597 C 0.85731 0.45905 0.37109 0.0
C1598 C 0.86243 0.47352 0.41181 0.0
C1599 C 0.92842 0.50178 0.67263 0.0
C1600 C 0.94225 0.50547 0.62713 0.0
C1601 C 0.90932 0.50185 0.65679 0.0
C1602 C 0.90363 0.50547 0.59501 0.0
C1603 C 0.91739 0.5091 0.54955 0.0
C1604 C 0.93643 0.50924 0.56545 0.0
C1605 C 0.88342 0.50513 0.577 0.0
C1606 C 0.87755 0.49207 0.532 0.0
C1607 C 0.86997 0.51732 0.60406 0.0
C1608 C 0.87528 0.53149 0.65166 0.0
C1609 C 0.88922 0.54489 0.63882 0.0
C1610 C 0.8943 0.55804 0.68428 0.0
C1611 C 0.88543 0.55802 0.74261 0.0
C1612 C 0.87141 0.5449 0.75551 0.0
C1613 C 0.86629 0.53171 0.71021 0.0
H1614 H 0.88938 0.5682 0.77776 0.0
H1615 H 0.83922 0.43531 0.35652 0.0
loop_
_geom_bond_atom_site_label_1
_geom_bond_atom_site_label_2
_geom_bond_distance
_geom_bond_site_symmetry_2
_ccdc_geom_bond_type
P0 O11 1.490 . S
P0 C14 1.812 . S
P0 C20 1.803 . S
P0 C26 1.819 . S
H1 C15 0.941 . S
H2 C16 0.939 . S
H3 C18 0.940 . S
H4 C19 0.940 . S
H5 C21 0.939 . S
H6 C22 0.942 . S
H7 C24 0.940 . S
H8 C25 0.939 . S
H9 C27 0.941 . S
H10 C31 0.939 . S
O11 P0 1.490 . S
H12 C28 0.939 . S
H13 C30 0.940 . S
C14 P0 1.812 . S
C14 C15 1.389 . S
C14 C19 1.391 . S
C15 H1 0.941 . S
C15 C14 1.389 . S
C15 C16 1.397 . S
C16 H2 0.939 . S
C16 C15 1.397 . S
C16 C17 1.378 . S
C17 C16 1.378 . S
C17 C18 1.378 . S
C18 H3 0.940 . S
C18 C17 1.378 . S
C18 C19 1.396 . S
C19 H4 0.940 . S
C19 C14 1.391 . S
C19 C18 1.396 . S
C20 P0 1.803 . S
C20 C21 1.378 . S
C20 C25 1.400 . S
C21 H5 0.939 . S
C21 C20 1.378 . S
C21 C22 1.361 . S
C22 H6 0.942 . S
C22 C21 1.361 . S
C22 C23 1.369 . S
C23 C22 1.369 . S
C23 C24 1.404 . S
C24 H7 0.940 . S
C24 C23 1.404 . S
C24 C25 1.389 . S
C25 H8 0.939 . S
C25 C20 1.400 . S
C25 C24 1.389 . S
C26 P0 1.819 . S
C26 C27 1.391 . S
C26 C31 1.391 . S
C27 H9 0.941 . S
C27 C26 1.391 . S
C27 C28 1.396 . S
C28 H12 0.939 . S
C28 C27 1.396 . S
C28 C29 1.397 . S
C29 C28 1.397 . S
C29 C30 1.385 . S
C30 H13 0.940 . S
C30 C29 1.385 . S
C30 C31 1.388 . S
C31 H10 0.939 . S
C31 C26 1.391 . S
C31 C30 1.388 . S
P32 O43 1.490 . S
P32 C46 1.812 . S
P32 C52 1.803 . S
P32 C58 1.819 . S
H33 C47 0.941 . S
H34 C48 0.939 . S
H35 C50 0.940 . S
H36 C51 0.940 . S
H37 C53 0.939 . S
H38 C54 0.942 . S
H39 C56 0.940 . S
H40 C57 0.939 . S
H41 C59 0.941 . S
H42 C63 0.939 1_655 S
O43 P32 1.490 . S
H44 C60 0.939 . S
H45 C62 0.940 . S
C46 P32 1.812 . S
C46 C47 1.389 . S
C46 C51 1.391 1_455 S
C47 H33 0.941 . S
C47 C46 1.389 . S
C47 C48 1.397 . S
C48 H34 0.939 . S
C48 C47 1.397 . S
C48 C49 1.378 . S
C49 C48 1.378 . S
C49 C50 1.378 1_455 S
C50 H35 0.940 . S
C50 C49 1.378 1_655 S
C50 C51 1.396 . S
C51 H36 0.940 . S
C51 C46 1.391 1_655 S
C51 C50 1.396 . S
C52 P32 1.803 . S
C52 C53 1.378 . S
C52 C57 1.400 1_455 S
C53 H37 0.939 . S
C53 C52 1.378 . S
C53 C54 1.361 . S
C54 H38 0.942 . S
C54 C53 1.361 . S
C54 C55 1.369 . S
C55 C54 1.369 . S
C55 C56 1.404 1_455 S
C56 H39 0.940 . S
C56 C55 1.404 1_655 S
C56 C57 1.389 . S
C57 H40 0.939 . S
C57 C52 1.400 1_655 S
C57 C56 1.389 . S
C58 P32 1.819 . S
C58 C59 1.391 . S
C58 C63 1.391 . S
C59 H41 0.941 . S
C59 C58 1.391 . S
C59 C60 1.396 . S
C60 H44 0.939 . S
C60 C59 1.396 . S
C60 C61 1.397 . S
C61 C60 1.397 . S
C61 C62 1.385 1_455 S
C62 H45 0.940 . S
C62 C61 1.385 1_655 S
C62 C63 1.388 1_655 S
C63 H42 0.939 1_455 S
C63 C58 1.391 . S
C63 C62 1.388 1_455 S
P64 O75 1.490 . S
P64 C78 1.812 . S
P64 C84 1.803 . S
P64 C90 1.819 . S
H65 C79 0.941 . S
H66 C80 0.939 . S
H67 C82 0.940 . S
H68 C83 0.950 . S
H69 C85 0.939 . S
H70 C86 0.942 . S
H71 C88 0.940 . S
H72 C89 0.959 . S
H73 C91 0.941 . S
H74 C95 0.929 1_565 S
O75 P64 1.490 . S
H76 C92 0.939 . S
H77 C94 0.940 . S
C78 P64 1.812 . S
C78 C79 1.389 . S
C78 C83 1.375 1_545 S
C79 H65 0.941 . S
C79 C78 1.389 . S
C79 C80 1.397 . S
C80 H66 0.939 . S
C80 C79 1.397 . S
C80 C81 1.378 . S
C81 C80 1.378 . S
C81 C82 1.378 1_545 S
C82 H67 0.940 . S
C82 C81 1.378 1_565 S
C82 C83 1.403 . S
C83 H68 0.950 . S
C83 C78 1.375 1_565 S
C83 C82 1.403 . S
C84 P64 1.803 . S
C84 C85 1.378 . S
C84 C89 1.368 1_545 S
C85 H69 0.939 . S
C85 C84 1.378 . S
C85 C86 1.361 . S
C86 H70 0.942 . S
C86 C85 1.361 . S
C86 C87 1.369 . S
C87 C86 1.369 . S
C87 C88 1.404 1_545 S
C88 H71 0.940 . S
C88 C87 1.404 1_565 S
C88 C89 1.402 . S
C89 H72 0.959 . S
C89 C84 1.368 1_565 S
C89 C88 1.402 . S
C90 P64 1.819 . S
C90 C91 1.391 . S
C90 C95 1.391 . S
C91 H73 0.941 . S
C91 C90 1.391 . S
C91 C92 1.396 . S
C92 H76 0.939 . S
C92 C91 1.396 . S
C92 C93 1.397 . S
C93 C92 1.397 . S
C93 C94 1.385 1_545 S
C94 H77 0.940 . S
C94 C93 1.385 1_565 S
C94 C95 1.388 1_565 S
C95 H74 0.929 1_545 S
C95 C90 1.391 . S
C95 C94 1.388 1_545 S
P96 O107 1.490 . S
P96 C110 1.812 . S
P96 C116 1.803 . S
P96 C122 1.819 . S
H97 C111 0.941 . S
H98 C112 0.939 . S
H99 C114 0.940 . S
H100 C115 0.940 . S
H101 C117 0.939 . S
H102 C118 0.942 . S
H103 C120 0.940 . S
H104 C121 0.939 . S
H105 C123 0.941 . S
H106 C127 0.939 . S
O107 P96 1.490 . S
H108 C124 0.939 . S
H109 C126 0.940 . S
C110 P96 1.812 . S
C110 C111 1.389 . S
C110 C115 1.391 . S
C111 H97 0.941 . S
C111 C110 1.389 . S
C111 C112 1.397 . S
C112 H98 0.939 . S
C112 C111 1.397 . S
C112 C113 1.378 . S
C113 C112 1.378 . S
C113 C114 1.378 . S
C114 H99 0.940 . S
C114 C113 1.378 . S
C114 C115 1.396 . S
C115 H100 0.940 . S
C115 C110 1.391 . S
C115 C114 1.396 . S
C116 P96 1.803 . S
C116 C117 1.378 . S
C116 C121 1.400 . S
C117 H101 0.939 . S
C117 C116 1.378 . S
C117 C118 1.361 . S
C118 H102 0.942 . S
C118 C117 1.361 . S
C118 C119 1.369 . S
C119 C118 1.369 . S
C119 C120 1.404 . S
C120 H103 0.940 . S
C120 C119 1.404 . S
C120 C121 1.389 . S
C121 H104 0.939 . S
C121 C116 1.400 . S
C121 C120 1.389 . S
C122 P96 1.819 . S
C122 C123 1.391 . S
C122 C127 1.391 . S
C123 H105 0.941 . S
C123 C122 1.391 . S
C123 C124 1.396 . S
C124 H108 0.939 . S
C124 C123 1.396 . S
C124 C125 1.397 . S
C125 C124 1.397 . S
C125 C126 1.385 . S
C126 H109 0.940 . S
C126 C125 1.385 . S
C126 C127 1.388 . S
C127 H106 0.939 . S
C127 C122 1.391 . S
C127 C126 1.388 . S
P128 O139 1.490 . S
P128 C142 1.812 1_554 S
P128 C148 1.803 . S
P128 C154 1.819 . S
H129 C143 0.941 . S
H130 C144 0.939 . S
H131 C146 0.940 . S
H132 C147 0.940 . S
H133 C149 0.939 . S
H134 C150 0.942 . S
H135 C152 0.940 . S
H136 C153 0.939 . S
H137 C155 0.941 . S
H138 C159 0.939 . S
O139 P128 1.490 . S
H140 C156 0.939 . S
H141 C158 0.940 . S
C142 P128 1.812 1_556 S
C142 C143 1.389 . S
C142 C147 1.391 . S
C143 H129 0.941 . S
C143 C142 1.389 . S
C143 C144 1.397 . S
C144 H130 0.939 . S
C144 C143 1.397 . S
C144 C145 1.378 . S
C145 C144 1.378 . S
C145 C146 1.378 . S
C146 H131 0.940 . S
C146 C145 1.378 . S
C146 C147 1.396 . S
C147 H132 0.940 . S
C147 C142 1.391 . S
C147 C146 1.396 . S
C148 P128 1.803 . S
C148 C149 1.378 . S
C148 C153 1.400 . S
C149 H133 0.939 . S
C149 C148 1.378 . S
C149 C150 1.361 . S
C150 H134 0.942 . S
C150 C149 1.361 . S
C150 C151 1.369 . S
C151 C150 1.369 . S
C151 C152 1.404 . S
C152 H135 0.940 . S
C152 C151 1.404 . S
C152 C153 1.389 . S
C153 H136 0.939 . S
C153 C148 1.400 . S
C153 C152 1.389 . S
C154 P128 1.819 . S
C154 C155 1.391 . S
C154 C159 1.391 . S
C155 H137 0.941 . S
C155 C154 1.391 . S
C155 C156 1.396 . S
C156 H140 0.939 . S
C156 C155 1.396 . S
C156 C157 1.397 . S
C157 C156 1.397 . S
C157 C158 1.385 . S
C158 H141 0.940 . S
C158 C157 1.385 . S
C158 C159 1.388 . S
C159 H138 0.939 . S
C159 C154 1.391 . S
C159 C158 1.388 . S
P160 O171 1.490 . S
P160 C174 1.812 1_554 S
P160 C180 1.803 . S
P160 C186 1.819 . S
H161 C175 0.941 . S
H162 C176 0.939 . S
H163 C178 0.940 . S
H164 C179 0.940 1_655 S
H165 C181 0.939 . S
H166 C182 0.942 . S
H167 C184 0.940 . S
H168 C185 0.939 1_655 S
H169 C187 0.941 . S
H170 C191 0.939 . S
O171 P160 1.490 . S
H172 C188 0.939 . S
H173 C190 0.978 . S
C174 P160 1.812 1_556 S
C174 C175 1.389 . S
C174 C179 1.391 . S
C175 H161 0.941 . S
C175 C174 1.389 . S
C175 C176 1.397 . S
C176 H162 0.939 . S
C176 C175 1.397 . S
C176 C177 1.378 . S
C177 C176 1.378 . S
C177 C178 1.378 1_455 S
C178 H163 0.940 . S
C178 C177 1.378 1_655 S
C178 C179 1.396 1_655 S
C179 H164 0.940 1_455 S
C179 C174 1.391 . S
C179 C178 1.396 1_455 S
C180 P160 1.803 . S
C180 C181 1.378 . S
C180 C185 1.400 . S
C181 H165 0.939 . S
C181 C180 1.378 . S
C181 C182 1.361 . S
C182 H166 0.942 . S
C182 C181 1.361 . S
C182 C183 1.369 . S
C183 C182 1.369 . S
C183 C184 1.404 1_455 S
C184 H167 0.940 . S
C184 C183 1.404 1_655 S
C184 C185 1.389 1_655 S
C185 H168 0.939 1_455 S
C185 C180 1.400 . S
C185 C184 1.389 1_455 S
C186 P160 1.819 . S
C186 C187 1.391 . S
C186 C191 1.391 . S
C187 H169 0.941 . S
C187 C186 1.391 . S
C187 C188 1.396 . S
C188 H172 0.939 . S
C188 C187 1.396 . S
C188 C189 1.397 . S
C189 C188 1.397 . S
C189 C190 1.367 1_455 S
C190 H173 0.978 . S
C190 C189 1.367 1_655 S
C190 C191 1.371 1_655 S
C191 H170 0.939 . S
C191 C186 1.391 . S
C191 C190 1.371 1_455 S
P192 O203 1.490 . S
P192 C206 1.812 1_554 S
P192 C212 1.803 . S
P192 C218 1.819 . S
H193 C207 0.941 . S
H194 C208 0.939 . S
H195 C210 0.940 . S
H196 C211 0.942 . S
H197 C213 0.939 . S
H198 C214 0.942 . S
H199 C216 0.940 . S
H200 C217 0.951 . S
H201 C219 0.941 . S
H202 C223 0.934 1_565 S
O203 P192 1.490 . S
H204 C220 0.939 . S
H205 C222 0.940 . S
C206 P192 1.812 1_556 S
C206 C207 1.389 . S
C206 C211 1.388 1_545 S
C207 H193 0.941 . S
C207 C206 1.389 . S
C207 C208 1.397 . S
C208 H194 0.939 . S
C208 C207 1.397 . S
C208 C209 1.378 . S
C209 C208 1.378 . S
C209 C210 1.378 1_545 S
C210 H195 0.940 . S
C210 C209 1.378 1_565 S
C210 C211 1.398 . S
C211 H196 0.942 . S
C211 C206 1.388 1_565 S
C211 C210 1.398 . S
C212 P192 1.803 . S
C212 C213 1.378 . S
C212 C217 1.381 1_545 S
C213 H197 0.939 . S
C213 C212 1.378 . S
C213 C214 1.361 . S
C214 H198 0.942 . S
C214 C213 1.361 . S
C214 C215 1.369 . S
C215 C214 1.369 . S
C215 C216 1.404 1_545 S
C216 H199 0.940 . S
C216 C215 1.404 1_565 S
C216 C217 1.396 . S
C217 H200 0.951 . S
C217 C212 1.381 1_565 S
C217 C216 1.396 . S
C218 P192 1.819 . S
C218 C219 1.391 . S
C218 C223 1.391 . S
C219 H201 0.941 . S
C219 C218 1.391 . S
C219 C220 1.396 . S
C220 H204 0.939 . S
C220 C219 1.396 . S
C220 C221 1.397 . S
C221 C220 1.397 . S
C221 C222 1.385 1_545 S
C222 H205 0.940 . S
C222 C221 1.385 1_565 S
C222 C223 1.388 1_565 S
C223 H202 0.934 1_545 S
C223 C218 1.391 . S
C223 C222 1.388 1_545 S
P224 O235 1.490 . S
P224 C238 1.812 1_554 S
P224 C244 1.803 . S
P224 C250 1.819 . S
H225 C239 0.941 . S
H226 C240 0.939 . S
H227 C242 0.940 . S
H228 C243 0.940 . S
H229 C245 0.939 . S
H230 C246 0.942 . S
H231 C248 0.940 . S
H232 C249 0.939 . S
H233 C251 0.941 . S
H234 C255 0.939 . S
O235 P224 1.490 . S
H236 C252 0.939 . S
H237 C254 0.940 . S
C238 P224 1.812 1_556 S
C238 C239 1.389 . S
C238 C243 1.391 . S
C239 H225 0.941 . S
C239 C238 1.389 . S
C239 C240 1.397 . S
C240 H226 0.939 . S
C240 C239 1.397 . S
C240 C241 1.378 . S
C241 C240 1.378 . S
C241 C242 1.378 . S
C242 H227 0.940 . S
C242 C241 1.378 . S
C242 C243 1.396 . S
C243 H228 0.940 . S
C243 C238 1.391 . S
C243 C242 1.396 . S
C244 P224 1.803 . S
C244 C245 1.378 . S
C244 C249 1.400 . S
C245 H229 0.939 . S
C245 C244 1.378 . S
C245 C246 1.361 . S
C246 H230 0.942 . S
C246 C245 1.361 . S
C246 C247 1.369 . S
C247 C246 1.369 . S
C247 C248 1.404 . S
C248 H231 0.940 . S
C248 C247 1.404 . S
C248 C249 1.389 . S
C249 H232 0.939 . S
C249 C244 1.400 . S
C249 C248 1.389 . S
C250 P224 1.819 . S
C250 C251 1.391 . S
C250 C255 1.391 . S
C251 H233 0.941 . S
C251 C250 1.391 . S
C251 C252 1.396 . S
C252 H236 0.939 . S
C252 C251 1.396 . S
C252 C253 1.397 . S
C253 C252 1.397 . S
C253 C254 1.385 . S
C254 H237 0.940 . S
C254 C253 1.385 . S
C254 C255 1.388 . S
C255 H234 0.939 . S
C255 C250 1.391 . S
C255 C254 1.388 . S
Sm256 C258 2.846 . S
Sm256 O276 2.543 . S
Sm256 O277 2.450 . S
Sm256 O278 2.681 1_565 S
Sm256 O279 2.464 . S
Sm256 O280 2.396 . S
Sm256 O284 2.386 1_455 S
Sm256 O287 2.408 1_565 S
Sm257 C267 2.846 . S
Sm257 O278 2.386 1_655 S
Sm257 O281 2.408 1_545 S
Sm257 O282 2.567 . S
Sm257 O283 2.450 . S
Sm257 O284 2.681 1_545 S
Sm257 O285 2.464 . S
Sm257 O286 2.396 . S
C258 Sm256 2.846 . S
C258 C259 1.506 . S
C258 O276 1.261 . S
C258 O277 1.242 . S
C259 C258 1.506 . S
C259 C260 1.358 . S
C259 C264 1.382 . S
C260 C259 1.358 . S
C260 C261 1.385 . S
C260 H288 0.930 1_455 S
C261 C260 1.385 . S
C261 C262 1.395 . S
C261 H289 0.929 1_455 S
C262 C261 1.395 . S
C262 C263 1.335 . S
C263 C262 1.335 . S
C263 C264 1.398 . S
C263 H290 0.930 . S
C264 C259 1.382 . S
C264 C263 1.398 . S
C264 H291 0.929 . S
C265 O278 1.253 1_565 S
C265 O279 1.283 . S
C266 O280 1.252 1_655 S
C266 O281 1.272 . S
C267 Sm257 2.846 . S
C267 C268 1.506 . S
C267 O282 1.320 . S
C267 O283 1.242 . S
C268 C267 1.506 . S
C268 C269 1.358 . S
C268 C273 1.382 . S
C269 C268 1.358 . S
C269 C270 1.385 . S
C269 H292 0.930 1_655 S
C270 C269 1.385 . S
C270 C271 1.395 . S
C270 H293 0.929 1_655 S
C271 C270 1.395 . S
C271 C272 1.335 . S
C272 C271 1.335 . S
C272 C273 1.398 . S
C272 H294 0.930 . S
C273 C268 1.382 . S
C273 C272 1.398 . S
C273 H295 0.929 . S
C274 O284 1.271 1_545 S
C274 O285 1.251 . S
C275 O286 1.252 1_455 S
C275 O287 1.272 . S
O276 Sm256 2.543 . S
O276 C258 1.261 . S
O277 Sm256 2.450 . S
O277 C258 1.242 . S
O278 Sm256 2.681 1_545 S
O278 Sm257 2.386 1_455 S
O278 C265 1.253 1_545 S
O279 Sm256 2.464 . S
O279 C265 1.283 . S
O280 Sm256 2.396 . S
O280 C266 1.252 1_455 S
O281 Sm257 2.408 1_565 S
O281 C266 1.272 . S
O282 Sm257 2.567 . S
O282 C267 1.320 . S
O283 Sm257 2.450 . S
O283 C267 1.242 . S
O284 Sm256 2.386 1_655 S
O284 Sm257 2.681 1_565 S
O284 C274 1.271 1_565 S
O285 Sm257 2.464 . S
O285 C274 1.251 . S
O286 Sm257 2.396 . S
O286 C275 1.252 1_655 S
O287 Sm256 2.408 1_545 S
O287 C275 1.272 . S
H288 C260 0.930 1_655 S
H289 C261 0.929 1_655 S
H290 C263 0.930 . S
H291 C264 0.929 . S
H292 C269 0.930 1_455 S
H293 C270 0.929 1_455 S
H294 C272 0.930 . S
H295 C273 0.929 . S
Sm296 C298 2.846 . S
Sm296 O316 2.543 . S
Sm296 O317 2.450 . S
Sm296 O318 2.681 . S
Sm296 O319 2.464 . S
Sm296 O320 2.396 . S
Sm296 O324 2.386 1_545 S
Sm296 O327 2.408 . S
Sm297 C307 2.846 . S
Sm297 O318 2.386 1_565 S
Sm297 O321 2.408 . S
Sm297 O322 2.543 . S
Sm297 O323 2.450 . S
Sm297 O324 2.681 . S
Sm297 O325 2.464 . S
Sm297 O326 2.396 . S
C298 Sm296 2.846 . S
C298 C299 1.506 . S
C298 O316 1.261 . S
C298 O317 1.242 . S
C299 C298 1.506 . S
C299 C300 1.358 . S
C299 C304 1.382 . S
C300 C299 1.358 . S
C300 C301 1.385 . S
C300 H328 0.930 1_545 S
C301 C300 1.385 . S
C301 C302 1.395 . S
C301 H329 0.929 1_545 S
C302 C301 1.395 . S
C302 C303 1.335 . S
C303 C302 1.335 . S
C303 C304 1.398 . S
C303 H330 0.930 . S
C304 C299 1.382 . S
C304 C303 1.398 . S
C304 H331 0.929 . S
C305 O318 1.271 . S
C305 O319 1.251 . S
C306 O320 1.252 1_565 S
C306 O321 1.272 . S
C307 Sm297 2.846 . S
C307 C308 1.506 . S
C307 O322 1.261 . S
C307 O323 1.242 . S
C308 C307 1.506 . S
C308 C309 1.358 . S
C308 C313 1.382 . S
C309 C308 1.358 . S
C309 C310 1.385 . S
C309 H332 0.930 1_565 S
C310 C309 1.385 . S
C310 C311 1.395 . S
C310 H333 0.929 1_565 S
C311 C310 1.395 . S
C311 C312 1.335 . S
C312 C311 1.335 . S
C312 C313 1.398 . S
C312 H334 0.930 . S
C313 C308 1.382 . S
C313 C312 1.398 . S
C313 H335 0.929 . S
C314 O324 1.271 . S
C314 O325 1.251 . S
C315 O326 1.252 1_545 S
C315 O327 1.272 . S
O316 Sm296 2.543 . S
O316 C298 1.261 . S
O317 Sm296 2.450 . S
O317 C298 1.242 . S
O318 Sm296 2.681 . S
O318 Sm297 2.386 1_545 S
O318 C305 1.271 . S
O319 Sm296 2.464 . S
O319 C305 1.251 . S
O320 Sm296 2.396 . S
O320 C306 1.252 1_545 S
O321 Sm297 2.408 . S
O321 C306 1.272 . S
O322 Sm297 2.543 . S
O322 C307 1.261 . S
O323 Sm297 2.450 . S
O323 C307 1.242 . S
O324 Sm296 2.386 1_565 S
O324 Sm297 2.681 . S
O324 C314 1.271 . S
O325 Sm297 2.464 . S
O325 C314 1.251 . S
O326 Sm297 2.396 . S
O326 C315 1.252 1_565 S
O327 Sm296 2.408 . S
O327 C315 1.272 . S
H328 C300 0.930 1_565 S
H329 C301 0.929 1_565 S
H330 C303 0.930 . S
H331 C304 0.929 . S
H332 C309 0.930 1_545 S
H333 C310 0.929 1_545 S
H334 C312 0.930 . S
H335 C313 0.929 . S
Sm336 C338 2.846 . S
Sm336 O356 2.543 . S
Sm336 O357 2.450 . S
Sm336 O358 2.681 . S
Sm336 O359 2.464 . S
Sm336 O360 2.396 . S
Sm336 O364 2.386 . S
Sm336 O367 2.408 . S
Sm337 C347 2.846 . S
Sm337 O358 2.386 . S
Sm337 O361 2.408 . S
Sm337 O362 2.543 . S
Sm337 O363 2.450 . S
Sm337 O364 2.681 . S
Sm337 O365 2.464 . S
Sm337 O366 2.396 . S
C338 Sm336 2.846 . S
C338 C339 1.506 . S
C338 O356 1.261 . S
C338 O357 1.242 . S
C339 C338 1.506 . S
C339 C340 1.358 . S
C339 C344 1.382 . S
C340 C339 1.358 . S
C340 C341 1.385 . S
C340 H368 0.930 . S
C341 C340 1.385 . S
C341 C342 1.395 . S
C341 H369 0.929 . S
C342 C341 1.395 . S
C342 C343 1.335 . S
C343 C342 1.335 . S
C343 C344 1.398 . S
C343 H370 0.930 . S
C344 C339 1.382 . S
C344 C343 1.398 . S
C344 H371 0.929 . S
C345 O358 1.271 . S
C345 O359 1.251 . S
C346 O360 1.252 . S
C346 O361 1.272 . S
C347 Sm337 2.846 . S
C347 C348 1.506 . S
C347 O362 1.261 . S
C347 O363 1.242 . S
C348 C347 1.506 . S
C348 C349 1.358 . S
C348 C353 1.382 . S
C349 C348 1.358 . S
C349 C350 1.385 . S
C349 H372 0.930 . S
C350 C349 1.385 . S
C350 C351 1.395 . S
C350 H373 0.929 . S
C351 C350 1.395 . S
C351 C352 1.335 . S
C352 C351 1.335 . S
C352 C353 1.398 . S
C352 H374 0.930 . S
C353 C348 1.382 . S
C353 C352 1.398 . S
C353 H375 0.929 . S
C354 O364 1.271 . S
C354 O365 1.251 . S
C355 O366 1.252 . S
C355 O367 1.272 . S
O356 Sm336 2.543 . S
O356 C338 1.261 . S
O357 Sm336 2.450 . S
O357 C338 1.242 . S
O358 Sm336 2.681 . S
O358 Sm337 2.386 . S
O358 C345 1.271 . S
O359 Sm336 2.464 . S
O359 C345 1.251 . S
O360 Sm336 2.396 . S
O360 C346 1.252 . S
O361 Sm337 2.408 . S
O361 C346 1.272 . S
O362 Sm337 2.543 . S
O362 C347 1.261 . S
O363 Sm337 2.450 . S
O363 C347 1.242 . S
O364 Sm336 2.386 . S
O364 Sm337 2.681 . S
O364 C354 1.271 . S
O365 Sm337 2.464 . S
O365 C354 1.251 . S
O366 Sm337 2.396 . S
O366 C355 1.252 . S
O367 Sm336 2.408 . S
O367 C355 1.272 . S
H368 C340 0.930 . S
H369 C341 0.929 . S
H370 C343 0.930 . S
H371 C344 0.929 . S
H372 C349 0.930 . S
H373 C350 0.929 . S
H374 C352 0.930 . S
H375 C353 0.929 . S
Sm376 C378 2.846 . S
Sm376 O396 2.543 . S
Sm376 O397 2.450 . S
Sm376 O398 2.681 1_655 S
Sm376 O399 2.464 . S
Sm376 O400 2.396 . S
Sm376 O404 2.386 . S
Sm376 O407 2.408 1_655 S
Sm377 C387 2.846 . S
Sm377 O398 2.386 . S
Sm377 O401 2.408 1_455 S
Sm377 O402 2.543 . S
Sm377 O403 2.450 . S
Sm377 O404 2.681 1_455 S
Sm377 O405 2.464 . S
Sm377 O406 2.396 . S
C378 Sm376 2.846 . S
C378 C379 1.506 . S
C378 O396 1.261 . S
C378 O397 1.242 . S
C379 C378 1.506 . S
C379 C380 1.358 . S
C379 C384 1.382 . S
C380 C379 1.358 . S
C380 C381 1.385 . S
C380 H408 0.930 . S
C381 C380 1.385 . S
C381 C382 1.395 . S
C381 H409 0.929 . S
C382 C381 1.395 . S
C382 C383 1.335 . S
C383 C382 1.335 . S
C383 C384 1.398 . S
C383 H410 0.930 . S
C384 C379 1.382 . S
C384 C383 1.398 . S
C384 H411 0.929 . S
C385 O398 1.260 1_655 S
C385 O399 1.271 . S
C386 O400 1.252 . S
C386 O401 1.272 . S
C387 Sm377 2.846 . S
C387 C388 1.506 . S
C387 O402 1.261 . S
C387 O403 1.242 . S
C388 C387 1.506 . S
C388 C389 1.358 . S
C388 C393 1.382 . S
C389 C388 1.358 . S
C389 C390 1.385 . S
C389 H412 0.930 . S
C390 C389 1.385 . S
C390 C391 1.395 . S
C390 H413 0.929 . S
C391 C390 1.395 . S
C391 C392 1.335 . S
C392 C391 1.335 . S
C392 C393 1.398 . S
C392 H414 0.930 . S
C393 C388 1.382 . S
C393 C392 1.398 . S
C393 H415 0.929 . S
C394 O404 1.256 1_455 S
C394 O405 1.279 . S
C395 O406 1.252 . S
C395 O407 1.272 . S
O396 Sm376 2.543 . S
O396 C378 1.261 . S
O397 Sm376 2.450 . S
O397 C378 1.242 . S
O398 Sm376 2.681 1_455 S
O398 Sm377 2.386 . S
O398 C385 1.260 1_455 S
O399 Sm376 2.464 . S
O399 C385 1.271 . S
O400 Sm376 2.396 . S
O400 C386 1.252 . S
O401 Sm377 2.408 1_655 S
O401 C386 1.272 . S
O402 Sm377 2.543 . S
O402 C387 1.261 . S
O403 Sm377 2.450 . S
O403 C387 1.242 . S
O404 Sm376 2.386 . S
O404 Sm377 2.681 1_655 S
O404 C394 1.256 1_655 S
O405 Sm377 2.464 . S
O405 C394 1.279 . S
O406 Sm377 2.396 . S
O406 C395 1.252 . S
O407 Sm376 2.408 1_455 S
O407 C395 1.272 . S
H408 C380 0.930 . S
H409 C381 0.929 . S
H410 C383 0.930 . S
H411 C384 0.929 . S
H412 C389 0.930 . S
H413 C390 0.929 . S
H414 C392 0.930 . S
H415 C393 0.929 . S
H416 C434 0.954 . S
H417 C436 0.951 . S
H418 C438 0.955 . S
H419 C439 0.955 . S
H420 C441 0.950 . S
H421 C444 0.950 . S
H422 C445 0.950 . S
H423 C447 0.950 . S
H424 C448 0.950 . S
H425 C449 0.951 . S
H426 C451 0.951 . S
H427 C453 0.949 1_565 S
H428 C454 0.949 1_565 S
H429 C456 0.950 . S
H430 C459 0.950 . S
H431 C460 0.950 . S
H432 C462 0.950 . S
H433 C463 0.950 . S
C434 H416 0.954 . S
C434 C435 1.364 1_565 S
C434 C436 1.389 . S
C435 C434 1.364 1_545 S
C435 C439 1.384 . S
C436 H417 0.951 . S
C436 C434 1.389 . S
C436 C437 1.367 . S
C437 C436 1.367 . S
C437 C438 1.411 1_565 S
C437 C440 1.499 . S
C438 H418 0.955 . S
C438 C437 1.411 1_545 S
C438 C439 1.374 . S
C439 H419 0.955 . S
C439 C435 1.384 . S
C439 C438 1.374 . S
C440 C437 1.499 . S
C440 C441 1.353 1_565 S
C440 C442 1.408 . S
C441 H420 0.950 . S
C441 C440 1.353 1_545 S
C441 C457 1.377 . S
C442 C440 1.408 . S
C442 C443 1.524 . S
C442 C456 1.377 . S
C443 C442 1.524 . S
C443 C444 1.397 . S
C443 C448 1.363 . S
C444 H421 0.950 . S
C444 C443 1.397 . S
C444 C445 1.334 . S
C445 H422 0.950 . S
C445 C444 1.334 . S
C445 C446 1.287 . S
C446 C445 1.287 . S
C446 C447 1.524 . S
C446 H465 0.913 . S
C447 H423 0.950 . S
C447 C446 1.524 . S
C447 C448 1.415 . S
C448 H424 0.950 . S
C448 C443 1.363 . S
C448 C447 1.415 . S
C449 H425 0.951 . S
C449 C450 1.366 . S
C449 C451 1.388 . S
C450 C449 1.366 . S
C450 C454 1.385 . S
C451 H426 0.951 . S
C451 C449 1.388 . S
C451 C452 1.366 . S
C452 C451 1.366 . S
C452 C453 1.416 . S
C452 C455 1.499 . S
C453 H427 0.949 1_545 S
C453 C452 1.416 . S
C453 C454 1.374 . S
C454 H428 0.949 1_545 S
C454 C450 1.385 . S
C454 C453 1.374 . S
C455 C452 1.499 . S
C455 C456 1.373 1_545 S
C455 C457 1.389 . S
C456 H429 0.950 . S
C456 C442 1.377 . S
C456 C455 1.373 1_565 S
C457 C441 1.377 . S
C457 C455 1.389 . S
C457 C458 1.524 . S
C458 C457 1.524 . S
C458 C459 1.397 . S
C458 C463 1.363 . S
C459 H430 0.950 . S
C459 C458 1.397 . S
C459 C460 1.334 . S
C460 H431 0.950 . S
C460 C459 1.334 . S
C460 C461 1.287 . S
C461 C460 1.287 . S
C461 C462 1.524 . S
C461 H464 0.999 . S
C462 H432 0.950 . S
C462 C461 1.524 . S
C462 C463 1.415 . S
C463 H433 0.950 . S
C463 C458 1.363 . S
C463 C462 1.415 . S
H464 C461 0.999 . S
H465 C446 0.913 . S
H466 C484 0.951 . S
H467 C486 0.951 . S
H468 C488 0.950 . S
H469 C489 0.950 . S
H470 C491 0.950 . S
H471 C494 0.950 . S
H472 C495 0.950 . S
H473 C497 0.950 . S
H474 C498 0.950 . S
H475 C499 0.951 . S
H476 C501 0.951 . S
H477 C503 0.950 . S
H478 C504 0.950 . S
H479 C506 0.950 . S
H480 C509 0.950 . S
H481 C510 0.950 . S
H482 C512 0.950 . S
H483 C513 0.950 . S
C484 H466 0.951 . S
C484 C485 1.366 . S
C484 C486 1.388 . S
C485 C484 1.366 . S
C485 C489 1.385 . S
C486 H467 0.951 . S
C486 C484 1.388 . S
C486 C487 1.366 . S
C487 C486 1.366 . S
C487 C488 1.414 . S
C487 C490 1.499 . S
C488 H468 0.950 . S
C488 C487 1.414 . S
C488 C489 1.374 . S
C489 H469 0.950 . S
C489 C485 1.385 . S
C489 C488 1.374 . S
C490 C487 1.499 . S
C490 C491 1.373 . S
C490 C492 1.389 . S
C491 H470 0.950 . S
C491 C490 1.373 . S
C491 C507 1.377 . S
C492 C490 1.389 . S
C492 C493 1.524 . S
C492 C506 1.377 . S
C493 C492 1.524 . S
C493 C494 1.397 . S
C493 C498 1.363 . S
C494 H471 0.950 . S
C494 C493 1.397 . S
C494 C495 1.334 . S
C495 H472 0.950 . S
C495 C494 1.334 . S
C495 C496 1.287 . S
C496 C495 1.287 . S
C496 C497 1.524 . S
C496 H515 0.913 . S
C497 H473 0.950 . S
C497 C496 1.524 . S
C497 C498 1.415 . S
C498 H474 0.950 . S
C498 C493 1.363 . S
C498 C497 1.415 . S
C499 H475 0.951 . S
C499 C500 1.366 . S
C499 C501 1.388 . S
C500 C499 1.366 . S
C500 C504 1.385 . S
C501 H476 0.951 . S
C501 C499 1.388 . S
C501 C502 1.366 . S
C502 C501 1.366 . S
C502 C503 1.414 . S
C502 C505 1.499 . S
C503 H477 0.950 . S
C503 C502 1.414 . S
C503 C504 1.374 . S
C504 H478 0.950 . S
C504 C500 1.385 . S
C504 C503 1.374 . S
C505 C502 1.499 . S
C505 C506 1.373 . S
C505 C507 1.389 . S
C506 H479 0.950 . S
C506 C492 1.377 . S
C506 C505 1.373 . S
C507 C491 1.377 . S
C507 C505 1.389 . S
C507 C508 1.524 . S
C508 C507 1.524 . S
C508 C509 1.397 . S
C508 C513 1.363 . S
C509 H480 0.950 . S
C509 C508 1.397 . S
C509 C510 1.334 . S
C510 H481 0.950 . S
C510 C509 1.334 . S
C510 C511 1.287 . S
C511 C510 1.287 . S
C511 C512 1.524 . S
C511 H514 0.999 . S
C512 H482 0.950 . S
C512 C511 1.524 . S
C512 C513 1.415 . S
C513 H483 0.950 . S
C513 C508 1.363 . S
C513 C512 1.415 . S
H514 C511 0.999 . S
H515 C496 0.913 . S
H516 C534 0.951 . S
H517 C536 0.951 . S
H518 C538 0.950 . S
H519 C539 0.950 . S
H520 C541 0.950 . S
H521 C544 0.950 . S
H522 C545 0.950 . S
H523 C547 0.950 . S
H524 C548 0.950 . S
H525 C549 0.951 . S
H526 C551 0.951 . S
H527 C553 0.950 . S
H528 C554 0.950 . S
H529 C556 0.950 . S
H530 C559 0.950 . S
H531 C560 0.950 . S
H532 C562 0.950 . S
H533 C563 0.950 . S
C534 H516 0.951 . S
C534 C535 1.366 . S
C534 C536 1.388 . S
C535 C534 1.366 . S
C535 C539 1.385 . S
C536 H517 0.951 . S
C536 C534 1.388 . S
C536 C537 1.366 . S
C537 C536 1.366 . S
C537 C538 1.414 . S
C537 C540 1.499 . S
C538 H518 0.950 . S
C538 C537 1.414 . S
C538 C539 1.374 . S
C539 H519 0.950 . S
C539 C535 1.385 . S
C539 C538 1.374 . S
C540 C537 1.499 . S
C540 C541 1.373 . S
C540 C542 1.389 . S
C541 H520 0.950 . S
C541 C540 1.373 . S
C541 C557 1.377 . S
C542 C540 1.389 . S
C542 C543 1.524 . S
C542 C556 1.377 . S
C543 C542 1.524 . S
C543 C544 1.397 . S
C543 C548 1.363 . S
C544 H521 0.950 . S
C544 C543 1.397 . S
C544 C545 1.334 . S
C545 H522 0.950 . S
C545 C544 1.334 . S
C545 C546 1.287 . S
C546 C545 1.287 . S
C546 C547 1.524 . S
C546 H565 0.913 . S
C547 H523 0.950 . S
C547 C546 1.524 . S
C547 C548 1.415 . S
C548 H524 0.950 . S
C548 C543 1.363 . S
C548 C547 1.415 . S
C549 H525 0.951 . S
C549 C550 1.366 . S
C549 C551 1.388 . S
C550 C549 1.366 . S
C550 C554 1.385 . S
C551 H526 0.951 . S
C551 C549 1.388 . S
C551 C552 1.366 . S
C552 C551 1.366 . S
C552 C553 1.414 . S
C552 C555 1.499 . S
C553 H527 0.950 . S
C553 C552 1.414 . S
C553 C554 1.374 . S
C554 H528 0.950 . S
C554 C550 1.385 . S
C554 C553 1.374 . S
C555 C552 1.499 . S
C555 C556 1.373 . S
C555 C557 1.389 . S
C556 H529 0.950 . S
C556 C542 1.377 . S
C556 C555 1.373 . S
C557 C541 1.377 . S
C557 C555 1.389 . S
C557 C558 1.524 . S
C558 C557 1.524 . S
C558 C559 1.397 . S
C558 C563 1.363 . S
C559 H530 0.950 . S
C559 C558 1.397 . S
C559 C560 1.334 . S
C560 H531 0.950 . S
C560 C559 1.334 . S
C560 C561 1.287 . S
C561 C560 1.287 . S
C561 C562 1.524 . S
C561 H564 0.999 . S
C562 H532 0.950 . S
C562 C561 1.524 . S
C562 C563 1.415 . S
C563 H533 0.950 . S
C563 C558 1.363 . S
C563 C562 1.415 . S
H564 C561 0.999 . S
H565 C546 0.913 . S
H566 C584 0.951 . S
H567 C586 0.951 . S
H568 C588 0.950 . S
H569 C589 0.950 . S
H570 C591 0.950 . S
H571 C594 0.950 . S
H572 C595 0.950 . S
H573 C597 0.950 . S
H574 C598 0.950 . S
H575 C599 0.951 . S
H576 C601 0.951 . S
H577 C603 0.950 . S
H578 C604 0.950 . S
H579 C606 0.948 1_655 S
H580 C609 0.950 . S
H581 C610 0.950 . S
H582 C612 0.950 . S
H583 C613 0.950 . S
C584 H566 0.951 . S
C584 C585 1.366 1_655 S
C584 C586 1.388 . S
C585 C584 1.366 1_455 S
C585 C589 1.385 . S
C586 H567 0.951 . S
C586 C584 1.388 . S
C586 C587 1.366 1_655 S
C587 C586 1.366 1_455 S
C587 C588 1.414 . S
C587 C590 1.499 . S
C588 H568 0.950 . S
C588 C587 1.414 . S
C588 C589 1.374 . S
C589 H569 0.950 . S
C589 C585 1.385 . S
C589 C588 1.374 . S
C590 C587 1.499 . S
C590 C591 1.373 . S
C590 C592 1.389 . S
C591 H570 0.950 . S
C591 C590 1.373 . S
C591 C607 1.377 . S
C592 C590 1.389 . S
C592 C593 1.524 . S
C592 C606 1.379 . S
C593 C592 1.524 . S
C593 C594 1.397 . S
C593 C598 1.363 1_455 S
C594 H571 0.950 . S
C594 C593 1.397 . S
C594 C595 1.334 . S
C595 H572 0.950 . S
C595 C594 1.334 . S
C595 C596 1.287 . S
C596 C595 1.287 . S
C596 C597 1.524 1_455 S
C596 H615 0.913 . S
C597 H573 0.950 . S
C597 C596 1.524 1_655 S
C597 C598 1.415 . S
C598 H574 0.950 . S
C598 C593 1.363 1_655 S
C598 C597 1.415 . S
C599 H575 0.951 . S
C599 C600 1.366 . S
C599 C601 1.388 . S
C600 C599 1.366 . S
C600 C604 1.385 1_455 S
C601 H576 0.951 . S
C601 C599 1.388 . S
C601 C602 1.366 . S
C602 C601 1.366 . S
C602 C603 1.414 1_455 S
C602 C605 1.500 . S
C603 H577 0.950 . S
C603 C602 1.414 1_655 S
C603 C604 1.374 . S
C604 H578 0.950 . S
C604 C600 1.385 1_655 S
C604 C603 1.374 . S
C605 C602 1.500 . S
C605 C606 1.373 . S
C605 C607 1.392 . S
C606 H579 0.948 1_455 S
C606 C592 1.379 . S
C606 C605 1.373 . S
C607 C591 1.377 . S
C607 C605 1.392 . S
C607 C608 1.525 . S
C608 C607 1.525 . S
C608 C609 1.386 1_455 S
C608 C613 1.371 . S
C609 H580 0.950 . S
C609 C608 1.386 1_655 S
C609 C610 1.334 . S
C610 H581 0.950 . S
C610 C609 1.334 . S
C610 C611 1.287 . S
C611 C610 1.287 . S
C611 C612 1.524 1_655 S
C611 H614 0.999 . S
C612 H582 0.950 . S
C612 C611 1.524 1_455 S
C612 C613 1.415 . S
C613 H583 0.950 . S
C613 C608 1.371 . S
C613 C612 1.415 . S
H614 C611 0.999 . S
H615 C596 0.913 . S
H616 C634 0.951 . S
H617 C636 0.951 . S
H618 C638 0.950 . S
H619 C639 0.950 . S
H620 C641 0.950 . S
H621 C644 0.950 . S
H622 C645 0.950 . S
H623 C647 0.950 . S
H624 C648 0.928 1_565 S
H625 C649 0.951 . S
H626 C651 0.951 . S
H627 C653 0.950 . S
H628 C654 0.950 . S
H629 C656 0.950 . S
H630 C659 0.950 . S
H631 C660 0.950 . S
H632 C662 0.950 . S
H633 C663 0.967 . S
C634 H616 0.951 . S
C634 C635 1.364 . S
C634 C636 1.388 . S
C635 C634 1.364 . S
C635 C639 1.387 1_565 S
C636 H617 0.951 . S
C636 C634 1.388 . S
C636 C637 1.349 1_565 S
C637 C636 1.349 1_545 S
C637 C638 1.430 . S
C637 C640 1.499 . S
C638 H618 0.950 . S
C638 C637 1.430 . S
C638 C639 1.374 . S
C639 H619 0.950 . S
C639 C635 1.387 1_545 S
C639 C638 1.374 . S
C640 C637 1.499 . S
C640 C641 1.354 1_544 S
C640 C642 1.407 . S
C641 H620 0.950 . S
C641 C640 1.354 1_566 S
C641 C657 1.377 . S
C642 C640 1.407 . S
C642 C643 1.524 . S
C642 C656 1.377 . S
C643 C642 1.524 . S
C643 C644 1.397 . S
C643 C648 1.363 . S
C644 H621 0.950 . S
C644 C643 1.397 . S
C644 C645 1.334 . S
C645 H622 0.950 . S
C645 C644 1.334 . S
C645 C646 1.287 . S
C646 C645 1.287 . S
C646 C647 1.524 . S
C646 H665 0.913 . S
C647 H623 0.950 . S
C647 C646 1.524 . S
C647 C648 1.415 . S
C648 H624 0.928 1_545 S
C648 C643 1.363 . S
C648 C647 1.415 . S
C649 H625 0.951 . S
C649 C650 1.345 1_545 S
C649 C651 1.388 . S
C650 C649 1.345 1_565 S
C650 C654 1.409 . S
C651 H626 0.951 . S
C651 C649 1.388 . S
C651 C652 1.366 1_545 S
C652 C651 1.366 1_565 S
C652 C653 1.414 . S
C652 C655 1.499 . S
C653 H627 0.950 . S
C653 C652 1.414 . S
C653 C654 1.374 . S
C654 H628 0.950 . S
C654 C650 1.409 . S
C654 C653 1.374 . S
C655 C652 1.499 . S
C655 C656 1.373 1_566 S
C655 C657 1.389 . S
C656 H629 0.950 . S
C656 C642 1.377 . S
C656 C655 1.373 1_544 S
C657 C641 1.377 . S
C657 C655 1.389 . S
C657 C658 1.524 . S
C658 C657 1.524 . S
C658 C659 1.397 . S
C658 C663 1.363 . S
C659 H630 0.950 . S
C659 C658 1.397 . S
C659 C660 1.334 . S
C660 H631 0.950 . S
C660 C659 1.334 . S
C660 C661 1.287 . S
C661 C660 1.287 . S
C661 C662 1.524 . S
C661 H664 0.999 . S
C662 H632 0.950 . S
C662 C661 1.524 . S
C662 C663 1.415 . S
C663 H633 0.967 . S
C663 C658 1.363 . S
C663 C662 1.415 . S
H664 C661 0.999 . S
H665 C646 0.913 . S
H666 C684 0.951 . S
H667 C686 0.951 . S
H668 C688 0.950 . S
H669 C689 0.950 . S
H670 C691 0.950 . S
H671 C694 0.950 . S
H672 C695 0.950 . S
H673 C697 0.950 . S
H674 C698 0.950 . S
H675 C699 0.951 . S
H676 C701 0.951 . S
H677 C703 0.950 . S
H678 C704 0.950 . S
H679 C706 0.950 . S
H680 C709 0.950 . S
H681 C710 0.950 . S
H682 C712 0.950 . S
H683 C713 0.950 . S
C684 H666 0.951 . S
C684 C685 1.366 . S
C684 C686 1.388 . S
C685 C684 1.366 . S
C685 C689 1.385 . S
C686 H667 0.951 . S
C686 C684 1.388 . S
C686 C687 1.366 . S
C687 C686 1.366 . S
C687 C688 1.414 . S
C687 C690 1.499 . S
C688 H668 0.950 . S
C688 C687 1.414 . S
C688 C689 1.374 . S
C689 H669 0.950 . S
C689 C685 1.385 . S
C689 C688 1.374 . S
C690 C687 1.499 . S
C690 C691 1.373 1_554 S
C690 C692 1.389 . S
C691 H670 0.950 . S
C691 C690 1.373 1_556 S
C691 C707 1.377 . S
C692 C690 1.389 . S
C692 C693 1.524 . S
C692 C706 1.377 . S
C693 C692 1.524 . S
C693 C694 1.397 . S
C693 C698 1.363 . S
C694 H671 0.950 . S
C694 C693 1.397 . S
C694 C695 1.334 . S
C695 H672 0.950 . S
C695 C694 1.334 . S
C695 C696 1.287 . S
C696 C695 1.287 . S
C696 C697 1.524 . S
C696 H715 0.913 . S
C697 H673 0.950 . S
C697 C696 1.524 . S
C697 C698 1.415 . S
C698 H674 0.950 . S
C698 C693 1.363 . S
C698 C697 1.415 . S
C699 H675 0.951 . S
C699 C700 1.366 . S
C699 C701 1.388 . S
C700 C699 1.366 . S
C700 C704 1.385 . S
C701 H676 0.951 . S
C701 C699 1.388 . S
C701 C702 1.366 . S
C702 C701 1.366 . S
C702 C703 1.414 . S
C702 C705 1.499 . S
C703 H677 0.950 . S
C703 C702 1.414 . S
C703 C704 1.374 . S
C704 H678 0.950 . S
C704 C700 1.385 . S
C704 C703 1.374 . S
C705 C702 1.499 . S
C705 C706 1.373 1_556 S
C705 C707 1.389 . S
C706 H679 0.950 . S
C706 C692 1.377 . S
C706 C705 1.373 1_554 S
C707 C691 1.377 . S
C707 C705 1.389 . S
C707 C708 1.524 . S
C708 C707 1.524 . S
C708 C709 1.397 . S
C708 C713 1.363 . S
C709 H680 0.950 . S
C709 C708 1.397 . S
C709 C710 1.334 . S
C710 H681 0.950 . S
C710 C709 1.334 . S
C710 C711 1.287 . S
C711 C710 1.287 . S
C711 C712 1.524 . S
C711 H714 0.999 . S
C712 H682 0.950 . S
C712 C711 1.524 . S
C712 C713 1.415 . S
C713 H683 0.950 . S
C713 C708 1.363 . S
C713 C712 1.415 . S
H714 C711 0.999 . S
H715 C696 0.913 . S
H716 C734 0.951 . S
H717 C736 0.951 . S
H718 C738 0.950 . S
H719 C739 0.950 . S
H720 C741 0.950 . S
H721 C744 0.950 . S
H722 C745 0.950 . S
H723 C747 0.950 . S
H724 C748 0.950 1_556 S
H725 C749 0.951 . S
H726 C751 0.951 . S
H727 C753 0.950 . S
H728 C754 0.950 . S
H729 C756 0.950 . S
H730 C759 0.950 . S
H731 C760 0.950 . S
H732 C762 0.950 . S
H733 C763 0.950 1_554 S
C734 H716 0.951 . S
C734 C735 1.366 . S
C734 C736 1.388 . S
C735 C734 1.366 . S
C735 C739 1.385 . S
C736 H717 0.951 . S
C736 C734 1.388 . S
C736 C737 1.366 . S
C737 C736 1.366 . S
C737 C738 1.414 . S
C737 C740 1.499 . S
C738 H718 0.950 . S
C738 C737 1.414 . S
C738 C739 1.374 . S
C739 H719 0.950 . S
C739 C735 1.385 . S
C739 C738 1.374 . S
C740 C737 1.499 . S
C740 C741 1.373 . S
C740 C742 1.389 . S
C741 H720 0.950 . S
C741 C740 1.373 . S
C741 C757 1.377 1_554 S
C742 C740 1.389 . S
C742 C743 1.524 . S
C742 C756 1.377 1_554 S
C743 C742 1.524 . S
C743 C744 1.397 . S
C743 C748 1.363 . S
C744 H721 0.950 . S
C744 C743 1.397 . S
C744 C745 1.334 . S
C745 H722 0.950 . S
C745 C744 1.334 . S
C745 C746 1.287 . S
C746 C745 1.287 . S
C746 C747 1.524 . S
C746 H765 0.913 . S
C747 H723 0.950 . S
C747 C746 1.524 . S
C747 C748 1.415 . S
C748 H724 0.950 1_554 S
C748 C743 1.363 . S
C748 C747 1.415 . S
C749 H725 0.951 . S
C749 C750 1.366 . S
C749 C751 1.388 . S
C750 C749 1.366 . S
C750 C754 1.385 . S
C751 H726 0.951 . S
C751 C749 1.388 . S
C751 C752 1.366 . S
C752 C751 1.366 . S
C752 C753 1.414 . S
C752 C755 1.499 . S
C753 H727 0.950 . S
C753 C752 1.414 . S
C753 C754 1.374 . S
C754 H728 0.950 . S
C754 C750 1.385 . S
C754 C753 1.374 . S
C755 C752 1.499 . S
C755 C756 1.373 . S
C755 C757 1.389 . S
C756 H729 0.950 . S
C756 C742 1.377 1_556 S
C756 C755 1.373 . S
C757 C741 1.377 1_556 S
C757 C755 1.389 . S
C757 C758 1.524 . S
C758 C757 1.524 . S
C758 C759 1.397 . S
C758 C763 1.363 . S
C759 H730 0.950 . S
C759 C758 1.397 . S
C759 C760 1.334 . S
C760 H731 0.950 . S
C760 C759 1.334 . S
C760 C761 1.287 . S
C761 C760 1.287 . S
C761 C762 1.524 . S
C761 H764 0.999 . S
C762 H732 0.950 . S
C762 C761 1.524 . S
C762 C763 1.415 . S
C763 H733 0.950 1_556 S
C763 C758 1.363 . S
C763 C762 1.415 . S
H764 C761 0.999 . S
H765 C746 0.913 . S
H766 C784 0.951 . S
H767 C786 0.951 . S
H768 C788 0.950 . S
H769 C789 0.950 . S
H770 C791 0.950 . S
H771 C794 0.950 1_654 S
H772 C795 0.950 . S
H773 C797 0.950 . S
H774 C798 0.950 . S
H775 C799 0.951 . S
H776 C801 0.951 . S
H777 C803 0.950 . S
H778 C804 0.950 . S
H779 C806 0.950 . S
H780 C809 0.950 1_456 S
H781 C810 0.950 . S
H782 C812 0.950 . S
H783 C813 0.950 . S
C784 H766 0.951 . S
C784 C785 1.366 1_455 S
C784 C786 1.388 . S
C785 C784 1.366 1_655 S
C785 C789 1.385 . S
C786 H767 0.951 . S
C786 C784 1.388 . S
C786 C787 1.366 1_455 S
C787 C786 1.366 1_655 S
C787 C788 1.414 . S
C787 C790 1.499 . S
C788 H768 0.950 . S
C788 C787 1.414 . S
C788 C789 1.374 . S
C789 H769 0.950 . S
C789 C785 1.385 . S
C789 C788 1.374 . S
C790 C787 1.499 . S
C790 C791 1.373 . S
C790 C792 1.389 1_654 S
C791 H770 0.950 . S
C791 C790 1.373 . S
C791 C807 1.377 . S
C792 C790 1.389 1_456 S
C792 C793 1.524 . S
C792 C806 1.377 . S
C793 C792 1.524 . S
C793 C794 1.397 . S
C793 C798 1.363 . S
C794 H771 0.950 1_456 S
C794 C793 1.397 . S
C794 C795 1.334 . S
C795 H772 0.950 . S
C795 C794 1.334 . S
C795 C796 1.287 . S
C796 C795 1.287 . S
C796 C797 1.524 . S
C796 H815 0.913 . S
C797 H773 0.950 . S
C797 C796 1.524 . S
C797 C798 1.415 . S
C798 H774 0.950 . S
C798 C793 1.363 . S
C798 C797 1.415 . S
C799 H775 0.951 . S
C799 C800 1.366 . S
C799 C801 1.388 . S
C800 C799 1.366 . S
C800 C804 1.385 1_655 S
C801 H776 0.951 . S
C801 C799 1.388 . S
C801 C802 1.366 . S
C802 C801 1.366 . S
C802 C803 1.414 1_655 S
C802 C805 1.501 . S
C803 H777 0.950 . S
C803 C802 1.414 1_455 S
C803 C804 1.374 . S
C804 H778 0.950 . S
C804 C800 1.385 1_455 S
C804 C803 1.374 . S
C805 C802 1.501 . S
C805 C806 1.352 1_655 S
C805 C807 1.414 1_556 S
C806 H779 0.950 . S
C806 C792 1.377 . S
C806 C805 1.352 1_455 S
C807 C791 1.377 . S
C807 C805 1.414 1_554 S
C807 C808 1.524 . S
C808 C807 1.524 . S
C808 C809 1.397 . S
C808 C813 1.363 . S
C809 H780 0.950 1_654 S
C809 C808 1.397 . S
C809 C810 1.334 . S
C810 H781 0.950 . S
C810 C809 1.334 . S
C810 C811 1.287 . S
C811 C810 1.287 . S
C811 C812 1.524 . S
C811 H814 0.999 . S
C812 H782 0.950 . S
C812 C811 1.524 . S
C812 C813 1.415 . S
C813 H783 0.950 . S
C813 C808 1.363 . S
C813 C812 1.415 . S
H814 C811 0.999 . S
H815 C796 0.913 . S
H816 C834 0.951 . S
H817 C836 0.951 . S
H818 C838 0.950 . S
H819 C839 0.950 . S
H820 C841 0.950 . S
H821 C844 0.950 . S
H822 C845 0.950 . S
H823 C847 0.950 . S
H824 C848 0.950 . S
H825 C849 0.951 . S
H826 C851 0.951 1_455 S
H827 C853 0.950 . S
H828 C854 0.950 . S
H829 C856 0.950 . S
H830 C859 0.950 . S
H831 C860 0.950 . S
H832 C862 0.958 . S
H833 C863 0.950 . S
C834 H816 0.951 . S
C834 C835 1.366 1_655 S
C834 C836 1.388 . S
C835 C834 1.366 1_455 S
C835 C839 1.385 . S
C836 H817 0.951 . S
C836 C834 1.388 . S
C836 C837 1.366 . S
C837 C836 1.366 . S
C837 C838 1.414 1_655 S
C837 C840 1.499 . S
C838 H818 0.950 . S
C838 C837 1.414 1_455 S
C838 C839 1.374 . S
C839 H819 0.950 . S
C839 C835 1.385 . S
C839 C838 1.374 . S
C840 C837 1.499 . S
C840 C841 1.373 . S
C840 C842 1.389 . S
C841 H820 0.950 . S
C841 C840 1.373 . S
C841 C857 1.377 . S
C842 C840 1.389 . S
C842 C843 1.524 . S
C842 C856 1.377 . S
C843 C842 1.524 . S
C843 C844 1.397 1_655 S
C843 C848 1.363 . S
C844 H821 0.950 . S
C844 C843 1.397 1_455 S
C844 C845 1.334 . S
C845 H822 0.950 . S
C845 C844 1.334 . S
C845 C846 1.287 1_455 S
C846 C845 1.287 1_655 S
C846 C847 1.524 . S
C846 H865 0.913 . S
C847 H823 0.950 . S
C847 C846 1.524 . S
C847 C848 1.415 . S
C848 H824 0.950 . S
C848 C843 1.363 . S
C848 C847 1.415 . S
C849 H825 0.951 . S
C849 C850 1.366 . S
C849 C851 1.388 . S
C850 C849 1.366 . S
C850 C854 1.385 . S
C851 H826 0.951 1_655 S
C851 C849 1.388 . S
C851 C852 1.366 . S
C852 C851 1.366 . S
C852 C853 1.414 . S
C852 C855 1.499 . S
C853 H827 0.950 . S
C853 C852 1.414 . S
C853 C854 1.374 . S
C854 H828 0.950 . S
C854 C850 1.385 . S
C854 C853 1.374 . S
C855 C852 1.499 . S
C855 C856 1.373 . S
C855 C857 1.389 . S
C856 H829 0.950 . S
C856 C842 1.377 . S
C856 C855 1.373 . S
C857 C841 1.377 . S
C857 C855 1.389 . S
C857 C858 1.524 . S
C858 C857 1.524 . S
C858 C859 1.397 . S
C858 C863 1.363 1_655 S
C859 H830 0.950 . S
C859 C858 1.397 . S
C859 C860 1.334 . S
C860 H831 0.950 . S
C860 C859 1.334 . S
C860 C861 1.287 . S
C861 C860 1.287 . S
C861 C862 1.513 1_655 S
C861 H864 0.999 . S
C862 H832 0.958 . S
C862 C861 1.513 1_455 S
C862 C863 1.416 . S
C863 H833 0.950 . S
C863 C858 1.363 1_455 S
C863 C862 1.416 . S
H864 C861 0.999 . S
H865 C846 0.913 . S
H866 C884 0.951 . S
H867 C886 0.951 . S
H868 C888 0.950 . S
H869 C889 0.950 . S
H870 C891 0.950 . S
H871 C894 0.950 . S
H872 C895 0.950 . S
H873 C897 0.950 . S
H874 C898 0.950 1_565 S
H875 C899 0.951 . S
H876 C901 0.951 . S
H877 C903 0.950 . S
H878 C904 0.950 . S
H879 C906 0.950 . S
H880 C909 0.950 . S
H881 C910 0.950 . S
H882 C912 0.950 . S
H883 C913 0.950 . S
C884 H866 0.951 . S
C884 C885 1.366 1_565 S
C884 C886 1.388 . S
C885 C884 1.366 1_545 S
C885 C889 1.385 . S
C886 H867 0.951 . S
C886 C884 1.388 . S
C886 C887 1.366 . S
C887 C886 1.366 . S
C887 C888 1.414 1_565 S
C887 C890 1.499 . S
C888 H868 0.950 . S
C888 C887 1.414 1_545 S
C888 C889 1.374 . S
C889 H869 0.950 . S
C889 C885 1.385 . S
C889 C888 1.374 . S
C890 C887 1.499 . S
C890 C891 1.373 . S
C890 C892 1.389 . S
C891 H870 0.950 . S
C891 C890 1.373 . S
C891 C907 1.377 . S
C892 C890 1.389 . S
C892 C893 1.524 1_565 S
C892 C906 1.377 . S
C893 C892 1.524 1_545 S
C893 C894 1.397 . S
C893 C898 1.363 . S
C894 H871 0.950 . S
C894 C893 1.397 . S
C894 C895 1.334 . S
C895 H872 0.950 . S
C895 C894 1.334 . S
C895 C896 1.287 . S
C896 C895 1.287 . S
C896 C897 1.524 . S
C896 H915 0.913 . S
C897 H873 0.950 . S
C897 C896 1.524 . S
C897 C898 1.415 . S
C898 H874 0.950 1_545 S
C898 C893 1.363 . S
C898 C897 1.415 . S
C899 H875 0.951 . S
C899 C900 1.366 . S
C899 C901 1.388 . S
C900 C899 1.366 . S
C900 C904 1.385 . S
C901 H876 0.951 . S
C901 C899 1.388 . S
C901 C902 1.366 . S
C902 C901 1.366 . S
C902 C903 1.414 . S
C902 C905 1.499 . S
C903 H877 0.950 . S
C903 C902 1.414 . S
C903 C904 1.374 . S
C904 H878 0.950 . S
C904 C900 1.385 . S
C904 C903 1.374 . S
C905 C902 1.499 . S
C905 C906 1.373 . S
C905 C907 1.389 . S
C906 H879 0.950 . S
C906 C892 1.377 . S
C906 C905 1.373 . S
C907 C891 1.377 . S
C907 C905 1.389 . S
C907 C908 1.524 . S
C908 C907 1.524 . S
C908 C909 1.397 . S
C908 C913 1.363 . S
C909 H880 0.950 . S
C909 C908 1.397 . S
C909 C910 1.334 . S
C910 H881 0.950 . S
C910 C909 1.334 . S
C910 C911 1.287 . S
C911 C910 1.287 . S
C911 C912 1.524 . S
C911 H914 0.999 . S
C912 H882 0.950 . S
C912 C911 1.524 . S
C912 C913 1.415 . S
C913 H883 0.950 . S
C913 C908 1.363 . S
C913 C912 1.415 . S
H914 C911 0.999 . S
H915 C896 0.913 . S
H916 C934 0.951 . S
H917 C936 0.951 . S
H918 C938 0.950 . S
H919 C939 0.950 . S
H920 C941 0.950 . S
H921 C944 0.950 . S
H922 C945 0.950 . S
H923 C947 0.950 . S
H924 C948 0.950 . S
H925 C949 0.951 . S
H926 C951 0.951 . S
H927 C953 0.950 . S
H928 C954 0.950 . S
H929 C956 0.950 . S
H930 C959 0.950 . S
H931 C960 0.950 . S
H932 C962 0.950 . S
H933 C963 0.950 . S
C934 H916 0.951 . S
C934 C935 1.366 . S
C934 C936 1.388 . S
C935 C934 1.366 . S
C935 C939 1.385 . S
C936 H917 0.951 . S
C936 C934 1.388 . S
C936 C937 1.366 . S
C937 C936 1.366 . S
C937 C938 1.414 . S
C937 C940 1.499 . S
C938 H918 0.950 . S
C938 C937 1.414 . S
C938 C939 1.374 . S
C939 H919 0.950 . S
C939 C935 1.385 . S
C939 C938 1.374 . S
C940 C937 1.499 . S
C940 C941 1.373 . S
C940 C942 1.389 . S
C941 H920 0.950 . S
C941 C940 1.373 . S
C941 C957 1.377 . S
C942 C940 1.389 . S
C942 C943 1.524 . S
C942 C956 1.377 . S
C943 C942 1.524 . S
C943 C944 1.397 . S
C943 C948 1.363 . S
C944 H921 0.950 . S
C944 C943 1.397 . S
C944 C945 1.334 . S
C945 H922 0.950 . S
C945 C944 1.334 . S
C945 C946 1.287 . S
C946 C945 1.287 . S
C946 C947 1.524 . S
C946 H965 0.913 . S
C947 H923 0.950 . S
C947 C946 1.524 . S
C947 C948 1.415 . S
C948 H924 0.950 . S
C948 C943 1.363 . S
C948 C947 1.415 . S
C949 H925 0.951 . S
C949 C950 1.366 . S
C949 C951 1.388 . S
C950 C949 1.366 . S
C950 C954 1.385 . S
C951 H926 0.951 . S
C951 C949 1.388 . S
C951 C952 1.366 . S
C952 C951 1.366 . S
C952 C953 1.414 . S
C952 C955 1.499 . S
C953 H927 0.950 . S
C953 C952 1.414 . S
C953 C954 1.374 . S
C954 H928 0.950 . S
C954 C950 1.385 . S
C954 C953 1.374 . S
C955 C952 1.499 . S
C955 C956 1.373 . S
C955 C957 1.389 . S
C956 H929 0.950 . S
C956 C942 1.377 . S
C956 C955 1.373 . S
C957 C941 1.377 . S
C957 C955 1.389 . S
C957 C958 1.524 . S
C958 C957 1.524 . S
C958 C959 1.397 . S
C958 C963 1.363 . S
C959 H930 0.950 . S
C959 C958 1.397 . S
C959 C960 1.334 . S
C960 H931 0.950 . S
C960 C959 1.334 . S
C960 C961 1.287 . S
C961 C960 1.287 . S
C961 C962 1.524 . S
C961 H964 0.999 . S
C962 H932 0.950 . S
C962 C961 1.524 . S
C962 C963 1.415 . S
C963 H933 0.950 . S
C963 C958 1.363 . S
C963 C962 1.415 . S
H964 C961 0.999 . S
H965 C946 0.913 . S
H966 C984 0.951 . S
H967 C986 0.951 . S
H968 C988 0.950 . S
H969 C989 0.950 . S
H970 C991 0.950 . S
H971 C994 0.950 . S
H972 C995 0.950 . S
H973 C997 0.950 . S
H974 C998 0.950 . S
H975 C999 0.951 . S
H976 C1001 0.951 . S
H977 C1003 0.950 . S
H978 C1004 0.950 . S
H979 C1006 0.950 . S
H980 C1009 0.950 . S
H981 C1010 0.950 . S
H982 C1012 0.950 . S
H983 C1013 0.950 . S
C984 H966 0.951 . S
C984 C985 1.366 . S
C984 C986 1.388 . S
C985 C984 1.366 . S
C985 C989 1.385 . S
C986 H967 0.951 . S
C986 C984 1.388 . S
C986 C987 1.366 . S
C987 C986 1.366 . S
C987 C988 1.414 . S
C987 C990 1.499 . S
C988 H968 0.950 . S
C988 C987 1.414 . S
C988 C989 1.374 . S
C989 H969 0.950 . S
C989 C985 1.385 . S
C989 C988 1.374 . S
C990 C987 1.499 . S
C990 C991 1.373 . S
C990 C992 1.389 . S
C991 H970 0.950 . S
C991 C990 1.373 . S
C991 C1007 1.377 . S
C992 C990 1.389 . S
C992 C993 1.524 . S
C992 C1006 1.377 . S
C993 C992 1.524 . S
C993 C994 1.397 . S
C993 C998 1.363 . S
C994 H971 0.950 . S
C994 C993 1.397 . S
C994 C995 1.334 . S
C995 H972 0.950 . S
C995 C994 1.334 . S
C995 C996 1.287 . S
C996 C995 1.287 . S
C996 C997 1.524 . S
C996 H1015 0.913 . S
C997 H973 0.950 . S
C997 C996 1.524 . S
C997 C998 1.415 . S
C998 H974 0.950 . S
C998 C993 1.363 . S
C998 C997 1.415 . S
C999 H975 0.951 . S
C999 C1000 1.366 . S
C999 C1001 1.388 . S
C1000 C999 1.366 . S
C1000 C1004 1.385 . S
C1001 H976 0.951 . S
C1001 C999 1.388 . S
C1001 C1002 1.366 . S
C1002 C1001 1.366 . S
C1002 C1003 1.414 . S
C1002 C1005 1.499 . S
C1003 H977 0.950 . S
C1003 C1002 1.414 . S
C1003 C1004 1.374 . S
C1004 H978 0.950 . S
C1004 C1000 1.385 . S
C1004 C1003 1.374 . S
C1005 C1002 1.499 . S
C1005 C1006 1.373 . S
C1005 C1007 1.389 . S
C1006 H979 0.950 . S
C1006 C992 1.377 . S
C1006 C1005 1.373 . S
C1007 C991 1.377 . S
C1007 C1005 1.389 . S
C1007 C1008 1.524 . S
C1008 C1007 1.524 . S
C1008 C1009 1.397 . S
C1008 C1013 1.363 . S
C1009 H980 0.950 . S
C1009 C1008 1.397 . S
C1009 C1010 1.334 . S
C1010 H981 0.950 . S
C1010 C1009 1.334 . S
C1010 C1011 1.287 . S
C1011 C1010 1.287 . S
C1011 C1012 1.524 . S
C1011 H1014 0.999 . S
C1012 H982 0.950 . S
C1012 C1011 1.524 . S
C1012 C1013 1.415 . S
C1013 H983 0.950 . S
C1013 C1008 1.363 . S
C1013 C1012 1.415 . S
H1014 C1011 0.999 . S
H1015 C996 0.913 . S
H1016 C1034 0.951 . S
H1017 C1036 0.951 . S
H1018 C1038 0.950 . S
H1019 C1039 0.950 . S
H1020 C1041 0.950 . S
H1021 C1044 0.950 . S
H1022 C1045 0.950 . S
H1023 C1047 0.950 . S
H1024 C1048 0.950 1_554 S
H1025 C1049 0.951 . S
H1026 C1051 0.951 . S
H1027 C1053 0.950 1_655 S
H1028 C1054 0.950 . S
H1029 C1056 0.987 . S
H1030 C1059 0.950 . S
H1031 C1060 0.950 . S
H1032 C1062 0.950 . S
H1033 C1063 0.950 . S
C1034 H1016 0.951 . S
C1034 C1035 1.366 . S
C1034 C1036 1.388 . S
C1035 C1034 1.366 . S
C1035 C1039 1.385 1_655 S
C1036 H1017 0.951 . S
C1036 C1034 1.388 . S
C1036 C1037 1.366 1_655 S
C1037 C1036 1.366 1_455 S
C1037 C1038 1.414 . S
C1037 C1040 1.499 . S
C1038 H1018 0.950 . S
C1038 C1037 1.414 . S
C1038 C1039 1.374 . S
C1039 H1019 0.950 . S
C1039 C1035 1.385 1_455 S
C1039 C1038 1.374 . S
C1040 C1037 1.499 . S
C1040 C1041 1.373 . S
C1040 C1042 1.389 1_455 S
C1041 H1020 0.950 . S
C1041 C1040 1.373 . S
C1041 C1057 1.377 . S
C1042 C1040 1.389 1_655 S
C1042 C1043 1.524 1_554 S
C1042 C1056 1.387 1_554 S
C1043 C1042 1.524 1_556 S
C1043 C1044 1.397 . S
C1043 C1048 1.363 . S
C1044 H1021 0.950 . S
C1044 C1043 1.397 . S
C1044 C1045 1.334 . S
C1045 H1022 0.950 . S
C1045 C1044 1.334 . S
C1045 C1046 1.287 . S
C1046 C1045 1.287 . S
C1046 C1047 1.524 . S
C1046 H1065 0.913 . S
C1047 H1023 0.950 . S
C1047 C1046 1.524 . S
C1047 C1048 1.415 . S
C1048 H1024 0.950 1_556 S
C1048 C1043 1.363 . S
C1048 C1047 1.415 . S
C1049 H1025 0.951 . S
C1049 C1050 1.366 . S
C1049 C1051 1.388 . S
C1050 C1049 1.366 . S
C1050 C1054 1.385 . S
C1051 H1026 0.951 . S
C1051 C1049 1.388 . S
C1051 C1052 1.366 . S
C1052 C1051 1.366 . S
C1052 C1053 1.414 . S
C1052 C1055 1.499 . S
C1053 H1027 0.950 1_455 S
C1053 C1052 1.414 . S
C1053 C1054 1.374 . S
C1054 H1028 0.950 . S
C1054 C1050 1.385 . S
C1054 C1053 1.374 . S
C1055 C1052 1.499 . S
C1055 C1056 1.328 1_455 S
C1055 C1057 1.389 1_556 S
C1056 H1029 0.987 . S
C1056 C1042 1.387 1_556 S
C1056 C1055 1.328 1_655 S
C1057 C1041 1.377 . S
C1057 C1055 1.389 1_554 S
C1057 C1058 1.524 . S
C1058 C1057 1.524 . S
C1058 C1059 1.397 . S
C1058 C1063 1.363 . S
C1059 H1030 0.950 . S
C1059 C1058 1.397 . S
C1059 C1060 1.334 . S
C1060 H1031 0.950 . S
C1060 C1059 1.334 . S
C1060 C1061 1.287 . S
C1061 C1060 1.287 . S
C1061 C1062 1.524 . S
C1061 H1064 0.999 . S
C1062 H1032 0.950 . S
C1062 C1061 1.524 . S
C1062 C1063 1.415 . S
C1063 H1033 0.950 . S
C1063 C1058 1.363 . S
C1063 C1062 1.415 . S
H1064 C1061 0.999 . S
H1065 C1046 0.913 . S
H1066 C1084 0.949 1_565 S
H1067 C1086 0.951 . S
H1068 C1088 0.950 . S
H1069 C1089 0.952 . S
H1070 C1091 0.951 . S
H1071 C1094 0.950 . S
H1072 C1095 0.950 . S
H1073 C1097 0.950 . S
H1074 C1098 0.950 . S
H1075 C1099 0.951 . S
H1076 C1101 0.951 . S
H1077 C1103 0.950 1_554 S
H1078 C1104 0.950 . S
H1079 C1106 0.950 1_565 S
H1080 C1109 0.950 . S
H1081 C1110 0.950 . S
H1082 C1112 0.950 . S
H1083 C1113 0.950 . S
C1084 H1066 0.949 1_545 S
C1084 C1085 1.362 1_545 S
C1084 C1086 1.395 . S
C1085 C1084 1.362 1_565 S
C1085 C1089 1.385 . S
C1086 H1067 0.951 . S
C1086 C1084 1.395 . S
C1086 C1087 1.366 . S
C1087 C1086 1.366 . S
C1087 C1088 1.414 . S
C1087 C1090 1.499 . S
C1088 H1068 0.950 . S
C1088 C1087 1.414 . S
C1088 C1089 1.371 1_545 S
C1089 H1069 0.952 . S
C1089 C1085 1.385 . S
C1089 C1088 1.371 1_565 S
C1090 C1087 1.499 . S
C1090 C1091 1.373 . S
C1090 C1092 1.369 1_545 S
C1091 H1070 0.951 . S
C1091 C1090 1.373 . S
C1091 C1107 1.377 1_554 S
C1092 C1090 1.369 1_565 S
C1092 C1093 1.560 . S
C1092 C1106 1.366 1_565 S
C1093 C1092 1.560 . S
C1093 C1094 1.397 . S
C1093 C1098 1.363 . S
C1094 H1071 0.950 . S
C1094 C1093 1.397 . S
C1094 C1095 1.334 . S
C1095 H1072 0.950 . S
C1095 C1094 1.334 . S
C1095 C1096 1.287 . S
C1096 C1095 1.287 . S
C1096 C1097 1.524 . S
C1096 H1115 0.913 . S
C1097 H1073 0.950 . S
C1097 C1096 1.524 . S
C1097 C1098 1.415 . S
C1098 H1074 0.950 . S
C1098 C1093 1.363 . S
C1098 C1097 1.415 . S
C1099 H1075 0.951 . S
C1099 C1100 1.366 . S
C1099 C1101 1.388 . S
C1100 C1099 1.366 . S
C1100 C1104 1.385 . S
C1101 H1076 0.951 . S
C1101 C1099 1.388 . S
C1101 C1102 1.366 . S
C1102 C1101 1.366 . S
C1102 C1103 1.414 . S
C1102 C1105 1.499 . S
C1103 H1077 0.950 1_556 S
C1103 C1102 1.414 . S
C1103 C1104 1.374 . S
C1104 H1078 0.950 . S
C1104 C1100 1.385 . S
C1104 C1103 1.374 . S
C1105 C1102 1.499 . S
C1105 C1106 1.373 1_556 S
C1105 C1107 1.389 . S
C1106 H1079 0.950 1_545 S
C1106 C1092 1.366 1_545 S
C1106 C1105 1.373 1_554 S
C1107 C1091 1.377 1_556 S
C1107 C1105 1.389 . S
C1107 C1108 1.524 . S
C1108 C1107 1.524 . S
C1108 C1109 1.397 . S
C1108 C1113 1.363 . S
C1109 H1080 0.950 . S
C1109 C1108 1.397 . S
C1109 C1110 1.334 . S
C1110 H1081 0.950 . S
C1110 C1109 1.334 . S
C1110 C1111 1.287 . S
C1111 C1110 1.287 . S
C1111 C1112 1.524 . S
C1111 H1114 0.999 . S
C1112 H1082 0.950 . S
C1112 C1111 1.524 . S
C1112 C1113 1.415 . S
C1113 H1083 0.950 . S
C1113 C1108 1.363 . S
C1113 C1112 1.415 . S
H1114 C1111 0.999 . S
H1115 C1096 0.913 . S
H1116 C1134 0.951 . S
H1117 C1136 0.951 . S
H1118 C1138 0.950 . S
H1119 C1139 0.950 . S
H1120 C1141 0.950 1_556 S
H1121 C1144 0.950 . S
H1122 C1145 0.950 . S
H1123 C1147 0.950 . S
H1124 C1148 0.950 . S
H1125 C1149 0.951 . S
H1126 C1151 0.951 . S
H1127 C1153 0.950 1_554 S
H1128 C1154 0.950 . S
H1129 C1156 0.950 . S
H1130 C1159 0.950 . S
H1131 C1160 0.950 . S
H1132 C1162 0.950 . S
H1133 C1163 0.950 . S
C1134 H1116 0.951 . S
C1134 C1135 1.366 . S
C1134 C1136 1.388 . S
C1135 C1134 1.366 . S
C1135 C1139 1.385 . S
C1136 H1117 0.951 . S
C1136 C1134 1.388 . S
C1136 C1137 1.366 . S
C1137 C1136 1.366 . S
C1137 C1138 1.414 . S
C1137 C1140 1.499 . S
C1138 H1118 0.950 . S
C1138 C1137 1.414 . S
C1138 C1139 1.374 . S
C1139 H1119 0.950 . S
C1139 C1135 1.385 . S
C1139 C1138 1.374 . S
C1140 C1137 1.499 . S
C1140 C1141 1.373 . S
C1140 C1142 1.389 . S
C1141 H1120 0.950 1_554 S
C1141 C1140 1.373 . S
C1141 C1157 1.377 1_554 S
C1142 C1140 1.389 . S
C1142 C1143 1.524 . S
C1142 C1156 1.377 . S
C1143 C1142 1.524 . S
C1143 C1144 1.397 . S
C1143 C1148 1.363 . S
C1144 H1121 0.950 . S
C1144 C1143 1.397 . S
C1144 C1145 1.334 . S
C1145 H1122 0.950 . S
C1145 C1144 1.334 . S
C1145 C1146 1.287 . S
C1146 C1145 1.287 . S
C1146 C1147 1.524 . S
C1146 H1165 0.913 . S
C1147 H1123 0.950 . S
C1147 C1146 1.524 . S
C1147 C1148 1.415 . S
C1148 H1124 0.950 . S
C1148 C1143 1.363 . S
C1148 C1147 1.415 . S
C1149 H1125 0.951 . S
C1149 C1150 1.366 . S
C1149 C1151 1.388 . S
C1150 C1149 1.366 . S
C1150 C1154 1.385 . S
C1151 H1126 0.951 . S
C1151 C1149 1.388 . S
C1151 C1152 1.366 . S
C1152 C1151 1.366 . S
C1152 C1153 1.414 . S
C1152 C1155 1.499 . S
C1153 H1127 0.950 1_556 S
C1153 C1152 1.414 . S
C1153 C1154 1.374 . S
C1154 H1128 0.950 . S
C1154 C1150 1.385 . S
C1154 C1153 1.374 . S
C1155 C1152 1.499 . S
C1155 C1156 1.373 1_556 S
C1155 C1157 1.389 . S
C1156 H1129 0.950 . S
C1156 C1142 1.377 . S
C1156 C1155 1.373 1_554 S
C1157 C1141 1.377 1_556 S
C1157 C1155 1.389 . S
C1157 C1158 1.524 . S
C1158 C1157 1.524 . S
C1158 C1159 1.397 . S
C1158 C1163 1.363 . S
C1159 H1130 0.950 . S
C1159 C1158 1.397 . S
C1159 C1160 1.334 . S
C1160 H1131 0.950 . S
C1160 C1159 1.334 . S
C1160 C1161 1.287 . S
C1161 C1160 1.287 . S
C1161 C1162 1.524 . S
C1161 H1164 0.999 . S
C1162 H1132 0.950 . S
C1162 C1161 1.524 . S
C1162 C1163 1.415 . S
C1163 H1133 0.950 . S
C1163 C1158 1.363 . S
C1163 C1162 1.415 . S
H1164 C1161 0.999 . S
H1165 C1146 0.913 . S
H1166 C1184 0.951 . S
H1167 C1186 0.951 . S
H1168 C1188 0.950 . S
H1169 C1189 0.950 . S
H1170 C1191 0.950 . S
H1171 C1194 0.950 . S
H1172 C1195 0.950 . S
H1173 C1197 0.950 . S
H1174 C1198 0.950 . S
H1175 C1199 0.951 . S
H1176 C1201 0.951 . S
H1177 C1203 0.950 . S
H1178 C1204 0.950 . S
H1179 C1206 0.950 . S
H1180 C1209 0.950 . S
H1181 C1210 0.950 . S
H1182 C1212 0.950 . S
H1183 C1213 0.950 . S
C1184 H1166 0.951 . S
C1184 C1185 1.366 . S
C1184 C1186 1.388 . S
C1185 C1184 1.366 . S
C1185 C1189 1.385 . S
C1186 H1167 0.951 . S
C1186 C1184 1.388 . S
C1186 C1187 1.366 . S
C1187 C1186 1.366 . S
C1187 C1188 1.414 . S
C1187 C1190 1.499 . S
C1188 H1168 0.950 . S
C1188 C1187 1.414 . S
C1188 C1189 1.374 . S
C1189 H1169 0.950 . S
C1189 C1185 1.385 . S
C1189 C1188 1.374 . S
C1190 C1187 1.499 . S
C1190 C1191 1.373 . S
C1190 C1192 1.389 . S
C1191 H1170 0.950 . S
C1191 C1190 1.373 . S
C1191 C1207 1.377 1_554 S
C1192 C1190 1.389 . S
C1192 C1193 1.524 . S
C1192 C1206 1.377 . S
C1193 C1192 1.524 . S
C1193 C1194 1.397 . S
C1193 C1198 1.363 . S
C1194 H1171 0.950 . S
C1194 C1193 1.397 . S
C1194 C1195 1.334 . S
C1195 H1172 0.950 . S
C1195 C1194 1.334 . S
C1195 C1196 1.287 . S
C1196 C1195 1.287 . S
C1196 C1197 1.524 . S
C1196 H1215 0.913 . S
C1197 H1173 0.950 . S
C1197 C1196 1.524 . S
C1197 C1198 1.415 . S
C1198 H1174 0.950 . S
C1198 C1193 1.363 . S
C1198 C1197 1.415 . S
C1199 H1175 0.951 . S
C1199 C1200 1.366 . S
C1199 C1201 1.388 . S
C1200 C1199 1.366 . S
C1200 C1204 1.385 . S
C1201 H1176 0.951 . S
C1201 C1199 1.388 . S
C1201 C1202 1.366 . S
C1202 C1201 1.366 . S
C1202 C1203 1.414 . S
C1202 C1205 1.499 . S
C1203 H1177 0.950 . S
C1203 C1202 1.414 . S
C1203 C1204 1.374 . S
C1204 H1178 0.950 . S
C1204 C1200 1.385 . S
C1204 C1203 1.374 . S
C1205 C1202 1.499 . S
C1205 C1206 1.373 1_556 S
C1205 C1207 1.389 . S
C1206 H1179 0.950 . S
C1206 C1192 1.377 . S
C1206 C1205 1.373 1_554 S
C1207 C1191 1.377 1_556 S
C1207 C1205 1.389 . S
C1207 C1208 1.524 . S
C1208 C1207 1.524 . S
C1208 C1209 1.397 . S
C1208 C1213 1.363 . S
C1209 H1180 0.950 . S
C1209 C1208 1.397 . S
C1209 C1210 1.334 . S
C1210 H1181 0.950 . S
C1210 C1209 1.334 . S
C1210 C1211 1.287 . S
C1211 C1210 1.287 . S
C1211 C1212 1.524 . S
C1211 H1214 0.999 . S
C1212 H1182 0.950 . S
C1212 C1211 1.524 . S
C1212 C1213 1.415 . S
C1213 H1183 0.950 . S
C1213 C1208 1.363 . S
C1213 C1212 1.415 . S
H1214 C1211 0.999 . S
H1215 C1196 0.913 . S
H1216 C1234 0.951 . S
H1217 C1236 0.951 . S
H1218 C1238 0.950 . S
H1219 C1239 0.950 . S
H1220 C1241 0.951 1_655 S
H1221 C1244 0.950 . S
H1222 C1245 0.950 . S
H1223 C1247 0.950 . S
H1224 C1248 0.950 1_655 S
H1225 C1249 0.951 . S
H1226 C1251 0.951 . S
H1227 C1253 0.950 . S
H1228 C1254 0.981 . S
H1229 C1256 0.950 . S
H1230 C1259 0.950 . S
H1231 C1260 0.950 . S
H1232 C1262 0.950 1_455 S
H1233 C1263 0.950 . S
C1234 H1216 0.951 . S
C1234 C1235 1.366 1_655 S
C1234 C1236 1.388 . S
C1235 C1234 1.366 1_455 S
C1235 C1239 1.385 . S
C1236 H1217 0.951 . S
C1236 C1234 1.388 . S
C1236 C1237 1.366 1_655 S
C1237 C1236 1.366 1_455 S
C1237 C1238 1.414 . S
C1237 C1240 1.499 . S
C1238 H1218 0.950 . S
C1238 C1237 1.414 . S
C1238 C1239 1.374 . S
C1239 H1219 0.950 . S
C1239 C1235 1.385 . S
C1239 C1238 1.374 . S
C1240 C1237 1.499 . S
C1240 C1241 1.373 . S
C1240 C1242 1.389 . S
C1241 H1220 0.951 1_455 S
C1241 C1240 1.373 . S
C1241 C1257 1.377 . S
C1242 C1240 1.389 . S
C1242 C1243 1.524 . S
C1242 C1256 1.377 . S
C1243 C1242 1.524 . S
C1243 C1244 1.397 . S
C1243 C1248 1.363 . S
C1244 H1221 0.950 . S
C1244 C1243 1.397 . S
C1244 C1245 1.334 . S
C1245 H1222 0.950 . S
C1245 C1244 1.334 . S
C1245 C1246 1.273 1_556 S
C1246 C1245 1.273 1_554 S
C1246 C1247 1.525 . S
C1246 H1265 0.928 . S
C1247 H1223 0.950 . S
C1247 C1246 1.525 . S
C1247 C1248 1.415 1_554 S
C1248 H1224 0.950 1_455 S
C1248 C1243 1.363 . S
C1248 C1247 1.415 1_556 S
C1249 H1225 0.951 . S
C1249 C1250 1.366 . S
C1249 C1251 1.388 . S
C1250 C1249 1.366 . S
C1250 C1254 1.353 1_455 S
C1251 H1226 0.951 . S
C1251 C1249 1.388 . S
C1251 C1252 1.366 . S
C1252 C1251 1.366 . S
C1252 C1253 1.414 1_455 S
C1252 C1255 1.499 . S
C1253 H1227 0.950 . S
C1253 C1252 1.414 1_655 S
C1253 C1254 1.379 . S
C1254 H1228 0.981 . S
C1254 C1250 1.353 1_655 S
C1254 C1253 1.379 . S
C1255 C1252 1.499 . S
C1255 C1256 1.373 . S
C1255 C1257 1.389 . S
C1256 H1229 0.950 . S
C1256 C1242 1.377 . S
C1256 C1255 1.373 . S
C1257 C1241 1.377 . S
C1257 C1255 1.389 . S
C1257 C1258 1.524 1_455 S
C1258 C1257 1.524 1_655 S
C1258 C1259 1.397 . S
C1258 C1263 1.363 1_655 S
C1259 H1230 0.950 . S
C1259 C1258 1.397 . S
C1259 C1260 1.334 . S
C1260 H1231 0.950 . S
C1260 C1259 1.334 . S
C1260 C1261 1.287 . S
C1261 C1260 1.287 . S
C1261 C1262 1.524 . S
C1261 H1264 0.999 . S
C1262 H1232 0.950 1_655 S
C1262 C1261 1.524 . S
C1262 C1263 1.415 1_655 S
C1263 H1233 0.950 . S
C1263 C1258 1.363 1_455 S
C1263 C1262 1.415 1_455 S
H1264 C1261 0.999 . S
H1265 C1246 0.928 . S
H1266 C1284 0.951 . S
H1267 C1286 0.951 . S
H1268 C1288 0.950 . S
H1269 C1289 0.950 . S
H1270 C1291 0.950 . S
H1271 C1294 0.950 . S
H1272 C1295 0.950 . S
H1273 C1297 0.950 . S
H1274 C1298 0.950 . S
H1275 C1299 0.951 . S
H1276 C1301 0.962 . S
H1277 C1303 0.950 . S
H1278 C1304 0.950 . S
H1279 C1306 0.950 . S
H1280 C1309 0.950 . S
H1281 C1310 0.950 . S
H1282 C1312 0.950 1_554 S
H1283 C1313 0.950 . S
C1284 H1266 0.951 . S
C1284 C1285 1.366 . S
C1284 C1286 1.388 . S
C1285 C1284 1.366 . S
C1285 C1289 1.385 1_545 S
C1286 H1267 0.951 . S
C1286 C1284 1.388 . S
C1286 C1287 1.366 . S
C1287 C1286 1.366 . S
C1287 C1288 1.414 1_545 S
C1287 C1290 1.499 . S
C1288 H1268 0.950 . S
C1288 C1287 1.414 1_565 S
C1288 C1289 1.374 . S
C1289 H1269 0.950 . S
C1289 C1285 1.385 1_565 S
C1289 C1288 1.374 . S
C1290 C1287 1.499 . S
C1290 C1291 1.373 . S
C1290 C1292 1.389 1_545 S
C1291 H1270 0.950 . S
C1291 C1290 1.373 . S
C1291 C1307 1.377 . S
C1292 C1290 1.389 1_565 S
C1292 C1293 1.524 . S
C1292 C1306 1.377 . S
C1293 C1292 1.524 . S
C1293 C1294 1.397 . S
C1293 C1298 1.363 . S
C1294 H1271 0.950 . S
C1294 C1293 1.397 . S
C1294 C1295 1.334 . S
C1295 H1272 0.950 . S
C1295 C1294 1.334 . S
C1295 C1296 1.287 . S
C1296 C1295 1.287 . S
C1296 C1297 1.524 . S
C1296 H1315 0.913 . S
C1297 H1273 0.950 . S
C1297 C1296 1.524 . S
C1297 C1298 1.415 . S
C1298 H1274 0.950 . S
C1298 C1293 1.363 . S
C1298 C1297 1.415 . S
C1299 H1275 0.951 . S
C1299 C1300 1.366 . S
C1299 C1301 1.388 . S
C1300 C1299 1.366 . S
C1300 C1304 1.385 . S
C1301 H1276 0.962 . S
C1301 C1299 1.388 . S
C1301 C1302 1.366 . S
C1302 C1301 1.366 . S
C1302 C1303 1.414 . S
C1302 C1305 1.499 . S
C1303 H1277 0.950 . S
C1303 C1302 1.414 . S
C1303 C1304 1.374 . S
C1304 H1278 0.950 . S
C1304 C1300 1.385 . S
C1304 C1303 1.374 . S
C1305 C1302 1.499 . S
C1305 C1306 1.373 1_545 S
C1305 C1307 1.389 . S
C1306 H1279 0.950 . S
C1306 C1292 1.377 . S
C1306 C1305 1.373 1_565 S
C1307 C1291 1.377 . S
C1307 C1305 1.389 . S
C1307 C1308 1.524 . S
C1308 C1307 1.524 . S
C1308 C1309 1.397 . S
C1308 C1313 1.363 . S
C1309 H1280 0.950 . S
C1309 C1308 1.397 . S
C1309 C1310 1.334 . S
C1310 H1281 0.950 . S
C1310 C1309 1.334 . S
C1310 C1311 1.287 . S
C1311 C1310 1.287 . S
C1311 C1312 1.524 . S
C1311 H1314 0.999 . S
C1312 H1282 0.950 1_556 S
C1312 C1311 1.524 . S
C1312 C1313 1.415 . S
C1313 H1283 0.950 . S
C1313 C1308 1.363 . S
C1313 C1312 1.415 . S
H1314 C1311 0.999 . S
H1315 C1296 0.913 . S
H1316 C1334 0.951 . S
H1317 C1336 0.951 . S
H1318 C1338 0.950 . S
H1319 C1339 0.950 . S
H1320 C1341 0.950 . S
H1321 C1344 0.950 . S
H1322 C1345 0.950 . S
H1323 C1347 0.950 . S
H1324 C1348 0.950 . S
H1325 C1349 0.951 . S
H1326 C1351 0.951 . S
H1327 C1353 0.950 . S
H1328 C1354 0.950 . S
H1329 C1356 0.950 . S
H1330 C1359 0.950 . S
H1331 C1360 0.950 . S
H1332 C1362 0.950 . S
H1333 C1363 0.950 . S
C1334 H1316 0.951 . S
C1334 C1335 1.366 . S
C1334 C1336 1.388 . S
C1335 C1334 1.366 . S
C1335 C1339 1.385 . S
C1336 H1317 0.951 . S
C1336 C1334 1.388 . S
C1336 C1337 1.366 . S
C1337 C1336 1.366 . S
C1337 C1338 1.414 . S
C1337 C1340 1.499 . S
C1338 H1318 0.950 . S
C1338 C1337 1.414 . S
C1338 C1339 1.374 . S
C1339 H1319 0.950 . S
C1339 C1335 1.385 . S
C1339 C1338 1.374 . S
C1340 C1337 1.499 . S
C1340 C1341 1.373 . S
C1340 C1342 1.389 . S
C1341 H1320 0.950 . S
C1341 C1340 1.373 . S
C1341 C1357 1.377 . S
C1342 C1340 1.389 . S
C1342 C1343 1.524 . S
C1342 C1356 1.377 . S
C1343 C1342 1.524 . S
C1343 C1344 1.397 . S
C1343 C1348 1.363 . S
C1344 H1321 0.950 . S
C1344 C1343 1.397 . S
C1344 C1345 1.334 . S
C1345 H1322 0.950 . S
C1345 C1344 1.334 . S
C1345 C1346 1.287 . S
C1346 C1345 1.287 . S
C1346 C1347 1.524 . S
C1346 H1365 0.913 . S
C1347 H1323 0.950 . S
C1347 C1346 1.524 . S
C1347 C1348 1.415 . S
C1348 H1324 0.950 . S
C1348 C1343 1.363 . S
C1348 C1347 1.415 . S
C1349 H1325 0.951 . S
C1349 C1350 1.366 . S
C1349 C1351 1.388 . S
C1350 C1349 1.366 . S
C1350 C1354 1.385 . S
C1351 H1326 0.951 . S
C1351 C1349 1.388 . S
C1351 C1352 1.366 . S
C1352 C1351 1.366 . S
C1352 C1353 1.414 . S
C1352 C1355 1.499 . S
C1353 H1327 0.950 . S
C1353 C1352 1.414 . S
C1353 C1354 1.374 . S
C1354 H1328 0.950 . S
C1354 C1350 1.385 . S
C1354 C1353 1.374 . S
C1355 C1352 1.499 . S
C1355 C1356 1.373 . S
C1355 C1357 1.389 . S
C1356 H1329 0.950 . S
C1356 C1342 1.377 . S
C1356 C1355 1.373 . S
C1357 C1341 1.377 . S
C1357 C1355 1.389 . S
C1357 C1358 1.524 . S
C1358 C1357 1.524 . S
C1358 C1359 1.397 . S
C1358 C1363 1.363 . S
C1359 H1330 0.950 . S
C1359 C1358 1.397 . S
C1359 C1360 1.334 . S
C1360 H1331 0.950 . S
C1360 C1359 1.334 . S
C1360 C1361 1.287 . S
C1361 C1360 1.287 . S
C1361 C1362 1.524 . S
C1361 H1364 0.999 . S
C1362 H1332 0.950 . S
C1362 C1361 1.524 . S
C1362 C1363 1.415 . S
C1363 H1333 0.950 . S
C1363 C1358 1.363 . S
C1363 C1362 1.415 . S
H1364 C1361 0.999 . S
H1365 C1346 0.913 . S
H1366 C1384 0.951 . S
H1367 C1386 0.951 . S
H1368 C1388 0.950 . S
H1369 C1389 0.950 . S
H1370 C1391 0.950 . S
H1371 C1394 0.950 . S
H1372 C1395 0.950 1_554 S
H1373 C1397 0.950 1_554 S
H1374 C1398 0.950 . S
H1375 C1399 0.951 . S
H1376 C1401 0.951 . S
H1377 C1403 0.950 . S
H1378 C1404 0.950 . S
H1379 C1406 0.950 . S
H1380 C1409 0.950 . S
H1381 C1410 0.950 . S
H1382 C1412 0.950 . S
H1383 C1413 0.950 . S
C1384 H1366 0.951 . S
C1384 C1385 1.366 . S
C1384 C1386 1.388 . S
C1385 C1384 1.366 . S
C1385 C1389 1.385 . S
C1386 H1367 0.951 . S
C1386 C1384 1.388 . S
C1386 C1387 1.366 . S
C1387 C1386 1.366 . S
C1387 C1388 1.414 . S
C1387 C1390 1.499 . S
C1388 H1368 0.950 . S
C1388 C1387 1.414 . S
C1388 C1389 1.374 . S
C1389 H1369 0.950 . S
C1389 C1385 1.385 . S
C1389 C1388 1.374 . S
C1390 C1387 1.499 . S
C1390 C1391 1.373 . S
C1390 C1392 1.389 . S
C1391 H1370 0.950 . S
C1391 C1390 1.373 . S
C1391 C1407 1.377 . S
C1392 C1390 1.389 . S
C1392 C1393 1.524 . S
C1392 C1406 1.377 . S
C1393 C1392 1.524 . S
C1393 C1394 1.397 . S
C1393 C1398 1.363 . S
C1394 H1371 0.950 . S
C1394 C1393 1.397 . S
C1394 C1395 1.334 . S
C1395 H1372 0.950 1_556 S
C1395 C1394 1.334 . S
C1395 C1396 1.287 1_556 S
C1396 C1395 1.287 1_554 S
C1396 C1397 1.524 1_554 S
C1396 H1415 0.913 . S
C1397 H1373 0.950 1_556 S
C1397 C1396 1.524 1_556 S
C1397 C1398 1.415 . S
C1398 H1374 0.950 . S
C1398 C1393 1.363 . S
C1398 C1397 1.415 . S
C1399 H1375 0.951 . S
C1399 C1400 1.366 . S
C1399 C1401 1.388 . S
C1400 C1399 1.366 . S
C1400 C1404 1.385 . S
C1401 H1376 0.951 . S
C1401 C1399 1.388 . S
C1401 C1402 1.366 . S
C1402 C1401 1.366 . S
C1402 C1403 1.414 . S
C1402 C1405 1.499 . S
C1403 H1377 0.950 . S
C1403 C1402 1.414 . S
C1403 C1404 1.374 . S
C1404 H1378 0.950 . S
C1404 C1400 1.385 . S
C1404 C1403 1.374 . S
C1405 C1402 1.499 . S
C1405 C1406 1.373 . S
C1405 C1407 1.389 . S
C1406 H1379 0.950 . S
C1406 C1392 1.377 . S
C1406 C1405 1.373 . S
C1407 C1391 1.377 . S
C1407 C1405 1.389 . S
C1407 C1408 1.524 . S
C1408 C1407 1.524 . S
C1408 C1409 1.397 . S
C1408 C1413 1.363 . S
C1409 H1380 0.950 . S
C1409 C1408 1.397 . S
C1409 C1410 1.334 . S
C1410 H1381 0.950 . S
C1410 C1409 1.334 . S
C1410 C1411 1.287 . S
C1411 C1410 1.287 . S
C1411 C1412 1.524 . S
C1411 H1414 0.999 . S
C1412 H1382 0.950 . S
C1412 C1411 1.524 . S
C1412 C1413 1.415 . S
C1413 H1383 0.950 . S
C1413 C1408 1.363 . S
C1413 C1412 1.415 . S
H1414 C1411 0.999 . S
H1415 C1396 0.913 . S
H1416 C1434 0.951 . S
H1417 C1436 0.951 . S
H1418 C1438 0.950 . S
H1419 C1439 0.950 . S
H1420 C1441 0.950 . S
H1421 C1444 0.950 . S
H1422 C1445 0.950 . S
H1423 C1447 0.950 . S
H1424 C1448 0.950 . S
H1425 C1449 0.951 . S
H1426 C1451 0.951 . S
H1427 C1453 0.950 . S
H1428 C1454 0.950 . S
H1429 C1456 0.950 . S
H1430 C1459 0.950 . S
H1431 C1460 0.950 . S
H1432 C1462 0.950 . S
H1433 C1463 0.950 . S
C1434 H1416 0.951 . S
C1434 C1435 1.366 . S
C1434 C1436 1.388 . S
C1435 C1434 1.366 . S
C1435 C1439 1.385 1_655 S
C1436 H1417 0.951 . S
C1436 C1434 1.388 . S
C1436 C1437 1.366 . S
C1437 C1436 1.366 . S
C1437 C1438 1.414 1_655 S
C1437 C1440 1.499 . S
C1438 H1418 0.950 . S
C1438 C1437 1.414 1_455 S
C1438 C1439 1.374 . S
C1439 H1419 0.950 . S
C1439 C1435 1.385 1_455 S
C1439 C1438 1.374 . S
C1440 C1437 1.499 . S
C1440 C1441 1.373 1_655 S
C1440 C1442 1.389 . S
C1441 H1420 0.950 . S
C1441 C1440 1.373 1_455 S
C1441 C1457 1.377 . S
C1442 C1440 1.389 . S
C1442 C1443 1.524 . S
C1442 C1456 1.377 . S
C1443 C1442 1.524 . S
C1443 C1444 1.397 . S
C1443 C1448 1.363 . S
C1444 H1421 0.950 . S
C1444 C1443 1.397 . S
C1444 C1445 1.334 . S
C1445 H1422 0.950 . S
C1445 C1444 1.334 . S
C1445 C1446 1.287 . S
C1446 C1445 1.287 . S
C1446 C1447 1.524 . S
C1446 H1465 0.913 . S
C1447 H1423 0.950 . S
C1447 C1446 1.524 . S
C1447 C1448 1.415 . S
C1448 H1424 0.950 . S
C1448 C1443 1.363 . S
C1448 C1447 1.415 . S
C1449 H1425 0.951 . S
C1449 C1450 1.366 1_455 S
C1449 C1451 1.388 . S
C1450 C1449 1.366 1_655 S
C1450 C1454 1.385 . S
C1451 H1426 0.951 . S
C1451 C1449 1.388 . S
C1451 C1452 1.366 1_455 S
C1452 C1451 1.366 1_655 S
C1452 C1453 1.414 . S
C1452 C1455 1.499 . S
C1453 H1427 0.950 . S
C1453 C1452 1.414 . S
C1453 C1454 1.374 . S
C1454 H1428 0.950 . S
C1454 C1450 1.385 . S
C1454 C1453 1.374 . S
C1455 C1452 1.499 . S
C1455 C1456 1.373 . S
C1455 C1457 1.389 1_655 S
C1456 H1429 0.950 . S
C1456 C1442 1.377 . S
C1456 C1455 1.373 . S
C1457 C1441 1.377 . S
C1457 C1455 1.389 1_455 S
C1457 C1458 1.524 . S
C1458 C1457 1.524 . S
C1458 C1459 1.397 . S
C1458 C1463 1.363 . S
C1459 H1430 0.950 . S
C1459 C1458 1.397 . S
C1459 C1460 1.334 . S
C1460 H1431 0.950 . S
C1460 C1459 1.334 . S
C1460 C1461 1.287 . S
C1461 C1460 1.287 . S
C1461 C1462 1.524 . S
C1461 H1464 0.999 . S
C1462 H1432 0.950 . S
C1462 C1461 1.524 . S
C1462 C1463 1.415 . S
C1463 H1433 0.950 . S
C1463 C1458 1.363 . S
C1463 C1462 1.415 . S
H1464 C1461 0.999 . S
H1465 C1446 0.913 . S
H1466 C1484 0.951 . S
H1467 C1486 0.951 . S
H1468 C1488 0.950 . S
H1469 C1489 0.950 . S
H1470 C1491 0.950 . S
H1471 C1494 0.950 . S
H1472 C1495 0.950 . S
H1473 C1497 0.950 . S
H1474 C1498 0.950 . S
H1475 C1499 0.951 . S
H1476 C1501 0.951 . S
H1477 C1503 0.951 . S
H1478 C1504 0.937 1_545 S
H1479 C1506 0.950 . S
H1480 C1509 0.950 . S
H1481 C1510 0.950 . S
H1482 C1512 0.950 . S
H1483 C1513 0.950 . S
C1484 H1466 0.951 . S
C1484 C1485 1.366 1_545 S
C1484 C1486 1.388 . S
C1485 C1484 1.366 1_565 S
C1485 C1489 1.385 . S
C1486 H1467 0.951 . S
C1486 C1484 1.388 . S
C1486 C1487 1.366 1_545 S
C1487 C1486 1.366 1_565 S
C1487 C1488 1.414 . S
C1487 C1490 1.499 . S
C1488 H1468 0.950 . S
C1488 C1487 1.414 . S
C1488 C1489 1.374 . S
C1489 H1469 0.950 . S
C1489 C1485 1.385 . S
C1489 C1488 1.374 . S
C1490 C1487 1.499 . S
C1490 C1491 1.373 . S
C1490 C1492 1.389 1_565 S
C1491 H1470 0.950 . S
C1491 C1490 1.373 . S
C1491 C1507 1.377 . S
C1492 C1490 1.389 1_545 S
C1492 C1493 1.524 . S
C1492 C1506 1.377 . S
C1493 C1492 1.524 . S
C1493 C1494 1.397 . S
C1493 C1498 1.363 . S
C1494 H1471 0.950 . S
C1494 C1493 1.397 . S
C1494 C1495 1.334 . S
C1495 H1472 0.950 . S
C1495 C1494 1.334 . S
C1495 C1496 1.287 . S
C1496 C1495 1.287 . S
C1496 C1497 1.524 . S
C1496 H1515 0.913 . S
C1497 H1473 0.950 . S
C1497 C1496 1.524 . S
C1497 C1498 1.415 . S
C1498 H1474 0.950 . S
C1498 C1493 1.363 . S
C1498 C1497 1.415 . S
C1499 H1475 0.951 . S
C1499 C1500 1.366 . S
C1499 C1501 1.388 . S
C1500 C1499 1.366 . S
C1500 C1504 1.400 . S
C1501 H1476 0.951 . S
C1501 C1499 1.388 . S
C1501 C1502 1.366 . S
C1502 C1501 1.366 . S
C1502 C1503 1.413 1_565 S
C1502 C1505 1.499 . S
C1503 H1477 0.951 . S
C1503 C1502 1.413 1_545 S
C1503 C1504 1.373 1_545 S
C1504 H1478 0.937 1_565 S
C1504 C1500 1.400 . S
C1504 C1503 1.373 1_565 S
C1505 C1502 1.499 . S
C1505 C1506 1.373 1_565 S
C1505 C1507 1.389 . S
C1506 H1479 0.950 . S
C1506 C1492 1.377 . S
C1506 C1505 1.373 1_545 S
C1507 C1491 1.377 . S
C1507 C1505 1.389 . S
C1507 C1508 1.524 . S
C1508 C1507 1.524 . S
C1508 C1509 1.397 . S
C1508 C1513 1.363 . S
C1509 H1480 0.950 . S
C1509 C1508 1.397 . S
C1509 C1510 1.334 . S
C1510 H1481 0.950 . S
C1510 C1509 1.334 . S
C1510 C1511 1.287 . S
C1511 C1510 1.287 . S
C1511 C1512 1.524 . S
C1511 H1514 0.999 . S
C1512 H1482 0.950 . S
C1512 C1511 1.524 . S
C1512 C1513 1.415 . S
C1513 H1483 0.950 . S
C1513 C1508 1.363 . S
C1513 C1512 1.415 . S
H1514 C1511 0.999 . S
H1515 C1496 0.913 . S
H1516 C1534 0.951 . S
H1517 C1536 0.951 . S
H1518 C1538 0.950 . S
H1519 C1539 0.950 . S
H1520 C1541 0.950 . S
H1521 C1544 0.950 . S
H1522 C1545 0.950 . S
H1523 C1547 0.950 . S
H1524 C1548 0.950 . S
H1525 C1549 0.951 . S
H1526 C1551 0.951 . S
H1527 C1553 0.950 . S
H1528 C1554 0.950 . S
H1529 C1556 0.950 . S
H1530 C1559 0.950 . S
H1531 C1560 0.950 . S
H1532 C1562 0.950 . S
H1533 C1563 0.950 . S
C1534 H1516 0.951 . S
C1534 C1535 1.366 . S
C1534 C1536 1.388 . S
C1535 C1534 1.366 . S
C1535 C1539 1.385 . S
C1536 H1517 0.951 . S
C1536 C1534 1.388 . S
C1536 C1537 1.366 . S
C1537 C1536 1.366 . S
C1537 C1538 1.414 . S
C1537 C1540 1.499 . S
C1538 H1518 0.950 . S
C1538 C1537 1.414 . S
C1538 C1539 1.374 . S
C1539 H1519 0.950 . S
C1539 C1535 1.385 . S
C1539 C1538 1.374 . S
C1540 C1537 1.499 . S
C1540 C1541 1.373 . S
C1540 C1542 1.389 . S
C1541 H1520 0.950 . S
C1541 C1540 1.373 . S
C1541 C1557 1.377 . S
C1542 C1540 1.389 . S
C1542 C1543 1.524 . S
C1542 C1556 1.377 . S
C1543 C1542 1.524 . S
C1543 C1544 1.397 . S
C1543 C1548 1.363 . S
C1544 H1521 0.950 . S
C1544 C1543 1.397 . S
C1544 C1545 1.334 . S
C1545 H1522 0.950 . S
C1545 C1544 1.334 . S
C1545 C1546 1.287 . S
C1546 C1545 1.287 . S
C1546 C1547 1.524 . S
C1546 H1565 0.913 . S
C1547 H1523 0.950 . S
C1547 C1546 1.524 . S
C1547 C1548 1.415 . S
C1548 H1524 0.950 . S
C1548 C1543 1.363 . S
C1548 C1547 1.415 . S
C1549 H1525 0.951 . S
C1549 C1550 1.366 . S
C1549 C1551 1.388 . S
C1550 C1549 1.366 . S
C1550 C1554 1.385 . S
C1551 H1526 0.951 . S
C1551 C1549 1.388 . S
C1551 C1552 1.366 . S
C1552 C1551 1.366 . S
C1552 C1553 1.414 . S
C1552 C1555 1.499 . S
C1553 H1527 0.950 . S
C1553 C1552 1.414 . S
C1553 C1554 1.374 . S
C1554 H1528 0.950 . S
C1554 C1550 1.385 . S
C1554 C1553 1.374 . S
C1555 C1552 1.499 . S
C1555 C1556 1.373 . S
C1555 C1557 1.389 . S
C1556 H1529 0.950 . S
C1556 C1542 1.377 . S
C1556 C1555 1.373 . S
C1557 C1541 1.377 . S
C1557 C1555 1.389 . S
C1557 C1558 1.524 . S
C1558 C1557 1.524 . S
C1558 C1559 1.397 . S
C1558 C1563 1.363 . S
C1559 H1530 0.950 . S
C1559 C1558 1.397 . S
C1559 C1560 1.334 . S
C1560 H1531 0.950 . S
C1560 C1559 1.334 . S
C1560 C1561 1.287 . S
C1561 C1560 1.287 . S
C1561 C1562 1.524 . S
C1561 H1564 0.999 . S
C1562 H1532 0.950 . S
C1562 C1561 1.524 . S
C1562 C1563 1.415 . S
C1563 H1533 0.950 . S
C1563 C1558 1.363 . S
C1563 C1562 1.415 . S
H1564 C1561 0.999 . S
H1565 C1546 0.913 . S
H1566 C1584 0.951 . S
H1567 C1586 0.951 . S
H1568 C1588 0.950 . S
H1569 C1589 0.950 . S
H1570 C1591 0.950 . S
H1571 C1594 0.950 . S
H1572 C1595 0.950 . S
H1573 C1597 0.950 . S
H1574 C1598 0.950 . S
H1575 C1599 0.951 . S
H1576 C1601 0.951 . S
H1577 C1603 0.950 . S
H1578 C1604 0.950 . S
H1579 C1606 0.950 . S
H1580 C1609 0.950 . S
H1581 C1610 0.950 . S
H1582 C1612 0.950 . S
H1583 C1613 0.950 . S
C1584 H1566 0.951 . S
C1584 C1585 1.366 . S
C1584 C1586 1.388 . S
C1585 C1584 1.366 . S
C1585 C1589 1.385 . S
C1586 H1567 0.951 . S
C1586 C1584 1.388 . S
C1586 C1587 1.366 . S
C1587 C1586 1.366 . S
C1587 C1588 1.414 . S
C1587 C1590 1.499 . S
C1588 H1568 0.950 . S
C1588 C1587 1.414 . S
C1588 C1589 1.374 . S
C1589 H1569 0.950 . S
C1589 C1585 1.385 . S
C1589 C1588 1.374 . S
C1590 C1587 1.499 . S
C1590 C1591 1.373 . S
C1590 C1592 1.389 . S
C1591 H1570 0.950 . S
C1591 C1590 1.373 . S
C1591 C1607 1.377 . S
C1592 C1590 1.389 . S
C1592 C1593 1.524 . S
C1592 C1606 1.377 . S
C1593 C1592 1.524 . S
C1593 C1594 1.397 . S
C1593 C1598 1.363 . S
C1594 H1571 0.950 . S
C1594 C1593 1.397 . S
C1594 C1595 1.334 . S
C1595 H1572 0.950 . S
C1595 C1594 1.334 . S
C1595 C1596 1.287 . S
C1596 C1595 1.287 . S
C1596 C1597 1.524 . S
C1596 H1615 0.913 . S
C1597 H1573 0.950 . S
C1597 C1596 1.524 . S
C1597 C1598 1.415 . S
C1598 H1574 0.950 . S
C1598 C1593 1.363 . S
C1598 C1597 1.415 . S
C1599 H1575 0.951 . S
C1599 C1600 1.366 . S
C1599 C1601 1.388 . S
C1600 C1599 1.366 . S
C1600 C1604 1.385 . S
C1601 H1576 0.951 . S
C1601 C1599 1.388 . S
C1601 C1602 1.366 . S
C1602 C1601 1.366 . S
C1602 C1603 1.414 . S
C1602 C1605 1.499 . S
C1603 H1577 0.950 . S
C1603 C1602 1.414 . S
C1603 C1604 1.374 . S
C1604 H1578 0.950 . S
C1604 C1600 1.385 . S
C1604 C1603 1.374 . S
C1605 C1602 1.499 . S
C1605 C1606 1.373 . S
C1605 C1607 1.389 . S
C1606 H1579 0.950 . S
C1606 C1592 1.377 . S
C1606 C1605 1.373 . S
C1607 C1591 1.377 . S
C1607 C1605 1.389 . S
C1607 C1608 1.524 . S
C1608 C1607 1.524 . S
C1608 C1609 1.397 . S
C1608 C1613 1.363 . S
C1609 H1580 0.950 . S
C1609 C1608 1.397 . S
C1609 C1610 1.334 . S
C1610 H1581 0.950 . S
C1610 C1609 1.334 . S
C1610 C1611 1.287 . S
C1611 C1610 1.287 . S
C1611 C1612 1.524 . S
C1611 H1614 0.999 . S
C1612 H1582 0.950 . S
C1612 C1611 1.524 . S
C1612 C1613 1.415 . S
C1613 H1583 0.950 . S
C1613 C1608 1.363 . S
C1613 C1612 1.415 . S
H1614 C1611 0.999 . S
H1615 C1596 0.913 . S
C435 C215 1.790 . S
C450 C265 1.891 1_545 S
C500 C305 1.894 . S
C485 C247 1.784 . S
C550 C345 1.895 . S
C535 C151 1.789 . S
C600 C385 1.892 1_455 S
C585 C183 1.790 . S
C650 C274 1.890 1_565 S
C635 C87 1.789 1_565 S
C685 C119 1.790 . S
C700 C314 1.899 . S
C735 C23 1.791 . S
C750 C354 1.895 . S
C785 C55 1.791 1_655 S
C800 C394 1.892 1_655 S
C850 C271 0.276 . S
C835 C189 0.235 . S
C900 C311 0.273 . S
C885 C221 0.239 . S
C950 C351 0.276 . S
C935 C253 0.237 . S
C985 C157 0.241 . S
C1000 C391 0.272 . S
C1035 C61 0.442 1_655 S
C1050 C262 0.278 . S
C1100 C302 0.272 . S
C1085 C93 0.424 1_565 S
C1150 C342 0.274 . S
C1135 C125 0.442 . S
C1185 C29 0.441 . S
C1200 C382 0.275 . S
C1235 C177 2.229 . S
C1250 C275 2.458 . S
C1285 C209 2.227 . S
C1300 C315 2.465 . S
C1350 C355 2.463 . S
C1335 C241 2.228 . S
C1400 C395 2.464 . S
C1385 C145 2.226 . S
C1435 C49 2.245 1_655 S
C1450 C266 2.472 . S
C1500 C306 2.464 . S
C1485 C81 2.244 1_565 S
C1550 C346 2.463 . S
C1535 C113 2.244 . S
C1585 C17 2.246 . S
C1600 C386 2.464 . S
