# Generated by pormake.
# Topology zzz, (3,6)-cn, num edge types: 1
# Building blocks:
#     Node 0, Type 0, BuildingBlock: CUQRIR_clean_linker_1, # of connection points: 3
#     Node 1, Type 0, BuildingBlock: CUQRIR_clean_linker_1, # of connection points: 3
#     Node 2, Type 0, BuildingBlock: CUQRIR_clean_linker_1, # of connection points: 3
#     Node 3, Type 0, BuildingBlock: CUQRIR_clean_linker_1, # of connection points: 3
#     Node 4, Type 0, BuildingBlock: CUQRIR_clean_linker_1, # of connection points: 3
#     Node 5, Type 0, BuildingBlock: CUQRIR_clean_linker_1, # of connection points: 3
#     Node 6, Type 0, BuildingBlock: CUQRIR_clean_linker_1, # of connection points: 3
#     Node 7, Type 0, BuildingBlock: CUQRIR_clean_linker_1, # of connection points: 3
#     Node 8, Type 1, BuildingBlock: HISSIN_clean_sbu_0, # of connection points: 6
#     Node 9, Type 1, BuildingBlock: HISSIN_clean_sbu_0, # of connection points: 6
#     Node 10, Type 1, BuildingBlock: HISSIN_clean_sbu_0, # of connection points: 6
#     Node 11, Type 1, BuildingBlock: HISSIN_clean_sbu_0, # of connection points: 6
#     Edge 12, Type (0, 1), BuildingBlock: AJUNOK_clean_linker_0, # of connection points: 2
#     Edge 13, Type (0, 1), BuildingBlock: AJUNOK_clean_linker_0, # of connection points: 2
#     Edge 14, Type (0, 1), BuildingBlock: AJUNOK_clean_linker_0, # of connection points: 2
#     Edge 15, Type (0, 1), BuildingBlock: AJUNOK_clean_linker_0, # of connection points: 2
#     Edge 16, Type (0, 1), BuildingBlock: AJUNOK_clean_linker_0, # of connection points: 2
#     Edge 17, Type (0, 1), BuildingBlock: AJUNOK_clean_linker_0, # of connection points: 2
#     Edge 18, Type (0, 1), BuildingBlock: AJUNOK_clean_linker_0, # of connection points: 2
#     Edge 19, Type (0, 1), BuildingBlock: AJUNOK_clean_linker_0, # of connection points: 2
#     Edge 20, Type (0, 1), BuildingBlock: AJUNOK_clean_linker_0, # of connection points: 2
#     Edge 21, Type (0, 1), BuildingBlock: AJUNOK_clean_linker_0, # of connection points: 2
#     Edge 22, Type (0, 1), BuildingBlock: AJUNOK_clean_linker_0, # of connection points: 2
#     Edge 23, Type (0, 1), BuildingBlock: AJUNOK_clean_linker_0, # of connection points: 2
#     Edge 24, Type (0, 1), BuildingBlock: AJUNOK_clean_linker_0, # of connection points: 2
#     Edge 25, Type (0, 1), BuildingBlock: AJUNOK_clean_linker_0, # of connection points: 2
#     Edge 26, Type (0, 1), BuildingBlock: AJUNOK_clean_linker_0, # of connection points: 2
#     Edge 27, Type (0, 1), BuildingBlock: AJUNOK_clean_linker_0, # of connection points: 2
#     Edge 28, Type (0, 1), BuildingBlock: AJUNOK_clean_linker_0, # of connection points: 2
#     Edge 29, Type (0, 1), BuildingBlock: AJUNOK_clean_linker_0, # of connection points: 2
#     Edge 30, Type (0, 1), BuildingBlock: AJUNOK_clean_linker_0, # of connection points: 2
#     Edge 31, Type (0, 1), BuildingBlock: AJUNOK_clean_linker_0, # of connection points: 2
#     Edge 32, Type (0, 1), BuildingBlock: AJUNOK_clean_linker_0, # of connection points: 2
#     Edge 33, Type (0, 1), BuildingBlock: AJUNOK_clean_linker_0, # of connection points: 2
#     Edge 34, Type (0, 1), BuildingBlock: AJUNOK_clean_linker_0, # of connection points: 2
#     Edge 35, Type (0, 1), BuildingBlock: AJUNOK_clean_linker_0, # of connection points: 2
# Relax obj value: 0.449
# Max RMSD: 0.226
# Mean RMSD: 0.115
data_MOF--net-zzz--node1-HISSIN_clean_sbu_0--node2-CUQRIR_clean_linker_1--edge1-AJUNOK_clean_linker_0
_symmetry_space_group_name_H-M    P1
_symmetry_Int_Tables_number       1
_symmetry_cell_setting            triclinic
loop_
_symmetry_equiv_pos_as_xyz
'x, y, z'
_cell_length_a     32.736398
_cell_length_b     32.817188
_cell_length_c     10.6756
_cell_angle_alpha  89.148817
_cell_angle_beta   90.640419
_cell_angle_gamma 90.876036
loop_
_atom_site_label
_atom_site_type_symbol
_atom_site_fract_x
_atom_site_fract_y
_atom_site_fract_z
_atom_type_partial_charge
C0 C 0.76435 0.57319 0.40468 0.0
N1 N 0.80208 0.55872 0.43869 0.0
N2 N 0.75297 0.56067 0.28576 0.0
C3 C 0.73808 0.59687 0.49026 0.0
C4 C 0.78585 0.53915 0.25015 0.0
N5 N 0.81343 0.53655 0.34337 0.0
C6 C 0.79366 0.52405 0.1196 0.0
H7 H 0.74652 0.59048 0.58954 0.0
H8 H 0.70533 0.58917 0.4742 0.0
H9 H 0.74299 0.6299 0.47137 0.0
H10 H 0.77476 0.54009 0.04811 0.0
H11 H 0.78733 0.49077 0.11644 0.0
H12 H 0.82615 0.52875 0.09438 0.0
C13 C 0.99793 0.76577 0.39077 0.0
N14 N 1.00605 0.80645 0.40786 0.0
N15 N 1.00661 0.75432 0.26992 0.0
C16 C 0.98391 0.73745 0.49326 0.0
C17 C 1.01982 0.79003 0.21698 0.0
N18 N 1.02046 0.82037 0.30013 0.0
C19 C 1.03146 0.79642 0.08181 0.0
H20 H 0.99084 0.70538 0.47209 0.0
H21 H 0.95039 0.74028 0.50346 0.0
H22 H 0.99855 0.74608 0.58351 0.0
H23 H 1.01689 0.7732 1.02071 0.0
H24 H 0.06517 0.79521 0.07339 0.0
H25 H 1.02201 0.82713 0.04876 0.0
C26 C 0.82852 1.01871 0.40172 0.0
N27 N 0.80463 0.04589 0.46294 0.0
N28 N 0.8631 0.03713 0.35445 0.0
C29 C 0.81635 0.97535 0.37811 0.0
C30 C 0.85877 0.07636 0.38855 0.0
N31 N 0.82295 0.08223 0.4487 0.0
C32 C 0.88664 0.11058 0.34477 0.0
H33 H 0.84369 0.9567 0.36163 0.0
H34 H 0.79654 0.97428 0.29319 0.0
H35 H 0.79874 0.96263 0.45824 0.0
H36 H 0.87631 0.12238 0.25217 0.0
H37 H 0.918 0.09953 0.33176 0.0
H38 H 0.88671 0.13593 0.41248 0.0
C39 C 0.57153 0.81235 0.39643 0.0
N40 N 0.54142 0.78401 0.42328 0.0
N41 N 0.55861 0.84047 0.30849 0.0
C42 C 0.61429 0.81025 0.44659 0.0
C43 C 0.52006 0.82781 0.2823 0.0
N44 N 0.50963 0.79449 0.35126 0.0
C45 C 0.49297 0.84724 0.18295 0.0
H46 H 0.63042 0.84003 0.43469 0.0
H47 H 0.63094 0.78674 0.39473 0.0
H48 H 0.61398 0.80103 0.54703 0.0
H49 H 0.50105 0.83536 0.08982 0.0
H50 H 0.49769 0.88078 0.17916 0.0
H51 H 0.46022 0.84024 0.19954 0.0
C52 C 0.31823 0.52643 0.17075 0.0
N53 N 0.27794 0.53575 0.14928 0.0
N54 N 0.32915 0.53174 0.29507 0.0
C55 C 0.34662 0.51294 0.07134 0.0
C56 C 0.29334 0.54259 0.3468 0.0
N57 N 0.26409 0.54702 0.25903 0.0
C58 C 0.28468 0.54393 0.48544 0.0
H59 H 0.337 0.52521 0.97836 0.0
H60 H 0.34567 0.47917 0.06788 0.0
H61 H 0.3784 0.52277 0.09314 0.0
H62 H 0.27754 0.57555 0.51234 0.0
H63 H 0.31023 0.53207 0.54365 0.0
H64 H 0.25726 0.52492 0.50648 0.0
C65 C 0.07743 0.32206 0.19655 0.0
N66 N 0.09928 0.28634 0.18964 0.0
N67 N 0.09202 0.34698 0.2904 0.0
C68 C 0.0478 0.33702 0.09982 0.0
C69 C 0.1244 0.32697 0.3363 0.0
N70 N 0.1286 0.2912 0.27822 0.0
C71 C 0.15177 0.34224 0.4409 0.0
H72 H 0.05606 0.32608 1.00583 0.0
H73 H 0.04868 0.37072 0.09596 0.0
H74 H 1.01646 0.32695 0.12527 0.0
H75 H 0.13699 0.33538 0.53201 0.0
H76 H 0.15666 0.37563 0.43407 0.0
H77 H 0.18211 0.32768 0.43926 0.0
C78 C 0.285 0.04856 0.20801 0.0
N79 N 0.32493 0.03583 0.21358 0.0
N80 N 0.26632 0.04494 0.32319 0.0
C81 C 0.264 0.0625 0.09025 0.0
C82 C 0.2967 1.03114 0.39761 0.0
N83 N 0.33082 1.02442 0.33198 0.0
C84 C 0.29241 1.02155 0.53599 0.0
H85 H 0.28337 0.08565 0.04146 0.0
H86 H 0.23362 0.07531 0.11033 0.0
H87 H 0.26008 0.03619 1.02691 0.0
H88 H 0.287 0.98831 0.54947 0.0
H89 H 0.26685 0.03832 0.57761 0.0
H90 H 0.32073 1.02994 0.58779 0.0
C91 C 0.52749 0.26795 0.20254 0.0
N92 N 0.55466 0.29843 0.1686 0.0
N93 N 0.54552 0.23947 0.27978 0.0
C94 C 0.48318 0.26692 0.1667 0.0
C95 C 0.58416 0.25393 0.2916 0.0
N96 N 0.58968 0.28924 0.22628 0.0
C97 C 0.61406 0.23835 0.38915 0.0
H98 H 0.4653 0.28002 0.24362 0.0
H99 H 0.47261 0.23492 0.15406 0.0
H100 H 0.47766 0.28499 0.07963 0.0
H101 H 0.64583 0.2474 0.36544 0.0
H102 H 0.6113 0.20485 0.40003 0.0
H103 H 0.60707 0.25177 0.48105 0.0
Eu104 Eu 1.01955 0.05532 0.68659 0.0
Eu105 Eu 0.08114 1.01508 0.86004 0.0
C106 C 0.06693 0.11524 0.87502 0.0
C107 C 0.99019 0.12289 0.44605 0.0
C108 C 1.01697 0.1124 0.35029 0.0
C109 C 1.02884 0.18573 0.47613 0.0
C110 C 0.05244 0.13508 0.33203 0.0
C111 C 0.99423 0.16166 0.49988 0.0
C112 C 0.05934 0.17139 0.39755 0.0
C113 C 0.97304 0.0892 0.52227 0.0
O114 O 1.02698 1.01222 0.99602 0.0
O115 O 0.98098 0.04129 0.85969 0.0
C116 C 0.98946 1.02484 0.9704 0.0
O117 O 1.01432 0.98687 0.63797 0.0
O118 O 0.14404 1.0327 0.90555 0.0
O119 O 0.11936 0.97351 0.96491 0.0
O120 O 0.05191 0.95592 0.79254 0.0
C121 C 1.02725 0.95318 0.69474 0.0
O122 O 0.0826 0.07079 0.59855 0.0
O123 O 0.10454 1.01034 0.66225 0.0
O124 O 0.07779 0.08069 0.92958 0.0
O125 O 0.99001 0.05403 0.504 0.0
O126 O 0.96956 0.09669 0.64155 0.0
O127 O 0.04577 0.11407 0.77026 0.0
C128 C 0.16421 1.00594 0.10081 0.0
C129 C 0.1859 0.97257 0.14677 0.0
C130 C 0.115 0.99777 0.26367 0.0
C131 C 0.16625 0.94646 0.23116 0.0
C132 C 0.13512 1.02333 0.17845 0.0
C133 C 0.12809 0.95737 0.27966 0.0
C134 C 0.1498 0.99986 0.97325 0.0
C135 C 0.11047 0.04259 0.59201 0.0
H136 H 1.01412 0.08331 0.30401 0.0
H137 H 1.03258 0.21452 0.52358 0.0
H138 H 0.0754 0.12288 0.2713 0.0
H139 H 0.97337 0.17119 0.57151 0.0
H140 H 0.21114 0.96083 0.09398 0.0
H141 H 0.08677 1.00776 0.30463 0.0
H142 H 0.17802 0.91599 0.24211 0.0
H143 H 0.12071 0.05165 0.15109 0.0
Eu144 Eu 0.57568 0.07547 0.91038 0.0
Eu145 Eu 0.54645 1.00857 0.71525 0.0
C146 C 0.58005 0.98005 0.9971 0.0
C147 C 0.62387 0.15003 0.15314 0.0
C148 C 0.64851 0.18426 0.1256 0.0
C149 C 0.66129 0.13982 0.34746 0.0
C150 C 0.68125 0.19437 0.2041 0.0
C151 C 0.62894 0.12934 0.26809 0.0
C152 C 0.68931 0.17056 0.3117 0.0
C153 C 0.59419 0.13579 0.05916 0.0
O154 O 0.48744 1.01415 0.83278 0.0
O155 O 0.50734 0.06813 0.95251 0.0
C156 C 0.47903 0.0412 0.91957 0.0
O157 O 0.55351 0.11298 0.74173 0.0
O158 O 0.56215 0.94721 0.65841 0.0
O159 O 0.51498 0.98061 0.5581 0.0
O160 O 0.53185 0.06574 0.59923 0.0
C161 C 0.53797 0.10401 0.63105 0.0
O162 O 0.63685 0.05665 0.82025 0.0
O163 O 0.60958 1.02797 0.64479 0.0
O164 O 0.56361 0.97183 0.88784 0.0
O165 O 0.60693 0.13357 0.94421 0.0
O166 O 0.57048 0.10508 0.08992 0.0
O167 O 0.5888 1.01796 1.02821 0.0
C168 C 0.50422 0.91113 0.5867 0.0
C169 C 0.48975 0.89503 0.47443 0.0
C170 C 0.43815 0.89905 0.67885 0.0
C171 C 0.44866 0.88453 0.46213 0.0
C172 C 0.47999 0.90721 0.69422 0.0
C173 C 0.4223 0.89698 0.55611 0.0
C174 C 0.53262 0.94553 0.57604 0.0
C175 C 0.6417 0.04199 0.70629 0.0
H176 H 0.64415 0.20147 0.03918 0.0
H177 H 0.66694 0.12084 0.42949 0.0
H178 H 0.70254 0.21815 0.17476 0.0
H179 H 0.60965 0.10348 0.29329 0.0
H180 H 0.50744 0.89903 0.39072 0.0
H181 H 0.4181 0.90541 0.75599 0.0
H182 H 0.43698 0.87951 0.36832 0.0
H183 H 0.49102 0.91856 0.78342 0.0
Eu184 Eu 0.51202 0.55541 0.90206 0.0
Eu185 Eu 0.57049 0.52724 0.69013 0.0
C186 C 0.60762 0.55728 0.95814 0.0
C187 C 0.43688 0.59433 0.15193 0.0
C188 C 0.40376 0.61489 0.0966 0.0
C189 C 0.43593 0.63988 0.32682 0.0
C190 C 0.38892 0.64982 0.15257 0.0
C191 C 0.45037 0.60502 0.27191 0.0
C192 C 0.40787 0.66457 0.26204 0.0
C193 C 0.4601 0.56406 0.08423 0.0
O194 O 0.56436 0.46484 0.78981 0.0
O195 O 0.52297 0.48727 0.94409 0.0
C196 C 0.54371 0.45758 0.89381 0.0
O197 O 0.47158 0.55325 0.72771 0.0
O198 O 0.63191 0.53849 0.61708 0.0
O199 O 0.58681 0.50419 0.50924 0.0
O200 O 0.50831 0.51299 0.6003 0.0
C201 C 0.47437 0.5321 0.62455 0.0
O202 O 0.52117 0.61856 0.80678 0.0
O203 O 0.55769 0.59426 0.64339 0.0
O204 O 0.60894 0.53024 0.86867 0.0
O205 O 0.44925 0.55615 0.96929 0.0
O206 O 0.49969 0.56619 0.09803 0.0
O207 O 0.57404 0.57779 0.97438 0.0
C208 C 0.6549 0.49131 0.46773 0.0
C209 C 0.68143 0.46938 0.54685 0.0
C210 C 0.66973 0.44676 0.29763 0.0
C211 C 0.69892 0.43366 0.50313 0.0
C212 C 0.65133 0.48133 0.34177 0.0
C213 C 0.68833 0.41979 0.38267 0.0
C214 C 0.62416 0.51855 0.51465 0.0
C215 C 0.53955 0.62477 0.69796 0.0
H216 H 0.3918 0.60626 1.00563 0.0
H217 H 0.45119 0.6504 0.41125 0.0
H218 H 0.36729 0.66847 0.10098 0.0
H219 H 0.47473 0.5885 0.31859 0.0
H220 H 0.68462 0.47688 0.64497 0.0
H221 H 0.66174 0.43722 0.20352 0.0
H222 H 0.7137 0.41339 0.56995 0.0
H223 H 0.63053 0.4978 0.28046 0.0
Eu224 Eu 0.05398 0.58087 0.70096 0.0
Eu225 Eu 1.02721 0.513 0.88157 0.0
C226 C 0.12571 0.54189 0.86793 0.0
C227 C 0.06257 0.66001 0.44417 0.0
C228 C 0.09252 0.68886 0.41087 0.0
C229 C 0.08199 0.61722 0.27614 0.0
C230 C 0.12184 0.67794 0.3249 0.0
C231 C 0.05304 0.62814 0.36276 0.0
C232 C 0.11901 0.63931 0.27012 0.0
C233 C 0.06185 0.64928 0.5758 0.0
O234 O 1.00842 0.56847 0.99588 0.0
O235 O 0.05338 0.60903 0.89268 0.0
C236 C 1.02659 0.60426 0.98175 0.0
O237 O 0.98732 0.56844 0.64136 0.0
O238 O 0.0531 0.46299 0.99082 0.0
O239 O 0.98753 0.4681 0.97165 0.0
O240 O 0.96385 0.53173 0.80835 0.0
C241 C 0.95635 0.55301 0.7052 0.0
O242 O 0.06816 0.52556 0.57833 0.0
O243 O 1.03409 0.47906 0.70062 0.0
O244 O 0.09481 0.52709 0.93451 0.0
O245 O 1.02716 0.63585 0.61936 0.0
O246 O 0.09238 0.62646 0.61082 0.0
O247 O 0.11792 0.56175 0.76278 0.0
C248 C 1.01304 0.44689 0.16238 0.0
C249 C 1.02362 0.48109 0.23322 0.0
C250 C 0.96519 0.42491 0.31867 0.0
C251 C 1.00229 0.48868 0.34149 0.0
C252 C 0.98681 0.4169 0.2111 0.0
C253 C 0.96821 0.46404 0.37035 0.0
C254 C 1.01765 0.44976 1.02853 0.0
C255 C 0.05536 0.4876 0.60029 0.0
H256 H 0.09889 0.71472 0.47043 0.0
H257 H 0.07859 0.58802 0.23065 0.0
H258 H 0.14968 0.6961 0.32056 0.0
H259 H 1.02857 0.60659 0.38408 0.0
H260 H 0.04432 0.50443 0.19712 0.0
H261 H 0.94023 0.40425 0.34168 0.0
H262 H 1.00635 0.51823 0.38439 0.0
H263 H 0.97825 0.39048 0.15663 0.0
C264 C 0.20657 1.00928 0.41764 0.0
C265 C 0.22361 0.04507 0.36343 0.0
C266 C 0.17073 1.00939 0.49007 0.0
C267 C 0.14837 0.04516 0.50986 0.0
H268 H 0.22257 0.98084 0.40909 0.0
H269 H 0.16033 0.98062 0.53024 0.0
S270 S 0.18598 0.14846 0.41832 0.0
N271 N 0.2195 0.1182 0.35544 0.0
N272 N 0.15094 0.11886 0.48545 0.0
C273 C 0.16572 0.08162 0.45964 0.0
C274 C 0.20322 0.08141 0.3879 0.0
C275 C 0.52949 0.16604 0.32046 0.0
C276 C 0.52869 0.20686 0.35969 0.0
C277 C 0.52969 0.13273 0.40731 0.0
C278 C 0.52982 0.13875 0.53834 0.0
H279 H 0.53257 0.16004 0.22191 0.0
H280 H 0.5324 0.10222 0.37132 0.0
S281 S 0.52185 0.23981 0.68934 0.0
N282 N 0.52302 0.2509 0.53804 0.0
N283 N 0.52403 0.18963 0.70061 0.0
C284 C 0.52576 0.17946 0.57787 0.0
C285 C 0.52487 0.21301 0.48922 0.0
C286 C 0.39768 0.50248 0.35824 0.0
C287 C 0.36892 0.53415 0.36034 0.0
C288 C 0.43237 0.50219 0.4405 0.0
C289 C 0.43889 0.53265 0.53178 0.0
H290 H 0.39268 0.47711 0.29601 0.0
H291 H 0.45333 0.47708 0.43579 0.0
S292 S 0.37388 0.62332 0.57147 0.0
N293 N 0.35294 0.59931 0.45186 0.0
N294 N 0.41337 0.59578 0.61486 0.0
C295 C 0.41062 0.56459 0.53255 0.0
C296 C 0.37718 0.56617 0.44469 0.0
C297 C 0.04892 0.38134 0.44623 0.0
C298 C 0.0766 0.38404 0.34625 0.0
C299 C 0.04235 0.41465 0.52649 0.0
C300 C 0.0636 0.45247 0.51247 0.0
H301 H 1.03336 0.35262 0.4655 0.0
H302 H 1.02044 0.41044 0.60094 0.0
S303 S 0.14169 0.47363 0.27218 0.0
N304 N 0.12637 0.42678 0.2413 0.0
N305 N 0.11522 0.48869 0.39291 0.0
C306 C 0.09189 0.45499 0.41431 0.0
C307 C 0.09784 0.42129 0.33113 0.0
C308 C 0.93211 1.01402 0.28761 0.0
C309 C 0.8914 1.0243 0.25733 0.0
C310 C 0.9632 1.01258 0.19542 0.0
C311 C 0.95533 1.02205 0.06757 0.0
H312 H 0.94023 1.00869 0.38469 0.0
H313 H 0.994 1.00565 0.22587 0.0
S314 S 0.8528 0.04945 0.93837 0.0
N315 N 0.84481 0.04281 0.08976 0.0
N316 N 0.90167 0.04019 0.91727 0.0
C317 C 0.91408 1.03097 0.03611 0.0
C318 C 0.88271 1.03212 0.1301 0.0
C319 C 0.58405 0.91163 0.28946 0.0
C320 C 0.57957 0.87251 0.23646 0.0
C321 C 0.58627 0.94726 0.21549 0.0
C322 C 0.58605 0.94418 0.08585 0.0
H323 H 0.58143 0.91458 0.3897 0.0
H324 H 0.58568 0.97677 0.25947 0.0
S325 S 0.59545 0.84588 0.86767 0.0
N326 N 0.59123 0.88134 0.98485 0.0
N327 N 0.59445 0.8938 0.91854 0.0
C328 C 0.58829 0.901 0.03497 0.0
C329 C 0.58351 0.86474 0.10601 0.0
C330 C 0.70162 0.52665 0.14844 0.0
C331 C 0.71421 0.56161 0.215 0.0
C332 C 0.66793 0.52621 0.06629 0.0
C333 C 0.64331 0.56046 0.04815 0.0
H334 H 0.71809 0.49858 0.16013 0.0
H335 H 0.66063 0.49803 1.01878 0.0
S336 S 0.66288 0.66162 0.19061 0.0
N337 N 0.69998 0.6331 0.24841 0.0
N338 N 0.6346 0.63164 0.10034 0.0
C339 C 0.65472 0.59598 0.11431 0.0
C340 C 0.69037 0.59673 0.19616 0.0
C341 C 0.04634 0.70629 0.14278 0.0
C342 C 1.01093 0.71421 0.21201 0.0
C343 C 0.05006 0.67153 0.06883 0.0
C344 C 1.01991 0.64036 0.066 0.0
H345 H 0.07185 0.72758 0.14482 0.0
H346 H 0.07803 0.66849 1.01674 0.0
S347 S 0.92024 0.6451 0.2274 0.0
N348 N 0.94353 0.68815 0.26678 0.0
N349 N 0.9523 0.62038 0.13841 0.0
C350 C 0.98443 0.64696 0.13702 0.0
C351 C 0.97971 0.68399 0.20815 0.0
C352 C 0.1482 0.24573 0.44504 0.0
C353 C 0.15459 0.25931 0.32029 0.0
C354 C 0.11734 0.21676 0.47308 0.0
C355 C 0.09734 0.19503 0.37766 0.0
H356 H 0.16029 0.26348 0.5218 0.0
H357 H 0.10822 0.21241 0.56965 0.0
S358 S 0.12818 0.22663 0.94164 0.0
N359 N 0.16281 0.24632 0.08841 0.0
N360 N 0.08793 0.18565 0.13752 0.0
C361 C 0.11284 0.19892 0.25841 0.0
C362 C 0.15292 0.23132 0.22908 0.0
C363 C 0.34823 0.95284 0.34704 0.0
C364 C 0.3584 0.99369 0.37147 0.0
C365 C 0.3663 0.92118 0.41581 0.0
C366 C 0.39462 0.92958 0.51234 0.0
H367 H 0.32492 0.94565 0.27771 0.0
H368 H 0.35893 0.88995 0.39157 0.0
S369 S 0.42931 1.0332 0.61104 0.0
N370 N 0.39738 0.04161 0.49369 0.0
N371 N 0.43071 0.98317 0.62908 0.0
C372 C 0.40434 0.97094 0.53757 0.0
C373 C 0.38679 1.00268 0.46448 0.0
C374 C 0.6547 0.32775 0.20869 0.0
C375 C 0.61788 0.3195 0.2703 0.0
C376 C 0.68226 0.35702 0.25615 0.0
C377 C 0.67382 0.37758 0.36782 0.0
H378 H 0.66128 0.31269 0.12181 0.0
H379 H 0.70842 0.36609 0.2005 0.0
S380 S 0.58292 0.36158 0.56907 0.0
N381 N 0.57534 0.33098 0.4497 0.0
N382 N 0.62769 0.38381 0.54429 0.0
C383 C 0.63866 0.36612 0.43541 0.0
C384 C 0.61024 0.33799 0.38437 0.0
C385 C 0.19551 0.5578 0.33455 0.0
C386 C 0.22957 0.57229 0.27088 0.0
C387 C 0.1595 0.57948 0.32962 0.0
C388 C 0.15649 0.61601 0.2589 0.0
H389 H 0.19679 0.52944 0.38705 0.0
H390 H 0.13409 0.56798 0.38442 0.0
S391 S 0.24142 0.67054 0.09982 0.0
N392 N 0.26181 0.6282 0.15603 0.0
N393 N 0.19265 0.66824 0.13787 0.0
C394 C 0.19146 0.63195 0.20071 0.0
C395 C 0.22849 0.61025 0.20923 0.0
C396 C 1.03438 0.8915 0.24175 0.0
C397 C 0.0475 0.85474 0.29419 0.0
C398 C 0.05954 0.9261 0.2473 0.0
C399 C 0.09806 0.92491 0.30833 0.0
H400 H 1.00484 0.8932 0.19543 0.0
H401 H 0.04958 0.95319 0.19741 0.0
S402 S 0.14276 0.83592 0.474 0.0
N403 N 0.0995 0.81855 0.4126 0.0
N404 N 0.14531 0.88478 0.43508 0.0
C405 C 0.10992 0.88865 0.36841 0.0
C406 C 0.08515 0.85314 0.35744 0.0
C407 C 0.79171 0.12896 0.29847 0.0
C408 C 0.79939 0.11814 0.42427 0.0
C409 C 0.75937 0.15367 0.26497 0.0
C410 C 0.73171 0.16621 0.35546 0.0
H411 H 0.80772 0.11439 0.22365 0.0
H412 H 0.75259 0.15735 0.16585 0.0
S413 S 0.74402 0.15508 0.69939 0.0
N414 N 0.7831 0.1304 0.64171 0.0
N415 N 0.71814 0.17319 0.57742 0.0
C416 C 0.74158 0.15992 0.48262 0.0
C417 C 0.77627 0.13638 0.51728 0.0
C418 C 0.46885 0.75482 0.2029 0.0
C419 C 0.47482 0.7691 0.32488 0.0
C420 C 0.43857 0.72607 0.17676 0.0
C421 C 0.41529 0.70853 0.27396 0.0
H422 H 0.48974 0.76364 0.12911 0.0
H423 H 0.43814 0.71304 0.084 0.0
S424 S 0.41249 0.74352 0.60192 0.0
N425 N 0.4494 0.77119 0.53697 0.0
N426 N 0.39388 0.71397 0.49023 0.0
C427 C 0.41743 0.72639 0.39274 0.0
C428 C 0.44756 0.75689 0.41837 0.0
C429 C 0.88398 0.53428 0.28496 0.0
C430 C 0.85068 0.51533 0.34163 0.0
C431 C 0.92276 0.51965 0.30574 0.0
C432 C 0.92948 0.48518 0.38416 0.0
H433 H 0.87985 0.56132 0.22719 0.0
H434 H 0.94716 0.53463 0.25422 0.0
S435 S 0.85022 0.4253 0.55351 0.0
N436 N 0.82478 0.46104 0.47646 0.0
N437 N 0.89892 0.43342 0.52096 0.0
C438 C 0.89593 0.46643 0.44326 0.0
C439 C 0.85615 0.48122 0.41957 0.0
C440 C 0.14726 0.17898 0.083 0.0
C441 C 0.09387 0.24767 0.11049 0.0
C442 C 0.12592 0.14815 0.99344 0.0
C443 C 0.0823 0.15497 0.93309 0.0
H444 H 0.17753 0.17243 0.12205 0.0
H445 H 0.14214 0.12035 0.97567 0.0
S446 S 0.99101 0.23172 0.92002 0.0
N447 N 1.02081 0.25854 1.01529 0.0
N448 N 1.0157 0.19011 0.88142 0.0
C449 C 0.05205 0.19339 0.94269 0.0
C450 C 0.05478 0.23584 1.02263 0.0
C451 C 0.36774 1.01177 1.03184 0.0
C452 C 0.35916 0.04077 0.12476 0.0
C453 C 0.40543 1.01242 0.96395 0.0
C454 C 0.43709 0.04176 0.98611 0.0
H455 H 0.34576 0.98748 1.01442 0.0
H456 H 0.41016 0.98889 0.89583 0.0
S457 S 0.43009 0.12384 0.22306 0.0
N458 N 0.38604 0.09908 0.23544 0.0
N459 N 0.4553 0.1008 0.11204 0.0
C460 C 0.42823 0.07098 0.07873 0.0
C461 C 0.39007 0.07025 0.14663 0.0
C462 C 0.57304 0.3461 0.98992 0.0
C463 C 0.54846 0.33645 0.09499 0.0
C464 C 0.5708 0.38426 0.92433 0.0
C465 C 0.54426 0.41556 0.96089 0.0
H466 H 0.59472 0.32392 0.9588 0.0
H467 H 0.5909 0.38955 0.84578 0.0
S468 S 0.47536 0.40717 0.23673 0.0
N469 N 0.4981 0.36261 0.2357 0.0
N470 N 0.49352 0.43331 0.11567 0.0
C471 C 0.51978 0.40618 0.06727 0.0
C472 C 0.52195 0.3672 0.13312 0.0
C473 C 0.21727 0.50019 0.06041 0.0
C474 C 0.24932 0.52902 0.04367 0.0
C475 C 0.17893 0.50351 0.9978 0.0
C476 C 0.16962 0.53635 0.91632 0.0
H477 H 0.22094 0.47636 0.13064 0.0
H478 H 0.15566 0.48053 1.01606 0.0
S479 S 0.24611 0.61421 0.81087 0.0
N480 N 0.2714 0.58705 0.91699 0.0
N481 N 0.19959 0.59401 0.80269 0.0
C482 C 0.20284 0.56295 0.88735 0.0
C483 C 0.24232 0.55917 0.95016 0.0
C484 C 1.03147 0.83856 0.60637 0.0
C485 C 1.00077 0.83424 0.51298 0.0
C486 C 1.03861 0.87612 0.66926 0.0
C487 C 1.01552 0.91147 0.64175 0.0
H488 H 0.0525 0.8139 0.62296 0.0
H489 H 0.06413 0.87806 0.73438 0.0
S490 S 0.92735 0.91432 0.41941 0.0
N491 N 0.94426 0.86741 0.40852 0.0
N492 N 0.95695 0.93691 0.52454 0.0
C493 C 0.98258 0.90623 0.55655 0.0
C494 C 0.97527 0.86806 0.49407 0.0
C495 C 0.75986 0.04306 0.65358 0.0
C496 C 0.76434 0.03965 0.52235 0.0
C497 C 0.72085 0.04409 0.71198 0.0
C498 C 0.68379 0.04091 0.64286 0.0
H499 H 0.78699 0.04643 0.71157 0.0
H500 H 0.71986 0.04755 0.8126 0.0
S501 S 0.67829 1.02974 0.29552 0.0
N502 N 0.72785 1.03276 0.32551 0.0
N503 N 0.65547 1.03258 0.43235 0.0
C504 C 0.68812 0.0361 0.5113 0.0
C505 C 0.72785 0.03594 0.45213 0.0
C506 C 0.53885 0.74233 0.62494 0.0
C507 C 0.54435 0.74501 0.49355 0.0
C508 C 0.53658 0.70403 0.69078 0.0
C509 C 0.54005 0.6663 0.62886 0.0
H510 H 0.53536 0.7701 0.67695 0.0
H511 H 0.53237 0.70407 0.79122 0.0
S512 S 0.55195 0.65657 0.28354 0.0
N513 N 0.55132 0.70629 0.30452 0.0
N514 N 0.54752 0.63553 0.42426 0.0
C515 C 0.54524 0.66904 0.49699 0.0
C516 C 0.54724 0.70779 0.4308 0.0
C517 C 0.86579 0.59411 0.50464 0.0
C518 C 0.8317 0.56951 0.53821 0.0
C519 C 0.90505 0.58916 0.56041 0.0
C520 C 0.91261 0.5601 0.65697 0.0
H521 H 0.86306 0.61424 0.42396 0.0
H522 H 0.93014 0.60733 0.52321 0.0
S523 S 0.8316 0.49511 0.80358 0.0
N524 N 0.80713 0.51954 0.68966 0.0
N525 N 0.87959 0.51143 0.79863 0.0
C526 C 0.87767 0.53869 0.70194 0.0
C527 C 0.83777 0.54331 0.64276 0.0
loop_
_geom_bond_atom_site_label_1
_geom_bond_atom_site_label_2
_geom_bond_distance
_geom_bond_site_symmetry_2
_ccdc_geom_bond_type
C0 N1 1.317 . S
C0 N2 1.348 . S
C0 C3 1.485 . S
N1 C0 1.317 . S
N1 N5 1.370 . S
N2 C0 1.348 . S
N2 C4 1.346 . S
C3 C0 1.485 . S
C3 H7 0.960 . S
C3 H8 0.961 . S
C3 H9 0.960 . S
C4 N2 1.346 . S
C4 N5 1.307 . S
C4 C6 1.486 . S
N5 N1 1.370 . S
N5 C4 1.307 . S
C6 C4 1.486 . S
C6 H10 0.960 . S
C6 H11 0.960 . S
C6 H12 0.959 . S
H7 C3 0.960 . S
H8 C3 0.961 . S
H9 C3 0.960 . S
H10 C6 0.960 . S
H11 C6 0.960 . S
H12 C6 0.959 . S
C13 N14 1.317 . S
C13 N15 1.348 . S
C13 C16 1.485 . S
N14 C13 1.317 . S
N14 N18 1.370 . S
N15 C13 1.348 . S
N15 C17 1.346 . S
C16 C13 1.485 . S
C16 H20 0.960 1_655 S
C16 H21 0.961 . S
C16 H22 0.960 . S
C17 N15 1.346 . S
C17 N18 1.307 . S
C17 C19 1.486 . S
N18 N14 1.370 . S
N18 C17 1.307 . S
C19 C17 1.486 . S
C19 H23 0.960 . S
C19 H24 0.960 1_655 S
C19 H25 0.959 . S
H20 C16 0.960 1_455 S
H21 C16 0.961 . S
H22 C16 0.960 . S
H23 C19 0.960 . S
H24 C19 0.960 1_455 S
H25 C19 0.959 . S
C26 N27 1.317 . S
C26 N28 1.348 . S
C26 C29 1.485 . S
N27 C26 1.317 . S
N27 N31 1.370 . S
N28 C26 1.348 . S
N28 C30 1.346 . S
C29 C26 1.485 . S
C29 H33 0.960 1_565 S
C29 H34 0.961 . S
C29 H35 0.960 . S
C30 N28 1.346 . S
C30 N31 1.307 . S
C30 C32 1.486 . S
N31 N27 1.370 . S
N31 C30 1.307 . S
C32 C30 1.486 . S
C32 H36 0.960 . S
C32 H37 0.960 1_565 S
C32 H38 0.959 . S
H33 C29 0.960 1_545 S
H34 C29 0.961 . S
H35 C29 0.960 . S
H36 C32 0.960 . S
H37 C32 0.960 1_545 S
H38 C32 0.959 . S
C39 N40 1.317 . S
C39 N41 1.348 . S
C39 C42 1.485 . S
N40 C39 1.317 . S
N40 N44 1.370 . S
N41 C39 1.348 . S
N41 C43 1.346 . S
C42 C39 1.485 . S
C42 H46 0.960 . S
C42 H47 0.961 . S
C42 H48 0.960 . S
C43 N41 1.346 . S
C43 N44 1.307 . S
C43 C45 1.486 . S
N44 N40 1.370 . S
N44 C43 1.307 . S
C45 C43 1.486 . S
C45 H49 0.960 . S
C45 H50 0.960 . S
C45 H51 0.959 . S
H46 C42 0.960 . S
H47 C42 0.961 . S
H48 C42 0.960 . S
H49 C45 0.960 . S
H50 C45 0.960 . S
H51 C45 0.959 . S
C52 N53 1.317 . S
C52 N54 1.348 . S
C52 C55 1.485 1_554 S
N53 C52 1.317 . S
N53 N57 1.370 . S
N54 C52 1.348 . S
N54 C56 1.346 . S
C55 C52 1.485 1_556 S
C55 H59 0.960 . S
C55 H60 0.961 . S
C55 H61 0.960 . S
C56 N54 1.346 . S
C56 N57 1.307 . S
C56 C58 1.486 . S
N57 N53 1.370 . S
N57 C56 1.307 . S
C58 C56 1.486 . S
C58 H62 0.960 . S
C58 H63 0.960 . S
C58 H64 0.959 . S
H59 C55 0.960 . S
H60 C55 0.961 . S
H61 C55 0.960 . S
H62 C58 0.960 . S
H63 C58 0.960 . S
H64 C58 0.959 . S
C65 N66 1.317 . S
C65 N67 1.348 1_556 S
C65 C68 1.485 . S
N66 C65 1.317 . S
N66 N70 1.370 1_556 S
N67 C65 1.348 1_554 S
N67 C69 1.346 . S
C68 C65 1.485 . S
C68 H72 0.960 . S
C68 H73 0.961 . S
C68 H74 0.960 . S
C69 N67 1.346 . S
C69 N70 1.307 . S
C69 C71 1.486 . S
N70 N66 1.370 1_554 S
N70 C69 1.307 . S
C71 C69 1.486 . S
C71 H75 0.960 . S
C71 H76 0.960 . S
C71 H77 0.959 . S
H72 C68 0.960 . S
H73 C68 0.961 . S
H74 C68 0.960 . S
H75 C71 0.960 . S
H76 C71 0.960 . S
H77 C71 0.959 . S
C78 N79 1.317 . S
C78 N80 1.348 1_556 S
C78 C81 1.485 . S
N79 C78 1.317 . S
N79 N83 1.370 1_556 S
N80 C78 1.348 1_554 S
N80 C82 1.346 . S
C81 C78 1.485 . S
C81 H85 0.960 . S
C81 H86 0.961 . S
C81 H87 0.960 . S
C82 N80 1.346 . S
C82 N83 1.307 . S
C82 C84 1.486 . S
N83 N79 1.370 1_554 S
N83 C82 1.307 . S
C84 C82 1.486 . S
C84 H88 0.960 . S
C84 H89 0.960 . S
C84 H90 0.959 . S
H85 C81 0.960 . S
H86 C81 0.961 . S
H87 C81 0.960 . S
H88 C84 0.960 . S
H89 C84 0.960 . S
H90 C84 0.959 . S
C91 N92 1.317 . S
C91 N93 1.348 . S
C91 C94 1.485 1_554 S
N92 C91 1.317 . S
N92 N96 1.370 . S
N93 C91 1.348 . S
N93 C95 1.346 . S
C94 C91 1.485 1_556 S
C94 H98 0.960 . S
C94 H99 0.961 . S
C94 H100 0.960 . S
C95 N93 1.346 . S
C95 N96 1.307 . S
C95 C97 1.486 . S
N96 N92 1.370 . S
N96 C95 1.307 . S
C97 C95 1.486 . S
C97 H101 0.960 . S
C97 H102 0.960 . S
C97 H103 0.959 . S
H98 C94 0.960 . S
H99 C94 0.961 . S
H100 C94 0.960 . S
H101 C97 0.960 . S
H102 C97 0.960 . S
H103 C97 0.959 . S
Eu104 C113 2.828 . S
Eu104 O115 2.392 . S
Eu104 O117 2.418 1_545 S
Eu104 O122 2.373 1_655 S
Eu104 O125 2.488 . S
Eu104 O126 2.471 . S
Eu104 O127 2.349 1_655 S
Eu105 O114 2.373 1_455 S
Eu105 O118 2.488 1_556 S
Eu105 O119 2.471 . S
Eu105 O120 2.349 . S
Eu105 O123 2.392 1_565 S
Eu105 O124 2.418 1_565 S
Eu105 C134 2.828 1_556 S
C106 O124 1.244 . S
C106 O127 1.265 . S
C107 C108 1.379 1_655 S
C107 C111 1.373 . S
C107 C113 1.505 . S
C108 C107 1.379 1_455 S
C108 C110 1.369 . S
C108 H136 0.930 . S
C109 C111 1.383 . S
C109 C112 1.382 . S
C109 H137 0.930 . S
C110 C108 1.369 . S
C110 C112 1.392 1_455 S
C110 H138 0.930 . S
C111 C107 1.373 . S
C111 C109 1.383 . S
C111 H139 0.931 . S
C112 C109 1.382 . S
C112 C110 1.392 1_655 S
C113 Eu104 2.828 . S
C113 C107 1.505 . S
C113 O125 1.249 . S
C113 O126 1.244 . S
O114 Eu105 2.373 1_655 S
O114 C116 1.254 1_565 S
O115 Eu104 2.392 . S
O115 C116 1.249 . S
C116 O114 1.254 1_545 S
C116 O115 1.249 . S
O117 Eu104 2.418 1_565 S
O117 C121 1.244 . S
O118 Eu105 2.488 1_554 S
O118 C134 1.249 . S
O119 Eu105 2.471 . S
O119 C134 1.244 1_556 S
O120 Eu105 2.349 . S
O120 C121 1.265 1_455 S
C121 O117 1.244 . S
C121 O120 1.265 1_655 S
O122 Eu104 2.373 1_455 S
O122 C135 1.258 . S
O123 Eu105 2.392 1_545 S
O123 C135 1.242 . S
O124 Eu105 2.418 1_545 S
O124 C106 1.244 . S
O125 Eu104 2.488 . S
O125 C113 1.249 . S
O126 Eu104 2.471 . S
O126 C113 1.244 . S
O127 Eu104 2.349 1_455 S
O127 C106 1.265 . S
C128 C129 1.379 . S
C128 C132 1.373 . S
C128 C134 1.505 . S
C129 C128 1.379 . S
C129 C131 1.369 . S
C129 H140 0.930 . S
C130 C132 1.383 . S
C130 C133 1.382 . S
C130 H141 0.930 . S
C131 C129 1.369 . S
C131 C133 1.392 . S
C131 H142 0.930 1_455 S
C132 C128 1.373 . S
C132 C130 1.383 . S
C132 H143 0.931 . S
C133 C130 1.382 . S
C133 C131 1.392 . S
C134 Eu105 2.828 1_554 S
C134 O118 1.249 . S
C134 O119 1.244 1_554 S
C134 C128 1.505 . S
C135 O122 1.258 . S
C135 O123 1.242 . S
H136 C108 0.930 . S
H137 C109 0.930 . S
H138 C110 0.930 . S
H139 C111 0.931 . S
H140 C129 0.930 . S
H141 C130 0.930 . S
H142 C131 0.930 1_655 S
H143 C132 0.931 . S
Eu144 C153 2.828 1_556 S
Eu144 O155 2.392 . S
Eu144 O157 2.418 . S
Eu144 O162 2.373 . S
Eu144 O165 2.488 . S
Eu144 O166 2.471 1_556 S
Eu144 O167 2.349 1_545 S
Eu145 O154 2.373 1_565 S
Eu145 O158 2.488 . S
Eu145 O159 2.463 1_565 S
Eu145 O160 2.349 1_565 S
Eu145 O163 2.392 . S
Eu145 O164 2.418 . S
Eu145 C174 2.828 . S
C146 O164 1.244 . S
C146 O167 1.265 . S
C147 C148 1.379 . S
C147 C151 1.373 . S
C147 C153 1.505 . S
C148 C147 1.379 . S
C148 C150 1.369 . S
C148 H176 0.930 1_545 S
C149 C151 1.383 . S
C149 C152 1.382 . S
C149 H177 0.930 . S
C150 C148 1.369 . S
C150 C152 1.392 . S
C150 H178 0.930 1_545 S
C151 C147 1.373 . S
C151 C149 1.383 . S
C151 H179 0.931 . S
C152 C149 1.382 . S
C152 C150 1.392 . S
C153 Eu144 2.828 1_554 S
C153 C147 1.505 . S
C153 O165 1.249 1_554 S
C153 O166 1.244 . S
O154 Eu145 2.373 1_545 S
O154 C156 1.258 . S
O155 Eu144 2.392 . S
O155 C156 1.242 . S
C156 O154 1.258 . S
C156 O155 1.242 . S
O157 Eu144 2.418 . S
O157 C161 1.244 . S
O158 Eu145 2.488 . S
O158 C174 1.249 . S
O159 Eu145 2.463 1_545 S
O159 C174 1.224 1_545 S
O160 Eu145 2.349 1_545 S
O160 C161 1.265 . S
C161 O157 1.244 . S
C161 O160 1.265 . S
O162 Eu144 2.373 . S
O162 C175 1.258 1_545 S
O163 Eu145 2.392 . S
O163 C175 1.242 . S
O164 Eu145 2.418 . S
O164 C146 1.244 . S
O165 Eu144 2.488 . S
O165 C153 1.249 1_556 S
O166 Eu144 2.471 1_554 S
O166 C153 1.244 . S
O167 Eu144 2.349 1_565 S
O167 C146 1.265 . S
C168 C169 1.379 1_565 S
C168 C172 1.373 . S
C168 C174 1.505 . S
C169 C168 1.379 1_545 S
C169 C171 1.369 . S
C169 H180 0.930 . S
C170 C172 1.383 . S
C170 C173 1.382 . S
C170 H181 0.930 . S
C171 C169 1.369 . S
C171 C173 1.392 1_545 S
C171 H182 0.930 . S
C172 C168 1.373 . S
C172 C170 1.383 . S
C172 H183 0.931 . S
C173 C170 1.382 . S
C173 C171 1.392 1_565 S
C174 Eu145 2.828 . S
C174 O158 1.249 . S
C174 O159 1.224 1_565 S
C174 C168 1.505 . S
C175 O162 1.258 1_565 S
C175 O163 1.242 . S
H176 C148 0.930 1_565 S
H177 C149 0.930 . S
H178 C150 0.930 1_565 S
H179 C151 0.931 . S
H180 C169 0.930 . S
H181 C170 0.930 . S
H182 C171 0.930 . S
H183 C172 0.931 . S
Eu184 C193 2.828 1_556 S
Eu184 O195 2.392 . S
Eu184 O197 2.418 . S
Eu184 O202 2.373 . S
Eu184 O205 2.488 . S
Eu184 O206 2.471 1_556 S
Eu184 O207 2.349 . S
Eu185 O194 2.373 . S
Eu185 O198 2.488 . S
Eu185 O199 2.471 . S
Eu185 O200 2.349 . S
Eu185 O203 2.392 . S
Eu185 O204 2.418 . S
Eu185 C214 2.828 . S
C186 O204 1.244 . S
C186 O207 1.265 . S
C187 C188 1.379 . S
C187 C191 1.373 . S
C187 C193 1.505 . S
C188 C187 1.379 . S
C188 C190 1.369 . S
C188 H216 0.930 . S
C189 C191 1.383 . S
C189 C192 1.382 . S
C189 H217 0.930 . S
C190 C188 1.369 . S
C190 C192 1.392 . S
C190 H218 0.930 . S
C191 C187 1.373 . S
C191 C189 1.383 . S
C191 H219 0.931 . S
C192 C189 1.382 . S
C192 C190 1.392 . S
C193 Eu184 2.828 1_554 S
C193 C187 1.505 . S
C193 O205 1.249 1_554 S
C193 O206 1.244 . S
O194 Eu185 2.373 . S
O194 C196 1.258 . S
O195 Eu184 2.392 . S
O195 C196 1.242 . S
C196 O194 1.258 . S
C196 O195 1.242 . S
O197 Eu184 2.418 . S
O197 C201 1.244 . S
O198 Eu185 2.488 . S
O198 C214 1.249 . S
O199 Eu185 2.471 . S
O199 C214 1.244 . S
O200 Eu185 2.349 . S
O200 C201 1.265 . S
C201 O197 1.244 . S
C201 O200 1.265 . S
O202 Eu184 2.373 . S
O202 C215 1.258 . S
O203 Eu185 2.392 . S
O203 C215 1.242 . S
O204 Eu185 2.418 . S
O204 C186 1.244 . S
O205 Eu184 2.488 . S
O205 C193 1.249 1_556 S
O206 Eu184 2.471 1_554 S
O206 C193 1.244 . S
O207 Eu184 2.349 . S
O207 C186 1.265 . S
C208 C209 1.379 . S
C208 C212 1.373 . S
C208 C214 1.505 . S
C209 C208 1.379 . S
C209 C211 1.369 . S
C209 H220 0.930 . S
C210 C212 1.383 . S
C210 C213 1.382 . S
C210 H221 0.930 . S
C211 C209 1.369 . S
C211 C213 1.392 . S
C211 H222 0.930 . S
C212 C208 1.373 . S
C212 C210 1.383 . S
C212 H223 0.931 . S
C213 C210 1.382 . S
C213 C211 1.392 . S
C214 Eu185 2.828 . S
C214 O198 1.249 . S
C214 O199 1.244 . S
C214 C208 1.505 . S
C215 O202 1.258 . S
C215 O203 1.242 . S
H216 C188 0.930 . S
H217 C189 0.930 . S
H218 C190 0.930 . S
H219 C191 0.931 . S
H220 C209 0.930 . S
H221 C210 0.930 . S
H222 C211 0.930 . S
H223 C212 0.931 . S
Eu224 C233 2.828 . S
Eu224 O235 2.392 . S
Eu224 O237 2.418 1_455 S
Eu224 O242 2.373 . S
Eu224 O245 2.488 . S
Eu224 O246 2.471 . S
Eu224 O247 2.349 . S
Eu225 O234 2.373 . S
Eu225 O238 2.488 1_556 S
Eu225 O239 2.471 . S
Eu225 O240 2.349 . S
Eu225 O243 2.392 1_655 S
Eu225 O244 2.418 1_655 S
Eu225 C254 2.828 1_556 S
C226 O244 1.244 . S
C226 O247 1.265 . S
C227 C228 1.379 . S
C227 C231 1.373 . S
C227 C233 1.505 . S
C228 C227 1.379 . S
C228 C230 1.369 . S
C228 H256 0.930 . S
C229 C231 1.383 . S
C229 C232 1.382 . S
C229 H257 0.930 . S
C230 C228 1.369 . S
C230 C232 1.392 . S
C230 H258 0.930 . S
C231 C227 1.373 . S
C231 C229 1.383 . S
C231 H259 0.931 . S
C232 C229 1.382 . S
C232 C230 1.392 . S
C233 Eu224 2.828 . S
C233 C227 1.505 . S
C233 O245 1.249 . S
C233 O246 1.244 . S
O234 Eu225 2.373 . S
O234 C236 1.258 1_655 S
O235 Eu224 2.392 . S
O235 C236 1.242 . S
C236 O234 1.258 1_455 S
C236 O235 1.242 . S
O237 Eu224 2.418 1_655 S
O237 C241 1.244 . S
O238 Eu225 2.488 1_554 S
O238 C254 1.249 . S
O239 Eu225 2.471 . S
O239 C254 1.244 1_556 S
O240 Eu225 2.349 . S
O240 C241 1.265 . S
C241 O237 1.244 . S
C241 O240 1.265 . S
O242 Eu224 2.373 . S
O242 C255 1.258 . S
O243 Eu225 2.392 1_455 S
O243 C255 1.242 . S
O244 Eu225 2.418 1_455 S
O244 C226 1.244 . S
O245 Eu224 2.488 . S
O245 C233 1.249 . S
O246 Eu224 2.471 . S
O246 C233 1.244 . S
O247 Eu224 2.349 . S
O247 C226 1.265 . S
C248 C249 1.379 . S
C248 C252 1.373 . S
C248 C254 1.505 . S
C249 C248 1.379 . S
C249 C251 1.369 . S
C249 H260 0.930 . S
C250 C252 1.383 . S
C250 C253 1.382 . S
C250 H261 0.930 . S
C251 C249 1.369 . S
C251 C253 1.392 . S
C251 H262 0.930 . S
C252 C248 1.373 . S
C252 C250 1.383 . S
C252 H263 0.931 . S
C253 C250 1.382 . S
C253 C251 1.392 . S
C254 Eu225 2.828 1_554 S
C254 O238 1.249 . S
C254 O239 1.244 1_554 S
C254 C248 1.505 . S
C255 O242 1.258 . S
C255 O243 1.242 . S
H256 C228 0.930 . S
H257 C229 0.930 . S
H258 C230 0.930 . S
H259 C231 0.931 . S
H260 C249 0.930 . S
H261 C250 0.930 . S
H262 C251 0.930 . S
H263 C252 0.931 . S
C264 C265 1.369 1_565 S
C264 C266 1.419 . S
C264 H268 0.930 . S
C265 C264 1.369 1_545 S
C265 C274 1.429 . S
C266 C264 1.419 . S
C266 C267 1.363 1_565 S
C266 H269 0.929 . S
C267 C266 1.363 1_545 S
C267 C273 1.428 . S
H268 C264 0.930 . S
H269 C266 0.929 . S
S270 N271 1.613 . S
S270 N272 1.610 . S
N271 S270 1.613 . S
N271 C274 1.350 . S
N272 S270 1.610 . S
N272 C273 1.351 . S
C273 C267 1.428 . S
C273 N272 1.351 . S
C273 C274 1.434 . S
C274 C265 1.429 . S
C274 N271 1.350 . S
C274 C273 1.434 . S
C275 C276 1.369 . S
C275 C277 1.419 . S
C275 H279 0.930 . S
C276 C275 1.369 . S
C276 C285 1.429 . S
C277 C275 1.419 . S
C277 C278 1.363 . S
C277 H280 0.929 . S
C278 C277 1.363 . S
C278 C284 1.428 . S
H279 C275 0.930 . S
H280 C277 0.929 . S
S281 N282 1.613 . S
S281 N283 1.610 . S
N282 S281 1.613 . S
N282 C285 1.350 . S
N283 S281 1.610 . S
N283 C284 1.351 . S
C284 C278 1.428 . S
C284 N283 1.351 . S
C284 C285 1.434 . S
C285 C276 1.429 . S
C285 N282 1.350 . S
C285 C284 1.434 . S
C286 C287 1.369 . S
C286 C288 1.419 . S
C286 H290 0.930 . S
C287 C286 1.369 . S
C287 C296 1.429 . S
C288 C286 1.419 . S
C288 C289 1.363 . S
C288 H291 0.929 . S
C289 C288 1.363 . S
C289 C295 1.428 . S
H290 C286 0.930 . S
H291 C288 0.929 . S
S292 N293 1.613 . S
S292 N294 1.610 . S
N293 S292 1.613 . S
N293 C296 1.350 . S
N294 S292 1.610 . S
N294 C295 1.351 . S
C295 C289 1.428 . S
C295 N294 1.351 . S
C295 C296 1.434 . S
C296 C287 1.429 . S
C296 N293 1.350 . S
C296 C295 1.434 . S
C297 C298 1.369 . S
C297 C299 1.419 . S
C297 H301 0.930 . S
C298 C297 1.369 . S
C298 C307 1.429 . S
C299 C297 1.419 . S
C299 C300 1.363 . S
C299 H302 0.929 . S
C300 C299 1.363 . S
C300 C306 1.428 . S
H301 C297 0.930 . S
H302 C299 0.929 . S
S303 N304 1.613 . S
S303 N305 1.610 . S
N304 S303 1.613 . S
N304 C307 1.350 1_655 S
N305 S303 1.610 . S
N305 C306 1.351 1_655 S
C306 C300 1.428 . S
C306 N305 1.351 1_455 S
C306 C307 1.434 . S
C307 C298 1.429 . S
C307 N304 1.350 1_455 S
C307 C306 1.434 . S
C308 C309 1.369 1_545 S
C308 C310 1.419 . S
C308 H312 0.930 . S
C309 C308 1.369 1_565 S
C309 C318 1.429 . S
C310 C308 1.419 . S
C310 C311 1.363 1_545 S
C310 H313 0.929 . S
C311 C310 1.363 1_565 S
C311 C317 1.428 . S
H312 C308 0.930 . S
H313 C310 0.929 . S
S314 N315 1.613 . S
S314 N316 1.610 . S
N315 S314 1.613 . S
N315 C318 1.350 . S
N316 S314 1.610 . S
N316 C317 1.351 . S
C317 C311 1.428 . S
C317 N316 1.351 . S
C317 C318 1.434 . S
C318 C309 1.429 . S
C318 N315 1.350 . S
C318 C317 1.434 . S
C319 C320 1.369 . S
C319 C321 1.419 . S
C319 H323 0.930 . S
C320 C319 1.369 . S
C320 C329 1.429 . S
C321 C319 1.419 . S
C321 C322 1.363 . S
C321 H324 0.929 . S
C322 C321 1.363 . S
C322 C328 1.428 . S
H323 C319 0.930 . S
H324 C321 0.929 . S
S325 N326 1.613 . S
S325 N327 1.610 . S
N326 S325 1.613 . S
N326 C329 1.350 . S
N327 S325 1.610 . S
N327 C328 1.351 . S
C328 C322 1.428 . S
C328 N327 1.351 . S
C328 C329 1.434 . S
C329 C320 1.429 . S
C329 N326 1.350 . S
C329 C328 1.434 . S
C330 C331 1.369 . S
C330 C332 1.419 . S
C330 H334 0.930 . S
C331 C330 1.369 . S
C331 C340 1.429 . S
C332 C330 1.419 . S
C332 C333 1.363 . S
C332 H335 0.929 . S
C333 C332 1.363 . S
C333 C339 1.428 . S
H334 C330 0.930 . S
H335 C332 0.929 . S
S336 N337 1.613 . S
S336 N338 1.610 . S
N337 S336 1.613 . S
N337 C340 1.350 . S
N338 S336 1.610 . S
N338 C339 1.351 . S
C339 C333 1.428 . S
C339 N338 1.351 . S
C339 C340 1.434 . S
C340 C331 1.429 . S
C340 N337 1.350 . S
C340 C339 1.434 . S
C341 C342 1.369 1_455 S
C341 C343 1.419 . S
C341 H345 0.930 . S
C342 C341 1.369 1_655 S
C342 C351 1.429 . S
C343 C341 1.419 . S
C343 C344 1.363 1_455 S
C343 H346 0.929 . S
C344 C343 1.363 1_655 S
C344 C350 1.428 . S
H345 C341 0.930 . S
H346 C343 0.929 . S
S347 N348 1.613 . S
S347 N349 1.610 . S
N348 S347 1.613 . S
N348 C351 1.350 . S
N349 S347 1.610 . S
N349 C350 1.351 . S
C350 C344 1.428 . S
C350 N349 1.351 . S
C350 C351 1.434 . S
C351 C342 1.429 . S
C351 N348 1.350 . S
C351 C350 1.434 . S
C352 C353 1.369 . S
C352 C354 1.419 1_455 S
C352 H356 0.930 . S
C353 C352 1.369 . S
C353 C362 1.429 . S
C354 C352 1.419 1_655 S
C354 C355 1.363 . S
C354 H357 0.929 . S
C355 C354 1.363 . S
C355 C361 1.428 1_655 S
H356 C352 0.930 . S
H357 C354 0.929 . S
S358 N359 1.613 . S
S358 N360 1.610 . S
N359 S358 1.613 . S
N359 C362 1.350 1_556 S
N360 S358 1.610 . S
N360 C361 1.351 1_556 S
C361 C355 1.428 1_455 S
C361 N360 1.351 1_554 S
C361 C362 1.434 . S
C362 C353 1.429 . S
C362 N359 1.350 1_554 S
C362 C361 1.434 . S
C363 C364 1.369 1_565 S
C363 C365 1.419 . S
C363 H367 0.930 . S
C364 C363 1.369 1_545 S
C364 C373 1.429 . S
C365 C363 1.419 . S
C365 C366 1.363 . S
C365 H368 0.929 . S
C366 C365 1.363 . S
C366 C372 1.428 1_565 S
H367 C363 0.930 . S
H368 C365 0.929 . S
S369 N370 1.613 . S
S369 N371 1.610 . S
N370 S369 1.613 . S
N370 C373 1.350 . S
N371 S369 1.610 . S
N371 C372 1.351 . S
C372 C366 1.428 1_545 S
C372 N371 1.351 . S
C372 C373 1.434 . S
C373 C364 1.429 . S
C373 N370 1.350 . S
C373 C372 1.434 . S
C374 C375 1.369 . S
C374 C376 1.419 . S
C374 H378 0.930 . S
C375 C374 1.369 . S
C375 C384 1.429 . S
C376 C374 1.419 . S
C376 C377 1.363 . S
C376 H379 0.929 . S
C377 C376 1.363 . S
C377 C383 1.428 . S
H378 C374 0.930 . S
H379 C376 0.929 . S
S380 N381 1.613 . S
S380 N382 1.610 . S
N381 S380 1.613 . S
N381 C384 1.350 . S
N382 S380 1.610 . S
N382 C383 1.351 . S
C383 C377 1.428 . S
C383 N382 1.351 . S
C383 C384 1.434 . S
C384 C375 1.429 . S
C384 N381 1.350 . S
C384 C383 1.434 . S
C385 C386 1.369 . S
C385 C387 1.419 . S
C385 H389 0.930 . S
C386 C385 1.369 . S
C386 C395 1.429 . S
C387 C385 1.419 . S
C387 C388 1.363 . S
C387 H390 0.929 . S
C388 C387 1.363 . S
C388 C394 1.428 . S
H389 C385 0.930 . S
H390 C387 0.929 . S
S391 N392 1.613 . S
S391 N393 1.610 . S
N392 S391 1.613 . S
N392 C395 1.350 . S
N393 S391 1.610 . S
N393 C394 1.351 . S
C394 C388 1.428 . S
C394 N393 1.351 . S
C394 C395 1.434 . S
C395 C386 1.429 . S
C395 N392 1.350 . S
C395 C394 1.434 . S
C396 C397 1.369 . S
C396 C398 1.419 1_655 S
C396 H400 0.930 . S
C397 C396 1.369 . S
C397 C406 1.429 1_655 S
C398 C396 1.419 1_455 S
C398 C399 1.363 . S
C398 H401 0.929 1_455 S
C399 C398 1.363 . S
C399 C405 1.428 . S
H400 C396 0.930 . S
H401 C398 0.929 1_655 S
S402 N403 1.613 . S
S402 N404 1.610 . S
N403 S402 1.613 . S
N403 C406 1.350 . S
N404 S402 1.610 . S
N404 C405 1.351 . S
C405 C399 1.428 . S
C405 N404 1.351 . S
C405 C406 1.434 . S
C406 C397 1.429 1_455 S
C406 N403 1.350 . S
C406 C405 1.434 . S
C407 C408 1.369 . S
C407 C409 1.419 1_565 S
C407 H411 0.930 . S
C408 C407 1.369 . S
C408 C417 1.429 1_565 S
C409 C407 1.419 1_545 S
C409 C410 1.363 . S
C409 H412 0.929 . S
C410 C409 1.363 . S
C410 C416 1.428 . S
H411 C407 0.930 . S
H412 C409 0.929 . S
S413 N414 1.613 . S
S413 N415 1.610 . S
N414 S413 1.613 . S
N414 C417 1.350 . S
N415 S413 1.610 . S
N415 C416 1.351 . S
C416 C410 1.428 . S
C416 N415 1.351 . S
C416 C417 1.434 . S
C417 C408 1.429 1_545 S
C417 N414 1.350 . S
C417 C416 1.434 . S
C418 C419 1.369 . S
C418 C420 1.419 . S
C418 H422 0.930 . S
C419 C418 1.369 . S
C419 C428 1.429 . S
C420 C418 1.419 . S
C420 C421 1.363 . S
C420 H423 0.929 . S
C421 C420 1.363 . S
C421 C427 1.428 . S
H422 C418 0.930 . S
H423 C420 0.929 . S
S424 N425 1.613 . S
S424 N426 1.610 . S
N425 S424 1.613 . S
N425 C428 1.350 . S
N426 S424 1.610 . S
N426 C427 1.351 . S
C427 C421 1.428 . S
C427 N426 1.351 . S
C427 C428 1.434 . S
C428 C419 1.429 . S
C428 N425 1.350 . S
C428 C427 1.434 . S
C429 C430 1.369 . S
C429 C431 1.419 . S
C429 H433 0.930 . S
C430 C429 1.369 . S
C430 C439 1.429 . S
C431 C429 1.419 . S
C431 C432 1.363 . S
C431 H434 0.929 . S
C432 C431 1.363 . S
C432 C438 1.428 . S
H433 C429 0.930 . S
H434 C431 0.929 . S
S435 N436 1.613 . S
S435 N437 1.610 . S
N436 S435 1.613 . S
N436 C439 1.350 . S
N437 S435 1.610 . S
N437 C438 1.351 . S
C438 C432 1.428 . S
C438 N437 1.351 . S
C438 C439 1.434 . S
C439 C430 1.429 . S
C439 N436 1.350 . S
C439 C438 1.434 . S
C440 C441 1.369 1_554 S
C440 C442 1.419 . S
C440 H444 0.930 . S
C441 C440 1.369 1_556 S
C441 C450 1.429 . S
C442 C440 1.419 . S
C442 C443 1.363 1_554 S
C442 H445 0.929 . S
C443 C442 1.363 1_556 S
C443 C449 1.428 . S
H444 C440 0.930 . S
H445 C442 0.929 . S
S446 N447 1.613 1_655 S
S446 N448 1.610 1_655 S
N447 S446 1.613 1_455 S
N447 C450 1.350 . S
N448 S446 1.610 1_455 S
N448 C449 1.351 . S
C449 C443 1.428 . S
C449 N448 1.351 . S
C449 C450 1.434 . S
C450 C441 1.429 . S
C450 N447 1.350 . S
C450 C449 1.434 . S
C451 C452 1.369 . S
C451 C453 1.419 . S
C451 H455 0.930 . S
C452 C451 1.369 . S
C452 C461 1.429 . S
C453 C451 1.419 . S
C453 C454 1.363 . S
C453 H456 0.929 . S
C454 C453 1.363 . S
C454 C460 1.428 . S
H455 C451 0.930 . S
H456 C453 0.929 . S
S457 N458 1.613 . S
S457 N459 1.610 . S
N458 S457 1.613 . S
N458 C461 1.350 1_554 S
N459 S457 1.610 . S
N459 C460 1.351 1_554 S
C460 C454 1.428 . S
C460 N459 1.351 1_556 S
C460 C461 1.434 . S
C461 C452 1.429 . S
C461 N458 1.350 1_556 S
C461 C460 1.434 . S
C462 C463 1.369 . S
C462 C464 1.419 . S
C462 H466 0.930 1_556 S
C463 C462 1.369 . S
C463 C472 1.429 . S
C464 C462 1.419 . S
C464 C465 1.363 . S
C464 H467 0.929 . S
C465 C464 1.363 . S
C465 C471 1.428 . S
H466 C462 0.930 1_554 S
H467 C464 0.929 . S
S468 N469 1.613 . S
S468 N470 1.610 . S
N469 S468 1.613 . S
N469 C472 1.350 . S
N470 S468 1.610 . S
N470 C471 1.351 . S
C471 C465 1.428 . S
C471 N470 1.351 . S
C471 C472 1.434 . S
C472 C463 1.429 . S
C472 N469 1.350 . S
C472 C471 1.434 . S
C473 C474 1.369 1_554 S
C473 C475 1.419 . S
C473 H477 0.930 . S
C474 C473 1.369 1_556 S
C474 C483 1.429 . S
C475 C473 1.419 . S
C475 C476 1.363 1_554 S
C475 H478 0.929 . S
C476 C475 1.363 1_556 S
C476 C482 1.428 . S
H477 C473 0.930 . S
H478 C475 0.929 . S
S479 N480 1.613 . S
S479 N481 1.610 . S
N480 S479 1.613 . S
N480 C483 1.350 . S
N481 S479 1.610 . S
N481 C482 1.351 . S
C482 C476 1.428 . S
C482 N481 1.351 . S
C482 C483 1.434 . S
C483 C474 1.429 . S
C483 N480 1.350 . S
C483 C482 1.434 . S
C484 C485 1.369 . S
C484 C486 1.419 . S
C484 H488 0.930 . S
C485 C484 1.369 . S
C485 C494 1.429 . S
C486 C484 1.419 . S
C486 C487 1.363 . S
C486 H489 0.929 . S
C487 C486 1.363 . S
C487 C493 1.428 . S
H488 C484 0.930 . S
H489 C486 0.929 . S
S490 N491 1.613 1_455 S
S490 N492 1.610 . S
N491 S490 1.613 1_655 S
N491 C494 1.350 . S
N492 S490 1.610 . S
N492 C493 1.351 1_455 S
C493 C487 1.428 . S
C493 N492 1.351 1_655 S
C493 C494 1.434 . S
C494 C485 1.429 . S
C494 N491 1.350 . S
C494 C493 1.434 . S
C495 C496 1.369 . S
C495 C497 1.419 . S
C495 H499 0.930 1_565 S
C496 C495 1.369 . S
C496 C505 1.429 . S
C497 C495 1.419 . S
C497 C498 1.363 . S
C497 H500 0.929 1_565 S
C498 C497 1.363 . S
C498 C504 1.428 . S
H499 C495 0.930 1_545 S
H500 C497 0.929 1_545 S
S501 N502 1.613 . S
S501 N503 1.610 . S
N502 S501 1.613 . S
N502 C505 1.350 . S
N503 S501 1.610 . S
N503 C504 1.351 . S
C504 C498 1.428 . S
C504 N503 1.351 . S
C504 C505 1.434 . S
C505 C496 1.429 . S
C505 N502 1.350 . S
C505 C504 1.434 . S
C506 C507 1.369 . S
C506 C508 1.419 . S
C506 H510 0.930 . S
C507 C506 1.369 . S
C507 C516 1.429 . S
C508 C506 1.419 . S
C508 C509 1.363 . S
C508 H511 0.929 . S
C509 C508 1.363 . S
C509 C515 1.428 . S
H510 C506 0.930 . S
H511 C508 0.929 . S
S512 N513 1.613 . S
S512 N514 1.610 . S
N513 S512 1.613 . S
N513 C516 1.350 . S
N514 S512 1.610 . S
N514 C515 1.351 . S
C515 C509 1.428 . S
C515 N514 1.351 . S
C515 C516 1.434 . S
C516 C507 1.429 . S
C516 N513 1.350 . S
C516 C515 1.434 . S
C517 C518 1.369 . S
C517 C519 1.419 . S
C517 H521 0.930 . S
C518 C517 1.369 . S
C518 C527 1.429 . S
C519 C517 1.419 . S
C519 C520 1.363 . S
C519 H522 0.929 . S
C520 C519 1.363 . S
C520 C526 1.428 . S
H521 C517 0.930 . S
H522 C519 0.929 . S
S523 N524 1.613 . S
S523 N525 1.610 . S
N524 S523 1.613 . S
N524 C527 1.350 . S
N525 S523 1.610 . S
N525 C526 1.351 . S
C526 C520 1.428 . S
C526 N525 1.351 . S
C526 C527 1.434 . S
C527 C518 1.429 . S
C527 N524 1.350 . S
C527 C526 1.434 . S
C265 N80 2.243 . S
C267 C135 2.414 . S
C278 C161 2.168 . S
C276 N93 1.967 . S
C289 C201 2.178 . S
C287 N54 2.007 . S
C300 C255 2.416 . S
C298 N67 2.269 . S
C311 C116 2.413 1_564 S
C309 N28 2.246 . S
C320 N41 1.961 . S
C322 C146 2.168 1_554 S
C331 N2 2.016 . S
C333 C186 2.179 1_554 S
C342 N15 2.275 . S
C344 C236 2.416 1_654 S
C355 C112 0.900 . S
C353 N70 0.923 . S
C366 C173 0.869 . S
C364 N83 0.881 . S
C377 C213 0.751 . S
C375 N96 0.764 . S
C386 N57 0.841 . S
C388 C232 0.815 . S
C397 N18 0.924 . S
C399 C133 0.901 . S
C410 C152 0.883 . S
C408 N31 0.866 . S
C421 C192 0.762 . S
C419 N44 0.748 . S
C430 N5 0.838 . S
C432 C253 0.827 . S
C441 N66 2.205 . S
C443 C106 2.366 . S
C452 N79 2.554 . S
C454 C156 2.665 . S
C465 C196 2.517 . S
C463 N92 2.423 1_556 S
C476 C226 2.203 . S
C474 N53 2.062 1_556 S
C485 N14 2.206 . S
C487 C121 2.367 . S
C498 C175 2.664 . S
C496 N27 2.555 . S
C509 C215 2.517 . S
C507 N40 2.401 . S
C518 N1 2.060 . S
C520 C241 2.202 . S
