# Generated by pormake.
# Topology sqc, (4,8)-cn, num edge types: 1
# Building blocks:
#     Node 0, Type 0, BuildingBlock: AZAVOO_clean_linker_0, # of connection points: 4
#     Node 1, Type 0, BuildingBlock: AZAVOO_clean_linker_0, # of connection points: 4
#     Node 2, Type 0, BuildingBlock: AZAVOO_clean_linker_0, # of connection points: 4
#     Node 3, Type 0, BuildingBlock: AZAVOO_clean_linker_0, # of connection points: 4
#     Node 4, Type 0, BuildingBlock: AZAVOO_clean_linker_0, # of connection points: 4
#     Node 5, Type 0, BuildingBlock: AZAVOO_clean_linker_0, # of connection points: 4
#     Node 6, Type 0, BuildingBlock: AZAVOO_clean_linker_0, # of connection points: 4
#     Node 7, Type 0, BuildingBlock: AZAVOO_clean_linker_0, # of connection points: 4
#     Node 8, Type 1, BuildingBlock: TAGTUT_clean_sbu_3, # of connection points: 8
#     Node 9, Type 1, BuildingBlock: TAGTUT_clean_sbu_3, # of connection points: 8
#     Node 10, Type 1, BuildingBlock: TAGTUT_clean_sbu_3, # of connection points: 8
#     Node 11, Type 1, BuildingBlock: TAGTUT_clean_sbu_3, # of connection points: 8
#     Edge 12, Type (0, 1), BuildingBlock: ZUJKAS_clean_linker_0, # of connection points: 2
#     Edge 13, Type (0, 1), BuildingBlock: ZUJKAS_clean_linker_0, # of connection points: 2
#     Edge 14, Type (0, 1), BuildingBlock: ZUJKAS_clean_linker_0, # of connection points: 2
#     Edge 15, Type (0, 1), BuildingBlock: ZUJKAS_clean_linker_0, # of connection points: 2
#     Edge 16, Type (0, 1), BuildingBlock: ZUJKAS_clean_linker_0, # of connection points: 2
#     Edge 17, Type (0, 1), BuildingBlock: ZUJKAS_clean_linker_0, # of connection points: 2
#     Edge 18, Type (0, 1), BuildingBlock: ZUJKAS_clean_linker_0, # of connection points: 2
#     Edge 19, Type (0, 1), BuildingBlock: ZUJKAS_clean_linker_0, # of connection points: 2
#     Edge 20, Type (0, 1), BuildingBlock: ZUJKAS_clean_linker_0, # of connection points: 2
#     Edge 21, Type (0, 1), BuildingBlock: ZUJKAS_clean_linker_0, # of connection points: 2
#     Edge 22, Type (0, 1), BuildingBlock: ZUJKAS_clean_linker_0, # of connection points: 2
#     Edge 23, Type (0, 1), BuildingBlock: ZUJKAS_clean_linker_0, # of connection points: 2
#     Edge 24, Type (0, 1), BuildingBlock: ZUJKAS_clean_linker_0, # of connection points: 2
#     Edge 25, Type (0, 1), BuildingBlock: ZUJKAS_clean_linker_0, # of connection points: 2
#     Edge 26, Type (0, 1), BuildingBlock: ZUJKAS_clean_linker_0, # of connection points: 2
#     Edge 27, Type (0, 1), BuildingBlock: ZUJKAS_clean_linker_0, # of connection points: 2
#     Edge 28, Type (0, 1), BuildingBlock: ZUJKAS_clean_linker_0, # of connection points: 2
#     Edge 29, Type (0, 1), BuildingBlock: ZUJKAS_clean_linker_0, # of connection points: 2
#     Edge 30, Type (0, 1), BuildingBlock: ZUJKAS_clean_linker_0, # of connection points: 2
#     Edge 31, Type (0, 1), BuildingBlock: ZUJKAS_clean_linker_0, # of connection points: 2
#     Edge 32, Type (0, 1), BuildingBlock: ZUJKAS_clean_linker_0, # of connection points: 2
#     Edge 33, Type (0, 1), BuildingBlock: ZUJKAS_clean_linker_0, # of connection points: 2
#     Edge 34, Type (0, 1), BuildingBlock: ZUJKAS_clean_linker_0, # of connection points: 2
#     Edge 35, Type (0, 1), BuildingBlock: ZUJKAS_clean_linker_0, # of connection points: 2
#     Edge 36, Type (0, 1), BuildingBlock: ZUJKAS_clean_linker_0, # of connection points: 2
#     Edge 37, Type (0, 1), BuildingBlock: ZUJKAS_clean_linker_0, # of connection points: 2
#     Edge 38, Type (0, 1), BuildingBlock: ZUJKAS_clean_linker_0, # of connection points: 2
#     Edge 39, Type (0, 1), BuildingBlock: ZUJKAS_clean_linker_0, # of connection points: 2
#     Edge 40, Type (0, 1), BuildingBlock: ZUJKAS_clean_linker_0, # of connection points: 2
#     Edge 41, Type (0, 1), BuildingBlock: ZUJKAS_clean_linker_0, # of connection points: 2
#     Edge 42, Type (0, 1), BuildingBlock: ZUJKAS_clean_linker_0, # of connection points: 2
#     Edge 43, Type (0, 1), BuildingBlock: ZUJKAS_clean_linker_0, # of connection points: 2
# Relax obj value: 0.166
# Max RMSD: 0.261
# Mean RMSD: 0.229
data_MOF--net-sqc--node1-TAGTUT_clean_sbu_3--node2-AZAVOO_clean_linker_0--edge1-ZUJKAS_clean_linker_0
_symmetry_space_group_name_H-M    P1
_symmetry_Int_Tables_number       1
_symmetry_cell_setting            triclinic
loop_
_symmetry_equiv_pos_as_xyz
'x, y, z'
_cell_length_a     32.402778
_cell_length_b     32.405339
_cell_length_c     113.73571
_cell_angle_alpha  91.428198
_cell_angle_beta   89.962582
_cell_angle_gamma 90.666582
loop_
_atom_site_label
_atom_site_type_symbol
_atom_site_fract_x
_atom_site_fract_y
_atom_site_fract_z
_atom_type_partial_charge
H0 H 0.02893 0.13107 0.60175 0.0
H1 H 0.77296 0.90777 0.50495 0.0
H2 H 0.07592 0.10411 0.53813 0.0
H3 H 0.14163 0.13135 0.54569 0.0
H4 H 0.1884 0.00712 0.54703 0.0
H5 H 0.12261 0.98029 0.5392 0.0
H6 H 0.98952 0.09607 0.5523 0.0
H7 H -0.00091 0.12102 0.5726 0.0
H8 H 0.07313 0.01422 0.57963 0.0
H9 H 0.0629 0.98938 0.55933 0.0
H10 H 0.91229 0.06209 0.53807 0.0
H11 H 0.85117 0.05659 0.55061 0.0
H12 H 0.90791 0.95749 0.56923 0.0
H13 H 0.9687 0.96237 0.55639 0.0
H14 H 0.92442 0.04718 0.51252 0.0
H15 H 0.85808 0.02702 0.50374 0.0
H16 H 0.86296 0.91049 0.52138 0.0
H17 H 0.92965 0.93087 0.52998 0.0
H18 H 0.00702 0.05036 0.50011 0.0
H19 H 0.96669 0.03891 0.48213 0.0
H20 H 0.94715 0.91153 0.49132 0.0
H21 H 0.98849 0.92306 0.50901 0.0
H22 H 0.10262 0.06447 0.5131 0.0
H23 H 0.16387 0.04851 0.50116 0.0
H24 H 0.1348 0.91837 0.5031 0.0
H25 H 0.07421 0.93446 0.51505 0.0
O26 O 0.02547 0.12057 0.59376 0.0
O27 O 0.06349 0.06523 0.59691 0.0
O28 O 0.79849 0.97667 0.49935 0.0
O29 O 0.79867 0.91691 0.50854 0.0
C30 C 0.05362 0.02432 0.53419 0.0
C31 C 0.01966 0.02599 0.54201 0.0
C32 C 0.98005 0.01349 0.53806 0.0
C33 C 0.97398 0.00122 0.52621 0.0
C34 C 0.008 -0.00125 0.51846 0.0
C35 C 0.04798 0.0091 0.52253 0.0
C36 C 0.09454 0.04027 0.53816 0.0
C37 C 0.10052 0.08285 0.53998 0.0
C38 C 0.138 0.0983 0.54435 0.0
C39 C 0.17023 0.07141 0.54704 0.0
C40 C 0.16442 0.02872 0.54493 0.0
C41 C 0.12685 0.01329 0.54052 0.0
C42 C 0.02555 0.04097 0.55435 0.0
C43 C 0.00767 0.07805 0.55825 0.0
C44 C 0.01326 0.09227 0.56985 0.0
C45 C 0.03692 0.06964 0.57774 0.0
C46 C 0.05478 0.03243 0.57378 0.0
C47 C 0.04907 0.01821 0.56219 0.0
C48 C 0.94472 0.01251 0.54631 0.0
C49 C 0.91143 0.0391 0.54482 0.0
C50 C 0.87655 0.03571 0.55191 0.0
C51 C 0.87476 0.00617 0.56073 0.0
C52 C 0.90859 0.98031 0.56243 0.0
C53 C 0.94327 0.98327 0.55519 0.0
C54 C 0.93187 0.99039 0.52183 0.0
C55 C 0.91098 0.01741 0.51452 0.0
C56 C 0.87313 0.00579 0.50951 0.0
C57 C 0.85533 0.96701 0.5118 0.0
C58 C 0.87587 0.9405 0.5194 0.0
C59 C 0.91384 0.95211 0.52438 0.0
C60 C 0.00017 0.98767 0.50592 0.0
C61 C 0.99592 0.01947 0.4979 0.0
C62 C 0.97226 0.01303 0.48773 0.0
C63 C 0.95267 0.97466 0.48548 0.0
C64 C 0.9617 0.94147 0.49277 0.0
C65 C 0.98554 0.94791 0.50288 0.0
C66 C 0.08401 0.00059 0.5149 0.0
C67 C 0.1096 0.03258 0.51093 0.0
C68 C 0.14455 0.02343 0.50418 0.0
C69 C 0.15394 0.98222 0.5012 0.0
C70 C 0.12801 0.95041 0.50514 0.0
C71 C 0.09343 0.95953 0.51195 0.0
C72 C 0.04286 0.08486 0.59005 0.0
C73 C 0.81577 0.95401 0.50618 0.0
H74 H 0.43876 0.6276 0.7162 0.0
H75 H 0.27382 0.98424 0.80588 0.0
H76 H 0.30157 0.61981 0.77547 0.0
H77 H 0.3249 0.55762 0.76493 0.0
H78 H 0.45162 0.59649 0.77033 0.0
H79 H 0.42795 0.65862 0.78086 0.0
H80 H 0.32493 0.67002 0.75442 0.0
H81 H 0.36233 0.64696 0.7368 0.0
H82 H 0.46986 0.71644 0.74868 0.0
H83 H 0.43227 0.73868 0.76636 0.0
H84 H 0.28995 0.75966 0.75591 0.0
H85 H 0.29532 0.80652 0.73942 0.0
H86 H 0.4009 0.86649 0.75601 0.0
H87 H 0.39457 0.81995 0.77258 0.0
H88 H 0.24712 0.80006 0.77913 0.0
H89 H 0.22086 0.86882 0.78425 0.0
H90 H 0.33546 0.89857 0.80218 0.0
H91 H 0.36121 0.82977 0.79701 0.0
H92 H 0.23166 0.7401 0.79771 0.0
H93 H 0.19775 0.78835 0.81128 0.0
H94 H 0.31467 0.81428 0.8283 0.0
H95 H 0.34841 0.76612 0.81456 0.0
H96 H 0.25486 0.66223 0.79806 0.0
H97 H 0.24308 0.60057 0.80961 0.0
H98 H 0.37391 0.59391 0.81653 0.0
H99 H 0.38538 0.65598 0.80502 0.0
O100 O 0.42419 0.63798 0.72306 0.0
O101 O 0.47787 0.67606 0.72921 0.0
O102 O 0.22496 0.94016 0.7944 0.0
O103 O 0.28364 0.95718 0.80353 0.0
C104 C 0.34919 0.6864 0.78155 0.0
C105 C 0.35466 0.71653 0.7729 0.0
C106 C 0.3397 0.75664 0.77487 0.0
C107 C 0.32037 0.76723 0.78556 0.0
C108 C 0.31423 0.73705 0.7942 0.0
C109 C 0.32854 0.69645 0.79218 0.0
C110 C 0.36309 0.64377 0.77883 0.0
C111 C 0.33435 0.61397 0.77482 0.0
C112 C 0.34776 0.57857 0.76875 0.0
C113 C 0.39006 0.57269 0.76662 0.0
C114 C 0.41882 0.60065 0.77168 0.0
C115 C 0.4054 0.63586 0.7778 0.0
C116 C 0.37599 0.70583 0.76167 0.0
C117 C 0.3565 0.68037 0.75316 0.0
C118 C 0.37795 0.66722 0.74311 0.0
C119 C 0.41917 0.67969 0.74136 0.0
C120 C 0.43819 0.70619 0.74977 0.0
C121 C 0.41676 0.71911 0.75985 0.0
C122 C 0.34188 0.78666 0.76536 0.0
C123 C 0.31394 0.78324 0.75599 0.0
C124 C 0.31723 0.80978 0.74658 0.0
C125 C 0.34862 0.84005 0.74641 0.0
C126 C 0.37608 0.84382 0.75597 0.0
C127 C 0.37268 0.81727 0.7654 0.0
C128 C 0.30596 0.81008 0.78773 0.0
C129 C 0.2666 0.8217 0.78405 0.0
C130 C 0.25165 0.86088 0.78703 0.0
C131 C 0.276 0.88912 0.79368 0.0
C132 C 0.31588 0.87758 0.79707 0.0
C133 C 0.33073 0.83839 0.79411 0.0
C134 C 0.29249 0.74957 0.80516 0.0
C135 C 0.24953 0.75436 0.8048 0.0
C136 C 0.23025 0.78235 0.8125 0.0
C137 C 0.25375 0.80587 0.82067 0.0
C138 C 0.29594 0.79718 0.82193 0.0
C139 C 0.31516 0.76908 0.81424 0.0
C140 C 0.32089 0.66378 0.8008 0.0
C141 C 0.2808 0.6482 0.80236 0.0
C142 C 0.27419 0.61284 0.80889 0.0
C143 C 0.30765 0.5923 0.81389 0.0
C144 C 0.34765 0.60883 0.81265 0.0
C145 C 0.35418 0.64442 0.80619 0.0
C146 C 0.44228 0.66464 0.73086 0.0
C147 C 0.25986 0.93031 0.79719 0.0
H148 H 0.67852 0.9548 0.09711 0.0
H149 H 0.82335 0.22012 0.99359 0.0
H150 H 0.56634 0.99023 0.04027 0.0
H151 H 0.51115 0.96491 0.053 0.0
H152 H 0.4749 0.09078 0.06066 0.0
H153 H 0.52945 0.11553 0.04764 0.0
H154 H 0.65838 0.99362 0.04754 0.0
H155 H 0.67032 0.96591 0.06704 0.0
H156 H 0.61729 0.0757 0.08296 0.0
H157 H 0.60626 0.10339 0.06338 0.0
H158 H 0.72011 0.0268 0.0305 0.0
H159 H 0.77586 0.00384 0.04307 0.0
H160 H 0.75171 0.10504 0.06751 0.0
H161 H 0.69554 0.12752 0.05488 0.0
H162 H 0.70659 0.05943 0.00909 0.0
H163 H 0.76208 0.08787 -0.00299 0.0
H164 H 0.74934 0.20595 0.01513 0.0
H165 H 0.6938 0.17705 0.02714 0.0
H166 H 0.6251 0.05834 -0.00089 0.0
H167 H 0.64925 0.08598 0.98058 0.0
H168 H 0.63592 0.21002 0.99488 0.0
H169 H 0.61325 0.18172 0.01357 0.0
H170 H 0.54874 0.01749 0.01592 0.0
H171 H 0.4855 0.01329 0.00412 0.0
H172 H 0.47022 0.14503 0.00882 0.0
H173 H 0.53322 0.14877 0.02072 0.0
O174 O 0.67265 0.96596 0.08948 0.0
O175 O 0.64246 0.0216 0.09723 0.0
O176 O 0.8092 0.14588 0.98986 0.0
O177 O 0.80271 0.20766 -0.00142 0.0
C178 C 0.58859 0.07004 0.03677 0.0
C179 C 0.62754 0.06862 0.04225 0.0
C180 C 0.66295 0.08357 0.03639 0.0
C181 C 0.65935 0.10042 0.02519 0.0
C182 C 0.62031 0.10177 0.01969 0.0
C183 C 0.58509 0.086 0.0254 0.0
C184 C 0.55173 0.05463 0.04306 0.0
C185 C 0.54588 0.01217 0.04453 0.0
C186 C 0.51464 0.99786 0.0519 0.0
C187 C 0.48889 0.02584 0.05797 0.0
C188 C 0.49386 0.06836 0.05605 0.0
C189 C 0.52501 0.08261 0.04863 0.0
C190 C 0.63164 0.05055 0.05407 0.0
C191 C 0.64928 0.01156 0.05525 0.0
C192 C 0.65606 0.99583 0.0664 0.0
C193 C 0.64493 0.01867 0.07656 0.0
C194 C 0.62632 0.05736 0.07531 0.0
C195 C 0.61981 0.07317 0.06415 0.0
C196 C 0.70385 0.07863 0.04184 0.0
C197 C 0.7281 0.04505 0.0383 0.0
C198 C 0.75982 0.0319 0.04553 0.0
C199 C 0.76756 0.05224 0.05637 0.0
C200 C 0.74584 0.08838 0.05929 0.0
C201 C 0.71415 0.10154 0.05205 0.0
C202 C 0.69644 0.11617 0.01901 0.0
C203 C 0.71635 0.09123 0.01056 0.0
C204 C 0.74785 0.10762 0.00364 0.0
C205 C 0.76003 0.14926 0.00507 0.0
C206 C 0.74069 0.1738 0.01379 0.0
C207 C 0.70917 0.15734 0.02071 0.0
C208 C 0.6179 0.11805 0.00768 0.0
C209 C 0.62553 0.09147 -0.00196 0.0
C210 C 0.63943 0.10744 0.98744 0.0
C211 C 0.64551 0.15027 0.98634 0.0
C212 C 0.63253 0.17687 0.99555 0.0
C213 C 0.619 0.16083 0.00618 0.0
C214 C 0.54533 0.08343 0.01911 0.0
C215 C 0.53132 0.04528 0.01452 0.0
C216 C 0.49544 0.04298 0.00776 0.0
C217 C 0.47305 0.07883 0.00556 0.0
C218 C 0.4866 0.11684 0.0105 0.0
C219 C 0.5226 0.11912 0.01722 0.0
C220 C 0.65312 0.00229 0.08839 0.0
C221 C 0.79222 0.1673 -0.00262 0.0
H222 H 0.17817 0.3174 0.20804 0.0
H223 H 0.49978 0.54776 0.28653 0.0
H224 H 0.25168 0.2625 0.26602 0.0
H225 H 0.21964 0.19545 0.26106 0.0
H226 H 0.34013 0.14572 0.25322 0.0
H227 H 0.37174 0.21261 0.25839 0.0
H228 H 0.25341 0.35015 0.25411 0.0
H229 H 0.21253 0.3436 0.23607 0.0
H230 H 0.30734 0.26735 0.2203 0.0
H231 H 0.34811 0.27455 0.23836 0.0
H232 H 0.29869 0.42083 0.26752 0.0
H233 H 0.287 0.48249 0.25608 0.0
H234 H 0.36656 0.43403 0.22864 0.0
H235 H 0.37882 0.37269 0.24033 0.0
H236 H 0.34382 0.41218 0.28967 0.0
H237 H 0.37829 0.4753 0.29698 0.0
H238 H 0.47208 0.46021 0.27019 0.0
H239 H 0.43759 0.39669 0.2631 0.0
H240 H 0.33943 0.33049 0.30096 0.0
H241 H 0.37058 0.3613 0.31858 0.0
H242 H 0.48922 0.36389 0.30112 0.0
H243 H 0.45715 0.33385 0.28335 0.0
H244 H 0.29713 0.25682 0.29071 0.0
H245 H 0.30428 0.20195 0.30504 0.0
H246 H 0.43056 0.18425 0.29395 0.0
H247 H 0.42315 0.23919 0.27969 0.0
O248 O 0.1949 0.31966 0.21508 0.0
O249 O 0.24445 0.28046 0.20739 0.0
O250 O 0.43604 0.52965 0.29726 0.0
O251 O 0.48506 0.52339 0.28366 0.0
C252 C 0.33339 0.28263 0.26571 0.0
C253 C 0.32846 0.31705 0.25847 0.0
C254 C 0.34649 0.35551 0.26181 0.0
C255 C 0.36967 0.3594 0.27227 0.0
C256 C 0.37455 0.32494 0.27946 0.0
C257 C 0.3562 0.28678 0.27624 0.0
C258 C 0.31393 0.24233 0.26249 0.0
C259 C 0.27102 0.23706 0.26321 0.0
C260 C 0.25284 0.19879 0.26038 0.0
C261 C 0.27735 0.16519 0.25679 0.0
C262 C 0.32043 0.1707 0.25616 0.0
C263 C 0.33853 0.20894 0.259 0.0
C264 C 0.30376 0.31297 0.24751 0.0
C265 C 0.26537 0.33224 0.24672 0.0
C266 C 0.24204 0.32834 0.23642 0.0
C267 C 0.25667 0.30497 0.22673 0.0
C268 C 0.29517 0.28559 0.22759 0.0
C269 C 0.3185 0.2896 0.23789 0.0
C270 C 0.3395 0.39243 0.25472 0.0
C271 C 0.31374 0.4237 0.25907 0.0
C272 C 0.30699 0.45873 0.25251 0.0
C273 C 0.32585 0.46302 0.24147 0.0
C274 C 0.35203 0.43175 0.23719 0.0
C275 C 0.35875 0.39662 0.24377 0.0
C276 C 0.38835 0.39984 0.2759 0.0
C277 C 0.3717 0.4227 0.28536 0.0
C278 C 0.39146 0.45871 0.28952 0.0
C279 C 0.42807 0.4727 0.2842 0.0
C280 C 0.44403 0.45023 0.27451 0.0
C281 C 0.4243 0.41409 0.2704 0.0
C282 C 0.39598 0.33048 0.29089 0.0
C283 C 0.37246 0.33609 0.30112 0.0
C284 C 0.39044 0.35372 0.3112 0.0
C285 C 0.4323 0.36581 0.31118 0.0
C286 C 0.45673 0.3557 0.30132 0.0
C287 C 0.43861 0.33823 0.2912 0.0
C288 C 0.35963 0.25169 0.2842 0.0
C289 C 0.32614 0.24071 0.29132 0.0
C290 C 0.33032 0.20967 0.2995 0.0
C291 C 0.36796 0.189 0.30057 0.0
C292 C 0.40111 0.19945 0.2932 0.0
C293 C 0.39702 0.23079 0.28511 0.0
C294 C 0.23178 0.30085 0.21581 0.0
C295 C 0.4498 0.51032 0.28879 0.0
H296 H 0.93657 0.1364 0.2147 0.0
H297 H 0.72537 0.48673 0.29841 0.0
H298 H 0.791 0.12237 0.2754 0.0
H299 H 0.82008 0.05627 0.26908 0.0
H300 H 0.94291 0.10938 0.27195 0.0
H301 H 0.91356 0.17422 0.27906 0.0
H302 H 0.81765 0.16947 0.25237 0.0
H303 H 0.85849 0.14794 0.23524 0.0
H304 H 0.95702 0.2308 0.24661 0.0
H305 H 0.91608 0.25158 0.26381 0.0
H306 H 0.78941 0.2628 0.24908 0.0
H307 H 0.80316 0.3111 0.23328 0.0
H308 H 0.88738 0.37962 0.25612 0.0
H309 H 0.87281 0.33156 0.27188 0.0
H310 H 0.73388 0.30606 0.26905 0.0
H311 H 0.70158 0.37342 0.27218 0.0
H312 H 0.79291 0.40488 0.29873 0.0
H313 H 0.82522 0.33775 0.29537 0.0
H314 H 0.70751 0.25368 0.29001 0.0
H315 H 0.66946 0.29953 0.30341 0.0
H316 H 0.77883 0.31541 0.32486 0.0
H317 H 0.81626 0.26907 0.31151 0.0
H318 H 0.73341 0.17073 0.29371 0.0
H319 H 0.71986 0.11161 0.30616 0.0
H320 H 0.84869 0.10981 0.31587 0.0
H321 H 0.86192 0.16939 0.30349 0.0
O322 O 0.92084 0.14556 0.2215 0.0
O323 O 0.97023 0.18927 0.22759 0.0
O324 O 0.69398 0.44426 0.28235 0.0
O325 O 0.73844 0.46058 0.29666 0.0
C326 C 0.83257 0.19509 0.2789 0.0
C327 C 0.83957 0.22391 0.26994 0.0
C328 C 0.82286 0.26377 0.27097 0.0
C329 C 0.79897 0.27484 0.28087 0.0
C330 C 0.79069 0.2456 0.28964 0.0
C331 C 0.80775 0.20576 0.28874 0.0
C332 C 0.85018 0.15318 0.27753 0.0
C333 C 0.82422 0.11917 0.27509 0.0
C334 C 0.84093 0.0816 0.27134 0.0
C335 C 0.88382 0.07775 0.26972 0.0
C336 C 0.90981 0.111 0.27313 0.0
C337 C 0.8931 0.14827 0.27711 0.0
C338 C 0.86394 0.21203 0.25933 0.0
C339 C 0.84807 0.18291 0.25114 0.0
C340 C 0.87145 0.1707 0.24136 0.0
C341 C 0.91104 0.18762 0.23956 0.0
C342 C 0.92665 0.21716 0.24773 0.0
C343 C 0.90329 0.2292 0.25754 0.0
C344 C 0.83011 0.29384 0.26159 0.0
C345 C 0.81066 0.2884 0.25064 0.0
C346 C 0.81874 0.31583 0.24163 0.0
C347 C 0.84639 0.34915 0.24345 0.0
C348 C 0.86548 0.35463 0.25449 0.0
C349 C 0.85735 0.3272 0.26349 0.0
C350 C 0.78176 0.31708 0.28201 0.0
C351 C 0.74716 0.32781 0.27541 0.0
C352 C 0.72868 0.36619 0.27726 0.0
C353 C 0.74454 0.39445 0.28576 0.0
C354 C 0.77983 0.38384 0.29215 0.0
C355 C 0.79839 0.34556 0.29024 0.0
C356 C 0.76466 0.25832 0.29978 0.0
C357 C 0.72257 0.26545 0.29793 0.0
C358 C 0.7011 0.29216 0.30549 0.0
C359 C 0.72143 0.3119 0.31502 0.0
C360 C 0.76222 0.30068 0.31761 0.0
C361 C 0.78367 0.27395 0.31003 0.0
C362 C 0.79861 0.17446 0.29772 0.0
C363 C 0.75848 0.15829 0.29877 0.0
C364 C 0.75086 0.12439 0.30583 0.0
C365 C 0.78332 0.10588 0.3119 0.0
C366 C 0.82322 0.12309 0.31116 0.0
C367 C 0.83074 0.15727 0.30419 0.0
C368 C 0.93593 0.17434 0.22921 0.0
C369 C 0.7241 0.43458 0.2881 0.0
H370 H 0.71848 0.86987 0.70106 0.0
H371 H 0.7768 0.54529 0.79511 0.0
H372 H 0.86402 0.87748 0.74973 0.0
H373 H 0.85461 0.94585 0.74155 0.0
H374 H 0.76968 0.9764 0.76967 0.0
H375 H 0.77887 0.90762 0.77768 0.0
H376 H 0.8191 0.7981 0.73786 0.0
H377 H 0.78457 0.82188 0.72017 0.0
H378 H 0.69463 0.88514 0.74195 0.0
H379 H 0.72916 0.86068 0.75955 0.0
H380 H 0.82094 0.71709 0.74745 0.0
H381 H 0.78036 0.659 0.73937 0.0
H382 H 0.6739 0.70165 0.75898 0.0
H383 H 0.71445 0.76064 0.76654 0.0
H384 H 0.87634 0.70298 0.77063 0.0
H385 H 0.87456 0.63046 0.7762 0.0
H386 H 0.75263 0.64759 0.7909 0.0
H387 H 0.75503 0.72009 0.78536 0.0
H388 H 0.9191 0.77204 0.78526 0.0
H389 H 0.94728 0.73725 0.80234 0.0
H390 H 0.82759 0.74233 0.8191 0.0
H391 H 0.79968 0.77625 0.80191 0.0
H392 H 0.91459 0.87036 0.77564 0.0
H393 H 0.94714 0.92001 0.78956 0.0
H394 H 0.84038 0.91102 0.81224 0.0
H395 H 0.80871 0.86133 0.79843 0.0
O396 O 0.73133 0.86034 0.70816 0.0
O397 O 0.68593 0.89237 0.71975 0.0
O398 O 0.84123 0.56674 0.78524 0.0
O399 O 0.77836 0.57384 0.79283 0.0
C400 C 0.82094 0.84385 0.76765 0.0
C401 C 0.79865 0.81464 0.76064 0.0
C402 C 0.79649 0.77316 0.76402 0.0
C403 C 0.81716 0.76052 0.77418 0.0
C404 C 0.83856 0.78976 0.78129 0.0
C405 C 0.84019 0.83145 0.77809 0.0
C406 C 0.82201 0.88768 0.76425 0.0
C407 C 0.84432 0.89941 0.75429 0.0
C408 C 0.83904 0.93851 0.74968 0.0
C409 C 0.8112 0.96635 0.75494 0.0
C410 C 0.79107 0.95542 0.76539 0.0
C411 C 0.79648 0.91635 0.77002 0.0
C412 C 0.77663 0.82773 0.74995 0.0
C413 C 0.79174 0.81682 0.73877 0.0
C414 C 0.77204 0.83058 0.72869 0.0
C415 C 0.73689 0.85552 0.72964 0.0
C416 C 0.72165 0.86604 0.7409 0.0
C417 C 0.7413 0.85214 0.75096 0.0
C418 C 0.77041 0.74292 0.75748 0.0
C419 C 0.78856 0.71435 0.74971 0.0
C420 C 0.76548 0.6809 0.74529 0.0
C421 C 0.72408 0.67523 0.74873 0.0
C422 C 0.70557 0.70518 0.7561 0.0
C423 C 0.72859 0.73891 0.76041 0.0
C424 C 0.81574 0.71656 0.77755 0.0
C425 C 0.84931 0.69093 0.77505 0.0
C426 C 0.84819 0.64957 0.77824 0.0
C427 C 0.81339 0.6332 0.78398 0.0
C428 C 0.77984 0.65915 0.78648 0.0
C429 C 0.78107 0.70052 0.7833 0.0
C430 C 0.85743 0.77639 0.79239 0.0
C431 C 0.89936 0.7665 0.79277 0.0
C432 C 0.91535 0.74675 0.80253 0.0
C433 C 0.8895 0.73667 0.812 0.0
C434 C 0.84808 0.74912 0.81185 0.0
C435 C 0.83217 0.76872 0.8021 0.0
C436 C 0.85955 0.86232 0.78612 0.0
C437 C 0.89844 0.87929 0.78363 0.0
C438 C 0.91684 0.90754 0.79155 0.0
C439 C 0.89648 0.91895 0.80204 0.0
C440 C 0.85724 0.9021 0.80437 0.0
C441 C 0.83896 0.87401 0.79647 0.0
C442 C 0.71639 0.87057 0.71892 0.0
C443 C 0.812 0.58926 0.78737 0.0
H444 H 0.50168 0.46795 0.95163 0.0
H445 H 0.78678 0.54908 0.05803 0.0
H446 H 0.45828 0.58754 0.00488 0.0
H447 H 0.39229 0.57227 0.99524 0.0
H448 H 0.36834 0.47584 0.02002 0.0
H449 H 0.43514 0.49061 0.02939 0.0
H450 H 0.5461 0.56452 0.99399 0.0
H451 H 0.53279 0.53362 0.97449 0.0
H452 H 0.47874 0.42638 0.99068 0.0
H453 H 0.49271 0.45742 0.01012 0.0
H454 H 0.62726 0.58456 0.00905 0.0
H455 H 0.68916 0.56091 -0.0012 0.0
H456 H 0.64959 0.43422 0.00321 0.0
H457 H 0.58899 0.45839 0.01408 0.0
H458 H 0.62255 0.62587 0.03122 0.0
H459 H 0.69215 0.63549 0.03924 0.0
H460 H 0.69427 0.50647 0.04806 0.0
H461 H 0.62447 0.4974 0.04006 0.0
H462 H 0.54743 0.64976 0.04322 0.0
H463 H 0.59249 0.67966 0.05844 0.0
H464 H 0.60505 0.55934 0.07351 0.0
H465 H 0.56067 0.52966 0.05806 0.0
H466 H 0.44667 0.62481 0.03106 0.0
H467 H 0.38233 0.63582 0.04194 0.0
H468 H 0.41104 0.53309 0.06394 0.0
H469 H 0.47546 0.52278 0.0531 0.0
O470 O 0.50694 0.47947 0.95943 0.0
O471 O 0.47933 0.42511 0.96819 0.0
O472 O 0.75866 0.61075 0.04869 0.0
O473 O 0.75949 0.54592 0.05464 0.0
C474 C 0.49415 0.54522 0.02236 0.0
C475 C 0.52776 0.53243 0.01527 0.0
C476 C 0.56844 0.53762 0.01948 0.0
C477 C 0.57558 0.55574 0.03069 0.0
C478 C 0.542 0.56803 0.03785 0.0
C479 C 0.50124 0.56255 0.03373 0.0
C480 C 0.45152 0.53999 0.01776 0.0
C481 C 0.43841 0.5636 0.00834 0.0
C482 C 0.40057 0.55502 0.0029 0.0
C483 C 0.37517 0.52269 0.00683 0.0
C484 C 0.38747 0.5006 0.01671 0.0
C485 C 0.42541 0.50916 0.02212 0.0
C486 C 0.5203 0.51324 0.00345 0.0
C487 C 0.53159 0.53427 0.9933 0.0
C488 C 0.52384 0.51659 0.98217 0.0
C489 C 0.50462 0.47755 0.98102 0.0
C490 C 0.49354 0.45651 0.99125 0.0
C491 C 0.50141 0.47418 0.00236 0.0
C492 C 0.60386 0.52316 0.01233 0.0
C493 C 0.6321 0.55172 0.0078 0.0
C494 C 0.66727 0.5381 0.00188 0.0
C495 C 0.67446 0.49562 0.00022 0.0
C496 C 0.64544 0.46712 0.00454 0.0
C497 C 0.61054 0.48081 0.0106 0.0
C498 C 0.61853 0.56101 0.03511 0.0
C499 C 0.63817 0.59974 0.03487 0.0
C500 C 0.67791 0.60511 0.03944 0.0
C501 C 0.69877 0.57172 0.04429 0.0
C502 C 0.67907 0.53282 0.0444 0.0
C503 C 0.6393 0.5275 0.03981 0.0
C504 C 0.55111 0.58754 0.04949 0.0
C505 C 0.55803 0.63031 0.05019 0.0
C506 C 0.58414 0.64728 0.05887 0.0
C507 C 0.60334 0.6216 0.06697 0.0
C508 C 0.59156 0.57971 0.0672 0.0
C509 C 0.56558 0.56279 0.05851 0.0
C510 C 0.46574 0.5732 0.04136 0.0
C511 C 0.4393 0.60521 0.03836 0.0
C512 C 0.40239 0.61109 0.04449 0.0
C513 C 0.3914 0.58505 0.05372 0.0
C514 C 0.41876 0.55388 0.05694 0.0
C515 C 0.45564 0.54803 0.0508 0.0
C516 C 0.49615 0.459 0.96919 0.0
C517 C 0.74077 0.57745 0.04931 0.0
H518 H 0.10007 0.39125 0.59748 0.0
H519 H 0.35142 0.6402 0.50227 0.0
H520 H 0.02706 0.47702 0.53764 0.0
H521 H 0.97276 0.45582 0.55128 0.0
H522 H 0.99381 0.56736 0.57213 0.0
H523 H 0.04778 0.58844 0.55837 0.0
H524 H 0.09325 0.44911 0.54923 0.0
H525 H 0.09174 0.41397 0.56802 0.0
H526 H 0.14167 0.52391 0.58534 0.0
H527 H 0.14245 0.55885 0.56649 0.0
H528 H 0.17094 0.45437 0.53847 0.0
H529 H 0.23225 0.42006 0.5456 0.0
H530 H 0.28649 0.539 0.55505 0.0
H531 H 0.22365 0.5728 0.54854 0.0
H532 H 0.19921 0.50767 0.51478 0.0
H533 H 0.26361 0.52296 0.50437 0.0
H534 H 0.26312 0.64713 0.51922 0.0
H535 H 0.19902 0.63127 0.52965 0.0
H536 H 0.12138 0.5397 0.50229 0.0
H537 H 0.15084 0.57357 0.48525 0.0
H538 H 0.14888 0.69055 0.50433 0.0
H539 H 0.12012 0.65604 0.52144 0.0
H540 H 0.03249 0.50925 0.5176 0.0
H541 H 0.97282 0.52387 0.50537 0.0
H542 H 0.98137 0.65274 0.51598 0.0
H543 H 0.04131 0.6376 0.52829 0.0
O544 O 0.10107 0.40568 0.59014 0.0
O545 O 0.12743 0.46273 0.59859 0.0
O546 O 0.32379 0.56976 0.49837 0.0
O547 O 0.32573 0.6334 0.50616 0.0
C548 C 0.07979 0.5423 0.54051 0.0
C549 C 0.11728 0.52842 0.54522 0.0
C550 C 0.15465 0.53577 0.53924 0.0
C551 C 0.15504 0.55942 0.52904 0.0
C552 C 0.11756 0.57321 0.5243 0.0
C553 C 0.07985 0.56366 0.52986 0.0
C554 C 0.04096 0.53444 0.54697 0.0
C555 C 0.01888 0.49753 0.54492 0.0
C556 C 0.98835 0.48521 0.5528 0.0
C557 C 0.9794 0.50974 0.56283 0.0
C558 C -0.00017 0.54798 0.56444 0.0
C559 C 0.03051 0.56015 0.55658 0.0
C560 C 0.11756 0.50661 0.55655 0.0
C561 C 0.10362 0.46559 0.55711 0.0
C562 C 0.10292 0.44557 0.56785 0.0
C563 C 0.11646 0.46617 0.5782 0.0
C564 C 0.13093 0.50718 0.57754 0.0
C565 C 0.13148 0.52719 0.5668 0.0
C566 C 0.19281 0.5159 0.54317 0.0
C567 C 0.19607 0.47291 0.54214 0.0
C568 C 0.23138 0.45346 0.54604 0.0
C569 C 0.26431 0.47681 0.55088 0.0
C570 C 0.26142 0.52012 0.55151 0.0
C571 C 0.22574 0.53951 0.54776 0.0
C572 C 0.19463 0.56836 0.52297 0.0
C573 C 0.21325 0.53806 0.51581 0.0
C574 C 0.24991 0.54693 0.50985 0.0
C575 C 0.26854 0.58629 0.51098 0.0
C576 C 0.24967 0.61651 0.51818 0.0
C577 C 0.21308 0.60757 0.52414 0.0
C578 C 0.1189 0.59542 0.51309 0.0
C579 C 0.12539 0.57295 0.50257 0.0
C580 C 0.14234 0.59241 0.49285 0.0
C581 C 0.15294 0.63462 0.49354 0.0
C582 C 0.14164 0.65787 0.50362 0.0
C583 C 0.12473 0.63834 0.51335 0.0
C584 C 0.04078 0.57234 0.52387 0.0
C585 C 0.02075 0.54042 0.51753 0.0
C586 C 0.98673 0.54883 0.51056 0.0
C587 C 0.97252 0.58944 0.50974 0.0
C588 C 0.99193 0.62122 0.51641 0.0
C589 C 0.02589 0.61267 0.52346 0.0
C590 C 0.11541 0.44491 0.5896 0.0
C591 C 0.30762 0.59583 0.50475 0.0
C592 C 0.1221 0.71072 0.16466 0.0
C593 C 0.96941 0.65609 0.16262 0.0
C594 C 0.96052 0.73643 0.13296 0.0
Mg595 Mg 0.16152 0.79678 0.15665 0.0
Mg596 Mg 0.10744 0.88091 0.15276 0.0
O597 O 0.11299 0.82454 0.14943 0.0
Mg598 Mg 0.06914 0.78399 0.15379 0.0
O599 O 0.02887 0.73982 0.15793 0.0
Mg600 Mg 0.04555 0.69636 0.14605 0.0
Mg601 Mg 0.97271 0.75109 0.15925 0.0
C602 C 0.02037 0.86074 0.14129 0.0
O603 O 0.04584 0.82079 0.17008 0.0
O604 O 0.20222 0.84593 0.14731 0.0
O605 O 0.97828 0.80355 0.17139 0.0
O606 O 0.15951 0.83824 0.17375 0.0
O607 O 0.16259 0.90089 0.14392 0.0
O608 O 0.11504 0.8893 0.17118 0.0
O609 O 0.08984 0.74461 0.13801 0.0
O610 O 0.15809 0.75517 0.14014 0.0
C611 C 0.12726 0.7376 0.13487 0.0
C612 C 0.19694 0.88183 0.14301 0.0
O613 O 0.0239 0.8218 0.14289 0.0
O614 O 0.00108 0.65225 0.15588 0.0
O615 O 0.04689 0.88766 0.14507 0.0
O616 O 0.99155 0.71218 0.13321 0.0
O617 O 0.95363 0.69128 0.16519 0.0
O618 O 0.95025 0.75854 0.14189 0.0
O619 O 0.11605 0.74968 0.16434 0.0
O620 O 0.09866 0.68488 0.159 0.0
C621 C 0.13977 0.86976 0.17766 0.0
C622 C 0.01005 0.82459 0.17486 0.0
C623 C 0.62673 0.82606 0.41846 0.0
C624 C 0.67744 0.67533 0.42072 0.0
C625 C 0.61869 0.65918 0.38691 0.0
Mg626 Mg 0.54717 0.86311 0.40527 0.0
Mg627 Mg 0.46716 0.80489 0.39651 0.0
O628 O 0.52458 0.81297 0.39664 0.0
Mg629 Mg 0.56084 0.77133 0.40366 0.0
O630 O 0.60029 0.7325 0.41062 0.0
Mg631 Mg 0.65051 0.7474 0.40121 0.0
Mg632 Mg 0.58746 0.67647 0.41194 0.0
C633 C 0.49507 0.71716 0.38695 0.0
O634 O 0.51208 0.749 0.41707 0.0
O635 O 0.50481 0.90036 0.393 0.0
O636 O 0.52635 0.68179 0.41962 0.0
O637 O 0.49519 0.86253 0.41926 0.0
O638 O 0.45359 0.85819 0.38644 0.0
O639 O 0.44602 0.81683 0.41403 0.0
O640 O 0.61018 0.79078 0.39036 0.0
O641 O 0.5988 0.85896 0.39176 0.0
C642 C 0.61943 0.82814 0.38773 0.0
C643 C 0.47245 0.89321 0.38668 0.0
O644 O 0.5317 0.72366 0.39093 0.0
O645 O 0.68601 0.70472 0.4137 0.0
O646 O 0.46527 0.74232 0.38884 0.0
O647 O 0.64144 0.69178 0.38777 0.0
O648 O 0.64093 0.66023 0.42176 0.0
O649 O 0.59323 0.6494 0.39494 0.0
O650 O 0.58822 0.82053 0.41615 0.0
O651 O 0.65459 0.80187 0.41433 0.0
C652 C 0.46122 0.84346 0.42131 0.0
C653 C 0.50333 0.71341 0.42124 0.0
C654 C 0.6076 0.18586 0.66949 0.0
C655 C 0.45827 0.12728 0.66053 0.0
C656 C 0.47091 0.19633 0.62886 0.0
Mg657 Mg 0.65166 0.26947 0.66041 0.0
Mg658 Mg 0.59858 0.34817 0.65078 0.0
O659 O 0.60843 0.29166 0.64976 0.0
Mg660 Mg 0.56284 0.25236 0.6535 0.0
O661 O 0.52028 0.20965 0.6571 0.0
Mg662 Mg 0.5447 0.16299 0.64761 0.0
Mg663 Mg 0.46406 0.22052 0.65496 0.0
C664 C 0.52365 0.31919 0.63506 0.0
O665 O 0.52951 0.29438 0.66699 0.0
O666 O 0.69695 0.31656 0.65166 0.0
O667 O 0.46184 0.2771 0.66581 0.0
O668 O 0.63638 0.3175 0.67553 0.0
O669 O 0.65843 0.36894 0.64535 0.0
O670 O 0.58985 0.36147 0.66879 0.0
O671 O 0.5936 0.20828 0.64084 0.0
O672 O 0.65991 0.22083 0.64547 0.0
C673 C 0.63208 0.20045 0.63962 0.0
C674 C 0.6933 0.35131 0.64654 0.0
O675 O 0.52576 0.28236 0.6389 0.0
O676 O 0.49386 0.12218 0.65576 0.0
O677 O 0.54636 0.34911 0.63902 0.0
O678 O 0.50158 0.17382 0.63158 0.0
O679 O 0.44118 0.16271 0.66145 0.0
O680 O 0.45366 0.22029 0.63641 0.0
O681 O 0.60248 0.22421 0.66742 0.0
O682 O 0.58774 0.15752 0.66364 0.0
C683 C 0.6109 0.34713 0.67716 0.0
C684 C 0.49167 0.29942 0.67 0.0
C685 C 0.14186 0.31713 0.91979 0.0
C686 C 0.17072 0.16093 0.91962 0.0
C687 C 0.11683 0.15961 0.88496 0.0
Mg688 Mg 0.07334 0.36934 0.90676 0.0
Mg689 Mg 0.98617 0.32844 0.89663 0.0
O690 O 0.04387 0.32636 0.89662 0.0
Mg691 Mg 0.07138 0.27666 0.90293 0.0
O692 O 0.1032 0.23015 0.90939 0.0
Mg693 Mg 0.15724 0.24006 0.9012 0.0
Mg694 Mg 0.0833 0.17594 0.90998 0.0
C695 C 0.00015 0.24055 0.88459 0.0
O696 O 0.01712 0.25848 0.91498 0.0
O697 O 0.0398 0.41787 0.8956 0.0
O698 O 0.02278 0.18962 0.91734 0.0
O699 O 0.0213 0.37282 0.92062 0.0
O700 O 0.9813 0.38796 0.88874 0.0
O701 O 0.96793 0.3333 0.91471 0.0
O702 O 0.12545 0.29117 0.89073 0.0
O703 O 0.12496 0.36011 0.89335 0.0
C704 C 0.14074 0.32717 0.88881 0.0
C705 C 0.00628 0.4189 0.88957 0.0
O706 O 0.03629 0.23797 0.88913 0.0
O707 O 0.18403 0.18996 0.91307 0.0
O708 O 0.97587 0.27097 0.88664 0.0
O709 O 0.14323 0.18892 0.88677 0.0
O710 O 0.13237 0.15114 0.92029 0.0
O711 O 0.08896 0.15123 0.89249 0.0
O712 O 0.10394 0.31717 0.9166 0.0
O713 O 0.16714 0.29042 0.91555 0.0
C714 C 0.98619 0.35584 0.9225 0.0
C715 C 0.00352 0.22382 0.91875 0.0
H716 H 0.23286 0.01243 0.50353 0.0
H717 H 0.2932 0.99373 0.49148 0.0
H718 H 0.21715 0.91014 0.47058 0.0
H719 H 0.15696 0.92884 0.48242 0.0
H720 H 0.32421 0.90675 0.48674 0.0
H721 H 0.27647 0.99061 0.44707 0.0
H722 H 0.25726 0.00332 0.46163 0.0
H723 H 0.23658 0.95948 0.45353 0.0
C724 C 0.22908 0.99036 0.49629 0.0
C725 C 0.19032 0.97208 0.49388 0.0
C726 C 0.26349 0.97956 0.4895 0.0
C727 C 0.25934 0.95081 0.48015 0.0
C728 C 0.22074 0.93261 0.47773 0.0
H729 H 0.38264 0.81928 0.42662 0.0
H730 H 0.33875 0.84675 0.44231 0.0
C731 C 0.18652 0.94314 0.48453 0.0
C732 C 0.29504 0.93935 0.47279 0.0
H733 H 0.3284 0.93966 0.44437 0.0
C734 C 0.32575 0.91451 0.47753 0.0
C735 C 0.29669 0.9497 0.46081 0.0
C736 C 0.26521 0.97755 0.45545 0.0
C737 C 0.35701 0.89781 0.47036 0.0
C738 C 0.35735 0.90658 0.45827 0.0
C739 C 0.32774 0.93293 0.45367 0.0
C740 C 0.38609 0.88644 0.44996 0.0
C741 C 0.38822 0.86932 0.47554 0.0
C742 C 0.4274 0.89937 0.44927 0.0
C743 C 0.45268 0.88393 0.44025 0.0
C744 C 0.43684 0.85541 0.43182 0.0
C745 C 0.39588 0.84121 0.43294 0.0
C746 C 0.37072 0.85677 0.44189 0.0
H747 H 0.3822 0.86363 0.48499 0.0
H748 H 0.38789 0.8393 0.47061 0.0
H749 H 0.4196 0.88298 0.47467 0.0
H750 H 0.43956 0.92256 0.4554 0.0
H751 H 0.48411 0.89543 0.43965 0.0
H752 H 0.34286 0.81724 0.72317 0.0
H753 H 0.35518 0.86047 0.70615 0.0
H754 H 0.37895 0.96543 0.7293 0.0
H755 H 0.36595 0.92273 0.74638 0.0
H756 H 0.31673 0.9402 0.69982 0.0
H757 H 0.48547 0.94839 0.70847 0.0
H758 H 0.45219 0.90958 0.71472 0.0
H759 H 0.45336 0.96113 0.7209 0.0
C760 C 0.35001 0.84969 0.72464 0.0
C761 C 0.35368 0.86661 0.73611 0.0
C762 C 0.35715 0.87421 0.71491 0.0
C763 C 0.3683 0.91582 0.71654 0.0
C764 C 0.37082 0.93314 0.72794 0.0
H765 H 0.38997 0.12729 0.67468 0.0
H766 H 0.36407 0.0704 0.68632 0.0
C767 C 0.36359 0.90872 0.73766 0.0
C768 C 0.37909 0.94096 0.70637 0.0
H769 H 0.45928 0.99396 0.69434 0.0
C770 C 0.34792 0.95171 0.69851 0.0
C771 C 0.41995 0.9551 0.70464 0.0
C772 C 0.45483 0.94273 0.71255 0.0
C773 C 0.35636 0.978 0.68917 0.0
C774 C 0.39682 0.99398 0.68782 0.0
C775 C 0.42824 0.9817 0.69542 0.0
C776 C 0.40715 0.02574 0.6792 0.0
C777 C 0.32196 0.98866 0.68089 0.0
C778 C 0.43968 0.01933 0.67126 0.0
C779 C 0.45495 0.05192 0.6647 0.0
C780 C 0.438 0.09152 0.66601 0.0
C781 C 0.40376 0.0972 0.67346 0.0
C782 C 0.38864 0.0646 0.68006 0.0
H783 H 0.29727 0.96456 0.68077 0.0
H784 H 0.30796 0.01818 0.68389 0.0
H785 H 0.33363 0.99245 0.6718 0.0
H786 H 0.45443 0.98954 0.67052 0.0
H787 H 0.48112 0.0464 0.65896 0.0
H788 H 0.46778 0.03862 0.98428 0.0
H789 H 0.41252 0.04319 0.96976 0.0
H790 H 0.34302 0.12021 0.99387 0.0
H791 H 0.39832 0.11594 0.00845 0.0
H792 H 0.32607 0.0259 0.96979 0.0
H793 H 0.3633 0.19256 0.9651 0.0
H794 H 0.3966 0.15803 0.97276 0.0
H795 H 0.35104 0.17783 0.97982 0.0
C796 C 0.44033 0.05581 0.98658 0.0
C797 C 0.43743 0.07729 -0.00256 0.0
C798 C 0.40888 0.05842 0.97828 0.0
C799 C 0.37414 0.08253 0.98071 0.0
C800 C 0.37003 0.10203 0.99179 0.0
H801 H 0.1543 0.11419 0.93882 0.0
H802 H 0.20408 0.08964 0.9531 0.0
C803 C 0.40157 0.09963 8e-05 0.0
C804 C 0.34398 0.09001 0.97132 0.0
H805 H 0.30567 0.16632 0.95455 0.0
C806 C 0.32148 0.05654 0.96642 0.0
C807 C 0.33885 0.12993 0.96684 0.0
C808 C 0.36396 0.16663 0.9713 0.0
C809 C 0.29335 0.06213 0.95723 0.0
C810 C 0.28744 0.10227 0.953 0.0
C811 C 0.31025 0.13558 0.95784 0.0
C812 C 0.25772 0.11109 0.94358 0.0
C813 C 0.27083 0.02506 0.952 0.0
C814 C 0.27145 0.13098 0.93346 0.0
C815 C 0.24314 0.14556 0.92539 0.0
C816 C 0.20054 0.14043 0.92728 0.0
C817 C 0.18692 0.1185 0.9371 0.0
C818 C 0.21533 0.10422 0.94524 0.0
H819 H 0.28678 0.99585 0.95395 0.0
H820 H 0.23934 0.02338 0.95581 0.0
H821 H 0.26782 0.02747 0.94231 0.0
H822 H 0.30409 0.13658 0.93204 0.0
H823 H 0.25465 0.16199 0.91786 0.0
H824 H 0.20762 0.15237 0.24366 0.0
H825 H 0.18038 0.08696 0.23579 0.0
H826 H 0.27673 0.02171 0.2534 0.0
H827 H 0.30402 0.08726 0.26148 0.0
H828 H 0.27355 0.00524 0.22972 0.0
H829 H 0.11732 0.98824 0.24854 0.0
H830 H 0.12553 0.03868 0.24278 0.0
H831 H 0.15604 0.02238 0.25502 0.0
C832 C 0.22233 0.12407 0.24617 0.0
C833 C 0.25811 0.12506 0.25316 0.0
C834 C 0.2066 0.08662 0.24169 0.0
C835 C 0.22615 0.0494 0.24416 0.0
C836 C 0.26101 0.05008 0.25147 0.0
H837 H 0.18769 0.83677 0.19501 0.0
H838 H 0.20764 0.87024 0.21379 0.0
C839 C 0.27674 0.08757 0.25599 0.0
C840 C 0.2136 0.01109 0.2377 0.0
H841 H 0.12863 0.95431 0.22953 0.0
C842 C 0.24217 0.99322 0.22988 0.0
C843 C 0.17271 0.99548 0.23798 0.0
C844 C 0.14128 0.01196 0.24663 0.0
C845 C 0.23002 0.96279 0.22157 0.0
C846 C 0.18832 0.94929 0.22129 0.0
C847 C 0.16054 0.96482 0.22974 0.0
C848 C 0.17165 0.92508 0.21112 0.0
C849 C 0.26109 0.94794 0.21256 0.0
C850 C 0.14331 0.94391 0.20373 0.0
C851 C 0.13133 0.92472 0.19318 0.0
C852 C 0.14802 0.88648 0.18967 0.0
C853 C 0.17472 0.86649 0.19739 0.0
C854 C 0.18625 0.88559 0.20809 0.0
H855 H 0.29045 0.96597 0.21302 0.0
H856 H 0.26827 0.91512 0.21409 0.0
H857 H 0.24832 0.95007 0.20354 0.0
H858 H 0.13184 0.97447 0.20587 0.0
H859 H 0.11036 0.94091 0.18755 0.0
H860 H 0.25006 0.04765 0.54264 0.0
H861 H 0.31291 0.07228 0.55272 0.0
H862 H 0.24067 0.1567 0.57391 0.0
H863 H 0.17788 0.13199 0.56408 0.0
H864 H 0.31761 0.19079 0.56455 0.0
H865 H 0.33667 0.04202 0.58742 0.0
H866 H 0.33215 0.03965 0.57165 0.0
H867 H 0.28885 0.0555 0.58044 0.0
C868 C 0.24757 0.07141 0.54946 0.0
C869 C 0.20889 0.08773 0.55257 0.0
C870 C 0.2835 0.08556 0.55516 0.0
C871 C 0.28132 0.11613 0.56409 0.0
C872 C 0.243 0.13325 0.56699 0.0
H873 H 0.40344 0.23583 0.62041 0.0
H874 H 0.36524 0.21913 0.60251 0.0
C875 C 0.20714 0.11913 0.56133 0.0
C876 C 0.31828 0.12885 0.57098 0.0
H877 H 0.38186 0.09612 0.59264 0.0
C878 C 0.33216 0.16999 0.57058 0.0
C879 C 0.33728 0.10156 0.57877 0.0
C880 C 0.323 0.05725 0.57971 0.0
C881 C 0.36373 0.18494 0.57806 0.0
C882 C 0.38109 0.15823 0.58633 0.0
C883 C 0.36861 0.11658 0.58629 0.0
C884 C 0.40845 0.17345 0.596 0.0
C885 C 0.37759 0.22935 0.57718 0.0
C886 C 0.44576 0.15359 0.59833 0.0
C887 C 0.46754 0.1627 0.60871 0.0
C888 C 0.45219 0.19164 0.61699 0.0
C889 C 0.41611 0.21319 0.61428 0.0
C890 C 0.39437 0.20401 0.60394 0.0
H891 H 0.37299 0.2408 0.56815 0.0
H892 H 0.35877 0.24869 0.58325 0.0
H893 H 0.41058 0.23348 0.57963 0.0
H894 H 0.45712 0.12979 0.59235 0.0
H895 H 0.49534 0.14568 0.61048 0.0
H896 H 0.17789 0.81308 0.83128 0.0
H897 H 0.14698 0.8759 0.83976 0.0
H898 H 0.25759 0.94487 0.83168 0.0
H899 H 0.28831 0.88269 0.82307 0.0
H900 H 0.17717 0.92477 0.85851 0.0
H901 H 0.16586 0.01577 0.81807 0.0
H902 H 0.17523 0.96091 0.81772 0.0
H903 H 0.21679 0.9969 0.82071 0.0
C904 C 0.19554 0.84167 0.83131 0.0
C905 C 0.23566 0.84282 0.8266 0.0
C906 C 0.17785 0.8775 0.83613 0.0
C907 C 0.19973 0.91517 0.83616 0.0
C908 C 0.23986 0.91632 0.83155 0.0
H909 H 0.18171 0.15463 0.86941 0.0
H910 H 0.19713 0.09642 0.85604 0.0
C911 C 0.25763 0.88055 0.82681 0.0
C912 C 0.18165 0.95287 0.84162 0.0
H913 H 0.15717 0.05311 0.83637 0.0
C914 C 0.17229 0.95267 0.85365 0.0
C915 C 0.17546 0.98925 0.83524 0.0
C916 C 0.18347 0.99072 0.82219 0.0
C917 C 0.15838 0.98831 0.85959 0.0
C918 C 0.15283 0.02494 0.85327 0.0
C919 C 0.16142 0.02499 0.84118 0.0
C920 C 0.13985 0.06371 0.85931 0.0
C921 C 0.15124 0.98682 0.8727 0.0
C922 C 0.10164 0.06559 0.86506 0.0
C923 C 0.09301 0.09842 0.87281 0.0
C924 C 0.12206 0.13048 0.8748 0.0
C925 C 0.15867 0.13045 0.86814 0.0
C926 C 0.16754 0.0972 0.86048 0.0
H927 H 0.16559 0.95936 0.8766 0.0
H928 H 0.16389 0.01499 0.87722 0.0
H929 H 0.11758 0.98528 0.87445 0.0
H930 H 0.0795 0.04042 0.8641 0.0
H931 H 0.06463 0.09727 0.8778 0.0
H932 H 0.49891 0.96469 0.07383 0.0
H933 H 0.44974 0.94106 0.08855 0.0
H934 H 0.36227 0.03133 0.07733 0.0
H935 H 0.41051 0.05387 0.06218 0.0
H936 H 0.41632 0.98432 0.10705 0.0
H937 H 0.29269 0.92669 0.07694 0.0
H938 H 0.34401 0.93909 0.07186 0.0
H939 H 0.30731 0.97944 0.07462 0.0
C940 C 0.46888 0.97895 0.0743 0.0
C941 C 0.4585 0.01091 0.06673 0.0
C942 C 0.44098 0.96568 0.08281 0.0
C943 C 0.40216 0.98404 0.08393 0.0
C944 C 0.39176 0.01616 0.07646 0.0
H945 H 0.19484 0.95365 0.13089 0.0
H946 H 0.24664 0.97995 0.11732 0.0
C947 C 0.41956 0.02932 0.0679 0.0
C948 C 0.37302 0.97021 0.09311 0.0
H949 H 0.27604 0.931 0.09728 0.0
C950 C 0.38571 0.97247 0.10492 0.0
C951 C 0.33316 0.95467 0.09029 0.0
C952 C 0.31856 0.94941 0.07774 0.0
C953 C 0.3593 0.96024 0.11401 0.0
C954 C 0.31937 0.94517 0.11118 0.0
C955 C 0.30668 0.94284 0.09939 0.0
C956 C 0.29017 0.93124 0.12029 0.0
C957 C 0.37392 0.96409 0.12658 0.0
C958 C 0.29783 0.89538 0.12654 0.0
C959 C 0.26821 0.88008 0.1343 0.0
C960 C 0.23039 0.9004 0.13591 0.0
C961 C 0.22355 0.93715 0.12989 0.0
C962 C 0.25308 0.95226 0.12211 0.0
H963 H 0.40209 0.9838 0.12745 0.0
H964 H 0.34937 0.97725 0.13231 0.0
H965 H 0.38124 0.93298 0.1298 0.0
H966 H 0.32612 0.87848 0.12513 0.0
H967 H 0.2745 0.8517 0.13876 0.0
H968 H 0.40146 0.11262 0.29791 0.0
H969 H 0.41433 0.06278 0.31328 0.0
H970 H 0.36106 0.14614 0.33913 0.0
H971 H 0.34741 0.19568 0.32375 0.0
H972 H 0.46332 0.07408 0.33221 0.0
H973 H 0.3035 0.03863 0.34663 0.0
H974 H 0.31466 0.06524 0.33322 0.0
H975 H 0.31596 0.09275 0.34716 0.0
C976 C 0.3922 0.12005 0.30686 0.0
C977 C 0.37334 0.15781 0.30967 0.0
C978 C 0.39947 0.09162 0.31561 0.0
C979 C 0.38817 0.10057 0.32731 0.0
C980 C 0.36907 0.13818 0.33011 0.0
H981 H 0.49693 0.97443 0.38641 0.0
H982 H 0.47503 0.02683 0.3727 0.0
C983 C 0.3614 0.16646 0.32134 0.0
C984 C 0.39871 0.07155 0.33663 0.0
H985 H 0.35774 0.01384 0.35855 0.0
C986 C 0.44024 0.0608 0.33795 0.0
C987 C 0.36845 0.05414 0.34404 0.0
C988 C 0.3231 0.06293 0.34264 0.0
C989 C 0.45242 0.03297 0.34648 0.0
C990 C 0.42232 0.01638 0.35409 0.0
C991 C 0.38076 0.02709 0.35278 0.0
C992 C 0.43312 0.98604 0.36304 0.0
C993 C 0.49719 0.02072 0.347 0.0
C994 C 0.41542 0.94638 0.36245 0.0
C995 C 0.42742 0.91656 0.37035 0.0
C996 C 0.45748 0.92586 0.37896 0.0
C997 C 0.47409 0.96612 0.37979 0.0
C998 C 0.46177 0.99604 0.37194 0.0
H999 H 0.51386 0.02788 0.33875 0.0
H1000 H 0.5126 0.03811 0.35433 0.0
H1001 H 0.50013 0.98723 0.34862 0.0
H1002 H 0.39311 0.93815 0.35567 0.0
H1003 H 0.41388 0.88592 0.36947 0.0
H1004 H 0.87391 0.00762 0.58458 0.0
H1005 H 0.81424 0.01795 0.59732 0.0
H1006 H 0.7337 0.01053 0.56709 0.0
H1007 H 0.79385 0.00149 0.55426 0.0
H1008 H 0.7232 0.07924 0.57854 0.0
H1009 H 0.71956 0.95773 0.61137 0.0
H1010 H 0.77084 0.97867 0.61071 0.0
H1011 H 0.74901 0.95249 0.59793 0.0
C1012 C 0.84336 0.00686 0.58071 0.0
C1013 C 0.83833 0.00417 0.56848 0.0
C1014 C 0.80916 0.01236 0.58801 0.0
C1015 C 0.76932 0.01442 0.58319 0.0
C1016 C 0.7641 0.00879 0.571 0.0
H1017 H 0.58412 0.15606 0.62387 0.0
H1018 H 0.60677 0.10203 0.60994 0.0
C1019 C 0.79838 0.00387 0.56369 0.0
C1020 C 0.73512 0.03038 0.59057 0.0
H1021 H 0.69681 0.0268 0.61847 0.0
C1022 C 0.71621 0.06691 0.5871 0.0
C1023 C 0.72577 0.01423 0.60171 0.0
C1024 C 0.74212 0.97334 0.60555 0.0
C1025 C 0.69174 0.08996 0.59493 0.0
C1026 C 0.686 0.0759 0.60647 0.0
C1027 C 0.70173 0.03759 0.60961 0.0
C1028 C 0.67027 0.10386 0.61579 0.0
C1029 C 0.67523 0.13096 0.59116 0.0
C1030 C 0.69843 0.12193 0.62377 0.0
C1031 C 0.68581 0.15285 0.63165 0.0
C1032 C 0.64468 0.16609 0.63171 0.0
C1033 C 0.61608 0.14667 0.624 0.0
C1034 C 0.62885 0.11577 0.61607 0.0
H1035 H 0.68459 0.13846 0.58205 0.0
H1036 H 0.64102 0.13034 0.59159 0.0
H1037 H 0.68642 0.15604 0.59722 0.0
H1038 H 0.73061 0.11316 0.6236 0.0
H1039 H 0.70852 0.16684 0.63754 0.0
H1040 H 0.72009 0.09053 0.32708 0.0
H1041 H 0.70617 0.02724 0.33771 0.0
H1042 H 0.81456 0.97171 0.32233 0.0
H1043 H 0.82893 0.03531 0.31175 0.0
H1044 H 0.69164 0.94861 0.32865 0.0
H1045 H 0.83095 0.95249 0.35732 0.0
H1046 H 0.81525 0.99658 0.34911 0.0
H1047 H 0.83966 0.95377 0.34172 0.0
C1048 C 0.74097 0.06486 0.32597 0.0
C1049 C 0.77569 0.06793 0.31864 0.0
C1050 C 0.73302 0.02873 0.33204 0.0
C1051 C 0.75952 0.99487 0.33089 0.0
C1052 C 0.79415 0.9977 0.32353 0.0
H1053 H 0.64452 0.78596 0.36772 0.0
H1054 H 0.6893 0.81431 0.35229 0.0
C1055 C 0.80231 0.03404 0.3175 0.0
C1056 C 0.75005 0.95683 0.33741 0.0
H1057 H 0.78136 0.90103 0.36078 0.0
C1058 C 0.71152 0.9376 0.33554 0.0
C1059 C 0.77629 0.94247 0.34632 0.0
C1060 C 0.81776 0.96242 0.34884 0.0
C1061 C 0.69705 0.90656 0.34293 0.0
C1062 C 0.72234 0.89369 0.35228 0.0
C1063 C 0.76222 0.91071 0.35355 0.0
C1064 C 0.70465 0.87039 0.36219 0.0
C1065 C 0.65348 0.89041 0.34126 0.0
C1066 C 0.70113 0.89094 0.37312 0.0
C1067 C 0.67614 0.87479 0.38186 0.0
C1068 C 0.65421 0.83767 0.37987 0.0
C1069 C 0.66107 0.81472 0.36942 0.0
C1070 C 0.68626 0.83108 0.36059 0.0
H1071 H 0.63643 0.90738 0.33446 0.0
H1072 H 0.65427 0.85737 0.33848 0.0
H1073 H 0.63601 0.89286 0.34964 0.0
H1074 H 0.71517 0.92115 0.37461 0.0
H1075 H 0.67177 0.89282 0.38991 0.0
H1076 H 0.84254 0.0157 0.05294 0.0
H1077 H 0.88225 0.97742 0.0673 0.0
H1078 H 0.79182 0.00665 0.094 0.0
H1079 H 0.75125 0.04343 0.07965 0.0
H1080 H 0.91702 0.00469 0.08787 0.0
H1081 H 0.80087 0.88213 0.09637 0.0
H1082 H 0.79716 0.91614 0.08409 0.0
H1083 H 0.7809 0.93319 0.09852 0.0
C1084 C 0.83116 0.01385 0.06187 0.0
C1085 C 0.79397 0.03271 0.06519 0.0
C1086 C 0.8538 0.99203 0.07004 0.0
C1087 C 0.83946 0.98857 0.08162 0.0
C1088 C 0.80289 0.0082 0.08503 0.0
H1089 H 0.98399 0.93583 0.14239 0.0
H1090 H 0.93688 0.9643 0.12799 0.0
C1091 C 0.78019 0.02987 0.07688 0.0
C1092 C 0.86354 0.96576 0.09029 0.0
H1093 H 0.85731 0.88794 0.10993 0.0
C1094 C 0.90409 0.97899 0.09263 0.0
C1095 C 0.8467 0.93182 0.09633 0.0
C1096 C 0.80416 0.91467 0.09363 0.0
C1097 C 0.92795 0.96 0.10115 0.0
C1098 C 0.91034 0.92759 0.10766 0.0
C1099 C 0.8703 0.91334 0.10505 0.0
C1100 C 0.93338 0.9084 0.11721 0.0
C1101 C 0.97189 0.97468 0.10306 0.0
C1102 C 0.94494 0.8669 0.11622 0.0
C1103 C 0.97151 0.85043 0.1245 0.0
C1104 C 0.98671 0.87533 0.13385 0.0
C1105 C 0.97298 0.91612 0.1352 0.0
C1106 C 0.94625 0.93242 0.12698 0.0
H1107 H 0.98392 0.99154 0.09536 0.0
H1108 H 0.97308 0.99609 0.11082 0.0
H1109 H 0.99256 0.94838 0.10475 0.0
H1110 H 0.93505 0.84788 0.10875 0.0
H1111 H 0.98202 0.81905 0.1232 0.0
H1112 H 0.93659 0.99133 0.79723 0.0
H1113 H 0.95952 0.04494 0.81144 0.0
H1114 H 0.92022 0.96878 0.84 0.0
H1115 H 0.89818 0.91467 0.82593 0.0
H1116 H 0.88401 0.05585 0.83709 0.0
H1117 H 0.05558 0.0447 0.83847 0.0
H1118 H 0.02997 0.04015 0.82441 0.0
H1119 H 0.02282 0.00058 0.83497 0.0
C1120 C 0.93387 0.98558 0.80654 0.0
C1121 C 0.91521 0.94907 0.81049 0.0
C1122 C 0.94687 0.01619 0.81461 0.0
C1123 C 0.94144 0.01052 0.82669 0.0
C1124 C 0.92458 0.97346 0.83067 0.0
H1125 H 0.01059 0.15869 0.88728 0.0
H1126 H 0.99324 0.1029 0.87312 0.0
C1127 C 0.91178 0.94282 0.82264 0.0
C1128 C 0.94907 0.04481 0.83512 0.0
H1129 H 0.02508 0.09855 0.84966 0.0
C1130 C 0.9148 0.06538 0.83984 0.0
C1131 C 0.98929 0.05656 0.83866 0.0
C1132 C 0.02672 0.03439 0.83395 0.0
C1133 C 0.91971 0.09777 0.84811 0.0
C1134 C 0.95996 0.10992 0.85157 0.0
C1135 C 0.99428 0.08918 0.84688 0.0
C1136 C 0.9672 0.14336 0.86034 0.0
C1137 C 0.88191 0.11812 0.85326 0.0
C1138 C 0.95689 0.1842 0.85791 0.0
C1139 C 0.96613 0.21595 0.86604 0.0
C1140 C 0.9865 0.20713 0.87655 0.0
C1141 C 0.99579 0.16615 0.87908 0.0
C1142 C 0.98596 0.13443 0.87105 0.0
H1143 H 0.85349 0.09938 0.85158 0.0
H1144 H 0.88542 0.12331 0.8629 0.0
H1145 H 0.87785 0.14861 0.84921 0.0
H1146 H 0.94263 0.1916 0.84962 0.0
H1147 H 0.95884 0.24745 0.86393 0.0
H1148 H 0.93439 0.90954 0.47038 0.0
H1149 H 0.87215 0.89979 0.45845 0.0
H1150 H 0.83073 0.02097 0.46922 0.0
H1151 H 0.89197 0.03031 0.48152 0.0
H1152 H 0.77075 0.96375 0.4717 0.0
H1153 H 0.83909 0.94676 0.42733 0.0
H1154 H 0.8616 0.91181 0.43742 0.0
H1155 H 0.86819 0.96665 0.43981 0.0
C1156 C 0.91228 0.9343 0.4701 0.0
C1157 C 0.91841 0.97083 0.47683 0.0
C1158 C 0.87687 0.92886 0.46319 0.0
C1159 C 0.84708 0.95994 0.46279 0.0
C1160 C 0.8535 0.99675 0.4693 0.0
H1161 H 0.65023 0.90324 0.41256 0.0
H1162 H 0.69753 0.94796 0.42409 0.0
C1163 C 0.88881 0.00219 0.47623 0.0
C1164 C 0.80797 0.95272 0.45624 0.0
H1165 H 0.77017 0.91955 0.42966 0.0
C1166 C 0.7705 0.95479 0.46245 0.0
C1167 C 0.80749 0.94192 0.44413 0.0
C1168 C 0.84624 0.94209 0.43676 0.0
C1169 C 0.73287 0.9439 0.45702 0.0
C1170 C 0.73285 0.92976 0.44515 0.0
C1171 C 0.77004 0.93012 0.43878 0.0
C1172 C 0.69607 0.91002 0.4395 0.0
C1173 C 0.69367 0.94708 0.46413 0.0
C1174 C 0.67798 0.87499 0.44451 0.0
C1175 C 0.65052 0.84999 0.43801 0.0
C1176 C 0.64089 0.85952 0.42639 0.0
C1177 C 0.65643 0.89606 0.42164 0.0
C1178 C 0.68374 0.92129 0.42817 0.0
H1179 H 0.69612 0.97225 0.47091 0.0
H1180 H 0.66653 0.95284 0.45846 0.0
H1181 H 0.68838 0.91777 0.46877 0.0
H1182 H 0.68776 0.86488 0.45306 0.0
H1183 H 0.63986 0.82121 0.44167 0.0
H1184 H 0.84919 0.03743 0.2508 0.0
H1185 H 0.88036 0.98571 0.23795 0.0
H1186 H 0.98948 0.98695 0.25962 0.0
H1187 H 0.95777 0.03817 0.27295 0.0
H1188 H 0.00268 0.0018 0.23503 0.0
H1189 H 0.90654 0.86215 0.24167 0.0
H1190 H 0.87626 0.90767 0.24 0.0
H1191 H 0.9101 0.90398 0.25246 0.0
C1192 C 0.87914 0.02573 0.25317 0.0
C1193 C 0.90081 0.0419 0.26299 0.0
C1194 C 0.89703 0.99622 0.24574 0.0
C1195 C 0.93698 0.98225 0.24792 0.0
C1196 C 0.95846 0.99727 0.25786 0.0
H1197 H 0.06816 0.84407 0.19151 0.0
H1198 H 0.05757 0.88153 0.21024 0.0
C1199 C 0.94037 0.02664 0.26541 0.0
C1200 C 0.95712 0.95534 0.23903 0.0
H1201 H 0.94027 0.86699 0.22281 0.0
C1202 C 0.98983 0.97184 0.23248 0.0
C1203 C 0.94034 0.91628 0.23583 0.0
C1204 C 0.90662 0.89627 0.24294 0.0
C1205 C 0.00385 0.95175 0.22218 0.0
C1206 C 0.98492 0.91408 0.21851 0.0
C1207 C 0.95432 0.89621 0.22557 0.0
C1208 C 0.99329 0.89448 0.20689 0.0
C1209 C 0.03709 0.97205 0.21498 0.0
C1210 C 0.96082 0.88963 0.1988 0.0
C1211 C 0.96681 0.86834 0.18815 0.0
C1212 C 0.00548 0.85166 0.18537 0.0
C1213 C 0.03838 0.85761 0.19331 0.0
C1214 C 0.0323 0.87876 0.20403 0.0
H1215 H 0.04341 0.00442 0.21796 0.0
H1216 H 0.06594 0.9544 0.21585 0.0
H1217 H 0.0285 0.97178 0.20553 0.0
H1218 H 0.93051 0.90167 0.20083 0.0
H1219 H 0.94092 0.86419 0.1822 0.0
H1220 H 0.64661 0.12552 0.96299 0.0
H1221 H 0.69985 0.14221 0.94845 0.0
H1222 H 0.75771 0.22653 0.97346 0.0
H1223 H 0.70571 0.20958 0.98806 0.0
H1224 H 0.753 0.25312 0.94826 0.0
H1225 H 0.82016 0.09823 0.95543 0.0
H1226 H 0.76636 0.10059 0.95159 0.0
H1227 H 0.78359 0.12119 0.96554 0.0
C1228 C 0.6703 0.14811 0.96532 0.0
C1229 C 0.67187 0.1661 0.97671 0.0
C1230 C 0.70056 0.15765 0.957 0.0
C1231 C 0.73269 0.18537 0.95995 0.0
C1232 C 0.73291 0.20528 0.97102 0.0
H1233 H 0.9855 0.19841 0.94066 0.0
H1234 H 0.91707 0.19178 0.94961 0.0
C1235 C 0.7029 0.19569 0.97933 0.0
C1236 C 0.76861 0.19062 0.95211 0.0
H1237 H 0.85717 0.14308 0.94342 0.0
C1238 C 0.77575 0.22908 0.94707 0.0
C1239 C 0.79802 0.15909 0.95066 0.0
C1240 C 0.79204 0.11744 0.95611 0.0
C1241 C 0.81237 0.2374 0.9409 0.0
C1242 C 0.84257 0.2062 0.93975 0.0
C1243 C 0.8344 0.16719 0.94442 0.0
C1244 C 0.88391 0.21352 0.93445 0.0
C1245 C 0.81836 0.27987 0.93601 0.0
C1246 C 0.88828 0.22847 0.92301 0.0
C1247 C 0.92754 0.23359 0.91809 0.0
C1248 C 0.96281 0.22253 0.92437 0.0
C1249 C 0.95859 0.20732 0.93573 0.0
C1250 C 0.91953 0.20337 0.94078 0.0
H1251 H 0.80047 0.30327 0.9411 0.0
H1252 H 0.85121 0.28951 0.93598 0.0
H1253 H 0.80697 0.27966 0.92681 0.0
H1254 H 0.8614 0.2355 0.91782 0.0
H1255 H 0.9303 0.24475 0.90921 0.0
H1256 H 0.73338 0.99325 0.75122 0.0
H1257 H 0.71181 0.04704 0.73806 0.0
H1258 H 0.8392 0.07763 0.73098 0.0
H1259 H 0.86115 0.02299 0.7441 0.0
H1260 H 0.72438 0.13073 0.73601 0.0
H1261 H 0.79591 0.04257 0.69872 0.0
H1262 H 0.79084 0.02145 0.71316 0.0
H1263 H 0.83001 0.05966 0.71034 0.0
C1264 C 0.75688 0.01212 0.74712 0.0
C1265 C 0.79897 0.00377 0.74863 0.0
C1266 C 0.74449 0.04282 0.73957 0.0
C1267 C 0.77388 0.06585 0.73338 0.0
C1268 C 0.81602 0.0596 0.73548 0.0
H1269 H 0.65892 0.23556 0.68312 0.0
H1270 H 0.70627 0.21388 0.69856 0.0
C1271 C 0.8285 0.02852 0.74299 0.0
C1272 C 0.75967 0.09301 0.72395 0.0
H1273 H 0.754 0.09785 0.69406 0.0
C1274 C 0.73141 0.1242 0.72683 0.0
C1275 C 0.76882 0.08412 0.71199 0.0
C1276 C 0.7978 0.04999 0.70829 0.0
C1277 C 0.71009 0.145 0.71806 0.0
C1278 C 0.71794 0.13475 0.70611 0.0
C1279 C 0.7482 0.10558 0.70324 0.0
C1280 C 0.69097 0.1489 0.69655 0.0
C1281 C 0.67734 0.17558 0.72163 0.0
C1282 C 0.66748 0.1195 0.69016 0.0
C1283 C 0.64085 0.13162 0.68132 0.0
C1284 C 0.63701 0.17353 0.67867 0.0
C1285 C 0.661 0.20305 0.68498 0.0
C1286 C 0.68792 0.19077 0.69384 0.0
H1287 H 0.67096 0.17546 0.73123 0.0
H1288 H 0.68772 0.20711 0.71933 0.0
H1289 H 0.64813 0.16871 0.71683 0.0
H1290 H 0.66933 0.08702 0.69213 0.0
H1291 H 0.62293 0.10801 0.67666 0.0
H1292 H 0.7225 0.42905 0.00517 0.0
H1293 H 0.78219 0.40367 0.99416 0.0
H1294 H 0.77235 0.50514 0.97051 0.0
H1295 H 0.71127 0.52927 0.98099 0.0
H1296 H 0.77875 0.43346 0.95893 0.0
H1297 H 0.90045 0.44448 0.99319 0.0
H1298 H 0.85614 0.41463 -0.00255 0.0
H1299 H 0.85093 0.46889 0.99492 0.0
C1300 C 0.73289 0.44586 -0.00242 0.0
C1301 C 0.71199 0.48117 0.99394 0.0
C1302 C 0.76748 0.4317 0.99143 0.0
C1303 C 0.78215 0.45297 0.98166 0.0
C1304 C 0.76173 0.4885 0.97811 0.0
H1305 H 0.99308 0.42578 0.93616 0.0
H1306 H 0.94727 0.44701 0.9523 0.0
C1307 C 0.72695 0.50241 0.98416 0.0
C1308 C 0.81662 0.43654 0.97449 0.0
H1309 H 0.91791 0.40843 0.97533 0.0
C1310 C 0.80917 0.42811 0.96252 0.0
C1311 C 0.85637 0.42989 0.9792 0.0
C1312 C 0.86667 0.44031 0.99187 0.0
C1313 C 0.8403 0.41314 0.95512 0.0
C1314 C 0.87962 0.40533 0.95988 0.0
C1315 C 0.88741 0.41395 0.97181 0.0
C1316 C 0.91294 0.3894 0.95228 0.0
C1317 C 0.83128 0.40673 0.94217 0.0
C1318 C 0.90977 0.34941 0.94738 0.0
C1319 C 0.93503 0.33758 0.93799 0.0
C1320 C 0.96454 0.36531 0.93361 0.0
C1321 C 0.9704 0.40389 0.93933 0.0
C1322 C 0.94444 0.41602 0.94857 0.0
H1323 H 0.80131 0.42022 0.93962 0.0
H1324 H 0.85616 0.42077 0.93681 0.0
H1325 H 0.8302 0.37322 0.93997 0.0
H1326 H 0.88612 0.32835 0.95042 0.0
H1327 H 0.9305 0.30738 0.93388 0.0
H1328 H 0.85509 0.43311 0.24498 0.0
H1329 H 0.8737 0.47999 0.22927 0.0
H1330 H 0.87722 0.37734 0.20445 0.0
H1331 H 0.85934 0.32997 0.22016 0.0
H1332 H 0.94756 0.47329 0.21493 0.0
H1333 H 0.80208 0.46536 0.18889 0.0
H1334 H 0.80435 0.45063 0.20409 0.0
H1335 H 0.82462 0.41706 0.19278 0.0
C1336 C 0.85996 0.42045 0.23619 0.0
C1337 C 0.85582 0.37782 0.23382 0.0
C1338 C 0.87034 0.44728 0.22723 0.0
C1339 C 0.87644 0.43206 0.21572 0.0
C1340 C 0.87196 0.38966 0.21326 0.0
H1341 H 0.00044 0.57768 0.16216 0.0
H1342 H 0.97701 0.51931 0.17377 0.0
C1343 C 0.86168 0.36272 0.22223 0.0
C1344 C 0.88927 0.46061 0.20646 0.0
H1345 H 0.8564 0.50645 0.1815 0.0
C1346 C 0.92782 0.48038 0.20756 0.0
C1347 C 0.86321 0.46973 0.19693 0.0
C1348 C 0.82109 0.44988 0.19557 0.0
C1349 C 0.94089 0.50963 0.19946 0.0
C1350 C 0.9148 0.51892 0.18994 0.0
C1351 C 0.87639 0.49883 0.18875 0.0
C1352 C 0.92577 0.55183 0.18172 0.0
C1353 C 0.98187 0.53144 0.20135 0.0
C1354 C 0.90365 0.58873 0.18204 0.0
C1355 C 0.91686 0.62212 0.17544 0.0
C1356 C 0.95239 0.61909 0.16836 0.0
C1357 C 0.97311 0.58118 0.16757 0.0
C1358 C 0.95989 0.54782 0.17421 0.0
H1359 H 0.99485 0.52591 0.2102 0.0
H1360 H 0.00426 0.52004 0.19467 0.0
H1361 H 0.97866 0.56523 0.20029 0.0
H1362 H 0.87714 0.59227 0.18778 0.0
H1363 H 0.89994 0.65069 0.17619 0.0
H1364 H 0.90015 0.54728 0.50581 0.0
H1365 H 0.84999 0.55851 0.49012 0.0
H1366 H 0.92114 0.66354 0.47875 0.0
H1367 H 0.97179 0.65209 0.49424 0.0
H1368 H 0.80376 0.63237 0.48536 0.0
H1369 H 0.90979 0.58614 0.44904 0.0
H1370 H 0.91897 0.57332 0.46417 0.0
H1371 H 0.92998 0.62451 0.45924 0.0
C1372 C 0.90497 0.57281 0.49997 0.0
C1373 C 0.93985 0.59876 0.5012 0.0
C1374 C 0.87636 0.5792 0.49106 0.0
C1375 C 0.88245 0.61137 0.48322 0.0
C1376 C 0.91642 0.63816 0.48465 0.0
H1377 H 0.75467 0.70837 0.42416 0.0
H1378 H 0.80478 0.68948 0.43907 0.0
C1379 C 0.94497 0.63189 0.49357 0.0
C1380 C 0.85326 0.61693 0.47349 0.0
H1381 H 0.84589 0.61512 0.44357 0.0
C1382 C 0.81275 0.62836 0.47622 0.0
C1383 C 0.86541 0.61158 0.46162 0.0
C1384 C 0.9083 0.59788 0.45829 0.0
C1385 C 0.78414 0.63579 0.46732 0.0
C1386 C 0.79635 0.63072 0.45543 0.0
C1387 C 0.83677 0.61884 0.45271 0.0
C1388 C 0.76786 0.63912 0.44571 0.0
C1389 C 0.74153 0.65023 0.47071 0.0
C1390 C 0.73132 0.61599 0.44428 0.0
C1391 C 0.70253 0.62677 0.43582 0.0
C1392 C 0.71005 0.66065 0.42859 0.0
C1393 C 0.74784 0.68222 0.42962 0.0
C1394 C 0.77651 0.67152 0.43812 0.0
H1395 H 0.74029 0.66171 0.47999 0.0
H1396 H 0.73129 0.67521 0.46492 0.0
H1397 H 0.71934 0.62403 0.46972 0.0
H1398 H 0.72465 0.59026 0.44991 0.0
H1399 H 0.67396 0.60918 0.43516 0.0
H1400 H 0.75297 0.59655 0.74683 0.0
H1401 H 0.71739 0.53581 0.7386 0.0
H1402 H 0.60631 0.60637 0.73483 0.0
H1403 H 0.6425 0.66818 0.74234 0.0
H1404 H 0.64722 0.49031 0.74371 0.0
H1405 H 0.63214 0.57109 0.70128 0.0
H1406 H 0.66294 0.59182 0.71326 0.0
H1407 H 0.60764 0.59578 0.71369 0.0
C1408 C 0.72107 0.59933 0.74415 0.0
C1409 C 0.70094 0.63752 0.74491 0.0
C1410 C 0.70059 0.56439 0.73964 0.0
C1411 C 0.6595 0.56685 0.73593 0.0
C1412 C 0.63831 0.60411 0.73746 0.0
H1413 H 0.55025 0.39853 0.68464 0.0
H1414 H 0.55323 0.44707 0.7012 0.0
C1415 C 0.65898 0.63932 0.74182 0.0
C1416 C 0.64088 0.53163 0.72928 0.0
H1417 H 0.61119 0.50231 0.7016 0.0
C1418 C 0.63868 0.4929 0.73454 0.0
C1419 C 0.63003 0.53519 0.71732 0.0
C1420 C 0.63355 0.57556 0.71099 0.0
C1421 C 0.62703 0.45728 0.72803 0.0
C1422 C 0.61765 0.46072 0.71596 0.0
C1423 C 0.61808 0.49976 0.71088 0.0
C1424 C 0.61089 0.42454 0.70799 0.0
C1425 C 0.62568 0.41642 0.73409 0.0
C1426 C 0.64176 0.39474 0.70649 0.0
C1427 C 0.64021 0.36674 0.69694 0.0
C1428 C 0.6081 0.36875 0.68869 0.0
C1429 C 0.57569 0.39646 0.69077 0.0
C1430 C 0.57718 0.42414 0.70028 0.0
H1431 H 0.61755 0.42065 0.74353 0.0
H1432 H 0.6031 0.39466 0.72988 0.0
H1433 H 0.65671 0.40234 0.73363 0.0
H1434 H 0.66862 0.39511 0.71215 0.0
H1435 H 0.66567 0.34582 0.69553 0.0
H1436 H 0.61426 0.69631 0.07866 0.0
H1437 H 0.67773 0.72302 0.08801 0.0
H1438 H 0.73851 0.60827 0.07969 0.0
H1439 H 0.67584 0.5817 0.07023 0.0
H1440 H 0.7221 0.68974 0.10687 0.0
H1441 H 0.81762 0.69581 0.0665 0.0
H1442 H 0.76223 0.68901 0.06606 0.0
H1443 H 0.79498 0.64594 0.06893 0.0
C1444 C 0.64115 0.6768 0.07885 0.0
C1445 C 0.63989 0.63683 0.07374 0.0
C1446 C 0.67734 0.69209 0.08417 0.0
C1447 C 0.71299 0.66789 0.08433 0.0
C1448 C 0.71158 0.62773 0.07947 0.0
H1449 H 0.95309 0.67537 0.11597 0.0
H1450 H 0.89393 0.66338 0.10292 0.0
C1451 C 0.67546 0.61238 0.07422 0.0
C1452 C 0.75138 0.68391 0.08995 0.0
H1453 H 0.85362 0.70339 0.08482 0.0
C1454 C 0.75076 0.69326 0.10204 0.0
C1455 C 0.78874 0.68814 0.08361 0.0
C1456 C 0.79096 0.67957 0.07053 0.0
C1457 C 0.78682 0.70534 0.10808 0.0
C1458 C 0.82434 0.7093 0.10176 0.0
C1459 C 0.82482 0.70057 0.08962 0.0
C1460 C 0.86357 0.72041 0.10782 0.0
C1461 C 0.78469 0.71201 0.12125 0.0
C1462 C 0.86729 0.75756 0.11434 0.0
C1463 C 0.90071 0.76424 0.12191 0.0
C1464 C 0.93154 0.73428 0.1229 0.0
C1465 C 0.92989 0.69904 0.11543 0.0
C1466 C 0.89602 0.69208 0.10799 0.0
H1467 H 0.7564 0.69791 0.12504 0.0
H1468 H 0.812 0.69879 0.12562 0.0
H1469 H 0.78417 0.74563 0.12335 0.0
H1470 H 0.84316 0.78037 0.11407 0.0
H1471 H 0.90115 0.79187 0.12746 0.0
H1472 H 0.72335 0.3319 0.33858 0.0
H1473 H 0.70035 0.39616 0.34813 0.0
H1474 H 0.65519 0.43828 0.3149 0.0
H1475 H 0.67837 0.3744 0.30527 0.0
H1476 H 0.7294 0.47571 0.3416 0.0
H1477 H 0.55873 0.45975 0.33846 0.0
H1478 H 0.59274 0.41659 0.33619 0.0
H1479 H 0.58642 0.45348 0.32483 0.0
C1480 C 0.70812 0.35463 0.33334 0.0
C1481 C 0.70256 0.34794 0.32119 0.0
C1482 C 0.69497 0.39127 0.33879 0.0
C1483 C 0.6759 0.42179 0.33222 0.0
C1484 C 0.66923 0.41481 0.32016 0.0
H1485 H 0.65736 0.67101 0.36558 0.0
H1486 H 0.66939 0.61844 0.34999 0.0
C1487 C 0.68237 0.37818 0.31469 0.0
C1488 C 0.66554 0.46187 0.33792 0.0
H1489 H 0.58501 0.5219 0.34686 0.0
C1490 C 0.69789 0.48611 0.34267 0.0
C1491 C 0.62438 0.47521 0.33922 0.0
C1492 C 0.58845 0.44986 0.33449 0.0
C1493 C 0.69014 0.52262 0.34913 0.0
C1494 C 0.64891 0.53555 0.35069 0.0
C1495 C 0.61662 0.51211 0.34553 0.0
C1496 C 0.63834 0.56919 0.35916 0.0
C1497 C 0.72595 0.54572 0.3548 0.0
C1498 C 0.61594 0.55918 0.36923 0.0
C1499 C 0.60885 0.58889 0.37801 0.0
C1500 C 0.624 0.62948 0.37694 0.0
C1501 C 0.64551 0.63996 0.36667 0.0
C1502 C 0.65243 0.61 0.35779 0.0
H1503 H 0.75504 0.52796 0.35426 0.0
H1504 H 0.73097 0.57531 0.35028 0.0
H1505 H 0.71927 0.55295 0.3642 0.0
H1506 H 0.60505 0.52786 0.3705 0.0
H1507 H 0.59244 0.57954 0.38582 0.0
H1508 H 0.91859 0.55156 0.57466 0.0
H1509 H 0.87425 0.52587 0.59043 0.0
H1510 H 0.93267 0.40715 0.58756 0.0
H1511 H 0.97749 0.43273 0.57195 0.0
H1512 H 0.81932 0.45556 0.58875 0.0
H1513 H 0.93917 0.43833 0.62318 0.0
H1514 H 0.947 0.46984 0.61046 0.0
H1515 H 0.95057 0.41467 0.6091 0.0
C1516 C 0.92208 0.52006 0.57744 0.0
C1517 C 0.95134 0.49409 0.57205 0.0
C1518 C 0.89677 0.50545 0.58642 0.0
C1519 C 0.90068 0.46484 0.59025 0.0
C1520 C 0.92967 0.43878 0.58484 0.0
H1521 H 0.76468 0.31371 0.63931 0.0
H1522 H 0.81757 0.34244 0.62631 0.0
C1523 C 0.95482 0.45328 0.57583 0.0
C1524 C 0.87321 0.44918 0.59956 0.0
H1525 H 0.87232 0.41185 0.62739 0.0
C1526 C 0.83082 0.44622 0.59723 0.0
C1527 C 0.88851 0.43672 0.61054 0.0
C1528 C 0.93376 0.44027 0.61356 0.0
C1529 C 0.80321 0.43057 0.60554 0.0
C1530 C 0.81837 0.41852 0.6166 0.0
C1531 C 0.86084 0.42129 0.61892 0.0
C1532 C 0.79023 0.40297 0.62578 0.0
C1533 C 0.75817 0.42617 0.60229 0.0
C1534 C 0.75864 0.42811 0.63022 0.0
C1535 C 0.72838 0.41181 0.63755 0.0
C1536 C 0.72947 0.37015 0.64072 0.0
C1537 C 0.763 0.34589 0.63702 0.0
C1538 C 0.79315 0.36221 0.62957 0.0
H1539 H 0.75352 0.42632 0.59261 0.0
H1540 H 0.74471 0.39716 0.60571 0.0
H1541 H 0.74093 0.4525 0.60622 0.0
H1542 H 0.75647 0.45996 0.62763 0.0
H1543 H 0.70328 0.43148 0.64039 0.0
H1544 H 0.96374 0.74024 0.82369 0.0
H1545 H 0.98961 0.69084 0.83792 0.0
H1546 H 0.87474 0.62269 0.83553 0.0
H1547 H 0.84906 0.67102 0.82125 0.0
H1548 H 0.95018 0.66268 0.86063 0.0
H1549 H 0.96952 0.53982 0.8262 0.0
H1550 H 0.96627 0.59387 0.82282 0.0
H1551 H 0.92033 0.56489 0.82616 0.0
C1552 C 0.94402 0.71479 0.82625 0.0
C1553 C 0.90436 0.70954 0.82137 0.0
C1554 C 0.95873 0.68682 0.8344 0.0
C1555 C 0.93412 0.6531 0.83765 0.0
C1556 C 0.8942 0.64847 0.83305 0.0
H1557 H 0.93672 0.43411 0.87691 0.0
H1558 H 0.92258 0.49385 0.86503 0.0
C1559 C 0.87947 0.67634 0.82497 0.0
C1560 C 0.95025 0.62149 0.84549 0.0
H1561 H 0.97263 0.51904 0.84607 0.0
C1562 C 0.9557 0.63137 0.85747 0.0
C1563 C 0.95743 0.58085 0.84127 0.0
C1564 C 0.95347 0.56913 0.82839 0.0
C1565 C 0.96627 0.60089 0.86548 0.0
C1566 C 0.97197 0.55989 0.8613 0.0
C1567 C 0.96797 0.55049 0.84924 0.0
C1568 C 0.97996 0.52556 0.86927 0.0
C1569 C 0.96951 0.61229 0.87839 0.0
C1570 C 0.01688 0.52379 0.87566 0.0
C1571 C 0.02514 0.48958 0.88251 0.0
C1572 C 0.99668 0.45648 0.883 0.0
C1573 C 0.95942 0.45889 0.87673 0.0
C1574 C 0.95123 0.49303 0.86992 0.0
H1575 H 0.95673 0.64332 0.88042 0.0
H1576 H 0.95298 0.5892 0.88376 0.0
H1577 H 0.00246 0.61252 0.88104 0.0
H1578 H 0.03972 0.54834 0.87512 0.0
H1579 H 0.05419 0.48869 0.88719 0.0
H1580 H 0.37667 0.58104 0.0773 0.0
H1581 H 0.31147 0.59146 0.08759 0.0
H1582 H 0.25035 0.61155 0.05458 0.0
H1583 H 0.31571 0.60074 0.04415 0.0
H1584 H 0.23557 0.67234 0.07097 0.0
H1585 H 0.20768 0.52123 0.09087 0.0
H1586 H 0.25955 0.53868 0.09364 0.0
H1587 H 0.24298 0.52796 0.07874 0.0
C1588 C 0.34923 0.58682 0.07219 0.0
C1589 C 0.35138 0.59009 0.05992 0.0
C1590 C 0.31189 0.59254 0.07808 0.0
C1591 C 0.27585 0.60133 0.07182 0.0
C1592 C 0.27772 0.60432 0.05955 0.0
H1593 H 0.08018 0.71729 0.1154 0.0
H1594 H 0.10261 0.67606 0.09809 0.0
C1595 C 0.31514 0.59855 0.05364 0.0
C1596 C 0.23774 0.61189 0.07836 0.0
H1597 H 0.18088 0.58125 0.10188 0.0
C1598 C 0.22247 0.65202 0.07747 0.0
C1599 C 0.22035 0.5851 0.08669 0.0
C1600 C 0.23324 0.54068 0.08745 0.0
C1601 C 0.1937 0.66762 0.0856 0.0
C1602 C 0.17977 0.64217 0.09475 0.0
C1603 C 0.19178 0.60073 0.09488 0.0
C1604 C 0.16166 0.6605 0.10557 0.0
C1605 C 0.1816 0.71238 0.08508 0.0
C1606 C 0.18675 0.66385 0.11558 0.0
C1607 C 0.17431 0.68731 0.12531 0.0
C1608 C 0.13633 0.70772 0.12527 0.0
C1609 C 0.1097 0.70196 0.1156 0.0
C1610 C 0.12247 0.6786 0.10573 0.0
H1611 H 0.19653 0.72835 0.07763 0.0
H1612 H 0.14764 0.71451 0.08406 0.0
H1613 H 0.19029 0.7289 0.0934 0.0
H1614 H 0.21709 0.6501 0.11562 0.0
H1615 H 0.19519 0.69068 0.13272 0.0
H1616 H 0.24795 0.57506 0.82996 0.0
H1617 H 0.23474 0.50967 0.83957 0.0
H1618 H 0.33792 0.45511 0.8212 0.0
H1619 H 0.35152 0.52084 0.81157 0.0
H1620 H 0.21716 0.43247 0.82861 0.0
H1621 H 0.3599 0.42864 0.85588 0.0
H1622 H 0.34333 0.47526 0.84902 0.0
H1623 H 0.36527 0.4343 0.84025 0.0
C1624 C 0.26782 0.54915 0.82796 0.0
C1625 C 0.3008 0.55306 0.82005 0.0
C1626 C 0.26028 0.51184 0.83345 0.0
C1627 C 0.28548 0.47763 0.83113 0.0
C1628 C 0.31851 0.48131 0.82324 0.0
H1629 H 0.16203 0.27905 0.86951 0.0
H1630 H 0.20876 0.3001 0.85362 0.0
C1631 C 0.32624 0.51884 0.81777 0.0
C1632 C 0.27626 0.43851 0.83708 0.0
H1633 H 0.30712 0.38157 0.86024 0.0
C1634 C 0.23713 0.42048 0.83535 0.0
C1635 C 0.30276 0.42283 0.84572 0.0
C1636 C 0.34514 0.44118 0.84793 0.0
C1637 C 0.22198 0.3901 0.84283 0.0
C1638 C 0.24719 0.3768 0.85214 0.0
C1639 C 0.28797 0.39176 0.85307 0.0
C1640 C 0.22861 0.35682 0.86249 0.0
C1641 C 0.17772 0.37571 0.84141 0.0
C1642 C 0.22694 0.37997 0.87306 0.0
C1643 C 0.20082 0.36795 0.88207 0.0
C1644 C 0.17581 0.33251 0.88072 0.0
C1645 C 0.18078 0.30673 0.87071 0.0
C1646 C 0.20719 0.31887 0.86161 0.0
H1647 H 0.16141 0.39209 0.83434 0.0
H1648 H 0.1769 0.3422 0.83916 0.0
H1649 H 0.16049 0.38066 0.84976 0.0
H1650 H 0.24334 0.40921 0.87399 0.0
H1651 H 0.19816 0.388 0.8898 0.0
H1652 H 0.30378 0.40719 0.54267 0.0
H1653 H 0.35581 0.36756 0.55308 0.0
H1654 H 0.35723 0.45938 0.58117 0.0
H1655 H 0.30444 0.49816 0.5712 0.0
H1656 H 0.44014 0.42453 0.5712 0.0
H1657 H 0.31964 0.31375 0.58659 0.0
H1658 H 0.32418 0.32401 0.57112 0.0
H1659 H 0.3061 0.3635 0.58109 0.0
C1660 C 0.31533 0.41899 0.55105 0.0
C1661 C 0.29981 0.45572 0.55615 0.0
C1662 C 0.34513 0.39647 0.5569 0.0
C1663 C 0.35997 0.41074 0.56783 0.0
C1664 C 0.3461 0.44822 0.57267 0.0
H1665 H 0.48667 0.39096 0.62954 0.0
H1666 H 0.44996 0.4056 0.61136 0.0
C1667 C 0.31614 0.47046 0.56691 0.0
C1668 C 0.38758 0.38573 0.57488 0.0
H1669 H 0.38367 0.31416 0.59633 0.0
C1670 C 0.4283 0.39959 0.57648 0.0
C1671 C 0.37176 0.3532 0.58166 0.0
C1672 C 0.32801 0.33754 0.58012 0.0
C1673 C 0.45286 0.38367 0.58535 0.0
C1674 C 0.43573 0.35388 0.59285 0.0
C1675 C 0.3963 0.33739 0.59059 0.0
C1676 C 0.45611 0.3438 0.60393 0.0
C1677 C 0.49616 0.40037 0.58704 0.0
C1678 C 0.47014 0.30386 0.60585 0.0
C1679 C 0.49098 0.29545 0.61624 0.0
C1680 C 0.49737 0.32672 0.62486 0.0
C1681 C 0.48205 0.36634 0.62303 0.0
C1682 C 0.46137 0.37475 0.61266 0.0
H1683 H 0.50875 0.41281 0.57874 0.0
H1684 H 0.49579 0.42595 0.59371 0.0
H1685 H 0.51712 0.37612 0.59019 0.0
H1686 H 0.46612 0.27966 0.59919 0.0
H1687 H 0.50381 0.26511 0.61728 0.0
H1688 H 0.41688 0.36535 0.33495 0.0
H1689 H 0.42875 0.42265 0.34901 0.0
H1690 H 0.49551 0.48914 0.32253 0.0
H1691 H 0.48191 0.43342 0.30828 0.0
H1692 H 0.49519 0.46542 0.35818 0.0
H1693 H 0.40076 0.56584 0.33033 0.0
H1694 H 0.40415 0.51087 0.3277 0.0
H1695 H 0.44445 0.54483 0.32268 0.0
C1696 C 0.43444 0.39201 0.33216 0.0
C1697 C 0.4479 0.395 0.32045 0.0
C1698 C 0.44134 0.42461 0.34021 0.0
C1699 C 0.46191 0.46053 0.33668 0.0
C1700 C 0.47857 0.46207 0.32532 0.0
H1701 H 0.54967 0.67732 0.37283 0.0
H1702 H 0.5391 0.61271 0.3616 0.0
C1703 C 0.47137 0.42977 0.31724 0.0
C1704 C 0.4635 0.49745 0.34456 0.0
H1705 H 0.43691 0.59908 0.34625 0.0
C1706 C 0.48238 0.49461 0.3556 0.0
C1707 C 0.44563 0.53516 0.34128 0.0
C1708 C 0.42221 0.53934 0.32991 0.0
C1709 C 0.48521 0.52908 0.36328 0.0
C1710 C 0.46932 0.56716 0.35971 0.0
C1711 C 0.44933 0.56974 0.34886 0.0
C1712 C 0.47535 0.60531 0.36682 0.0
C1713 C 0.50421 0.52464 0.37526 0.0
C1714 C 0.44255 0.6228 0.37318 0.0
C1715 C 0.44859 0.65964 0.37967 0.0
C1716 C 0.48751 0.67924 0.37983 0.0
C1717 C 0.51986 0.66202 0.37319 0.0
C1718 C 0.51383 0.62535 0.36674 0.0
H1719 H 0.51575 0.49299 0.37666 0.0
H1720 H 0.5301 0.54689 0.37646 0.0
H1721 H 0.4809 0.53219 0.38212 0.0
H1722 H 0.41247 0.60786 0.37317 0.0
H1723 H 0.42312 0.67242 0.38468 0.0
H1724 H 0.35127 0.44394 0.00104 0.0
H1725 H 0.29727 0.42172 0.98731 0.0
H1726 H 0.26261 0.54839 0.98274 0.0
H1727 H 0.31679 0.57108 -0.00341 0.0
H1728 H 0.2108 0.43365 0.98603 0.0
H1729 H 0.29677 0.5077 0.94954 0.0
H1730 H 0.31967 0.50061 0.96378 0.0
H1731 H 0.28232 0.54034 0.96184 0.0
C1732 C 0.33152 0.46709 -0.00262 0.0
C1733 C 0.33847 0.50932 -0.00014 0.0
C1734 C 0.30074 0.45432 0.98949 0.0
C1735 C 0.27637 0.48345 0.9839 0.0
C1736 C 0.28159 0.5255 0.98683 0.0
H1737 H 0.09725 0.37381 0.93278 0.0
H1738 H 0.12338 0.42169 0.94817 0.0
C1739 C 0.31252 0.53837 0.99472 0.0
C1740 C 0.24827 0.46937 0.97433 0.0
H1741 H 0.24048 0.4652 0.9444 0.0
C1742 C 0.21659 0.44114 0.97693 0.0
C1743 C 0.25628 0.47912 0.96248 0.0
C1744 C 0.29072 0.50838 0.95916 0.0
C1745 C 0.1941 0.42068 0.96795 0.0
C1746 C 0.20336 0.42913 0.95609 0.0
C1747 C 0.23342 0.45906 0.95352 0.0
C1748 C 0.18697 0.40292 0.9463 0.0
C1749 C 0.16258 0.38821 0.97116 0.0
C1750 C 0.21423 0.37749 0.93998 0.0
C1751 C 0.19957 0.35037 0.93121 0.0
C1752 C 0.15723 0.34817 0.92855 0.0
C1753 C 0.13002 0.37467 0.93465 0.0
C1754 C 0.14482 0.40188 0.94347 0.0
H1755 H 0.16277 0.38186 0.98072 0.0
H1756 H 0.13132 0.39878 0.96876 0.0
H1757 H 0.16845 0.35893 0.96619 0.0
H1758 H 0.2469 0.3779 0.94203 0.0
H1759 H 0.22147 0.33065 0.92666 0.0
H1760 H 0.3647 0.49178 0.76452 0.0
H1761 H 0.38356 0.44145 0.74902 0.0
H1762 H 0.46319 0.53241 0.73331 0.0
H1763 H 0.44472 0.5825 0.74874 0.0
H1764 H 0.37126 0.44544 0.72558 0.0
H1765 H 0.53735 0.43301 0.73501 0.0
H1766 H 0.50294 0.4605 0.74476 0.0
H1767 H 0.52458 0.48545 0.73213 0.0
C1768 C 0.38656 0.50079 0.75782 0.0
C1769 C 0.40371 0.54083 0.75794 0.0
C1770 C 0.39727 0.4721 0.74898 0.0
C1771 C 0.42524 0.48301 0.74011 0.0
C1772 C 0.44237 0.52298 0.74023 0.0
H1773 H 0.4422 0.36712 0.67059 0.0
H1774 H 0.4264 0.41131 0.68782 0.0
C1775 C 0.43187 0.55154 0.74907 0.0
C1776 C 0.43515 0.45339 0.73041 0.0
H1777 H 0.51538 0.40793 0.716 0.0
C1778 C 0.40279 0.43715 0.72346 0.0
C1779 C 0.47616 0.44184 0.72784 0.0
C1780 C 0.51212 0.45585 0.73543 0.0
C1781 C 0.41043 0.41077 0.71374 0.0
C1782 C 0.45175 0.40146 0.71066 0.0
C1783 C 0.48387 0.41628 0.71798 0.0
C1784 C 0.46249 0.37606 0.70002 0.0
C1785 C 0.37394 0.39243 0.70714 0.0
C1786 C 0.49006 0.34313 0.70092 0.0
C1787 C 0.50053 0.3193 0.69099 0.0
C1788 C 0.48299 0.32735 0.68003 0.0
C1789 C 0.45579 0.36035 0.67901 0.0
C1790 C 0.44636 0.38513 0.68889 0.0
H1791 H 0.3463 0.39038 0.71289 0.0
H1792 H 0.36603 0.41263 0.69975 0.0
H1793 H 0.38065 0.36106 0.70354 0.0
H1794 H 0.50324 0.33554 0.70933 0.0
H1795 H 0.52152 0.2938 0.69194 0.0
H1796 H 0.15206 0.62458 0.46946 0.0
H1797 H 0.20795 0.64249 0.45584 0.0
H1798 H 0.27591 0.70051 0.48445 0.0
H1799 H 0.221 0.68221 0.49809 0.0
H1800 H 0.25276 0.72312 0.45101 0.0
H1801 H 0.34747 0.6016 0.47115 0.0
H1802 H 0.29215 0.60403 0.47297 0.0
H1803 H 0.32531 0.63863 0.48127 0.0
C1804 C 0.1786 0.64181 0.47279 0.0
C1805 C 0.18206 0.65203 0.48484 0.0
C1806 C 0.21035 0.65212 0.46501 0.0
C1807 C 0.24603 0.67247 0.4692 0.0
C1808 C 0.24857 0.6847 0.48108 0.0
H1809 H 0.46333 0.7706 0.43494 0.0
H1810 H 0.39852 0.76129 0.44577 0.0
C1811 C 0.21693 0.67454 0.48884 0.0
C1812 C 0.2823 0.67763 0.46148 0.0
H1813 H 0.38116 0.6449 0.45761 0.0
C1814 C 0.28083 0.70598 0.45238 0.0
C1815 C 0.31852 0.65468 0.46323 0.0
C1816 C 0.32107 0.6227 0.47261 0.0
C1817 C 0.3153 0.71274 0.44514 0.0
C1818 C 0.35205 0.69089 0.4472 0.0
C1819 C 0.35303 0.66184 0.45612 0.0
C1820 C 0.38998 0.69741 0.44022 0.0
C1821 C 0.31207 0.74283 0.4353 0.0
C1822 C 0.40709 0.66432 0.43378 0.0
C1823 C 0.44404 0.66957 0.42765 0.0
C1824 C 0.46449 0.70805 0.42784 0.0
C1825 C 0.44749 0.74107 0.43436 0.0
C1826 C 0.41056 0.73576 0.44054 0.0
H1827 H 0.27942 0.7493 0.43308 0.0
H1828 H 0.32717 0.77235 0.43806 0.0
H1829 H 0.328 0.73099 0.42727 0.0
H1830 H 0.39185 0.63437 0.43352 0.0
H1831 H 0.45641 0.64357 0.42268 0.0
H1832 H 0.37985 0.51014 0.22877 0.0
H1833 H 0.36312 0.56813 0.21619 0.0
H1834 H 0.23439 0.55414 0.22516 0.0
H1835 H 0.25082 0.49681 0.23769 0.0
H1836 H 0.31549 0.56634 0.19703 0.0
H1837 H 0.24904 0.67708 0.22903 0.0
H1838 H 0.27956 0.6339 0.23351 0.0
H1839 H 0.22503 0.62751 0.23072 0.0
C1840 C 0.34806 0.51976 0.2281 0.0
C1841 C 0.31665 0.49918 0.23426 0.0
C1842 C 0.33861 0.55298 0.22099 0.0
C1843 C 0.29767 0.56612 0.21998 0.0
C1844 C 0.26639 0.54556 0.22614 0.0
H1845 H 0.14426 0.63052 0.16697 0.0
H1846 H 0.19749 0.60349 0.17955 0.0
C1847 C 0.27579 0.51261 0.23326 0.0
C1848 C 0.28633 0.59831 0.21161 0.0
H1849 H 0.22098 0.67916 0.209 0.0
C1850 C 0.29576 0.59175 0.19967 0.0
C1851 C 0.26163 0.63222 0.21506 0.0
C1852 C 0.25369 0.64333 0.22781 0.0
C1853 C 0.27755 0.61556 0.19101 0.0
C1854 C 0.24849 0.64585 0.19439 0.0
C1855 C 0.24257 0.65531 0.20638 0.0
C1856 C 0.21961 0.6634 0.18583 0.0
C1857 C 0.28828 0.60679 0.17829 0.0
C1858 C 0.21365 0.70616 0.18535 0.0
C1859 C 0.18259 0.72183 0.17824 0.0
C1860 C 0.15684 0.6949 0.17159 0.0
C1861 C 0.16355 0.65219 0.17194 0.0
C1862 C 0.19439 0.63664 0.17904 0.0
H1863 H 0.32074 0.59645 0.17742 0.0
H1864 H 0.26813 0.58144 0.17479 0.0
H1865 H 0.28402 0.63438 0.17284 0.0
H1866 H 0.23246 0.7273 0.19064 0.0
H1867 H 0.1782 0.75489 0.17818 0.0
loop_
_geom_bond_atom_site_label_1
_geom_bond_atom_site_label_2
_geom_bond_distance
_geom_bond_site_symmetry_2
_ccdc_geom_bond_type
H0 O26 0.856 . S
H1 O29 0.854 . S
H2 C37 0.930 . S
H3 C38 0.930 . S
H4 C40 0.930 1_565 S
H5 C41 0.930 1_565 S
H6 C43 0.931 . S
H7 C44 0.930 1_655 S
H8 C46 0.930 . S
H9 C47 0.929 . S
H10 C49 0.930 . S
H11 C50 0.931 . S
H12 C52 0.930 . S
H13 C53 0.929 1_565 S
H14 C55 0.931 . S
H15 C56 0.930 . S
H16 C58 0.930 . S
H17 C59 0.932 . S
H18 C61 0.930 1_545 S
H19 C62 0.929 . S
H20 C64 0.931 . S
H21 C65 0.930 . S
H22 C67 0.929 . S
H23 C68 0.931 1_545 S
H24 C70 0.930 . S
H25 C71 0.929 . S
O26 H0 0.856 . S
O26 C72 1.300 . S
O27 C72 1.209 . S
O28 C73 1.199 . S
O29 H1 0.854 . S
O29 C73 1.297 . S
C30 C31 1.404 1_455 S
C30 C35 1.397 . S
C30 C36 1.492 . S
C31 C30 1.404 1_655 S
C31 C32 1.396 . S
C31 C42 1.492 . S
C32 C31 1.396 . S
C32 C33 1.397 . S
C32 C48 1.509 . S
C33 C32 1.397 . S
C33 C34 1.412 1_545 S
C33 C54 1.484 1_545 S
C34 C33 1.412 1_565 S
C34 C35 1.388 1_665 S
C34 C60 1.490 . S
C35 C30 1.397 . S
C35 C34 1.388 1_445 S
C35 C66 1.519 1_545 S
C36 C30 1.492 . S
C36 C37 1.363 . S
C36 C41 1.390 . S
C37 H2 0.930 . S
C37 C36 1.363 . S
C37 C38 1.372 . S
C38 H3 0.930 . S
C38 C37 1.372 . S
C38 C39 1.383 . S
C39 C38 1.383 . S
C39 C40 1.395 . S
C40 H4 0.930 1_545 S
C40 C39 1.395 . S
C40 C41 1.362 . S
C41 H5 0.930 1_545 S
C41 C36 1.390 . S
C41 C40 1.362 . S
C42 C31 1.492 . S
C42 C43 1.377 . S
C42 C47 1.397 1_655 S
C43 H6 0.931 . S
C43 C42 1.377 . S
C43 C44 1.376 1_655 S
C44 H7 0.930 1_455 S
C44 C43 1.376 1_455 S
C44 C45 1.376 . S
C45 C44 1.376 . S
C45 C46 1.378 . S
C45 C72 1.486 . S
C46 H8 0.930 . S
C46 C45 1.378 . S
C46 C47 1.376 . S
C47 H9 0.929 . S
C47 C42 1.397 1_455 S
C47 C46 1.376 . S
C48 C32 1.509 . S
C48 C49 1.391 . S
C48 C53 1.386 . S
C49 H10 0.930 . S
C49 C48 1.391 . S
C49 C50 1.375 . S
C50 H11 0.931 . S
C50 C49 1.375 . S
C50 C51 1.375 . S
C51 C50 1.375 . S
C51 C52 1.361 . S
C52 H12 0.930 . S
C52 C51 1.361 . S
C52 C53 1.399 . S
C53 H13 0.929 1_545 S
C53 C48 1.386 . S
C53 C52 1.399 . S
C54 C33 1.484 1_565 S
C54 C55 1.391 1_565 S
C54 C59 1.365 . S
C55 H14 0.931 . S
C55 C54 1.391 1_545 S
C55 C56 1.372 . S
C56 H15 0.930 . S
C56 C55 1.372 . S
C56 C57 1.397 1_545 S
C57 C56 1.397 1_565 S
C57 C58 1.390 . S
C57 C73 1.476 . S
C58 H16 0.930 . S
C58 C57 1.390 . S
C58 C59 1.366 . S
C59 H17 0.932 . S
C59 C54 1.365 . S
C59 C58 1.366 . S
C60 C34 1.490 . S
C60 C61 1.380 . S
C60 C65 1.386 . S
C61 H18 0.930 1_565 S
C61 C60 1.380 . S
C61 C62 1.381 . S
C62 H19 0.929 . S
C62 C61 1.381 . S
C62 C63 1.371 . S
C63 C62 1.371 . S
C63 C64 1.380 . S
C64 H20 0.931 . S
C64 C63 1.380 . S
C64 C65 1.387 . S
C65 H21 0.930 . S
C65 C60 1.386 . S
C65 C64 1.387 . S
C66 C35 1.519 1_565 S
C66 C67 1.377 1_565 S
C66 C71 1.361 . S
C67 H22 0.929 . S
C67 C66 1.377 1_545 S
C67 C68 1.386 1_545 S
C68 H23 0.931 1_565 S
C68 C67 1.386 1_565 S
C68 C69 1.363 . S
C69 C68 1.363 . S
C69 C70 1.385 . S
C70 H24 0.930 . S
C70 C69 1.385 . S
C70 C71 1.396 . S
C71 H25 0.929 . S
C71 C66 1.361 . S
C71 C70 1.396 . S
C72 O26 1.300 . S
C72 O27 1.209 . S
C72 C45 1.486 . S
C73 O28 1.199 . S
C73 O29 1.297 . S
C73 C57 1.476 . S
H74 O100 0.856 . S
H75 O103 0.854 1_545 S
H76 C111 0.930 . S
H77 C112 0.930 . S
H78 C114 0.930 . S
H79 C115 0.930 . S
H80 C117 0.931 . S
H81 C118 0.930 . S
H82 C120 0.930 . S
H83 C121 0.929 . S
H84 C123 0.930 . S
H85 C124 0.931 . S
H86 C126 0.930 . S
H87 C127 0.929 . S
H88 C129 0.931 . S
H89 C130 0.930 . S
H90 C132 0.930 . S
H91 C133 0.932 . S
H92 C135 0.930 . S
H93 C136 0.929 . S
H94 C138 0.931 . S
H95 C139 0.930 . S
H96 C141 0.929 . S
H97 C142 0.931 . S
H98 C144 0.930 . S
H99 C145 0.929 . S
O100 H74 0.856 . S
O100 C146 1.300 . S
O101 C146 1.209 . S
O102 C147 1.199 . S
O103 H75 0.854 1_565 S
O103 C147 1.297 . S
C104 C105 1.404 . S
C104 C109 1.397 . S
C104 C110 1.492 . S
C105 C104 1.404 . S
C105 C106 1.396 . S
C105 C116 1.492 . S
C106 C105 1.396 . S
C106 C107 1.397 . S
C106 C122 1.509 . S
C107 C106 1.397 . S
C107 C108 1.412 . S
C107 C128 1.485 . S
C108 C107 1.412 . S
C108 C109 1.388 . S
C108 C134 1.490 . S
C109 C104 1.397 . S
C109 C108 1.388 . S
C109 C140 1.519 . S
C110 C104 1.492 . S
C110 C111 1.363 . S
C110 C115 1.390 . S
C111 H76 0.930 . S
C111 C110 1.363 . S
C111 C112 1.372 . S
C112 H77 0.930 . S
C112 C111 1.372 . S
C112 C113 1.383 . S
C113 C112 1.383 . S
C113 C114 1.395 . S
C114 H78 0.930 . S
C114 C113 1.395 . S
C114 C115 1.362 . S
C115 H79 0.930 . S
C115 C110 1.390 . S
C115 C114 1.362 . S
C116 C105 1.492 . S
C116 C117 1.377 . S
C116 C121 1.397 . S
C117 H80 0.931 . S
C117 C116 1.377 . S
C117 C118 1.376 . S
C118 H81 0.930 . S
C118 C117 1.376 . S
C118 C119 1.376 . S
C119 C118 1.376 . S
C119 C120 1.378 . S
C119 C146 1.486 . S
C120 H82 0.930 . S
C120 C119 1.378 . S
C120 C121 1.376 . S
C121 H83 0.929 . S
C121 C116 1.397 . S
C121 C120 1.376 . S
C122 C106 1.509 . S
C122 C123 1.391 . S
C122 C127 1.386 . S
C123 H84 0.930 . S
C123 C122 1.391 . S
C123 C124 1.375 . S
C124 H85 0.931 . S
C124 C123 1.375 . S
C124 C125 1.375 . S
C125 C124 1.375 . S
C125 C126 1.361 . S
C126 H86 0.930 . S
C126 C125 1.361 . S
C126 C127 1.399 . S
C127 H87 0.929 . S
C127 C122 1.386 . S
C127 C126 1.399 . S
C128 C107 1.485 . S
C128 C129 1.394 . S
C128 C133 1.360 . S
C129 H88 0.931 . S
C129 C128 1.394 . S
C129 C130 1.372 . S
C130 H89 0.930 . S
C130 C129 1.372 . S
C130 C131 1.397 . S
C131 C130 1.397 . S
C131 C132 1.390 . S
C131 C147 1.476 . S
C132 H90 0.930 . S
C132 C131 1.390 . S
C132 C133 1.366 . S
C133 H91 0.932 . S
C133 C128 1.360 . S
C133 C132 1.366 . S
C134 C108 1.490 . S
C134 C135 1.380 . S
C134 C139 1.386 . S
C135 H92 0.930 . S
C135 C134 1.380 . S
C135 C136 1.381 . S
C136 H93 0.929 . S
C136 C135 1.381 . S
C136 C137 1.371 . S
C137 C136 1.371 . S
C137 C138 1.380 . S
C138 H94 0.931 . S
C138 C137 1.380 . S
C138 C139 1.387 . S
C139 H95 0.930 . S
C139 C134 1.386 . S
C139 C138 1.387 . S
C140 C109 1.519 . S
C140 C141 1.377 . S
C140 C145 1.361 . S
C141 H96 0.929 . S
C141 C140 1.377 . S
C141 C142 1.386 . S
C142 H97 0.931 . S
C142 C141 1.386 . S
C142 C143 1.363 . S
C143 C142 1.363 . S
C143 C144 1.385 . S
C144 H98 0.930 . S
C144 C143 1.385 . S
C144 C145 1.396 . S
C145 H99 0.929 . S
C145 C140 1.361 . S
C145 C144 1.396 . S
C146 O100 1.300 . S
C146 O101 1.209 . S
C146 C119 1.486 . S
C147 O102 1.199 . S
C147 O103 1.297 . S
C147 C131 1.476 . S
H148 O174 0.856 . S
H149 O177 0.854 . S
H150 C185 0.930 . S
H151 C186 0.930 . S
H152 C188 0.930 . S
H153 C189 0.930 . S
H154 C191 0.931 . S
H155 C192 0.930 . S
H156 C194 0.930 . S
H157 C195 0.929 . S
H158 C197 0.930 . S
H159 C198 0.931 . S
H160 C200 0.930 . S
H161 C201 0.929 . S
H162 C203 0.931 . S
H163 C204 0.930 . S
H164 C206 0.930 . S
H165 C207 0.932 . S
H166 C209 0.930 . S
H167 C210 0.929 . S
H168 C212 0.931 . S
H169 C213 0.930 . S
H170 C215 0.929 . S
H171 C216 0.931 . S
H172 C218 0.930 . S
H173 C219 0.929 . S
O174 H148 0.856 . S
O174 C220 1.300 . S
O175 C220 1.209 . S
O176 C221 1.199 . S
O177 H149 0.854 . S
O177 C221 1.297 . S
C178 C179 1.404 . S
C178 C183 1.397 . S
C178 C184 1.492 . S
C179 C178 1.404 . S
C179 C180 1.396 . S
C179 C190 1.492 . S
C180 C179 1.396 . S
C180 C181 1.397 . S
C180 C196 1.509 . S
C181 C180 1.397 . S
C181 C182 1.412 . S
C181 C202 1.485 . S
C182 C181 1.412 . S
C182 C183 1.388 . S
C182 C208 1.490 . S
C183 C178 1.397 . S
C183 C182 1.388 . S
C183 C214 1.519 . S
C184 C178 1.492 . S
C184 C185 1.363 1_545 S
C184 C189 1.390 . S
C185 H150 0.930 . S
C185 C184 1.363 1_565 S
C185 C186 1.372 . S
C186 H151 0.930 . S
C186 C185 1.372 . S
C186 C187 1.383 1_565 S
C187 C186 1.383 1_545 S
C187 C188 1.395 . S
C188 H152 0.930 . S
C188 C187 1.395 . S
C188 C189 1.362 . S
C189 H153 0.930 . S
C189 C184 1.390 . S
C189 C188 1.362 . S
C190 C179 1.492 . S
C190 C191 1.377 1_545 S
C190 C195 1.397 . S
C191 H154 0.931 . S
C191 C190 1.377 1_565 S
C191 C192 1.376 . S
C192 H155 0.930 . S
C192 C191 1.376 . S
C192 C193 1.376 . S
C193 C192 1.376 . S
C193 C194 1.378 1_565 S
C193 C220 1.486 . S
C194 H156 0.930 . S
C194 C193 1.378 1_545 S
C194 C195 1.376 . S
C195 H157 0.929 . S
C195 C190 1.397 . S
C195 C194 1.376 . S
C196 C180 1.509 . S
C196 C197 1.391 1_545 S
C196 C201 1.386 . S
C197 H158 0.930 . S
C197 C196 1.391 1_565 S
C197 C198 1.375 . S
C198 H159 0.931 . S
C198 C197 1.375 . S
C198 C199 1.375 . S
C199 C198 1.375 . S
C199 C200 1.361 1_565 S
C200 H160 0.930 . S
C200 C199 1.361 1_545 S
C200 C201 1.399 . S
C201 H161 0.929 . S
C201 C196 1.386 . S
C201 C200 1.399 . S
C202 C181 1.485 . S
C202 C203 1.394 . S
C202 C207 1.360 . S
C203 H162 0.931 . S
C203 C202 1.394 . S
C203 C204 1.372 . S
C204 H163 0.930 . S
C204 C203 1.372 . S
C204 C205 1.397 . S
C205 C204 1.397 . S
C205 C206 1.390 . S
C205 C221 1.476 . S
C206 H164 0.930 . S
C206 C205 1.390 . S
C206 C207 1.366 . S
C207 H165 0.932 . S
C207 C202 1.360 . S
C207 C206 1.366 . S
C208 C182 1.490 . S
C208 C209 1.380 . S
C208 C213 1.386 . S
C209 H166 0.930 . S
C209 C208 1.380 . S
C209 C210 1.381 1_554 S
C210 H167 0.929 . S
C210 C209 1.381 1_556 S
C210 C211 1.371 . S
C211 C210 1.371 . S
C211 C212 1.380 1_556 S
C212 H168 0.931 . S
C212 C211 1.380 1_554 S
C212 C213 1.387 . S
C213 H169 0.930 . S
C213 C208 1.386 . S
C213 C212 1.387 . S
C214 C183 1.519 . S
C214 C215 1.377 . S
C214 C219 1.361 . S
C215 H170 0.929 . S
C215 C214 1.377 . S
C215 C216 1.386 . S
C216 H171 0.931 . S
C216 C215 1.386 . S
C216 C217 1.363 . S
C217 C216 1.363 . S
C217 C218 1.385 . S
C218 H172 0.930 . S
C218 C217 1.385 . S
C218 C219 1.396 . S
C219 H173 0.929 . S
C219 C214 1.361 . S
C219 C218 1.396 . S
C220 O174 1.300 . S
C220 O175 1.209 . S
C220 C193 1.486 . S
C221 O176 1.199 . S
C221 O177 1.297 . S
C221 C205 1.476 . S
H222 O248 0.856 . S
H223 O251 0.854 . S
H224 C259 0.930 . S
H225 C260 0.930 . S
H226 C262 0.930 . S
H227 C263 0.930 . S
H228 C265 0.931 . S
H229 C266 0.930 . S
H230 C268 0.930 . S
H231 C269 0.929 . S
H232 C271 0.930 . S
H233 C272 0.931 . S
H234 C274 0.930 . S
H235 C275 0.929 . S
H236 C277 0.931 . S
H237 C278 0.930 . S
H238 C280 0.930 . S
H239 C281 0.932 . S
H240 C283 0.930 . S
H241 C284 0.929 . S
H242 C286 0.931 . S
H243 C287 0.930 . S
H244 C289 0.929 . S
H245 C290 0.931 . S
H246 C292 0.930 . S
H247 C293 0.929 . S
O248 H222 0.856 . S
O248 C294 1.300 . S
O249 C294 1.209 . S
O250 C295 1.199 . S
O251 H223 0.854 . S
O251 C295 1.297 . S
C252 C253 1.404 . S
C252 C257 1.397 . S
C252 C258 1.492 . S
C253 C252 1.404 . S
C253 C254 1.396 . S
C253 C264 1.492 . S
C254 C253 1.396 . S
C254 C255 1.397 . S
C254 C270 1.509 . S
C255 C254 1.397 . S
C255 C256 1.412 . S
C255 C276 1.485 . S
C256 C255 1.412 . S
C256 C257 1.388 . S
C256 C282 1.490 . S
C257 C252 1.397 . S
C257 C256 1.388 . S
C257 C288 1.519 . S
C258 C252 1.492 . S
C258 C259 1.363 . S
C258 C263 1.390 . S
C259 H224 0.930 . S
C259 C258 1.363 . S
C259 C260 1.372 . S
C260 H225 0.930 . S
C260 C259 1.372 . S
C260 C261 1.383 . S
C261 C260 1.383 . S
C261 C262 1.395 . S
C262 H226 0.930 . S
C262 C261 1.395 . S
C262 C263 1.362 . S
C263 H227 0.930 . S
C263 C258 1.390 . S
C263 C262 1.362 . S
C264 C253 1.492 . S
C264 C265 1.377 . S
C264 C269 1.397 . S
C265 H228 0.931 . S
C265 C264 1.377 . S
C265 C266 1.376 . S
C266 H229 0.930 . S
C266 C265 1.376 . S
C266 C267 1.376 . S
C267 C266 1.376 . S
C267 C268 1.378 . S
C267 C294 1.486 . S
C268 H230 0.930 . S
C268 C267 1.378 . S
C268 C269 1.376 . S
C269 H231 0.929 . S
C269 C264 1.397 . S
C269 C268 1.376 . S
C270 C254 1.509 . S
C270 C271 1.391 . S
C270 C275 1.386 . S
C271 H232 0.930 . S
C271 C270 1.391 . S
C271 C272 1.375 . S
C272 H233 0.931 . S
C272 C271 1.375 . S
C272 C273 1.375 . S
C273 C272 1.375 . S
C273 C274 1.361 . S
C274 H234 0.930 . S
C274 C273 1.361 . S
C274 C275 1.399 . S
C275 H235 0.929 . S
C275 C270 1.386 . S
C275 C274 1.399 . S
C276 C255 1.485 . S
C276 C277 1.394 . S
C276 C281 1.360 . S
C277 H236 0.931 . S
C277 C276 1.394 . S
C277 C278 1.372 . S
C278 H237 0.930 . S
C278 C277 1.372 . S
C278 C279 1.397 . S
C279 C278 1.397 . S
C279 C280 1.390 . S
C279 C295 1.476 . S
C280 H238 0.930 . S
C280 C279 1.390 . S
C280 C281 1.366 . S
C281 H239 0.932 . S
C281 C276 1.360 . S
C281 C280 1.366 . S
C282 C256 1.490 . S
C282 C283 1.380 . S
C282 C287 1.386 . S
C283 H240 0.930 . S
C283 C282 1.380 . S
C283 C284 1.381 . S
C284 H241 0.929 . S
C284 C283 1.381 . S
C284 C285 1.371 . S
C285 C284 1.371 . S
C285 C286 1.380 . S
C286 H242 0.931 . S
C286 C285 1.380 . S
C286 C287 1.387 . S
C287 H243 0.930 . S
C287 C282 1.386 . S
C287 C286 1.387 . S
C288 C257 1.519 . S
C288 C289 1.377 . S
C288 C293 1.361 . S
C289 H244 0.929 . S
C289 C288 1.377 . S
C289 C290 1.386 . S
C290 H245 0.931 . S
C290 C289 1.386 . S
C290 C291 1.363 . S
C291 C290 1.363 . S
C291 C292 1.385 . S
C292 H246 0.930 . S
C292 C291 1.385 . S
C292 C293 1.396 . S
C293 H247 0.929 . S
C293 C288 1.361 . S
C293 C292 1.396 . S
C294 O248 1.300 . S
C294 O249 1.209 . S
C294 C267 1.486 . S
C295 O250 1.199 . S
C295 O251 1.297 . S
C295 C279 1.476 . S
H296 O322 0.856 . S
H297 O325 0.854 . S
H298 C333 0.930 . S
H299 C334 0.930 . S
H300 C336 0.930 . S
H301 C337 0.930 . S
H302 C339 0.931 . S
H303 C340 0.930 . S
H304 C342 0.930 . S
H305 C343 0.929 . S
H306 C345 0.930 . S
H307 C346 0.931 . S
H308 C348 0.930 . S
H309 C349 0.929 . S
H310 C351 0.931 . S
H311 C352 0.930 . S
H312 C354 0.930 . S
H313 C355 0.932 . S
H314 C357 0.930 . S
H315 C358 0.929 . S
H316 C360 0.931 . S
H317 C361 0.930 . S
H318 C363 0.929 . S
H319 C364 0.931 . S
H320 C366 0.930 . S
H321 C367 0.929 . S
O322 H296 0.856 . S
O322 C368 1.300 . S
O323 C368 1.209 . S
O324 C369 1.199 . S
O325 H297 0.854 . S
O325 C369 1.297 . S
C326 C327 1.404 . S
C326 C331 1.397 . S
C326 C332 1.492 . S
C327 C326 1.404 . S
C327 C328 1.396 . S
C327 C338 1.492 . S
C328 C327 1.396 . S
C328 C329 1.397 . S
C328 C344 1.509 . S
C329 C328 1.397 . S
C329 C330 1.412 . S
C329 C350 1.485 . S
C330 C329 1.412 . S
C330 C331 1.388 . S
C330 C356 1.490 . S
C331 C326 1.397 . S
C331 C330 1.388 . S
C331 C362 1.519 . S
C332 C326 1.492 . S
C332 C333 1.363 . S
C332 C337 1.390 . S
C333 H298 0.930 . S
C333 C332 1.363 . S
C333 C334 1.372 . S
C334 H299 0.930 . S
C334 C333 1.372 . S
C334 C335 1.383 . S
C335 C334 1.383 . S
C335 C336 1.395 . S
C336 H300 0.930 . S
C336 C335 1.395 . S
C336 C337 1.362 . S
C337 H301 0.930 . S
C337 C332 1.390 . S
C337 C336 1.362 . S
C338 C327 1.492 . S
C338 C339 1.377 . S
C338 C343 1.397 . S
C339 H302 0.931 . S
C339 C338 1.377 . S
C339 C340 1.376 . S
C340 H303 0.930 . S
C340 C339 1.376 . S
C340 C341 1.376 . S
C341 C340 1.376 . S
C341 C342 1.378 . S
C341 C368 1.486 . S
C342 H304 0.930 . S
C342 C341 1.378 . S
C342 C343 1.376 . S
C343 H305 0.929 . S
C343 C338 1.397 . S
C343 C342 1.376 . S
C344 C328 1.509 . S
C344 C345 1.391 . S
C344 C349 1.386 . S
C345 H306 0.930 . S
C345 C344 1.391 . S
C345 C346 1.375 . S
C346 H307 0.931 . S
C346 C345 1.375 . S
C346 C347 1.375 . S
C347 C346 1.375 . S
C347 C348 1.361 . S
C348 H308 0.930 . S
C348 C347 1.361 . S
C348 C349 1.399 . S
C349 H309 0.929 . S
C349 C344 1.386 . S
C349 C348 1.399 . S
C350 C329 1.485 . S
C350 C351 1.394 . S
C350 C355 1.360 . S
C351 H310 0.931 . S
C351 C350 1.394 . S
C351 C352 1.372 . S
C352 H311 0.930 . S
C352 C351 1.372 . S
C352 C353 1.397 . S
C353 C352 1.397 . S
C353 C354 1.390 . S
C353 C369 1.476 . S
C354 H312 0.930 . S
C354 C353 1.390 . S
C354 C355 1.366 . S
C355 H313 0.932 . S
C355 C350 1.360 . S
C355 C354 1.366 . S
C356 C330 1.490 . S
C356 C357 1.380 . S
C356 C361 1.386 . S
C357 H314 0.930 . S
C357 C356 1.380 . S
C357 C358 1.381 . S
C358 H315 0.929 . S
C358 C357 1.381 . S
C358 C359 1.371 . S
C359 C358 1.371 . S
C359 C360 1.380 . S
C360 H316 0.931 . S
C360 C359 1.380 . S
C360 C361 1.387 . S
C361 H317 0.930 . S
C361 C356 1.386 . S
C361 C360 1.387 . S
C362 C331 1.519 . S
C362 C363 1.377 . S
C362 C367 1.361 . S
C363 H318 0.929 . S
C363 C362 1.377 . S
C363 C364 1.386 . S
C364 H319 0.931 . S
C364 C363 1.386 . S
C364 C365 1.363 . S
C365 C364 1.363 . S
C365 C366 1.385 . S
C366 H320 0.930 . S
C366 C365 1.385 . S
C366 C367 1.396 . S
C367 H321 0.929 . S
C367 C362 1.361 . S
C367 C366 1.396 . S
C368 O322 1.300 . S
C368 O323 1.209 . S
C368 C341 1.486 . S
C369 O324 1.199 . S
C369 O325 1.297 . S
C369 C353 1.476 . S
H370 O396 0.856 . S
H371 O399 0.854 . S
H372 C407 0.930 . S
H373 C408 0.930 . S
H374 C410 0.930 . S
H375 C411 0.930 . S
H376 C413 0.931 . S
H377 C414 0.930 . S
H378 C416 0.930 . S
H379 C417 0.929 . S
H380 C419 0.930 . S
H381 C420 0.931 . S
H382 C422 0.930 . S
H383 C423 0.929 . S
H384 C425 0.931 . S
H385 C426 0.930 . S
H386 C428 0.930 . S
H387 C429 0.932 . S
H388 C431 0.930 . S
H389 C432 0.929 . S
H390 C434 0.931 . S
H391 C435 0.930 . S
H392 C437 0.929 . S
H393 C438 0.931 . S
H394 C440 0.930 . S
H395 C441 0.929 . S
O396 H370 0.856 . S
O396 C442 1.300 . S
O397 C442 1.209 . S
O398 C443 1.199 . S
O399 H371 0.854 . S
O399 C443 1.297 . S
C400 C401 1.404 . S
C400 C405 1.397 . S
C400 C406 1.492 . S
C401 C400 1.404 . S
C401 C402 1.396 . S
C401 C412 1.492 . S
C402 C401 1.396 . S
C402 C403 1.397 . S
C402 C418 1.509 . S
C403 C402 1.397 . S
C403 C404 1.412 . S
C403 C424 1.485 . S
C404 C403 1.412 . S
C404 C405 1.388 . S
C404 C430 1.490 . S
C405 C400 1.397 . S
C405 C404 1.388 . S
C405 C436 1.519 . S
C406 C400 1.492 . S
C406 C407 1.363 . S
C406 C411 1.390 . S
C407 H372 0.930 . S
C407 C406 1.363 . S
C407 C408 1.372 . S
C408 H373 0.930 . S
C408 C407 1.372 . S
C408 C409 1.383 . S
C409 C408 1.383 . S
C409 C410 1.395 . S
C410 H374 0.930 . S
C410 C409 1.395 . S
C410 C411 1.362 . S
C411 H375 0.930 . S
C411 C406 1.390 . S
C411 C410 1.362 . S
C412 C401 1.492 . S
C412 C413 1.377 . S
C412 C417 1.397 . S
C413 H376 0.931 . S
C413 C412 1.377 . S
C413 C414 1.376 . S
C414 H377 0.930 . S
C414 C413 1.376 . S
C414 C415 1.376 . S
C415 C414 1.376 . S
C415 C416 1.378 . S
C415 C442 1.486 . S
C416 H378 0.930 . S
C416 C415 1.378 . S
C416 C417 1.376 . S
C417 H379 0.929 . S
C417 C412 1.397 . S
C417 C416 1.376 . S
C418 C402 1.509 . S
C418 C419 1.391 . S
C418 C423 1.386 . S
C419 H380 0.930 . S
C419 C418 1.391 . S
C419 C420 1.375 . S
C420 H381 0.931 . S
C420 C419 1.375 . S
C420 C421 1.375 . S
C421 C420 1.375 . S
C421 C422 1.361 . S
C422 H382 0.930 . S
C422 C421 1.361 . S
C422 C423 1.399 . S
C423 H383 0.929 . S
C423 C418 1.386 . S
C423 C422 1.399 . S
C424 C403 1.485 . S
C424 C425 1.394 . S
C424 C429 1.360 . S
C425 H384 0.931 . S
C425 C424 1.394 . S
C425 C426 1.372 . S
C426 H385 0.930 . S
C426 C425 1.372 . S
C426 C427 1.397 . S
C427 C426 1.397 . S
C427 C428 1.390 . S
C427 C443 1.476 . S
C428 H386 0.930 . S
C428 C427 1.390 . S
C428 C429 1.366 . S
C429 H387 0.932 . S
C429 C424 1.360 . S
C429 C428 1.366 . S
C430 C404 1.490 . S
C430 C431 1.380 . S
C430 C435 1.386 . S
C431 H388 0.930 . S
C431 C430 1.380 . S
C431 C432 1.381 . S
C432 H389 0.929 . S
C432 C431 1.381 . S
C432 C433 1.371 . S
C433 C432 1.371 . S
C433 C434 1.380 . S
C434 H390 0.931 . S
C434 C433 1.380 . S
C434 C435 1.387 . S
C435 H391 0.930 . S
C435 C430 1.386 . S
C435 C434 1.387 . S
C436 C405 1.519 . S
C436 C437 1.377 . S
C436 C441 1.361 . S
C437 H392 0.929 . S
C437 C436 1.377 . S
C437 C438 1.386 . S
C438 H393 0.931 . S
C438 C437 1.386 . S
C438 C439 1.363 . S
C439 C438 1.363 . S
C439 C440 1.385 . S
C440 H394 0.930 . S
C440 C439 1.385 . S
C440 C441 1.396 . S
C441 H395 0.929 . S
C441 C436 1.361 . S
C441 C440 1.396 . S
C442 O396 1.300 . S
C442 O397 1.209 . S
C442 C415 1.486 . S
C443 O398 1.199 . S
C443 O399 1.297 . S
C443 C427 1.476 . S
H444 O470 0.856 . S
H445 O473 0.854 . S
H446 C481 0.930 . S
H447 C482 0.919 1_556 S
H448 C484 0.930 . S
H449 C485 0.930 . S
H450 C487 0.931 . S
H451 C488 0.930 . S
H452 C490 0.930 . S
H453 C491 0.929 . S
H454 C493 0.930 . S
H455 C494 0.931 . S
H456 C496 0.930 . S
H457 C497 0.929 . S
H458 C499 0.931 . S
H459 C500 0.930 . S
H460 C502 0.930 . S
H461 C503 0.932 . S
H462 C505 0.930 . S
H463 C506 0.929 . S
H464 C508 0.931 . S
H465 C509 0.930 . S
H466 C511 0.929 . S
H467 C512 0.931 . S
H468 C514 0.930 . S
H469 C515 0.929 . S
O470 H444 0.856 . S
O470 C516 1.300 . S
O471 C516 1.209 . S
O472 C517 1.199 . S
O473 H445 0.854 . S
O473 C517 1.297 . S
C474 C475 1.404 . S
C474 C479 1.397 . S
C474 C480 1.492 . S
C475 C474 1.404 . S
C475 C476 1.396 . S
C475 C486 1.492 . S
C476 C475 1.396 . S
C476 C477 1.397 . S
C476 C492 1.509 . S
C477 C476 1.397 . S
C477 C478 1.412 . S
C477 C498 1.485 . S
C478 C477 1.412 . S
C478 C479 1.388 . S
C478 C504 1.490 . S
C479 C474 1.397 . S
C479 C478 1.388 . S
C479 C510 1.519 . S
C480 C474 1.492 . S
C480 C481 1.363 . S
C480 C485 1.390 . S
C481 H446 0.930 . S
C481 C480 1.363 . S
C481 C482 1.372 . S
C482 H447 0.919 1_554 S
C482 C481 1.372 . S
C482 C483 1.383 . S
C483 C482 1.383 . S
C483 C484 1.395 . S
C484 H448 0.930 . S
C484 C483 1.395 . S
C484 C485 1.362 . S
C485 H449 0.930 . S
C485 C480 1.390 . S
C485 C484 1.362 . S
C486 C475 1.492 . S
C486 C487 1.377 1_554 S
C486 C491 1.397 . S
C487 H450 0.931 . S
C487 C486 1.377 1_556 S
C487 C488 1.376 . S
C488 H451 0.930 . S
C488 C487 1.376 . S
C488 C489 1.376 . S
C489 C488 1.376 . S
C489 C490 1.378 . S
C489 C516 1.486 . S
C490 H452 0.930 . S
C490 C489 1.378 . S
C490 C491 1.376 1_556 S
C491 H453 0.929 . S
C491 C486 1.397 . S
C491 C490 1.376 1_554 S
C492 C476 1.509 . S
C492 C493 1.391 . S
C492 C497 1.386 . S
C493 H454 0.930 . S
C493 C492 1.391 . S
C493 C494 1.375 1_554 S
C494 H455 0.931 . S
C494 C493 1.375 1_556 S
C494 C495 1.375 . S
C495 C494 1.375 . S
C495 C496 1.361 1_556 S
C496 H456 0.930 . S
C496 C495 1.361 1_554 S
C496 C497 1.399 . S
C497 H457 0.929 . S
C497 C492 1.386 . S
C497 C496 1.399 . S
C498 C477 1.485 . S
C498 C499 1.394 . S
C498 C503 1.360 . S
C499 H458 0.931 . S
C499 C498 1.394 . S
C499 C500 1.372 . S
C500 H459 0.930 . S
C500 C499 1.372 . S
C500 C501 1.397 . S
C501 C500 1.397 . S
C501 C502 1.390 . S
C501 C517 1.476 . S
C502 H460 0.930 . S
C502 C501 1.390 . S
C502 C503 1.366 . S
C503 H461 0.932 . S
C503 C498 1.360 . S
C503 C502 1.366 . S
C504 C478 1.490 . S
C504 C505 1.380 . S
C504 C509 1.386 . S
C505 H462 0.930 . S
C505 C504 1.380 . S
C505 C506 1.381 . S
C506 H463 0.929 . S
C506 C505 1.381 . S
C506 C507 1.371 . S
C507 C506 1.371 . S
C507 C508 1.380 . S
C508 H464 0.931 . S
C508 C507 1.380 . S
C508 C509 1.387 . S
C509 H465 0.930 . S
C509 C504 1.386 . S
C509 C508 1.387 . S
C510 C479 1.519 . S
C510 C511 1.377 . S
C510 C515 1.361 . S
C511 H466 0.929 . S
C511 C510 1.377 . S
C511 C512 1.386 . S
C512 H467 0.931 . S
C512 C511 1.386 . S
C512 C513 1.363 . S
C513 C512 1.363 . S
C513 C514 1.385 . S
C514 H468 0.930 . S
C514 C513 1.385 . S
C514 C515 1.396 . S
C515 H469 0.929 . S
C515 C510 1.361 . S
C515 C514 1.396 . S
C516 O470 1.300 . S
C516 O471 1.209 . S
C516 C489 1.486 . S
C517 O472 1.199 . S
C517 O473 1.297 . S
C517 C501 1.476 . S
H518 O544 0.856 . S
H519 O547 0.854 . S
H520 C555 0.930 . S
H521 C556 0.930 . S
H522 C558 0.919 1_655 S
H523 C559 0.930 . S
H524 C561 0.931 . S
H525 C562 0.930 . S
H526 C564 0.930 . S
H527 C565 0.929 . S
H528 C567 0.930 . S
H529 C568 0.931 . S
H530 C570 0.930 . S
H531 C571 0.929 . S
H532 C573 0.931 . S
H533 C574 0.930 . S
H534 C576 0.930 . S
H535 C577 0.932 . S
H536 C579 0.930 . S
H537 C580 0.929 . S
H538 C582 0.931 . S
H539 C583 0.930 . S
H540 C585 0.929 . S
H541 C586 0.931 . S
H542 C588 0.930 . S
H543 C589 0.929 . S
O544 H518 0.856 . S
O544 C590 1.300 . S
O545 C590 1.209 . S
O546 C591 1.199 . S
O547 H519 0.854 . S
O547 C591 1.297 . S
C548 C549 1.404 . S
C548 C553 1.397 . S
C548 C554 1.492 . S
C549 C548 1.404 . S
C549 C550 1.396 . S
C549 C560 1.492 . S
C550 C549 1.396 . S
C550 C551 1.397 . S
C550 C566 1.509 . S
C551 C550 1.397 . S
C551 C552 1.412 . S
C551 C572 1.485 . S
C552 C551 1.412 . S
C552 C553 1.388 . S
C552 C578 1.490 . S
C553 C548 1.397 . S
C553 C552 1.388 . S
C553 C584 1.519 . S
C554 C548 1.492 . S
C554 C555 1.363 . S
C554 C559 1.390 . S
C555 H520 0.930 . S
C555 C554 1.363 . S
C555 C556 1.372 . S
C556 H521 0.930 . S
C556 C555 1.372 . S
C556 C557 1.383 . S
C557 C556 1.383 . S
C557 C558 1.395 . S
C558 H522 0.919 1_455 S
C558 C557 1.395 . S
C558 C559 1.362 . S
C559 H523 0.930 . S
C559 C554 1.390 . S
C559 C558 1.362 . S
C560 C549 1.492 . S
C560 C561 1.377 . S
C560 C565 1.397 . S
C561 H524 0.931 . S
C561 C560 1.377 . S
C561 C562 1.376 . S
C562 H525 0.930 . S
C562 C561 1.376 . S
C562 C563 1.376 . S
C563 C562 1.376 . S
C563 C564 1.378 . S
C563 C590 1.486 . S
C564 H526 0.930 . S
C564 C563 1.378 . S
C564 C565 1.376 . S
C565 H527 0.929 . S
C565 C560 1.397 . S
C565 C564 1.376 . S
C566 C550 1.509 . S
C566 C567 1.391 . S
C566 C571 1.386 . S
C567 H528 0.930 . S
C567 C566 1.391 . S
C567 C568 1.375 . S
C568 H529 0.931 . S
C568 C567 1.375 . S
C568 C569 1.375 . S
C569 C568 1.375 . S
C569 C570 1.361 . S
C570 H530 0.930 . S
C570 C569 1.361 . S
C570 C571 1.399 . S
C571 H531 0.929 . S
C571 C566 1.386 . S
C571 C570 1.399 . S
C572 C551 1.485 . S
C572 C573 1.394 . S
C572 C577 1.360 . S
C573 H532 0.931 . S
C573 C572 1.394 . S
C573 C574 1.372 . S
C574 H533 0.930 . S
C574 C573 1.372 . S
C574 C575 1.397 . S
C575 C574 1.397 . S
C575 C576 1.390 . S
C575 C591 1.476 . S
C576 H534 0.930 . S
C576 C575 1.390 . S
C576 C577 1.366 . S
C577 H535 0.932 . S
C577 C572 1.360 . S
C577 C576 1.366 . S
C578 C552 1.490 . S
C578 C579 1.380 . S
C578 C583 1.386 . S
C579 H536 0.930 . S
C579 C578 1.380 . S
C579 C580 1.381 . S
C580 H537 0.929 . S
C580 C579 1.381 . S
C580 C581 1.371 . S
C581 C580 1.371 . S
C581 C582 1.380 . S
C582 H538 0.931 . S
C582 C581 1.380 . S
C582 C583 1.387 . S
C583 H539 0.930 . S
C583 C578 1.386 . S
C583 C582 1.387 . S
C584 C553 1.519 . S
C584 C585 1.377 . S
C584 C589 1.361 . S
C585 H540 0.929 . S
C585 C584 1.377 . S
C585 C586 1.386 . S
C586 H541 0.931 . S
C586 C585 1.386 . S
C586 C587 1.363 . S
C587 C586 1.363 . S
C587 C588 1.385 . S
C588 H542 0.930 . S
C588 C587 1.385 . S
C588 C589 1.396 . S
C589 H543 0.929 . S
C589 C584 1.361 . S
C589 C588 1.396 . S
C590 O544 1.300 . S
C590 O545 1.209 . S
C590 C563 1.486 . S
C591 O546 1.199 . S
C591 O547 1.297 . S
C591 C575 1.476 . S
C592 O619 1.312 . S
C592 O620 1.208 . S
C593 O614 1.331 1_655 S
C593 O617 1.244 . S
C594 O616 1.264 1_655 S
C594 O618 1.273 . S
Mg595 O597 1.936 . S
Mg595 O604 2.081 . S
Mg595 O606 2.023 . S
Mg595 O610 2.031 . S
Mg595 O619 2.291 . S
Mg596 O597 1.963 . S
Mg596 O607 1.942 . S
Mg596 O608 1.955 . S
Mg596 O615 1.986 . S
O597 Mg595 1.936 . S
O597 Mg596 1.963 . S
O597 Mg598 1.915 . S
Mg598 O597 1.915 . S
Mg598 O599 1.915 . S
Mg598 O603 2.013 . S
Mg598 O609 2.114 . S
Mg598 O613 2.013 . S
Mg598 O619 2.114 . S
O599 Mg598 1.915 . S
O599 Mg600 1.936 . S
O599 Mg601 1.963 1_455 S
Mg600 O599 1.936 . S
Mg600 O609 2.291 . S
Mg600 O614 2.081 . S
Mg600 O616 2.023 . S
Mg600 O620 2.031 . S
Mg601 O599 1.963 1_655 S
Mg601 O605 1.986 . S
Mg601 O617 1.942 . S
Mg601 O618 1.955 . S
C602 O613 1.191 . S
C602 O615 1.307 . S
O603 Mg598 2.013 . S
O603 C622 1.191 . S
O604 Mg595 2.081 . S
O604 C612 1.331 . S
O605 Mg601 1.986 . S
O605 C622 1.307 1_655 S
O606 Mg595 2.023 . S
O606 C621 1.264 . S
O607 Mg596 1.942 . S
O607 C612 1.244 . S
O608 Mg596 1.955 . S
O608 C621 1.273 . S
O609 Mg598 2.114 . S
O609 Mg600 2.291 . S
O609 C611 1.312 . S
O610 Mg595 2.031 . S
O610 C611 1.208 . S
C611 O609 1.312 . S
C611 O610 1.208 . S
C612 O604 1.331 . S
C612 O607 1.244 . S
O613 Mg598 2.013 . S
O613 C602 1.191 . S
O614 C593 1.331 1_455 S
O614 Mg600 2.081 . S
O615 Mg596 1.986 . S
O615 C602 1.307 . S
O616 C594 1.264 1_455 S
O616 Mg600 2.023 . S
O617 C593 1.244 . S
O617 Mg601 1.942 . S
O618 C594 1.273 . S
O618 Mg601 1.955 . S
O619 C592 1.312 . S
O619 Mg595 2.291 . S
O619 Mg598 2.114 . S
O620 C592 1.208 . S
O620 Mg600 2.031 . S
C621 O606 1.264 . S
C621 O608 1.273 . S
C622 O603 1.191 . S
C622 O605 1.307 1_455 S
C623 O650 1.312 . S
C623 O651 1.208 . S
C624 O645 1.331 . S
C624 O648 1.244 . S
C625 O647 1.264 . S
C625 O649 1.273 . S
Mg626 O628 1.936 . S
Mg626 O635 2.081 . S
Mg626 O637 2.023 . S
Mg626 O641 2.031 . S
Mg626 O650 2.291 . S
Mg627 O628 1.963 . S
Mg627 O638 1.942 . S
Mg627 O639 1.955 . S
Mg627 O646 1.986 . S
O628 Mg626 1.936 . S
O628 Mg627 1.963 . S
O628 Mg629 1.915 . S
Mg629 O628 1.915 . S
Mg629 O630 1.915 . S
Mg629 O634 2.013 . S
Mg629 O640 2.114 . S
Mg629 O644 2.013 . S
Mg629 O650 2.114 . S
O630 Mg629 1.915 . S
O630 Mg631 1.936 . S
O630 Mg632 1.963 . S
Mg631 O630 1.936 . S
Mg631 O640 2.291 . S
Mg631 O645 2.081 . S
Mg631 O647 2.023 . S
Mg631 O651 2.031 . S
Mg632 O630 1.963 . S
Mg632 O636 1.986 . S
Mg632 O648 1.942 . S
Mg632 O649 1.955 . S
C633 O644 1.191 . S
C633 O646 1.307 . S
O634 Mg629 2.013 . S
O634 C653 1.191 . S
O635 Mg626 2.081 . S
O635 C643 1.331 . S
O636 Mg632 1.986 . S
O636 C653 1.307 . S
O637 Mg626 2.023 . S
O637 C652 1.264 . S
O638 Mg627 1.942 . S
O638 C643 1.244 . S
O639 Mg627 1.955 . S
O639 C652 1.273 . S
O640 Mg629 2.114 . S
O640 Mg631 2.291 . S
O640 C642 1.312 . S
O641 Mg626 2.031 . S
O641 C642 1.208 . S
C642 O640 1.312 . S
C642 O641 1.208 . S
C643 O635 1.331 . S
C643 O638 1.244 . S
O644 Mg629 2.013 . S
O644 C633 1.191 . S
O645 C624 1.331 . S
O645 Mg631 2.081 . S
O646 Mg627 1.986 . S
O646 C633 1.307 . S
O647 C625 1.264 . S
O647 Mg631 2.023 . S
O648 C624 1.244 . S
O648 Mg632 1.942 . S
O649 C625 1.273 . S
O649 Mg632 1.955 . S
O650 C623 1.312 . S
O650 Mg626 2.291 . S
O650 Mg629 2.114 . S
O651 C623 1.208 . S
O651 Mg631 2.031 . S
C652 O637 1.264 . S
C652 O639 1.273 . S
C653 O634 1.191 . S
C653 O636 1.307 . S
C654 O681 1.312 . S
C654 O682 1.208 . S
C655 O676 1.331 . S
C655 O679 1.244 . S
C656 O678 1.264 . S
C656 O680 1.273 . S
Mg657 O659 1.936 . S
Mg657 O666 2.081 . S
Mg657 O668 2.023 . S
Mg657 O672 2.031 . S
Mg657 O681 2.291 . S
Mg658 O659 1.963 . S
Mg658 O669 1.942 . S
Mg658 O670 1.955 . S
Mg658 O677 1.986 . S
O659 Mg657 1.936 . S
O659 Mg658 1.963 . S
O659 Mg660 1.915 . S
Mg660 O659 1.915 . S
Mg660 O661 1.915 . S
Mg660 O665 2.013 . S
Mg660 O671 2.114 . S
Mg660 O675 2.013 . S
Mg660 O681 2.114 . S
O661 Mg660 1.915 . S
O661 Mg662 1.936 . S
O661 Mg663 1.963 . S
Mg662 O661 1.936 . S
Mg662 O671 2.291 . S
Mg662 O676 2.081 . S
Mg662 O678 2.023 . S
Mg662 O682 2.031 . S
Mg663 O661 1.963 . S
Mg663 O667 1.986 . S
Mg663 O679 1.942 . S
Mg663 O680 1.955 . S
C664 O675 1.191 . S
C664 O677 1.307 . S
O665 Mg660 2.013 . S
O665 C684 1.191 . S
O666 Mg657 2.081 . S
O666 C674 1.331 . S
O667 Mg663 1.986 . S
O667 C684 1.307 . S
O668 Mg657 2.023 . S
O668 C683 1.264 . S
O669 Mg658 1.942 . S
O669 C674 1.244 . S
O670 Mg658 1.955 . S
O670 C683 1.273 . S
O671 Mg660 2.114 . S
O671 Mg662 2.291 . S
O671 C673 1.312 . S
O672 Mg657 2.031 . S
O672 C673 1.208 . S
C673 O671 1.312 . S
C673 O672 1.208 . S
C674 O666 1.331 . S
C674 O669 1.244 . S
O675 Mg660 2.013 . S
O675 C664 1.191 . S
O676 C655 1.331 . S
O676 Mg662 2.081 . S
O677 Mg658 1.986 . S
O677 C664 1.307 . S
O678 C656 1.264 . S
O678 Mg662 2.023 . S
O679 C655 1.244 . S
O679 Mg663 1.942 . S
O680 C656 1.273 . S
O680 Mg663 1.955 . S
O681 C654 1.312 . S
O681 Mg657 2.291 . S
O681 Mg660 2.114 . S
O682 C654 1.208 . S
O682 Mg662 2.031 . S
C683 O668 1.264 . S
C683 O670 1.273 . S
C684 O665 1.191 . S
C684 O667 1.307 . S
C685 O712 1.312 . S
C685 O713 1.208 . S
C686 O707 1.331 . S
C686 O710 1.244 . S
C687 O709 1.264 . S
C687 O711 1.273 . S
Mg688 O690 1.936 . S
Mg688 O697 2.081 . S
Mg688 O699 2.023 . S
Mg688 O703 2.031 . S
Mg688 O712 2.291 . S
Mg689 O690 1.963 1_655 S
Mg689 O700 1.942 . S
Mg689 O701 1.955 . S
Mg689 O708 1.986 . S
O690 Mg688 1.936 . S
O690 Mg689 1.963 1_455 S
O690 Mg691 1.915 . S
Mg691 O690 1.915 . S
Mg691 O692 1.915 . S
Mg691 O696 2.013 . S
Mg691 O702 2.114 . S
Mg691 O706 2.013 . S
Mg691 O712 2.114 . S
O692 Mg691 1.915 . S
O692 Mg693 1.936 . S
O692 Mg694 1.963 . S
Mg693 O692 1.936 . S
Mg693 O702 2.291 . S
Mg693 O707 2.081 . S
Mg693 O709 2.023 . S
Mg693 O713 2.031 . S
Mg694 O692 1.963 . S
Mg694 O698 1.986 . S
Mg694 O710 1.942 . S
Mg694 O711 1.955 . S
C695 O706 1.191 . S
C695 O708 1.307 1_455 S
O696 Mg691 2.013 . S
O696 C715 1.191 . S
O697 Mg688 2.081 . S
O697 C705 1.331 1_455 S
O698 Mg694 1.986 . S
O698 C715 1.307 . S
O699 Mg688 2.023 . S
O699 C714 1.264 1_455 S
O700 Mg689 1.942 . S
O700 C705 1.244 . S
O701 Mg689 1.955 . S
O701 C714 1.273 . S
O702 Mg691 2.114 . S
O702 Mg693 2.291 . S
O702 C704 1.312 . S
O703 Mg688 2.031 . S
O703 C704 1.208 . S
C704 O702 1.312 . S
C704 O703 1.208 . S
C705 O697 1.331 1_655 S
C705 O700 1.244 . S
O706 Mg691 2.013 . S
O706 C695 1.191 . S
O707 C686 1.331 . S
O707 Mg693 2.081 . S
O708 Mg689 1.986 . S
O708 C695 1.307 1_655 S
O709 C687 1.264 . S
O709 Mg693 2.023 . S
O710 C686 1.244 . S
O710 Mg694 1.942 . S
O711 C687 1.273 . S
O711 Mg694 1.955 . S
O712 C685 1.312 . S
O712 Mg688 2.291 . S
O712 Mg691 2.114 . S
O713 C685 1.208 . S
O713 Mg693 2.031 . S
C714 O699 1.264 1_655 S
C714 O701 1.273 . S
C715 O696 1.191 . S
C715 O698 1.307 . S
H716 C724 0.929 . S
H717 C726 0.930 . S
H718 C728 0.930 . S
H719 C731 0.929 . S
H720 C734 0.930 . S
H721 C736 0.960 . S
H722 C736 0.960 . S
H723 C736 0.960 . S
C724 H716 0.929 . S
C724 C725 1.377 . S
C724 C726 1.384 . S
C725 C724 1.377 . S
C725 C731 1.390 . S
C726 H717 0.930 . S
C726 C724 1.384 . S
C726 C727 1.372 . S
C727 C726 1.372 . S
C727 C728 1.400 . S
C727 C732 1.490 . S
C728 H718 0.930 . S
C728 C727 1.400 . S
C728 C731 1.386 . S
H729 C745 0.930 . S
H730 C746 0.931 . S
C731 H719 0.929 . S
C731 C725 1.390 . S
C731 C728 1.386 . S
C732 C727 1.490 . S
C732 C734 1.395 . S
C732 C735 1.403 . S
H733 C739 0.930 . S
C734 H720 0.930 . S
C734 C732 1.395 . S
C734 C737 1.403 . S
C735 C732 1.403 . S
C735 C736 1.524 . S
C735 C739 1.400 . S
C736 H721 0.960 . S
C736 H722 0.960 . S
C736 H723 0.960 . S
C736 C735 1.524 . S
C737 C734 1.403 . S
C737 C738 1.392 . S
C737 C741 1.495 . S
C738 C737 1.392 . S
C738 C739 1.385 . S
C738 C740 1.478 . S
C739 H733 0.930 . S
C739 C735 1.400 . S
C739 C738 1.385 . S
C740 C738 1.478 . S
C740 C742 1.381 . S
C740 C746 1.383 . S
C741 C737 1.495 . S
C741 H747 0.959 . S
C741 H748 0.961 . S
C741 H749 0.960 . S
C742 C740 1.381 . S
C742 C743 1.394 . S
C742 H750 0.930 . S
C743 C742 1.394 . S
C743 C744 1.383 . S
C743 H751 0.929 . S
C744 C743 1.383 . S
C744 C745 1.377 . S
C745 H729 0.930 . S
C745 C744 1.377 . S
C745 C746 1.379 . S
C746 H730 0.931 . S
C746 C740 1.383 . S
C746 C745 1.379 . S
H747 C741 0.959 . S
H748 C741 0.961 . S
H749 C741 0.960 . S
H750 C742 0.930 . S
H751 C743 0.929 . S
H752 C760 0.929 . S
H753 C762 0.930 . S
H754 C764 0.930 . S
H755 C767 0.929 . S
H756 C770 0.930 . S
H757 C772 0.960 . S
H758 C772 0.960 . S
H759 C772 0.960 . S
C760 H752 0.929 . S
C760 C761 1.377 . S
C760 C762 1.384 . S
C761 C760 1.377 . S
C761 C767 1.390 . S
C762 H753 0.930 . S
C762 C760 1.384 . S
C762 C763 1.372 . S
C763 C762 1.372 . S
C763 C764 1.400 . S
C763 C768 1.490 . S
C764 H754 0.930 . S
C764 C763 1.400 . S
C764 C767 1.386 . S
H765 C781 0.930 . S
H766 C782 0.931 . S
C767 H755 0.929 . S
C767 C761 1.390 . S
C767 C764 1.386 . S
C768 C763 1.490 . S
C768 C770 1.395 1_565 S
C768 C771 1.403 . S
H769 C775 0.930 . S
C770 H756 0.930 . S
C770 C768 1.395 1_545 S
C770 C773 1.403 . S
C771 C768 1.403 . S
C771 C772 1.524 . S
C771 C775 1.400 1_565 S
C772 H757 0.960 . S
C772 H758 0.960 . S
C772 H759 0.960 . S
C772 C771 1.524 . S
C773 C770 1.403 . S
C773 C774 1.392 . S
C773 C777 1.495 . S
C774 C773 1.392 . S
C774 C775 1.385 . S
C774 C776 1.478 . S
C775 H769 0.930 . S
C775 C771 1.400 1_545 S
C775 C774 1.385 . S
C776 C774 1.478 . S
C776 C778 1.381 . S
C776 C782 1.383 . S
C777 C773 1.495 . S
C777 H783 0.959 . S
C777 H784 0.961 . S
C777 H785 0.960 . S
C778 C776 1.381 . S
C778 C779 1.394 . S
C778 H786 0.930 . S
C779 C778 1.394 . S
C779 C780 1.383 . S
C779 H787 0.929 . S
C780 C779 1.383 . S
C780 C781 1.377 . S
C781 H765 0.930 . S
C781 C780 1.377 . S
C781 C782 1.379 . S
C782 H766 0.931 . S
C782 C776 1.383 . S
C782 C781 1.379 . S
H783 C777 0.959 . S
H784 C777 0.961 . S
H785 C777 0.960 . S
H786 C778 0.930 . S
H787 C779 0.929 . S
H788 C796 0.929 . S
H789 C798 0.930 . S
H790 C800 0.930 1_554 S
H791 C803 0.929 . S
H792 C806 0.930 . S
H793 C808 0.960 . S
H794 C808 0.960 . S
H795 C808 0.960 . S
C796 H788 0.929 . S
C796 C797 1.377 1_556 S
C796 C798 1.384 . S
C797 C796 1.377 1_554 S
C797 C803 1.390 . S
C798 H789 0.930 . S
C798 C796 1.384 . S
C798 C799 1.372 . S
C799 C798 1.372 . S
C799 C800 1.400 . S
C799 C804 1.490 . S
C800 H790 0.930 1_556 S
C800 C799 1.400 . S
C800 C803 1.386 1_556 S
H801 C817 0.930 . S
H802 C818 0.931 . S
C803 H791 0.929 . S
C803 C797 1.390 . S
C803 C800 1.386 1_554 S
C804 C799 1.490 . S
C804 C806 1.395 . S
C804 C807 1.403 . S
H805 C811 0.930 . S
C806 H792 0.930 . S
C806 C804 1.395 . S
C806 C809 1.403 . S
C807 C804 1.403 . S
C807 C808 1.524 . S
C807 C811 1.400 . S
C808 H793 0.960 . S
C808 H794 0.960 . S
C808 H795 0.960 . S
C808 C807 1.524 . S
C809 C806 1.403 . S
C809 C810 1.392 . S
C809 C813 1.495 . S
C810 C809 1.392 . S
C810 C811 1.385 . S
C810 C812 1.478 . S
C811 H805 0.930 . S
C811 C807 1.400 . S
C811 C810 1.385 . S
C812 C810 1.478 . S
C812 C814 1.381 . S
C812 C818 1.383 . S
C813 C809 1.495 . S
C813 H819 0.959 . S
C813 H820 0.961 . S
C813 H821 0.960 . S
C814 C812 1.381 . S
C814 C815 1.394 . S
C814 H822 0.930 . S
C815 C814 1.394 . S
C815 C816 1.383 . S
C815 H823 0.929 . S
C816 C815 1.383 . S
C816 C817 1.377 . S
C817 H801 0.930 . S
C817 C816 1.377 . S
C817 C818 1.379 . S
C818 H802 0.931 . S
C818 C812 1.383 . S
C818 C817 1.379 . S
H819 C813 0.959 . S
H820 C813 0.961 . S
H821 C813 0.960 . S
H822 C814 0.930 . S
H823 C815 0.929 . S
H824 C832 0.929 . S
H825 C834 0.930 . S
H826 C836 0.930 . S
H827 C839 0.929 . S
H828 C842 0.930 . S
H829 C844 0.960 1_565 S
H830 C844 0.960 . S
H831 C844 0.960 . S
C832 H824 0.929 . S
C832 C833 1.377 . S
C832 C834 1.384 . S
C833 C832 1.377 . S
C833 C839 1.390 . S
C834 H825 0.930 . S
C834 C832 1.384 . S
C834 C835 1.372 . S
C835 C834 1.372 . S
C835 C836 1.400 . S
C835 C840 1.490 . S
C836 H826 0.930 . S
C836 C835 1.400 . S
C836 C839 1.386 . S
H837 C853 0.930 . S
H838 C854 0.931 . S
C839 H827 0.929 . S
C839 C833 1.390 . S
C839 C836 1.386 . S
C840 C835 1.490 . S
C840 C842 1.395 . S
C840 C843 1.403 . S
H841 C847 0.930 . S
C842 H828 0.930 . S
C842 C840 1.395 . S
C842 C845 1.403 . S
C843 C840 1.403 . S
C843 C844 1.524 . S
C843 C847 1.400 1_545 S
C844 H829 0.960 1_545 S
C844 H830 0.960 . S
C844 H831 0.960 . S
C844 C843 1.524 . S
C845 C842 1.403 . S
C845 C846 1.392 . S
C845 C849 1.495 . S
C846 C845 1.392 . S
C846 C847 1.385 1_545 S
C846 C848 1.478 1_545 S
C847 H841 0.930 . S
C847 C843 1.400 1_565 S
C847 C846 1.385 1_565 S
C848 C846 1.478 1_565 S
C848 C850 1.381 . S
C848 C854 1.383 . S
C849 C845 1.495 . S
C849 H855 0.959 . S
C849 H856 0.961 . S
C849 H857 0.960 . S
C850 C848 1.381 . S
C850 C851 1.394 . S
C850 H858 0.930 . S
C851 C850 1.394 . S
C851 C852 1.383 . S
C851 H859 0.929 . S
C852 C851 1.383 . S
C852 C853 1.377 . S
C853 H837 0.930 . S
C853 C852 1.377 . S
C853 C854 1.379 . S
C854 H838 0.931 . S
C854 C848 1.383 . S
C854 C853 1.379 . S
H855 C849 0.959 . S
H856 C849 0.961 . S
H857 C849 0.960 . S
H858 C850 0.930 . S
H859 C851 0.929 . S
H860 C868 0.929 . S
H861 C870 0.930 . S
H862 C872 0.930 . S
H863 C875 0.929 . S
H864 C878 0.930 . S
H865 C880 0.960 . S
H866 C880 0.960 . S
H867 C880 0.960 . S
C868 H860 0.929 . S
C868 C869 1.377 . S
C868 C870 1.384 . S
C869 C868 1.377 . S
C869 C875 1.390 . S
C870 H861 0.930 . S
C870 C868 1.384 . S
C870 C871 1.372 . S
C871 C870 1.372 . S
C871 C872 1.400 . S
C871 C876 1.490 . S
C872 H862 0.930 . S
C872 C871 1.400 . S
C872 C875 1.386 . S
H873 C889 0.930 . S
H874 C890 0.931 . S
C875 H863 0.929 . S
C875 C869 1.390 . S
C875 C872 1.386 . S
C876 C871 1.490 . S
C876 C878 1.395 . S
C876 C879 1.403 . S
H877 C883 0.930 . S
C878 H864 0.930 . S
C878 C876 1.395 . S
C878 C881 1.403 . S
C879 C876 1.403 . S
C879 C880 1.524 . S
C879 C883 1.400 . S
C880 H865 0.960 . S
C880 H866 0.960 . S
C880 H867 0.960 . S
C880 C879 1.524 . S
C881 C878 1.403 . S
C881 C882 1.392 . S
C881 C885 1.495 . S
C882 C881 1.392 . S
C882 C883 1.385 . S
C882 C884 1.478 . S
C883 H877 0.930 . S
C883 C879 1.400 . S
C883 C882 1.385 . S
C884 C882 1.478 . S
C884 C886 1.381 . S
C884 C890 1.383 . S
C885 C881 1.495 . S
C885 H891 0.959 . S
C885 H892 0.961 . S
C885 H893 0.960 . S
C886 C884 1.381 . S
C886 C887 1.394 . S
C886 H894 0.930 . S
C887 C886 1.394 . S
C887 C888 1.383 . S
C887 H895 0.929 . S
C888 C887 1.383 . S
C888 C889 1.377 . S
C889 H873 0.930 . S
C889 C888 1.377 . S
C889 C890 1.379 . S
C890 H874 0.931 . S
C890 C884 1.383 . S
C890 C889 1.379 . S
H891 C885 0.959 . S
H892 C885 0.961 . S
H893 C885 0.960 . S
H894 C886 0.930 . S
H895 C887 0.929 . S
H896 C904 0.929 . S
H897 C906 0.930 . S
H898 C908 0.930 . S
H899 C911 0.929 . S
H900 C914 0.930 . S
H901 C916 0.960 1_545 S
H902 C916 0.960 . S
H903 C916 0.960 . S
C904 H896 0.929 . S
C904 C905 1.377 . S
C904 C906 1.384 . S
C905 C904 1.377 . S
C905 C911 1.390 . S
C906 H897 0.930 . S
C906 C904 1.384 . S
C906 C907 1.372 . S
C907 C906 1.372 . S
C907 C908 1.400 . S
C907 C912 1.490 . S
C908 H898 0.930 . S
C908 C907 1.400 . S
C908 C911 1.386 . S
H909 C925 0.930 . S
H910 C926 0.931 . S
C911 H899 0.929 . S
C911 C905 1.390 . S
C911 C908 1.386 . S
C912 C907 1.490 . S
C912 C914 1.395 . S
C912 C915 1.403 . S
H913 C919 0.930 . S
C914 H900 0.930 . S
C914 C912 1.395 . S
C914 C917 1.403 . S
C915 C912 1.403 . S
C915 C916 1.524 . S
C915 C919 1.400 1_565 S
C916 H901 0.960 1_565 S
C916 H902 0.960 . S
C916 H903 0.960 . S
C916 C915 1.524 . S
C917 C914 1.403 . S
C917 C918 1.392 1_565 S
C917 C921 1.495 . S
C918 C917 1.392 1_545 S
C918 C919 1.385 . S
C918 C920 1.478 . S
C919 H913 0.930 . S
C919 C915 1.400 1_545 S
C919 C918 1.385 . S
C920 C918 1.478 . S
C920 C922 1.381 . S
C920 C926 1.383 . S
C921 C917 1.495 . S
C921 H927 0.959 . S
C921 H928 0.961 . S
C921 H929 0.960 . S
C922 C920 1.381 . S
C922 C923 1.394 . S
C922 H930 0.930 . S
C923 C922 1.394 . S
C923 C924 1.383 . S
C923 H931 0.929 . S
C924 C923 1.383 . S
C924 C925 1.377 . S
C925 H909 0.930 . S
C925 C924 1.377 . S
C925 C926 1.379 . S
C926 H910 0.931 . S
C926 C920 1.383 . S
C926 C925 1.379 . S
H927 C921 0.959 . S
H928 C921 0.961 . S
H929 C921 0.960 . S
H930 C922 0.930 . S
H931 C923 0.929 . S
H932 C940 0.929 . S
H933 C942 0.930 . S
H934 C944 0.930 . S
H935 C947 0.929 1_545 S
H936 C950 0.930 . S
H937 C952 0.960 . S
H938 C952 0.960 . S
H939 C952 0.960 . S
C940 H932 0.929 . S
C940 C941 1.377 . S
C940 C942 1.384 . S
C941 C940 1.377 . S
C941 C947 1.390 . S
C942 H933 0.930 . S
C942 C940 1.384 . S
C942 C943 1.372 . S
C943 C942 1.372 . S
C943 C944 1.400 . S
C943 C948 1.490 . S
C944 H934 0.930 . S
C944 C943 1.400 . S
C944 C947 1.386 . S
H945 C961 0.930 . S
H946 C962 0.931 . S
C947 H935 0.929 1_565 S
C947 C941 1.390 . S
C947 C944 1.386 . S
C948 C943 1.490 . S
C948 C950 1.395 . S
C948 C951 1.403 . S
H949 C955 0.930 . S
C950 H936 0.930 . S
C950 C948 1.395 . S
C950 C953 1.403 . S
C951 C948 1.403 . S
C951 C952 1.524 . S
C951 C955 1.400 . S
C952 H937 0.960 . S
C952 H938 0.960 . S
C952 H939 0.960 . S
C952 C951 1.524 . S
C953 C950 1.403 . S
C953 C954 1.392 . S
C953 C957 1.495 . S
C954 C953 1.392 . S
C954 C955 1.385 . S
C954 C956 1.478 . S
C955 H949 0.930 . S
C955 C951 1.400 . S
C955 C954 1.385 . S
C956 C954 1.478 . S
C956 C958 1.381 . S
C956 C962 1.383 . S
C957 C953 1.495 . S
C957 H963 0.944 1_565 S
C957 H964 0.964 . S
C957 H965 0.960 . S
C958 C956 1.381 . S
C958 C959 1.394 . S
C958 H966 0.930 . S
C959 C958 1.394 . S
C959 C960 1.383 . S
C959 H967 0.929 . S
C960 C959 1.383 . S
C960 C961 1.377 . S
C961 H945 0.930 . S
C961 C960 1.377 . S
C961 C962 1.379 . S
C962 H946 0.931 . S
C962 C956 1.383 . S
C962 C961 1.379 . S
H963 C957 0.944 1_545 S
H964 C957 0.964 . S
H965 C957 0.960 . S
H966 C958 0.930 . S
H967 C959 0.929 . S
H968 C976 0.929 . S
H969 C978 0.930 . S
H970 C980 0.930 . S
H971 C983 0.929 . S
H972 C986 0.930 . S
H973 C988 0.960 . S
H974 C988 0.960 . S
H975 C988 0.960 . S
C976 H968 0.929 . S
C976 C977 1.377 . S
C976 C978 1.384 . S
C977 C976 1.377 . S
C977 C983 1.390 . S
C978 H969 0.930 . S
C978 C976 1.384 . S
C978 C979 1.372 . S
C979 C978 1.372 . S
C979 C980 1.400 . S
C979 C984 1.490 . S
C980 H970 0.930 . S
C980 C979 1.400 . S
C980 C983 1.386 . S
H981 C997 0.930 . S
H982 C998 0.931 1_545 S
C983 H971 0.929 . S
C983 C977 1.390 . S
C983 C980 1.386 . S
C984 C979 1.490 . S
C984 C986 1.395 . S
C984 C987 1.403 . S
H985 C991 0.930 . S
C986 H972 0.930 . S
C986 C984 1.395 . S
C986 C989 1.403 . S
C987 C984 1.403 . S
C987 C988 1.524 . S
C987 C991 1.400 . S
C988 H973 0.960 . S
C988 H974 0.960 . S
C988 H975 0.960 . S
C988 C987 1.524 . S
C989 C986 1.403 . S
C989 C990 1.392 . S
C989 C993 1.495 . S
C990 C989 1.392 . S
C990 C991 1.385 . S
C990 C992 1.478 1_545 S
C991 H985 0.930 . S
C991 C987 1.400 . S
C991 C990 1.385 . S
C992 C990 1.478 1_565 S
C992 C994 1.381 . S
C992 C998 1.383 . S
C993 C989 1.495 . S
C993 H999 0.959 . S
C993 H1000 0.961 . S
C993 H1001 0.960 1_545 S
C994 C992 1.381 . S
C994 C995 1.394 . S
C994 H1002 0.930 . S
C995 C994 1.394 . S
C995 C996 1.383 . S
C995 H1003 0.929 . S
C996 C995 1.383 . S
C996 C997 1.377 . S
C997 H981 0.930 . S
C997 C996 1.377 . S
C997 C998 1.379 . S
C998 H982 0.931 1_565 S
C998 C992 1.383 . S
C998 C997 1.379 . S
H999 C993 0.959 . S
H1000 C993 0.961 . S
H1001 C993 0.960 1_565 S
H1002 C994 0.930 . S
H1003 C995 0.929 . S
H1004 C1012 0.929 . S
H1005 C1014 0.930 . S
H1006 C1016 0.930 . S
H1007 C1019 0.929 . S
H1008 C1022 0.930 . S
H1009 C1024 0.960 . S
H1010 C1024 0.960 . S
H1011 C1024 0.960 . S
C1012 H1004 0.929 . S
C1012 C1013 1.377 . S
C1012 C1014 1.384 . S
C1013 C1012 1.377 . S
C1013 C1019 1.390 . S
C1014 H1005 0.930 . S
C1014 C1012 1.384 . S
C1014 C1015 1.372 . S
C1015 C1014 1.372 . S
C1015 C1016 1.400 . S
C1015 C1020 1.490 . S
C1016 H1006 0.930 . S
C1016 C1015 1.400 . S
C1016 C1019 1.386 . S
H1017 C1033 0.930 . S
H1018 C1034 0.931 . S
C1019 H1007 0.929 . S
C1019 C1013 1.390 . S
C1019 C1016 1.386 . S
C1020 C1015 1.490 . S
C1020 C1022 1.395 . S
C1020 C1023 1.403 . S
H1021 C1027 0.930 . S
C1022 H1008 0.930 . S
C1022 C1020 1.395 . S
C1022 C1025 1.403 . S
C1023 C1020 1.403 . S
C1023 C1024 1.524 . S
C1023 C1027 1.400 . S
C1024 H1009 0.960 . S
C1024 H1010 0.960 . S
C1024 H1011 0.960 . S
C1024 C1023 1.524 . S
C1025 C1022 1.403 . S
C1025 C1026 1.392 . S
C1025 C1029 1.495 . S
C1026 C1025 1.392 . S
C1026 C1027 1.385 . S
C1026 C1028 1.478 . S
C1027 H1021 0.930 . S
C1027 C1023 1.400 . S
C1027 C1026 1.385 . S
C1028 C1026 1.478 . S
C1028 C1030 1.381 . S
C1028 C1034 1.383 . S
C1029 C1025 1.495 . S
C1029 H1035 0.959 . S
C1029 H1036 0.961 . S
C1029 H1037 0.960 . S
C1030 C1028 1.381 . S
C1030 C1031 1.394 . S
C1030 H1038 0.930 . S
C1031 C1030 1.394 . S
C1031 C1032 1.383 . S
C1031 H1039 0.929 . S
C1032 C1031 1.383 . S
C1032 C1033 1.377 . S
C1033 H1017 0.930 . S
C1033 C1032 1.377 . S
C1033 C1034 1.379 . S
C1034 H1018 0.931 . S
C1034 C1028 1.383 . S
C1034 C1033 1.379 . S
H1035 C1029 0.959 . S
H1036 C1029 0.961 . S
H1037 C1029 0.960 . S
H1038 C1030 0.930 . S
H1039 C1031 0.929 . S
H1040 C1048 0.929 . S
H1041 C1050 0.930 . S
H1042 C1052 0.930 1_565 S
H1043 C1055 0.929 . S
H1044 C1058 0.930 . S
H1045 C1060 0.968 . S
H1046 C1060 0.940 1_545 S
H1047 C1060 0.962 . S
C1048 H1040 0.929 . S
C1048 C1049 1.377 . S
C1048 C1050 1.384 . S
C1049 C1048 1.377 . S
C1049 C1055 1.390 . S
C1050 H1041 0.930 . S
C1050 C1048 1.384 . S
C1050 C1051 1.372 . S
C1051 C1050 1.372 . S
C1051 C1052 1.400 . S
C1051 C1056 1.490 1_545 S
C1052 H1042 0.930 1_545 S
C1052 C1051 1.400 . S
C1052 C1055 1.386 . S
H1053 C1069 0.930 . S
H1054 C1070 0.931 . S
C1055 H1043 0.929 . S
C1055 C1049 1.390 . S
C1055 C1052 1.386 . S
C1056 C1051 1.490 1_565 S
C1056 C1058 1.395 . S
C1056 C1059 1.403 . S
H1057 C1063 0.930 . S
C1058 H1044 0.930 . S
C1058 C1056 1.395 . S
C1058 C1061 1.403 . S
C1059 C1056 1.403 . S
C1059 C1060 1.534 . S
C1059 C1063 1.400 . S
C1060 H1045 0.968 . S
C1060 H1046 0.940 1_565 S
C1060 H1047 0.962 . S
C1060 C1059 1.534 . S
C1061 C1058 1.403 . S
C1061 C1062 1.392 . S
C1061 C1065 1.495 . S
C1062 C1061 1.392 . S
C1062 C1063 1.385 . S
C1062 C1064 1.478 . S
C1063 H1057 0.930 . S
C1063 C1059 1.400 . S
C1063 C1062 1.385 . S
C1064 C1062 1.478 . S
C1064 C1066 1.381 . S
C1064 C1070 1.383 . S
C1065 C1061 1.495 . S
C1065 H1071 0.959 . S
C1065 H1072 0.961 . S
C1065 H1073 0.960 . S
C1066 C1064 1.381 . S
C1066 C1067 1.394 . S
C1066 H1074 0.930 . S
C1067 C1066 1.394 . S
C1067 C1068 1.383 . S
C1067 H1075 0.929 . S
C1068 C1067 1.383 . S
C1068 C1069 1.377 . S
C1069 H1053 0.930 . S
C1069 C1068 1.377 . S
C1069 C1070 1.379 . S
C1070 H1054 0.931 . S
C1070 C1064 1.383 . S
C1070 C1069 1.379 . S
H1071 C1065 0.959 . S
H1072 C1065 0.961 . S
H1073 C1065 0.960 . S
H1074 C1066 0.930 . S
H1075 C1067 0.929 . S
H1076 C1084 0.929 . S
H1077 C1086 0.930 . S
H1078 C1088 0.930 . S
H1079 C1091 0.924 1_545 S
H1080 C1094 0.930 . S
H1081 C1096 0.960 . S
H1082 C1096 0.960 . S
H1083 C1096 0.960 . S
C1084 H1076 0.929 . S
C1084 C1085 1.377 . S
C1084 C1086 1.384 . S
C1085 C1084 1.377 . S
C1085 C1091 1.391 . S
C1086 H1077 0.930 . S
C1086 C1084 1.384 . S
C1086 C1087 1.372 . S
C1087 C1086 1.372 . S
C1087 C1088 1.400 . S
C1087 C1092 1.490 . S
C1088 H1078 0.930 . S
C1088 C1087 1.400 . S
C1088 C1091 1.390 . S
H1089 C1105 0.930 . S
H1090 C1106 0.931 . S
C1091 H1079 0.924 1_565 S
C1091 C1085 1.391 . S
C1091 C1088 1.390 . S
C1092 C1087 1.490 . S
C1092 C1094 1.395 . S
C1092 C1095 1.403 . S
H1093 C1099 0.930 . S
C1094 H1080 0.930 . S
C1094 C1092 1.395 . S
C1094 C1097 1.403 . S
C1095 C1092 1.403 . S
C1095 C1096 1.524 . S
C1095 C1099 1.400 . S
C1096 H1081 0.960 . S
C1096 H1082 0.960 . S
C1096 H1083 0.960 . S
C1096 C1095 1.524 . S
C1097 C1094 1.403 . S
C1097 C1098 1.392 . S
C1097 C1101 1.495 1_655 S
C1098 C1097 1.392 . S
C1098 C1099 1.385 . S
C1098 C1100 1.478 . S
C1099 H1093 0.930 . S
C1099 C1095 1.400 . S
C1099 C1098 1.385 . S
C1100 C1098 1.478 . S
C1100 C1102 1.381 1_655 S
C1100 C1106 1.383 . S
C1101 C1097 1.495 1_455 S
C1101 H1107 0.959 . S
C1101 H1108 0.961 . S
C1101 H1109 0.960 . S
C1102 C1100 1.381 1_455 S
C1102 C1103 1.394 . S
C1102 H1110 0.930 . S
C1103 C1102 1.394 . S
C1103 C1104 1.383 . S
C1103 H1111 0.929 . S
C1104 C1103 1.383 . S
C1104 C1105 1.377 1_455 S
C1105 H1089 0.930 . S
C1105 C1104 1.377 1_655 S
C1105 C1106 1.379 . S
C1106 H1090 0.931 . S
C1106 C1100 1.383 . S
C1106 C1105 1.379 . S
H1107 C1101 0.959 . S
H1108 C1101 0.961 . S
H1109 C1101 0.960 . S
H1110 C1102 0.930 . S
H1111 C1103 0.929 . S
H1112 C1120 0.929 . S
H1113 C1122 0.930 . S
H1114 C1124 0.930 . S
H1115 C1127 0.929 . S
H1116 C1130 0.930 . S
H1117 C1132 0.960 1_455 S
H1118 C1132 0.960 . S
H1119 C1132 0.960 1_565 S
C1120 H1112 0.929 . S
C1120 C1121 1.377 1_545 S
C1120 C1122 1.384 . S
C1121 C1120 1.377 1_565 S
C1121 C1127 1.390 . S
C1122 H1113 0.930 . S
C1122 C1120 1.384 . S
C1122 C1123 1.372 . S
C1123 C1122 1.372 . S
C1123 C1124 1.400 1_545 S
C1123 C1128 1.490 . S
C1124 H1114 0.930 . S
C1124 C1123 1.400 1_565 S
C1124 C1127 1.386 . S
H1125 C1141 0.930 . S
H1126 C1142 0.931 . S
C1127 H1115 0.929 . S
C1127 C1121 1.390 . S
C1127 C1124 1.386 . S
C1128 C1123 1.490 . S
C1128 C1130 1.395 . S
C1128 C1131 1.403 . S
H1129 C1135 0.930 . S
C1130 H1116 0.930 . S
C1130 C1128 1.395 . S
C1130 C1133 1.403 . S
C1131 C1128 1.403 . S
C1131 C1132 1.524 . S
C1131 C1135 1.400 . S
C1132 H1117 0.960 1_655 S
C1132 H1118 0.960 . S
C1132 H1119 0.960 1_545 S
C1132 C1131 1.524 . S
C1133 C1130 1.403 . S
C1133 C1134 1.392 . S
C1133 C1137 1.495 . S
C1134 C1133 1.392 . S
C1134 C1135 1.385 . S
C1134 C1136 1.478 . S
C1135 H1129 0.930 . S
C1135 C1131 1.400 . S
C1135 C1134 1.385 . S
C1136 C1134 1.478 . S
C1136 C1138 1.381 . S
C1136 C1142 1.383 . S
C1137 C1133 1.495 . S
C1137 H1143 0.959 . S
C1137 H1144 0.961 . S
C1137 H1145 0.960 . S
C1138 C1136 1.381 . S
C1138 C1139 1.394 . S
C1138 H1146 0.930 . S
C1139 C1138 1.394 . S
C1139 C1140 1.383 . S
C1139 H1147 0.929 . S
C1140 C1139 1.383 . S
C1140 C1141 1.377 . S
C1141 H1125 0.930 . S
C1141 C1140 1.377 . S
C1141 C1142 1.379 . S
C1142 H1126 0.931 . S
C1142 C1136 1.383 . S
C1142 C1141 1.379 . S
H1143 C1137 0.959 . S
H1144 C1137 0.961 . S
H1145 C1137 0.960 . S
H1146 C1138 0.930 . S
H1147 C1139 0.929 . S
H1148 C1156 0.929 . S
H1149 C1158 0.930 . S
H1150 C1160 0.930 . S
H1151 C1163 0.929 . S
H1152 C1166 0.930 . S
H1153 C1168 0.960 . S
H1154 C1168 0.960 . S
H1155 C1168 0.960 . S
C1156 H1148 0.929 . S
C1156 C1157 1.377 . S
C1156 C1158 1.384 . S
C1157 C1156 1.377 . S
C1157 C1163 1.390 . S
C1158 H1149 0.930 . S
C1158 C1156 1.384 . S
C1158 C1159 1.372 . S
C1159 C1158 1.372 . S
C1159 C1160 1.400 . S
C1159 C1164 1.490 . S
C1160 H1150 0.930 . S
C1160 C1159 1.400 . S
C1160 C1163 1.386 . S
H1161 C1177 0.930 . S
H1162 C1178 0.931 . S
C1163 H1151 0.929 . S
C1163 C1157 1.390 . S
C1163 C1160 1.386 . S
C1164 C1159 1.490 . S
C1164 C1166 1.395 . S
C1164 C1167 1.403 . S
H1165 C1171 0.930 . S
C1166 H1152 0.930 . S
C1166 C1164 1.395 . S
C1166 C1169 1.403 . S
C1167 C1164 1.403 . S
C1167 C1168 1.524 . S
C1167 C1171 1.400 . S
C1168 H1153 0.960 . S
C1168 H1154 0.960 . S
C1168 H1155 0.960 . S
C1168 C1167 1.524 . S
C1169 C1166 1.403 . S
C1169 C1170 1.392 . S
C1169 C1173 1.495 . S
C1170 C1169 1.392 . S
C1170 C1171 1.385 . S
C1170 C1172 1.478 . S
C1171 H1165 0.930 . S
C1171 C1167 1.400 . S
C1171 C1170 1.385 . S
C1172 C1170 1.478 . S
C1172 C1174 1.381 . S
C1172 C1178 1.383 . S
C1173 C1169 1.495 . S
C1173 H1179 0.959 . S
C1173 H1180 0.961 . S
C1173 H1181 0.960 . S
C1174 C1172 1.381 . S
C1174 C1175 1.394 . S
C1174 H1182 0.930 . S
C1175 C1174 1.394 . S
C1175 C1176 1.383 . S
C1175 H1183 0.929 . S
C1176 C1175 1.383 . S
C1176 C1177 1.377 . S
C1177 H1161 0.930 . S
C1177 C1176 1.377 . S
C1177 C1178 1.379 . S
C1178 H1162 0.931 . S
C1178 C1172 1.383 . S
C1178 C1177 1.379 . S
H1179 C1173 0.959 . S
H1180 C1173 0.961 . S
H1181 C1173 0.960 . S
H1182 C1174 0.930 . S
H1183 C1175 0.929 . S
H1184 C1192 0.929 . S
H1185 C1194 0.930 . S
H1186 C1196 0.930 . S
H1187 C1199 0.929 1_565 S
H1188 C1202 0.930 1_545 S
H1189 C1204 0.960 . S
H1190 C1204 0.960 . S
H1191 C1204 0.960 . S
C1192 H1184 0.929 . S
C1192 C1193 1.377 . S
C1192 C1194 1.384 . S
C1193 C1192 1.377 . S
C1193 C1199 1.390 . S
C1194 H1185 0.930 . S
C1194 C1192 1.384 . S
C1194 C1195 1.372 1_545 S
C1195 C1194 1.372 1_565 S
C1195 C1196 1.400 . S
C1195 C1200 1.490 . S
C1196 H1186 0.930 . S
C1196 C1195 1.400 . S
C1196 C1199 1.386 1_565 S
H1197 C1213 0.930 . S
H1198 C1214 0.931 . S
C1199 H1187 0.929 1_545 S
C1199 C1193 1.390 . S
C1199 C1196 1.386 1_545 S
C1200 C1195 1.490 . S
C1200 C1202 1.395 . S
C1200 C1203 1.403 . S
H1201 C1207 0.930 . S
C1202 H1188 0.930 1_565 S
C1202 C1200 1.395 . S
C1202 C1205 1.403 . S
C1203 C1200 1.403 . S
C1203 C1204 1.524 . S
C1203 C1207 1.400 . S
C1204 H1189 0.960 . S
C1204 H1190 0.960 . S
C1204 H1191 0.960 . S
C1204 C1203 1.524 . S
C1205 C1202 1.403 . S
C1205 C1206 1.392 . S
C1205 C1209 1.495 . S
C1206 C1205 1.392 . S
C1206 C1207 1.385 . S
C1206 C1208 1.478 . S
C1207 H1201 0.930 . S
C1207 C1203 1.400 . S
C1207 C1206 1.385 . S
C1208 C1206 1.478 . S
C1208 C1210 1.381 . S
C1208 C1214 1.383 . S
C1209 C1205 1.495 . S
C1209 H1215 0.959 1_565 S
C1209 H1216 0.961 1_655 S
C1209 H1217 0.960 . S
C1210 C1208 1.381 . S
C1210 C1211 1.394 . S
C1210 H1218 0.930 . S
C1211 C1210 1.394 . S
C1211 C1212 1.383 1_655 S
C1211 H1219 0.929 . S
C1212 C1211 1.383 1_455 S
C1212 C1213 1.377 . S
C1213 H1197 0.930 . S
C1213 C1212 1.377 . S
C1213 C1214 1.379 1_455 S
C1214 H1198 0.931 . S
C1214 C1208 1.383 . S
C1214 C1213 1.379 1_655 S
H1215 C1209 0.959 1_545 S
H1216 C1209 0.961 1_455 S
H1217 C1209 0.960 . S
H1218 C1210 0.930 . S
H1219 C1211 0.929 . S
H1220 C1228 0.929 . S
H1221 C1230 0.930 . S
H1222 C1232 0.930 . S
H1223 C1235 0.929 1_554 S
H1224 C1238 0.930 . S
H1225 C1240 0.960 . S
H1226 C1240 0.960 . S
H1227 C1240 0.960 . S
C1228 H1220 0.929 . S
C1228 C1229 1.377 . S
C1228 C1230 1.384 . S
C1229 C1228 1.377 . S
C1229 C1235 1.390 . S
C1230 H1221 0.930 . S
C1230 C1228 1.384 . S
C1230 C1231 1.372 . S
C1231 C1230 1.372 . S
C1231 C1232 1.400 . S
C1231 C1236 1.490 . S
C1232 H1222 0.930 . S
C1232 C1231 1.400 . S
C1232 C1235 1.386 . S
H1233 C1249 0.930 1_455 S
H1234 C1250 0.931 . S
C1235 H1223 0.929 1_556 S
C1235 C1229 1.390 . S
C1235 C1232 1.386 . S
C1236 C1231 1.490 . S
C1236 C1238 1.395 . S
C1236 C1239 1.403 . S
H1237 C1243 0.930 . S
C1238 H1224 0.930 . S
C1238 C1236 1.395 . S
C1238 C1241 1.403 . S
C1239 C1236 1.403 . S
C1239 C1240 1.524 . S
C1239 C1243 1.400 . S
C1240 H1225 0.960 . S
C1240 H1226 0.960 . S
C1240 H1227 0.960 . S
C1240 C1239 1.524 . S
C1241 C1238 1.403 . S
C1241 C1242 1.392 . S
C1241 C1245 1.495 . S
C1242 C1241 1.392 . S
C1242 C1243 1.385 . S
C1242 C1244 1.478 . S
C1243 H1237 0.930 . S
C1243 C1239 1.400 . S
C1243 C1242 1.385 . S
C1244 C1242 1.478 . S
C1244 C1246 1.381 . S
C1244 C1250 1.383 . S
C1245 C1241 1.495 . S
C1245 H1251 0.959 . S
C1245 H1252 0.961 . S
C1245 H1253 0.960 . S
C1246 C1244 1.381 . S
C1246 C1247 1.394 . S
C1246 H1254 0.930 . S
C1247 C1246 1.394 . S
C1247 C1248 1.383 . S
C1247 H1255 0.929 . S
C1248 C1247 1.383 . S
C1248 C1249 1.377 . S
C1249 H1233 0.930 1_655 S
C1249 C1248 1.377 . S
C1249 C1250 1.379 . S
C1250 H1234 0.931 . S
C1250 C1244 1.383 . S
C1250 C1249 1.379 . S
H1251 C1245 0.959 . S
H1252 C1245 0.961 . S
H1253 C1245 0.960 . S
H1254 C1246 0.930 . S
H1255 C1247 0.929 . S
H1256 C1264 0.931 1_565 S
H1257 C1266 0.930 . S
H1258 C1268 0.930 . S
H1259 C1271 0.929 . S
H1260 C1274 0.930 . S
H1261 C1276 0.960 . S
H1262 C1276 0.960 . S
H1263 C1276 0.960 . S
C1264 H1256 0.931 1_545 S
C1264 C1265 1.377 . S
C1264 C1266 1.383 . S
C1265 C1264 1.377 . S
C1265 C1271 1.390 . S
C1266 H1257 0.930 . S
C1266 C1264 1.383 . S
C1266 C1267 1.372 . S
C1267 C1266 1.372 . S
C1267 C1268 1.400 . S
C1267 C1272 1.490 . S
C1268 H1258 0.930 . S
C1268 C1267 1.400 . S
C1268 C1271 1.386 . S
H1269 C1285 0.930 . S
H1270 C1286 0.931 . S
C1271 H1259 0.929 . S
C1271 C1265 1.390 . S
C1271 C1268 1.386 . S
C1272 C1267 1.490 . S
C1272 C1274 1.395 . S
C1272 C1275 1.403 . S
H1273 C1279 0.930 . S
C1274 H1260 0.930 . S
C1274 C1272 1.395 . S
C1274 C1277 1.403 . S
C1275 C1272 1.403 . S
C1275 C1276 1.524 . S
C1275 C1279 1.400 . S
C1276 H1261 0.960 . S
C1276 H1262 0.960 . S
C1276 H1263 0.960 . S
C1276 C1275 1.524 . S
C1277 C1274 1.403 . S
C1277 C1278 1.392 . S
C1277 C1281 1.495 . S
C1278 C1277 1.392 . S
C1278 C1279 1.385 . S
C1278 C1280 1.478 . S
C1279 H1273 0.930 . S
C1279 C1275 1.400 . S
C1279 C1278 1.385 . S
C1280 C1278 1.478 . S
C1280 C1282 1.381 . S
C1280 C1286 1.383 . S
C1281 C1277 1.495 . S
C1281 H1287 0.959 . S
C1281 H1288 0.961 . S
C1281 H1289 0.960 . S
C1282 C1280 1.381 . S
C1282 C1283 1.394 . S
C1282 H1290 0.930 . S
C1283 C1282 1.394 . S
C1283 C1284 1.383 . S
C1283 H1291 0.929 . S
C1284 C1283 1.383 . S
C1284 C1285 1.377 . S
C1285 H1269 0.930 . S
C1285 C1284 1.377 . S
C1285 C1286 1.379 . S
C1286 H1270 0.931 . S
C1286 C1280 1.383 . S
C1286 C1285 1.379 . S
H1287 C1281 0.959 . S
H1288 C1281 0.961 . S
H1289 C1281 0.960 . S
H1290 C1282 0.930 . S
H1291 C1283 0.929 . S
H1292 C1300 0.929 . S
H1293 C1302 0.930 . S
H1294 C1304 0.930 . S
H1295 C1307 0.929 . S
H1296 C1310 0.930 . S
H1297 C1312 0.960 . S
H1298 C1312 0.960 . S
H1299 C1312 0.960 . S
C1300 H1292 0.929 . S
C1300 C1301 1.377 . S
C1300 C1302 1.384 . S
C1301 C1300 1.377 . S
C1301 C1307 1.390 . S
C1302 H1293 0.930 . S
C1302 C1300 1.384 . S
C1302 C1303 1.372 . S
C1303 C1302 1.372 . S
C1303 C1304 1.400 . S
C1303 C1308 1.490 . S
C1304 H1294 0.930 . S
C1304 C1303 1.400 . S
C1304 C1307 1.386 . S
H1305 C1321 0.930 . S
H1306 C1322 0.931 . S
C1307 H1295 0.929 . S
C1307 C1301 1.390 . S
C1307 C1304 1.386 . S
C1308 C1303 1.490 . S
C1308 C1310 1.395 . S
C1308 C1311 1.403 . S
H1309 C1315 0.930 . S
C1310 H1296 0.930 . S
C1310 C1308 1.395 . S
C1310 C1313 1.403 . S
C1311 C1308 1.403 . S
C1311 C1312 1.524 . S
C1311 C1315 1.400 . S
C1312 H1297 0.960 . S
C1312 H1298 0.960 . S
C1312 H1299 0.960 . S
C1312 C1311 1.524 . S
C1313 C1310 1.403 . S
C1313 C1314 1.392 . S
C1313 C1317 1.495 . S
C1314 C1313 1.392 . S
C1314 C1315 1.385 . S
C1314 C1316 1.478 . S
C1315 H1309 0.930 . S
C1315 C1311 1.400 . S
C1315 C1314 1.385 . S
C1316 C1314 1.478 . S
C1316 C1318 1.381 . S
C1316 C1322 1.383 . S
C1317 C1313 1.495 . S
C1317 H1323 0.959 . S
C1317 H1324 0.961 . S
C1317 H1325 0.960 . S
C1318 C1316 1.381 . S
C1318 C1319 1.394 . S
C1318 H1326 0.930 . S
C1319 C1318 1.394 . S
C1319 C1320 1.383 . S
C1319 H1327 0.929 . S
C1320 C1319 1.383 . S
C1320 C1321 1.377 . S
C1321 H1305 0.930 . S
C1321 C1320 1.377 . S
C1321 C1322 1.379 . S
C1322 H1306 0.931 . S
C1322 C1316 1.383 . S
C1322 C1321 1.379 . S
H1323 C1317 0.959 . S
H1324 C1317 0.961 . S
H1325 C1317 0.960 . S
H1326 C1318 0.930 . S
H1327 C1319 0.929 . S
H1328 C1336 0.929 . S
H1329 C1338 0.930 . S
H1330 C1340 0.930 . S
H1331 C1343 0.929 . S
H1332 C1346 0.930 . S
H1333 C1348 0.960 . S
H1334 C1348 0.960 . S
H1335 C1348 0.960 . S
C1336 H1328 0.929 . S
C1336 C1337 1.377 . S
C1336 C1338 1.384 . S
C1337 C1336 1.377 . S
C1337 C1343 1.390 . S
C1338 H1329 0.930 . S
C1338 C1336 1.384 . S
C1338 C1339 1.372 . S
C1339 C1338 1.372 . S
C1339 C1340 1.400 . S
C1339 C1344 1.490 . S
C1340 H1330 0.930 . S
C1340 C1339 1.400 . S
C1340 C1343 1.386 . S
H1341 C1357 0.930 . S
H1342 C1358 0.931 . S
C1343 H1331 0.929 . S
C1343 C1337 1.390 . S
C1343 C1340 1.386 . S
C1344 C1339 1.490 . S
C1344 C1346 1.395 . S
C1344 C1347 1.403 . S
H1345 C1351 0.930 . S
C1346 H1332 0.930 . S
C1346 C1344 1.395 . S
C1346 C1349 1.403 . S
C1347 C1344 1.403 . S
C1347 C1348 1.524 . S
C1347 C1351 1.400 . S
C1348 H1333 0.960 . S
C1348 H1334 0.960 . S
C1348 H1335 0.960 . S
C1348 C1347 1.524 . S
C1349 C1346 1.403 . S
C1349 C1350 1.392 . S
C1349 C1353 1.495 1_655 S
C1350 C1349 1.392 . S
C1350 C1351 1.385 . S
C1350 C1352 1.478 . S
C1351 H1345 0.930 . S
C1351 C1347 1.400 . S
C1351 C1350 1.385 . S
C1352 C1350 1.478 . S
C1352 C1354 1.381 . S
C1352 C1358 1.383 . S
C1353 C1349 1.495 1_455 S
C1353 H1359 0.959 . S
C1353 H1360 0.961 . S
C1353 H1361 0.960 . S
C1354 C1352 1.381 . S
C1354 C1355 1.394 . S
C1354 H1362 0.930 . S
C1355 C1354 1.394 . S
C1355 C1356 1.383 . S
C1355 H1363 0.929 . S
C1356 C1355 1.383 . S
C1356 C1357 1.377 . S
C1357 H1341 0.930 . S
C1357 C1356 1.377 . S
C1357 C1358 1.379 . S
C1358 H1342 0.931 . S
C1358 C1352 1.383 . S
C1358 C1357 1.379 . S
H1359 C1353 0.959 . S
H1360 C1353 0.961 . S
H1361 C1353 0.960 . S
H1362 C1354 0.930 . S
H1363 C1355 0.929 . S
H1364 C1372 0.929 . S
H1365 C1374 0.930 . S
H1366 C1376 0.930 . S
H1367 C1379 0.929 1_455 S
H1368 C1382 0.930 . S
H1369 C1384 0.960 . S
H1370 C1384 0.960 . S
H1371 C1384 0.960 . S
C1372 H1364 0.929 . S
C1372 C1373 1.377 . S
C1372 C1374 1.384 . S
C1373 C1372 1.377 . S
C1373 C1379 1.390 . S
C1374 H1365 0.930 . S
C1374 C1372 1.384 . S
C1374 C1375 1.372 . S
C1375 C1374 1.372 . S
C1375 C1376 1.400 . S
C1375 C1380 1.490 . S
C1376 H1366 0.930 . S
C1376 C1375 1.400 . S
C1376 C1379 1.386 . S
H1377 C1393 0.930 . S
H1378 C1394 0.931 . S
C1379 H1367 0.929 1_655 S
C1379 C1373 1.390 . S
C1379 C1376 1.386 . S
C1380 C1375 1.490 . S
C1380 C1382 1.395 . S
C1380 C1383 1.403 . S
H1381 C1387 0.930 . S
C1382 H1368 0.930 . S
C1382 C1380 1.395 . S
C1382 C1385 1.403 . S
C1383 C1380 1.403 . S
C1383 C1384 1.524 . S
C1383 C1387 1.400 . S
C1384 H1369 0.960 . S
C1384 H1370 0.960 . S
C1384 H1371 0.960 . S
C1384 C1383 1.524 . S
C1385 C1382 1.403 . S
C1385 C1386 1.392 . S
C1385 C1389 1.495 . S
C1386 C1385 1.392 . S
C1386 C1387 1.385 . S
C1386 C1388 1.478 . S
C1387 H1381 0.930 . S
C1387 C1383 1.400 . S
C1387 C1386 1.385 . S
C1388 C1386 1.478 . S
C1388 C1390 1.381 . S
C1388 C1394 1.383 . S
C1389 C1385 1.495 . S
C1389 H1395 0.959 . S
C1389 H1396 0.961 . S
C1389 H1397 0.960 . S
C1390 C1388 1.381 . S
C1390 C1391 1.394 . S
C1390 H1398 0.930 . S
C1391 C1390 1.394 . S
C1391 C1392 1.383 . S
C1391 H1399 0.929 . S
C1392 C1391 1.383 . S
C1392 C1393 1.377 . S
C1393 H1377 0.930 . S
C1393 C1392 1.377 . S
C1393 C1394 1.379 . S
C1394 H1378 0.931 . S
C1394 C1388 1.383 . S
C1394 C1393 1.379 . S
H1395 C1389 0.959 . S
H1396 C1389 0.961 . S
H1397 C1389 0.960 . S
H1398 C1390 0.930 . S
H1399 C1391 0.929 . S
H1400 C1408 0.929 . S
H1401 C1410 0.930 . S
H1402 C1412 0.930 . S
H1403 C1415 0.929 . S
H1404 C1418 0.930 . S
H1405 C1420 0.960 . S
H1406 C1420 0.960 . S
H1407 C1420 0.960 . S
C1408 H1400 0.929 . S
C1408 C1409 1.377 . S
C1408 C1410 1.384 . S
C1409 C1408 1.377 . S
C1409 C1415 1.390 . S
C1410 H1401 0.930 . S
C1410 C1408 1.384 . S
C1410 C1411 1.372 . S
C1411 C1410 1.372 . S
C1411 C1412 1.400 . S
C1411 C1416 1.490 . S
C1412 H1402 0.930 . S
C1412 C1411 1.400 . S
C1412 C1415 1.386 . S
H1413 C1429 0.930 . S
H1414 C1430 0.931 . S
C1415 H1403 0.929 . S
C1415 C1409 1.390 . S
C1415 C1412 1.386 . S
C1416 C1411 1.490 . S
C1416 C1418 1.395 . S
C1416 C1419 1.403 . S
H1417 C1423 0.930 . S
C1418 H1404 0.930 . S
C1418 C1416 1.395 . S
C1418 C1421 1.403 . S
C1419 C1416 1.403 . S
C1419 C1420 1.524 . S
C1419 C1423 1.400 . S
C1420 H1405 0.960 . S
C1420 H1406 0.960 . S
C1420 H1407 0.960 . S
C1420 C1419 1.524 . S
C1421 C1418 1.403 . S
C1421 C1422 1.392 . S
C1421 C1425 1.495 . S
C1422 C1421 1.392 . S
C1422 C1423 1.385 . S
C1422 C1424 1.478 . S
C1423 H1417 0.930 . S
C1423 C1419 1.400 . S
C1423 C1422 1.385 . S
C1424 C1422 1.478 . S
C1424 C1426 1.381 . S
C1424 C1430 1.383 . S
C1425 C1421 1.495 . S
C1425 H1431 0.959 . S
C1425 H1432 0.961 . S
C1425 H1433 0.960 . S
C1426 C1424 1.381 . S
C1426 C1427 1.394 . S
C1426 H1434 0.930 . S
C1427 C1426 1.394 . S
C1427 C1428 1.383 . S
C1427 H1435 0.929 . S
C1428 C1427 1.383 . S
C1428 C1429 1.377 . S
C1429 H1413 0.930 . S
C1429 C1428 1.377 . S
C1429 C1430 1.379 . S
C1430 H1414 0.931 . S
C1430 C1424 1.383 . S
C1430 C1429 1.379 . S
H1431 C1425 0.959 . S
H1432 C1425 0.961 . S
H1433 C1425 0.960 . S
H1434 C1426 0.930 . S
H1435 C1427 0.929 . S
H1436 C1444 0.929 . S
H1437 C1446 0.930 . S
H1438 C1448 0.930 . S
H1439 C1451 0.929 . S
H1440 C1454 0.930 . S
H1441 C1456 0.960 . S
H1442 C1456 0.960 . S
H1443 C1456 0.960 . S
C1444 H1436 0.929 . S
C1444 C1445 1.377 . S
C1444 C1446 1.384 . S
C1445 C1444 1.377 . S
C1445 C1451 1.390 . S
C1446 H1437 0.930 . S
C1446 C1444 1.384 . S
C1446 C1447 1.372 . S
C1447 C1446 1.372 . S
C1447 C1448 1.400 . S
C1447 C1452 1.490 . S
C1448 H1438 0.930 . S
C1448 C1447 1.400 . S
C1448 C1451 1.386 . S
H1449 C1465 0.930 . S
H1450 C1466 0.931 . S
C1451 H1439 0.929 . S
C1451 C1445 1.390 . S
C1451 C1448 1.386 . S
C1452 C1447 1.490 . S
C1452 C1454 1.395 . S
C1452 C1455 1.403 . S
H1453 C1459 0.930 . S
C1454 H1440 0.930 . S
C1454 C1452 1.395 . S
C1454 C1457 1.403 . S
C1455 C1452 1.403 . S
C1455 C1456 1.524 . S
C1455 C1459 1.400 . S
C1456 H1441 0.960 . S
C1456 H1442 0.960 . S
C1456 H1443 0.960 . S
C1456 C1455 1.524 . S
C1457 C1454 1.403 . S
C1457 C1458 1.392 . S
C1457 C1461 1.495 . S
C1458 C1457 1.392 . S
C1458 C1459 1.385 . S
C1458 C1460 1.478 . S
C1459 H1453 0.930 . S
C1459 C1455 1.400 . S
C1459 C1458 1.385 . S
C1460 C1458 1.478 . S
C1460 C1462 1.381 . S
C1460 C1466 1.383 . S
C1461 C1457 1.495 . S
C1461 H1467 0.959 . S
C1461 H1468 0.961 . S
C1461 H1469 0.960 . S
C1462 C1460 1.381 . S
C1462 C1463 1.394 . S
C1462 H1470 0.930 . S
C1463 C1462 1.394 . S
C1463 C1464 1.383 . S
C1463 H1471 0.929 . S
C1464 C1463 1.383 . S
C1464 C1465 1.377 . S
C1465 H1449 0.930 . S
C1465 C1464 1.377 . S
C1465 C1466 1.379 . S
C1466 H1450 0.931 . S
C1466 C1460 1.383 . S
C1466 C1465 1.379 . S
H1467 C1461 0.959 . S
H1468 C1461 0.961 . S
H1469 C1461 0.960 . S
H1470 C1462 0.930 . S
H1471 C1463 0.929 . S
H1472 C1480 0.929 . S
H1473 C1482 0.930 . S
H1474 C1484 0.930 . S
H1475 C1487 0.929 . S
H1476 C1490 0.930 . S
H1477 C1492 0.960 . S
H1478 C1492 0.960 . S
H1479 C1492 0.960 . S
C1480 H1472 0.929 . S
C1480 C1481 1.377 . S
C1480 C1482 1.384 . S
C1481 C1480 1.377 . S
C1481 C1487 1.390 . S
C1482 H1473 0.930 . S
C1482 C1480 1.384 . S
C1482 C1483 1.372 . S
C1483 C1482 1.372 . S
C1483 C1484 1.400 . S
C1483 C1488 1.490 . S
C1484 H1474 0.930 . S
C1484 C1483 1.400 . S
C1484 C1487 1.386 . S
H1485 C1501 0.930 . S
H1486 C1502 0.931 . S
C1487 H1475 0.929 . S
C1487 C1481 1.390 . S
C1487 C1484 1.386 . S
C1488 C1483 1.490 . S
C1488 C1490 1.395 . S
C1488 C1491 1.403 . S
H1489 C1495 0.930 . S
C1490 H1476 0.930 . S
C1490 C1488 1.395 . S
C1490 C1493 1.403 . S
C1491 C1488 1.403 . S
C1491 C1492 1.524 . S
C1491 C1495 1.400 . S
C1492 H1477 0.960 . S
C1492 H1478 0.960 . S
C1492 H1479 0.960 . S
C1492 C1491 1.524 . S
C1493 C1490 1.403 . S
C1493 C1494 1.392 . S
C1493 C1497 1.495 . S
C1494 C1493 1.392 . S
C1494 C1495 1.385 . S
C1494 C1496 1.478 . S
C1495 H1489 0.930 . S
C1495 C1491 1.400 . S
C1495 C1494 1.385 . S
C1496 C1494 1.478 . S
C1496 C1498 1.381 . S
C1496 C1502 1.383 . S
C1497 C1493 1.495 . S
C1497 H1503 0.959 . S
C1497 H1504 0.961 . S
C1497 H1505 0.960 . S
C1498 C1496 1.381 . S
C1498 C1499 1.394 . S
C1498 H1506 0.930 . S
C1499 C1498 1.394 . S
C1499 C1500 1.383 . S
C1499 H1507 0.929 . S
C1500 C1499 1.383 . S
C1500 C1501 1.377 . S
C1501 H1485 0.930 . S
C1501 C1500 1.377 . S
C1501 C1502 1.379 . S
C1502 H1486 0.931 . S
C1502 C1496 1.383 . S
C1502 C1501 1.379 . S
H1503 C1497 0.959 . S
H1504 C1497 0.961 . S
H1505 C1497 0.960 . S
H1506 C1498 0.930 . S
H1507 C1499 0.929 . S
H1508 C1516 0.929 . S
H1509 C1518 0.930 . S
H1510 C1520 0.930 . S
H1511 C1523 0.929 . S
H1512 C1526 0.930 . S
H1513 C1528 0.960 . S
H1514 C1528 0.960 . S
H1515 C1528 0.960 . S
C1516 H1508 0.929 . S
C1516 C1517 1.377 . S
C1516 C1518 1.384 . S
C1517 C1516 1.377 . S
C1517 C1523 1.390 . S
C1518 H1509 0.930 . S
C1518 C1516 1.384 . S
C1518 C1519 1.372 . S
C1519 C1518 1.372 . S
C1519 C1520 1.400 . S
C1519 C1524 1.490 . S
C1520 H1510 0.930 . S
C1520 C1519 1.400 . S
C1520 C1523 1.386 . S
H1521 C1537 0.930 . S
H1522 C1538 0.931 . S
C1523 H1511 0.929 . S
C1523 C1517 1.390 . S
C1523 C1520 1.386 . S
C1524 C1519 1.490 . S
C1524 C1526 1.395 . S
C1524 C1527 1.403 . S
H1525 C1531 0.930 . S
C1526 H1512 0.930 . S
C1526 C1524 1.395 . S
C1526 C1529 1.403 . S
C1527 C1524 1.403 . S
C1527 C1528 1.524 . S
C1527 C1531 1.400 . S
C1528 H1513 0.960 . S
C1528 H1514 0.960 . S
C1528 H1515 0.960 . S
C1528 C1527 1.524 . S
C1529 C1526 1.403 . S
C1529 C1530 1.392 . S
C1529 C1533 1.495 . S
C1530 C1529 1.392 . S
C1530 C1531 1.385 . S
C1530 C1532 1.478 . S
C1531 H1525 0.930 . S
C1531 C1527 1.400 . S
C1531 C1530 1.385 . S
C1532 C1530 1.478 . S
C1532 C1534 1.381 . S
C1532 C1538 1.383 . S
C1533 C1529 1.495 . S
C1533 H1539 0.959 . S
C1533 H1540 0.961 . S
C1533 H1541 0.960 . S
C1534 C1532 1.381 . S
C1534 C1535 1.394 . S
C1534 H1542 0.930 . S
C1535 C1534 1.394 . S
C1535 C1536 1.383 . S
C1535 H1543 0.929 . S
C1536 C1535 1.383 . S
C1536 C1537 1.377 . S
C1537 H1521 0.930 . S
C1537 C1536 1.377 . S
C1537 C1538 1.379 . S
C1538 H1522 0.931 . S
C1538 C1532 1.383 . S
C1538 C1537 1.379 . S
H1539 C1533 0.959 . S
H1540 C1533 0.961 . S
H1541 C1533 0.960 . S
H1542 C1534 0.930 . S
H1543 C1535 0.929 . S
H1544 C1552 0.929 . S
H1545 C1554 0.930 . S
H1546 C1556 0.930 . S
H1547 C1559 0.929 . S
H1548 C1562 0.930 . S
H1549 C1564 0.960 . S
H1550 C1564 0.960 . S
H1551 C1564 0.960 . S
C1552 H1544 0.929 . S
C1552 C1553 1.377 . S
C1552 C1554 1.384 . S
C1553 C1552 1.377 . S
C1553 C1559 1.390 . S
C1554 H1545 0.930 . S
C1554 C1552 1.384 . S
C1554 C1555 1.372 . S
C1555 C1554 1.372 . S
C1555 C1556 1.400 . S
C1555 C1560 1.490 . S
C1556 H1546 0.930 . S
C1556 C1555 1.400 . S
C1556 C1559 1.386 . S
H1557 C1573 0.930 . S
H1558 C1574 0.931 . S
C1559 H1547 0.929 . S
C1559 C1553 1.390 . S
C1559 C1556 1.386 . S
C1560 C1555 1.490 . S
C1560 C1562 1.395 . S
C1560 C1563 1.403 . S
H1561 C1567 0.930 . S
C1562 H1548 0.930 . S
C1562 C1560 1.395 . S
C1562 C1565 1.403 . S
C1563 C1560 1.403 . S
C1563 C1564 1.524 . S
C1563 C1567 1.400 . S
C1564 H1549 0.960 . S
C1564 H1550 0.960 . S
C1564 H1551 0.960 . S
C1564 C1563 1.524 . S
C1565 C1562 1.403 . S
C1565 C1566 1.392 . S
C1565 C1569 1.495 . S
C1566 C1565 1.392 . S
C1566 C1567 1.385 . S
C1566 C1568 1.478 . S
C1567 H1561 0.930 . S
C1567 C1563 1.400 . S
C1567 C1566 1.385 . S
C1568 C1566 1.478 . S
C1568 C1570 1.381 . S
C1568 C1574 1.383 . S
C1569 C1565 1.495 . S
C1569 H1575 0.959 . S
C1569 H1576 0.961 . S
C1569 H1577 0.960 . S
C1570 C1568 1.381 . S
C1570 C1571 1.394 . S
C1570 H1578 0.930 1_655 S
C1571 C1570 1.394 . S
C1571 C1572 1.383 . S
C1571 H1579 0.929 1_655 S
C1572 C1571 1.383 . S
C1572 C1573 1.377 . S
C1573 H1557 0.930 . S
C1573 C1572 1.377 . S
C1573 C1574 1.379 . S
C1574 H1558 0.931 . S
C1574 C1568 1.383 . S
C1574 C1573 1.379 . S
H1575 C1569 0.959 . S
H1576 C1569 0.961 . S
H1577 C1569 0.960 . S
H1578 C1570 0.930 1_455 S
H1579 C1571 0.929 1_455 S
H1580 C1588 0.929 . S
H1581 C1590 0.930 . S
H1582 C1592 0.930 . S
H1583 C1595 0.929 . S
H1584 C1598 0.930 . S
H1585 C1600 0.960 . S
H1586 C1600 0.960 . S
H1587 C1600 0.960 . S
C1588 H1580 0.929 . S
C1588 C1589 1.377 . S
C1588 C1590 1.384 . S
C1589 C1588 1.377 . S
C1589 C1595 1.390 . S
C1590 H1581 0.930 . S
C1590 C1588 1.384 . S
C1590 C1591 1.372 . S
C1591 C1590 1.372 . S
C1591 C1592 1.400 . S
C1591 C1596 1.490 . S
C1592 H1582 0.930 . S
C1592 C1591 1.400 . S
C1592 C1595 1.386 . S
H1593 C1609 0.930 . S
H1594 C1610 0.931 . S
C1595 H1583 0.929 . S
C1595 C1589 1.390 . S
C1595 C1592 1.386 . S
C1596 C1591 1.490 . S
C1596 C1598 1.395 . S
C1596 C1599 1.403 . S
H1597 C1603 0.930 . S
C1598 H1584 0.930 . S
C1598 C1596 1.395 . S
C1598 C1601 1.403 . S
C1599 C1596 1.403 . S
C1599 C1600 1.524 . S
C1599 C1603 1.400 . S
C1600 H1585 0.960 . S
C1600 H1586 0.960 . S
C1600 H1587 0.960 . S
C1600 C1599 1.524 . S
C1601 C1598 1.403 . S
C1601 C1602 1.392 . S
C1601 C1605 1.495 . S
C1602 C1601 1.392 . S
C1602 C1603 1.385 . S
C1602 C1604 1.478 . S
C1603 H1597 0.930 . S
C1603 C1599 1.400 . S
C1603 C1602 1.385 . S
C1604 C1602 1.478 . S
C1604 C1606 1.381 . S
C1604 C1610 1.383 . S
C1605 C1601 1.495 . S
C1605 H1611 0.959 . S
C1605 H1612 0.961 . S
C1605 H1613 0.960 . S
C1606 C1604 1.381 . S
C1606 C1607 1.394 . S
C1606 H1614 0.930 . S
C1607 C1606 1.394 . S
C1607 C1608 1.383 . S
C1607 H1615 0.929 . S
C1608 C1607 1.383 . S
C1608 C1609 1.377 . S
C1609 H1593 0.930 . S
C1609 C1608 1.377 . S
C1609 C1610 1.379 . S
C1610 H1594 0.931 . S
C1610 C1604 1.383 . S
C1610 C1609 1.379 . S
H1611 C1605 0.959 . S
H1612 C1605 0.961 . S
H1613 C1605 0.960 . S
H1614 C1606 0.930 . S
H1615 C1607 0.929 . S
H1616 C1624 0.929 . S
H1617 C1626 0.930 . S
H1618 C1628 0.930 . S
H1619 C1631 0.929 . S
H1620 C1634 0.930 . S
H1621 C1636 0.960 . S
H1622 C1636 0.960 . S
H1623 C1636 0.960 . S
C1624 H1616 0.929 . S
C1624 C1625 1.377 . S
C1624 C1626 1.384 . S
C1625 C1624 1.377 . S
C1625 C1631 1.390 . S
C1626 H1617 0.930 . S
C1626 C1624 1.384 . S
C1626 C1627 1.372 . S
C1627 C1626 1.372 . S
C1627 C1628 1.400 . S
C1627 C1632 1.490 . S
C1628 H1618 0.930 . S
C1628 C1627 1.400 . S
C1628 C1631 1.386 . S
H1629 C1645 0.930 . S
H1630 C1646 0.931 . S
C1631 H1619 0.929 . S
C1631 C1625 1.390 . S
C1631 C1628 1.386 . S
C1632 C1627 1.490 . S
C1632 C1634 1.395 . S
C1632 C1635 1.403 . S
H1633 C1639 0.930 . S
C1634 H1620 0.930 . S
C1634 C1632 1.395 . S
C1634 C1637 1.403 . S
C1635 C1632 1.403 . S
C1635 C1636 1.524 . S
C1635 C1639 1.400 . S
C1636 H1621 0.960 . S
C1636 H1622 0.960 . S
C1636 H1623 0.960 . S
C1636 C1635 1.524 . S
C1637 C1634 1.403 . S
C1637 C1638 1.392 . S
C1637 C1641 1.495 . S
C1638 C1637 1.392 . S
C1638 C1639 1.385 . S
C1638 C1640 1.478 . S
C1639 H1633 0.930 . S
C1639 C1635 1.400 . S
C1639 C1638 1.385 . S
C1640 C1638 1.478 . S
C1640 C1642 1.381 . S
C1640 C1646 1.383 . S
C1641 C1637 1.495 . S
C1641 H1647 0.959 . S
C1641 H1648 0.961 . S
C1641 H1649 0.960 . S
C1642 C1640 1.381 . S
C1642 C1643 1.394 . S
C1642 H1650 0.930 . S
C1643 C1642 1.394 . S
C1643 C1644 1.383 . S
C1643 H1651 0.929 . S
C1644 C1643 1.383 . S
C1644 C1645 1.377 . S
C1645 H1629 0.930 . S
C1645 C1644 1.377 . S
C1645 C1646 1.379 . S
C1646 H1630 0.931 . S
C1646 C1640 1.383 . S
C1646 C1645 1.379 . S
H1647 C1641 0.959 . S
H1648 C1641 0.961 . S
H1649 C1641 0.960 . S
H1650 C1642 0.930 . S
H1651 C1643 0.929 . S
H1652 C1660 0.929 . S
H1653 C1662 0.930 . S
H1654 C1664 0.930 . S
H1655 C1667 0.929 . S
H1656 C1670 0.930 . S
H1657 C1672 0.960 . S
H1658 C1672 0.960 . S
H1659 C1672 0.960 . S
C1660 H1652 0.929 . S
C1660 C1661 1.377 . S
C1660 C1662 1.384 . S
C1661 C1660 1.377 . S
C1661 C1667 1.390 . S
C1662 H1653 0.930 . S
C1662 C1660 1.384 . S
C1662 C1663 1.372 . S
C1663 C1662 1.372 . S
C1663 C1664 1.400 . S
C1663 C1668 1.490 . S
C1664 H1654 0.930 . S
C1664 C1663 1.400 . S
C1664 C1667 1.386 . S
H1665 C1681 0.930 . S
H1666 C1682 0.931 . S
C1667 H1655 0.929 . S
C1667 C1661 1.390 . S
C1667 C1664 1.386 . S
C1668 C1663 1.490 . S
C1668 C1670 1.395 . S
C1668 C1671 1.403 . S
H1669 C1675 0.930 . S
C1670 H1656 0.930 . S
C1670 C1668 1.395 . S
C1670 C1673 1.403 . S
C1671 C1668 1.403 . S
C1671 C1672 1.524 . S
C1671 C1675 1.400 . S
C1672 H1657 0.960 . S
C1672 H1658 0.960 . S
C1672 H1659 0.960 . S
C1672 C1671 1.524 . S
C1673 C1670 1.403 . S
C1673 C1674 1.392 . S
C1673 C1677 1.495 . S
C1674 C1673 1.392 . S
C1674 C1675 1.385 . S
C1674 C1676 1.478 . S
C1675 H1669 0.930 . S
C1675 C1671 1.400 . S
C1675 C1674 1.385 . S
C1676 C1674 1.478 . S
C1676 C1678 1.381 . S
C1676 C1682 1.383 . S
C1677 C1673 1.495 . S
C1677 H1683 0.959 . S
C1677 H1684 0.961 . S
C1677 H1685 0.960 . S
C1678 C1676 1.381 . S
C1678 C1679 1.394 . S
C1678 H1686 0.930 . S
C1679 C1678 1.394 . S
C1679 C1680 1.383 . S
C1679 H1687 0.929 . S
C1680 C1679 1.383 . S
C1680 C1681 1.377 . S
C1681 H1665 0.930 . S
C1681 C1680 1.377 . S
C1681 C1682 1.379 . S
C1682 H1666 0.931 . S
C1682 C1676 1.383 . S
C1682 C1681 1.379 . S
H1683 C1677 0.959 . S
H1684 C1677 0.961 . S
H1685 C1677 0.960 . S
H1686 C1678 0.930 . S
H1687 C1679 0.929 . S
H1688 C1696 0.929 . S
H1689 C1698 0.930 . S
H1690 C1700 0.930 . S
H1691 C1703 0.929 . S
H1692 C1706 0.930 . S
H1693 C1708 0.960 . S
H1694 C1708 0.960 . S
H1695 C1708 0.960 . S
C1696 H1688 0.929 . S
C1696 C1697 1.377 . S
C1696 C1698 1.384 . S
C1697 C1696 1.377 . S
C1697 C1703 1.390 . S
C1698 H1689 0.930 . S
C1698 C1696 1.384 . S
C1698 C1699 1.372 . S
C1699 C1698 1.372 . S
C1699 C1700 1.400 . S
C1699 C1704 1.490 . S
C1700 H1690 0.930 . S
C1700 C1699 1.400 . S
C1700 C1703 1.386 . S
H1701 C1717 0.930 . S
H1702 C1718 0.931 . S
C1703 H1691 0.929 . S
C1703 C1697 1.390 . S
C1703 C1700 1.386 . S
C1704 C1699 1.490 . S
C1704 C1706 1.395 . S
C1704 C1707 1.403 . S
H1705 C1711 0.930 . S
C1706 H1692 0.930 . S
C1706 C1704 1.395 . S
C1706 C1709 1.403 . S
C1707 C1704 1.403 . S
C1707 C1708 1.524 . S
C1707 C1711 1.400 . S
C1708 H1693 0.960 . S
C1708 H1694 0.960 . S
C1708 H1695 0.960 . S
C1708 C1707 1.524 . S
C1709 C1706 1.403 . S
C1709 C1710 1.392 . S
C1709 C1713 1.495 . S
C1710 C1709 1.392 . S
C1710 C1711 1.385 . S
C1710 C1712 1.478 . S
C1711 H1705 0.930 . S
C1711 C1707 1.400 . S
C1711 C1710 1.385 . S
C1712 C1710 1.478 . S
C1712 C1714 1.381 . S
C1712 C1718 1.383 . S
C1713 C1709 1.495 . S
C1713 H1719 0.959 . S
C1713 H1720 0.961 . S
C1713 H1721 0.960 . S
C1714 C1712 1.381 . S
C1714 C1715 1.394 . S
C1714 H1722 0.930 . S
C1715 C1714 1.394 . S
C1715 C1716 1.383 . S
C1715 H1723 0.929 . S
C1716 C1715 1.383 . S
C1716 C1717 1.377 . S
C1717 H1701 0.930 . S
C1717 C1716 1.377 . S
C1717 C1718 1.379 . S
C1718 H1702 0.931 . S
C1718 C1712 1.383 . S
C1718 C1717 1.379 . S
H1719 C1713 0.959 . S
H1720 C1713 0.961 . S
H1721 C1713 0.960 . S
H1722 C1714 0.930 . S
H1723 C1715 0.929 . S
H1724 C1732 0.929 . S
H1725 C1734 0.930 . S
H1726 C1736 0.930 . S
H1727 C1739 0.929 . S
H1728 C1742 0.930 . S
H1729 C1744 0.960 . S
H1730 C1744 0.960 . S
H1731 C1744 0.960 . S
C1732 H1724 0.929 . S
C1732 C1733 1.377 . S
C1732 C1734 1.384 1_554 S
C1733 C1732 1.377 . S
C1733 C1739 1.390 1_554 S
C1734 H1725 0.930 . S
C1734 C1732 1.384 1_556 S
C1734 C1735 1.372 . S
C1735 C1734 1.372 . S
C1735 C1736 1.400 . S
C1735 C1740 1.490 . S
C1736 H1726 0.930 . S
C1736 C1735 1.400 . S
C1736 C1739 1.386 . S
H1737 C1753 0.930 . S
H1738 C1754 0.931 . S
C1739 H1727 0.929 . S
C1739 C1733 1.390 1_556 S
C1739 C1736 1.386 . S
C1740 C1735 1.490 . S
C1740 C1742 1.395 . S
C1740 C1743 1.403 . S
H1741 C1747 0.930 . S
C1742 H1728 0.930 . S
C1742 C1740 1.395 . S
C1742 C1745 1.403 . S
C1743 C1740 1.403 . S
C1743 C1744 1.524 . S
C1743 C1747 1.400 . S
C1744 H1729 0.960 . S
C1744 H1730 0.960 . S
C1744 H1731 0.960 . S
C1744 C1743 1.524 . S
C1745 C1742 1.403 . S
C1745 C1746 1.392 . S
C1745 C1749 1.495 . S
C1746 C1745 1.392 . S
C1746 C1747 1.385 . S
C1746 C1748 1.478 . S
C1747 H1741 0.930 . S
C1747 C1743 1.400 . S
C1747 C1746 1.385 . S
C1748 C1746 1.478 . S
C1748 C1750 1.381 . S
C1748 C1754 1.383 . S
C1749 C1745 1.495 . S
C1749 H1755 0.959 . S
C1749 H1756 0.961 . S
C1749 H1757 0.960 . S
C1750 C1748 1.381 . S
C1750 C1751 1.394 . S
C1750 H1758 0.930 . S
C1751 C1750 1.394 . S
C1751 C1752 1.383 . S
C1751 H1759 0.929 . S
C1752 C1751 1.383 . S
C1752 C1753 1.377 . S
C1753 H1737 0.930 . S
C1753 C1752 1.377 . S
C1753 C1754 1.379 . S
C1754 H1738 0.931 . S
C1754 C1748 1.383 . S
C1754 C1753 1.379 . S
H1755 C1749 0.959 . S
H1756 C1749 0.961 . S
H1757 C1749 0.960 . S
H1758 C1750 0.930 . S
H1759 C1751 0.929 . S
H1760 C1768 0.929 . S
H1761 C1770 0.930 . S
H1762 C1772 0.930 . S
H1763 C1775 0.929 . S
H1764 C1778 0.930 . S
H1765 C1780 0.960 . S
H1766 C1780 0.960 . S
H1767 C1780 0.960 . S
C1768 H1760 0.929 . S
C1768 C1769 1.377 . S
C1768 C1770 1.384 . S
C1769 C1768 1.377 . S
C1769 C1775 1.390 . S
C1770 H1761 0.930 . S
C1770 C1768 1.384 . S
C1770 C1771 1.372 . S
C1771 C1770 1.372 . S
C1771 C1772 1.400 . S
C1771 C1776 1.490 . S
C1772 H1762 0.930 . S
C1772 C1771 1.400 . S
C1772 C1775 1.386 . S
H1773 C1789 0.930 . S
H1774 C1790 0.931 . S
C1775 H1763 0.929 . S
C1775 C1769 1.390 . S
C1775 C1772 1.386 . S
C1776 C1771 1.490 . S
C1776 C1778 1.395 . S
C1776 C1779 1.403 . S
H1777 C1783 0.930 . S
C1778 H1764 0.930 . S
C1778 C1776 1.395 . S
C1778 C1781 1.403 . S
C1779 C1776 1.403 . S
C1779 C1780 1.524 . S
C1779 C1783 1.400 . S
C1780 H1765 0.960 . S
C1780 H1766 0.960 . S
C1780 H1767 0.960 . S
C1780 C1779 1.524 . S
C1781 C1778 1.403 . S
C1781 C1782 1.392 . S
C1781 C1785 1.495 . S
C1782 C1781 1.392 . S
C1782 C1783 1.385 . S
C1782 C1784 1.478 . S
C1783 H1777 0.930 . S
C1783 C1779 1.400 . S
C1783 C1782 1.385 . S
C1784 C1782 1.478 . S
C1784 C1786 1.381 . S
C1784 C1790 1.383 . S
C1785 C1781 1.495 . S
C1785 H1791 0.959 . S
C1785 H1792 0.961 . S
C1785 H1793 0.960 . S
C1786 C1784 1.381 . S
C1786 C1787 1.394 . S
C1786 H1794 0.930 . S
C1787 C1786 1.394 . S
C1787 C1788 1.383 . S
C1787 H1795 0.929 . S
C1788 C1787 1.383 . S
C1788 C1789 1.377 . S
C1789 H1773 0.930 . S
C1789 C1788 1.377 . S
C1789 C1790 1.379 . S
C1790 H1774 0.931 . S
C1790 C1784 1.383 . S
C1790 C1789 1.379 . S
H1791 C1785 0.959 . S
H1792 C1785 0.961 . S
H1793 C1785 0.960 . S
H1794 C1786 0.930 . S
H1795 C1787 0.929 . S
H1796 C1804 0.929 . S
H1797 C1806 0.930 . S
H1798 C1808 0.930 . S
H1799 C1811 0.929 . S
H1800 C1814 0.930 . S
H1801 C1816 0.960 . S
H1802 C1816 0.960 . S
H1803 C1816 0.960 . S
C1804 H1796 0.929 . S
C1804 C1805 1.377 . S
C1804 C1806 1.384 . S
C1805 C1804 1.377 . S
C1805 C1811 1.390 . S
C1806 H1797 0.930 . S
C1806 C1804 1.384 . S
C1806 C1807 1.372 . S
C1807 C1806 1.372 . S
C1807 C1808 1.400 . S
C1807 C1812 1.490 . S
C1808 H1798 0.930 . S
C1808 C1807 1.400 . S
C1808 C1811 1.386 . S
H1809 C1825 0.930 . S
H1810 C1826 0.931 . S
C1811 H1799 0.929 . S
C1811 C1805 1.390 . S
C1811 C1808 1.386 . S
C1812 C1807 1.490 . S
C1812 C1814 1.395 . S
C1812 C1815 1.403 . S
H1813 C1819 0.930 . S
C1814 H1800 0.930 . S
C1814 C1812 1.395 . S
C1814 C1817 1.403 . S
C1815 C1812 1.403 . S
C1815 C1816 1.524 . S
C1815 C1819 1.400 . S
C1816 H1801 0.960 . S
C1816 H1802 0.960 . S
C1816 H1803 0.960 . S
C1816 C1815 1.524 . S
C1817 C1814 1.403 . S
C1817 C1818 1.392 . S
C1817 C1821 1.495 . S
C1818 C1817 1.392 . S
C1818 C1819 1.385 . S
C1818 C1820 1.478 . S
C1819 H1813 0.930 . S
C1819 C1815 1.400 . S
C1819 C1818 1.385 . S
C1820 C1818 1.478 . S
C1820 C1822 1.381 . S
C1820 C1826 1.383 . S
C1821 C1817 1.495 . S
C1821 H1827 0.959 . S
C1821 H1828 0.961 . S
C1821 H1829 0.960 . S
C1822 C1820 1.381 . S
C1822 C1823 1.394 . S
C1822 H1830 0.930 . S
C1823 C1822 1.394 . S
C1823 C1824 1.383 . S
C1823 H1831 0.929 . S
C1824 C1823 1.383 . S
C1824 C1825 1.377 . S
C1825 H1809 0.930 . S
C1825 C1824 1.377 . S
C1825 C1826 1.379 . S
C1826 H1810 0.931 . S
C1826 C1820 1.383 . S
C1826 C1825 1.379 . S
H1827 C1821 0.959 . S
H1828 C1821 0.961 . S
H1829 C1821 0.960 . S
H1830 C1822 0.930 . S
H1831 C1823 0.929 . S
H1832 C1840 0.929 . S
H1833 C1842 0.930 . S
H1834 C1844 0.930 . S
H1835 C1847 0.929 . S
H1836 C1850 0.930 . S
H1837 C1852 0.960 . S
H1838 C1852 0.960 . S
H1839 C1852 0.960 . S
C1840 H1832 0.929 . S
C1840 C1841 1.377 . S
C1840 C1842 1.384 . S
C1841 C1840 1.377 . S
C1841 C1847 1.390 . S
C1842 H1833 0.930 . S
C1842 C1840 1.384 . S
C1842 C1843 1.372 . S
C1843 C1842 1.372 . S
C1843 C1844 1.400 . S
C1843 C1848 1.490 . S
C1844 H1834 0.930 . S
C1844 C1843 1.400 . S
C1844 C1847 1.386 . S
H1845 C1861 0.930 . S
H1846 C1862 0.931 . S
C1847 H1835 0.929 . S
C1847 C1841 1.390 . S
C1847 C1844 1.386 . S
C1848 C1843 1.490 . S
C1848 C1850 1.395 . S
C1848 C1851 1.403 . S
H1849 C1855 0.930 . S
C1850 H1836 0.930 . S
C1850 C1848 1.395 . S
C1850 C1853 1.403 . S
C1851 C1848 1.403 . S
C1851 C1852 1.524 . S
C1851 C1855 1.400 . S
C1852 H1837 0.960 . S
C1852 H1838 0.960 . S
C1852 H1839 0.960 . S
C1852 C1851 1.524 . S
C1853 C1850 1.403 . S
C1853 C1854 1.392 . S
C1853 C1857 1.495 . S
C1854 C1853 1.392 . S
C1854 C1855 1.385 . S
C1854 C1856 1.478 . S
C1855 H1849 0.930 . S
C1855 C1851 1.400 . S
C1855 C1854 1.385 . S
C1856 C1854 1.478 . S
C1856 C1858 1.381 . S
C1856 C1862 1.383 . S
C1857 C1853 1.495 . S
C1857 H1863 0.959 . S
C1857 H1864 0.961 . S
C1857 H1865 0.960 . S
C1858 C1856 1.381 . S
C1858 C1859 1.394 . S
C1858 H1866 0.930 . S
C1859 C1858 1.394 . S
C1859 C1860 1.383 . S
C1859 H1867 0.929 . S
C1860 C1859 1.383 . S
C1860 C1861 1.377 . S
C1861 H1845 0.930 . S
C1861 C1860 1.377 . S
C1861 C1862 1.379 . S
C1862 H1846 0.931 . S
C1862 C1856 1.383 . S
C1862 C1861 1.379 . S
H1863 C1857 0.959 . S
H1864 C1857 0.961 . S
H1865 C1857 0.960 . S
H1866 C1858 0.930 . S
H1867 C1859 0.929 . S
C744 C652 2.350 . S
C725 C69 2.381 . S
C761 C125 0.939 . S
C780 C655 0.966 . S
C797 C217 2.268 . S
C816 C686 2.236 . S
C852 C621 1.786 . S
C833 C261 1.756 . S
C888 C656 2.120 . S
C869 C39 2.064 . S
C924 C687 2.170 . S
C905 C137 2.131 . S
C960 C612 2.020 . S
C941 C187 1.962 1_565 S
C996 C643 2.463 . S
C977 C291 2.493 . S
C1013 C51 0.293 . S
C1032 C673 0.390 . S
C1049 C365 1.781 . S
C1068 C642 1.679 . S
C1085 C199 0.243 . S
C1104 C602 0.313 . S
C1140 C695 1.433 1_655 S
C1121 C439 1.453 . S
C1176 C623 1.153 . S
C1157 C63 1.215 . S
C1193 C335 1.130 . S
C1212 C622 1.200 . S
C1229 C211 1.087 . S
C1248 C715 1.107 1_655 S
C1284 C654 1.492 . S
C1265 C409 1.439 1_545 S
C1301 C495 1.001 . S
C1320 C714 0.949 . S
C1337 C347 1.140 . S
C1356 C593 1.128 . S
C1373 C587 2.259 1_655 S
C1392 C624 2.244 . S
C1409 C421 0.972 . S
C1428 C683 0.996 . S
C1464 C594 2.155 . S
C1445 C507 2.114 . S
C1481 C359 1.860 . S
C1500 C625 1.927 . S
C1517 C557 1.972 1_655 S
C1536 C674 2.048 . S
C1572 C705 2.069 . S
C1553 C433 2.012 . S
C1589 C513 1.613 . S
C1608 C611 1.478 . S
C1625 C143 1.565 . S
C1644 C704 1.468 . S
C1661 C569 0.228 . S
C1680 C664 0.334 . S
C1716 C633 0.896 . S
C1697 C285 0.896 . S
C1752 C685 1.367 . S
C1733 C483 1.303 . S
C1788 C684 1.457 . S
C1769 C113 1.399 . S
C1824 C653 1.048 . S
C1805 C581 1.034 . S
C1860 C592 0.543 . S
C1841 C273 0.548 . S
