# Generated by pormake.
# Topology tsx, (6,3)-cn, num edge types: 1
# Building blocks:
#     Node 0, Type 0, BuildingBlock: MIDCAF_clean_sbu_0, # of connection points: 6
#     Node 1, Type 0, BuildingBlock: MIDCAF_clean_sbu_0, # of connection points: 6
#     Node 2, Type 1, BuildingBlock: KAKCAD_clean_linker_0, # of connection points: 3
#     Node 3, Type 1, BuildingBlock: KAKCAD_clean_linker_0, # of connection points: 3
#     Node 4, Type 1, BuildingBlock: KAKCAD_clean_linker_0, # of connection points: 3
#     Node 5, Type 1, BuildingBlock: KAKCAD_clean_linker_0, # of connection points: 3
#     Edge 6, Type (0, 1), BuildingBlock: CIFDUS_clean_linker_0, # of connection points: 2
#     Edge 7, Type (0, 1), BuildingBlock: CIFDUS_clean_linker_0, # of connection points: 2
#     Edge 8, Type (0, 1), BuildingBlock: CIFDUS_clean_linker_0, # of connection points: 2
#     Edge 9, Type (0, 1), BuildingBlock: CIFDUS_clean_linker_0, # of connection points: 2
#     Edge 10, Type (0, 1), BuildingBlock: CIFDUS_clean_linker_0, # of connection points: 2
#     Edge 11, Type (0, 1), BuildingBlock: CIFDUS_clean_linker_0, # of connection points: 2
#     Edge 12, Type (0, 1), BuildingBlock: CIFDUS_clean_linker_0, # of connection points: 2
#     Edge 13, Type (0, 1), BuildingBlock: CIFDUS_clean_linker_0, # of connection points: 2
#     Edge 14, Type (0, 1), BuildingBlock: CIFDUS_clean_linker_0, # of connection points: 2
#     Edge 15, Type (0, 1), BuildingBlock: CIFDUS_clean_linker_0, # of connection points: 2
#     Edge 16, Type (0, 1), BuildingBlock: CIFDUS_clean_linker_0, # of connection points: 2
#     Edge 17, Type (0, 1), BuildingBlock: CIFDUS_clean_linker_0, # of connection points: 2
# Relax obj value: 0.118
# Max RMSD: 0.182
# Mean RMSD: 0.113
data_MOF--net-tsx--node1-MIDCAF_clean_sbu_0--node2-KAKCAD_clean_linker_0--edge1-CIFDUS_clean_linker_0
_symmetry_space_group_name_H-M    P1
_symmetry_Int_Tables_number       1
_symmetry_cell_setting            triclinic
loop_
_symmetry_equiv_pos_as_xyz
'x, y, z'
_cell_length_a     21.313922
_cell_length_b     22.175251
_cell_length_c     41.985492
_cell_angle_alpha  90.329812
_cell_angle_beta   96.281299
_cell_angle_gamma 89.572569
loop_
_atom_site_label
_atom_site_type_symbol
_atom_site_fract_x
_atom_site_fract_y
_atom_site_fract_z
_atom_type_partial_charge
Zn0 Zn 0.86586 0.0189 0.97289 0.0
Zn1 Zn 0.0351 0.95406 0.03714 0.0
Zn2 Zn 0.9688 0.00482 0.00281 0.0
C3 C 0.08401 0.07114 0.03247 0.0
C4 C 0.06143 0.90574 0.98543 0.0
O5 O 0.91359 0.93362 0.01957 0.0
O6 O 0.82177 0.94998 0.99184 0.0
C7 C 0.90441 0.12995 0.00606 0.0
O8 O 0.02365 0.0793 0.02724 0.0
O9 O 0.10464 0.01739 0.0343 0.0
O10 O 0.0428 0.88029 0.00966 0.0
O11 O 0.04368 0.96041 0.97906 0.0
O12 O 0.85913 0.10446 0.98921 0.0
O13 O 0.95516 0.10002 0.01526 0.0
O14 O 0.99691 0.99706 0.95494 0.0
O15 O 0.90018 0.00365 0.93054 0.0
C16 C 0.95878 0.99608 0.92913 0.0
O17 O 0.97318 0.05649 0.04835 0.0
O18 O 0.98006 0.96905 0.07306 0.0
C19 C 0.85624 0.91881 0.01203 0.0
C20 C 0.96846 0.02525 0.0738 0.0
Zn21 Zn 0.56202 0.49149 0.55634 0.0
Zn22 Zn 0.41984 0.52855 0.47165 0.0
Zn23 Zn 0.50427 0.52996 0.51341 0.0
C24 C 0.53502 0.55103 0.44419 0.0
C25 C 0.40062 0.62924 0.51106 0.0
O26 O 0.49256 0.58319 0.55635 0.0
O27 O 0.48803 0.49832 0.58232 0.0
C28 C 0.61064 0.44045 0.50592 0.0
O29 O 0.56044 0.54275 0.47314 0.0
O30 O 0.47575 0.54837 0.43765 0.0
O31 O 0.37189 0.5966 0.48945 0.0
O32 O 0.45579 0.61382 0.52376 0.0
O33 O 0.59091 0.41964 0.53108 0.0
O34 O 0.59106 0.49306 0.496 0.0
O35 O 0.60045 0.55993 0.50541 0.0
O36 O 0.62003 0.56617 0.55774 0.0
C37 C 0.63211 0.58337 0.53038 0.0
O38 O 0.46163 0.44311 0.51967 0.0
O39 O 0.39217 0.44315 0.47709 0.0
C40 C 0.48075 0.55508 0.58165 0.0
C41 C 0.41811 0.41645 0.50167 0.0
C42 C 0.03896 0.02657 0.2803 0.0
C43 C 0.01652 0.07542 0.26093 0.0
C44 C 0.05812 0.03478 0.31289 0.0
C45 C 0.056 0.09223 0.32703 0.0
C46 C 0.03613 0.14163 0.3074 0.0
C47 C 0.01657 0.13332 0.27473 0.0
C48 C 0.06947 0.09947 0.36245 0.0
C49 C 0.1165 0.06464 0.38016 0.0
C50 C 0.12398 0.06651 0.41388 0.0
C51 C 0.08468 0.10431 0.42999 0.0
C52 C 0.03755 0.13888 0.41261 0.0
C53 C 0.03052 0.1368 0.37908 0.0
C54 C 0.98898 0.16981 0.42907 0.0
C55 C 0.93428 0.13855 0.43439 0.0
C56 C 0.99426 0.23112 0.43702 0.0
C57 C 0.94477 0.26108 0.44994 0.0
C58 C 0.88915 0.23014 0.45484 0.0
C59 C 0.16714 0.02336 0.4322 0.0
C60 C 0.15997 0.96134 0.42628 0.0
C61 C 0.21392 0.04308 0.45614 0.0
C62 C 0.25362 0.00118 0.47346 0.0
C63 C 0.2456 0.93904 0.46782 0.0
C64 C 0.19838 0.91965 0.44406 0.0
C65 C 0.88478 0.16838 0.4471 0.0
H66 H 0.04097 0.98151 0.27035 0.0
H67 H 0.07237 0.99551 0.32718 0.0
H68 H 0.03466 0.18667 0.31741 0.0
H69 H 0.99966 0.17195 0.26054 0.0
H70 H 0.14655 0.03493 0.36783 0.0
H71 H 0.99186 0.16155 0.36609 0.0
H72 H 0.08816 0.10407 0.45595 0.0
H73 H 0.92927 0.0913 0.42793 0.0
H74 H 0.03615 0.25589 0.43278 0.0
H75 H 0.95 0.30844 0.45601 0.0
H76 H 0.12389 0.94505 0.40815 0.0
H77 H 0.22017 0.09077 0.46114 0.0
H78 H 0.84237 0.14335 0.45002 0.0
H79 H 0.19178 0.87206 0.43887 0.0
H80 H 0.29017 0.01715 0.49138 0.0
C81 C 0.12811 0.00169 0.74937 0.0
C82 C 0.11035 0.95032 0.76535 0.0
C83 C 0.13235 0.9999 0.71643 0.0
C84 C 0.12024 0.94622 0.69869 0.0
C85 C 0.10526 0.89401 0.71518 0.0
C86 C 0.09972 0.89623 0.74809 0.0
C87 C 0.11924 0.94643 0.66301 0.0
C88 C 0.15862 0.98554 0.64828 0.0
C89 C 0.15113 0.99453 0.61495 0.0
C90 C 0.10613 0.96019 0.59575 0.0
C91 C 0.06874 0.91813 0.60992 0.0
C92 C 0.07519 0.91191 0.64343 0.0
C93 C 0.0184 0.88406 0.59062 0.0
C94 C 0.96483 0.91435 0.57604 0.0
C95 C 0.01949 0.8207 0.59059 0.0
C96 C 0.96677 0.78814 0.57743 0.0
C97 C 0.91161 0.81846 0.56478 0.0
C98 C 0.18798 0.04293 0.60124 0.0
C99 C 0.19653 0.09835 0.61756 0.0
C100 C 0.2165 0.03418 0.57287 0.0
C101 C 0.25459 0.07925 0.56185 0.0
C102 C 0.26489 0.13363 0.57902 0.0
C103 C 0.23464 0.14288 0.6067 0.0
C104 C 0.91159 0.88181 0.56352 0.0
H105 H 0.13544 0.0442 0.76204 0.0
H106 H 0.14242 0.04157 0.70477 0.0
H107 H 0.09672 0.8516 0.70262 0.0
H108 H 0.08601 0.85596 0.75999 0.0
H109 H 0.19472 0.0104 0.66293 0.0
H110 H 0.04323 0.88235 0.65416 0.0
H111 H 0.09907 0.96708 0.57007 0.0
H112 H 0.96272 0.96318 0.57616 0.0
H113 H 0.06017 0.79651 0.60198 0.0
H114 H 0.96762 0.7394 0.57906 0.0
H115 H 0.17379 0.10738 0.63895 0.0
H116 H 0.21085 0.99202 0.55975 0.0
H117 H 0.8694 0.90615 0.55409 0.0
H118 H 0.24012 0.18491 0.61997 0.0
H119 H 0.27726 0.07107 0.54039 0.0
C120 C 0.60865 0.5679 0.78136 0.0
C121 C 0.58194 0.61787 0.76435 0.0
C122 C 0.61264 0.56661 0.81482 0.0
C123 C 0.59088 0.61576 0.832 0.0
C124 C 0.56703 0.66698 0.81479 0.0
C125 C 0.56179 0.66764 0.78132 0.0
C126 C 0.58781 0.61178 0.86729 0.0
C127 C 0.63377 0.5805 0.8875 0.0
C128 C 0.62663 0.57113 0.9202 0.0
C129 C 0.57494 0.59912 0.93303 0.0
C130 C 0.52998 0.63307 0.91337 0.0
C131 C 0.53587 0.63656 0.88048 0.0
C132 C 0.47487 0.66357 0.92595 0.0
C133 C 0.44333 0.63788 0.95022 0.0
C134 C 0.45061 0.71749 0.9118 0.0
C135 C 0.39412 0.74237 0.91969 0.0
C136 C 0.36111 0.71593 0.94321 0.0
C137 C 0.67059 0.52891 0.93995 0.0
C138 C 0.69944 0.48035 0.9251 0.0
C139 C 0.68163 0.53398 0.97367 0.0
C140 C 0.7181 0.49068 0.9918 0.0
C141 C 0.74602 0.44245 0.97659 0.0
C142 C 0.73722 0.43843 0.9431 0.0
C143 C 0.38762 0.66413 0.959 0.0
H144 H 0.62431 0.52885 0.76868 0.0
H145 H 0.63044 0.5261 0.82705 0.0
H146 H 0.55126 0.70634 0.82714 0.0
H147 H 0.54183 0.70696 0.76867 0.0
H148 H 0.67486 0.56295 0.87747 0.0
H149 H 0.49837 0.65729 0.86468 0.0
H150 H 0.56875 0.5937 0.95806 0.0
H151 H 0.46033 0.59648 0.96178 0.0
H152 H 0.47442 0.74004 0.89377 0.0
H153 H 0.37584 0.78151 0.90642 0.0
H154 H 0.69105 0.47267 0.89953 0.0
H155 H 0.66155 0.57073 0.98629 0.0
H156 H 0.36517 0.64313 0.97795 0.0
H157 H 0.75697 0.40081 0.93085 0.0
H158 H 0.72386 0.49443 0.01769 0.0
C159 C 0.6366 0.52808 0.25248 0.0
C160 C 0.62787 0.48008 0.27329 0.0
C161 C 0.62339 0.52111 0.21932 0.0
C162 C 0.60259 0.46546 0.20586 0.0
C163 C 0.59746 0.41652 0.22657 0.0
C164 C 0.60922 0.42387 0.25976 0.0
C165 C 0.58368 0.45934 0.17064 0.0
C166 C 0.61402 0.49296 0.1486 0.0
C167 C 0.59307 0.49132 0.11572 0.0
C168 C 0.54264 0.45378 0.1045 0.0
C169 C 0.51316 0.41791 0.1259 0.0
C170 C 0.53326 0.42179 0.15889 0.0
C171 C 0.46241 0.37522 0.11388 0.0
C172 C 0.41443 0.39208 0.08979 0.0
C173 C 0.46262 0.31641 0.12616 0.0
C174 C 0.41671 0.2751 0.1143 0.0
C175 C 0.3693 0.29151 0.0899 0.0
C176 C 0.62196 0.53189 0.09363 0.0
C177 C 0.58386 0.57122 0.0737 0.0
C178 C 0.68785 0.53574 0.09464 0.0
C179 C 0.71519 0.58029 0.07737 0.0
C180 C 0.6772 0.62252 0.05913 0.0
C181 C 0.61116 0.61628 0.05673 0.0
C182 C 0.36809 0.35069 0.07802 0.0
H183 H 0.65224 0.57172 0.26175 0.0
H184 H 0.62748 0.56025 0.20442 0.0
H185 H 0.58316 0.37253 0.21724 0.0
H186 H 0.60113 0.38578 0.27475 0.0
H187 H 0.65328 0.52176 0.15701 0.0
H188 H 0.50817 0.39655 0.17545 0.0
H189 H 0.52742 0.45158 0.07903 0.0
H190 H 0.4127 0.43727 0.08007 0.0
H191 H 0.49918 0.30182 0.14451 0.0
H192 H 0.41847 0.23003 0.1242 0.0
H193 H 0.53289 0.56934 0.07267 0.0
H194 H 0.7182 0.50526 0.10947 0.0
H195 H 0.33226 0.36451 0.05913 0.0
H196 H 0.58031 0.64811 0.04314 0.0
H197 H 0.76618 0.58257 0.07901 0.0
H198 H 0.21115 0.06514 0.03947 0.0
H199 H 0.05629 0.19023 0.04387 0.0
H200 H 0.13109 0.27085 0.06062 0.0
H201 H 0.24109 0.30406 0.0767 0.0
H202 H 0.39393 0.17648 0.07246 0.0
H203 H 0.31918 0.09845 0.05315 0.0
C204 C 0.19354 0.11006 0.044 0.0
C205 C 0.12819 0.12154 0.0406 0.0
C206 C 0.23655 0.15567 0.05387 0.0
C207 C 0.10638 0.18019 0.04627 0.0
C208 C 0.14914 0.22622 0.05596 0.0
C209 C 0.2579 0.25932 0.07122 0.0
C210 C 0.32295 0.2459 0.07636 0.0
C211 C 0.2144 0.21429 0.0602 0.0
C212 C 0.34408 0.18766 0.06928 0.0
C213 C 0.30141 0.14307 0.0581 0.0
H214 H 0.09182 0.78664 0.98364 0.0
H215 H 0.14804 0.9616 0.95293 0.0
H216 H 0.24581 0.9184 0.93733 0.0
H217 H 0.31983 0.83387 0.93825 0.0
H218 H 0.26018 0.6564 0.9643 0.0
H219 H 0.16064 0.69867 0.97747 0.0
C220 C 0.12495 0.81505 0.97293 0.0
C221 C 0.11272 0.87726 0.96953 0.0
C222 C 0.18142 0.78999 0.96425 0.0
C223 C 0.15589 0.91349 0.95549 0.0
C224 C 0.21229 0.88894 0.94698 0.0
C225 C 0.28491 0.80358 0.94594 0.0
C226 C 0.29898 0.74168 0.95053 0.0
C227 C 0.22627 0.82757 0.95209 0.0
C228 C 0.25252 0.70443 0.96143 0.0
C229 C 0.1948 0.72841 0.96854 0.0
H230 H 0.7569 0.85315 0.98598 0.0
H231 H 0.89932 0.86015 0.06728 0.0
H232 H 0.8573 0.7681 0.08854 0.0
H233 H 0.77862 0.68762 0.08459 0.0
H234 H 0.63979 0.67775 1.00166 0.0
H235 H 0.68187 0.76942 0.98057 0.0
C236 C 0.77857 0.83469 0.00845 0.0
C237 C 0.8307 0.8637 0.02524 0.0
C238 C 0.75494 0.7813 0.02017 0.0
C239 C 0.85901 0.83871 0.05399 0.0
C240 C 0.83504 0.78611 0.06612 0.0
C241 C 0.75823 0.70463 0.06157 0.0
C242 C 0.70599 0.67548 0.04481 0.0
C243 C 0.78301 0.75709 0.0494 0.0
C244 C 0.6795 0.69937 0.01534 0.0
C245 C 0.70364 0.75179 0.00318 0.0
H246 H 0.81061 0.18716 0.03238 0.0
H247 H 0.98241 0.21827 0.98997 0.0
H248 H 0.95195 0.32403 0.98056 0.0
H249 H 0.8662 0.40077 0.97486 0.0
H250 H 0.69558 0.36956 0.01846 0.0
H251 H 0.73589 0.2711 0.03748 0.0
C252 C 0.84248 0.2179 0.02231 0.0
C253 C 0.89851 0.19528 0.01179 0.0
C254 C 0.82414 0.27823 0.01664 0.0
C255 C 0.93941 0.23504 0.99857 0.0
C256 C 0.9215 0.29525 0.99277 0.0
C257 C 0.8389 0.37305 0.98939 0.0
C258 C 0.7778 0.39184 0.99501 0.0
C259 C 0.86248 0.31642 1.00023 0.0
C260 C 0.74273 0.35593 0.01393 0.0
C261 C 0.7656 0.29948 0.02459 0.0
H262 H 0.65326 0.68366 0.56539 0.0
H263 H 0.72701 0.57881 0.49112 0.0
H264 H 0.82057 0.64376 0.49421 0.0
H265 H 0.88482 0.72656 0.52151 0.0
H266 H 0.80521 0.83423 0.59311 0.0
H267 H 0.71024 0.77249 0.58755 0.0
C268 C 0.68955 0.6756 0.5496 0.0
C269 C 0.68393 0.62641 0.5283 0.0
C270 C 0.74214 0.71355 0.5512 0.0
C271 C 0.73054 0.61657 0.50766 0.0
C272 C 0.78407 0.65348 0.50959 0.0
C273 C 0.84615 0.73675 0.53549 0.0
C274 C 0.85185 0.78469 0.55776 0.0
C275 C 0.79097 0.70149 0.53176 0.0
C276 C 0.80156 0.79782 0.5757 0.0
C277 C 0.74744 0.76237 0.57265 0.0
H278 H 0.65128 0.32591 0.51756 0.0
H279 H 0.68761 0.48439 0.46357 0.0
H280 H 0.77578 0.43287 0.44219 0.0
H281 H 0.84415 0.34332 0.43996 0.0
H282 H 0.8125 0.18835 0.49782 0.0
H283 H 0.72118 0.23819 0.51671 0.0
C284 C 0.67827 0.34916 0.50099 0.0
C285 C 0.66189 0.40847 0.49157 0.0
C286 C 0.73017 0.32002 0.48972 0.0
C287 C 0.69795 0.43812 0.47043 0.0
C288 C 0.74889 0.40892 0.45851 0.0
C289 C 0.81779 0.3207 0.457 0.0
C290 C 0.83518 0.26199 0.46731 0.0
C291 C 0.76574 0.34999 0.4682 0.0
C292 C 0.79972 0.2331 0.48904 0.0
C293 C 0.7476 0.26167 0.50001 0.0
H294 H 0.43582 0.35882 0.55932 0.0
H295 H 0.34542 0.33994 0.46269 0.0
H296 H 0.29439 0.24769 0.47733 0.0
H297 H 0.26755 0.17724 0.51865 0.0
H298 H 0.35498 0.19765 0.61566 0.0
H299 H 0.41484 0.28392 0.59983 0.0
C300 C 0.40573 0.33401 0.54137 0.0
C301 C 0.39416 0.35662 0.51005 0.0
C302 C 0.37532 0.28142 0.55009 0.0
C303 C 0.35479 0.32393 0.48709 0.0
C304 C 0.32545 0.2711 0.49542 0.0
C305 C 0.30053 0.19995 0.53618 0.0
C306 C 0.30629 0.18145 0.56833 0.0
C307 C 0.33418 0.25015 0.52701 0.0
C308 C 0.34892 0.21164 0.59083 0.0
C309 C 0.38331 0.2609 0.5818 0.0
H310 H 0.4499 0.7412 0.50827 0.0
H311 H 0.2829 0.64566 0.52734 0.0
H312 H 0.22048 0.73837 0.52051 0.0
H313 H 0.20975 0.84062 0.49873 0.0
H314 H 0.37458 0.9355 0.47594 0.0
H315 H 0.4417 0.84991 0.49489 0.0
C316 C 0.40046 0.74154 0.51226 0.0
C317 C 0.37084 0.68703 0.51839 0.0
C318 C 0.36421 0.79462 0.50676 0.0
C319 C 0.30651 0.68737 0.52282 0.0
C320 C 0.27072 0.74018 0.51854 0.0
C321 C 0.26055 0.84288 0.49854 0.0
C322 C 0.28719 0.89361 0.48548 0.0
C323 C 0.2984 0.79317 0.50882 0.0
C324 C 0.35307 0.8967 0.4858 0.0
C325 C 0.39136 0.84763 0.49646 0.0
H326 H 0.92057 0.97552 0.12394 0.0
H327 H 0.00934 0.13704 0.09475 0.0
H328 H 0.02812 0.17013 0.15082 0.0
H329 H 0.03269 0.14511 0.20854 0.0
H330 H 0.94308 0.98258 0.23651 0.0
H331 H 0.91199 0.95762 0.18055 0.0
C332 C 0.9427 0.0187 0.12982 0.0
C333 C 0.96411 0.05353 0.10541 0.0
C334 C 0.9546 0.03649 0.16196 0.0
C335 C 0.9922 0.10957 0.11317 0.0
C336 C 1.00363 0.12809 0.14527 0.0
C337 C 1.00536 0.10484 0.20241 0.0
C338 C 0.99183 0.06495 0.22678 0.0
C339 C 0.98718 0.09071 0.16996 0.0
C340 C 0.95609 0.01307 0.21831 0.0
C341 C 0.93773 0.99896 0.18629 0.0
H342 H 0.0764 0.01179 0.90981 0.0
H343 H 0.89 0.94526 0.8782 0.0
H344 H 0.92258 0.92 0.82602 0.0
H345 H 1.00173 0.92115 0.78822 0.0
H346 H 0.18627 0.99341 0.81725 0.0
H347 H 0.15738 0.01123 0.87158 0.0
C348 C 0.04328 0.99134 0.89154 0.0
C349 C 0.98086 0.9807 0.89787 0.0
C350 C 0.06203 0.97778 0.86112 0.0
C351 C 0.93814 0.95465 0.87386 0.0
C352 C 0.95674 0.93986 0.84401 0.0
C353 C 0.0359 0.93984 0.80664 0.0
C354 C 0.09609 0.95541 0.799 0.0
C355 C 0.01826 0.95176 0.83726 0.0
C356 C 0.13964 0.9809 0.82277 0.0
C357 C 0.12306 0.99125 0.85372 0.0
H358 H 0.58894 0.57636 0.61688 0.0
H359 H 0.38803 0.59716 0.61673 0.0
H360 H 0.40272 0.62576 0.67381 0.0
H361 H 0.47289 0.63222 0.72499 0.0
H362 H 0.67261 0.60025 0.72474 0.0
H363 H 0.6588 0.58869 0.66644 0.0
C364 C 0.5486 0.58906 0.62916 0.0
C365 C 0.48768 0.58606 0.61279 0.0
C366 C 0.55742 0.60228 0.66197 0.0
C367 C 0.43537 0.60051 0.62893 0.0
C368 C 0.44385 0.61613 0.66154 0.0
C369 C 0.51331 0.62373 0.71196 0.0
C370 C 0.57371 0.61695 0.72892 0.0
C371 C 0.50459 0.61529 0.67853 0.0
C372 C 0.6258 0.60526 0.71206 0.0
C373 C 0.61789 0.59876 0.67882 0.0
H374 H 0.60491 0.46357 0.4207 0.0
H375 H 0.54059 0.64643 0.40514 0.0
H376 H 0.57127 0.64313 0.35069 0.0
H377 H 0.59833 0.58217 0.30555 0.0
H378 H 0.66727 0.39983 0.32147 0.0
H379 H 0.65378 0.40932 0.3782 0.0
C380 C 0.60161 0.50384 0.40611 0.0
C381 C 0.57267 0.55583 0.41711 0.0
C382 C 0.61825 0.50103 0.37467 0.0
C383 C 0.56427 0.60652 0.39726 0.0
C384 C 0.58109 0.60432 0.36605 0.0
C385 C 0.61268 0.54497 0.32138 0.0
C386 C 0.63224 0.48973 0.30874 0.0
C387 C 0.60554 0.55088 0.35409 0.0
C388 C 0.64983 0.4422 0.33008 0.0
C389 C 0.64263 0.44768 0.36266 0.0
loop_
_geom_bond_atom_site_label_1
_geom_bond_atom_site_label_2
_geom_bond_distance
_geom_bond_site_symmetry_2
_ccdc_geom_bond_type
Zn0 O6 1.920 1_545 S
Zn0 O12 1.898 . S
Zn0 O15 1.905 1_545 S
Zn1 O9 1.905 . S
Zn1 O10 1.898 1_545 S
Zn1 O18 1.920 1_545 S
Zn2 O5 2.080 1_445 S
Zn2 O8 2.114 . S
Zn2 O11 2.120 1_545 S
Zn2 O13 2.120 1_455 S
Zn2 O14 2.114 1_554 S
Zn2 O17 2.080 . S
C3 O8 1.166 . S
C3 O9 1.182 . S
C4 O10 1.167 . S
C4 O11 1.299 . S
O5 Zn2 2.080 1_665 S
O5 C19 1.305 . S
O6 Zn0 1.920 1_565 S
O6 C19 1.234 1_556 S
C7 O12 1.167 . S
C7 O13 1.299 1_556 S
O8 Zn2 2.114 . S
O8 C3 1.166 . S
O9 Zn1 1.905 . S
O9 C3 1.182 . S
O10 Zn1 1.898 1_565 S
O10 C4 1.167 . S
O11 Zn2 2.120 1_565 S
O11 C4 1.299 . S
O12 Zn0 1.898 . S
O12 C7 1.167 . S
O13 Zn2 2.120 1_655 S
O13 C7 1.299 1_554 S
O14 Zn2 2.114 1_556 S
O14 C16 1.166 1_545 S
O15 Zn0 1.905 1_565 S
O15 C16 1.182 1_655 S
C16 O14 1.166 1_565 S
C16 O15 1.182 1_455 S
O17 Zn2 2.080 . S
O17 C20 1.305 1_545 S
O18 Zn1 1.920 1_565 S
O18 C20 1.234 . S
C19 O5 1.305 . S
C19 O6 1.234 1_554 S
C20 O17 1.305 1_565 S
C20 O18 1.234 . S
Zn21 O27 1.920 . S
Zn21 O33 1.898 . S
Zn21 O36 1.905 . S
Zn22 O30 1.905 . S
Zn22 O31 1.898 . S
Zn22 O39 1.920 . S
Zn23 O26 2.080 . S
Zn23 O29 2.114 . S
Zn23 O32 2.120 . S
Zn23 O34 2.120 . S
Zn23 O35 2.114 . S
Zn23 O38 2.080 . S
C24 O29 1.166 . S
C24 O30 1.182 . S
C25 O31 1.167 . S
C25 O32 1.299 . S
O26 Zn23 2.080 . S
O26 C40 1.305 . S
O27 Zn21 1.920 . S
O27 C40 1.234 . S
C28 O33 1.167 . S
C28 O34 1.299 . S
O29 Zn23 2.114 . S
O29 C24 1.166 . S
O30 Zn22 1.905 . S
O30 C24 1.182 . S
O31 Zn22 1.898 . S
O31 C25 1.167 . S
O32 Zn23 2.120 . S
O32 C25 1.299 . S
O33 Zn21 1.898 . S
O33 C28 1.167 . S
O34 Zn23 2.120 . S
O34 C28 1.299 . S
O35 Zn23 2.114 . S
O35 C37 1.166 . S
O36 Zn21 1.905 . S
O36 C37 1.182 . S
C37 O35 1.166 . S
C37 O36 1.182 . S
O38 Zn23 2.080 . S
O38 C41 1.305 . S
O39 Zn22 1.920 . S
O39 C41 1.234 . S
C40 O26 1.305 . S
C40 O27 1.234 . S
C41 O38 1.305 . S
C41 O39 1.234 . S
C42 C43 1.386 1_565 S
C42 C44 1.397 . S
C42 H66 0.931 . S
C43 C42 1.386 1_545 S
C43 C47 1.397 . S
C44 C42 1.397 . S
C44 C45 1.384 1_565 S
C44 H67 0.930 . S
C45 C44 1.384 1_545 S
C45 C46 1.377 . S
C45 C48 1.481 . S
C46 C45 1.377 . S
C46 C47 1.389 . S
C46 H68 0.929 . S
C47 C43 1.397 . S
C47 C46 1.389 . S
C47 H69 0.931 . S
C48 C45 1.481 . S
C48 C49 1.387 1_545 S
C48 C53 1.390 . S
C49 C48 1.387 1_565 S
C49 C50 1.401 . S
C49 H70 0.930 . S
C50 C49 1.401 . S
C50 C51 1.376 1_565 S
C50 C59 1.511 . S
C51 C50 1.376 1_545 S
C51 C52 1.392 . S
C51 H72 0.931 . S
C52 C51 1.392 . S
C52 C53 1.361 . S
C52 C54 1.500 1_455 S
C53 C48 1.390 . S
C53 C52 1.361 . S
C53 H71 0.931 . S
C54 C52 1.500 1_655 S
C54 C55 1.371 . S
C54 C56 1.365 . S
C55 C54 1.371 . S
C55 C65 1.386 . S
C55 H73 0.931 . S
C56 C54 1.365 . S
C56 C57 1.409 . S
C56 H74 0.929 . S
C57 C56 1.409 . S
C57 C58 1.380 . S
C57 H75 0.930 . S
C58 C57 1.380 . S
C58 C65 1.357 . S
C59 C50 1.511 . S
C59 C60 1.341 . S
C59 C61 1.371 . S
C60 C59 1.341 . S
C60 C64 1.394 . S
C60 H76 0.930 . S
C61 C59 1.371 . S
C61 C62 1.392 . S
C61 H77 0.931 . S
C62 C61 1.392 . S
C62 C63 1.331 . S
C62 H80 0.932 . S
C63 C62 1.331 . S
C63 C64 1.336 . S
C64 C60 1.394 . S
C64 C63 1.336 . S
C64 H79 0.929 . S
C65 C55 1.386 . S
C65 C58 1.357 . S
C65 H78 0.928 . S
H66 C42 0.931 . S
H67 C44 0.930 . S
H68 C46 0.929 . S
H69 C47 0.931 . S
H70 C49 0.930 . S
H71 C53 0.931 . S
H72 C51 0.931 . S
H73 C55 0.931 . S
H74 C56 0.929 . S
H75 C57 0.930 . S
H76 C60 0.930 . S
H77 C61 0.931 . S
H78 C65 0.928 . S
H79 C64 0.929 . S
H80 C62 0.932 . S
C81 C82 1.386 . S
C81 C83 1.397 . S
C81 H105 0.931 . S
C82 C81 1.386 . S
C82 C86 1.397 1_545 S
C83 C81 1.397 . S
C83 C84 1.384 . S
C83 H106 0.930 . S
C84 C83 1.384 . S
C84 C85 1.377 1_545 S
C84 C87 1.481 . S
C85 C84 1.377 1_565 S
C85 C86 1.389 . S
C85 H107 0.929 . S
C86 C82 1.397 1_565 S
C86 C85 1.389 . S
C86 H108 0.931 . S
C87 C84 1.481 . S
C87 C88 1.387 . S
C87 C92 1.390 1_445 S
C88 C87 1.387 . S
C88 C89 1.401 . S
C88 H109 0.930 . S
C89 C88 1.401 . S
C89 C90 1.376 1_455 S
C89 C98 1.511 . S
C90 C89 1.376 1_655 S
C90 C91 1.392 1_545 S
C90 H111 0.931 . S
C91 C90 1.392 1_565 S
C91 C92 1.361 . S
C91 C93 1.500 . S
C92 C87 1.390 1_665 S
C92 C91 1.361 . S
C92 H110 0.931 . S
C93 C91 1.500 . S
C93 C94 1.371 . S
C93 C95 1.365 . S
C94 C93 1.371 . S
C94 C104 1.386 . S
C94 H112 0.931 . S
C95 C93 1.365 . S
C95 C96 1.409 . S
C95 H113 0.929 . S
C96 C95 1.409 . S
C96 C97 1.380 . S
C96 H114 0.930 . S
C97 C96 1.380 . S
C97 C104 1.357 . S
C98 C89 1.511 . S
C98 C99 1.341 . S
C98 C100 1.371 . S
C99 C98 1.341 . S
C99 C103 1.394 . S
C99 H115 0.930 . S
C100 C98 1.371 . S
C100 C101 1.392 . S
C100 H116 0.931 . S
C101 C100 1.392 . S
C101 C102 1.331 . S
C101 H119 0.932 . S
C102 C101 1.331 . S
C102 C103 1.336 . S
C103 C99 1.394 . S
C103 C102 1.336 . S
C103 H118 0.929 . S
C104 C94 1.386 . S
C104 C97 1.357 . S
C104 H117 0.928 . S
H105 C81 0.931 . S
H106 C83 0.930 . S
H107 C85 0.929 . S
H108 C86 0.931 . S
H109 C88 0.930 . S
H110 C92 0.931 . S
H111 C90 0.931 . S
H112 C94 0.931 . S
H113 C95 0.929 . S
H114 C96 0.930 . S
H115 C99 0.930 . S
H116 C100 0.931 . S
H117 C104 0.928 . S
H118 C103 0.929 . S
H119 C101 0.932 . S
C120 C121 1.386 . S
C120 C122 1.397 . S
C120 H144 0.931 . S
C121 C120 1.386 . S
C121 C125 1.397 . S
C122 C120 1.397 . S
C122 C123 1.384 . S
C122 H145 0.930 . S
C123 C122 1.384 . S
C123 C124 1.377 . S
C123 C126 1.481 . S
C124 C123 1.377 . S
C124 C125 1.389 . S
C124 H146 0.929 . S
C125 C121 1.397 . S
C125 C124 1.389 . S
C125 H147 0.931 . S
C126 C123 1.481 . S
C126 C127 1.387 . S
C126 C131 1.390 . S
C127 C126 1.387 . S
C127 C128 1.401 . S
C127 H148 0.930 . S
C128 C127 1.401 . S
C128 C129 1.376 . S
C128 C137 1.511 . S
C129 C128 1.376 . S
C129 C130 1.392 . S
C129 H150 0.931 . S
C130 C129 1.392 . S
C130 C131 1.361 . S
C130 C132 1.500 . S
C131 C126 1.390 . S
C131 C130 1.361 . S
C131 H149 0.931 . S
C132 C130 1.500 . S
C132 C133 1.371 . S
C132 C134 1.365 . S
C133 C132 1.371 . S
C133 C143 1.386 . S
C133 H151 0.931 . S
C134 C132 1.365 . S
C134 C135 1.409 . S
C134 H152 0.929 . S
C135 C134 1.409 . S
C135 C136 1.380 . S
C135 H153 0.930 . S
C136 C135 1.380 . S
C136 C143 1.357 . S
C137 C128 1.511 . S
C137 C138 1.341 . S
C137 C139 1.371 . S
C138 C137 1.341 . S
C138 C142 1.394 . S
C138 H154 0.930 . S
C139 C137 1.371 . S
C139 C140 1.392 . S
C139 H155 0.931 . S
C140 C139 1.392 . S
C140 C141 1.331 . S
C140 H158 0.932 1_556 S
C141 C140 1.331 . S
C141 C142 1.336 . S
C142 C138 1.394 . S
C142 C141 1.336 . S
C142 H157 0.929 . S
C143 C133 1.386 . S
C143 C136 1.357 . S
C143 H156 0.928 . S
H144 C120 0.931 . S
H145 C122 0.930 . S
H146 C124 0.929 . S
H147 C125 0.931 . S
H148 C127 0.930 . S
H149 C131 0.931 . S
H150 C129 0.931 . S
H151 C133 0.931 . S
H152 C134 0.929 . S
H153 C135 0.930 . S
H154 C138 0.930 . S
H155 C139 0.931 . S
H156 C143 0.928 . S
H157 C142 0.929 . S
H158 C140 0.932 1_554 S
C159 C160 1.386 . S
C159 C161 1.397 . S
C159 H183 0.931 . S
C160 C159 1.386 . S
C160 C164 1.397 . S
C161 C159 1.397 . S
C161 C162 1.384 . S
C161 H184 0.930 . S
C162 C161 1.384 . S
C162 C163 1.377 . S
C162 C165 1.481 . S
C163 C162 1.377 . S
C163 C164 1.389 . S
C163 H185 0.929 . S
C164 C160 1.397 . S
C164 C163 1.389 . S
C164 H186 0.931 . S
C165 C162 1.481 . S
C165 C166 1.387 . S
C165 C170 1.390 . S
C166 C165 1.387 . S
C166 C167 1.401 . S
C166 H187 0.930 . S
C167 C166 1.401 . S
C167 C168 1.376 . S
C167 C176 1.511 . S
C168 C167 1.376 . S
C168 C169 1.392 . S
C168 H189 0.931 . S
C169 C168 1.392 . S
C169 C170 1.361 . S
C169 C171 1.500 . S
C170 C165 1.390 . S
C170 C169 1.361 . S
C170 H188 0.931 . S
C171 C169 1.500 . S
C171 C172 1.371 . S
C171 C173 1.365 . S
C172 C171 1.371 . S
C172 C182 1.386 . S
C172 H190 0.931 . S
C173 C171 1.365 . S
C173 C174 1.409 . S
C173 H191 0.929 . S
C174 C173 1.409 . S
C174 C175 1.380 . S
C174 H192 0.930 . S
C175 C174 1.380 . S
C175 C182 1.357 . S
C176 C167 1.511 . S
C176 C177 1.341 . S
C176 C178 1.371 . S
C177 C176 1.341 . S
C177 C181 1.394 . S
C177 H193 0.930 . S
C178 C176 1.371 . S
C178 C179 1.392 . S
C178 H194 0.931 . S
C179 C178 1.392 . S
C179 C180 1.331 . S
C179 H197 0.932 . S
C180 C179 1.331 . S
C180 C181 1.336 . S
C181 C177 1.394 . S
C181 C180 1.336 . S
C181 H196 0.929 . S
C182 C172 1.386 . S
C182 C175 1.357 . S
C182 H195 0.928 . S
H183 C159 0.931 . S
H184 C161 0.930 . S
H185 C163 0.929 . S
H186 C164 0.931 . S
H187 C166 0.930 . S
H188 C170 0.931 . S
H189 C168 0.931 . S
H190 C172 0.931 . S
H191 C173 0.929 . S
H192 C174 0.930 . S
H193 C177 0.930 . S
H194 C178 0.931 . S
H195 C182 0.928 . S
H196 C181 0.929 . S
H197 C179 0.932 . S
H198 C204 0.930 . S
H199 C207 0.930 . S
H200 C208 0.930 . S
H201 C209 0.930 . S
H202 C212 0.930 . S
H203 C213 0.930 . S
C204 H198 0.930 . S
C204 C205 1.355 . S
C204 C206 1.415 . S
C205 C204 1.355 . S
C205 C207 1.419 . S
C206 C204 1.415 . S
C206 C211 1.425 . S
C206 C213 1.409 . S
C207 H199 0.930 . S
C207 C205 1.419 . S
C207 C208 1.362 . S
C208 H200 0.930 . S
C208 C207 1.362 . S
C208 C211 1.409 . S
C209 H201 0.930 . S
C209 C210 1.355 . S
C209 C211 1.415 . S
C210 C209 1.355 . S
C210 C212 1.419 . S
C211 C206 1.425 . S
C211 C208 1.409 . S
C211 C209 1.415 . S
C212 H202 0.930 . S
C212 C210 1.419 . S
C212 C213 1.362 . S
C213 H203 0.930 . S
C213 C206 1.409 . S
C213 C212 1.362 . S
H214 C220 0.930 . S
H215 C223 0.930 . S
H216 C224 0.930 . S
H217 C225 0.930 . S
H218 C228 0.930 . S
H219 C229 0.930 . S
C220 H214 0.930 . S
C220 C221 1.355 . S
C220 C222 1.415 . S
C221 C220 1.355 . S
C221 C223 1.419 . S
C222 C220 1.415 . S
C222 C227 1.425 . S
C222 C229 1.409 . S
C223 H215 0.930 . S
C223 C221 1.419 . S
C223 C224 1.362 . S
C224 H216 0.930 . S
C224 C223 1.362 . S
C224 C227 1.409 . S
C225 H217 0.930 . S
C225 C226 1.355 . S
C225 C227 1.415 . S
C226 C225 1.355 . S
C226 C228 1.419 . S
C227 C222 1.425 . S
C227 C224 1.409 . S
C227 C225 1.415 . S
C228 H218 0.930 . S
C228 C226 1.419 . S
C228 C229 1.362 . S
C229 H219 0.930 . S
C229 C222 1.409 . S
C229 C228 1.362 . S
H230 C236 0.930 . S
H231 C239 0.930 . S
H232 C240 0.930 . S
H233 C241 0.930 . S
H234 C244 0.930 . S
H235 C245 0.930 . S
C236 H230 0.930 . S
C236 C237 1.355 . S
C236 C238 1.415 . S
C237 C236 1.355 . S
C237 C239 1.419 . S
C238 C236 1.415 . S
C238 C243 1.425 . S
C238 C245 1.409 . S
C239 H231 0.930 . S
C239 C237 1.419 . S
C239 C240 1.362 . S
C240 H232 0.930 . S
C240 C239 1.362 . S
C240 C243 1.409 . S
C241 H233 0.930 . S
C241 C242 1.355 . S
C241 C243 1.415 . S
C242 C241 1.355 . S
C242 C244 1.419 . S
C243 C238 1.425 . S
C243 C240 1.409 . S
C243 C241 1.415 . S
C244 H234 0.930 . S
C244 C242 1.419 . S
C244 C245 1.362 . S
C245 H235 0.930 . S
C245 C238 1.409 . S
C245 C244 1.362 . S
H246 C252 0.930 . S
H247 C255 0.930 1_455 S
H248 C256 0.930 . S
H249 C257 0.930 . S
H250 C260 0.930 . S
H251 C261 0.930 . S
C252 H246 0.930 . S
C252 C253 1.355 . S
C252 C254 1.415 . S
C253 C252 1.355 . S
C253 C255 1.419 . S
C254 C252 1.415 . S
C254 C259 1.425 . S
C254 C261 1.409 . S
C255 H247 0.930 1_655 S
C255 C253 1.419 . S
C255 C256 1.362 . S
C256 H248 0.930 . S
C256 C255 1.362 . S
C256 C259 1.409 . S
C257 H249 0.930 . S
C257 C258 1.355 . S
C257 C259 1.415 . S
C258 C257 1.355 . S
C258 C260 1.419 . S
C259 C254 1.425 . S
C259 C256 1.409 . S
C259 C257 1.415 . S
C260 H250 0.930 . S
C260 C258 1.419 . S
C260 C261 1.362 . S
C261 H251 0.930 . S
C261 C254 1.409 . S
C261 C260 1.362 . S
H262 C268 0.930 . S
H263 C271 0.930 . S
H264 C272 0.930 . S
H265 C273 0.930 . S
H266 C276 0.930 . S
H267 C277 0.930 . S
C268 H262 0.930 . S
C268 C269 1.355 . S
C268 C270 1.415 . S
C269 C268 1.355 . S
C269 C271 1.419 . S
C270 C268 1.415 . S
C270 C275 1.425 . S
C270 C277 1.409 . S
C271 H263 0.930 . S
C271 C269 1.419 . S
C271 C272 1.362 . S
C272 H264 0.930 . S
C272 C271 1.362 . S
C272 C275 1.409 . S
C273 H265 0.930 . S
C273 C274 1.355 . S
C273 C275 1.415 . S
C274 C273 1.355 . S
C274 C276 1.419 . S
C275 C270 1.425 . S
C275 C272 1.409 . S
C275 C273 1.415 . S
C276 H266 0.930 . S
C276 C274 1.419 . S
C276 C277 1.362 . S
C277 H267 0.930 . S
C277 C270 1.409 . S
C277 C276 1.362 . S
H278 C284 0.930 . S
H279 C287 0.930 . S
H280 C288 0.930 . S
H281 C289 0.930 . S
H282 C292 0.930 . S
H283 C293 0.930 . S
C284 H278 0.930 . S
C284 C285 1.355 . S
C284 C286 1.415 . S
C285 C284 1.355 . S
C285 C287 1.419 . S
C286 C284 1.415 . S
C286 C291 1.425 . S
C286 C293 1.409 . S
C287 H279 0.930 . S
C287 C285 1.419 . S
C287 C288 1.362 . S
C288 H280 0.930 . S
C288 C287 1.362 . S
C288 C291 1.409 . S
C289 H281 0.930 . S
C289 C290 1.355 . S
C289 C291 1.415 . S
C290 C289 1.355 . S
C290 C292 1.419 . S
C291 C286 1.425 . S
C291 C288 1.409 . S
C291 C289 1.415 . S
C292 H282 0.930 . S
C292 C290 1.419 . S
C292 C293 1.362 . S
C293 H283 0.930 . S
C293 C286 1.409 . S
C293 C292 1.362 . S
H294 C300 0.930 . S
H295 C303 0.930 . S
H296 C304 0.930 . S
H297 C305 0.930 . S
H298 C308 0.930 . S
H299 C309 0.930 . S
C300 H294 0.930 . S
C300 C301 1.355 . S
C300 C302 1.415 . S
C301 C300 1.355 . S
C301 C303 1.419 . S
C302 C300 1.415 . S
C302 C307 1.425 . S
C302 C309 1.409 . S
C303 H295 0.930 . S
C303 C301 1.419 . S
C303 C304 1.362 . S
C304 H296 0.930 . S
C304 C303 1.362 . S
C304 C307 1.409 . S
C305 H297 0.930 . S
C305 C306 1.355 . S
C305 C307 1.415 . S
C306 C305 1.355 . S
C306 C308 1.419 . S
C307 C302 1.425 . S
C307 C304 1.409 . S
C307 C305 1.415 . S
C308 H298 0.930 . S
C308 C306 1.419 . S
C308 C309 1.362 . S
C309 H299 0.930 . S
C309 C302 1.409 . S
C309 C308 1.362 . S
H310 C316 0.930 . S
H311 C319 0.930 . S
H312 C320 0.930 . S
H313 C321 0.930 . S
H314 C324 0.930 . S
H315 C325 0.930 . S
C316 H310 0.930 . S
C316 C317 1.355 . S
C316 C318 1.415 . S
C317 C316 1.355 . S
C317 C319 1.419 . S
C318 C316 1.415 . S
C318 C323 1.425 . S
C318 C325 1.409 . S
C319 H311 0.930 . S
C319 C317 1.419 . S
C319 C320 1.362 . S
C320 H312 0.930 . S
C320 C319 1.362 . S
C320 C323 1.409 . S
C321 H313 0.930 . S
C321 C322 1.355 . S
C321 C323 1.415 . S
C322 C321 1.355 . S
C322 C324 1.419 . S
C323 C318 1.425 . S
C323 C320 1.409 . S
C323 C321 1.415 . S
C324 H314 0.930 . S
C324 C322 1.419 . S
C324 C325 1.362 . S
C325 H315 0.930 . S
C325 C318 1.409 . S
C325 C324 1.362 . S
H326 C332 0.930 1_655 S
H327 C335 0.930 . S
H328 C336 0.930 . S
H329 C337 0.930 . S
H330 C340 0.930 1_655 S
H331 C341 0.930 . S
C332 H326 0.930 1_455 S
C332 C333 1.355 . S
C332 C334 1.415 . S
C333 C332 1.355 . S
C333 C335 1.419 1_565 S
C334 C332 1.415 . S
C334 C339 1.425 1_565 S
C334 C341 1.409 1_455 S
C335 H327 0.930 . S
C335 C333 1.419 1_545 S
C335 C336 1.362 . S
C336 H328 0.930 . S
C336 C335 1.362 . S
C336 C339 1.409 . S
C337 H329 0.930 . S
C337 C338 1.355 . S
C337 C339 1.415 . S
C338 C337 1.355 . S
C338 C340 1.419 1_545 S
C339 C334 1.425 1_545 S
C339 C336 1.409 . S
C339 C337 1.415 . S
C340 H330 0.930 1_455 S
C340 C338 1.419 1_565 S
C340 C341 1.362 1_455 S
C341 H331 0.930 . S
C341 C334 1.409 1_655 S
C341 C340 1.362 1_655 S
H342 C348 0.930 . S
H343 C351 0.930 . S
H344 C352 0.930 . S
H345 C353 0.931 . S
H346 C356 0.930 . S
H347 C357 0.930 . S
C348 H342 0.930 . S
C348 C349 1.355 1_545 S
C348 C350 1.415 . S
C349 C348 1.355 1_565 S
C349 C351 1.419 1_455 S
C350 C348 1.415 . S
C350 C355 1.425 1_455 S
C350 C357 1.409 . S
C351 H343 0.930 . S
C351 C349 1.419 1_655 S
C351 C352 1.362 . S
C352 H344 0.930 . S
C352 C351 1.362 . S
C352 C355 1.409 1_565 S
C353 H345 0.931 . S
C353 C354 1.355 1_655 S
C353 C355 1.415 . S
C354 C353 1.355 1_455 S
C354 C356 1.419 . S
C355 C350 1.425 1_655 S
C355 C352 1.409 1_545 S
C355 C353 1.415 . S
C356 H346 0.930 . S
C356 C354 1.419 . S
C356 C357 1.362 . S
C357 H347 0.930 . S
C357 C350 1.409 . S
C357 C356 1.362 . S
H358 C364 0.930 . S
H359 C367 0.930 . S
H360 C368 0.930 . S
H361 C369 0.930 . S
H362 C372 0.930 . S
H363 C373 0.930 . S
C364 H358 0.930 . S
C364 C365 1.355 . S
C364 C366 1.415 . S
C365 C364 1.355 . S
C365 C367 1.419 . S
C366 C364 1.415 . S
C366 C371 1.425 . S
C366 C373 1.409 . S
C367 H359 0.930 . S
C367 C365 1.419 . S
C367 C368 1.362 . S
C368 H360 0.930 . S
C368 C367 1.362 . S
C368 C371 1.409 . S
C369 H361 0.930 . S
C369 C370 1.355 . S
C369 C371 1.415 . S
C370 C369 1.355 . S
C370 C372 1.419 . S
C371 C366 1.425 . S
C371 C368 1.409 . S
C371 C369 1.415 . S
C372 H362 0.930 . S
C372 C370 1.419 . S
C372 C373 1.362 . S
C373 H363 0.930 . S
C373 C366 1.409 . S
C373 C372 1.362 . S
H374 C380 0.930 . S
H375 C383 0.930 . S
H376 C384 0.930 . S
H377 C385 0.930 . S
H378 C388 0.930 . S
H379 C389 0.930 . S
C380 H374 0.930 . S
C380 C381 1.355 . S
C380 C382 1.415 . S
C381 C380 1.355 . S
C381 C383 1.419 . S
C382 C380 1.415 . S
C382 C387 1.425 . S
C382 C389 1.409 . S
C383 H375 0.930 . S
C383 C381 1.419 . S
C383 C384 1.362 . S
C384 H376 0.930 . S
C384 C383 1.362 . S
C384 C387 1.409 . S
C385 H377 0.930 . S
C385 C386 1.355 . S
C385 C387 1.415 . S
C386 C385 1.355 . S
C386 C388 1.419 . S
C387 C382 1.425 . S
C387 C384 1.409 . S
C387 C385 1.415 . S
C388 H378 0.930 . S
C388 C386 1.419 . S
C388 C389 1.362 . S
C389 H379 0.930 . S
C389 C382 1.409 . S
C389 C388 1.362 . S
C210 C175 1.277 . S
C205 C3 1.219 . S
C221 C4 1.455 1_556 S
C226 C136 1.599 . S
C237 C19 1.556 . S
C242 C180 1.633 . S
C253 C7 1.214 . S
C258 C141 1.285 . S
C269 C37 1.151 . S
C274 C97 1.257 . S
C285 C28 1.495 . S
C290 C58 1.617 . S
C306 C102 1.608 . S
C301 C41 1.472 . S
C322 C63 1.268 . S
C317 C25 1.151 . S
C333 C20 1.244 . S
C338 C43 1.454 . S
C349 C16 1.290 . S
C354 C82 1.513 . S
C370 C121 1.472 . S
C365 C40 1.357 . S
C381 C24 1.285 . S
C386 C160 1.510 . S
