# Generated by pormake.
# Topology pyr, (3,6)-cn, num edge types: 1
# Building blocks:
#     Node 0, Type 0, BuildingBlock: BETDAH_clean_linker_0, # of connection points: 3
#     Node 1, Type 0, BuildingBlock: BETDAH_clean_linker_0, # of connection points: 3
#     Node 2, Type 0, BuildingBlock: BETDAH_clean_linker_0, # of connection points: 3
#     Node 3, Type 0, BuildingBlock: BETDAH_clean_linker_0, # of connection points: 3
#     Node 4, Type 0, BuildingBlock: BETDAH_clean_linker_0, # of connection points: 3
#     Node 5, Type 0, BuildingBlock: BETDAH_clean_linker_0, # of connection points: 3
#     Node 6, Type 0, BuildingBlock: BETDAH_clean_linker_0, # of connection points: 3
#     Node 7, Type 0, BuildingBlock: BETDAH_clean_linker_0, # of connection points: 3
#     Node 8, Type 1, BuildingBlock: BETDAH_clean_sbu_0, # of connection points: 6
#     Node 9, Type 1, BuildingBlock: BETDAH_clean_sbu_0, # of connection points: 6
#     Node 10, Type 1, BuildingBlock: BETDAH_clean_sbu_0, # of connection points: 6
#     Node 11, Type 1, BuildingBlock: BETDAH_clean_sbu_0, # of connection points: 6
#     Edge 12, Type (0, 1), BuildingBlock: MIFKUJ_clean_linker_0, # of connection points: 2
#     Edge 13, Type (0, 1), BuildingBlock: MIFKUJ_clean_linker_0, # of connection points: 2
#     Edge 14, Type (0, 1), BuildingBlock: MIFKUJ_clean_linker_0, # of connection points: 2
#     Edge 15, Type (0, 1), BuildingBlock: MIFKUJ_clean_linker_0, # of connection points: 2
#     Edge 16, Type (0, 1), BuildingBlock: MIFKUJ_clean_linker_0, # of connection points: 2
#     Edge 17, Type (0, 1), BuildingBlock: MIFKUJ_clean_linker_0, # of connection points: 2
#     Edge 18, Type (0, 1), BuildingBlock: MIFKUJ_clean_linker_0, # of connection points: 2
#     Edge 19, Type (0, 1), BuildingBlock: MIFKUJ_clean_linker_0, # of connection points: 2
#     Edge 20, Type (0, 1), BuildingBlock: MIFKUJ_clean_linker_0, # of connection points: 2
#     Edge 21, Type (0, 1), BuildingBlock: MIFKUJ_clean_linker_0, # of connection points: 2
#     Edge 22, Type (0, 1), BuildingBlock: MIFKUJ_clean_linker_0, # of connection points: 2
#     Edge 23, Type (0, 1), BuildingBlock: MIFKUJ_clean_linker_0, # of connection points: 2
#     Edge 24, Type (0, 1), BuildingBlock: MIFKUJ_clean_linker_0, # of connection points: 2
#     Edge 25, Type (0, 1), BuildingBlock: MIFKUJ_clean_linker_0, # of connection points: 2
#     Edge 26, Type (0, 1), BuildingBlock: MIFKUJ_clean_linker_0, # of connection points: 2
#     Edge 27, Type (0, 1), BuildingBlock: MIFKUJ_clean_linker_0, # of connection points: 2
#     Edge 28, Type (0, 1), BuildingBlock: MIFKUJ_clean_linker_0, # of connection points: 2
#     Edge 29, Type (0, 1), BuildingBlock: MIFKUJ_clean_linker_0, # of connection points: 2
#     Edge 30, Type (0, 1), BuildingBlock: MIFKUJ_clean_linker_0, # of connection points: 2
#     Edge 31, Type (0, 1), BuildingBlock: MIFKUJ_clean_linker_0, # of connection points: 2
#     Edge 32, Type (0, 1), BuildingBlock: MIFKUJ_clean_linker_0, # of connection points: 2
#     Edge 33, Type (0, 1), BuildingBlock: MIFKUJ_clean_linker_0, # of connection points: 2
#     Edge 34, Type (0, 1), BuildingBlock: MIFKUJ_clean_linker_0, # of connection points: 2
#     Edge 35, Type (0, 1), BuildingBlock: MIFKUJ_clean_linker_0, # of connection points: 2
# Relax obj value: 0.112
# Max RMSD: 0.191
# Mean RMSD: 0.140
data_MOF--net-pyr--node1-BETDAH_clean_sbu_0--node2-BETDAH_clean_linker_0--edge1-MIFKUJ_clean_linker_0
_symmetry_space_group_name_H-M    P1
_symmetry_Int_Tables_number       1
_symmetry_cell_setting            triclinic
loop_
_symmetry_equiv_pos_as_xyz
'x, y, z'
_cell_length_a     47.863627
_cell_length_b     52.199707
_cell_length_c     48.616461
_cell_angle_alpha  92.033281
_cell_angle_beta   89.659339
_cell_angle_gamma 104.96636
loop_
_atom_site_label
_atom_site_type_symbol
_atom_site_fract_x
_atom_site_fract_y
_atom_site_fract_z
_atom_type_partial_charge
H0 H 0.32823 0.23361 0.25608 0.0
H1 H 0.37852 0.2903 0.20089 0.0
H2 H 0.3077 0.30809 0.24562 0.0
C3 C 0.33277 0.25275 0.24663 0.0
C4 C 0.31555 0.27016 0.2532 0.0
C5 C 0.35543 0.25969 0.2276 0.0
C6 C 0.36129 0.2847 0.21581 0.0
C7 C 0.34403 0.30208 0.22185 0.0
C8 C 0.321 0.29468 0.2405 0.0
N9 N 0.35011 0.32666 0.20851 0.0
C10 C 0.32986 0.34125 0.2058 0.0
H11 H 0.38457 0.89819 0.64695 0.0
H12 H 0.33375 0.95452 0.63727 0.0
H13 H 0.35587 0.91228 0.5666 0.0
C14 C 0.37296 0.90845 0.63398 0.0
C15 C 0.37134 0.90268 0.60553 0.0
C16 C 0.3596 0.92725 0.64572 0.0
C17 C 0.3444 0.94016 0.62855 0.0
C18 C 0.34326 0.93477 0.60001 0.0
C19 C 0.35696 0.91634 0.58866 0.0
N20 N 0.3286 0.94769 0.58214 0.0
C21 C 0.30289 0.95373 0.5892 0.0
H22 H 0.70093 0.36316 0.93066 0.0
H23 H 0.70144 0.41265 0.86118 0.0
H24 H 0.637 0.33838 0.8667 0.0
C25 C 0.69144 0.36681 0.91147 0.0
C26 C 0.66706 0.34786 0.90076 0.0
C27 C 0.70408 0.39028 0.89751 0.0
C28 C 0.69166 0.395 0.87236 0.0
C29 C 0.66703 0.37635 0.86143 0.0
C30 C 0.65527 0.353 0.8757 0.0
N31 N 0.65492 0.37839 0.83499 0.0
C32 C 0.65356 0.40092 0.8207 0.0
H33 H 0.83468 0.73689 0.43053 0.0
H34 H 0.88948 0.7601 0.3606 0.0
H35 H 0.82849 0.68368 0.35936 0.0
C36 C 0.84249 0.73204 0.41055 0.0
C37 C 0.82911 0.70754 0.39705 0.0
C38 C 0.86442 0.7512 0.3978 0.0
C39 C 0.87308 0.74544 0.37108 0.0
C40 C 0.86076 0.72102 0.35736 0.0
C41 C 0.83877 0.70206 0.3704 0.0
N42 N 0.86746 0.71833 0.32898 0.0
C43 C 0.87605 0.69733 0.31594 0.0
H44 H 0.78112 0.80769 0.84735 0.0
H45 H 0.71582 0.7759 0.90717 0.0
H46 H 0.70593 0.83783 0.85469 0.0
C47 C 0.76056 0.80723 0.85713 0.0
C48 C 0.7444 0.8243 0.84843 0.0
C49 C 0.75066 0.7899 0.87852 0.0
C50 C 0.72371 0.78913 0.89053 0.0
C51 C 0.70763 0.80656 0.88239 0.0
C52 C 0.71816 0.82433 0.86131 0.0
N53 N 0.68127 0.80607 0.89611 0.0
C54 C 0.66979 0.82793 0.89822 0.0
H55 H 0.79521 0.21001 0.41859 0.0
H56 H 0.826 0.27195 0.48031 0.0
H57 H 0.78057 0.28736 0.40966 0.0
C58 C 0.79745 0.23019 0.42626 0.0
C59 C 0.78596 0.24747 0.41099 0.0
C60 C 0.81214 0.23882 0.45117 0.0
C61 C 0.81505 0.26498 0.46096 0.0
C62 C 0.80354 0.28226 0.44604 0.0
C63 C 0.78908 0.27361 0.42113 0.0
N64 N 0.80609 0.30832 0.45642 0.0
C65 C 0.78525 0.31322 0.47423 0.0
H66 H 0.34932 0.75945 0.18815 0.0
H67 H 0.35586 0.70211 0.24817 0.0
H68 H 0.42446 0.77298 0.24001 0.0
C69 C 0.36114 0.75322 0.20441 0.0
C70 C 0.38823 0.7698 0.21259 0.0
C71 C 0.34902 0.72866 0.21682 0.0
C72 C 0.36473 0.72068 0.23821 0.0
C73 C 0.39191 0.73698 0.24677 0.0
C74 C 0.40328 0.76109 0.23367 0.0
N75 N 0.40933 0.73042 0.26794 0.0
C76 C 0.40335 0.70944 0.28614 0.0
H77 H 0.20848 0.38003 0.68233 0.0
H78 H 0.19721 0.43927 0.74251 0.0
H79 H 0.13112 0.36621 0.73119 0.0
C80 C 0.19574 0.38622 0.69855 0.0
C81 C 0.16848 0.36974 0.70506 0.0
C82 C 0.20627 0.4113 0.7118 0.0
C83 C 0.18944 0.41988 0.73249 0.0
C84 C 0.16221 0.40334 0.73955 0.0
C85 C 0.15208 0.37866 0.72562 0.0
N86 N 0.14317 0.41074 0.75921 0.0
C87 C 0.14922 0.43045 0.78014 0.0
Ho88 Ho 0.01886 0.0722 0.52016 0.0
Ho89 Ho 0.01598 0.05089 0.57821 0.0
C90 C 0.04704 0.11185 0.57222 0.0
C91 C 0.01771 0.09901 0.4767 0.0
C92 C 0.04002 0.11907 0.46276 0.0
C93 C 0.03221 0.1368 0.44521 0.0
C94 C 0.05347 0.15486 0.43076 0.0
C95 C 0.0829 0.15534 0.43352 0.0
C96 C 0.09053 0.13784 0.45171 0.0
C97 C 0.06934 0.12005 0.4663 0.0
C98 C 0.06308 0.05213 0.5342 0.0
C99 C 0.98802 1.01112 0.52621 0.0
C100 C 0.01798 0.02466 0.62189 0.0
C101 C 0.99635 1.00422 0.63587 0.0
C102 C 1.00085 0.99884 0.66325 0.0
C103 C 0.97858 0.98242 0.67806 0.0
C104 C 0.95147 0.9712 0.66567 0.0
C105 C 0.94753 0.97579 0.6378 0.0
C106 C 0.96978 0.99226 0.62304 0.0
C107 C 0.97146 0.0707 0.56397 0.0
O108 O 0.03475 0.10952 0.54752 0.0
O109 O 0.0472 0.0906 0.58621 0.0
O110 O 0.02179 0.07518 0.47609 0.0
O111 O 1.0097 0.10606 0.50096 0.0
O112 O 0.05306 0.05078 0.50941 0.0
O113 O 0.0511 0.06589 0.54946 0.0
O114 O 1.00017 1.01353 0.55098 0.0
O115 O 0.98777 0.03233 0.51213 0.0
O116 O 1.01243 0.04789 0.62227 0.0
O117 O 0.02648 1.01787 0.5977 0.0
O118 O 0.9813 0.072 0.58884 0.0
O119 O 0.98385 0.05715 0.54891 0.0
H120 H 1.00967 0.13644 0.44242 0.0
H121 H 0.04683 0.1683 0.4173 0.0
H122 H 0.11282 0.13722 0.45408 0.0
H123 H 0.07582 0.10659 0.47989 0.0
H124 H 0.02121 1.00808 0.67345 0.0
H125 H 0.98239 0.97893 0.69938 0.0
H126 H 0.92684 0.96765 0.62776 0.0
H127 H 0.96588 0.99649 0.60196 0.0
Ho128 Ho 0.55574 0.06843 0.06694 0.0
Ho129 Ho 0.4949 0.04762 0.03787 0.0
C130 C 0.49899 0.08205 0.09317 0.0
C131 C 0.60441 0.0994 0.08297 0.0
C132 C 0.61786 0.11097 0.10938 0.0
C133 C 0.62225 0.13828 0.11513 0.0
C134 C 0.63469 0.14967 0.14003 0.0
C135 C 0.6433 0.13402 0.15956 0.0
C136 C 0.63918 0.10674 0.15373 0.0
C137 C 0.62652 0.09528 0.12889 0.0
C138 C 0.52351 0.02394 0.09198 0.0
C139 C 0.5507 0.02956 1.01315 0.0
C140 C 0.44735 0.02096 1.0146 0.0
C141 C 0.43801 1.01152 0.98632 0.0
C142 C 0.45059 0.99373 0.97153 0.0
C143 C 0.44199 0.9858 0.94445 0.0
C144 C 0.42088 0.99565 0.93163 0.0
C145 C 0.4081 1.01317 0.94655 0.0
C146 C 0.41648 0.02091 0.97368 0.0
C147 C 0.52701 0.09649 0.02349 0.0
O148 O 0.52714 0.09053 0.0888 0.0
O149 O 0.48253 0.06157 0.0791 0.0
O150 O 0.60042 0.07375 0.07852 0.0
O151 O 0.58253 0.10805 0.07483 0.0
O152 O 0.54935 0.03694 0.09974 0.0
O153 O 0.51699 0.03612 0.07214 0.0
O154 O 0.52236 0.02667 1.01242 0.0
O155 O 0.5681 0.04603 0.03078 0.0
O156 O 0.45378 0.04665 0.01911 0.0
O157 O 0.46545 1.00988 0.02655 0.0
O158 O 0.49903 0.08945 0.02459 0.0
O159 O 0.53643 0.07653 0.02811 0.0
H160 H 0.61603 0.15086 0.10034 0.0
H161 H 0.63799 0.17082 0.14382 0.0
H162 H 0.64545 0.09419 0.16851 0.0
H163 H 0.62348 0.07417 0.12508 0.0
H164 H 0.46728 0.98615 0.98068 0.0
H165 H 0.45236 0.97243 0.93333 0.0
H166 H 0.39153 0.02083 0.93724 0.0
H167 H 0.40635 0.0345 0.98473 0.0
Ho168 Ho 0.52021 0.53146 0.53958 0.0
Ho169 Ho 0.52176 0.57734 0.57535 0.0
C170 C 0.5468 0.53417 0.60199 0.0
C171 C 0.53144 0.49127 0.51346 0.0
C172 C 0.5468 0.47171 0.5216 0.0
C173 C 0.56948 0.47878 0.54081 0.0
C174 C 0.58346 0.46006 0.54925 0.0
C175 C 0.57561 0.43399 0.53806 0.0
C176 C 0.55267 0.42688 0.51893 0.0
C177 C 0.53827 0.44558 0.51092 0.0
C178 C 0.47044 0.52839 0.56778 0.0
C179 C 0.49634 0.57576 0.5123 0.0
C180 C 0.50864 0.61649 0.60124 0.0
C181 C 0.50083 0.64005 0.59134 0.0
C182 C 0.47392 0.64421 0.59857 0.0
C183 C 0.46498 0.66517 0.58776 0.0
C184 C 0.48297 0.6825 0.56975 0.0
C185 C 0.51003 0.67856 0.56263 0.0
C186 C 0.51882 0.65732 0.57315 0.0
C187 C 0.57167 0.58142 0.54691 0.0
O188 O 0.54798 0.52583 0.57603 0.0
O189 O 0.5332 0.55259 0.60811 0.0
O190 O 0.50708 0.49006 0.52614 0.0
O191 O 0.54725 0.51563 0.51154 0.0
O192 O 0.47149 0.52201 0.54186 0.0
O193 O 0.49576 0.53614 0.57742 0.0
O194 O 0.49741 0.58591 0.53779 0.0
O195 O 0.50685 0.55513 0.50669 0.0
O196 O 0.53533 0.61525 0.59734 0.0
O197 O 0.48979 0.59394 0.59555 0.0
O198 O 0.5704 0.58894 0.57248 0.0
O199 O 0.54633 0.57271 0.53747 0.0
H200 H 0.57666 0.49889 0.5491 0.0
H201 H 0.60071 0.46617 0.5643 0.0
H202 H 0.54637 0.40712 0.50952 0.0
H203 H 0.52073 0.43974 0.49613 0.0
H204 H 0.45965 0.63103 0.61237 0.0
H205 H 0.4442 0.66815 0.59387 0.0
H206 H 0.5242 0.69177 0.5488 0.0
H207 H 0.53953 0.65434 0.56687 0.0
Ho208 Ho 0.02662 0.5307 0.07057 0.0
Ho209 Ho 0.02099 0.58634 0.05126 0.0
C210 C 0.07891 0.58444 0.08455 0.0
C211 C 0.04143 0.48822 0.08283 0.0
C212 C 0.06607 0.48078 0.09545 0.0
C213 C 0.09317 0.48536 0.08249 0.0
C214 C 0.11554 0.4766 0.0942 0.0
C215 C 0.11126 0.46314 0.11907 0.0
C216 C 0.08435 0.45922 0.13227 0.0
C217 C 0.06199 0.46781 0.12051 0.0
C218 C 0.99569 0.55654 0.10312 0.0
C219 C 0.97216 0.53196 0.03333 0.0
C220 C 1.0031 0.62878 0.04969 0.0
C221 C 0.9836 0.63894 0.03199 0.0
C222 C 0.95339 0.62958 0.03432 0.0
C223 C 0.93506 0.63966 0.01807 0.0
C224 C 0.94646 0.65935 0.99912 0.0
C225 C 0.97666 0.66871 0.99676 0.0
C226 C 0.99503 0.65866 1.01311 0.0
C227 C 0.04379 0.56103 1.00989 0.0
O228 O 0.07025 0.55804 0.08322 0.0
O229 O 0.06279 0.59951 0.07517 0.0
O230 O 0.02643 0.49993 0.09921 0.0
O231 O 0.0452 0.49843 0.05847 0.0
O232 O 0.98868 0.53103 0.09847 0.0
O233 O 0.01889 0.56676 0.09071 0.0
O234 O 0.97787 0.55786 0.03924 0.0
O235 O 0.99001 0.51754 0.04009 0.0
O236 O 0.02784 0.62702 0.03905 0.0
O237 O 0.99082 0.60841 0.06448 0.0
O238 O 0.03884 0.58421 1.00783 0.0
O239 O 0.03603 0.55334 0.03366 0.0
H240 H 0.09699 0.49527 0.06311 0.0
H241 H 0.13588 0.47969 0.08332 0.0
H242 H 0.08045 0.44933 0.15167 0.0
H243 H 0.0413 0.46402 0.1309 0.0
H244 H 0.94377 0.6146 0.04886 0.0
H245 H 0.91192 0.63237 0.02082 0.0
H246 H 0.98612 0.68373 0.98221 0.0
H247 H 0.0182 0.6664 1.01101 0.0
H248 H 0.25875 0.26839 0.24541 0.0
H249 H 0.21867 0.25277 0.27731 0.0
H250 H 0.27878 0.23987 0.33793 0.0
H251 H 0.31855 0.25418 0.30545 0.0
H252 H 0.23583 0.19997 0.33662 0.0
H253 H 0.24413 0.29324 0.34196 0.0
H254 H 0.24692 0.33749 0.3242 0.0
H255 H 0.16197 0.30877 0.28914 0.0
H256 H 0.15883 0.26422 0.30637 0.0
H257 H 0.13841 0.18155 0.44867 0.0
H258 H 0.17728 0.20507 0.41899 0.0
H259 H 0.11778 0.1935 0.35074 0.0
H260 H 0.07894 0.16886 0.37983 0.0
H261 H 0.15973 0.24684 0.35708 0.0
H262 H 0.15422 0.1526 0.35174 0.0
H263 H 0.15269 0.10953 0.37182 0.0
H264 H 0.23518 0.14297 0.41034 0.0
H265 H 0.23696 0.18637 0.39084 0.0
C266 C 0.2633 0.26239 0.26565 0.0
C267 C 0.29161 0.26242 0.27307 0.0
C268 C 0.24046 0.25362 0.28395 0.0
C269 C 0.24566 0.24546 0.31027 0.0
C270 C 0.27413 0.24599 0.31777 0.0
C271 C 0.29684 0.2542 0.29928 0.0
C272 C 0.22138 0.23507 0.32949 0.0
C273 C 0.21954 0.21055 0.34137 0.0
C274 C 0.19966 0.24849 0.33542 0.0
C275 C 0.20136 0.27532 0.32525 0.0
C276 C 0.22612 0.29631 0.33031 0.0
C277 C 0.22775 0.32146 0.32035 0.0
C278 C 0.20467 0.32592 0.30548 0.0
C279 C 0.17985 0.30527 0.30063 0.0
C280 C 0.17812 0.28008 0.31051 0.0
C281 C 0.13349 0.18393 0.42735 0.0
C282 C 0.10554 0.17289 0.4166 0.0
C283 C 0.15571 0.19761 0.41051 0.0
C284 C 0.15036 0.20083 0.3827 0.0
C285 C 0.12223 0.19128 0.37222 0.0
C286 C 0.10004 0.17727 0.38896 0.0
C287 C 0.17463 0.2121 0.36408 0.0
C288 C 0.1763 0.23659 0.35232 0.0
C289 C 0.19651 0.19894 0.35857 0.0
C290 C 0.19557 0.17279 0.37009 0.0
C291 C 0.17191 0.15083 0.3647 0.0
C292 C 0.17102 0.12635 0.37594 0.0
C293 C 0.19379 0.12354 0.39241 0.0
C294 C 0.21754 0.14519 0.39762 0.0
C295 C 0.2185 0.16972 0.38647 0.0
H296 H 0.19307 0.10457 0.40109 0.0
H297 H 0.20599 0.3454 0.29777 0.0
H298 H 0.37026 0.97626 0.6714 0.0
H299 H 0.37775 0.98719 0.72054 0.0
H300 H 0.36333 0.90411 0.73693 0.0
H301 H 0.35483 0.89293 0.68786 0.0
H302 H 0.33793 0.92909 0.77552 0.0
H303 H 0.43105 0.94279 0.73371 0.0
H304 H 0.46924 0.96061 0.70006 0.0
H305 H 0.47106 0.04009 0.72764 0.0
H306 H 0.43253 0.02273 0.76121 0.0
H307 H 0.40805 0.94611 0.90699 0.0
H308 H 0.39517 0.93407 0.85864 0.0
H309 H 0.40242 1.01626 0.8425 0.0
H310 H 0.41544 0.02842 0.89073 0.0
H311 H 0.43116 0.99119 0.80411 0.0
H312 H 0.33768 0.97604 0.84698 0.0
H313 H 0.30049 0.95688 0.88107 0.0
H314 H 0.3009 0.87832 0.85205 0.0
H315 H 0.33842 0.89703 0.81802 0.0
C316 C 0.36818 0.96027 0.6855 0.0
C317 C 0.36218 0.93374 0.67572 0.0
C318 C 0.37272 0.96657 0.71354 0.0
C319 C 0.37155 0.94648 0.7323 0.0
C320 C 0.36448 0.91991 0.72277 0.0
C321 C 0.3599 0.91359 0.69472 0.0
C322 C 0.37879 0.95331 0.7617 0.0
C323 C 0.35843 0.94243 0.7818 0.0
C324 C 0.40543 0.97094 0.76984 0.0
C325 C 0.42869 0.98146 0.74977 0.0
C326 C 0.43942 0.96407 0.73245 0.0
C327 C 0.46116 0.97409 0.71341 0.0
C328 C 0.47252 1.00147 0.71166 0.0
C329 C 0.46221 0.01888 0.729 0.0
C330 C 0.44043 1.00897 0.74804 0.0
C331 C 0.40693 0.96158 0.89308 0.0
C332 C 0.41265 0.98818 0.90257 0.0
C333 C 0.39942 0.95468 0.86558 0.0
C334 C 0.39768 0.97428 0.84712 0.0
C335 C 0.40358 1.00086 0.85649 0.0
C336 C 0.41082 1.00774 0.88402 0.0
C337 C 0.39022 0.96717 0.81787 0.0
C338 C 0.41062 0.97792 0.7978 0.0
C339 C 0.36376 0.94923 0.80982 0.0
C340 C 0.34106 0.93794 0.83013 0.0
C341 C 0.33001 0.95468 0.84802 0.0
C342 C 0.30884 0.9439 0.8673 0.0
C343 C 0.2984 0.9164 0.86878 0.0
C344 C 0.30904 0.89962 0.85091 0.0
C345 C 0.33024 0.9103 0.8316 0.0
H346 H 0.28201 0.90809 0.88373 0.0
H347 H 0.48935 1.00918 0.69692 0.0
H348 H 0.68516 0.44753 0.79875 0.0
H349 H 0.66965 0.47198 0.76167 0.0
H350 H 0.58635 0.41507 0.75929 0.0
H351 H 0.60183 0.39088 0.79605 0.0
H352 H 0.60516 0.42436 0.70815 0.0
H353 H 0.59619 0.47849 0.7885 0.0
H354 H 0.61338 0.50586 0.83045 0.0
H355 H 0.67692 0.55987 0.78313 0.0
H356 H 0.66033 0.53261 0.74093 0.0
H357 H 0.53693 0.53625 0.6577 0.0
H358 H 0.55728 0.51543 0.69425 0.0
H359 H 0.60857 0.48527 0.63425 0.0
H360 H 0.58755 0.50533 0.59763 0.0
H361 H 0.60733 0.51982 0.7161 0.0
H362 H 0.62242 0.42927 0.65339 0.0
H363 H 0.60213 0.40234 0.61192 0.0
H364 H 0.52039 0.42004 0.62628 0.0
H365 H 0.54013 0.44691 0.66788 0.0
C366 C 0.66344 0.44054 0.79051 0.0
C367 C 0.64457 0.41748 0.80053 0.0
C368 C 0.65454 0.45447 0.76924 0.0
C369 C 0.62665 0.44553 0.75745 0.0
C370 C 0.60794 0.4225 0.76773 0.0
C371 C 0.61675 0.40875 0.78897 0.0
C372 C 0.61676 0.45971 0.73432 0.0
C373 C 0.60583 0.44528 0.70994 0.0
C374 C 0.61722 0.487 0.73631 0.0
C375 C 0.62724 0.50336 0.76163 0.0
C376 C 0.61399 0.49608 0.78709 0.0
C377 C 0.62359 0.51159 0.8109 0.0
C378 C 0.64629 0.53454 0.80947 0.0
C379 C 0.65938 0.54206 0.78421 0.0
C380 C 0.64988 0.5266 0.76034 0.0
C381 C 0.55254 0.52517 0.65222 0.0
C382 C 0.56022 0.52226 0.62448 0.0
C383 C 0.5643 0.51327 0.67327 0.0
C384 C 0.58426 0.4982 0.66731 0.0
C385 C 0.59268 0.49605 0.63966 0.0
C386 C 0.58063 0.50765 0.61857 0.0
C387 C 0.59572 0.48449 0.68993 0.0
C388 C 0.60692 0.49897 0.7142 0.0
C389 C 0.59523 0.45716 0.68797 0.0
C390 C 0.58282 0.44021 0.66363 0.0
C391 C 0.60007 0.42725 0.64778 0.0
C392 C 0.58869 0.41206 0.62422 0.0
C393 C 0.56001 0.40952 0.61647 0.0
C394 C 0.54261 0.42207 0.63229 0.0
C395 C 0.55389 0.43729 0.65584 0.0
H396 H 0.55121 0.39778 0.59825 0.0
H397 H 0.65368 0.54653 0.82793 0.0
H398 H 0.85653 0.64412 0.30324 0.0
H399 H 0.87566 0.6189 0.2672 0.0
H400 H 0.94171 0.68956 0.24846 0.0
H401 H 0.92257 0.71457 0.28424 0.0
H402 H 0.91763 0.66516 0.20187 0.0
H403 H 0.95731 0.63875 0.28353 0.0
H404 H 0.956 0.62041 0.32971 0.0
H405 H 0.90166 0.54613 0.29912 0.0
H406 H 0.90235 0.56416 0.2528 0.0
H407 H 1.01222 0.60901 0.11983 0.0
H408 H 0.99059 0.63161 0.15594 0.0
H409 H 0.92645 0.55854 0.17057 0.0
H410 H 0.94813 0.53585 0.13452 0.0
H411 H 0.9475 0.58286 0.21864 0.0
H412 H 0.90899 0.60861 0.13664 0.0
H413 H 0.91165 0.62631 0.09007 0.0
H414 H 0.964 0.70138 0.1209 0.0
H415 H 0.96194 0.68401 0.16764 0.0
C416 C 0.87536 0.65406 0.29164 0.0
C417 C 0.88832 0.68117 0.29668 0.0
C418 C 0.8863 0.63969 0.27101 0.0
C419 C 0.91031 0.65222 0.255 0.0
C420 C 0.9232 0.67934 0.26033 0.0
C421 C 0.91238 0.69359 0.28094 0.0
C422 C 0.92183 0.63744 0.23241 0.0
C423 C 0.92442 0.64732 0.20568 0.0
C424 C 0.93015 0.61375 0.23695 0.0
C425 C 0.9296 0.60291 0.26478 0.0
C426 C 0.94487 0.61859 0.28671 0.0
C427 C 0.94428 0.60823 0.31289 0.0
C428 C 0.92868 0.58215 0.31737 0.0
C429 C 0.91369 0.56635 0.29564 0.0
C430 C 0.91418 0.57662 0.26941 0.0
C431 C 0.99335 0.59781 0.13057 0.0
C432 C 0.9818 0.57065 0.12415 0.0
C433 C 0.98095 0.61077 0.15125 0.0
C434 C 0.95664 0.59691 0.166 0.0
C435 C 0.94515 0.56974 0.15961 0.0
C436 C 0.95749 0.5568 0.13887 0.0
C437 C 0.94345 0.61068 0.18821 0.0
C438 C 0.94055 0.60062 0.21483 0.0
C439 C 0.9348 0.63417 0.18356 0.0
C440 C 0.93551 0.64493 0.15562 0.0
C441 C 0.9212 0.62885 0.13347 0.0
C442 C 0.92259 0.63882 0.10704 0.0
C443 C 0.93808 0.66492 0.1025 0.0
C444 C 0.95205 0.68115 0.12444 0.0
C445 C 0.95073 0.67126 0.15092 0.0
H446 H 0.9392 0.67258 0.08201 0.0
H447 H 0.92827 0.57417 0.33765 0.0
H448 H 0.33371 0.20726 0.21374 0.0
H449 H 0.35999 0.17591 0.19596 0.0
H450 H 0.44028 0.23681 0.20324 0.0
H451 H 0.41394 0.26842 0.22078 0.0
H452 H 0.43688 0.21233 0.15483 0.0
H453 H 0.42273 0.18419 0.24743 0.0
H454 H 0.39527 0.16979 0.28968 0.0
H455 H 0.34397 0.10092 0.24594 0.0
H456 H 0.37084 0.1151 0.2033 0.0
H457 H 0.52541 0.12678 0.12339 0.0
H458 H 0.50238 0.15521 0.1513 0.0
H459 H 0.41891 0.10106 0.13548 0.0
H460 H 0.44174 0.07228 0.10747 0.0
H461 H 0.42596 0.12223 0.19016 0.0
H462 H 0.43912 0.15233 0.09711 0.0
H463 H 0.4678 0.16647 0.05545 0.0
H464 H 0.52224 0.23217 0.10132 0.0
H465 H 0.49419 0.21813 0.14341 0.0
C466 C 0.35702 0.21385 0.21201 0.0
C467 C 0.37179 0.24027 0.21874 0.0
C468 C 0.37203 0.1959 0.20185 0.0
C469 C 0.40217 0.2039 0.19856 0.0
C470 C 0.41703 0.23019 0.20562 0.0
C471 C 0.40198 0.24823 0.2156 0.0
C472 C 0.4179 0.18521 0.18634 0.0
C473 C 0.43489 0.19283 0.1629 0.0
C474 C 0.41481 0.1595 0.19646 0.0
C475 C 0.39865 0.15084 0.2221 0.0
C476 C 0.40544 0.16608 0.24676 0.0
C477 C 0.39001 0.15793 0.27079 0.0
C478 C 0.36785 0.13448 0.27048 0.0
C479 C 0.36112 0.11909 0.24614 0.0
C480 C 0.37647 0.12716 0.22204 0.0
C481 C 0.50218 0.12064 0.12609 0.0
C482 C 0.48537 0.09738 0.11287 0.0
C483 C 0.48908 0.13697 0.14205 0.0
C484 C 0.45894 0.1304 0.14509 0.0
C485 C 0.44222 0.10648 0.13328 0.0
C486 C 0.4553 0.09012 0.11721 0.0
C487 C 0.44478 0.14945 0.15882 0.0
C488 C 0.42806 0.14185 0.18236 0.0
C489 C 0.44819 0.17524 0.14891 0.0
C490 C 0.46473 0.18401 0.12348 0.0
C491 C 0.45733 0.16969 0.09837 0.0
C492 C 0.47346 0.17769 0.07467 0.0
C493 C 0.49687 0.20017 0.07575 0.0
C494 C 0.50413 0.21474 0.10052 0.0
C495 C 0.48812 0.20677 0.12431 0.0
H496 H 0.50935 0.20632 0.05739 0.0
H497 H 0.35592 0.12821 0.28911 0.0
H498 H 0.25328 0.92349 0.56862 0.0
H499 H 0.20708 0.93547 0.56661 0.0
H500 H 0.24377 1.00715 0.61484 0.0
H501 H 0.2902 0.99516 0.61676 0.0
H502 H 0.17955 0.9787 0.62413 0.0
H503 H 0.2509 1.01595 0.55355 0.0
H504 H 0.28582 1.01138 0.51736 0.0
H505 H 0.21882 0.95488 0.47269 0.0
H506 H 0.18362 0.95884 0.50887 0.0
H507 H 0.09642 0.06417 0.58016 0.0
H508 H 0.13354 0.04303 0.59493 0.0
H509 H 0.11382 0.98807 0.52487 0.0
H510 H 0.07793 1.01031 0.50924 0.0
H511 H 0.16783 1.00505 0.52861 0.0
H512 H 0.09432 0.97107 0.59394 0.0
H513 H 0.05784 0.97348 0.62928 0.0
H514 H 0.12445 0.01893 0.68326 0.0
H515 H 0.1613 1.01731 0.64802 0.0
C516 C 0.25112 0.9414 0.57943 0.0
C517 C 0.27492 0.95859 0.59268 0.0
C518 C 0.22481 0.94813 0.5784 0.0
C519 C 0.22218 0.97217 0.59054 0.0
C520 C 0.24543 0.98842 0.60559 0.0
C521 C 0.27186 0.98169 0.60652 0.0
C522 C 0.19733 0.98241 0.58327 0.0
C523 C 0.17691 0.98469 0.60337 0.0
C524 C 0.19372 0.98945 0.55599 0.0
C525 C 0.21474 0.98749 0.53401 0.0
C526 C 0.24369 1.00242 0.5361 0.0
C527 C 0.26352 0.99996 0.51559 0.0
C528 C 0.25457 0.9828 0.49277 0.0
C529 C 0.22574 0.96813 0.49038 0.0
C530 C 0.20584 0.97049 0.51087 0.0
C531 C 0.10007 0.04754 0.568 0.0
C532 C 0.08465 0.0389 0.54351 0.0
C533 C 0.12103 0.03529 0.57659 0.0
C534 C 0.12618 1.01365 0.56126 0.0
C535 C 0.11026 1.00474 0.53702 0.0
C536 C 0.08983 1.01742 0.52808 0.0
C537 C 0.14949 1.00146 0.56941 0.0
C538 C 0.16993 0.99888 0.54941 0.0
C539 C 0.15264 0.99375 0.59668 0.0
C540 C 0.13059 0.99423 0.61821 0.0
C541 C 0.1012 0.98172 0.61328 0.0
C542 C 0.08044 0.98294 0.6333 0.0
C543 C 0.08882 0.99637 0.65848 0.0
C544 C 0.11799 1.00854 0.66373 0.0
C545 C 0.13883 1.00747 0.64374 0.0
H546 H 0.07272 0.9973 0.67395 0.0
H547 H 0.26995 0.98091 0.47692 0.0
H548 H 0.7574 0.40685 0.87333 0.0
H549 H 0.80289 0.43256 0.89497 0.0
H550 H 0.75706 0.44112 0.96986 0.0
H551 H 0.71181 0.41481 0.94858 0.0
H552 H 0.79991 0.48979 0.95211 0.0
H553 H 0.7906 0.39724 0.96974 0.0
H554 H 0.78407 0.35016 0.95589 0.0
H555 H 0.86082 0.37072 0.90655 0.0
H556 H 0.86752 0.41802 0.91976 0.0
H557 H 0.91766 0.53649 0.04491 0.0
H558 H 0.87232 0.51382 0.02181 0.0
H559 H 0.91961 0.47648 0.96391 0.0
H560 H 0.9645 0.49717 0.98891 0.0
H561 H 0.87518 0.44287 0.97106 0.0
H562 H 0.88648 0.53491 0.95244 0.0
H563 H 0.89323 0.5826 0.96368 0.0
H564 H 0.81443 0.56512 1.01018 0.0
H565 H 0.80744 0.51732 0.9996 0.0
C566 C 0.75698 0.4146 0.89425 0.0
C567 C 0.73095 0.4089 0.90919 0.0
C568 C 0.78302 0.42917 0.90667 0.0
C569 C 0.78353 0.4388 0.93414 0.0
C570 C 0.75732 0.43403 0.94868 0.0
C571 C 0.73145 0.41898 0.93649 0.0
C572 C 0.81145 0.45271 0.94817 0.0
C573 C 0.81636 0.47955 0.95645 0.0
C574 C 0.83328 0.43963 0.95326 0.0
C575 C 0.82936 0.4112 0.94547 0.0
C576 C 0.80592 0.39176 0.95572 0.0
C577 C 0.80222 0.36503 0.94803 0.0
C578 C 0.82197 0.35746 0.93029 0.0
C579 C 0.84551 0.37662 0.92026 0.0
C580 C 0.84927 0.40338 0.92784 0.0
C581 C 0.91828 0.52339 0.02725 0.0
C582 C 0.94466 0.51869 0.01869 0.0
C583 C 0.89228 0.5106 1.01371 0.0
C584 C 0.89205 0.4938 0.99025 0.0
C585 C 0.91866 0.48921 0.98178 0.0
C586 C 0.94449 0.50116 0.99603 0.0
C587 C 0.86428 0.48048 0.97504 0.0
C588 C 0.85917 0.45353 0.96657 0.0
C589 C 0.8425 0.49371 0.96928 0.0
C590 C 0.84658 0.5225 0.97541 0.0
C591 C 0.87067 0.54123 0.96518 0.0
C592 C 0.87454 0.56829 0.97144 0.0
C593 C 0.8543 0.57687 0.98769 0.0
C594 C 0.83011 0.55843 0.99763 0.0
C595 C 0.82618 0.53137 0.9915 0.0
H596 H 0.85727 0.59778 0.99258 0.0
H597 H 0.81908 0.33675 0.92437 0.0
H598 H 0.77819 0.67862 0.37283 0.0
H599 H 0.73478 0.65263 0.39547 0.0
H600 H 0.77808 0.66971 0.47408 0.0
H601 H 0.82185 0.69472 0.45148 0.0
H602 H 0.74599 0.62064 0.47288 0.0
H603 H 0.72978 0.7048 0.4506 0.0
H604 H 0.72641 0.74059 0.42002 0.0
H605 H 0.65973 0.6861 0.37298 0.0
H606 H 0.66298 0.64988 0.4031 0.0
H607 H 0.62687 0.60373 0.56448 0.0
H608 H 0.67004 0.62055 0.53668 0.0
H609 H 0.61971 0.59568 0.46264 0.0
H610 H 0.57624 0.57889 0.49053 0.0
H611 H 0.65402 0.64553 0.45862 0.0
H612 H 0.66776 0.56208 0.48411 0.0
H613 H 0.67086 0.52715 0.51591 0.0
H614 H 0.74209 0.581 0.55802 0.0
H615 H 0.73913 0.6164 0.52672 0.0
C616 C 0.77874 0.67639 0.39485 0.0
C617 C 0.80363 0.68906 0.41026 0.0
C618 C 0.75369 0.66176 0.40789 0.0
C619 C 0.75275 0.65957 0.43668 0.0
C620 C 0.77799 0.67116 0.45191 0.0
C621 C 0.80303 0.68569 0.43892 0.0
C622 C 0.72539 0.64606 0.45116 0.0
C623 C 0.72597 0.62628 0.46989 0.0
C624 C 0.69889 0.65284 0.44697 0.0
C625 C 0.69686 0.67458 0.4289 0.0
C626 C 0.71455 0.70041 0.43361 0.0
C627 C 0.71264 0.72078 0.41638 0.0
C628 C 0.69293 0.7156 0.39452 0.0
C629 C 0.67503 0.69006 0.38989 0.0
C630 C 0.67689 0.66962 0.40704 0.0
C631 C 0.62501 0.60164 0.5423 0.0
C632 C 0.59811 0.58995 0.52976 0.0
C633 C 0.64978 0.6112 0.52636 0.0
C634 C 0.64836 0.60926 0.49745 0.0
C635 C 0.62148 0.59742 0.48487 0.0
C636 C 0.59668 0.58773 0.50085 0.0
C637 C 0.67472 0.62033 0.48052 0.0
C638 C 0.67396 0.6397 0.46139 0.0
C639 C 0.70107 0.61327 0.48445 0.0
C640 C 0.70306 0.59196 0.50319 0.0
C641 C 0.68395 0.56654 0.50027 0.0
C642 C 0.6857 0.54665 0.51819 0.0
C643 C 0.70662 0.55187 0.539 0.0
C644 C 0.72588 0.57699 0.5419 0.0
C645 C 0.72419 0.59697 0.52405 0.0
H646 H 0.70794 0.53644 0.55285 0.0
H647 H 0.69147 0.73139 0.38121 0.0
H648 H 0.33871 0.39135 0.18919 0.0
H649 H 0.30138 0.41389 0.17767 0.0
H650 H 0.23507 0.34476 0.20041 0.0
H651 H 0.27245 0.32218 0.21156 0.0
H652 H 0.22445 0.36155 0.15095 0.0
H653 H 0.24986 0.40141 0.24082 0.0
H654 H 0.28277 0.42544 0.27744 0.0
H655 H 0.30907 0.49315 0.22673 0.0
H656 H 0.27659 0.46938 0.18963 0.0
H657 H 0.10477 0.41536 0.143 0.0
H658 H 0.14236 0.39663 0.16088 0.0
H659 H 0.20754 0.46643 0.1381 0.0
H660 H 0.16981 0.48593 0.12119 0.0
H661 H 0.21905 0.44996 0.18797 0.0
H662 H 0.19466 0.41007 0.09795 0.0
H663 H 0.16198 0.38625 0.06105 0.0
H664 H 0.13443 0.31866 0.11175 0.0
H665 H 0.16666 0.34223 0.14912 0.0
C666 C 0.31613 0.38123 0.19201 0.0
C667 C 0.30817 0.35526 0.20128 0.0
C668 C 0.29488 0.39408 0.18555 0.0
C669 C 0.26544 0.38106 0.18839 0.0
C670 C 0.25763 0.35516 0.19811 0.0
C671 C 0.2789 0.34234 0.20456 0.0
C672 C 0.24279 0.39382 0.17966 0.0
C673 C 0.22299 0.38069 0.15938 0.0
C674 C 0.24147 0.41916 0.19005 0.0
C675 C 0.26099 0.43351 0.21234 0.0
C676 C 0.26284 0.42134 0.23738 0.0
C677 C 0.28138 0.43493 0.25825 0.0
C678 C 0.29806 0.46078 0.25439 0.0
C679 C 0.29617 0.47311 0.22967 0.0
C680 C 0.27767 0.4596 0.20873 0.0
C681 C 0.12704 0.42699 0.14219 0.0
C682 C 0.13426 0.45216 0.1306 0.0
C683 C 0.14854 0.4161 0.15216 0.0
C684 C 0.17777 0.42996 0.15043 0.0
C685 C 0.1851 0.45535 0.1395 0.0
C686 C 0.16354 0.46635 0.12961 0.0
C687 C 0.20063 0.41757 0.15943 0.0
C688 C 0.2205 0.43079 0.17964 0.0
C689 C 0.20213 0.39231 0.14893 0.0
C690 C 0.18288 0.37801 0.12642 0.0
C691 C 0.18148 0.3902 0.1013 0.0
C692 C 0.16306 0.37673 0.08029 0.0
C693 C 0.14609 0.35098 0.08408 0.0
C694 C 0.14756 0.33862 0.10886 0.0
C695 C 0.16592 0.35201 0.12995 0.0
H696 H 0.13184 0.34059 0.06779 0.0
H697 H 0.31239 0.47127 0.27057 0.0
H698 H 0.60963 0.32286 0.90886 0.0
H699 H 0.58881 0.28103 0.93143 0.0
H700 H 0.67441 0.27295 0.948 0.0
H701 H 0.69541 0.31477 0.92527 0.0
H702 H 0.6382 0.22558 0.92867 0.0
H703 H 0.63513 0.29126 0.99912 0.0
H704 H 0.62341 0.33121 0.01931 0.0
H705 H 0.53292 0.29552 1.00587 0.0
H706 H 0.54412 0.2555 0.9852 0.0
H707 H 0.58612 0.11472 1.01555 0.0
H708 H 0.61262 0.15756 0.9974 0.0
H709 H 0.53225 0.17954 0.98885 0.0
H710 H 0.50616 0.13752 1.00788 0.0
H711 H 0.56938 0.22073 1.00613 0.0
H712 H 0.57151 0.15691 0.93266 0.0
H713 H 0.58206 0.11695 0.91117 0.0
H714 H 0.67249 0.14873 0.92862 0.0
H715 H 0.66241 0.18876 0.95054 0.0
C716 C 0.6241 0.3122 0.91723 0.0
C717 C 0.6543 0.32242 0.91521 0.0
C718 C 0.61212 0.28826 0.93033 0.0
C719 C 0.62993 0.2737 0.94171 0.0
C720 C 0.66009 0.28369 0.93951 0.0
C721 C 0.67211 0.3078 0.92666 0.0
C722 C 0.61703 0.24808 0.95575 0.0
C723 C 0.62348 0.22461 0.94588 0.0
C724 C 0.59731 0.24645 0.9779 0.0
C725 C 0.5905 0.27048 0.99036 0.0
C726 C 0.61274 0.29202 1.00025 0.0
C727 C 0.60619 0.31466 1.01182 0.0
C728 C 0.57744 0.31593 1.01381 0.0
C729 C 0.55518 0.29453 1.00428 0.0
C730 C 0.56162 0.27185 0.99265 0.0
C731 C 0.57419 0.12879 1.00991 0.0
C732 C 0.54396 0.12256 1.01309 0.0
C733 C 0.58933 0.15328 0.99928 0.0
C734 C 0.57457 0.17198 0.99113 0.0
C735 C 0.54441 0.16576 0.99482 0.0
C736 C 0.5294 0.14153 1.00565 0.0
C737 C 0.59006 0.19795 0.97876 0.0
C738 C 0.58415 0.22159 0.98898 0.0
C739 C 0.61005 0.19966 0.95674 0.0
C740 C 0.61616 0.17568 0.94351 0.0
C741 C 0.59361 0.15529 0.93209 0.0
C742 C 0.59951 0.13264 0.9198 0.0
C743 C 0.62792 0.13026 0.91861 0.0
C744 C 0.65049 0.15057 0.92962 0.0
C745 C 0.6447 0.17325 0.94196 0.0
H746 H 0.63244 0.11271 0.90909 0.0
H747 H 0.57241 0.33348 0.02279 0.0
H748 H 0.87718 0.80048 0.37534 0.0
H749 H 0.89792 0.84364 0.39806 0.0
H750 H 0.90123 0.80559 0.47483 0.0
H751 H 0.88024 0.76224 0.45218 0.0
H752 H 0.8833 0.84865 0.48435 0.0
H753 H 0.96291 0.8302 0.4353 0.0
H754 H 0.9892 0.81796 0.39526 0.0
H755 H 0.97957 0.88627 0.35343 0.0
H756 H 0.95285 0.89873 0.39309 0.0
H757 H 0.97851 0.96295 0.55078 0.0
H758 H 0.95744 0.91873 0.53012 0.0
H759 H 0.94555 0.95374 0.4535 0.0
H760 H 0.96664 0.99797 0.47392 0.0
H761 H 0.96886 0.91168 0.44521 0.0
H762 H 0.88843 0.92931 0.49552 0.0
H763 H 0.86402 0.94149 0.5369 0.0
H764 H 0.87756 0.87418 0.57794 0.0
H765 H 0.9024 0.86178 0.5369 0.0
C766 C 0.88259 0.80119 0.397 0.0
C767 C 0.87722 0.77771 0.4118 0.0
C768 C 0.89447 0.82599 0.41003 0.0
C769 C 0.90167 0.82805 0.43818 0.0
C770 C 0.89595 0.80468 0.45312 0.0
C771 C 0.8839 0.77985 0.44012 0.0
C772 C 0.91501 0.85455 0.45194 0.0
C773 C 0.90226 0.86223 0.47595 0.0
C774 C 0.93956 0.87266 0.44097 0.0
C775 C 0.95563 0.86525 0.41707 0.0
C776 C 0.9662 0.8425 0.41748 0.0
C777 C 0.98121 0.83554 0.39486 0.0
C778 C 0.98599 0.85129 0.37179 0.0
C779 C 0.97582 0.87407 0.37131 0.0
C780 C 0.96076 0.8811 0.39386 0.0
C781 C 0.97131 0.9613 0.52956 0.0
C782 C 0.97425 0.98416 0.51409 0.0
C783 C 0.95916 0.93594 0.51778 0.0
C784 C 0.94967 0.93278 0.49023 0.0
C785 C 0.95267 0.95556 0.47476 0.0
C786 C 0.96464 0.98091 0.48655 0.0
C787 C 0.93699 0.90581 0.47738 0.0
C788 C 0.94991 0.89805 0.45357 0.0
C789 C 0.91281 0.88757 0.48869 0.0
C790 C 0.89752 0.89477 0.51323 0.0
C791 C 0.88637 0.91721 0.51343 0.0
C792 C 0.87243 0.92413 0.53682 0.0
C793 C 0.86931 0.90866 0.56006 0.0
C794 C 0.88002 0.88616 0.55993 0.0
C795 C 0.89401 0.87916 0.5366 0.0
H796 H 0.85854 0.91407 0.57816 0.0
H797 H 0.99762 0.84587 0.3543 0.0
H798 H 0.42555 0.89622 0.61295 0.0
H799 H 0.44451 0.85955 0.59498 0.0
H800 H 0.36333 0.82484 0.55368 0.0
H801 H 0.34436 0.86151 0.57143 0.0
H802 H 0.38305 0.7906 0.5885 0.0
H803 H 0.41733 0.84896 0.51497 0.0
H804 H 0.4423 0.89133 0.49461 0.0
H805 H 0.52233 0.8872 0.53131 0.0
H806 H 0.49775 0.84498 0.55224 0.0
H807 H 0.43263 0.68256 0.54408 0.0
H808 H 0.41374 0.72121 0.53701 0.0
H809 H 0.49374 0.77275 0.56808 0.0
H810 H 0.51298 0.73423 0.57414 0.0
H811 H 0.4709 0.79784 0.5314 0.0
H812 H 0.43728 0.74622 0.61124 0.0
H813 H 0.41434 0.70519 0.63509 0.0
H814 H 0.33519 0.69864 0.59099 0.0
H815 H 0.35786 0.73944 0.56653 0.0
C816 C 0.41192 0.88086 0.59985 0.0
C817 C 0.38356 0.88158 0.59353 0.0
C818 C 0.42278 0.86011 0.58945 0.0
C819 C 0.40533 0.83972 0.57286 0.0
C820 C 0.37713 0.84056 0.56629 0.0
C821 C 0.36639 0.86147 0.57636 0.0
C822 C 0.41574 0.81639 0.56441 0.0
C823 C 0.40185 0.792 0.57548 0.0
C824 C 0.4407 0.81858 0.54807 0.0
C825 C 0.45563 0.84388 0.53535 0.0
C826 C 0.44021 0.85718 0.51888 0.0
C827 C 0.4543 0.88116 0.50721 0.0
C828 C 0.48387 0.89198 0.51171 0.0
C829 C 0.49942 0.8788 0.52785 0.0
C830 C 0.48542 0.85482 0.53959 0.0
C831 C 0.44634 0.70224 0.5487 0.0
C832 C 0.47398 0.70558 0.56009 0.0
C833 C 0.4356 0.72425 0.54468 0.0
C834 C 0.45206 0.74975 0.55277 0.0
C835 C 0.48064 0.75324 0.56181 0.0
C836 C 0.49158 0.73126 0.56535 0.0
C837 C 0.43836 0.77207 0.55573 0.0
C838 C 0.4517 0.7963 0.54387 0.0
C839 C 0.41315 0.76995 0.57184 0.0
C840 C 0.39934 0.74568 0.58684 0.0
C841 C 0.41503 0.73594 0.60653 0.0
C842 C 0.40209 0.71273 0.62015 0.0
C843 C 0.37335 0.69928 0.6145 0.0
C844 C 0.35747 0.70905 0.59529 0.0
C845 C 0.37035 0.73221 0.58154 0.0
H846 H 0.36337 0.68131 0.62507 0.0
H847 H 0.49475 0.91055 0.50265 0.0
H848 H 0.74249 0.8124 0.79376 0.0
H849 H 0.77126 0.83917 0.75802 0.0
H850 H 0.80336 0.90257 0.81828 0.0
H851 H 0.77386 0.87601 0.85379 0.0
H852 H 0.79713 0.92206 0.76831 0.0
H853 H 0.83926 0.85538 0.8047 0.0
H854 H 0.83957 0.8097 0.81582 0.0
H855 H 0.82883 0.78599 0.73024 0.0
H856 H 0.82792 0.83141 0.71867 0.0
H857 H 0.93599 0.9836 0.71756 0.0
H858 H 0.89506 0.95953 0.74459 0.0
H859 H 0.86972 0.90143 0.67797 0.0
H860 H 0.91117 0.92512 0.65096 0.0
H861 H 0.86908 0.87856 0.7272 0.0
H862 H 0.83179 0.94669 0.69039 0.0
H863 H 0.83183 0.99248 0.67954 0.0
H864 H 0.83441 1.01396 0.76574 0.0
H865 H 0.83482 0.96837 0.77712 0.0
C866 C 0.75496 0.83242 0.79901 0.0
C867 C 0.75604 0.84238 0.82624 0.0
C868 C 0.7715 0.84759 0.77873 0.0
C869 C 0.78988 0.87264 0.78564 0.0
C870 C 0.78936 0.8833 0.81252 0.0
C871 C 0.77255 0.86821 0.83275 0.0
C872 C 0.81186 0.88641 0.76585 0.0
C873 C 0.81297 0.91264 0.75942 0.0
C874 C 0.83222 0.87391 0.75389 0.0
C875 C 0.8332 0.84671 0.76085 0.0
C876 C 0.83678 0.84038 0.78828 0.0
C877 C 0.83707 0.81454 0.79466 0.0
C878 C 0.83414 0.79496 0.77374 0.0
C879 C 0.83103 0.80118 0.74641 0.0
C880 C 0.83061 0.82695 0.73993 0.0
C881 C 0.92189 0.96555 0.70875 0.0
C882 C 0.92689 0.95617 0.68218 0.0
C883 C 0.89829 0.95202 0.72408 0.0
C884 C 0.87913 0.92892 0.71312 0.0
C885 C 0.88416 0.91934 0.68671 0.0
C886 C 0.90776 0.93292 0.67129 0.0
C887 C 0.8545 0.91429 0.72975 0.0
C888 C 0.85301 0.88791 0.73575 0.0
C889 C 0.83393 0.92672 0.74135 0.0
C890 C 0.83357 0.95415 0.7346 0.0
C891 C 0.8326 0.96122 0.70704 0.0
C892 C 0.8325 0.98714 0.70079 0.0
C893 C 0.83319 1.00613 0.72194 0.0
C894 C 0.8339 0.99923 0.74938 0.0
C895 C 0.83403 0.97334 0.75574 0.0
H896 H 0.83311 0.02618 0.71706 0.0
H897 H 0.83433 0.77497 0.77865 0.0
H898 H 0.80211 0.21677 0.3704 0.0
H899 H 0.77654 0.19955 0.32773 0.0
H900 H 0.71109 0.24046 0.34807 0.0
H901 H 0.73601 0.25689 0.39156 0.0
H902 H 0.687 0.19096 0.32963 0.0
H903 H 0.76183 0.26352 0.29882 0.0
H904 H 0.81169 0.2913 0.29416 0.0
H905 H 0.83696 0.22582 0.2549 0.0
H906 H 0.78733 0.19751 0.25966 0.0
H907 H 0.62587 0.16936 0.19402 0.0
H908 H 0.64917 0.19038 0.23677 0.0
H909 H 0.71448 0.14723 0.22701 0.0
H910 H 0.6915 0.1264 0.18409 0.0
H911 H 0.73725 0.20068 0.23955 0.0
H912 H 0.66231 0.12783 0.27269 0.0
H913 H 0.61218 0.10061 0.27723 0.0
H914 H 0.58675 0.16802 0.3117 0.0
H915 H 0.63669 0.19575 0.307 0.0
C916 C 0.78217 0.22197 0.36593 0.0
C917 C 0.77103 0.23813 0.38442 0.0
C918 C 0.76774 0.21235 0.34136 0.0
C919 C 0.7421 0.219 0.33455 0.0
C920 C 0.73092 0.23519 0.35289 0.0
C921 C 0.74531 0.24474 0.37759 0.0
C922 C 0.72673 0.20841 0.30854 0.0
C923 C 0.69783 0.19349 0.30987 0.0
C924 C 0.74102 0.21134 0.28283 0.0
C925 C 0.77089 0.22833 0.2798 0.0
C926 C 0.77806 0.25498 0.28937 0.0
C927 C 0.80628 0.27084 0.28668 0.0
C928 C 0.82749 0.26032 0.2743 0.0
C929 C 0.82051 0.23393 0.26451 0.0
C930 C 0.79233 0.21798 0.26717 0.0
C931 C 0.64525 0.16444 0.20098 0.0
C932 C 0.65689 0.14625 0.18578 0.0
C933 C 0.6584 0.17631 0.22545 0.0
C934 C 0.68343 0.17022 0.23507 0.0
C935 C 0.69514 0.15214 0.2199 0.0
C936 C 0.6819 0.14013 0.19554 0.0
C937 C 0.69773 0.183 0.26075 0.0
C938 C 0.72641 0.19835 0.25932 0.0
C939 C 0.68317 0.1806 0.2863 0.0
C940 C 0.65316 0.16394 0.2892 0.0
C941 C 0.64597 0.13691 0.28101 0.0
C942 C 0.61761 0.12138 0.28366 0.0
C943 C 0.59627 0.1326 0.29467 0.0
C944 C 0.60329 0.15936 0.30313 0.0
C945 C 0.63162 0.175 0.30049 0.0
H946 H 0.57432 0.12054 0.29671 0.0
H947 H 0.84933 0.27262 0.27223 0.0
H948 H 0.42972 0.66929 0.28367 0.0
H949 H 0.44251 0.64551 0.32233 0.0
H950 H 0.39813 0.68762 0.37806 0.0
H951 H 0.38585 0.71175 0.33928 0.0
H952 H 0.44801 0.68782 0.39994 0.0
H953 H 0.37167 0.61886 0.35977 0.0
H954 H 0.34535 0.589 0.32268 0.0
H955 H 0.41824 0.55633 0.30991 0.0
H956 H 0.44515 0.58624 0.3467 0.0
H957 H 0.46391 0.61242 0.51629 0.0
H958 H 0.44462 0.63326 0.47907 0.0
H959 H 0.48312 0.58989 0.41924 0.0
H960 H 0.50124 0.56811 0.45637 0.0
H961 H 0.43407 0.59038 0.4003 0.0
H962 H 0.51056 0.65985 0.44104 0.0
H963 H 0.53611 0.68944 0.47869 0.0
H964 H 0.463 0.72199 0.49022 0.0
H965 H 0.4366 0.69197 0.4533 0.0
C966 C 0.42204 0.67293 0.30407 0.0
C967 C 0.40617 0.69192 0.30831 0.0
C968 C 0.42944 0.65935 0.3263 0.0
C969 C 0.42114 0.66436 0.35345 0.0
C970 C 0.40486 0.68316 0.35752 0.0
C971 C 0.3975 0.69677 0.33526 0.0
C972 C 0.43043 0.65089 0.37754 0.0
C973 C 0.44453 0.66645 0.40014 0.0
C974 C 0.42666 0.62302 0.37792 0.0
C975 C 0.41051 0.60497 0.35583 0.0
C976 C 0.38216 0.60545 0.34892 0.0
C977 C 0.36713 0.58849 0.32797 0.0
C978 C 0.38014 0.57083 0.3139 0.0
C979 C 0.4082 0.57004 0.3208 0.0
C980 C 0.42334 0.58697 0.34172 0.0
C981 C 0.46823 0.60723 0.49521 0.0
C982 C 0.48425 0.58848 0.48951 0.0
C983 C 0.45731 0.61939 0.47378 0.0
C984 C 0.46271 0.61376 0.44594 0.0
C985 C 0.47848 0.59482 0.44032 0.0
C986 C 0.48897 0.58233 0.4617 0.0
C987 C 0.45195 0.6273 0.42268 0.0
C988 C 0.43755 0.61175 0.40019 0.0
C989 C 0.45548 0.65521 0.42244 0.0
C990 C 0.47145 0.67339 0.44458 0.0
C991 C 0.4998 0.67311 0.45179 0.0
C992 C 0.51441 0.68994 0.47305 0.0
C993 C 0.5011 0.70745 0.48698 0.0
C994 C 0.47318 0.70825 0.4796 0.0
C995 C 0.45837 0.6913 0.45853 0.0
H996 H 0.51245 0.72049 0.50341 0.0
H997 H 0.36846 0.55771 0.29769 0.0
H998 H 0.13783 0.47879 0.7818 0.0
H999 H 0.12338 0.50166 0.82236 0.0
H1000 H 0.13726 0.44039 0.87381 0.0
H1001 H 0.15146 0.4175 0.83315 0.0
H1002 H 0.0861 0.44963 0.88503 0.0
H1003 H 0.18279 0.50435 0.87626 0.0
H1004 H 0.22429 0.53275 0.85225 0.0
H1005 H 0.17437 0.58812 0.83605 0.0
H1006 H 0.13241 0.55987 0.85966 0.0
H1007 H 0.06198 0.51494 1.01187 0.0
H1008 H 0.08323 0.49333 0.97455 0.0
H1009 H 0.07512 0.55429 0.91983 0.0
H1010 H 0.05447 0.57599 0.95715 0.0
H1011 H 0.12529 0.5447 0.91165 0.0
H1012 H 0.02827 0.48991 0.91802 0.0
H1013 H 0.98601 0.46193 0.94141 0.0
H1014 H 0.03537 0.40695 0.96093 0.0
H1015 H 0.07809 0.43485 0.93804 0.0
C1016 C 0.1386 0.47068 0.8019 0.0
C1017 C 0.14637 0.44671 0.80446 0.0
C1018 C 0.1302 0.48368 0.82512 0.0
C1019 C 0.1293 0.47293 0.85141 0.0
C1020 C 0.13774 0.44921 0.85391 0.0
C1021 C 0.14619 0.43627 0.83071 0.0
C1022 C 0.11817 0.4856 0.87592 0.0
C1023 C 0.09504 0.47033 0.89109 0.0
C1024 C 0.12915 0.51279 0.88363 0.0
C1025 C 0.15438 0.52987 0.86952 0.0
C1026 C 0.18059 0.52249 0.8674 0.0
C1027 C 0.20421 0.53857 0.85389 0.0
C1028 C 0.20195 0.56219 0.84257 0.0
C1029 C 0.17608 0.56981 0.8448 0.0
C1030 C 0.15238 0.55378 0.85827 0.0
C1031 C 0.06455 0.52358 0.99188 0.0
C1032 C 0.05628 0.54707 0.98755 0.0
C1033 C 0.07672 0.51121 0.97043 0.0
C1034 C 0.08062 0.52191 0.94402 0.0
C1035 C 0.0725 0.54551 0.93985 0.0
C1036 C 0.06052 0.55788 0.96127 0.0
C1037 C 0.09312 0.50877 0.9207 0.0
C1038 C 0.11646 0.52396 0.9057 0.0
C1039 C 0.0822 0.48155 0.91303 0.0
C1040 C 0.05647 0.46462 0.92658 0.0
C1041 C 0.03018 0.47195 0.92748 0.0
C1042 C 1.00613 0.4561 0.94062 0.0
C1043 C 1.00802 0.43271 0.9527 0.0
C1044 C 0.03395 0.4251 0.9516 0.0
C1045 C 0.05809 0.44092 0.93854 0.0
H1046 H 0.98939 0.42046 0.96287 0.0
H1047 H 0.22026 0.57462 0.83212 0.0
H1048 H 0.61403 0.82964 0.89645 0.0
H1049 H 0.59502 0.86778 0.90955 0.0
H1050 H 0.68205 0.91562 0.92432 0.0
H1051 H 0.70093 0.87738 0.91138 0.0
H1052 H 0.64722 0.91816 0.96738 0.0
H1053 H 0.64307 0.92698 0.86989 0.0
H1054 H 0.63007 0.91206 0.82189 0.0
H1055 H 0.53992 0.89379 0.84263 0.0
H1056 H 0.55238 0.90826 0.89087 0.0
H1057 H 0.60787 0.03549 1.00122 0.0
H1058 H 0.62925 1.00459 0.97509 0.0
H1059 H 0.54412 0.95438 0.95696 0.0
H1060 H 0.52247 0.98554 0.98253 0.0
H1061 H 0.57964 0.95487 0.91361 0.0
H1062 H 0.58308 0.94194 1.01086 0.0
H1063 H 0.59485 0.95574 0.05936 0.0
H1064 H 0.68518 0.97999 0.03944 0.0
H1065 H 0.67388 0.96666 0.99072 0.0
C1066 C 0.62899 0.84849 0.90206 0.0
C1067 C 0.6588 0.85089 0.90294 0.0
C1068 C 0.61819 0.87024 0.90943 0.0
C1069 C 0.63714 0.89462 0.91773 0.0
C1070 C 0.66707 0.89704 0.91792 0.0
C1071 C 0.67783 0.87531 0.9105 0.0
C1072 C 0.62565 0.91685 0.92839 0.0
C1073 C 0.6329 0.92653 0.9554 0.0
C1074 C 0.60625 0.92719 0.91308 0.0
C1075 C 0.59868 0.91849 0.88407 0.0
C1076 C 0.62048 0.91957 0.86428 0.0
C1077 C 0.6132 0.91124 0.83701 0.0
C1078 C 0.58419 0.90193 0.82923 0.0
C1079 C 0.56239 0.90099 0.84869 0.0
C1080 C 0.56954 0.90928 0.876 0.0
C1081 C 0.59364 1.01807 0.99137 0.0
C1082 C 0.56346 1.0128 0.99429 0.0
C1083 C 0.60591 1.0004 0.97647 0.0
C1084 C 0.5883 0.97689 0.96459 0.0
C1085 C 0.55813 0.97234 0.96606 0.0
C1086 C 0.54579 0.99017 0.98075 0.0
C1087 C 0.60135 0.95617 0.95251 0.0
C1088 C 0.59425 0.94667 0.9254 0.0
C1089 C 0.62074 0.94576 0.96778 0.0
C1090 C 0.62761 0.95356 0.99711 0.0
C1091 C 0.60543 0.95039 1.01679 0.0
C1092 C 0.61202 0.9581 0.04432 0.0
C1093 C 0.64074 0.9688 0.05246 0.0
C1094 C 0.66294 0.97174 0.0331 0.0
C1095 C 0.65646 0.96409 1.00553 0.0
H1096 H 0.6458 0.97477 0.07379 0.0
H1097 H 0.57861 0.89549 0.8081 0.0
H1098 H 0.86565 0.25031 0.47487 0.0
H1099 H 0.88895 0.21965 0.4965 0.0
H1100 H 0.81227 0.15573 0.48246 0.0
H1101 H 0.78843 0.18651 0.46153 0.0
H1102 H 0.83648 0.15291 0.53256 0.0
H1103 H 0.86642 0.16235 0.43867 0.0
H1104 H 0.88602 0.18658 0.39726 0.0
H1105 H 0.96667 0.22004 0.43906 0.0
H1106 H 0.94737 0.19632 0.4809 0.0
H1107 H 0.9486 0.06753 0.5127 0.0
H1108 H 0.917 0.09323 0.49507 0.0
H1109 H 0.91757 0.13243 0.57485 0.0
H1110 H 0.9488 0.10629 0.59274 0.0
H1111 H 0.92841 0.14462 0.49004 0.0
H1112 H 0.85404 0.15005 0.58381 0.0
H1113 H 0.83192 0.12232 0.62225 0.0
H1114 H 0.83556 0.05206 0.57523 0.0
H1115 H 0.85731 0.07932 0.53638 0.0
C1116 C 0.85353 0.22985 0.47688 0.0
C1117 C 0.82531 0.22074 0.46631 0.0
C1118 C 0.86694 0.21234 0.48905 0.0
C1119 C 0.85244 0.1854 0.49068 0.0
C1120 C 0.82383 0.17645 0.48127 0.0
C1121 C 0.81037 0.19397 0.46911 0.0
C1122 C 0.86778 0.16636 0.50073 0.0
C1123 C 0.8566 0.15107 0.52335 0.0
C1124 C 0.8936 0.16354 0.48817 0.0
C1125 C 0.90534 0.17776 0.46301 0.0
C1126 C 0.88825 0.17505 0.43911 0.0
C1127 C 0.89932 0.18866 0.41555 0.0
C1128 C 0.92755 0.20489 0.41555 0.0
C1129 C 0.94479 0.20749 0.4391 0.0
C1130 C 0.9338 0.19395 0.46274 0.0
C1131 C 0.9417 0.08141 0.52654 0.0
C1132 C 0.95103 0.085 0.55405 0.0
C1133 C 0.92373 0.09611 0.51644 0.0
C1134 C 0.91483 0.11461 0.53368 0.0
C1135 C 0.92383 0.11794 0.56132 0.0
C1136 C 0.94172 0.10312 0.57148 0.0
C1137 C 0.89746 0.13143 0.52228 0.0
C1138 C 0.9083 0.14638 0.49934 0.0
C1139 C 0.87099 0.13339 0.53415 0.0
C1140 C 0.85758 0.11678 0.55729 0.0
C1141 C 0.85002 0.12868 0.58163 0.0
C1142 C 0.83756 0.11304 0.6035 0.0
C1143 C 0.83243 0.08545 0.60122 0.0
C1144 C 0.83965 0.07344 0.57702 0.0
C1145 C 0.85209 0.08898 0.55508 0.0
H1146 H 0.8228 0.07338 0.61818 0.0
H1147 H 0.93609 0.21541 0.39728 0.0
H1148 H 0.30126 0.74481 0.20102 0.0
H1149 H 0.25658 0.71851 0.18009 0.0
H1150 H 0.28485 0.64731 0.18969 0.0
H1151 H 0.33076 0.67395 0.20932 0.0
H1152 H 0.26098 0.64448 0.14134 0.0
H1153 H 0.22972 0.66456 0.23101 0.0
H1154 H 0.22423 0.69272 0.27144 0.0
H1155 H 0.17951 0.73598 0.22186 0.0
H1156 H 0.18505 0.70831 0.18104 0.0
H1157 H 0.11966 0.56152 0.10602 0.0
H1158 H 0.16486 0.58354 0.12992 0.0
H1159 H 0.14775 0.65959 0.11851 0.0
H1160 H 0.10252 0.6378 0.09487 0.0
H1161 H 0.16561 0.65695 0.16995 0.0
H1162 H 0.19931 0.63752 0.07988 0.0
H1163 H 0.20434 0.60851 0.04001 0.0
H1164 H 0.24371 0.56256 0.09171 0.0
H1165 H 0.2386 0.59113 0.13196 0.0
C1166 C 0.29825 0.72358 0.1986 0.0
C1167 C 0.3201 0.71172 0.20678 0.0
C1168 C 0.27227 0.70839 0.18687 0.0
C1169 C 0.26677 0.68066 0.18346 0.0
C1170 C 0.28828 0.66861 0.19203 0.0
C1171 C 0.31453 0.6839 0.2036 0.0
C1172 C 0.23898 0.6646 0.17029 0.0
C1173 C 0.24013 0.64692 0.148 0.0
C1174 C 0.21149 0.66786 0.17838 0.0
C1175 C 0.20801 0.68448 0.20292 0.0
C1176 C 0.21888 0.68019 0.22869 0.0
C1177 C 0.21573 0.69606 0.25168 0.0
C1178 C 0.20158 0.71617 0.24921 0.0
C1179 C 0.19048 0.72041 0.22374 0.0
C1180 C 0.19359 0.70462 0.20068 0.0
C1181 C 0.12551 0.58295 0.10845 0.0
C1182 C 0.10721 0.59777 0.09832 0.0
C1183 C 0.15155 0.59558 0.1221 0.0
C1184 C 0.1601 0.62339 0.12598 0.0
C1185 C 0.14184 0.63816 0.11591 0.0
C1186 C 0.1159 0.6256 0.10221 0.0
C1187 C 0.1877 0.63717 0.14085 0.0
C1188 C 0.18648 0.65442 0.16345 0.0
C1189 C 0.21503 0.63336 0.13317 0.0
C1190 C 0.2183 0.6163 0.10897 0.0
C1191 C 0.20885 0.62112 0.08277 0.0
C1192 C 0.21176 0.60477 0.0601 0.0
C1193 C 0.22426 0.58366 0.06334 0.0
C1194 C 0.23399 0.5789 0.08924 0.0
C1195 C 0.23112 0.59517 0.11198 0.0
H1196 H 0.22648 0.57102 0.04576 0.0
H1197 H 0.19918 0.72843 0.26703 0.0
H1198 H 0.2606 0.40643 0.72195 0.0
H1199 H 0.30598 0.43011 0.70009 0.0
H1200 H 0.25981 0.4768 0.65619 0.0
H1201 H 0.21457 0.45354 0.67859 0.0
H1202 H 0.29523 0.45008 0.62253 0.0
H1203 H 0.30286 0.507 0.70444 0.0
H1204 H 0.30374 0.51589 0.75463 0.0
H1205 H 0.37654 0.4828 0.76235 0.0
H1206 H 0.37584 0.47337 0.71223 0.0
H1207 H 0.41558 0.52904 0.55401 0.0
H1208 H 0.37134 0.51366 0.58079 0.0
H1209 H 0.42092 0.49128 0.64545 0.0
H1210 H 0.4654 0.50897 0.61961 0.0
H1211 H 0.38261 0.50617 0.66947 0.0
H1212 H 0.37562 0.44556 0.59227 0.0
H1213 H 0.37555 0.43125 0.54336 0.0
H1214 H 0.30336 0.46339 0.52785 0.0
H1215 H 0.30321 0.47818 0.57662 0.0
C1216 C 0.26038 0.42228 0.70822 0.0
C1217 C 0.23424 0.42854 0.70234 0.0
C1218 C 0.28624 0.4357 0.69563 0.0
C1219 C 0.28638 0.4553 0.67649 0.0
C1220 C 0.2603 0.46184 0.67093 0.0
C1221 C 0.23453 0.44873 0.68389 0.0
C1222 C 0.31334 0.46785 0.66115 0.0
C1223 C 0.31423 0.4627 0.63268 0.0
C1224 C 0.33855 0.48337 0.67453 0.0
C1225 C 0.33913 0.48927 0.70461 0.0
C1226 C 0.31891 0.50143 0.71686 0.0
C1227 C 0.31941 0.5066 0.74529 0.0
C1228 C 0.34014 0.49986 0.76167 0.0
C1229 C 0.36048 0.48799 0.74964 0.0
C1230 C 0.36006 0.48276 0.72122 0.0
C1231 C 0.41696 0.52105 0.57407 0.0
C1232 C 0.44388 0.52009 0.58466 0.0
C1233 C 0.39157 0.51191 0.58933 0.0
C1234 C 0.39224 0.50032 0.615 0.0
C1235 C 0.41941 0.49994 0.62577 0.0
C1236 C 0.44493 0.51 0.61094 0.0
C1237 C 0.36481 0.48847 0.63048 0.0
C1238 C 0.36374 0.49364 0.65907 0.0
C1239 C 0.33966 0.47217 0.61733 0.0
C1240 C 0.3396 0.46321 0.58803 0.0
C1241 C 0.35984 0.44971 0.57839 0.0
C1242 C 0.35983 0.4415 0.5507 0.0
C1243 C 0.33952 0.44648 0.5325 0.0
C1244 C 0.31911 0.4596 0.54197 0.0
C1245 C 0.31905 0.46787 0.56963 0.0
H1246 H 0.33955 0.44011 0.51107 0.0
H1247 H 0.34048 0.50387 0.78368 0.0
H1248 H 0.80762 0.80714 0.89169 0.0
H1249 H 0.83932 0.78146 0.90879 0.0
H1250 H 0.76824 0.71098 0.9065 0.0
H1251 H 0.73607 0.73698 0.88988 0.0
H1252 H 0.79798 0.71307 0.95195 0.0
H1253 H 0.82288 0.72031 0.85736 0.0
H1254 H 0.83629 0.74221 0.81341 0.0
H1255 H 0.91477 0.79038 0.84977 0.0
H1256 H 0.90172 0.76882 0.89407 0.0
H1257 H 0.89573 0.63284 0.97398 0.0
H1258 H 0.86116 0.65184 0.95039 0.0
H1259 H 0.91852 0.73004 0.96227 0.0
H1260 H 0.9527 0.71131 0.98673 0.0
H1261 H 0.89356 0.71922 0.90862 0.0
H1262 H 0.86477 0.7122 1.00462 0.0
H1263 H 0.85094 0.68746 0.047 0.0
H1264 H 0.77829 0.63544 1.00504 0.0
H1265 H 0.79196 0.65967 0.96228 0.0
C1266 C 0.79878 0.78612 0.89464 0.0
C1267 C 0.76947 0.77396 0.88918 0.0
C1268 C 0.81694 0.77143 0.90433 0.0
C1269 C 0.80635 0.74414 0.90834 0.0
C1270 C 0.77693 0.73198 0.90339 0.0
C1271 C 0.75859 0.74681 0.89394 0.0
C1272 C 0.82608 0.72867 0.9183 0.0
C1273 C 0.81861 0.71401 0.94213 0.0
C1274 C 0.85317 0.73003 0.90568 0.0
C1275 C 0.8612 0.74307 0.87909 0.0
C1276 C 0.84291 0.7357 0.85604 0.0
C1277 C 0.85047 0.74804 0.83105 0.0
C1278 C 0.87634 0.76776 0.8288 0.0
C1279 C 0.89474 0.77511 0.85154 0.0
C1280 C 0.8873 0.76278 0.87659 0.0
C1281 C 0.90087 0.65409 0.97175 0.0
C1282 C 0.92677 0.67058 0.98257 0.0
C1283 C 0.88122 0.66487 0.95809 0.0
C1284 C 0.88724 0.69234 0.95483 0.0
C1285 C 0.91356 0.70876 0.96456 0.0
C1286 C 0.9331 0.69802 0.97844 0.0
C1287 C 0.86559 0.70417 0.94238 0.0
C1288 C 0.87274 0.7181 0.91814 0.0
C1289 C 0.83808 0.70181 0.95437 0.0
C1290 C 0.82955 0.68757 0.9802 0.0
C1291 C 0.84596 0.69538 1.00439 0.0
C1292 C 0.83814 0.68147 0.02848 0.0
C1293 C 0.8138 0.65985 0.02869 0.0
C1294 C 0.79716 0.65216 1.00484 0.0
C1295 C 0.80492 0.66599 0.98067 0.0
H1296 H 0.80779 0.64908 0.04736 0.0
H1297 H 0.88216 0.7773 0.80943 0.0
H1298 H 0.38216 0.78385 0.1587 0.0
H1299 H 0.40152 0.8265 0.13786 0.0
H1300 H 0.44422 0.85822 0.21416 0.0
H1301 H 0.42294 0.81636 0.23586 0.0
H1302 H 0.42595 0.89477 0.19471 0.0
H1303 H 0.4795 0.83788 0.15269 0.0
H1304 H 0.48664 0.79846 0.12702 0.0
H1305 H 0.443 0.81791 0.05691 0.0
H1306 H 0.43528 0.85729 0.08229 0.0
H1307 H 0.53292 1.00331 0.14058 0.0
H1308 H 0.50743 0.96088 0.15972 0.0
H1309 H 0.45103 0.94376 0.08895 0.0
H1310 H 0.47632 0.98664 0.06993 0.0
H1311 H 0.47414 0.90038 0.10372 0.0
H1312 H 0.42426 0.95979 0.14684 0.0
H1313 H 0.42056 0.99999 0.17323 0.0
H1314 H 0.46166 0.97611 0.24259 0.0
H1315 H 0.46601 0.93594 0.21645 0.0
C1316 C 0.39526 0.79989 0.17136 0.0
C1317 C 0.40081 0.7961 0.19923 0.0
C1318 C 0.40686 0.82439 0.15912 0.0
C1319 C 0.42507 0.84585 0.17404 0.0
C1320 C 0.43047 0.84221 0.20188 0.0
C1321 C 0.41849 0.81788 0.21427 0.0
C1322 C 0.4382 0.87209 0.16095 0.0
C1323 C 0.43678 0.89581 0.17496 0.0
C1324 C 0.45194 0.874 0.13479 0.0
C1325 C 0.45653 0.85036 0.1195 0.0
C1326 C 0.47124 0.83364 0.13187 0.0
C1327 C 0.47542 0.81133 0.11736 0.0
C1328 C 0.4652 0.80564 0.09038 0.0
C1329 C 0.45085 0.82231 0.07783 0.0
C1330 C 0.44658 0.84464 0.09225 0.0
C1331 C 0.51492 0.99064 0.12915 0.0
C1332 C 0.50657 0.99853 0.10374 0.0
C1333 C 0.50033 0.96632 0.14016 0.0
C1334 C 0.47714 0.94896 0.12592 0.0
C1335 C 0.46879 0.95672 0.10042 0.0
C1336 C 0.48315 0.98134 0.0896 0.0
C1337 C 0.46206 0.92274 0.13767 0.0
C1338 C 0.46317 0.89913 0.12341 0.0
C1339 C 0.44846 0.92092 0.16376 0.0
C1340 C 0.44569 0.94497 0.17959 0.0
C1341 C 0.43273 0.96321 0.16764 0.0
C1342 C 0.43047 0.98598 0.18257 0.0
C1343 C 0.44093 0.99063 0.20955 0.0
C1344 C 0.4536 0.97249 0.22168 0.0
C1345 C 0.45594 0.94971 0.20683 0.0
H1346 H 0.43916 1.00827 0.22107 0.0
H1347 H 0.46846 0.78836 0.07918 0.0
H1348 H 0.19734 0.33247 0.68845 0.0
H1349 H 0.17761 0.2896 0.66443 0.0
H1350 H 0.0932 0.30467 0.66367 0.0
H1351 H 0.11274 0.34752 0.68742 0.0
H1352 H 0.08839 0.25548 0.67809 0.0
H1353 H 0.13564 0.30981 0.60534 0.0
H1354 H 0.17633 0.34016 0.58215 0.0
H1355 H 0.22494 0.28164 0.58363 0.0
H1356 H 0.18467 0.25107 0.60719 0.0
H1357 H 0.05541 0.16033 0.54844 0.0
H1358 H 0.07667 0.20439 0.56952 0.0
H1359 H 0.09184 0.1684 0.64454 0.0
H1360 H 0.07061 0.12441 0.62376 0.0
H1361 H 0.12991 0.22887 0.59124 0.0
H1362 H 0.07953 0.20717 0.69912 0.0
H1363 H 0.03626 0.1782 0.72016 0.0
H1364 H 0.98929 0.17429 0.64448 0.0
H1365 H 0.03212 0.20354 0.62314 0.0
C1366 C 0.17463 0.32681 0.68294 0.0
C1367 C 0.15669 0.34358 0.69004 0.0
C1368 C 0.16334 0.30221 0.6692 0.0
C1369 C 0.13386 0.29382 0.66201 0.0
C1370 C 0.11595 0.31051 0.66907 0.0
C1371 C 0.12719 0.33506 0.68279 0.0
C1372 C 0.12151 0.26755 0.64752 0.0
C1373 C 0.09758 0.24971 0.65914 0.0
C1374 C 0.13305 0.25995 0.62251 0.0
C1375 C 0.15725 0.27826 0.60827 0.0
C1376 C 0.15509 0.30349 0.60091 0.0
C1377 C 0.17807 0.32072 0.58767 0.0
C1378 C 0.20324 0.31286 0.58148 0.0
C1379 C 0.20545 0.28772 0.58847 0.0
C1380 C 0.18255 0.27043 0.60175 0.0
C1381 C 0.06337 0.16175 0.5694 0.0
C1382 C 0.06113 0.13871 0.58439 0.0
C1383 C 0.07563 0.187 0.5814 0.0
C1384 C 0.08565 0.18983 0.60875 0.0
C1385 C 0.08397 0.16684 0.62354 0.0
C1386 C 0.07187 0.14162 0.61154 0.0
C1387 C 0.09717 0.21674 0.6221 0.0
C1388 C 0.12087 0.23466 0.61027 0.0
C1389 C 0.08516 0.22461 0.6467 0.0
C1390 C 0.05914 0.20732 0.65947 0.0
C1391 C 0.05993 0.20021 0.68702 0.0
C1392 C 0.03548 0.18373 0.69899 0.0
C1393 C 1.01008 0.17434 0.68364 0.0
C1394 C 1.00902 0.18149 0.65632 0.0
C1395 C 0.03338 0.198 0.64427 0.0
H1396 H 0.99119 0.16156 0.69294 0.0
H1397 H 0.221 0.32623 0.57123 0.0
H1398 H 0.78456 0.35848 0.50187 0.0
H1399 H 0.74357 0.36778 0.52693 0.0
H1400 H 0.69365 0.28718 0.51018 0.0
H1401 H 0.73477 0.27811 0.48466 0.0
H1402 H 0.66501 0.32075 0.49516 0.0
H1403 H 0.71135 0.30951 0.57716 0.0
H1404 H 0.75114 0.31365 0.61033 0.0
H1405 H 0.76242 0.39794 0.61698 0.0
H1406 H 0.72301 0.39442 0.58353 0.0
H1407 H 0.55658 0.38016 0.54511 0.0
H1408 H 0.58646 0.34872 0.5487 0.0
H1409 H 0.66338 0.41369 0.54914 0.0
H1410 H 0.63407 0.44495 0.54511 0.0
H1411 H 0.66936 0.3738 0.58248 0.0
H1412 H 0.63497 0.38366 0.48887 0.0
H1413 H 0.59602 0.38022 0.45482 0.0
H1414 H 0.56295 0.2975 0.47079 0.0
H1415 H 0.60155 0.30059 0.5052 0.0
C1416 C 0.76498 0.3427 0.50408 0.0
C1417 C 0.76246 0.31769 0.49153 0.0
C1418 C 0.74169 0.34788 0.51858 0.0
C1419 C 0.71564 0.32804 0.52079 0.0
C1420 C 0.71359 0.30269 0.50892 0.0
C1421 C 0.73695 0.29754 0.49438 0.0
C1422 C 0.68968 0.33512 0.53209 0.0
C1423 C 0.66558 0.33156 0.51472 0.0
C1424 C 0.6904 0.34933 0.55754 0.0
C1425 C 0.71419 0.35167 0.57773 0.0
C1426 C 0.72242 0.32896 0.58555 0.0
C1427 C 0.74491 0.3312 0.60443 0.0
C1428 C 0.7593 0.35604 0.61575 0.0
C1429 C 0.75122 0.3787 0.60822 0.0
C1430 C 0.72876 0.37659 0.58933 0.0
C1431 C 0.57985 0.38773 0.54625 0.0
C1432 C 0.59291 0.41507 0.54445 0.0
C1433 C 0.59684 0.36978 0.54859 0.0
C1434 C 0.62711 0.3789 0.54894 0.0
C1435 C 0.64005 0.40624 0.5491 0.0
C1436 C 0.62317 0.42414 0.54677 0.0
C1437 C 0.64574 0.36048 0.5449 0.0
C1438 C 0.66839 0.36196 0.56356 0.0
C1439 C 0.64378 0.34432 0.52064 0.0
C1440 C 0.62086 0.34242 0.49978 0.0
C1441 C 0.61928 0.36479 0.48519 0.0
C1442 C 0.59729 0.3629 0.46585 0.0
C1443 C 0.57697 0.33867 0.4607 0.0
C1444 C 0.57866 0.31627 0.47484 0.0
C1445 C 0.60057 0.31807 0.49427 0.0
H1446 H 0.55996 0.33725 0.44572 0.0
H1447 H 0.77671 0.35773 0.63037 0.0
loop_
_geom_bond_atom_site_label_1
_geom_bond_atom_site_label_2
_geom_bond_distance
_geom_bond_site_symmetry_2
_ccdc_geom_bond_type
H0 C3 0.929 . S
H1 C6 0.929 . S
H2 C8 0.930 . S
C3 H0 0.929 . S
C3 C4 1.398 . S
C3 C5 1.396 . S
C4 C3 1.398 . S
C4 C8 1.407 . S
C5 C3 1.396 . S
C5 C6 1.394 . S
C6 H1 0.929 . S
C6 C5 1.394 . S
C6 C7 1.382 . S
C7 C6 1.382 . S
C7 C8 1.392 . S
C7 N9 1.420 . S
C8 H2 0.930 . S
C8 C4 1.407 . S
C8 C7 1.392 . S
N9 C7 1.420 . S
N9 C10 1.244 . S
C10 N9 1.244 . S
H11 C14 0.929 . S
H12 C17 0.929 . S
H13 C19 0.930 . S
C14 H11 0.929 . S
C14 C15 1.398 . S
C14 C16 1.396 . S
C15 C14 1.398 . S
C15 C19 1.407 . S
C16 C14 1.396 . S
C16 C17 1.394 . S
C17 H12 0.929 . S
C17 C16 1.394 . S
C17 C18 1.382 . S
C18 C17 1.382 . S
C18 C19 1.392 . S
C18 N20 1.420 . S
C19 H13 0.930 . S
C19 C15 1.407 . S
C19 C18 1.392 . S
N20 C18 1.420 . S
N20 C21 1.244 . S
C21 N20 1.244 . S
H22 C25 0.929 . S
H23 C28 0.929 . S
H24 C30 0.930 . S
C25 H22 0.929 . S
C25 C26 1.398 . S
C25 C27 1.396 . S
C26 C25 1.398 . S
C26 C30 1.407 . S
C27 C25 1.396 . S
C27 C28 1.394 . S
C28 H23 0.929 . S
C28 C27 1.394 . S
C28 C29 1.382 . S
C29 C28 1.382 . S
C29 C30 1.392 . S
C29 N31 1.420 . S
C30 H24 0.930 . S
C30 C26 1.407 . S
C30 C29 1.392 . S
N31 C29 1.420 . S
N31 C32 1.244 . S
C32 N31 1.244 . S
H33 C36 0.929 . S
H34 C39 0.929 . S
H35 C41 0.930 . S
C36 H33 0.929 . S
C36 C37 1.398 . S
C36 C38 1.396 . S
C37 C36 1.398 . S
C37 C41 1.407 . S
C38 C36 1.396 . S
C38 C39 1.394 . S
C39 H34 0.929 . S
C39 C38 1.394 . S
C39 C40 1.382 . S
C40 C39 1.382 . S
C40 C41 1.392 . S
C40 N42 1.420 . S
C41 H35 0.930 . S
C41 C37 1.407 . S
C41 C40 1.392 . S
N42 C40 1.420 . S
N42 C43 1.244 . S
C43 N42 1.244 . S
H44 C47 0.929 . S
H45 C50 0.929 . S
H46 C52 0.930 . S
C47 H44 0.929 . S
C47 C48 1.398 . S
C47 C49 1.396 . S
C48 C47 1.398 . S
C48 C52 1.407 . S
C49 C47 1.396 . S
C49 C50 1.394 . S
C50 H45 0.929 . S
C50 C49 1.394 . S
C50 C51 1.382 . S
C51 C50 1.382 . S
C51 C52 1.392 . S
C51 N53 1.420 . S
C52 H46 0.930 . S
C52 C48 1.407 . S
C52 C51 1.392 . S
N53 C51 1.420 . S
N53 C54 1.244 . S
C54 N53 1.244 . S
H55 C58 0.929 . S
H56 C61 0.929 . S
H57 C63 0.930 . S
C58 H55 0.929 . S
C58 C59 1.398 . S
C58 C60 1.396 . S
C59 C58 1.398 . S
C59 C63 1.407 . S
C60 C58 1.396 . S
C60 C61 1.394 . S
C61 H56 0.929 . S
C61 C60 1.394 . S
C61 C62 1.382 . S
C62 C61 1.382 . S
C62 C63 1.392 . S
C62 N64 1.420 . S
C63 H57 0.930 . S
C63 C59 1.407 . S
C63 C62 1.392 . S
N64 C62 1.420 . S
N64 C65 1.244 . S
C65 N64 1.244 . S
H66 C69 0.929 . S
H67 C72 0.929 . S
H68 C74 0.930 . S
C69 H66 0.929 . S
C69 C70 1.398 . S
C69 C71 1.396 . S
C70 C69 1.398 . S
C70 C74 1.407 . S
C71 C69 1.396 . S
C71 C72 1.394 . S
C72 H67 0.929 . S
C72 C71 1.394 . S
C72 C73 1.382 . S
C73 C72 1.382 . S
C73 C74 1.392 . S
C73 N75 1.420 . S
C74 H68 0.930 . S
C74 C70 1.407 . S
C74 C73 1.392 . S
N75 C73 1.420 . S
N75 C76 1.244 . S
C76 N75 1.244 . S
H77 C80 0.929 . S
H78 C83 0.929 . S
H79 C85 0.930 . S
C80 H77 0.929 . S
C80 C81 1.398 . S
C80 C82 1.396 . S
C81 C80 1.398 . S
C81 C85 1.407 . S
C82 C80 1.396 . S
C82 C83 1.394 . S
C83 H78 0.929 . S
C83 C82 1.394 . S
C83 C84 1.382 . S
C84 C83 1.382 . S
C84 C85 1.392 . S
C84 N86 1.420 . S
C85 H79 0.930 . S
C85 C81 1.407 . S
C85 C84 1.392 . S
N86 C84 1.420 . S
N86 C87 1.244 . S
C87 N86 1.244 . S
Ho88 C91 2.811 . S
Ho88 O108 2.322 . S
Ho88 O110 2.378 . S
Ho88 O111 2.524 . S
Ho88 O112 2.381 . S
Ho88 O113 2.669 . S
Ho88 O115 2.346 1_545 S
Ho88 O119 2.305 1_455 S
Ho89 C100 2.811 1_545 S
Ho89 O109 2.346 1_655 S
Ho89 O113 2.305 1_655 S
Ho89 O114 2.322 1_545 S
Ho89 O116 2.372 1_545 S
Ho89 O117 2.524 1_545 S
Ho89 O118 2.381 . S
Ho89 O119 2.669 . S
C90 O108 1.259 . S
C90 O109 1.268 . S
C91 Ho88 2.811 . S
C91 C92 1.488 . S
C91 O110 1.215 . S
C91 O111 1.289 . S
C92 C91 1.488 . S
C92 C93 1.348 . S
C92 C97 1.413 . S
C93 C92 1.348 . S
C93 C94 1.442 . S
C93 H120 0.930 . S
C94 C93 1.442 . S
C94 C95 1.381 . S
C94 H121 0.931 . S
C95 C94 1.381 . S
C95 C96 1.321 . S
C96 C95 1.321 . S
C96 C97 1.403 . S
C96 H122 0.934 . S
C97 C92 1.413 . S
C97 C96 1.403 . S
C97 H123 0.930 . S
C98 O112 1.275 . S
C98 O113 1.256 . S
C99 O114 1.259 . S
C99 O115 1.268 1_655 S
C100 Ho89 2.811 1_565 S
C100 C101 1.488 . S
C100 O116 1.232 . S
C100 O117 1.289 . S
C101 C100 1.488 . S
C101 C102 1.348 . S
C101 C106 1.413 . S
C102 C101 1.348 . S
C102 C103 1.442 . S
C102 H124 0.930 . S
C103 C102 1.442 . S
C103 C104 1.381 . S
C103 H125 0.931 . S
C104 C103 1.381 . S
C104 C105 1.321 . S
C105 C104 1.321 . S
C105 C106 1.403 . S
C105 H126 0.934 . S
C106 C101 1.413 . S
C106 C105 1.403 . S
C106 H127 0.930 . S
C107 O118 1.275 . S
C107 O119 1.256 . S
O108 Ho88 2.322 . S
O108 C90 1.259 . S
O109 Ho89 2.346 1_455 S
O109 C90 1.268 . S
O110 Ho88 2.378 . S
O110 C91 1.215 . S
O111 Ho88 2.524 . S
O111 C91 1.289 . S
O112 Ho88 2.381 . S
O112 C98 1.275 . S
O113 Ho88 2.669 . S
O113 Ho89 2.305 1_455 S
O113 C98 1.256 . S
O114 Ho89 2.322 1_565 S
O114 C99 1.259 . S
O115 Ho88 2.346 1_565 S
O115 C99 1.268 1_455 S
O116 Ho89 2.372 1_565 S
O116 C100 1.232 . S
O117 Ho89 2.524 1_565 S
O117 C100 1.289 . S
O118 Ho89 2.381 . S
O118 C107 1.275 . S
O119 Ho88 2.305 1_655 S
O119 Ho89 2.669 . S
O119 C107 1.256 . S
H120 C93 0.930 . S
H121 C94 0.931 . S
H122 C96 0.934 . S
H123 C97 0.930 . S
H124 C102 0.930 . S
H125 C103 0.931 . S
H126 C105 0.934 . S
H127 C106 0.930 . S
Ho128 C131 2.811 . S
Ho128 O148 2.322 . S
Ho128 O150 2.378 . S
Ho128 O151 2.524 . S
Ho128 O152 2.381 1_545 S
Ho128 O153 2.669 . S
Ho128 O155 2.346 . S
Ho128 O159 2.305 . S
Ho129 C140 2.811 1_544 S
Ho129 O149 2.346 . S
Ho129 O153 2.305 . S
Ho129 O154 2.322 . S
Ho129 O156 2.378 1_554 S
Ho129 O157 2.524 1_544 S
Ho129 O158 2.399 . S
Ho129 O159 2.669 . S
C130 O148 1.259 . S
C130 O149 1.268 . S
C131 Ho128 2.811 . S
C131 C132 1.488 . S
C131 O150 1.215 . S
C131 O151 1.289 . S
C132 C131 1.488 . S
C132 C133 1.348 . S
C132 C137 1.413 . S
C133 C132 1.348 . S
C133 C134 1.442 . S
C133 H160 0.930 . S
C134 C133 1.442 . S
C134 C135 1.381 . S
C134 H161 0.931 . S
C135 C134 1.381 . S
C135 C136 1.321 . S
C136 C135 1.321 . S
C136 C137 1.403 . S
C136 H162 0.934 . S
C137 C132 1.413 . S
C137 C136 1.403 . S
C137 H163 0.930 . S
C138 O152 1.275 . S
C138 O153 1.256 1_565 S
C139 O154 1.260 . S
C139 O155 1.268 . S
C140 Ho129 2.811 1_566 S
C140 C141 1.488 . S
C140 O156 1.215 1_565 S
C140 O157 1.289 . S
C141 C140 1.488 . S
C141 C142 1.348 . S
C141 C146 1.413 . S
C142 C141 1.348 . S
C142 C143 1.442 . S
C142 H164 0.930 . S
C143 C142 1.442 . S
C143 C144 1.381 . S
C143 H165 0.931 . S
C144 C143 1.381 . S
C144 C145 1.321 . S
C145 C144 1.321 . S
C145 C146 1.403 . S
C145 H166 0.934 . S
C146 C141 1.413 . S
C146 C145 1.403 . S
C146 H167 0.930 1_565 S
C147 O158 1.304 . S
C147 O159 1.256 . S
O148 Ho128 2.322 . S
O148 C130 1.259 . S
O149 Ho129 2.346 . S
O149 C130 1.268 . S
O150 Ho128 2.378 . S
O150 C131 1.215 . S
O151 Ho128 2.524 . S
O151 C131 1.289 . S
O152 Ho128 2.381 1_565 S
O152 C138 1.275 . S
O153 Ho128 2.669 . S
O153 Ho129 2.305 . S
O153 C138 1.256 1_545 S
O154 Ho129 2.322 . S
O154 C139 1.260 . S
O155 Ho128 2.346 . S
O155 C139 1.268 . S
O156 Ho129 2.378 1_556 S
O156 C140 1.215 1_545 S
O157 Ho129 2.524 1_566 S
O157 C140 1.289 . S
O158 Ho129 2.399 . S
O158 C147 1.304 . S
O159 Ho128 2.305 . S
O159 Ho129 2.669 . S
O159 C147 1.256 . S
H160 C133 0.930 . S
H161 C134 0.931 . S
H162 C136 0.934 . S
H163 C137 0.930 . S
H164 C142 0.930 . S
H165 C143 0.931 . S
H166 C145 0.934 . S
H167 C146 0.930 1_545 S
Ho168 C171 2.811 . S
Ho168 O188 2.322 . S
Ho168 O190 2.378 . S
Ho168 O191 2.524 . S
Ho168 O192 2.381 . S
Ho168 O193 2.669 . S
Ho168 O195 2.346 . S
Ho168 O199 2.305 . S
Ho169 C180 2.811 . S
Ho169 O189 2.346 . S
Ho169 O193 2.305 . S
Ho169 O194 2.322 . S
Ho169 O196 2.378 . S
Ho169 O197 2.524 . S
Ho169 O198 2.381 . S
Ho169 O199 2.669 . S
C170 O188 1.259 . S
C170 O189 1.268 . S
C171 Ho168 2.811 . S
C171 C172 1.488 . S
C171 O190 1.215 . S
C171 O191 1.289 . S
C172 C171 1.488 . S
C172 C173 1.348 . S
C172 C177 1.413 . S
C173 C172 1.348 . S
C173 C174 1.442 . S
C173 H200 0.930 . S
C174 C173 1.442 . S
C174 C175 1.381 . S
C174 H201 0.931 . S
C175 C174 1.381 . S
C175 C176 1.321 . S
C176 C175 1.321 . S
C176 C177 1.403 . S
C176 H202 0.934 . S
C177 C172 1.413 . S
C177 C176 1.403 . S
C177 H203 0.930 . S
C178 O192 1.275 . S
C178 O193 1.256 . S
C179 O194 1.259 . S
C179 O195 1.268 . S
C180 Ho169 2.811 . S
C180 C181 1.488 . S
C180 O196 1.215 . S
C180 O197 1.289 . S
C181 C180 1.488 . S
C181 C182 1.348 . S
C181 C186 1.413 . S
C182 C181 1.348 . S
C182 C183 1.442 . S
C182 H204 0.930 . S
C183 C182 1.442 . S
C183 C184 1.381 . S
C183 H205 0.931 . S
C184 C183 1.381 . S
C184 C185 1.321 . S
C185 C184 1.321 . S
C185 C186 1.403 . S
C185 H206 0.934 . S
C186 C181 1.413 . S
C186 C185 1.403 . S
C186 H207 0.930 . S
C187 O198 1.275 . S
C187 O199 1.256 . S
O188 Ho168 2.322 . S
O188 C170 1.259 . S
O189 Ho169 2.346 . S
O189 C170 1.268 . S
O190 Ho168 2.378 . S
O190 C171 1.215 . S
O191 Ho168 2.524 . S
O191 C171 1.289 . S
O192 Ho168 2.381 . S
O192 C178 1.275 . S
O193 Ho168 2.669 . S
O193 Ho169 2.305 . S
O193 C178 1.256 . S
O194 Ho169 2.322 . S
O194 C179 1.259 . S
O195 Ho168 2.346 . S
O195 C179 1.268 . S
O196 Ho169 2.378 . S
O196 C180 1.215 . S
O197 Ho169 2.524 . S
O197 C180 1.289 . S
O198 Ho169 2.381 . S
O198 C187 1.275 . S
O199 Ho168 2.305 . S
O199 Ho169 2.669 . S
O199 C187 1.256 . S
H200 C173 0.930 . S
H201 C174 0.931 . S
H202 C176 0.934 . S
H203 C177 0.930 . S
H204 C182 0.930 . S
H205 C183 0.931 . S
H206 C185 0.934 . S
H207 C186 0.930 . S
Ho208 C211 2.811 . S
Ho208 O228 2.322 . S
Ho208 O230 2.378 . S
Ho208 O231 2.524 . S
Ho208 O232 2.381 . S
Ho208 O233 2.669 . S
Ho208 O235 2.346 1_455 S
Ho208 O239 2.305 1_554 S
Ho209 C220 2.811 1_455 S
Ho209 O229 2.346 1_556 S
Ho209 O233 2.305 1_556 S
Ho209 O234 2.322 1_455 S
Ho209 O236 2.378 . S
Ho209 O237 2.524 1_455 S
Ho209 O238 2.381 . S
Ho209 O239 2.669 . S
C210 O228 1.259 . S
C210 O229 1.268 . S
C211 Ho208 2.811 . S
C211 C212 1.488 . S
C211 O230 1.215 . S
C211 O231 1.289 . S
C212 C211 1.488 . S
C212 C213 1.348 . S
C212 C217 1.413 . S
C213 C212 1.348 . S
C213 C214 1.442 . S
C213 H240 0.930 . S
C214 C213 1.442 . S
C214 C215 1.381 . S
C214 H241 0.931 . S
C215 C214 1.381 . S
C215 C216 1.321 . S
C216 C215 1.321 . S
C216 C217 1.403 . S
C216 H242 0.934 . S
C217 C212 1.413 . S
C217 C216 1.403 . S
C217 H243 0.930 . S
C218 O232 1.275 . S
C218 O233 1.256 . S
C219 O234 1.259 . S
C219 O235 1.268 1_556 S
C220 Ho209 2.811 1_655 S
C220 C221 1.488 . S
C220 O236 1.215 1_655 S
C220 O237 1.289 . S
C221 C220 1.488 . S
C221 C222 1.348 . S
C221 C226 1.413 . S
C222 C221 1.348 . S
C222 C223 1.442 . S
C222 H244 0.930 . S
C223 C222 1.442 . S
C223 C224 1.381 . S
C223 H245 0.931 . S
C224 C223 1.381 . S
C224 C225 1.321 . S
C225 C224 1.321 . S
C225 C226 1.403 . S
C225 H246 0.934 . S
C226 C221 1.413 . S
C226 C225 1.403 . S
C226 H247 0.930 . S
C227 O238 1.275 . S
C227 O239 1.256 . S
O228 Ho208 2.322 . S
O228 C210 1.259 . S
O229 Ho209 2.346 1_554 S
O229 C210 1.268 . S
O230 Ho208 2.378 . S
O230 C211 1.215 . S
O231 Ho208 2.524 . S
O231 C211 1.289 . S
O232 Ho208 2.381 . S
O232 C218 1.275 . S
O233 Ho208 2.669 . S
O233 Ho209 2.305 1_554 S
O233 C218 1.256 . S
O234 Ho209 2.322 1_655 S
O234 C219 1.259 . S
O235 Ho208 2.346 1_655 S
O235 C219 1.268 1_554 S
O236 Ho209 2.378 . S
O236 C220 1.215 1_455 S
O237 Ho209 2.524 1_655 S
O237 C220 1.289 . S
O238 Ho209 2.381 . S
O238 C227 1.275 . S
O239 Ho208 2.305 1_556 S
O239 Ho209 2.669 . S
O239 C227 1.256 . S
H240 C213 0.930 . S
H241 C214 0.931 . S
H242 C216 0.934 . S
H243 C217 0.930 . S
H244 C222 0.930 . S
H245 C223 0.931 . S
H246 C225 0.934 . S
H247 C226 0.930 . S
H248 C266 0.951 . S
H249 C268 0.951 . S
H250 C270 0.950 . S
H251 C271 0.950 . S
H252 C273 0.950 . S
H253 C276 0.950 . S
H254 C277 0.950 . S
H255 C279 0.950 . S
H256 C280 0.950 . S
H257 C281 0.951 . S
H258 C283 0.951 . S
H259 C285 0.950 . S
H260 C286 0.950 . S
H261 C288 0.950 . S
H262 C291 0.950 . S
H263 C292 0.950 . S
H264 C294 0.950 . S
H265 C295 0.950 . S
C266 H248 0.951 . S
C266 C267 1.366 . S
C266 C268 1.388 . S
C267 C266 1.366 . S
C267 C271 1.385 . S
C268 H249 0.951 . S
C268 C266 1.388 . S
C268 C269 1.366 . S
C269 C268 1.366 . S
C269 C270 1.414 . S
C269 C272 1.499 . S
C270 H250 0.950 . S
C270 C269 1.414 . S
C270 C271 1.374 . S
C271 H251 0.950 . S
C271 C267 1.385 . S
C271 C270 1.374 . S
C272 C269 1.499 . S
C272 C273 1.373 . S
C272 C274 1.389 . S
C273 H252 0.950 . S
C273 C272 1.373 . S
C273 C289 1.377 . S
C274 C272 1.389 . S
C274 C275 1.524 . S
C274 C288 1.377 . S
C275 C274 1.524 . S
C275 C276 1.397 . S
C275 C280 1.363 . S
C276 H253 0.950 . S
C276 C275 1.397 . S
C276 C277 1.334 . S
C277 H254 0.950 . S
C277 C276 1.334 . S
C277 C278 1.287 . S
C278 C277 1.287 . S
C278 C279 1.524 . S
C278 H297 0.913 . S
C279 H255 0.950 . S
C279 C278 1.524 . S
C279 C280 1.415 . S
C280 H256 0.950 . S
C280 C275 1.363 . S
C280 C279 1.415 . S
C281 H257 0.951 . S
C281 C282 1.366 . S
C281 C283 1.388 . S
C282 C281 1.366 . S
C282 C286 1.385 . S
C283 H258 0.951 . S
C283 C281 1.388 . S
C283 C284 1.366 . S
C284 C283 1.366 . S
C284 C285 1.414 . S
C284 C287 1.499 . S
C285 H259 0.950 . S
C285 C284 1.414 . S
C285 C286 1.374 . S
C286 H260 0.950 . S
C286 C282 1.385 . S
C286 C285 1.374 . S
C287 C284 1.499 . S
C287 C288 1.373 . S
C287 C289 1.389 . S
C288 H261 0.950 . S
C288 C274 1.377 . S
C288 C287 1.373 . S
C289 C273 1.377 . S
C289 C287 1.389 . S
C289 C290 1.524 . S
C290 C289 1.524 . S
C290 C291 1.397 . S
C290 C295 1.363 . S
C291 H262 0.950 . S
C291 C290 1.397 . S
C291 C292 1.334 . S
C292 H263 0.950 . S
C292 C291 1.334 . S
C292 C293 1.287 . S
C293 C292 1.287 . S
C293 C294 1.524 . S
C293 H296 0.999 . S
C294 H264 0.950 . S
C294 C293 1.524 . S
C294 C295 1.415 . S
C295 H265 0.950 . S
C295 C290 1.363 . S
C295 C294 1.415 . S
H296 C293 0.999 . S
H297 C278 0.913 . S
H298 C316 0.951 . S
H299 C318 0.951 . S
H300 C320 0.950 . S
H301 C321 0.950 . S
H302 C323 0.950 . S
H303 C326 0.950 . S
H304 C327 0.950 . S
H305 C329 0.950 . S
H306 C330 0.950 . S
H307 C331 0.951 . S
H308 C333 0.951 . S
H309 C335 0.950 . S
H310 C336 0.950 . S
H311 C338 0.950 . S
H312 C341 0.950 . S
H313 C342 0.950 . S
H314 C344 0.950 . S
H315 C345 0.950 . S
C316 H298 0.951 . S
C316 C317 1.366 . S
C316 C318 1.388 . S
C317 C316 1.366 . S
C317 C321 1.385 . S
C318 H299 0.951 . S
C318 C316 1.388 . S
C318 C319 1.366 . S
C319 C318 1.366 . S
C319 C320 1.414 . S
C319 C322 1.499 . S
C320 H300 0.950 . S
C320 C319 1.414 . S
C320 C321 1.374 . S
C321 H301 0.950 . S
C321 C317 1.385 . S
C321 C320 1.374 . S
C322 C319 1.499 . S
C322 C323 1.373 . S
C322 C324 1.389 . S
C323 H302 0.950 . S
C323 C322 1.373 . S
C323 C339 1.377 . S
C324 C322 1.389 . S
C324 C325 1.524 . S
C324 C338 1.377 . S
C325 C324 1.524 . S
C325 C326 1.397 . S
C325 C330 1.363 . S
C326 H303 0.950 . S
C326 C325 1.397 . S
C326 C327 1.334 . S
C327 H304 0.950 . S
C327 C326 1.334 . S
C327 C328 1.287 . S
C328 C327 1.287 . S
C328 C329 1.524 . S
C328 H347 0.913 . S
C329 H305 0.950 . S
C329 C328 1.524 . S
C329 C330 1.415 . S
C330 H306 0.950 . S
C330 C325 1.363 . S
C330 C329 1.415 . S
C331 H307 0.951 . S
C331 C332 1.366 . S
C331 C333 1.388 . S
C332 C331 1.366 . S
C332 C336 1.385 . S
C333 H308 0.951 . S
C333 C331 1.388 . S
C333 C334 1.366 . S
C334 C333 1.366 . S
C334 C335 1.414 . S
C334 C337 1.499 . S
C335 H309 0.950 . S
C335 C334 1.414 . S
C335 C336 1.374 . S
C336 H310 0.950 . S
C336 C332 1.385 . S
C336 C335 1.374 . S
C337 C334 1.499 . S
C337 C338 1.373 . S
C337 C339 1.389 . S
C338 H311 0.950 . S
C338 C324 1.377 . S
C338 C337 1.373 . S
C339 C323 1.377 . S
C339 C337 1.389 . S
C339 C340 1.524 . S
C340 C339 1.524 . S
C340 C341 1.397 . S
C340 C345 1.363 . S
C341 H312 0.950 . S
C341 C340 1.397 . S
C341 C342 1.334 . S
C342 H313 0.950 . S
C342 C341 1.334 . S
C342 C343 1.287 . S
C343 C342 1.287 . S
C343 C344 1.524 . S
C343 H346 0.999 . S
C344 H314 0.950 . S
C344 C343 1.524 . S
C344 C345 1.415 . S
C345 H315 0.950 . S
C345 C340 1.363 . S
C345 C344 1.415 . S
H346 C343 0.999 . S
H347 C328 0.913 . S
H348 C366 0.951 . S
H349 C368 0.951 . S
H350 C370 0.950 . S
H351 C371 0.950 . S
H352 C373 0.950 . S
H353 C376 0.950 . S
H354 C377 0.950 . S
H355 C379 0.950 . S
H356 C380 0.950 . S
H357 C381 0.951 . S
H358 C383 0.951 . S
H359 C385 0.950 . S
H360 C386 0.950 . S
H361 C388 0.950 . S
H362 C391 0.950 . S
H363 C392 0.950 . S
H364 C394 0.950 . S
H365 C395 0.950 . S
C366 H348 0.951 . S
C366 C367 1.366 . S
C366 C368 1.388 . S
C367 C366 1.366 . S
C367 C371 1.385 . S
C368 H349 0.951 . S
C368 C366 1.388 . S
C368 C369 1.366 . S
C369 C368 1.366 . S
C369 C370 1.414 . S
C369 C372 1.499 . S
C370 H350 0.950 . S
C370 C369 1.414 . S
C370 C371 1.374 . S
C371 H351 0.950 . S
C371 C367 1.385 . S
C371 C370 1.374 . S
C372 C369 1.499 . S
C372 C373 1.373 . S
C372 C374 1.389 . S
C373 H352 0.950 . S
C373 C372 1.373 . S
C373 C389 1.377 . S
C374 C372 1.389 . S
C374 C375 1.524 . S
C374 C388 1.377 . S
C375 C374 1.524 . S
C375 C376 1.397 . S
C375 C380 1.363 . S
C376 H353 0.950 . S
C376 C375 1.397 . S
C376 C377 1.334 . S
C377 H354 0.950 . S
C377 C376 1.334 . S
C377 C378 1.287 . S
C378 C377 1.287 . S
C378 C379 1.524 . S
C378 H397 0.913 . S
C379 H355 0.950 . S
C379 C378 1.524 . S
C379 C380 1.415 . S
C380 H356 0.950 . S
C380 C375 1.363 . S
C380 C379 1.415 . S
C381 H357 0.951 . S
C381 C382 1.366 . S
C381 C383 1.388 . S
C382 C381 1.366 . S
C382 C386 1.385 . S
C383 H358 0.951 . S
C383 C381 1.388 . S
C383 C384 1.366 . S
C384 C383 1.366 . S
C384 C385 1.414 . S
C384 C387 1.499 . S
C385 H359 0.950 . S
C385 C384 1.414 . S
C385 C386 1.374 . S
C386 H360 0.950 . S
C386 C382 1.385 . S
C386 C385 1.374 . S
C387 C384 1.499 . S
C387 C388 1.373 . S
C387 C389 1.389 . S
C388 H361 0.950 . S
C388 C374 1.377 . S
C388 C387 1.373 . S
C389 C373 1.377 . S
C389 C387 1.389 . S
C389 C390 1.524 . S
C390 C389 1.524 . S
C390 C391 1.397 . S
C390 C395 1.363 . S
C391 H362 0.950 . S
C391 C390 1.397 . S
C391 C392 1.334 . S
C392 H363 0.950 . S
C392 C391 1.334 . S
C392 C393 1.287 . S
C393 C392 1.287 . S
C393 C394 1.524 . S
C393 H396 0.999 . S
C394 H364 0.950 . S
C394 C393 1.524 . S
C394 C395 1.415 . S
C395 H365 0.950 . S
C395 C390 1.363 . S
C395 C394 1.415 . S
H396 C393 0.999 . S
H397 C378 0.913 . S
H398 C416 0.951 . S
H399 C418 0.951 . S
H400 C420 0.950 . S
H401 C421 0.950 . S
H402 C423 0.950 . S
H403 C426 0.950 . S
H404 C427 0.950 . S
H405 C429 0.950 . S
H406 C430 0.950 . S
H407 C431 0.941 1_455 S
H408 C433 0.951 . S
H409 C435 0.950 . S
H410 C436 0.950 . S
H411 C438 0.950 . S
H412 C441 0.950 . S
H413 C442 0.950 . S
H414 C444 0.950 . S
H415 C445 0.950 . S
C416 H398 0.951 . S
C416 C417 1.366 . S
C416 C418 1.388 . S
C417 C416 1.366 . S
C417 C421 1.385 . S
C418 H399 0.951 . S
C418 C416 1.388 . S
C418 C419 1.366 . S
C419 C418 1.366 . S
C419 C420 1.414 . S
C419 C422 1.499 . S
C420 H400 0.950 . S
C420 C419 1.414 . S
C420 C421 1.374 . S
C421 H401 0.950 . S
C421 C417 1.385 . S
C421 C420 1.374 . S
C422 C419 1.499 . S
C422 C423 1.373 . S
C422 C424 1.389 . S
C423 H402 0.950 . S
C423 C422 1.373 . S
C423 C439 1.377 . S
C424 C422 1.389 . S
C424 C425 1.524 . S
C424 C438 1.377 . S
C425 C424 1.524 . S
C425 C426 1.397 . S
C425 C430 1.363 . S
C426 H403 0.950 . S
C426 C425 1.397 . S
C426 C427 1.334 . S
C427 H404 0.950 . S
C427 C426 1.334 . S
C427 C428 1.287 . S
C428 C427 1.287 . S
C428 C429 1.524 . S
C428 H447 0.913 . S
C429 H405 0.950 . S
C429 C428 1.524 . S
C429 C430 1.415 . S
C430 H406 0.950 . S
C430 C425 1.363 . S
C430 C429 1.415 . S
C431 H407 0.941 1_655 S
C431 C432 1.366 . S
C431 C433 1.388 . S
C432 C431 1.366 . S
C432 C436 1.385 . S
C433 H408 0.951 . S
C433 C431 1.388 . S
C433 C434 1.366 . S
C434 C433 1.366 . S
C434 C435 1.414 . S
C434 C437 1.499 . S
C435 H409 0.950 . S
C435 C434 1.414 . S
C435 C436 1.374 . S
C436 H410 0.950 . S
C436 C432 1.385 . S
C436 C435 1.374 . S
C437 C434 1.499 . S
C437 C438 1.373 . S
C437 C439 1.389 . S
C438 H411 0.950 . S
C438 C424 1.377 . S
C438 C437 1.373 . S
C439 C423 1.377 . S
C439 C437 1.389 . S
C439 C440 1.524 . S
C440 C439 1.524 . S
C440 C441 1.397 . S
C440 C445 1.363 . S
C441 H412 0.950 . S
C441 C440 1.397 . S
C441 C442 1.334 . S
C442 H413 0.950 . S
C442 C441 1.334 . S
C442 C443 1.287 . S
C443 C442 1.287 . S
C443 C444 1.524 . S
C443 H446 0.999 . S
C444 H414 0.950 . S
C444 C443 1.524 . S
C444 C445 1.415 . S
C445 H415 0.950 . S
C445 C440 1.363 . S
C445 C444 1.415 . S
H446 C443 0.999 . S
H447 C428 0.913 . S
H448 C466 0.951 . S
H449 C468 0.951 . S
H450 C470 0.950 . S
H451 C471 0.950 . S
H452 C473 0.950 . S
H453 C476 0.950 . S
H454 C477 0.950 . S
H455 C479 0.950 . S
H456 C480 0.950 . S
H457 C481 0.951 . S
H458 C483 0.951 . S
H459 C485 0.950 . S
H460 C486 0.950 . S
H461 C488 0.950 . S
H462 C491 0.950 . S
H463 C492 0.950 . S
H464 C494 0.950 . S
H465 C495 0.950 . S
C466 H448 0.951 . S
C466 C467 1.366 . S
C466 C468 1.388 . S
C467 C466 1.366 . S
C467 C471 1.385 . S
C468 H449 0.951 . S
C468 C466 1.388 . S
C468 C469 1.366 . S
C469 C468 1.366 . S
C469 C470 1.414 . S
C469 C472 1.499 . S
C470 H450 0.950 . S
C470 C469 1.414 . S
C470 C471 1.374 . S
C471 H451 0.950 . S
C471 C467 1.385 . S
C471 C470 1.374 . S
C472 C469 1.499 . S
C472 C473 1.373 . S
C472 C474 1.389 . S
C473 H452 0.950 . S
C473 C472 1.373 . S
C473 C489 1.377 . S
C474 C472 1.389 . S
C474 C475 1.524 . S
C474 C488 1.377 . S
C475 C474 1.524 . S
C475 C476 1.397 . S
C475 C480 1.363 . S
C476 H453 0.950 . S
C476 C475 1.397 . S
C476 C477 1.334 . S
C477 H454 0.950 . S
C477 C476 1.334 . S
C477 C478 1.287 . S
C478 C477 1.287 . S
C478 C479 1.524 . S
C478 H497 0.913 . S
C479 H455 0.950 . S
C479 C478 1.524 . S
C479 C480 1.415 . S
C480 H456 0.950 . S
C480 C475 1.363 . S
C480 C479 1.415 . S
C481 H457 0.951 . S
C481 C482 1.366 . S
C481 C483 1.388 . S
C482 C481 1.366 . S
C482 C486 1.385 . S
C483 H458 0.951 . S
C483 C481 1.388 . S
C483 C484 1.366 . S
C484 C483 1.366 . S
C484 C485 1.414 . S
C484 C487 1.499 . S
C485 H459 0.950 . S
C485 C484 1.414 . S
C485 C486 1.374 . S
C486 H460 0.950 . S
C486 C482 1.385 . S
C486 C485 1.374 . S
C487 C484 1.499 . S
C487 C488 1.373 . S
C487 C489 1.389 . S
C488 H461 0.950 . S
C488 C474 1.377 . S
C488 C487 1.373 . S
C489 C473 1.377 . S
C489 C487 1.389 . S
C489 C490 1.524 . S
C490 C489 1.524 . S
C490 C491 1.397 . S
C490 C495 1.363 . S
C491 H462 0.950 . S
C491 C490 1.397 . S
C491 C492 1.334 . S
C492 H463 0.950 . S
C492 C491 1.334 . S
C492 C493 1.287 . S
C493 C492 1.287 . S
C493 C494 1.524 . S
C493 H496 0.999 . S
C494 H464 0.950 . S
C494 C493 1.524 . S
C494 C495 1.415 . S
C495 H465 0.950 . S
C495 C490 1.363 . S
C495 C494 1.415 . S
H496 C493 0.999 . S
H497 C478 0.913 . S
H498 C516 0.951 . S
H499 C518 0.951 . S
H500 C520 0.950 . S
H501 C521 0.950 . S
H502 C523 0.950 . S
H503 C526 0.950 . S
H504 C527 0.950 . S
H505 C529 0.950 . S
H506 C530 0.950 . S
H507 C531 0.951 . S
H508 C533 0.951 . S
H509 C535 0.950 . S
H510 C536 0.950 . S
H511 C538 0.950 . S
H512 C541 0.950 . S
H513 C542 0.950 . S
H514 C544 0.950 . S
H515 C545 0.950 . S
C516 H498 0.951 . S
C516 C517 1.366 . S
C516 C518 1.388 . S
C517 C516 1.366 . S
C517 C521 1.385 . S
C518 H499 0.951 . S
C518 C516 1.388 . S
C518 C519 1.366 . S
C519 C518 1.366 . S
C519 C520 1.414 . S
C519 C522 1.499 . S
C520 H500 0.950 . S
C520 C519 1.414 . S
C520 C521 1.374 . S
C521 H501 0.950 . S
C521 C517 1.385 . S
C521 C520 1.374 . S
C522 C519 1.499 . S
C522 C523 1.373 . S
C522 C524 1.389 . S
C523 H502 0.950 . S
C523 C522 1.373 . S
C523 C539 1.377 . S
C524 C522 1.389 . S
C524 C525 1.524 . S
C524 C538 1.377 . S
C525 C524 1.524 . S
C525 C526 1.397 . S
C525 C530 1.363 . S
C526 H503 0.950 . S
C526 C525 1.397 . S
C526 C527 1.334 . S
C527 H504 0.950 . S
C527 C526 1.334 . S
C527 C528 1.287 . S
C528 C527 1.287 . S
C528 C529 1.524 . S
C528 H547 0.913 . S
C529 H505 0.950 . S
C529 C528 1.524 . S
C529 C530 1.415 . S
C530 H506 0.950 . S
C530 C525 1.363 . S
C530 C529 1.415 . S
C531 H507 0.951 . S
C531 C532 1.366 . S
C531 C533 1.388 . S
C532 C531 1.366 . S
C532 C536 1.385 1_545 S
C533 H508 0.951 . S
C533 C531 1.388 . S
C533 C534 1.366 1_545 S
C534 C533 1.366 1_565 S
C534 C535 1.414 . S
C534 C537 1.499 . S
C535 H509 0.950 . S
C535 C534 1.414 . S
C535 C536 1.374 . S
C536 H510 0.950 . S
C536 C532 1.385 1_565 S
C536 C535 1.374 . S
C537 C534 1.499 . S
C537 C538 1.373 . S
C537 C539 1.389 . S
C538 H511 0.950 . S
C538 C524 1.377 . S
C538 C537 1.373 . S
C539 C523 1.377 . S
C539 C537 1.389 . S
C539 C540 1.524 . S
C540 C539 1.524 . S
C540 C541 1.397 . S
C540 C545 1.363 1_565 S
C541 H512 0.950 . S
C541 C540 1.397 . S
C541 C542 1.334 1_565 S
C542 H513 0.950 . S
C542 C541 1.334 1_545 S
C542 C543 1.287 . S
C543 C542 1.287 . S
C543 C544 1.524 . S
C543 H546 0.999 . S
C544 H514 0.950 . S
C544 C543 1.524 . S
C544 C545 1.415 . S
C545 H515 0.950 . S
C545 C540 1.363 1_545 S
C545 C544 1.415 . S
H546 C543 0.999 . S
H547 C528 0.913 . S
H548 C566 0.951 . S
H549 C568 0.951 . S
H550 C570 0.950 . S
H551 C571 0.950 . S
H552 C573 0.950 . S
H553 C576 0.950 . S
H554 C577 0.950 . S
H555 C579 0.950 . S
H556 C580 0.950 . S
H557 C581 0.951 1_554 S
H558 C583 0.951 . S
H559 C585 0.950 . S
H560 C586 0.950 . S
H561 C588 0.950 . S
H562 C591 0.950 . S
H563 C592 0.950 . S
H564 C594 0.950 . S
H565 C595 0.950 . S
C566 H548 0.951 . S
C566 C567 1.366 . S
C566 C568 1.388 . S
C567 C566 1.366 . S
C567 C571 1.385 . S
C568 H549 0.951 . S
C568 C566 1.388 . S
C568 C569 1.366 . S
C569 C568 1.366 . S
C569 C570 1.414 . S
C569 C572 1.499 . S
C570 H550 0.950 . S
C570 C569 1.414 . S
C570 C571 1.374 . S
C571 H551 0.950 . S
C571 C567 1.385 . S
C571 C570 1.374 . S
C572 C569 1.499 . S
C572 C573 1.373 . S
C572 C574 1.389 . S
C573 H552 0.950 . S
C573 C572 1.373 . S
C573 C589 1.377 . S
C574 C572 1.389 . S
C574 C575 1.524 . S
C574 C588 1.377 . S
C575 C574 1.524 . S
C575 C576 1.397 . S
C575 C580 1.363 . S
C576 H553 0.950 . S
C576 C575 1.397 . S
C576 C577 1.334 . S
C577 H554 0.950 . S
C577 C576 1.334 . S
C577 C578 1.287 . S
C578 C577 1.287 . S
C578 C579 1.524 . S
C578 H597 0.913 . S
C579 H555 0.950 . S
C579 C578 1.524 . S
C579 C580 1.415 . S
C580 H556 0.950 . S
C580 C575 1.363 . S
C580 C579 1.415 . S
C581 H557 0.951 1_556 S
C581 C582 1.366 . S
C581 C583 1.388 . S
C582 C581 1.366 . S
C582 C586 1.385 . S
C583 H558 0.951 . S
C583 C581 1.388 . S
C583 C584 1.366 . S
C584 C583 1.366 . S
C584 C585 1.414 . S
C584 C587 1.499 . S
C585 H559 0.950 . S
C585 C584 1.414 . S
C585 C586 1.374 . S
C586 H560 0.950 . S
C586 C582 1.385 . S
C586 C585 1.374 . S
C587 C584 1.499 . S
C587 C588 1.373 . S
C587 C589 1.389 . S
C588 H561 0.950 . S
C588 C574 1.377 . S
C588 C587 1.373 . S
C589 C573 1.377 . S
C589 C587 1.389 . S
C589 C590 1.524 . S
C590 C589 1.524 . S
C590 C591 1.397 . S
C590 C595 1.363 . S
C591 H562 0.950 . S
C591 C590 1.397 . S
C591 C592 1.334 . S
C592 H563 0.950 . S
C592 C591 1.334 . S
C592 C593 1.287 . S
C593 C592 1.287 . S
C593 C594 1.524 . S
C593 H596 0.999 . S
C594 H564 0.950 . S
C594 C593 1.524 . S
C594 C595 1.415 . S
C595 H565 0.950 . S
C595 C590 1.363 . S
C595 C594 1.415 . S
H596 C593 0.999 . S
H597 C578 0.913 . S
H598 C616 0.951 . S
H599 C618 0.951 . S
H600 C620 0.950 . S
H601 C621 0.950 . S
H602 C623 0.950 . S
H603 C626 0.950 . S
H604 C627 0.950 . S
H605 C629 0.950 . S
H606 C630 0.950 . S
H607 C631 0.951 . S
H608 C633 0.951 . S
H609 C635 0.950 . S
H610 C636 0.950 . S
H611 C638 0.950 . S
H612 C641 0.950 . S
H613 C642 0.950 . S
H614 C644 0.950 . S
H615 C645 0.950 . S
C616 H598 0.951 . S
C616 C617 1.366 . S
C616 C618 1.388 . S
C617 C616 1.366 . S
C617 C621 1.385 . S
C618 H599 0.951 . S
C618 C616 1.388 . S
C618 C619 1.366 . S
C619 C618 1.366 . S
C619 C620 1.414 . S
C619 C622 1.499 . S
C620 H600 0.950 . S
C620 C619 1.414 . S
C620 C621 1.374 . S
C621 H601 0.950 . S
C621 C617 1.385 . S
C621 C620 1.374 . S
C622 C619 1.499 . S
C622 C623 1.373 . S
C622 C624 1.389 . S
C623 H602 0.950 . S
C623 C622 1.373 . S
C623 C639 1.377 . S
C624 C622 1.389 . S
C624 C625 1.524 . S
C624 C638 1.377 . S
C625 C624 1.524 . S
C625 C626 1.397 . S
C625 C630 1.363 . S
C626 H603 0.950 . S
C626 C625 1.397 . S
C626 C627 1.334 . S
C627 H604 0.950 . S
C627 C626 1.334 . S
C627 C628 1.287 . S
C628 C627 1.287 . S
C628 C629 1.524 . S
C628 H647 0.913 . S
C629 H605 0.950 . S
C629 C628 1.524 . S
C629 C630 1.415 . S
C630 H606 0.950 . S
C630 C625 1.363 . S
C630 C629 1.415 . S
C631 H607 0.951 . S
C631 C632 1.366 . S
C631 C633 1.388 . S
C632 C631 1.366 . S
C632 C636 1.385 . S
C633 H608 0.951 . S
C633 C631 1.388 . S
C633 C634 1.366 . S
C634 C633 1.366 . S
C634 C635 1.414 . S
C634 C637 1.499 . S
C635 H609 0.950 . S
C635 C634 1.414 . S
C635 C636 1.374 . S
C636 H610 0.950 . S
C636 C632 1.385 . S
C636 C635 1.374 . S
C637 C634 1.499 . S
C637 C638 1.373 . S
C637 C639 1.389 . S
C638 H611 0.950 . S
C638 C624 1.377 . S
C638 C637 1.373 . S
C639 C623 1.377 . S
C639 C637 1.389 . S
C639 C640 1.524 . S
C640 C639 1.524 . S
C640 C641 1.397 . S
C640 C645 1.363 . S
C641 H612 0.950 . S
C641 C640 1.397 . S
C641 C642 1.334 . S
C642 H613 0.950 . S
C642 C641 1.334 . S
C642 C643 1.287 . S
C643 C642 1.287 . S
C643 C644 1.524 . S
C643 H646 0.999 . S
C644 H614 0.950 . S
C644 C643 1.524 . S
C644 C645 1.415 . S
C645 H615 0.950 . S
C645 C640 1.363 . S
C645 C644 1.415 . S
H646 C643 0.999 . S
H647 C628 0.913 . S
H648 C666 0.951 . S
H649 C668 0.951 . S
H650 C670 0.950 . S
H651 C671 0.950 . S
H652 C673 0.950 . S
H653 C676 0.950 . S
H654 C677 0.950 . S
H655 C679 0.950 . S
H656 C680 0.950 . S
H657 C681 0.951 . S
H658 C683 0.951 . S
H659 C685 0.950 . S
H660 C686 0.950 . S
H661 C688 0.950 . S
H662 C691 0.950 . S
H663 C692 0.950 . S
H664 C694 0.950 . S
H665 C695 0.950 . S
C666 H648 0.951 . S
C666 C667 1.366 . S
C666 C668 1.388 . S
C667 C666 1.366 . S
C667 C671 1.385 . S
C668 H649 0.951 . S
C668 C666 1.388 . S
C668 C669 1.366 . S
C669 C668 1.366 . S
C669 C670 1.414 . S
C669 C672 1.499 . S
C670 H650 0.950 . S
C670 C669 1.414 . S
C670 C671 1.374 . S
C671 H651 0.950 . S
C671 C667 1.385 . S
C671 C670 1.374 . S
C672 C669 1.499 . S
C672 C673 1.373 . S
C672 C674 1.389 . S
C673 H652 0.950 . S
C673 C672 1.373 . S
C673 C689 1.377 . S
C674 C672 1.389 . S
C674 C675 1.524 . S
C674 C688 1.377 . S
C675 C674 1.524 . S
C675 C676 1.397 . S
C675 C680 1.363 . S
C676 H653 0.950 . S
C676 C675 1.397 . S
C676 C677 1.334 . S
C677 H654 0.950 . S
C677 C676 1.334 . S
C677 C678 1.287 . S
C678 C677 1.287 . S
C678 C679 1.524 . S
C678 H697 0.913 . S
C679 H655 0.950 . S
C679 C678 1.524 . S
C679 C680 1.415 . S
C680 H656 0.950 . S
C680 C675 1.363 . S
C680 C679 1.415 . S
C681 H657 0.951 . S
C681 C682 1.366 . S
C681 C683 1.388 . S
C682 C681 1.366 . S
C682 C686 1.385 . S
C683 H658 0.951 . S
C683 C681 1.388 . S
C683 C684 1.366 . S
C684 C683 1.366 . S
C684 C685 1.414 . S
C684 C687 1.499 . S
C685 H659 0.950 . S
C685 C684 1.414 . S
C685 C686 1.374 . S
C686 H660 0.950 . S
C686 C682 1.385 . S
C686 C685 1.374 . S
C687 C684 1.499 . S
C687 C688 1.373 . S
C687 C689 1.389 . S
C688 H661 0.950 . S
C688 C674 1.377 . S
C688 C687 1.373 . S
C689 C673 1.377 . S
C689 C687 1.389 . S
C689 C690 1.524 . S
C690 C689 1.524 . S
C690 C691 1.397 . S
C690 C695 1.363 . S
C691 H662 0.950 . S
C691 C690 1.397 . S
C691 C692 1.334 . S
C692 H663 0.950 . S
C692 C691 1.334 . S
C692 C693 1.287 . S
C693 C692 1.287 . S
C693 C694 1.524 . S
C693 H696 0.999 . S
C694 H664 0.950 . S
C694 C693 1.524 . S
C694 C695 1.415 . S
C695 H665 0.950 . S
C695 C690 1.363 . S
C695 C694 1.415 . S
H696 C693 0.999 . S
H697 C678 0.913 . S
H698 C716 0.951 . S
H699 C718 0.951 . S
H700 C720 0.950 . S
H701 C721 0.950 . S
H702 C723 0.950 . S
H703 C726 0.950 . S
H704 C727 0.950 . S
H705 C729 0.950 . S
H706 C730 0.950 . S
H707 C731 0.951 . S
H708 C733 0.951 . S
H709 C735 0.950 . S
H710 C736 0.950 . S
H711 C738 0.950 . S
H712 C741 0.950 . S
H713 C742 0.950 . S
H714 C744 0.950 . S
H715 C745 0.950 . S
C716 H698 0.951 . S
C716 C717 1.366 . S
C716 C718 1.388 . S
C717 C716 1.366 . S
C717 C721 1.385 . S
C718 H699 0.951 . S
C718 C716 1.388 . S
C718 C719 1.366 . S
C719 C718 1.366 . S
C719 C720 1.414 . S
C719 C722 1.499 . S
C720 H700 0.950 . S
C720 C719 1.414 . S
C720 C721 1.374 . S
C721 H701 0.950 . S
C721 C717 1.385 . S
C721 C720 1.374 . S
C722 C719 1.499 . S
C722 C723 1.373 . S
C722 C724 1.389 . S
C723 H702 0.950 . S
C723 C722 1.373 . S
C723 C739 1.377 . S
C724 C722 1.389 . S
C724 C725 1.524 . S
C724 C738 1.377 . S
C725 C724 1.524 . S
C725 C726 1.397 . S
C725 C730 1.363 . S
C726 H703 0.950 . S
C726 C725 1.397 . S
C726 C727 1.334 . S
C727 H704 0.950 . S
C727 C726 1.334 . S
C727 C728 1.287 . S
C728 C727 1.287 . S
C728 C729 1.524 . S
C728 H747 0.913 . S
C729 H705 0.950 . S
C729 C728 1.524 . S
C729 C730 1.415 . S
C730 H706 0.950 . S
C730 C725 1.363 . S
C730 C729 1.415 . S
C731 H707 0.951 . S
C731 C732 1.368 . S
C731 C733 1.388 1_554 S
C732 C731 1.368 . S
C732 C736 1.369 1_554 S
C733 H708 0.951 . S
C733 C731 1.388 1_556 S
C733 C734 1.366 . S
C734 C733 1.366 . S
C734 C735 1.414 . S
C734 C737 1.499 . S
C735 H709 0.950 . S
C735 C734 1.414 . S
C735 C736 1.374 . S
C736 H710 0.950 . S
C736 C732 1.369 1_556 S
C736 C735 1.374 . S
C737 C734 1.499 . S
C737 C738 1.373 . S
C737 C739 1.389 . S
C738 H711 0.950 . S
C738 C724 1.377 . S
C738 C737 1.373 . S
C739 C723 1.377 . S
C739 C737 1.389 . S
C739 C740 1.524 . S
C740 C739 1.524 . S
C740 C741 1.397 . S
C740 C745 1.363 . S
C741 H712 0.950 . S
C741 C740 1.397 . S
C741 C742 1.334 . S
C742 H713 0.950 . S
C742 C741 1.334 . S
C742 C743 1.287 . S
C743 C742 1.287 . S
C743 C744 1.524 . S
C743 H746 0.999 . S
C744 H714 0.950 . S
C744 C743 1.524 . S
C744 C745 1.415 . S
C745 H715 0.950 . S
C745 C740 1.363 . S
C745 C744 1.415 . S
H746 C743 0.999 . S
H747 C728 0.913 . S
H748 C766 0.951 . S
H749 C768 0.951 . S
H750 C770 0.950 . S
H751 C771 0.950 . S
H752 C773 0.950 . S
H753 C776 0.950 . S
H754 C777 0.950 . S
H755 C779 0.950 . S
H756 C780 0.950 . S
H757 C781 0.951 . S
H758 C783 0.951 . S
H759 C785 0.950 . S
H760 C786 0.950 . S
H761 C788 0.950 . S
H762 C791 0.950 . S
H763 C792 0.950 . S
H764 C794 0.950 . S
H765 C795 0.950 . S
C766 H748 0.951 . S
C766 C767 1.366 . S
C766 C768 1.388 . S
C767 C766 1.366 . S
C767 C771 1.385 . S
C768 H749 0.951 . S
C768 C766 1.388 . S
C768 C769 1.366 . S
C769 C768 1.366 . S
C769 C770 1.414 . S
C769 C772 1.499 . S
C770 H750 0.950 . S
C770 C769 1.414 . S
C770 C771 1.374 . S
C771 H751 0.950 . S
C771 C767 1.385 . S
C771 C770 1.374 . S
C772 C769 1.499 . S
C772 C773 1.373 . S
C772 C774 1.389 . S
C773 H752 0.950 . S
C773 C772 1.373 . S
C773 C789 1.377 . S
C774 C772 1.389 . S
C774 C775 1.524 . S
C774 C788 1.377 . S
C775 C774 1.524 . S
C775 C776 1.397 . S
C775 C780 1.363 . S
C776 H753 0.950 . S
C776 C775 1.397 . S
C776 C777 1.334 . S
C777 H754 0.950 . S
C777 C776 1.334 . S
C777 C778 1.287 . S
C778 C777 1.287 . S
C778 C779 1.524 . S
C778 H797 0.910 1_655 S
C779 H755 0.950 . S
C779 C778 1.524 . S
C779 C780 1.415 . S
C780 H756 0.950 . S
C780 C775 1.363 . S
C780 C779 1.415 . S
C781 H757 0.951 . S
C781 C782 1.366 . S
C781 C783 1.388 . S
C782 C781 1.366 . S
C782 C786 1.385 . S
C783 H758 0.951 . S
C783 C781 1.388 . S
C783 C784 1.366 . S
C784 C783 1.366 . S
C784 C785 1.414 . S
C784 C787 1.499 . S
C785 H759 0.950 . S
C785 C784 1.414 . S
C785 C786 1.374 . S
C786 H760 0.950 . S
C786 C782 1.385 . S
C786 C785 1.374 . S
C787 C784 1.499 . S
C787 C788 1.373 . S
C787 C789 1.389 . S
C788 H761 0.950 . S
C788 C774 1.377 . S
C788 C787 1.373 . S
C789 C773 1.377 . S
C789 C787 1.389 . S
C789 C790 1.524 . S
C790 C789 1.524 . S
C790 C791 1.397 . S
C790 C795 1.363 . S
C791 H762 0.950 . S
C791 C790 1.397 . S
C791 C792 1.334 . S
C792 H763 0.950 . S
C792 C791 1.334 . S
C792 C793 1.287 . S
C793 C792 1.287 . S
C793 C794 1.524 . S
C793 H796 0.999 . S
C794 H764 0.950 . S
C794 C793 1.524 . S
C794 C795 1.415 . S
C795 H765 0.950 . S
C795 C790 1.363 . S
C795 C794 1.415 . S
H796 C793 0.999 . S
H797 C778 0.910 1_455 S
H798 C816 0.951 . S
H799 C818 0.951 . S
H800 C820 0.950 . S
H801 C821 0.950 . S
H802 C823 0.950 . S
H803 C826 0.950 . S
H804 C827 0.950 . S
H805 C829 0.950 . S
H806 C830 0.950 . S
H807 C831 0.951 . S
H808 C833 0.951 . S
H809 C835 0.950 . S
H810 C836 0.950 . S
H811 C838 0.950 . S
H812 C841 0.950 . S
H813 C842 0.950 . S
H814 C844 0.950 . S
H815 C845 0.950 . S
C816 H798 0.951 . S
C816 C817 1.366 . S
C816 C818 1.388 . S
C817 C816 1.366 . S
C817 C821 1.385 . S
C818 H799 0.951 . S
C818 C816 1.388 . S
C818 C819 1.366 . S
C819 C818 1.366 . S
C819 C820 1.414 . S
C819 C822 1.499 . S
C820 H800 0.950 . S
C820 C819 1.414 . S
C820 C821 1.374 . S
C821 H801 0.950 . S
C821 C817 1.385 . S
C821 C820 1.374 . S
C822 C819 1.499 . S
C822 C823 1.373 . S
C822 C824 1.389 . S
C823 H802 0.950 . S
C823 C822 1.373 . S
C823 C839 1.377 . S
C824 C822 1.389 . S
C824 C825 1.524 . S
C824 C838 1.377 . S
C825 C824 1.524 . S
C825 C826 1.397 . S
C825 C830 1.363 . S
C826 H803 0.950 . S
C826 C825 1.397 . S
C826 C827 1.334 . S
C827 H804 0.950 . S
C827 C826 1.334 . S
C827 C828 1.287 . S
C828 C827 1.287 . S
C828 C829 1.524 . S
C828 H847 0.913 . S
C829 H805 0.950 . S
C829 C828 1.524 . S
C829 C830 1.415 . S
C830 H806 0.950 . S
C830 C825 1.363 . S
C830 C829 1.415 . S
C831 H807 0.951 . S
C831 C832 1.366 . S
C831 C833 1.388 . S
C832 C831 1.366 . S
C832 C836 1.385 . S
C833 H808 0.951 . S
C833 C831 1.388 . S
C833 C834 1.366 . S
C834 C833 1.366 . S
C834 C835 1.414 . S
C834 C837 1.499 . S
C835 H809 0.950 . S
C835 C834 1.414 . S
C835 C836 1.374 . S
C836 H810 0.950 . S
C836 C832 1.385 . S
C836 C835 1.374 . S
C837 C834 1.499 . S
C837 C838 1.373 . S
C837 C839 1.389 . S
C838 H811 0.950 . S
C838 C824 1.377 . S
C838 C837 1.373 . S
C839 C823 1.377 . S
C839 C837 1.389 . S
C839 C840 1.524 . S
C840 C839 1.524 . S
C840 C841 1.397 . S
C840 C845 1.363 . S
C841 H812 0.950 . S
C841 C840 1.397 . S
C841 C842 1.334 . S
C842 H813 0.950 . S
C842 C841 1.334 . S
C842 C843 1.287 . S
C843 C842 1.287 . S
C843 C844 1.524 . S
C843 H846 0.999 . S
C844 H814 0.950 . S
C844 C843 1.524 . S
C844 C845 1.415 . S
C845 H815 0.950 . S
C845 C840 1.363 . S
C845 C844 1.415 . S
H846 C843 0.999 . S
H847 C828 0.913 . S
H848 C866 0.951 . S
H849 C868 0.951 . S
H850 C870 0.950 . S
H851 C871 0.950 . S
H852 C873 0.950 . S
H853 C876 0.950 . S
H854 C877 0.950 . S
H855 C879 0.950 . S
H856 C880 0.950 . S
H857 C881 0.951 . S
H858 C883 0.951 . S
H859 C885 0.950 . S
H860 C886 0.950 . S
H861 C888 0.950 . S
H862 C891 0.950 . S
H863 C892 0.950 . S
H864 C894 0.950 . S
H865 C895 0.950 . S
C866 H848 0.951 . S
C866 C867 1.366 . S
C866 C868 1.388 . S
C867 C866 1.366 . S
C867 C871 1.385 . S
C868 H849 0.951 . S
C868 C866 1.388 . S
C868 C869 1.366 . S
C869 C868 1.366 . S
C869 C870 1.414 . S
C869 C872 1.499 . S
C870 H850 0.950 . S
C870 C869 1.414 . S
C870 C871 1.374 . S
C871 H851 0.950 . S
C871 C867 1.385 . S
C871 C870 1.374 . S
C872 C869 1.499 . S
C872 C873 1.373 . S
C872 C874 1.389 . S
C873 H852 0.950 . S
C873 C872 1.373 . S
C873 C889 1.377 . S
C874 C872 1.389 . S
C874 C875 1.524 . S
C874 C888 1.377 . S
C875 C874 1.524 . S
C875 C876 1.397 . S
C875 C880 1.363 . S
C876 H853 0.950 . S
C876 C875 1.397 . S
C876 C877 1.334 . S
C877 H854 0.950 . S
C877 C876 1.334 . S
C877 C878 1.287 . S
C878 C877 1.287 . S
C878 C879 1.524 . S
C878 H897 0.913 . S
C879 H855 0.950 . S
C879 C878 1.524 . S
C879 C880 1.415 . S
C880 H856 0.950 . S
C880 C875 1.363 . S
C880 C879 1.415 . S
C881 H857 0.951 . S
C881 C882 1.366 . S
C881 C883 1.388 . S
C882 C881 1.366 . S
C882 C886 1.385 . S
C883 H858 0.951 . S
C883 C881 1.388 . S
C883 C884 1.366 . S
C884 C883 1.366 . S
C884 C885 1.414 . S
C884 C887 1.499 . S
C885 H859 0.950 . S
C885 C884 1.414 . S
C885 C886 1.374 . S
C886 H860 0.950 . S
C886 C882 1.385 . S
C886 C885 1.374 . S
C887 C884 1.499 . S
C887 C888 1.373 . S
C887 C889 1.389 . S
C888 H861 0.950 . S
C888 C874 1.377 . S
C888 C887 1.373 . S
C889 C873 1.377 . S
C889 C887 1.389 . S
C889 C890 1.524 . S
C890 C889 1.524 . S
C890 C891 1.397 . S
C890 C895 1.363 . S
C891 H862 0.950 . S
C891 C890 1.397 . S
C891 C892 1.334 . S
C892 H863 0.950 . S
C892 C891 1.334 . S
C892 C893 1.287 . S
C893 C892 1.287 . S
C893 C894 1.524 . S
C893 H896 0.999 . S
C894 H864 0.950 . S
C894 C893 1.524 . S
C894 C895 1.415 . S
C895 H865 0.950 . S
C895 C890 1.363 . S
C895 C894 1.415 . S
H896 C893 0.999 . S
H897 C878 0.913 . S
H898 C916 0.951 . S
H899 C918 0.951 . S
H900 C920 0.950 . S
H901 C921 0.950 . S
H902 C923 0.950 . S
H903 C926 0.950 . S
H904 C927 0.950 . S
H905 C929 0.950 . S
H906 C930 0.950 . S
H907 C931 0.951 . S
H908 C933 0.951 . S
H909 C935 0.950 . S
H910 C936 0.950 . S
H911 C938 0.950 . S
H912 C941 0.950 . S
H913 C942 0.950 . S
H914 C944 0.950 . S
H915 C945 0.950 . S
C916 H898 0.951 . S
C916 C917 1.366 . S
C916 C918 1.388 . S
C917 C916 1.366 . S
C917 C921 1.385 . S
C918 H899 0.951 . S
C918 C916 1.388 . S
C918 C919 1.366 . S
C919 C918 1.366 . S
C919 C920 1.414 . S
C919 C922 1.499 . S
C920 H900 0.950 . S
C920 C919 1.414 . S
C920 C921 1.374 . S
C921 H901 0.950 . S
C921 C917 1.385 . S
C921 C920 1.374 . S
C922 C919 1.499 . S
C922 C923 1.373 . S
C922 C924 1.389 . S
C923 H902 0.950 . S
C923 C922 1.373 . S
C923 C939 1.377 . S
C924 C922 1.389 . S
C924 C925 1.524 . S
C924 C938 1.377 . S
C925 C924 1.524 . S
C925 C926 1.397 . S
C925 C930 1.363 . S
C926 H903 0.950 . S
C926 C925 1.397 . S
C926 C927 1.334 . S
C927 H904 0.950 . S
C927 C926 1.334 . S
C927 C928 1.287 . S
C928 C927 1.287 . S
C928 C929 1.524 . S
C928 H947 0.913 . S
C929 H905 0.950 . S
C929 C928 1.524 . S
C929 C930 1.415 . S
C930 H906 0.950 . S
C930 C925 1.363 . S
C930 C929 1.415 . S
C931 H907 0.951 . S
C931 C932 1.366 . S
C931 C933 1.388 . S
C932 C931 1.366 . S
C932 C936 1.385 . S
C933 H908 0.951 . S
C933 C931 1.388 . S
C933 C934 1.366 . S
C934 C933 1.366 . S
C934 C935 1.414 . S
C934 C937 1.499 . S
C935 H909 0.950 . S
C935 C934 1.414 . S
C935 C936 1.374 . S
C936 H910 0.950 . S
C936 C932 1.385 . S
C936 C935 1.374 . S
C937 C934 1.499 . S
C937 C938 1.373 . S
C937 C939 1.389 . S
C938 H911 0.950 . S
C938 C924 1.377 . S
C938 C937 1.373 . S
C939 C923 1.377 . S
C939 C937 1.389 . S
C939 C940 1.524 . S
C940 C939 1.524 . S
C940 C941 1.397 . S
C940 C945 1.363 . S
C941 H912 0.950 . S
C941 C940 1.397 . S
C941 C942 1.334 . S
C942 H913 0.950 . S
C942 C941 1.334 . S
C942 C943 1.287 . S
C943 C942 1.287 . S
C943 C944 1.524 . S
C943 H946 0.999 . S
C944 H914 0.950 . S
C944 C943 1.524 . S
C944 C945 1.415 . S
C945 H915 0.950 . S
C945 C940 1.363 . S
C945 C944 1.415 . S
H946 C943 0.999 . S
H947 C928 0.913 . S
H948 C966 0.951 . S
H949 C968 0.951 . S
H950 C970 0.950 . S
H951 C971 0.950 . S
H952 C973 0.950 . S
H953 C976 0.950 . S
H954 C977 0.950 . S
H955 C979 0.950 . S
H956 C980 0.950 . S
H957 C981 0.951 . S
H958 C983 0.951 . S
H959 C985 0.950 . S
H960 C986 0.950 . S
H961 C988 0.950 . S
H962 C991 0.950 . S
H963 C992 0.950 . S
H964 C994 0.950 . S
H965 C995 0.950 . S
C966 H948 0.951 . S
C966 C967 1.366 . S
C966 C968 1.388 . S
C967 C966 1.366 . S
C967 C971 1.385 . S
C968 H949 0.951 . S
C968 C966 1.388 . S
C968 C969 1.366 . S
C969 C968 1.366 . S
C969 C970 1.414 . S
C969 C972 1.499 . S
C970 H950 0.950 . S
C970 C969 1.414 . S
C970 C971 1.374 . S
C971 H951 0.950 . S
C971 C967 1.385 . S
C971 C970 1.374 . S
C972 C969 1.499 . S
C972 C973 1.373 . S
C972 C974 1.389 . S
C973 H952 0.950 . S
C973 C972 1.373 . S
C973 C989 1.377 . S
C974 C972 1.389 . S
C974 C975 1.524 . S
C974 C988 1.377 . S
C975 C974 1.524 . S
C975 C976 1.397 . S
C975 C980 1.363 . S
C976 H953 0.950 . S
C976 C975 1.397 . S
C976 C977 1.334 . S
C977 H954 0.950 . S
C977 C976 1.334 . S
C977 C978 1.287 . S
C978 C977 1.287 . S
C978 C979 1.524 . S
C978 H997 0.913 . S
C979 H955 0.950 . S
C979 C978 1.524 . S
C979 C980 1.415 . S
C980 H956 0.950 . S
C980 C975 1.363 . S
C980 C979 1.415 . S
C981 H957 0.951 . S
C981 C982 1.366 . S
C981 C983 1.388 . S
C982 C981 1.366 . S
C982 C986 1.385 . S
C983 H958 0.951 . S
C983 C981 1.388 . S
C983 C984 1.366 . S
C984 C983 1.366 . S
C984 C985 1.414 . S
C984 C987 1.499 . S
C985 H959 0.950 . S
C985 C984 1.414 . S
C985 C986 1.374 . S
C986 H960 0.950 . S
C986 C982 1.385 . S
C986 C985 1.374 . S
C987 C984 1.499 . S
C987 C988 1.373 . S
C987 C989 1.389 . S
C988 H961 0.950 . S
C988 C974 1.377 . S
C988 C987 1.373 . S
C989 C973 1.377 . S
C989 C987 1.389 . S
C989 C990 1.524 . S
C990 C989 1.524 . S
C990 C991 1.397 . S
C990 C995 1.363 . S
C991 H962 0.950 . S
C991 C990 1.397 . S
C991 C992 1.334 . S
C992 H963 0.950 . S
C992 C991 1.334 . S
C992 C993 1.287 . S
C993 C992 1.287 . S
C993 C994 1.524 . S
C993 H996 0.999 . S
C994 H964 0.950 . S
C994 C993 1.524 . S
C994 C995 1.415 . S
C995 H965 0.950 . S
C995 C990 1.363 . S
C995 C994 1.415 . S
H996 C993 0.999 . S
H997 C978 0.913 . S
H998 C1016 0.951 . S
H999 C1018 0.951 . S
H1000 C1020 0.950 . S
H1001 C1021 0.950 . S
H1002 C1023 0.950 . S
H1003 C1026 0.950 . S
H1004 C1027 0.950 . S
H1005 C1029 0.950 . S
H1006 C1030 0.950 . S
H1007 C1031 0.951 . S
H1008 C1033 0.951 . S
H1009 C1035 0.950 . S
H1010 C1036 0.950 . S
H1011 C1038 0.950 . S
H1012 C1041 0.950 . S
H1013 C1042 0.950 . S
H1014 C1044 0.950 . S
H1015 C1045 0.950 . S
C1016 H998 0.951 . S
C1016 C1017 1.366 . S
C1016 C1018 1.388 . S
C1017 C1016 1.366 . S
C1017 C1021 1.385 . S
C1018 H999 0.951 . S
C1018 C1016 1.388 . S
C1018 C1019 1.366 . S
C1019 C1018 1.366 . S
C1019 C1020 1.414 . S
C1019 C1022 1.499 . S
C1020 H1000 0.950 . S
C1020 C1019 1.414 . S
C1020 C1021 1.374 . S
C1021 H1001 0.950 . S
C1021 C1017 1.385 . S
C1021 C1020 1.374 . S
C1022 C1019 1.499 . S
C1022 C1023 1.373 . S
C1022 C1024 1.389 . S
C1023 H1002 0.950 . S
C1023 C1022 1.373 . S
C1023 C1039 1.377 . S
C1024 C1022 1.389 . S
C1024 C1025 1.524 . S
C1024 C1038 1.377 . S
C1025 C1024 1.524 . S
C1025 C1026 1.397 . S
C1025 C1030 1.363 . S
C1026 H1003 0.950 . S
C1026 C1025 1.397 . S
C1026 C1027 1.334 . S
C1027 H1004 0.950 . S
C1027 C1026 1.334 . S
C1027 C1028 1.287 . S
C1028 C1027 1.287 . S
C1028 C1029 1.524 . S
C1028 H1047 0.913 . S
C1029 H1005 0.950 . S
C1029 C1028 1.524 . S
C1029 C1030 1.415 . S
C1030 H1006 0.950 . S
C1030 C1025 1.363 . S
C1030 C1029 1.415 . S
C1031 H1007 0.951 . S
C1031 C1032 1.366 . S
C1031 C1033 1.388 . S
C1032 C1031 1.366 . S
C1032 C1036 1.385 . S
C1033 H1008 0.951 . S
C1033 C1031 1.388 . S
C1033 C1034 1.366 . S
C1034 C1033 1.366 . S
C1034 C1035 1.414 . S
C1034 C1037 1.499 . S
C1035 H1009 0.950 . S
C1035 C1034 1.414 . S
C1035 C1036 1.374 . S
C1036 H1010 0.950 . S
C1036 C1032 1.385 . S
C1036 C1035 1.374 . S
C1037 C1034 1.499 . S
C1037 C1038 1.373 . S
C1037 C1039 1.389 . S
C1038 H1011 0.950 . S
C1038 C1024 1.377 . S
C1038 C1037 1.373 . S
C1039 C1023 1.377 . S
C1039 C1037 1.389 . S
C1039 C1040 1.524 . S
C1040 C1039 1.524 . S
C1040 C1041 1.397 . S
C1040 C1045 1.363 . S
C1041 H1012 0.950 . S
C1041 C1040 1.397 . S
C1041 C1042 1.334 . S
C1042 H1013 0.950 . S
C1042 C1041 1.334 . S
C1042 C1043 1.287 . S
C1043 C1042 1.287 . S
C1043 C1044 1.524 . S
C1043 H1046 0.999 . S
C1044 H1014 0.950 . S
C1044 C1043 1.524 . S
C1044 C1045 1.415 . S
C1045 H1015 0.950 . S
C1045 C1040 1.363 . S
C1045 C1044 1.415 . S
H1046 C1043 0.999 . S
H1047 C1028 0.913 . S
H1048 C1066 0.951 . S
H1049 C1068 0.951 . S
H1050 C1070 0.950 . S
H1051 C1071 0.950 . S
H1052 C1073 0.950 . S
H1053 C1076 0.950 . S
H1054 C1077 0.950 . S
H1055 C1079 0.950 . S
H1056 C1080 0.950 . S
H1057 C1081 0.951 . S
H1058 C1083 0.951 . S
H1059 C1085 0.950 . S
H1060 C1086 0.950 1_554 S
H1061 C1088 0.950 . S
H1062 C1091 0.950 . S
H1063 C1092 0.950 1_554 S
H1064 C1094 0.950 . S
H1065 C1095 0.950 . S
C1066 H1048 0.951 . S
C1066 C1067 1.366 . S
C1066 C1068 1.388 . S
C1067 C1066 1.366 . S
C1067 C1071 1.385 . S
C1068 H1049 0.951 . S
C1068 C1066 1.388 . S
C1068 C1069 1.366 . S
C1069 C1068 1.366 . S
C1069 C1070 1.414 . S
C1069 C1072 1.499 . S
C1070 H1050 0.950 . S
C1070 C1069 1.414 . S
C1070 C1071 1.374 . S
C1071 H1051 0.950 . S
C1071 C1067 1.385 . S
C1071 C1070 1.374 . S
C1072 C1069 1.499 . S
C1072 C1073 1.373 . S
C1072 C1074 1.389 . S
C1073 H1052 0.950 . S
C1073 C1072 1.373 . S
C1073 C1089 1.377 . S
C1074 C1072 1.389 . S
C1074 C1075 1.524 . S
C1074 C1088 1.377 . S
C1075 C1074 1.524 . S
C1075 C1076 1.397 . S
C1075 C1080 1.363 . S
C1076 H1053 0.950 . S
C1076 C1075 1.397 . S
C1076 C1077 1.334 . S
C1077 H1054 0.950 . S
C1077 C1076 1.334 . S
C1077 C1078 1.287 . S
C1078 C1077 1.287 . S
C1078 C1079 1.524 . S
C1078 H1097 0.913 . S
C1079 H1055 0.950 . S
C1079 C1078 1.524 . S
C1079 C1080 1.415 . S
C1080 H1056 0.950 . S
C1080 C1075 1.363 . S
C1080 C1079 1.415 . S
C1081 H1057 0.951 . S
C1081 C1082 1.366 . S
C1081 C1083 1.388 . S
C1082 C1081 1.366 . S
C1082 C1086 1.385 . S
C1083 H1058 0.951 . S
C1083 C1081 1.388 . S
C1083 C1084 1.366 . S
C1084 C1083 1.366 . S
C1084 C1085 1.414 . S
C1084 C1087 1.499 . S
C1085 H1059 0.950 . S
C1085 C1084 1.414 . S
C1085 C1086 1.374 . S
C1086 H1060 0.950 1_556 S
C1086 C1082 1.385 . S
C1086 C1085 1.374 . S
C1087 C1084 1.499 . S
C1087 C1088 1.373 . S
C1087 C1089 1.389 . S
C1088 H1061 0.950 . S
C1088 C1074 1.377 . S
C1088 C1087 1.373 . S
C1089 C1073 1.377 . S
C1089 C1087 1.389 . S
C1089 C1090 1.524 . S
C1090 C1089 1.524 . S
C1090 C1091 1.397 . S
C1090 C1095 1.363 . S
C1091 H1062 0.950 . S
C1091 C1090 1.397 . S
C1091 C1092 1.334 . S
C1092 H1063 0.950 1_556 S
C1092 C1091 1.334 . S
C1092 C1093 1.287 . S
C1093 C1092 1.287 . S
C1093 C1094 1.524 . S
C1093 H1096 0.999 . S
C1094 H1064 0.950 . S
C1094 C1093 1.524 . S
C1094 C1095 1.415 . S
C1095 H1065 0.950 . S
C1095 C1090 1.363 . S
C1095 C1094 1.415 . S
H1096 C1093 0.999 . S
H1097 C1078 0.913 . S
H1098 C1116 0.951 . S
H1099 C1118 0.951 . S
H1100 C1120 0.950 . S
H1101 C1121 0.950 . S
H1102 C1123 0.950 . S
H1103 C1126 0.950 . S
H1104 C1127 0.950 . S
H1105 C1129 0.950 . S
H1106 C1130 0.950 . S
H1107 C1131 0.951 . S
H1108 C1133 0.951 . S
H1109 C1135 0.950 . S
H1110 C1136 0.950 . S
H1111 C1138 0.950 . S
H1112 C1141 0.950 . S
H1113 C1142 0.950 . S
H1114 C1144 0.950 . S
H1115 C1145 0.950 . S
C1116 H1098 0.951 . S
C1116 C1117 1.366 . S
C1116 C1118 1.388 . S
C1117 C1116 1.366 . S
C1117 C1121 1.385 . S
C1118 H1099 0.951 . S
C1118 C1116 1.388 . S
C1118 C1119 1.366 . S
C1119 C1118 1.366 . S
C1119 C1120 1.414 . S
C1119 C1122 1.499 . S
C1120 H1100 0.950 . S
C1120 C1119 1.414 . S
C1120 C1121 1.374 . S
C1121 H1101 0.950 . S
C1121 C1117 1.385 . S
C1121 C1120 1.374 . S
C1122 C1119 1.499 . S
C1122 C1123 1.373 . S
C1122 C1124 1.389 . S
C1123 H1102 0.950 . S
C1123 C1122 1.373 . S
C1123 C1139 1.377 . S
C1124 C1122 1.389 . S
C1124 C1125 1.524 . S
C1124 C1138 1.377 . S
C1125 C1124 1.524 . S
C1125 C1126 1.397 . S
C1125 C1130 1.363 . S
C1126 H1103 0.950 . S
C1126 C1125 1.397 . S
C1126 C1127 1.334 . S
C1127 H1104 0.950 . S
C1127 C1126 1.334 . S
C1127 C1128 1.287 . S
C1128 C1127 1.287 . S
C1128 C1129 1.524 . S
C1128 H1147 0.913 . S
C1129 H1105 0.950 . S
C1129 C1128 1.524 . S
C1129 C1130 1.415 . S
C1130 H1106 0.950 . S
C1130 C1125 1.363 . S
C1130 C1129 1.415 . S
C1131 H1107 0.951 . S
C1131 C1132 1.366 . S
C1131 C1133 1.388 . S
C1132 C1131 1.366 . S
C1132 C1136 1.385 . S
C1133 H1108 0.951 . S
C1133 C1131 1.388 . S
C1133 C1134 1.366 . S
C1134 C1133 1.366 . S
C1134 C1135 1.414 . S
C1134 C1137 1.499 . S
C1135 H1109 0.950 . S
C1135 C1134 1.414 . S
C1135 C1136 1.374 . S
C1136 H1110 0.950 . S
C1136 C1132 1.385 . S
C1136 C1135 1.374 . S
C1137 C1134 1.499 . S
C1137 C1138 1.373 . S
C1137 C1139 1.389 . S
C1138 H1111 0.950 . S
C1138 C1124 1.377 . S
C1138 C1137 1.373 . S
C1139 C1123 1.377 . S
C1139 C1137 1.389 . S
C1139 C1140 1.524 . S
C1140 C1139 1.524 . S
C1140 C1141 1.397 . S
C1140 C1145 1.363 . S
C1141 H1112 0.950 . S
C1141 C1140 1.397 . S
C1141 C1142 1.334 . S
C1142 H1113 0.950 . S
C1142 C1141 1.334 . S
C1142 C1143 1.287 . S
C1143 C1142 1.287 . S
C1143 C1144 1.524 . S
C1143 H1146 0.999 . S
C1144 H1114 0.950 . S
C1144 C1143 1.524 . S
C1144 C1145 1.415 . S
C1145 H1115 0.950 . S
C1145 C1140 1.363 . S
C1145 C1144 1.415 . S
H1146 C1143 0.999 . S
H1147 C1128 0.913 . S
H1148 C1166 0.951 . S
H1149 C1168 0.951 . S
H1150 C1170 0.950 . S
H1151 C1171 0.950 . S
H1152 C1173 0.950 . S
H1153 C1176 0.950 . S
H1154 C1177 0.950 . S
H1155 C1179 0.950 . S
H1156 C1180 0.950 . S
H1157 C1181 0.951 . S
H1158 C1183 0.951 . S
H1159 C1185 0.950 . S
H1160 C1186 0.950 . S
H1161 C1188 0.950 . S
H1162 C1191 0.950 . S
H1163 C1192 0.950 . S
H1164 C1194 0.950 . S
H1165 C1195 0.950 . S
C1166 H1148 0.951 . S
C1166 C1167 1.366 . S
C1166 C1168 1.388 . S
C1167 C1166 1.366 . S
C1167 C1171 1.385 . S
C1168 H1149 0.951 . S
C1168 C1166 1.388 . S
C1168 C1169 1.366 . S
C1169 C1168 1.366 . S
C1169 C1170 1.414 . S
C1169 C1172 1.499 . S
C1170 H1150 0.950 . S
C1170 C1169 1.414 . S
C1170 C1171 1.374 . S
C1171 H1151 0.950 . S
C1171 C1167 1.385 . S
C1171 C1170 1.374 . S
C1172 C1169 1.499 . S
C1172 C1173 1.373 . S
C1172 C1174 1.389 . S
C1173 H1152 0.950 . S
C1173 C1172 1.373 . S
C1173 C1189 1.377 . S
C1174 C1172 1.389 . S
C1174 C1175 1.524 . S
C1174 C1188 1.377 . S
C1175 C1174 1.524 . S
C1175 C1176 1.397 . S
C1175 C1180 1.363 . S
C1176 H1153 0.950 . S
C1176 C1175 1.397 . S
C1176 C1177 1.334 . S
C1177 H1154 0.950 . S
C1177 C1176 1.334 . S
C1177 C1178 1.287 . S
C1178 C1177 1.287 . S
C1178 C1179 1.524 . S
C1178 H1197 0.913 . S
C1179 H1155 0.950 . S
C1179 C1178 1.524 . S
C1179 C1180 1.415 . S
C1180 H1156 0.950 . S
C1180 C1175 1.363 . S
C1180 C1179 1.415 . S
C1181 H1157 0.951 . S
C1181 C1182 1.366 . S
C1181 C1183 1.388 . S
C1182 C1181 1.366 . S
C1182 C1186 1.385 . S
C1183 H1158 0.951 . S
C1183 C1181 1.388 . S
C1183 C1184 1.366 . S
C1184 C1183 1.366 . S
C1184 C1185 1.414 . S
C1184 C1187 1.499 . S
C1185 H1159 0.950 . S
C1185 C1184 1.414 . S
C1185 C1186 1.374 . S
C1186 H1160 0.950 . S
C1186 C1182 1.385 . S
C1186 C1185 1.374 . S
C1187 C1184 1.499 . S
C1187 C1188 1.373 . S
C1187 C1189 1.389 . S
C1188 H1161 0.950 . S
C1188 C1174 1.377 . S
C1188 C1187 1.373 . S
C1189 C1173 1.377 . S
C1189 C1187 1.389 . S
C1189 C1190 1.524 . S
C1190 C1189 1.524 . S
C1190 C1191 1.397 . S
C1190 C1195 1.363 . S
C1191 H1162 0.950 . S
C1191 C1190 1.397 . S
C1191 C1192 1.334 . S
C1192 H1163 0.950 . S
C1192 C1191 1.334 . S
C1192 C1193 1.287 . S
C1193 C1192 1.287 . S
C1193 C1194 1.524 . S
C1193 H1196 0.999 . S
C1194 H1164 0.950 . S
C1194 C1193 1.524 . S
C1194 C1195 1.415 . S
C1195 H1165 0.950 . S
C1195 C1190 1.363 . S
C1195 C1194 1.415 . S
H1196 C1193 0.999 . S
H1197 C1178 0.913 . S
H1198 C1216 0.951 . S
H1199 C1218 0.951 . S
H1200 C1220 0.950 . S
H1201 C1221 0.950 . S
H1202 C1223 0.950 . S
H1203 C1226 0.950 . S
H1204 C1227 0.950 . S
H1205 C1229 0.950 . S
H1206 C1230 0.950 . S
H1207 C1231 0.951 . S
H1208 C1233 0.951 . S
H1209 C1235 0.950 . S
H1210 C1236 0.950 . S
H1211 C1238 0.950 . S
H1212 C1241 0.950 . S
H1213 C1242 0.950 . S
H1214 C1244 0.950 . S
H1215 C1245 0.950 . S
C1216 H1198 0.951 . S
C1216 C1217 1.366 . S
C1216 C1218 1.388 . S
C1217 C1216 1.366 . S
C1217 C1221 1.385 . S
C1218 H1199 0.951 . S
C1218 C1216 1.388 . S
C1218 C1219 1.366 . S
C1219 C1218 1.366 . S
C1219 C1220 1.414 . S
C1219 C1222 1.499 . S
C1220 H1200 0.950 . S
C1220 C1219 1.414 . S
C1220 C1221 1.374 . S
C1221 H1201 0.950 . S
C1221 C1217 1.385 . S
C1221 C1220 1.374 . S
C1222 C1219 1.499 . S
C1222 C1223 1.373 . S
C1222 C1224 1.389 . S
C1223 H1202 0.950 . S
C1223 C1222 1.373 . S
C1223 C1239 1.377 . S
C1224 C1222 1.389 . S
C1224 C1225 1.524 . S
C1224 C1238 1.377 . S
C1225 C1224 1.524 . S
C1225 C1226 1.397 . S
C1225 C1230 1.363 . S
C1226 H1203 0.950 . S
C1226 C1225 1.397 . S
C1226 C1227 1.334 . S
C1227 H1204 0.950 . S
C1227 C1226 1.334 . S
C1227 C1228 1.287 . S
C1228 C1227 1.287 . S
C1228 C1229 1.524 . S
C1228 H1247 0.913 . S
C1229 H1205 0.950 . S
C1229 C1228 1.524 . S
C1229 C1230 1.415 . S
C1230 H1206 0.950 . S
C1230 C1225 1.363 . S
C1230 C1229 1.415 . S
C1231 H1207 0.951 . S
C1231 C1232 1.366 . S
C1231 C1233 1.388 . S
C1232 C1231 1.366 . S
C1232 C1236 1.385 . S
C1233 H1208 0.951 . S
C1233 C1231 1.388 . S
C1233 C1234 1.366 . S
C1234 C1233 1.366 . S
C1234 C1235 1.414 . S
C1234 C1237 1.499 . S
C1235 H1209 0.950 . S
C1235 C1234 1.414 . S
C1235 C1236 1.374 . S
C1236 H1210 0.950 . S
C1236 C1232 1.385 . S
C1236 C1235 1.374 . S
C1237 C1234 1.499 . S
C1237 C1238 1.373 . S
C1237 C1239 1.389 . S
C1238 H1211 0.950 . S
C1238 C1224 1.377 . S
C1238 C1237 1.373 . S
C1239 C1223 1.377 . S
C1239 C1237 1.389 . S
C1239 C1240 1.524 . S
C1240 C1239 1.524 . S
C1240 C1241 1.397 . S
C1240 C1245 1.363 . S
C1241 H1212 0.950 . S
C1241 C1240 1.397 . S
C1241 C1242 1.334 . S
C1242 H1213 0.950 . S
C1242 C1241 1.334 . S
C1242 C1243 1.287 . S
C1243 C1242 1.287 . S
C1243 C1244 1.524 . S
C1243 H1246 0.999 . S
C1244 H1214 0.950 . S
C1244 C1243 1.524 . S
C1244 C1245 1.415 . S
C1245 H1215 0.950 . S
C1245 C1240 1.363 . S
C1245 C1244 1.415 . S
H1246 C1243 0.999 . S
H1247 C1228 0.913 . S
H1248 C1266 0.951 . S
H1249 C1268 0.951 . S
H1250 C1270 0.950 . S
H1251 C1271 0.950 . S
H1252 C1273 0.950 . S
H1253 C1276 0.950 . S
H1254 C1277 0.950 . S
H1255 C1279 0.950 . S
H1256 C1280 0.950 . S
H1257 C1281 0.951 . S
H1258 C1283 0.951 . S
H1259 C1285 0.950 . S
H1260 C1286 0.950 . S
H1261 C1288 0.950 . S
H1262 C1291 0.950 . S
H1263 C1292 0.950 . S
H1264 C1294 0.950 . S
H1265 C1295 0.950 . S
C1266 H1248 0.951 . S
C1266 C1267 1.366 . S
C1266 C1268 1.388 . S
C1267 C1266 1.366 . S
C1267 C1271 1.385 . S
C1268 H1249 0.951 . S
C1268 C1266 1.388 . S
C1268 C1269 1.366 . S
C1269 C1268 1.366 . S
C1269 C1270 1.414 . S
C1269 C1272 1.499 . S
C1270 H1250 0.950 . S
C1270 C1269 1.414 . S
C1270 C1271 1.374 . S
C1271 H1251 0.950 . S
C1271 C1267 1.385 . S
C1271 C1270 1.374 . S
C1272 C1269 1.499 . S
C1272 C1273 1.373 . S
C1272 C1274 1.389 . S
C1273 H1252 0.950 . S
C1273 C1272 1.373 . S
C1273 C1289 1.377 . S
C1274 C1272 1.389 . S
C1274 C1275 1.524 . S
C1274 C1288 1.377 . S
C1275 C1274 1.524 . S
C1275 C1276 1.397 . S
C1275 C1280 1.363 . S
C1276 H1253 0.950 . S
C1276 C1275 1.397 . S
C1276 C1277 1.334 . S
C1277 H1254 0.950 . S
C1277 C1276 1.334 . S
C1277 C1278 1.287 . S
C1278 C1277 1.287 . S
C1278 C1279 1.524 . S
C1278 H1297 0.913 . S
C1279 H1255 0.950 . S
C1279 C1278 1.524 . S
C1279 C1280 1.415 . S
C1280 H1256 0.950 . S
C1280 C1275 1.363 . S
C1280 C1279 1.415 . S
C1281 H1257 0.951 . S
C1281 C1282 1.366 . S
C1281 C1283 1.388 . S
C1282 C1281 1.366 . S
C1282 C1286 1.385 . S
C1283 H1258 0.951 . S
C1283 C1281 1.388 . S
C1283 C1284 1.366 . S
C1284 C1283 1.366 . S
C1284 C1285 1.414 . S
C1284 C1287 1.499 . S
C1285 H1259 0.950 . S
C1285 C1284 1.414 . S
C1285 C1286 1.374 . S
C1286 H1260 0.950 . S
C1286 C1282 1.385 . S
C1286 C1285 1.374 . S
C1287 C1284 1.499 . S
C1287 C1288 1.373 . S
C1287 C1289 1.389 . S
C1288 H1261 0.950 . S
C1288 C1274 1.377 . S
C1288 C1287 1.373 . S
C1289 C1273 1.377 . S
C1289 C1287 1.389 . S
C1289 C1290 1.524 . S
C1290 C1289 1.524 . S
C1290 C1291 1.397 . S
C1290 C1295 1.363 . S
C1291 H1262 0.950 . S
C1291 C1290 1.397 . S
C1291 C1292 1.334 . S
C1292 H1263 0.950 . S
C1292 C1291 1.334 . S
C1292 C1293 1.287 . S
C1293 C1292 1.287 . S
C1293 C1294 1.524 . S
C1293 H1296 0.999 . S
C1294 H1264 0.950 . S
C1294 C1293 1.524 . S
C1294 C1295 1.415 . S
C1295 H1265 0.950 . S
C1295 C1290 1.363 . S
C1295 C1294 1.415 . S
H1296 C1293 0.999 . S
H1297 C1278 0.913 . S
H1298 C1316 0.951 . S
H1299 C1318 0.951 . S
H1300 C1320 0.950 . S
H1301 C1321 0.950 . S
H1302 C1323 0.950 . S
H1303 C1326 0.950 . S
H1304 C1327 0.950 . S
H1305 C1329 0.950 . S
H1306 C1330 0.950 . S
H1307 C1331 0.951 . S
H1308 C1333 0.951 . S
H1309 C1335 0.950 . S
H1310 C1336 0.950 . S
H1311 C1338 0.950 . S
H1312 C1341 0.950 . S
H1313 C1342 0.950 . S
H1314 C1344 0.950 . S
H1315 C1345 0.950 . S
C1316 H1298 0.951 . S
C1316 C1317 1.366 . S
C1316 C1318 1.388 . S
C1317 C1316 1.366 . S
C1317 C1321 1.385 . S
C1318 H1299 0.951 . S
C1318 C1316 1.388 . S
C1318 C1319 1.366 . S
C1319 C1318 1.366 . S
C1319 C1320 1.414 . S
C1319 C1322 1.499 . S
C1320 H1300 0.950 . S
C1320 C1319 1.414 . S
C1320 C1321 1.374 . S
C1321 H1301 0.950 . S
C1321 C1317 1.385 . S
C1321 C1320 1.374 . S
C1322 C1319 1.499 . S
C1322 C1323 1.373 . S
C1322 C1324 1.389 . S
C1323 H1302 0.950 . S
C1323 C1322 1.373 . S
C1323 C1339 1.377 . S
C1324 C1322 1.389 . S
C1324 C1325 1.524 . S
C1324 C1338 1.377 . S
C1325 C1324 1.524 . S
C1325 C1326 1.397 . S
C1325 C1330 1.363 . S
C1326 H1303 0.950 . S
C1326 C1325 1.397 . S
C1326 C1327 1.334 . S
C1327 H1304 0.950 . S
C1327 C1326 1.334 . S
C1327 C1328 1.287 . S
C1328 C1327 1.287 . S
C1328 C1329 1.524 . S
C1328 H1347 0.913 . S
C1329 H1305 0.950 . S
C1329 C1328 1.524 . S
C1329 C1330 1.415 . S
C1330 H1306 0.950 . S
C1330 C1325 1.363 . S
C1330 C1329 1.415 . S
C1331 H1307 0.951 . S
C1331 C1332 1.366 . S
C1331 C1333 1.388 . S
C1332 C1331 1.366 . S
C1332 C1336 1.385 . S
C1333 H1308 0.951 . S
C1333 C1331 1.388 . S
C1333 C1334 1.366 . S
C1334 C1333 1.366 . S
C1334 C1335 1.414 . S
C1334 C1337 1.499 . S
C1335 H1309 0.950 . S
C1335 C1334 1.414 . S
C1335 C1336 1.374 . S
C1336 H1310 0.950 . S
C1336 C1332 1.385 . S
C1336 C1335 1.374 . S
C1337 C1334 1.499 . S
C1337 C1338 1.373 . S
C1337 C1339 1.389 . S
C1338 H1311 0.950 . S
C1338 C1324 1.377 . S
C1338 C1337 1.373 . S
C1339 C1323 1.377 . S
C1339 C1337 1.389 . S
C1339 C1340 1.524 . S
C1340 C1339 1.524 . S
C1340 C1341 1.397 . S
C1340 C1345 1.363 . S
C1341 H1312 0.950 . S
C1341 C1340 1.397 . S
C1341 C1342 1.334 . S
C1342 H1313 0.950 . S
C1342 C1341 1.334 . S
C1342 C1343 1.287 . S
C1343 C1342 1.287 . S
C1343 C1344 1.524 . S
C1343 H1346 0.999 . S
C1344 H1314 0.950 . S
C1344 C1343 1.524 . S
C1344 C1345 1.415 . S
C1345 H1315 0.950 . S
C1345 C1340 1.363 . S
C1345 C1344 1.415 . S
H1346 C1343 0.999 . S
H1347 C1328 0.913 . S
H1348 C1366 0.951 . S
H1349 C1368 0.951 . S
H1350 C1370 0.950 . S
H1351 C1371 0.950 . S
H1352 C1373 0.950 . S
H1353 C1376 0.950 . S
H1354 C1377 0.950 . S
H1355 C1379 0.950 . S
H1356 C1380 0.950 . S
H1357 C1381 0.951 . S
H1358 C1383 0.951 . S
H1359 C1385 0.950 . S
H1360 C1386 0.950 . S
H1361 C1388 0.950 . S
H1362 C1391 0.950 . S
H1363 C1392 0.950 . S
H1364 C1394 0.950 1_655 S
H1365 C1395 0.950 . S
C1366 H1348 0.951 . S
C1366 C1367 1.366 . S
C1366 C1368 1.388 . S
C1367 C1366 1.366 . S
C1367 C1371 1.385 . S
C1368 H1349 0.951 . S
C1368 C1366 1.388 . S
C1368 C1369 1.366 . S
C1369 C1368 1.366 . S
C1369 C1370 1.414 . S
C1369 C1372 1.499 . S
C1370 H1350 0.950 . S
C1370 C1369 1.414 . S
C1370 C1371 1.374 . S
C1371 H1351 0.950 . S
C1371 C1367 1.385 . S
C1371 C1370 1.374 . S
C1372 C1369 1.499 . S
C1372 C1373 1.373 . S
C1372 C1374 1.389 . S
C1373 H1352 0.950 . S
C1373 C1372 1.373 . S
C1373 C1389 1.377 . S
C1374 C1372 1.389 . S
C1374 C1375 1.524 . S
C1374 C1388 1.377 . S
C1375 C1374 1.524 . S
C1375 C1376 1.397 . S
C1375 C1380 1.363 . S
C1376 H1353 0.950 . S
C1376 C1375 1.397 . S
C1376 C1377 1.334 . S
C1377 H1354 0.950 . S
C1377 C1376 1.334 . S
C1377 C1378 1.287 . S
C1378 C1377 1.287 . S
C1378 C1379 1.524 . S
C1378 H1397 0.913 . S
C1379 H1355 0.950 . S
C1379 C1378 1.524 . S
C1379 C1380 1.415 . S
C1380 H1356 0.950 . S
C1380 C1375 1.363 . S
C1380 C1379 1.415 . S
C1381 H1357 0.951 . S
C1381 C1382 1.366 . S
C1381 C1383 1.388 . S
C1382 C1381 1.366 . S
C1382 C1386 1.385 . S
C1383 H1358 0.951 . S
C1383 C1381 1.388 . S
C1383 C1384 1.366 . S
C1384 C1383 1.366 . S
C1384 C1385 1.414 . S
C1384 C1387 1.499 . S
C1385 H1359 0.950 . S
C1385 C1384 1.414 . S
C1385 C1386 1.374 . S
C1386 H1360 0.950 . S
C1386 C1382 1.385 . S
C1386 C1385 1.374 . S
C1387 C1384 1.499 . S
C1387 C1388 1.373 . S
C1387 C1389 1.389 . S
C1388 H1361 0.950 . S
C1388 C1374 1.377 . S
C1388 C1387 1.373 . S
C1389 C1373 1.377 . S
C1389 C1387 1.389 . S
C1389 C1390 1.524 . S
C1390 C1389 1.524 . S
C1390 C1391 1.397 . S
C1390 C1395 1.363 . S
C1391 H1362 0.950 . S
C1391 C1390 1.397 . S
C1391 C1392 1.334 . S
C1392 H1363 0.950 . S
C1392 C1391 1.334 . S
C1392 C1393 1.287 . S
C1393 C1392 1.287 . S
C1393 C1394 1.524 . S
C1393 H1396 0.999 1_455 S
C1394 H1364 0.950 1_455 S
C1394 C1393 1.524 . S
C1394 C1395 1.415 . S
C1395 H1365 0.950 . S
C1395 C1390 1.363 . S
C1395 C1394 1.415 . S
H1396 C1393 0.999 1_655 S
H1397 C1378 0.913 . S
H1398 C1416 0.951 . S
H1399 C1418 0.951 . S
H1400 C1420 0.950 . S
H1401 C1421 0.950 . S
H1402 C1423 0.950 . S
H1403 C1426 0.950 . S
H1404 C1427 0.950 . S
H1405 C1429 0.950 . S
H1406 C1430 0.950 . S
H1407 C1431 0.951 . S
H1408 C1433 0.951 . S
H1409 C1435 0.950 . S
H1410 C1436 0.950 . S
H1411 C1438 0.950 . S
H1412 C1441 0.950 . S
H1413 C1442 0.950 . S
H1414 C1444 0.950 . S
H1415 C1445 0.950 . S
C1416 H1398 0.951 . S
C1416 C1417 1.366 . S
C1416 C1418 1.388 . S
C1417 C1416 1.366 . S
C1417 C1421 1.385 . S
C1418 H1399 0.951 . S
C1418 C1416 1.388 . S
C1418 C1419 1.366 . S
C1419 C1418 1.366 . S
C1419 C1420 1.414 . S
C1419 C1422 1.499 . S
C1420 H1400 0.950 . S
C1420 C1419 1.414 . S
C1420 C1421 1.374 . S
C1421 H1401 0.950 . S
C1421 C1417 1.385 . S
C1421 C1420 1.374 . S
C1422 C1419 1.499 . S
C1422 C1423 1.373 . S
C1422 C1424 1.389 . S
C1423 H1402 0.950 . S
C1423 C1422 1.373 . S
C1423 C1439 1.377 . S
C1424 C1422 1.389 . S
C1424 C1425 1.524 . S
C1424 C1438 1.377 . S
C1425 C1424 1.524 . S
C1425 C1426 1.397 . S
C1425 C1430 1.363 . S
C1426 H1403 0.950 . S
C1426 C1425 1.397 . S
C1426 C1427 1.334 . S
C1427 H1404 0.950 . S
C1427 C1426 1.334 . S
C1427 C1428 1.287 . S
C1428 C1427 1.287 . S
C1428 C1429 1.524 . S
C1428 H1447 0.913 . S
C1429 H1405 0.950 . S
C1429 C1428 1.524 . S
C1429 C1430 1.415 . S
C1430 H1406 0.950 . S
C1430 C1425 1.363 . S
C1430 C1429 1.415 . S
C1431 H1407 0.951 . S
C1431 C1432 1.366 . S
C1431 C1433 1.388 . S
C1432 C1431 1.366 . S
C1432 C1436 1.385 . S
C1433 H1408 0.951 . S
C1433 C1431 1.388 . S
C1433 C1434 1.366 . S
C1434 C1433 1.366 . S
C1434 C1435 1.414 . S
C1434 C1437 1.499 . S
C1435 H1409 0.950 . S
C1435 C1434 1.414 . S
C1435 C1436 1.374 . S
C1436 H1410 0.950 . S
C1436 C1432 1.385 . S
C1436 C1435 1.374 . S
C1437 C1434 1.499 . S
C1437 C1438 1.373 . S
C1437 C1439 1.389 . S
C1438 H1411 0.950 . S
C1438 C1424 1.377 . S
C1438 C1437 1.373 . S
C1439 C1423 1.377 . S
C1439 C1437 1.389 . S
C1439 C1440 1.524 . S
C1440 C1439 1.524 . S
C1440 C1441 1.397 . S
C1440 C1445 1.363 . S
C1441 H1412 0.950 . S
C1441 C1440 1.397 . S
C1441 C1442 1.334 . S
C1442 H1413 0.950 . S
C1442 C1441 1.334 . S
C1442 C1443 1.287 . S
C1443 C1442 1.287 . S
C1443 C1444 1.524 . S
C1443 H1446 0.999 . S
C1444 H1414 0.950 . S
C1444 C1443 1.524 . S
C1444 C1445 1.415 . S
C1445 H1415 0.950 . S
C1445 C1440 1.363 . S
C1445 C1444 1.415 . S
H1446 C1443 0.999 . S
H1447 C1428 0.913 . S
C267 C4 1.119 . S
C282 C95 1.140 . S
C317 C16 1.282 . S
C332 C144 1.287 . S
C382 C170 1.935 . S
C367 C32 1.958 . S
C417 C43 2.169 . S
C432 C218 2.125 1_655 S
C482 C130 2.828 . S
C467 C5 2.746 . S
C532 C98 0.513 . S
C517 C21 0.492 . S
C582 C219 1.803 . S
C567 C27 1.839 . S
C632 C187 1.423 . S
C617 C37 1.432 . S
C667 C10 1.531 . S
C682 C215 1.550 . S
C732 C147 2.535 . S
C717 C26 2.597 . S
C767 C38 2.040 . S
C782 C99 2.035 . S
C817 C15 0.905 . S
C832 C184 0.908 . S
C882 C104 1.355 . S
C867 C48 1.338 . S
C917 C59 1.021 . S
C932 C135 1.021 . S
C967 C76 2.417 . S
C982 C179 2.380 . S
C1017 C87 1.975 . S
C1032 C227 1.954 . S
C1067 C54 1.990 . S
C1082 C139 2.045 1_566 S
C1132 C107 1.558 . S
C1117 C60 1.599 . S
C1182 C210 1.671 . S
C1167 C71 1.697 . S
C1232 C178 1.388 . S
C1217 C82 1.428 . S
C1267 C49 1.818 . S
C1282 C224 1.888 . S
C1332 C138 1.919 . S
C1317 C70 1.982 . S
C1382 C90 2.549 . S
C1367 C81 2.561 . S
C1417 C65 0.764 . S
C1432 C175 0.764 . S
