# Generated by pormake.
# Topology pth, (4,4)-cn, num edge types: 1
# Building blocks:
#     Node 0, Type 0, BuildingBlock: QUQFOY_clean_sbu_3, # of connection points: 4
#     Node 1, Type 0, BuildingBlock: QUQFOY_clean_sbu_3, # of connection points: 4
#     Node 2, Type 0, BuildingBlock: QUQFOY_clean_sbu_3, # of connection points: 4
#     Node 3, Type 1, BuildingBlock: NAHDIM_clean_linker_0, # of connection points: 4
#     Node 4, Type 1, BuildingBlock: NAHDIM_clean_linker_0, # of connection points: 4
#     Node 5, Type 1, BuildingBlock: NAHDIM_clean_linker_0, # of connection points: 4
#     Edge 6, Type (0, 1), BuildingBlock: ZUJKAS_clean_linker_0, # of connection points: 2
#     Edge 7, Type (0, 1), BuildingBlock: ZUJKAS_clean_linker_0, # of connection points: 2
#     Edge 8, Type (0, 1), BuildingBlock: ZUJKAS_clean_linker_0, # of connection points: 2
#     Edge 9, Type (0, 1), BuildingBlock: ZUJKAS_clean_linker_0, # of connection points: 2
#     Edge 10, Type (0, 1), BuildingBlock: ZUJKAS_clean_linker_0, # of connection points: 2
#     Edge 11, Type (0, 1), BuildingBlock: ZUJKAS_clean_linker_0, # of connection points: 2
#     Edge 12, Type (0, 1), BuildingBlock: ZUJKAS_clean_linker_0, # of connection points: 2
#     Edge 13, Type (0, 1), BuildingBlock: ZUJKAS_clean_linker_0, # of connection points: 2
#     Edge 14, Type (0, 1), BuildingBlock: ZUJKAS_clean_linker_0, # of connection points: 2
#     Edge 15, Type (0, 1), BuildingBlock: ZUJKAS_clean_linker_0, # of connection points: 2
#     Edge 16, Type (0, 1), BuildingBlock: ZUJKAS_clean_linker_0, # of connection points: 2
#     Edge 17, Type (0, 1), BuildingBlock: ZUJKAS_clean_linker_0, # of connection points: 2
# Relax obj value: 0.007
# Max RMSD: 0.056
# Mean RMSD: 0.049
data_MOF--net-pth--node1-QUQFOY_clean_sbu_3--node2-NAHDIM_clean_linker_0--edge1-ZUJKAS_clean_linker_0
_symmetry_space_group_name_H-M    P1
_symmetry_Int_Tables_number       1
_symmetry_cell_setting            triclinic
loop_
_symmetry_equiv_pos_as_xyz
'x, y, z'
_cell_length_a     38.777019
_cell_length_b     38.443336
_cell_length_c     100.60459
_cell_angle_alpha  89.793131
_cell_angle_beta   91.253256
_cell_angle_gamma 120.72062
loop_
_atom_site_label
_atom_site_type_symbol
_atom_site_fract_x
_atom_site_fract_y
_atom_site_fract_z
_atom_type_partial_charge
C0 C 0.00605 0.12894 0.07801 0.0
O1 O 0.98757 0.12946 0.06751 0.0
Cd2 Cd 0.98388 0.09147 0.04794 0.0
O3 O 0.02073 0.10597 0.07869 0.0
Cd4 Cd 0.02479 0.05462 0.06518 0.0
C5 C 0.08447 0.12757 0.04391 0.0
O6 O 0.95997 0.02148 0.05265 0.0
O7 O 0.00686 0.01193 0.0457 0.0
O8 O 0.00488 0.01227 0.0848 0.0
C9 C 0.97068 0.00324 0.04472 0.0
O10 O 0.05206 0.12502 0.03966 0.0
C11 C 0.03335 0.00503 0.08465 0.0
O12 O 0.0844 0.10708 0.05392 0.0
O13 O 0.05879 0.02168 0.07552 0.0
C14 C 0.13244 0.06441 0.40183 0.0
O15 O 0.1538 0.08404 0.39206 0.0
Cd16 Cd 0.12648 0.09728 0.3724 0.0
O17 O 0.09506 0.05229 0.40176 0.0
Cd18 Cd 0.044 0.05615 0.38737 0.0
C19 C 0.05442 0.00024 0.36347 0.0
O20 O 0.08739 0.12547 0.37986 0.0
O21 O 0.02952 0.09203 0.36992 0.0
O22 O 0.01782 0.06659 0.40789 0.0
C23 C 0.06209 0.12538 0.37164 0.0
O24 O 0.08787 0.03181 0.36098 0.0
C25 C 0.98148 0.03977 0.40545 0.0
O26 O 0.03312 0.00025 0.37293 0.0
O27 O 0.9741 0.02014 0.3946 0.0
C28 C 0.99589 0.0937 0.71968 0.0
O29 O -0.00308 0.11078 0.73058 0.0
Cd30 Cd 0.0323 0.10995 0.75018 0.0
O31 O 0.01552 0.07555 0.71849 0.0
Cd32 Cd 0.06203 0.06237 0.73225 0.0
C33 C 0.98784 0.00675 0.75381 0.0
O34 O 0.09771 0.1282 0.74317 0.0
O35 O 0.10971 0.08374 0.75146 0.0
O36 O 0.10039 0.07636 0.71213 0.0
C37 C 0.11745 0.12001 0.75148 0.0
O38 O 0.99381 0.04055 0.75811 0.0
C39 C 0.10463 0.04579 0.7128 0.0
O40 O 0.00697 0.00526 0.74389 0.0
O41 O 0.08833 0.02204 0.7225 0.0
C42 C 0.9045 0.58943 0.30817 0.0
C43 C 0.94347 0.61955 0.30141 0.0
C44 C 0.96038 0.60847 0.27949 0.0
C45 C 0.00224 0.63319 0.2798 0.0
C46 C 0.02594 0.62383 0.27194 0.0
C47 C 0.00728 0.58834 0.26392 0.0
C48 C 0.96482 0.56394 0.26339 0.0
C49 C 0.94189 0.575 0.27096 0.0
C50 C 0.07094 0.6513 0.27253 0.0
C51 C 0.9436 0.52523 0.2553 0.0
C52 C 0.17317 0.53045 0.32174 0.0
C53 C 0.14042 0.49895 0.31245 0.0
C54 C 0.13431 0.51256 0.28925 0.0
C55 C 0.09301 0.48676 0.28696 0.0
C56 C 0.07276 0.49495 0.27683 0.0
C57 C 0.09421 0.5302 0.26906 0.0
C58 C 0.1362 0.55563 0.27116 0.0
C59 C 0.15583 0.54581 0.28105 0.0
C60 C 0.02829 0.46646 0.27467 0.0
C61 C 0.16019 0.59412 0.2634 0.0
C62 C 0.13796 0.47766 0.18634 0.0
C63 C 0.09716 0.45609 0.18951 0.0
C64 C 0.07872 0.4761 0.19484 0.0
C65 C 0.10164 0.51842 0.1971 0.0
C66 C 0.14235 0.54037 0.19345 0.0
C67 C 0.15984 0.51966 0.18797 0.0
C68 C 0.0349 0.45197 0.19823 0.0
C69 C 0.16759 0.58552 0.19563 0.0
C70 C 0.95181 0.68118 0.17987 0.0
C71 C 0.995 0.69822 0.17546 0.0
C72 C 0.01274 0.64635 0.17724 0.0
C73 C 0.98975 0.60415 0.17744 0.0
C74 C 0.00194 0.58166 0.18517 0.0
C75 C 0.03859 0.60206 0.19254 0.0
C76 C 0.06304 0.64471 0.19175 0.0
C77 C 0.04967 0.66643 0.18416 0.0
C78 C 0.97527 0.53627 0.18571 0.0
C79 C 0.10304 0.66738 0.19904 0.0
C80 C 0.03208 0.57456 0.25722 0.0
C81 C 0.0505 0.55862 0.26522 0.0
C82 C 0.07235 0.54269 0.25972 0.0
C83 C 0.07459 0.54098 0.24575 0.0
C84 C 0.09362 0.52237 0.23981 0.0
C85 C 0.09632 0.52157 0.22605 0.0
C86 C 0.08039 0.53966 0.21772 0.0
C87 C 0.08339 0.53943 0.20373 0.0
C88 C 0.06907 0.5595 0.19579 0.0
C89 C 0.05085 0.57914 0.20142 0.0
C90 C 0.04572 0.57789 0.21534 0.0
C91 C 0.0258 0.59563 0.22128 0.0
C92 C 0.02128 0.59461 0.23499 0.0
C93 C 0.03666 0.57598 0.24329 0.0
C94 C 0.05737 0.55844 0.23752 0.0
C95 C 0.06108 0.55858 0.22351 0.0
C96 C 0.18624 0.41946 0.18723 0.0
C97 C 0.14755 0.41973 0.18427 0.0
O98 O 0.9374 0.6155 0.28774 0.0
O99 O -0.00113 0.66707 0.17024 0.0
O100 O 0.15722 0.45913 0.18169 0.0
O101 O 0.15387 0.5066 0.29952 0.0
H102 H 0.9662 0.6114 0.30458 0.0
H103 H 0.89573 0.55808 0.30526 0.0
H104 H 0.87973 0.59462 0.30518 0.0
H105 H 0.90869 0.5923 0.31916 0.0
H106 H 0.01629 0.65954 0.28629 0.0
H107 H 0.90945 0.55631 0.2708 0.0
H108 H 0.08434 0.63729 0.27884 0.0
H109 H 0.07999 0.68143 0.27684 0.0
H110 H 0.08355 0.65552 0.26244 0.0
H111 H 0.91115 0.50692 0.25751 0.0
H112 H 0.95747 0.50655 0.25727 0.0
H113 H 0.9465 0.53252 0.24456 0.0
H114 H 0.11375 0.50247 0.31343 0.0
H115 H 0.16297 0.52507 0.33218 0.0
H116 H 0.17997 0.56122 0.31888 0.0
H117 H 0.20114 0.52928 0.32114 0.0
H118 H 0.07665 0.46043 0.29317 0.0
H119 H 0.18781 0.56527 0.28288 0.0
H120 H 0.02057 0.4613 0.26388 0.0
H121 H 0.01175 0.48017 0.27893 0.0
H122 H 0.01785 0.43682 0.27952 0.0
H123 H 0.19112 0.61327 0.26757 0.0
H124 H 0.14508 0.61209 0.26332 0.0
H125 H 0.16235 0.5865 0.25295 0.0
H126 H 0.12925 0.40838 0.19337 0.0
H127 H 0.07964 0.42371 0.18782 0.0
H128 H 0.19115 0.53607 0.18529 0.0
H129 H 0.03188 0.45186 0.20918 0.0
H130 H 0.02029 0.42013 0.19465 0.0
H131 H 0.0187 0.46626 0.1938 0.0
H132 H 0.19921 0.59792 0.19272 0.0
H133 H 0.16722 0.59288 0.20628 0.0
H134 H 0.15467 0.60081 0.18975 0.0
H135 H 0.01502 0.71183 0.18439 0.0
H136 H 0.94808 0.70558 0.18421 0.0
H137 H 0.94442 0.65777 0.18757 0.0
H138 H 0.93043 0.66714 0.17131 0.0
H139 H 0.96154 0.58899 0.17187 0.0
H140 H 0.06808 0.69908 0.18358 0.0
H141 H 0.9683 0.52652 0.1962 0.0
H142 H 0.99126 0.52176 0.1816 0.0
H143 H 0.94667 0.52521 0.17999 0.0
H144 H 0.12071 0.69956 0.19599 0.0
H145 H 0.12091 0.65275 0.19722 0.0
H146 H 0.09812 0.66645 0.20989 0.0
H147 H 0.04798 0.55881 0.27594 0.0
H148 H 0.1065 0.5081 0.24575 0.0
H149 H 0.11141 0.5069 0.22205 0.0
H150 H 0.0724 0.56009 0.1851 0.0
H151 H 0.0133 0.61037 0.2154 0.0
H152 H 0.00581 0.60885 0.23904 0.0
H153 H 0.20646 0.43098 0.17861 0.0
H154 H 0.17938 0.38828 0.18952 0.0
H155 H 0.20217 0.43913 0.196 0.0
C156 C 0.44414 0.10206 0.63656 0.0
C157 C 0.40748 0.07803 0.62727 0.0
C158 C 0.43187 0.04405 0.61274 0.0
C159 C 0.45838 0.0785 0.60545 0.0
C160 C 0.48452 0.077 0.59635 0.0
C161 C 0.48423 0.04042 0.59447 0.0
C162 C 0.45699 0.00549 0.60153 0.0
C163 C 0.43101 0.00776 0.61052 0.0
C164 C 0.51295 0.11471 0.58887 0.0
C165 C 0.45592 0.96599 0.59976 0.0
C166 C 0.73882 0.16227 0.62755 0.0
C167 C 0.72762 0.11821 0.6256 0.0
C168 C 0.69358 0.09451 0.60446 0.0
C169 C 0.66246 0.05461 0.60618 0.0
C170 C 0.6262 0.03925 0.59892 0.0
C171 C 0.62097 0.06475 0.58995 0.0
C172 C 0.6529 0.1049 0.588 0.0
C173 C 0.68918 0.11906 0.59516 0.0
C174 C 0.59314 0.99616 0.60111 0.0
C175 C 0.64822 0.13331 0.57876 0.0
C176 C 0.63581 0.99632 0.50607 0.0
C177 C 0.60761 0.96236 0.51319 0.0
C178 C 0.57791 0.96371 0.52052 0.0
C179 C 0.57634 -0.00035 0.52077 0.0
C180 C 0.60388 0.03345 0.51333 0.0
C181 C 0.63316 0.03123 0.50603 0.0
C182 C 0.54864 0.92695 0.52823 0.0
C183 C 0.60289 0.07217 0.51334 0.0
C184 C 0.27413 0.95108 0.52447 0.0
C185 C 0.30855 0.97578 0.51502 0.0
C186 C 0.36478 0.96404 0.51552 0.0
C187 C 0.37197 0.93332 0.51935 0.0
C188 C 0.41 0.94238 0.5241 0.0
C189 C 0.44167 0.98318 0.52475 0.0
C190 C 0.4352 0.01418 0.52004 0.0
C191 C 0.39676 0.00428 0.51546 0.0
C192 C 0.41603 0.90856 0.52887 0.0
C193 C 0.46865 0.05786 0.52021 0.0
C194 C 0.51381 0.03929 0.58563 0.0
C195 C 0.55163 0.05084 0.59108 0.0
C196 C 0.58118 0.05057 0.58344 0.0
C197 C 0.57276 0.03799 0.56998 0.0
C198 C 0.60133 0.03622 0.5621 0.0
C199 C 0.59299 0.02454 0.54879 0.0
C200 C 0.55569 0.01408 0.54284 0.0
C201 C 0.54699 0.00239 0.52929 0.0
C202 C 0.50976 0.9926 0.52366 0.0
C203 C 0.48058 0.99373 0.53127 0.0
C204 C 0.48851 0.00476 0.54488 0.0
C205 C 0.45956 0.00555 0.55287 0.0
C206 C 0.46771 0.01672 0.56622 0.0
C207 C 0.50512 0.02759 0.5721 0.0
C208 C 0.53472 0.02689 0.56426 0.0
C209 C 0.5263 0.01523 0.55065 0.0
C210 C 0.69935 0.97157 0.5132 0.0
C211 C 0.67846 0.96887 0.49978 0.0
O212 O 0.40716 0.04447 0.62208 0.0
O213 O 0.32676 0.95385 0.51195 0.0
O214 O 0.66619 0.99704 0.49928 0.0
O215 O 0.72731 0.11017 0.61217 0.0
H216 H 0.40841 0.09779 0.61901 0.0
H217 H 0.47237 0.11371 0.63105 0.0
H218 H 0.44422 0.08259 0.64474 0.0
H219 H 0.44384 0.12842 0.64092 0.0
H220 H 0.45928 0.10681 0.60687 0.0
H221 H 0.41037 0.98128 0.6161 0.0
H222 H 0.54436 0.12442 0.59185 0.0
H223 H 0.50777 0.1401 0.59078 0.0
H224 H 0.5096 0.10818 0.57802 0.0
H225 H 0.4329 0.94151 0.60596 0.0
H226 H 0.48575 0.97016 0.60244 0.0
H227 H 0.44945 0.95635 0.58916 0.0
H228 H 0.69709 0.09858 0.62969 0.0
H229 H 0.73939 0.16922 0.63829 0.0
H230 H 0.71622 0.16748 0.62241 0.0
H231 H 0.76874 0.18323 0.62338 0.0
H232 H 0.66647 0.03582 0.61337 0.0
H233 H 0.71363 0.1499 0.59396 0.0
H234 H 0.56878 0.99614 0.60672 0.0
H235 H 0.60393 0.97862 0.60682 0.0
H236 H 0.58012 0.98069 0.59143 0.0
H237 H 0.6747 0.16449 0.57922 0.0
H238 H 0.6211 0.13451 0.58129 0.0
H239 H 0.64408 0.12195 0.56838 0.0
H240 H 0.65196 0.93792 0.49838 0.0
H241 H 0.60868 0.93482 0.51321 0.0
H242 H 0.65477 0.05717 0.50045 0.0
H243 H 0.55293 0.93422 0.53902 0.0
H244 H 0.55238 0.90056 0.52646 0.0
H245 H 0.5174 0.91839 0.52543 0.0
H246 H 0.62606 0.0956 0.50688 0.0
H247 H 0.60782 0.08437 0.52363 0.0
H248 H 0.57288 0.06594 0.50984 0.0
H249 H 0.32978 0.00425 0.52047 0.0
H250 H 0.25878 0.96791 0.52695 0.0
H251 H 0.28614 0.94549 0.53385 0.0
H252 H 0.25188 0.92138 0.51995 0.0
H253 H 0.34723 0.90227 0.51909 0.0
H254 H 0.39174 0.02796 0.51188 0.0
H255 H 0.42511 0.91322 0.53956 0.0
H256 H 0.44064 0.90891 0.52331 0.0
H257 H 0.38847 0.87836 0.52757 0.0
H258 H 0.45988 0.07783 0.51502 0.0
H259 H 0.49555 0.06079 0.51543 0.0
H260 H 0.47722 0.06853 0.53066 0.0
H261 H 0.55827 0.06044 0.60142 0.0
H262 H 0.63052 0.04393 0.56615 0.0
H263 H 0.61625 0.02397 0.54321 0.0
H264 H 0.50337 0.98385 0.51325 0.0
H265 H 0.43022 0.99753 0.54891 0.0
H266 H 0.44434 0.01687 0.57188 0.0
H267 H 0.70986 0.94955 0.51346 0.0
H268 H 0.6784 0.96436 0.52149 0.0
H269 H 0.72552 0.00254 0.51486 0.0
C270 C 0.6205 0.63906 0.80267 0.0
C271 C 0.64473 0.67259 0.81295 0.0
C272 C 0.62817 0.63726 0.83427 0.0
C273 C 0.60358 0.6505 0.8396 0.0
C274 C 0.57824 0.62993 0.8502 0.0
C275 C 0.57741 0.59541 0.85554 0.0
C276 C 0.60257 0.58238 0.8503 0.0
C277 C 0.62808 0.60392 0.83986 0.0
C278 C 0.55248 0.64518 0.85574 0.0
C279 C 0.60231 0.54553 0.85566 0.0
C280 C 0.25579 0.36624 0.87297 0.0
C281 C 0.29436 0.37688 0.86584 0.0
C282 C 0.35675 0.44263 0.865 0.0
C283 C 0.38311 0.42785 0.86396 0.0
C284 C 0.42462 0.45365 0.86603 0.0
C285 C 0.43991 0.4949 0.86919 0.0
C286 C 0.4136 0.51019 0.86957 0.0
C287 C 0.37234 0.48381 0.86737 0.0
C288 C 0.45204 0.43669 0.86523 0.0
C289 C 0.42896 0.55413 0.87273 0.0
C290 C 0.45942 0.44359 0.95374 0.0
C291 C 0.48664 0.43779 0.94644 0.0
C292 C 0.51351 0.46772 0.93783 0.0
C293 C 0.51352 0.50439 0.93658 0.0
C294 C 0.48769 0.51122 0.94442 0.0
C295 C 0.46099 0.48068 0.95293 0.0
C296 C 0.54111 0.45969 0.92975 0.0
C297 C 0.48736 0.5502 0.94344 0.0
C298 C 0.81971 0.76881 0.92346 0.0
C299 C 0.7806 0.75301 0.93093 0.0
C300 C 0.72457 0.68283 0.93067 0.0
C301 C 0.71557 0.64346 0.92788 0.0
C302 C 0.67616 0.61269 0.92476 0.0
C303 C 0.64499 0.6216 0.92463 0.0
C304 C 0.65356 0.66091 0.9281 0.0
C305 C 0.69329 0.69116 0.93113 0.0
C306 C 0.66793 0.57093 0.9213 0.0
C307 C 0.62079 0.67108 0.92836 0.0
C308 C 0.55006 0.5727 0.86652 0.0
C309 C 0.50982 0.54503 0.86328 0.0
C310 C 0.48282 0.52152 0.87306 0.0
C311 C 0.49639 0.5246 0.8864 0.0
C312 C 0.47048 0.49991 0.89637 0.0
C313 C 0.48424 0.50274 0.90943 0.0
C314 C 0.52416 0.53115 0.91311 0.0
C315 C 0.53849 0.53406 0.92636 0.0
C316 C 0.5778 0.56388 0.92983 0.0
C317 C 0.60375 0.59033 0.92029 0.0
C318 C 0.59055 0.58656 0.90686 0.0
C319 C 0.61642 0.61142 0.8969 0.0
C320 C 0.60329 0.60695 0.88369 0.0
C321 C 0.56365 0.57782 0.87994 0.0
C322 C 0.53684 0.55316 0.88987 0.0
C323 C 0.5505 0.55706 0.9033 0.0
C324 C 0.39639 0.35361 0.94796 0.0
C325 C 0.41805 0.3732 0.96121 0.0
O326 O 0.65313 0.6564 0.82404 0.0
O327 O 0.76364 0.71175 0.93282 0.0
O328 O 0.43075 0.41415 0.96139 0.0
O329 O 0.31626 0.41832 0.86389 0.0
H330 H 0.62659 0.68626 0.81564 0.0
H331 H 0.59149 0.61598 0.80692 0.0
H332 H 0.63723 0.624 0.79976 0.0
H333 H 0.61399 0.65174 0.79367 0.0
H334 H 0.60463 0.67734 0.83579 0.0
H335 H 0.64756 0.59429 0.8358 0.0
H336 H 0.52041 0.6227 0.85359 0.0
H337 H 0.55945 0.67463 0.85141 0.0
H338 H 0.55667 0.64866 0.86671 0.0
H339 H 0.62091 0.53725 0.84971 0.0
H340 H 0.5711 0.51933 0.85575 0.0
H341 H 0.61408 0.55143 0.86607 0.0
H342 H 0.31128 0.36742 0.87255 0.0
H343 H 0.23774 0.33314 0.87476 0.0
H344 H 0.23745 0.37555 0.86699 0.0
H345 H 0.26332 0.38216 0.88274 0.0
H346 H 0.37146 0.39626 0.86161 0.0
H347 H 0.35181 0.49502 0.86792 0.0
H348 H 0.46552 0.43814 0.87521 0.0
H349 H 0.47699 0.45527 0.85843 0.0
H350 H 0.43599 0.40477 0.86167 0.0
H351 H 0.40474 0.5615 0.87231 0.0
H352 H 0.45238 0.57364 0.86559 0.0
H353 H 0.44308 0.56158 0.88284 0.0
H354 H 0.44442 0.36932 0.96262 0.0
H355 H 0.48667 0.40974 0.94718 0.0
H356 H 0.44029 0.48516 0.95871 0.0
H357 H 0.53373 0.45931 0.919 0.0
H358 H 0.53874 0.4304 0.93227 0.0
H359 H 0.57268 0.48438 0.93141 0.0
H360 H 0.46721 0.55187 0.95076 0.0
H361 H 0.47723 0.55293 0.93328 0.0
H362 H 0.51821 0.57637 0.94507 0.0
H363 H 0.76076 0.7593 0.92446 0.0
H364 H 0.83391 0.80187 0.92176 0.0
H365 H 0.81339 0.75332 0.91365 0.0
H366 H 0.8411 0.76298 0.92917 0.0
H367 H 0.73983 0.6372 0.92778 0.0
H368 H 0.69973 0.72115 0.93385 0.0
H369 H 0.65485 0.56253 0.91107 0.0
H370 H 0.64558 0.54851 0.92819 0.0
H371 H 0.69548 0.56888 0.92189 0.0
H372 H 0.63195 0.70243 0.93195 0.0
H373 H 0.59638 0.6496 0.93488 0.0
H374 H 0.60765 0.66772 0.91819 0.0
H375 H 0.49933 0.54187 0.85302 0.0
H376 H 0.43935 0.47769 0.89417 0.0
H377 H 0.46301 0.48256 0.91661 0.0
H378 H 0.58849 0.56618 0.94003 0.0
H379 H 0.64724 0.63437 0.89919 0.0
H380 H 0.62458 0.62675 0.87645 0.0
H381 H 0.38514 0.3206 0.94804 0.0
H382 H 0.37062 0.35825 0.94621 0.0
H383 H 0.41698 0.36682 0.93951 0.0
H384 H 0.98761 0.18898 0.07904 0.0
H385 H 0.00636 0.23987 0.09664 0.0
H386 H 0.05906 0.18348 0.1198 0.0
H387 H 0.04099 0.13289 0.10228 0.0
H388 H 0.98946 0.23413 0.12418 0.0
H389 H 0.15193 0.30062 0.11543 0.0
H390 H 0.11359 0.26583 0.10386 0.0
H391 H 0.12594 0.24722 0.11854 0.0
C392 C 0.00287 0.18716 0.08793 0.0
C393 C 0.01321 0.1571 0.08917 0.0
C394 C 0.01354 0.21627 0.09797 0.0
C395 C 0.03478 0.21587 0.10938 0.0
C396 C 0.04342 0.18481 0.11093 0.0
H397 H 0.08694 0.3406 0.1847 0.0
H398 H 0.05666 0.2931 0.166 0.0
C399 C 0.03289 0.15581 0.10092 0.0
C400 C 0.04925 0.24862 0.11949 0.0
H401 H 0.13463 0.32263 0.13489 0.0
C402 C 0.02119 0.25371 0.12648 0.0
C403 C 0.09069 0.2746 0.12228 0.0
C404 C 0.12234 0.27216 0.11455 0.0
C405 C 0.03348 0.28327 0.13654 0.0
C406 C 0.07486 0.30789 0.13978 0.0
C407 C 0.1029 0.30358 0.13247 0.0
C408 C 0.08997 0.33752 0.15095 0.0
C409 C 0.00209 0.288 0.14355 0.0
C410 C 0.1191 0.37817 0.14875 0.0
C411 C 0.13666 0.40524 0.15944 0.0
C412 C 0.12524 0.39218 0.17253 0.0
C413 C 0.09564 0.35163 0.17469 0.0
C414 C 0.0782 0.32454 0.16401 0.0
H415 H 0.9742 0.27624 0.13736 0.0
H416 H 0.99425 0.27048 0.1529 0.0
H417 H 0.01334 0.32019 0.14609 0.0
H418 H 0.12896 0.38873 0.13877 0.0
H419 H 0.15998 0.4361 0.1575 0.0
H420 H 0.90051 0.98838 0.40205 0.0
H421 H 0.84762 0.97667 0.41746 0.0
H422 H 0.93677 0.06214 0.44523 0.0
H423 H 0.98982 0.07399 0.42993 0.0
H424 H 0.87849 0.98663 0.45649 0.0
H425 H 0.80889 0.05687 0.42615 0.0
H426 H 0.81555 0.01963 0.4177 0.0
H427 H 0.85872 0.06622 0.42324 0.0
C428 C 0.90886 0.00473 0.41143 0.0
C429 C 0.94935 0.03219 0.41476 0.0
C430 C 0.87859 -0.00184 0.42018 0.0
C431 C 0.8883 0.01893 0.4324 0.0
C432 C 0.92868 0.04599 0.43581 0.0
H433 H 0.73757 0.04205 0.48994 0.0
H434 H 0.78759 0.05376 0.47329 0.0
C435 C 0.95893 0.05271 0.42705 0.0
C436 C 0.85649 0.01183 0.44179 0.0
H437 H 0.77548 0.02318 0.44574 0.0
C438 C 0.85594 0.99458 0.45415 0.0
C439 C 0.82744 0.02268 0.43874 0.0
C440 C 0.82766 0.0427 0.42579 0.0
C441 C 0.82674 0.9874 0.46351 0.0
C442 C 0.79719 0.99746 0.46035 0.0
C443 C 0.79802 0.01521 0.44806 0.0
C444 C 0.76552 0.99022 0.46981 0.0
C445 C 0.82802 0.96966 0.47678 0.0
C446 C 0.73626 0.95064 0.47317 0.0
C447 C 0.70751 0.94387 0.48257 0.0
C448 C 0.70727 0.97657 0.48869 0.0
C449 C 0.73648 0.01625 0.48519 0.0
C450 C 0.76511 0.02298 0.47574 0.0
H451 H 0.85722 0.97146 0.47871 0.0
H452 H 0.82269 0.98553 0.48497 0.0
H453 H 0.80397 0.93732 0.47695 0.0
H454 H 0.73598 0.92498 0.46863 0.0
H455 H 0.68581 0.91304 0.48524 0.0
H456 H 0.96001 0.92807 0.74604 0.0
H457 H 0.90554 0.8664 0.75587 0.0
H458 H 0.89107 0.93836 0.78552 0.0
H459 H 0.94541 -0.00017 0.77594 0.0
H460 H 0.88927 0.8687 0.79572 0.0
H461 H 0.7863 0.83397 0.75189 0.0
H462 H 0.83453 0.84016 0.74864 0.0
H463 H 0.83136 0.88264 0.75431 0.0
C464 C 0.94543 0.93074 0.75471 0.0
C465 C 0.9569 0.96896 0.76013 0.0
C466 C 0.9142 0.8955 0.76027 0.0
C467 C 0.89397 0.89793 0.77131 0.0
C468 C 0.90623 0.93586 0.77698 0.0
H469 H 0.66094 0.74527 0.8026 0.0
H470 H 0.72271 0.79748 0.79243 0.0
C471 C 0.93728 0.97099 0.77145 0.0
C472 C 0.85913 0.86136 0.77682 0.0
H473 H 0.76135 0.78971 0.77003 0.0
C474 C 0.8614 0.85111 0.79008 0.0
C475 C 0.82273 0.83886 0.76945 0.0
C476 C 0.81821 0.84947 0.75532 0.0
C477 C 0.82797 0.81933 0.79627 0.0
C478 C 0.79151 0.79702 0.78893 0.0
C479 C 0.78945 0.8068 0.7756 0.0
C480 C 0.75442 0.7651 0.79513 0.0
C481 C 0.83143 0.81087 0.81074 0.0
C482 C 0.75169 0.72944 0.79989 0.0
C483 C 0.71646 0.69963 0.80575 0.0
C484 C 0.68347 0.70513 0.80701 0.0
C485 C 0.68613 0.74058 0.802 0.0
C486 C 0.72128 0.77028 0.79613 0.0
H487 H 0.85905 0.8357 0.81562 0.0
H488 H 0.80498 0.80653 0.81623 0.0
H489 H 0.83242 0.7826 0.81156 0.0
H490 H 0.77666 0.72452 0.79897 0.0
H491 H 0.71489 0.67219 0.80926 0.0
H492 H 0.98987 0.97477 0.10705 0.0
H493 H 0.98944 0.92485 0.12221 0.0
H494 H 0.07934 0.92035 0.09899 0.0
H495 H 0.08076 0.97131 0.08395 0.0
H496 H 0.96838 0.8486 0.11632 0.0
H497 H 0.12498 0.93078 0.13623 0.0
H498 H 0.10338 0.95572 0.12704 0.0
H499 H 0.12128 0.92733 0.11841 0.0
C500 C 0.00996 0.96357 0.10526 0.0
C501 C 0.03542 0.97703 0.09432 0.0
C502 C 0.00963 0.93498 0.11393 0.0
C503 C 0.03462 0.9191 0.11183 0.0
C504 C 0.06044 0.93281 0.10099 0.0
H505 H 0.98285 0.6906 0.14815 0.0
H506 H 0.99513 0.74368 0.13216 0.0
C507 C 0.06107 0.96178 0.09236 0.0
C508 C 0.03168 0.88657 0.12058 0.0
H509 H 0.08533 0.86127 0.14176 0.0
C510 C 0.99397 0.85139 0.12189 0.0
C511 C 0.06502 0.89038 0.12792 0.0
C512 C 0.10588 0.92823 0.12746 0.0
C513 C 0.98853 0.82005 0.13038 0.0
C514 C 0.02202 0.82343 0.13749 0.0
C515 C 0.0598 0.85855 0.13617 0.0
C516 C 0.01794 0.79176 0.14689 0.0
C517 C 0.9467 0.78425 0.13196 0.0
C518 C 0.0282 0.80145 0.16038 0.0
C519 C 0.02195 0.77135 0.16948 0.0
C520 C 0.00561 0.73101 0.16525 0.0
C521 C 0.99604 0.72149 0.15168 0.0
C522 C 0.00263 0.75171 0.14256 0.0
H523 H 0.9234 0.79125 0.12864 0.0
H524 H 0.94304 0.75864 0.12581 0.0
H525 H 0.94126 0.77433 0.14248 0.0
H526 H 0.03999 0.83213 0.16394 0.0
H527 H 0.029 0.7794 0.1799 0.0
H528 H 0.21223 0.0929 0.40673 0.0
H529 H 0.24279 0.07753 0.4256 0.0
H530 H 0.12567 -0.00056 0.44165 0.0
H531 H 0.09484 0.0154 0.42297 0.0
H532 H 0.17897 0.04839 0.46053 0.0
H533 H 0.24483 0.9746 0.43177 0.0
H534 H 0.26044 0.02482 0.42622 0.0
H535 H 0.20849 0.98571 0.42461 0.0
C536 C 0.19291 0.07235 0.41425 0.0
C537 C 0.15104 0.05524 0.4133 0.0
C538 C 0.21044 0.06338 0.42499 0.0
C539 C 0.18646 0.0367 0.4349 0.0
C540 C 0.14472 0.01992 0.43407 0.0
H541 H 0.2615 0.92399 0.49484 0.0
H542 H 0.23205 0.93898 0.47545 0.0
C543 C 0.12716 0.02908 0.42338 0.0
C544 C 0.20494 0.02713 0.44632 0.0
H545 H 0.26563 0.98963 0.45452 0.0
C546 C 0.1978 0.0354 0.45922 0.0
C547 C 0.22904 0.00965 0.44461 0.0
C548 C 0.23587 -0.00222 0.43107 0.0
C549 C 0.21454 0.02722 0.47045 0.0
C550 C 0.23993 0.01124 0.4687 0.0
C551 C 0.24658 0.00237 0.45582 0.0
C552 C 0.25917 0.0027 0.48015 0.0
C553 C 0.20416 0.03501 0.48406 0.0
C554 C 0.2849 0.03371 0.48905 0.0
C555 C 0.30146 0.02514 0.50016 0.0
C556 C 0.29311 0.98552 0.50246 0.0
C557 C 0.26841 0.95477 0.4933 0.0
C558 C 0.25162 0.96331 0.48223 0.0
H559 H 0.17613 0.03622 0.48377 0.0
H560 H 0.20042 0.01122 0.49117 0.0
H561 H 0.22878 0.06462 0.48788 0.0
H562 H 0.29191 0.06451 0.48746 0.0
H563 H 0.32047 0.04942 0.50704 0.0
H564 H 0.1549 0.10766 0.77282 0.0
H565 H 0.19109 0.1546 0.79132 0.0
H566 H 0.17356 0.24536 0.77235 0.0
H567 H 0.13702 0.19864 0.75395 0.0
H568 H 0.26015 0.23496 0.79218 0.0
H569 H 0.12214 0.22998 0.80898 0.0
H570 H 0.12079 0.19375 0.7973 0.0
H571 H 0.13373 0.24348 0.79186 0.0
C572 C 0.15904 0.13772 0.77254 0.0
C573 C 0.1427 0.1493 0.76201 0.0
C574 C 0.17974 0.16449 0.7831 0.0
C575 C 0.18433 0.20313 0.78329 0.0
C576 C 0.16965 0.21537 0.7725 0.0
H577 H 0.27025 0.39524 0.84223 0.0
H578 H 0.24764 0.35504 0.82166 0.0
C579 C 0.14891 0.18867 0.76198 0.0
C580 C 0.20297 0.23009 0.79499 0.0
H581 H 0.18302 0.27674 0.81993 0.0
C582 C 0.24336 0.24409 0.79828 0.0
C583 C 0.18086 0.2418 0.80292 0.0
C584 C 0.13688 0.22625 0.8002 0.0
C585 C 0.26248 0.27019 0.8092 0.0
C586 C 0.24035 0.28195 0.8171 0.0
C587 C 0.19997 0.26787 0.81379 0.0
C588 C 0.25797 0.30811 0.82905 0.0
C589 C 0.30632 0.28553 0.81205 0.0
C590 C 0.27136 0.29508 0.83999 0.0
C591 C 0.28443 0.31807 0.85171 0.0
C592 C 0.28434 0.35447 0.85269 0.0
C593 C 0.27129 0.36766 0.84166 0.0
C594 C 0.25826 0.34469 0.82995 0.0
H595 H 0.32137 0.28265 0.8032 0.0
H596 H 0.32229 0.31772 0.8153 0.0
H597 H 0.30912 0.26746 0.82017 0.0
H598 H 0.27041 0.26645 0.83962 0.0
H599 H 0.29363 0.30689 0.86015 0.0
H600 H 0.94994 0.12879 0.71909 0.0
H601 H 0.90838 0.12971 0.70073 0.0
H602 H 0.9447 0.06283 0.67617 0.0
H603 H 0.98623 0.06124 0.69462 0.0
H604 H 0.9313 0.16158 0.67522 0.0
H605 H 0.82114 0.99602 0.67372 0.0
H606 H 0.85562 0.02035 0.68759 0.0
H607 H 0.87305 0.01087 0.67241 0.0
C608 C 0.94917 0.11418 0.70981 0.0
C609 C 0.97132 0.09475 0.70836 0.0
C610 C 0.92541 0.11483 0.69931 0.0
C611 C 0.92315 0.09599 0.68715 0.0
C612 C 0.94556 0.07699 0.68556 0.0
H613 H 0.80386 0.13763 0.61861 0.0
H614 H 0.85327 0.13011 0.63203 0.0
C615 C 0.9694 0.07628 0.69609 0.0
C616 C 0.89718 0.09659 0.67625 0.0
H617 H 0.81065 0.03642 0.65843 0.0
C618 C 0.90514 0.13423 0.67143 0.0
C619 C 0.86296 0.06081 0.67143 0.0
C620 C 0.85232 0.01967 0.67658 0.0
C621 C 0.87919 0.13718 0.66217 0.0
C622 C 0.84473 0.10143 0.65744 0.0
C623 C 0.83729 0.06371 0.66201 0.0
C624 C 0.81423 0.10282 0.64871 0.0
C625 C 0.88789 0.17861 0.65799 0.0
C626 C 0.77563 0.08882 0.65348 0.0
C627 C 0.74738 0.09272 0.64581 0.0
C628 C 0.75705 0.11032 0.63316 0.0
C629 C 0.79548 0.12351 0.62826 0.0
C630 C 0.82376 0.11953 0.63594 0.0
H631 H 0.91106 0.20294 0.66453 0.0
H632 H 0.89904 0.18443 0.64769 0.0
H633 H 0.86021 0.18041 0.65814 0.0
H634 H 0.76774 0.07597 0.66333 0.0
H635 H 0.7182 0.08281 0.64991 0.0
H636 H 0.89226 0.98073 0.03889 0.0
H637 H 0.84959 0.93662 0.02051 0.0
H638 H 0.94577 0.9193 0.00837 0.0
H639 H 0.98833 0.963 0.02651 0.0
H640 H 0.9097 0.94435 0.98778 0.0
H641 H 0.79865 0.81034 0.01624 0.0
H642 H 0.80878 0.85958 0.0214 0.0
H643 H 0.84723 0.847 0.02321 0.0
C644 C 0.90413 0.96725 0.03235 0.0
C645 C 0.94369 0.97542 0.03413 0.0
C646 C 0.87971 0.942 0.02191 0.0
C647 C 0.89455 0.92462 0.01316 0.0
C648 C 0.93379 0.93243 0.01503 0.0
H649 H 0.81181 0.74045 0.95405 0.0
H650 H 0.83346 0.78191 0.97436 0.0
C651 C 0.95806 0.95743 0.02542 0.0
C652 C 0.87033 0.89959 0.00163 0.0
H653 H 0.79281 0.8057 0.99286 0.0
C654 C 0.88378 0.91424 0.98885 0.0
C655 C 0.83683 0.86026 0.00315 0.0
C656 C 0.82191 0.84301 0.01671 0.0
C657 C 0.86532 0.89017 0.97751 0.0
C658 C 0.83215 0.85056 0.97901 0.0
C659 C 0.81805 0.8362 0.99178 0.0
C660 C 0.81409 0.82271 0.96746 0.0
C661 C 0.88263 0.90665 0.96407 0.0
C662 C 0.7951 0.83136 0.95703 0.0
C663 C 0.78276 0.80775 0.94542 0.0
C664 C 0.78882 0.77487 0.94414 0.0
C665 C 0.80638 0.76533 0.95484 0.0
C666 C 0.81873 0.78895 0.96642 0.0
H667 H 0.91262 0.93463 0.9649 0.0
H668 H 0.88542 0.88379 0.95822 0.0
H669 H 0.86224 0.914 0.95845 0.0
H670 H 0.79096 0.8571 0.9577 0.0
H671 H 0.76957 0.81591 0.93729 0.0
H672 H 0.98239 0.92891 0.36443 0.0
H673 H 0.96241 0.86594 0.35244 0.0
H674 H 0.07649 0.92317 0.3331 0.0
H675 H 0.09641 0.98649 0.34479 0.0
H676 H 0.01387 0.87554 0.31591 0.0
H677 H 0.0052 0.79195 0.36202 0.0
H678 H 0.97376 0.81366 0.36195 0.0
H679 H 0.02742 0.84617 0.36179 0.0
C680 C 0.00319 0.92819 0.35758 0.0
C681 C 0.04116 0.96268 0.35567 0.0
C682 C 0.99178 0.8921 0.35079 0.0
C683 C 0.01829 0.88967 0.34208 0.0
C684 C 0.05566 0.92435 0.33982 0.0
H685 H 0.0081 0.6694 0.31746 0.0
H686 H 0.02733 0.73631 0.32624 0.0
C687 C 0.067 0.96051 0.34654 0.0
C688 C 0.0076 0.8508 0.33555 0.0
H689 H 0.98295 0.75367 0.34203 0.0
C690 C 0.00712 0.84885 0.32161 0.0
C691 C -0.00055 0.81625 0.34301 0.0
C692 C 0.00182 0.81706 0.35802 0.0
C693 C -0.00164 0.81314 0.31491 0.0
C694 C 0.9891 0.77828 0.32238 0.0
C695 C 0.98981 0.78035 0.33632 0.0
C696 C 0.97923 0.73939 0.31604 0.0
C697 C 6e-05 0.81338 0.29994 0.0
C698 C 0.94604 0.71904 0.30728 0.0
C699 C 0.93527 0.68097 0.30213 0.0
C700 C 0.95725 0.66239 0.3058 0.0
C701 C 0.99076 0.68308 0.31442 0.0
C702 C 0.00168 0.72122 0.31946 0.0
H703 H 0.01821 0.84462 0.29606 0.0
H704 H 0.01297 0.79519 0.29641 0.0
H705 H 0.9692 0.8 0.29567 0.0
H706 H 0.92774 0.73204 0.30472 0.0
H707 H 0.90913 0.66549 0.29559 0.0
H708 H 0.13855 0.08968 0.69056 0.0
H709 H 0.18283 0.08292 0.67529 0.0
H710 H 0.17063 0.98134 0.69758 0.0
H711 H 0.12629 0.9881 0.71305 0.0
H712 H 0.25016 0.04093 0.69277 0.0
H713 H 0.1587 -0.00097 0.64617 0.0
H714 H 0.16317 0.04287 0.65416 0.0
H715 H 0.13751 0.9947 0.66234 0.0
C716 C 0.14483 0.06555 0.69214 0.0
C717 C 0.12888 0.0394 0.70302 0.0
C718 C 0.16994 0.06156 0.68334 0.0
C719 C 0.17951 0.03124 0.68518 0.0
C720 C 0.1633 0.00472 0.69593 0.0
H721 H 0.36855 0.01321 0.64422 0.0
H722 H 0.31062 0.99588 0.65803 0.0
C723 C 0.13798 0.0086 0.70474 0.0
C724 C 0.20889 0.02957 0.67643 0.0
H725 H 0.22934 0.02556 0.64382 0.0
C726 C 0.24541 0.03684 0.68209 0.0
C727 C 0.20255 0.02425 0.6625 0.0
C728 C 0.16319 0.01438 0.65594 0.0
C729 C 0.27664 0.04118 0.67413 0.0
C730 C 0.27084 0.03741 0.66015 0.0
C731 C 0.23375 0.02857 0.65453 0.0
C732 C 0.30385 0.04551 0.65115 0.0
C733 C 0.31626 0.0518 0.68068 0.0
C734 C 0.31839 0.07836 0.64243 0.0
C735 C 0.35109 0.08803 0.63446 0.0
C736 C 0.3696 0.06473 0.63493 0.0
C737 C 0.35451 0.03134 0.64351 0.0
C738 C 0.3217 0.02164 0.65148 0.0
H739 H 0.31838 0.06162 0.69119 0.0
H740 H 0.31964 0.02483 0.68057 0.0
H741 H 0.34164 0.07633 0.6752 0.0
H742 H 0.3051 0.09723 0.64206 0.0
H743 H 0.36246 0.11427 0.62811 0.0
H744 H 0.16118 0.14659 0.05093 0.0
H745 H 0.22294 0.19018 0.03888 0.0
H746 H 0.15488 0.21234 0.00913 0.0
H747 H 0.09331 0.16919 0.021 0.0
H748 H 0.20945 0.18613 -0.0004 0.0
H749 H 0.28102 0.31771 0.0346 0.0
H750 H 0.26185 0.26793 0.04143 0.0
H751 H 0.2277 0.28172 0.03436 0.0
C752 C 0.15939 0.16089 0.04186 0.0
C753 C 0.12226 0.15439 0.03695 0.0
C754 C 0.1947 0.18587 0.03503 0.0
C755 C 0.19336 0.2046 0.02319 0.0
C756 C 0.15646 0.19821 0.01828 0.0
H757 H 0.35992 0.38689 0.97092 0.0
H758 H 0.30842 0.34646 0.98711 0.0
C759 C 0.12131 0.17353 0.02511 0.0
C760 C 0.23 0.22985 0.01555 0.0
H761 H 0.31633 0.32217 0.01524 0.0
C762 C 0.23304 0.21572 0.00305 0.0
C763 C 0.26038 0.26852 0.02008 0.0
C764 C 0.25777 0.28523 0.03331 0.0
C765 C 0.26558 0.23946 0.99487 0.0
C766 C 0.29591 0.27821 -0.00063 0.0
C767 C 0.29308 0.29229 0.01191 0.0
C768 C 0.32972 0.30508 0.99082 0.0
C769 C 0.26678 0.22351 0.98131 0.0
C770 C 0.35908 0.29555 0.9878 0.0
C771 C 0.38865 0.31872 0.97865 0.0
C772 C 0.38953 0.352 0.97244 0.0
C773 C 0.36053 0.36199 0.97575 0.0
C774 C 0.33108 0.33889 0.98495 0.0
H775 H 0.23793 0.19585 0.97851 0.0
H776 H 0.27383 0.24689 0.97363 0.0
H777 H 0.29082 0.21592 0.98129 0.0
H778 H 0.35842 0.26952 0.99224 0.0
H779 H 0.41017 0.30993 0.97611 0.0
H780 H 0.01268 0.13456 0.354 0.0
H781 H 0.02613 0.19636 0.34251 0.0
H782 H 0.14384 0.26106 0.36117 0.0
H783 H 0.13047 0.19963 0.37282 0.0
H784 H 0.10181 0.30081 0.36324 0.0
H785 H 0.09893 0.25276 0.31107 0.0
H786 H 0.05515 0.2189 0.32022 0.0
H787 H 0.10308 0.22572 0.32514 0.0
C788 C 0.04154 0.16188 0.35558 0.0
C789 C 0.07053 0.16222 0.36431 0.0
C790 C 0.04927 0.19708 0.34894 0.0
C791 C 0.08619 0.23312 0.35084 0.0
C792 C 0.11522 0.23349 0.35951 0.0
H793 H 0.18253 0.46012 0.30826 0.0
H794 H 0.1686 0.39471 0.31711 0.0
C795 C 0.10752 0.19836 0.36616 0.0
C796 C 0.09386 0.27104 0.34438 0.0
H797 H 0.10021 0.31478 0.31421 0.0
C798 C 0.10158 0.30391 0.35252 0.0
C799 C 0.09396 0.2751 0.3304 0.0
C800 C 0.08771 0.2414 0.32117 0.0
C801 C 0.10883 0.3406 0.34707 0.0
C802 C 0.10764 0.34425 0.3331 0.0
C803 C 0.10062 0.31165 0.32493 0.0
C804 C 0.1142 0.38201 0.32685 0.0
C805 C 0.11827 0.37536 0.35632 0.0
C806 C 0.08769 0.3959 0.32913 0.0
C807 C 0.09555 0.43309 0.32409 0.0
C808 C 0.12982 0.4568 0.31655 0.0
C809 C 0.15569 0.44221 0.31392 0.0
C810 C 0.14781 0.40498 0.31898 0.0
H811 H 0.12768 0.37099 0.3664 0.0
H812 H 0.14245 0.40444 0.35231 0.0
H813 H 0.09106 0.37765 0.35733 0.0
H814 H 0.06129 0.37831 0.33503 0.0
H815 H 0.07529 0.44374 0.32633 0.0
loop_
_geom_bond_atom_site_label_1
_geom_bond_atom_site_label_2
_geom_bond_distance
_geom_bond_site_symmetry_2
_ccdc_geom_bond_type
C0 O1 1.306 . S
C0 O3 1.160 . S
O1 C0 1.306 . S
O1 Cd2 2.228 . S
Cd2 O1 2.228 . S
Cd2 O6 2.273 1_455 S
Cd2 O10 2.277 . S
O3 C0 1.160 . S
O3 Cd4 2.203 . S
Cd4 O3 2.203 . S
Cd4 O6 2.411 1_455 S
Cd4 O7 2.333 1_545 S
Cd4 O8 2.352 1_545 S
Cd4 O12 2.277 . S
Cd4 O13 2.359 . S
C5 O10 1.209 . S
C5 O12 1.226 . S
O6 Cd2 2.273 1_655 S
O6 Cd4 2.411 1_655 S
O6 C9 1.320 1_545 S
O7 Cd4 2.333 1_565 S
O7 C9 1.214 1_455 S
O8 Cd4 2.352 1_565 S
O8 C11 1.258 . S
C9 O6 1.320 1_565 S
C9 O7 1.214 1_655 S
O10 Cd2 2.277 . S
O10 C5 1.209 . S
C11 O8 1.258 . S
C11 O13 1.282 1_565 S
O12 Cd4 2.277 . S
O12 C5 1.226 . S
O13 Cd4 2.359 . S
O13 C11 1.282 1_545 S
C14 O15 1.306 . S
C14 O17 1.160 . S
O15 C14 1.306 . S
O15 Cd16 2.228 . S
Cd16 O15 2.228 . S
Cd16 O20 2.273 . S
Cd16 O24 2.277 . S
O17 C14 1.160 . S
O17 Cd18 2.203 . S
Cd18 O17 2.203 . S
Cd18 O20 2.411 . S
Cd18 O21 2.333 . S
Cd18 O22 2.352 . S
Cd18 O26 2.277 1_545 S
Cd18 O27 2.356 1_455 S
C19 O24 1.209 1_565 S
C19 O26 1.226 . S
O20 Cd16 2.273 . S
O20 Cd18 2.411 . S
O20 C23 1.320 . S
O21 Cd18 2.333 . S
O21 C23 1.214 . S
O22 Cd18 2.352 . S
O22 C25 1.258 1_455 S
C23 O20 1.320 . S
C23 O21 1.214 . S
O24 Cd16 2.277 . S
O24 C19 1.209 1_545 S
C25 O22 1.258 1_655 S
C25 O27 1.282 . S
O26 Cd18 2.277 1_565 S
O26 C19 1.226 . S
O27 Cd18 2.356 1_655 S
O27 C25 1.282 . S
C28 O29 1.306 . S
C28 O31 1.160 1_655 S
O29 C28 1.306 . S
O29 Cd30 2.228 1_655 S
Cd30 O29 2.228 1_455 S
Cd30 O34 2.273 . S
Cd30 O38 2.277 1_455 S
O31 C28 1.160 1_455 S
O31 Cd32 2.203 . S
Cd32 O31 2.203 . S
Cd32 O34 2.411 . S
Cd32 O35 2.333 . S
Cd32 O36 2.352 . S
Cd32 O40 2.277 1_545 S
Cd32 O41 2.356 . S
C33 O38 1.209 1_565 S
C33 O40 1.226 1_655 S
O34 Cd30 2.273 . S
O34 Cd32 2.411 . S
O34 C37 1.320 . S
O35 Cd32 2.333 . S
O35 C37 1.214 . S
O36 Cd32 2.352 . S
O36 C39 1.258 . S
C37 O34 1.320 . S
C37 O35 1.214 . S
O38 Cd30 2.277 1_655 S
O38 C33 1.209 1_545 S
C39 O36 1.258 . S
C39 O41 1.282 . S
O40 Cd32 2.277 1_565 S
O40 C33 1.226 1_455 S
O41 Cd32 2.356 . S
O41 C39 1.282 . S
C42 C43 1.560 . S
C42 H103 0.959 1_455 S
C42 H104 0.959 1_455 S
C42 H105 0.960 . S
C43 C42 1.560 . S
C43 O98 1.426 . S
C43 H102 0.980 . S
C44 C45 1.407 . S
C44 C49 1.418 . S
C44 O98 1.334 . S
C45 C44 1.407 . S
C45 C46 1.360 . S
C45 H106 0.929 . S
C46 C45 1.360 . S
C46 C47 1.401 . S
C46 C50 1.527 . S
C47 C46 1.401 . S
C47 C48 1.405 . S
C47 C80 1.587 . S
C48 C47 1.405 . S
C48 C49 1.332 . S
C48 C51 1.496 1_455 S
C49 C44 1.418 . S
C49 C48 1.332 . S
C49 H107 0.929 1_455 S
C50 C46 1.527 . S
C50 H108 0.959 . S
C50 H109 0.961 . S
C50 H110 0.961 . S
C51 C48 1.496 1_655 S
C51 H111 0.960 . S
C51 H112 0.960 . S
C51 H113 0.961 . S
C52 C53 1.517 . S
C52 H115 0.961 . S
C52 H116 0.960 . S
C52 H117 0.959 . S
C53 C52 1.517 . S
C53 O101 1.468 . S
C53 H114 0.980 . S
C54 C55 1.349 . S
C54 C59 1.367 . S
C54 O101 1.408 . S
C55 C54 1.349 . S
C55 C56 1.407 . S
C55 H118 0.930 . S
C56 C55 1.407 . S
C56 C57 1.449 . S
C56 C60 1.535 . S
C57 C56 1.449 . S
C57 C58 1.384 . S
C57 C82 1.553 . S
C58 C57 1.384 . S
C58 C59 1.364 . S
C58 C61 1.450 . S
C59 C54 1.367 . S
C59 C58 1.364 . S
C59 H119 0.931 . S
C60 C56 1.535 . S
C60 H120 0.959 . S
C60 H121 0.961 . S
C60 H122 0.959 . S
C61 C58 1.450 . S
C61 H123 0.960 . S
C61 H124 0.960 . S
C61 H125 0.960 . S
C62 C63 1.309 . S
C62 C67 1.304 . S
C62 O100 1.435 . S
C63 C62 1.309 . S
C63 C64 1.476 . S
C63 H127 0.930 . S
C64 C63 1.476 . S
C64 C65 1.400 . S
C64 C68 1.567 . S
C65 C64 1.400 . S
C65 C66 1.373 . S
C65 C87 1.432 . S
C66 C65 1.373 . S
C66 C67 1.339 . S
C66 C69 1.530 . S
C67 C62 1.304 . S
C67 C66 1.339 . S
C67 H128 0.930 . S
C68 C64 1.567 . S
C68 H129 0.961 . S
C68 H130 0.960 1_455 S
C68 H131 0.958 1_455 S
C69 C66 1.530 . S
C69 H132 0.961 . S
C69 H133 0.960 . S
C69 H134 0.960 . S
C70 C71 1.530 . S
C70 H136 0.961 . S
C70 H137 0.961 . S
C70 H138 0.959 . S
C71 C70 1.530 . S
C71 O99 1.412 . S
C71 H135 0.980 . S
C72 C73 1.288 . S
C72 C77 1.377 . S
C72 O99 1.393 . S
C73 C72 1.288 . S
C73 C74 1.369 . S
C73 H139 0.932 1_455 S
C74 C73 1.369 . S
C74 C75 1.398 . S
C74 C78 1.527 1_455 S
C75 C74 1.398 . S
C75 C76 1.380 . S
C75 C89 1.497 . S
C76 C75 1.380 . S
C76 C77 1.383 . S
C76 C79 1.603 . S
C77 C72 1.377 . S
C77 C76 1.383 . S
C77 H140 0.929 . S
C78 C74 1.527 1_655 S
C78 H141 0.961 . S
C78 H142 0.959 . S
C78 H143 0.959 . S
C79 C76 1.603 . S
C79 H144 0.960 . S
C79 H145 0.962 . S
C79 H146 0.961 . S
C80 C47 1.587 . S
C80 C81 1.360 . S
C80 C93 1.412 . S
C81 C80 1.360 . S
C81 C82 1.365 . S
C81 H147 0.929 . S
C82 C57 1.553 . S
C82 C81 1.365 . S
C82 C83 1.404 . S
C83 C82 1.404 . S
C83 C84 1.395 . S
C83 C94 1.451 . S
C84 C83 1.395 . S
C84 C85 1.322 . S
C84 H148 0.930 . S
C85 C84 1.322 . S
C85 C86 1.459 . S
C85 H149 0.929 . S
C86 C85 1.459 . S
C86 C87 1.445 . S
C86 C95 1.395 . S
C87 C65 1.432 . S
C87 C86 1.445 . S
C87 C88 1.370 . S
C88 C87 1.370 . S
C88 C89 1.438 . S
C88 H150 0.930 . S
C89 C75 1.497 . S
C89 C88 1.438 . S
C89 C90 1.360 . S
C90 C89 1.360 . S
C90 C91 1.401 . S
C90 C95 1.446 . S
C91 C90 1.401 . S
C91 C92 1.347 . S
C91 H151 0.929 . S
C92 C91 1.347 . S
C92 C93 1.455 . S
C92 H152 0.930 . S
C93 C80 1.412 . S
C93 C92 1.455 . S
C93 C94 1.331 . S
C94 C83 1.451 . S
C94 C93 1.331 . S
C94 C95 1.497 . S
C95 C86 1.395 . S
C95 C90 1.446 . S
C95 C94 1.497 . S
C96 C97 1.582 . S
C96 H153 0.962 . S
C96 H154 0.959 . S
C96 H155 0.958 . S
C97 C96 1.582 . S
C97 O100 1.458 . S
C97 H126 0.980 . S
O98 C43 1.426 . S
O98 C44 1.334 . S
O99 C71 1.412 . S
O99 C72 1.393 . S
O100 C62 1.435 . S
O100 C97 1.458 . S
O101 C53 1.468 . S
O101 C54 1.408 . S
H102 C43 0.980 . S
H103 C42 0.959 1_655 S
H104 C42 0.959 1_655 S
H105 C42 0.960 . S
H106 C45 0.929 . S
H107 C49 0.929 1_655 S
H108 C50 0.959 . S
H109 C50 0.961 . S
H110 C50 0.961 . S
H111 C51 0.960 . S
H112 C51 0.960 . S
H113 C51 0.961 . S
H114 C53 0.980 . S
H115 C52 0.961 . S
H116 C52 0.960 . S
H117 C52 0.959 . S
H118 C55 0.930 . S
H119 C59 0.931 . S
H120 C60 0.959 . S
H121 C60 0.961 . S
H122 C60 0.959 . S
H123 C61 0.960 . S
H124 C61 0.960 . S
H125 C61 0.960 . S
H126 C97 0.980 . S
H127 C63 0.930 . S
H128 C67 0.930 . S
H129 C68 0.961 . S
H130 C68 0.960 1_655 S
H131 C68 0.958 1_655 S
H132 C69 0.961 . S
H133 C69 0.960 . S
H134 C69 0.960 . S
H135 C71 0.980 . S
H136 C70 0.961 . S
H137 C70 0.961 . S
H138 C70 0.959 . S
H139 C73 0.932 1_655 S
H140 C77 0.929 . S
H141 C78 0.961 . S
H142 C78 0.959 . S
H143 C78 0.959 . S
H144 C79 0.960 . S
H145 C79 0.962 . S
H146 C79 0.961 . S
H147 C81 0.929 . S
H148 C84 0.930 . S
H149 C85 0.929 . S
H150 C88 0.930 . S
H151 C91 0.929 . S
H152 C92 0.930 . S
H153 C96 0.962 . S
H154 C96 0.959 . S
H155 C96 0.958 . S
C156 C157 1.560 1_565 S
C156 H217 0.959 . S
C156 H218 0.959 . S
C156 H219 0.960 1_565 S
C157 C156 1.560 1_545 S
C157 O212 1.426 . S
C157 H216 0.980 . S
C158 C159 1.407 . S
C158 C163 1.402 1_545 S
C158 O212 1.334 . S
C159 C158 1.407 . S
C159 C160 1.360 . S
C159 H220 0.929 . S
C160 C159 1.360 . S
C160 C161 1.401 . S
C160 C164 1.527 . S
C161 C160 1.401 . S
C161 C162 1.405 . S
C161 C194 1.587 . S
C162 C161 1.405 . S
C162 C163 1.335 1_545 S
C162 C165 1.496 1_545 S
C163 C158 1.402 1_565 S
C163 C162 1.335 1_565 S
C163 H221 0.943 . S
C164 C160 1.527 . S
C164 H222 0.959 . S
C164 H223 0.961 . S
C164 H224 0.961 . S
C165 C162 1.496 1_565 S
C165 H225 0.960 . S
C165 H226 0.960 . S
C165 H227 0.961 . S
C166 C167 1.517 . S
C166 H229 0.961 . S
C166 H230 0.960 . S
C166 H231 0.959 . S
C167 C166 1.517 . S
C167 O215 1.468 . S
C167 H228 0.980 . S
C168 C169 1.349 . S
C168 C173 1.367 . S
C168 O215 1.408 . S
C169 C168 1.349 . S
C169 C170 1.407 . S
C169 H232 0.930 . S
C170 C169 1.407 . S
C170 C171 1.449 . S
C170 C174 1.535 . S
C171 C170 1.449 . S
C171 C172 1.384 . S
C171 C196 1.553 . S
C172 C171 1.384 . S
C172 C173 1.364 . S
C172 C175 1.450 . S
C173 C168 1.367 . S
C173 C172 1.364 . S
C173 H233 0.931 . S
C174 C170 1.535 . S
C174 H234 0.959 . S
C174 H235 0.961 1_545 S
C174 H236 0.959 1_545 S
C175 C172 1.450 . S
C175 H237 0.960 . S
C175 H238 0.960 . S
C175 H239 0.960 . S
C176 C177 1.309 . S
C176 C181 1.304 . S
C176 O214 1.435 . S
C177 C176 1.309 . S
C177 C178 1.476 . S
C177 H241 0.930 . S
C178 C177 1.476 . S
C178 C179 1.400 . S
C178 C182 1.572 . S
C179 C178 1.400 . S
C179 C180 1.373 . S
C179 C201 1.432 . S
C180 C179 1.373 . S
C180 C181 1.339 . S
C180 C183 1.530 . S
C181 C176 1.304 . S
C181 C180 1.339 . S
C181 H242 0.930 . S
C182 C178 1.572 . S
C182 H243 0.964 . S
C182 H244 0.954 1_545 S
C182 H245 0.956 1_545 S
C183 C180 1.530 . S
C183 H246 0.961 . S
C183 H247 0.960 . S
C183 H248 0.960 . S
C184 C185 1.530 . S
C184 H250 0.961 . S
C184 H251 0.961 1_545 S
C184 H252 0.959 1_545 S
C185 C184 1.530 . S
C185 O213 1.412 . S
C185 H249 0.980 . S
C186 C187 1.288 1_545 S
C186 C191 1.377 . S
C186 O213 1.393 . S
C187 C186 1.288 1_565 S
C187 C188 1.369 1_565 S
C187 H253 0.932 . S
C188 C187 1.369 1_545 S
C188 C189 1.398 . S
C188 C192 1.527 1_545 S
C189 C188 1.398 . S
C189 C190 1.380 . S
C189 C203 1.497 . S
C190 C189 1.380 . S
C190 C191 1.383 . S
C190 C193 1.603 . S
C191 C186 1.377 . S
C191 C190 1.383 . S
C191 H254 0.929 . S
C192 C188 1.527 1_565 S
C192 H255 0.961 . S
C192 H256 0.959 . S
C192 H257 0.959 . S
C193 C190 1.603 . S
C193 H258 0.960 . S
C193 H259 0.962 . S
C193 H260 0.961 . S
C194 C161 1.587 . S
C194 C195 1.360 . S
C194 C207 1.412 . S
C195 C194 1.360 . S
C195 C196 1.365 . S
C195 H261 0.929 . S
C196 C171 1.553 . S
C196 C195 1.365 . S
C196 C197 1.404 . S
C197 C196 1.404 . S
C197 C198 1.395 . S
C197 C208 1.451 . S
C198 C197 1.395 . S
C198 C199 1.322 . S
C198 H262 0.930 . S
C199 C198 1.322 . S
C199 C200 1.459 . S
C199 H263 0.929 . S
C200 C199 1.459 . S
C200 C201 1.445 . S
C200 C209 1.395 . S
C201 C179 1.432 . S
C201 C200 1.445 . S
C201 C202 1.370 . S
C202 C201 1.370 . S
C202 C203 1.438 . S
C202 H264 0.930 . S
C203 C189 1.497 . S
C203 C202 1.438 . S
C203 C204 1.360 . S
C204 C203 1.360 . S
C204 C205 1.401 . S
C204 C209 1.446 . S
C205 C204 1.401 . S
C205 C206 1.347 . S
C205 H265 0.929 . S
C206 C205 1.347 . S
C206 C207 1.455 . S
C206 H266 0.930 . S
C207 C194 1.412 . S
C207 C206 1.455 . S
C207 C208 1.331 . S
C208 C197 1.451 . S
C208 C207 1.331 . S
C208 C209 1.497 . S
C209 C200 1.395 . S
C209 C204 1.446 . S
C209 C208 1.497 . S
C210 C211 1.582 . S
C210 H267 0.962 . S
C210 H268 0.959 . S
C210 H269 0.958 . S
C211 C210 1.582 . S
C211 O214 1.458 . S
C211 H240 0.980 . S
O212 C157 1.426 . S
O212 C158 1.334 . S
O213 C185 1.412 . S
O213 C186 1.393 . S
O214 C176 1.435 . S
O214 C211 1.458 . S
O215 C167 1.468 . S
O215 C168 1.408 . S
H216 C157 0.980 . S
H217 C156 0.959 . S
H218 C156 0.959 . S
H219 C156 0.960 1_545 S
H220 C159 0.929 . S
H221 C163 0.943 . S
H222 C164 0.959 . S
H223 C164 0.961 . S
H224 C164 0.961 . S
H225 C165 0.960 . S
H226 C165 0.960 . S
H227 C165 0.961 . S
H228 C167 0.980 . S
H229 C166 0.961 . S
H230 C166 0.960 . S
H231 C166 0.959 . S
H232 C169 0.930 . S
H233 C173 0.931 . S
H234 C174 0.959 . S
H235 C174 0.961 1_565 S
H236 C174 0.959 1_565 S
H237 C175 0.960 . S
H238 C175 0.960 . S
H239 C175 0.960 . S
H240 C211 0.980 . S
H241 C177 0.930 . S
H242 C181 0.930 . S
H243 C182 0.964 . S
H244 C182 0.954 1_565 S
H245 C182 0.956 1_565 S
H246 C183 0.961 . S
H247 C183 0.960 . S
H248 C183 0.960 . S
H249 C185 0.980 . S
H250 C184 0.961 . S
H251 C184 0.961 1_565 S
H252 C184 0.959 1_565 S
H253 C187 0.932 . S
H254 C191 0.929 . S
H255 C192 0.961 . S
H256 C192 0.959 . S
H257 C192 0.959 . S
H258 C193 0.960 . S
H259 C193 0.962 . S
H260 C193 0.961 . S
H261 C195 0.929 . S
H262 C198 0.930 . S
H263 C199 0.929 . S
H264 C202 0.930 . S
H265 C205 0.929 . S
H266 C206 0.930 . S
H267 C210 0.962 . S
H268 C210 0.959 . S
H269 C210 0.958 . S
C270 C271 1.560 . S
C270 H331 0.959 . S
C270 H332 0.959 . S
C270 H333 0.960 . S
C271 C270 1.560 . S
C271 O326 1.426 . S
C271 H330 0.980 . S
C272 C273 1.407 . S
C272 C277 1.418 . S
C272 O326 1.334 . S
C273 C272 1.407 . S
C273 C274 1.360 . S
C273 H334 0.929 . S
C274 C273 1.360 . S
C274 C275 1.401 . S
C274 C278 1.527 . S
C275 C274 1.401 . S
C275 C276 1.405 . S
C275 C308 1.587 . S
C276 C275 1.405 . S
C276 C277 1.332 . S
C276 C279 1.496 . S
C277 C272 1.418 . S
C277 C276 1.332 . S
C277 H335 0.929 . S
C278 C274 1.527 . S
C278 H336 0.959 . S
C278 H337 0.961 . S
C278 H338 0.961 . S
C279 C276 1.496 . S
C279 H339 0.960 . S
C279 H340 0.960 . S
C279 H341 0.961 . S
C280 C281 1.517 . S
C280 H343 0.961 . S
C280 H344 0.960 . S
C280 H345 0.959 . S
C281 C280 1.517 . S
C281 O329 1.468 . S
C281 H342 0.980 . S
C282 C283 1.349 . S
C282 C287 1.367 . S
C282 O329 1.408 . S
C283 C282 1.349 . S
C283 C284 1.407 . S
C283 H346 0.930 . S
C284 C283 1.407 . S
C284 C285 1.449 . S
C284 C288 1.535 . S
C285 C284 1.449 . S
C285 C286 1.384 . S
C285 C310 1.553 . S
C286 C285 1.384 . S
C286 C287 1.364 . S
C286 C289 1.450 . S
C287 C282 1.367 . S
C287 C286 1.364 . S
C287 H347 0.931 . S
C288 C284 1.535 . S
C288 H348 0.959 . S
C288 H349 0.961 . S
C288 H350 0.959 . S
C289 C286 1.450 . S
C289 H351 0.960 . S
C289 H352 0.960 . S
C289 H353 0.960 . S
C290 C291 1.309 . S
C290 C295 1.304 . S
C290 O328 1.435 . S
C291 C290 1.309 . S
C291 C292 1.476 . S
C291 H355 0.930 . S
C292 C291 1.476 . S
C292 C293 1.400 . S
C292 C296 1.567 . S
C293 C292 1.400 . S
C293 C294 1.373 . S
C293 C315 1.432 . S
C294 C293 1.373 . S
C294 C295 1.339 . S
C294 C297 1.530 . S
C295 C290 1.304 . S
C295 C294 1.339 . S
C295 H356 0.930 . S
C296 C292 1.567 . S
C296 H357 0.961 . S
C296 H358 0.960 . S
C296 H359 0.958 . S
C297 C294 1.530 . S
C297 H360 0.961 . S
C297 H361 0.960 . S
C297 H362 0.960 . S
C298 C299 1.530 . S
C298 H364 0.961 . S
C298 H365 0.961 . S
C298 H366 0.959 . S
C299 C298 1.530 . S
C299 O327 1.412 . S
C299 H363 0.980 . S
C300 C301 1.288 . S
C300 C305 1.377 . S
C300 O327 1.393 . S
C301 C300 1.288 . S
C301 C302 1.369 . S
C301 H367 0.932 . S
C302 C301 1.369 . S
C302 C303 1.398 . S
C302 C306 1.527 . S
C303 C302 1.398 . S
C303 C304 1.380 . S
C303 C317 1.497 . S
C304 C303 1.380 . S
C304 C305 1.383 . S
C304 C307 1.603 . S
C305 C300 1.377 . S
C305 C304 1.383 . S
C305 H368 0.929 . S
C306 C302 1.527 . S
C306 H369 0.961 . S
C306 H370 0.959 . S
C306 H371 0.959 . S
C307 C304 1.603 . S
C307 H372 0.960 . S
C307 H373 0.962 . S
C307 H374 0.961 . S
C308 C275 1.587 . S
C308 C309 1.360 . S
C308 C321 1.412 . S
C309 C308 1.360 . S
C309 C310 1.365 . S
C309 H375 0.929 . S
C310 C285 1.553 . S
C310 C309 1.365 . S
C310 C311 1.404 . S
C311 C310 1.404 . S
C311 C312 1.395 . S
C311 C322 1.451 . S
C312 C311 1.395 . S
C312 C313 1.322 . S
C312 H376 0.930 . S
C313 C312 1.322 . S
C313 C314 1.459 . S
C313 H377 0.929 . S
C314 C313 1.459 . S
C314 C315 1.445 . S
C314 C323 1.395 . S
C315 C293 1.432 . S
C315 C314 1.445 . S
C315 C316 1.370 . S
C316 C315 1.370 . S
C316 C317 1.438 . S
C316 H378 0.930 . S
C317 C303 1.497 . S
C317 C316 1.438 . S
C317 C318 1.360 . S
C318 C317 1.360 . S
C318 C319 1.401 . S
C318 C323 1.446 . S
C319 C318 1.401 . S
C319 C320 1.347 . S
C319 H379 0.929 . S
C320 C319 1.347 . S
C320 C321 1.455 . S
C320 H380 0.930 . S
C321 C308 1.412 . S
C321 C320 1.455 . S
C321 C322 1.331 . S
C322 C311 1.451 . S
C322 C321 1.331 . S
C322 C323 1.497 . S
C323 C314 1.395 . S
C323 C318 1.446 . S
C323 C322 1.497 . S
C324 C325 1.582 . S
C324 H381 0.962 . S
C324 H382 0.959 . S
C324 H383 0.958 . S
C325 C324 1.582 . S
C325 O328 1.458 . S
C325 H354 0.980 . S
O326 C271 1.426 . S
O326 C272 1.334 . S
O327 C299 1.412 . S
O327 C300 1.393 . S
O328 C290 1.435 . S
O328 C325 1.458 . S
O329 C281 1.468 . S
O329 C282 1.408 . S
H330 C271 0.980 . S
H331 C270 0.959 . S
H332 C270 0.959 . S
H333 C270 0.960 . S
H334 C273 0.929 . S
H335 C277 0.929 . S
H336 C278 0.959 . S
H337 C278 0.961 . S
H338 C278 0.961 . S
H339 C279 0.960 . S
H340 C279 0.960 . S
H341 C279 0.961 . S
H342 C281 0.980 . S
H343 C280 0.961 . S
H344 C280 0.960 . S
H345 C280 0.959 . S
H346 C283 0.930 . S
H347 C287 0.931 . S
H348 C288 0.959 . S
H349 C288 0.961 . S
H350 C288 0.959 . S
H351 C289 0.960 . S
H352 C289 0.960 . S
H353 C289 0.960 . S
H354 C325 0.980 . S
H355 C291 0.930 . S
H356 C295 0.930 . S
H357 C296 0.961 . S
H358 C296 0.960 . S
H359 C296 0.958 . S
H360 C297 0.961 . S
H361 C297 0.960 . S
H362 C297 0.960 . S
H363 C299 0.980 . S
H364 C298 0.961 . S
H365 C298 0.961 . S
H366 C298 0.959 . S
H367 C301 0.932 . S
H368 C305 0.929 . S
H369 C306 0.961 . S
H370 C306 0.959 . S
H371 C306 0.959 . S
H372 C307 0.960 . S
H373 C307 0.962 . S
H374 C307 0.961 . S
H375 C309 0.929 . S
H376 C312 0.930 . S
H377 C313 0.929 . S
H378 C316 0.930 . S
H379 C319 0.929 . S
H380 C320 0.930 . S
H381 C324 0.962 . S
H382 C324 0.959 . S
H383 C324 0.958 . S
H384 C392 0.929 . S
H385 C394 0.930 . S
H386 C396 0.930 . S
H387 C399 0.929 . S
H388 C402 0.930 1_655 S
H389 C404 0.960 . S
H390 C404 0.960 . S
H391 C404 0.960 . S
C392 H384 0.929 . S
C392 C393 1.377 . S
C392 C394 1.384 . S
C393 C392 1.377 . S
C393 C399 1.390 . S
C394 H385 0.930 . S
C394 C392 1.384 . S
C394 C395 1.372 . S
C395 C394 1.372 . S
C395 C396 1.400 . S
C395 C400 1.490 . S
C396 H386 0.930 . S
C396 C395 1.400 . S
C396 C399 1.386 . S
H397 C413 0.930 . S
H398 C414 0.931 . S
C399 H387 0.929 . S
C399 C393 1.390 . S
C399 C396 1.386 . S
C400 C395 1.490 . S
C400 C402 1.395 . S
C400 C403 1.403 . S
H401 C407 0.930 . S
C402 H388 0.930 1_455 S
C402 C400 1.395 . S
C402 C405 1.403 . S
C403 C400 1.403 . S
C403 C404 1.524 . S
C403 C407 1.400 . S
C404 H389 0.960 . S
C404 H390 0.960 . S
C404 H391 0.960 . S
C404 C403 1.524 . S
C405 C402 1.403 . S
C405 C406 1.392 . S
C405 C409 1.495 1_455 S
C406 C405 1.392 . S
C406 C407 1.385 . S
C406 C408 1.478 . S
C407 H401 0.930 . S
C407 C403 1.400 . S
C407 C406 1.385 . S
C408 C406 1.478 . S
C408 C410 1.381 . S
C408 C414 1.383 . S
C409 C405 1.495 1_655 S
C409 H415 0.959 . S
C409 H416 0.961 . S
C409 H417 0.960 . S
C410 C408 1.381 . S
C410 C411 1.394 . S
C410 H418 0.930 . S
C411 C410 1.394 . S
C411 C412 1.383 . S
C411 H419 0.929 . S
C412 C411 1.383 . S
C412 C413 1.377 . S
C413 H397 0.930 . S
C413 C412 1.377 . S
C413 C414 1.379 . S
C414 H398 0.931 . S
C414 C408 1.383 . S
C414 C413 1.379 . S
H415 C409 0.959 . S
H416 C409 0.961 . S
H417 C409 0.960 . S
H418 C410 0.930 . S
H419 C411 0.929 . S
H420 C428 0.929 . S
H421 C430 0.930 . S
H422 C432 0.930 . S
H423 C435 0.929 . S
H424 C438 0.930 . S
H425 C440 0.957 . S
H426 C440 0.973 . S
H427 C440 0.954 1_545 S
C428 H420 0.929 . S
C428 C429 1.377 . S
C428 C430 1.384 . S
C429 C428 1.377 . S
C429 C435 1.390 . S
C430 H421 0.930 . S
C430 C428 1.384 . S
C430 C431 1.372 . S
C431 C430 1.372 . S
C431 C432 1.400 . S
C431 C436 1.490 . S
C432 H422 0.930 . S
C432 C431 1.400 . S
C432 C435 1.386 . S
H433 C449 0.930 . S
H434 C450 0.931 . S
C435 H423 0.929 . S
C435 C429 1.390 . S
C435 C432 1.386 . S
C436 C431 1.490 . S
C436 C438 1.395 . S
C436 C439 1.403 . S
H437 C443 0.930 . S
C438 H424 0.930 . S
C438 C436 1.395 . S
C438 C441 1.403 . S
C439 C436 1.403 . S
C439 C440 1.520 1_545 S
C439 C443 1.400 . S
C440 H425 0.957 . S
C440 H426 0.973 . S
C440 H427 0.954 1_565 S
C440 C439 1.520 1_565 S
C441 C438 1.403 . S
C441 C442 1.392 . S
C441 C445 1.495 . S
C442 C441 1.392 . S
C442 C443 1.385 . S
C442 C444 1.478 . S
C443 H437 0.930 . S
C443 C439 1.400 . S
C443 C442 1.385 . S
C444 C442 1.478 . S
C444 C446 1.381 . S
C444 C450 1.383 . S
C445 C441 1.495 . S
C445 H451 0.959 . S
C445 H452 0.961 . S
C445 H453 0.960 . S
C446 C444 1.381 . S
C446 C447 1.394 . S
C446 H454 0.930 . S
C447 C446 1.394 . S
C447 C448 1.383 . S
C447 H455 0.929 . S
C448 C447 1.383 . S
C448 C449 1.377 . S
C449 H433 0.930 . S
C449 C448 1.377 . S
C449 C450 1.379 . S
C450 H434 0.931 . S
C450 C444 1.383 . S
C450 C449 1.379 . S
H451 C445 0.959 . S
H452 C445 0.961 . S
H453 C445 0.960 . S
H454 C446 0.930 . S
H455 C447 0.929 . S
H456 C464 0.929 1_455 S
H457 C466 0.930 . S
H458 C468 0.930 . S
H459 C471 0.929 . S
H460 C474 0.930 . S
H461 C476 0.960 . S
H462 C476 0.960 . S
H463 C476 0.960 . S
C464 H456 0.929 1_655 S
C464 C465 1.377 . S
C464 C466 1.384 . S
C465 C464 1.377 . S
C465 C471 1.390 . S
C466 H457 0.930 . S
C466 C464 1.384 . S
C466 C467 1.372 . S
C467 C466 1.372 . S
C467 C468 1.400 . S
C467 C472 1.490 . S
C468 H458 0.930 . S
C468 C467 1.400 . S
C468 C471 1.386 . S
H469 C485 0.930 . S
H470 C486 0.931 . S
C471 H459 0.929 . S
C471 C465 1.390 . S
C471 C468 1.386 . S
C472 C467 1.490 . S
C472 C474 1.395 . S
C472 C475 1.403 . S
H473 C479 0.930 . S
C474 H460 0.930 . S
C474 C472 1.395 . S
C474 C477 1.403 . S
C475 C472 1.403 . S
C475 C476 1.524 . S
C475 C479 1.400 . S
C476 H461 0.960 . S
C476 H462 0.960 . S
C476 H463 0.960 . S
C476 C475 1.524 . S
C477 C474 1.403 . S
C477 C478 1.392 . S
C477 C481 1.495 . S
C478 C477 1.392 . S
C478 C479 1.385 . S
C478 C480 1.478 . S
C479 H473 0.930 . S
C479 C475 1.400 . S
C479 C478 1.385 . S
C480 C478 1.478 . S
C480 C482 1.381 . S
C480 C486 1.383 . S
C481 C477 1.495 . S
C481 H487 0.959 . S
C481 H488 0.961 . S
C481 H489 0.960 . S
C482 C480 1.381 . S
C482 C483 1.394 . S
C482 H490 0.930 . S
C483 C482 1.394 . S
C483 C484 1.383 . S
C483 H491 0.929 . S
C484 C483 1.383 . S
C484 C485 1.377 . S
C485 H469 0.930 . S
C485 C484 1.377 . S
C485 C486 1.379 . S
C486 H470 0.931 . S
C486 C480 1.383 . S
C486 C485 1.379 . S
H487 C481 0.959 . S
H488 C481 0.961 . S
H489 C481 0.960 . S
H490 C482 0.930 . S
H491 C483 0.929 . S
H492 C500 0.929 . S
H493 C502 0.930 . S
H494 C504 0.930 . S
H495 C507 0.929 . S
H496 C510 0.930 . S
H497 C512 0.960 . S
H498 C512 0.960 . S
H499 C512 0.960 . S
C500 H492 0.929 . S
C500 C501 1.377 . S
C500 C502 1.384 . S
C501 C500 1.377 . S
C501 C507 1.390 . S
C502 H493 0.930 . S
C502 C500 1.384 . S
C502 C503 1.372 . S
C503 C502 1.372 . S
C503 C504 1.400 . S
C503 C508 1.490 . S
C504 H494 0.930 . S
C504 C503 1.400 . S
C504 C507 1.386 . S
H505 C521 0.930 . S
H506 C522 0.931 . S
C507 H495 0.929 . S
C507 C501 1.390 . S
C507 C504 1.386 . S
C508 C503 1.490 . S
C508 C510 1.395 . S
C508 C511 1.403 . S
H509 C515 0.930 . S
C510 H496 0.930 . S
C510 C508 1.395 . S
C510 C513 1.403 . S
C511 C508 1.403 . S
C511 C512 1.524 . S
C511 C515 1.400 . S
C512 H497 0.960 . S
C512 H498 0.960 . S
C512 H499 0.960 . S
C512 C511 1.524 . S
C513 C510 1.403 . S
C513 C514 1.392 . S
C513 C517 1.495 . S
C514 C513 1.392 . S
C514 C515 1.385 . S
C514 C516 1.478 . S
C515 H509 0.930 . S
C515 C511 1.400 . S
C515 C514 1.385 . S
C516 C514 1.478 . S
C516 C518 1.381 . S
C516 C522 1.383 . S
C517 C513 1.495 . S
C517 H523 0.959 1_455 S
C517 H524 0.961 1_455 S
C517 H525 0.960 . S
C518 C516 1.381 . S
C518 C519 1.394 . S
C518 H526 0.930 . S
C519 C518 1.394 . S
C519 C520 1.383 . S
C519 H527 0.929 . S
C520 C519 1.383 . S
C520 C521 1.377 . S
C521 H505 0.930 . S
C521 C520 1.377 . S
C521 C522 1.379 . S
C522 H506 0.931 . S
C522 C516 1.383 . S
C522 C521 1.379 . S
H523 C517 0.959 1_655 S
H524 C517 0.961 1_655 S
H525 C517 0.960 . S
H526 C518 0.930 . S
H527 C519 0.929 . S
H528 C536 0.929 . S
H529 C538 0.930 . S
H530 C540 0.930 1_565 S
H531 C543 0.929 1_565 S
H532 C546 0.930 . S
H533 C548 0.960 . S
H534 C548 0.960 1_545 S
H535 C548 0.960 . S
C536 H528 0.929 . S
C536 C537 1.377 . S
C536 C538 1.384 . S
C537 C536 1.377 . S
C537 C543 1.390 . S
C538 H529 0.930 . S
C538 C536 1.384 . S
C538 C539 1.372 . S
C539 C538 1.372 . S
C539 C540 1.400 . S
C539 C544 1.490 . S
C540 H530 0.930 1_545 S
C540 C539 1.400 . S
C540 C543 1.386 . S
H541 C557 0.930 . S
H542 C558 0.931 . S
C543 H531 0.929 1_545 S
C543 C537 1.390 . S
C543 C540 1.386 . S
C544 C539 1.490 . S
C544 C546 1.395 . S
C544 C547 1.403 . S
H545 C551 0.930 . S
C546 H532 0.930 . S
C546 C544 1.395 . S
C546 C549 1.403 . S
C547 C544 1.403 . S
C547 C548 1.524 1_545 S
C547 C551 1.400 . S
C548 H533 0.960 . S
C548 H534 0.960 1_565 S
C548 H535 0.960 . S
C548 C547 1.524 1_565 S
C549 C546 1.403 . S
C549 C550 1.392 . S
C549 C553 1.495 . S
C550 C549 1.392 . S
C550 C551 1.385 . S
C550 C552 1.478 . S
C551 H545 0.930 . S
C551 C547 1.400 . S
C551 C550 1.385 . S
C552 C550 1.478 . S
C552 C554 1.381 . S
C552 C558 1.383 . S
C553 C549 1.495 . S
C553 H559 0.959 . S
C553 H560 0.961 . S
C553 H561 0.960 . S
C554 C552 1.381 . S
C554 C555 1.394 . S
C554 H562 0.930 . S
C555 C554 1.394 . S
C555 C556 1.383 . S
C555 H563 0.929 . S
C556 C555 1.383 . S
C556 C557 1.377 . S
C557 H541 0.930 . S
C557 C556 1.377 . S
C557 C558 1.379 . S
C558 H542 0.931 . S
C558 C552 1.383 . S
C558 C557 1.379 . S
H559 C553 0.959 . S
H560 C553 0.961 . S
H561 C553 0.960 . S
H562 C554 0.930 . S
H563 C555 0.929 . S
H564 C572 0.929 . S
H565 C574 0.930 . S
H566 C576 0.930 . S
H567 C579 0.929 . S
H568 C582 0.930 . S
H569 C584 0.960 . S
H570 C584 0.960 . S
H571 C584 0.960 . S
C572 H564 0.929 . S
C572 C573 1.377 . S
C572 C574 1.384 . S
C573 C572 1.377 . S
C573 C579 1.390 . S
C574 H565 0.930 . S
C574 C572 1.384 . S
C574 C575 1.372 . S
C575 C574 1.372 . S
C575 C576 1.400 . S
C575 C580 1.490 . S
C576 H566 0.930 . S
C576 C575 1.400 . S
C576 C579 1.386 . S
H577 C593 0.930 . S
H578 C594 0.931 . S
C579 H567 0.929 . S
C579 C573 1.390 . S
C579 C576 1.386 . S
C580 C575 1.490 . S
C580 C582 1.395 . S
C580 C583 1.403 . S
H581 C587 0.930 . S
C582 H568 0.930 . S
C582 C580 1.395 . S
C582 C585 1.403 . S
C583 C580 1.403 . S
C583 C584 1.524 . S
C583 C587 1.400 . S
C584 H569 0.960 . S
C584 H570 0.960 . S
C584 H571 0.960 . S
C584 C583 1.524 . S
C585 C582 1.403 . S
C585 C586 1.392 . S
C585 C589 1.495 . S
C586 C585 1.392 . S
C586 C587 1.385 . S
C586 C588 1.478 . S
C587 H581 0.930 . S
C587 C583 1.400 . S
C587 C586 1.385 . S
C588 C586 1.478 . S
C588 C590 1.381 . S
C588 C594 1.383 . S
C589 C585 1.495 . S
C589 H595 0.959 . S
C589 H596 0.961 . S
C589 H597 0.960 . S
C590 C588 1.381 . S
C590 C591 1.394 . S
C590 H598 0.930 . S
C591 C590 1.394 . S
C591 C592 1.383 . S
C591 H599 0.929 . S
C592 C591 1.383 . S
C592 C593 1.377 . S
C593 H577 0.930 . S
C593 C592 1.377 . S
C593 C594 1.379 . S
C594 H578 0.931 . S
C594 C588 1.383 . S
C594 C593 1.379 . S
H595 C589 0.959 . S
H596 C589 0.961 . S
H597 C589 0.960 . S
H598 C590 0.930 . S
H599 C591 0.929 . S
H600 C608 0.929 . S
H601 C610 0.930 . S
H602 C612 0.930 . S
H603 C615 0.929 1_455 S
H604 C618 0.930 . S
H605 C620 0.964 . S
H606 C620 0.960 1_565 S
H607 C620 0.960 . S
C608 H600 0.929 . S
C608 C609 1.377 . S
C608 C610 1.384 . S
C609 C608 1.377 . S
C609 C615 1.390 . S
C610 H601 0.930 . S
C610 C608 1.384 . S
C610 C611 1.372 . S
C611 C610 1.372 . S
C611 C612 1.400 . S
C611 C616 1.490 . S
C612 H602 0.930 . S
C612 C611 1.400 . S
C612 C615 1.386 . S
H613 C629 0.930 . S
H614 C630 0.931 . S
C615 H603 0.929 1_655 S
C615 C609 1.390 . S
C615 C612 1.386 . S
C616 C611 1.490 . S
C616 C618 1.395 . S
C616 C619 1.403 . S
H617 C623 0.930 . S
C618 H604 0.930 . S
C618 C616 1.395 . S
C618 C621 1.403 . S
C619 C616 1.403 . S
C619 C620 1.524 . S
C619 C623 1.400 . S
C620 H605 0.964 . S
C620 H606 0.960 1_545 S
C620 H607 0.960 . S
C620 C619 1.524 . S
C621 C618 1.403 . S
C621 C622 1.392 . S
C621 C625 1.495 . S
C622 C621 1.392 . S
C622 C623 1.385 . S
C622 C624 1.478 . S
C623 H617 0.930 . S
C623 C619 1.400 . S
C623 C622 1.385 . S
C624 C622 1.478 . S
C624 C626 1.381 . S
C624 C630 1.383 . S
C625 C621 1.495 . S
C625 H631 0.959 . S
C625 H632 0.961 . S
C625 H633 0.960 . S
C626 C624 1.381 . S
C626 C627 1.394 . S
C626 H634 0.930 . S
C627 C626 1.394 . S
C627 C628 1.383 . S
C627 H635 0.929 . S
C628 C627 1.383 . S
C628 C629 1.377 . S
C629 H613 0.930 . S
C629 C628 1.377 . S
C629 C630 1.379 . S
C630 H614 0.931 . S
C630 C624 1.383 . S
C630 C629 1.379 . S
H631 C625 0.959 . S
H632 C625 0.961 . S
H633 C625 0.960 . S
H634 C626 0.930 . S
H635 C627 0.929 . S
H636 C644 0.929 1_545 S
H637 C646 0.930 . S
H638 C648 0.930 . S
H639 C651 0.929 . S
H640 C654 0.957 . S
H641 C656 0.960 . S
H642 C656 0.960 . S
H643 C656 0.960 . S
C644 H636 0.929 1_565 S
C644 C645 1.377 . S
C644 C646 1.384 . S
C645 C644 1.377 . S
C645 C651 1.390 . S
C646 H637 0.930 . S
C646 C644 1.384 . S
C646 C647 1.372 . S
C647 C646 1.372 . S
C647 C648 1.400 . S
C647 C652 1.490 . S
C648 H638 0.930 . S
C648 C647 1.400 . S
C648 C651 1.386 . S
H649 C665 0.930 . S
H650 C666 0.931 . S
C651 H639 0.929 . S
C651 C645 1.390 . S
C651 C648 1.386 . S
C652 C647 1.490 . S
C652 C654 1.318 1_554 S
C652 C655 1.403 . S
H653 C659 0.930 . S
C654 H640 0.957 . S
C654 C652 1.318 1_556 S
C654 C657 1.458 . S
C655 C652 1.403 . S
C655 C656 1.524 . S
C655 C659 1.400 . S
C656 H641 0.960 . S
C656 H642 0.960 . S
C656 H643 0.960 . S
C656 C655 1.524 . S
C657 C654 1.458 . S
C657 C658 1.392 . S
C657 C661 1.495 . S
C658 C657 1.392 . S
C658 C659 1.385 1_556 S
C658 C660 1.478 . S
C659 H653 0.930 . S
C659 C655 1.400 . S
C659 C658 1.385 1_554 S
C660 C658 1.478 . S
C660 C662 1.381 . S
C660 C666 1.383 . S
C661 C657 1.495 . S
C661 H667 0.959 . S
C661 H668 0.961 . S
C661 H669 0.960 . S
C662 C660 1.381 . S
C662 C663 1.394 . S
C662 H670 0.930 . S
C663 C662 1.394 . S
C663 C664 1.383 . S
C663 H671 0.929 . S
C664 C663 1.383 . S
C664 C665 1.377 . S
C665 H649 0.930 . S
C665 C664 1.377 . S
C665 C666 1.379 . S
C666 H650 0.931 . S
C666 C660 1.383 . S
C666 C665 1.379 . S
H667 C661 0.959 . S
H668 C661 0.961 . S
H669 C661 0.960 . S
H670 C662 0.930 . S
H671 C663 0.929 . S
H672 C680 0.929 1_655 S
H673 C682 0.930 1_655 S
H674 C684 0.930 . S
H675 C687 0.929 . S
H676 C690 0.930 . S
H677 C692 0.960 . S
H678 C692 0.960 . S
H679 C692 0.960 . S
C680 H672 0.929 1_455 S
C680 C681 1.377 . S
C680 C682 1.384 . S
C681 C680 1.377 . S
C681 C687 1.390 . S
C682 H673 0.930 1_455 S
C682 C680 1.384 . S
C682 C683 1.372 . S
C683 C682 1.372 . S
C683 C684 1.400 . S
C683 C688 1.490 . S
C684 H674 0.930 . S
C684 C683 1.400 . S
C684 C687 1.386 . S
H685 C701 0.930 . S
H686 C702 0.931 . S
C687 H675 0.929 . S
C687 C681 1.390 . S
C687 C684 1.386 . S
C688 C683 1.490 . S
C688 C690 1.395 . S
C688 C691 1.403 . S
H689 C695 0.930 . S
C690 H676 0.930 . S
C690 C688 1.395 . S
C690 C693 1.403 . S
C691 C688 1.403 . S
C691 C692 1.524 . S
C691 C695 1.400 . S
C692 H677 0.960 . S
C692 H678 0.960 . S
C692 H679 0.960 . S
C692 C691 1.524 . S
C693 C690 1.403 . S
C693 C694 1.392 . S
C693 C697 1.495 . S
C694 C693 1.392 . S
C694 C695 1.385 . S
C694 C696 1.478 . S
C695 H689 0.930 . S
C695 C691 1.400 . S
C695 C694 1.385 . S
C696 C694 1.478 . S
C696 C698 1.381 . S
C696 C702 1.383 . S
C697 C693 1.495 . S
C697 H703 0.959 . S
C697 H704 0.961 . S
C697 H705 0.960 1_455 S
C698 C696 1.381 . S
C698 C699 1.394 . S
C698 H706 0.930 1_455 S
C699 C698 1.394 . S
C699 C700 1.383 . S
C699 H707 0.929 1_455 S
C700 C699 1.383 . S
C700 C701 1.377 . S
C701 H685 0.930 . S
C701 C700 1.377 . S
C701 C702 1.379 . S
C702 H686 0.931 . S
C702 C696 1.383 . S
C702 C701 1.379 . S
H703 C697 0.959 . S
H704 C697 0.961 . S
H705 C697 0.960 1_655 S
H706 C698 0.930 1_655 S
H707 C699 0.929 1_655 S
H708 C716 0.929 . S
H709 C718 0.930 . S
H710 C720 0.930 1_565 S
H711 C723 0.929 1_565 S
H712 C726 0.930 . S
H713 C728 0.960 . S
H714 C728 0.960 . S
H715 C728 0.960 . S
C716 H708 0.929 . S
C716 C717 1.377 . S
C716 C718 1.384 . S
C717 C716 1.377 . S
C717 C723 1.390 . S
C718 H709 0.930 . S
C718 C716 1.384 . S
C718 C719 1.372 . S
C719 C718 1.372 . S
C719 C720 1.400 . S
C719 C724 1.490 . S
C720 H710 0.930 1_545 S
C720 C719 1.400 . S
C720 C723 1.386 . S
H721 C737 0.930 1_565 S
H722 C738 0.931 1_565 S
C723 H711 0.929 1_545 S
C723 C717 1.390 . S
C723 C720 1.386 . S
C724 C719 1.490 . S
C724 C726 1.395 . S
C724 C727 1.403 . S
H725 C731 0.930 . S
C726 H712 0.930 . S
C726 C724 1.395 . S
C726 C729 1.403 . S
C727 C724 1.403 . S
C727 C728 1.524 . S
C727 C731 1.400 . S
C728 H713 0.960 . S
C728 H714 0.960 . S
C728 H715 0.960 . S
C728 C727 1.524 . S
C729 C726 1.403 . S
C729 C730 1.392 . S
C729 C733 1.495 . S
C730 C729 1.392 . S
C730 C731 1.385 . S
C730 C732 1.478 . S
C731 H725 0.930 . S
C731 C727 1.400 . S
C731 C730 1.385 . S
C732 C730 1.478 . S
C732 C734 1.381 . S
C732 C738 1.383 . S
C733 C729 1.495 . S
C733 H739 0.959 . S
C733 H740 0.961 . S
C733 H741 0.960 . S
C734 C732 1.381 . S
C734 C735 1.394 . S
C734 H742 0.930 . S
C735 C734 1.394 . S
C735 C736 1.383 . S
C735 H743 0.929 . S
C736 C735 1.383 . S
C736 C737 1.377 . S
C737 H721 0.930 1_545 S
C737 C736 1.377 . S
C737 C738 1.379 . S
C738 H722 0.931 1_545 S
C738 C732 1.383 . S
C738 C737 1.379 . S
H739 C733 0.959 . S
H740 C733 0.961 . S
H741 C733 0.960 . S
H742 C734 0.930 . S
H743 C735 0.929 . S
H744 C752 0.929 . S
H745 C754 0.930 . S
H746 C756 0.930 . S
H747 C759 0.929 . S
H748 C762 0.930 . S
H749 C764 0.960 . S
H750 C764 0.960 . S
H751 C764 0.960 . S
C752 H744 0.929 . S
C752 C753 1.377 . S
C752 C754 1.384 . S
C753 C752 1.377 . S
C753 C759 1.390 . S
C754 H745 0.930 . S
C754 C752 1.384 . S
C754 C755 1.372 . S
C755 C754 1.372 . S
C755 C756 1.400 . S
C755 C760 1.490 . S
C756 H746 0.930 . S
C756 C755 1.400 . S
C756 C759 1.386 . S
H757 C773 0.930 . S
H758 C774 0.931 . S
C759 H747 0.929 . S
C759 C753 1.390 . S
C759 C756 1.386 . S
C760 C755 1.490 . S
C760 C762 1.395 1_554 S
C760 C763 1.403 . S
H761 C767 0.930 . S
C762 H748 0.930 . S
C762 C760 1.395 1_556 S
C762 C765 1.403 . S
C763 C760 1.403 . S
C763 C764 1.524 . S
C763 C767 1.400 . S
C764 H749 0.960 . S
C764 H750 0.960 . S
C764 H751 0.960 . S
C764 C763 1.524 . S
C765 C762 1.403 . S
C765 C766 1.392 . S
C765 C769 1.495 . S
C766 C765 1.392 . S
C766 C767 1.385 1_556 S
C766 C768 1.478 . S
C767 H761 0.930 . S
C767 C763 1.400 . S
C767 C766 1.385 1_554 S
C768 C766 1.478 . S
C768 C770 1.381 . S
C768 C774 1.383 . S
C769 C765 1.495 . S
C769 H775 0.959 . S
C769 H776 0.961 . S
C769 H777 0.960 . S
C770 C768 1.381 . S
C770 C771 1.394 . S
C770 H778 0.930 . S
C771 C770 1.394 . S
C771 C772 1.383 . S
C771 H779 0.929 . S
C772 C771 1.383 . S
C772 C773 1.377 . S
C773 H757 0.930 . S
C773 C772 1.377 . S
C773 C774 1.379 . S
C774 H758 0.931 . S
C774 C768 1.383 . S
C774 C773 1.379 . S
H775 C769 0.959 . S
H776 C769 0.961 . S
H777 C769 0.960 . S
H778 C770 0.930 . S
H779 C771 0.929 . S
H780 C788 0.929 . S
H781 C790 0.930 . S
H782 C792 0.930 . S
H783 C795 0.929 . S
H784 C798 0.930 . S
H785 C800 0.960 . S
H786 C800 0.960 . S
H787 C800 0.960 . S
C788 H780 0.929 . S
C788 C789 1.377 . S
C788 C790 1.384 . S
C789 C788 1.377 . S
C789 C795 1.390 . S
C790 H781 0.930 . S
C790 C788 1.384 . S
C790 C791 1.372 . S
C791 C790 1.372 . S
C791 C792 1.400 . S
C791 C796 1.490 . S
C792 H782 0.930 . S
C792 C791 1.400 . S
C792 C795 1.386 . S
H793 C809 0.930 . S
H794 C810 0.931 . S
C795 H783 0.929 . S
C795 C789 1.390 . S
C795 C792 1.386 . S
C796 C791 1.490 . S
C796 C798 1.395 . S
C796 C799 1.403 . S
H797 C803 0.930 . S
C798 H784 0.930 . S
C798 C796 1.395 . S
C798 C801 1.403 . S
C799 C796 1.403 . S
C799 C800 1.524 . S
C799 C803 1.400 . S
C800 H785 0.960 . S
C800 H786 0.960 . S
C800 H787 0.960 . S
C800 C799 1.524 . S
C801 C798 1.403 . S
C801 C802 1.392 . S
C801 C805 1.495 . S
C802 C801 1.392 . S
C802 C803 1.385 . S
C802 C804 1.478 . S
C803 H797 0.930 . S
C803 C799 1.400 . S
C803 C802 1.385 . S
C804 C802 1.478 . S
C804 C806 1.381 . S
C804 C810 1.383 . S
C805 C801 1.495 . S
C805 H811 0.959 . S
C805 H812 0.961 . S
C805 H813 0.960 . S
C806 C804 1.381 . S
C806 C807 1.394 . S
C806 H814 0.930 . S
C807 C806 1.394 . S
C807 C808 1.383 . S
C807 H815 0.929 . S
C808 C807 1.383 . S
C808 C809 1.377 . S
C809 H793 0.930 . S
C809 C808 1.377 . S
C809 C810 1.379 . S
C810 H794 0.931 . S
C810 C804 1.383 . S
C810 C809 1.379 . S
H811 C805 0.959 . S
H812 C805 0.961 . S
H813 C805 0.960 . S
H814 C806 0.930 . S
H815 C807 0.929 . S
C412 C97 1.193 . S
C393 C0 1.532 . S
C429 C25 1.574 . S
C448 C211 1.101 . S
C465 C33 1.333 . S
C484 C271 1.101 . S
C501 C11 1.332 . S
C520 C71 0.999 . S
C556 C185 1.128 . S
C537 C14 1.397 . S
C573 C37 1.521 . S
C592 C281 0.983 . S
C628 C167 0.831 . S
C609 C28 1.488 . S
C645 C9 1.426 . S
C664 C299 1.074 . S
C700 C43 1.108 . S
C681 C19 1.359 . S
C736 C157 0.967 . S
C717 C39 1.309 . S
C772 C325 1.195 . S
C753 C5 1.592 . S
C789 C23 1.557 . S
C808 C53 0.886 . S
