# Generated by pormake.
# Topology pyr, (3,6)-cn, num edge types: 1
# Building blocks:
#     Node 0, Type 0, BuildingBlock: KAKCAD_clean_linker_0, # of connection points: 3
#     Node 1, Type 0, BuildingBlock: KAKCAD_clean_linker_0, # of connection points: 3
#     Node 2, Type 0, BuildingBlock: KAKCAD_clean_linker_0, # of connection points: 3
#     Node 3, Type 0, BuildingBlock: KAKCAD_clean_linker_0, # of connection points: 3
#     Node 4, Type 0, BuildingBlock: KAKCAD_clean_linker_0, # of connection points: 3
#     Node 5, Type 0, BuildingBlock: KAKCAD_clean_linker_0, # of connection points: 3
#     Node 6, Type 0, BuildingBlock: KAKCAD_clean_linker_0, # of connection points: 3
#     Node 7, Type 0, BuildingBlock: KAKCAD_clean_linker_0, # of connection points: 3
#     Node 8, Type 1, BuildingBlock: JUFBIX_clean_sbu_0, # of connection points: 6
#     Node 9, Type 1, BuildingBlock: JUFBIX_clean_sbu_0, # of connection points: 6
#     Node 10, Type 1, BuildingBlock: JUFBIX_clean_sbu_0, # of connection points: 6
#     Node 11, Type 1, BuildingBlock: JUFBIX_clean_sbu_0, # of connection points: 6
#     Edge 12, Type (0, 1), BuildingBlock: UVAHIK_clean_linker_0, # of connection points: 2
#     Edge 13, Type (0, 1), BuildingBlock: UVAHIK_clean_linker_0, # of connection points: 2
#     Edge 14, Type (0, 1), BuildingBlock: UVAHIK_clean_linker_0, # of connection points: 2
#     Edge 15, Type (0, 1), BuildingBlock: UVAHIK_clean_linker_0, # of connection points: 2
#     Edge 16, Type (0, 1), BuildingBlock: UVAHIK_clean_linker_0, # of connection points: 2
#     Edge 17, Type (0, 1), BuildingBlock: UVAHIK_clean_linker_0, # of connection points: 2
#     Edge 18, Type (0, 1), BuildingBlock: UVAHIK_clean_linker_0, # of connection points: 2
#     Edge 19, Type (0, 1), BuildingBlock: UVAHIK_clean_linker_0, # of connection points: 2
#     Edge 20, Type (0, 1), BuildingBlock: UVAHIK_clean_linker_0, # of connection points: 2
#     Edge 21, Type (0, 1), BuildingBlock: UVAHIK_clean_linker_0, # of connection points: 2
#     Edge 22, Type (0, 1), BuildingBlock: UVAHIK_clean_linker_0, # of connection points: 2
#     Edge 23, Type (0, 1), BuildingBlock: UVAHIK_clean_linker_0, # of connection points: 2
#     Edge 24, Type (0, 1), BuildingBlock: UVAHIK_clean_linker_0, # of connection points: 2
#     Edge 25, Type (0, 1), BuildingBlock: UVAHIK_clean_linker_0, # of connection points: 2
#     Edge 26, Type (0, 1), BuildingBlock: UVAHIK_clean_linker_0, # of connection points: 2
#     Edge 27, Type (0, 1), BuildingBlock: UVAHIK_clean_linker_0, # of connection points: 2
#     Edge 28, Type (0, 1), BuildingBlock: UVAHIK_clean_linker_0, # of connection points: 2
#     Edge 29, Type (0, 1), BuildingBlock: UVAHIK_clean_linker_0, # of connection points: 2
#     Edge 30, Type (0, 1), BuildingBlock: UVAHIK_clean_linker_0, # of connection points: 2
#     Edge 31, Type (0, 1), BuildingBlock: UVAHIK_clean_linker_0, # of connection points: 2
#     Edge 32, Type (0, 1), BuildingBlock: UVAHIK_clean_linker_0, # of connection points: 2
#     Edge 33, Type (0, 1), BuildingBlock: UVAHIK_clean_linker_0, # of connection points: 2
#     Edge 34, Type (0, 1), BuildingBlock: UVAHIK_clean_linker_0, # of connection points: 2
#     Edge 35, Type (0, 1), BuildingBlock: UVAHIK_clean_linker_0, # of connection points: 2
# Relax obj value: 0.037
# Max RMSD: 0.087
# Mean RMSD: 0.030
data_MOF--net-pyr--node1-JUFBIX_clean_sbu_0--node2-KAKCAD_clean_linker_0--edge1-UVAHIK_clean_linker_0
_symmetry_space_group_name_H-M    P1
_symmetry_Int_Tables_number       1
_symmetry_cell_setting            triclinic
loop_
_symmetry_equiv_pos_as_xyz
'x, y, z'
_cell_length_a     56.998625
_cell_length_b     54.711312
_cell_length_c     56.876859
_cell_angle_alpha  86.319944
_cell_angle_beta   89.50931
_cell_angle_gamma 91.606954
loop_
_atom_site_label
_atom_site_type_symbol
_atom_site_fract_x
_atom_site_fract_y
_atom_site_fract_z
_atom_type_partial_charge
C0 C 0.1218 0.12189 0.22513 0.0
C1 C 0.13441 0.11722 0.24605 0.0
C2 C 0.13308 0.13188 0.20462 0.0
C3 C 0.15735 0.13723 0.20431 0.0
C4 C 0.17013 0.13216 0.22499 0.0
C5 C 0.15879 0.12242 0.24563 0.0
C6 C 0.16902 0.14854 0.18254 0.0
C7 C 0.15869 0.16836 0.16996 0.0
C8 C 0.16889 0.17899 0.14898 0.0
C9 C 0.18969 0.16922 0.14048 0.0
C10 C 0.20046 0.14953 0.15289 0.0
C11 C 0.19015 0.1395 0.17408 0.0
C12 C 0.22228 0.13925 0.14343 0.0
C13 C 0.22356 0.13309 0.11986 0.0
C14 C 0.24201 0.13572 0.15774 0.0
C15 C 0.26271 0.12664 0.14857 0.0
C16 C 0.2641 0.12041 0.12492 0.0
C17 C 0.15792 0.20046 0.13622 0.0
C18 C 0.13335 0.20182 0.13466 0.0
C19 C 0.17186 0.22008 0.12607 0.0
C20 C 0.16149 0.24066 0.11502 0.0
C21 C 0.13692 0.24219 0.11391 0.0
C22 C 0.12301 0.22242 0.12372 0.0
C23 C 0.24407 0.12361 0.11079 0.0
H24 H 0.10317 0.11763 0.22445 0.0
H25 H 0.1228 0.13523 0.18887 0.0
H26 H 0.18882 0.13629 0.22536 0.0
H27 H 0.16912 0.11946 0.26139 0.0
H28 H 0.14288 0.17591 0.17692 0.0
H29 H 0.19814 0.12408 0.18353 0.0
H30 H 0.19758 0.17693 0.12415 0.0
H31 H 0.20851 0.13531 0.10849 0.0
H32 H 0.2416 0.14051 0.17593 0.0
H33 H 0.27774 0.12494 0.16 0.0
H34 H 0.12204 0.18689 0.14184 0.0
H35 H 0.1908 0.21988 0.12719 0.0
H36 H 0.24405 0.11853 0.09271 0.0
H37 H 0.10405 0.22278 0.12282 0.0
H38 H 0.17274 0.25566 0.10789 0.0
C39 C 0.42115 0.92522 0.69543 0.0
C40 C 0.44533 0.93103 0.69456 0.0
C41 C 0.41068 0.91212 0.67794 0.0
C42 C 0.42409 0.90443 0.6591 0.0
C43 C 0.4483 0.91015 0.65815 0.0
C44 C 0.45883 0.92336 0.67572 0.0
C45 C 0.4127 0.88999 0.64096 0.0
C46 C 0.39048 0.89637 0.63248 0.0
C47 C 0.37842 0.88163 0.61704 0.0
C48 C 0.38904 0.86066 0.60953 0.0
C49 C 0.41114 0.85378 0.618 0.0
C50 C 0.42301 0.86874 0.63351 0.0
C51 C 0.42083 0.82998 0.61213 0.0
C52 C 0.4059 0.80914 0.61154 0.0
C53 C 0.44491 0.8277 0.60752 0.0
C54 C 0.45381 0.80507 0.60234 0.0
C55 C 0.4388 0.78428 0.60165 0.0
C56 C 0.35396 0.88697 0.61035 0.0
C57 C 0.33758 0.89252 0.62767 0.0
C58 C 0.34654 0.88553 0.58699 0.0
C59 C 0.32317 0.88961 0.58106 0.0
C60 C 0.30673 0.89505 0.59843 0.0
C61 C 0.31423 0.89645 0.6218 0.0
C62 C 0.41474 0.78665 0.60623 0.0
H63 H 0.41033 0.93026 0.71001 0.0
H64 H 0.3921 0.9075 0.67949 0.0
H65 H 0.45904 0.90454 0.64375 0.0
H66 H 0.47748 0.92765 0.67451 0.0
H67 H 0.38239 0.91274 0.63812 0.0
H68 H 0.43965 0.86312 0.64084 0.0
H69 H 0.37964 0.84918 0.59771 0.0
H70 H 0.38733 0.8101 0.61544 0.0
H71 H 0.45685 0.84343 0.60775 0.0
H72 H 0.47248 0.80382 0.5991 0.0
H73 H 0.34272 0.89326 0.64592 0.0
H74 H 0.35886 0.88142 0.57328 0.0
H75 H 0.40259 0.77114 0.60548 0.0
H76 H 0.30196 0.90017 0.63568 0.0
H77 H 0.31805 0.88879 0.56283 0.0
C78 C 0.75057 0.40513 0.87062 0.0
C79 C 0.76587 0.38879 0.88219 0.0
C80 C 0.72932 0.3966 0.86164 0.0
C81 C 0.72308 0.37146 0.86373 0.0
C82 C 0.73868 0.35513 0.87503 0.0
C83 C 0.75972 0.36373 0.88433 0.0
C84 C 0.7004 0.36228 0.85427 0.0
C85 C 0.69131 0.37284 0.83318 0.0
C86 C 0.66996 0.36421 0.82414 0.0
C87 C 0.65785 0.34444 0.83628 0.0
C88 C 0.6668 0.33337 0.85716 0.0
C89 C 0.68785 0.34267 0.86619 0.0
C90 C 0.65459 0.31156 0.86913 0.0
C91 C 0.62999 0.31025 0.87131 0.0
C92 C 0.66756 0.29155 0.87792 0.0
C93 C 0.6562 0.27061 0.88838 0.0
C94 C 0.63159 0.26912 0.89026 0.0
C95 C 0.66043 0.37564 0.80188 0.0
C96 C 0.66188 0.40119 0.79711 0.0
C97 C 0.64963 0.36111 0.78532 0.0
C98 C 0.64026 0.37186 0.76467 0.0
C99 C 0.64161 0.39741 0.75991 0.0
C100 C 0.65264 0.41193 0.77636 0.0
C101 C 0.61861 0.28927 0.88177 0.0
H102 H 0.75484 0.42459 0.86894 0.0
H103 H 0.71764 0.40979 0.85342 0.0
H104 H 0.7348 0.3356 0.87652 0.0
H105 H 0.77138 0.35073 0.89293 0.0
H106 H 0.7012 0.38739 0.82339 0.0
H107 H 0.69428 0.33475 0.88276 0.0
H108 H 0.64152 0.33748 0.82936 0.0
H109 H 0.61951 0.32545 0.86493 0.0
H110 H 0.68651 0.29185 0.87631 0.0
H111 H 0.66675 0.25557 0.89501 0.0
H112 H 0.66988 0.41296 0.80957 0.0
H113 H 0.64849 0.34136 0.78823 0.0
H114 H 0.59962 0.28864 0.88279 0.0
H115 H 0.65428 0.43163 0.77317 0.0
H116 H 0.63163 0.3601 0.75258 0.0
C117 C 0.92225 0.59736 0.32256 0.0
C118 C 0.94571 0.59516 0.31544 0.0
C119 C 0.91677 0.60307 0.34541 0.0
C120 C 0.9346 0.60688 0.36178 0.0
C121 C 0.95814 0.60542 0.35462 0.0
C122 C 0.96367 0.59951 0.33163 0.0
C123 C 0.92809 0.61277 0.38602 0.0
C124 C 0.90957 0.59959 0.39776 0.0
C125 C 0.89953 0.6077 0.4184 0.0
C126 C 0.90971 0.62835 0.4283 0.0
C127 C 0.92902 0.64124 0.4173 0.0
C128 C 0.93811 0.63325 0.39613 0.0
C129 C 0.93806 0.66455 0.42641 0.0
C130 C 0.92236 0.68163 0.4344 0.0
C131 C 0.96223 0.67056 0.42594 0.0
C132 C 0.97043 0.69339 0.43271 0.0
C133 C 0.95461 0.71071 0.44002 0.0
C134 C 0.877 0.59625 0.42786 0.0
C135 C 0.86016 0.58747 0.41226 0.0
C136 C 0.87149 0.59498 0.4521 0.0
C137 C 0.8495 0.58584 0.46034 0.0
C138 C 0.83261 0.57746 0.44458 0.0
C139 C 0.83853 0.5779 0.42052 0.0
C140 C 0.93054 0.70436 0.44119 0.0
H141 H 0.908 0.59486 0.31038 0.0
H142 H 0.89848 0.60475 0.35023 0.0
H143 H 0.9722 0.60839 0.36691 0.0
H144 H 0.98192 0.59788 0.3267 0.0
H145 H 0.90238 0.5834 0.39011 0.0
H146 H 0.95192 0.64391 0.38667 0.0
H147 H 0.90207 0.63504 0.44405 0.0
H148 H 0.90361 0.67781 0.4347 0.0
H149 H 0.97479 0.65771 0.42005 0.0
H150 H 0.98907 0.69775 0.43151 0.0
H151 H 0.8633 0.58855 0.39342 0.0
H152 H 0.88404 0.60126 0.46472 0.0
H153 H 0.91791 0.71713 0.4471 0.0
H154 H 0.82632 0.57109 0.40783 0.0
H155 H 0.84557 0.58594 0.47899 0.0
C156 C 0.87691 0.8613 0.76514 0.0
C157 C 0.87802 0.88684 0.76018 0.0
C158 C 0.86635 0.85106 0.78593 0.0
C159 C 0.85674 0.86602 0.80257 0.0
C160 C 0.85771 0.89158 0.7976 0.0
C161 C 0.86818 0.90184 0.7767 0.0
C162 C 0.84611 0.8549 0.82508 0.0
C163 C 0.85622 0.83434 0.83671 0.0
C164 C 0.84627 0.82313 0.85754 0.0
C165 C 0.82597 0.83297 0.867 0.0
C166 C 0.81557 0.85366 0.85586 0.0
C167 C 0.82581 0.8645 0.83492 0.0
C168 C 0.79384 0.86372 0.86596 0.0
C169 C 0.77535 0.84796 0.87454 0.0
C170 C 0.79146 0.88911 0.86724 0.0
C171 C 0.77121 0.8985 0.87706 0.0
C172 C 0.75269 0.88275 0.88572 0.0
C173 C 0.85716 0.80106 0.86921 0.0
C174 C 0.86539 0.78239 0.85568 0.0
C175 C 0.85979 0.79861 0.89382 0.0
C176 C 0.87074 0.7782 0.90455 0.0
C177 C 0.87928 0.75968 0.89095 0.0
C178 C 0.87626 0.76199 0.86638 0.0
C179 C 0.75504 0.85734 0.8842 0.0
H180 H 0.88451 0.84909 0.7531 0.0
H181 H 0.86565 0.8313 0.78887 0.0
H182 H 0.8507 0.90373 0.81003 0.0
H183 H 0.86838 0.92155 0.77343 0.0
H184 H 0.87225 0.82728 0.82978 0.0
H185 H 0.81752 0.87997 0.82592 0.0
H186 H 0.8182 0.82446 0.88306 0.0
H187 H 0.77642 0.82833 0.87349 0.0
H188 H 0.80548 0.90176 0.86106 0.0
H189 H 0.77031 0.91812 0.87823 0.0
H190 H 0.86328 0.78344 0.83673 0.0
H191 H 0.85387 0.81276 0.90476 0.0
H192 H 0.74105 0.8446 0.89019 0.0
H193 H 0.88211 0.7479 0.85535 0.0
H194 H 0.87298 0.77724 0.92347 0.0
C195 C 0.56755 0.07491 0.33727 0.0
C196 C 0.55404 0.08864 0.32092 0.0
C197 C 0.57758 0.08588 0.35644 0.0
C198 C 0.57456 0.1109 0.35957 0.0
C199 C 0.56005 0.12427 0.34389 0.0
C200 C 0.5498 0.11324 0.32491 0.0
C201 C 0.58788 0.12348 0.37789 0.0
C202 C 0.61133 0.11763 0.38242 0.0
C203 C 0.62479 0.13067 0.39823 0.0
C204 C 0.61468 0.15003 0.40934 0.0
C205 C 0.59127 0.15625 0.40506 0.0
C206 C 0.57789 0.14256 0.38964 0.0
C207 C 0.58144 0.17803 0.4155 0.0
C208 C 0.58758 0.18403 0.43839 0.0
C209 C 0.56709 0.19395 0.40202 0.0
C210 C 0.55974 0.2157 0.41089 0.0
C211 C 0.56682 0.22213 0.43329 0.0
C212 C 0.64953 0.1243 0.40282 0.0
C213 C 0.65569 0.09964 0.40602 0.0
C214 C 0.66711 0.1427 0.40422 0.0
C215 C 0.6903 0.13655 0.40901 0.0
C216 C 0.69636 0.11188 0.41252 0.0
C217 C 0.67883 0.09351 0.41079 0.0
C218 C 0.58051 0.20596 0.44711 0.0
H219 H 0.57131 0.05597 0.33473 0.0
H220 H 0.58826 0.0749 0.36845 0.0
H221 H 0.55742 0.14361 0.34561 0.0
H222 H 0.5391 0.12423 0.31293 0.0
H223 H 0.61951 0.10354 0.37291 0.0
H224 H 0.55968 0.14687 0.38665 0.0
H225 H 0.62523 0.1605 0.42108 0.0
H226 H 0.59818 0.17196 0.44945 0.0
H227 H 0.56232 0.19017 0.3842 0.0
H228 H 0.54937 0.22801 0.39982 0.0
H229 H 0.64253 0.08505 0.40521 0.0
H230 H 0.66297 0.16187 0.4015 0.0
H231 H 0.58595 0.21044 0.46456 0.0
H232 H 0.683 0.07431 0.41305 0.0
H233 H 0.70338 0.15112 0.41035 0.0
C234 C 0.25992 0.61224 0.15585 0.0
C235 C 0.25703 0.61413 0.13131 0.0
C236 C 0.28069 0.62073 0.16587 0.0
C237 C 0.2991 0.6311 0.15153 0.0
C238 C 0.29634 0.63242 0.12692 0.0
C239 C 0.2755 0.62415 0.11695 0.0
C240 C 0.32079 0.64121 0.16219 0.0
C241 C 0.33063 0.6294 0.18232 0.0
C242 C 0.35061 0.63941 0.19298 0.0
C243 C 0.36089 0.66138 0.18293 0.0
C244 C 0.35166 0.67309 0.16251 0.0
C245 C 0.33152 0.66302 0.15241 0.0
C246 C 0.36313 0.6958 0.15157 0.0
C247 C 0.37072 0.71474 0.16549 0.0
C248 C 0.3667 0.69856 0.12706 0.0
C249 C 0.37769 0.71976 0.11668 0.0
C250 C 0.38528 0.73876 0.13057 0.0
C251 C 0.36069 0.62706 0.2146 0.0
C252 C 0.346 0.61524 0.23207 0.0
C253 C 0.38509 0.62735 0.21817 0.0
C254 C 0.39449 0.61664 0.23883 0.0
C255 C 0.37982 0.60493 0.25638 0.0
C256 C 0.35544 0.60417 0.25258 0.0
C257 C 0.38163 0.73601 0.1551 0.0
H258 H 0.24588 0.60478 0.16736 0.0
H259 H 0.28205 0.61974 0.18488 0.0
H260 H 0.3103 0.63981 0.1153 0.0
H261 H 0.27389 0.62547 0.09795 0.0
H262 H 0.32296 0.61213 0.18942 0.0
H263 H 0.32387 0.67261 0.13721 0.0
H264 H 0.37618 0.66943 0.19095 0.0
H265 H 0.36793 0.71326 0.1844 0.0
H266 H 0.36134 0.68412 0.11591 0.0
H267 H 0.38057 0.72107 0.09779 0.0
H268 H 0.32712 0.61483 0.23015 0.0
H269 H 0.39705 0.63585 0.20498 0.0
H270 H 0.38691 0.75044 0.16629 0.0
H271 H 0.34355 0.59499 0.26544 0.0
H272 H 0.41331 0.61796 0.24114 0.0
C273 C 0.07574 0.29907 0.5603 0.0
C274 C 0.05162 0.29464 0.56461 0.0
C275 C 0.08711 0.31985 0.56833 0.0
C276 C 0.07461 0.3367 0.58083 0.0
C277 C 0.0503 0.33279 0.5843 0.0
C278 C 0.03894 0.31198 0.5763 0.0
C279 C 0.0872 0.35723 0.59169 0.0
C280 C 0.10555 0.37052 0.57953 0.0
C281 C 0.11863 0.38867 0.59053 0.0
C282 C 0.11305 0.39343 0.61388 0.0
C283 C 0.09475 0.38046 0.62621 0.0
C284 C 0.08182 0.3625 0.61496 0.0
C285 C 0.08973 0.3851 0.65115 0.0
C286 C 0.1082 0.38745 0.66713 0.0
C287 C 0.06654 0.38743 0.6591 0.0
C288 C 0.06195 0.39248 0.68245 0.0
C289 C 0.08046 0.39512 0.69836 0.0
C290 C 0.139 0.40178 0.57838 0.0
C291 C 0.15481 0.38912 0.56481 0.0
C292 C 0.14382 0.42666 0.58182 0.0
C293 C 0.16462 0.43813 0.57323 0.0
C294 C 0.18093 0.4251 0.56071 0.0
C295 C 0.17553 0.40071 0.55597 0.0
C296 C 0.10361 0.39237 0.69048 0.0
H297 H 0.0861 0.28592 0.55164 0.0
H298 H 0.1059 0.32213 0.56564 0.0
H299 H 0.04011 0.34564 0.59355 0.0
H300 H 0.02026 0.30928 0.57956 0.0
H301 H 0.1096 0.36676 0.56149 0.0
H302 H 0.06825 0.35184 0.62475 0.0
H303 H 0.12327 0.40703 0.62273 0.0
H304 H 0.12623 0.38543 0.6616 0.0
H305 H 0.05197 0.38579 0.64714 0.0
H306 H 0.04392 0.3943 0.68808 0.0
H307 H 0.15179 0.3699 0.56199 0.0
H308 H 0.13177 0.43713 0.5917 0.0
H309 H 0.11827 0.39454 0.70225 0.0
H310 H 0.18791 0.3902 0.54651 0.0
H311 H 0.16824 0.45707 0.57684 0.0
Co312 Co 0.98598 0.00562 0.49498 0.0
C313 C 0.00669 0.95994 0.48974 0.0
Co314 Co 0.02155 1.00156 0.50942 0.0
C315 C 0.94111 0.0232 0.4769 0.0
C316 C 0.94102 0.98475 0.48676 0.0
N317 N 0.95516 0.005 0.48482 0.0
N318 N 0.91878 0.01496 0.47415 0.0
C319 C 0.91881 0.99076 0.48015 0.0
H320 H 0.94682 0.04223 0.47436 0.0
H321 H 0.94624 0.96681 0.49352 0.0
C322 C 1.00072 0.04722 0.51459 0.0
N323 N 0.05226 1.0018 0.51962 0.0
C324 C 0.06538 0.98309 0.52805 0.0
C325 C 0.0673 0.02131 0.51718 0.0
N326 N 0.08804 0.99018 0.53061 0.0
C327 C 0.08926 0.01423 0.52392 0.0
C328 C 0.01927 0.0199 0.46172 0.0
O329 O 0.98324 0.03806 0.50422 0.0
O330 O 0.01864 0.03432 0.51845 0.0
O331 O 0.03249 0.01355 0.47882 0.0
O332 O 0.9971 0.01811 0.46465 0.0
O333 O 0.02408 0.96875 0.50048 0.0
H334 H 0.06284 0.03934 0.50998 0.0
H335 H 0.05875 0.96441 0.53104 0.0
O336 O 0.98911 0.9732 0.48562 0.0
O337 O 0.97506 0.99321 0.52551 0.0
O338 O 0.01044 0.98947 0.53985 0.0
C339 C 0.9883 0.98724 0.54272 0.0
H340 H 0.90368 0.97834 0.48025 0.0
H341 H 0.10503 0.02576 0.5234 0.0
Co342 Co 0.49983 0.9998 0.99127 0.0
C343 C 0.49385 0.96065 0.02437 0.0
Co344 Co 0.51945 0.00445 0.02391 0.0
C345 C 0.49222 0.99738 0.94167 0.0
C346 C 0.46033 0.991 0.96156 0.0
N347 N 0.4835 0.99588 0.96385 0.0
N348 N 0.47544 0.99367 0.92563 0.0
C349 C 0.45531 0.98972 0.93805 0.0
H350 H 0.51053 1.0013 0.93736 0.0
H351 H 0.44794 0.98836 0.97608 0.0
C352 C 0.52529 0.04368 0.99086 0.0
N353 N 0.53576 0.00844 0.05131 0.0
C354 C 0.52708 0.00639 0.0735 0.0
C355 C 0.55854 0.0151 0.05353 0.0
N356 N 0.54346 0.01168 0.08953 0.0
C357 C 0.56334 0.01708 0.07701 0.0
C358 C 0.54519 0.98182 0.99005 0.0
O359 O 0.51187 0.03063 0.97871 0.0
O360 O 0.53076 0.03572 0.01151 0.0
O361 O 0.54605 0.98962 0.01061 0.0
O362 O 0.5263 0.98406 0.97849 0.0
O363 O 0.50806 0.97323 0.03613 0.0
H364 H 0.57071 0.01887 0.03896 0.0
H365 H 0.50898 1.00133 0.07774 0.0
O366 O 0.48777 0.96896 1.00401 0.0
O367 O 0.47357 0.01559 1.00421 0.0
O368 O 0.49266 0.01927 0.03706 0.0
C369 C 0.47412 0.02246 0.02513 0.0
H370 H 0.4383 0.98561 0.9307 0.0
H371 H 0.57993 0.02301 0.08417 0.0
Co372 Co 0.52435 0.51383 0.50461 0.0
C373 C 0.48705 0.51778 0.47342 0.0
Co374 Co 0.49054 0.49911 0.51952 0.0
C375 C 0.57426 0.52037 0.4955 0.0
C376 C 0.55424 0.54951 0.47968 0.0
N377 N 0.55205 0.52775 0.49218 0.0
N378 N 0.59016 0.53691 0.48589 0.0
C379 C 0.57764 0.55523 0.47587 0.0
H380 H 0.57872 0.50378 0.5057 0.0
H381 H 0.53974 0.56089 0.47439 0.0
C382 C 0.528 0.49503 0.5506 0.0
N383 N 0.4627 0.48541 0.53218 0.0
C384 C 0.44044 0.49178 0.52728 0.0
C385 C 0.46049 0.46645 0.54852 0.0
N386 N 0.42459 0.4777 0.5401 0.0
C387 C 0.4371 0.46181 0.55355 0.0
C388 C 0.51723 0.46521 0.49733 0.0
O389 O 0.53953 0.50596 0.53364 0.0
O390 O 0.50628 0.49025 0.54803 0.0
O391 O 0.49788 0.4686 0.50775 0.0
O392 O 0.53209 0.4829 0.49409 0.0
O393 O 0.47524 0.50818 0.49085 0.0
H394 H 0.47494 0.45643 0.55617 0.0
H395 H 0.43592 0.50657 0.51473 0.0
O396 O 0.50901 0.52153 0.47556 0.0
O397 O 0.51636 0.54462 0.51537 0.0
O398 O 0.48336 0.52968 0.53121 0.0
C399 C 0.49763 0.5477 0.52692 0.0
H400 H 0.58491 0.57173 0.46674 0.0
H401 H 0.4298 0.44749 0.56571 0.0
Co402 Co 0.02208 0.50347 0.98672 0.0
C403 C 0.97751 0.48226 0.9846 0.0
Co404 Co 1.00214 0.50385 0.02004 0.0
C405 C 0.03894 0.48641 0.94303 0.0
C406 C 0.0519 0.52264 0.94864 0.0
N407 N 0.03854 0.50399 0.95859 0.0
N408 N 0.05193 0.49336 0.92365 0.0
C409 C 0.06017 0.51617 0.92719 0.0
H410 H 0.02971 0.46891 0.94588 0.0
H411 H 0.05498 0.54004 0.95627 0.0
C412 C 0.04678 0.52502 0.02213 0.0
N413 N 0.98573 0.50317 0.04823 0.0
C414 C 0.98595 0.52008 0.06449 0.0
C415 C 0.97206 0.4845 0.05767 0.0
N416 N 0.97305 0.51265 0.0838 0.0
C417 C 0.96422 0.49027 0.07949 0.0
C418 C 0.02922 0.46234 0.01645 0.0
O419 O 0.04792 0.5192 1.0009 0.0
O420 O 0.02797 0.52023 0.03388 0.0
O421 O 0.01518 0.47311 0.02957 0.0
O422 O 0.03467 0.47236 0.99627 0.0
O423 O 0.97652 0.48748 0.00601 0.0
H424 H 0.96859 0.46746 0.04951 0.0
H425 H 0.99564 0.53738 0.06227 0.0
O426 O 0.99606 0.48772 0.97267 0.0
O427 O 0.00939 0.53453 0.97742 0.0
O428 O 0.9891 0.53464 0.01032 0.0
C429 C 0.99487 0.54495 0.99033 0.0
H430 H 0.07075 0.52772 0.91485 0.0
H431 H 0.95361 0.47845 0.09158 0.0
C432 C 0.13318 0.09061 0.28415 0.0
C433 C 0.12211 0.10714 0.26813 0.0
C434 C 0.12156 0.08113 0.30471 0.0
C435 C 0.07012 0.09149 0.34385 0.0
H436 H 0.08161 0.02494 0.36761 0.0
C437 C 0.01656 0.04149 0.42132 0.0
C438 C 0.02994 0.02927 0.43884 0.0
C439 C 0.02711 0.05085 0.4001 0.0
C440 C 0.07829 0.04361 0.36126 0.0
H441 H 0.09 0.12685 0.26176 0.0
H442 H 0.06951 0.10955 0.29681 0.0
H443 H 0.10122 0.04143 0.33155 0.0
H444 H 0.06489 0.01705 0.4476 0.0
H445 H 0.08308 0.03299 0.41062 0.0
H446 H 0.04681 0.09333 0.37348 0.0
C447 C 0.08737 0.10422 0.29378 0.0
C448 C 0.08965 0.05316 0.34061 0.0
C449 C 0.09906 0.11389 0.27336 0.0
C450 C 0.05402 0.02637 0.43452 0.0
C451 C 0.06446 0.03539 0.41325 0.0
C452 C 0.05854 0.08181 0.36436 0.0
C453 C 0.09843 0.08769 0.30981 0.0
C454 C 0.08591 0.07733 0.33166 0.0
C455 C 0.05119 0.04785 0.39582 0.0
C456 C 0.06264 0.05782 0.37342 0.0
H457 H 0.15077 0.08469 0.28073 0.0
H458 H 0.13089 0.06878 0.3167 0.0
H459 H 0.067 0.11029 0.33786 0.0
H460 H 0.99799 0.0441 0.4241 0.0
H461 H 0.01639 0.06024 0.38695 0.0
C462 C 0.47761 0.93649 0.72373 0.0
C463 C 0.45626 0.9441 0.71394 0.0
C464 C 0.48603 0.94645 0.74418 0.0
C465 C 0.47557 0.99556 0.78568 0.0
H466 H 0.49494 0.94591 0.8327 0.0
C467 C 0.46065 1.00053 0.88523 0.0
C468 C 0.47853 0.99285 0.90059 0.0
C469 C 0.46303 0.99841 0.86101 0.0
C470 C 0.48999 0.9601 0.81967 0.0
H471 H 0.42805 0.96958 0.71675 0.0
H472 H 0.44212 0.98619 0.75271 0.0
H473 H 0.49059 0.93556 0.79201 0.0
H474 H 0.51307 0.97732 0.9027 0.0
H475 H 0.5171 0.97326 0.86026 0.0
H476 H 0.47359 0.0196 0.8139 0.0
C477 C 0.45261 0.97277 0.74461 0.0
C478 C 0.48758 0.95422 0.79628 0.0
C479 C 0.44432 0.96297 0.72414 0.0
C480 C 0.49909 0.98353 0.89122 0.0
C481 C 0.50135 0.98109 0.86701 0.0
C482 C 0.47772 1.00134 0.80915 0.0
C483 C 0.47321 0.96413 0.7553 0.0
C484 C 0.47968 0.97168 0.77911 0.0
C485 C 0.48323 0.98829 0.85172 0.0
C486 C 0.48436 0.98347 0.82644 0.0
H487 H 0.48723 0.92197 0.71631 0.0
H488 H 0.50218 0.93969 0.7517 0.0
H489 H 0.46995 0.00961 0.77283 0.0
H490 H 0.44474 0.00799 0.892 0.0
H491 H 0.44869 0.00386 0.84964 0.0
C492 C 0.61958 0.43111 0.73839 0.0
C493 C 0.63129 0.40882 0.73803 0.0
C494 C 0.60927 0.4414 0.71799 0.0
C495 C 0.5845 0.42462 0.66191 0.0
H496 H 0.59137 0.494 0.64355 0.0
C497 C 0.52789 0.47162 0.58985 0.0
C498 C 0.53985 0.487 0.5727 0.0
C499 C 0.53936 0.46286 0.61016 0.0
C500 C 0.58938 0.47458 0.64844 0.0
H501 H 0.64192 0.38036 0.71561 0.0
H502 H 0.6235 0.3981 0.6802 0.0
H503 H 0.61146 0.4771 0.67857 0.0
H504 H 0.57309 0.5057 0.56366 0.0
H505 H 0.59306 0.49053 0.59934 0.0
H506 H 0.56241 0.42206 0.63187 0.0
C507 C 0.62217 0.40746 0.69636 0.0
C508 C 0.60072 0.46496 0.66854 0.0
C509 C 0.63265 0.39727 0.71669 0.0
C510 C 0.56339 0.49387 0.57655 0.0
C511 C 0.5748 0.48528 0.597 0.0
C512 C 0.57298 0.43428 0.64199 0.0
C513 C 0.61027 0.42956 0.69683 0.0
C514 C 0.59842 0.43987 0.67545 0.0
C515 C 0.56297 0.46945 0.61387 0.0
C516 C 0.57529 0.45935 0.63504 0.0
H517 H 0.61786 0.44034 0.75457 0.0
H518 H 0.59998 0.45832 0.71893 0.0
H519 H 0.58224 0.40526 0.66693 0.0
H520 H 0.50975 0.46598 0.58746 0.0
H521 H 0.52972 0.45092 0.623 0.0
C522 C 0.96967 0.59949 0.27783 0.0
C523 C 0.95103 0.58815 0.29119 0.0
C524 C 0.97335 0.59387 0.25442 0.0
C525 C 0.94145 0.57086 0.20434 0.0
H526 H 1.00224 0.55344 0.18048 0.0
C527 C 0.95107 0.51966 0.12022 0.0
C528 C 0.97056 0.52497 0.1053 0.0
C529 C 0.94925 0.53034 0.14175 0.0
C530 C 0.98522 0.5587 0.18672 0.0
H531 H 0.92255 0.56098 0.29083 0.0
H532 H 0.92873 0.5516 0.25009 0.0
H533 H 0.99866 0.56643 0.22067 0.0
H534 H 1.00332 0.54607 0.10127 0.0
H535 H 0.99987 0.56518 0.13868 0.0
H536 H 0.92788 0.56311 0.17064 0.0
C537 C 0.94021 0.56513 0.25754 0.0
C538 C 0.9832 0.56607 0.20974 0.0
C539 C 0.93667 0.57055 0.28088 0.0
C540 C 0.98796 0.54172 0.11221 0.0
C541 C 0.98613 0.55246 0.13379 0.0
C542 C 0.94348 0.56369 0.18134 0.0
C543 C 0.95835 0.57697 0.24397 0.0
C544 C 0.96118 0.57164 0.21892 0.0
C545 C 0.96684 0.54672 0.1489 0.0
C546 C 0.96528 0.55695 0.17243 0.0
H547 H 0.98096 0.61322 0.28522 0.0
H548 H 0.98747 0.60325 0.2443 0.0
H549 H 0.92433 0.57552 0.21085 0.0
H550 H 0.93722 0.5071 0.11534 0.0
H551 H 0.9343 0.52524 0.15306 0.0
C552 C 0.30129 0.0962 0.12915 0.0
C553 C 0.28626 0.11075 0.11499 0.0
C554 C 0.32198 0.08726 0.11984 0.0
C555 C 0.36276 0.0956 0.06747 0.0
H556 H 0.38513 0.03264 0.09151 0.0
C557 C 0.43511 0.04259 0.02121 0.0
C558 C 0.45325 0.03348 0.03562 0.0
C559 C 0.41525 0.05262 0.03113 0.0
C560 C 0.37917 0.05034 0.08473 0.0
H561 H 0.28187 0.12739 0.07965 0.0
H562 H 0.31685 0.11071 0.06321 0.0
H563 H 0.34942 0.04848 0.10798 0.0
H564 H 0.4646 0.02764 0.07179 0.0
H565 H 0.42962 0.04462 0.08909 0.0
H566 H 0.3922 0.09681 0.0436 0.0
C567 C 0.31308 0.10669 0.08176 0.0
C568 C 0.35872 0.05956 0.09426 0.0
C569 C 0.29261 0.11595 0.09116 0.0
C570 C 0.451 0.03457 0.06019 0.0
C571 C 0.43092 0.04417 0.07011 0.0
C572 C 0.38297 0.08616 0.05767 0.0
C573 C 0.32818 0.09224 0.09594 0.0
C574 C 0.35016 0.08238 0.08582 0.0
C575 C 0.41284 0.05334 0.05569 0.0
C576 C 0.39143 0.06344 0.06622 0.0
H577 H 0.29703 0.0914 0.14748 0.0
H578 H 0.33319 0.07658 0.13155 0.0
H579 H 0.35723 0.11346 0.06075 0.0
H580 H 0.43629 0.04205 1.00224 0.0
H581 H 0.40154 0.0594 0.01958 0.0
C582 C 0.26967 0.91807 0.60258 0.0
C583 C 0.2819 0.89948 0.59224 0.0
C584 C 0.24646 0.92259 0.59656 0.0
C585 C 0.20555 0.91717 0.5483 0.0
H586 H 0.15983 0.93495 0.5947 0.0
C587 C 0.12954 0.98013 0.52605 0.0
C588 C 0.10749 0.97494 0.53667 0.0
C589 C 0.14874 0.96605 0.53236 0.0
C590 C 0.17225 0.92963 0.58158 0.0
H591 H 0.27905 0.87062 0.56788 0.0
H592 H 0.23852 0.87888 0.55702 0.0
H593 H 0.19746 0.91882 0.60766 0.0
H594 H 0.08804 0.9507 0.56186 0.0
H595 H 0.12196 0.92603 0.57325 0.0
H596 H 0.18064 0.92867 0.5222 0.0
C597 C 0.24704 0.88997 0.56974 0.0
C598 C 0.19385 0.92065 0.58897 0.0
C599 C 0.27026 0.88534 0.57587 0.0
C600 C 0.10488 0.95501 0.55342 0.0
C601 C 0.12424 0.94103 0.55997 0.0
C602 C 0.18402 0.92629 0.54091 0.0
C603 C 0.23495 0.90871 0.57996 0.0
C604 C 0.21094 0.91495 0.57238 0.0
C605 C 0.14637 0.94654 0.54956 0.0
C606 C 0.16744 0.93323 0.55745 0.0
H607 H 0.27822 0.92958 0.61493 0.0
H608 H 0.23775 0.93748 0.60437 0.0
H609 H 0.21841 0.91303 0.5351 0.0
H610 H 0.13197 0.99513 0.51282 0.0
H611 H 0.16564 0.97092 0.52424 0.0
C612 C 0.80362 0.41335 0.87845 0.0
C613 C 0.78813 0.39784 0.89218 0.0
C614 C 0.82477 0.42162 0.88784 0.0
C615 C 0.86548 0.40913 0.93802 0.0
H616 H 0.88955 0.47461 0.91954 0.0
C617 C 0.9387 0.45966 0.98752 0.0
C618 C 0.95697 0.47078 0.97352 0.0
C619 C 0.91884 0.44968 0.97706 0.0
C620 C 0.8831 0.45621 0.92469 0.0
H621 H 0.78225 0.37921 0.92654 0.0
H622 H 0.81864 0.39433 0.9433 0.0
H623 H 0.85309 0.45979 0.90264 0.0
H624 H 0.96882 0.48006 0.93762 0.0
H625 H 0.93377 0.46305 0.91939 0.0
H626 H 0.8952 0.4061 0.96078 0.0
C627 C 0.81499 0.39951 0.92504 0.0
C628 C 0.86225 0.44763 0.91494 0.0
C629 C 0.79404 0.39094 0.91552 0.0
C630 C 0.95505 0.47156 0.94886 0.0
C631 C 0.93498 0.46196 0.93843 0.0
C632 C 0.88611 0.41788 0.94804 0.0
C633 C 0.83072 0.41489 0.91131 0.0
C634 C 0.85312 0.42396 0.92148 0.0
C635 C 0.91668 0.451 0.95244 0.0
C636 C 0.8951 0.44149 0.94146 0.0
H637 H 0.79954 0.41872 0.86031 0.0
H638 H 0.83656 0.43303 0.87655 0.0
H639 H 0.85934 0.39063 0.94315 0.0
H640 H 0.93971 0.45874 0.00656 0.0
H641 H 0.90489 0.44144 0.98824 0.0
C642 C 0.80476 0.55632 0.4748 0.0
C643 C 0.8086 0.56911 0.45275 0.0
C644 C 0.78206 0.54848 0.48203 0.0
C645 C 0.72467 0.53181 0.45922 0.0
H646 H 0.6974 0.55609 0.5156 0.0
C647 C 0.62699 0.51423 0.48497 0.0
C648 C 0.6153 0.53621 0.48732 0.0
C649 C 0.65155 0.51411 0.4846 0.0
C650 C 0.70491 0.54891 0.49999 0.0
H651 H 0.79115 0.58444 0.42153 0.0
H652 H 0.75207 0.56985 0.43373 0.0
H653 H 0.73939 0.56324 0.50708 0.0
H654 H 0.61986 0.57491 0.49249 0.0
H655 H 0.66269 0.57468 0.49217 0.0
H656 H 0.69015 0.51817 0.45168 0.0
C657 C 0.76666 0.56574 0.44528 0.0
C658 C 0.72887 0.55289 0.4952 0.0
C659 C 0.78915 0.57397 0.43827 0.0
C660 C 0.6285 0.5578 0.49035 0.0
C661 C 0.65297 0.55761 0.49044 0.0
C662 C 0.70083 0.52748 0.4642 0.0
C663 C 0.7629 0.55291 0.46716 0.0
C664 C 0.73875 0.54504 0.47439 0.0
C665 C 0.66473 0.53587 0.48713 0.0
C666 C 0.69058 0.53666 0.48424 0.0
H667 H 0.81928 0.55204 0.48636 0.0
H668 H 0.7795 0.53865 0.49905 0.0
H669 H 0.73197 0.52554 0.4431 0.0
H670 H 0.61713 0.49739 0.48257 0.0
H671 H 0.66025 0.49712 0.48201 0.0
C672 C 0.13476 0.27628 0.08199 0.0
C673 C 0.12582 0.26452 0.10305 0.0
C674 C 0.12435 0.29735 0.07198 0.0
C675 C 0.08693 0.34832 0.0871 0.0
H676 H 0.07671 0.35633 0.01977 0.0
C677 C 0.03209 0.42712 0.04669 0.0
C678 C 0.03963 0.43887 0.02512 0.0
C679 C 0.0425 0.40563 0.05554 0.0
C680 C 0.07969 0.35457 0.03857 0.0
H681 H 0.09903 0.26598 0.13019 0.0
H682 H 0.08082 0.30253 0.11268 0.0
H683 H 0.0953 0.31955 0.03644 0.0
H684 H 0.06394 0.43698 0.9958 0.0
H685 H 0.08239 0.39967 0.01142 0.0
H686 H 0.0716 0.38333 0.08933 0.0
C687 C 0.09594 0.29552 0.10393 0.0
C688 C 0.09034 0.33343 0.04813 0.0
C689 C 0.10623 0.27439 0.11384 0.0
C690 C 0.05764 0.42837 0.01244 0.0
C691 C 0.06816 0.40688 0.02137 0.0
C692 C 0.07641 0.36947 0.07755 0.0
C693 C 0.10487 0.30731 0.08289 0.0
C694 C 0.09396 0.32998 0.07254 0.0
C695 C 0.06086 0.39532 0.04316 0.0
C696 C 0.07248 0.37285 0.05317 0.0
H697 H 0.1497 0.26906 0.07312 0.0
H698 H 0.13179 0.30606 0.05587 0.0
H699 H 0.08983 0.34649 0.10592 0.0
H700 H 0.01814 0.43458 0.05686 0.0
H701 H 0.03604 0.39704 0.07211 0.0
C702 C 0.62751 0.2233 0.89536 0.0
C703 C 0.61956 0.24644 0.90064 0.0
C704 C 0.61634 0.20192 0.9051 0.0
C705 C 0.57785 0.17839 0.95445 0.0
H706 H 0.56906 0.12289 0.916 0.0
C707 C 0.55052 0.08162 0.99377 0.0
C708 C 0.5347 0.06767 0.9809 0.0
C709 C 0.55985 0.10398 0.98409 0.0
C710 C 0.57116 0.13828 0.92693 0.0
H711 H 0.59365 0.26521 0.9204 0.0
H712 H 0.57385 0.22782 0.93708 0.0
H713 H 0.58674 0.16095 0.89863 0.0
H714 H 0.516 0.06644 0.94791 0.0
H715 H 0.53205 0.10554 0.93116 0.0
H716 H 0.56193 0.15578 0.98266 0.0
C717 C 0.58891 0.22626 0.92558 0.0
C718 C 0.58157 0.16001 0.91705 0.0
C719 C 0.6001 0.24768 0.91583 0.0
C720 C 0.52822 0.07669 0.95825 0.0
C721 C 0.53753 0.09905 0.9486 0.0
C722 C 0.56743 0.15663 0.96434 0.0
C723 C 0.59691 0.20312 0.92032 0.0
C724 C 0.58517 0.18028 0.93071 0.0
C725 C 0.55356 0.11289 0.96133 0.0
C726 C 0.56407 0.13628 0.95073 0.0
H727 H 0.64227 0.22168 0.8835 0.0
H728 H 0.62313 0.18441 0.90088 0.0
H729 H 0.58055 0.19358 0.96552 0.0
H730 H 0.55592 0.07517 0.01124 0.0
H731 H 0.57238 0.11403 0.99426 0.0
C732 C 0.98338 0.73946 0.4585 0.0
C733 C 0.96286 0.7357 0.44548 0.0
C734 C 0.9905 0.76312 0.46402 0.0
C735 C 0.96625 0.82398 0.47055 0.0
H736 H 0.03051 0.84879 0.46342 0.0
C737 C 0.9872 0.92615 0.46927 0.0
C738 C 1.00573 0.93419 0.48324 0.0
C739 C 0.98425 0.90147 0.4651 0.0
C740 C 0.01256 0.84198 0.46576 0.0
H741 H 0.93445 0.75397 0.42702 0.0
H742 H 0.94672 0.79495 0.43672 0.0
H743 H 0.02093 0.80605 0.45569 0.0
H744 H 0.03641 0.92275 0.50288 0.0
H745 H 0.03116 0.8792 0.49556 0.0
H746 H 0.9577 0.8597 0.48034 0.0
C747 C 0.95704 0.77964 0.44314 0.0
C748 C 0.00709 0.81756 0.46135 0.0
C749 C 0.94999 0.75612 0.43762 0.0
C750 C 0.02195 0.91708 0.49206 0.0
C751 C 0.01896 0.8922 0.48787 0.0
C752 C 0.97169 0.84823 0.47491 0.0
C753 C 0.97719 0.78341 0.45665 0.0
C754 C 0.98375 0.80851 0.46321 0.0
C755 C 0.9997 0.88411 0.47484 0.0
C756 C 0.99478 0.85769 0.47205 0.0
H757 H 0.99363 0.72408 0.46488 0.0
H758 H 1.00606 0.76548 0.47453 0.0
H759 H 0.94821 0.81738 0.47272 0.0
H760 H 0.97454 0.93886 0.46194 0.0
H761 H 0.96958 0.89589 0.45451 0.0
C762 C 0.46503 0.75864 0.57814 0.0
C763 C 0.44792 0.7602 0.59588 0.0
C764 C 0.47236 0.73583 0.57168 0.0
C765 C 0.47111 0.66953 0.59109 0.0
H766 H 0.47952 0.6613 0.52435 0.0
C767 C 0.47454 0.57496 0.55159 0.0
C768 C 0.4927 0.57205 0.53523 0.0
C769 C 0.47021 0.59804 0.55959 0.0
C770 C 0.47743 0.66341 0.54305 0.0
H771 H 0.42592 0.73899 0.62149 0.0
H772 H 0.43794 0.69936 0.60962 0.0
H773 H 0.47055 0.70151 0.53757 0.0
H774 H 0.52045 0.59104 0.51431 0.0
H775 H 0.51266 0.63133 0.52811 0.0
H776 H 0.47735 0.63114 0.59638 0.0
C777 C 0.44599 0.71569 0.60088 0.0
C778 C 0.47241 0.68645 0.55066 0.0
C779 C 0.43882 0.73846 0.60745 0.0
C780 C 0.50634 0.59268 0.52694 0.0
C781 C 0.50183 0.61576 0.53474 0.0
C782 C 0.47589 0.64642 0.58344 0.0
C783 C 0.46264 0.71408 0.58272 0.0
C784 C 0.46909 0.68979 0.57477 0.0
C785 C 0.48378 0.61864 0.55118 0.0
C786 C 0.47901 0.64315 0.55935 0.0
H787 H 0.4723 0.77501 0.56876 0.0
H788 H 0.48551 0.73527 0.55788 0.0
H789 H 0.46906 0.67151 0.60981 0.0
H790 H 0.46376 0.55939 0.55831 0.0
H791 H 0.45604 0.59984 0.57213 0.0
C792 C 0.88741 0.88579 0.71679 0.0
C793 C 0.88946 0.89766 0.73794 0.0
C794 C 0.89847 0.89556 0.69607 0.0
C795 C 0.9456 0.94013 0.67384 0.0
H796 H 0.9144 0.93342 0.61425 0.0
C797 C 0.99158 0.96742 0.58382 0.0
C798 C 0.97772 0.97768 0.5656 0.0
C799 C 0.98121 0.95786 0.60506 0.0
C800 C 0.92333 0.93573 0.63071 0.0
H801 H 0.90503 0.92933 0.7536 0.0
H802 H 0.92355 0.94681 0.71735 0.0
H803 H 0.89529 0.91732 0.65051 0.0
H804 H 0.94209 0.98641 0.55572 0.0
H805 H 0.92422 0.97046 0.59268 0.0
H806 H 0.97331 0.9593 0.65401 0.0
C807 C 0.91373 0.92962 0.71687 0.0
C808 C 0.91247 0.92612 0.65159 0.0
C809 C 0.90277 0.91975 0.73766 0.0
C810 C 0.95333 0.97847 0.56927 0.0
C811 C 0.94302 0.96912 0.59049 0.0
C812 C 0.95642 0.94989 0.65294 0.0
C813 C 0.91178 0.91765 0.69576 0.0
C814 C 0.92343 0.92812 0.67349 0.0
C815 C 0.95674 0.95846 0.60865 0.0
C816 C 0.94543 0.94787 0.63104 0.0
H817 H 0.87708 0.86894 0.71612 0.0
H818 H 0.89675 0.88556 0.68032 0.0
H819 H 0.95478 0.9418 0.69028 0.0
H820 H 0.01041 0.96643 0.58156 0.0
H821 H 0.99237 0.94957 0.61846 0.0
C822 C 0.54753 0.09242 0.27737 0.0
C823 C 0.54622 0.07805 0.29877 0.0
C824 C 0.54223 0.08221 0.25617 0.0
C825 C 0.54313 0.02423 0.22839 0.0
H826 H 0.51136 0.06098 0.17815 0.0
C827 C 0.51785 0.01948 0.12339 0.0
C828 C 0.53994 0.01365 0.11444 0.0
C829 C 0.51495 0.02351 0.14722 0.0
C830 C 0.51994 0.05025 0.19206 0.0
H831 H 0.53745 0.04177 0.31464 0.0
H832 H 0.52859 0.02378 0.27733 0.0
H833 H 0.5116 0.07576 0.21765 0.0
H834 H 0.57595 0.00621 0.12375 0.0
H835 H 0.57101 0.0137 0.16525 0.0
H836 H 0.55193 0.999 0.20263 0.0
C837 C 0.53381 0.04298 0.27713 0.0
C838 C 0.52025 0.05885 0.21463 0.0
C839 C 0.53894 0.05328 0.29845 0.0
C840 C 0.55881 0.011 0.13004 0.0
C841 C 0.55589 0.01498 0.15387 0.0
C842 C 0.54289 0.01566 0.20576 0.0
C843 C 0.53565 0.05732 0.25577 0.0
C844 C 0.53235 0.04627 0.23287 0.0
C845 C 0.53404 0.02176 0.16263 0.0
C846 C 0.53177 0.0289 0.18724 0.0
H847 H 0.55358 0.11139 0.27681 0.0
H848 H 0.54425 0.09361 0.23995 0.0
H849 H 0.55271 0.01423 0.24208 0.0
H850 H 0.50297 0.02185 0.11186 0.0
H851 H 0.49784 0.02849 0.15349 0.0
C852 C 0.41195 0.58312 0.27872 0.0
C853 C 0.38987 0.59402 0.27868 0.0
C854 C 0.42179 0.57382 0.29975 0.0
C855 C 0.41658 0.57702 0.36487 0.0
H856 H 0.4567 0.52089 0.36549 0.0
C857 C 0.45089 0.52768 0.45042 0.0
C858 C 0.47533 0.52492 0.45103 0.0
C859 C 0.43993 0.53527 0.4294 0.0
C860 C 0.44557 0.53662 0.36551 0.0
H861 H 0.36083 0.60335 0.30107 0.0
H862 H 0.37729 0.5859 0.33734 0.0
H863 H 0.43799 0.53511 0.3289 0.0
H864 H 0.50737 0.52742 0.43005 0.0
H865 H 0.48805 0.54013 0.3932 0.0
H866 H 0.42378 0.57793 0.40174 0.0
C867 C 0.38739 0.58518 0.32121 0.0
C868 C 0.43494 0.54491 0.34453 0.0
C869 C 0.37771 0.59484 0.30024 0.0
C870 C 0.48852 0.52945 0.43013 0.0
C871 C 0.47748 0.5366 0.40904 0.0
C872 C 0.42688 0.56844 0.38591 0.0
C873 C 0.40968 0.57477 0.32133 0.0
C874 C 0.42044 0.56537 0.34385 0.0
C875 C 0.45313 0.53979 0.40854 0.0
C876 C 0.44161 0.5483 0.38638 0.0
H877 H 0.42172 0.58171 0.26249 0.0
H878 H 0.43911 0.56627 0.29905 0.0
H879 H 0.40597 0.59311 0.36506 0.0
H880 H 0.44027 0.52437 0.46625 0.0
H881 H 0.4211 0.53749 0.42942 0.0
C882 C 0.088 0.39017 0.7418 0.0
C883 C 0.07581 0.40151 0.7229 0.0
C884 C 0.08461 0.39724 0.76473 0.0
C885 C 0.04441 0.43085 0.80198 0.0
H886 H 0.09978 0.43923 0.84011 0.0
C887 C 0.07456 0.48523 0.88784 0.0
C888 C 0.05509 0.48001 0.90285 0.0
C889 C 0.07704 0.47324 0.86706 0.0
C890 C 0.08415 0.43707 0.82965 0.0
H891 H 0.05037 0.42903 0.71325 0.0
H892 H 0.04457 0.44151 0.75318 0.0
H893 H 0.10357 0.42304 0.8014 0.0
H894 H 0.0231 0.45773 0.90779 0.0
H895 H 0.02773 0.43643 0.87184 0.0
H896 H 0.02514 0.44579 0.82984 0.0
C897 C 0.05645 0.42684 0.75039 0.0
C898 C 0.08628 0.4275 0.80757 0.0
C899 C 0.05979 0.41971 0.72748 0.0
C900 C 0.03842 0.46209 0.8968 0.0
C901 C 0.04092 0.45006 0.87602 0.0
C902 C 0.04229 0.44047 0.82404 0.0
C903 C 0.069 0.41587 0.76925 0.0
C904 C 0.06647 0.42454 0.79335 0.0
C905 C 0.06014 0.45568 0.86078 0.0
C906 C 0.06219 0.44396 0.83802 0.0
H907 H 0.1002 0.37582 0.73886 0.0
H908 H 0.09425 0.38813 0.77892 0.0
H909 H 0.02876 0.42852 0.7916 0.0
H910 H 0.08788 0.49867 0.89208 0.0
H911 H 0.09193 0.4782 0.85562 0.0
C912 C 0.71959 0.88013 0.91574 0.0
C913 C 0.73109 0.89272 0.89637 0.0
C914 C 0.69938 0.8894 0.92571 0.0
C915 C 0.65183 0.93391 0.91345 0.0
H916 H 0.64197 0.92559 0.98103 0.0
C917 C 0.56482 0.96057 0.95751 0.0
C918 C 0.56612 0.97086 0.97951 0.0
C919 C 0.58469 0.95069 0.94742 0.0
C920 C 0.64448 0.92832 0.96214 0.0
H921 H 0.72988 0.92505 0.87227 0.0
H922 H 0.69526 0.94157 0.89009 0.0
H923 H 0.67714 0.90995 0.96354 0.0
H924 H 0.5895 0.97893 0.00806 0.0
H925 H 0.62412 0.96226 0.99034 0.0
H926 H 0.61955 0.95302 0.91216 0.0
C927 C 0.70162 0.92426 0.89738 0.0
C928 C 0.66458 0.91899 0.95203 0.0
C929 C 0.72176 0.91492 0.88733 0.0
C930 C 0.58778 0.97101 0.99117 0.0
C931 C 0.60767 0.96128 0.98102 0.0
C932 C 0.63178 0.94336 0.92359 0.0
C933 C 0.69009 0.91164 0.91672 0.0
C934 C 0.66858 0.92162 0.92752 0.0
C935 C 0.60645 0.95097 0.95898 0.0
C936 C 0.62779 0.94071 0.9481 0.0
H937 H 0.72632 0.86317 0.92346 0.0
H938 H 0.69092 0.87893 0.94036 0.0
H939 H 0.65405 0.93607 0.8945 0.0
H940 H 0.54842 0.96008 0.94804 0.0
H941 H 0.58287 0.94261 0.93063 0.0
C942 C 0.72483 0.08611 0.43543 0.0
C943 C 0.72076 0.10515 0.41833 0.0
C944 C 0.74758 0.07877 0.44022 0.0
C945 C 0.80984 0.09728 0.43599 0.0
H946 H 0.81813 0.02703 0.44123 0.0
C947 C 0.89962 0.04906 0.45166 0.0
C948 C 0.89838 0.02884 0.46821 0.0
C949 C 0.87908 0.06076 0.44438 0.0
C950 C 0.81608 0.0467 0.43993 0.0
H951 H 0.73748 0.13191 0.3933 0.0
H952 H 0.77751 0.11905 0.40189 0.0
H953 H 0.78002 0.043 0.43062 0.0
H954 H 0.87515 0.00637 0.49156 0.0
H955 H 0.83962 0.0266 0.47901 0.0
H956 H 0.84607 0.10076 0.44571 0.0
C957 C 0.76295 0.10991 0.41154 0.0
C958 C 0.79426 0.05583 0.43387 0.0
C959 C 0.74008 0.11725 0.40666 0.0
C960 C 0.87655 0.02141 0.47826 0.0
C961 C 0.85621 0.03302 0.47108 0.0
C962 C 0.83182 0.08808 0.44212 0.0
C963 C 0.76685 0.0903 0.42808 0.0
C964 C 0.79074 0.08116 0.4324 0.0
C965 C 0.85713 0.05235 0.45362 0.0
C966 C 0.83492 0.06266 0.44472 0.0
H967 H 0.71039 0.07684 0.44515 0.0
H968 H 0.75011 0.06396 0.45346 0.0
H969 H 0.80757 0.1169 0.43494 0.0
H970 H 0.91628 0.05514 0.44371 0.0
H971 H 0.88025 0.0757 0.43094 0.0
C972 C 0.224 0.62097 0.10309 0.0
C973 C 0.23468 0.60604 0.12068 0.0
C974 C 0.20301 0.61341 0.09294 0.0
C975 C 0.15271 0.56885 0.10189 0.0
H976 H 0.1441 0.58368 0.03501 0.0
C977 C 0.06573 0.54514 0.05583 0.0
C978 C 0.06743 0.5363 0.03324 0.0
C979 C 0.08554 0.55491 0.06661 0.0
C980 C 0.14627 0.57919 0.05367 0.0
H981 H 0.23187 0.57142 0.14136 0.0
H982 H 0.1955 0.55785 0.12327 0.0
H983 H 0.17994 0.59734 0.05358 0.0
H984 H 0.09126 0.53083 1.00422 0.0
H985 H 0.12581 0.54722 0.02316 0.0
H986 H 0.11945 0.54976 0.10174 0.0
C987 C 0.203 0.5757 0.11767 0.0
C988 C 0.16672 0.58735 0.06442 0.0
C989 C 0.22389 0.5834 0.12799 0.0
C990 C 0.08931 0.53763 0.02158 0.0
C991 C 0.10913 0.54718 0.03242 0.0
C992 C 0.13232 0.5605 0.09109 0.0
C993 C 0.19229 0.59059 0.09998 0.0
C994 C 0.17026 0.58223 0.08866 0.0
C995 C 0.10754 0.55588 0.05511 0.0
C996 C 0.12887 0.56547 0.0668 0.0
H997 H 0.23175 0.6387 0.09737 0.0
H998 H 0.19507 0.62559 0.07973 0.0
H999 H 0.15465 0.56484 0.12065 0.0
H1000 H 0.04909 0.54448 0.06524 0.0
H1001 H 0.08357 0.56179 0.08392 0.0
C1002 C 0.21755 0.44734 0.57186 0.0
C1003 C 0.20437 0.43619 0.55456 0.0
C1004 C 0.24041 0.45608 0.567 0.0
C1005 C 0.29017 0.44854 0.52588 0.0
H1006 H 0.31727 0.50167 0.55968 0.0
C1007 C 0.38804 0.48124 0.51735 0.0
C1008 C 0.39946 0.47854 0.53911 0.0
C1009 C 0.36351 0.47977 0.5164 0.0
C1010 C 0.30984 0.48693 0.55 0.0
H1011 H 0.20437 0.42617 0.51836 0.0
H1012 H 0.24412 0.4423 0.50945 0.0
H1013 H 0.27508 0.49295 0.56223 0.0
H1014 H 0.39451 0.47331 0.57686 0.0
H1015 H 0.35157 0.47152 0.57529 0.0
H1016 H 0.32514 0.44283 0.51356 0.0
C1017 C 0.23707 0.44369 0.52703 0.0
C1018 C 0.28572 0.48175 0.55159 0.0
C1019 C 0.21426 0.43456 0.53204 0.0
C1020 C 0.38602 0.47532 0.55992 0.0
C1021 C 0.36156 0.47445 0.55901 0.0
C1022 C 0.31423 0.45407 0.52393 0.0
C1023 C 0.2506 0.45424 0.54457 0.0
C1024 C 0.27565 0.46197 0.54017 0.0
C1025 C 0.35011 0.47624 0.53724 0.0
C1026 C 0.32433 0.47286 0.53649 0.0
H1027 H 0.21049 0.44845 0.5895 0.0
H1028 H 0.25033 0.46348 0.58119 0.0
H1029 H 0.28323 0.43299 0.51705 0.0
H1030 H 0.39812 0.48355 0.5011 0.0
H1031 H 0.35501 0.48116 0.49942 0.0
C1032 C 0.91101 0.72848 0.89104 0.0
C1033 C 0.89151 0.73817 0.90218 0.0
C1034 C 0.92228 0.70808 0.90123 0.0
C1035 C 0.93057 0.67195 0.95779 0.0
H1036 H 0.9498 0.62167 0.91724 0.0
C1037 C 0.96597 0.57848 0.99435 0.0
C1038 C 0.98407 0.5682 0.98159 0.0
C1039 C 0.95492 0.5996 0.98531 0.0
C1040 C 0.94486 0.63566 0.92882 0.0
H1041 H 0.86869 0.73374 0.93297 0.0
H1042 H 0.88846 0.69823 0.95081 0.0
H1043 H 0.93013 0.65751 0.90039 0.0
H1044 H 1.00513 0.57255 0.94956 0.0
H1045 H 0.98624 0.60946 0.93408 0.0
H1046 H 0.94541 0.6501 0.98623 0.0
C1047 C 0.89514 0.70662 0.93423 0.0
C1048 C 0.93352 0.65625 0.91913 0.0
C1049 C 0.8838 0.72702 0.92399 0.0
C1050 C 0.99117 0.57985 0.95983 0.0
C1051 C 0.98018 0.60097 0.95084 0.0
C1052 C 0.942 0.65136 0.9675 0.0
C1053 C 0.91445 0.69679 0.92291 0.0
C1054 C 0.92628 0.67472 0.93344 0.0
C1055 C 0.96172 0.611 0.96331 0.0
C1056 C 0.94939 0.63296 0.95313 0.0
H1057 H 0.9178 0.73684 0.8745 0.0
H1058 H 0.93735 0.70132 0.89221 0.0
H1059 H 0.92548 0.68595 0.96931 0.0
H1060 H 0.96001 0.56995 0.01113 0.0
H1061 H 0.94064 0.60662 0.99533 0.0
C1062 C 0.41616 0.77252 0.13041 0.0
C1063 C 0.39699 0.76133 0.11948 0.0
C1064 C 0.42717 0.7937 0.11997 0.0
C1065 C 0.43584 0.8288 0.06293 0.0
H1066 H 0.45191 0.88262 0.10148 0.0
C1067 C 0.46638 0.92422 0.02279 0.0
C1068 C 0.48398 0.93697 0.03459 0.0
C1069 C 0.45638 0.90237 0.03292 0.0
C1070 C 0.44785 0.86764 0.0905 0.0
H1071 H 0.37419 0.76392 0.08912 0.0
H1072 H 0.39356 0.80072 0.07082 0.0
H1073 H 0.43334 0.84534 0.11966 0.0
H1074 H 0.5052 0.9365 0.06609 0.0
H1075 H 0.48809 0.89818 0.08354 0.0
H1076 H 0.45044 0.85101 0.03378 0.0
C1077 C 0.40022 0.79292 0.08734 0.0
C1078 C 0.43717 0.8463 0.10093 0.0
C1079 C 0.38914 0.77181 0.09783 0.0
C1080 C 0.4916 0.92719 0.05658 0.0
C1081 C 0.48168 0.9053 0.06666 0.0
C1082 C 0.44663 0.85011 0.0525 0.0
C1083 C 0.41934 0.80412 0.09831 0.0
C1084 C 0.43098 0.82667 0.08725 0.0
C1085 C 0.46381 0.89271 0.05505 0.0
C1086 C 0.45271 0.86983 0.06615 0.0
H1087 H 0.42292 0.76472 0.14689 0.0
H1088 H 0.44206 0.80172 0.12869 0.0
H1089 H 0.43157 0.81384 0.05197 0.0
H1090 H 0.46003 0.93131 0.00587 0.0
H1091 H 0.44246 0.89333 0.02362 0.0
C1092 C 0.02488 0.25817 0.57444 0.0
C1093 C 0.04019 0.27123 0.55835 0.0
C1094 C 0.016 0.23495 0.56973 0.0
C1095 C 0.0079 0.19171 0.52266 0.0
H1096 H 0.01372 0.14211 0.57398 0.0
C1097 C 0.01905 0.0816 0.53543 0.0
C1098 C 1.00087 0.07286 0.5214 0.0
C1099 C 0.0202 0.10609 0.54086 0.0
C1100 C 0.01192 0.15576 0.5595 0.0
H1101 H 0.05721 0.27068 0.52416 0.0
H1102 H 0.04197 0.22998 0.51607 0.0
H1103 H 0.0221 0.18496 0.58082 0.0
H1104 H 0.96941 0.08292 0.50233 0.0
H1105 H 0.97156 0.12598 0.51176 0.0
H1106 H 0.99852 0.16226 0.50115 0.0
C1107 C 0.03672 0.23776 0.53228 0.0
C1108 C 0.01649 0.18035 0.56346 0.0
C1109 C 0.04566 0.26096 0.53702 0.0
C1110 C 0.98362 0.08911 0.51321 0.0
C1111 C 0.98491 0.11375 0.51849 0.0
C1112 C 1.00319 0.16708 0.51872 0.0
C1113 C 0.02218 0.22429 0.54881 0.0
C1114 C 0.01496 0.19856 0.54499 0.0
C1115 C 1.0033 0.12251 0.53226 0.0
C1116 C 1.00564 0.14881 0.537 0.0
H1117 H 0.02047 0.26545 0.59113 0.0
H1118 H 1.00464 0.22514 0.5827 0.0
H1119 H 1.00635 0.20536 0.50814 0.0
H1120 H 0.03262 0.06957 0.54202 0.0
H1121 H 0.03476 0.11235 0.55125 0.0
C1122 C 0.53824 0.25487 0.44017 0.0
C1123 C 0.56121 0.24637 0.44151 0.0
C1124 C 0.53331 0.27838 0.4467 0.0
C1125 C 0.55839 0.33037 0.47853 0.0
H1126 H 0.51241 0.3674 0.44241 0.0
C1127 C 0.54566 0.43426 0.48517 0.0
C1128 C 0.52243 0.44072 0.4896 0.0
C1129 C 0.55055 0.41059 0.47904 0.0
C1130 C 0.52523 0.35719 0.45266 0.0
H1131 H 0.59708 0.25562 0.45048 0.0
H1132 H 0.58874 0.2969 0.46116 0.0
H1133 H 0.5206 0.3257 0.43268 0.0
H1134 H 0.48607 0.42779 0.49051 0.0
H1135 H 0.49464 0.38662 0.47926 0.0
H1136 H 0.56339 0.36232 0.49802 0.0
C1137 C 0.57432 0.28529 0.45581 0.0
C1138 C 0.52982 0.33325 0.44724 0.0
C1139 C 0.57915 0.26166 0.44963 0.0
C1140 C 0.50415 0.42329 0.48726 0.0
C1141 C 0.50901 0.3998 0.48074 0.0
C1142 C 0.55404 0.35444 0.48369 0.0
C1143 C 0.55136 0.29402 0.45431 0.0
C1144 C 0.54639 0.31948 0.46018 0.0
C1145 C 0.53226 0.39318 0.47682 0.0
C1146 C 0.53736 0.36799 0.47086 0.0
H1147 H 0.52409 0.2433 0.43411 0.0
H1148 H 0.51535 0.28426 0.44578 0.0
H1149 H 0.57094 0.32022 0.48915 0.0
H1150 H 0.56009 0.44731 0.48692 0.0
H1151 H 0.56861 0.40589 0.47596 0.0
loop_
_geom_bond_atom_site_label_1
_geom_bond_atom_site_label_2
_geom_bond_distance
_geom_bond_site_symmetry_2
_ccdc_geom_bond_type
C0 C1 1.386 . S
C0 C2 1.397 . S
C0 H24 0.931 . S
C1 C0 1.386 . S
C1 C5 1.397 . S
C2 C0 1.397 . S
C2 C3 1.384 . S
C2 H25 0.930 . S
C3 C2 1.384 . S
C3 C4 1.377 . S
C3 C6 1.481 . S
C4 C3 1.377 . S
C4 C5 1.389 . S
C4 H26 0.929 . S
C5 C1 1.397 . S
C5 C4 1.389 . S
C5 H27 0.931 . S
C6 C3 1.481 . S
C6 C7 1.387 . S
C6 C11 1.390 . S
C7 C6 1.387 . S
C7 C8 1.401 . S
C7 H28 0.930 . S
C8 C7 1.401 . S
C8 C9 1.376 . S
C8 C17 1.511 . S
C9 C8 1.376 . S
C9 C10 1.392 . S
C9 H30 0.931 . S
C10 C9 1.392 . S
C10 C11 1.361 . S
C10 C12 1.500 . S
C11 C6 1.390 . S
C11 C10 1.361 . S
C11 H29 0.931 . S
C12 C10 1.500 . S
C12 C13 1.371 . S
C12 C14 1.365 . S
C13 C12 1.371 . S
C13 C23 1.386 . S
C13 H31 0.931 . S
C14 C12 1.365 . S
C14 C15 1.409 . S
C14 H32 0.929 . S
C15 C14 1.409 . S
C15 C16 1.380 . S
C15 H33 0.930 . S
C16 C15 1.380 . S
C16 C23 1.357 . S
C17 C8 1.511 . S
C17 C18 1.341 . S
C17 C19 1.371 . S
C18 C17 1.341 . S
C18 C22 1.394 . S
C18 H34 0.930 . S
C19 C17 1.371 . S
C19 C20 1.392 . S
C19 H35 0.931 . S
C20 C19 1.392 . S
C20 C21 1.331 . S
C20 H38 0.932 . S
C21 C20 1.331 . S
C21 C22 1.336 . S
C22 C18 1.394 . S
C22 C21 1.336 . S
C22 H37 0.929 . S
C23 C13 1.386 . S
C23 C16 1.357 . S
C23 H36 0.928 . S
H24 C0 0.931 . S
H25 C2 0.930 . S
H26 C4 0.929 . S
H27 C5 0.931 . S
H28 C7 0.930 . S
H29 C11 0.931 . S
H30 C9 0.931 . S
H31 C13 0.931 . S
H32 C14 0.929 . S
H33 C15 0.930 . S
H34 C18 0.930 . S
H35 C19 0.931 . S
H36 C23 0.928 . S
H37 C22 0.929 . S
H38 C20 0.932 . S
C39 C40 1.386 . S
C39 C41 1.397 . S
C39 H63 0.931 . S
C40 C39 1.386 . S
C40 C44 1.397 . S
C41 C39 1.397 . S
C41 C42 1.384 . S
C41 H64 0.930 . S
C42 C41 1.384 . S
C42 C43 1.377 . S
C42 C45 1.481 . S
C43 C42 1.377 . S
C43 C44 1.389 . S
C43 H65 0.929 . S
C44 C40 1.397 . S
C44 C43 1.389 . S
C44 H66 0.931 . S
C45 C42 1.481 . S
C45 C46 1.387 . S
C45 C50 1.390 . S
C46 C45 1.387 . S
C46 C47 1.401 . S
C46 H67 0.930 . S
C47 C46 1.401 . S
C47 C48 1.376 . S
C47 C56 1.511 . S
C48 C47 1.376 . S
C48 C49 1.392 . S
C48 H69 0.931 . S
C49 C48 1.392 . S
C49 C50 1.361 . S
C49 C51 1.500 . S
C50 C45 1.390 . S
C50 C49 1.361 . S
C50 H68 0.931 . S
C51 C49 1.500 . S
C51 C52 1.371 . S
C51 C53 1.365 . S
C52 C51 1.371 . S
C52 C62 1.386 . S
C52 H70 0.931 . S
C53 C51 1.365 . S
C53 C54 1.409 . S
C53 H71 0.929 . S
C54 C53 1.409 . S
C54 C55 1.380 . S
C54 H72 0.930 . S
C55 C54 1.380 . S
C55 C62 1.357 . S
C56 C47 1.511 . S
C56 C57 1.341 . S
C56 C58 1.371 . S
C57 C56 1.341 . S
C57 C61 1.394 . S
C57 H73 0.930 . S
C58 C56 1.371 . S
C58 C59 1.392 . S
C58 H74 0.931 . S
C59 C58 1.392 . S
C59 C60 1.331 . S
C59 H77 0.932 . S
C60 C59 1.331 . S
C60 C61 1.336 . S
C61 C57 1.394 . S
C61 C60 1.336 . S
C61 H76 0.929 . S
C62 C52 1.386 . S
C62 C55 1.357 . S
C62 H75 0.928 . S
H63 C39 0.931 . S
H64 C41 0.930 . S
H65 C43 0.929 . S
H66 C44 0.931 . S
H67 C46 0.930 . S
H68 C50 0.931 . S
H69 C48 0.931 . S
H70 C52 0.931 . S
H71 C53 0.929 . S
H72 C54 0.930 . S
H73 C57 0.930 . S
H74 C58 0.931 . S
H75 C62 0.928 . S
H76 C61 0.929 . S
H77 C59 0.932 . S
C78 C79 1.386 . S
C78 C80 1.397 . S
C78 H102 0.931 . S
C79 C78 1.386 . S
C79 C83 1.397 . S
C80 C78 1.397 . S
C80 C81 1.384 . S
C80 H103 0.930 . S
C81 C80 1.384 . S
C81 C82 1.377 . S
C81 C84 1.481 . S
C82 C81 1.377 . S
C82 C83 1.389 . S
C82 H104 0.929 . S
C83 C79 1.397 . S
C83 C82 1.389 . S
C83 H105 0.931 . S
C84 C81 1.481 . S
C84 C85 1.387 . S
C84 C89 1.390 . S
C85 C84 1.387 . S
C85 C86 1.401 . S
C85 H106 0.930 . S
C86 C85 1.401 . S
C86 C87 1.376 . S
C86 C95 1.511 . S
C87 C86 1.376 . S
C87 C88 1.392 . S
C87 H108 0.931 . S
C88 C87 1.392 . S
C88 C89 1.361 . S
C88 C90 1.500 . S
C89 C84 1.390 . S
C89 C88 1.361 . S
C89 H107 0.931 . S
C90 C88 1.500 . S
C90 C91 1.371 . S
C90 C92 1.365 . S
C91 C90 1.371 . S
C91 C101 1.386 . S
C91 H109 0.931 . S
C92 C90 1.365 . S
C92 C93 1.409 . S
C92 H110 0.929 . S
C93 C92 1.409 . S
C93 C94 1.380 . S
C93 H111 0.930 . S
C94 C93 1.380 . S
C94 C101 1.357 . S
C95 C86 1.511 . S
C95 C96 1.341 . S
C95 C97 1.371 . S
C96 C95 1.341 . S
C96 C100 1.394 . S
C96 H112 0.930 . S
C97 C95 1.371 . S
C97 C98 1.392 . S
C97 H113 0.931 . S
C98 C97 1.392 . S
C98 C99 1.331 . S
C98 H116 0.932 . S
C99 C98 1.331 . S
C99 C100 1.336 . S
C100 C96 1.394 . S
C100 C99 1.336 . S
C100 H115 0.929 . S
C101 C91 1.386 . S
C101 C94 1.357 . S
C101 H114 0.928 . S
H102 C78 0.931 . S
H103 C80 0.930 . S
H104 C82 0.929 . S
H105 C83 0.931 . S
H106 C85 0.930 . S
H107 C89 0.931 . S
H108 C87 0.931 . S
H109 C91 0.931 . S
H110 C92 0.929 . S
H111 C93 0.930 . S
H112 C96 0.930 . S
H113 C97 0.931 . S
H114 C101 0.928 . S
H115 C100 0.929 . S
H116 C98 0.932 . S
C117 C118 1.386 . S
C117 C119 1.397 . S
C117 H141 0.931 . S
C118 C117 1.386 . S
C118 C122 1.397 . S
C119 C117 1.397 . S
C119 C120 1.384 . S
C119 H142 0.930 . S
C120 C119 1.384 . S
C120 C121 1.377 . S
C120 C123 1.481 . S
C121 C120 1.377 . S
C121 C122 1.389 . S
C121 H143 0.929 . S
C122 C118 1.397 . S
C122 C121 1.389 . S
C122 H144 0.931 . S
C123 C120 1.481 . S
C123 C124 1.387 . S
C123 C128 1.390 . S
C124 C123 1.387 . S
C124 C125 1.401 . S
C124 H145 0.930 . S
C125 C124 1.401 . S
C125 C126 1.376 . S
C125 C134 1.511 . S
C126 C125 1.376 . S
C126 C127 1.392 . S
C126 H147 0.931 . S
C127 C126 1.392 . S
C127 C128 1.361 . S
C127 C129 1.500 . S
C128 C123 1.390 . S
C128 C127 1.361 . S
C128 H146 0.931 . S
C129 C127 1.500 . S
C129 C130 1.371 . S
C129 C131 1.365 . S
C130 C129 1.371 . S
C130 C140 1.386 . S
C130 H148 0.931 . S
C131 C129 1.365 . S
C131 C132 1.409 . S
C131 H149 0.929 . S
C132 C131 1.409 . S
C132 C133 1.380 . S
C132 H150 0.930 . S
C133 C132 1.380 . S
C133 C140 1.357 . S
C134 C125 1.511 . S
C134 C135 1.341 . S
C134 C136 1.371 . S
C135 C134 1.341 . S
C135 C139 1.394 . S
C135 H151 0.930 . S
C136 C134 1.371 . S
C136 C137 1.392 . S
C136 H152 0.931 . S
C137 C136 1.392 . S
C137 C138 1.331 . S
C137 H155 0.932 . S
C138 C137 1.331 . S
C138 C139 1.336 . S
C139 C135 1.394 . S
C139 C138 1.336 . S
C139 H154 0.929 . S
C140 C130 1.386 . S
C140 C133 1.357 . S
C140 H153 0.928 . S
H141 C117 0.931 . S
H142 C119 0.930 . S
H143 C121 0.929 . S
H144 C122 0.931 . S
H145 C124 0.930 . S
H146 C128 0.931 . S
H147 C126 0.931 . S
H148 C130 0.931 . S
H149 C131 0.929 . S
H150 C132 0.930 . S
H151 C135 0.930 . S
H152 C136 0.931 . S
H153 C140 0.928 . S
H154 C139 0.929 . S
H155 C137 0.932 . S
C156 C157 1.386 . S
C156 C158 1.397 . S
C156 H180 0.931 . S
C157 C156 1.386 . S
C157 C161 1.397 . S
C158 C156 1.397 . S
C158 C159 1.384 . S
C158 H181 0.930 . S
C159 C158 1.384 . S
C159 C160 1.377 . S
C159 C162 1.481 . S
C160 C159 1.377 . S
C160 C161 1.389 . S
C160 H182 0.929 . S
C161 C157 1.397 . S
C161 C160 1.389 . S
C161 H183 0.931 . S
C162 C159 1.481 . S
C162 C163 1.387 . S
C162 C167 1.390 . S
C163 C162 1.387 . S
C163 C164 1.401 . S
C163 H184 0.930 . S
C164 C163 1.401 . S
C164 C165 1.376 . S
C164 C173 1.511 . S
C165 C164 1.376 . S
C165 C166 1.392 . S
C165 H186 0.931 . S
C166 C165 1.392 . S
C166 C167 1.361 . S
C166 C168 1.500 . S
C167 C162 1.390 . S
C167 C166 1.361 . S
C167 H185 0.931 . S
C168 C166 1.500 . S
C168 C169 1.371 . S
C168 C170 1.365 . S
C169 C168 1.371 . S
C169 C179 1.386 . S
C169 H187 0.931 . S
C170 C168 1.365 . S
C170 C171 1.409 . S
C170 H188 0.929 . S
C171 C170 1.409 . S
C171 C172 1.380 . S
C171 H189 0.930 . S
C172 C171 1.380 . S
C172 C179 1.357 . S
C173 C164 1.511 . S
C173 C174 1.341 . S
C173 C175 1.371 . S
C174 C173 1.341 . S
C174 C178 1.394 . S
C174 H190 0.930 . S
C175 C173 1.371 . S
C175 C176 1.392 . S
C175 H191 0.931 . S
C176 C175 1.392 . S
C176 C177 1.331 . S
C176 H194 0.932 . S
C177 C176 1.331 . S
C177 C178 1.336 . S
C178 C174 1.394 . S
C178 C177 1.336 . S
C178 H193 0.929 . S
C179 C169 1.386 . S
C179 C172 1.357 . S
C179 H192 0.928 . S
H180 C156 0.931 . S
H181 C158 0.930 . S
H182 C160 0.929 . S
H183 C161 0.931 . S
H184 C163 0.930 . S
H185 C167 0.931 . S
H186 C165 0.931 . S
H187 C169 0.931 . S
H188 C170 0.929 . S
H189 C171 0.930 . S
H190 C174 0.930 . S
H191 C175 0.931 . S
H192 C179 0.928 . S
H193 C178 0.929 . S
H194 C176 0.932 . S
C195 C196 1.386 . S
C195 C197 1.397 . S
C195 H219 0.931 . S
C196 C195 1.386 . S
C196 C200 1.397 . S
C197 C195 1.397 . S
C197 C198 1.384 . S
C197 H220 0.930 . S
C198 C197 1.384 . S
C198 C199 1.377 . S
C198 C201 1.481 . S
C199 C198 1.377 . S
C199 C200 1.389 . S
C199 H221 0.929 . S
C200 C196 1.397 . S
C200 C199 1.389 . S
C200 H222 0.931 . S
C201 C198 1.481 . S
C201 C202 1.387 . S
C201 C206 1.390 . S
C202 C201 1.387 . S
C202 C203 1.401 . S
C202 H223 0.930 . S
C203 C202 1.401 . S
C203 C204 1.376 . S
C203 C212 1.511 . S
C204 C203 1.376 . S
C204 C205 1.392 . S
C204 H225 0.931 . S
C205 C204 1.392 . S
C205 C206 1.361 . S
C205 C207 1.500 . S
C206 C201 1.390 . S
C206 C205 1.361 . S
C206 H224 0.931 . S
C207 C205 1.500 . S
C207 C208 1.371 . S
C207 C209 1.365 . S
C208 C207 1.371 . S
C208 C218 1.386 . S
C208 H226 0.931 . S
C209 C207 1.365 . S
C209 C210 1.409 . S
C209 H227 0.929 . S
C210 C209 1.409 . S
C210 C211 1.380 . S
C210 H228 0.930 . S
C211 C210 1.380 . S
C211 C218 1.357 . S
C212 C203 1.511 . S
C212 C213 1.341 . S
C212 C214 1.371 . S
C213 C212 1.341 . S
C213 C217 1.394 . S
C213 H229 0.930 . S
C214 C212 1.371 . S
C214 C215 1.392 . S
C214 H230 0.931 . S
C215 C214 1.392 . S
C215 C216 1.331 . S
C215 H233 0.932 . S
C216 C215 1.331 . S
C216 C217 1.336 . S
C217 C213 1.394 . S
C217 C216 1.336 . S
C217 H232 0.929 . S
C218 C208 1.386 . S
C218 C211 1.357 . S
C218 H231 0.928 . S
H219 C195 0.931 . S
H220 C197 0.930 . S
H221 C199 0.929 . S
H222 C200 0.931 . S
H223 C202 0.930 . S
H224 C206 0.931 . S
H225 C204 0.931 . S
H226 C208 0.931 . S
H227 C209 0.929 . S
H228 C210 0.930 . S
H229 C213 0.930 . S
H230 C214 0.931 . S
H231 C218 0.928 . S
H232 C217 0.929 . S
H233 C215 0.932 . S
C234 C235 1.386 . S
C234 C236 1.397 . S
C234 H258 0.931 . S
C235 C234 1.386 . S
C235 C239 1.397 . S
C236 C234 1.397 . S
C236 C237 1.384 . S
C236 H259 0.930 . S
C237 C236 1.384 . S
C237 C238 1.377 . S
C237 C240 1.481 . S
C238 C237 1.377 . S
C238 C239 1.389 . S
C238 H260 0.929 . S
C239 C235 1.397 . S
C239 C238 1.389 . S
C239 H261 0.931 . S
C240 C237 1.481 . S
C240 C241 1.387 . S
C240 C245 1.390 . S
C241 C240 1.387 . S
C241 C242 1.401 . S
C241 H262 0.930 . S
C242 C241 1.401 . S
C242 C243 1.376 . S
C242 C251 1.511 . S
C243 C242 1.376 . S
C243 C244 1.392 . S
C243 H264 0.931 . S
C244 C243 1.392 . S
C244 C245 1.361 . S
C244 C246 1.500 . S
C245 C240 1.390 . S
C245 C244 1.361 . S
C245 H263 0.931 . S
C246 C244 1.500 . S
C246 C247 1.371 . S
C246 C248 1.365 . S
C247 C246 1.371 . S
C247 C257 1.386 . S
C247 H265 0.931 . S
C248 C246 1.365 . S
C248 C249 1.409 . S
C248 H266 0.929 . S
C249 C248 1.409 . S
C249 C250 1.380 . S
C249 H267 0.930 . S
C250 C249 1.380 . S
C250 C257 1.357 . S
C251 C242 1.511 . S
C251 C252 1.341 . S
C251 C253 1.371 . S
C252 C251 1.341 . S
C252 C256 1.394 . S
C252 H268 0.930 . S
C253 C251 1.371 . S
C253 C254 1.392 . S
C253 H269 0.931 . S
C254 C253 1.392 . S
C254 C255 1.331 . S
C254 H272 0.932 . S
C255 C254 1.331 . S
C255 C256 1.336 . S
C256 C252 1.394 . S
C256 C255 1.336 . S
C256 H271 0.929 . S
C257 C247 1.386 . S
C257 C250 1.357 . S
C257 H270 0.928 . S
H258 C234 0.931 . S
H259 C236 0.930 . S
H260 C238 0.929 . S
H261 C239 0.931 . S
H262 C241 0.930 . S
H263 C245 0.931 . S
H264 C243 0.931 . S
H265 C247 0.931 . S
H266 C248 0.929 . S
H267 C249 0.930 . S
H268 C252 0.930 . S
H269 C253 0.931 . S
H270 C257 0.928 . S
H271 C256 0.929 . S
H272 C254 0.932 . S
C273 C274 1.386 . S
C273 C275 1.397 . S
C273 H297 0.931 . S
C274 C273 1.386 . S
C274 C278 1.397 . S
C275 C273 1.397 . S
C275 C276 1.384 . S
C275 H298 0.930 . S
C276 C275 1.384 . S
C276 C277 1.377 . S
C276 C279 1.481 . S
C277 C276 1.377 . S
C277 C278 1.389 . S
C277 H299 0.929 . S
C278 C274 1.397 . S
C278 C277 1.389 . S
C278 H300 0.931 . S
C279 C276 1.481 . S
C279 C280 1.387 . S
C279 C284 1.390 . S
C280 C279 1.387 . S
C280 C281 1.401 . S
C280 H301 0.930 . S
C281 C280 1.401 . S
C281 C282 1.376 . S
C281 C290 1.511 . S
C282 C281 1.376 . S
C282 C283 1.392 . S
C282 H303 0.931 . S
C283 C282 1.392 . S
C283 C284 1.361 . S
C283 C285 1.500 . S
C284 C279 1.390 . S
C284 C283 1.361 . S
C284 H302 0.931 . S
C285 C283 1.500 . S
C285 C286 1.371 . S
C285 C287 1.365 . S
C286 C285 1.371 . S
C286 C296 1.386 . S
C286 H304 0.931 . S
C287 C285 1.365 . S
C287 C288 1.409 . S
C287 H305 0.929 . S
C288 C287 1.409 . S
C288 C289 1.380 . S
C288 H306 0.930 . S
C289 C288 1.380 . S
C289 C296 1.357 . S
C290 C281 1.511 . S
C290 C291 1.341 . S
C290 C292 1.371 . S
C291 C290 1.341 . S
C291 C295 1.394 . S
C291 H307 0.930 . S
C292 C290 1.371 . S
C292 C293 1.392 . S
C292 H308 0.931 . S
C293 C292 1.392 . S
C293 C294 1.331 . S
C293 H311 0.932 . S
C294 C293 1.331 . S
C294 C295 1.336 . S
C295 C291 1.394 . S
C295 C294 1.336 . S
C295 H310 0.929 . S
C296 C286 1.386 . S
C296 C289 1.357 . S
C296 H309 0.928 . S
H297 C273 0.931 . S
H298 C275 0.930 . S
H299 C277 0.929 . S
H300 C278 0.931 . S
H301 C280 0.930 . S
H302 C284 0.931 . S
H303 C282 0.931 . S
H304 C286 0.931 . S
H305 C287 0.929 . S
H306 C288 0.930 . S
H307 C291 0.930 . S
H308 C292 0.931 . S
H309 C296 0.928 . S
H310 C295 0.929 . S
H311 C293 0.932 . S
Co312 N317 2.057 . S
Co312 O329 2.021 . S
Co312 O332 2.062 . S
Co312 O336 2.117 1_545 S
Co312 O337 2.020 1_545 S
C313 O333 1.259 1_655 S
C313 O336 1.258 . S
Co314 N323 2.057 . S
Co314 O330 2.117 1_565 S
Co314 O331 2.020 1_565 S
Co314 O333 2.021 . S
Co314 O338 2.062 . S
C315 N317 1.316 . S
C315 N318 1.347 . S
C315 H320 0.931 . S
C316 N317 1.375 1_565 S
C316 C319 1.350 1_565 S
C316 H321 0.930 . S
N317 Co312 2.057 . S
N317 C315 1.316 . S
N317 C316 1.375 1_545 S
N318 C315 1.347 . S
N318 C319 1.373 . S
C319 C316 1.350 1_545 S
C319 N318 1.373 . S
C319 H340 0.931 1_545 S
H320 C315 0.931 . S
H321 C316 0.930 . S
C322 O329 1.259 1_455 S
C322 O330 1.258 . S
N323 Co314 2.057 . S
N323 C324 1.316 . S
N323 C325 1.375 1_565 S
C324 N323 1.316 . S
C324 N326 1.347 . S
C324 H335 0.931 . S
C325 N323 1.375 1_545 S
C325 C327 1.350 1_545 S
C325 H334 0.930 . S
N326 C324 1.347 . S
N326 C327 1.373 . S
C327 C325 1.350 1_565 S
C327 N326 1.373 . S
C327 H341 0.931 1_565 S
C328 O331 1.256 . S
C328 O332 1.255 1_455 S
O329 Co312 2.021 . S
O329 C322 1.259 1_655 S
O330 Co314 2.117 1_545 S
O330 C322 1.258 . S
O331 Co314 2.020 1_545 S
O331 C328 1.256 . S
O332 Co312 2.062 . S
O332 C328 1.255 1_655 S
O333 C313 1.259 1_455 S
O333 Co314 2.021 . S
H334 C325 0.930 . S
H335 C324 0.931 . S
O336 Co312 2.117 1_565 S
O336 C313 1.258 . S
O337 Co312 2.020 1_565 S
O337 C339 1.256 . S
O338 Co314 2.062 . S
O338 C339 1.255 1_455 S
C339 O337 1.256 . S
C339 O338 1.255 1_655 S
H340 C319 0.931 1_565 S
H341 C327 0.931 1_545 S
Co342 N347 2.057 . S
Co342 O359 2.021 1_565 S
Co342 O362 2.062 . S
Co342 O366 2.138 . S
Co342 O367 2.020 1_565 S
C343 O363 1.259 . S
C343 O366 1.222 1_554 S
Co344 N353 2.057 . S
Co344 O360 2.117 . S
Co344 O361 2.020 1_545 S
Co344 O363 2.021 1_545 S
Co344 O368 2.062 . S
C345 N347 1.316 . S
C345 N348 1.347 . S
C345 H350 0.931 1_565 S
C346 N347 1.375 . S
C346 C349 1.350 . S
C346 H351 0.930 . S
N347 Co342 2.057 . S
N347 C345 1.316 . S
N347 C346 1.375 . S
N348 C345 1.347 . S
N348 C349 1.373 . S
C349 C346 1.350 . S
C349 N348 1.373 . S
C349 H370 0.931 . S
H350 C345 0.931 1_545 S
H351 C346 0.930 . S
C352 O359 1.259 . S
C352 O360 1.258 1_556 S
N353 Co344 2.057 . S
N353 C354 1.316 . S
N353 C355 1.375 . S
C354 N353 1.316 . S
C354 N356 1.347 . S
C354 H365 0.931 1_545 S
C355 N353 1.375 . S
C355 C357 1.350 . S
C355 H364 0.930 . S
N356 C354 1.347 . S
N356 C357 1.373 . S
C357 C355 1.350 . S
C357 N356 1.373 . S
C357 H371 0.931 . S
C358 O361 1.256 1_556 S
C358 O362 1.255 . S
O359 Co342 2.021 1_545 S
O359 C352 1.259 . S
O360 Co344 2.117 . S
O360 C352 1.258 1_554 S
O361 Co344 2.020 1_565 S
O361 C358 1.256 1_554 S
O362 Co342 2.062 . S
O362 C358 1.255 . S
O363 C343 1.259 . S
O363 Co344 2.021 1_565 S
H364 C355 0.930 . S
H365 C354 0.931 1_565 S
O366 Co342 2.138 . S
O366 C343 1.222 1_556 S
O367 Co342 2.020 1_545 S
O367 C369 1.256 1_556 S
O368 Co344 2.062 . S
O368 C369 1.255 . S
C369 O367 1.256 1_554 S
C369 O368 1.255 . S
H370 C349 0.931 . S
H371 C357 0.931 . S
Co372 N377 2.057 . S
Co372 O389 2.021 . S
Co372 O392 2.062 . S
Co372 O396 2.117 . S
Co372 O397 2.020 . S
C373 O393 1.259 . S
C373 O396 1.258 . S
Co374 N383 2.057 . S
Co374 O390 2.117 . S
Co374 O391 2.020 . S
Co374 O393 2.021 . S
Co374 O398 2.062 . S
C375 N377 1.316 . S
C375 N378 1.347 . S
C375 H380 0.931 . S
C376 N377 1.375 . S
C376 C379 1.350 . S
C376 H381 0.930 . S
N377 Co372 2.057 . S
N377 C375 1.316 . S
N377 C376 1.375 . S
N378 C375 1.347 . S
N378 C379 1.373 . S
C379 C376 1.350 . S
C379 N378 1.373 . S
C379 H400 0.931 . S
H380 C375 0.931 . S
H381 C376 0.930 . S
C382 O389 1.259 . S
C382 O390 1.258 . S
N383 Co374 2.057 . S
N383 C384 1.316 . S
N383 C385 1.375 . S
C384 N383 1.316 . S
C384 N386 1.347 . S
C384 H395 0.931 . S
C385 N383 1.375 . S
C385 C387 1.350 . S
C385 H394 0.930 . S
N386 C384 1.347 . S
N386 C387 1.373 . S
C387 C385 1.350 . S
C387 N386 1.373 . S
C387 H401 0.931 . S
C388 O391 1.256 . S
C388 O392 1.255 . S
O389 Co372 2.021 . S
O389 C382 1.259 . S
O390 Co374 2.117 . S
O390 C382 1.258 . S
O391 Co374 2.020 . S
O391 C388 1.256 . S
O392 Co372 2.062 . S
O392 C388 1.255 . S
O393 C373 1.259 . S
O393 Co374 2.021 . S
H394 C385 0.930 . S
H395 C384 0.931 . S
O396 Co372 2.117 . S
O396 C373 1.258 . S
O397 Co372 2.020 . S
O397 C399 1.256 . S
O398 Co374 2.062 . S
O398 C399 1.255 . S
C399 O397 1.256 . S
C399 O398 1.255 . S
H400 C379 0.931 . S
H401 C387 0.931 . S
Co402 N407 2.057 . S
Co402 O419 2.021 . S
Co402 O422 2.062 . S
Co402 O426 2.117 1_455 S
Co402 O427 2.020 1_455 S
C403 O423 1.259 1_556 S
C403 O426 1.258 . S
Co404 N413 2.057 . S
Co404 O420 2.117 1_655 S
Co404 O421 2.020 1_655 S
Co404 O423 2.021 . S
Co404 O428 2.062 . S
C405 N407 1.316 . S
C405 N408 1.347 . S
C405 H410 0.931 . S
C406 N407 1.375 1_655 S
C406 C409 1.350 1_655 S
C406 H411 0.930 . S
N407 Co402 2.057 . S
N407 C405 1.316 . S
N407 C406 1.375 1_455 S
N408 C405 1.347 . S
N408 C409 1.373 . S
C409 C406 1.350 1_455 S
C409 N408 1.373 . S
C409 H430 0.931 1_455 S
H410 C405 0.931 . S
H411 C406 0.930 . S
C412 O419 1.259 1_554 S
C412 O420 1.258 . S
N413 Co404 2.057 . S
N413 C414 1.316 . S
N413 C415 1.375 1_655 S
C414 N413 1.316 . S
C414 N416 1.347 . S
C414 H425 0.931 . S
C415 N413 1.375 1_455 S
C415 C417 1.350 1_455 S
C415 H424 0.930 . S
N416 C414 1.347 . S
N416 C417 1.373 . S
C417 C415 1.350 1_655 S
C417 N416 1.373 . S
C417 H431 0.931 1_655 S
C418 O421 1.256 . S
C418 O422 1.255 1_554 S
O419 Co402 2.021 . S
O419 C412 1.259 1_556 S
O420 Co404 2.117 1_455 S
O420 C412 1.258 . S
O421 Co404 2.020 1_455 S
O421 C418 1.256 . S
O422 Co402 2.062 . S
O422 C418 1.255 1_556 S
O423 C403 1.259 1_554 S
O423 Co404 2.021 . S
H424 C415 0.930 . S
H425 C414 0.931 . S
O426 Co402 2.117 1_655 S
O426 C403 1.258 . S
O427 Co402 2.020 1_655 S
O427 C429 1.256 . S
O428 Co404 2.062 . S
O428 C429 1.255 1_554 S
C429 O427 1.256 . S
C429 O428 1.255 1_556 S
H430 C409 0.931 1_655 S
H431 C417 0.931 1_455 S
C432 C433 1.349 . S
C432 C434 1.327 . S
C432 H457 0.950 . S
C433 C432 1.349 . S
C433 C449 1.349 . S
C434 C432 1.327 . S
C434 C453 1.429 . S
C434 H458 0.950 . S
C435 C452 1.574 . S
C435 C454 1.368 . S
C435 H459 0.949 . S
H436 C440 0.949 . S
C437 C438 1.349 . S
C437 C439 1.327 . S
C437 H460 0.950 . S
C438 C437 1.349 . S
C438 C450 1.349 . S
C439 C437 1.327 . S
C439 C455 1.429 . S
C439 H461 0.950 . S
C440 H436 0.949 . S
C440 C448 1.574 . S
C440 C456 1.368 . S
H441 C449 0.950 . S
H442 C447 0.950 . S
H443 C448 0.949 . S
H444 C450 0.950 1_565 S
H445 C451 0.950 . S
H446 C452 0.949 . S
C447 H442 0.950 . S
C447 C449 1.327 . S
C447 C453 1.429 . S
C448 C440 1.574 . S
C448 H443 0.949 . S
C448 C454 1.368 . S
C449 C433 1.349 . S
C449 H441 0.950 . S
C449 C447 1.327 . S
C450 C438 1.349 . S
C450 H444 0.950 1_545 S
C450 C451 1.327 . S
C451 H445 0.950 . S
C451 C450 1.327 . S
C451 C455 1.429 . S
C452 C435 1.574 . S
C452 H446 0.949 . S
C452 C456 1.368 . S
C453 C434 1.429 . S
C453 C447 1.429 . S
C453 C454 1.523 . S
C454 C435 1.368 . S
C454 C448 1.368 . S
C454 C453 1.523 . S
C455 C439 1.429 . S
C455 C451 1.429 . S
C455 C456 1.523 . S
C456 C440 1.368 . S
C456 C452 1.368 . S
C456 C455 1.523 . S
H457 C432 0.950 . S
H458 C434 0.950 . S
H459 C435 0.949 . S
H460 C437 0.950 . S
H461 C439 0.950 . S
C462 C463 1.349 . S
C462 C464 1.327 . S
C462 H487 0.950 . S
C463 C462 1.349 . S
C463 C479 1.349 . S
C464 C462 1.327 . S
C464 C483 1.429 . S
C464 H488 0.950 . S
C465 C482 1.574 . S
C465 C484 1.368 . S
C465 H489 0.949 . S
H466 C470 0.949 . S
C467 C468 1.349 . S
C467 C469 1.327 . S
C467 H490 0.920 1_565 S
C468 C467 1.349 . S
C468 C480 1.349 . S
C469 C467 1.327 . S
C469 C485 1.429 . S
C469 H491 0.950 . S
C470 H466 0.949 . S
C470 C478 1.574 . S
C470 C486 1.368 . S
H471 C479 0.950 . S
H472 C477 0.950 . S
H473 C478 0.949 . S
H474 C480 0.950 . S
H475 C481 0.950 . S
H476 C482 0.949 . S
C477 H472 0.950 . S
C477 C479 1.327 . S
C477 C483 1.429 . S
C478 C470 1.574 . S
C478 H473 0.949 . S
C478 C484 1.368 . S
C479 C463 1.349 . S
C479 H471 0.950 . S
C479 C477 1.327 . S
C480 C468 1.349 . S
C480 H474 0.950 . S
C480 C481 1.327 . S
C481 H475 0.950 . S
C481 C480 1.327 . S
C481 C485 1.429 . S
C482 C465 1.574 . S
C482 H476 0.949 . S
C482 C486 1.368 . S
C483 C464 1.429 . S
C483 C477 1.429 . S
C483 C484 1.523 . S
C484 C465 1.368 . S
C484 C478 1.368 . S
C484 C483 1.523 . S
C485 C469 1.429 . S
C485 C481 1.429 . S
C485 C486 1.523 . S
C486 C470 1.368 . S
C486 C482 1.368 . S
C486 C485 1.523 . S
H487 C462 0.950 . S
H488 C464 0.950 . S
H489 C465 0.949 . S
H490 C467 0.920 1_545 S
H491 C469 0.950 . S
C492 C493 1.349 . S
C492 C494 1.327 . S
C492 H517 0.950 . S
C493 C492 1.349 . S
C493 C509 1.349 . S
C494 C492 1.327 . S
C494 C513 1.429 . S
C494 H518 0.950 . S
C495 C512 1.574 . S
C495 C514 1.368 . S
C495 H519 0.949 . S
H496 C500 0.949 . S
C497 C498 1.349 . S
C497 C499 1.327 . S
C497 H520 0.950 . S
C498 C497 1.349 . S
C498 C510 1.349 . S
C499 C497 1.327 . S
C499 C515 1.429 . S
C499 H521 0.950 . S
C500 H496 0.949 . S
C500 C508 1.574 . S
C500 C516 1.368 . S
H501 C509 0.950 . S
H502 C507 0.950 . S
H503 C508 0.949 . S
H504 C510 0.950 . S
H505 C511 0.950 . S
H506 C512 0.949 . S
C507 H502 0.950 . S
C507 C509 1.327 . S
C507 C513 1.429 . S
C508 C500 1.574 . S
C508 H503 0.949 . S
C508 C514 1.368 . S
C509 C493 1.349 . S
C509 H501 0.950 . S
C509 C507 1.327 . S
C510 C498 1.349 . S
C510 H504 0.950 . S
C510 C511 1.327 . S
C511 H505 0.950 . S
C511 C510 1.327 . S
C511 C515 1.429 . S
C512 C495 1.574 . S
C512 H506 0.949 . S
C512 C516 1.368 . S
C513 C494 1.429 . S
C513 C507 1.429 . S
C513 C514 1.523 . S
C514 C495 1.368 . S
C514 C508 1.368 . S
C514 C513 1.523 . S
C515 C499 1.429 . S
C515 C511 1.429 . S
C515 C516 1.523 . S
C516 C500 1.368 . S
C516 C512 1.368 . S
C516 C515 1.523 . S
H517 C492 0.950 . S
H518 C494 0.950 . S
H519 C495 0.949 . S
H520 C497 0.950 . S
H521 C499 0.950 . S
C522 C523 1.349 . S
C522 C524 1.327 . S
C522 H547 0.950 . S
C523 C522 1.349 . S
C523 C539 1.349 . S
C524 C522 1.327 . S
C524 C543 1.429 . S
C524 H548 0.950 . S
C525 C542 1.574 . S
C525 C544 1.368 . S
C525 H549 0.949 . S
H526 C530 0.949 . S
C527 C528 1.349 . S
C527 C529 1.327 . S
C527 H550 0.950 . S
C528 C527 1.349 . S
C528 C540 1.349 . S
C529 C527 1.327 . S
C529 C545 1.429 . S
C529 H551 0.950 . S
C530 H526 0.949 . S
C530 C538 1.574 . S
C530 C546 1.368 . S
H531 C539 0.950 . S
H532 C537 0.950 . S
H533 C538 0.949 . S
H534 C540 0.950 . S
H535 C541 0.950 . S
H536 C542 0.949 . S
C537 H532 0.950 . S
C537 C539 1.327 . S
C537 C543 1.429 . S
C538 C530 1.574 . S
C538 H533 0.949 . S
C538 C544 1.368 . S
C539 C523 1.349 . S
C539 H531 0.950 . S
C539 C537 1.327 . S
C540 C528 1.349 . S
C540 H534 0.950 . S
C540 C541 1.327 . S
C541 H535 0.950 . S
C541 C540 1.327 . S
C541 C545 1.429 . S
C542 C525 1.574 . S
C542 H536 0.949 . S
C542 C546 1.368 . S
C543 C524 1.429 . S
C543 C537 1.429 . S
C543 C544 1.523 . S
C544 C525 1.368 . S
C544 C538 1.368 . S
C544 C543 1.523 . S
C545 C529 1.429 . S
C545 C541 1.429 . S
C545 C546 1.523 . S
C546 C530 1.368 . S
C546 C542 1.368 . S
C546 C545 1.523 . S
H547 C522 0.950 . S
H548 C524 0.950 . S
H549 C525 0.949 . S
H550 C527 0.950 . S
H551 C529 0.950 . S
C552 C553 1.349 . S
C552 C554 1.327 . S
C552 H577 0.950 . S
C553 C552 1.349 . S
C553 C569 1.349 . S
C554 C552 1.327 . S
C554 C573 1.429 . S
C554 H578 0.950 . S
C555 C572 1.574 . S
C555 C574 1.368 . S
C555 H579 0.949 . S
H556 C560 0.949 . S
C557 C558 1.349 . S
C557 C559 1.327 . S
C557 H580 0.950 . S
C558 C557 1.349 . S
C558 C570 1.349 . S
C559 C557 1.327 . S
C559 C575 1.429 . S
C559 H581 0.950 . S
C560 H556 0.949 . S
C560 C568 1.574 . S
C560 C576 1.368 . S
H561 C569 0.950 . S
H562 C567 0.950 . S
H563 C568 0.949 . S
H564 C570 0.950 1_565 S
H565 C571 0.950 . S
H566 C572 0.949 . S
C567 H562 0.950 . S
C567 C569 1.327 . S
C567 C573 1.429 . S
C568 C560 1.574 . S
C568 H563 0.949 . S
C568 C574 1.368 . S
C569 C553 1.349 . S
C569 H561 0.950 . S
C569 C567 1.327 . S
C570 C558 1.349 . S
C570 H564 0.950 1_545 S
C570 C571 1.327 . S
C571 H565 0.950 . S
C571 C570 1.327 . S
C571 C575 1.429 . S
C572 C555 1.574 . S
C572 H566 0.949 . S
C572 C576 1.368 . S
C573 C554 1.429 . S
C573 C567 1.429 . S
C573 C574 1.523 . S
C574 C555 1.368 . S
C574 C568 1.368 . S
C574 C573 1.523 . S
C575 C559 1.429 . S
C575 C571 1.429 . S
C575 C576 1.523 . S
C576 C560 1.368 . S
C576 C572 1.368 . S
C576 C575 1.523 . S
H577 C552 0.950 . S
H578 C554 0.950 . S
H579 C555 0.949 . S
H580 C557 0.950 . S
H581 C559 0.950 . S
C582 C583 1.349 . S
C582 C584 1.327 . S
C582 H607 0.950 . S
C583 C582 1.349 . S
C583 C599 1.349 . S
C584 C582 1.327 . S
C584 C603 1.429 . S
C584 H608 0.950 . S
C585 C602 1.574 . S
C585 C604 1.368 . S
C585 H609 0.949 . S
H586 C590 0.949 . S
C587 C588 1.349 . S
C587 C589 1.327 . S
C587 H610 0.950 . S
C588 C587 1.349 . S
C588 C600 1.349 . S
C589 C587 1.327 . S
C589 C605 1.429 . S
C589 H611 0.950 . S
C590 H586 0.949 . S
C590 C598 1.574 . S
C590 C606 1.368 . S
H591 C599 0.950 . S
H592 C597 0.950 . S
H593 C598 0.949 . S
H594 C600 0.950 . S
H595 C601 0.950 . S
H596 C602 0.949 . S
C597 H592 0.950 . S
C597 C599 1.327 . S
C597 C603 1.429 . S
C598 C590 1.574 . S
C598 H593 0.949 . S
C598 C604 1.368 . S
C599 C583 1.349 . S
C599 H591 0.950 . S
C599 C597 1.327 . S
C600 C588 1.349 . S
C600 H594 0.950 . S
C600 C601 1.327 . S
C601 H595 0.950 . S
C601 C600 1.327 . S
C601 C605 1.429 . S
C602 C585 1.574 . S
C602 H596 0.949 . S
C602 C606 1.368 . S
C603 C584 1.429 . S
C603 C597 1.429 . S
C603 C604 1.523 . S
C604 C585 1.368 . S
C604 C598 1.368 . S
C604 C603 1.523 . S
C605 C589 1.429 . S
C605 C601 1.429 . S
C605 C606 1.523 . S
C606 C590 1.368 . S
C606 C602 1.368 . S
C606 C605 1.523 . S
H607 C582 0.950 . S
H608 C584 0.950 . S
H609 C585 0.949 . S
H610 C587 0.950 . S
H611 C589 0.950 . S
C612 C613 1.349 . S
C612 C614 1.327 . S
C612 H637 0.950 . S
C613 C612 1.349 . S
C613 C629 1.349 . S
C614 C612 1.327 . S
C614 C633 1.429 . S
C614 H638 0.950 . S
C615 C632 1.574 . S
C615 C634 1.368 . S
C615 H639 0.949 . S
H616 C620 0.949 . S
C617 C618 1.349 . S
C617 C619 1.327 . S
C617 H640 0.950 1_556 S
C618 C617 1.349 . S
C618 C630 1.349 . S
C619 C617 1.327 . S
C619 C635 1.429 . S
C619 H641 0.950 . S
C620 H616 0.949 . S
C620 C628 1.574 . S
C620 C636 1.368 . S
H621 C629 0.950 . S
H622 C627 0.950 . S
H623 C628 0.949 . S
H624 C630 0.950 . S
H625 C631 0.950 . S
H626 C632 0.949 . S
C627 H622 0.950 . S
C627 C629 1.327 . S
C627 C633 1.429 . S
C628 C620 1.574 . S
C628 H623 0.949 . S
C628 C634 1.368 . S
C629 C613 1.349 . S
C629 H621 0.950 . S
C629 C627 1.327 . S
C630 C618 1.349 . S
C630 H624 0.950 . S
C630 C631 1.327 . S
C631 H625 0.950 . S
C631 C630 1.327 . S
C631 C635 1.429 . S
C632 C615 1.574 . S
C632 H626 0.949 . S
C632 C636 1.368 . S
C633 C614 1.429 . S
C633 C627 1.429 . S
C633 C634 1.523 . S
C634 C615 1.368 . S
C634 C628 1.368 . S
C634 C633 1.523 . S
C635 C619 1.429 . S
C635 C631 1.429 . S
C635 C636 1.523 . S
C636 C620 1.368 . S
C636 C632 1.368 . S
C636 C635 1.523 . S
H637 C612 0.950 . S
H638 C614 0.950 . S
H639 C615 0.949 . S
H640 C617 0.950 1_554 S
H641 C619 0.950 . S
C642 C643 1.349 . S
C642 C644 1.327 . S
C642 H667 0.950 . S
C643 C642 1.349 . S
C643 C659 1.349 . S
C644 C642 1.327 . S
C644 C663 1.429 . S
C644 H668 0.950 . S
C645 C662 1.574 . S
C645 C664 1.368 . S
C645 H669 0.949 . S
H646 C650 0.949 . S
C647 C648 1.349 . S
C647 C649 1.327 . S
C647 H670 0.950 . S
C648 C647 1.349 . S
C648 C660 1.349 . S
C649 C647 1.327 . S
C649 C665 1.429 . S
C649 H671 0.950 . S
C650 H646 0.949 . S
C650 C658 1.574 . S
C650 C666 1.368 . S
H651 C659 0.950 . S
H652 C657 0.950 . S
H653 C658 0.949 . S
H654 C660 0.950 . S
H655 C661 0.950 . S
H656 C662 0.949 . S
C657 H652 0.950 . S
C657 C659 1.327 . S
C657 C663 1.429 . S
C658 C650 1.574 . S
C658 H653 0.949 . S
C658 C664 1.368 . S
C659 C643 1.349 . S
C659 H651 0.950 . S
C659 C657 1.327 . S
C660 C648 1.349 . S
C660 H654 0.950 . S
C660 C661 1.327 . S
C661 H655 0.950 . S
C661 C660 1.327 . S
C661 C665 1.429 . S
C662 C645 1.574 . S
C662 H656 0.949 . S
C662 C666 1.368 . S
C663 C644 1.429 . S
C663 C657 1.429 . S
C663 C664 1.523 . S
C664 C645 1.368 . S
C664 C658 1.368 . S
C664 C663 1.523 . S
C665 C649 1.429 . S
C665 C661 1.429 . S
C665 C666 1.523 . S
C666 C650 1.368 . S
C666 C662 1.368 . S
C666 C665 1.523 . S
H667 C642 0.950 . S
H668 C644 0.950 . S
H669 C645 0.949 . S
H670 C647 0.950 . S
H671 C649 0.950 . S
C672 C673 1.349 . S
C672 C674 1.327 . S
C672 H697 0.950 . S
C673 C672 1.349 . S
C673 C689 1.349 . S
C674 C672 1.327 . S
C674 C693 1.429 . S
C674 H698 0.950 . S
C675 C692 1.574 . S
C675 C694 1.368 . S
C675 H699 0.949 . S
H676 C680 0.949 . S
C677 C678 1.349 . S
C677 C679 1.327 . S
C677 H700 0.950 . S
C678 C677 1.349 . S
C678 C690 1.349 . S
C679 C677 1.327 . S
C679 C695 1.429 . S
C679 H701 0.950 . S
C680 H676 0.949 . S
C680 C688 1.574 . S
C680 C696 1.368 . S
H681 C689 0.950 . S
H682 C687 0.950 . S
H683 C688 0.949 . S
H684 C690 0.950 1_556 S
H685 C691 0.950 . S
H686 C692 0.949 . S
C687 H682 0.950 . S
C687 C689 1.327 . S
C687 C693 1.429 . S
C688 C680 1.574 . S
C688 H683 0.949 . S
C688 C694 1.368 . S
C689 C673 1.349 . S
C689 H681 0.950 . S
C689 C687 1.327 . S
C690 C678 1.349 . S
C690 H684 0.950 1_554 S
C690 C691 1.327 . S
C691 H685 0.950 . S
C691 C690 1.327 . S
C691 C695 1.429 . S
C692 C675 1.574 . S
C692 H686 0.949 . S
C692 C696 1.368 . S
C693 C674 1.429 . S
C693 C687 1.429 . S
C693 C694 1.523 . S
C694 C675 1.368 . S
C694 C688 1.368 . S
C694 C693 1.523 . S
C695 C679 1.429 . S
C695 C691 1.429 . S
C695 C696 1.523 . S
C696 C680 1.368 . S
C696 C692 1.368 . S
C696 C695 1.523 . S
H697 C672 0.950 . S
H698 C674 0.950 . S
H699 C675 0.949 . S
H700 C677 0.950 . S
H701 C679 0.950 . S
C702 C703 1.349 . S
C702 C704 1.327 . S
C702 H727 0.950 . S
C703 C702 1.349 . S
C703 C719 1.349 . S
C704 C702 1.327 . S
C704 C723 1.429 . S
C704 H728 0.950 . S
C705 C722 1.574 . S
C705 C724 1.368 . S
C705 H729 0.949 . S
H706 C710 0.949 . S
C707 C708 1.349 . S
C707 C709 1.327 . S
C707 H730 0.950 . S
C708 C707 1.349 . S
C708 C720 1.349 . S
C709 C707 1.327 . S
C709 C725 1.429 . S
C709 H731 0.950 . S
C710 H706 0.949 . S
C710 C718 1.574 . S
C710 C726 1.368 . S
H711 C719 0.950 . S
H712 C717 0.950 . S
H713 C718 0.949 . S
H714 C720 0.950 . S
H715 C721 0.950 . S
H716 C722 0.949 . S
C717 H712 0.950 . S
C717 C719 1.327 . S
C717 C723 1.429 . S
C718 C710 1.574 . S
C718 H713 0.949 . S
C718 C724 1.368 . S
C719 C703 1.349 . S
C719 H711 0.950 . S
C719 C717 1.327 . S
C720 C708 1.349 . S
C720 H714 0.950 . S
C720 C721 1.327 . S
C721 H715 0.950 . S
C721 C720 1.327 . S
C721 C725 1.429 . S
C722 C705 1.574 . S
C722 H716 0.949 . S
C722 C726 1.368 . S
C723 C704 1.429 . S
C723 C717 1.429 . S
C723 C724 1.523 . S
C724 C705 1.368 . S
C724 C718 1.368 . S
C724 C723 1.523 . S
C725 C709 1.429 . S
C725 C721 1.429 . S
C725 C726 1.523 . S
C726 C710 1.368 . S
C726 C722 1.368 . S
C726 C725 1.523 . S
H727 C702 0.950 . S
H728 C704 0.950 . S
H729 C705 0.949 . S
H730 C707 0.950 . S
H731 C709 0.950 . S
C732 C733 1.349 . S
C732 C734 1.327 . S
C732 H757 0.950 . S
C733 C732 1.349 . S
C733 C749 1.349 . S
C734 C732 1.327 . S
C734 C753 1.429 . S
C734 H758 0.950 . S
C735 C752 1.574 . S
C735 C754 1.368 . S
C735 H759 0.949 . S
H736 C740 0.949 . S
C737 C738 1.349 . S
C737 C739 1.327 . S
C737 H760 0.950 . S
C738 C737 1.349 . S
C738 C750 1.349 . S
C739 C737 1.327 . S
C739 C755 1.429 . S
C739 H761 0.950 . S
C740 H736 0.949 . S
C740 C748 1.574 . S
C740 C756 1.368 . S
H741 C749 0.950 . S
H742 C747 0.950 . S
H743 C748 0.949 . S
H744 C750 0.950 1_455 S
H745 C751 0.950 . S
H746 C752 0.949 . S
C747 H742 0.950 . S
C747 C749 1.327 . S
C747 C753 1.429 . S
C748 C740 1.574 . S
C748 H743 0.949 . S
C748 C754 1.368 . S
C749 C733 1.349 . S
C749 H741 0.950 . S
C749 C747 1.327 . S
C750 C738 1.349 . S
C750 H744 0.950 1_655 S
C750 C751 1.327 . S
C751 H745 0.950 . S
C751 C750 1.327 . S
C751 C755 1.429 . S
C752 C735 1.574 . S
C752 H746 0.949 . S
C752 C756 1.368 . S
C753 C734 1.429 . S
C753 C747 1.429 . S
C753 C754 1.523 . S
C754 C735 1.368 . S
C754 C748 1.368 . S
C754 C753 1.523 . S
C755 C739 1.429 . S
C755 C751 1.429 . S
C755 C756 1.523 . S
C756 C740 1.368 . S
C756 C752 1.368 . S
C756 C755 1.523 . S
H757 C732 0.950 . S
H758 C734 0.950 . S
H759 C735 0.949 . S
H760 C737 0.950 . S
H761 C739 0.950 . S
C762 C763 1.349 . S
C762 C764 1.327 . S
C762 H787 0.950 . S
C763 C762 1.349 . S
C763 C779 1.349 . S
C764 C762 1.327 . S
C764 C783 1.429 . S
C764 H788 0.950 . S
C765 C782 1.574 . S
C765 C784 1.368 . S
C765 H789 0.949 . S
H766 C770 0.949 . S
C767 C768 1.349 . S
C767 C769 1.327 . S
C767 H790 0.950 . S
C768 C767 1.349 . S
C768 C780 1.349 . S
C769 C767 1.327 . S
C769 C785 1.429 . S
C769 H791 0.950 . S
C770 H766 0.949 . S
C770 C778 1.574 . S
C770 C786 1.368 . S
H771 C779 0.950 . S
H772 C777 0.950 . S
H773 C778 0.949 . S
H774 C780 0.950 . S
H775 C781 0.950 . S
H776 C782 0.949 . S
C777 H772 0.950 . S
C777 C779 1.327 . S
C777 C783 1.429 . S
C778 C770 1.574 . S
C778 H773 0.949 . S
C778 C784 1.368 . S
C779 C763 1.349 . S
C779 H771 0.950 . S
C779 C777 1.327 . S
C780 C768 1.349 . S
C780 H774 0.950 . S
C780 C781 1.327 . S
C781 H775 0.950 . S
C781 C780 1.327 . S
C781 C785 1.429 . S
C782 C765 1.574 . S
C782 H776 0.949 . S
C782 C786 1.368 . S
C783 C764 1.429 . S
C783 C777 1.429 . S
C783 C784 1.523 . S
C784 C765 1.368 . S
C784 C778 1.368 . S
C784 C783 1.523 . S
C785 C769 1.429 . S
C785 C781 1.429 . S
C785 C786 1.523 . S
C786 C770 1.368 . S
C786 C782 1.368 . S
C786 C785 1.523 . S
H787 C762 0.950 . S
H788 C764 0.950 . S
H789 C765 0.949 . S
H790 C767 0.950 . S
H791 C769 0.950 . S
C792 C793 1.349 . S
C792 C794 1.327 . S
C792 H817 0.950 . S
C793 C792 1.349 . S
C793 C809 1.349 . S
C794 C792 1.327 . S
C794 C813 1.429 . S
C794 H818 0.950 . S
C795 C812 1.574 . S
C795 C814 1.368 . S
C795 H819 0.949 . S
H796 C800 0.949 . S
C797 C798 1.349 . S
C797 C799 1.327 . S
C797 H820 0.952 1_565 S
C798 C797 1.349 . S
C798 C810 1.349 . S
C799 C797 1.327 . S
C799 C815 1.429 . S
C799 H821 0.950 . S
C800 H796 0.949 . S
C800 C808 1.574 . S
C800 C816 1.368 . S
H801 C809 0.950 . S
H802 C807 0.950 . S
H803 C808 0.949 . S
H804 C810 0.950 . S
H805 C811 0.950 . S
H806 C812 0.949 . S
C807 H802 0.950 . S
C807 C809 1.327 . S
C807 C813 1.429 . S
C808 C800 1.574 . S
C808 H803 0.949 . S
C808 C814 1.368 . S
C809 C793 1.349 . S
C809 H801 0.950 . S
C809 C807 1.327 . S
C810 C798 1.349 . S
C810 H804 0.950 . S
C810 C811 1.327 . S
C811 H805 0.950 . S
C811 C810 1.327 . S
C811 C815 1.429 . S
C812 C795 1.574 . S
C812 H806 0.949 . S
C812 C816 1.368 . S
C813 C794 1.429 . S
C813 C807 1.429 . S
C813 C814 1.523 . S
C814 C795 1.368 . S
C814 C808 1.368 . S
C814 C813 1.523 . S
C815 C799 1.429 . S
C815 C811 1.429 . S
C815 C816 1.523 . S
C816 C800 1.368 . S
C816 C812 1.368 . S
C816 C815 1.523 . S
H817 C792 0.950 . S
H818 C794 0.950 . S
H819 C795 0.949 . S
H820 C797 0.952 1_545 S
H821 C799 0.950 . S
C822 C823 1.349 . S
C822 C824 1.327 . S
C822 H847 0.950 . S
C823 C822 1.349 . S
C823 C839 1.349 . S
C824 C822 1.327 . S
C824 C843 1.429 . S
C824 H848 0.950 . S
C825 C842 1.574 . S
C825 C844 1.368 . S
C825 H849 0.949 . S
H826 C830 0.949 . S
C827 C828 1.349 . S
C827 C829 1.327 . S
C827 H850 0.950 . S
C828 C827 1.349 . S
C828 C840 1.349 . S
C829 C827 1.327 . S
C829 C845 1.429 . S
C829 H851 0.950 . S
C830 H826 0.949 . S
C830 C838 1.574 . S
C830 C846 1.368 . S
H831 C839 0.950 . S
H832 C837 0.950 . S
H833 C838 0.949 . S
H834 C840 0.950 . S
H835 C841 0.950 . S
H836 C842 0.949 . S
C837 H832 0.950 . S
C837 C839 1.327 . S
C837 C843 1.429 . S
C838 C830 1.574 . S
C838 H833 0.949 . S
C838 C844 1.368 . S
C839 C823 1.349 . S
C839 H831 0.950 . S
C839 C837 1.327 . S
C840 C828 1.349 . S
C840 H834 0.950 . S
C840 C841 1.327 . S
C841 H835 0.950 . S
C841 C840 1.327 . S
C841 C845 1.429 . S
C842 C825 1.574 . S
C842 H836 0.949 . S
C842 C846 1.368 . S
C843 C824 1.429 . S
C843 C837 1.429 . S
C843 C844 1.523 . S
C844 C825 1.368 . S
C844 C838 1.368 . S
C844 C843 1.523 . S
C845 C829 1.429 . S
C845 C841 1.429 . S
C845 C846 1.523 . S
C846 C830 1.368 . S
C846 C842 1.368 . S
C846 C845 1.523 . S
H847 C822 0.950 . S
H848 C824 0.950 . S
H849 C825 0.949 . S
H850 C827 0.950 . S
H851 C829 0.950 . S
C852 C853 1.349 . S
C852 C854 1.327 . S
C852 H877 0.950 . S
C853 C852 1.349 . S
C853 C869 1.349 . S
C854 C852 1.327 . S
C854 C873 1.429 . S
C854 H878 0.950 . S
C855 C872 1.574 . S
C855 C874 1.368 . S
C855 H879 0.949 . S
H856 C860 0.949 . S
C857 C858 1.349 . S
C857 C859 1.327 . S
C857 H880 0.950 . S
C858 C857 1.349 . S
C858 C870 1.349 . S
C859 C857 1.327 . S
C859 C875 1.429 . S
C859 H881 0.950 . S
C860 H856 0.949 . S
C860 C868 1.574 . S
C860 C876 1.368 . S
H861 C869 0.950 . S
H862 C867 0.950 . S
H863 C868 0.949 . S
H864 C870 0.950 . S
H865 C871 0.950 . S
H866 C872 0.949 . S
C867 H862 0.950 . S
C867 C869 1.327 . S
C867 C873 1.429 . S
C868 C860 1.574 . S
C868 H863 0.949 . S
C868 C874 1.368 . S
C869 C853 1.349 . S
C869 H861 0.950 . S
C869 C867 1.327 . S
C870 C858 1.349 . S
C870 H864 0.950 . S
C870 C871 1.327 . S
C871 H865 0.950 . S
C871 C870 1.327 . S
C871 C875 1.429 . S
C872 C855 1.574 . S
C872 H866 0.949 . S
C872 C876 1.368 . S
C873 C854 1.429 . S
C873 C867 1.429 . S
C873 C874 1.523 . S
C874 C855 1.368 . S
C874 C868 1.368 . S
C874 C873 1.523 . S
C875 C859 1.429 . S
C875 C871 1.429 . S
C875 C876 1.523 . S
C876 C860 1.368 . S
C876 C872 1.368 . S
C876 C875 1.523 . S
H877 C852 0.950 . S
H878 C854 0.950 . S
H879 C855 0.949 . S
H880 C857 0.950 . S
H881 C859 0.950 . S
C882 C883 1.349 . S
C882 C884 1.327 . S
C882 H907 0.950 . S
C883 C882 1.349 . S
C883 C899 1.349 . S
C884 C882 1.327 . S
C884 C903 1.429 . S
C884 H908 0.950 . S
C885 C902 1.574 . S
C885 C904 1.368 . S
C885 H909 0.949 . S
H886 C890 0.949 . S
C887 C888 1.349 . S
C887 C889 1.327 . S
C887 H910 0.950 . S
C888 C887 1.349 . S
C888 C900 1.349 . S
C889 C887 1.327 . S
C889 C905 1.429 . S
C889 H911 0.950 . S
C890 H886 0.949 . S
C890 C898 1.574 . S
C890 C906 1.368 . S
H891 C899 0.950 . S
H892 C897 0.950 . S
H893 C898 0.949 . S
H894 C900 0.950 . S
H895 C901 0.950 . S
H896 C902 0.949 . S
C897 H892 0.950 . S
C897 C899 1.327 . S
C897 C903 1.429 . S
C898 C890 1.574 . S
C898 H893 0.949 . S
C898 C904 1.368 . S
C899 C883 1.349 . S
C899 H891 0.950 . S
C899 C897 1.327 . S
C900 C888 1.349 . S
C900 H894 0.950 . S
C900 C901 1.327 . S
C901 H895 0.950 . S
C901 C900 1.327 . S
C901 C905 1.429 . S
C902 C885 1.574 . S
C902 H896 0.949 . S
C902 C906 1.368 . S
C903 C884 1.429 . S
C903 C897 1.429 . S
C903 C904 1.523 . S
C904 C885 1.368 . S
C904 C898 1.368 . S
C904 C903 1.523 . S
C905 C889 1.429 . S
C905 C901 1.429 . S
C905 C906 1.523 . S
C906 C890 1.368 . S
C906 C902 1.368 . S
C906 C905 1.523 . S
H907 C882 0.950 . S
H908 C884 0.950 . S
H909 C885 0.949 . S
H910 C887 0.950 . S
H911 C889 0.950 . S
C912 C913 1.349 . S
C912 C914 1.327 . S
C912 H937 0.950 . S
C913 C912 1.349 . S
C913 C929 1.349 . S
C914 C912 1.327 . S
C914 C933 1.429 . S
C914 H938 0.950 . S
C915 C932 1.574 . S
C915 C934 1.368 . S
C915 H939 0.949 . S
H916 C920 0.949 . S
C917 C918 1.349 . S
C917 C919 1.327 . S
C917 H940 0.950 . S
C918 C917 1.349 . S
C918 C930 1.349 . S
C919 C917 1.327 . S
C919 C935 1.429 . S
C919 H941 0.950 . S
C920 H916 0.949 . S
C920 C928 1.574 . S
C920 C936 1.368 . S
H921 C929 0.950 . S
H922 C927 0.950 . S
H923 C928 0.949 . S
H924 C930 0.950 1_554 S
H925 C931 0.950 1_554 S
H926 C932 0.949 . S
C927 H922 0.950 . S
C927 C929 1.327 . S
C927 C933 1.429 . S
C928 C920 1.574 . S
C928 H923 0.949 . S
C928 C934 1.368 . S
C929 C913 1.349 . S
C929 H921 0.950 . S
C929 C927 1.327 . S
C930 C918 1.349 . S
C930 H924 0.950 1_556 S
C930 C931 1.327 . S
C931 H925 0.950 1_556 S
C931 C930 1.327 . S
C931 C935 1.429 . S
C932 C915 1.574 . S
C932 H926 0.949 . S
C932 C936 1.368 . S
C933 C914 1.429 . S
C933 C927 1.429 . S
C933 C934 1.523 . S
C934 C915 1.368 . S
C934 C928 1.368 . S
C934 C933 1.523 . S
C935 C919 1.429 . S
C935 C931 1.429 . S
C935 C936 1.523 . S
C936 C920 1.368 . S
C936 C932 1.368 . S
C936 C935 1.523 . S
H937 C912 0.950 . S
H938 C914 0.950 . S
H939 C915 0.949 . S
H940 C917 0.950 . S
H941 C919 0.950 . S
C942 C943 1.349 . S
C942 C944 1.327 . S
C942 H967 0.950 . S
C943 C942 1.349 . S
C943 C959 1.349 . S
C944 C942 1.327 . S
C944 C963 1.429 . S
C944 H968 0.950 . S
C945 C962 1.574 . S
C945 C964 1.368 . S
C945 H969 0.949 . S
H946 C950 0.949 . S
C947 C948 1.349 . S
C947 C949 1.327 . S
C947 H970 0.950 . S
C948 C947 1.349 . S
C948 C960 1.349 . S
C949 C947 1.327 . S
C949 C965 1.429 . S
C949 H971 0.950 . S
C950 H946 0.949 . S
C950 C958 1.574 . S
C950 C966 1.368 . S
H951 C959 0.950 . S
H952 C957 0.950 . S
H953 C958 0.949 . S
H954 C960 0.950 . S
H955 C961 0.950 . S
H956 C962 0.949 . S
C957 H952 0.950 . S
C957 C959 1.327 . S
C957 C963 1.429 . S
C958 C950 1.574 . S
C958 H953 0.949 . S
C958 C964 1.368 . S
C959 C943 1.349 . S
C959 H951 0.950 . S
C959 C957 1.327 . S
C960 C948 1.349 . S
C960 H954 0.950 . S
C960 C961 1.327 . S
C961 H955 0.950 . S
C961 C960 1.327 . S
C961 C965 1.429 . S
C962 C945 1.574 . S
C962 H956 0.949 . S
C962 C966 1.368 . S
C963 C944 1.429 . S
C963 C957 1.429 . S
C963 C964 1.523 . S
C964 C945 1.368 . S
C964 C958 1.368 . S
C964 C963 1.523 . S
C965 C949 1.429 . S
C965 C961 1.429 . S
C965 C966 1.523 . S
C966 C950 1.368 . S
C966 C962 1.368 . S
C966 C965 1.523 . S
H967 C942 0.950 . S
H968 C944 0.950 . S
H969 C945 0.949 . S
H970 C947 0.950 . S
H971 C949 0.950 . S
C972 C973 1.349 . S
C972 C974 1.327 . S
C972 H997 0.950 . S
C973 C972 1.349 . S
C973 C989 1.349 . S
C974 C972 1.327 . S
C974 C993 1.429 . S
C974 H998 0.950 . S
C975 C992 1.574 . S
C975 C994 1.368 . S
C975 H999 0.949 . S
H976 C980 0.949 . S
C977 C978 1.349 . S
C977 C979 1.327 . S
C977 H1000 0.950 . S
C978 C977 1.349 . S
C978 C990 1.349 . S
C979 C977 1.327 . S
C979 C995 1.429 . S
C979 H1001 0.950 . S
C980 H976 0.949 . S
C980 C988 1.574 . S
C980 C996 1.368 . S
H981 C989 0.950 . S
H982 C987 0.950 . S
H983 C988 0.949 . S
H984 C990 0.950 1_556 S
H985 C991 0.950 . S
H986 C992 0.949 . S
C987 H982 0.950 . S
C987 C989 1.327 . S
C987 C993 1.429 . S
C988 C980 1.574 . S
C988 H983 0.949 . S
C988 C994 1.368 . S
C989 C973 1.349 . S
C989 H981 0.950 . S
C989 C987 1.327 . S
C990 C978 1.349 . S
C990 H984 0.950 1_554 S
C990 C991 1.327 . S
C991 H985 0.950 . S
C991 C990 1.327 . S
C991 C995 1.429 . S
C992 C975 1.574 . S
C992 H986 0.949 . S
C992 C996 1.368 . S
C993 C974 1.429 . S
C993 C987 1.429 . S
C993 C994 1.523 . S
C994 C975 1.368 . S
C994 C988 1.368 . S
C994 C993 1.523 . S
C995 C979 1.429 . S
C995 C991 1.429 . S
C995 C996 1.523 . S
C996 C980 1.368 . S
C996 C992 1.368 . S
C996 C995 1.523 . S
H997 C972 0.950 . S
H998 C974 0.950 . S
H999 C975 0.949 . S
H1000 C977 0.950 . S
H1001 C979 0.950 . S
C1002 C1003 1.349 . S
C1002 C1004 1.327 . S
C1002 H1027 0.950 . S
C1003 C1002 1.349 . S
C1003 C1019 1.349 . S
C1004 C1002 1.327 . S
C1004 C1023 1.429 . S
C1004 H1028 0.950 . S
C1005 C1022 1.574 . S
C1005 C1024 1.368 . S
C1005 H1029 0.949 . S
H1006 C1010 0.949 . S
C1007 C1008 1.349 . S
C1007 C1009 1.327 . S
C1007 H1030 0.950 . S
C1008 C1007 1.349 . S
C1008 C1020 1.349 . S
C1009 C1007 1.327 . S
C1009 C1025 1.429 . S
C1009 H1031 0.950 . S
C1010 H1006 0.949 . S
C1010 C1018 1.574 . S
C1010 C1026 1.368 . S
H1011 C1019 0.950 . S
H1012 C1017 0.950 . S
H1013 C1018 0.949 . S
H1014 C1020 0.950 . S
H1015 C1021 0.950 . S
H1016 C1022 0.949 . S
C1017 H1012 0.950 . S
C1017 C1019 1.327 . S
C1017 C1023 1.429 . S
C1018 C1010 1.574 . S
C1018 H1013 0.949 . S
C1018 C1024 1.368 . S
C1019 C1003 1.349 . S
C1019 H1011 0.950 . S
C1019 C1017 1.327 . S
C1020 C1008 1.349 . S
C1020 H1014 0.950 . S
C1020 C1021 1.327 . S
C1021 H1015 0.950 . S
C1021 C1020 1.327 . S
C1021 C1025 1.429 . S
C1022 C1005 1.574 . S
C1022 H1016 0.949 . S
C1022 C1026 1.368 . S
C1023 C1004 1.429 . S
C1023 C1017 1.429 . S
C1023 C1024 1.523 . S
C1024 C1005 1.368 . S
C1024 C1018 1.368 . S
C1024 C1023 1.523 . S
C1025 C1009 1.429 . S
C1025 C1021 1.429 . S
C1025 C1026 1.523 . S
C1026 C1010 1.368 . S
C1026 C1022 1.368 . S
C1026 C1025 1.523 . S
H1027 C1002 0.950 . S
H1028 C1004 0.950 . S
H1029 C1005 0.949 . S
H1030 C1007 0.950 . S
H1031 C1009 0.950 . S
C1032 C1033 1.349 . S
C1032 C1034 1.327 . S
C1032 H1057 0.950 . S
C1033 C1032 1.349 . S
C1033 C1049 1.349 . S
C1034 C1032 1.327 . S
C1034 C1053 1.429 . S
C1034 H1058 0.950 . S
C1035 C1052 1.574 . S
C1035 C1054 1.368 . S
C1035 H1059 0.949 . S
H1036 C1040 0.949 . S
C1037 C1038 1.349 . S
C1037 C1039 1.327 . S
C1037 H1060 0.950 1_556 S
C1038 C1037 1.349 . S
C1038 C1050 1.349 . S
C1039 C1037 1.327 . S
C1039 C1055 1.429 . S
C1039 H1061 0.950 1_556 S
C1040 H1036 0.949 . S
C1040 C1048 1.574 . S
C1040 C1056 1.368 . S
H1041 C1049 0.950 . S
H1042 C1047 0.950 . S
H1043 C1048 0.949 . S
H1044 C1050 0.950 . S
H1045 C1051 0.950 . S
H1046 C1052 0.949 . S
C1047 H1042 0.950 . S
C1047 C1049 1.327 . S
C1047 C1053 1.429 . S
C1048 C1040 1.574 . S
C1048 H1043 0.949 . S
C1048 C1054 1.368 . S
C1049 C1033 1.349 . S
C1049 H1041 0.950 . S
C1049 C1047 1.327 . S
C1050 C1038 1.349 . S
C1050 H1044 0.950 . S
C1050 C1051 1.327 . S
C1051 H1045 0.950 . S
C1051 C1050 1.327 . S
C1051 C1055 1.429 . S
C1052 C1035 1.574 . S
C1052 H1046 0.949 . S
C1052 C1056 1.368 . S
C1053 C1034 1.429 . S
C1053 C1047 1.429 . S
C1053 C1054 1.523 . S
C1054 C1035 1.368 . S
C1054 C1048 1.368 . S
C1054 C1053 1.523 . S
C1055 C1039 1.429 . S
C1055 C1051 1.429 . S
C1055 C1056 1.523 . S
C1056 C1040 1.368 . S
C1056 C1052 1.368 . S
C1056 C1055 1.523 . S
H1057 C1032 0.950 . S
H1058 C1034 0.950 . S
H1059 C1035 0.949 . S
H1060 C1037 0.950 1_554 S
H1061 C1039 0.950 1_554 S
C1062 C1063 1.349 . S
C1062 C1064 1.327 . S
C1062 H1087 0.950 . S
C1063 C1062 1.349 . S
C1063 C1079 1.349 . S
C1064 C1062 1.327 . S
C1064 C1083 1.429 . S
C1064 H1088 0.950 . S
C1065 C1082 1.574 . S
C1065 C1084 1.368 . S
C1065 H1089 0.949 . S
H1066 C1070 0.949 . S
C1067 C1068 1.349 . S
C1067 C1069 1.327 . S
C1067 H1090 0.950 1_554 S
C1068 C1067 1.349 . S
C1068 C1080 1.349 . S
C1069 C1067 1.327 . S
C1069 C1085 1.429 . S
C1069 H1091 0.950 . S
C1070 H1066 0.949 . S
C1070 C1078 1.574 . S
C1070 C1086 1.368 . S
H1071 C1079 0.950 . S
H1072 C1077 0.950 . S
H1073 C1078 0.949 . S
H1074 C1080 0.950 . S
H1075 C1081 0.950 . S
H1076 C1082 0.949 . S
C1077 H1072 0.950 . S
C1077 C1079 1.327 . S
C1077 C1083 1.429 . S
C1078 C1070 1.574 . S
C1078 H1073 0.949 . S
C1078 C1084 1.368 . S
C1079 C1063 1.349 . S
C1079 H1071 0.950 . S
C1079 C1077 1.327 . S
C1080 C1068 1.349 . S
C1080 H1074 0.950 . S
C1080 C1081 1.327 . S
C1081 H1075 0.950 . S
C1081 C1080 1.327 . S
C1081 C1085 1.429 . S
C1082 C1065 1.574 . S
C1082 H1076 0.949 . S
C1082 C1086 1.368 . S
C1083 C1064 1.429 . S
C1083 C1077 1.429 . S
C1083 C1084 1.523 . S
C1084 C1065 1.368 . S
C1084 C1078 1.368 . S
C1084 C1083 1.523 . S
C1085 C1069 1.429 . S
C1085 C1081 1.429 . S
C1085 C1086 1.523 . S
C1086 C1070 1.368 . S
C1086 C1082 1.368 . S
C1086 C1085 1.523 . S
H1087 C1062 0.950 . S
H1088 C1064 0.950 . S
H1089 C1065 0.949 . S
H1090 C1067 0.950 1_556 S
H1091 C1069 0.950 . S
C1092 C1093 1.349 . S
C1092 C1094 1.327 . S
C1092 H1117 0.950 . S
C1093 C1092 1.349 . S
C1093 C1109 1.349 . S
C1094 C1092 1.327 . S
C1094 C1113 1.429 . S
C1094 H1118 0.950 . S
C1095 C1112 1.574 . S
C1095 C1114 1.368 . S
C1095 H1119 0.949 . S
H1096 C1100 0.949 . S
C1097 C1098 1.349 . S
C1097 C1099 1.327 . S
C1097 H1120 0.950 . S
C1098 C1097 1.349 . S
C1098 C1110 1.349 . S
C1099 C1097 1.327 . S
C1099 C1115 1.429 . S
C1099 H1121 0.950 . S
C1100 H1096 0.949 . S
C1100 C1108 1.574 . S
C1100 C1116 1.368 . S
H1101 C1109 0.950 . S
H1102 C1107 0.950 . S
H1103 C1108 0.949 . S
H1104 C1110 0.936 1_655 S
H1105 C1111 0.950 . S
H1106 C1112 0.949 . S
C1107 H1102 0.950 . S
C1107 C1109 1.327 . S
C1107 C1113 1.429 . S
C1108 C1100 1.574 . S
C1108 H1103 0.949 . S
C1108 C1114 1.368 . S
C1109 C1093 1.349 . S
C1109 H1101 0.950 . S
C1109 C1107 1.327 . S
C1110 C1098 1.349 . S
C1110 H1104 0.936 1_455 S
C1110 C1111 1.327 . S
C1111 H1105 0.950 . S
C1111 C1110 1.327 . S
C1111 C1115 1.429 . S
C1112 C1095 1.574 . S
C1112 H1106 0.949 . S
C1112 C1116 1.368 . S
C1113 C1094 1.429 . S
C1113 C1107 1.429 . S
C1113 C1114 1.523 . S
C1114 C1095 1.368 . S
C1114 C1108 1.368 . S
C1114 C1113 1.523 . S
C1115 C1099 1.429 . S
C1115 C1111 1.429 . S
C1115 C1116 1.523 . S
C1116 C1100 1.368 . S
C1116 C1112 1.368 . S
C1116 C1115 1.523 . S
H1117 C1092 0.950 . S
H1118 C1094 0.950 . S
H1119 C1095 0.949 . S
H1120 C1097 0.950 . S
H1121 C1099 0.950 . S
C1122 C1123 1.349 . S
C1122 C1124 1.327 . S
C1122 H1147 0.950 . S
C1123 C1122 1.349 . S
C1123 C1139 1.349 . S
C1124 C1122 1.327 . S
C1124 C1143 1.429 . S
C1124 H1148 0.950 . S
C1125 C1142 1.574 . S
C1125 C1144 1.368 . S
C1125 H1149 0.949 . S
H1126 C1130 0.949 . S
C1127 C1128 1.349 . S
C1127 C1129 1.327 . S
C1127 H1150 0.950 . S
C1128 C1127 1.349 . S
C1128 C1140 1.349 . S
C1129 C1127 1.327 . S
C1129 C1145 1.429 . S
C1129 H1151 0.950 . S
C1130 H1126 0.949 . S
C1130 C1138 1.574 . S
C1130 C1146 1.368 . S
H1131 C1139 0.950 . S
H1132 C1137 0.950 . S
H1133 C1138 0.949 . S
H1134 C1140 0.950 . S
H1135 C1141 0.950 . S
H1136 C1142 0.949 . S
C1137 H1132 0.950 . S
C1137 C1139 1.327 . S
C1137 C1143 1.429 . S
C1138 C1130 1.574 . S
C1138 H1133 0.949 . S
C1138 C1144 1.368 . S
C1139 C1123 1.349 . S
C1139 H1131 0.950 . S
C1139 C1137 1.327 . S
C1140 C1128 1.349 . S
C1140 H1134 0.950 . S
C1140 C1141 1.327 . S
C1141 H1135 0.950 . S
C1141 C1140 1.327 . S
C1141 C1145 1.429 . S
C1142 C1125 1.574 . S
C1142 H1136 0.949 . S
C1142 C1146 1.368 . S
C1143 C1124 1.429 . S
C1143 C1137 1.429 . S
C1143 C1144 1.523 . S
C1144 C1125 1.368 . S
C1144 C1138 1.368 . S
C1144 C1143 1.523 . S
C1145 C1129 1.429 . S
C1145 C1141 1.429 . S
C1145 C1146 1.523 . S
C1146 C1130 1.368 . S
C1146 C1142 1.368 . S
C1146 C1145 1.523 . S
H1147 C1122 0.950 . S
H1148 C1124 0.950 . S
H1149 C1125 0.949 . S
H1150 C1127 0.950 . S
H1151 C1129 0.950 . S
C433 C1 2.191 . S
C438 C328 2.205 . S
C463 C40 1.094 . S
C468 N348 1.081 . S
C498 C382 1.983 . S
C493 C99 1.977 . S
C523 C118 1.318 . S
C528 N416 1.268 . S
C558 C369 2.393 . S
C553 C16 2.378 . S
C588 N326 1.170 . S
C583 C60 1.203 . S
C618 C403 1.982 . S
C613 C79 1.972 . S
C648 N378 0.989 . S
C643 C138 0.989 . S
C673 C21 1.851 . S
C678 C418 1.862 . S
C708 C352 1.721 . S
C703 C94 1.706 . S
C733 C133 1.454 . S
C738 C313 1.467 . S
C763 C55 1.460 . S
C768 C399 1.471 . S
C798 C339 2.209 . S
C793 C157 2.190 . S
C823 C196 1.095 . S
C828 N356 1.080 . S
C853 C255 1.965 . S
C858 C373 1.980 . S
C883 C289 1.319 . S
C888 N408 1.265 . S
C913 C172 2.380 . S
C918 C358 2.391 . S
C948 N318 1.172 . S
C943 C216 1.212 . S
C978 C412 1.983 . S
C973 C235 1.969 . S
C1008 N386 0.988 . S
C1003 C294 0.989 . S
C1033 C177 1.842 . S
C1038 C429 1.862 . S
C1068 C343 1.722 . S
C1063 C250 1.711 . S
C1098 C322 1.471 . S
C1093 C274 1.454 . S
C1123 C211 1.451 . S
C1128 C388 1.465 . S
