# Generated by pormake.
# Topology llj, (12,3)-cn, num edge types: 1
# Building blocks:
#     Node 0, Type 0, BuildingBlock: QEWDON_clean_sbu_0, # of connection points: 12
#     Node 1, Type 0, BuildingBlock: QEWDON_clean_sbu_0, # of connection points: 12
#     Node 2, Type 1, BuildingBlock: VETTIZ_charged_linker_0, # of connection points: 3
#     Node 3, Type 1, BuildingBlock: VETTIZ_charged_linker_0, # of connection points: 3
#     Node 4, Type 1, BuildingBlock: VETTIZ_charged_linker_0, # of connection points: 3
#     Node 5, Type 1, BuildingBlock: VETTIZ_charged_linker_0, # of connection points: 3
#     Node 6, Type 1, BuildingBlock: VETTIZ_charged_linker_0, # of connection points: 3
#     Node 7, Type 1, BuildingBlock: VETTIZ_charged_linker_0, # of connection points: 3
#     Node 8, Type 1, BuildingBlock: VETTIZ_charged_linker_0, # of connection points: 3
#     Node 9, Type 1, BuildingBlock: VETTIZ_charged_linker_0, # of connection points: 3
#     Edge 10, Type (0, 1), BuildingBlock: TEMPAE_clean_linker_10, # of connection points: 2
#     Edge 11, Type (0, 1), BuildingBlock: TEMPAE_clean_linker_10, # of connection points: 2
#     Edge 12, Type (0, 1), BuildingBlock: TEMPAE_clean_linker_10, # of connection points: 2
#     Edge 13, Type (0, 1), BuildingBlock: TEMPAE_clean_linker_10, # of connection points: 2
#     Edge 14, Type (0, 1), BuildingBlock: TEMPAE_clean_linker_10, # of connection points: 2
#     Edge 15, Type (0, 1), BuildingBlock: TEMPAE_clean_linker_10, # of connection points: 2
#     Edge 16, Type (0, 1), BuildingBlock: TEMPAE_clean_linker_10, # of connection points: 2
#     Edge 17, Type (0, 1), BuildingBlock: TEMPAE_clean_linker_10, # of connection points: 2
#     Edge 18, Type (0, 1), BuildingBlock: TEMPAE_clean_linker_10, # of connection points: 2
#     Edge 19, Type (0, 1), BuildingBlock: TEMPAE_clean_linker_10, # of connection points: 2
#     Edge 20, Type (0, 1), BuildingBlock: TEMPAE_clean_linker_10, # of connection points: 2
#     Edge 21, Type (0, 1), BuildingBlock: TEMPAE_clean_linker_10, # of connection points: 2
#     Edge 22, Type (0, 1), BuildingBlock: TEMPAE_clean_linker_10, # of connection points: 2
#     Edge 23, Type (0, 1), BuildingBlock: TEMPAE_clean_linker_10, # of connection points: 2
#     Edge 24, Type (0, 1), BuildingBlock: TEMPAE_clean_linker_10, # of connection points: 2
#     Edge 25, Type (0, 1), BuildingBlock: TEMPAE_clean_linker_10, # of connection points: 2
#     Edge 26, Type (0, 1), BuildingBlock: TEMPAE_clean_linker_10, # of connection points: 2
#     Edge 27, Type (0, 1), BuildingBlock: TEMPAE_clean_linker_10, # of connection points: 2
#     Edge 28, Type (0, 1), BuildingBlock: TEMPAE_clean_linker_10, # of connection points: 2
#     Edge 29, Type (0, 1), BuildingBlock: TEMPAE_clean_linker_10, # of connection points: 2
#     Edge 30, Type (0, 1), BuildingBlock: TEMPAE_clean_linker_10, # of connection points: 2
#     Edge 31, Type (0, 1), BuildingBlock: TEMPAE_clean_linker_10, # of connection points: 2
#     Edge 32, Type (0, 1), BuildingBlock: TEMPAE_clean_linker_10, # of connection points: 2
#     Edge 33, Type (0, 1), BuildingBlock: TEMPAE_clean_linker_10, # of connection points: 2
# Relax obj value: 0.012
# Max RMSD: 0.057
# Mean RMSD: 0.053
data_MOF--net-llj--node1-QEWDON_clean_sbu_0--node2-VETTIZ_charged_linker_0--edge1-TEMPAE_clean_linker_10
_symmetry_space_group_name_H-M    P1
_symmetry_Int_Tables_number       1
_symmetry_cell_setting            triclinic
loop_
_symmetry_equiv_pos_as_xyz
'x, y, z'
_cell_length_a     45.316073
_cell_length_b     45.327262
_cell_length_c     31.761729
_cell_angle_alpha  89.966432
_cell_angle_beta   90.124322
_cell_angle_gamma 90.048191
loop_
_atom_site_label
_atom_site_type_symbol
_atom_site_fract_x
_atom_site_fract_y
_atom_site_fract_z
_atom_type_partial_charge
Zn0 Zn 0.94819 0.03163 0.96773 0.0
Zn1 Zn 0.94865 0.0472 0.06591 0.0
O2 O 0.9738 0.03085 0.02031 0.0
H3 H 0.98963 0.01697 0.02502 0.0
C4 C 0.90267 0.97334 0.9168 0.0
O5 O 0.88067 0.97538 0.94351 0.0
Zn6 Zn 0.03139 0.95319 0.05559 0.0
Zn7 Zn 0.02758 0.93468 0.95963 0.0
O8 O 0.0038 0.9522 0.00683 0.0
H9 H 0.98663 0.96455 0.00285 0.0
Zn10 Zn 0.92468 0.94524 0.9895 0.0
O11 O 0.91113 0.97775 0.02865 0.0
Zn12 Zn 0.92247 0.9538 0.07828 0.0
H13 H 0.89346 0.98952 0.02567 0.0
Zn14 Zn 0.05573 0.06435 0.93982 0.0
O15 O 0.04296 0.03695 0.98634 0.0
H16 H 0.03573 0.01707 0.98251 0.0
Zn17 Zn 0.05078 0.05783 0.0401 0.0
C18 C 0.09634 0.03114 0.88932 0.0
O19 O 0.11293 0.03611 0.92255 0.0
O20 O 0.91143 0.05833 0.97389 0.0
O21 O 0.91581 0.07204 0.04088 0.0
O22 O 0.06424 0.91196 0.97936 0.0
O23 O 0.06676 0.92557 0.04663 0.0
O24 O 0.90737 0.90475 0.00628 0.0
O25 O 0.90256 0.91392 0.0746 0.0
C26 C 0.00049 0.07476 0.10083 0.0
O27 O 0.0789 0.10078 0.96051 0.0
O28 O 0.0733 0.09603 0.02977 0.0
O29 O 0.00353 0.91936 0.90912 0.0
C30 C 0.90282 0.07359 0.00524 0.0
O31 O 0.97153 0.03733 0.91253 0.0
C32 C 0.9812 0.94137 0.10912 0.0
O33 O 0.92552 0.95905 0.92768 0.0
C34 C 0.07676 0.91097 0.0153 0.0
O35 O 0.07062 0.04215 0.88778 0.0
C36 C 0.91749 0.00371 0.12597 0.0
O37 O 0.97309 0.07112 0.10752 0.0
O38 O 0.01105 0.06407 0.06705 0.0
C39 C 0.89896 0.89693 0.04293 0.0
O40 O 0.00921 0.94078 0.10797 0.0
O41 O 0.96672 0.94998 0.07723 0.0
C42 C 0.06631 0.00475 0.08184 0.0
O43 O 0.91019 0.97677 0.12964 0.0
O44 O 0.93133 0.01111 0.09286 0.0
C45 C 0.08333 0.10997 -0.00206 0.0
O46 O 0.07431 0.03145 0.07853 0.0
O47 O 0.04553 0.99521 0.05877 0.0
C48 C 0.9781 0.90906 0.91723 0.0
O49 O 0.96931 0.90786 0.95659 0.0
C50 C 0.98635 0.0611 0.91134 0.0
O51 O 0.98551 0.07887 0.944 0.0
Zn52 Zn 0.43471 0.54973 0.4677 0.0
Zn53 Zn 0.44012 0.56055 0.56248 0.0
O54 O 0.46531 0.55991 0.51169 0.0
H55 H 0.48209 0.57255 0.50621 0.0
C56 C 0.40745 0.49276 0.4238 0.0
O57 O 0.3924 0.49566 0.45888 0.0
Zn58 Zn 0.54741 0.43636 0.58511 0.0
Zn59 Zn 0.55759 0.43144 0.48951 0.0
O60 O 0.52469 0.43107 0.53219 0.0
H61 H 0.50659 0.42001 0.52886 0.0
Zn62 Zn 0.43895 0.45249 0.47759 0.0
O63 O 0.4542 0.4767 0.52619 0.0
Zn64 Zn 0.4452 0.45401 0.57854 0.0
H65 H 0.46691 0.49368 0.52355 0.0
Zn66 Zn 0.55062 0.52114 0.46982 0.0
O67 O 0.53159 0.50934 0.52455 0.0
H68 H 0.51879 0.4926 0.5289 0.0
Zn69 Zn 0.5402 0.54183 0.56507 0.0
C70 C 0.58555 0.47403 0.43111 0.0
O71 O 0.6023 0.47799 0.46445 0.0
O72 O 0.39474 0.56955 0.48036 0.0
O73 O 0.40154 0.58064 0.54801 0.0
O74 O 0.59679 0.41488 0.51247 0.0
O75 O 0.5867 0.41428 0.58094 0.0
O76 O 0.41086 0.41922 0.49569 0.0
O77 O 0.41632 0.42022 0.56538 0.0
C78 C 0.49008 0.57615 0.60924 0.0
O79 O 0.57367 0.56012 0.47077 0.0
O80 O 0.56546 0.57363 0.53698 0.0
O81 O 0.54362 0.41642 0.43192 0.0
C82 C 0.38598 0.58156 0.51444 0.0
O83 O 0.45254 0.55358 0.40834 0.0
C84 C 0.495 0.42729 0.63206 0.0
O85 O 0.42917 0.47509 0.42299 0.0
C86 C 0.60387 0.40844 0.55022 0.0
O87 O 0.56221 0.48919 0.42694 0.0
C88 C 0.42602 0.5088 0.61521 0.0
O89 O 0.46252 0.58142 0.60846 0.0
O90 O 0.50044 0.55871 0.58155 0.0
C91 C 0.40465 0.40932 0.53217 0.0
O92 O 0.52247 0.42182 0.63346 0.0
O93 O 0.48466 0.43877 0.59858 0.0
C94 C 0.56479 0.49747 0.6206 0.0
O95 O 0.42787 0.48135 0.62266 0.0
O96 O 0.43435 0.51847 0.57971 0.0
C97 C 0.57702 0.5783 0.50095 0.0
O98 O 0.56214 0.52516 0.61545 0.0
O99 O 0.55337 0.48049 0.59302 0.0
C100 C 0.54585 0.3892 0.42324 0.0
O101 O 0.55829 0.3714 0.45069 0.0
C102 C 0.47843 0.54308 0.40538 0.0
O103 O 0.48981 0.52926 0.43797 0.0
C104 C 0.35871 0.37459 0.90521 0.0
C105 C 0.38466 0.39114 0.90025 0.0
C106 C 0.40199 0.39793 0.93576 0.0
C107 C 0.36967 0.36845 0.97945 0.0
C108 C 0.35149 0.36371 0.94514 0.0
C109 C 0.32511 0.34507 0.95603 0.0
H110 H 0.2571 0.25357 0.09293 0.0
C111 C 0.35788 0.35126 0.01509 0.0
C112 C 0.33153 0.33791 0.00189 0.0
H113 H 0.22642 0.28299 0.97097 0.0
H114 H 0.26878 0.31482 0.96436 0.0
H115 H 0.32639 0.24816 0.06855 0.0
H116 H 0.27642 0.31865 0.12507 0.0
H117 H 0.31059 0.3167 0.15114 0.0
H118 H 0.28569 0.28566 0.15345 0.0
H119 H 0.31168 0.24582 0.1209 0.0
H120 H 0.34702 0.26258 0.11077 0.0
C121 C 0.32566 0.31711 0.92802 0.0
C122 C 0.29695 0.36422 0.95086 0.0
C123 C 0.419 0.3418 0.14808 0.0
C124 C 0.41533 0.32595 0.18569 0.0
C125 C 0.39013 0.30797 0.19054 0.0
C126 C 0.36889 0.30599 0.15844 0.0
C127 C 0.37286 0.32217 0.12109 0.0
C128 C 0.39767 0.33961 0.11646 0.0
C129 C 0.39846 0.35526 0.07485 0.0
C130 C 0.3698 0.34469 0.05533 0.0
C131 C 0.35492 0.32521 0.08239 0.0
C132 C 0.42584 0.34394 0.05056 0.0
C133 C 0.39823 0.38901 0.08301 0.0
C134 C 0.25961 0.26693 0.06487 0.0
C135 C 0.23854 0.26578 0.03234 0.0
C136 C 0.24226 0.28374 0.99655 0.0
C137 C 0.26695 0.30207 0.99266 0.0
C138 C 0.28818 0.30252 0.0249 0.0
C139 C 0.28406 0.28565 0.06066 0.0
C140 C 0.30842 0.29009 0.09238 0.0
C141 C 0.32782 0.31224 0.06951 0.0
C142 C 0.31603 0.31898 0.02974 0.0
C143 C 0.32424 0.26017 0.09894 0.0
C144 C 0.29477 0.30327 0.13288 0.0
H145 H 0.40915 0.39181 0.00104 0.0
H146 H 0.34487 0.36949 0.87832 0.0
H147 H 0.30203 0.38822 0.95244 0.0
H148 H 0.28087 0.36048 0.97655 0.0
H149 H 0.28598 0.36006 0.92012 0.0
H150 H 0.34826 0.30756 0.92712 0.0
H151 H 0.31905 0.32244 0.89518 0.0
H152 H 0.31119 0.29934 0.93962 0.0
H153 H 0.43778 0.35627 0.14365 0.0
H154 H 0.38687 0.29543 0.2192 0.0
H155 H 0.35018 0.292 0.16398 0.0
H156 H 0.42845 0.3197 0.05473 0.0
H157 H 0.44632 0.35467 0.06227 0.0
H158 H 0.42437 0.34727 0.01626 0.0
H159 H 0.38674 0.39442 0.11295 0.0
H160 H 0.3859 0.40135 0.05859 0.0
H161 H 0.42101 0.39794 0.08524 0.0
H162 H 0.42209 0.41067 0.93243 0.0
C163 C 0.39461 0.38667 0.9754 0.0
C164 C 0.66342 0.38395 0.88444 0.0
C165 C 0.64685 0.41014 0.88733 0.0
C166 C 0.63828 0.42043 0.92731 0.0
C167 C 0.66114 0.37804 0.96027 0.0
C168 C 0.67023 0.36828 0.92122 0.0
C169 C 0.68701 0.33966 0.92392 0.0
H170 H 0.73989 0.2279 0.04417 0.0
C171 C 0.67043 0.35606 0.99185 0.0
C172 C 0.68551 0.33343 0.97089 0.0
H173 H 0.75324 0.24241 0.91112 0.0
H174 H 0.72288 0.28624 0.91399 0.0
H175 H 0.7502 0.29497 0.07039 0.0
H176 H 0.67036 0.2459 0.04668 0.0
H177 H 0.66372 0.26906 0.08997 0.0
H178 H 0.69171 0.24084 0.09379 0.0
H179 H 0.73732 0.26628 0.10477 0.0
H180 H 0.72469 0.30372 0.11007 0.0
C181 C 0.71905 0.34537 0.90895 0.0
C182 C 0.67015 0.31613 0.89798 0.0
C183 C 0.64615 0.37327 0.14527 0.0
C184 C 0.65059 0.35662 0.18194 0.0
C185 C 0.66319 0.32833 0.17898 0.0
C186 C 0.67226 0.31722 0.13982 0.0
C187 C 0.66847 0.33458 0.10343 0.0
C188 C 0.65503 0.36184 0.10657 0.0
C189 C 0.65152 0.3768 0.06473 0.0
C190 C 0.66593 0.35446 0.03592 0.0
C191 C 0.67604 0.32991 0.05867 0.0
C192 C 0.66895 0.40625 0.06605 0.0
C193 C 0.61801 0.38018 0.05565 0.0
C194 C 0.73581 0.24028 0.01557 0.0
C195 C 0.74871 0.23171 0.97731 0.0
C196 C 0.74351 0.24872 0.94091 0.0
C197 C 0.72596 0.27414 0.9427 0.0
C198 C 0.71374 0.28282 0.9814 0.0
C199 C 0.71872 0.26595 0.01699 0.0
C200 C 0.70526 0.27931 0.05578 0.0
C201 C 0.69153 0.30707 0.03766 0.0
C202 C 0.69639 0.30891 0.99405 0.0
C203 C 0.73048 0.28636 0.08724 0.0
C204 C 0.68163 0.25772 0.07288 0.0
H205 H 0.63793 0.41349 0.9931 0.0
H206 H 0.67018 0.37536 0.85414 0.0
H207 H 0.64596 0.31796 0.90338 0.0
H208 H 0.67595 0.29333 0.90685 0.0
H209 H 0.67415 0.31904 0.86374 0.0
H210 H 0.72602 0.36845 0.91561 0.0
H211 H 0.72121 0.34176 0.8745 0.0
H212 H 0.73542 0.33158 0.92568 0.0
H213 H 0.63595 0.39487 0.14673 0.0
H214 H 0.66663 0.31518 0.20705 0.0
H215 H 0.68216 0.29572 0.13945 0.0
H216 H 0.6899 0.40361 0.084 0.0
H217 H 0.65592 0.42387 0.08162 0.0
H218 H 0.67579 0.41402 0.03459 0.0
H219 H 0.60499 0.36248 0.07129 0.0
H220 H 0.61255 0.37792 0.02186 0.0
H221 H 0.60957 0.40166 0.0673 0.0
H222 H 0.62594 0.44077 0.93041 0.0
C223 C 0.64531 0.40456 0.96371 0.0
C224 C 0.6237 0.61745 0.15302 0.0
C225 C 0.59829 0.59954 0.15191 0.0
C226 C 0.58525 0.5929 0.11274 0.0
C227 C 0.62193 0.62247 0.07701 0.0
C228 C 0.6351 0.62867 0.11524 0.0
C229 C 0.66148 0.64866 0.11045 0.0
H230 H 0.74467 0.73594 0.98414 0.0
C231 C 0.63828 0.63832 0.04395 0.0
C232 C 0.66157 0.65368 0.06309 0.0
H233 H 0.75578 0.71999 0.11731 0.0
H234 H 0.7153 0.6851 0.11612 0.0
H235 H 0.73627 0.66799 0.96024 0.0
H236 H 0.67273 0.73692 0.98258 0.0
H237 H 0.66256 0.71765 0.9366 0.0
H238 H 0.69731 0.73683 0.9383 0.0
H239 H 0.72877 0.69598 0.92172 0.0
H240 H 0.7071 0.66259 0.92463 0.0
C241 C 0.68927 0.63173 0.12546 0.0
C242 C 0.65525 0.67746 0.13506 0.0
C243 C 0.60269 0.63086 0.8934 0.0
C244 C 0.61283 0.64245 0.85507 0.0
C245 C 0.63751 0.66145 0.85529 0.0
C246 C 0.65204 0.66837 0.89316 0.0
C247 C 0.64177 0.65616 0.93115 0.0
C248 C 0.61748 0.63774 0.93063 0.0
C249 C 0.60966 0.62634 0.97347 0.0
C250 C 0.6335 0.64061 -1e-05 0.0
C251 C 0.6521 0.65826 0.97528 0.0
C252 C 0.61248 0.5922 0.97284 0.0
C253 C 0.57848 0.63805 0.9847 0.0
C254 C 0.73822 0.72495 0.013 0.0
C255 C 0.75304 0.73082 0.05097 0.0
C256 C 0.74458 0.71571 0.08777 0.0
C257 C 0.72102 0.69564 0.08701 0.0
C258 C 0.70591 0.69051 0.04899 0.0
C259 C 0.71498 0.70463 0.01265 0.0
C260 C 0.6973 0.69541 0.97474 0.0
C261 C 0.67559 0.67405 0.99451 0.0
C262 C 0.68052 0.6715 0.0381 0.0
C263 C 0.71829 0.67984 0.94336 0.0
C264 C 0.68169 0.72305 0.9567 0.0
H265 H 0.58571 0.59851 0.0468 0.0
H266 H 0.63437 0.62277 0.1826 0.0
H267 H 0.63213 0.68486 0.12975 0.0
H268 H 0.66919 0.6961 0.12503 0.0
H269 H 0.65828 0.67406 0.16944 0.0
H270 H 0.68707 0.60765 0.11938 0.0
H271 H 0.69293 0.63469 0.15979 0.0
H272 H 0.70941 0.63834 0.10829 0.0
H273 H 0.58343 0.61671 0.89459 0.0
H274 H 0.64584 0.67059 0.82613 0.0
H275 H 0.67075 0.68285 0.89138 0.0
H276 H 0.6301 0.58499 0.95077 0.0
H277 H 0.59156 0.58165 0.96253 0.0
H278 H 0.61914 0.58291 0.00359 0.0
H279 H 0.57475 0.66037 0.97106 0.0
H280 H 0.57518 0.64103 0.01888 0.0
H281 H 0.56097 0.62327 0.97222 0.0
H282 H 0.56541 0.57962 0.11098 0.0
C283 C 0.59694 0.60417 0.07541 0.0
C284 C 0.33573 0.62542 0.15559 0.0
C285 C 0.35065 0.59828 0.15664 0.0
C286 C 0.35867 0.58462 0.11857 0.0
C287 C 0.33727 0.62511 0.07919 0.0
C288 C 0.32907 0.63827 0.1166 0.0
C289 C 0.31202 0.66633 0.10961 0.0
H290 H 0.24947 0.76351 0.97453 0.0
C291 C 0.32718 0.64419 0.04433 0.0
C292 C 0.31228 0.66831 0.06185 0.0
H293 H 0.2428 0.76056 0.11019 0.0
H294 H 0.27603 0.71908 0.1124 0.0
H295 H 0.32078 0.74964 0.97059 0.0
H296 H 0.24445 0.69305 0.95979 0.0
H297 H 0.26937 0.6852 0.91871 0.0
H298 H 0.25309 0.72124 0.92194 0.0
H299 H 0.29841 0.74903 0.92389 0.0
H300 H 0.32814 0.72306 0.93177 0.0
C301 C 0.32946 0.692 0.13006 0.0
C302 C 0.2804 0.66194 0.12732 0.0
C303 C 0.35 0.6147 0.89412 0.0
C304 C 0.34566 0.62846 0.85505 0.0
C305 C 0.33201 0.65637 0.85359 0.0
C306 C 0.32218 0.67006 0.89072 0.0
C307 C 0.32637 0.65579 0.92966 0.0
C308 C 0.34056 0.6288 0.9308 0.0
C309 C 0.34486 0.61755 0.97481 0.0
C310 C 0.33049 0.64195 7e-05 0.0
C311 C 0.31928 0.66414 0.9736 0.0
C312 C 0.37851 0.61545 0.98342 0.0
C313 C 0.32793 0.58795 0.97904 0.0
C314 C 0.25557 0.75409 0.00467 0.0
C315 C 0.24346 0.76515 0.04226 0.0
C316 C 0.25163 0.75219 0.08086 0.0
C317 C 0.27088 0.72808 0.08205 0.0
C318 C 0.28192 0.71651 0.04421 0.0
C319 C 0.27453 0.72964 0.00634 0.0
C320 C 0.28789 0.71371 0.96932 0.0
C321 C 0.30362 0.68835 0.99124 0.0
C322 C 0.30016 0.69032 0.03512 0.0
C323 C 0.30985 0.73486 0.94734 0.0
C324 C 0.26253 0.70276 0.94059 0.0
H325 H 0.35898 0.58646 0.05202 0.0
H326 H 0.3289 0.63611 0.18447 0.0
H327 H 0.27402 0.63823 0.12791 0.0
H328 H 0.2633 0.67254 0.10756 0.0
H329 H 0.27862 0.67041 0.16002 0.0
H330 H 0.35348 0.68976 0.12357 0.0
H331 H 0.3265 0.69212 0.16477 0.0
H332 H 0.32322 0.71383 0.11748 0.0
H333 H 0.36101 0.59353 0.89614 0.0
H334 H 0.32864 0.66735 0.82367 0.0
H335 H 0.31167 0.69116 0.88773 0.0
H336 H 0.39074 0.63307 0.96636 0.0
H337 H 0.38748 0.59389 0.97288 0.0
H338 H 0.38429 0.61886 0.01687 0.0
H339 H 0.30721 0.58831 0.96019 0.0
H340 H 0.32069 0.58335 0.01157 0.0
H341 H 0.34148 0.56918 0.96763 0.0
H342 H 0.37027 0.56372 0.11881 0.0
C343 C 0.35218 0.59793 0.07987 0.0
C344 C 0.84977 0.85864 0.37031 0.0
C345 C 0.87499 0.87672 0.37071 0.0
C346 C 0.88697 0.88584 0.40949 0.0
C347 C 0.84955 0.85813 0.44676 0.0
C348 C 0.83762 0.84935 0.40867 0.0
C349 C 0.81203 0.82849 0.41432 0.0
H350 H 0.73041 0.74338 0.54554 0.0
C351 C 0.83284 0.84353 0.4807 0.0
C352 C 0.81094 0.82591 0.46202 0.0
H353 H 0.72131 0.75205 0.41071 0.0
H354 H 0.75998 0.78905 0.40985 0.0
H355 H 0.80042 0.74494 0.54982 0.0
H356 H 0.73512 0.81324 0.56242 0.0
H357 H 0.76261 0.82039 0.60006 0.0
H358 H 0.74181 0.78649 0.603 0.0
H359 H 0.7773 0.74822 0.59539 0.0
H360 H 0.81179 0.76789 0.59135 0.0
C361 C 0.82007 0.79882 0.39312 0.0
C362 C 0.78395 0.84336 0.39629 0.0
C363 C 0.86163 0.86184 0.63294 0.0
C364 C 0.85222 0.84945 0.67112 0.0
C365 C 0.8298 0.82795 0.67086 0.0
C366 C 0.81672 0.81903 0.63291 0.0
C367 C 0.82647 0.83149 0.59481 0.0
C368 C 0.8487 0.85237 0.59529 0.0
C369 C 0.85754 0.86188 0.55178 0.0
C370 C 0.83619 0.84406 0.52511 0.0
C371 C 0.81805 0.82637 0.55043 0.0
C372 C 0.89012 0.85256 0.54453 0.0
C373 C 0.85183 0.89545 0.5478 0.0
C374 C 0.7369 0.7532 0.51585 0.0
C375 C 0.72323 0.74467 0.47808 0.0
C376 C 0.73169 0.75834 0.44014 0.0
C377 C 0.75418 0.77965 0.43972 0.0
C378 C 0.76819 0.78745 0.4777 0.0
C379 C 0.75901 0.7747 0.51499 0.0
C380 C 0.7753 0.78658 0.55256 0.0
C381 C 0.79623 0.80816 0.53167 0.0
C382 C 0.7923 0.80832 0.48777 0.0
C383 C 0.792 0.7607 0.57381 0.0
C384 C 0.75271 0.80237 0.58138 0.0
H385 H 0.88448 0.88449 0.47591 0.0
H386 H 0.84032 0.85115 0.34083 0.0
H387 H 0.78472 0.8677 0.40076 0.0
H388 H 0.76361 0.83625 0.41253 0.0
H389 H 0.78164 0.83905 0.36202 0.0
H390 H 0.84341 0.79285 0.39996 0.0
H391 H 0.81751 0.80024 0.35838 0.0
H392 H 0.80686 0.78009 0.40469 0.0
H393 H 0.87936 0.8779 0.63231 0.0
H394 H 0.82243 0.81808 0.70008 0.0
H395 H 0.79975 0.80256 0.63469 0.0
H396 H 0.89652 0.83369 0.56503 0.0
H397 H 0.90556 0.87098 0.55145 0.0
H398 H 0.89411 0.84451 0.51216 0.0
H399 H 0.83044 0.90144 0.56264 0.0
H400 H 0.85007 0.90298 0.51484 0.0
H401 H 0.86947 0.9083 0.56379 0.0
H402 H 0.90626 0.89997 0.41035 0.0
C403 C 0.87429 0.87681 0.44747 0.0
C404 C 0.15757 0.88232 0.34837 0.0
C405 C 0.14111 0.90848 0.34412 0.0
C406 C 0.13106 0.92286 0.3808 0.0
C407 C 0.15467 0.88605 0.42447 0.0
C408 C 0.16382 0.87142 0.38868 0.0
C409 C 0.18017 0.84343 0.39887 0.0
H410 H 0.23394 0.74931 0.54586 0.0
C411 C 0.16513 0.86928 0.46137 0.0
C412 C 0.17978 0.84408 0.44667 0.0
H413 H 0.23893 0.74171 0.41055 0.0
H414 H 0.21222 0.78753 0.40252 0.0
H415 H 0.25195 0.81432 0.54836 0.0
H416 H 0.16518 0.77579 0.55157 0.0
H417 H 0.16783 0.8028 0.5914 0.0
H418 H 0.1922 0.77151 0.59259 0.0
H419 H 0.23646 0.80047 0.59637 0.0
H420 H 0.23039 0.83799 0.57922 0.0
C421 C 0.2119 0.84615 0.38122 0.0
C422 C 0.16219 0.81716 0.38093 0.0
C423 C 0.1496 0.91076 0.60782 0.0
C424 C 0.15887 0.9017 0.64809 0.0
C425 C 0.17451 0.87493 0.65213 0.0
C426 C 0.18088 0.85764 0.6167 0.0
C427 C 0.17179 0.8673 0.57668 0.0
C428 C 0.15656 0.89353 0.57278 0.0
C429 C 0.14962 0.901 0.52776 0.0
C430 C 0.16339 0.87498 0.50519 0.0
C431 C 0.17606 0.85518 0.53397 0.0
C432 C 0.16536 0.93043 0.51701 0.0
C433 C 0.11559 0.90168 0.52241 0.0
C434 C 0.22869 0.75734 0.5146 0.0
C435 C 0.238 0.74191 0.47874 0.0
C436 C 0.23171 0.75332 0.43849 0.0
C437 C 0.21625 0.77988 0.43397 0.0
C438 C 0.20734 0.79533 0.47013 0.0
C439 C 0.21369 0.78408 0.50959 0.0
C440 C 0.20412 0.80439 0.54438 0.0
C441 C 0.19008 0.82919 0.5193 0.0
C442 C 0.19199 0.82373 0.47587 0.0
C443 C 0.23199 0.8148 0.5687 0.0
C444 C 0.18122 0.78789 0.57178 0.0
H445 H 0.12957 0.92392 0.44731 0.0
H446 H 0.16567 0.87063 0.32102 0.0
H447 H 0.13806 0.82152 0.3829 0.0
H448 H 0.16545 0.79652 0.39882 0.0
H449 H 0.16761 0.8132 0.34732 0.0
H450 H 0.2203 0.8691 0.38468 0.0
H451 H 0.21255 0.84047 0.34722 0.0
H452 H 0.22802 0.83231 0.39828 0.0
H453 H 0.13708 0.93087 0.60344 0.0
H454 H 0.18228 0.86753 0.68261 0.0
H455 H 0.19286 0.83756 0.62183 0.0
H456 H 0.18763 0.93128 0.53179 0.0
H457 H 0.15259 0.94961 0.52882 0.0
H458 H 0.16938 0.9334 0.48304 0.0
H459 H 0.10461 0.88627 0.54474 0.0
H460 H 0.10834 0.89417 0.49092 0.0
H461 H 0.10666 0.92409 0.52839 0.0
H462 H 0.11758 0.94252 0.37866 0.0
C463 C 0.13782 0.91187 0.4208 0.0
C464 C 0.11312 0.14514 0.64704 0.0
C465 C 0.08822 0.12662 0.64585 0.0
C466 C 0.0764 0.1182 0.60663 0.0
C467 C 0.11404 0.14653 0.57067 0.0
C468 C 0.12552 0.15495 0.60917 0.0
C469 C 0.15133 0.17564 0.60458 0.0
H470 H 0.24637 0.24913 0.47761 0.0
C471 C 0.13189 0.16062 0.53742 0.0
C472 C 0.1537 0.1778 0.55696 0.0
H473 H 0.24079 0.25208 0.61326 0.0
H474 H 0.19988 0.21782 0.61187 0.0
H475 H 0.2328 0.17736 0.46617 0.0
H476 H 0.17764 0.25484 0.46305 0.0
H477 H 0.16488 0.23069 0.42384 0.0
H478 H 0.20174 0.24559 0.42028 0.0
H479 H 0.23524 0.20479 0.42549 0.0
H480 H 0.20894 0.17505 0.42241 0.0
C481 C 0.17875 0.16063 0.6243 0.0
C482 C 0.143 0.20562 0.62488 0.0
C483 C 0.10701 0.14039 0.38469 0.0
C484 C 0.11888 0.15016 0.34634 0.0
C485 C 0.14325 0.16952 0.34692 0.0
C486 C 0.15571 0.1788 0.38527 0.0
C487 C 0.14348 0.1688 0.42341 0.0
C488 C 0.1195 0.14996 0.42251 0.0
C489 C 0.10882 0.14195 0.46571 0.0
C490 C 0.13034 0.15906 0.4929 0.0
C491 C 0.15069 0.17469 0.46813 0.0
C492 C 0.11239 0.10815 0.47127 0.0
C493 C 0.07673 0.1534 0.47051 0.0
C494 C 0.23648 0.24199 0.50693 0.0
C495 C 0.24683 0.2529 0.54565 0.0
C496 C 0.23309 0.24381 0.58317 0.0
C497 C 0.20938 0.22396 0.58225 0.0
C498 C 0.19903 0.21339 0.54331 0.0
C499 C 0.2124 0.22257 0.50646 0.0
C500 C 0.19725 0.21038 0.46795 0.0
C501 C 0.17288 0.19208 0.48782 0.0
C502 C 0.17423 0.19375 0.53198 0.0
C503 C 0.21962 0.19096 0.44385 0.0
C504 C 0.18482 0.23658 0.44205 0.0
H505 H 0.07919 0.1207 0.54029 0.0
H506 H 0.12237 0.1523 0.67681 0.0
H507 H 0.11876 0.20947 0.62361 0.0
H508 H 0.15263 0.22467 0.60802 0.0
H509 H 0.1498 0.20647 0.65848 0.0
H510 H 0.17959 0.13689 0.61548 0.0
H511 H 0.17811 0.16194 0.65922 0.0
H512 H 0.19978 0.1701 0.61324 0.0
H513 H 0.08793 0.12598 0.38533 0.0
H514 H 0.15281 0.17727 0.3177 0.0
H515 H 0.1743 0.19343 0.38375 0.0
H516 H 0.1328 0.1002 0.45552 0.0
H517 H 0.09344 0.09608 0.45722 0.0
H518 H 0.11492 0.10138 0.50447 0.0
H519 H 0.07307 0.17368 0.45143 0.0
H520 H 0.07145 0.16011 0.50308 0.0
H521 H 0.06046 0.13664 0.45988 0.0
H522 H 0.05734 0.10379 0.60505 0.0
C523 C 0.08921 0.12797 0.56908 0.0
C524 C 0.8817 0.13172 0.66593 0.0
C525 C 0.89837 0.10566 0.66286 0.0
C526 C 0.90971 0.09702 0.62364 0.0
C527 C 0.88504 0.13817 0.59024 0.0
C528 C 0.8751 0.14755 0.6291 0.0
C529 C 0.8553 0.17419 0.62545 0.0
H530 H 0.77234 0.26265 0.50033 0.0
C531 C 0.87153 0.15707 0.55772 0.0
C532 C 0.85411 0.17833 0.57791 0.0
H533 H 0.78164 0.26678 0.63555 0.0
H534 H 0.81852 0.22807 0.63341 0.0
H535 H 0.84227 0.25828 0.48244 0.0
H536 H 0.77438 0.1919 0.49112 0.0
H537 H 0.79645 0.18389 0.44711 0.0
H538 H 0.7762 0.21802 0.44868 0.0
H539 H 0.81554 0.25285 0.44138 0.0
H540 H 0.84936 0.23186 0.44333 0.0
C541 C 0.8706 0.20048 0.64771 0.0
C542 C 0.82476 0.16603 0.64391 0.0
C543 C 0.88573 0.12968 0.40476 0.0
C544 C 0.87372 0.14024 0.36689 0.0
C545 C 0.85446 0.16466 0.36801 0.0
C546 C 0.84708 0.17806 0.40644 0.0
C547 C 0.85891 0.16677 0.44416 0.0
C548 C 0.8781 0.14315 0.44267 0.0
C549 C 0.8879 0.13327 0.48551 0.0
C550 C 0.87175 0.15511 0.5132 0.0
C551 C 0.85469 0.1746 0.48899 0.0
C552 C 0.92183 0.13732 0.48838 0.0
C553 C 0.87695 0.10109 0.49219 0.0
C554 C 0.78231 0.25508 0.52944 0.0
C555 C 0.77392 0.26732 0.56821 0.0
C556 C 0.78779 0.25752 0.60539 0.0
C557 C 0.80904 0.23501 0.60406 0.0
C558 C 0.81653 0.2223 0.56514 0.0
C559 C 0.80377 0.23293 0.52858 0.0
C560 C 0.81547 0.21792 0.48987 0.0
C561 C 0.83698 0.19615 0.50922 0.0
C562 C 0.83713 0.19841 0.5534 0.0
C563 C 0.83136 0.2413 0.46245 0.0
C564 C 0.78939 0.20218 0.46763 0.0
H565 H 0.91212 0.10512 0.55832 0.0
H566 H 0.87263 0.13861 0.69587 0.0
H567 H 0.81769 0.14388 0.63265 0.0
H568 H 0.80707 0.18129 0.63432 0.0
H569 H 0.82555 0.1654 0.67885 0.0
H570 H 0.89505 0.19862 0.64585 0.0
H571 H 0.86456 0.20145 0.68156 0.0
H572 H 0.86543 0.22187 0.63267 0.0
H573 H 0.90003 0.11053 0.40521 0.0
H574 H 0.84502 0.17329 0.33917 0.0
H575 H 0.83213 0.1964 0.40536 0.0
H576 H 0.92894 0.15755 0.47129 0.0
H577 H 0.93358 0.11829 0.47416 0.0
H578 H 0.92975 0.14051 0.52099 0.0
H579 H 0.85693 0.0963 0.473 0.0
H580 H 0.86993 0.09665 0.52489 0.0
H581 H 0.8941 0.08483 0.4831 0.0
H582 H 0.92273 0.07707 0.6209 0.0
C583 C 0.90337 0.11328 0.58738 0.0
C584 C 0.1053 0.14839 0.04526 0.0
C585 C 0.10249 0.13598 0.00494 0.0
C586 C 0.12556 0.17118 0.05309 0.0
C587 C 0.14364 0.18153 0.01995 0.0
C588 C 0.14029 0.16972 0.97896 0.0
C589 C 0.11963 0.14724 0.97189 0.0
C590 C 0.12823 0.18353 0.09707 0.0
C591 C 0.15933 0.18006 0.94284 0.0
C592 C 0.18486 0.25429 0.02435 0.0
C593 C 0.2135 0.24487 0.03424 0.0
C594 C 0.16149 0.23406 0.02161 0.0
C595 C 0.16711 0.20369 0.02822 0.0
C596 C 0.19579 0.19423 0.03972 0.0
C597 C 0.21864 0.21501 0.04286 0.0
C598 C 0.13106 0.24502 0.01019 0.0
C599 C 0.2027 0.162 0.04665 0.0
H600 H 0.092 0.13997 0.07094 0.0
H601 H 0.11766 0.13778 0.94067 0.0
H602 H 0.14959 0.17667 0.11108 0.0
H603 H 0.12794 0.208 0.09633 0.0
H604 H 0.11019 0.17573 0.11788 0.0
H605 H 0.15332 0.16927 0.91262 0.0
H606 H 0.15732 0.20429 0.9389 0.0
H607 H 0.18284 0.17521 0.9498 0.0
H608 H 0.18086 0.27747 0.01811 0.0
H609 H 0.24085 0.2077 0.05017 0.0
H610 H 0.1145 0.23627 0.03266 0.0
H611 H 0.12491 0.23689 0.97842 0.0
H612 H 0.12978 0.2695 0.01012 0.0
H613 H 0.18733 0.15238 0.07008 0.0
H614 H 0.22569 0.15849 0.05778 0.0
H615 H 0.19956 0.14972 0.01676 0.0
C616 C 0.86079 0.09426 0.96306 0.0
C617 C 0.87798 0.09448 -0.00011 0.0
C618 C 0.83809 0.11492 0.95703 0.0
C619 C 0.83276 0.13649 0.98831 0.0
C620 C 0.84974 0.13654 0.02577 0.0
C621 C 0.87199 0.11543 0.03122 0.0
C622 C 0.82011 0.11393 0.91699 0.0
C623 C 0.84492 0.15938 0.0597 0.0
C624 C 0.79737 0.2095 0.95919 0.0
C625 C 0.76908 0.20624 0.97625 0.0
C626 C 0.8181 0.18661 0.96187 0.0
C627 C 0.81013 0.15973 0.98153 0.0
C628 C 0.78115 0.15589 -0.00281 0.0
C629 C 0.76102 0.17933 0.99472 0.0
C630 C 0.84892 0.19171 0.94534 0.0
C631 C 0.7717 0.12735 0.01766 0.0
H632 H 0.86515 0.07804 0.93878 0.0
H633 H 0.88516 0.11581 0.05975 0.0
H634 H 0.79622 0.11311 0.92452 0.0
H635 H 0.82396 0.13429 0.8984 0.0
H636 H 0.82571 0.0946 0.8971 0.0
H637 H 0.85968 0.15603 0.08727 0.0
H638 H 0.84894 0.18176 0.04673 0.0
H639 H 0.82171 0.1587 0.07067 0.0
H640 H 0.8037 0.23042 0.94532 0.0
H641 H 0.73904 0.17678 0.00763 0.0
H642 H 0.85513 0.17392 0.92311 0.0
H643 H 0.86491 0.19106 0.97184 0.0
H644 H 0.85111 0.21328 0.92902 0.0
H645 H 0.77695 0.1084 0.9969 0.0
H646 H 0.7477 0.12699 0.02477 0.0
H647 H 0.78406 0.12413 0.0475 0.0
C648 C 0.88049 0.84886 0.01457 0.0
C649 C 0.88253 0.86893 0.04806 0.0
C650 C 0.86189 0.82417 0.01698 0.0
C651 C 0.84465 0.81967 0.05355 0.0
C652 C 0.84777 0.83898 0.08831 0.0
C653 C 0.86682 0.86329 0.08523 0.0
C654 C 0.85961 0.80375 0.97956 0.0
C655 C 0.82963 0.83509 0.12775 0.0
C656 C 0.77104 0.78171 0.03656 0.0
C657 C 0.77659 0.75339 0.0523 0.0
C658 C 0.79292 0.80355 0.03741 0.0
C659 C 0.82122 0.7967 0.05368 0.0
C660 C 0.827 0.76806 0.0695 0.0
C661 C 0.80444 0.74677 0.06903 0.0
C662 C 0.78571 0.83398 0.02095 0.0
C663 C 0.85707 0.75983 0.08632 0.0
H664 H 0.89279 0.85287 0.98588 0.0
H665 H 0.86831 0.87863 0.11132 0.0
H666 H 0.86147 0.78042 0.98981 0.0
H667 H 0.8377 0.80641 0.96437 0.0
H668 H 0.87692 0.80829 0.95568 0.0
H669 H 0.83701 0.84995 0.15352 0.0
H670 H 0.80614 0.83992 0.12061 0.0
H671 H 0.83079 0.81197 0.13905 0.0
H672 H 0.74936 0.78685 0.02403 0.0
H673 H 0.80871 0.72476 0.08096 0.0
H674 H 0.80015 0.83935 0.99385 0.0
H675 H 0.78999 0.85071 0.04572 0.0
H676 H 0.76235 0.83593 0.01065 0.0
H677 H 0.87386 0.76267 0.06126 0.0
H678 H 0.85789 0.73667 0.09774 0.0
H679 H 0.86331 0.77471 0.11258 0.0
C680 C 0.12226 0.89521 0.05483 0.0
C681 C 0.10289 0.89164 0.02067 0.0
C682 C 0.14689 0.87664 0.0598 0.0
C683 C 0.15173 0.85352 0.0306 0.0
C684 C 0.13225 0.84989 0.99612 0.0
C685 C 0.10829 0.86914 0.99137 0.0
C686 C 0.16736 0.88149 0.09668 0.0
C687 C 0.1363 0.82523 0.96467 0.0
C688 C 0.22553 0.81469 0.01801 0.0
C689 C 0.22091 0.78883 0.04127 0.0
C690 C 0.20369 0.83664 0.01582 0.0
C691 C 0.1764 0.83224 0.03661 0.0
C692 C 0.17187 0.80636 0.06072 0.0
C693 C 0.19426 0.78507 0.06298 0.0
C694 C 0.2096 0.86432 0.99079 0.0
C695 C 0.14298 0.80066 0.0829 0.0
H696 H 0.11831 0.91262 0.07752 0.0
H697 H 0.09335 0.86608 0.96502 0.0
H698 H 0.16254 0.86495 0.12149 0.0
H699 H 0.19076 0.87872 0.08725 0.0
H700 H 0.16459 0.90379 0.11046 0.0
H701 H 0.11924 0.82551 0.93951 0.0
H702 H 0.15835 0.8269 0.94975 0.0
H703 H 0.13529 0.80361 0.98104 0.0
H704 H 0.24626 0.81774 0.0016 0.0
H705 H 0.19054 0.76495 0.08069 0.0
H706 H 0.20512 0.88408 0.01039 0.0
H707 H 0.19455 0.86528 0.96324 0.0
H708 H 0.23272 0.86543 0.97931 0.0
H709 H 0.13782 0.81915 0.10451 0.0
H710 H 0.1433 0.77982 0.10133 0.0
H711 H 0.12484 0.79939 0.05944 0.0
C712 C 0.61276 0.60773 0.45801 0.0
C713 C 0.59577 0.60472 0.49468 0.0
C714 C 0.63235 0.63144 0.45304 0.0
C715 C 0.63477 0.65285 0.48528 0.0
C716 C 0.61686 0.6506 0.52162 0.0
C717 C 0.59769 0.62647 0.52599 0.0
C718 C 0.65131 0.63291 0.41404 0.0
C719 C 0.61853 0.67323 0.55642 0.0
C720 C 0.70703 0.69409 0.49806 0.0
C721 C 0.70071 0.72105 0.4785 0.0
C722 C 0.68586 0.67158 0.4999 0.0
C723 C 0.65752 0.6764 0.48239 0.0
C724 C 0.65102 0.70362 0.4625 0.0
C725 C 0.67286 0.72558 0.46042 0.0
C726 C 0.69384 0.64267 0.52068 0.0
C727 C 0.62089 0.70968 0.44409 0.0
H728 H 0.61141 0.59108 0.4336 0.0
H729 H 0.5845 0.62446 0.55431 0.0
H730 H 0.64918 0.65481 0.39877 0.0
H731 H 0.67484 0.6301 0.42292 0.0
H732 H 0.6454 0.61561 0.39072 0.0
H733 H 0.60155 0.6695 0.58106 0.0
H734 H 0.64062 0.67244 0.5715 0.0
H735 H 0.61564 0.69574 0.54333 0.0
H736 H 0.72871 0.69055 0.51169 0.0
H737 H 0.66798 0.74657 0.44558 0.0
H738 H 0.69034 0.62419 0.4983 0.0
H739 H 0.67927 0.63871 0.54813 0.0
H740 H 0.71713 0.64219 0.53161 0.0
H741 H 0.61543 0.6929 0.41988 0.0
H742 H 0.61945 0.73191 0.4295 0.0
H743 H 0.60391 0.70798 0.4691 0.0
C744 C 0.33905 0.59752 0.47978 0.0
C745 C 0.35882 0.59955 0.51371 0.0
C746 C 0.31578 0.61767 0.47539 0.0
C747 C 0.3127 0.6407 0.50511 0.0
C748 C 0.33144 0.64171 0.5408 0.0
C749 C 0.35412 0.62092 0.54488 0.0
C750 C 0.29574 0.61533 0.4375 0.0
C751 C 0.32905 0.66608 0.57304 0.0
C752 C 0.28419 0.71411 0.46544 0.0
C753 C 0.25607 0.71509 0.48341 0.0
C754 C 0.3027 0.68982 0.472 0.0
C755 C 0.29249 0.66571 0.49636 0.0
C756 C 0.26366 0.66618 0.51341 0.0
C757 C 0.24587 0.69115 0.50722 0.0
C758 C 0.33349 0.69035 0.45385 0.0
C759 C 0.25177 0.64046 0.53838 0.0
H760 H 0.34232 0.5808 0.45583 0.0
H761 H 0.36924 0.62257 0.57127 0.0
H762 H 0.27261 0.62071 0.44587 0.0
H763 H 0.30302 0.6313 0.41316 0.0
H764 H 0.29631 0.59289 0.4235 0.0
H765 H 0.3431 0.66189 0.60113 0.0
H766 H 0.33602 0.68726 0.55857 0.0
H767 H 0.30588 0.66876 0.5835 0.0
H768 H 0.29205 0.73283 0.44737 0.0
H769 H 0.22398 0.69201 0.52087 0.0
H770 H 0.33668 0.67123 0.43257 0.0
H771 H 0.34999 0.68843 0.47958 0.0
H772 H 0.33803 0.71089 0.43589 0.0
H773 H 0.25378 0.61983 0.51981 0.0
H774 H 0.22828 0.64356 0.54726 0.0
H775 H 0.26496 0.63747 0.56753 0.0
C776 C 0.36258 0.38014 0.50302 0.0
C777 C 0.38263 0.3853 0.53593 0.0
C778 C 0.34097 0.35811 0.50617 0.0
C779 C 0.33973 0.34032 0.54276 0.0
C780 C 0.36017 0.34509 0.57589 0.0
C781 C 0.38118 0.36778 0.57229 0.0
C782 C 0.31917 0.3542 0.47054 0.0
C783 C 0.3599 0.32616 0.61501 0.0
C784 C 0.26673 0.30231 0.56528 0.0
C785 C 0.27116 0.27462 0.54684 0.0
C786 C 0.28905 0.32378 0.56479 0.0
C787 C 0.31666 0.31707 0.54629 0.0
C788 C 0.32152 0.28872 0.52887 0.0
C789 C 0.29851 0.26794 0.52882 0.0
C790 C 0.28274 0.35397 0.58272 0.0
C791 C 0.35084 0.28051 0.50972 0.0
H792 H 0.36338 0.39376 0.47498 0.0
H793 H 0.39669 0.37159 0.59777 0.0
H794 H 0.32086 0.33157 0.4575 0.0
H795 H 0.29633 0.35693 0.48247 0.0
H796 H 0.32279 0.37024 0.44461 0.0
H797 H 0.37773 0.33227 0.63745 0.0
H798 H 0.33837 0.32826 0.63126 0.0
H799 H 0.36255 0.30261 0.60626 0.0
H800 H 0.24544 0.30744 0.57895 0.0
H801 H 0.3019 0.24638 0.51485 0.0
H802 H 0.28436 0.37079 0.55743 0.0
H803 H 0.29939 0.35972 0.60701 0.0
H804 H 0.26044 0.35535 0.59705 0.0
H805 H 0.35488 0.29408 0.48123 0.0
H806 H 0.35182 0.25685 0.5007 0.0
H807 H 0.36898 0.2852 0.53228 0.0
C808 C 0.63533 0.3755 0.59491 0.0
C809 C 0.63159 0.39201 0.55791 0.0
C810 C 0.65974 0.35675 0.60003 0.0
C811 C 0.68115 0.35493 0.56771 0.0
C812 C 0.67842 0.37299 0.53152 0.0
C813 C 0.65353 0.39107 0.52686 0.0
C814 C 0.66165 0.33763 0.63888 0.0
C815 C 0.70106 0.37222 0.49672 0.0
C816 C 0.75454 0.31691 0.58926 0.0
C817 C 0.75006 0.28955 0.56972 0.0
C818 C 0.73227 0.33849 0.58908 0.0
C819 C 0.70478 0.3322 0.56971 0.0
C820 C 0.70001 0.30427 0.5509 0.0
C821 C 0.72281 0.28341 0.55077 0.0
C822 C 0.73838 0.36824 0.60859 0.0
C823 C 0.67085 0.29648 0.53058 0.0
H824 H 0.61847 0.37613 0.61906 0.0
H825 H 0.65099 0.40405 0.49841 0.0
H826 H 0.65804 0.31424 0.62996 0.0
H827 H 0.68392 0.33916 0.65325 0.0
H828 H 0.64499 0.34384 0.6629 0.0
H829 H 0.69833 0.39087 0.47433 0.0
H830 H 0.72374 0.37297 0.5099 0.0
H831 H 0.69884 0.35129 0.47889 0.0
H832 H 0.77572 0.32166 0.60367 0.0
H833 H 0.71932 0.26211 0.53603 0.0
H834 H 0.72154 0.37334 0.63279 0.0
H835 H 0.73686 0.38564 0.58408 0.0
H836 H 0.76058 0.36935 0.6234 0.0
H837 H 0.65259 0.29984 0.55329 0.0
H838 H 0.67021 0.27327 0.51939 0.0
H839 H 0.66671 0.31124 0.50334 0.0
C840 C 0.04995 0.09039 0.12923 0.0
C841 C 0.01921 0.08925 0.13329 0.0
C842 C 0.06787 0.10221 0.16106 0.0
C843 C 0.05468 0.11331 0.19805 0.0
C844 C 0.02356 0.11365 0.20168 0.0
C845 C 0.0062 0.10141 0.16943 0.0
C846 C 0.10097 0.10214 0.15552 0.0
C847 C 0.0086 0.12602 0.24022 0.0
C848 C 0.09713 0.1108 0.30083 0.0
C849 C 0.10516 0.14044 0.30625 0.0
C850 C 0.08134 0.10162 0.2652 0.0
C851 C 0.0734 0.1226 0.23416 0.0
C852 C 0.08247 0.15236 0.23858 0.0
C853 C 0.09824 0.16094 0.27468 0.0
C854 C 0.07246 0.06959 0.26135 0.0
C855 C 0.07428 0.17553 0.20649 0.0
H856 H 0.06026 0.08151 0.10172 0.0
H857 H 0.98241 0.10101 0.17293 0.0
H858 H 0.10993 0.12465 0.16068 0.0
H859 H 0.11122 0.08744 0.17935 0.0
H860 H 0.10766 0.09452 0.1237 0.0
H861 H 0.98459 0.12941 0.2351 0.0
H862 H 0.01168 0.11054 0.26695 0.0
H863 H 0.01859 0.14743 0.24939 0.0
H864 H 0.10284 0.09481 0.32491 0.0
H865 H 0.10414 0.18393 0.27895 0.0
H866 H 0.08035 0.06042 0.23101 0.0
H867 H 0.04804 0.06773 0.26148 0.0
H868 H 0.08142 0.05586 0.28739 0.0
H869 H 0.07428 0.16649 0.17406 0.0
H870 H 0.08956 0.1947 0.20779 0.0
H871 H 0.05167 0.18361 0.21324 0.0
C872 C 0.91158 0.05568 0.15117 0.0
C873 C 0.90993 0.02532 0.15904 0.0
C874 C 0.90537 0.07629 0.18278 0.0
C875 C 0.8966 0.06623 0.223 0.0
C876 C 0.89397 0.03559 0.23083 0.0
C877 C 0.9008 0.01551 0.19877 0.0
C878 C 0.90871 0.10878 0.17334 0.0
C879 C 0.88454 0.02394 0.2733 0.0
C880 C 0.90878 0.11399 0.31918 0.0
C881 C 0.88019 0.12446 0.32707 0.0
C882 C 0.91454 0.09557 0.28479 0.0
C883 C 0.8912 0.08765 0.25741 0.0
C884 C 0.86256 0.09916 0.26406 0.0
C885 C 0.85737 0.11746 0.2989 0.0
C886 C 0.94532 0.0835 0.27895 0.0
C887 C 0.83713 0.09105 0.23552 0.0
H888 H 0.91759 0.06344 0.1203 0.0
H889 H 0.8993 0.99208 0.20496 0.0
H890 H 0.88763 0.12043 0.17948 0.0
H891 H 0.92562 0.11854 0.19449 0.0
H892 H 0.91533 0.11295 0.1402 0.0
H893 H 0.88027 -0.00019 0.27273 0.0
H894 H 0.9021 0.02843 0.29682 0.0
H895 H 0.86426 0.03532 0.2841 0.0
H896 H 0.92657 0.11965 0.34057 0.0
H897 H 0.83518 0.12518 0.30512 0.0
H898 H 0.95233 0.08551 0.24564 0.0
H899 H 0.94552 0.05968 0.287 0.0
H900 H 0.9617 0.09491 0.2993 0.0
H901 H 0.84289 0.09559 0.20221 0.0
H902 H 0.81667 0.10332 0.24342 0.0
H903 H 0.83258 0.06706 0.23815 0.0
C904 C 0.96444 0.95003 0.18235 0.0
C905 C 0.96547 0.93183 0.1469 0.0
C906 C 0.94835 0.94151 0.21805 0.0
C907 C 0.93369 0.91386 0.21831 0.0
C908 C 0.93481 0.89546 0.18231 0.0
C909 C 0.95057 0.90484 0.14682 0.0
C910 C 0.94731 0.96197 0.2555 0.0
C911 C 0.91966 0.86578 0.18145 0.0
C912 C 0.91976 0.88013 0.32564 0.0
C913 C 0.88955 0.8854 0.33102 0.0
C914 C 0.93424 0.8888 0.28872 0.0
C915 C 0.9182 0.90362 0.2568 0.0
C916 C 0.88757 0.90876 0.26193 0.0
C917 C 0.87355 0.89939 0.29899 0.0
C918 C 0.96668 0.88203 0.28381 0.0
C919 C 0.86976 0.92508 0.22915 0.0
H920 H 0.97579 0.9711 0.18181 0.0
H921 H 0.95151 0.89096 0.11905 0.0
H922 H 0.92452 0.9636 0.26795 0.0
H923 H 0.96145 0.95304 0.28104 0.0
H924 H 0.95525 0.9845 0.24756 0.0
H925 H 0.9225 0.85429 0.15083 0.0
H926 H 0.92865 0.85155 0.20686 0.0
H927 H 0.8957 0.86846 0.18746 0.0
H928 H 0.932 0.86897 0.35032 0.0
H929 H 0.85022 0.90367 0.30343 0.0
H930 H 0.97942 0.90286 0.28116 0.0
H931 H 0.97038 0.86936 0.2544 0.0
H932 H 0.97559 0.86914 0.31073 0.0
H933 H 0.87493 0.94893 0.23128 0.0
H934 H 0.84565 0.92223 0.23396 0.0
H935 H 0.8754 0.9177 0.19687 0.0
C936 C 0.06063 0.97632 0.14728 0.0
C937 C 0.07897 0.98627 0.11497 0.0
C938 C 0.07231 0.96149 0.18215 0.0
C939 C 0.10315 0.95682 0.18469 0.0
C940 C 0.12172 0.96625 0.15145 0.0
C941 C 0.10936 0.98128 0.11704 0.0
C942 C 0.05183 0.95223 0.21723 0.0
C943 C 0.15471 0.96187 0.153 0.0
C944 C 0.13316 0.95133 0.29558 0.0
C945 C 0.13389 0.92068 0.30188 0.0
C946 C 0.12392 0.96337 0.25716 0.0
C947 C 0.11591 0.94429 0.2238 0.0
C948 C 0.11812 0.91339 0.22902 0.0
C949 C 0.12674 0.90191 0.26819 0.0
C950 C 0.12173 0.9965 0.25277 0.0
C951 C 0.11039 0.89246 0.1937 0.0
H952 H 0.0373 0.98154 0.1463 0.0
H953 H 0.12347 0.98954 0.09213 0.0
H954 H 0.05471 0.92844 0.22431 0.0
H955 H 0.05731 0.96466 0.24631 0.0
H956 H 0.02828 0.95624 0.20936 0.0
H957 H 0.16452 0.96248 0.12098 0.0
H958 H 0.16481 0.97989 0.17177 0.0
H959 H 0.16059 0.94064 0.16824 0.0
H960 H 0.13945 0.96603 0.32097 0.0
H961 H 0.127 0.87821 0.2727 0.0
H962 H 0.09852 0.00286 0.24622 0.0
H963 H 0.13521 0.00411 0.22576 0.0
H964 H 0.12923 0.00827 0.28154 0.0
H965 H 0.08615 0.89244 0.18873 0.0
H966 H 0.11756 0.86951 0.20053 0.0
H967 H 0.12074 0.89978 0.16383 0.0
C968 C 0.08647 -0.00021 0.82643 0.0
C969 C 0.10669 0.01158 0.85534 0.0
C970 C 0.0958 0.98108 0.79403 0.0
C971 C 0.12612 0.97411 0.79041 0.0
C972 C 0.1466 0.98552 0.81993 0.0
C973 C 0.13661 0.00414 0.85213 0.0
C974 C 0.07322 0.96944 0.76316 0.0
C975 C 0.17904 0.97817 0.81731 0.0
C976 C 0.14434 0.90712 0.72396 0.0
C977 C 0.15218 0.92021 0.68551 0.0
C978 C 0.13672 0.92444 0.75886 0.0
C979 C 0.13643 0.95554 0.75497 0.0
C980 C 0.14467 0.96892 0.71654 0.0
C981 C 0.1528 0.95112 0.68246 0.0
C982 C 0.12798 0.90946 0.79945 0.0
C983 C 0.14421 0.00205 0.71112 0.0
H984 H 0.06326 0.0051 0.82919 0.0
H985 H 0.15229 0.01308 0.87457 0.0
H986 H 0.0745 0.98244 0.73361 0.0
H987 H 0.07746 0.94602 0.75512 0.0
H988 H 0.05043 0.97116 0.77569 0.0
H989 H 0.19191 0.98797 0.84363 0.0
H990 H 0.18213 0.95389 0.81776 0.0
H991 H 0.18819 0.98641 0.78714 0.0
H992 H 0.14338 0.8833 0.72654 0.0
H993 H 0.15948 0.96149 0.65324 0.0
H994 H 0.10434 0.91381 0.80604 0.0
H995 H 0.14091 0.91861 0.82614 0.0
H996 H 0.13142 0.88521 0.7983 0.0
H997 H 0.12145 0.01041 0.71585 0.0
H998 H 0.15189 0.00902 0.67944 0.0
H999 H 0.15842 0.01266 0.73523 0.0
C1000 C 0.01583 0.09761 0.87036 0.0
C1001 C 0.00336 0.06937 0.87344 0.0
C1002 C 0.03085 0.10647 0.83398 0.0
C1003 C 0.03361 0.08656 0.79995 0.0
C1004 C 0.0219 0.05773 0.80329 0.0
C1005 C 0.0068 0.04946 0.84002 0.0
C1006 C 0.04342 0.13729 0.83168 0.0
C1007 C 0.02489 0.03586 0.76776 0.0
C1008 C 0.04374 0.11866 0.69071 0.0
C1009 C 0.07433 0.11628 0.68529 0.0
C1010 C 0.03022 0.10897 0.7279 0.0
C1011 C 0.04775 0.09641 0.76023 0.0
C1012 C 0.07865 0.09376 0.75476 0.0
C1013 C 0.09158 0.10383 0.71733 0.0
C1014 C 0.99724 0.11247 0.73279 0.0
C1015 C 0.09804 0.0795 0.78767 0.0
H1016 H 0.01347 0.11306 0.89616 0.0
H1017 H 0.99752 0.02748 0.84242 0.0
H1018 H 0.06749 0.13628 0.8255 0.0
H1019 H 0.03311 0.14946 0.80513 0.0
H1020 H 0.03977 0.14995 0.86115 0.0
H1021 H 0.01734 0.01348 0.77693 0.0
H1022 H 0.0116 0.04331 0.74038 0.0
H1023 H 0.04819 0.03451 0.75732 0.0
H1024 H 0.03043 0.1285 0.66602 0.0
H1025 H 0.11518 0.10151 0.71278 0.0
H1026 H 0.99243 0.12664 0.76041 0.0
H1027 H 0.98683 0.0907 0.73874 0.0
H1028 H 0.98675 0.12242 0.70451 0.0
H1029 H 0.09147 0.08605 0.81996 0.0
H1030 H 0.12169 0.0851 0.7831 0.0
H1031 H 0.09571 0.05523 0.78518 0.0
C1032 C 0.87959 0.011 0.87014 0.0
C1033 C 0.90222 0.99052 0.87729 0.0
C1034 C 0.87983 0.02927 0.83459 0.0
C1035 C 0.90332 0.02706 0.80551 0.0
C1036 C 0.92594 0.00601 0.81204 0.0
C1037 C 0.9251 0.9879 0.84788 0.0
C1038 C 0.85502 0.05109 0.82835 0.0
C1039 C 0.95106 0.00269 0.78134 0.0
C1040 C 0.88931 0.05701 0.69598 0.0
C1041 C 0.90103 0.08552 0.69909 0.0
C1042 C 0.89022 0.03761 0.73024 0.0
C1043 C 0.90387 0.04675 0.76814 0.0
C1044 C 0.91662 0.07527 0.77099 0.0
C1045 C 0.91461 0.09458 0.7365 0.0
C1046 C 0.87618 0.00753 0.72598 0.0
C1047 C 0.93192 0.08555 0.8106 0.0
H1048 H 0.86186 0.01322 0.89277 0.0
H1049 H 0.94255 0.97196 0.8531 0.0
H1050 H 0.86376 0.0739 0.8306 0.0
H1051 H 0.84522 0.04849 0.79652 0.0
H1052 H 0.83727 0.04839 0.85212 0.0
H1053 H 0.96893 0.98841 0.79396 0.0
H1054 H 0.94278 0.99269 0.75174 0.0
H1055 H 0.9604 0.0246 0.77328 0.0
H1056 H 0.87872 0.05019 0.66691 0.0
H1057 H 0.92381 0.11662 0.73859 0.0
H1058 H 0.86092 0.00327 0.7526 0.0
H1059 H 0.89356 0.99036 0.72695 0.0
H1060 H 0.86372 0.0051 0.69602 0.0
H1061 H 0.91524 0.09002 0.83529 0.0
H1062 H 0.94498 0.10597 0.80537 0.0
H1063 H 0.94682 0.06812 0.82279 0.0
C1064 C 0.92864 0.89278 0.89124 0.0
C1065 C 0.95822 0.89972 0.88284 0.0
C1066 C 0.90927 0.8848 0.85871 0.0
C1067 C 0.91994 0.88319 0.81695 0.0
C1068 C 0.94984 0.8899 0.80832 0.0
C1069 C 0.96857 0.8983 0.84135 0.0
C1070 C 0.87736 0.87848 0.86894 0.0
C1071 C 0.96207 0.88814 0.76419 0.0
C1072 C 0.88029 0.8363 0.7359 0.0
C1073 C 0.867 0.85792 0.71076 0.0
C1074 C 0.89705 0.84419 0.7713 0.0
C1075 C 0.9 0.87436 0.78209 0.0
C1076 C 0.88542 0.89618 0.75788 0.0
C1077 C 0.86941 0.8877 0.72203 0.0
C1078 C 0.91265 0.82036 0.79602 0.0
C1079 C 0.88749 0.92853 0.76896 0.0
H1080 H 0.92044 0.89401 0.9232 0.0
H1081 H 0.99141 0.90363 0.83464 0.0
H1082 H 0.8629 0.89396 0.85138 0.0
H1083 H 0.87142 0.85583 0.85877 0.0
H1084 H 0.87263 0.88063 0.90312 0.0
H1085 H 0.98608 0.89307 0.76306 0.0
H1086 H 0.95833 0.86576 0.75106 0.0
H1087 H 0.95038 0.90403 0.74348 0.0
H1088 H 0.87857 0.81331 0.72683 0.0
H1089 H 0.85896 0.90436 0.70255 0.0
H1090 H 0.90695 0.82196 0.82988 0.0
H1091 H 0.93689 0.82341 0.79341 0.0
H1092 H 0.90695 0.79788 0.7847 0.0
H1093 H 0.88459 0.93194 0.8033 0.0
H1094 H 0.87068 0.94181 0.75196 0.0
H1095 H 0.90967 0.93699 0.76047 0.0
C1096 C 0.53971 0.58975 0.63818 0.0
C1097 C 0.50896 0.58961 0.64207 0.0
C1098 C 0.55781 0.60055 0.67046 0.0
C1099 C 0.54474 0.61203 0.70735 0.0
C1100 C 0.51361 0.6135 0.71061 0.0
C1101 C 0.49611 0.60208 0.67801 0.0
C1102 C 0.59092 0.59884 0.6656 0.0
C1103 C 0.4983 0.62574 0.749 0.0
C1104 C 0.58719 0.60553 0.80948 0.0
C1105 C 0.59741 0.63447 0.81542 0.0
C1106 C 0.57005 0.59804 0.7744 0.0
C1107 C 0.5636 0.61982 0.74388 0.0
C1108 C 0.57448 0.64888 0.74893 0.0
C1109 C 0.59127 0.65591 0.78477 0.0
C1110 C 0.55794 0.56708 0.77074 0.0
C1111 C 0.5672 0.67278 0.71749 0.0
H1112 H 0.54975 0.58119 0.61011 0.0
H1113 H 0.47232 0.6023 0.68124 0.0
H1114 H 0.6007 0.62119 0.66847 0.0
H1115 H 0.60045 0.5851 0.69117 0.0
H1116 H 0.59755 0.58929 0.63483 0.0
H1117 H 0.47888 0.63908 0.73942 0.0
H1118 H 0.49009 0.60713 0.76848 0.0
H1119 H 0.51283 0.63976 0.76875 0.0
H1120 H 0.59223 0.58873 0.8327 0.0
H1121 H 0.59872 0.6784 0.78948 0.0
H1122 H 0.56385 0.55743 0.73981 0.0
H1123 H 0.53349 0.56773 0.77243 0.0
H1124 H 0.56616 0.55235 0.79612 0.0
H1125 H 0.5736 0.66577 0.68532 0.0
H1126 H 0.57848 0.69393 0.7249 0.0
H1127 H 0.543 0.67659 0.7172 0.0
C1128 C 0.42789 0.5283 0.68829 0.0
C1129 C 0.41542 0.52902 0.64799 0.0
C1130 C 0.4171 0.54659 0.72039 0.0
C1131 C 0.39266 0.56526 0.71216 0.0
C1132 C 0.38014 0.56608 0.67126 0.0
C1133 C 0.39189 0.54807 0.63953 0.0
C1134 C 0.4316 0.54565 0.76322 0.0
C1135 C 0.35371 0.58517 0.66139 0.0
C1136 C 0.34662 0.58457 0.80788 0.0
C1137 C 0.35577 0.6135 0.8163 0.0
C1138 C 0.35779 0.56899 0.77329 0.0
C1139 C 0.37913 0.58246 0.74704 0.0
C1140 C 0.38814 0.61187 0.75509 0.0
C1141 C 0.37607 0.6272 0.78944 0.0
C1142 C 0.34715 0.53789 0.7653 0.0
C1143 C 0.4113 0.62669 0.72839 0.0
H1144 H 0.44614 0.51346 0.69461 0.0
H1145 H 0.38185 0.5479 0.60855 0.0
H1146 H 0.43836 0.5682 0.77283 0.0
H1147 H 0.41567 0.53749 0.787 0.0
H1148 H 0.45134 0.53112 0.76376 0.0
H1149 H 0.34626 0.58277 0.62822 0.0
H1150 H 0.33512 0.57927 0.68249 0.0
H1151 H 0.35909 0.60869 0.66719 0.0
H1152 H 0.33081 0.57407 0.82866 0.0
H1153 H 0.38334 0.64948 0.7963 0.0
H1154 H 0.36566 0.52215 0.76959 0.0
H1155 H 0.33931 0.53569 0.73233 0.0
H1156 H 0.32897 0.53142 0.78682 0.0
H1157 H 0.43169 0.61322 0.72859 0.0
H1158 H 0.41671 0.64925 0.73968 0.0
H1159 H 0.40367 0.62811 0.69525 0.0
C1160 C 0.44578 0.42287 0.66744 0.0
C1161 C 0.47661 0.42216 0.66977 0.0
C1162 C 0.42836 0.41959 0.70352 0.0
C1163 C 0.4422 0.41452 0.74277 0.0
C1164 C 0.47336 0.41315 0.74537 0.0
C1165 C 0.49019 0.41721 0.70889 0.0
C1166 C 0.3952 0.42155 0.69958 0.0
C1167 C 0.48894 0.4073 0.78664 0.0
C1168 C 0.40397 0.427 0.84722 0.0
C1169 C 0.39576 0.39816 0.85784 0.0
C1170 C 0.41777 0.43298 0.80863 0.0
C1171 C 0.42421 0.40936 0.78097 0.0
C1172 C 0.41516 0.38034 0.79115 0.0
C1173 C 0.40074 0.37515 0.82936 0.0
C1174 C 0.42627 0.46435 0.79806 0.0
C1175 C 0.4221 0.35452 0.76279 0.0
H1176 H 0.43515 0.42582 0.63747 0.0
H1177 H 0.51407 0.41666 0.71112 0.0
H1178 H 0.385 0.40024 0.70874 0.0
H1179 H 0.38658 0.43863 0.72133 0.0
H1180 H 0.38802 0.42704 0.66703 0.0
H1181 H 0.51325 0.40561 0.78287 0.0
H1182 H 0.48414 0.42533 0.8092 0.0
H1183 H 0.4807 0.38648 0.80078 0.0
H1184 H 0.39998 0.44473 0.86938 0.0
H1185 H 0.39466 0.3528 0.83799 0.0
H1186 H 0.41839 0.47022 0.76602 0.0
H1187 H 0.45066 0.46652 0.79803 0.0
H1188 H 0.41708 0.48045 0.82089 0.0
H1189 H 0.41386 0.35874 0.73044 0.0
H1190 H 0.41225 0.33359 0.77437 0.0
H1191 H 0.44638 0.35165 0.76072 0.0
C1192 C 0.58136 0.45575 0.66695 0.0
C1193 C 0.57988 0.48603 0.65884 0.0
C1194 C 0.59413 0.44474 0.70384 0.0
C1195 C 0.60625 0.46461 0.73344 0.0
C1196 C 0.60596 0.49526 0.72507 0.0
C1197 C 0.59264 0.50564 0.68793 0.0
C1198 C 0.59388 0.41182 0.71157 0.0
C1199 C 0.61936 0.51704 0.75558 0.0
C1200 C 0.6081 0.43605 0.8453 0.0
C1201 C 0.63725 0.42593 0.8488 0.0
C1202 C 0.59804 0.44961 0.80835 0.0
C1203 C 0.61762 0.45316 0.77408 0.0
C1204 C 0.64727 0.44368 0.77771 0.0
C1205 C 0.65673 0.4301 0.81508 0.0
C1206 C 0.56618 0.45926 0.80546 0.0
C1207 C 0.66872 0.44708 0.74172 0.0
H1208 H 0.57222 0.44045 0.64495 0.0
H1209 H 0.59207 0.52916 0.68188 0.0
H1210 H 0.61661 0.40378 0.71764 0.0
H1211 H 0.58053 0.40681 0.73994 0.0
H1212 H 0.58456 0.39931 0.68455 0.0
H1213 H 0.61838 0.54007 0.7437 0.0
H1214 H 0.60763 0.51587 0.78616 0.0
H1215 H 0.64276 0.51128 0.76176 0.0
H1216 H 0.59283 0.43252 0.87105 0.0
H1217 H 0.67936 0.4226 0.81785 0.0
H1218 H 0.55483 0.44695 0.77992 0.0
H1219 H 0.56497 0.48305 0.79737 0.0
H1220 H 0.55399 0.45554 0.83531 0.0
H1221 H 0.66181 0.43276 0.71514 0.0
H1222 H 0.6916 0.44103 0.7509 0.0
H1223 H 0.66868 0.47015 0.73004 0.0
C1224 C 0.57885 0.45273 0.3594 0.0
C1225 C 0.59397 0.45283 0.39799 0.0
C1226 C 0.58716 0.43363 0.32691 0.0
C1227 C 0.61128 0.4143 0.3331 0.0
C1228 C 0.6258 0.41336 0.37258 0.0
C1229 C 0.61705 0.43279 0.40457 0.0
C1230 C 0.57081 0.43495 0.28545 0.0
C1231 C 0.65124 0.39261 0.38051 0.0
C1232 C 0.62281 0.35526 0.24983 0.0
C1233 C 0.6427 0.36954 0.22298 0.0
C1234 C 0.61288 0.36914 0.2867 0.0
C1235 C 0.62336 0.39775 0.29674 0.0
C1236 C 0.64437 0.41164 0.27043 0.0
C1237 C 0.65368 0.39739 0.23376 0.0
C1238 C 0.59001 0.35386 0.31337 0.0
C1239 C 0.65622 0.44207 0.28016 0.0
H1240 H 0.56081 0.46801 0.35419 0.0
H1241 H 0.62854 0.43251 0.43452 0.0
H1242 H 0.58578 0.44321 0.26048 0.0
H1243 H 0.56342 0.41256 0.27605 0.0
H1244 H 0.55121 0.44964 0.28685 0.0
H1245 H 0.6579 0.39218 0.41418 0.0
H1246 H 0.64531 0.36988 0.37063 0.0
H1247 H 0.67051 0.39958 0.36143 0.0
H1248 H 0.61413 0.33381 0.24111 0.0
H1249 H 0.66923 0.40826 0.21297 0.0
H1250 H 0.56802 0.36322 0.30587 0.0
H1251 H 0.59422 0.35741 0.34741 0.0
H1252 H 0.58919 0.32976 0.30707 0.0
H1253 H 0.638 0.45839 0.27885 0.0
H1254 H 0.67365 0.44904 0.25769 0.0
H1255 H 0.66551 0.44264 0.31249 0.0
C1256 C 0.52687 0.54248 0.36842 0.0
C1257 C 0.49662 0.5488 0.36772 0.0
C1258 C 0.54498 0.54916 0.33406 0.0
C1259 C 0.53249 0.56279 0.29818 0.0
C1260 C 0.50189 0.56914 0.29707 0.0
C1261 C 0.4843 0.56199 0.33189 0.0
C1262 C 0.57752 0.54211 0.33649 0.0
C1263 C 0.48777 0.58365 0.25925 0.0
C1264 C 0.58059 0.60826 0.22538 0.0
C1265 C 0.58416 0.58902 0.19123 0.0
C1266 C 0.56448 0.59967 0.26097 0.0
C1267 C 0.55154 0.57124 0.26225 0.0
C1268 C 0.55595 0.55134 0.22859 0.0
C1269 C 0.57231 0.56045 0.1935 0.0
C1270 C 0.56042 0.62138 0.29655 0.0
C1271 C 0.54272 0.52074 0.22915 0.0
H1272 H 0.5366 0.533 0.39634 0.0
H1273 H 0.46097 0.56703 0.33125 0.0
H1274 H 0.58355 0.52655 0.31098 0.0
H1275 H 0.59073 0.56247 0.33182 0.0
H1276 H 0.58384 0.53211 0.36715 0.0
H1277 H 0.46431 0.58948 0.26489 0.0
H1278 H 0.49992 0.60403 0.25064 0.0
H1279 H 0.48888 0.56849 0.23188 0.0
H1280 H 0.58942 0.63045 0.22364 0.0
H1281 H 0.57545 0.54533 0.16747 0.0
H1282 H 0.56741 0.61131 0.32682 0.0
H1283 H 0.53671 0.62711 0.29953 0.0
H1284 H 0.57318 0.64202 0.29165 0.0
H1285 H 0.54977 0.50875 0.25791 0.0
H1286 H 0.54916 0.50756 0.20117 0.0
H1287 H 0.51829 0.52229 0.23004 0.0
C1288 C 0.41666 0.50837 0.34949 0.0
C1289 C 0.39905 0.50957 0.38571 0.0
C1290 C 0.40886 0.52402 0.31306 0.0
C1291 C 0.38248 0.54075 0.31255 0.0
C1292 C 0.36468 0.54215 0.34905 0.0
C1293 C 0.37335 0.52678 0.38537 0.0
C1294 C 0.42872 0.52233 0.275 0.0
C1295 C 0.33636 0.55967 0.34977 0.0
C1296 C 0.37296 0.59969 0.22854 0.0
C1297 C 0.35781 0.58404 0.19724 0.0
C1298 C 0.38116 0.58595 0.26639 0.0
C1299 C 0.37325 0.5561 0.27337 0.0
C1300 C 0.35711 0.54052 0.24228 0.0
C1301 C 0.3499 0.55459 0.20433 0.0
C1302 C 0.39818 0.60355 0.29868 0.0
C1303 C 0.34734 0.50903 0.2492 0.0
H1304 H 0.4367 0.49533 0.34961 0.0
H1305 H 0.35973 0.52795 0.41332 0.0
H1306 H 0.41822 0.50835 0.25057 0.0
H1307 H 0.43204 0.54455 0.26115 0.0
H1308 H 0.45064 0.51276 0.28276 0.0
H1309 H 0.32299 0.55491 0.37824 0.0
H1310 H 0.34159 0.58358 0.34943 0.0
H1311 H 0.32281 0.55484 0.32145 0.0
H1312 H 0.37904 0.62251 0.22297 0.0
H1313 H 0.33781 0.54266 0.18025 0.0
H1314 H 0.4149 0.58981 0.31493 0.0
H1315 H 0.38266 0.61195 0.32281 0.0
H1316 H 0.40946 0.62281 0.28421 0.0
H1317 H 0.36689 0.49449 0.2524 0.0
H1318 H 0.33343 0.50065 0.22295 0.0
H1319 H 0.33461 0.50734 0.27893 0.0
C1320 C 0.52851 0.34689 0.37919 0.0
C1321 C 0.53141 0.37741 0.3851 0.0
C1322 C 0.51197 0.33559 0.34546 0.0
C1323 C 0.49808 0.35532 0.31717 0.0
C1324 C 0.50213 0.38611 0.32185 0.0
C1325 C 0.51869 0.39677 0.35582 0.0
C1326 C 0.50837 0.30262 0.34113 0.0
C1327 C 0.48799 0.40788 0.29195 0.0
C1328 C 0.46734 0.331 0.21174 0.0
C1329 C 0.43699 0.32969 0.22036 0.0
C1330 C 0.48776 0.3382 0.24337 0.0
C1331 C 0.4775 0.34413 0.28451 0.0
C1332 C 0.44707 0.34151 0.29385 0.0
C1333 C 0.42716 0.33432 0.26162 0.0
C1334 C 0.52011 0.34057 0.23244 0.0
C1335 C 0.43534 0.34771 0.33743 0.0
H1336 H 0.53842 0.33179 0.40159 0.0
H1337 H 0.52098 0.42039 0.36003 0.0
H1338 H 0.48512 0.29644 0.34764 0.0
H1339 H 0.51336 0.29557 0.30848 0.0
H1340 H 0.5229 0.29027 0.36315 0.0
H1341 H 0.4945 0.43102 0.29885 0.0
H1342 H 0.49424 0.40269 0.25904 0.0
H1343 H 0.46361 0.40615 0.29408 0.0
H1344 H 0.47507 0.32697 0.17998 0.0
H1345 H 0.40374 0.33366 0.26837 0.0
H1346 H 0.5335 0.32695 0.25432 0.0
H1347 H 0.52758 0.36374 0.23614 0.0
H1348 H 0.5247 0.33343 0.19965 0.0
H1349 H 0.44755 0.33455 0.3612 0.0
H1350 H 0.41143 0.34262 0.34021 0.0
H1351 H 0.43875 0.37134 0.3452 0.0
loop_
_geom_bond_atom_site_label_1
_geom_bond_atom_site_label_2
_geom_bond_distance
_geom_bond_site_symmetry_2
_ccdc_geom_bond_type
Zn0 O2 1.933 1_556 S
Zn0 O20 1.985 . S
Zn0 O31 1.955 . S
Zn1 O2 1.911 . S
Zn1 O21 1.970 . S
Zn1 O37 1.945 . S
Zn1 O44 1.981 . S
O2 Zn0 1.933 1_554 S
O2 Zn1 1.911 . S
O2 H3 0.841 1_655 S
H3 O2 0.841 1_455 S
C4 O5 1.246 . S
C4 O33 1.276 1_545 S
O5 C4 1.246 . S
Zn6 O8 1.911 . S
Zn6 O23 1.970 . S
Zn6 O40 1.945 . S
Zn6 O47 1.981 . S
Zn7 O8 1.933 1_556 S
Zn7 O22 1.985 . S
Zn7 O29 1.955 . S
O8 Zn6 1.911 . S
O8 Zn7 1.933 1_554 S
O8 H9 0.841 1_455 S
H9 O8 0.841 1_655 S
Zn10 O11 1.933 1_556 S
Zn10 O24 1.985 . S
Zn10 O33 1.955 . S
O11 Zn10 1.933 1_554 S
O11 Zn12 1.911 . S
O11 H13 0.841 1_565 S
Zn12 O11 1.911 . S
Zn12 O25 1.970 . S
Zn12 O41 1.981 . S
Zn12 O43 1.945 . S
H13 O11 0.841 1_545 S
Zn14 O15 1.933 1_556 S
Zn14 O27 1.985 . S
Zn14 O35 1.955 . S
O15 Zn14 1.933 1_554 S
O15 H16 0.841 1_545 S
O15 Zn17 1.911 . S
H16 O15 0.841 1_565 S
Zn17 O15 1.911 . S
Zn17 O28 1.970 . S
Zn17 O38 1.981 . S
Zn17 O46 1.945 . S
C18 O19 1.246 . S
C18 O35 1.276 1_565 S
O19 C18 1.246 . S
O20 Zn0 1.985 . S
O20 C30 1.245 1_556 S
O21 Zn1 1.970 . S
O21 C30 1.263 . S
O22 Zn7 1.985 . S
O22 C34 1.245 1_556 S
O23 Zn6 1.970 . S
O23 C34 1.263 . S
O24 Zn10 1.985 . S
O24 C39 1.245 1_556 S
O25 Zn12 1.970 . S
O25 C39 1.263 . S
C26 O37 1.262 1_455 S
C26 O38 1.245 . S
O27 Zn14 1.985 . S
O27 C45 1.245 1_556 S
O28 Zn17 1.970 . S
O28 C45 1.263 . S
O29 Zn7 1.955 . S
O29 C48 1.276 1_455 S
C30 O20 1.245 1_554 S
C30 O21 1.263 . S
O31 Zn0 1.955 . S
O31 C50 1.276 1_655 S
C32 O40 1.262 1_655 S
C32 O41 1.245 . S
O33 C4 1.276 1_565 S
O33 Zn10 1.955 . S
C34 O22 1.245 1_554 S
C34 O23 1.263 . S
O35 Zn14 1.955 . S
O35 C18 1.276 1_545 S
C36 O43 1.262 1_545 S
C36 O44 1.245 . S
O37 Zn1 1.945 . S
O37 C26 1.262 1_655 S
O38 Zn17 1.981 . S
O38 C26 1.245 . S
C39 O24 1.245 1_554 S
C39 O25 1.263 . S
O40 Zn6 1.945 . S
O40 C32 1.262 1_455 S
O41 Zn12 1.981 . S
O41 C32 1.245 . S
C42 O46 1.262 1_565 S
C42 O47 1.245 . S
O43 Zn12 1.945 . S
O43 C36 1.262 1_565 S
O44 Zn1 1.981 . S
O44 C36 1.245 . S
C45 O27 1.245 1_554 S
C45 O28 1.263 . S
O46 Zn17 1.945 . S
O46 C42 1.262 1_545 S
O47 Zn6 1.981 . S
O47 C42 1.245 . S
C48 O29 1.276 1_655 S
C48 O49 1.246 . S
O49 C48 1.246 . S
C50 O31 1.276 1_455 S
C50 O51 1.246 . S
O51 C50 1.246 . S
Zn52 O54 1.933 . S
Zn52 O72 1.985 . S
Zn52 O83 1.955 . S
Zn53 O54 1.911 . S
Zn53 O73 1.970 . S
Zn53 O89 1.945 . S
Zn53 O96 1.981 . S
O54 Zn52 1.933 . S
O54 Zn53 1.911 . S
O54 H55 0.841 . S
H55 O54 0.841 . S
C56 O57 1.246 . S
C56 O85 1.276 . S
O57 C56 1.246 . S
Zn58 O60 1.911 . S
Zn58 O75 1.970 . S
Zn58 O92 1.945 . S
Zn58 O99 1.981 . S
Zn59 O60 1.933 . S
Zn59 O74 1.985 . S
Zn59 O81 1.955 . S
O60 Zn58 1.911 . S
O60 Zn59 1.933 . S
O60 H61 0.841 . S
H61 O60 0.841 . S
Zn62 O63 1.933 . S
Zn62 O76 1.985 . S
Zn62 O85 1.955 . S
O63 Zn62 1.933 . S
O63 Zn64 1.911 . S
O63 H65 0.841 . S
Zn64 O63 1.911 . S
Zn64 O77 1.970 . S
Zn64 O93 1.981 . S
Zn64 O95 1.945 . S
H65 O63 0.841 . S
Zn66 O67 1.933 . S
Zn66 O79 1.985 . S
Zn66 O87 1.955 . S
O67 Zn66 1.933 . S
O67 H68 0.841 . S
O67 Zn69 1.911 . S
H68 O67 0.841 . S
Zn69 O67 1.911 . S
Zn69 O80 1.970 . S
Zn69 O90 1.981 . S
Zn69 O98 1.945 . S
C70 O71 1.246 . S
C70 O87 1.276 . S
O71 C70 1.246 . S
O72 Zn52 1.985 . S
O72 C82 1.245 . S
O73 Zn53 1.970 . S
O73 C82 1.263 . S
O74 Zn59 1.985 . S
O74 C86 1.245 . S
O75 Zn58 1.970 . S
O75 C86 1.263 . S
O76 Zn62 1.985 . S
O76 C91 1.245 . S
O77 Zn64 1.970 . S
O77 C91 1.263 . S
C78 O89 1.262 . S
C78 O90 1.245 . S
O79 Zn66 1.985 . S
O79 C97 1.245 . S
O80 Zn69 1.970 . S
O80 C97 1.263 . S
O81 Zn59 1.955 . S
O81 C100 1.276 . S
C82 O72 1.245 . S
C82 O73 1.263 . S
O83 Zn52 1.955 . S
O83 C102 1.276 . S
C84 O92 1.262 . S
C84 O93 1.245 . S
O85 C56 1.276 . S
O85 Zn62 1.955 . S
C86 O74 1.245 . S
C86 O75 1.263 . S
O87 Zn66 1.955 . S
O87 C70 1.276 . S
C88 O95 1.262 . S
C88 O96 1.245 . S
O89 Zn53 1.945 . S
O89 C78 1.262 . S
O90 Zn69 1.981 . S
O90 C78 1.245 . S
C91 O76 1.245 . S
C91 O77 1.263 . S
O92 Zn58 1.945 . S
O92 C84 1.262 . S
O93 Zn64 1.981 . S
O93 C84 1.245 . S
C94 O98 1.262 . S
C94 O99 1.245 . S
O95 Zn64 1.945 . S
O95 C88 1.262 . S
O96 Zn53 1.981 . S
O96 C88 1.245 . S
C97 O79 1.245 . S
C97 O80 1.263 . S
O98 Zn69 1.945 . S
O98 C94 1.262 . S
O99 Zn58 1.981 . S
O99 C94 1.245 . S
C100 O81 1.276 . S
C100 O101 1.246 . S
O101 C100 1.246 . S
C102 O83 1.276 . S
C102 O103 1.246 . S
O103 C102 1.246 . S
C104 C105 1.391 . S
C104 C108 1.391 . S
C104 H146 0.948 . S
C105 C104 1.391 . S
C105 C106 1.391 . S
C106 C105 1.391 . S
C106 H162 0.947 . S
C106 C163 1.392 . S
C107 C108 1.391 . S
C107 C111 1.397 . S
C107 C163 1.419 . S
C108 C104 1.391 . S
C108 C107 1.391 . S
C108 C109 1.399 . S
C109 C108 1.399 . S
C109 C112 1.396 . S
C109 C121 1.453 . S
C109 C122 1.684 . S
H110 C134 0.948 . S
C111 C107 1.397 . S
C111 C112 1.394 . S
C111 C130 1.723 1_556 S
C112 C109 1.396 . S
C112 C111 1.394 . S
C112 C142 1.723 1_556 S
H113 C136 0.947 . S
H114 C137 0.948 . S
H115 C143 0.982 . S
H116 C144 0.979 . S
H117 C144 0.980 . S
H118 C144 0.983 . S
H119 C143 0.979 . S
H120 C143 0.977 . S
C121 C109 1.453 . S
C121 H150 0.982 . S
C121 H151 0.979 . S
C121 H152 0.977 . S
C122 C109 1.684 . S
C122 H147 0.979 . S
C122 H148 0.980 . S
C122 H149 0.983 . S
C123 C124 1.391 . S
C123 C128 1.391 . S
C123 H153 0.948 . S
C124 C123 1.391 . S
C124 C125 1.391 . S
C125 C124 1.391 . S
C125 C126 1.392 . S
C125 H154 0.947 . S
C126 C125 1.392 . S
C126 C127 1.419 . S
C126 H155 0.948 . S
C127 C126 1.419 . S
C127 C128 1.391 . S
C127 C131 1.397 . S
C128 C123 1.391 . S
C128 C127 1.391 . S
C128 C129 1.399 . S
C129 C128 1.399 . S
C129 C130 1.396 . S
C129 C132 1.453 . S
C129 C133 1.684 . S
C130 C111 1.723 1_554 S
C130 C129 1.396 . S
C130 C131 1.394 . S
C131 C127 1.397 . S
C131 C130 1.394 . S
C131 C141 1.723 . S
C132 C129 1.453 . S
C132 H156 0.982 . S
C132 H157 0.979 . S
C132 H158 0.977 . S
C133 C129 1.684 . S
C133 H159 0.979 . S
C133 H160 0.980 . S
C133 H161 0.983 . S
C134 H110 0.948 . S
C134 C135 1.391 . S
C134 C139 1.391 . S
C135 C134 1.391 . S
C135 C136 1.391 1_554 S
C136 H113 0.947 . S
C136 C135 1.391 1_556 S
C136 C137 1.392 . S
C137 H114 0.948 . S
C137 C136 1.392 . S
C137 C138 1.419 1_556 S
C138 C137 1.419 1_554 S
C138 C139 1.391 . S
C138 C142 1.397 . S
C139 C134 1.391 . S
C139 C138 1.391 . S
C139 C140 1.399 . S
C140 C139 1.399 . S
C140 C141 1.396 . S
C140 C143 1.453 . S
C140 C144 1.684 . S
C141 C131 1.723 . S
C141 C140 1.396 . S
C141 C142 1.394 . S
C142 C112 1.723 1_554 S
C142 C138 1.397 . S
C142 C141 1.394 . S
C143 H115 0.982 . S
C143 H119 0.979 . S
C143 H120 0.977 . S
C143 C140 1.453 . S
C144 H116 0.979 . S
C144 H117 0.980 . S
C144 H118 0.983 . S
C144 C140 1.684 . S
H145 C163 0.948 . S
H146 C104 0.948 . S
H147 C122 0.979 . S
H148 C122 0.980 . S
H149 C122 0.983 . S
H150 C121 0.982 . S
H151 C121 0.979 . S
H152 C121 0.977 . S
H153 C123 0.948 . S
H154 C125 0.947 . S
H155 C126 0.948 . S
H156 C132 0.982 . S
H157 C132 0.979 . S
H158 C132 0.977 . S
H159 C133 0.979 . S
H160 C133 0.980 . S
H161 C133 0.983 . S
H162 C106 0.947 . S
C163 C106 1.392 . S
C163 C107 1.419 . S
C163 H145 0.948 . S
C164 C165 1.391 . S
C164 C168 1.391 . S
C164 H206 0.948 . S
C165 C164 1.391 . S
C165 C166 1.391 . S
C166 C165 1.391 . S
C166 H222 0.947 . S
C166 C223 1.392 . S
C167 C168 1.391 . S
C167 C171 1.397 . S
C167 C223 1.419 . S
C168 C164 1.391 . S
C168 C167 1.391 . S
C168 C169 1.399 . S
C169 C168 1.399 . S
C169 C172 1.396 . S
C169 C181 1.453 . S
C169 C182 1.684 . S
H170 C194 0.948 . S
C171 C167 1.397 . S
C171 C172 1.394 . S
C171 C190 1.723 1_556 S
C172 C169 1.396 . S
C172 C171 1.394 . S
C172 C202 1.723 1_556 S
H173 C196 0.947 . S
H174 C197 0.948 . S
H175 C203 0.982 . S
H176 C204 0.979 . S
H177 C204 0.980 . S
H178 C204 0.983 . S
H179 C203 0.979 . S
H180 C203 0.977 . S
C181 C169 1.453 . S
C181 H210 0.982 . S
C181 H211 0.979 . S
C181 H212 0.977 . S
C182 C169 1.684 . S
C182 H207 0.979 . S
C182 H208 0.980 . S
C182 H209 0.983 . S
C183 C184 1.391 . S
C183 C188 1.391 . S
C183 H213 0.948 . S
C184 C183 1.391 . S
C184 C185 1.391 . S
C185 C184 1.391 . S
C185 C186 1.392 . S
C185 H214 0.947 . S
C186 C185 1.392 . S
C186 C187 1.419 . S
C186 H215 0.948 . S
C187 C186 1.419 . S
C187 C188 1.391 . S
C187 C191 1.397 . S
C188 C183 1.391 . S
C188 C187 1.391 . S
C188 C189 1.399 . S
C189 C188 1.399 . S
C189 C190 1.396 . S
C189 C192 1.453 . S
C189 C193 1.684 . S
C190 C171 1.723 1_554 S
C190 C189 1.396 . S
C190 C191 1.394 . S
C191 C187 1.397 . S
C191 C190 1.394 . S
C191 C201 1.723 . S
C192 C189 1.453 . S
C192 H216 0.982 . S
C192 H217 0.979 . S
C192 H218 0.977 . S
C193 C189 1.684 . S
C193 H219 0.979 . S
C193 H220 0.980 . S
C193 H221 0.983 . S
C194 H170 0.948 . S
C194 C195 1.391 . S
C194 C199 1.391 . S
C195 C194 1.391 . S
C195 C196 1.391 1_554 S
C196 H173 0.947 . S
C196 C195 1.391 1_556 S
C196 C197 1.392 . S
C197 H174 0.948 . S
C197 C196 1.392 . S
C197 C198 1.419 1_556 S
C198 C197 1.419 1_554 S
C198 C199 1.391 . S
C198 C202 1.397 . S
C199 C194 1.391 . S
C199 C198 1.391 . S
C199 C200 1.399 . S
C200 C199 1.399 . S
C200 C201 1.396 . S
C200 C203 1.453 . S
C200 C204 1.684 . S
C201 C191 1.723 . S
C201 C200 1.396 . S
C201 C202 1.394 . S
C202 C172 1.723 1_554 S
C202 C198 1.397 . S
C202 C201 1.394 . S
C203 H175 0.982 . S
C203 H179 0.979 . S
C203 H180 0.977 . S
C203 C200 1.453 . S
C204 H176 0.979 . S
C204 H177 0.980 . S
C204 H178 0.983 . S
C204 C200 1.684 . S
H205 C223 0.948 . S
H206 C164 0.948 . S
H207 C182 0.979 . S
H208 C182 0.980 . S
H209 C182 0.983 . S
H210 C181 0.982 . S
H211 C181 0.979 . S
H212 C181 0.977 . S
H213 C183 0.948 . S
H214 C185 0.947 . S
H215 C186 0.948 . S
H216 C192 0.982 . S
H217 C192 0.979 . S
H218 C192 0.977 . S
H219 C193 0.979 . S
H220 C193 0.980 . S
H221 C193 0.983 . S
H222 C166 0.947 . S
C223 C166 1.392 . S
C223 C167 1.419 . S
C223 H205 0.948 . S
C224 C225 1.391 . S
C224 C228 1.391 . S
C224 H266 0.948 . S
C225 C224 1.391 . S
C225 C226 1.391 . S
C226 C225 1.391 . S
C226 H282 0.947 . S
C226 C283 1.392 . S
C227 C228 1.391 . S
C227 C231 1.397 . S
C227 C283 1.419 . S
C228 C224 1.391 . S
C228 C227 1.391 . S
C228 C229 1.399 . S
C229 C228 1.399 . S
C229 C232 1.396 . S
C229 C241 1.453 . S
C229 C242 1.684 . S
H230 C254 0.948 . S
C231 C227 1.397 . S
C231 C232 1.394 . S
C231 C250 1.723 . S
C232 C229 1.396 . S
C232 C231 1.394 . S
C232 C262 1.723 . S
H233 C256 0.947 . S
H234 C257 0.948 . S
H235 C263 0.982 . S
H236 C264 0.979 . S
H237 C264 0.980 . S
H238 C264 0.983 . S
H239 C263 0.979 . S
H240 C263 0.977 . S
C241 C229 1.453 . S
C241 H270 0.982 . S
C241 H271 0.979 . S
C241 H272 0.977 . S
C242 C229 1.684 . S
C242 H267 0.979 . S
C242 H268 0.980 . S
C242 H269 0.983 . S
C243 C244 1.391 . S
C243 C248 1.391 . S
C243 H273 0.948 . S
C244 C243 1.391 . S
C244 C245 1.391 . S
C245 C244 1.391 . S
C245 C246 1.392 . S
C245 H274 0.947 . S
C246 C245 1.392 . S
C246 C247 1.419 . S
C246 H275 0.948 . S
C247 C246 1.419 . S
C247 C248 1.391 . S
C247 C251 1.397 . S
C248 C243 1.391 . S
C248 C247 1.391 . S
C248 C249 1.399 . S
C249 C248 1.399 . S
C249 C250 1.396 1_556 S
C249 C252 1.453 . S
C249 C253 1.684 . S
C250 C231 1.723 . S
C250 C249 1.396 1_554 S
C250 C251 1.394 1_554 S
C251 C247 1.397 . S
C251 C250 1.394 1_556 S
C251 C261 1.723 . S
C252 C249 1.453 . S
C252 H276 0.982 . S
C252 H277 0.979 . S
C252 H278 0.977 1_556 S
C253 C249 1.684 . S
C253 H279 0.979 . S
C253 H280 0.980 1_556 S
C253 H281 0.983 . S
C254 H230 0.948 . S
C254 C255 1.391 1_556 S
C254 C259 1.391 . S
C255 C254 1.391 1_554 S
C255 C256 1.391 . S
C256 H233 0.947 . S
C256 C255 1.391 . S
C256 C257 1.392 . S
C257 H234 0.948 . S
C257 C256 1.392 . S
C257 C258 1.419 . S
C258 C257 1.419 . S
C258 C259 1.391 1_554 S
C258 C262 1.397 . S
C259 C254 1.391 . S
C259 C258 1.391 1_556 S
C259 C260 1.399 . S
C260 C259 1.399 . S
C260 C261 1.396 . S
C260 C263 1.453 . S
C260 C264 1.684 . S
C261 C251 1.723 . S
C261 C260 1.396 . S
C261 C262 1.394 1_556 S
C262 C232 1.723 . S
C262 C258 1.397 . S
C262 C261 1.394 1_554 S
C263 H235 0.982 . S
C263 H239 0.979 . S
C263 H240 0.977 . S
C263 C260 1.453 . S
C264 H236 0.979 . S
C264 H237 0.980 . S
C264 H238 0.983 . S
C264 C260 1.684 . S
H265 C283 0.948 . S
H266 C224 0.948 . S
H267 C242 0.979 . S
H268 C242 0.980 . S
H269 C242 0.983 . S
H270 C241 0.982 . S
H271 C241 0.979 . S
H272 C241 0.977 . S
H273 C243 0.948 . S
H274 C245 0.947 . S
H275 C246 0.948 . S
H276 C252 0.982 . S
H277 C252 0.979 . S
H278 C252 0.977 1_554 S
H279 C253 0.979 . S
H280 C253 0.980 1_554 S
H281 C253 0.983 . S
H282 C226 0.947 . S
C283 C226 1.392 . S
C283 C227 1.419 . S
C283 H265 0.948 . S
C284 C285 1.391 . S
C284 C288 1.391 . S
C284 H326 0.948 . S
C285 C284 1.391 . S
C285 C286 1.391 . S
C286 C285 1.391 . S
C286 H342 0.947 . S
C286 C343 1.392 . S
C287 C288 1.391 . S
C287 C291 1.397 . S
C287 C343 1.419 . S
C288 C284 1.391 . S
C288 C287 1.391 . S
C288 C289 1.399 . S
C289 C288 1.399 . S
C289 C292 1.396 . S
C289 C301 1.453 . S
C289 C302 1.684 . S
H290 C314 0.948 . S
C291 C287 1.397 . S
C291 C292 1.394 . S
C291 C310 1.723 . S
C292 C289 1.396 . S
C292 C291 1.394 . S
C292 C322 1.723 . S
H293 C316 0.947 . S
H294 C317 0.948 . S
H295 C323 0.982 . S
H296 C324 0.979 . S
H297 C324 0.980 . S
H298 C324 0.983 . S
H299 C323 0.979 . S
H300 C323 0.977 . S
C301 C289 1.453 . S
C301 H330 0.982 . S
C301 H331 0.979 . S
C301 H332 0.977 . S
C302 C289 1.684 . S
C302 H327 0.979 . S
C302 H328 0.980 . S
C302 H329 0.983 . S
C303 C304 1.391 . S
C303 C308 1.391 . S
C303 H333 0.948 . S
C304 C303 1.391 . S
C304 C305 1.391 . S
C305 C304 1.391 . S
C305 C306 1.392 . S
C305 H334 0.947 . S
C306 C305 1.392 . S
C306 C307 1.419 . S
C306 H335 0.948 . S
C307 C306 1.419 . S
C307 C308 1.391 . S
C307 C311 1.397 . S
C308 C303 1.391 . S
C308 C307 1.391 . S
C308 C309 1.399 . S
C309 C308 1.399 . S
C309 C310 1.396 1_556 S
C309 C312 1.453 . S
C309 C313 1.684 . S
C310 C291 1.723 . S
C310 C309 1.396 1_554 S
C310 C311 1.394 1_554 S
C311 C307 1.397 . S
C311 C310 1.394 1_556 S
C311 C321 1.723 . S
C312 C309 1.453 . S
C312 H336 0.982 . S
C312 H337 0.979 . S
C312 H338 0.977 1_556 S
C313 C309 1.684 . S
C313 H339 0.979 . S
C313 H340 0.980 1_556 S
C313 H341 0.983 . S
C314 H290 0.948 . S
C314 C315 1.391 1_556 S
C314 C319 1.391 . S
C315 C314 1.391 1_554 S
C315 C316 1.391 . S
C316 H293 0.947 . S
C316 C315 1.391 . S
C316 C317 1.392 . S
C317 H294 0.948 . S
C317 C316 1.392 . S
C317 C318 1.419 . S
C318 C317 1.419 . S
C318 C319 1.391 1_554 S
C318 C322 1.397 . S
C319 C314 1.391 . S
C319 C318 1.391 1_556 S
C319 C320 1.399 . S
C320 C319 1.399 . S
C320 C321 1.396 . S
C320 C323 1.453 . S
C320 C324 1.684 . S
C321 C311 1.723 . S
C321 C320 1.396 . S
C321 C322 1.394 1_556 S
C322 C292 1.723 . S
C322 C318 1.397 . S
C322 C321 1.394 1_554 S
C323 H295 0.982 . S
C323 H299 0.979 . S
C323 H300 0.977 . S
C323 C320 1.453 . S
C324 H296 0.979 . S
C324 H297 0.980 . S
C324 H298 0.983 . S
C324 C320 1.684 . S
H325 C343 0.948 . S
H326 C284 0.948 . S
H327 C302 0.979 . S
H328 C302 0.980 . S
H329 C302 0.983 . S
H330 C301 0.982 . S
H331 C301 0.979 . S
H332 C301 0.977 . S
H333 C303 0.948 . S
H334 C305 0.947 . S
H335 C306 0.948 . S
H336 C312 0.982 . S
H337 C312 0.979 . S
H338 C312 0.977 1_554 S
H339 C313 0.979 . S
H340 C313 0.980 1_554 S
H341 C313 0.983 . S
H342 C286 0.947 . S
C343 C286 1.392 . S
C343 C287 1.419 . S
C343 H325 0.948 . S
C344 C345 1.391 . S
C344 C348 1.391 . S
C344 H386 0.948 . S
C345 C344 1.391 . S
C345 C346 1.391 . S
C346 C345 1.391 . S
C346 H402 0.947 . S
C346 C403 1.392 . S
C347 C348 1.391 . S
C347 C351 1.397 . S
C347 C403 1.419 . S
C348 C344 1.391 . S
C348 C347 1.391 . S
C348 C349 1.399 . S
C349 C348 1.399 . S
C349 C352 1.396 . S
C349 C361 1.453 . S
C349 C362 1.684 . S
H350 C374 0.948 . S
C351 C347 1.397 . S
C351 C352 1.394 . S
C351 C370 1.723 . S
C352 C349 1.396 . S
C352 C351 1.394 . S
C352 C382 1.723 . S
H353 C376 0.947 . S
H354 C377 0.948 . S
H355 C383 0.982 . S
H356 C384 0.979 . S
H357 C384 0.980 . S
H358 C384 0.983 . S
H359 C383 0.979 . S
H360 C383 0.977 . S
C361 C349 1.453 . S
C361 H390 0.982 . S
C361 H391 0.979 . S
C361 H392 0.977 . S
C362 C349 1.684 . S
C362 H387 0.979 . S
C362 H388 0.980 . S
C362 H389 0.983 . S
C363 C364 1.391 . S
C363 C368 1.391 . S
C363 H393 0.948 . S
C364 C363 1.391 . S
C364 C365 1.391 . S
C365 C364 1.391 . S
C365 C366 1.392 . S
C365 H394 0.947 . S
C366 C365 1.392 . S
C366 C367 1.419 . S
C366 H395 0.948 . S
C367 C366 1.419 . S
C367 C368 1.391 . S
C367 C371 1.397 . S
C368 C363 1.391 . S
C368 C367 1.391 . S
C368 C369 1.399 . S
C369 C368 1.399 . S
C369 C370 1.396 . S
C369 C372 1.453 . S
C369 C373 1.684 . S
C370 C351 1.723 . S
C370 C369 1.396 . S
C370 C371 1.394 . S
C371 C367 1.397 . S
C371 C370 1.394 . S
C371 C381 1.723 . S
C372 C369 1.453 . S
C372 H396 0.982 . S
C372 H397 0.979 . S
C372 H398 0.977 . S
C373 C369 1.684 . S
C373 H399 0.979 . S
C373 H400 0.980 . S
C373 H401 0.983 . S
C374 H350 0.948 . S
C374 C375 1.391 . S
C374 C379 1.391 . S
C375 C374 1.391 . S
C375 C376 1.391 . S
C376 H353 0.947 . S
C376 C375 1.391 . S
C376 C377 1.392 . S
C377 H354 0.948 . S
C377 C376 1.392 . S
C377 C378 1.419 . S
C378 C377 1.419 . S
C378 C379 1.391 . S
C378 C382 1.397 . S
C379 C374 1.391 . S
C379 C378 1.391 . S
C379 C380 1.399 . S
C380 C379 1.399 . S
C380 C381 1.396 . S
C380 C383 1.453 . S
C380 C384 1.684 . S
C381 C371 1.723 . S
C381 C380 1.396 . S
C381 C382 1.394 . S
C382 C352 1.723 . S
C382 C378 1.397 . S
C382 C381 1.394 . S
C383 H355 0.982 . S
C383 H359 0.979 . S
C383 H360 0.977 . S
C383 C380 1.453 . S
C384 H356 0.979 . S
C384 H357 0.980 . S
C384 H358 0.983 . S
C384 C380 1.684 . S
H385 C403 0.948 . S
H386 C344 0.948 . S
H387 C362 0.979 . S
H388 C362 0.980 . S
H389 C362 0.983 . S
H390 C361 0.982 . S
H391 C361 0.979 . S
H392 C361 0.977 . S
H393 C363 0.948 . S
H394 C365 0.947 . S
H395 C366 0.948 . S
H396 C372 0.982 . S
H397 C372 0.979 . S
H398 C372 0.977 . S
H399 C373 0.979 . S
H400 C373 0.980 . S
H401 C373 0.983 . S
H402 C346 0.947 . S
C403 C346 1.392 . S
C403 C347 1.419 . S
C403 H385 0.948 . S
C404 C405 1.391 . S
C404 C408 1.391 . S
C404 H446 0.948 . S
C405 C404 1.391 . S
C405 C406 1.391 . S
C406 C405 1.391 . S
C406 H462 0.947 . S
C406 C463 1.392 . S
C407 C408 1.391 . S
C407 C411 1.397 . S
C407 C463 1.419 . S
C408 C404 1.391 . S
C408 C407 1.391 . S
C408 C409 1.399 . S
C409 C408 1.399 . S
C409 C412 1.396 . S
C409 C421 1.453 . S
C409 C422 1.684 . S
H410 C434 0.948 . S
C411 C407 1.397 . S
C411 C412 1.394 . S
C411 C430 1.723 . S
C412 C409 1.396 . S
C412 C411 1.394 . S
C412 C442 1.723 . S
H413 C436 0.947 . S
H414 C437 0.948 . S
H415 C443 0.982 . S
H416 C444 0.979 . S
H417 C444 0.980 . S
H418 C444 0.983 . S
H419 C443 0.979 . S
H420 C443 0.977 . S
C421 C409 1.453 . S
C421 H450 0.982 . S
C421 H451 0.979 . S
C421 H452 0.977 . S
C422 C409 1.684 . S
C422 H447 0.979 . S
C422 H448 0.980 . S
C422 H449 0.983 . S
C423 C424 1.391 . S
C423 C428 1.391 . S
C423 H453 0.948 . S
C424 C423 1.391 . S
C424 C425 1.391 . S
C425 C424 1.391 . S
C425 C426 1.392 . S
C425 H454 0.947 . S
C426 C425 1.392 . S
C426 C427 1.419 . S
C426 H455 0.948 . S
C427 C426 1.419 . S
C427 C428 1.391 . S
C427 C431 1.397 . S
C428 C423 1.391 . S
C428 C427 1.391 . S
C428 C429 1.399 . S
C429 C428 1.399 . S
C429 C430 1.396 . S
C429 C432 1.453 . S
C429 C433 1.684 . S
C430 C411 1.723 . S
C430 C429 1.396 . S
C430 C431 1.394 . S
C431 C427 1.397 . S
C431 C430 1.394 . S
C431 C441 1.723 . S
C432 C429 1.453 . S
C432 H456 0.982 . S
C432 H457 0.979 . S
C432 H458 0.977 . S
C433 C429 1.684 . S
C433 H459 0.979 . S
C433 H460 0.980 . S
C433 H461 0.983 . S
C434 H410 0.948 . S
C434 C435 1.391 . S
C434 C439 1.391 . S
C435 C434 1.391 . S
C435 C436 1.391 . S
C436 H413 0.947 . S
C436 C435 1.391 . S
C436 C437 1.392 . S
C437 H414 0.948 . S
C437 C436 1.392 . S
C437 C438 1.419 . S
C438 C437 1.419 . S
C438 C439 1.391 . S
C438 C442 1.397 . S
C439 C434 1.391 . S
C439 C438 1.391 . S
C439 C440 1.399 . S
C440 C439 1.399 . S
C440 C441 1.396 . S
C440 C443 1.453 . S
C440 C444 1.684 . S
C441 C431 1.723 . S
C441 C440 1.396 . S
C441 C442 1.394 . S
C442 C412 1.723 . S
C442 C438 1.397 . S
C442 C441 1.394 . S
C443 H415 0.982 . S
C443 H419 0.979 . S
C443 H420 0.977 . S
C443 C440 1.453 . S
C444 H416 0.979 . S
C444 H417 0.980 . S
C444 H418 0.983 . S
C444 C440 1.684 . S
H445 C463 0.948 . S
H446 C404 0.948 . S
H447 C422 0.979 . S
H448 C422 0.980 . S
H449 C422 0.983 . S
H450 C421 0.982 . S
H451 C421 0.979 . S
H452 C421 0.977 . S
H453 C423 0.948 . S
H454 C425 0.947 . S
H455 C426 0.948 . S
H456 C432 0.982 . S
H457 C432 0.979 . S
H458 C432 0.977 . S
H459 C433 0.979 . S
H460 C433 0.980 . S
H461 C433 0.983 . S
H462 C406 0.947 . S
C463 C406 1.392 . S
C463 C407 1.419 . S
C463 H445 0.948 . S
C464 C465 1.391 . S
C464 C468 1.391 . S
C464 H506 0.948 . S
C465 C464 1.391 . S
C465 C466 1.391 . S
C466 C465 1.391 . S
C466 H522 0.947 . S
C466 C523 1.392 . S
C467 C468 1.391 . S
C467 C471 1.397 . S
C467 C523 1.419 . S
C468 C464 1.391 . S
C468 C467 1.391 . S
C468 C469 1.399 . S
C469 C468 1.399 . S
C469 C472 1.396 . S
C469 C481 1.453 . S
C469 C482 1.684 . S
H470 C494 0.948 . S
C471 C467 1.397 . S
C471 C472 1.394 . S
C471 C490 1.723 . S
C472 C469 1.396 . S
C472 C471 1.394 . S
C472 C502 1.723 . S
H473 C496 0.947 . S
H474 C497 0.948 . S
H475 C503 0.982 . S
H476 C504 0.979 . S
H477 C504 0.980 . S
H478 C504 0.983 . S
H479 C503 0.979 . S
H480 C503 0.977 . S
C481 C469 1.453 . S
C481 H510 0.982 . S
C481 H511 0.979 . S
C481 H512 0.977 . S
C482 C469 1.684 . S
C482 H507 0.979 . S
C482 H508 0.980 . S
C482 H509 0.983 . S
C483 C484 1.391 . S
C483 C488 1.391 . S
C483 H513 0.948 . S
C484 C483 1.391 . S
C484 C485 1.391 . S
C485 C484 1.391 . S
C485 C486 1.392 . S
C485 H514 0.947 . S
C486 C485 1.392 . S
C486 C487 1.419 . S
C486 H515 0.948 . S
C487 C486 1.419 . S
C487 C488 1.391 . S
C487 C491 1.397 . S
C488 C483 1.391 . S
C488 C487 1.391 . S
C488 C489 1.399 . S
C489 C488 1.399 . S
C489 C490 1.396 . S
C489 C492 1.453 . S
C489 C493 1.684 . S
C490 C471 1.723 . S
C490 C489 1.396 . S
C490 C491 1.394 . S
C491 C487 1.397 . S
C491 C490 1.394 . S
C491 C501 1.723 . S
C492 C489 1.453 . S
C492 H516 0.982 . S
C492 H517 0.979 . S
C492 H518 0.977 . S
C493 C489 1.684 . S
C493 H519 0.979 . S
C493 H520 0.980 . S
C493 H521 0.983 . S
C494 H470 0.948 . S
C494 C495 1.391 . S
C494 C499 1.391 . S
C495 C494 1.391 . S
C495 C496 1.391 . S
C496 H473 0.947 . S
C496 C495 1.391 . S
C496 C497 1.392 . S
C497 H474 0.948 . S
C497 C496 1.392 . S
C497 C498 1.419 . S
C498 C497 1.419 . S
C498 C499 1.391 . S
C498 C502 1.397 . S
C499 C494 1.391 . S
C499 C498 1.391 . S
C499 C500 1.399 . S
C500 C499 1.399 . S
C500 C501 1.396 . S
C500 C503 1.453 . S
C500 C504 1.684 . S
C501 C491 1.723 . S
C501 C500 1.396 . S
C501 C502 1.394 . S
C502 C472 1.723 . S
C502 C498 1.397 . S
C502 C501 1.394 . S
C503 H475 0.982 . S
C503 H479 0.979 . S
C503 H480 0.977 . S
C503 C500 1.453 . S
C504 H476 0.979 . S
C504 H477 0.980 . S
C504 H478 0.983 . S
C504 C500 1.684 . S
H505 C523 0.948 . S
H506 C464 0.948 . S
H507 C482 0.979 . S
H508 C482 0.980 . S
H509 C482 0.983 . S
H510 C481 0.982 . S
H511 C481 0.979 . S
H512 C481 0.977 . S
H513 C483 0.948 . S
H514 C485 0.947 . S
H515 C486 0.948 . S
H516 C492 0.982 . S
H517 C492 0.979 . S
H518 C492 0.977 . S
H519 C493 0.979 . S
H520 C493 0.980 . S
H521 C493 0.983 . S
H522 C466 0.947 . S
C523 C466 1.392 . S
C523 C467 1.419 . S
C523 H505 0.948 . S
C524 C525 1.391 . S
C524 C528 1.391 . S
C524 H566 0.948 . S
C525 C524 1.391 . S
C525 C526 1.391 . S
C526 C525 1.391 . S
C526 H582 0.947 . S
C526 C583 1.392 . S
C527 C528 1.391 . S
C527 C531 1.397 . S
C527 C583 1.419 . S
C528 C524 1.391 . S
C528 C527 1.391 . S
C528 C529 1.399 . S
C529 C528 1.399 . S
C529 C532 1.396 . S
C529 C541 1.453 . S
C529 C542 1.684 . S
H530 C554 0.948 . S
C531 C527 1.397 . S
C531 C532 1.394 . S
C531 C550 1.723 . S
C532 C529 1.396 . S
C532 C531 1.394 . S
C532 C562 1.723 . S
H533 C556 0.947 . S
H534 C557 0.948 . S
H535 C563 0.982 . S
H536 C564 0.979 . S
H537 C564 0.980 . S
H538 C564 0.983 . S
H539 C563 0.979 . S
H540 C563 0.977 . S
C541 C529 1.453 . S
C541 H570 0.982 . S
C541 H571 0.979 . S
C541 H572 0.977 . S
C542 C529 1.684 . S
C542 H567 0.979 . S
C542 H568 0.980 . S
C542 H569 0.983 . S
C543 C544 1.391 . S
C543 C548 1.391 . S
C543 H573 0.948 . S
C544 C543 1.391 . S
C544 C545 1.391 . S
C545 C544 1.391 . S
C545 C546 1.392 . S
C545 H574 0.947 . S
C546 C545 1.392 . S
C546 C547 1.419 . S
C546 H575 0.948 . S
C547 C546 1.419 . S
C547 C548 1.391 . S
C547 C551 1.397 . S
C548 C543 1.391 . S
C548 C547 1.391 . S
C548 C549 1.399 . S
C549 C548 1.399 . S
C549 C550 1.396 . S
C549 C552 1.453 . S
C549 C553 1.684 . S
C550 C531 1.723 . S
C550 C549 1.396 . S
C550 C551 1.394 . S
C551 C547 1.397 . S
C551 C550 1.394 . S
C551 C561 1.723 . S
C552 C549 1.453 . S
C552 H576 0.982 . S
C552 H577 0.979 . S
C552 H578 0.977 . S
C553 C549 1.684 . S
C553 H579 0.979 . S
C553 H580 0.980 . S
C553 H581 0.983 . S
C554 H530 0.948 . S
C554 C555 1.391 . S
C554 C559 1.391 . S
C555 C554 1.391 . S
C555 C556 1.391 . S
C556 H533 0.947 . S
C556 C555 1.391 . S
C556 C557 1.392 . S
C557 H534 0.948 . S
C557 C556 1.392 . S
C557 C558 1.419 . S
C558 C557 1.419 . S
C558 C559 1.391 . S
C558 C562 1.397 . S
C559 C554 1.391 . S
C559 C558 1.391 . S
C559 C560 1.399 . S
C560 C559 1.399 . S
C560 C561 1.396 . S
C560 C563 1.453 . S
C560 C564 1.684 . S
C561 C551 1.723 . S
C561 C560 1.396 . S
C561 C562 1.394 . S
C562 C532 1.723 . S
C562 C558 1.397 . S
C562 C561 1.394 . S
C563 H535 0.982 . S
C563 H539 0.979 . S
C563 H540 0.977 . S
C563 C560 1.453 . S
C564 H536 0.979 . S
C564 H537 0.980 . S
C564 H538 0.983 . S
C564 C560 1.684 . S
H565 C583 0.948 . S
H566 C524 0.948 . S
H567 C542 0.979 . S
H568 C542 0.980 . S
H569 C542 0.983 . S
H570 C541 0.982 . S
H571 C541 0.979 . S
H572 C541 0.977 . S
H573 C543 0.948 . S
H574 C545 0.947 . S
H575 C546 0.948 . S
H576 C552 0.982 . S
H577 C552 0.979 . S
H578 C552 0.977 . S
H579 C553 0.979 . S
H580 C553 0.980 . S
H581 C553 0.983 . S
H582 C526 0.947 . S
C583 C526 1.392 . S
C583 C527 1.419 . S
C583 H565 0.948 . S
C584 C585 1.391 . S
C584 C586 1.394 . S
C584 H600 0.931 . S
C585 C584 1.391 . S
C585 C589 1.376 . S
C586 C584 1.394 . S
C586 C587 1.369 . S
C586 C590 1.531 . S
C587 C586 1.369 . S
C587 C588 1.410 . S
C587 C595 1.503 . S
C588 C587 1.410 . S
C588 C589 1.392 . S
C588 C591 1.511 1_554 S
C589 C585 1.376 . S
C589 C588 1.392 . S
C589 H601 0.929 1_554 S
C590 C586 1.531 . S
C590 H602 0.960 . S
C590 H603 0.962 . S
C590 H604 0.960 . S
C591 C588 1.511 1_556 S
C591 H605 0.961 . S
C591 H606 0.961 . S
C591 H607 0.966 . S
C592 C593 1.370 1_556 S
C592 C594 1.363 . S
C592 H608 0.931 . S
C593 C592 1.370 1_554 S
C593 C597 1.408 . S
C594 C592 1.363 . S
C594 C595 1.370 1_556 S
C594 C598 1.524 . S
C595 C587 1.503 . S
C595 C594 1.370 1_554 S
C595 C596 1.403 . S
C596 C595 1.403 . S
C596 C597 1.404 . S
C596 C599 1.539 . S
C597 C593 1.408 . S
C597 C596 1.404 . S
C597 H609 0.930 . S
C598 C594 1.524 . S
C598 H610 0.956 . S
C598 H611 0.961 . S
C598 H612 0.961 . S
C599 C596 1.539 . S
C599 H613 0.958 . S
C599 H614 0.961 . S
C599 H615 0.960 . S
H600 C584 0.931 . S
H601 C589 0.929 1_556 S
H602 C590 0.960 . S
H603 C590 0.962 . S
H604 C590 0.960 . S
H605 C591 0.961 . S
H606 C591 0.961 . S
H607 C591 0.966 . S
H608 C592 0.931 . S
H609 C597 0.930 . S
H610 C598 0.956 . S
H611 C598 0.961 . S
H612 C598 0.961 . S
H613 C599 0.958 . S
H614 C599 0.961 . S
H615 C599 0.960 . S
C616 C617 1.391 1_556 S
C616 C618 1.394 . S
C616 H632 0.931 . S
C617 C616 1.391 1_554 S
C617 C621 1.376 . S
C618 C616 1.394 . S
C618 C619 1.369 1_556 S
C618 C622 1.531 . S
C619 C618 1.369 1_554 S
C619 C620 1.410 . S
C619 C627 1.503 . S
C620 C619 1.410 . S
C620 C621 1.392 . S
C620 C623 1.511 . S
C621 C617 1.376 . S
C621 C620 1.392 . S
C621 H633 0.929 . S
C622 C618 1.531 . S
C622 H634 0.960 . S
C622 H635 0.962 . S
C622 H636 0.960 . S
C623 C620 1.511 . S
C623 H637 0.961 . S
C623 H638 0.961 . S
C623 H639 0.961 . S
C624 C625 1.370 . S
C624 C626 1.363 . S
C624 H640 0.931 . S
C625 C624 1.370 . S
C625 C629 1.408 1_554 S
C626 C624 1.363 . S
C626 C627 1.370 . S
C626 C630 1.524 . S
C627 C619 1.503 . S
C627 C626 1.370 . S
C627 C628 1.403 1_554 S
C628 C627 1.403 1_556 S
C628 C629 1.404 . S
C628 C631 1.539 . S
C629 C625 1.408 1_556 S
C629 C628 1.404 . S
C629 H641 0.930 . S
C630 C626 1.524 . S
C630 H642 0.956 . S
C630 H643 0.961 . S
C630 H644 0.961 . S
C631 C628 1.539 . S
C631 H645 0.958 . S
C631 H646 0.961 . S
C631 H647 0.960 . S
H632 C616 0.931 . S
H633 C621 0.929 . S
H634 C622 0.960 . S
H635 C622 0.962 . S
H636 C622 0.960 . S
H637 C623 0.961 . S
H638 C623 0.961 . S
H639 C623 0.961 . S
H640 C624 0.931 . S
H641 C629 0.930 . S
H642 C630 0.956 . S
H643 C630 0.961 . S
H644 C630 0.961 . S
H645 C631 0.958 . S
H646 C631 0.961 . S
H647 C631 0.960 . S
C648 C649 1.391 . S
C648 C650 1.395 . S
C648 H664 0.931 1_554 S
C649 C648 1.391 . S
C649 C653 1.376 . S
C650 C648 1.395 . S
C650 C651 1.375 . S
C650 C654 1.523 1_554 S
C651 C650 1.375 . S
C651 C652 1.410 . S
C651 C659 1.503 . S
C652 C651 1.410 . S
C652 C653 1.392 . S
C652 C655 1.511 . S
C653 C649 1.376 . S
C653 C652 1.392 . S
C653 H665 0.929 . S
C654 C650 1.523 1_556 S
C654 H666 0.960 . S
C654 H667 0.962 1_556 S
C654 H668 0.960 . S
C655 C652 1.511 . S
C655 H669 0.961 . S
C655 H670 0.961 . S
C655 H671 0.961 . S
C656 C657 1.370 . S
C656 C658 1.363 . S
C656 H672 0.931 . S
C657 C656 1.370 . S
C657 C661 1.408 1_554 S
C658 C656 1.363 . S
C658 C659 1.370 . S
C658 C662 1.524 . S
C659 C651 1.503 . S
C659 C658 1.370 . S
C659 C660 1.403 1_554 S
C660 C659 1.403 1_556 S
C660 C661 1.404 . S
C660 C663 1.539 . S
C661 C657 1.408 1_556 S
C661 C660 1.404 . S
C661 H673 0.930 . S
C662 C658 1.524 . S
C662 H674 0.956 . S
C662 H675 0.961 . S
C662 H676 0.961 . S
C663 C660 1.539 . S
C663 H677 0.958 . S
C663 H678 0.961 . S
C663 H679 0.960 . S
H664 C648 0.931 1_556 S
H665 C653 0.929 . S
H666 C654 0.960 . S
H667 C654 0.962 1_554 S
H668 C654 0.960 . S
H669 C655 0.961 . S
H670 C655 0.961 . S
H671 C655 0.961 . S
H672 C656 0.931 . S
H673 C661 0.930 . S
H674 C662 0.956 . S
H675 C662 0.961 . S
H676 C662 0.961 . S
H677 C663 0.958 . S
H678 C663 0.961 . S
H679 C663 0.960 . S
C680 C681 1.391 . S
C680 C682 1.394 . S
C680 H696 0.931 . S
C681 C680 1.391 . S
C681 C685 1.376 . S
C682 C680 1.394 . S
C682 C683 1.369 . S
C682 C686 1.531 . S
C683 C682 1.369 . S
C683 C684 1.410 . S
C683 C691 1.503 . S
C684 C683 1.410 . S
C684 C685 1.392 . S
C684 C687 1.511 . S
C685 C681 1.376 . S
C685 C684 1.392 . S
C685 H697 0.929 . S
C686 C682 1.531 . S
C686 H698 0.960 . S
C686 H699 0.962 . S
C686 H700 0.960 . S
C687 C684 1.511 . S
C687 H701 0.961 1_554 S
C687 H702 0.961 1_554 S
C687 H703 0.961 . S
C688 C689 1.370 1_556 S
C688 C690 1.363 . S
C688 H704 0.931 . S
C689 C688 1.370 1_554 S
C689 C693 1.408 . S
C690 C688 1.363 . S
C690 C691 1.370 1_556 S
C690 C694 1.524 . S
C691 C683 1.503 . S
C691 C690 1.370 1_554 S
C691 C692 1.403 . S
C692 C691 1.403 . S
C692 C693 1.404 . S
C692 C695 1.539 . S
C693 C689 1.408 . S
C693 C692 1.404 . S
C693 H705 0.930 . S
C694 C690 1.524 . S
C694 H706 0.956 . S
C694 H707 0.961 . S
C694 H708 0.961 . S
C695 C692 1.539 . S
C695 H709 0.958 . S
C695 H710 0.961 . S
C695 H711 0.960 . S
H696 C680 0.931 . S
H697 C685 0.929 . S
H698 C686 0.960 . S
H699 C686 0.962 . S
H700 C686 0.960 . S
H701 C687 0.961 1_556 S
H702 C687 0.961 1_556 S
H703 C687 0.961 . S
H704 C688 0.931 . S
H705 C693 0.930 . S
H706 C694 0.956 . S
H707 C694 0.961 . S
H708 C694 0.961 . S
H709 C695 0.958 . S
H710 C695 0.961 . S
H711 C695 0.960 . S
C712 C713 1.391 . S
C712 C714 1.394 . S
C712 H728 0.931 . S
C713 C712 1.391 . S
C713 C717 1.376 . S
C714 C712 1.394 . S
C714 C715 1.369 . S
C714 C718 1.531 . S
C715 C714 1.369 . S
C715 C716 1.410 . S
C715 C723 1.503 . S
C716 C715 1.410 . S
C716 C717 1.392 . S
C716 C719 1.511 . S
C717 C713 1.376 . S
C717 C716 1.392 . S
C717 H729 0.929 . S
C718 C714 1.531 . S
C718 H730 0.960 . S
C718 H731 0.962 . S
C718 H732 0.960 . S
C719 C716 1.511 . S
C719 H733 0.961 . S
C719 H734 0.961 . S
C719 H735 0.961 . S
C720 C721 1.370 . S
C720 C722 1.363 . S
C720 H736 0.931 . S
C721 C720 1.370 . S
C721 C725 1.408 . S
C722 C720 1.363 . S
C722 C723 1.370 . S
C722 C726 1.524 . S
C723 C715 1.503 . S
C723 C722 1.370 . S
C723 C724 1.403 . S
C724 C723 1.403 . S
C724 C725 1.404 . S
C724 C727 1.539 . S
C725 C721 1.408 . S
C725 C724 1.404 . S
C725 H737 0.930 . S
C726 C722 1.524 . S
C726 H738 0.956 . S
C726 H739 0.961 . S
C726 H740 0.961 . S
C727 C724 1.539 . S
C727 H741 0.958 . S
C727 H742 0.961 . S
C727 H743 0.960 . S
H728 C712 0.931 . S
H729 C717 0.929 . S
H730 C718 0.960 . S
H731 C718 0.962 . S
H732 C718 0.960 . S
H733 C719 0.961 . S
H734 C719 0.961 . S
H735 C719 0.961 . S
H736 C720 0.931 . S
H737 C725 0.930 . S
H738 C726 0.956 . S
H739 C726 0.961 . S
H740 C726 0.961 . S
H741 C727 0.958 . S
H742 C727 0.961 . S
H743 C727 0.960 . S
C744 C745 1.391 . S
C744 C746 1.394 . S
C744 H760 0.931 . S
C745 C744 1.391 . S
C745 C749 1.376 . S
C746 C744 1.394 . S
C746 C747 1.369 . S
C746 C750 1.531 . S
C747 C746 1.369 . S
C747 C748 1.410 . S
C747 C755 1.503 . S
C748 C747 1.410 . S
C748 C749 1.392 . S
C748 C751 1.511 . S
C749 C745 1.376 . S
C749 C748 1.392 . S
C749 H761 0.929 . S
C750 C746 1.531 . S
C750 H762 0.960 . S
C750 H763 0.962 . S
C750 H764 0.960 . S
C751 C748 1.511 . S
C751 H765 0.961 . S
C751 H766 0.961 . S
C751 H767 0.961 . S
C752 C753 1.370 . S
C752 C754 1.363 . S
C752 H768 0.931 . S
C753 C752 1.370 . S
C753 C757 1.408 . S
C754 C752 1.363 . S
C754 C755 1.370 . S
C754 C758 1.524 . S
C755 C747 1.503 . S
C755 C754 1.370 . S
C755 C756 1.403 . S
C756 C755 1.403 . S
C756 C757 1.404 . S
C756 C759 1.539 . S
C757 C753 1.408 . S
C757 C756 1.404 . S
C757 H769 0.930 . S
C758 C754 1.524 . S
C758 H770 0.956 . S
C758 H771 0.961 . S
C758 H772 0.961 . S
C759 C756 1.539 . S
C759 H773 0.958 . S
C759 H774 0.961 . S
C759 H775 0.960 . S
H760 C744 0.931 . S
H761 C749 0.929 . S
H762 C750 0.960 . S
H763 C750 0.962 . S
H764 C750 0.960 . S
H765 C751 0.961 . S
H766 C751 0.961 . S
H767 C751 0.961 . S
H768 C752 0.931 . S
H769 C757 0.930 . S
H770 C758 0.956 . S
H771 C758 0.961 . S
H772 C758 0.961 . S
H773 C759 0.958 . S
H774 C759 0.961 . S
H775 C759 0.960 . S
C776 C777 1.391 . S
C776 C778 1.394 . S
C776 H792 0.931 . S
C777 C776 1.391 . S
C777 C781 1.376 . S
C778 C776 1.394 . S
C778 C779 1.369 . S
C778 C782 1.531 . S
C779 C778 1.369 . S
C779 C780 1.410 . S
C779 C787 1.503 . S
C780 C779 1.410 . S
C780 C781 1.392 . S
C780 C783 1.511 . S
C781 C777 1.376 . S
C781 C780 1.392 . S
C781 H793 0.929 . S
C782 C778 1.531 . S
C782 H794 0.960 . S
C782 H795 0.962 . S
C782 H796 0.960 . S
C783 C780 1.511 . S
C783 H797 0.961 . S
C783 H798 0.961 . S
C783 H799 0.961 . S
C784 C785 1.370 . S
C784 C786 1.363 . S
C784 H800 0.931 . S
C785 C784 1.370 . S
C785 C789 1.408 . S
C786 C784 1.363 . S
C786 C787 1.370 . S
C786 C790 1.524 . S
C787 C779 1.503 . S
C787 C786 1.370 . S
C787 C788 1.403 . S
C788 C787 1.403 . S
C788 C789 1.404 . S
C788 C791 1.539 . S
C789 C785 1.408 . S
C789 C788 1.404 . S
C789 H801 0.930 . S
C790 C786 1.524 . S
C790 H802 0.956 . S
C790 H803 0.961 . S
C790 H804 0.961 . S
C791 C788 1.539 . S
C791 H805 0.958 . S
C791 H806 0.961 . S
C791 H807 0.960 . S
H792 C776 0.931 . S
H793 C781 0.929 . S
H794 C782 0.960 . S
H795 C782 0.962 . S
H796 C782 0.960 . S
H797 C783 0.961 . S
H798 C783 0.961 . S
H799 C783 0.961 . S
H800 C784 0.931 . S
H801 C789 0.930 . S
H802 C790 0.956 . S
H803 C790 0.961 . S
H804 C790 0.961 . S
H805 C791 0.958 . S
H806 C791 0.961 . S
H807 C791 0.960 . S
C808 C809 1.391 . S
C808 C810 1.394 . S
C808 H824 0.931 . S
C809 C808 1.391 . S
C809 C813 1.376 . S
C810 C808 1.394 . S
C810 C811 1.369 . S
C810 C814 1.531 . S
C811 C810 1.369 . S
C811 C812 1.410 . S
C811 C819 1.503 . S
C812 C811 1.410 . S
C812 C813 1.392 . S
C812 C815 1.511 . S
C813 C809 1.376 . S
C813 C812 1.392 . S
C813 H825 0.929 . S
C814 C810 1.531 . S
C814 H826 0.960 . S
C814 H827 0.962 . S
C814 H828 0.960 . S
C815 C812 1.511 . S
C815 H829 0.961 . S
C815 H830 0.961 . S
C815 H831 0.961 . S
C816 C817 1.370 . S
C816 C818 1.363 . S
C816 H832 0.931 . S
C817 C816 1.370 . S
C817 C821 1.408 . S
C818 C816 1.363 . S
C818 C819 1.370 . S
C818 C822 1.524 . S
C819 C811 1.503 . S
C819 C818 1.370 . S
C819 C820 1.403 . S
C820 C819 1.403 . S
C820 C821 1.404 . S
C820 C823 1.539 . S
C821 C817 1.408 . S
C821 C820 1.404 . S
C821 H833 0.930 . S
C822 C818 1.524 . S
C822 H834 0.956 . S
C822 H835 0.961 . S
C822 H836 0.961 . S
C823 C820 1.539 . S
C823 H837 0.958 . S
C823 H838 0.961 . S
C823 H839 0.960 . S
H824 C808 0.931 . S
H825 C813 0.929 . S
H826 C814 0.960 . S
H827 C814 0.962 . S
H828 C814 0.960 . S
H829 C815 0.961 . S
H830 C815 0.961 . S
H831 C815 0.961 . S
H832 C816 0.931 . S
H833 C821 0.930 . S
H834 C822 0.956 . S
H835 C822 0.961 . S
H836 C822 0.961 . S
H837 C823 0.958 . S
H838 C823 0.961 . S
H839 C823 0.960 . S
C840 C841 1.391 . S
C840 C842 1.394 . S
C840 H856 0.931 . S
C841 C840 1.391 . S
C841 C845 1.376 . S
C842 C840 1.394 . S
C842 C843 1.369 . S
C842 C846 1.531 . S
C843 C842 1.369 . S
C843 C844 1.410 . S
C843 C851 1.503 . S
C844 C843 1.410 . S
C844 C845 1.392 . S
C844 C847 1.511 1_455 S
C845 C841 1.376 . S
C845 C844 1.392 . S
C845 H857 0.929 1_455 S
C846 C842 1.531 . S
C846 H858 0.960 . S
C846 H859 0.962 . S
C846 H860 0.960 . S
C847 C844 1.511 1_655 S
C847 H861 0.961 . S
C847 H862 0.961 . S
C847 H863 0.954 1_655 S
C848 C849 1.370 . S
C848 C850 1.363 . S
C848 H864 0.931 . S
C849 C848 1.370 . S
C849 C853 1.408 . S
C850 C848 1.363 . S
C850 C851 1.370 . S
C850 C854 1.524 . S
C851 C843 1.503 . S
C851 C850 1.370 . S
C851 C852 1.403 . S
C852 C851 1.403 . S
C852 C853 1.404 . S
C852 C855 1.539 . S
C853 C849 1.408 . S
C853 C852 1.404 . S
C853 H865 0.930 . S
C854 C850 1.524 . S
C854 H866 0.956 . S
C854 H867 0.961 . S
C854 H868 0.961 . S
C855 C852 1.539 . S
C855 H869 0.958 . S
C855 H870 0.961 . S
C855 H871 0.960 . S
H856 C840 0.931 . S
H857 C845 0.929 1_655 S
H858 C846 0.960 . S
H859 C846 0.962 . S
H860 C846 0.960 . S
H861 C847 0.961 . S
H862 C847 0.961 . S
H863 C847 0.954 1_455 S
H864 C848 0.931 . S
H865 C853 0.930 . S
H866 C854 0.956 . S
H867 C854 0.961 . S
H868 C854 0.961 . S
H869 C855 0.958 . S
H870 C855 0.961 . S
H871 C855 0.960 . S
C872 C873 1.391 . S
C872 C874 1.394 . S
C872 H888 0.931 . S
C873 C872 1.391 . S
C873 C877 1.376 . S
C874 C872 1.394 . S
C874 C875 1.369 . S
C874 C878 1.531 . S
C875 C874 1.369 . S
C875 C876 1.410 . S
C875 C883 1.503 . S
C876 C875 1.410 . S
C876 C877 1.392 . S
C876 C879 1.511 1_545 S
C877 C873 1.376 . S
C877 C876 1.392 . S
C877 H889 0.929 1_545 S
C878 C874 1.531 . S
C878 H890 0.960 . S
C878 H891 0.962 . S
C878 H892 0.960 . S
C879 C876 1.511 1_565 S
C879 H893 0.961 . S
C879 H894 0.961 . S
C879 H895 0.961 1_565 S
C880 C881 1.370 . S
C880 C882 1.363 . S
C880 H896 0.931 . S
C881 C880 1.370 . S
C881 C885 1.408 . S
C882 C880 1.363 . S
C882 C883 1.370 . S
C882 C886 1.524 . S
C883 C875 1.503 . S
C883 C882 1.370 . S
C883 C884 1.403 . S
C884 C883 1.403 . S
C884 C885 1.404 . S
C884 C887 1.539 . S
C885 C881 1.408 . S
C885 C884 1.404 . S
C885 H897 0.930 . S
C886 C882 1.524 . S
C886 H898 0.956 . S
C886 H899 0.961 . S
C886 H900 0.961 . S
C887 C884 1.539 . S
C887 H901 0.958 . S
C887 H902 0.961 . S
C887 H903 0.960 . S
H888 C872 0.931 . S
H889 C877 0.929 1_565 S
H890 C878 0.960 . S
H891 C878 0.962 . S
H892 C878 0.960 . S
H893 C879 0.961 . S
H894 C879 0.961 . S
H895 C879 0.961 1_545 S
H896 C880 0.931 . S
H897 C885 0.930 . S
H898 C886 0.956 . S
H899 C886 0.961 . S
H900 C886 0.961 . S
H901 C887 0.958 . S
H902 C887 0.961 . S
H903 C887 0.960 . S
C904 C905 1.391 . S
C904 C906 1.394 . S
C904 H920 0.931 . S
C905 C904 1.391 . S
C905 C909 1.376 . S
C906 C904 1.394 . S
C906 C907 1.369 . S
C906 C910 1.531 . S
C907 C906 1.369 . S
C907 C908 1.410 . S
C907 C915 1.503 . S
C908 C907 1.410 . S
C908 C909 1.392 . S
C908 C911 1.511 . S
C909 C905 1.376 . S
C909 C908 1.392 . S
C909 H921 0.929 . S
C910 C906 1.531 . S
C910 H922 0.960 . S
C910 H923 0.962 . S
C910 H924 0.960 . S
C911 C908 1.511 . S
C911 H925 0.961 1_655 S
C911 H926 0.961 . S
C911 H927 0.961 . S
C912 C913 1.370 . S
C912 C914 1.363 . S
C912 H928 0.931 . S
C913 C912 1.370 . S
C913 C917 1.408 . S
C914 C912 1.363 . S
C914 C915 1.370 . S
C914 C918 1.524 . S
C915 C907 1.503 . S
C915 C914 1.370 . S
C915 C916 1.403 . S
C916 C915 1.403 . S
C916 C917 1.404 . S
C916 C919 1.539 . S
C917 C913 1.408 . S
C917 C916 1.404 . S
C917 H929 0.930 . S
C918 C914 1.524 . S
C918 H930 0.956 . S
C918 H931 0.961 1_655 S
C918 H932 0.961 . S
C919 C916 1.539 . S
C919 H933 0.958 . S
C919 H934 0.961 . S
C919 H935 0.960 . S
H920 C904 0.931 . S
H921 C909 0.929 . S
H922 C910 0.960 . S
H923 C910 0.962 . S
H924 C910 0.960 . S
H925 C911 0.961 1_455 S
H926 C911 0.961 . S
H927 C911 0.961 . S
H928 C912 0.931 . S
H929 C917 0.930 . S
H930 C918 0.956 . S
H931 C918 0.961 1_455 S
H932 C918 0.961 . S
H933 C919 0.958 . S
H934 C919 0.961 . S
H935 C919 0.960 . S
C936 C937 1.391 . S
C936 C938 1.394 . S
C936 H952 0.931 . S
C937 C936 1.391 . S
C937 C941 1.376 . S
C938 C936 1.394 . S
C938 C939 1.369 . S
C938 C942 1.531 . S
C939 C938 1.369 . S
C939 C940 1.410 . S
C939 C947 1.503 . S
C940 C939 1.410 . S
C940 C941 1.392 . S
C940 C943 1.511 . S
C941 C937 1.376 . S
C941 C940 1.392 . S
C941 H953 0.929 . S
C942 C938 1.531 . S
C942 H954 0.960 . S
C942 H955 0.962 . S
C942 H956 0.960 . S
C943 C940 1.511 . S
C943 H957 0.961 1_565 S
C943 H958 0.961 . S
C943 H959 0.961 . S
C944 C945 1.370 . S
C944 C946 1.363 . S
C944 H960 0.931 . S
C945 C944 1.370 . S
C945 C949 1.408 . S
C946 C944 1.363 . S
C946 C947 1.370 . S
C946 C950 1.524 . S
C947 C939 1.503 . S
C947 C946 1.370 . S
C947 C948 1.403 . S
C948 C947 1.403 . S
C948 C949 1.404 . S
C948 C951 1.539 . S
C949 C945 1.408 . S
C949 C948 1.404 . S
C949 H961 0.930 . S
C950 C946 1.524 . S
C950 H962 0.956 . S
C950 H963 0.961 . S
C950 H964 0.961 . S
C951 C948 1.539 . S
C951 H965 0.958 . S
C951 H966 0.961 . S
C951 H967 0.960 . S
H952 C936 0.931 . S
H953 C941 0.929 . S
H954 C942 0.960 . S
H955 C942 0.962 . S
H956 C942 0.960 . S
H957 C943 0.961 1_545 S
H958 C943 0.961 . S
H959 C943 0.961 . S
H960 C944 0.931 . S
H961 C949 0.930 . S
H962 C950 0.956 . S
H963 C950 0.961 . S
H964 C950 0.961 . S
H965 C951 0.958 . S
H966 C951 0.961 . S
H967 C951 0.960 . S
C968 C969 1.391 . S
C968 C970 1.394 . S
C968 H984 0.931 . S
C969 C968 1.391 . S
C969 C973 1.376 . S
C970 C968 1.394 . S
C970 C971 1.369 . S
C970 C974 1.531 . S
C971 C970 1.369 . S
C971 C972 1.410 . S
C971 C979 1.503 . S
C972 C971 1.410 . S
C972 C973 1.392 . S
C972 C975 1.511 . S
C973 C969 1.376 . S
C973 C972 1.392 . S
C973 H985 0.929 . S
C974 C970 1.531 . S
C974 H986 0.960 . S
C974 H987 0.962 . S
C974 H988 0.960 . S
C975 C972 1.511 . S
C975 H989 0.961 . S
C975 H990 0.961 . S
C975 H991 0.961 . S
C976 C977 1.370 . S
C976 C978 1.363 . S
C976 H992 0.931 . S
C977 C976 1.370 . S
C977 C981 1.408 . S
C978 C976 1.363 . S
C978 C979 1.370 . S
C978 C982 1.524 . S
C979 C971 1.503 . S
C979 C978 1.370 . S
C979 C980 1.403 . S
C980 C979 1.403 . S
C980 C981 1.404 . S
C980 C983 1.539 1_565 S
C981 C977 1.408 . S
C981 C980 1.404 . S
C981 H993 0.930 . S
C982 C978 1.524 . S
C982 H994 0.956 . S
C982 H995 0.961 . S
C982 H996 0.961 . S
C983 C980 1.539 1_545 S
C983 H997 0.958 . S
C983 H998 0.961 . S
C983 H999 0.960 . S
H984 C968 0.931 . S
H985 C973 0.929 . S
H986 C974 0.960 . S
H987 C974 0.962 . S
H988 C974 0.960 . S
H989 C975 0.961 . S
H990 C975 0.961 . S
H991 C975 0.961 . S
H992 C976 0.931 . S
H993 C981 0.930 . S
H994 C982 0.956 . S
H995 C982 0.961 . S
H996 C982 0.961 . S
H997 C983 0.958 . S
H998 C983 0.961 . S
H999 C983 0.960 . S
C1000 C1001 1.391 . S
C1000 C1002 1.394 . S
C1000 H1016 0.931 . S
C1001 C1000 1.391 . S
C1001 C1005 1.376 . S
C1002 C1000 1.394 . S
C1002 C1003 1.369 . S
C1002 C1006 1.531 . S
C1003 C1002 1.369 . S
C1003 C1004 1.410 . S
C1003 C1011 1.503 . S
C1004 C1003 1.410 . S
C1004 C1005 1.392 . S
C1004 C1007 1.511 1_455 S
C1005 C1001 1.376 . S
C1005 C1004 1.392 . S
C1005 H1017 0.929 1_455 S
C1006 C1002 1.531 . S
C1006 H1018 0.960 . S
C1006 H1019 0.962 . S
C1006 H1020 0.960 . S
C1007 C1004 1.511 1_655 S
C1007 H1021 0.961 . S
C1007 H1022 0.961 1_655 S
C1007 H1023 0.961 . S
C1008 C1009 1.370 . S
C1008 C1010 1.363 . S
C1008 H1024 0.931 . S
C1009 C1008 1.370 . S
C1009 C1013 1.408 . S
C1010 C1008 1.363 . S
C1010 C1011 1.370 . S
C1010 C1014 1.524 . S
C1011 C1003 1.503 . S
C1011 C1010 1.370 . S
C1011 C1012 1.403 . S
C1012 C1011 1.403 . S
C1012 C1013 1.404 . S
C1012 C1015 1.539 . S
C1013 C1009 1.408 . S
C1013 C1012 1.404 . S
C1013 H1025 0.930 . S
C1014 C1010 1.524 . S
C1014 H1026 0.956 . S
C1014 H1027 0.961 . S
C1014 H1028 0.961 . S
C1015 C1012 1.539 . S
C1015 H1029 0.958 . S
C1015 H1030 0.961 . S
C1015 H1031 0.960 . S
H1016 C1000 0.931 . S
H1017 C1005 0.929 1_655 S
H1018 C1006 0.960 . S
H1019 C1006 0.962 . S
H1020 C1006 0.960 . S
H1021 C1007 0.961 . S
H1022 C1007 0.961 1_455 S
H1023 C1007 0.961 . S
H1024 C1008 0.931 . S
H1025 C1013 0.930 . S
H1026 C1014 0.956 . S
H1027 C1014 0.961 . S
H1028 C1014 0.961 . S
H1029 C1015 0.958 . S
H1030 C1015 0.961 . S
H1031 C1015 0.960 . S
C1032 C1033 1.391 . S
C1032 C1034 1.394 . S
C1032 H1048 0.931 . S
C1033 C1032 1.391 . S
C1033 C1037 1.376 . S
C1034 C1032 1.394 . S
C1034 C1035 1.369 . S
C1034 C1038 1.531 . S
C1035 C1034 1.369 . S
C1035 C1036 1.410 . S
C1035 C1043 1.503 . S
C1036 C1035 1.410 . S
C1036 C1037 1.392 . S
C1036 C1039 1.511 . S
C1037 C1033 1.376 . S
C1037 C1036 1.392 . S
C1037 H1049 0.929 . S
C1038 C1034 1.531 . S
C1038 H1050 0.960 . S
C1038 H1051 0.962 . S
C1038 H1052 0.960 . S
C1039 C1036 1.511 . S
C1039 H1053 0.961 . S
C1039 H1054 0.961 . S
C1039 H1055 0.961 . S
C1040 C1041 1.370 . S
C1040 C1042 1.363 . S
C1040 H1056 0.931 . S
C1041 C1040 1.370 . S
C1041 C1045 1.408 . S
C1042 C1040 1.363 . S
C1042 C1043 1.370 . S
C1042 C1046 1.524 . S
C1043 C1035 1.503 . S
C1043 C1042 1.370 . S
C1043 C1044 1.403 . S
C1044 C1043 1.403 . S
C1044 C1045 1.404 . S
C1044 C1047 1.539 . S
C1045 C1041 1.408 . S
C1045 C1044 1.404 . S
C1045 H1057 0.930 . S
C1046 C1042 1.524 . S
C1046 H1058 0.956 1_545 S
C1046 H1059 0.961 . S
C1046 H1060 0.961 1_545 S
C1047 C1044 1.539 . S
C1047 H1061 0.958 . S
C1047 H1062 0.961 . S
C1047 H1063 0.960 . S
H1048 C1032 0.931 . S
H1049 C1037 0.929 . S
H1050 C1038 0.960 . S
H1051 C1038 0.962 . S
H1052 C1038 0.960 . S
H1053 C1039 0.961 . S
H1054 C1039 0.961 . S
H1055 C1039 0.961 . S
H1056 C1040 0.931 . S
H1057 C1045 0.930 . S
H1058 C1046 0.956 1_565 S
H1059 C1046 0.961 . S
H1060 C1046 0.961 1_565 S
H1061 C1047 0.958 . S
H1062 C1047 0.961 . S
H1063 C1047 0.960 . S
C1064 C1065 1.391 . S
C1064 C1066 1.394 . S
C1064 H1080 0.931 . S
C1065 C1064 1.391 . S
C1065 C1069 1.376 . S
C1066 C1064 1.394 . S
C1066 C1067 1.369 . S
C1066 C1070 1.531 . S
C1067 C1066 1.369 . S
C1067 C1068 1.410 . S
C1067 C1075 1.503 . S
C1068 C1067 1.410 . S
C1068 C1069 1.392 . S
C1068 C1071 1.511 . S
C1069 C1065 1.376 . S
C1069 C1068 1.392 . S
C1069 H1081 0.929 . S
C1070 C1066 1.531 . S
C1070 H1082 0.960 . S
C1070 H1083 0.962 . S
C1070 H1084 0.960 . S
C1071 C1068 1.511 . S
C1071 H1085 0.961 . S
C1071 H1086 0.961 . S
C1071 H1087 0.961 . S
C1072 C1073 1.370 . S
C1072 C1074 1.363 . S
C1072 H1088 0.931 . S
C1073 C1072 1.370 . S
C1073 C1077 1.408 . S
C1074 C1072 1.363 . S
C1074 C1075 1.370 . S
C1074 C1078 1.524 . S
C1075 C1067 1.503 . S
C1075 C1074 1.370 . S
C1075 C1076 1.403 . S
C1076 C1075 1.403 . S
C1076 C1077 1.404 . S
C1076 C1079 1.539 . S
C1077 C1073 1.408 . S
C1077 C1076 1.404 . S
C1077 H1089 0.930 . S
C1078 C1074 1.524 . S
C1078 H1090 0.956 . S
C1078 H1091 0.961 1_655 S
C1078 H1092 0.961 1_655 S
C1079 C1076 1.539 . S
C1079 H1093 0.958 . S
C1079 H1094 0.961 . S
C1079 H1095 0.960 . S
H1080 C1064 0.931 . S
H1081 C1069 0.929 . S
H1082 C1070 0.960 . S
H1083 C1070 0.962 . S
H1084 C1070 0.960 . S
H1085 C1071 0.961 . S
H1086 C1071 0.961 . S
H1087 C1071 0.961 . S
H1088 C1072 0.931 . S
H1089 C1077 0.930 . S
H1090 C1078 0.956 . S
H1091 C1078 0.961 1_455 S
H1092 C1078 0.961 1_455 S
H1093 C1079 0.958 . S
H1094 C1079 0.961 . S
H1095 C1079 0.960 . S
C1096 C1097 1.391 . S
C1096 C1098 1.394 . S
C1096 H1112 0.931 . S
C1097 C1096 1.391 . S
C1097 C1101 1.376 . S
C1098 C1096 1.394 . S
C1098 C1099 1.369 . S
C1098 C1102 1.531 . S
C1099 C1098 1.369 . S
C1099 C1100 1.410 . S
C1099 C1107 1.503 . S
C1100 C1099 1.410 . S
C1100 C1101 1.392 . S
C1100 C1103 1.511 . S
C1101 C1097 1.376 . S
C1101 C1100 1.392 . S
C1101 H1113 0.929 . S
C1102 C1098 1.531 . S
C1102 H1114 0.960 . S
C1102 H1115 0.962 . S
C1102 H1116 0.960 . S
C1103 C1100 1.511 . S
C1103 H1117 0.961 . S
C1103 H1118 0.961 . S
C1103 H1119 0.961 . S
C1104 C1105 1.370 . S
C1104 C1106 1.363 . S
C1104 H1120 0.931 . S
C1105 C1104 1.370 . S
C1105 C1109 1.408 . S
C1106 C1104 1.363 . S
C1106 C1107 1.370 . S
C1106 C1110 1.524 . S
C1107 C1099 1.503 . S
C1107 C1106 1.370 . S
C1107 C1108 1.403 . S
C1108 C1107 1.403 . S
C1108 C1109 1.404 . S
C1108 C1111 1.539 . S
C1109 C1105 1.408 . S
C1109 C1108 1.404 . S
C1109 H1121 0.930 . S
C1110 C1106 1.524 . S
C1110 H1122 0.956 . S
C1110 H1123 0.961 . S
C1110 H1124 0.961 . S
C1111 C1108 1.539 . S
C1111 H1125 0.958 . S
C1111 H1126 0.961 . S
C1111 H1127 0.960 . S
H1112 C1096 0.931 . S
H1113 C1101 0.929 . S
H1114 C1102 0.960 . S
H1115 C1102 0.962 . S
H1116 C1102 0.960 . S
H1117 C1103 0.961 . S
H1118 C1103 0.961 . S
H1119 C1103 0.961 . S
H1120 C1104 0.931 . S
H1121 C1109 0.930 . S
H1122 C1110 0.956 . S
H1123 C1110 0.961 . S
H1124 C1110 0.961 . S
H1125 C1111 0.958 . S
H1126 C1111 0.961 . S
H1127 C1111 0.960 . S
C1128 C1129 1.391 . S
C1128 C1130 1.394 . S
C1128 H1144 0.931 . S
C1129 C1128 1.391 . S
C1129 C1133 1.376 . S
C1130 C1128 1.394 . S
C1130 C1131 1.369 . S
C1130 C1134 1.531 . S
C1131 C1130 1.369 . S
C1131 C1132 1.410 . S
C1131 C1139 1.503 . S
C1132 C1131 1.410 . S
C1132 C1133 1.392 . S
C1132 C1135 1.511 . S
C1133 C1129 1.376 . S
C1133 C1132 1.392 . S
C1133 H1145 0.929 . S
C1134 C1130 1.531 . S
C1134 H1146 0.960 . S
C1134 H1147 0.962 . S
C1134 H1148 0.960 . S
C1135 C1132 1.511 . S
C1135 H1149 0.961 . S
C1135 H1150 0.961 . S
C1135 H1151 0.961 . S
C1136 C1137 1.370 . S
C1136 C1138 1.363 . S
C1136 H1152 0.931 . S
C1137 C1136 1.370 . S
C1137 C1141 1.408 . S
C1138 C1136 1.363 . S
C1138 C1139 1.370 . S
C1138 C1142 1.524 . S
C1139 C1131 1.503 . S
C1139 C1138 1.370 . S
C1139 C1140 1.403 . S
C1140 C1139 1.403 . S
C1140 C1141 1.404 . S
C1140 C1143 1.539 . S
C1141 C1137 1.408 . S
C1141 C1140 1.404 . S
C1141 H1153 0.930 . S
C1142 C1138 1.524 . S
C1142 H1154 0.956 . S
C1142 H1155 0.961 . S
C1142 H1156 0.961 . S
C1143 C1140 1.539 . S
C1143 H1157 0.958 . S
C1143 H1158 0.961 . S
C1143 H1159 0.960 . S
H1144 C1128 0.931 . S
H1145 C1133 0.929 . S
H1146 C1134 0.960 . S
H1147 C1134 0.962 . S
H1148 C1134 0.960 . S
H1149 C1135 0.961 . S
H1150 C1135 0.961 . S
H1151 C1135 0.961 . S
H1152 C1136 0.931 . S
H1153 C1141 0.930 . S
H1154 C1142 0.956 . S
H1155 C1142 0.961 . S
H1156 C1142 0.961 . S
H1157 C1143 0.958 . S
H1158 C1143 0.961 . S
H1159 C1143 0.960 . S
C1160 C1161 1.391 . S
C1160 C1162 1.394 . S
C1160 H1176 0.931 . S
C1161 C1160 1.391 . S
C1161 C1165 1.376 . S
C1162 C1160 1.394 . S
C1162 C1163 1.369 . S
C1162 C1166 1.531 . S
C1163 C1162 1.369 . S
C1163 C1164 1.410 . S
C1163 C1171 1.503 . S
C1164 C1163 1.410 . S
C1164 C1165 1.392 . S
C1164 C1167 1.511 . S
C1165 C1161 1.376 . S
C1165 C1164 1.392 . S
C1165 H1177 0.929 . S
C1166 C1162 1.531 . S
C1166 H1178 0.960 . S
C1166 H1179 0.962 . S
C1166 H1180 0.960 . S
C1167 C1164 1.511 . S
C1167 H1181 0.961 . S
C1167 H1182 0.961 . S
C1167 H1183 0.961 . S
C1168 C1169 1.370 . S
C1168 C1170 1.363 . S
C1168 H1184 0.931 . S
C1169 C1168 1.370 . S
C1169 C1173 1.408 . S
C1170 C1168 1.363 . S
C1170 C1171 1.370 . S
C1170 C1174 1.524 . S
C1171 C1163 1.503 . S
C1171 C1170 1.370 . S
C1171 C1172 1.403 . S
C1172 C1171 1.403 . S
C1172 C1173 1.404 . S
C1172 C1175 1.539 . S
C1173 C1169 1.408 . S
C1173 C1172 1.404 . S
C1173 H1185 0.930 . S
C1174 C1170 1.524 . S
C1174 H1186 0.956 . S
C1174 H1187 0.961 . S
C1174 H1188 0.961 . S
C1175 C1172 1.539 . S
C1175 H1189 0.958 . S
C1175 H1190 0.961 . S
C1175 H1191 0.960 . S
H1176 C1160 0.931 . S
H1177 C1165 0.929 . S
H1178 C1166 0.960 . S
H1179 C1166 0.962 . S
H1180 C1166 0.960 . S
H1181 C1167 0.961 . S
H1182 C1167 0.961 . S
H1183 C1167 0.961 . S
H1184 C1168 0.931 . S
H1185 C1173 0.930 . S
H1186 C1174 0.956 . S
H1187 C1174 0.961 . S
H1188 C1174 0.961 . S
H1189 C1175 0.958 . S
H1190 C1175 0.961 . S
H1191 C1175 0.960 . S
C1192 C1193 1.391 . S
C1192 C1194 1.394 . S
C1192 H1208 0.931 . S
C1193 C1192 1.391 . S
C1193 C1197 1.376 . S
C1194 C1192 1.394 . S
C1194 C1195 1.369 . S
C1194 C1198 1.531 . S
C1195 C1194 1.369 . S
C1195 C1196 1.410 . S
C1195 C1203 1.503 . S
C1196 C1195 1.410 . S
C1196 C1197 1.392 . S
C1196 C1199 1.511 . S
C1197 C1193 1.376 . S
C1197 C1196 1.392 . S
C1197 H1209 0.929 . S
C1198 C1194 1.531 . S
C1198 H1210 0.960 . S
C1198 H1211 0.962 . S
C1198 H1212 0.960 . S
C1199 C1196 1.511 . S
C1199 H1213 0.961 . S
C1199 H1214 0.961 . S
C1199 H1215 0.961 . S
C1200 C1201 1.370 . S
C1200 C1202 1.363 . S
C1200 H1216 0.931 . S
C1201 C1200 1.370 . S
C1201 C1205 1.408 . S
C1202 C1200 1.363 . S
C1202 C1203 1.370 . S
C1202 C1206 1.524 . S
C1203 C1195 1.503 . S
C1203 C1202 1.370 . S
C1203 C1204 1.403 . S
C1204 C1203 1.403 . S
C1204 C1205 1.404 . S
C1204 C1207 1.539 . S
C1205 C1201 1.408 . S
C1205 C1204 1.404 . S
C1205 H1217 0.930 . S
C1206 C1202 1.524 . S
C1206 H1218 0.956 . S
C1206 H1219 0.961 . S
C1206 H1220 0.961 . S
C1207 C1204 1.539 . S
C1207 H1221 0.958 . S
C1207 H1222 0.961 . S
C1207 H1223 0.960 . S
H1208 C1192 0.931 . S
H1209 C1197 0.929 . S
H1210 C1198 0.960 . S
H1211 C1198 0.962 . S
H1212 C1198 0.960 . S
H1213 C1199 0.961 . S
H1214 C1199 0.961 . S
H1215 C1199 0.961 . S
H1216 C1200 0.931 . S
H1217 C1205 0.930 . S
H1218 C1206 0.956 . S
H1219 C1206 0.961 . S
H1220 C1206 0.961 . S
H1221 C1207 0.958 . S
H1222 C1207 0.961 . S
H1223 C1207 0.960 . S
C1224 C1225 1.391 . S
C1224 C1226 1.394 . S
C1224 H1240 0.931 . S
C1225 C1224 1.391 . S
C1225 C1229 1.376 . S
C1226 C1224 1.394 . S
C1226 C1227 1.369 . S
C1226 C1230 1.531 . S
C1227 C1226 1.369 . S
C1227 C1228 1.410 . S
C1227 C1235 1.503 . S
C1228 C1227 1.410 . S
C1228 C1229 1.392 . S
C1228 C1231 1.511 . S
C1229 C1225 1.376 . S
C1229 C1228 1.392 . S
C1229 H1241 0.929 . S
C1230 C1226 1.531 . S
C1230 H1242 0.960 . S
C1230 H1243 0.962 . S
C1230 H1244 0.960 . S
C1231 C1228 1.511 . S
C1231 H1245 0.961 . S
C1231 H1246 0.961 . S
C1231 H1247 0.961 . S
C1232 C1233 1.370 . S
C1232 C1234 1.363 . S
C1232 H1248 0.931 . S
C1233 C1232 1.370 . S
C1233 C1237 1.408 . S
C1234 C1232 1.363 . S
C1234 C1235 1.370 . S
C1234 C1238 1.524 . S
C1235 C1227 1.503 . S
C1235 C1234 1.370 . S
C1235 C1236 1.403 . S
C1236 C1235 1.403 . S
C1236 C1237 1.404 . S
C1236 C1239 1.539 . S
C1237 C1233 1.408 . S
C1237 C1236 1.404 . S
C1237 H1249 0.930 . S
C1238 C1234 1.524 . S
C1238 H1250 0.956 . S
C1238 H1251 0.961 . S
C1238 H1252 0.961 . S
C1239 C1236 1.539 . S
C1239 H1253 0.958 . S
C1239 H1254 0.961 . S
C1239 H1255 0.960 . S
H1240 C1224 0.931 . S
H1241 C1229 0.929 . S
H1242 C1230 0.960 . S
H1243 C1230 0.962 . S
H1244 C1230 0.960 . S
H1245 C1231 0.961 . S
H1246 C1231 0.961 . S
H1247 C1231 0.961 . S
H1248 C1232 0.931 . S
H1249 C1237 0.930 . S
H1250 C1238 0.956 . S
H1251 C1238 0.961 . S
H1252 C1238 0.961 . S
H1253 C1239 0.958 . S
H1254 C1239 0.961 . S
H1255 C1239 0.960 . S
C1256 C1257 1.391 . S
C1256 C1258 1.394 . S
C1256 H1272 0.931 . S
C1257 C1256 1.391 . S
C1257 C1261 1.376 . S
C1258 C1256 1.394 . S
C1258 C1259 1.369 . S
C1258 C1262 1.531 . S
C1259 C1258 1.369 . S
C1259 C1260 1.410 . S
C1259 C1267 1.503 . S
C1260 C1259 1.410 . S
C1260 C1261 1.392 . S
C1260 C1263 1.511 . S
C1261 C1257 1.376 . S
C1261 C1260 1.392 . S
C1261 H1273 0.929 . S
C1262 C1258 1.531 . S
C1262 H1274 0.960 . S
C1262 H1275 0.962 . S
C1262 H1276 0.960 . S
C1263 C1260 1.511 . S
C1263 H1277 0.961 . S
C1263 H1278 0.961 . S
C1263 H1279 0.961 . S
C1264 C1265 1.370 . S
C1264 C1266 1.363 . S
C1264 H1280 0.931 . S
C1265 C1264 1.370 . S
C1265 C1269 1.408 . S
C1266 C1264 1.363 . S
C1266 C1267 1.370 . S
C1266 C1270 1.524 . S
C1267 C1259 1.503 . S
C1267 C1266 1.370 . S
C1267 C1268 1.403 . S
C1268 C1267 1.403 . S
C1268 C1269 1.404 . S
C1268 C1271 1.539 . S
C1269 C1265 1.408 . S
C1269 C1268 1.404 . S
C1269 H1281 0.930 . S
C1270 C1266 1.524 . S
C1270 H1282 0.956 . S
C1270 H1283 0.961 . S
C1270 H1284 0.961 . S
C1271 C1268 1.539 . S
C1271 H1285 0.958 . S
C1271 H1286 0.961 . S
C1271 H1287 0.960 . S
H1272 C1256 0.931 . S
H1273 C1261 0.929 . S
H1274 C1262 0.960 . S
H1275 C1262 0.962 . S
H1276 C1262 0.960 . S
H1277 C1263 0.961 . S
H1278 C1263 0.961 . S
H1279 C1263 0.961 . S
H1280 C1264 0.931 . S
H1281 C1269 0.930 . S
H1282 C1270 0.956 . S
H1283 C1270 0.961 . S
H1284 C1270 0.961 . S
H1285 C1271 0.958 . S
H1286 C1271 0.961 . S
H1287 C1271 0.960 . S
C1288 C1289 1.391 . S
C1288 C1290 1.394 . S
C1288 H1304 0.931 . S
C1289 C1288 1.391 . S
C1289 C1293 1.376 . S
C1290 C1288 1.394 . S
C1290 C1291 1.369 . S
C1290 C1294 1.531 . S
C1291 C1290 1.369 . S
C1291 C1292 1.410 . S
C1291 C1299 1.503 . S
C1292 C1291 1.410 . S
C1292 C1293 1.392 . S
C1292 C1295 1.511 . S
C1293 C1289 1.376 . S
C1293 C1292 1.392 . S
C1293 H1305 0.929 . S
C1294 C1290 1.531 . S
C1294 H1306 0.960 . S
C1294 H1307 0.962 . S
C1294 H1308 0.960 . S
C1295 C1292 1.511 . S
C1295 H1309 0.961 . S
C1295 H1310 0.961 . S
C1295 H1311 0.961 . S
C1296 C1297 1.370 . S
C1296 C1298 1.363 . S
C1296 H1312 0.931 . S
C1297 C1296 1.370 . S
C1297 C1301 1.408 . S
C1298 C1296 1.363 . S
C1298 C1299 1.370 . S
C1298 C1302 1.524 . S
C1299 C1291 1.503 . S
C1299 C1298 1.370 . S
C1299 C1300 1.403 . S
C1300 C1299 1.403 . S
C1300 C1301 1.404 . S
C1300 C1303 1.539 . S
C1301 C1297 1.408 . S
C1301 C1300 1.404 . S
C1301 H1313 0.930 . S
C1302 C1298 1.524 . S
C1302 H1314 0.956 . S
C1302 H1315 0.961 . S
C1302 H1316 0.961 . S
C1303 C1300 1.539 . S
C1303 H1317 0.958 . S
C1303 H1318 0.961 . S
C1303 H1319 0.960 . S
H1304 C1288 0.931 . S
H1305 C1293 0.929 . S
H1306 C1294 0.960 . S
H1307 C1294 0.962 . S
H1308 C1294 0.960 . S
H1309 C1295 0.961 . S
H1310 C1295 0.961 . S
H1311 C1295 0.961 . S
H1312 C1296 0.931 . S
H1313 C1301 0.930 . S
H1314 C1302 0.956 . S
H1315 C1302 0.961 . S
H1316 C1302 0.961 . S
H1317 C1303 0.958 . S
H1318 C1303 0.961 . S
H1319 C1303 0.960 . S
C1320 C1321 1.391 . S
C1320 C1322 1.394 . S
C1320 H1336 0.931 . S
C1321 C1320 1.391 . S
C1321 C1325 1.376 . S
C1322 C1320 1.394 . S
C1322 C1323 1.369 . S
C1322 C1326 1.531 . S
C1323 C1322 1.369 . S
C1323 C1324 1.410 . S
C1323 C1331 1.503 . S
C1324 C1323 1.410 . S
C1324 C1325 1.392 . S
C1324 C1327 1.511 . S
C1325 C1321 1.376 . S
C1325 C1324 1.392 . S
C1325 H1337 0.929 . S
C1326 C1322 1.531 . S
C1326 H1338 0.960 . S
C1326 H1339 0.962 . S
C1326 H1340 0.960 . S
C1327 C1324 1.511 . S
C1327 H1341 0.961 . S
C1327 H1342 0.961 . S
C1327 H1343 0.961 . S
C1328 C1329 1.370 . S
C1328 C1330 1.363 . S
C1328 H1344 0.931 . S
C1329 C1328 1.370 . S
C1329 C1333 1.408 . S
C1330 C1328 1.363 . S
C1330 C1331 1.370 . S
C1330 C1334 1.524 . S
C1331 C1323 1.503 . S
C1331 C1330 1.370 . S
C1331 C1332 1.403 . S
C1332 C1331 1.403 . S
C1332 C1333 1.404 . S
C1332 C1335 1.539 . S
C1333 C1329 1.408 . S
C1333 C1332 1.404 . S
C1333 H1345 0.930 . S
C1334 C1330 1.524 . S
C1334 H1346 0.956 . S
C1334 H1347 0.961 . S
C1334 H1348 0.961 . S
C1335 C1332 1.539 . S
C1335 H1349 0.958 . S
C1335 H1350 0.961 . S
C1335 H1351 0.960 . S
H1336 C1320 0.931 . S
H1337 C1325 0.929 . S
H1338 C1326 0.960 . S
H1339 C1326 0.962 . S
H1340 C1326 0.960 . S
H1341 C1327 0.961 . S
H1342 C1327 0.961 . S
H1343 C1327 0.961 . S
H1344 C1328 0.931 . S
H1345 C1333 0.930 . S
H1346 C1334 0.956 . S
H1347 C1334 0.961 . S
H1348 C1334 0.961 . S
H1349 C1335 0.958 . S
H1350 C1335 0.961 . S
H1351 C1335 0.960 . S
C585 C45 1.610 . S
C593 C135 1.596 . S
C617 C30 1.638 . S
C625 C195 1.574 . S
C649 C39 1.631 . S
C657 C255 1.651 . S
C689 C315 1.637 . S
C681 C34 1.616 . S
C713 C97 1.638 . S
C721 C375 1.575 . S
C753 C435 1.575 . S
C745 C82 1.638 . S
C785 C495 1.646 . S
C777 C91 1.629 . S
C817 C555 1.648 . S
C809 C86 1.605 . S
C849 C484 1.558 . S
C841 C26 1.467 . S
C881 C544 1.558 . S
C873 C36 1.472 . S
C913 C345 1.486 . S
C905 C32 1.483 . S
C945 C405 1.487 . S
C937 C42 1.477 . S
C969 C18 1.542 . S
C977 C424 1.613 . S
C1009 C465 1.611 . S
C1001 C50 1.574 . S
C1033 C4 1.572 . S
C1041 C525 1.628 . S
C1065 C48 1.598 . S
C1073 C364 1.594 . S
C1105 C244 1.566 . S
C1097 C78 1.455 . S
C1129 C88 1.505 . S
C1137 C304 1.555 . S
C1169 C105 1.491 . S
C1161 C84 1.456 . S
C1201 C165 1.491 . S
C1193 C94 1.456 . S
C1233 C184 1.613 . S
C1225 C70 1.551 . S
C1265 C225 1.615 . S
C1257 C102 1.599 . S
C1289 C56 1.566 . S
C1297 C285 1.613 . S
C1321 C100 1.591 . S
C1329 C124 1.589 . S
