# Generated by pormake.
# Topology ctn, (3,4)-cn, num edge types: 1
# Building blocks:
#     Node 0, Type 0, BuildingBlock: PAMTOO_clean_linker_0, # of connection points: 3
#     Node 1, Type 0, BuildingBlock: PAMTOO_clean_linker_0, # of connection points: 3
#     Node 2, Type 0, BuildingBlock: PAMTOO_clean_linker_0, # of connection points: 3
#     Node 3, Type 0, BuildingBlock: PAMTOO_clean_linker_0, # of connection points: 3
#     Node 4, Type 0, BuildingBlock: PAMTOO_clean_linker_0, # of connection points: 3
#     Node 5, Type 0, BuildingBlock: PAMTOO_clean_linker_0, # of connection points: 3
#     Node 6, Type 0, BuildingBlock: PAMTOO_clean_linker_0, # of connection points: 3
#     Node 7, Type 0, BuildingBlock: PAMTOO_clean_linker_0, # of connection points: 3
#     Node 8, Type 0, BuildingBlock: PAMTOO_clean_linker_0, # of connection points: 3
#     Node 9, Type 0, BuildingBlock: PAMTOO_clean_linker_0, # of connection points: 3
#     Node 10, Type 0, BuildingBlock: PAMTOO_clean_linker_0, # of connection points: 3
#     Node 11, Type 0, BuildingBlock: PAMTOO_clean_linker_0, # of connection points: 3
#     Node 12, Type 0, BuildingBlock: PAMTOO_clean_linker_0, # of connection points: 3
#     Node 13, Type 0, BuildingBlock: PAMTOO_clean_linker_0, # of connection points: 3
#     Node 14, Type 0, BuildingBlock: PAMTOO_clean_linker_0, # of connection points: 3
#     Node 15, Type 0, BuildingBlock: PAMTOO_clean_linker_0, # of connection points: 3
#     Node 16, Type 1, BuildingBlock: TATPOV_clean_sbu_0, # of connection points: 4
#     Node 17, Type 1, BuildingBlock: TATPOV_clean_sbu_0, # of connection points: 4
#     Node 18, Type 1, BuildingBlock: TATPOV_clean_sbu_0, # of connection points: 4
#     Node 19, Type 1, BuildingBlock: TATPOV_clean_sbu_0, # of connection points: 4
#     Node 20, Type 1, BuildingBlock: TATPOV_clean_sbu_0, # of connection points: 4
#     Node 21, Type 1, BuildingBlock: TATPOV_clean_sbu_0, # of connection points: 4
#     Node 22, Type 1, BuildingBlock: TATPOV_clean_sbu_0, # of connection points: 4
#     Node 23, Type 1, BuildingBlock: TATPOV_clean_sbu_0, # of connection points: 4
#     Node 24, Type 1, BuildingBlock: TATPOV_clean_sbu_0, # of connection points: 4
#     Node 25, Type 1, BuildingBlock: TATPOV_clean_sbu_0, # of connection points: 4
#     Node 26, Type 1, BuildingBlock: TATPOV_clean_sbu_0, # of connection points: 4
#     Node 27, Type 1, BuildingBlock: TATPOV_clean_sbu_0, # of connection points: 4
#     Edge 28, Type (0, 1), BuildingBlock: EZIPEK_clean_linker_0, # of connection points: 2
#     Edge 29, Type (0, 1), BuildingBlock: EZIPEK_clean_linker_0, # of connection points: 2
#     Edge 30, Type (0, 1), BuildingBlock: EZIPEK_clean_linker_0, # of connection points: 2
#     Edge 31, Type (0, 1), BuildingBlock: EZIPEK_clean_linker_0, # of connection points: 2
#     Edge 32, Type (0, 1), BuildingBlock: EZIPEK_clean_linker_0, # of connection points: 2
#     Edge 33, Type (0, 1), BuildingBlock: EZIPEK_clean_linker_0, # of connection points: 2
#     Edge 34, Type (0, 1), BuildingBlock: EZIPEK_clean_linker_0, # of connection points: 2
#     Edge 35, Type (0, 1), BuildingBlock: EZIPEK_clean_linker_0, # of connection points: 2
#     Edge 36, Type (0, 1), BuildingBlock: EZIPEK_clean_linker_0, # of connection points: 2
#     Edge 37, Type (0, 1), BuildingBlock: EZIPEK_clean_linker_0, # of connection points: 2
#     Edge 38, Type (0, 1), BuildingBlock: EZIPEK_clean_linker_0, # of connection points: 2
#     Edge 39, Type (0, 1), BuildingBlock: EZIPEK_clean_linker_0, # of connection points: 2
#     Edge 40, Type (0, 1), BuildingBlock: EZIPEK_clean_linker_0, # of connection points: 2
#     Edge 41, Type (0, 1), BuildingBlock: EZIPEK_clean_linker_0, # of connection points: 2
#     Edge 42, Type (0, 1), BuildingBlock: EZIPEK_clean_linker_0, # of connection points: 2
#     Edge 43, Type (0, 1), BuildingBlock: EZIPEK_clean_linker_0, # of connection points: 2
#     Edge 44, Type (0, 1), BuildingBlock: EZIPEK_clean_linker_0, # of connection points: 2
#     Edge 45, Type (0, 1), BuildingBlock: EZIPEK_clean_linker_0, # of connection points: 2
#     Edge 46, Type (0, 1), BuildingBlock: EZIPEK_clean_linker_0, # of connection points: 2
#     Edge 47, Type (0, 1), BuildingBlock: EZIPEK_clean_linker_0, # of connection points: 2
#     Edge 48, Type (0, 1), BuildingBlock: EZIPEK_clean_linker_0, # of connection points: 2
#     Edge 49, Type (0, 1), BuildingBlock: EZIPEK_clean_linker_0, # of connection points: 2
#     Edge 50, Type (0, 1), BuildingBlock: EZIPEK_clean_linker_0, # of connection points: 2
#     Edge 51, Type (0, 1), BuildingBlock: EZIPEK_clean_linker_0, # of connection points: 2
#     Edge 52, Type (0, 1), BuildingBlock: EZIPEK_clean_linker_0, # of connection points: 2
#     Edge 53, Type (0, 1), BuildingBlock: EZIPEK_clean_linker_0, # of connection points: 2
#     Edge 54, Type (0, 1), BuildingBlock: EZIPEK_clean_linker_0, # of connection points: 2
#     Edge 55, Type (0, 1), BuildingBlock: EZIPEK_clean_linker_0, # of connection points: 2
#     Edge 56, Type (0, 1), BuildingBlock: EZIPEK_clean_linker_0, # of connection points: 2
#     Edge 57, Type (0, 1), BuildingBlock: EZIPEK_clean_linker_0, # of connection points: 2
#     Edge 58, Type (0, 1), BuildingBlock: EZIPEK_clean_linker_0, # of connection points: 2
#     Edge 59, Type (0, 1), BuildingBlock: EZIPEK_clean_linker_0, # of connection points: 2
#     Edge 60, Type (0, 1), BuildingBlock: EZIPEK_clean_linker_0, # of connection points: 2
#     Edge 61, Type (0, 1), BuildingBlock: EZIPEK_clean_linker_0, # of connection points: 2
#     Edge 62, Type (0, 1), BuildingBlock: EZIPEK_clean_linker_0, # of connection points: 2
#     Edge 63, Type (0, 1), BuildingBlock: EZIPEK_clean_linker_0, # of connection points: 2
#     Edge 64, Type (0, 1), BuildingBlock: EZIPEK_clean_linker_0, # of connection points: 2
#     Edge 65, Type (0, 1), BuildingBlock: EZIPEK_clean_linker_0, # of connection points: 2
#     Edge 66, Type (0, 1), BuildingBlock: EZIPEK_clean_linker_0, # of connection points: 2
#     Edge 67, Type (0, 1), BuildingBlock: EZIPEK_clean_linker_0, # of connection points: 2
#     Edge 68, Type (0, 1), BuildingBlock: EZIPEK_clean_linker_0, # of connection points: 2
#     Edge 69, Type (0, 1), BuildingBlock: EZIPEK_clean_linker_0, # of connection points: 2
#     Edge 70, Type (0, 1), BuildingBlock: EZIPEK_clean_linker_0, # of connection points: 2
#     Edge 71, Type (0, 1), BuildingBlock: EZIPEK_clean_linker_0, # of connection points: 2
#     Edge 72, Type (0, 1), BuildingBlock: EZIPEK_clean_linker_0, # of connection points: 2
#     Edge 73, Type (0, 1), BuildingBlock: EZIPEK_clean_linker_0, # of connection points: 2
#     Edge 74, Type (0, 1), BuildingBlock: EZIPEK_clean_linker_0, # of connection points: 2
#     Edge 75, Type (0, 1), BuildingBlock: EZIPEK_clean_linker_0, # of connection points: 2
# Relax obj value: 0.073
# Max RMSD: 0.180
# Mean RMSD: 0.115
data_MOF--net-ctn--node1-TATPOV_clean_sbu_0--node2-PAMTOO_clean_linker_0--edge1-EZIPEK_clean_linker_0
_symmetry_space_group_name_H-M    P1
_symmetry_Int_Tables_number       1
_symmetry_cell_setting            triclinic
loop_
_symmetry_equiv_pos_as_xyz
'x, y, z'
_cell_length_a     38.695732
_cell_length_b     38.959881
_cell_length_c     39.569765
_cell_angle_alpha  85.947267
_cell_angle_beta   93.883081
_cell_angle_gamma 99.558138
loop_
_atom_site_label
_atom_site_type_symbol
_atom_site_fract_x
_atom_site_fract_y
_atom_site_fract_z
_atom_type_partial_charge
H0 H 0.97527 0.08681 0.0417 0.0
H1 H 0.01172 0.9942 0.08641 0.0
H2 H 0.0587 0.04748 0.99794 0.0
H3 H 0.04031 0.96808 1.00034 0.0
C4 C 0.05209 0.96369 0.02637 0.0
O5 O 0.05983 0.99457 0.0425 0.0
H6 H 0.03107 0.94567 0.03935 0.0
C7 C 0.99237 0.0674 0.04165 0.0
C8 C 0.0171 0.07028 0.01679 0.0
C9 C 0.9902 0.03999 0.06691 0.0
C10 C 0.01284 0.01523 0.06686 0.0
C11 C 0.03724 0.01771 0.04177 0.0
C12 C 0.03935 0.04525 0.01686 0.0
H13 H 0.29275 0.67452 0.30101 0.0
H14 H 0.19753 0.69807 0.24904 0.0
H15 H 0.29263 0.77235 0.24284 0.0
H16 H 0.18203 0.76001 0.19239 0.0
C17 C 0.2089 0.75341 0.19283 0.0
O18 O 0.22527 0.75995 0.22444 0.0
H19 H 0.20367 0.72505 0.1886 0.0
C20 C 0.27904 0.69201 0.28464 0.0
C21 C 0.29685 0.72468 0.2733 0.0
C22 C 0.24339 0.68217 0.27542 0.0
C23 C 0.22536 0.70529 0.25542 0.0
C24 C 0.24322 0.73741 0.24288 0.0
C25 C 0.2791 0.747 0.25157 0.0
H26 H 0.00108 0.51144 0.1426 0.0
H27 H 0.98403 0.47664 0.04101 0.0
H28 H 0.04781 0.42524 0.11458 0.0
H29 H 0.97456 0.39629 0.04821 0.0
C30 C 0.00297 0.39505 0.04715 0.0
O31 O 0.02301 0.42741 0.05135 0.0
H32 H 0.00828 0.37672 0.06894 0.0
C33 C 0.00555 0.49398 0.12377 0.0
C34 C 0.02617 0.46786 0.13265 0.0
C35 C 0.98994 0.49697 0.09084 0.0
C36 C 0.99576 0.4743 0.06654 0.0
C37 C 0.01675 0.4486 0.07507 0.0
C38 C 0.03179 0.44534 0.10808 0.0
H39 H 0.69449 0.84123 0.26561 0.0
H40 H 0.68255 0.73586 0.23552 0.0
H41 H 0.77902 0.80569 0.21968 0.0
H42 H 0.74199 0.77171 0.15944 0.0
C43 C 0.73567 0.74483 0.17138 0.0
O44 O 0.74273 0.74492 0.20607 0.0
H45 H 0.707 0.73731 0.16559 0.0
C46 C 0.70522 0.82093 0.25444 0.0
C47 C 0.73954 0.82785 0.24313 0.0
C48 C 0.6853 0.78747 0.25337 0.0
C49 C 0.69826 0.76145 0.23761 0.0
C50 C 0.73154 0.76864 0.22427 0.0
C51 C 0.75271 0.80107 0.22861 0.0
H52 H 0.13625 0.9723 0.52668 0.0
H53 H 0.03888 0.95938 0.46604 0.0
H54 H 0.12507 0.03661 0.43468 0.0
H55 H 0.06207 0.96852 0.39054 0.0
C56 C 0.05908 0.99648 0.38871 0.0
O57 O 0.05981 0.00939 0.42037 0.0
H58 H 0.0825 0.00907 0.37516 0.0
C59 C 0.12056 0.9797 0.50445 0.0
C60 C 0.13491 0.00622 0.48117 0.0
C61 C 0.08609 0.96245 0.4988 0.0
C62 C 0.06574 0.97223 0.47017 0.0
C63 C 0.07985 0.99896 0.44713 0.0
C64 C 0.11434 0.01589 0.45262 0.0
H65 H 0.19195 0.80243 0.79882 0.0
H66 H 0.21354 0.72349 0.73618 0.0
H67 H 0.26297 0.73184 0.83599 0.0
H68 H 0.22493 0.65738 0.77136 0.0
C69 C 0.24998 0.66634 0.78594 0.0
O70 O 0.26084 0.70148 0.77889 0.0
H71 H 0.24351 0.66122 0.81298 0.0
C72 C 0.20553 0.78083 0.79541 0.0
C73 C 0.22842 0.76964 0.82163 0.0
C74 C 0.19894 0.76325 0.76522 0.0
C75 C 0.21769 0.73647 0.75981 0.0
C76 C 0.2413 0.72585 0.78505 0.0
C77 C 0.2455 0.74132 0.81626 0.0
H78 H 0.91718 0.58652 0.54699 0.0
H79 H 0.95498 0.51716 0.48389 0.0
H80 H 0.02356 0.60894 0.51541 0.0
H81 H 0.02671 0.50965 0.51164 0.0
C82 C 0.04033 0.53009 0.49399 0.0
O83 O 0.01836 0.5529 0.48081 0.0
H84 H 0.06142 0.54386 0.51079 0.0
C85 C 0.9382 0.57966 0.53339 0.0
C86 C 0.97087 0.60168 0.53291 0.0
C87 C 0.93273 0.54874 0.51624 0.0
C88 C 0.95964 0.5404 0.49799 0.0
C89 C 0.99258 0.56155 0.49831 0.0
C90 C 0.99824 0.59218 0.51581 0.0
H91 H 0.78007 0.81182 0.90348 0.0
H92 H 0.87205 0.79087 0.85843 0.0
H93 H 0.81333 0.86651 0.8098 0.0
H94 H 0.8321 0.82291 0.76282 0.0
C95 C 0.85478 0.81322 0.77687 0.0
O96 O 0.86557 0.83273 0.8046 0.0
H97 H 0.84416 0.78578 0.78504 0.0
C98 C 0.79904 0.81777 0.8841 0.0
C99 C 0.79393 0.84221 0.85712 0.0
C100 C 0.82751 0.79944 0.88485 0.0
C101 C 0.85087 0.80586 0.85871 0.0
C102 C 0.84565 0.8299 0.83169 0.0
C103 C 0.8177 0.84857 0.83127 0.0
H104 H 0.28471 0.30789 0.3987 0.0
H105 H 0.3755 0.29034 0.35141 0.0
H106 H 0.31326 0.36235 0.30319 0.0
H107 H 0.33537 0.32303 0.25476 0.0
C108 C 0.3572 0.31276 0.26973 0.0
O109 O 0.3669 0.33197 0.29788 0.0
H110 H 0.34579 0.28537 0.2773 0.0
C111 C 0.30025 0.31268 0.3768 0.0
C112 C 0.29048 0.3329 0.34762 0.0
C113 C 0.33021 0.29655 0.37783 0.0
C114 C 0.35316 0.30381 0.35157 0.0
C115 C 0.34658 0.32745 0.32478 0.0
C116 C 0.31655 0.34326 0.32383 0.0
H117 H 0.50156 0.00816 0.63527 0.0
H118 H 0.46807 0.97464 0.53528 0.0
H119 H 0.53662 0.91859 0.59922 0.0
H120 H 0.55383 0.93099 0.52492 0.0
C121 C 0.52641 0.9289 0.51399 0.0
O122 O 0.50313 0.92223 0.53948 0.0
H123 H 0.52526 0.95499 0.50103 0.0
C124 C 0.50221 0.99058 0.61536 0.0
C125 C 0.52149 0.96295 0.62091 0.0
C126 C 0.4827 0.99473 0.58461 0.0
C127 C 0.48319 0.97164 0.55905 0.0
C128 C 0.50308 0.94458 0.56409 0.0
C129 C 0.52198 0.94009 0.5951 0.0
H130 H 0.21743 0.33003 0.77757 0.0
H131 H 0.18484 0.22518 0.74671 0.0
H132 H 0.276 0.28856 0.70585 0.0
H133 H 0.21927 0.24893 0.66034 0.0
C134 C 0.21779 0.22279 0.67384 0.0
O135 O 0.23554 0.22766 0.70509 0.0
H136 H 0.18981 0.21171 0.67744 0.0
C137 C 0.22139 0.30861 0.76297 0.0
C138 C 0.24983 0.31277 0.74202 0.0
C139 C 0.19767 0.27719 0.76463 0.0
C140 C 0.20304 0.24952 0.74571 0.0
C141 C 0.23116 0.25376 0.72436 0.0
C142 C 0.25437 0.2854 0.72242 0.0
H143 H 0.81323 0.1718 0.80528 0.0
H144 H 0.73503 0.18217 0.72413 0.0
H145 H 0.8276 0.25983 0.73276 0.0
H146 H 0.74457 0.27613 0.72251 0.0
C147 C 0.74168 0.26184 0.69885 0.0
O148 O 0.76769 0.24153 0.69787 0.0
H149 H 0.71657 0.24361 0.69975 0.0
C150 C 0.80386 0.1862 0.78302 0.0
C151 C 0.82408 0.21731 0.77098 0.0
C152 C 0.77182 0.17338 0.76614 0.0
C153 C 0.75978 0.192 0.7373 0.0
C154 C 0.77946 0.2236 0.72563 0.0
C155 C 0.81181 0.23598 0.74227 0.0
H156 H 0.46483 0.59072 0.5339 0.0
H157 H 0.51458 0.50569 0.57805 0.0
H158 H 0.55021 0.55982 0.48532 0.0
H159 H 0.54312 0.48152 0.48916 0.0
C160 C 0.55377 0.47811 0.51578 0.0
O161 O 0.55989 0.50961 0.53091 0.0
H162 H 0.53265 0.45989 0.52847 0.0
C163 C 0.48431 0.57378 0.53318 0.0
C164 C 0.50717 0.57839 0.50649 0.0
C165 C 0.4868 0.54756 0.55912 0.0
C166 C 0.51229 0.52586 0.5581 0.0
C167 C 0.53493 0.5301 0.53138 0.0
C168 C 0.53238 0.55637 0.50571 0.0
H169 H 0.64159 0.47282 0.02766 0.0
H170 H 0.54433 0.45629 0.9675 0.0
H171 H 0.62873 0.53494 0.93444 0.0
H172 H 0.55745 0.45829 0.8996 0.0
C173 C 0.55775 0.48649 0.89236 0.0
O174 O 0.56346 0.50582 0.92072 0.0
H175 H 0.58016 0.49604 0.8762 0.0
C176 C 0.62555 0.47962 0.00544 0.0
C177 C 0.63922 0.506 0.98172 0.0
C178 C 0.59147 0.46147 1.00008 0.0
C179 C 0.57065 0.47045 0.97157 0.0
C180 C 0.58397 0.49702 0.94795 0.0
C181 C 0.61839 0.51453 0.95283 0.0
H182 H 0.68102 0.30425 0.30722 0.0
H183 H 0.70327 0.22414 0.24622 0.0
H184 H 0.76165 0.24356 0.34112 0.0
H185 H 0.80248 0.2308 0.28015 0.0
C186 C 0.78257 0.20935 0.2703 0.0
O187 O 0.7527 0.20492 0.2884 0.0
H188 H 0.77676 0.21852 0.24361 0.0
C189 C 0.69618 0.28401 0.30316 0.0
C190 C 0.72218 0.27624 0.3276 0.0
C191 C 0.68928 0.26529 0.27379 0.0
C192 C 0.70874 0.23893 0.26869 0.0
C193 C 0.73502 0.23129 0.2928 0.0
C194 C 0.74165 0.24986 0.32229 0.0
H195 H 0.408 0.08313 0.0408 0.0
H196 H 0.44658 0.00695 0.98646 0.0
H197 H 0.51117 0.10609 0.00148 0.0
H198 H 0.49914 0.07055 0.9267 0.0
C199 C 0.50212 0.04449 0.93863 0.0
O200 O 0.50657 0.04606 0.97345 0.0
H201 H 0.47692 0.02748 0.93176 0.0
C202 C 0.42863 0.07542 0.02725 0.0
C203 C 0.46045 0.09827 0.02337 0.0
C204 C 0.42361 0.04249 0.01389 0.0
C205 C 0.45046 0.03242 0.99677 0.0
C206 C 0.4817 0.05552 0.99165 0.0
C207 C 0.48677 0.08841 0.00505 0.0
Zn208 Zn 0.30147 0.85348 0.01298 0.0
Zn209 Zn 0.24134 0.87791 0.00977 0.0
O210 O 0.23933 0.84801 0.05457 0.0
O211 O 0.28725 0.82421 0.05593 0.0
O212 O 0.19816 0.90141 0.00877 0.0
O213 O 0.33042 0.9001 0.01829 0.0
O214 O 0.28089 0.92125 0.00998 0.0
C215 C 0.25927 0.82784 0.06918 0.0
C216 C 0.25783 0.83554 0.95206 0.0
O217 O 0.23535 0.84805 0.96757 0.0
O218 O 0.28879 0.83794 0.9652 0.0
C219 C 0.16843 0.88677 0.0188 0.0
O220 O 0.16383 0.85364 0.02922 0.0
C221 C 0.31426 0.92584 0.01454 0.0
Zn222 Zn 0.09879 0.41458 0.33571 0.0
Zn223 Zn 0.14361 0.47517 0.32388 0.0
O224 O 0.11729 0.48487 0.36429 0.0
O225 O 0.08357 0.43511 0.37728 0.0
O226 O 0.17581 0.52024 0.31482 0.0
O227 O 0.14073 0.38943 0.34025 0.0
O228 O 0.17691 0.43903 0.33218 0.0
C229 C 0.09491 0.46669 0.38315 0.0
C230 C 0.08741 0.44892 0.26935 0.0
O231 O 0.11328 0.47093 0.27982 0.0
O232 O 0.07558 0.42257 0.28834 0.0
C233 C 0.16325 0.54842 0.31398 0.0
O234 O 0.13008 0.54748 0.31977 0.0
C235 C 0.1716 0.40602 0.33779 0.0
Zn236 Zn 0.85072 0.6067 0.98033 0.0
Zn237 Zn 0.8347 0.63217 0.03867 0.0
O238 O 0.87659 0.60654 0.05334 0.0
O239 O 0.89074 0.58704 0.0059 0.0
O240 O 0.82346 0.65345 0.08104 0.0
O241 O 0.85589 0.65498 0.95735 0.0
O242 O 0.84055 0.6746 0.00413 0.0
C243 C 0.89561 0.58987 0.0376 0.0
C244 C 0.78082 0.57956 0.00152 0.0
O245 O 0.78999 0.59858 0.0265 0.0
O246 O 0.80186 0.57814 0.97867 0.0
C247 C 0.79399 0.66386 0.08099 0.0
O248 O 0.77186 0.65951 0.05442 0.0
C249 C 0.84856 0.67965 0.97328 0.0
Zn250 Zn 0.85682 0.01669 0.30986 0.0
Zn251 Zn 0.88111 0.0269 0.24876 0.0
O252 O 0.86072 0.07235 0.25252 0.0
O253 O 0.83521 0.06063 0.30119 0.0
O254 O 0.90659 0.03293 0.20492 0.0
O255 O 0.9036 0.01806 0.3343 0.0
O256 O 0.9229 0.01973 0.28297 0.0
C257 C 0.84189 0.08063 0.27498 0.0
C258 C 0.827 0.96246 0.26578 0.0
O259 O 0.84229 0.98356 0.24325 0.0
O260 O 0.83187 0.96964 0.29661 0.0
C261 C 0.89335 0.0301 0.17475 0.0
O262 O 0.85909 0.02377 0.16925 0.0
C263 C 0.92832 0.01773 0.31514 0.0
Zn264 Zn 0.34675 0.10474 0.47915 0.0
Zn265 Zn 0.33036 0.13352 0.53595 0.0
O266 O 0.37171 0.10853 0.55401 0.0
O267 O 0.38515 0.08592 0.50783 0.0
O268 O 0.31463 0.15706 0.57487 0.0
O269 O 0.35403 0.15216 0.45467 0.0
O270 O 0.33905 0.17452 0.50014 0.0
C271 C 0.39016 0.0904 0.53926 0.0
C272 C 0.27672 0.07958 0.49909 0.0
O273 O 0.28609 0.09967 0.52319 0.0
O274 O 0.29776 0.07676 0.47667 0.0
C275 C 0.29334 0.14062 0.59582 0.0
O276 O 0.2846 0.10664 0.59499 0.0
C277 C 0.34789 0.17803 0.46952 0.0
Zn278 Zn 0.35357 0.49893 0.8053 0.0
Zn279 Zn 0.3847 0.51583 0.74613 0.0
O280 O 0.3569 0.55663 0.75035 0.0
O281 O 0.33332 0.54331 0.79984 0.0
O282 O 0.4107 0.52728 0.70273 0.0
O283 O 0.40051 0.49705 0.82969 0.0
O284 O 0.42595 0.51374 0.78178 0.0
C285 C 0.33801 0.56348 0.77348 0.0
C286 C 0.33281 0.44713 0.7573 0.0
O287 O 0.35441 0.46734 0.73893 0.0
O288 O 0.32709 0.45514 0.78659 0.0
C289 C 0.39638 0.52598 0.67284 0.0
O290 O 0.36209 0.51793 0.66857 0.0
C291 C 0.42805 0.50499 0.81341 0.0
Zn292 Zn 0.80181 0.35912 0.51176 0.0
Zn293 Zn 0.74481 0.39214 0.51032 0.0
O294 O 0.74174 0.36161 0.55519 0.0
O295 O 0.78702 0.33367 0.55598 0.0
O296 O 0.70357 0.41821 0.51043 0.0
O297 O 0.83324 0.40584 0.51337 0.0
O298 O 0.78684 0.43232 0.51091 0.0
C299 C 0.76023 0.33994 0.56959 0.0
C300 C 0.75505 0.34591 0.45267 0.0
O301 O 0.73694 0.3652 0.4663 0.0
O302 O 0.78389 0.33965 0.46675 0.0
C303 C 0.67192 0.40327 0.51264 0.0
O304 O 0.66457 0.36906 0.51404 0.0
C305 C 0.82001 0.43352 0.51245 0.0
Zn306 Zn 0.59884 0.91835 0.82277 0.0
Zn307 Zn 0.64445 0.9779 0.80849 0.0
O308 O 0.61807 0.99194 0.84694 0.0
O309 O 0.57686 0.9464 0.85483 0.0
O310 O 0.67679 0.0219 0.79502 0.0
O311 O 0.64128 0.8947 0.83732 0.0
O312 O 0.67735 0.9427 0.82262 0.0
C313 C 0.59057 0.97729 0.86134 0.0
C314 C 0.59021 0.94485 0.75416 0.0
O315 O 0.61386 0.9692 0.76452 0.0
O316 O 0.58 0.91846 0.77369 0.0
C317 C 0.69037 0.04403 0.81618 0.0
O318 O 0.68438 0.03803 0.84851 0.0
C319 C 0.67217 0.91096 0.83389 0.0
Zn320 Zn 0.0193 0.31927 0.8523 0.0
Zn321 Zn 0.01873 0.258 0.89081 0.0
O322 O 0.06313 0.26079 0.8636 0.0
O323 O 0.06333 0.30991 0.83206 0.0
O324 O 0.01645 0.21397 0.92184 0.0
O325 O 0.02144 0.34564 0.89486 0.0
O326 O 0.01926 0.29566 0.92517 0.0
C327 C 0.07687 0.28299 0.84106 0.0
C328 C 0.95781 0.26818 0.83903 0.0
O329 O 0.97288 0.24928 0.86104 0.0
O330 O 0.97174 0.2992 0.8311 0.0
C331 C 0.03164 0.18813 0.91775 0.0
O332 O 0.05081 0.18854 0.89153 0.0
C333 C 0.02022 0.3286 0.92334 0.0
Zn334 Zn 0.50182 0.82112 0.33346 0.0
Zn335 Zn 0.50277 0.76212 0.37512 0.0
O336 O 0.5453 0.76305 0.34577 0.0
O337 O 0.54442 0.81046 0.31184 0.0
O338 O 0.50386 0.7203 0.40863 0.0
O339 O 0.50769 0.85022 0.37461 0.0
O340 O 0.50694 0.80202 0.40747 0.0
C341 C 0.55822 0.78397 0.32185 0.0
C342 C 0.4388 0.77015 0.32642 0.0
O343 O 0.45465 0.75232 0.34886 0.0
O344 O 0.45307 0.80023 0.31572 0.0
C345 C 0.50129 0.68889 0.40064 0.0
O346 O 0.49764 0.68178 0.36851 0.0
C347 C 0.50883 0.83504 0.40395 0.0
Zn348 Zn 0.95706 0.79917 0.60045 0.0
Zn349 Zn 0.01562 0.79089 0.64113 0.0
O350 O 0.03323 0.83312 0.60938 0.0
O351 O 0.98598 0.8411 0.57709 0.0
O352 O 0.05718 0.78513 0.67343 0.0
O353 O 0.93122 0.80508 0.6418 0.0
O354 O 0.97895 0.79867 0.67379 0.0
C355 C 0.01823 0.84988 0.58548 0.0
C356 C 0.98118 0.7333 0.59495 0.0
O357 O 0.00511 0.74502 0.61687 0.0
O358 O 0.95767 0.75111 0.58416 0.0
C359 C 0.08855 0.78826 0.66453 0.0
O360 O 0.09533 0.79557 0.63249 0.0
C361 C 0.94716 0.80369 0.67074 0.0
Zn362 Zn 0.45767 0.29819 0.09393 0.0
Zn363 Zn 0.51532 0.28418 0.13354 0.0
O364 O 0.53548 0.32695 0.10389 0.0
O365 O 0.48917 0.33965 0.07269 0.0
O366 O 0.55643 0.27309 0.16398 0.0
O367 O 0.4337 0.30381 0.13651 0.0
O368 O 0.48084 0.29361 0.16765 0.0
C369 C 0.52162 0.34603 0.08119 0.0
C370 C 0.47616 0.23089 0.08469 0.0
O371 O 0.50063 0.24027 0.10696 0.0
O372 O 0.45413 0.2507 0.07488 0.0
C373 C 0.57741 0.29714 0.17823 0.0
O374 O 0.5728 0.32973 0.17252 0.0
C375 C 0.44976 0.30069 0.16523 0.0
C376 C 0.26953 0.79456 0.86959 0.0
C377 C 0.23503 0.78745 0.85454 0.0
C378 C 0.21561 0.81803 0.90012 0.0
C379 C 0.24869 0.81813 0.91881 0.0
N380 N 0.30078 0.78964 0.92337 0.0
N381 N 0.17311 0.78319 0.86377 0.0
C382 C 0.27399 0.80153 0.90428 0.0
C383 C 0.20727 0.79631 0.87224 0.0
N384 N 0.29819 0.79514 0.85116 0.0
N385 N 0.1926 0.83927 0.90707 0.0
H386 H 0.16587 0.76471 0.8457 0.0
H387 H 0.15253 0.7874 0.87786 0.0
H388 H 0.19854 0.85941 0.92341 0.0
H389 H 0.16937 0.84035 0.89233 0.0
H390 H 0.32371 0.80198 0.86159 0.0
H391 H 0.29629 0.79312 0.82493 0.0
H392 H 0.31853 0.77661 0.91279 0.0
H393 H 0.30154 0.78682 0.94976 0.0
C394 C 0.08881 0.52644 0.45406 0.0
C395 C 0.05444 0.51383 0.46491 0.0
C396 C 0.04472 0.47565 0.41725 0.0
C397 C 0.08104 0.48297 0.41125 0.0
N398 N 0.13925 0.51018 0.43053 0.0
N399 N 0.00114 0.47128 0.4586 0.0
C400 C 0.10363 0.50689 0.43154 0.0
C401 C 0.03285 0.48678 0.44717 0.0
N402 N 0.10702 0.55758 0.4639 0.0
N403 N 0.02104 0.46003 0.39354 0.0
H404 H 0.99072 0.47797 0.48025 0.0
H405 H 0.9866 0.44915 0.44819 0.0
H406 H 0.02797 0.45409 0.36989 0.0
H407 H 0.99398 0.45721 0.39554 0.0
H408 H 0.13104 0.56862 0.45422 0.0
H409 H 0.09639 0.57456 0.47786 0.0
H410 H 0.1565 0.52538 0.44705 0.0
H411 H 0.15151 0.49466 0.41633 0.0
C412 C 0.80913 0.7373 0.90553 0.0
C413 C 0.83052 0.77006 0.91028 0.0
C414 C 0.86361 0.74412 0.95786 0.0
C415 C 0.84148 0.7117 0.95358 0.0
N416 N 0.78769 0.67952 0.92971 0.0
N417 N 0.87379 0.80668 0.94405 0.0
C418 C 0.81254 0.70896 0.92934 0.0
C419 C 0.85645 0.7741 0.93751 0.0
N420 N 0.78663 0.73276 0.87742 0.0
N421 N 0.8921 0.74588 0.98042 0.0
H422 H 0.86913 0.829 0.92945 0.0
H423 H 0.89065 0.81202 0.96532 0.0
H424 H 0.89754 0.7245 0.99605 0.0
H425 H 0.91146 0.76777 0.98229 0.0
H426 H 0.77365 0.70845 0.8705 0.0
H427 H 0.78295 0.75285 0.85938 0.0
H428 H 0.76409 0.67753 0.91512 0.0
H429 H 0.78896 0.65822 0.94701 0.0
C430 C 0.99548 0.97551 0.3691 0.0
C431 C 0.02519 0.00249 0.36913 0.0
C432 C 0.99064 0.04068 0.33365 0.0
C433 C 0.96285 0.01221 0.33075 0.0
N434 N 0.94094 0.95093 0.34 0.0
N435 N 0.0508 0.06187 0.35257 0.0
C436 C 0.96601 0.97914 0.34668 0.0
C437 C 0.02273 0.03542 0.35163 0.0
N438 N 0.99432 0.94729 0.39185 0.0
N439 N 0.98565 0.07307 0.32057 0.0
H440 H 0.07295 0.06136 0.36897 0.0
H441 H 0.05263 0.08434 0.33649 0.0
H442 H 0.96287 0.07754 0.3065 0.0
H443 H 0.00299 0.0959 0.32515 0.0
H444 H 0.97183 0.92881 0.39504 0.0
H445 H 0.01407 0.94424 0.41048 0.0
H446 H 0.94378 0.92543 0.34797 0.0
H447 H 0.91888 0.95258 0.32364 0.0
C448 C 0.23277 0.203 0.61694 0.0
C449 C 0.23377 0.19833 0.65304 0.0
C450 C 0.27231 0.1545 0.65127 0.0
C451 C 0.27264 0.16019 0.61553 0.0
N452 N 0.24496 0.1816 0.56356 0.0
N453 N 0.24024 0.15752 0.70104 0.0
C454 C 0.25064 0.18225 0.59807 0.0
C455 C 0.24925 0.17039 0.66927 0.0
N456 N 0.21411 0.22669 0.6005 0.0
N457 N 0.29459 0.13458 0.66823 0.0
H458 H 0.22056 0.16594 0.71351 0.0
H459 H 0.24869 0.1354 0.71292 0.0
H460 H 0.31191 0.1225 0.65594 0.0
H461 H 0.29797 0.13261 0.69462 0.0
H462 H 0.21725 0.23571 0.57532 0.0
H463 H 0.19541 0.23761 0.612 0.0
H464 H 0.22637 0.19407 0.5496 0.0
H465 H 0.25643 0.16585 0.54888 0.0
C466 C 0.43614 0.513 0.58976 0.0
C467 C 0.46276 0.54276 0.58761 0.0
C468 C 0.44252 0.56376 0.63872 0.0
C469 C 0.4186 0.53212 0.64301 0.0
N470 N 0.39732 0.4737 0.62589 0.0
N471 N 0.49507 0.59391 0.61287 0.0
C472 C 0.41654 0.50596 0.61933 0.0
C473 C 0.46699 0.56749 0.61287 0.0
N474 N 0.429 0.49187 0.56317 0.0
N475 N 0.441 0.59081 0.65848 0.0
H476 H 0.51358 0.59753 0.59443 0.0
H477 H 0.50172 0.61041 0.63271 0.0
H478 H 0.42296 0.5894 0.67717 0.0
H479 H 0.45523 0.61571 0.6542 0.0
H480 H 0.40744 0.47197 0.56174 0.0
H481 H 0.44271 0.49622 0.54105 0.0
H482 H 0.39796 0.45252 0.6114 0.0
H483 H 0.38338 0.46699 0.64767 0.0
C484 C 0.71469 0.28644 0.64314 0.0
C485 C 0.74316 0.28787 0.66801 0.0
C486 C 0.77812 0.33194 0.63115 0.0
C487 C 0.7527 0.32423 0.60404 0.0
N488 N 0.69727 0.29259 0.58336 0.0
N489 N 0.80096 0.31556 0.68737 0.0
C490 C 0.72095 0.30128 0.60982 0.0
C491 C 0.77449 0.31197 0.66258 0.0
N492 N 0.68134 0.27285 0.65167 0.0
N493 N 0.80503 0.35925 0.62716 0.0
H494 H 0.79783 0.30503 0.71209 0.0
H495 H 0.82631 0.32832 0.68327 0.0
H496 H 0.80805 0.37488 0.6047 0.0
H497 H 0.82248 0.36858 0.64686 0.0
H498 H 0.65941 0.2736 0.635 0.0
H499 H 0.6748 0.26567 0.67658 0.0
H500 H 0.67563 0.27286 0.58552 0.0
H501 H 0.70075 0.30305 0.55859 0.0
C502 C 0.57666 0.96271 0.6586 0.0
C503 C 0.53947 0.95688 0.65467 0.0
C504 C 0.5358 0.94611 0.7161 0.0
C505 C 0.57287 0.94848 0.71979 0.0
N506 N 0.62812 0.95229 0.69371 0.0
N507 N 0.48372 0.9351 0.67859 0.0
C508 C 0.59324 0.95491 0.69078 0.0
C509 C 0.51905 0.94615 0.68311 0.0
N510 N 0.59614 0.97674 0.63196 0.0
N511 N 0.51663 0.94572 0.74396 0.0
H512 H 0.47055 0.934 0.65471 0.0
H513 H 0.46819 0.92369 0.69818 0.0
H514 H 0.52786 0.94722 0.76863 0.0
H515 H 0.49004 0.9477 0.74231 0.0
H516 H 0.62315 0.98504 0.63434 0.0
H517 H 0.58494 0.98288 0.60803 0.0
H518 H 0.64343 0.95322 0.67291 0.0
H519 H 0.64102 0.9458 0.71669 0.0
C520 C 0.86043 0.25554 0.81296 0.0
C521 C 0.85841 0.23018 0.78855 0.0
C522 C 0.92184 0.23013 0.79682 0.0
C523 C 0.92348 0.25406 0.82252 0.0
N524 N 0.89446 0.28591 0.85888 0.0
N525 N 0.88554 0.19001 0.75968 0.0
C526 C 0.89279 0.26584 0.83161 0.0
C527 C 0.88866 0.21644 0.78124 0.0
N528 N 0.83148 0.27009 0.81793 0.0
N529 N 0.95218 0.22164 0.7864 0.0
H530 H 0.86205 0.18047 0.7465 0.0
H531 H 0.9056 0.17598 0.75636 0.0
H532 H 0.9769 0.23075 0.79757 0.0
H533 H 0.95332 0.20757 0.76522 0.0
H534 H 0.83208 0.29154 0.83233 0.0
H535 H 0.80694 0.26212 0.80584 0.0
H536 H 0.87253 0.29237 0.8692 0.0
H537 H 0.91775 0.294 0.87305 0.0
C538 C 0.49061 0.9024 0.46271 0.0
C539 C 0.51797 0.90081 0.4884 0.0
C540 C 0.53782 0.85422 0.46008 0.0
C541 C 0.51078 0.85593 0.43423 0.0
N542 N 0.45532 0.87394 0.41647 0.0
N543 N 0.55719 0.86532 0.51828 0.0
C544 C 0.48534 0.87782 0.43714 0.0
C545 C 0.53832 0.87356 0.48927 0.0
N546 N 0.46975 0.92751 0.46252 0.0
N547 N 0.56408 0.83554 0.45617 0.0
H548 H 0.55615 0.87713 0.54095 0.0
H549 H 0.57015 0.84379 0.52104 0.0
H550 H 0.56536 0.82167 0.43483 0.0
H551 H 0.58635 0.83655 0.47266 0.0
H552 H 0.45293 0.93318 0.44196 0.0
H553 H 0.47006 0.9437 0.48242 0.0
H554 H 0.43414 0.88656 0.41955 0.0
H555 H 0.44994 0.85534 0.39831 0.0
C556 C 0.16952 0.27209 0.82075 0.0
C557 C 0.16602 0.27435 0.78474 0.0
C558 C 0.10274 0.27342 0.78705 0.0
C559 C 0.10709 0.27637 0.82268 0.0
N560 N 0.14495 0.28118 0.87365 0.0
N561 N 0.13011 0.28161 0.73323 0.0
C562 C 0.14052 0.27604 0.83972 0.0
C563 C 0.13279 0.27596 0.76774 0.0
N564 N 0.20044 0.2657 0.83675 0.0
N565 N 0.06971 0.26731 0.77175 0.0
H566 H 0.15142 0.28376 0.71801 0.0
H567 H 0.10733 0.2871 0.7199 0.0
H568 H 0.04703 0.26459 0.7852 0.0
H569 H 0.06476 0.2614 0.74644 0.0
H570 H 0.20366 0.26033 0.86282 0.0
H571 H 0.22212 0.26276 0.82356 0.0
H572 H 0.16939 0.28523 0.88677 0.0
H573 H 0.12432 0.28387 0.88838 0.0
C574 C 0.47749 0.60368 0.4541 0.0
C575 C 0.5053 0.60685 0.47954 0.0
C576 C 0.53223 0.66195 0.45122 0.0
C577 C 0.50274 0.66047 0.42763 0.0
N578 N 0.44414 0.63314 0.41047 0.0
N579 N 0.55581 0.64183 0.50601 0.0
C580 C 0.47449 0.63215 0.43005 0.0
C581 C 0.53172 0.63684 0.47917 0.0
N582 N 0.45446 0.5731 0.45234 0.0
N583 N 0.56144 0.68636 0.44611 0.0
H584 H 0.55628 0.62407 0.52697 0.0
H585 H 0.5733 0.66496 0.50893 0.0
H586 H 0.5633 0.70466 0.42549 0.0
H587 H 0.58505 0.68636 0.4604 0.0
H588 H 0.43605 0.56783 0.43216 0.0
H589 H 0.45565 0.55177 0.46961 0.0
H590 H 0.42135 0.6151 0.41369 0.0
H591 H 0.44055 0.65382 0.39309 0.0
C592 C 0.89181 0.84265 0.72876 0.0
C593 C 0.88476 0.81467 0.75368 0.0
C594 C 0.92293 0.78164 0.72698 0.0
C595 C 0.92862 0.8087 0.70107 0.0
N596 N 0.92716 0.86864 0.68222 0.0
N597 N 0.90528 0.76542 0.78421 0.0
C598 C 0.91567 0.84041 0.70346 0.0
C599 C 0.90415 0.78668 0.75532 0.0
N600 N 0.87536 0.87108 0.72904 0.0
N601 N 0.93368 0.75039 0.72373 0.0
H602 H 0.89343 0.76963 0.80612 0.0
H603 H 0.92141 0.74642 0.78783 0.0
H604 H 0.94721 0.74533 0.70321 0.0
H605 H 0.9266 0.7285 0.73999 0.0
H606 H 0.8754 0.88999 0.7091 0.0
H607 H 0.86077 0.87545 0.74907 0.0
H608 H 0.92142 0.8935 0.68453 0.0
H609 H 0.94521 0.86799 0.66393 0.0
C610 C 0.05011 0.94125 0.54877 0.0
C611 C 0.07112 0.93393 0.52296 0.0
C612 C 0.05924 0.87149 0.53969 0.0
C613 C 0.03879 0.87891 0.56587 0.0
N614 N 0.01922 0.92026 0.59957 0.0
N615 N 0.10049 0.89366 0.4967 0.0
C616 C 0.03556 0.91369 0.57168 0.0
C617 C 0.07726 0.89949 0.51939 0.0
N618 N 0.04348 0.97444 0.55079 0.0
N619 N 0.0601 0.83758 0.5333 0.0
H620 H 0.11302 0.91328 0.48035 0.0
H621 H 0.10924 0.86995 0.4955 0.0
H622 H 0.04799 0.81638 0.54818 0.0
H623 H 0.07091 0.83018 0.51211 0.0
H624 H 0.02519 0.98091 0.56632 0.0
H625 H 0.05496 0.99555 0.53543 0.0
H626 H 0.01885 0.94516 0.60731 0.0
H627 H 0.00819 0.90054 0.61671 0.0
C628 C 0.1751 0.80131 0.71805 0.0
C629 C 0.17042 0.77081 0.74012 0.0
C630 C 0.11403 0.75032 0.71022 0.0
C631 C 0.11707 0.78224 0.69017 0.0
N632 N 0.14749 0.84089 0.67915 0.0
N633 N 0.13243 0.71973 0.76195 0.0
C634 C 0.14684 0.80853 0.69515 0.0
C635 C 0.13895 0.74634 0.73762 0.0
N636 N 0.2068 0.82286 0.71834 0.0
N637 N 0.08832 0.7231 0.70212 0.0
H638 H 0.14992 0.71603 0.78262 0.0
H639 H 0.10832 0.70336 0.76342 0.0
H640 H 0.07021 0.72442 0.68151 0.0
H641 H 0.08717 0.69809 0.71365 0.0
H642 H 0.21306 0.84337 0.70031 0.0
H643 H 0.2279 0.81857 0.73504 0.0
H644 H 0.16676 0.86213 0.68452 0.0
H645 H 0.12705 0.84746 0.66273 0.0
C646 C 0.97749 0.66698 0.5287 0.0
C647 C 0.97591 0.63547 0.54925 0.0
C648 C 0.97799 0.66799 0.60046 0.0
C649 C 0.98177 0.69963 0.57993 0.0
N650 N 0.99391 0.72978 0.52557 0.0
N651 N 0.98139 0.60617 0.60461 0.0
C652 C 0.98414 0.69927 0.54433 0.0
C653 C 0.97824 0.63604 0.58517 0.0
N654 N 0.97123 0.66607 0.49432 0.0
N655 N 0.97251 0.66825 0.6342 0.0
H656 H 0.98163 0.58234 0.59421 0.0
H657 H 0.98681 0.6056 0.63076 0.0
H658 H 0.97202 0.69107 0.64631 0.0
H659 H 0.96567 0.64569 0.64964 0.0
H660 H 0.96813 0.68804 0.47855 0.0
H661 H 0.96602 0.64295 0.48177 0.0
H662 H 0.99958 0.73076 0.50012 0.0
H663 H 0.99991 0.75395 0.53622 0.0
C664 C 0.76313 0.87871 0.27888 0.0
C665 C 0.76177 0.8628 0.24758 0.0
C666 C 0.80633 0.91112 0.22779 0.0
C667 C 0.803 0.9295 0.25707 0.0
N668 N 0.76502 0.93402 0.30251 0.0
N669 N 0.77468 0.87105 0.1882 0.0
C670 C 0.77733 0.91438 0.28022 0.0
C671 C 0.78106 0.88116 0.22067 0.0
N672 N 0.75224 0.8599 0.30774 0.0
N673 N 0.83408 0.92045 0.20769 0.0
H674 H 0.75465 0.85094 0.1814 0.0
H675 H 0.78648 0.88548 0.16762 0.0
H676 H 0.8553 0.93974 0.2132 0.0
H677 H 0.83813 0.90574 0.18772 0.0
H678 H 0.755 0.87078 0.33133 0.0
H679 H 0.74478 0.83289 0.30884 0.0
H680 H 0.74494 0.92363 0.31841 0.0
H681 H 0.77093 0.96117 0.3015 0.0
C682 C 0.78474 0.14983 0.24762 0.0
C683 C 0.79708 0.17514 0.27183 0.0
C684 C 0.83991 0.13904 0.29643 0.0
C685 C 0.82835 0.11429 0.2718 0.0
N686 N 0.79242 0.09689 0.22187 0.0
N687 N 0.82744 0.18733 0.32615 0.0
C688 C 0.80157 0.11997 0.24671 0.0
C689 C 0.8222 0.16797 0.29818 0.0
N690 N 0.75523 0.15299 0.22731 0.0
N691 N 0.86894 0.13562 0.31734 0.0
H692 H 0.81336 0.20724 0.3298 0.0
H693 H 0.84265 0.18107 0.34771 0.0
H694 H 0.88298 0.11505 0.31649 0.0
H695 H 0.88121 0.15484 0.33313 0.0
H696 H 0.74279 0.13408 0.21134 0.0
H697 H 0.74065 0.173 0.22872 0.0
H698 H 0.77636 0.10139 0.20041 0.0
H699 H 0.80273 0.07387 0.22143 0.0
C700 C 0.36654 0.01359 0.98782 0.0
C701 C 0.39003 0.01818 0.01685 0.0
C702 C 0.35426 0.96969 0.0474 0.0
C703 C 0.33503 0.96112 0.01655 0.0
N704 N 0.32216 0.97429 0.95704 0.0
N705 N 0.40704 0.00107 0.07453 0.0
C706 C 0.34042 0.9833 0.98675 0.0
C707 C 0.38377 0.99676 0.04699 0.0
N708 N 0.36946 0.0382 0.96133 0.0
N709 N 0.34406 0.95185 0.07702 0.0
H710 H 0.42854 0.02112 0.07539 0.0
H711 H 0.40628 0.98368 0.09578 0.0
H712 H 0.32224 0.93211 0.0779 0.0
H713 H 0.35497 0.95869 0.10086 0.0
H714 H 0.35131 0.0381 0.94068 0.0
H715 H 0.38849 0.06058 0.96151 0.0
H716 H 0.3279 0.98699 0.93357 0.0
H717 H 0.30227 0.95273 0.95551 0.0
C718 C 0.22981 0.33951 0.3676 0.0
C719 C 0.2545 0.34431 0.34208 0.0
C720 C 0.2195 0.38408 0.31001 0.0
C721 C 0.20111 0.38605 0.33952 0.0
N722 N 0.18998 0.36601 0.39762 0.0
N723 N 0.25192 0.34834 0.28102 0.0
C724 C 0.20664 0.3639 0.3687 0.0
C725 C 0.24379 0.36036 0.3106 0.0
N726 N 0.22306 0.30833 0.38576 0.0
N727 N 0.21355 0.40428 0.28124 0.0
H728 H 0.26433 0.32652 0.28086 0.0
H729 H 0.24213 0.35652 0.25716 0.0
H730 H 0.19434 0.42028 0.27869 0.0
H731 H 0.22929 0.40662 0.26057 0.0
H732 H 0.2032 0.30262 0.40282 0.0
H733 H 0.233 0.28655 0.37912 0.0
H734 H 0.19564 0.35199 0.4202 0.0
H735 H 0.17308 0.38391 0.39979 0.0
C736 C 0.20021 0.00625 0.48581 0.0
C737 C 0.17147 0.02437 0.48681 0.0
C738 C 0.21168 0.07912 0.49431 0.0
C739 C 0.24043 0.06046 0.49631 0.0
N740 N 0.26169 0.00535 0.50124 0.0
N741 N 0.14843 0.07487 0.4982 0.0
C742 C 0.23461 0.02371 0.49415 0.0
C743 C 0.17702 0.06011 0.49299 0.0
N744 N 0.19483 0.9729 0.47559 0.0
N745 N 0.2174 0.11478 0.49153 0.0
H746 H 0.14958 0.10025 0.50551 0.0
H747 H 0.14958 0.10025 0.50551 0.0
H748 H 0.24236 0.12974 0.4913 0.0
H749 H 0.19747 0.12962 0.48603 0.0
H750 H 0.21519 0.9597 0.47102 0.0
H751 H 0.17002 0.95954 0.46859 0.0
H752 H 0.25824 0.97821 0.50337 0.0
H753 H 0.28711 0.01713 0.50835 0.0
C754 C 0.72138 0.14106 0.79809 0.0
C755 C 0.75083 0.14024 0.77888 0.0
C756 C 0.74283 0.07657 0.78744 0.0
C757 C 0.71155 0.07718 0.804 0.0
N758 N 0.66749 0.10925 0.81996 0.0
N759 N 0.78693 0.10755 0.75075 0.0
C760 C 0.69986 0.10924 0.80805 0.0
C761 C 0.76082 0.10805 0.77225 0.0
N762 N 0.71448 0.17223 0.80753 0.0
N763 N 0.75608 0.04614 0.78741 0.0
H764 H 0.80092 0.13014 0.73939 0.0
H765 H 0.79282 0.08474 0.74196 0.0
H766 H 0.74386 0.02261 0.79865 0.0
H767 H 0.78068 0.04473 0.77896 0.0
H768 H 0.6958 0.17424 0.82473 0.0
H769 H 0.72938 0.19615 0.80034 0.0
H770 H 0.65594 0.13156 0.81992 0.0
H771 H 0.65069 0.0865 0.82713 0.0
C772 C 0.47398 0.05453 0.5612 0.0
C773 C 0.46078 0.02274 0.57916 0.0
C774 C 0.40232 0.03949 0.57773 0.0
C775 C 0.41527 0.0708 0.55884 0.0
N776 N 0.46398 0.11221 0.53928 0.0
N777 N 0.41525 0.98808 0.61126 0.0
C778 C 0.45143 0.07963 0.55283 0.0
C779 C 0.42589 0.01639 0.58982 0.0
N780 N 0.5077 0.06007 0.5512 0.0
N781 N 0.36712 0.03074 0.58212 0.0
H782 H 0.43136 0.96985 0.61953 0.0
H783 H 0.39149 0.98399 0.62296 0.0
H784 H 0.3491 0.04731 0.57451 0.0
H785 H 0.3553 0.00632 0.5916 0.0
H786 H 0.51787 0.08074 0.53475 0.0
H787 H 0.52531 0.0429 0.5582 0.0
H788 H 0.49049 0.12169 0.53666 0.0
H789 H 0.44783 0.13101 0.5333 0.0
C790 C 0.59654 0.44101 0.54603 0.0
C791 C 0.58744 0.46236 0.51721 0.0
C792 C 0.63614 0.44791 0.48715 0.0
C793 C 0.64362 0.42449 0.51478 0.0
N794 N 0.63226 0.39885 0.571 0.0
N795 N 0.60719 0.49662 0.46691 0.0
C796 C 0.62426 0.4212 0.54446 0.0
C797 C 0.60985 0.469 0.48971 0.0
N798 N 0.58 0.4414 0.57547 0.0
N799 N 0.65273 0.44858 0.4576 0.0
H800 H 0.58974 0.51397 0.46905 0.0
H801 H 0.625 0.50492 0.44828 0.0
H802 H 0.67192 0.43337 0.45443 0.0
H803 H 0.64536 0.46187 0.43521 0.0
H804 H 0.58675 0.42867 0.59833 0.0
H805 H 0.56124 0.45721 0.57817 0.0
H806 H 0.61684 0.3916 0.59165 0.0
H807 H 0.65412 0.38627 0.57203 0.0
C808 C 0.70788 0.28462 0.38723 0.0
C809 C 0.72876 0.29564 0.35906 0.0
C810 C 0.76142 0.34406 0.39044 0.0
C811 C 0.74318 0.3308 0.41972 0.0
N812 N 0.70083 0.28748 0.44746 0.0
N813 N 0.77659 0.33429 0.33373 0.0
C814 C 0.71659 0.30101 0.41844 0.0
C815 C 0.7558 0.32505 0.36059 0.0
N816 N 0.6796 0.25863 0.384 0.0
N817 N 0.78348 0.37535 0.39106 0.0
H818 H 0.77235 0.3219 0.31095 0.0
H819 H 0.7993 0.35281 0.33458 0.0
H820 H 0.78796 0.38997 0.4125 0.0
H821 H 0.79504 0.38835 0.36975 0.0
H822 H 0.66098 0.25198 0.40213 0.0
H823 H 0.67328 0.24505 0.36204 0.0
H824 H 0.68435 0.26352 0.44937 0.0
H825 H 0.70585 0.29932 0.47051 0.0
C826 C 0.5539 0.04938 0.90128 0.0
C827 C 0.53157 0.02914 0.92472 0.0
C828 C 0.55884 0.97858 0.9145 0.0
C829 C 0.57353 0.99655 0.88502 0.0
N830 N 0.57938 0.04917 0.84752 0.0
N831 N 0.51248 0.97283 0.95341 0.0
C832 C 0.56999 0.03217 0.87774 0.0
C833 C 0.53415 0.99327 0.93153 0.0
N834 N 0.56018 0.08488 0.90164 0.0
N835 N 0.56926 0.94806 0.92691 0.0
H836 H 0.49485 0.98243 0.9675 0.0
H837 H 0.51054 0.94577 0.9559 0.0
H838 H 0.58891 0.93764 0.91632 0.0
H839 H 0.56156 0.9355 0.94997 0.0
H840 H 0.57827 0.10044 0.88636 0.0
H841 H 0.55119 0.0982 0.92036 0.0
H842 H 0.57422 0.0742 0.84047 0.0
H843 H 0.58834 0.03728 0.82783 0.0
C844 C 0.31145 0.23495 0.39954 0.0
C845 C 0.33407 0.26726 0.40314 0.0
C846 C 0.3665 0.24138 0.45119 0.0
C847 C 0.34254 0.20981 0.44856 0.0
N848 N 0.28715 0.17929 0.42626 0.0
N849 N 0.37966 0.30334 0.43499 0.0
C850 C 0.31345 0.20747 0.42457 0.0
C851 C 0.36063 0.27114 0.42982 0.0
N852 N 0.28912 0.22988 0.37136 0.0
N853 N 0.39529 0.2425 0.47331 0.0
H854 H 0.376 0.32547 0.4196 0.0
H855 H 0.39711 0.30869 0.45586 0.0
H856 H 0.39976 0.2213 0.48969 0.0
H857 H 0.41576 0.26352 0.47402 0.0
H858 H 0.27505 0.2056 0.36563 0.0
H859 H 0.28698 0.24905 0.35193 0.0
H860 H 0.2635 0.17804 0.41181 0.0
H861 H 0.28735 0.15859 0.44448 0.0
C862 C 0.49593 0.50423 0.8861 0.0
C863 C 0.5232 0.49021 0.87217 0.0
C864 C 0.48575 0.48207 0.81945 0.0
C865 C 0.46247 0.50241 0.8316 0.0
N866 N 0.451 0.54012 0.87395 0.0
N867 N 0.5434 0.46534 0.82406 0.0
C868 C 0.46953 0.51601 0.86401 0.0
C869 C 0.518 0.47925 0.83825 0.0
N870 N 0.49281 0.50338 0.92029 0.0
N871 N 0.47613 0.46327 0.79144 0.0
H872 H 0.56558 0.45861 0.83762 0.0
H873 H 0.54308 0.46177 0.79818 0.0
H874 H 0.45221 0.4631 0.77766 0.0
H875 H 0.49032 0.44495 0.78381 0.0
H876 H 0.47195 0.51171 0.93095 0.0
H877 H 0.50696 0.48886 0.93744 0.0
H878 H 0.45731 0.55258 0.89656 0.0
H879 H 0.43219 0.55041 0.85797 0.0
C880 C 0.78868 0.73417 0.14154 0.0
C881 C 0.75611 0.72046 0.15557 0.0
C882 C 0.75634 0.66497 0.12975 0.0
C883 C 0.78443 0.68155 0.1101 0.0
N884 N 0.8277 0.73196 0.09667 0.0
N885 N 0.71243 0.67065 0.16933 0.0
C886 C 0.8012 0.71594 0.11627 0.0
C887 C 0.74123 0.68493 0.15194 0.0
N888 N 0.80783 0.76431 0.15279 0.0
N889 N 0.74468 0.63005 0.1274 0.0
H890 H 0.70323 0.68334 0.1884 0.0
H891 H 0.69747 0.64646 0.16502 0.0
H892 H 0.75572 0.61491 0.11167 0.0
H893 H 0.72597 0.61539 0.14251 0.0
H894 H 0.83317 0.77409 0.14566 0.0
H895 H 0.79994 0.77742 0.17226 0.0
H896 H 0.83793 0.75841 0.09714 0.0
H897 H 0.83797 0.71942 0.07817 0.0
C898 C 0.93584 0.01014 0.09537 0.0
C899 C 0.96476 0.03779 0.09402 0.0
C900 C 0.94337 0.06304 0.14215 0.0
C901 C 0.91695 0.03325 0.14606 0.0
N902 N 0.89237 0.97511 0.13006 0.0
N903 N 0.99967 0.08729 0.11998 0.0
C904 C 0.91423 0.0059 0.12358 0.0
C905 C 0.96954 0.06338 0.11849 0.0
N906 N 0.92843 0.98842 0.06926 0.0
N907 N 0.94272 0.09164 0.16008 0.0
H908 H 0.01974 0.08814 0.10347 0.0
H909 H 0.00623 0.10414 0.13955 0.0
H910 H 0.92339 0.09289 0.17687 0.0
H911 H 0.95915 0.11536 0.15571 0.0
H912 H 0.90557 0.97016 0.06714 0.0
H913 H 0.94348 0.99082 0.04806 0.0
H914 H 0.89217 0.95304 0.11661 0.0
H915 H 0.87685 0.97039 0.15094 0.0
C916 C 0.24593 0.75781 0.14164 0.0
C917 C 0.22881 0.77477 0.16456 0.0
C918 C 0.24121 0.82903 0.12891 0.0
C919 C 0.2505 0.80982 0.10263 0.0
N920 N 0.25711 0.75396 0.08289 0.0
N921 N 0.21088 0.82761 0.18064 0.0
C922 C 0.252 0.77371 0.10875 0.0
C923 C 0.2269 0.81082 0.15852 0.0
N924 N 0.25695 0.72688 0.15138 0.0
N925 N 0.24755 0.86468 0.12633 0.0
H926 H 0.20239 0.81616 0.20387 0.0
H927 H 0.20451 0.85243 0.17515 0.0
H928 H 0.25972 0.87903 0.10591 0.0
H929 H 0.24438 0.87999 0.14609 0.0
H930 H 0.27202 0.71491 0.13637 0.0
H931 H 0.25503 0.71563 0.17603 0.0
H932 H 0.25496 0.72689 0.08564 0.0
H933 H 0.25971 0.7639 0.05788 0.0
C934 C 0.01967 0.4531 0.19519 0.0
C935 C 0.04175 0.46372 0.16785 0.0
C936 C 0.09347 0.46048 0.20648 0.0
C937 C 0.07159 0.45391 0.23444 0.0
N938 N 0.01417 0.45185 0.2558 0.0
N939 N 0.09986 0.48478 0.14883 0.0
C940 C 0.03472 0.45239 0.22894 0.0
C941 C 0.07874 0.4696 0.1739 0.0
N942 N 0.98449 0.44247 0.18893 0.0
N943 N 0.12793 0.45632 0.21056 0.0
H944 H 0.09004 0.49245 0.12477 0.0
H945 H 0.12676 0.4929 0.15297 0.0
H946 H 0.1395 0.44795 0.23357 0.0
H947 H 0.14402 0.45748 0.1903 0.0
H948 H 0.96785 0.43111 0.2077 0.0
H949 H 0.97252 0.44177 0.16453 0.0
H950 H 0.9877 0.45426 0.25292 0.0
H951 H 0.02423 0.45273 0.2809 0.0
C952 C 0.362 0.73346 0.26693 0.0
C953 C 0.33342 0.73635 0.28658 0.0
C954 C 0.37416 0.75688 0.33391 0.0
C955 C 0.40274 0.75652 0.31335 0.0
N956 N 0.4247 0.7475 0.25963 0.0
N957 N 0.3114 0.75483 0.33671 0.0
C958 C 0.39688 0.7457 0.27961 0.0
C959 C 0.33926 0.74905 0.31959 0.0
N960 N 0.35575 0.71806 0.23662 0.0
N961 N 0.38042 0.76463 0.36719 0.0
H962 H 0.28541 0.7492 0.32719 0.0
H963 H 0.31394 0.76767 0.35915 0.0
H964 H 0.40554 0.77217 0.37822 0.0
H965 H 0.361 0.76137 0.38462 0.0
H966 H 0.37536 0.71163 0.22267 0.0
H967 H 0.33051 0.70947 0.22632 0.0
H968 H 0.42208 0.74401 0.2337 0.0
H969 H 0.45073 0.75434 0.26865 0.0
C970 C 0.98825 0.38596 0.98444 0.0
C971 C 0.0106 0.38131 0.01377 0.0
C972 C 0.04374 0.34731 0.98129 0.0
C973 C 0.01748 0.347 0.95441 0.0
N974 N 0.96158 0.36169 0.93258 0.0
N975 N 0.0622 0.36032 0.0395 0.0
C976 C 0.98897 0.36529 0.95649 0.0
C977 C 0.03925 0.36288 0.01197 0.0
N978 N 0.96717 0.41099 0.9827 0.0
N979 N 0.07363 0.33411 0.97687 0.0
H980 H 0.06272 0.37482 0.06073 0.0
H981 H 0.08036 0.34323 0.04174 0.0
H982 H 0.07787 0.32287 0.95467 0.0
H983 H 0.09546 0.33663 0.99391 0.0
H984 H 0.95277 0.41752 0.96066 0.0
H985 H 0.96741 0.42821 0.00173 0.0
H986 H 0.93843 0.37144 0.93498 0.0
H987 H 0.96037 0.34601 0.9121 0.0
C988 C 0.61921 0.77922 0.25191 0.0
C989 C 0.65175 0.77981 0.27078 0.0
C990 C 0.62245 0.77895 0.324 0.0
C991 C 0.58977 0.77799 0.30518 0.0
N992 N 0.55566 0.76807 0.25251 0.0
N993 N 0.68339 0.77116 0.32443 0.0
C994 C 0.58775 0.77521 0.26947 0.0
C995 C 0.65298 0.77661 0.30677 0.0
N996 N 0.61852 0.78398 0.21734 0.0
N997 N 0.62484 0.78434 0.35792 0.0
H998 H 0.70621 0.7693 0.31253 0.0
H999 H 0.6851 0.7652 0.3505 0.0
H1000 H 0.60326 0.78638 0.3716 0.0
H1001 H 0.64862 0.7895 0.37205 0.0
H1002 H 0.59616 0.78796 0.20241 0.0
H1003 H 0.64096 0.78625 0.20361 0.0
H1004 H 0.55236 0.76249 0.22703 0.0
H1005 H 0.53216 0.76433 0.26478 0.0
C1006 C 0.00319 0.09705 0.95881 0.0
C1007 C 0.02075 0.10047 0.99135 0.0
C1008 C 0.04405 0.1618 0.97621 0.0
C1009 C 0.02813 0.15784 0.94297 0.0
N1010 N 0.99527 0.12143 0.90114 0.0
N1011 N 0.06119 0.13401 0.03025 0.0
C1012 C 0.00858 0.12531 0.93381 0.0
C1013 C 0.04202 0.13234 0.99988 0.0
N1014 N 0.98047 0.0671 0.95226 0.0
N1015 N 0.061 0.19383 0.98518 0.0
H1016 H 0.05982 0.11323 0.0485 0.0
H1017 H 0.08028 0.15501 0.03663 0.0
H1018 H 0.06524 0.21548 0.96803 0.0
H1019 H 0.0693 0.19964 0.00999 0.0
H1020 H 0.96382 0.06409 0.93054 0.0
H1021 H 0.97642 0.0457 0.96976 0.0
H1022 H 0.98442 0.09753 0.89164 0.0
H1023 H 0.99673 0.14199 0.88266 0.0
C1024 C 0.39668 0.34187 0.22337 0.0
C1025 C 0.38815 0.31379 0.24785 0.0
C1026 C 0.42548 0.27944 0.22172 0.0
C1027 C 0.43228 0.30651 0.19596 0.0
N1028 N 0.43374 0.36705 0.1778 0.0
N1029 N 0.40631 0.26347 0.27851 0.0
C1030 C 0.42077 0.33893 0.19852 0.0
C1031 C 0.40652 0.28504 0.24975 0.0
N1032 N 0.38125 0.37098 0.2235 0.0
N1033 N 0.4352 0.2477 0.21855 0.0
H1034 H 0.39411 0.26797 0.30011 0.0
H1035 H 0.42168 0.24382 0.2824 0.0
H1036 H 0.44881 0.24222 0.19826 0.0
H1037 H 0.42726 0.22591 0.23466 0.0
H1038 H 0.38245 0.39019 0.20376 0.0
H1039 H 0.36631 0.37558 0.24318 0.0
H1040 H 0.42897 0.39224 0.18026 0.0
H1041 H 0.4521 0.36584 0.15995 0.0
C1042 C 0.58317 0.3981 0.01866 0.0
C1043 C 0.57743 0.43231 0.02391 0.0
C1044 C 0.54126 0.41003 0.07163 0.0
C1045 C 0.54355 0.3756 0.06368 0.0
N1046 N 0.56449 0.33586 0.02895 0.0
N1047 N 0.5505 0.47166 0.05399 0.0
C1048 C 0.56429 0.36932 0.03727 0.0
C1049 C 0.55652 0.43856 0.05021 0.0
N1050 N 0.60675 0.39325 0.99591 0.0
N1051 N 0.52504 0.41528 0.10005 0.0
H1052 H 0.56251 0.49338 0.03971 0.0
H1053 H 0.53226 0.47754 0.06992 0.0
H1054 H 0.51359 0.39481 0.11619 0.0
H1055 H 0.52529 0.4397 0.10924 0.0
H1056 H 0.61503 0.3695 0.99349 0.0
H1057 H 0.62016 0.41362 0.98096 0.0
H1058 H 0.57555 0.32954 0.00743 0.0
H1059 H 0.55162 0.31407 0.04252 0.0
C1060 C 0.62553 0.25782 0.25466 0.0
C1061 C 0.66076 0.27274 0.24875 0.0
C1062 C 0.64158 0.30074 0.19486 0.0
C1063 C 0.60613 0.28837 0.20226 0.0
N1064 N 0.5638 0.25996 0.24158 0.0
N1065 N 0.70253 0.31183 0.2159 0.0
C1066 C 0.59791 0.26806 0.23276 0.0
C1067 C 0.66887 0.29518 0.21956 0.0
N1068 N 0.61856 0.23335 0.28088 0.0
N1069 N 0.6492 0.31662 0.16371 0.0
H1070 H 0.72333 0.3078 0.23312 0.0
H1071 H 0.70947 0.33152 0.19725 0.0
H1072 H 0.62992 0.32094 0.14489 0.0
H1073 H 0.67456 0.32288 0.15538 0.0
H1074 H 0.59386 0.21863 0.28425 0.0
H1075 H 0.63806 0.22567 0.29786 0.0
H1076 H 0.55649 0.24861 0.26518 0.0
H1077 H 0.5428 0.2673 0.22645 0.0
C1078 C 0.4669 0.16367 0.01823 0.0
C1079 C 0.4662 0.13242 0.03902 0.0
C1080 C 0.47029 0.16551 0.08999 0.0
C1081 C 0.47389 0.19699 0.06924 0.0
N1082 N 0.48379 0.22642 0.0141 0.0
N1083 N 0.47457 0.10401 0.09447 0.0
C1084 C 0.47453 0.1962 0.03345 0.0
C1085 C 0.47012 0.13347 0.07488 0.0
N1086 N 0.45907 0.16229 0.98409 0.0
N1087 N 0.46534 0.16595 0.12383 0.0
H1088 H 0.47495 0.0801 0.08429 0.0
H1089 H 0.48118 0.10401 0.12042 0.0
H1090 H 0.46454 0.18877 0.13583 0.0
H1091 H 0.45876 0.14342 0.13939 0.0
H1092 H 0.45541 0.18409 0.96829 0.0
H1093 H 0.45316 0.13894 0.97196 0.0
H1094 H 0.48817 0.22698 0.98837 0.0
H1095 H 0.49064 0.25072 0.02437 0.0
C1096 C 0.30681 0.34899 0.76066 0.0
C1097 C 0.27471 0.34622 0.74068 0.0
C1098 C 0.28709 0.40865 0.72321 0.0
C1099 C 0.3166 0.41215 0.74666 0.0
N1100 N 0.35693 0.38671 0.78587 0.0
N1101 N 0.23431 0.37185 0.70161 0.0
C1102 C 0.32742 0.38245 0.76447 0.0
C1103 C 0.26509 0.37558 0.72117 0.0
N1104 N 0.31732 0.31959 0.77612 0.0
N1105 N 0.28017 0.43707 0.7032 0.0
H1106 H 0.21856 0.34772 0.69831 0.0
H1107 H 0.22353 0.3925 0.6895 0.0
H1108 H 0.29566 0.46158 0.70461 0.0
H1109 H 0.26074 0.43619 0.68365 0.0
H1110 H 0.34177 0.31896 0.78853 0.0
H1111 H 0.30216 0.29488 0.77509 0.0
H1112 H 0.36448 0.36733 0.80282 0.0
H1113 H 0.3739 0.41044 0.78728 0.0
C1114 C 0.27632 0.62872 0.74761 0.0
C1115 C 0.27865 0.64599 0.7783 0.0
C1116 C 0.33007 0.61892 0.79752 0.0
C1117 C 0.32191 0.59564 0.77108 0.0
N1118 N 0.2868 0.57781 0.72062 0.0
N1119 N 0.31129 0.66183 0.83064 0.0
C1120 C 0.29534 0.60074 0.7456 0.0
C1121 C 0.30696 0.64275 0.80253 0.0
N1122 N 0.25662 0.63955 0.7202 0.0
N1123 N 0.36037 0.61852 0.81735 0.0
H1124 H 0.29718 0.68187 0.83368 0.0
H1125 H 0.32819 0.65726 0.85146 0.0
H1126 H 0.37807 0.60182 0.81361 0.0
H1127 H 0.3697 0.6367 0.83522 0.0
H1128 H 0.25623 0.62971 0.69634 0.0
H1129 H 0.24416 0.66133 0.7202 0.0
H1130 H 0.26483 0.57789 0.70389 0.0
H1131 H 0.30023 0.55716 0.71801 0.0
C1132 C 0.87536 0.52119 0.48924 0.0
C1133 C 0.89938 0.52382 0.518 0.0
C1134 C 0.86427 0.47311 0.54618 0.0
C1135 C 0.84385 0.46714 0.51542 0.0
N1136 N 0.8298 0.4844 0.45709 0.0
N1137 N 0.91831 0.50164 0.57347 0.0
C1138 C 0.84893 0.49119 0.48688 0.0
C1139 C 0.89401 0.4999 0.54662 0.0
N1140 N 0.87792 0.54748 0.46432 0.0
N1141 N 0.85483 0.45336 0.57506 0.0
H1142 H 0.94014 0.52126 0.57512 0.0
H1143 H 0.91814 0.4824 0.59313 0.0
H1144 H 0.8329 0.43375 0.57553 0.0
H1145 H 0.86656 0.45851 0.59903 0.0
H1146 H 0.85942 0.54881 0.44411 0.0
H1147 H 0.8971 0.56969 0.4655 0.0
H1148 H 0.83501 0.49868 0.43425 0.0
H1149 H 0.80983 0.46301 0.45467 0.0
C1150 C 0.7348 0.84615 0.82867 0.0
C1151 C 0.7615 0.85825 0.85341 0.0
C1152 C 0.72706 0.90181 0.86863 0.0
C1153 C 0.70246 0.89229 0.84127 0.0
N1154 N 0.68538 0.85904 0.79193 0.0
N1155 N 0.78522 0.89948 0.89497 0.0
C1156 C 0.70687 0.86531 0.82047 0.0
C1157 C 0.75817 0.88653 0.87301 0.0
N1158 N 0.73575 0.81585 0.81354 0.0
N1159 N 0.72014 0.92469 0.89095 0.0
H1160 H 0.80809 0.88854 0.89924 0.0
H1161 H 0.78612 0.92243 0.90721 0.0
H1162 H 0.69764 0.93638 0.88844 0.0
H1163 H 0.73509 0.92991 0.91343 0.0
H1164 H 0.71518 0.80373 0.798 0.0
H1165 H 0.75574 0.80098 0.81895 0.0
H1166 H 0.68987 0.84256 0.77367 0.0
H1167 H 0.6647 0.87261 0.78483 0.0
C1168 C 0.70437 0.5069 0.98533 0.0
C1169 C 0.67552 0.52475 0.98731 0.0
C1170 C 0.71584 0.5791 0.99631 0.0
C1171 C 0.74456 0.5605 0.99785 0.0
N1172 N 0.7658 0.50548 1.0006 0.0
N1173 N 0.65349 0.57595 0.0018 0.0
C1174 C 0.73875 0.524 0.99429 0.0
C1175 C 0.68114 0.56032 0.99495 0.0
N1176 N 0.69909 0.47408 0.97377 0.0
N1177 N 0.72153 0.61476 0.99429 0.0
H1178 H 0.62763 0.56296 0.00139 0.0
H1179 H 0.6566 0.60075 0.01101 0.0
H1180 H 0.74648 0.6297 0.99382 0.0
H1181 H 0.70141 0.62952 0.98957 0.0
H1182 H 0.71952 0.46128 0.9685 0.0
H1183 H 0.67433 0.46088 0.96639 0.0
H1184 H 0.76233 0.47833 0.00175 0.0
H1185 H 0.79123 0.51701 0.008 0.0
C1186 C 0.21031 0.64173 0.31863 0.0
C1187 C 0.2247 0.64729 0.2863 0.0
C1188 C 0.19797 0.58833 0.27175 0.0
C1189 C 0.1853 0.58203 0.30482 0.0
N1190 N 0.18404 0.59995 0.36175 0.0
N1191 N 0.2378 0.62477 0.23425 0.0
C1192 C 0.19275 0.60798 0.32887 0.0
C1193 C 0.22026 0.62018 0.26352 0.0
N1194 N 0.21262 0.66897 0.33909 0.0
N1195 N 0.18728 0.56465 0.2477 0.0
H1196 H 0.25389 0.64801 0.22706 0.0
H1197 H 0.23875 0.60472 0.21844 0.0
H1198 H 0.17068 0.5411 0.25256 0.0
H1199 H 0.19239 0.56952 0.22216 0.0
H1200 H 0.19924 0.66766 0.36122 0.0
H1201 H 0.2261 0.69384 0.33278 0.0
H1202 H 0.19196 0.61653 0.38133 0.0
H1203 H 0.17129 0.57542 0.37018 0.0
C1204 C 0.93048 0.515 0.08826 0.0
C1205 C 0.9666 0.52332 0.08168 0.0
C1206 C 0.95694 0.57957 0.05376 0.0
C1207 C 0.92031 0.56928 0.05661 0.0
N1208 N 0.87133 0.52646 0.07422 0.0
N1209 N 0.01486 0.56269 0.05795 0.0
C1210 C 0.90685 0.53702 0.0737 0.0
C1211 C 0.98009 0.55556 0.06459 0.0
N1212 N 0.91878 0.48595 0.10836 0.0
N1213 N 0.96943 0.61255 0.04115 0.0
H1214 H 0.03279 0.54642 0.06686 0.0
H1215 H 0.02577 0.58372 0.04229 0.0
H1216 H 0.95294 0.63058 0.03319 0.0
H1217 H 0.99595 0.62309 0.04106 0.0
H1218 H 0.8937 0.48053 0.11742 0.0
H1219 H 0.93496 0.46833 0.1182 0.0
H1220 H 0.85974 0.50145 0.08231 0.0
H1221 H 0.85305 0.54199 0.06449 0.0
C1222 C 0.10436 0.95059 0.99626 0.0
C1223 C 0.08505 0.94696 0.02595 0.0
C1224 C 0.12564 0.90953 0.05323 0.0
C1225 C 0.14008 0.90786 0.02141 0.0
N1226 N 0.13994 0.92366 0.9613 0.0
N1227 N 0.07873 0.92441 0.08411 0.0
C1228 C 0.12868 0.92767 0.99257 0.0
C1229 C 0.09618 0.92689 0.05491 0.0
N1230 N 0.10065 0.97681 0.97214 0.0
N1231 N 0.14132 0.89627 0.08216 0.0
H1232 H 0.05985 0.9397 0.08806 0.0
H1233 H 0.08214 0.90624 0.10415 0.0
H1234 H 0.16365 0.88452 0.08222 0.0
H1235 H 0.13445 0.8999 0.10649 0.0
H1236 H 0.11637 0.98237 0.95145 0.0
H1237 H 0.08518 0.9958 0.975 0.0
H1238 H 0.12954 0.93474 0.93895 0.0
H1239 H 0.15712 0.90657 0.95726 0.0
loop_
_geom_bond_atom_site_label_1
_geom_bond_atom_site_label_2
_geom_bond_distance
_geom_bond_site_symmetry_2
_ccdc_geom_bond_type
H0 C7 0.929 . S
H1 C10 0.941 . S
H2 C12 0.929 1_556 S
H3 C4 0.969 . S
C4 H3 0.969 . S
C4 O5 1.550 1_565 S
C4 H6 0.973 . S
O5 C4 1.550 1_545 S
O5 C11 1.412 . S
H6 C4 0.973 . S
C7 H0 0.929 . S
C7 C8 1.400 1_655 S
C7 C9 1.364 1_655 S
C8 C7 1.400 1_455 S
C8 C12 1.377 . S
C9 C7 1.364 1_455 S
C9 C10 1.374 . S
C10 H1 0.941 . S
C10 C9 1.374 . S
C10 C11 1.383 . S
C11 O5 1.412 . S
C11 C10 1.383 . S
C11 C12 1.394 . S
C12 H2 0.929 1_554 S
C12 C8 1.377 . S
C12 C11 1.394 . S
H13 C20 0.929 . S
H14 C23 0.930 . S
H15 C25 0.929 . S
H16 C17 0.969 . S
C17 H16 0.969 . S
C17 O18 1.550 . S
C17 H19 0.973 . S
O18 C17 1.550 . S
O18 C24 1.412 . S
H19 C17 0.973 . S
C20 H13 0.929 . S
C20 C21 1.400 . S
C20 C22 1.364 . S
C21 C20 1.400 . S
C21 C25 1.377 . S
C22 C20 1.364 . S
C22 C23 1.374 . S
C23 H14 0.930 . S
C23 C22 1.374 . S
C23 C24 1.383 . S
C24 O18 1.412 . S
C24 C23 1.383 . S
C24 C25 1.394 . S
C25 H15 0.929 . S
C25 C21 1.377 . S
C25 C24 1.394 . S
H26 C33 0.929 . S
H27 C36 0.930 . S
H28 C38 0.929 1_455 S
H29 C30 0.969 . S
C30 H29 0.969 . S
C30 O31 1.550 . S
C30 H32 0.973 . S
O31 C30 1.550 . S
O31 C37 1.412 . S
H32 C30 0.973 . S
C33 H26 0.929 . S
C33 C34 1.400 . S
C33 C35 1.364 . S
C34 C33 1.400 . S
C34 C38 1.377 . S
C35 C33 1.364 . S
C35 C36 1.374 . S
C36 H27 0.930 . S
C36 C35 1.374 . S
C36 C37 1.383 . S
C37 O31 1.412 . S
C37 C36 1.383 . S
C37 C38 1.394 . S
C38 H28 0.929 1_655 S
C38 C34 1.377 . S
C38 C37 1.394 . S
H39 C46 0.929 . S
H40 C49 0.930 . S
H41 C51 0.929 . S
H42 C43 0.969 . S
C43 H42 0.969 . S
C43 O44 1.550 . S
C43 H45 0.973 . S
O44 C43 1.550 . S
O44 C50 1.412 . S
H45 C43 0.973 . S
C46 H39 0.929 . S
C46 C47 1.400 . S
C46 C48 1.364 . S
C47 C46 1.400 . S
C47 C51 1.377 . S
C48 C46 1.364 . S
C48 C49 1.374 . S
C49 H40 0.930 . S
C49 C48 1.374 . S
C49 C50 1.383 . S
C50 O44 1.412 . S
C50 C49 1.383 . S
C50 C51 1.394 . S
C51 H41 0.929 . S
C51 C47 1.377 . S
C51 C50 1.394 . S
H52 C59 0.929 . S
H53 C62 0.930 . S
H54 C64 0.929 1_545 S
H55 C56 0.989 . S
C56 H55 0.989 . S
C56 O57 1.550 . S
C56 H58 0.973 . S
O57 C56 1.550 . S
O57 C63 1.412 . S
H58 C56 0.973 . S
C59 H52 0.929 . S
C59 C60 1.400 . S
C59 C61 1.364 . S
C60 C59 1.400 . S
C60 C64 1.377 . S
C61 C59 1.364 . S
C61 C62 1.374 . S
C62 H53 0.930 . S
C62 C61 1.374 . S
C62 C63 1.383 . S
C63 O57 1.412 . S
C63 C62 1.383 . S
C63 C64 1.394 . S
C64 H54 0.929 1_565 S
C64 C60 1.377 . S
C64 C63 1.394 . S
H65 C72 0.929 . S
H66 C75 0.930 . S
H67 C77 0.929 . S
H68 C69 0.969 . S
C69 H68 0.969 . S
C69 O70 1.550 . S
C69 H71 0.973 . S
O70 C69 1.550 . S
O70 C76 1.412 . S
H71 C69 0.973 . S
C72 H65 0.929 . S
C72 C73 1.400 . S
C72 C74 1.364 . S
C73 C72 1.400 . S
C73 C77 1.377 . S
C74 C72 1.364 . S
C74 C75 1.374 . S
C75 H66 0.930 . S
C75 C74 1.374 . S
C75 C76 1.383 . S
C76 O70 1.412 . S
C76 C75 1.383 . S
C76 C77 1.394 . S
C77 H67 0.929 . S
C77 C73 1.377 . S
C77 C76 1.394 . S
H78 C85 0.929 . S
H79 C88 0.930 . S
H80 C90 0.915 1_455 S
H81 C82 0.969 . S
C82 H81 0.969 . S
C82 O83 1.550 . S
C82 H84 0.973 . S
O83 C82 1.550 . S
O83 C89 1.412 1_455 S
H84 C82 0.973 . S
C85 H78 0.929 . S
C85 C86 1.400 . S
C85 C87 1.364 . S
C86 C85 1.400 . S
C86 C90 1.391 . S
C87 C85 1.364 . S
C87 C88 1.374 . S
C88 H79 0.930 . S
C88 C87 1.374 . S
C88 C89 1.383 . S
C89 O83 1.412 1_655 S
C89 C88 1.383 . S
C89 C90 1.394 . S
C90 H80 0.915 1_655 S
C90 C86 1.391 . S
C90 C89 1.394 . S
H91 C98 0.929 . S
H92 C101 0.930 . S
H93 C103 0.929 . S
H94 C95 0.969 . S
C95 H94 0.969 . S
C95 O96 1.550 . S
C95 H97 0.973 . S
O96 C95 1.550 . S
O96 C102 1.412 . S
H97 C95 0.973 . S
C98 H91 0.929 . S
C98 C99 1.400 . S
C98 C100 1.364 . S
C99 C98 1.400 . S
C99 C103 1.377 . S
C100 C98 1.364 . S
C100 C101 1.374 . S
C101 H92 0.930 . S
C101 C100 1.374 . S
C101 C102 1.383 . S
C102 O96 1.412 . S
C102 C101 1.383 . S
C102 C103 1.394 . S
C103 H93 0.929 . S
C103 C99 1.377 . S
C103 C102 1.394 . S
H104 C111 0.929 . S
H105 C114 0.930 . S
H106 C116 0.929 . S
H107 C108 0.969 . S
C108 H107 0.969 . S
C108 O109 1.550 . S
C108 H110 0.973 . S
O109 C108 1.550 . S
O109 C115 1.412 . S
H110 C108 0.973 . S
C111 H104 0.929 . S
C111 C112 1.400 . S
C111 C113 1.364 . S
C112 C111 1.400 . S
C112 C116 1.377 . S
C113 C111 1.364 . S
C113 C114 1.374 . S
C114 H105 0.930 . S
C114 C113 1.374 . S
C114 C115 1.383 . S
C115 O109 1.412 . S
C115 C114 1.383 . S
C115 C116 1.394 . S
C116 H106 0.929 . S
C116 C112 1.377 . S
C116 C115 1.394 . S
H117 C124 0.929 1_545 S
H118 C127 0.930 . S
H119 C129 0.929 . S
H120 C121 0.969 . S
C121 H120 0.969 . S
C121 O122 1.550 . S
C121 H123 0.973 . S
O122 C121 1.550 . S
O122 C128 1.412 . S
H123 C121 0.973 . S
C124 H117 0.929 1_565 S
C124 C125 1.400 . S
C124 C126 1.364 . S
C125 C124 1.400 . S
C125 C129 1.377 . S
C126 C124 1.364 . S
C126 C127 1.374 . S
C127 H118 0.930 . S
C127 C126 1.374 . S
C127 C128 1.383 . S
C128 O122 1.412 . S
C128 C127 1.383 . S
C128 C129 1.394 . S
C129 H119 0.929 . S
C129 C125 1.377 . S
C129 C128 1.394 . S
H130 C137 0.929 . S
H131 C140 0.930 . S
H132 C142 0.929 . S
H133 C134 0.969 . S
C134 H133 0.969 . S
C134 O135 1.550 . S
C134 H136 0.973 . S
O135 C134 1.550 . S
O135 C141 1.412 . S
H136 C134 0.973 . S
C137 H130 0.929 . S
C137 C138 1.400 . S
C137 C139 1.364 . S
C138 C137 1.400 . S
C138 C142 1.377 . S
C139 C137 1.364 . S
C139 C140 1.374 . S
C140 H131 0.930 . S
C140 C139 1.374 . S
C140 C141 1.383 . S
C141 O135 1.412 . S
C141 C140 1.383 . S
C141 C142 1.394 . S
C142 H132 0.929 . S
C142 C138 1.377 . S
C142 C141 1.394 . S
H143 C150 0.929 . S
H144 C153 0.930 . S
H145 C155 0.929 . S
H146 C147 0.969 . S
C147 H146 0.969 . S
C147 O148 1.550 . S
C147 H149 0.973 . S
O148 C147 1.550 . S
O148 C154 1.412 . S
H149 C147 0.973 . S
C150 H143 0.929 . S
C150 C151 1.400 . S
C150 C152 1.364 . S
C151 C150 1.400 . S
C151 C155 1.377 . S
C152 C150 1.364 . S
C152 C153 1.374 . S
C153 H144 0.930 . S
C153 C152 1.374 . S
C153 C154 1.383 . S
C154 O148 1.412 . S
C154 C153 1.383 . S
C154 C155 1.394 . S
C155 H145 0.929 . S
C155 C151 1.377 . S
C155 C154 1.394 . S
H156 C163 0.929 . S
H157 C166 0.930 . S
H158 C168 0.929 . S
H159 C160 0.969 . S
C160 H159 0.969 . S
C160 O161 1.550 . S
C160 H162 0.973 . S
O161 C160 1.550 . S
O161 C167 1.412 . S
H162 C160 0.973 . S
C163 H156 0.929 . S
C163 C164 1.400 . S
C163 C165 1.364 . S
C164 C163 1.400 . S
C164 C168 1.377 . S
C165 C163 1.364 . S
C165 C166 1.374 . S
C166 H157 0.930 . S
C166 C165 1.374 . S
C166 C167 1.383 . S
C167 O161 1.412 . S
C167 C166 1.383 . S
C167 C168 1.394 . S
C168 H158 0.929 . S
C168 C164 1.377 . S
C168 C167 1.394 . S
H169 C176 0.929 . S
H170 C179 0.930 . S
H171 C181 0.929 . S
H172 C173 0.969 . S
C173 H172 0.969 . S
C173 O174 1.550 . S
C173 H175 0.973 . S
O174 C173 1.550 . S
O174 C180 1.412 . S
H175 C173 0.973 . S
C176 H169 0.929 . S
C176 C177 1.400 1_554 S
C176 C178 1.364 1_554 S
C177 C176 1.400 1_556 S
C177 C181 1.377 . S
C178 C176 1.364 1_556 S
C178 C179 1.374 . S
C179 H170 0.930 . S
C179 C178 1.374 . S
C179 C180 1.383 . S
C180 O174 1.412 . S
C180 C179 1.383 . S
C180 C181 1.394 . S
C181 H171 0.929 . S
C181 C177 1.377 . S
C181 C180 1.394 . S
H182 C189 0.929 . S
H183 C192 0.930 . S
H184 C194 0.929 . S
H185 C186 0.969 . S
C186 H185 0.969 . S
C186 O187 1.550 . S
C186 H188 0.973 . S
O187 C186 1.550 . S
O187 C193 1.412 . S
H188 C186 0.973 . S
C189 H182 0.929 . S
C189 C190 1.400 . S
C189 C191 1.364 . S
C190 C189 1.400 . S
C190 C194 1.377 . S
C191 C189 1.364 . S
C191 C192 1.374 . S
C192 H183 0.930 . S
C192 C191 1.374 . S
C192 C193 1.383 . S
C193 O187 1.412 . S
C193 C192 1.383 . S
C193 C194 1.394 . S
C194 H184 0.929 . S
C194 C190 1.377 . S
C194 C193 1.394 . S
H195 C202 0.929 . S
H196 C205 0.930 . S
H197 C207 0.929 . S
H198 C199 0.969 . S
C199 H198 0.969 . S
C199 O200 1.550 . S
C199 H201 0.973 . S
O200 C199 1.550 . S
O200 C206 1.412 . S
H201 C199 0.973 . S
C202 H195 0.929 . S
C202 C203 1.400 . S
C202 C204 1.364 1_554 S
C203 C202 1.400 . S
C203 C207 1.377 1_554 S
C204 C202 1.364 1_556 S
C204 C205 1.374 . S
C205 H196 0.930 . S
C205 C204 1.374 . S
C205 C206 1.383 . S
C206 O200 1.412 . S
C206 C205 1.383 . S
C206 C207 1.394 . S
C207 H197 0.929 . S
C207 C203 1.377 1_556 S
C207 C206 1.394 . S
Zn208 O211 2.029 . S
Zn208 O213 2.051 1_554 S
Zn208 O218 2.070 1_554 S
Zn209 O210 1.962 . S
Zn209 O212 1.986 . S
Zn209 O214 1.996 . S
Zn209 O217 1.943 1_554 S
O210 Zn209 1.962 . S
O210 C215 1.254 . S
O211 Zn208 2.029 . S
O211 C215 1.269 . S
O212 Zn209 1.986 . S
O212 C219 1.262 . S
O213 Zn208 2.051 1_556 S
O213 C221 1.260 . S
O214 Zn209 1.996 . S
O214 C221 1.257 1_554 S
C215 O210 1.254 . S
C215 O211 1.269 . S
C216 O217 1.249 . S
C216 O218 1.270 . S
O217 Zn209 1.943 1_556 S
O217 C216 1.249 . S
O218 Zn208 2.070 1_556 S
O218 C216 1.270 . S
C219 O212 1.262 . S
C219 O220 1.232 . S
O220 C219 1.232 . S
C221 O213 1.260 . S
C221 O214 1.257 1_556 S
Zn222 O225 2.031 . S
Zn222 O227 2.049 . S
Zn222 O232 2.067 . S
Zn223 O224 1.962 . S
Zn223 O226 1.986 . S
Zn223 O228 1.996 . S
Zn223 O231 1.943 . S
O224 Zn223 1.962 . S
O224 C229 1.254 . S
O225 Zn222 2.031 . S
O225 C229 1.269 . S
O226 Zn223 1.986 . S
O226 C233 1.262 . S
O227 Zn222 2.049 . S
O227 C235 1.260 . S
O228 Zn223 1.996 . S
O228 C235 1.257 . S
C229 O224 1.254 . S
C229 O225 1.269 . S
C230 O231 1.249 . S
C230 O232 1.270 . S
O231 Zn223 1.943 . S
O231 C230 1.249 . S
O232 Zn222 2.067 . S
O232 C230 1.270 . S
C233 O226 1.262 . S
C233 O234 1.232 . S
O234 C233 1.232 . S
C235 O227 1.260 . S
C235 O228 1.257 . S
Zn236 O239 2.031 1_556 S
Zn236 O241 2.049 . S
Zn236 O246 2.067 . S
Zn237 O238 1.962 . S
Zn237 O240 1.986 . S
Zn237 O242 1.996 . S
Zn237 O245 1.943 . S
O238 Zn237 1.962 . S
O238 C243 1.254 . S
O239 Zn236 2.031 1_554 S
O239 C243 1.269 . S
O240 Zn237 1.986 . S
O240 C247 1.262 . S
O241 Zn236 2.049 . S
O241 C249 1.260 . S
O242 Zn237 1.996 . S
O242 C249 1.257 1_554 S
C243 O238 1.254 . S
C243 O239 1.269 . S
C244 O245 1.249 . S
C244 O246 1.270 1_554 S
O245 Zn237 1.943 . S
O245 C244 1.249 . S
O246 Zn236 2.067 . S
O246 C244 1.270 1_556 S
C247 O240 1.262 . S
C247 O248 1.232 . S
O248 C247 1.232 . S
C249 O241 1.260 . S
C249 O242 1.257 1_556 S
Zn250 O253 2.031 . S
Zn250 O255 2.049 1_545 S
Zn250 O260 2.067 1_545 S
Zn251 O252 1.962 . S
Zn251 O254 1.986 . S
Zn251 O256 1.996 . S
Zn251 O259 1.943 1_545 S
O252 Zn251 1.962 . S
O252 C257 1.254 . S
O253 Zn250 2.031 . S
O253 C257 1.269 . S
O254 Zn251 1.986 . S
O254 C261 1.262 . S
O255 Zn250 2.049 1_565 S
O255 C263 1.260 1_565 S
O256 Zn251 1.996 . S
O256 C263 1.257 . S
C257 O252 1.254 . S
C257 O253 1.269 . S
C258 O259 1.249 . S
C258 O260 1.270 . S
O259 Zn251 1.943 1_565 S
O259 C258 1.249 . S
O260 Zn250 2.067 1_565 S
O260 C258 1.270 . S
C261 O254 1.262 . S
C261 O262 1.232 . S
O262 C261 1.232 . S
C263 O255 1.260 1_545 S
C263 O256 1.257 . S
Zn264 O267 2.031 . S
Zn264 O269 2.049 . S
Zn264 O274 2.067 . S
Zn265 O266 1.962 . S
Zn265 O268 1.986 . S
Zn265 O270 1.996 . S
Zn265 O273 1.943 . S
O266 Zn265 1.962 . S
O266 C271 1.254 . S
O267 Zn264 2.031 . S
O267 C271 1.269 . S
O268 Zn265 1.986 . S
O268 C275 1.262 . S
O269 Zn264 2.049 . S
O269 C277 1.260 . S
O270 Zn265 1.996 . S
O270 C277 1.257 . S
C271 O266 1.254 . S
C271 O267 1.269 . S
C272 O273 1.249 . S
C272 O274 1.270 . S
O273 Zn265 1.943 . S
O273 C272 1.249 . S
O274 Zn264 2.067 . S
O274 C272 1.270 . S
C275 O268 1.262 . S
C275 O276 1.232 . S
O276 C275 1.232 . S
C277 O269 1.260 . S
C277 O270 1.257 . S
Zn278 O281 2.031 . S
Zn278 O283 2.049 . S
Zn278 O288 2.067 . S
Zn279 O280 1.962 . S
Zn279 O282 1.986 . S
Zn279 O284 1.996 . S
Zn279 O287 1.943 . S
O280 Zn279 1.962 . S
O280 C285 1.254 . S
O281 Zn278 2.031 . S
O281 C285 1.269 . S
O282 Zn279 1.986 . S
O282 C289 1.262 . S
O283 Zn278 2.049 . S
O283 C291 1.260 . S
O284 Zn279 1.996 . S
O284 C291 1.257 . S
C285 O280 1.254 . S
C285 O281 1.269 . S
C286 O287 1.249 . S
C286 O288 1.270 . S
O287 Zn279 1.943 . S
O287 C286 1.249 . S
O288 Zn278 2.067 . S
O288 C286 1.270 . S
C289 O282 1.262 . S
C289 O290 1.232 . S
O290 C289 1.232 . S
C291 O283 1.260 . S
C291 O284 1.257 . S
Zn292 O295 2.031 . S
Zn292 O297 2.049 . S
Zn292 O302 2.067 . S
Zn293 O294 1.962 . S
Zn293 O296 1.986 . S
Zn293 O298 1.996 . S
Zn293 O301 1.943 . S
O294 Zn293 1.962 . S
O294 C299 1.254 . S
O295 Zn292 2.031 . S
O295 C299 1.269 . S
O296 Zn293 1.986 . S
O296 C303 1.262 . S
O297 Zn292 2.049 . S
O297 C305 1.260 . S
O298 Zn293 1.996 . S
O298 C305 1.257 . S
C299 O294 1.254 . S
C299 O295 1.269 . S
C300 O301 1.249 . S
C300 O302 1.270 . S
O301 Zn293 1.943 . S
O301 C300 1.249 . S
O302 Zn292 2.067 . S
O302 C300 1.270 . S
C303 O296 1.262 . S
C303 O304 1.232 . S
O304 C303 1.232 . S
C305 O297 1.260 . S
C305 O298 1.257 . S
Zn306 O309 2.031 . S
Zn306 O311 2.049 . S
Zn306 O316 2.067 . S
Zn307 O308 1.962 . S
Zn307 O310 1.986 . S
Zn307 O312 1.996 1_545 S
Zn307 O315 1.943 . S
O308 Zn307 1.962 . S
O308 C313 1.254 . S
O309 Zn306 2.031 . S
O309 C313 1.269 1_565 S
O310 Zn307 1.986 . S
O310 C317 1.262 . S
O311 Zn306 2.049 . S
O311 C319 1.260 . S
O312 Zn307 1.996 1_565 S
O312 C319 1.257 . S
C313 O308 1.254 . S
C313 O309 1.269 1_545 S
C314 O315 1.249 1_565 S
C314 O316 1.270 . S
O315 Zn307 1.943 . S
O315 C314 1.249 1_545 S
O316 Zn306 2.067 . S
O316 C314 1.270 . S
C317 O310 1.262 . S
C317 O318 1.232 . S
O318 C317 1.232 . S
C319 O311 1.260 . S
C319 O312 1.257 . S
Zn320 O323 2.031 . S
Zn320 O325 2.049 1_455 S
Zn320 O330 2.067 1_455 S
Zn321 O322 1.962 . S
Zn321 O324 1.986 . S
Zn321 O326 1.996 . S
Zn321 O329 1.943 1_455 S
O322 Zn321 1.962 . S
O322 C327 1.254 . S
O323 Zn320 2.031 . S
O323 C327 1.269 . S
O324 Zn321 1.986 . S
O324 C331 1.262 . S
O325 Zn320 2.049 1_655 S
O325 C333 1.260 . S
O326 Zn321 1.996 . S
O326 C333 1.257 1_455 S
C327 O322 1.254 . S
C327 O323 1.269 . S
C328 O329 1.249 . S
C328 O330 1.270 . S
O329 Zn321 1.943 1_655 S
O329 C328 1.249 . S
O330 Zn320 2.067 1_655 S
O330 C328 1.270 . S
C331 O324 1.262 . S
C331 O332 1.232 . S
O332 C331 1.232 . S
C333 O325 1.260 . S
C333 O326 1.257 1_655 S
Zn334 O337 2.031 . S
Zn334 O339 2.049 . S
Zn334 O344 2.067 . S
Zn335 O336 1.962 . S
Zn335 O338 1.986 . S
Zn335 O340 1.996 . S
Zn335 O343 1.943 . S
O336 Zn335 1.962 . S
O336 C341 1.254 . S
O337 Zn334 2.031 . S
O337 C341 1.269 . S
O338 Zn335 1.986 . S
O338 C345 1.262 . S
O339 Zn334 2.049 . S
O339 C347 1.260 . S
O340 Zn335 1.996 . S
O340 C347 1.257 . S
C341 O336 1.254 . S
C341 O337 1.269 . S
C342 O343 1.249 . S
C342 O344 1.270 . S
O343 Zn335 1.943 . S
O343 C342 1.249 . S
O344 Zn334 2.067 . S
O344 C342 1.270 . S
C345 O338 1.262 . S
C345 O346 1.232 . S
O346 C345 1.232 . S
C347 O339 1.260 . S
C347 O340 1.257 . S
Zn348 O351 2.031 1_655 S
Zn348 O353 2.049 . S
Zn348 O358 2.067 . S
Zn349 O350 1.962 . S
Zn349 O352 1.986 . S
Zn349 O354 1.996 1_455 S
Zn349 O357 1.943 . S
O350 Zn349 1.962 . S
O350 C355 1.254 . S
O351 Zn348 2.031 1_455 S
O351 C355 1.269 . S
O352 Zn349 1.986 . S
O352 C359 1.262 . S
O353 Zn348 2.049 . S
O353 C361 1.260 . S
O354 Zn349 1.996 1_655 S
O354 C361 1.257 . S
C355 O350 1.254 . S
C355 O351 1.269 . S
C356 O357 1.249 . S
C356 O358 1.270 1_455 S
O357 Zn349 1.943 . S
O357 C356 1.249 . S
O358 Zn348 2.067 . S
O358 C356 1.270 1_655 S
C359 O352 1.262 . S
C359 O360 1.232 . S
O360 C359 1.232 . S
C361 O353 1.260 . S
C361 O354 1.257 . S
Zn362 O365 2.031 . S
Zn362 O367 2.049 . S
Zn362 O372 2.067 . S
Zn363 O364 1.962 . S
Zn363 O366 1.986 . S
Zn363 O368 1.996 . S
Zn363 O371 1.943 . S
O364 Zn363 1.962 . S
O364 C369 1.254 . S
O365 Zn362 2.031 . S
O365 C369 1.269 . S
O366 Zn363 1.986 . S
O366 C373 1.262 . S
O367 Zn362 2.049 . S
O367 C375 1.260 . S
O368 Zn363 1.996 . S
O368 C375 1.257 . S
C369 O364 1.254 . S
C369 O365 1.269 . S
C370 O371 1.249 . S
C370 O372 1.270 . S
O371 Zn363 1.943 . S
O371 C370 1.249 . S
O372 Zn362 2.067 . S
O372 C370 1.270 . S
C373 O366 1.262 . S
C373 O374 1.232 . S
O374 C373 1.232 . S
C375 O367 1.260 . S
C375 O368 1.257 . S
C376 C377 1.363 . S
C376 C382 1.379 . S
C376 N384 1.356 . S
C377 C376 1.363 . S
C377 C383 1.363 . S
C378 C379 1.363 . S
C378 C383 1.379 . S
C378 N385 1.356 . S
C379 C378 1.363 . S
C379 C382 1.363 . S
N380 C382 1.356 . S
N380 H392 0.984 . S
N380 H393 0.985 . S
N381 C383 1.356 . S
N381 H386 0.984 . S
N381 H387 0.985 . S
C382 C376 1.379 . S
C382 C379 1.363 . S
C382 N380 1.356 . S
C383 C377 1.363 . S
C383 C378 1.379 . S
C383 N381 1.356 . S
N384 C376 1.356 . S
N384 H390 0.984 . S
N384 H391 0.984 . S
N385 C378 1.356 . S
N385 H388 0.984 . S
N385 H389 0.985 . S
H386 N381 0.984 . S
H387 N381 0.985 . S
H388 N385 0.984 . S
H389 N385 0.985 . S
H390 N384 0.984 . S
H391 N384 0.984 . S
H392 N380 0.984 . S
H393 N380 0.985 . S
C394 C395 1.363 . S
C394 C400 1.379 . S
C394 N402 1.356 . S
C395 C394 1.363 . S
C395 C401 1.363 . S
C396 C397 1.363 . S
C396 C401 1.379 . S
C396 N403 1.356 . S
C397 C396 1.363 . S
C397 C400 1.363 . S
N398 C400 1.356 . S
N398 H410 0.984 . S
N398 H411 0.985 . S
N399 C401 1.356 . S
N399 H404 0.984 1_455 S
N399 H405 0.985 1_455 S
C400 C394 1.379 . S
C400 C397 1.363 . S
C400 N398 1.356 . S
C401 C395 1.363 . S
C401 C396 1.379 . S
C401 N399 1.356 . S
N402 C394 1.356 . S
N402 H408 0.984 . S
N402 H409 0.984 . S
N403 C396 1.356 . S
N403 H406 0.984 . S
N403 H407 0.985 . S
H404 N399 0.984 1_655 S
H405 N399 0.985 1_655 S
H406 N403 0.984 . S
H407 N403 0.985 . S
H408 N402 0.984 . S
H409 N402 0.984 . S
H410 N398 0.984 . S
H411 N398 0.985 . S
C412 C413 1.363 . S
C412 C418 1.379 . S
C412 N420 1.356 . S
C413 C412 1.363 . S
C413 C419 1.363 . S
C414 C415 1.363 . S
C414 C419 1.379 . S
C414 N421 1.356 . S
C415 C414 1.363 . S
C415 C418 1.363 . S
N416 C418 1.356 . S
N416 H428 0.984 . S
N416 H429 0.985 . S
N417 C419 1.356 . S
N417 H422 0.984 . S
N417 H423 0.985 . S
C418 C412 1.379 . S
C418 C415 1.363 . S
C418 N416 1.356 . S
C419 C413 1.363 . S
C419 C414 1.379 . S
C419 N417 1.356 . S
N420 C412 1.356 . S
N420 H426 0.984 . S
N420 H427 0.984 . S
N421 C414 1.356 . S
N421 H424 0.984 . S
N421 H425 0.985 . S
H422 N417 0.984 . S
H423 N417 0.985 . S
H424 N421 0.984 . S
H425 N421 0.985 . S
H426 N420 0.984 . S
H427 N420 0.984 . S
H428 N416 0.984 . S
H429 N416 0.985 . S
C430 C431 1.362 1_655 S
C430 C436 1.379 . S
C430 N438 1.356 . S
C431 C430 1.362 1_455 S
C431 C437 1.363 . S
C432 C433 1.363 . S
C432 C437 1.379 1_655 S
C432 N439 1.356 1_565 S
C433 C432 1.363 . S
C433 C436 1.363 . S
N434 C436 1.356 . S
N434 H446 0.984 . S
N434 H447 0.985 . S
N435 C437 1.356 . S
N435 H440 0.984 . S
N435 H441 0.985 . S
C436 C430 1.379 . S
C436 C433 1.363 . S
C436 N434 1.356 . S
C437 C431 1.363 . S
C437 C432 1.379 1_455 S
C437 N435 1.356 . S
N438 C430 1.356 . S
N438 H444 0.984 . S
N438 H445 0.984 . S
N439 C432 1.356 1_545 S
N439 H442 0.984 . S
N439 H443 0.985 1_655 S
H440 N435 0.984 . S
H441 N435 0.985 . S
H442 N439 0.984 . S
H443 N439 0.985 1_455 S
H444 N438 0.984 . S
H445 N438 0.984 . S
H446 N434 0.984 . S
H447 N434 0.985 . S
C448 C449 1.363 . S
C448 C454 1.379 . S
C448 N456 1.356 . S
C449 C448 1.363 . S
C449 C455 1.363 . S
C450 C451 1.363 . S
C450 C455 1.379 . S
C450 N457 1.356 . S
C451 C450 1.363 . S
C451 C454 1.363 . S
N452 C454 1.356 . S
N452 H464 0.984 . S
N452 H465 0.985 . S
N453 C455 1.356 . S
N453 H458 0.984 . S
N453 H459 0.985 . S
C454 C448 1.379 . S
C454 C451 1.363 . S
C454 N452 1.356 . S
C455 C449 1.363 . S
C455 C450 1.379 . S
C455 N453 1.356 . S
N456 C448 1.356 . S
N456 H462 0.984 . S
N456 H463 0.984 . S
N457 C450 1.356 . S
N457 H460 0.984 . S
N457 H461 0.985 . S
H458 N453 0.984 . S
H459 N453 0.985 . S
H460 N457 0.984 . S
H461 N457 0.985 . S
H462 N456 0.984 . S
H463 N456 0.984 . S
H464 N452 0.984 . S
H465 N452 0.985 . S
C466 C467 1.363 . S
C466 C472 1.379 . S
C466 N474 1.356 . S
C467 C466 1.363 . S
C467 C473 1.363 . S
C468 C469 1.363 . S
C468 C473 1.379 . S
C468 N475 1.356 . S
C469 C468 1.363 . S
C469 C472 1.363 . S
N470 C472 1.356 . S
N470 H482 0.984 . S
N470 H483 0.985 . S
N471 C473 1.356 . S
N471 H476 0.984 . S
N471 H477 0.985 . S
C472 C466 1.379 . S
C472 C469 1.363 . S
C472 N470 1.356 . S
C473 C467 1.363 . S
C473 C468 1.379 . S
C473 N471 1.356 . S
N474 C466 1.356 . S
N474 H480 0.984 . S
N474 H481 0.984 . S
N475 C468 1.356 . S
N475 H478 0.984 . S
N475 H479 0.985 . S
H476 N471 0.984 . S
H477 N471 0.985 . S
H478 N475 0.984 . S
H479 N475 0.985 . S
H480 N474 0.984 . S
H481 N474 0.984 . S
H482 N470 0.984 . S
H483 N470 0.985 . S
C484 C485 1.363 . S
C484 C490 1.379 . S
C484 N492 1.356 . S
C485 C484 1.363 . S
C485 C491 1.363 . S
C486 C487 1.363 . S
C486 C491 1.379 . S
C486 N493 1.356 . S
C487 C486 1.363 . S
C487 C490 1.363 . S
N488 C490 1.356 . S
N488 H500 0.984 . S
N488 H501 0.985 . S
N489 C491 1.356 . S
N489 H494 0.984 . S
N489 H495 0.985 . S
C490 C484 1.379 . S
C490 C487 1.363 . S
C490 N488 1.356 . S
C491 C485 1.363 . S
C491 C486 1.379 . S
C491 N489 1.356 . S
N492 C484 1.356 . S
N492 H498 0.984 . S
N492 H499 0.984 . S
N493 C486 1.356 . S
N493 H496 0.984 . S
N493 H497 0.985 . S
H494 N489 0.984 . S
H495 N489 0.985 . S
H496 N493 0.984 . S
H497 N493 0.985 . S
H498 N492 0.984 . S
H499 N492 0.984 . S
H500 N488 0.984 . S
H501 N488 0.985 . S
C502 C503 1.363 1_545 S
C502 C508 1.379 . S
C502 N510 1.356 . S
C503 C502 1.363 1_565 S
C503 C509 1.363 . S
C504 C505 1.363 . S
C504 C509 1.379 . S
C504 N511 1.356 . S
C505 C504 1.363 . S
C505 C508 1.363 1_565 S
N506 C508 1.356 . S
N506 H518 0.984 . S
N506 H519 0.985 . S
N507 C509 1.356 . S
N507 H512 0.984 . S
N507 H513 0.985 . S
C508 C502 1.379 . S
C508 C505 1.363 1_545 S
C508 N506 1.356 . S
C509 C503 1.363 . S
C509 C504 1.379 . S
C509 N507 1.356 . S
N510 C502 1.356 . S
N510 H516 0.984 . S
N510 H517 0.984 . S
N511 C504 1.356 . S
N511 H514 0.984 . S
N511 H515 0.985 . S
H512 N507 0.984 . S
H513 N507 0.985 . S
H514 N511 0.984 . S
H515 N511 0.985 . S
H516 N510 0.984 . S
H517 N510 0.984 . S
H518 N506 0.984 . S
H519 N506 0.985 . S
C520 C521 1.363 . S
C520 C526 1.379 . S
C520 N528 1.356 . S
C521 C520 1.363 . S
C521 C527 1.363 . S
C522 C523 1.363 . S
C522 C527 1.379 . S
C522 N529 1.356 . S
C523 C522 1.363 . S
C523 C526 1.363 . S
N524 C526 1.356 . S
N524 H536 0.984 . S
N524 H537 0.985 . S
N525 C527 1.356 . S
N525 H530 0.984 . S
N525 H531 0.985 . S
C526 C520 1.379 . S
C526 C523 1.363 . S
C526 N524 1.356 . S
C527 C521 1.363 . S
C527 C522 1.379 . S
C527 N525 1.356 . S
N528 C520 1.356 . S
N528 H534 0.984 . S
N528 H535 0.984 . S
N529 C522 1.356 . S
N529 H532 0.984 . S
N529 H533 0.985 . S
H530 N525 0.984 . S
H531 N525 0.985 . S
H532 N529 0.984 . S
H533 N529 0.985 . S
H534 N528 0.984 . S
H535 N528 0.984 . S
H536 N524 0.984 . S
H537 N524 0.985 . S
C538 C539 1.363 . S
C538 C544 1.379 . S
C538 N546 1.356 . S
C539 C538 1.363 . S
C539 C545 1.363 . S
C540 C541 1.363 . S
C540 C545 1.379 . S
C540 N547 1.356 . S
C541 C540 1.363 . S
C541 C544 1.363 . S
N542 C544 1.356 . S
N542 H554 0.984 . S
N542 H555 0.985 . S
N543 C545 1.356 . S
N543 H548 0.984 . S
N543 H549 0.985 . S
C544 C538 1.379 . S
C544 C541 1.363 . S
C544 N542 1.356 . S
C545 C539 1.363 . S
C545 C540 1.379 . S
C545 N543 1.356 . S
N546 C538 1.356 . S
N546 H552 0.984 . S
N546 H553 0.984 . S
N547 C540 1.356 . S
N547 H550 0.984 . S
N547 H551 0.985 . S
H548 N543 0.984 . S
H549 N543 0.985 . S
H550 N547 0.984 . S
H551 N547 0.985 . S
H552 N546 0.984 . S
H553 N546 0.984 . S
H554 N542 0.984 . S
H555 N542 0.985 . S
C556 C557 1.363 . S
C556 C562 1.379 . S
C556 N564 1.356 . S
C557 C556 1.363 . S
C557 C563 1.363 . S
C558 C559 1.363 . S
C558 C563 1.379 . S
C558 N565 1.356 . S
C559 C558 1.363 . S
C559 C562 1.363 . S
N560 C562 1.356 . S
N560 H572 0.984 . S
N560 H573 0.985 . S
N561 C563 1.356 . S
N561 H566 0.984 . S
N561 H567 0.985 . S
C562 C556 1.379 . S
C562 C559 1.363 . S
C562 N560 1.356 . S
C563 C557 1.363 . S
C563 C558 1.379 . S
C563 N561 1.356 . S
N564 C556 1.356 . S
N564 H570 0.984 . S
N564 H571 0.984 . S
N565 C558 1.356 . S
N565 H568 0.984 . S
N565 H569 0.985 . S
H566 N561 0.984 . S
H567 N561 0.985 . S
H568 N565 0.984 . S
H569 N565 0.985 . S
H570 N564 0.984 . S
H571 N564 0.984 . S
H572 N560 0.984 . S
H573 N560 0.985 . S
C574 C575 1.363 . S
C574 C580 1.379 . S
C574 N582 1.356 . S
C575 C574 1.363 . S
C575 C581 1.363 . S
C576 C577 1.363 . S
C576 C581 1.379 . S
C576 N583 1.356 . S
C577 C576 1.363 . S
C577 C580 1.363 . S
N578 C580 1.356 . S
N578 H590 0.984 . S
N578 H591 0.985 . S
N579 C581 1.356 . S
N579 H584 0.984 . S
N579 H585 0.985 . S
C580 C574 1.379 . S
C580 C577 1.363 . S
C580 N578 1.356 . S
C581 C575 1.363 . S
C581 C576 1.379 . S
C581 N579 1.356 . S
N582 C574 1.356 . S
N582 H588 0.984 . S
N582 H589 0.984 . S
N583 C576 1.356 . S
N583 H586 0.984 . S
N583 H587 0.985 . S
H584 N579 0.984 . S
H585 N579 0.985 . S
H586 N583 0.984 . S
H587 N583 0.985 . S
H588 N582 0.984 . S
H589 N582 0.984 . S
H590 N578 0.984 . S
H591 N578 0.985 . S
C592 C593 1.363 . S
C592 C598 1.379 . S
C592 N600 1.356 . S
C593 C592 1.363 . S
C593 C599 1.363 . S
C594 C595 1.363 . S
C594 C599 1.379 . S
C594 N601 1.356 . S
C595 C594 1.363 . S
C595 C598 1.363 . S
N596 C598 1.356 . S
N596 H608 0.984 . S
N596 H609 0.985 . S
N597 C599 1.356 . S
N597 H602 0.984 . S
N597 H603 0.985 . S
C598 C592 1.379 . S
C598 C595 1.363 . S
C598 N596 1.356 . S
C599 C593 1.363 . S
C599 C594 1.379 . S
C599 N597 1.356 . S
N600 C592 1.356 . S
N600 H606 0.984 . S
N600 H607 0.984 . S
N601 C594 1.356 . S
N601 H604 0.984 . S
N601 H605 0.985 . S
H602 N597 0.984 . S
H603 N597 0.985 . S
H604 N601 0.984 . S
H605 N601 0.985 . S
H606 N600 0.984 . S
H607 N600 0.984 . S
H608 N596 0.984 . S
H609 N596 0.985 . S
C610 C611 1.363 . S
C610 C616 1.379 . S
C610 N618 1.356 . S
C611 C610 1.363 . S
C611 C617 1.363 . S
C612 C613 1.363 . S
C612 C617 1.379 . S
C612 N619 1.356 . S
C613 C612 1.363 . S
C613 C616 1.363 . S
N614 C616 1.356 . S
N614 H626 0.984 . S
N614 H627 0.985 . S
N615 C617 1.356 . S
N615 H620 0.984 . S
N615 H621 0.985 . S
C616 C610 1.379 . S
C616 C613 1.363 . S
C616 N614 1.356 . S
C617 C611 1.363 . S
C617 C612 1.379 . S
C617 N615 1.356 . S
N618 C610 1.356 . S
N618 H624 0.984 . S
N618 H625 0.984 . S
N619 C612 1.356 . S
N619 H622 0.984 . S
N619 H623 0.985 . S
H620 N615 0.984 . S
H621 N615 0.985 . S
H622 N619 0.984 . S
H623 N619 0.985 . S
H624 N618 0.984 . S
H625 N618 0.984 . S
H626 N614 0.984 . S
H627 N614 0.985 . S
C628 C629 1.363 . S
C628 C634 1.379 . S
C628 N636 1.356 . S
C629 C628 1.363 . S
C629 C635 1.363 . S
C630 C631 1.363 . S
C630 C635 1.379 . S
C630 N637 1.356 . S
C631 C630 1.363 . S
C631 C634 1.363 . S
N632 C634 1.356 . S
N632 H644 0.984 . S
N632 H645 0.985 . S
N633 C635 1.356 . S
N633 H638 0.984 . S
N633 H639 0.985 . S
C634 C628 1.379 . S
C634 C631 1.363 . S
C634 N632 1.356 . S
C635 C629 1.363 . S
C635 C630 1.379 . S
C635 N633 1.356 . S
N636 C628 1.356 . S
N636 H642 0.984 . S
N636 H643 0.984 . S
N637 C630 1.356 . S
N637 H640 0.984 . S
N637 H641 0.985 . S
H638 N633 0.984 . S
H639 N633 0.985 . S
H640 N637 0.984 . S
H641 N637 0.985 . S
H642 N636 0.984 . S
H643 N636 0.984 . S
H644 N632 0.984 . S
H645 N632 0.985 . S
C646 C647 1.363 . S
C646 C652 1.379 . S
C646 N654 1.356 . S
C647 C646 1.363 . S
C647 C653 1.363 . S
C648 C649 1.363 1_455 S
C648 C653 1.379 1_455 S
C648 N655 1.356 . S
C649 C648 1.363 1_655 S
C649 C652 1.363 . S
N650 C652 1.356 . S
N650 H662 0.984 . S
N650 H663 0.985 . S
N651 C653 1.356 1_455 S
N651 H656 0.984 1_455 S
N651 H657 0.985 . S
C652 C646 1.379 . S
C652 C649 1.363 . S
C652 N650 1.356 . S
C653 C647 1.363 . S
C653 C648 1.379 1_655 S
C653 N651 1.356 1_655 S
N654 C646 1.356 . S
N654 H660 0.984 . S
N654 H661 0.984 . S
N655 C648 1.356 . S
N655 H658 0.984 . S
N655 H659 0.985 . S
H656 N651 0.984 1_655 S
H657 N651 0.985 . S
H658 N655 0.984 . S
H659 N655 0.985 . S
H660 N654 0.984 . S
H661 N654 0.984 . S
H662 N650 0.984 . S
H663 N650 0.985 . S
C664 C665 1.363 . S
C664 C670 1.379 . S
C664 N672 1.356 . S
C665 C664 1.363 . S
C665 C671 1.363 . S
C666 C667 1.363 . S
C666 C671 1.379 . S
C666 N673 1.356 . S
C667 C666 1.363 . S
C667 C670 1.363 . S
N668 C670 1.356 . S
N668 H680 0.984 . S
N668 H681 0.985 . S
N669 C671 1.356 . S
N669 H674 0.984 . S
N669 H675 0.985 . S
C670 C664 1.379 . S
C670 C667 1.363 . S
C670 N668 1.356 . S
C671 C665 1.363 . S
C671 C666 1.379 . S
C671 N669 1.356 . S
N672 C664 1.356 . S
N672 H678 0.984 . S
N672 H679 0.984 . S
N673 C666 1.356 . S
N673 H676 0.984 . S
N673 H677 0.985 . S
H674 N669 0.984 . S
H675 N669 0.985 . S
H676 N673 0.984 . S
H677 N673 0.985 . S
H678 N672 0.984 . S
H679 N672 0.984 . S
H680 N668 0.984 . S
H681 N668 0.985 . S
C682 C683 1.363 . S
C682 C688 1.379 . S
C682 N690 1.356 . S
C683 C682 1.363 . S
C683 C689 1.363 . S
C684 C685 1.363 . S
C684 C689 1.379 . S
C684 N691 1.356 . S
C685 C684 1.363 . S
C685 C688 1.363 . S
N686 C688 1.356 . S
N686 H698 0.984 . S
N686 H699 0.985 . S
N687 C689 1.356 . S
N687 H692 0.984 . S
N687 H693 0.985 . S
C688 C682 1.379 . S
C688 C685 1.363 . S
C688 N686 1.356 . S
C689 C683 1.363 . S
C689 C684 1.379 . S
C689 N687 1.356 . S
N690 C682 1.356 . S
N690 H696 0.984 . S
N690 H697 0.984 . S
N691 C684 1.356 . S
N691 H694 0.984 . S
N691 H695 0.985 . S
H692 N687 0.984 . S
H693 N687 0.985 . S
H694 N691 0.984 . S
H695 N691 0.985 . S
H696 N690 0.984 . S
H697 N690 0.984 . S
H698 N686 0.984 . S
H699 N686 0.985 . S
C700 C701 1.363 . S
C700 C706 1.379 . S
C700 N708 1.356 . S
C701 C700 1.363 . S
C701 C707 1.363 1_556 S
C702 C703 1.363 1_554 S
C702 C707 1.379 1_565 S
C702 N709 1.356 . S
C703 C702 1.363 1_556 S
C703 C706 1.363 1_565 S
N704 C706 1.356 1_565 S
N704 H716 0.984 1_565 S
N704 H717 0.985 . S
N705 C707 1.356 . S
N705 H710 0.984 . S
N705 H711 0.985 1_545 S
C706 C700 1.379 . S
C706 C703 1.363 1_545 S
C706 N704 1.356 1_545 S
C707 C701 1.363 1_554 S
C707 C702 1.379 1_545 S
C707 N705 1.356 . S
N708 C700 1.356 . S
N708 H714 0.984 . S
N708 H715 0.984 . S
N709 C702 1.356 . S
N709 H712 0.984 . S
N709 H713 0.985 . S
H710 N705 0.984 . S
H711 N705 0.985 1_565 S
H712 N709 0.984 . S
H713 N709 0.985 . S
H714 N708 0.984 . S
H715 N708 0.984 . S
H716 N704 0.984 1_545 S
H717 N704 0.985 . S
C718 C719 1.363 . S
C718 C724 1.379 . S
C718 N726 1.356 . S
C719 C718 1.363 . S
C719 C725 1.363 . S
C720 C721 1.363 . S
C720 C725 1.379 . S
C720 N727 1.356 . S
C721 C720 1.363 . S
C721 C724 1.363 . S
N722 C724 1.356 . S
N722 H734 0.984 . S
N722 H735 0.985 . S
N723 C725 1.356 . S
N723 H728 0.984 . S
N723 H729 0.985 . S
C724 C718 1.379 . S
C724 C721 1.363 . S
C724 N722 1.356 . S
C725 C719 1.363 . S
C725 C720 1.379 . S
C725 N723 1.356 . S
N726 C718 1.356 . S
N726 H732 0.984 . S
N726 H733 0.984 . S
N727 C720 1.356 . S
N727 H730 0.984 . S
N727 H731 0.985 . S
H728 N723 0.984 . S
H729 N723 0.985 . S
H730 N727 0.984 . S
H731 N727 0.985 . S
H732 N726 0.984 . S
H733 N726 0.984 . S
H734 N722 0.984 . S
H735 N722 0.985 . S
C736 C737 1.363 1_565 S
C736 C742 1.379 1_565 S
C736 N744 1.356 . S
C737 C736 1.363 1_545 S
C737 C743 1.363 . S
C738 C739 1.363 . S
C738 C743 1.379 . S
C738 N745 1.356 . S
C739 C738 1.363 . S
C739 C742 1.363 . S
N740 C742 1.356 . S
N740 H752 0.984 . S
N740 H753 0.985 . S
N741 C743 1.356 . S
N741 H746 0.984 . S
N741 H747 0.985 . S
C742 C736 1.379 1_545 S
C742 C739 1.363 . S
C742 N740 1.356 . S
C743 C737 1.363 . S
C743 C738 1.379 . S
C743 N741 1.356 . S
N744 C736 1.356 . S
N744 H750 0.984 . S
N744 H751 0.984 . S
N745 C738 1.356 . S
N745 H748 0.984 . S
N745 H749 0.985 . S
H746 N741 0.984 . S
H747 N741 0.985 . S
H748 N745 0.984 . S
H749 N745 0.985 . S
H750 N744 0.984 . S
H751 N744 0.984 . S
H752 N740 0.984 . S
H753 N740 0.985 . S
C754 C755 1.363 . S
C754 C760 1.379 . S
C754 N762 1.356 . S
C755 C754 1.363 . S
C755 C761 1.363 . S
C756 C757 1.363 . S
C756 C761 1.379 . S
C756 N763 1.356 . S
C757 C756 1.363 . S
C757 C760 1.363 . S
N758 C760 1.356 . S
N758 H770 0.984 . S
N758 H771 0.985 . S
N759 C761 1.356 . S
N759 H764 0.984 . S
N759 H765 0.985 . S
C760 C754 1.379 . S
C760 C757 1.363 . S
C760 N758 1.356 . S
C761 C755 1.363 . S
C761 C756 1.379 . S
C761 N759 1.356 . S
N762 C754 1.356 . S
N762 H768 0.984 . S
N762 H769 0.984 . S
N763 C756 1.356 . S
N763 H766 0.984 . S
N763 H767 0.985 . S
H764 N759 0.984 . S
H765 N759 0.985 . S
H766 N763 0.984 . S
H767 N763 0.985 . S
H768 N762 0.984 . S
H769 N762 0.984 . S
H770 N758 0.984 . S
H771 N758 0.985 . S
C772 C773 1.363 . S
C772 C778 1.379 . S
C772 N780 1.356 . S
C773 C772 1.363 . S
C773 C779 1.363 . S
C774 C775 1.363 . S
C774 C779 1.379 . S
C774 N781 1.356 . S
C775 C774 1.363 . S
C775 C778 1.363 . S
N776 C778 1.356 . S
N776 H788 0.984 . S
N776 H789 0.985 . S
N777 C779 1.356 1_565 S
N777 H782 0.984 . S
N777 H783 0.985 . S
C778 C772 1.379 . S
C778 C775 1.363 . S
C778 N776 1.356 . S
C779 C773 1.363 . S
C779 C774 1.379 . S
C779 N777 1.356 1_545 S
N780 C772 1.356 . S
N780 H786 0.984 . S
N780 H787 0.984 1_545 S
N781 C774 1.356 . S
N781 H784 0.984 . S
N781 H785 0.985 . S
H782 N777 0.984 . S
H783 N777 0.985 . S
H784 N781 0.984 . S
H785 N781 0.985 . S
H786 N780 0.984 . S
H787 N780 0.984 1_565 S
H788 N776 0.984 . S
H789 N776 0.985 . S
C790 C791 1.363 . S
C790 C796 1.379 . S
C790 N798 1.356 . S
C791 C790 1.363 . S
C791 C797 1.363 . S
C792 C793 1.363 . S
C792 C797 1.379 . S
C792 N799 1.356 . S
C793 C792 1.363 . S
C793 C796 1.363 . S
N794 C796 1.356 . S
N794 H806 0.984 . S
N794 H807 0.985 . S
N795 C797 1.356 . S
N795 H800 0.984 . S
N795 H801 0.985 . S
C796 C790 1.379 . S
C796 C793 1.363 . S
C796 N794 1.356 . S
C797 C791 1.363 . S
C797 C792 1.379 . S
C797 N795 1.356 . S
N798 C790 1.356 . S
N798 H804 0.984 . S
N798 H805 0.984 . S
N799 C792 1.356 . S
N799 H802 0.984 . S
N799 H803 0.985 . S
H800 N795 0.984 . S
H801 N795 0.985 . S
H802 N799 0.984 . S
H803 N799 0.985 . S
H804 N798 0.984 . S
H805 N798 0.984 . S
H806 N794 0.984 . S
H807 N794 0.985 . S
C808 C809 1.363 . S
C808 C814 1.379 . S
C808 N816 1.356 . S
C809 C808 1.363 . S
C809 C815 1.363 . S
C810 C811 1.363 . S
C810 C815 1.379 . S
C810 N817 1.356 . S
C811 C810 1.363 . S
C811 C814 1.363 . S
N812 C814 1.356 . S
N812 H824 0.984 . S
N812 H825 0.985 . S
N813 C815 1.356 . S
N813 H818 0.984 . S
N813 H819 0.985 . S
C814 C808 1.379 . S
C814 C811 1.363 . S
C814 N812 1.356 . S
C815 C809 1.363 . S
C815 C810 1.379 . S
C815 N813 1.356 . S
N816 C808 1.356 . S
N816 H822 0.984 . S
N816 H823 0.984 . S
N817 C810 1.356 . S
N817 H820 0.984 . S
N817 H821 0.985 . S
H818 N813 0.984 . S
H819 N813 0.985 . S
H820 N817 0.984 . S
H821 N817 0.985 . S
H822 N816 0.984 . S
H823 N816 0.984 . S
H824 N812 0.984 . S
H825 N812 0.985 . S
C826 C827 1.363 . S
C826 C832 1.379 . S
C826 N834 1.356 . S
C827 C826 1.363 . S
C827 C833 1.363 . S
C828 C829 1.363 . S
C828 C833 1.379 . S
C828 N835 1.356 1_545 S
C829 C828 1.363 . S
C829 C832 1.363 . S
N830 C832 1.356 . S
N830 H842 0.984 . S
N830 H843 0.985 . S
N831 C833 1.356 . S
N831 H836 0.984 . S
N831 H837 0.985 1_545 S
C832 C826 1.379 . S
C832 C829 1.363 . S
C832 N830 1.356 . S
C833 C827 1.363 . S
C833 C828 1.379 . S
C833 N831 1.356 . S
N834 C826 1.356 . S
N834 H840 0.984 . S
N834 H841 0.984 . S
N835 C828 1.356 1_565 S
N835 H838 0.984 . S
N835 H839 0.985 . S
H836 N831 0.984 . S
H837 N831 0.985 1_565 S
H838 N835 0.984 . S
H839 N835 0.985 . S
H840 N834 0.984 . S
H841 N834 0.984 . S
H842 N830 0.984 . S
H843 N830 0.985 . S
C844 C845 1.363 . S
C844 C850 1.379 . S
C844 N852 1.356 . S
C845 C844 1.363 . S
C845 C851 1.363 . S
C846 C847 1.363 . S
C846 C851 1.379 . S
C846 N853 1.356 . S
C847 C846 1.363 . S
C847 C850 1.363 . S
N848 C850 1.356 . S
N848 H860 0.984 . S
N848 H861 0.985 . S
N849 C851 1.356 . S
N849 H854 0.984 . S
N849 H855 0.985 . S
C850 C844 1.379 . S
C850 C847 1.363 . S
C850 N848 1.356 . S
C851 C845 1.363 . S
C851 C846 1.379 . S
C851 N849 1.356 . S
N852 C844 1.356 . S
N852 H858 0.984 . S
N852 H859 0.984 . S
N853 C846 1.356 . S
N853 H856 0.984 . S
N853 H857 0.985 . S
H854 N849 0.984 . S
H855 N849 0.985 . S
H856 N853 0.984 . S
H857 N853 0.985 . S
H858 N852 0.984 . S
H859 N852 0.984 . S
H860 N848 0.984 . S
H861 N848 0.985 . S
C862 C863 1.363 . S
C862 C868 1.379 . S
C862 N870 1.356 . S
C863 C862 1.363 . S
C863 C869 1.363 . S
C864 C865 1.363 . S
C864 C869 1.379 . S
C864 N871 1.356 . S
C865 C864 1.363 . S
C865 C868 1.363 . S
N866 C868 1.356 . S
N866 H878 0.984 . S
N866 H879 0.985 . S
N867 C869 1.356 . S
N867 H872 0.984 . S
N867 H873 0.985 . S
C868 C862 1.379 . S
C868 C865 1.363 . S
C868 N866 1.356 . S
C869 C863 1.363 . S
C869 C864 1.379 . S
C869 N867 1.356 . S
N870 C862 1.356 . S
N870 H876 0.984 . S
N870 H877 0.984 . S
N871 C864 1.356 . S
N871 H874 0.984 . S
N871 H875 0.985 . S
H872 N867 0.984 . S
H873 N867 0.985 . S
H874 N871 0.984 . S
H875 N871 0.985 . S
H876 N870 0.984 . S
H877 N870 0.984 . S
H878 N866 0.984 . S
H879 N866 0.985 . S
C880 C881 1.363 . S
C880 C886 1.379 . S
C880 N888 1.356 . S
C881 C880 1.363 . S
C881 C887 1.363 . S
C882 C883 1.363 . S
C882 C887 1.379 . S
C882 N889 1.356 . S
C883 C882 1.363 . S
C883 C886 1.363 . S
N884 C886 1.356 . S
N884 H896 0.984 . S
N884 H897 0.985 . S
N885 C887 1.356 . S
N885 H890 0.984 . S
N885 H891 0.985 . S
C886 C880 1.379 . S
C886 C883 1.363 . S
C886 N884 1.356 . S
C887 C881 1.363 . S
C887 C882 1.379 . S
C887 N885 1.356 . S
N888 C880 1.356 . S
N888 H894 0.984 . S
N888 H895 0.984 . S
N889 C882 1.356 . S
N889 H892 0.984 . S
N889 H893 0.985 . S
H890 N885 0.984 . S
H891 N885 0.985 . S
H892 N889 0.984 . S
H893 N889 0.985 . S
H894 N888 0.984 . S
H895 N888 0.984 . S
H896 N884 0.984 . S
H897 N884 0.985 . S
C898 C899 1.363 . S
C898 C904 1.379 . S
C898 N906 1.356 1_545 S
C899 C898 1.363 . S
C899 C905 1.363 . S
C900 C901 1.363 . S
C900 C905 1.379 . S
C900 N907 1.356 . S
C901 C900 1.363 . S
C901 C904 1.363 . S
N902 C904 1.356 1_565 S
N902 H914 0.984 . S
N902 H915 0.985 . S
N903 C905 1.356 1_455 S
N903 H908 0.984 . S
N903 H909 0.985 . S
C904 C898 1.379 . S
C904 C901 1.363 . S
C904 N902 1.356 1_545 S
C905 C899 1.363 . S
C905 C900 1.379 . S
C905 N903 1.356 1_655 S
N906 C898 1.356 1_565 S
N906 H912 0.984 . S
N906 H913 0.984 . S
N907 C900 1.356 . S
N907 H910 0.984 . S
N907 H911 0.985 . S
H908 N903 0.984 . S
H909 N903 0.985 . S
H910 N907 0.984 . S
H911 N907 0.985 . S
H912 N906 0.984 . S
H913 N906 0.984 . S
H914 N902 0.984 . S
H915 N902 0.985 . S
C916 C917 1.363 . S
C916 C922 1.379 . S
C916 N924 1.356 . S
C917 C916 1.363 . S
C917 C923 1.363 . S
C918 C919 1.363 . S
C918 C923 1.379 . S
C918 N925 1.356 . S
C919 C918 1.363 . S
C919 C922 1.363 . S
N920 C922 1.356 . S
N920 H932 0.984 . S
N920 H933 0.985 . S
N921 C923 1.356 . S
N921 H926 0.984 . S
N921 H927 0.985 . S
C922 C916 1.379 . S
C922 C919 1.363 . S
C922 N920 1.356 . S
C923 C917 1.363 . S
C923 C918 1.379 . S
C923 N921 1.356 . S
N924 C916 1.356 . S
N924 H930 0.984 . S
N924 H931 0.984 . S
N925 C918 1.356 . S
N925 H928 0.984 . S
N925 H929 0.985 . S
H926 N921 0.984 . S
H927 N921 0.985 . S
H928 N925 0.984 . S
H929 N925 0.985 . S
H930 N924 0.984 . S
H931 N924 0.984 . S
H932 N920 0.984 . S
H933 N920 0.985 . S
C934 C935 1.363 . S
C934 C940 1.379 . S
C934 N942 1.356 1_455 S
C935 C934 1.363 . S
C935 C941 1.363 . S
C936 C937 1.363 . S
C936 C941 1.379 . S
C936 N943 1.356 . S
C937 C936 1.363 . S
C937 C940 1.363 . S
N938 C940 1.356 . S
N938 H950 0.984 . S
N938 H951 0.985 . S
N939 C941 1.356 . S
N939 H944 0.984 . S
N939 H945 0.985 . S
C940 C934 1.379 . S
C940 C937 1.363 . S
C940 N938 1.356 . S
C941 C935 1.363 . S
C941 C936 1.379 . S
C941 N939 1.356 . S
N942 C934 1.356 1_655 S
N942 H948 0.984 . S
N942 H949 0.984 . S
N943 C936 1.356 . S
N943 H946 0.984 . S
N943 H947 0.985 . S
H944 N939 0.984 . S
H945 N939 0.985 . S
H946 N943 0.984 . S
H947 N943 0.985 . S
H948 N942 0.984 . S
H949 N942 0.984 . S
H950 N938 0.984 . S
H951 N938 0.985 . S
C952 C953 1.363 . S
C952 C958 1.379 . S
C952 N960 1.356 . S
C953 C952 1.363 . S
C953 C959 1.363 . S
C954 C955 1.363 . S
C954 C959 1.379 . S
C954 N961 1.356 . S
C955 C954 1.363 . S
C955 C958 1.363 . S
N956 C958 1.356 . S
N956 H968 0.984 . S
N956 H969 0.985 . S
N957 C959 1.356 . S
N957 H962 0.984 . S
N957 H963 0.985 . S
C958 C952 1.379 . S
C958 C955 1.363 . S
C958 N956 1.356 . S
C959 C953 1.363 . S
C959 C954 1.379 . S
C959 N957 1.356 . S
N960 C952 1.356 . S
N960 H966 0.984 . S
N960 H967 0.984 . S
N961 C954 1.356 . S
N961 H964 0.984 . S
N961 H965 0.985 . S
H962 N957 0.984 . S
H963 N957 0.985 . S
H964 N961 0.984 . S
H965 N961 0.985 . S
H966 N960 0.984 . S
H967 N960 0.984 . S
H968 N956 0.984 . S
H969 N956 0.985 . S
C970 C971 1.363 1_556 S
C970 C976 1.379 . S
C970 N978 1.356 . S
C971 C970 1.363 1_554 S
C971 C977 1.363 . S
C972 C973 1.363 . S
C972 C977 1.379 1_556 S
C972 N979 1.356 1_655 S
C973 C972 1.363 . S
C973 C976 1.363 . S
N974 C976 1.356 . S
N974 H986 0.984 . S
N974 H987 0.985 . S
N975 C977 1.356 . S
N975 H980 0.984 . S
N975 H981 0.985 1_655 S
C976 C970 1.379 . S
C976 C973 1.363 . S
C976 N974 1.356 . S
C977 C971 1.363 . S
C977 C972 1.379 1_554 S
C977 N975 1.356 . S
N978 C970 1.356 . S
N978 H984 0.984 . S
N978 H985 0.984 1_556 S
N979 C972 1.356 1_455 S
N979 H982 0.984 . S
N979 H983 0.985 1_556 S
H980 N975 0.984 . S
H981 N975 0.985 1_455 S
H982 N979 0.984 . S
H983 N979 0.985 1_554 S
H984 N978 0.984 . S
H985 N978 0.984 1_554 S
H986 N974 0.984 . S
H987 N974 0.985 . S
C988 C989 1.363 . S
C988 C994 1.379 . S
C988 N996 1.356 . S
C989 C988 1.363 . S
C989 C995 1.363 . S
C990 C991 1.363 . S
C990 C995 1.379 . S
C990 N997 1.356 . S
C991 C990 1.363 . S
C991 C994 1.363 . S
N992 C994 1.356 . S
N992 H1004 0.984 . S
N992 H1005 0.985 . S
N993 C995 1.356 . S
N993 H998 0.984 . S
N993 H999 0.985 . S
C994 C988 1.379 . S
C994 C991 1.363 . S
C994 N992 1.356 . S
C995 C989 1.363 . S
C995 C990 1.379 . S
C995 N993 1.356 . S
N996 C988 1.356 . S
N996 H1002 0.984 . S
N996 H1003 0.984 . S
N997 C990 1.356 . S
N997 H1000 0.984 . S
N997 H1001 0.985 . S
H998 N993 0.984 . S
H999 N993 0.985 . S
H1000 N997 0.984 . S
H1001 N997 0.985 . S
H1002 N996 0.984 . S
H1003 N996 0.984 . S
H1004 N992 0.984 . S
H1005 N992 0.985 . S
C1006 C1007 1.381 . S
C1006 C1012 1.379 . S
C1006 N1014 1.356 . S
C1007 C1006 1.381 . S
C1007 C1013 1.355 1_556 S
C1008 C1009 1.363 . S
C1008 C1013 1.379 1_556 S
C1008 N1015 1.359 . S
C1009 C1008 1.363 . S
C1009 C1012 1.363 . S
N1010 C1012 1.356 . S
N1010 H1022 0.984 . S
N1010 H1023 0.985 . S
N1011 C1013 1.356 . S
N1011 H1016 0.984 . S
N1011 H1017 0.985 . S
C1012 C1006 1.379 . S
C1012 C1009 1.363 . S
C1012 N1010 1.356 . S
C1013 C1007 1.355 1_554 S
C1013 C1008 1.379 1_554 S
C1013 N1011 1.356 . S
N1014 C1006 1.356 . S
N1014 H1020 0.984 . S
N1014 H1021 0.984 . S
N1015 C1008 1.359 . S
N1015 H1018 0.995 . S
N1015 H1019 0.971 1_556 S
H1016 N1011 0.984 . S
H1017 N1011 0.985 . S
H1018 N1015 0.995 . S
H1019 N1015 0.971 1_554 S
H1020 N1014 0.984 . S
H1021 N1014 0.984 . S
H1022 N1010 0.984 . S
H1023 N1010 0.985 . S
C1024 C1025 1.363 . S
C1024 C1030 1.379 . S
C1024 N1032 1.356 . S
C1025 C1024 1.363 . S
C1025 C1031 1.363 . S
C1026 C1027 1.363 . S
C1026 C1031 1.379 . S
C1026 N1033 1.356 . S
C1027 C1026 1.363 . S
C1027 C1030 1.363 . S
N1028 C1030 1.356 . S
N1028 H1040 0.984 . S
N1028 H1041 0.985 . S
N1029 C1031 1.356 . S
N1029 H1034 0.984 . S
N1029 H1035 0.985 . S
C1030 C1024 1.379 . S
C1030 C1027 1.363 . S
C1030 N1028 1.356 . S
C1031 C1025 1.363 . S
C1031 C1026 1.379 . S
C1031 N1029 1.356 . S
N1032 C1024 1.356 . S
N1032 H1038 0.984 . S
N1032 H1039 0.984 . S
N1033 C1026 1.356 . S
N1033 H1036 0.984 . S
N1033 H1037 0.985 . S
H1034 N1029 0.984 . S
H1035 N1029 0.985 . S
H1036 N1033 0.984 . S
H1037 N1033 0.985 . S
H1038 N1032 0.984 . S
H1039 N1032 0.984 . S
H1040 N1028 0.984 . S
H1041 N1028 0.985 . S
C1042 C1043 1.363 . S
C1042 C1048 1.379 . S
C1042 N1050 1.356 1_554 S
C1043 C1042 1.363 . S
C1043 C1049 1.363 . S
C1044 C1045 1.363 . S
C1044 C1049 1.379 . S
C1044 N1051 1.356 . S
C1045 C1044 1.363 . S
C1045 C1048 1.363 . S
N1046 C1048 1.356 . S
N1046 H1058 0.984 . S
N1046 H1059 0.985 . S
N1047 C1049 1.356 . S
N1047 H1052 0.984 . S
N1047 H1053 0.985 . S
C1048 C1042 1.379 . S
C1048 C1045 1.363 . S
C1048 N1046 1.356 . S
C1049 C1043 1.363 . S
C1049 C1044 1.379 . S
C1049 N1047 1.356 . S
N1050 C1042 1.356 1_556 S
N1050 H1056 0.984 . S
N1050 H1057 0.984 . S
N1051 C1044 1.356 . S
N1051 H1054 0.984 . S
N1051 H1055 0.985 . S
H1052 N1047 0.984 . S
H1053 N1047 0.985 . S
H1054 N1051 0.984 . S
H1055 N1051 0.985 . S
H1056 N1050 0.984 . S
H1057 N1050 0.984 . S
H1058 N1046 0.984 . S
H1059 N1046 0.985 . S
C1060 C1061 1.363 . S
C1060 C1066 1.379 . S
C1060 N1068 1.356 . S
C1061 C1060 1.363 . S
C1061 C1067 1.363 . S
C1062 C1063 1.363 . S
C1062 C1067 1.379 . S
C1062 N1069 1.356 . S
C1063 C1062 1.363 . S
C1063 C1066 1.363 . S
N1064 C1066 1.356 . S
N1064 H1076 0.984 . S
N1064 H1077 0.985 . S
N1065 C1067 1.356 . S
N1065 H1070 0.984 . S
N1065 H1071 0.985 . S
C1066 C1060 1.379 . S
C1066 C1063 1.363 . S
C1066 N1064 1.356 . S
C1067 C1061 1.363 . S
C1067 C1062 1.379 . S
C1067 N1065 1.356 . S
N1068 C1060 1.356 . S
N1068 H1074 0.984 . S
N1068 H1075 0.984 . S
N1069 C1062 1.356 . S
N1069 H1072 0.984 . S
N1069 H1073 0.985 . S
H1070 N1065 0.984 . S
H1071 N1065 0.985 . S
H1072 N1069 0.984 . S
H1073 N1069 0.985 . S
H1074 N1068 0.984 . S
H1075 N1068 0.984 . S
H1076 N1064 0.984 . S
H1077 N1064 0.985 . S
C1078 C1079 1.363 . S
C1078 C1084 1.379 . S
C1078 N1086 1.356 1_554 S
C1079 C1078 1.363 . S
C1079 C1085 1.363 . S
C1080 C1081 1.363 . S
C1080 C1085 1.379 . S
C1080 N1087 1.356 . S
C1081 C1080 1.363 . S
C1081 C1084 1.363 . S
N1082 C1084 1.356 . S
N1082 H1094 0.984 . S
N1082 H1095 0.985 . S
N1083 C1085 1.356 . S
N1083 H1088 0.984 . S
N1083 H1089 0.985 . S
C1084 C1078 1.379 . S
C1084 C1081 1.363 . S
C1084 N1082 1.356 . S
C1085 C1079 1.363 . S
C1085 C1080 1.379 . S
C1085 N1083 1.356 . S
N1086 C1078 1.356 1_556 S
N1086 H1092 0.984 . S
N1086 H1093 0.984 . S
N1087 C1080 1.356 . S
N1087 H1090 0.984 . S
N1087 H1091 0.985 . S
H1088 N1083 0.984 . S
H1089 N1083 0.985 . S
H1090 N1087 0.984 . S
H1091 N1087 0.985 . S
H1092 N1086 0.984 . S
H1093 N1086 0.984 . S
H1094 N1082 0.984 . S
H1095 N1082 0.985 . S
C1096 C1097 1.363 . S
C1096 C1102 1.379 . S
C1096 N1104 1.356 . S
C1097 C1096 1.363 . S
C1097 C1103 1.363 . S
C1098 C1099 1.363 . S
C1098 C1103 1.379 . S
C1098 N1105 1.356 . S
C1099 C1098 1.363 . S
C1099 C1102 1.363 . S
N1100 C1102 1.356 . S
N1100 H1112 0.984 . S
N1100 H1113 0.985 . S
N1101 C1103 1.356 . S
N1101 H1106 0.984 . S
N1101 H1107 0.985 . S
C1102 C1096 1.379 . S
C1102 C1099 1.363 . S
C1102 N1100 1.356 . S
C1103 C1097 1.363 . S
C1103 C1098 1.379 . S
C1103 N1101 1.356 . S
N1104 C1096 1.356 . S
N1104 H1110 0.984 . S
N1104 H1111 0.984 . S
N1105 C1098 1.356 . S
N1105 H1108 0.984 . S
N1105 H1109 0.985 . S
H1106 N1101 0.984 . S
H1107 N1101 0.985 . S
H1108 N1105 0.984 . S
H1109 N1105 0.985 . S
H1110 N1104 0.984 . S
H1111 N1104 0.984 . S
H1112 N1100 0.984 . S
H1113 N1100 0.985 . S
C1114 C1115 1.363 . S
C1114 C1120 1.379 . S
C1114 N1122 1.356 . S
C1115 C1114 1.363 . S
C1115 C1121 1.363 . S
C1116 C1117 1.363 . S
C1116 C1121 1.379 . S
C1116 N1123 1.356 . S
C1117 C1116 1.363 . S
C1117 C1120 1.363 . S
N1118 C1120 1.356 . S
N1118 H1130 0.984 . S
N1118 H1131 0.985 . S
N1119 C1121 1.356 . S
N1119 H1124 0.984 . S
N1119 H1125 0.985 . S
C1120 C1114 1.379 . S
C1120 C1117 1.363 . S
C1120 N1118 1.356 . S
C1121 C1115 1.363 . S
C1121 C1116 1.379 . S
C1121 N1119 1.356 . S
N1122 C1114 1.356 . S
N1122 H1128 0.984 . S
N1122 H1129 0.984 . S
N1123 C1116 1.356 . S
N1123 H1126 0.984 . S
N1123 H1127 0.985 . S
H1124 N1119 0.984 . S
H1125 N1119 0.985 . S
H1126 N1123 0.984 . S
H1127 N1123 0.985 . S
H1128 N1122 0.984 . S
H1129 N1122 0.984 . S
H1130 N1118 0.984 . S
H1131 N1118 0.985 . S
C1132 C1133 1.363 . S
C1132 C1138 1.379 . S
C1132 N1140 1.356 . S
C1133 C1132 1.363 . S
C1133 C1139 1.363 . S
C1134 C1135 1.363 . S
C1134 C1139 1.379 . S
C1134 N1141 1.356 . S
C1135 C1134 1.363 . S
C1135 C1138 1.363 . S
N1136 C1138 1.356 . S
N1136 H1148 0.984 . S
N1136 H1149 0.985 . S
N1137 C1139 1.356 . S
N1137 H1142 0.984 . S
N1137 H1143 0.985 . S
C1138 C1132 1.379 . S
C1138 C1135 1.363 . S
C1138 N1136 1.356 . S
C1139 C1133 1.363 . S
C1139 C1134 1.379 . S
C1139 N1137 1.356 . S
N1140 C1132 1.356 . S
N1140 H1146 0.984 . S
N1140 H1147 0.984 . S
N1141 C1134 1.356 . S
N1141 H1144 0.984 . S
N1141 H1145 0.985 . S
H1142 N1137 0.984 . S
H1143 N1137 0.985 . S
H1144 N1141 0.984 . S
H1145 N1141 0.985 . S
H1146 N1140 0.984 . S
H1147 N1140 0.984 . S
H1148 N1136 0.984 . S
H1149 N1136 0.985 . S
C1150 C1151 1.363 . S
C1150 C1156 1.379 . S
C1150 N1158 1.356 . S
C1151 C1150 1.363 . S
C1151 C1157 1.363 . S
C1152 C1153 1.363 . S
C1152 C1157 1.379 . S
C1152 N1159 1.356 . S
C1153 C1152 1.363 . S
C1153 C1156 1.363 . S
N1154 C1156 1.356 . S
N1154 H1166 0.984 . S
N1154 H1167 0.985 . S
N1155 C1157 1.356 . S
N1155 H1160 0.984 . S
N1155 H1161 0.985 . S
C1156 C1150 1.379 . S
C1156 C1153 1.363 . S
C1156 N1154 1.356 . S
C1157 C1151 1.363 . S
C1157 C1152 1.379 . S
C1157 N1155 1.356 . S
N1158 C1150 1.356 . S
N1158 H1164 0.984 . S
N1158 H1165 0.984 . S
N1159 C1152 1.356 . S
N1159 H1162 0.984 . S
N1159 H1163 0.985 . S
H1160 N1155 0.984 . S
H1161 N1155 0.985 . S
H1162 N1159 0.984 . S
H1163 N1159 0.985 . S
H1164 N1158 0.984 . S
H1165 N1158 0.984 . S
H1166 N1154 0.984 . S
H1167 N1154 0.985 . S
C1168 C1169 1.363 1_554 S
C1168 C1174 1.379 . S
C1168 N1176 1.356 . S
C1169 C1168 1.363 1_556 S
C1169 C1175 1.363 . S
C1170 C1171 1.345 1_556 S
C1170 C1175 1.390 . S
C1170 N1177 1.359 . S
C1171 C1170 1.345 1_554 S
C1171 C1174 1.363 . S
N1172 C1174 1.356 . S
N1172 H1184 0.984 . S
N1172 H1185 0.985 . S
N1173 C1175 1.356 . S
N1173 H1178 0.984 . S
N1173 H1179 0.985 . S
C1174 C1168 1.379 . S
C1174 C1171 1.363 . S
C1174 N1172 1.356 . S
C1175 C1169 1.363 . S
C1175 C1170 1.390 . S
C1175 N1173 1.356 . S
N1176 C1168 1.356 . S
N1176 H1182 0.984 . S
N1176 H1183 0.984 . S
N1177 C1170 1.359 . S
N1177 H1180 0.984 1_556 S
N1177 H1181 0.985 . S
H1178 N1173 0.984 . S
H1179 N1173 0.985 . S
H1180 N1177 0.984 1_554 S
H1181 N1177 0.985 . S
H1182 N1176 0.984 . S
H1183 N1176 0.984 . S
H1184 N1172 0.984 . S
H1185 N1172 0.985 . S
C1186 C1187 1.363 . S
C1186 C1192 1.379 . S
C1186 N1194 1.356 . S
C1187 C1186 1.363 . S
C1187 C1193 1.363 . S
C1188 C1189 1.363 . S
C1188 C1193 1.379 . S
C1188 N1195 1.356 . S
C1189 C1188 1.363 . S
C1189 C1192 1.363 . S
N1190 C1192 1.356 . S
N1190 H1202 0.984 . S
N1190 H1203 0.985 . S
N1191 C1193 1.356 . S
N1191 H1196 0.984 . S
N1191 H1197 0.985 . S
C1192 C1186 1.379 . S
C1192 C1189 1.363 . S
C1192 N1190 1.356 . S
C1193 C1187 1.363 . S
C1193 C1188 1.379 . S
C1193 N1191 1.356 . S
N1194 C1186 1.356 . S
N1194 H1200 0.984 . S
N1194 H1201 0.984 . S
N1195 C1188 1.356 . S
N1195 H1198 0.984 . S
N1195 H1199 0.985 . S
H1196 N1191 0.984 . S
H1197 N1191 0.985 . S
H1198 N1195 0.984 . S
H1199 N1195 0.985 . S
H1200 N1194 0.984 . S
H1201 N1194 0.984 . S
H1202 N1190 0.984 . S
H1203 N1190 0.985 . S
C1204 C1205 1.363 . S
C1204 C1210 1.379 . S
C1204 N1212 1.356 . S
C1205 C1204 1.363 . S
C1205 C1211 1.363 . S
C1206 C1207 1.363 . S
C1206 C1211 1.379 . S
C1206 N1213 1.356 . S
C1207 C1206 1.363 . S
C1207 C1210 1.363 . S
N1208 C1210 1.356 . S
N1208 H1220 0.984 . S
N1208 H1221 0.985 . S
N1209 C1211 1.356 . S
N1209 H1214 0.984 . S
N1209 H1215 0.985 . S
C1210 C1204 1.379 . S
C1210 C1207 1.363 . S
C1210 N1208 1.356 . S
C1211 C1205 1.363 . S
C1211 C1206 1.379 . S
C1211 N1209 1.356 . S
N1212 C1204 1.356 . S
N1212 H1218 0.984 . S
N1212 H1219 0.984 . S
N1213 C1206 1.356 . S
N1213 H1216 0.984 . S
N1213 H1217 0.985 . S
H1214 N1209 0.984 . S
H1215 N1209 0.985 . S
H1216 N1213 0.984 . S
H1217 N1213 0.985 . S
H1218 N1212 0.984 . S
H1219 N1212 0.984 . S
H1220 N1208 0.984 . S
H1221 N1208 0.985 . S
C1222 C1223 1.363 . S
C1222 C1228 1.379 . S
C1222 N1230 1.356 1_565 S
C1223 C1222 1.363 . S
C1223 C1229 1.363 . S
C1224 C1225 1.363 . S
C1224 C1229 1.379 . S
C1224 N1231 1.356 . S
C1225 C1224 1.363 . S
C1225 C1228 1.363 . S
N1226 C1228 1.356 1_556 S
N1226 H1238 0.984 1_565 S
N1226 H1239 0.985 . S
N1227 C1229 1.356 . S
N1227 H1232 0.984 . S
N1227 H1233 0.985 . S
C1228 C1222 1.379 . S
C1228 C1225 1.363 . S
C1228 N1226 1.356 1_554 S
C1229 C1223 1.363 . S
C1229 C1224 1.379 . S
C1229 N1227 1.356 . S
N1230 C1222 1.356 1_545 S
N1230 H1236 0.984 1_554 S
N1230 H1237 0.984 . S
N1231 C1224 1.356 . S
N1231 H1234 0.984 . S
N1231 H1235 0.985 . S
H1232 N1227 0.984 . S
H1233 N1227 0.985 . S
H1234 N1231 0.984 . S
H1235 N1231 0.985 . S
H1236 N1230 0.984 1_556 S
H1237 N1230 0.984 . S
H1238 N1226 0.984 1_545 S
H1239 N1226 0.985 . S
C379 C216 1.644 . S
C377 C73 1.690 . S
C397 C229 1.358 . S
C395 C82 1.306 . S
C413 C100 1.861 . S
C415 C249 1.754 . S
C433 C263 1.314 1_565 S
C431 C56 1.322 . S
C451 C275 1.468 . S
C449 C134 1.460 . S
C469 C289 1.646 . S
C467 C165 1.628 . S
C485 C147 1.227 . S
C487 C299 1.268 . S
C505 C314 1.811 . S
C503 C125 1.811 . S
C521 C151 1.420 . S
C523 C328 1.415 . S
C541 C347 1.412 . S
C539 C121 1.406 . S
C557 C139 1.708 . S
C559 C327 1.714 . S
C577 C345 1.345 . S
C575 C164 1.342 . S
C593 C95 1.440 . S
C595 C361 1.393 . S
C611 C61 1.484 . S
C613 C355 1.489 . S
C629 C74 1.484 . S
C631 C359 1.481 . S
C647 C86 1.736 . S
C649 C356 1.707 1_655 S
C665 C47 1.470 . S
C667 C258 1.429 . S
C683 C186 1.308 . S
C685 C257 1.358 . S
C703 C221 1.363 . S
C701 C204 1.475 . S
C721 C235 1.735 . S
C719 C112 1.847 . S
C737 C60 1.436 1_545 S
C739 C272 1.398 . S
C757 C317 1.468 . S
C755 C152 1.464 . S
C775 C271 1.795 . S
C773 C126 1.809 1_545 S
C793 C303 1.318 . S
C791 C160 1.324 . S
C811 C300 1.644 . S
C809 C190 1.690 . S
C827 C199 1.306 . S
C829 C313 1.358 . S
C845 C113 1.861 . S
C847 C277 1.754 . S
C865 C291 1.314 . S
C863 C173 1.321 . S
C881 C43 1.460 . S
C883 C247 1.468 . S
C901 C261 1.646 . S
C899 C9 1.628 1_655 S
C919 C215 1.268 . S
C917 C17 1.227 . S
C937 C230 1.811 . S
C935 C34 1.811 1_455 S
C953 C21 1.420 . S
C955 C342 1.415 . S
C971 C30 1.406 . S
C973 C333 1.412 . S
C989 C48 1.708 . S
C991 C341 1.714 . S
C1007 C8 1.333 1_556 S
C1009 C331 1.345 . S
C1027 C375 1.393 . S
C1025 C108 1.440 . S
C1045 C369 1.489 . S
C1043 C178 1.484 1_554 S
C1063 C373 1.481 . S
C1061 C191 1.484 . S
C1079 C203 1.736 . S
C1081 C370 1.707 . S
C1097 C138 1.470 . S
C1099 C286 1.429 . S
C1117 C285 1.358 . S
C1115 C69 1.308 . S
C1135 C305 1.363 . S
C1133 C87 1.475 . S
C1153 C319 1.735 . S
C1151 C99 1.847 . S
C1169 C177 1.436 . S
C1171 C244 1.398 . S
C1189 C233 1.467 . S
C1187 C22 1.464 . S
C1205 C35 1.810 . S
C1207 C243 1.795 . S
C1225 C219 1.318 . S
C1223 C4 1.324 . S
