# Generated by pormake.
# Topology zzz, (3,6)-cn, num edge types: 1
# Building blocks:
#     Node 0, Type 0, BuildingBlock: PAMTOO_clean_linker_0, # of connection points: 3
#     Node 1, Type 0, BuildingBlock: PAMTOO_clean_linker_0, # of connection points: 3
#     Node 2, Type 0, BuildingBlock: PAMTOO_clean_linker_0, # of connection points: 3
#     Node 3, Type 0, BuildingBlock: PAMTOO_clean_linker_0, # of connection points: 3
#     Node 4, Type 0, BuildingBlock: PAMTOO_clean_linker_0, # of connection points: 3
#     Node 5, Type 0, BuildingBlock: PAMTOO_clean_linker_0, # of connection points: 3
#     Node 6, Type 0, BuildingBlock: PAMTOO_clean_linker_0, # of connection points: 3
#     Node 7, Type 0, BuildingBlock: PAMTOO_clean_linker_0, # of connection points: 3
#     Node 8, Type 1, BuildingBlock: KUMJIN_clean_sbu_0, # of connection points: 6
#     Node 9, Type 1, BuildingBlock: KUMJIN_clean_sbu_0, # of connection points: 6
#     Node 10, Type 1, BuildingBlock: KUMJIN_clean_sbu_0, # of connection points: 6
#     Node 11, Type 1, BuildingBlock: KUMJIN_clean_sbu_0, # of connection points: 6
#     Edge 12, Type (0, 1), BuildingBlock: XUDNAN_clean_linker_2, # of connection points: 2
#     Edge 13, Type (0, 1), BuildingBlock: XUDNAN_clean_linker_2, # of connection points: 2
#     Edge 14, Type (0, 1), BuildingBlock: XUDNAN_clean_linker_2, # of connection points: 2
#     Edge 15, Type (0, 1), BuildingBlock: XUDNAN_clean_linker_2, # of connection points: 2
#     Edge 16, Type (0, 1), BuildingBlock: XUDNAN_clean_linker_2, # of connection points: 2
#     Edge 17, Type (0, 1), BuildingBlock: XUDNAN_clean_linker_2, # of connection points: 2
#     Edge 18, Type (0, 1), BuildingBlock: XUDNAN_clean_linker_2, # of connection points: 2
#     Edge 19, Type (0, 1), BuildingBlock: XUDNAN_clean_linker_2, # of connection points: 2
#     Edge 20, Type (0, 1), BuildingBlock: XUDNAN_clean_linker_2, # of connection points: 2
#     Edge 21, Type (0, 1), BuildingBlock: XUDNAN_clean_linker_2, # of connection points: 2
#     Edge 22, Type (0, 1), BuildingBlock: XUDNAN_clean_linker_2, # of connection points: 2
#     Edge 23, Type (0, 1), BuildingBlock: XUDNAN_clean_linker_2, # of connection points: 2
#     Edge 24, Type (0, 1), BuildingBlock: XUDNAN_clean_linker_2, # of connection points: 2
#     Edge 25, Type (0, 1), BuildingBlock: XUDNAN_clean_linker_2, # of connection points: 2
#     Edge 26, Type (0, 1), BuildingBlock: XUDNAN_clean_linker_2, # of connection points: 2
#     Edge 27, Type (0, 1), BuildingBlock: XUDNAN_clean_linker_2, # of connection points: 2
#     Edge 28, Type (0, 1), BuildingBlock: XUDNAN_clean_linker_2, # of connection points: 2
#     Edge 29, Type (0, 1), BuildingBlock: XUDNAN_clean_linker_2, # of connection points: 2
#     Edge 30, Type (0, 1), BuildingBlock: XUDNAN_clean_linker_2, # of connection points: 2
#     Edge 31, Type (0, 1), BuildingBlock: XUDNAN_clean_linker_2, # of connection points: 2
#     Edge 32, Type (0, 1), BuildingBlock: XUDNAN_clean_linker_2, # of connection points: 2
#     Edge 33, Type (0, 1), BuildingBlock: XUDNAN_clean_linker_2, # of connection points: 2
#     Edge 34, Type (0, 1), BuildingBlock: XUDNAN_clean_linker_2, # of connection points: 2
#     Edge 35, Type (0, 1), BuildingBlock: XUDNAN_clean_linker_2, # of connection points: 2
# Relax obj value: 0.174
# Max RMSD: 0.164
# Mean RMSD: 0.115
data_MOF--net-zzz--node1-KUMJIN_clean_sbu_0--node2-PAMTOO_clean_linker_0--edge1-XUDNAN_clean_linker_2
_symmetry_space_group_name_H-M    P1
_symmetry_Int_Tables_number       1
_symmetry_cell_setting            triclinic
loop_
_symmetry_equiv_pos_as_xyz
'x, y, z'
_cell_length_a     50.160934
_cell_length_b     50.375068
_cell_length_c     14.709726
_cell_angle_alpha  91.737313
_cell_angle_beta   89.680908
_cell_angle_gamma 89.926437
loop_
_atom_site_label
_atom_site_type_symbol
_atom_site_fract_x
_atom_site_fract_y
_atom_site_fract_z
_atom_type_partial_charge
H0 H 0.83111 0.57735 0.2174 0.0
H1 H 0.75626 0.57084 0.07853 0.0
H2 H 0.77093 0.52386 0.31214 0.0
H3 H 0.71339 0.56677 0.1993 0.0
C4 C 0.71198 0.54474 0.1918 0.0
O5 O 0.73709 0.53367 0.17638 0.0
H6 H 0.70406 0.53753 0.25726 0.0
C7 C 0.81087 0.56996 0.21516 0.0
C8 C 0.80311 0.55089 0.2779 0.0
C9 C 0.79422 0.57758 0.14364 0.0
C10 C 0.76906 0.5658 0.13457 0.0
C11 C 0.76046 0.54658 0.19474 0.0
C12 C 0.77742 0.53917 0.26699 0.0
H13 H 0.98852 0.83177 0.14521 0.0
H14 H 0.98026 0.74867 0.07247 0.0
H15 H 0.02273 0.77244 0.31382 0.0
H16 H 0.05159 0.72742 0.15558 0.0
C17 C 0.03163 0.72255 0.12724 0.0
O18 O 1.01239 0.73169 0.19033 0.0
H19 H 0.03024 0.73372 0.06325 0.0
C20 C 0.99151 0.81107 0.16005 0.0
C21 C 1.00422 0.80493 0.24188 0.0
C22 C 0.98358 0.79104 0.09654 0.0
C23 C 0.98711 0.76441 0.11836 0.0
C24 C 1.00327 0.75745 0.19044 0.0
C25 C 1.01117 0.77771 0.25511 0.0
H26 H 0.71136 0.03287 0.18534 0.0
H27 H 0.79 0.02154 0.07553 0.0
H28 H 0.77111 0.9921 0.34011 0.0
H29 H 0.83916 1.00968 0.29199 0.0
C30 C 0.83202 1.01169 0.22117 0.0
O31 O 0.80928 0.99603 0.20952 0.0
H32 H 0.82709 0.0331 0.21407 0.0
C33 C 0.7315 0.02556 0.19397 0.0
C34 C 0.73841 1.01245 0.27375 0.0
C35 C 0.75005 0.02898 0.12362 0.0
C36 C 0.77589 0.01911 0.13079 0.0
C37 C 0.7839 1.00606 0.20832 0.0
C38 C 0.76509 1.00256 0.28036 0.0
H39 H 0.57932 0.72135 0.29674 0.0
H40 H 0.57739 0.79215 0.14212 0.0
H41 H 0.52367 0.7832 0.3683 0.0
H42 H 0.5688 0.83925 0.26797 0.0
C43 C 0.54746 0.8398 0.24767 0.0
O44 O 0.53782 0.8142 0.23106 0.0
H45 H 0.53602 0.8489 0.30555 0.0
C46 C 0.57247 0.7415 0.28842 0.0
C47 C 0.55181 0.7508 0.34532 0.0
C48 C 0.58145 0.75577 0.2135 0.0
C49 C 0.57084 0.78111 0.19994 0.0
C50 C 0.55033 0.79144 0.25586 0.0
C51 C 0.54053 0.77605 0.32828 0.0
H52 H 0.21732 0.46052 0.13312 0.0
H53 H 0.29318 0.46515 0.26649 0.0
H54 H 0.27475 0.51905 0.05402 0.0
H55 H 0.30284 0.51758 0.30719 0.0
C56 C 0.31534 0.52277 0.24752 0.0
O57 O 0.31138 0.50454 0.17597 0.0
H58 H 0.30846 0.54257 0.22568 0.0
C59 C 0.23691 0.46934 0.13931 0.0
C60 C 0.24349 0.49062 0.0838 0.0
C61 C 0.25427 0.46032 0.20654 0.0
C62 C 0.27967 0.47169 0.21444 0.0
C63 C 0.2872 0.49288 0.16043 0.0
C64 C 0.26911 0.50236 0.09457 0.0
H65 H 0.03448 0.20522 0.1931 0.0
H66 H 0.03932 0.28727 0.28112 0.0
H67 H 0.03466 0.26669 0.99587 0.0
H68 H 0.05611 0.33699 0.06953 0.0
C69 C 0.05484 0.32609 0.13391 0.0
O70 O 0.0348 0.30696 0.12444 0.0
H71 H 0.07461 0.31634 0.14137 0.0
C72 C 0.03661 0.22597 0.17698 0.0
C73 C 0.03597 0.23292 0.08515 0.0
C74 C 0.0375 0.2453 0.24804 0.0
C75 C 0.03883 0.27217 0.2271 0.0
C76 C 0.038 0.28031 0.13756 0.0
C77 C 0.03666 0.26057 0.06541 0.0
H78 H 0.33306 0.06729 0.08921 0.0
H79 H 0.2523 0.06774 0.19436 0.0
H80 H 0.27417 0.01641 0.96811 0.0
H81 H 0.20448 0.0219 0.0128 0.0
C82 C 0.2121 0.03734 0.06141 0.0
O83 O 0.23632 0.02857 0.09532 0.0
H84 H 0.21533 0.05551 0.02146 0.0
C85 C 0.31245 0.06113 0.08639 0.0
C86 C 0.30584 0.0423 0.01839 0.0
C87 C 0.29368 0.07073 0.1516 0.0
C88 C 0.26743 0.06097 0.14645 0.0
C89 C 0.26037 0.04088 0.08357 0.0
C90 C 0.27949 0.03186 0.01742 0.0
H91 H 0.47076 0.33104 0.08272 0.0
H92 H 0.47803 0.26248 0.24677 0.0
H93 H 0.528 0.27038 1.00955 0.0
H94 H 0.5108 0.20651 0.06127 0.0
C95 C 0.50347 0.21411 0.12854 0.0
O96 O 0.51463 0.23897 0.1467 0.0
H97 H 0.48136 0.21577 0.12488 0.0
C98 C 0.47937 0.31159 0.09331 0.0
C99 C 0.50051 0.30302 0.03753 0.0
C100 C 0.47131 0.29746 0.16913 0.0
C101 C 0.48323 0.27296 0.1859 0.0
C102 C 0.50271 0.26234 0.12607 0.0
C103 C 0.51165 0.27759 0.05187 0.0
Eu104 Eu 0.04966 1.00737 0.72312 0.0
C105 C 0.97866 0.9907 0.43157 0.0
C106 C 0.99224 1.00504 0.28273 0.0
C107 C 0.96857 0.96335 0.29679 0.0
C108 C 0.99134 1.0089 0.37826 0.0
C109 C 0.96635 0.96812 0.39107 0.0
C110 C 0.98159 0.98175 0.24268 0.0
C111 C 0.94797 0.95827 0.53804 0.0
N112 N 0.97673 0.99602 0.52236 0.0
C113 C 0.96079 0.98071 0.57516 0.0
C114 C 0.95125 0.95159 0.44596 0.0
Eu115 Eu 0.99928 0.03431 0.58179 0.0
N116 N 1.00069 0.03149 0.41899 0.0
C117 C 1.00856 0.05222 0.36682 0.0
C118 C 1.00263 0.02526 0.22997 0.0
C119 C 1.01036 0.04917 0.27217 0.0
H120 H 0.95803 0.98535 0.64637 0.0
H121 H 1.01754 0.06534 0.23186 0.0
H122 H 0.98238 0.9783 0.16964 0.0
H123 H 0.93582 0.94597 0.58082 0.0
H124 H 1.01433 0.07094 0.39889 0.0
H125 H 0.01821 0.06107 0.03848 0.0
H126 H 1.0037 0.02304 0.15653 0.0
H127 H 0.11297 1.0013 0.64333 0.0
H128 H 1.01415 0.0291 0.91338 0.0
H129 H 0.15632 0.02372 0.65889 0.0
H130 H 0.95951 0.94597 0.2647 0.0
H131 H 0.05919 0.08761 0.05711 0.0
H132 H 0.10566 0.09687 1.00678 0.0
H133 H 0.94145 0.9341 0.4175 0.0
H134 H 0.14282 0.08762 0.90147 0.0
N135 N 0.05194 0.03765 0.85255 0.0
C136 C 0.03206 0.04052 0.91652 0.0
C137 C 0.05742 0.07369 0.99984 0.0
C138 C 0.07834 0.06982 0.93791 0.0
C139 C 0.03432 0.05873 0.98961 0.0
C140 C 0.075 0.05153 0.86385 0.0
H141 H 0.16181 0.06066 0.77152 0.0
N142 N 0.09288 0.02721 0.7386 0.0
C143 C 0.13947 0.03055 0.69958 0.0
C144 C 0.096 0.04627 0.80478 0.0
C145 C 0.11472 0.01816 0.69017 0.0
C146 C 0.14247 0.05137 0.76308 0.0
C147 C 0.12088 0.05894 0.81854 0.0
O148 O 0.08103 0.9821 0.77771 0.0
O149 O 1.01817 0.99566 0.61988 0.0
O150 O 0.97895 0.02418 0.71545 0.0
O151 O 1.00959 0.99886 0.79333 0.0
O152 O 0.05621 0.98218 0.59359 0.0
O153 O 0.04021 0.97108 0.79462 0.0
O154 O 0.95908 0.0446 0.63053 0.0
O155 O 0.02379 0.04327 0.7072 0.0
O156 O 0.07101 0.02097 0.59414 0.0
O157 O 0.03871 0.04017 0.505 0.0
O158 O 0.02352 0.07192 0.61217 0.0
O159 O 0.97715 0.06748 0.52674 0.0
C160 C 0.03184 0.98037 0.56663 0.0
C161 C 0.06932 0.93757 0.7422 0.0
C162 C 0.04954 0.89537 0.69203 0.0
C163 C 0.05186 0.91652 0.75643 0.0
C164 C 0.06677 0.89467 0.61612 0.0
C165 C 0.08693 0.93607 0.6674 0.0
C166 C 0.08569 0.91463 0.60519 0.0
C167 C 0.98528 1.0089 0.78364 0.0
C168 C 0.06475 0.96285 0.79347 0.0
C169 C 0.1239 0.07773 0.89002 0.0
C170 C 0.10273 0.08301 0.94992 0.0
C171 C 0.03168 0.06685 0.69294 0.0
C172 C 0.95332 0.09098 0.64297 0.0
C173 C 0.96817 0.1139 0.62681 0.0
C174 C 0.96722 0.13609 0.68705 0.0
C175 C 0.9497 0.13563 0.76192 0.0
C176 C 0.93575 0.09098 0.71761 0.0
C177 C 0.93392 0.11325 0.77647 0.0
C178 C 0.06371 0.0332 0.52005 0.0
C179 C 0.95815 0.06655 0.58686 0.0
H180 H 0.03925 0.91753 0.81641 0.0
H181 H 0.06535 0.87912 0.56402 0.0
H182 H 0.10066 0.95207 0.65409 0.0
H183 H 0.09874 0.91402 0.5463 0.0
H184 H 0.98064 0.11435 0.56662 0.0
H185 H 0.94843 0.15231 0.80992 0.0
H186 H 0.92377 0.07367 0.73116 0.0
H187 H 0.92054 0.11303 0.83441 0.0
Eu188 Eu 0.53619 0.04514 0.76521 0.0
C189 C 0.55108 0.95129 0.49548 0.0
C190 C 0.58132 0.96811 0.38207 0.0
C191 C 0.58034 0.9209 0.41012 0.0
C192 C 0.56156 0.97253 0.44983 0.0
C193 C 0.55999 0.92517 0.47478 0.0
C194 C 0.59099 0.94233 0.36388 0.0
C195 C 0.52618 0.90896 0.57636 0.0
N196 N 0.53106 0.95593 0.55619 0.0
C197 C 0.51786 0.93511 0.59396 0.0
C198 C 0.54756 0.90398 0.5173 0.0
Eu199 Eu 0.51705 1.00074 0.58074 0.0
N200 N 0.55169 0.99727 0.46857 0.0
C201 C 0.56017 0.01819 0.41859 0.0
C202 C 0.59015 0.98958 0.33218 0.0
C203 C 0.57916 1.0146 0.34956 0.0
H204 H 0.50108 0.93887 0.63907 0.0
H205 H 0.58526 0.03126 0.30973 0.0
H206 H 0.60621 0.93866 0.31243 0.0
H207 H 0.516 0.89269 0.60803 0.0
H208 H 0.55284 0.03798 0.4308 0.0
H209 H 0.5691 1.01343 0.09943 0.0
H210 H 0.60502 0.98695 0.27891 0.0
H211 H 0.48455 0.08374 0.71519 0.0
H212 H 0.57319 0.02119 0.93451 0.0
H213 H 0.44417 0.10254 0.7898 0.0
H214 H 0.58749 0.90101 0.39363 0.0
H215 H 0.52744 0.02554 0.18141 0.0
H216 H 0.48229 0.04716 0.1789 0.0
H217 H 0.55383 0.88368 0.50305 0.0
H218 H 0.44852 0.07185 0.09508 0.0
N219 N 0.53382 0.03648 0.92307 0.0
C220 C 0.5549 0.02647 0.97002 0.0
C221 C 0.52906 0.02881 0.1091 0.0
C222 C 0.50827 0.04073 0.06197 0.0
C223 C 0.55264 0.02202 0.06314 0.0
C224 C 0.51137 0.04452 0.96781 0.0
H225 H 0.43408 0.09256 0.95005 0.0
N226 N 0.49677 0.06293 0.83136 0.0
C227 C 0.45748 0.09003 0.82729 0.0
C228 C 0.49228 0.05824 0.92049 0.0
C229 C 0.48035 0.07935 0.78522 0.0
C230 C 0.4518 0.08428 0.91764 0.0
C231 C 0.46956 0.06865 0.96603 0.0
O232 O 0.54043 0.08843 0.76549 0.0
O233 O 0.55072 0.02551 0.63368 0.0
O234 O 0.53461 0.97651 0.69607 0.0
O235 O 0.53169 1.00404 0.82538 0.0
O236 O 0.57631 0.02433 0.74299 0.0
O237 O 0.57025 0.06452 0.82905 0.0
O238 O 0.4901 0.97461 0.50375 0.0
O239 O 0.50065 0.02778 0.69282 0.0
O240 O 0.52905 0.07052 0.64232 0.0
O241 O 0.51595 0.04224 0.52261 0.0
O242 O 0.48545 0.98995 0.68533 0.0
O243 O 0.4882 0.01661 0.48573 0.0
C244 C 0.57353 0.01754 0.65838 0.0
C245 C 0.58553 0.10228 0.7529 0.0
C246 C 0.633 0.10694 0.71927 0.0
C247 C 0.61208 0.09499 0.76663 0.0
C248 C 0.62722 0.12726 0.6593 0.0
C249 C 0.57998 0.12282 0.69322 0.0
C250 C 0.60076 0.13514 0.6465 0.0
C251 C 0.53514 0.98036 0.78572 0.0
C252 C 0.56415 0.088 0.80075 0.0
C253 C 0.46584 0.06402 0.05894 0.0
C254 C 0.48509 0.04998 0.10672 0.0
C255 C 0.48331 1.0126 0.72773 0.0
C256 C 0.44731 0.99337 0.48898 0.0
C257 C 0.43229 0.01688 0.48671 0.0
C258 C 0.40484 0.01685 0.50625 0.0
C259 C 0.39256 0.99272 0.52833 0.0
C260 C 0.43456 0.96953 0.51074 0.0
C261 C 0.40738 0.96932 0.53072 0.0
C262 C 0.52149 0.06612 0.55731 0.0
C263 C 0.47632 0.99397 0.47199 0.0
H264 H 0.61658 0.08 0.81566 0.0
H265 H 0.64305 0.13692 0.62251 0.0
H266 H 0.55966 0.12915 0.68191 0.0
H267 H 0.59631 0.15079 0.60005 0.0
H268 H 0.44213 0.03533 0.47103 0.0
H269 H 0.37134 0.99164 0.5412 0.0
H270 H 0.4456 0.95107 0.5129 0.0
H271 H 0.39769 0.95089 0.54726 0.0
Eu272 Eu 0.54238 0.51441 0.57727 0.0
C273 C 0.44407 0.51172 0.74772 0.0
C274 C 0.41697 0.54585 0.68112 0.0
C275 C 0.39741 0.50308 0.71227 0.0
C276 C 0.44174 0.537 0.71448 0.0
C277 C 0.42155 0.49487 0.74997 0.0
C278 C 0.39515 0.5285 0.67755 0.0
C279 C 0.4464 0.46556 0.84404 0.0
N280 N 0.46743 0.50466 0.78652 0.0
C281 C 0.46777 0.48327 0.84203 0.0
C282 C 0.42341 0.47098 0.79538 0.0
Eu283 Eu 0.50396 0.53502 0.7726 0.0
N284 N 0.46312 0.5535 0.71983 0.0
C285 C 0.45985 0.57991 0.70341 0.0
C286 C 0.41453 0.57222 0.65562 0.0
C287 C 0.4359 0.58947 0.66888 0.0
H288 H 0.48433 0.47978 0.8865 0.0
H289 H 0.43383 0.61027 0.6539 0.0
H290 H 0.37614 0.5349 0.6512 0.0
H291 H 0.44742 0.44813 0.88522 0.0
H292 H 0.47527 0.59416 0.71855 0.0
H293 H 0.59768 0.42282 0.64553 0.0
H294 H 0.39591 0.57971 0.62951 0.0
H295 H 0.57186 0.57373 0.52014 0.0
H296 H 0.56094 0.44904 0.58651 0.0
H297 H 0.61284 0.59798 0.55229 0.0
H298 H 0.38005 0.49031 0.71296 0.0
H299 H 0.63883 0.44504 0.69899 0.0
H300 H 0.66541 0.48681 0.71532 0.0
H301 H 0.40661 0.45753 0.79848 0.0
H302 H 0.66958 0.53452 0.68915 0.0
N303 N 0.57891 0.48663 0.61822 0.0
C304 C 0.57787 0.45943 0.6149 0.0
C305 C 0.6223 0.45685 0.67559 0.0
C306 C 0.62448 0.48438 0.66943 0.0
C307 C 0.59909 0.44426 0.64599 0.0
C308 C 0.60229 0.4989 0.63877 0.0
H309 H 0.65011 0.57613 0.6294 0.0
N310 N 0.58327 0.53899 0.59093 0.0
C311 C 0.61058 0.5779 0.57519 0.0
C312 C 0.60459 0.5258 0.62437 0.0
C313 C 0.58679 0.56411 0.55973 0.0
C314 C 0.63163 0.56544 0.61801 0.0
C315 C 0.62916 0.53883 0.64044 0.0
O316 O 0.54128 0.52931 0.43879 0.0
O317 O 0.5016 0.52875 0.62096 0.0
O318 O 0.51786 0.49145 0.78453 0.0
O319 O 0.52614 0.47643 0.63674 0.0
O320 O 0.50322 0.49397 0.54307 0.0
O321 O 0.55648 0.49011 0.46161 0.0
O322 O 0.50685 0.52708 0.91789 0.0
O323 O 0.54473 0.52085 0.72883 0.0
O324 O 0.53108 0.55859 0.56532 0.0
O325 O 0.5164 0.57378 0.70803 0.0
O326 O 0.5429 0.55596 0.8041 0.0
O327 O 0.48838 0.56321 0.87515 0.0
C328 C 0.48728 0.51151 0.5792 0.0
C329 C 0.53329 0.49634 0.32504 0.0
C330 C 0.50063 0.46455 0.26477 0.0
C331 C 0.51571 0.47509 0.33748 0.0
C332 C 0.50309 0.47597 0.17905 0.0
C333 C 0.53588 0.50711 0.23877 0.0
C334 C 0.52088 0.49686 0.16609 0.0
C335 C 0.52121 0.4718 0.72315 0.0
C336 C 0.54931 0.50699 0.40126 0.0
C337 C 0.65072 0.52476 0.67573 0.0
C338 C 0.64837 0.49759 0.6904 0.0
C339 C 0.55886 0.53827 0.76978 0.0
C340 C 0.51126 0.56497 0.01471 0.0
C341 C 0.52972 0.58464 0.99186 0.0
C342 C 0.54342 0.59932 0.05961 0.0
C343 C 0.53835 0.59375 0.15148 0.0
C344 C 0.50626 0.56006 0.10635 0.0
C345 C 0.51992 0.57424 0.17437 0.0
C346 C 0.52438 0.57809 0.62388 0.0
C347 C 0.49671 0.54986 0.94376 0.0
H348 H 0.514 0.46645 0.40366 0.0
H349 H 0.49192 0.46834 0.12136 0.0
H350 H 0.5496 0.52329 0.22756 0.0
H351 H 0.52319 0.50496 0.09921 0.0
H352 H 0.53304 0.58887 0.92129 0.0
H353 H 0.54782 0.60504 0.20608 0.0
H354 H 0.49169 0.54533 0.12526 0.0
H355 H 0.51595 0.57037 0.24516 0.0
Eu356 Eu 0.03424 0.54062 0.58478 0.0
C357 C 0.03803 0.43455 0.80032 0.0
C358 C 0.02017 0.40206 0.69275 0.0
C359 C 0.05076 0.38804 0.80925 0.0
C360 C 0.02221 0.4286 0.72615 0.0
C361 C 0.05186 0.41421 0.8445 0.0
C362 C 0.03501 0.38199 0.73325 0.0
C363 C 0.06456 0.44647 0.96069 0.0
N364 N 0.03853 0.45994 0.83306 0.0
C365 C 0.05088 0.46596 0.91396 0.0
C366 C 0.06551 0.42055 0.92491 0.0
Eu367 Eu 1.01436 0.49248 0.75279 0.0
N368 N 1.00791 0.44848 0.68916 0.0
C369 C 0.98983 0.44246 0.62219 0.0
C370 C 1.00278 0.39631 0.62106 0.0
C371 C 0.98732 0.41656 0.58641 0.0
H372 H 0.05002 0.48594 0.9427 0.0
H373 H 0.97357 0.41231 0.53143 0.0
H374 H 0.03386 0.36161 0.70789 0.0
H375 H 0.07405 0.45136 0.02486 0.0
H376 H 0.97798 0.45746 0.59193 0.0
H377 H 0.09025 0.61918 0.76678 0.0
H378 H 1.00078 0.37626 0.59316 0.0
H379 H 0.9902 0.54796 0.4166 0.0
H380 H 0.08083 0.57401 0.71309 0.0
H381 H 0.96412 0.58345 0.34673 0.0
H382 H 0.06144 0.37222 0.8417 0.0
H383 H 0.06143 0.65622 0.72188 0.0
H384 H 0.02317 0.67206 0.62958 0.0
H385 H 0.07605 0.40544 0.96142 0.0
H386 H 0.98845 0.66234 0.51631 0.0
N387 N 0.04531 0.58406 0.64185 0.0
C388 C 0.06744 0.58942 0.69327 0.0
C389 C 0.05674 0.63613 0.69887 0.0
C390 C 0.03519 0.63095 0.64126 0.0
C391 C 0.07311 0.61531 0.72404 0.0
C392 C 0.02995 0.6044 0.61314 0.0
H393 H 0.96674 0.62954 0.409 0.0
N394 N 1.0074 0.57363 0.51794 0.0
C395 C 0.9767 0.58808 0.40458 0.0
C396 C 1.01042 0.599 0.54924 0.0
C397 C 0.9916 0.56809 0.44402 0.0
C398 C 0.97825 0.61403 0.43993 0.0
C399 C 0.99566 0.61989 0.51178 0.0
O400 O 0.04246 0.5438 0.44006 0.0
O401 O 0.0334 0.49689 0.61535 0.0
O402 O 0.05962 0.4954 0.76449 0.0
O403 O 0.07064 0.53085 0.6725 0.0
O404 O 0.01989 0.50722 0.48924 0.0
O405 O 0.07529 0.54275 0.53442 0.0
O406 O 0.9987 0.48443 0.88813 0.0
O407 O 0.01876 0.53627 0.72632 0.0
O408 O 0.98858 0.5419 0.59801 0.0
O409 O 0.98054 0.49993 0.65172 0.0
O410 O 0.02826 0.52422 0.85463 0.0
O411 O 0.97195 0.49702 0.78421 0.0
C412 C 0.02569 0.48742 0.53878 0.0
C413 C 0.07976 0.51936 0.39181 0.0
C414 C 0.10579 0.47837 0.37327 0.0
C415 C 0.09393 0.49828 0.4296 0.0
C416 C 0.10124 0.47901 0.27855 0.0
C417 C 0.07567 0.51945 0.29765 0.0
C418 C 0.08597 0.49912 0.24168 0.0
C419 C 0.07692 0.51274 0.73272 0.0
C420 C 0.06798 0.54079 0.4494 0.0
C421 C 0.99976 0.64609 0.54362 0.0
C422 C 0.01956 0.65162 0.608 0.0
C423 C 0.02647 0.54464 0.80463 0.0
C424 C 0.96524 0.51486 0.93375 0.0
C425 C 0.95156 0.53703 0.90129 0.0
C426 C 0.94029 0.55615 0.96195 0.0
C427 C 0.94494 0.55361 0.05599 0.0
C428 C 0.96945 0.51287 0.02746 0.0
C429 C 0.95973 0.5324 0.08792 0.0
C430 C 0.97241 0.52156 0.61046 0.0
C431 C 0.97523 0.49373 0.87073 0.0
H432 H 0.0961 0.49775 0.50268 0.0
H433 H 0.11036 0.46481 0.23138 0.0
H434 H 0.06436 0.53523 0.26744 0.0
H435 H 0.08278 0.49935 0.16897 0.0
H436 H 0.94909 0.53896 0.82876 0.0
H437 H 0.93617 0.56713 0.10624 0.0
H438 H 0.98016 0.49611 0.054 0.0
H439 H 0.96288 0.53063 0.16024 0.0
H440 H 0.19798 1.00815 0.21664 0.0
H441 H 0.17528 0.07726 0.06629 0.0
H442 H 0.13616 0.08397 0.16646 0.0
H443 H 0.13181 0.98416 0.25375 0.0
H444 H 0.13749 0.97319 0.36752 0.0
H445 H 0.16476 0.97423 0.28749 0.0
H446 H 0.19139 1.00442 0.39982 0.0
H447 H 0.16422 1.00327 0.48033 0.0
H448 H 0.17652 0.03482 0.44375 0.0
H449 H 0.09759 0.08214 0.27797 0.0
H450 H 0.06408 0.07302 0.39666 0.0
H451 H 0.11081 1.00557 0.47993 0.0
C452 C 0.18516 0.02509 0.20647 0.0
C453 C 0.19045 0.04269 0.1345 0.0
C454 C 0.17237 0.06395 0.12195 0.0
C455 C 0.14986 0.06785 0.17844 0.0
C456 C 0.14523 0.05032 0.24838 0.0
C457 C 0.16247 0.02945 0.26336 0.0
C458 C 0.15227 1.01323 0.34253 0.0
C459 C 0.14623 0.9845 0.31091 0.0
C460 C 0.1723 1.01398 0.42127 0.0
C461 C 0.12668 0.02812 0.36896 0.0
C462 C 0.12299 0.04938 0.3133 0.0
C463 C 0.10045 0.06563 0.32228 0.0
C464 C 0.08133 0.06018 0.38984 0.0
C465 C 0.0846 0.03869 0.44885 0.0
C466 C 0.10778 0.0225 0.43767 0.0
H467 H 0.4724 0.17409 0.1997 0.0
H468 H 0.55182 0.20772 0.21485 0.0
H469 H 0.56471 0.17354 0.32391 0.0
H470 H 0.46747 0.15738 0.4372 0.0
H471 H 0.44993 0.12663 0.41715 0.0
H472 H 0.446 0.15349 0.33987 0.0
H473 H 0.46065 0.12329 0.20378 0.0
H474 H 0.46401 0.09586 0.2786 0.0
H475 H 0.4918 0.10552 0.20877 0.0
H476 H 0.56902 0.13566 0.43205 0.0
H477 H 0.56462 0.09671 0.52936 0.0
H478 H 0.48276 0.08637 0.44344 0.0
C479 C 0.49242 0.17444 0.22687 0.0
C480 C 0.51092 0.19415 0.20039 0.0
C481 C 0.53712 0.19336 0.23566 0.0
C482 C 0.54464 0.17389 0.29733 0.0
C483 C 0.52589 0.15495 0.32254 0.0
C484 C 0.5003 0.15501 0.28833 0.0
C485 C 0.48404 0.13228 0.32632 0.0
C486 C 0.46045 0.14309 0.38345 0.0
C487 C 0.47457 0.11311 0.24981 0.0
C488 C 0.50457 0.11919 0.38622 0.0
C489 C 0.52851 0.1328 0.38355 0.0
C490 C 0.55033 0.125 0.43469 0.0
C491 C 0.5476 0.10299 0.49043 0.0
C492 C 0.52331 0.08882 0.4951 0.0
C493 C 0.50159 0.09683 0.44115 0.0
H494 H 0.34635 0.48379 0.32787 0.0
H495 H 0.34906 0.56563 0.24557 0.0
H496 H 0.39257 0.57139 0.32114 0.0
H497 H 0.3722 0.493 0.54033 0.0
H498 H 0.3943 0.46473 0.54566 0.0
H499 H 0.36516 0.46326 0.47467 0.0
H500 H 0.3913 0.45216 0.3309 0.0
H501 H 0.42154 0.45097 0.39643 0.0
H502 H 0.4194 0.47226 0.30018 0.0
H503 H 0.43475 0.56934 0.41308 0.0
H504 H 0.47398 0.55857 0.50609 0.0
H505 H 0.44533 0.47817 0.53136 0.0
C506 C 0.3565 0.50268 0.32375 0.0
C507 C 0.34429 0.52419 0.2795 0.0
C508 C 0.35801 0.54876 0.27767 0.0
C509 C 0.38274 0.55227 0.32103 0.0
C510 C 0.39388 0.53098 0.36601 0.0
C511 C 0.38149 0.50648 0.36633 0.0
C512 C 0.39784 0.48702 0.42067 0.0
C513 C 0.38145 0.47638 0.50019 0.0
C514 C 0.40813 0.46421 0.3584 0.0
C515 C 0.42078 0.50466 0.45357 0.0
C516 C 0.41812 0.5299 0.42037 0.0
C517 C 0.43691 0.54967 0.4397 0.0
C518 C 0.45902 0.54353 0.49362 0.0
C519 C 0.46233 0.51794 0.52888 0.0
C520 C 0.44303 0.49814 0.50726 0.0
H521 H 0.02438 0.37295 0.14011 0.0
H522 H 0.07614 0.32601 0.30677 0.0
H523 H 0.07499 0.36147 0.42727 0.0
H524 H 0.05281 0.43638 0.20062 0.0
H525 H 0.02159 0.45409 0.20168 0.0
H526 H 0.02575 0.42475 0.12988 0.0
H527 H 0.98437 0.40341 0.205 0.0
H528 H 0.98002 0.43286 0.27616 0.0
H529 H 0.98309 0.4009 0.327 0.0
H530 H 0.07142 0.4051 0.52587 0.0
H531 H 0.0607 0.44894 0.59901 0.0
H532 H 1.00871 0.46626 0.37436 0.0
C533 C 0.035 0.36988 0.20279 0.0
C534 C 0.05025 0.34634 0.21357 0.0
C535 C 0.06415 0.34355 0.29657 0.0
C536 C 0.06377 0.36379 0.36538 0.0
C537 C 0.04917 0.38699 0.35165 0.0
C538 C 0.03468 0.38992 0.27278 0.0
C539 C 0.02062 0.41682 0.27475 0.0
C540 C 0.03079 0.43401 0.19712 0.0
C541 C 0.99022 0.41328 0.27047 0.0
C542 C 0.02916 0.42842 0.36707 0.0
C543 C 0.04605 0.41116 0.40986 0.0
C544 C 0.05766 0.41836 0.49351 0.0
C545 C 0.05132 0.44331 0.5352 0.0
C546 C 0.03288 0.46076 0.49513 0.0
C547 C 0.02221 0.45316 0.40873 0.0
H548 H 0.84842 0.03672 0.06351 0.0
H549 H 0.86791 0.97026 0.2309 0.0
H550 H 0.90858 0.96159 0.13774 0.0
H551 H 0.8724 1.00728 0.84587 0.0
H552 H 0.88528 0.03836 0.8069 0.0
H553 H 0.85714 0.03814 0.88355 0.0
H554 H 0.88248 0.0696 0.99525 0.0
H555 H 0.91084 0.06955 0.91959 0.0
H556 H 0.91485 0.05998 0.03574 0.0
H557 H 0.94962 0.96234 0.03023 0.0
H558 H 0.98454 0.97055 0.91458 0.0
H559 H 0.93785 0.03593 0.81508 0.0
C560 C 0.86095 0.01999 0.07935 0.0
C561 C 0.85473 1.00403 0.15467 0.0
C562 C 0.87199 0.98259 0.17343 0.0
C563 C 0.89528 0.97763 0.12098 0.0
C564 C 0.90118 0.99413 0.04875 0.0
C565 C 0.88428 1.01472 0.02733 0.0
C566 C 0.89545 0.02996 0.94772 0.0
C567 C 0.87643 0.02833 0.86617 0.0
C568 C 0.90124 0.05899 0.97633 0.0
C569 C 0.9212 1.01479 0.92747 0.0
C570 C 0.92431 0.99429 0.98684 0.0
C571 C 0.94711 0.97822 0.98307 0.0
C572 C 0.96698 0.98308 0.91701 0.0
C573 C 0.9641 1.00376 0.85431 0.0
C574 C 0.94072 0.01972 0.86051 0.0
H575 H 0.5317 0.89273 0.23858 0.0
H576 H 0.5595 0.82654 0.06802 0.0
H577 H 0.5603 0.85533 0.93564 0.0
H578 H 0.48819 0.92141 0.06745 0.0
H579 H 0.49554 0.95524 0.10197 0.0
H580 H 0.49693 0.92939 0.18383 0.0
H581 H 0.54544 0.94256 0.2226 0.0
H582 H 0.54411 0.96838 0.14089 0.0
H583 H 0.57004 0.9436 0.13294 0.0
H584 H 0.56007 0.89166 0.82207 0.0
H585 H 0.55567 0.93194 0.73282 0.0
H586 H 0.52495 0.97495 0.97121 0.0
C587 C 0.53755 0.8842 0.173 0.0
C588 C 0.54519 0.85703 0.16405 0.0
C589 C 0.55331 0.84698 0.07724 0.0
C590 C 0.55388 0.8633 1.00133 0.0
C591 C 0.54629 0.88986 0.0125 0.0
C592 C 0.53798 0.90026 0.0959 0.0
C593 C 0.53067 0.92953 0.08864 0.0
C594 C 0.50107 0.93415 0.11184 0.0
C595 C 0.54866 0.94705 0.14985 0.0
C596 C 0.53625 0.93392 0.98817 0.0
C597 C 0.54544 0.91075 0.94602 0.0
C598 C 0.55247 0.90977 0.85416 0.0
C599 C 0.54964 0.93281 0.80354 0.0
C600 C 0.53937 0.95668 0.84361 0.0
C601 C 0.53287 0.95716 0.93793 0.0
H602 H 0.68656 0.57756 0.07022 0.0
H603 H 0.69194 0.49528 0.14525 0.0
H604 H 0.65582 0.48368 0.03649 0.0
H605 H 0.6171 0.58093 0.05399 0.0
H606 H 0.61665 0.60205 0.957 0.0
H607 H 0.64455 0.60307 0.03323 0.0
H608 H 0.67602 0.59352 0.89749 0.0
H609 H 0.64823 0.59152 0.82036 0.0
H610 H 0.67123 0.56414 0.82678 0.0
H611 H 0.61573 0.48199 0.92846 0.0
H612 H 0.57652 0.4903 0.83151 0.0
H613 H 0.59704 0.57374 0.82725 0.0
C614 C 0.68056 0.55699 0.06224 0.0
C615 C 0.69236 0.53723 0.11593 0.0
C616 C 0.68349 0.51066 0.10431 0.0
C617 C 0.66291 0.50393 0.04272 0.0
C618 C 0.65133 0.52396 0.99223 0.0
C619 C 0.66006 0.54995 1.00081 0.0
C620 C 0.64348 0.56797 0.94209 0.0
C621 C 0.62961 0.58979 1.00017 0.0
C622 C 0.66076 0.58 0.86721 0.0
C623 C 0.6234 0.54839 0.90196 0.0
C624 C 0.62848 0.52299 0.93051 0.0
C625 C 0.61191 0.50177 0.90495 0.0
C626 C 0.58965 0.50665 0.84955 0.0
C627 C 0.58402 0.53255 0.81979 0.0
C628 C 0.60115 0.55362 0.84716 0.0
H629 H 0.9961 0.69472 1.00915 0.0
H630 H 0.06567 0.6831 0.17703 0.0
H631 H 0.07221 0.63865 0.10596 0.0
H632 H 0.97425 0.62186 0.0165 0.0
H633 H 0.96168 0.62225 0.90192 0.0
H634 H 0.96089 0.65212 0.9726 0.0
H635 H 0.98598 0.67573 0.84672 0.0
H636 H 0.98914 0.64577 0.77752 0.0
H637 H 0.01847 0.6643 0.81142 0.0
H638 H 0.07438 0.59737 1.00852 0.0
H639 H 0.06792 0.55791 0.90888 0.0
H640 H 0.99568 0.59238 0.80237 0.0
C641 C 1.01213 0.6824 0.03316 0.0
C642 C 0.0303 0.6927 0.09997 0.0
C643 C 0.05131 0.67592 0.12738 0.0
C644 C 0.05535 0.65059 0.08647 0.0
C645 C 0.03797 0.64157 0.01849 0.0
C646 C 1.01618 0.65646 0.99394 0.0
C647 C 1.00047 0.64135 0.91951 0.0
C648 C 0.97266 0.63397 0.95479 0.0
C649 C 0.99841 0.65774 0.83356 0.0
C650 C 1.01759 0.61634 0.90313 0.0
C651 C 0.03904 0.61713 0.9619 0.0
C652 C 0.05761 0.59656 0.9626 0.0
C653 C 0.05384 0.57418 0.90484 0.0
C654 C 0.03179 0.572 0.84514 0.0
C655 C 1.01335 0.59366 0.84415 0.0
H656 H 0.05641 0.20116 0.3324 0.0
H657 H 1.00722 0.27131 0.37862 0.0
H658 H 0.99358 0.255 0.52682 0.0
H659 H 1.00947 0.1587 0.39948 0.0
H660 H 0.03146 0.13523 0.45108 0.0
H661 H 0.04373 0.15578 0.36273 0.0
H662 H 0.08105 0.17283 0.4685 0.0
H663 H 0.06876 0.15281 0.55907 0.0
H664 H 0.07293 0.18825 0.57705 0.0
H665 H 0.97533 0.22669 0.64378 0.0
H666 H 0.95426 0.1888 0.71644 0.0
H667 H 1.01704 0.13719 0.60878 0.0
C668 C 0.0434 0.21346 0.37491 0.0
C669 C 0.03321 0.23765 0.3438 0.0
C670 C 1.01601 0.25305 0.40136 0.0
C671 C 1.00803 0.2439 0.48605 0.0
C672 C 1.0174 0.21935 0.51275 0.0
C673 C 0.03489 0.20439 0.4591 0.0
C674 C 0.03826 0.17678 0.49489 0.0
C675 C 0.03023 0.1554 0.4228 0.0
C676 C 0.06695 0.17242 0.527 0.0
C677 C 0.01868 0.17806 0.57374 0.0
C678 C 1.00715 0.20291 0.58381 0.0
C679 C 0.98481 0.20739 0.63916 0.0
C680 C 0.97297 0.18566 0.6807 0.0
C681 C 0.98362 0.15981 0.66699 0.0
C682 C 1.00798 0.15657 0.61891 0.0
H683 H 0.33847 0.10278 0.17 0.0
H684 H 0.27025 0.07594 0.32462 0.0
H685 H 0.29521 0.08151 0.46307 0.0
H686 H 0.37203 0.05606 0.22837 0.0
H687 H 0.40491 0.07031 0.23853 0.0
H688 H 0.38092 0.0855 0.16819 0.0
H689 H 0.38608 0.13021 0.25883 0.0
H690 H 0.41094 0.11448 0.32689 0.0
H691 H 0.38292 0.13104 0.38108 0.0
H692 H 0.32794 0.06594 0.56417 0.0
H693 H 0.36088 0.03271 0.60635 0.0
H694 H 0.41157 0.05597 0.38312 0.0
C695 C 0.32869 0.09815 0.23315 0.0
C696 C 0.30303 0.08659 0.23361 0.0
C697 C 0.29016 0.08382 0.31891 0.0
C698 C 0.30446 0.08699 0.39972 0.0
C699 C 0.3318 0.09183 0.3945 0.0
C700 C 0.34389 0.09787 0.31253 0.0
C701 C 0.37367 0.09247 0.31518 0.0
C702 C 0.38336 0.07501 0.23293 0.0
C703 C 0.3893 0.11864 0.32099 0.0
C704 C 0.37537 0.07809 0.40394 0.0
C705 C 0.35165 0.08013 0.45232 0.0
C706 C 0.34676 0.06475 0.52793 0.0
C707 C 0.36543 0.04548 0.55051 0.0
C708 C 0.38865 0.04138 0.49704 0.0
C709 C 0.3943 0.05899 0.42648 0.0
H710 H 0.48997 0.31458 0.32985 0.0
H711 H 0.42068 0.31716 0.15833 0.0
H712 H 0.41344 0.36392 0.20338 0.0
H713 H 0.46817 0.37529 0.50127 0.0
H714 H 0.50259 0.38546 0.50321 0.0
H715 H 0.49424 0.35062 0.50045 0.0
H716 H 0.52434 0.3439 0.35867 0.0
H717 H 0.53214 0.37845 0.35822 0.0
H718 H 0.5177 0.36265 0.25855 0.0
H719 H 0.42661 0.41072 0.20138 0.0
H720 H 0.45166 0.45257 0.18988 0.0
H721 H 0.51311 0.42125 0.36266 0.0
C722 C 0.47191 0.32443 0.30901 0.0
C723 C 0.45624 0.31275 0.23951 0.0
C724 C 0.43288 0.32592 0.21183 0.0
C725 C 0.42893 0.35275 0.2361 0.0
C726 C 0.44787 0.36547 0.29114 0.0
C727 C 0.46826 0.35142 0.33148 0.0
C728 C 0.48923 0.37011 0.37072 0.0
C729 C 0.48848 0.37037 0.47515 0.0
C730 C 0.51746 0.36337 0.33419 0.0
C731 C 0.47935 0.39622 0.33571 0.0
C732 C 0.45514 0.39336 0.2921 0.0
C733 C 0.44483 0.41354 0.23947 0.0
C734 C 0.4594 0.43716 0.23218 0.0
C735 C 0.48401 0.44053 0.27752 0.0
C736 C 0.49375 0.41983 0.33079 0.0
H737 H 0.22195 0.41695 0.18738 0.0
H738 H 0.26035 0.46735 0.38988 0.0
H739 H 0.22556 0.45727 0.49949 0.0
H740 H 0.16941 0.44095 0.19023 0.0
H741 H 0.14566 0.41408 0.18369 0.0
H742 H 0.17898 0.40851 0.14556 0.0
H743 H 0.1844 0.37 0.25552 0.0
H744 H 0.15047 0.37509 0.29373 0.0
H745 H 0.17724 0.37513 0.37495 0.0
H746 H 0.18103 0.46527 0.54572 0.0
H747 H 0.13813 0.48594 0.52378 0.0
H748 H 0.12071 0.42875 0.306 0.0
C749 C 0.22359 0.42438 0.2569 0.0
C750 C 0.24319 0.44354 0.27921 0.0
C751 C 0.24546 0.45272 0.37048 0.0
C752 C 0.2255 0.44709 0.43366 0.0
C753 C 0.20346 0.43221 0.40469 0.0
C754 C 0.20293 0.41973 0.31918 0.0
C755 C 0.17475 0.41113 0.29487 0.0
C756 C 0.16676 0.41923 0.19807 0.0
C757 C 0.17153 0.38106 0.30547 0.0
C758 C 0.15918 0.42621 0.36853 0.0
C759 C 0.1761 0.43655 0.43488 0.0
C760 C 0.16753 0.45649 0.49623 0.0
C761 C 0.14265 0.46827 0.48311 0.0
C762 C 0.12613 0.45977 0.41001 0.0
C763 C 0.13337 0.43648 0.35975 0.0
H764 H 0.95839 0.8356 0.03299 0.0
H765 H 0.99614 0.76188 0.9409 0.0
H766 H 1.00095 0.77877 0.79017 0.0
H767 H 0.93536 0.8571 0.78124 0.0
H768 H 0.94364 0.89091 0.81312 0.0
H769 H 0.9287 0.86952 0.89533 0.0
H770 H 0.96776 0.87968 1.00484 0.0
H771 H 0.98289 0.90055 0.92347 0.0
H772 H 1.00148 0.87307 0.96708 0.0
H773 H 0.02206 0.80709 0.68626 0.0
H774 H 0.0515 0.84247 0.6371 0.0
H775 H 1.0006 0.90066 0.77627 0.0
C776 C 0.96668 0.82271 0.97993 0.0
C777 C 0.97724 0.79763 1.00074 0.0
C778 C 0.98742 0.78108 0.92872 0.0
C779 C 0.99038 0.7906 0.84136 0.0
C780 C 0.98325 0.81675 0.82612 0.0
C781 C 0.97059 0.83243 0.89254 0.0
C782 C 0.97083 0.86138 0.86717 0.0
C783 C 0.94297 0.87023 0.8374 0.0
C784 C 0.98142 0.87968 0.94518 0.0
C785 C 0.98977 0.85987 0.78662 0.0
C786 C 0.99553 0.83388 0.76081 0.0
C787 C 1.01689 0.82753 0.70283 0.0
C788 C 0.03373 0.84792 0.67529 0.0
C789 C 0.02897 0.87449 0.70484 0.0
C790 C 1.00553 0.88048 0.75537 0.0
H791 H 0.71721 1.01071 0.99041 0.0
H792 H 0.76483 0.07845 0.07542 0.0
H793 H 0.74716 0.10393 0.94744 0.0
H794 H 0.72056 0.02388 0.73329 0.0
H795 H 0.68669 1.01268 0.719 0.0
H796 H 0.70776 0.99782 0.80259 0.0
H797 H 0.67272 1.00906 0.92854 0.0
H798 H 0.65163 0.02345 0.84533 0.0
H799 H 0.66143 0.0429 0.94446 0.0
H800 H 0.71682 0.12464 0.83691 0.0
H801 H 0.67621 0.13859 0.75692 0.0
H802 H 0.65106 0.05649 0.73188 0.0
C803 C 0.72448 0.03061 0.97961 0.0
C804 C 0.74224 0.04283 0.04145 0.0
C805 C 0.75126 0.06893 0.02758 0.0
C806 C 0.74151 0.08338 0.95488 0.0
C807 C 0.72335 0.07108 0.89578 0.0
C808 C 0.71529 0.04505 0.90644 0.0
C809 C 0.69309 0.03752 0.84158 0.0
C810 C 0.70261 0.01674 0.76987 0.0
C811 C 0.66827 0.0277 0.89308 0.0
C812 C 0.68825 0.06401 0.79899 0.0
C813 C 0.70635 0.08299 0.82891 0.0
C814 C 0.70308 0.10982 0.81037 0.0
C815 C 0.68001 0.11761 0.76455 0.0
C816 C 0.6606 0.09857 0.73872 0.0
C817 C 0.66573 0.07139 0.75098 0.0
H818 H 0.62098 0.71874 0.22964 0.0
H819 H 0.57361 0.75808 0.02921 0.0
H820 H 0.57589 0.71871 0.92972 0.0
H821 H 0.64999 0.65904 0.0609 0.0
H822 H 0.64493 0.63746 0.15507 0.0
H823 H 0.65655 0.67093 0.17543 0.0
H824 H 0.61703 0.67746 0.28974 0.0
H825 H 0.60525 0.64476 0.2638 0.0
H826 H 0.58338 0.6727 0.24927 0.0
H827 H 0.5619 0.67445 0.89344 0.0
H828 H 0.53794 0.63321 0.91732 0.0
H829 H 0.58853 0.61718 0.14762 0.0
C830 C 0.61241 0.71929 0.16237 0.0
C831 C 0.59608 0.74091 0.13936 0.0
C832 C 0.58592 0.7417 0.04997 0.0
C833 C 0.58697 0.71905 0.99265 0.0
C834 C 0.59801 0.69584 0.02597 0.0
C835 C 0.61142 0.69593 0.10834 0.0
C836 C 0.61417 0.66792 0.1428 0.0
C837 C 0.64313 0.65826 0.1328 0.0
C838 C 0.60432 0.66565 0.24207 0.0
C839 C 0.59623 0.65306 0.0764 0.0
C840 C 0.5887 0.66904 1.00604 0.0
C841 C 0.56852 0.66141 0.94594 0.0
C842 C 0.55484 0.63773 0.96039 0.0
C843 C 0.56123 0.62171 0.03484 0.0
C844 C 0.583 0.62906 0.09068 0.0
H845 H 0.82732 0.62028 0.16121 0.0
H846 H 0.78778 0.5705 0.95935 0.0
H847 H 0.82143 0.58157 0.84731 0.0
H848 H 0.8721 0.66189 0.97301 0.0
H849 H 0.89928 0.66095 0.05242 0.0
H850 H 0.8657 0.66682 0.09299 0.0
H851 H 0.87045 0.62773 0.20129 0.0
H852 H 0.90351 0.62188 0.16139 0.0
H853 H 0.87945 0.59529 0.15516 0.0
H854 H 0.86529 0.57448 0.79414 0.0
H855 H 0.90744 0.55196 0.81136 0.0
H856 H 0.92684 0.60487 0.03942 0.0
C857 C 0.82532 0.61296 0.09169 0.0
C858 C 0.80564 0.59384 0.07005 0.0
C859 C 0.80274 0.58505 0.97855 0.0
C860 C 0.82205 0.59131 0.91384 0.0
C861 C 0.84432 0.60601 0.94178 0.0
C862 C 0.84558 0.61781 0.02833 0.0
C863 C 0.87405 0.62556 0.05165 0.0
C864 C 0.87801 0.65558 0.04186 0.0
C865 C 0.8823 0.61701 0.14781 0.0
C866 C 0.88883 0.61034 0.97649 0.0
C867 C 0.87141 0.60141 0.90938 0.0
C868 C 0.87915 0.58202 0.84475 0.0
C869 C 0.90357 0.56914 0.85532 0.0
C870 C 0.92038 0.57588 0.92963 0.0
C871 C 0.91401 0.59861 0.98414 0.0
H872 H 0.06939 0.20748 0.95374 0.0
H873 H 0.9897 0.20566 0.06831 0.0
H874 H 0.98137 0.16273 0.98807 0.0
H875 H 0.05159 0.17804 0.73023 0.0
H876 H 0.08182 0.15863 0.71833 0.0
H877 H 0.08184 0.18953 0.78317 0.0
H878 H 0.10007 0.16575 0.92081 0.0
H879 H 0.09992 0.13441 0.8585 0.0
H880 H 0.08218 0.138 0.96541 0.0
H881 H 0.98349 0.11686 0.91155 0.0
H882 H 0.99106 0.07713 0.81212 0.0
H883 H 0.06769 0.10852 0.73111 0.0
C884 C 0.04989 0.19849 0.9594 0.0
C885 C 0.02998 0.21058 0.01664 0.0
C886 C 1.0051 0.19736 0.02397 0.0
C887 C 1.00029 0.17266 0.97935 0.0
C888 C 0.02046 0.16093 0.92607 0.0
C889 C 0.04453 0.1737 0.91369 0.0
C890 C 0.06254 0.15659 0.85119 0.0
C891 C 0.06987 0.17158 0.76548 0.0
C892 C 0.08769 0.14817 0.902 0.0
C893 C 0.04468 0.13256 0.82907 0.0
C894 C 0.02086 0.1352 0.87603 0.0
C895 C 1.00181 0.11497 0.87272 0.0
C896 C 1.00642 0.0922 0.81656 0.0
C897 C 0.02997 0.08931 0.76356 0.0
C898 C 0.04945 0.10993 0.77062 0.0
H899 H 0.35057 1.01117 0.04517 0.0
H900 H 0.31242 0.05968 0.84577 0.0
H901 H 0.35386 0.05877 0.75338 0.0
H902 H 0.41305 0.04041 0.035 0.0
H903 H 0.43315 1.01088 0.04428 0.0
H904 H 0.40012 1.01222 0.09307 0.0
H905 H 0.38517 0.97078 1.00058 0.0
H906 H 0.41846 0.96771 0.95471 0.0
H907 H 0.39036 0.96917 0.87915 0.0
H908 H 0.40176 0.05641 0.69039 0.0
H909 H 0.4485 0.04618 0.64735 0.0
H910 H 0.45596 0.99724 0.8827 0.0
C911 C 0.35056 0.02053 0.97988 0.0
C912 C 0.32765 0.03473 0.95132 0.0
C913 C 0.32912 0.04785 0.86761 0.0
C914 C 0.35282 0.04769 0.81514 0.0
C915 C 0.37515 0.03402 0.84613 0.0
C916 C 0.374 0.02008 0.92555 0.0
C917 C 0.401 1.00735 0.94445 0.0
C918 C 0.41253 0.01836 0.03456 0.0
C919 C 0.3986 0.97694 0.94472 0.0
C920 C 0.41755 0.01624 0.86345 0.0
C921 C 0.40232 0.03198 0.80838 0.0
C922 C 0.41344 0.04339 0.73153 0.0
C923 C 0.44021 0.03773 0.70808 0.0
C924 C 0.45616 0.02116 0.76176 0.0
C925 C 0.44447 1.01024 0.8406 0.0
H926 H 0.51516 0.35405 0.07816 0.0
H927 H 0.50806 0.29793 0.85069 0.0
H928 H 0.51516 0.33475 0.74416 0.0
H929 H 0.47708 0.40256 0.98184 0.0
H930 H 0.49513 0.43085 0.02601 0.0
H931 H 0.49483 0.40052 0.0877 0.0
H932 H 0.54598 0.39733 0.08635 0.0
H933 H 0.54727 0.42871 0.03094 0.0
H934 H 0.56403 0.40012 0.98068 0.0
H935 H 0.5178 0.37952 0.6632 0.0
H936 H 0.51812 0.42617 0.6156 0.0
H937 H 0.52313 0.45277 0.89832 0.0
C938 C 0.51597 0.3493 1.00587 0.0
C939 C 0.51137 0.3229 0.97285 0.0
C940 C 0.51205 0.31774 0.87776 0.0
C941 C 0.5158 0.33867 0.81686 0.0
C942 C 0.51891 0.36466 0.85206 0.0
C943 C 0.51933 0.36988 0.94473 0.0
C944 C 0.52055 0.39955 0.96628 0.0
C945 C 0.49541 0.40889 0.01865 0.0
C946 C 0.54598 0.40685 0.01916 0.0
C947 C 0.52114 0.41046 0.87128 0.0
C948 C 0.52002 0.39009 0.80618 0.0
C949 C 0.519 0.3955 0.71378 0.0
C950 C 0.51928 0.42219 0.6874 0.0
C951 C 0.52076 0.44348 0.7528 0.0
C952 C 0.52181 0.43723 0.84609 0.0
H953 H 0.18922 0.4961 0.1132 0.0
H954 H 0.24966 0.50618 0.90514 0.0
H955 H 0.21402 0.51506 0.79336 0.0
H956 H 0.14396 0.4598 0.97716 0.0
H957 H 0.11478 0.47466 0.02974 0.0
H958 H 0.14509 0.47234 0.09325 0.0
H959 H 0.14316 0.52285 0.12663 0.0
H960 H 0.11313 0.52552 0.06088 0.0
H961 H 0.14179 0.5453 0.03357 0.0
H962 H 0.17003 0.5207 0.70136 0.0
H963 H 0.12389 0.52183 0.64129 0.0
H964 H 0.09317 0.50426 0.9084 0.0
C965 C 0.19519 0.50026 0.04424 0.0
C966 C 0.22258 0.50016 0.01843 0.0
C967 C 0.22905 0.50632 0.92748 0.0
C968 C 0.20882 0.5112 0.86322 0.0
C969 C 0.18204 0.50999 0.89052 0.0
C970 C 0.17533 0.5048 0.97941 0.0
C971 C 0.14526 0.50327 0.99167 0.0
C972 C 0.13681 0.47585 0.0248 0.0
C973 C 0.13526 0.52556 0.05707 0.0
C974 C 0.13589 0.50762 0.89525 0.0
C975 C 0.1573 0.51202 0.83795 0.0
C976 C 0.15329 0.51715 0.74606 0.0
C977 C 0.12695 0.51772 0.71231 0.0
C978 C 0.10479 0.51252 0.76931 0.0
C979 C 0.10957 0.50755 0.86216 0.0
H980 H 0.03214 0.85217 0.21776 0.0
H981 H 0.98646 0.81036 0.4189 0.0
H982 H 0.98651 0.85086 0.51938 0.0
H983 H 0.07382 0.88977 0.38516 0.0
H984 H 0.07506 0.9189 0.31713 0.0
H985 H 0.07189 0.88649 0.26299 0.0
H986 H 0.02971 0.90248 0.18127 0.0
H987 H 0.03175 0.93472 0.23744 0.0
H988 H 1.00188 0.91514 0.24729 0.0
H989 H 0.98734 0.89857 0.59086 0.0
H990 H 0.99902 0.94401 0.64628 0.0
H991 H 0.04579 0.95516 0.40226 0.0
C992 C 0.02264 0.85131 0.28387 0.0
C993 C 1.00943 0.82762 0.31019 0.0
C994 C 0.99706 0.82779 0.39717 0.0
C995 C 0.99671 0.85096 0.45436 0.0
C996 C 1.00916 0.87411 0.42502 0.0
C997 C 0.02265 0.87416 0.34287 0.0
C998 C 0.03531 0.90136 0.32878 0.0
C999 C 0.06583 0.89899 0.32318 0.0
C1000 C 0.024 0.91419 0.24363 0.0
C1001 C 0.02667 0.91673 0.4151 0.0
C1002 C 1.01113 0.90078 0.46883 0.0
C1003 C 1.00015 0.91083 0.5504 0.0
C1004 C 1.00643 0.93701 0.58053 0.0
C1005 C 0.02264 0.95377 0.5278 0.0
C1006 C 0.03291 0.9432 0.44378 0.0
H1007 H 0.70029 0.04867 0.33746 0.0
H1008 H 0.72643 0.96749 0.37043 0.0
H1009 H 0.68707 0.95966 0.46905 0.0
H1010 H 0.67467 0.05891 0.56732 0.0
H1011 H 0.64654 0.07885 0.53478 0.0
H1012 H 0.6769 0.07906 0.46878 0.0
H1013 H 0.6518 0.06628 0.32588 0.0
H1014 H 0.62033 0.06435 0.38491 0.0
H1015 H 0.63285 0.03607 0.31908 0.0
H1016 H 0.64253 0.96035 0.56029 0.0
H1017 H 0.60004 0.97029 0.64169 0.0
H1018 H 0.60248 0.05086 0.54795 0.0
C1019 C 0.69798 0.02923 0.36592 0.0
C1020 C 0.71683 1.00867 0.34522 0.0
C1021 C 0.71276 0.98372 0.38535 0.0
C1022 C 0.6902 0.97904 0.44104 0.0
C1023 C 0.67168 0.99952 0.45746 0.0
C1024 C 0.67566 0.02428 0.42199 0.0
C1025 C 0.65291 0.04304 0.44934 0.0
C1026 C 0.66335 0.06637 0.50865 0.0
C1027 C 0.63857 0.05303 0.36487 0.0
C1028 C 0.63504 0.02491 0.50426 0.0
C1029 C 0.64629 0.99987 0.5085 0.0
C1030 C 0.63367 0.97988 0.55679 0.0
C1031 C 0.60938 0.98564 0.60257 0.0
C1032 C 0.59733 1.01103 0.599 0.0
C1033 C 0.61063 0.03096 0.54954 0.0
H1034 H 0.57843 0.71996 0.46736 0.0
H1035 H 0.49963 0.73496 0.36119 0.0
H1036 H 0.48332 0.69374 0.43018 0.0
H1037 H 0.57921 0.65202 0.42072 0.0
H1038 H 0.5973 0.64343 0.52106 0.0
H1039 H 0.60129 0.67583 0.47483 0.0
H1040 H 0.58777 0.69698 0.6322 0.0
H1041 H 0.58352 0.66433 0.67704 0.0
H1042 H 0.55646 0.68788 0.68332 0.0
H1043 H 0.47761 0.64698 0.48875 0.0
H1044 H 0.48143 0.60183 0.54712 0.0
H1045 H 0.56359 0.61692 0.62069 0.0
C1046 C 0.55745 0.71514 0.4618 0.0
C1047 C 0.54021 0.73113 0.40971 0.0
C1048 C 0.51309 0.72363 0.40233 0.0
C1049 C 0.50375 0.69997 0.44048 0.0
C1050 C 0.52165 0.68401 0.48704 0.0
C1051 C 0.54783 0.6916 0.4996 0.0
C1052 C 0.56346 0.67014 0.54729 0.0
C1053 C 0.58669 0.65977 0.48737 0.0
C1054 C 0.57339 0.68045 0.6405 0.0
C1055 C 0.5422 0.64893 0.55769 0.0
C1056 C 0.51822 0.65735 0.52235 0.0
C1057 C 0.49615 0.64055 0.51835 0.0
C1058 C 0.49851 0.61477 0.55179 0.0
C1059 C 0.52263 0.60576 0.58991 0.0
C1060 C 0.54476 0.62323 0.59288 0.0
H1061 H 0.84159 0.58118 0.36926 0.0
H1062 H 0.81245 0.50029 0.34017 0.0
H1063 H 0.85058 0.48494 0.43077 0.0
H1064 H 0.91019 0.56648 0.33729 0.0
H1065 H 0.92043 0.59209 0.41822 0.0
H1066 H 0.88942 0.59523 0.35937 0.0
H1067 H 0.86674 0.60126 0.51911 0.0
H1068 H 0.89818 0.59611 0.57477 0.0
H1069 H 0.87004 0.57537 0.60031 0.0
H1070 H 0.89395 0.47797 0.51722 0.0
H1071 H 0.93825 0.47939 0.58712 0.0
H1072 H 0.94196 0.56442 0.54973 0.0
C1073 C 0.84295 0.56019 0.38222 0.0
C1074 C 0.8236 0.54201 0.34635 0.0
C1075 C 0.8264 0.51484 0.36719 0.0
C1076 C 0.84827 0.50587 0.41825 0.0
C1077 C 0.86742 0.52422 0.44883 0.0
C1078 C 0.86485 0.55087 0.43201 0.0
C1079 C 0.8889 0.56636 0.46801 0.0
C1080 C 0.90308 0.58084 0.39101 0.0
C1081 C 0.88045 0.58594 0.54512 0.0
C1082 C 0.90608 0.54411 0.50443 0.0
C1083 C 0.89293 0.52007 0.49462 0.0
C1084 C 0.90438 0.4967 0.52453 0.0
C1085 C 0.92985 0.49774 0.56421 0.0
C1086 C 0.94441 0.52187 0.57268 0.0
C1087 C 0.93193 0.54547 0.54296 0.0
loop_
_geom_bond_atom_site_label_1
_geom_bond_atom_site_label_2
_geom_bond_distance
_geom_bond_site_symmetry_2
_ccdc_geom_bond_type
H0 C7 0.929 . S
H1 C10 0.930 . S
H2 C12 0.929 . S
H3 C4 0.969 . S
C4 H3 0.969 . S
C4 O5 1.550 . S
C4 H6 0.973 . S
O5 C4 1.550 . S
O5 C11 1.412 . S
H6 C4 0.973 . S
C7 H0 0.929 . S
C7 C8 1.400 . S
C7 C9 1.364 . S
C8 C7 1.400 . S
C8 C12 1.377 . S
C9 C7 1.364 . S
C9 C10 1.374 . S
C10 H1 0.930 . S
C10 C9 1.374 . S
C10 C11 1.383 . S
C11 O5 1.412 . S
C11 C10 1.383 . S
C11 C12 1.394 . S
C12 H2 0.929 . S
C12 C8 1.377 . S
C12 C11 1.394 . S
H13 C20 0.929 . S
H14 C23 0.930 . S
H15 C25 0.929 . S
H16 C17 0.969 . S
C17 H16 0.969 . S
C17 O18 1.550 . S
C17 H19 0.973 . S
O18 C17 1.550 . S
O18 C24 1.412 . S
H19 C17 0.973 . S
C20 H13 0.929 . S
C20 C21 1.400 . S
C20 C22 1.364 . S
C21 C20 1.400 . S
C21 C25 1.377 . S
C22 C20 1.364 . S
C22 C23 1.374 . S
C23 H14 0.930 . S
C23 C22 1.374 . S
C23 C24 1.383 . S
C24 O18 1.412 . S
C24 C23 1.383 . S
C24 C25 1.394 . S
C25 H15 0.929 . S
C25 C21 1.377 . S
C25 C24 1.394 . S
H26 C33 0.929 . S
H27 C36 0.930 . S
H28 C38 0.929 . S
H29 C30 0.969 . S
C30 H29 0.969 . S
C30 O31 1.550 . S
C30 H32 0.973 . S
O31 C30 1.550 . S
O31 C37 1.412 . S
H32 C30 0.973 . S
C33 H26 0.929 . S
C33 C34 1.400 . S
C33 C35 1.364 . S
C34 C33 1.400 . S
C34 C38 1.377 . S
C35 C33 1.364 . S
C35 C36 1.374 . S
C36 H27 0.930 . S
C36 C35 1.374 . S
C36 C37 1.383 . S
C37 O31 1.412 . S
C37 C36 1.383 . S
C37 C38 1.394 . S
C38 H28 0.929 . S
C38 C34 1.377 . S
C38 C37 1.394 . S
H39 C46 0.929 . S
H40 C49 0.930 . S
H41 C51 0.929 . S
H42 C43 0.969 . S
C43 H42 0.969 . S
C43 O44 1.550 . S
C43 H45 0.973 . S
O44 C43 1.550 . S
O44 C50 1.412 . S
H45 C43 0.973 . S
C46 H39 0.929 . S
C46 C47 1.400 . S
C46 C48 1.364 . S
C47 C46 1.400 . S
C47 C51 1.377 . S
C48 C46 1.364 . S
C48 C49 1.374 . S
C49 H40 0.930 . S
C49 C48 1.374 . S
C49 C50 1.383 . S
C50 O44 1.412 . S
C50 C49 1.383 . S
C50 C51 1.394 . S
C51 H41 0.929 . S
C51 C47 1.377 . S
C51 C50 1.394 . S
H52 C59 0.929 . S
H53 C62 0.930 . S
H54 C64 0.929 . S
H55 C56 0.969 . S
C56 H55 0.969 . S
C56 O57 1.550 . S
C56 H58 0.973 . S
O57 C56 1.550 . S
O57 C63 1.412 . S
H58 C56 0.973 . S
C59 H52 0.929 . S
C59 C60 1.400 . S
C59 C61 1.364 1_556 S
C60 C59 1.400 . S
C60 C64 1.377 . S
C61 C59 1.364 1_554 S
C61 C62 1.374 . S
C62 H53 0.930 . S
C62 C61 1.374 . S
C62 C63 1.383 . S
C63 O57 1.412 . S
C63 C62 1.383 . S
C63 C64 1.394 1_554 S
C64 H54 0.929 . S
C64 C60 1.377 . S
C64 C63 1.394 1_556 S
H65 C72 0.929 . S
H66 C75 0.930 . S
H67 C77 0.929 . S
H68 C69 0.969 . S
C69 H68 0.969 . S
C69 O70 1.554 . S
C69 H71 0.973 . S
O70 C69 1.554 . S
O70 C76 1.412 . S
H71 C69 0.973 . S
C72 H65 0.929 . S
C72 C73 1.400 . S
C72 C74 1.364 1_556 S
C73 C72 1.400 . S
C73 C77 1.377 . S
C74 C72 1.364 1_554 S
C74 C75 1.374 . S
C75 H66 0.930 . S
C75 C74 1.374 . S
C75 C76 1.384 . S
C76 O70 1.412 . S
C76 C75 1.384 . S
C76 C77 1.393 1_554 S
C77 H67 0.929 . S
C77 C73 1.377 . S
C77 C76 1.393 1_556 S
H78 C85 0.929 . S
H79 C88 0.930 . S
H80 C90 0.929 . S
H81 C82 0.969 . S
C82 H81 0.969 . S
C82 O83 1.550 1_554 S
C82 H84 0.973 . S
O83 C82 1.550 1_556 S
O83 C89 1.412 . S
H84 C82 0.973 . S
C85 H78 0.929 . S
C85 C86 1.400 . S
C85 C87 1.364 1_556 S
C86 C85 1.400 . S
C86 C90 1.377 . S
C87 C85 1.364 1_554 S
C87 C88 1.374 . S
C88 H79 0.930 . S
C88 C87 1.374 . S
C88 C89 1.383 1_554 S
C89 O83 1.412 . S
C89 C88 1.383 1_556 S
C89 C90 1.394 . S
C90 H80 0.929 . S
C90 C86 1.377 . S
C90 C89 1.394 . S
H91 C98 0.929 . S
H92 C101 0.930 . S
H93 C103 0.929 . S
H94 C95 0.969 . S
C95 H94 0.969 . S
C95 O96 1.550 . S
C95 H97 0.973 . S
O96 C95 1.550 . S
O96 C102 1.412 . S
H97 C95 0.973 . S
C98 H91 0.929 . S
C98 C99 1.400 . S
C98 C100 1.364 1_556 S
C99 C98 1.400 . S
C99 C103 1.377 . S
C100 C98 1.364 1_554 S
C100 C101 1.374 . S
C101 H92 0.930 . S
C101 C100 1.374 . S
C101 C102 1.383 . S
C102 O96 1.412 . S
C102 C101 1.383 . S
C102 C103 1.394 1_554 S
C103 H93 0.929 . S
C103 C99 1.377 . S
C103 C102 1.394 1_556 S
Eu104 N135 2.657 1_565 S
Eu104 N142 2.609 1_565 S
Eu104 O148 2.558 . S
Eu104 O149 2.612 1_455 S
Eu104 O151 2.339 1_455 S
Eu104 O152 2.563 . S
Eu104 O153 2.419 . S
Eu104 O155 2.380 1_565 S
Eu104 O156 2.432 . S
Eu104 C168 2.848 . S
C105 C108 1.429 1_545 S
C105 C109 1.407 1_545 S
C105 N112 1.377 . S
C106 C108 1.420 . S
C106 C110 1.423 . S
C106 C118 1.392 . S
C107 C109 1.436 . S
C107 C110 1.351 . S
C107 H130 0.931 . S
C108 C105 1.429 1_565 S
C108 C106 1.420 . S
C108 N116 1.371 . S
C109 C105 1.407 1_565 S
C109 C107 1.436 . S
C109 C114 1.384 1_565 S
C110 C106 1.423 . S
C110 C107 1.351 . S
C110 H122 0.930 . S
C111 C113 1.400 . S
C111 C114 1.386 . S
C111 H123 0.930 . S
N112 C105 1.377 . S
N112 C113 1.321 . S
N112 Eu115 2.609 . S
C113 C111 1.400 . S
C113 N112 1.321 . S
C113 H120 0.930 . S
C114 C109 1.384 1_545 S
C114 C111 1.386 . S
C114 H133 0.930 . S
Eu115 N112 2.609 . S
Eu115 N116 2.633 1_545 S
Eu115 O149 2.380 1_545 S
Eu115 O150 2.432 . S
Eu115 O154 2.558 . S
Eu115 O155 2.612 1_655 S
Eu115 O157 2.339 1_655 S
Eu115 O158 2.563 1_655 S
Eu115 O159 2.419 . S
Eu115 C179 2.848 . S
N116 C108 1.371 . S
N116 Eu115 2.633 1_565 S
N116 C117 1.350 1_655 S
C117 N116 1.350 1_455 S
C117 C119 1.413 . S
C117 H124 0.929 . S
C118 C106 1.392 . S
C118 C119 1.367 1_655 S
C118 H126 0.930 . S
C119 C117 1.413 . S
C119 C118 1.367 1_455 S
C119 H121 0.930 . S
H120 C113 0.930 . S
H121 C119 0.930 . S
H122 C110 0.930 . S
H123 C111 0.930 . S
H124 C117 0.929 . S
H125 C139 0.930 1_655 S
H126 C118 0.930 . S
H127 C145 0.930 . S
H128 C136 0.929 1_655 S
H129 C143 0.930 . S
H130 C107 0.931 . S
H131 C137 0.930 . S
H132 C170 0.930 . S
H133 C114 0.930 . S
H134 C169 0.931 . S
N135 Eu104 2.657 1_545 S
N135 C136 1.334 . S
N135 C140 1.362 . S
C136 H128 0.929 1_455 S
C136 N135 1.334 . S
C136 C139 1.413 1_556 S
C137 H131 0.930 . S
C137 C138 1.392 . S
C137 C139 1.367 . S
C138 C137 1.392 . S
C138 C140 1.420 1_554 S
C138 C170 1.423 . S
C139 H125 0.930 1_455 S
C139 C136 1.413 1_554 S
C139 C137 1.367 . S
C140 N135 1.362 . S
C140 C138 1.420 1_556 S
C140 C144 1.429 . S
H141 C146 0.930 . S
N142 Eu104 2.609 1_545 S
N142 C144 1.377 . S
N142 C145 1.321 1_545 S
C143 H129 0.930 . S
C143 C145 1.400 . S
C143 C146 1.386 1_565 S
C144 C140 1.429 . S
C144 N142 1.377 . S
C144 C147 1.411 . S
C145 H127 0.930 . S
C145 N142 1.321 1_565 S
C145 C143 1.400 . S
C146 H141 0.930 . S
C146 C143 1.386 1_545 S
C146 C147 1.395 . S
C147 C144 1.411 . S
C147 C146 1.395 . S
C147 C169 1.420 1_556 S
O148 Eu104 2.558 . S
O148 C168 1.257 . S
O149 Eu104 2.612 1_655 S
O149 Eu115 2.380 1_565 S
O149 C160 1.276 . S
O150 Eu115 2.432 . S
O150 C167 1.264 . S
O151 Eu104 2.339 1_655 S
O151 C167 1.254 1_565 S
O152 Eu104 2.563 . S
O152 C160 1.235 1_455 S
O153 Eu104 2.419 . S
O153 C168 1.249 . S
O154 Eu115 2.558 . S
O154 C179 1.257 . S
O155 Eu104 2.380 1_545 S
O155 Eu115 2.612 1_455 S
O155 C171 1.276 . S
O156 Eu104 2.432 . S
O156 C178 1.264 1_565 S
O157 Eu115 2.339 1_455 S
O157 C178 1.254 . S
O158 Eu115 2.563 1_455 S
O158 C171 1.235 . S
O159 Eu115 2.419 . S
O159 C179 1.249 . S
C160 O149 1.276 . S
C160 O152 1.235 1_655 S
C161 C163 1.393 . S
C161 C165 1.395 . S
C161 C168 1.492 . S
C162 C163 1.392 . S
C162 C164 1.386 1_556 S
C163 C161 1.393 . S
C163 C162 1.392 . S
C163 H180 0.966 . S
C164 C162 1.386 1_554 S
C164 C166 1.395 1_554 S
C164 H181 0.930 . S
C165 C161 1.395 . S
C165 C166 1.379 . S
C165 H182 0.930 . S
C166 C164 1.395 1_556 S
C166 C165 1.379 . S
C166 H183 0.930 . S
C167 O150 1.264 . S
C167 O151 1.254 1_545 S
C168 Eu104 2.848 . S
C168 O148 1.257 . S
C168 O153 1.249 . S
C168 C161 1.492 . S
C169 H134 0.931 . S
C169 C147 1.420 1_554 S
C169 C170 1.351 . S
C170 H132 0.930 . S
C170 C138 1.423 . S
C170 C169 1.351 . S
C171 O155 1.276 . S
C171 O158 1.235 . S
C172 C173 1.393 . S
C172 C176 1.395 . S
C172 C179 1.492 . S
C173 C172 1.393 . S
C173 C174 1.392 . S
C173 H184 0.930 1_655 S
C174 C173 1.392 . S
C174 C175 1.386 . S
C175 C174 1.386 . S
C175 C177 1.395 . S
C175 H185 0.930 . S
C176 C172 1.395 . S
C176 C177 1.379 . S
C176 H186 0.930 . S
C177 C175 1.395 . S
C177 C176 1.379 . S
C177 H187 0.930 . S
C178 O156 1.264 1_545 S
C178 O157 1.254 . S
C179 Eu115 2.848 . S
C179 O154 1.257 . S
C179 O159 1.249 . S
C179 C172 1.492 . S
H180 C163 0.966 . S
H181 C164 0.930 . S
H182 C165 0.930 . S
H183 C166 0.930 . S
H184 C173 0.930 1_455 S
H185 C175 0.930 . S
H186 C176 0.930 . S
H187 C177 0.930 . S
Eu188 N219 2.657 . S
Eu188 N226 2.609 . S
Eu188 O232 2.558 . S
Eu188 O233 2.612 1_545 S
Eu188 O235 2.339 1_545 S
Eu188 O236 2.563 . S
Eu188 O237 2.419 . S
Eu188 O239 2.380 . S
Eu188 O240 2.432 . S
Eu188 C252 2.848 . S
C189 C192 1.429 . S
C189 C193 1.411 . S
C189 N196 1.377 . S
C190 C192 1.420 . S
C190 C194 1.423 . S
C190 C202 1.392 . S
C191 C193 1.420 . S
C191 C194 1.351 . S
C191 H214 0.931 . S
C192 C189 1.429 . S
C192 C190 1.420 . S
C192 N200 1.362 . S
C193 C189 1.411 . S
C193 C191 1.420 . S
C193 C198 1.395 . S
C194 C190 1.423 . S
C194 C191 1.351 . S
C194 H206 0.930 . S
C195 C197 1.400 . S
C195 C198 1.386 . S
C195 H207 0.930 . S
N196 C189 1.377 . S
N196 C197 1.321 . S
N196 Eu199 2.609 . S
C197 C195 1.400 . S
C197 N196 1.321 . S
C197 H204 0.930 . S
C198 C193 1.395 . S
C198 C195 1.386 . S
C198 H217 0.930 . S
Eu199 N196 2.609 . S
Eu199 N200 2.657 . S
Eu199 O233 2.380 . S
Eu199 O234 2.432 . S
Eu199 O238 2.558 . S
Eu199 O239 2.612 1_565 S
Eu199 O241 2.339 1_565 S
Eu199 O242 2.563 1_565 S
Eu199 O243 2.419 . S
Eu199 C263 2.848 . S
N200 C192 1.362 . S
N200 Eu199 2.657 . S
N200 C201 1.334 1_565 S
C201 N200 1.334 1_545 S
C201 C203 1.413 . S
C201 H208 0.929 . S
C202 C190 1.392 . S
C202 C203 1.367 1_565 S
C202 H210 0.930 . S
C203 C201 1.413 . S
C203 C202 1.367 1_545 S
C203 H205 0.930 . S
H204 C197 0.930 . S
H205 C203 0.930 . S
H206 C194 0.930 . S
H207 C195 0.930 . S
H208 C201 0.929 . S
H209 C223 0.930 1_565 S
H210 C202 0.930 . S
H211 C229 0.930 . S
H212 C220 0.929 1_565 S
H213 C227 0.930 . S
H214 C191 0.931 . S
H215 C221 0.930 . S
H216 C254 0.930 . S
H217 C198 0.930 . S
H218 C253 0.931 . S
N219 Eu188 2.657 . S
N219 C220 1.334 . S
N219 C224 1.362 . S
C220 H212 0.929 1_545 S
C220 N219 1.334 . S
C220 C223 1.413 1_556 S
C221 H215 0.930 . S
C221 C222 1.392 . S
C221 C223 1.367 . S
C222 C221 1.392 . S
C222 C224 1.420 1_554 S
C222 C254 1.423 . S
C223 H209 0.930 1_545 S
C223 C220 1.413 1_554 S
C223 C221 1.367 . S
C224 N219 1.362 . S
C224 C222 1.420 1_556 S
C224 C228 1.429 . S
H225 C230 0.930 . S
N226 Eu188 2.609 . S
N226 C228 1.377 . S
N226 C229 1.321 . S
C227 H213 0.930 . S
C227 C229 1.400 . S
C227 C230 1.386 . S
C228 C224 1.429 . S
C228 N226 1.377 . S
C228 C231 1.411 . S
C229 H211 0.930 . S
C229 N226 1.321 . S
C229 C227 1.400 . S
C230 H225 0.930 . S
C230 C227 1.386 . S
C230 C231 1.395 . S
C231 C228 1.411 . S
C231 C230 1.395 . S
C231 C253 1.420 1_556 S
O232 Eu188 2.558 . S
O232 C252 1.257 . S
O233 Eu188 2.612 1_565 S
O233 Eu199 2.380 . S
O233 C244 1.276 . S
O234 Eu199 2.432 . S
O234 C251 1.264 . S
O235 Eu188 2.339 1_565 S
O235 C251 1.254 . S
O236 Eu188 2.563 . S
O236 C244 1.235 1_545 S
O237 Eu188 2.419 . S
O237 C252 1.249 . S
O238 Eu199 2.558 . S
O238 C263 1.257 . S
O239 Eu188 2.380 . S
O239 Eu199 2.612 1_545 S
O239 C255 1.276 . S
O240 Eu188 2.432 . S
O240 C262 1.264 . S
O241 Eu199 2.339 1_545 S
O241 C262 1.254 . S
O242 Eu199 2.563 1_545 S
O242 C255 1.235 . S
O243 Eu199 2.419 . S
O243 C263 1.249 . S
C244 O233 1.276 . S
C244 O236 1.235 1_565 S
C245 C247 1.393 . S
C245 C249 1.395 . S
C245 C252 1.492 . S
C246 C247 1.392 . S
C246 C248 1.386 1_556 S
C247 C245 1.393 . S
C247 C246 1.392 . S
C247 H264 0.930 . S
C248 C246 1.386 1_554 S
C248 C250 1.395 1_554 S
C248 H265 0.930 . S
C249 C245 1.395 . S
C249 C250 1.379 . S
C249 H266 0.930 . S
C250 C248 1.395 1_556 S
C250 C249 1.379 . S
C250 H267 0.930 . S
C251 O234 1.264 . S
C251 O235 1.254 . S
C252 Eu188 2.848 . S
C252 O232 1.257 . S
C252 O237 1.249 . S
C252 C245 1.492 . S
C253 H218 0.931 . S
C253 C231 1.420 1_554 S
C253 C254 1.351 . S
C254 H216 0.930 . S
C254 C222 1.423 . S
C254 C253 1.351 . S
C255 O239 1.276 . S
C255 O242 1.235 . S
C256 C257 1.393 . S
C256 C260 1.395 . S
C256 C263 1.492 . S
C257 C256 1.393 . S
C257 C258 1.392 . S
C257 H268 0.930 1_565 S
C258 C257 1.392 . S
C258 C259 1.386 . S
C259 C258 1.386 . S
C259 C261 1.395 . S
C259 H269 0.930 . S
C260 C256 1.395 . S
C260 C261 1.379 . S
C260 H270 0.930 . S
C261 C259 1.395 . S
C261 C260 1.379 . S
C261 H271 0.930 . S
C262 O240 1.264 . S
C262 O241 1.254 . S
C263 Eu199 2.848 . S
C263 O238 1.257 . S
C263 O243 1.249 . S
C263 C256 1.492 . S
H264 C247 0.930 . S
H265 C248 0.930 . S
H266 C249 0.930 . S
H267 C250 0.930 . S
H268 C257 0.930 1_545 S
H269 C259 0.930 . S
H270 C260 0.930 . S
H271 C261 0.930 . S
Eu272 N303 2.657 . S
Eu272 N310 2.609 . S
Eu272 O316 2.558 . S
Eu272 O317 2.612 . S
Eu272 O319 2.339 . S
Eu272 O320 2.563 . S
Eu272 O321 2.419 . S
Eu272 O323 2.380 . S
Eu272 O324 2.432 . S
Eu272 C336 2.848 . S
C273 C276 1.429 . S
C273 C277 1.411 . S
C273 N280 1.377 . S
C274 C276 1.420 . S
C274 C278 1.423 . S
C274 C286 1.392 . S
C275 C277 1.420 . S
C275 C278 1.351 . S
C275 H298 0.931 . S
C276 C273 1.429 . S
C276 C274 1.420 . S
C276 N284 1.362 . S
C277 C273 1.411 . S
C277 C275 1.420 . S
C277 C282 1.395 . S
C278 C274 1.423 . S
C278 C275 1.351 . S
C278 H290 0.930 . S
C279 C281 1.400 . S
C279 C282 1.386 . S
C279 H291 0.930 . S
N280 C273 1.377 . S
N280 C281 1.321 . S
N280 Eu283 2.609 . S
C281 C279 1.400 . S
C281 N280 1.321 . S
C281 H288 0.930 . S
C282 C277 1.395 . S
C282 C279 1.386 . S
C282 H301 0.930 . S
Eu283 N280 2.609 . S
Eu283 N284 2.657 . S
Eu283 O317 2.380 . S
Eu283 O318 2.432 . S
Eu283 O322 2.558 . S
Eu283 O323 2.612 . S
Eu283 O325 2.339 . S
Eu283 O326 2.563 . S
Eu283 O327 2.419 . S
Eu283 C347 2.848 . S
N284 C276 1.362 . S
N284 Eu283 2.657 . S
N284 C285 1.334 . S
C285 N284 1.334 . S
C285 C287 1.413 . S
C285 H292 0.929 . S
C286 C274 1.392 . S
C286 C287 1.367 . S
C286 H294 0.930 . S
C287 C285 1.413 . S
C287 C286 1.367 . S
C287 H289 0.930 . S
H288 C281 0.930 . S
H289 C287 0.930 . S
H290 C278 0.930 . S
H291 C279 0.930 . S
H292 C285 0.929 . S
H293 C307 0.930 . S
H294 C286 0.930 . S
H295 C313 0.930 . S
H296 C304 0.929 . S
H297 C311 0.930 . S
H298 C275 0.931 . S
H299 C305 0.930 . S
H300 C338 0.930 . S
H301 C282 0.930 . S
H302 C337 0.931 . S
N303 Eu272 2.657 . S
N303 C304 1.334 . S
N303 C308 1.362 . S
C304 H296 0.929 . S
C304 N303 1.334 . S
C304 C307 1.413 . S
C305 H299 0.930 . S
C305 C306 1.392 . S
C305 C307 1.367 . S
C306 C305 1.392 . S
C306 C308 1.420 . S
C306 C338 1.423 . S
C307 H293 0.930 . S
C307 C304 1.413 . S
C307 C305 1.367 . S
C308 N303 1.362 . S
C308 C306 1.420 . S
C308 C312 1.429 . S
H309 C314 0.930 . S
N310 Eu272 2.609 . S
N310 C312 1.377 . S
N310 C313 1.321 . S
C311 H297 0.930 . S
C311 C313 1.400 . S
C311 C314 1.386 . S
C312 C308 1.429 . S
C312 N310 1.377 . S
C312 C315 1.411 . S
C313 H295 0.930 . S
C313 N310 1.321 . S
C313 C311 1.400 . S
C314 H309 0.930 . S
C314 C311 1.386 . S
C314 C315 1.395 . S
C315 C312 1.411 . S
C315 C314 1.395 . S
C315 C337 1.420 . S
O316 Eu272 2.558 . S
O316 C336 1.257 . S
O317 Eu272 2.612 . S
O317 Eu283 2.380 . S
O317 C328 1.276 . S
O318 Eu283 2.432 . S
O318 C335 1.264 . S
O319 Eu272 2.339 . S
O319 C335 1.254 . S
O320 Eu272 2.563 . S
O320 C328 1.235 . S
O321 Eu272 2.419 . S
O321 C336 1.249 . S
O322 Eu283 2.558 . S
O322 C347 1.257 . S
O323 Eu272 2.380 . S
O323 Eu283 2.612 . S
O323 C339 1.276 . S
O324 Eu272 2.432 . S
O324 C346 1.264 . S
O325 Eu283 2.339 . S
O325 C346 1.254 . S
O326 Eu283 2.563 . S
O326 C339 1.235 . S
O327 Eu283 2.419 . S
O327 C347 1.249 . S
C328 O317 1.276 . S
C328 O320 1.235 . S
C329 C331 1.393 . S
C329 C333 1.395 . S
C329 C336 1.492 . S
C330 C331 1.392 . S
C330 C332 1.386 . S
C331 C329 1.393 . S
C331 C330 1.392 . S
C331 H348 0.930 . S
C332 C330 1.386 . S
C332 C334 1.395 . S
C332 H349 0.930 . S
C333 C329 1.395 . S
C333 C334 1.379 . S
C333 H350 0.930 . S
C334 C332 1.395 . S
C334 C333 1.379 . S
C334 H351 0.930 . S
C335 O318 1.264 . S
C335 O319 1.254 . S
C336 Eu272 2.848 . S
C336 O316 1.257 . S
C336 O321 1.249 . S
C336 C329 1.492 . S
C337 H302 0.931 . S
C337 C315 1.420 . S
C337 C338 1.351 . S
C338 H300 0.930 . S
C338 C306 1.423 . S
C338 C337 1.351 . S
C339 O323 1.276 . S
C339 O326 1.235 . S
C340 C341 1.393 . S
C340 C344 1.395 1_556 S
C340 C347 1.492 . S
C341 C340 1.393 . S
C341 C342 1.392 1_556 S
C341 H352 0.930 . S
C342 C341 1.392 1_554 S
C342 C343 1.386 . S
C343 C342 1.386 . S
C343 C345 1.395 . S
C343 H353 0.930 . S
C344 C340 1.395 1_554 S
C344 C345 1.379 . S
C344 H354 0.930 . S
C345 C343 1.395 . S
C345 C344 1.379 . S
C345 H355 0.930 . S
C346 O324 1.264 . S
C346 O325 1.254 . S
C347 Eu283 2.848 . S
C347 O322 1.257 . S
C347 O327 1.249 . S
C347 C340 1.492 . S
H348 C331 0.930 . S
H349 C332 0.930 . S
H350 C333 0.930 . S
H351 C334 0.930 . S
H352 C341 0.930 . S
H353 C343 0.930 . S
H354 C344 0.930 . S
H355 C345 0.930 . S
Eu356 N387 2.657 . S
Eu356 N394 2.609 . S
Eu356 O400 2.558 . S
Eu356 O401 2.612 . S
Eu356 O403 2.339 . S
Eu356 O404 2.563 . S
Eu356 O405 2.419 . S
Eu356 O407 2.380 . S
Eu356 O408 2.432 1_455 S
Eu356 C420 2.848 . S
C357 C360 1.429 . S
C357 C361 1.411 . S
C357 N364 1.377 . S
C358 C360 1.420 . S
C358 C362 1.423 . S
C358 C370 1.392 . S
C359 C361 1.420 . S
C359 C362 1.351 . S
C359 H382 0.931 . S
C360 C357 1.429 . S
C360 C358 1.420 . S
C360 N368 1.362 . S
C361 C357 1.411 . S
C361 C359 1.420 . S
C361 C366 1.395 1_655 S
C362 C358 1.423 . S
C362 C359 1.351 . S
C362 H374 0.930 . S
C363 C365 1.400 . S
C363 C366 1.386 . S
C363 H375 0.930 . S
N364 C357 1.377 . S
N364 C365 1.321 1_655 S
N364 Eu367 2.609 . S
C365 C363 1.400 . S
C365 N364 1.321 1_455 S
C365 H372 0.930 . S
C366 C361 1.395 1_455 S
C366 C363 1.386 . S
C366 H385 0.930 . S
Eu367 N364 2.609 . S
Eu367 N368 2.657 . S
Eu367 O401 2.380 1_655 S
Eu367 O402 2.432 1_655 S
Eu367 O406 2.558 . S
Eu367 O407 2.612 1_655 S
Eu367 O409 2.339 . S
Eu367 O410 2.563 . S
Eu367 O411 2.419 . S
Eu367 C431 2.848 . S
N368 C360 1.362 . S
N368 Eu367 2.657 . S
N368 C369 1.334 . S
C369 N368 1.334 . S
C369 C371 1.413 . S
C369 H376 0.929 . S
C370 C358 1.392 . S
C370 C371 1.367 . S
C370 H378 0.930 . S
C371 C369 1.413 . S
C371 C370 1.367 . S
C371 H373 0.930 . S
H372 C365 0.930 . S
H373 C371 0.930 . S
H374 C362 0.930 . S
H375 C363 0.930 . S
H376 C369 0.929 . S
H377 C391 0.930 . S
H378 C370 0.930 . S
H379 C397 0.925 1_655 S
H380 C388 0.929 . S
H381 C395 0.930 . S
H382 C359 0.931 . S
H383 C389 0.930 . S
H384 C422 0.930 . S
H385 C366 0.930 . S
H386 C421 0.931 . S
N387 Eu356 2.657 . S
N387 C388 1.334 . S
N387 C392 1.362 . S
C388 H380 0.929 . S
C388 N387 1.334 . S
C388 C391 1.413 . S
C389 H383 0.930 . S
C389 C390 1.392 . S
C389 C391 1.367 . S
C390 C389 1.392 . S
C390 C392 1.420 . S
C390 C422 1.423 . S
C391 H377 0.930 . S
C391 C388 1.413 . S
C391 C389 1.367 . S
C392 N387 1.362 . S
C392 C390 1.420 . S
C392 C396 1.429 . S
H393 C398 0.930 . S
N394 Eu356 2.609 . S
N394 C396 1.377 . S
N394 C397 1.328 . S
C395 H381 0.930 . S
C395 C397 1.398 1_655 S
C395 C398 1.386 1_655 S
C396 C392 1.429 . S
C396 N394 1.377 . S
C396 C399 1.411 . S
C397 H379 0.925 1_455 S
C397 N394 1.328 . S
C397 C395 1.398 1_455 S
C398 H393 0.930 . S
C398 C395 1.386 1_455 S
C398 C399 1.395 . S
C399 C396 1.411 . S
C399 C398 1.395 . S
C399 C421 1.420 . S
O400 Eu356 2.558 . S
O400 C420 1.257 . S
O401 Eu356 2.612 . S
O401 Eu367 2.380 1_455 S
O401 C412 1.276 . S
O402 Eu367 2.432 1_455 S
O402 C419 1.264 . S
O403 Eu356 2.339 . S
O403 C419 1.254 . S
O404 Eu356 2.563 . S
O404 C412 1.235 . S
O405 Eu356 2.419 . S
O405 C420 1.249 . S
O406 Eu367 2.558 . S
O406 C431 1.257 . S
O407 Eu356 2.380 . S
O407 Eu367 2.612 1_455 S
O407 C423 1.276 1_455 S
O408 Eu356 2.432 1_655 S
O408 C430 1.264 . S
O409 Eu367 2.339 . S
O409 C430 1.254 . S
O410 Eu367 2.563 . S
O410 C423 1.235 . S
O411 Eu367 2.419 . S
O411 C431 1.249 . S
C412 O401 1.276 . S
C412 O404 1.235 . S
C413 C415 1.393 . S
C413 C417 1.395 . S
C413 C420 1.492 . S
C414 C415 1.392 . S
C414 C416 1.386 . S
C415 C413 1.393 . S
C415 C414 1.392 . S
C415 H432 0.930 . S
C416 C414 1.386 . S
C416 C418 1.395 . S
C416 H433 0.930 . S
C417 C413 1.395 . S
C417 C418 1.379 . S
C417 H434 0.930 . S
C418 C416 1.395 . S
C418 C417 1.379 . S
C418 H435 0.930 . S
C419 O402 1.264 . S
C419 O403 1.254 . S
C420 Eu356 2.848 . S
C420 O400 1.257 . S
C420 O405 1.249 . S
C420 C413 1.492 . S
C421 H386 0.931 . S
C421 C399 1.420 . S
C421 C422 1.351 . S
C422 H384 0.930 . S
C422 C390 1.423 . S
C422 C421 1.351 . S
C423 O407 1.276 1_655 S
C423 O410 1.235 . S
C424 C425 1.393 . S
C424 C428 1.395 1_556 S
C424 C431 1.492 . S
C425 C424 1.393 . S
C425 C426 1.392 1_556 S
C425 H436 0.930 . S
C426 C425 1.392 1_554 S
C426 C427 1.386 . S
C427 C426 1.386 . S
C427 C429 1.395 . S
C427 H437 0.930 . S
C428 C424 1.395 1_554 S
C428 C429 1.379 . S
C428 H438 0.930 . S
C429 C427 1.395 . S
C429 C428 1.379 . S
C429 H439 0.930 . S
C430 O408 1.264 . S
C430 O409 1.254 . S
C431 Eu367 2.848 . S
C431 O406 1.257 . S
C431 O411 1.249 . S
C431 C424 1.492 . S
H432 C415 0.930 . S
H433 C416 0.930 . S
H434 C417 0.930 . S
H435 C418 0.930 . S
H436 C425 0.930 . S
H437 C427 0.930 . S
H438 C428 0.930 . S
H439 C429 0.930 . S
H440 C452 0.930 . S
H441 C454 0.930 . S
H442 C455 0.930 . S
H443 C459 0.959 . S
H444 C459 0.959 . S
H445 C459 0.961 . S
H446 C460 0.960 . S
H447 C460 0.961 . S
H448 C460 0.959 . S
H449 C463 0.929 . S
H450 C464 0.931 . S
H451 C466 0.930 . S
C452 H440 0.930 . S
C452 C453 1.399 . S
C452 C457 1.399 . S
C453 C452 1.399 . S
C453 C454 1.376 . S
C454 H441 0.930 . S
C454 C453 1.376 . S
C454 C455 1.388 . S
C455 H442 0.930 . S
C455 C454 1.388 . S
C455 C456 1.390 . S
C456 C455 1.390 . S
C456 C457 1.394 . S
C456 C462 1.465 . S
C457 C452 1.399 . S
C457 C456 1.394 . S
C457 C458 1.516 . S
C458 C457 1.516 . S
C458 C459 1.502 1_545 S
C458 C460 1.561 . S
C458 C461 1.526 . S
C459 H443 0.959 . S
C459 H444 0.959 . S
C459 H445 0.961 . S
C459 C458 1.502 1_565 S
C460 H446 0.960 . S
C460 H447 0.961 . S
C460 H448 0.959 . S
C460 C458 1.561 . S
C461 C458 1.526 . S
C461 C462 1.396 . S
C461 C466 1.390 . S
C462 C456 1.465 . S
C462 C461 1.396 . S
C462 C463 1.399 . S
C463 H449 0.929 . S
C463 C462 1.399 . S
C463 C464 1.385 . S
C464 H450 0.931 . S
C464 C463 1.385 . S
C464 C465 1.389 . S
C465 C464 1.389 . S
C465 C466 1.387 . S
C466 H451 0.930 . S
C466 C461 1.390 . S
C466 C465 1.387 . S
H467 C479 0.930 . S
H468 C481 0.930 . S
H469 C482 0.930 . S
H470 C486 0.959 . S
H471 C486 0.959 . S
H472 C486 0.961 . S
H473 C487 0.960 . S
H474 C487 0.961 . S
H475 C487 0.959 . S
H476 C490 0.929 . S
H477 C491 0.931 . S
H478 C493 0.930 . S
C479 H467 0.930 . S
C479 C480 1.399 . S
C479 C484 1.399 . S
C480 C479 1.399 . S
C480 C481 1.376 . S
C481 H468 0.930 . S
C481 C480 1.376 . S
C481 C482 1.388 . S
C482 H469 0.930 . S
C482 C481 1.388 . S
C482 C483 1.390 . S
C483 C482 1.390 . S
C483 C484 1.394 . S
C483 C489 1.465 . S
C484 C479 1.399 . S
C484 C483 1.394 . S
C484 C485 1.516 . S
C485 C484 1.516 . S
C485 C486 1.502 . S
C485 C487 1.561 . S
C485 C488 1.526 . S
C486 H470 0.959 . S
C486 H471 0.959 . S
C486 H472 0.961 . S
C486 C485 1.502 . S
C487 H473 0.960 . S
C487 H474 0.961 . S
C487 H475 0.959 . S
C487 C485 1.561 . S
C488 C485 1.526 . S
C488 C489 1.396 . S
C488 C493 1.390 . S
C489 C483 1.465 . S
C489 C488 1.396 . S
C489 C490 1.399 . S
C490 H476 0.929 . S
C490 C489 1.399 . S
C490 C491 1.385 . S
C491 H477 0.931 . S
C491 C490 1.385 . S
C491 C492 1.389 . S
C492 C491 1.389 . S
C492 C493 1.387 . S
C493 H478 0.930 . S
C493 C488 1.390 . S
C493 C492 1.387 . S
H494 C506 0.930 . S
H495 C508 0.930 . S
H496 C509 0.930 . S
H497 C513 0.959 . S
H498 C513 0.959 . S
H499 C513 0.961 . S
H500 C514 0.960 . S
H501 C514 0.961 . S
H502 C514 0.959 . S
H503 C517 0.929 . S
H504 C518 0.931 . S
H505 C520 0.930 . S
C506 H494 0.930 . S
C506 C507 1.399 . S
C506 C511 1.399 . S
C507 C506 1.399 . S
C507 C508 1.376 . S
C508 H495 0.930 . S
C508 C507 1.376 . S
C508 C509 1.388 . S
C509 H496 0.930 . S
C509 C508 1.388 . S
C509 C510 1.390 . S
C510 C509 1.390 . S
C510 C511 1.394 . S
C510 C516 1.465 . S
C511 C506 1.399 . S
C511 C510 1.394 . S
C511 C512 1.516 . S
C512 C511 1.516 . S
C512 C513 1.502 . S
C512 C514 1.561 . S
C512 C515 1.526 . S
C513 H497 0.959 . S
C513 H498 0.959 . S
C513 H499 0.961 . S
C513 C512 1.502 . S
C514 H500 0.960 . S
C514 H501 0.961 . S
C514 H502 0.959 . S
C514 C512 1.561 . S
C515 C512 1.526 . S
C515 C516 1.396 . S
C515 C520 1.390 . S
C516 C510 1.465 . S
C516 C515 1.396 . S
C516 C517 1.399 . S
C517 H503 0.929 . S
C517 C516 1.399 . S
C517 C518 1.385 . S
C518 H504 0.931 . S
C518 C517 1.385 . S
C518 C519 1.389 . S
C519 C518 1.389 . S
C519 C520 1.387 . S
C520 H505 0.930 . S
C520 C515 1.390 . S
C520 C519 1.387 . S
H521 C533 0.930 . S
H522 C535 0.930 . S
H523 C536 0.930 . S
H524 C540 0.959 . S
H525 C540 0.959 . S
H526 C540 0.961 . S
H527 C541 0.960 . S
H528 C541 0.961 . S
H529 C541 0.959 . S
H530 C544 0.929 . S
H531 C545 0.931 . S
H532 C547 0.930 . S
C533 H521 0.930 . S
C533 C534 1.399 . S
C533 C538 1.399 . S
C534 C533 1.399 . S
C534 C535 1.376 . S
C535 H522 0.930 . S
C535 C534 1.376 . S
C535 C536 1.388 . S
C536 H523 0.930 . S
C536 C535 1.388 . S
C536 C537 1.390 . S
C537 C536 1.390 . S
C537 C538 1.394 . S
C537 C543 1.465 . S
C538 C533 1.399 . S
C538 C537 1.394 . S
C538 C539 1.516 . S
C539 C538 1.516 . S
C539 C540 1.502 . S
C539 C541 1.561 . S
C539 C542 1.526 . S
C540 H524 0.959 . S
C540 H525 0.959 . S
C540 H526 0.961 . S
C540 C539 1.502 . S
C541 H527 0.960 . S
C541 H528 0.961 . S
C541 H529 0.959 . S
C541 C539 1.561 . S
C542 C539 1.526 . S
C542 C543 1.396 . S
C542 C547 1.390 . S
C543 C537 1.465 . S
C543 C542 1.396 . S
C543 C544 1.399 . S
C544 H530 0.929 . S
C544 C543 1.399 . S
C544 C545 1.385 . S
C545 H531 0.931 . S
C545 C544 1.385 . S
C545 C546 1.389 . S
C546 C545 1.389 . S
C546 C547 1.387 . S
C547 H532 0.930 . S
C547 C542 1.390 . S
C547 C546 1.387 . S
H548 C560 0.930 1_545 S
H549 C562 0.930 . S
H550 C563 0.930 . S
H551 C567 0.959 . S
H552 C567 0.959 . S
H553 C567 0.961 1_554 S
H554 C568 0.960 . S
H555 C568 0.961 . S
H556 C568 0.959 . S
H557 C571 0.929 . S
H558 C572 0.931 . S
H559 C574 0.930 . S
C560 H548 0.930 1_565 S
C560 C561 1.399 . S
C560 C565 1.399 . S
C561 C560 1.399 . S
C561 C562 1.376 . S
C562 H549 0.930 . S
C562 C561 1.376 . S
C562 C563 1.388 . S
C563 H550 0.930 . S
C563 C562 1.388 . S
C563 C564 1.390 . S
C564 C563 1.390 . S
C564 C565 1.394 . S
C564 C570 1.465 1_554 S
C565 C560 1.399 . S
C565 C564 1.394 . S
C565 C566 1.516 1_565 S
C566 C565 1.516 1_545 S
C566 C567 1.502 1_554 S
C566 C568 1.561 . S
C566 C569 1.526 1_544 S
C567 H551 0.959 . S
C567 H552 0.959 . S
C567 H553 0.961 1_556 S
C567 C566 1.502 1_556 S
C568 H554 0.960 . S
C568 H555 0.961 . S
C568 H556 0.959 . S
C568 C566 1.561 . S
C569 C566 1.526 1_566 S
C569 C570 1.396 . S
C569 C574 1.390 1_565 S
C570 C564 1.465 1_556 S
C570 C569 1.396 . S
C570 C571 1.399 . S
C571 H557 0.929 . S
C571 C570 1.399 . S
C571 C572 1.385 . S
C572 H558 0.931 . S
C572 C571 1.385 . S
C572 C573 1.389 . S
C573 C572 1.389 . S
C573 C574 1.387 1_565 S
C574 H559 0.930 . S
C574 C569 1.390 1_545 S
C574 C573 1.387 1_545 S
H575 C587 0.930 . S
H576 C589 0.930 . S
H577 C590 0.930 1_556 S
H578 C594 0.959 . S
H579 C594 0.959 . S
H580 C594 0.961 . S
H581 C595 0.960 . S
H582 C595 0.961 . S
H583 C595 0.959 . S
H584 C598 0.929 . S
H585 C599 0.931 . S
H586 C601 0.930 . S
C587 H575 0.930 . S
C587 C588 1.399 . S
C587 C592 1.399 . S
C588 C587 1.399 . S
C588 C589 1.376 . S
C589 H576 0.930 . S
C589 C588 1.376 . S
C589 C590 1.388 . S
C590 H577 0.930 1_554 S
C590 C589 1.388 . S
C590 C591 1.390 . S
C591 C590 1.390 . S
C591 C592 1.394 . S
C591 C597 1.465 1_554 S
C592 C587 1.399 . S
C592 C591 1.394 . S
C592 C593 1.516 . S
C593 C592 1.516 . S
C593 C594 1.502 . S
C593 C595 1.561 . S
C593 C596 1.526 1_554 S
C594 H578 0.959 . S
C594 H579 0.959 . S
C594 H580 0.961 . S
C594 C593 1.502 . S
C595 H581 0.960 . S
C595 H582 0.961 . S
C595 H583 0.959 . S
C595 C593 1.561 . S
C596 C593 1.526 1_556 S
C596 C597 1.396 . S
C596 C601 1.390 . S
C597 C591 1.465 1_556 S
C597 C596 1.396 . S
C597 C598 1.399 . S
C598 H584 0.929 . S
C598 C597 1.399 . S
C598 C599 1.385 . S
C599 H585 0.931 . S
C599 C598 1.385 . S
C599 C600 1.389 . S
C600 C599 1.389 . S
C600 C601 1.387 . S
C601 H586 0.930 . S
C601 C596 1.390 . S
C601 C600 1.387 . S
H602 C614 0.930 . S
H603 C616 0.930 . S
H604 C617 0.930 . S
H605 C621 0.959 1_554 S
H606 C621 0.959 . S
H607 C621 0.961 1_554 S
H608 C622 0.960 . S
H609 C622 0.961 . S
H610 C622 0.959 . S
H611 C625 0.929 . S
H612 C626 0.931 . S
H613 C628 0.930 . S
C614 H602 0.930 . S
C614 C615 1.399 . S
C614 C619 1.399 . S
C615 C614 1.399 . S
C615 C616 1.376 . S
C616 H603 0.930 . S
C616 C615 1.376 . S
C616 C617 1.388 . S
C617 H604 0.930 . S
C617 C616 1.388 . S
C617 C618 1.390 . S
C618 C617 1.390 . S
C618 C619 1.394 . S
C618 C624 1.465 1_554 S
C619 C614 1.399 . S
C619 C618 1.394 . S
C619 C620 1.516 1_554 S
C620 C619 1.516 1_556 S
C620 C621 1.502 . S
C620 C622 1.561 . S
C620 C623 1.526 . S
C621 H605 0.959 1_556 S
C621 H606 0.959 . S
C621 H607 0.961 1_556 S
C621 C620 1.502 . S
C622 H608 0.960 . S
C622 H609 0.961 . S
C622 H610 0.959 . S
C622 C620 1.561 . S
C623 C620 1.526 . S
C623 C624 1.396 . S
C623 C628 1.390 . S
C624 C618 1.465 1_556 S
C624 C623 1.396 . S
C624 C625 1.399 . S
C625 H611 0.929 . S
C625 C624 1.399 . S
C625 C626 1.385 . S
C626 H612 0.931 . S
C626 C625 1.385 . S
C626 C627 1.389 . S
C627 C626 1.389 . S
C627 C628 1.387 . S
C628 H613 0.930 . S
C628 C623 1.390 . S
C628 C627 1.387 . S
H629 C641 0.930 . S
H630 C643 0.930 . S
H631 C644 0.930 1_455 S
H632 C648 0.959 . S
H633 C648 0.959 1_556 S
H634 C648 0.961 . S
H635 C649 0.960 . S
H636 C649 0.961 . S
H637 C649 0.959 . S
H638 C652 0.929 . S
H639 C653 0.931 . S
H640 C655 0.930 . S
C641 H629 0.930 . S
C641 C642 1.399 . S
C641 C646 1.399 . S
C642 C641 1.399 . S
C642 C643 1.376 . S
C643 H630 0.930 . S
C643 C642 1.376 . S
C643 C644 1.388 . S
C644 H631 0.930 1_655 S
C644 C643 1.388 . S
C644 C645 1.390 . S
C645 C644 1.390 . S
C645 C646 1.394 . S
C645 C651 1.465 1_554 S
C646 C641 1.399 . S
C646 C645 1.394 . S
C646 C647 1.516 1_554 S
C647 C646 1.516 1_556 S
C647 C648 1.502 1_556 S
C647 C649 1.561 . S
C647 C650 1.526 . S
C648 H632 0.959 . S
C648 H633 0.959 1_554 S
C648 H634 0.961 . S
C648 C647 1.502 1_554 S
C649 H635 0.960 . S
C649 H636 0.961 . S
C649 H637 0.959 . S
C649 C647 1.561 . S
C650 C647 1.526 . S
C650 C651 1.396 . S
C650 C655 1.390 . S
C651 C645 1.465 1_556 S
C651 C650 1.396 . S
C651 C652 1.399 1_655 S
C652 H638 0.929 . S
C652 C651 1.399 1_455 S
C652 C653 1.385 . S
C653 H639 0.931 . S
C653 C652 1.385 . S
C653 C654 1.389 1_455 S
C654 C653 1.389 1_655 S
C654 C655 1.387 . S
C655 H640 0.930 . S
C655 C650 1.390 . S
C655 C654 1.387 . S
H656 C668 0.930 . S
H657 C670 0.930 1_556 S
H658 C671 0.930 . S
H659 C675 0.959 . S
H660 C675 0.959 . S
H661 C675 0.961 . S
H662 C676 0.960 . S
H663 C676 0.961 . S
H664 C676 0.959 . S
H665 C679 0.929 . S
H666 C680 0.931 . S
H667 C682 0.930 . S
C668 H656 0.930 . S
C668 C669 1.399 . S
C668 C673 1.399 . S
C669 C668 1.399 . S
C669 C670 1.376 . S
C670 H657 0.930 1_554 S
C670 C669 1.376 . S
C670 C671 1.388 . S
C671 H658 0.930 . S
C671 C670 1.388 . S
C671 C672 1.390 . S
C672 C671 1.390 . S
C672 C673 1.394 . S
C672 C678 1.465 . S
C673 C668 1.399 . S
C673 C672 1.394 . S
C673 C674 1.516 . S
C674 C673 1.516 . S
C674 C675 1.502 . S
C674 C676 1.561 . S
C674 C677 1.526 . S
C675 H659 0.959 . S
C675 H660 0.959 . S
C675 H661 0.961 . S
C675 C674 1.502 . S
C676 H662 0.960 . S
C676 H663 0.961 . S
C676 H664 0.959 . S
C676 C674 1.561 . S
C677 C674 1.526 . S
C677 C678 1.396 . S
C677 C682 1.390 . S
C678 C672 1.465 . S
C678 C677 1.396 . S
C678 C679 1.399 1_455 S
C679 H665 0.929 . S
C679 C678 1.399 1_655 S
C679 C680 1.385 . S
C680 H666 0.931 . S
C680 C679 1.385 . S
C680 C681 1.389 1_655 S
C681 C680 1.389 1_455 S
C681 C682 1.387 . S
C682 H667 0.930 . S
C682 C677 1.390 . S
C682 C681 1.387 . S
H683 C695 0.930 . S
H684 C697 0.930 . S
H685 C698 0.930 . S
H686 C702 0.959 . S
H687 C702 0.959 . S
H688 C702 0.961 . S
H689 C703 0.960 1_556 S
H690 C703 0.961 . S
H691 C703 0.959 . S
H692 C706 0.929 . S
H693 C707 0.931 . S
H694 C709 0.930 1_565 S
C695 H683 0.930 . S
C695 C696 1.399 . S
C695 C700 1.399 . S
C696 C695 1.399 . S
C696 C697 1.376 . S
C697 H684 0.930 . S
C697 C696 1.376 . S
C697 C698 1.388 . S
C698 H685 0.930 . S
C698 C697 1.388 . S
C698 C699 1.390 . S
C699 C698 1.390 . S
C699 C700 1.394 . S
C699 C705 1.465 . S
C700 C695 1.399 . S
C700 C699 1.394 . S
C700 C701 1.516 . S
C701 C700 1.516 . S
C701 C702 1.502 1_545 S
C701 C703 1.561 . S
C701 C704 1.526 . S
C702 H686 0.959 . S
C702 H687 0.959 . S
C702 H688 0.961 . S
C702 C701 1.502 1_565 S
C703 H689 0.960 1_554 S
C703 H690 0.961 . S
C703 H691 0.959 . S
C703 C701 1.561 . S
C704 C701 1.526 . S
C704 C705 1.396 . S
C704 C709 1.390 . S
C705 C699 1.465 . S
C705 C704 1.396 . S
C705 C706 1.399 . S
C706 H692 0.929 . S
C706 C705 1.399 . S
C706 C707 1.385 . S
C707 H693 0.931 . S
C707 C706 1.385 . S
C707 C708 1.389 . S
C708 C707 1.389 . S
C708 C709 1.387 . S
C709 H694 0.930 1_545 S
C709 C704 1.390 . S
C709 C708 1.387 . S
H710 C722 0.930 . S
H711 C724 0.930 1_556 S
H712 C725 0.930 . S
H713 C729 0.959 . S
H714 C729 0.959 . S
H715 C729 0.961 . S
H716 C730 0.960 . S
H717 C730 0.961 . S
H718 C730 0.959 . S
H719 C733 0.929 . S
H720 C734 0.931 . S
H721 C736 0.930 . S
C722 H710 0.930 . S
C722 C723 1.399 . S
C722 C727 1.399 . S
C723 C722 1.399 . S
C723 C724 1.376 . S
C724 H711 0.930 1_554 S
C724 C723 1.376 . S
C724 C725 1.388 . S
C725 H712 0.930 . S
C725 C724 1.388 . S
C725 C726 1.390 . S
C726 C725 1.390 . S
C726 C727 1.394 . S
C726 C732 1.465 . S
C727 C722 1.399 . S
C727 C726 1.394 . S
C727 C728 1.516 . S
C728 C727 1.516 . S
C728 C729 1.502 . S
C728 C730 1.561 . S
C728 C731 1.526 . S
C729 H713 0.959 . S
C729 H714 0.959 . S
C729 H715 0.961 . S
C729 C728 1.502 . S
C730 H716 0.960 . S
C730 H717 0.961 . S
C730 H718 0.959 . S
C730 C728 1.561 . S
C731 C728 1.526 . S
C731 C732 1.396 . S
C731 C736 1.390 . S
C732 C726 1.465 . S
C732 C731 1.396 . S
C732 C733 1.399 . S
C733 H719 0.929 . S
C733 C732 1.399 . S
C733 C734 1.385 . S
C734 H720 0.931 . S
C734 C733 1.385 . S
C734 C735 1.389 . S
C735 C734 1.389 . S
C735 C736 1.387 . S
C736 H721 0.930 . S
C736 C731 1.390 . S
C736 C735 1.387 . S
H737 C749 0.930 . S
H738 C751 0.930 . S
H739 C752 0.930 . S
H740 C756 0.959 . S
H741 C756 0.959 . S
H742 C756 0.961 . S
H743 C757 0.960 . S
H744 C757 0.961 . S
H745 C757 0.959 . S
H746 C760 0.929 . S
H747 C761 0.931 . S
H748 C763 0.930 . S
C749 H737 0.930 . S
C749 C750 1.399 . S
C749 C754 1.399 . S
C750 C749 1.399 . S
C750 C751 1.376 . S
C751 H738 0.930 . S
C751 C750 1.376 . S
C751 C752 1.388 . S
C752 H739 0.930 . S
C752 C751 1.388 . S
C752 C753 1.390 . S
C753 C752 1.390 . S
C753 C754 1.394 . S
C753 C759 1.465 . S
C754 C749 1.399 . S
C754 C753 1.394 . S
C754 C755 1.516 . S
C755 C754 1.516 . S
C755 C756 1.502 . S
C755 C757 1.561 . S
C755 C758 1.526 . S
C756 H740 0.959 . S
C756 H741 0.959 . S
C756 H742 0.961 . S
C756 C755 1.502 . S
C757 H743 0.960 . S
C757 H744 0.961 . S
C757 H745 0.959 . S
C757 C755 1.561 . S
C758 C755 1.526 . S
C758 C759 1.396 . S
C758 C763 1.390 . S
C759 C753 1.465 . S
C759 C758 1.396 . S
C759 C760 1.399 . S
C760 H746 0.929 . S
C760 C759 1.399 . S
C760 C761 1.385 . S
C761 H747 0.931 . S
C761 C760 1.385 . S
C761 C762 1.389 . S
C762 C761 1.389 . S
C762 C763 1.387 . S
C763 H748 0.930 . S
C763 C758 1.390 . S
C763 C762 1.387 . S
H764 C776 0.930 . S
H765 C778 0.930 . S
H766 C779 0.930 . S
H767 C783 0.959 . S
H768 C783 0.959 . S
H769 C783 0.961 . S
H770 C784 0.960 . S
H771 C784 0.961 . S
H772 C784 0.959 1_554 S
H773 C787 0.929 . S
H774 C788 0.931 . S
H775 C790 0.930 . S
C776 H764 0.930 . S
C776 C777 1.399 . S
C776 C781 1.399 . S
C777 C776 1.399 . S
C777 C778 1.376 . S
C778 H765 0.930 . S
C778 C777 1.376 . S
C778 C779 1.388 . S
C779 H766 0.930 . S
C779 C778 1.388 . S
C779 C780 1.390 . S
C780 C779 1.390 . S
C780 C781 1.394 . S
C780 C786 1.465 . S
C781 C776 1.399 . S
C781 C780 1.394 . S
C781 C782 1.516 . S
C782 C781 1.516 . S
C782 C783 1.502 1_554 S
C782 C784 1.561 1_554 S
C782 C785 1.526 . S
C783 H767 0.959 . S
C783 H768 0.959 . S
C783 H769 0.961 . S
C783 C782 1.502 1_556 S
C784 H770 0.960 . S
C784 H771 0.961 . S
C784 H772 0.959 1_556 S
C784 C782 1.561 1_556 S
C785 C782 1.526 . S
C785 C786 1.396 . S
C785 C790 1.390 1_554 S
C786 C780 1.465 . S
C786 C785 1.396 . S
C786 C787 1.399 1_655 S
C787 H773 0.929 . S
C787 C786 1.399 1_455 S
C787 C788 1.385 . S
C788 H774 0.931 . S
C788 C787 1.385 . S
C788 C789 1.389 . S
C789 C788 1.389 . S
C789 C790 1.387 1_454 S
C790 H775 0.930 . S
C790 C785 1.390 1_556 S
C790 C789 1.387 1_656 S
H791 C803 0.930 . S
H792 C805 0.930 . S
H793 C806 0.930 . S
H794 C810 0.959 1_545 S
H795 C810 0.959 . S
H796 C810 0.961 . S
H797 C811 0.960 . S
H798 C811 0.961 . S
H799 C811 0.959 . S
H800 C814 0.929 . S
H801 C815 0.931 . S
H802 C817 0.930 . S
C803 H791 0.930 . S
C803 C804 1.399 . S
C803 C808 1.399 . S
C804 C803 1.399 . S
C804 C805 1.376 . S
C805 H792 0.930 . S
C805 C804 1.376 . S
C805 C806 1.388 . S
C806 H793 0.930 . S
C806 C805 1.388 . S
C806 C807 1.390 . S
C807 C806 1.390 . S
C807 C808 1.394 . S
C807 C813 1.465 . S
C808 C803 1.399 . S
C808 C807 1.394 . S
C808 C809 1.516 . S
C809 C808 1.516 . S
C809 C810 1.502 1_554 S
C809 C811 1.561 1_554 S
C809 C812 1.526 . S
C810 H794 0.959 1_565 S
C810 H795 0.959 . S
C810 H796 0.961 . S
C810 C809 1.502 1_556 S
C811 H797 0.960 . S
C811 H798 0.961 . S
C811 H799 0.959 . S
C811 C809 1.561 1_556 S
C812 C809 1.526 . S
C812 C813 1.396 . S
C812 C817 1.390 1_564 S
C813 C807 1.465 . S
C813 C812 1.396 . S
C813 C814 1.399 1_565 S
C814 H800 0.929 . S
C814 C813 1.399 1_545 S
C814 C815 1.385 . S
C815 H801 0.931 . S
C815 C814 1.385 . S
C815 C816 1.389 . S
C816 C815 1.389 . S
C816 C817 1.387 1_554 S
C817 H802 0.930 . S
C817 C812 1.390 1_546 S
C817 C816 1.387 1_556 S
H818 C830 0.930 . S
H819 C832 0.930 . S
H820 C833 0.930 1_556 S
H821 C837 0.959 . S
H822 C837 0.959 . S
H823 C837 0.961 . S
H824 C838 0.960 . S
H825 C838 0.961 . S
H826 C838 0.959 . S
H827 C841 0.929 . S
H828 C842 0.931 . S
H829 C844 0.930 . S
C830 H818 0.930 . S
C830 C831 1.399 . S
C830 C835 1.399 . S
C831 C830 1.399 . S
C831 C832 1.376 . S
C832 H819 0.930 . S
C832 C831 1.376 . S
C832 C833 1.388 . S
C833 H820 0.930 1_554 S
C833 C832 1.388 . S
C833 C834 1.390 . S
C834 C833 1.390 . S
C834 C835 1.394 . S
C834 C840 1.465 . S
C835 C830 1.399 . S
C835 C834 1.394 . S
C835 C836 1.516 . S
C836 C835 1.516 . S
C836 C837 1.502 . S
C836 C838 1.561 . S
C836 C839 1.526 . S
C837 H821 0.959 . S
C837 H822 0.959 . S
C837 H823 0.961 . S
C837 C836 1.502 . S
C838 H824 0.960 . S
C838 H825 0.961 . S
C838 H826 0.959 . S
C838 C836 1.561 . S
C839 C836 1.526 . S
C839 C840 1.396 . S
C839 C844 1.390 . S
C840 C834 1.465 . S
C840 C839 1.396 . S
C840 C841 1.399 1_554 S
C841 H827 0.929 . S
C841 C840 1.399 1_556 S
C841 C842 1.385 . S
C842 H828 0.931 . S
C842 C841 1.385 . S
C842 C843 1.389 1_556 S
C843 C842 1.389 1_554 S
C843 C844 1.387 . S
C844 H829 0.930 . S
C844 C839 1.390 . S
C844 C843 1.387 . S
H845 C857 0.930 . S
H846 C859 0.930 . S
H847 C860 0.930 1_556 S
H848 C864 0.959 . S
H849 C864 0.959 . S
H850 C864 0.961 . S
H851 C865 0.960 . S
H852 C865 0.961 . S
H853 C865 0.959 . S
H854 C868 0.929 . S
H855 C869 0.931 . S
H856 C871 0.930 . S
C857 H845 0.930 . S
C857 C858 1.399 . S
C857 C862 1.399 . S
C858 C857 1.399 . S
C858 C859 1.376 . S
C859 H846 0.930 . S
C859 C858 1.376 . S
C859 C860 1.388 . S
C860 H847 0.930 1_554 S
C860 C859 1.388 . S
C860 C861 1.390 . S
C861 C860 1.390 . S
C861 C862 1.394 . S
C861 C867 1.465 . S
C862 C857 1.399 . S
C862 C861 1.394 . S
C862 C863 1.516 . S
C863 C862 1.516 . S
C863 C864 1.502 . S
C863 C865 1.561 . S
C863 C866 1.526 . S
C864 H848 0.959 . S
C864 H849 0.959 . S
C864 H850 0.961 . S
C864 C863 1.502 . S
C865 H851 0.960 . S
C865 H852 0.961 . S
C865 H853 0.959 . S
C865 C863 1.561 . S
C866 C863 1.526 . S
C866 C867 1.396 . S
C866 C871 1.390 . S
C867 C861 1.465 . S
C867 C866 1.396 . S
C867 C868 1.399 1_554 S
C868 H854 0.929 . S
C868 C867 1.399 1_556 S
C868 C869 1.385 . S
C869 H855 0.931 . S
C869 C868 1.385 . S
C869 C870 1.389 1_556 S
C870 C869 1.389 1_554 S
C870 C871 1.387 . S
C871 H856 0.930 . S
C871 C866 1.390 . S
C871 C870 1.387 . S
H872 C884 0.930 . S
H873 C886 0.930 . S
H874 C887 0.930 . S
H875 C891 0.959 . S
H876 C891 0.959 . S
H877 C891 0.961 . S
H878 C892 0.960 1_554 S
H879 C892 0.961 . S
H880 C892 0.959 . S
H881 C895 0.929 1_655 S
H882 C896 0.931 1_655 S
H883 C898 0.930 . S
C884 H872 0.930 . S
C884 C885 1.399 . S
C884 C889 1.399 . S
C885 C884 1.399 . S
C885 C886 1.376 . S
C886 H873 0.930 . S
C886 C885 1.376 . S
C886 C887 1.388 . S
C887 H874 0.930 . S
C887 C886 1.388 . S
C887 C888 1.390 . S
C888 C887 1.390 . S
C888 C889 1.394 . S
C888 C894 1.465 . S
C889 C884 1.399 . S
C889 C888 1.394 . S
C889 C890 1.516 . S
C890 C889 1.516 . S
C890 C891 1.502 . S
C890 C892 1.561 . S
C890 C893 1.526 . S
C891 H875 0.959 . S
C891 H876 0.959 . S
C891 H877 0.961 . S
C891 C890 1.502 . S
C892 H878 0.960 1_556 S
C892 H879 0.961 . S
C892 H880 0.959 . S
C892 C890 1.561 . S
C893 C890 1.526 . S
C893 C894 1.396 . S
C893 C898 1.390 . S
C894 C888 1.465 . S
C894 C893 1.396 . S
C894 C895 1.399 . S
C895 H881 0.929 1_455 S
C895 C894 1.399 . S
C895 C896 1.385 . S
C896 H882 0.931 1_455 S
C896 C895 1.385 . S
C896 C897 1.389 . S
C897 C896 1.389 . S
C897 C898 1.387 . S
C898 H883 0.930 . S
C898 C893 1.390 . S
C898 C897 1.387 . S
H899 C911 0.930 . S
H900 C913 0.930 . S
H901 C914 0.930 . S
H902 C918 0.959 . S
H903 C918 0.946 1_565 S
H904 C918 0.961 . S
H905 C919 0.960 . S
H906 C919 0.961 . S
H907 C919 0.959 . S
H908 C922 0.929 . S
H909 C923 0.931 . S
H910 C925 0.930 . S
C911 H899 0.930 . S
C911 C912 1.399 . S
C911 C916 1.399 . S
C912 C911 1.399 . S
C912 C913 1.376 . S
C913 H900 0.930 . S
C913 C912 1.376 . S
C913 C914 1.388 . S
C914 H901 0.930 . S
C914 C913 1.388 . S
C914 C915 1.390 . S
C915 C914 1.390 . S
C915 C916 1.394 . S
C915 C921 1.465 . S
C916 C911 1.399 . S
C916 C915 1.394 . S
C916 C917 1.516 . S
C917 C916 1.516 . S
C917 C918 1.502 . S
C917 C919 1.561 1_545 S
C917 C920 1.526 . S
C918 H902 0.959 . S
C918 H903 0.946 1_545 S
C918 H904 0.961 . S
C918 C917 1.502 . S
C919 H905 0.960 . S
C919 H906 0.961 . S
C919 H907 0.959 . S
C919 C917 1.561 1_565 S
C920 C917 1.526 . S
C920 C921 1.396 . S
C920 C925 1.390 . S
C921 C915 1.465 . S
C921 C920 1.396 . S
C921 C922 1.399 . S
C922 H908 0.929 . S
C922 C921 1.399 . S
C922 C923 1.385 . S
C923 H909 0.931 . S
C923 C922 1.385 . S
C923 C924 1.389 . S
C924 C923 1.389 . S
C924 C925 1.387 . S
C925 H910 0.930 . S
C925 C920 1.390 . S
C925 C924 1.387 . S
H926 C938 0.930 . S
H927 C940 0.930 . S
H928 C941 0.930 . S
H929 C945 0.959 . S
H930 C945 0.959 . S
H931 C945 0.961 . S
H932 C946 0.960 . S
H933 C946 0.961 . S
H934 C946 0.959 . S
H935 C949 0.929 . S
H936 C950 0.931 . S
H937 C952 0.930 . S
C938 H926 0.930 . S
C938 C939 1.399 . S
C938 C943 1.399 . S
C939 C938 1.399 . S
C939 C940 1.376 . S
C940 H927 0.930 . S
C940 C939 1.376 . S
C940 C941 1.388 . S
C941 H928 0.930 . S
C941 C940 1.388 . S
C941 C942 1.390 . S
C942 C941 1.390 . S
C942 C943 1.394 . S
C942 C948 1.465 . S
C943 C938 1.399 . S
C943 C942 1.394 . S
C943 C944 1.516 . S
C944 C943 1.516 . S
C944 C945 1.502 . S
C944 C946 1.561 . S
C944 C947 1.526 . S
C945 H929 0.959 . S
C945 H930 0.959 . S
C945 H931 0.961 . S
C945 C944 1.502 . S
C946 H932 0.960 . S
C946 H933 0.961 . S
C946 H934 0.959 . S
C946 C944 1.561 . S
C947 C944 1.526 . S
C947 C948 1.396 . S
C947 C952 1.390 . S
C948 C942 1.465 . S
C948 C947 1.396 . S
C948 C949 1.399 . S
C949 H935 0.929 . S
C949 C948 1.399 . S
C949 C950 1.385 . S
C950 H936 0.931 . S
C950 C949 1.385 . S
C950 C951 1.389 . S
C951 C950 1.389 . S
C951 C952 1.387 . S
C952 H937 0.930 . S
C952 C947 1.390 . S
C952 C951 1.387 . S
H953 C965 0.930 . S
H954 C967 0.930 . S
H955 C968 0.930 . S
H956 C972 0.959 . S
H957 C972 0.959 . S
H958 C972 0.962 . S
H959 C973 0.960 . S
H960 C973 0.961 . S
H961 C973 0.959 . S
H962 C976 0.929 . S
H963 C977 0.931 . S
H964 C979 0.930 . S
C965 H953 0.930 . S
C965 C966 1.399 . S
C965 C970 1.399 . S
C966 C965 1.399 . S
C966 C967 1.376 . S
C967 H954 0.930 . S
C967 C966 1.376 . S
C967 C968 1.388 . S
C968 H955 0.930 . S
C968 C967 1.388 . S
C968 C969 1.390 . S
C969 C968 1.390 . S
C969 C970 1.394 . S
C969 C975 1.465 . S
C970 C965 1.399 . S
C970 C969 1.394 . S
C970 C971 1.516 . S
C971 C970 1.516 . S
C971 C972 1.502 . S
C971 C973 1.561 . S
C971 C974 1.526 . S
C972 H956 0.959 . S
C972 H957 0.959 . S
C972 H958 0.962 . S
C972 C971 1.502 . S
C973 H959 0.960 . S
C973 H960 0.961 . S
C973 H961 0.959 . S
C973 C971 1.561 . S
C974 C971 1.526 . S
C974 C975 1.396 . S
C974 C979 1.390 . S
C975 C969 1.465 . S
C975 C974 1.396 . S
C975 C976 1.399 . S
C976 H962 0.929 . S
C976 C975 1.399 . S
C976 C977 1.385 . S
C977 H963 0.931 . S
C977 C976 1.385 . S
C977 C978 1.389 . S
C978 C977 1.389 . S
C978 C979 1.387 . S
C979 H964 0.930 . S
C979 C974 1.390 . S
C979 C978 1.387 . S
H980 C992 0.930 . S
H981 C994 0.930 . S
H982 C995 0.930 . S
H983 C999 0.959 . S
H984 C999 0.959 . S
H985 C999 0.961 . S
H986 C1000 0.960 . S
H987 C1000 0.961 . S
H988 C1000 0.959 . S
H989 C1003 0.929 . S
H990 C1004 0.931 . S
H991 C1006 0.930 . S
C992 H980 0.930 . S
C992 C993 1.399 . S
C992 C997 1.399 . S
C993 C992 1.399 . S
C993 C994 1.376 . S
C994 H981 0.930 . S
C994 C993 1.376 . S
C994 C995 1.388 . S
C995 H982 0.930 . S
C995 C994 1.388 . S
C995 C996 1.390 . S
C996 C995 1.390 . S
C996 C997 1.394 . S
C996 C1002 1.465 . S
C997 C992 1.399 . S
C997 C996 1.394 . S
C997 C998 1.516 . S
C998 C997 1.516 . S
C998 C999 1.502 1_655 S
C998 C1000 1.561 . S
C998 C1001 1.526 . S
C999 H983 0.959 . S
C999 H984 0.959 . S
C999 H985 0.961 . S
C999 C998 1.502 1_455 S
C1000 H986 0.960 . S
C1000 H987 0.961 . S
C1000 H988 0.959 . S
C1000 C998 1.561 . S
C1001 C998 1.526 . S
C1001 C1002 1.396 . S
C1001 C1006 1.390 . S
C1002 C996 1.465 . S
C1002 C1001 1.396 . S
C1002 C1003 1.399 . S
C1003 H989 0.929 . S
C1003 C1002 1.399 . S
C1003 C1004 1.385 . S
C1004 H990 0.931 . S
C1004 C1003 1.385 . S
C1004 C1005 1.389 . S
C1005 C1004 1.389 . S
C1005 C1006 1.387 . S
C1006 H991 0.930 . S
C1006 C1001 1.390 . S
C1006 C1005 1.387 . S
H1007 C1019 0.930 . S
H1008 C1021 0.930 . S
H1009 C1022 0.930 . S
H1010 C1026 0.959 . S
H1011 C1026 0.959 . S
H1012 C1026 0.961 . S
H1013 C1027 0.960 . S
H1014 C1027 0.961 . S
H1015 C1027 0.959 . S
H1016 C1030 0.929 . S
H1017 C1031 0.931 . S
H1018 C1033 0.930 1_545 S
C1019 H1007 0.930 . S
C1019 C1020 1.399 . S
C1019 C1024 1.399 . S
C1020 C1019 1.399 . S
C1020 C1021 1.376 . S
C1021 H1008 0.930 . S
C1021 C1020 1.376 . S
C1021 C1022 1.388 . S
C1022 H1009 0.930 . S
C1022 C1021 1.388 . S
C1022 C1023 1.390 . S
C1023 C1022 1.390 . S
C1023 C1024 1.394 . S
C1023 C1029 1.465 . S
C1024 C1019 1.399 . S
C1024 C1023 1.394 . S
C1024 C1025 1.516 . S
C1025 C1024 1.516 . S
C1025 C1026 1.502 1_565 S
C1025 C1027 1.561 . S
C1025 C1028 1.526 . S
C1026 H1010 0.959 . S
C1026 H1011 0.959 . S
C1026 H1012 0.961 . S
C1026 C1025 1.502 1_545 S
C1027 H1013 0.960 . S
C1027 H1014 0.961 . S
C1027 H1015 0.959 . S
C1027 C1025 1.561 . S
C1028 C1025 1.526 . S
C1028 C1029 1.396 . S
C1028 C1033 1.390 . S
C1029 C1023 1.465 . S
C1029 C1028 1.396 . S
C1029 C1030 1.399 . S
C1030 H1016 0.929 . S
C1030 C1029 1.399 . S
C1030 C1031 1.385 . S
C1031 H1017 0.931 . S
C1031 C1030 1.385 . S
C1031 C1032 1.389 . S
C1032 C1031 1.389 . S
C1032 C1033 1.387 . S
C1033 H1018 0.930 1_565 S
C1033 C1028 1.390 . S
C1033 C1032 1.387 . S
H1034 C1046 0.930 . S
H1035 C1048 0.930 . S
H1036 C1049 0.930 . S
H1037 C1053 0.959 . S
H1038 C1053 0.959 . S
H1039 C1053 0.961 . S
H1040 C1054 0.960 . S
H1041 C1054 0.961 . S
H1042 C1054 0.959 . S
H1043 C1057 0.929 . S
H1044 C1058 0.931 . S
H1045 C1060 0.930 . S
C1046 H1034 0.930 . S
C1046 C1047 1.399 . S
C1046 C1051 1.399 . S
C1047 C1046 1.399 . S
C1047 C1048 1.376 . S
C1048 H1035 0.930 . S
C1048 C1047 1.376 . S
C1048 C1049 1.388 . S
C1049 H1036 0.930 . S
C1049 C1048 1.388 . S
C1049 C1050 1.390 . S
C1050 C1049 1.390 . S
C1050 C1051 1.394 . S
C1050 C1056 1.465 . S
C1051 C1046 1.399 . S
C1051 C1050 1.394 . S
C1051 C1052 1.516 . S
C1052 C1051 1.516 . S
C1052 C1053 1.502 . S
C1052 C1054 1.561 . S
C1052 C1055 1.526 . S
C1053 H1037 0.959 . S
C1053 H1038 0.959 . S
C1053 H1039 0.961 . S
C1053 C1052 1.502 . S
C1054 H1040 0.960 . S
C1054 H1041 0.961 . S
C1054 H1042 0.959 . S
C1054 C1052 1.561 . S
C1055 C1052 1.526 . S
C1055 C1056 1.396 . S
C1055 C1060 1.390 . S
C1056 C1050 1.465 . S
C1056 C1055 1.396 . S
C1056 C1057 1.399 . S
C1057 H1043 0.929 . S
C1057 C1056 1.399 . S
C1057 C1058 1.385 . S
C1058 H1044 0.931 . S
C1058 C1057 1.385 . S
C1058 C1059 1.389 . S
C1059 C1058 1.389 . S
C1059 C1060 1.387 . S
C1060 H1045 0.930 . S
C1060 C1055 1.390 . S
C1060 C1059 1.387 . S
H1061 C1073 0.930 . S
H1062 C1075 0.930 . S
H1063 C1076 0.930 . S
H1064 C1080 0.959 . S
H1065 C1080 0.959 . S
H1066 C1080 0.961 . S
H1067 C1081 0.960 . S
H1068 C1081 0.961 . S
H1069 C1081 0.959 . S
H1070 C1084 0.929 . S
H1071 C1085 0.931 . S
H1072 C1087 0.930 . S
C1073 H1061 0.930 . S
C1073 C1074 1.399 . S
C1073 C1078 1.399 . S
C1074 C1073 1.399 . S
C1074 C1075 1.376 . S
C1075 H1062 0.930 . S
C1075 C1074 1.376 . S
C1075 C1076 1.388 . S
C1076 H1063 0.930 . S
C1076 C1075 1.388 . S
C1076 C1077 1.390 . S
C1077 C1076 1.390 . S
C1077 C1078 1.394 . S
C1077 C1083 1.465 . S
C1078 C1073 1.399 . S
C1078 C1077 1.394 . S
C1078 C1079 1.516 . S
C1079 C1078 1.516 . S
C1079 C1080 1.502 . S
C1079 C1081 1.561 . S
C1079 C1082 1.526 . S
C1080 H1064 0.959 . S
C1080 H1065 0.959 . S
C1080 H1066 0.961 . S
C1080 C1079 1.502 . S
C1081 H1067 0.960 . S
C1081 H1068 0.961 . S
C1081 H1069 0.959 . S
C1081 C1079 1.561 . S
C1082 C1079 1.526 . S
C1082 C1083 1.396 . S
C1082 C1087 1.390 . S
C1083 C1077 1.465 . S
C1083 C1082 1.396 . S
C1083 C1084 1.399 . S
C1084 H1070 0.929 . S
C1084 C1083 1.399 . S
C1084 C1085 1.385 . S
C1085 H1071 0.931 . S
C1085 C1084 1.385 . S
C1085 C1086 1.389 . S
C1086 C1085 1.389 . S
C1086 C1087 1.387 . S
C1087 H1072 0.930 . S
C1087 C1082 1.390 . S
C1087 C1086 1.387 . S
C453 C82 1.755 . S
C465 C178 1.920 . S
C492 C262 1.955 . S
C480 C95 1.729 . S
C519 C328 1.894 . S
C507 C56 1.907 . S
C546 C412 1.947 . S
C534 C69 1.812 . S
C573 C167 1.936 1_565 S
C561 C30 1.730 . S
C588 C43 1.659 . S
C600 C251 1.969 . S
C615 C4 1.744 . S
C627 C339 1.934 . S
C642 C17 1.727 . S
C654 C423 1.919 . S
C681 C174 0.592 1_455 S
C669 C74 0.568 . S
C708 C258 0.699 1_545 S
C696 C87 0.709 . S
C735 C330 0.540 . S
C723 C100 0.529 . S
C750 C61 0.639 . S
C762 C414 0.623 . S
C777 C22 0.598 . S
C789 C162 0.627 1_554 S
C816 C246 0.619 1_554 S
C804 C35 0.588 . S
C843 C342 0.676 . S
C831 C48 0.648 . S
C858 C9 0.701 . S
C870 C426 0.711 . S
C885 C73 2.011 . S
C897 C171 2.031 . S
C912 C86 2.016 . S
C924 C255 2.040 . S
C951 C335 2.060 . S
C939 C99 1.848 . S
C978 C419 2.102 . S
C966 C60 1.955 . S
C993 C21 2.030 . S
C1005 C160 2.064 . S
C1032 C244 2.042 . S
C1020 C34 1.993 . S
C1059 C346 2.044 . S
C1047 C47 1.838 . S
C1074 C8 1.902 . S
C1086 C430 2.064 . S
