# Generated by pormake.
# Topology zzz, (3,6)-cn, num edge types: 1
# Building blocks:
#     Node 0, Type 0, BuildingBlock: QEWDON_clean_linker_0, # of connection points: 3
#     Node 1, Type 0, BuildingBlock: QEWDON_clean_linker_0, # of connection points: 3
#     Node 2, Type 0, BuildingBlock: QEWDON_clean_linker_0, # of connection points: 3
#     Node 3, Type 0, BuildingBlock: QEWDON_clean_linker_0, # of connection points: 3
#     Node 4, Type 0, BuildingBlock: QEWDON_clean_linker_0, # of connection points: 3
#     Node 5, Type 0, BuildingBlock: QEWDON_clean_linker_0, # of connection points: 3
#     Node 6, Type 0, BuildingBlock: QEWDON_clean_linker_0, # of connection points: 3
#     Node 7, Type 0, BuildingBlock: QEWDON_clean_linker_0, # of connection points: 3
#     Node 8, Type 1, BuildingBlock: NUHQIS_clean_sbu_0, # of connection points: 6
#     Node 9, Type 1, BuildingBlock: NUHQIS_clean_sbu_0, # of connection points: 6
#     Node 10, Type 1, BuildingBlock: NUHQIS_clean_sbu_0, # of connection points: 6
#     Node 11, Type 1, BuildingBlock: NUHQIS_clean_sbu_0, # of connection points: 6
#     Edge 12, Type (0, 1), BuildingBlock: MIFKUJ_clean_linker_0, # of connection points: 2
#     Edge 13, Type (0, 1), BuildingBlock: MIFKUJ_clean_linker_0, # of connection points: 2
#     Edge 14, Type (0, 1), BuildingBlock: MIFKUJ_clean_linker_0, # of connection points: 2
#     Edge 15, Type (0, 1), BuildingBlock: MIFKUJ_clean_linker_0, # of connection points: 2
#     Edge 16, Type (0, 1), BuildingBlock: MIFKUJ_clean_linker_0, # of connection points: 2
#     Edge 17, Type (0, 1), BuildingBlock: MIFKUJ_clean_linker_0, # of connection points: 2
#     Edge 18, Type (0, 1), BuildingBlock: MIFKUJ_clean_linker_0, # of connection points: 2
#     Edge 19, Type (0, 1), BuildingBlock: MIFKUJ_clean_linker_0, # of connection points: 2
#     Edge 20, Type (0, 1), BuildingBlock: MIFKUJ_clean_linker_0, # of connection points: 2
#     Edge 21, Type (0, 1), BuildingBlock: MIFKUJ_clean_linker_0, # of connection points: 2
#     Edge 22, Type (0, 1), BuildingBlock: MIFKUJ_clean_linker_0, # of connection points: 2
#     Edge 23, Type (0, 1), BuildingBlock: MIFKUJ_clean_linker_0, # of connection points: 2
#     Edge 24, Type (0, 1), BuildingBlock: MIFKUJ_clean_linker_0, # of connection points: 2
#     Edge 25, Type (0, 1), BuildingBlock: MIFKUJ_clean_linker_0, # of connection points: 2
#     Edge 26, Type (0, 1), BuildingBlock: MIFKUJ_clean_linker_0, # of connection points: 2
#     Edge 27, Type (0, 1), BuildingBlock: MIFKUJ_clean_linker_0, # of connection points: 2
#     Edge 28, Type (0, 1), BuildingBlock: MIFKUJ_clean_linker_0, # of connection points: 2
#     Edge 29, Type (0, 1), BuildingBlock: MIFKUJ_clean_linker_0, # of connection points: 2
#     Edge 30, Type (0, 1), BuildingBlock: MIFKUJ_clean_linker_0, # of connection points: 2
#     Edge 31, Type (0, 1), BuildingBlock: MIFKUJ_clean_linker_0, # of connection points: 2
#     Edge 32, Type (0, 1), BuildingBlock: MIFKUJ_clean_linker_0, # of connection points: 2
#     Edge 33, Type (0, 1), BuildingBlock: MIFKUJ_clean_linker_0, # of connection points: 2
#     Edge 34, Type (0, 1), BuildingBlock: MIFKUJ_clean_linker_0, # of connection points: 2
#     Edge 35, Type (0, 1), BuildingBlock: MIFKUJ_clean_linker_0, # of connection points: 2
# Relax obj value: 0.124
# Max RMSD: 0.127
# Mean RMSD: 0.094
data_MOF--net-zzz--node1-NUHQIS_clean_sbu_0--node2-QEWDON_clean_linker_0--edge1-MIFKUJ_clean_linker_0
_symmetry_space_group_name_H-M    P1
_symmetry_Int_Tables_number       1
_symmetry_cell_setting            triclinic
loop_
_symmetry_equiv_pos_as_xyz
'x, y, z'
_cell_length_a     72.326841
_cell_length_b     72.327771
_cell_length_c     17.215906
_cell_angle_alpha  90.069052
_cell_angle_beta   89.994955
_cell_angle_gamma 89.96257
loop_
_atom_site_label
_atom_site_type_symbol
_atom_site_fract_x
_atom_site_fract_y
_atom_site_fract_z
_atom_type_partial_charge
H0 H 0.75006 0.52129 0.18136 0.0
C1 C 0.75929 0.5187 0.22969 0.0
C2 C 0.77717 0.51253 0.21367 0.0
C3 C 0.75368 0.52241 0.30648 0.0
H4 H 0.80396 0.50607 0.26039 0.0
C5 C 0.78987 0.51012 0.2741 0.0
C6 C 0.78527 0.51444 0.35084 0.0
C7 C 0.76705 0.52054 0.36723 0.0
C8 C 0.73442 0.52972 0.32022 0.0
H9 H 0.76343 0.52376 0.42672 0.0
C10 C 0.7193 0.52479 0.27112 0.0
C11 C 0.70169 0.53329 0.2789 0.0
C12 C 0.7313 0.54287 0.37892 0.0
H13 H 0.74239 0.54742 0.41653 0.0
C14 C 0.71398 0.55106 0.38789 0.0
H15 H 0.72119 0.51429 0.22702 0.0
C16 C 0.69943 0.54653 0.3382 0.0
H17 H 0.6865 0.55386 0.34549 0.0
H18 H 0.71192 0.56139 0.43265 0.0
H19 H 0.99467 0.75004 0.16207 0.0
C20 C 0.99692 0.76056 0.20581 0.0
C21 C 0.99682 0.77904 0.18238 0.0
C22 C 0.99888 0.7558 0.28483 0.0
H23 H 0.99883 0.8074 0.2188 0.0
C24 C 0.99868 0.79309 0.23769 0.0
C25 C 1.00054 0.78914 0.3167 0.0
C26 C 1.00104 0.7704 0.34026 0.0
C27 C 0.99692 0.73581 0.30849 0.0
H28 H 1.00268 0.76735 0.40138 0.0
C29 C 1.00142 0.72099 0.25706 0.0
C30 C 0.99727 0.70236 0.27595 0.0
C31 C 0.9889 0.73139 0.38054 0.0
H32 H 0.98475 0.74207 0.42097 0.0
C33 C 0.98522 0.71309 0.40039 0.0
H34 H 1.00816 0.72389 0.20234 0.0
C35 C 0.98911 0.69877 0.34864 0.0
H36 H 0.9852 0.68489 0.36527 0.0
H37 H 0.97878 0.71001 0.45565 0.0
H38 H 0.7726 1.00509 0.19203 0.0
C39 C 0.76337 1.00734 0.24062 0.0
C40 C 0.74572 0.01424 0.22531 0.0
C41 C 0.76875 1.00275 0.3169 0.0
H42 H 0.71898 0.0208 0.27211 0.0
C43 C 0.73291 0.0162 0.28554 0.0
C44 C 0.73719 1.01091 0.36142 0.0
C45 C 0.75524 1.00429 0.3774 0.0
C46 C 0.78801 0.99537 0.33063 0.0
H47 H 0.75862 1.00055 0.43652 0.0
C48 C 0.80312 1.00014 0.28119 0.0
C49 C 0.82084 0.99209 0.29086 0.0
C50 C 0.79131 0.98266 0.39087 0.0
H51 H 0.78028 0.97814 0.42877 0.0
C52 C 0.80882 0.97499 0.4017 0.0
H53 H 0.80127 1.01023 0.23553 0.0
C54 C 0.82339 0.97954 0.35222 0.0
H55 H 0.83661 0.97282 0.36108 0.0
H56 H 0.81103 0.96512 0.44799 0.0
H57 H 0.52132 0.77606 0.1485 0.0
C58 C 0.51956 0.7659 0.19389 0.0
C59 C 0.51399 0.74818 0.17208 0.0
C60 C 0.5229 0.77032 0.27251 0.0
H61 H 0.50945 0.72029 0.2086 0.0
C62 C 0.51281 0.73418 0.22771 0.0
C63 C 0.51653 0.73755 0.30629 0.0
C64 C 0.52142 0.75579 0.32868 0.0
C65 C 0.52818 0.78993 0.29407 0.0
H66 H 0.52363 0.75855 0.3897 0.0
C67 C 0.52367 0.8053 0.24565 0.0
C68 C 0.52945 0.82345 0.2643 0.0
C69 C 0.53838 0.79348 0.36218 0.0
H70 H 0.54275 0.7824 0.40007 0.0
C71 C 0.54363 0.81146 0.38191 0.0
H72 H 0.51544 0.80346 0.19382 0.0
C73 C 0.53925 0.8263 0.33361 0.0
H74 H 0.54396 0.84 0.34959 0.0
H75 H 0.55148 0.81387 0.43449 0.0
H76 H 0.27232 0.52131 0.18619 0.0
C77 C 0.26179 0.5194 0.14228 0.0
C78 C 0.24337 0.5215 0.16448 0.0
C79 C 0.26654 0.51597 0.06417 0.0
H80 H 0.21503 0.52212 0.12747 0.0
C81 C 0.22929 0.52038 0.10914 0.0
C82 C 0.23321 0.51692 0.03095 0.0
C83 C 0.2519 0.51433 0.0086 0.0
C84 C 0.28671 0.51594 0.04142 0.0
H85 H 0.25491 0.51151 0.94818 0.0
C86 C 0.30098 0.5113 0.09531 0.0
C87 C 0.31994 0.51396 0.07726 0.0
C88 C 0.292 0.52236 0.96763 0.0
H89 H 0.28182 0.52653 0.92509 0.0
C90 C 0.3106 0.52447 0.94852 0.0
H91 H 0.2974 0.50565 0.15144 0.0
C92 C 0.32439 0.5206 0.00272 0.0
H93 H 0.33856 0.52336 0.98636 0.0
H94 H 0.31437 0.52973 0.89183 0.0
H95 H 1.00034 0.27239 0.19018 0.0
C96 C 1.00405 0.26116 0.1516 0.0
C97 C 0.99742 0.24347 0.16853 0.0
C98 C 0.01454 0.26445 0.08395 0.0
H99 H 0.99628 0.21504 0.13236 0.0
C100 C 1.00122 0.22879 0.11804 0.0
C101 C 1.01163 0.23133 0.05052 0.0
C102 C 0.01861 0.24917 0.0341 0.0
C103 C 0.01957 0.28404 0.06308 0.0
H104 H 0.02679 0.25111 0.9821 0.0
C105 C 0.02241 0.29791 0.12075 0.0
C106 C 0.02462 0.3168 0.10048 0.0
C107 C 0.01983 0.28941 0.98464 0.0
H108 H 0.0173 0.27953 0.93863 0.0
C109 C 0.02241 0.30785 0.96409 0.0
H110 H 0.02289 0.29402 0.18135 0.0
C111 C 0.02451 0.32141 0.02098 0.0
H112 H 0.02553 0.33563 0.00202 0.0
H113 H 0.02223 0.31176 0.90341 0.0
H114 H 0.24941 0.99524 0.19751 0.0
C115 C 0.26045 0.99828 0.15713 0.0
C116 C 0.27821 0.99222 0.1758 0.0
C117 C 0.25696 1.00746 0.0863 0.0
H118 H 0.30653 0.99072 0.14113 0.0
C119 C 0.29277 0.99509 0.12406 0.0
C120 C 0.29012 1.00374 0.05228 0.0
C121 C 0.27215 1.01036 0.0343 0.0
C122 C 0.23733 0.01277 0.0659 0.0
H123 H 0.2701 0.01747 0.97977 0.0
C124 C 0.2236 0.01594 0.124 0.0
C125 C 0.20483 0.01908 0.10419 0.0
C126 C 0.23177 0.01344 0.98759 0.0
H127 H 0.24138 1.0106 0.94098 0.0
C128 C 0.21343 0.01705 0.96768 0.0
H129 H 0.22738 0.01611 0.18476 0.0
C130 C 0.20009 0.01969 0.02505 0.0
H131 H 0.18588 0.02172 0.00706 0.0
H132 H 0.20943 0.01732 0.9071 0.0
H133 H 0.52828 0.25857 0.20626 0.0
C134 C 0.5246 0.26914 0.16472 0.0
C135 C 0.52995 0.28735 0.1809 0.0
C136 C 0.51551 0.26464 0.09451 0.0
H137 H 0.53078 0.31537 0.13965 0.0
C138 C 0.52659 0.3013 0.12652 0.0
C139 C 0.51759 0.29758 0.0564 0.0
C140 C 0.51154 0.27934 0.04161 0.0
C141 C 0.51155 0.24462 0.07448 0.0
H142 H 0.50415 0.27675 0.98813 0.0
C143 C 0.51031 0.23049 0.13216 0.0
C144 C 0.50862 0.2116 0.11116 0.0
C145 C 0.51028 0.2392 0.99592 0.0
H146 H 0.5118 0.24902 0.94914 0.0
C147 C 0.50768 0.22075 0.97538 0.0
H148 H 0.51107 0.23391 0.19319 0.0
C149 C 0.50693 0.2071 0.0321 0.0
H150 H 0.50514 0.19287 0.01382 0.0
H151 H 0.50667 0.21695 0.91469 0.0
Tb152 Tb 0.02578 1.00277 0.76921 0.0
Eu153 Eu 0.99965 0.01573 0.6271 0.0
C154 C 0.04381 0.0148 0.60949 0.0
C155 C 0.01666 0.04485 0.75108 0.0
C156 C 0.04057 0.96921 0.90267 0.0
C157 C 0.05117 0.93736 0.89693 0.0
C158 C 0.05504 0.9563 0.89999 0.0
C159 C 0.02225 0.96283 0.90802 0.0
C160 C 0.0184 0.94402 0.90446 0.0
C161 C 0.03276 0.93109 0.89615 0.0
C162 C 0.04387 0.98835 0.87737 0.0
O163 O 0.99817 1.00717 0.81893 0.0
O164 O 0.98068 1.00138 0.7117 0.0
O165 O 1.00564 0.98572 0.60026 0.0
O166 O 0.01428 0.97689 0.7231 0.0
C167 C 0.98213 1.00311 0.78725 0.0
O168 O 0.97284 0.02619 0.5898 0.0
O169 O 0.99464 0.02246 0.50516 0.0
O170 O 0.02873 0.02404 0.59218 0.0
O171 O 0.04408 1.00334 0.66848 0.0
O172 O 0.02976 0.03283 0.76778 0.0
O173 O 1.00216 0.0399 0.71007 0.0
C174 C 1.00967 0.97276 0.6511 0.0
O175 O 0.05008 0.98956 0.80671 0.0
O176 O 0.0305 1.00009 0.88951 0.0
C177 C 0.97695 0.04985 0.50054 0.0
C178 C 0.97214 0.08845 0.49525 0.0
C179 C 0.95715 0.07654 0.48074 0.0
C180 C 0.95954 0.05736 0.48362 0.0
C181 C 0.99206 0.06171 0.51204 0.0
C182 C 0.98971 0.0808 0.50892 0.0
C183 C 0.97873 0.03022 0.52039 0.0
H184 H 0.06256 0.9277 0.89224 0.0
H185 H 0.06924 0.9609 0.89451 0.0
H186 H 1.01071 0.97239 0.90846 0.0
H187 H 1.00405 0.93975 0.90323 0.0
H188 H 0.94344 0.08204 0.47036 0.0
H189 H 0.94766 0.04842 0.47621 0.0
H190 H 1.00558 0.05625 0.52666 0.0
H191 H 1.00162 0.08958 0.51863 0.0
Tb192 Tb 0.51653 0.02929 0.75303 0.0
Eu193 Eu 0.50592 1.00312 0.60788 0.0
C194 C 0.50821 0.04666 0.59139 0.0
C195 C 0.47449 0.01843 0.72517 0.0
C196 C 0.54266 0.05027 0.91314 0.0
C197 C 0.57455 0.06023 0.92488 0.0
C198 C 0.55696 0.06252 0.89338 0.0
C199 C 0.54571 0.03708 0.97176 0.0
C200 C 0.56329 0.03483 0.00342 0.0
C201 C 0.57805 0.04576 0.97721 0.0
C202 C 0.52572 0.04965 0.86562 0.0
O203 O 0.52506 1.00133 0.78721 0.0
O204 O 0.50294 0.98641 0.71768 0.0
O205 O 0.5372 1.00138 0.61136 0.0
O206 O 0.54268 0.02694 0.68777 0.0
C207 C 0.51482 0.98658 0.77512 0.0
O208 O 0.50521 0.97589 0.55288 0.0
O209 O 0.49226 0.99925 0.49609 0.0
O210 O 0.51361 0.03111 0.55911 0.0
O211 O 0.50361 0.04691 0.66521 0.0
O212 O 0.48759 0.02239 0.77538 0.0
O213 O 0.47851 0.01384 0.65328 0.0
C214 C 0.54858 0.01381 0.64042 0.0
O215 O 0.52767 0.05434 0.79297 0.0
O216 O 0.5156 0.03484 0.87253 0.0
C217 C 0.4752 0.97207 0.50317 0.0
C218 C 0.43739 0.9632 0.50883 0.0
C219 C 0.44723 0.96652 0.57761 0.0
C220 C 0.46597 0.97086 0.57482 0.0
C221 C 0.46573 0.96763 0.43467 0.0
C222 C 0.44691 0.96306 0.43753 0.0
C223 C 0.49328 0.98127 0.50061 0.0
H224 H 0.58568 0.06884 0.90345 0.0
H225 H 0.5549 0.07303 0.8494 0.0
H226 H 0.53485 0.02769 0.98962 0.0
H227 H 0.56559 0.02381 0.04489 0.0
H228 H 0.4402 0.96674 0.63317 0.0
H229 H 0.47295 0.97446 0.6284 0.0
H230 H 0.47255 0.96876 0.37886 0.0
H231 H 0.43954 0.96073 0.38364 0.0
Tb232 Tb 0.49957 0.52135 0.74367 0.0
Eu233 Eu 0.52476 0.50967 0.59608 0.0
C234 C 0.48106 0.51296 0.58219 0.0
C235 C 0.50887 0.4791 0.71529 0.0
C236 C 0.48135 0.55197 0.88703 0.0
C237 C 0.46911 0.58319 0.88073 0.0
C238 C 0.46641 0.5641 0.8763 0.0
C239 C 0.49852 0.55914 0.91066 0.0
C240 C 0.50118 0.57817 0.91535 0.0
C241 C 0.48677 0.59035 0.89643 0.0
C242 C 0.48031 0.5332 0.85419 0.0
O243 O 0.52773 0.529 0.77742 0.0
O244 O 0.54276 0.50769 0.70322 0.0
O245 O 0.52679 0.54089 0.59408 0.0
O246 O 0.50363 0.54759 0.68169 0.0
C247 C 0.54254 0.51907 0.76256 0.0
O248 O 0.55204 0.50441 0.54562 0.0
O249 O 0.52744 0.49887 0.47826 0.0
O250 O 0.49672 0.5172 0.54821 0.0
O251 O 0.48062 0.50959 0.65726 0.0
O252 O 0.50614 0.49232 0.76659 0.0
O253 O 0.51252 0.48302 0.6424 0.0
C254 C 0.51582 0.55283 0.62912 0.0
O255 O 0.47453 0.53269 0.78254 0.0
O256 O 0.49477 0.52266 0.86408 0.0
C257 C 0.55031 0.47568 0.48279 0.0
C258 C 0.56068 0.43858 0.50683 0.0
C259 C 0.57414 0.45194 0.48907 0.0
C260 C 0.56898 0.47045 0.47774 0.0
C261 C 0.53687 0.46205 0.49679 0.0
C262 C 0.542 0.44376 0.50869 0.0
C263 C 0.54501 0.49534 0.48714 0.0
H264 H 0.45772 0.59228 0.8662 0.0
H265 H 0.45308 0.5589 0.85763 0.0
H266 H 0.51034 0.5502 0.91959 0.0
H267 H 0.51481 0.58335 0.92974 0.0
H268 H 0.58863 0.4482 0.48657 0.0
H269 H 0.57959 0.48075 0.46803 0.0
H270 H 0.52236 0.46556 0.50162 0.0
H271 H 0.53129 0.43366 0.52016 0.0
Tb272 Tb 1.00587 0.49889 0.74886 0.0
Eu273 Eu 0.01548 0.5244 0.59978 0.0
C274 C 0.01624 0.48004 0.59077 0.0
C275 C 0.04768 0.50991 0.71415 0.0
C276 C 0.98007 0.48007 0.91298 0.0
C277 C 0.94797 0.47095 0.92587 0.0
C278 C 0.96565 0.46767 0.89683 0.0
C279 C 0.97704 0.49449 0.96641 0.0
C280 C 0.95938 0.49769 0.99587 0.0
C281 C 0.94451 0.48655 0.97241 0.0
C282 C 0.99694 0.47967 0.86498 0.0
O283 O 0.99699 0.52666 0.78367 0.0
O284 O 0.01622 0.54312 0.70457 0.0
O285 O 0.98434 0.52654 0.60929 0.0
O286 O 0.97985 0.50028 0.68175 0.0
C287 C 1.00562 0.54211 0.76619 0.0
O288 O 0.02475 0.55079 0.55247 0.0
O289 O 0.01846 0.52832 0.47451 0.0
O290 O 1.01147 0.49529 0.55469 0.0
O291 O 0.01884 0.47996 0.66628 0.0
O292 O 0.03484 0.50664 0.76647 0.0
O293 O 0.04322 0.51368 0.64184 0.0
C294 C 0.97338 0.51361 0.63686 0.0
O295 O 0.99462 0.47435 0.79327 0.0
O296 O 1.00752 0.49422 0.86892 0.0
C297 C 0.04649 0.54457 0.45521 0.0
C298 C 0.08528 0.54215 0.45028 0.0
C299 C 0.07668 0.559 0.46869 0.0
C300 C 0.05739 0.56021 0.47097 0.0
C301 C 0.05517 0.52827 0.42938 0.0
C302 C 0.07437 0.52709 0.42706 0.0
C303 C 0.02721 0.54395 0.48322 0.0
H304 H 0.93679 0.46212 0.90653 0.0
H305 H 0.96767 0.45628 0.85679 0.0
H306 H 0.98798 0.50408 0.98138 0.0
H307 H 0.95714 0.50956 0.03315 0.0
H308 H 0.08481 0.57085 0.48647 0.0
H309 H 0.05106 0.57292 0.49113 0.0
H310 H 0.04723 0.51595 0.41635 0.0
H311 H 0.08071 0.51407 0.41065 0.0
H312 H 0.17449 0.04211 0.1035 0.0
H313 H 0.14827 0.04233 0.19243 0.0
H314 H 0.17481 1.00073 0.33283 0.0
H315 H 0.20084 0.99984 0.24171 0.0
H316 H 0.14005 0.99174 0.31383 0.0
H317 H 0.1703 0.04762 0.39092 0.0
H318 H 0.18475 0.07818 0.37287 0.0
H319 H 0.13385 0.09954 0.28104 0.0
H320 H 0.11915 0.06902 0.29756 0.0
H321 H 0.07715 0.99733 0.62854 0.0
H322 H 0.10478 0.99943 0.5479 0.0
H323 H 0.07722 0.03841 0.39814 0.0
H324 H 0.0494 0.03655 0.47954 0.0
H325 H 0.11267 0.04894 0.42401 0.0
H326 H 0.0828 0.99296 0.34401 0.0
H327 H 0.06819 0.96254 0.363 0.0
H328 H 0.11853 0.94146 0.46119 0.0
H329 H 0.13339 0.97188 0.44369 0.0
C330 C 0.17484 0.03298 0.15325 0.0
C331 C 0.18989 0.02087 0.16468 0.0
C332 C 0.15982 0.03327 0.20485 0.0
C333 C 0.15945 0.02167 0.27033 0.0
C334 C 0.17465 1.00986 0.28302 0.0
C335 C 0.18969 1.00951 0.23113 0.0
C336 C 0.14289 0.02129 0.32323 0.0
C337 C 0.13431 1.00425 0.3389 0.0
C338 C 0.13488 0.0376 0.3547 0.0
C339 C 0.14367 0.05598 0.34483 0.0
C340 C 0.16222 0.05879 0.36633 0.0
C341 C 0.17045 0.07612 0.35647 0.0
C342 C 0.16024 0.09078 0.32565 0.0
C343 C 0.14175 0.08816 0.30482 0.0
C344 C 0.13346 0.07086 0.3145 0.0
C345 C 0.07687 1.00641 0.57859 0.0
C346 C 0.06086 0.01669 0.56064 0.0
C347 C 0.09275 1.00753 0.53212 0.0
C348 C 0.09314 0.01887 0.46587 0.0
C349 C 0.07734 0.0295 0.44865 0.0
C350 C 0.06138 0.02838 0.49525 0.0
C351 C 0.10994 0.0194 0.41453 0.0
C352 C 0.1185 0.03645 0.39909 0.0
C353 C 0.11796 1.00311 0.38328 0.0
C354 C 0.10914 0.98475 0.39321 0.0
C355 C 0.09071 0.98187 0.37014 0.0
C356 C 0.08239 0.96462 0.38057 0.0
C357 C 0.09239 0.95008 0.41349 0.0
C358 C 0.11078 0.95275 0.4358 0.0
C359 C 0.11917 0.96999 0.42556 0.0
H360 H 0.08591 0.93673 0.42155 0.0
H361 H 0.16664 0.10418 0.31807 0.0
H362 H 0.52806 0.17932 0.10147 0.0
H363 H 0.52713 0.15271 0.18803 0.0
H364 H 0.49006 0.18198 0.34095 0.0
H365 H 0.49091 0.20892 0.25359 0.0
H366 H 0.51613 0.16176 0.42274 0.0
H367 H 0.47332 0.14971 0.21595 0.0
H368 H 0.46336 0.14714 0.07938 0.0
H369 H 0.50443 0.10534 0.03877 0.0
H370 H 0.51483 0.10785 0.17485 0.0
H371 H 0.49204 0.07979 0.63042 0.0
H372 H 0.49123 0.10838 0.55485 0.0
H373 H 0.52241 0.08191 0.37229 0.0
H374 H 0.52265 0.05309 0.44642 0.0
H375 H 0.4973 0.10165 0.30847 0.0
H376 H 0.54146 0.11435 0.51011 0.0
H377 H 0.55256 0.11691 0.64514 0.0
H378 H 0.51052 0.15721 0.69424 0.0
H379 H 0.499 0.1547 0.55971 0.0
C380 C 0.51965 0.18017 0.15341 0.0
C381 C 0.50929 0.19623 0.16963 0.0
C382 C 0.51915 0.16488 0.20305 0.0
C383 C 0.5082 0.16507 0.27041 0.0
C384 C 0.49852 0.18139 0.28908 0.0
C385 C 0.49904 0.19682 0.23918 0.0
C386 C 0.50663 0.14799 0.31937 0.0
C387 C 0.51173 0.14868 0.39808 0.0
C388 C 0.50129 0.13074 0.28717 0.0
C389 C 0.49494 0.12907 0.20548 0.0
C390 C 0.4803 0.14005 0.17778 0.0
C391 C 0.47457 0.1386 0.10046 0.0
C392 C 0.48328 0.12611 0.05039 0.0
C393 C 0.49771 0.11502 0.0776 0.0
C394 C 0.50351 0.11643 0.15484 0.0
C395 C 0.49871 0.08002 0.57411 0.0
C396 C 0.50743 0.06406 0.54474 0.0
C397 C 0.49835 0.09649 0.53099 0.0
C398 C 0.50705 0.0976 0.45797 0.0
C399 C 0.51559 0.08158 0.4283 0.0
C400 C 0.51574 0.06504 0.47093 0.0
C401 C 0.5071 0.11526 0.41192 0.0
C402 C 0.50166 0.11471 0.33354 0.0
C403 C 0.51227 0.13258 0.44436 0.0
C404 C 0.51925 0.1342 0.52508 0.0
C405 C 0.5345 0.12367 0.54985 0.0
C406 C 0.54088 0.12512 0.62627 0.0
C407 C 0.53222 0.13718 0.67829 0.0
C408 C 0.51719 0.14785 0.65392 0.0
C409 C 0.51074 0.14643 0.57758 0.0
H410 H 0.53717 0.13828 0.73744 0.0
H411 H 0.47882 0.12501 0.99055 0.0
H412 H 0.31909 0.5187 0.23738 0.0
H413 H 0.34464 0.51607 0.32948 0.0
H414 H 0.38138 0.501 0.1425 0.0
H415 H 0.35571 0.50191 0.05177 0.0
H416 H 0.39181 0.48279 0.25637 0.0
H417 H 0.37735 0.54748 0.2317 0.0
H418 H 0.35755 0.57524 0.23651 0.0
H419 H 0.3473 0.566 0.47906 0.0
H420 H 0.36687 0.53805 0.47544 0.0
H421 H 0.47778 0.51114 0.42344 0.0
H422 H 0.4495 0.50932 0.34564 0.0
H423 H 0.41669 0.51031 0.55454 0.0
H424 H 0.44498 0.51192 0.63304 0.0
H425 H 0.40346 0.53459 0.43881 0.0
H426 H 0.42149 0.47085 0.46009 0.0
H427 H 0.44289 0.44442 0.4498 0.0
H428 H 0.44829 0.45371 0.20454 0.0
H429 H 0.42715 0.48041 0.21358 0.0
C430 C 0.33249 0.51441 0.2158 0.0
C431 C 0.33515 0.51084 0.13599 0.0
C432 C 0.34728 0.51324 0.26873 0.0
C433 C 0.36531 0.5089 0.24335 0.0
C434 C 0.3678 0.50459 0.16437 0.0
C435 C 0.353 0.50538 0.11186 0.0
C436 C 0.38166 0.50906 0.29784 0.0
C437 C 0.39436 0.49428 0.29545 0.0
C438 C 0.38513 0.52376 0.35073 0.0
C439 C 0.37339 0.54057 0.35307 0.0
C440 C 0.37077 0.55131 0.28592 0.0
C441 C 0.35961 0.56708 0.28846 0.0
C442 C 0.35113 0.57235 0.35799 0.0
C443 C 0.35385 0.56188 0.42521 0.0
C444 C 0.36498 0.54608 0.42297 0.0
C445 C 0.46457 0.51093 0.45308 0.0
C446 C 0.46375 0.51163 0.5348 0.0
C447 C 0.44837 0.50983 0.40835 0.0
C448 C 0.43087 0.50957 0.44396 0.0
C449 C 0.42997 0.51046 0.52549 0.0
C450 C 0.4462 0.51131 0.57039 0.0
C451 C 0.41358 0.50855 0.39593 0.0
C452 C 0.40076 0.52313 0.39974 0.0
C453 C 0.4102 0.49386 0.34328 0.0
C454 C 0.42286 0.47775 0.33768 0.0
C455 C 0.42736 0.46737 0.40408 0.0
C456 C 0.43943 0.45231 0.39845 0.0
C457 C 0.44699 0.44742 0.3266 0.0
C458 C 0.44245 0.45754 0.26018 0.0
C459 C 0.43042 0.47262 0.26553 0.0
H460 H 0.45632 0.43576 0.32237 0.0
H461 H 0.34249 0.58457 0.35984 0.0
H462 H 1.00937 0.31847 0.2486 0.0
H463 H 1.00998 0.3442 0.34022 0.0
H464 H 0.04244 0.37612 0.17857 0.0
H465 H 0.04361 0.3499 0.09086 0.0
H466 H 0.05354 0.38556 0.30707 0.0
H467 H 0.99159 0.38006 0.20987 0.0
H468 H 0.96193 0.36463 0.18182 0.0
H469 H 0.95341 0.35531 0.4255 0.0
H470 H 0.98314 0.37051 0.45491 0.0
H471 H 0.02375 0.47604 0.43538 0.0
H472 H 0.02681 0.44723 0.3609 0.0
H473 H 0.01622 0.41564 0.56817 0.0
H474 H 0.01365 0.44437 0.64354 0.0
H475 H 0.99431 0.40572 0.42515 0.0
H476 H 0.05693 0.41487 0.51569 0.0
H477 H 0.08544 0.43305 0.53379 0.0
H478 H 0.09106 0.43871 0.28668 0.0
H479 H 0.0624 0.42077 0.26712 0.0
C480 C 0.01704 0.33075 0.23297 0.0
C481 C 0.02613 0.33196 0.16065 0.0
C482 C 0.01707 0.34573 0.28523 0.0
C483 C 0.0257 0.3626 0.26595 0.0
C484 C 0.03543 0.36351 0.19537 0.0
C485 C 0.03583 0.34843 0.14418 0.0
C486 C 0.02445 0.37938 0.31783 0.0
C487 C 0.04048 0.38996 0.33194 0.0
C488 C 1.00755 0.38534 0.35196 0.0
C489 C 0.98968 0.37622 0.33449 0.0
C490 C 0.98344 0.37461 0.2574 0.0
C491 C 0.96661 0.36592 0.24128 0.0
C492 C 0.95582 0.35894 0.30182 0.0
C493 C 0.9618 0.36069 0.37865 0.0
C494 C 0.97864 0.36934 0.3951 0.0
C495 C 0.02214 0.46297 0.46525 0.0
C496 C 0.01849 0.46255 0.54558 0.0
C497 C 0.02392 0.4465 0.42257 0.0
C498 C 0.02174 0.42924 0.45885 0.0
C499 C 0.01795 0.42877 0.53886 0.0
C500 C 0.01658 0.44522 0.58194 0.0
C501 C 0.02326 0.41172 0.41302 0.0
C502 C 1.0073 0.40112 0.40019 0.0
C503 C 0.04007 0.40603 0.37837 0.0
C504 C 0.05742 0.41662 0.38999 0.0
C505 C 0.06415 0.42012 0.46522 0.0
C506 C 0.08036 0.43035 0.47574 0.0
C507 C 0.09003 0.43707 0.41143 0.0
C508 C 0.08354 0.43351 0.33644 0.0
C509 C 0.06733 0.42329 0.32561 0.0
H510 H 0.10256 0.445 0.41972 0.0
H511 H 0.94279 0.35222 0.28921 0.0
H512 H 0.82019 0.99568 0.13107 0.0
H513 H 0.84654 0.999 0.04246 0.0
H514 H 0.88375 1.00002 0.23801 0.0
H515 H 0.85753 0.99728 0.32661 0.0
H516 H 0.89492 0.02435 0.13336 0.0
H517 H 0.8764 0.96027 0.12498 0.0
H518 H 0.85458 0.93452 0.10475 0.0
H519 H 0.84623 0.95164 0.86859 0.0
H520 H 0.86784 0.97764 0.88774 0.0
H521 H 0.97991 1.00344 0.94674 0.0
H522 H 0.95219 1.00263 0.028 0.0
H523 H 0.91809 0.99944 0.82297 0.0
H524 H 0.94581 0.99981 0.7414 0.0
H525 H 0.90443 0.97727 0.92752 0.0
H526 H 0.92367 0.04043 0.93223 0.0
H527 H 0.94524 0.06646 0.95069 0.0
H528 H 0.95176 0.05189 0.19085 0.0
H529 H 0.93044 0.02558 0.17355 0.0
C530 C 0.83395 0.99693 0.15536 0.0
C531 C 0.83663 0.99603 0.23635 0.0
C532 C 0.84908 0.99861 0.10442 0.0
C533 C 0.86733 0.99941 0.13304 0.0
C534 C 0.86993 0.9993 0.21394 0.0
C535 C 0.85486 0.9976 0.26474 0.0
C536 C 0.88375 0.99993 0.07942 0.0
C537 C 0.89706 0.01392 0.08891 0.0
C538 C 0.8865 0.98667 0.0197 0.0
C539 C 0.87358 0.97101 0.00805 0.0
C540 C 0.86981 0.95862 0.06891 0.0
C541 C 0.85749 0.94397 0.05761 0.0
C542 C 0.84898 0.94148 0.9855 0.0
C543 C 0.85281 0.9536 0.92445 0.0
C544 C 0.86509 0.96829 0.93548 0.0
C545 C 0.96653 1.00252 0.91875 0.0
C546 C 0.9652 1.00178 0.83716 0.0
C547 C 0.9506 1.00217 0.96548 0.0
C548 C 0.93284 1.00133 0.93208 0.0
C549 C 0.93152 1.00017 0.85066 0.0
C550 C 0.94745 1.0004 0.80388 0.0
C551 C 0.91572 1.00161 0.98186 0.0
C552 C 0.90228 0.98776 0.97167 0.0
C553 C 0.91281 0.01507 0.04069 0.0
C554 C 0.92559 0.03092 0.05139 0.0
C555 C 0.92981 0.04269 0.98885 0.0
C556 C 0.94198 0.0575 0.99911 0.0
C557 C 0.9499 0.0608 0.07184 0.0
C558 C 0.94563 0.0493 0.13451 0.0
C559 C 0.9335 0.03445 0.12452 0.0
H560 H 0.95931 0.07228 0.07968 0.0
H561 H 0.83945 0.93012 0.97686 0.0
H562 H 0.51556 0.85769 0.3008 0.0
H563 H 0.51258 0.88479 0.21619 0.0
H564 H 0.53335 0.85297 0.02317 0.0
H565 H 0.53611 0.8257 0.10753 0.0
H566 H 0.55077 0.8881 0.03951 0.0
H567 H 0.48967 0.86262 0.02452 0.0
H568 H 0.46025 0.85059 0.07617 0.0
H569 H 0.44977 0.90258 0.1886 0.0
H570 H 0.47928 0.91484 0.1385 0.0
H571 H 0.49557 0.95411 0.76391 0.0
H572 H 0.49795 0.92662 0.84513 0.0
H573 H 0.53959 0.9534 0.98465 0.0
H574 H 0.53748 0.98102 0.90241 0.0
H575 H 0.49109 0.91999 0.99208 0.0
H576 H 0.56904 0.92071 0.05887 0.0
H577 H 0.59815 0.93197 1.00108 0.0
H578 H 0.57449 0.92766 0.77301 0.0
H579 H 0.54532 0.91618 0.8294 0.0
C580 C 0.51934 0.85641 0.24015 0.0
C581 C 0.52601 0.83947 0.21095 0.0
C582 C 0.51763 0.87194 0.19178 0.0
C583 C 0.52278 0.87102 0.11312 0.0
C584 C 0.52933 0.85409 0.0836 0.0
C585 C 0.53074 0.83845 0.13172 0.0
C586 C 0.52151 0.88778 0.06223 0.0
C587 C 0.53772 0.89508 0.02926 0.0
C588 C 0.50451 0.89691 0.04809 0.0
C589 C 0.48678 0.88958 0.07845 0.0
C590 C 0.48118 0.87143 0.06087 0.0
C591 C 0.46447 0.86458 0.08974 0.0
C592 C 0.45317 0.87579 0.13583 0.0
C593 C 0.45855 0.8939 0.153 0.0
C594 C 0.47526 0.90081 0.12434 0.0
C595 C 0.5053 0.95423 0.81172 0.0
C596 C 0.5164 0.96988 0.82607 0.0
C597 C 0.50659 0.93843 0.85852 0.0
C598 C 0.51906 0.9377 0.92104 0.0
C599 C 0.53005 0.95338 0.9362 0.0
C600 C 0.52878 0.96925 0.88918 0.0
C601 C 0.5204 0.92051 0.96978 0.0
C602 C 0.50419 0.91311 0.00253 0.0
C603 C 0.53739 0.91122 0.9832 0.0
C604 C 0.55496 0.91775 0.94846 0.0
C605 C 0.57009 0.92209 0.99637 0.0
C606 C 0.58659 0.92853 0.96387 0.0
C607 C 0.58815 0.93058 0.88344 0.0
C608 C 0.57324 0.92613 0.83531 0.0
C609 C 0.55672 0.91967 0.86752 0.0
H610 H 0.60092 0.93559 0.8584 0.0
H611 H 0.44024 0.87047 0.15807 0.0
H612 H 0.70255 0.52409 0.12211 0.0
H613 H 0.67648 0.51978 0.03364 0.0
H614 H 0.6385 0.53016 0.22184 0.0
H615 H 0.66428 0.53286 0.31142 0.0
H616 H 0.62353 0.50614 0.14006 0.0
H617 H 0.65204 0.56379 0.07076 0.0
H618 H 0.67739 0.58443 0.0301 0.0
H619 H 0.68405 0.55323 0.81955 0.0
H620 H 0.65888 0.53227 0.85943 0.0
H621 H 0.54502 0.53337 0.91065 0.0
H622 H 0.57223 0.53434 0.99583 0.0
H623 H 0.60513 0.50898 0.81624 0.0
H624 H 0.57797 0.50764 0.73139 0.0
H625 H 0.62277 0.5397 0.88911 0.0
H626 H 0.59188 0.48334 0.96057 0.0
H627 H 0.56545 0.46444 0.00358 0.0
H628 H 0.56206 0.49585 0.21491 0.0
H629 H 0.58828 0.51517 0.17252 0.0
C630 C 0.68867 0.5251 0.1453 0.0
C631 C 0.68579 0.52917 0.22455 0.0
C632 C 0.67365 0.52294 0.09396 0.0
C633 C 0.65527 0.52518 0.11977 0.0
C634 C 0.65239 0.52853 0.19933 0.0
C635 C 0.66732 0.53034 0.25078 0.0
C636 C 0.63902 0.52423 0.06478 0.0
C637 C 0.62339 0.51373 0.08576 0.0
C638 C 0.63861 0.53376 0.99262 0.0
C639 C 0.65372 0.54635 0.96848 0.0
C640 C 0.659 0.56126 0.01604 0.0
C641 C 0.67332 0.57303 0.9931 0.0
C642 C 0.68236 0.57011 0.9224 0.0
C643 C 0.67706 0.55545 0.87437 0.0
C644 C 0.66276 0.54363 0.89708 0.0
C645 C 0.55804 0.52804 0.8891 0.0
C646 C 0.55921 0.52038 0.81396 0.0
C647 C 0.57361 0.52855 0.93808 0.0
C648 C 0.59081 0.52166 0.91285 0.0
C649 C 0.59208 0.51439 0.8373 0.0
C650 C 0.57647 0.51358 0.78883 0.0
C651 C 0.6074 0.52188 0.96527 0.0
C652 C 0.62303 0.53218 0.94359 0.0
C653 C 0.60769 0.51246 0.03736 0.0
C654 C 0.59193 0.50084 0.06296 0.0
C655 C 0.58539 0.48634 0.01587 0.0
C656 C 0.57046 0.47553 0.04019 0.0
C657 C 0.56205 0.47898 0.11183 0.0
C658 C 0.56857 0.49322 0.15936 0.0
C659 C 0.58347 0.50411 0.13522 0.0
H660 H 0.5505 0.47058 0.13059 0.0
H661 H 0.69344 0.57923 0.90474 0.0
H662 H 1.007 0.66628 0.30875 0.0
H663 H 1.00832 0.64 0.22129 0.0
H664 H 0.99771 0.67594 0.02654 0.0
H665 H 0.99475 0.70224 0.11514 0.0
H666 H 0.97893 0.64718 0.00347 0.0
H667 H 0.04222 0.65447 0.0703 0.0
H668 H 0.06955 0.65814 0.1545 0.0
H669 H 0.05871 0.60542 0.25943 0.0
H670 H 0.03116 0.60153 0.17655 0.0
H671 H 1.01089 0.57837 0.72692 0.0
H672 H 1.00954 0.60565 0.81136 0.0
H673 H 0.9959 0.57096 0.00634 0.0
H674 H 0.99668 0.54356 0.92153 0.0
H675 H 0.02758 0.59908 0.02441 0.0
H676 H 0.9632 0.59341 0.94998 0.0
H677 H 0.93788 0.5906 0.85483 0.0
H678 H 0.95396 0.64205 0.75065 0.0
H679 H 0.97957 0.64503 0.84453 0.0
C680 C 1.00475 0.66873 0.24747 0.0
C681 C 1.00054 0.68661 0.21991 0.0
C682 C 1.00585 0.65357 0.19686 0.0
C683 C 1.00341 0.65577 0.11634 0.0
C684 C 0.99968 0.67368 0.08817 0.0
C685 C 0.99824 0.68886 0.13911 0.0
C686 C 1.00402 0.6393 0.06257 0.0
C687 C 0.98978 0.63688 0.00768 0.0
C688 C 0.01799 0.6255 0.0675 0.0
C689 C 0.03452 0.62779 0.11769 0.0
C690 C 0.04558 0.64372 0.11175 0.0
C691 C 0.06113 0.64583 0.15917 0.0
C692 C 0.06584 0.63204 0.21241 0.0
C693 C 0.05503 0.6161 0.21823 0.0
C694 C 0.03946 0.61393 0.17098 0.0
C695 C 1.00747 0.57651 0.78766 0.0
C696 C 1.00386 0.55873 0.8173 0.0
C697 C 1.0067 0.59216 0.83588 0.0
C698 C 1.00266 0.5904 0.91531 0.0
C699 C 0.99907 0.57267 0.94527 0.0
C700 C 0.99942 0.55703 0.89662 0.0
C701 C 1.00246 0.60706 0.96689 0.0
C702 C 0.0168 0.60949 0.02082 0.0
C703 C 0.98888 0.62105 0.95984 0.0
C704 C 0.97342 0.61934 0.90374 0.0
C705 C 0.96145 0.60404 0.90631 0.0
C706 C 0.94702 0.60243 0.85272 0.0
C707 C 0.94435 0.61611 0.79658 0.0
C708 C 0.95607 0.63145 0.79409 0.0
C709 C 0.97053 0.63311 0.84752 0.0
H710 H 0.93316 0.61485 0.75513 0.0
H711 H 0.07789 0.6337 0.24905 0.0
H712 H 0.96392 0.227 0.18209 0.0
H713 H 0.95334 0.20995 0.29505 0.0
H714 H 0.99756 0.23349 0.43147 0.0
H715 H 1.00844 0.25034 0.31696 0.0
H716 H 1.0024 0.1983 0.41208 0.0
H717 H 0.95216 0.23306 0.50303 0.0
H718 H 0.92415 0.25243 0.49837 0.0
H719 H 0.89397 0.20792 0.3928 0.0
H720 H 0.92184 0.18834 0.39559 0.0
H721 H 0.98713 0.11296 0.59829 0.0
H722 H 0.98627 0.14671 0.59183 0.0
H723 H 0.95018 0.14362 0.39277 0.0
H724 H 0.95136 0.10987 0.39757 0.0
H725 H 0.94165 0.17352 0.49522 0.0
H726 H 0.99377 0.14589 0.35883 0.0
H727 H 0.02216 0.12727 0.34543 0.0
H728 H 0.04839 0.15959 0.52347 0.0
H729 H 0.01999 0.17821 0.53875 0.0
C730 C 0.97083 0.22921 0.23719 0.0
C731 C 0.98721 0.23956 0.24082 0.0
C732 C 0.96466 0.2196 0.30222 0.0
C733 C 0.97477 0.22026 0.37181 0.0
C734 C 0.98958 0.23275 0.3783 0.0
C735 C 0.99579 0.24237 0.31294 0.0
C736 C 0.97335 0.20436 0.42569 0.0
C737 C 0.9892 0.1933 0.43341 0.0
C738 C 0.95609 0.19753 0.4516 0.0
C739 C 0.93917 0.2092 0.44962 0.0
C740 C 0.93959 0.22741 0.47838 0.0
C741 C 0.92372 0.23844 0.47612 0.0
C742 C 0.90729 0.23141 0.44535 0.0
C743 C 0.9067 0.21333 0.41679 0.0
C744 C 0.92253 0.20224 0.4189 0.0
C745 C 0.97895 0.11948 0.55335 0.0
C746 C 0.96963 0.10878 0.49737 0.0
C747 C 0.97828 0.13874 0.55044 0.0
C748 C 0.9682 0.14759 0.49176 0.0
C749 C 0.95789 0.13699 0.43897 0.0
C750 C 0.95863 0.11772 0.44158 0.0
C751 C 0.9705 0.16759 0.47776 0.0
C752 C 0.95489 0.17912 0.47746 0.0
C753 C 0.98793 0.17491 0.45738 0.0
C754 C 1.0047 0.16323 0.45079 0.0
C755 C 1.00551 0.14885 0.39588 0.0
C756 C 0.02161 0.13834 0.38775 0.0
C757 C 0.03706 0.14224 0.4336 0.0
C758 C 0.03641 0.15658 0.48801 0.0
C759 C 0.0203 0.16708 0.4966 0.0
H760 H 0.04956 0.13415 0.42688 0.0
H761 H 0.89502 0.23997 0.44363 0.0
H762 H 0.2756 1.0077 0.31914 0.0
H763 H 0.2953 0.99909 0.42903 0.0
H764 H 0.31168 0.94943 0.30803 0.0
H765 H 0.29175 0.95782 0.1995 0.0
H766 H 0.31674 0.94588 0.46623 0.0
H767 H 0.33317 0.98941 0.2562 0.0
H768 H 0.32795 0.01761 0.17824 0.0
H769 H 0.32734 0.05041 0.38629 0.0
H770 H 0.33267 0.02241 0.46528 0.0
H771 H 0.41422 0.93783 0.44157 0.0
H772 H 0.38042 0.93971 0.43231 0.0
H773 H 0.38106 0.98978 0.56894 0.0
H774 H 0.41471 0.988 0.57723 0.0
H775 H 0.36412 0.99501 0.43765 0.0
H776 H 0.35672 0.95067 0.64194 0.0
H777 H 0.36342 0.92186 0.71332 0.0
H778 H 0.34768 0.88987 0.51369 0.0
H779 H 0.34113 0.91854 0.44098 0.0
C780 C 0.28251 0.99441 0.3184 0.0
C781 C 0.28252 0.98353 0.25092 0.0
C782 C 0.29384 0.98954 0.38089 0.0
C783 C 0.30536 0.97393 0.37534 0.0
C784 C 0.30301 0.9616 0.31324 0.0
C785 C 0.29164 0.9664 0.25116 0.0
C786 C 0.32272 0.97292 0.42048 0.0
C787 C 0.32707 0.95668 0.46102 0.0
C788 C 0.33616 0.98705 0.41386 0.0
C789 C 0.33309 1.00386 0.36654 0.0
C790 C 0.33186 1.00265 0.28519 0.0
C791 C 0.32889 0.01857 0.24087 0.0
C792 C 0.32717 0.03575 0.27737 0.0
C793 C 0.3286 0.03708 0.35816 0.0
C794 C 0.33164 0.02121 0.4027 0.0
C795 C 0.40704 0.94898 0.47085 0.0
C796 C 0.41697 0.9627 0.51057 0.0
C797 C 0.38775 0.94995 0.46641 0.0
C798 C 0.37816 0.96473 0.50114 0.0
C799 C 0.38812 0.97814 0.54257 0.0
C800 C 0.40732 0.97709 0.54746 0.0
C801 C 0.35837 0.96786 0.4833 0.0
C802 C 0.35364 0.98448 0.44644 0.0
C803 C 0.34476 0.954 0.49288 0.0
C804 C 0.34867 0.93673 0.53593 0.0
C805 C 0.35488 0.93748 0.61315 0.0
C806 C 0.35859 0.92119 0.65389 0.0
C807 C 0.35603 0.90404 0.61798 0.0
C808 C 0.34969 0.90316 0.54138 0.0
C809 C 0.34595 0.91943 0.50045 0.0
H810 H 0.35892 0.89144 0.64957 0.0
H811 H 0.32478 0.04805 0.24306 0.0
H812 H 0.56302 0.30428 0.19938 0.0
H813 H 0.57352 0.32075 0.31432 0.0
H814 H 0.52741 0.29895 0.4446 0.0
H815 H 0.51669 0.28258 0.3279 0.0
H816 H 0.52612 0.33445 0.44549 0.0
H817 H 0.57281 0.29356 0.51519 0.0
H818 H 0.59836 0.27124 0.50138 0.0
H819 H 0.63282 0.31356 0.40367 0.0
H820 H 0.60741 0.33609 0.41566 0.0
H821 H 0.54891 0.41682 0.62582 0.0
H822 H 0.54953 0.38313 0.6289 0.0
H823 H 0.58376 0.38248 0.42393 0.0
H824 H 0.58301 0.41627 0.4199 0.0
H825 H 0.59007 0.35158 0.52086 0.0
H826 H 0.53715 0.38621 0.40754 0.0
H827 H 0.51192 0.40889 0.4236 0.0
H828 H 0.48935 0.37672 0.61045 0.0
H829 H 0.5144 0.35383 0.5948 0.0
C830 C 0.55555 0.30245 0.25339 0.0
C831 C 0.53898 0.29239 0.25493 0.0
C832 C 0.56164 0.31173 0.31952 0.0
C833 C 0.5513 0.3111 0.38859 0.0
C834 C 0.53565 0.29959 0.39212 0.0
C835 C 0.52956 0.29021 0.32564 0.0
C836 C 0.5546 0.32552 0.44853 0.0
C837 C 0.54002 0.33776 0.46466 0.0
C838 C 0.57268 0.32997 0.47397 0.0
C839 C 0.58815 0.31655 0.46642 0.0
C840 C 0.5858 0.2981 0.49032 0.0
C841 C 0.60027 0.28541 0.48287 0.0
C842 C 0.6172 0.29098 0.4517 0.0
C843 C 0.6197 0.30927 0.42797 0.0
C844 C 0.60528 0.32203 0.4353 0.0
C845 C 0.55709 0.40949 0.58296 0.0
C846 C 0.56557 0.41905 0.52146 0.0
C847 C 0.55762 0.39024 0.58546 0.0
C848 C 0.56651 0.38029 0.52635 0.0
C849 C 0.57682 0.3899 0.47024 0.0
C850 C 0.57635 0.40921 0.46774 0.0
C851 C 0.56185 0.36066 0.5121 0.0
C852 C 0.57612 0.34765 0.50483 0.0
C853 C 0.54345 0.35535 0.49517 0.0
C854 C 0.52778 0.3685 0.50102 0.0
C855 C 0.52677 0.38398 0.45192 0.0
C856 C 0.51251 0.39686 0.46085 0.0
C857 C 0.49907 0.39428 0.51816 0.0
C858 C 0.49978 0.37873 0.56616 0.0
C859 C 0.514 0.36579 0.55727 0.0
H860 H 0.4881 0.40433 0.52532 0.0
H861 H 0.62839 0.28113 0.44594 0.0
H862 H 0.22826 0.55263 0.22303 0.0
H863 H 0.21015 0.55463 0.34163 0.0
H864 H 0.22804 0.49977 0.40623 0.0
H865 H 0.24622 0.49783 0.28618 0.0
H866 H 0.19285 0.50029 0.37718 0.0
H867 H 0.22941 0.53504 0.54446 0.0
H868 H 0.25148 0.55867 0.58936 0.0
H869 H 0.21338 0.6016 0.52573 0.0
H870 H 0.19118 0.5783 0.47922 0.0
H871 H 0.10276 0.51367 0.5223 0.0
H872 H 0.13598 0.50877 0.53659 0.0
H873 H 0.1464 0.55976 0.41429 0.0
H874 H 0.11307 0.56516 0.40315 0.0
H875 H 0.17163 0.55398 0.53277 0.0
H876 H 0.14483 0.5186 0.31419 0.0
H877 H 0.12325 0.49554 0.25979 0.0
H878 H 0.14426 0.45452 0.4169 0.0
H879 H 0.16592 0.47741 0.47235 0.0
C880 C 0.22903 0.54141 0.26459 0.0
C881 C 0.23831 0.52501 0.24579 0.0
C882 C 0.21883 0.54259 0.33292 0.0
C883 C 0.21763 0.52728 0.38292 0.0
C884 C 0.22881 0.51174 0.36862 0.0
C885 C 0.23914 0.51061 0.30015 0.0
C886 C 0.20108 0.52574 0.43306 0.0
C887 C 0.1885 0.51165 0.41417 0.0
C888 C 0.19528 0.54058 0.48079 0.0
C889 C 0.20856 0.55483 0.50841 0.0
C890 C 0.22575 0.54952 0.53957 0.0
C891 C 0.23829 0.56287 0.56539 0.0
C892 C 0.23383 0.58163 0.56047 0.0
C893 C 0.2168 0.58706 0.52971 0.0
C894 C 0.2042 0.57377 0.5038 0.0
C895 C 0.11214 0.52396 0.49942 0.0
C896 C 0.10539 0.53971 0.46095 0.0
C897 C 0.13109 0.52116 0.50783 0.0
C898 C 0.14361 0.53381 0.47594 0.0
C899 C 0.13692 0.54988 0.43976 0.0
C900 C 0.11793 0.5529 0.43292 0.0
C901 C 0.1635 0.52938 0.47128 0.0
C902 C 0.17643 0.54222 0.49925 0.0
C903 C 0.16972 0.51348 0.4313 0.0
C904 C 0.1568 0.49972 0.39791 0.0
C905 C 0.14476 0.50468 0.33729 0.0
C906 C 0.13255 0.49165 0.30624 0.0
C907 C 0.13234 0.47359 0.33505 0.0
C908 C 0.14441 0.46851 0.39476 0.0
C909 C 0.15667 0.4815 0.42596 0.0
H910 H 0.12287 0.46352 0.31097 0.0
H911 H 0.24356 0.59195 0.58047 0.0
H912 H 0.97236 0.80307 0.11985 0.0
H913 H 0.97675 0.82013 1.0006 0.0
H914 H 0.02189 0.78391 0.93754 0.0
H915 H 0.01798 0.7673 0.06048 0.0
H916 H 0.03448 0.81576 0.94838 0.0
H917 H 0.98412 0.79415 0.81168 0.0
H918 H 0.95297 0.78292 0.77927 0.0
H919 H 0.93018 0.83627 0.83215 0.0
H920 H 0.96109 0.84781 0.86644 0.0
H921 H 0.04976 0.90665 0.79686 0.0
H922 H 0.04253 0.87381 0.77835 0.0
H923 H 0.99792 0.87848 0.94346 0.0
H924 H 1.00544 0.91084 0.96473 0.0
H925 H 0.98972 0.85558 0.80872 0.0
H926 H 0.03806 0.86664 0.00892 0.0
H927 H 0.0689 0.87808 0.04678 0.0
H928 H 0.09409 0.84331 0.87422 0.0
H929 H 0.06336 0.8318 0.83503 0.0
C930 C 0.98275 0.79831 0.07908 0.0
C931 C 0.99516 0.78427 0.09988 0.0
C932 C 0.98513 0.80793 0.00998 0.0
C933 C 0.9998 0.80347 0.95973 0.0
C934 C 1.01058 0.78771 0.97558 0.0
C935 C 1.00831 0.77818 0.04562 0.0
C936 C 1.00648 0.81787 0.90517 0.0
C937 C 0.02479 0.82399 0.91502 0.0
C938 C 0.994 0.82875 0.86113 0.0
C939 C 0.97513 0.82193 0.84119 0.0
C940 C 0.97249 0.80351 0.81701 0.0
C941 C 0.95484 0.79708 0.79816 0.0
C942 C 0.93961 0.80889 0.80344 0.0
C943 C 0.94201 0.82716 0.82769 0.0
C944 C 0.95964 0.83368 0.84654 0.0
C945 C 0.03847 0.90063 0.8295 0.0
C946 C 0.02831 0.91132 0.88305 0.0
C947 C 0.03417 0.88199 0.81767 0.0
C948 C 0.01957 0.87386 0.85886 0.0
C949 C 1.00902 0.88464 0.91001 0.0
C950 C 0.01342 0.90312 0.92249 0.0
C951 C 0.01677 0.85367 0.85942 0.0
C952 C 0.99939 0.84665 0.83881 0.0
C953 C 0.02997 0.8419 0.89398 0.0
C954 C 0.04843 0.84863 0.91809 0.0
C955 C 0.05018 0.86156 0.97868 0.0
C956 C 0.06763 0.86803 1.00047 0.0
C957 C 0.08344 0.8615 0.96265 0.0
C958 C 0.08182 0.84842 0.90321 0.0
C959 C 0.06439 0.84193 0.88113 0.0
H960 H 0.09695 0.86652 0.97959 0.0
H961 H 0.92595 0.80388 0.78885 0.0
H962 H 0.74112 0.98827 0.11388 0.0
H963 H 0.71746 0.99016 0.01277 0.0
H964 H 0.71085 0.04839 0.06038 0.0
H965 H 0.73437 0.04643 0.16102 0.0
H966 H 0.68594 0.99767 0.08612 0.0
H967 H 0.68499 0.06951 0.92656 0.0
H968 H 0.70548 0.08785 0.84231 0.0
H969 H 0.73502 0.0387 0.7774 0.0
H970 H 0.71454 0.01997 0.86029 0.0
H971 H 0.60724 0.06809 0.01472 0.0
H972 H 0.63989 0.05924 0.01868 0.0
H973 H 0.62484 1.00246 0.97393 0.0
H974 H 0.59233 1.01109 0.97244 0.0
H975 H 0.66105 0.04527 0.90755 0.0
H976 H 0.65466 0.97405 0.04517 0.0
H977 H 0.63406 0.95703 0.13443 0.0
H978 H 0.62139 1.00751 0.25481 0.0
H979 H 0.64183 0.0248 0.16598 0.0
C980 C 0.73545 1.00167 0.099 0.0
C981 C 0.7392 0.01717 0.14544 0.0
C982 C 0.72193 1.00274 0.04132 0.0
C983 C 0.71218 0.01932 0.02999 0.0
C984 C 0.71823 0.03546 0.06765 0.0
C985 C 0.73163 0.03436 0.12553 0.0
C986 C 0.69285 0.01876 0.0023 0.0
C987 C 0.68056 1.00771 0.04513 0.0
C988 C 0.6858 0.03208 0.95008 0.0
C989 C 0.69822 0.04331 0.90007 0.0
C990 C 0.69577 0.06256 0.89399 0.0
C991 C 0.70741 0.07304 0.84652 0.0
C992 C 0.72156 0.06445 0.80461 0.0
C993 C 0.72409 0.04535 0.81008 0.0
C994 C 0.71249 0.03479 0.85747 0.0
C995 C 0.61093 0.05368 0.00737 0.0
C996 C 0.59729 0.04028 0.99373 0.0
C997 C 0.62954 0.04867 0.00886 0.0
C998 C 0.63477 0.03021 0.99631 0.0
C999 C 0.62111 0.01672 0.98505 0.0
C1000 C 0.60252 0.02167 0.98486 0.0
C1001 C 0.65454 0.02514 0.99546 0.0
C1002 C 0.66663 0.03499 0.94694 0.0
C1003 C 0.66155 1.01101 0.04374 0.0
C1004 C 0.64961 1.00069 0.09858 0.0
C1005 C 0.64747 0.98148 0.09074 0.0
C1006 C 0.63576 0.97182 0.14095 0.0
C1007 C 0.62632 0.98121 0.1999 0.0
C1008 C 0.62858 1.00028 0.20876 0.0
C1009 C 0.64019 1.01002 0.15838 0.0
H1010 H 0.61737 0.97368 0.23906 0.0
H1011 H 0.73055 0.0726 0.76787 0.0
H1012 H 0.48212 0.73421 0.11552 0.0
H1013 H 0.47939 0.71556 0.99857 0.0
H1014 H 0.53398 0.73266 0.92734 0.0
H1015 H 0.5369 0.75107 0.04646 0.0
H1016 H 0.48358 0.71052 0.84349 0.0
H1017 H 0.55813 0.6956 0.90387 0.0
H1018 H 0.58255 0.70209 1.00063 0.0
H1019 H 0.54207 0.70157 0.18325 0.0
H1020 H 0.51752 0.69495 0.08753 0.0
H1021 H 0.51625 0.606 0.8232 0.0
H1022 H 0.523 0.63892 0.80796 0.0
H1023 H 0.47265 0.65245 0.93008 0.0
H1024 H 0.46583 0.61957 0.94558 0.0
H1025 H 0.52843 0.66261 0.92751 0.0
H1026 H 0.45507 0.69387 0.85817 0.0
H1027 H 0.4273 0.68398 0.78705 0.0
H1028 H 0.45995 0.64672 0.64974 0.0
H1029 H 0.48818 0.65731 0.71567 0.0
C1030 C 0.49318 0.73464 0.07311 0.0
C1031 C 0.50991 0.74351 0.09051 0.0
C1032 C 0.49157 0.72412 0.00577 0.0
C1033 C 0.50673 0.72226 0.95548 0.0
C1034 C 0.52225 0.7337 0.96619 0.0
C1035 C 0.52392 0.74419 0.03418 0.0
C1036 C 0.5081 0.70491 0.91009 0.0
C1037 C 0.49352 0.70003 0.86022 0.0
C1038 C 0.52136 0.69136 0.93093 0.0
C1039 C 0.53606 0.69499 0.98868 0.0
C1040 C 0.55451 0.69684 0.96471 0.0
C1041 C 0.56834 0.70055 0.01932 0.0
C1042 C 0.56385 0.7023 0.09799 0.0
C1043 C 0.54553 0.70025 0.12232 0.0
C1044 C 0.53167 0.6965 0.06798 0.0
C1045 C 0.50665 0.61602 0.84701 0.0
C1046 C 0.49061 0.61027 0.88647 0.0
C1047 C 0.51044 0.63477 0.8375 0.0
C1048 C 0.49821 0.64806 0.86692 0.0
C1049 C 0.48206 0.64237 0.90535 0.0
C1050 C 0.47823 0.62362 0.91466 0.0
C1051 C 0.50312 0.66787 0.86547 0.0
C1052 C 0.51899 0.67314 0.90635 0.0
C1053 C 0.49065 0.6815 0.83829 0.0
C1054 C 0.47388 0.67635 0.79272 0.0
C1055 C 0.45649 0.68389 0.81158 0.0
C1056 C 0.44062 0.67817 0.77197 0.0
C1057 C 0.44186 0.66473 0.71392 0.0
C1058 C 0.45901 0.65716 0.69461 0.0
C1059 C 0.47499 0.66314 0.73271 0.0
H1060 H 0.42953 0.6602 0.68378 0.0
H1061 H 0.57457 0.70521 0.14011 0.0
H1062 H 0.7806 0.54045 0.11034 0.0
H1063 H 0.80411 0.54137 0.00832 0.0
H1064 H 0.81375 0.48293 0.03884 0.0
H1065 H 0.79044 0.4821 0.14065 0.0
H1066 H 0.83645 0.53463 0.07497 0.0
H1067 H 0.83921 0.46487 0.89612 0.0
H1068 H 0.81927 0.44754 0.80589 0.0
H1069 H 0.78811 0.49677 0.75819 0.0
H1070 H 0.80804 0.51453 0.8471 0.0
H1071 H 0.91463 0.46531 0.01123 0.0
H1072 H 0.88217 0.47476 0.00917 0.0
H1073 H 0.89849 0.53078 0.95723 0.0
H1074 H 0.93089 0.52149 0.95922 0.0
H1075 H 0.86237 0.48946 0.88753 0.0
H1076 H 0.86723 0.55941 0.03572 0.0
H1077 H 0.88751 0.57627 0.12695 0.0
H1078 H 0.90147 0.52528 0.24029 0.0
H1079 H 0.88127 0.50817 0.14981 0.0
C1080 C 0.78695 0.52762 0.09163 0.0
C1081 C 0.78406 0.51125 0.13351 0.0
C1082 C 0.80038 0.52816 0.03342 0.0
C1083 C 0.81087 0.5123 0.01677 0.0
C1084 C 0.80578 0.49533 0.05016 0.0
C1085 C 0.7925 0.49483 0.10871 0.0
C1086 C 0.82998 0.51419 0.98742 0.0
C1087 C 0.84202 0.52519 0.0319 0.0
C1088 C 0.83731 0.50178 0.93189 0.0
C1089 C 0.82514 0.49106 0.87876 0.0
C1090 C 0.82819 0.47207 0.86612 0.0
C1091 C 0.81686 0.46215 0.81521 0.0
C1092 C 0.80242 0.47104 0.77641 0.0
C1093 C 0.79927 0.48988 0.78847 0.0
C1094 C 0.81056 0.49988 0.83929 0.0
C1095 C 0.91129 0.47967 1.00041 0.0
C1096 C 0.92528 0.49264 0.9856 0.0
C1097 C 0.89279 0.48502 0.9986 0.0
C1098 C 0.88801 0.5034 0.98225 0.0
C1099 C 0.90194 0.51654 0.97032 0.0
C1100 C 0.92045 0.51124 0.97249 0.0
C1101 C 0.86836 0.50874 0.97942 0.0
C1102 C 0.85654 0.49925 0.92854 0.0
C1103 C 0.86112 0.52236 0.02963 0.0
C1104 C 0.87293 0.53254 0.0855 0.0
C1105 C 0.87464 0.55183 0.08015 0.0
C1106 C 0.88616 0.56141 0.13151 0.0
C1107 C 0.89589 0.55183 0.18895 0.0
C1108 C 0.89407 0.53266 0.19532 0.0
C1109 C 0.88262 0.52302 0.14394 0.0
H1110 H 0.90472 0.55928 0.22892 0.0
H1111 H 0.79367 0.46333 0.73698 0.0
H1112 H 0.98499 0.20992 0.98584 0.0
H1113 H 0.98834 0.17904 0.93001 0.0
H1114 H 0.04762 0.18361 0.94675 0.0
H1115 H 0.04425 0.21481 0.00331 0.0
H1116 H 0.03591 0.1644 0.81041 0.0
H1117 H 0.02628 0.16113 0.08407 0.0
H1118 H 1.01117 0.16807 0.2092 0.0
H1119 H 0.96067 0.14388 0.12648 0.0
H1120 H 0.97541 0.13702 1.0004 0.0
H1121 H 0.04728 0.06435 0.80102 0.0
H1122 H 0.04855 0.09666 0.84575 0.0
H1123 H 0.98971 0.10166 0.81305 0.0
H1124 H 0.98838 0.06972 0.76661 0.0
H1125 H 1.0039 0.11566 0.96227 0.0
H1126 H 0.01362 0.12083 0.68594 0.0
H1127 H 0.02947 0.11235 0.56421 0.0
H1128 H 0.0809 0.13221 0.65687 0.0
H1129 H 0.06536 0.14048 0.77982 0.0
C1130 C 0.99878 0.20456 0.9758 0.0
C1131 C 0.01435 0.21485 0.99902 0.0
C1132 C 1.00068 0.18681 0.94435 0.0
C1133 C 0.01822 0.17874 0.93541 0.0
C1134 C 0.03392 0.18946 0.95329 0.0
C1135 C 0.03201 0.20735 0.98512 0.0
C1136 C 0.01977 0.15874 0.91284 0.0
C1137 C 0.02916 0.15374 0.8444 0.0
C1138 C 1.01085 0.14468 0.95647 0.0
C1139 C 1.00191 0.14871 0.0324 0.0
C1140 C 1.01191 0.15742 0.09228 0.0
C1141 C 1.00342 0.16132 0.16344 0.0
C1142 C 0.98496 0.15647 0.17568 0.0
C1143 C 0.97497 0.14765 0.11687 0.0
C1144 C 0.98339 0.14374 0.04556 0.0
C1145 C 0.03461 0.07232 0.80346 0.0
C1146 C 0.01774 0.06435 0.78007 0.0
C1147 C 0.03536 0.09082 0.82893 0.0
C1148 C 0.01921 0.10166 0.833 0.0
C1149 C 1.00235 0.09363 0.81079 0.0
C1150 C 1.00164 0.07533 0.78388 0.0
C1151 C 0.0198 0.1214 0.85953 0.0
C1152 C 1.01077 0.12633 0.92875 0.0
C1153 C 0.02916 0.13531 0.81704 0.0
C1154 C 0.03839 0.13103 0.74235 0.0
C1155 C 0.02834 0.12325 0.68051 0.0
C1156 C 0.03726 0.11846 0.61138 0.0
C1157 C 0.05622 0.12159 0.60308 0.0
C1158 C 0.06624 0.1297 0.66359 0.0
C1159 C 0.05738 0.13445 0.73301 0.0
H1160 H 0.06314 0.11784 0.54958 0.0
H1161 H 0.9784 0.15952 0.23077 0.0
H1162 H 0.31682 0.97777 0.02497 0.0
H1163 H 0.34666 0.98178 0.96419 0.0
H1164 H 0.33064 0.03641 0.88894 0.0
H1165 H 0.3011 0.03309 0.95808 0.0
H1166 H 0.36175 0.98452 0.84287 0.0
H1167 H 0.36704 0.0646 0.86386 0.0
H1168 H 0.35589 0.09002 0.94753 0.0
H1169 H 0.34974 0.05221 0.13788 0.0
H1170 H 0.36093 0.02663 0.05557 0.0
H1171 H 0.44328 1.00902 0.64195 0.0
H1172 H 0.41121 1.00796 0.68772 0.0
H1173 H 0.42869 0.02641 0.91406 0.0
H1174 H 0.46068 0.02788 0.86864 0.0
H1175 H 0.39727 0.04237 0.88212 0.0
H1176 H 0.41955 0.98205 0.88033 0.0
H1177 H 0.43469 0.9538 0.83191 0.0
H1178 H 0.39161 0.94658 0.66364 0.0
H1179 H 0.37622 0.97506 0.71023 0.0
C1180 C 0.31961 0.9908 0.9963 0.0
C1181 C 0.3066 1.00534 0.99907 0.0
C1182 C 0.33678 0.993 0.96022 0.0
C1183 C 0.34149 1.00961 0.92295 0.0
C1184 C 0.32787 0.02364 0.91951 0.0
C1185 C 0.31074 0.02163 0.95794 0.0
C1186 C 0.36079 0.01211 0.89072 0.0
C1187 C 0.36935 0.99727 0.85131 0.0
C1188 C 0.37137 0.0284 0.90343 0.0
C1189 C 0.3646 0.04369 0.95323 0.0
C1190 C 0.36331 0.06174 0.92358 0.0
C1191 C 0.35697 0.07616 0.97076 0.0
C1192 C 0.35201 0.07271 0.04786 0.0
C1193 C 0.35345 0.05484 0.07805 0.0
C1194 C 0.35978 0.04038 0.03114 0.0
C1195 C 0.44034 0.01299 0.70135 0.0
C1196 C 0.45473 0.01849 0.75149 0.0
C1197 C 0.42194 0.01228 0.72757 0.0
C1198 C 0.4174 0.01689 0.80472 0.0
C1199 C 0.43168 0.02281 0.85427 0.0
C1200 C 0.45007 0.02356 0.82815 0.0
C1201 C 0.39795 0.01487 0.83437 0.0
C1202 C 0.38946 0.02975 0.87313 0.0
C1203 C 0.38789 0.99816 0.82608 0.0
C1204 C 0.39691 0.98094 0.79773 0.0
C1205 C 0.41336 0.97459 0.83235 0.0
C1206 C 0.42195 0.95849 0.80546 0.0
C1207 C 0.41408 0.94842 0.74467 0.0
C1208 C 0.39757 0.95439 0.71096 0.0
C1209 C 0.38894 0.97054 0.73742 0.0
H1210 H 0.42077 0.936 0.72365 0.0
H1211 H 0.34711 0.08389 0.08429 0.0
H1212 H 0.48574 0.31007 0.98482 0.0
H1213 H 0.48194 0.33873 0.90918 0.0
H1214 H 0.54044 0.34928 0.92877 0.0
H1215 H 0.54423 0.32077 0.00263 0.0
H1216 H 0.48717 0.37325 0.95284 0.0
H1217 H 0.5567 0.37405 0.78129 0.0
H1218 H 0.57684 0.35248 0.70923 0.0
H1219 H 0.5311 0.31553 0.67589 0.0
H1220 H 0.51063 0.33697 0.74682 0.0
H1221 H 0.50963 0.46551 0.86394 0.0
H1222 H 0.5095 0.43334 0.90619 0.0
H1223 H 0.5064 0.41538 0.66754 0.0
H1224 H 0.50722 0.44765 0.62478 0.0
H1225 H 0.52773 0.39305 0.73607 0.0
H1226 H 0.46761 0.41486 0.80138 0.0
H1227 H 0.44436 0.43576 0.85884 0.0
H1228 H 0.46625 0.42524 0.08638 0.0
H1229 H 0.48978 0.40445 0.03018 0.0
C1230 C 0.49781 0.31829 0.97113 0.0
C1231 C 0.51528 0.31311 0.9997 0.0
C1232 C 0.49563 0.33477 0.92849 0.0
C1233 C 0.51091 0.34628 0.91258 0.0
C1234 C 0.52843 0.34066 0.93878 0.0
C1235 C 0.53058 0.32434 0.98148 0.0
C1236 C 0.50859 0.36474 0.87378 0.0
C1237 C 0.49599 0.37752 0.90518 0.0
C1238 C 0.51976 0.37036 0.81029 0.0
C1239 C 0.53214 0.35713 0.76961 0.0
C1240 C 0.55094 0.3613 0.75874 0.0
C1241 C 0.56242 0.3491 0.71806 0.0
C1242 C 0.55527 0.33262 0.68822 0.0
C1243 C 0.53665 0.32826 0.69932 0.0
C1244 C 0.52511 0.34042 0.73994 0.0
C1245 C 0.5088 0.45476 0.82026 0.0
C1246 C 0.50826 0.45932 0.74082 0.0
C1247 C 0.50862 0.43624 0.84462 0.0
C1248 C 0.50745 0.42167 0.79049 0.0
C1249 C 0.50717 0.4262 0.71093 0.0
C1250 C 0.5076 0.44474 0.68644 0.0
C1251 C 0.50678 0.40183 0.8171 0.0
C1252 C 0.51882 0.38878 0.78341 0.0
C1253 C 0.49477 0.39581 0.87732 0.0
C1254 C 0.48054 0.40819 0.91145 0.0
C1255 C 0.46752 0.41708 0.86362 0.0
C1256 C 0.45429 0.4289 0.89598 0.0
C1257 C 0.45385 0.43185 0.97619 0.0
C1258 C 0.46662 0.42295 0.02425 0.0
C1259 C 0.47989 0.41112 0.99219 0.0
H1260 H 0.44361 0.44102 1.00112 0.0
H1261 H 0.56415 0.32325 0.6563 0.0
H1262 H 0.2088 0.54471 0.00348 0.0
H1263 H 0.17883 0.54287 0.93843 0.0
H1264 H 0.19058 0.48661 0.87125 0.0
H1265 H 0.22068 0.48843 0.9378 0.0
H1266 H 0.16486 0.53783 0.80189 0.0
H1267 H 0.15088 0.46117 0.88085 0.0
H1268 H 0.15945 0.43858 0.98204 0.0
H1269 H 0.17012 0.48283 0.14239 0.0
H1270 H 0.16148 0.50565 0.0424 0.0
H1271 H 0.07885 0.51406 0.62322 0.0
H1272 H 0.11133 0.51433 0.66477 0.0
H1273 H 0.09423 0.50645 0.90213 0.0
H1274 H 0.06196 0.50555 0.86095 0.0
H1275 H 0.12311 0.48704 0.88275 0.0
H1276 H 0.10743 0.54869 0.82017 0.0
H1277 H 0.09653 0.57494 0.74154 0.0
H1278 H 0.14221 0.56782 0.58552 0.0
H1279 H 0.15286 0.54077 0.6605 0.0
C1280 C 0.2052 0.53208 0.97315 0.0
C1281 C 0.21722 0.51675 0.97548 0.0
C1282 C 0.18797 0.53101 0.93598 0.0
C1283 C 0.1821 0.51452 0.9005 0.0
C1284 C 0.19453 0.49946 0.899 0.0
C1285 C 0.21189 0.50055 0.93616 0.0
C1286 C 0.16264 0.51295 0.86962 0.0
C1287 C 0.15581 0.52659 0.81883 0.0
C1288 C 0.15042 0.49873 0.89362 0.0
C1289 C 0.15577 0.48509 0.9538 0.0
C1290 C 0.15506 0.46606 0.93769 0.0
C1291 C 0.15993 0.45322 0.99484 0.0
C1292 C 0.16541 0.45927 0.06847 0.0
C1293 C 0.16598 0.47817 0.08521 0.0
C1294 C 0.16114 0.49105 0.02827 0.0
C1295 C 0.082 0.51227 0.68421 0.0
C1296 C 0.06763 0.50979 0.73849 0.0
C1297 C 0.10064 0.51253 0.70802 0.0
C1298 C 0.10547 0.51064 0.78692 0.0
C1299 C 0.09111 0.5079 0.84091 0.0
C1300 C 0.07253 0.50747 0.81715 0.0
C1301 C 0.12531 0.51177 0.81371 0.0
C1302 C 0.13221 0.4981 0.86422 0.0
C1303 C 0.13733 0.52643 0.79188 0.0
C1304 C 0.13075 0.54242 0.7453 0.0
C1305 C 0.11496 0.55244 0.76816 0.0
C1306 C 0.10879 0.56744 0.72405 0.0
C1307 C 0.11854 0.57286 0.6579 0.0
C1308 C 0.13452 0.56335 0.63594 0.0
C1309 C 0.14057 0.54813 0.67902 0.0
H1310 H 0.11381 0.58454 0.62402 0.0
H1311 H 0.16915 0.4493 0.11264 0.0
H1312 H 0.02778 0.79891 0.42197 0.0
H1313 H 0.03115 0.82899 0.48817 0.0
H1314 H 0.97851 0.84634 0.39605 0.0
H1315 H 0.97516 0.81655 0.33056 0.0
H1316 H 1.0067 0.87197 0.3687 0.0
H1317 H 0.98348 0.83566 0.58973 0.0
H1318 H 0.98792 0.80698 0.6645 0.0
H1319 H 0.04233 0.82473 0.73032 0.0
H1320 H 0.03839 0.85334 0.65411 0.0
H1321 H 0.98758 0.95706 0.54006 0.0
H1322 H 0.98673 0.92493 0.49711 0.0
H1323 H 0.02991 0.91129 0.66033 0.0
H1324 H 0.02965 0.94329 0.70789 0.0
H1325 H 1.01096 0.88285 0.65275 0.0
H1326 H 0.03669 0.91818 0.4499 0.0
H1327 H 0.04007 0.94318 0.35379 0.0
H1328 H 0.99015 0.92575 0.24048 0.0
H1329 H 0.98631 0.90078 0.33662 0.0
C1330 C 0.01672 0.80895 0.41792 0.0
C1331 C 1.00114 0.80526 0.37144 0.0
C1332 C 0.0187 0.82624 0.45516 0.0
C1333 C 1.00512 0.84012 0.44687 0.0
C1334 C 0.98926 0.83604 0.40309 0.0
C1335 C 0.98728 0.81889 0.36624 0.0
C1336 C 1.00738 0.85912 0.48104 0.0
C1337 C 1.00737 0.87439 0.43084 0.0
C1338 C 1.00933 0.86233 0.56178 0.0
C1339 C 1.01063 0.84661 0.6164 0.0
C1340 C 0.99631 0.83353 0.62097 0.0
C1341 C 0.99879 0.81724 0.66313 0.0
C1342 C 0.01539 0.81405 0.7024 0.0
C1343 C 0.02948 0.82724 0.70004 0.0
C1344 C 0.02712 0.84352 0.65747 0.0
C1345 C 0.99685 0.94722 0.56711 0.0
C1346 C 1.00883 0.95289 0.62679 0.0
C1347 C 0.99651 0.92875 0.54192 0.0
C1348 C 1.00875 0.91548 0.57298 0.0
C1349 C 0.02038 0.92105 0.63443 0.0
C1350 C 0.02029 0.93945 0.66148 0.0
C1351 C 1.00948 0.89606 0.5402 0.0
C1352 C 1.0102 0.88065 0.59051 0.0
C1353 C 1.00896 0.89264 0.45879 0.0
C1354 C 1.01112 0.9077 0.40097 0.0
C1355 C 0.02636 0.91975 0.40485 0.0
C1356 C 0.02837 0.93391 0.35031 0.0
C1357 C 0.01532 0.93608 0.29118 0.0
C1358 C 1.00024 0.92407 0.28639 0.0
C1359 C 0.99814 0.9099 0.34085 0.0
H1360 H 0.01691 0.94705 0.24899 0.0
H1361 H 0.0173 0.8014 0.73498 0.0
H1362 H 0.72056 0.98165 0.43475 0.0
H1363 H 0.68979 0.98159 0.49555 0.0
H1364 H 0.68699 0.04085 0.47218 0.0
H1365 H 0.71766 0.04089 0.41172 0.0
H1366 H 0.66998 0.02935 0.60695 0.0
H1367 H 0.66966 0.01311 0.33658 0.0
H1368 H 0.68086 0.99419 0.22736 0.0
H1369 H 0.65684 0.94576 0.32997 0.0
H1370 H 0.64618 0.96429 0.44185 0.0
H1371 H 0.57261 0.04299 0.62639 0.0
H1372 H 0.60504 0.04255 0.58632 0.0
H1373 H 0.60284 0.98313 0.56572 0.0
H1374 H 0.56996 0.98377 0.60025 0.0
H1375 H 0.62331 0.9939 0.45733 0.0
H1376 H 0.62177 1.01133 0.72648 0.0
H1377 H 0.61206 0.03075 0.83612 0.0
H1378 H 0.64108 0.07708 0.74002 0.0
H1379 H 0.64982 0.05833 0.62612 0.0
C1380 C 0.71371 0.99472 0.4456 0.0
C1381 C 0.72171 1.0113 0.4193 0.0
C1382 C 0.69596 0.99468 0.47946 0.0
C1383 C 0.68577 1.01121 0.48757 0.0
C1384 C 0.6944 0.0279 0.46677 0.0
C1385 C 0.71204 0.02793 0.43255 0.0
C1386 C 0.66564 1.01108 0.51035 0.0
C1387 C 0.65974 0.0217 0.57402 0.0
C1388 C 0.65218 1.00095 0.46807 0.0
C1389 C 0.65736 0.99005 0.39824 0.0
C1390 C 0.66688 0.9984 0.33623 0.0
C1391 C 0.67323 0.98773 0.27402 0.0
C1392 C 0.6697 0.96875 0.27199 0.0
C1393 C 0.65968 0.96044 0.33193 0.0
C1394 C 0.65353 0.97102 0.39492 0.0
C1395 C 0.57903 0.02982 0.61338 0.0
C1396 C 0.56861 0.0134 0.61737 0.0
C1397 C 0.59774 0.02953 0.59078 0.0
C1398 C 0.60694 0.01273 0.57473 0.0
C1399 C 0.5964 0.99634 0.57786 0.0
C1400 C 0.57751 0.99669 0.59809 0.0
C1401 C 0.62739 0.01218 0.555 0.0
C1402 C 0.63343 1.00147 0.49123 0.0
C1403 C 0.64099 0.02231 0.59733 0.0
C1404 C 0.63626 0.03343 0.66711 0.0
C1405 C 0.62598 0.02569 0.72826 0.0
C1406 C 0.62063 0.03661 0.79128 0.0
C1407 C 0.62609 0.0551 0.7957 0.0
C1408 C 0.63684 0.06276 0.73658 0.0
C1409 C 0.64185 0.05203 0.67234 0.0
H1410 H 0.62193 0.06351 0.84468 0.0
H1411 H 0.67457 0.96052 0.22358 0.0
H1412 H 0.49024 0.71038 0.31124 0.0
H1413 H 0.49128 0.68113 0.37958 0.0
H1414 H 0.54074 0.69847 0.49907 0.0
H1415 H 0.5405 0.7276 0.4252 0.0
H1416 H 0.54568 0.66493 0.46169 0.0
H1417 H 0.49587 0.69301 0.59523 0.0
H1418 H 0.46683 0.71052 0.61064 0.0
H1419 H 0.43755 0.66885 0.48236 0.0
H1420 H 0.46645 0.65112 0.46592 0.0
H1421 H 0.50138 0.58279 0.70765 0.0
H1422 H 0.50238 0.61547 0.67109 0.0
H1423 H 0.53227 0.60121 0.46263 0.0
H1424 H 0.53197 0.56869 0.50056 0.0
H1425 H 0.48916 0.63545 0.56753 0.0
H1426 H 0.55855 0.63514 0.39427 0.0
H1427 H 0.58895 0.6197 0.39952 0.0
H1428 H 0.58163 0.60935 0.64313 0.0
H1429 H 0.5513 0.62493 0.6396 0.0
C1430 C 0.50136 0.70812 0.35229 0.0
C1431 C 0.5154 0.72146 0.36174 0.0
C1432 C 0.5018 0.69131 0.39248 0.0
C1433 C 0.51594 0.68736 0.44603 0.0
C1434 C 0.52963 0.70098 0.45828 0.0
C1435 C 0.52935 0.71782 0.41675 0.0
C1436 C 0.5167 0.66871 0.48545 0.0
C1437 C 0.53331 0.65857 0.48509 0.0
C1438 C 0.50082 0.66033 0.51874 0.0
C1439 C 0.48334 0.67079 0.529 0.0
C1440 C 0.48326 0.68765 0.56984 0.0
C1441 C 0.46682 0.6976 0.57883 0.0
C1442 C 0.45037 0.69085 0.54712 0.0
C1443 C 0.45031 0.67409 0.50666 0.0
C1444 C 0.46671 0.66404 0.49774 0.0
C1445 C 0.50832 0.5866 0.65426 0.0
C1446 C 0.51672 0.57294 0.60746 0.0
C1447 C 0.50884 0.6054 0.63319 0.0
C1448 C 0.51769 0.61119 0.56444 0.0
C1449 C 0.52583 0.59748 0.51715 0.0
C1450 C 0.52555 0.57872 0.53874 0.0
C1451 C 0.51801 0.63136 0.54118 0.0
C1452 C 0.50158 0.64181 0.54467 0.0
C1453 C 0.53426 0.64027 0.51366 0.0
C1454 C 0.55258 0.63106 0.51644 0.0
C1455 C 0.56346 0.62964 0.44902 0.0
C1456 C 0.58067 0.62085 0.45169 0.0
C1457 C 0.58719 0.6135 0.52156 0.0
C1458 C 0.57654 0.61499 0.58899 0.0
C1459 C 0.55933 0.62378 0.58667 0.0
H1460 H 0.60051 0.60669 0.52347 0.0
H1461 H 0.43765 0.69855 0.55427 0.0
H1462 H 0.8013 0.54339 0.4286 0.0
H1463 H 0.83191 0.54349 0.49088 0.0
H1464 H 0.83564 0.48446 0.46025 0.0
H1465 H 0.80517 0.4844 0.39788 0.0
H1466 H 0.85204 0.49591 0.59934 0.0
H1467 H 0.85315 0.51231 0.32911 0.0
H1468 H 0.84176 0.53114 0.2201 0.0
H1469 H 0.86416 0.57999 0.32616 0.0
H1470 H 0.87502 0.56152 0.43769 0.0
H1471 H 0.94977 0.48398 0.62347 0.0
H1472 H 0.91735 0.48384 0.58304 0.0
H1473 H 0.91855 0.54327 0.56233 0.0
H1474 H 0.95138 0.54323 0.59739 0.0
H1475 H 0.89862 0.53221 0.45313 0.0
H1476 H 0.89959 0.51475 0.72186 0.0
H1477 H 0.90901 0.49558 0.83254 0.0
H1478 H 0.88091 0.44882 0.73496 0.0
H1479 H 0.8725 0.46731 0.62007 0.0
C1480 C 0.80832 0.53036 0.43811 0.0
C1481 C 0.80063 0.51385 0.40927 0.0
C1482 C 0.82596 0.53043 0.47289 0.0
C1483 C 0.83636 0.514 0.47959 0.0
C1484 C 0.82805 0.49733 0.45609 0.0
C1485 C 0.81052 0.49729 0.42077 0.0
C1486 C 0.85642 0.51431 0.50339 0.0
C1487 C 0.86228 0.50373 0.56714 0.0
C1488 C 0.86985 0.52468 0.46211 0.0
C1489 C 0.86468 0.53556 0.39234 0.0
C1490 C 0.85556 0.52708 0.32949 0.0
C1491 C 0.84908 0.53771 0.26747 0.0
C1492 C 0.85209 0.55678 0.26651 0.0
C1493 C 0.86172 0.56523 0.3273 0.0
C1494 C 0.868 0.55469 0.39007 0.0
C1495 C 0.94313 0.49704 0.61045 0.0
C1496 C 0.95328 0.51363 0.61444 0.0
C1497 C 0.92442 0.49699 0.58762 0.0
C1498 C 0.91495 0.51361 0.57116 0.0
C1499 C 0.9252 0.53018 0.57464 0.0
C1500 C 0.94407 0.53017 0.59521 0.0
C1501 C 0.89454 0.5138 0.55025 0.0
C1502 C 0.88854 0.52444 0.48631 0.0
C1503 C 0.88096 0.50342 0.59158 0.0
C1504 C 0.88561 0.49241 0.66167 0.0
C1505 C 0.89555 0.50034 0.72346 0.0
C1506 C 0.90073 0.48957 0.78706 0.0
C1507 C 0.89543 0.47104 0.79145 0.0
C1508 C 0.88503 0.46318 0.73159 0.0
C1509 C 0.8802 0.47376 0.66676 0.0
H1510 H 0.89941 0.46278 0.84106 0.0
H1511 H 0.84711 0.56498 0.21829 0.0
loop_
_geom_bond_atom_site_label_1
_geom_bond_atom_site_label_2
_geom_bond_distance
_geom_bond_site_symmetry_2
_ccdc_geom_bond_type
H0 C1 0.949 . S
C1 H0 0.949 . S
C1 C2 1.395 . S
C1 C3 1.391 . S
C2 C1 1.395 . S
C2 C5 1.390 . S
C3 C1 1.391 . S
C3 C7 1.387 . S
C3 C8 1.491 . S
H4 C5 0.950 . S
C5 C2 1.390 . S
C5 H4 0.950 . S
C5 C6 1.378 . S
C6 C5 1.378 . S
C6 C7 1.409 . S
C7 C3 1.387 . S
C7 C6 1.409 . S
C7 H9 0.951 . S
C8 C3 1.491 . S
C8 C10 1.382 . S
C8 C12 1.404 . S
H9 C7 0.951 . S
C10 C8 1.382 . S
C10 C11 1.390 . S
C10 H15 0.949 . S
C11 C10 1.390 . S
C11 C16 1.399 . S
C12 C8 1.404 . S
C12 H13 0.950 . S
C12 C14 1.375 . S
H13 C12 0.950 . S
C14 C12 1.375 . S
C14 C16 1.382 . S
C14 H18 0.950 . S
H15 C10 0.949 . S
C16 C11 1.399 . S
C16 C14 1.382 . S
C16 H17 0.952 . S
H17 C16 0.952 . S
H18 C14 0.950 . S
H19 C20 0.949 . S
C20 H19 0.949 . S
C20 C21 1.401 . S
C20 C22 1.391 . S
C21 C20 1.401 . S
C21 C24 1.387 1_655 S
C22 C20 1.391 . S
C22 C26 1.387 . S
C22 C27 1.491 . S
H23 C24 0.955 . S
C24 C21 1.387 1_455 S
C24 H23 0.955 . S
C24 C25 1.374 1_455 S
C25 C24 1.374 1_655 S
C25 C26 1.419 . S
C26 C22 1.387 . S
C26 C25 1.419 . S
C26 H28 0.951 . S
C27 C22 1.491 . S
C27 C29 1.382 . S
C27 C31 1.404 . S
H28 C26 0.951 . S
C29 C27 1.382 . S
C29 C30 1.390 . S
C29 H34 0.949 1_655 S
C30 C29 1.390 . S
C30 C35 1.399 . S
C31 C27 1.404 . S
C31 H32 0.950 . S
C31 C33 1.375 . S
H32 C31 0.950 . S
C33 C31 1.375 . S
C33 C35 1.382 . S
C33 H37 0.950 . S
H34 C29 0.949 1_455 S
C35 C30 1.399 . S
C35 C33 1.382 . S
C35 H36 0.952 . S
H36 C35 0.952 . S
H37 C33 0.950 . S
H38 C39 0.949 . S
C39 H38 0.949 . S
C39 C40 1.398 . S
C39 C41 1.391 . S
C40 C39 1.398 . S
C40 C43 1.387 1_565 S
C41 C39 1.391 . S
C41 C45 1.387 . S
C41 C46 1.491 . S
H42 C43 0.959 . S
C43 C40 1.387 1_545 S
C43 H42 0.959 . S
C43 C44 1.374 1_545 S
C44 C43 1.374 1_565 S
C44 C45 1.416 . S
C45 C41 1.387 . S
C45 C44 1.416 . S
C45 H47 0.951 . S
C46 C41 1.491 . S
C46 C48 1.382 . S
C46 C50 1.404 . S
H47 C45 0.951 . S
C48 C46 1.382 . S
C48 C49 1.390 . S
C48 H53 0.949 1_565 S
C49 C48 1.390 . S
C49 C54 1.399 . S
C50 C46 1.404 . S
C50 H51 0.950 . S
C50 C52 1.375 . S
H51 C50 0.950 . S
C52 C50 1.375 . S
C52 C54 1.382 . S
C52 H56 0.950 . S
H53 C48 0.949 1_545 S
C54 C49 1.399 . S
C54 C52 1.382 . S
C54 H55 0.952 . S
H55 C54 0.952 . S
H56 C52 0.950 . S
H57 C58 0.949 . S
C58 H57 0.949 . S
C58 C59 1.395 . S
C58 C60 1.391 . S
C59 C58 1.395 . S
C59 C62 1.390 . S
C60 C58 1.391 . S
C60 C64 1.387 . S
C60 C65 1.491 . S
H61 C62 0.950 . S
C62 C59 1.390 . S
C62 H61 0.950 . S
C62 C63 1.378 . S
C63 C62 1.378 . S
C63 C64 1.409 . S
C64 C60 1.387 . S
C64 C63 1.409 . S
C64 H66 0.951 . S
C65 C60 1.491 . S
C65 C67 1.382 . S
C65 C69 1.404 . S
H66 C64 0.951 . S
C67 C65 1.382 . S
C67 C68 1.390 . S
C67 H72 0.949 . S
C68 C67 1.390 . S
C68 C73 1.399 . S
C69 C65 1.404 . S
C69 H70 0.950 . S
C69 C71 1.375 . S
H70 C69 0.950 . S
C71 C69 1.375 . S
C71 C73 1.382 . S
C71 H75 0.950 . S
H72 C67 0.949 . S
C73 C68 1.399 . S
C73 C71 1.382 . S
C73 H74 0.952 . S
H74 C73 0.952 . S
H75 C71 0.950 . S
H76 C77 0.949 . S
C77 H76 0.949 . S
C77 C78 1.395 . S
C77 C79 1.391 . S
C78 C77 1.395 . S
C78 C81 1.390 . S
C79 C77 1.391 . S
C79 C83 1.387 1_554 S
C79 C84 1.491 . S
H80 C81 0.950 . S
C81 C78 1.390 . S
C81 H80 0.950 . S
C81 C82 1.378 1_554 S
C82 C81 1.378 1_556 S
C82 C83 1.409 . S
C83 C79 1.387 1_556 S
C83 C82 1.409 . S
C83 H85 0.951 . S
C84 C79 1.491 . S
C84 C86 1.382 . S
C84 C88 1.404 1_554 S
H85 C83 0.951 . S
C86 C84 1.382 . S
C86 C87 1.390 . S
C86 H91 0.949 . S
C87 C86 1.390 . S
C87 C92 1.399 . S
C88 C84 1.404 1_556 S
C88 H89 0.950 . S
C88 C90 1.375 . S
H89 C88 0.950 . S
C90 C88 1.375 . S
C90 C92 1.382 1_556 S
C90 H94 0.950 . S
H91 C86 0.949 . S
C92 C87 1.399 . S
C92 C90 1.382 1_554 S
C92 H93 0.952 . S
H93 C92 0.952 . S
H94 C90 0.950 . S
H95 C96 0.949 . S
C96 H95 0.949 . S
C96 C97 1.389 1_655 S
C96 C98 1.391 . S
C97 C96 1.389 1_455 S
C97 C100 1.394 . S
C98 C96 1.391 . S
C98 C102 1.387 1_554 S
C98 C103 1.491 . S
H99 C100 0.950 . S
C100 C97 1.394 . S
C100 H99 0.950 . S
C100 C101 1.381 1_554 S
C101 C100 1.381 1_556 S
C101 C102 1.405 1_455 S
C102 C98 1.387 1_556 S
C102 C101 1.405 1_655 S
C102 H104 0.951 . S
C103 C98 1.491 . S
C103 C105 1.385 1_655 S
C103 C107 1.404 1_554 S
H104 C102 0.951 . S
C105 C103 1.385 1_455 S
C105 C106 1.391 1_455 S
C105 H110 0.944 . S
C106 C105 1.391 1_655 S
C106 C111 1.399 . S
C107 C103 1.404 1_556 S
C107 H108 0.950 . S
C107 C109 1.375 . S
H108 C107 0.950 . S
C109 C107 1.375 . S
C109 C111 1.382 1_556 S
C109 H113 0.950 . S
H110 C105 0.944 . S
C111 C106 1.399 . S
C111 C109 1.382 1_554 S
C111 H112 0.952 . S
H112 C111 0.952 . S
H113 C109 0.950 . S
H114 C115 0.949 . S
C115 H114 0.949 . S
C115 C116 1.395 1_565 S
C115 C117 1.391 . S
C116 C115 1.395 1_545 S
C116 C119 1.390 . S
C117 C115 1.391 . S
C117 C121 1.387 1_554 S
C117 C122 1.491 . S
H118 C119 0.950 . S
C119 C116 1.390 . S
C119 H118 0.950 . S
C119 C120 1.383 1_554 S
C120 C119 1.383 1_556 S
C120 C121 1.402 1_545 S
C121 C117 1.387 1_556 S
C121 C120 1.402 1_565 S
C121 H123 0.951 . S
C122 C117 1.491 . S
C122 C124 1.375 1_565 S
C122 C126 1.404 1_554 S
H123 C121 0.951 . S
C124 C122 1.375 1_545 S
C124 C125 1.386 1_545 S
C124 H129 0.959 . S
C125 C124 1.386 1_565 S
C125 C130 1.399 . S
C126 C122 1.404 1_556 S
C126 H127 0.950 . S
C126 C128 1.375 . S
H127 C126 0.950 . S
C128 C126 1.375 . S
C128 C130 1.382 1_556 S
C128 H132 0.950 . S
H129 C124 0.959 . S
C130 C125 1.399 . S
C130 C128 1.382 1_554 S
C130 H131 0.952 . S
H131 C130 0.952 . S
H132 C128 0.950 . S
H133 C134 0.949 . S
C134 H133 0.949 . S
C134 C135 1.395 . S
C134 C136 1.391 . S
C135 C134 1.395 . S
C135 C138 1.390 . S
C136 C134 1.391 . S
C136 C140 1.387 1_554 S
C136 C141 1.491 . S
H137 C138 0.950 . S
C138 C135 1.390 . S
C138 H137 0.950 . S
C138 C139 1.378 1_554 S
C139 C138 1.378 1_556 S
C139 C140 1.409 . S
C140 C136 1.387 1_556 S
C140 C139 1.409 . S
C140 H142 0.951 . S
C141 C136 1.491 . S
C141 C143 1.382 . S
C141 C145 1.404 1_554 S
H142 C140 0.951 . S
C143 C141 1.382 . S
C143 C144 1.390 . S
C143 H148 0.949 . S
C144 C143 1.390 . S
C144 C149 1.399 . S
C145 C141 1.404 1_556 S
C145 H146 0.950 . S
C145 C147 1.375 . S
H146 C145 0.950 . S
C147 C145 1.375 . S
C147 C149 1.382 1_556 S
C147 H151 0.950 . S
H148 C143 0.949 . S
C149 C144 1.399 . S
C149 C147 1.382 1_554 S
C149 H150 0.952 . S
H150 C149 0.952 . S
H151 C147 0.950 . S
Tb152 C162 2.825 . S
Tb152 O163 2.347 1_455 S
Tb152 O166 2.366 . S
Tb152 O171 2.418 . S
Tb152 O172 2.384 1_565 S
Tb152 O175 2.479 . S
Tb152 O176 2.481 . S
Eu153 O164 2.418 . S
Eu153 O165 2.384 1_545 S
Eu153 O168 2.479 . S
Eu153 O169 2.476 . S
Eu153 O170 2.347 1_655 S
Eu153 O173 2.366 . S
Eu153 C183 2.825 . S
C154 O170 1.243 1_565 S
C154 O171 1.294 . S
C155 O172 1.255 . S
C155 O173 1.265 1_455 S
C156 C158 1.380 . S
C156 C159 1.371 1_455 S
C156 C162 1.507 . S
C157 C158 1.384 . S
C157 C161 1.387 . S
C157 H184 0.930 . S
C158 C156 1.380 . S
C158 C157 1.384 . S
C158 H185 0.931 . S
C159 C156 1.371 1_655 S
C159 C160 1.390 1_655 S
C159 H186 0.933 . S
C160 C159 1.390 1_455 S
C160 C161 1.391 . S
C160 H187 0.930 1_455 S
C161 C157 1.387 . S
C161 C160 1.391 . S
C162 Tb152 2.825 . S
C162 C156 1.507 . S
C162 O175 1.238 . S
C162 O176 1.270 . S
O163 Tb152 2.347 1_655 S
O163 C167 1.259 1_565 S
O164 Eu153 2.418 . S
O164 C167 1.265 . S
O165 Eu153 2.384 1_565 S
O165 C174 1.255 . S
O166 Tb152 2.366 . S
O166 C174 1.265 1_455 S
C167 O163 1.259 1_545 S
C167 O164 1.265 . S
O168 Eu153 2.479 . S
O168 C183 1.238 . S
O169 Eu153 2.476 . S
O169 C183 1.257 . S
O170 Eu153 2.347 1_455 S
O170 C154 1.243 1_545 S
O171 Tb152 2.418 . S
O171 C154 1.294 . S
O172 Tb152 2.384 1_545 S
O172 C155 1.255 . S
O173 Eu153 2.366 . S
O173 C155 1.265 1_655 S
C174 O165 1.255 . S
C174 O166 1.265 1_655 S
O175 Tb152 2.479 . S
O175 C162 1.238 . S
O176 Tb152 2.481 . S
O176 C162 1.270 . S
C177 C180 1.380 . S
C177 C181 1.358 1_655 S
C177 C183 1.507 . S
C178 C179 1.387 . S
C178 C182 1.391 1_655 S
C179 C178 1.387 . S
C179 C180 1.384 . S
C179 H188 0.930 . S
C180 C177 1.380 . S
C180 C179 1.384 . S
C180 H189 0.931 . S
C181 C177 1.358 1_455 S
C181 C182 1.390 . S
C181 H190 0.946 . S
C182 C178 1.391 1_455 S
C182 C181 1.390 . S
C182 H191 0.930 . S
C183 Eu153 2.825 . S
C183 O168 1.238 . S
C183 O169 1.257 . S
C183 C177 1.507 . S
H184 C157 0.930 . S
H185 C158 0.931 . S
H186 C159 0.933 . S
H187 C160 0.930 1_655 S
H188 C179 0.930 . S
H189 C180 0.931 . S
H190 C181 0.946 . S
H191 C182 0.930 . S
Tb192 C202 2.825 . S
Tb192 O203 2.347 1_545 S
Tb192 O206 2.366 . S
Tb192 O211 2.418 . S
Tb192 O212 2.384 . S
Tb192 O215 2.479 . S
Tb192 O216 2.489 . S
Eu193 O204 2.418 . S
Eu193 O205 2.384 . S
Eu193 O208 2.479 . S
Eu193 O209 2.474 1_565 S
Eu193 O210 2.347 1_565 S
Eu193 O213 2.366 . S
Eu193 C223 2.825 . S
C194 O210 1.259 . S
C194 O211 1.265 . S
C195 O212 1.255 . S
C195 O213 1.265 1_545 S
C196 C198 1.380 . S
C196 C199 1.375 . S
C196 C202 1.507 . S
C197 C198 1.384 . S
C197 C201 1.387 . S
C197 H224 0.930 . S
C198 C196 1.380 . S
C198 C197 1.384 . S
C198 H225 0.931 . S
C199 C196 1.375 . S
C199 C200 1.390 . S
C199 H226 0.929 1_545 S
C200 C199 1.390 . S
C200 C201 1.408 . S
C200 H227 0.913 1_545 S
C201 C197 1.387 . S
C201 C200 1.408 . S
C202 Tb192 2.825 . S
C202 C196 1.507 . S
C202 O215 1.238 . S
C202 O216 1.287 . S
O203 Tb192 2.347 1_565 S
O203 C207 1.259 . S
O204 Eu193 2.418 . S
O204 C207 1.265 . S
O205 Eu193 2.384 . S
O205 C214 1.255 . S
O206 Tb192 2.366 . S
O206 C214 1.265 1_545 S
C207 O203 1.259 . S
C207 O204 1.265 . S
O208 Eu193 2.479 . S
O208 C223 1.238 . S
O209 Eu193 2.474 1_545 S
O209 C223 1.252 1_545 S
O210 Eu193 2.347 1_545 S
O210 C194 1.259 . S
O211 Tb192 2.418 . S
O211 C194 1.265 . S
O212 Tb192 2.384 . S
O212 C195 1.255 . S
O213 Eu193 2.366 . S
O213 C195 1.265 1_565 S
C214 O205 1.255 . S
C214 O206 1.265 1_565 S
O215 Tb192 2.479 . S
O215 C202 1.238 . S
O216 Tb192 2.489 . S
O216 C202 1.287 . S
C217 C220 1.380 . S
C217 C221 1.341 1_565 S
C217 C223 1.507 . S
C218 C219 1.387 . S
C218 C222 1.373 1_565 S
C219 C218 1.387 . S
C219 C220 1.384 . S
C219 H228 0.930 . S
C220 C217 1.380 . S
C220 C219 1.384 . S
C220 H229 0.931 . S
C221 C217 1.341 1_545 S
C221 C222 1.390 . S
C221 H230 0.964 . S
C222 C218 1.373 1_545 S
C222 C221 1.390 . S
C222 H231 0.947 . S
C223 Eu193 2.825 . S
C223 O208 1.238 . S
C223 O209 1.252 1_565 S
C223 C217 1.507 . S
H224 C197 0.930 . S
H225 C198 0.931 . S
H226 C199 0.929 1_565 S
H227 C200 0.913 1_565 S
H228 C219 0.930 . S
H229 C220 0.931 . S
H230 C221 0.964 . S
H231 C222 0.947 . S
Tb232 C242 2.825 . S
Tb232 O243 2.347 . S
Tb232 O246 2.366 . S
Tb232 O251 2.418 . S
Tb232 O252 2.384 . S
Tb232 O255 2.479 . S
Tb232 O256 2.471 . S
Eu233 O244 2.418 . S
Eu233 O245 2.384 . S
Eu233 O248 2.479 . S
Eu233 O249 2.471 . S
Eu233 O250 2.347 . S
Eu233 O253 2.366 . S
Eu233 C263 2.825 . S
C234 O250 1.259 . S
C234 O251 1.265 . S
C235 O252 1.255 . S
C235 O253 1.265 . S
C236 C238 1.380 . S
C236 C239 1.374 . S
C236 C242 1.507 . S
C237 C238 1.384 . S
C237 C241 1.387 . S
C237 H264 0.930 . S
C238 C236 1.380 . S
C238 C237 1.384 . S
C238 H265 0.931 . S
C239 C236 1.374 . S
C239 C240 1.390 . S
C239 H266 0.930 . S
C240 C239 1.390 . S
C240 C241 1.391 . S
C240 H267 0.930 . S
C241 C237 1.387 . S
C241 C240 1.391 . S
C242 Tb232 2.825 . S
C242 C236 1.507 . S
C242 O255 1.238 . S
C242 O256 1.247 . S
O243 Tb232 2.347 . S
O243 C247 1.259 . S
O244 Eu233 2.418 . S
O244 C247 1.265 . S
O245 Eu233 2.384 . S
O245 C254 1.255 . S
O246 Tb232 2.366 . S
O246 C254 1.265 . S
C247 O243 1.259 . S
C247 O244 1.265 . S
O248 Eu233 2.479 . S
O248 C263 1.238 . S
O249 Eu233 2.471 . S
O249 C263 1.247 . S
O250 Eu233 2.347 . S
O250 C234 1.259 . S
O251 Tb232 2.418 . S
O251 C234 1.265 . S
O252 Tb232 2.384 . S
O252 C235 1.255 . S
O253 Eu233 2.366 . S
O253 C235 1.265 . S
C254 O245 1.255 . S
C254 O246 1.265 . S
O255 Tb232 2.479 . S
O255 C242 1.238 . S
O256 Tb232 2.471 . S
O256 C242 1.247 . S
C257 C260 1.380 . S
C257 C261 1.374 . S
C257 C263 1.507 . S
C258 C259 1.387 . S
C258 C262 1.391 . S
C259 C258 1.387 . S
C259 C260 1.384 . S
C259 H268 0.930 . S
C260 C257 1.380 . S
C260 C259 1.384 . S
C260 H269 0.931 . S
C261 C257 1.374 . S
C261 C262 1.390 . S
C261 H270 0.930 . S
C262 C258 1.391 . S
C262 C261 1.390 . S
C262 H271 0.930 . S
C263 Eu233 2.825 . S
C263 O248 1.238 . S
C263 O249 1.247 . S
C263 C257 1.507 . S
H264 C237 0.930 . S
H265 C238 0.931 . S
H266 C239 0.930 . S
H267 C240 0.930 . S
H268 C259 0.930 . S
H269 C260 0.931 . S
H270 C261 0.930 . S
H271 C262 0.930 . S
Tb272 C282 2.825 . S
Tb272 O283 2.347 . S
Tb272 O286 2.366 . S
Tb272 O291 2.418 . S
Tb272 O292 2.384 1_655 S
Tb272 O295 2.479 . S
Tb272 O296 2.471 . S
Eu273 O284 2.418 . S
Eu273 O285 2.384 1_455 S
Eu273 O288 2.479 . S
Eu273 O289 2.471 . S
Eu273 O290 2.347 . S
Eu273 O293 2.366 . S
Eu273 C303 2.825 . S
C274 O290 1.259 1_655 S
C274 O291 1.265 . S
C275 O292 1.255 . S
C275 O293 1.265 . S
C276 C278 1.380 . S
C276 C279 1.374 . S
C276 C282 1.507 . S
C277 C278 1.384 . S
C277 C281 1.387 . S
C277 H304 0.930 . S
C278 C276 1.380 . S
C278 C277 1.384 . S
C278 H305 0.931 . S
C279 C276 1.374 . S
C279 C280 1.390 . S
C279 H306 0.930 . S
C280 C279 1.390 . S
C280 C281 1.391 . S
C280 H307 0.930 . S
C281 C277 1.387 . S
C281 C280 1.391 . S
C282 Tb272 2.825 . S
C282 C276 1.507 . S
C282 O295 1.238 . S
C282 O296 1.247 . S
O283 Tb272 2.347 . S
O283 C287 1.259 1_655 S
O284 Eu273 2.418 . S
O284 C287 1.265 . S
O285 Eu273 2.384 1_655 S
O285 C294 1.255 . S
O286 Tb272 2.366 . S
O286 C294 1.265 . S
C287 O283 1.259 1_455 S
C287 O284 1.265 . S
O288 Eu273 2.479 . S
O288 C303 1.238 . S
O289 Eu273 2.471 . S
O289 C303 1.247 . S
O290 Eu273 2.347 . S
O290 C274 1.259 1_455 S
O291 Tb272 2.418 . S
O291 C274 1.265 . S
O292 Tb272 2.384 1_455 S
O292 C275 1.255 . S
O293 Eu273 2.366 . S
O293 C275 1.265 . S
C294 O285 1.255 . S
C294 O286 1.265 . S
O295 Tb272 2.479 . S
O295 C282 1.238 . S
O296 Tb272 2.471 . S
O296 C282 1.247 . S
C297 C300 1.380 . S
C297 C301 1.374 . S
C297 C303 1.507 . S
C298 C299 1.387 . S
C298 C302 1.391 . S
C299 C298 1.387 . S
C299 C300 1.384 . S
C299 H308 0.930 . S
C300 C297 1.380 . S
C300 C299 1.384 . S
C300 H309 0.931 . S
C301 C297 1.374 . S
C301 C302 1.390 . S
C301 H310 0.930 . S
C302 C298 1.391 . S
C302 C301 1.390 . S
C302 H311 0.930 . S
C303 Eu273 2.825 . S
C303 O288 1.238 . S
C303 O289 1.247 . S
C303 C297 1.507 . S
H304 C277 0.930 . S
H305 C278 0.931 . S
H306 C279 0.930 . S
H307 C280 0.930 . S
H308 C299 0.930 . S
H309 C300 0.931 . S
H310 C301 0.930 . S
H311 C302 0.930 . S
H312 C330 0.951 . S
H313 C332 0.951 . S
H314 C334 0.950 . S
H315 C335 0.950 . S
H316 C337 0.950 . S
H317 C340 0.950 . S
H318 C341 0.950 . S
H319 C343 0.950 . S
H320 C344 0.950 . S
H321 C345 0.951 . S
H322 C347 0.950 . S
H323 C349 0.950 . S
H324 C350 0.950 . S
H325 C352 0.950 . S
H326 C355 0.950 . S
H327 C356 0.950 . S
H328 C358 0.950 . S
H329 C359 0.950 . S
C330 H312 0.951 . S
C330 C331 1.366 . S
C330 C332 1.388 . S
C331 C330 1.366 . S
C331 C335 1.386 . S
C332 H313 0.951 . S
C332 C330 1.388 . S
C332 C333 1.366 . S
C333 C332 1.366 . S
C333 C334 1.419 . S
C333 C336 1.499 . S
C334 H314 0.950 . S
C334 C333 1.419 . S
C334 C335 1.374 . S
C335 H315 0.950 . S
C335 C331 1.386 . S
C335 C334 1.374 . S
C336 C333 1.499 . S
C336 C337 1.373 1_545 S
C336 C338 1.389 . S
C337 H316 0.950 . S
C337 C336 1.373 1_565 S
C337 C353 1.377 . S
C338 C336 1.389 . S
C338 C339 1.524 . S
C338 C352 1.377 . S
C339 C338 1.524 . S
C339 C340 1.397 . S
C339 C344 1.363 . S
C340 H317 0.950 . S
C340 C339 1.397 . S
C340 C341 1.334 . S
C341 H318 0.950 . S
C341 C340 1.334 . S
C341 C342 1.287 . S
C342 C341 1.287 . S
C342 C343 1.524 . S
C342 H361 0.913 . S
C343 H319 0.950 . S
C343 C342 1.524 . S
C343 C344 1.415 . S
C344 H320 0.950 . S
C344 C339 1.363 . S
C344 C343 1.415 . S
C345 H321 0.951 . S
C345 C346 1.367 . S
C345 C347 1.387 1_545 S
C346 C345 1.367 . S
C346 C350 1.385 . S
C347 H322 0.950 . S
C347 C345 1.387 1_565 S
C347 C348 1.366 1_565 S
C348 C347 1.366 1_545 S
C348 C349 1.414 . S
C348 C351 1.499 . S
C349 H323 0.950 . S
C349 C348 1.414 . S
C349 C350 1.374 . S
C350 H324 0.950 . S
C350 C346 1.385 . S
C350 C349 1.374 . S
C351 C348 1.499 . S
C351 C352 1.369 . S
C351 C353 1.393 1_545 S
C352 H325 0.950 . S
C352 C338 1.377 . S
C352 C351 1.369 . S
C353 C337 1.377 . S
C353 C351 1.393 1_565 S
C353 C354 1.524 . S
C354 C353 1.524 . S
C354 C355 1.397 . S
C354 C359 1.363 . S
C355 H326 0.950 . S
C355 C354 1.397 . S
C355 C356 1.334 . S
C356 H327 0.950 . S
C356 C355 1.334 . S
C356 C357 1.287 . S
C357 C356 1.287 . S
C357 C358 1.524 . S
C357 H360 0.999 . S
C358 H328 0.950 . S
C358 C357 1.524 . S
C358 C359 1.415 . S
C359 H329 0.950 . S
C359 C354 1.363 . S
C359 C358 1.415 . S
H360 C357 0.999 . S
H361 C342 0.913 . S
H362 C380 0.951 . S
H363 C382 0.951 . S
H364 C384 0.950 . S
H365 C385 0.950 . S
H366 C387 0.950 . S
H367 C390 0.950 . S
H368 C391 0.950 . S
H369 C393 0.950 . S
H370 C394 0.950 . S
H371 C395 0.951 . S
H372 C397 0.951 . S
H373 C399 0.950 . S
H374 C400 0.950 . S
H375 C402 0.950 . S
H376 C405 0.950 . S
H377 C406 0.950 . S
H378 C408 0.950 . S
H379 C409 0.950 . S
C380 H362 0.951 . S
C380 C381 1.366 . S
C380 C382 1.388 . S
C381 C380 1.366 . S
C381 C385 1.385 . S
C382 H363 0.951 . S
C382 C380 1.388 . S
C382 C383 1.366 . S
C383 C382 1.366 . S
C383 C384 1.414 . S
C383 C386 1.499 . S
C384 H364 0.950 . S
C384 C383 1.414 . S
C384 C385 1.374 . S
C385 H365 0.950 . S
C385 C381 1.385 . S
C385 C384 1.374 . S
C386 C383 1.499 . S
C386 C387 1.373 . S
C386 C388 1.389 . S
C387 H366 0.950 . S
C387 C386 1.373 . S
C387 C403 1.377 . S
C388 C386 1.389 . S
C388 C389 1.524 . S
C388 C402 1.377 . S
C389 C388 1.524 . S
C389 C390 1.397 . S
C389 C394 1.363 . S
C390 H367 0.950 . S
C390 C389 1.397 . S
C390 C391 1.334 . S
C391 H368 0.950 . S
C391 C390 1.334 . S
C391 C392 1.287 . S
C392 C391 1.287 . S
C392 C393 1.524 . S
C392 H411 0.913 . S
C393 H369 0.950 . S
C393 C392 1.524 . S
C393 C394 1.415 . S
C394 H370 0.950 . S
C394 C389 1.363 . S
C394 C393 1.415 . S
C395 H371 0.951 . S
C395 C396 1.366 . S
C395 C397 1.388 . S
C396 C395 1.366 . S
C396 C400 1.385 . S
C397 H372 0.951 . S
C397 C395 1.388 . S
C397 C398 1.366 . S
C398 C397 1.366 . S
C398 C399 1.414 . S
C398 C401 1.499 . S
C399 H373 0.950 . S
C399 C398 1.414 . S
C399 C400 1.374 . S
C400 H374 0.950 . S
C400 C396 1.385 . S
C400 C399 1.374 . S
C401 C398 1.499 . S
C401 C402 1.373 . S
C401 C403 1.389 . S
C402 H375 0.950 . S
C402 C388 1.377 . S
C402 C401 1.373 . S
C403 C387 1.377 . S
C403 C401 1.389 . S
C403 C404 1.524 . S
C404 C403 1.524 . S
C404 C405 1.397 . S
C404 C409 1.363 . S
C405 H376 0.950 . S
C405 C404 1.397 . S
C405 C406 1.334 . S
C406 H377 0.950 . S
C406 C405 1.334 . S
C406 C407 1.287 . S
C407 C406 1.287 . S
C407 C408 1.524 . S
C407 H410 0.999 . S
C408 H378 0.950 . S
C408 C407 1.524 . S
C408 C409 1.415 . S
C409 H379 0.950 . S
C409 C404 1.363 . S
C409 C408 1.415 . S
H410 C407 0.999 . S
H411 C392 0.913 . S
H412 C430 0.951 . S
H413 C432 0.951 . S
H414 C434 0.950 . S
H415 C435 0.950 . S
H416 C437 0.950 . S
H417 C440 0.950 . S
H418 C441 0.950 . S
H419 C443 0.950 . S
H420 C444 0.950 . S
H421 C445 0.951 . S
H422 C447 0.951 . S
H423 C449 0.950 . S
H424 C450 0.950 . S
H425 C452 0.950 . S
H426 C455 0.950 . S
H427 C456 0.950 . S
H428 C458 0.950 . S
H429 C459 0.950 . S
C430 H412 0.951 . S
C430 C431 1.366 . S
C430 C432 1.388 . S
C431 C430 1.366 . S
C431 C435 1.385 . S
C432 H413 0.951 . S
C432 C430 1.388 . S
C432 C433 1.366 . S
C433 C432 1.366 . S
C433 C434 1.414 . S
C433 C436 1.499 . S
C434 H414 0.950 . S
C434 C433 1.414 . S
C434 C435 1.374 . S
C435 H415 0.950 . S
C435 C431 1.385 . S
C435 C434 1.374 . S
C436 C433 1.499 . S
C436 C437 1.373 . S
C436 C438 1.389 . S
C437 H416 0.950 . S
C437 C436 1.373 . S
C437 C453 1.377 . S
C438 C436 1.389 . S
C438 C439 1.524 . S
C438 C452 1.377 . S
C439 C438 1.524 . S
C439 C440 1.397 . S
C439 C444 1.363 . S
C440 H417 0.950 . S
C440 C439 1.397 . S
C440 C441 1.334 . S
C441 H418 0.950 . S
C441 C440 1.334 . S
C441 C442 1.287 . S
C442 C441 1.287 . S
C442 C443 1.524 . S
C442 H461 0.913 . S
C443 H419 0.950 . S
C443 C442 1.524 . S
C443 C444 1.415 . S
C444 H420 0.950 . S
C444 C439 1.363 . S
C444 C443 1.415 . S
C445 H421 0.951 . S
C445 C446 1.366 . S
C445 C447 1.388 . S
C446 C445 1.366 . S
C446 C450 1.385 . S
C447 H422 0.951 . S
C447 C445 1.388 . S
C447 C448 1.366 . S
C448 C447 1.366 . S
C448 C449 1.414 . S
C448 C451 1.499 . S
C449 H423 0.950 . S
C449 C448 1.414 . S
C449 C450 1.374 . S
C450 H424 0.950 . S
C450 C446 1.385 . S
C450 C449 1.374 . S
C451 C448 1.499 . S
C451 C452 1.373 . S
C451 C453 1.389 . S
C452 H425 0.950 . S
C452 C438 1.377 . S
C452 C451 1.373 . S
C453 C437 1.377 . S
C453 C451 1.389 . S
C453 C454 1.524 . S
C454 C453 1.524 . S
C454 C455 1.397 . S
C454 C459 1.363 . S
C455 H426 0.950 . S
C455 C454 1.397 . S
C455 C456 1.334 . S
C456 H427 0.950 . S
C456 C455 1.334 . S
C456 C457 1.287 . S
C457 C456 1.287 . S
C457 C458 1.524 . S
C457 H460 0.999 . S
C458 H428 0.950 . S
C458 C457 1.524 . S
C458 C459 1.415 . S
C459 H429 0.950 . S
C459 C454 1.363 . S
C459 C458 1.415 . S
H460 C457 0.999 . S
H461 C442 0.913 . S
H462 C480 0.951 . S
H463 C482 0.951 . S
H464 C484 0.950 . S
H465 C485 0.950 . S
H466 C487 0.950 . S
H467 C490 0.950 . S
H468 C491 0.950 . S
H469 C493 0.950 . S
H470 C494 0.950 . S
H471 C495 0.951 . S
H472 C497 0.951 . S
H473 C499 0.950 . S
H474 C500 0.950 . S
H475 C502 0.950 . S
H476 C505 0.950 . S
H477 C506 0.950 . S
H478 C508 0.950 . S
H479 C509 0.950 . S
C480 H462 0.951 . S
C480 C481 1.345 1_655 S
C480 C482 1.388 . S
C481 C480 1.345 1_455 S
C481 C485 1.406 . S
C482 H463 0.951 . S
C482 C480 1.388 . S
C482 C483 1.364 . S
C483 C482 1.364 . S
C483 C484 1.415 1_655 S
C483 C486 1.499 1_655 S
C484 H464 0.950 . S
C484 C483 1.415 1_455 S
C484 C485 1.374 . S
C485 H465 0.950 . S
C485 C481 1.406 . S
C485 C484 1.374 . S
C486 C483 1.499 1_455 S
C486 C487 1.375 . S
C486 C488 1.388 1_455 S
C487 H466 0.950 . S
C487 C486 1.375 . S
C487 C503 1.377 . S
C488 C486 1.388 1_655 S
C488 C489 1.524 . S
C488 C502 1.377 . S
C489 C488 1.524 . S
C489 C490 1.397 . S
C489 C494 1.363 . S
C490 H467 0.950 . S
C490 C489 1.397 . S
C490 C491 1.334 . S
C491 H468 0.950 . S
C491 C490 1.334 . S
C491 C492 1.287 . S
C492 C491 1.287 . S
C492 C493 1.524 . S
C492 H511 0.913 . S
C493 H469 0.950 . S
C493 C492 1.524 . S
C493 C494 1.415 . S
C494 H470 0.950 . S
C494 C489 1.363 . S
C494 C493 1.415 . S
C495 H471 0.951 . S
C495 C496 1.385 . S
C495 C497 1.388 . S
C496 C495 1.385 . S
C496 C500 1.367 1_455 S
C497 H472 0.951 . S
C497 C495 1.388 . S
C497 C498 1.366 . S
C498 C497 1.366 . S
C498 C499 1.414 1_455 S
C498 C501 1.499 . S
C499 H473 0.950 . S
C499 C498 1.414 1_655 S
C499 C500 1.374 . S
C500 H474 0.950 . S
C500 C496 1.367 1_655 S
C500 C499 1.374 . S
C501 C498 1.499 . S
C501 C502 1.373 1_455 S
C501 C503 1.389 . S
C502 H475 0.950 . S
C502 C488 1.377 . S
C502 C501 1.373 1_655 S
C503 C487 1.377 . S
C503 C501 1.389 . S
C503 C504 1.524 . S
C504 C503 1.524 . S
C504 C505 1.397 . S
C504 C509 1.363 . S
C505 H476 0.950 . S
C505 C504 1.397 . S
C505 C506 1.334 . S
C506 H477 0.950 . S
C506 C505 1.334 . S
C506 C507 1.287 . S
C507 C506 1.287 . S
C507 C508 1.524 . S
C507 H510 0.999 . S
C508 H478 0.950 . S
C508 C507 1.524 . S
C508 C509 1.415 . S
C509 H479 0.950 . S
C509 C504 1.363 . S
C509 C508 1.415 . S
H510 C507 0.999 . S
H511 C492 0.913 . S
H512 C530 0.951 . S
H513 C532 0.951 . S
H514 C534 0.950 . S
H515 C535 0.950 . S
H516 C537 0.950 . S
H517 C540 0.950 . S
H518 C541 0.950 1_554 S
H519 C543 0.950 . S
H520 C544 0.950 . S
H521 C545 0.951 . S
H522 C547 0.951 . S
H523 C549 0.950 . S
H524 C550 0.950 . S
H525 C552 0.950 . S
H526 C555 0.950 1_556 S
H527 C556 0.950 . S
H528 C558 0.950 . S
H529 C559 0.950 . S
C530 H512 0.951 . S
C530 C531 1.360 1_545 S
C530 C532 1.388 . S
C531 C530 1.360 1_565 S
C531 C535 1.390 . S
C532 H513 0.951 . S
C532 C530 1.388 . S
C532 C533 1.366 1_545 S
C533 C532 1.366 1_565 S
C533 C534 1.414 . S
C533 C536 1.499 . S
C534 H514 0.950 . S
C534 C533 1.414 . S
C534 C535 1.374 . S
C535 H515 0.950 . S
C535 C531 1.390 . S
C535 C534 1.374 . S
C536 C533 1.499 . S
C536 C537 1.373 1_565 S
C536 C538 1.389 . S
C537 H516 0.950 . S
C537 C536 1.373 1_545 S
C537 C553 1.377 . S
C538 C536 1.389 . S
C538 C539 1.524 1_554 S
C538 C552 1.377 1_554 S
C539 C538 1.524 1_556 S
C539 C540 1.397 1_556 S
C539 C544 1.363 . S
C540 H517 0.950 . S
C540 C539 1.397 1_554 S
C540 C541 1.334 1_554 S
C541 H518 0.950 1_556 S
C541 C540 1.334 1_556 S
C541 C542 1.287 . S
C542 C541 1.287 . S
C542 C543 1.524 . S
C542 H561 0.913 . S
C543 H519 0.950 . S
C543 C542 1.524 . S
C543 C544 1.415 . S
C544 H520 0.950 . S
C544 C539 1.363 . S
C544 C543 1.415 . S
C545 H521 0.951 . S
C545 C546 1.371 . S
C545 C547 1.388 . S
C546 C545 1.371 . S
C546 C550 1.379 1_565 S
C547 H522 0.951 . S
C547 C545 1.388 . S
C547 C548 1.352 1_565 S
C548 C547 1.352 1_545 S
C548 C549 1.427 . S
C548 C551 1.498 . S
C549 H523 0.950 . S
C549 C548 1.427 . S
C549 C550 1.374 . S
C550 H524 0.950 . S
C550 C546 1.379 1_545 S
C550 C549 1.374 . S
C551 C548 1.498 . S
C551 C552 1.351 1_545 S
C551 C553 1.410 1_556 S
C552 H525 0.950 . S
C552 C538 1.377 1_556 S
C552 C551 1.351 1_565 S
C553 C537 1.377 . S
C553 C551 1.410 1_554 S
C553 C554 1.524 . S
C554 C553 1.524 . S
C554 C555 1.397 . S
C554 C559 1.363 . S
C555 H526 0.950 1_554 S
C555 C554 1.397 . S
C555 C556 1.334 . S
C556 H527 0.950 . S
C556 C555 1.334 . S
C556 C557 1.287 . S
C557 C556 1.287 . S
C557 C558 1.524 . S
C557 H560 0.999 . S
C558 H528 0.950 . S
C558 C557 1.524 . S
C558 C559 1.415 . S
C559 H529 0.950 . S
C559 C554 1.363 . S
C559 C558 1.415 . S
H560 C557 0.999 . S
H561 C542 0.913 . S
H562 C580 0.951 . S
H563 C582 0.951 . S
H564 C584 0.950 . S
H565 C585 0.950 . S
H566 C587 0.950 . S
H567 C590 0.950 . S
H568 C591 0.950 . S
H569 C593 0.950 . S
H570 C594 0.950 . S
H571 C595 0.951 . S
H572 C597 0.951 . S
H573 C599 0.950 . S
H574 C600 0.950 . S
H575 C602 0.950 . S
H576 C605 0.950 . S
H577 C606 0.950 . S
H578 C608 0.950 1_556 S
H579 C609 0.950 1_556 S
C580 H562 0.951 . S
C580 C581 1.366 . S
C580 C582 1.388 . S
C581 C580 1.366 . S
C581 C585 1.385 . S
C582 H563 0.951 . S
C582 C580 1.388 . S
C582 C583 1.366 . S
C583 C582 1.366 . S
C583 C584 1.414 . S
C583 C586 1.499 . S
C584 H564 0.950 . S
C584 C583 1.414 . S
C584 C585 1.374 . S
C585 H565 0.950 . S
C585 C581 1.385 . S
C585 C584 1.374 . S
C586 C583 1.499 . S
C586 C587 1.373 . S
C586 C588 1.389 . S
C587 H566 0.950 . S
C587 C586 1.373 . S
C587 C603 1.377 . S
C588 C586 1.389 . S
C588 C589 1.524 . S
C588 C602 1.377 1_554 S
C589 C588 1.524 . S
C589 C590 1.397 . S
C589 C594 1.363 . S
C590 H567 0.950 . S
C590 C589 1.397 . S
C590 C591 1.334 . S
C591 H568 0.950 . S
C591 C590 1.334 . S
C591 C592 1.287 . S
C592 C591 1.287 . S
C592 C593 1.524 . S
C592 H611 0.913 . S
C593 H569 0.950 . S
C593 C592 1.524 . S
C593 C594 1.415 . S
C594 H570 0.950 . S
C594 C589 1.363 . S
C594 C593 1.415 . S
C595 H571 0.951 . S
C595 C596 1.366 . S
C595 C597 1.388 . S
C596 C595 1.366 . S
C596 C600 1.385 . S
C597 H572 0.951 . S
C597 C595 1.388 . S
C597 C598 1.366 . S
C598 C597 1.366 . S
C598 C599 1.414 . S
C598 C601 1.499 . S
C599 H573 0.950 . S
C599 C598 1.414 . S
C599 C600 1.374 . S
C600 H574 0.950 . S
C600 C596 1.385 . S
C600 C599 1.374 . S
C601 C598 1.499 . S
C601 C602 1.373 . S
C601 C603 1.389 1_556 S
C602 H575 0.950 . S
C602 C588 1.377 1_556 S
C602 C601 1.373 . S
C603 C587 1.377 . S
C603 C601 1.389 1_554 S
C603 C604 1.524 . S
C604 C603 1.524 . S
C604 C605 1.397 . S
C604 C609 1.363 . S
C605 H576 0.950 . S
C605 C604 1.397 . S
C605 C606 1.334 . S
C606 H577 0.950 . S
C606 C605 1.334 . S
C606 C607 1.287 . S
C607 C606 1.287 . S
C607 C608 1.524 . S
C607 H610 0.999 . S
C608 H578 0.950 1_554 S
C608 C607 1.524 . S
C608 C609 1.415 . S
C609 H579 0.950 1_554 S
C609 C604 1.363 . S
C609 C608 1.415 . S
H610 C607 0.999 . S
H611 C592 0.913 . S
H612 C630 0.951 . S
H613 C632 0.951 . S
H614 C634 0.950 . S
H615 C635 0.950 . S
H616 C637 0.950 . S
H617 C640 0.950 . S
H618 C641 0.950 1_554 S
H619 C643 0.950 . S
H620 C644 0.950 . S
H621 C645 0.951 . S
H622 C647 0.951 . S
H623 C649 0.950 . S
H624 C650 0.950 . S
H625 C652 0.950 . S
H626 C655 0.950 1_556 S
H627 C656 0.950 . S
H628 C658 0.950 . S
H629 C659 0.950 . S
C630 H612 0.951 . S
C630 C631 1.366 . S
C630 C632 1.388 . S
C631 C630 1.366 . S
C631 C635 1.385 . S
C632 H613 0.951 . S
C632 C630 1.388 . S
C632 C633 1.366 . S
C633 C632 1.366 . S
C633 C634 1.414 . S
C633 C636 1.499 . S
C634 H614 0.950 . S
C634 C633 1.414 . S
C634 C635 1.374 . S
C635 H615 0.950 . S
C635 C631 1.385 . S
C635 C634 1.374 . S
C636 C633 1.499 . S
C636 C637 1.373 . S
C636 C638 1.389 . S
C637 H616 0.950 . S
C637 C636 1.373 . S
C637 C653 1.377 . S
C638 C636 1.389 . S
C638 C639 1.524 1_554 S
C638 C652 1.377 1_554 S
C639 C638 1.524 1_556 S
C639 C640 1.397 1_556 S
C639 C644 1.363 . S
C640 H617 0.950 . S
C640 C639 1.397 1_554 S
C640 C641 1.334 1_554 S
C641 H618 0.950 1_556 S
C641 C640 1.334 1_556 S
C641 C642 1.287 . S
C642 C641 1.287 . S
C642 C643 1.524 . S
C642 H661 0.913 . S
C643 H619 0.950 . S
C643 C642 1.524 . S
C643 C644 1.415 . S
C644 H620 0.950 . S
C644 C639 1.363 . S
C644 C643 1.415 . S
C645 H621 0.951 . S
C645 C646 1.366 . S
C645 C647 1.388 . S
C646 C645 1.366 . S
C646 C650 1.385 . S
C647 H622 0.951 . S
C647 C645 1.388 . S
C647 C648 1.366 . S
C648 C647 1.366 . S
C648 C649 1.414 . S
C648 C651 1.499 . S
C649 H623 0.950 . S
C649 C648 1.414 . S
C649 C650 1.374 . S
C650 H624 0.950 . S
C650 C646 1.385 . S
C650 C649 1.374 . S
C651 C648 1.499 . S
C651 C652 1.373 . S
C651 C653 1.389 1_556 S
C652 H625 0.950 . S
C652 C638 1.377 1_556 S
C652 C651 1.373 . S
C653 C637 1.377 . S
C653 C651 1.389 1_554 S
C653 C654 1.524 . S
C654 C653 1.524 . S
C654 C655 1.397 . S
C654 C659 1.363 . S
C655 H626 0.950 1_554 S
C655 C654 1.397 . S
C655 C656 1.334 . S
C656 H627 0.950 . S
C656 C655 1.334 . S
C656 C657 1.287 . S
C657 C656 1.287 . S
C657 C658 1.524 . S
C657 H660 0.999 . S
C658 H628 0.950 . S
C658 C657 1.524 . S
C658 C659 1.415 . S
C659 H629 0.950 . S
C659 C654 1.363 . S
C659 C658 1.415 . S
H660 C657 0.999 . S
H661 C642 0.913 . S
H662 C680 0.951 . S
H663 C682 0.951 . S
H664 C684 0.950 . S
H665 C685 0.950 . S
H666 C687 0.950 . S
H667 C690 0.950 . S
H668 C691 0.950 . S
H669 C693 0.950 . S
H670 C694 0.950 . S
H671 C695 0.951 . S
H672 C697 0.951 . S
H673 C699 0.950 . S
H674 C700 0.950 . S
H675 C702 0.950 . S
H676 C705 0.950 . S
H677 C706 0.950 . S
H678 C708 0.950 . S
H679 C709 0.950 . S
C680 H662 0.951 . S
C680 C681 1.355 1_455 S
C680 C682 1.388 . S
C681 C680 1.355 1_655 S
C681 C685 1.395 . S
C682 H663 0.951 . S
C682 C680 1.388 . S
C682 C683 1.370 . S
C683 C682 1.370 . S
C683 C684 1.409 1_455 S
C683 C686 1.499 . S
C684 H664 0.950 . S
C684 C683 1.409 1_655 S
C684 C685 1.374 . S
C685 H665 0.950 . S
C685 C681 1.395 . S
C685 C684 1.374 . S
C686 C683 1.499 . S
C686 C687 1.366 1_455 S
C686 C688 1.396 . S
C687 H666 0.950 . S
C687 C686 1.366 1_655 S
C687 C703 1.377 1_554 S
C688 C686 1.396 . S
C688 C689 1.524 . S
C688 C702 1.377 . S
C689 C688 1.524 . S
C689 C690 1.397 . S
C689 C694 1.363 . S
C690 H667 0.950 . S
C690 C689 1.397 . S
C690 C691 1.334 . S
C691 H668 0.950 . S
C691 C690 1.334 . S
C691 C692 1.287 . S
C692 C691 1.287 . S
C692 C693 1.524 . S
C692 H711 0.913 . S
C693 H669 0.950 . S
C693 C692 1.524 . S
C693 C694 1.415 . S
C694 H670 0.950 . S
C694 C689 1.363 . S
C694 C693 1.415 . S
C695 H671 0.951 . S
C695 C696 1.375 . S
C695 C697 1.388 . S
C696 C695 1.375 . S
C696 C700 1.377 1_655 S
C697 H672 0.951 . S
C697 C695 1.388 . S
C697 C698 1.366 . S
C698 C697 1.366 . S
C698 C699 1.414 1_655 S
C698 C701 1.499 . S
C699 H673 0.950 . S
C699 C698 1.414 1_455 S
C699 C700 1.374 . S
C700 H674 0.950 . S
C700 C696 1.377 1_455 S
C700 C699 1.374 . S
C701 C698 1.499 . S
C701 C702 1.373 1_656 S
C701 C703 1.389 . S
C702 H675 0.950 . S
C702 C688 1.377 . S
C702 C701 1.373 1_454 S
C703 C687 1.377 1_556 S
C703 C701 1.389 . S
C703 C704 1.524 . S
C704 C703 1.524 . S
C704 C705 1.397 . S
C704 C709 1.363 . S
C705 H676 0.950 . S
C705 C704 1.397 . S
C705 C706 1.334 . S
C706 H677 0.950 . S
C706 C705 1.334 . S
C706 C707 1.287 . S
C707 C706 1.287 . S
C707 C708 1.524 . S
C707 H710 0.999 . S
C708 H678 0.950 . S
C708 C707 1.524 . S
C708 C709 1.415 . S
C709 H679 0.950 . S
C709 C704 1.363 . S
C709 C708 1.415 . S
H710 C707 0.999 . S
H711 C692 0.913 . S
H712 C730 0.951 . S
H713 C732 0.951 . S
H714 C734 0.950 . S
H715 C735 0.950 . S
H716 C737 0.950 . S
H717 C740 0.950 . S
H718 C741 0.950 . S
H719 C743 0.950 . S
H720 C744 0.950 . S
H721 C745 0.920 1_455 S
H722 C747 0.951 1_455 S
H723 C749 0.950 . S
H724 C750 0.950 . S
H725 C752 0.950 . S
H726 C755 0.950 . S
H727 C756 0.950 . S
H728 C758 0.950 . S
H729 C759 0.950 . S
C730 H712 0.951 . S
C730 C731 1.366 1_655 S
C730 C732 1.388 . S
C731 C730 1.366 1_455 S
C731 C735 1.385 . S
C732 H713 0.951 . S
C732 C730 1.388 . S
C732 C733 1.366 . S
C733 C732 1.366 . S
C733 C734 1.414 1_655 S
C733 C736 1.499 . S
C734 H714 0.950 . S
C734 C733 1.414 1_455 S
C734 C735 1.374 . S
C735 H715 0.950 . S
C735 C731 1.385 . S
C735 C734 1.374 . S
C736 C733 1.499 . S
C736 C737 1.373 1_655 S
C736 C738 1.389 . S
C737 H716 0.950 . S
C737 C736 1.373 1_455 S
C737 C753 1.377 . S
C738 C736 1.389 . S
C738 C739 1.524 . S
C738 C752 1.377 . S
C739 C738 1.524 . S
C739 C740 1.397 . S
C739 C744 1.363 . S
C740 H717 0.950 . S
C740 C739 1.397 . S
C740 C741 1.334 . S
C741 H718 0.950 . S
C741 C740 1.334 . S
C741 C742 1.287 . S
C742 C741 1.287 . S
C742 C743 1.524 . S
C742 H761 0.913 . S
C743 H719 0.950 . S
C743 C742 1.524 . S
C743 C744 1.415 . S
C744 H720 0.950 . S
C744 C739 1.363 . S
C744 C743 1.415 . S
C745 H721 0.920 1_655 S
C745 C746 1.366 . S
C745 C747 1.388 . S
C746 C745 1.366 . S
C746 C750 1.385 . S
C747 H722 0.951 1_655 S
C747 C745 1.388 . S
C747 C748 1.366 . S
C748 C747 1.366 . S
C748 C749 1.414 . S
C748 C751 1.499 . S
C749 H723 0.950 . S
C749 C748 1.414 . S
C749 C750 1.374 . S
C750 H724 0.950 . S
C750 C746 1.385 . S
C750 C749 1.374 . S
C751 C748 1.499 . S
C751 C752 1.373 . S
C751 C753 1.389 1_655 S
C752 H725 0.950 . S
C752 C738 1.377 . S
C752 C751 1.373 . S
C753 C737 1.377 . S
C753 C751 1.389 1_455 S
C753 C754 1.524 . S
C754 C753 1.524 . S
C754 C755 1.397 . S
C754 C759 1.363 . S
C755 H726 0.950 . S
C755 C754 1.397 . S
C755 C756 1.334 . S
C756 H727 0.950 . S
C756 C755 1.334 . S
C756 C757 1.287 . S
C757 C756 1.287 . S
C757 C758 1.524 . S
C757 H760 0.999 . S
C758 H728 0.950 . S
C758 C757 1.524 . S
C758 C759 1.415 . S
C759 H729 0.950 . S
C759 C754 1.363 . S
C759 C758 1.415 . S
H760 C757 0.999 . S
H761 C742 0.913 . S
H762 C780 0.951 . S
H763 C782 0.951 . S
H764 C784 0.950 . S
H765 C785 0.950 . S
H766 C787 0.950 . S
H767 C790 0.950 1_565 S
H768 C791 0.950 . S
H769 C793 0.950 . S
H770 C794 0.950 . S
H771 C795 0.951 . S
H772 C797 0.951 . S
H773 C799 0.950 . S
H774 C800 0.987 . S
H775 C802 0.950 . S
H776 C805 0.950 . S
H777 C806 0.950 . S
H778 C808 0.950 . S
H779 C809 0.950 . S
C780 H762 0.951 . S
C780 C781 1.366 . S
C780 C782 1.388 . S
C781 C780 1.366 . S
C781 C785 1.385 1_545 S
C782 H763 0.951 . S
C782 C780 1.388 . S
C782 C783 1.366 1_545 S
C783 C782 1.366 1_565 S
C783 C784 1.414 . S
C783 C786 1.499 . S
C784 H764 0.950 . S
C784 C783 1.414 . S
C784 C785 1.374 . S
C785 H765 0.950 . S
C785 C781 1.385 1_565 S
C785 C784 1.374 . S
C786 C783 1.499 . S
C786 C787 1.373 . S
C786 C788 1.389 1_565 S
C787 H766 0.950 . S
C787 C786 1.373 . S
C787 C803 1.377 . S
C788 C786 1.389 1_545 S
C788 C789 1.524 . S
C788 C802 1.377 . S
C789 C788 1.524 . S
C789 C790 1.397 . S
C789 C794 1.363 . S
C790 H767 0.950 1_545 S
C790 C789 1.397 . S
C790 C791 1.334 1_554 S
C791 H768 0.950 . S
C791 C790 1.334 1_556 S
C791 C792 1.287 . S
C792 C791 1.287 . S
C792 C793 1.524 1_556 S
C792 H811 0.913 . S
C793 H769 0.950 . S
C793 C792 1.524 1_554 S
C793 C794 1.415 . S
C794 H770 0.950 . S
C794 C789 1.363 . S
C794 C793 1.415 . S
C795 H771 0.951 . S
C795 C796 1.366 . S
C795 C797 1.388 . S
C796 C795 1.366 . S
C796 C800 1.342 1_565 S
C797 H772 0.951 . S
C797 C795 1.388 . S
C797 C798 1.366 . S
C798 C797 1.366 . S
C798 C799 1.414 1_565 S
C798 C801 1.499 . S
C799 H773 0.950 . S
C799 C798 1.414 1_545 S
C799 C800 1.380 . S
C800 H774 0.987 . S
C800 C796 1.342 1_545 S
C800 C799 1.380 . S
C801 C798 1.499 . S
C801 C802 1.373 1_565 S
C801 C803 1.389 . S
C802 H775 0.950 . S
C802 C788 1.377 . S
C802 C801 1.373 1_545 S
C803 C787 1.377 . S
C803 C801 1.389 . S
C803 C804 1.524 . S
C804 C803 1.524 . S
C804 C805 1.397 . S
C804 C809 1.363 . S
C805 H776 0.950 . S
C805 C804 1.397 . S
C805 C806 1.334 . S
C806 H777 0.950 . S
C806 C805 1.334 . S
C806 C807 1.287 . S
C807 C806 1.287 . S
C807 C808 1.524 . S
C807 H810 0.999 . S
C808 H778 0.950 . S
C808 C807 1.524 . S
C808 C809 1.415 . S
C809 H779 0.950 . S
C809 C804 1.363 . S
C809 C808 1.415 . S
H810 C807 0.999 . S
H811 C792 0.913 . S
H812 C830 0.951 . S
H813 C832 0.951 . S
H814 C834 0.950 . S
H815 C835 0.950 . S
H816 C837 0.950 . S
H817 C840 0.950 . S
H818 C841 0.950 . S
H819 C843 0.950 . S
H820 C844 0.950 . S
H821 C845 0.951 . S
H822 C847 0.951 . S
H823 C849 0.950 . S
H824 C850 0.950 . S
H825 C852 0.950 . S
H826 C855 0.950 . S
H827 C856 0.950 . S
H828 C858 0.950 . S
H829 C859 0.950 . S
C830 H812 0.951 . S
C830 C831 1.366 . S
C830 C832 1.388 . S
C831 C830 1.366 . S
C831 C835 1.385 . S
C832 H813 0.951 . S
C832 C830 1.388 . S
C832 C833 1.366 . S
C833 C832 1.366 . S
C833 C834 1.414 . S
C833 C836 1.499 . S
C834 H814 0.950 . S
C834 C833 1.414 . S
C834 C835 1.374 . S
C835 H815 0.950 . S
C835 C831 1.385 . S
C835 C834 1.374 . S
C836 C833 1.499 . S
C836 C837 1.373 . S
C836 C838 1.389 . S
C837 H816 0.950 . S
C837 C836 1.373 . S
C837 C853 1.377 . S
C838 C836 1.389 . S
C838 C839 1.524 . S
C838 C852 1.377 . S
C839 C838 1.524 . S
C839 C840 1.397 . S
C839 C844 1.363 . S
C840 H817 0.950 . S
C840 C839 1.397 . S
C840 C841 1.334 . S
C841 H818 0.950 . S
C841 C840 1.334 . S
C841 C842 1.287 . S
C842 C841 1.287 . S
C842 C843 1.524 . S
C842 H861 0.913 . S
C843 H819 0.950 . S
C843 C842 1.524 . S
C843 C844 1.415 . S
C844 H820 0.950 . S
C844 C839 1.363 . S
C844 C843 1.415 . S
C845 H821 0.951 . S
C845 C846 1.366 . S
C845 C847 1.388 . S
C846 C845 1.366 . S
C846 C850 1.385 . S
C847 H822 0.951 . S
C847 C845 1.388 . S
C847 C848 1.366 . S
C848 C847 1.366 . S
C848 C849 1.414 . S
C848 C851 1.499 . S
C849 H823 0.950 . S
C849 C848 1.414 . S
C849 C850 1.374 . S
C850 H824 0.950 . S
C850 C846 1.385 . S
C850 C849 1.374 . S
C851 C848 1.499 . S
C851 C852 1.373 . S
C851 C853 1.389 . S
C852 H825 0.950 . S
C852 C838 1.377 . S
C852 C851 1.373 . S
C853 C837 1.377 . S
C853 C851 1.389 . S
C853 C854 1.524 . S
C854 C853 1.524 . S
C854 C855 1.397 . S
C854 C859 1.363 . S
C855 H826 0.950 . S
C855 C854 1.397 . S
C855 C856 1.334 . S
C856 H827 0.950 . S
C856 C855 1.334 . S
C856 C857 1.287 . S
C857 C856 1.287 . S
C857 C858 1.524 . S
C857 H860 0.999 . S
C858 H828 0.950 . S
C858 C857 1.524 . S
C858 C859 1.415 . S
C859 H829 0.950 . S
C859 C854 1.363 . S
C859 C858 1.415 . S
H860 C857 0.999 . S
H861 C842 0.913 . S
H862 C880 0.951 . S
H863 C882 0.951 . S
H864 C884 0.950 . S
H865 C885 0.950 . S
H866 C887 0.950 . S
H867 C890 0.950 . S
H868 C891 0.950 . S
H869 C893 0.950 . S
H870 C894 0.950 . S
H871 C895 0.951 . S
H872 C897 0.951 . S
H873 C899 0.950 . S
H874 C900 0.950 . S
H875 C902 0.950 . S
H876 C905 0.950 . S
H877 C906 0.950 . S
H878 C908 0.950 . S
H879 C909 0.950 . S
C880 H862 0.951 . S
C880 C881 1.366 . S
C880 C882 1.388 . S
C881 C880 1.366 . S
C881 C885 1.385 . S
C882 H863 0.951 . S
C882 C880 1.388 . S
C882 C883 1.366 . S
C883 C882 1.366 . S
C883 C884 1.414 . S
C883 C886 1.499 . S
C884 H864 0.950 . S
C884 C883 1.414 . S
C884 C885 1.374 . S
C885 H865 0.950 . S
C885 C881 1.385 . S
C885 C884 1.374 . S
C886 C883 1.499 . S
C886 C887 1.373 . S
C886 C888 1.389 . S
C887 H866 0.950 . S
C887 C886 1.373 . S
C887 C903 1.377 . S
C888 C886 1.389 . S
C888 C889 1.524 . S
C888 C902 1.377 . S
C889 C888 1.524 . S
C889 C890 1.397 . S
C889 C894 1.363 . S
C890 H867 0.950 . S
C890 C889 1.397 . S
C890 C891 1.334 . S
C891 H868 0.950 . S
C891 C890 1.334 . S
C891 C892 1.287 . S
C892 C891 1.287 . S
C892 C893 1.524 . S
C892 H911 0.913 . S
C893 H869 0.950 . S
C893 C892 1.524 . S
C893 C894 1.415 . S
C894 H870 0.950 . S
C894 C889 1.363 . S
C894 C893 1.415 . S
C895 H871 0.951 . S
C895 C896 1.366 . S
C895 C897 1.388 . S
C896 C895 1.366 . S
C896 C900 1.385 . S
C897 H872 0.951 . S
C897 C895 1.388 . S
C897 C898 1.366 . S
C898 C897 1.366 . S
C898 C899 1.414 . S
C898 C901 1.499 . S
C899 H873 0.950 . S
C899 C898 1.414 . S
C899 C900 1.374 . S
C900 H874 0.950 . S
C900 C896 1.385 . S
C900 C899 1.374 . S
C901 C898 1.499 . S
C901 C902 1.373 . S
C901 C903 1.389 . S
C902 H875 0.950 . S
C902 C888 1.377 . S
C902 C901 1.373 . S
C903 C887 1.377 . S
C903 C901 1.389 . S
C903 C904 1.524 . S
C904 C903 1.524 . S
C904 C905 1.397 . S
C904 C909 1.363 . S
C905 H876 0.950 . S
C905 C904 1.397 . S
C905 C906 1.334 . S
C906 H877 0.950 . S
C906 C905 1.334 . S
C906 C907 1.287 . S
C907 C906 1.287 . S
C907 C908 1.524 . S
C907 H910 0.999 . S
C908 H878 0.950 . S
C908 C907 1.524 . S
C908 C909 1.415 . S
C909 H879 0.950 . S
C909 C904 1.363 . S
C909 C908 1.415 . S
H910 C907 0.999 . S
H911 C892 0.913 . S
H912 C930 0.951 . S
H913 C932 0.951 . S
H914 C934 0.950 . S
H915 C935 0.950 . S
H916 C937 0.950 . S
H917 C940 0.950 . S
H918 C941 0.950 . S
H919 C943 0.950 . S
H920 C944 0.950 . S
H921 C945 0.951 . S
H922 C947 0.951 . S
H923 C949 0.950 . S
H924 C950 0.950 . S
H925 C952 0.950 . S
H926 C955 0.950 . S
H927 C956 0.950 . S
H928 C958 0.950 . S
H929 C959 0.950 . S
C930 H912 0.951 . S
C930 C931 1.366 . S
C930 C932 1.388 . S
C931 C930 1.366 . S
C931 C935 1.385 1_655 S
C932 H913 0.951 . S
C932 C930 1.388 . S
C932 C933 1.366 1_655 S
C933 C932 1.366 1_455 S
C933 C934 1.414 . S
C933 C936 1.499 . S
C934 H914 0.950 . S
C934 C933 1.414 . S
C934 C935 1.374 . S
C935 H915 0.950 . S
C935 C931 1.385 1_455 S
C935 C934 1.374 . S
C936 C933 1.499 . S
C936 C937 1.373 . S
C936 C938 1.389 1_455 S
C937 H916 0.950 . S
C937 C936 1.373 . S
C937 C953 1.377 . S
C938 C936 1.389 1_655 S
C938 C939 1.524 . S
C938 C952 1.377 . S
C939 C938 1.524 . S
C939 C940 1.397 . S
C939 C944 1.363 . S
C940 H917 0.950 . S
C940 C939 1.397 . S
C940 C941 1.334 . S
C941 H918 0.950 . S
C941 C940 1.334 . S
C941 C942 1.287 . S
C942 C941 1.287 . S
C942 C943 1.524 . S
C942 H961 0.913 . S
C943 H919 0.950 . S
C943 C942 1.524 . S
C943 C944 1.415 . S
C944 H920 0.950 . S
C944 C939 1.363 . S
C944 C943 1.415 . S
C945 H921 0.951 . S
C945 C946 1.366 . S
C945 C947 1.388 . S
C946 C945 1.366 . S
C946 C950 1.385 1_556 S
C947 H922 0.951 . S
C947 C945 1.388 . S
C947 C948 1.366 1_556 S
C948 C947 1.366 1_554 S
C948 C949 1.414 . S
C948 C951 1.499 . S
C949 H923 0.950 . S
C949 C948 1.414 . S
C949 C950 1.374 . S
C950 H924 0.950 . S
C950 C946 1.385 1_554 S
C950 C949 1.374 . S
C951 C948 1.499 . S
C951 C952 1.373 1_455 S
C951 C953 1.389 . S
C952 H925 0.950 . S
C952 C938 1.377 . S
C952 C951 1.373 1_655 S
C953 C937 1.377 . S
C953 C951 1.389 . S
C953 C954 1.524 . S
C954 C953 1.524 . S
C954 C955 1.397 . S
C954 C959 1.363 1_554 S
C955 H926 0.950 . S
C955 C954 1.397 . S
C955 C956 1.334 . S
C956 H927 0.950 . S
C956 C955 1.334 . S
C956 C957 1.287 1_554 S
C957 C956 1.287 1_556 S
C957 C958 1.524 . S
C957 H960 0.999 . S
C958 H928 0.950 . S
C958 C957 1.524 . S
C958 C959 1.415 . S
C959 H929 0.950 . S
C959 C954 1.363 1_556 S
C959 C958 1.415 . S
H960 C957 0.999 . S
H961 C942 0.913 . S
H962 C980 0.960 . S
H963 C982 0.951 . S
H964 C984 0.950 . S
H965 C985 0.950 . S
H966 C987 0.950 . S
H967 C990 0.950 . S
H968 C991 0.950 . S
H969 C993 0.950 . S
H970 C994 0.950 1_556 S
H971 C995 0.951 . S
H972 C997 0.951 . S
H973 C999 0.950 . S
H974 C1000 0.950 . S
H975 C1002 0.950 . S
H976 C1005 0.950 . S
H977 C1006 0.950 . S
H978 C1008 0.950 . S
H979 C1009 0.950 . S
C980 H962 0.960 . S
C980 C981 1.366 . S
C980 C982 1.381 1_565 S
C981 C980 1.366 . S
C981 C985 1.377 1_565 S
C982 H963 0.951 . S
C982 C980 1.381 1_545 S
C982 C983 1.366 . S
C983 C982 1.366 . S
C983 C984 1.414 . S
C983 C986 1.499 . S
C984 H964 0.950 . S
C984 C983 1.414 . S
C984 C985 1.374 . S
C985 H965 0.950 . S
C985 C981 1.377 1_545 S
C985 C984 1.374 . S
C986 C983 1.499 . S
C986 C987 1.373 1_545 S
C986 C988 1.389 . S
C987 H966 0.950 . S
C987 C986 1.373 1_565 S
C987 C1003 1.377 . S
C988 C986 1.389 . S
C988 C989 1.524 . S
C988 C1002 1.377 . S
C989 C988 1.524 . S
C989 C990 1.397 . S
C989 C994 1.363 . S
C990 H967 0.950 . S
C990 C989 1.397 . S
C990 C991 1.334 . S
C991 H968 0.950 . S
C991 C990 1.334 . S
C991 C992 1.287 . S
C992 C991 1.287 . S
C992 C993 1.524 1_554 S
C992 H1011 0.913 . S
C993 H969 0.950 . S
C993 C992 1.524 1_556 S
C993 C994 1.415 1_556 S
C994 H970 0.950 1_554 S
C994 C989 1.363 . S
C994 C993 1.415 1_554 S
C995 H971 0.951 . S
C995 C996 1.366 1_554 S
C995 C997 1.388 . S
C996 C995 1.366 1_556 S
C996 C1000 1.385 . S
C997 H972 0.951 . S
C997 C995 1.388 . S
C997 C998 1.366 . S
C998 C997 1.366 . S
C998 C999 1.414 1_554 S
C998 C1001 1.499 . S
C999 H973 0.950 . S
C999 C998 1.414 1_556 S
C999 C1000 1.374 . S
C1000 H974 0.950 . S
C1000 C996 1.385 . S
C1000 C999 1.374 . S
C1001 C998 1.499 . S
C1001 C1002 1.373 . S
C1001 C1003 1.389 1_545 S
C1002 H975 0.950 . S
C1002 C988 1.377 . S
C1002 C1001 1.373 . S
C1003 C987 1.377 . S
C1003 C1001 1.389 1_565 S
C1003 C1004 1.524 . S
C1004 C1003 1.524 . S
C1004 C1005 1.397 . S
C1004 C1009 1.363 . S
C1005 H976 0.950 . S
C1005 C1004 1.397 . S
C1005 C1006 1.334 . S
C1006 H977 0.950 . S
C1006 C1005 1.334 . S
C1006 C1007 1.287 . S
C1007 C1006 1.287 . S
C1007 C1008 1.524 . S
C1007 H1010 0.999 . S
C1008 H978 0.950 . S
C1008 C1007 1.524 . S
C1008 C1009 1.415 . S
C1009 H979 0.950 . S
C1009 C1004 1.363 . S
C1009 C1008 1.415 . S
H1010 C1007 0.999 . S
H1011 C992 0.913 . S
H1012 C1030 0.951 . S
H1013 C1032 0.951 . S
H1014 C1034 0.950 . S
H1015 C1035 0.950 . S
H1016 C1037 0.950 . S
H1017 C1040 0.950 . S
H1018 C1041 0.950 . S
H1019 C1043 0.950 . S
H1020 C1044 0.950 . S
H1021 C1045 0.951 . S
H1022 C1047 0.951 . S
H1023 C1049 0.950 . S
H1024 C1050 0.950 . S
H1025 C1052 0.950 . S
H1026 C1055 0.950 1_554 S
H1027 C1056 0.950 . S
H1028 C1058 0.950 . S
H1029 C1059 0.950 . S
C1030 H1012 0.951 . S
C1030 C1031 1.366 . S
C1030 C1032 1.388 . S
C1031 C1030 1.366 . S
C1031 C1035 1.385 . S
C1032 H1013 0.951 . S
C1032 C1030 1.388 . S
C1032 C1033 1.366 . S
C1033 C1032 1.366 . S
C1033 C1034 1.414 . S
C1033 C1036 1.499 . S
C1034 H1014 0.950 . S
C1034 C1033 1.414 . S
C1034 C1035 1.374 . S
C1035 H1015 0.950 . S
C1035 C1031 1.385 . S
C1035 C1034 1.374 . S
C1036 C1033 1.499 . S
C1036 C1037 1.373 . S
C1036 C1038 1.389 . S
C1037 H1016 0.950 . S
C1037 C1036 1.373 . S
C1037 C1053 1.377 . S
C1038 C1036 1.389 . S
C1038 C1039 1.524 . S
C1038 C1052 1.377 . S
C1039 C1038 1.524 . S
C1039 C1040 1.397 . S
C1039 C1044 1.363 . S
C1040 H1017 0.950 . S
C1040 C1039 1.397 . S
C1040 C1041 1.334 . S
C1041 H1018 0.950 . S
C1041 C1040 1.334 . S
C1041 C1042 1.287 . S
C1042 C1041 1.287 . S
C1042 C1043 1.524 . S
C1042 H1061 0.913 . S
C1043 H1019 0.950 . S
C1043 C1042 1.524 . S
C1043 C1044 1.415 . S
C1044 H1020 0.950 . S
C1044 C1039 1.363 . S
C1044 C1043 1.415 . S
C1045 H1021 0.951 . S
C1045 C1046 1.366 . S
C1045 C1047 1.388 . S
C1046 C1045 1.366 . S
C1046 C1050 1.385 1_556 S
C1047 H1022 0.951 . S
C1047 C1045 1.388 . S
C1047 C1048 1.366 1_556 S
C1048 C1047 1.366 1_554 S
C1048 C1049 1.414 . S
C1048 C1051 1.499 . S
C1049 H1023 0.950 . S
C1049 C1048 1.414 . S
C1049 C1050 1.374 . S
C1050 H1024 0.950 . S
C1050 C1046 1.385 1_554 S
C1050 C1049 1.374 . S
C1051 C1048 1.499 . S
C1051 C1052 1.373 . S
C1051 C1053 1.389 . S
C1052 H1025 0.950 . S
C1052 C1038 1.377 . S
C1052 C1051 1.373 . S
C1053 C1037 1.377 . S
C1053 C1051 1.389 . S
C1053 C1054 1.524 1_554 S
C1054 C1053 1.524 1_556 S
C1054 C1055 1.397 . S
C1054 C1059 1.363 . S
C1055 H1026 0.950 1_556 S
C1055 C1054 1.397 . S
C1055 C1056 1.334 . S
C1056 H1027 0.950 . S
C1056 C1055 1.334 . S
C1056 C1057 1.287 . S
C1057 C1056 1.287 . S
C1057 C1058 1.524 . S
C1057 H1060 0.999 . S
C1058 H1028 0.950 . S
C1058 C1057 1.524 . S
C1058 C1059 1.415 . S
C1059 H1029 0.950 . S
C1059 C1054 1.363 . S
C1059 C1058 1.415 . S
H1060 C1057 0.999 . S
H1061 C1042 0.913 . S
H1062 C1080 0.951 . S
H1063 C1082 0.951 . S
H1064 C1084 0.950 . S
H1065 C1085 0.950 . S
H1066 C1087 0.950 . S
H1067 C1090 0.950 . S
H1068 C1091 0.950 . S
H1069 C1093 0.950 . S
H1070 C1094 0.950 . S
H1071 C1095 0.951 . S
H1072 C1097 0.951 . S
H1073 C1099 0.950 . S
H1074 C1100 0.950 . S
H1075 C1102 0.950 . S
H1076 C1105 0.950 . S
H1077 C1106 0.950 . S
H1078 C1108 0.950 . S
H1079 C1109 0.950 . S
C1080 H1062 0.951 . S
C1080 C1081 1.366 . S
C1080 C1082 1.388 . S
C1081 C1080 1.366 . S
C1081 C1085 1.385 . S
C1082 H1063 0.951 . S
C1082 C1080 1.388 . S
C1082 C1083 1.366 . S
C1083 C1082 1.366 . S
C1083 C1084 1.414 . S
C1083 C1086 1.499 . S
C1084 H1064 0.950 . S
C1084 C1083 1.414 . S
C1084 C1085 1.374 . S
C1085 H1065 0.950 . S
C1085 C1081 1.385 . S
C1085 C1084 1.374 . S
C1086 C1083 1.499 . S
C1086 C1087 1.373 . S
C1086 C1088 1.389 . S
C1087 H1066 0.950 . S
C1087 C1086 1.373 . S
C1087 C1103 1.377 . S
C1088 C1086 1.389 . S
C1088 C1089 1.524 . S
C1088 C1102 1.377 . S
C1089 C1088 1.524 . S
C1089 C1090 1.397 . S
C1089 C1094 1.363 1_554 S
C1090 H1067 0.950 . S
C1090 C1089 1.397 . S
C1090 C1091 1.334 . S
C1091 H1068 0.950 . S
C1091 C1090 1.334 . S
C1091 C1092 1.287 1_554 S
C1092 C1091 1.287 1_556 S
C1092 C1093 1.524 . S
C1092 H1111 0.913 . S
C1093 H1069 0.950 . S
C1093 C1092 1.524 . S
C1093 C1094 1.415 . S
C1094 H1070 0.950 . S
C1094 C1089 1.363 1_556 S
C1094 C1093 1.415 . S
C1095 H1071 0.951 . S
C1095 C1096 1.366 1_554 S
C1095 C1097 1.388 . S
C1096 C1095 1.366 1_556 S
C1096 C1100 1.385 . S
C1097 H1072 0.951 . S
C1097 C1095 1.388 . S
C1097 C1098 1.366 . S
C1098 C1097 1.366 . S
C1098 C1099 1.414 1_554 S
C1098 C1101 1.499 . S
C1099 H1073 0.950 . S
C1099 C1098 1.414 1_556 S
C1099 C1100 1.374 . S
C1100 H1074 0.950 . S
C1100 C1096 1.385 . S
C1100 C1099 1.374 . S
C1101 C1098 1.499 . S
C1101 C1102 1.373 . S
C1101 C1103 1.389 . S
C1102 H1075 0.950 . S
C1102 C1088 1.377 . S
C1102 C1101 1.373 . S
C1103 C1087 1.377 . S
C1103 C1101 1.389 . S
C1103 C1104 1.524 . S
C1104 C1103 1.524 . S
C1104 C1105 1.397 . S
C1104 C1109 1.363 . S
C1105 H1076 0.950 . S
C1105 C1104 1.397 . S
C1105 C1106 1.334 . S
C1106 H1077 0.950 . S
C1106 C1105 1.334 . S
C1106 C1107 1.287 . S
C1107 C1106 1.287 . S
C1107 C1108 1.524 . S
C1107 H1110 0.999 . S
C1108 H1078 0.950 . S
C1108 C1107 1.524 . S
C1108 C1109 1.415 . S
C1109 H1079 0.950 . S
C1109 C1104 1.363 . S
C1109 C1108 1.415 . S
H1110 C1107 0.999 . S
H1111 C1092 0.913 . S
H1112 C1130 0.951 . S
H1113 C1132 0.951 . S
H1114 C1134 0.950 . S
H1115 C1135 0.950 . S
H1116 C1137 0.950 . S
H1117 C1140 0.950 1_455 S
H1118 C1141 0.950 . S
H1119 C1143 0.950 . S
H1120 C1144 0.950 . S
H1121 C1145 0.951 . S
H1122 C1147 0.951 . S
H1123 C1149 0.950 . S
H1124 C1150 0.950 . S
H1125 C1152 0.950 . S
H1126 C1155 0.950 . S
H1127 C1156 0.950 . S
H1128 C1158 0.950 . S
H1129 C1159 0.950 . S
C1130 H1112 0.951 . S
C1130 C1131 1.366 1_655 S
C1130 C1132 1.388 . S
C1131 C1130 1.366 1_455 S
C1131 C1135 1.385 . S
C1132 H1113 0.951 . S
C1132 C1130 1.388 . S
C1132 C1133 1.366 1_655 S
C1133 C1132 1.366 1_455 S
C1133 C1134 1.414 . S
C1133 C1136 1.499 . S
C1134 H1114 0.950 . S
C1134 C1133 1.414 . S
C1134 C1135 1.374 . S
C1135 H1115 0.950 . S
C1135 C1131 1.385 . S
C1135 C1134 1.374 . S
C1136 C1133 1.499 . S
C1136 C1137 1.373 . S
C1136 C1138 1.389 1_455 S
C1137 H1116 0.950 . S
C1137 C1136 1.373 . S
C1137 C1153 1.377 . S
C1138 C1136 1.389 1_655 S
C1138 C1139 1.524 . S
C1138 C1152 1.377 . S
C1139 C1138 1.524 . S
C1139 C1140 1.397 1_556 S
C1139 C1144 1.363 . S
C1140 H1117 0.950 1_655 S
C1140 C1139 1.397 1_554 S
C1140 C1141 1.334 . S
C1141 H1118 0.950 . S
C1141 C1140 1.334 . S
C1141 C1142 1.287 . S
C1142 C1141 1.287 . S
C1142 C1143 1.524 . S
C1142 H1161 0.913 . S
C1143 H1119 0.950 . S
C1143 C1142 1.524 . S
C1143 C1144 1.415 1_554 S
C1144 H1120 0.950 . S
C1144 C1139 1.363 . S
C1144 C1143 1.415 1_556 S
C1145 H1121 0.951 . S
C1145 C1146 1.366 . S
C1145 C1147 1.388 . S
C1146 C1145 1.366 . S
C1146 C1150 1.385 1_455 S
C1147 H1122 0.951 . S
C1147 C1145 1.388 . S
C1147 C1148 1.366 . S
C1148 C1147 1.366 . S
C1148 C1149 1.414 1_455 S
C1148 C1151 1.499 . S
C1149 H1123 0.950 . S
C1149 C1148 1.414 1_655 S
C1149 C1150 1.374 . S
C1150 H1124 0.950 . S
C1150 C1146 1.385 1_655 S
C1150 C1149 1.374 . S
C1151 C1148 1.499 . S
C1151 C1152 1.373 1_455 S
C1151 C1153 1.389 . S
C1152 H1125 0.950 . S
C1152 C1138 1.377 . S
C1152 C1151 1.373 1_655 S
C1153 C1137 1.377 . S
C1153 C1151 1.389 . S
C1153 C1154 1.524 . S
C1154 C1153 1.524 . S
C1154 C1155 1.397 . S
C1154 C1159 1.363 . S
C1155 H1126 0.950 . S
C1155 C1154 1.397 . S
C1155 C1156 1.334 . S
C1156 H1127 0.950 . S
C1156 C1155 1.334 . S
C1156 C1157 1.287 . S
C1157 C1156 1.287 . S
C1157 C1158 1.524 . S
C1157 H1160 0.999 . S
C1158 H1128 0.950 . S
C1158 C1157 1.524 . S
C1158 C1159 1.415 . S
C1159 H1129 0.950 . S
C1159 C1154 1.363 . S
C1159 C1158 1.415 . S
H1160 C1157 0.999 . S
H1161 C1142 0.913 . S
H1162 C1180 0.951 . S
H1163 C1182 0.951 . S
H1164 C1184 0.950 . S
H1165 C1185 0.950 . S
H1166 C1187 0.950 . S
H1167 C1190 0.950 . S
H1168 C1191 0.948 1_556 S
H1169 C1193 0.950 . S
H1170 C1194 0.950 . S
H1171 C1195 0.951 . S
H1172 C1197 0.951 . S
H1173 C1199 0.950 . S
H1174 C1200 0.940 1_565 S
H1175 C1202 0.950 . S
H1176 C1205 0.950 . S
H1177 C1206 0.950 . S
H1178 C1208 0.950 . S
H1179 C1209 0.950 . S
C1180 H1162 0.951 . S
C1180 C1181 1.366 1_565 S
C1180 C1182 1.388 . S
C1181 C1180 1.366 1_545 S
C1181 C1185 1.385 . S
C1182 H1163 0.951 . S
C1182 C1180 1.388 . S
C1182 C1183 1.366 1_565 S
C1183 C1182 1.366 1_545 S
C1183 C1184 1.414 . S
C1183 C1186 1.499 . S
C1184 H1164 0.950 . S
C1184 C1183 1.414 . S
C1184 C1185 1.374 . S
C1185 H1165 0.950 . S
C1185 C1181 1.385 . S
C1185 C1184 1.374 . S
C1186 C1183 1.499 . S
C1186 C1187 1.373 1_545 S
C1186 C1188 1.389 . S
C1187 H1166 0.950 . S
C1187 C1186 1.373 1_565 S
C1187 C1203 1.377 . S
C1188 C1186 1.389 . S
C1188 C1189 1.524 . S
C1188 C1202 1.377 . S
C1189 C1188 1.524 . S
C1189 C1190 1.397 . S
C1189 C1194 1.363 1_556 S
C1190 H1167 0.950 . S
C1190 C1189 1.397 . S
C1190 C1191 1.324 1_556 S
C1191 H1168 0.948 1_554 S
C1191 C1190 1.324 1_554 S
C1191 C1192 1.299 . S
C1192 C1191 1.299 . S
C1192 C1193 1.524 . S
C1192 H1211 0.913 . S
C1193 H1169 0.950 . S
C1193 C1192 1.524 . S
C1193 C1194 1.415 . S
C1194 H1170 0.950 . S
C1194 C1189 1.363 1_554 S
C1194 C1193 1.415 . S
C1195 H1171 0.951 . S
C1195 C1196 1.366 . S
C1195 C1197 1.388 . S
C1196 C1195 1.366 . S
C1196 C1200 1.399 . S
C1197 H1172 0.951 . S
C1197 C1195 1.388 . S
C1197 C1198 1.366 . S
C1198 C1197 1.366 . S
C1198 C1199 1.414 1_545 S
C1198 C1201 1.499 . S
C1199 H1173 0.950 . S
C1199 C1198 1.414 1_565 S
C1199 C1200 1.372 1_565 S
C1200 H1174 0.940 1_545 S
C1200 C1196 1.399 . S
C1200 C1199 1.372 1_545 S
C1201 C1198 1.499 . S
C1201 C1202 1.373 . S
C1201 C1203 1.389 1_545 S
C1202 H1175 0.950 . S
C1202 C1188 1.377 . S
C1202 C1201 1.373 . S
C1203 C1187 1.377 . S
C1203 C1201 1.389 1_565 S
C1203 C1204 1.524 . S
C1204 C1203 1.524 . S
C1204 C1205 1.397 . S
C1204 C1209 1.363 . S
C1205 H1176 0.950 . S
C1205 C1204 1.397 . S
C1205 C1206 1.334 . S
C1206 H1177 0.950 . S
C1206 C1205 1.334 . S
C1206 C1207 1.287 . S
C1207 C1206 1.287 . S
C1207 C1208 1.524 . S
C1207 H1210 0.999 . S
C1208 H1178 0.950 . S
C1208 C1207 1.524 . S
C1208 C1209 1.415 . S
C1209 H1179 0.950 . S
C1209 C1204 1.363 . S
C1209 C1208 1.415 . S
H1210 C1207 0.999 . S
H1211 C1192 0.913 . S
H1212 C1230 0.951 . S
H1213 C1232 0.951 . S
H1214 C1234 0.950 . S
H1215 C1235 0.950 . S
H1216 C1237 0.950 . S
H1217 C1240 0.950 . S
H1218 C1241 0.950 . S
H1219 C1243 0.950 . S
H1220 C1244 0.950 . S
H1221 C1245 0.951 . S
H1222 C1247 0.951 . S
H1223 C1249 0.950 . S
H1224 C1250 0.950 . S
H1225 C1252 0.950 . S
H1226 C1255 0.950 . S
H1227 C1256 0.950 . S
H1228 C1258 0.950 . S
H1229 C1259 0.950 . S
C1230 H1212 0.951 . S
C1230 C1231 1.366 . S
C1230 C1232 1.388 . S
C1231 C1230 1.366 . S
C1231 C1235 1.385 . S
C1232 H1213 0.951 . S
C1232 C1230 1.388 . S
C1232 C1233 1.366 . S
C1233 C1232 1.366 . S
C1233 C1234 1.414 . S
C1233 C1236 1.499 . S
C1234 H1214 0.950 . S
C1234 C1233 1.414 . S
C1234 C1235 1.374 . S
C1235 H1215 0.950 . S
C1235 C1231 1.385 . S
C1235 C1234 1.374 . S
C1236 C1233 1.499 . S
C1236 C1237 1.373 . S
C1236 C1238 1.389 . S
C1237 H1216 0.950 . S
C1237 C1236 1.373 . S
C1237 C1253 1.377 . S
C1238 C1236 1.389 . S
C1238 C1239 1.524 . S
C1238 C1252 1.377 . S
C1239 C1238 1.524 . S
C1239 C1240 1.397 . S
C1239 C1244 1.363 . S
C1240 H1217 0.950 . S
C1240 C1239 1.397 . S
C1240 C1241 1.334 . S
C1241 H1218 0.950 . S
C1241 C1240 1.334 . S
C1241 C1242 1.287 . S
C1242 C1241 1.287 . S
C1242 C1243 1.524 . S
C1242 H1261 0.913 . S
C1243 H1219 0.950 . S
C1243 C1242 1.524 . S
C1243 C1244 1.415 . S
C1244 H1220 0.950 . S
C1244 C1239 1.363 . S
C1244 C1243 1.415 . S
C1245 H1221 0.951 . S
C1245 C1246 1.366 . S
C1245 C1247 1.388 . S
C1246 C1245 1.366 . S
C1246 C1250 1.385 . S
C1247 H1222 0.951 . S
C1247 C1245 1.388 . S
C1247 C1248 1.366 . S
C1248 C1247 1.366 . S
C1248 C1249 1.414 . S
C1248 C1251 1.499 . S
C1249 H1223 0.950 . S
C1249 C1248 1.414 . S
C1249 C1250 1.374 . S
C1250 H1224 0.950 . S
C1250 C1246 1.385 . S
C1250 C1249 1.374 . S
C1251 C1248 1.499 . S
C1251 C1252 1.373 . S
C1251 C1253 1.389 . S
C1252 H1225 0.950 . S
C1252 C1238 1.377 . S
C1252 C1251 1.373 . S
C1253 C1237 1.377 . S
C1253 C1251 1.389 . S
C1253 C1254 1.524 . S
C1254 C1253 1.524 . S
C1254 C1255 1.397 . S
C1254 C1259 1.363 1_556 S
C1255 H1226 0.950 . S
C1255 C1254 1.397 . S
C1255 C1256 1.334 1_556 S
C1256 H1227 0.950 . S
C1256 C1255 1.334 1_554 S
C1256 C1257 1.287 . S
C1257 C1256 1.287 . S
C1257 C1258 1.524 . S
C1257 H1260 0.999 . S
C1258 H1228 0.950 . S
C1258 C1257 1.524 . S
C1258 C1259 1.415 . S
C1259 H1229 0.950 . S
C1259 C1254 1.363 1_554 S
C1259 C1258 1.415 . S
H1260 C1257 0.999 . S
H1261 C1242 0.913 . S
H1262 C1280 0.951 . S
H1263 C1282 0.951 . S
H1264 C1284 0.950 . S
H1265 C1285 0.950 . S
H1266 C1287 0.950 . S
H1267 C1290 0.950 . S
H1268 C1291 0.950 . S
H1269 C1293 0.950 1_554 S
H1270 C1294 0.950 . S
H1271 C1295 0.951 . S
H1272 C1297 0.951 . S
H1273 C1299 0.950 . S
H1274 C1300 0.950 . S
H1275 C1302 0.950 . S
H1276 C1305 0.950 . S
H1277 C1306 0.950 . S
H1278 C1308 0.950 . S
H1279 C1309 0.950 . S
C1280 H1262 0.951 . S
C1280 C1281 1.366 . S
C1280 C1282 1.388 . S
C1281 C1280 1.366 . S
C1281 C1285 1.385 . S
C1282 H1263 0.951 . S
C1282 C1280 1.388 . S
C1282 C1283 1.366 . S
C1283 C1282 1.366 . S
C1283 C1284 1.414 . S
C1283 C1286 1.499 . S
C1284 H1264 0.950 . S
C1284 C1283 1.414 . S
C1284 C1285 1.374 . S
C1285 H1265 0.950 . S
C1285 C1281 1.385 . S
C1285 C1284 1.374 . S
C1286 C1283 1.499 . S
C1286 C1287 1.373 . S
C1286 C1288 1.389 . S
C1287 H1266 0.950 . S
C1287 C1286 1.373 . S
C1287 C1303 1.377 . S
C1288 C1286 1.389 . S
C1288 C1289 1.524 . S
C1288 C1302 1.377 . S
C1289 C1288 1.524 . S
C1289 C1290 1.397 . S
C1289 C1294 1.363 . S
C1290 H1267 0.950 . S
C1290 C1289 1.397 . S
C1290 C1291 1.334 . S
C1291 H1268 0.950 . S
C1291 C1290 1.334 . S
C1291 C1292 1.287 . S
C1292 C1291 1.287 . S
C1292 C1293 1.524 . S
C1292 H1311 0.913 . S
C1293 H1269 0.950 1_556 S
C1293 C1292 1.524 . S
C1293 C1294 1.415 . S
C1294 H1270 0.950 . S
C1294 C1289 1.363 . S
C1294 C1293 1.415 . S
C1295 H1271 0.951 . S
C1295 C1296 1.366 . S
C1295 C1297 1.388 . S
C1296 C1295 1.366 . S
C1296 C1300 1.385 . S
C1297 H1272 0.951 . S
C1297 C1295 1.388 . S
C1297 C1298 1.366 . S
C1298 C1297 1.366 . S
C1298 C1299 1.414 . S
C1298 C1301 1.499 . S
C1299 H1273 0.950 . S
C1299 C1298 1.414 . S
C1299 C1300 1.374 . S
C1300 H1274 0.950 . S
C1300 C1296 1.385 . S
C1300 C1299 1.374 . S
C1301 C1298 1.499 . S
C1301 C1302 1.373 . S
C1301 C1303 1.389 . S
C1302 H1275 0.950 . S
C1302 C1288 1.377 . S
C1302 C1301 1.373 . S
C1303 C1287 1.377 . S
C1303 C1301 1.389 . S
C1303 C1304 1.524 . S
C1304 C1303 1.524 . S
C1304 C1305 1.397 . S
C1304 C1309 1.363 . S
C1305 H1276 0.950 . S
C1305 C1304 1.397 . S
C1305 C1306 1.334 . S
C1306 H1277 0.950 . S
C1306 C1305 1.334 . S
C1306 C1307 1.287 . S
C1307 C1306 1.287 . S
C1307 C1308 1.524 . S
C1307 H1310 0.999 . S
C1308 H1278 0.950 . S
C1308 C1307 1.524 . S
C1308 C1309 1.415 . S
C1309 H1279 0.950 . S
C1309 C1304 1.363 . S
C1309 C1308 1.415 . S
H1310 C1307 0.999 . S
H1311 C1292 0.913 . S
H1312 C1330 0.951 . S
H1313 C1332 0.951 . S
H1314 C1334 0.950 . S
H1315 C1335 0.950 . S
H1316 C1337 0.950 . S
H1317 C1340 0.950 . S
H1318 C1341 0.950 . S
H1319 C1343 0.950 1_455 S
H1320 C1344 0.950 . S
H1321 C1345 0.951 . S
H1322 C1347 0.951 . S
H1323 C1349 0.950 . S
H1324 C1350 0.950 . S
H1325 C1352 0.950 . S
H1326 C1355 0.950 . S
H1327 C1356 0.950 . S
H1328 C1358 0.950 . S
H1329 C1359 0.950 . S
C1330 H1312 0.951 . S
C1330 C1331 1.366 1_455 S
C1330 C1332 1.388 . S
C1331 C1330 1.366 1_655 S
C1331 C1335 1.385 . S
C1332 H1313 0.951 . S
C1332 C1330 1.388 . S
C1332 C1333 1.366 1_455 S
C1333 C1332 1.366 1_655 S
C1333 C1334 1.414 . S
C1333 C1336 1.499 . S
C1334 H1314 0.950 . S
C1334 C1333 1.414 . S
C1334 C1335 1.374 . S
C1335 H1315 0.950 . S
C1335 C1331 1.385 . S
C1335 C1334 1.374 . S
C1336 C1333 1.499 . S
C1336 C1337 1.373 . S
C1336 C1338 1.389 . S
C1337 H1316 0.950 . S
C1337 C1336 1.373 . S
C1337 C1353 1.377 . S
C1338 C1336 1.389 . S
C1338 C1339 1.524 . S
C1338 C1352 1.377 . S
C1339 C1338 1.524 . S
C1339 C1340 1.397 . S
C1339 C1344 1.363 1_655 S
C1340 H1317 0.950 . S
C1340 C1339 1.397 . S
C1340 C1341 1.334 . S
C1341 H1318 0.950 . S
C1341 C1340 1.334 . S
C1341 C1342 1.287 . S
C1342 C1341 1.287 . S
C1342 C1343 1.524 . S
C1342 H1361 0.913 . S
C1343 H1319 0.950 1_655 S
C1343 C1342 1.524 . S
C1343 C1344 1.415 1_655 S
C1344 H1320 0.950 . S
C1344 C1339 1.363 1_455 S
C1344 C1343 1.415 1_455 S
C1345 H1321 0.951 . S
C1345 C1346 1.366 . S
C1345 C1347 1.388 . S
C1346 C1345 1.366 . S
C1346 C1350 1.385 1_655 S
C1347 H1322 0.951 . S
C1347 C1345 1.388 . S
C1347 C1348 1.366 . S
C1348 C1347 1.366 . S
C1348 C1349 1.414 1_655 S
C1348 C1351 1.499 . S
C1349 H1323 0.950 . S
C1349 C1348 1.414 1_455 S
C1349 C1350 1.374 . S
C1350 H1324 0.950 . S
C1350 C1346 1.385 1_455 S
C1350 C1349 1.374 . S
C1351 C1348 1.499 . S
C1351 C1352 1.373 . S
C1351 C1353 1.389 . S
C1352 H1325 0.950 . S
C1352 C1338 1.377 . S
C1352 C1351 1.373 . S
C1353 C1337 1.377 . S
C1353 C1351 1.389 . S
C1353 C1354 1.524 1_655 S
C1354 C1353 1.524 1_455 S
C1354 C1355 1.397 . S
C1354 C1359 1.363 1_455 S
C1355 H1326 0.950 . S
C1355 C1354 1.397 . S
C1355 C1356 1.334 . S
C1356 H1327 0.950 . S
C1356 C1355 1.334 . S
C1356 C1357 1.287 . S
C1357 C1356 1.287 . S
C1357 C1358 1.524 1_455 S
C1357 H1360 0.999 . S
C1358 H1328 0.950 . S
C1358 C1357 1.524 1_655 S
C1358 C1359 1.415 . S
C1359 H1329 0.950 . S
C1359 C1354 1.363 1_655 S
C1359 C1358 1.415 . S
H1360 C1357 0.999 . S
H1361 C1342 0.913 . S
H1362 C1380 0.951 . S
H1363 C1382 0.951 . S
H1364 C1384 0.950 . S
H1365 C1385 0.950 . S
H1366 C1387 0.950 . S
H1367 C1390 0.950 . S
H1368 C1391 0.950 . S
H1369 C1393 0.950 . S
H1370 C1394 0.950 . S
H1371 C1395 0.951 . S
H1372 C1397 0.951 . S
H1373 C1399 0.950 . S
H1374 C1400 0.950 . S
H1375 C1402 0.950 . S
H1376 C1405 0.884 1_565 S
H1377 C1406 0.950 . S
H1378 C1408 0.950 . S
H1379 C1409 0.950 . S
C1380 H1362 0.951 . S
C1380 C1381 1.415 . S
C1380 C1382 1.388 . S
C1381 C1380 1.415 . S
C1381 C1385 1.338 1_565 S
C1382 H1363 0.951 . S
C1382 C1380 1.388 . S
C1382 C1383 1.366 . S
C1383 C1382 1.366 . S
C1383 C1384 1.414 1_565 S
C1383 C1386 1.499 . S
C1384 H1364 0.950 . S
C1384 C1383 1.414 1_545 S
C1384 C1385 1.374 . S
C1385 H1365 0.950 . S
C1385 C1381 1.338 1_545 S
C1385 C1384 1.374 . S
C1386 C1383 1.499 . S
C1386 C1387 1.373 1_565 S
C1386 C1388 1.389 . S
C1387 H1366 0.950 . S
C1387 C1386 1.373 1_545 S
C1387 C1403 1.377 . S
C1388 C1386 1.389 . S
C1388 C1389 1.524 . S
C1388 C1402 1.377 . S
C1389 C1388 1.524 . S
C1389 C1390 1.397 . S
C1389 C1394 1.363 . S
C1390 H1367 0.950 . S
C1390 C1389 1.397 . S
C1390 C1391 1.334 . S
C1391 H1368 0.950 . S
C1391 C1390 1.334 . S
C1391 C1392 1.287 . S
C1392 C1391 1.287 . S
C1392 C1393 1.524 . S
C1392 H1411 0.913 . S
C1393 H1369 0.950 . S
C1393 C1392 1.524 . S
C1393 C1394 1.415 . S
C1394 H1370 0.950 . S
C1394 C1389 1.363 . S
C1394 C1393 1.415 . S
C1395 H1371 0.951 . S
C1395 C1396 1.366 1_545 S
C1395 C1397 1.388 . S
C1396 C1395 1.366 1_565 S
C1396 C1400 1.385 . S
C1397 H1372 0.951 . S
C1397 C1395 1.388 . S
C1397 C1398 1.366 1_545 S
C1398 C1397 1.366 1_565 S
C1398 C1399 1.414 . S
C1398 C1401 1.499 . S
C1399 H1373 0.950 . S
C1399 C1398 1.414 . S
C1399 C1400 1.374 . S
C1400 H1374 0.950 . S
C1400 C1396 1.385 . S
C1400 C1399 1.374 . S
C1401 C1398 1.499 . S
C1401 C1402 1.373 . S
C1401 C1403 1.389 1_565 S
C1402 H1375 0.950 . S
C1402 C1388 1.377 . S
C1402 C1401 1.373 . S
C1403 C1387 1.377 . S
C1403 C1401 1.389 1_545 S
C1403 C1404 1.524 . S
C1404 C1403 1.524 . S
C1404 C1405 1.397 . S
C1404 C1409 1.363 . S
C1405 H1376 0.884 1_545 S
C1405 C1404 1.397 . S
C1405 C1406 1.334 . S
C1406 H1377 0.950 . S
C1406 C1405 1.334 . S
C1406 C1407 1.287 . S
C1407 C1406 1.287 . S
C1407 C1408 1.524 . S
C1407 H1410 0.999 . S
C1408 H1378 0.950 . S
C1408 C1407 1.524 . S
C1408 C1409 1.415 . S
C1409 H1379 0.950 . S
C1409 C1404 1.363 . S
C1409 C1408 1.415 . S
H1410 C1407 0.999 . S
H1411 C1392 0.913 . S
H1412 C1430 0.951 . S
H1413 C1432 0.951 . S
H1414 C1434 0.950 . S
H1415 C1435 0.950 . S
H1416 C1437 0.950 . S
H1417 C1440 0.950 . S
H1418 C1441 0.950 . S
H1419 C1443 0.950 . S
H1420 C1444 0.950 . S
H1421 C1445 0.951 . S
H1422 C1447 0.951 . S
H1423 C1449 0.950 . S
H1424 C1450 0.950 . S
H1425 C1452 0.950 . S
H1426 C1455 0.950 . S
H1427 C1456 0.950 . S
H1428 C1458 0.950 . S
H1429 C1459 0.950 . S
C1430 H1412 0.951 . S
C1430 C1431 1.366 . S
C1430 C1432 1.388 . S
C1431 C1430 1.366 . S
C1431 C1435 1.385 . S
C1432 H1413 0.951 . S
C1432 C1430 1.388 . S
C1432 C1433 1.366 . S
C1433 C1432 1.366 . S
C1433 C1434 1.414 . S
C1433 C1436 1.499 . S
C1434 H1414 0.950 . S
C1434 C1433 1.414 . S
C1434 C1435 1.374 . S
C1435 H1415 0.950 . S
C1435 C1431 1.385 . S
C1435 C1434 1.374 . S
C1436 C1433 1.499 . S
C1436 C1437 1.373 . S
C1436 C1438 1.389 . S
C1437 H1416 0.950 . S
C1437 C1436 1.373 . S
C1437 C1453 1.377 . S
C1438 C1436 1.389 . S
C1438 C1439 1.524 . S
C1438 C1452 1.377 . S
C1439 C1438 1.524 . S
C1439 C1440 1.397 . S
C1439 C1444 1.363 . S
C1440 H1417 0.950 . S
C1440 C1439 1.397 . S
C1440 C1441 1.334 . S
C1441 H1418 0.950 . S
C1441 C1440 1.334 . S
C1441 C1442 1.287 . S
C1442 C1441 1.287 . S
C1442 C1443 1.524 . S
C1442 H1461 0.913 . S
C1443 H1419 0.950 . S
C1443 C1442 1.524 . S
C1443 C1444 1.415 . S
C1444 H1420 0.950 . S
C1444 C1439 1.363 . S
C1444 C1443 1.415 . S
C1445 H1421 0.951 . S
C1445 C1446 1.366 . S
C1445 C1447 1.388 . S
C1446 C1445 1.366 . S
C1446 C1450 1.385 . S
C1447 H1422 0.951 . S
C1447 C1445 1.388 . S
C1447 C1448 1.366 . S
C1448 C1447 1.366 . S
C1448 C1449 1.414 . S
C1448 C1451 1.499 . S
C1449 H1423 0.950 . S
C1449 C1448 1.414 . S
C1449 C1450 1.374 . S
C1450 H1424 0.950 . S
C1450 C1446 1.385 . S
C1450 C1449 1.374 . S
C1451 C1448 1.499 . S
C1451 C1452 1.373 . S
C1451 C1453 1.389 . S
C1452 H1425 0.950 . S
C1452 C1438 1.377 . S
C1452 C1451 1.373 . S
C1453 C1437 1.377 . S
C1453 C1451 1.389 . S
C1453 C1454 1.524 . S
C1454 C1453 1.524 . S
C1454 C1455 1.397 . S
C1454 C1459 1.363 . S
C1455 H1426 0.950 . S
C1455 C1454 1.397 . S
C1455 C1456 1.334 . S
C1456 H1427 0.950 . S
C1456 C1455 1.334 . S
C1456 C1457 1.287 . S
C1457 C1456 1.287 . S
C1457 C1458 1.524 . S
C1457 H1460 0.999 . S
C1458 H1428 0.950 . S
C1458 C1457 1.524 . S
C1458 C1459 1.415 . S
C1459 H1429 0.950 . S
C1459 C1454 1.363 . S
C1459 C1458 1.415 . S
H1460 C1457 0.999 . S
H1461 C1442 0.913 . S
H1462 C1480 0.951 . S
H1463 C1482 0.951 . S
H1464 C1484 0.950 . S
H1465 C1485 0.950 . S
H1466 C1487 0.950 . S
H1467 C1490 0.950 . S
H1468 C1491 0.950 . S
H1469 C1493 0.950 . S
H1470 C1494 0.950 . S
H1471 C1495 0.951 . S
H1472 C1497 0.951 . S
H1473 C1499 0.950 . S
H1474 C1500 0.950 . S
H1475 C1502 0.950 . S
H1476 C1505 0.950 . S
H1477 C1506 0.950 . S
H1478 C1508 0.950 . S
H1479 C1509 0.950 . S
C1480 H1462 0.951 . S
C1480 C1481 1.366 . S
C1480 C1482 1.388 . S
C1481 C1480 1.366 . S
C1481 C1485 1.385 . S
C1482 H1463 0.951 . S
C1482 C1480 1.388 . S
C1482 C1483 1.366 . S
C1483 C1482 1.366 . S
C1483 C1484 1.414 . S
C1483 C1486 1.499 . S
C1484 H1464 0.950 . S
C1484 C1483 1.414 . S
C1484 C1485 1.374 . S
C1485 H1465 0.950 . S
C1485 C1481 1.385 . S
C1485 C1484 1.374 . S
C1486 C1483 1.499 . S
C1486 C1487 1.373 . S
C1486 C1488 1.389 . S
C1487 H1466 0.950 . S
C1487 C1486 1.373 . S
C1487 C1503 1.377 . S
C1488 C1486 1.389 . S
C1488 C1489 1.524 . S
C1488 C1502 1.377 . S
C1489 C1488 1.524 . S
C1489 C1490 1.397 . S
C1489 C1494 1.363 . S
C1490 H1467 0.950 . S
C1490 C1489 1.397 . S
C1490 C1491 1.334 . S
C1491 H1468 0.950 . S
C1491 C1490 1.334 . S
C1491 C1492 1.287 . S
C1492 C1491 1.287 . S
C1492 C1493 1.524 . S
C1492 H1511 0.913 . S
C1493 H1469 0.950 . S
C1493 C1492 1.524 . S
C1493 C1494 1.415 . S
C1494 H1470 0.950 . S
C1494 C1489 1.363 . S
C1494 C1493 1.415 . S
C1495 H1471 0.951 . S
C1495 C1496 1.366 . S
C1495 C1497 1.388 . S
C1496 C1495 1.366 . S
C1496 C1500 1.385 . S
C1497 H1472 0.951 . S
C1497 C1495 1.388 . S
C1497 C1498 1.366 . S
C1498 C1497 1.366 . S
C1498 C1499 1.414 . S
C1498 C1501 1.499 . S
C1499 H1473 0.950 . S
C1499 C1498 1.414 . S
C1499 C1500 1.374 . S
C1500 H1474 0.950 . S
C1500 C1496 1.385 . S
C1500 C1499 1.374 . S
C1501 C1498 1.499 . S
C1501 C1502 1.373 . S
C1501 C1503 1.389 . S
C1502 H1475 0.950 . S
C1502 C1488 1.377 . S
C1502 C1501 1.373 . S
C1503 C1487 1.377 . S
C1503 C1501 1.389 . S
C1503 C1504 1.524 . S
C1504 C1503 1.524 . S
C1504 C1505 1.397 . S
C1504 C1509 1.363 . S
C1505 H1476 0.950 . S
C1505 C1504 1.397 . S
C1505 C1506 1.334 . S
C1506 H1477 0.950 . S
C1506 C1505 1.334 . S
C1506 C1507 1.287 . S
C1507 C1506 1.287 . S
C1507 C1508 1.524 . S
C1507 H1510 0.999 . S
C1508 H1478 0.950 . S
C1508 C1507 1.524 . S
C1508 C1509 1.415 . S
C1509 H1479 0.950 . S
C1509 C1504 1.363 . S
C1509 C1508 1.415 . S
H1510 C1507 0.999 . S
H1511 C1492 0.913 . S
C331 C125 1.822 1_545 S
C346 C154 1.864 1_545 S
C396 C194 1.868 . S
C381 C144 1.823 . S
C446 C234 1.868 . S
C431 C87 1.823 . S
C496 C274 1.865 1_455 S
C481 C106 1.814 1_455 S
C546 C167 1.867 1_565 S
C531 C49 1.827 . S
C581 C68 1.823 . S
C596 C207 1.868 . S
C631 C11 1.823 . S
C646 C247 1.868 . S
C681 C30 1.830 . S
C696 C287 1.866 1_655 S
C746 C178 0.371 . S
C731 C97 0.473 . S
C796 C218 0.369 . S
C781 C116 0.468 . S
C846 C258 0.371 . S
C831 C135 0.466 . S
C881 C78 0.466 . S
C896 C298 0.370 . S
C931 C21 0.470 . S
C946 C161 0.369 . S
C996 C201 0.371 . S
C981 C40 0.463 . S
C1046 C241 0.370 . S
C1031 C59 0.466 . S
C1081 C2 0.464 . S
C1096 C281 0.371 . S
C1131 C101 1.933 . S
C1146 C155 2.114 . S
C1181 C120 1.934 . S
C1196 C195 2.114 . S
C1246 C235 2.114 . S
C1231 C139 1.931 . S
C1296 C275 2.114 . S
C1281 C82 1.930 . S
C1331 C25 1.931 . S
C1346 C174 2.114 . S
C1396 C214 2.114 . S
C1381 C44 1.931 . S
C1446 C254 2.114 . S
C1431 C63 1.930 . S
C1481 C6 1.931 . S
C1496 C294 2.115 . S
