# Generated by pormake.
# Topology bwt, (3,3)-cn, num edge types: 1
# Building blocks:
#     Node 0, Type 0, BuildingBlock: OLANEW_clean_sbu_2, # of connection points: 3
#     Node 1, Type 0, BuildingBlock: OLANEW_clean_sbu_2, # of connection points: 3
#     Node 2, Type 0, BuildingBlock: OLANEW_clean_sbu_2, # of connection points: 3
#     Node 3, Type 0, BuildingBlock: OLANEW_clean_sbu_2, # of connection points: 3
#     Node 4, Type 0, BuildingBlock: OLANEW_clean_sbu_2, # of connection points: 3
#     Node 5, Type 0, BuildingBlock: OLANEW_clean_sbu_2, # of connection points: 3
#     Node 6, Type 0, BuildingBlock: OLANEW_clean_sbu_2, # of connection points: 3
#     Node 7, Type 0, BuildingBlock: OLANEW_clean_sbu_2, # of connection points: 3
#     Node 8, Type 0, BuildingBlock: OLANEW_clean_sbu_2, # of connection points: 3
#     Node 9, Type 0, BuildingBlock: OLANEW_clean_sbu_2, # of connection points: 3
#     Node 10, Type 0, BuildingBlock: OLANEW_clean_sbu_2, # of connection points: 3
#     Node 11, Type 0, BuildingBlock: OLANEW_clean_sbu_2, # of connection points: 3
#     Node 12, Type 0, BuildingBlock: OLANEW_clean_sbu_2, # of connection points: 3
#     Node 13, Type 0, BuildingBlock: OLANEW_clean_sbu_2, # of connection points: 3
#     Node 14, Type 0, BuildingBlock: OLANEW_clean_sbu_2, # of connection points: 3
#     Node 15, Type 0, BuildingBlock: OLANEW_clean_sbu_2, # of connection points: 3
#     Node 16, Type 0, BuildingBlock: OLANEW_clean_sbu_2, # of connection points: 3
#     Node 17, Type 0, BuildingBlock: OLANEW_clean_sbu_2, # of connection points: 3
#     Node 18, Type 0, BuildingBlock: OLANEW_clean_sbu_2, # of connection points: 3
#     Node 19, Type 0, BuildingBlock: OLANEW_clean_sbu_2, # of connection points: 3
#     Node 20, Type 0, BuildingBlock: OLANEW_clean_sbu_2, # of connection points: 3
#     Node 21, Type 0, BuildingBlock: OLANEW_clean_sbu_2, # of connection points: 3
#     Node 22, Type 0, BuildingBlock: OLANEW_clean_sbu_2, # of connection points: 3
#     Node 23, Type 0, BuildingBlock: OLANEW_clean_sbu_2, # of connection points: 3
#     Node 24, Type 1, BuildingBlock: PAMTOO_clean_linker_0, # of connection points: 3
#     Node 25, Type 1, BuildingBlock: PAMTOO_clean_linker_0, # of connection points: 3
#     Node 26, Type 1, BuildingBlock: PAMTOO_clean_linker_0, # of connection points: 3
#     Node 27, Type 1, BuildingBlock: PAMTOO_clean_linker_0, # of connection points: 3
#     Node 28, Type 1, BuildingBlock: PAMTOO_clean_linker_0, # of connection points: 3
#     Node 29, Type 1, BuildingBlock: PAMTOO_clean_linker_0, # of connection points: 3
#     Node 30, Type 1, BuildingBlock: PAMTOO_clean_linker_0, # of connection points: 3
#     Node 31, Type 1, BuildingBlock: PAMTOO_clean_linker_0, # of connection points: 3
#     Node 32, Type 1, BuildingBlock: PAMTOO_clean_linker_0, # of connection points: 3
#     Node 33, Type 1, BuildingBlock: PAMTOO_clean_linker_0, # of connection points: 3
#     Node 34, Type 1, BuildingBlock: PAMTOO_clean_linker_0, # of connection points: 3
#     Node 35, Type 1, BuildingBlock: PAMTOO_clean_linker_0, # of connection points: 3
#     Node 36, Type 1, BuildingBlock: PAMTOO_clean_linker_0, # of connection points: 3
#     Node 37, Type 1, BuildingBlock: PAMTOO_clean_linker_0, # of connection points: 3
#     Node 38, Type 1, BuildingBlock: PAMTOO_clean_linker_0, # of connection points: 3
#     Node 39, Type 1, BuildingBlock: PAMTOO_clean_linker_0, # of connection points: 3
#     Node 40, Type 1, BuildingBlock: PAMTOO_clean_linker_0, # of connection points: 3
#     Node 41, Type 1, BuildingBlock: PAMTOO_clean_linker_0, # of connection points: 3
#     Node 42, Type 1, BuildingBlock: PAMTOO_clean_linker_0, # of connection points: 3
#     Node 43, Type 1, BuildingBlock: PAMTOO_clean_linker_0, # of connection points: 3
#     Node 44, Type 1, BuildingBlock: PAMTOO_clean_linker_0, # of connection points: 3
#     Node 45, Type 1, BuildingBlock: PAMTOO_clean_linker_0, # of connection points: 3
#     Node 46, Type 1, BuildingBlock: PAMTOO_clean_linker_0, # of connection points: 3
#     Node 47, Type 1, BuildingBlock: PAMTOO_clean_linker_0, # of connection points: 3
#     Edge 48, Type (0, 1), BuildingBlock: XUDNAN_clean_linker_2, # of connection points: 2
#     Edge 49, Type (0, 1), BuildingBlock: XUDNAN_clean_linker_2, # of connection points: 2
#     Edge 50, Type (0, 1), BuildingBlock: XUDNAN_clean_linker_2, # of connection points: 2
#     Edge 51, Type (0, 1), BuildingBlock: XUDNAN_clean_linker_2, # of connection points: 2
#     Edge 52, Type (0, 1), BuildingBlock: XUDNAN_clean_linker_2, # of connection points: 2
#     Edge 53, Type (0, 1), BuildingBlock: XUDNAN_clean_linker_2, # of connection points: 2
#     Edge 54, Type (0, 1), BuildingBlock: XUDNAN_clean_linker_2, # of connection points: 2
#     Edge 55, Type (0, 1), BuildingBlock: XUDNAN_clean_linker_2, # of connection points: 2
#     Edge 56, Type (0, 1), BuildingBlock: XUDNAN_clean_linker_2, # of connection points: 2
#     Edge 57, Type (0, 1), BuildingBlock: XUDNAN_clean_linker_2, # of connection points: 2
#     Edge 58, Type (0, 1), BuildingBlock: XUDNAN_clean_linker_2, # of connection points: 2
#     Edge 59, Type (0, 1), BuildingBlock: XUDNAN_clean_linker_2, # of connection points: 2
#     Edge 60, Type (0, 1), BuildingBlock: XUDNAN_clean_linker_2, # of connection points: 2
#     Edge 61, Type (0, 1), BuildingBlock: XUDNAN_clean_linker_2, # of connection points: 2
#     Edge 62, Type (0, 1), BuildingBlock: XUDNAN_clean_linker_2, # of connection points: 2
#     Edge 63, Type (0, 1), BuildingBlock: XUDNAN_clean_linker_2, # of connection points: 2
#     Edge 64, Type (0, 1), BuildingBlock: XUDNAN_clean_linker_2, # of connection points: 2
#     Edge 65, Type (0, 1), BuildingBlock: XUDNAN_clean_linker_2, # of connection points: 2
#     Edge 66, Type (0, 1), BuildingBlock: XUDNAN_clean_linker_2, # of connection points: 2
#     Edge 67, Type (0, 1), BuildingBlock: XUDNAN_clean_linker_2, # of connection points: 2
#     Edge 68, Type (0, 1), BuildingBlock: XUDNAN_clean_linker_2, # of connection points: 2
#     Edge 69, Type (0, 1), BuildingBlock: XUDNAN_clean_linker_2, # of connection points: 2
#     Edge 70, Type (0, 1), BuildingBlock: XUDNAN_clean_linker_2, # of connection points: 2
#     Edge 71, Type (0, 1), BuildingBlock: XUDNAN_clean_linker_2, # of connection points: 2
#     Edge 72, Type (0, 1), BuildingBlock: XUDNAN_clean_linker_2, # of connection points: 2
#     Edge 73, Type (0, 1), BuildingBlock: XUDNAN_clean_linker_2, # of connection points: 2
#     Edge 74, Type (0, 1), BuildingBlock: XUDNAN_clean_linker_2, # of connection points: 2
#     Edge 75, Type (0, 1), BuildingBlock: XUDNAN_clean_linker_2, # of connection points: 2
#     Edge 76, Type (0, 1), BuildingBlock: XUDNAN_clean_linker_2, # of connection points: 2
#     Edge 77, Type (0, 1), BuildingBlock: XUDNAN_clean_linker_2, # of connection points: 2
#     Edge 78, Type (0, 1), BuildingBlock: XUDNAN_clean_linker_2, # of connection points: 2
#     Edge 79, Type (0, 1), BuildingBlock: XUDNAN_clean_linker_2, # of connection points: 2
#     Edge 80, Type (0, 1), BuildingBlock: XUDNAN_clean_linker_2, # of connection points: 2
#     Edge 81, Type (0, 1), BuildingBlock: XUDNAN_clean_linker_2, # of connection points: 2
#     Edge 82, Type (0, 1), BuildingBlock: XUDNAN_clean_linker_2, # of connection points: 2
#     Edge 83, Type (0, 1), BuildingBlock: XUDNAN_clean_linker_2, # of connection points: 2
#     Edge 84, Type (0, 1), BuildingBlock: XUDNAN_clean_linker_2, # of connection points: 2
#     Edge 85, Type (0, 1), BuildingBlock: XUDNAN_clean_linker_2, # of connection points: 2
#     Edge 86, Type (0, 1), BuildingBlock: XUDNAN_clean_linker_2, # of connection points: 2
#     Edge 87, Type (0, 1), BuildingBlock: XUDNAN_clean_linker_2, # of connection points: 2
#     Edge 88, Type (0, 1), BuildingBlock: XUDNAN_clean_linker_2, # of connection points: 2
#     Edge 89, Type (0, 1), BuildingBlock: XUDNAN_clean_linker_2, # of connection points: 2
#     Edge 90, Type (0, 1), BuildingBlock: XUDNAN_clean_linker_2, # of connection points: 2
#     Edge 91, Type (0, 1), BuildingBlock: XUDNAN_clean_linker_2, # of connection points: 2
#     Edge 92, Type (0, 1), BuildingBlock: XUDNAN_clean_linker_2, # of connection points: 2
#     Edge 93, Type (0, 1), BuildingBlock: XUDNAN_clean_linker_2, # of connection points: 2
#     Edge 94, Type (0, 1), BuildingBlock: XUDNAN_clean_linker_2, # of connection points: 2
#     Edge 95, Type (0, 1), BuildingBlock: XUDNAN_clean_linker_2, # of connection points: 2
#     Edge 96, Type (0, 1), BuildingBlock: XUDNAN_clean_linker_2, # of connection points: 2
#     Edge 97, Type (0, 1), BuildingBlock: XUDNAN_clean_linker_2, # of connection points: 2
#     Edge 98, Type (0, 1), BuildingBlock: XUDNAN_clean_linker_2, # of connection points: 2
#     Edge 99, Type (0, 1), BuildingBlock: XUDNAN_clean_linker_2, # of connection points: 2
#     Edge 100, Type (0, 1), BuildingBlock: XUDNAN_clean_linker_2, # of connection points: 2
#     Edge 101, Type (0, 1), BuildingBlock: XUDNAN_clean_linker_2, # of connection points: 2
#     Edge 102, Type (0, 1), BuildingBlock: XUDNAN_clean_linker_2, # of connection points: 2
#     Edge 103, Type (0, 1), BuildingBlock: XUDNAN_clean_linker_2, # of connection points: 2
#     Edge 104, Type (0, 1), BuildingBlock: XUDNAN_clean_linker_2, # of connection points: 2
#     Edge 105, Type (0, 1), BuildingBlock: XUDNAN_clean_linker_2, # of connection points: 2
#     Edge 106, Type (0, 1), BuildingBlock: XUDNAN_clean_linker_2, # of connection points: 2
#     Edge 107, Type (0, 1), BuildingBlock: XUDNAN_clean_linker_2, # of connection points: 2
#     Edge 108, Type (0, 1), BuildingBlock: XUDNAN_clean_linker_2, # of connection points: 2
#     Edge 109, Type (0, 1), BuildingBlock: XUDNAN_clean_linker_2, # of connection points: 2
#     Edge 110, Type (0, 1), BuildingBlock: XUDNAN_clean_linker_2, # of connection points: 2
#     Edge 111, Type (0, 1), BuildingBlock: XUDNAN_clean_linker_2, # of connection points: 2
#     Edge 112, Type (0, 1), BuildingBlock: XUDNAN_clean_linker_2, # of connection points: 2
#     Edge 113, Type (0, 1), BuildingBlock: XUDNAN_clean_linker_2, # of connection points: 2
#     Edge 114, Type (0, 1), BuildingBlock: XUDNAN_clean_linker_2, # of connection points: 2
#     Edge 115, Type (0, 1), BuildingBlock: XUDNAN_clean_linker_2, # of connection points: 2
#     Edge 116, Type (0, 1), BuildingBlock: XUDNAN_clean_linker_2, # of connection points: 2
#     Edge 117, Type (0, 1), BuildingBlock: XUDNAN_clean_linker_2, # of connection points: 2
#     Edge 118, Type (0, 1), BuildingBlock: XUDNAN_clean_linker_2, # of connection points: 2
#     Edge 119, Type (0, 1), BuildingBlock: XUDNAN_clean_linker_2, # of connection points: 2
# Relax obj value: 0.061
# Max RMSD: 0.118
# Mean RMSD: 0.060
data_MOF--net-bwt--node1-OLANEW_clean_sbu_2--node2-PAMTOO_clean_linker_0--edge1-XUDNAN_clean_linker_2
_symmetry_space_group_name_H-M    P1
_symmetry_Int_Tables_number       1
_symmetry_cell_setting            triclinic
loop_
_symmetry_equiv_pos_as_xyz
'x, y, z'
_cell_length_a     60.092347
_cell_length_b     60.044635
_cell_length_c     59.99045
_cell_angle_alpha  94.732321
_cell_angle_beta   94.733843
_cell_angle_gamma 94.751324
loop_
_atom_site_label
_atom_site_type_symbol
_atom_site_fract_x
_atom_site_fract_y
_atom_site_fract_z
_atom_type_partial_charge
O0 O 0.27703 0.57525 0.39434 0.0
Cd1 Cd 0.28778 0.59435 0.3619 0.0
O2 O 0.29161 0.60373 0.41784 0.0
Cd3 Cd 0.31211 0.61797 0.3933 0.0
O4 O 0.347 0.62196 0.38569 0.0
C5 C 0.36064 0.63188 0.4014 0.0
O6 O 0.35263 0.64041 0.41964 0.0
C7 C 0.27999 0.58491 0.41416 0.0
C8 C 0.24821 0.60564 0.33983 0.0
O9 O 0.25679 0.58749 0.3338 0.0
O10 O 0.25882 0.61889 0.35575 0.0
O11 O 0.23769 0.45326 0.77911 0.0
Cd12 Cd 0.22055 0.42407 0.7504 0.0
O13 O 0.22913 0.4319 0.80583 0.0
Cd14 Cd 0.20859 0.40673 0.78316 0.0
O15 O 0.1815 0.38953 0.76017 0.0
C16 C 0.16687 0.40172 0.75255 0.0
O17 O 0.16925 0.42338 0.7586 0.0
C18 C 0.23863 0.4499 0.79983 0.0
C19 C 0.2545 0.40311 0.73061 0.0
O20 O 0.24355 0.41712 0.72021 0.0
O21 O 0.24912 0.3986 0.75006 0.0
O22 O 0.66155 0.94433 0.60387 0.0
Cd23 Cd 0.65103 0.93515 0.64073 0.0
O24 O 0.69479 0.95369 0.62138 0.0
Cd25 Cd 0.73002 0.9669 0.62479 0.0
O26 O 0.76552 0.97854 0.63059 0.0
C27 C 0.77174 0.9994 0.63357 0.0
O28 O 0.75649 0.01385 0.63285 0.0
C29 C 0.68197 0.95143 0.60322 0.0
C30 C 0.61787 0.96023 0.65685 0.0
O31 O 0.63844 0.96824 0.65862 0.0
O32 O 0.61288 0.94038 0.64722 0.0
O33 O 0.82115 0.03255 0.2578 0.0
Cd34 Cd 0.84557 0.04031 0.29272 0.0
O35 O 0.79366 0.04012 0.27818 0.0
Cd36 Cd 0.75801 0.04098 0.28237 0.0
O37 O 0.72166 0.03489 0.27765 0.0
C38 C 0.7136 0.01832 0.26401 0.0
O39 O 0.72742 0.00599 0.25375 0.0
C40 C 0.80043 0.03463 0.25913 0.0
C41 C 0.88774 0.02469 0.29003 0.0
O42 O 0.87142 0.01225 0.29625 0.0
O43 O 0.88403 0.04444 0.2849 0.0
O44 O 0.37142 0.27955 0.5741 0.0
Cd45 Cd 0.33242 0.28138 0.58247 0.0
O46 O 0.38472 0.30296 0.6032 0.0
Cd47 Cd 0.35162 0.3114 0.61125 0.0
O48 O 0.32538 0.33424 0.60979 0.0
C49 C 0.31859 0.33932 0.5904 0.0
O50 O 0.3265 0.32941 0.57275 0.0
C51 C 0.38804 0.28991 0.58625 0.0
C52 C 0.31345 0.23824 0.58681 0.0
O53 O 0.31199 0.24667 0.56785 0.0
O54 O 0.32347 0.25043 0.60383 0.0
O55 O 0.22156 0.7747 0.9864 0.0
Cd56 Cd 0.26226 0.777 0.99512 0.0
O57 O 0.21603 0.74451 0.00435 0.0
Cd58 Cd 0.25131 0.73843 0.00915 0.0
O59 O 0.2781 0.71615 0.00708 0.0
C60 C 0.28578 0.71161 0.98828 0.0
O61 O 0.27854 0.72181 0.97089 0.0
C62 C 0.20821 0.75992 0.99355 0.0
C63 C 0.28302 0.81543 0.97986 0.0
O64 O 0.28112 0.79656 0.96789 0.0
O65 O 0.27527 0.8161 0.99915 0.0
O66 O 0.79251 0.25828 0.39359 0.0
Cd67 Cd 0.76111 0.24319 0.3665 0.0
O68 O 0.78227 0.23712 0.41992 0.0
Cd69 Cd 0.75587 0.21598 0.3992 0.0
O70 O 0.73659 0.18387 0.38878 0.0
C71 C 0.73768 0.16933 0.40298 0.0
O72 O 0.74939 0.17489 0.42242 0.0
C73 C 0.79529 0.25265 0.41355 0.0
C74 C 0.72402 0.26584 0.37637 0.0
O75 O 0.72774 0.24743 0.38477 0.0
O76 O 0.73748 0.27323 0.36262 0.0
O77 O 0.62089 0.66499 0.96281 0.0
Cd78 Cd 0.65729 0.65573 0.95114 0.0
O79 O 0.6307 0.70116 0.96507 0.0
Cd80 Cd 0.62651 0.73678 0.97271 0.0
O81 O 0.63097 0.77287 0.9827 0.0
C82 C 0.64006 0.7796 0.00225 0.0
O83 O 0.64592 0.76465 0.0159 0.0
C84 C 0.61599 0.68503 0.96674 0.0
C85 C 0.67228 0.62003 0.9733 0.0
O86 O 0.6787 0.64039 0.98067 0.0
O87 O 0.65893 0.61654 0.95533 0.0
O88 O 0.57602 0.38104 0.29639 0.0
Cd89 Cd 0.58503 0.34204 0.29495 0.0
O90 O 0.60953 0.39602 0.30985 0.0
Cd91 Cd 0.61867 0.36314 0.31799 0.0
O92 O 0.61416 0.34191 0.34529 0.0
C93 C 0.60168 0.3498 0.35955 0.0
O94 O 0.59284 0.36865 0.35605 0.0
C95 C 0.58957 0.39833 0.30221 0.0
C96 C 0.5865 0.32573 0.25032 0.0
O97 O 0.56787 0.32643 0.25921 0.0
O98 O 0.60465 0.33239 0.26264 0.0
O99 O 0.99354 0.23382 0.77811 0.0
Cd100 Cd 0.99534 0.27427 0.78758 0.0
O101 O 0.97984 0.23051 0.74258 0.0
Cd102 Cd 0.97939 0.2659 0.73669 0.0
O103 O 0.97705 0.2879 0.7094 0.0
C104 C 0.99222 0.28723 0.69584 0.0
O105 O 0.00897 0.275 0.70002 0.0
C106 C 0.98663 0.22165 0.76015 0.0
C107 C 0.99332 0.2801 0.83403 0.0
O108 O 0.97562 0.27995 0.82053 0.0
O109 O 0.01206 0.2784 0.82557 0.0
O110 O 0.37659 0.77745 0.21641 0.0
Cd111 Cd 0.34777 0.74621 0.2163 0.0
O112 O 0.38727 0.76754 0.18301 0.0
Cd113 Cd 0.36249 0.73947 0.17153 0.0
O114 O 0.35262 0.72464 0.13727 0.0
C115 C 0.36857 0.71853 0.12622 0.0
O116 O 0.38877 0.71945 0.13667 0.0
C117 C 0.38948 0.78061 0.20098 0.0
C118 C 0.35751 0.72292 0.25379 0.0
O119 O 0.36403 0.71669 0.23463 0.0
O120 O 0.34589 0.73986 0.25512 0.0
O121 O 0.00129 0.60232 0.72064 0.0
Cd122 Cd 0.99321 0.64144 0.72777 0.0
O123 O 0.96561 0.5916 0.71111 0.0
Cd124 Cd 0.95619 0.62235 0.7286 0.0
O125 O 0.95951 0.64424 0.75995 0.0
C126 C 0.9431 0.65179 0.76929 0.0
O127 O 0.92276 0.64741 0.75924 0.0
C128 C 0.98602 0.5872 0.7125 0.0
C129 C 0.99251 0.66208 0.68773 0.0
O130 O 0.00984 0.66479 0.70198 0.0
O131 O 0.97535 0.64988 0.69251 0.0
O132 O 0.7334 0.37789 0.61275 0.0
Cd133 Cd 0.75133 0.35385 0.63828 0.0
O134 O 0.70362 0.37211 0.63083 0.0
Cd135 Cd 0.66931 0.3767 0.63742 0.0
O136 O 0.63457 0.38041 0.64291 0.0
C137 C 0.62234 0.38608 0.62645 0.0
O138 O 0.63142 0.38984 0.60782 0.0
C139 C 0.71306 0.3809 0.6151 0.0
C140 C 0.79737 0.35702 0.63562 0.0
O141 O 0.78438 0.34273 0.62248 0.0
O142 O 0.78853 0.36964 0.65008 0.0
O143 O 0.75216 0.64871 0.25279 0.0
Cd144 Cd 0.74995 0.67813 0.28304 0.0
O145 O 0.78859 0.65127 0.26014 0.0
Cd146 Cd 0.82328 0.6444 0.25608 0.0
O147 O 0.85865 0.63837 0.2573 0.0
C148 C 0.87343 0.65429 0.25524 0.0
O149 O 0.86705 0.67424 0.25186 0.0
C150 C 0.77099 0.64183 0.24881 0.0
C151 C 0.70936 0.6708 0.30172 0.0
O152 O 0.71147 0.6844 0.2865 0.0
O153 O 0.72659 0.6611 0.30845 0.0
O154 O 0.36104 0.07402 0.38234 0.0
Cd155 Cd 0.37449 0.08833 0.34855 0.0
O156 O 0.32674 0.06691 0.36622 0.0
Cd157 Cd 0.29232 0.05181 0.36593 0.0
O158 O 0.2605 0.03093 0.36243 0.0
C159 C 0.24324 0.03732 0.35196 0.0
O160 O 0.24464 0.05699 0.34383 0.0
C161 C 0.34073 0.06669 0.38326 0.0
C162 C 0.40721 0.06209 0.3334 0.0
O163 O 0.41232 0.0789 0.34804 0.0
O164 O 0.38663 0.05792 0.32562 0.0
O165 O 0.20948 0.9653 0.75071 0.0
Cd166 Cd 0.18839 0.95329 0.71461 0.0
O167 O 0.23451 0.98418 0.73339 0.0
Cd168 Cd 0.26615 0.00414 0.73057 0.0
O169 O 0.29633 0.02729 0.73228 0.0
C170 C 0.31485 0.02056 0.727 0.0
O171 O 0.3157 0.9993 0.72021 0.0
C172 C 0.22751 0.97812 0.75163 0.0
C173 C 0.14363 0.96186 0.71582 0.0
O174 O 0.15014 0.9429 0.72067 0.0
O175 O 0.15828 0.97665 0.71025 0.0
O176 O 0.62587 0.72607 0.38251 0.0
Cd177 Cd 0.66171 0.73172 0.36651 0.0
O178 O 0.6252 0.68941 0.37777 0.0
Cd179 Cd 0.61276 0.65528 0.3833 0.0
O180 O 0.61196 0.61982 0.38895 0.0
C181 C 0.59466 0.60811 0.39366 0.0
O182 O 0.57602 0.61766 0.396 0.0
C183 C 0.6163 0.70683 0.38476 0.0
C184 C 0.67325 0.77769 0.36836 0.0
O185 O 0.66468 0.76682 0.34996 0.0
O186 O 0.6769 0.76676 0.38555 0.0
O187 O 0.7494 0.19634 0.97589 0.0
Cd188 Cd 0.71149 0.17798 0.97561 0.0
O189 O 0.73778 0.22096 1.00019 0.0
Cd190 Cd 0.74052 0.2501 0.02512 0.0
O191 O 0.7431 0.28172 0.04637 0.0
C192 C 0.73665 0.29911 0.03799 0.0
O193 O 0.72862 0.2975 0.01681 0.0
C194 C 0.75336 0.21435 0.9888 0.0
C195 C 0.71016 0.13471 0.9894 0.0
O196 O 0.70743 0.13779 0.9685 0.0
O197 O 0.71374 0.15197 0.00368 0.0
O198 O 0.21139 0.7547 0.65393 0.0
Cd199 Cd 0.24017 0.74722 0.68269 0.0
O200 O 0.23327 0.77993 0.63988 0.0
Cd201 Cd 0.24255 0.8038 0.616 0.0
O202 O 0.25152 0.83483 0.60121 0.0
C203 C 0.24701 0.85277 0.61197 0.0
O204 O 0.23711 0.85136 0.6306 0.0
C205 C 0.21446 0.76841 0.63921 0.0
C206 C 0.24289 0.70118 0.67675 0.0
O207 O 0.22991 0.7095 0.69051 0.0
O208 O 0.25537 0.71475 0.66671 0.0
O209 O 0.35656 0.30211 0.06315 0.0
Cd210 Cd 0.32236 0.32056 0.05629 0.0
O211 O 0.3438 0.27472 0.0378 0.0
Cd212 Cd 0.34398 0.24478 0.01426 0.0
O213 O 0.34327 0.21168 0.9959 0.0
C214 C 0.34528 0.19472 0.00703 0.0
O215 O 0.34784 0.19773 0.02907 0.0
C216 C 0.35968 0.28402 0.05173 0.0
C217 C 0.33308 0.35735 0.03247 0.0
O218 O 0.33228 0.35989 0.0538 0.0
O219 O 0.32822 0.33764 0.02247 0.0
O220 O 0.42451 0.61141 0.71008 0.0
Cd221 Cd 0.41324 0.64922 0.70649 0.0
O222 O 0.43254 0.60387 0.67525 0.0
Cd223 Cd 0.42404 0.63566 0.66299 0.0
O224 O 0.41611 0.65793 0.63693 0.0
C225 C 0.42927 0.65914 0.62145 0.0
O226 O 0.44718 0.64798 0.62257 0.0
C227 C 0.43117 0.59802 0.69501 0.0
C228 C 0.41787 0.67254 0.74908 0.0
O229 O 0.40003 0.65983 0.74219 0.0
O230 O 0.43329 0.67462 0.73566 0.0
O231 O 0.96274 0.75471 0.20509 0.0
Cd232 Cd 0.93914 0.72212 0.18684 0.0
O233 O 0.95679 0.74777 0.23965 0.0
Cd234 Cd 0.96451 0.75442 0.27607 0.0
O235 O 0.97679 0.76037 0.31161 0.0
C236 C 0.97389 0.74484 0.32453 0.0
O237 O 0.96317 0.72559 0.31625 0.0
C238 C 0.9662 0.75993 0.22613 0.0
C239 C 0.95456 0.71105 0.14507 0.0
O240 O 0.93934 0.72463 0.14711 0.0
O241 O 0.96203 0.70231 0.16267 0.0
O242 O 0.66345 0.23719 0.76556 0.0
Cd243 Cd 0.68885 0.2703 0.76139 0.0
O244 O 0.65425 0.253 0.79722 0.0
Cd245 Cd 0.63668 0.25863 0.8275 0.0
O246 O 0.6259 0.26277 0.86138 0.0
C247 C 0.64031 0.26102 0.87773 0.0
O248 O 0.66073 0.2568 0.87349 0.0
C249 C 0.65179 0.23643 0.78226 0.0
C250 C 0.6703 0.29324 0.72685 0.0
O251 O 0.68383 0.27827 0.7229 0.0
O252 O 0.66601 0.29775 0.74723 0.0
O253 O 0.04405 0.37085 0.26268 0.0
Cd254 Cd 0.03556 0.33216 0.27138 0.0
O255 O 0.0107 0.38149 0.26841 0.0
Cd256 Cd 0.99667 0.34668 0.26179 0.0
O257 O 0.98597 0.32166 0.23361 0.0
C258 C 0.99751 0.32296 0.21686 0.0
O259 O 0.015 0.33785 0.21845 0.0
C260 C 0.03106 0.38639 0.26503 0.0
C261 C 0.02985 0.33219 0.31713 0.0
O262 O 0.04946 0.33425 0.31025 0.0
O263 O 0.0129 0.32965 0.30244 0.0
H264 H 0.23585 0.57092 0.56839 0.0
H265 H 0.24243 0.50025 0.55531 0.0
H266 H 0.23521 0.52772 0.6222 0.0
H267 H 0.26037 0.48839 0.62541 0.0
C268 C 0.26057 0.48587 0.60686 0.0
O269 O 0.24041 0.49142 0.59705 0.0
H270 H 0.27495 0.49694 0.60216 0.0
C271 C 0.23677 0.55441 0.57428 0.0
C272 C 0.23544 0.55173 0.59721 0.0
C273 C 0.23926 0.53599 0.5589 0.0
C274 C 0.23995 0.51461 0.56669 0.0
C275 C 0.23828 0.51174 0.58943 0.0
C276 C 0.23576 0.53017 0.60456 0.0
H277 H 0.33066 0.48023 0.93292 0.0
H278 H 0.33585 0.55236 0.9365 0.0
H279 H 0.36982 0.51889 0.98825 0.0
H280 H 0.36278 0.56889 0.00714 0.0
C281 C 0.35168 0.56851 0.99132 0.0
O282 O 0.36207 0.55799 0.97416 0.0
H283 H 0.33547 0.55903 0.99386 0.0
C284 C 0.33716 0.49638 0.94143 0.0
C285 C 0.35092 0.49712 0.96155 0.0
C286 C 0.33142 0.51612 0.93229 0.0
C287 C 0.3401 0.53695 0.94331 0.0
C288 C 0.35393 0.5379 0.96347 0.0
C289 C 0.35924 0.51801 0.97262 0.0
H290 H 0.70324 0.93031 0.44457 0.0
H291 H 0.69677 0.00067 0.44141 0.0
H292 H 0.68307 0.95591 0.38151 0.0
H293 H 0.70149 0.99776 0.36798 0.0
C294 C 0.704 0.00621 0.38532 0.0
O295 O 0.68736 0.99773 0.39766 0.0
H296 H 0.7209 0.00264 0.39255 0.0
C297 C 0.69923 0.94403 0.43474 0.0
C298 C 0.69286 0.93998 0.41155 0.0
C299 C 0.7001 0.96567 0.44568 0.0
C300 C 0.69578 0.98381 0.43319 0.0
C301 C 0.69026 0.98017 0.40997 0.0
C302 C 0.68818 0.95833 0.39934 0.0
H303 H 0.71827 0.02553 0.10154 0.0
H304 H 0.71383 0.95696 0.11742 0.0
H305 H 0.69827 0.97168 0.04962 0.0
H306 H 0.66463 0.94341 0.07521 0.0
C307 C 0.67706 0.93113 0.07898 0.0
O308 O 0.69856 0.94022 0.07684 0.0
H309 H 0.67572 0.92716 0.09663 0.0
C310 C 0.71494 0.00786 0.09603 0.0
C311 C 0.70836 0.00092 0.07324 0.0
C312 C 0.71741 0.99218 0.11199 0.0
C313 C 0.71249 0.96926 0.10525 0.0
C314 C 0.70494 0.96214 0.0829 0.0
C315 C 0.70336 0.9778 0.06692 0.0
H316 H 0.55274 0.30863 0.601 0.0
H317 H 0.5501 0.29977 0.5289 0.0
H318 H 0.61327 0.31717 0.56749 0.0
H319 H 0.61611 0.33354 0.5221 0.0
C320 C 0.59834 0.32748 0.51699 0.0
O321 O 0.59316 0.30813 0.5271 0.0
H322 H 0.58779 0.34096 0.52259 0.0
C323 C 0.56116 0.30914 0.58572 0.0
C324 C 0.58458 0.31386 0.58702 0.0
C325 C 0.54854 0.30393 0.5649 0.0
C326 C 0.55953 0.30357 0.54515 0.0
C327 C 0.58279 0.30832 0.54622 0.0
C328 C 0.59528 0.31337 0.56704 0.0
H329 H 0.04711 0.72868 0.01257 0.0
H330 H 0.03556 0.7297 0.94081 0.0
H331 H 0.98188 0.70749 0.97892 0.0
H332 H 0.98087 0.68051 0.93755 0.0
C333 C 0.99163 0.69161 0.92808 0.0
O334 O 0.99375 0.71313 0.93855 0.0
H335 H 0.00836 0.68485 0.92809 0.0
C336 C 0.03601 0.72582 0.99722 0.0
C337 C 0.01361 0.71756 0.99825 0.0
C338 C 0.04414 0.73056 0.97666 0.0
C339 C 0.0295 0.72686 0.95695 0.0
C340 C 0.00714 0.71847 0.9578 0.0
C341 C 0.9991 0.71428 0.97847 0.0
H342 H 0.94338 0.32344 0.44731 0.0
H343 H 0.94078 0.32586 0.5189 0.0
H344 H 0.00357 0.33977 0.4919 0.0
H345 H 0.01091 0.31958 0.53552 0.0
C346 C 0.99283 0.31878 0.5384 0.0
O347 O 0.98355 0.33628 0.52853 0.0
H348 H 0.98474 0.30225 0.53069 0.0
C349 C 0.95174 0.32635 0.46408 0.0
C350 C 0.97506 0.33222 0.46695 0.0
C351 C 0.93912 0.32355 0.48256 0.0
C352 C 0.95004 0.32763 0.50432 0.0
C353 C 0.97315 0.33359 0.50751 0.0
C354 C 0.9856 0.33586 0.48896 0.0
H355 H 0.47035 0.70711 0.91406 0.0
H356 H 0.44043 0.70191 0.97643 0.0
H357 H 0.39871 0.70516 0.91543 0.0
H358 H 0.37569 0.7238 0.95412 0.0
C359 C 0.3893 0.72042 0.96676 0.0
O360 O 0.39919 0.7018 0.95866 0.0
H361 H 0.4016 0.73554 0.96935 0.0
C362 C 0.45568 0.70677 0.92344 0.0
C363 C 0.43437 0.70693 0.9119 0.0
C364 C 0.45817 0.70489 0.94669 0.0
C365 C 0.43893 0.70332 0.95849 0.0
C366 C 0.4176 0.70346 0.94718 0.0
C367 C 0.41532 0.70508 0.92395 0.0
H368 H 0.58664 0.56447 0.32466 0.0
H369 H 0.52161 0.54818 0.34735 0.0
H370 H 0.54943 0.61647 0.35302 0.0
H371 H 0.52799 0.60004 0.39226 0.0
C372 C 0.51297 0.59037 0.38294 0.0
O373 O 0.51513 0.58958 0.36018 0.0
H374 H 0.5117 0.57306 0.38831 0.0
C375 C 0.5721 0.56965 0.33257 0.0
C376 C 0.57057 0.59252 0.33889 0.0
C377 C 0.55449 0.55348 0.33534 0.0
C378 C 0.53531 0.56036 0.34483 0.0
C379 C 0.53368 0.58304 0.35126 0.0
C380 C 0.5511 0.59903 0.34807 0.0
H381 H 0.01434 0.05265 0.73507 0.0
H382 H 0.94605 0.05898 0.71004 0.0
H383 H 0.97535 0.99735 0.69576 0.0
H384 H 0.94102 0.00513 0.6578 0.0
C385 C 0.93553 0.02021 0.66711 0.0
O386 O 0.93942 0.01855 0.68988 0.0
H387 H 0.94534 0.03519 0.66189 0.0
C388 C 0.99874 0.04549 0.72589 0.0
C389 C 0.99715 0.02335 0.71584 0.0
C390 C 0.98045 0.05857 0.72391 0.0
C391 C 0.9604 0.04924 0.71176 0.0
C392 C 0.95867 0.02722 0.70176 0.0
C393 C 0.97689 0.01427 0.70391 0.0
H394 H 0.46828 0.92852 0.25965 0.0
H395 H 0.52558 0.90551 0.22887 0.0
H396 H 0.53139 0.96936 0.26696 0.0
H397 H 0.54574 0.96289 0.21902 0.0
C398 C 0.55872 0.95201 0.22503 0.0
O399 O 0.55229 0.94108 0.24314 0.0
H400 H 0.56078 0.93935 0.21092 0.0
C401 C 0.48572 0.93107 0.25636 0.0
C402 C 0.4986 0.95095 0.26527 0.0
C403 C 0.49513 0.91455 0.24301 0.0
C404 C 0.51778 0.91805 0.23884 0.0
C405 C 0.53066 0.93775 0.24754 0.0
C406 C 0.52117 0.95406 0.26074 0.0
H407 H 0.95194 0.42983 0.65725 0.0
H408 H 0.02214 0.41887 0.66511 0.0
H409 H 0.97341 0.36428 0.64179 0.0
H410 H 0.01182 0.34483 0.66636 0.0
C411 C 0.01802 0.36234 0.67247 0.0
O412 O 0.01541 0.37561 0.65482 0.0
H413 H 0.00786 0.3675 0.68643 0.0
C414 C 0.96538 0.41901 0.65584 0.0
C415 C 0.95999 0.39628 0.64819 0.0
C416 C 0.98777 0.42768 0.66196 0.0
C417 C 0.00474 0.41288 0.66072 0.0
C418 C 0.99939 0.39009 0.65378 0.0
C419 C 0.97722 0.38199 0.64695 0.0
H420 H 0.66012 0.38094 0.4709 0.0
H421 H 0.63465 0.44554 0.46799 0.0
H422 H 0.6322 0.40064 0.40793 0.0
H423 H 0.63624 0.44655 0.3953 0.0
C424 C 0.63511 0.45481 0.41239 0.0
O425 O 0.62305 0.44029 0.4246 0.0
H426 H 0.65245 0.45892 0.42064 0.0
C427 C 0.65201 0.39305 0.46134 0.0
C428 C 0.64654 0.38812 0.4382 0.0
C429 C 0.64747 0.41342 0.47237 0.0
C430 C 0.63815 0.42962 0.45979 0.0
C431 C 0.63276 0.42498 0.43654 0.0
C432 C 0.63683 0.40423 0.42579 0.0
H433 H 0.73641 0.55297 0.10268 0.0
H434 H 0.75535 0.49518 0.13513 0.0
H435 H 0.72867 0.48741 0.0663 0.0
H436 H 0.70986 0.45595 0.09694 0.0
C437 C 0.72598 0.45238 0.1059 0.0
O438 O 0.74338 0.46662 0.10017 0.0
H439 H 0.72441 0.45513 0.12425 0.0
C440 C 0.73815 0.53514 0.10201 0.0
C441 C 0.73133 0.52152 0.08197 0.0
C442 C 0.74708 0.52599 0.12129 0.0
C443 C 0.74898 0.50277 0.12041 0.0
C444 C 0.74206 0.489 0.10067 0.0
C445 C 0.73354 0.49835 0.08149 0.0
H446 H 0.2903 0.08535 0.52836 0.0
H447 H 0.28003 0.01474 0.53549 0.0
H448 H 0.26601 0.06206 0.58884 0.0
H449 H 0.28189 0.01968 0.60797 0.0
C450 C 0.28324 0.01189 0.59073 0.0
O451 O 0.26732 0.01968 0.57612 0.0
H452 H 0.30056 0.01666 0.58633 0.0
C453 C 0.28448 0.07186 0.53798 0.0
C454 C 0.2778 0.07676 0.55965 0.0
C455 C 0.28519 0.0496 0.52906 0.0
C456 C 0.2792 0.03201 0.54198 0.0
C457 C 0.27234 0.03665 0.56347 0.0
C458 C 0.27137 0.05888 0.57216 0.0
H459 H 0.30253 0.95447 0.89783 0.0
H460 H 0.30744 0.0258 0.91615 0.0
H461 H 0.32776 0.98127 0.96467 0.0
H462 H 0.3558 0.02935 0.94498 0.0
C463 C 0.34627 0.03382 0.95964 0.0
O464 O 0.32479 0.02326 0.95698 0.0
H465 H 0.35544 0.02808 0.97467 0.0
C466 C 0.30689 0.96877 0.91008 0.0
C467 C 0.31529 0.96515 0.93191 0.0
C468 C 0.3037 0.99052 0.90406 0.0
C469 C 0.30981 0.00885 0.92016 0.0
C470 C 0.31869 0.00546 0.94181 0.0
C471 C 0.32111 0.98367 0.94778 0.0
H472 H 0.45611 0.69183 0.3855 0.0
H473 H 0.4592 0.69633 0.45778 0.0
H474 H 0.39579 0.69522 0.41904 0.0
H475 H 0.39807 0.72329 0.46594 0.0
C476 C 0.41348 0.7161 0.47255 0.0
O477 O 0.41601 0.69655 0.45959 0.0
H478 H 0.42803 0.72871 0.47187 0.0
C479 C 0.4479 0.69258 0.40093 0.0
C480 C 0.42448 0.69278 0.39975 0.0
C481 C 0.46079 0.69428 0.42173 0.0
C482 C 0.44977 0.69568 0.44152 0.0
C483 C 0.42644 0.6962 0.44049 0.0
C484 C 0.41386 0.69516 0.41966 0.0
H485 H 0.91469 0.26381 0.96974 0.0
H486 H 0.91696 0.27133 0.04172 0.0
H487 H 0.97784 0.28087 0.00996 0.0
H488 H 0.98639 0.25983 0.05385 0.0
C489 C 0.96926 0.26189 0.05896 0.0
O490 O 0.96054 0.27918 0.0483 0.0
H491 H 0.9589 0.24569 0.05398 0.0
C492 C 0.9244 0.26749 0.98585 0.0
C493 C 0.94782 0.27259 0.98702 0.0
C494 C 0.91321 0.26738 0.00545 0.0
C495 C 0.92546 0.27153 0.02647 0.0
C496 C 0.94878 0.27576 0.02794 0.0
C497 C 0.95987 0.27669 0.00835 0.0
H498 H 0.0677 0.73555 0.57746 0.0
H499 H 0.07392 0.75985 0.51274 0.0
H500 H 0.00981 0.73222 0.5294 0.0
H501 H 0.02171 0.71645 0.48453 0.0
C502 C 0.03218 0.73155 0.48057 0.0
O503 O 0.03198 0.74835 0.49771 0.0
H504 H 0.04961 0.72698 0.47911 0.0
C505 C 0.05996 0.73881 0.56124 0.0
C506 C 0.03689 0.73304 0.5558 0.0
C507 C 0.07341 0.74867 0.54604 0.0
C508 C 0.06371 0.75252 0.5248 0.0
C509 C 0.04091 0.74604 0.51873 0.0
C510 C 0.02748 0.73666 0.53426 0.0
H511 H 0.52012 0.27213 0.09952 0.0
H512 H 0.52634 0.26104 0.02883 0.0
H513 H 0.58516 0.2803 0.07396 0.0
H514 H 0.58375 0.30241 0.03309 0.0
C515 C 0.57429 0.28905 0.0212 0.0
O516 O 0.56993 0.27001 0.03208 0.0
H517 H 0.55824 0.29545 0.01504 0.0
C518 C 0.5307 0.27181 0.08574 0.0
C519 C 0.55404 0.27694 0.08986 0.0
C520 C 0.52062 0.26625 0.06387 0.0
C521 C 0.53399 0.26502 0.04585 0.0
C522 C 0.55723 0.27007 0.04963 0.0
C523 C 0.56723 0.27592 0.07152 0.0
H524 H 0.3999 0.43581 0.70454 0.0
H525 H 0.46105 0.4316 0.67243 0.0
H526 H 0.41221 0.37461 0.66678 0.0
H527 H 0.45953 0.35826 0.66049 0.0
C528 C 0.46643 0.37599 0.66469 0.0
O529 O 0.45142 0.38987 0.65588 0.0
H530 H 0.46894 0.37902 0.68336 0.0
C531 C 0.4109 0.42605 0.69504 0.0
C532 C 0.40368 0.40385 0.6867 0.0
C533 C 0.43145 0.43632 0.68987 0.0
C534 C 0.44516 0.42395 0.67667 0.0
C535 C 0.43827 0.40166 0.66867 0.0
C536 C 0.41749 0.39174 0.67342 0.0
H537 H 0.00262 0.91622 0.28021 0.0
H538 H 0.0718 0.90459 0.2951 0.0
H539 H 0.05092 0.97052 0.3082 0.0
H540 H 0.09197 0.96667 0.28471 0.0
C541 C 0.09959 0.9538 0.2945 0.0
O542 O 0.08494 0.94628 0.30935 0.0
H543 H 0.10292 0.93958 0.28251 0.0
C544 C 0.01949 0.92234 0.28701 0.0
C545 C 0.02446 0.9452 0.29439 0.0
C546 C 0.03642 0.90752 0.28712 0.0
C547 C 0.05849 0.91572 0.29495 0.0
C548 C 0.06358 0.9384 0.30241 0.0
C549 C 0.04665 0.95303 0.30226 0.0
H550 H 0.56364 0.08879 0.74042 0.0
H551 H 0.50842 0.12347 0.76204 0.0
H552 H 0.49552 0.05957 0.72387 0.0
H553 H 0.4691 0.09598 0.71098 0.0
C554 C 0.46433 0.10142 0.728 0.0
O555 O 0.47741 0.09238 0.74433 0.0
H556 H 0.46703 0.12004 0.73044 0.0
C557 C 0.54571 0.08945 0.74079 0.0
C558 C 0.53074 0.07149 0.7306 0.0
C559 C 0.53783 0.10826 0.75201 0.0
C560 C 0.51475 0.10901 0.75351 0.0
C561 C 0.49967 0.09139 0.74334 0.0
C562 C 0.50759 0.07276 0.73196 0.0
H563 H 0.10247 0.55013 0.27986 0.0
H564 H 0.03221 0.55465 0.26241 0.0
H565 H 0.07578 0.6146 0.28097 0.0
H566 H 0.03415 0.61508 0.30142 0.0
C567 C 0.023 0.60364 0.28892 0.0
O568 O 0.03435 0.59821 0.27044 0.0
H569 H 0.01804 0.58821 0.29709 0.0
C570 C 0.0886 0.56024 0.27683 0.0
C571 C 0.09213 0.58374 0.28076 0.0
C572 C 0.0672 0.54948 0.26986 0.0
C573 C 0.04893 0.56251 0.2676 0.0
C574 C 0.05211 0.58588 0.27193 0.0
C575 C 0.07365 0.59648 0.2781 0.0
H576 H 0.22355 0.58295 0.30332 0.0
H577 H 0.22196 0.63797 0.35465 0.0
H578 H 0.18246 0.6417 0.34175 0.0
H579 H 0.18496 0.60534 0.25975 0.0
H580 H 0.17234 0.57755 0.25017 0.0
H581 H 0.20135 0.58158 0.26121 0.0
H582 H 0.19336 0.55281 0.29012 0.0
H583 H 0.16437 0.54886 0.27937 0.0
H584 H 0.17177 0.55717 0.30878 0.0
H585 H 0.14172 0.63522 0.32743 0.0
H586 H 0.10371 0.62027 0.31167 0.0
H587 H 0.13249 0.57124 0.26792 0.0
C588 C 0.21509 0.59618 0.31146 0.0
C589 C 0.22584 0.61018 0.32997 0.0
C590 C 0.21411 0.62714 0.34034 0.0
C591 C 0.19167 0.6294 0.33312 0.0
C592 C 0.18133 0.61484 0.31527 0.0
C593 C 0.19279 0.5988 0.30433 0.0
C594 C 0.17746 0.58413 0.28675 0.0
C595 C 0.18445 0.58736 0.26306 0.0
C596 C 0.1767 0.55929 0.29156 0.0
C597 C 0.15538 0.59371 0.29025 0.0
C598 C 0.15795 0.61155 0.3066 0.0
C599 C 0.13957 0.62166 0.31418 0.0
C600 C 0.118 0.61308 0.30503 0.0
C601 C 0.11498 0.59456 0.28847 0.0
C602 C 0.13408 0.58528 0.28066 0.0
H603 H 0.29579 0.40388 0.75222 0.0
H604 H 0.25783 0.38419 0.68814 0.0
H605 H 0.29266 0.37392 0.67188 0.0
H606 H 0.33811 0.4331 0.73056 0.0
H607 H 0.36051 0.42642 0.75008 0.0
H608 H 0.33243 0.426 0.75829 0.0
H609 H 0.33402 0.38483 0.76799 0.0
H610 H 0.36226 0.38517 0.75983 0.0
H611 H 0.34106 0.36389 0.74707 0.0
H612 H 0.33178 0.37235 0.66091 0.0
H613 H 0.37166 0.38196 0.65567 0.0
H614 H 0.38433 0.40512 0.72631 0.0
C615 C 0.29478 0.39667 0.73497 0.0
C616 C 0.27427 0.3943 0.72147 0.0
C617 C 0.27348 0.38581 0.69872 0.0
C618 C 0.2931 0.37996 0.6894 0.0
C619 C 0.31332 0.38332 0.70291 0.0
C620 C 0.3143 0.39156 0.72524 0.0
C621 C 0.33828 0.3972 0.73515 0.0
C622 C 0.34257 0.42215 0.74402 0.0
C623 C 0.34425 0.38185 0.7536 0.0
C624 C 0.3506 0.39199 0.71464 0.0
C625 C 0.33601 0.38328 0.69639 0.0
C626 C 0.34337 0.37887 0.67515 0.0
C627 C 0.36607 0.38428 0.67234 0.0
C628 C 0.38099 0.39424 0.69061 0.0
C629 C 0.37324 0.39744 0.7121 0.0
H630 H 0.61955 0.00574 0.66562 0.0
H631 H 0.57728 0.94424 0.66946 0.0
H632 H 0.54947 0.96607 0.68761 0.0
H633 H 0.6098 0.03303 0.71765 0.0
H634 H 0.60915 0.06051 0.70774 0.0
H635 H 0.62525 0.04016 0.69433 0.0
H636 H 0.60365 0.04432 0.65588 0.0
H637 H 0.58758 0.06483 0.66916 0.0
H638 H 0.57345 0.04031 0.653 0.0
H639 H 0.52809 0.99443 0.70844 0.0
H640 H 0.51333 0.02721 0.72762 0.0
H641 H 0.56795 0.07041 0.70658 0.0
C642 C 0.60436 0.99689 0.67014 0.0
C643 C 0.60057 0.97332 0.66627 0.0
C644 C 0.58044 0.96232 0.67224 0.0
C645 C 0.5646 0.97456 0.68259 0.0
C646 C 0.56898 0.99778 0.68643 0.0
C647 C 0.58821 0.00886 0.68005 0.0
C648 C 0.58893 0.0339 0.686 0.0
C649 C 0.6095 0.04239 0.70241 0.0
C650 C 0.58836 0.04658 0.66474 0.0
C651 C 0.56739 0.03514 0.69725 0.0
C652 C 0.55615 0.01415 0.69741 0.0
C653 C 0.53652 0.01101 0.70802 0.0
C654 C 0.52818 0.02983 0.71876 0.0
C655 C 0.53931 0.05161 0.71862 0.0
C656 C 0.55906 0.05411 0.7074 0.0
H657 H 0.90101 0.98399 0.30086 0.0
H658 H 0.92545 0.04712 0.27716 0.0
H659 H 0.96319 0.03384 0.27611 0.0
H660 H 0.95041 0.97689 0.33661 0.0
H661 H 0.94866 0.9469 0.3302 0.0
H662 H 0.92353 0.96132 0.32898 0.0
H663 H 0.91335 0.94457 0.28783 0.0
H664 H 0.93843 0.93009 0.28893 0.0
H665 H 0.93329 0.94867 0.26734 0.0
H666 H 0.99821 0.01365 0.27754 0.0
H667 H 0.02792 0.98778 0.28084 0.0
H668 H 0.98072 0.93818 0.30435 0.0
C669 C 0.91427 0.99503 0.29541 0.0
C670 C 0.91027 0.01661 0.28908 0.0
C671 C 0.92811 0.03053 0.28208 0.0
C672 C 0.94961 0.02315 0.28144 0.0
C673 C 0.95299 0.00182 0.28787 0.0
C674 C 0.93582 0.98795 0.2947 0.0
C675 C 0.94388 0.96579 0.30072 0.0
C676 C 0.94148 0.96255 0.32561 0.0
C677 C 0.9315 0.94612 0.28528 0.0
C678 C 0.96826 0.96935 0.29618 0.0
C679 C 0.97318 0.99024 0.28881 0.0
C680 C 0.99459 0.99728 0.2834 0.0
C681 C 0.01139 0.98252 0.2855 0.0
C682 C 0.00671 0.96097 0.29296 0.0
C683 C 0.98481 0.95444 0.29842 0.0
H684 H 0.29089 0.20854 0.55384 0.0
H685 H 0.31739 0.21454 0.62383 0.0
H686 H 0.30685 0.17418 0.62576 0.0
H687 H 0.24361 0.16561 0.5592 0.0
H688 H 0.24678 0.15139 0.53215 0.0
H689 H 0.25371 0.18128 0.53713 0.0
H690 H 0.29355 0.17647 0.52491 0.0
H691 H 0.2868 0.14664 0.52002 0.0
H692 H 0.3108 0.1577 0.53887 0.0
H693 H 0.29815 0.13253 0.61864 0.0
H694 H 0.29136 0.09301 0.60328 0.0
H695 H 0.26861 0.11435 0.53845 0.0
C696 C 0.29404 0.20149 0.56972 0.0
C697 C 0.30492 0.21471 0.5887 0.0
C698 C 0.30897 0.20477 0.60909 0.0
C699 C 0.303 0.18186 0.61037 0.0
C700 C 0.29276 0.1692 0.59119 0.0
C701 C 0.28809 0.17871 0.57131 0.0
C702 C 0.27843 0.16115 0.55271 0.0
C703 C 0.25419 0.1651 0.54484 0.0
C704 C 0.29329 0.16046 0.53298 0.0
C705 C 0.27923 0.14018 0.56499 0.0
C706 C 0.28732 0.14518 0.58723 0.0
C707 C 0.29129 0.12842 0.6014 0.0
C708 C 0.28725 0.10596 0.59252 0.0
C709 C 0.27929 0.10043 0.56964 0.0
C710 C 0.27476 0.1179 0.55596 0.0
H711 H 0.2816 0.85904 0.99691 0.0
H712 H 0.30694 0.81823 0.94317 0.0
H713 H 0.32179 0.85257 0.92743 0.0
H714 H 0.26242 0.89965 0.96356 0.0
H715 H 0.26972 0.92306 0.98441 0.0
H716 H 0.26358 0.8954 0.99303 0.0
H717 H 0.30217 0.8985 0.01633 0.0
H718 H 0.30846 0.92623 0.00773 0.0
H719 H 0.32736 0.90491 0.00285 0.0
H720 H 0.331 0.89101 0.91574 0.0
H721 H 0.33277 0.93091 0.90818 0.0
H722 H 0.30087 0.94677 0.96908 0.0
C723 C 0.29067 0.85732 0.98209 0.0
C724 C 0.29324 0.83596 0.97134 0.0
C725 C 0.30482 0.83442 0.95172 0.0
C726 C 0.31341 0.85382 0.94271 0.0
C727 C 0.3103 0.87463 0.95353 0.0
C728 C 0.29921 0.87652 0.97279 0.0
C729 C 0.29652 0.90084 0.9801 0.0
C730 C 0.27158 0.90497 0.98027 0.0
C731 C 0.3094 0.90804 0.00312 0.0
C732 C 0.30729 0.91229 0.96161 0.0
C733 C 0.31541 0.89688 0.94663 0.0
C734 C 0.32492 0.90326 0.92747 0.0
C735 C 0.32576 0.92591 0.92326 0.0
C736 C 0.31701 0.94189 0.93807 0.0
C737 C 0.30809 0.93499 0.95771 0.0
H738 H 0.71285 0.30658 0.3632 0.0
H739 H 0.69471 0.25531 0.4071 0.0
H740 H 0.6685 0.27969 0.42405 0.0
H741 H 0.71469 0.35185 0.40186 0.0
H742 H 0.7026 0.37079 0.38347 0.0
H743 H 0.71713 0.34809 0.37206 0.0
H744 H 0.68205 0.33416 0.3452 0.0
H745 H 0.66687 0.35646 0.35669 0.0
H746 H 0.65565 0.32764 0.35645 0.0
H747 H 0.65057 0.31144 0.44102 0.0
H748 H 0.63777 0.34761 0.45442 0.0
H749 H 0.6662 0.37861 0.39911 0.0
C750 C 0.70289 0.30024 0.37592 0.0
C751 C 0.70585 0.27904 0.38384 0.0
C752 C 0.69271 0.27145 0.40072 0.0
C753 C 0.67773 0.28516 0.41043 0.0
C754 C 0.67582 0.30627 0.40284 0.0
C755 C 0.68768 0.31368 0.38569 0.0
C756 C 0.68371 0.33777 0.38192 0.0
C757 C 0.70585 0.35301 0.38503 0.0
C758 C 0.67133 0.33909 0.35868 0.0
C759 C 0.6688 0.34309 0.40046 0.0
C760 C 0.66439 0.32458 0.41218 0.0
C761 C 0.65327 0.32587 0.4316 0.0
C762 C 0.64623 0.34654 0.43916 0.0
C763 C 0.65083 0.36586 0.42768 0.0
C764 C 0.66185 0.36397 0.4078 0.0
H765 H 0.70704 0.62104 0.00597 0.0
H766 H 0.65392 0.57646 0.96841 0.0
H767 H 0.66469 0.54548 0.99057 0.0
H768 H 0.74769 0.57885 0.01082 0.0
H769 H 0.75863 0.59017 0.0387 0.0
H770 H 0.74744 0.60839 0.01902 0.0
H771 H 0.72008 0.62157 0.04758 0.0
H772 H 0.73109 0.60334 0.06728 0.0
H773 H 0.70147 0.60102 0.05873 0.0
H774 H 0.67906 0.52048 0.01929 0.0
H775 H 0.69697 0.50293 0.05103 0.0
H776 H 0.74266 0.56309 0.06761 0.0
C777 C 0.6978 0.60471 0.00226 0.0
C778 C 0.6796 0.60115 0.98553 0.0
C779 C 0.66797 0.57953 0.98112 0.0
C780 C 0.67395 0.56184 0.99361 0.0
C781 C 0.69182 0.56599 0.01019 0.0
C782 C 0.70375 0.58682 0.01433 0.0
C783 C 0.72198 0.58702 0.03333 0.0
C784 C 0.74532 0.59136 0.02496 0.0
C785 C 0.71843 0.60426 0.05288 0.0
C786 C 0.71803 0.56324 0.03967 0.0
C787 C 0.7006 0.55135 0.02613 0.0
C788 C 0.69303 0.52949 0.02973 0.0
C789 C 0.70344 0.5196 0.04776 0.0
C790 C 0.72136 0.5315 0.06192 0.0
C791 C 0.72888 0.5535 0.0574 0.0
H792 H 0.55333 0.3271 0.21686 0.0
H793 H 0.62049 0.30696 0.22987 0.0
H794 H 0.6203 0.29301 0.18977 0.0
H795 H 0.53178 0.28178 0.17746 0.0
H796 H 0.51584 0.29871 0.15977 0.0
H797 H 0.52151 0.30711 0.18933 0.0
H798 H 0.5396 0.34571 0.18037 0.0
H799 H 0.5339 0.33743 0.15077 0.0
H800 H 0.5621 0.34674 0.16229 0.0
H801 H 0.61128 0.27897 0.14848 0.0
H802 H 0.59536 0.26826 0.10941 0.0
H803 H 0.53584 0.30152 0.12344 0.0
C804 C 0.56799 0.31973 0.21127 0.0
C805 C 0.58684 0.31786 0.22641 0.0
C806 C 0.60587 0.30848 0.21846 0.0
C807 C 0.60589 0.30051 0.19577 0.0
C808 C 0.58693 0.30251 0.18126 0.0
C809 C 0.56848 0.3122 0.18868 0.0
C810 C 0.55037 0.31281 0.16975 0.0
C811 C 0.52859 0.29929 0.17436 0.0
C812 C 0.54626 0.33712 0.16555 0.0
C813 C 0.56125 0.30144 0.15059 0.0
C814 C 0.58228 0.29552 0.15749 0.0
C815 C 0.59496 0.28384 0.14282 0.0
C816 C 0.58581 0.27795 0.12059 0.0
C817 C 0.56425 0.28393 0.11316 0.0
C818 C 0.55214 0.29619 0.12846 0.0
H819 H 0.95798 0.29096 0.85772 0.0
H820 H 0.02538 0.27002 0.86577 0.0
H821 H 0.02173 0.26715 0.90616 0.0
H822 H 0.96125 0.32448 0.91237 0.0
H823 H 0.93236 0.31658 0.91637 0.0
H824 H 0.94088 0.31822 0.88841 0.0
H825 H 0.92423 0.27715 0.87768 0.0
H826 H 0.91588 0.2753 0.90565 0.0
H827 H 0.93354 0.25527 0.89409 0.0
H828 H 0.00924 0.26292 0.9448 0.0
H829 H 0.99011 0.26065 0.97943 0.0
H830 H 0.932 0.28727 0.94677 0.0
C831 C 0.97209 0.28607 0.86803 0.0
C832 C 0.99195 0.28069 0.85859 0.0
C833 C 0.01003 0.27434 0.87265 0.0
C834 C 0.0081 0.27259 0.89561 0.0
C835 C 0.98812 0.27759 0.9043 0.0
C836 C 0.97056 0.28455 0.89102 0.0
C837 C 0.95079 0.28863 0.90443 0.0
C838 C 0.94605 0.31345 0.90546 0.0
C839 C 0.92988 0.27316 0.89489 0.0
C840 C 0.95974 0.28231 0.92717 0.0
C841 C 0.98127 0.27596 0.92675 0.0
C842 C 0.99254 0.26829 0.94545 0.0
C843 C 0.98153 0.26719 0.96513 0.0
C844 C 0.95951 0.2739 0.96608 0.0
C845 C 0.94868 0.28171 0.94674 0.0
H846 H 0.35394 0.73736 0.29782 0.0
H847 H 0.37737 0.68365 0.25544 0.0
H848 H 0.39264 0.66718 0.28917 0.0
H849 H 0.40083 0.74574 0.33548 0.0
H850 H 0.38638 0.75161 0.36017 0.0
H851 H 0.37399 0.75714 0.3331 0.0
H852 H 0.33818 0.73192 0.33891 0.0
H853 H 0.35047 0.72634 0.3661 0.0
H854 H 0.34052 0.70339 0.34547 0.0
H855 H 0.4096 0.65935 0.32668 0.0
H856 H 0.42745 0.66114 0.36549 0.0
H857 H 0.39308 0.7196 0.38382 0.0
C858 C 0.36173 0.72179 0.29565 0.0
C859 C 0.36433 0.7117 0.274 0.0
C860 C 0.3751 0.69162 0.27186 0.0
C861 C 0.38374 0.68208 0.29092 0.0
C862 C 0.38138 0.69275 0.31201 0.0
C863 C 0.37054 0.7121 0.31452 0.0
C864 C 0.37222 0.72146 0.33893 0.0
C865 C 0.38407 0.74539 0.34209 0.0
C866 C 0.34896 0.72073 0.34788 0.0
C867 C 0.38648 0.70486 0.34961 0.0
C868 C 0.39126 0.68822 0.33382 0.0
C869 C 0.40563 0.67204 0.33924 0.0
C870 C 0.41574 0.67319 0.36124 0.0
C871 C 0.41145 0.69033 0.37753 0.0
C872 C 0.39624 0.70605 0.37176 0.0
H873 H 0.0185 0.69896 0.67817 0.0
H874 H 0.96722 0.6476 0.64839 0.0
H875 H 0.97014 0.66237 0.61131 0.0
H876 H 0.00044 0.74366 0.64348 0.0
H877 H 0.02889 0.7552 0.64204 0.0
H878 H 0.02137 0.74155 0.66635 0.0
H879 H 0.05257 0.71475 0.66093 0.0
H880 H 0.0601 0.72823 0.6366 0.0
H881 H 0.05279 0.69836 0.63438 0.0
H882 H 0.98256 0.67988 0.57671 0.0
H883 H 0.0017 0.69982 0.54827 0.0
H884 H 0.04153 0.7423 0.60168 0.0
C885 C 0.00765 0.69103 0.6639 0.0
C886 C 0.9927 0.67211 0.66607 0.0
C887 C 0.97873 0.6622 0.64707 0.0
C888 C 0.98027 0.67046 0.62596 0.0
C889 C 0.99549 0.68896 0.62431 0.0
C890 C 0.00863 0.69936 0.64288 0.0
C891 C 0.02409 0.71856 0.63661 0.0
C892 C 0.01834 0.74108 0.64778 0.0
C893 C 0.04884 0.71473 0.64247 0.0
C894 C 0.01824 0.71681 0.61149 0.0
C895 C 0.00172 0.69968 0.60463 0.0
C896 C 0.99514 0.69368 0.58193 0.0
C897 C 0.00604 0.70523 0.56587 0.0
C898 C 0.02326 0.72267 0.57259 0.0
C899 C 0.02875 0.72887 0.59579 0.0
H900 H 0.82929 0.38325 0.66341 0.0
H901 H 0.82072 0.33573 0.60408 0.0
H902 H 0.86156 0.34027 0.60088 0.0
H903 H 0.8716 0.42049 0.64466 0.0
H904 H 0.88696 0.42624 0.67191 0.0
H905 H 0.85715 0.4189 0.66973 0.0
H906 H 0.86301 0.38608 0.69449 0.0
H907 H 0.89284 0.39341 0.69684 0.0
H908 H 0.88161 0.36536 0.68644 0.0
H909 H 0.90331 0.35112 0.60355 0.0
H910 H 0.94275 0.36669 0.61256 0.0
H911 H 0.92367 0.40569 0.67094 0.0
C912 C 0.83597 0.37373 0.64977 0.0
C913 C 0.82183 0.35916 0.63397 0.0
C914 C 0.83126 0.34697 0.6164 0.0
C915 C 0.85442 0.34946 0.61442 0.0
C916 C 0.86786 0.36409 0.63023 0.0
C917 C 0.85899 0.37591 0.64762 0.0
C918 C 0.87699 0.39058 0.66239 0.0
C919 C 0.87292 0.41553 0.66214 0.0
C920 C 0.87871 0.38342 0.68646 0.0
C921 C 0.89739 0.3853 0.65049 0.0
C922 C 0.89182 0.37001 0.63196 0.0
C923 C 0.90789 0.36294 0.61814 0.0
C924 C 0.93023 0.37173 0.62345 0.0
C925 C 0.93629 0.38728 0.64248 0.0
C926 C 0.91957 0.39404 0.65613 0.0
H927 H 0.69688 0.63488 0.32444 0.0
H928 H 0.67197 0.69381 0.29736 0.0
H929 H 0.63411 0.6822 0.30793 0.0
H930 H 0.65187 0.59801 0.30342 0.0
H931 H 0.6515 0.58144 0.32714 0.0
H932 H 0.67728 0.59618 0.32112 0.0
H933 H 0.68198 0.61676 0.36133 0.0
H934 H 0.65644 0.60145 0.36736 0.0
H935 H 0.65936 0.63167 0.37128 0.0
H936 H 0.59837 0.66219 0.31787 0.0
H937 H 0.56744 0.63485 0.32513 0.0
H938 H 0.61581 0.58866 0.34497 0.0
C939 C 0.68361 0.64567 0.32128 0.0
C940 C 0.68737 0.66533 0.31024 0.0
C941 C 0.66944 0.67872 0.30589 0.0
C942 C 0.64793 0.67231 0.31192 0.0
C943 C 0.64465 0.65249 0.32225 0.0
C944 C 0.66202 0.63939 0.32696 0.0
C945 C 0.6537 0.61776 0.33608 0.0
C946 C 0.65889 0.59714 0.32103 0.0
C947 C 0.66345 0.61688 0.36047 0.0
C948 C 0.62882 0.6203 0.33487 0.0
C949 C 0.62397 0.64064 0.32736 0.0
C950 C 0.602 0.64632 0.32404 0.0
C951 C 0.58454 0.63068 0.32826 0.0
C952 C 0.58914 0.60952 0.33555 0.0
C953 C 0.61165 0.60451 0.33908 0.0
H954 H 0.40298 0.02916 0.29844 0.0
H955 H 0.45039 0.06224 0.35191 0.0
H956 H 0.47883 0.03717 0.34057 0.0
H957 H 0.41896 0.97348 0.30252 0.0
H958 H 0.41573 0.96599 0.27263 0.0
H959 H 0.39907 0.98656 0.28487 0.0
H960 H 0.41351 0.01534 0.25828 0.0
H961 H 0.43009 0.9948 0.24585 0.0
H962 H 0.44328 0.02175 0.25758 0.0
H963 H 0.50166 0.00772 0.32415 0.0
H964 H 0.51798 0.97733 0.30257 0.0
H965 H 0.4562 0.96484 0.25869 0.0
C966 C 0.41935 0.03116 0.30775 0.0
C967 C 0.42446 0.04761 0.3261 0.0
C968 C 0.44612 0.04977 0.33777 0.0
C969 C 0.46236 0.03558 0.3315 0.0
C970 C 0.45672 0.01944 0.31343 0.0
C971 C 0.43581 0.01728 0.3016 0.0
C972 C 0.43413 0.99879 0.28263 0.0
C973 C 0.41589 0.9801 0.28587 0.0
C974 C 0.43002 0.00824 0.25973 0.0
C975 C 0.45732 0.99079 0.28573 0.0
C976 C 0.47005 0.00285 0.30364 0.0
C977 C 0.49192 0.9983 0.30995 0.0
C978 C 0.50108 0.98107 0.2975 0.0
C979 C 0.48846 0.9687 0.27882 0.0
C980 C 0.46625 0.97371 0.273 0.0
H981 H 0.12561 0.00154 0.7095 0.0
H982 H 0.10816 0.93308 0.72446 0.0
H983 H 0.06869 0.94128 0.72627 0.0
H984 H 0.08919 0.0276 0.74621 0.0
H985 H 0.08206 0.04834 0.72739 0.0
H986 H 0.10886 0.03698 0.72708 0.0
H987 H 0.10074 0.02498 0.68448 0.0
H988 H 0.07395 0.03636 0.68464 0.0
H989 H 0.07548 0.00747 0.67448 0.0
H990 H 0.03098 0.95703 0.72613 0.0
H991 H 0.99811 0.97928 0.72455 0.0
H992 H 0.04061 0.03728 0.70985 0.0
C993 C 0.11351 0.98823 0.71312 0.0
C994 C 0.11996 0.96665 0.71679 0.0
C995 C 0.1036 0.94974 0.72158 0.0
C996 C 0.08115 0.95424 0.72264 0.0
C997 C 0.07537 0.97572 0.71896 0.0
C998 C 0.0911 0.99244 0.71434 0.0
C999 C 0.08062 0.01415 0.71114 0.0
C1000 C 0.09079 0.03287 0.72902 0.0
C1001 C 0.08283 0.02114 0.68726 0.0
C1002 C 0.05652 0.00704 0.71465 0.0
C1003 C 0.05379 0.98481 0.7191 0.0
C1004 C 0.03292 0.97445 0.72267 0.0
C1005 C 0.01436 0.98718 0.72165 0.0
C1006 C 0.01684 0.01001 0.71717 0.0
C1007 C 0.03824 0.01996 0.71365 0.0
H1008 H 0.67154 0.80662 0.40535 0.0
H1009 H 0.68455 0.80414 0.3352 0.0
H1010 H 0.69154 0.84562 0.33844 0.0
H1011 H 0.64114 0.85554 0.40442 0.0
H1012 H 0.65155 0.86632 0.43262 0.0
H1013 H 0.64884 0.83654 0.4249 0.0
H1014 H 0.69083 0.83477 0.43801 0.0
H1015 H 0.69366 0.86456 0.44573 0.0
H1016 H 0.7118 0.85254 0.42645 0.0
H1017 H 0.69838 0.88746 0.35017 0.0
H1018 H 0.70174 0.92611 0.36832 0.0
H1019 H 0.67968 0.90063 0.42938 0.0
C1020 C 0.67609 0.81481 0.39073 0.0
C1021 C 0.67785 0.80229 0.37011 0.0
C1022 C 0.68327 0.81354 0.35118 0.0
C1023 C 0.68729 0.83703 0.35288 0.0
C1024 C 0.68536 0.84892 0.37351 0.0
C1025 C 0.67959 0.83817 0.392 0.0
C1026 C 0.67742 0.85476 0.4119 0.0
C1027 C 0.65331 0.85319 0.41886 0.0
C1028 C 0.69445 0.85146 0.43169 0.0
C1029 C 0.68316 0.87654 0.40184 0.0
C1030 C 0.68791 0.87288 0.37978 0.0
C1031 C 0.6944 0.89054 0.36736 0.0
C1032 C 0.69606 0.9125 0.3778 0.0
C1033 C 0.69093 0.91668 0.40036 0.0
C1034 C 0.68419 0.89828 0.41231 0.0
H1035 H 0.73243 0.12041 0.02631 0.0
H1036 H 0.68406 0.09783 0.96964 0.0
H1037 H 0.679 0.06043 0.98409 0.0
H1038 H 0.75809 0.06697 0.02781 0.0
H1039 H 0.76288 0.06986 0.05801 0.0
H1040 H 0.76293 0.09448 0.04275 0.0
H1041 H 0.73234 0.10942 0.06657 0.0
H1042 H 0.73204 0.08477 0.08174 0.0
H1043 H 0.70643 0.09224 0.06761 0.0
H1044 H 0.67639 0.02702 0.00721 0.0
H1045 H 0.67932 0.99887 0.03461 0.0
H1046 H 0.73318 0.04187 0.07335 0.0
C1047 C 0.72091 0.10751 0.01687 0.0
C1048 C 0.7085 0.11193 0.99698 0.0
C1049 C 0.69375 0.09466 0.98491 0.0
C1050 C 0.69073 0.07344 0.99302 0.0
C1051 C 0.70302 0.06969 0.01289 0.0
C1052 C 0.71817 0.0861 0.02439 0.0
C1053 C 0.72953 0.07772 0.04515 0.0
C1054 C 0.75486 0.07723 0.04331 0.0
C1055 C 0.72479 0.09188 0.06652 0.0
C1056 C 0.7179 0.05426 0.04393 0.0
C1057 C 0.70257 0.04997 0.02532 0.0
C1058 C 0.68875 0.02999 0.02156 0.0
C1059 C 0.69069 0.01397 0.03723 0.0
C1060 C 0.70662 0.0178 0.05631 0.0
C1061 C 0.72054 0.03825 0.05932 0.0
H1062 H 0.26523 0.67905 0.6451 0.0
H1063 H 0.21784 0.66806 0.69479 0.0
H1064 H 0.21253 0.62777 0.68147 0.0
H1065 H 0.23581 0.64433 0.6017 0.0
H1066 H 0.26003 0.63377 0.59015 0.0
H1067 H 0.26239 0.66108 0.60536 0.0
H1068 H 0.29439 0.64956 0.63253 0.0
H1069 H 0.29235 0.62226 0.61718 0.0
H1070 H 0.28988 0.62465 0.64701 0.0
H1071 H 0.20955 0.58948 0.66013 0.0
H1072 H 0.21021 0.55603 0.63328 0.0
H1073 H 0.2598 0.59239 0.59804 0.0
C1074 C 0.25414 0.66811 0.65357 0.0
C1075 C 0.24203 0.67668 0.67105 0.0
C1076 C 0.2274 0.66183 0.68143 0.0
C1077 C 0.22426 0.63893 0.67398 0.0
C1078 C 0.23596 0.63116 0.65624 0.0
C1079 C 0.25078 0.64527 0.64632 0.0
C1080 C 0.26024 0.6331 0.62665 0.0
C1081 C 0.25425 0.6437 0.60468 0.0
C1082 C 0.28573 0.63234 0.63112 0.0
C1083 C 0.24798 0.61009 0.62667 0.0
C1084 C 0.23419 0.6092 0.64395 0.0
C1085 C 0.22053 0.58988 0.64672 0.0
C1086 C 0.22102 0.57098 0.63142 0.0
C1087 C 0.23499 0.57161 0.61353 0.0
C1088 C 0.24873 0.59144 0.61135 0.0
H1089 H 0.33234 0.40237 0.04483 0.0
H1090 H 0.34895 0.35529 0.99119 0.0
H1091 H 0.36013 0.38683 0.96943 0.0
H1092 H 0.30733 0.43888 0.00922 0.0
H1093 H 0.3172 0.46424 0.02667 0.0
H1094 H 0.31296 0.43815 0.03913 0.0
H1095 H 0.35409 0.4433 0.05682 0.0
H1096 H 0.35851 0.46935 0.04419 0.0
H1097 H 0.37657 0.44733 0.03901 0.0
H1098 H 0.36723 0.42277 0.95249 0.0
H1099 H 0.36653 0.46082 0.93987 0.0
H1100 H 0.34441 0.48497 0.00375 0.0
C1101 C 0.33865 0.39876 0.02864 0.0
C1102 C 0.33993 0.37641 0.01973 0.0
C1103 C 0.34782 0.37229 0.99832 0.0
C1104 C 0.35438 0.39009 0.98591 0.0
C1105 C 0.35285 0.41192 0.99511 0.0
C1106 C 0.345 0.41636 0.01588 0.0
C1107 C 0.34309 0.44126 0.02093 0.0
C1108 C 0.3187 0.4459 0.02417 0.0
C1109 C 0.35902 0.45087 0.04146 0.0
C1110 C 0.35064 0.45004 0.99954 0.0
C1111 C 0.35656 0.43283 0.98507 0.0
C1112 C 0.36286 0.43643 0.96374 0.0
C1113 C 0.36241 0.45805 0.95672 0.0
C1114 C 0.35556 0.47576 0.97091 0.0
C1115 C 0.35019 0.47181 0.9928 0.0
H1116 H 0.39477 0.66231 0.78496 0.0
H1117 H 0.4487 0.70726 0.76558 0.0
H1118 H 0.45607 0.72377 0.80487 0.0
H1119 H 0.37551 0.70119 0.82901 0.0
H1120 H 0.37027 0.67918 0.84711 0.0
H1121 H 0.36731 0.67287 0.81705 0.0
H1122 H 0.39535 0.64254 0.82076 0.0
H1123 H 0.39838 0.64876 0.85076 0.0
H1124 H 0.42279 0.65019 0.83519 0.0
H1125 H 0.45956 0.73327 0.84645 0.0
H1126 H 0.45993 0.73416 0.88768 0.0
H1127 H 0.4046 0.68209 0.88027 0.0
C1128 C 0.40779 0.67597 0.78889 0.0
C1129 C 0.42104 0.68366 0.77219 0.0
C1130 C 0.43829 0.70119 0.7781 0.0
C1131 C 0.44253 0.71073 0.80034 0.0
C1132 C 0.42942 0.70251 0.81648 0.0
C1133 C 0.4124 0.68551 0.81106 0.0
C1134 C 0.40208 0.67838 0.83187 0.0
C1135 C 0.37732 0.6832 0.83122 0.0
C1136 C 0.40483 0.6535 0.83481 0.0
C1137 C 0.4163 0.69366 0.84988 0.0
C1138 C 0.43175 0.70766 0.8406 0.0
C1139 C 0.44743 0.72251 0.8539 0.0
C1140 C 0.4476 0.7228 0.87729 0.0
C1141 C 0.43232 0.70818 0.8872 0.0
C1142 C 0.41623 0.69373 0.87322 0.0
H1143 H 0.94295 0.72779 0.10485 0.0
H1144 H 0.9881 0.68437 0.1363 0.0
H1145 H 0.00631 0.67925 0.1011 0.0
H1146 H 0.93735 0.69724 0.04837 0.0
H1147 H 0.93682 0.72266 0.0344 0.0
H1148 H 0.92602 0.72141 0.06146 0.0
H1149 H 0.95281 0.75624 0.07708 0.0
H1150 H 0.96375 0.75755 0.05014 0.0
H1151 H 0.98251 0.75579 0.07484 0.0
H1152 H 0.02194 0.68169 0.06404 0.0
H1153 H 0.03303 0.69039 0.02673 0.0
H1154 H 0.9773 0.73138 0.01872 0.0
C1155 C 0.95641 0.7169 0.10423 0.0
C1156 C 0.96407 0.70644 0.12335 0.0
C1157 C 0.98189 0.6925 0.12188 0.0
C1158 C 0.99234 0.68947 0.10195 0.0
C1159 C 0.98465 0.70033 0.08356 0.0
C1160 C 0.96698 0.71361 0.08442 0.0
C1161 C 0.96267 0.72419 0.06256 0.0
C1162 C 0.93933 0.71587 0.05102 0.0
C1163 C 0.96562 0.74997 0.0664 0.0
C1164 C 0.98104 0.71522 0.04949 0.0
C1165 C 0.99347 0.70143 0.06192 0.0
C1166 C 0.01215 0.69221 0.05402 0.0
C1167 C 0.01839 0.69731 0.03291 0.0
C1168 C 0.00593 0.71143 0.01991 0.0
C1169 C 0.98686 0.72025 0.02821 0.0
H1170 H 0.67547 0.28664 0.68186 0.0
H1171 H 0.63846 0.32318 0.72979 0.0
H1172 H 0.61557 0.33675 0.69854 0.0
H1173 H 0.67297 0.32852 0.63821 0.0
H1174 H 0.66987 0.30646 0.61561 0.0
H1175 H 0.6859 0.30282 0.64162 0.0
H1176 H 0.66094 0.26614 0.64528 0.0
H1177 H 0.64484 0.26975 0.61945 0.0
H1178 H 0.63097 0.26693 0.64472 0.0
H1179 H 0.59305 0.34118 0.66277 0.0
H1180 H 0.57338 0.33797 0.62476 0.0
H1181 H 0.62509 0.29862 0.59997 0.0
C1182 C 0.66296 0.29799 0.6858 0.0
C1183 C 0.65877 0.30386 0.70828 0.0
C1184 C 0.64205 0.31851 0.71271 0.0
C1185 C 0.62899 0.32637 0.69507 0.0
C1186 C 0.63308 0.31969 0.6731 0.0
C1187 C 0.64987 0.30609 0.66838 0.0
C1188 C 0.64953 0.29978 0.64337 0.0
C1189 C 0.67084 0.31001 0.63416 0.0
C1190 C 0.64637 0.27414 0.6379 0.0
C1191 C 0.62913 0.31086 0.6349 0.0
C1192 C 0.62014 0.32257 0.65227 0.0
C1193 C 0.60017 0.33252 0.64893 0.0
C1194 C 0.58903 0.3304 0.6273 0.0
C1195 C 0.59774 0.31816 0.60928 0.0
C1196 C 0.61828 0.30862 0.61319 0.0
H1197 H 0.99655 0.31048 0.33768 0.0
H1198 H 0.05623 0.35697 0.351 0.0
H1199 H 0.04967 0.36137 0.39128 0.0
H1200 H 0.96282 0.33677 0.37532 0.0
H1201 H 0.95029 0.31111 0.38437 0.0
H1202 H 0.95998 0.31129 0.35678 0.0
H1203 H 0.98523 0.2795 0.36534 0.0
H1204 H 0.97546 0.2791 0.39291 0.0
H1205 H 0.00508 0.28312 0.38987 0.0
H1206 H 0.0341 0.36345 0.42936 0.0
H1207 H 0.01322 0.36019 0.46277 0.0
H1208 H 0.96685 0.30829 0.42519 0.0
C1209 C 0.00829 0.32146 0.34914 0.0
C1210 C 0.0268 0.33351 0.34133 0.0
C1211 C 0.04198 0.34755 0.35675 0.0
C1212 C 0.03835 0.3502 0.37961 0.0
C1213 C 0.01978 0.33824 0.38677 0.0
C1214 C 0.00528 0.32379 0.37206 0.0
C1215 C 0.98683 0.31258 0.38406 0.0
C1216 C 0.96361 0.31829 0.37457 0.0
C1217 C 0.98825 0.28706 0.38298 0.0
C1218 C 0.99283 0.32347 0.40768 0.0
C1219 C 0.01176 0.33834 0.40892 0.0
C1220 C 0.01953 0.35147 0.42871 0.0
C1221 C 0.00758 0.34936 0.44771 0.0
C1222 C 0.98822 0.33395 0.44694 0.0
C1223 C 0.98117 0.32062 0.42658 0.0
H1224 H 0.28675 0.59932 0.45887 0.0
H1225 H 0.25211 0.54599 0.41228 0.0
H1226 H 0.23737 0.52769 0.44416 0.0
H1227 H 0.30323 0.56457 0.50153 0.0
H1228 H 0.29938 0.58498 0.52433 0.0
H1229 H 0.30652 0.59411 0.49778 0.0
H1230 H 0.27145 0.61651 0.49548 0.0
H1231 H 0.2642 0.60745 0.52204 0.0
H1232 H 0.2442 0.6023 0.49768 0.0
H1233 H 0.22686 0.51502 0.48154 0.0
H1234 H 0.22144 0.50918 0.52115 0.0
H1235 H 0.264 0.57045 0.54264 0.0
C1236 C 0.27595 0.58387 0.45528 0.0
C1237 C 0.27054 0.57413 0.43305 0.0
C1238 C 0.25647 0.55379 0.42917 0.0
C1239 C 0.24801 0.54327 0.44717 0.0
C1240 C 0.25381 0.55329 0.46889 0.0
C1241 C 0.26746 0.57314 0.47298 0.0
C1242 C 0.2716 0.5803 0.49784 0.0
C1243 C 0.29667 0.58102 0.50583 0.0
C1244 C 0.2623 0.60298 0.50359 0.0
C1245 C 0.25815 0.56137 0.50716 0.0
C1246 C 0.24796 0.54596 0.49025 0.0
C1247 C 0.23477 0.52699 0.49491 0.0
C1248 C 0.23189 0.52375 0.51745 0.0
C1249 C 0.24219 0.5394 0.53502 0.0
C1250 C 0.25554 0.55837 0.52964 0.0
H1251 H 0.23955 0.44959 0.84529 0.0
H1252 H 0.26687 0.48688 0.79329 0.0
H1253 H 0.29058 0.51182 0.82243 0.0
H1254 H 0.23999 0.49771 0.88813 0.0
H1255 H 0.24777 0.48093 0.9106 0.0
H1256 H 0.23101 0.46814 0.88583 0.0
H1257 H 0.26018 0.43915 0.88003 0.0
H1258 H 0.27697 0.45181 0.90471 0.0
H1259 H 0.2891 0.44897 0.87824 0.0
H1260 H 0.31459 0.52971 0.85738 0.0
H1261 H 0.33673 0.53806 0.89433 0.0
H1262 H 0.29245 0.48943 0.92271 0.0
C1263 C 0.25019 0.46324 0.83997 0.0
C1264 C 0.25133 0.46629 0.81701 0.0
C1265 C 0.26562 0.4843 0.81081 0.0
C1266 C 0.27911 0.49857 0.82725 0.0
C1267 C 0.27787 0.49478 0.84977 0.0
C1268 C 0.2636 0.47761 0.85608 0.0
C1269 C 0.26649 0.47579 0.88109 0.0
C1270 C 0.24504 0.48096 0.89205 0.0
C1271 C 0.27362 0.45257 0.88631 0.0
C1272 C 0.28521 0.49406 0.88785 0.0
C1273 C 0.29142 0.50509 0.86969 0.0
C1274 C 0.30959 0.52145 0.87177 0.0
C1275 C 0.32201 0.52615 0.8928 0.0
C1276 C 0.31628 0.51435 0.9113 0.0
C1277 C 0.29722 0.49868 0.90883 0.0
H1278 H 0.65926 0.96774 0.56765 0.0
H1279 H 0.72346 0.94503 0.58952 0.0
H1280 H 0.73708 0.95159 0.55275 0.0
H1281 H 0.65529 0.94111 0.51351 0.0
H1282 H 0.64219 0.96304 0.50004 0.0
H1283 H 0.63861 0.95945 0.52902 0.0
H1284 H 0.65388 0.0009 0.53999 0.0
H1285 H 0.65761 0.00459 0.51096 0.0
H1286 H 0.68096 0.01088 0.53202 0.0
H1287 H 0.74203 0.95587 0.51231 0.0
H1288 H 0.73776 0.95761 0.47108 0.0
H1289 H 0.67083 0.97836 0.47542 0.0
C1290 C 0.67633 0.96459 0.5648 0.0
C1291 C 0.69056 0.95654 0.58166 0.0
C1292 C 0.71261 0.95213 0.57722 0.0
C1293 C 0.72043 0.95562 0.55628 0.0
C1294 C 0.706 0.9636 0.54001 0.0
C1295 C 0.68443 0.96811 0.54404 0.0
C1296 C 0.67174 0.97494 0.52318 0.0
C1297 C 0.65073 0.95866 0.51602 0.0
C1298 C 0.66569 0.99928 0.52676 0.0
C1299 C 0.68927 0.9728 0.50657 0.0
C1300 C 0.709 0.96643 0.51667 0.0
C1301 C 0.72688 0.96137 0.50432 0.0
C1302 C 0.72437 0.96242 0.48099 0.0
C1303 C 0.70421 0.96863 0.47037 0.0
C1304 C 0.68666 0.97432 0.48336 0.0
H1305 H 0.80084 0.00276 0.22382 0.0
H1306 H 0.76471 0.05807 0.2482 0.0
H1307 H 0.73786 0.05143 0.21441 0.0
H1308 H 0.79596 0.01377 0.16635 0.0
H1309 H 0.79245 0.98465 0.15558 0.0
H1310 H 0.80798 0.99288 0.18235 0.0
H1311 H 0.78181 0.96495 0.20112 0.0
H1312 H 0.76613 0.95669 0.17439 0.0
H1313 H 0.75194 0.9668 0.19803 0.0
H1314 H 0.71628 0.04022 0.17712 0.0
H1315 H 0.70143 0.02521 0.13867 0.0
H1316 H 0.75139 0.97706 0.13834 0.0
C1317 C 0.78717 0.01335 0.22205 0.0
C1318 C 0.78445 0.03055 0.23886 0.0
C1319 C 0.76658 0.04428 0.2359 0.0
C1320 C 0.75137 0.04075 0.21668 0.0
C1321 C 0.75432 0.02347 0.20053 0.0
C1322 C 0.77176 0.00998 0.20299 0.0
C1323 C 0.77155 0.99302 0.18278 0.0
C1324 C 0.79327 0.99629 0.17108 0.0
C1325 C 0.76762 0.96894 0.18949 0.0
C1326 C 0.75153 0.99938 0.16842 0.0
C1327 C 0.74179 0.01694 0.17902 0.0
C1328 C 0.72365 0.02637 0.16871 0.0
C1329 C 0.71539 0.01781 0.14688 0.0
C1330 C 0.72523 -4e-05 0.13564 0.0
C1331 C 0.74334 0.99048 0.14671 0.0
H1332 H 0.42561 0.31765 0.60095 0.0
H1333 H 0.40258 0.25734 0.55749 0.0
H1334 H 0.44119 0.25445 0.54671 0.0
H1335 H 0.46307 0.33924 0.56288 0.0
H1336 H 0.48403 0.3517 0.58439 0.0
H1337 H 0.45493 0.34904 0.58997 0.0
H1338 H 0.46395 0.32707 0.62424 0.0
H1339 H 0.49326 0.32975 0.61975 0.0
H1340 H 0.47894 0.30237 0.62101 0.0
H1341 H 0.48257 0.25844 0.54074 0.0
H1342 H 0.52334 0.26864 0.54058 0.0
H1343 H 0.51845 0.32677 0.5873 0.0
C1344 C 0.42869 0.30367 0.58935 0.0
C1345 C 0.41114 0.28759 0.58021 0.0
C1346 C 0.41581 0.26982 0.56474 0.0
C1347 C 0.43766 0.26805 0.55852 0.0
C1348 C 0.45454 0.2843 0.56777 0.0
C1349 C 0.45026 0.30179 0.5828 0.0
C1350 C 0.47105 0.3176 0.58963 0.0
C1351 C 0.46808 0.34078 0.58125 0.0
C1352 C 0.47715 0.31928 0.61517 0.0
C1353 C 0.48799 0.30573 0.57695 0.0
C1354 C 0.47813 0.28675 0.56413 0.0
C1355 C 0.49047 0.27328 0.55071 0.0
C1356 C 0.51354 0.27925 0.55063 0.0
C1357 C 0.52399 0.29841 0.564 0.0
C1358 C 0.51094 0.31187 0.57714 0.0
H1359 H 0.17545 0.73235 0.00895 0.0
H1360 H 0.18531 0.78751 0.96729 0.0
H1361 H 0.14428 0.78619 0.95822 0.0
H1362 H 0.13087 0.70151 0.97389 0.0
H1363 H 0.11598 0.69253 0.99693 0.0
H1364 H 0.14601 0.69827 0.00048 0.0
H1365 H 0.1426 0.72681 0.03463 0.0
H1366 H 0.11256 0.72109 0.03124 0.0
H1367 H 0.12503 0.74947 0.03141 0.0
H1368 H 0.10187 0.7778 0.95288 0.0
H1369 H 0.06183 0.76421 0.95318 0.0
H1370 H 0.08058 0.7147 0.99834 0.0
C1371 C 0.16905 0.74426 0.99798 0.0
C1372 C 0.18363 0.76003 0.98881 0.0
C1373 C 0.17448 0.7753 0.97456 0.0
C1374 C 0.1512 0.77465 0.96928 0.0
C1375 C 0.13734 0.7587 0.97845 0.0
C1376 C 0.14596 0.74389 0.99262 0.0
C1377 C 0.12761 0.7283 0.00028 0.0
C1378 C 0.13028 0.7037 0.99241 0.0
C1379 C 0.12692 0.73163 0.02591 0.0
C1380 C 0.10727 0.73655 0.98813 0.0
C1381 C 0.11315 0.75405 0.97557 0.0
C1382 C 0.09709 0.76415 0.96271 0.0
C1383 C 0.07443 0.75625 0.96288 0.0
C1384 C 0.0681 0.73851 0.97589 0.0
C1385 C 0.08484 0.72854 0.98852 0.0
H1386 H 0.82475 0.28866 0.40715 0.0
H1387 H 0.80866 0.24101 0.45538 0.0
H1388 H 0.84154 0.25717 0.48051 0.0
H1389 H 0.8825 0.28666 0.41312 0.0
H1390 H 0.88952 0.31608 0.41069 0.0
H1391 H 0.86335 0.30251 0.39756 0.0
H1392 H 0.84175 0.3318 0.41905 0.0
H1393 H 0.86792 0.34551 0.43226 0.0
H1394 H 0.84623 0.33609 0.44925 0.0
H1395 H 0.87849 0.27509 0.4981 0.0
H1396 H 0.9165 0.29384 0.50709 0.0
H1397 H 0.90735 0.33202 0.44904 0.0
C1398 C 0.82792 0.28185 0.42315 0.0
C1399 C 0.81411 0.26354 0.42925 0.0
C1400 C 0.81894 0.25506 0.45032 0.0
C1401 C 0.83756 0.26417 0.46477 0.0
C1402 C 0.85102 0.28196 0.45809 0.0
C1403 C 0.84633 0.29088 0.43789 0.0
C1404 C 0.86421 0.30916 0.43415 0.0
C1405 C 0.87556 0.30323 0.41261 0.0
C1406 C 0.85444 0.33199 0.43366 0.0
C1407 C 0.88011 0.30847 0.45498 0.0
C1408 C 0.8721 0.29282 0.46866 0.0
C1409 C 0.88472 0.28779 0.48782 0.0
C1410 C 0.90631 0.2987 0.49288 0.0
C1411 C 0.91508 0.31457 0.47888 0.0
C1412 C 0.90138 0.31989 0.46005 0.0
H1413 H 0.59057 0.7177 0.9525 0.0
H1414 H 0.58936 0.66024 0.99173 0.0
H1415 H 0.54916 0.66319 0.99613 0.0
H1416 H 0.54733 0.74849 0.98198 0.0
H1417 H 0.5356 0.75732 0.95587 0.0
H1418 H 0.5651 0.75365 0.95983 0.0
H1419 H 0.56121 0.7262 0.92377 0.0
H1420 H 0.53177 0.72959 0.91982 0.0
H1421 H 0.54106 0.70195 0.92149 0.0
H1422 H 0.50842 0.66888 0.99173 0.0
H1423 H 0.47012 0.67577 0.97748 0.0
H1424 H 0.49753 0.72938 0.94075 0.0
C1425 C 0.58206 0.70641 0.96286 0.0
C1426 C 0.59311 0.68909 0.97225 0.0
C1427 C 0.58119 0.67382 0.98468 0.0
C1428 C 0.5584 0.67543 0.98735 0.0
C1429 C 0.54777 0.69235 0.97739 0.0
C1430 C 0.55922 0.70763 0.96542 0.0
C1431 C 0.54333 0.72227 0.95388 0.0
C1432 C 0.54813 0.7469 0.96347 0.0
C1433 C 0.54441 0.71984 0.92823 0.0
C1434 C 0.5211 0.71219 0.96038 0.0
C1435 C 0.52405 0.6953 0.97437 0.0
C1436 C 0.5059 0.68237 0.98116 0.0
C1437 C 0.48418 0.68645 0.97304 0.0
C1438 C 0.48082 0.70314 0.95805 0.0
C1439 C 0.49957 0.71651 0.95219 0.0
H1440 H 0.61173 0.4386 0.31974 0.0
H1441 H 0.54873 0.40902 0.28468 0.0
H1442 H 0.53346 0.44589 0.28811 0.0
H1443 H 0.58835 0.4733 0.35926 0.0
H1444 H 0.60936 0.49659 0.35975 0.0
H1445 H 0.61644 0.46853 0.35275 0.0
H1446 H 0.63006 0.48035 0.31525 0.0
H1447 H 0.62329 0.50858 0.32245 0.0
H1448 H 0.6115 0.49358 0.29631 0.0
H1449 H 0.52402 0.4851 0.29785 0.0
H1450 H 0.52165 0.52463 0.3117 0.0
H1451 H 0.59046 0.52848 0.34119 0.0
C1452 C 0.5949 0.43995 0.31234 0.0
C1453 C 0.58146 0.42091 0.30188 0.0
C1454 C 0.55938 0.42336 0.29274 0.0
C1455 C 0.55054 0.44424 0.29459 0.0
C1456 C 0.56402 0.46252 0.30553 0.0
C1457 C 0.58579 0.46066 0.31405 0.0
C1458 C 0.59633 0.48264 0.32607 0.0
C1459 C 0.603 0.48007 0.35094 0.0
C1460 C 0.61648 0.49183 0.31431 0.0
C1461 C 0.57693 0.49704 0.32334 0.0
C1462 C 0.5585 0.48513 0.31134 0.0
C1463 C 0.53838 0.49465 0.30715 0.0
C1464 C 0.53713 0.51703 0.31527 0.0
C1465 C 0.55586 0.52961 0.32749 0.0
C1466 C 0.57597 0.51938 0.33161 0.0
H1467 H 0.97057 0.19025 0.72544 0.0
H1468 H 0.00312 0.19709 0.79336 0.0
H1469 H 0.00431 0.15601 0.7919 0.0
H1470 H 0.93624 0.13878 0.73066 0.0
H1471 H 0.93911 0.12749 0.70237 0.0
H1472 H 0.94038 0.15741 0.70899 0.0
H1473 H 0.97914 0.16203 0.69305 0.0
H1474 H 0.97799 0.13215 0.68638 0.0
H1475 H 0.0015 0.14657 0.70386 0.0
H1476 H 0.00314 0.11424 0.78246 0.0
H1477 H 0.99886 0.0748 0.76602 0.0
H1478 H 0.96688 0.09548 0.70452 0.0
C1479 C 0.97789 0.18315 0.7401 0.0
C1480 C 0.98678 0.19695 0.75953 0.0
C1481 C 0.99618 0.18692 0.7783 0.0
C1482 C 0.99693 0.16358 0.77761 0.0
C1483 C 0.98812 0.15051 0.75813 0.0
C1484 C 0.97869 0.15993 0.73974 0.0
C1485 C 0.97061 0.1422 0.72075 0.0
C1486 C 0.94507 0.14143 0.71538 0.0
C1487 C 0.98306 0.14597 0.69978 0.0
C1488 C 0.97715 0.12135 0.73123 0.0
C1489 C 0.98723 0.12648 0.7528 0.0
C1490 C 0.99518 0.11001 0.76562 0.0
C1491 C 0.99279 0.0877 0.75612 0.0
C1492 C 0.98248 0.0821 0.73405 0.0
C1493 C 0.97452 0.09921 0.72155 0.0
H1494 H 0.4011 0.81121 0.23783 0.0
H1495 H 0.41756 0.79336 0.16984 0.0
H1496 H 0.44637 0.82537 0.17344 0.0
H1497 H 0.40777 0.87089 0.23563 0.0
H1498 H 0.42013 0.87666 0.26415 0.0
H1499 H 0.40083 0.85213 0.25649 0.0
H1500 H 0.4306 0.82695 0.27163 0.0
H1501 H 0.44997 0.85142 0.27939 0.0
H1502 H 0.45792 0.82858 0.26118 0.0
H1503 H 0.47269 0.85961 0.1838 0.0
H1504 H 0.49553 0.89374 0.20068 0.0
H1505 H 0.46308 0.88891 0.26241 0.0
C1506 C 0.41078 0.814 0.22371 0.0
C1507 C 0.40701 0.79973 0.20354 0.0
C1508 C 0.4201 0.80399 0.18548 0.0
C1509 C 0.43652 0.82216 0.18733 0.0
C1510 C 0.43974 0.8359 0.20737 0.0
C1511 C 0.42734 0.83205 0.22529 0.0
C1512 C 0.43425 0.84945 0.24494 0.0
C1513 C 0.41457 0.86309 0.25063 0.0
C1514 C 0.44375 0.83844 0.2655 0.0
C1515 C 0.45237 0.86371 0.23518 0.0
C1516 C 0.45524 0.85559 0.21349 0.0
C1517 C 0.47075 0.86605 0.20085 0.0
C1518 C 0.48376 0.88535 0.21066 0.0
C1519 C 0.48126 0.89397 0.23295 0.0
C1520 C 0.4653 0.8829 0.24529 0.0
H1521 H 0.96275 0.55601 0.68143 0.0
H1522 H 0.0222 0.56674 0.72855 0.0
H1523 H 0.03038 0.52749 0.71949 0.0
H1524 H 0.94584 0.50085 0.69229 0.0
H1525 H 0.93691 0.49102 0.66349 0.0
H1526 H 0.93628 0.52018 0.67292 0.0
H1527 H 0.96123 0.53155 0.64173 0.0
H1528 H 0.9618 0.50239 0.63208 0.0
H1529 H 0.98769 0.51977 0.63958 0.0
H1530 H 0.02956 0.48596 0.70829 0.0
H1531 H 0.02188 0.44642 0.69344 0.0
H1532 H 0.96555 0.46416 0.65017 0.0
C1533 C 0.97759 0.55013 0.68968 0.0
C1534 C 0.9918 0.56432 0.70576 0.0
C1535 C 0.01116 0.55613 0.7161 0.0
C1536 C 0.0159 0.53387 0.71111 0.0
C1537 C 0.00139 0.52021 0.69539 0.0
C1538 C 0.98286 0.52814 0.68452 0.0
C1539 C 0.96995 0.51004 0.6683 0.0
C1540 C 0.94582 0.50525 0.67464 0.0
C1541 C 0.97019 0.51631 0.64398 0.0
C1542 C 0.98374 0.49051 0.67223 0.0
C1543 C 0.00172 0.49666 0.68798 0.0
C1544 C 0.01584 0.48106 0.69552 0.0
C1545 C 0.0114 0.45857 0.68679 0.0
C1546 C 0.99315 0.45184 0.67037 0.0
C1547 C 0.97946 0.46834 0.66286 0.0
H1548 H 0.6754 0.36551 0.58834 0.0
H1549 H 0.7239 0.42322 0.6041 0.0
H1550 H 0.70649 0.44167 0.57249 0.0
H1551 H 0.68112 0.36377 0.5327 0.0
H1552 H 0.65271 0.35413 0.5224 0.0
H1553 H 0.66366 0.34751 0.54961 0.0
H1554 H 0.63168 0.36534 0.56819 0.0
H1555 H 0.61986 0.37233 0.54137 0.0
H1556 H 0.6265 0.39402 0.56396 0.0
H1557 H 0.68771 0.4513 0.53606 0.0
H1558 H 0.67168 0.4496 0.49647 0.0
H1559 H 0.63673 0.38482 0.50341 0.0
C1560 C 0.68161 0.38245 0.58567 0.0
C1561 C 0.70049 0.39334 0.5989 0.0
C1562 C 0.70911 0.41493 0.59433 0.0
C1563 C 0.69926 0.42553 0.57649 0.0
C1564 C 0.68102 0.41412 0.56322 0.0
C1565 C 0.67231 0.39296 0.56754 0.0
C1566 C 0.65572 0.38247 0.54839 0.0
C1567 C 0.66379 0.3607 0.53766 0.0
C1568 C 0.63206 0.37829 0.55599 0.0
C1569 C 0.65666 0.40085 0.53262 0.0
C1570 C 0.671 0.41916 0.54156 0.0
C1571 C 0.67609 0.43726 0.52907 0.0
C1572 C 0.66685 0.43624 0.50666 0.0
C1573 C 0.65297 0.41713 0.49701 0.0
C1574 C 0.6472 0.3997 0.51048 0.0
H1575 H 0.74145 0.63007 0.21189 0.0
H1576 H 0.80162 0.61024 0.24706 0.0
H1577 H 0.80252 0.57881 0.21805 0.0
H1578 H 0.71611 0.57415 0.19669 0.0
H1579 H 0.70378 0.58046 0.16977 0.0
H1580 H 0.70861 0.6021 0.19271 0.0
H1581 H 0.73201 0.62705 0.16828 0.0
H1582 H 0.72721 0.60549 0.14526 0.0
H1583 H 0.75545 0.61611 0.15551 0.0
H1584 H 0.79654 0.54923 0.18507 0.0
H1585 H 0.78412 0.52391 0.15095 0.0
H1586 H 0.7264 0.56172 0.13905 0.0
C1587 C 0.75492 0.61921 0.21341 0.0
C1588 C 0.77196 0.62314 0.23132 0.0
C1589 C 0.78906 0.60832 0.23292 0.0
C1590 C 0.78949 0.59016 0.21669 0.0
C1591 C 0.77253 0.5869 0.19913 0.0
C1592 C 0.75551 0.60097 0.19746 0.0
C1593 C 0.73897 0.59351 0.1773 0.0
C1594 C 0.71548 0.58718 0.18456 0.0
C1595 C 0.73839 0.61162 0.1606 0.0
C1596 C 0.74936 0.57308 0.16784 0.0
C1597 C 0.76872 0.56953 0.18063 0.0
C1598 C 0.78134 0.55178 0.17498 0.0
C1599 C 0.77406 0.53739 0.15566 0.0
C1600 C 0.75428 0.54078 0.14224 0.0
C1601 C 0.74176 0.5588 0.14867 0.0
H1602 H 0.30328 0.07536 0.4039 0.0
H1603 H 0.36298 0.0397 0.40992 0.0
H1604 H 0.35244 0.02725 0.44628 0.0
H1605 H 0.30733 0.09685 0.4598 0.0
H1606 H 0.27759 0.09503 0.46244 0.0
H1607 H 0.2879 0.09808 0.43546 0.0
H1608 H 0.26337 0.06204 0.4188 0.0
H1609 H 0.25291 0.05892 0.44579 0.0
H1610 H 0.26587 0.03628 0.43186 0.0
H1611 H 0.33669 0.02083 0.48295 0.0
H1612 H 0.31905 0.02404 0.51881 0.0
H1613 H 0.27093 0.06578 0.48967 0.0
C1614 C 0.31373 0.06437 0.4126 0.0
C1615 C 0.33364 0.058 0.40403 0.0
C1616 C 0.34751 0.04448 0.41623 0.0
C1617 C 0.3416 0.03726 0.43676 0.0
C1618 C 0.32191 0.04397 0.44492 0.0
C1619 C 0.30828 0.0574 0.4333 0.0
C1620 C 0.28947 0.0644 0.44685 0.0
C1621 C 0.29066 0.09011 0.45141 0.0
C1622 C 0.26655 0.05483 0.43513 0.0
C1623 C 0.29497 0.05333 0.46813 0.0
C1624 C 0.31341 0.04117 0.4665 0.0
C1625 C 0.32211 0.03012 0.48436 0.0
C1626 C 0.31198 0.03197 0.5046 0.0
C1627 C 0.29367 0.04509 0.50685 0.0
C1628 C 0.28488 0.05557 0.48827 0.0
H1629 H 0.22803 0.95529 0.78905 0.0
H1630 H 0.25451 0.0172 0.7646 0.0
H1631 H 0.27711 0.02726 0.80081 0.0
H1632 H 0.22266 0.97996 0.8455 0.0
H1633 H 0.22982 0.95513 0.8584 0.0
H1634 H 0.21622 0.95271 0.83029 0.0
H1635 H 0.24851 0.9309 0.81603 0.0
H1636 H 0.26224 0.93333 0.84406 0.0
H1637 H 0.27701 0.94333 0.82136 0.0
H1638 H 0.29812 0.02957 0.83949 0.0
H1639 H 0.31419 0.02493 0.87788 0.0
H1640 H 0.2706 0.96348 0.87801 0.0
C1641 C 0.23857 0.97099 0.7913 0.0
C1642 C 0.24031 0.98497 0.77361 0.0
C1643 C 0.25395 0.00555 0.77738 0.0
C1644 C 0.26654 0.01162 0.79807 0.0
C1645 C 0.26485 0.99715 0.81498 0.0
C1646 C 0.25095 0.97742 0.81191 0.0
C1647 C 0.25178 0.96499 0.83284 0.0
C1648 C 0.22875 0.9631 0.84232 0.0
C1649 C 0.2604 0.94177 0.82829 0.0
C1650 C 0.2686 0.98063 0.84807 0.0
C1651 C 0.276 0.99907 0.83751 0.0
C1652 C 0.29222 0.01534 0.84804 0.0
C1653 C 0.30115 0.01262 0.86993 0.0
C1654 C 0.29374 0.99383 0.88111 0.0
C1655 C 0.27701 0.97786 0.86996 0.0
H1656 H 0.57823 0.67902 0.37195 0.0
H1657 H 0.60718 0.73182 0.42212 0.0
H1658 H 0.57131 0.73144 0.43962 0.0
H1659 H 0.52635 0.70187 0.36419 0.0
H1660 H 0.50968 0.67527 0.3594 0.0
H1661 H 0.53835 0.67738 0.35262 0.0
H1662 H 0.54838 0.64654 0.37911 0.0
H1663 H 0.51903 0.64346 0.3832 0.0
H1664 H 0.53967 0.64844 0.40716 0.0
H1665 H 0.53178 0.72725 0.44992 0.0
H1666 H 0.49084 0.72132 0.45105 0.0
H1667 H 0.48717 0.67144 0.39382 0.0
C1668 C 0.57711 0.69004 0.38698 0.0
C1669 C 0.59546 0.70514 0.39604 0.0
C1670 C 0.59326 0.71998 0.41515 0.0
C1671 C 0.57302 0.71983 0.42521 0.0
C1672 C 0.55507 0.70495 0.41573 0.0
C1673 C 0.55685 0.69046 0.39693 0.0
C1674 C 0.53443 0.67787 0.38869 0.0
C1675 C 0.52676 0.68344 0.36482 0.0
C1676 C 0.53542 0.65254 0.38966 0.0
C1677 C 0.51979 0.68744 0.40581 0.0
C1678 C 0.53207 0.70293 0.42134 0.0
C1679 C 0.52202 0.71493 0.43804 0.0
C1680 C 0.49874 0.71131 0.43864 0.0
C1681 C 0.4857 0.69586 0.42259 0.0
C1682 C 0.49657 0.68347 0.40627 0.0
H1683 H 0.79354 0.19733 0.98289 0.0
H1684 H 0.76403 0.2597 0.99818 0.0
H1685 H 0.80174 0.27979 0.00501 0.0
H1686 H 0.84153 0.20705 0.02234 0.0
H1687 H 0.86041 0.19505 0.00385 0.0
H1688 H 0.83105 0.18539 0.00052 0.0
H1689 H 0.82873 0.19458 0.95897 0.0
H1690 H 0.85813 0.20415 0.96214 0.0
H1691 H 0.83784 0.22246 0.95239 0.0
H1692 H 0.84271 0.29269 0.01216 0.0
H1693 H 0.88423 0.29823 0.01541 0.0
H1694 H 0.88711 0.22837 0.99213 0.0
C1695 C 0.79502 0.21523 0.9876 0.0
C1696 C 0.77586 0.22677 0.99107 0.0
C1697 C 0.77847 0.25025 0.99681 0.0
C1698 C 0.79984 0.26189 0.00033 0.0
C1699 C 0.81841 0.24989 0.9975 0.0
C1700 C 0.81623 0.22716 0.99086 0.0
C1701 C 0.83891 0.21836 0.98845 0.0
C1702 C 0.84322 0.2004 0.00477 0.0
C1703 C 0.84102 0.20936 0.96403 0.0
C1704 C 0.85418 0.23964 0.99505 0.0
C1705 C 0.84201 0.2576 0.00036 0.0
C1706 C 0.85241 0.27883 0.0078 0.0
C1707 C 0.8759 0.28182 0.00968 0.0
C1708 C 0.88857 0.26374 0.00389 0.0
C1709 C 0.87762 0.24243 0.99645 0.0
H1710 H 0.18426 0.73455 0.62099 0.0
H1711 H 0.2032 0.80536 0.61763 0.0
H1712 H 0.17182 0.80683 0.58851 0.0
H1713 H 0.16458 0.7207 0.56123 0.0
H1714 H 0.14177 0.70159 0.56772 0.0
H1715 H 0.16744 0.70563 0.58594 0.0
H1716 H 0.14509 0.71628 0.61985 0.0
H1717 H 0.11942 0.71215 0.6018 0.0
H1718 H 0.12688 0.73862 0.61823 0.0
H1719 H 0.13569 0.80107 0.56248 0.0
H1720 H 0.09763 0.78913 0.54396 0.0
H1721 H 0.10303 0.72226 0.56482 0.0
C1722 C 0.18203 0.75031 0.61387 0.0
C1723 C 0.19649 0.76971 0.62114 0.0
C1724 C 0.19286 0.79009 0.61169 0.0
C1725 C 0.17496 0.7911 0.59525 0.0
C1726 C 0.16098 0.77157 0.58845 0.0
C1727 C 0.16438 0.75157 0.59752 0.0
C1728 C 0.14609 0.73337 0.58893 0.0
C1729 C 0.15554 0.71419 0.57513 0.0
C1730 C 0.13364 0.72461 0.60835 0.0
C1731 C 0.13136 0.74641 0.57416 0.0
C1732 C 0.1403 0.76833 0.57375 0.0
C1733 C 0.12872 0.78386 0.56241 0.0
C1734 C 0.1072 0.77694 0.55185 0.0
C1735 C 0.09751 0.75481 0.55299 0.0
C1736 C 0.11011 0.73927 0.56366 0.0
H1737 H 0.3991 0.30808 0.0668 0.0
H1738 H 0.37147 0.2408 0.04182 0.0
H1739 H 0.40973 0.22889 0.04087 0.0
H1740 H 0.44662 0.3113 0.03625 0.0
H1741 H 0.46499 0.32597 0.059 0.0
H1742 H 0.43539 0.32911 0.05743 0.0
H1743 H 0.4335 0.31636 0.09754 0.0
H1744 H 0.46315 0.31338 0.09933 0.0
H1745 H 0.44375 0.29 0.10386 0.0
H1746 H 0.45181 0.2253 0.04057 0.0
H1747 H 0.4935 0.22926 0.0453 0.0
H1748 H 0.49254 0.29785 0.07369 0.0
C1749 C 0.401 0.29077 0.06126 0.0
C1750 C 0.38222 0.27563 0.05339 0.0
C1751 C 0.38553 0.25307 0.04662 0.0
C1752 C 0.40726 0.24605 0.04639 0.0
C1753 C 0.42543 0.26169 0.05351 0.0
C1754 C 0.42244 0.28346 0.06128 0.0
C1755 C 0.44457 0.29695 0.06858 0.0
C1756 C 0.44809 0.31701 0.05446 0.0
C1757 C 0.44634 0.30461 0.09383 0.0
C1758 C 0.46055 0.27948 0.06346 0.0
C1759 C 0.4493 0.25927 0.05459 0.0
C1760 C 0.46077 0.24096 0.04776 0.0
C1761 C 0.48434 0.24335 0.05037 0.0
C1762 C 0.49596 0.26376 0.06 0.0
C1763 C 0.48391 0.28199 0.06652 0.0
H1764 H 0.44242 0.56393 0.66592 0.0
H1765 H 0.43026 0.57999 0.73552 0.0
H1766 H 0.43443 0.54071 0.74303 0.0
H1767 H 0.41085 0.51304 0.6585 0.0
H1768 H 0.42909 0.499 0.6407 0.0
H1769 H 0.42865 0.52895 0.64161 0.0
H1770 H 0.47155 0.53393 0.65241 0.0
H1771 H 0.47211 0.50389 0.65153 0.0
H1772 H 0.4831 0.52135 0.67654 0.0
H1773 H 0.43467 0.49899 0.74177 0.0
H1774 H 0.43104 0.45799 0.7317 0.0
H1775 H 0.4436 0.4691 0.6632 0.0
C1776 C 0.44117 0.55935 0.68289 0.0
C1777 C 0.43607 0.5751 0.70014 0.0
C1778 C 0.43423 0.56828 0.72203 0.0
C1779 C 0.43666 0.546 0.72649 0.0
C1780 C 0.44115 0.53079 0.70896 0.0
C1781 C 0.44356 0.5372 0.68763 0.0
C1782 C 0.44638 0.51723 0.67129 0.0
C1783 C 0.42762 0.5144 0.65189 0.0
C1784 C 0.46968 0.51923 0.66242 0.0
C1785 C 0.44423 0.49845 0.68654 0.0
C1786 C 0.44155 0.50666 0.70829 0.0
C1787 C 0.43722 0.4924 0.72493 0.0
C1788 C 0.43513 0.46918 0.71906 0.0
C1789 C 0.43734 0.46048 0.69678 0.0
C1790 C 0.44247 0.47533 0.6805 0.0
H1791 H 0.96067 0.79145 0.26037 0.0
H1792 H 0.00536 0.77393 0.20985 0.0
H1793 H 0.03007 0.80851 0.22226 0.0
H1794 H 0.9638 0.8489 0.25327 0.0
H1795 H 0.96278 0.85806 0.28252 0.0
H1796 H 0.95 0.83081 0.27144 0.0
H1797 H 0.97389 0.81223 0.30147 0.0
H1798 H 0.9867 0.83947 0.31274 0.0
H1799 H 0.00397 0.81778 0.30399 0.0
H1800 H 0.04885 0.84562 0.23891 0.0
H1801 H 0.05917 0.88401 0.25692 0.0
H1802 H 0.0016 0.87796 0.29585 0.0
C1803 C 0.976 0.79461 0.2524 0.0
C1804 C 0.98146 0.77987 0.23453 0.0
C1805 C 0.00108 0.78499 0.22374 0.0
C1806 C 0.01522 0.80449 0.23073 0.0
C1807 C 0.00935 0.81876 0.24838 0.0
C1808 C 0.99015 0.81415 0.259 0.0
C1809 C 0.98672 0.83313 0.27627 0.0
C1810 C 0.96451 0.84332 0.27052 0.0
C1811 C 0.9879 0.82517 0.30002 0.0
C1812 C 0.00675 0.84933 0.27337 0.0
C1813 C 0.01979 0.84055 0.25747 0.0
C1814 C 0.03888 0.85261 0.25151 0.0
C1815 C 0.04465 0.87435 0.26187 0.0
C1816 C 0.03121 0.88387 0.27778 0.0
C1817 C 0.01214 0.87107 0.28371 0.0
H1818 H 0.63355 0.20703 0.74721 0.0
H1819 H 0.63284 0.22077 0.81927 0.0
H1820 H 0.60273 0.19033 0.81933 0.0
H1821 H 0.57532 0.19252 0.73352 0.0
H1822 H 0.57898 0.16997 0.71276 0.0
H1823 H 0.60002 0.19335 0.71836 0.0
H1824 H 0.6303 0.16612 0.72689 0.0
H1825 H 0.60935 0.14264 0.7212 0.0
H1826 H 0.6262 0.14656 0.74775 0.0
H1827 H 0.5711 0.15918 0.81092 0.0
H1828 H 0.54356 0.1275 0.79531 0.0
H1829 H 0.56779 0.13215 0.72965 0.0
C1830 C 0.62714 0.20367 0.76306 0.0
C1831 C 0.63492 0.21708 0.78311 0.0
C1832 C 0.6263 0.21176 0.80349 0.0
C1833 C 0.60941 0.19418 0.80374 0.0
C1834 C 0.6017 0.18173 0.78355 0.0
C1835 C 0.6106 0.18599 0.76366 0.0
C1836 C 0.59999 0.16974 0.74435 0.0
C1837 C 0.58786 0.18214 0.72618 0.0
C1838 C 0.61751 0.15542 0.73448 0.0
C1839 C 0.58354 0.15578 0.75642 0.0
C1840 C 0.5846 0.16304 0.77899 0.0
C1841 C 0.57031 0.1532 0.79333 0.0
C1842 C 0.55471 0.13534 0.78436 0.0
C1843 C 0.55382 0.1274 0.76141 0.0
C1844 C 0.56841 0.13778 0.74733 0.0
H1845 H 0.01196 0.42484 0.27838 0.0
H1846 H 0.06949 0.40108 0.24748 0.0
H1847 H 0.08379 0.44013 0.24374 0.0
H1848 H 0.00474 0.47186 0.24511 0.0
H1849 H 0.99757 0.49013 0.26829 0.0
H1850 H 0.99119 0.46023 0.26781 0.0
H1851 H 0.01347 0.46044 0.30672 0.0
H1852 H 0.0198 0.49034 0.30737 0.0
H1853 H 0.04221 0.47236 0.31065 0.0
H1854 H 0.09192 0.48137 0.24322 0.0
H1855 H 0.09482 0.52267 0.24828 0.0
H1856 H 0.03302 0.52009 0.28116 0.0
C1857 C 0.0275 0.42786 0.27071 0.0
C1858 C 0.03957 0.4099 0.26313 0.0
C1859 C 0.05998 0.41456 0.25345 0.0
C1860 C 0.06819 0.43668 0.25115 0.0
C1861 C 0.05589 0.45397 0.25875 0.0
C1862 C 0.0361 0.44989 0.26851 0.0
C1863 C 0.02671 0.47164 0.27615 0.0
C1864 C 0.00369 0.47357 0.26359 0.0
C1865 C 0.02548 0.47382 0.30174 0.0
C1866 C 0.04439 0.48854 0.2692 0.0
C1867 C 0.06094 0.47794 0.25902 0.0
C1868 C 0.07914 0.48989 0.25128 0.0
C1869 C 0.08069 0.51335 0.25436 0.0
C1870 C 0.06427 0.52466 0.2653 0.0
C1871 C 0.04573 0.51199 0.27254 0.0
H1872 H 0.3829 0.61068 0.36867 0.0
H1873 H 0.39365 0.65053 0.43301 0.0
H1874 H 0.43414 0.64637 0.43386 0.0
H1875 H 0.4203 0.57164 0.38365 0.0
H1876 H 0.4303 0.56697 0.3563 0.0
H1877 H 0.40254 0.57549 0.35879 0.0
H1878 H 0.41147 0.61069 0.33682 0.0
H1879 H 0.43838 0.60035 0.33322 0.0
H1880 H 0.43693 0.62849 0.34533 0.0
H1881 H 0.47298 0.63645 0.42898 0.0
H1882 H 0.50745 0.6194 0.41939 0.0
H1883 H 0.47132 0.58466 0.35922 0.0
C1884 C 0.39384 0.61907 0.38264 0.0
C1885 C 0.38513 0.6313 0.40058 0.0
C1886 C 0.39994 0.64137 0.4189 0.0
C1887 C 0.42299 0.63916 0.41953 0.0
C1888 C 0.43101 0.62686 0.40171 0.0
C1889 C 0.4169 0.61687 0.38363 0.0
C1890 C 0.42945 0.60244 0.36793 0.0
C1891 C 0.42009 0.57767 0.3666 0.0
C1892 C 0.429 0.61103 0.34446 0.0
C1893 C 0.45278 0.60599 0.37999 0.0
C1894 C 0.45335 0.62029 0.39934 0.0
C1895 C 0.47283 0.62542 0.41374 0.0
C1896 C 0.49228 0.61569 0.40819 0.0
C1897 C 0.49214 0.60124 0.38829 0.0
C1898 C 0.47203 0.59615 0.37421 0.0
H1899 H 0.13082 0.42286 0.73714 0.0
H1900 H 0.15753 0.35779 0.73553 0.0
H1901 H 0.12312 0.34083 0.71295 0.0
H1902 H 0.07509 0.40347 0.74404 0.0
H1903 H 0.0626 0.42302 0.72664 0.0
H1904 H 0.08997 0.43027 0.74119 0.0
H1905 H 0.10616 0.43761 0.70345 0.0
H1906 H 0.07878 0.43037 0.68881 0.0
H1907 H 0.10229 0.41588 0.68051 0.0
H1908 H 0.0848 0.33063 0.69254 0.0
H1909 H 0.04556 0.32815 0.67574 0.0
H1910 H 0.04417 0.39976 0.69107 0.0
C1911 C 0.12959 0.40509 0.73183 0.0
C1912 C 0.14689 0.39165 0.73805 0.0
C1913 C 0.1445 0.36842 0.73093 0.0
C1914 C 0.12505 0.35864 0.71808 0.0
C1915 C 0.10821 0.37235 0.71247 0.0
C1916 C 0.11032 0.39508 0.71908 0.0
C1917 C 0.0894 0.40594 0.71175 0.0
C1918 C 0.07863 0.41627 0.73212 0.0
C1919 C 0.09447 0.42349 0.69514 0.0
C1920 C 0.07506 0.38571 0.70026 0.0
C1921 C 0.08623 0.36651 0.70069 0.0
C1922 C 0.07602 0.34561 0.69181 0.0
C1923 C 0.0538 0.34436 0.68224 0.0
C1924 C 0.04217 0.36387 0.6816 0.0
C1925 C 0.05294 0.38473 0.69081 0.0
H1926 H 0.8073 0.97368 0.63689 0.0
H1927 H 0.79062 0.04281 0.641 0.0
H1928 H 0.83076 0.05577 0.64949 0.0
H1929 H 0.8507 0.98079 0.68209 0.0
H1930 H 0.86812 0.96166 0.66866 0.0
H1931 H 0.83813 0.9579 0.66254 0.0
H1932 H 0.84283 0.95913 0.62008 0.0
H1933 H 0.87284 0.9629 0.62607 0.0
H1934 H 0.85861 0.98285 0.61061 0.0
H1935 H 0.8727 0.06112 0.65844 0.0
H1936 H 0.91346 0.05832 0.6665 0.0
H1937 H 0.90247 0.98583 0.65625 0.0
C1938 C 0.81205 0.99156 0.6395 0.0
C1939 C 0.7958 0.00724 0.63826 0.0
C1940 C 0.80276 0.03048 0.64184 0.0
C1941 C 0.82551 0.03801 0.64668 0.0
C1942 C 0.84107 0.02208 0.64785 0.0
C1943 C 0.83464 0.99935 0.64433 0.0
C1944 C 0.85462 0.98567 0.64673 0.0
C1945 C 0.85277 0.97062 0.66616 0.0
C1946 C 0.85738 0.97183 0.62455 0.0
C1947 C 0.87332 0.00426 0.65215 0.0
C1948 C 0.86518 0.02516 0.65274 0.0
C1949 C 0.87929 0.04487 0.65781 0.0
C1950 C 0.90234 0.04315 0.6623 0.0
C1951 C 0.91097 0.02191 0.66144 0.0
C1952 C 0.89624 0.00226 0.65654 0.0
H1953 H 0.69143 0.9821 0.2384 0.0
H1954 H 0.68037 0.04176 0.28061 0.0
H1955 H 0.63946 0.03194 0.27422 0.0
H1956 H 0.64378 0.98353 0.19783 0.0
H1957 H 0.63778 0.95346 0.19465 0.0
H1958 H 0.66612 0.96562 0.20197 0.0
H1959 H 0.66862 0.94345 0.23725 0.0
H1960 H 0.6403 0.93122 0.23004 0.0
H1961 H 0.64797 0.94622 0.25724 0.0
H1962 H 0.59979 0.01516 0.26383 0.0
H1963 H 0.56425 0.99222 0.25054 0.0
H1964 H 0.60145 0.94343 0.21578 0.0
C1965 C 0.68044 0.99319 0.24622 0.0
C1966 C 0.6891 0.01273 0.25997 0.0
C1967 C 0.67411 0.02671 0.26999 0.0
C1968 C 0.65086 0.02129 0.26644 0.0
C1969 C 0.6429 0.00185 0.25286 0.0
C1970 C 0.65723 0.988 0.24294 0.0
C1971 C 0.64445 0.96777 0.22957 0.0
C1972 C 0.64826 0.9676 0.20452 0.0
C1973 C 0.65071 0.94588 0.23911 0.0
C1974 C 0.62066 0.97233 0.23361 0.0
C1975 C 0.6201 0.99213 0.24699 0.0
C1976 C 0.60001 0.9997 0.25324 0.0
C1977 C 0.57997 0.98665 0.24564 0.0
C1978 C 0.58024 0.96634 0.23196 0.0
C1979 C 0.60084 0.95908 0.22597 0.0
H1980 H 0.30235 0.36578 0.62373 0.0
H1981 H 0.30388 0.35613 0.55136 0.0
H1982 H 0.28522 0.39082 0.54738 0.0
H1983 H 0.247 0.39238 0.62271 0.0
H1984 H 0.25753 0.41007 0.64773 0.0
H1985 H 0.26671 0.38239 0.64286 0.0
H1986 H 0.30826 0.40181 0.64801 0.0
H1987 H 0.29779 0.42892 0.65134 0.0
H1988 H 0.31603 0.4228 0.62965 0.0
H1989 H 0.27132 0.42897 0.55161 0.0
H1990 H 0.26184 0.46714 0.56387 0.0
H1991 H 0.2688 0.45165 0.63325 0.0
C1992 C 0.29825 0.37064 0.607 0.0
C1993 C 0.30457 0.35823 0.58786 0.0
C1994 C 0.29915 0.36532 0.56628 0.0
C1995 C 0.28851 0.38499 0.56383 0.0
C1996 C 0.28315 0.39722 0.5831 0.0
C1997 C 0.28756 0.39018 0.60425 0.0
C1998 C 0.28157 0.40719 0.62234 0.0
C1999 C 0.26206 0.39745 0.63466 0.0
C2000 C 0.30213 0.41568 0.63879 0.0
C2001 C 0.27423 0.42538 0.60814 0.0
C2002 C 0.27488 0.41917 0.58551 0.0
C2003 C 0.27024 0.43382 0.56924 0.0
C2004 C 0.26488 0.45541 0.57631 0.0
C2005 C 0.2642 0.46206 0.59941 0.0
C2006 C 0.26877 0.44678 0.61545 0.0
H2007 H 0.29918 0.68346 0.0195 0.0
H2008 H 0.30538 0.69787 0.95044 0.0
H2009 H 0.32675 0.66481 0.94459 0.0
H2010 H 0.35493 0.66172 0.02872 0.0
H2011 H 0.34457 0.64055 0.04584 0.0
H2012 H 0.33211 0.66683 0.0456 0.0
H2013 H 0.293 0.64586 0.03416 0.0
H2014 H 0.30499 0.61942 0.03449 0.0
H2015 H 0.28904 0.62612 0.00953 0.0
H2016 H 0.34307 0.62759 0.94491 0.0
H2017 H 0.35422 0.58998 0.95173 0.0
H2018 H 0.33767 0.60002 0.02067 0.0
C2019 C 0.30535 0.67992 0.00325 0.0
C2020 C 0.30056 0.69325 0.98541 0.0
C2021 C 0.30883 0.68792 0.96436 0.0
C2022 C 0.32107 0.66922 0.9609 0.0
C2023 C 0.32502 0.65612 0.97869 0.0
C2024 C 0.3176 0.66138 0.99952 0.0
C2025 C 0.32273 0.64381 0.01543 0.0
C2026 C 0.33959 0.65382 0.03507 0.0
C2027 C 0.30115 0.63318 0.02388 0.0
C2028 C 0.33319 0.62726 0.99997 0.0
C2029 C 0.33469 0.63481 0.97895 0.0
C2030 C 0.3424 0.6217 0.96143 0.0
C2031 C 0.34863 0.60027 0.96546 0.0
C2032 C 0.34709 0.59218 0.98689 0.0
C2033 C 0.33941 0.606 0.00429 0.0
H2034 H 0.74068 0.13384 0.4285 0.0
H2035 H 0.71184 0.15212 0.36453 0.0
H2036 H 0.69709 0.1126 0.35427 0.0
H2037 H 0.75935 0.08334 0.40794 0.0
H2038 H 0.75328 0.06846 0.43194 0.0
H2039 H 0.75939 0.09845 0.4352 0.0
H2040 H 0.72169 0.1028 0.4525 0.0
H2041 H 0.71546 0.07277 0.44934 0.0
H2042 H 0.69592 0.09056 0.43717 0.0
H2043 H 0.68799 0.0706 0.34991 0.0
H2044 H 0.68599 0.02939 0.35157 0.0
H2045 H 0.72099 0.03884 0.41821 0.0
C2046 C 0.73094 0.12965 0.41247 0.0
C2047 C 0.72735 0.14609 0.39733 0.0
C2048 C 0.71475 0.13982 0.37642 0.0
C2049 C 0.70625 0.11743 0.37048 0.0
C2050 C 0.71043 0.10159 0.38568 0.0
C2051 C 0.72242 0.10745 0.40628 0.0
C2052 C 0.72584 0.08708 0.41901 0.0
C2053 C 0.75095 0.08417 0.42379 0.0
C2054 C 0.71402 0.08839 0.44079 0.0
C2055 C 0.71442 0.06874 0.40212 0.0
C2056 C 0.70539 0.07745 0.3831 0.0
C2057 C 0.69484 0.06362 0.36479 0.0
C2058 C 0.69381 0.0403 0.36584 0.0
C2059 C 0.7035 0.03114 0.38495 0.0
C2060 C 0.71348 0.04555 0.40345 0.0
H2061 H 0.65729 0.79921 0.04365 0.0
H2062 H 0.63306 0.81495 0.97707 0.0
H2063 H 0.6411 0.8554 0.98902 0.0
H2064 H 0.6345 0.84437 0.07407 0.0
H2065 H 0.658 0.84932 0.09511 0.0
H2066 H 0.65086 0.82166 0.08107 0.0
H2067 H 0.69121 0.82109 0.06889 0.0
H2068 H 0.69846 0.84879 0.08282 0.0
H2069 H 0.70241 0.84335 0.05348 0.0
H2070 H 0.65172 0.89425 0.00838 0.0
H2071 H 0.66257 0.92849 0.03429 0.0
H2072 H 0.67947 0.88718 0.08804 0.0
C2073 C 0.6537 0.81112 0.03153 0.0
C2074 C 0.64457 0.80388 0.00939 0.0
C2075 C 0.64005 0.82008 0.99412 0.0
C2076 C 0.64461 0.84309 0.00073 0.0
C2077 C 0.65367 0.84964 0.02266 0.0
C2078 C 0.65809 0.83412 0.03785 0.0
C2079 C 0.66737 0.84551 0.06056 0.0
C2080 C 0.65174 0.83988 0.07877 0.0
C2081 C 0.69128 0.83931 0.06679 0.0
C2082 C 0.66736 0.86988 0.05585 0.0
C2083 C 0.65952 0.87193 0.03385 0.0
C2084 C 0.65782 0.89284 0.02564 0.0
C2085 C 0.66399 0.91214 0.04041 0.0
C2086 C 0.67152 0.91033 0.0631 0.0
C2087 C 0.67357 0.88895 0.07077 0.0
H2088 H 0.57963 0.36554 0.39472 0.0
H2089 H 0.61659 0.31017 0.37193 0.0
H2090 H 0.6137 0.29439 0.40843 0.0
H2091 H 0.60455 0.3755 0.44891 0.0
H2092 H 0.57914 0.38202 0.46065 0.0
H2093 H 0.58237 0.38592 0.43169 0.0
H2094 H 0.54472 0.35992 0.42224 0.0
H2095 H 0.54356 0.35525 0.45145 0.0
H2096 H 0.54318 0.33174 0.43067 0.0
H2097 H 0.61373 0.28919 0.4495 0.0
H2098 H 0.61462 0.29383 0.49097 0.0
H2099 H 0.57689 0.35197 0.48664 0.0
C2100 C 0.58673 0.34984 0.39721 0.0
C2101 C 0.59831 0.33906 0.38047 0.0
C2102 C 0.60753 0.31866 0.38447 0.0
C2103 C 0.60583 0.3095 0.4051 0.0
C2104 C 0.59497 0.32099 0.42156 0.0
C2105 C 0.58533 0.34061 0.41773 0.0
C2106 C 0.5761 0.35067 0.43865 0.0
C2107 C 0.58614 0.37497 0.4453 0.0
C2108 C 0.55036 0.3493 0.43556 0.0
C2109 C 0.58403 0.33491 0.4554 0.0
C2110 C 0.59432 0.31752 0.44515 0.0
C2111 C 0.60509 0.30229 0.45761 0.0
C2112 C 0.6056 0.30508 0.48111 0.0
C2113 C 0.59534 0.3229 0.49185 0.0
C2114 C 0.58426 0.3378 0.47877 0.0
H2115 H 0.02149 0.28787 0.66325 0.0
H2116 H 0.95709 0.30951 0.67939 0.0
H2117 H 0.95128 0.32283 0.64161 0.0
H2118 H 0.03659 0.33422 0.62959 0.0
H2119 H 0.04956 0.31676 0.60946 0.0
H2120 H 0.04991 0.31006 0.63816 0.0
H2121 H 0.03112 0.27029 0.62595 0.0
H2122 H 0.03124 0.27618 0.59705 0.0
H2123 H 0.00531 0.26686 0.60792 0.0
H2124 H 0.95047 0.329 0.60036 0.0
H2125 H 0.9564 0.33124 0.56025 0.0
H2126 H 0.02187 0.30686 0.57187 0.0
C2127 C 0.00631 0.29573 0.65903 0.0
C2128 C 0.98973 0.29761 0.6743 0.0
C2129 C 0.97006 0.30793 0.66801 0.0
C2130 C 0.9666 0.31552 0.64657 0.0
C2131 C 0.98309 0.31293 0.63175 0.0
C2132 C 0.00269 0.30355 0.63783 0.0
C2133 C 0.01744 0.30192 0.6186 0.0
C2134 C 0.03968 0.31663 0.62431 0.0
C2135 C 0.0215 0.27736 0.61199 0.0
C2136 C 0.00282 0.31127 0.60053 0.0
C2137 C 0.9831 0.31759 0.60842 0.0
C2138 C 0.96621 0.32496 0.59423 0.0
C2139 C 0.96969 0.32611 0.57147 0.0
C2140 C 0.98996 0.32003 0.56318 0.0
C2141 C 0.0066 0.31242 0.57796 0.0
H2142 H 0.40003 0.70704 0.09792 0.0
H2143 H 0.33026 0.72076 0.09844 0.0
H2144 H 0.32693 0.71911 0.05699 0.0
H2145 H 0.41307 0.74111 0.05634 0.0
H2146 H 0.43172 0.72303 0.04332 0.0
H2147 H 0.42784 0.72213 0.07265 0.0
H2148 H 0.41626 0.67951 0.0661 0.0
H2149 H 0.42005 0.68014 0.03665 0.0
H2150 H 0.39364 0.66911 0.04532 0.0
H2151 H 0.33306 0.72228 0.0165 0.0
H2152 H 0.34668 0.72505 0.97891 0.0
H2153 H 0.41223 0.7088 0.00485 0.0
C2154 C 0.38388 0.70915 0.08934 0.0
C2155 C 0.36541 0.71404 0.10145 0.0
C2156 C 0.34463 0.71693 0.08954 0.0
C2157 C 0.34259 0.71607 0.066 0.0
C2158 C 0.3614 0.71207 0.05464 0.0
C2159 C 0.38154 0.70828 0.06589 0.0
C2160 C 0.39962 0.70583 0.04992 0.0
C2161 C 0.41921 0.72412 0.05592 0.0
C2162 C 0.40786 0.68225 0.04946 0.0
C2163 C 0.38663 0.70932 0.02797 0.0
C2164 C 0.36461 0.71289 0.03105 0.0
C2165 C 0.34996 0.71859 0.01364 0.0
C2166 C 0.35786 0.72026 0.99243 0.0
C2167 C 0.3803 0.71652 0.98892 0.0
C2168 C 0.39481 0.71101 0.00696 0.0
H2169 H 0.98256 0.65925 0.7962 0.0
H2170 H 0.91181 0.66947 0.79481 0.0
H2171 H 0.91738 0.68472 0.83461 0.0
H2172 H 0.98748 0.63956 0.84876 0.0
H2173 H 0.01527 0.65284 0.85704 0.0
H2174 H 0.00637 0.6457 0.82778 0.0
H2175 H 0.01571 0.68701 0.81967 0.0
H2176 H 0.02475 0.69428 0.84896 0.0
H2177 H 0.00343 0.70912 0.83524 0.0
H2178 H 0.92995 0.69506 0.87565 0.0
H2179 H 0.94859 0.69944 0.91443 0.0
H2180 H 0.01085 0.68234 0.88869 0.0
C2181 C 0.9683 0.66514 0.80408 0.0
C2182 C 0.94674 0.66322 0.79233 0.0
C2183 C 0.92849 0.67084 0.80342 0.0
C2184 C 0.93151 0.67958 0.82602 0.0
C2185 C 0.95289 0.68072 0.83725 0.0
C2186 C 0.971 0.67383 0.82658 0.0
C2187 C 0.99188 0.67516 0.84276 0.0
C2188 C 0.00075 0.65194 0.84416 0.0
C2189 C 0.01001 0.69243 0.83626 0.0
C2190 C 0.98255 0.68317 0.86437 0.0
C2191 C 0.9601 0.68658 0.86083 0.0
C2192 C 0.94759 0.69275 0.87856 0.0
C2193 C 0.95824 0.69519 0.90047 0.0
C2194 C 0.98107 0.69129 0.90441 0.0
C2195 C 0.99341 0.68561 0.88607 0.0
H2196 H 0.59978 0.38812 0.66426 0.0
H2197 H 0.59008 0.38546 0.59154 0.0
H2198 H 0.54912 0.38427 0.59351 0.0
H2199 H 0.55357 0.35013 0.67161 0.0
H2200 H 0.54622 0.36503 0.69689 0.0
H2201 H 0.57483 0.36719 0.68995 0.0
H2202 H 0.57522 0.41049 0.69208 0.0
H2203 H 0.5466 0.40848 0.69917 0.0
H2204 H 0.55413 0.42307 0.67541 0.0
H2205 H 0.50938 0.38197 0.60333 0.0
H2206 H 0.4732 0.37773 0.62029 0.0
H2207 H 0.50892 0.3817 0.68648 0.0
C2208 C 0.58904 0.38757 0.64877 0.0
C2209 C 0.59805 0.387 0.62775 0.0
C2210 C 0.58351 0.38616 0.60783 0.0
C2211 C 0.56024 0.38542 0.60878 0.0
C2212 C 0.55188 0.38576 0.62977 0.0
C2213 C 0.56582 0.3869 0.64942 0.0
C2214 C 0.55253 0.38637 0.66976 0.0
C2215 C 0.55707 0.36596 0.6828 0.0
C2216 C 0.55741 0.40842 0.685 0.0
C2217 C 0.52892 0.38419 0.65845 0.0
C2218 C 0.52892 0.38411 0.6354 0.0
C2219 C 0.50911 0.38198 0.62133 0.0
C2220 C 0.48873 0.37963 0.63106 0.0
C2221 C 0.48838 0.37959 0.65461 0.0
C2222 C 0.50875 0.3819 0.66843 0.0
H2223 H 0.89211 0.61533 0.26361 0.0
H2224 H 0.9093 0.68506 0.2528 0.0
H2225 H 0.94952 0.67936 0.25876 0.0
H2226 H 0.93437 0.61197 0.3075 0.0
H2227 H 0.93983 0.58365 0.29875 0.0
H2228 H 0.91247 0.59289 0.29236 0.0
H2229 H 0.91477 0.58142 0.25006 0.0
H2230 H 0.94213 0.57207 0.25633 0.0
H2231 H 0.93829 0.59254 0.23632 0.0
H2232 H 0.98788 0.6664 0.2675 0.0
H2233 H 0.02144 0.64697 0.27838 0.0
H2234 H 0.979 0.58593 0.28328 0.0
C2235 C 0.9043 0.62938 0.26228 0.0
C2236 C 0.89754 0.65065 0.25771 0.0
C2237 C 0.91407 0.6686 0.25624 0.0
C2238 C 0.93696 0.66552 0.25958 0.0
C2239 C 0.94302 0.64439 0.26428 0.0
C2240 C 0.92717 0.62661 0.26555 0.0
C2241 C 0.93805 0.60576 0.27149 0.0
C2242 C 0.93074 0.59813 0.29386 0.0
C2243 C 0.93301 0.58683 0.25241 0.0
C2244 C 0.9625 0.61467 0.27369 0.0
C2245 C 0.96505 0.63696 0.26936 0.0
C2246 C 0.98609 0.64893 0.27085 0.0
C2247 C 0.00499 0.63784 0.27705 0.0
C2248 C 0.00265 0.61514 0.28184 0.0
C2249 C 0.98117 0.60336 0.27983 0.0
H2250 H 0.20397 0.04503 0.32836 0.0
H2251 H 0.23527 0.99519 0.3657 0.0
H2252 H 0.2012 0.96905 0.35663 0.0
H2253 H 0.14708 0.03192 0.34394 0.0
H2254 H 0.1343 0.03652 0.31665 0.0
H2255 H 0.16062 0.05179 0.3273 0.0
H2256 H 0.17854 0.03733 0.29164 0.0
H2257 H 0.15233 0.02197 0.28092 0.0
H2258 H 0.1774 0.00755 0.28401 0.0
H2259 H 0.16464 0.94746 0.34147 0.0
H2260 H 0.12787 0.93243 0.32186 0.0
H2261 H 0.12051 0.99646 0.29487 0.0
C2262 C 0.2036 0.02873 0.33487 0.0
C2263 C 0.22231 0.02218 0.34776 0.0
C2264 C 0.22115 0.00061 0.35582 0.0
C2265 C 0.20186 0.98564 0.35077 0.0
C2266 C 0.18384 0.99252 0.33775 0.0
C2267 C 0.18449 0.0136 0.33001 0.0
C2268 C 0.16318 0.0166 0.3157 0.0
C2269 C 0.15055 0.03532 0.32655 0.0
C2270 C 0.16817 0.02112 0.29165 0.0
C2271 C 0.1506 0.99379 0.31627 0.0
C2272 C 0.16274 0.98016 0.32916 0.0
C2273 C 0.15488 0.95806 0.33153 0.0
C2274 C 0.13405 0.94967 0.32038 0.0
C2275 C 0.12139 0.96337 0.30712 0.0
C2276 C 0.12978 0.98571 0.30512 0.0
H2277 H 0.35695 0.01191 0.71602 0.0
H2278 H 0.31886 0.06523 0.74181 0.0
H2279 H 0.35285 0.09173 0.74486 0.0
H2280 H 0.40791 0.02868 0.75115 0.0
H2281 H 0.4259 0.02138 0.7296 0.0
H2282 H 0.39856 0.00658 0.72939 0.0
H2283 H 0.38853 0.01667 0.68881 0.0
H2284 H 0.41585 0.0315 0.68889 0.0
H2285 H 0.39105 0.04567 0.68283 0.0
H2286 H 0.39107 0.11238 0.74551 0.0
H2287 H 0.43083 0.12575 0.74304 0.0
H2288 H 0.4438 0.05918 0.71654 0.0
C2289 C 0.35572 0.02915 0.7223 0.0
C2290 C 0.33522 0.03647 0.72868 0.0
C2291 C 0.33436 0.05921 0.7368 0.0
C2292 C 0.35358 0.0744 0.73862 0.0
C2293 C 0.37351 0.06662 0.73221 0.0
C2294 C 0.37472 0.04454 0.72419 0.0
C2295 C 0.39819 0.04048 0.71839 0.0
C2296 C 0.40823 0.02326 0.73301 0.0
C2297 C 0.39841 0.03315 0.69324 0.0
C2298 C 0.40999 0.06372 0.7244 0.0
C2299 C 0.39547 0.07855 0.73238 0.0
C2300 C 0.40258 0.10096 0.73919 0.0
C2301 C 0.42511 0.1084 0.73772 0.0
C2302 C 0.44015 0.0935 0.72938 0.0
C2303 C 0.43249 0.07089 0.72277 0.0
H2304 H 0.63169 0.58459 0.394 0.0
H2305 H 0.55982 0.57675 0.39846 0.0
H2306 H 0.56185 0.53638 0.40293 0.0
H2307 H 0.6354 0.53118 0.36283 0.0
H2308 H 0.66193 0.52654 0.37721 0.0
H2309 H 0.65489 0.55471 0.37369 0.0
H2310 H 0.66136 0.56518 0.41646 0.0
H2311 H 0.6688 0.53727 0.42051 0.0
H2312 H 0.64666 0.54852 0.43523 0.0
H2313 H 0.57221 0.49683 0.40781 0.0
H2314 H 0.58989 0.46155 0.41254 0.0
H2315 H 0.655 0.49593 0.4057 0.0
C2316 C 0.61633 0.57441 0.3958 0.0
C2317 C 0.5956 0.58386 0.39597 0.0
C2318 C 0.57591 0.56991 0.3984 0.0
C2319 C 0.5769 0.54695 0.40091 0.0
C2320 C 0.59772 0.53827 0.40102 0.0
C2321 C 0.61705 0.55158 0.39843 0.0
C2322 C 0.6374 0.53837 0.39947 0.0
C2323 C 0.64803 0.53764 0.37697 0.0
C2324 C 0.65456 0.54791 0.41909 0.0
C2325 C 0.62663 0.51559 0.4036 0.0
C2326 C 0.6037 0.51579 0.40428 0.0
C2327 C 0.59017 0.49655 0.40757 0.0
C2328 C 0.60038 0.47662 0.41035 0.0
C2329 C 0.62393 0.47622 0.41022 0.0
C2330 C 0.63705 0.49592 0.40645 0.0
H2331 H 0.72202 0.33876 0.02564 0.0
H2332 H 0.75398 0.30855 0.08182 0.0
H2333 H 0.75557 0.34466 0.10507 0.0
H2334 H 0.75326 0.39327 0.03621 0.0
H2335 H 0.72955 0.40826 0.02806 0.0
H2336 H 0.73147 0.38019 0.01569 0.0
H2337 H 0.69251 0.36779 0.02839 0.0
H2338 H 0.69046 0.3958 0.04081 0.0
H2339 H 0.68767 0.37236 0.05761 0.0
H2340 H 0.75329 0.38404 0.12234 0.0
H2341 H 0.74648 0.4236 0.13248 0.0
H2342 H 0.71586 0.42784 0.06517 0.0
C2343 C 0.72945 0.33973 0.0428 0.0
C2344 C 0.7379 0.32081 0.05189 0.0
C2345 C 0.7474 0.3228 0.07447 0.0
C2346 C 0.74841 0.34325 0.08781 0.0
C2347 C 0.73986 0.36154 0.07832 0.0
C2348 C 0.73055 0.35997 0.05634 0.0
C2349 C 0.72215 0.38199 0.05031 0.0
C2350 C 0.73487 0.39148 0.03145 0.0
C2351 C 0.69669 0.37931 0.04391 0.0
C2352 C 0.72803 0.39616 0.07238 0.0
C2353 C 0.73832 0.3841 0.08831 0.0
C2354 C 0.74519 0.39362 0.11003 0.0
C2355 C 0.74124 0.41602 0.11565 0.0
C2356 C 0.73035 0.42847 0.09969 0.0
C2357 C 0.72398 0.4185 0.07772 0.0
H2358 H 0.24102 0.89403 0.63235 0.0
H2359 H 0.26779 0.86168 0.5742 0.0
H2360 H 0.27952 0.89888 0.56207 0.0
H2361 H 0.21986 0.94031 0.60485 0.0
H2362 H 0.22729 0.96021 0.62903 0.0
H2363 H 0.22053 0.93103 0.63271 0.0
H2364 H 0.25878 0.93014 0.65585 0.0
H2365 H 0.2657 0.95929 0.65219 0.0
H2366 H 0.28427 0.9387 0.64376 0.0
H2367 H 0.28895 0.93973 0.55674 0.0
H2368 H 0.2953 0.98122 0.55873 0.0
H2369 H 0.26236 0.98644 0.6203 0.0
C2370 C 0.24924 0.89472 0.61699 0.0
C2371 C 0.25347 0.87494 0.60421 0.0
C2372 C 0.26435 0.87661 0.58426 0.0
C2373 C 0.27107 0.89766 0.57723 0.0
C2374 C 0.26677 0.91682 0.59034 0.0
C2375 C 0.25606 0.91553 0.60977 0.0
C2376 C 0.2537 0.9386 0.62104 0.0
C2377 C 0.22887 0.94277 0.62195 0.0
C2378 C 0.26638 0.94186 0.6446 0.0
C2379 C 0.26488 0.9531 0.60499 0.0
C2380 C 0.27228 0.94025 0.58735 0.0
C2381 C 0.28326 0.94995 0.57048 0.0
C2382 C 0.28683 0.97343 0.57174 0.0
C2383 C 0.27957 0.9868 0.5898 0.0
C2384 C 0.26827 0.9765 0.60646 0.0
H2385 H 0.34987 0.15526 0.02616 0.0
H2386 H 0.33903 0.18246 0.96169 0.0
H2387 H 0.33768 0.14427 0.94253 0.0
H2388 H 0.38564 0.11364 0.00844 0.0
H2389 H 0.37439 0.093 0.02568 0.0
H2390 H 0.37421 0.12244 0.03426 0.0
H2391 H 0.33126 0.11704 0.03669 0.0
H2392 H 0.3313 0.08759 0.02811 0.0
H2393 H 0.31334 0.10456 0.01254 0.0
H2394 H 0.33748 0.10295 0.93042 0.0
H2395 H 0.33922 0.0617 0.92641 0.0
H2396 H 0.35025 0.06182 0.99871 0.0
C2397 C 0.34719 0.15324 0.00801 0.0
C2398 C 0.34454 0.17188 0.99543 0.0
C2399 C 0.3411 0.16845 0.97169 0.0
C2400 C 0.34029 0.14681 0.96066 0.0
C2401 C 0.34295 0.12881 0.97359 0.0
C2402 C 0.34635 0.1318 0.99674 0.0
C2403 C 0.3489 0.10972 0.00675 0.0
C2404 C 0.37217 0.10971 0.01953 0.0
C2405 C 0.33008 0.10442 0.02192 0.0
C2406 C 0.34648 0.09381 0.98561 0.0
C2407 C 0.343 0.10512 0.96664 0.0
C2408 C 0.34028 0.09394 0.94515 0.0
C2409 C 0.34131 0.0706 0.94301 0.0
C2410 C 0.3452 0.05881 0.96222 0.0
C2411 C 0.34753 0.07055 0.98377 0.0
H2412 H 0.4541 0.6645 0.58569 0.0
H2413 H 0.39179 0.68116 0.61199 0.0
H2414 H 0.38155 0.69918 0.57745 0.0
H2415 H 0.46441 0.71558 0.55757 0.0
H2416 H 0.47562 0.70096 0.53414 0.0
H2417 H 0.47855 0.69067 0.56151 0.0
H2418 H 0.45939 0.65193 0.54481 0.0
H2419 H 0.4563 0.66213 0.51745 0.0
H2420 H 0.43205 0.65036 0.52964 0.0
H2421 H 0.37709 0.7132 0.53884 0.0
H2422 H 0.37932 0.72292 0.49968 0.0
H2423 H 0.44473 0.69753 0.49919 0.0
C2424 C 0.43841 0.67216 0.58436 0.0
C2425 C 0.42375 0.67143 0.60158 0.0
C2426 C 0.40333 0.68157 0.59906 0.0
C2427 C 0.39736 0.69184 0.5795 0.0
C2428 C 0.41207 0.69194 0.5627 0.0
C2429 C 0.43225 0.6825 0.56502 0.0
C2430 C 0.44477 0.68418 0.54425 0.0
C2431 C 0.46716 0.69872 0.5497 0.0
C2432 C 0.44833 0.66076 0.5334 0.0
C2433 C 0.42835 0.69574 0.52972 0.0
C2434 C 0.4096 0.70014 0.54064 0.0
C2435 C 0.39178 0.71001 0.53021 0.0
C2436 C 0.39316 0.71544 0.508 0.0
C2437 C 0.4122 0.71096 0.49656 0.0
C2438 C 0.43005 0.70118 0.50767 0.0
H2439 H 0.97073 0.71477 0.35637 0.0
H2440 H 0.99818 0.7821 0.34659 0.0
H2441 H 0.01473 0.7868 0.38597 0.0
H2442 H 0.95714 0.72692 0.41374 0.0
H2443 H 0.96483 0.7003 0.42228 0.0
H2444 H 0.95444 0.70263 0.39361 0.0
H2445 H 0.99021 0.68673 0.37982 0.0
H2446 H 0.00069 0.68434 0.40842 0.0
H2447 H 0.01736 0.70018 0.39053 0.0
H2448 H 0.03002 0.78331 0.42597 0.0
H2449 H 0.04213 0.77205 0.46358 0.0
H2450 H 0.0041 0.70741 0.44713 0.0
C2451 C 0.98007 0.73059 0.36251 0.0
C2452 C 0.98313 0.74807 0.34837 0.0
C2453 C 0.99557 0.76846 0.3571 0.0
C2454 C 0.00503 0.7713 0.37946 0.0
C2455 C 0.00182 0.75365 0.39289 0.0
C2456 C 0.98957 0.73372 0.38476 0.0
C2457 C 0.98903 0.71714 0.40244 0.0
C2458 C 0.96492 0.71142 0.40837 0.0
C2459 C -2e-05 0.69584 0.39484 0.0
C2460 C 0.00307 0.73075 0.42175 0.0
C2461 C 0.01027 0.75179 0.41595 0.0
C2462 C 0.02419 0.76701 0.4308 0.0
C2463 C 0.03092 0.76054 0.45211 0.0
C2464 C 0.0235 0.73914 0.45843 0.0
C2465 C 0.00952 0.72409 0.44294 0.0
H2466 H 0.59929 0.26887 0.89243 0.0
H2467 H 0.66796 0.25995 0.91615 0.0
H2468 H 0.6584 0.26546 0.95532 0.0
H2469 H 0.59064 0.31204 0.93463 0.0
H2470 H 0.56192 0.302 0.93714 0.0
H2471 H 0.57402 0.29685 0.91093 0.0
H2472 H 0.56356 0.25415 0.91142 0.0
H2473 H 0.5514 0.25917 0.93763 0.0
H2474 H 0.57297 0.24016 0.93547 0.0
H2475 H 0.6416 0.27267 0.99196 0.0
H2476 H 0.61846 0.28104 0.02345 0.0
H2477 H 0.56088 0.2849 0.97587 0.0
C2478 C 0.61232 0.26801 0.90585 0.0
C2479 C 0.63439 0.26398 0.9012 0.0
C2480 C 0.65093 0.263 0.91927 0.0
C2481 C 0.64567 0.2661 0.94159 0.0
C2482 C 0.62379 0.2701 0.94558 0.0
C2483 C 0.60736 0.27102 0.92822 0.0
C2484 C 0.58518 0.27577 0.93707 0.0
C2485 C 0.5775 0.29799 0.9295 0.0
C2486 C 0.56722 0.25614 0.92998 0.0
C2487 C 0.59176 0.27757 0.96211 0.0
C2488 C 0.6141 0.27421 0.96667 0.0
C2489 C 0.62409 0.27531 0.9886 0.0
C2490 C 0.6109 0.28007 0.00633 0.0
C2491 C 0.58806 0.28374 0.00198 0.0
C2492 C 0.57836 0.28226 0.9796 0.0
H2493 H 0.01852 0.32296 0.17812 0.0
H2494 H 0.96027 0.29294 0.20651 0.0
H2495 H 0.94722 0.27293 0.16945 0.0
H2496 H 0.99087 0.33253 0.12613 0.0
H2497 H 0.01384 0.32607 0.10992 0.0
H2498 H 0.01929 0.33683 0.13893 0.0
H2499 H 0.0408 0.30236 0.14736 0.0
H2500 H 0.03553 0.29154 0.11832 0.0
H2501 H 0.02719 0.27451 0.1401 0.0
H2502 H 0.93937 0.25816 0.12857 0.0
H2503 H 0.93827 0.24855 0.08748 0.0
H2504 H 0.00175 0.28809 0.08626 0.0
C2505 C 0.00314 0.31198 0.17667 0.0
C2506 C 0.99042 0.30951 0.19525 0.0
C2507 C 0.97033 0.29505 0.19254 0.0
C2508 C 0.96277 0.28364 0.17156 0.0
C2509 C 0.97555 0.28678 0.15351 0.0
C2510 C 0.99539 0.30049 0.15592 0.0
C2511 C 0.00572 0.30156 0.13381 0.0
C2512 C 0.00752 0.32568 0.12679 0.0
C2513 C 0.02867 0.29191 0.13497 0.0
C2514 C 0.98846 0.28653 0.11847 0.0
C2515 C 0.97119 0.27812 0.13013 0.0
C2516 C 0.95295 0.2644 0.11935 0.0
C2517 C 0.95245 0.25903 0.09608 0.0
C2518 C 0.97016 0.26722 0.08396 0.0
C2519 C 0.98825 0.28129 0.0953 0.0
loop_
_geom_bond_atom_site_label_1
_geom_bond_atom_site_label_2
_geom_bond_distance
_geom_bond_site_symmetry_2
_ccdc_geom_bond_type
O0 Cd1 2.300 . S
O0 C7 1.275 . S
Cd1 O0 2.300 . S
Cd1 O9 2.381 . S
Cd1 O10 2.378 . S
O2 Cd3 2.385 . S
O2 C7 1.255 . S
Cd3 O2 2.385 . S
Cd3 O4 2.317 . S
O4 Cd3 2.317 . S
O4 C5 1.232 . S
C5 O4 1.232 . S
C5 O6 1.218 . S
O6 C5 1.218 . S
C7 O0 1.275 . S
C7 O2 1.255 . S
C8 O9 1.258 . S
C8 O10 1.256 . S
O9 Cd1 2.381 . S
O9 C8 1.258 . S
O10 Cd1 2.378 . S
O10 C8 1.256 . S
O11 Cd12 2.300 . S
O11 C18 1.275 . S
Cd12 O11 2.300 . S
Cd12 O20 2.381 . S
Cd12 O21 2.378 . S
O13 Cd14 2.385 . S
O13 C18 1.255 . S
Cd14 O13 2.385 . S
Cd14 O15 2.317 . S
O15 Cd14 2.317 . S
O15 C16 1.232 . S
C16 O15 1.232 . S
C16 O17 1.218 . S
O17 C16 1.218 . S
C18 O11 1.275 . S
C18 O13 1.255 . S
C19 O20 1.258 . S
C19 O21 1.256 . S
O20 Cd12 2.381 . S
O20 C19 1.258 . S
O21 Cd12 2.378 . S
O21 C19 1.256 . S
O22 Cd23 2.299 1_545 S
O22 C29 1.274 1_545 S
Cd23 O22 2.299 1_565 S
Cd23 O31 2.381 1_565 S
Cd23 O32 2.378 . S
O24 Cd25 2.385 . S
O24 C29 1.255 . S
Cd25 O24 2.385 . S
Cd25 O26 2.317 . S
O26 Cd25 2.317 . S
O26 C27 1.232 . S
C27 O26 1.232 . S
C27 O28 1.218 . S
O28 C27 1.218 . S
C29 O22 1.274 1_565 S
C29 O24 1.255 . S
C30 O31 1.258 . S
C30 O32 1.256 1_545 S
O31 Cd23 2.381 1_545 S
O31 C30 1.258 . S
O32 Cd23 2.378 . S
O32 C30 1.256 1_565 S
O33 Cd34 2.300 1_565 S
O33 C40 1.275 1_565 S
Cd34 O33 2.300 1_545 S
Cd34 O42 2.381 1_545 S
Cd34 O43 2.378 . S
O35 Cd36 2.385 . S
O35 C40 1.255 . S
Cd36 O35 2.385 . S
Cd36 O37 2.317 . S
O37 Cd36 2.317 . S
O37 C38 1.232 . S
C38 O37 1.232 . S
C38 O39 1.218 . S
O39 C38 1.218 . S
C40 O33 1.275 1_545 S
C40 O35 1.255 . S
C41 O42 1.258 1_545 S
C41 O43 1.256 . S
O42 Cd34 2.381 1_565 S
O42 C41 1.258 1_565 S
O43 Cd34 2.378 . S
O43 C41 1.256 . S
O44 Cd45 2.300 . S
O44 C51 1.275 . S
Cd45 O44 2.300 . S
Cd45 O53 2.381 . S
Cd45 O54 2.378 . S
O46 Cd47 2.385 . S
O46 C51 1.255 . S
Cd47 O46 2.385 . S
Cd47 O48 2.317 . S
O48 Cd47 2.317 . S
O48 C49 1.232 . S
C49 O48 1.232 . S
C49 O50 1.218 . S
O50 C49 1.218 . S
C51 O44 1.275 . S
C51 O46 1.255 . S
C52 O53 1.258 . S
C52 O54 1.256 . S
O53 Cd45 2.381 . S
O53 C52 1.258 . S
O54 Cd45 2.378 . S
O54 C52 1.256 . S
O55 Cd56 2.300 1_556 S
O55 C62 1.275 1_556 S
Cd56 O55 2.300 1_554 S
Cd56 O64 2.381 1_554 S
Cd56 O65 2.378 . S
O57 Cd58 2.385 . S
O57 C62 1.255 . S
Cd58 O57 2.385 . S
Cd58 O59 2.317 . S
O59 Cd58 2.317 . S
O59 C60 1.232 . S
C60 O59 1.232 . S
C60 O61 1.218 . S
O61 C60 1.218 . S
C62 O55 1.275 1_554 S
C62 O57 1.255 . S
C63 O64 1.258 1_554 S
C63 O65 1.256 . S
O64 Cd56 2.381 1_556 S
O64 C63 1.258 1_556 S
O65 Cd56 2.378 . S
O65 C63 1.256 . S
O66 Cd67 2.300 . S
O66 C73 1.275 . S
Cd67 O66 2.300 . S
Cd67 O75 2.381 . S
Cd67 O76 2.378 . S
O68 Cd69 2.385 . S
O68 C73 1.255 . S
Cd69 O68 2.385 . S
Cd69 O70 2.317 . S
O70 Cd69 2.317 . S
O70 C71 1.232 . S
C71 O70 1.232 . S
C71 O72 1.218 . S
O72 C71 1.218 . S
C73 O66 1.275 . S
C73 O68 1.255 . S
C74 O75 1.258 . S
C74 O76 1.256 . S
O75 Cd67 2.381 . S
O75 C74 1.258 . S
O76 Cd67 2.378 . S
O76 C74 1.256 . S
O77 Cd78 2.299 1_554 S
O77 C84 1.274 1_554 S
Cd78 O77 2.299 1_556 S
Cd78 O86 2.381 1_556 S
Cd78 O87 2.378 . S
O79 Cd80 2.385 . S
O79 C84 1.255 . S
Cd80 O79 2.385 . S
Cd80 O81 2.317 . S
O81 Cd80 2.317 . S
O81 C82 1.232 . S
C82 O81 1.232 . S
C82 O83 1.218 . S
O83 C82 1.218 . S
C84 O77 1.274 1_556 S
C84 O79 1.255 . S
C85 O86 1.258 . S
C85 O87 1.256 1_554 S
O86 Cd78 2.381 1_554 S
O86 C85 1.258 . S
O87 Cd78 2.378 . S
O87 C85 1.256 1_556 S
O88 Cd89 2.300 . S
O88 C95 1.275 . S
Cd89 O88 2.300 . S
Cd89 O97 2.381 . S
Cd89 O98 2.378 . S
O90 Cd91 2.385 . S
O90 C95 1.255 . S
Cd91 O90 2.385 . S
Cd91 O92 2.317 . S
O92 Cd91 2.317 . S
O92 C93 1.232 . S
C93 O92 1.232 . S
C93 O94 1.218 . S
O94 C93 1.218 . S
C95 O88 1.275 . S
C95 O90 1.255 . S
C96 O97 1.258 . S
C96 O98 1.256 . S
O97 Cd89 2.381 . S
O97 C96 1.258 . S
O98 Cd89 2.378 . S
O98 C96 1.256 . S
O99 Cd100 2.300 1_655 S
O99 C106 1.275 1_655 S
Cd100 O99 2.300 1_455 S
Cd100 O108 2.381 1_455 S
Cd100 O109 2.378 . S
O101 Cd102 2.385 . S
O101 C106 1.255 . S
Cd102 O101 2.385 . S
Cd102 O103 2.317 . S
O103 Cd102 2.317 . S
O103 C104 1.232 . S
C104 O103 1.232 . S
C104 O105 1.218 . S
O105 C104 1.218 . S
C106 O99 1.275 1_455 S
C106 O101 1.255 . S
C107 O108 1.258 1_455 S
C107 O109 1.256 . S
O108 Cd100 2.381 1_655 S
O108 C107 1.258 1_655 S
O109 Cd100 2.378 . S
O109 C107 1.256 . S
O110 Cd111 2.300 . S
O110 C117 1.275 . S
Cd111 O110 2.300 . S
Cd111 O119 2.381 . S
Cd111 O120 2.378 . S
O112 Cd113 2.385 . S
O112 C117 1.255 . S
Cd113 O112 2.385 . S
Cd113 O114 2.317 . S
O114 Cd113 2.317 . S
O114 C115 1.232 . S
C115 O114 1.232 . S
C115 O116 1.218 . S
O116 C115 1.218 . S
C117 O110 1.275 . S
C117 O112 1.255 . S
C118 O119 1.258 . S
C118 O120 1.256 . S
O119 Cd111 2.381 . S
O119 C118 1.258 . S
O120 Cd111 2.378 . S
O120 C118 1.256 . S
O121 Cd122 2.299 1_455 S
O121 C128 1.274 1_455 S
Cd122 O121 2.299 1_655 S
Cd122 O130 2.381 1_655 S
Cd122 O131 2.378 . S
O123 Cd124 2.385 . S
O123 C128 1.255 . S
Cd124 O123 2.385 . S
Cd124 O125 2.317 . S
O125 Cd124 2.317 . S
O125 C126 1.232 . S
C126 O125 1.232 . S
C126 O127 1.218 . S
O127 C126 1.218 . S
C128 O121 1.274 1_655 S
C128 O123 1.255 . S
C129 O130 1.258 . S
C129 O131 1.256 1_455 S
O130 Cd122 2.381 1_455 S
O130 C129 1.258 . S
O131 Cd122 2.378 . S
O131 C129 1.256 1_655 S
O132 Cd133 2.300 . S
O132 C139 1.275 . S
Cd133 O132 2.300 . S
Cd133 O141 2.381 . S
Cd133 O142 2.378 . S
O134 Cd135 2.385 . S
O134 C139 1.255 . S
Cd135 O134 2.385 . S
Cd135 O136 2.317 . S
O136 Cd135 2.317 . S
O136 C137 1.232 . S
C137 O136 1.232 . S
C137 O138 1.218 . S
O138 C137 1.218 . S
C139 O132 1.275 . S
C139 O134 1.255 . S
C140 O141 1.258 . S
C140 O142 1.256 . S
O141 Cd133 2.381 . S
O141 C140 1.258 . S
O142 Cd133 2.378 . S
O142 C140 1.256 . S
O143 Cd144 2.300 . S
O143 C150 1.275 . S
Cd144 O143 2.300 . S
Cd144 O152 2.381 . S
Cd144 O153 2.378 . S
O145 Cd146 2.385 . S
O145 C150 1.255 . S
Cd146 O145 2.385 . S
Cd146 O147 2.317 . S
O147 Cd146 2.317 . S
O147 C148 1.232 . S
C148 O147 1.232 . S
C148 O149 1.218 . S
O149 C148 1.218 . S
C150 O143 1.275 . S
C150 O145 1.255 . S
C151 O152 1.258 . S
C151 O153 1.256 . S
O152 Cd144 2.381 . S
O152 C151 1.258 . S
O153 Cd144 2.378 . S
O153 C151 1.256 . S
O154 Cd155 2.300 1_545 S
O154 C161 1.275 . S
Cd155 O154 2.300 1_565 S
Cd155 O163 2.381 1_565 S
Cd155 O164 2.378 . S
O156 Cd157 2.385 . S
O156 C161 1.255 1_565 S
Cd157 O156 2.385 . S
Cd157 O158 2.317 . S
O158 Cd157 2.317 . S
O158 C159 1.232 . S
C159 O158 1.232 . S
C159 O160 1.218 . S
O160 C159 1.218 . S
C161 O154 1.275 . S
C161 O156 1.255 1_545 S
C162 O163 1.258 1_565 S
C162 O164 1.256 . S
O163 Cd155 2.381 1_545 S
O163 C162 1.258 1_545 S
O164 Cd155 2.378 . S
O164 C162 1.256 . S
O165 Cd166 2.300 1_565 S
O165 C172 1.275 1_565 S
Cd166 O165 2.300 1_545 S
Cd166 O174 2.381 1_545 S
Cd166 O175 2.378 . S
O167 Cd168 2.385 . S
O167 C172 1.255 . S
Cd168 O167 2.385 . S
Cd168 O169 2.317 . S
O169 Cd168 2.317 . S
O169 C170 1.232 . S
C170 O169 1.232 . S
C170 O171 1.218 . S
O171 C170 1.218 . S
C172 O165 1.275 1_545 S
C172 O167 1.255 . S
C173 O174 1.258 1_545 S
C173 O175 1.256 . S
O174 Cd166 2.381 1_565 S
O174 C173 1.258 1_565 S
O175 Cd166 2.378 . S
O175 C173 1.256 . S
O176 Cd177 2.300 . S
O176 C183 1.275 . S
Cd177 O176 2.300 . S
Cd177 O185 2.381 . S
Cd177 O186 2.378 . S
O178 Cd179 2.385 . S
O178 C183 1.255 . S
Cd179 O178 2.385 . S
Cd179 O180 2.317 . S
O180 Cd179 2.317 . S
O180 C181 1.232 . S
C181 O180 1.232 . S
C181 O182 1.218 . S
O182 C181 1.218 . S
C183 O176 1.275 . S
C183 O178 1.255 . S
C184 O185 1.258 . S
C184 O186 1.256 . S
O185 Cd177 2.381 . S
O185 C184 1.258 . S
O186 Cd177 2.378 . S
O186 C184 1.256 . S
O187 Cd188 2.300 1_556 S
O187 C194 1.275 1_556 S
Cd188 O187 2.300 1_554 S
Cd188 O196 2.381 1_554 S
Cd188 O197 2.378 . S
O189 Cd190 2.385 . S
O189 C194 1.255 . S
Cd190 O189 2.385 . S
Cd190 O191 2.317 . S
O191 Cd190 2.317 . S
O191 C192 1.232 . S
C192 O191 1.232 . S
C192 O193 1.218 . S
O193 C192 1.218 . S
C194 O187 1.275 1_554 S
C194 O189 1.255 . S
C195 O196 1.258 1_554 S
C195 O197 1.256 . S
O196 Cd188 2.381 1_556 S
O196 C195 1.258 1_556 S
O197 Cd188 2.378 . S
O197 C195 1.256 . S
O198 Cd199 2.300 . S
O198 C205 1.275 . S
Cd199 O198 2.300 . S
Cd199 O207 2.381 . S
Cd199 O208 2.378 . S
O200 Cd201 2.385 . S
O200 C205 1.255 . S
Cd201 O200 2.385 . S
Cd201 O202 2.317 . S
O202 Cd201 2.317 . S
O202 C203 1.232 . S
C203 O202 1.232 . S
C203 O204 1.218 . S
O204 C203 1.218 . S
C205 O198 1.275 . S
C205 O200 1.255 . S
C206 O207 1.258 . S
C206 O208 1.256 . S
O207 Cd199 2.381 . S
O207 C206 1.258 . S
O208 Cd199 2.378 . S
O208 C206 1.256 . S
O209 Cd210 2.300 1_554 S
O209 C216 1.275 . S
Cd210 O209 2.300 1_556 S
Cd210 O218 2.381 1_556 S
Cd210 O219 2.378 . S
O211 Cd212 2.385 . S
O211 C216 1.255 1_556 S
Cd212 O211 2.385 . S
Cd212 O213 2.317 . S
O213 Cd212 2.317 . S
O213 C214 1.232 . S
C214 O213 1.232 . S
C214 O215 1.218 . S
O215 C214 1.218 . S
C216 O209 1.275 . S
C216 O211 1.255 1_554 S
C217 O218 1.258 1_556 S
C217 O219 1.256 . S
O218 Cd210 2.381 1_554 S
O218 C217 1.258 1_554 S
O219 Cd210 2.378 . S
O219 C217 1.256 . S
O220 Cd221 2.300 . S
O220 C227 1.275 . S
Cd221 O220 2.300 . S
Cd221 O229 2.381 . S
Cd221 O230 2.378 . S
O222 Cd223 2.385 . S
O222 C227 1.255 . S
Cd223 O222 2.385 . S
Cd223 O224 2.317 . S
O224 Cd223 2.317 . S
O224 C225 1.232 . S
C225 O224 1.232 . S
C225 O226 1.218 . S
O226 C225 1.218 . S
C227 O220 1.275 . S
C227 O222 1.255 . S
C228 O229 1.258 . S
C228 O230 1.256 . S
O229 Cd221 2.381 . S
O229 C228 1.258 . S
O230 Cd221 2.378 . S
O230 C228 1.256 . S
O231 Cd232 2.300 1_655 S
O231 C238 1.275 1_655 S
Cd232 O231 2.300 1_455 S
Cd232 O240 2.381 1_455 S
Cd232 O241 2.378 . S
O233 Cd234 2.385 . S
O233 C238 1.255 . S
Cd234 O233 2.385 . S
Cd234 O235 2.317 . S
O235 Cd234 2.317 . S
O235 C236 1.232 . S
C236 O235 1.232 . S
C236 O237 1.218 . S
O237 C236 1.218 . S
C238 O231 1.275 1_455 S
C238 O233 1.255 . S
C239 O240 1.258 1_455 S
C239 O241 1.256 . S
O240 Cd232 2.381 1_655 S
O240 C239 1.258 1_655 S
O241 Cd232 2.378 . S
O241 C239 1.256 . S
O242 Cd243 2.300 . S
O242 C249 1.275 . S
Cd243 O242 2.300 . S
Cd243 O251 2.381 . S
Cd243 O252 2.378 . S
O244 Cd245 2.385 . S
O244 C249 1.255 . S
Cd245 O244 2.385 . S
Cd245 O246 2.317 . S
O246 Cd245 2.317 . S
O246 C247 1.232 . S
C247 O246 1.232 . S
C247 O248 1.218 . S
O248 C247 1.218 . S
C249 O242 1.275 . S
C249 O244 1.255 . S
C250 O251 1.258 . S
C250 O252 1.256 . S
O251 Cd243 2.381 . S
O251 C250 1.258 . S
O252 Cd243 2.378 . S
O252 C250 1.256 . S
O253 Cd254 2.300 1_455 S
O253 C260 1.275 . S
Cd254 O253 2.300 1_655 S
Cd254 O262 2.381 1_655 S
Cd254 O263 2.378 . S
O255 Cd256 2.385 . S
O255 C260 1.255 1_655 S
Cd256 O255 2.385 . S
Cd256 O257 2.317 . S
O257 Cd256 2.317 . S
O257 C258 1.232 . S
C258 O257 1.232 . S
C258 O259 1.218 . S
O259 C258 1.218 . S
C260 O253 1.275 . S
C260 O255 1.255 1_455 S
C261 O262 1.258 1_655 S
C261 O263 1.256 . S
O262 Cd254 2.381 1_455 S
O262 C261 1.258 1_455 S
O263 Cd254 2.378 . S
O263 C261 1.256 . S
H264 C271 0.929 . S
H265 C274 0.930 . S
H266 C276 0.929 . S
H267 C268 0.969 . S
C268 H267 0.969 . S
C268 O269 1.550 . S
C268 H270 0.973 . S
O269 C268 1.550 . S
O269 C275 1.412 . S
H270 C268 0.973 . S
C271 H264 0.929 . S
C271 C272 1.400 . S
C271 C273 1.364 . S
C272 C271 1.400 . S
C272 C276 1.377 . S
C273 C271 1.364 . S
C273 C274 1.374 . S
C274 H265 0.930 . S
C274 C273 1.374 . S
C274 C275 1.383 . S
C275 O269 1.412 . S
C275 C274 1.383 . S
C275 C276 1.394 . S
C276 H266 0.929 . S
C276 C272 1.377 . S
C276 C275 1.394 . S
H277 C284 0.929 . S
H278 C287 0.930 . S
H279 C289 0.929 . S
H280 C281 0.969 . S
C281 H280 0.969 . S
C281 O282 1.550 . S
C281 H283 0.973 . S
O282 C281 1.550 . S
O282 C288 1.412 . S
H283 C281 0.973 . S
C284 H277 0.929 . S
C284 C285 1.400 . S
C284 C286 1.364 . S
C285 C284 1.400 . S
C285 C289 1.377 . S
C286 C284 1.364 . S
C286 C287 1.374 . S
C287 H278 0.930 . S
C287 C286 1.374 . S
C287 C288 1.383 . S
C288 O282 1.412 . S
C288 C287 1.383 . S
C288 C289 1.394 . S
C289 H279 0.929 . S
C289 C285 1.377 . S
C289 C288 1.394 . S
H290 C297 0.929 . S
H291 C300 0.930 . S
H292 C302 0.929 . S
H293 C294 0.969 . S
C294 H293 0.969 . S
C294 O295 1.550 . S
C294 H296 0.973 . S
O295 C294 1.550 . S
O295 C301 1.412 . S
H296 C294 0.973 . S
C297 H290 0.929 . S
C297 C298 1.400 . S
C297 C299 1.364 . S
C298 C297 1.400 . S
C298 C302 1.377 . S
C299 C297 1.364 . S
C299 C300 1.374 1_565 S
C300 H291 0.930 . S
C300 C299 1.374 1_545 S
C300 C301 1.383 . S
C301 O295 1.412 . S
C301 C300 1.383 . S
C301 C302 1.394 1_545 S
C302 H292 0.929 . S
C302 C298 1.377 . S
C302 C301 1.394 1_565 S
H303 C310 0.929 1_545 S
H304 C313 0.930 . S
H305 C315 0.929 . S
H306 C307 0.969 . S
C307 H306 0.969 . S
C307 O308 1.550 . S
C307 H309 0.973 . S
O308 C307 1.550 . S
O308 C314 1.412 . S
H309 C307 0.973 . S
C310 H303 0.929 1_565 S
C310 C311 1.400 . S
C310 C312 1.364 . S
C311 C310 1.400 . S
C311 C315 1.377 . S
C312 C310 1.364 . S
C312 C313 1.374 . S
C313 H304 0.930 . S
C313 C312 1.374 . S
C313 C314 1.383 . S
C314 O308 1.412 . S
C314 C313 1.383 . S
C314 C315 1.394 . S
C315 H305 0.929 . S
C315 C311 1.377 . S
C315 C314 1.394 . S
H316 C323 0.929 . S
H317 C326 0.930 . S
H318 C328 0.929 . S
H319 C320 0.969 . S
C320 H319 0.969 . S
C320 O321 1.550 . S
C320 H322 0.973 . S
O321 C320 1.550 . S
O321 C327 1.412 . S
H322 C320 0.973 . S
C323 H316 0.929 . S
C323 C324 1.400 . S
C323 C325 1.364 . S
C324 C323 1.400 . S
C324 C328 1.377 . S
C325 C323 1.364 . S
C325 C326 1.374 . S
C326 H317 0.930 . S
C326 C325 1.374 . S
C326 C327 1.383 . S
C327 O321 1.412 . S
C327 C326 1.383 . S
C327 C328 1.394 . S
C328 H318 0.929 . S
C328 C324 1.377 . S
C328 C327 1.394 . S
H329 C336 0.929 1_554 S
H330 C339 0.930 . S
H331 C341 0.929 . S
H332 C333 0.969 . S
C333 H332 0.969 . S
C333 O334 1.550 . S
C333 H335 0.973 . S
O334 C333 1.550 . S
O334 C340 1.412 . S
H335 C333 0.973 . S
C336 H329 0.929 1_556 S
C336 C337 1.400 . S
C336 C338 1.364 . S
C337 C336 1.400 . S
C337 C341 1.377 . S
C338 C336 1.364 . S
C338 C339 1.374 . S
C339 H330 0.930 . S
C339 C338 1.374 . S
C339 C340 1.383 . S
C340 O334 1.412 . S
C340 C339 1.383 . S
C340 C341 1.394 . S
C341 H331 0.929 . S
C341 C337 1.377 . S
C341 C340 1.394 . S
H342 C349 0.929 . S
H343 C352 0.930 . S
H344 C354 0.929 . S
H345 C346 0.969 . S
C346 H345 0.969 . S
C346 O347 1.550 . S
C346 H348 0.973 . S
O347 C346 1.550 . S
O347 C353 1.412 . S
H348 C346 0.973 . S
C349 H342 0.929 . S
C349 C350 1.400 . S
C349 C351 1.364 . S
C350 C349 1.400 . S
C350 C354 1.377 . S
C351 C349 1.364 . S
C351 C352 1.374 . S
C352 H343 0.930 . S
C352 C351 1.374 . S
C352 C353 1.383 . S
C353 O347 1.412 . S
C353 C352 1.383 . S
C353 C354 1.394 . S
C354 H344 0.929 . S
C354 C350 1.377 . S
C354 C353 1.394 . S
H355 C362 0.929 . S
H356 C365 0.930 . S
H357 C367 0.929 . S
H358 C359 0.969 . S
C359 H358 0.969 . S
C359 O360 1.550 . S
C359 H361 0.973 . S
O360 C359 1.550 . S
O360 C366 1.412 . S
H361 C359 0.973 . S
C362 H355 0.929 . S
C362 C363 1.400 . S
C362 C364 1.364 . S
C363 C362 1.400 . S
C363 C367 1.377 . S
C364 C362 1.364 . S
C364 C365 1.374 1_556 S
C365 H356 0.930 . S
C365 C364 1.374 1_554 S
C365 C366 1.383 . S
C366 O360 1.412 . S
C366 C365 1.383 . S
C366 C367 1.394 1_554 S
C367 H357 0.929 . S
C367 C363 1.377 . S
C367 C366 1.394 1_556 S
H368 C375 0.929 . S
H369 C378 0.930 . S
H370 C380 0.929 . S
H371 C372 0.969 . S
C372 H371 0.969 . S
C372 O373 1.550 . S
C372 H374 0.973 . S
O373 C372 1.550 . S
O373 C379 1.412 . S
H374 C372 0.973 . S
C375 H368 0.929 . S
C375 C376 1.400 . S
C375 C377 1.364 . S
C376 C375 1.400 . S
C376 C380 1.377 . S
C377 C375 1.364 . S
C377 C378 1.374 . S
C378 H369 0.930 . S
C378 C377 1.374 . S
C378 C379 1.383 . S
C379 O373 1.412 . S
C379 C378 1.383 . S
C379 C380 1.394 . S
C380 H370 0.929 . S
C380 C376 1.377 . S
C380 C379 1.394 . S
H381 C388 0.929 1_455 S
H382 C391 0.930 . S
H383 C393 0.929 . S
H384 C385 0.969 . S
C385 H384 0.969 . S
C385 O386 1.550 . S
C385 H387 0.973 . S
O386 C385 1.550 . S
O386 C392 1.412 . S
H387 C385 0.973 . S
C388 H381 0.929 1_655 S
C388 C389 1.400 . S
C388 C390 1.364 . S
C389 C388 1.400 . S
C389 C393 1.377 . S
C390 C388 1.364 . S
C390 C391 1.374 . S
C391 H382 0.930 . S
C391 C390 1.374 . S
C391 C392 1.383 . S
C392 O386 1.412 . S
C392 C391 1.383 . S
C392 C393 1.394 . S
C393 H383 0.929 . S
C393 C389 1.377 . S
C393 C392 1.394 . S
H394 C401 0.929 . S
H395 C404 0.930 . S
H396 C406 0.929 . S
H397 C398 0.969 . S
C398 H397 0.969 . S
C398 O399 1.550 . S
C398 H400 0.973 . S
O399 C398 1.550 . S
O399 C405 1.412 . S
H400 C398 0.973 . S
C401 H394 0.929 . S
C401 C402 1.400 . S
C401 C403 1.364 . S
C402 C401 1.400 . S
C402 C406 1.377 . S
C403 C401 1.364 . S
C403 C404 1.374 . S
C404 H395 0.930 . S
C404 C403 1.374 . S
C404 C405 1.383 . S
C405 O399 1.412 . S
C405 C404 1.383 . S
C405 C406 1.394 . S
C406 H396 0.929 . S
C406 C402 1.377 . S
C406 C405 1.394 . S
H407 C414 0.929 . S
H408 C417 0.930 . S
H409 C419 0.929 . S
H410 C411 0.969 . S
C411 H410 0.969 . S
C411 O412 1.550 . S
C411 H413 0.973 . S
O412 C411 1.550 . S
O412 C418 1.412 . S
H413 C411 0.973 . S
C414 H407 0.929 . S
C414 C415 1.400 . S
C414 C416 1.364 . S
C415 C414 1.400 . S
C415 C419 1.377 . S
C416 C414 1.364 . S
C416 C417 1.374 1_655 S
C417 H408 0.930 . S
C417 C416 1.374 1_455 S
C417 C418 1.383 . S
C418 O412 1.412 . S
C418 C417 1.383 . S
C418 C419 1.394 1_455 S
C419 H409 0.929 . S
C419 C415 1.377 . S
C419 C418 1.394 1_655 S
H420 C427 0.929 . S
H421 C430 0.930 . S
H422 C432 0.929 . S
H423 C424 0.969 . S
C424 H423 0.969 . S
C424 O425 1.550 . S
C424 H426 0.973 . S
O425 C424 1.550 . S
O425 C431 1.412 . S
H426 C424 0.973 . S
C427 H420 0.929 . S
C427 C428 1.400 . S
C427 C429 1.364 . S
C428 C427 1.400 . S
C428 C432 1.377 . S
C429 C427 1.364 . S
C429 C430 1.374 . S
C430 H421 0.930 . S
C430 C429 1.374 . S
C430 C431 1.383 . S
C431 O425 1.412 . S
C431 C430 1.383 . S
C431 C432 1.394 . S
C432 H422 0.929 . S
C432 C428 1.377 . S
C432 C431 1.394 . S
H433 C440 0.929 . S
H434 C443 0.930 . S
H435 C445 0.929 . S
H436 C437 0.969 . S
C437 H436 0.969 . S
C437 O438 1.550 . S
C437 H439 0.973 . S
O438 C437 1.550 . S
O438 C444 1.412 . S
H439 C437 0.973 . S
C440 H433 0.929 . S
C440 C441 1.400 . S
C440 C442 1.364 . S
C441 C440 1.400 . S
C441 C445 1.377 . S
C442 C440 1.364 . S
C442 C443 1.374 . S
C443 H434 0.930 . S
C443 C442 1.374 . S
C443 C444 1.383 . S
C444 O438 1.412 . S
C444 C443 1.383 . S
C444 C445 1.394 . S
C445 H435 0.929 . S
C445 C441 1.377 . S
C445 C444 1.394 . S
H446 C453 0.929 . S
H447 C456 0.930 . S
H448 C458 0.929 . S
H449 C450 0.969 . S
C450 H449 0.969 . S
C450 O451 1.550 . S
C450 H452 0.973 . S
O451 C450 1.550 . S
O451 C457 1.412 . S
H452 C450 0.973 . S
C453 H446 0.929 . S
C453 C454 1.400 . S
C453 C455 1.364 . S
C454 C453 1.400 . S
C454 C458 1.377 . S
C455 C453 1.364 . S
C455 C456 1.374 1_545 S
C456 H447 0.930 . S
C456 C455 1.374 1_565 S
C456 C457 1.383 . S
C457 O451 1.412 . S
C457 C456 1.383 . S
C457 C458 1.394 1_565 S
C458 H448 0.929 . S
C458 C454 1.377 . S
C458 C457 1.394 1_545 S
H459 C466 0.929 1_565 S
H460 C469 0.930 . S
H461 C471 0.929 . S
H462 C463 0.969 . S
C463 H462 0.969 . S
C463 O464 1.550 . S
C463 H465 0.973 . S
O464 C463 1.550 . S
O464 C470 1.412 . S
H465 C463 0.973 . S
C466 H459 0.929 1_545 S
C466 C467 1.400 . S
C466 C468 1.364 . S
C467 C466 1.400 . S
C467 C471 1.377 . S
C468 C466 1.364 . S
C468 C469 1.374 . S
C469 H460 0.930 . S
C469 C468 1.374 . S
C469 C470 1.383 . S
C470 O464 1.412 . S
C470 C469 1.383 . S
C470 C471 1.394 . S
C471 H461 0.929 . S
C471 C467 1.377 . S
C471 C470 1.394 . S
H472 C479 0.929 . S
H473 C482 0.930 . S
H474 C484 0.929 . S
H475 C476 0.969 . S
C476 H475 0.969 . S
C476 O477 1.550 . S
C476 H478 0.973 . S
O477 C476 1.550 . S
O477 C483 1.412 . S
H478 C476 0.973 . S
C479 H472 0.929 . S
C479 C480 1.400 . S
C479 C481 1.364 . S
C480 C479 1.400 . S
C480 C484 1.377 . S
C481 C479 1.364 . S
C481 C482 1.374 . S
C482 H473 0.930 . S
C482 C481 1.374 . S
C482 C483 1.383 . S
C483 O477 1.412 . S
C483 C482 1.383 . S
C483 C484 1.394 . S
C484 H474 0.929 . S
C484 C480 1.377 . S
C484 C483 1.394 . S
H485 C492 0.929 1_556 S
H486 C495 0.930 . S
H487 C497 0.929 . S
H488 C489 0.969 . S
C489 H488 0.969 . S
C489 O490 1.550 . S
C489 H491 0.973 . S
O490 C489 1.550 . S
O490 C496 1.412 . S
H491 C489 0.973 . S
C492 H485 0.929 1_554 S
C492 C493 1.400 . S
C492 C494 1.364 . S
C493 C492 1.400 . S
C493 C497 1.377 . S
C494 C492 1.364 . S
C494 C495 1.374 . S
C495 H486 0.930 . S
C495 C494 1.374 . S
C495 C496 1.383 . S
C496 O490 1.412 . S
C496 C495 1.383 . S
C496 C497 1.394 . S
C497 H487 0.929 . S
C497 C493 1.377 . S
C497 C496 1.394 . S
H498 C505 0.929 . S
H499 C508 0.930 . S
H500 C510 0.929 . S
H501 C502 0.969 . S
C502 H501 0.969 . S
C502 O503 1.550 . S
C502 H504 0.973 . S
O503 C502 1.550 . S
O503 C509 1.412 . S
H504 C502 0.973 . S
C505 H498 0.929 . S
C505 C506 1.400 . S
C505 C507 1.364 . S
C506 C505 1.400 . S
C506 C510 1.377 . S
C507 C505 1.364 . S
C507 C508 1.374 . S
C508 H499 0.930 . S
C508 C507 1.374 . S
C508 C509 1.383 . S
C509 O503 1.412 . S
C509 C508 1.383 . S
C509 C510 1.394 . S
C510 H500 0.929 . S
C510 C506 1.377 . S
C510 C509 1.394 . S
H511 C518 0.929 . S
H512 C521 0.930 . S
H513 C523 0.929 . S
H514 C515 0.969 . S
C515 H514 0.969 . S
C515 O516 1.550 . S
C515 H517 0.973 . S
O516 C515 1.550 . S
O516 C522 1.412 . S
H517 C515 0.973 . S
C518 H511 0.929 . S
C518 C519 1.400 . S
C518 C520 1.364 . S
C519 C518 1.400 . S
C519 C523 1.377 . S
C520 C518 1.364 . S
C520 C521 1.374 1_554 S
C521 H512 0.930 . S
C521 C520 1.374 1_556 S
C521 C522 1.383 . S
C522 O516 1.412 . S
C522 C521 1.383 . S
C522 C523 1.394 1_556 S
C523 H513 0.929 . S
C523 C519 1.377 . S
C523 C522 1.394 1_554 S
H524 C531 0.929 . S
H525 C534 0.930 . S
H526 C536 0.929 . S
H527 C528 0.969 . S
C528 H527 0.969 . S
C528 O529 1.550 . S
C528 H530 0.973 . S
O529 C528 1.550 . S
O529 C535 1.412 . S
H530 C528 0.973 . S
C531 H524 0.929 . S
C531 C532 1.400 . S
C531 C533 1.364 . S
C532 C531 1.400 . S
C532 C536 1.377 . S
C533 C531 1.364 . S
C533 C534 1.374 . S
C534 H525 0.930 . S
C534 C533 1.374 . S
C534 C535 1.383 . S
C535 O529 1.412 . S
C535 C534 1.383 . S
C535 C536 1.394 . S
C536 H526 0.929 . S
C536 C532 1.377 . S
C536 C535 1.394 . S
H537 C544 0.929 1_655 S
H538 C547 0.930 . S
H539 C549 0.929 . S
H540 C541 0.969 . S
C541 H540 0.969 . S
C541 O542 1.550 . S
C541 H543 0.973 . S
O542 C541 1.550 . S
O542 C548 1.412 . S
H543 C541 0.973 . S
C544 H537 0.929 1_455 S
C544 C545 1.400 . S
C544 C546 1.364 . S
C545 C544 1.400 . S
C545 C549 1.377 . S
C546 C544 1.364 . S
C546 C547 1.374 . S
C547 H538 0.930 . S
C547 C546 1.374 . S
C547 C548 1.383 . S
C548 O542 1.412 . S
C548 C547 1.383 . S
C548 C549 1.394 . S
C549 H539 0.929 . S
C549 C545 1.377 . S
C549 C548 1.394 . S
H550 C557 0.929 . S
H551 C560 0.930 . S
H552 C562 0.929 . S
H553 C554 0.969 . S
C554 H553 0.969 . S
C554 O555 1.550 . S
C554 H556 0.973 . S
O555 C554 1.550 . S
O555 C561 1.412 . S
H556 C554 0.973 . S
C557 H550 0.929 . S
C557 C558 1.400 . S
C557 C559 1.364 . S
C558 C557 1.400 . S
C558 C562 1.377 . S
C559 C557 1.364 . S
C559 C560 1.374 . S
C560 H551 0.930 . S
C560 C559 1.374 . S
C560 C561 1.383 . S
C561 O555 1.412 . S
C561 C560 1.383 . S
C561 C562 1.394 . S
C562 H552 0.929 . S
C562 C558 1.377 . S
C562 C561 1.394 . S
H563 C570 0.929 . S
H564 C573 0.930 . S
H565 C575 0.929 . S
H566 C567 0.969 . S
C567 H566 0.969 . S
C567 O568 1.550 . S
C567 H569 0.973 . S
O568 C567 1.550 . S
O568 C574 1.412 . S
H569 C567 0.973 . S
C570 H563 0.929 . S
C570 C571 1.400 . S
C570 C572 1.364 . S
C571 C570 1.400 . S
C571 C575 1.377 . S
C572 C570 1.364 . S
C572 C573 1.374 1_455 S
C573 H564 0.930 . S
C573 C572 1.374 1_655 S
C573 C574 1.383 . S
C574 O568 1.412 . S
C574 C573 1.383 . S
C574 C575 1.394 1_655 S
C575 H565 0.929 . S
C575 C571 1.377 . S
C575 C574 1.394 1_455 S
H576 C588 0.930 . S
H577 C590 0.930 . S
H578 C591 0.930 . S
H579 C595 0.959 . S
H580 C595 0.959 . S
H581 C595 0.961 . S
H582 C596 0.960 . S
H583 C596 0.961 . S
H584 C596 0.959 . S
H585 C599 0.929 . S
H586 C600 0.931 . S
H587 C602 0.930 . S
C588 H576 0.930 . S
C588 C589 1.399 . S
C588 C593 1.399 . S
C589 C588 1.399 . S
C589 C590 1.376 . S
C590 H577 0.930 . S
C590 C589 1.376 . S
C590 C591 1.388 . S
C591 H578 0.930 . S
C591 C590 1.388 . S
C591 C592 1.390 . S
C592 C591 1.390 . S
C592 C593 1.394 . S
C592 C598 1.465 . S
C593 C588 1.399 . S
C593 C592 1.394 . S
C593 C594 1.516 . S
C594 C593 1.516 . S
C594 C595 1.502 . S
C594 C596 1.561 . S
C594 C597 1.526 . S
C595 H579 0.959 . S
C595 H580 0.959 . S
C595 H581 0.961 . S
C595 C594 1.502 . S
C596 H582 0.960 . S
C596 H583 0.961 . S
C596 H584 0.959 . S
C596 C594 1.561 . S
C597 C594 1.526 . S
C597 C598 1.396 . S
C597 C602 1.390 . S
C598 C592 1.465 . S
C598 C597 1.396 . S
C598 C599 1.399 . S
C599 H585 0.929 . S
C599 C598 1.399 . S
C599 C600 1.385 . S
C600 H586 0.931 . S
C600 C599 1.385 . S
C600 C601 1.389 . S
C601 C600 1.389 . S
C601 C602 1.387 . S
C602 H587 0.930 . S
C602 C597 1.390 . S
C602 C601 1.387 . S
H603 C615 0.930 . S
H604 C617 0.930 . S
H605 C618 0.930 . S
H606 C622 0.959 . S
H607 C622 0.959 . S
H608 C622 0.961 . S
H609 C623 0.960 . S
H610 C623 0.961 . S
H611 C623 0.959 . S
H612 C626 0.929 . S
H613 C627 0.931 . S
H614 C629 0.930 . S
C615 H603 0.930 . S
C615 C616 1.399 . S
C615 C620 1.399 . S
C616 C615 1.399 . S
C616 C617 1.376 . S
C617 H604 0.930 . S
C617 C616 1.376 . S
C617 C618 1.388 . S
C618 H605 0.930 . S
C618 C617 1.388 . S
C618 C619 1.390 . S
C619 C618 1.390 . S
C619 C620 1.394 . S
C619 C625 1.465 . S
C620 C615 1.399 . S
C620 C619 1.394 . S
C620 C621 1.516 . S
C621 C620 1.516 . S
C621 C622 1.502 . S
C621 C623 1.561 . S
C621 C624 1.526 . S
C622 H606 0.959 . S
C622 H607 0.959 . S
C622 H608 0.961 . S
C622 C621 1.502 . S
C623 H609 0.960 . S
C623 H610 0.961 . S
C623 H611 0.959 . S
C623 C621 1.561 . S
C624 C621 1.526 . S
C624 C625 1.396 . S
C624 C629 1.390 . S
C625 C619 1.465 . S
C625 C624 1.396 . S
C625 C626 1.399 . S
C626 H612 0.929 . S
C626 C625 1.399 . S
C626 C627 1.385 . S
C627 H613 0.931 . S
C627 C626 1.385 . S
C627 C628 1.389 . S
C628 C627 1.389 . S
C628 C629 1.387 . S
C629 H614 0.930 . S
C629 C624 1.390 . S
C629 C628 1.387 . S
H630 C642 0.930 . S
H631 C644 0.930 . S
H632 C645 0.930 . S
H633 C649 0.959 . S
H634 C649 0.959 . S
H635 C649 0.961 . S
H636 C650 0.960 . S
H637 C650 0.961 . S
H638 C650 0.959 . S
H639 C653 0.929 . S
H640 C654 0.931 1_565 S
H641 C656 0.930 . S
C642 H630 0.930 . S
C642 C643 1.399 . S
C642 C647 1.399 . S
C643 C642 1.399 . S
C643 C644 1.376 1_545 S
C644 H631 0.930 . S
C644 C643 1.376 1_565 S
C644 C645 1.388 . S
C645 H632 0.930 . S
C645 C644 1.388 . S
C645 C646 1.390 1_565 S
C646 C645 1.390 1_545 S
C646 C647 1.394 . S
C646 C652 1.465 . S
C647 C642 1.399 . S
C647 C646 1.394 . S
C647 C648 1.516 . S
C648 C647 1.516 . S
C648 C649 1.502 . S
C648 C650 1.561 . S
C648 C651 1.526 . S
C649 H633 0.959 . S
C649 H634 0.959 . S
C649 H635 0.961 . S
C649 C648 1.502 . S
C650 H636 0.960 . S
C650 H637 0.961 . S
C650 H638 0.959 . S
C650 C648 1.561 . S
C651 C648 1.526 . S
C651 C652 1.396 . S
C651 C656 1.390 . S
C652 C646 1.465 . S
C652 C651 1.396 . S
C652 C653 1.399 1_545 S
C653 H639 0.929 . S
C653 C652 1.399 1_565 S
C653 C654 1.385 1_565 S
C654 H640 0.931 1_545 S
C654 C653 1.385 1_545 S
C654 C655 1.389 . S
C655 C654 1.389 . S
C655 C656 1.387 . S
C656 H641 0.930 . S
C656 C651 1.390 . S
C656 C655 1.387 . S
H657 C669 0.930 . S
H658 C671 0.930 . S
H659 C672 0.930 . S
H660 C676 0.959 1_545 S
H661 C676 0.959 . S
H662 C676 0.961 . S
H663 C677 0.960 . S
H664 C677 0.961 . S
H665 C677 0.959 . S
H666 C680 0.929 . S
H667 C681 0.931 . S
H668 C683 0.930 . S
C669 H657 0.930 . S
C669 C670 1.399 . S
C669 C674 1.399 . S
C670 C669 1.399 . S
C670 C671 1.376 . S
C671 H658 0.930 . S
C671 C670 1.376 . S
C671 C672 1.388 . S
C672 H659 0.930 . S
C672 C671 1.388 . S
C672 C673 1.390 . S
C673 C672 1.390 . S
C673 C674 1.394 . S
C673 C679 1.465 . S
C674 C669 1.399 . S
C674 C673 1.394 . S
C674 C675 1.516 . S
C675 C674 1.516 . S
C675 C676 1.502 . S
C675 C677 1.561 . S
C675 C678 1.526 . S
C676 H660 0.959 1_565 S
C676 H661 0.959 . S
C676 H662 0.961 . S
C676 C675 1.502 . S
C677 H663 0.960 . S
C677 H664 0.961 . S
C677 H665 0.959 . S
C677 C675 1.561 . S
C678 C675 1.526 . S
C678 C679 1.396 . S
C678 C683 1.390 . S
C679 C673 1.465 . S
C679 C678 1.396 . S
C679 C680 1.399 . S
C680 H666 0.929 . S
C680 C679 1.399 . S
C680 C681 1.385 . S
C681 H667 0.931 . S
C681 C680 1.385 . S
C681 C682 1.389 . S
C682 C681 1.389 . S
C682 C683 1.387 . S
C683 H668 0.930 . S
C683 C678 1.390 . S
C683 C682 1.387 . S
H684 C696 0.930 . S
H685 C698 0.930 . S
H686 C699 0.930 . S
H687 C703 0.959 . S
H688 C703 0.959 . S
H689 C703 0.961 . S
H690 C704 0.960 . S
H691 C704 0.961 . S
H692 C704 0.959 . S
H693 C707 0.929 . S
H694 C708 0.931 . S
H695 C710 0.930 . S
C696 H684 0.930 . S
C696 C697 1.399 . S
C696 C701 1.399 . S
C697 C696 1.399 . S
C697 C698 1.376 . S
C698 H685 0.930 . S
C698 C697 1.376 . S
C698 C699 1.388 . S
C699 H686 0.930 . S
C699 C698 1.388 . S
C699 C700 1.390 . S
C700 C699 1.390 . S
C700 C701 1.394 . S
C700 C706 1.465 . S
C701 C696 1.399 . S
C701 C700 1.394 . S
C701 C702 1.516 . S
C702 C701 1.516 . S
C702 C703 1.502 . S
C702 C704 1.561 . S
C702 C705 1.526 . S
C703 H687 0.959 . S
C703 H688 0.959 . S
C703 H689 0.961 . S
C703 C702 1.502 . S
C704 H690 0.960 . S
C704 H691 0.961 . S
C704 H692 0.959 . S
C704 C702 1.561 . S
C705 C702 1.526 . S
C705 C706 1.396 . S
C705 C710 1.390 . S
C706 C700 1.465 . S
C706 C705 1.396 . S
C706 C707 1.399 . S
C707 H693 0.929 . S
C707 C706 1.399 . S
C707 C708 1.385 . S
C708 H694 0.931 . S
C708 C707 1.385 . S
C708 C709 1.389 . S
C709 C708 1.389 . S
C709 C710 1.387 . S
C710 H695 0.930 . S
C710 C705 1.390 . S
C710 C709 1.387 . S
H711 C723 0.930 . S
H712 C725 0.930 . S
H713 C726 0.930 . S
H714 C730 0.959 . S
H715 C730 0.959 . S
H716 C730 0.961 . S
H717 C731 0.960 . S
H718 C731 0.961 . S
H719 C731 0.959 . S
H720 C734 0.929 . S
H721 C735 0.931 . S
H722 C737 0.930 1_554 S
C723 H711 0.930 . S
C723 C724 1.399 1_554 S
C723 C728 1.413 . S
C724 C723 1.399 1_556 S
C724 C725 1.376 . S
C725 H712 0.930 . S
C725 C724 1.376 . S
C725 C726 1.388 . S
C726 H713 0.930 . S
C726 C725 1.388 . S
C726 C727 1.390 . S
C727 C726 1.390 . S
C727 C728 1.363 1_556 S
C727 C733 1.465 . S
C728 C723 1.413 . S
C728 C727 1.363 1_554 S
C728 C729 1.528 . S
C729 C728 1.528 . S
C729 C730 1.502 . S
C729 C731 1.561 . S
C729 C732 1.526 1_554 S
C730 H714 0.959 . S
C730 H715 0.959 . S
C730 H716 0.961 . S
C730 C729 1.502 . S
C731 H717 0.960 . S
C731 H718 0.961 . S
C731 H719 0.959 . S
C731 C729 1.561 . S
C732 C729 1.526 1_556 S
C732 C733 1.396 . S
C732 C737 1.390 . S
C733 C727 1.465 . S
C733 C732 1.396 . S
C733 C734 1.399 . S
C734 H720 0.929 . S
C734 C733 1.399 . S
C734 C735 1.385 . S
C735 H721 0.931 . S
C735 C734 1.385 . S
C735 C736 1.389 . S
C736 C735 1.389 . S
C736 C737 1.387 . S
C737 H722 0.930 1_556 S
C737 C732 1.390 . S
C737 C736 1.387 . S
H738 C750 0.930 . S
H739 C752 0.930 . S
H740 C753 0.930 . S
H741 C757 0.959 . S
H742 C757 0.959 . S
H743 C757 0.961 . S
H744 C758 0.960 . S
H745 C758 0.961 . S
H746 C758 0.959 . S
H747 C761 0.929 . S
H748 C762 0.931 . S
H749 C764 0.930 . S
C750 H738 0.930 . S
C750 C751 1.399 . S
C750 C755 1.399 . S
C751 C750 1.399 . S
C751 C752 1.376 . S
C752 H739 0.930 . S
C752 C751 1.376 . S
C752 C753 1.388 . S
C753 H740 0.930 . S
C753 C752 1.388 . S
C753 C754 1.390 . S
C754 C753 1.390 . S
C754 C755 1.394 . S
C754 C760 1.465 . S
C755 C750 1.399 . S
C755 C754 1.394 . S
C755 C756 1.516 . S
C756 C755 1.516 . S
C756 C757 1.502 . S
C756 C758 1.561 . S
C756 C759 1.526 . S
C757 H741 0.959 . S
C757 H742 0.959 . S
C757 H743 0.961 . S
C757 C756 1.502 . S
C758 H744 0.960 . S
C758 H745 0.961 . S
C758 H746 0.959 . S
C758 C756 1.561 . S
C759 C756 1.526 . S
C759 C760 1.396 . S
C759 C764 1.390 . S
C760 C754 1.465 . S
C760 C759 1.396 . S
C760 C761 1.399 . S
C761 H747 0.929 . S
C761 C760 1.399 . S
C761 C762 1.385 . S
C762 H748 0.931 . S
C762 C761 1.385 . S
C762 C763 1.389 . S
C763 C762 1.389 . S
C763 C764 1.387 . S
C764 H749 0.930 . S
C764 C759 1.390 . S
C764 C763 1.387 . S
H765 C777 0.930 . S
H766 C779 0.930 . S
H767 C780 0.930 . S
H768 C784 0.959 . S
H769 C784 0.959 . S
H770 C784 0.961 . S
H771 C785 0.960 . S
H772 C785 0.961 . S
H773 C785 0.959 . S
H774 C788 0.929 . S
H775 C789 0.931 . S
H776 C791 0.930 1_556 S
C777 H765 0.930 . S
C777 C778 1.399 1_556 S
C777 C782 1.399 1_556 S
C778 C777 1.399 1_554 S
C778 C779 1.376 . S
C779 H766 0.930 . S
C779 C778 1.376 . S
C779 C780 1.388 . S
C780 H767 0.930 . S
C780 C779 1.388 . S
C780 C781 1.390 . S
C781 C780 1.390 . S
C781 C782 1.394 . S
C781 C787 1.465 . S
C782 C777 1.399 1_554 S
C782 C781 1.394 . S
C782 C783 1.516 1_554 S
C783 C782 1.516 1_556 S
C783 C784 1.502 . S
C783 C785 1.561 . S
C783 C786 1.526 1_556 S
C784 H768 0.959 . S
C784 H769 0.959 . S
C784 H770 0.961 . S
C784 C783 1.502 . S
C785 H771 0.960 . S
C785 H772 0.961 . S
C785 H773 0.959 . S
C785 C783 1.561 . S
C786 C783 1.526 1_554 S
C786 C787 1.396 . S
C786 C791 1.390 . S
C787 C781 1.465 . S
C787 C786 1.396 . S
C787 C788 1.399 . S
C788 H774 0.929 . S
C788 C787 1.399 . S
C788 C789 1.385 . S
C789 H775 0.931 . S
C789 C788 1.385 . S
C789 C790 1.389 . S
C790 C789 1.389 . S
C790 C791 1.387 . S
C791 H776 0.930 1_554 S
C791 C786 1.390 . S
C791 C790 1.387 . S
H792 C804 0.930 . S
H793 C806 0.930 . S
H794 C807 0.930 . S
H795 C811 0.959 . S
H796 C811 0.959 . S
H797 C811 0.961 . S
H798 C812 0.960 . S
H799 C812 0.961 . S
H800 C812 0.959 . S
H801 C815 0.929 . S
H802 C816 0.931 . S
H803 C818 0.930 . S
C804 H792 0.930 . S
C804 C805 1.399 . S
C804 C809 1.399 . S
C805 C804 1.399 . S
C805 C806 1.376 . S
C806 H793 0.930 . S
C806 C805 1.376 . S
C806 C807 1.388 . S
C807 H794 0.930 . S
C807 C806 1.388 . S
C807 C808 1.390 . S
C808 C807 1.390 . S
C808 C809 1.394 . S
C808 C814 1.465 . S
C809 C804 1.399 . S
C809 C808 1.394 . S
C809 C810 1.516 . S
C810 C809 1.516 . S
C810 C811 1.502 . S
C810 C812 1.561 . S
C810 C813 1.526 . S
C811 H795 0.959 . S
C811 H796 0.959 . S
C811 H797 0.961 . S
C811 C810 1.502 . S
C812 H798 0.960 . S
C812 H799 0.961 . S
C812 H800 0.959 . S
C812 C810 1.561 . S
C813 C810 1.526 . S
C813 C814 1.396 . S
C813 C818 1.390 . S
C814 C808 1.465 . S
C814 C813 1.396 . S
C814 C815 1.399 . S
C815 H801 0.929 . S
C815 C814 1.399 . S
C815 C816 1.385 . S
C816 H802 0.931 . S
C816 C815 1.385 . S
C816 C817 1.389 . S
C817 C816 1.389 . S
C817 C818 1.387 . S
C818 H803 0.930 . S
C818 C813 1.390 . S
C818 C817 1.387 . S
H819 C831 0.927 1_455 S
H820 C833 0.930 . S
H821 C834 0.930 . S
H822 C838 0.959 . S
H823 C838 0.959 . S
H824 C838 0.961 . S
H825 C839 0.960 . S
H826 C839 0.961 . S
H827 C839 0.959 . S
H828 C842 0.929 . S
H829 C843 0.931 . S
H830 C845 0.930 . S
C831 H819 0.927 1_655 S
C831 C832 1.399 . S
C831 C836 1.399 . S
C832 C831 1.399 . S
C832 C833 1.376 . S
C833 H820 0.930 . S
C833 C832 1.376 . S
C833 C834 1.388 . S
C834 H821 0.930 . S
C834 C833 1.388 . S
C834 C835 1.390 . S
C835 C834 1.390 . S
C835 C836 1.394 . S
C835 C841 1.465 . S
C836 C831 1.399 . S
C836 C835 1.394 . S
C836 C837 1.516 . S
C837 C836 1.516 . S
C837 C838 1.502 1_655 S
C837 C839 1.561 . S
C837 C840 1.526 . S
C838 H822 0.959 . S
C838 H823 0.959 . S
C838 H824 0.961 . S
C838 C837 1.502 1_455 S
C839 H825 0.960 . S
C839 H826 0.961 . S
C839 H827 0.959 . S
C839 C837 1.561 . S
C840 C837 1.526 . S
C840 C841 1.396 . S
C840 C845 1.390 . S
C841 C835 1.465 . S
C841 C840 1.396 . S
C841 C842 1.399 . S
C842 H828 0.929 . S
C842 C841 1.399 . S
C842 C843 1.385 . S
C843 H829 0.931 . S
C843 C842 1.385 . S
C843 C844 1.389 . S
C844 C843 1.389 . S
C844 C845 1.387 . S
C845 H830 0.930 . S
C845 C840 1.390 . S
C845 C844 1.387 . S
H846 C858 0.930 . S
H847 C860 0.930 . S
H848 C861 0.930 . S
H849 C865 0.959 . S
H850 C865 0.959 . S
H851 C865 0.961 . S
H852 C866 0.960 . S
H853 C866 0.961 . S
H854 C866 0.959 . S
H855 C869 0.929 . S
H856 C870 0.931 . S
H857 C872 0.930 . S
C858 H846 0.930 . S
C858 C859 1.399 . S
C858 C863 1.399 . S
C859 C858 1.399 . S
C859 C860 1.376 . S
C860 H847 0.930 . S
C860 C859 1.376 . S
C860 C861 1.388 . S
C861 H848 0.930 . S
C861 C860 1.388 . S
C861 C862 1.390 . S
C862 C861 1.390 . S
C862 C863 1.394 . S
C862 C868 1.465 . S
C863 C858 1.399 . S
C863 C862 1.394 . S
C863 C864 1.516 . S
C864 C863 1.516 . S
C864 C865 1.502 . S
C864 C866 1.561 . S
C864 C867 1.526 . S
C865 H849 0.959 . S
C865 H850 0.959 . S
C865 H851 0.961 . S
C865 C864 1.502 . S
C866 H852 0.960 . S
C866 H853 0.961 . S
C866 H854 0.959 . S
C866 C864 1.561 . S
C867 C864 1.526 . S
C867 C868 1.396 . S
C867 C872 1.390 . S
C868 C862 1.465 . S
C868 C867 1.396 . S
C868 C869 1.399 . S
C869 H855 0.929 . S
C869 C868 1.399 . S
C869 C870 1.385 . S
C870 H856 0.931 . S
C870 C869 1.385 . S
C870 C871 1.389 . S
C871 C870 1.389 . S
C871 C872 1.387 . S
C872 H857 0.930 . S
C872 C867 1.390 . S
C872 C871 1.387 . S
H873 C885 0.930 1_655 S
H874 C887 0.930 . S
H875 C888 0.930 . S
H876 C892 0.959 . S
H877 C892 0.959 . S
H878 C892 0.961 . S
H879 C893 0.960 . S
H880 C893 0.961 . S
H881 C893 0.959 . S
H882 C896 0.929 . S
H883 C897 0.931 . S
H884 C899 0.930 . S
C885 H873 0.930 1_455 S
C885 C886 1.399 . S
C885 C890 1.399 . S
C886 C885 1.399 . S
C886 C887 1.376 . S
C887 H874 0.930 . S
C887 C886 1.376 . S
C887 C888 1.388 . S
C888 H875 0.930 . S
C888 C887 1.388 . S
C888 C889 1.390 . S
C889 C888 1.390 . S
C889 C890 1.394 . S
C889 C895 1.465 . S
C890 C885 1.399 . S
C890 C889 1.394 . S
C890 C891 1.516 . S
C891 C890 1.516 . S
C891 C892 1.502 1_455 S
C891 C893 1.561 . S
C891 C894 1.526 . S
C892 H876 0.959 . S
C892 H877 0.959 . S
C892 H878 0.961 . S
C892 C891 1.502 1_655 S
C893 H879 0.960 . S
C893 H880 0.961 . S
C893 H881 0.959 . S
C893 C891 1.561 . S
C894 C891 1.526 . S
C894 C895 1.396 . S
C894 C899 1.390 . S
C895 C889 1.465 . S
C895 C894 1.396 . S
C895 C896 1.399 . S
C896 H882 0.929 . S
C896 C895 1.399 . S
C896 C897 1.385 . S
C897 H883 0.931 . S
C897 C896 1.385 . S
C897 C898 1.389 . S
C898 C897 1.389 . S
C898 C899 1.387 . S
C899 H884 0.930 . S
C899 C894 1.390 . S
C899 C898 1.387 . S
H900 C912 0.930 . S
H901 C914 0.930 . S
H902 C915 0.930 . S
H903 C919 0.959 . S
H904 C919 0.959 . S
H905 C919 0.961 . S
H906 C920 0.960 . S
H907 C920 0.961 . S
H908 C920 0.959 . S
H909 C923 0.929 . S
H910 C924 0.931 . S
H911 C926 0.930 . S
C912 H900 0.930 . S
C912 C913 1.399 . S
C912 C917 1.399 . S
C913 C912 1.399 . S
C913 C914 1.376 . S
C914 H901 0.930 . S
C914 C913 1.376 . S
C914 C915 1.388 . S
C915 H902 0.930 . S
C915 C914 1.388 . S
C915 C916 1.390 . S
C916 C915 1.390 . S
C916 C917 1.394 . S
C916 C922 1.465 . S
C917 C912 1.399 . S
C917 C916 1.394 . S
C917 C918 1.516 . S
C918 C917 1.516 . S
C918 C919 1.502 . S
C918 C920 1.561 . S
C918 C921 1.526 . S
C919 H903 0.959 . S
C919 H904 0.959 . S
C919 H905 0.961 . S
C919 C918 1.502 . S
C920 H906 0.960 . S
C920 H907 0.961 . S
C920 H908 0.959 . S
C920 C918 1.561 . S
C921 C918 1.526 . S
C921 C922 1.396 . S
C921 C926 1.390 . S
C922 C916 1.465 . S
C922 C921 1.396 . S
C922 C923 1.399 . S
C923 H909 0.929 . S
C923 C922 1.399 . S
C923 C924 1.385 . S
C924 H910 0.931 . S
C924 C923 1.385 . S
C924 C925 1.389 . S
C925 C924 1.389 . S
C925 C926 1.387 . S
C926 H911 0.930 . S
C926 C921 1.390 . S
C926 C925 1.387 . S
H927 C939 0.930 . S
H928 C941 0.930 . S
H929 C942 0.930 . S
H930 C946 0.959 . S
H931 C946 0.959 . S
H932 C946 0.961 . S
H933 C947 0.960 . S
H934 C947 0.961 . S
H935 C947 0.959 . S
H936 C950 0.929 . S
H937 C951 0.931 . S
H938 C953 0.930 . S
C939 H927 0.930 . S
C939 C940 1.399 . S
C939 C944 1.399 . S
C940 C939 1.399 . S
C940 C941 1.376 . S
C941 H928 0.930 . S
C941 C940 1.376 . S
C941 C942 1.388 . S
C942 H929 0.930 . S
C942 C941 1.388 . S
C942 C943 1.390 . S
C943 C942 1.390 . S
C943 C944 1.394 . S
C943 C949 1.465 . S
C944 C939 1.399 . S
C944 C943 1.394 . S
C944 C945 1.516 . S
C945 C944 1.516 . S
C945 C946 1.502 . S
C945 C947 1.561 . S
C945 C948 1.526 . S
C946 H930 0.959 . S
C946 H931 0.959 . S
C946 H932 0.961 . S
C946 C945 1.502 . S
C947 H933 0.960 . S
C947 H934 0.961 . S
C947 H935 0.959 . S
C947 C945 1.561 . S
C948 C945 1.526 . S
C948 C949 1.396 . S
C948 C953 1.390 . S
C949 C943 1.465 . S
C949 C948 1.396 . S
C949 C950 1.399 . S
C950 H936 0.929 . S
C950 C949 1.399 . S
C950 C951 1.385 . S
C951 H937 0.931 . S
C951 C950 1.385 . S
C951 C952 1.389 . S
C952 C951 1.389 . S
C952 C953 1.387 . S
C953 H938 0.930 . S
C953 C948 1.390 . S
C953 C952 1.387 . S
H954 C966 0.930 . S
H955 C968 0.930 . S
H956 C969 0.930 . S
H957 C973 0.959 . S
H958 C973 0.959 . S
H959 C973 0.961 . S
H960 C974 0.960 . S
H961 C974 0.961 . S
H962 C974 0.959 . S
H963 C977 0.929 . S
H964 C978 0.931 . S
H965 C980 0.930 . S
C966 H954 0.930 . S
C966 C967 1.399 . S
C966 C971 1.399 . S
C967 C966 1.399 . S
C967 C968 1.376 . S
C968 H955 0.930 . S
C968 C967 1.376 . S
C968 C969 1.388 . S
C969 H956 0.930 . S
C969 C968 1.388 . S
C969 C970 1.390 . S
C970 C969 1.390 . S
C970 C971 1.394 . S
C970 C976 1.465 . S
C971 C966 1.399 . S
C971 C970 1.394 . S
C971 C972 1.516 . S
C972 C971 1.516 . S
C972 C973 1.502 . S
C972 C974 1.561 1_565 S
C972 C975 1.526 . S
C973 H957 0.959 . S
C973 H958 0.959 . S
C973 H959 0.961 . S
C973 C972 1.502 . S
C974 H960 0.960 . S
C974 H961 0.961 . S
C974 H962 0.959 . S
C974 C972 1.561 1_545 S
C975 C972 1.526 . S
C975 C976 1.396 . S
C975 C980 1.390 . S
C976 C970 1.465 . S
C976 C975 1.396 . S
C976 C977 1.399 . S
C977 H963 0.929 . S
C977 C976 1.399 . S
C977 C978 1.385 . S
C978 H964 0.931 . S
C978 C977 1.385 . S
C978 C979 1.389 . S
C979 C978 1.389 . S
C979 C980 1.387 . S
C980 H965 0.930 . S
C980 C975 1.390 . S
C980 C979 1.387 . S
H981 C993 0.930 . S
H982 C995 0.930 . S
H983 C996 0.930 . S
H984 C1000 0.959 . S
H985 C1000 0.959 . S
H986 C1000 0.961 . S
H987 C1001 0.960 . S
H988 C1001 0.961 . S
H989 C1001 0.959 1_565 S
H990 C1004 0.929 . S
H991 C1005 0.931 . S
H992 C1007 0.930 . S
C993 H981 0.930 . S
C993 C994 1.418 . S
C993 C998 1.399 . S
C994 C993 1.418 . S
C994 C995 1.364 1_545 S
C995 H982 0.930 . S
C995 C994 1.364 1_565 S
C995 C996 1.388 . S
C996 H983 0.930 . S
C996 C995 1.388 . S
C996 C997 1.390 1_565 S
C997 C996 1.390 1_545 S
C997 C998 1.394 . S
C997 C1003 1.465 . S
C998 C993 1.399 . S
C998 C997 1.394 . S
C998 C999 1.516 . S
C999 C998 1.516 . S
C999 C1000 1.502 . S
C999 C1001 1.561 . S
C999 C1002 1.526 . S
C1000 H984 0.959 . S
C1000 H985 0.959 . S
C1000 H986 0.961 . S
C1000 C999 1.502 . S
C1001 H987 0.960 . S
C1001 H988 0.961 . S
C1001 H989 0.959 1_545 S
C1001 C999 1.561 . S
C1002 C999 1.526 . S
C1002 C1003 1.396 . S
C1002 C1007 1.390 . S
C1003 C997 1.465 . S
C1003 C1002 1.396 . S
C1003 C1004 1.399 . S
C1004 H990 0.929 . S
C1004 C1003 1.399 . S
C1004 C1005 1.385 . S
C1005 H991 0.931 . S
C1005 C1004 1.385 . S
C1005 C1006 1.389 . S
C1006 C1005 1.389 . S
C1006 C1007 1.387 . S
C1007 H992 0.930 . S
C1007 C1002 1.390 . S
C1007 C1006 1.387 . S
H1008 C1020 0.930 . S
H1009 C1022 0.930 . S
H1010 C1023 0.930 . S
H1011 C1027 0.959 . S
H1012 C1027 0.959 . S
H1013 C1027 0.961 . S
H1014 C1028 0.960 . S
H1015 C1028 0.961 . S
H1016 C1028 0.959 . S
H1017 C1031 0.929 . S
H1018 C1032 0.931 . S
H1019 C1034 0.930 . S
C1020 H1008 0.930 . S
C1020 C1021 1.399 . S
C1020 C1025 1.399 . S
C1021 C1020 1.399 . S
C1021 C1022 1.376 . S
C1022 H1009 0.930 . S
C1022 C1021 1.376 . S
C1022 C1023 1.388 . S
C1023 H1010 0.930 . S
C1023 C1022 1.388 . S
C1023 C1024 1.390 . S
C1024 C1023 1.390 . S
C1024 C1025 1.394 . S
C1024 C1030 1.465 . S
C1025 C1020 1.399 . S
C1025 C1024 1.394 . S
C1025 C1026 1.516 . S
C1026 C1025 1.516 . S
C1026 C1027 1.502 . S
C1026 C1028 1.561 . S
C1026 C1029 1.526 . S
C1027 H1011 0.959 . S
C1027 H1012 0.959 . S
C1027 H1013 0.961 . S
C1027 C1026 1.502 . S
C1028 H1014 0.960 . S
C1028 H1015 0.961 . S
C1028 H1016 0.959 . S
C1028 C1026 1.561 . S
C1029 C1026 1.526 . S
C1029 C1030 1.396 . S
C1029 C1034 1.390 . S
C1030 C1024 1.465 . S
C1030 C1029 1.396 . S
C1030 C1031 1.399 . S
C1031 H1017 0.929 . S
C1031 C1030 1.399 . S
C1031 C1032 1.385 . S
C1032 H1018 0.931 . S
C1032 C1031 1.385 . S
C1032 C1033 1.389 . S
C1033 C1032 1.389 . S
C1033 C1034 1.387 . S
C1034 H1019 0.930 . S
C1034 C1029 1.390 . S
C1034 C1033 1.387 . S
H1035 C1047 0.930 . S
H1036 C1049 0.930 . S
H1037 C1050 0.930 . S
H1038 C1054 0.959 . S
H1039 C1054 0.959 . S
H1040 C1054 0.961 . S
H1041 C1055 0.960 . S
H1042 C1055 0.961 . S
H1043 C1055 0.959 . S
H1044 C1058 0.929 . S
H1045 C1059 0.931 1_556 S
H1046 C1061 0.930 . S
C1047 H1035 0.930 . S
C1047 C1048 1.419 . S
C1047 C1052 1.399 . S
C1048 C1047 1.419 . S
C1048 C1049 1.359 1_554 S
C1049 H1036 0.930 . S
C1049 C1048 1.359 1_556 S
C1049 C1050 1.388 . S
C1050 H1037 0.930 . S
C1050 C1049 1.388 . S
C1050 C1051 1.390 1_556 S
C1051 C1050 1.390 1_554 S
C1051 C1052 1.394 . S
C1051 C1057 1.465 . S
C1052 C1047 1.399 . S
C1052 C1051 1.394 . S
C1052 C1053 1.516 . S
C1053 C1052 1.516 . S
C1053 C1054 1.502 . S
C1053 C1055 1.561 . S
C1053 C1056 1.526 . S
C1054 H1038 0.959 . S
C1054 H1039 0.959 . S
C1054 H1040 0.961 . S
C1054 C1053 1.502 . S
C1055 H1041 0.960 . S
C1055 H1042 0.961 . S
C1055 H1043 0.959 . S
C1055 C1053 1.561 . S
C1056 C1053 1.526 . S
C1056 C1057 1.396 . S
C1056 C1061 1.390 . S
C1057 C1051 1.465 . S
C1057 C1056 1.396 . S
C1057 C1058 1.399 1_554 S
C1058 H1044 0.929 . S
C1058 C1057 1.399 1_556 S
C1058 C1059 1.385 1_556 S
C1059 H1045 0.931 1_554 S
C1059 C1058 1.385 1_554 S
C1059 C1060 1.389 . S
C1060 C1059 1.389 . S
C1060 C1061 1.387 . S
C1061 H1046 0.930 . S
C1061 C1056 1.390 . S
C1061 C1060 1.387 . S
H1062 C1074 0.930 . S
H1063 C1076 0.930 . S
H1064 C1077 0.930 . S
H1065 C1081 0.959 . S
H1066 C1081 0.959 . S
H1067 C1081 0.961 . S
H1068 C1082 0.960 . S
H1069 C1082 0.961 . S
H1070 C1082 0.959 . S
H1071 C1085 0.929 . S
H1072 C1086 0.931 . S
H1073 C1088 0.930 . S
C1074 H1062 0.930 . S
C1074 C1075 1.399 . S
C1074 C1079 1.399 . S
C1075 C1074 1.399 . S
C1075 C1076 1.376 . S
C1076 H1063 0.930 . S
C1076 C1075 1.376 . S
C1076 C1077 1.388 . S
C1077 H1064 0.930 . S
C1077 C1076 1.388 . S
C1077 C1078 1.390 . S
C1078 C1077 1.390 . S
C1078 C1079 1.394 . S
C1078 C1084 1.465 . S
C1079 C1074 1.399 . S
C1079 C1078 1.394 . S
C1079 C1080 1.516 . S
C1080 C1079 1.516 . S
C1080 C1081 1.502 . S
C1080 C1082 1.561 . S
C1080 C1083 1.526 . S
C1081 H1065 0.959 . S
C1081 H1066 0.959 . S
C1081 H1067 0.961 . S
C1081 C1080 1.502 . S
C1082 H1068 0.960 . S
C1082 H1069 0.961 . S
C1082 H1070 0.959 . S
C1082 C1080 1.561 . S
C1083 C1080 1.526 . S
C1083 C1084 1.396 . S
C1083 C1088 1.390 . S
C1084 C1078 1.465 . S
C1084 C1083 1.396 . S
C1084 C1085 1.399 . S
C1085 H1071 0.929 . S
C1085 C1084 1.399 . S
C1085 C1086 1.385 . S
C1086 H1072 0.931 . S
C1086 C1085 1.385 . S
C1086 C1087 1.389 . S
C1087 C1086 1.389 . S
C1087 C1088 1.387 . S
C1088 H1073 0.930 . S
C1088 C1083 1.390 . S
C1088 C1087 1.387 . S
H1089 C1101 0.930 . S
H1090 C1103 0.930 . S
H1091 C1104 0.930 . S
H1092 C1108 0.959 . S
H1093 C1108 0.959 . S
H1094 C1108 0.961 . S
H1095 C1109 0.960 . S
H1096 C1109 0.961 . S
H1097 C1109 0.959 . S
H1098 C1112 0.929 . S
H1099 C1113 0.931 . S
H1100 C1115 0.930 1_554 S
C1101 H1089 0.930 . S
C1101 C1102 1.399 1_554 S
C1101 C1106 1.399 1_554 S
C1102 C1101 1.399 1_556 S
C1102 C1103 1.376 . S
C1103 H1090 0.930 . S
C1103 C1102 1.376 . S
C1103 C1104 1.388 . S
C1104 H1091 0.930 . S
C1104 C1103 1.388 . S
C1104 C1105 1.390 . S
C1105 C1104 1.390 . S
C1105 C1106 1.394 . S
C1105 C1111 1.465 . S
C1106 C1101 1.399 1_556 S
C1106 C1105 1.394 . S
C1106 C1107 1.516 1_556 S
C1107 C1106 1.516 1_554 S
C1107 C1108 1.502 . S
C1107 C1109 1.561 . S
C1107 C1110 1.526 1_554 S
C1108 H1092 0.959 . S
C1108 H1093 0.959 . S
C1108 H1094 0.961 . S
C1108 C1107 1.502 . S
C1109 H1095 0.960 . S
C1109 H1096 0.961 . S
C1109 H1097 0.959 . S
C1109 C1107 1.561 . S
C1110 C1107 1.526 1_556 S
C1110 C1111 1.396 . S
C1110 C1115 1.390 . S
C1111 C1105 1.465 . S
C1111 C1110 1.396 . S
C1111 C1112 1.399 . S
C1112 H1098 0.929 . S
C1112 C1111 1.399 . S
C1112 C1113 1.385 . S
C1113 H1099 0.931 . S
C1113 C1112 1.385 . S
C1113 C1114 1.389 . S
C1114 C1113 1.389 . S
C1114 C1115 1.387 . S
C1115 H1100 0.930 1_556 S
C1115 C1110 1.390 . S
C1115 C1114 1.387 . S
H1116 C1128 0.930 . S
H1117 C1130 0.930 . S
H1118 C1131 0.930 . S
H1119 C1135 0.959 . S
H1120 C1135 0.959 . S
H1121 C1135 0.961 . S
H1122 C1136 0.960 . S
H1123 C1136 0.961 . S
H1124 C1136 0.959 . S
H1125 C1139 0.929 . S
H1126 C1140 0.931 . S
H1127 C1142 0.930 . S
C1128 H1116 0.930 . S
C1128 C1129 1.399 . S
C1128 C1133 1.399 . S
C1129 C1128 1.399 . S
C1129 C1130 1.376 . S
C1130 H1117 0.930 . S
C1130 C1129 1.376 . S
C1130 C1131 1.388 . S
C1131 H1118 0.930 . S
C1131 C1130 1.388 . S
C1131 C1132 1.390 . S
C1132 C1131 1.390 . S
C1132 C1133 1.394 . S
C1132 C1138 1.465 . S
C1133 C1128 1.399 . S
C1133 C1132 1.394 . S
C1133 C1134 1.516 . S
C1134 C1133 1.516 . S
C1134 C1135 1.502 . S
C1134 C1136 1.561 . S
C1134 C1137 1.526 . S
C1135 H1119 0.959 . S
C1135 H1120 0.959 . S
C1135 H1121 0.961 . S
C1135 C1134 1.502 . S
C1136 H1122 0.960 . S
C1136 H1123 0.961 . S
C1136 H1124 0.959 . S
C1136 C1134 1.561 . S
C1137 C1134 1.526 . S
C1137 C1138 1.396 . S
C1137 C1142 1.390 . S
C1138 C1132 1.465 . S
C1138 C1137 1.396 . S
C1138 C1139 1.399 . S
C1139 H1125 0.929 . S
C1139 C1138 1.399 . S
C1139 C1140 1.385 . S
C1140 H1126 0.931 . S
C1140 C1139 1.385 . S
C1140 C1141 1.389 . S
C1141 C1140 1.389 . S
C1141 C1142 1.387 . S
C1142 H1127 0.930 . S
C1142 C1137 1.390 . S
C1142 C1141 1.387 . S
H1143 C1155 0.905 1_655 S
H1144 C1157 0.930 . S
H1145 C1158 0.930 . S
H1146 C1162 0.959 . S
H1147 C1162 0.959 . S
H1148 C1162 0.961 . S
H1149 C1163 0.960 . S
H1150 C1163 0.961 . S
H1151 C1163 0.959 . S
H1152 C1166 0.929 . S
H1153 C1167 0.931 . S
H1154 C1169 0.930 . S
C1155 H1143 0.905 1_455 S
C1155 C1156 1.406 . S
C1155 C1160 1.419 . S
C1156 C1155 1.406 . S
C1156 C1157 1.376 . S
C1157 H1144 0.930 . S
C1157 C1156 1.376 . S
C1157 C1158 1.388 . S
C1158 H1145 0.930 . S
C1158 C1157 1.388 . S
C1158 C1159 1.390 . S
C1159 C1158 1.390 . S
C1159 C1160 1.394 . S
C1159 C1165 1.465 . S
C1160 C1155 1.419 . S
C1160 C1159 1.394 . S
C1160 C1161 1.516 . S
C1161 C1160 1.516 . S
C1161 C1162 1.502 1_455 S
C1161 C1163 1.561 . S
C1161 C1164 1.526 . S
C1162 H1146 0.959 . S
C1162 H1147 0.959 . S
C1162 H1148 0.961 . S
C1162 C1161 1.502 1_655 S
C1163 H1149 0.960 . S
C1163 H1150 0.961 . S
C1163 H1151 0.959 . S
C1163 C1161 1.561 . S
C1164 C1161 1.526 . S
C1164 C1165 1.396 . S
C1164 C1169 1.390 . S
C1165 C1159 1.465 . S
C1165 C1164 1.396 . S
C1165 C1166 1.399 . S
C1166 H1152 0.929 . S
C1166 C1165 1.399 . S
C1166 C1167 1.385 . S
C1167 H1153 0.931 . S
C1167 C1166 1.385 . S
C1167 C1168 1.389 . S
C1168 C1167 1.389 . S
C1168 C1169 1.387 . S
C1169 H1154 0.930 . S
C1169 C1164 1.390 . S
C1169 C1168 1.387 . S
H1170 C1182 0.930 . S
H1171 C1184 0.930 . S
H1172 C1185 0.930 . S
H1173 C1189 0.959 . S
H1174 C1189 0.959 . S
H1175 C1189 0.961 . S
H1176 C1190 0.960 . S
H1177 C1190 0.961 . S
H1178 C1190 0.959 . S
H1179 C1193 0.929 . S
H1180 C1194 0.931 . S
H1181 C1196 0.930 . S
C1182 H1170 0.930 . S
C1182 C1183 1.399 . S
C1182 C1187 1.399 . S
C1183 C1182 1.399 . S
C1183 C1184 1.376 . S
C1184 H1171 0.930 . S
C1184 C1183 1.376 . S
C1184 C1185 1.388 . S
C1185 H1172 0.930 . S
C1185 C1184 1.388 . S
C1185 C1186 1.390 . S
C1186 C1185 1.390 . S
C1186 C1187 1.394 . S
C1186 C1192 1.465 . S
C1187 C1182 1.399 . S
C1187 C1186 1.394 . S
C1187 C1188 1.516 . S
C1188 C1187 1.516 . S
C1188 C1189 1.502 . S
C1188 C1190 1.561 . S
C1188 C1191 1.526 . S
C1189 H1173 0.959 . S
C1189 H1174 0.959 . S
C1189 H1175 0.961 . S
C1189 C1188 1.502 . S
C1190 H1176 0.960 . S
C1190 H1177 0.961 . S
C1190 H1178 0.959 . S
C1190 C1188 1.561 . S
C1191 C1188 1.526 . S
C1191 C1192 1.396 . S
C1191 C1196 1.390 . S
C1192 C1186 1.465 . S
C1192 C1191 1.396 . S
C1192 C1193 1.399 . S
C1193 H1179 0.929 . S
C1193 C1192 1.399 . S
C1193 C1194 1.385 . S
C1194 H1180 0.931 . S
C1194 C1193 1.385 . S
C1194 C1195 1.389 . S
C1195 C1194 1.389 . S
C1195 C1196 1.387 . S
C1196 H1181 0.930 . S
C1196 C1191 1.390 . S
C1196 C1195 1.387 . S
H1197 C1209 0.930 . S
H1198 C1211 0.930 . S
H1199 C1212 0.930 . S
H1200 C1216 0.959 . S
H1201 C1216 0.959 . S
H1202 C1216 0.961 . S
H1203 C1217 0.960 . S
H1204 C1217 0.961 . S
H1205 C1217 0.998 . S
H1206 C1220 0.929 1_455 S
H1207 C1221 0.931 . S
H1208 C1223 0.930 . S
C1209 H1197 0.930 . S
C1209 C1210 1.399 . S
C1209 C1214 1.399 . S
C1210 C1209 1.399 . S
C1210 C1211 1.376 1_655 S
C1211 H1198 0.930 . S
C1211 C1210 1.376 1_455 S
C1211 C1212 1.388 . S
C1212 H1199 0.930 . S
C1212 C1211 1.388 . S
C1212 C1213 1.390 1_455 S
C1213 C1212 1.390 1_655 S
C1213 C1214 1.394 . S
C1213 C1219 1.465 . S
C1214 C1209 1.399 . S
C1214 C1213 1.394 . S
C1214 C1215 1.516 . S
C1215 C1214 1.516 . S
C1215 C1216 1.502 . S
C1215 C1217 1.561 . S
C1215 C1218 1.526 . S
C1216 H1200 0.959 . S
C1216 H1201 0.959 . S
C1216 H1202 0.961 . S
C1216 C1215 1.502 . S
C1217 H1203 0.960 . S
C1217 H1204 0.961 . S
C1217 H1205 0.998 . S
C1217 C1215 1.561 . S
C1218 C1215 1.526 . S
C1218 C1219 1.396 . S
C1218 C1223 1.390 . S
C1219 C1213 1.465 . S
C1219 C1218 1.396 . S
C1219 C1220 1.399 . S
C1220 H1206 0.929 1_655 S
C1220 C1219 1.399 . S
C1220 C1221 1.385 . S
C1221 H1207 0.931 . S
C1221 C1220 1.385 . S
C1221 C1222 1.389 . S
C1222 C1221 1.389 . S
C1222 C1223 1.387 . S
C1223 H1208 0.930 . S
C1223 C1218 1.390 . S
C1223 C1222 1.387 . S
H1224 C1236 0.930 . S
H1225 C1238 0.930 . S
H1226 C1239 0.930 . S
H1227 C1243 0.959 . S
H1228 C1243 0.959 . S
H1229 C1243 0.961 . S
H1230 C1244 0.960 . S
H1231 C1244 0.961 . S
H1232 C1244 0.959 . S
H1233 C1247 0.929 . S
H1234 C1248 0.931 . S
H1235 C1250 0.930 . S
C1236 H1224 0.930 . S
C1236 C1237 1.399 . S
C1236 C1241 1.399 . S
C1237 C1236 1.399 . S
C1237 C1238 1.376 . S
C1238 H1225 0.930 . S
C1238 C1237 1.376 . S
C1238 C1239 1.388 . S
C1239 H1226 0.930 . S
C1239 C1238 1.388 . S
C1239 C1240 1.390 . S
C1240 C1239 1.390 . S
C1240 C1241 1.394 . S
C1240 C1246 1.465 . S
C1241 C1236 1.399 . S
C1241 C1240 1.394 . S
C1241 C1242 1.516 . S
C1242 C1241 1.516 . S
C1242 C1243 1.502 . S
C1242 C1244 1.561 . S
C1242 C1245 1.526 . S
C1243 H1227 0.959 . S
C1243 H1228 0.959 . S
C1243 H1229 0.961 . S
C1243 C1242 1.502 . S
C1244 H1230 0.960 . S
C1244 H1231 0.961 . S
C1244 H1232 0.959 . S
C1244 C1242 1.561 . S
C1245 C1242 1.526 . S
C1245 C1246 1.396 . S
C1245 C1250 1.390 . S
C1246 C1240 1.465 . S
C1246 C1245 1.396 . S
C1246 C1247 1.399 . S
C1247 H1233 0.929 . S
C1247 C1246 1.399 . S
C1247 C1248 1.385 . S
C1248 H1234 0.931 . S
C1248 C1247 1.385 . S
C1248 C1249 1.389 . S
C1249 C1248 1.389 . S
C1249 C1250 1.387 . S
C1250 H1235 0.930 . S
C1250 C1245 1.390 . S
C1250 C1249 1.387 . S
H1251 C1263 0.930 . S
H1252 C1265 0.930 . S
H1253 C1266 0.930 . S
H1254 C1270 0.959 . S
H1255 C1270 0.959 . S
H1256 C1270 0.961 . S
H1257 C1271 0.960 . S
H1258 C1271 0.961 . S
H1259 C1271 0.959 . S
H1260 C1274 0.929 . S
H1261 C1275 0.931 . S
H1262 C1277 0.930 . S
C1263 H1251 0.930 . S
C1263 C1264 1.399 . S
C1263 C1268 1.399 . S
C1264 C1263 1.399 . S
C1264 C1265 1.376 . S
C1265 H1252 0.930 . S
C1265 C1264 1.376 . S
C1265 C1266 1.388 . S
C1266 H1253 0.930 . S
C1266 C1265 1.388 . S
C1266 C1267 1.390 . S
C1267 C1266 1.390 . S
C1267 C1268 1.394 . S
C1267 C1273 1.465 . S
C1268 C1263 1.399 . S
C1268 C1267 1.394 . S
C1268 C1269 1.516 . S
C1269 C1268 1.516 . S
C1269 C1270 1.502 . S
C1269 C1271 1.561 . S
C1269 C1272 1.526 . S
C1270 H1254 0.959 . S
C1270 H1255 0.959 . S
C1270 H1256 0.961 . S
C1270 C1269 1.502 . S
C1271 H1257 0.960 . S
C1271 H1258 0.961 . S
C1271 H1259 0.959 . S
C1271 C1269 1.561 . S
C1272 C1269 1.526 . S
C1272 C1273 1.396 . S
C1272 C1277 1.390 . S
C1273 C1267 1.465 . S
C1273 C1272 1.396 . S
C1273 C1274 1.399 . S
C1274 H1260 0.929 . S
C1274 C1273 1.399 . S
C1274 C1275 1.385 . S
C1275 H1261 0.931 . S
C1275 C1274 1.385 . S
C1275 C1276 1.389 . S
C1276 C1275 1.389 . S
C1276 C1277 1.387 . S
C1277 H1262 0.930 . S
C1277 C1272 1.390 . S
C1277 C1276 1.387 . S
H1278 C1290 0.930 . S
H1279 C1292 0.930 . S
H1280 C1293 0.930 . S
H1281 C1297 0.959 . S
H1282 C1297 0.959 . S
H1283 C1297 0.961 . S
H1284 C1298 0.960 . S
H1285 C1298 0.961 . S
H1286 C1298 0.959 . S
H1287 C1301 0.929 . S
H1288 C1302 0.931 . S
H1289 C1304 0.930 . S
C1290 H1278 0.930 . S
C1290 C1291 1.399 1_545 S
C1290 C1295 1.399 . S
C1291 C1290 1.399 1_565 S
C1291 C1292 1.376 . S
C1292 H1279 0.930 . S
C1292 C1291 1.376 . S
C1292 C1293 1.388 . S
C1293 H1280 0.930 . S
C1293 C1292 1.388 . S
C1293 C1294 1.390 . S
C1294 C1293 1.390 . S
C1294 C1295 1.394 1_565 S
C1294 C1300 1.465 . S
C1295 C1290 1.399 . S
C1295 C1294 1.394 1_545 S
C1295 C1296 1.516 . S
C1296 C1295 1.516 . S
C1296 C1297 1.502 . S
C1296 C1298 1.561 . S
C1296 C1299 1.526 . S
C1297 H1281 0.959 . S
C1297 H1282 0.959 . S
C1297 H1283 0.961 . S
C1297 C1296 1.502 . S
C1298 H1284 0.960 . S
C1298 H1285 0.961 . S
C1298 H1286 0.959 . S
C1298 C1296 1.561 . S
C1299 C1296 1.526 . S
C1299 C1300 1.396 1_545 S
C1299 C1304 1.390 . S
C1300 C1294 1.465 . S
C1300 C1299 1.396 1_565 S
C1300 C1301 1.399 . S
C1301 H1287 0.929 . S
C1301 C1300 1.399 . S
C1301 C1302 1.385 . S
C1302 H1288 0.931 . S
C1302 C1301 1.385 . S
C1302 C1303 1.389 . S
C1303 C1302 1.389 . S
C1303 C1304 1.387 1_565 S
C1304 H1289 0.930 . S
C1304 C1299 1.390 . S
C1304 C1303 1.387 1_545 S
H1305 C1317 0.930 . S
H1306 C1319 0.930 . S
H1307 C1320 0.930 . S
H1308 C1324 0.959 . S
H1309 C1324 0.959 . S
H1310 C1324 0.961 . S
H1311 C1325 0.960 . S
H1312 C1325 0.961 . S
H1313 C1325 0.959 . S
H1314 C1328 0.929 . S
H1315 C1329 0.931 1_545 S
H1316 C1331 0.930 . S
C1317 H1305 0.930 . S
C1317 C1318 1.399 1_565 S
C1317 C1322 1.399 . S
C1318 C1317 1.399 1_545 S
C1318 C1319 1.376 . S
C1319 H1306 0.930 . S
C1319 C1318 1.376 . S
C1319 C1320 1.388 . S
C1320 H1307 0.930 . S
C1320 C1319 1.388 . S
C1320 C1321 1.390 1_545 S
C1321 C1320 1.390 1_565 S
C1321 C1322 1.394 . S
C1321 C1327 1.465 . S
C1322 C1317 1.399 . S
C1322 C1321 1.394 . S
C1322 C1323 1.516 . S
C1323 C1322 1.516 . S
C1323 C1324 1.502 . S
C1323 C1325 1.561 . S
C1323 C1326 1.526 . S
C1324 H1308 0.959 . S
C1324 H1309 0.959 . S
C1324 H1310 0.961 . S
C1324 C1323 1.502 . S
C1325 H1311 0.960 . S
C1325 H1312 0.961 . S
C1325 H1313 0.959 . S
C1325 C1323 1.561 . S
C1326 C1323 1.526 . S
C1326 C1327 1.396 . S
C1326 C1331 1.390 . S
C1327 C1321 1.465 . S
C1327 C1326 1.396 . S
C1327 C1328 1.399 1_565 S
C1328 H1314 0.929 . S
C1328 C1327 1.399 1_545 S
C1328 C1329 1.385 1_545 S
C1329 H1315 0.931 1_565 S
C1329 C1328 1.385 1_565 S
C1329 C1330 1.389 . S
C1330 C1329 1.389 . S
C1330 C1331 1.387 . S
C1331 H1316 0.930 . S
C1331 C1326 1.390 . S
C1331 C1330 1.387 . S
H1332 C1344 0.930 . S
H1333 C1346 0.930 . S
H1334 C1347 0.930 . S
H1335 C1351 0.959 . S
H1336 C1351 0.959 . S
H1337 C1351 0.961 . S
H1338 C1352 0.960 . S
H1339 C1352 0.961 . S
H1340 C1352 0.959 . S
H1341 C1355 0.929 . S
H1342 C1356 0.931 . S
H1343 C1358 0.930 . S
C1344 H1332 0.930 . S
C1344 C1345 1.399 . S
C1344 C1349 1.399 . S
C1345 C1344 1.399 . S
C1345 C1346 1.376 . S
C1346 H1333 0.930 . S
C1346 C1345 1.376 . S
C1346 C1347 1.388 . S
C1347 H1334 0.930 . S
C1347 C1346 1.388 . S
C1347 C1348 1.390 . S
C1348 C1347 1.390 . S
C1348 C1349 1.394 . S
C1348 C1354 1.465 . S
C1349 C1344 1.399 . S
C1349 C1348 1.394 . S
C1349 C1350 1.516 . S
C1350 C1349 1.516 . S
C1350 C1351 1.502 . S
C1350 C1352 1.561 . S
C1350 C1353 1.526 . S
C1351 H1335 0.959 . S
C1351 H1336 0.959 . S
C1351 H1337 0.961 . S
C1351 C1350 1.502 . S
C1352 H1338 0.960 . S
C1352 H1339 0.961 . S
C1352 H1340 0.959 . S
C1352 C1350 1.561 . S
C1353 C1350 1.526 . S
C1353 C1354 1.396 . S
C1353 C1358 1.390 . S
C1354 C1348 1.465 . S
C1354 C1353 1.396 . S
C1354 C1355 1.399 . S
C1355 H1341 0.929 . S
C1355 C1354 1.399 . S
C1355 C1356 1.385 . S
C1356 H1342 0.931 . S
C1356 C1355 1.385 . S
C1356 C1357 1.389 . S
C1357 C1356 1.389 . S
C1357 C1358 1.387 . S
C1358 H1343 0.930 . S
C1358 C1353 1.390 . S
C1358 C1357 1.387 . S
H1359 C1371 0.930 . S
H1360 C1373 0.930 . S
H1361 C1374 0.930 . S
H1362 C1378 0.959 . S
H1363 C1378 0.959 . S
H1364 C1378 0.961 . S
H1365 C1379 0.960 . S
H1366 C1379 0.961 . S
H1367 C1379 0.959 . S
H1368 C1382 0.929 . S
H1369 C1383 0.931 . S
H1370 C1385 0.930 . S
C1371 H1359 0.930 . S
C1371 C1372 1.400 . S
C1371 C1376 1.399 1_554 S
C1372 C1371 1.400 . S
C1372 C1373 1.374 1_554 S
C1373 H1360 0.930 . S
C1373 C1372 1.374 1_556 S
C1373 C1374 1.388 . S
C1374 H1361 0.930 . S
C1374 C1373 1.388 . S
C1374 C1375 1.390 . S
C1375 C1374 1.390 . S
C1375 C1376 1.394 . S
C1375 C1381 1.465 . S
C1376 C1371 1.399 1_556 S
C1376 C1375 1.394 . S
C1376 C1377 1.516 . S
C1377 C1376 1.516 . S
C1377 C1378 1.502 . S
C1377 C1379 1.561 1_556 S
C1377 C1380 1.526 . S
C1378 H1362 0.959 . S
C1378 H1363 0.959 . S
C1378 H1364 0.961 . S
C1378 C1377 1.502 . S
C1379 H1365 0.960 . S
C1379 H1366 0.961 . S
C1379 H1367 0.959 . S
C1379 C1377 1.561 1_554 S
C1380 C1377 1.526 . S
C1380 C1381 1.396 . S
C1380 C1385 1.390 . S
C1381 C1375 1.465 . S
C1381 C1380 1.396 . S
C1381 C1382 1.399 . S
C1382 H1368 0.929 . S
C1382 C1381 1.399 . S
C1382 C1383 1.385 . S
C1383 H1369 0.931 . S
C1383 C1382 1.385 . S
C1383 C1384 1.389 . S
C1384 C1383 1.389 . S
C1384 C1385 1.387 . S
C1385 H1370 0.930 . S
C1385 C1380 1.390 . S
C1385 C1384 1.387 . S
H1386 C1398 0.930 . S
H1387 C1400 0.930 . S
H1388 C1401 0.930 . S
H1389 C1405 0.959 . S
H1390 C1405 0.959 . S
H1391 C1405 0.961 . S
H1392 C1406 0.960 . S
H1393 C1406 0.961 . S
H1394 C1406 0.959 . S
H1395 C1409 0.929 . S
H1396 C1410 0.931 . S
H1397 C1412 0.930 . S
C1398 H1386 0.930 . S
C1398 C1399 1.399 . S
C1398 C1403 1.399 . S
C1399 C1398 1.399 . S
C1399 C1400 1.376 . S
C1400 H1387 0.930 . S
C1400 C1399 1.376 . S
C1400 C1401 1.388 . S
C1401 H1388 0.930 . S
C1401 C1400 1.388 . S
C1401 C1402 1.390 . S
C1402 C1401 1.390 . S
C1402 C1403 1.394 . S
C1402 C1408 1.465 . S
C1403 C1398 1.399 . S
C1403 C1402 1.394 . S
C1403 C1404 1.516 . S
C1404 C1403 1.516 . S
C1404 C1405 1.502 . S
C1404 C1406 1.561 . S
C1404 C1407 1.526 . S
C1405 H1389 0.959 . S
C1405 H1390 0.959 . S
C1405 H1391 0.961 . S
C1405 C1404 1.502 . S
C1406 H1392 0.960 . S
C1406 H1393 0.961 . S
C1406 H1394 0.959 . S
C1406 C1404 1.561 . S
C1407 C1404 1.526 . S
C1407 C1408 1.396 . S
C1407 C1412 1.390 . S
C1408 C1402 1.465 . S
C1408 C1407 1.396 . S
C1408 C1409 1.399 . S
C1409 H1395 0.929 . S
C1409 C1408 1.399 . S
C1409 C1410 1.385 . S
C1410 H1396 0.931 . S
C1410 C1409 1.385 . S
C1410 C1411 1.389 . S
C1411 C1410 1.389 . S
C1411 C1412 1.387 . S
C1412 H1397 0.930 . S
C1412 C1407 1.390 . S
C1412 C1411 1.387 . S
H1413 C1425 0.928 . S
H1414 C1427 0.930 . S
H1415 C1428 0.930 . S
H1416 C1432 0.959 . S
H1417 C1432 0.959 . S
H1418 C1432 0.961 . S
H1419 C1433 0.960 . S
H1420 C1433 0.961 . S
H1421 C1433 0.959 . S
H1422 C1436 0.929 . S
H1423 C1437 0.931 . S
H1424 C1439 0.930 . S
C1425 H1413 0.928 . S
C1425 C1426 1.401 1_554 S
C1425 C1430 1.399 1_554 S
C1426 C1425 1.401 1_556 S
C1426 C1427 1.376 . S
C1427 H1414 0.930 . S
C1427 C1426 1.376 . S
C1427 C1428 1.388 . S
C1428 H1415 0.930 . S
C1428 C1427 1.388 . S
C1428 C1429 1.390 . S
C1429 C1428 1.390 . S
C1429 C1430 1.394 . S
C1429 C1435 1.465 . S
C1430 C1425 1.399 1_556 S
C1430 C1429 1.394 . S
C1430 C1431 1.516 1_556 S
C1431 C1430 1.516 1_554 S
C1431 C1432 1.502 . S
C1431 C1433 1.561 1_554 S
C1431 C1434 1.522 1_554 S
C1432 H1416 0.959 . S
C1432 H1417 0.959 . S
C1432 H1418 0.961 . S
C1432 C1431 1.502 . S
C1433 H1419 0.960 . S
C1433 H1420 0.961 . S
C1433 H1421 0.959 . S
C1433 C1431 1.561 1_556 S
C1434 C1431 1.522 1_556 S
C1434 C1435 1.413 . S
C1434 C1439 1.381 1_556 S
C1435 C1429 1.465 . S
C1435 C1434 1.413 . S
C1435 C1436 1.399 . S
C1436 H1422 0.929 . S
C1436 C1435 1.399 . S
C1436 C1437 1.385 . S
C1437 H1423 0.931 . S
C1437 C1436 1.385 . S
C1437 C1438 1.389 . S
C1438 C1437 1.389 . S
C1438 C1439 1.387 1_556 S
C1439 H1424 0.930 . S
C1439 C1434 1.381 1_554 S
C1439 C1438 1.387 1_554 S
H1440 C1452 0.930 . S
H1441 C1454 0.930 . S
H1442 C1455 0.930 . S
H1443 C1459 0.959 . S
H1444 C1459 0.959 . S
H1445 C1459 0.961 . S
H1446 C1460 0.960 . S
H1447 C1460 0.961 . S
H1448 C1460 0.959 . S
H1449 C1463 0.929 . S
H1450 C1464 0.931 . S
H1451 C1466 0.930 . S
C1452 H1440 0.930 . S
C1452 C1453 1.399 . S
C1452 C1457 1.399 . S
C1453 C1452 1.399 . S
C1453 C1454 1.376 . S
C1454 H1441 0.930 . S
C1454 C1453 1.376 . S
C1454 C1455 1.388 . S
C1455 H1442 0.930 . S
C1455 C1454 1.388 . S
C1455 C1456 1.390 . S
C1456 C1455 1.390 . S
C1456 C1457 1.394 . S
C1456 C1462 1.465 . S
C1457 C1452 1.399 . S
C1457 C1456 1.394 . S
C1457 C1458 1.516 . S
C1458 C1457 1.516 . S
C1458 C1459 1.502 . S
C1458 C1460 1.561 . S
C1458 C1461 1.526 . S
C1459 H1443 0.959 . S
C1459 H1444 0.959 . S
C1459 H1445 0.961 . S
C1459 C1458 1.502 . S
C1460 H1446 0.960 . S
C1460 H1447 0.961 . S
C1460 H1448 0.959 . S
C1460 C1458 1.561 . S
C1461 C1458 1.526 . S
C1461 C1462 1.396 . S
C1461 C1466 1.390 . S
C1462 C1456 1.465 . S
C1462 C1461 1.396 . S
C1462 C1463 1.399 . S
C1463 H1449 0.929 . S
C1463 C1462 1.399 . S
C1463 C1464 1.385 . S
C1464 H1450 0.931 . S
C1464 C1463 1.385 . S
C1464 C1465 1.389 . S
C1465 C1464 1.389 . S
C1465 C1466 1.387 . S
C1466 H1451 0.930 . S
C1466 C1461 1.390 . S
C1466 C1465 1.387 . S
H1467 C1479 0.930 . S
H1468 C1481 0.930 . S
H1469 C1482 0.930 . S
H1470 C1486 0.959 . S
H1471 C1486 0.959 . S
H1472 C1486 0.961 . S
H1473 C1487 0.960 . S
H1474 C1487 0.962 . S
H1475 C1487 0.959 . S
H1476 C1490 0.929 . S
H1477 C1491 0.931 . S
H1478 C1493 0.930 . S
C1479 H1467 0.930 . S
C1479 C1480 1.399 1_655 S
C1479 C1484 1.399 . S
C1480 C1479 1.399 1_455 S
C1480 C1481 1.376 . S
C1481 H1468 0.930 . S
C1481 C1480 1.376 . S
C1481 C1482 1.388 . S
C1482 H1469 0.930 . S
C1482 C1481 1.388 . S
C1482 C1483 1.390 1_455 S
C1483 C1482 1.390 1_655 S
C1483 C1484 1.394 . S
C1483 C1489 1.465 . S
C1484 C1479 1.399 . S
C1484 C1483 1.394 . S
C1484 C1485 1.516 . S
C1485 C1484 1.516 . S
C1485 C1486 1.502 . S
C1485 C1487 1.561 1_655 S
C1485 C1488 1.526 . S
C1486 H1470 0.959 . S
C1486 H1471 0.959 . S
C1486 H1472 0.961 . S
C1486 C1485 1.502 . S
C1487 H1473 0.960 . S
C1487 H1474 0.962 . S
C1487 H1475 0.959 . S
C1487 C1485 1.561 1_455 S
C1488 C1485 1.526 . S
C1488 C1489 1.396 . S
C1488 C1493 1.390 . S
C1489 C1483 1.465 . S
C1489 C1488 1.396 . S
C1489 C1490 1.399 . S
C1490 H1476 0.929 . S
C1490 C1489 1.399 . S
C1490 C1491 1.385 . S
C1491 H1477 0.931 . S
C1491 C1490 1.385 . S
C1491 C1492 1.389 . S
C1492 C1491 1.389 . S
C1492 C1493 1.387 . S
C1493 H1478 0.930 . S
C1493 C1488 1.390 . S
C1493 C1492 1.387 . S
H1494 C1506 0.930 . S
H1495 C1508 0.930 . S
H1496 C1509 0.930 . S
H1497 C1513 0.959 . S
H1498 C1513 0.959 . S
H1499 C1513 0.961 . S
H1500 C1514 0.960 . S
H1501 C1514 0.961 . S
H1502 C1514 0.959 . S
H1503 C1517 0.929 . S
H1504 C1518 0.931 . S
H1505 C1520 0.930 . S
C1506 H1494 0.930 . S
C1506 C1507 1.399 . S
C1506 C1511 1.399 . S
C1507 C1506 1.399 . S
C1507 C1508 1.376 . S
C1508 H1495 0.930 . S
C1508 C1507 1.376 . S
C1508 C1509 1.388 . S
C1509 H1496 0.930 . S
C1509 C1508 1.388 . S
C1509 C1510 1.390 . S
C1510 C1509 1.390 . S
C1510 C1511 1.394 . S
C1510 C1516 1.465 . S
C1511 C1506 1.399 . S
C1511 C1510 1.394 . S
C1511 C1512 1.516 . S
C1512 C1511 1.516 . S
C1512 C1513 1.502 . S
C1512 C1514 1.561 . S
C1512 C1515 1.526 . S
C1513 H1497 0.959 . S
C1513 H1498 0.959 . S
C1513 H1499 0.961 . S
C1513 C1512 1.502 . S
C1514 H1500 0.960 . S
C1514 H1501 0.961 . S
C1514 H1502 0.959 . S
C1514 C1512 1.561 . S
C1515 C1512 1.526 . S
C1515 C1516 1.396 . S
C1515 C1520 1.390 . S
C1516 C1510 1.465 . S
C1516 C1515 1.396 . S
C1516 C1517 1.399 . S
C1517 H1503 0.929 . S
C1517 C1516 1.399 . S
C1517 C1518 1.385 . S
C1518 H1504 0.931 . S
C1518 C1517 1.385 . S
C1518 C1519 1.389 . S
C1519 C1518 1.389 . S
C1519 C1520 1.387 . S
C1520 H1505 0.930 . S
C1520 C1515 1.390 . S
C1520 C1519 1.387 . S
H1521 C1533 0.930 . S
H1522 C1535 0.930 . S
H1523 C1536 0.930 . S
H1524 C1540 0.959 . S
H1525 C1540 0.959 . S
H1526 C1540 0.961 . S
H1527 C1541 0.960 1_655 S
H1528 C1541 0.961 1_655 S
H1529 C1541 0.959 . S
H1530 C1544 0.929 . S
H1531 C1545 0.931 . S
H1532 C1547 0.930 . S
C1533 H1521 0.930 . S
C1533 C1534 1.399 . S
C1533 C1538 1.399 . S
C1534 C1533 1.399 . S
C1534 C1535 1.376 1_655 S
C1535 H1522 0.930 . S
C1535 C1534 1.376 1_455 S
C1535 C1536 1.388 . S
C1536 H1523 0.930 . S
C1536 C1535 1.388 . S
C1536 C1537 1.390 . S
C1537 C1536 1.390 . S
C1537 C1538 1.394 1_455 S
C1537 C1543 1.465 . S
C1538 C1533 1.399 . S
C1538 C1537 1.394 1_655 S
C1538 C1539 1.516 . S
C1539 C1538 1.516 . S
C1539 C1540 1.502 . S
C1539 C1541 1.561 1_655 S
C1539 C1542 1.526 . S
C1540 H1524 0.959 . S
C1540 H1525 0.959 . S
C1540 H1526 0.961 . S
C1540 C1539 1.502 . S
C1541 H1527 0.960 1_455 S
C1541 H1528 0.961 1_455 S
C1541 H1529 0.959 . S
C1541 C1539 1.561 1_455 S
C1542 C1539 1.526 . S
C1542 C1543 1.396 1_655 S
C1542 C1547 1.390 . S
C1543 C1537 1.465 . S
C1543 C1542 1.396 1_455 S
C1543 C1544 1.399 . S
C1544 H1530 0.929 . S
C1544 C1543 1.399 . S
C1544 C1545 1.385 . S
C1545 H1531 0.931 . S
C1545 C1544 1.385 . S
C1545 C1546 1.389 1_455 S
C1546 C1545 1.389 1_655 S
C1546 C1547 1.387 . S
C1547 H1532 0.930 . S
C1547 C1542 1.390 . S
C1547 C1546 1.387 . S
H1548 C1560 0.930 . S
H1549 C1562 0.930 . S
H1550 C1563 0.930 . S
H1551 C1567 0.959 . S
H1552 C1567 0.959 . S
H1553 C1567 0.961 . S
H1554 C1568 0.960 . S
H1555 C1568 0.961 . S
H1556 C1568 0.959 . S
H1557 C1571 0.929 . S
H1558 C1572 0.931 . S
H1559 C1574 0.930 . S
C1560 H1548 0.930 . S
C1560 C1561 1.399 . S
C1560 C1565 1.399 . S
C1561 C1560 1.399 . S
C1561 C1562 1.376 . S
C1562 H1549 0.930 . S
C1562 C1561 1.376 . S
C1562 C1563 1.388 . S
C1563 H1550 0.930 . S
C1563 C1562 1.388 . S
C1563 C1564 1.390 . S
C1564 C1563 1.390 . S
C1564 C1565 1.394 . S
C1564 C1570 1.465 . S
C1565 C1560 1.399 . S
C1565 C1564 1.394 . S
C1565 C1566 1.516 . S
C1566 C1565 1.516 . S
C1566 C1567 1.502 . S
C1566 C1568 1.561 . S
C1566 C1569 1.526 . S
C1567 H1551 0.959 . S
C1567 H1552 0.959 . S
C1567 H1553 0.961 . S
C1567 C1566 1.502 . S
C1568 H1554 0.960 . S
C1568 H1555 0.961 . S
C1568 H1556 0.959 . S
C1568 C1566 1.561 . S
C1569 C1566 1.526 . S
C1569 C1570 1.396 . S
C1569 C1574 1.390 . S
C1570 C1564 1.465 . S
C1570 C1569 1.396 . S
C1570 C1571 1.399 . S
C1571 H1557 0.929 . S
C1571 C1570 1.399 . S
C1571 C1572 1.385 . S
C1572 H1558 0.931 . S
C1572 C1571 1.385 . S
C1572 C1573 1.389 . S
C1573 C1572 1.389 . S
C1573 C1574 1.387 . S
C1574 H1559 0.930 . S
C1574 C1569 1.390 . S
C1574 C1573 1.387 . S
H1575 C1587 0.930 . S
H1576 C1589 0.930 . S
H1577 C1590 0.930 . S
H1578 C1594 0.959 . S
H1579 C1594 0.959 . S
H1580 C1594 0.961 . S
H1581 C1595 0.960 . S
H1582 C1595 0.961 . S
H1583 C1595 0.959 . S
H1584 C1598 0.929 . S
H1585 C1599 0.931 . S
H1586 C1601 0.930 . S
C1587 H1575 0.930 . S
C1587 C1588 1.399 . S
C1587 C1592 1.399 . S
C1588 C1587 1.399 . S
C1588 C1589 1.376 . S
C1589 H1576 0.930 . S
C1589 C1588 1.376 . S
C1589 C1590 1.388 . S
C1590 H1577 0.930 . S
C1590 C1589 1.388 . S
C1590 C1591 1.390 . S
C1591 C1590 1.390 . S
C1591 C1592 1.394 . S
C1591 C1597 1.465 . S
C1592 C1587 1.399 . S
C1592 C1591 1.394 . S
C1592 C1593 1.516 . S
C1593 C1592 1.516 . S
C1593 C1594 1.502 . S
C1593 C1595 1.561 . S
C1593 C1596 1.526 . S
C1594 H1578 0.959 . S
C1594 H1579 0.959 . S
C1594 H1580 0.961 . S
C1594 C1593 1.502 . S
C1595 H1581 0.960 . S
C1595 H1582 0.961 . S
C1595 H1583 0.959 . S
C1595 C1593 1.561 . S
C1596 C1593 1.526 . S
C1596 C1597 1.396 . S
C1596 C1601 1.390 . S
C1597 C1591 1.465 . S
C1597 C1596 1.396 . S
C1597 C1598 1.399 . S
C1598 H1584 0.929 . S
C1598 C1597 1.399 . S
C1598 C1599 1.385 . S
C1599 H1585 0.931 . S
C1599 C1598 1.385 . S
C1599 C1600 1.389 . S
C1600 C1599 1.389 . S
C1600 C1601 1.387 . S
C1601 H1586 0.930 . S
C1601 C1596 1.390 . S
C1601 C1600 1.387 . S
H1602 C1614 0.930 . S
H1603 C1616 0.930 . S
H1604 C1617 0.930 . S
H1605 C1621 0.959 . S
H1606 C1621 0.959 . S
H1607 C1621 0.961 . S
H1608 C1622 0.960 . S
H1609 C1622 0.961 . S
H1610 C1622 0.959 . S
H1611 C1625 0.929 . S
H1612 C1626 0.931 . S
H1613 C1628 0.930 . S
C1614 H1602 0.930 . S
C1614 C1615 1.399 1_565 S
C1614 C1619 1.399 . S
C1615 C1614 1.399 1_545 S
C1615 C1616 1.376 . S
C1616 H1603 0.930 . S
C1616 C1615 1.376 . S
C1616 C1617 1.388 . S
C1617 H1604 0.930 . S
C1617 C1616 1.388 . S
C1617 C1618 1.390 . S
C1618 C1617 1.390 . S
C1618 C1619 1.394 1_545 S
C1618 C1624 1.465 . S
C1619 C1614 1.399 . S
C1619 C1618 1.394 1_565 S
C1619 C1620 1.516 . S
C1620 C1619 1.516 . S
C1620 C1621 1.502 . S
C1620 C1622 1.561 . S
C1620 C1623 1.526 . S
C1621 H1605 0.959 . S
C1621 H1606 0.959 . S
C1621 H1607 0.961 . S
C1621 C1620 1.502 . S
C1622 H1608 0.960 . S
C1622 H1609 0.961 . S
C1622 H1610 0.959 . S
C1622 C1620 1.561 . S
C1623 C1620 1.526 . S
C1623 C1624 1.396 1_565 S
C1623 C1628 1.390 . S
C1624 C1618 1.465 . S
C1624 C1623 1.396 1_545 S
C1624 C1625 1.399 . S
C1625 H1611 0.929 . S
C1625 C1624 1.399 . S
C1625 C1626 1.385 . S
C1626 H1612 0.931 . S
C1626 C1625 1.385 . S
C1626 C1627 1.389 . S
C1627 C1626 1.389 . S
C1627 C1628 1.387 1_545 S
C1628 H1613 0.930 . S
C1628 C1623 1.390 . S
C1628 C1627 1.387 1_565 S
H1629 C1641 0.930 . S
H1630 C1643 0.930 . S
H1631 C1644 0.930 . S
H1632 C1648 0.959 . S
H1633 C1648 0.959 . S
H1634 C1648 0.961 . S
H1635 C1649 0.960 . S
H1636 C1649 0.961 . S
H1637 C1649 0.959 . S
H1638 C1652 0.929 . S
H1639 C1653 0.931 . S
H1640 C1655 0.930 1_565 S
C1641 H1629 0.930 . S
C1641 C1642 1.399 1_565 S
C1641 C1646 1.399 . S
C1642 C1641 1.399 1_545 S
C1642 C1643 1.376 . S
C1643 H1630 0.930 . S
C1643 C1642 1.376 . S
C1643 C1644 1.388 . S
C1644 H1631 0.930 . S
C1644 C1643 1.388 . S
C1644 C1645 1.390 . S
C1645 C1644 1.390 . S
C1645 C1646 1.394 1_545 S
C1645 C1651 1.465 . S
C1646 C1641 1.399 . S
C1646 C1645 1.394 1_565 S
C1646 C1647 1.516 . S
C1647 C1646 1.516 . S
C1647 C1648 1.502 . S
C1647 C1649 1.561 . S
C1647 C1650 1.526 1_565 S
C1648 H1632 0.959 . S
C1648 H1633 0.959 . S
C1648 H1634 0.961 . S
C1648 C1647 1.502 . S
C1649 H1635 0.960 . S
C1649 H1636 0.961 . S
C1649 H1637 0.959 . S
C1649 C1647 1.561 . S
C1650 C1647 1.526 1_545 S
C1650 C1651 1.396 . S
C1650 C1655 1.390 . S
C1651 C1645 1.465 . S
C1651 C1650 1.396 . S
C1651 C1652 1.399 . S
C1652 H1638 0.929 . S
C1652 C1651 1.399 . S
C1652 C1653 1.385 . S
C1653 H1639 0.931 . S
C1653 C1652 1.385 . S
C1653 C1654 1.389 . S
C1654 C1653 1.389 . S
C1654 C1655 1.387 . S
C1655 H1640 0.930 1_545 S
C1655 C1650 1.390 . S
C1655 C1654 1.387 . S
H1656 C1668 0.930 . S
H1657 C1670 0.930 . S
H1658 C1671 0.930 . S
H1659 C1675 0.959 . S
H1660 C1675 0.959 . S
H1661 C1675 0.961 . S
H1662 C1676 0.960 . S
H1663 C1676 0.961 . S
H1664 C1676 0.959 . S
H1665 C1679 0.929 . S
H1666 C1680 0.931 . S
H1667 C1682 0.930 . S
C1668 H1656 0.930 . S
C1668 C1669 1.399 . S
C1668 C1673 1.399 . S
C1669 C1668 1.399 . S
C1669 C1670 1.376 . S
C1670 H1657 0.930 . S
C1670 C1669 1.376 . S
C1670 C1671 1.388 . S
C1671 H1658 0.930 . S
C1671 C1670 1.388 . S
C1671 C1672 1.390 . S
C1672 C1671 1.390 . S
C1672 C1673 1.394 . S
C1672 C1678 1.465 . S
C1673 C1668 1.399 . S
C1673 C1672 1.394 . S
C1673 C1674 1.516 . S
C1674 C1673 1.516 . S
C1674 C1675 1.502 . S
C1674 C1676 1.561 . S
C1674 C1677 1.526 . S
C1675 H1659 0.959 . S
C1675 H1660 0.959 . S
C1675 H1661 0.961 . S
C1675 C1674 1.502 . S
C1676 H1662 0.960 . S
C1676 H1663 0.961 . S
C1676 H1664 0.959 . S
C1676 C1674 1.561 . S
C1677 C1674 1.526 . S
C1677 C1678 1.396 . S
C1677 C1682 1.390 . S
C1678 C1672 1.465 . S
C1678 C1677 1.396 . S
C1678 C1679 1.399 . S
C1679 H1665 0.929 . S
C1679 C1678 1.399 . S
C1679 C1680 1.385 . S
C1680 H1666 0.931 . S
C1680 C1679 1.385 . S
C1680 C1681 1.389 . S
C1681 C1680 1.389 . S
C1681 C1682 1.387 . S
C1682 H1667 0.930 . S
C1682 C1677 1.390 . S
C1682 C1681 1.387 . S
H1683 C1695 0.930 . S
H1684 C1697 0.930 . S
H1685 C1698 0.930 . S
H1686 C1702 0.959 . S
H1687 C1702 0.959 . S
H1688 C1702 0.961 1_556 S
H1689 C1703 0.960 . S
H1690 C1703 0.961 . S
H1691 C1703 0.959 . S
H1692 C1706 0.929 . S
H1693 C1707 0.931 . S
H1694 C1709 0.930 . S
C1695 H1683 0.930 . S
C1695 C1696 1.399 1_556 S
C1695 C1700 1.399 1_556 S
C1696 C1695 1.399 1_554 S
C1696 C1697 1.377 . S
C1697 H1684 0.930 . S
C1697 C1696 1.377 . S
C1697 C1698 1.388 . S
C1698 H1685 0.930 . S
C1698 C1697 1.388 . S
C1698 C1699 1.390 . S
C1699 C1698 1.390 . S
C1699 C1700 1.394 . S
C1699 C1705 1.465 . S
C1700 C1695 1.399 1_554 S
C1700 C1699 1.394 . S
C1700 C1701 1.516 1_554 S
C1701 C1700 1.516 1_556 S
C1701 C1702 1.502 1_556 S
C1701 C1703 1.561 . S
C1701 C1704 1.526 1_556 S
C1702 H1686 0.959 . S
C1702 H1687 0.959 . S
C1702 H1688 0.961 1_554 S
C1702 C1701 1.502 1_554 S
C1703 H1689 0.960 . S
C1703 H1690 0.961 . S
C1703 H1691 0.959 . S
C1703 C1701 1.561 . S
C1704 C1701 1.526 1_554 S
C1704 C1705 1.396 . S
C1704 C1709 1.390 . S
C1705 C1699 1.465 . S
C1705 C1704 1.396 . S
C1705 C1706 1.399 . S
C1706 H1692 0.929 . S
C1706 C1705 1.399 . S
C1706 C1707 1.385 . S
C1707 H1693 0.931 . S
C1707 C1706 1.385 . S
C1707 C1708 1.389 . S
C1708 C1707 1.389 . S
C1708 C1709 1.387 . S
C1709 H1694 0.930 . S
C1709 C1704 1.390 . S
C1709 C1708 1.387 . S
H1710 C1722 0.930 . S
H1711 C1724 0.930 . S
H1712 C1725 0.930 . S
H1713 C1729 0.959 . S
H1714 C1729 0.959 . S
H1715 C1729 0.961 . S
H1716 C1730 0.960 . S
H1717 C1730 0.961 . S
H1718 C1730 0.959 . S
H1719 C1733 0.929 . S
H1720 C1734 0.931 . S
H1721 C1736 0.930 . S
C1722 H1710 0.930 . S
C1722 C1723 1.399 . S
C1722 C1727 1.399 . S
C1723 C1722 1.399 . S
C1723 C1724 1.376 . S
C1724 H1711 0.930 . S
C1724 C1723 1.376 . S
C1724 C1725 1.388 . S
C1725 H1712 0.930 . S
C1725 C1724 1.388 . S
C1725 C1726 1.390 . S
C1726 C1725 1.390 . S
C1726 C1727 1.394 . S
C1726 C1732 1.465 . S
C1727 C1722 1.399 . S
C1727 C1726 1.394 . S
C1727 C1728 1.516 . S
C1728 C1727 1.516 . S
C1728 C1729 1.502 . S
C1728 C1730 1.561 . S
C1728 C1731 1.526 . S
C1729 H1713 0.959 . S
C1729 H1714 0.959 . S
C1729 H1715 0.961 . S
C1729 C1728 1.502 . S
C1730 H1716 0.960 . S
C1730 H1717 0.961 . S
C1730 H1718 0.959 . S
C1730 C1728 1.561 . S
C1731 C1728 1.526 . S
C1731 C1732 1.396 . S
C1731 C1736 1.390 . S
C1732 C1726 1.465 . S
C1732 C1731 1.396 . S
C1732 C1733 1.399 . S
C1733 H1719 0.929 . S
C1733 C1732 1.399 . S
C1733 C1734 1.385 . S
C1734 H1720 0.931 . S
C1734 C1733 1.385 . S
C1734 C1735 1.389 . S
C1735 C1734 1.389 . S
C1735 C1736 1.387 . S
C1736 H1721 0.930 . S
C1736 C1731 1.390 . S
C1736 C1735 1.387 . S
H1737 C1749 0.930 . S
H1738 C1751 0.930 1_556 S
H1739 C1752 0.927 1_556 S
H1740 C1756 0.959 1_556 S
H1741 C1756 0.959 . S
H1742 C1756 0.961 . S
H1743 C1757 0.960 . S
H1744 C1757 0.961 . S
H1745 C1757 0.959 . S
H1746 C1760 0.929 . S
H1747 C1761 0.931 . S
H1748 C1763 0.930 . S
C1749 H1737 0.930 . S
C1749 C1750 1.399 . S
C1749 C1754 1.399 . S
C1750 C1749 1.399 . S
C1750 C1751 1.376 . S
C1751 H1738 0.930 1_554 S
C1751 C1750 1.376 . S
C1751 C1752 1.390 . S
C1752 H1739 0.927 1_554 S
C1752 C1751 1.390 . S
C1752 C1753 1.391 . S
C1753 C1752 1.391 . S
C1753 C1754 1.394 . S
C1753 C1759 1.465 . S
C1754 C1749 1.399 . S
C1754 C1753 1.394 . S
C1754 C1755 1.516 . S
C1755 C1754 1.516 . S
C1755 C1756 1.502 . S
C1755 C1757 1.561 . S
C1755 C1758 1.526 . S
C1756 H1740 0.959 1_554 S
C1756 H1741 0.959 . S
C1756 H1742 0.961 . S
C1756 C1755 1.502 . S
C1757 H1743 0.960 . S
C1757 H1744 0.961 . S
C1757 H1745 0.959 . S
C1757 C1755 1.561 . S
C1758 C1755 1.526 . S
C1758 C1759 1.396 . S
C1758 C1763 1.390 . S
C1759 C1753 1.465 . S
C1759 C1758 1.396 . S
C1759 C1760 1.399 1_554 S
C1760 H1746 0.929 . S
C1760 C1759 1.399 1_556 S
C1760 C1761 1.385 . S
C1761 H1747 0.931 . S
C1761 C1760 1.385 . S
C1761 C1762 1.389 1_556 S
C1762 C1761 1.389 1_554 S
C1762 C1763 1.387 . S
C1763 H1748 0.930 . S
C1763 C1758 1.390 . S
C1763 C1762 1.387 . S
H1764 C1776 0.930 . S
H1765 C1778 0.930 . S
H1766 C1779 0.930 . S
H1767 C1783 0.959 . S
H1768 C1783 0.959 . S
H1769 C1783 0.961 . S
H1770 C1784 0.960 . S
H1771 C1784 0.961 . S
H1772 C1784 0.959 . S
H1773 C1787 0.929 . S
H1774 C1788 0.931 . S
H1775 C1790 0.930 . S
C1776 H1764 0.930 . S
C1776 C1777 1.399 . S
C1776 C1781 1.399 . S
C1777 C1776 1.399 . S
C1777 C1778 1.376 . S
C1778 H1765 0.930 . S
C1778 C1777 1.376 . S
C1778 C1779 1.388 . S
C1779 H1766 0.930 . S
C1779 C1778 1.388 . S
C1779 C1780 1.390 . S
C1780 C1779 1.390 . S
C1780 C1781 1.394 . S
C1780 C1786 1.465 . S
C1781 C1776 1.399 . S
C1781 C1780 1.394 . S
C1781 C1782 1.516 . S
C1782 C1781 1.516 . S
C1782 C1783 1.502 . S
C1782 C1784 1.561 . S
C1782 C1785 1.526 . S
C1783 H1767 0.959 . S
C1783 H1768 0.959 . S
C1783 H1769 0.961 . S
C1783 C1782 1.502 . S
C1784 H1770 0.960 . S
C1784 H1771 0.961 . S
C1784 H1772 0.959 . S
C1784 C1782 1.561 . S
C1785 C1782 1.526 . S
C1785 C1786 1.396 . S
C1785 C1790 1.390 . S
C1786 C1780 1.465 . S
C1786 C1785 1.396 . S
C1786 C1787 1.399 . S
C1787 H1773 0.929 . S
C1787 C1786 1.399 . S
C1787 C1788 1.385 . S
C1788 H1774 0.931 . S
C1788 C1787 1.385 . S
C1788 C1789 1.389 . S
C1789 C1788 1.389 . S
C1789 C1790 1.387 . S
C1790 H1775 0.930 . S
C1790 C1785 1.390 . S
C1790 C1789 1.387 . S
H1791 C1803 0.931 . S
H1792 C1805 0.930 . S
H1793 C1806 0.930 . S
H1794 C1810 0.959 . S
H1795 C1810 0.959 . S
H1796 C1810 0.961 . S
H1797 C1811 0.960 . S
H1798 C1811 0.961 . S
H1799 C1811 0.959 . S
H1800 C1814 0.929 . S
H1801 C1815 0.931 . S
H1802 C1817 0.930 . S
C1803 H1791 0.931 . S
C1803 C1804 1.399 . S
C1803 C1808 1.399 . S
C1804 C1803 1.399 . S
C1804 C1805 1.376 . S
C1805 H1792 0.930 . S
C1805 C1804 1.376 . S
C1805 C1806 1.388 . S
C1806 H1793 0.930 . S
C1806 C1805 1.388 . S
C1806 C1807 1.390 . S
C1807 C1806 1.390 . S
C1807 C1808 1.394 . S
C1807 C1813 1.465 . S
C1808 C1803 1.399 . S
C1808 C1807 1.394 . S
C1808 C1809 1.516 . S
C1809 C1808 1.516 . S
C1809 C1810 1.502 1_455 S
C1809 C1811 1.561 . S
C1809 C1812 1.526 . S
C1810 H1794 0.959 . S
C1810 H1795 0.959 . S
C1810 H1796 0.961 . S
C1810 C1809 1.502 1_655 S
C1811 H1797 0.960 . S
C1811 H1798 0.961 . S
C1811 H1799 0.959 . S
C1811 C1809 1.561 . S
C1812 C1809 1.526 . S
C1812 C1813 1.396 . S
C1812 C1817 1.390 . S
C1813 C1807 1.465 . S
C1813 C1812 1.396 . S
C1813 C1814 1.399 . S
C1814 H1800 0.929 . S
C1814 C1813 1.399 . S
C1814 C1815 1.385 . S
C1815 H1801 0.931 . S
C1815 C1814 1.385 . S
C1815 C1816 1.389 . S
C1816 C1815 1.389 . S
C1816 C1817 1.387 . S
C1817 H1802 0.930 . S
C1817 C1812 1.390 . S
C1817 C1816 1.387 . S
H1818 C1830 0.930 . S
H1819 C1832 0.930 . S
H1820 C1833 0.930 . S
H1821 C1837 0.959 . S
H1822 C1837 0.959 . S
H1823 C1837 0.961 . S
H1824 C1838 0.960 . S
H1825 C1838 0.961 . S
H1826 C1838 0.959 . S
H1827 C1841 0.929 . S
H1828 C1842 0.931 . S
H1829 C1844 0.930 . S
C1830 H1818 0.930 . S
C1830 C1831 1.399 . S
C1830 C1835 1.399 . S
C1831 C1830 1.399 . S
C1831 C1832 1.376 . S
C1832 H1819 0.930 . S
C1832 C1831 1.376 . S
C1832 C1833 1.388 . S
C1833 H1820 0.930 . S
C1833 C1832 1.388 . S
C1833 C1834 1.390 . S
C1834 C1833 1.390 . S
C1834 C1835 1.394 . S
C1834 C1840 1.465 . S
C1835 C1830 1.399 . S
C1835 C1834 1.394 . S
C1835 C1836 1.516 . S
C1836 C1835 1.516 . S
C1836 C1837 1.502 . S
C1836 C1838 1.561 . S
C1836 C1839 1.526 . S
C1837 H1821 0.959 . S
C1837 H1822 0.959 . S
C1837 H1823 0.961 . S
C1837 C1836 1.502 . S
C1838 H1824 0.960 . S
C1838 H1825 0.961 . S
C1838 H1826 0.959 . S
C1838 C1836 1.561 . S
C1839 C1836 1.526 . S
C1839 C1840 1.396 . S
C1839 C1844 1.390 . S
C1840 C1834 1.465 . S
C1840 C1839 1.396 . S
C1840 C1841 1.399 . S
C1841 H1827 0.929 . S
C1841 C1840 1.399 . S
C1841 C1842 1.385 . S
C1842 H1828 0.931 . S
C1842 C1841 1.385 . S
C1842 C1843 1.389 . S
C1843 C1842 1.389 . S
C1843 C1844 1.387 . S
C1844 H1829 0.930 . S
C1844 C1839 1.390 . S
C1844 C1843 1.387 . S
H1845 C1857 0.930 1_655 S
H1846 C1859 0.930 . S
H1847 C1860 0.930 . S
H1848 C1864 0.959 . S
H1849 C1864 0.959 . S
H1850 C1864 0.961 . S
H1851 C1865 0.960 . S
H1852 C1865 0.961 . S
H1853 C1865 0.959 . S
H1854 C1868 0.929 . S
H1855 C1869 0.931 . S
H1856 C1871 0.951 . S
C1857 H1845 0.930 1_455 S
C1857 C1858 1.399 . S
C1857 C1862 1.399 . S
C1858 C1857 1.399 . S
C1858 C1859 1.376 . S
C1859 H1846 0.930 . S
C1859 C1858 1.376 . S
C1859 C1860 1.388 . S
C1860 H1847 0.930 . S
C1860 C1859 1.388 . S
C1860 C1861 1.390 . S
C1861 C1860 1.390 . S
C1861 C1862 1.394 . S
C1861 C1867 1.465 . S
C1862 C1857 1.399 . S
C1862 C1861 1.394 . S
C1862 C1863 1.516 1_455 S
C1863 C1862 1.516 1_655 S
C1863 C1864 1.502 . S
C1863 C1865 1.561 1_655 S
C1863 C1866 1.526 1_655 S
C1864 H1848 0.959 . S
C1864 H1849 0.959 . S
C1864 H1850 0.961 . S
C1864 C1863 1.502 . S
C1865 H1851 0.960 . S
C1865 H1852 0.961 . S
C1865 H1853 0.959 . S
C1865 C1863 1.561 1_455 S
C1866 C1863 1.526 1_455 S
C1866 C1867 1.396 . S
C1866 C1871 1.380 1_455 S
C1867 C1861 1.465 . S
C1867 C1866 1.396 . S
C1867 C1868 1.399 . S
C1868 H1854 0.929 . S
C1868 C1867 1.399 . S
C1868 C1869 1.385 . S
C1869 H1855 0.931 . S
C1869 C1868 1.385 . S
C1869 C1870 1.389 . S
C1870 C1869 1.389 . S
C1870 C1871 1.377 1_455 S
C1871 H1856 0.951 . S
C1871 C1866 1.380 1_655 S
C1871 C1870 1.377 1_655 S
H1872 C1884 0.930 . S
H1873 C1886 0.930 . S
H1874 C1887 0.930 . S
H1875 C1891 0.959 . S
H1876 C1891 0.959 . S
H1877 C1891 0.961 . S
H1878 C1892 0.960 . S
H1879 C1892 0.961 . S
H1880 C1892 0.959 . S
H1881 C1895 0.929 . S
H1882 C1896 0.931 . S
H1883 C1898 0.930 . S
C1884 H1872 0.930 . S
C1884 C1885 1.399 . S
C1884 C1889 1.399 . S
C1885 C1884 1.399 . S
C1885 C1886 1.376 . S
C1886 H1873 0.930 . S
C1886 C1885 1.376 . S
C1886 C1887 1.388 . S
C1887 H1874 0.930 . S
C1887 C1886 1.388 . S
C1887 C1888 1.390 . S
C1888 C1887 1.390 . S
C1888 C1889 1.394 . S
C1888 C1894 1.465 . S
C1889 C1884 1.399 . S
C1889 C1888 1.394 . S
C1889 C1890 1.516 . S
C1890 C1889 1.516 . S
C1890 C1891 1.502 . S
C1890 C1892 1.561 . S
C1890 C1893 1.526 . S
C1891 H1875 0.959 . S
C1891 H1876 0.959 . S
C1891 H1877 0.961 . S
C1891 C1890 1.502 . S
C1892 H1878 0.960 . S
C1892 H1879 0.961 . S
C1892 H1880 0.959 . S
C1892 C1890 1.561 . S
C1893 C1890 1.526 . S
C1893 C1894 1.396 . S
C1893 C1898 1.390 . S
C1894 C1888 1.465 . S
C1894 C1893 1.396 . S
C1894 C1895 1.399 . S
C1895 H1881 0.929 . S
C1895 C1894 1.399 . S
C1895 C1896 1.385 . S
C1896 H1882 0.931 . S
C1896 C1895 1.385 . S
C1896 C1897 1.389 . S
C1897 C1896 1.389 . S
C1897 C1898 1.387 . S
C1898 H1883 0.930 . S
C1898 C1893 1.390 . S
C1898 C1897 1.387 . S
H1899 C1911 0.930 . S
H1900 C1913 0.930 . S
H1901 C1914 0.930 . S
H1902 C1918 0.959 . S
H1903 C1918 0.959 . S
H1904 C1918 0.961 . S
H1905 C1919 0.960 . S
H1906 C1919 0.961 . S
H1907 C1919 0.959 . S
H1908 C1922 0.929 . S
H1909 C1923 0.931 . S
H1910 C1925 0.930 . S
C1911 H1899 0.930 . S
C1911 C1912 1.399 . S
C1911 C1916 1.399 . S
C1912 C1911 1.399 . S
C1912 C1913 1.376 . S
C1913 H1900 0.930 . S
C1913 C1912 1.376 . S
C1913 C1914 1.388 . S
C1914 H1901 0.930 . S
C1914 C1913 1.388 . S
C1914 C1915 1.390 . S
C1915 C1914 1.390 . S
C1915 C1916 1.394 . S
C1915 C1921 1.465 . S
C1916 C1911 1.399 . S
C1916 C1915 1.394 . S
C1916 C1917 1.516 . S
C1917 C1916 1.516 . S
C1917 C1918 1.502 . S
C1917 C1919 1.561 . S
C1917 C1920 1.526 . S
C1918 H1902 0.959 . S
C1918 H1903 0.959 . S
C1918 H1904 0.961 . S
C1918 C1917 1.502 . S
C1919 H1905 0.960 . S
C1919 H1906 0.961 . S
C1919 H1907 0.959 . S
C1919 C1917 1.561 . S
C1920 C1917 1.526 . S
C1920 C1921 1.396 . S
C1920 C1925 1.390 . S
C1921 C1915 1.465 . S
C1921 C1920 1.396 . S
C1921 C1922 1.399 . S
C1922 H1908 0.929 . S
C1922 C1921 1.399 . S
C1922 C1923 1.385 . S
C1923 H1909 0.931 . S
C1923 C1922 1.385 . S
C1923 C1924 1.389 . S
C1924 C1923 1.389 . S
C1924 C1925 1.387 . S
C1925 H1910 0.930 . S
C1925 C1920 1.390 . S
C1925 C1924 1.387 . S
H1926 C1938 0.930 . S
H1927 C1940 0.930 . S
H1928 C1941 0.930 . S
H1929 C1945 0.959 1_545 S
H1930 C1945 0.959 . S
H1931 C1945 0.961 . S
H1932 C1946 0.960 . S
H1933 C1946 0.961 . S
H1934 C1946 0.959 . S
H1935 C1949 0.929 . S
H1936 C1950 0.931 . S
H1937 C1952 0.930 1_565 S
C1938 H1926 0.930 . S
C1938 C1939 1.399 1_565 S
C1938 C1943 1.402 . S
C1939 C1938 1.399 1_545 S
C1939 C1940 1.376 . S
C1940 H1927 0.930 . S
C1940 C1939 1.376 . S
C1940 C1941 1.388 . S
C1941 H1928 0.930 . S
C1941 C1940 1.388 . S
C1941 C1942 1.390 . S
C1942 C1941 1.390 . S
C1942 C1943 1.379 1_545 S
C1942 C1948 1.465 . S
C1943 C1938 1.402 . S
C1943 C1942 1.379 1_565 S
C1943 C1944 1.527 . S
C1944 C1943 1.527 . S
C1944 C1945 1.502 . S
C1944 C1946 1.561 . S
C1944 C1947 1.526 1_565 S
C1945 H1929 0.959 1_565 S
C1945 H1930 0.959 . S
C1945 H1931 0.961 . S
C1945 C1944 1.502 . S
C1946 H1932 0.960 . S
C1946 H1933 0.961 . S
C1946 H1934 0.959 . S
C1946 C1944 1.561 . S
C1947 C1944 1.526 1_545 S
C1947 C1948 1.396 . S
C1947 C1952 1.390 . S
C1948 C1942 1.465 . S
C1948 C1947 1.396 . S
C1948 C1949 1.399 . S
C1949 H1935 0.929 . S
C1949 C1948 1.399 . S
C1949 C1950 1.385 . S
C1950 H1936 0.931 . S
C1950 C1949 1.385 . S
C1950 C1951 1.389 . S
C1951 C1950 1.389 . S
C1951 C1952 1.387 . S
C1952 H1937 0.930 1_545 S
C1952 C1947 1.390 . S
C1952 C1951 1.387 . S
H1953 C1965 0.930 . S
H1954 C1967 0.930 . S
H1955 C1968 0.930 . S
H1956 C1972 0.959 . S
H1957 C1972 0.959 . S
H1958 C1972 0.961 . S
H1959 C1973 0.960 . S
H1960 C1973 0.961 . S
H1961 C1973 0.959 . S
H1962 C1976 0.929 . S
H1963 C1977 0.931 1_545 S
H1964 C1979 0.930 . S
C1965 H1953 0.930 . S
C1965 C1966 1.399 . S
C1965 C1970 1.399 . S
C1966 C1965 1.399 . S
C1966 C1967 1.376 1_565 S
C1967 H1954 0.930 . S
C1967 C1966 1.376 1_545 S
C1967 C1968 1.388 . S
C1968 H1955 0.930 . S
C1968 C1967 1.388 . S
C1968 C1969 1.390 1_545 S
C1969 C1968 1.390 1_565 S
C1969 C1970 1.394 . S
C1969 C1975 1.465 . S
C1970 C1965 1.399 . S
C1970 C1969 1.394 . S
C1970 C1971 1.516 . S
C1971 C1970 1.516 . S
C1971 C1972 1.502 . S
C1971 C1973 1.561 . S
C1971 C1974 1.526 . S
C1972 H1956 0.959 . S
C1972 H1957 0.959 . S
C1972 H1958 0.961 . S
C1972 C1971 1.502 . S
C1973 H1959 0.960 . S
C1973 H1960 0.961 . S
C1973 H1961 0.959 . S
C1973 C1971 1.561 . S
C1974 C1971 1.526 . S
C1974 C1975 1.396 . S
C1974 C1979 1.390 . S
C1975 C1969 1.465 . S
C1975 C1974 1.396 . S
C1975 C1976 1.399 1_565 S
C1976 H1962 0.929 . S
C1976 C1975 1.399 1_545 S
C1976 C1977 1.385 1_545 S
C1977 H1963 0.931 1_565 S
C1977 C1976 1.385 1_565 S
C1977 C1978 1.389 . S
C1978 C1977 1.389 . S
C1978 C1979 1.387 . S
C1979 H1964 0.930 . S
C1979 C1974 1.390 . S
C1979 C1978 1.387 . S
H1980 C1992 0.930 . S
H1981 C1994 0.930 . S
H1982 C1995 0.930 . S
H1983 C1999 0.959 . S
H1984 C1999 0.959 . S
H1985 C1999 0.961 . S
H1986 C2000 0.960 . S
H1987 C2000 0.961 . S
H1988 C2000 0.959 . S
H1989 C2003 0.929 . S
H1990 C2004 0.931 . S
H1991 C2006 0.930 . S
C1992 H1980 0.930 . S
C1992 C1993 1.399 . S
C1992 C1997 1.399 . S
C1993 C1992 1.399 . S
C1993 C1994 1.376 . S
C1994 H1981 0.930 . S
C1994 C1993 1.376 . S
C1994 C1995 1.388 . S
C1995 H1982 0.930 . S
C1995 C1994 1.388 . S
C1995 C1996 1.390 . S
C1996 C1995 1.390 . S
C1996 C1997 1.394 . S
C1996 C2002 1.465 . S
C1997 C1992 1.399 . S
C1997 C1996 1.394 . S
C1997 C1998 1.516 . S
C1998 C1997 1.516 . S
C1998 C1999 1.502 . S
C1998 C2000 1.561 . S
C1998 C2001 1.526 . S
C1999 H1983 0.959 . S
C1999 H1984 0.959 . S
C1999 H1985 0.961 . S
C1999 C1998 1.502 . S
C2000 H1986 0.960 . S
C2000 H1987 0.961 . S
C2000 H1988 0.959 . S
C2000 C1998 1.561 . S
C2001 C1998 1.526 . S
C2001 C2002 1.396 . S
C2001 C2006 1.390 . S
C2002 C1996 1.465 . S
C2002 C2001 1.396 . S
C2002 C2003 1.399 . S
C2003 H1989 0.929 . S
C2003 C2002 1.399 . S
C2003 C2004 1.385 . S
C2004 H1990 0.931 . S
C2004 C2003 1.385 . S
C2004 C2005 1.389 . S
C2005 C2004 1.389 . S
C2005 C2006 1.387 . S
C2006 H1991 0.930 . S
C2006 C2001 1.390 . S
C2006 C2005 1.387 . S
H2007 C2019 0.930 . S
H2008 C2021 0.930 . S
H2009 C2022 0.930 . S
H2010 C2026 0.949 1_556 S
H2011 C2026 0.959 . S
H2012 C2026 0.961 . S
H2013 C2027 0.960 . S
H2014 C2027 0.961 . S
H2015 C2027 0.959 . S
H2016 C2030 0.929 . S
H2017 C2031 0.931 . S
H2018 C2033 0.930 . S
C2019 H2007 0.930 . S
C2019 C2020 1.399 1_554 S
C2019 C2024 1.399 1_554 S
C2020 C2019 1.399 1_556 S
C2020 C2021 1.376 . S
C2021 H2008 0.930 . S
C2021 C2020 1.376 . S
C2021 C2022 1.388 . S
C2022 H2009 0.930 . S
C2022 C2021 1.388 . S
C2022 C2023 1.390 . S
C2023 C2022 1.390 . S
C2023 C2024 1.394 . S
C2023 C2029 1.465 . S
C2024 C2019 1.399 1_556 S
C2024 C2023 1.394 . S
C2024 C2025 1.516 1_556 S
C2025 C2024 1.516 1_554 S
C2025 C2026 1.502 . S
C2025 C2027 1.561 . S
C2025 C2028 1.526 1_554 S
C2026 H2010 0.949 1_554 S
C2026 H2011 0.959 . S
C2026 H2012 0.961 . S
C2026 C2025 1.502 . S
C2027 H2013 0.960 . S
C2027 H2014 0.961 . S
C2027 H2015 0.959 . S
C2027 C2025 1.561 . S
C2028 C2025 1.526 1_556 S
C2028 C2029 1.396 . S
C2028 C2033 1.390 . S
C2029 C2023 1.465 . S
C2029 C2028 1.396 . S
C2029 C2030 1.399 . S
C2030 H2016 0.929 . S
C2030 C2029 1.399 . S
C2030 C2031 1.385 . S
C2031 H2017 0.931 . S
C2031 C2030 1.385 . S
C2031 C2032 1.389 . S
C2032 C2031 1.389 . S
C2032 C2033 1.387 . S
C2033 H2018 0.930 . S
C2033 C2028 1.390 . S
C2033 C2032 1.387 . S
H2034 C2046 0.930 . S
H2035 C2048 0.930 . S
H2036 C2049 0.930 . S
H2037 C2053 0.959 . S
H2038 C2053 0.959 . S
H2039 C2053 0.961 . S
H2040 C2054 0.960 . S
H2041 C2054 0.961 . S
H2042 C2054 0.959 . S
H2043 C2057 0.929 . S
H2044 C2058 0.931 . S
H2045 C2060 0.930 . S
C2046 H2034 0.930 . S
C2046 C2047 1.399 . S
C2046 C2051 1.399 . S
C2047 C2046 1.399 . S
C2047 C2048 1.376 . S
C2048 H2035 0.930 . S
C2048 C2047 1.376 . S
C2048 C2049 1.388 . S
C2049 H2036 0.930 . S
C2049 C2048 1.388 . S
C2049 C2050 1.390 . S
C2050 C2049 1.390 . S
C2050 C2051 1.394 . S
C2050 C2056 1.465 . S
C2051 C2046 1.399 . S
C2051 C2050 1.394 . S
C2051 C2052 1.516 . S
C2052 C2051 1.516 . S
C2052 C2053 1.502 . S
C2052 C2054 1.561 . S
C2052 C2055 1.526 . S
C2053 H2037 0.959 . S
C2053 H2038 0.959 . S
C2053 H2039 0.961 . S
C2053 C2052 1.502 . S
C2054 H2040 0.960 . S
C2054 H2041 0.961 . S
C2054 H2042 0.959 . S
C2054 C2052 1.561 . S
C2055 C2052 1.526 . S
C2055 C2056 1.396 . S
C2055 C2060 1.390 . S
C2056 C2050 1.465 . S
C2056 C2055 1.396 . S
C2056 C2057 1.399 . S
C2057 H2043 0.929 . S
C2057 C2056 1.399 . S
C2057 C2058 1.385 . S
C2058 H2044 0.931 . S
C2058 C2057 1.385 . S
C2058 C2059 1.389 . S
C2059 C2058 1.389 . S
C2059 C2060 1.387 . S
C2060 H2045 0.930 . S
C2060 C2055 1.390 . S
C2060 C2059 1.387 . S
H2061 C2073 0.930 . S
H2062 C2075 0.930 . S
H2063 C2076 0.930 . S
H2064 C2080 0.959 . S
H2065 C2080 0.959 . S
H2066 C2080 0.961 . S
H2067 C2081 0.960 . S
H2068 C2081 0.961 . S
H2069 C2081 0.959 . S
H2070 C2084 0.929 . S
H2071 C2085 0.931 . S
H2072 C2087 0.930 . S
C2073 H2061 0.930 . S
C2073 C2074 1.399 . S
C2073 C2078 1.399 . S
C2074 C2073 1.399 . S
C2074 C2075 1.376 1_554 S
C2075 H2062 0.930 . S
C2075 C2074 1.376 1_556 S
C2075 C2076 1.388 . S
C2076 H2063 0.930 . S
C2076 C2075 1.388 . S
C2076 C2077 1.391 . S
C2077 C2076 1.391 . S
C2077 C2078 1.393 1_556 S
C2077 C2083 1.465 1_556 S
C2078 C2073 1.399 . S
C2078 C2077 1.393 1_554 S
C2078 C2079 1.516 . S
C2079 C2078 1.516 . S
C2079 C2080 1.502 . S
C2079 C2081 1.561 . S
C2079 C2082 1.526 . S
C2080 H2064 0.959 . S
C2080 H2065 0.959 . S
C2080 H2066 0.961 . S
C2080 C2079 1.502 . S
C2081 H2067 0.960 . S
C2081 H2068 0.961 . S
C2081 H2069 0.959 . S
C2081 C2079 1.561 . S
C2082 C2079 1.526 . S
C2082 C2083 1.396 . S
C2082 C2087 1.390 . S
C2083 C2077 1.465 1_554 S
C2083 C2082 1.396 . S
C2083 C2084 1.399 1_554 S
C2084 H2070 0.929 . S
C2084 C2083 1.399 1_556 S
C2084 C2085 1.385 . S
C2085 H2071 0.931 . S
C2085 C2084 1.385 . S
C2085 C2086 1.389 1_556 S
C2086 C2085 1.389 1_554 S
C2086 C2087 1.387 . S
C2087 H2072 0.930 . S
C2087 C2082 1.390 . S
C2087 C2086 1.387 . S
H2088 C2100 0.930 . S
H2089 C2102 0.930 . S
H2090 C2103 0.930 . S
H2091 C2107 0.959 . S
H2092 C2107 0.959 . S
H2093 C2107 0.961 . S
H2094 C2108 0.960 . S
H2095 C2108 0.961 . S
H2096 C2108 0.959 . S
H2097 C2111 0.929 . S
H2098 C2112 0.931 . S
H2099 C2114 0.930 . S
C2100 H2088 0.930 . S
C2100 C2101 1.399 . S
C2100 C2105 1.399 . S
C2101 C2100 1.399 . S
C2101 C2102 1.376 . S
C2102 H2089 0.930 . S
C2102 C2101 1.376 . S
C2102 C2103 1.388 . S
C2103 H2090 0.930 . S
C2103 C2102 1.388 . S
C2103 C2104 1.390 . S
C2104 C2103 1.390 . S
C2104 C2105 1.394 . S
C2104 C2110 1.465 . S
C2105 C2100 1.399 . S
C2105 C2104 1.394 . S
C2105 C2106 1.516 . S
C2106 C2105 1.516 . S
C2106 C2107 1.502 . S
C2106 C2108 1.561 . S
C2106 C2109 1.526 . S
C2107 H2091 0.959 . S
C2107 H2092 0.959 . S
C2107 H2093 0.961 . S
C2107 C2106 1.502 . S
C2108 H2094 0.960 . S
C2108 H2095 0.961 . S
C2108 H2096 0.959 . S
C2108 C2106 1.561 . S
C2109 C2106 1.526 . S
C2109 C2110 1.396 . S
C2109 C2114 1.390 . S
C2110 C2104 1.465 . S
C2110 C2109 1.396 . S
C2110 C2111 1.399 . S
C2111 H2097 0.929 . S
C2111 C2110 1.399 . S
C2111 C2112 1.385 . S
C2112 H2098 0.931 . S
C2112 C2111 1.385 . S
C2112 C2113 1.389 . S
C2113 C2112 1.389 . S
C2113 C2114 1.387 . S
C2114 H2099 0.930 . S
C2114 C2109 1.390 . S
C2114 C2113 1.387 . S
H2115 C2127 0.930 . S
H2116 C2129 0.930 . S
H2117 C2130 0.930 . S
H2118 C2134 0.959 . S
H2119 C2134 0.959 . S
H2120 C2134 0.961 . S
H2121 C2135 0.960 . S
H2122 C2135 0.961 . S
H2123 C2135 0.959 . S
H2124 C2138 0.929 . S
H2125 C2139 0.931 . S
H2126 C2141 0.930 . S
C2127 H2115 0.930 . S
C2127 C2128 1.399 1_455 S
C2127 C2132 1.399 1_455 S
C2128 C2127 1.399 1_655 S
C2128 C2129 1.376 . S
C2129 H2116 0.930 . S
C2129 C2128 1.376 . S
C2129 C2130 1.388 . S
C2130 H2117 0.930 . S
C2130 C2129 1.388 . S
C2130 C2131 1.390 . S
C2131 C2130 1.390 . S
C2131 C2132 1.394 . S
C2131 C2137 1.465 . S
C2132 C2127 1.399 1_655 S
C2132 C2131 1.394 . S
C2132 C2133 1.516 . S
C2133 C2132 1.516 . S
C2133 C2134 1.502 1_655 S
C2133 C2135 1.561 . S
C2133 C2136 1.526 . S
C2134 H2118 0.959 . S
C2134 H2119 0.959 . S
C2134 H2120 0.961 . S
C2134 C2133 1.502 1_455 S
C2135 H2121 0.960 . S
C2135 H2122 0.961 . S
C2135 H2123 0.959 . S
C2135 C2133 1.561 . S
C2136 C2133 1.526 . S
C2136 C2137 1.396 . S
C2136 C2141 1.390 . S
C2137 C2131 1.465 . S
C2137 C2136 1.396 . S
C2137 C2138 1.399 . S
C2138 H2124 0.929 . S
C2138 C2137 1.399 . S
C2138 C2139 1.385 . S
C2139 H2125 0.931 . S
C2139 C2138 1.385 . S
C2139 C2140 1.389 . S
C2140 C2139 1.389 . S
C2140 C2141 1.387 . S
C2141 H2126 0.930 . S
C2141 C2136 1.390 . S
C2141 C2140 1.387 . S
H2142 C2154 0.930 . S
H2143 C2156 0.930 . S
H2144 C2157 0.930 . S
H2145 C2161 0.959 . S
H2146 C2161 0.959 . S
H2147 C2161 0.961 . S
H2148 C2162 0.960 . S
H2149 C2162 0.961 . S
H2150 C2162 0.959 . S
H2151 C2165 0.929 . S
H2152 C2166 0.931 . S
H2153 C2168 0.930 . S
C2154 H2142 0.930 . S
C2154 C2155 1.399 . S
C2154 C2159 1.399 . S
C2155 C2154 1.399 . S
C2155 C2156 1.376 . S
C2156 H2143 0.930 . S
C2156 C2155 1.376 . S
C2156 C2157 1.388 . S
C2157 H2144 0.930 . S
C2157 C2156 1.388 . S
C2157 C2158 1.390 . S
C2158 C2157 1.390 . S
C2158 C2159 1.394 . S
C2158 C2164 1.465 . S
C2159 C2154 1.399 . S
C2159 C2158 1.394 . S
C2159 C2160 1.516 . S
C2160 C2159 1.516 . S
C2160 C2161 1.502 . S
C2160 C2162 1.561 . S
C2160 C2163 1.526 . S
C2161 H2145 0.959 . S
C2161 H2146 0.959 . S
C2161 H2147 0.961 . S
C2161 C2160 1.502 . S
C2162 H2148 0.960 . S
C2162 H2149 0.961 . S
C2162 H2150 0.959 . S
C2162 C2160 1.561 . S
C2163 C2160 1.526 . S
C2163 C2164 1.396 . S
C2163 C2168 1.390 . S
C2164 C2158 1.465 . S
C2164 C2163 1.396 . S
C2164 C2165 1.399 . S
C2165 H2151 0.929 . S
C2165 C2164 1.399 . S
C2165 C2166 1.385 . S
C2166 H2152 0.931 . S
C2166 C2165 1.385 . S
C2166 C2167 1.389 . S
C2167 C2166 1.389 . S
C2167 C2168 1.387 . S
C2168 H2153 0.930 . S
C2168 C2163 1.390 . S
C2168 C2167 1.387 . S
H2169 C2181 0.930 . S
H2170 C2183 0.930 . S
H2171 C2184 0.930 . S
H2172 C2188 0.959 . S
H2173 C2188 0.959 . S
H2174 C2188 0.961 . S
H2175 C2189 0.960 . S
H2176 C2189 0.961 . S
H2177 C2189 0.959 1_655 S
H2178 C2192 0.929 . S
H2179 C2193 0.925 1_655 S
H2180 C2195 0.930 . S
C2181 H2169 0.930 . S
C2181 C2182 1.399 . S
C2181 C2186 1.399 . S
C2182 C2181 1.399 . S
C2182 C2183 1.376 1_455 S
C2183 H2170 0.930 . S
C2183 C2182 1.376 1_655 S
C2183 C2184 1.388 . S
C2184 H2171 0.930 . S
C2184 C2183 1.388 . S
C2184 C2185 1.376 1_655 S
C2185 C2184 1.376 1_455 S
C2185 C2186 1.412 . S
C2185 C2191 1.467 . S
C2186 C2181 1.399 . S
C2186 C2185 1.412 . S
C2186 C2187 1.516 . S
C2187 C2186 1.516 . S
C2187 C2188 1.502 . S
C2187 C2189 1.561 . S
C2187 C2190 1.526 . S
C2188 H2172 0.959 . S
C2188 H2173 0.959 . S
C2188 H2174 0.961 . S
C2188 C2187 1.502 . S
C2189 H2175 0.960 . S
C2189 H2176 0.961 . S
C2189 H2177 0.959 1_455 S
C2189 C2187 1.561 . S
C2190 C2187 1.526 . S
C2190 C2191 1.396 . S
C2190 C2195 1.390 . S
C2191 C2185 1.467 . S
C2191 C2190 1.396 . S
C2191 C2192 1.399 1_455 S
C2192 H2178 0.929 . S
C2192 C2191 1.399 1_655 S
C2192 C2193 1.385 1_655 S
C2193 H2179 0.925 1_455 S
C2193 C2192 1.385 1_455 S
C2193 C2194 1.389 . S
C2194 C2193 1.389 . S
C2194 C2195 1.387 . S
C2195 H2180 0.930 . S
C2195 C2190 1.390 . S
C2195 C2194 1.387 . S
H2196 C2208 0.930 . S
H2197 C2210 0.930 . S
H2198 C2211 0.930 . S
H2199 C2215 0.959 . S
H2200 C2215 0.959 . S
H2201 C2215 0.961 . S
H2202 C2216 0.960 . S
H2203 C2216 0.961 . S
H2204 C2216 0.959 . S
H2205 C2219 0.929 . S
H2206 C2220 0.931 . S
H2207 C2222 0.930 . S
C2208 H2196 0.930 . S
C2208 C2209 1.399 . S
C2208 C2213 1.399 . S
C2209 C2208 1.399 . S
C2209 C2210 1.376 . S
C2210 H2197 0.930 . S
C2210 C2209 1.376 . S
C2210 C2211 1.388 . S
C2211 H2198 0.930 . S
C2211 C2210 1.388 . S
C2211 C2212 1.390 . S
C2212 C2211 1.390 . S
C2212 C2213 1.394 . S
C2212 C2218 1.465 . S
C2213 C2208 1.399 . S
C2213 C2212 1.394 . S
C2213 C2214 1.516 . S
C2214 C2213 1.516 . S
C2214 C2215 1.502 . S
C2214 C2216 1.561 . S
C2214 C2217 1.526 . S
C2215 H2199 0.959 . S
C2215 H2200 0.959 . S
C2215 H2201 0.961 . S
C2215 C2214 1.502 . S
C2216 H2202 0.960 . S
C2216 H2203 0.961 . S
C2216 H2204 0.959 . S
C2216 C2214 1.561 . S
C2217 C2214 1.526 . S
C2217 C2218 1.396 . S
C2217 C2222 1.390 . S
C2218 C2212 1.465 . S
C2218 C2217 1.396 . S
C2218 C2219 1.399 . S
C2219 H2205 0.929 . S
C2219 C2218 1.399 . S
C2219 C2220 1.385 . S
C2220 H2206 0.931 . S
C2220 C2219 1.385 . S
C2220 C2221 1.389 . S
C2221 C2220 1.389 . S
C2221 C2222 1.387 . S
C2222 H2207 0.930 . S
C2222 C2217 1.390 . S
C2222 C2221 1.387 . S
H2223 C2235 0.930 . S
H2224 C2237 0.930 . S
H2225 C2238 0.930 . S
H2226 C2242 0.959 . S
H2227 C2242 0.959 . S
H2228 C2242 0.961 . S
H2229 C2243 0.960 . S
H2230 C2243 0.961 . S
H2231 C2243 0.959 . S
H2232 C2246 0.929 . S
H2233 C2247 0.931 . S
H2234 C2249 0.930 . S
C2235 H2223 0.930 . S
C2235 C2236 1.399 . S
C2235 C2240 1.399 . S
C2236 C2235 1.399 . S
C2236 C2237 1.376 . S
C2237 H2224 0.930 . S
C2237 C2236 1.376 . S
C2237 C2238 1.388 . S
C2238 H2225 0.930 . S
C2238 C2237 1.388 . S
C2238 C2239 1.390 . S
C2239 C2238 1.390 . S
C2239 C2240 1.394 . S
C2239 C2245 1.465 . S
C2240 C2235 1.399 . S
C2240 C2239 1.394 . S
C2240 C2241 1.516 . S
C2241 C2240 1.516 . S
C2241 C2242 1.502 . S
C2241 C2243 1.561 . S
C2241 C2244 1.526 . S
C2242 H2226 0.959 . S
C2242 H2227 0.959 . S
C2242 H2228 0.961 . S
C2242 C2241 1.502 . S
C2243 H2229 0.960 . S
C2243 H2230 0.961 . S
C2243 H2231 0.959 . S
C2243 C2241 1.561 . S
C2244 C2241 1.526 . S
C2244 C2245 1.396 . S
C2244 C2249 1.390 . S
C2245 C2239 1.465 . S
C2245 C2244 1.396 . S
C2245 C2246 1.399 . S
C2246 H2232 0.929 . S
C2246 C2245 1.399 . S
C2246 C2247 1.385 . S
C2247 H2233 0.931 . S
C2247 C2246 1.385 . S
C2247 C2248 1.389 . S
C2248 C2247 1.389 . S
C2248 C2249 1.387 . S
C2249 H2234 0.930 . S
C2249 C2244 1.390 . S
C2249 C2248 1.387 . S
H2250 C2262 0.930 . S
H2251 C2264 0.930 . S
H2252 C2265 0.930 . S
H2253 C2269 0.959 . S
H2254 C2269 0.959 . S
H2255 C2269 0.961 . S
H2256 C2270 0.960 . S
H2257 C2270 0.961 . S
H2258 C2270 0.959 . S
H2259 C2273 0.929 . S
H2260 C2274 0.931 . S
H2261 C2276 0.922 1_545 S
C2262 H2250 0.930 . S
C2262 C2263 1.399 1_545 S
C2262 C2267 1.399 . S
C2263 C2262 1.399 1_565 S
C2263 C2264 1.376 . S
C2264 H2251 0.930 . S
C2264 C2263 1.376 . S
C2264 C2265 1.388 . S
C2265 H2252 0.930 . S
C2265 C2264 1.388 . S
C2265 C2266 1.390 . S
C2266 C2265 1.390 . S
C2266 C2267 1.394 1_565 S
C2266 C2272 1.465 . S
C2267 C2262 1.399 . S
C2267 C2266 1.394 1_545 S
C2267 C2268 1.516 . S
C2268 C2267 1.516 . S
C2268 C2269 1.502 . S
C2268 C2270 1.561 . S
C2268 C2271 1.526 1_545 S
C2269 H2253 0.959 . S
C2269 H2254 0.959 . S
C2269 H2255 0.961 . S
C2269 C2268 1.502 . S
C2270 H2256 0.960 . S
C2270 H2257 0.961 . S
C2270 H2258 0.959 . S
C2270 C2268 1.561 . S
C2271 C2268 1.526 1_565 S
C2271 C2272 1.396 . S
C2271 C2276 1.391 . S
C2272 C2266 1.465 . S
C2272 C2271 1.396 . S
C2272 C2273 1.399 . S
C2273 H2259 0.929 . S
C2273 C2272 1.399 . S
C2273 C2274 1.385 . S
C2274 H2260 0.931 . S
C2274 C2273 1.385 . S
C2274 C2275 1.389 . S
C2275 C2274 1.389 . S
C2275 C2276 1.394 . S
C2276 H2261 0.922 1_565 S
C2276 C2271 1.391 . S
C2276 C2275 1.394 . S
H2277 C2289 0.930 . S
H2278 C2291 0.930 . S
H2279 C2292 0.930 . S
H2280 C2296 0.959 . S
H2281 C2296 0.959 . S
H2282 C2296 0.961 . S
H2283 C2297 0.960 . S
H2284 C2297 0.961 . S
H2285 C2297 0.959 . S
H2286 C2300 0.929 . S
H2287 C2301 0.931 . S
H2288 C2303 0.930 . S
C2289 H2277 0.930 . S
C2289 C2290 1.399 . S
C2289 C2294 1.399 . S
C2290 C2289 1.399 . S
C2290 C2291 1.376 . S
C2291 H2278 0.930 . S
C2291 C2290 1.376 . S
C2291 C2292 1.388 . S
C2292 H2279 0.930 . S
C2292 C2291 1.388 . S
C2292 C2293 1.390 . S
C2293 C2292 1.390 . S
C2293 C2294 1.394 . S
C2293 C2299 1.465 . S
C2294 C2289 1.399 . S
C2294 C2293 1.394 . S
C2294 C2295 1.516 . S
C2295 C2294 1.516 . S
C2295 C2296 1.502 . S
C2295 C2297 1.561 1_545 S
C2295 C2298 1.526 . S
C2296 H2280 0.959 . S
C2296 H2281 0.959 . S
C2296 H2282 0.961 . S
C2296 C2295 1.502 . S
C2297 H2283 0.960 . S
C2297 H2284 0.961 . S
C2297 H2285 0.959 . S
C2297 C2295 1.561 1_565 S
C2298 C2295 1.526 . S
C2298 C2299 1.396 . S
C2298 C2303 1.390 . S
C2299 C2293 1.465 . S
C2299 C2298 1.396 . S
C2299 C2300 1.399 . S
C2300 H2286 0.929 . S
C2300 C2299 1.399 . S
C2300 C2301 1.385 . S
C2301 H2287 0.931 . S
C2301 C2300 1.385 . S
C2301 C2302 1.389 . S
C2302 C2301 1.389 . S
C2302 C2303 1.387 . S
C2303 H2288 0.930 . S
C2303 C2298 1.390 . S
C2303 C2302 1.387 . S
H2304 C2316 0.930 . S
H2305 C2318 0.930 . S
H2306 C2319 0.930 . S
H2307 C2323 0.959 . S
H2308 C2323 0.959 . S
H2309 C2323 0.961 . S
H2310 C2324 0.960 . S
H2311 C2324 0.961 . S
H2312 C2324 0.959 . S
H2313 C2327 0.929 . S
H2314 C2328 0.931 . S
H2315 C2330 0.930 . S
C2316 H2304 0.930 . S
C2316 C2317 1.399 . S
C2316 C2321 1.399 . S
C2317 C2316 1.399 . S
C2317 C2318 1.376 . S
C2318 H2305 0.930 . S
C2318 C2317 1.376 . S
C2318 C2319 1.388 . S
C2319 H2306 0.930 . S
C2319 C2318 1.388 . S
C2319 C2320 1.390 . S
C2320 C2319 1.390 . S
C2320 C2321 1.394 . S
C2320 C2326 1.465 . S
C2321 C2316 1.399 . S
C2321 C2320 1.394 . S
C2321 C2322 1.516 . S
C2322 C2321 1.516 . S
C2322 C2323 1.502 . S
C2322 C2324 1.561 . S
C2322 C2325 1.526 . S
C2323 H2307 0.959 . S
C2323 H2308 0.959 . S
C2323 H2309 0.961 . S
C2323 C2322 1.502 . S
C2324 H2310 0.960 . S
C2324 H2311 0.961 . S
C2324 H2312 0.959 . S
C2324 C2322 1.561 . S
C2325 C2322 1.526 . S
C2325 C2326 1.396 . S
C2325 C2330 1.390 . S
C2326 C2320 1.465 . S
C2326 C2325 1.396 . S
C2326 C2327 1.399 . S
C2327 H2313 0.929 . S
C2327 C2326 1.399 . S
C2327 C2328 1.385 . S
C2328 H2314 0.931 . S
C2328 C2327 1.385 . S
C2328 C2329 1.389 . S
C2329 C2328 1.389 . S
C2329 C2330 1.387 . S
C2330 H2315 0.930 . S
C2330 C2325 1.390 . S
C2330 C2329 1.387 . S
H2331 C2343 0.930 . S
H2332 C2345 0.930 . S
H2333 C2346 0.930 . S
H2334 C2350 0.959 . S
H2335 C2350 0.959 . S
H2336 C2350 0.961 . S
H2337 C2351 0.960 . S
H2338 C2351 0.961 . S
H2339 C2351 0.959 . S
H2340 C2354 0.929 . S
H2341 C2355 0.931 . S
H2342 C2357 0.942 . S
C2343 H2331 0.930 . S
C2343 C2344 1.399 1_556 S
C2343 C2348 1.399 1_556 S
C2344 C2343 1.399 1_554 S
C2344 C2345 1.376 . S
C2345 H2332 0.930 . S
C2345 C2344 1.376 . S
C2345 C2346 1.388 . S
C2346 H2333 0.930 . S
C2346 C2345 1.388 . S
C2346 C2347 1.390 . S
C2347 C2346 1.390 . S
C2347 C2348 1.394 . S
C2347 C2353 1.465 . S
C2348 C2343 1.399 1_554 S
C2348 C2347 1.394 . S
C2348 C2349 1.516 1_554 S
C2349 C2348 1.516 1_556 S
C2349 C2350 1.502 . S
C2349 C2351 1.561 . S
C2349 C2352 1.526 1_556 S
C2350 H2334 0.959 . S
C2350 H2335 0.959 . S
C2350 H2336 0.961 . S
C2350 C2349 1.502 . S
C2351 H2337 0.960 . S
C2351 H2338 0.961 . S
C2351 H2339 0.959 . S
C2351 C2349 1.561 . S
C2352 C2349 1.526 1_554 S
C2352 C2353 1.396 . S
C2352 C2357 1.390 . S
C2353 C2347 1.465 . S
C2353 C2352 1.396 . S
C2353 C2354 1.399 . S
C2354 H2340 0.929 . S
C2354 C2353 1.399 . S
C2354 C2355 1.385 . S
C2355 H2341 0.931 . S
C2355 C2354 1.385 . S
C2355 C2356 1.389 . S
C2356 C2355 1.389 . S
C2356 C2357 1.387 . S
C2357 H2342 0.942 . S
C2357 C2352 1.390 . S
C2357 C2356 1.387 . S
H2358 C2370 0.930 . S
H2359 C2372 0.930 . S
H2360 C2373 0.930 . S
H2361 C2377 0.959 . S
H2362 C2377 0.959 . S
H2363 C2377 0.961 . S
H2364 C2378 0.960 . S
H2365 C2378 0.961 . S
H2366 C2378 0.959 . S
H2367 C2381 0.929 . S
H2368 C2382 0.931 . S
H2369 C2384 0.930 . S
C2370 H2358 0.930 . S
C2370 C2371 1.399 . S
C2370 C2375 1.399 . S
C2371 C2370 1.399 . S
C2371 C2372 1.376 . S
C2372 H2359 0.930 . S
C2372 C2371 1.376 . S
C2372 C2373 1.388 . S
C2373 H2360 0.930 . S
C2373 C2372 1.388 . S
C2373 C2374 1.390 . S
C2374 C2373 1.390 . S
C2374 C2375 1.394 . S
C2374 C2380 1.465 . S
C2375 C2370 1.399 . S
C2375 C2374 1.394 . S
C2375 C2376 1.516 . S
C2376 C2375 1.516 . S
C2376 C2377 1.502 . S
C2376 C2378 1.561 . S
C2376 C2379 1.526 . S
C2377 H2361 0.959 . S
C2377 H2362 0.959 . S
C2377 H2363 0.961 . S
C2377 C2376 1.502 . S
C2378 H2364 0.960 . S
C2378 H2365 0.961 . S
C2378 H2366 0.959 . S
C2378 C2376 1.561 . S
C2379 C2376 1.526 . S
C2379 C2380 1.396 . S
C2379 C2384 1.390 . S
C2380 C2374 1.465 . S
C2380 C2379 1.396 . S
C2380 C2381 1.399 . S
C2381 H2367 0.929 . S
C2381 C2380 1.399 . S
C2381 C2382 1.385 . S
C2382 H2368 0.931 . S
C2382 C2381 1.385 . S
C2382 C2383 1.389 . S
C2383 C2382 1.389 . S
C2383 C2384 1.387 . S
C2384 H2369 0.930 . S
C2384 C2379 1.390 . S
C2384 C2383 1.387 . S
H2385 C2397 0.930 . S
H2386 C2399 0.930 . S
H2387 C2400 0.930 . S
H2388 C2404 0.959 . S
H2389 C2404 0.959 . S
H2390 C2404 0.961 . S
H2391 C2405 0.960 . S
H2392 C2405 0.961 . S
H2393 C2405 0.959 . S
H2394 C2408 0.929 . S
H2395 C2409 0.931 . S
H2396 C2411 0.892 1_554 S
C2397 H2385 0.930 . S
C2397 C2398 1.399 1_554 S
C2397 C2402 1.399 . S
C2398 C2397 1.399 1_556 S
C2398 C2399 1.376 . S
C2399 H2386 0.930 . S
C2399 C2398 1.376 . S
C2399 C2400 1.388 . S
C2400 H2387 0.930 . S
C2400 C2399 1.388 . S
C2400 C2401 1.390 . S
C2401 C2400 1.390 . S
C2401 C2402 1.394 1_556 S
C2401 C2407 1.465 . S
C2402 C2397 1.399 . S
C2402 C2401 1.394 1_554 S
C2402 C2403 1.516 . S
C2403 C2402 1.516 . S
C2403 C2404 1.502 . S
C2403 C2405 1.561 . S
C2403 C2406 1.526 1_554 S
C2404 H2388 0.959 . S
C2404 H2389 0.959 . S
C2404 H2390 0.961 . S
C2404 C2403 1.502 . S
C2405 H2391 0.960 . S
C2405 H2392 0.961 . S
C2405 H2393 0.959 . S
C2405 C2403 1.561 . S
C2406 C2403 1.526 1_556 S
C2406 C2407 1.396 . S
C2406 C2411 1.397 . S
C2407 C2401 1.465 . S
C2407 C2406 1.396 . S
C2407 C2408 1.399 . S
C2408 H2394 0.929 . S
C2408 C2407 1.399 . S
C2408 C2409 1.385 . S
C2409 H2395 0.931 . S
C2409 C2408 1.385 . S
C2409 C2410 1.389 . S
C2410 C2409 1.389 . S
C2410 C2411 1.420 . S
C2411 H2396 0.892 1_556 S
C2411 C2406 1.397 . S
C2411 C2410 1.420 . S
H2412 C2424 0.930 . S
H2413 C2426 0.930 . S
H2414 C2427 0.930 . S
H2415 C2431 0.959 . S
H2416 C2431 0.959 . S
H2417 C2431 0.961 . S
H2418 C2432 0.960 . S
H2419 C2432 0.961 . S
H2420 C2432 0.959 . S
H2421 C2435 0.929 . S
H2422 C2436 0.931 . S
H2423 C2438 0.930 . S
C2424 H2412 0.930 . S
C2424 C2425 1.399 . S
C2424 C2429 1.399 . S
C2425 C2424 1.399 . S
C2425 C2426 1.376 . S
C2426 H2413 0.930 . S
C2426 C2425 1.376 . S
C2426 C2427 1.388 . S
C2427 H2414 0.930 . S
C2427 C2426 1.388 . S
C2427 C2428 1.390 . S
C2428 C2427 1.390 . S
C2428 C2429 1.394 . S
C2428 C2434 1.465 . S
C2429 C2424 1.399 . S
C2429 C2428 1.394 . S
C2429 C2430 1.516 . S
C2430 C2429 1.516 . S
C2430 C2431 1.502 . S
C2430 C2432 1.561 . S
C2430 C2433 1.526 . S
C2431 H2415 0.959 . S
C2431 H2416 0.959 . S
C2431 H2417 0.961 . S
C2431 C2430 1.502 . S
C2432 H2418 0.960 . S
C2432 H2419 0.961 . S
C2432 H2420 0.959 . S
C2432 C2430 1.561 . S
C2433 C2430 1.526 . S
C2433 C2434 1.396 . S
C2433 C2438 1.390 . S
C2434 C2428 1.465 . S
C2434 C2433 1.396 . S
C2434 C2435 1.399 . S
C2435 H2421 0.929 . S
C2435 C2434 1.399 . S
C2435 C2436 1.385 . S
C2436 H2422 0.931 . S
C2436 C2435 1.385 . S
C2436 C2437 1.389 . S
C2437 C2436 1.389 . S
C2437 C2438 1.387 . S
C2438 H2423 0.930 . S
C2438 C2433 1.390 . S
C2438 C2437 1.387 . S
H2439 C2451 0.930 . S
H2440 C2453 0.930 . S
H2441 C2454 0.930 . S
H2442 C2458 0.959 . S
H2443 C2458 0.959 . S
H2444 C2458 0.961 . S
H2445 C2459 0.960 . S
H2446 C2459 0.961 . S
H2447 C2459 0.959 . S
H2448 C2462 0.929 . S
H2449 C2463 0.931 . S
H2450 C2465 0.930 . S
C2451 H2439 0.930 . S
C2451 C2452 1.399 . S
C2451 C2456 1.399 . S
C2452 C2451 1.399 . S
C2452 C2453 1.376 . S
C2453 H2440 0.930 . S
C2453 C2452 1.376 . S
C2453 C2454 1.388 . S
C2454 H2441 0.930 . S
C2454 C2453 1.388 . S
C2454 C2455 1.390 . S
C2455 C2454 1.390 . S
C2455 C2456 1.394 . S
C2455 C2461 1.465 . S
C2456 C2451 1.399 . S
C2456 C2455 1.394 . S
C2456 C2457 1.516 . S
C2457 C2456 1.516 . S
C2457 C2458 1.502 1_455 S
C2457 C2459 1.561 . S
C2457 C2460 1.526 . S
C2458 H2442 0.959 . S
C2458 H2443 0.959 . S
C2458 H2444 0.961 . S
C2458 C2457 1.502 1_655 S
C2459 H2445 0.960 . S
C2459 H2446 0.961 . S
C2459 H2447 0.959 . S
C2459 C2457 1.561 . S
C2460 C2457 1.526 . S
C2460 C2461 1.396 . S
C2460 C2465 1.390 . S
C2461 C2455 1.465 . S
C2461 C2460 1.396 . S
C2461 C2462 1.399 . S
C2462 H2448 0.929 . S
C2462 C2461 1.399 . S
C2462 C2463 1.385 . S
C2463 H2449 0.931 . S
C2463 C2462 1.385 . S
C2463 C2464 1.389 . S
C2464 C2463 1.389 . S
C2464 C2465 1.387 . S
C2465 H2450 0.930 . S
C2465 C2460 1.390 . S
C2465 C2464 1.387 . S
H2466 C2478 0.930 . S
H2467 C2480 0.930 . S
H2468 C2481 0.930 . S
H2469 C2485 0.959 . S
H2470 C2485 0.959 . S
H2471 C2485 0.961 . S
H2472 C2486 0.960 . S
H2473 C2486 0.961 . S
H2474 C2486 0.959 . S
H2475 C2489 0.929 . S
H2476 C2490 0.931 . S
H2477 C2492 0.930 . S
C2478 H2466 0.930 . S
C2478 C2479 1.399 . S
C2478 C2483 1.399 . S
C2479 C2478 1.399 . S
C2479 C2480 1.376 . S
C2480 H2467 0.930 . S
C2480 C2479 1.376 . S
C2480 C2481 1.388 . S
C2481 H2468 0.930 . S
C2481 C2480 1.388 . S
C2481 C2482 1.390 . S
C2482 C2481 1.390 . S
C2482 C2483 1.394 . S
C2482 C2488 1.465 . S
C2483 C2478 1.399 . S
C2483 C2482 1.394 . S
C2483 C2484 1.516 . S
C2484 C2483 1.516 . S
C2484 C2485 1.502 . S
C2484 C2486 1.561 . S
C2484 C2487 1.526 . S
C2485 H2469 0.959 . S
C2485 H2470 0.959 . S
C2485 H2471 0.961 . S
C2485 C2484 1.502 . S
C2486 H2472 0.960 . S
C2486 H2473 0.961 . S
C2486 H2474 0.959 . S
C2486 C2484 1.561 . S
C2487 C2484 1.526 . S
C2487 C2488 1.396 . S
C2487 C2492 1.390 . S
C2488 C2482 1.465 . S
C2488 C2487 1.396 . S
C2488 C2489 1.399 . S
C2489 H2475 0.929 . S
C2489 C2488 1.399 . S
C2489 C2490 1.385 . S
C2490 H2476 0.931 . S
C2490 C2489 1.385 . S
C2490 C2491 1.389 . S
C2491 C2490 1.389 . S
C2491 C2492 1.387 . S
C2492 H2477 0.930 . S
C2492 C2487 1.390 . S
C2492 C2491 1.387 . S
H2493 C2505 0.930 . S
H2494 C2507 0.930 . S
H2495 C2508 0.930 . S
H2496 C2512 0.959 . S
H2497 C2512 0.959 . S
H2498 C2512 0.961 . S
H2499 C2513 0.960 . S
H2500 C2513 0.961 . S
H2501 C2513 0.959 1_455 S
H2502 C2516 0.929 . S
H2503 C2517 0.932 1_455 S
H2504 C2519 0.930 . S
C2505 H2493 0.930 . S
C2505 C2506 1.399 . S
C2505 C2510 1.399 . S
C2506 C2505 1.399 . S
C2506 C2507 1.376 1_655 S
C2507 H2494 0.930 . S
C2507 C2506 1.376 1_455 S
C2507 C2508 1.388 . S
C2508 H2495 0.930 . S
C2508 C2507 1.388 . S
C2508 C2509 1.371 1_455 S
C2509 C2508 1.371 1_655 S
C2509 C2510 1.419 . S
C2509 C2515 1.467 . S
C2510 C2505 1.399 . S
C2510 C2509 1.419 . S
C2510 C2511 1.516 . S
C2511 C2510 1.516 . S
C2511 C2512 1.502 . S
C2511 C2513 1.561 . S
C2511 C2514 1.526 . S
C2512 H2496 0.959 . S
C2512 H2497 0.959 . S
C2512 H2498 0.961 . S
C2512 C2511 1.502 . S
C2513 H2499 0.960 . S
C2513 H2500 0.961 . S
C2513 H2501 0.959 1_655 S
C2513 C2511 1.561 . S
C2514 C2511 1.526 . S
C2514 C2515 1.396 . S
C2514 C2519 1.390 . S
C2515 C2509 1.467 . S
C2515 C2514 1.396 . S
C2515 C2516 1.399 1_655 S
C2516 H2502 0.929 . S
C2516 C2515 1.399 1_455 S
C2516 C2517 1.385 1_455 S
C2517 H2503 0.932 1_655 S
C2517 C2516 1.385 1_655 S
C2517 C2518 1.389 . S
C2518 C2517 1.389 . S
C2518 C2519 1.387 . S
C2519 H2504 0.930 . S
C2519 C2514 1.390 . S
C2519 C2518 1.387 . S
C601 C571 1.578 . S
C589 C8 1.563 . S
C628 C532 1.476 . S
C616 C19 1.490 . S
C655 C558 1.266 . S
C643 C30 1.236 . S
C682 C545 1.582 1_655 S
C670 C41 1.542 1_565 S
C709 C454 1.580 . S
C697 C52 1.564 . S
C724 C63 1.583 1_556 S
C736 C467 1.566 1_565 S
C763 C428 1.452 . S
C751 C74 1.472 . S
C778 C85 1.265 . S
C790 C441 1.194 . S
C817 C519 1.581 . S
C805 C96 1.588 . S
C832 C107 1.547 1_655 S
C844 C493 1.575 1_556 S
C859 C118 1.489 . S
C871 C480 1.485 . S
C898 C506 1.214 . S
C886 C129 1.244 . S
C925 C415 1.588 . S
C913 C140 1.578 . S
C940 C151 1.372 . S
C952 C376 1.454 . S
C979 C402 1.242 . S
C967 C162 1.225 . S
C994 C173 1.530 . S
C1006 C389 1.589 1_455 S
C1033 C298 1.589 . S
C1021 C184 1.578 . S
C1060 C311 1.596 1_545 S
C1048 C195 1.567 . S
C1075 C206 1.365 . S
C1087 C272 1.450 . S
C1102 C217 1.196 . S
C1114 C285 1.201 . S
C1129 C228 1.555 . S
C1141 C363 1.574 . S
C1156 C239 1.529 . S
C1168 C337 1.568 1_554 S
C1195 C324 1.453 . S
C1183 C250 1.375 . S
C1210 C261 1.243 . S
C1222 C350 1.254 . S
C1249 C273 1.429 . S
C1237 C7 1.421 . S
C1276 C286 1.386 . S
C1264 C18 1.377 . S
C1291 C29 1.308 . S
C1303 C299 1.293 . S
C1318 C40 1.178 . S
C1330 C312 1.154 . S
C1357 C325 1.413 . S
C1345 C51 1.414 . S
C1372 C62 1.137 . S
C1384 C338 1.167 . S
C1411 C351 1.396 . S
C1399 C73 1.417 . S
C1438 C364 1.278 . S
C1426 C84 1.265 . S
C1465 C377 1.391 . S
C1453 C95 1.413 . S
C1480 C106 1.136 . S
C1492 C390 1.157 . S
C1507 C117 1.414 . S
C1519 C403 1.399 . S
C1534 C128 1.315 . S
C1546 C416 1.316 . S
C1561 C139 1.344 . S
C1573 C429 1.443 . S
C1588 C150 1.292 . S
C1600 C442 1.404 . S
C1615 C161 1.267 . S
C1627 C455 1.274 . S
C1642 C172 1.108 . S
C1654 C468 1.185 . S
C1669 C183 1.333 . S
C1681 C481 1.431 . S
C1708 C494 1.177 . S
C1696 C194 1.144 . S
C1735 C507 1.357 . S
C1723 C205 1.357 . S
C1762 C520 1.311 . S
C1750 C216 1.283 . S
C1789 C533 1.415 . S
C1777 C227 1.334 . S
C1804 C238 1.068 . S
C1816 C546 1.165 . S
C1831 C249 1.355 . S
C1843 C559 1.361 . S
C1858 C260 1.298 . S
C1870 C572 1.299 . S
C1885 C5 1.283 . S
C1897 C372 1.430 . S
C1924 C411 1.478 . S
C1912 C16 1.471 . S
C1939 C27 1.243 1_545 S
C1951 C385 1.266 . S
C1978 C398 1.583 . S
C1966 C38 1.342 1_565 S
C1993 C49 1.381 . S
C2005 C268 1.405 . S
C2020 C60 1.401 1_556 S
C2032 C281 1.522 . S
C2047 C71 1.404 . S
C2059 C294 1.516 . S
C2074 C82 1.228 1_554 S
C2086 C307 1.353 . S
C2113 C320 1.428 . S
C2101 C93 1.406 . S
C2140 C346 1.541 . S
C2128 C104 1.454 1_655 S
C2155 C115 1.474 . S
C2167 C359 1.461 . S
C2182 C126 1.178 1_455 S
C2194 C333 1.330 . S
C2221 C528 1.461 . S
C2209 C137 1.322 . S
C2248 C567 1.441 . S
C2236 C148 1.139 . S
C2263 C159 1.175 . S
C2275 C541 1.224 . S
C2302 C554 1.489 . S
C2290 C170 1.296 . S
C2317 C181 1.288 . S
C2329 C424 1.473 . S
C2344 C192 1.172 . S
C2356 C437 1.468 . S
C2371 C203 1.125 . S
C2383 C450 1.392 . S
C2410 C463 1.226 . S
C2398 C214 1.188 . S
C2437 C476 1.423 . S
C2425 C225 1.319 . S
C2464 C502 1.518 . S
C2452 C236 1.145 . S
C2479 C247 1.285 . S
C2491 C515 1.442 . S
C2518 C489 1.289 . S
C2506 C258 1.270 . S
