# Generated by pormake.
# Topology rtl, (3,6)-cn, num edge types: 1
# Building blocks:
#     Node 0, Type 0, BuildingBlock: VETTIZ_charged_linker_0, # of connection points: 3
#     Node 1, Type 0, BuildingBlock: VETTIZ_charged_linker_0, # of connection points: 3
#     Node 2, Type 0, BuildingBlock: VETTIZ_charged_linker_0, # of connection points: 3
#     Node 3, Type 0, BuildingBlock: VETTIZ_charged_linker_0, # of connection points: 3
#     Node 4, Type 1, BuildingBlock: FUNLAD_clean_sbu_0, # of connection points: 6
#     Node 5, Type 1, BuildingBlock: FUNLAD_clean_sbu_0, # of connection points: 6
#     Edge 6, Type (0, 1), BuildingBlock: KIFKEQ_clean_linker_1, # of connection points: 2
#     Edge 7, Type (0, 1), BuildingBlock: KIFKEQ_clean_linker_1, # of connection points: 2
#     Edge 8, Type (0, 1), BuildingBlock: KIFKEQ_clean_linker_1, # of connection points: 2
#     Edge 9, Type (0, 1), BuildingBlock: KIFKEQ_clean_linker_1, # of connection points: 2
#     Edge 10, Type (0, 1), BuildingBlock: KIFKEQ_clean_linker_1, # of connection points: 2
#     Edge 11, Type (0, 1), BuildingBlock: KIFKEQ_clean_linker_1, # of connection points: 2
#     Edge 12, Type (0, 1), BuildingBlock: KIFKEQ_clean_linker_1, # of connection points: 2
#     Edge 13, Type (0, 1), BuildingBlock: KIFKEQ_clean_linker_1, # of connection points: 2
#     Edge 14, Type (0, 1), BuildingBlock: KIFKEQ_clean_linker_1, # of connection points: 2
#     Edge 15, Type (0, 1), BuildingBlock: KIFKEQ_clean_linker_1, # of connection points: 2
#     Edge 16, Type (0, 1), BuildingBlock: KIFKEQ_clean_linker_1, # of connection points: 2
#     Edge 17, Type (0, 1), BuildingBlock: KIFKEQ_clean_linker_1, # of connection points: 2
# Relax obj value: 0.029
# Max RMSD: 0.095
# Mean RMSD: 0.081
data_MOF--net-rtl--node1-FUNLAD_clean_sbu_0--node2-VETTIZ_charged_linker_0--edge1-KIFKEQ_clean_linker_1
_symmetry_space_group_name_H-M    P1
_symmetry_Int_Tables_number       1
_symmetry_cell_setting            triclinic
loop_
_symmetry_equiv_pos_as_xyz
'x, y, z'
_cell_length_a     49.307207
_cell_length_b     40.024291
_cell_length_c     28.695488
_cell_angle_alpha  89.91236
_cell_angle_beta   90.885501
_cell_angle_gamma 90.535671
loop_
_atom_site_label
_atom_site_type_symbol
_atom_site_fract_x
_atom_site_fract_y
_atom_site_fract_z
_atom_type_partial_charge
C0 C 0.09345 0.79224 0.84992 0.0
C1 C 0.07047 0.81247 0.84461 0.0
C2 C 0.05471 0.81976 0.88367 0.0
C3 C 0.08632 0.78982 0.93336 0.0
C4 C 0.10074 0.78075 0.89453 0.0
C5 C 0.12422 0.75845 0.90684 0.0
H6 H 0.20778 0.69381 0.07225 0.0
C7 C 0.10045 0.77638 0.97491 0.0
C8 C 0.12235 0.75735 0.9597 0.0
H9 H 0.20915 0.67755 0.9235 0.0
H10 H 0.16848 0.71021 0.91357 0.0
H11 H 0.18973 0.77254 0.06823 0.0
H12 H 0.14429 0.68059 0.08178 0.0
H13 H 0.1288 0.71035 0.11727 0.0
H14 H 0.16334 0.69814 0.12975 0.0
H15 H 0.19205 0.74607 0.1187 0.0
H16 H 0.16613 0.7772 0.11309 0.0
C17 C 0.15064 0.77587 0.89077 0.0
C18 C 0.11895 0.72366 0.8845 0.0
C19 C 0.07436 0.81826 0.13449 0.0
C20 C 0.08523 0.81336 0.17944 0.0
C21 C 0.10631 0.79021 0.186 0.0
C22 C 0.11722 0.77333 0.14785 0.0
C23 C 0.10691 0.77966 0.10273 0.0
C24 C 0.08539 0.80122 0.09688 0.0
C25 C 0.07667 0.80469 0.04675 0.0
C26 C 0.09691 0.78221 0.02319 0.0
C27 C 0.11476 0.76789 0.05602 0.0
C28 C 0.08041 0.84185 0.03271 0.0
C29 C 0.04717 0.79124 0.04139 0.0
C30 C 0.19929 0.69746 0.0376 0.0
C31 C 0.21169 0.68346 0.99852 0.0
C32 C 0.19984 0.6881 0.95403 0.0
C33 C 0.17632 0.70714 0.94834 0.0
C34 C 0.16441 0.72155 0.98757 0.0
C35 C 0.17554 0.71602 0.03139 0.0
C36 C 0.15928 0.73195 0.06919 0.0
C37 C 0.13666 0.74805 0.04077 0.0
C38 C 0.14013 0.7424 0.99292 0.0
C39 C 0.17762 0.75824 0.09404 0.0
C40 C 0.14842 0.70402 0.10159 0.0
H41 H 0.05008 0.81561 0.95664 0.0
H42 H 0.10554 0.78585 0.82009 0.0
H43 H 0.097 0.71924 0.87703 0.0
H44 H 0.12488 0.70295 0.90806 0.0
H45 H 0.12979 0.72113 0.85106 0.0
H46 H 0.15095 0.80256 0.90158 0.0
H47 H 0.15225 0.77506 0.85221 0.0
H48 H 0.16912 0.76477 0.90606 0.0
H49 H 0.05781 0.83545 0.12862 0.0
H50 H 0.11496 0.78604 0.22043 0.0
H51 H 0.13362 0.75652 0.15483 0.0
H52 H 0.10024 0.85171 0.046 0.0
H53 H 0.06417 0.85746 0.04755 0.0
H54 H 0.08061 0.84594 0.99478 0.0
H55 H 0.04212 0.77301 0.06933 0.0
H56 H 0.04389 0.7772 0.00851 0.0
H57 H 0.03224 0.81179 0.04311 0.0
H58 H 0.0369 0.83527 0.88007 0.0
C59 C 0.06251 0.80854 0.92804 0.0
C60 C 0.58477 0.72389 0.66903 0.0
C61 C 0.56305 0.70098 0.67288 0.0
C62 C 0.54949 0.69009 0.63193 0.0
C63 C 0.58095 0.72152 0.58468 0.0
C64 C 0.59341 0.73371 0.62469 0.0
C65 C 0.6173 0.75605 0.61402 0.0
H66 H 0.70846 0.81023 0.4568 0.0
C67 C 0.59665 0.73321 0.54436 0.0
C68 C 0.61796 0.75353 0.56117 0.0
H69 H 0.70299 0.83811 0.60212 0.0
H70 H 0.66223 0.80496 0.60908 0.0
H71 H 0.69225 0.73524 0.46667 0.0
H72 H 0.64346 0.82129 0.43521 0.0
H73 H 0.63315 0.7889 0.39737 0.0
H74 H 0.66749 0.8046 0.39525 0.0
H75 H 0.69235 0.75481 0.41037 0.0
H76 H 0.66796 0.72266 0.42478 0.0
C77 C 0.64291 0.74088 0.63735 0.0
C78 C 0.61081 0.79193 0.63047 0.0
C79 C 0.57339 0.68745 0.38381 0.0
C80 C 0.58694 0.68812 0.341 0.0
C81 C 0.61092 0.70751 0.33749 0.0
C82 C 0.62134 0.72529 0.37596 0.0
C83 C 0.60792 0.72343 0.41875 0.0
C84 C 0.58439 0.70469 0.42208 0.0
C85 C 0.57394 0.70334 0.47097 0.0
C86 C 0.59483 0.72497 0.49633 0.0
C87 C 0.61453 0.7369 0.46555 0.0
C88 C 0.57448 0.66637 0.48767 0.0
C89 C 0.54552 0.71945 0.47114 0.0
C90 C 0.6984 0.80971 0.49007 0.0
C91 C 0.70941 0.82665 0.52908 0.0
C92 C 0.69552 0.82472 0.57171 0.0
C93 C 0.67168 0.80565 0.57568 0.0
C94 C 0.66141 0.78832 0.53664 0.0
C95 C 0.67438 0.79118 0.49449 0.0
C96 C 0.65981 0.77236 0.45617 0.0
C97 C 0.63601 0.75767 0.48235 0.0
C98 C 0.63735 0.76656 0.52968 0.0
C99 C 0.67898 0.74492 0.43808 0.0
C100 C 0.65055 0.79787 0.41867 0.0
H101 H 0.54742 0.69055 0.55827 0.0
H102 H 0.59529 0.73325 0.6998 0.0
H103 H 0.58857 0.79632 0.63094 0.0
H104 H 0.61882 0.81129 0.60662 0.0
H105 H 0.61889 0.7966 0.66624 0.0
H106 H 0.64367 0.71351 0.63081 0.0
H107 H 0.64286 0.74476 0.67567 0.0
H108 H 0.662 0.75126 0.6238 0.0
H109 H 0.55477 0.67329 0.388 0.0
H110 H 0.62216 0.70822 0.30541 0.0
H111 H 0.6398 0.73919 0.37114 0.0
H112 H 0.58926 0.65135 0.46784 0.0
H113 H 0.55429 0.65416 0.4832 0.0
H114 H 0.58127 0.66379 0.52439 0.0
H115 H 0.54515 0.74221 0.44882 0.0
H116 H 0.53955 0.72797 0.50608 0.0
H117 H 0.52979 0.70185 0.45739 0.0
H118 H 0.53287 0.67226 0.6336 0.0
C119 C 0.5582 0.70038 0.58801 0.0
C120 C 0.91348 0.21438 0.15938 0.0
C121 C 0.93506 0.19166 0.16289 0.0
C122 C 0.94801 0.18156 0.12181 0.0
C123 C 0.91658 0.21403 0.07504 0.0
C124 C 0.90453 0.22509 0.11526 0.0
C125 C 0.88082 0.24754 0.10503 0.0
H126 H 0.79038 0.30841 0.94782 0.0
C127 C 0.90093 0.2271 0.03483 0.0
C128 C 0.87994 0.24679 0.05204 0.0
H129 H 0.79575 0.32857 0.09592 0.0
H130 H 0.83617 0.29552 0.10197 0.0
H131 H 0.85599 0.3201 0.9311 0.0
H132 H 0.80574 0.23282 0.95153 0.0
H133 H 0.8298 0.22257 0.90958 0.0
H134 H 0.80579 0.25532 0.89739 0.0
H135 H 0.83159 0.30569 0.88842 0.0
H136 H 0.86558 0.28955 0.8907 0.0
C137 C 0.88771 0.2829 0.12407 0.0
C138 C 0.85518 0.23132 0.12627 0.0
C139 C 0.92456 0.18938 0.87184 0.0
C140 C 0.91133 0.19253 0.82847 0.0
C141 C 0.88747 0.21148 0.82494 0.0
C142 C 0.87689 0.22714 0.86433 0.0
C143 C 0.89008 0.22328 0.90782 0.0
C144 C 0.91345 0.20452 0.91098 0.0
C145 C 0.92351 0.20072 0.96036 0.0
C146 C 0.90277 0.22106 0.98627 0.0
C147 C 0.88336 0.23442 0.95536 0.0
C148 C 0.95219 0.21666 0.96411 0.0
C149 C 0.92223 0.16303 0.97339 0.0
C150 C 0.80037 0.30615 0.98152 0.0
C151 C 0.78941 0.32088 0.02154 0.0
C152 C 0.80319 0.31688 0.06467 0.0
C153 C 0.82684 0.29783 0.06814 0.0
C154 C 0.83702 0.28258 0.02811 0.0
C155 C 0.82419 0.28749 0.98555 0.0
C156 C 0.83861 0.27045 0.94644 0.0
C157 C 0.86211 0.25443 0.97266 0.0
C158 C 0.86078 0.26115 0.02061 0.0
C159 C 0.8484 0.29764 0.91197 0.0
C160 C 0.81908 0.24401 0.92463 0.0
H161 H 0.94941 0.18361 0.04822 0.0
H162 H 0.90337 0.22311 0.19024 0.0
H163 H 0.85444 0.20407 0.11868 0.0
H164 H 0.83609 0.24143 0.1119 0.0
H165 H 0.85516 0.23445 0.16473 0.0
H166 H 0.91 0.28755 0.12526 0.0
H167 H 0.88009 0.28617 0.15998 0.0
H168 H 0.87956 0.30298 0.10146 0.0
H169 H 0.94256 0.17421 0.87558 0.0
H170 H 0.87696 0.21397 0.7917 0.0
H171 H 0.8586 0.24113 0.85956 0.0
H172 H 0.95311 0.24041 0.94396 0.0
H173 H 0.96772 0.19966 0.94994 0.0
H174 H 0.95805 0.22351 0.00018 0.0
H175 H 0.90683 0.14932 0.95185 0.0
H176 H 0.9158 0.1587 0.00966 0.0
H177 H 0.94206 0.15079 0.96804 0.0
H178 H 0.96448 0.16385 0.1232 0.0
C179 C 0.939 0.19275 0.07808 0.0
C180 C 0.41647 0.284 0.34176 0.0
C181 C 0.43734 0.30807 0.33781 0.0
C182 C 0.45014 0.32026 0.37874 0.0
C183 C 0.42003 0.28694 0.42611 0.0
C184 C 0.40818 0.27383 0.38615 0.0
C185 C 0.38549 0.24969 0.39691 0.0
H186 H 0.29885 0.18647 0.55525 0.0
C187 C 0.40546 0.27336 0.46655 0.0
C188 C 0.38536 0.25121 0.44988 0.0
H189 H 0.30156 0.16521 0.40751 0.0
H190 H 0.34211 0.19883 0.40107 0.0
H191 H 0.36253 0.17539 0.573 0.0
H192 H 0.31541 0.26414 0.54993 0.0
H193 H 0.33768 0.2711 0.59757 0.0
H194 H 0.31259 0.2384 0.601 0.0
H195 H 0.34305 0.19364 0.61853 0.0
H196 H 0.37746 0.207 0.60742 0.0
C197 C 0.39338 0.21465 0.37901 0.0
C198 C 0.35901 0.26359 0.37491 0.0
C199 C 0.42646 0.32033 0.62711 0.0
C200 C 0.41541 0.31459 0.67121 0.0
C201 C 0.3954 0.28954 0.67636 0.0
C202 C 0.38577 0.2714 0.63759 0.0
C203 C 0.39633 0.27837 0.5933 0.0
C204 C 0.41678 0.30193 0.58892 0.0
C205 C 0.42604 0.30567 0.5396 0.0
C206 C 0.40752 0.28074 0.51482 0.0
C207 C 0.38991 0.26516 0.54626 0.0
C208 C 0.45624 0.29528 0.53762 0.0
C209 C 0.42043 0.34213 0.52404 0.0
C210 C 0.30829 0.18858 0.52155 0.0
C211 C 0.29652 0.17351 0.48171 0.0
C212 C 0.30965 0.17722 0.4386 0.0
C213 C 0.33332 0.19664 0.4349 0.0
C214 C 0.3441 0.21263 0.47467 0.0
C215 C 0.33204 0.20771 0.51729 0.0
C216 C 0.3469 0.22566 0.55613 0.0
C217 C 0.36949 0.24279 0.52954 0.0
C218 C 0.36751 0.23545 0.48172 0.0
C219 C 0.35798 0.19927 0.59094 0.0
C220 C 0.32724 0.25111 0.57772 0.0
H221 H 0.45197 0.32049 0.45234 0.0
H222 H 0.40649 0.27374 0.31102 0.0
H223 H 0.35757 0.29095 0.38115 0.0
H224 H 0.34049 0.25265 0.38983 0.0
H225 H 0.35842 0.25948 0.33663 0.0
H226 H 0.41578 0.21139 0.37974 0.0
H227 H 0.3862 0.21069 0.34254 0.0
H228 H 0.38552 0.19425 0.40122 0.0
H229 H 0.44222 0.33903 0.62236 0.0
H230 H 0.38667 0.28471 0.71014 0.0
H231 H 0.37013 0.25313 0.64342 0.0
H232 H 0.46115 0.27622 0.56466 0.0
H233 H 0.47 0.31703 0.54359 0.0
H234 H 0.46135 0.2832 0.50428 0.0
H235 H 0.40094 0.35105 0.53837 0.0
H236 H 0.41809 0.34501 0.48598 0.0
H237 H 0.43675 0.35934 0.53663 0.0
H238 H 0.46601 0.33909 0.37696 0.0
C239 C 0.44173 0.3097 0.42269 0.0
C240 C 0.0184 0.96022 0.43754 0.0
N241 N 0.0596 0.03585 0.51099 0.0
C242 C 0.08158 0.01593 0.50617 0.0
C243 C 0.10762 0.02981 0.50485 0.0
C244 C 0.11121 0.06457 0.50905 0.0
C245 C 0.08814 0.08442 0.51516 0.0
C246 C 0.06243 0.06951 0.51573 0.0
Zn247 Zn 0.02168 0.01484 0.50853 0.0
C248 C 0.98592 0.04875 0.4388 0.0
N249 N 0.9428 0.97028 0.50109 0.0
C250 C 0.94001 0.93649 0.49807 0.0
C251 C 0.92075 0.99036 0.50408 0.0
C252 C 0.89469 0.9765 0.50539 0.0
C253 C 0.8913 0.94173 0.50269 0.0
C254 C 0.91427 0.92163 0.49839 0.0
Zn255 Zn 0.98075 0.99128 0.50368 0.0
O256 O 0.03381 0.9831 0.4539 0.0
C257 C 0.0165 0.9573 0.57314 0.0
O258 O 0.99446 0.95711 0.45286 0.0
H259 H 0.92337 0.01717 0.50605 0.0
H260 H 0.0789 0.98921 0.50252 0.0
H261 H 0.95778 0.92096 0.49611 0.0
O262 O 0.03368 0.97834 0.55791 0.0
O263 O 0.99225 0.95766 0.55747 0.0
H264 H 0.04469 0.08491 0.51947 0.0
O265 O 0.96772 0.02582 0.55416 0.0
O266 O 0.00885 0.0464 0.56338 0.0
O267 O 0.96981 0.02525 0.45023 0.0
O268 O 0.00911 0.05092 0.45863 0.0
C269 C 0.98398 0.04611 0.57433 0.0
H270 H 0.12466 0.01348 0.4994 0.0
H271 H 0.08985 0.11123 0.51942 0.0
H272 H 0.87737 0.99276 0.50837 0.0
H273 H 0.91238 0.89467 0.4966 0.0
C274 C 0.48198 0.46295 0.93262 0.0
N275 N 0.5583 0.4702 -0.00136 0.0
C276 C 0.55966 0.43649 0.99337 0.0
C277 C 0.58471 0.42056 0.99338 0.0
C278 C 0.60873 0.43934 -0.00041 0.0
C279 C 0.60671 0.47421 0.00431 0.0
C280 C 0.5812 0.48919 0.00352 0.0
Zn281 Zn 0.52089 0.49185 0.00182 0.0
C282 C 0.51585 0.55149 0.94114 0.0
N283 N 0.44246 0.53601 0.01055 0.0
C284 C 0.41988 0.51676 0.00329 0.0
C285 C 0.44054 0.5693 0.01938 0.0
C286 C 0.41518 0.58446 0.02122 0.0
C287 C 0.39164 0.56527 0.01303 0.0
C288 C 0.39415 0.53103 0.00394 0.0
Zn289 Zn 0.47998 0.51468 0.00702 0.0
O290 O 0.50624 0.4604 0.94767 0.0
C291 C 0.48498 0.45508 0.06768 0.0
O292 O 0.46651 0.48446 0.95056 0.0
H293 H 0.45871 0.58424 0.02463 0.0
H294 H 0.54125 0.42179 0.98968 0.0
H295 H 0.4218 0.4903 0.99671 0.0
O296 O 0.50884 0.45569 0.05157 0.0
O297 O 0.4681 0.47712 0.05454 0.0
H298 H 0.5797 0.51595 0.00766 0.0
O299 O 0.49407 0.54431 0.06343 0.0
O300 O 0.53493 0.52382 0.05611 0.0
O301 O 0.49254 0.55207 0.95944 0.0
O302 O 0.5322 0.52827 0.95211 0.0
C303 C 0.51881 0.54348 0.07633 0.0
H304 H 0.58516 0.39374 0.98865 0.0
H305 H 0.62455 0.48976 0.00977 0.0
H306 H 0.414 0.61103 0.02793 0.0
H307 H 0.37638 0.51544 0.99775 0.0
H308 H 0.25473 0.17243 0.41766 0.0
H309 H 0.27823 0.13349 0.55283 0.0
H310 H 0.21103 0.14455 0.42353 0.0
H311 H 0.23366 0.10771 0.56025 0.0
H312 H 0.15975 0.04006 0.54204 0.0
H313 H 0.2048 0.06428 0.53339 0.0
H314 H 0.16987 0.14956 0.4629 0.0
H315 H 0.12517 0.1242 0.46837 0.0
C316 C 0.25069 0.15779 0.44857 0.0
C317 C 0.27013 0.15529 0.48476 0.0
C318 C 0.22535 0.14224 0.45231 0.0
C319 C 0.21859 0.12412 0.4926 0.0
C320 C 0.23817 0.12119 0.52852 0.0
C321 C 0.26366 0.13642 0.52454 0.0
C322 C 0.16169 0.06375 0.52409 0.0
C323 C 0.13871 0.08006 0.5058 0.0
C324 C 0.18755 0.0779 0.51971 0.0
C325 C 0.19109 0.10891 0.49736 0.0
C326 C 0.16806 0.12539 0.47962 0.0
C327 C 0.14227 0.11108 0.48352 0.0
H328 H 0.22261 0.62113 0.96619 0.0
H329 H 0.25828 0.70378 0.04224 0.0
H330 H 0.26521 0.59088 0.97263 0.0
H331 H 0.30142 0.67465 0.04665 0.0
H332 H 0.37024 0.60463 0.08031 0.0
H333 H 0.32592 0.63124 0.07985 0.0
H334 H 0.30877 0.58953 0.94337 0.0
H335 H 0.35244 0.56161 0.94546 0.0
C336 C 0.23972 0.63283 0.98406 0.0
C337 C 0.23726 0.6647 0.00375 0.0
C338 C 0.26422 0.61566 0.98751 0.0
C339 C 0.28701 0.63028 0.00993 0.0
C340 C 0.28431 0.6622 0.02989 0.0
C341 C 0.25964 0.67905 0.02719 0.0
C342 C 0.35683 0.60115 0.05041 0.0
C343 C 0.36464 0.58109 0.01297 0.0
C344 C 0.33149 0.61654 0.04991 0.0
C345 C 0.3136 0.61275 0.01148 0.0
C346 C 0.3216 0.59257 0.97403 0.0
C347 C 0.34672 0.57669 0.97499 0.0
H348 H 0.72826 0.86296 0.45457 0.0
H349 H 0.74989 0.83341 0.59535 0.0
H350 H 0.77205 0.89121 0.44751 0.0
H351 H 0.79296 0.86327 0.58867 0.0
H352 H 0.85336 0.95271 0.56867 0.0
H353 H 0.80862 0.92607 0.5752 0.0
H354 H 0.82299 0.86992 0.44981 0.0
H355 H 0.86792 0.89618 0.44366 0.0
C356 C 0.74226 0.86236 0.48399 0.0
C357 C 0.73544 0.84564 0.52549 0.0
C358 C 0.76726 0.87875 0.47993 0.0
C359 C 0.78576 0.87935 0.51754 0.0
C360 C 0.77886 0.86339 0.55933 0.0
C361 C 0.75409 0.84648 0.56316 0.0
C362 C 0.84684 0.9348 0.54242 0.0
C363 C 0.86398 0.92643 0.50567 0.0
C364 C 0.82139 0.91949 0.5463 0.0
C365 C 0.81247 0.89604 0.51298 0.0
C366 C 0.8294 0.8881 0.47576 0.0
C367 C 0.85507 0.90293 0.47239 0.0
H368 H 0.74874 0.32243 0.08555 0.0
H369 H 0.77098 0.36178 0.95091 0.0
H370 H 0.70634 0.35254 0.08104 0.0
H371 H 0.72755 0.38992 0.94484 0.0
H372 H 0.6578 0.46174 0.96666 0.0
H373 H 0.70171 0.43472 0.97347 0.0
H374 H 0.66403 0.35073 0.04279 0.0
H375 H 0.62069 0.37874 0.03913 0.0
C376 C 0.74468 0.33757 0.05498 0.0
C377 C 0.76345 0.33963 0.01865 0.0
C378 C 0.72005 0.35445 0.05204 0.0
C379 C 0.71328 0.37352 0.01239 0.0
C380 C 0.73211 0.37578 0.97614 0.0
C381 C 0.75692 0.35918 0.97932 0.0
C382 C 0.65893 0.43773 0.98397 0.0
C383 C 0.63557 0.42252 0.00234 0.0
C384 C 0.68411 0.42198 0.98728 0.0
C385 C 0.68654 0.39047 0.00871 0.0
C386 C 0.66312 0.37519 0.02671 0.0
C387 C 0.63806 0.39107 0.02386 0.0
H388 H 0.07886 0.88059 0.1807 0.0
H389 H 0.06999 0.79245 0.26627 0.0
H390 H 0.06274 0.91512 0.24436 0.0
H391 H 0.05373 0.82722 0.33035 0.0
H392 H 0.99531 0.90173 0.40635 0.0
H393 H 0.01196 0.86489 0.34524 0.0
H394 H 0.08057 0.93089 0.32541 0.0
H395 H 0.06419 0.96755 0.38642 0.0
C396 C 0.07333 0.86863 0.21314 0.0
C397 C 0.07556 0.83387 0.2186 0.0
C398 C 0.06431 0.8884 0.24962 0.0
C399 C 0.05704 0.87381 0.29221 0.0
C400 C 0.05909 0.83901 0.29772 0.0
C401 C 0.06852 0.81921 0.2613 0.0
C402 C 0.01396 0.90832 0.38897 0.0
C403 C 0.02837 0.93762 0.40103 0.0
C404 C 0.02355 0.88714 0.35428 0.0
C405 C 0.04749 0.89514 0.33062 0.0
C406 C 0.06194 0.92431 0.34287 0.0
C407 C 0.05258 0.94521 0.37788 0.0
H408 H 0.59776 0.68161 0.74291 0.0
H409 H 0.51255 0.68553 0.70597 0.0
H410 H 0.58692 0.64998 0.81276 0.0
H411 H 0.50185 0.65225 0.77438 0.0
H412 H 0.48809 0.60783 0.91655 0.0
H413 H 0.50005 0.64899 0.85744 0.0
H414 H 0.5727 0.59381 0.82772 0.0
H415 H 0.5612 0.55335 0.88771 0.0
C416 C 0.57666 0.67622 0.75003 0.0
C417 C 0.55604 0.6859 0.71856 0.0
C418 C 0.57048 0.65762 0.78977 0.0
C419 C 0.54356 0.64808 0.79886 0.0
C420 C 0.5228 0.65924 0.76866 0.0
C421 C 0.52897 0.67803 0.72908 0.0
C422 C 0.50672 0.60464 0.8976 0.0
C423 C 0.52363 0.57722 0.90665 0.0
C424 C 0.51352 0.62817 0.86359 0.0
C425 C 0.53731 0.62472 0.83769 0.0
C426 C 0.55446 0.59761 0.84747 0.0
C427 C 0.54775 0.57421 0.88165 0.0
H428 H 0.98604 0.1767 0.19594 0.0
H429 H 0.90144 0.17142 0.2327 0.0
H430 H 0.99786 0.14452 0.26525 0.0
H431 H 0.91343 0.14091 0.30332 0.0
H432 H 0.94024 0.04745 0.38383 0.0
H433 H 0.92807 0.08551 0.32097 0.0
H434 H 0.00092 0.14351 0.34867 0.0
H435 H 0.01353 0.10473 0.41079 0.0
C436 C 0.96999 0.16905 0.21911 0.0
C437 C 0.94276 0.17636 0.20841 0.0
C438 C 0.97681 0.15092 0.25919 0.0
C439 C 0.95657 0.13983 0.28971 0.0
C440 C 0.92948 0.14854 0.28016 0.0
C441 C 0.92265 0.1665 0.23995 0.0
C442 C 0.95362 0.0684 0.37668 0.0
C443 C 0.97794 0.07293 0.40214 0.0
C444 C 0.94653 0.09042 0.34083 0.0
C445 C 0.96349 0.11765 0.32973 0.0
C446 C 0.98757 0.12256 0.35585 0.0
C447 C 0.99474 0.1004 0.3916 0.0
H448 H 0.41883 0.38227 0.67353 0.0
H449 H 0.43151 0.29445 0.75839 0.0
H450 H 0.43437 0.41764 0.73805 0.0
H451 H 0.44715 0.32999 0.82323 0.0
H452 H 0.50539 0.4063 0.89957 0.0
H453 H 0.48818 0.36945 0.83781 0.0
H454 H 0.41818 0.43239 0.81955 0.0
H455 H 0.43519 0.46918 0.88143 0.0
C456 C 0.42498 0.37059 0.70606 0.0
C457 C 0.4241 0.33569 0.71106 0.0
C458 C 0.43366 0.39081 0.743 0.0
C459 C 0.44194 0.3765 0.78552 0.0
C460 C 0.44101 0.34158 0.79065 0.0
C461 C 0.43193 0.32132 0.7538 0.0
C462 C 0.48633 0.41228 0.88237 0.0
C463 C 0.4717 0.44072 0.89518 0.0
C464 C 0.47642 0.39105 0.84732 0.0
C465 C 0.45188 0.39812 0.82403 0.0
C466 C 0.43724 0.42653 0.83681 0.0
C467 C 0.44696 0.4475 0.87226 0.0
H468 H 0.56182 0.62664 0.34389 0.0
H469 H 0.58918 0.70242 0.24709 0.0
H470 H 0.54454 0.59331 0.27893 0.0
H471 H 0.57333 0.66755 0.18212 0.0
H472 H 0.57066 0.56537 0.09237 0.0
H473 H 0.58701 0.60202 0.15539 0.0
H474 H 0.50595 0.60691 0.20927 0.0
H475 H 0.48934 0.57109 0.14567 0.0
C476 C 0.56399 0.63646 0.30897 0.0
C477 C 0.57674 0.66757 0.30103 0.0
C478 C 0.55427 0.61713 0.27181 0.0
C479 C 0.55766 0.62801 0.22585 0.0
C480 C 0.57068 0.65868 0.21746 0.0
C481 C 0.57988 0.67846 0.2547 0.0
C482 C 0.55635 0.57435 0.11762 0.0
C483 C 0.52876 0.56538 0.11428 0.0
C484 C 0.56567 0.5954 0.15336 0.0
C485 C 0.54766 0.60713 0.18684 0.0
C486 C 0.52014 0.59805 0.18372 0.0
C487 C 0.51069 0.57766 0.1474 0.0
H488 H 0.96144 0.19691 0.7903 0.0
H489 H 0.88426 0.14616 0.77658 0.0
H490 H 0.97909 0.16399 0.72614 0.0
H491 H 0.90207 0.11154 0.7147 0.0
H492 H 0.9328 0.06992 0.58098 0.0
H493 H 0.91538 0.10821 0.63865 0.0
H494 H 0.99433 0.11155 0.70671 0.0
H495 H 0.01202 0.075 0.64678 0.0
C496 C 0.94833 0.17859 0.77338 0.0
C497 C 0.92151 0.17411 0.78789 0.0
C498 C 0.95845 0.15944 0.73696 0.0
C499 C 0.94214 0.1348 0.71505 0.0
C500 C 0.91517 0.13065 0.72974 0.0
C501 C 0.90491 0.15034 0.7654 0.0
C502 C 0.94641 0.079 0.60823 0.0
C503 C 0.97372 0.06943 0.60956 0.0
C504 C 0.9364 0.10082 0.6416 0.0
C505 C 0.95329 0.11297 0.67792 0.0
C506 C 0.98073 0.10335 0.67898 0.0
C507 C 0.99089 0.08214 0.64485 0.0
H508 H 0.48779 0.32478 0.30609 0.0
H509 H 0.40297 0.3248 0.26588 0.0
H510 H 0.49858 0.35715 0.23696 0.0
H511 H 0.41397 0.35555 0.19525 0.0
H512 H 0.43862 0.45204 0.11838 0.0
H513 H 0.427 0.41188 0.17869 0.0
H514 H 0.50153 0.35911 0.15419 0.0
H515 H 0.51359 0.40003 0.09485 0.0
C516 C 0.47149 0.33125 0.28209 0.0
C517 C 0.44448 0.32261 0.29189 0.0
C518 C 0.47772 0.34949 0.24209 0.0
C519 C 0.4571 0.3593 0.21072 0.0
C520 C 0.43028 0.34895 0.21914 0.0
C521 C 0.42402 0.33088 0.25932 0.0
C522 C 0.45246 0.43175 0.12565 0.0
C523 C 0.47714 0.4294 0.10214 0.0
C524 C 0.44569 0.40852 0.16 0.0
C525 C 0.46334 0.38222 0.17139 0.0
C526 C 0.48766 0.37933 0.14682 0.0
C527 C 0.49453 0.40273 0.11269 0.0
H528 H 0.10205 0.85539 0.79628 0.0
H529 H 0.02397 0.80609 0.79283 0.0
H530 H 0.08923 0.88836 0.72828 0.0
H531 H 0.01147 0.83718 0.72257 0.0
H532 H 0.98438 0.9274 0.63757 0.0
H533 H 0.99808 0.88964 0.69983 0.0
H534 H 0.08047 0.89243 0.64979 0.0
H535 H 0.06685 0.93211 0.58967 0.0
C536 C 0.08238 0.85102 0.77991 0.0
C537 C 0.06395 0.82836 0.79949 0.0
C538 C 0.07499 0.86977 0.74074 0.0
C539 C 0.04915 0.86576 0.71969 0.0
C540 C 0.03125 0.84172 0.73831 0.0
C541 C 0.03845 0.82356 0.7782 0.0
C542 C 0.00539 0.91983 0.63996 0.0
C543 C 0.0246 0.93287 0.60914 0.0
C544 C 0.01328 0.89787 0.67544 0.0
C545 C 0.04049 0.88777 0.68022 0.0
C546 C 0.05949 0.90012 0.64816 0.0
C547 C 0.05169 0.92274 0.61343 0.0
loop_
_geom_bond_atom_site_label_1
_geom_bond_atom_site_label_2
_geom_bond_distance
_geom_bond_site_symmetry_2
_ccdc_geom_bond_type
C0 C1 1.391 . S
C0 C4 1.391 . S
C0 H42 0.948 . S
C1 C0 1.391 . S
C1 C2 1.391 . S
C2 C1 1.391 . S
C2 H58 0.947 . S
C2 C59 1.392 . S
C3 C4 1.391 . S
C3 C7 1.397 . S
C3 C59 1.419 . S
C4 C0 1.391 . S
C4 C3 1.391 . S
C4 C5 1.399 . S
C5 C4 1.399 . S
C5 C8 1.396 . S
C5 C17 1.453 . S
C5 C18 1.684 . S
H6 C30 0.948 . S
C7 C3 1.397 . S
C7 C8 1.394 . S
C7 C26 1.723 1_556 S
C8 C5 1.396 . S
C8 C7 1.394 . S
C8 C38 1.723 1_556 S
H9 C32 0.947 . S
H10 C33 0.948 . S
H11 C39 0.982 . S
H12 C40 0.979 . S
H13 C40 0.980 . S
H14 C40 0.983 . S
H15 C39 0.979 . S
H16 C39 0.977 . S
C17 C5 1.453 . S
C17 H46 0.982 . S
C17 H47 0.979 . S
C17 H48 0.977 . S
C18 C5 1.684 . S
C18 H43 0.979 . S
C18 H44 0.980 . S
C18 H45 0.983 . S
C19 C20 1.391 . S
C19 C24 1.391 . S
C19 H49 0.948 . S
C20 C19 1.391 . S
C20 C21 1.391 . S
C21 C20 1.391 . S
C21 C22 1.392 . S
C21 H50 0.947 . S
C22 C21 1.392 . S
C22 C23 1.419 . S
C22 H51 0.948 . S
C23 C22 1.419 . S
C23 C24 1.391 . S
C23 C27 1.397 . S
C24 C19 1.391 . S
C24 C23 1.391 . S
C24 C25 1.399 . S
C25 C24 1.399 . S
C25 C26 1.396 . S
C25 C28 1.453 . S
C25 C29 1.684 . S
C26 C7 1.723 1_554 S
C26 C25 1.396 . S
C26 C27 1.394 . S
C27 C23 1.397 . S
C27 C26 1.394 . S
C27 C37 1.723 . S
C28 C25 1.453 . S
C28 H52 0.982 . S
C28 H53 0.979 . S
C28 H54 0.977 . S
C29 C25 1.684 . S
C29 H55 0.979 . S
C29 H56 0.984 . S
C29 H57 0.983 . S
C30 H6 0.948 . S
C30 C31 1.391 . S
C30 C35 1.391 . S
C31 C30 1.391 . S
C31 C32 1.391 1_554 S
C32 H9 0.947 . S
C32 C31 1.391 1_556 S
C32 C33 1.392 . S
C33 H10 0.948 . S
C33 C32 1.392 . S
C33 C34 1.419 . S
C34 C33 1.419 . S
C34 C35 1.391 1_556 S
C34 C38 1.397 1_556 S
C35 C30 1.391 . S
C35 C34 1.391 1_554 S
C35 C36 1.399 . S
C36 C35 1.399 . S
C36 C37 1.396 . S
C36 C39 1.453 . S
C36 C40 1.684 . S
C37 C27 1.723 . S
C37 C36 1.396 . S
C37 C38 1.394 . S
C38 C8 1.723 1_554 S
C38 C34 1.397 1_554 S
C38 C37 1.394 . S
C39 H11 0.982 . S
C39 H15 0.979 . S
C39 H16 0.977 . S
C39 C36 1.453 . S
C40 H12 0.979 . S
C40 H13 0.980 . S
C40 H14 0.983 . S
C40 C36 1.684 . S
H41 C59 0.948 . S
H42 C0 0.948 . S
H43 C18 0.979 . S
H44 C18 0.980 . S
H45 C18 0.983 . S
H46 C17 0.982 . S
H47 C17 0.979 . S
H48 C17 0.977 . S
H49 C19 0.948 . S
H50 C21 0.947 . S
H51 C22 0.948 . S
H52 C28 0.982 . S
H53 C28 0.979 . S
H54 C28 0.977 . S
H55 C29 0.979 . S
H56 C29 0.984 . S
H57 C29 0.983 . S
H58 C2 0.947 . S
C59 C2 1.392 . S
C59 C3 1.419 . S
C59 H41 0.948 . S
C60 C61 1.391 . S
C60 C64 1.391 . S
C60 H102 0.948 . S
C61 C60 1.391 . S
C61 C62 1.391 . S
C62 C61 1.391 . S
C62 H118 0.947 . S
C62 C119 1.392 . S
C63 C64 1.391 . S
C63 C67 1.397 . S
C63 C119 1.419 . S
C64 C60 1.391 . S
C64 C63 1.391 . S
C64 C65 1.399 . S
C65 C64 1.399 . S
C65 C68 1.396 . S
C65 C77 1.453 . S
C65 C78 1.684 . S
H66 C90 0.948 . S
C67 C63 1.397 . S
C67 C68 1.394 . S
C67 C86 1.723 . S
C68 C65 1.396 . S
C68 C67 1.394 . S
C68 C98 1.723 . S
H69 C92 0.947 . S
H70 C93 0.948 . S
H71 C99 0.982 . S
H72 C100 0.979 . S
H73 C100 0.980 . S
H74 C100 0.983 . S
H75 C99 0.979 . S
H76 C99 0.977 . S
C77 C65 1.453 . S
C77 H106 0.982 . S
C77 H107 0.979 . S
C77 H108 0.977 . S
C78 C65 1.684 . S
C78 H103 0.979 . S
C78 H104 0.980 . S
C78 H105 0.983 . S
C79 C80 1.391 . S
C79 C84 1.391 . S
C79 H109 0.948 . S
C80 C79 1.391 . S
C80 C81 1.391 . S
C81 C80 1.391 . S
C81 C82 1.392 . S
C81 H110 0.947 . S
C82 C81 1.392 . S
C82 C83 1.419 . S
C82 H111 0.948 . S
C83 C82 1.419 . S
C83 C84 1.391 . S
C83 C87 1.397 . S
C84 C79 1.391 . S
C84 C83 1.391 . S
C84 C85 1.399 . S
C85 C84 1.399 . S
C85 C86 1.396 . S
C85 C88 1.453 . S
C85 C89 1.684 . S
C86 C67 1.723 . S
C86 C85 1.396 . S
C86 C87 1.394 . S
C87 C83 1.397 . S
C87 C86 1.394 . S
C87 C97 1.723 . S
C88 C85 1.453 . S
C88 H112 0.982 . S
C88 H113 0.979 . S
C88 H114 0.977 . S
C89 C85 1.684 . S
C89 H115 0.979 . S
C89 H116 0.980 . S
C89 H117 0.983 . S
C90 H66 0.948 . S
C90 C91 1.391 . S
C90 C95 1.391 . S
C91 C90 1.391 . S
C91 C92 1.391 . S
C92 H69 0.947 . S
C92 C91 1.391 . S
C92 C93 1.392 . S
C93 H70 0.948 . S
C93 C92 1.392 . S
C93 C94 1.419 . S
C94 C93 1.419 . S
C94 C95 1.391 . S
C94 C98 1.397 . S
C95 C90 1.391 . S
C95 C94 1.391 . S
C95 C96 1.399 . S
C96 C95 1.399 . S
C96 C97 1.396 . S
C96 C99 1.453 . S
C96 C100 1.684 . S
C97 C87 1.723 . S
C97 C96 1.396 . S
C97 C98 1.394 . S
C98 C68 1.723 . S
C98 C94 1.397 . S
C98 C97 1.394 . S
C99 H71 0.982 . S
C99 H75 0.979 . S
C99 H76 0.977 . S
C99 C96 1.453 . S
C100 H72 0.979 . S
C100 H73 0.980 . S
C100 H74 0.983 . S
C100 C96 1.684 . S
H101 C119 0.948 . S
H102 C60 0.948 . S
H103 C78 0.979 . S
H104 C78 0.980 . S
H105 C78 0.983 . S
H106 C77 0.982 . S
H107 C77 0.979 . S
H108 C77 0.977 . S
H109 C79 0.948 . S
H110 C81 0.947 . S
H111 C82 0.948 . S
H112 C88 0.982 . S
H113 C88 0.979 . S
H114 C88 0.977 . S
H115 C89 0.979 . S
H116 C89 0.980 . S
H117 C89 0.983 . S
H118 C62 0.947 . S
C119 C62 1.392 . S
C119 C63 1.419 . S
C119 H101 0.948 . S
C120 C121 1.391 . S
C120 C124 1.391 . S
C120 H162 0.948 . S
C121 C120 1.391 . S
C121 C122 1.391 . S
C122 C121 1.391 . S
C122 H178 0.947 . S
C122 C179 1.392 . S
C123 C124 1.391 . S
C123 C127 1.397 . S
C123 C179 1.419 . S
C124 C120 1.391 . S
C124 C123 1.391 . S
C124 C125 1.399 . S
C125 C124 1.399 . S
C125 C128 1.396 . S
C125 C137 1.453 . S
C125 C138 1.684 . S
H126 C150 0.948 . S
C127 C123 1.397 . S
C127 C128 1.394 . S
C127 C146 1.723 1_554 S
C128 C125 1.396 . S
C128 C127 1.394 . S
C128 C158 1.723 . S
H129 C152 0.947 . S
H130 C153 0.948 . S
H131 C159 0.982 . S
H132 C160 0.979 . S
H133 C160 0.980 . S
H134 C160 0.983 . S
H135 C159 0.979 . S
H136 C159 0.977 . S
C137 C125 1.453 . S
C137 H166 0.982 . S
C137 H167 0.979 . S
C137 H168 0.977 . S
C138 C125 1.684 . S
C138 H163 0.979 . S
C138 H164 0.980 . S
C138 H165 0.983 . S
C139 C140 1.391 . S
C139 C144 1.391 . S
C139 H169 0.948 . S
C140 C139 1.391 . S
C140 C141 1.391 . S
C141 C140 1.391 . S
C141 C142 1.392 . S
C141 H170 0.947 . S
C142 C141 1.392 . S
C142 C143 1.419 . S
C142 H171 0.948 . S
C143 C142 1.419 . S
C143 C144 1.391 . S
C143 C147 1.397 . S
C144 C139 1.391 . S
C144 C143 1.391 . S
C144 C145 1.399 . S
C145 C144 1.399 . S
C145 C146 1.396 . S
C145 C148 1.453 . S
C145 C149 1.684 . S
C146 C127 1.723 1_556 S
C146 C145 1.396 . S
C146 C147 1.394 . S
C147 C143 1.397 . S
C147 C146 1.394 . S
C147 C157 1.723 . S
C148 C145 1.453 . S
C148 H172 0.982 . S
C148 H173 0.979 . S
C148 H174 0.977 1_556 S
C149 C145 1.684 . S
C149 H175 0.979 . S
C149 H176 0.980 1_556 S
C149 H177 0.983 . S
C150 H126 0.948 . S
C150 C151 1.391 1_556 S
C150 C155 1.391 . S
C151 C150 1.391 1_554 S
C151 C152 1.391 . S
C152 H129 0.947 . S
C152 C151 1.391 . S
C152 C153 1.392 . S
C153 H130 0.948 . S
C153 C152 1.392 . S
C153 C154 1.419 . S
C154 C153 1.419 . S
C154 C155 1.391 1_554 S
C154 C158 1.397 . S
C155 C150 1.391 . S
C155 C154 1.391 1_556 S
C155 C156 1.399 . S
C156 C155 1.399 . S
C156 C157 1.396 . S
C156 C159 1.453 . S
C156 C160 1.684 . S
C157 C147 1.723 . S
C157 C156 1.396 . S
C157 C158 1.394 1_556 S
C158 C128 1.723 . S
C158 C154 1.397 . S
C158 C157 1.394 1_554 S
C159 H131 0.982 . S
C159 H135 0.979 . S
C159 H136 0.977 . S
C159 C156 1.453 . S
C160 H132 0.979 . S
C160 H133 0.980 . S
C160 H134 0.983 . S
C160 C156 1.684 . S
H161 C179 0.948 . S
H162 C120 0.948 . S
H163 C138 0.979 . S
H164 C138 0.980 . S
H165 C138 0.983 . S
H166 C137 0.982 . S
H167 C137 0.979 . S
H168 C137 0.977 . S
H169 C139 0.948 . S
H170 C141 0.947 . S
H171 C142 0.948 . S
H172 C148 0.982 . S
H173 C148 0.979 . S
H174 C148 0.977 1_554 S
H175 C149 0.979 . S
H176 C149 0.980 1_554 S
H177 C149 0.983 . S
H178 C122 0.947 . S
C179 C122 1.392 . S
C179 C123 1.419 . S
C179 H161 0.948 . S
C180 C181 1.391 . S
C180 C184 1.391 . S
C180 H222 0.948 . S
C181 C180 1.391 . S
C181 C182 1.391 . S
C182 C181 1.391 . S
C182 H238 0.947 . S
C182 C239 1.392 . S
C183 C184 1.391 . S
C183 C187 1.397 . S
C183 C239 1.419 . S
C184 C180 1.391 . S
C184 C183 1.391 . S
C184 C185 1.399 . S
C185 C184 1.399 . S
C185 C188 1.396 . S
C185 C197 1.453 . S
C185 C198 1.684 . S
H186 C210 0.948 . S
C187 C183 1.397 . S
C187 C188 1.394 . S
C187 C206 1.723 . S
C188 C185 1.396 . S
C188 C187 1.394 . S
C188 C218 1.723 . S
H189 C212 0.947 . S
H190 C213 0.948 . S
H191 C219 0.982 . S
H192 C220 0.979 . S
H193 C220 0.980 . S
H194 C220 0.983 . S
H195 C219 0.979 . S
H196 C219 0.977 . S
C197 C185 1.453 . S
C197 H226 0.982 . S
C197 H227 0.979 . S
C197 H228 0.977 . S
C198 C185 1.684 . S
C198 H223 0.979 . S
C198 H224 0.980 . S
C198 H225 0.983 . S
C199 C200 1.391 . S
C199 C204 1.391 . S
C199 H229 0.948 . S
C200 C199 1.391 . S
C200 C201 1.391 . S
C201 C200 1.391 . S
C201 C202 1.392 . S
C201 H230 0.947 . S
C202 C201 1.392 . S
C202 C203 1.419 . S
C202 H231 0.948 . S
C203 C202 1.419 . S
C203 C204 1.391 . S
C203 C207 1.397 . S
C204 C199 1.391 . S
C204 C203 1.391 . S
C204 C205 1.399 . S
C205 C204 1.399 . S
C205 C206 1.396 . S
C205 C208 1.453 . S
C205 C209 1.684 . S
C206 C187 1.723 . S
C206 C205 1.396 . S
C206 C207 1.394 . S
C207 C203 1.397 . S
C207 C206 1.394 . S
C207 C217 1.723 . S
C208 C205 1.453 . S
C208 H232 0.982 . S
C208 H233 0.979 . S
C208 H234 0.977 . S
C209 C205 1.684 . S
C209 H235 0.979 . S
C209 H236 0.980 . S
C209 H237 0.983 . S
C210 H186 0.948 . S
C210 C211 1.391 . S
C210 C215 1.391 . S
C211 C210 1.391 . S
C211 C212 1.391 . S
C212 H189 0.947 . S
C212 C211 1.391 . S
C212 C213 1.392 . S
C213 H190 0.948 . S
C213 C212 1.392 . S
C213 C214 1.419 . S
C214 C213 1.419 . S
C214 C215 1.391 . S
C214 C218 1.397 . S
C215 C210 1.391 . S
C215 C214 1.391 . S
C215 C216 1.399 . S
C216 C215 1.399 . S
C216 C217 1.396 . S
C216 C219 1.453 . S
C216 C220 1.684 . S
C217 C207 1.723 . S
C217 C216 1.396 . S
C217 C218 1.394 . S
C218 C188 1.723 . S
C218 C214 1.397 . S
C218 C217 1.394 . S
C219 H191 0.982 . S
C219 H195 0.979 . S
C219 H196 0.977 . S
C219 C216 1.453 . S
C220 H192 0.979 . S
C220 H193 0.980 . S
C220 H194 0.983 . S
C220 C216 1.684 . S
H221 C239 0.948 . S
H222 C180 0.948 . S
H223 C198 0.979 . S
H224 C198 0.980 . S
H225 C198 0.983 . S
H226 C197 0.982 . S
H227 C197 0.979 . S
H228 C197 0.977 . S
H229 C199 0.948 . S
H230 C201 0.947 . S
H231 C202 0.948 . S
H232 C208 0.982 . S
H233 C208 0.979 . S
H234 C208 0.977 . S
H235 C209 0.979 . S
H236 C209 0.980 . S
H237 C209 0.983 . S
H238 C182 0.947 . S
C239 C182 1.392 . S
C239 C183 1.419 . S
C239 H221 0.948 . S
C240 O256 1.251 . S
C240 O258 1.254 1_455 S
N241 C242 1.333 . S
N241 C246 1.307 . S
N241 Zn247 2.020 . S
C242 N241 1.333 . S
C242 C243 1.379 . S
C242 H260 0.952 . S
C243 C242 1.379 . S
C243 C244 1.390 . S
C243 H270 0.949 . S
C244 C243 1.390 . S
C244 C245 1.357 . S
C245 C244 1.357 . S
C245 C246 1.370 . S
C245 H271 0.950 . S
C246 N241 1.307 . S
C246 C245 1.370 . S
C246 H264 0.948 . S
Zn247 N241 2.020 . S
Zn247 O256 2.039 1_545 S
Zn247 O262 2.034 1_545 S
Zn247 O266 2.025 . S
Zn247 O268 2.024 . S
C248 O267 1.246 . S
C248 O268 1.249 1_655 S
N249 C250 1.307 . S
N249 C251 1.333 . S
N249 Zn255 2.020 . S
C250 N249 1.307 . S
C250 C254 1.370 . S
C250 H261 0.948 . S
C251 N249 1.333 . S
C251 C252 1.379 . S
C251 H259 0.961 . S
C252 C251 1.379 . S
C252 C253 1.390 . S
C252 H272 0.949 . S
C253 C252 1.390 . S
C253 C254 1.357 . S
C254 C250 1.370 . S
C254 C253 1.357 . S
C254 H273 0.950 . S
Zn255 N249 2.020 . S
Zn255 O258 2.025 . S
Zn255 O263 2.024 . S
Zn255 O265 2.039 1_565 S
Zn255 O267 2.034 1_565 S
O256 C240 1.251 . S
O256 Zn247 2.039 1_565 S
C257 O262 1.246 . S
C257 O263 1.249 1_455 S
O258 C240 1.254 1_655 S
O258 Zn255 2.025 . S
H259 C251 0.961 . S
H260 C242 0.952 . S
H261 C250 0.948 . S
O262 Zn247 2.034 1_565 S
O262 C257 1.246 . S
O263 Zn255 2.024 . S
O263 C257 1.249 1_655 S
H264 C246 0.948 . S
O265 Zn255 2.039 1_545 S
O265 C269 1.251 . S
O266 Zn247 2.025 . S
O266 C269 1.254 1_455 S
O267 C248 1.246 . S
O267 Zn255 2.034 1_545 S
O268 Zn247 2.024 . S
O268 C248 1.249 1_455 S
C269 O265 1.251 . S
C269 O266 1.254 1_655 S
H270 C243 0.949 . S
H271 C245 0.950 . S
H272 C252 0.949 . S
H273 C254 0.950 . S
C274 O290 1.251 . S
C274 O292 1.254 . S
N275 C276 1.333 1_554 S
N275 C280 1.307 . S
N275 Zn281 2.020 . S
C276 N275 1.333 1_556 S
C276 C277 1.379 . S
C276 H294 0.952 . S
C277 C276 1.379 . S
C277 C278 1.390 1_556 S
C277 H304 0.949 . S
C278 C277 1.390 1_554 S
C278 C279 1.357 . S
C279 C278 1.357 . S
C279 C280 1.370 . S
C279 H305 0.950 . S
C280 N275 1.307 . S
C280 C279 1.370 . S
C280 H298 0.948 . S
Zn281 N275 2.020 . S
Zn281 O290 2.039 1_554 S
Zn281 O296 2.034 . S
Zn281 O300 2.025 . S
Zn281 O302 2.024 1_554 S
C282 O301 1.246 . S
C282 O302 1.249 . S
N283 C284 1.307 1_554 S
N283 C285 1.333 . S
N283 Zn289 2.020 . S
C284 N283 1.307 1_556 S
C284 C288 1.370 . S
C284 H295 0.948 . S
C285 N283 1.333 . S
C285 C286 1.379 . S
C285 H293 0.952 . S
C286 C285 1.379 . S
C286 C287 1.390 . S
C286 H306 0.949 . S
C287 C286 1.390 . S
C287 C288 1.357 1_554 S
C288 C284 1.370 . S
C288 C287 1.357 1_556 S
C288 H307 0.950 . S
Zn289 N283 2.020 . S
Zn289 O292 2.025 1_554 S
Zn289 O297 2.024 . S
Zn289 O299 2.039 . S
Zn289 O301 2.034 1_554 S
O290 C274 1.251 . S
O290 Zn281 2.039 1_556 S
C291 O296 1.246 . S
C291 O297 1.249 . S
O292 C274 1.254 . S
O292 Zn289 2.025 1_556 S
H293 C285 0.952 . S
H294 C276 0.952 . S
H295 C284 0.948 . S
O296 Zn281 2.034 . S
O296 C291 1.246 . S
O297 Zn289 2.024 . S
O297 C291 1.249 . S
H298 C280 0.948 . S
O299 Zn289 2.039 . S
O299 C303 1.251 . S
O300 Zn281 2.025 . S
O300 C303 1.254 . S
O301 C282 1.246 . S
O301 Zn289 2.034 1_556 S
O302 Zn281 2.024 1_556 S
O302 C282 1.249 . S
C303 O299 1.251 . S
C303 O300 1.254 . S
H304 C277 0.949 . S
H305 C279 0.950 . S
H306 C286 0.949 . S
H307 C288 0.950 . S
H308 C316 0.950 . S
H309 C321 0.950 . S
H310 C318 0.950 . S
H311 C320 0.950 . S
H312 C322 0.950 . S
H313 C324 0.950 . S
H314 C326 0.950 . S
H315 C327 0.950 . S
C316 H308 0.950 . S
C316 C317 1.386 . S
C316 C318 1.391 . S
C317 C316 1.386 . S
C317 C321 1.393 . S
C318 H310 0.950 . S
C318 C316 1.391 . S
C318 C319 1.400 . S
C319 C318 1.400 . S
C319 C320 1.398 . S
C319 C325 1.491 . S
C320 H311 0.950 . S
C320 C319 1.398 . S
C320 C321 1.391 . S
C321 H309 0.950 . S
C321 C317 1.393 . S
C321 C320 1.391 . S
C322 H312 0.950 . S
C322 C323 1.386 . S
C322 C324 1.391 . S
C323 C322 1.386 . S
C323 C327 1.393 . S
C324 H313 0.950 . S
C324 C322 1.391 . S
C324 C325 1.400 . S
C325 C319 1.491 . S
C325 C324 1.400 . S
C325 C326 1.398 . S
C326 H314 0.950 . S
C326 C325 1.398 . S
C326 C327 1.391 . S
C327 H315 0.950 . S
C327 C323 1.393 . S
C327 C326 1.391 . S
H328 C336 0.950 . S
H329 C341 0.950 . S
H330 C338 0.950 . S
H331 C340 0.950 . S
H332 C342 0.950 . S
H333 C344 0.950 . S
H334 C346 0.950 . S
H335 C347 0.950 . S
C336 H328 0.950 . S
C336 C337 1.386 1_556 S
C336 C338 1.391 . S
C337 C336 1.386 1_554 S
C337 C341 1.393 . S
C338 H330 0.950 . S
C338 C336 1.391 . S
C338 C339 1.400 1_556 S
C339 C338 1.400 1_554 S
C339 C340 1.398 . S
C339 C345 1.491 . S
C340 H331 0.950 . S
C340 C339 1.398 . S
C340 C341 1.391 . S
C341 H329 0.950 . S
C341 C337 1.393 . S
C341 C340 1.391 . S
C342 H332 0.950 . S
C342 C343 1.386 . S
C342 C344 1.391 . S
C343 C342 1.386 . S
C343 C347 1.393 1_554 S
C344 H333 0.950 . S
C344 C342 1.391 . S
C344 C345 1.400 . S
C345 C339 1.491 . S
C345 C344 1.400 . S
C345 C346 1.398 1_554 S
C346 H334 0.950 . S
C346 C345 1.398 1_556 S
C346 C347 1.391 . S
C347 H335 0.950 . S
C347 C343 1.393 1_556 S
C347 C346 1.391 . S
H348 C356 0.950 . S
H349 C361 0.950 . S
H350 C358 0.950 . S
H351 C360 0.950 . S
H352 C362 0.950 . S
H353 C364 0.950 . S
H354 C366 0.950 . S
H355 C367 0.950 . S
C356 H348 0.950 . S
C356 C357 1.386 . S
C356 C358 1.391 . S
C357 C356 1.386 . S
C357 C361 1.393 . S
C358 H350 0.950 . S
C358 C356 1.391 . S
C358 C359 1.400 . S
C359 C358 1.400 . S
C359 C360 1.398 . S
C359 C365 1.491 . S
C360 H351 0.950 . S
C360 C359 1.398 . S
C360 C361 1.391 . S
C361 H349 0.950 . S
C361 C357 1.393 . S
C361 C360 1.391 . S
C362 H352 0.950 . S
C362 C363 1.386 . S
C362 C364 1.391 . S
C363 C362 1.386 . S
C363 C367 1.393 . S
C364 H353 0.950 . S
C364 C362 1.391 . S
C364 C365 1.400 . S
C365 C359 1.491 . S
C365 C364 1.400 . S
C365 C366 1.398 . S
C366 H354 0.950 . S
C366 C365 1.398 . S
C366 C367 1.391 . S
C367 H355 0.950 . S
C367 C363 1.393 . S
C367 C366 1.391 . S
H368 C376 0.950 . S
H369 C381 0.950 . S
H370 C378 0.950 . S
H371 C380 0.950 . S
H372 C382 0.950 . S
H373 C384 0.950 . S
H374 C386 0.950 . S
H375 C387 0.950 . S
C376 H368 0.950 . S
C376 C377 1.386 . S
C376 C378 1.391 . S
C377 C376 1.386 . S
C377 C381 1.393 1_554 S
C378 H370 0.950 . S
C378 C376 1.391 . S
C378 C379 1.400 . S
C379 C378 1.400 . S
C379 C380 1.398 1_554 S
C379 C385 1.491 . S
C380 H371 0.950 . S
C380 C379 1.398 1_556 S
C380 C381 1.391 . S
C381 H369 0.950 . S
C381 C377 1.393 1_556 S
C381 C380 1.391 . S
C382 H372 0.950 . S
C382 C383 1.386 1_556 S
C382 C384 1.391 . S
C383 C382 1.386 1_554 S
C383 C387 1.393 . S
C384 H373 0.950 . S
C384 C382 1.391 . S
C384 C385 1.400 1_556 S
C385 C379 1.491 . S
C385 C384 1.400 1_554 S
C385 C386 1.398 . S
C386 H374 0.950 . S
C386 C385 1.398 . S
C386 C387 1.391 . S
C387 H375 0.950 . S
C387 C383 1.393 . S
C387 C386 1.391 . S
H388 C396 0.950 . S
H389 C401 0.950 . S
H390 C398 0.950 . S
H391 C400 0.950 . S
H392 C402 0.950 . S
H393 C404 0.950 . S
H394 C406 0.950 . S
H395 C407 0.950 . S
C396 H388 0.950 . S
C396 C397 1.386 . S
C396 C398 1.391 . S
C397 C396 1.386 . S
C397 C401 1.393 . S
C398 H390 0.950 . S
C398 C396 1.391 . S
C398 C399 1.400 . S
C399 C398 1.400 . S
C399 C400 1.398 . S
C399 C405 1.491 . S
C400 H391 0.950 . S
C400 C399 1.398 . S
C400 C401 1.391 . S
C401 H389 0.950 . S
C401 C397 1.393 . S
C401 C400 1.391 . S
C402 H392 0.950 . S
C402 C403 1.386 . S
C402 C404 1.391 . S
C403 C402 1.386 . S
C403 C407 1.393 . S
C404 H393 0.950 . S
C404 C402 1.391 . S
C404 C405 1.400 . S
C405 C399 1.491 . S
C405 C404 1.400 . S
C405 C406 1.398 . S
C406 H394 0.950 . S
C406 C405 1.398 . S
C406 C407 1.391 . S
C407 H395 0.950 . S
C407 C403 1.393 . S
C407 C406 1.391 . S
H408 C416 0.950 . S
H409 C421 0.950 . S
H410 C418 0.950 . S
H411 C420 0.950 . S
H412 C422 0.950 . S
H413 C424 0.950 . S
H414 C426 0.950 . S
H415 C427 0.950 . S
C416 H408 0.950 . S
C416 C417 1.386 . S
C416 C418 1.391 . S
C417 C416 1.386 . S
C417 C421 1.393 . S
C418 H410 0.950 . S
C418 C416 1.391 . S
C418 C419 1.400 . S
C419 C418 1.400 . S
C419 C420 1.398 . S
C419 C425 1.491 . S
C420 H411 0.950 . S
C420 C419 1.398 . S
C420 C421 1.391 . S
C421 H409 0.950 . S
C421 C417 1.393 . S
C421 C420 1.391 . S
C422 H412 0.950 . S
C422 C423 1.386 . S
C422 C424 1.391 . S
C423 C422 1.386 . S
C423 C427 1.393 . S
C424 H413 0.950 . S
C424 C422 1.391 . S
C424 C425 1.400 . S
C425 C419 1.491 . S
C425 C424 1.400 . S
C425 C426 1.398 . S
C426 H414 0.950 . S
C426 C425 1.398 . S
C426 C427 1.391 . S
C427 H415 0.950 . S
C427 C423 1.393 . S
C427 C426 1.391 . S
H428 C436 0.950 . S
H429 C441 0.950 . S
H430 C438 0.950 . S
H431 C440 0.950 . S
H432 C442 0.950 . S
H433 C444 0.950 . S
H434 C446 0.969 . S
H435 C447 0.950 1_455 S
C436 H428 0.950 . S
C436 C437 1.386 . S
C436 C438 1.391 . S
C437 C436 1.386 . S
C437 C441 1.393 . S
C438 H430 0.950 . S
C438 C436 1.391 . S
C438 C439 1.400 . S
C439 C438 1.400 . S
C439 C440 1.398 . S
C439 C445 1.491 . S
C440 H431 0.950 . S
C440 C439 1.398 . S
C440 C441 1.391 . S
C441 H429 0.950 . S
C441 C437 1.393 . S
C441 C440 1.391 . S
C442 H432 0.950 . S
C442 C443 1.386 . S
C442 C444 1.391 . S
C443 C442 1.386 . S
C443 C447 1.393 . S
C444 H433 0.950 . S
C444 C442 1.391 . S
C444 C445 1.400 . S
C445 C439 1.491 . S
C445 C444 1.400 . S
C445 C446 1.398 . S
C446 H434 0.969 . S
C446 C445 1.398 . S
C446 C447 1.391 . S
C447 H435 0.950 1_655 S
C447 C443 1.393 . S
C447 C446 1.391 . S
H448 C456 0.950 . S
H449 C461 0.950 . S
H450 C458 0.950 . S
H451 C460 0.950 . S
H452 C462 0.950 . S
H453 C464 0.950 . S
H454 C466 0.950 . S
H455 C467 0.950 . S
C456 H448 0.950 . S
C456 C457 1.386 . S
C456 C458 1.391 . S
C457 C456 1.386 . S
C457 C461 1.393 . S
C458 H450 0.950 . S
C458 C456 1.391 . S
C458 C459 1.400 . S
C459 C458 1.400 . S
C459 C460 1.398 . S
C459 C465 1.491 . S
C460 H451 0.950 . S
C460 C459 1.398 . S
C460 C461 1.391 . S
C461 H449 0.950 . S
C461 C457 1.393 . S
C461 C460 1.391 . S
C462 H452 0.950 . S
C462 C463 1.386 . S
C462 C464 1.391 . S
C463 C462 1.386 . S
C463 C467 1.393 . S
C464 H453 0.950 . S
C464 C462 1.391 . S
C464 C465 1.400 . S
C465 C459 1.491 . S
C465 C464 1.400 . S
C465 C466 1.398 . S
C466 H454 0.950 . S
C466 C465 1.398 . S
C466 C467 1.391 . S
C467 H455 0.950 . S
C467 C463 1.393 . S
C467 C466 1.391 . S
H468 C476 0.950 . S
H469 C481 0.950 . S
H470 C478 0.950 . S
H471 C480 0.950 . S
H472 C482 0.950 . S
H473 C484 0.950 . S
H474 C486 0.950 . S
H475 C487 0.950 . S
C476 H468 0.950 . S
C476 C477 1.386 . S
C476 C478 1.391 . S
C477 C476 1.386 . S
C477 C481 1.393 . S
C478 H470 0.950 . S
C478 C476 1.391 . S
C478 C479 1.400 . S
C479 C478 1.400 . S
C479 C480 1.398 . S
C479 C485 1.491 . S
C480 H471 0.950 . S
C480 C479 1.398 . S
C480 C481 1.391 . S
C481 H469 0.950 . S
C481 C477 1.393 . S
C481 C480 1.391 . S
C482 H472 0.950 . S
C482 C483 1.386 . S
C482 C484 1.391 . S
C483 C482 1.386 . S
C483 C487 1.393 . S
C484 H473 0.950 . S
C484 C482 1.391 . S
C484 C485 1.400 . S
C485 C479 1.491 . S
C485 C484 1.400 . S
C485 C486 1.398 . S
C486 H474 0.950 . S
C486 C485 1.398 . S
C486 C487 1.391 . S
C487 H475 0.950 . S
C487 C483 1.393 . S
C487 C486 1.391 . S
H488 C496 0.950 . S
H489 C501 0.950 . S
H490 C498 0.950 . S
H491 C500 0.950 . S
H492 C502 0.950 . S
H493 C504 0.950 . S
H494 C506 0.950 . S
H495 C507 0.950 1_455 S
C496 H488 0.950 . S
C496 C497 1.386 . S
C496 C498 1.391 . S
C497 C496 1.386 . S
C497 C501 1.393 . S
C498 H490 0.950 . S
C498 C496 1.391 . S
C498 C499 1.400 . S
C499 C498 1.400 . S
C499 C500 1.398 . S
C499 C505 1.491 . S
C500 H491 0.950 . S
C500 C499 1.398 . S
C500 C501 1.391 . S
C501 H489 0.950 . S
C501 C497 1.393 . S
C501 C500 1.391 . S
C502 H492 0.950 . S
C502 C503 1.386 . S
C502 C504 1.391 . S
C503 C502 1.386 . S
C503 C507 1.393 . S
C504 H493 0.950 . S
C504 C502 1.391 . S
C504 C505 1.400 . S
C505 C499 1.491 . S
C505 C504 1.400 . S
C505 C506 1.398 . S
C506 H494 0.950 . S
C506 C505 1.398 . S
C506 C507 1.391 . S
C507 H495 0.950 1_655 S
C507 C503 1.393 . S
C507 C506 1.391 . S
H508 C516 0.950 . S
H509 C521 0.950 . S
H510 C518 0.950 . S
H511 C520 0.950 . S
H512 C522 0.950 . S
H513 C524 0.950 . S
H514 C526 0.950 . S
H515 C527 0.950 . S
C516 H508 0.950 . S
C516 C517 1.386 . S
C516 C518 1.391 . S
C517 C516 1.386 . S
C517 C521 1.393 . S
C518 H510 0.950 . S
C518 C516 1.391 . S
C518 C519 1.400 . S
C519 C518 1.400 . S
C519 C520 1.398 . S
C519 C525 1.491 . S
C520 H511 0.950 . S
C520 C519 1.398 . S
C520 C521 1.391 . S
C521 H509 0.950 . S
C521 C517 1.393 . S
C521 C520 1.391 . S
C522 H512 0.950 . S
C522 C523 1.386 . S
C522 C524 1.391 . S
C523 C522 1.386 . S
C523 C527 1.393 . S
C524 H513 0.950 . S
C524 C522 1.391 . S
C524 C525 1.400 . S
C525 C519 1.491 . S
C525 C524 1.400 . S
C525 C526 1.398 . S
C526 H514 0.950 . S
C526 C525 1.398 . S
C526 C527 1.391 . S
C527 H515 0.950 . S
C527 C523 1.393 . S
C527 C526 1.391 . S
H528 C536 0.950 . S
H529 C541 0.950 . S
H530 C538 0.950 . S
H531 C540 0.950 . S
H532 C542 0.950 1_655 S
H533 C544 0.971 . S
H534 C546 0.950 . S
H535 C547 0.950 . S
C536 H528 0.950 . S
C536 C537 1.386 . S
C536 C538 1.391 . S
C537 C536 1.386 . S
C537 C541 1.393 . S
C538 H530 0.950 . S
C538 C536 1.391 . S
C538 C539 1.400 . S
C539 C538 1.400 . S
C539 C540 1.398 . S
C539 C545 1.491 . S
C540 H531 0.950 . S
C540 C539 1.398 . S
C540 C541 1.391 . S
C541 H529 0.950 . S
C541 C537 1.393 . S
C541 C540 1.391 . S
C542 H532 0.950 1_455 S
C542 C543 1.386 . S
C542 C544 1.391 . S
C543 C542 1.386 . S
C543 C547 1.393 . S
C544 H533 0.971 . S
C544 C542 1.391 . S
C544 C545 1.400 . S
C545 C539 1.491 . S
C545 C544 1.400 . S
C545 C546 1.398 . S
C546 H534 0.950 . S
C546 C545 1.398 . S
C546 C547 1.391 . S
C547 H535 0.950 . S
C547 C543 1.393 . S
C547 C546 1.391 . S
C323 C244 1.651 . S
C317 C211 1.576 . S
C337 C31 1.552 . S
C343 C287 1.569 . S
C357 C91 1.631 . S
C363 C253 1.652 . S
C377 C151 1.515 . S
C383 C278 1.577 . S
C403 C240 1.640 . S
C397 C20 1.637 . S
C423 C282 1.736 . S
C417 C61 1.694 . S
C437 C121 1.542 . S
C443 C248 1.628 . S
C457 C200 1.633 . S
C463 C274 1.727 . S
C483 C303 1.731 . S
C477 C80 1.716 . S
C503 C269 1.636 . S
C497 C140 1.564 . S
C523 C291 1.736 . S
C517 C181 1.624 . S
C537 C1 1.596 . S
C543 C257 1.632 . S
