# Generated by pormake.
# Topology pth, (4,4)-cn, num edge types: 1
# Building blocks:
#     Node 0, Type 0, BuildingBlock: GALJAG_clean_sbu_0, # of connection points: 4
#     Node 1, Type 0, BuildingBlock: GALJAG_clean_sbu_0, # of connection points: 4
#     Node 2, Type 0, BuildingBlock: GALJAG_clean_sbu_0, # of connection points: 4
#     Node 3, Type 1, BuildingBlock: AZAVOO_clean_linker_0, # of connection points: 4
#     Node 4, Type 1, BuildingBlock: AZAVOO_clean_linker_0, # of connection points: 4
#     Node 5, Type 1, BuildingBlock: AZAVOO_clean_linker_0, # of connection points: 4
#     Edge 6, Type (0, 1), BuildingBlock: XIVTED_clean_linker_0, # of connection points: 2
#     Edge 7, Type (0, 1), BuildingBlock: XIVTED_clean_linker_0, # of connection points: 2
#     Edge 8, Type (0, 1), BuildingBlock: XIVTED_clean_linker_0, # of connection points: 2
#     Edge 9, Type (0, 1), BuildingBlock: XIVTED_clean_linker_0, # of connection points: 2
#     Edge 10, Type (0, 1), BuildingBlock: XIVTED_clean_linker_0, # of connection points: 2
#     Edge 11, Type (0, 1), BuildingBlock: XIVTED_clean_linker_0, # of connection points: 2
#     Edge 12, Type (0, 1), BuildingBlock: XIVTED_clean_linker_0, # of connection points: 2
#     Edge 13, Type (0, 1), BuildingBlock: XIVTED_clean_linker_0, # of connection points: 2
#     Edge 14, Type (0, 1), BuildingBlock: XIVTED_clean_linker_0, # of connection points: 2
#     Edge 15, Type (0, 1), BuildingBlock: XIVTED_clean_linker_0, # of connection points: 2
#     Edge 16, Type (0, 1), BuildingBlock: XIVTED_clean_linker_0, # of connection points: 2
#     Edge 17, Type (0, 1), BuildingBlock: XIVTED_clean_linker_0, # of connection points: 2
# Relax obj value: 0.129
# Max RMSD: 0.233
# Mean RMSD: 0.161
data_MOF--net-pth--node1-GALJAG_clean_sbu_0--node2-AZAVOO_clean_linker_0--edge1-XIVTED_clean_linker_0
_symmetry_space_group_name_H-M    P1
_symmetry_Int_Tables_number       1
_symmetry_cell_setting            triclinic
loop_
_symmetry_equiv_pos_as_xyz
'x, y, z'
_cell_length_a     27.04342
_cell_length_b     27.375064
_cell_length_c     69.834691
_cell_angle_alpha  93.128673
_cell_angle_beta   89.048716
_cell_angle_gamma 119.98077
loop_
_atom_site_label
_atom_site_type_symbol
_atom_site_fract_x
_atom_site_fract_y
_atom_site_fract_z
_atom_type_partial_charge
In0 In 0.07088 0.04333 0.0682 0.0
O1 O 0.00973 0.06333 0.08521 0.0
O2 O 0.08697 0.08063 0.09882 0.0
C3 C 0.00929 -0.00199 0.03567 0.0
C4 C 0.15783 0.13718 0.0543 0.0
C5 C 0.07461 0.95549 0.08202 0.0
O6 O 0.9904 0.01306 0.05011 0.0
O7 O 0.05887 0.00543 0.03775 0.0
O8 O 0.11897 0.0026 0.07992 0.0
O9 O 0.02867 0.95262 0.07693 0.0
C10 C 0.0409 0.08155 0.10011 0.0
O11 O 0.16289 0.09558 0.05845 0.0
O12 O 0.10935 0.13171 0.0575 0.0
In13 In 0.02 0.03354 0.3975 0.0
O14 O 0.06193 0.11001 0.37902 0.0
O15 O 0.97161 0.06566 0.38038 0.0
C16 C 0.12415 0.07941 0.41393 0.0
C17 C 0.94583 0.01156 0.42654 0.0
C18 C 0.00151 0.93559 0.37998 0.0
O19 O 0.11161 0.04963 0.3984 0.0
O20 O 0.08488 0.08705 0.42067 0.0
O21 O 0.01787 0.94924 0.39724 0.0
O22 O -0.00607 0.97108 0.3716 0.0
C23 C 0.01579 0.1064 0.37384 0.0
O24 O 0.93448 0.97762 0.41215 0.0
O25 O -0.00665 0.05622 0.42597 0.0
In26 In 0.04155 0.05849 0.73307 0.0
O27 O -0.00413 0.96934 0.74393 0.0
O28 O 0.97702 0.03009 0.75704 0.0
C29 C 0.12104 0.05377 0.71067 0.0
C30 C 0.96554 0.05818 0.7086 0.0
C31 C 0.11696 0.14406 0.75651 0.0
O32 O 0.09404 0.01769 0.72296 0.0
O33 O 0.10654 0.09068 0.70936 0.0
O34 O 0.08893 0.1514 0.7438 0.0
O35 O 0.10539 0.09365 0.7577 0.0
C36 C 0.96754 0.97998 0.75633 0.0
O37 O 0.98937 0.09587 0.72193 0.0
O38 O 0.98053 0.02126 0.70757 0.0
H39 H 0.99066 0.39413 0.10858 0.0
H40 H 0.10702 0.88538 0.25374 0.0
H41 H 0.92679 0.38011 0.21963 0.0
H42 H 0.91481 0.29086 0.20556 0.0
H43 H 0.09812 0.36237 0.20655 0.0
H44 H 0.10921 0.4505 0.22112 0.0
H45 H 0.94674 0.46479 0.18452 0.0
H46 H 0.94841 0.43016 0.15156 0.0
H47 H 0.12692 0.48243 0.15888 0.0
H48 H 0.12458 0.51707 0.19177 0.0
H49 H 0.95916 0.58836 0.20003 0.0
H50 H 0.97096 0.64916 0.17395 0.0
H51 H 0.1444 0.68371 0.16638 0.0
H52 H 0.13263 0.62433 0.19303 0.0
H53 H 0.94719 0.60476 0.24277 0.0
H54 H 0.95485 0.69648 0.25076 0.0
H55 H 0.13648 0.77895 0.24055 0.0
H56 H 0.12829 0.68682 0.23291 0.0
H57 H 0.92605 0.5151 0.26738 0.0
H58 H 0.91175 0.56364 0.29554 0.0
H59 H 0.09425 0.674 0.30104 0.0
H60 H 0.10811 0.62476 0.27295 0.0
H61 H 0.92927 0.42266 0.26451 0.0
H62 H 0.9256 0.3608 0.28924 0.0
H63 H 0.10753 0.42742 0.28368 0.0
H64 H 0.1108 0.49059 0.25975 0.0
O65 O 0.991 0.40832 0.12161 0.0
O66 O 0.08268 0.43591 0.12612 0.0
O67 O 0.00932 0.80406 0.25592 0.0
O68 O 0.10273 0.84857 0.25059 0.0
C69 C 0.0262 0.47815 0.2257 0.0
C70 C 0.03384 0.51311 0.21052 0.0
C71 C 0.03781 0.56598 0.21436 0.0
C72 C 0.03293 0.58341 0.23334 0.0
C73 C 0.02503 0.54816 0.24853 0.0
C74 C 0.02268 0.49597 0.24473 0.0
C75 C 0.01882 0.42149 0.22126 0.0
C76 C 0.96409 0.37564 0.21735 0.0
C77 C 0.95743 0.325 0.20917 0.0
C78 C 0.00554 0.31976 0.2047 0.0
C79 C 0.06013 0.36469 0.20998 0.0
C80 C 0.06667 0.41519 0.21823 0.0
C81 C 0.03548 0.49323 0.19046 0.0
C82 C 0.98614 0.4688 0.17892 0.0
C83 C 0.98723 0.44902 0.16013 0.0
C84 C 0.03779 0.45343 0.15259 0.0
C85 C 0.08727 0.4783 0.16424 0.0
C86 C 0.08609 0.49809 0.18302 0.0
C87 C 0.04509 0.60223 0.19838 0.0
C88 C -0.00032 0.60923 0.19274 0.0
C89 C 0.00637 0.64347 0.17772 0.0
C90 C 0.05856 0.67103 0.16802 0.0
C91 C 0.10388 0.66349 0.17367 0.0
C92 C 0.09718 0.6294 0.18878 0.0
C93 C 0.03723 0.63924 0.23738 0.0
C94 C 0.98858 0.6427 0.24232 0.0
C95 C -0.00692 0.69513 0.24684 0.0
C96 C 0.04634 0.74508 0.24633 0.0
C97 C 0.09486 0.74136 0.24111 0.0
C98 C 0.09032 0.68885 0.23669 0.0
C99 C 0.01809 0.56636 0.26823 0.0
C100 C 0.96299 0.54815 0.27517 0.0
C101 C 0.95489 0.57631 0.29109 0.0
C102 C 0.00186 0.62295 0.30032 0.0
C103 C 0.05732 0.63792 0.29431 0.0
C104 C 0.06535 0.60986 0.27831 0.0
C105 C 0.02039 0.46139 0.26059 0.0
C106 C 0.96835 0.42452 0.26899 0.0
C107 C 0.96632 0.3888 0.28292 0.0
C108 C 0.01629 0.38906 0.28847 0.0
C109 C 0.06841 0.42676 0.28007 0.0
C110 C 0.0704 0.46269 0.26631 0.0
C111 C 0.03875 0.43212 0.13266 0.0
C112 C 0.05143 0.80087 0.25124 0.0
H113 H 0.53964 0.94258 0.44057 0.0
H114 H 0.31832 0.21446 0.59361 0.0
H115 H 0.5503 0.93749 0.54449 0.0
H116 H 0.61664 0.91355 0.52807 0.0
H117 H 0.75363 0.08517 0.53934 0.0
H118 H 0.68725 0.10794 0.55612 0.0
H119 H 0.46703 0.96067 0.51875 0.0
H120 H 0.4816 0.93907 0.48537 0.0
H121 H 0.64844 0.08931 0.48693 0.0
H122 H 0.63294 0.11079 0.52021 0.0
H123 H 0.38664 0.00698 0.54007 0.0
H124 H 0.33313 0.02465 0.5161 0.0
H125 H 0.49052 0.16171 0.49574 0.0
H126 H 0.54389 0.14554 0.52037 0.0
H127 H 0.38663 0.01175 0.58239 0.0
H128 H 0.31959 0.04238 0.59341 0.0
H129 H 0.43383 0.20912 0.57379 0.0
H130 H 0.50103 0.17816 0.56316 0.0
H131 H 0.46273 0.98302 0.60465 0.0
H132 H 0.40975 0.9872 0.63268 0.0
H133 H 0.49666 0.16917 0.63117 0.0
H134 H 0.5485 0.16422 0.60278 0.0
H135 H 0.56531 0.96076 0.58877 0.0
H136 H 0.62948 0.95945 0.61285 0.0
H137 H 0.71056 0.14111 0.62123 0.0
H138 H 0.64556 0.14164 0.59747 0.0
O139 O 0.53452 0.95222 0.45371 0.0
O140 O 0.62014 0.02968 0.45533 0.0
O141 O 0.28732 0.11506 0.59946 0.0
O142 O 0.34374 0.20104 0.58915 0.0
C143 C 0.57212 0.04208 0.55689 0.0
C144 C 0.54065 0.04896 0.54234 0.0
C145 C 0.5009 0.06647 0.54728 0.0
C146 C 0.49132 0.07533 0.56675 0.0
C147 C 0.52279 0.06828 0.58126 0.0
C148 C 0.5641 0.05295 0.57633 0.0
C149 C 0.61413 0.02446 0.55135 0.0
C150 C 0.59509 0.96924 0.54393 0.0
C151 C 0.63289 0.95586 0.53441 0.0
C152 C 0.69021 -0.00233 0.53211 0.0
C153 C 0.70993 0.05179 0.54097 0.0
C154 C 0.67212 0.06501 0.55056 0.0
C155 C 0.549 0.03713 0.52189 0.0
C156 C 0.50652 0.989 0.5118 0.0
C157 C 0.51505 0.9767 0.49276 0.0
C158 C 0.56627 0.01237 0.48349 0.0
C159 C 0.60856 0.06089 0.49364 0.0
C160 C 0.59988 0.07321 0.51265 0.0
C161 C 0.46903 0.0753 0.53206 0.0
C162 C 0.40955 0.04106 0.53054 0.0
C163 C 0.37916 0.05109 0.51688 0.0
C164 C 0.40795 0.09466 0.50425 0.0
C165 C 0.46764 0.12783 0.50535 0.0
C166 C 0.49797 0.11857 0.51933 0.0
C167 C 0.44877 0.09285 0.57209 0.0
C168 C 0.39703 0.05485 0.58047 0.0
C169 C 0.35882 0.07244 0.58673 0.0
C170 C 0.37145 0.12829 0.58454 0.0
C171 C 0.42285 0.16588 0.57574 0.0
C172 C 0.46119 0.14829 0.56958 0.0
C173 C 0.50867 0.07322 0.60158 0.0
C174 C 0.47216 0.02392 0.6109 0.0
C175 C 0.4418 0.02645 0.62692 0.0
C176 C 0.44796 0.07845 0.63384 0.0
C177 C 0.49002 0.12838 0.62587 0.0
C178 C 0.52018 0.12576 0.60981 0.0
C179 C 0.60094 0.05128 0.59142 0.0
C180 C 0.5968 0.00011 0.59591 0.0
C181 C 0.63365 -0.00045 0.60958 0.0
C182 C 0.67525 0.05022 0.61894 0.0
C183 C 0.67853 0.10127 0.61453 0.0
C184 C 0.64164 0.10173 0.6009 0.0
C185 C 0.57547 -0.00117 0.46334 0.0
C186 C 0.33148 0.14748 0.5915 0.0
H187 H 0.67103 0.71217 0.02175 0.0
H188 H 0.26536 0.21756 0.86607 0.0
H189 H 0.62466 0.71141 0.90613 0.0
H190 H 0.70492 0.798 0.92052 0.0
H191 H 0.78811 0.70404 0.93408 0.0
H192 H 0.70835 0.61833 0.91944 0.0
H193 H 0.5776 0.66083 0.94364 0.0
H194 H 0.61322 0.69518 0.97641 0.0
H195 H 0.65343 0.56166 0.98029 0.0
H196 H 0.61844 0.52827 0.94736 0.0
H197 H 0.46571 0.5473 0.94594 0.0
H198 H 0.41092 0.49187 0.97278 0.0
H199 H 0.45117 0.36202 0.95491 0.0
H200 H 0.50784 0.41902 0.92864 0.0
H201 H 0.39524 0.48004 0.90578 0.0
H202 H 0.30697 0.39268 0.89664 0.0
H203 H 0.40643 0.31717 0.87589 0.0
H204 H 0.49412 0.40438 0.88534 0.0
H205 H 0.45126 0.5477 0.86924 0.0
H206 H 0.39074 0.49111 0.84195 0.0
H207 H 0.50341 0.42414 0.82993 0.0
H208 H 0.56361 0.48087 0.85747 0.0
H209 H 0.56347 0.65089 0.86612 0.0
H210 H 0.62345 0.71228 0.84112 0.0
H211 H 0.74861 0.6618 0.85098 0.0
H212 H 0.68772 0.59968 0.8756 0.0
O213 O 0.65714 0.69784 0.00881 0.0
O214 O 0.67636 0.62802 0.01018 0.0
O215 O 0.24997 0.29164 0.88199 0.0
O216 O 0.29939 0.25199 0.87032 0.0
C217 C 0.6072 0.60503 0.90766 0.0
C218 C 0.57531 0.57244 0.92304 0.0
C219 C 0.52415 0.52107 0.91931 0.0
C220 C 0.50446 0.50278 0.90028 0.0
C221 C 0.53537 0.53649 0.88497 0.0
C222 C 0.58728 0.58705 0.88861 0.0
C223 C 0.66079 0.65879 0.91189 0.0
C224 C 0.66123 0.71016 0.91162 0.0
C225 C 0.70676 0.75932 0.91998 0.0
C226 C 0.75246 0.75765 0.92862 0.0
C227 C 0.75385 0.7069 0.9274 0.0
C228 C 0.7083 0.65782 0.9191 0.0
C229 C 0.59567 0.59224 0.94313 0.0
C230 C 0.59431 0.6392 0.95158 0.0
C231 C 0.61457 0.65865 0.97031 0.0
C232 C 0.63622 0.63119 0.98097 0.0
C233 C 0.63707 0.58379 0.97247 0.0
C234 C 0.617 0.56454 0.9537 0.0
C235 C 0.49055 0.48702 0.93539 0.0
C236 C 0.46291 0.50703 0.94796 0.0
C237 C 0.43139 0.47516 0.96317 0.0
C238 C 0.42665 0.4225 0.96598 0.0
C239 C 0.45468 0.40277 0.95334 0.0
C240 C 0.48652 0.43489 0.93821 0.0
C241 C 0.45091 0.44843 0.89619 0.0
C242 C 0.39773 0.4443 0.89948 0.0
C243 C 0.34747 0.39448 0.89416 0.0
C244 C 0.34967 0.34801 0.88543 0.0
C245 C 0.40316 0.35213 0.88251 0.0
C246 C 0.45331 0.40184 0.88792 0.0
C247 C 0.51151 0.51805 0.86531 0.0
C248 C 0.46417 0.52268 0.8602 0.0
C249 C 0.4296 0.49022 0.84462 0.0
C250 C 0.4419 0.45254 0.83402 0.0
C251 C 0.49257 0.45228 0.83805 0.0
C252 C 0.52733 0.48506 0.8536 0.0
C253 C 0.62136 0.62094 0.87259 0.0
C254 C 0.60348 0.65259 0.86264 0.0
C255 C 0.63797 0.68789 0.84851 0.0
C256 C 0.69087 0.69203 0.84413 0.0
C257 C 0.70784 0.65905 0.85385 0.0
C258 C 0.67335 0.62383 0.86797 0.0
C259 C 0.65781 0.65205 0.00086 0.0
C260 C 0.29657 0.29562 0.87921 0.0
H261 H 0.94988 0.09833 0.10526 0.0
H262 H 0.06434 0.26241 0.20738 0.0
H263 H 0.09866 0.1174 0.13429 0.0
H264 H 0.93457 0.26737 0.17371 0.0
H265 H 0.06509 0.19366 0.18366 0.0
H266 H 0.93163 0.14484 0.13317 0.0
C267 C 0.97837 0.11184 0.11758 0.0
C268 C 0.02625 0.10475 0.1174 0.0
C269 C 0.03591 0.20926 0.18163 0.0
C270 C 0.00572 0.15782 0.1493 0.0
C271 C 0.03553 0.24855 0.19514 0.0
C272 C -0.00024 0.27114 0.19245 0.0
C273 C 0.00036 0.19256 0.1653 0.0
C274 C 0.96257 0.25087 0.17649 0.0
C275 C 0.96798 0.13838 0.13349 0.0
C276 C 0.06161 0.12266 0.13377 0.0
N277 N 0.9643 0.21322 0.16342 0.0
N278 N 0.05088 0.14878 0.14901 0.0
H279 H 0.83323 0.92977 0.4291 0.0
H280 H 0.80478 0.03466 0.53583 0.0
H281 H 0.97176 0.0681 0.46138 0.0
H282 H 0.66067 0.93844 0.49736 0.0
H283 H 0.86742 0.03013 0.51102 0.0
H284 H 0.77012 0.91627 0.45645 0.0
C285 C 0.85036 0.95697 0.44197 0.0
C286 C 0.90747 0.00049 0.44296 0.0
C287 C 0.82196 0.00943 0.50814 0.0
C288 C 0.83622 0.98496 0.47417 0.0
C289 C 0.78621 0.01206 0.52227 0.0
C290 C 0.72744 0.98737 0.51864 0.0
C291 C 0.79877 0.98178 0.49027 0.0
C292 C 0.70561 0.95766 0.50091 0.0
C293 C 0.81446 0.94929 0.45753 0.0
C294 C 0.92776 0.03445 0.45996 0.0
N295 N 0.74136 0.95612 0.48732 0.0
N296 N 0.89215 0.02604 0.47488 0.0
H297 H 0.90047 0.9934 0.78321 0.0
H298 H 0.75574 0.67615 0.81654 0.0
H299 H 0.93992 0.86946 0.75812 0.0
H300 H 0.71447 0.80037 0.84007 0.0
H301 H 0.82271 0.74556 0.79478 0.0
H302 H 0.83147 0.92248 0.80396 0.0
C303 C 0.8946 0.95119 0.78208 0.0
C304 C 0.92599 0.93725 0.76896 0.0
C305 C 0.79882 0.75753 0.80465 0.0
C306 C 0.84696 0.85573 0.79266 0.0
C307 C 0.76076 0.71801 0.81712 0.0
C308 C 0.72946 0.73248 0.83014 0.0
C309 C 0.8058 0.812 0.80526 0.0
C310 C 0.73712 0.78711 0.83011 0.0
C311 C 0.85512 0.91066 0.79391 0.0
C312 C 0.9166 0.88193 0.76807 0.0
N313 N 0.77464 0.82488 0.81792 0.0
N314 N 0.87793 0.84314 0.77979 0.0
H315 H 0.98642 0.84811 0.0853 0.0
H316 H 0.15186 0.77359 0.16101 0.0
H317 H 0.16486 0.95687 0.0996 0.0
H318 H 0.98209 0.65489 0.13969 0.0
H319 H 0.15994 0.83877 0.13705 0.0
H320 H 0.98598 0.77437 0.10356 0.0
C321 C 0.02567 0.85622 0.09214 0.0
C322 C 0.07561 0.90875 0.09113 0.0
C323 C 0.12112 0.79823 0.13749 0.0
C324 C 0.07536 0.8249 0.11218 0.0
C325 C 0.11657 0.76086 0.15112 0.0
C326 C 0.06596 0.7089 0.1525 0.0
C327 C 0.07459 0.78374 0.12525 0.0
C328 C 0.02141 0.695 0.13943 0.0
C329 C 0.02543 0.81411 0.10255 0.0
C330 C 0.12536 0.91698 0.10013 0.0
N331 N 0.02657 0.73242 0.12647 0.0
N332 N 0.12382 0.87567 0.11049 0.0
H333 H 0.21315 0.06201 0.40431 0.0
H334 H 0.32159 0.11592 0.51158 0.0
H335 H 0.15519 0.13728 0.44858 0.0
H336 H 0.4198 0.09802 0.4653 0.0
H337 H 0.2615 0.126 0.48822 0.0
H338 H 0.29188 0.07812 0.4255 0.0
C339 C 0.21763 0.08285 0.41833 0.0
C340 C 0.17725 0.09763 0.42483 0.0
C341 C 0.29659 0.12059 0.48312 0.0
C342 C 0.26622 0.11536 0.44911 0.0
C343 C 0.33057 0.11455 0.49644 0.0
C344 C 0.3751 0.10573 0.49024 0.0
C345 C 0.30655 0.11665 0.46344 0.0
C346 C 0.38563 0.10474 0.47054 0.0
C347 C 0.26248 0.092 0.43041 0.0
C348 C 0.18503 0.12465 0.44308 0.0
N349 N 0.35093 0.10925 0.45775 0.0
N350 N 0.22808 0.13184 0.45469 0.0
H351 H 0.15582 0.2576 0.75542 0.0
H352 H 0.40642 0.34023 0.83189 0.0
H353 H 0.18345 0.13688 0.78376 0.0
H354 H 0.37569 0.46372 0.80705 0.0
H355 H 0.32733 0.26577 0.81293 0.0
H356 H 0.23715 0.33431 0.77342 0.0
C357 C 0.17873 0.24727 0.76552 0.0
C358 C 0.16292 0.19088 0.76813 0.0
C359 C 0.33803 0.30914 0.81147 0.0
C360 C 0.25605 0.27808 0.78854 0.0
C361 C 0.38371 0.35179 0.82213 0.0
C362 C 0.39803 0.40833 0.82088 0.0
C363 C 0.30621 0.32295 0.79945 0.0
C364 C 0.36595 0.42062 0.80843 0.0
C365 C 0.22522 0.29101 0.77572 0.0
C366 C 0.19414 0.17977 0.78131 0.0
N367 N 0.32143 0.37822 0.79819 0.0
N368 N 0.23925 0.22295 0.79097 0.0
H369 H 0.91377 0.98482 0.6778 0.0
H370 H 0.7154 0.11332 0.65288 0.0
H371 H 0.91961 0.12756 0.70943 0.0
H372 H 0.72878 0.98747 0.61671 0.0
H373 H 0.78606 0.11561 0.6748 0.0
H374 H 0.84182 0.98162 0.6563 0.0
C375 C 0.89992 0.01555 0.6802 0.0
C376 C 0.92271 0.05658 0.69539 0.0
C377 C 0.77346 0.08745 0.66208 0.0
C378 C 0.84019 0.05304 0.67089 0.0
C379 C 0.73327 0.08626 0.64951 0.0
C380 C 0.71617 0.05024 0.63287 0.0
C381 C 0.79669 0.05227 0.65805 0.0
C382 C 0.74006 0.01537 0.62946 0.0
C383 C 0.85886 0.01371 0.66792 0.0
C384 C 0.90321 0.09531 0.69785 0.0
N385 N 0.77913 0.01733 0.64192 0.0
N386 N 0.86296 0.09254 0.68574 0.0
H387 H 0.04117 0.96214 0.00301 0.0
H388 H 0.73145 0.82282 0.9547 0.0
H389 H 0.90088 0.97538 0.02787 0.0
H390 H 0.86826 0.80068 0.93144 0.0
H391 H 0.7974 0.89102 0.97887 0.0
H392 H 0.98262 0.91402 0.97441 0.0
C393 C -0.00189 0.95518 0.00239 0.0
C394 C 0.97554 0.97216 0.01789 0.0
C395 C 0.81325 0.87186 0.96833 0.0
C396 C 0.90835 0.91719 0.98523 0.0
C397 C 0.77573 0.83332 0.95438 0.0
C398 C 0.79436 0.80582 0.94108 0.0
C399 C 0.86976 0.88283 0.96905 0.0
C400 C 0.85198 0.82035 0.9416 0.0
C401 C 0.96474 0.92779 0.98605 0.0
C402 C 0.91972 0.96253 0.01629 0.0
N403 N 0.88754 0.85749 0.95548 0.0
N404 N 0.88786 0.93529 0.00029 0.0
H405 H 0.0363 0.86434 0.39229 0.0
H406 H 0.92802 0.66235 0.29697 0.0
H407 H 0.95108 0.88874 0.34515 0.0
H408 H 0.05685 0.67067 0.33481 0.0
H409 H 0.92104 0.73292 0.31793 0.0
H410 H 0.02994 0.78161 0.37453 0.0
C411 C 0.01579 0.85195 0.37828 0.0
C412 C -0.00552 0.88351 0.37009 0.0
C413 C 0.95043 0.71891 0.32176 0.0
C414 C 0.98685 0.78912 0.34984 0.0
C415 C 0.95402 0.67821 0.30992 0.0
C416 C -0.00704 0.66054 0.31423 0.0
C417 C 0.98586 0.74203 0.33807 0.0
C418 C 0.02651 0.68344 0.33096 0.0
C419 C 0.01236 0.80493 0.36816 0.0
C420 C 0.96838 0.86575 0.35192 0.0
N421 N 0.02231 0.72319 0.34228 0.0
N422 N 0.96535 0.81973 0.34238 0.0
H423 H 0.16901 0.98663 0.71329 0.0
H424 H 0.39684 0.14217 0.63156 0.0
H425 H 0.18169 0.12544 0.68287 0.0
H426 H 0.39848 0.01541 0.6653 0.0
H427 H 0.31833 0.13655 0.65058 0.0
H428 H 0.25172 -0.00536 0.69568 0.0
C429 C 0.18899 0.01852 0.70283 0.0
C430 C 0.16849 0.05536 0.69949 0.0
C431 C 0.33612 0.1103 0.654 0.0
C432 C 0.26305 0.06506 0.67947 0.0
C433 C 0.38155 0.11398 0.64326 0.0
C434 C 0.4048 0.0796 0.64696 0.0
C435 C 0.31322 0.07166 0.6685 0.0
C436 C 0.38172 0.04252 0.66192 0.0
C437 C 0.23631 0.02327 0.69287 0.0
C438 C 0.19606 0.09612 0.68588 0.0
N439 N 0.33701 0.03936 0.67212 0.0
N440 N 0.24187 0.09985 0.67637 0.0
H441 H 0.26575 0.15892 0.04571 0.0
H442 H 0.3233 0.40692 0.97828 0.0
H443 H 0.15254 0.22633 0.04107 0.0
H444 H 0.44862 0.3577 0.98925 0.0
H445 H 0.26267 0.34462 0.00269 0.0
H446 H 0.33595 0.23482 0.02658 0.0
C447 C 0.25598 0.19009 0.04084 0.0
C448 C 0.20315 0.18615 0.0448 0.0
C449 C 0.30364 0.34776 -0.00011 0.0
C450 C 0.28277 0.27256 0.02281 0.0
C451 C 0.33847 0.3836 0.986 0.0
C452 C 0.39105 0.38735 0.98161 0.0
C453 C 0.32122 0.31501 0.00938 0.0
C454 C 0.40794 0.35532 0.99189 0.0
C455 C 0.296 0.23336 0.02993 0.0
C456 C 0.19266 0.22766 0.03823 0.0
N457 N 0.37293 0.32017 0.0052 0.0
N458 N 0.23189 0.26883 0.02739 0.0
H459 H 0.92273 0.09852 0.35593 0.0
H460 H 0.09483 0.40774 0.31648 0.0
H461 H 0.10444 0.20772 0.36391 0.0
H462 H 0.93299 0.27846 0.2922 0.0
H463 H 0.09394 0.33903 0.33751 0.0
H464 H 0.92082 0.16825 0.33583 0.0
C465 C 0.96217 0.13717 0.35345 0.0
C466 C 0.01386 0.14742 0.36152 0.0
C467 C 0.0586 0.32581 0.3276 0.0
C468 C 0.01186 0.22729 0.33883 0.0
C469 C 0.05912 0.36494 0.31552 0.0
C470 C 0.01414 0.34887 0.30239 0.0
C471 C 0.01252 0.27027 0.32671 0.0
C472 C 0.96832 0.29306 0.30221 0.0
C473 C 0.96106 0.17682 0.34198 0.0
C474 C 0.06374 0.1981 0.35788 0.0
N475 N 0.96873 0.25573 0.31417 0.0
N476 N 0.06147 0.23631 0.34686 0.0
loop_
_geom_bond_atom_site_label_1
_geom_bond_atom_site_label_2
_geom_bond_distance
_geom_bond_site_symmetry_2
_ccdc_geom_bond_type
In0 O1 2.294 . S
In0 O2 2.326 . S
In0 O6 2.266 1_445 S
In0 O7 2.326 1_545 S
In0 O8 2.266 1_545 S
In0 O9 2.326 1_545 S
In0 O11 2.294 . S
In0 O12 2.326 . S
O1 In0 2.294 . S
O1 C10 1.240 . S
O2 In0 2.326 . S
O2 C10 1.252 . S
C3 O6 1.252 . S
C3 O7 1.260 1_655 S
C4 O11 1.240 . S
C4 O12 1.252 . S
C5 O8 1.252 . S
C5 O9 1.260 . S
O6 In0 2.266 1_665 S
O6 C3 1.252 . S
O7 In0 2.326 1_565 S
O7 C3 1.260 1_455 S
O8 In0 2.266 1_565 S
O8 C5 1.252 . S
O9 In0 2.326 1_565 S
O9 C5 1.260 . S
C10 O1 1.240 . S
C10 O2 1.252 . S
O11 In0 2.294 . S
O11 C4 1.240 . S
O12 In0 2.326 . S
O12 C4 1.252 . S
In13 O14 2.294 . S
In13 O15 2.326 1_455 S
In13 O19 2.266 . S
In13 O20 2.326 1_545 S
In13 O21 2.266 1_445 S
In13 O22 2.326 1_545 S
In13 O24 2.294 1_445 S
In13 O25 2.320 1_455 S
O14 In13 2.294 . S
O14 C23 1.240 . S
O15 In13 2.326 1_655 S
O15 C23 1.252 1_655 S
C16 O19 1.252 . S
C16 O20 1.260 1_545 S
C17 O24 1.240 1_545 S
C17 O25 1.259 . S
C18 O21 1.252 1_455 S
C18 O22 1.260 . S
O19 In13 2.266 . S
O19 C16 1.252 . S
O20 In13 2.326 1_565 S
O20 C16 1.260 1_565 S
O21 In13 2.266 1_665 S
O21 C18 1.252 1_655 S
O22 In13 2.326 1_565 S
O22 C18 1.260 . S
C23 O14 1.240 . S
C23 O15 1.252 1_455 S
O24 In13 2.294 1_665 S
O24 C17 1.240 1_565 S
O25 In13 2.320 1_655 S
O25 C17 1.259 . S
In26 O27 2.294 1_545 S
In26 O28 2.326 . S
In26 O32 2.266 . S
In26 O33 2.326 . S
In26 O34 2.266 . S
In26 O35 2.326 . S
In26 O37 2.294 . S
In26 O38 2.326 . S
O27 In26 2.294 1_565 S
O27 C36 1.240 . S
O28 In26 2.326 . S
O28 C36 1.252 1_545 S
C29 O32 1.252 . S
C29 O33 1.260 . S
C30 O37 1.239 1_655 S
C30 O38 1.249 1_655 S
C31 O34 1.252 . S
C31 O35 1.260 . S
O32 In26 2.266 . S
O32 C29 1.252 . S
O33 In26 2.326 . S
O33 C29 1.260 . S
O34 In26 2.266 . S
O34 C31 1.252 . S
O35 In26 2.326 . S
O35 C31 1.260 . S
C36 O27 1.240 . S
C36 O28 1.252 1_565 S
O37 In26 2.294 . S
O37 C30 1.239 1_455 S
O38 In26 2.326 . S
O38 C30 1.249 1_455 S
H39 O65 0.856 . S
H40 O68 0.854 . S
H41 C76 0.930 . S
H42 C77 0.930 . S
H43 C79 0.930 . S
H44 C80 0.930 . S
H45 C82 0.931 1_655 S
H46 C83 0.930 1_655 S
H47 C85 0.930 . S
H48 C86 0.929 . S
H49 C88 0.930 1_655 S
H50 C89 0.931 1_655 S
H51 C91 0.930 . S
H52 C92 0.929 . S
H53 C94 0.938 . S
H54 C95 0.930 1_655 S
H55 C97 0.930 . S
H56 C98 0.932 . S
H57 C100 0.930 . S
H58 C101 0.929 . S
H59 C103 0.931 . S
H60 C104 0.930 . S
H61 C106 0.929 . S
H62 C107 0.931 . S
H63 C109 0.930 . S
H64 C110 0.929 . S
O65 H39 0.856 . S
O65 C111 1.300 . S
O66 C111 1.209 . S
O67 C112 1.199 . S
O68 H40 0.854 . S
O68 C112 1.297 . S
C69 C70 1.404 . S
C69 C74 1.397 . S
C69 C75 1.492 . S
C70 C69 1.404 . S
C70 C71 1.396 . S
C70 C81 1.492 . S
C71 C70 1.396 . S
C71 C72 1.397 . S
C71 C87 1.509 . S
C72 C71 1.397 . S
C72 C73 1.412 . S
C72 C93 1.485 . S
C73 C72 1.412 . S
C73 C74 1.388 . S
C73 C99 1.490 . S
C74 C69 1.397 . S
C74 C73 1.388 . S
C74 C105 1.519 . S
C75 C69 1.492 . S
C75 C76 1.363 1_455 S
C75 C80 1.390 . S
C76 H41 0.930 . S
C76 C75 1.363 1_655 S
C76 C77 1.372 . S
C77 H42 0.930 . S
C77 C76 1.372 . S
C77 C78 1.383 1_655 S
C78 C77 1.383 1_455 S
C78 C79 1.395 . S
C79 H43 0.930 . S
C79 C78 1.395 . S
C79 C80 1.362 . S
C80 H44 0.930 . S
C80 C75 1.390 . S
C80 C79 1.362 . S
C81 C70 1.492 . S
C81 C82 1.377 . S
C81 C86 1.397 . S
C82 H45 0.931 1_455 S
C82 C81 1.377 . S
C82 C83 1.376 . S
C83 H46 0.930 1_455 S
C83 C82 1.376 . S
C83 C84 1.376 . S
C84 C83 1.376 . S
C84 C85 1.378 . S
C84 C111 1.486 . S
C85 H47 0.930 . S
C85 C84 1.378 . S
C85 C86 1.376 . S
C86 H48 0.929 . S
C86 C81 1.397 . S
C86 C85 1.376 . S
C87 C71 1.509 . S
C87 C88 1.391 . S
C87 C92 1.386 . S
C88 H49 0.930 1_455 S
C88 C87 1.391 . S
C88 C89 1.375 . S
C89 H50 0.931 1_455 S
C89 C88 1.375 . S
C89 C90 1.375 . S
C90 C89 1.375 . S
C90 C91 1.361 . S
C91 H51 0.930 . S
C91 C90 1.361 . S
C91 C92 1.399 . S
C92 H52 0.929 . S
C92 C87 1.386 . S
C92 C91 1.399 . S
C93 C72 1.485 . S
C93 C94 1.382 1_455 S
C93 C98 1.360 . S
C94 H53 0.938 . S
C94 C93 1.382 1_655 S
C94 C95 1.378 1_655 S
C95 H54 0.930 1_455 S
C95 C94 1.378 1_455 S
C95 C96 1.397 . S
C96 C95 1.397 . S
C96 C97 1.390 . S
C96 C112 1.476 . S
C97 H55 0.930 . S
C97 C96 1.390 . S
C97 C98 1.366 . S
C98 H56 0.932 . S
C98 C93 1.360 . S
C98 C97 1.366 . S
C99 C73 1.490 . S
C99 C100 1.380 1_455 S
C99 C104 1.386 . S
C100 H57 0.930 . S
C100 C99 1.380 1_655 S
C100 C101 1.381 . S
C101 H58 0.929 . S
C101 C100 1.381 . S
C101 C102 1.371 1_655 S
C102 C101 1.371 1_455 S
C102 C103 1.380 . S
C103 H59 0.931 . S
C103 C102 1.380 . S
C103 C104 1.387 . S
C104 H60 0.930 . S
C104 C99 1.386 . S
C104 C103 1.387 . S
C105 C74 1.519 . S
C105 C106 1.377 1_455 S
C105 C110 1.361 . S
C106 H61 0.929 . S
C106 C105 1.377 1_655 S
C106 C107 1.386 . S
C107 H62 0.931 . S
C107 C106 1.386 . S
C107 C108 1.363 1_655 S
C108 C107 1.363 1_455 S
C108 C109 1.385 . S
C109 H63 0.930 . S
C109 C108 1.385 . S
C109 C110 1.396 . S
C110 H64 0.929 . S
C110 C105 1.361 . S
C110 C109 1.396 . S
C111 O65 1.300 . S
C111 O66 1.209 . S
C111 C84 1.486 . S
C112 O67 1.199 . S
C112 O68 1.297 . S
C112 C96 1.476 . S
H113 O139 0.856 . S
H114 O142 0.854 . S
H115 C150 0.937 . S
H116 C151 0.930 . S
H117 C153 0.930 . S
H118 C154 0.930 . S
H119 C156 0.931 1_565 S
H120 C157 0.930 1_565 S
H121 C159 0.930 . S
H122 C160 0.929 . S
H123 C162 0.930 1_565 S
H124 C163 0.931 1_565 S
H125 C165 0.930 . S
H126 C166 0.929 . S
H127 C168 0.931 1_565 S
H128 C169 0.930 1_565 S
H129 C171 0.930 . S
H130 C172 0.932 . S
H131 C174 0.930 1_565 S
H132 C175 0.929 1_565 S
H133 C177 0.931 . S
H134 C178 0.930 . S
H135 C180 0.929 1_565 S
H136 C181 0.931 1_565 S
H137 C183 0.930 . S
H138 C184 0.929 . S
O139 H113 0.856 . S
O139 C185 1.300 . S
O140 C185 1.209 . S
O141 C186 1.199 . S
O142 H114 0.854 . S
O142 C186 1.297 . S
C143 C144 1.404 . S
C143 C148 1.397 . S
C143 C149 1.492 . S
C144 C143 1.404 . S
C144 C145 1.396 . S
C144 C155 1.492 . S
C145 C144 1.396 . S
C145 C146 1.397 . S
C145 C161 1.509 . S
C146 C145 1.397 . S
C146 C147 1.412 . S
C146 C167 1.485 . S
C147 C146 1.412 . S
C147 C148 1.388 . S
C147 C173 1.490 . S
C148 C143 1.397 . S
C148 C147 1.388 . S
C148 C179 1.519 . S
C149 C143 1.492 . S
C149 C150 1.343 1_545 S
C149 C154 1.390 . S
C150 H115 0.937 . S
C150 C149 1.343 1_565 S
C150 C151 1.386 . S
C151 H116 0.930 . S
C151 C150 1.386 . S
C151 C152 1.383 1_565 S
C152 C151 1.383 1_545 S
C152 C153 1.395 . S
C153 H117 0.930 . S
C153 C152 1.395 . S
C153 C154 1.362 . S
C154 H118 0.930 . S
C154 C149 1.390 . S
C154 C153 1.362 . S
C155 C144 1.492 . S
C155 C156 1.377 . S
C155 C160 1.397 . S
C156 H119 0.931 1_545 S
C156 C155 1.377 . S
C156 C157 1.376 . S
C157 H120 0.930 1_545 S
C157 C156 1.376 . S
C157 C158 1.376 . S
C158 C157 1.376 . S
C158 C159 1.378 . S
C158 C185 1.486 . S
C159 H121 0.930 . S
C159 C158 1.378 . S
C159 C160 1.376 . S
C160 H122 0.929 . S
C160 C155 1.397 . S
C160 C159 1.376 . S
C161 C145 1.509 . S
C161 C162 1.391 . S
C161 C166 1.386 . S
C162 H123 0.930 1_545 S
C162 C161 1.391 . S
C162 C163 1.375 . S
C163 H124 0.931 1_545 S
C163 C162 1.375 . S
C163 C164 1.375 . S
C164 C163 1.375 . S
C164 C165 1.361 . S
C165 H125 0.930 . S
C165 C164 1.361 . S
C165 C166 1.399 . S
C166 H126 0.929 . S
C166 C161 1.386 . S
C166 C165 1.399 . S
C167 C146 1.485 . S
C167 C168 1.394 . S
C167 C172 1.360 . S
C168 H127 0.931 1_545 S
C168 C167 1.394 . S
C168 C169 1.372 . S
C169 H128 0.930 1_545 S
C169 C168 1.372 . S
C169 C170 1.397 . S
C170 C169 1.397 . S
C170 C171 1.390 . S
C170 C186 1.476 . S
C171 H129 0.930 . S
C171 C170 1.390 . S
C171 C172 1.366 . S
C172 H130 0.932 . S
C172 C167 1.360 . S
C172 C171 1.366 . S
C173 C147 1.490 . S
C173 C174 1.380 . S
C173 C178 1.386 . S
C174 H131 0.930 1_545 S
C174 C173 1.380 . S
C174 C175 1.381 . S
C175 H132 0.929 1_545 S
C175 C174 1.381 . S
C175 C176 1.371 . S
C176 C175 1.371 . S
C176 C177 1.380 . S
C177 H133 0.931 . S
C177 C176 1.380 . S
C177 C178 1.387 . S
C178 H134 0.930 . S
C178 C173 1.386 . S
C178 C177 1.387 . S
C179 C148 1.519 . S
C179 C180 1.377 . S
C179 C184 1.361 . S
C180 H135 0.929 1_545 S
C180 C179 1.377 . S
C180 C181 1.386 . S
C181 H136 0.931 1_545 S
C181 C180 1.386 . S
C181 C182 1.363 . S
C182 C181 1.363 . S
C182 C183 1.385 . S
C183 H137 0.930 . S
C183 C182 1.385 . S
C183 C184 1.396 . S
C184 H138 0.929 . S
C184 C179 1.361 . S
C184 C183 1.396 . S
C185 O139 1.300 . S
C185 O140 1.209 . S
C185 C158 1.486 . S
C186 O141 1.199 . S
C186 O142 1.297 . S
C186 C170 1.476 . S
H187 O213 0.856 . S
H188 O216 0.854 . S
H189 C224 0.930 . S
H190 C225 0.930 . S
H191 C227 0.930 . S
H192 C228 0.930 . S
H193 C230 0.931 . S
H194 C231 0.930 1_554 S
H195 C233 0.930 . S
H196 C234 0.929 . S
H197 C236 0.930 . S
H198 C237 0.931 . S
H199 C239 0.930 . S
H200 C240 0.929 . S
H201 C242 0.931 . S
H202 C243 0.930 . S
H203 C245 0.930 . S
H204 C246 0.932 . S
H205 C248 0.930 . S
H206 C249 0.929 . S
H207 C251 0.931 . S
H208 C252 0.930 . S
H209 C254 0.929 . S
H210 C255 0.931 . S
H211 C257 0.930 . S
H212 C258 0.929 . S
O213 H187 0.856 . S
O213 C259 1.300 . S
O214 C259 1.209 . S
O215 C260 1.199 . S
O216 H188 0.854 . S
O216 C260 1.297 . S
C217 C218 1.404 . S
C217 C222 1.397 . S
C217 C223 1.492 . S
C218 C217 1.404 . S
C218 C219 1.396 . S
C218 C229 1.492 . S
C219 C218 1.396 . S
C219 C220 1.397 . S
C219 C235 1.509 . S
C220 C219 1.397 . S
C220 C221 1.412 . S
C220 C241 1.485 . S
C221 C220 1.412 . S
C221 C222 1.388 . S
C221 C247 1.490 . S
C222 C217 1.397 . S
C222 C221 1.388 . S
C222 C253 1.519 . S
C223 C217 1.492 . S
C223 C224 1.363 . S
C223 C228 1.390 . S
C224 H189 0.930 . S
C224 C223 1.363 . S
C224 C225 1.372 . S
C225 H190 0.930 . S
C225 C224 1.372 . S
C225 C226 1.383 . S
C226 C225 1.383 . S
C226 C227 1.395 . S
C227 H191 0.930 . S
C227 C226 1.395 . S
C227 C228 1.362 . S
C228 H192 0.930 . S
C228 C223 1.390 . S
C228 C227 1.362 . S
C229 C218 1.492 . S
C229 C230 1.377 . S
C229 C234 1.397 . S
C230 H193 0.931 . S
C230 C229 1.377 . S
C230 C231 1.376 . S
C231 H194 0.930 1_556 S
C231 C230 1.376 . S
C231 C232 1.376 . S
C232 C231 1.376 . S
C232 C233 1.378 . S
C232 C259 1.486 1_556 S
C233 H195 0.930 . S
C233 C232 1.378 . S
C233 C234 1.376 . S
C234 H196 0.929 . S
C234 C229 1.397 . S
C234 C233 1.376 . S
C235 C219 1.509 . S
C235 C236 1.391 . S
C235 C240 1.386 . S
C236 H197 0.930 . S
C236 C235 1.391 . S
C236 C237 1.375 . S
C237 H198 0.931 . S
C237 C236 1.375 . S
C237 C238 1.375 . S
C238 C237 1.375 . S
C238 C239 1.361 . S
C239 H199 0.930 . S
C239 C238 1.361 . S
C239 C240 1.399 . S
C240 H200 0.929 . S
C240 C235 1.386 . S
C240 C239 1.399 . S
C241 C220 1.485 . S
C241 C242 1.394 . S
C241 C246 1.360 . S
C242 H201 0.931 . S
C242 C241 1.394 . S
C242 C243 1.372 . S
C243 H202 0.930 . S
C243 C242 1.372 . S
C243 C244 1.397 . S
C244 C243 1.397 . S
C244 C245 1.390 . S
C244 C260 1.476 . S
C245 H203 0.930 . S
C245 C244 1.390 . S
C245 C246 1.366 . S
C246 H204 0.932 . S
C246 C241 1.360 . S
C246 C245 1.366 . S
C247 C221 1.490 . S
C247 C248 1.380 . S
C247 C252 1.386 . S
C248 H205 0.930 . S
C248 C247 1.380 . S
C248 C249 1.381 . S
C249 H206 0.929 . S
C249 C248 1.381 . S
C249 C250 1.371 . S
C250 C249 1.371 . S
C250 C251 1.380 . S
C251 H207 0.931 . S
C251 C250 1.380 . S
C251 C252 1.387 . S
C252 H208 0.930 . S
C252 C247 1.386 . S
C252 C251 1.387 . S
C253 C222 1.519 . S
C253 C254 1.377 . S
C253 C258 1.361 . S
C254 H209 0.929 . S
C254 C253 1.377 . S
C254 C255 1.386 . S
C255 H210 0.931 . S
C255 C254 1.386 . S
C255 C256 1.363 . S
C256 C255 1.363 . S
C256 C257 1.385 . S
C257 H211 0.930 . S
C257 C256 1.385 . S
C257 C258 1.396 . S
C258 H212 0.929 . S
C258 C253 1.361 . S
C258 C257 1.396 . S
C259 O213 1.300 . S
C259 O214 1.209 . S
C259 C232 1.486 1_554 S
C260 O215 1.199 . S
C260 O216 1.297 . S
C260 C244 1.476 . S
H261 C267 0.930 . S
H262 C271 0.930 . S
H263 C276 0.929 . S
H264 C274 0.929 . S
H265 C269 0.929 . S
H266 C275 0.929 1_655 S
C267 H261 0.930 . S
C267 C268 1.367 . S
C267 C275 1.378 . S
C268 C267 1.367 . S
C268 C276 1.433 . S
C269 H265 0.929 . S
C269 C271 1.378 . S
C269 C273 1.350 . S
C270 C273 1.463 . S
C270 C275 1.350 . S
C270 N278 1.427 . S
C271 H262 0.930 . S
C271 C269 1.378 . S
C271 C272 1.367 . S
C272 C271 1.367 . S
C272 C274 1.433 1_455 S
C273 C269 1.350 . S
C273 C270 1.463 . S
C273 N277 1.427 . S
C274 H264 0.929 . S
C274 C272 1.433 1_655 S
C274 N277 1.384 1_655 S
C275 H266 0.929 1_455 S
C275 C267 1.378 . S
C275 C270 1.350 . S
C276 H263 0.929 . S
C276 C268 1.433 . S
C276 N278 1.384 . S
N277 C273 1.427 . S
N277 C274 1.384 1_455 S
N278 C270 1.427 . S
N278 C276 1.384 . S
H279 C285 0.930 . S
H280 C289 0.930 1_565 S
H281 C294 0.929 . S
H282 C292 0.929 . S
H283 C287 0.926 1_565 S
H284 C293 0.929 . S
C285 H279 0.930 . S
C285 C286 1.367 . S
C285 C293 1.378 . S
C286 C285 1.367 . S
C286 C294 1.433 . S
C287 H283 0.926 1_545 S
C287 C289 1.378 . S
C287 C291 1.350 . S
C288 C291 1.463 . S
C288 C293 1.350 . S
C288 N296 1.427 . S
C289 H280 0.930 1_545 S
C289 C287 1.378 . S
C289 C290 1.367 . S
C290 C289 1.367 . S
C290 C292 1.433 . S
C291 C287 1.350 . S
C291 C288 1.463 . S
C291 N295 1.427 . S
C292 H282 0.929 . S
C292 C290 1.433 . S
C292 N295 1.384 . S
C293 H284 0.929 . S
C293 C285 1.378 . S
C293 C288 1.350 . S
C294 H281 0.929 . S
C294 C286 1.433 . S
C294 N296 1.384 . S
N295 C291 1.427 . S
N295 C292 1.384 . S
N296 C288 1.427 . S
N296 C294 1.384 . S
H297 C303 0.930 . S
H298 C307 0.930 . S
H299 C312 0.929 . S
H300 C310 0.929 . S
H301 C305 0.929 . S
H302 C311 0.929 . S
C303 H297 0.930 . S
C303 C304 1.367 . S
C303 C311 1.378 . S
C304 C303 1.367 . S
C304 C312 1.433 . S
C305 H301 0.929 . S
C305 C307 1.378 . S
C305 C309 1.350 . S
C306 C309 1.463 . S
C306 C311 1.350 . S
C306 N314 1.427 . S
C307 H298 0.930 . S
C307 C305 1.378 . S
C307 C308 1.367 . S
C308 C307 1.367 . S
C308 C310 1.433 . S
C309 C305 1.350 . S
C309 C306 1.463 . S
C309 N313 1.427 . S
C310 H300 0.929 . S
C310 C308 1.433 . S
C310 N313 1.384 . S
C311 H302 0.929 . S
C311 C303 1.378 . S
C311 C306 1.350 . S
C312 H299 0.929 . S
C312 C304 1.433 . S
C312 N314 1.384 . S
N313 C309 1.427 . S
N313 C310 1.384 . S
N314 C306 1.427 . S
N314 C312 1.384 . S
H315 C321 0.930 . S
H316 C325 0.930 . S
H317 C330 0.929 1_545 S
H318 C328 0.929 . S
H319 C323 0.929 . S
H320 C329 0.929 . S
C321 H315 0.930 . S
C321 C322 1.367 . S
C321 C329 1.378 . S
C322 C321 1.367 . S
C322 C330 1.433 . S
C323 H319 0.929 . S
C323 C325 1.378 . S
C323 C327 1.350 . S
C324 C327 1.463 . S
C324 C329 1.350 . S
C324 N332 1.427 . S
C325 H316 0.930 . S
C325 C323 1.378 . S
C325 C326 1.367 . S
C326 C325 1.367 . S
C326 C328 1.433 . S
C327 C323 1.350 . S
C327 C324 1.463 . S
C327 N331 1.427 . S
C328 H318 0.929 . S
C328 C326 1.433 . S
C328 N331 1.384 . S
C329 H320 0.929 . S
C329 C321 1.378 . S
C329 C324 1.350 . S
C330 H317 0.929 1_565 S
C330 C322 1.433 . S
C330 N332 1.384 . S
N331 C327 1.427 . S
N331 C328 1.384 . S
N332 C324 1.427 . S
N332 C330 1.384 . S
H333 C339 0.930 . S
H334 C343 0.930 . S
H335 C348 0.929 . S
H336 C346 0.929 . S
H337 C341 0.929 . S
H338 C347 0.929 . S
C339 H333 0.930 . S
C339 C340 1.367 . S
C339 C347 1.378 . S
C340 C339 1.367 . S
C340 C348 1.433 . S
C341 H337 0.929 . S
C341 C343 1.378 . S
C341 C345 1.350 . S
C342 C345 1.463 . S
C342 C347 1.350 . S
C342 N350 1.427 . S
C343 H334 0.930 . S
C343 C341 1.378 . S
C343 C344 1.367 . S
C344 C343 1.367 . S
C344 C346 1.433 . S
C345 C341 1.350 . S
C345 C342 1.463 . S
C345 N349 1.427 . S
C346 H336 0.929 . S
C346 C344 1.433 . S
C346 N349 1.384 . S
C347 H338 0.929 . S
C347 C339 1.378 . S
C347 C342 1.350 . S
C348 H335 0.929 . S
C348 C340 1.433 . S
C348 N350 1.384 . S
N349 C345 1.427 . S
N349 C346 1.384 . S
N350 C342 1.427 . S
N350 C348 1.384 . S
H351 C357 0.930 . S
H352 C361 0.930 . S
H353 C366 0.929 . S
H354 C364 0.929 . S
H355 C359 0.929 . S
H356 C365 0.929 . S
C357 H351 0.930 . S
C357 C358 1.367 . S
C357 C365 1.378 . S
C358 C357 1.367 . S
C358 C366 1.433 . S
C359 H355 0.929 . S
C359 C361 1.378 . S
C359 C363 1.350 . S
C360 C363 1.463 . S
C360 C365 1.350 . S
C360 N368 1.427 . S
C361 H352 0.930 . S
C361 C359 1.378 . S
C361 C362 1.367 . S
C362 C361 1.367 . S
C362 C364 1.433 . S
C363 C359 1.350 . S
C363 C360 1.463 . S
C363 N367 1.427 . S
C364 H354 0.929 . S
C364 C362 1.433 . S
C364 N367 1.384 . S
C365 H356 0.929 . S
C365 C357 1.378 . S
C365 C360 1.350 . S
C366 H353 0.929 . S
C366 C358 1.433 . S
C366 N368 1.384 . S
N367 C363 1.427 . S
N367 C364 1.384 . S
N368 C360 1.427 . S
N368 C366 1.384 . S
H369 C375 0.930 . S
H370 C379 0.930 . S
H371 C384 0.929 . S
H372 C382 0.929 . S
H373 C377 0.929 . S
H374 C383 0.929 . S
C375 H369 0.930 . S
C375 C376 1.367 . S
C375 C383 1.378 . S
C376 C375 1.367 . S
C376 C384 1.433 . S
C377 H373 0.929 . S
C377 C379 1.378 . S
C377 C381 1.350 . S
C378 C381 1.463 . S
C378 C383 1.350 . S
C378 N386 1.427 . S
C379 H370 0.930 . S
C379 C377 1.378 . S
C379 C380 1.367 . S
C380 C379 1.367 . S
C380 C382 1.433 . S
C381 C377 1.350 . S
C381 C378 1.463 . S
C381 N385 1.427 . S
C382 H372 0.929 . S
C382 C380 1.433 . S
C382 N385 1.384 . S
C383 H374 0.929 . S
C383 C375 1.378 . S
C383 C378 1.350 . S
C384 H371 0.929 . S
C384 C376 1.433 . S
C384 N386 1.384 . S
N385 C381 1.427 . S
N385 C382 1.384 . S
N386 C378 1.427 . S
N386 C384 1.384 . S
H387 C393 0.930 1_455 S
H388 C397 0.930 . S
H389 C402 0.929 . S
H390 C400 0.929 . S
H391 C395 0.902 1_554 S
H392 C401 0.945 . S
C393 H387 0.930 1_655 S
C393 C394 1.367 . S
C393 C401 1.363 1_554 S
C394 C393 1.367 . S
C394 C402 1.433 . S
C395 H391 0.902 1_556 S
C395 C397 1.378 . S
C395 C399 1.350 . S
C396 C399 1.463 1_554 S
C396 C401 1.348 1_554 S
C396 N404 1.427 . S
C397 H388 0.930 . S
C397 C395 1.378 . S
C397 C398 1.367 . S
C398 C397 1.367 . S
C398 C400 1.433 . S
C399 C395 1.350 . S
C399 C396 1.463 1_556 S
C399 N403 1.427 . S
C400 H390 0.929 . S
C400 C398 1.433 . S
C400 N403 1.384 . S
C401 H392 0.945 . S
C401 C393 1.363 1_556 S
C401 C396 1.348 1_556 S
C402 H389 0.929 . S
C402 C394 1.433 . S
C402 N404 1.384 . S
N403 C399 1.427 . S
N403 C400 1.384 . S
N404 C396 1.427 . S
N404 C402 1.384 . S
H405 C411 0.930 . S
H406 C415 0.930 . S
H407 C420 0.929 . S
H408 C418 0.929 . S
H409 C413 0.929 . S
H410 C419 0.929 . S
C411 H405 0.930 . S
C411 C412 1.367 . S
C411 C419 1.378 . S
C412 C411 1.367 . S
C412 C420 1.433 . S
C413 H409 0.929 . S
C413 C415 1.378 . S
C413 C417 1.350 . S
C414 C417 1.463 . S
C414 C419 1.350 . S
C414 N422 1.427 . S
C415 H406 0.930 . S
C415 C413 1.378 . S
C415 C416 1.367 . S
C416 C415 1.367 . S
C416 C418 1.433 . S
C417 C413 1.350 . S
C417 C414 1.463 . S
C417 N421 1.427 . S
C418 H408 0.929 . S
C418 C416 1.433 . S
C418 N421 1.384 . S
C419 H410 0.929 . S
C419 C411 1.378 . S
C419 C414 1.350 . S
C420 H407 0.929 . S
C420 C412 1.433 . S
C420 N422 1.384 . S
N421 C417 1.427 . S
N421 C418 1.384 . S
N422 C414 1.427 . S
N422 C420 1.384 . S
H423 C429 0.930 . S
H424 C433 0.930 . S
H425 C438 0.929 . S
H426 C436 0.929 . S
H427 C431 0.929 . S
H428 C437 0.929 . S
C429 H423 0.930 . S
C429 C430 1.367 . S
C429 C437 1.378 . S
C430 C429 1.367 . S
C430 C438 1.433 . S
C431 H427 0.929 . S
C431 C433 1.378 . S
C431 C435 1.350 . S
C432 C435 1.463 . S
C432 C437 1.350 . S
C432 N440 1.427 . S
C433 H424 0.930 . S
C433 C431 1.378 . S
C433 C434 1.367 . S
C434 C433 1.367 . S
C434 C436 1.433 . S
C435 C431 1.350 . S
C435 C432 1.463 . S
C435 N439 1.427 . S
C436 H426 0.929 . S
C436 C434 1.433 . S
C436 N439 1.384 . S
C437 H428 0.929 . S
C437 C429 1.378 . S
C437 C432 1.350 . S
C438 H425 0.929 . S
C438 C430 1.433 . S
C438 N440 1.384 . S
N439 C435 1.427 . S
N439 C436 1.384 . S
N440 C432 1.427 . S
N440 C438 1.384 . S
H441 C447 0.930 . S
H442 C451 0.930 . S
H443 C456 0.929 . S
H444 C454 0.929 . S
H445 C449 0.929 . S
H446 C455 0.929 . S
C447 H441 0.930 . S
C447 C448 1.367 . S
C447 C455 1.378 . S
C448 C447 1.367 . S
C448 C456 1.433 . S
C449 H445 0.929 . S
C449 C451 1.378 . S
C449 C453 1.350 1_556 S
C450 C453 1.463 . S
C450 C455 1.350 . S
C450 N458 1.427 . S
C451 H442 0.930 . S
C451 C449 1.378 . S
C451 C452 1.367 . S
C452 C451 1.367 . S
C452 C454 1.433 1_556 S
C453 C449 1.350 1_554 S
C453 C450 1.463 . S
C453 N457 1.427 . S
C454 H444 0.929 . S
C454 C452 1.433 1_554 S
C454 N457 1.384 . S
C455 H446 0.929 . S
C455 C447 1.378 . S
C455 C450 1.350 . S
C456 H443 0.929 . S
C456 C448 1.433 . S
C456 N458 1.384 . S
N457 C453 1.427 . S
N457 C454 1.384 . S
N458 C450 1.427 . S
N458 C456 1.384 . S
H459 C465 0.930 . S
H460 C469 0.930 . S
H461 C474 0.929 . S
H462 C472 0.929 1_655 S
H463 C467 0.929 . S
H464 C473 0.929 . S
C465 H459 0.930 . S
C465 C466 1.367 1_655 S
C465 C473 1.378 . S
C466 C465 1.367 1_455 S
C466 C474 1.433 . S
C467 H463 0.929 . S
C467 C469 1.378 . S
C467 C471 1.350 . S
C468 C471 1.463 . S
C468 C473 1.350 1_455 S
C468 N476 1.427 . S
C469 H460 0.930 . S
C469 C467 1.378 . S
C469 C470 1.367 . S
C470 C469 1.367 . S
C470 C472 1.433 . S
C471 C467 1.350 . S
C471 C468 1.463 . S
C471 N475 1.427 1_455 S
C472 H462 0.929 1_455 S
C472 C470 1.433 . S
C472 N475 1.384 1_455 S
C473 H464 0.929 . S
C473 C465 1.378 . S
C473 C468 1.350 1_655 S
C474 H461 0.929 . S
C474 C466 1.433 . S
C474 N476 1.384 . S
N475 C471 1.427 1_655 S
N475 C472 1.384 1_655 S
N476 C468 1.427 . S
N476 C474 1.384 . S
C272 C78 1.460 . S
C268 C10 1.537 . S
C286 C17 1.458 . S
C290 C152 1.390 . S
C304 C36 2.181 1_655 S
C308 C256 2.177 . S
C322 C5 0.891 . S
C326 C90 0.886 . S
C344 C164 0.862 . S
C340 C16 0.869 . S
C358 C31 1.644 . S
C362 C250 1.503 . S
C380 C182 2.151 . S
C376 C30 2.164 . S
C394 C3 1.517 . S
C398 C226 1.437 . S
C416 C102 1.538 . S
C412 C18 1.683 . S
C434 C176 1.478 . S
C430 C29 1.613 . S
C452 C238 0.866 . S
C448 C4 0.873 . S
C466 C23 2.225 . S
C470 C108 2.221 . S
