# Generated by pormake.
# Topology pts, (4,4)-cn, num edge types: 1
# Building blocks:
#     Node 0, Type 0, BuildingBlock: AZAVOO_clean_linker_0, # of connection points: 4
#     Node 1, Type 0, BuildingBlock: AZAVOO_clean_linker_0, # of connection points: 4
#     Node 2, Type 1, BuildingBlock: QUQFOY_clean_sbu_1, # of connection points: 4
#     Node 3, Type 1, BuildingBlock: QUQFOY_clean_sbu_1, # of connection points: 4
#     Edge 4, Type (0, 1), BuildingBlock: KIFKEQ_clean_linker_1, # of connection points: 2
#     Edge 5, Type (0, 1), BuildingBlock: KIFKEQ_clean_linker_1, # of connection points: 2
#     Edge 6, Type (0, 1), BuildingBlock: KIFKEQ_clean_linker_1, # of connection points: 2
#     Edge 7, Type (0, 1), BuildingBlock: KIFKEQ_clean_linker_1, # of connection points: 2
#     Edge 8, Type (0, 1), BuildingBlock: KIFKEQ_clean_linker_1, # of connection points: 2
#     Edge 9, Type (0, 1), BuildingBlock: KIFKEQ_clean_linker_1, # of connection points: 2
#     Edge 10, Type (0, 1), BuildingBlock: KIFKEQ_clean_linker_1, # of connection points: 2
#     Edge 11, Type (0, 1), BuildingBlock: KIFKEQ_clean_linker_1, # of connection points: 2
# Relax obj value: 0.197
# Max RMSD: 0.245
# Mean RMSD: 0.235
data_MOF--net-pts--node1-QUQFOY_clean_sbu_1--node2-AZAVOO_clean_linker_0--edge1-KIFKEQ_clean_linker_1
_symmetry_space_group_name_H-M    P1
_symmetry_Int_Tables_number       1
_symmetry_cell_setting            triclinic
loop_
_symmetry_equiv_pos_as_xyz
'x, y, z'
_cell_length_a     25.354925
_cell_length_b     28.495181
_cell_length_c     49.966705
_cell_angle_alpha  90.829843
_cell_angle_beta   92.916591
_cell_angle_gamma 90.055246
loop_
_atom_site_label
_atom_site_type_symbol
_atom_site_fract_x
_atom_site_fract_y
_atom_site_fract_z
_atom_type_partial_charge
H0 H 0.41145 0.10851 0.82117 0.0
H1 H 0.8789 0.01955 0.04242 0.0
H2 H 0.42758 0.15345 0.9696 0.0
H3 H 0.35075 0.15048 0.93798 0.0
H4 H 0.35129 -0.00092 0.94156 0.0
H5 H 0.42865 0.00245 0.97273 0.0
H6 H 0.50203 0.15088 0.92885 0.0
H7 H 0.46474 0.14747 0.88268 0.0
H8 H 0.47326 0.99592 0.88384 0.0
H9 H 0.51028 -6e-05 0.93005 0.0
H10 H 0.61618 0.14485 0.93681 0.0
H11 H 0.66954 0.13611 0.89757 0.0
H12 H 0.68193 0.98705 0.91175 0.0
H13 H 0.62952 0.99653 0.95128 0.0
H14 H 0.67445 0.1424 0.99131 0.0
H15 H 0.7687 0.1374 0.0043 0.0
H16 H 0.74651 0.99438 0.02937 0.0
H17 H 0.65258 -0.0003 0.01597 0.0
H18 H 0.60827 0.14728 0.04542 0.0
H19 H 0.65447 0.1411 0.08941 0.0
H20 H 0.60627 0.99594 0.0933 0.0
H21 H 0.56041 0.00244 0.0491 0.0
H22 H 0.47694 0.15304 0.03833 0.0
H23 H 0.4133 0.15357 0.07367 0.0
H24 H 0.39049 0.00404 0.06206 0.0
H25 H 0.45296 0.00437 0.02635 0.0
O26 O 0.42752 0.10913 0.83916 0.0
O27 O 0.43395 0.03137 0.84056 0.0
O28 O 0.85141 0.09578 0.02337 0.0
O29 O 0.84191 0.02237 0.03689 0.0
C30 C 0.49043 0.07885 0.98153 0.0
C31 C 0.52742 0.07764 0.96134 0.0
C32 C 0.58181 0.07565 0.96833 0.0
C33 C 0.59948 0.075 -0.00449 0.0
C34 C 0.56237 0.07663 0.01572 0.0
C35 C 0.50781 0.07833 0.00871 0.0
C36 C 0.43366 0.07816 0.97326 0.0
C37 C 0.40929 0.11983 0.96467 0.0
C38 C 0.36564 0.11802 0.94646 0.0
C39 C 0.34604 0.07447 0.93684 0.0
C40 C 0.36638 0.03306 0.94828 0.0
C41 C 0.40998 0.03492 0.96641 0.0
C42 C 0.50869 0.07567 0.93269 0.0
C43 C 0.49617 0.11705 0.91898 0.0
C44 C 0.47476 0.11496 0.89266 0.0
C45 C 0.46581 0.0714 0.8796 0.0
C46 C 0.47958 0.03003 0.8933 0.0
C47 C 0.50086 0.03219 0.91964 0.0
C48 C 0.61952 0.07137 0.94686 0.0
C49 C 0.63126 0.11052 0.93162 0.0
C50 C 0.66113 0.10532 0.90908 0.0
C51 C 0.6795 0.0608 0.9014 0.0
C52 C 0.66877 0.02185 0.91726 0.0
C53 C 0.63898 0.02715 0.93983 0.0
C54 C 0.65679 0.07149 0.0028 0.0
C55 C 0.69015 0.10998 -0.00052 0.0
C56 C 0.74389 0.10704 0.00698 0.0
C57 C 0.76513 0.06549 0.01795 0.0
C58 C 0.73148 0.0269 0.02105 0.0
C59 C 0.67781 0.02986 0.01346 0.0
C60 C 0.58125 0.07529 0.04418 0.0
C61 C 0.60655 0.11457 0.05614 0.0
C62 C 0.63267 0.111 0.08127 0.0
C63 C 0.63409 0.06795 0.09469 0.0
C64 C 0.60603 0.02941 0.08329 0.0
C65 C 0.57962 0.03313 0.05821 0.0
C66 C 0.46903 0.07874 0.02978 0.0
C67 C 0.45785 0.12056 0.04342 0.0
C68 C 0.42186 0.12067 0.06369 0.0
C69 C 0.39671 0.07884 0.07066 0.0
C70 C 0.4084 0.03699 0.05689 0.0
C71 C 0.44418 0.037 0.03658 0.0
C72 C 0.44159 0.06924 0.85193 0.0
C73 C 0.82208 0.06232 0.02618 0.0
H74 H 0.9692 0.51196 0.31703 0.0
H75 H 0.142 0.84833 0.55193 0.0
H76 H 0.95555 0.47418 0.46138 0.0
H77 H 0.94798 0.40113 0.43517 0.0
H78 H 0.11502 0.37644 0.45048 0.0
H79 H 0.12149 0.44863 0.47747 0.0
H80 H 0.96413 0.57251 0.42924 0.0
H81 H 0.9518 0.55347 0.3814 0.0
H82 H 0.10636 0.48916 0.38324 0.0
H83 H 0.11844 0.50904 0.43097 0.0
H84 H 0.98725 0.67199 0.46424 0.0
H85 H -0.00564 0.73718 0.43305 0.0
H86 H 0.13695 0.67664 0.40407 0.0
H87 H 0.13144 0.61282 0.43631 0.0
H88 H 0.98553 0.66483 0.52137 0.0
H89 H -0.00236 0.74362 0.54079 0.0
H90 H 0.16098 0.74167 0.51973 0.0
H91 H 0.14837 0.6626 0.50056 0.0
H92 H 0.97516 0.57655 0.55084 0.0
H93 H 0.97264 0.62614 0.59115 0.0
H94 H 0.14126 0.64706 0.58979 0.0
H95 H 0.14343 0.59695 0.5498 0.0
H96 H 0.9633 0.4749 0.52019 0.0
H97 H 0.9578 0.40887 0.55076 0.0
H98 H 0.1246 0.42286 0.57184 0.0
H99 H 0.12978 0.48849 0.54085 0.0
O100 O 0.9751 0.51956 0.33588 0.0
O101 O 0.05458 0.48646 0.33798 0.0
O102 O 0.05221 0.81588 0.55522 0.0
O103 O 0.13589 0.81755 0.54391 0.0
C104 C 0.04598 0.51541 0.4813 0.0
C105 C 0.04852 0.55231 0.46276 0.0
C106 C 0.05557 0.59903 0.47203 0.0
C107 C 0.0596 0.60877 0.49981 0.0
C108 C 0.05728 0.57176 0.51834 0.0
C109 C 0.05036 0.52508 0.5091 0.0
C110 C 0.0391 0.46664 0.4711 0.0
C111 C 0.99003 0.45209 0.45977 0.0
C112 C 0.98598 0.41064 0.44459 0.0
C113 C 0.03113 0.38341 0.44026 0.0
C114 C 0.07941 0.39633 0.45351 0.0
C115 C 0.08327 0.43761 0.46892 0.0
C116 C 0.04205 0.54199 0.43354 0.0
C117 C -0.00464 0.55456 0.41921 0.0
C118 C 0.98839 0.54352 0.39192 0.0
C119 C 0.02803 0.51965 0.37851 0.0
C120 C 0.07499 0.50745 0.39296 0.0
C121 C 0.08197 0.51867 0.42022 0.0
C122 C 0.059 0.6378 0.45265 0.0
C123 C 0.02043 0.67313 0.45144 0.0
C124 C 0.02442 0.71017 0.43368 0.0
C125 C 0.06626 0.71166 0.41639 0.0
C126 C 0.10438 0.67599 0.41728 0.0
C127 C 0.10112 0.63959 0.43553 0.0
C128 C 0.06617 0.65798 0.50974 0.0
C129 C 0.02385 0.68155 0.52093 0.0
C130 C 0.0309 0.72652 0.53201 0.0
C131 C 0.08041 0.74882 0.53199 0.0
C132 C 0.12241 0.72544 0.52018 0.0
C133 C 0.11531 0.68038 0.50912 0.0
C134 C 0.05938 0.58363 0.54732 0.0
C135 C 0.01189 0.58979 0.5601 0.0
C136 C 0.01044 0.61867 0.58286 0.0
C137 C 0.05656 0.64138 0.59316 0.0
C138 C 0.10511 0.63008 0.58232 0.0
C139 C 0.1065 0.60124 0.55954 0.0
C140 C 0.0469 0.48637 0.52838 0.0
C141 C -0.00143 0.46367 0.53146 0.0
C142 C -0.0045 0.42614 0.54898 0.0
C143 C 0.0408 0.41062 0.56367 0.0
C144 C 0.08918 0.43363 0.56055 0.0
C145 C 0.09215 0.47131 0.54308 0.0
C146 C 0.02026 0.50749 0.34959 0.0
C147 C 0.08842 0.7961 0.54439 0.0
O148 O 0.97263 0.02317 0.22675 0.0
Cd149 Cd 0.04832 0.01693 0.24322 0.0
Cd150 Cd 0.04545 0.11047 0.24572 0.0
O151 O 0.97169 0.10051 0.22728 0.0
O152 O 0.05729 0.9503 0.25346 0.0
O153 O 0.05874 0.00916 0.283 0.0
C154 C 0.06177 0.96465 0.27805 0.0
C155 C 0.04956 0.1573 0.28425 0.0
C156 C 0.94901 0.06156 0.22167 0.0
C157 C 0.12947 0.06903 0.21323 0.0
O158 O 0.11004 0.10672 0.22234 0.0
O159 O 0.11028 0.02956 0.21919 0.0
O160 O 0.04492 0.17527 0.26071 0.0
O161 O 0.05287 0.11219 0.28595 0.0
O162 O 0.94849 0.08444 0.74791 0.0
Cd163 Cd 0.02145 0.09723 0.73327 0.0
Cd164 Cd 0.02849 -0.00073 0.73617 0.0
O165 O 0.95484 0.00749 0.75096 0.0
O166 O 0.0176 0.16476 0.72395 0.0
O167 O 0.03102 0.10877 0.69403 0.0
C168 C 0.02527 0.15286 0.6995 0.0
C169 C 0.0394 0.93335 0.7086 0.0
C170 C 0.92931 0.04525 0.75437 0.0
C171 C 0.10717 0.05743 0.76982 0.0
O172 O 0.09148 0.01702 0.76183 0.0
O173 O 0.08481 0.09415 0.76068 0.0
O174 O 0.03539 0.92979 0.73405 0.0
O175 O 0.03739 0.97484 0.69854 0.0
H176 H 0.30348 0.03072 0.07128 0.0
H177 H 0.40314 0.12674 0.11875 0.0
H178 H 0.24168 0.02862 0.10697 0.0
H179 H 0.34058 0.12515 0.15433 0.0
H180 H 0.18179 0.14667 0.19643 0.0
H181 H 0.24776 0.14976 0.16253 0.0
H182 H 0.24033 -0.00107 0.15342 0.0
H183 H 0.17431 0.99567 0.18703 0.0
C184 C 0.31243 0.05111 0.0894 0.0
C185 C 0.35844 0.07868 0.0922 0.0
C186 C 0.27697 0.04994 0.10983 0.0
C187 C 0.28649 0.07649 0.1335 0.0
C188 C 0.33204 0.10462 0.13621 0.0
C189 C 0.36774 0.10559 0.1158 0.0
C190 C 0.19453 0.11413 0.18735 0.0
C191 C 0.17253 0.07095 0.19435 0.0
C192 C 0.23243 0.11592 0.16801 0.0
C193 C 0.24882 0.07462 0.15519 0.0
C194 C 0.22783 0.0314 0.16267 0.0
C195 C 0.19023 0.02955 0.18207 0.0
H196 H 0.10912 0.33687 0.5705 0.0
H197 H 0.96477 0.39476 0.59925 0.0
H198 H 0.10474 0.27307 0.60253 0.0
H199 H 0.9597 0.33051 0.6307 0.0
H200 H 0.00676 0.24634 0.70535 0.0
H201 H 0.00994 0.30683 0.67169 0.0
H202 H 0.05074 0.20259 0.61266 0.0
H203 H 0.04803 0.14159 0.64662 0.0
C204 C 0.07645 0.33591 0.58363 0.0
C205 C 0.03741 0.37095 0.58245 0.0
C206 C 0.07365 0.29913 0.60175 0.0
C207 C 0.03196 0.29686 0.61918 0.0
C208 C 0.99261 0.33157 0.61772 0.0
C209 C -0.00475 0.36814 0.59954 0.0
C210 C 0.01638 0.23615 0.68521 0.0
C211 C 0.02711 0.1891 0.67866 0.0
C212 C 0.01787 0.27085 0.66587 0.0
C213 C 0.03031 0.25946 0.6395 0.0
C214 C 0.04136 0.21244 0.63289 0.0
C215 C 0.03956 0.17753 0.65228 0.0
H216 H 0.7038 0.99711 0.10423 0.0
H217 H 0.64689 0.1262 0.13861 0.0
H218 H 0.77352 0.99358 0.1393 0.0
H219 H 0.71633 0.12231 0.17428 0.0
H220 H 0.89313 0.13614 0.20163 0.0
H221 H 0.80983 0.13453 0.17542 0.0
H222 H 0.7999 0.98442 0.18553 0.0
H223 H 0.8844 0.98582 0.2111 0.0
C224 C 0.70522 0.02397 0.11982 0.0
C225 C 0.6701 0.06205 0.11865 0.0
C226 C 0.74522 0.02196 0.13998 0.0
C227 C 0.75085 0.05789 0.1595 0.0
C228 C 0.71369 0.09455 0.15923 0.0
C229 C 0.67385 0.09672 0.13892 0.0
C230 C 0.87298 0.10282 0.19851 0.0
C231 C 0.89578 0.06102 0.20814 0.0
C232 C 0.82487 0.10195 0.18366 0.0
C233 C 0.79822 0.0593 0.17825 0.0
C234 C 0.81984 0.01776 0.18896 0.0
C235 C 0.8682 0.01858 0.20367 0.0
H236 H 0.98599 0.71297 0.59001 0.0
H237 H 0.12049 0.66248 0.63768 0.0
H238 H 0.98423 0.78379 0.61781 0.0
H239 H 0.11913 0.73398 0.66544 0.0
H240 H 0.05625 0.84391 0.72544 0.0
H241 H 0.0612 0.77272 0.69812 0.0
H242 H 0.04046 0.85485 0.62639 0.0
H243 H 0.03513 0.92638 0.65378 0.0
C244 C 0.0147 0.7167 0.60671 0.0
C245 C 0.05303 0.68192 0.61188 0.0
C246 C 0.01417 0.7576 0.62236 0.0
C247 C 0.05173 0.76455 0.64367 0.0
C248 C 0.08952 0.72943 0.64921 0.0
C249 C 0.09038 0.68861 0.63334 0.0
C250 C 0.05296 0.84689 0.70383 0.0
C251 C 0.04504 0.89077 0.69175 0.0
C252 C 0.0561 0.80609 0.68821 0.0
C253 C 0.05101 0.80821 0.66015 0.0
C254 C 0.04388 0.85214 0.64801 0.0
C255 C 0.04113 0.89309 0.66366 0.0
H256 H 0.3578 0.01833 0.89328 0.0
H257 H 0.25733 0.1264 0.9243 0.0
H258 H 0.30472 0.01647 0.85142 0.0
H259 H 0.20311 0.12393 0.88235 0.0
H260 H 0.14593 0.13735 0.79498 0.0
H261 H 0.20552 0.14251 0.83484 0.0
H262 H 0.21823 0.9913 0.83523 0.0
H263 H 0.16003 0.98612 0.7952 0.0
C264 C 0.32366 0.04108 0.89132 0.0
C265 C 0.31108 0.07195 0.91223 0.0
C266 C 0.29337 0.04014 0.86727 0.0
C267 C 0.24954 0.06987 0.86358 0.0
C268 C 0.23704 0.10098 0.88446 0.0
C269 C 0.26771 0.10215 0.90853 0.0
C270 C 0.16208 0.10526 0.80335 0.0
C271 C 0.14808 0.06131 0.79193 0.0
C272 C 0.19579 0.10822 0.82633 0.0
C273 C 0.21622 0.06731 0.83833 0.0
C274 C 0.2036 0.02353 0.82636 0.0
C275 C 0.17004 0.02057 0.80341 0.0
H276 H 0.08202 0.29803 0.44135 0.0
H277 H 0.97746 0.3838 0.39163 0.0
H278 H 0.08751 0.24128 0.4044 0.0
H279 H 0.9808 0.32632 0.35554 0.0
H280 H 0.05289 0.25259 0.28619 0.0
H281 H 0.04721 0.30388 0.32511 0.0
H282 H 0.0382 0.18309 0.37599 0.0
H283 H 0.04518 0.1313 0.33679 0.0
C284 C 0.05967 0.30447 0.42272 0.0
C285 C 0.02938 0.34553 0.41948 0.0
C286 C 0.06247 0.27178 0.40165 0.0
C287 C 0.03511 0.2796 0.37693 0.0
C288 C 0.00315 0.31966 0.37415 0.0
C289 C 0.00053 0.35229 0.39506 0.0
C290 C 0.04992 0.23684 0.30566 0.0
C291 C 0.04917 0.18787 0.30838 0.0
C292 C 0.04625 0.26629 0.32798 0.0
C293 C 0.04139 0.24758 0.3536 0.0
C294 C 0.04203 0.19856 0.35651 0.0
C295 C 0.0459 0.16894 0.33408 0.0
H296 H 0.6595 0.10183 0.85277 0.0
H297 H 0.76651 0.0064 0.89436 0.0
H298 H 0.71073 0.09463 0.81283 0.0
H299 H 0.81721 -0.0011 0.85445 0.0
H300 H 0.88145 0.96883 0.77514 0.0
H301 H 0.81308 0.96929 0.80768 0.0
H302 H 0.79983 0.11983 0.80107 0.0
H303 H 0.86759 0.11949 0.76829 0.0
C304 C 0.69398 0.07939 0.85339 0.0
C305 C 0.70923 0.05496 0.87679 0.0
C306 C 0.72307 0.07509 0.83049 0.0
C307 C 0.76782 0.0461 0.83049 0.0
C308 C 0.78231 0.02084 0.85367 0.0
C309 C 0.75337 0.02525 0.87657 0.0
C310 C 0.86316 0.00193 0.78015 0.0
C311 C 0.88062 0.04424 0.76945 0.0
C312 C 0.82423 0.00218 0.79892 0.0
C313 C 0.80185 0.04467 0.80726 0.0
C314 C 0.81628 0.08651 0.795 0.0
C315 C 0.8553 0.0863 0.77626 0.0
H316 H 0.07492 0.80532 0.42694 0.0
H317 H 0.06412 0.70331 0.36235 0.0
H318 H 0.08014 0.86848 0.39461 0.0
H319 H 0.06563 0.76595 0.32981 0.0
H320 H 0.11028 0.88013 0.27576 0.0
H321 H 0.117 0.82084 0.31023 0.0
H322 H 0.03182 0.91173 0.3631 0.0
H323 H 0.02873 0.97221 0.32903 0.0
C324 C 0.07327 0.79668 0.40572 0.0
C325 C 0.06938 0.7498 0.39696 0.0
C326 C 0.07586 0.83275 0.38716 0.0
C327 C 0.0734 0.8226 0.35944 0.0
C328 C 0.06906 0.77534 0.35089 0.0
C329 C 0.0677 0.73934 0.36947 0.0
C330 C 0.09356 0.88748 0.2949 0.0
C331 C 0.06877 0.93051 0.29976 0.0
C332 C 0.0969 0.85334 0.31462 0.0
C333 C 0.07415 0.86088 0.33944 0.0
C334 C 0.05043 0.90465 0.34445 0.0
C335 C 0.04833 0.93932 0.32489 0.0
loop_
_geom_bond_atom_site_label_1
_geom_bond_atom_site_label_2
_geom_bond_distance
_geom_bond_site_symmetry_2
_ccdc_geom_bond_type
H0 O26 0.856 . S
H1 O29 0.854 . S
H2 C37 0.930 . S
H3 C38 0.930 . S
H4 C40 0.930 . S
H5 C41 0.930 . S
H6 C43 0.931 . S
H7 C44 0.930 . S
H8 C46 0.930 1_565 S
H9 C47 0.929 1_565 S
H10 C49 0.930 . S
H11 C50 0.931 . S
H12 C52 0.930 1_565 S
H13 C53 0.929 1_565 S
H14 C55 0.931 . S
H15 C56 0.930 . S
H16 C58 0.930 1_565 S
H17 C59 0.916 1_566 S
H18 C61 0.930 . S
H19 C62 0.929 . S
H20 C64 0.931 . S
H21 C65 0.930 . S
H22 C67 0.929 . S
H23 C68 0.931 . S
H24 C70 0.930 1_565 S
H25 C71 0.929 . S
O26 H0 0.856 . S
O26 C72 1.300 . S
O27 C72 1.209 . S
O28 C73 1.199 . S
O29 H1 0.854 . S
O29 C73 1.297 . S
C30 C31 1.404 . S
C30 C35 1.397 1_556 S
C30 C36 1.492 . S
C31 C30 1.404 . S
C31 C32 1.396 . S
C31 C42 1.492 . S
C32 C31 1.396 . S
C32 C33 1.397 . S
C32 C48 1.509 . S
C33 C32 1.397 . S
C33 C34 1.412 1_556 S
C33 C54 1.485 1_556 S
C34 C33 1.412 1_554 S
C34 C35 1.388 . S
C34 C60 1.490 . S
C35 C30 1.397 1_554 S
C35 C34 1.388 . S
C35 C66 1.519 . S
C36 C30 1.492 . S
C36 C37 1.363 . S
C36 C41 1.390 . S
C37 H2 0.930 . S
C37 C36 1.363 . S
C37 C38 1.372 . S
C38 H3 0.930 . S
C38 C37 1.372 . S
C38 C39 1.383 . S
C39 C38 1.383 . S
C39 C40 1.395 . S
C40 H4 0.930 . S
C40 C39 1.395 . S
C40 C41 1.362 . S
C41 H5 0.930 . S
C41 C36 1.390 . S
C41 C40 1.362 . S
C42 C31 1.492 . S
C42 C43 1.377 . S
C42 C47 1.397 . S
C43 H6 0.931 . S
C43 C42 1.377 . S
C43 C44 1.376 . S
C44 H7 0.930 . S
C44 C43 1.376 . S
C44 C45 1.376 . S
C45 C44 1.376 . S
C45 C46 1.378 . S
C45 C72 1.486 . S
C46 H8 0.930 1_545 S
C46 C45 1.378 . S
C46 C47 1.376 . S
C47 H9 0.929 1_545 S
C47 C42 1.397 . S
C47 C46 1.376 . S
C48 C32 1.509 . S
C48 C49 1.391 . S
C48 C53 1.386 . S
C49 H10 0.930 . S
C49 C48 1.391 . S
C49 C50 1.375 . S
C50 H11 0.931 . S
C50 C49 1.375 . S
C50 C51 1.375 . S
C51 C50 1.375 . S
C51 C52 1.361 . S
C52 H12 0.930 1_545 S
C52 C51 1.361 . S
C52 C53 1.399 . S
C53 H13 0.929 1_545 S
C53 C48 1.386 . S
C53 C52 1.399 . S
C54 C33 1.485 1_554 S
C54 C55 1.394 . S
C54 C59 1.366 . S
C55 H14 0.931 . S
C55 C54 1.394 . S
C55 C56 1.372 . S
C56 H15 0.930 . S
C56 C55 1.372 . S
C56 C57 1.397 . S
C57 C56 1.397 . S
C57 C58 1.390 . S
C57 C73 1.476 . S
C58 H16 0.930 1_545 S
C58 C57 1.390 . S
C58 C59 1.376 . S
C59 H17 0.916 1_544 S
C59 C54 1.366 . S
C59 C58 1.376 . S
C60 C34 1.490 . S
C60 C61 1.380 . S
C60 C65 1.386 . S
C61 H18 0.930 . S
C61 C60 1.380 . S
C61 C62 1.381 . S
C62 H19 0.929 . S
C62 C61 1.381 . S
C62 C63 1.371 . S
C63 C62 1.371 . S
C63 C64 1.380 . S
C64 H20 0.931 . S
C64 C63 1.380 . S
C64 C65 1.387 . S
C65 H21 0.930 . S
C65 C60 1.386 . S
C65 C64 1.387 . S
C66 C35 1.519 . S
C66 C67 1.377 . S
C66 C71 1.361 . S
C67 H22 0.929 . S
C67 C66 1.377 . S
C67 C68 1.386 . S
C68 H23 0.931 . S
C68 C67 1.386 . S
C68 C69 1.363 . S
C69 C68 1.363 . S
C69 C70 1.385 . S
C70 H24 0.930 1_545 S
C70 C69 1.385 . S
C70 C71 1.396 . S
C71 H25 0.929 . S
C71 C66 1.361 . S
C71 C70 1.396 . S
C72 O26 1.300 . S
C72 O27 1.209 . S
C72 C45 1.486 . S
C73 O28 1.199 . S
C73 O29 1.297 . S
C73 C57 1.476 . S
H74 O100 0.856 . S
H75 O103 0.854 . S
H76 C111 0.930 . S
H77 C112 0.930 . S
H78 C114 0.930 . S
H79 C115 0.930 . S
H80 C117 0.931 1_655 S
H81 C118 0.930 1_655 S
H82 C120 0.930 . S
H83 C121 0.929 . S
H84 C123 0.930 1_655 S
H85 C124 0.931 1_655 S
H86 C126 0.930 . S
H87 C127 0.929 . S
H88 C129 0.931 1_655 S
H89 C130 0.930 1_655 S
H90 C132 0.930 . S
H91 C133 0.932 . S
H92 C135 0.930 . S
H93 C136 0.929 . S
H94 C138 0.931 . S
H95 C139 0.930 . S
H96 C141 0.929 1_655 S
H97 C142 0.931 1_655 S
H98 C144 0.930 . S
H99 C145 0.929 . S
O100 H74 0.856 . S
O100 C146 1.300 . S
O101 C146 1.209 . S
O102 C147 1.199 . S
O103 H75 0.854 . S
O103 C147 1.297 . S
C104 C105 1.404 . S
C104 C109 1.397 . S
C104 C110 1.492 . S
C105 C104 1.404 . S
C105 C106 1.396 . S
C105 C116 1.492 . S
C106 C105 1.396 . S
C106 C107 1.397 . S
C106 C122 1.509 . S
C107 C106 1.397 . S
C107 C108 1.412 . S
C107 C128 1.485 . S
C108 C107 1.412 . S
C108 C109 1.388 . S
C108 C134 1.490 . S
C109 C104 1.397 . S
C109 C108 1.388 . S
C109 C140 1.519 . S
C110 C104 1.492 . S
C110 C111 1.363 1_455 S
C110 C115 1.390 . S
C111 H76 0.930 . S
C111 C110 1.363 1_655 S
C111 C112 1.372 . S
C112 H77 0.930 . S
C112 C111 1.372 . S
C112 C113 1.383 1_655 S
C113 C112 1.383 1_455 S
C113 C114 1.395 . S
C114 H78 0.930 . S
C114 C113 1.395 . S
C114 C115 1.362 . S
C115 H79 0.930 . S
C115 C110 1.390 . S
C115 C114 1.362 . S
C116 C105 1.492 . S
C116 C117 1.377 . S
C116 C121 1.397 . S
C117 H80 0.931 1_455 S
C117 C116 1.377 . S
C117 C118 1.376 . S
C118 H81 0.930 1_455 S
C118 C117 1.376 . S
C118 C119 1.376 . S
C119 C118 1.376 . S
C119 C120 1.378 . S
C119 C146 1.486 . S
C120 H82 0.930 . S
C120 C119 1.378 . S
C120 C121 1.376 . S
C121 H83 0.929 . S
C121 C116 1.397 . S
C121 C120 1.376 . S
C122 C106 1.509 . S
C122 C123 1.391 . S
C122 C127 1.386 . S
C123 H84 0.930 1_455 S
C123 C122 1.391 . S
C123 C124 1.375 . S
C124 H85 0.931 1_455 S
C124 C123 1.375 . S
C124 C125 1.375 . S
C125 C124 1.375 . S
C125 C126 1.361 . S
C126 H86 0.930 . S
C126 C125 1.361 . S
C126 C127 1.399 . S
C127 H87 0.929 . S
C127 C122 1.386 . S
C127 C126 1.399 . S
C128 C107 1.485 . S
C128 C129 1.394 . S
C128 C133 1.360 . S
C129 H88 0.931 1_455 S
C129 C128 1.394 . S
C129 C130 1.372 . S
C130 H89 0.930 1_455 S
C130 C129 1.372 . S
C130 C131 1.397 . S
C131 C130 1.397 . S
C131 C132 1.390 . S
C131 C147 1.476 . S
C132 H90 0.930 . S
C132 C131 1.390 . S
C132 C133 1.366 . S
C133 H91 0.932 . S
C133 C128 1.360 . S
C133 C132 1.366 . S
C134 C108 1.490 . S
C134 C135 1.380 1_455 S
C134 C139 1.386 . S
C135 H92 0.930 . S
C135 C134 1.380 1_655 S
C135 C136 1.381 . S
C136 H93 0.929 . S
C136 C135 1.381 . S
C136 C137 1.371 1_655 S
C137 C136 1.371 1_455 S
C137 C138 1.380 . S
C138 H94 0.931 . S
C138 C137 1.380 . S
C138 C139 1.387 . S
C139 H95 0.930 . S
C139 C134 1.386 . S
C139 C138 1.387 . S
C140 C109 1.519 . S
C140 C141 1.377 . S
C140 C145 1.361 . S
C141 H96 0.929 1_455 S
C141 C140 1.377 . S
C141 C142 1.386 . S
C142 H97 0.931 1_455 S
C142 C141 1.386 . S
C142 C143 1.363 . S
C143 C142 1.363 . S
C143 C144 1.385 . S
C144 H98 0.930 . S
C144 C143 1.385 . S
C144 C145 1.396 . S
C145 H99 0.929 . S
C145 C140 1.361 . S
C145 C144 1.396 . S
C146 O100 1.300 . S
C146 O101 1.209 . S
C146 C119 1.486 . S
C147 O102 1.199 . S
C147 O103 1.297 . S
C147 C131 1.476 . S
O148 Cd149 2.224 . S
O148 C156 1.315 1_455 S
Cd149 O148 2.224 . S
Cd149 O152 2.290 1_545 S
Cd149 O153 2.439 . S
Cd149 O159 2.249 . S
Cd150 O151 2.240 1_455 S
Cd150 O158 2.223 . S
Cd150 O160 2.297 . S
Cd150 O161 2.439 . S
O151 Cd150 2.240 1_655 S
O151 C156 1.279 . S
O152 Cd149 2.290 1_565 S
O152 C154 1.247 . S
O153 Cd149 2.439 . S
O153 C154 1.208 1_545 S
C154 O152 1.247 . S
C154 O153 1.208 1_565 S
C155 O160 1.247 . S
C155 O161 1.208 . S
C156 O148 1.315 1_655 S
C156 O151 1.279 . S
C157 O158 1.315 . S
C157 O159 1.279 . S
O158 Cd150 2.223 . S
O158 C157 1.315 . S
O159 Cd149 2.249 . S
O159 C157 1.279 . S
O160 Cd150 2.297 . S
O160 C155 1.247 . S
O161 Cd150 2.439 . S
O161 C155 1.208 . S
O162 Cd163 2.223 . S
O162 C170 1.315 1_455 S
Cd163 O162 2.223 . S
Cd163 O166 2.297 . S
Cd163 O167 2.439 . S
Cd163 O173 2.240 . S
Cd164 O165 2.240 1_465 S
Cd164 O172 2.223 . S
Cd164 O174 2.297 . S
Cd164 O175 2.439 . S
O165 Cd164 2.240 1_645 S
O165 C170 1.279 . S
O166 Cd163 2.297 . S
O166 C168 1.247 . S
O167 Cd163 2.439 . S
O167 C168 1.208 . S
C168 O166 1.247 . S
C168 O167 1.208 . S
C169 O174 1.247 . S
C169 O175 1.208 . S
C170 O162 1.315 1_655 S
C170 O165 1.279 . S
C171 O172 1.315 1_545 S
C171 O173 1.279 . S
O172 Cd164 2.223 . S
O172 C171 1.315 1_565 S
O173 Cd163 2.240 . S
O173 C171 1.279 . S
O174 Cd164 2.297 . S
O174 C169 1.247 . S
O175 Cd164 2.439 . S
O175 C169 1.208 . S
H176 C184 0.950 . S
H177 C189 0.950 . S
H178 C186 0.950 . S
H179 C188 0.950 . S
H180 C190 0.950 . S
H181 C192 0.950 . S
H182 C194 0.950 . S
H183 C195 0.950 . S
C184 H176 0.950 . S
C184 C185 1.386 . S
C184 C186 1.391 . S
C185 C184 1.386 . S
C185 C189 1.393 . S
C186 H178 0.950 . S
C186 C184 1.391 . S
C186 C187 1.400 . S
C187 C186 1.400 . S
C187 C188 1.398 . S
C187 C193 1.491 . S
C188 H179 0.950 . S
C188 C187 1.398 . S
C188 C189 1.391 . S
C189 H177 0.950 . S
C189 C185 1.393 . S
C189 C188 1.391 . S
C190 H180 0.950 . S
C190 C191 1.386 . S
C190 C192 1.391 . S
C191 C190 1.386 . S
C191 C195 1.393 . S
C192 H181 0.950 . S
C192 C190 1.391 . S
C192 C193 1.400 . S
C193 C187 1.491 . S
C193 C192 1.400 . S
C193 C194 1.398 . S
C194 H182 0.950 . S
C194 C193 1.398 . S
C194 C195 1.391 . S
C195 H183 0.950 . S
C195 C191 1.393 . S
C195 C194 1.391 . S
H196 C204 0.950 . S
H197 C209 0.950 1_655 S
H198 C206 0.950 . S
H199 C208 0.950 1_655 S
H200 C210 0.950 . S
H201 C212 0.950 . S
H202 C214 0.950 . S
H203 C215 0.950 . S
C204 H196 0.950 . S
C204 C205 1.386 . S
C204 C206 1.391 . S
C205 C204 1.386 . S
C205 C209 1.393 . S
C206 H198 0.950 . S
C206 C204 1.391 . S
C206 C207 1.400 . S
C207 C206 1.400 . S
C207 C208 1.398 . S
C207 C213 1.491 . S
C208 H199 0.950 1_455 S
C208 C207 1.398 . S
C208 C209 1.391 . S
C209 H197 0.950 1_455 S
C209 C205 1.393 . S
C209 C208 1.391 . S
C210 H200 0.950 . S
C210 C211 1.386 1_655 S
C210 C212 1.391 . S
C211 C210 1.386 1_455 S
C211 C215 1.393 . S
C212 H201 0.950 . S
C212 C210 1.391 . S
C212 C213 1.400 1_655 S
C213 C207 1.491 . S
C213 C212 1.400 1_455 S
C213 C214 1.398 . S
C214 H202 0.950 . S
C214 C213 1.398 . S
C214 C215 1.391 . S
C215 H203 0.950 . S
C215 C211 1.393 . S
C215 C214 1.391 . S
H216 C224 0.950 . S
H217 C229 0.950 . S
H218 C226 0.950 . S
H219 C228 0.950 . S
H220 C230 0.950 . S
H221 C232 0.950 . S
H222 C234 0.950 . S
H223 C235 0.950 1_565 S
C224 H216 0.950 . S
C224 C225 1.386 . S
C224 C226 1.391 . S
C225 C224 1.386 . S
C225 C229 1.393 . S
C226 H218 0.950 . S
C226 C224 1.391 . S
C226 C227 1.400 . S
C227 C226 1.400 . S
C227 C228 1.398 . S
C227 C233 1.491 . S
C228 H219 0.950 . S
C228 C227 1.398 . S
C228 C229 1.391 . S
C229 H217 0.950 . S
C229 C225 1.393 . S
C229 C228 1.391 . S
C230 H220 0.950 . S
C230 C231 1.386 . S
C230 C232 1.391 . S
C231 C230 1.386 . S
C231 C235 1.393 . S
C232 H221 0.950 . S
C232 C230 1.391 . S
C232 C233 1.400 . S
C233 C227 1.491 . S
C233 C232 1.400 . S
C233 C234 1.398 . S
C234 H222 0.950 . S
C234 C233 1.398 . S
C234 C235 1.391 . S
C235 H223 0.950 1_545 S
C235 C231 1.393 . S
C235 C234 1.391 . S
H236 C244 0.950 . S
H237 C249 0.950 . S
H238 C246 0.950 . S
H239 C248 0.950 . S
H240 C250 0.950 . S
H241 C252 0.950 . S
H242 C254 0.950 . S
H243 C255 0.950 . S
C244 H236 0.950 . S
C244 C245 1.386 . S
C244 C246 1.391 . S
C245 C244 1.386 . S
C245 C249 1.393 . S
C246 H238 0.950 . S
C246 C244 1.391 . S
C246 C247 1.400 . S
C247 C246 1.400 . S
C247 C248 1.398 . S
C247 C253 1.491 . S
C248 H239 0.950 . S
C248 C247 1.398 . S
C248 C249 1.391 . S
C249 H237 0.950 . S
C249 C245 1.393 . S
C249 C248 1.391 . S
C250 H240 0.950 . S
C250 C251 1.386 . S
C250 C252 1.391 . S
C251 C250 1.386 . S
C251 C255 1.393 . S
C252 H241 0.950 . S
C252 C250 1.391 . S
C252 C253 1.400 . S
C253 C247 1.491 . S
C253 C252 1.400 . S
C253 C254 1.398 . S
C254 H242 0.950 . S
C254 C253 1.398 . S
C254 C255 1.391 . S
C255 H243 0.950 . S
C255 C251 1.393 . S
C255 C254 1.391 . S
H256 C264 0.950 . S
H257 C269 0.950 . S
H258 C266 0.950 . S
H259 C268 0.950 . S
H260 C270 0.950 . S
H261 C272 0.950 . S
H262 C274 0.950 . S
H263 C275 0.950 1_565 S
C264 H256 0.950 . S
C264 C265 1.386 . S
C264 C266 1.391 . S
C265 C264 1.386 . S
C265 C269 1.393 . S
C266 H258 0.950 . S
C266 C264 1.391 . S
C266 C267 1.400 . S
C267 C266 1.400 . S
C267 C268 1.398 . S
C267 C273 1.491 . S
C268 H259 0.950 . S
C268 C267 1.398 . S
C268 C269 1.391 . S
C269 H257 0.950 . S
C269 C265 1.393 . S
C269 C268 1.391 . S
C270 H260 0.950 . S
C270 C271 1.386 . S
C270 C272 1.391 . S
C271 C270 1.386 . S
C271 C275 1.393 . S
C272 H261 0.950 . S
C272 C270 1.391 . S
C272 C273 1.400 . S
C273 C267 1.491 . S
C273 C272 1.400 . S
C273 C274 1.398 . S
C274 H262 0.950 . S
C274 C273 1.398 . S
C274 C275 1.391 . S
C275 H263 0.950 1_545 S
C275 C271 1.393 . S
C275 C274 1.391 . S
H276 C284 0.950 . S
H277 C289 0.950 1_655 S
H278 C286 0.950 . S
H279 C288 0.950 . S
H280 C290 0.950 . S
H281 C292 0.950 . S
H282 C294 0.950 . S
H283 C295 0.950 . S
C284 H276 0.950 . S
C284 C285 1.386 . S
C284 C286 1.391 . S
C285 C284 1.386 . S
C285 C289 1.393 . S
C286 H278 0.950 . S
C286 C284 1.391 . S
C286 C287 1.400 . S
C287 C286 1.400 . S
C287 C288 1.398 . S
C287 C293 1.491 . S
C288 H279 0.950 . S
C288 C287 1.398 . S
C288 C289 1.391 . S
C289 H277 0.950 1_455 S
C289 C285 1.393 . S
C289 C288 1.391 . S
C290 H280 0.950 . S
C290 C291 1.386 . S
C290 C292 1.391 . S
C291 C290 1.386 . S
C291 C295 1.393 . S
C292 H281 0.950 . S
C292 C290 1.391 . S
C292 C293 1.400 . S
C293 C287 1.491 . S
C293 C292 1.400 . S
C293 C294 1.398 . S
C294 H282 0.950 . S
C294 C293 1.398 . S
C294 C295 1.391 . S
C295 H283 0.950 . S
C295 C291 1.393 . S
C295 C294 1.391 . S
H296 C304 0.950 . S
H297 C309 0.963 . S
H298 C306 0.950 . S
H299 C308 0.950 . S
H300 C310 0.950 . S
H301 C312 0.950 . S
H302 C314 0.950 . S
H303 C315 0.950 . S
C304 H296 0.950 . S
C304 C305 1.386 . S
C304 C306 1.391 . S
C305 C304 1.386 . S
C305 C309 1.393 . S
C306 H298 0.950 . S
C306 C304 1.391 . S
C306 C307 1.400 . S
C307 C306 1.400 . S
C307 C308 1.398 . S
C307 C313 1.491 . S
C308 H299 0.950 . S
C308 C307 1.398 . S
C308 C309 1.391 . S
C309 H297 0.963 . S
C309 C305 1.393 . S
C309 C308 1.391 . S
C310 H300 0.950 . S
C310 C311 1.386 . S
C310 C312 1.391 . S
C311 C310 1.386 . S
C311 C315 1.393 . S
C312 H301 0.950 . S
C312 C310 1.391 . S
C312 C313 1.400 . S
C313 C307 1.491 . S
C313 C312 1.400 . S
C313 C314 1.398 . S
C314 H302 0.950 . S
C314 C313 1.398 . S
C314 C315 1.391 . S
C315 H303 0.950 . S
C315 C311 1.393 . S
C315 C314 1.391 . S
H316 C324 0.950 . S
H317 C329 0.950 . S
H318 C326 0.950 1_655 S
H319 C328 0.950 . S
H320 C330 0.950 . S
H321 C332 0.950 . S
H322 C334 0.950 . S
H323 C335 0.950 . S
C324 H316 0.950 . S
C324 C325 1.386 . S
C324 C326 1.391 . S
C325 C324 1.386 . S
C325 C329 1.393 . S
C326 H318 0.950 1_455 S
C326 C324 1.391 . S
C326 C327 1.400 . S
C327 C326 1.400 . S
C327 C328 1.398 . S
C327 C333 1.491 . S
C328 H319 0.950 . S
C328 C327 1.398 . S
C328 C329 1.391 . S
C329 H317 0.950 . S
C329 C325 1.393 . S
C329 C328 1.391 . S
C330 H320 0.950 . S
C330 C331 1.386 1_455 S
C330 C332 1.391 . S
C331 C330 1.386 1_655 S
C331 C335 1.393 . S
C332 H321 0.950 . S
C332 C330 1.391 . S
C332 C333 1.400 . S
C333 C327 1.491 . S
C333 C332 1.400 . S
C333 C334 1.398 1_455 S
C334 H322 0.950 . S
C334 C333 1.398 1_655 S
C334 C335 1.391 . S
C335 H323 0.950 . S
C335 C331 1.393 . S
C335 C334 1.391 . S
C191 C157 2.205 . S
C185 C69 2.198 . S
C211 C168 2.235 . S
C205 C143 2.304 . S
C231 C156 1.654 . S
C225 C63 1.530 . S
C251 C169 1.603 . S
C245 C137 1.560 . S
C271 C171 1.673 . S
C265 C39 1.550 . S
C291 C155 1.516 . S
C285 C113 1.475 . S
C311 C170 0.887 . S
C305 C51 0.875 . S
C325 C125 0.952 . S
C331 C154 0.930 1_655 S
