# Generated by pormake.
# Topology ptr, (4,4)-cn, num edge types: 1
# Building blocks:
#     Node 0, Type 0, BuildingBlock: QUQFOY_clean_sbu_3, # of connection points: 4
#     Node 1, Type 0, BuildingBlock: QUQFOY_clean_sbu_3, # of connection points: 4
#     Node 2, Type 0, BuildingBlock: QUQFOY_clean_sbu_3, # of connection points: 4
#     Node 3, Type 0, BuildingBlock: QUQFOY_clean_sbu_3, # of connection points: 4
#     Node 4, Type 0, BuildingBlock: QUQFOY_clean_sbu_3, # of connection points: 4
#     Node 5, Type 0, BuildingBlock: QUQFOY_clean_sbu_3, # of connection points: 4
#     Node 6, Type 0, BuildingBlock: QUQFOY_clean_sbu_3, # of connection points: 4
#     Node 7, Type 0, BuildingBlock: QUQFOY_clean_sbu_3, # of connection points: 4
#     Node 8, Type 0, BuildingBlock: QUQFOY_clean_sbu_3, # of connection points: 4
#     Node 9, Type 0, BuildingBlock: QUQFOY_clean_sbu_3, # of connection points: 4
#     Node 10, Type 0, BuildingBlock: QUQFOY_clean_sbu_3, # of connection points: 4
#     Node 11, Type 0, BuildingBlock: QUQFOY_clean_sbu_3, # of connection points: 4
#     Node 12, Type 0, BuildingBlock: QUQFOY_clean_sbu_3, # of connection points: 4
#     Node 13, Type 0, BuildingBlock: QUQFOY_clean_sbu_3, # of connection points: 4
#     Node 14, Type 0, BuildingBlock: QUQFOY_clean_sbu_3, # of connection points: 4
#     Node 15, Type 0, BuildingBlock: QUQFOY_clean_sbu_3, # of connection points: 4
#     Node 16, Type 0, BuildingBlock: QUQFOY_clean_sbu_3, # of connection points: 4
#     Node 17, Type 0, BuildingBlock: QUQFOY_clean_sbu_3, # of connection points: 4
#     Node 18, Type 1, BuildingBlock: AZAVOO_clean_linker_0, # of connection points: 4
#     Node 19, Type 1, BuildingBlock: AZAVOO_clean_linker_0, # of connection points: 4
#     Node 20, Type 1, BuildingBlock: AZAVOO_clean_linker_0, # of connection points: 4
#     Node 21, Type 1, BuildingBlock: AZAVOO_clean_linker_0, # of connection points: 4
#     Node 22, Type 1, BuildingBlock: AZAVOO_clean_linker_0, # of connection points: 4
#     Node 23, Type 1, BuildingBlock: AZAVOO_clean_linker_0, # of connection points: 4
#     Node 24, Type 1, BuildingBlock: AZAVOO_clean_linker_0, # of connection points: 4
#     Node 25, Type 1, BuildingBlock: AZAVOO_clean_linker_0, # of connection points: 4
#     Node 26, Type 1, BuildingBlock: AZAVOO_clean_linker_0, # of connection points: 4
#     Node 27, Type 1, BuildingBlock: AZAVOO_clean_linker_0, # of connection points: 4
#     Node 28, Type 1, BuildingBlock: AZAVOO_clean_linker_0, # of connection points: 4
#     Node 29, Type 1, BuildingBlock: AZAVOO_clean_linker_0, # of connection points: 4
#     Node 30, Type 1, BuildingBlock: AZAVOO_clean_linker_0, # of connection points: 4
#     Node 31, Type 1, BuildingBlock: AZAVOO_clean_linker_0, # of connection points: 4
#     Node 32, Type 1, BuildingBlock: AZAVOO_clean_linker_0, # of connection points: 4
#     Node 33, Type 1, BuildingBlock: AZAVOO_clean_linker_0, # of connection points: 4
#     Node 34, Type 1, BuildingBlock: AZAVOO_clean_linker_0, # of connection points: 4
#     Node 35, Type 1, BuildingBlock: AZAVOO_clean_linker_0, # of connection points: 4
#     Edge 36, Type (0, 1), BuildingBlock: EZIPEK_clean_linker_0, # of connection points: 2
#     Edge 37, Type (0, 1), BuildingBlock: EZIPEK_clean_linker_0, # of connection points: 2
#     Edge 38, Type (0, 1), BuildingBlock: EZIPEK_clean_linker_0, # of connection points: 2
#     Edge 39, Type (0, 1), BuildingBlock: EZIPEK_clean_linker_0, # of connection points: 2
#     Edge 40, Type (0, 1), BuildingBlock: EZIPEK_clean_linker_0, # of connection points: 2
#     Edge 41, Type (0, 1), BuildingBlock: EZIPEK_clean_linker_0, # of connection points: 2
#     Edge 42, Type (0, 1), BuildingBlock: EZIPEK_clean_linker_0, # of connection points: 2
#     Edge 43, Type (0, 1), BuildingBlock: EZIPEK_clean_linker_0, # of connection points: 2
#     Edge 44, Type (0, 1), BuildingBlock: EZIPEK_clean_linker_0, # of connection points: 2
#     Edge 45, Type (0, 1), BuildingBlock: EZIPEK_clean_linker_0, # of connection points: 2
#     Edge 46, Type (0, 1), BuildingBlock: EZIPEK_clean_linker_0, # of connection points: 2
#     Edge 47, Type (0, 1), BuildingBlock: EZIPEK_clean_linker_0, # of connection points: 2
#     Edge 48, Type (0, 1), BuildingBlock: EZIPEK_clean_linker_0, # of connection points: 2
#     Edge 49, Type (0, 1), BuildingBlock: EZIPEK_clean_linker_0, # of connection points: 2
#     Edge 50, Type (0, 1), BuildingBlock: EZIPEK_clean_linker_0, # of connection points: 2
#     Edge 51, Type (0, 1), BuildingBlock: EZIPEK_clean_linker_0, # of connection points: 2
#     Edge 52, Type (0, 1), BuildingBlock: EZIPEK_clean_linker_0, # of connection points: 2
#     Edge 53, Type (0, 1), BuildingBlock: EZIPEK_clean_linker_0, # of connection points: 2
#     Edge 54, Type (0, 1), BuildingBlock: EZIPEK_clean_linker_0, # of connection points: 2
#     Edge 55, Type (0, 1), BuildingBlock: EZIPEK_clean_linker_0, # of connection points: 2
#     Edge 56, Type (0, 1), BuildingBlock: EZIPEK_clean_linker_0, # of connection points: 2
#     Edge 57, Type (0, 1), BuildingBlock: EZIPEK_clean_linker_0, # of connection points: 2
#     Edge 58, Type (0, 1), BuildingBlock: EZIPEK_clean_linker_0, # of connection points: 2
#     Edge 59, Type (0, 1), BuildingBlock: EZIPEK_clean_linker_0, # of connection points: 2
#     Edge 60, Type (0, 1), BuildingBlock: EZIPEK_clean_linker_0, # of connection points: 2
#     Edge 61, Type (0, 1), BuildingBlock: EZIPEK_clean_linker_0, # of connection points: 2
#     Edge 62, Type (0, 1), BuildingBlock: EZIPEK_clean_linker_0, # of connection points: 2
#     Edge 63, Type (0, 1), BuildingBlock: EZIPEK_clean_linker_0, # of connection points: 2
#     Edge 64, Type (0, 1), BuildingBlock: EZIPEK_clean_linker_0, # of connection points: 2
#     Edge 65, Type (0, 1), BuildingBlock: EZIPEK_clean_linker_0, # of connection points: 2
#     Edge 66, Type (0, 1), BuildingBlock: EZIPEK_clean_linker_0, # of connection points: 2
#     Edge 67, Type (0, 1), BuildingBlock: EZIPEK_clean_linker_0, # of connection points: 2
#     Edge 68, Type (0, 1), BuildingBlock: EZIPEK_clean_linker_0, # of connection points: 2
#     Edge 69, Type (0, 1), BuildingBlock: EZIPEK_clean_linker_0, # of connection points: 2
#     Edge 70, Type (0, 1), BuildingBlock: EZIPEK_clean_linker_0, # of connection points: 2
#     Edge 71, Type (0, 1), BuildingBlock: EZIPEK_clean_linker_0, # of connection points: 2
#     Edge 72, Type (0, 1), BuildingBlock: EZIPEK_clean_linker_0, # of connection points: 2
#     Edge 73, Type (0, 1), BuildingBlock: EZIPEK_clean_linker_0, # of connection points: 2
#     Edge 74, Type (0, 1), BuildingBlock: EZIPEK_clean_linker_0, # of connection points: 2
#     Edge 75, Type (0, 1), BuildingBlock: EZIPEK_clean_linker_0, # of connection points: 2
#     Edge 76, Type (0, 1), BuildingBlock: EZIPEK_clean_linker_0, # of connection points: 2
#     Edge 77, Type (0, 1), BuildingBlock: EZIPEK_clean_linker_0, # of connection points: 2
#     Edge 78, Type (0, 1), BuildingBlock: EZIPEK_clean_linker_0, # of connection points: 2
#     Edge 79, Type (0, 1), BuildingBlock: EZIPEK_clean_linker_0, # of connection points: 2
#     Edge 80, Type (0, 1), BuildingBlock: EZIPEK_clean_linker_0, # of connection points: 2
#     Edge 81, Type (0, 1), BuildingBlock: EZIPEK_clean_linker_0, # of connection points: 2
#     Edge 82, Type (0, 1), BuildingBlock: EZIPEK_clean_linker_0, # of connection points: 2
#     Edge 83, Type (0, 1), BuildingBlock: EZIPEK_clean_linker_0, # of connection points: 2
#     Edge 84, Type (0, 1), BuildingBlock: EZIPEK_clean_linker_0, # of connection points: 2
#     Edge 85, Type (0, 1), BuildingBlock: EZIPEK_clean_linker_0, # of connection points: 2
#     Edge 86, Type (0, 1), BuildingBlock: EZIPEK_clean_linker_0, # of connection points: 2
#     Edge 87, Type (0, 1), BuildingBlock: EZIPEK_clean_linker_0, # of connection points: 2
#     Edge 88, Type (0, 1), BuildingBlock: EZIPEK_clean_linker_0, # of connection points: 2
#     Edge 89, Type (0, 1), BuildingBlock: EZIPEK_clean_linker_0, # of connection points: 2
#     Edge 90, Type (0, 1), BuildingBlock: EZIPEK_clean_linker_0, # of connection points: 2
#     Edge 91, Type (0, 1), BuildingBlock: EZIPEK_clean_linker_0, # of connection points: 2
#     Edge 92, Type (0, 1), BuildingBlock: EZIPEK_clean_linker_0, # of connection points: 2
#     Edge 93, Type (0, 1), BuildingBlock: EZIPEK_clean_linker_0, # of connection points: 2
#     Edge 94, Type (0, 1), BuildingBlock: EZIPEK_clean_linker_0, # of connection points: 2
#     Edge 95, Type (0, 1), BuildingBlock: EZIPEK_clean_linker_0, # of connection points: 2
#     Edge 96, Type (0, 1), BuildingBlock: EZIPEK_clean_linker_0, # of connection points: 2
#     Edge 97, Type (0, 1), BuildingBlock: EZIPEK_clean_linker_0, # of connection points: 2
#     Edge 98, Type (0, 1), BuildingBlock: EZIPEK_clean_linker_0, # of connection points: 2
#     Edge 99, Type (0, 1), BuildingBlock: EZIPEK_clean_linker_0, # of connection points: 2
#     Edge 100, Type (0, 1), BuildingBlock: EZIPEK_clean_linker_0, # of connection points: 2
#     Edge 101, Type (0, 1), BuildingBlock: EZIPEK_clean_linker_0, # of connection points: 2
#     Edge 102, Type (0, 1), BuildingBlock: EZIPEK_clean_linker_0, # of connection points: 2
#     Edge 103, Type (0, 1), BuildingBlock: EZIPEK_clean_linker_0, # of connection points: 2
#     Edge 104, Type (0, 1), BuildingBlock: EZIPEK_clean_linker_0, # of connection points: 2
#     Edge 105, Type (0, 1), BuildingBlock: EZIPEK_clean_linker_0, # of connection points: 2
#     Edge 106, Type (0, 1), BuildingBlock: EZIPEK_clean_linker_0, # of connection points: 2
#     Edge 107, Type (0, 1), BuildingBlock: EZIPEK_clean_linker_0, # of connection points: 2
# Relax obj value: 0.058
# Max RMSD: 0.176
# Mean RMSD: 0.119
data_MOF--net-ptr--node1-QUQFOY_clean_sbu_3--node2-AZAVOO_clean_linker_0--edge1-EZIPEK_clean_linker_0
_symmetry_space_group_name_H-M    P1
_symmetry_Int_Tables_number       1
_symmetry_cell_setting            triclinic
loop_
_symmetry_equiv_pos_as_xyz
'x, y, z'
_cell_length_a     64.405245
_cell_length_b     63.548673
_cell_length_c     54.303694
_cell_angle_alpha  93.37798
_cell_angle_beta   92.284066
_cell_angle_gamma 120.71904
loop_
_atom_site_label
_atom_site_type_symbol
_atom_site_fract_x
_atom_site_fract_y
_atom_site_fract_z
_atom_type_partial_charge
C0 C 0.94979 0.31206 0.00447 0.0
O1 O 0.93695 0.32169 0.00784 0.0
Cd2 Cd 0.95245 0.36183 0.02843 0.0
O3 O 0.97198 0.32316 0.01259 0.0
Cd4 Cd 0.00111 0.36254 0.03675 0.0
C5 C -0.00177 0.39542 0.99193 0.0
O6 O 0.97431 0.36454 0.0663 0.0
O7 O 0.00871 0.39801 0.06403 0.0
O8 O 0.01497 0.33989 0.06025 0.0
C9 C 0.98958 0.38633 0.07506 0.0
O10 O 0.97815 0.39073 -2e-05 0.0
C11 C 0.03727 0.35404 0.05745 0.0
O12 O 0.01014 0.38622 0.00072 0.0
O13 O 0.04285 0.37185 0.04437 0.0
C14 C 0.62291 0.6604 0.08855 0.0
O15 O 0.60097 0.65471 0.08585 0.0
Cd16 Cd 0.57108 0.6157 0.0654 0.0
O17 O 0.62938 0.64567 0.08034 0.0
Cd18 Cd 0.60924 0.60477 0.05719 0.0
C19 C 0.57552 0.57689 0.1026 0.0
O20 O 0.58482 0.61032 0.02598 0.0
O21 O 0.57401 0.57272 0.0305 0.0
O22 O 0.64475 0.62304 0.03458 0.0
C23 C 0.57356 0.58809 0.01696 0.0
O24 O 0.56214 0.58467 0.09437 0.0
C25 C 0.64922 0.6059 0.03587 0.0
O26 O 0.5955 0.58285 0.09364 0.0
O27 O 0.63514 0.58778 0.04753 0.0
C28 C 0.34506 0.94277 0.02628 0.0
O29 O 0.3534 0.9292 0.01978 0.0
Cd30 Cd 0.39383 0.94722 0.00642 0.0
O31 O 0.35745 0.96586 0.02524 0.0
Cd32 Cd 0.39676 -0.00243 0.01379 0.0
C33 C 0.42388 0.98409 0.05919 0.0
O34 O 0.39897 0.97587 0.97653 0.0
O35 O 0.43176 0.01 0.99022 0.0
O36 O 0.37476 0.01468 0.99566 0.0
C37 C 0.42039 0.99259 0.97326 0.0
O38 O 0.41969 0.96542 0.04505 0.0
C39 C 0.38688 0.03551 0.00795 0.0
O40 O 0.41646 -0.00178 0.05291 0.0
O41 O 0.40426 0.03922 0.02304 0.0
C42 C 0.93956 0.60766 0.03118 0.0
O43 O 0.92871 0.58551 0.03643 0.0
Cd44 Cd 0.94961 0.56857 0.05722 0.0
O45 O 0.96166 0.62256 0.03864 0.0
Cd46 Cd 0.9945 0.6234 0.06466 0.0
C47 C -0.00325 0.5858 0.02001 0.0
O48 O 0.97063 0.5948 0.09442 0.0
O49 O 0.00838 0.60534 0.09447 0.0
O50 O 0.00323 0.66284 0.08439 0.0
C51 C 0.9884 0.59396 0.10413 0.0
O52 O 0.9769 0.56879 0.027 0.0
C53 C 0.02545 0.67405 0.08016 0.0
O54 O 0.00706 0.60763 0.03032 0.0
O55 O 0.03317 0.66173 0.0687 0.0
C56 C 0.35936 0.40447 0.02694 0.0
O57 O 0.37433 0.42714 0.02548 0.0
Cd58 Cd 0.41356 0.44096 0.01118 0.0
O59 O 0.36396 0.38804 0.01947 0.0
Cd60 Cd 0.39514 0.38347 -0.00058 0.0
C61 C 0.43106 0.41249 0.05209 0.0
O62 O 0.40522 0.41603 0.973 0.0
O63 O 0.4286 0.4008 0.97254 0.0
O64 O 0.36089 0.34738 0.97661 0.0
C65 C 0.42257 0.41518 0.96389 0.0
O66 O 0.43329 0.43237 0.04543 0.0
C67 C 0.36918 0.33341 0.98033 0.0
O68 O 0.41809 0.39216 0.03896 0.0
O69 O 0.38949 0.34274 0.99284 0.0
C70 C 0.67024 0.05548 0.04489 0.0
O71 O 0.66548 0.06984 0.05726 0.0
Cd72 Cd 0.62344 0.05203 0.06534 0.0
O73 O 0.65495 0.03255 0.04223 0.0
Cd74 Cd 0.61703 0.00142 0.05736 0.0
C75 C 0.59352 0.01625 0.01068 0.0
O76 O 0.61437 0.02252 0.09522 0.0
O77 O 0.58149 0.98918 0.08007 0.0
O78 O 0.64273 0.98908 0.07662 0.0
C79 C 0.59264 0.0059 0.09775 0.0
O80 O 0.60043 0.03595 0.02451 0.0
C81 C 0.63102 0.96698 0.0672 0.0
O82 O 0.59718 -0.00039 0.01777 0.0
O83 O 0.61217 0.96033 0.05286 0.0
C84 C 0.61752 0.65238 0.32949 0.0
O85 O 0.60459 0.66216 0.32956 0.0
Cd86 Cd 0.61871 0.70263 0.34847 0.0
O87 O 0.63911 0.66385 0.33952 0.0
Cd88 Cd 0.66704 0.70454 0.36203 0.0
C89 C 0.66637 0.73611 0.31446 0.0
O90 O 0.63763 0.70541 0.38847 0.0
O91 O 0.67234 0.73922 0.38935 0.0
O92 O 0.68013 0.68293 0.38811 0.0
C93 C 0.65217 0.72689 0.39851 0.0
O94 O 0.64562 0.7312 0.32062 0.0
C95 C 0.70257 0.69682 0.38585 0.0
O96 O 0.67797 0.72755 0.32533 0.0
O97 O 0.70873 0.71427 0.37213 0.0
C98 C 0.28181 0.00058 0.41082 0.0
O99 O 0.25968 0.99434 0.40801 0.0
Cd100 Cd 0.22884 0.95474 0.3894 0.0
O101 O 0.28898 0.98633 0.40295 0.0
Cd102 Cd 0.27209 0.94541 0.38064 0.0
C103 C 0.2368 0.91708 0.42637 0.0
O104 O 0.24383 0.94806 0.35191 0.0
O105 O 0.24125 0.91299 0.35069 0.0
O106 O 0.30539 0.9611 0.35455 0.0
C107 C 0.23381 0.92625 0.34183 0.0
O108 O 0.22378 0.92575 0.41941 0.0
C109 C 0.31529 0.95005 0.36347 0.0
O110 O 0.25589 0.92183 0.41599 0.0
O111 O 0.30476 0.93616 0.38037 0.0
C112 C 0.01627 0.27466 0.35764 0.0
O113 O 0.02504 0.26178 0.35011 0.0
Cd114 Cd 0.0666 0.28123 0.34095 0.0
O115 O 0.02869 0.29801 0.35919 0.0
Cd116 Cd 0.06843 0.33162 0.34988 0.0
C117 C 0.09304 0.3163 0.3961 0.0
O118 O 0.07161 0.31095 0.31257 0.0
O119 O 0.10396 0.34529 0.32646 0.0
O120 O 0.04719 0.35011 0.33256 0.0
C121 C 0.09294 0.32788 0.30945 0.0
O122 O 0.08858 0.29747 0.38204 0.0
C123 C 0.05931 0.3704 0.34581 0.0
O124 O 0.08735 0.33151 0.38898 0.0
O125 O 0.07608 0.37303 0.36109 0.0
C126 C 0.60757 0.93632 0.35473 0.0
O127 O 0.59705 0.91355 0.35759 0.0
Cd128 Cd 0.61664 0.89547 0.37863 0.0
O129 O 0.62915 0.95123 0.36385 0.0
Cd130 Cd 0.66148 0.95047 0.38905 0.0
C131 C 0.66521 0.91396 0.34371 0.0
O132 O 0.63527 0.92112 0.41669 0.0
O133 O 0.67295 0.93124 0.42 0.0
O134 O 0.67098 0.98976 0.41002 0.0
C135 C 0.65212 0.91987 0.428 0.0
O136 O 0.64511 0.89646 0.34962 0.0
C137 C 0.69324 0.00063 0.40601 0.0
O138 O 0.67489 0.93543 0.35477 0.0
O139 O 0.70062 0.98824 0.39409 0.0
C140 C 0.99441 0.72994 0.34356 0.0
O141 O 0.00175 0.75029 0.33449 0.0
Cd142 Cd 0.04379 0.77354 0.32711 0.0
O143 O 0.00737 0.72012 0.34346 0.0
Cd144 Cd 0.04424 0.72497 0.32638 0.0
C145 C 0.07082 0.76282 0.37738 0.0
O146 O 0.04898 0.75096 0.29342 0.0
O147 O 0.08079 0.74971 0.30555 0.0
O148 O 0.01791 0.68442 0.30506 0.0
C149 C 0.07056 0.75663 0.29034 0.0
O150 O 0.06616 0.77756 0.36695 0.0
C151 C 0.03083 0.67575 0.31213 0.0
O152 O 0.06445 0.74179 0.36688 0.0
O153 O 0.05018 0.69007 0.32573 0.0
C154 C 0.33443 0.38673 0.37957 0.0
O155 O 0.32939 0.40126 0.39117 0.0
Cd156 Cd 0.2872 0.3841 0.39787 0.0
O157 O 0.31903 0.36383 0.37679 0.0
Cd158 Cd 0.28027 0.33305 0.39089 0.0
C159 C 0.25804 0.34802 0.34314 0.0
O160 O 0.27777 0.3549 0.42809 0.0
O161 O 0.24465 0.32152 0.41347 0.0
O162 O 0.3045 0.31959 0.41135 0.0
C163 C 0.25599 0.3386 0.43078 0.0
O164 O 0.26507 0.36797 0.35658 0.0
C165 C 0.29293 0.29774 0.40124 0.0
O166 O 0.26113 0.33125 0.35091 0.0
O167 O 0.27479 0.2917 0.38607 0.0
C168 C 0.29282 0.98328 0.65858 0.0
O169 O 0.27967 0.9928 0.65905 0.0
Cd170 Cd 0.29268 0.03259 0.67902 0.0
O171 O 0.31432 0.99475 0.66887 0.0
Cd172 Cd 0.34092 0.03499 0.69298 0.0
C173 C 0.34104 0.06794 0.64658 0.0
O174 O 0.31076 0.03476 0.71926 0.0
O175 O 0.34503 0.06904 0.72042 0.0
O176 O 0.35423 0.01311 0.71851 0.0
C177 C 0.3249 0.05627 0.72947 0.0
O178 O 0.32004 0.06247 0.65238 0.0
C179 C 0.3767 0.02804 0.71747 0.0
O180 O 0.35257 0.05912 0.65708 0.0
O181 O 0.3827 0.04601 0.70451 0.0
C182 C 0.93843 0.3196 0.74721 0.0
O183 O 0.916 0.30991 0.74102 0.0
Cd184 Cd 0.89347 0.26985 0.71906 0.0
O185 O 0.94989 0.30904 0.74087 0.0
Cd186 Cd 0.94178 0.27158 0.71629 0.0
C187 C 0.90565 0.2364 0.75784 0.0
O188 O 0.91489 0.27148 0.6832 0.0
O189 O 0.91813 0.23917 0.68317 0.0
O190 O 0.9795 0.29837 0.69905 0.0
C191 C 0.91116 0.25166 0.6719 0.0
O192 O 0.89014 0.24118 0.74882 0.0
C193 C 0.9889 0.28546 0.70307 0.0
O194 O 0.9266 0.24565 0.74998 0.0
O195 O 0.97663 0.26607 0.71385 0.0
C196 C 0.67537 0.61005 0.69708 0.0
O197 O 0.6843 0.59711 0.69019 0.0
Cd198 Cd 0.72486 0.61713 0.67767 0.0
O199 O 0.68694 0.63318 0.69614 0.0
Cd200 Cd 0.72457 0.66666 0.68295 0.0
C201 C 0.75433 0.65742 0.72929 0.0
O202 O 0.72601 0.64334 0.64672 0.0
O203 O 0.75769 0.67959 0.65604 0.0
O204 O 0.69827 0.67995 0.66665 0.0
C205 C 0.74631 0.66042 0.64103 0.0
O206 O 0.75003 0.63802 0.71642 0.0
C207 C 0.71061 0.70169 0.67699 0.0
O208 O 0.74657 0.67091 0.72182 0.0
O209 O 0.72995 0.7076 0.69 0.0
C210 C 0.28198 0.27903 0.6923 0.0
O211 O 0.27177 0.2561 0.69423 0.0
Cd212 Cd 0.29103 0.23772 0.71548 0.0
O213 O 0.30318 0.29397 0.70234 0.0
Cd214 Cd 0.33517 0.29298 0.72785 0.0
C215 C 0.34105 0.25809 0.68244 0.0
O216 O 0.30887 0.26203 0.75426 0.0
O217 O 0.34677 0.27294 0.75765 0.0
O218 O 0.34304 0.33081 0.75078 0.0
C219 C 0.32582 0.26068 0.76521 0.0
O220 O 0.32111 0.24013 0.68805 0.0
C221 C 0.36538 0.3427 0.74713 0.0
O222 O 0.3499 0.27954 0.69335 0.0
O223 O 0.37362 0.33152 0.73451 0.0
C224 C 0.69237 0.07656 0.69053 0.0
O225 O 0.70835 0.09879 0.6884 0.0
Cd226 Cd 0.74605 0.10919 0.67205 0.0
O227 O 0.69499 0.05892 0.68248 0.0
Cd228 Cd 0.7233 0.05104 0.66044 0.0
C229 C 0.76172 0.07867 0.71194 0.0
O230 O 0.73451 0.08366 0.63361 0.0
O231 O 0.75494 0.06521 0.63137 0.0
O232 O 0.6871 0.01539 0.63923 0.0
C233 C 0.75023 0.08074 0.62325 0.0
O234 O 0.76529 0.09914 0.70555 0.0
C235 C 0.69433 0.00058 0.64321 0.0
O236 O 0.74737 0.05862 0.69895 0.0
O237 O 0.71489 0.00928 0.65501 0.0
C238 C 0.98283 0.70858 0.6975 0.0
O239 O 0.97388 0.72127 0.70511 0.0
Cd240 Cd 0.93355 0.69983 0.71812 0.0
O241 O 0.97199 0.68558 0.69943 0.0
Cd242 Cd 0.93663 0.65296 0.71748 0.0
C243 C 0.90482 0.6554 0.66876 0.0
O244 O 0.93351 0.67717 0.7522 0.0
O245 O 0.90284 0.64023 0.74311 0.0
O246 O 0.96583 0.64563 0.73819 0.0
C247 C 0.91357 0.65951 0.75803 0.0
O248 O 0.90937 0.67568 0.6799 0.0
C249 C 0.95476 0.62277 0.73165 0.0
O250 O 0.91228 0.64241 0.67831 0.0
O251 O 0.93512 0.61362 0.71792 0.0
H252 H 0.15898 0.37144 0.991 0.0
H253 H 0.32657 0.3355 0.18923 0.0
H254 H 0.16378 0.37701 0.14328 0.0
H255 H 0.12886 0.3784 0.12551 0.0
H256 H 0.09967 0.30563 0.08892 0.0
H257 H 0.13474 0.30432 0.10658 0.0
H258 H 0.18876 0.3825 0.09637 0.0
H259 H 0.17756 0.38486 0.05348 0.0
H260 H 0.16906 0.31386 0.03324 0.0
H261 H 0.18015 0.31169 0.07628 0.0
H262 H 0.2389 0.39136 0.10387 0.0
H263 H 0.27326 0.4049 0.07817 0.0
H264 H 0.26442 0.33279 0.07592 0.0
H265 H 0.22995 0.31919 0.10174 0.0
H266 H 0.26444 0.38687 0.15055 0.0
H267 H 0.30318 0.39062 0.16312 0.0
H268 H 0.26567 0.31328 0.17437 0.0
H269 H 0.22705 0.30975 0.16155 0.0
H270 H 0.2382 0.38071 0.19583 0.0
H271 H 0.25012 0.3808 0.23939 0.0
H272 H 0.19464 0.30434 0.23824 0.0
H273 H 0.18299 0.30407 0.1944 0.0
H274 H 0.18759 0.37609 0.19347 0.0
H275 H 0.16387 0.3713 0.22923 0.0
H276 H 0.11386 0.29554 0.20264 0.0
H277 H 0.13781 0.30027 0.16687 0.0
O278 O 0.16369 0.37027 0.00778 0.0
O279 O 0.16043 0.33415 -0.00187 0.0
O280 O 0.32995 0.37405 0.17751 0.0
O281 O 0.3115 0.33451 0.18418 0.0
C282 C 0.17459 0.3415 0.13356 0.0
C283 C 0.1911 0.34508 0.11561 0.0
C284 C 0.2136 0.34754 0.12266 0.0
C285 C 0.21944 0.34576 0.1475 0.0
C286 C 0.20303 0.34238 0.16548 0.0
C287 C 0.18073 0.34051 0.15851 0.0
C288 C 0.15169 0.34054 0.12624 0.0
C289 C 0.14958 0.36116 0.1319 0.0
C290 C 0.12981 0.362 0.12169 0.0
C291 C 0.11189 0.34219 0.10582 0.0
C292 C 0.11341 0.32108 0.1011 0.0
C293 C 0.13327 0.3203 0.1112 0.0
C294 C 0.18508 0.34685 0.08941 0.0
C295 C 0.18443 0.36747 0.08264 0.0
C296 C 0.17809 0.36879 0.05812 0.0
C297 C 0.17231 0.3495 0.03994 0.0
C298 C 0.17333 0.329 0.04679 0.0
C299 C 0.17969 0.32772 0.07133 0.0
C300 C 0.23205 0.35433 0.10457 0.0
C301 C 0.24404 0.37834 0.09737 0.0
C302 C 0.26356 0.38605 0.08283 0.0
C303 C 0.27115 0.36977 0.07528 0.0
C304 C 0.25856 0.34544 0.08157 0.0
C305 C 0.23906 0.33775 0.09623 0.0
C306 C 0.24299 0.34799 0.15492 0.0
C307 C 0.26466 0.37073 0.15555 0.0
C308 C 0.28674 0.37283 0.16285 0.0
C309 C 0.28753 0.35222 0.16968 0.0
C310 C 0.26572 0.3295 0.16915 0.0
C311 C 0.24365 0.32742 0.16184 0.0
C312 C 0.20989 0.34232 0.19192 0.0
C313 C 0.2287 0.36394 0.20492 0.0
C314 C 0.23538 0.36404 0.2297 0.0
C315 C 0.22319 0.34259 0.24185 0.0
C316 C 0.20415 0.32104 0.22904 0.0
C317 C 0.19756 0.32089 0.20416 0.0
C318 C 0.16438 0.33849 0.17775 0.0
C319 C 0.1713 0.35858 0.19516 0.0
C320 C 0.15789 0.35586 0.21548 0.0
C321 C 0.13736 0.33306 0.21847 0.0
C322 C 0.12976 0.31322 0.20049 0.0
C323 C 0.14325 0.31594 0.18016 0.0
C324 C 0.16514 0.35076 0.01401 0.0
C325 C 0.31097 0.35435 0.17734 0.0
H326 H 0.67497 0.80916 0.99522 0.0
H327 H 0.70792 -0.00213 0.20442 0.0
H328 H 0.65544 0.79787 0.12723 0.0
H329 H 0.64376 0.75552 0.11446 0.0
H330 H 0.71446 0.77071 0.14128 0.0
H331 H 0.72663 0.81385 0.15342 0.0
H332 H 0.65818 0.82871 0.09677 0.0
H333 H 0.65806 0.81815 0.05276 0.0
H334 H 0.73462 0.84411 0.06281 0.0
H335 H 0.73456 0.85493 0.1068 0.0
H336 H 0.64951 0.85498 0.12699 0.0
H337 H 0.63354 0.87695 0.10504 0.0
H338 H 0.70637 0.934 0.09411 0.0
H339 H 0.72244 0.91161 0.11583 0.0
H340 H 0.659 0.87669 0.18141 0.0
H341 H 0.65499 0.91166 0.19551 0.0
H342 H 0.72985 0.96132 0.18239 0.0
H343 H 0.73357 0.92612 0.16835 0.0
H344 H 0.66392 0.83991 0.21137 0.0
H345 H 0.66042 0.85357 0.25331 0.0
H346 H 0.73362 0.91512 0.25562 0.0
H347 H 0.73731 0.90117 0.21358 0.0
H348 H 0.66108 0.79754 0.18299 0.0
H349 H 0.6569 0.77205 0.21678 0.0
H350 H 0.73163 0.82228 0.24295 0.0
H351 H 0.73596 0.84775 0.20878 0.0
O352 O 0.67547 0.81366 0.01267 0.0
O353 O 0.71482 0.82717 0.01884 0.0
O354 O 0.67069 0.95738 0.20557 0.0
O355 O 0.70901 0.98372 0.19893 0.0
C356 C 0.69797 0.83421 0.14918 0.0
C357 C 0.69682 0.84931 0.13174 0.0
C358 C 0.69599 0.87029 0.13993 0.0
C359 C 0.69887 0.87764 0.16546 0.0
C360 C 0.70137 0.86331 0.1829 0.0
C361 C 0.70034 0.84124 0.1748 0.0
C362 C 0.69207 0.80906 0.14064 0.0
C363 C 0.66868 0.79233 0.1298 0.0
C364 C 0.66193 0.76818 0.12279 0.0
C365 C 0.67832 0.76023 0.12685 0.0
C366 C 0.70172 0.77675 0.13793 0.0
C367 C 0.70862 0.8012 0.14474 0.0
C368 C 0.69649 0.84304 0.1049 0.0
C369 C 0.675 0.8325 0.08939 0.0
C370 C 0.67493 0.82628 0.06426 0.0
C371 C 0.69635 0.83037 0.05423 0.0
C372 C 0.71782 0.84079 0.06991 0.0
C373 C 0.71785 0.84701 0.09503 0.0
C374 C 0.68708 0.88159 0.12263 0.0
C375 C 0.662 0.87176 0.11906 0.0
C376 C 0.65291 0.88425 0.10663 0.0
C377 C 0.66881 0.90692 0.09792 0.0
C378 C 0.6939 0.91633 0.10049 0.0
C379 C 0.70303 0.90365 0.11282 0.0
C380 C 0.69659 0.89895 0.17399 0.0
C381 C 0.6745 0.89515 0.18166 0.0
C382 C 0.67226 0.91514 0.18966 0.0
C383 C 0.69214 0.9393 0.19015 0.0
C384 C 0.71423 0.94297 0.18232 0.0
C385 C 0.71641 0.92294 0.17428 0.0
C386 C 0.70093 0.86948 0.20956 0.0
C387 C 0.67949 0.85586 0.2212 0.0
C388 C 0.67747 0.86366 0.24502 0.0
C389 C 0.69677 0.88526 0.25738 0.0
C390 C 0.71866 0.89828 0.2463 0.0
C391 C 0.72073 0.8904 0.22243 0.0
C392 C 0.69891 0.82435 0.1933 0.0
C393 C 0.67676 0.80271 0.19556 0.0
C394 C 0.67433 0.78828 0.21485 0.0
C395 C 0.69396 0.7954 0.23224 0.0
C396 C 0.71637 0.81656 0.22957 0.0
C397 C 0.71882 0.83099 0.21018 0.0
C398 C 0.69621 0.82368 0.02754 0.0
C399 C 0.68987 0.9606 0.1987 0.0
H400 H 0.13513 0.81711 0.97724 0.0
H401 H 0.32956 4e-05 0.16881 0.0
H402 H 0.11636 0.83538 0.10605 0.0
H403 H 0.08097 0.79411 0.09388 0.0
H404 H 0.11651 0.76165 0.13147 0.0
H405 H 0.15174 0.80268 0.1435 0.0
H406 H 0.16322 0.87546 0.07307 0.0
H407 H 0.15094 0.85667 0.03037 0.0
H408 H 0.15722 0.79545 0.05146 0.0
H409 H 0.16985 0.81463 0.09395 0.0
H410 H 0.21762 0.92245 0.09608 0.0
H411 H 0.25237 0.93747 0.07044 0.0
H412 H 0.2519 0.86973 0.07524 0.0
H413 H 0.21784 0.85505 0.10127 0.0
H414 H 0.20869 0.93604 0.15438 0.0
H415 H 0.24661 0.97531 0.16427 0.0
H416 H 0.28685 0.93819 0.15591 0.0
H417 H 0.2488 0.89904 0.1461 0.0
H418 H 0.16417 0.89663 0.19081 0.0
H419 H 0.17166 0.90759 0.23577 0.0
H420 H 0.23303 0.89754 0.2364 0.0
H421 H 0.225 0.88566 0.19166 0.0
H422 H 0.12057 0.84773 0.16657 0.0
H423 H 0.09644 0.82369 0.19957 0.0
H424 H 0.15394 0.81151 0.22303 0.0
H425 H 0.17796 0.83538 0.19014 0.0
O426 O 0.14021 0.82431 0.99419 0.0
O427 O 0.14336 0.79309 0.00608 0.0
O428 O 0.29269 0.00256 0.17166 0.0
O429 O 0.31429 0.9847 0.16534 0.0
C430 C 0.15863 0.84635 0.13139 0.0
C431 C 0.17413 0.85767 0.11261 0.0
C432 C 0.19672 0.87947 0.11866 0.0
C433 C 0.2029 0.89113 0.14307 0.0
C434 C 0.18719 0.8799 0.16176 0.0
C435 C 0.16546 0.85712 0.156 0.0
C436 C 0.13648 0.8219 0.12568 0.0
C437 C 0.11632 0.81934 0.11187 0.0
C438 C 0.09626 0.79596 0.10498 0.0
C439 C 0.09634 0.77503 0.11177 0.0
C440 C 0.11623 0.77767 0.12614 0.0
C441 C 0.1362 0.80097 0.13303 0.0
C442 C 0.16713 0.84628 0.08665 0.0
C443 C 0.16198 0.85803 0.06839 0.0
C444 C 0.15494 0.84723 0.04404 0.0
C445 C 0.15298 0.82449 0.03752 0.0
C446 C 0.15845 0.81292 0.05586 0.0
C447 C 0.16555 0.82377 0.08018 0.0
C448 C 0.21528 0.8877 0.1005 0.0
C449 C 0.22478 0.91074 0.09122 0.0
C450 C 0.2444 0.9192 0.07658 0.0
C451 C 0.25439 0.90454 0.07097 0.0
C452 C 0.24414 0.88108 0.07924 0.0
C453 C 0.22479 0.87276 0.09402 0.0
C454 C 0.22603 0.91477 0.14928 0.0
C455 C 0.22572 0.93645 0.1547 0.0
C456 C 0.2474 0.95883 0.16034 0.0
C457 C 0.26978 0.9599 0.16071 0.0
C458 C 0.26996 0.93804 0.1556 0.0
C459 C 0.24826 0.91567 0.14995 0.0
C460 C 0.19419 0.89059 0.18793 0.0
C461 C 0.17948 0.89721 0.20058 0.0
C462 C 0.18368 0.90336 0.22613 0.0
C463 C 0.2029 0.90338 0.23924 0.0
C464 C 0.2182 0.89772 0.22648 0.0
C465 C 0.21378 0.89122 0.20099 0.0
C466 C 0.15098 0.84332 0.17614 0.0
C467 C 0.12793 0.83993 0.17891 0.0
C468 C 0.11427 0.82634 0.19762 0.0
C469 C 0.12357 0.81598 0.21354 0.0
C470 C 0.14662 0.81946 0.21083 0.0
C471 C 0.16026 0.83306 0.19221 0.0
C472 C 0.14525 0.81295 0.01169 0.0
C473 C 0.29288 0.9837 0.16628 0.0
H474 H 0.313 0.18182 0.07509 0.0
H475 H 0.33734 0.01493 0.87278 0.0
H476 H 0.28371 0.17224 0.94367 0.0
H477 H 0.29227 0.21385 0.95727 0.0
H478 H 0.36176 0.2452 0.92679 0.0
H479 H 0.35334 0.20392 0.91341 0.0
H480 H 0.28606 0.12848 0.97658 0.0
H481 H 0.29089 0.1451 0.01963 0.0
H482 H 0.36123 0.20648 0.00712 0.0
H483 H 0.35629 0.18953 0.96425 0.0
H484 H 0.29446 0.08111 0.95344 0.0
H485 H 0.31389 0.06265 0.97641 0.0
H486 H 0.38172 0.13177 0.98264 0.0
H487 H 0.3627 0.14988 0.95882 0.0
H488 H 0.27528 0.07077 0.89642 0.0
H489 H 0.27569 0.03358 0.88272 0.0
H490 H 0.35385 0.07404 0.8948 0.0
H491 H 0.35314 0.11103 0.9086 0.0
H492 H 0.27245 0.10437 0.85658 0.0
H493 H 0.27224 0.08628 0.81498 0.0
H494 H 0.34924 0.11603 0.82675 0.0
H495 H 0.34948 0.13413 0.86796 0.0
H496 H 0.27591 0.15961 0.8818 0.0
H497 H 0.2771 0.18563 0.84929 0.0
H498 H 0.34885 0.20159 0.83475 0.0
H499 H 0.34783 0.17602 0.86734 0.0
O500 O 0.31156 0.17545 0.05808 0.0
O501 O 0.34743 0.20684 0.05055 0.0
O502 O 0.29644 0.00938 0.87211 0.0
O503 O 0.3366 0.02924 0.87847 0.0
C504 C 0.31441 0.16047 0.92172 0.0
C505 C 0.31728 0.14793 0.941 0.0
C506 C 0.31785 0.12628 0.93526 0.0
C507 C 0.31383 0.11628 0.91038 0.0
C508 C 0.31111 0.12891 0.8912 0.0
C509 C 0.31167 0.15111 0.89682 0.0
C510 C 0.31788 0.18518 0.92748 0.0
C511 C 0.30057 0.18814 0.9396 0.0
C512 C 0.30542 0.21172 0.94731 0.0
C513 C 0.32767 0.23239 0.94306 0.0
C514 C 0.34452 0.22939 0.93015 0.0
C515 C 0.33968 0.20593 0.92246 0.0
C516 C 0.32068 0.15794 0.96723 0.0
C517 C 0.30251 0.14548 0.98321 0.0
C518 C 0.30531 0.15504 0.00777 0.0
C519 C 0.3264 0.1772 0.01679 0.0
C520 C 0.34472 0.18944 0.00076 0.0
C521 C 0.3419 0.17986 0.97623 0.0
C522 C 0.3272 0.11677 0.95434 0.0
C523 C 0.31332 0.09243 0.96035 0.0
C524 C 0.32435 0.08197 0.97345 0.0
C525 C 0.34921 0.0959 0.98094 0.0
C526 C 0.36251 0.12086 0.977 0.0
C527 C 0.35162 0.13117 0.96354 0.0
C528 C 0.31414 0.09343 0.90385 0.0
C529 C 0.29243 0.07144 0.89639 0.0
C530 C 0.29273 0.05028 0.88849 0.0
C531 C 0.31482 0.05082 0.88777 0.0
C532 C 0.33654 0.07294 0.89529 0.0
C533 C 0.33619 0.09406 0.90329 0.0
C534 C 0.31096 0.12038 0.86519 0.0
C535 C 0.28928 0.1073 0.84993 0.0
C536 C 0.28917 0.09704 0.82637 0.0
C537 C 0.31074 0.09989 0.81804 0.0
C538 C 0.33249 0.11374 0.83297 0.0
C539 C 0.33261 0.12398 0.85637 0.0
C540 C 0.31165 0.16572 0.8766 0.0
C541 C 0.29177 0.1686 0.87145 0.0
C542 C 0.29246 0.18336 0.85305 0.0
C543 C 0.31304 0.19532 0.83975 0.0
C544 C 0.33282 0.19233 0.84483 0.0
C545 C 0.33217 0.17769 0.86322 0.0
C546 C 0.32919 0.18746 0.04279 0.0
C547 C 0.31529 0.02852 0.87898 0.0
H548 H 0.82434 0.18731 0.06577 0.0
H549 H 0.70701 0.96165 0.8771 0.0
H550 H 0.83381 0.18194 0.93443 0.0
H551 H 0.86457 0.2233 0.95242 0.0
H552 H 0.91912 0.20318 0.95003 0.0
H553 H 0.88816 0.16155 0.93185 0.0
H554 H 0.79592 0.14458 0.96298 0.0
H555 H 0.80185 0.16315 0.00536 0.0
H556 H 0.86456 0.15607 0.01876 0.0
H557 H 0.8582 0.13719 0.97642 0.0
H558 H 0.75685 0.09399 0.92539 0.0
H559 H 0.72639 0.08046 0.95535 0.0
H560 H 0.77623 0.07811 0.00904 0.0
H561 H 0.80592 0.08898 0.97789 0.0
H562 H 0.76019 0.08335 0.87663 0.0
H563 H 0.72672 0.04214 0.86232 0.0
H564 H 0.76004 0.01082 0.90599 0.0
H565 H 0.79368 0.0522 0.91985 0.0
H566 H 0.79831 0.12919 0.85797 0.0
H567 H 0.78777 0.11754 0.81351 0.0
H568 H 0.80918 0.0636 0.81781 0.0
H569 H 0.82013 0.07558 0.8627 0.0
H570 H 0.83674 0.17531 0.88535 0.0
H571 H 0.85729 0.19994 0.85151 0.0
H572 H 0.88707 0.15394 0.83489 0.0
H573 H 0.86708 0.12963 0.86948 0.0
O574 O 0.82217 0.17968 0.04916 0.0
O575 O 0.85458 0.17612 0.05492 0.0
O576 O 0.70374 0.99522 0.86028 0.0
O577 O 0.7201 0.97817 0.8824 0.0
C578 C 0.83956 0.14323 0.92374 0.0
C579 C 0.8233 0.12871 0.94074 0.0
C580 C 0.80329 0.10512 0.93259 0.0
C581 C 0.80016 0.09582 0.9075 0.0
C582 C 0.81613 0.11075 0.89042 0.0
C583 C 0.83584 0.13444 0.89858 0.0
C584 C 0.85883 0.16883 0.93199 0.0
C585 C 0.85245 0.18654 0.93748 0.0
C586 C 0.86991 0.21003 0.94766 0.0
C587 C 0.89394 0.21607 0.95252 0.0
C588 C 0.90058 0.19868 0.9463 0.0
C589 C 0.88305 0.1751 0.93597 0.0
C590 C 0.82648 0.1393 0.96674 0.0
C591 C 0.81077 0.14684 0.97519 0.0
C592 C 0.81427 0.15753 -0.00064 0.0
C593 C 0.83368 0.16108 0.01546 0.0
C594 C 0.84941 0.15355 0.00687 0.0
C595 C 0.84582 0.14276 0.98272 0.0
C596 C 0.78364 0.09231 0.94928 0.0
C597 C 0.76085 0.0893 0.9431 0.0
C598 C 0.7436 0.08199 0.96036 0.0
C599 C 0.74915 0.07857 0.98448 0.0
C600 C 0.77158 0.08062 0.99049 0.0
C601 C 0.78847 0.08683 0.97277 0.0
C602 C 0.77958 0.07078 0.899 0.0
C603 C 0.7604 0.06758 0.88286 0.0
C604 C 0.74121 0.044 0.87483 0.0
C605 C 0.74074 0.02316 0.88296 0.0
C606 C 0.75987 0.02647 0.89933 0.0
C607 C 0.77909 0.05007 0.90729 0.0
C608 C 0.81011 0.10332 0.86347 0.0
C609 C 0.80102 0.11506 0.84933 0.0
C610 C 0.79502 0.10844 0.82406 0.0
C611 C 0.79795 0.08994 0.81251 0.0
C612 C 0.8071 0.07812 0.82651 0.0
C613 C 0.81318 0.08482 0.85198 0.0
C614 C 0.85081 0.15098 0.88017 0.0
C615 C 0.84838 0.17104 0.87503 0.0
C616 C 0.85986 0.1849 0.85564 0.0
C617 C 0.87363 0.17867 0.84092 0.0
C618 C 0.87658 0.15898 0.84627 0.0
C619 C 0.86527 0.14523 0.86592 0.0
C620 C 0.83752 0.17272 0.04104 0.0
C621 C 0.72038 -0.00193 0.87448 0.0
H622 H 0.83819 0.63615 0.0858 0.0
H623 H 0.6756 0.63511 0.85998 0.0
H624 H 0.8763 0.68283 0.95633 0.0
H625 H 0.90557 0.67526 0.97873 0.0
H626 H 0.8606 0.59776 0.95599 0.0
H627 H 0.83127 0.60525 0.93406 0.0
H628 H 0.84016 0.67593 0.9909 0.0
H629 H 0.8437 0.66646 0.03338 0.0
H630 H 0.79552 0.58908 0.01079 0.0
H631 H 0.79223 0.59887 0.96837 0.0
H632 H 0.78912 0.67181 0.98073 0.0
H633 H 0.75357 0.65951 0.00467 0.0
H634 H 0.71647 0.58818 0.96326 0.0
H635 H 0.75187 0.60055 0.93926 0.0
H636 H 0.7795 0.68512 0.93121 0.0
H637 H 0.74363 0.68618 0.9165 0.0
H638 H 0.71807 0.61809 0.87088 0.0
H639 H 0.75382 0.61709 0.88602 0.0
H640 H 0.81479 0.69693 0.88504 0.0
H641 H 0.80474 0.70217 0.84243 0.0
H642 H 0.78567 0.62789 0.81952 0.0
H643 H 0.79598 0.62277 0.86188 0.0
H644 H 0.86173 0.69535 0.89039 0.0
H645 H 0.88432 0.69801 0.8541 0.0
H646 H 0.85966 0.62085 0.85361 0.0
H647 H 0.8364 0.61797 0.8893 0.0
O648 O 0.8364 0.6395 0.06893 0.0
O649 O 0.81114 0.59998 0.0565 0.0
O650 O 0.70334 0.66957 0.8907 0.0
O651 O 0.68983 0.63503 0.86629 0.0
C652 C 0.83187 0.64805 0.93484 0.0
C653 C 0.81381 0.64399 0.95103 0.0
C654 C 0.79328 0.64474 0.9426 0.0
C655 C 0.79118 0.65066 0.9184 0.0
C656 C 0.80945 0.6552 0.90237 0.0
C657 C 0.82972 0.65364 0.91046 0.0
C658 C 0.85191 0.64461 0.94337 0.0
C659 C 0.87321 0.66437 0.95555 0.0
C660 C 0.88975 0.66006 0.96836 0.0
C661 C 0.88511 0.63598 0.96886 0.0
C662 C 0.86447 0.61644 0.95556 0.0
C663 C 0.84788 0.62072 0.94299 0.0
C664 C 0.81597 0.63807 0.97667 0.0
C665 C 0.83042 0.65696 0.99521 0.0
C666 C 0.83236 0.65149 0.01944 0.0
C667 C 0.81985 0.62701 0.0255 0.0
C668 C 0.80536 0.60813 0.00677 0.0
C669 C 0.80345 0.61364 0.98255 0.0
C670 C 0.77284 0.63707 0.95827 0.0
C671 C 0.7734 0.65348 0.97706 0.0
C672 C 0.75327 0.64647 0.99065 0.0
C673 C 0.73258 0.62299 0.9856 0.0
C674 C 0.73238 0.60633 0.96735 0.0
C675 C 0.75241 0.61338 0.9537 0.0
C676 C 0.76931 0.65113 0.90954 0.0
C677 C 0.76609 0.67043 0.91809 0.0
C678 C 0.74561 0.671 0.90963 0.0
C679 C 0.72801 0.65224 0.89243 0.0
C680 C 0.73127 0.63284 0.88407 0.0
C681 C 0.75171 0.63226 0.89261 0.0
C682 C 0.8061 0.65949 0.8764 0.0
C683 C 0.80889 0.682 0.87068 0.0
C684 C 0.80324 0.685 0.84652 0.0
C685 C 0.79451 0.66538 0.82805 0.0
C686 C 0.79246 0.64318 0.83363 0.0
C687 C 0.79834 0.64028 0.85767 0.0
C688 C 0.84765 0.65652 0.89264 0.0
C689 C 0.86175 0.67918 0.88288 0.0
C690 C 0.8745 0.68068 0.86221 0.0
C691 C 0.87354 0.65961 0.85133 0.0
C692 C 0.86066 0.63729 0.86196 0.0
C693 C 0.84764 0.63571 0.88242 0.0
C694 C 0.82211 0.62125 0.0512 0.0
C695 C 0.70636 0.65289 0.88317 0.0
H696 H 0.8451 0.72463 0.33124 0.0
H697 H 0.93721 0.59492 0.49587 0.0
H698 H 0.8272 0.70543 0.46607 0.0
H699 H 0.79759 0.71522 0.44863 0.0
H700 H 0.74662 0.63796 0.42985 0.0
H701 H 0.77617 0.62818 0.44749 0.0
H702 H 0.86763 0.70754 0.43086 0.0
H703 H 0.86415 0.72158 0.39072 0.0
H704 H 0.80183 0.64975 0.3678 0.0
H705 H 0.80566 0.63591 0.40794 0.0
H706 H 0.90555 0.69214 0.4612 0.0
H707 H 0.93648 0.70586 0.43177 0.0
H708 H 0.88339 0.65371 0.37477 0.0
H709 H 0.85295 0.63769 0.40529 0.0
H710 H 0.90359 0.67831 0.50509 0.0
H711 H 0.93269 0.66583 0.51583 0.0
H712 H 0.8876 0.5966 0.4716 0.0
H713 H 0.85837 0.60916 0.46137 0.0
H714 H 0.87534 0.6878 0.52944 0.0
H715 H 0.88672 0.68439 0.57202 0.0
H716 H 0.83804 0.60584 0.5619 0.0
H717 H 0.827 0.60923 0.51882 0.0
H718 H 0.8375 0.69348 0.52256 0.0
H719 H 0.81525 0.69291 0.55842 0.0
H720 H 0.75874 0.61867 0.53381 0.0
H721 H 0.78154 0.61898 0.49828 0.0
O722 O 0.84628 0.71864 0.34691 0.0
O723 O 0.81407 0.68153 0.3362 0.0
O724 O 0.94833 0.63607 0.51466 0.0
O725 O 0.92597 0.60031 0.49192 0.0
C726 C 0.82285 0.66059 0.46454 0.0
C727 C 0.83895 0.66241 0.44675 0.0
C728 C 0.8579 0.65802 0.45291 0.0
C729 C 0.86043 0.65153 0.47683 0.0
C730 C 0.8452 0.65121 0.49497 0.0
C731 C 0.82631 0.65554 0.48873 0.0
C732 C 0.80369 0.66612 0.45809 0.0
C733 C 0.80942 0.69062 0.45877 0.0
C734 C 0.79265 0.69618 0.44877 0.0
C735 C 0.77008 0.67728 0.43795 0.0
C736 C 0.76399 0.65271 0.4382 0.0
C737 C 0.78071 0.64715 0.44832 0.0
C738 C 0.83689 0.67074 0.42226 0.0
C739 C 0.85329 0.69487 0.4171 0.0
C740 C 0.85124 0.70283 0.39417 0.0
C741 C 0.83268 0.6868 0.37606 0.0
C742 C 0.81632 0.66257 0.38133 0.0
C743 C 0.81841 0.65464 0.40425 0.0
C744 C 0.87698 0.66369 0.43557 0.0
C745 C 0.90077 0.68273 0.44276 0.0
C746 C 0.91833 0.69084 0.42584 0.0
C747 C 0.91218 0.68092 0.40106 0.0
C748 C 0.88851 0.66151 0.39385 0.0
C749 C 0.87118 0.65251 0.41118 0.0
C750 C 0.87868 0.64449 0.48274 0.0
C751 C 0.89987 0.66034 0.49797 0.0
C752 C 0.91656 0.65323 0.50395 0.0
C753 C 0.91243 0.63015 0.49465 0.0
C754 C 0.89131 0.61446 0.47913 0.0
C755 C 0.87461 0.62159 0.47322 0.0
C756 C 0.85057 0.64873 0.52107 0.0
C757 C 0.86707 0.66985 0.53642 0.0
C758 C 0.87354 0.66793 0.5606 0.0
C759 C 0.8633 0.64488 0.56989 0.0
C760 C 0.84613 0.62375 0.55488 0.0
C761 C 0.83987 0.62566 0.53046 0.0
C762 C 0.81116 0.65619 0.5081 0.0
C763 C 0.82023 0.67719 0.5248 0.0
C764 C 0.8076 0.67686 0.54515 0.0
C765 C 0.78558 0.65567 0.54876 0.0
C766 C 0.77581 0.6351 0.53128 0.0
C767 C 0.78869 0.6353 0.5111 0.0
C768 C 0.83037 0.69539 0.35183 0.0
C769 C 0.93004 0.62246 0.50106 0.0
H770 H 0.31721 0.12326 0.34147 0.0
H771 H 0.39072 0.3387 0.55657 0.0
H772 H 0.32099 0.12925 0.49514 0.0
H773 H 0.30656 0.08752 0.47691 0.0
H774 H 0.37559 0.11231 0.44701 0.0
H775 H 0.39017 0.15446 0.46542 0.0
H776 H 0.31865 0.1473 0.44731 0.0
H777 H 0.31084 0.13238 0.40345 0.0
H778 H 0.38474 0.18658 0.39146 0.0
H779 H 0.39225 0.20143 0.43542 0.0
H780 H 0.31604 0.18639 0.45872 0.0
H781 H 0.29855 0.2063 0.43555 0.0
H782 H 0.36905 0.27202 0.43792 0.0
H783 H 0.38685 0.25173 0.4606 0.0
H784 H 0.32853 0.22186 0.5082 0.0
H785 H 0.32908 0.2589 0.52449 0.0
H786 H 0.40728 0.29733 0.53541 0.0
H787 H 0.40643 0.26013 0.51907 0.0
H788 H 0.33071 0.19252 0.54617 0.0
H789 H 0.33032 0.20851 0.58817 0.0
H790 H 0.40808 0.24319 0.59842 0.0
H791 H 0.40846 0.22699 0.55601 0.0
H792 H 0.32939 0.15005 0.54044 0.0
H793 H 0.32785 0.12362 0.57232 0.0
H794 H 0.40213 0.14511 0.56311 0.0
H795 H 0.40364 0.17164 0.53091 0.0
O796 O 0.32062 0.12969 0.35869 0.0
O797 O 0.35854 0.1584 0.3533 0.0
O798 O 0.34984 0.30356 0.54301 0.0
O799 O 0.39 0.32393 0.54966 0.0
C800 C 0.3632 0.17028 0.48917 0.0
C801 C 0.36092 0.18435 0.47119 0.0
C802 C 0.36191 0.20652 0.47864 0.0
C803 C 0.367 0.21553 0.50388 0.0
C804 C 0.36947 0.20154 0.52176 0.0
C805 C 0.36732 0.17883 0.51448 0.0
C806 C 0.35666 0.14475 0.48176 0.0
C807 C 0.33331 0.12558 0.48538 0.0
C808 C 0.32505 0.10188 0.47489 0.0
C809 C 0.34001 0.09704 0.46058 0.0
C810 C 0.3639 0.11587 0.45807 0.0
C811 C 0.37217 0.13975 0.46853 0.0
C812 C 0.35609 0.17526 0.44456 0.0
C813 C 0.33315 0.15585 0.43521 0.0
C814 C 0.32871 0.14744 0.41012 0.0
C815 C 0.3472 0.1582 0.39397 0.0
C816 C 0.37013 0.17782 0.40341 0.0
C817 C 0.37448 0.18632 0.42849 0.0
C818 C 0.35277 0.21753 0.46108 0.0
C819 C 0.32794 0.20472 0.4534 0.0
C820 C 0.31792 0.21607 0.44034 0.0
C821 C 0.33256 0.24051 0.43509 0.0
C822 C 0.3576 0.25304 0.44171 0.0
C823 C 0.3677 0.24155 0.45462 0.0
C824 C 0.36746 0.23846 0.51218 0.0
C825 C 0.34576 0.2384 0.51383 0.0
C826 C 0.34613 0.25953 0.52326 0.0
C827 C 0.36824 0.2811 0.53121 0.0
C828 C 0.38995 0.28107 0.52938 0.0
C829 C 0.38954 0.2599 0.51999 0.0
C830 C 0.3696 0.20862 0.54822 0.0
C831 C 0.34762 0.20313 0.55764 0.0
C832 C 0.3474 0.21224 0.58147 0.0
C833 C 0.36915 0.22695 0.59618 0.0
C834 C 0.39116 0.23172 0.58721 0.0
C835 C 0.39137 0.22253 0.5632 0.0
C836 C 0.36666 0.16279 0.53352 0.0
C837 C 0.34534 0.1491 0.5453 0.0
C838 C 0.34444 0.13403 0.56336 0.0
C839 C 0.36486 0.13251 0.56992 0.0
C840 C 0.38623 0.14614 0.55815 0.0
C841 C 0.38709 0.16118 0.53991 0.0
C842 C 0.34256 0.14886 0.36742 0.0
C843 C 0.36871 0.30348 0.5416 0.0
H844 H 0.79965 0.15126 0.30573 0.0
H845 H 0.0026 0.31686 0.50616 0.0
H846 H 0.78573 0.16119 0.43717 0.0
H847 H 0.7499 0.12028 0.42474 0.0
H848 H 0.78694 0.08624 0.45589 0.0
H849 H 0.82258 0.12692 0.46823 0.0
H850 H 0.8318 0.2041 0.4045 0.0
H851 H 0.81784 0.18784 0.36125 0.0
H852 H 0.82372 0.12465 0.37495 0.0
H853 H 0.83803 0.14131 0.41801 0.0
H854 H 0.88789 0.24977 0.4277 0.0
H855 H 0.92294 0.26649 0.40243 0.0
H856 H 0.92052 0.19731 0.39963 0.0
H857 H 0.88614 0.18087 0.42523 0.0
H858 H 0.88216 0.26052 0.4872 0.0
H859 H 0.92121 0.29777 0.50005 0.0
H860 H 0.9576 0.25753 0.48541 0.0
H861 H 0.91848 0.22048 0.47255 0.0
H862 H 0.83844 0.22007 0.52336 0.0
H863 H 0.85015 0.23205 0.56797 0.0
H864 H 0.9085 0.21781 0.56168 0.0
H865 H 0.89645 0.20521 0.51738 0.0
H866 H 0.79159 0.16951 0.4971 0.0
H867 H 0.76896 0.14456 0.53034 0.0
H868 H 0.82823 0.13385 0.55008 0.0
H869 H 0.85047 0.15804 0.51657 0.0
O870 O 0.80539 0.15745 0.32285 0.0
O871 O 0.80842 0.12517 0.33096 0.0
O872 O 0.96734 0.32223 0.50875 0.0
O873 O 0.98693 0.30246 0.50105 0.0
C874 C 0.82884 0.17119 0.45972 0.0
C875 C 0.84364 0.18361 0.4408 0.0
C876 C 0.86652 0.20501 0.447 0.0
C877 C 0.87371 0.21516 0.47191 0.0
C878 C 0.85864 0.20293 0.49072 0.0
C879 C 0.83657 0.18056 0.48468 0.0
C880 C 0.80661 0.14689 0.45361 0.0
C881 C 0.78595 0.14488 0.4415 0.0
C882 C 0.76564 0.1217 0.43449 0.0
C883 C 0.76599 0.10045 0.43942 0.0
C884 C 0.78646 0.10252 0.45202 0.0
C885 C 0.80666 0.12562 0.45906 0.0
C886 C 0.83563 0.17375 0.41446 0.0
C887 C 0.83011 0.18678 0.39809 0.0
C888 C 0.82211 0.17742 0.37342 0.0
C889 C 0.81954 0.15487 0.36467 0.0
C890 C 0.82539 0.14201 0.3811 0.0
C891 C 0.83346 0.15142 0.40574 0.0
C892 C 0.88452 0.21413 0.42826 0.0
C893 C 0.8946 0.23809 0.42114 0.0
C894 C 0.91443 0.24755 0.40673 0.0
C895 C 0.92408 0.233 0.39924 0.0
C896 C 0.91308 0.20862 0.40512 0.0
C897 C 0.89349 0.19928 0.41963 0.0
C898 C 0.89754 0.23792 0.47867 0.0
C899 C 0.89862 0.25987 0.48661 0.0
C900 C 0.92093 0.28108 0.49399 0.0
C901 C 0.94255 0.28065 0.49366 0.0
C902 C 0.94133 0.25855 0.48575 0.0
C903 C 0.91903 0.23738 0.4783 0.0
C904 C 0.86686 0.21219 0.5171 0.0
C905 C 0.85386 0.21975 0.53159 0.0
C906 C 0.86044 0.22646 0.55691 0.0
C907 C 0.88014 0.22576 0.56786 0.0
C908 C 0.8933 0.21848 0.55337 0.0
C909 C 0.8866 0.21158 0.52816 0.0
C910 C 0.82273 0.16576 0.50467 0.0
C911 C 0.7996 0.1617 0.50857 0.0
C912 C 0.78678 0.14756 0.5274 0.0
C913 C 0.7971 0.13757 0.54251 0.0
C914 C 0.82013 0.14154 0.53855 0.0
C915 C 0.8328 0.1554 0.51961 0.0
C916 C 0.8108 0.14486 0.33851 0.0
C917 C 0.96629 0.30307 0.50162 0.0
H918 H 0.00446 0.53132 0.4187 0.0
H919 H 0.0143 0.35685 0.21493 0.0
H920 H 0.96554 0.51565 0.28911 0.0
H921 H 0.97184 0.55672 0.30066 0.0
H922 H 0.03865 0.58983 0.2649 0.0
H923 H 0.03246 0.54898 0.25353 0.0
H924 H 0.97139 0.47461 0.32184 0.0
H925 H 0.97904 0.49268 0.36468 0.0
H926 H 0.04729 0.5539 0.34688 0.0
H927 H 0.03961 0.53544 0.30423 0.0
H928 H 0.97382 0.42619 0.29644 0.0
H929 H 0.99121 0.40528 0.31832 0.0
H930 H 0.06161 0.47146 0.32372 0.0
H931 H 0.0445 0.49201 0.30089 0.0
H932 H 0.95483 0.41468 0.24233 0.0
H933 H 0.9541 0.37676 0.22916 0.0
H934 H 0.03245 0.41693 0.23474 0.0
H935 H 0.03289 0.4546 0.24828 0.0
H936 H 0.94923 0.44651 0.20314 0.0
H937 H 0.94518 0.42517 0.16217 0.0
H938 H 0.02242 0.45513 0.16671 0.0
H939 H 0.02646 0.47649 0.20731 0.0
H940 H 0.95433 0.50283 0.22893 0.0
H941 H 0.95144 0.52653 0.19601 0.0
H942 H 0.02057 0.54122 0.17295 0.0
H943 H 0.02373 0.51809 0.20607 0.0
O944 O 0.0019 0.52439 0.40173 0.0
O945 O 0.03668 0.55559 0.39153 0.0
O946 O 0.97377 0.35173 0.21744 0.0
O947 O 0.01404 0.37147 0.22043 0.0
C948 C 0.99576 0.50506 0.26468 0.0
C949 C -0.00027 0.493 0.28379 0.0
C950 C -0.0006 0.47088 0.27794 0.0
C951 C 0.99419 0.46041 0.25315 0.0
C952 C 0.99051 0.47262 0.23413 0.0
C953 C 0.99138 0.49496 0.23983 0.0
C954 C -0.00148 0.52945 0.27044 0.0
C955 C 0.98141 0.53179 0.28365 0.0
C956 C 0.98498 0.55506 0.2902 0.0
C957 C 0.00573 0.57612 0.28365 0.0
C958 C 0.02257 0.57371 0.27007 0.0
C959 C 0.019 0.55051 0.26353 0.0
C960 C 0.00482 0.50382 0.30989 0.0
C961 C 0.98802 0.49187 0.32727 0.0
C962 C 0.99241 0.50227 0.35171 0.0
C963 C 0.01373 0.5248 0.35918 0.0
C964 C 0.03066 0.53658 0.34172 0.0
C965 C 0.02627 0.52612 0.31733 0.0
C966 C 0.00796 0.46049 0.29682 0.0
C967 C 0.99285 0.43637 0.30292 0.0
C968 C 0.00272 0.42451 0.31541 0.0
C969 C 0.02768 0.43684 0.32228 0.0
C970 C 0.04232 0.46174 0.31849 0.0
C971 C 0.03253 0.47344 0.30558 0.0
C972 C 0.9939 0.43724 0.24653 0.0
C973 C 0.9718 0.41514 0.24097 0.0
C974 C 0.97144 0.39356 0.23339 0.0
C975 C 0.99324 0.3938 0.231 0.0
C976 C 0.01535 0.41606 0.23654 0.0
C977 C 0.01567 0.43758 0.24434 0.0
C978 C 0.98812 0.46291 0.20807 0.0
C979 C 0.96528 0.44888 0.19497 0.0
C980 C 0.96298 0.43675 0.17177 0.0
C981 C 0.98353 0.43863 0.16168 0.0
C982 C 0.00644 0.45358 0.17431 0.0
C983 C 0.00873 0.4657 0.19735 0.0
C984 C 0.9891 0.50852 0.21962 0.0
C985 C 0.96878 0.5111 0.21671 0.0
C986 C 0.96714 0.52454 0.19805 0.0
C987 C 0.98576 0.5354 0.18215 0.0
C988 C 0.00602 0.53279 0.18504 0.0
C989 C 0.00774 0.51953 0.20376 0.0
C990 C 0.01822 0.53592 0.38508 0.0
C991 C 0.99299 0.37103 0.22256 0.0
H992 H 0.48878 0.51366 0.40934 0.0
H993 H 0.38098 0.29444 0.21538 0.0
H994 H 0.50049 0.5144 0.28093 0.0
H995 H 0.53137 0.55683 0.29563 0.0
H996 H 0.58763 0.54093 0.28169 0.0
H997 H 0.55656 0.49801 0.26747 0.0
H998 H 0.46262 0.47572 0.30508 0.0
H999 H 0.46755 0.49217 0.34817 0.0
H1000 H 0.53196 0.48775 0.36006 0.0
H1001 H 0.52661 0.47095 0.317 0.0
H1002 H 0.42526 0.4265 0.26433 0.0
H1003 H 0.39377 0.41208 0.2931 0.0
H1004 H 0.44234 0.40972 0.34843 0.0
H1005 H 0.47317 0.42147 0.31839 0.0
H1006 H 0.42905 0.41568 0.21652 0.0
H1007 H 0.39708 0.37397 0.20149 0.0
H1008 H 0.43245 0.34476 0.24529 0.0
H1009 H 0.46462 0.38665 0.25984 0.0
H1010 H 0.46575 0.46294 0.19921 0.0
H1011 H 0.45556 0.45183 0.15463 0.0
H1012 H 0.48051 0.40059 0.15772 0.0
H1013 H 0.49101 0.41196 0.20272 0.0
H1014 H 0.50297 0.50967 0.22843 0.0
H1015 H 0.52325 0.53631 0.19573 0.0
H1016 H 0.55565 0.49331 0.17629 0.0
H1017 H 0.53591 0.46698 0.20969 0.0
O1018 O 0.48712 0.50703 0.39239 0.0
O1019 O 0.52029 0.50468 0.39747 0.0
O1020 O 0.37603 0.32713 0.19877 0.0
O1021 O 0.39347 0.31115 0.22097 0.0
C1022 C 0.5074 0.47736 0.26508 0.0
C1023 C 0.49123 0.46208 0.28176 0.0
C1024 C 0.4717 0.43835 0.27307 0.0
C1025 C 0.46917 0.42958 0.24789 0.0
C1026 C 0.48489 0.44529 0.23113 0.0
C1027 C 0.50391 0.46919 0.23973 0.0
C1028 C 0.52632 0.50306 0.27365 0.0
C1029 C 0.51945 0.51994 0.28133 0.0
C1030 C 0.53698 0.54409 0.28949 0.0
C1031 C 0.5616 0.55177 0.28977 0.0
C1032 C 0.56863 0.53513 0.28159 0.0
C1033 C 0.55101 0.51081 0.27359 0.0
C1034 C 0.49408 0.47184 0.30803 0.0
C1035 C 0.47765 0.47811 0.31709 0.0
C1036 C 0.48057 0.4876 0.34168 0.0
C1037 C 0.50012 0.49121 0.35759 0.0
C1038 C 0.51667 0.48511 0.34833 0.0
C1039 C 0.51366 0.47552 0.32377 0.0
C1040 C 0.45156 0.42492 0.28909 0.0
C1041 C 0.42879 0.42159 0.28212 0.0
C1042 C 0.41093 0.41376 0.2987 0.0
C1043 C 0.41583 0.41013 0.32297 0.0
C1044 C 0.4382 0.41238 0.32975 0.0
C1045 C 0.45575 0.41911 0.31266 0.0
C1046 C 0.44941 0.40423 0.23898 0.0
C1047 C 0.43006 0.40028 0.22261 0.0
C1048 C 0.41171 0.37642 0.21418 0.0
C1049 C 0.41225 0.35601 0.22212 0.0
C1050 C 0.43152 0.36005 0.23874 0.0
C1051 C 0.44991 0.38395 0.24711 0.0
C1052 C 0.4792 0.43832 0.20411 0.0
C1053 C 0.46928 0.44951 0.19028 0.0
C1054 C 0.46348 0.4432 0.16495 0.0
C1055 C 0.46747 0.42557 0.15305 0.0
C1056 C 0.47754 0.41439 0.16672 0.0
C1057 C 0.48339 0.42075 0.19224 0.0
C1058 C 0.51827 0.48662 0.22164 0.0
C1059 C 0.515 0.50641 0.21764 0.0
C1060 C 0.52638 0.52144 0.19895 0.0
C1061 C 0.54087 0.51666 0.18382 0.0
C1062 C 0.54458 0.49722 0.18801 0.0
C1063 C 0.53339 0.48229 0.20694 0.0
C1064 C 0.5032 0.50137 0.38368 0.0
C1065 C 0.39279 0.33061 0.2132 0.0
H1066 H 0.50828 0.96276 0.41575 0.0
H1067 H 0.34598 0.97766 0.19627 0.0
H1068 H 0.54695 0.01579 0.28277 0.0
H1069 H 0.57637 0.00674 0.30245 0.0
H1070 H 0.52291 0.92926 0.29297 0.0
H1071 H 0.4937 0.93823 0.27328 0.0
H1072 H 0.51304 0.00751 0.32351 0.0
H1073 H 0.51638 0.99569 0.36489 0.0
H1074 H 0.45547 0.92257 0.3435 0.0
H1075 H 0.45238 0.93465 0.30215 0.0
H1076 H 0.46313 0.00492 0.32054 0.0
H1077 H 0.42911 0.99623 0.34556 0.0
H1078 H 0.38026 0.93682 0.29138 0.0
H1079 H 0.41446 0.9441 0.2676 0.0
H1080 H 0.44959 0.02251 0.26682 0.0
H1081 H 0.41458 0.0255 0.25311 0.0
H1082 H 0.38834 0.95999 0.203 0.0
H1083 H 0.4232 0.95703 0.21708 0.0
H1084 H 0.479 0.02991 0.21515 0.0
H1085 H 0.46832 0.03133 0.17142 0.0
H1086 H 0.45887 0.95972 0.15386 0.0
H1087 H 0.46876 0.95796 0.19738 0.0
H1088 H 0.52979 0.03206 0.22597 0.0
H1089 H 0.55506 0.03709 0.1915 0.0
H1090 H 0.53333 0.96058 0.18956 0.0
H1091 H 0.50773 0.9554 0.22377 0.0
O1092 O 0.50637 0.96715 0.3994 0.0
O1093 O 0.47447 0.93007 0.38779 0.0
O1094 O 0.37487 0.01133 0.22712 0.0
O1095 O 0.3602 0.97718 0.20176 0.0
C1096 C 0.4993 0.98281 0.26861 0.0
C1097 C 0.48109 0.97903 0.28455 0.0
C1098 C 0.46133 0.98123 0.27609 0.0
C1099 C 0.45995 0.98753 0.25179 0.0
C1100 C 0.47814 0.9912 0.2359 0.0
C1101 C 0.49811 0.98936 0.24448 0.0
C1102 C 0.51828 0.97764 0.27675 0.0
C1103 C 0.54185 -0.00313 0.28444 0.0
C1104 C 0.5585 0.99174 0.29565 0.0
C1105 C 0.5516 0.96737 0.29912 0.0
C1106 C 0.52843 0.94813 0.29035 0.0
C1107 C 0.51187 0.95323 0.27916 0.0
C1108 C 0.48245 0.97195 0.3099 0.0
C1109 C 0.5004 0.98898 0.32784 0.0
C1110 C 0.50224 0.98217 0.35146 0.0
C1111 C 0.48622 0.95817 0.35749 0.0
C1112 C 0.46811 0.9412 0.33946 0.0
C1113 C 0.46626 0.94806 0.31586 0.0
C1114 C 0.4412 0.97538 0.29205 0.0
C1115 C 0.44518 0.98971 0.31436 0.0
C1116 C 0.42583 0.98483 0.32854 0.0
C1117 C 0.40217 0.96612 0.3201 0.0
C1118 C 0.39835 0.95142 0.29812 0.0
C1119 C 0.41778 0.95572 0.28447 0.0
C1120 C 0.43904 0.98969 0.2428 0.0
C1121 C 0.43629 0.00888 0.25282 0.0
C1122 C 0.41629 0.01054 0.24496 0.0
C1123 C 0.39868 0.993 0.2269 0.0
C1124 C 0.40157 0.97382 0.21688 0.0
C1125 C 0.42154 0.97216 0.22479 0.0
C1126 C 0.47468 0.99385 0.20935 0.0
C1127 C 0.47497 0.01473 0.20176 0.0
C1128 C 0.46904 0.0156 0.17694 0.0
C1129 C 0.46304 0.9957 0.15958 0.0
C1130 C 0.46369 0.9753 0.16704 0.0
C1131 C 0.46937 0.97434 0.19178 0.0
C1132 C 0.51705 0.9934 0.22747 0.0
C1133 C 0.53098 0.01654 0.21856 0.0
C1134 C 0.54528 0.0194 0.19893 0.0
C1135 C 0.54591 -0.00082 0.1881 0.0
C1136 C 0.53308 0.97636 0.19786 0.0
C1137 C 0.51868 0.97347 0.21744 0.0
C1138 C 0.48857 0.95086 0.38244 0.0
C1139 C 0.37726 0.9945 0.21865 0.0
H1140 H 0.50294 0.05528 0.66159 0.0
H1141 H 0.66328 0.01189 0.86014 0.0
H1142 H 0.49914 0.05162 0.81203 0.0
H1143 H 0.46474 0.0528 0.7924 0.0
H1144 H 0.43819 0.98098 0.75462 0.0
H1145 H 0.47276 0.97993 0.77409 0.0
H1146 H 0.52766 0.06072 0.76748 0.0
H1147 H 0.51862 0.06542 0.72466 0.0
H1148 H 0.50962 0.9947 0.70173 0.0
H1149 H 0.51866 0.99023 0.74468 0.0
H1150 H 0.57754 0.06917 0.7754 0.0
H1151 H 0.61126 0.08242 0.74877 0.0
H1152 H 0.60088 0.00962 0.74455 0.0
H1153 H 0.56712 0.99633 0.77128 0.0
H1154 H 0.60114 0.06326 0.82151 0.0
H1155 H 0.63986 0.06705 0.83421 0.0
H1156 H 0.60243 0.98957 0.84479 0.0
H1157 H 0.56386 0.98594 0.8316 0.0
H1158 H 0.57273 0.05457 0.86721 0.0
H1159 H 0.58403 0.05254 0.91036 0.0
H1160 H 0.52941 0.97549 0.9052 0.0
H1161 H 0.51839 0.97736 0.86176 0.0
H1162 H 0.52028 0.04793 0.86383 0.0
H1163 H 0.49397 0.04001 0.89787 0.0
H1164 H 0.44744 0.96509 0.86655 0.0
H1165 H 0.4739 0.97299 0.83244 0.0
O1166 O 0.50679 0.05319 0.67834 0.0
O1167 O 0.50315 0.01711 0.66736 0.0
O1168 O 0.66662 0.05052 0.84876 0.0
O1169 O 0.64822 0.01088 0.85498 0.0
C1170 C 0.51132 0.0171 0.80248 0.0
C1171 C 0.52872 0.02209 0.78521 0.0
C1172 C 0.55116 0.02469 0.7928 0.0
C1173 C 0.5562 0.02196 0.81756 0.0
C1174 C 0.53892 0.01727 0.83492 0.0
C1175 C 0.51652 0.01495 0.82735 0.0
C1176 C 0.48834 0.01567 0.79448 0.0
C1177 C 0.48557 0.03589 0.80002 0.0
C1178 C 0.4661 0.03661 0.78876 0.0
C1179 C 0.44913 0.01705 0.77198 0.0
C1180 C 0.45118 0.99623 0.7675 0.0
C1181 C 0.47075 0.99558 0.77864 0.0
C1182 C 0.52365 0.02508 0.75914 0.0
C1183 C 0.52369 0.04626 0.75317 0.0
C1184 C 0.5186 0.04892 0.72869 0.0
C1185 C 0.51332 0.03039 0.70977 0.0
C1186 C 0.51355 0.00928 0.71585 0.0
C1187 C 0.51871 0.00668 0.74034 0.0
C1188 C 0.57002 0.03184 0.77516 0.0
C1189 C 0.58232 0.056 0.76841 0.0
C1190 C 0.60145 0.06354 0.75334 0.0
C1191 C 0.60831 0.04691 0.74482 0.0
C1192 C 0.59559 0.02255 0.75097 0.0
C1193 C 0.5765 0.01503 0.76615 0.0
C1194 C 0.57973 0.02429 0.82543 0.0
C1195 C 0.60137 0.04709 0.82638 0.0
C1196 C 0.62345 0.04922 0.83375 0.0
C1197 C 0.62425 0.02859 0.84048 0.0
C1198 C 0.60247 0.0058 0.83968 0.0
C1199 C 0.58042 0.00368 0.83218 0.0
C1200 C 0.54488 0.01607 0.86133 0.0
C1201 C 0.5632 0.03725 0.87537 0.0
C1202 C 0.56954 0.03614 0.89991 0.0
C1203 C 0.5575 0.01389 0.9108 0.0
C1204 C 0.5388 0.9928 0.89701 0.0
C1205 C 0.53255 0.99387 0.87235 0.0
C1206 C 0.49894 0.01099 0.84582 0.0
C1207 C 0.50422 0.02993 0.86412 0.0
C1208 C 0.48931 0.02543 0.88345 0.0
C1209 C 0.46898 0.00198 0.8846 0.0
C1210 C 0.46313 0.98326 0.86581 0.0
C1211 C 0.47808 0.98777 0.84643 0.0
C1212 C 0.50746 0.03308 0.68386 0.0
C1213 C 0.64767 0.03076 0.84831 0.0
H1214 H 0.96076 0.43956 0.68236 0.0
H1215 H 0.04283 0.66316 0.87683 0.0
H1216 H 0.96768 0.44976 0.82985 0.0
H1217 H 0.9527 0.4077 0.81213 0.0
H1218 H 0.02433 0.42902 0.79136 0.0
H1219 H 0.03954 0.47132 0.80966 0.0
H1220 H 0.96641 0.47125 0.78695 0.0
H1221 H 0.9567 0.45423 0.74363 0.0
H1222 H 0.03275 0.49661 0.73112 0.0
H1223 H 0.04216 0.51351 0.77454 0.0
H1224 H 0.96825 0.51295 0.80145 0.0
H1225 H 0.95497 0.53587 0.77714 0.0
H1226 H 0.02951 0.59071 0.76951 0.0
H1227 H 0.04288 0.56753 0.7938 0.0
H1228 H 0.98168 0.54085 0.85558 0.0
H1229 H 0.98227 0.57885 0.86792 0.0
H1230 H 0.0589 0.6208 0.85784 0.0
H1231 H 0.05799 0.5826 0.84555 0.0
H1232 H 0.98445 0.50459 0.89023 0.0
H1233 H 0.98435 0.5219 0.93167 0.0
H1234 H 0.06019 0.57627 0.93066 0.0
H1235 H 0.06043 0.55848 0.88912 0.0
H1236 H 0.97868 0.46239 0.87355 0.0
H1237 H 0.97865 0.43812 0.90701 0.0
H1238 H 0.05676 0.47702 0.91187 0.0
H1239 H 0.05677 0.50113 0.87785 0.0
O1240 O 0.96497 0.44679 0.69933 0.0
O1241 O 0.00419 0.46945 0.69366 0.0
O1242 O 0.00268 0.62542 0.87692 0.0
O1243 O 0.04209 0.64786 0.87201 0.0
C1244 C 0.01232 0.48921 0.82849 0.0
C1245 C 0.01092 0.50342 0.8102 0.0
C1246 C 0.01384 0.52652 0.81713 0.0
C1247 C 0.01923 0.53595 0.84223 0.0
C1248 C 0.02112 0.52195 0.86047 0.0
C1249 C 0.01758 0.49852 0.85361 0.0
C1250 C 0.00476 0.46335 0.82144 0.0
C1251 C 0.98036 0.44517 0.82237 0.0
C1252 C 0.9718 0.42131 0.81215 0.0
C1253 C 0.98748 0.41545 0.80063 0.0
C1254 C 0.01212 0.43335 0.80044 0.0
C1255 C 0.02075 0.45731 0.81084 0.0
C1256 C 0.00498 0.49348 0.78382 0.0
C1257 C 0.98092 0.47682 0.7748 0.0
C1258 C 0.97544 0.46718 0.75005 0.0
C1259 C 0.99396 0.47401 0.73392 0.0
C1260 C 0.01806 0.49092 0.74306 0.0
C1261 C 0.0235 0.50061 0.76781 0.0
C1262 C 0.00649 0.53855 0.79915 0.0
C1263 C 0.98171 0.5295 0.79389 0.0
C1264 C 0.97415 0.54253 0.78013 0.0
C1265 C 0.9913 0.56479 0.77156 0.0
C1266 C 0.01611 0.57338 0.77585 0.0
C1267 C 0.0237 0.56027 0.78965 0.0
C1268 C 0.0198 0.55908 0.84973 0.0
C1269 C -0.00145 0.55829 0.85608 0.0
C1270 C -0.00105 0.58 0.8631 0.0
C1271 C 0.02065 0.60288 0.86387 0.0
C1272 C 0.0419 0.60351 0.85745 0.0
C1273 C 0.04146 0.58176 0.85043 0.0
C1274 C 0.02252 0.53011 0.88688 0.0
C1275 C 0.00126 0.51965 0.89927 0.0
C1276 C 0.00117 0.52956 0.92278 0.0
C1277 C 0.02226 0.55022 0.93405 0.0
C1278 C 0.04385 0.56015 0.92218 0.0
C1279 C 0.04397 0.55008 0.89862 0.0
C1280 C 0.01771 0.48314 0.87299 0.0
C1281 C 0.99577 0.46531 0.88141 0.0
C1282 C 0.99575 0.45164 0.90054 0.0
C1283 C 0.01768 0.45579 0.91167 0.0
C1284 C 0.0397 0.47357 0.90329 0.0
C1285 C 0.0397 0.48721 0.88399 0.0
C1286 C 0.98812 0.46336 0.70775 0.0
C1287 C 0.02116 0.62599 0.87133 0.0
H1288 H 0.46063 0.49341 0.65117 0.0
H1289 H 0.66189 0.67178 0.84282 0.0
H1290 H 0.44809 0.50261 0.78386 0.0
H1291 H 0.41436 0.46058 0.77097 0.0
H1292 H 0.45658 0.43117 0.80022 0.0
H1293 H 0.49018 0.47298 0.81298 0.0
H1294 H 0.49203 0.54714 0.74956 0.0
H1295 H 0.47789 0.53022 0.70648 0.0
H1296 H 0.48868 0.46997 0.72007 0.0
H1297 H 0.50308 0.48724 0.76294 0.0
H1298 H 0.55066 0.59402 0.76904 0.0
H1299 H 0.58531 0.60833 0.74323 0.0
H1300 H 0.58207 0.53908 0.74654 0.0
H1301 H 0.54845 0.52524 0.77285 0.0
H1302 H 0.54092 0.60585 0.83041 0.0
H1303 H 0.57852 0.64538 0.84067 0.0
H1304 H 0.61997 0.61064 0.82502 0.0
H1305 H 0.58231 0.57125 0.81505 0.0
H1306 H 0.49609 0.55827 0.86893 0.0
H1307 H 0.50521 0.56628 0.91399 0.0
H1308 H 0.57426 0.57206 0.90576 0.0
H1309 H 0.56391 0.56111 0.86135 0.0
H1310 H 0.45545 0.50888 0.84504 0.0
H1311 H 0.43682 0.48173 0.87815 0.0
H1312 H 0.50235 0.48019 0.89264 0.0
H1313 H 0.52084 0.50702 0.85951 0.0
O1314 O 0.46645 0.49988 0.66822 0.0
O1315 O 0.47193 0.46907 0.6763 0.0
O1316 O 0.62464 0.67353 0.84625 0.0
O1317 O 0.64674 0.65644 0.83871 0.0
C1318 C 0.49269 0.51583 0.80501 0.0
C1319 C 0.50646 0.52859 0.78569 0.0
C1320 C 0.52891 0.55062 0.79132 0.0
C1321 C 0.53596 0.56177 0.81594 0.0
C1322 C 0.52166 0.54936 0.83525 0.0
C1323 C 0.50085 0.52571 0.82978 0.0
C1324 C 0.47145 0.49072 0.7994 0.0
C1325 C 0.44986 0.48705 0.78779 0.0
C1326 C 0.43073 0.46323 0.78049 0.0
C1327 C 0.43318 0.44299 0.78466 0.0
C1328 C 0.45447 0.44666 0.79696 0.0
C1329 C 0.47351 0.4704 0.80427 0.0
C1330 C 0.49821 0.51823 0.75948 0.0
C1331 C 0.49133 0.5303 0.74318 0.0
C1332 C 0.48324 0.52058 0.71859 0.0
C1333 C 0.48201 0.49865 0.70987 0.0
C1334 C 0.48928 0.4868 0.72621 0.0
C1335 C 0.49738 0.49656 0.75076 0.0
C1336 C 0.54703 0.55858 0.77271 0.0
C1337 C 0.55719 0.58184 0.76378 0.0
C1338 C 0.57678 0.58992 0.7491 0.0
C1339 C 0.58601 0.57463 0.74309 0.0
C1340 C 0.575 0.55096 0.75092 0.0
C1341 C 0.55579 0.54309 0.76579 0.0
C1342 C 0.55887 0.58575 0.82172 0.0
C1343 C 0.55814 0.60685 0.82914 0.0
C1344 C 0.57964 0.62939 0.83499 0.0
C1345 C 0.60226 0.63118 0.83358 0.0
C1346 C 0.60288 0.60994 0.8262 0.0
C1347 C 0.58139 0.58744 0.82037 0.0
C1348 C 0.52948 0.55947 0.86163 0.0
C1349 C 0.51332 0.56156 0.87682 0.0
C1350 C 0.51851 0.56616 0.90247 0.0
C1351 C 0.54048 0.56993 0.91319 0.0
C1352 C 0.55726 0.56935 0.89784 0.0
C1353 C 0.55156 0.56358 0.87239 0.0
C1354 C 0.48949 0.50996 0.85005 0.0
C1355 C 0.46574 0.5027 0.85541 0.0
C1356 C 0.4552 0.48734 0.87419 0.0
C1357 C 0.46835 0.47915 0.88767 0.0
C1358 C 0.49208 0.48646 0.88236 0.0
C1359 C 0.50257 0.50174 0.86362 0.0
C1360 C 0.47319 0.48824 0.68382 0.0
C1361 C 0.62515 0.65503 0.8399 0.0
H1362 H 0.62677 0.8429 0.74446 0.0
H1363 H 0.66024 0.68037 0.54478 0.0
H1364 H 0.60571 0.83844 0.61176 0.0
H1365 H 0.61432 0.8804 0.62375 0.0
H1366 H 0.68544 0.91045 0.59727 0.0
H1367 H 0.67699 0.86887 0.58555 0.0
H1368 H 0.60539 0.79198 0.6452 0.0
H1369 H 0.60782 0.80747 0.6882 0.0
H1370 H 0.67863 0.87006 0.67948 0.0
H1371 H 0.67615 0.85417 0.63668 0.0
H1372 H 0.61506 0.74493 0.62225 0.0
H1373 H 0.63415 0.72586 0.64465 0.0
H1374 H 0.70108 0.79578 0.65575 0.0
H1375 H 0.68258 0.81448 0.63217 0.0
H1376 H 0.59775 0.7363 0.56524 0.0
H1377 H 0.59844 0.69924 0.55166 0.0
H1378 H 0.67627 0.7392 0.56734 0.0
H1379 H 0.67526 0.7761 0.58086 0.0
H1380 H 0.59727 0.77157 0.52523 0.0
H1381 H 0.59895 0.75524 0.48343 0.0
H1382 H 0.67533 0.7835 0.49905 0.0
H1383 H 0.67369 0.79988 0.54048 0.0
H1384 H 0.59979 0.8251 0.54963 0.0
H1385 H 0.60199 0.85004 0.51559 0.0
H1386 H 0.67499 0.86715 0.5059 0.0
H1387 H 0.67294 0.84264 0.53997 0.0
O1388 O 0.62627 0.837 0.72748 0.0
O1389 O 0.66248 0.86899 0.72192 0.0
O1390 O 0.6194 0.67502 0.54219 0.0
O1391 O 0.65939 0.69463 0.55037 0.0
C1392 C 0.63681 0.82584 0.59208 0.0
C1393 C 0.63846 0.81273 0.61149 0.0
C1394 C 0.63898 0.79101 0.6059 0.0
C1395 C 0.636 0.7815 0.58095 0.0
C1396 C 0.63435 0.79462 0.56169 0.0
C1397 C 0.63503 0.81688 0.56723 0.0
C1398 C 0.6407 0.85073 0.5977 0.0
C1399 C 0.623 0.85413 0.60832 0.0
C1400 C 0.62786 0.8779 0.61508 0.0
C1401 C 0.6505 0.89831 0.61136 0.0
C1402 C 0.66788 0.89485 0.60017 0.0
C1403 C 0.66304 0.87122 0.59345 0.0
C1404 C 0.64043 0.8221 0.63773 0.0
C1405 C 0.62143 0.809 0.65264 0.0
C1406 C 0.62286 0.81792 0.67718 0.0
C1407 C 0.64337 0.84008 0.68725 0.0
C1408 C 0.66253 0.853 0.67229 0.0
C1409 C 0.6611 0.84402 0.64779 0.0
C1410 C 0.64748 0.78103 0.62534 0.0
C1411 C 0.63363 0.75627 0.63008 0.0
C1412 C 0.64447 0.74544 0.64285 0.0
C1413 C 0.66906 0.75944 0.65146 0.0
C1414 C 0.6821 0.78476 0.64914 0.0
C1415 C 0.67147 0.79543 0.63585 0.0
C1416 C 0.6364 0.75868 0.57444 0.0
C1417 C 0.61487 0.73688 0.56601 0.0
C1418 C 0.61534 0.7158 0.55818 0.0
C1419 C 0.63742 0.71623 0.55853 0.0
C1420 C 0.65895 0.73818 0.567 0.0
C1421 C 0.65843 0.75922 0.57488 0.0
C1422 C 0.63532 0.78665 0.53581 0.0
C1423 C 0.61437 0.77449 0.51943 0.0
C1424 C 0.61533 0.76526 0.49574 0.0
C1425 C 0.63726 0.76824 0.48841 0.0
C1426 C 0.65831 0.78113 0.50451 0.0
C1427 C 0.65735 0.79034 0.52805 0.0
C1428 C 0.6361 0.83189 0.54695 0.0
C1429 C 0.61621 0.83426 0.54013 0.0
C1430 C 0.61746 0.84839 0.52085 0.0
C1431 C 0.63862 0.86021 0.50837 0.0
C1432 C 0.65853 0.85801 0.51536 0.0
C1433 C 0.65732 0.844 0.53461 0.0
C1434 C 0.64471 0.84963 0.71323 0.0
C1435 C 0.63809 0.69401 0.54986 0.0
H1436 H 0.1705 0.83377 0.74444 0.0
H1437 H 0.00028 0.66386 0.53314 0.0
H1438 H 0.16982 0.8571 0.61542 0.0
H1439 H 0.20632 0.89591 0.63064 0.0
H1440 H 0.25078 0.8696 0.60062 0.0
H1441 H 0.21392 0.8301 0.58577 0.0
H1442 H 0.13308 0.82192 0.64152 0.0
H1443 H 0.14419 0.8294 0.6861 0.0
H1444 H 0.1936 0.80304 0.67609 0.0
H1445 H 0.18201 0.79526 0.63155 0.0
H1446 H 0.09087 0.79418 0.60227 0.0
H1447 H 0.05721 0.77535 0.62875 0.0
H1448 H 0.0843 0.73066 0.65575 0.0
H1449 H 0.11822 0.74959 0.62899 0.0
H1450 H 0.08451 0.7833 0.54785 0.0
H1451 H 0.04366 0.75038 0.53264 0.0
H1452 H 0.05962 0.69675 0.55868 0.0
H1453 H 0.1006 0.72984 0.57338 0.0
H1454 H 0.12922 0.82343 0.52775 0.0
H1455 H 0.11449 0.81658 0.48396 0.0
H1456 H 0.11293 0.74782 0.47778 0.0
H1457 H 0.12819 0.75489 0.52163 0.0
H1458 H 0.17358 0.86048 0.55954 0.0
H1459 H 0.19591 0.88604 0.52685 0.0
H1460 H 0.20587 0.82804 0.49589 0.0
H1461 H 0.18393 0.80255 0.52899 0.0
O1462 O 0.16629 0.83058 0.72676 0.0
O1463 O 0.19162 0.81709 0.72058 0.0
O1464 O 0.00925 0.7055 0.52532 0.0
O1465 O 0.01642 0.67723 0.53876 0.0
C1466 C 0.16672 0.81785 0.58984 0.0
C1467 C 0.14976 0.80303 0.60623 0.0
C1468 C 0.12633 0.78426 0.59681 0.0
C1469 C 0.12036 0.77895 0.57102 0.0
C1470 C 0.13745 0.79339 0.5546 0.0
C1471 C 0.16057 0.81302 0.56402 0.0
C1472 C 0.18925 0.84065 0.59987 0.0
C1473 C 0.18739 0.85943 0.61254 0.0
C1474 C 0.20813 0.88157 0.62103 0.0
C1475 C 0.23106 0.88542 0.61676 0.0
C1476 C 0.23312 0.86675 0.6041 0.0
C1477 C 0.21223 0.84436 0.59571 0.0
C1478 C 0.15647 0.80769 0.63335 0.0
C1479 C 0.14608 0.8175 0.64902 0.0
C1480 C 0.15257 0.82189 0.67447 0.0
C1481 C 0.16973 0.81674 0.68468 0.0
C1482 C 0.18027 0.80714 0.66885 0.0
C1483 C 0.1737 0.80268 0.64341 0.0
C1484 C 0.10676 0.77304 0.61365 0.0
C1485 C 0.08959 0.78036 0.61393 0.0
C1486 C 0.07055 0.76978 0.62904 0.0
C1487 C 0.06848 0.75178 0.6441 0.0
C1488 C 0.08584 0.74466 0.64424 0.0
C1489 C 0.10501 0.75532 0.62904 0.0
C1490 C 0.09563 0.75892 0.5614 0.0
C1491 C 0.07926 0.76441 0.54996 0.0
C1492 C 0.05588 0.74558 0.54143 0.0
C1493 C 0.04838 0.7209 0.54441 0.0
C1494 C 0.06482 0.71552 0.55603 0.0
C1495 C 0.08823 0.73438 0.56444 0.0
C1496 C 0.13001 0.78977 0.52774 0.0
C1497 C 0.12618 0.80712 0.51685 0.0
C1498 C 0.11771 0.8032 0.492 0.0
C1499 C 0.11283 0.78181 0.47781 0.0
C1500 C 0.11683 0.76451 0.48855 0.0
C1501 C 0.12546 0.76851 0.51343 0.0
C1502 C 0.1773 0.82974 0.54671 0.0
C1503 C 0.18127 0.85357 0.54622 0.0
C1504 C 0.19385 0.86807 0.52757 0.0
C1505 C 0.20242 0.85881 0.50911 0.0
C1506 C 0.19944 0.83542 0.51015 0.0
C1507 C 0.18697 0.82097 0.52893 0.0
C1508 C 0.1766 0.82144 0.71172 0.0
C1509 C 0.0235 0.70083 0.53556 0.0
H1510 H 0.18912 0.33392 0.76162 0.0
H1511 H 0.00819 0.30435 0.55285 0.0
H1512 H 0.21679 0.35918 0.63272 0.0
H1513 H 0.24651 0.35043 0.65206 0.0
H1514 H 0.20463 0.27553 0.61926 0.0
H1515 H 0.17528 0.28439 0.59961 0.0
H1516 H 0.17578 0.36043 0.66332 0.0
H1517 H 0.18372 0.3565 0.70679 0.0
H1518 H 0.15787 0.27941 0.68871 0.0
H1519 H 0.15018 0.28367 0.6453 0.0
H1520 H 0.12707 0.35915 0.63815 0.0
H1521 H 0.09269 0.35078 0.66266 0.0
H1522 H 0.07152 0.27437 0.66014 0.0
H1523 H 0.10587 0.28273 0.63591 0.0
H1524 H 0.12831 0.36526 0.57757 0.0
H1525 H 0.09162 0.36492 0.56309 0.0
H1526 H 0.04865 0.28769 0.5741 0.0
H1527 H 0.08545 0.28829 0.58844 0.0
H1528 H 0.16903 0.3647 0.54417 0.0
H1529 H 0.15752 0.36281 0.49989 0.0
H1530 H 0.10026 0.28742 0.50179 0.0
H1531 H 0.11183 0.28922 0.54582 0.0
H1532 H 0.2138 0.36509 0.57534 0.0
H1533 H 0.23751 0.36874 0.53965 0.0
H1534 H 0.18288 0.29528 0.51039 0.0
H1535 H 0.15957 0.29136 0.54633 0.0
O1536 O 0.18569 0.33503 0.74439 0.0
O1537 O 0.1724 0.29554 0.73408 0.0
O1538 O 0.046 0.34444 0.55199 0.0
O1539 O 0.02299 0.305 0.55837 0.0
C1540 C 0.17376 0.32589 0.60723 0.0
C1541 C 0.15786 0.32489 0.62494 0.0
C1542 C 0.13691 0.32537 0.61749 0.0
C1543 C 0.13186 0.32703 0.5924 0.0
C1544 C 0.1477 0.32793 0.57474 0.0
C1545 C 0.1687 0.32743 0.58214 0.0
C1546 C 0.19402 0.3224 0.61479 0.0
C1547 C 0.21448 0.34112 0.62914 0.0
C1548 C 0.23131 0.33615 0.64014 0.0
C1549 C 0.22752 0.31231 0.63713 0.0
C1550 C 0.20774 0.29399 0.62172 0.0
C1551 C 0.19113 0.29905 0.61048 0.0
C1552 C 0.1626 0.32238 0.65124 0.0
C1553 C 0.17189 0.34274 0.66883 0.0
C1554 C 0.17638 0.34042 0.69362 0.0
C1555 C 0.17148 0.31765 0.70122 0.0
C1556 C 0.16187 0.29721 0.68348 0.0
C1557 C 0.15755 0.2996 0.65869 0.0
C1558 C 0.11886 0.32153 0.63538 0.0
C1559 C 0.11536 0.34077 0.64348 0.0
C1560 C 0.0959 0.33604 0.65741 0.0
C1561 C 0.07977 0.312 0.66311 0.0
C1562 C 0.08397 0.29302 0.656 0.0
C1563 C 0.10348 0.29779 0.64226 0.0
C1564 C 0.10947 0.32689 0.58431 0.0
C1565 C 0.11092 0.34834 0.57694 0.0
C1566 C 0.08996 0.34806 0.56864 0.0
C1567 C 0.06717 0.32628 0.56752 0.0
C1568 C 0.06587 0.30478 0.57479 0.0
C1569 C 0.08684 0.3051 0.58314 0.0
C1570 C 0.14107 0.32717 0.54814 0.0
C1571 C 0.15406 0.3478 0.53497 0.0
C1572 C 0.1476 0.3467 0.50985 0.0
C1573 C 0.12814 0.32495 0.4978 0.0
C1574 C 0.11536 0.30428 0.51091 0.0
C1575 C 0.12182 0.30537 0.53593 0.0
C1576 C 0.18495 0.32802 0.56328 0.0
C1577 C 0.20731 0.34957 0.56157 0.0
C1578 C 0.22069 0.3517 0.54124 0.0
C1579 C 0.21169 0.33235 0.52243 0.0
C1580 C 0.18994 0.31038 0.52475 0.0
C1581 C 0.17675 0.30814 0.54519 0.0
C1582 C 0.1765 0.3153 0.72751 0.0
C1583 C 0.04482 0.32589 0.5588 0.0
C1584 C 0.98286 0.41897 0.09403 0.0
C1585 C 0.98499 0.39805 0.09672 0.0
C1586 C 0.98013 0.40078 0.14106 0.0
C1587 C 0.98125 0.42347 0.13887 0.0
N1588 N 0.98492 0.45523 0.11408 0.0
N1589 N 0.98802 0.3701 0.12282 0.0
C1590 C 0.98278 0.4328 0.11553 0.0
C1591 C 0.98395 0.38902 0.1202 0.0
N1592 N 0.98027 0.42515 0.07088 0.0
N1593 N 0.97534 0.39052 0.16312 0.0
H1594 H 0.9909 0.36094 0.10801 0.0
H1595 H 0.99042 0.36465 0.13989 0.0
H1596 H 0.97282 0.39887 0.1789 0.0
H1597 H 0.97183 0.37286 0.16531 0.0
H1598 H 0.97632 0.43875 0.06755 0.0
H1599 H 0.97998 0.41521 0.05474 0.0
H1600 H 0.98899 0.46444 0.09812 0.0
H1601 H 0.98397 0.46538 0.12935 0.0
C1602 C 0.54692 0.53694 0.11881 0.0
C1603 C 0.56771 0.56085 0.12301 0.0
C1604 C 0.57302 0.55406 0.16618 0.0
C1605 C 0.55084 0.53126 0.16257 0.0
N1606 N 0.51492 0.50197 0.13671 0.0
N1607 N 0.59916 0.59368 0.15098 0.0
C1608 C 0.53732 0.5229 0.1392 0.0
C1609 C 0.58054 0.5698 0.14674 0.0
N1610 N 0.53683 0.52739 0.09522 0.0
N1611 N 0.58691 0.56052 0.18812 0.0
H1612 H 0.60522 0.60579 0.13721 0.0
H1613 H 0.60746 0.60212 0.16848 0.0
H1614 H 0.58163 0.54961 0.20292 0.0
H1615 H 0.60443 0.57567 0.19105 0.0
H1616 H 0.52329 0.50911 0.09067 0.0
H1617 H 0.54347 0.53714 0.07978 0.0
H1618 H 0.50295 0.49655 0.12099 0.0
H1619 H 0.5075 0.49078 0.15105 0.0
C1620 C 0.41917 0.97293 0.10259 0.0
C1621 C 0.4344 0.98742 0.08471 0.0
C1622 C 0.46887 0.00811 0.11606 0.0
C1623 C 0.45321 0.99455 0.13413 0.0
N1624 N 0.41267 0.9685 0.14603 0.0
N1625 N 0.47263 0.02094 0.07439 0.0
C1626 C 0.4281 0.97826 0.1278 0.0
C1627 C 0.45894 0.00576 0.09146 0.0
N1628 N 0.39629 0.95374 0.09544 0.0
N1629 N 0.49323 0.02257 0.12226 0.0
H1630 H 0.46616 0.01901 0.05597 0.0
H1631 H 0.48981 0.03634 0.07873 0.0
H1632 H 0.50098 0.02516 0.14025 0.0
H1633 H 0.50598 0.03076 0.10942 0.0
H1634 H 0.38537 0.94089 0.10726 0.0
H1635 H 0.38883 0.94933 0.07716 0.0
H1636 H 0.39388 0.95865 0.14278 0.0
H1637 H 0.41853 0.97225 0.16481 0.0
C1638 C 0.44694 0.98359 0.94808 0.0
C1639 C 0.4311 0.99283 0.94979 0.0
C1640 C 0.4367 0.00366 0.90705 0.0
C1641 C 0.45456 -0.00304 0.90629 0.0
N1642 N 0.4781 0.98191 0.9259 0.0
N1643 N 0.41177 0.01315 0.93226 0.0
C1644 C 0.45996 0.98711 0.9267 0.0
C1645 C 0.42606 0.00313 0.92958 0.0
N1646 N 0.44918 0.97117 0.96675 0.0
N1647 N 0.42972 0.01014 0.88609 0.0
H1648 H 0.40307 0.01244 0.94826 0.0
H1649 H 0.40968 0.02352 0.91933 0.0
H1650 H 0.43738 0.01094 0.86934 0.0
H1651 H 0.4151 0.01284 0.88464 0.0
H1652 H 0.4585 0.96181 0.96567 0.0
H1653 H 0.44012 0.96864 0.98283 0.0
H1654 H 0.48481 0.97728 0.94107 0.0
H1655 H 0.48762 0.98364 0.91031 0.0
C1656 C 0.0069 0.40226 0.94757 0.0
C1657 C 0.0076 0.41198 0.972 0.0
C1658 C 0.01796 0.45161 0.95721 0.0
C1659 C 0.0172 0.44189 0.93278 0.0
N1660 N 0.01614 0.41034 0.90499 0.0
N1661 N 0.01904 0.44689 0.00119 0.0
C1662 C 0.01344 0.41796 0.92809 0.0
C1663 C 0.01483 0.43703 0.97716 0.0
N1664 N -0.00129 0.37777 0.94279 0.0
N1665 N 0.02066 0.47438 0.96117 0.0
H1666 H 0.01701 0.43664 0.01621 0.0
H1667 H 0.02655 0.46556 0.00633 0.0
H1668 H 0.02379 0.48592 0.94712 0.0
H1669 H 0.01842 0.48133 0.97805 0.0
H1670 H 0.99496 0.36892 0.92504 0.0
H1671 H 0.99414 0.36578 0.95663 0.0
H1672 H 0.01597 0.39405 0.90085 0.0
H1673 H 0.02057 0.42134 0.89027 0.0
C1674 C 0.56271 0.56268 0.97561 0.0
C1675 C 0.56179 0.58093 0.99126 0.0
C1676 C 0.54654 0.59229 0.95546 0.0
C1677 C 0.54546 0.57263 0.94053 0.0
N1678 N 0.5442 0.53393 0.9392 0.0
N1679 N 0.54481 0.60702 -0.00309 0.0
C1680 C 0.5507 0.55604 0.95158 0.0
C1681 C 0.55116 0.59385 0.98147 0.0
N1682 N 0.57651 0.553 0.9825 0.0
N1683 N 0.54435 0.61013 0.94494 0.0
H1684 H 0.54624 0.60715 0.01613 0.0
H1685 H 0.53533 0.61517 0.99056 0.0
H1686 H 0.54193 0.6103 0.92588 0.0
H1687 H 0.54735 0.62602 0.95509 0.0
H1688 H 0.57903 0.54123 0.97047 0.0
H1689 H 0.58794 0.55893 -0.00132 0.0
H1690 H 0.54596 0.52046 0.94746 0.0
H1691 H 0.53457 0.52807 0.92182 0.0
C1692 C 0.00864 0.5905 0.97638 0.0
C1693 C 0.0075 0.57997 -0.00096 0.0
C1694 C 0.02238 0.55463 0.98011 0.0
C1695 C 0.02055 0.56288 0.95692 0.0
N1696 N 0.01181 0.58804 0.93204 0.0
N1697 N 0.01415 0.55315 0.02346 0.0
C1698 C 0.01406 0.58098 0.95486 0.0
C1699 C 0.01481 0.56246 0.00123 0.0
N1700 N 0.00421 0.60934 0.97531 0.0
N1701 N 0.03153 0.53946 0.98177 0.0
H1702 H 0.01051 0.55985 0.03971 0.0
H1703 H 0.01653 0.53838 0.02591 0.0
H1704 H 0.03712 0.53346 0.9665 0.0
H1705 H 0.03518 0.53404 -0.0017 0.0
H1706 H 0.00756 0.61973 0.96027 0.0
H1707 H -0.00145 0.61584 0.99006 0.0
H1708 H 0.00406 0.59857 0.92854 0.0
H1709 H 0.01664 0.58231 0.91601 0.0
C1710 C 0.45391 0.45577 0.95118 0.0
C1711 C 0.43556 0.43098 0.94443 0.0
C1712 C 0.44051 0.43719 0.90052 0.0
C1713 C 0.45717 0.46254 0.90724 0.0
N1714 N 0.47813 0.49691 0.93836 0.0
N1715 N 0.4094 0.39817 0.9133 0.0
C1716 C 0.46354 0.47211 0.93244 0.0
C1717 C 0.42834 0.42165 0.91925 0.0
N1718 N 0.46239 0.46348 0.97547 0.0
N1719 N 0.43687 0.42791 0.87631 0.0
H1720 H 0.40058 0.38598 0.92655 0.0
H1721 H 0.40136 0.39119 0.8954 0.0
H1722 H 0.44533 0.4388 0.86203 0.0
H1723 H 0.42693 0.40922 0.87051 0.0
H1724 H 0.47744 0.4806 0.98141 0.0
H1725 H 0.45555 0.45196 0.98968 0.0
H1726 H 0.48148 0.50537 0.95625 0.0
H1727 H 0.48563 0.50944 0.9251 0.0
C1728 C 0.56117 0.01357 0.98099 0.0
C1729 C 0.58321 0.01384 0.98509 0.0
C1730 C 0.58599 0.01015 0.9403 0.0
C1731 C 0.56547 0.0126 0.93635 0.0
N1732 N 0.53499 0.01958 0.95257 0.0
N1733 N 0.61889 0.0166 0.96896 0.0
C1734 C 0.55338 0.01505 0.9566 0.0
C1735 C 0.59619 0.01308 0.96483 0.0
N1736 N 0.54738 0.0112 0.00032 0.0
N1737 N 0.59561 0.00479 0.92058 0.0
H1738 H 0.62736 0.01934 0.98661 0.0
H1739 H 0.6303 0.01905 0.95496 0.0
H1740 H 0.58891 0.00295 0.90227 0.0
H1741 H 0.60887 0.0001 0.92243 0.0
H1742 H 0.52997 0.00836 -0.00183 0.0
H1743 H 0.5525 0.00991 0.01838 0.0
H1744 H 0.52713 0.02414 0.96671 0.0
H1745 H 0.52867 0.02052 0.93491 0.0
C1746 C 0.5921 0.00382 0.14381 0.0
C1747 C 0.5812 0.00503 0.12106 0.0
C1748 C 0.54631 0.00024 0.14211 0.0
C1749 C 0.55824 0.00137 0.16511 0.0
N1750 N 0.59385 0.00788 0.18867 0.0
N1751 N 0.5502 0.00904 0.09921 0.0
C1752 C 0.58159 0.00429 0.16621 0.0
C1753 C 0.55889 0.00448 0.12037 0.0
N1754 N 0.61172 0.00089 0.14392 0.0
N1755 N 0.52269 0.99438 0.1409 0.0
H1756 H 0.55916 0.01276 0.08301 0.0
H1757 H 0.53537 0.01145 0.09839 0.0
H1758 H 0.51296 0.9916 0.15649 0.0
H1759 H 0.51214 0.99023 0.12429 0.0
H1760 H 0.61875 -0.00282 0.15956 0.0
H1761 H 0.61971 -0.0001 0.12792 0.0
H1762 H 0.61198 0.01283 0.19071 0.0
H1763 H 0.58647 0.00784 0.20544 0.0
C1764 C 0.97846 0.55343 0.11845 0.0
C1765 C 0.98551 0.57837 0.12427 0.0
C1766 C 0.99259 0.57514 0.16813 0.0
C1767 C 0.98439 0.54988 0.16249 0.0
N1768 N 0.96585 0.51373 0.13346 0.0
N1769 N 0.99544 0.61215 0.15446 0.0
C1770 C 0.97614 0.53862 0.13797 0.0
C1771 C 0.99134 0.58897 0.14911 0.0
N1772 N 0.97487 0.5442 0.09425 0.0
N1773 N 0.00248 0.58611 0.19143 0.0
H1774 H 0.99508 0.62292 0.14086 0.0
H1775 H -0.00269 0.61999 0.1724 0.0
H1776 H 0.00346 0.57649 0.2059 0.0
H1777 H 0.01133 0.60501 0.19603 0.0
H1778 H 0.97245 0.52707 0.08871 0.0
H1779 H 0.976 0.55438 0.07946 0.0
H1780 H 0.95721 0.50401 0.11647 0.0
H1781 H 0.96426 0.50239 0.1473 0.0
C1782 C 0.46651 0.42648 0.08313 0.0
C1783 C 0.44109 0.41259 0.07709 0.0
C1784 C 0.4346 0.40131 0.11967 0.0
C1785 C 0.45948 0.41813 0.12644 0.0
N1786 N 0.49952 0.44706 0.11545 0.0
N1787 N 0.40045 0.38892 0.09007 0.0
C1788 C 0.47565 0.43063 0.10834 0.0
C1789 C 0.42497 0.40022 0.09537 0.0
N1790 N 0.48179 0.43533 0.06467 0.0
N1791 N 0.42018 0.38652 0.13661 0.0
H1792 H 0.39241 0.38793 0.07267 0.0
H1793 H 0.38801 0.38229 0.10344 0.0
H1794 H 0.42668 0.38712 0.15471 0.0
H1795 H 0.40244 0.37213 0.13214 0.0
H1796 H 0.50054 0.44373 0.06748 0.0
H1797 H 0.47554 0.43244 0.04604 0.0
H1798 H 0.51175 0.45897 0.10376 0.0
H1799 H 0.50691 0.44968 0.13361 0.0
C1800 C 0.64435 0.75768 0.42035 0.0
C1801 C 0.64651 0.73658 0.42097 0.0
C1802 C 0.63759 0.73376 0.46446 0.0
C1803 C 0.63822 0.7564 0.46458 0.0
N1804 N 0.6441 0.79128 0.44377 0.0
N1805 N 0.64861 0.70634 0.44417 0.0
C1806 C 0.64201 0.76871 0.44279 0.0
C1807 C 0.64384 0.72494 0.44312 0.0
N1808 N 0.64384 0.76669 0.39822 0.0
N1809 N 0.63083 0.72065 0.48475 0.0
H1810 H 0.65354 0.69945 0.42905 0.0
H1811 H 0.64975 0.6991 0.46053 0.0
H1812 H 0.62644 0.72674 0.50088 0.0
H1813 H 0.62755 0.70283 0.4849 0.0
H1814 H 0.63988 0.78048 0.39616 0.0
H1815 H 0.64542 0.75896 0.38142 0.0
H1816 H 0.6496 0.80251 0.42928 0.0
H1817 H 0.6418 0.79955 0.45976 0.0
C1818 C 0.24412 0.90853 0.46946 0.0
C1819 C 0.22929 0.90106 0.44685 0.0
C1820 C 0.19689 0.86613 0.46525 0.0
C1821 C 0.21222 0.87266 0.48732 0.0
N1822 N 0.25159 0.89731 0.5094 0.0
N1823 N 0.19405 0.86993 0.42135 0.0
C1824 C 0.23627 0.893 0.48908 0.0
C1825 C 0.20639 0.87899 0.44419 0.0
N1826 N 0.26503 0.931 0.47265 0.0
N1827 N 0.17294 0.84835 0.46472 0.0
H1828 H 0.20068 0.87865 0.40535 0.0
H1829 H 0.17847 0.85261 0.41788 0.0
H1830 H 0.16526 0.83826 0.47969 0.0
H1831 H 0.16027 0.84501 0.45019 0.0
H1832 H 0.27516 0.93862 0.48959 0.0
H1833 H 0.27135 0.94301 0.45882 0.0
H1834 H 0.27005 0.91031 0.5107 0.0
H1835 H 0.24623 0.88645 0.52425 0.0
C1836 C 0.12507 0.32056 0.42743 0.0
C1837 C 0.10267 0.31925 0.42205 0.0
C1838 C 0.09917 0.32538 0.46629 0.0
C1839 C 0.1201 0.32399 0.47168 0.0
N1840 N 0.15098 0.31635 0.45789 0.0
N1841 N 0.06582 0.31519 0.43649 0.0
C1842 C 0.13256 0.32052 0.45239 0.0
C1843 C 0.08902 0.32034 0.4415 0.0
N1844 N 0.13953 0.32267 0.40883 0.0
N1845 N 0.08916 0.33186 0.48482 0.0
H1846 H 0.05722 0.31058 0.41868 0.0
H1847 H 0.05418 0.31304 0.45018 0.0
H1848 H 0.09598 0.33551 0.50332 0.0
H1849 H 0.07547 0.33574 0.48157 0.0
H1850 H 0.15714 0.32621 0.41197 0.0
H1851 H 0.13477 0.32311 0.39037 0.0
H1852 H 0.15915 0.31124 0.44454 0.0
H1853 H 0.1568 0.31603 0.476 0.0
C1854 C 0.09898 0.3393 0.2661 0.0
C1855 C 0.10363 0.32831 0.28593 0.0
C1856 C 0.12981 0.31964 0.26126 0.0
C1857 C 0.12452 0.32991 0.24114 0.0
N1858 N 0.10126 0.34563 0.22242 0.0
N1859 N 0.12011 0.30483 0.30189 0.0
C1860 C 0.10826 0.33862 0.24298 0.0
C1861 C 0.11805 0.31749 0.28335 0.0
N1862 N 0.08619 0.35088 0.26963 0.0
N1863 N 0.14663 0.31268 0.25944 0.0
H1864 H 0.11221 0.30348 0.31859 0.0
H1865 H 0.12819 0.29428 0.30024 0.0
H1866 H 0.15524 0.31349 0.24336 0.0
H1867 H 0.1533 0.30756 0.27424 0.0
H1868 H 0.08455 0.36171 0.25695 0.0
H1869 H 0.07837 0.35099 0.28606 0.0
H1870 H 0.08758 0.34978 0.2218 0.0
H1871 H 0.10784 0.34545 0.2052 0.0
C1872 C 0.67995 0.74283 0.27139 0.0
C1873 C 0.67701 0.75236 0.29445 0.0
C1874 C 0.68648 0.79068 0.27705 0.0
C1875 C 0.69022 0.78152 0.25424 0.0
N1876 N 0.69529 0.7513 0.23078 0.0
N1877 N 0.68292 0.78701 0.32106 0.0
C1878 C 0.68853 0.75834 0.25179 0.0
C1879 C 0.682 0.77685 0.29783 0.0
N1880 N 0.67328 0.71863 0.26779 0.0
N1881 N 0.68603 0.81201 0.27856 0.0
H1882 H 0.67996 0.77743 0.33675 0.0
H1883 H 0.68885 0.80555 0.32511 0.0
H1884 H 0.68943 0.82288 0.26385 0.0
H1885 H 0.68043 0.81799 0.29378 0.0
H1886 H 0.6723 0.70988 0.25059 0.0
H1887 H 0.667 0.70669 0.28169 0.0
H1888 H 0.69676 0.73574 0.2288 0.0
H1889 H 0.70143 0.7622 0.21602 0.0
C1890 C 0.20662 0.89355 0.30743 0.0
C1891 C 0.21803 0.91827 0.31804 0.0
C1892 C 0.21502 0.93213 0.27779 0.0
C1893 C 0.20632 0.9081 0.26658 0.0
N1894 N 0.1881 0.86469 0.27051 0.0
N1895 N 0.21846 0.95629 0.31539 0.0
C1896 C 0.20025 0.88831 0.2814 0.0
C1897 C 0.21772 0.93619 0.30392 0.0
N1898 N 0.20127 0.87522 0.32247 0.0
N1899 N 0.22162 0.9513 0.26359 0.0
H1900 H 0.21683 0.95797 0.33433 0.0
H1901 H 0.2167 0.96909 0.30578 0.0
H1902 H 0.22008 0.94921 0.24429 0.0
H1903 H 0.23052 0.96957 0.27105 0.0
H1904 H 0.19543 0.85712 0.31625 0.0
H1905 H 0.20183 0.87813 0.34166 0.0
H1906 H 0.18202 0.84913 0.28004 0.0
H1907 H 0.18284 0.86039 0.25161 0.0
C1908 C 0.67801 0.92069 0.30054 0.0
C1909 C 0.67673 0.90937 0.3227 0.0
C1910 C 0.69414 0.88663 0.30326 0.0
C1911 C 0.69262 0.89567 0.28046 0.0
N1912 N 0.68222 0.92017 0.25638 0.0
N1913 N 0.68353 0.88188 0.34584 0.0
C1914 C 0.68465 0.91269 0.27889 0.0
C1915 C 0.68491 0.89249 0.32429 0.0
N1916 N 0.67261 0.93888 0.30006 0.0
N1917 N 0.70477 0.87277 0.30474 0.0
H1918 H 0.67854 0.88707 0.3621 0.0
H1919 H 0.68641 0.86733 0.34752 0.0
H1920 H 0.71171 0.86832 0.28957 0.0
H1921 H 0.7084 0.86716 0.32115 0.0
H1922 H 0.67611 0.94993 0.28554 0.0
H1923 H 0.666 0.94422 0.31483 0.0
H1924 H 0.67346 0.92982 0.2532 0.0
H1925 H 0.68775 0.91549 0.24024 0.0
C1926 C 0.08191 0.76041 0.24679 0.0
C1927 C 0.08372 0.77191 0.27061 0.0
C1928 C 0.1117 0.81238 0.25706 0.0
C1929 C 0.10905 0.80099 0.23295 0.0
N1930 N 0.0899 0.76511 0.20353 0.0
N1931 N 0.09766 0.80844 0.29831 0.0
C1932 C 0.0936 0.77524 0.22741 0.0
C1933 C 0.09788 0.79781 0.27573 0.0
N1934 N 0.06958 0.7353 0.24298 0.0
N1935 N 0.12788 0.83702 0.26215 0.0
H1936 H 0.08836 0.79826 0.31269 0.0
H1937 H 0.1054 0.82728 0.30244 0.0
H1938 H 0.13747 0.84846 0.24864 0.0
H1939 H 0.13292 0.84601 0.27991 0.0
H1940 H 0.0697 0.72563 0.2269 0.0
H1941 H 0.06034 0.72388 0.25664 0.0
H1942 H 0.07695 0.74694 0.19767 0.0
H1943 H 0.09877 0.77532 0.18899 0.0
C1944 C 0.22675 0.34593 0.31231 0.0
C1945 C 0.24825 0.34536 0.31726 0.0
C1946 C 0.25113 0.3395 0.27275 0.0
C1947 C 0.23114 0.34263 0.26784 0.0
N1948 N 0.20183 0.35225 0.28248 0.0
N1949 N 0.28349 0.34616 0.30232 0.0
C1950 C 0.21942 0.34677 0.2875 0.0
C1951 C 0.2611 0.34322 0.29752 0.0
N1952 N 0.21296 0.3449 0.33122 0.0
N1953 N 0.26044 0.33273 0.25374 0.0
H1954 H 0.29186 0.34958 0.32013 0.0
H1955 H 0.29483 0.34754 0.28856 0.0
H1956 H 0.25395 0.33033 0.23526 0.0
H1957 H 0.27321 0.32749 0.25644 0.0
H1958 H 0.19583 0.34268 0.32848 0.0
H1959 H 0.2177 0.34407 0.34958 0.0
H1960 H 0.19436 0.35797 0.29607 0.0
H1961 H 0.19592 0.35285 0.2645 0.0
C1962 C 0.22765 0.34475 0.45619 0.0
C1963 C 0.24529 0.33781 0.45448 0.0
C1964 C 0.24101 0.32729 0.49748 0.0
C1965 C 0.22428 0.33539 0.49952 0.0
N1966 N 0.20452 0.35562 0.48276 0.0
N1967 N 0.27118 0.32526 0.47375 0.0
C1968 C 0.21844 0.34526 0.47942 0.0
C1969 C 0.25276 0.32998 0.47526 0.0
N1970 N 0.21942 0.35045 0.43549 0.0
N1971 N 0.24515 0.31645 0.51658 0.0
H1972 H 0.27948 0.32589 0.45749 0.0
H1973 H 0.27934 0.32215 0.4889 0.0
H1974 H 0.2376 0.31509 0.53349 0.0
H1975 H 0.25486 0.30749 0.51533 0.0
H1976 H 0.20456 0.35279 0.43479 0.0
H1977 H 0.22648 0.35126 0.41837 0.0
H1978 H 0.2017 0.36547 0.46973 0.0
H1979 H 0.19702 0.35586 0.49936 0.0
C1980 C 0.64208 0.87975 0.44334 0.0
C1981 C 0.64726 0.90418 0.44843 0.0
C1982 C 0.64638 0.89973 0.49289 0.0
C1983 C 0.64014 0.87495 0.48774 0.0
N1984 N 0.62811 0.83986 0.45852 0.0
N1985 N 0.65077 0.93656 0.47698 0.0
C1986 C 0.6368 0.86449 0.46305 0.0
C1987 C 0.64826 0.91389 0.47291 0.0
N1988 N 0.64277 0.87139 0.41976 0.0
N1989 N 0.65143 0.90993 0.51686 0.0
H1990 H 0.65292 0.94775 0.46281 0.0
H1991 H 0.64902 0.94362 0.49404 0.0
H1992 H 0.64985 0.89998 0.532 0.0
H1993 H 0.65877 0.92861 0.52181 0.0
H1994 H 0.64193 0.85481 0.41527 0.0
H1995 H 0.64576 0.88178 0.4047 0.0
H1996 H 0.62298 0.83054 0.44091 0.0
H1997 H 0.6242 0.82818 0.47259 0.0
C1998 C 0.10723 0.78199 0.40783 0.0
C1999 C 0.08169 0.76904 0.40311 0.0
C2000 C 0.07662 0.7656 0.44747 0.0
C2001 C 0.10212 0.77695 0.452 0.0
N2002 N 0.14167 0.79317 0.4369 0.0
N2003 N 0.04166 0.7464 0.4174 0.0
C2004 C 0.11746 0.78442 0.43228 0.0
C2005 C 0.06625 0.76029 0.42267 0.0
N2006 N 0.12164 0.79224 0.38898 0.0
N2007 N 0.06241 0.76027 0.46694 0.0
H2008 H 0.03332 0.7431 0.39958 0.0
H2009 H 0.0295 0.73695 0.43035 0.0
H2010 H 0.06919 0.76282 0.48534 0.0
H2011 H 0.04412 0.75468 0.46516 0.0
H2012 H 0.14032 0.8041 0.39156 0.0
H2013 H 0.11465 0.79036 0.37078 0.0
H2014 H 0.15351 0.79666 0.42312 0.0
H2015 H 0.14978 0.7954 0.45464 0.0
C2016 C 0.316 0.05488 0.77397 0.0
C2017 C 0.31851 0.06592 0.75144 0.0
C2018 C 0.31385 0.09842 0.77216 0.0
C2019 C 0.31071 0.08698 0.79447 0.0
N2020 N 0.3038 0.05208 0.81591 0.0
N2021 N 0.31502 0.09491 0.72755 0.0
C2022 C 0.3101 0.06441 0.79509 0.0
C2023 C 0.316 0.08675 0.75007 0.0
N2024 N 0.32064 0.03624 0.77558 0.0
N2025 N 0.31557 0.12078 0.77232 0.0
H2026 H 0.31634 0.08663 0.71099 0.0
H2027 H 0.31085 0.10848 0.72497 0.0
H2028 H 0.31322 0.12941 0.78801 0.0
H2029 H 0.3207 0.13148 0.75741 0.0
H2030 H 0.32197 0.02946 0.79219 0.0
H2031 H 0.3251 0.02872 0.7606 0.0
H2032 H 0.3006 0.03434 0.81672 0.0
H2033 H 0.29971 0.05874 0.83187 0.0
C2034 C 0.87886 0.19634 0.77491 0.0
C2035 C 0.89931 0.22052 0.77842 0.0
C2036 C 0.9058 0.21473 0.82167 0.0
C2037 C 0.88355 0.19201 0.81892 0.0
N2038 N 0.84721 0.16215 0.79397 0.0
N2039 N 0.93067 0.25421 0.80586 0.0
C2040 C 0.86965 0.18297 0.79578 0.0
C2041 C 0.91259 0.23008 0.80193 0.0
N2042 N 0.86866 0.18592 0.75155 0.0
N2043 N 0.92037 0.2216 0.84317 0.0
H2044 H 0.93604 0.26629 0.79208 0.0
H2045 H 0.93905 0.26289 0.82328 0.0
H2046 H 0.91566 0.21092 0.85816 0.0
H2047 H 0.93795 0.23674 0.84539 0.0
H2048 H 0.85526 0.16749 0.74764 0.0
H2049 H 0.87524 0.19507 0.73575 0.0
H2050 H 0.835 0.15642 0.77839 0.0
H2051 H 0.84006 0.15144 0.8087 0.0
C2052 C 0.75026 0.65612 0.7747 0.0
C2053 C 0.76545 0.66235 0.75483 0.0
C2054 C 0.80064 0.67359 0.78352 0.0
C2055 C 0.78534 0.667 0.80327 0.0
N2056 N 0.74711 0.65668 0.81908 0.0
N2057 N 0.80516 0.68043 0.73991 0.0
C2058 C 0.76061 0.65981 0.79928 0.0
C2059 C 0.79074 0.67216 0.75913 0.0
N2060 N 0.72575 0.64555 0.76992 0.0
N2061 N 0.82449 0.68078 0.78818 0.0
H2062 H 0.79828 0.6795 0.72189 0.0
H2063 H 0.82398 0.68955 0.74182 0.0
H2064 H 0.83246 0.68322 0.80603 0.0
H2065 H 0.83633 0.68366 0.77455 0.0
H2066 H 0.7133 0.63769 0.78309 0.0
H2067 H 0.71746 0.64319 0.75226 0.0
H2068 H 0.72978 0.65409 0.81775 0.0
H2069 H 0.75388 0.65853 0.83735 0.0
C2070 C 0.75482 0.67226 0.59789 0.0
C2071 C 0.75563 0.65848 0.61716 0.0
C2072 C 0.77478 0.64155 0.59103 0.0
C2073 C 0.77349 0.65494 0.57159 0.0
N2074 N 0.75831 0.67901 0.55432 0.0
N2075 N 0.7634 0.62785 0.63177 0.0
C2076 C 0.76237 0.66918 0.57441 0.0
C2077 C 0.76456 0.64232 0.61355 0.0
N2078 N 0.74699 0.68842 0.60213 0.0
N2079 N 0.78672 0.62897 0.58833 0.0
H2080 H 0.75785 0.62933 0.64922 0.0
H2081 H 0.76673 0.61351 0.62935 0.0
H2082 H 0.79444 0.6279 0.57215 0.0
H2083 H 0.79047 0.62083 0.60253 0.0
H2084 H 0.74867 0.70116 0.58996 0.0
H2085 H 0.73994 0.69014 0.61859 0.0
H2086 H 0.74815 0.68753 0.55437 0.0
H2087 H 0.76339 0.67682 0.53678 0.0
C2088 C 0.36396 0.11046 0.63362 0.0
C2089 C 0.35185 0.08478 0.62713 0.0
C2090 C 0.35462 0.09145 0.58309 0.0
C2091 C 0.36353 0.11674 0.58955 0.0
N2092 N 0.37657 0.15085 0.62041 0.0
N2093 N 0.33539 0.05018 0.59632 0.0
C2094 C 0.3685 0.12649 0.6147 0.0
C2095 C 0.34741 0.07508 0.60201 0.0
N2096 N 0.37114 0.11942 0.6579 0.0
N2097 N 0.35305 0.08321 0.55885 0.0
H2098 H 0.33078 0.03779 0.60979 0.0
H2099 H 0.32897 0.04163 0.57847 0.0
H2100 H 0.35783 0.09473 0.54456 0.0
H2101 H 0.34878 0.06546 0.55297 0.0
H2102 H 0.38198 0.13802 0.66382 0.0
H2103 H 0.36787 0.10802 0.67214 0.0
H2104 H 0.37775 0.1586 0.63821 0.0
H2105 H 0.38099 0.16329 0.60702 0.0
C2106 C 0.88165 0.22217 0.63749 0.0
C2107 C 0.90249 0.24532 0.6454 0.0
C2108 C 0.90645 0.25669 0.60277 0.0
C2109 C 0.88718 0.23269 0.59464 0.0
N2110 N 0.85865 0.19121 0.60334 0.0
N2111 N 0.93766 0.28275 0.6351 0.0
C2112 C 0.87535 0.21501 0.61175 0.0
C2113 C 0.91566 0.26218 0.62795 0.0
N2114 N 0.86746 0.2074 0.65457 0.0
N2115 N 0.91581 0.2743 0.58646 0.0
H2116 H 0.94556 0.28725 0.65321 0.0
H2117 H 0.94926 0.29416 0.62265 0.0
H2118 H 0.90983 0.27081 0.56771 0.0
H2119 H 0.92803 0.29281 0.59188 0.0
H2120 H 0.85069 0.1915 0.6499 0.0
H2121 H 0.8714 0.21217 0.6736 0.0
H2122 H 0.85137 0.17691 0.61475 0.0
H2123 H 0.85343 0.18536 0.58459 0.0
C2124 C 0.35669 0.26611 0.64027 0.0
C2125 C 0.35346 0.25383 0.66211 0.0
C2126 C 0.36552 0.22665 0.64193 0.0
C2127 C 0.36839 0.23873 0.62013 0.0
N2128 N 0.37326 0.27366 0.60022 0.0
N2129 N 0.36083 0.2272 0.68604 0.0
C2130 C 0.36631 0.25985 0.61998 0.0
C2131 C 0.35986 0.23561 0.66367 0.0
N2132 N 0.34891 0.28238 0.63816 0.0
N2133 N 0.36719 0.20603 0.64148 0.0
H2134 H 0.35716 0.23377 0.70236 0.0
H2135 H 0.3674 0.21551 0.68886 0.0
H2136 H 0.37225 0.19961 0.62608 0.0
H2137 H 0.3624 0.19462 0.65581 0.0
H2138 H 0.34804 0.28952 0.62164 0.0
H2139 H 0.3415 0.28743 0.65238 0.0
H2140 H 0.37438 0.29058 0.59995 0.0
H2141 H 0.38011 0.26929 0.58493 0.0
C2142 C 0.77937 0.12056 0.60722 0.0
C2143 C 0.76251 0.09501 0.60253 0.0
C2144 C 0.76852 0.09717 0.55828 0.0
C2145 C 0.78403 0.12301 0.56283 0.0
N2146 N 0.80102 0.16007 0.59045 0.0
N2147 N 0.73819 0.05923 0.5737 0.0
C2148 C 0.78848 0.13495 0.58697 0.0
C2149 C 0.75631 0.08332 0.57807 0.0
N2150 N 0.78744 0.13085 0.63103 0.0
N2151 N 0.76587 0.08589 0.53516 0.0
H2152 H 0.72907 0.04841 0.58779 0.0
H2153 H 0.73095 0.05039 0.55607 0.0
H2154 H 0.77383 0.09557 0.52001 0.0
H2155 H 0.75704 0.06691 0.53122 0.0
H2156 H 0.8016 0.14885 0.6356 0.0
H2157 H 0.78155 0.1207 0.64632 0.0
H2158 H 0.80268 0.16986 0.6072 0.0
H2159 H 0.80819 0.17123 0.57603 0.0
C2160 C 0.8697 0.64752 0.64016 0.0
C2161 C 0.89185 0.64793 0.64369 0.0
C2162 C 0.89123 0.63968 0.59883 0.0
C2163 C 0.87136 0.64326 0.59529 0.0
N2164 N 0.843 0.65311 0.61222 0.0
N2165 N 0.92538 0.64703 0.626 0.0
C2166 C 0.86082 0.6477 0.61587 0.0
C2167 C 0.90291 0.64429 0.62297 0.0
N2168 N 0.85694 0.64647 0.66004 0.0
N2169 N 0.89916 0.63222 0.57904 0.0
H2170 H 0.93491 0.6506 0.64315 0.0
H2171 H 0.93557 0.64776 0.61132 0.0
H2172 H 0.89165 0.62958 0.56093 0.0
H2173 H 0.91179 0.62669 0.58079 0.0
H2174 H 0.83959 0.64385 0.65841 0.0
H2175 H 0.86269 0.64568 0.67802 0.0
H2176 H 0.83647 0.65919 0.6265 0.0
H2177 H 0.836 0.65329 0.59465 0.0
C2178 C 0.91786 0.66465 0.8045 0.0
C2179 C 0.90384 0.6607 0.78195 0.0
C2180 C 0.86952 0.65448 0.80501 0.0
C2181 C 0.88417 0.66036 0.82749 0.0
N2182 N 0.92312 0.67453 0.849 0.0
N2183 N 0.86811 0.65634 0.76058 0.0
C2184 C 0.90865 0.6666 0.82733 0.0
C2185 C 0.88012 0.6568 0.78214 0.0
N2186 N 0.93934 0.66515 0.8042 0.0
N2187 N 0.84535 0.6462 0.80552 0.0
H2188 H 0.87553 0.65859 0.74352 0.0
H2189 H 0.85174 0.65596 0.75981 0.0
H2190 H 0.83707 0.64513 0.82189 0.0
H2191 H 0.83314 0.63877 0.78986 0.0
H2192 H 0.94896 0.66515 0.82007 0.0
H2193 H 0.94661 0.66337 0.78796 0.0
H2194 H 0.9418 0.68202 0.84978 0.0
H2195 H 0.91674 0.67537 0.86617 0.0
C2196 C 0.32244 0.2516 0.80939 0.0
C2197 C 0.32093 0.24346 0.78417 0.0
C2198 C 0.31042 0.20259 0.79533 0.0
C2199 C 0.31432 0.21148 0.82066 0.0
N2200 N 0.32676 0.24486 0.85231 0.0
N2201 N 0.31594 0.21245 0.75271 0.0
C2202 C 0.32093 0.23608 0.82788 0.0
C2203 C 0.31552 0.21925 0.77698 0.0
N2204 N 0.32509 0.27407 0.8156 0.0
N2205 N 0.30145 0.17815 0.7889 0.0
H2206 H 0.319 0.22398 0.73866 0.0
H2207 H 0.3149 0.19607 0.74664 0.0
H2208 H 0.29772 0.16548 0.80193 0.0
H2209 H 0.29589 0.16998 0.77083 0.0
H2210 H 0.32372 0.28 0.83342 0.0
H2211 H 0.32688 0.28617 0.80253 0.0
H2212 H 0.33443 0.26333 0.85851 0.0
H2213 H 0.32558 0.23395 0.86642 0.0
C2214 C 0.75508 0.06679 0.7553 0.0
C2215 C 0.77141 0.07788 0.73679 0.0
C2216 C 0.80603 0.09315 0.7676 0.0
C2217 C 0.78962 0.08222 0.78598 0.0
N2218 N 0.74947 0.05334 0.79665 0.0
N2219 N 0.81194 0.09715 0.72379 0.0
C2220 C 0.76443 0.06716 0.7795 0.0
C2221 C 0.79681 0.08965 0.74248 0.0
N2222 N 0.73079 0.05747 0.7503 0.0
N2223 N 0.83029 0.10753 0.77439 0.0
H2224 H 0.80558 0.09471 0.70525 0.0
H2225 H 0.83047 0.10398 0.72628 0.0
H2226 H 0.83759 0.10954 0.79247 0.0
H2227 H 0.84308 0.11837 0.76252 0.0
H2228 H 0.7185 0.05199 0.76385 0.0
H2229 H 0.72296 0.05706 0.73297 0.0
H2230 H 0.73125 0.04011 0.79243 0.0
H2231 H 0.75584 0.05342 0.81466 0.0
C2232 C 0.07276 0.34795 0.05533 0.0
C2233 C 0.05603 0.35038 0.06966 0.0
C2234 C 0.07385 0.34383 0.10705 0.0
C2235 C 0.09218 0.34417 0.09319 0.0
N2236 N 0.11165 0.35069 0.05495 0.0
N2237 N 0.04351 0.35537 0.1099 0.0
C2238 C 0.09236 0.34737 0.06752 0.0
C2239 C 0.05726 0.34951 0.09574 0.0
N2240 N 0.06941 0.34522 0.03007 0.0
N2241 N 0.07198 0.33758 0.13087 0.0
H2242 H 0.03172 0.36048 0.10252 0.0
H2243 H 0.04555 0.35754 0.12917 0.0
H2244 H 0.08382 0.33328 0.13975 0.0
H2245 H 0.05744 0.33448 0.14101 0.0
H2246 H 0.07957 0.34079 0.01874 0.0
H2247 H 0.05497 0.34502 0.02042 0.0
H2248 H 0.11403 0.35583 0.03694 0.0
H2249 H 0.1264 0.35043 0.06319 0.0
C2250 C 0.65683 0.70312 0.08439 0.0
C2251 C 0.64136 0.6851 0.09978 0.0
C2252 C 0.65561 0.71608 0.13519 0.0
C2253 C 0.67009 0.73424 0.11947 0.0
N2254 N 0.68961 0.74502 0.08155 0.0
N2255 N 0.63014 0.67262 0.14052 0.0
C2256 C 0.67252 0.72765 0.09487 0.0
C2257 C 0.64214 0.69103 0.1255 0.0
N2258 N 0.65541 0.6971 0.05952 0.0
N2259 N 0.65404 0.72306 0.15902 0.0
H2260 H 0.62017 0.6541 0.13379 0.0
H2261 H 0.63156 0.67537 0.15974 0.0
H2262 H 0.6647 0.74115 0.16694 0.0
H2263 H 0.64168 0.71127 0.17068 0.0
H2264 H 0.66403 0.70994 0.04682 0.0
H2265 H 0.64436 0.67927 0.05114 0.0
H2266 H 0.69393 0.74107 0.06429 0.0
H2267 H 0.70106 0.76323 0.08876 0.0
C2268 C 0.32178 0.93892 0.06308 0.0
C2269 C 0.32174 0.93234 0.03759 0.0
C2270 C 0.2773 0.90937 0.03342 0.0
C2271 C 0.27747 0.91473 0.05916 0.0
N2272 N 0.29918 0.93122 0.09941 0.0
N2273 N 0.30014 0.90976 -0.00127 0.0
C2274 C 0.29953 0.92864 0.07424 0.0
C2275 C 0.29967 0.917 0.02282 0.0
N2276 N 0.3431 0.95519 0.07661 0.0
N2277 N 0.25578 0.89756 0.01911 0.0
H2278 H 0.31615 0.91599 0.99002 0.0
H2279 H 0.28488 0.89653 0.98769 0.0
H2280 H 0.23911 0.89151 0.02644 0.0
H2281 H 0.25438 0.89518 -0.00012 0.0
H2282 H 0.34405 0.96323 0.0942 0.0
H2283 H 0.36005 0.96198 0.0698 0.0
H2284 H 0.31454 0.93848 0.11173 0.0
H2285 H 0.28324 0.92443 0.10832 0.0
C2286 C 0.38665 0.06526 0.98073 0.0
C2287 C 0.38137 0.05481 0.00358 0.0
C2288 C 0.35968 0.07609 0.01392 0.0
C2289 C 0.36192 0.08348 0.98958 0.0
N2290 N 0.37576 0.08359 0.9488 0.0
N2291 N 0.3624 0.04906 0.04197 0.0
C2292 C 0.37517 0.07791 0.97276 0.0
C2293 C 0.36802 0.06014 0.0204 0.0
N2294 N 0.4029 0.06325 0.9668 0.0
N2295 N 0.34983 0.08454 0.0308 0.0
H2296 H 0.36884 0.03785 0.04756 0.0
H2297 H 0.35036 0.04985 0.05367 0.0
H2298 H 0.34346 0.09615 0.02644 0.0
H2299 H 0.34971 0.08175 0.0495 0.0
H2300 H 0.40938 0.0725 0.95109 0.0
H2301 H 0.41174 0.05416 0.97231 0.0
H2302 H 0.38246 0.07723 0.93494 0.0
H2303 H 0.36794 0.09322 0.94218 0.0
C2304 C 0.92975 0.26651 0.00447 0.0
C2305 C 0.9386 0.28746 0.99095 0.0
C2306 C 0.92312 0.2611 0.95189 0.0
C2307 C 0.91159 0.2403 0.96558 0.0
N2308 N 0.90236 0.22256 0.00463 0.0
N2309 N 0.94377 0.30553 0.95219 0.0
C2310 C 0.9147 0.24278 0.99182 0.0
C2311 C 0.93547 0.285 0.96472 0.0
N2312 N 0.93577 0.26937 0.02938 0.0
N2313 N 0.92237 0.25785 0.92668 0.0
H2314 H 0.95383 0.32333 0.96095 0.0
H2315 H 0.93975 0.30508 0.93335 0.0
H2316 H 0.91328 0.24052 0.91682 0.0
H2317 H 0.93222 0.27201 0.91563 0.0
H2318 H 0.93204 0.25483 0.03989 0.0
H2319 H 0.94623 0.28654 0.03935 0.0
H2320 H 0.90138 0.22345 0.02372 0.0
H2321 H 0.89175 0.20476 0.99602 0.0
C2322 C 0.66919 0.6089 -0.00303 0.0
C2323 C 0.66925 0.60677 0.02281 0.0
C2324 C 0.70918 0.61087 0.02322 0.0
C2325 C 0.71043 0.61644 -0.00178 0.0
N2326 N 0.69314 0.62404 0.96197 0.0
N2327 N 0.68997 0.60799 0.06138 0.0
C2328 C 0.6908 0.61624 0.9852 0.0
C2329 C 0.68932 0.6081 0.03619 0.0
N2330 N 0.64827 0.60328 0.98359 0.0
N2331 N 0.7268 0.60788 0.03438 0.0
H2332 H 0.67573 0.60589 0.07153 0.0
H2333 H 0.70529 0.61176 0.07241 0.0
H2334 H 0.74169 0.60998 0.02542 0.0
H2335 H 0.72565 0.60135 0.05172 0.0
H2336 H 0.64651 0.60212 0.96434 0.0
H2337 H 0.63191 0.59732 0.99157 0.0
H2338 H 0.68042 0.62691 0.95275 0.0
H2339 H 0.70873 0.62971 0.95263 0.0
C2340 C 0.90869 0.62006 0.02578 0.0
C2341 C 0.92652 0.61618 0.01561 0.0
C2342 C 0.91983 0.62919 0.97593 0.0
C2343 C 0.90038 0.63067 0.98536 0.0
N2344 N 0.87445 0.6255 0.0182 0.0
N2345 N 0.94755 0.61422 0.98059 0.0
C2346 C 0.89434 0.62563 0.01005 0.0
C2347 C 0.93183 0.62014 0.99059 0.0
N2348 N 0.90599 0.6191 0.05063 0.0
N2349 N 0.92694 0.6367 0.95307 0.0
H2350 H 0.9566 0.60746 0.99077 0.0
H2351 H 0.95029 0.61417 0.96183 0.0
H2352 H 0.91817 0.64295 0.94169 0.0
H2353 H 0.94256 0.63854 0.94612 0.0
H2354 H 0.89519 0.62436 0.05969 0.0
H2355 H 0.91611 0.61489 0.06267 0.0
H2356 H 0.86733 0.61909 0.03489 0.0
H2357 H 0.864 0.63036 0.00753 0.0
C2358 C 0.35036 0.28922 0.98802 0.0
C2359 C 0.35557 0.30712 0.97107 0.0
C2360 C 0.3359 0.27455 0.937 0.0
C2361 C 0.33442 0.25734 0.95333 0.0
N2362 N 0.34249 0.24844 0.99405 0.0
N2363 N 0.35582 0.31731 0.92883 0.0
C2364 C 0.34207 0.26463 0.97883 0.0
C2365 C 0.34876 0.29994 0.94538 0.0
N2366 N 0.35267 0.29557 0.01291 0.0
N2367 N 0.32488 0.26652 0.91355 0.0
H2368 H 0.3658 0.33615 0.93406 0.0
H2369 H 0.35364 0.31309 0.90973 0.0
H2370 H 0.31518 0.24795 0.90702 0.0
H2371 H 0.32334 0.27791 0.90151 0.0
H2372 H 0.34685 0.28277 0.026 0.0
H2373 H 0.35808 0.3133 0.02034 0.0
H2374 H 0.35063 0.25362 0.01207 0.0
H2375 H 0.33635 0.23015 0.98817 0.0
C2376 C 0.70348 0.08563 0.01992 0.0
C2377 C 0.69361 0.06461 0.03352 0.0
C2378 C 0.72132 0.05311 0.0161 0.0
C2379 C 0.73199 0.07476 0.00361 0.0
N2380 N 0.73883 0.11561 0.00104 0.0
N2381 N 0.6996 0.03389 0.05125 0.0
C2382 C 0.72496 0.0924 0.00806 0.0
C2383 C 0.70467 0.05014 0.03381 0.0
N2384 N 0.6917 0.09817 0.01658 0.0
N2385 N 0.72593 0.03476 0.01024 0.0
H2386 H 0.68861 0.03233 0.06548 0.0
H2387 H 0.7086 0.02427 0.05332 0.0
H2388 H 0.73733 0.03571 -0.0033 0.0
H2389 H 0.71658 0.01764 0.0172 0.0
H2390 H 0.69722 0.11201 0.00464 0.0
H2391 H 0.67513 0.09327 0.02347 0.0
H2392 H 0.73551 0.12971 0.00577 0.0
H2393 H 0.75512 0.12141 0.99298 0.0
C2394 C 0.64002 0.94603 0.09951 0.0
C2395 C 0.63868 0.9497 0.07415 0.0
C2396 C 0.65543 0.92355 0.06382 0.0
C2397 C 0.65914 0.92218 0.08944 0.0
N2398 N 0.65888 0.9354 0.13197 0.0
N2399 N 0.64779 0.94481 0.03227 0.0
C2400 C 0.65255 0.93437 0.10739 0.0
C2401 C 0.64696 0.93911 0.05623 0.0
N2402 N 0.62858 0.95296 0.11595 0.0
N2403 N 0.65957 0.90966 0.04681 0.0
H2404 H 0.64165 0.95604 0.02601 0.0
H2405 H 0.65617 0.9399 0.01899 0.0
H2406 H 0.66629 0.89851 0.05179 0.0
H2407 H 0.65474 0.9078 0.02793 0.0
H2408 H 0.62689 0.94857 0.13422 0.0
H2409 H 0.61857 0.96092 0.11068 0.0
H2410 H 0.6569 0.94628 0.14567 0.0
H2411 H 0.66818 0.92713 0.13851 0.0
C2412 C 0.0448 0.70947 0.11318 0.0
C2413 C 0.04177 0.7005 0.08792 0.0
C2414 C 0.07417 0.74079 0.07805 0.0
C2415 C 0.07619 0.75008 0.10297 0.0
N2416 N 0.06001 0.74518 0.14286 0.0
N2417 N 0.04909 0.70902 0.04536 0.0
C2418 C 0.06035 0.735 0.1201 0.0
C2419 C 0.05512 0.71659 0.07004 0.0
N2420 N 0.03402 0.69353 0.13078 0.0
N2421 N 0.09101 0.75463 0.06229 0.0
H2422 H 0.03475 0.69162 0.03873 0.0
H2423 H 0.05663 0.72078 0.03151 0.0
H2424 H 0.10528 0.77252 0.06735 0.0
H2425 H 0.092 0.74769 0.0448 0.0
H2426 H 0.03777 0.69882 0.14971 0.0
H2427 H 0.02301 0.67458 0.12668 0.0
H2428 H 0.04719 0.73557 0.15525 0.0
H2429 H 0.07113 0.7639 0.1484 0.0
C2430 C 0.3144 0.38556 0.02455 0.0
C2431 C 0.33687 0.39686 0.03907 0.0
C2432 C 0.31607 0.38905 0.07719 0.0
C2433 C 0.2937 0.37895 0.06268 0.0
N2434 N 0.27116 0.37 0.02315 0.0
N2435 N 0.35997 0.41206 0.07878 0.0
C2436 C 0.29273 0.37788 0.03649 0.0
C2437 C 0.33797 0.39948 0.0653 0.0
N2438 N 0.31382 0.38184 -0.0006 0.0
N2439 N 0.31624 0.38798 0.1023 0.0
H2440 H 0.37644 0.41907 0.07083 0.0
H2441 H 0.36212 0.41702 0.09773 0.0
H2442 H 0.30062 0.38113 0.11177 0.0
H2443 H 0.33152 0.39231 0.1137 0.0
H2444 H 0.29794 0.37122 0.98794 0.0
H2445 H 0.32944 0.38832 0.98994 0.0
H2446 H 0.26954 0.37123 0.00423 0.0
H2447 H 0.25483 0.36356 0.03132 0.0
C2448 C 0.73621 0.68773 0.38575 0.0
C2449 C 0.72071 0.69301 0.39921 0.0
C2450 C 0.73688 0.68694 0.43808 0.0
C2451 C 0.75342 0.68326 0.42479 0.0
N2452 N 0.77204 0.68431 0.38685 0.0
N2453 N 0.70943 0.70244 0.43837 0.0
C2454 C 0.75408 0.68496 0.39886 0.0
C2455 C 0.72188 0.69392 0.42546 0.0
N2456 N 0.73308 0.68416 0.36048 0.0
N2457 N 0.73517 0.68326 0.46266 0.0
H2458 H 0.69871 0.70829 0.42981 0.0
H2459 H 0.71146 0.70591 0.45756 0.0
H2460 H 0.74634 0.67878 0.47265 0.0
H2461 H 0.72158 0.68288 0.47273 0.0
H2462 H 0.74198 0.67757 0.34979 0.0
H2463 H 0.72002 0.68574 0.35016 0.0
H2464 H 0.77512 0.68817 0.36853 0.0
H2465 H 0.78519 0.68187 0.39577 0.0
C2466 C 0.30785 0.02801 0.448 0.0
C2467 C 0.29967 0.02515 0.42271 0.0
C2468 C 0.32124 0.06971 0.4212 0.0
C2469 C 0.32938 0.07265 0.44656 0.0
N2470 N 0.33515 0.05551 0.48272 0.0
N2471 N 0.3029 0.04227 0.38365 0.0
C2472 C 0.32422 0.05201 0.45951 0.0
C2473 C 0.3078 0.04573 0.40879 0.0
N2474 N 0.29919 0.00788 0.46118 0.0
N2475 N 0.32525 0.0897 0.40935 0.0
H2476 H 0.29287 0.02488 0.374 0.0
H2477 H 0.31047 0.05645 0.37211 0.0
H2478 H 0.33566 0.10768 0.41749 0.0
H2479 H 0.31709 0.08848 0.39196 0.0
H2480 H 0.30229 0.00888 0.48029 0.0
H2481 H 0.2876 0.98999 0.45315 0.0
H2482 H 0.33389 0.04134 0.49246 0.0
H2483 H 0.34726 0.07297 0.49148 0.0
C2484 C 0.97154 0.25756 0.35234 0.0
C2485 C 0.99233 0.26277 0.36753 0.0
C2486 C 0.96879 0.25102 0.40369 0.0
C2487 C 0.94759 0.24402 0.38819 0.0
N2488 N 0.92767 0.23762 0.34762 0.0
N2489 N 0.01062 0.2613 0.40654 0.0
C2490 C 0.94863 0.24647 0.36243 0.0
C2491 C 0.9909 0.25853 0.39289 0.0
N2492 N 0.97385 0.26367 0.32846 0.0
N2493 N 0.96788 0.25119 0.42882 0.0
H2494 H 0.02731 0.26716 0.39936 0.0
H2495 H 0.01 0.25596 0.42438 0.0
H2496 H 0.95192 0.24554 0.43744 0.0
H2497 H 0.98317 0.2588 0.44129 0.0
H2498 H 0.95996 0.26289 0.31721 0.0
H2499 H 0.99025 0.27099 0.32028 0.0
H2500 H 0.92689 0.23644 0.32837 0.0
H2501 H 0.91066 0.22986 0.35456 0.0
C2502 C 0.06109 0.40195 0.31983 0.0
C2503 C 0.05485 0.39056 0.34214 0.0
C2504 C 0.03574 0.41413 0.35394 0.0
C2505 C 0.03886 0.42265 0.33005 0.0
N2506 N 0.05237 0.42289 0.28907 0.0
N2507 N 0.03553 0.38448 0.38033 0.0
C2508 C 0.05118 0.4163 0.31273 0.0
C2509 C 0.04222 0.39649 0.35937 0.0
N2510 N 0.07685 0.39934 0.30565 0.0
N2511 N 0.02688 0.42315 0.37141 0.0
H2512 H 0.04051 0.37192 0.38512 0.0
H2513 H 0.02391 0.38585 0.39223 0.0
H2514 H 0.02195 0.43605 0.36785 0.0
H2515 H 0.02626 0.41947 0.38988 0.0
H2516 H 0.08403 0.40916 0.29041 0.0
H2517 H 0.08468 0.38914 0.31057 0.0
H2518 H 0.05834 0.41611 0.27484 0.0
H2519 H 0.04568 0.43371 0.28303 0.0
C2520 C 0.60261 0.62114 0.29296 0.0
C2521 C 0.60668 0.62668 0.31899 0.0
C2522 C 0.58672 0.58285 0.32497 0.0
C2523 C 0.57978 0.57733 0.29923 0.0
N2524 N 0.58044 0.59034 0.25834 0.0
N2525 N 0.60208 0.61351 0.36022 0.0
C2526 C 0.58777 0.59624 0.28304 0.0
C2527 C 0.59892 0.60773 0.33515 0.0
N2528 N 0.6133 0.63973 0.27784 0.0
N2529 N 0.58155 0.56423 0.3396 0.0
H2530 H 0.61133 0.63154 0.36842 0.0
H2531 H 0.5943 0.60055 0.37299 0.0
H2532 H 0.57211 0.54574 0.33279 0.0
H2533 H 0.58819 0.56705 0.35803 0.0
H2534 H 0.61298 0.63689 0.25873 0.0
H2535 H 0.62425 0.65814 0.28466 0.0
H2536 H 0.58318 0.60322 0.24592 0.0
H2537 H 0.57047 0.57224 0.25034 0.0
C2538 C 0.34244 0.93431 0.34976 0.0
C2539 C 0.33858 0.95419 0.35491 0.0
C2540 C 0.376 0.98169 0.33637 0.0
C2541 C 0.38109 0.96249 0.33349 0.0
N2542 N 0.37217 0.92237 0.34363 0.0
N2543 N 0.35613 -0.0017 0.36045 0.0
C2544 C 0.36528 0.93937 0.34221 0.0
C2545 C 0.35673 0.97837 0.35049 0.0
N2546 N 0.32406 0.91056 0.35051 0.0
N2547 N 0.38862 0.00261 0.32467 0.0
H2548 H 0.34325 -0.00317 0.37238 0.0
H2549 H 0.37015 0.01632 0.35932 0.0
H2550 H 0.40211 0.00541 0.313 0.0
H2551 H 0.38384 0.01599 0.32445 0.0
H2552 H 0.32552 0.89552 0.34452 0.0
H2553 H 0.30658 0.90574 0.3545 0.0
H2554 H 0.36219 0.90611 0.35197 0.0
H2555 H 0.38906 0.92572 0.33884 0.0
C2556 C 0.59949 0.95145 0.31611 0.0
C2557 C 0.5944 0.94579 0.34087 0.0
C2558 C 0.56433 0.95845 0.33924 0.0
C2559 C 0.56774 0.96181 0.3138 0.0
N2560 N 0.58687 0.96012 0.27714 0.0
N2561 N 0.5713 0.94217 0.37592 0.0
C2562 C 0.58501 0.95812 0.30201 0.0
C2563 C 0.57664 0.94885 0.35245 0.0
N2564 N 0.6182 0.95048 0.30618 0.0
N2565 N 0.54966 0.96494 0.35081 0.0
H2566 H 0.58078 0.93622 0.38664 0.0
H2567 H 0.55661 0.94112 0.38436 0.0
H2568 H 0.54021 0.97185 0.34161 0.0
H2569 H 0.54819 0.96534 0.36982 0.0
H2570 H 0.62464 0.95693 0.28929 0.0
H2571 H 0.62841 0.94452 0.31558 0.0
H2572 H 0.59705 0.95497 0.26674 0.0
H2573 H 0.57704 0.96569 0.26643 0.0
C2574 C 0.01764 0.64058 0.2797 0.0
C2575 C 0.02347 0.64991 0.30501 0.0
C2576 C 0.01817 0.61083 0.31637 0.0
C2577 C 0.01035 0.60094 0.2914 0.0
N2578 N -0.00269 0.60438 0.2504 0.0
N2579 N 0.02358 0.64202 0.34801 0.0
C2580 C 0.00841 0.61521 0.27339 0.0
C2581 C 0.02214 0.63451 0.32356 0.0
N2582 N 0.02209 0.65609 0.26158 0.0
N2583 N 0.02257 0.59799 0.33306 0.0
H2584 H 0.02557 0.65888 0.35408 0.0
H2585 H 0.02028 0.63052 0.3621 0.0
H2586 H 0.01982 0.58051 0.32858 0.0
H2587 H 0.03087 0.60552 0.3508 0.0
H2588 H 0.02047 0.65057 0.24281 0.0
H2589 H 0.02979 0.67501 0.26528 0.0
H2590 H 0.99323 0.61336 0.23732 0.0
H2591 H 0.99 0.58568 0.24533 0.0
C2592 C 0.36889 0.41696 0.35588 0.0
C2593 C 0.35824 0.39573 0.36918 0.0
C2594 C 0.3867 0.38437 0.35358 0.0
C2595 C 0.39807 0.40622 0.34144 0.0
N2596 N 0.40534 0.44721 0.33878 0.0
N2597 N 0.36315 0.36462 0.38758 0.0
C2598 C 0.39099 0.42387 0.34528 0.0
C2599 C 0.36916 0.38116 0.37028 0.0
N2600 N 0.3573 0.42953 0.35155 0.0
N2601 N 0.39156 0.3661 0.34831 0.0
H2602 H 0.35151 0.3629 0.40117 0.0
H2603 H 0.37197 0.3549 0.39025 0.0
H2604 H 0.40374 0.36732 0.33559 0.0
H2605 H 0.38177 0.34884 0.3549 0.0
H2606 H 0.36355 0.44359 0.33981 0.0
H2607 H 0.34026 0.42442 0.35726 0.0
H2608 H 0.4019 0.46129 0.34313 0.0
H2609 H 0.42204 0.45307 0.33159 0.0
C2610 C 0.29685 0.27291 0.43261 0.0
C2611 C 0.30001 0.28008 0.40821 0.0
C2612 C 0.32172 0.25834 0.40022 0.0
C2613 C 0.32109 0.25381 0.42552 0.0
N2614 N 0.31087 0.25935 0.46677 0.0
N2615 N 0.31699 0.28181 0.3691 0.0
C2616 C 0.30932 0.2617 0.44199 0.0
C2617 C 0.31269 0.27322 0.39196 0.0
N2618 N 0.28149 0.27641 0.44661 0.0
N2619 N 0.33058 0.24809 0.3841 0.0
H2620 H 0.31015 0.29226 0.36226 0.0
H2621 H 0.32854 0.2799 0.35752 0.0
H2622 H 0.33764 0.2374 0.38969 0.0
H2623 H 0.32928 0.24858 0.365 0.0
H2624 H 0.27657 0.26946 0.46369 0.0
H2625 H 0.27173 0.28421 0.44004 0.0
H2626 H 0.30512 0.26733 0.48004 0.0
H2627 H 0.31975 0.25112 0.47444 0.0
C2628 C 0.72277 0.04347 0.39679 0.0
C2629 C 0.70999 0.0268 0.41446 0.0
C2630 C 0.73038 0.06011 0.44777 0.0
C2631 C 0.74544 0.07578 0.43049 0.0
N2632 N 0.75837 0.08176 0.38902 0.0
N2633 N 0.70353 0.01822 0.45715 0.0
C2634 C 0.74222 0.06737 0.40507 0.0
C2635 C 0.7141 0.03486 0.44008 0.0
N2636 N 0.71582 0.03668 0.3721 0.0
N2637 N 0.73152 0.06949 0.47144 0.0
H2638 H 0.69176 -0.00052 0.45236 0.0
H2639 H 0.70798 0.02263 0.47614 0.0
H2640 H 0.74332 0.08795 0.47765 0.0
H2641 H 0.71937 0.05957 0.48425 0.0
H2642 H 0.72287 0.04888 0.35853 0.0
H2643 H 0.70129 0.01944 0.36534 0.0
H2644 H 0.75853 0.07544 0.37093 0.0
H2645 H 0.7729 0.09946 0.39427 0.0
C2646 C 0.95658 0.69131 0.35214 0.0
C2647 C 0.97093 0.71742 0.35497 0.0
C2648 C 0.94108 0.71811 0.38083 0.0
C2649 C 0.93035 0.69253 0.38271 0.0
N2650 N 0.93043 0.65502 0.37232 0.0
N2651 N 0.97867 0.75552 0.37697 0.0
C2652 C 0.93862 0.67905 0.36881 0.0
C2653 C 0.96361 0.73093 0.37042 0.0
N2654 N 0.95965 0.67823 0.33326 0.0
N2655 N 0.92983 0.73018 0.38907 0.0
H2656 H -0.00364 0.76563 0.37198 0.0
H2657 H 0.97454 0.76527 0.39 0.0
H2658 H 0.91284 0.72111 0.39609 0.0
H2659 H 0.93614 0.74851 0.38627 0.0
H2660 H 0.94831 0.65927 0.32943 0.0
H2661 H 0.97151 0.68663 0.31966 0.0
H2662 H 0.93786 0.64532 0.36427 0.0
H2663 H 0.91793 0.64551 0.38502 0.0
C2664 C 0.41311 0.02333 0.71858 0.0
C2665 C 0.39507 0.02491 0.73132 0.0
C2666 C 0.41068 0.01812 0.77011 0.0
C2667 C 0.43017 0.01915 0.75787 0.0
N2668 N 0.45248 0.02708 0.72146 0.0
N2669 N 0.37943 0.02857 0.77005 0.0
C2670 C 0.43211 0.02298 0.73236 0.0
C2671 C 0.39453 0.02352 0.75733 0.0
N2672 N 0.41156 0.02115 0.69328 0.0
N2673 N 0.4073 0.01143 0.79376 0.0
H2674 H 0.36787 0.03342 0.76155 0.0
H2675 H 0.38007 0.03033 0.78929 0.0
H2676 H 0.4188 0.00734 0.8037 0.0
H2677 H 0.39195 0.00781 0.8027 0.0
H2678 H 0.42273 0.0173 0.68301 0.0
H2679 H 0.39762 0.0208 0.68246 0.0
H2680 H 0.45609 0.0327 0.7037 0.0
H2681 H 0.46684 0.02699 0.73089 0.0
C2682 C 0.95909 0.36513 0.74759 0.0
C2683 C 0.95191 0.34418 0.76077 0.0
C2684 C 0.97224 0.37045 0.79921 0.0
C2685 C 0.97721 0.39119 0.78653 0.0
N2686 N 0.97371 0.40872 0.74945 0.0
N2687 N 0.94956 0.32599 0.79905 0.0
C2688 C 0.97031 0.38869 0.76088 0.0
C2689 C 0.95804 0.34657 0.78657 0.0
N2690 N 0.95574 0.36251 0.72231 0.0
N2691 N 0.98144 0.37373 0.82319 0.0
H2692 H 0.9393 0.30823 0.79027 0.0
H2693 H 0.9512 0.32639 0.81824 0.0
H2694 H 0.99176 0.39105 0.83294 0.0
H2695 H 0.98052 0.35966 0.83285 0.0
H2696 H 0.96303 0.37724 0.71143 0.0
H2697 H 0.94722 0.34546 0.71193 0.0
H2698 H 0.96636 0.40763 0.73167 0.0
H2699 H 0.98269 0.42648 0.7583 0.0
C2700 C 0.65117 0.5948 0.73329 0.0
C2701 C 0.65187 0.59872 0.70787 0.0
C2702 C 0.60881 0.58559 0.70496 0.0
C2703 C 0.6088 0.58398 0.73088 0.0
N2704 N 0.63066 0.59111 0.77059 0.0
N2705 N 0.63263 0.60045 0.66967 0.0
C2706 C 0.63019 0.58969 0.74531 0.0
C2707 C 0.63103 0.59487 0.69371 0.0
N2708 N 0.6705 0.59576 0.74589 0.0
N2709 N 0.5875 0.57757 0.69108 0.0
H2710 H 0.64832 0.6061 0.66049 0.0
H2711 H 0.61892 0.60082 0.65923 0.0
H2712 H 0.57095 0.571 0.69882 0.0
H2713 H 0.58587 0.57578 0.67181 0.0
H2714 H 0.67011 0.5906 0.76379 0.0
H2715 H 0.68632 0.59967 0.73771 0.0
H2716 H 0.64642 0.59782 0.78219 0.0
H2717 H 0.61567 0.58771 0.78013 0.0
C2718 C 0.70984 0.73243 0.65155 0.0
C2719 C 0.703 0.71951 0.6729 0.0
C2720 C 0.67762 0.73677 0.68279 0.0
C2721 C 0.68192 0.74699 0.65971 0.0
N2722 N 0.69981 0.75221 0.62052 0.0
N2723 N 0.6797 0.70781 0.70851 0.0
C2724 C 0.69761 0.74442 0.64373 0.0
C2725 C 0.68681 0.72136 0.68857 0.0
N2726 N 0.72814 0.73331 0.63883 0.0
N2727 N 0.66515 0.7422 0.69927 0.0
H2728 H 0.68686 0.69711 0.71378 0.0
H2729 H 0.66582 0.70607 0.719 0.0
H2730 H 0.65823 0.75346 0.6955 0.0
H2731 H 0.66335 0.73727 0.71735 0.0
H2732 H 0.7357 0.74455 0.62459 0.0
H2733 H 0.73735 0.72451 0.64401 0.0
H2734 H 0.70853 0.74807 0.607 0.0
H2735 H 0.69127 0.76116 0.61392 0.0
C2736 C 0.27649 0.95368 0.62076 0.0
C2737 C 0.2824 0.95807 0.6467 0.0
C2738 C 0.2621 0.91376 0.65026 0.0
C2739 C 0.25256 0.90959 0.62536 0.0
N2740 N 0.25086 0.92467 0.58612 0.0
N2741 N 0.28125 0.94283 0.68661 0.0
C2742 C 0.26017 0.92929 0.61022 0.0
C2743 C 0.27581 0.93826 0.66155 0.0
N2744 N 0.28667 0.97291 0.60636 0.0
N2745 N 0.2577 0.8942 0.66309 0.0
H2746 H 0.29154 0.96051 0.69555 0.0
H2747 H 0.27447 0.92922 0.69882 0.0
H2748 H 0.24743 0.87606 0.65521 0.0
H2749 H 0.26585 0.8959 0.68061 0.0
H2750 H 0.28481 0.97085 0.5871 0.0
H2751 H 0.29882 0.99093 0.61373 0.0
H2752 H 0.25328 0.93831 0.57484 0.0
H2753 H 0.23972 0.90689 0.57759 0.0
C2754 C 0.01347 0.29065 0.66727 0.0
C2755 C 0.01217 0.29167 0.69328 0.0
C2756 C 0.05517 0.30496 0.69972 0.0
C2757 C 0.05683 0.30592 0.67381 0.0
N2758 N 0.03883 0.30316 0.63299 0.0
N2759 N 0.03179 0.30239 0.7346 0.0
C2760 C 0.03634 0.29985 0.6576 0.0
C2761 C 0.03301 0.29944 0.70966 0.0
N2762 N 0.99266 0.27984 0.65182 0.0
N2763 N 0.07466 0.30897 0.71469 0.0
H2764 H 0.01578 0.2983 0.74249 0.0
H2765 H 0.04687 0.3105 0.74738 0.0
H2766 H 0.09142 0.31398 0.70808 0.0
H2767 H 0.07388 0.30588 0.73334 0.0
H2768 H 0.99217 0.27621 0.63279 0.0
H2769 H 0.97544 0.27231 0.65822 0.0
H2770 H 0.02522 0.30182 0.62079 0.0
H2771 H 0.05516 0.30918 0.625 0.0
C2772 C 0.24936 0.28924 0.6892 0.0
C2773 C 0.26884 0.28865 0.67856 0.0
C2774 C 0.26188 0.30451 0.64094 0.0
C2775 C 0.24284 0.3057 0.65187 0.0
N2776 N 0.22032 0.30276 0.68727 0.0
N2777 N 0.29586 0.29815 0.64599 0.0
C2778 C 0.23716 0.29914 0.6763 0.0
C2779 C 0.27583 0.29712 0.65494 0.0
N2780 N 0.24234 0.27998 0.71151 0.0
N2781 N 0.26614 0.30984 0.61695 0.0
H2782 H 0.30573 0.29167 0.65512 0.0
H2783 H 0.30361 0.3066 0.63026 0.0
H2784 H 0.25698 0.31638 0.60658 0.0
H2785 H 0.27778 0.30668 0.60678 0.0
H2786 H 0.22651 0.27699 0.71893 0.0
H2787 H 0.25172 0.27393 0.72224 0.0
H2788 H 0.21715 0.30098 0.70588 0.0
H2789 H 0.21048 0.30927 0.67816 0.0
C2790 C 0.67228 0.96569 0.60982 0.0
C2791 C 0.67926 0.97403 0.63528 0.0
C2792 C 0.66438 0.93194 0.64559 0.0
C2793 C 0.65704 0.92356 0.62022 0.0
N2794 N 0.64829 0.931 0.57923 0.0
N2795 N 0.67588 0.96476 0.67789 0.0
C2796 C 0.65905 0.94002 0.60268 0.0
C2797 C 0.67337 0.95701 0.65335 0.0
N2798 N 0.67955 0.9822 0.59235 0.0
N2799 N 0.66392 0.91627 0.66208 0.0
H2800 H 0.68193 0.98296 0.6842 0.0
H2801 H 0.66968 0.9528 0.69175 0.0
H2802 H 0.65716 0.89764 0.65727 0.0
H2803 H 0.67183 0.92209 0.68016 0.0
H2804 H 0.67735 0.97711 0.57341 0.0
H2805 H 0.68954 0.00117 0.59672 0.0
H2806 H 0.64716 0.94183 0.5662 0.0
H2807 H 0.63843 0.91221 0.57359 0.0
C2808 C 0.00314 0.71348 0.65844 0.0
C2809 C 0.005 0.71995 0.68422 0.0
C2810 C 0.04884 0.74751 0.68394 0.0
C2811 C 0.04712 0.73958 0.65857 0.0
N2812 N 0.02375 0.71203 0.6226 0.0
N2813 N 0.02946 0.74013 0.7225 0.0
C2814 C 0.02457 0.72159 0.64611 0.0
C2815 C 0.02782 0.73617 0.6973 0.0
N2816 N 0.98086 0.70049 0.64556 0.0
N2817 N 0.07038 0.76635 0.69499 0.0
H2818 H 0.01435 0.73235 0.73281 0.0
H2819 H 0.04584 0.74962 0.73338 0.0
H2820 H 0.08628 0.77466 0.68592 0.0
H2821 H 0.07219 0.77486 0.71258 0.0
H2822 H 0.97838 0.69737 0.62634 0.0
H2823 H 0.96472 0.69476 0.65389 0.0
H2824 H 0.0082 0.69704 0.6135 0.0
H2825 H 0.03913 0.71767 0.6129 0.0
C2826 C 0.96597 0.60668 0.76735 0.0
C2827 C 0.96367 0.60736 0.74136 0.0
C2828 C 0.97883 0.57924 0.73486 0.0
C2829 C 0.98306 0.58038 0.76086 0.0
N2830 N 0.98472 0.59826 0.80188 0.0
N2831 N 0.97099 0.5974 0.70029 0.0
C2832 C 0.97789 0.59509 0.77712 0.0
C2833 C 0.97086 0.59442 0.72502 0.0
N2834 N 0.95568 0.61606 0.78264 0.0
N2835 N 0.98196 0.56331 0.71969 0.0
H2836 H 0.9653 0.60839 0.69244 0.0
H2837 H 0.97847 0.59057 0.68782 0.0
H2838 H 0.98849 0.5525 0.72628 0.0
H2839 H 0.9766 0.55957 0.70083 0.0
H2840 H 0.95459 0.61384 0.80148 0.0
H2841 H 0.946 0.62396 0.77613 0.0
H2842 H 0.98386 0.61093 0.81423 0.0
H2843 H 0.99323 0.58979 0.80984 0.0
C2844 C 0.39343 0.38656 0.73988 0.0
C2845 C 0.38121 0.36872 0.75673 0.0
C2846 C 0.39966 0.40074 0.79142 0.0
C2847 C 0.41414 0.41786 0.77484 0.0
N2848 N 0.42754 0.42658 0.73377 0.0
N2849 N 0.37485 0.35788 0.79882 0.0
C2850 C 0.41172 0.41069 0.74916 0.0
C2851 C 0.38472 0.37554 0.78261 0.0
N2852 N 0.38699 0.38067 0.71503 0.0
N2853 N 0.40001 0.40867 0.81548 0.0
H2854 H 0.36407 0.33917 0.79316 0.0
H2855 H 0.37899 0.36152 0.81789 0.0
H2856 H 0.41083 0.42704 0.82251 0.0
H2857 H 0.38811 0.39754 0.82787 0.0
H2858 H 0.39352 0.39361 0.70209 0.0
H2859 H 0.3733 0.36327 0.70752 0.0
H2860 H 0.4284 0.42138 0.71547 0.0
H2861 H 0.44121 0.4445 0.73976 0.0
C2862 C 0.64797 0.06035 0.69113 0.0
C2863 C 0.67109 0.07087 0.7042 0.0
C2864 C 0.65292 0.06508 0.74384 0.0
C2865 C 0.62993 0.05551 0.73077 0.0
N2866 N 0.60535 0.04688 0.69267 0.0
N2867 N 0.69657 0.08625 0.74253 0.0
C2868 C 0.62738 0.05399 0.70457 0.0
C2869 C 0.67387 0.07424 0.73045 0.0
N2870 N 0.64571 0.05606 0.6659 0.0
N2871 N 0.65455 0.06463 0.76901 0.0
H2872 H 0.71236 0.0923 0.73346 0.0
H2873 H 0.70004 0.09171 0.76142 0.0
H2874 H 0.63969 0.05876 0.77957 0.0
H2875 H 0.67023 0.06854 0.7794 0.0
H2876 H 0.62916 0.04586 0.65542 0.0
H2877 H 0.66056 0.06167 0.65537 0.0
H2878 H 0.60272 0.04784 0.67384 0.0
H2879 H 0.58976 0.04147 0.70196 0.0
loop_
_geom_bond_atom_site_label_1
_geom_bond_atom_site_label_2
_geom_bond_distance
_geom_bond_site_symmetry_2
_ccdc_geom_bond_type
C0 O1 1.306 . S
C0 O3 1.160 . S
O1 C0 1.306 . S
O1 Cd2 2.228 . S
Cd2 O1 2.228 . S
Cd2 O6 2.273 . S
Cd2 O10 2.277 . S
O3 C0 1.160 . S
O3 Cd4 2.203 1_655 S
Cd4 O3 2.203 1_455 S
Cd4 O6 2.411 1_455 S
Cd4 O7 2.333 . S
Cd4 O8 2.352 . S
Cd4 O12 2.277 1_554 S
Cd4 O13 2.356 . S
C5 O10 1.209 1_456 S
C5 O12 1.226 . S
O6 Cd2 2.273 . S
O6 Cd4 2.411 1_655 S
O6 C9 1.320 1_655 S
O7 Cd4 2.333 . S
O7 C9 1.214 . S
O8 Cd4 2.352 . S
O8 C11 1.258 . S
C9 O6 1.320 1_455 S
C9 O7 1.214 . S
O10 Cd2 2.277 . S
O10 C5 1.209 1_654 S
C11 O8 1.258 . S
C11 O13 1.282 . S
O12 Cd4 2.277 1_556 S
O12 C5 1.226 . S
O13 Cd4 2.356 . S
O13 C11 1.282 . S
C14 O15 1.306 . S
C14 O17 1.160 . S
O15 C14 1.306 . S
O15 Cd16 2.228 . S
Cd16 O15 2.228 . S
Cd16 O20 2.273 . S
Cd16 O24 2.277 . S
O17 C14 1.160 . S
O17 Cd18 2.203 . S
Cd18 O17 2.203 . S
Cd18 O20 2.411 . S
Cd18 O21 2.333 . S
Cd18 O22 2.352 . S
Cd18 O26 2.277 . S
Cd18 O27 2.356 . S
C19 O24 1.209 . S
C19 O26 1.226 . S
O20 Cd16 2.273 . S
O20 Cd18 2.411 . S
O20 C23 1.320 . S
O21 Cd18 2.333 . S
O21 C23 1.214 . S
O22 Cd18 2.352 . S
O22 C25 1.258 . S
C23 O20 1.320 . S
C23 O21 1.214 . S
O24 Cd16 2.277 . S
O24 C19 1.209 . S
C25 O22 1.258 . S
C25 O27 1.282 . S
O26 Cd18 2.277 . S
O26 C19 1.226 . S
O27 Cd18 2.356 . S
O27 C25 1.282 . S
C28 O29 1.306 . S
C28 O31 1.160 . S
O29 C28 1.306 . S
O29 Cd30 2.228 . S
Cd30 O29 2.228 . S
Cd30 O34 2.273 . S
Cd30 O38 2.277 . S
O31 C28 1.160 . S
O31 Cd32 2.203 1_565 S
Cd32 O31 2.203 1_545 S
Cd32 O34 2.411 1_545 S
Cd32 O35 2.334 1_554 S
Cd32 O36 2.329 1_554 S
Cd32 O40 2.277 . S
Cd32 O41 2.356 . S
C33 O38 1.209 1_545 S
C33 O40 1.226 . S
O34 Cd30 2.273 . S
O34 Cd32 2.411 1_565 S
O34 C37 1.320 1_554 S
O35 Cd32 2.334 1_556 S
O35 C37 1.213 1_545 S
O36 Cd32 2.329 1_556 S
O36 C39 1.253 1_556 S
C37 O34 1.320 1_556 S
C37 O35 1.213 1_565 S
O38 Cd30 2.277 . S
O38 C33 1.209 1_565 S
C39 O36 1.253 1_554 S
C39 O41 1.282 . S
O40 Cd32 2.277 . S
O40 C33 1.226 . S
O41 Cd32 2.356 . S
O41 C39 1.282 . S
C42 O43 1.306 . S
C42 O45 1.160 . S
O43 C42 1.306 . S
O43 Cd44 2.228 . S
Cd44 O43 2.228 . S
Cd44 O48 2.273 . S
Cd44 O52 2.277 . S
O45 C42 1.160 . S
O45 Cd46 2.203 1_655 S
Cd46 O45 2.203 1_455 S
Cd46 O48 2.411 1_455 S
Cd46 O49 2.333 . S
Cd46 O50 2.352 . S
Cd46 O54 2.277 . S
Cd46 O55 2.356 . S
C47 O52 1.209 1_455 S
C47 O54 1.226 . S
O48 Cd44 2.273 . S
O48 Cd46 2.411 1_655 S
O48 C51 1.320 . S
O49 Cd46 2.333 . S
O49 C51 1.214 1_455 S
O50 Cd46 2.352 . S
O50 C53 1.258 . S
C51 O48 1.320 . S
C51 O49 1.214 1_655 S
O52 Cd44 2.277 . S
O52 C47 1.209 1_655 S
C53 O50 1.258 . S
C53 O55 1.282 . S
O54 Cd46 2.277 . S
O54 C47 1.226 . S
O55 Cd46 2.356 . S
O55 C53 1.282 . S
C56 O57 1.306 . S
C56 O59 1.160 . S
O57 C56 1.306 . S
O57 Cd58 2.228 . S
Cd58 O57 2.228 . S
Cd58 O62 2.273 1_554 S
Cd58 O66 2.277 . S
O59 C56 1.160 . S
O59 Cd60 2.203 . S
Cd60 O59 2.203 . S
Cd60 O62 2.411 1_554 S
Cd60 O63 2.333 1_554 S
Cd60 O64 2.352 1_554 S
Cd60 O68 2.277 . S
Cd60 O69 2.356 1_554 S
C61 O66 1.209 . S
C61 O68 1.226 . S
O62 Cd58 2.273 1_556 S
O62 Cd60 2.411 1_556 S
O62 C65 1.320 . S
O63 Cd60 2.333 1_556 S
O63 C65 1.214 . S
O64 Cd60 2.352 1_556 S
O64 C67 1.258 . S
C65 O62 1.320 . S
C65 O63 1.214 . S
O66 Cd58 2.277 . S
O66 C61 1.209 . S
C67 O64 1.258 . S
C67 O69 1.282 . S
O68 Cd60 2.277 . S
O68 C61 1.226 . S
O69 Cd60 2.356 1_556 S
O69 C67 1.282 . S
C70 O71 1.306 . S
C70 O73 1.160 . S
O71 C70 1.306 . S
O71 Cd72 2.228 . S
Cd72 O71 2.228 . S
Cd72 O76 2.273 . S
Cd72 O80 2.277 . S
O73 C70 1.160 . S
O73 Cd74 2.203 1_545 S
Cd74 O73 2.203 1_565 S
Cd74 O76 2.411 1_565 S
Cd74 O77 2.333 . S
Cd74 O78 2.352 . S
Cd74 O82 2.277 . S
Cd74 O83 2.356 . S
C75 O80 1.209 1_565 S
C75 O82 1.226 . S
O76 Cd72 2.273 . S
O76 Cd74 2.411 1_545 S
O76 C79 1.320 . S
O77 Cd74 2.333 . S
O77 C79 1.214 1_565 S
O78 Cd74 2.352 . S
O78 C81 1.258 . S
C79 O76 1.320 . S
C79 O77 1.214 1_545 S
O80 Cd72 2.277 . S
O80 C75 1.209 1_545 S
C81 O78 1.258 . S
C81 O83 1.282 . S
O82 Cd74 2.277 . S
O82 C75 1.226 . S
O83 Cd74 2.356 . S
O83 C81 1.282 . S
C84 O85 1.306 . S
C84 O87 1.160 . S
O85 C84 1.306 . S
O85 Cd86 2.228 . S
Cd86 O85 2.228 . S
Cd86 O90 2.273 . S
Cd86 O94 2.277 . S
O87 C84 1.160 . S
O87 Cd88 2.203 . S
Cd88 O87 2.203 . S
Cd88 O90 2.411 . S
Cd88 O91 2.333 . S
Cd88 O92 2.352 . S
Cd88 O96 2.277 . S
Cd88 O97 2.356 . S
C89 O94 1.209 . S
C89 O96 1.226 . S
O90 Cd86 2.273 . S
O90 Cd88 2.411 . S
O90 C93 1.320 . S
O91 Cd88 2.333 . S
O91 C93 1.214 . S
O92 Cd88 2.352 . S
O92 C95 1.258 . S
C93 O90 1.320 . S
C93 O91 1.214 . S
O94 Cd86 2.277 . S
O94 C89 1.209 . S
C95 O92 1.258 . S
C95 O97 1.282 . S
O96 Cd88 2.277 . S
O96 C89 1.226 . S
O97 Cd88 2.356 . S
O97 C95 1.282 . S
C98 O99 1.304 . S
C98 O101 1.166 . S
O99 C98 1.304 . S
O99 Cd100 2.228 . S
Cd100 O99 2.228 . S
Cd100 O104 2.273 . S
Cd100 O108 2.277 . S
O101 C98 1.166 . S
O101 Cd102 2.203 . S
Cd102 O101 2.203 . S
Cd102 O104 2.411 . S
Cd102 O105 2.333 . S
Cd102 O106 2.352 . S
Cd102 O110 2.277 . S
Cd102 O111 2.356 . S
C103 O108 1.209 . S
C103 O110 1.226 . S
O104 Cd100 2.273 . S
O104 Cd102 2.411 . S
O104 C107 1.320 . S
O105 Cd102 2.333 . S
O105 C107 1.214 . S
O106 Cd102 2.352 . S
O106 C109 1.258 . S
C107 O104 1.320 . S
C107 O105 1.214 . S
O108 Cd100 2.277 . S
O108 C103 1.209 . S
C109 O106 1.258 . S
C109 O111 1.282 . S
O110 Cd102 2.277 . S
O110 C103 1.226 . S
O111 Cd102 2.356 . S
O111 C109 1.282 . S
C112 O113 1.306 . S
C112 O115 1.160 . S
O113 C112 1.306 . S
O113 Cd114 2.228 . S
Cd114 O113 2.228 . S
Cd114 O118 2.273 . S
Cd114 O122 2.277 . S
O115 C112 1.160 . S
O115 Cd116 2.203 . S
Cd116 O115 2.203 . S
Cd116 O118 2.411 . S
Cd116 O119 2.333 . S
Cd116 O120 2.352 . S
Cd116 O124 2.277 . S
Cd116 O125 2.356 . S
C117 O122 1.209 . S
C117 O124 1.226 . S
O118 Cd114 2.273 . S
O118 Cd116 2.411 . S
O118 C121 1.320 . S
O119 Cd116 2.333 . S
O119 C121 1.214 . S
O120 Cd116 2.352 . S
O120 C123 1.258 . S
C121 O118 1.320 . S
C121 O119 1.214 . S
O122 Cd114 2.277 . S
O122 C117 1.209 . S
C123 O120 1.258 . S
C123 O125 1.282 . S
O124 Cd116 2.277 . S
O124 C117 1.226 . S
O125 Cd116 2.356 . S
O125 C123 1.282 . S
C126 O127 1.306 . S
C126 O129 1.160 . S
O127 C126 1.306 . S
O127 Cd128 2.228 . S
Cd128 O127 2.228 . S
Cd128 O132 2.273 . S
Cd128 O136 2.277 . S
O129 C126 1.160 . S
O129 Cd130 2.203 . S
Cd130 O129 2.203 . S
Cd130 O132 2.411 . S
Cd130 O133 2.333 . S
Cd130 O134 2.385 . S
Cd130 O138 2.277 . S
Cd130 O139 2.356 1_565 S
C131 O136 1.209 . S
C131 O138 1.226 . S
O132 Cd128 2.273 . S
O132 Cd130 2.411 . S
O132 C135 1.320 . S
O133 Cd130 2.333 . S
O133 C135 1.214 . S
O134 Cd130 2.385 . S
O134 C137 1.257 1_565 S
C135 O132 1.320 . S
C135 O133 1.214 . S
O136 Cd128 2.277 . S
O136 C131 1.209 . S
C137 O134 1.257 1_545 S
C137 O139 1.282 . S
O138 Cd130 2.277 . S
O138 C131 1.226 . S
O139 Cd130 2.356 1_545 S
O139 C137 1.282 . S
C140 O141 1.306 . S
C140 O143 1.160 . S
O141 C140 1.306 . S
O141 Cd142 2.228 . S
Cd142 O141 2.228 . S
Cd142 O146 2.273 . S
Cd142 O150 2.277 . S
O143 C140 1.160 . S
O143 Cd144 2.203 . S
Cd144 O143 2.203 . S
Cd144 O146 2.411 . S
Cd144 O147 2.333 . S
Cd144 O148 2.352 . S
Cd144 O152 2.277 . S
Cd144 O153 2.356 . S
C145 O150 1.209 . S
C145 O152 1.226 . S
O146 Cd142 2.273 . S
O146 Cd144 2.411 . S
O146 C149 1.320 . S
O147 Cd144 2.333 . S
O147 C149 1.214 . S
O148 Cd144 2.352 . S
O148 C151 1.258 . S
C149 O146 1.320 . S
C149 O147 1.214 . S
O150 Cd142 2.277 . S
O150 C145 1.209 . S
C151 O148 1.258 . S
C151 O153 1.282 . S
O152 Cd144 2.277 . S
O152 C145 1.226 . S
O153 Cd144 2.356 . S
O153 C151 1.282 . S
C154 O155 1.306 . S
C154 O157 1.160 . S
O155 C154 1.306 . S
O155 Cd156 2.228 . S
Cd156 O155 2.228 . S
Cd156 O160 2.273 . S
Cd156 O164 2.277 . S
O157 C154 1.160 . S
O157 Cd158 2.203 . S
Cd158 O157 2.203 . S
Cd158 O160 2.411 . S
Cd158 O161 2.333 . S
Cd158 O162 2.352 . S
Cd158 O166 2.277 . S
Cd158 O167 2.356 . S
C159 O164 1.209 . S
C159 O166 1.226 . S
O160 Cd156 2.273 . S
O160 Cd158 2.411 . S
O160 C163 1.320 . S
O161 Cd158 2.333 . S
O161 C163 1.214 . S
O162 Cd158 2.352 . S
O162 C165 1.258 . S
C163 O160 1.320 . S
C163 O161 1.214 . S
O164 Cd156 2.277 . S
O164 C159 1.209 . S
C165 O162 1.258 . S
C165 O167 1.282 . S
O166 Cd158 2.277 . S
O166 C159 1.226 . S
O167 Cd158 2.356 . S
O167 C165 1.282 . S
C168 O169 1.269 1_565 S
C168 O171 1.160 1_565 S
O169 C168 1.269 1_545 S
O169 Cd170 2.281 . S
Cd170 O169 2.281 . S
Cd170 O174 2.273 . S
Cd170 O178 2.277 . S
O171 C168 1.160 1_545 S
O171 Cd172 2.203 . S
Cd172 O171 2.203 . S
Cd172 O174 2.411 . S
Cd172 O175 2.333 . S
Cd172 O176 2.352 . S
Cd172 O180 2.277 . S
Cd172 O181 2.356 . S
C173 O178 1.209 . S
C173 O180 1.226 . S
O174 Cd170 2.273 . S
O174 Cd172 2.411 . S
O174 C177 1.320 . S
O175 Cd172 2.333 . S
O175 C177 1.214 . S
O176 Cd172 2.352 . S
O176 C179 1.258 . S
C177 O174 1.320 . S
C177 O175 1.214 . S
O178 Cd170 2.277 . S
O178 C173 1.209 . S
C179 O176 1.258 . S
C179 O181 1.282 . S
O180 Cd172 2.277 . S
O180 C173 1.226 . S
O181 Cd172 2.356 . S
O181 C179 1.282 . S
C182 O183 1.306 . S
C182 O185 1.160 . S
O183 C182 1.306 . S
O183 Cd184 2.228 . S
Cd184 O183 2.228 . S
Cd184 O188 2.273 . S
Cd184 O192 2.277 . S
O185 C182 1.160 . S
O185 Cd186 2.203 . S
Cd186 O185 2.203 . S
Cd186 O188 2.411 . S
Cd186 O189 2.333 . S
Cd186 O190 2.373 . S
Cd186 O194 2.277 . S
Cd186 O195 2.356 1_655 S
C187 O192 1.209 . S
C187 O194 1.226 . S
O188 Cd184 2.273 . S
O188 Cd186 2.411 . S
O188 C191 1.320 . S
O189 Cd186 2.333 . S
O189 C191 1.214 . S
O190 Cd186 2.373 . S
O190 C193 1.216 1_655 S
C191 O188 1.320 . S
C191 O189 1.214 . S
O192 Cd184 2.277 . S
O192 C187 1.209 . S
C193 O190 1.216 1_455 S
C193 O195 1.282 . S
O194 Cd186 2.277 . S
O194 C187 1.226 . S
O195 Cd186 2.356 1_455 S
O195 C193 1.282 . S
C196 O197 1.306 . S
C196 O199 1.160 . S
O197 C196 1.306 . S
O197 Cd198 2.228 . S
Cd198 O197 2.228 . S
Cd198 O202 2.273 . S
Cd198 O206 2.277 . S
O199 C196 1.160 . S
O199 Cd200 2.203 . S
Cd200 O199 2.203 . S
Cd200 O202 2.411 . S
Cd200 O203 2.333 . S
Cd200 O204 2.352 . S
Cd200 O208 2.277 . S
Cd200 O209 2.356 . S
C201 O206 1.209 . S
C201 O208 1.226 . S
O202 Cd198 2.273 . S
O202 Cd200 2.411 . S
O202 C205 1.320 . S
O203 Cd200 2.333 . S
O203 C205 1.214 . S
O204 Cd200 2.352 . S
O204 C207 1.258 . S
C205 O202 1.320 . S
C205 O203 1.214 . S
O206 Cd198 2.277 . S
O206 C201 1.209 . S
C207 O204 1.258 . S
C207 O209 1.282 . S
O208 Cd200 2.277 . S
O208 C201 1.226 . S
O209 Cd200 2.356 . S
O209 C207 1.282 . S
C210 O211 1.306 . S
C210 O213 1.160 . S
O211 C210 1.306 . S
O211 Cd212 2.228 . S
Cd212 O211 2.228 . S
Cd212 O216 2.273 . S
Cd212 O220 2.277 . S
O213 C210 1.160 . S
O213 Cd214 2.203 . S
Cd214 O213 2.203 . S
Cd214 O216 2.411 . S
Cd214 O217 2.333 . S
Cd214 O218 2.352 . S
Cd214 O222 2.277 . S
Cd214 O223 2.356 . S
C215 O220 1.209 . S
C215 O222 1.226 . S
O216 Cd212 2.273 . S
O216 Cd214 2.411 . S
O216 C219 1.320 . S
O217 Cd214 2.333 . S
O217 C219 1.214 . S
O218 Cd214 2.352 . S
O218 C221 1.258 . S
C219 O216 1.320 . S
C219 O217 1.214 . S
O220 Cd212 2.277 . S
O220 C215 1.209 . S
C221 O218 1.258 . S
C221 O223 1.282 . S
O222 Cd214 2.277 . S
O222 C215 1.226 . S
O223 Cd214 2.356 . S
O223 C221 1.282 . S
C224 O225 1.306 . S
C224 O227 1.160 . S
O225 C224 1.306 . S
O225 Cd226 2.228 . S
Cd226 O225 2.228 . S
Cd226 O230 2.273 . S
Cd226 O234 2.277 . S
O227 C224 1.160 . S
O227 Cd228 2.203 . S
Cd228 O227 2.203 . S
Cd228 O230 2.411 . S
Cd228 O231 2.333 . S
Cd228 O232 2.352 . S
Cd228 O236 2.277 . S
Cd228 O237 2.356 . S
C229 O234 1.209 . S
C229 O236 1.226 . S
O230 Cd226 2.273 . S
O230 Cd228 2.411 . S
O230 C233 1.320 . S
O231 Cd228 2.333 . S
O231 C233 1.214 . S
O232 Cd228 2.352 . S
O232 C235 1.258 1_545 S
C233 O230 1.320 . S
C233 O231 1.214 . S
O234 Cd226 2.277 . S
O234 C229 1.209 . S
C235 O232 1.258 1_565 S
C235 O237 1.282 1_565 S
O236 Cd228 2.277 . S
O236 C229 1.226 . S
O237 Cd228 2.356 . S
O237 C235 1.282 1_545 S
C238 O239 1.306 . S
C238 O241 1.160 . S
O239 C238 1.306 . S
O239 Cd240 2.228 . S
Cd240 O239 2.228 . S
Cd240 O244 2.273 . S
Cd240 O248 2.277 . S
O241 C238 1.160 . S
O241 Cd242 2.203 . S
Cd242 O241 2.203 . S
Cd242 O244 2.411 . S
Cd242 O245 2.333 . S
Cd242 O246 2.352 . S
Cd242 O250 2.277 . S
Cd242 O251 2.356 . S
C243 O248 1.209 . S
C243 O250 1.226 . S
O244 Cd240 2.273 . S
O244 Cd242 2.411 . S
O244 C247 1.320 . S
O245 Cd242 2.333 . S
O245 C247 1.214 . S
O246 Cd242 2.352 . S
O246 C249 1.258 . S
C247 O244 1.320 . S
C247 O245 1.214 . S
O248 Cd240 2.277 . S
O248 C243 1.209 . S
C249 O246 1.258 . S
C249 O251 1.282 . S
O250 Cd242 2.277 . S
O250 C243 1.226 . S
O251 Cd242 2.356 . S
O251 C249 1.282 . S
H252 O278 0.880 . S
H253 O281 0.854 . S
H254 C289 0.930 . S
H255 C290 0.930 . S
H256 C292 0.930 . S
H257 C293 0.930 . S
H258 C295 0.931 . S
H259 C296 0.930 . S
H260 C298 0.930 . S
H261 C299 0.929 . S
H262 C301 0.930 . S
H263 C302 0.931 . S
H264 C304 0.930 . S
H265 C305 0.929 . S
H266 C307 0.931 . S
H267 C308 0.930 . S
H268 C310 0.930 . S
H269 C311 0.932 . S
H270 C313 0.930 . S
H271 C314 0.929 . S
H272 C316 0.931 . S
H273 C317 0.930 . S
H274 C319 0.929 . S
H275 C320 0.931 . S
H276 C322 0.930 . S
H277 C323 0.929 . S
O278 H252 0.880 . S
O278 C324 1.300 . S
O279 C324 1.209 . S
O280 C325 1.199 . S
O281 H253 0.854 . S
O281 C325 1.297 . S
C282 C283 1.404 . S
C282 C287 1.397 . S
C282 C288 1.492 . S
C283 C282 1.404 . S
C283 C284 1.396 . S
C283 C294 1.492 . S
C284 C283 1.396 . S
C284 C285 1.397 . S
C284 C300 1.509 . S
C285 C284 1.397 . S
C285 C286 1.412 . S
C285 C306 1.485 . S
C286 C285 1.412 . S
C286 C287 1.388 . S
C286 C312 1.490 . S
C287 C282 1.397 . S
C287 C286 1.388 . S
C287 C318 1.519 . S
C288 C282 1.492 . S
C288 C289 1.363 . S
C288 C293 1.390 . S
C289 H254 0.930 . S
C289 C288 1.363 . S
C289 C290 1.372 . S
C290 H255 0.930 . S
C290 C289 1.372 . S
C290 C291 1.383 . S
C291 C290 1.383 . S
C291 C292 1.395 . S
C292 H256 0.930 . S
C292 C291 1.395 . S
C292 C293 1.362 . S
C293 H257 0.930 . S
C293 C288 1.390 . S
C293 C292 1.362 . S
C294 C283 1.492 . S
C294 C295 1.377 . S
C294 C299 1.397 . S
C295 H258 0.931 . S
C295 C294 1.377 . S
C295 C296 1.376 . S
C296 H259 0.930 . S
C296 C295 1.376 . S
C296 C297 1.376 . S
C297 C296 1.376 . S
C297 C298 1.378 . S
C297 C324 1.486 . S
C298 H260 0.930 . S
C298 C297 1.378 . S
C298 C299 1.376 . S
C299 H261 0.929 . S
C299 C294 1.397 . S
C299 C298 1.376 . S
C300 C284 1.509 . S
C300 C301 1.391 . S
C300 C305 1.386 . S
C301 H262 0.930 . S
C301 C300 1.391 . S
C301 C302 1.375 . S
C302 H263 0.931 . S
C302 C301 1.375 . S
C302 C303 1.375 . S
C303 C302 1.375 . S
C303 C304 1.361 . S
C304 H264 0.930 . S
C304 C303 1.361 . S
C304 C305 1.399 . S
C305 H265 0.929 . S
C305 C300 1.386 . S
C305 C304 1.399 . S
C306 C285 1.485 . S
C306 C307 1.394 . S
C306 C311 1.360 . S
C307 H266 0.931 . S
C307 C306 1.394 . S
C307 C308 1.372 . S
C308 H267 0.930 . S
C308 C307 1.372 . S
C308 C309 1.397 . S
C309 C308 1.397 . S
C309 C310 1.390 . S
C309 C325 1.476 . S
C310 H268 0.930 . S
C310 C309 1.390 . S
C310 C311 1.366 . S
C311 H269 0.932 . S
C311 C306 1.360 . S
C311 C310 1.366 . S
C312 C286 1.490 . S
C312 C313 1.380 . S
C312 C317 1.386 . S
C313 H270 0.930 . S
C313 C312 1.380 . S
C313 C314 1.381 . S
C314 H271 0.929 . S
C314 C313 1.381 . S
C314 C315 1.371 . S
C315 C314 1.371 . S
C315 C316 1.380 . S
C316 H272 0.931 . S
C316 C315 1.380 . S
C316 C317 1.387 . S
C317 H273 0.930 . S
C317 C312 1.386 . S
C317 C316 1.387 . S
C318 C287 1.519 . S
C318 C319 1.377 . S
C318 C323 1.361 . S
C319 H274 0.929 . S
C319 C318 1.377 . S
C319 C320 1.386 . S
C320 H275 0.931 . S
C320 C319 1.386 . S
C320 C321 1.363 . S
C321 C320 1.363 . S
C321 C322 1.385 . S
C322 H276 0.930 . S
C322 C321 1.385 . S
C322 C323 1.396 . S
C323 H277 0.929 . S
C323 C318 1.361 . S
C323 C322 1.396 . S
C324 O278 1.300 . S
C324 O279 1.209 . S
C324 C297 1.486 . S
C325 O280 1.199 . S
C325 O281 1.297 . S
C325 C309 1.476 . S
H326 O352 0.856 . S
H327 O355 0.854 1_545 S
H328 C363 0.930 . S
H329 C364 0.930 . S
H330 C366 0.930 . S
H331 C367 0.930 . S
H332 C369 0.931 . S
H333 C370 0.930 . S
H334 C372 0.930 . S
H335 C373 0.929 . S
H336 C375 0.930 . S
H337 C376 0.931 . S
H338 C378 0.930 . S
H339 C379 0.929 . S
H340 C381 0.931 . S
H341 C382 0.930 . S
H342 C384 0.930 . S
H343 C385 0.932 . S
H344 C387 0.930 . S
H345 C388 0.929 . S
H346 C390 0.931 . S
H347 C391 0.930 . S
H348 C393 0.929 . S
H349 C394 0.931 . S
H350 C396 0.930 . S
H351 C397 0.929 . S
O352 H326 0.856 . S
O352 C398 1.300 . S
O353 C398 1.209 . S
O354 C399 1.199 . S
O355 H327 0.854 1_565 S
O355 C399 1.297 . S
C356 C357 1.404 . S
C356 C361 1.397 . S
C356 C362 1.492 . S
C357 C356 1.404 . S
C357 C358 1.396 . S
C357 C368 1.492 . S
C358 C357 1.396 . S
C358 C359 1.397 . S
C358 C374 1.509 . S
C359 C358 1.397 . S
C359 C360 1.412 . S
C359 C380 1.485 . S
C360 C359 1.412 . S
C360 C361 1.388 . S
C360 C386 1.490 . S
C361 C356 1.397 . S
C361 C360 1.388 . S
C361 C392 1.519 . S
C362 C356 1.492 . S
C362 C363 1.363 . S
C362 C367 1.390 . S
C363 H328 0.930 . S
C363 C362 1.363 . S
C363 C364 1.372 . S
C364 H329 0.930 . S
C364 C363 1.372 . S
C364 C365 1.383 . S
C365 C364 1.383 . S
C365 C366 1.395 . S
C366 H330 0.930 . S
C366 C365 1.395 . S
C366 C367 1.362 . S
C367 H331 0.930 . S
C367 C362 1.390 . S
C367 C366 1.362 . S
C368 C357 1.492 . S
C368 C369 1.377 . S
C368 C373 1.397 . S
C369 H332 0.931 . S
C369 C368 1.377 . S
C369 C370 1.376 . S
C370 H333 0.930 . S
C370 C369 1.376 . S
C370 C371 1.376 . S
C371 C370 1.376 . S
C371 C372 1.378 . S
C371 C398 1.486 . S
C372 H334 0.930 . S
C372 C371 1.378 . S
C372 C373 1.376 . S
C373 H335 0.929 . S
C373 C368 1.397 . S
C373 C372 1.376 . S
C374 C358 1.509 . S
C374 C375 1.391 . S
C374 C379 1.386 . S
C375 H336 0.930 . S
C375 C374 1.391 . S
C375 C376 1.375 . S
C376 H337 0.931 . S
C376 C375 1.375 . S
C376 C377 1.375 . S
C377 C376 1.375 . S
C377 C378 1.361 . S
C378 H338 0.930 . S
C378 C377 1.361 . S
C378 C379 1.399 . S
C379 H339 0.929 . S
C379 C374 1.386 . S
C379 C378 1.399 . S
C380 C359 1.485 . S
C380 C381 1.394 . S
C380 C385 1.360 . S
C381 H340 0.931 . S
C381 C380 1.394 . S
C381 C382 1.372 . S
C382 H341 0.930 . S
C382 C381 1.372 . S
C382 C383 1.397 . S
C383 C382 1.397 . S
C383 C384 1.390 . S
C383 C399 1.476 . S
C384 H342 0.930 . S
C384 C383 1.390 . S
C384 C385 1.366 . S
C385 H343 0.932 . S
C385 C380 1.360 . S
C385 C384 1.366 . S
C386 C360 1.490 . S
C386 C387 1.380 . S
C386 C391 1.386 . S
C387 H344 0.930 . S
C387 C386 1.380 . S
C387 C388 1.381 . S
C388 H345 0.929 . S
C388 C387 1.381 . S
C388 C389 1.371 . S
C389 C388 1.371 . S
C389 C390 1.380 . S
C390 H346 0.931 . S
C390 C389 1.380 . S
C390 C391 1.387 . S
C391 H347 0.930 . S
C391 C386 1.386 . S
C391 C390 1.387 . S
C392 C361 1.519 . S
C392 C393 1.377 . S
C392 C397 1.361 . S
C393 H348 0.929 . S
C393 C392 1.377 . S
C393 C394 1.386 . S
C394 H349 0.931 . S
C394 C393 1.386 . S
C394 C395 1.363 . S
C395 C394 1.363 . S
C395 C396 1.385 . S
C396 H350 0.930 . S
C396 C395 1.385 . S
C396 C397 1.396 . S
C397 H351 0.929 . S
C397 C392 1.361 . S
C397 C396 1.396 . S
C398 O352 1.300 . S
C398 O353 1.209 . S
C398 C371 1.486 . S
C399 O354 1.199 . S
C399 O355 1.297 . S
C399 C383 1.476 . S
H400 O426 0.856 . S
H401 O429 0.852 . S
H402 C437 0.930 . S
H403 C438 0.930 . S
H404 C440 0.930 . S
H405 C441 0.930 . S
H406 C443 0.931 . S
H407 C444 0.930 . S
H408 C446 0.930 . S
H409 C447 0.929 . S
H410 C449 0.930 . S
H411 C450 0.931 . S
H412 C452 0.930 . S
H413 C453 0.929 . S
H414 C455 0.931 . S
H415 C456 0.930 . S
H416 C458 0.930 . S
H417 C459 0.932 . S
H418 C461 0.930 . S
H419 C462 0.929 . S
H420 C464 0.931 . S
H421 C465 0.930 . S
H422 C467 0.929 . S
H423 C468 0.931 . S
H424 C470 0.930 . S
H425 C471 0.929 . S
O426 H400 0.856 . S
O426 C472 1.300 . S
O427 C472 1.209 . S
O428 C473 1.199 1_545 S
O429 H401 0.852 . S
O429 C473 1.297 . S
C430 C431 1.404 . S
C430 C435 1.397 . S
C430 C436 1.492 . S
C431 C430 1.404 . S
C431 C432 1.396 . S
C431 C442 1.492 . S
C432 C431 1.396 . S
C432 C433 1.397 . S
C432 C448 1.509 . S
C433 C432 1.397 . S
C433 C434 1.412 . S
C433 C454 1.485 . S
C434 C433 1.412 . S
C434 C435 1.388 . S
C434 C460 1.490 . S
C435 C430 1.397 . S
C435 C434 1.388 . S
C435 C466 1.519 . S
C436 C430 1.492 . S
C436 C437 1.363 . S
C436 C441 1.390 . S
C437 H402 0.930 . S
C437 C436 1.363 . S
C437 C438 1.372 . S
C438 H403 0.930 . S
C438 C437 1.372 . S
C438 C439 1.383 . S
C439 C438 1.383 . S
C439 C440 1.395 . S
C440 H404 0.930 . S
C440 C439 1.395 . S
C440 C441 1.362 . S
C441 H405 0.930 . S
C441 C436 1.390 . S
C441 C440 1.362 . S
C442 C431 1.492 . S
C442 C443 1.377 . S
C442 C447 1.397 . S
C443 H406 0.931 . S
C443 C442 1.377 . S
C443 C444 1.376 . S
C444 H407 0.930 . S
C444 C443 1.376 . S
C444 C445 1.376 . S
C445 C444 1.376 . S
C445 C446 1.378 . S
C445 C472 1.486 . S
C446 H408 0.930 . S
C446 C445 1.378 . S
C446 C447 1.376 . S
C447 H409 0.929 . S
C447 C442 1.397 . S
C447 C446 1.376 . S
C448 C432 1.509 . S
C448 C449 1.391 . S
C448 C453 1.386 . S
C449 H410 0.930 . S
C449 C448 1.391 . S
C449 C450 1.375 . S
C450 H411 0.931 . S
C450 C449 1.375 . S
C450 C451 1.375 . S
C451 C450 1.375 . S
C451 C452 1.361 . S
C452 H412 0.930 . S
C452 C451 1.361 . S
C452 C453 1.399 . S
C453 H413 0.929 . S
C453 C448 1.386 . S
C453 C452 1.399 . S
C454 C433 1.485 . S
C454 C455 1.394 . S
C454 C459 1.360 . S
C455 H414 0.931 . S
C455 C454 1.394 . S
C455 C456 1.372 . S
C456 H415 0.930 . S
C456 C455 1.372 . S
C456 C457 1.397 . S
C457 C456 1.397 . S
C457 C458 1.390 . S
C457 C473 1.476 . S
C458 H416 0.930 . S
C458 C457 1.390 . S
C458 C459 1.366 . S
C459 H417 0.932 . S
C459 C454 1.360 . S
C459 C458 1.366 . S
C460 C434 1.490 . S
C460 C461 1.380 . S
C460 C465 1.386 . S
C461 H418 0.930 . S
C461 C460 1.380 . S
C461 C462 1.381 . S
C462 H419 0.929 . S
C462 C461 1.381 . S
C462 C463 1.371 . S
C463 C462 1.371 . S
C463 C464 1.380 . S
C464 H420 0.931 . S
C464 C463 1.380 . S
C464 C465 1.387 . S
C465 H421 0.930 . S
C465 C460 1.386 . S
C465 C464 1.387 . S
C466 C435 1.519 . S
C466 C467 1.377 . S
C466 C471 1.361 . S
C467 H422 0.929 . S
C467 C466 1.377 . S
C467 C468 1.386 . S
C468 H423 0.931 . S
C468 C467 1.386 . S
C468 C469 1.363 . S
C469 C468 1.363 . S
C469 C470 1.385 . S
C470 H424 0.930 . S
C470 C469 1.385 . S
C470 C471 1.396 . S
C471 H425 0.929 . S
C471 C466 1.361 . S
C471 C470 1.396 . S
C472 O426 1.300 . S
C472 O427 1.209 . S
C472 C445 1.486 . S
C473 O428 1.199 1_565 S
C473 O429 1.297 . S
C473 C457 1.476 . S
H474 O500 0.856 . S
H475 O503 0.854 . S
H476 C511 0.930 . S
H477 C512 0.930 . S
H478 C514 0.930 . S
H479 C515 0.930 . S
H480 C517 0.931 . S
H481 C518 0.930 1_554 S
H482 C520 0.930 . S
H483 C521 0.929 . S
H484 C523 0.930 . S
H485 C524 0.931 . S
H486 C526 0.930 . S
H487 C527 0.929 . S
H488 C529 0.931 . S
H489 C530 0.930 . S
H490 C532 0.930 . S
H491 C533 0.932 . S
H492 C535 0.930 . S
H493 C536 0.929 . S
H494 C538 0.931 . S
H495 C539 0.930 . S
H496 C541 0.929 . S
H497 C542 0.931 . S
H498 C544 0.930 . S
H499 C545 0.929 . S
O500 H474 0.856 . S
O500 C546 1.300 . S
O501 C546 1.209 . S
O502 C547 1.199 . S
O503 H475 0.854 . S
O503 C547 1.297 . S
C504 C505 1.404 . S
C504 C509 1.397 . S
C504 C510 1.492 . S
C505 C504 1.404 . S
C505 C506 1.396 . S
C505 C516 1.492 . S
C506 C505 1.396 . S
C506 C507 1.397 . S
C506 C522 1.509 . S
C507 C506 1.397 . S
C507 C508 1.412 . S
C507 C528 1.485 . S
C508 C507 1.412 . S
C508 C509 1.388 . S
C508 C534 1.490 . S
C509 C504 1.397 . S
C509 C508 1.388 . S
C509 C540 1.519 . S
C510 C504 1.492 . S
C510 C511 1.363 . S
C510 C515 1.390 . S
C511 H476 0.930 . S
C511 C510 1.363 . S
C511 C512 1.372 . S
C512 H477 0.930 . S
C512 C511 1.372 . S
C512 C513 1.383 . S
C513 C512 1.383 . S
C513 C514 1.395 . S
C514 H478 0.930 . S
C514 C513 1.395 . S
C514 C515 1.362 . S
C515 H479 0.930 . S
C515 C510 1.390 . S
C515 C514 1.362 . S
C516 C505 1.492 . S
C516 C517 1.377 . S
C516 C521 1.397 . S
C517 H480 0.931 . S
C517 C516 1.377 . S
C517 C518 1.376 . S
C518 H481 0.930 1_556 S
C518 C517 1.376 . S
C518 C519 1.376 . S
C519 C518 1.376 . S
C519 C520 1.378 . S
C519 C546 1.486 1_556 S
C520 H482 0.930 . S
C520 C519 1.378 . S
C520 C521 1.376 . S
C521 H483 0.929 . S
C521 C516 1.397 . S
C521 C520 1.376 . S
C522 C506 1.509 . S
C522 C523 1.391 . S
C522 C527 1.386 . S
C523 H484 0.930 . S
C523 C522 1.391 . S
C523 C524 1.375 . S
C524 H485 0.931 . S
C524 C523 1.375 . S
C524 C525 1.375 . S
C525 C524 1.375 . S
C525 C526 1.361 . S
C526 H486 0.930 . S
C526 C525 1.361 . S
C526 C527 1.399 . S
C527 H487 0.929 . S
C527 C522 1.386 . S
C527 C526 1.399 . S
C528 C507 1.485 . S
C528 C529 1.394 . S
C528 C533 1.360 . S
C529 H488 0.931 . S
C529 C528 1.394 . S
C529 C530 1.372 . S
C530 H489 0.930 . S
C530 C529 1.372 . S
C530 C531 1.397 . S
C531 C530 1.397 . S
C531 C532 1.390 . S
C531 C547 1.476 . S
C532 H490 0.930 . S
C532 C531 1.390 . S
C532 C533 1.366 . S
C533 H491 0.932 . S
C533 C528 1.360 . S
C533 C532 1.366 . S
C534 C508 1.490 . S
C534 C535 1.380 . S
C534 C539 1.386 . S
C535 H492 0.930 . S
C535 C534 1.380 . S
C535 C536 1.381 . S
C536 H493 0.929 . S
C536 C535 1.381 . S
C536 C537 1.371 . S
C537 C536 1.371 . S
C537 C538 1.380 . S
C538 H494 0.931 . S
C538 C537 1.380 . S
C538 C539 1.387 . S
C539 H495 0.930 . S
C539 C534 1.386 . S
C539 C538 1.387 . S
C540 C509 1.519 . S
C540 C541 1.377 . S
C540 C545 1.361 . S
C541 H496 0.929 . S
C541 C540 1.377 . S
C541 C542 1.386 . S
C542 H497 0.931 . S
C542 C541 1.386 . S
C542 C543 1.363 . S
C543 C542 1.363 . S
C543 C544 1.385 . S
C544 H498 0.930 . S
C544 C543 1.385 . S
C544 C545 1.396 . S
C545 H499 0.929 . S
C545 C540 1.361 . S
C545 C544 1.396 . S
C546 O500 1.300 . S
C546 O501 1.209 . S
C546 C519 1.486 1_554 S
C547 O502 1.199 . S
C547 O503 1.297 . S
C547 C531 1.476 . S
H548 O574 0.856 . S
H549 O577 0.854 . S
H550 C585 0.930 . S
H551 C586 0.930 . S
H552 C588 0.930 . S
H553 C589 0.930 . S
H554 C591 0.931 . S
H555 C592 0.930 . S
H556 C594 0.931 . S
H557 C595 0.929 . S
H558 C597 0.930 . S
H559 C598 0.931 . S
H560 C600 0.930 . S
H561 C601 0.929 . S
H562 C603 0.931 . S
H563 C604 0.930 . S
H564 C606 0.930 . S
H565 C607 0.932 . S
H566 C609 0.930 . S
H567 C610 0.929 . S
H568 C612 0.931 . S
H569 C613 0.930 . S
H570 C615 0.929 . S
H571 C616 0.931 . S
H572 C618 0.930 . S
H573 C619 0.929 . S
O574 H548 0.856 . S
O574 C620 1.300 . S
O575 C620 1.209 . S
O576 C621 1.199 . S
O577 H549 0.854 . S
O577 C621 1.297 1_565 S
C578 C579 1.404 . S
C578 C583 1.397 . S
C578 C584 1.492 . S
C579 C578 1.404 . S
C579 C580 1.396 . S
C579 C590 1.492 . S
C580 C579 1.396 . S
C580 C581 1.397 . S
C580 C596 1.509 . S
C581 C580 1.397 . S
C581 C582 1.412 . S
C581 C602 1.485 . S
C582 C581 1.412 . S
C582 C583 1.388 . S
C582 C608 1.490 . S
C583 C578 1.397 . S
C583 C582 1.388 . S
C583 C614 1.519 . S
C584 C578 1.492 . S
C584 C585 1.363 . S
C584 C589 1.390 . S
C585 H550 0.930 . S
C585 C584 1.363 . S
C585 C586 1.372 . S
C586 H551 0.930 . S
C586 C585 1.372 . S
C586 C587 1.383 . S
C587 C586 1.383 . S
C587 C588 1.395 . S
C588 H552 0.930 . S
C588 C587 1.395 . S
C588 C589 1.362 . S
C589 H553 0.930 . S
C589 C584 1.390 . S
C589 C588 1.362 . S
C590 C579 1.492 . S
C590 C591 1.377 . S
C590 C595 1.397 . S
C591 H554 0.931 . S
C591 C590 1.377 . S
C591 C592 1.376 1_556 S
C592 H555 0.930 . S
C592 C591 1.376 1_554 S
C592 C593 1.376 . S
C593 C592 1.376 . S
C593 C594 1.380 . S
C593 C620 1.486 . S
C594 H556 0.931 . S
C594 C593 1.380 . S
C594 C595 1.373 1_554 S
C595 H557 0.929 . S
C595 C590 1.397 . S
C595 C594 1.373 1_556 S
C596 C580 1.509 . S
C596 C597 1.391 . S
C596 C601 1.386 . S
C597 H558 0.930 . S
C597 C596 1.391 . S
C597 C598 1.375 . S
C598 H559 0.931 . S
C598 C597 1.375 . S
C598 C599 1.375 . S
C599 C598 1.375 . S
C599 C600 1.361 . S
C600 H560 0.930 . S
C600 C599 1.361 . S
C600 C601 1.399 . S
C601 H561 0.929 . S
C601 C596 1.386 . S
C601 C600 1.399 . S
C602 C581 1.485 . S
C602 C603 1.394 . S
C602 C607 1.360 . S
C603 H562 0.931 . S
C603 C602 1.394 . S
C603 C604 1.372 . S
C604 H563 0.930 . S
C604 C603 1.372 . S
C604 C605 1.397 . S
C605 C604 1.397 . S
C605 C606 1.390 . S
C605 C621 1.476 . S
C606 H564 0.930 . S
C606 C605 1.390 . S
C606 C607 1.366 . S
C607 H565 0.932 . S
C607 C602 1.360 . S
C607 C606 1.366 . S
C608 C582 1.490 . S
C608 C609 1.380 . S
C608 C613 1.386 . S
C609 H566 0.930 . S
C609 C608 1.380 . S
C609 C610 1.381 . S
C610 H567 0.929 . S
C610 C609 1.381 . S
C610 C611 1.371 . S
C611 C610 1.371 . S
C611 C612 1.380 . S
C612 H568 0.931 . S
C612 C611 1.380 . S
C612 C613 1.387 . S
C613 H569 0.930 . S
C613 C608 1.386 . S
C613 C612 1.387 . S
C614 C583 1.519 . S
C614 C615 1.377 . S
C614 C619 1.361 . S
C615 H570 0.929 . S
C615 C614 1.377 . S
C615 C616 1.386 . S
C616 H571 0.931 . S
C616 C615 1.386 . S
C616 C617 1.363 . S
C617 C616 1.363 . S
C617 C618 1.385 . S
C618 H572 0.930 . S
C618 C617 1.385 . S
C618 C619 1.396 . S
C619 H573 0.929 . S
C619 C614 1.361 . S
C619 C618 1.396 . S
C620 O574 1.300 . S
C620 O575 1.209 . S
C620 C593 1.486 . S
C621 O576 1.199 . S
C621 O577 1.297 1_545 S
C621 C605 1.476 . S
H622 O648 0.856 . S
H623 O651 0.854 . S
H624 C659 0.930 . S
H625 C660 0.930 . S
H626 C662 0.930 . S
H627 C663 0.930 . S
H628 C665 0.931 . S
H629 C666 0.930 . S
H630 C668 0.930 . S
H631 C669 0.929 . S
H632 C671 0.930 . S
H633 C672 0.931 . S
H634 C674 0.930 . S
H635 C675 0.929 . S
H636 C677 0.931 . S
H637 C678 0.930 . S
H638 C680 0.930 . S
H639 C681 0.932 . S
H640 C683 0.930 . S
H641 C684 0.929 . S
H642 C686 0.931 . S
H643 C687 0.930 . S
H644 C689 0.929 . S
H645 C690 0.931 . S
H646 C692 0.930 . S
H647 C693 0.929 . S
O648 H622 0.856 . S
O648 C694 1.300 . S
O649 C694 1.209 . S
O650 C695 1.199 . S
O651 H623 0.854 . S
O651 C695 1.297 . S
C652 C653 1.404 . S
C652 C657 1.397 . S
C652 C658 1.492 . S
C653 C652 1.404 . S
C653 C654 1.396 . S
C653 C664 1.492 . S
C654 C653 1.396 . S
C654 C655 1.397 . S
C654 C670 1.509 . S
C655 C654 1.397 . S
C655 C656 1.412 . S
C655 C676 1.485 . S
C656 C655 1.412 . S
C656 C657 1.388 . S
C656 C682 1.490 . S
C657 C652 1.397 . S
C657 C656 1.388 . S
C657 C688 1.519 . S
C658 C652 1.492 . S
C658 C659 1.363 . S
C658 C663 1.390 . S
C659 H624 0.930 . S
C659 C658 1.363 . S
C659 C660 1.372 . S
C660 H625 0.930 . S
C660 C659 1.372 . S
C660 C661 1.383 . S
C661 C660 1.383 . S
C661 C662 1.395 . S
C662 H626 0.930 . S
C662 C661 1.395 . S
C662 C663 1.362 . S
C663 H627 0.930 . S
C663 C658 1.390 . S
C663 C662 1.362 . S
C664 C653 1.492 . S
C664 C665 1.377 . S
C664 C669 1.397 . S
C665 H628 0.931 . S
C665 C664 1.377 . S
C665 C666 1.376 1_556 S
C666 H629 0.930 . S
C666 C665 1.376 1_554 S
C666 C667 1.376 . S
C667 C666 1.376 . S
C667 C668 1.378 . S
C667 C694 1.486 . S
C668 H630 0.930 . S
C668 C667 1.378 . S
C668 C669 1.376 1_554 S
C669 H631 0.929 . S
C669 C664 1.397 . S
C669 C668 1.376 1_556 S
C670 C654 1.509 . S
C670 C671 1.391 . S
C670 C675 1.386 . S
C671 H632 0.930 . S
C671 C670 1.391 . S
C671 C672 1.375 . S
C672 H633 0.931 . S
C672 C671 1.375 . S
C672 C673 1.375 . S
C673 C672 1.375 . S
C673 C674 1.361 . S
C674 H634 0.930 . S
C674 C673 1.361 . S
C674 C675 1.399 . S
C675 H635 0.929 . S
C675 C670 1.386 . S
C675 C674 1.399 . S
C676 C655 1.485 . S
C676 C677 1.394 . S
C676 C681 1.360 . S
C677 H636 0.931 . S
C677 C676 1.394 . S
C677 C678 1.372 . S
C678 H637 0.930 . S
C678 C677 1.372 . S
C678 C679 1.397 . S
C679 C678 1.397 . S
C679 C680 1.390 . S
C679 C695 1.476 . S
C680 H638 0.930 . S
C680 C679 1.390 . S
C680 C681 1.366 . S
C681 H639 0.932 . S
C681 C676 1.360 . S
C681 C680 1.366 . S
C682 C656 1.490 . S
C682 C683 1.380 . S
C682 C687 1.386 . S
C683 H640 0.930 . S
C683 C682 1.380 . S
C683 C684 1.381 . S
C684 H641 0.929 . S
C684 C683 1.381 . S
C684 C685 1.371 . S
C685 C684 1.371 . S
C685 C686 1.380 . S
C686 H642 0.931 . S
C686 C685 1.380 . S
C686 C687 1.387 . S
C687 H643 0.930 . S
C687 C682 1.386 . S
C687 C686 1.387 . S
C688 C657 1.519 . S
C688 C689 1.377 . S
C688 C693 1.361 . S
C689 H644 0.929 . S
C689 C688 1.377 . S
C689 C690 1.386 . S
C690 H645 0.931 . S
C690 C689 1.386 . S
C690 C691 1.363 . S
C691 C690 1.363 . S
C691 C692 1.385 . S
C692 H646 0.930 . S
C692 C691 1.385 . S
C692 C693 1.396 . S
C693 H647 0.929 . S
C693 C688 1.361 . S
C693 C692 1.396 . S
C694 O648 1.300 . S
C694 O649 1.209 . S
C694 C667 1.486 . S
C695 O650 1.199 . S
C695 O651 1.297 . S
C695 C679 1.476 . S
H696 O722 0.856 . S
H697 O725 0.854 . S
H698 C733 0.930 . S
H699 C734 0.930 . S
H700 C736 0.930 . S
H701 C737 0.930 . S
H702 C739 0.931 . S
H703 C740 0.930 . S
H704 C742 0.930 . S
H705 C743 0.929 . S
H706 C745 0.930 . S
H707 C746 0.931 . S
H708 C748 0.930 . S
H709 C749 0.929 . S
H710 C751 0.931 . S
H711 C752 0.930 . S
H712 C754 0.930 . S
H713 C755 0.932 . S
H714 C757 0.930 . S
H715 C758 0.929 . S
H716 C760 0.931 . S
H717 C761 0.930 . S
H718 C763 0.929 . S
H719 C764 0.931 . S
H720 C766 0.930 . S
H721 C767 0.929 . S
O722 H696 0.856 . S
O722 C768 1.300 . S
O723 C768 1.209 . S
O724 C769 1.199 . S
O725 H697 0.854 . S
O725 C769 1.297 . S
C726 C727 1.404 . S
C726 C731 1.397 . S
C726 C732 1.492 . S
C727 C726 1.404 . S
C727 C728 1.396 . S
C727 C738 1.492 . S
C728 C727 1.396 . S
C728 C729 1.397 . S
C728 C744 1.509 . S
C729 C728 1.397 . S
C729 C730 1.412 . S
C729 C750 1.485 . S
C730 C729 1.412 . S
C730 C731 1.388 . S
C730 C756 1.490 . S
C731 C726 1.397 . S
C731 C730 1.388 . S
C731 C762 1.519 . S
C732 C726 1.492 . S
C732 C733 1.363 . S
C732 C737 1.390 . S
C733 H698 0.930 . S
C733 C732 1.363 . S
C733 C734 1.372 . S
C734 H699 0.930 . S
C734 C733 1.372 . S
C734 C735 1.383 . S
C735 C734 1.383 . S
C735 C736 1.395 . S
C736 H700 0.930 . S
C736 C735 1.395 . S
C736 C737 1.362 . S
C737 H701 0.930 . S
C737 C732 1.390 . S
C737 C736 1.362 . S
C738 C727 1.492 . S
C738 C739 1.377 . S
C738 C743 1.397 . S
C739 H702 0.931 . S
C739 C738 1.377 . S
C739 C740 1.376 . S
C740 H703 0.930 . S
C740 C739 1.376 . S
C740 C741 1.376 . S
C741 C740 1.376 . S
C741 C742 1.378 . S
C741 C768 1.486 . S
C742 H704 0.930 . S
C742 C741 1.378 . S
C742 C743 1.376 . S
C743 H705 0.929 . S
C743 C738 1.397 . S
C743 C742 1.376 . S
C744 C728 1.509 . S
C744 C745 1.391 . S
C744 C749 1.386 . S
C745 H706 0.930 . S
C745 C744 1.391 . S
C745 C746 1.375 . S
C746 H707 0.931 . S
C746 C745 1.375 . S
C746 C747 1.375 . S
C747 C746 1.375 . S
C747 C748 1.361 . S
C748 H708 0.930 . S
C748 C747 1.361 . S
C748 C749 1.399 . S
C749 H709 0.929 . S
C749 C744 1.386 . S
C749 C748 1.399 . S
C750 C729 1.485 . S
C750 C751 1.394 . S
C750 C755 1.360 . S
C751 H710 0.931 . S
C751 C750 1.394 . S
C751 C752 1.372 . S
C752 H711 0.930 . S
C752 C751 1.372 . S
C752 C753 1.397 . S
C753 C752 1.397 . S
C753 C754 1.390 . S
C753 C769 1.476 . S
C754 H712 0.930 . S
C754 C753 1.390 . S
C754 C755 1.366 . S
C755 H713 0.932 . S
C755 C750 1.360 . S
C755 C754 1.366 . S
C756 C730 1.490 . S
C756 C757 1.380 . S
C756 C761 1.386 . S
C757 H714 0.930 . S
C757 C756 1.380 . S
C757 C758 1.381 . S
C758 H715 0.929 . S
C758 C757 1.381 . S
C758 C759 1.371 . S
C759 C758 1.371 . S
C759 C760 1.380 . S
C760 H716 0.931 . S
C760 C759 1.380 . S
C760 C761 1.387 . S
C761 H717 0.930 . S
C761 C756 1.386 . S
C761 C760 1.387 . S
C762 C731 1.519 . S
C762 C763 1.377 . S
C762 C767 1.361 . S
C763 H718 0.929 . S
C763 C762 1.377 . S
C763 C764 1.386 . S
C764 H719 0.931 . S
C764 C763 1.386 . S
C764 C765 1.363 . S
C765 C764 1.363 . S
C765 C766 1.385 . S
C766 H720 0.930 . S
C766 C765 1.385 . S
C766 C767 1.396 . S
C767 H721 0.929 . S
C767 C762 1.361 . S
C767 C766 1.396 . S
C768 O722 1.300 . S
C768 O723 1.209 . S
C768 C741 1.486 . S
C769 O724 1.199 . S
C769 O725 1.297 . S
C769 C753 1.476 . S
H770 O796 0.856 . S
H771 O799 0.854 . S
H772 C807 0.930 . S
H773 C808 0.930 . S
H774 C810 0.930 . S
H775 C811 0.930 . S
H776 C813 0.931 . S
H777 C814 0.930 . S
H778 C816 0.930 . S
H779 C817 0.929 . S
H780 C819 0.930 . S
H781 C820 0.931 . S
H782 C822 0.930 . S
H783 C823 0.929 . S
H784 C825 0.931 . S
H785 C826 0.930 . S
H786 C828 0.930 . S
H787 C829 0.932 . S
H788 C831 0.930 . S
H789 C832 0.929 . S
H790 C834 0.931 . S
H791 C835 0.930 . S
H792 C837 0.929 . S
H793 C838 0.931 . S
H794 C840 0.930 . S
H795 C841 0.929 . S
O796 H770 0.856 . S
O796 C842 1.300 . S
O797 C842 1.209 . S
O798 C843 1.199 . S
O799 H771 0.854 . S
O799 C843 1.297 . S
C800 C801 1.404 . S
C800 C805 1.397 . S
C800 C806 1.492 . S
C801 C800 1.404 . S
C801 C802 1.396 . S
C801 C812 1.492 . S
C802 C801 1.396 . S
C802 C803 1.397 . S
C802 C818 1.509 . S
C803 C802 1.397 . S
C803 C804 1.412 . S
C803 C824 1.485 . S
C804 C803 1.412 . S
C804 C805 1.388 . S
C804 C830 1.490 . S
C805 C800 1.397 . S
C805 C804 1.388 . S
C805 C836 1.519 . S
C806 C800 1.492 . S
C806 C807 1.363 . S
C806 C811 1.390 . S
C807 H772 0.930 . S
C807 C806 1.363 . S
C807 C808 1.372 . S
C808 H773 0.930 . S
C808 C807 1.372 . S
C808 C809 1.383 . S
C809 C808 1.383 . S
C809 C810 1.395 . S
C810 H774 0.930 . S
C810 C809 1.395 . S
C810 C811 1.362 . S
C811 H775 0.930 . S
C811 C806 1.390 . S
C811 C810 1.362 . S
C812 C801 1.492 . S
C812 C813 1.377 . S
C812 C817 1.397 . S
C813 H776 0.931 . S
C813 C812 1.377 . S
C813 C814 1.376 . S
C814 H777 0.930 . S
C814 C813 1.376 . S
C814 C815 1.376 . S
C815 C814 1.376 . S
C815 C816 1.378 . S
C815 C842 1.486 . S
C816 H778 0.930 . S
C816 C815 1.378 . S
C816 C817 1.376 . S
C817 H779 0.929 . S
C817 C812 1.397 . S
C817 C816 1.376 . S
C818 C802 1.509 . S
C818 C819 1.391 . S
C818 C823 1.386 . S
C819 H780 0.930 . S
C819 C818 1.391 . S
C819 C820 1.375 . S
C820 H781 0.931 . S
C820 C819 1.375 . S
C820 C821 1.375 . S
C821 C820 1.375 . S
C821 C822 1.361 . S
C822 H782 0.930 . S
C822 C821 1.361 . S
C822 C823 1.399 . S
C823 H783 0.929 . S
C823 C818 1.386 . S
C823 C822 1.399 . S
C824 C803 1.485 . S
C824 C825 1.394 . S
C824 C829 1.360 . S
C825 H784 0.931 . S
C825 C824 1.394 . S
C825 C826 1.372 . S
C826 H785 0.930 . S
C826 C825 1.372 . S
C826 C827 1.397 . S
C827 C826 1.397 . S
C827 C828 1.390 . S
C827 C843 1.476 . S
C828 H786 0.930 . S
C828 C827 1.390 . S
C828 C829 1.366 . S
C829 H787 0.932 . S
C829 C824 1.360 . S
C829 C828 1.366 . S
C830 C804 1.490 . S
C830 C831 1.380 . S
C830 C835 1.386 . S
C831 H788 0.930 . S
C831 C830 1.380 . S
C831 C832 1.381 . S
C832 H789 0.929 . S
C832 C831 1.381 . S
C832 C833 1.371 . S
C833 C832 1.371 . S
C833 C834 1.380 . S
C834 H790 0.931 . S
C834 C833 1.380 . S
C834 C835 1.387 . S
C835 H791 0.930 . S
C835 C830 1.386 . S
C835 C834 1.387 . S
C836 C805 1.519 . S
C836 C837 1.377 . S
C836 C841 1.361 . S
C837 H792 0.929 . S
C837 C836 1.377 . S
C837 C838 1.386 . S
C838 H793 0.931 . S
C838 C837 1.386 . S
C838 C839 1.363 . S
C839 C838 1.363 . S
C839 C840 1.385 . S
C840 H794 0.930 . S
C840 C839 1.385 . S
C840 C841 1.396 . S
C841 H795 0.929 . S
C841 C836 1.361 . S
C841 C840 1.396 . S
C842 O796 1.300 . S
C842 O797 1.209 . S
C842 C815 1.486 . S
C843 O798 1.199 . S
C843 O799 1.297 . S
C843 C827 1.476 . S
H844 O870 0.856 . S
H845 O873 0.854 . S
H846 C881 0.930 . S
H847 C882 0.930 . S
H848 C884 0.930 . S
H849 C885 0.930 . S
H850 C887 0.931 . S
H851 C888 0.930 . S
H852 C890 0.930 . S
H853 C891 0.929 . S
H854 C893 0.930 . S
H855 C894 0.931 . S
H856 C896 0.930 . S
H857 C897 0.929 . S
H858 C899 0.931 . S
H859 C900 0.930 . S
H860 C902 0.930 . S
H861 C903 0.932 . S
H862 C905 0.930 . S
H863 C906 0.929 . S
H864 C908 0.931 . S
H865 C909 0.930 . S
H866 C911 0.929 . S
H867 C912 0.931 . S
H868 C914 0.930 . S
H869 C915 0.929 . S
O870 H844 0.856 . S
O870 C916 1.300 . S
O871 C916 1.209 . S
O872 C917 1.199 . S
O873 H845 0.854 . S
O873 C917 1.297 . S
C874 C875 1.404 . S
C874 C879 1.397 . S
C874 C880 1.492 . S
C875 C874 1.404 . S
C875 C876 1.396 . S
C875 C886 1.492 . S
C876 C875 1.396 . S
C876 C877 1.397 . S
C876 C892 1.509 . S
C877 C876 1.397 . S
C877 C878 1.412 . S
C877 C898 1.485 . S
C878 C877 1.412 . S
C878 C879 1.388 . S
C878 C904 1.490 . S
C879 C874 1.397 . S
C879 C878 1.388 . S
C879 C910 1.519 . S
C880 C874 1.492 . S
C880 C881 1.363 . S
C880 C885 1.390 . S
C881 H846 0.930 . S
C881 C880 1.363 . S
C881 C882 1.372 . S
C882 H847 0.930 . S
C882 C881 1.372 . S
C882 C883 1.383 . S
C883 C882 1.383 . S
C883 C884 1.395 . S
C884 H848 0.930 . S
C884 C883 1.395 . S
C884 C885 1.362 . S
C885 H849 0.930 . S
C885 C880 1.390 . S
C885 C884 1.362 . S
C886 C875 1.492 . S
C886 C887 1.377 . S
C886 C891 1.397 . S
C887 H850 0.931 . S
C887 C886 1.377 . S
C887 C888 1.376 . S
C888 H851 0.930 . S
C888 C887 1.376 . S
C888 C889 1.376 . S
C889 C888 1.376 . S
C889 C890 1.378 . S
C889 C916 1.486 . S
C890 H852 0.930 . S
C890 C889 1.378 . S
C890 C891 1.376 . S
C891 H853 0.929 . S
C891 C886 1.397 . S
C891 C890 1.376 . S
C892 C876 1.509 . S
C892 C893 1.391 . S
C892 C897 1.386 . S
C893 H854 0.930 . S
C893 C892 1.391 . S
C893 C894 1.375 . S
C894 H855 0.931 . S
C894 C893 1.375 . S
C894 C895 1.375 . S
C895 C894 1.375 . S
C895 C896 1.361 . S
C896 H856 0.930 . S
C896 C895 1.361 . S
C896 C897 1.399 . S
C897 H857 0.929 . S
C897 C892 1.386 . S
C897 C896 1.399 . S
C898 C877 1.485 . S
C898 C899 1.394 . S
C898 C903 1.360 . S
C899 H858 0.931 . S
C899 C898 1.394 . S
C899 C900 1.372 . S
C900 H859 0.930 . S
C900 C899 1.372 . S
C900 C901 1.397 . S
C901 C900 1.397 . S
C901 C902 1.390 . S
C901 C917 1.476 . S
C902 H860 0.930 . S
C902 C901 1.390 . S
C902 C903 1.366 . S
C903 H861 0.932 . S
C903 C898 1.360 . S
C903 C902 1.366 . S
C904 C878 1.490 . S
C904 C905 1.380 . S
C904 C909 1.386 . S
C905 H862 0.930 . S
C905 C904 1.380 . S
C905 C906 1.381 . S
C906 H863 0.929 . S
C906 C905 1.381 . S
C906 C907 1.371 . S
C907 C906 1.371 . S
C907 C908 1.380 . S
C908 H864 0.931 . S
C908 C907 1.380 . S
C908 C909 1.387 . S
C909 H865 0.930 . S
C909 C904 1.386 . S
C909 C908 1.387 . S
C910 C879 1.519 . S
C910 C911 1.377 . S
C910 C915 1.361 . S
C911 H866 0.929 . S
C911 C910 1.377 . S
C911 C912 1.386 . S
C912 H867 0.931 . S
C912 C911 1.386 . S
C912 C913 1.363 . S
C913 C912 1.363 . S
C913 C914 1.385 . S
C914 H868 0.930 . S
C914 C913 1.385 . S
C914 C915 1.396 . S
C915 H869 0.929 . S
C915 C910 1.361 . S
C915 C914 1.396 . S
C916 O870 1.300 . S
C916 O871 1.209 . S
C916 C889 1.486 . S
C917 O872 1.199 . S
C917 O873 1.297 . S
C917 C901 1.476 . S
H918 O944 0.856 . S
H919 O947 0.854 . S
H920 C955 0.930 . S
H921 C956 0.930 . S
H922 C958 0.930 . S
H923 C959 0.930 . S
H924 C961 0.947 . S
H925 C962 0.930 1_655 S
H926 C964 0.930 . S
H927 C965 0.929 . S
H928 C967 0.930 . S
H929 C968 0.931 1_655 S
H930 C970 0.930 . S
H931 C971 0.929 . S
H932 C973 0.931 . S
H933 C974 0.930 . S
H934 C976 0.930 . S
H935 C977 0.932 . S
H936 C979 0.930 . S
H937 C980 0.929 . S
H938 C982 0.931 . S
H939 C983 0.930 . S
H940 C985 0.929 . S
H941 C986 0.931 . S
H942 C988 0.930 . S
H943 C989 0.929 . S
O944 H918 0.856 . S
O944 C990 1.300 . S
O945 C990 1.209 . S
O946 C991 1.199 1_655 S
O947 H919 0.854 . S
O947 C991 1.297 . S
C948 C949 1.404 . S
C948 C953 1.397 . S
C948 C954 1.492 . S
C949 C948 1.404 . S
C949 C950 1.396 . S
C949 C960 1.492 . S
C950 C949 1.396 . S
C950 C951 1.397 . S
C950 C966 1.509 . S
C951 C950 1.397 . S
C951 C952 1.424 . S
C951 C972 1.485 . S
C952 C951 1.424 . S
C952 C953 1.377 . S
C952 C978 1.490 1_455 S
C953 C948 1.397 . S
C953 C952 1.377 . S
C953 C984 1.498 1_455 S
C954 C948 1.492 . S
C954 C955 1.363 1_455 S
C954 C959 1.390 . S
C955 H920 0.930 . S
C955 C954 1.363 1_655 S
C955 C956 1.372 . S
C956 H921 0.930 . S
C956 C955 1.372 . S
C956 C957 1.383 . S
C957 C956 1.383 . S
C957 C958 1.395 1_655 S
C958 H922 0.930 . S
C958 C957 1.395 1_455 S
C958 C959 1.362 . S
C959 H923 0.930 . S
C959 C954 1.390 . S
C959 C958 1.362 . S
C960 C949 1.492 . S
C960 C961 1.360 1_455 S
C960 C965 1.397 . S
C961 H924 0.947 . S
C961 C960 1.360 1_655 S
C961 C962 1.379 1_655 S
C962 H925 0.930 1_455 S
C962 C961 1.379 1_455 S
C962 C963 1.376 . S
C963 C962 1.376 . S
C963 C964 1.378 . S
C963 C990 1.486 . S
C964 H926 0.930 . S
C964 C963 1.378 . S
C964 C965 1.376 . S
C965 H927 0.929 . S
C965 C960 1.397 . S
C965 C964 1.376 . S
C966 C950 1.509 . S
C966 C967 1.391 1_455 S
C966 C971 1.386 . S
C967 H928 0.930 . S
C967 C966 1.391 1_655 S
C967 C968 1.375 1_655 S
C968 H929 0.931 1_455 S
C968 C967 1.375 1_455 S
C968 C969 1.375 . S
C969 C968 1.375 . S
C969 C970 1.361 . S
C970 H930 0.930 . S
C970 C969 1.361 . S
C970 C971 1.399 . S
C971 H931 0.929 . S
C971 C966 1.386 . S
C971 C970 1.399 . S
C972 C951 1.485 . S
C972 C973 1.394 1_455 S
C972 C977 1.360 . S
C973 H932 0.931 . S
C973 C972 1.394 1_655 S
C973 C974 1.372 . S
C974 H933 0.930 . S
C974 C973 1.372 . S
C974 C975 1.397 1_655 S
C975 C974 1.397 1_455 S
C975 C976 1.390 . S
C975 C991 1.476 . S
C976 H934 0.930 . S
C976 C975 1.390 . S
C976 C977 1.366 . S
C977 H935 0.932 . S
C977 C972 1.360 . S
C977 C976 1.366 . S
C978 C952 1.490 1_655 S
C978 C979 1.380 . S
C978 C983 1.386 1_655 S
C979 H936 0.930 . S
C979 C978 1.380 . S
C979 C980 1.381 . S
C980 H937 0.929 . S
C980 C979 1.381 . S
C980 C981 1.371 . S
C981 C980 1.371 . S
C981 C982 1.380 1_655 S
C982 H938 0.931 . S
C982 C981 1.380 1_455 S
C982 C983 1.387 . S
C983 H939 0.930 . S
C983 C978 1.386 1_455 S
C983 C982 1.387 . S
C984 C953 1.498 1_655 S
C984 C985 1.432 . S
C984 C989 1.326 1_655 S
C985 H940 0.929 . S
C985 C984 1.432 . S
C985 C986 1.386 . S
C986 H941 0.931 . S
C986 C985 1.386 . S
C986 C987 1.363 . S
C987 C986 1.363 . S
C987 C988 1.385 1_655 S
C988 H942 0.930 . S
C988 C987 1.385 1_455 S
C988 C989 1.396 . S
C989 H943 0.929 . S
C989 C984 1.326 1_455 S
C989 C988 1.396 . S
C990 O944 1.300 . S
C990 O945 1.209 . S
C990 C963 1.486 . S
C991 O946 1.199 1_455 S
C991 O947 1.297 . S
C991 C975 1.476 . S
H992 O1018 0.856 . S
H993 O1021 0.854 . S
H994 C1029 0.930 . S
H995 C1030 0.930 . S
H996 C1032 0.930 . S
H997 C1033 0.930 . S
H998 C1035 0.931 . S
H999 C1036 0.930 . S
H1000 C1038 0.930 . S
H1001 C1039 0.929 . S
H1002 C1041 0.930 . S
H1003 C1042 0.931 . S
H1004 C1044 0.930 . S
H1005 C1045 0.929 . S
H1006 C1047 0.931 . S
H1007 C1048 0.930 . S
H1008 C1050 0.930 . S
H1009 C1051 0.932 . S
H1010 C1053 0.930 . S
H1011 C1054 0.929 . S
H1012 C1056 0.931 . S
H1013 C1057 0.930 . S
H1014 C1059 0.929 . S
H1015 C1060 0.931 . S
H1016 C1062 0.930 . S
H1017 C1063 0.929 . S
O1018 H992 0.856 . S
O1018 C1064 1.300 . S
O1019 C1064 1.209 . S
O1020 C1065 1.199 . S
O1021 H993 0.854 . S
O1021 C1065 1.297 . S
C1022 C1023 1.404 . S
C1022 C1027 1.397 . S
C1022 C1028 1.492 . S
C1023 C1022 1.404 . S
C1023 C1024 1.396 . S
C1023 C1034 1.492 . S
C1024 C1023 1.396 . S
C1024 C1025 1.397 . S
C1024 C1040 1.509 . S
C1025 C1024 1.397 . S
C1025 C1026 1.412 . S
C1025 C1046 1.485 . S
C1026 C1025 1.412 . S
C1026 C1027 1.388 . S
C1026 C1052 1.490 . S
C1027 C1022 1.397 . S
C1027 C1026 1.388 . S
C1027 C1058 1.519 . S
C1028 C1022 1.492 . S
C1028 C1029 1.363 . S
C1028 C1033 1.390 . S
C1029 H994 0.930 . S
C1029 C1028 1.363 . S
C1029 C1030 1.372 . S
C1030 H995 0.930 . S
C1030 C1029 1.372 . S
C1030 C1031 1.383 . S
C1031 C1030 1.383 . S
C1031 C1032 1.395 . S
C1032 H996 0.930 . S
C1032 C1031 1.395 . S
C1032 C1033 1.362 . S
C1033 H997 0.930 . S
C1033 C1028 1.390 . S
C1033 C1032 1.362 . S
C1034 C1023 1.492 . S
C1034 C1035 1.377 . S
C1034 C1039 1.397 . S
C1035 H998 0.931 . S
C1035 C1034 1.377 . S
C1035 C1036 1.376 . S
C1036 H999 0.930 . S
C1036 C1035 1.376 . S
C1036 C1037 1.376 . S
C1037 C1036 1.376 . S
C1037 C1038 1.378 . S
C1037 C1064 1.486 . S
C1038 H1000 0.930 . S
C1038 C1037 1.378 . S
C1038 C1039 1.376 . S
C1039 H1001 0.929 . S
C1039 C1034 1.397 . S
C1039 C1038 1.376 . S
C1040 C1024 1.509 . S
C1040 C1041 1.391 . S
C1040 C1045 1.386 . S
C1041 H1002 0.930 . S
C1041 C1040 1.391 . S
C1041 C1042 1.375 . S
C1042 H1003 0.931 . S
C1042 C1041 1.375 . S
C1042 C1043 1.375 . S
C1043 C1042 1.375 . S
C1043 C1044 1.361 . S
C1044 H1004 0.930 . S
C1044 C1043 1.361 . S
C1044 C1045 1.399 . S
C1045 H1005 0.929 . S
C1045 C1040 1.386 . S
C1045 C1044 1.399 . S
C1046 C1025 1.485 . S
C1046 C1047 1.394 . S
C1046 C1051 1.360 . S
C1047 H1006 0.931 . S
C1047 C1046 1.394 . S
C1047 C1048 1.372 . S
C1048 H1007 0.930 . S
C1048 C1047 1.372 . S
C1048 C1049 1.397 . S
C1049 C1048 1.397 . S
C1049 C1050 1.390 . S
C1049 C1065 1.476 . S
C1050 H1008 0.930 . S
C1050 C1049 1.390 . S
C1050 C1051 1.366 . S
C1051 H1009 0.932 . S
C1051 C1046 1.360 . S
C1051 C1050 1.366 . S
C1052 C1026 1.490 . S
C1052 C1053 1.380 . S
C1052 C1057 1.386 . S
C1053 H1010 0.930 . S
C1053 C1052 1.380 . S
C1053 C1054 1.381 . S
C1054 H1011 0.929 . S
C1054 C1053 1.381 . S
C1054 C1055 1.371 . S
C1055 C1054 1.371 . S
C1055 C1056 1.380 . S
C1056 H1012 0.931 . S
C1056 C1055 1.380 . S
C1056 C1057 1.387 . S
C1057 H1013 0.930 . S
C1057 C1052 1.386 . S
C1057 C1056 1.387 . S
C1058 C1027 1.519 . S
C1058 C1059 1.377 . S
C1058 C1063 1.361 . S
C1059 H1014 0.929 . S
C1059 C1058 1.377 . S
C1059 C1060 1.386 . S
C1060 H1015 0.931 . S
C1060 C1059 1.386 . S
C1060 C1061 1.363 . S
C1061 C1060 1.363 . S
C1061 C1062 1.385 . S
C1062 H1016 0.930 . S
C1062 C1061 1.385 . S
C1062 C1063 1.396 . S
C1063 H1017 0.929 . S
C1063 C1058 1.361 . S
C1063 C1062 1.396 . S
C1064 O1018 1.300 . S
C1064 O1019 1.209 . S
C1064 C1037 1.486 . S
C1065 O1020 1.199 . S
C1065 O1021 1.297 . S
C1065 C1049 1.476 . S
H1066 O1092 0.856 . S
H1067 O1095 0.854 . S
H1068 C1103 0.930 . S
H1069 C1104 0.930 . S
H1070 C1106 0.930 . S
H1071 C1107 0.930 . S
H1072 C1109 0.931 . S
H1073 C1110 0.941 . S
H1074 C1112 0.930 . S
H1075 C1113 0.929 . S
H1076 C1115 0.930 . S
H1077 C1116 0.931 . S
H1078 C1118 0.930 . S
H1079 C1119 0.929 . S
H1080 C1121 0.931 . S
H1081 C1122 0.930 . S
H1082 C1124 0.930 . S
H1083 C1125 0.932 . S
H1084 C1127 0.930 . S
H1085 C1128 0.929 . S
H1086 C1130 0.931 . S
H1087 C1131 0.930 . S
H1088 C1133 0.929 . S
H1089 C1134 0.931 . S
H1090 C1136 0.930 . S
H1091 C1137 0.929 . S
O1092 H1066 0.856 . S
O1092 C1138 1.300 . S
O1093 C1138 1.209 . S
O1094 C1139 1.199 1_545 S
O1095 H1067 0.854 . S
O1095 C1139 1.297 . S
C1096 C1097 1.404 . S
C1096 C1101 1.414 . S
C1096 C1102 1.492 . S
C1097 C1096 1.404 . S
C1097 C1098 1.396 . S
C1097 C1108 1.492 . S
C1098 C1097 1.396 . S
C1098 C1099 1.397 . S
C1098 C1114 1.509 . S
C1099 C1098 1.397 . S
C1099 C1100 1.412 . S
C1099 C1120 1.485 . S
C1100 C1099 1.412 . S
C1100 C1101 1.364 . S
C1100 C1126 1.490 1_565 S
C1101 C1096 1.414 . S
C1101 C1100 1.364 . S
C1101 C1132 1.534 1_565 S
C1102 C1096 1.492 . S
C1102 C1103 1.363 1_565 S
C1102 C1107 1.390 . S
C1103 H1068 0.930 . S
C1103 C1102 1.363 1_545 S
C1103 C1104 1.372 . S
C1104 H1069 0.930 . S
C1104 C1103 1.372 . S
C1104 C1105 1.383 . S
C1105 C1104 1.383 . S
C1105 C1106 1.395 1_545 S
C1106 H1070 0.930 . S
C1106 C1105 1.395 1_565 S
C1106 C1107 1.362 . S
C1107 H1071 0.930 . S
C1107 C1102 1.390 . S
C1107 C1106 1.362 . S
C1108 C1097 1.492 . S
C1108 C1109 1.377 1_565 S
C1108 C1113 1.397 . S
C1109 H1072 0.931 . S
C1109 C1108 1.377 1_545 S
C1109 C1110 1.382 . S
C1110 H1073 0.941 . S
C1110 C1109 1.382 . S
C1110 C1111 1.359 1_545 S
C1111 C1110 1.359 1_565 S
C1111 C1112 1.378 . S
C1111 C1138 1.486 . S
C1112 H1074 0.930 . S
C1112 C1111 1.378 . S
C1112 C1113 1.376 . S
C1113 H1075 0.929 . S
C1113 C1108 1.397 . S
C1113 C1112 1.376 . S
C1114 C1098 1.509 . S
C1114 C1115 1.391 1_565 S
C1114 C1119 1.386 . S
C1115 H1076 0.930 . S
C1115 C1114 1.391 1_545 S
C1115 C1116 1.375 . S
C1116 H1077 0.931 . S
C1116 C1115 1.375 . S
C1116 C1117 1.375 1_545 S
C1117 C1116 1.375 1_565 S
C1117 C1118 1.361 . S
C1118 H1078 0.930 . S
C1118 C1117 1.361 . S
C1118 C1119 1.399 . S
C1119 H1079 0.929 . S
C1119 C1114 1.386 . S
C1119 C1118 1.399 . S
C1120 C1099 1.485 . S
C1120 C1121 1.394 1_565 S
C1120 C1125 1.360 . S
C1121 H1080 0.931 . S
C1121 C1120 1.394 1_545 S
C1121 C1122 1.372 . S
C1122 H1081 0.930 . S
C1122 C1121 1.372 . S
C1122 C1123 1.397 1_545 S
C1123 C1122 1.397 1_565 S
C1123 C1124 1.390 . S
C1123 C1139 1.476 . S
C1124 H1082 0.930 . S
C1124 C1123 1.390 . S
C1124 C1125 1.366 . S
C1125 H1083 0.932 . S
C1125 C1120 1.360 . S
C1125 C1124 1.366 . S
C1126 C1100 1.490 1_545 S
C1126 C1127 1.380 . S
C1126 C1131 1.386 1_545 S
C1127 H1084 0.930 . S
C1127 C1126 1.380 . S
C1127 C1128 1.381 . S
C1128 H1085 0.929 . S
C1128 C1127 1.381 . S
C1128 C1129 1.371 . S
C1129 C1128 1.371 . S
C1129 C1130 1.380 1_545 S
C1130 H1086 0.931 . S
C1130 C1129 1.380 1_565 S
C1130 C1131 1.387 . S
C1131 H1087 0.930 . S
C1131 C1126 1.386 1_565 S
C1131 C1130 1.387 . S
C1132 C1101 1.534 1_545 S
C1132 C1133 1.377 . S
C1132 C1137 1.360 1_545 S
C1133 H1088 0.929 . S
C1133 C1132 1.377 . S
C1133 C1134 1.386 . S
C1134 H1089 0.931 . S
C1134 C1133 1.386 . S
C1134 C1135 1.363 1_545 S
C1135 C1134 1.363 1_565 S
C1135 C1136 1.385 . S
C1136 H1090 0.930 . S
C1136 C1135 1.385 . S
C1136 C1137 1.396 . S
C1137 H1091 0.929 . S
C1137 C1132 1.360 1_565 S
C1137 C1136 1.396 . S
C1138 O1092 1.300 . S
C1138 O1093 1.209 . S
C1138 C1111 1.486 . S
C1139 O1094 1.199 1_565 S
C1139 O1095 1.297 . S
C1139 C1123 1.476 . S
H1140 O1166 0.856 . S
H1141 O1169 0.854 . S
H1142 C1177 0.930 . S
H1143 C1178 0.930 . S
H1144 C1180 0.930 . S
H1145 C1181 0.930 . S
H1146 C1183 0.931 . S
H1147 C1184 0.930 . S
H1148 C1186 0.930 . S
H1149 C1187 0.929 . S
H1150 C1189 0.930 . S
H1151 C1190 0.931 . S
H1152 C1192 0.930 . S
H1153 C1193 0.929 . S
H1154 C1195 0.931 . S
H1155 C1196 0.930 . S
H1156 C1198 0.930 . S
H1157 C1199 0.932 . S
H1158 C1201 0.930 . S
H1159 C1202 0.929 . S
H1160 C1204 0.931 . S
H1161 C1205 0.930 . S
H1162 C1207 0.929 . S
H1163 C1208 0.931 . S
H1164 C1210 0.930 . S
H1165 C1211 0.929 . S
O1166 H1140 0.856 . S
O1166 C1212 1.300 . S
O1167 C1212 1.209 1_565 S
O1168 C1213 1.199 1_545 S
O1169 H1141 0.854 . S
O1169 C1213 1.297 . S
C1170 C1171 1.404 . S
C1170 C1175 1.396 1_545 S
C1170 C1176 1.492 . S
C1171 C1170 1.404 . S
C1171 C1172 1.396 . S
C1171 C1182 1.492 . S
C1172 C1171 1.396 . S
C1172 C1173 1.392 1_545 S
C1172 C1188 1.509 . S
C1173 C1172 1.392 1_565 S
C1173 C1174 1.419 . S
C1173 C1194 1.496 . S
C1174 C1173 1.419 . S
C1174 C1175 1.367 . S
C1174 C1200 1.500 . S
C1175 C1170 1.396 1_565 S
C1175 C1174 1.367 . S
C1175 C1206 1.518 . S
C1176 C1170 1.492 . S
C1176 C1177 1.363 . S
C1176 C1181 1.390 1_545 S
C1177 H1142 0.930 . S
C1177 C1176 1.363 . S
C1177 C1178 1.372 . S
C1178 H1143 0.930 . S
C1178 C1177 1.372 . S
C1178 C1179 1.383 . S
C1179 C1178 1.383 . S
C1179 C1180 1.395 1_545 S
C1180 H1144 0.930 . S
C1180 C1179 1.395 1_565 S
C1180 C1181 1.362 . S
C1181 H1145 0.930 . S
C1181 C1176 1.390 1_565 S
C1181 C1180 1.362 . S
C1182 C1171 1.492 . S
C1182 C1183 1.377 . S
C1182 C1187 1.397 1_545 S
C1183 H1146 0.931 . S
C1183 C1182 1.377 . S
C1183 C1184 1.376 . S
C1184 H1147 0.930 . S
C1184 C1183 1.376 . S
C1184 C1185 1.376 . S
C1185 C1184 1.376 . S
C1185 C1186 1.378 1_545 S
C1185 C1212 1.486 . S
C1186 H1148 0.930 . S
C1186 C1185 1.378 1_565 S
C1186 C1187 1.376 . S
C1187 H1149 0.929 . S
C1187 C1182 1.397 1_565 S
C1187 C1186 1.376 . S
C1188 C1172 1.509 . S
C1188 C1189 1.391 . S
C1188 C1193 1.386 1_545 S
C1189 H1150 0.930 . S
C1189 C1188 1.391 . S
C1189 C1190 1.375 . S
C1190 H1151 0.931 . S
C1190 C1189 1.375 . S
C1190 C1191 1.375 . S
C1191 C1190 1.375 . S
C1191 C1192 1.361 1_545 S
C1192 H1152 0.930 . S
C1192 C1191 1.361 1_565 S
C1192 C1193 1.399 . S
C1193 H1153 0.929 . S
C1193 C1188 1.386 1_565 S
C1193 C1192 1.399 . S
C1194 C1173 1.496 . S
C1194 C1195 1.394 1_565 S
C1194 C1199 1.360 . S
C1195 H1154 0.931 . S
C1195 C1194 1.394 1_545 S
C1195 C1196 1.372 . S
C1196 H1155 0.930 . S
C1196 C1195 1.372 . S
C1196 C1197 1.397 1_545 S
C1197 C1196 1.397 1_565 S
C1197 C1198 1.390 . S
C1197 C1213 1.476 . S
C1198 H1156 0.930 . S
C1198 C1197 1.390 . S
C1198 C1199 1.366 . S
C1199 H1157 0.932 . S
C1199 C1194 1.360 . S
C1199 C1198 1.366 . S
C1200 C1174 1.500 . S
C1200 C1201 1.380 1_565 S
C1200 C1205 1.386 . S
C1201 H1158 0.930 . S
C1201 C1200 1.380 1_545 S
C1201 C1202 1.381 . S
C1202 H1159 0.929 . S
C1202 C1201 1.381 . S
C1202 C1203 1.375 1_545 S
C1203 C1202 1.375 1_565 S
C1203 C1204 1.377 . S
C1204 H1160 0.931 . S
C1204 C1203 1.377 . S
C1204 C1205 1.387 . S
C1205 H1161 0.930 . S
C1205 C1200 1.386 . S
C1205 C1204 1.387 . S
C1206 C1175 1.518 . S
C1206 C1207 1.377 1_565 S
C1206 C1211 1.361 . S
C1207 H1162 0.929 . S
C1207 C1206 1.377 1_545 S
C1207 C1208 1.386 . S
C1208 H1163 0.931 . S
C1208 C1207 1.386 . S
C1208 C1209 1.363 1_545 S
C1209 C1208 1.363 1_565 S
C1209 C1210 1.385 . S
C1210 H1164 0.930 . S
C1210 C1209 1.385 . S
C1210 C1211 1.396 . S
C1211 H1165 0.929 . S
C1211 C1206 1.361 . S
C1211 C1210 1.396 . S
C1212 O1166 1.300 . S
C1212 O1167 1.209 1_545 S
C1212 C1185 1.486 . S
C1213 O1168 1.199 1_565 S
C1213 O1169 1.297 . S
C1213 C1197 1.476 . S
H1214 O1240 0.856 . S
H1215 O1243 0.854 . S
H1216 C1251 0.930 . S
H1217 C1252 0.930 . S
H1218 C1254 0.930 . S
H1219 C1255 0.930 . S
H1220 C1257 0.931 . S
H1221 C1258 0.930 . S
H1222 C1260 0.930 . S
H1223 C1261 0.929 . S
H1224 C1263 0.930 . S
H1225 C1264 0.931 . S
H1226 C1266 0.930 . S
H1227 C1267 0.929 . S
H1228 C1269 0.931 . S
H1229 C1270 0.930 . S
H1230 C1272 0.930 . S
H1231 C1273 0.932 . S
H1232 C1275 0.930 . S
H1233 C1276 0.929 . S
H1234 C1278 0.931 . S
H1235 C1279 0.930 . S
H1236 C1281 0.929 . S
H1237 C1282 0.931 . S
H1238 C1284 0.930 . S
H1239 C1285 0.929 . S
O1240 H1214 0.856 . S
O1240 C1286 1.300 . S
O1241 C1286 1.209 1_455 S
O1242 C1287 1.199 1_655 S
O1243 H1215 0.854 . S
O1243 C1287 1.297 . S
C1244 C1245 1.404 . S
C1244 C1249 1.396 1_655 S
C1244 C1250 1.492 . S
C1245 C1244 1.404 . S
C1245 C1246 1.396 . S
C1245 C1256 1.492 . S
C1246 C1245 1.396 . S
C1246 C1247 1.396 . S
C1246 C1262 1.509 . S
C1247 C1246 1.396 . S
C1247 C1248 1.392 1_655 S
C1247 C1268 1.493 1_655 S
C1248 C1247 1.392 1_455 S
C1248 C1249 1.412 . S
C1248 C1274 1.485 . S
C1249 C1244 1.396 1_455 S
C1249 C1248 1.412 . S
C1249 C1280 1.516 . S
C1250 C1244 1.492 . S
C1250 C1251 1.363 . S
C1250 C1255 1.390 1_655 S
C1251 H1216 0.930 . S
C1251 C1250 1.363 . S
C1251 C1252 1.372 . S
C1252 H1217 0.930 . S
C1252 C1251 1.372 . S
C1252 C1253 1.383 . S
C1253 C1252 1.383 . S
C1253 C1254 1.395 1_655 S
C1254 H1218 0.930 . S
C1254 C1253 1.395 1_455 S
C1254 C1255 1.362 . S
C1255 H1219 0.930 . S
C1255 C1250 1.390 1_455 S
C1255 C1254 1.362 . S
C1256 C1245 1.492 . S
C1256 C1257 1.377 . S
C1256 C1261 1.397 1_655 S
C1257 H1220 0.931 . S
C1257 C1256 1.377 . S
C1257 C1258 1.376 . S
C1258 H1221 0.930 . S
C1258 C1257 1.376 . S
C1258 C1259 1.376 . S
C1259 C1258 1.376 . S
C1259 C1260 1.378 1_655 S
C1259 C1286 1.486 . S
C1260 H1222 0.930 . S
C1260 C1259 1.378 1_455 S
C1260 C1261 1.376 . S
C1261 H1223 0.929 . S
C1261 C1256 1.397 1_455 S
C1261 C1260 1.376 . S
C1262 C1246 1.509 . S
C1262 C1263 1.391 . S
C1262 C1267 1.386 1_655 S
C1263 H1224 0.930 . S
C1263 C1262 1.391 . S
C1263 C1264 1.375 . S
C1264 H1225 0.931 . S
C1264 C1263 1.375 . S
C1264 C1265 1.375 . S
C1265 C1264 1.375 . S
C1265 C1266 1.361 1_655 S
C1266 H1226 0.930 . S
C1266 C1265 1.361 1_455 S
C1266 C1267 1.399 . S
C1267 H1227 0.929 . S
C1267 C1262 1.386 1_455 S
C1267 C1266 1.399 . S
C1268 C1247 1.493 1_455 S
C1268 C1269 1.394 1_455 S
C1268 C1273 1.360 . S
C1269 H1228 0.931 . S
C1269 C1268 1.394 1_655 S
C1269 C1270 1.372 . S
C1270 H1229 0.930 . S
C1270 C1269 1.372 . S
C1270 C1271 1.397 1_655 S
C1271 C1270 1.397 1_455 S
C1271 C1272 1.390 . S
C1271 C1287 1.476 . S
C1272 H1230 0.930 . S
C1272 C1271 1.390 . S
C1272 C1273 1.366 . S
C1273 H1231 0.932 . S
C1273 C1268 1.360 . S
C1273 C1272 1.366 . S
C1274 C1248 1.485 . S
C1274 C1275 1.380 1_455 S
C1274 C1279 1.386 . S
C1275 H1232 0.930 . S
C1275 C1274 1.380 1_655 S
C1275 C1276 1.381 . S
C1276 H1233 0.929 . S
C1276 C1275 1.381 . S
C1276 C1277 1.371 1_655 S
C1277 C1276 1.371 1_455 S
C1277 C1278 1.380 . S
C1278 H1234 0.931 . S
C1278 C1277 1.380 . S
C1278 C1279 1.387 . S
C1279 H1235 0.930 . S
C1279 C1274 1.386 . S
C1279 C1278 1.387 . S
C1280 C1249 1.516 . S
C1280 C1281 1.377 1_455 S
C1280 C1285 1.361 . S
C1281 H1236 0.929 . S
C1281 C1280 1.377 1_655 S
C1281 C1282 1.386 . S
C1282 H1237 0.931 . S
C1282 C1281 1.386 . S
C1282 C1283 1.363 1_655 S
C1283 C1282 1.363 1_455 S
C1283 C1284 1.385 . S
C1284 H1238 0.930 . S
C1284 C1283 1.385 . S
C1284 C1285 1.396 . S
C1285 H1239 0.929 . S
C1285 C1280 1.361 . S
C1285 C1284 1.396 . S
C1286 O1240 1.300 . S
C1286 O1241 1.209 1_655 S
C1286 C1259 1.486 . S
C1287 O1242 1.199 1_455 S
C1287 O1243 1.297 . S
C1287 C1271 1.476 . S
H1288 O1314 0.856 . S
H1289 O1317 0.854 . S
H1290 C1325 0.930 . S
H1291 C1326 0.930 . S
H1292 C1328 0.930 . S
H1293 C1329 0.930 . S
H1294 C1331 0.931 . S
H1295 C1332 0.930 . S
H1296 C1334 0.930 . S
H1297 C1335 0.929 . S
H1298 C1337 0.930 . S
H1299 C1338 0.931 . S
H1300 C1340 0.930 . S
H1301 C1341 0.929 . S
H1302 C1343 0.931 . S
H1303 C1344 0.930 . S
H1304 C1346 0.930 . S
H1305 C1347 0.932 . S
H1306 C1349 0.930 . S
H1307 C1350 0.929 . S
H1308 C1352 0.931 . S
H1309 C1353 0.930 . S
H1310 C1355 0.929 . S
H1311 C1356 0.931 . S
H1312 C1358 0.930 . S
H1313 C1359 0.929 . S
O1314 H1288 0.856 . S
O1314 C1360 1.300 . S
O1315 C1360 1.209 . S
O1316 C1361 1.199 . S
O1317 H1289 0.854 . S
O1317 C1361 1.297 . S
C1318 C1319 1.404 . S
C1318 C1323 1.397 . S
C1318 C1324 1.492 . S
C1319 C1318 1.404 . S
C1319 C1320 1.396 . S
C1319 C1330 1.492 . S
C1320 C1319 1.396 . S
C1320 C1321 1.397 . S
C1320 C1336 1.509 . S
C1321 C1320 1.397 . S
C1321 C1322 1.412 . S
C1321 C1342 1.485 . S
C1322 C1321 1.412 . S
C1322 C1323 1.388 . S
C1322 C1348 1.490 . S
C1323 C1318 1.397 . S
C1323 C1322 1.388 . S
C1323 C1354 1.519 . S
C1324 C1318 1.492 . S
C1324 C1325 1.363 . S
C1324 C1329 1.390 . S
C1325 H1290 0.930 . S
C1325 C1324 1.363 . S
C1325 C1326 1.372 . S
C1326 H1291 0.930 . S
C1326 C1325 1.372 . S
C1326 C1327 1.383 . S
C1327 C1326 1.383 . S
C1327 C1328 1.395 . S
C1328 H1292 0.930 . S
C1328 C1327 1.395 . S
C1328 C1329 1.362 . S
C1329 H1293 0.930 . S
C1329 C1324 1.390 . S
C1329 C1328 1.362 . S
C1330 C1319 1.492 . S
C1330 C1331 1.377 . S
C1330 C1335 1.397 . S
C1331 H1294 0.931 . S
C1331 C1330 1.377 . S
C1331 C1332 1.376 . S
C1332 H1295 0.930 . S
C1332 C1331 1.376 . S
C1332 C1333 1.376 . S
C1333 C1332 1.376 . S
C1333 C1334 1.378 . S
C1333 C1360 1.486 . S
C1334 H1296 0.930 . S
C1334 C1333 1.378 . S
C1334 C1335 1.376 . S
C1335 H1297 0.929 . S
C1335 C1330 1.397 . S
C1335 C1334 1.376 . S
C1336 C1320 1.509 . S
C1336 C1337 1.391 . S
C1336 C1341 1.386 . S
C1337 H1298 0.930 . S
C1337 C1336 1.391 . S
C1337 C1338 1.375 . S
C1338 H1299 0.931 . S
C1338 C1337 1.375 . S
C1338 C1339 1.375 . S
C1339 C1338 1.375 . S
C1339 C1340 1.361 . S
C1340 H1300 0.930 . S
C1340 C1339 1.361 . S
C1340 C1341 1.399 . S
C1341 H1301 0.929 . S
C1341 C1336 1.386 . S
C1341 C1340 1.399 . S
C1342 C1321 1.485 . S
C1342 C1343 1.394 . S
C1342 C1347 1.360 . S
C1343 H1302 0.931 . S
C1343 C1342 1.394 . S
C1343 C1344 1.372 . S
C1344 H1303 0.930 . S
C1344 C1343 1.372 . S
C1344 C1345 1.397 . S
C1345 C1344 1.397 . S
C1345 C1346 1.390 . S
C1345 C1361 1.476 . S
C1346 H1304 0.930 . S
C1346 C1345 1.390 . S
C1346 C1347 1.366 . S
C1347 H1305 0.932 . S
C1347 C1342 1.360 . S
C1347 C1346 1.366 . S
C1348 C1322 1.490 . S
C1348 C1349 1.380 . S
C1348 C1353 1.386 . S
C1349 H1306 0.930 . S
C1349 C1348 1.380 . S
C1349 C1350 1.381 . S
C1350 H1307 0.929 . S
C1350 C1349 1.381 . S
C1350 C1351 1.371 . S
C1351 C1350 1.371 . S
C1351 C1352 1.380 . S
C1352 H1308 0.931 . S
C1352 C1351 1.380 . S
C1352 C1353 1.387 . S
C1353 H1309 0.930 . S
C1353 C1348 1.386 . S
C1353 C1352 1.387 . S
C1354 C1323 1.519 . S
C1354 C1355 1.377 . S
C1354 C1359 1.361 . S
C1355 H1310 0.929 . S
C1355 C1354 1.377 . S
C1355 C1356 1.386 . S
C1356 H1311 0.931 . S
C1356 C1355 1.386 . S
C1356 C1357 1.363 . S
C1357 C1356 1.363 . S
C1357 C1358 1.385 . S
C1358 H1312 0.930 . S
C1358 C1357 1.385 . S
C1358 C1359 1.396 . S
C1359 H1313 0.929 . S
C1359 C1354 1.361 . S
C1359 C1358 1.396 . S
C1360 O1314 1.300 . S
C1360 O1315 1.209 . S
C1360 C1333 1.486 . S
C1361 O1316 1.199 . S
C1361 O1317 1.297 . S
C1361 C1345 1.476 . S
H1362 O1388 0.856 . S
H1363 O1391 0.854 . S
H1364 C1399 0.930 . S
H1365 C1400 0.930 . S
H1366 C1402 0.930 . S
H1367 C1403 0.930 . S
H1368 C1405 0.931 . S
H1369 C1406 0.930 . S
H1370 C1408 0.930 . S
H1371 C1409 0.929 . S
H1372 C1411 0.930 . S
H1373 C1412 0.931 . S
H1374 C1414 0.930 . S
H1375 C1415 0.929 . S
H1376 C1417 0.931 . S
H1377 C1418 0.930 . S
H1378 C1420 0.930 . S
H1379 C1421 0.932 . S
H1380 C1423 0.930 . S
H1381 C1424 0.929 . S
H1382 C1426 0.931 . S
H1383 C1427 0.930 . S
H1384 C1429 0.929 . S
H1385 C1430 0.931 . S
H1386 C1432 0.930 . S
H1387 C1433 0.929 . S
O1388 H1362 0.856 . S
O1388 C1434 1.300 . S
O1389 C1434 1.209 . S
O1390 C1435 1.199 . S
O1391 H1363 0.854 . S
O1391 C1435 1.297 . S
C1392 C1393 1.404 . S
C1392 C1397 1.397 . S
C1392 C1398 1.492 . S
C1393 C1392 1.404 . S
C1393 C1394 1.396 . S
C1393 C1404 1.492 . S
C1394 C1393 1.396 . S
C1394 C1395 1.397 . S
C1394 C1410 1.509 . S
C1395 C1394 1.397 . S
C1395 C1396 1.412 . S
C1395 C1416 1.485 . S
C1396 C1395 1.412 . S
C1396 C1397 1.388 . S
C1396 C1422 1.490 . S
C1397 C1392 1.397 . S
C1397 C1396 1.388 . S
C1397 C1428 1.519 . S
C1398 C1392 1.492 . S
C1398 C1399 1.363 . S
C1398 C1403 1.390 . S
C1399 H1364 0.930 . S
C1399 C1398 1.363 . S
C1399 C1400 1.372 . S
C1400 H1365 0.930 . S
C1400 C1399 1.372 . S
C1400 C1401 1.383 . S
C1401 C1400 1.383 . S
C1401 C1402 1.395 . S
C1402 H1366 0.930 . S
C1402 C1401 1.395 . S
C1402 C1403 1.362 . S
C1403 H1367 0.930 . S
C1403 C1398 1.390 . S
C1403 C1402 1.362 . S
C1404 C1393 1.492 . S
C1404 C1405 1.377 . S
C1404 C1409 1.397 . S
C1405 H1368 0.931 . S
C1405 C1404 1.377 . S
C1405 C1406 1.376 . S
C1406 H1369 0.930 . S
C1406 C1405 1.376 . S
C1406 C1407 1.376 . S
C1407 C1406 1.376 . S
C1407 C1408 1.378 . S
C1407 C1434 1.486 . S
C1408 H1370 0.930 . S
C1408 C1407 1.378 . S
C1408 C1409 1.376 . S
C1409 H1371 0.929 . S
C1409 C1404 1.397 . S
C1409 C1408 1.376 . S
C1410 C1394 1.509 . S
C1410 C1411 1.391 . S
C1410 C1415 1.386 . S
C1411 H1372 0.930 . S
C1411 C1410 1.391 . S
C1411 C1412 1.375 . S
C1412 H1373 0.931 . S
C1412 C1411 1.375 . S
C1412 C1413 1.375 . S
C1413 C1412 1.375 . S
C1413 C1414 1.361 . S
C1414 H1374 0.930 . S
C1414 C1413 1.361 . S
C1414 C1415 1.399 . S
C1415 H1375 0.929 . S
C1415 C1410 1.386 . S
C1415 C1414 1.399 . S
C1416 C1395 1.485 . S
C1416 C1417 1.394 . S
C1416 C1421 1.360 . S
C1417 H1376 0.931 . S
C1417 C1416 1.394 . S
C1417 C1418 1.372 . S
C1418 H1377 0.930 . S
C1418 C1417 1.372 . S
C1418 C1419 1.397 . S
C1419 C1418 1.397 . S
C1419 C1420 1.390 . S
C1419 C1435 1.476 . S
C1420 H1378 0.930 . S
C1420 C1419 1.390 . S
C1420 C1421 1.366 . S
C1421 H1379 0.932 . S
C1421 C1416 1.360 . S
C1421 C1420 1.366 . S
C1422 C1396 1.490 . S
C1422 C1423 1.380 . S
C1422 C1427 1.386 . S
C1423 H1380 0.930 . S
C1423 C1422 1.380 . S
C1423 C1424 1.381 . S
C1424 H1381 0.929 . S
C1424 C1423 1.381 . S
C1424 C1425 1.371 . S
C1425 C1424 1.371 . S
C1425 C1426 1.380 . S
C1426 H1382 0.931 . S
C1426 C1425 1.380 . S
C1426 C1427 1.387 . S
C1427 H1383 0.930 . S
C1427 C1422 1.386 . S
C1427 C1426 1.387 . S
C1428 C1397 1.519 . S
C1428 C1429 1.377 . S
C1428 C1433 1.361 . S
C1429 H1384 0.929 . S
C1429 C1428 1.377 . S
C1429 C1430 1.386 . S
C1430 H1385 0.931 . S
C1430 C1429 1.386 . S
C1430 C1431 1.363 . S
C1431 C1430 1.363 . S
C1431 C1432 1.385 . S
C1432 H1386 0.930 . S
C1432 C1431 1.385 . S
C1432 C1433 1.396 . S
C1433 H1387 0.929 . S
C1433 C1428 1.361 . S
C1433 C1432 1.396 . S
C1434 O1388 1.300 . S
C1434 O1389 1.209 . S
C1434 C1407 1.486 . S
C1435 O1390 1.199 . S
C1435 O1391 1.297 . S
C1435 C1419 1.476 . S
H1436 O1462 0.856 . S
H1437 O1465 0.854 . S
H1438 C1473 0.930 . S
H1439 C1474 0.930 . S
H1440 C1476 0.930 . S
H1441 C1477 0.930 . S
H1442 C1479 0.931 . S
H1443 C1480 0.930 . S
H1444 C1482 0.930 . S
H1445 C1483 0.929 . S
H1446 C1485 0.930 . S
H1447 C1486 0.931 . S
H1448 C1488 0.930 . S
H1449 C1489 0.929 . S
H1450 C1491 0.931 . S
H1451 C1492 0.930 . S
H1452 C1494 0.930 . S
H1453 C1495 0.932 . S
H1454 C1497 0.930 . S
H1455 C1498 0.929 . S
H1456 C1500 0.931 . S
H1457 C1501 0.930 . S
H1458 C1503 0.929 . S
H1459 C1504 0.931 . S
H1460 C1506 0.930 . S
H1461 C1507 0.929 . S
O1462 H1436 0.856 . S
O1462 C1508 1.300 . S
O1463 C1508 1.209 . S
O1464 C1509 1.199 . S
O1465 H1437 0.854 . S
O1465 C1509 1.297 . S
C1466 C1467 1.404 . S
C1466 C1471 1.397 . S
C1466 C1472 1.492 . S
C1467 C1466 1.404 . S
C1467 C1468 1.396 . S
C1467 C1478 1.492 . S
C1468 C1467 1.396 . S
C1468 C1469 1.397 . S
C1468 C1484 1.509 . S
C1469 C1468 1.397 . S
C1469 C1470 1.412 . S
C1469 C1490 1.485 . S
C1470 C1469 1.412 . S
C1470 C1471 1.388 . S
C1470 C1496 1.490 . S
C1471 C1466 1.397 . S
C1471 C1470 1.388 . S
C1471 C1502 1.519 . S
C1472 C1466 1.492 . S
C1472 C1473 1.363 . S
C1472 C1477 1.390 . S
C1473 H1438 0.930 . S
C1473 C1472 1.363 . S
C1473 C1474 1.372 . S
C1474 H1439 0.930 . S
C1474 C1473 1.372 . S
C1474 C1475 1.383 . S
C1475 C1474 1.383 . S
C1475 C1476 1.395 . S
C1476 H1440 0.930 . S
C1476 C1475 1.395 . S
C1476 C1477 1.362 . S
C1477 H1441 0.930 . S
C1477 C1472 1.390 . S
C1477 C1476 1.362 . S
C1478 C1467 1.492 . S
C1478 C1479 1.377 . S
C1478 C1483 1.397 . S
C1479 H1442 0.931 . S
C1479 C1478 1.377 . S
C1479 C1480 1.376 . S
C1480 H1443 0.930 . S
C1480 C1479 1.376 . S
C1480 C1481 1.376 . S
C1481 C1480 1.376 . S
C1481 C1482 1.378 . S
C1481 C1508 1.486 . S
C1482 H1444 0.930 . S
C1482 C1481 1.378 . S
C1482 C1483 1.376 . S
C1483 H1445 0.929 . S
C1483 C1478 1.397 . S
C1483 C1482 1.376 . S
C1484 C1468 1.509 . S
C1484 C1485 1.391 . S
C1484 C1489 1.386 . S
C1485 H1446 0.930 . S
C1485 C1484 1.391 . S
C1485 C1486 1.375 . S
C1486 H1447 0.931 . S
C1486 C1485 1.375 . S
C1486 C1487 1.375 . S
C1487 C1486 1.375 . S
C1487 C1488 1.361 . S
C1488 H1448 0.930 . S
C1488 C1487 1.361 . S
C1488 C1489 1.399 . S
C1489 H1449 0.929 . S
C1489 C1484 1.386 . S
C1489 C1488 1.399 . S
C1490 C1469 1.485 . S
C1490 C1491 1.394 . S
C1490 C1495 1.360 . S
C1491 H1450 0.931 . S
C1491 C1490 1.394 . S
C1491 C1492 1.372 . S
C1492 H1451 0.930 . S
C1492 C1491 1.372 . S
C1492 C1493 1.397 . S
C1493 C1492 1.397 . S
C1493 C1494 1.390 . S
C1493 C1509 1.476 . S
C1494 H1452 0.930 . S
C1494 C1493 1.390 . S
C1494 C1495 1.366 . S
C1495 H1453 0.932 . S
C1495 C1490 1.360 . S
C1495 C1494 1.366 . S
C1496 C1470 1.490 . S
C1496 C1497 1.380 . S
C1496 C1501 1.386 . S
C1497 H1454 0.930 . S
C1497 C1496 1.380 . S
C1497 C1498 1.381 . S
C1498 H1455 0.929 . S
C1498 C1497 1.381 . S
C1498 C1499 1.371 . S
C1499 C1498 1.371 . S
C1499 C1500 1.380 . S
C1500 H1456 0.931 . S
C1500 C1499 1.380 . S
C1500 C1501 1.387 . S
C1501 H1457 0.930 . S
C1501 C1496 1.386 . S
C1501 C1500 1.387 . S
C1502 C1471 1.519 . S
C1502 C1503 1.377 . S
C1502 C1507 1.361 . S
C1503 H1458 0.929 . S
C1503 C1502 1.377 . S
C1503 C1504 1.386 . S
C1504 H1459 0.931 . S
C1504 C1503 1.386 . S
C1504 C1505 1.363 . S
C1505 C1504 1.363 . S
C1505 C1506 1.385 . S
C1506 H1460 0.930 . S
C1506 C1505 1.385 . S
C1506 C1507 1.396 . S
C1507 H1461 0.929 . S
C1507 C1502 1.361 . S
C1507 C1506 1.396 . S
C1508 O1462 1.300 . S
C1508 O1463 1.209 . S
C1508 C1481 1.486 . S
C1509 O1464 1.199 . S
C1509 O1465 1.297 . S
C1509 C1493 1.476 . S
H1510 O1536 0.856 . S
H1511 O1539 0.854 . S
H1512 C1547 0.930 . S
H1513 C1548 0.930 . S
H1514 C1550 0.930 . S
H1515 C1551 0.930 . S
H1516 C1553 0.931 . S
H1517 C1554 0.930 . S
H1518 C1556 0.930 . S
H1519 C1557 0.929 . S
H1520 C1559 0.930 . S
H1521 C1560 0.931 . S
H1522 C1562 0.930 . S
H1523 C1563 0.929 . S
H1524 C1565 0.931 . S
H1525 C1566 0.930 . S
H1526 C1568 0.930 . S
H1527 C1569 0.932 . S
H1528 C1571 0.930 . S
H1529 C1572 0.929 . S
H1530 C1574 0.931 . S
H1531 C1575 0.930 . S
H1532 C1577 0.929 . S
H1533 C1578 0.931 . S
H1534 C1580 0.930 . S
H1535 C1581 0.929 . S
O1536 H1510 0.856 . S
O1536 C1582 1.300 . S
O1537 C1582 1.209 . S
O1538 C1583 1.199 . S
O1539 H1511 0.854 . S
O1539 C1583 1.297 . S
C1540 C1541 1.404 . S
C1540 C1545 1.397 . S
C1540 C1546 1.492 . S
C1541 C1540 1.404 . S
C1541 C1542 1.396 . S
C1541 C1552 1.492 . S
C1542 C1541 1.396 . S
C1542 C1543 1.397 . S
C1542 C1558 1.509 . S
C1543 C1542 1.397 . S
C1543 C1544 1.412 . S
C1543 C1564 1.485 . S
C1544 C1543 1.412 . S
C1544 C1545 1.388 . S
C1544 C1570 1.490 . S
C1545 C1540 1.397 . S
C1545 C1544 1.388 . S
C1545 C1576 1.519 . S
C1546 C1540 1.492 . S
C1546 C1547 1.363 . S
C1546 C1551 1.390 . S
C1547 H1512 0.930 . S
C1547 C1546 1.363 . S
C1547 C1548 1.372 . S
C1548 H1513 0.930 . S
C1548 C1547 1.372 . S
C1548 C1549 1.383 . S
C1549 C1548 1.383 . S
C1549 C1550 1.395 . S
C1550 H1514 0.930 . S
C1550 C1549 1.395 . S
C1550 C1551 1.362 . S
C1551 H1515 0.930 . S
C1551 C1546 1.390 . S
C1551 C1550 1.362 . S
C1552 C1541 1.492 . S
C1552 C1553 1.377 . S
C1552 C1557 1.397 . S
C1553 H1516 0.931 . S
C1553 C1552 1.377 . S
C1553 C1554 1.376 . S
C1554 H1517 0.930 . S
C1554 C1553 1.376 . S
C1554 C1555 1.376 . S
C1555 C1554 1.376 . S
C1555 C1556 1.378 . S
C1555 C1582 1.486 . S
C1556 H1518 0.930 . S
C1556 C1555 1.378 . S
C1556 C1557 1.376 . S
C1557 H1519 0.929 . S
C1557 C1552 1.397 . S
C1557 C1556 1.376 . S
C1558 C1542 1.509 . S
C1558 C1559 1.391 . S
C1558 C1563 1.386 . S
C1559 H1520 0.930 . S
C1559 C1558 1.391 . S
C1559 C1560 1.375 . S
C1560 H1521 0.931 . S
C1560 C1559 1.375 . S
C1560 C1561 1.375 . S
C1561 C1560 1.375 . S
C1561 C1562 1.361 . S
C1562 H1522 0.930 . S
C1562 C1561 1.361 . S
C1562 C1563 1.399 . S
C1563 H1523 0.929 . S
C1563 C1558 1.386 . S
C1563 C1562 1.399 . S
C1564 C1543 1.485 . S
C1564 C1565 1.394 . S
C1564 C1569 1.360 . S
C1565 H1524 0.931 . S
C1565 C1564 1.394 . S
C1565 C1566 1.372 . S
C1566 H1525 0.930 . S
C1566 C1565 1.372 . S
C1566 C1567 1.397 . S
C1567 C1566 1.397 . S
C1567 C1568 1.390 . S
C1567 C1583 1.476 . S
C1568 H1526 0.930 . S
C1568 C1567 1.390 . S
C1568 C1569 1.366 . S
C1569 H1527 0.932 . S
C1569 C1564 1.360 . S
C1569 C1568 1.366 . S
C1570 C1544 1.490 . S
C1570 C1571 1.380 . S
C1570 C1575 1.386 . S
C1571 H1528 0.930 . S
C1571 C1570 1.380 . S
C1571 C1572 1.381 . S
C1572 H1529 0.929 . S
C1572 C1571 1.381 . S
C1572 C1573 1.371 . S
C1573 C1572 1.371 . S
C1573 C1574 1.380 . S
C1574 H1530 0.931 . S
C1574 C1573 1.380 . S
C1574 C1575 1.387 . S
C1575 H1531 0.930 . S
C1575 C1570 1.386 . S
C1575 C1574 1.387 . S
C1576 C1545 1.519 . S
C1576 C1577 1.377 . S
C1576 C1581 1.361 . S
C1577 H1532 0.929 . S
C1577 C1576 1.377 . S
C1577 C1578 1.386 . S
C1578 H1533 0.931 . S
C1578 C1577 1.386 . S
C1578 C1579 1.363 . S
C1579 C1578 1.363 . S
C1579 C1580 1.385 . S
C1580 H1534 0.930 . S
C1580 C1579 1.385 . S
C1580 C1581 1.396 . S
C1581 H1535 0.929 . S
C1581 C1576 1.361 . S
C1581 C1580 1.396 . S
C1582 O1536 1.300 . S
C1582 O1537 1.209 . S
C1582 C1555 1.486 . S
C1583 O1538 1.199 . S
C1583 O1539 1.297 . S
C1583 C1567 1.476 . S
C1584 C1585 1.363 . S
C1584 C1590 1.379 . S
C1584 N1592 1.356 1_655 S
C1585 C1584 1.363 . S
C1585 C1591 1.363 . S
C1586 C1587 1.363 . S
C1586 C1591 1.379 . S
C1586 N1593 1.356 . S
C1587 C1586 1.363 . S
C1587 C1590 1.363 . S
N1588 C1590 1.356 . S
N1588 H1600 0.984 . S
N1588 H1601 0.985 . S
N1589 C1591 1.356 . S
N1589 H1594 0.984 . S
N1589 H1595 0.985 . S
C1590 C1584 1.379 . S
C1590 C1587 1.363 . S
C1590 N1588 1.356 . S
C1591 C1585 1.363 . S
C1591 C1586 1.379 . S
C1591 N1589 1.356 . S
N1592 C1584 1.356 1_455 S
N1592 H1598 0.984 . S
N1592 H1599 0.984 . S
N1593 C1586 1.356 . S
N1593 H1596 0.984 . S
N1593 H1597 0.985 . S
H1594 N1589 0.984 . S
H1595 N1589 0.985 . S
H1596 N1593 0.984 . S
H1597 N1593 0.985 . S
H1598 N1592 0.984 . S
H1599 N1592 0.984 . S
H1600 N1588 0.984 . S
H1601 N1588 0.985 . S
C1602 C1603 1.363 . S
C1602 C1608 1.379 . S
C1602 N1610 1.356 . S
C1603 C1602 1.363 . S
C1603 C1609 1.363 . S
C1604 C1605 1.363 . S
C1604 C1609 1.379 . S
C1604 N1611 1.356 . S
C1605 C1604 1.363 . S
C1605 C1608 1.363 . S
N1606 C1608 1.356 . S
N1606 H1618 0.984 . S
N1606 H1619 0.985 . S
N1607 C1609 1.356 . S
N1607 H1612 0.984 . S
N1607 H1613 0.985 . S
C1608 C1602 1.379 . S
C1608 C1605 1.363 . S
C1608 N1606 1.356 . S
C1609 C1603 1.363 . S
C1609 C1604 1.379 . S
C1609 N1607 1.356 . S
N1610 C1602 1.356 . S
N1610 H1616 0.984 . S
N1610 H1617 0.984 . S
N1611 C1604 1.356 . S
N1611 H1614 0.984 . S
N1611 H1615 0.985 . S
H1612 N1607 0.984 . S
H1613 N1607 0.985 . S
H1614 N1611 0.984 . S
H1615 N1611 0.985 . S
H1616 N1610 0.984 . S
H1617 N1610 0.984 . S
H1618 N1606 0.984 . S
H1619 N1606 0.985 . S
C1620 C1621 1.363 1_565 S
C1620 C1626 1.379 1_565 S
C1620 N1628 1.356 . S
C1621 C1620 1.363 1_545 S
C1621 C1627 1.363 . S
C1622 C1623 1.363 . S
C1622 C1627 1.379 . S
C1622 N1629 1.356 . S
C1623 C1622 1.363 . S
C1623 C1626 1.363 . S
N1624 C1626 1.356 1_565 S
N1624 H1636 0.984 . S
N1624 H1637 0.985 . S
N1625 C1627 1.356 . S
N1625 H1630 0.984 . S
N1625 H1631 0.985 . S
C1626 C1620 1.379 1_545 S
C1626 C1623 1.363 . S
C1626 N1624 1.356 1_545 S
C1627 C1621 1.363 . S
C1627 C1622 1.379 . S
C1627 N1625 1.356 . S
N1628 C1620 1.356 . S
N1628 H1634 0.984 . S
N1628 H1635 0.984 . S
N1629 C1622 1.356 . S
N1629 H1632 0.984 . S
N1629 H1633 0.985 . S
H1630 N1625 0.984 . S
H1631 N1625 0.985 . S
H1632 N1629 0.984 . S
H1633 N1629 0.985 . S
H1634 N1628 0.984 . S
H1635 N1628 0.984 . S
H1636 N1624 0.984 . S
H1637 N1624 0.985 . S
C1638 C1639 1.363 . S
C1638 C1644 1.379 . S
C1638 N1646 1.356 . S
C1639 C1638 1.363 . S
C1639 C1645 1.363 1_565 S
C1640 C1641 1.327 1_545 S
C1640 C1645 1.389 . S
C1640 N1647 1.374 . S
C1641 C1640 1.327 1_565 S
C1641 C1644 1.363 . S
N1642 C1644 1.356 . S
N1642 H1654 0.984 . S
N1642 H1655 0.985 . S
N1643 C1645 1.356 . S
N1643 H1648 0.984 . S
N1643 H1649 0.985 . S
C1644 C1638 1.379 . S
C1644 C1641 1.363 . S
C1644 N1642 1.356 . S
C1645 C1639 1.363 1_545 S
C1645 C1640 1.389 . S
C1645 N1643 1.356 . S
N1646 C1638 1.356 . S
N1646 H1652 0.984 . S
N1646 H1653 0.984 . S
N1647 C1640 1.374 . S
N1647 H1650 0.984 . S
N1647 H1651 0.985 . S
H1648 N1643 0.984 . S
H1649 N1643 0.985 . S
H1650 N1647 0.984 . S
H1651 N1647 0.985 . S
H1652 N1646 0.984 . S
H1653 N1646 0.984 . S
H1654 N1642 0.984 . S
H1655 N1642 0.985 . S
C1656 C1657 1.363 . S
C1656 C1662 1.379 . S
C1656 N1664 1.356 . S
C1657 C1656 1.363 . S
C1657 C1663 1.363 1_455 S
C1658 C1659 1.368 . S
C1658 C1663 1.380 1_455 S
C1658 N1665 1.350 1_455 S
C1659 C1658 1.368 . S
C1659 C1662 1.363 . S
N1660 C1662 1.356 . S
N1660 H1672 0.984 . S
N1660 H1673 0.985 . S
N1661 C1663 1.356 . S
N1661 H1666 0.984 . S
N1661 H1667 0.985 . S
C1662 C1656 1.379 . S
C1662 C1659 1.363 . S
C1662 N1660 1.356 . S
C1663 C1657 1.363 1_655 S
C1663 C1658 1.380 1_655 S
C1663 N1661 1.356 . S
N1664 C1656 1.356 . S
N1664 H1670 0.984 . S
N1664 H1671 0.984 . S
N1665 C1658 1.350 1_655 S
N1665 H1668 0.984 . S
N1665 H1669 0.985 . S
H1666 N1661 0.984 . S
H1667 N1661 0.985 . S
H1668 N1665 0.984 . S
H1669 N1665 0.985 . S
H1670 N1664 0.984 . S
H1671 N1664 0.984 . S
H1672 N1660 0.984 . S
H1673 N1660 0.985 . S
C1674 C1675 1.363 1_556 S
C1674 C1680 1.379 . S
C1674 N1682 1.356 . S
C1675 C1674 1.363 1_554 S
C1675 C1681 1.363 . S
C1676 C1677 1.363 . S
C1676 C1681 1.379 1_556 S
C1676 N1683 1.356 . S
C1677 C1676 1.363 . S
C1677 C1680 1.363 . S
N1678 C1680 1.356 . S
N1678 H1690 0.984 . S
N1678 H1691 0.985 . S
N1679 C1681 1.356 . S
N1679 H1684 0.984 . S
N1679 H1685 0.985 . S
C1680 C1674 1.379 . S
C1680 C1677 1.363 . S
C1680 N1678 1.356 . S
C1681 C1675 1.363 . S
C1681 C1676 1.379 1_554 S
C1681 N1679 1.356 . S
N1682 C1674 1.356 . S
N1682 H1688 0.984 . S
N1682 H1689 0.984 1_556 S
N1683 C1676 1.356 . S
N1683 H1686 0.984 . S
N1683 H1687 0.985 . S
H1684 N1679 0.984 . S
H1685 N1679 0.985 . S
H1686 N1683 0.984 . S
H1687 N1683 0.985 . S
H1688 N1682 0.984 . S
H1689 N1682 0.984 1_554 S
H1690 N1678 0.984 . S
H1691 N1678 0.985 . S
C1692 C1693 1.363 1_655 S
C1692 C1698 1.379 . S
C1692 N1700 1.356 . S
C1693 C1692 1.363 1_455 S
C1693 C1699 1.363 . S
C1694 C1695 1.363 . S
C1694 C1699 1.379 . S
C1694 N1701 1.356 . S
C1695 C1694 1.363 . S
C1695 C1698 1.363 1_455 S
N1696 C1698 1.356 . S
N1696 H1708 0.984 . S
N1696 H1709 0.985 . S
N1697 C1699 1.356 1_554 S
N1697 H1702 0.984 . S
N1697 H1703 0.985 . S
C1698 C1692 1.379 . S
C1698 C1695 1.363 1_655 S
C1698 N1696 1.356 . S
C1699 C1693 1.363 . S
C1699 C1694 1.379 . S
C1699 N1697 1.356 1_556 S
N1700 C1692 1.356 . S
N1700 H1706 0.984 . S
N1700 H1707 0.984 . S
N1701 C1694 1.356 . S
N1701 H1704 0.984 . S
N1701 H1705 0.985 . S
H1702 N1697 0.984 . S
H1703 N1697 0.985 . S
H1704 N1701 0.984 . S
H1705 N1701 0.985 . S
H1706 N1700 0.984 . S
H1707 N1700 0.984 . S
H1708 N1696 0.984 . S
H1709 N1696 0.985 . S
C1710 C1711 1.363 . S
C1710 C1716 1.379 . S
C1710 N1718 1.356 . S
C1711 C1710 1.363 . S
C1711 C1717 1.363 . S
C1712 C1713 1.363 . S
C1712 C1717 1.379 . S
C1712 N1719 1.356 . S
C1713 C1712 1.363 . S
C1713 C1716 1.363 . S
N1714 C1716 1.356 . S
N1714 H1726 0.984 . S
N1714 H1727 0.985 . S
N1715 C1717 1.356 . S
N1715 H1720 0.984 . S
N1715 H1721 0.985 . S
C1716 C1710 1.379 . S
C1716 C1713 1.363 . S
C1716 N1714 1.356 . S
C1717 C1711 1.363 . S
C1717 C1712 1.379 . S
C1717 N1715 1.356 . S
N1718 C1710 1.356 . S
N1718 H1724 0.984 . S
N1718 H1725 0.984 . S
N1719 C1712 1.356 . S
N1719 H1722 0.984 . S
N1719 H1723 0.985 . S
H1720 N1715 0.984 . S
H1721 N1715 0.985 . S
H1722 N1719 0.984 . S
H1723 N1719 0.985 . S
H1724 N1718 0.984 . S
H1725 N1718 0.984 . S
H1726 N1714 0.984 . S
H1727 N1714 0.985 . S
C1728 C1729 1.363 1_545 S
C1728 C1734 1.379 . S
C1728 N1736 1.356 1_556 S
C1729 C1728 1.363 1_565 S
C1729 C1735 1.363 . S
C1730 C1731 1.390 . S
C1730 C1735 1.379 . S
C1730 N1737 1.356 . S
C1731 C1730 1.390 . S
C1731 C1734 1.352 1_565 S
N1732 C1734 1.356 . S
N1732 H1744 0.984 . S
N1732 H1745 0.985 . S
N1733 C1735 1.356 . S
N1733 H1738 0.984 . S
N1733 H1739 0.985 . S
C1734 C1728 1.379 . S
C1734 C1731 1.352 1_545 S
C1734 N1732 1.356 . S
C1735 C1729 1.363 . S
C1735 C1730 1.379 . S
C1735 N1733 1.356 . S
N1736 C1728 1.356 1_554 S
N1736 H1742 0.984 . S
N1736 H1743 0.984 . S
N1737 C1730 1.356 . S
N1737 H1740 0.984 . S
N1737 H1741 0.985 . S
H1738 N1733 0.984 . S
H1739 N1733 0.985 . S
H1740 N1737 0.984 . S
H1741 N1737 0.985 . S
H1742 N1736 0.984 . S
H1743 N1736 0.984 . S
H1744 N1732 0.984 . S
H1745 N1732 0.985 . S
C1746 C1747 1.363 . S
C1746 C1752 1.379 . S
C1746 N1754 1.356 . S
C1747 C1746 1.363 . S
C1747 C1753 1.363 1_545 S
C1748 C1749 1.355 1_565 S
C1748 C1753 1.379 . S
C1748 N1755 1.356 . S
C1749 C1748 1.355 1_545 S
C1749 C1752 1.370 . S
N1750 C1752 1.356 . S
N1750 H1762 0.984 . S
N1750 H1763 0.985 . S
N1751 C1753 1.356 . S
N1751 H1756 0.984 . S
N1751 H1757 0.985 . S
C1752 C1746 1.379 . S
C1752 C1749 1.370 . S
C1752 N1750 1.356 . S
C1753 C1747 1.363 1_565 S
C1753 C1748 1.379 . S
C1753 N1751 1.356 . S
N1754 C1746 1.356 . S
N1754 H1760 0.984 . S
N1754 H1761 0.984 . S
N1755 C1748 1.356 . S
N1755 H1758 0.984 . S
N1755 H1759 0.985 . S
H1756 N1751 0.984 . S
H1757 N1751 0.985 . S
H1758 N1755 0.984 . S
H1759 N1755 0.985 . S
H1760 N1754 0.984 . S
H1761 N1754 0.984 . S
H1762 N1750 0.984 . S
H1763 N1750 0.985 . S
C1764 C1765 1.363 1_455 S
C1764 C1770 1.379 . S
C1764 N1772 1.356 . S
C1765 C1764 1.363 1_655 S
C1765 C1771 1.363 . S
C1766 C1767 1.363 . S
C1766 C1771 1.379 . S
C1766 N1773 1.356 . S
C1767 C1766 1.363 . S
C1767 C1770 1.363 1_655 S
N1768 C1770 1.356 . S
N1768 H1780 0.984 . S
N1768 H1781 0.985 . S
N1769 C1771 1.356 . S
N1769 H1774 0.984 . S
N1769 H1775 0.985 . S
C1770 C1764 1.379 . S
C1770 C1767 1.363 1_455 S
C1770 N1768 1.356 . S
C1771 C1765 1.363 . S
C1771 C1766 1.379 . S
C1771 N1769 1.356 . S
N1772 C1764 1.356 . S
N1772 H1778 0.984 . S
N1772 H1779 0.984 . S
N1773 C1766 1.356 . S
N1773 H1776 0.984 . S
N1773 H1777 0.985 . S
H1774 N1769 0.984 . S
H1775 N1769 0.985 . S
H1776 N1773 0.984 . S
H1777 N1773 0.985 . S
H1778 N1772 0.984 . S
H1779 N1772 0.984 . S
H1780 N1768 0.984 . S
H1781 N1768 0.985 . S
C1782 C1783 1.363 . S
C1782 C1788 1.379 . S
C1782 N1790 1.356 . S
C1783 C1782 1.363 . S
C1783 C1789 1.363 . S
C1784 C1785 1.363 . S
C1784 C1789 1.379 . S
C1784 N1791 1.356 . S
C1785 C1784 1.363 . S
C1785 C1788 1.363 . S
N1786 C1788 1.356 . S
N1786 H1798 0.984 . S
N1786 H1799 0.985 . S
N1787 C1789 1.356 . S
N1787 H1792 0.984 . S
N1787 H1793 0.985 . S
C1788 C1782 1.379 . S
C1788 C1785 1.363 . S
C1788 N1786 1.356 . S
C1789 C1783 1.363 . S
C1789 C1784 1.379 . S
C1789 N1787 1.356 . S
N1790 C1782 1.356 . S
N1790 H1796 0.984 . S
N1790 H1797 0.984 . S
N1791 C1784 1.356 . S
N1791 H1794 0.984 . S
N1791 H1795 0.985 . S
H1792 N1787 0.984 . S
H1793 N1787 0.985 . S
H1794 N1791 0.984 . S
H1795 N1791 0.985 . S
H1796 N1790 0.984 . S
H1797 N1790 0.984 . S
H1798 N1786 0.984 . S
H1799 N1786 0.985 . S
C1800 C1801 1.363 . S
C1800 C1806 1.379 . S
C1800 N1808 1.356 . S
C1801 C1800 1.363 . S
C1801 C1807 1.363 . S
C1802 C1803 1.363 . S
C1802 C1807 1.379 . S
C1802 N1809 1.356 . S
C1803 C1802 1.363 . S
C1803 C1806 1.363 . S
N1804 C1806 1.356 . S
N1804 H1816 0.984 . S
N1804 H1817 0.985 . S
N1805 C1807 1.356 . S
N1805 H1810 0.984 . S
N1805 H1811 0.985 . S
C1806 C1800 1.379 . S
C1806 C1803 1.363 . S
C1806 N1804 1.356 . S
C1807 C1801 1.363 . S
C1807 C1802 1.379 . S
C1807 N1805 1.356 . S
N1808 C1800 1.356 . S
N1808 H1814 0.984 . S
N1808 H1815 0.984 . S
N1809 C1802 1.356 . S
N1809 H1812 0.984 . S
N1809 H1813 0.985 . S
H1810 N1805 0.984 . S
H1811 N1805 0.985 . S
H1812 N1809 0.984 . S
H1813 N1809 0.985 . S
H1814 N1808 0.984 . S
H1815 N1808 0.984 . S
H1816 N1804 0.984 . S
H1817 N1804 0.985 . S
C1818 C1819 1.363 . S
C1818 C1824 1.379 . S
C1818 N1826 1.356 . S
C1819 C1818 1.363 . S
C1819 C1825 1.363 . S
C1820 C1821 1.363 . S
C1820 C1825 1.379 . S
C1820 N1827 1.356 . S
C1821 C1820 1.363 . S
C1821 C1824 1.363 . S
N1822 C1824 1.356 . S
N1822 H1834 0.984 . S
N1822 H1835 0.985 . S
N1823 C1825 1.356 . S
N1823 H1828 0.984 . S
N1823 H1829 0.985 . S
C1824 C1818 1.379 . S
C1824 C1821 1.363 . S
C1824 N1822 1.356 . S
C1825 C1819 1.363 . S
C1825 C1820 1.379 . S
C1825 N1823 1.356 . S
N1826 C1818 1.356 . S
N1826 H1832 0.984 . S
N1826 H1833 0.984 . S
N1827 C1820 1.356 . S
N1827 H1830 0.984 . S
N1827 H1831 0.985 . S
H1828 N1823 0.984 . S
H1829 N1823 0.985 . S
H1830 N1827 0.984 . S
H1831 N1827 0.985 . S
H1832 N1826 0.984 . S
H1833 N1826 0.984 . S
H1834 N1822 0.984 . S
H1835 N1822 0.985 . S
C1836 C1837 1.363 . S
C1836 C1842 1.379 . S
C1836 N1844 1.356 . S
C1837 C1836 1.363 . S
C1837 C1843 1.363 . S
C1838 C1839 1.363 . S
C1838 C1843 1.379 . S
C1838 N1845 1.356 . S
C1839 C1838 1.363 . S
C1839 C1842 1.363 . S
N1840 C1842 1.356 . S
N1840 H1852 0.984 . S
N1840 H1853 0.985 . S
N1841 C1843 1.356 . S
N1841 H1846 0.984 . S
N1841 H1847 0.985 . S
C1842 C1836 1.379 . S
C1842 C1839 1.363 . S
C1842 N1840 1.356 . S
C1843 C1837 1.363 . S
C1843 C1838 1.379 . S
C1843 N1841 1.356 . S
N1844 C1836 1.356 . S
N1844 H1850 0.984 . S
N1844 H1851 0.984 . S
N1845 C1838 1.356 . S
N1845 H1848 0.984 . S
N1845 H1849 0.985 . S
H1846 N1841 0.984 . S
H1847 N1841 0.985 . S
H1848 N1845 0.984 . S
H1849 N1845 0.985 . S
H1850 N1844 0.984 . S
H1851 N1844 0.984 . S
H1852 N1840 0.984 . S
H1853 N1840 0.985 . S
C1854 C1855 1.363 . S
C1854 C1860 1.379 . S
C1854 N1862 1.356 . S
C1855 C1854 1.363 . S
C1855 C1861 1.363 . S
C1856 C1857 1.363 . S
C1856 C1861 1.379 . S
C1856 N1863 1.356 . S
C1857 C1856 1.363 . S
C1857 C1860 1.363 . S
N1858 C1860 1.356 . S
N1858 H1870 0.984 . S
N1858 H1871 0.985 . S
N1859 C1861 1.356 . S
N1859 H1864 0.984 . S
N1859 H1865 0.985 . S
C1860 C1854 1.379 . S
C1860 C1857 1.363 . S
C1860 N1858 1.356 . S
C1861 C1855 1.363 . S
C1861 C1856 1.379 . S
C1861 N1859 1.356 . S
N1862 C1854 1.356 . S
N1862 H1868 0.984 . S
N1862 H1869 0.984 . S
N1863 C1856 1.356 . S
N1863 H1866 0.984 . S
N1863 H1867 0.985 . S
H1864 N1859 0.984 . S
H1865 N1859 0.985 . S
H1866 N1863 0.984 . S
H1867 N1863 0.985 . S
H1868 N1862 0.984 . S
H1869 N1862 0.984 . S
H1870 N1858 0.984 . S
H1871 N1858 0.985 . S
C1872 C1873 1.363 . S
C1872 C1878 1.379 . S
C1872 N1880 1.356 . S
C1873 C1872 1.363 . S
C1873 C1879 1.363 . S
C1874 C1875 1.363 . S
C1874 C1879 1.379 . S
C1874 N1881 1.356 . S
C1875 C1874 1.363 . S
C1875 C1878 1.363 . S
N1876 C1878 1.356 . S
N1876 H1888 0.984 . S
N1876 H1889 0.985 . S
N1877 C1879 1.356 . S
N1877 H1882 0.984 . S
N1877 H1883 0.985 . S
C1878 C1872 1.379 . S
C1878 C1875 1.363 . S
C1878 N1876 1.356 . S
C1879 C1873 1.363 . S
C1879 C1874 1.379 . S
C1879 N1877 1.356 . S
N1880 C1872 1.356 . S
N1880 H1886 0.984 . S
N1880 H1887 0.984 . S
N1881 C1874 1.356 . S
N1881 H1884 0.984 . S
N1881 H1885 0.985 . S
H1882 N1877 0.984 . S
H1883 N1877 0.985 . S
H1884 N1881 0.984 . S
H1885 N1881 0.985 . S
H1886 N1880 0.984 . S
H1887 N1880 0.984 . S
H1888 N1876 0.984 . S
H1889 N1876 0.985 . S
C1890 C1891 1.363 . S
C1890 C1896 1.379 . S
C1890 N1898 1.356 . S
C1891 C1890 1.363 . S
C1891 C1897 1.363 . S
C1892 C1893 1.363 . S
C1892 C1897 1.379 . S
C1892 N1899 1.356 . S
C1893 C1892 1.363 . S
C1893 C1896 1.363 . S
N1894 C1896 1.356 . S
N1894 H1906 0.984 . S
N1894 H1907 0.985 . S
N1895 C1897 1.356 . S
N1895 H1900 0.984 . S
N1895 H1901 0.985 . S
C1896 C1890 1.379 . S
C1896 C1893 1.363 . S
C1896 N1894 1.356 . S
C1897 C1891 1.363 . S
C1897 C1892 1.379 . S
C1897 N1895 1.356 . S
N1898 C1890 1.356 . S
N1898 H1904 0.984 . S
N1898 H1905 0.984 . S
N1899 C1892 1.356 . S
N1899 H1902 0.984 . S
N1899 H1903 0.985 . S
H1900 N1895 0.984 . S
H1901 N1895 0.985 . S
H1902 N1899 0.984 . S
H1903 N1899 0.985 . S
H1904 N1898 0.984 . S
H1905 N1898 0.984 . S
H1906 N1894 0.984 . S
H1907 N1894 0.985 . S
C1908 C1909 1.363 . S
C1908 C1914 1.379 . S
C1908 N1916 1.356 . S
C1909 C1908 1.363 . S
C1909 C1915 1.363 . S
C1910 C1911 1.363 . S
C1910 C1915 1.379 . S
C1910 N1917 1.356 . S
C1911 C1910 1.363 . S
C1911 C1914 1.363 . S
N1912 C1914 1.356 . S
N1912 H1924 0.984 . S
N1912 H1925 0.985 . S
N1913 C1915 1.356 . S
N1913 H1918 0.984 . S
N1913 H1919 0.985 . S
C1914 C1908 1.379 . S
C1914 C1911 1.363 . S
C1914 N1912 1.356 . S
C1915 C1909 1.363 . S
C1915 C1910 1.379 . S
C1915 N1913 1.356 . S
N1916 C1908 1.356 . S
N1916 H1922 0.984 . S
N1916 H1923 0.984 . S
N1917 C1910 1.356 . S
N1917 H1920 0.984 . S
N1917 H1921 0.985 . S
H1918 N1913 0.984 . S
H1919 N1913 0.985 . S
H1920 N1917 0.984 . S
H1921 N1917 0.985 . S
H1922 N1916 0.984 . S
H1923 N1916 0.984 . S
H1924 N1912 0.984 . S
H1925 N1912 0.985 . S
C1926 C1927 1.363 . S
C1926 C1932 1.379 . S
C1926 N1934 1.356 . S
C1927 C1926 1.363 . S
C1927 C1933 1.363 . S
C1928 C1929 1.363 . S
C1928 C1933 1.379 . S
C1928 N1935 1.356 . S
C1929 C1928 1.363 . S
C1929 C1932 1.363 . S
N1930 C1932 1.356 . S
N1930 H1942 0.984 . S
N1930 H1943 0.985 . S
N1931 C1933 1.356 . S
N1931 H1936 0.984 . S
N1931 H1937 0.985 . S
C1932 C1926 1.379 . S
C1932 C1929 1.363 . S
C1932 N1930 1.356 . S
C1933 C1927 1.363 . S
C1933 C1928 1.379 . S
C1933 N1931 1.356 . S
N1934 C1926 1.356 . S
N1934 H1940 0.984 . S
N1934 H1941 0.984 . S
N1935 C1928 1.356 . S
N1935 H1938 0.984 . S
N1935 H1939 0.985 . S
H1936 N1931 0.984 . S
H1937 N1931 0.985 . S
H1938 N1935 0.984 . S
H1939 N1935 0.985 . S
H1940 N1934 0.984 . S
H1941 N1934 0.984 . S
H1942 N1930 0.984 . S
H1943 N1930 0.985 . S
C1944 C1945 1.363 . S
C1944 C1950 1.379 . S
C1944 N1952 1.356 . S
C1945 C1944 1.363 . S
C1945 C1951 1.363 . S
C1946 C1947 1.363 . S
C1946 C1951 1.379 . S
C1946 N1953 1.356 . S
C1947 C1946 1.363 . S
C1947 C1950 1.363 . S
N1948 C1950 1.356 . S
N1948 H1960 0.984 . S
N1948 H1961 0.985 . S
N1949 C1951 1.356 . S
N1949 H1954 0.984 . S
N1949 H1955 0.985 . S
C1950 C1944 1.379 . S
C1950 C1947 1.363 . S
C1950 N1948 1.356 . S
C1951 C1945 1.363 . S
C1951 C1946 1.379 . S
C1951 N1949 1.356 . S
N1952 C1944 1.356 . S
N1952 H1958 0.984 . S
N1952 H1959 0.984 . S
N1953 C1946 1.356 . S
N1953 H1956 0.984 . S
N1953 H1957 0.985 . S
H1954 N1949 0.984 . S
H1955 N1949 0.985 . S
H1956 N1953 0.984 . S
H1957 N1953 0.985 . S
H1958 N1952 0.984 . S
H1959 N1952 0.984 . S
H1960 N1948 0.984 . S
H1961 N1948 0.985 . S
C1962 C1963 1.363 . S
C1962 C1968 1.379 . S
C1962 N1970 1.356 . S
C1963 C1962 1.363 . S
C1963 C1969 1.363 . S
C1964 C1965 1.363 . S
C1964 C1969 1.379 . S
C1964 N1971 1.356 . S
C1965 C1964 1.363 . S
C1965 C1968 1.363 . S
N1966 C1968 1.356 . S
N1966 H1978 0.984 . S
N1966 H1979 0.985 . S
N1967 C1969 1.356 . S
N1967 H1972 0.984 . S
N1967 H1973 0.985 . S
C1968 C1962 1.379 . S
C1968 C1965 1.363 . S
C1968 N1966 1.356 . S
C1969 C1963 1.363 . S
C1969 C1964 1.379 . S
C1969 N1967 1.356 . S
N1970 C1962 1.356 . S
N1970 H1976 0.984 . S
N1970 H1977 0.984 . S
N1971 C1964 1.356 . S
N1971 H1974 0.984 . S
N1971 H1975 0.985 . S
H1972 N1967 0.984 . S
H1973 N1967 0.985 . S
H1974 N1971 0.984 . S
H1975 N1971 0.985 . S
H1976 N1970 0.984 . S
H1977 N1970 0.984 . S
H1978 N1966 0.984 . S
H1979 N1966 0.985 . S
C1980 C1981 1.363 . S
C1980 C1986 1.379 . S
C1980 N1988 1.356 . S
C1981 C1980 1.363 . S
C1981 C1987 1.363 . S
C1982 C1983 1.363 . S
C1982 C1987 1.379 . S
C1982 N1989 1.356 . S
C1983 C1982 1.363 . S
C1983 C1986 1.363 . S
N1984 C1986 1.356 . S
N1984 H1996 0.984 . S
N1984 H1997 0.985 . S
N1985 C1987 1.356 . S
N1985 H1990 0.984 . S
N1985 H1991 0.985 . S
C1986 C1980 1.379 . S
C1986 C1983 1.363 . S
C1986 N1984 1.356 . S
C1987 C1981 1.363 . S
C1987 C1982 1.379 . S
C1987 N1985 1.356 . S
N1988 C1980 1.356 . S
N1988 H1994 0.984 . S
N1988 H1995 0.984 . S
N1989 C1982 1.356 . S
N1989 H1992 0.984 . S
N1989 H1993 0.985 . S
H1990 N1985 0.984 . S
H1991 N1985 0.985 . S
H1992 N1989 0.984 . S
H1993 N1989 0.985 . S
H1994 N1988 0.984 . S
H1995 N1988 0.984 . S
H1996 N1984 0.984 . S
H1997 N1984 0.985 . S
C1998 C1999 1.363 . S
C1998 C2004 1.379 . S
C1998 N2006 1.356 . S
C1999 C1998 1.363 . S
C1999 C2005 1.363 . S
C2000 C2001 1.363 . S
C2000 C2005 1.379 . S
C2000 N2007 1.356 . S
C2001 C2000 1.363 . S
C2001 C2004 1.363 . S
N2002 C2004 1.356 . S
N2002 H2014 0.984 . S
N2002 H2015 0.985 . S
N2003 C2005 1.356 . S
N2003 H2008 0.984 . S
N2003 H2009 0.985 . S
C2004 C1998 1.379 . S
C2004 C2001 1.363 . S
C2004 N2002 1.356 . S
C2005 C1999 1.363 . S
C2005 C2000 1.379 . S
C2005 N2003 1.356 . S
N2006 C1998 1.356 . S
N2006 H2012 0.984 . S
N2006 H2013 0.984 . S
N2007 C2000 1.356 . S
N2007 H2010 0.984 . S
N2007 H2011 0.985 . S
H2008 N2003 0.984 . S
H2009 N2003 0.985 . S
H2010 N2007 0.984 . S
H2011 N2007 0.985 . S
H2012 N2006 0.984 . S
H2013 N2006 0.984 . S
H2014 N2002 0.984 . S
H2015 N2002 0.985 . S
C2016 C2017 1.363 . S
C2016 C2022 1.379 . S
C2016 N2024 1.356 . S
C2017 C2016 1.363 . S
C2017 C2023 1.363 . S
C2018 C2019 1.363 . S
C2018 C2023 1.379 . S
C2018 N2025 1.356 . S
C2019 C2018 1.363 . S
C2019 C2022 1.363 . S
N2020 C2022 1.356 . S
N2020 H2032 0.984 . S
N2020 H2033 0.985 . S
N2021 C2023 1.356 . S
N2021 H2026 0.984 . S
N2021 H2027 0.985 . S
C2022 C2016 1.379 . S
C2022 C2019 1.363 . S
C2022 N2020 1.356 . S
C2023 C2017 1.363 . S
C2023 C2018 1.379 . S
C2023 N2021 1.356 . S
N2024 C2016 1.356 . S
N2024 H2030 0.984 . S
N2024 H2031 0.984 . S
N2025 C2018 1.356 . S
N2025 H2028 0.984 . S
N2025 H2029 0.985 . S
H2026 N2021 0.984 . S
H2027 N2021 0.985 . S
H2028 N2025 0.984 . S
H2029 N2025 0.985 . S
H2030 N2024 0.984 . S
H2031 N2024 0.984 . S
H2032 N2020 0.984 . S
H2033 N2020 0.985 . S
C2034 C2035 1.363 . S
C2034 C2040 1.379 . S
C2034 N2042 1.356 . S
C2035 C2034 1.363 . S
C2035 C2041 1.363 . S
C2036 C2037 1.363 . S
C2036 C2041 1.379 . S
C2036 N2043 1.356 . S
C2037 C2036 1.363 . S
C2037 C2040 1.363 . S
N2038 C2040 1.356 . S
N2038 H2050 0.984 . S
N2038 H2051 0.985 . S
N2039 C2041 1.356 . S
N2039 H2044 0.984 . S
N2039 H2045 0.985 . S
C2040 C2034 1.379 . S
C2040 C2037 1.363 . S
C2040 N2038 1.356 . S
C2041 C2035 1.363 . S
C2041 C2036 1.379 . S
C2041 N2039 1.356 . S
N2042 C2034 1.356 . S
N2042 H2048 0.984 . S
N2042 H2049 0.984 . S
N2043 C2036 1.356 . S
N2043 H2046 0.984 . S
N2043 H2047 0.985 . S
H2044 N2039 0.984 . S
H2045 N2039 0.985 . S
H2046 N2043 0.984 . S
H2047 N2043 0.985 . S
H2048 N2042 0.984 . S
H2049 N2042 0.984 . S
H2050 N2038 0.984 . S
H2051 N2038 0.985 . S
C2052 C2053 1.363 . S
C2052 C2058 1.379 . S
C2052 N2060 1.356 . S
C2053 C2052 1.363 . S
C2053 C2059 1.363 . S
C2054 C2055 1.363 . S
C2054 C2059 1.379 . S
C2054 N2061 1.356 . S
C2055 C2054 1.363 . S
C2055 C2058 1.363 . S
N2056 C2058 1.356 . S
N2056 H2068 0.984 . S
N2056 H2069 0.985 . S
N2057 C2059 1.356 . S
N2057 H2062 0.984 . S
N2057 H2063 0.985 . S
C2058 C2052 1.379 . S
C2058 C2055 1.363 . S
C2058 N2056 1.356 . S
C2059 C2053 1.363 . S
C2059 C2054 1.379 . S
C2059 N2057 1.356 . S
N2060 C2052 1.356 . S
N2060 H2066 0.984 . S
N2060 H2067 0.984 . S
N2061 C2054 1.356 . S
N2061 H2064 0.984 . S
N2061 H2065 0.985 . S
H2062 N2057 0.984 . S
H2063 N2057 0.985 . S
H2064 N2061 0.984 . S
H2065 N2061 0.985 . S
H2066 N2060 0.984 . S
H2067 N2060 0.984 . S
H2068 N2056 0.984 . S
H2069 N2056 0.985 . S
C2070 C2071 1.363 . S
C2070 C2076 1.379 . S
C2070 N2078 1.356 . S
C2071 C2070 1.363 . S
C2071 C2077 1.363 . S
C2072 C2073 1.363 . S
C2072 C2077 1.379 . S
C2072 N2079 1.356 . S
C2073 C2072 1.363 . S
C2073 C2076 1.363 . S
N2074 C2076 1.356 . S
N2074 H2086 0.984 . S
N2074 H2087 0.985 . S
N2075 C2077 1.356 . S
N2075 H2080 0.984 . S
N2075 H2081 0.985 . S
C2076 C2070 1.379 . S
C2076 C2073 1.363 . S
C2076 N2074 1.356 . S
C2077 C2071 1.363 . S
C2077 C2072 1.379 . S
C2077 N2075 1.356 . S
N2078 C2070 1.356 . S
N2078 H2084 0.984 . S
N2078 H2085 0.984 . S
N2079 C2072 1.356 . S
N2079 H2082 0.984 . S
N2079 H2083 0.985 . S
H2080 N2075 0.984 . S
H2081 N2075 0.985 . S
H2082 N2079 0.984 . S
H2083 N2079 0.985 . S
H2084 N2078 0.984 . S
H2085 N2078 0.984 . S
H2086 N2074 0.984 . S
H2087 N2074 0.985 . S
C2088 C2089 1.363 . S
C2088 C2094 1.379 . S
C2088 N2096 1.356 . S
C2089 C2088 1.363 . S
C2089 C2095 1.363 . S
C2090 C2091 1.363 . S
C2090 C2095 1.379 . S
C2090 N2097 1.356 . S
C2091 C2090 1.363 . S
C2091 C2094 1.363 . S
N2092 C2094 1.356 . S
N2092 H2104 0.984 . S
N2092 H2105 0.985 . S
N2093 C2095 1.356 . S
N2093 H2098 0.984 . S
N2093 H2099 0.985 . S
C2094 C2088 1.379 . S
C2094 C2091 1.363 . S
C2094 N2092 1.356 . S
C2095 C2089 1.363 . S
C2095 C2090 1.379 . S
C2095 N2093 1.356 . S
N2096 C2088 1.356 . S
N2096 H2102 0.984 . S
N2096 H2103 0.984 . S
N2097 C2090 1.356 . S
N2097 H2100 0.984 . S
N2097 H2101 0.985 . S
H2098 N2093 0.984 . S
H2099 N2093 0.985 . S
H2100 N2097 0.984 . S
H2101 N2097 0.985 . S
H2102 N2096 0.984 . S
H2103 N2096 0.984 . S
H2104 N2092 0.984 . S
H2105 N2092 0.985 . S
C2106 C2107 1.363 . S
C2106 C2112 1.379 . S
C2106 N2114 1.356 . S
C2107 C2106 1.363 . S
C2107 C2113 1.363 . S
C2108 C2109 1.363 . S
C2108 C2113 1.379 . S
C2108 N2115 1.356 . S
C2109 C2108 1.363 . S
C2109 C2112 1.363 . S
N2110 C2112 1.356 . S
N2110 H2122 0.984 . S
N2110 H2123 0.985 . S
N2111 C2113 1.356 . S
N2111 H2116 0.984 . S
N2111 H2117 0.985 . S
C2112 C2106 1.379 . S
C2112 C2109 1.363 . S
C2112 N2110 1.356 . S
C2113 C2107 1.363 . S
C2113 C2108 1.379 . S
C2113 N2111 1.356 . S
N2114 C2106 1.356 . S
N2114 H2120 0.984 . S
N2114 H2121 0.984 . S
N2115 C2108 1.356 . S
N2115 H2118 0.984 . S
N2115 H2119 0.985 . S
H2116 N2111 0.984 . S
H2117 N2111 0.985 . S
H2118 N2115 0.984 . S
H2119 N2115 0.985 . S
H2120 N2114 0.984 . S
H2121 N2114 0.984 . S
H2122 N2110 0.984 . S
H2123 N2110 0.985 . S
C2124 C2125 1.363 . S
C2124 C2130 1.379 . S
C2124 N2132 1.356 . S
C2125 C2124 1.363 . S
C2125 C2131 1.363 . S
C2126 C2127 1.363 . S
C2126 C2131 1.379 . S
C2126 N2133 1.356 . S
C2127 C2126 1.363 . S
C2127 C2130 1.363 . S
N2128 C2130 1.356 . S
N2128 H2140 0.984 . S
N2128 H2141 0.985 . S
N2129 C2131 1.356 . S
N2129 H2134 0.984 . S
N2129 H2135 0.985 . S
C2130 C2124 1.379 . S
C2130 C2127 1.363 . S
C2130 N2128 1.356 . S
C2131 C2125 1.363 . S
C2131 C2126 1.379 . S
C2131 N2129 1.356 . S
N2132 C2124 1.356 . S
N2132 H2138 0.984 . S
N2132 H2139 0.984 . S
N2133 C2126 1.356 . S
N2133 H2136 0.984 . S
N2133 H2137 0.985 . S
H2134 N2129 0.984 . S
H2135 N2129 0.985 . S
H2136 N2133 0.984 . S
H2137 N2133 0.985 . S
H2138 N2132 0.984 . S
H2139 N2132 0.984 . S
H2140 N2128 0.984 . S
H2141 N2128 0.985 . S
C2142 C2143 1.363 . S
C2142 C2148 1.379 . S
C2142 N2150 1.356 . S
C2143 C2142 1.363 . S
C2143 C2149 1.363 . S
C2144 C2145 1.363 . S
C2144 C2149 1.379 . S
C2144 N2151 1.356 . S
C2145 C2144 1.363 . S
C2145 C2148 1.363 . S
N2146 C2148 1.356 . S
N2146 H2158 0.984 . S
N2146 H2159 0.985 . S
N2147 C2149 1.356 . S
N2147 H2152 0.984 . S
N2147 H2153 0.985 . S
C2148 C2142 1.379 . S
C2148 C2145 1.363 . S
C2148 N2146 1.356 . S
C2149 C2143 1.363 . S
C2149 C2144 1.379 . S
C2149 N2147 1.356 . S
N2150 C2142 1.356 . S
N2150 H2156 0.984 . S
N2150 H2157 0.984 . S
N2151 C2144 1.356 . S
N2151 H2154 0.984 . S
N2151 H2155 0.985 . S
H2152 N2147 0.984 . S
H2153 N2147 0.985 . S
H2154 N2151 0.984 . S
H2155 N2151 0.985 . S
H2156 N2150 0.984 . S
H2157 N2150 0.984 . S
H2158 N2146 0.984 . S
H2159 N2146 0.985 . S
C2160 C2161 1.363 . S
C2160 C2166 1.379 . S
C2160 N2168 1.356 . S
C2161 C2160 1.363 . S
C2161 C2167 1.363 . S
C2162 C2163 1.363 . S
C2162 C2167 1.379 . S
C2162 N2169 1.356 . S
C2163 C2162 1.363 . S
C2163 C2166 1.363 . S
N2164 C2166 1.356 . S
N2164 H2176 0.984 . S
N2164 H2177 0.985 . S
N2165 C2167 1.356 . S
N2165 H2170 0.984 . S
N2165 H2171 0.985 . S
C2166 C2160 1.379 . S
C2166 C2163 1.363 . S
C2166 N2164 1.356 . S
C2167 C2161 1.363 . S
C2167 C2162 1.379 . S
C2167 N2165 1.356 . S
N2168 C2160 1.356 . S
N2168 H2174 0.984 . S
N2168 H2175 0.984 . S
N2169 C2162 1.356 . S
N2169 H2172 0.984 . S
N2169 H2173 0.985 . S
H2170 N2165 0.984 . S
H2171 N2165 0.985 . S
H2172 N2169 0.984 . S
H2173 N2169 0.985 . S
H2174 N2168 0.984 . S
H2175 N2168 0.984 . S
H2176 N2164 0.984 . S
H2177 N2164 0.985 . S
C2178 C2179 1.363 . S
C2178 C2184 1.379 . S
C2178 N2186 1.356 . S
C2179 C2178 1.363 . S
C2179 C2185 1.363 . S
C2180 C2181 1.363 . S
C2180 C2185 1.379 . S
C2180 N2187 1.356 . S
C2181 C2180 1.363 . S
C2181 C2184 1.363 . S
N2182 C2184 1.356 . S
N2182 H2194 0.984 . S
N2182 H2195 0.985 . S
N2183 C2185 1.356 . S
N2183 H2188 0.984 . S
N2183 H2189 0.985 . S
C2184 C2178 1.379 . S
C2184 C2181 1.363 . S
C2184 N2182 1.356 . S
C2185 C2179 1.363 . S
C2185 C2180 1.379 . S
C2185 N2183 1.356 . S
N2186 C2178 1.356 . S
N2186 H2192 0.984 . S
N2186 H2193 0.984 . S
N2187 C2180 1.356 . S
N2187 H2190 0.984 . S
N2187 H2191 0.985 . S
H2188 N2183 0.984 . S
H2189 N2183 0.985 . S
H2190 N2187 0.984 . S
H2191 N2187 0.985 . S
H2192 N2186 0.984 . S
H2193 N2186 0.984 . S
H2194 N2182 0.984 . S
H2195 N2182 0.985 . S
C2196 C2197 1.363 . S
C2196 C2202 1.379 . S
C2196 N2204 1.356 . S
C2197 C2196 1.363 . S
C2197 C2203 1.363 . S
C2198 C2199 1.363 . S
C2198 C2203 1.379 . S
C2198 N2205 1.356 . S
C2199 C2198 1.363 . S
C2199 C2202 1.363 . S
N2200 C2202 1.356 . S
N2200 H2212 0.984 . S
N2200 H2213 0.985 . S
N2201 C2203 1.356 . S
N2201 H2206 0.984 . S
N2201 H2207 0.985 . S
C2202 C2196 1.379 . S
C2202 C2199 1.363 . S
C2202 N2200 1.356 . S
C2203 C2197 1.363 . S
C2203 C2198 1.379 . S
C2203 N2201 1.356 . S
N2204 C2196 1.356 . S
N2204 H2210 0.984 . S
N2204 H2211 0.984 . S
N2205 C2198 1.356 . S
N2205 H2208 0.984 . S
N2205 H2209 0.985 . S
H2206 N2201 0.984 . S
H2207 N2201 0.985 . S
H2208 N2205 0.984 . S
H2209 N2205 0.985 . S
H2210 N2204 0.984 . S
H2211 N2204 0.984 . S
H2212 N2200 0.984 . S
H2213 N2200 0.985 . S
C2214 C2215 1.363 . S
C2214 C2220 1.379 . S
C2214 N2222 1.356 . S
C2215 C2214 1.363 . S
C2215 C2221 1.363 . S
C2216 C2217 1.363 . S
C2216 C2221 1.379 . S
C2216 N2223 1.356 . S
C2217 C2216 1.363 . S
C2217 C2220 1.363 . S
N2218 C2220 1.356 . S
N2218 H2230 0.984 . S
N2218 H2231 0.985 . S
N2219 C2221 1.356 . S
N2219 H2224 0.984 . S
N2219 H2225 0.985 . S
C2220 C2214 1.379 . S
C2220 C2217 1.363 . S
C2220 N2218 1.356 . S
C2221 C2215 1.363 . S
C2221 C2216 1.379 . S
C2221 N2219 1.356 . S
N2222 C2214 1.356 . S
N2222 H2228 0.984 . S
N2222 H2229 0.984 . S
N2223 C2216 1.356 . S
N2223 H2226 0.984 . S
N2223 H2227 0.985 . S
H2224 N2219 0.984 . S
H2225 N2219 0.985 . S
H2226 N2223 0.984 . S
H2227 N2223 0.985 . S
H2228 N2222 0.984 . S
H2229 N2222 0.984 . S
H2230 N2218 0.984 . S
H2231 N2218 0.985 . S
C2232 C2233 1.363 . S
C2232 C2238 1.379 . S
C2232 N2240 1.356 . S
C2233 C2232 1.363 . S
C2233 C2239 1.363 . S
C2234 C2235 1.363 . S
C2234 C2239 1.379 . S
C2234 N2241 1.356 . S
C2235 C2234 1.363 . S
C2235 C2238 1.363 . S
N2236 C2238 1.356 . S
N2236 H2248 0.984 . S
N2236 H2249 0.985 . S
N2237 C2239 1.356 . S
N2237 H2242 0.984 . S
N2237 H2243 0.985 . S
C2238 C2232 1.379 . S
C2238 C2235 1.363 . S
C2238 N2236 1.356 . S
C2239 C2233 1.363 . S
C2239 C2234 1.379 . S
C2239 N2237 1.356 . S
N2240 C2232 1.356 . S
N2240 H2246 0.984 . S
N2240 H2247 0.984 . S
N2241 C2234 1.356 . S
N2241 H2244 0.984 . S
N2241 H2245 0.985 . S
H2242 N2237 0.984 . S
H2243 N2237 0.985 . S
H2244 N2241 0.984 . S
H2245 N2241 0.985 . S
H2246 N2240 0.984 . S
H2247 N2240 0.984 . S
H2248 N2236 0.984 . S
H2249 N2236 0.985 . S
C2250 C2251 1.363 . S
C2250 C2256 1.379 . S
C2250 N2258 1.356 . S
C2251 C2250 1.363 . S
C2251 C2257 1.363 . S
C2252 C2253 1.363 . S
C2252 C2257 1.379 . S
C2252 N2259 1.356 . S
C2253 C2252 1.363 . S
C2253 C2256 1.363 . S
N2254 C2256 1.356 . S
N2254 H2266 0.984 . S
N2254 H2267 0.985 . S
N2255 C2257 1.356 . S
N2255 H2260 0.984 . S
N2255 H2261 0.985 . S
C2256 C2250 1.379 . S
C2256 C2253 1.363 . S
C2256 N2254 1.356 . S
C2257 C2251 1.363 . S
C2257 C2252 1.379 . S
C2257 N2255 1.356 . S
N2258 C2250 1.356 . S
N2258 H2264 0.984 . S
N2258 H2265 0.984 . S
N2259 C2252 1.356 . S
N2259 H2262 0.984 . S
N2259 H2263 0.985 . S
H2260 N2255 0.984 . S
H2261 N2255 0.985 . S
H2262 N2259 0.984 . S
H2263 N2259 0.985 . S
H2264 N2258 0.984 . S
H2265 N2258 0.984 . S
H2266 N2254 0.984 . S
H2267 N2254 0.985 . S
C2268 C2269 1.363 . S
C2268 C2274 1.379 . S
C2268 N2276 1.356 . S
C2269 C2268 1.363 . S
C2269 C2275 1.363 . S
C2270 C2271 1.363 . S
C2270 C2275 1.379 . S
C2270 N2277 1.356 . S
C2271 C2270 1.363 . S
C2271 C2274 1.363 . S
N2272 C2274 1.356 . S
N2272 H2284 0.984 . S
N2272 H2285 0.985 . S
N2273 C2275 1.356 . S
N2273 H2278 0.984 . S
N2273 H2279 0.985 . S
C2274 C2268 1.379 . S
C2274 C2271 1.363 . S
C2274 N2272 1.356 . S
C2275 C2269 1.363 . S
C2275 C2270 1.379 . S
C2275 N2273 1.356 . S
N2276 C2268 1.356 . S
N2276 H2282 0.984 . S
N2276 H2283 0.984 . S
N2277 C2270 1.356 . S
N2277 H2280 0.984 . S
N2277 H2281 0.985 . S
H2278 N2273 0.984 . S
H2279 N2273 0.985 . S
H2280 N2277 0.984 . S
H2281 N2277 0.985 . S
H2282 N2276 0.984 . S
H2283 N2276 0.984 . S
H2284 N2272 0.984 . S
H2285 N2272 0.985 . S
C2286 C2287 1.363 . S
C2286 C2292 1.379 . S
C2286 N2294 1.356 . S
C2287 C2286 1.363 . S
C2287 C2293 1.363 1_556 S
C2288 C2289 1.363 1_554 S
C2288 C2293 1.379 . S
C2288 N2295 1.356 . S
C2289 C2288 1.363 1_556 S
C2289 C2292 1.363 . S
N2290 C2292 1.356 . S
N2290 H2302 0.984 . S
N2290 H2303 0.985 . S
N2291 C2293 1.356 . S
N2291 H2296 0.984 . S
N2291 H2297 0.985 . S
C2292 C2286 1.379 . S
C2292 C2289 1.363 . S
C2292 N2290 1.356 . S
C2293 C2287 1.363 1_554 S
C2293 C2288 1.379 . S
C2293 N2291 1.356 . S
N2294 C2286 1.356 . S
N2294 H2300 0.984 . S
N2294 H2301 0.984 . S
N2295 C2288 1.356 . S
N2295 H2298 0.984 . S
N2295 H2299 0.985 . S
H2296 N2291 0.984 . S
H2297 N2291 0.985 . S
H2298 N2295 0.984 . S
H2299 N2295 0.985 . S
H2300 N2294 0.984 . S
H2301 N2294 0.984 . S
H2302 N2290 0.984 . S
H2303 N2290 0.985 . S
C2304 C2305 1.363 . S
C2304 C2310 1.379 . S
C2304 N2312 1.356 . S
C2305 C2304 1.363 . S
C2305 C2311 1.363 . S
C2306 C2307 1.363 . S
C2306 C2311 1.379 . S
C2306 N2313 1.356 . S
C2307 C2306 1.363 . S
C2307 C2310 1.363 . S
N2308 C2310 1.356 . S
N2308 H2320 0.984 . S
N2308 H2321 0.985 . S
N2309 C2311 1.356 . S
N2309 H2314 0.984 . S
N2309 H2315 0.985 . S
C2310 C2304 1.379 . S
C2310 C2307 1.363 . S
C2310 N2308 1.356 . S
C2311 C2305 1.363 . S
C2311 C2306 1.379 . S
C2311 N2309 1.356 . S
N2312 C2304 1.356 . S
N2312 H2318 0.984 1_655 S
N2312 H2319 0.984 1_556 S
N2313 C2306 1.356 . S
N2313 H2316 0.984 . S
N2313 H2317 0.985 . S
H2314 N2309 0.984 . S
H2315 N2309 0.985 . S
H2316 N2313 0.984 . S
H2317 N2313 0.985 . S
H2318 N2312 0.984 1_455 S
H2319 N2312 0.984 1_554 S
H2320 N2308 0.984 . S
H2321 N2308 0.985 . S
C2322 C2323 1.363 . S
C2322 C2328 1.379 . S
C2322 N2330 1.356 . S
C2323 C2322 1.363 . S
C2323 C2329 1.363 . S
C2324 C2325 1.363 . S
C2324 C2329 1.379 . S
C2324 N2331 1.356 . S
C2325 C2324 1.363 . S
C2325 C2328 1.363 . S
N2326 C2328 1.356 1_556 S
N2326 H2338 0.984 . S
N2326 H2339 0.985 . S
N2327 C2329 1.356 . S
N2327 H2332 0.984 . S
N2327 H2333 0.985 . S
C2328 C2322 1.379 . S
C2328 C2325 1.363 . S
C2328 N2326 1.356 1_554 S
C2329 C2323 1.363 . S
C2329 C2324 1.379 . S
C2329 N2327 1.356 . S
N2330 C2322 1.356 . S
N2330 H2336 0.987 . S
N2330 H2337 0.984 . S
N2331 C2324 1.356 . S
N2331 H2334 0.984 . S
N2331 H2335 0.985 . S
H2332 N2327 0.984 . S
H2333 N2327 0.985 . S
H2334 N2331 0.984 . S
H2335 N2331 0.985 . S
H2336 N2330 0.987 . S
H2337 N2330 0.984 . S
H2338 N2326 0.984 . S
H2339 N2326 0.985 . S
C2340 C2341 1.363 . S
C2340 C2346 1.379 1_554 S
C2340 N2348 1.356 . S
C2341 C2340 1.363 . S
C2341 C2347 1.363 1_554 S
C2342 C2343 1.363 . S
C2342 C2347 1.379 . S
C2342 N2349 1.356 . S
C2343 C2342 1.363 . S
C2343 C2346 1.363 . S
N2344 C2346 1.356 . S
N2344 H2356 0.984 1_556 S
N2344 H2357 0.985 . S
N2345 C2347 1.356 . S
N2345 H2350 0.984 . S
N2345 H2351 0.985 . S
C2346 C2340 1.379 1_556 S
C2346 C2343 1.363 . S
C2346 N2344 1.356 . S
C2347 C2341 1.363 1_556 S
C2347 C2342 1.379 . S
C2347 N2345 1.356 . S
N2348 C2340 1.356 . S
N2348 H2354 0.984 . S
N2348 H2355 0.984 . S
N2349 C2342 1.356 . S
N2349 H2352 0.984 . S
N2349 H2353 0.985 . S
H2350 N2345 0.984 . S
H2351 N2345 0.985 . S
H2352 N2349 0.984 . S
H2353 N2349 0.985 . S
H2354 N2348 0.984 . S
H2355 N2348 0.984 . S
H2356 N2344 0.984 1_554 S
H2357 N2344 0.985 . S
C2358 C2359 1.363 . S
C2358 C2364 1.379 . S
C2358 N2366 1.356 . S
C2359 C2358 1.363 . S
C2359 C2365 1.363 . S
C2360 C2361 1.363 . S
C2360 C2365 1.379 . S
C2360 N2367 1.356 . S
C2361 C2360 1.363 . S
C2361 C2364 1.363 . S
N2362 C2364 1.356 . S
N2362 H2374 0.984 . S
N2362 H2375 0.985 . S
N2363 C2365 1.356 . S
N2363 H2368 0.984 . S
N2363 H2369 0.985 . S
C2364 C2358 1.379 . S
C2364 C2361 1.363 . S
C2364 N2362 1.356 . S
C2365 C2359 1.363 . S
C2365 C2360 1.379 . S
C2365 N2363 1.356 . S
N2366 C2358 1.356 . S
N2366 H2372 0.984 . S
N2366 H2373 0.984 . S
N2367 C2360 1.356 . S
N2367 H2370 0.984 . S
N2367 H2371 0.985 . S
H2368 N2363 0.984 . S
H2369 N2363 0.985 . S
H2370 N2367 0.984 . S
H2371 N2367 0.985 . S
H2372 N2366 0.984 . S
H2373 N2366 0.984 . S
H2374 N2362 0.984 . S
H2375 N2362 0.985 . S
C2376 C2377 1.363 . S
C2376 C2382 1.379 1_554 S
C2376 N2384 1.356 . S
C2377 C2376 1.363 . S
C2377 C2383 1.363 . S
C2378 C2379 1.363 1_554 S
C2378 C2383 1.379 . S
C2378 N2385 1.356 . S
C2379 C2378 1.363 1_556 S
C2379 C2382 1.363 . S
N2380 C2382 1.356 . S
N2380 H2392 0.984 . S
N2380 H2393 0.985 . S
N2381 C2383 1.356 . S
N2381 H2386 0.984 . S
N2381 H2387 0.985 1_545 S
C2382 C2376 1.379 1_556 S
C2382 C2379 1.363 . S
C2382 N2380 1.356 . S
C2383 C2377 1.363 . S
C2383 C2378 1.379 . S
C2383 N2381 1.356 . S
N2384 C2376 1.356 . S
N2384 H2390 0.984 . S
N2384 H2391 0.984 . S
N2385 C2378 1.356 . S
N2385 H2388 0.984 1_554 S
N2385 H2389 0.985 . S
H2386 N2381 0.984 . S
H2387 N2381 0.985 1_565 S
H2388 N2385 0.984 1_556 S
H2389 N2385 0.985 . S
H2390 N2384 0.984 . S
H2391 N2384 0.984 . S
H2392 N2380 0.984 . S
H2393 N2380 0.985 . S
C2394 C2395 1.363 . S
C2394 C2400 1.379 . S
C2394 N2402 1.356 . S
C2395 C2394 1.363 . S
C2395 C2401 1.363 . S
C2396 C2397 1.363 . S
C2396 C2401 1.379 . S
C2396 N2403 1.356 . S
C2397 C2396 1.363 . S
C2397 C2400 1.363 . S
N2398 C2400 1.356 . S
N2398 H2410 0.984 . S
N2398 H2411 0.985 . S
N2399 C2401 1.356 . S
N2399 H2404 0.984 . S
N2399 H2405 0.985 . S
C2400 C2394 1.379 . S
C2400 C2397 1.363 . S
C2400 N2398 1.356 . S
C2401 C2395 1.363 . S
C2401 C2396 1.379 . S
C2401 N2399 1.356 . S
N2402 C2394 1.356 . S
N2402 H2408 0.984 1_565 S
N2402 H2409 0.984 . S
N2403 C2396 1.356 . S
N2403 H2406 0.984 . S
N2403 H2407 0.985 . S
H2404 N2399 0.984 . S
H2405 N2399 0.985 . S
H2406 N2403 0.984 . S
H2407 N2403 0.985 . S
H2408 N2402 0.984 1_545 S
H2409 N2402 0.984 . S
H2410 N2398 0.984 . S
H2411 N2398 0.985 . S
C2412 C2413 1.363 . S
C2412 C2418 1.379 . S
C2412 N2420 1.356 . S
C2413 C2412 1.363 . S
C2413 C2419 1.363 . S
C2414 C2415 1.363 . S
C2414 C2419 1.379 . S
C2414 N2421 1.356 . S
C2415 C2414 1.363 . S
C2415 C2418 1.363 . S
N2416 C2418 1.356 . S
N2416 H2428 0.984 . S
N2416 H2429 0.985 . S
N2417 C2419 1.356 . S
N2417 H2422 0.984 . S
N2417 H2423 0.985 . S
C2418 C2412 1.379 . S
C2418 C2415 1.363 . S
C2418 N2416 1.356 . S
C2419 C2413 1.363 . S
C2419 C2414 1.379 . S
C2419 N2417 1.356 . S
N2420 C2412 1.356 . S
N2420 H2426 0.984 . S
N2420 H2427 0.984 . S
N2421 C2414 1.356 . S
N2421 H2424 0.984 . S
N2421 H2425 0.985 . S
H2422 N2417 0.984 . S
H2423 N2417 0.985 . S
H2424 N2421 0.984 . S
H2425 N2421 0.985 . S
H2426 N2420 0.984 . S
H2427 N2420 0.984 . S
H2428 N2416 0.984 . S
H2429 N2416 0.985 . S
C2430 C2431 1.363 . S
C2430 C2436 1.379 . S
C2430 N2438 1.356 . S
C2431 C2430 1.363 . S
C2431 C2437 1.363 . S
C2432 C2433 1.363 . S
C2432 C2437 1.379 . S
C2432 N2439 1.356 . S
C2433 C2432 1.363 . S
C2433 C2436 1.363 . S
N2434 C2436 1.356 . S
N2434 H2446 0.984 . S
N2434 H2447 0.985 . S
N2435 C2437 1.356 . S
N2435 H2440 0.984 . S
N2435 H2441 0.985 . S
C2436 C2430 1.379 . S
C2436 C2433 1.363 . S
C2436 N2434 1.356 . S
C2437 C2431 1.363 . S
C2437 C2432 1.379 . S
C2437 N2435 1.356 . S
N2438 C2430 1.356 . S
N2438 H2444 0.984 . S
N2438 H2445 0.984 . S
N2439 C2432 1.356 . S
N2439 H2442 0.984 . S
N2439 H2443 0.985 . S
H2440 N2435 0.984 . S
H2441 N2435 0.985 . S
H2442 N2439 0.984 . S
H2443 N2439 0.985 . S
H2444 N2438 0.984 . S
H2445 N2438 0.984 . S
H2446 N2434 0.984 . S
H2447 N2434 0.985 . S
C2448 C2449 1.363 . S
C2448 C2454 1.379 . S
C2448 N2456 1.356 . S
C2449 C2448 1.363 . S
C2449 C2455 1.363 . S
C2450 C2451 1.363 . S
C2450 C2455 1.379 . S
C2450 N2457 1.356 . S
C2451 C2450 1.363 . S
C2451 C2454 1.363 . S
N2452 C2454 1.356 . S
N2452 H2464 0.984 . S
N2452 H2465 0.985 . S
N2453 C2455 1.356 . S
N2453 H2458 0.984 . S
N2453 H2459 0.985 . S
C2454 C2448 1.379 . S
C2454 C2451 1.363 . S
C2454 N2452 1.356 . S
C2455 C2449 1.363 . S
C2455 C2450 1.379 . S
C2455 N2453 1.356 . S
N2456 C2448 1.356 . S
N2456 H2462 0.984 . S
N2456 H2463 0.984 . S
N2457 C2450 1.356 . S
N2457 H2460 0.984 . S
N2457 H2461 0.985 . S
H2458 N2453 0.984 . S
H2459 N2453 0.985 . S
H2460 N2457 0.984 . S
H2461 N2457 0.985 . S
H2462 N2456 0.984 . S
H2463 N2456 0.984 . S
H2464 N2452 0.984 . S
H2465 N2452 0.985 . S
C2466 C2467 1.363 . S
C2466 C2472 1.379 . S
C2466 N2474 1.356 . S
C2467 C2466 1.363 . S
C2467 C2473 1.363 . S
C2468 C2469 1.363 . S
C2468 C2473 1.379 . S
C2468 N2475 1.356 . S
C2469 C2468 1.363 . S
C2469 C2472 1.363 . S
N2470 C2472 1.356 . S
N2470 H2482 0.984 . S
N2470 H2483 0.985 . S
N2471 C2473 1.356 . S
N2471 H2476 0.984 . S
N2471 H2477 0.985 . S
C2472 C2466 1.379 . S
C2472 C2469 1.363 . S
C2472 N2470 1.356 . S
C2473 C2467 1.363 . S
C2473 C2468 1.379 . S
C2473 N2471 1.356 . S
N2474 C2466 1.356 . S
N2474 H2480 0.984 . S
N2474 H2481 0.984 1_545 S
N2475 C2468 1.356 . S
N2475 H2478 0.984 . S
N2475 H2479 0.985 . S
H2476 N2471 0.984 . S
H2477 N2471 0.985 . S
H2478 N2475 0.984 . S
H2479 N2475 0.985 . S
H2480 N2474 0.984 . S
H2481 N2474 0.984 1_565 S
H2482 N2470 0.984 . S
H2483 N2470 0.985 . S
C2484 C2485 1.363 . S
C2484 C2490 1.379 . S
C2484 N2492 1.356 . S
C2485 C2484 1.363 . S
C2485 C2491 1.363 . S
C2486 C2487 1.363 . S
C2486 C2491 1.379 . S
C2486 N2493 1.356 . S
C2487 C2486 1.363 . S
C2487 C2490 1.363 . S
N2488 C2490 1.356 . S
N2488 H2500 0.984 . S
N2488 H2501 0.985 . S
N2489 C2491 1.356 1_455 S
N2489 H2494 0.984 . S
N2489 H2495 0.985 . S
C2490 C2484 1.379 . S
C2490 C2487 1.363 . S
C2490 N2488 1.356 . S
C2491 C2485 1.363 . S
C2491 C2486 1.379 . S
C2491 N2489 1.356 1_655 S
N2492 C2484 1.356 . S
N2492 H2498 0.984 . S
N2492 H2499 0.984 . S
N2493 C2486 1.356 . S
N2493 H2496 0.984 . S
N2493 H2497 0.985 . S
H2494 N2489 0.984 . S
H2495 N2489 0.985 . S
H2496 N2493 0.984 . S
H2497 N2493 0.985 . S
H2498 N2492 0.984 . S
H2499 N2492 0.984 . S
H2500 N2488 0.984 . S
H2501 N2488 0.985 . S
C2502 C2503 1.363 . S
C2502 C2508 1.379 . S
C2502 N2510 1.356 . S
C2503 C2502 1.363 . S
C2503 C2509 1.363 . S
C2504 C2505 1.363 . S
C2504 C2509 1.379 . S
C2504 N2511 1.356 . S
C2505 C2504 1.363 . S
C2505 C2508 1.363 . S
N2506 C2508 1.356 . S
N2506 H2518 0.984 . S
N2506 H2519 0.985 . S
N2507 C2509 1.356 . S
N2507 H2512 0.984 . S
N2507 H2513 0.985 . S
C2508 C2502 1.379 . S
C2508 C2505 1.363 . S
C2508 N2506 1.356 . S
C2509 C2503 1.363 . S
C2509 C2504 1.379 . S
C2509 N2507 1.356 . S
N2510 C2502 1.356 . S
N2510 H2516 0.984 . S
N2510 H2517 0.984 . S
N2511 C2504 1.356 . S
N2511 H2514 0.984 . S
N2511 H2515 0.985 . S
H2512 N2507 0.984 . S
H2513 N2507 0.985 . S
H2514 N2511 0.984 . S
H2515 N2511 0.985 . S
H2516 N2510 0.984 . S
H2517 N2510 0.984 . S
H2518 N2506 0.984 . S
H2519 N2506 0.985 . S
C2520 C2521 1.363 . S
C2520 C2526 1.379 . S
C2520 N2528 1.356 . S
C2521 C2520 1.363 . S
C2521 C2527 1.363 . S
C2522 C2523 1.363 . S
C2522 C2527 1.379 . S
C2522 N2529 1.356 . S
C2523 C2522 1.363 . S
C2523 C2526 1.363 . S
N2524 C2526 1.356 . S
N2524 H2536 0.984 . S
N2524 H2537 0.985 . S
N2525 C2527 1.356 . S
N2525 H2530 0.984 . S
N2525 H2531 0.985 . S
C2526 C2520 1.379 . S
C2526 C2523 1.363 . S
C2526 N2524 1.356 . S
C2527 C2521 1.363 . S
C2527 C2522 1.379 . S
C2527 N2525 1.356 . S
N2528 C2520 1.356 . S
N2528 H2534 0.984 . S
N2528 H2535 0.984 . S
N2529 C2522 1.356 . S
N2529 H2532 0.984 . S
N2529 H2533 0.985 . S
H2530 N2525 0.984 . S
H2531 N2525 0.985 . S
H2532 N2529 0.984 . S
H2533 N2529 0.985 . S
H2534 N2528 0.984 . S
H2535 N2528 0.984 . S
H2536 N2524 0.984 . S
H2537 N2524 0.985 . S
C2538 C2539 1.363 . S
C2538 C2544 1.379 . S
C2538 N2546 1.356 . S
C2539 C2538 1.363 . S
C2539 C2545 1.363 . S
C2540 C2541 1.363 . S
C2540 C2545 1.379 . S
C2540 N2547 1.356 1_565 S
C2541 C2540 1.363 . S
C2541 C2544 1.363 . S
N2542 C2544 1.356 . S
N2542 H2554 0.984 . S
N2542 H2555 0.985 . S
N2543 C2545 1.356 1_545 S
N2543 H2548 0.984 1_545 S
N2543 H2549 0.985 . S
C2544 C2538 1.379 . S
C2544 C2541 1.363 . S
C2544 N2542 1.356 . S
C2545 C2539 1.363 . S
C2545 C2540 1.379 . S
C2545 N2543 1.356 1_565 S
N2546 C2538 1.356 . S
N2546 H2552 0.984 . S
N2546 H2553 0.984 . S
N2547 C2540 1.356 1_545 S
N2547 H2550 0.984 . S
N2547 H2551 0.985 . S
H2548 N2543 0.984 1_565 S
H2549 N2543 0.985 . S
H2550 N2547 0.984 . S
H2551 N2547 0.985 . S
H2552 N2546 0.984 . S
H2553 N2546 0.984 . S
H2554 N2542 0.984 . S
H2555 N2542 0.985 . S
C2556 C2557 1.363 . S
C2556 C2562 1.379 . S
C2556 N2564 1.356 . S
C2557 C2556 1.363 . S
C2557 C2563 1.363 1_565 S
C2558 C2559 1.363 1_545 S
C2558 C2563 1.379 . S
C2558 N2565 1.356 . S
C2559 C2558 1.363 1_565 S
C2559 C2562 1.363 . S
N2560 C2562 1.356 . S
N2560 H2572 0.984 . S
N2560 H2573 0.985 . S
N2561 C2563 1.356 . S
N2561 H2566 0.984 1_545 S
N2561 H2567 0.985 . S
C2562 C2556 1.379 . S
C2562 C2559 1.363 . S
C2562 N2560 1.356 . S
C2563 C2557 1.363 1_545 S
C2563 C2558 1.379 . S
C2563 N2561 1.356 . S
N2564 C2556 1.356 . S
N2564 H2570 0.984 . S
N2564 H2571 0.984 . S
N2565 C2558 1.356 . S
N2565 H2568 0.984 . S
N2565 H2569 0.985 . S
H2566 N2561 0.984 1_565 S
H2567 N2561 0.985 . S
H2568 N2565 0.984 . S
H2569 N2565 0.985 . S
H2570 N2564 0.984 . S
H2571 N2564 0.984 . S
H2572 N2560 0.984 . S
H2573 N2560 0.985 . S
C2574 C2575 1.363 . S
C2574 C2580 1.379 . S
C2574 N2582 1.356 . S
C2575 C2574 1.363 . S
C2575 C2581 1.363 . S
C2576 C2577 1.363 . S
C2576 C2581 1.379 . S
C2576 N2583 1.356 1_455 S
C2577 C2576 1.363 . S
C2577 C2580 1.363 . S
N2578 C2580 1.356 . S
N2578 H2590 0.984 . S
N2578 H2591 0.985 1_455 S
N2579 C2581 1.356 . S
N2579 H2584 0.984 . S
N2579 H2585 0.985 . S
C2580 C2574 1.379 . S
C2580 C2577 1.363 . S
C2580 N2578 1.356 . S
C2581 C2575 1.363 . S
C2581 C2576 1.379 . S
C2581 N2579 1.356 . S
N2582 C2574 1.356 . S
N2582 H2588 0.984 . S
N2582 H2589 0.984 . S
N2583 C2576 1.356 1_655 S
N2583 H2586 0.984 . S
N2583 H2587 0.985 . S
H2584 N2579 0.984 . S
H2585 N2579 0.985 . S
H2586 N2583 0.984 . S
H2587 N2583 0.985 . S
H2588 N2582 0.984 . S
H2589 N2582 0.984 . S
H2590 N2578 0.984 . S
H2591 N2578 0.985 1_655 S
C2592 C2593 1.363 . S
C2592 C2598 1.379 . S
C2592 N2600 1.356 . S
C2593 C2592 1.363 . S
C2593 C2599 1.363 . S
C2594 C2595 1.363 . S
C2594 C2599 1.379 . S
C2594 N2601 1.356 . S
C2595 C2594 1.363 . S
C2595 C2598 1.363 . S
N2596 C2598 1.356 . S
N2596 H2608 0.984 . S
N2596 H2609 0.985 . S
N2597 C2599 1.356 . S
N2597 H2602 0.984 . S
N2597 H2603 0.985 . S
C2598 C2592 1.379 . S
C2598 C2595 1.363 . S
C2598 N2596 1.356 . S
C2599 C2593 1.363 . S
C2599 C2594 1.379 . S
C2599 N2597 1.356 . S
N2600 C2592 1.356 . S
N2600 H2606 0.984 . S
N2600 H2607 0.984 . S
N2601 C2594 1.356 . S
N2601 H2604 0.984 . S
N2601 H2605 0.985 . S
H2602 N2597 0.984 . S
H2603 N2597 0.985 . S
H2604 N2601 0.984 . S
H2605 N2601 0.985 . S
H2606 N2600 0.984 . S
H2607 N2600 0.984 . S
H2608 N2596 0.984 . S
H2609 N2596 0.985 . S
C2610 C2611 1.363 . S
C2610 C2616 1.379 . S
C2610 N2618 1.356 . S
C2611 C2610 1.363 . S
C2611 C2617 1.363 . S
C2612 C2613 1.363 . S
C2612 C2617 1.379 . S
C2612 N2619 1.356 . S
C2613 C2612 1.363 . S
C2613 C2616 1.363 . S
N2614 C2616 1.356 . S
N2614 H2626 0.984 . S
N2614 H2627 0.985 . S
N2615 C2617 1.356 . S
N2615 H2620 0.984 . S
N2615 H2621 0.985 . S
C2616 C2610 1.379 . S
C2616 C2613 1.363 . S
C2616 N2614 1.356 . S
C2617 C2611 1.363 . S
C2617 C2612 1.379 . S
C2617 N2615 1.356 . S
N2618 C2610 1.356 . S
N2618 H2624 0.984 . S
N2618 H2625 0.984 . S
N2619 C2612 1.356 . S
N2619 H2622 0.984 . S
N2619 H2623 0.985 . S
H2620 N2615 0.984 . S
H2621 N2615 0.985 . S
H2622 N2619 0.984 . S
H2623 N2619 0.985 . S
H2624 N2618 0.984 . S
H2625 N2618 0.984 . S
H2626 N2614 0.984 . S
H2627 N2614 0.985 . S
C2628 C2629 1.363 . S
C2628 C2634 1.379 . S
C2628 N2636 1.356 . S
C2629 C2628 1.363 . S
C2629 C2635 1.363 . S
C2630 C2631 1.363 . S
C2630 C2635 1.379 . S
C2630 N2637 1.356 . S
C2631 C2630 1.363 . S
C2631 C2634 1.363 . S
N2632 C2634 1.356 . S
N2632 H2644 0.984 . S
N2632 H2645 0.985 . S
N2633 C2635 1.356 . S
N2633 H2638 0.984 . S
N2633 H2639 0.985 . S
C2634 C2628 1.379 . S
C2634 C2631 1.363 . S
C2634 N2632 1.356 . S
C2635 C2629 1.363 . S
C2635 C2630 1.379 . S
C2635 N2633 1.356 . S
N2636 C2628 1.356 . S
N2636 H2642 0.984 . S
N2636 H2643 0.984 . S
N2637 C2630 1.356 . S
N2637 H2640 0.984 . S
N2637 H2641 0.985 . S
H2638 N2633 0.984 . S
H2639 N2633 0.985 . S
H2640 N2637 0.984 . S
H2641 N2637 0.985 . S
H2642 N2636 0.984 . S
H2643 N2636 0.984 . S
H2644 N2632 0.984 . S
H2645 N2632 0.985 . S
C2646 C2647 1.363 . S
C2646 C2652 1.379 . S
C2646 N2654 1.356 . S
C2647 C2646 1.363 . S
C2647 C2653 1.363 . S
C2648 C2649 1.363 . S
C2648 C2653 1.379 . S
C2648 N2655 1.356 . S
C2649 C2648 1.363 . S
C2649 C2652 1.363 . S
N2650 C2652 1.356 . S
N2650 H2662 0.984 . S
N2650 H2663 0.985 . S
N2651 C2653 1.356 . S
N2651 H2656 0.984 . S
N2651 H2657 0.985 . S
C2652 C2646 1.379 . S
C2652 C2649 1.363 . S
C2652 N2650 1.356 . S
C2653 C2647 1.363 . S
C2653 C2648 1.379 . S
C2653 N2651 1.356 . S
N2654 C2646 1.356 . S
N2654 H2660 0.984 . S
N2654 H2661 0.984 . S
N2655 C2648 1.356 . S
N2655 H2658 0.984 . S
N2655 H2659 0.985 . S
H2656 N2651 0.984 . S
H2657 N2651 0.985 . S
H2658 N2655 0.984 . S
H2659 N2655 0.985 . S
H2660 N2654 0.984 . S
H2661 N2654 0.984 . S
H2662 N2650 0.984 . S
H2663 N2650 0.985 . S
C2664 C2665 1.363 . S
C2664 C2670 1.379 . S
C2664 N2672 1.356 . S
C2665 C2664 1.363 . S
C2665 C2671 1.363 . S
C2666 C2667 1.363 . S
C2666 C2671 1.379 . S
C2666 N2673 1.356 1_545 S
C2667 C2666 1.363 . S
C2667 C2670 1.363 . S
N2668 C2670 1.356 . S
N2668 H2680 0.984 . S
N2668 H2681 0.985 . S
N2669 C2671 1.356 1_565 S
N2669 H2674 0.957 1_565 S
N2669 H2675 0.985 . S
C2670 C2664 1.379 . S
C2670 C2667 1.363 . S
C2670 N2668 1.356 . S
C2671 C2665 1.363 . S
C2671 C2666 1.379 . S
C2671 N2669 1.356 1_545 S
N2672 C2664 1.356 . S
N2672 H2678 0.984 . S
N2672 H2679 0.984 . S
N2673 C2666 1.356 1_565 S
N2673 H2676 0.984 . S
N2673 H2677 0.985 . S
H2674 N2669 0.957 1_545 S
H2675 N2669 0.985 . S
H2676 N2673 0.984 . S
H2677 N2673 0.985 . S
H2678 N2672 0.984 . S
H2679 N2672 0.984 . S
H2680 N2668 0.984 . S
H2681 N2668 0.985 . S
C2682 C2683 1.363 . S
C2682 C2688 1.379 . S
C2682 N2690 1.356 . S
C2683 C2682 1.363 . S
C2683 C2689 1.363 . S
C2684 C2685 1.363 . S
C2684 C2689 1.379 . S
C2684 N2691 1.356 . S
C2685 C2684 1.363 . S
C2685 C2688 1.363 . S
N2686 C2688 1.356 . S
N2686 H2698 0.984 . S
N2686 H2699 0.985 . S
N2687 C2689 1.356 . S
N2687 H2692 0.984 . S
N2687 H2693 0.985 . S
C2688 C2682 1.379 . S
C2688 C2685 1.363 . S
C2688 N2686 1.356 . S
C2689 C2683 1.363 . S
C2689 C2684 1.379 . S
C2689 N2687 1.356 . S
N2690 C2682 1.356 . S
N2690 H2696 0.984 . S
N2690 H2697 0.984 . S
N2691 C2684 1.356 . S
N2691 H2694 0.984 . S
N2691 H2695 0.985 . S
H2692 N2687 0.984 . S
H2693 N2687 0.985 . S
H2694 N2691 0.984 . S
H2695 N2691 0.985 . S
H2696 N2690 0.984 . S
H2697 N2690 0.984 . S
H2698 N2686 0.984 . S
H2699 N2686 0.985 . S
C2700 C2701 1.363 . S
C2700 C2706 1.379 . S
C2700 N2708 1.356 . S
C2701 C2700 1.363 . S
C2701 C2707 1.363 . S
C2702 C2703 1.363 . S
C2702 C2707 1.379 . S
C2702 N2709 1.356 . S
C2703 C2702 1.363 . S
C2703 C2706 1.363 . S
N2704 C2706 1.356 . S
N2704 H2716 0.984 . S
N2704 H2717 0.985 . S
N2705 C2707 1.356 . S
N2705 H2710 0.984 . S
N2705 H2711 0.985 . S
C2706 C2700 1.379 . S
C2706 C2703 1.363 . S
C2706 N2704 1.356 . S
C2707 C2701 1.363 . S
C2707 C2702 1.379 . S
C2707 N2705 1.356 . S
N2708 C2700 1.356 . S
N2708 H2714 0.984 . S
N2708 H2715 0.984 . S
N2709 C2702 1.356 . S
N2709 H2712 0.984 . S
N2709 H2713 0.985 . S
H2710 N2705 0.984 . S
H2711 N2705 0.985 . S
H2712 N2709 0.984 . S
H2713 N2709 0.985 . S
H2714 N2708 0.984 . S
H2715 N2708 0.984 . S
H2716 N2704 0.984 . S
H2717 N2704 0.985 . S
C2718 C2719 1.363 . S
C2718 C2724 1.379 . S
C2718 N2726 1.356 . S
C2719 C2718 1.363 . S
C2719 C2725 1.363 . S
C2720 C2721 1.363 . S
C2720 C2725 1.379 . S
C2720 N2727 1.356 . S
C2721 C2720 1.363 . S
C2721 C2724 1.363 . S
N2722 C2724 1.356 . S
N2722 H2734 0.984 . S
N2722 H2735 0.985 . S
N2723 C2725 1.356 . S
N2723 H2728 0.984 . S
N2723 H2729 0.985 . S
C2724 C2718 1.379 . S
C2724 C2721 1.363 . S
C2724 N2722 1.356 . S
C2725 C2719 1.363 . S
C2725 C2720 1.379 . S
C2725 N2723 1.356 . S
N2726 C2718 1.356 . S
N2726 H2732 0.984 . S
N2726 H2733 0.984 . S
N2727 C2720 1.356 . S
N2727 H2730 0.984 . S
N2727 H2731 0.985 . S
H2728 N2723 0.984 . S
H2729 N2723 0.985 . S
H2730 N2727 0.984 . S
H2731 N2727 0.985 . S
H2732 N2726 0.984 . S
H2733 N2726 0.984 . S
H2734 N2722 0.984 . S
H2735 N2722 0.985 . S
C2736 C2737 1.363 . S
C2736 C2742 1.379 . S
C2736 N2744 1.356 . S
C2737 C2736 1.363 . S
C2737 C2743 1.363 . S
C2738 C2739 1.363 . S
C2738 C2743 1.379 . S
C2738 N2745 1.356 . S
C2739 C2738 1.363 . S
C2739 C2742 1.363 . S
N2740 C2742 1.356 . S
N2740 H2752 0.984 . S
N2740 H2753 0.985 . S
N2741 C2743 1.356 . S
N2741 H2746 0.984 . S
N2741 H2747 0.985 . S
C2742 C2736 1.379 . S
C2742 C2739 1.363 . S
C2742 N2740 1.356 . S
C2743 C2737 1.363 . S
C2743 C2738 1.379 . S
C2743 N2741 1.356 . S
N2744 C2736 1.356 . S
N2744 H2750 0.984 . S
N2744 H2751 0.984 . S
N2745 C2738 1.356 . S
N2745 H2748 0.984 . S
N2745 H2749 0.985 . S
H2746 N2741 0.984 . S
H2747 N2741 0.985 . S
H2748 N2745 0.984 . S
H2749 N2745 0.985 . S
H2750 N2744 0.984 . S
H2751 N2744 0.984 . S
H2752 N2740 0.984 . S
H2753 N2740 0.985 . S
C2754 C2755 1.363 . S
C2754 C2760 1.379 . S
C2754 N2762 1.356 . S
C2755 C2754 1.363 . S
C2755 C2761 1.363 . S
C2756 C2757 1.363 . S
C2756 C2761 1.379 . S
C2756 N2763 1.356 . S
C2757 C2756 1.363 . S
C2757 C2760 1.363 . S
N2758 C2760 1.356 . S
N2758 H2770 0.984 . S
N2758 H2771 0.985 . S
N2759 C2761 1.356 . S
N2759 H2764 0.984 . S
N2759 H2765 0.985 . S
C2760 C2754 1.379 . S
C2760 C2757 1.363 . S
C2760 N2758 1.356 . S
C2761 C2755 1.363 . S
C2761 C2756 1.379 . S
C2761 N2759 1.356 . S
N2762 C2754 1.356 . S
N2762 H2768 0.984 . S
N2762 H2769 0.984 . S
N2763 C2756 1.356 . S
N2763 H2766 0.984 . S
N2763 H2767 0.985 . S
H2764 N2759 0.984 . S
H2765 N2759 0.985 . S
H2766 N2763 0.984 . S
H2767 N2763 0.985 . S
H2768 N2762 0.984 . S
H2769 N2762 0.984 . S
H2770 N2758 0.984 . S
H2771 N2758 0.985 . S
C2772 C2773 1.363 . S
C2772 C2778 1.379 . S
C2772 N2780 1.356 . S
C2773 C2772 1.363 . S
C2773 C2779 1.363 . S
C2774 C2775 1.363 . S
C2774 C2779 1.379 . S
C2774 N2781 1.356 . S
C2775 C2774 1.363 . S
C2775 C2778 1.363 . S
N2776 C2778 1.356 . S
N2776 H2788 0.984 . S
N2776 H2789 0.985 . S
N2777 C2779 1.356 . S
N2777 H2782 0.984 . S
N2777 H2783 0.985 . S
C2778 C2772 1.379 . S
C2778 C2775 1.363 . S
C2778 N2776 1.356 . S
C2779 C2773 1.363 . S
C2779 C2774 1.379 . S
C2779 N2777 1.356 . S
N2780 C2772 1.356 . S
N2780 H2786 0.984 . S
N2780 H2787 0.984 . S
N2781 C2774 1.356 . S
N2781 H2784 0.984 . S
N2781 H2785 0.985 . S
H2782 N2777 0.984 . S
H2783 N2777 0.985 . S
H2784 N2781 0.984 . S
H2785 N2781 0.985 . S
H2786 N2780 0.984 . S
H2787 N2780 0.984 . S
H2788 N2776 0.984 . S
H2789 N2776 0.985 . S
C2790 C2791 1.363 . S
C2790 C2796 1.379 . S
C2790 N2798 1.356 . S
C2791 C2790 1.363 . S
C2791 C2797 1.363 . S
C2792 C2793 1.363 . S
C2792 C2797 1.379 . S
C2792 N2799 1.356 . S
C2793 C2792 1.363 . S
C2793 C2796 1.363 . S
N2794 C2796 1.356 . S
N2794 H2806 0.984 . S
N2794 H2807 0.985 . S
N2795 C2797 1.356 . S
N2795 H2800 0.984 . S
N2795 H2801 0.985 . S
C2796 C2790 1.379 . S
C2796 C2793 1.363 . S
C2796 N2794 1.356 . S
C2797 C2791 1.363 . S
C2797 C2792 1.379 . S
C2797 N2795 1.356 . S
N2798 C2790 1.356 . S
N2798 H2804 0.984 . S
N2798 H2805 0.984 . S
N2799 C2792 1.356 . S
N2799 H2802 0.984 . S
N2799 H2803 0.985 . S
H2800 N2795 0.984 . S
H2801 N2795 0.985 . S
H2802 N2799 0.984 . S
H2803 N2799 0.985 . S
H2804 N2798 0.984 . S
H2805 N2798 0.984 . S
H2806 N2794 0.984 . S
H2807 N2794 0.985 . S
C2808 C2809 1.363 . S
C2808 C2814 1.379 . S
C2808 N2816 1.356 . S
C2809 C2808 1.363 . S
C2809 C2815 1.363 . S
C2810 C2811 1.363 . S
C2810 C2815 1.379 . S
C2810 N2817 1.356 . S
C2811 C2810 1.363 . S
C2811 C2814 1.363 . S
N2812 C2814 1.356 . S
N2812 H2824 0.984 . S
N2812 H2825 0.985 . S
N2813 C2815 1.356 . S
N2813 H2818 0.984 . S
N2813 H2819 0.985 . S
C2814 C2808 1.379 . S
C2814 C2811 1.363 . S
C2814 N2812 1.356 . S
C2815 C2809 1.363 . S
C2815 C2810 1.379 . S
C2815 N2813 1.356 . S
N2816 C2808 1.356 . S
N2816 H2822 0.984 . S
N2816 H2823 0.984 1_455 S
N2817 C2810 1.356 . S
N2817 H2820 0.984 . S
N2817 H2821 0.985 . S
H2818 N2813 0.984 . S
H2819 N2813 0.985 . S
H2820 N2817 0.984 . S
H2821 N2817 0.985 . S
H2822 N2816 0.984 . S
H2823 N2816 0.984 1_655 S
H2824 N2812 0.984 . S
H2825 N2812 0.985 . S
C2826 C2827 1.363 . S
C2826 C2832 1.379 . S
C2826 N2834 1.356 . S
C2827 C2826 1.363 . S
C2827 C2833 1.363 . S
C2828 C2829 1.363 . S
C2828 C2833 1.379 . S
C2828 N2835 1.356 1_655 S
C2829 C2828 1.363 . S
C2829 C2832 1.363 . S
N2830 C2832 1.356 . S
N2830 H2842 0.984 . S
N2830 H2843 0.985 . S
N2831 C2833 1.356 . S
N2831 H2836 0.984 . S
N2831 H2837 0.985 . S
C2832 C2826 1.379 . S
C2832 C2829 1.363 . S
C2832 N2830 1.356 . S
C2833 C2827 1.363 . S
C2833 C2828 1.379 . S
C2833 N2831 1.356 . S
N2834 C2826 1.356 . S
N2834 H2840 0.984 . S
N2834 H2841 0.984 . S
N2835 C2828 1.356 1_455 S
N2835 H2838 0.984 . S
N2835 H2839 0.985 . S
H2836 N2831 0.984 . S
H2837 N2831 0.985 . S
H2838 N2835 0.984 . S
H2839 N2835 0.985 . S
H2840 N2834 0.984 . S
H2841 N2834 0.984 . S
H2842 N2830 0.984 . S
H2843 N2830 0.985 . S
C2844 C2845 1.363 . S
C2844 C2850 1.379 . S
C2844 N2852 1.356 . S
C2845 C2844 1.363 . S
C2845 C2851 1.363 . S
C2846 C2847 1.363 . S
C2846 C2851 1.379 . S
C2846 N2853 1.356 . S
C2847 C2846 1.363 . S
C2847 C2850 1.363 . S
N2848 C2850 1.356 . S
N2848 H2860 0.984 . S
N2848 H2861 0.985 . S
N2849 C2851 1.356 . S
N2849 H2854 0.984 . S
N2849 H2855 0.985 . S
C2850 C2844 1.379 . S
C2850 C2847 1.363 . S
C2850 N2848 1.356 . S
C2851 C2845 1.363 . S
C2851 C2846 1.379 . S
C2851 N2849 1.356 . S
N2852 C2844 1.356 . S
N2852 H2858 0.984 . S
N2852 H2859 0.984 . S
N2853 C2846 1.356 . S
N2853 H2856 0.984 . S
N2853 H2857 0.985 . S
H2854 N2849 0.984 . S
H2855 N2849 0.985 . S
H2856 N2853 0.984 . S
H2857 N2853 0.985 . S
H2858 N2852 0.984 . S
H2859 N2852 0.984 . S
H2860 N2848 0.984 . S
H2861 N2848 0.985 . S
C2862 C2863 1.363 . S
C2862 C2868 1.379 . S
C2862 N2870 1.356 . S
C2863 C2862 1.363 . S
C2863 C2869 1.363 . S
C2864 C2865 1.363 . S
C2864 C2869 1.379 . S
C2864 N2871 1.356 . S
C2865 C2864 1.363 . S
C2865 C2868 1.363 . S
N2866 C2868 1.356 1_565 S
N2866 H2878 0.984 . S
N2866 H2879 0.985 . S
N2867 C2869 1.356 . S
N2867 H2872 0.984 . S
N2867 H2873 0.985 . S
C2868 C2862 1.379 . S
C2868 C2865 1.363 . S
C2868 N2866 1.356 1_545 S
C2869 C2863 1.363 . S
C2869 C2864 1.379 . S
C2869 N2867 1.356 . S
N2870 C2862 1.356 . S
N2870 H2876 0.984 . S
N2870 H2877 0.984 . S
N2871 C2864 1.356 . S
N2871 H2874 0.984 . S
N2871 H2875 0.985 . S
H2872 N2867 0.984 . S
H2873 N2867 0.985 . S
H2874 N2871 0.984 . S
H2875 N2871 0.985 . S
H2876 N2870 0.984 . S
H2877 N2870 0.984 . S
H2878 N2866 0.984 . S
H2879 N2866 0.985 . S
C1585 C9 1.410 1_655 S
C1587 C981 1.275 . S
C1603 C19 1.666 . S
C1605 C1061 1.587 . S
C1623 C1129 1.408 . S
C1621 C33 1.475 . S
C1639 C37 1.731 . S
C1641 C1209 1.720 . S
C1657 C5 1.525 . S
C1659 C1283 1.504 . S
C1675 C23 1.784 . S
C1677 C1351 1.638 . S
C1693 C47 1.287 1_556 S
C1695 C1277 1.219 . S
C1713 C1357 1.519 . S
C1711 C65 1.520 . S
C1731 C1203 1.326 . S
C1729 C75 1.361 1_556 S
C1747 C79 1.618 . S
C1749 C1135 1.661 1_545 S
C1767 C987 1.514 . S
C1765 C51 1.491 . S
C1783 C61 1.519 . S
C1785 C1055 1.485 . S
C1801 C93 1.753 . S
C1803 C1425 1.527 . S
C1819 C103 1.727 . S
C1821 C1505 1.635 . S
C1839 C1573 1.586 . S
C1837 C117 1.724 . S
C1855 C121 1.974 . S
C1857 C321 1.881 . S
C1873 C89 1.813 . S
C1875 C395 1.714 . S
C1891 C107 1.823 . S
C1893 C463 1.675 . S
C1909 C131 1.337 . S
C1911 C389 1.265 . S
C1927 C149 1.556 . S
C1929 C469 1.549 . S
C1947 C315 1.420 . S
C1945 C159 1.451 . S
C1965 C1579 1.816 . S
C1963 C163 1.824 . S
C1983 C1431 1.614 . S
C1981 C135 1.634 . S
C2001 C1499 1.525 . S
C1999 C145 1.555 . S
C2017 C177 1.664 . S
C2019 C537 1.442 . S
C2035 C187 1.720 . S
C2037 C617 1.627 . S
C2053 C201 1.749 . S
C2055 C685 1.610 . S
C2071 C205 2.052 . S
C2073 C765 1.956 . S
C2091 C839 1.712 . S
C2089 C173 1.812 . S
C2109 C907 1.700 . S
C2107 C191 1.854 . S
C2127 C833 1.358 . S
C2125 C215 1.433 . S
C2145 C913 1.551 . S
C2143 C233 1.562 . S
C2161 C243 1.413 . S
C2163 C759 1.383 . S
C2181 C691 1.731 . S
C2179 C247 1.736 . S
C2197 C219 1.646 . S
C2199 C543 1.632 . S
C2217 C611 1.510 . S
C2215 C229 1.536 . S
C2235 C291 1.892 . S
C2233 C11 1.958 . S
C2251 C14 1.515 . S
C2253 C365 1.483 . S
C2271 C451 1.620 . S
C2269 C28 1.646 . S
C2289 C525 1.396 . S
C2287 C39 1.447 1_556 S
C2307 C587 1.634 . S
C2305 C0 1.670 1_556 S
C2325 C673 1.521 1_554 S
C2323 C25 1.547 . S
C2341 C42 2.256 . S
C2343 C661 2.096 . S
C2359 C67 1.802 . S
C2361 C513 1.660 . S
C2377 C70 1.855 . S
C2379 C599 1.750 . S
C2395 C81 1.715 . S
C2397 C377 1.583 . S
C2415 C439 1.795 . S
C2413 C53 1.944 . S
C2431 C56 1.924 . S
C2433 C303 1.811 . S
C2451 C735 1.833 . S
C2449 C95 1.893 . S
C2467 C98 1.616 1_545 S
C2469 C809 1.592 . S
C2485 C112 1.683 1_655 S
C2487 C895 1.648 . S
C2505 C969 1.208 . S
C2503 C123 1.232 . S
C2521 C84 1.597 . S
C2523 C1031 1.568 . S
C2539 C109 1.418 . S
C2541 C1117 1.418 . S
C2557 C126 1.926 . S
C2559 C1105 1.831 1_565 S
C2575 C151 1.492 . S
C2577 C957 1.426 1_455 S
C2595 C1043 1.690 . S
C2593 C154 1.791 . S
C2611 C165 1.714 . S
C2613 C821 1.573 . S
C2629 C137 1.926 . S
C2631 C883 1.792 . S
C2649 C747 1.868 . S
C2647 C140 1.982 1_655 S
C2667 C1179 1.727 . S
C2665 C179 1.774 . S
C2683 C182 1.341 . S
C2685 C1253 1.338 . S
C2701 C196 1.599 . S
C2703 C1339 1.572 . S
C2721 C1413 1.391 . S
C2719 C207 1.446 . S
C2739 C1475 1.649 . S
C2737 C168 1.676 . S
C2755 C193 1.622 . S
C2757 C1561 1.595 . S
C2773 C210 2.200 . S
C2775 C1549 2.042 . S
C2791 C235 1.889 . S
C2793 C1401 1.750 . S
C2811 C1487 1.762 . S
C2809 C238 1.876 1_455 S
C2829 C1265 1.263 . S
C2827 C249 1.326 . S
C2847 C1327 1.719 . S
C2845 C221 1.852 . S
C2863 C224 1.610 . S
C2865 C1191 1.567 . S
