# Generated by pormake.
# Topology zzz, (3,6)-cn, num edge types: 1
# Building blocks:
#     Node 0, Type 0, BuildingBlock: BELTOD_clean_linker_0, # of connection points: 3
#     Node 1, Type 0, BuildingBlock: BELTOD_clean_linker_0, # of connection points: 3
#     Node 2, Type 0, BuildingBlock: BELTOD_clean_linker_0, # of connection points: 3
#     Node 3, Type 0, BuildingBlock: BELTOD_clean_linker_0, # of connection points: 3
#     Node 4, Type 0, BuildingBlock: BELTOD_clean_linker_0, # of connection points: 3
#     Node 5, Type 0, BuildingBlock: BELTOD_clean_linker_0, # of connection points: 3
#     Node 6, Type 0, BuildingBlock: BELTOD_clean_linker_0, # of connection points: 3
#     Node 7, Type 0, BuildingBlock: BELTOD_clean_linker_0, # of connection points: 3
#     Node 8, Type 1, BuildingBlock: INOVEN_clean_sbu_0, # of connection points: 6
#     Node 9, Type 1, BuildingBlock: INOVEN_clean_sbu_0, # of connection points: 6
#     Node 10, Type 1, BuildingBlock: INOVEN_clean_sbu_0, # of connection points: 6
#     Node 11, Type 1, BuildingBlock: INOVEN_clean_sbu_0, # of connection points: 6
#     Edge 12, Type (0, 1), BuildingBlock: AJUNOK_clean_linker_0, # of connection points: 2
#     Edge 13, Type (0, 1), BuildingBlock: AJUNOK_clean_linker_0, # of connection points: 2
#     Edge 14, Type (0, 1), BuildingBlock: AJUNOK_clean_linker_0, # of connection points: 2
#     Edge 15, Type (0, 1), BuildingBlock: AJUNOK_clean_linker_0, # of connection points: 2
#     Edge 16, Type (0, 1), BuildingBlock: AJUNOK_clean_linker_0, # of connection points: 2
#     Edge 17, Type (0, 1), BuildingBlock: AJUNOK_clean_linker_0, # of connection points: 2
#     Edge 18, Type (0, 1), BuildingBlock: AJUNOK_clean_linker_0, # of connection points: 2
#     Edge 19, Type (0, 1), BuildingBlock: AJUNOK_clean_linker_0, # of connection points: 2
#     Edge 20, Type (0, 1), BuildingBlock: AJUNOK_clean_linker_0, # of connection points: 2
#     Edge 21, Type (0, 1), BuildingBlock: AJUNOK_clean_linker_0, # of connection points: 2
#     Edge 22, Type (0, 1), BuildingBlock: AJUNOK_clean_linker_0, # of connection points: 2
#     Edge 23, Type (0, 1), BuildingBlock: AJUNOK_clean_linker_0, # of connection points: 2
#     Edge 24, Type (0, 1), BuildingBlock: AJUNOK_clean_linker_0, # of connection points: 2
#     Edge 25, Type (0, 1), BuildingBlock: AJUNOK_clean_linker_0, # of connection points: 2
#     Edge 26, Type (0, 1), BuildingBlock: AJUNOK_clean_linker_0, # of connection points: 2
#     Edge 27, Type (0, 1), BuildingBlock: AJUNOK_clean_linker_0, # of connection points: 2
#     Edge 28, Type (0, 1), BuildingBlock: AJUNOK_clean_linker_0, # of connection points: 2
#     Edge 29, Type (0, 1), BuildingBlock: AJUNOK_clean_linker_0, # of connection points: 2
#     Edge 30, Type (0, 1), BuildingBlock: AJUNOK_clean_linker_0, # of connection points: 2
#     Edge 31, Type (0, 1), BuildingBlock: AJUNOK_clean_linker_0, # of connection points: 2
#     Edge 32, Type (0, 1), BuildingBlock: AJUNOK_clean_linker_0, # of connection points: 2
#     Edge 33, Type (0, 1), BuildingBlock: AJUNOK_clean_linker_0, # of connection points: 2
#     Edge 34, Type (0, 1), BuildingBlock: AJUNOK_clean_linker_0, # of connection points: 2
#     Edge 35, Type (0, 1), BuildingBlock: AJUNOK_clean_linker_0, # of connection points: 2
# Relax obj value: 0.481
# Max RMSD: 0.248
# Mean RMSD: 0.243
data_MOF--net-zzz--node1-INOVEN_clean_sbu_0--node2-BELTOD_clean_linker_0--edge1-AJUNOK_clean_linker_0
_symmetry_space_group_name_H-M    P1
_symmetry_Int_Tables_number       1
_symmetry_cell_setting            triclinic
loop_
_symmetry_equiv_pos_as_xyz
'x, y, z'
_cell_length_a     42.651452
_cell_length_b     42.653202
_cell_length_c     13.304977
_cell_angle_alpha  89.854168
_cell_angle_beta   89.935188
_cell_angle_gamma 90.11767
loop_
_atom_site_label
_atom_site_type_symbol
_atom_site_fract_x
_atom_site_fract_y
_atom_site_fract_z
_atom_type_partial_charge
P0 P 0.72038 0.48345 0.43117 0.0
H1 H 0.74288 0.50472 0.62775 0.0
H2 H 0.79586 0.51579 0.68623 0.0
H3 H 0.82809 0.51868 0.3786 0.0
H4 H 0.77467 0.50946 0.3206 0.0
H5 H 0.6624 0.45533 0.37076 0.0
H6 H 0.624 0.46674 0.24167 0.0
H7 H 0.67372 0.55193 0.16619 0.0
H8 H 0.71386 0.53897 0.2932 0.0
H9 H 0.75313 0.4303 0.51763 0.0
H10 H 0.73221 0.46626 0.22182 0.0
O11 O 0.70167 0.47107 0.53418 0.0
H12 H 0.79806 0.40203 0.44918 0.0
H13 H 0.77702 0.43855 0.15408 0.0
C14 C 0.75429 0.50656 0.4693 0.0
C15 C 0.76093 0.5093 0.57235 0.0
C16 C 0.79157 0.515 0.60607 0.0
C17 C 0.81661 0.51794 0.5377 0.0
C18 C 0.80956 0.51727 0.43409 0.0
C19 C 0.77874 0.51208 0.40044 0.0
C20 C 0.69061 0.4967 0.34374 0.0
C21 C 0.66484 0.47686 0.32798 0.0
C22 C 0.64253 0.48362 0.25447 0.0
C23 C 0.64484 0.51091 0.19552 0.0
C24 C 0.67089 0.53089 0.21103 0.0
C25 C 0.69373 0.52373 0.28418 0.0
C26 C 0.73939 0.45044 0.37502 0.0
C27 C 0.757 0.4306 0.43716 0.0
C28 C 0.78284 0.41472 0.39827 0.0
C29 C 0.79128 0.41881 0.29714 0.0
C30 C 0.77095 0.43498 0.2324 0.0
C31 C 0.74515 0.45082 0.27127 0.0
P32 P 0.03767 0.72121 0.43172 0.0
H33 H 0.04283 0.75028 0.62673 0.0
H34 H 0.03462 0.80339 0.68041 0.0
H35 H 0.97953 0.82112 0.41366 0.0
H36 H 0.99155 0.76834 0.35406 0.0
H37 H 0.06051 0.66015 0.38049 0.0
H38 H 0.04738 0.62208 0.25303 0.0
H39 H 0.96774 0.67816 0.16477 0.0
H40 H 0.98202 0.71737 0.29218 0.0
H41 H 0.09772 0.74769 0.49143 0.0
H42 H 0.04045 0.7432 0.22475 0.0
O43 O 0.05504 0.70173 0.5253 0.0
H44 H 0.12589 0.79267 0.42127 0.0
H45 H 0.06798 0.78817 0.1556 0.0
C46 C 0.01719 0.75441 0.48699 0.0
C47 C 0.02811 0.76506 0.58046 0.0
C48 C 0.02346 0.79601 0.61139 0.0
C49 C 1.00689 0.81752 0.55126 0.0
C50 C 0.99362 0.80609 0.46095 0.0
C51 C 0.9994 0.7752 0.42806 0.0
C52 C 0.02185 0.69142 0.34846 0.0
C53 C 0.03964 0.66404 0.33592 0.0
C54 C 0.03194 0.64195 0.26273 0.0
C55 C 1.00594 0.64635 0.19956 0.0
C56 C 0.98781 0.67378 0.21252 0.0
C57 C 0.99576 0.69619 0.28606 0.0
C58 C 0.06718 0.74196 0.36294 0.0
C59 C 0.09229 0.75531 0.41574 0.0
C60 C 0.1081 0.78123 0.37628 0.0
C61 C 0.09863 0.79416 0.2842 0.0
C62 C 0.07587 0.77855 0.22665 0.0
C63 C 0.06015 0.75267 0.26603 0.0
P64 P 0.79831 0.03955 0.43611 0.0
H65 H 0.77645 0.02316 0.63827 0.0
H66 H 0.72369 0.01313 0.70098 0.0
H67 H 0.69104 1.0 0.39728 0.0
H68 H 0.74434 1.00934 0.33446 0.0
H69 H 0.85808 0.06481 0.38157 0.0
H70 H 0.89806 0.0508 0.26016 0.0
H71 H 0.84563 0.96737 0.18425 0.0
H72 H 0.80478 0.98242 0.30624 0.0
H73 H 0.76762 0.09681 0.5009 0.0
H74 H 0.7851 0.04818 0.22267 0.0
O75 O 0.81618 0.05541 0.53534 0.0
H76 H 0.72681 0.12773 0.41874 0.0
H77 H 0.74401 0.07799 0.14166 0.0
C78 C 0.76475 0.01711 0.4812 0.0
C79 C 0.75838 0.01693 0.58484 0.0
C80 C 0.7279 0.01179 0.62082 0.0
C81 C 0.70284 1.00686 0.55407 0.0
C82 C 0.70971 1.00403 0.45086 0.0
C83 C 0.74037 1.00905 0.41484 0.0
C84 C 0.82899 0.02412 0.356 0.0
C85 C 0.85564 0.0429 0.34147 0.0
C86 C 0.87867 0.03476 0.2717 0.0
C87 C 0.87577 1.00741 0.21377 0.0
C88 C 0.84889 0.98844 0.2283 0.0
C89 C 0.8256 0.9968 0.29858 0.0
C90 C 0.77962 0.07049 0.36764 0.0
C91 C 0.76384 0.09393 0.42097 0.0
C92 C 0.7404 0.11144 0.37417 0.0
C93 C 0.73224 0.10534 0.27384 0.0
C94 C 0.75022 0.0839 0.21822 0.0
C95 C 0.77376 0.06663 0.26485 0.0
P96 P 0.48397 0.79803 0.43686 0.0
H97 H 0.50805 0.77704 0.63229 0.0
H98 H 0.51786 0.72426 0.69522 0.0
H99 H 0.51494 0.6888 0.39187 0.0
H100 H 0.50671 0.74195 0.32874 0.0
H101 H 0.47989 0.86614 0.43209 0.0
H102 H 0.49248 0.90529 0.30544 0.0
H103 H 0.53246 0.83299 0.11816 0.0
H104 H 0.52213 0.79425 0.24989 0.0
H105 H 0.43055 0.76661 0.52676 0.0
H106 H 0.46404 0.78661 0.22723 0.0
O107 O 0.47227 0.81671 0.54041 0.0
H108 H 0.40206 0.72119 0.46306 0.0
H109 H 0.43737 0.74062 0.16502 0.0
C110 C 0.50641 0.76383 0.47543 0.0
C111 C 0.5108 0.75824 0.57853 0.0
C112 C 0.51569 0.72776 0.61491 0.0
C113 C 0.51589 0.70197 0.54918 0.0
C114 C 0.51464 0.70798 0.44505 0.0
C115 C 0.51019 0.7386 0.4086 0.0
C116 C 0.50034 0.8271 0.35155 0.0
C117 C 0.49245 0.85874 0.36553 0.0
C118 C 0.49929 0.88123 0.29197 0.0
C119 C 0.51359 0.87265 0.20085 0.0
C120 C 0.52233 0.84095 0.18816 0.0
C121 C 0.51622 0.81854 0.26342 0.0
C122 C 0.45007 0.77971 0.38244 0.0
C123 C 0.43053 0.76229 0.44657 0.0
C124 C 0.41467 0.73598 0.41046 0.0
C125 C 0.41865 0.7267 0.31014 0.0
C126 C 0.43412 0.747 0.24311 0.0
C127 C 0.4496 0.77348 0.27905 0.0
P128 P 0.29811 0.46719 0.07048 0.0
H129 H 0.27062 0.4536 0.87368 0.0
H130 H 0.21923 0.46657 0.80564 0.0
H131 H 0.20828 0.53854 0.02904 0.0
H132 H 0.25987 0.52498 0.09978 0.0
H133 H 0.35224 0.43404 0.14286 0.0
H134 H 0.39382 0.44771 0.25826 0.0
H135 H 0.36729 0.54516 0.23717 0.0
H136 H 0.32415 0.53079 0.12346 0.0
H137 H 0.24404 0.42658 0.09278 0.0
H138 H 0.29689 0.49031 0.27946 0.0
O139 O 0.30614 0.43341 0.01292 0.0
H140 H 0.19755 0.43644 0.19462 0.0
H141 H 0.25087 0.5003 0.379 0.0
C142 C 0.26997 0.48849 0.99173 0.0
C143 C 0.25811 0.47317 0.9061 0.0
C144 C 0.22832 0.48031 0.86752 0.0
C145 C 0.20957 0.50345 0.91206 0.0
C146 C 0.22228 0.52073 0.99249 0.0
C147 C 0.25211 0.51328 0.03208 0.0
C148 C 0.33507 0.48134 0.12251 0.0
C149 C 0.35588 0.4586 0.15969 0.0
C150 C 0.37986 0.46648 0.22669 0.0
C151 C 0.38394 0.49751 0.25939 0.0
C152 C 0.36451 0.52082 0.21623 0.0
C153 C 0.34013 0.51279 0.14917 0.0
C154 C 0.27374 0.4583 0.1765 0.0
C155 C 0.24628 0.44106 0.15916 0.0
C156 C 0.21966 0.44685 0.21689 0.0
C157 C 0.22066 0.46963 0.29269 0.0
C158 C 0.24953 0.48259 0.32091 0.0
C159 C 0.27601 0.47695 0.26292 0.0
P160 P 0.05618 0.2928 0.10164 0.0
H161 H 0.08097 0.26717 0.91339 0.0
H162 H 0.06852 0.21808 0.82993 0.0
H163 H 0.98035 0.21373 0.98766 0.0
H164 H 0.99318 0.263 0.07366 0.0
H165 H 0.09676 0.34318 0.16711 0.0
H166 H 0.08845 0.38799 0.27376 0.0
H167 H 0.98836 0.37552 0.24939 0.0
H168 H 0.9969 0.33041 0.13674 0.0
H169 H 0.08447 0.23379 0.1574 0.0
H170 H 0.01176 0.29415 0.27333 0.0
O171 O 0.09472 0.2921 0.07932 0.0
H172 H 0.05965 0.18913 0.24035 0.0
H173 H 0.98682 0.24978 0.35276 0.0
C174 C 0.03824 0.26938 1.00122 0.0
C175 C 0.05828 0.25667 0.92775 0.0
C176 C 0.05133 0.22808 0.88047 0.0
C177 C 0.02369 0.21146 0.90304 0.0
C178 C 1.00188 0.22579 0.9681 0.0
C179 C 1.00908 0.25439 0.01664 0.0
C180 C 0.04754 0.33281 0.1431 0.0
C181 C 0.07284 0.35045 0.18038 0.0
C182 C 0.06809 0.37614 0.24332 0.0
C183 C 0.0378 0.38511 0.2728 0.0
C184 C 0.0121 0.36936 0.22853 0.0
C185 C 0.01696 0.34355 0.16348 0.0
C186 C 0.0497 0.26731 0.20678 0.0
C187 C 0.0642 0.23787 0.20468 0.0
C188 C 0.04978 0.21229 0.25065 0.0
C189 C 0.02081 0.21616 0.29886 0.0
C190 C 1.00897 0.24632 0.31438 0.0
C191 C 0.0234 0.27185 0.26852 0.0
P192 P 0.2194 0.05002 0.07379 0.0
H193 H 0.24403 0.05482 0.86731 0.0
H194 H 0.29526 0.04136 0.79842 0.0
H195 H 0.31451 0.98492 0.06032 0.0
H196 H 0.26272 0.99811 0.1286 0.0
H197 H 0.16456 0.0841 0.13436 0.0
H198 H 0.12205 0.0717 0.24813 0.0
H199 H 0.14737 0.97378 0.23615 0.0
H200 H 0.19166 0.98696 0.12516 0.0
H201 H 0.27163 0.09234 0.10681 0.0
H202 H 0.21552 0.02863 0.28524 0.0
O203 O 0.21293 0.08303 0.00948 0.0
H204 H 0.3152 0.08481 0.22243 0.0
H205 H 0.25901 0.02099 0.39849 0.0
C206 C 0.24893 0.02757 1.00378 0.0
C207 C 0.25847 0.03837 0.90842 0.0
C208 C 0.28816 0.03079 0.86896 0.0
C209 C 0.30941 0.0122 0.92379 0.0
C210 C 0.29898 0.9995 0.01604 0.0
C211 C 0.26903 1.00673 0.05472 0.0
C212 C 0.18136 0.03652 0.11949 0.0
C213 C 0.16043 0.05969 0.15271 0.0
C214 C 0.13591 0.05253 0.21887 0.0
C215 C 0.13131 0.02179 0.25421 0.0
C216 C 0.15062 0.99796 0.21369 0.0
C217 C 0.17563 1.00528 0.1479 0.0
C218 C 0.2406 0.06042 0.18523 0.0
C219 C 0.26784 0.07851 0.17414 0.0
C220 C 0.29273 0.07429 0.24049 0.0
C221 C 0.29028 0.05189 0.31735 0.0
C222 C 0.26117 0.03834 0.3392 0.0
C223 C 0.23632 0.04259 0.27317 0.0
P224 P 0.46486 0.23013 0.14499 0.0
H225 H 0.43994 0.25294 0.95224 0.0
H226 H 0.45223 0.30041 0.85783 0.0
H227 H 0.53818 0.31058 0.02544 0.0
H228 H 0.52631 0.26218 0.11696 0.0
H229 H 0.42518 0.17514 0.17605 0.0
H230 H 0.43325 0.12874 0.27838 0.0
H231 H 0.53236 0.1481 0.28851 0.0
H232 H 0.52442 0.19438 0.18029 0.0
H233 H 0.45555 0.29569 0.19153 0.0
H234 H 0.49339 0.21509 0.34659 0.0
O235 O 0.42604 0.23253 0.1313 0.0
H236 H 0.48729 0.32994 0.29727 0.0
H237 H 0.52619 0.24933 0.4477 0.0
C238 C 0.48202 0.25356 0.04281 0.0
C239 C 0.46221 0.26437 0.9658 0.0
C240 C 0.46904 0.2921 0.91266 0.0
C241 C 0.49597 0.31002 0.9345 0.0
C242 C 0.51737 0.29754 1.00494 0.0
C243 C 0.51066 0.26947 0.05733 0.0
C244 C 0.47407 0.18898 0.17101 0.0
C245 C 0.44899 0.16891 0.19549 0.0
C246 C 0.45355 0.14233 0.25559 0.0
C247 C 0.48329 0.13517 0.29453 0.0
C248 C 0.50911 0.15295 0.26003 0.0
C249 C 0.50459 0.17936 0.19716 0.0
C250 C 0.47396 0.25275 0.25529 0.0
C251 C 0.46978 0.2853 0.25019 0.0
C252 C 0.48791 0.30485 0.31023 0.0
C253 C 0.50962 0.29182 0.3772 0.0
C254 C 0.50994 0.25953 0.39438 0.0
C255 C 0.49164 0.23999 0.33454 0.0
Gd256 Gd 0.03223 1.00738 0.80926 0.0
Gd257 Gd 0.97762 0.01634 0.69219 0.0
C258 C 1.00674 0.94934 0.68411 0.0
C259 C 0.0708 0.99627 0.95532 0.0
C260 C 0.08045 0.97112 0.0235 0.0
C261 C 0.11154 0.9605 0.01872 0.0
C262 C 0.05914 0.9565 0.08891 0.0
C263 C 0.09933 0.91925 0.13731 0.0
C264 C 0.0686 0.93072 0.14564 0.0
C265 C 0.12086 0.93451 0.07452 0.0
C266 C 0.05604 0.01768 0.62267 0.0
C267 C 0.01196 0.0787 0.78149 0.0
C268 C 0.93166 0.03158 0.57656 0.0
C269 C 0.9318 0.05401 0.49369 0.0
C270 C 0.9116 0.07985 0.49735 0.0
C271 C 0.95719 0.05407 0.42663 0.0
C272 C 0.94586 0.10771 0.38277 0.0
C273 C 0.96401 0.08067 0.37087 0.0
C274 C 0.91867 0.10676 0.44213 0.0
C275 C 0.96326 0.99372 0.8775 0.0
O276 O 0.01805 0.95715 0.77307 0.0
O277 O 0.99434 0.97111 0.62684 0.0
O278 O 0.07736 0.99155 0.86099 0.0
O279 O 0.04325 1.00895 0.96842 0.0
O280 O 0.07184 0.0157 0.70452 0.0
O281 O 0.02673 0.01709 0.64047 0.0
O282 O 0.99127 0.06774 0.71622 0.0
O283 O 0.03042 0.05933 0.83018 0.0
O284 O 0.93628 0.04429 0.6644 0.0
O285 O 0.94838 1.00633 0.5633 0.0
O286 O 0.953 0.9824 0.79421 0.0
O287 O 0.98289 0.01515 0.85783 0.0
H288 H 0.12836 0.9717 0.96909 0.0
H289 H 0.03499 0.96415 0.09358 0.0
H290 H 0.05145 0.91868 0.19175 0.0
H291 H 0.14459 0.92582 0.06677 0.0
H292 H 0.89218 0.08031 0.54992 0.0
H293 H 0.97367 0.0348 0.42433 0.0
H294 H 0.98552 0.08113 0.32745 0.0
H295 H 0.90459 0.12761 0.45258 0.0
Gd296 Gd 0.51331 0.02981 0.83403 0.0
Gd297 Gd 0.50093 0.97694 0.66249 0.0
C298 C 0.57177 1.00483 0.69405 0.0
C299 C 0.52883 0.05554 1.00113 0.0
C300 C 0.5567 0.07295 0.03239 0.0
C301 C 0.55462 0.09574 0.10759 0.0
C302 C 0.58578 0.06628 0.98842 0.0
C303 C 0.61108 0.10313 0.10043 0.0
C304 C 0.61275 0.08116 0.02229 0.0
C305 C 0.58175 0.11068 0.142 0.0
C306 C 0.50049 0.05687 0.65198 0.0
C307 C 0.44239 1.00469 0.79648 0.0
C308 C 0.48822 0.95111 0.49397 0.0
C309 C 0.46303 0.95927 0.42387 0.0
C310 C 0.43532 0.9415 0.42618 0.0
C311 C 0.46302 0.98887 0.37714 0.0
C312 C 0.40659 0.98653 0.36594 0.0
C313 C 0.43485 1.00242 0.34817 0.0
C314 C 0.40709 0.95525 0.39859 0.0
C315 C 0.51449 0.95088 0.84423 0.0
O316 O 0.56228 0.02269 0.77024 0.0
O317 O 0.55262 0.98605 0.64362 0.0
O318 O 0.51105 0.06959 0.93473 0.0
O319 O 0.53343 0.02575 0.98184 0.0
O320 O 0.50595 0.07249 0.73379 0.0
O321 O 0.50195 0.02804 0.67346 0.0
O322 O 0.45144 0.99209 0.70927 0.0
O323 O 0.46273 0.01695 0.86081 0.0
O324 O 0.4783 0.93987 0.58032 0.0
O325 O 0.51068 0.97197 0.50396 0.0
O326 O 0.51017 0.93449 0.76357 0.0
O327 O 0.51217 0.97922 0.82022 0.0
H328 H 0.5322 0.10125 0.14129 0.0
H329 H 0.58785 0.04861 0.93068 0.0
H330 H 0.63512 0.07406 0.99128 0.0
H331 H 0.58005 0.12731 0.20309 0.0
H332 H 0.4349 0.91839 0.46028 0.0
H333 H 0.48417 1.00289 0.37194 0.0
H334 H 0.43495 0.02614 0.31881 0.0
H335 H 0.3855 0.94237 0.41106 0.0
Gd336 Gd 0.48521 0.51215 0.81161 0.0
Gd337 Gd 0.53887 0.5017 0.67686 0.0
C338 C 0.51286 0.57099 0.68774 0.0
C339 C 0.45147 0.52382 0.96898 0.0
C340 C 0.44312 0.55104 0.03027 0.0
C341 C 0.41146 0.5595 0.03918 0.0
C342 C 0.46623 0.56915 0.07782 0.0
C343 C 0.42605 0.60403 0.14135 0.0
C344 C 0.45771 0.59544 0.13308 0.0
C345 C 0.40297 0.58603 0.09373 0.0
C346 C 0.45932 0.50565 0.62625 0.0
C347 C 0.50667 0.44057 0.78674 0.0
C348 C 0.58105 0.48525 0.54822 0.0
C349 C 0.59229 0.45448 0.51563 0.0
C350 C 0.60352 0.43248 0.58573 0.0
C351 C 0.58559 0.44489 0.41757 0.0
C352 C 0.5924 0.39084 0.46804 0.0
C353 C 0.58554 0.41324 0.39375 0.0
C354 C 0.60377 0.40073 0.56151 0.0
C355 C 0.55615 0.52255 0.8607 0.0
O356 O 0.49973 0.56213 0.77357 0.0
O357 O 0.526 0.55019 0.62821 0.0
O358 O 0.44032 0.52372 0.87792 0.0
O359 O 0.48042 0.51414 0.97306 0.0
O360 O 0.44398 0.50886 0.70898 0.0
O361 O 0.4885 0.5042 0.64453 0.0
O362 O 0.52908 0.45106 0.72593 0.0
O363 O 0.48599 0.45984 0.82622 0.0
O364 O 0.58756 0.49322 0.64048 0.0
O365 O 0.55203 0.49149 0.52355 0.0
O366 O 0.56603 0.53413 0.77638 0.0
O367 O 0.53551 0.50179 0.8429 0.0
H368 H 0.39333 0.54577 1.00289 0.0
H369 H 0.49087 0.56334 0.07135 0.0
H370 H 0.47593 0.60952 0.16747 0.0
H371 H 0.37847 0.59248 0.09884 0.0
H372 H 0.60922 0.43926 0.66195 0.0
H373 H 0.57683 0.46144 0.36287 0.0
H374 H 0.5763 0.40634 0.32127 0.0
H375 H 0.60964 0.38374 0.61898 0.0
Gd376 Gd 1.00672 0.49072 0.79917 0.0
Gd377 Gd 0.01736 0.54227 0.67457 0.0
C378 C 0.94779 0.51901 0.67695 0.0
C379 C 0.99022 0.4485 0.92902 0.0
C380 C 0.96355 0.44098 0.99345 0.0
C381 C 0.95643 0.40948 0.01344 0.0
C382 C 0.94491 0.46481 0.03415 0.0
C383 C 0.91198 0.42559 0.1139 0.0
C384 C 0.91931 0.45714 0.09435 0.0
C385 C 0.93059 0.40178 0.07295 0.0
C386 C 0.02882 0.47169 0.61596 0.0
C387 C 0.07724 0.512 0.78837 0.0
C388 C 0.03766 0.58226 0.54469 0.0
C389 C 0.06284 0.57673 0.47171 0.0
C390 C 0.09273 0.58931 0.49011 0.0
C391 C 0.05949 0.55244 0.40127 0.0
C392 C 0.11568 0.54835 0.38853 0.0
C393 C 0.08576 0.53847 0.35944 0.0
C394 C 0.11915 0.57491 0.44945 0.0
C395 C 0.99505 0.56156 0.8559 0.0
O396 O 0.95636 0.50532 0.76201 0.0
O397 O 0.96925 0.53177 0.61924 0.0
O398 O 0.9856 0.4456 0.83262 0.0
O399 O 1.00592 0.47376 0.95208 0.0
O400 O 0.03849 0.46151 0.70201 0.0
O401 O 1.00854 0.49277 0.63047 0.0
O402 O 0.06772 0.52641 0.70574 0.0
O403 O 0.0565 0.49834 0.84684 0.0
O404 O 0.04671 0.58223 0.63836 0.0
O405 O 0.0121 0.56594 0.53152 0.0
O406 O 0.98616 0.57231 0.76989 0.0
O407 O 0.0152 0.54029 0.8421 0.0
H408 H 0.97069 0.39088 0.98223 0.0
H409 H 0.94996 0.48927 0.01872 0.0
H410 H 0.90481 0.47581 0.12386 0.0
H411 H 0.92508 0.37735 0.08688 0.0
H412 H 0.09589 0.60802 0.54415 0.0
H413 H 0.03689 0.54189 0.38651 0.0
H414 H 0.0827 0.51804 0.31214 0.0
H415 H 0.14223 0.58307 0.4712 0.0
C416 C 0.08042 0.03271 0.34907 0.0
C417 C 0.10912 0.01612 0.34116 0.0
C418 C 0.06204 0.03201 0.43776 0.0
C419 C 0.07176 0.01487 0.52253 0.0
H420 H 0.07252 0.04719 0.28715 0.0
H421 H 0.04099 0.04613 0.44151 0.0
S422 S 0.14245 0.96433 0.53913 0.0
N423 N 0.14454 0.98007 0.42596 0.0
N424 N 0.10996 0.97817 0.5894 0.0
C425 C 0.09919 0.99667 0.51354 0.0
C426 C 0.11781 0.99736 0.4239 0.0
C427 C 0.50768 0.08769 0.38238 0.0
C428 C 0.48604 0.11273 0.38164 0.0
C429 C 0.51076 0.06765 0.46707 0.0
C430 C 0.49269 0.07233 0.55455 0.0
H431 H 0.52261 0.08381 0.3178 0.0
H432 H 0.52846 0.04948 0.46596 0.0
S433 S 0.43349 0.1347 0.59289 0.0
N434 N 0.44651 0.14076 0.47759 0.0
N435 N 0.4526 0.10373 0.63484 0.0
C436 C 0.47085 0.09693 0.55393 0.0
C437 C 0.46745 0.11694 0.46822 0.0
C438 C 0.43505 0.48836 0.35442 0.0
C439 C 0.4059 0.50409 0.34587 0.0
C440 C 0.4535 0.49012 0.44264 0.0
C441 C 0.44341 0.50748 0.52627 0.0
H442 H 0.44329 0.47377 0.29341 0.0
H443 H 0.47495 0.47663 0.44702 0.0
S444 S 0.371 0.5556 0.54104 0.0
N445 N 0.36935 0.53929 0.42889 0.0
N446 N 0.40401 0.54315 0.59155 0.0
C447 C 0.41536 0.5247 0.51667 0.0
C448 C 0.39667 0.52294 0.42748 0.0
C449 C 0.05328 0.40485 0.44368 0.0
C450 C 0.03425 0.40818 0.35765 0.0
C451 C 0.05175 0.42598 0.52427 0.0
C452 C 0.031 0.4516 0.52384 0.0
H453 H 0.06945 0.38538 0.44959 0.0
H454 H 0.06685 0.42186 0.58837 0.0
S455 S 0.97627 0.47168 0.31652 0.0
N456 N 0.99415 0.4397 0.27656 0.0
N457 N 0.99105 0.47938 0.4286 0.0
C458 C 0.01184 0.4555 0.43825 0.0
C459 C 0.01338 0.43377 0.35556 0.0
C460 C 0.88902 0.99126 0.03674 0.0
C461 C 0.8993 1.0006 0.13264 0.0
C462 C 0.91007 0.98799 0.95619 0.0
C463 C 0.94235 0.99437 0.96721 0.0
H464 H 0.8643 0.98754 0.02247 0.0
H465 H 0.90062 0.98154 0.88358 0.0
S466 S 0.98226 0.01572 0.20414 0.0
N467 N 0.94489 0.01274 0.23575 0.0
N468 N 0.9839 1.00829 0.08261 0.0
C469 C 0.95317 1.00278 0.06282 0.0
C470 C 0.93185 1.00548 0.14573 0.0
C471 C 0.49245 0.91785 0.09793 0.0
C472 C 0.51683 0.89619 0.11716 0.0
C473 C 0.49321 0.93793 0.01385 0.0
C474 C 0.51821 0.93699 0.94526 0.0
H475 H 0.47176 0.91825 0.14513 0.0
H476 H 0.47312 0.95275 0.99887 0.0
S477 S 0.58965 0.88828 0.96586 0.0
N478 N 0.56854 0.87831 0.06512 0.0
N479 N 0.56888 0.91484 0.90489 0.0
C480 C 0.54331 0.91678 0.96553 0.0
C481 C 0.5429 0.89671 0.05189 0.0
C482 C 0.63079 0.52689 0.01826 0.0
C483 C 0.62108 0.51703 0.11444 0.0
C484 C 0.6094 0.52956 0.9383 0.0
C485 C 0.57737 0.52193 0.95006 0.0
H486 H 0.65533 0.5316 1.00341 0.0
H487 H 0.61842 0.53662 0.86554 0.0
S488 S 0.53904 0.49849 0.189 0.0
N489 N 0.57628 0.50324 0.21912 0.0
N490 N 0.53685 0.50589 0.06738 0.0
C491 C 0.56719 0.51284 0.04621 0.0
C492 C 0.58879 0.51101 0.1285 0.0
C493 C 0.99226 0.63485 0.01889 0.0
C494 C 0.99967 0.62364 0.11568 0.0
C495 C 0.98962 0.61446 0.93646 0.0
C496 C 0.9947 0.58195 0.9466 0.0
H497 H 0.98963 0.65977 1.00558 0.0
H498 H 0.98474 0.62454 0.86335 0.0
S499 S 0.01087 0.53981 0.18418 0.0
N500 N 1.00868 0.57701 0.2178 0.0
N501 N 1.00518 0.53919 0.0616 0.0
C502 C 1.00107 0.57022 0.04292 0.0
C503 C 1.0032 0.59088 0.12753 0.0
C504 C 0.9863 0.18509 0.41209 0.0
C505 C 1.00047 0.18903 0.31775 0.0
C506 C 0.9664 0.15971 0.43024 0.0
C507 C 0.95994 0.13777 0.35426 0.0
H508 H 0.9913 0.20124 0.47277 0.0
H509 H 0.95737 0.15632 0.50565 0.0
S510 S 0.98822 0.13984 0.09135 0.0
N511 N 1.00459 0.17068 0.14494 0.0
N512 N 0.96705 0.12275 0.17992 0.0
C513 C 0.97273 0.1423 0.2584 0.0
C514 C 0.99311 0.168 0.23994 0.0
C515 C 0.32283 1.0048 0.30137 0.0
C516 C 0.31858 0.03458 0.34429 0.0
C517 C 0.35147 0.98941 0.30842 0.0
C518 C 0.37666 1.00327 0.35921 0.0
H519 H 0.30423 0.99387 0.25852 0.0
H520 H 0.35412 0.96687 0.272 0.0
S521 S 0.37581 0.07905 0.49575 0.0
N522 N 0.3406 0.07643 0.44481 0.0
N523 N 0.39465 0.04691 0.46243 0.0
C524 C 0.37226 0.03246 0.4065 0.0
C525 C 0.34309 0.04829 0.39804 0.0
C526 C 0.53469 0.32583 0.50486 0.0
C527 C 0.53576 0.3112 0.41107 0.0
C528 C 0.55605 0.34961 0.52786 0.0
C529 C 0.57887 0.35929 0.45738 0.0
H530 H 0.51599 0.32046 0.5574 0.0
H531 H 0.55266 0.36245 0.59709 0.0
S532 S 0.59321 0.32479 0.20659 0.0
N533 N 0.56281 0.3052 0.25154 0.0
N534 N 0.60333 0.34987 0.29531 0.0
C535 C 0.58172 0.34274 0.36701 0.0
C536 C 0.55993 0.31869 0.34354 0.0
C537 C 0.17305 0.49892 0.24431 0.0
C538 C 0.19188 0.48624 0.32112 0.0
C539 C 0.14866 0.51949 0.26657 0.0
C540 C 0.14257 0.52821 0.36614 0.0
H541 H 0.17793 0.49387 0.16604 0.0
H542 H 0.13476 0.52897 0.20555 0.0
S543 S 0.18328 0.49946 0.5945 0.0
N544 N 0.20179 0.48241 0.50036 0.0
N545 N 0.15552 0.5211 0.54283 0.0
C546 C 0.16062 0.51512 0.44389 0.0
C547 C 0.18543 0.4941 0.42117 0.0
C548 C 0.11567 0.83309 0.15567 0.0
C549 C 0.10749 0.82644 0.25581 0.0
C550 C 0.11559 0.86389 0.11969 0.0
C551 C 0.10721 0.88887 0.18275 0.0
H552 H 0.12011 0.8142 0.10329 0.0
H553 H 0.11979 0.86788 0.04033 0.0
S554 S 0.08886 0.88464 0.45428 0.0
N555 N 0.09417 0.84782 0.42023 0.0
N556 N 0.09466 0.90586 0.35193 0.0
C557 C 0.10166 0.88294 0.28478 0.0
C558 C 0.10173 0.85161 0.32165 0.0
C559 C 0.6745 0.10844 0.29407 0.0
C560 C 0.70119 0.11488 0.23507 0.0
C561 C 0.64461 0.10788 0.25145 0.0
C562 C 0.64042 0.11363 0.1484 0.0
H563 H 0.67689 0.10092 0.37153 0.0
H564 H 0.62515 0.10004 0.29758 0.0
S565 S 0.70168 0.13791 0.96628 0.0
N566 N 0.7209 0.13201 0.07238 0.0
N567 N 0.66443 0.13075 0.99181 0.0
C568 C 0.66639 0.12324 0.09093 0.0
C569 C 0.69687 0.1239 0.13441 0.0
C570 C 0.4003 0.68727 0.1846 0.0
C571 C 0.41322 0.6938 0.27955 0.0
C572 C 0.40248 0.65728 0.14278 0.0
C573 C 0.41771 0.63299 0.19465 0.0
H574 H 0.39012 0.70592 0.13994 0.0
H575 H 0.39409 0.65363 0.06685 0.0
S576 S 0.45187 0.63646 0.44977 0.0
N577 N 0.43949 0.67247 0.42749 0.0
N578 N 0.44259 0.61596 0.34911 0.0
C579 C 0.4285 0.63844 0.29242 0.0
C580 C 0.42644 0.6689 0.33502 0.0
C581 C 0.82976 0.39879 0.17159 0.0
C582 C 0.82384 0.41352 0.26404 0.0
C583 C 0.85935 0.40079 0.12636 0.0
C584 C 0.88364 0.4179 0.17187 0.0
H585 H 0.81093 0.38724 0.13143 0.0
H586 H 0.86261 0.39073 0.05239 0.0
S587 S 0.88108 0.4584 0.41736 0.0
N588 N 0.84542 0.44401 0.4025 0.0
N589 N 0.90102 0.44738 0.31721 0.0
C590 C 0.87866 0.43097 0.26698 0.0
C591 C 0.84871 0.42884 0.31333 0.0
C592 C 0.04419 0.15633 0.88349 0.0
C593 C 0.01983 0.17808 0.86744 0.0
C594 C 0.0415 0.12475 0.85385 0.0
C595 C 0.01448 0.11319 0.80499 0.0
H596 H 0.06542 0.16364 0.92154 0.0
H597 H 0.0609 0.1092 0.87011 0.0
S598 S 0.94399 0.16039 0.74305 0.0
N599 N 0.96769 0.18565 0.79865 0.0
N600 N 0.96281 0.12658 0.74132 0.0
C601 C 0.99006 0.13476 0.78705 0.0
C602 C 0.99264 0.16697 0.81885 0.0
C603 C 0.36788 0.01439 0.95656 0.0
C604 C 0.34303 1.0085 0.88941 0.0
C605 C 0.3995 0.01303 0.92561 0.0
C606 C 0.40814 1.00536 0.82594 0.0
H607 H 0.36287 0.02085 0.03364 0.0
H608 H 0.41736 0.01813 0.98108 0.0
S609 S 0.35216 0.98635 0.62107 0.0
N610 N 0.32941 0.99375 0.71869 0.0
N611 N 0.38854 0.99099 0.66077 0.0
C612 C 0.38351 0.9989 0.75829 0.0
C613 C 0.35119 1.00058 0.78977 0.0
C614 C 0.47359 0.363 0.88737 0.0
C615 C 0.49968 0.34271 0.89124 0.0
C616 C 0.47609 0.39402 0.85153 0.0
C617 C 0.50476 0.40652 0.81655 0.0
H618 H 0.45099 0.35514 0.91485 0.0
H619 H 0.45522 0.40845 0.8522 0.0
S620 S 0.58057 0.36392 0.81215 0.0
N621 N 0.55543 0.33786 0.85666 0.0
N622 N 0.56012 0.39608 0.79037 0.0
C623 C 0.53107 0.38657 0.81923 0.0
C624 C 0.52857 0.35487 0.8565 0.0
C625 C 0.15433 0.48267 0.9022 0.0
C626 C 0.1759 0.50686 0.88085 0.0
C627 C 0.12271 0.48456 0.87182 0.0
C628 C 0.11131 0.51038 0.81634 0.0
H629 H 0.16196 0.46213 0.94347 0.0
H630 H 0.10711 0.4654 0.89124 0.0
S631 S 0.15821 0.57991 0.74044 0.0
N632 N 0.18346 0.55764 0.80191 0.0
N633 N 0.12449 0.56077 0.74189 0.0
C634 C 0.13272 0.53461 0.79381 0.0
C635 C 0.1648 0.533 0.82695 0.0
C636 C 1.00442 0.85977 0.68539 0.0
C637 C 1.00518 0.85162 0.58229 0.0
C638 C 1.00559 0.89116 0.71774 0.0
C639 C 1.0067 0.91611 0.64871 0.0
H640 H 1.00281 0.84174 0.74252 0.0
H641 H 1.00502 0.8959 0.79767 0.0
S642 S 1.00921 0.90886 0.37076 0.0
N643 N 1.00808 0.87228 0.4114 0.0
N644 N 1.00836 0.9309 0.47239 0.0
C645 C 1.00686 0.90865 0.5456 0.0
C646 C 1.00644 0.87663 0.51241 0.0
C647 C 0.64848 0.98313 0.561 0.0
C648 C 0.66963 1.00659 0.59159 0.0
C649 C 0.61722 0.98267 0.59529 0.0
C650 C 0.6055 1.00576 0.66137 0.0
H651 H 0.65623 0.96475 0.5108 0.0
H652 H 0.60216 0.96386 0.56957 0.0
S653 S 0.65058 0.07422 0.75609 0.0
N654 N 0.67606 0.05471 0.68697 0.0
N655 N 0.6176 0.05398 0.75068 0.0
C656 C 0.62633 0.02971 0.69101 0.0
C657 C 0.65821 0.0301 0.65636 0.0
C658 C 0.53431 0.64575 0.544 0.0
C659 C 0.51559 0.66898 0.58889 0.0
C660 C 0.5334 0.61442 0.57714 0.0
C661 C 0.51374 0.60476 0.65692 0.0
H662 H 0.5499 0.65181 0.4826 0.0
H663 H 0.54835 0.59764 0.53947 0.0
S664 S 0.45838 0.6558 0.79604 0.0
N665 N 0.47544 0.67959 0.71447 0.0
N666 N 0.47433 0.62105 0.77786 0.0
C667 C 0.49485 0.6277 0.70253 0.0
C668 C 0.49564 0.65963 0.66839 0.0
C669 C 0.86008 0.50026 0.65478 0.0
C670 C 0.84994 0.51964 0.57482 0.0
C671 C 0.89141 0.50052 0.68872 0.0
C672 C 0.91417 0.52002 0.64388 0.0
H673 H 0.84382 0.48413 0.69021 0.0
H674 H 0.89794 0.48482 0.74927 0.0
S675 S 0.89965 0.57685 0.43636 0.0
N676 N 0.86522 0.5602 0.45589 0.0
N677 N 0.92381 0.5603 0.51732 0.0
C678 C 0.90425 0.53986 0.56484 0.0
C679 C 0.87234 0.53973 0.53089 0.0
loop_
_geom_bond_atom_site_label_1
_geom_bond_atom_site_label_2
_geom_bond_distance
_geom_bond_site_symmetry_2
_ccdc_geom_bond_type
P0 O11 1.490 . S
P0 C14 1.812 . S
P0 C20 1.803 . S
P0 C26 1.819 . S
H1 C15 0.941 . S
H2 C16 0.939 . S
H3 C18 0.940 . S
H4 C19 0.940 . S
H5 C21 0.939 . S
H6 C22 0.942 . S
H7 C24 0.940 . S
H8 C25 0.939 . S
H9 C27 0.941 . S
H10 C31 0.939 . S
O11 P0 1.490 . S
H12 C28 0.939 . S
H13 C30 0.940 . S
C14 P0 1.812 . S
C14 C15 1.389 . S
C14 C19 1.391 . S
C15 H1 0.941 . S
C15 C14 1.389 . S
C15 C16 1.397 . S
C16 H2 0.939 . S
C16 C15 1.397 . S
C16 C17 1.378 . S
C17 C16 1.378 . S
C17 C18 1.378 . S
C18 H3 0.940 . S
C18 C17 1.378 . S
C18 C19 1.396 . S
C19 H4 0.940 . S
C19 C14 1.391 . S
C19 C18 1.396 . S
C20 P0 1.803 . S
C20 C21 1.378 . S
C20 C25 1.400 . S
C21 H5 0.939 . S
C21 C20 1.378 . S
C21 C22 1.361 . S
C22 H6 0.942 . S
C22 C21 1.361 . S
C22 C23 1.369 . S
C23 C22 1.369 . S
C23 C24 1.404 . S
C24 H7 0.940 . S
C24 C23 1.404 . S
C24 C25 1.389 . S
C25 H8 0.939 . S
C25 C20 1.400 . S
C25 C24 1.389 . S
C26 P0 1.819 . S
C26 C27 1.391 . S
C26 C31 1.391 . S
C27 H9 0.941 . S
C27 C26 1.391 . S
C27 C28 1.396 . S
C28 H12 0.939 . S
C28 C27 1.396 . S
C28 C29 1.397 . S
C29 C28 1.397 . S
C29 C30 1.385 . S
C30 H13 0.940 . S
C30 C29 1.385 . S
C30 C31 1.388 . S
C31 H10 0.939 . S
C31 C26 1.391 . S
C31 C30 1.388 . S
P32 O43 1.490 . S
P32 C46 1.812 . S
P32 C52 1.803 . S
P32 C58 1.819 . S
H33 C47 0.941 . S
H34 C48 0.939 . S
H35 C50 0.940 . S
H36 C51 0.950 . S
H37 C53 0.939 . S
H38 C54 0.942 . S
H39 C56 0.940 . S
H40 C57 0.959 . S
H41 C59 0.941 . S
H42 C63 0.929 1_655 S
O43 P32 1.490 . S
H44 C60 0.939 . S
H45 C62 0.940 . S
C46 P32 1.812 . S
C46 C47 1.389 . S
C46 C51 1.375 1_455 S
C47 H33 0.941 . S
C47 C46 1.389 . S
C47 C48 1.397 . S
C48 H34 0.939 . S
C48 C47 1.397 . S
C48 C49 1.378 . S
C49 C48 1.378 . S
C49 C50 1.378 1_455 S
C50 H35 0.940 . S
C50 C49 1.378 1_655 S
C50 C51 1.403 . S
C51 H36 0.950 . S
C51 C46 1.375 1_655 S
C51 C50 1.403 . S
C52 P32 1.803 . S
C52 C53 1.378 . S
C52 C57 1.368 1_455 S
C53 H37 0.939 . S
C53 C52 1.378 . S
C53 C54 1.361 . S
C54 H38 0.942 . S
C54 C53 1.361 . S
C54 C55 1.369 . S
C55 C54 1.369 . S
C55 C56 1.404 1_455 S
C56 H39 0.940 . S
C56 C55 1.404 1_655 S
C56 C57 1.402 . S
C57 H40 0.959 . S
C57 C52 1.368 1_655 S
C57 C56 1.402 . S
C58 P32 1.819 . S
C58 C59 1.391 . S
C58 C63 1.391 . S
C59 H41 0.941 . S
C59 C58 1.391 . S
C59 C60 1.396 . S
C60 H44 0.939 . S
C60 C59 1.396 . S
C60 C61 1.397 . S
C61 C60 1.397 . S
C61 C62 1.385 1_455 S
C62 H45 0.940 . S
C62 C61 1.385 1_655 S
C62 C63 1.388 1_655 S
C63 H42 0.929 1_455 S
C63 C58 1.391 . S
C63 C62 1.388 1_455 S
P64 O75 1.490 . S
P64 C78 1.812 . S
P64 C84 1.803 . S
P64 C90 1.819 . S
H65 C79 0.941 . S
H66 C80 0.939 . S
H67 C82 0.940 . S
H68 C83 0.950 . S
H69 C85 0.939 . S
H70 C86 0.942 . S
H71 C88 0.940 . S
H72 C89 0.959 . S
H73 C91 0.941 . S
H74 C95 0.929 1_565 S
O75 P64 1.490 . S
H76 C92 0.939 . S
H77 C94 0.940 . S
C78 P64 1.812 . S
C78 C79 1.389 . S
C78 C83 1.375 1_545 S
C79 H65 0.941 . S
C79 C78 1.389 . S
C79 C80 1.397 . S
C80 H66 0.939 . S
C80 C79 1.397 . S
C80 C81 1.378 . S
C81 C80 1.378 . S
C81 C82 1.378 1_545 S
C82 H67 0.940 . S
C82 C81 1.378 1_565 S
C82 C83 1.403 . S
C83 H68 0.950 . S
C83 C78 1.375 1_565 S
C83 C82 1.403 . S
C84 P64 1.803 . S
C84 C85 1.378 . S
C84 C89 1.368 1_545 S
C85 H69 0.939 . S
C85 C84 1.378 . S
C85 C86 1.361 . S
C86 H70 0.942 . S
C86 C85 1.361 . S
C86 C87 1.369 . S
C87 C86 1.369 . S
C87 C88 1.404 1_545 S
C88 H71 0.940 . S
C88 C87 1.404 1_565 S
C88 C89 1.402 . S
C89 H72 0.959 . S
C89 C84 1.368 1_565 S
C89 C88 1.402 . S
C90 P64 1.819 . S
C90 C91 1.391 . S
C90 C95 1.391 . S
C91 H73 0.941 . S
C91 C90 1.391 . S
C91 C92 1.396 . S
C92 H76 0.939 . S
C92 C91 1.396 . S
C92 C93 1.397 . S
C93 C92 1.397 . S
C93 C94 1.385 1_545 S
C94 H77 0.940 . S
C94 C93 1.385 1_565 S
C94 C95 1.388 1_565 S
C95 H74 0.929 1_545 S
C95 C90 1.391 . S
C95 C94 1.388 1_545 S
P96 O107 1.490 . S
P96 C110 1.812 . S
P96 C116 1.803 . S
P96 C122 1.819 . S
H97 C111 0.941 . S
H98 C112 0.939 . S
H99 C114 0.940 . S
H100 C115 0.940 . S
H101 C117 0.939 . S
H102 C118 0.942 . S
H103 C120 0.940 . S
H104 C121 0.939 . S
H105 C123 0.941 . S
H106 C127 0.939 . S
O107 P96 1.490 . S
H108 C124 0.939 . S
H109 C126 0.940 . S
C110 P96 1.812 . S
C110 C111 1.389 . S
C110 C115 1.391 . S
C111 H97 0.941 . S
C111 C110 1.389 . S
C111 C112 1.397 . S
C112 H98 0.939 . S
C112 C111 1.397 . S
C112 C113 1.378 . S
C113 C112 1.378 . S
C113 C114 1.378 . S
C114 H99 0.940 . S
C114 C113 1.378 . S
C114 C115 1.396 . S
C115 H100 0.940 . S
C115 C110 1.391 . S
C115 C114 1.396 . S
C116 P96 1.803 . S
C116 C117 1.378 . S
C116 C121 1.400 . S
C117 H101 0.939 . S
C117 C116 1.378 . S
C117 C118 1.361 . S
C118 H102 0.942 . S
C118 C117 1.361 . S
C118 C119 1.369 . S
C119 C118 1.369 . S
C119 C120 1.404 . S
C120 H103 0.940 . S
C120 C119 1.404 . S
C120 C121 1.389 . S
C121 H104 0.939 . S
C121 C116 1.400 . S
C121 C120 1.389 . S
C122 P96 1.819 . S
C122 C123 1.391 . S
C122 C127 1.391 . S
C123 H105 0.941 . S
C123 C122 1.391 . S
C123 C124 1.396 . S
C124 H108 0.939 . S
C124 C123 1.396 . S
C124 C125 1.397 . S
C125 C124 1.397 . S
C125 C126 1.385 . S
C126 H109 0.940 . S
C126 C125 1.385 . S
C126 C127 1.388 . S
C127 H106 0.939 . S
C127 C122 1.391 . S
C127 C126 1.388 . S
P128 O139 1.490 . S
P128 C142 1.812 1_554 S
P128 C148 1.803 . S
P128 C154 1.819 . S
H129 C143 0.941 . S
H130 C144 0.939 . S
H131 C146 0.940 . S
H132 C147 0.940 . S
H133 C149 0.939 . S
H134 C150 0.942 . S
H135 C152 0.940 . S
H136 C153 0.939 1_556 S
H137 C155 0.941 . S
H138 C159 0.939 . S
O139 P128 1.490 . S
H140 C156 0.939 . S
H141 C158 0.940 . S
C142 P128 1.812 1_556 S
C142 C143 1.389 . S
C142 C147 1.391 . S
C143 H129 0.941 . S
C143 C142 1.389 . S
C143 C144 1.397 . S
C144 H130 0.939 . S
C144 C143 1.397 . S
C144 C145 1.378 . S
C145 C144 1.378 . S
C145 C146 1.378 . S
C146 H131 0.940 . S
C146 C145 1.378 . S
C146 C147 1.396 . S
C147 H132 0.940 . S
C147 C142 1.391 . S
C147 C146 1.396 . S
C148 P128 1.803 . S
C148 C149 1.378 . S
C148 C153 1.400 . S
C149 H133 0.939 . S
C149 C148 1.378 . S
C149 C150 1.361 . S
C150 H134 0.942 . S
C150 C149 1.361 . S
C150 C151 1.369 . S
C151 C150 1.369 . S
C151 C152 1.404 . S
C152 H135 0.940 . S
C152 C151 1.404 . S
C152 C153 1.389 . S
C153 H136 0.939 1_554 S
C153 C148 1.400 . S
C153 C152 1.389 . S
C154 P128 1.819 . S
C154 C155 1.391 . S
C154 C159 1.391 . S
C155 H137 0.941 . S
C155 C154 1.391 . S
C155 C156 1.396 . S
C156 H140 0.939 . S
C156 C155 1.396 . S
C156 C157 1.397 . S
C157 C156 1.397 . S
C157 C158 1.385 . S
C158 H141 0.940 . S
C158 C157 1.385 . S
C158 C159 1.388 . S
C159 H138 0.939 . S
C159 C154 1.391 . S
C159 C158 1.388 . S
P160 O171 1.490 . S
P160 C174 1.812 1_554 S
P160 C180 1.803 . S
P160 C186 1.819 . S
H161 C175 0.941 . S
H162 C176 0.939 . S
H163 C178 0.940 . S
H164 C179 0.945 . S
H165 C181 0.939 . S
H166 C182 0.942 . S
H167 C184 0.940 . S
H168 C185 0.954 1_556 S
H169 C187 0.941 . S
H170 C191 0.932 1_655 S
O171 P160 1.490 . S
H172 C188 0.939 . S
H173 C190 0.940 . S
C174 P160 1.812 1_556 S
C174 C175 1.389 . S
C174 C179 1.383 1_455 S
C175 H161 0.941 . S
C175 C174 1.389 . S
C175 C176 1.397 . S
C176 H162 0.939 . S
C176 C175 1.397 . S
C176 C177 1.378 . S
C177 C176 1.378 . S
C177 C178 1.378 1_455 S
C178 H163 0.940 . S
C178 C177 1.378 1_655 S
C178 C179 1.400 . S
C179 H164 0.945 . S
C179 C174 1.383 1_655 S
C179 C178 1.400 . S
C180 P160 1.803 . S
C180 C181 1.378 . S
C180 C185 1.376 1_455 S
C181 H165 0.939 . S
C181 C180 1.378 . S
C181 C182 1.361 . S
C182 H166 0.942 . S
C182 C181 1.361 . S
C182 C183 1.369 . S
C183 C182 1.369 . S
C183 C184 1.404 1_455 S
C184 H167 0.940 . S
C184 C183 1.404 1_655 S
C184 C185 1.399 . S
C185 H168 0.954 1_554 S
C185 C180 1.376 1_655 S
C185 C184 1.399 . S
C186 P160 1.819 . S
C186 C187 1.391 . S
C186 C191 1.391 . S
C187 H169 0.941 . S
C187 C186 1.391 . S
C187 C188 1.396 . S
C188 H172 0.939 . S
C188 C187 1.396 . S
C188 C189 1.397 . S
C189 C188 1.397 . S
C189 C190 1.385 1_455 S
C190 H173 0.940 . S
C190 C189 1.385 1_655 S
C190 C191 1.388 1_655 S
C191 H170 0.932 1_455 S
C191 C186 1.391 . S
C191 C190 1.388 1_455 S
P192 O203 1.490 . S
P192 C206 1.812 1_554 S
P192 C212 1.803 . S
P192 C218 1.819 . S
H193 C207 0.941 . S
H194 C208 0.939 . S
H195 C210 0.940 . S
H196 C211 0.945 . S
H197 C213 0.939 . S
H198 C214 0.942 . S
H199 C216 0.940 . S
H200 C217 0.954 1_556 S
H201 C219 0.941 . S
H202 C223 0.932 1_565 S
O203 P192 1.490 . S
H204 C220 0.939 . S
H205 C222 0.940 . S
C206 P192 1.812 1_556 S
C206 C207 1.389 . S
C206 C211 1.383 1_545 S
C207 H193 0.941 . S
C207 C206 1.389 . S
C207 C208 1.397 . S
C208 H194 0.939 . S
C208 C207 1.397 . S
C208 C209 1.378 . S
C209 C208 1.378 . S
C209 C210 1.378 1_545 S
C210 H195 0.940 . S
C210 C209 1.378 1_565 S
C210 C211 1.400 . S
C211 H196 0.945 . S
C211 C206 1.383 1_565 S
C211 C210 1.400 . S
C212 P192 1.803 . S
C212 C213 1.378 . S
C212 C217 1.376 1_545 S
C213 H197 0.939 . S
C213 C212 1.378 . S
C213 C214 1.361 . S
C214 H198 0.942 . S
C214 C213 1.361 . S
C214 C215 1.369 . S
C215 C214 1.369 . S
C215 C216 1.404 1_545 S
C216 H199 0.940 . S
C216 C215 1.404 1_565 S
C216 C217 1.399 . S
C217 H200 0.954 1_554 S
C217 C212 1.376 1_565 S
C217 C216 1.399 . S
C218 P192 1.819 . S
C218 C219 1.391 . S
C218 C223 1.391 . S
C219 H201 0.941 . S
C219 C218 1.391 . S
C219 C220 1.396 . S
C220 H204 0.939 . S
C220 C219 1.396 . S
C220 C221 1.397 . S
C221 C220 1.397 . S
C221 C222 1.385 1_545 S
C222 H205 0.940 . S
C222 C221 1.385 1_565 S
C222 C223 1.388 1_565 S
C223 H202 0.932 1_545 S
C223 C218 1.391 . S
C223 C222 1.388 1_545 S
P224 O235 1.490 . S
P224 C238 1.812 1_554 S
P224 C244 1.803 . S
P224 C250 1.819 . S
H225 C239 0.941 . S
H226 C240 0.939 . S
H227 C242 0.940 . S
H228 C243 0.940 . S
H229 C245 0.939 . S
H230 C246 0.942 . S
H231 C248 0.940 . S
H232 C249 0.939 1_556 S
H233 C251 0.941 . S
H234 C255 0.939 . S
O235 P224 1.490 . S
H236 C252 0.939 . S
H237 C254 0.940 . S
C238 P224 1.812 1_556 S
C238 C239 1.389 . S
C238 C243 1.391 . S
C239 H225 0.941 . S
C239 C238 1.389 . S
C239 C240 1.397 . S
C240 H226 0.939 . S
C240 C239 1.397 . S
C240 C241 1.378 . S
C241 C240 1.378 . S
C241 C242 1.378 . S
C242 H227 0.940 . S
C242 C241 1.378 . S
C242 C243 1.396 . S
C243 H228 0.940 . S
C243 C238 1.391 . S
C243 C242 1.396 . S
C244 P224 1.803 . S
C244 C245 1.378 . S
C244 C249 1.400 . S
C245 H229 0.939 . S
C245 C244 1.378 . S
C245 C246 1.361 . S
C246 H230 0.942 . S
C246 C245 1.361 . S
C246 C247 1.369 . S
C247 C246 1.369 . S
C247 C248 1.404 . S
C248 H231 0.940 . S
C248 C247 1.404 . S
C248 C249 1.389 . S
C249 H232 0.939 1_554 S
C249 C244 1.400 . S
C249 C248 1.389 . S
C250 P224 1.819 . S
C250 C251 1.391 . S
C250 C255 1.391 . S
C251 H233 0.941 . S
C251 C250 1.391 . S
C251 C252 1.396 . S
C252 H236 0.939 . S
C252 C251 1.396 . S
C252 C253 1.397 . S
C253 C252 1.397 . S
C253 C254 1.385 . S
C254 H237 0.940 . S
C254 C253 1.385 . S
C254 C255 1.388 . S
C255 H234 0.939 . S
C255 C250 1.391 . S
C255 C254 1.388 . S
Gd256 C259 2.818 . S
Gd256 O276 2.377 . S
Gd256 O278 2.448 . S
Gd256 O279 2.506 . S
Gd256 O280 2.435 . S
Gd256 O281 2.717 1_565 S
Gd256 O283 2.395 1_565 S
Gd256 O287 2.327 1_455 S
Gd257 C268 2.818 . S
Gd257 O277 2.395 1_545 S
Gd257 O281 2.327 1_655 S
Gd257 O282 2.377 . S
Gd257 O284 2.448 . S
Gd257 O285 2.506 . S
Gd257 O286 2.435 . S
Gd257 O287 2.717 1_545 S
C258 O276 1.240 1_655 S
C258 O277 1.240 . S
C259 Gd256 2.818 . S
C259 C260 1.514 . S
C259 O278 1.249 . S
C259 O279 1.252 . S
C260 C259 1.514 . S
C260 C261 1.404 1_556 S
C260 C262 1.348 1_556 S
C261 C260 1.404 1_554 S
C261 C265 1.389 . S
C261 H288 0.930 1_554 S
C262 C260 1.348 1_554 S
C262 C264 1.374 . S
C262 H289 0.931 1_455 S
C263 C264 1.359 . S
C263 C265 1.364 . S
C264 C262 1.374 . S
C264 C263 1.359 . S
C264 H290 0.931 . S
C265 C261 1.389 . S
C265 C263 1.364 . S
C265 H291 0.931 . S
C266 O280 1.256 . S
C266 O281 1.257 1_565 S
C267 O282 1.240 1_455 S
C267 O283 1.240 . S
C268 Gd257 2.818 . S
C268 C269 1.510 . S
C268 O284 1.249 . S
C268 O285 1.252 . S
C269 C268 1.510 . S
C269 C270 1.404 . S
C269 C271 1.352 . S
C270 C269 1.404 . S
C270 C274 1.389 . S
C270 H292 0.930 . S
C271 C269 1.352 . S
C271 C273 1.374 . S
C271 H293 0.931 1_655 S
C272 C273 1.359 . S
C272 C274 1.364 . S
C273 C271 1.374 . S
C273 C272 1.359 . S
C273 H294 0.931 . S
C274 C270 1.389 . S
C274 C272 1.364 . S
C274 H295 0.931 . S
C275 O286 1.256 . S
C275 O287 1.257 1_545 S
O276 Gd256 2.377 . S
O276 C258 1.240 1_455 S
O277 Gd257 2.395 1_565 S
O277 C258 1.240 . S
O278 Gd256 2.448 . S
O278 C259 1.249 . S
O279 Gd256 2.506 . S
O279 C259 1.252 . S
O280 Gd256 2.435 . S
O280 C266 1.256 . S
O281 Gd256 2.717 1_545 S
O281 Gd257 2.327 1_455 S
O281 C266 1.257 1_545 S
O282 Gd257 2.377 . S
O282 C267 1.240 1_655 S
O283 Gd256 2.395 1_545 S
O283 C267 1.240 . S
O284 Gd257 2.448 . S
O284 C268 1.249 . S
O285 Gd257 2.506 . S
O285 C268 1.252 . S
O286 Gd257 2.435 . S
O286 C275 1.256 . S
O287 Gd256 2.327 1_655 S
O287 Gd257 2.717 1_565 S
O287 C275 1.257 1_565 S
H288 C261 0.930 1_556 S
H289 C262 0.931 1_655 S
H290 C264 0.931 . S
H291 C265 0.931 . S
H292 C270 0.930 . S
H293 C271 0.931 1_455 S
H294 C273 0.931 . S
H295 C274 0.931 . S
Gd296 C299 2.818 . S
Gd296 O316 2.377 . S
Gd296 O318 2.448 . S
Gd296 O319 2.506 . S
Gd296 O320 2.435 . S
Gd296 O321 2.717 . S
Gd296 O323 2.395 . S
Gd296 O327 2.327 1_545 S
Gd297 C308 2.818 . S
Gd297 O317 2.395 . S
Gd297 O321 2.327 1_565 S
Gd297 O322 2.377 . S
Gd297 O324 2.448 . S
Gd297 O325 2.506 . S
Gd297 O326 2.435 . S
Gd297 O327 2.717 . S
C298 O316 1.240 1_565 S
C298 O317 1.240 . S
C299 Gd296 2.818 . S
C299 C300 1.511 . S
C299 O318 1.249 . S
C299 O319 1.252 . S
C300 C299 1.511 . S
C300 C301 1.404 1_556 S
C300 C302 1.352 1_556 S
C301 C300 1.404 1_554 S
C301 C305 1.389 . S
C301 H328 0.930 1_554 S
C302 C300 1.352 1_554 S
C302 C304 1.374 . S
C302 H329 0.931 1_545 S
C303 C304 1.359 . S
C303 C305 1.364 . S
C304 C302 1.374 . S
C304 C303 1.359 . S
C304 H330 0.931 . S
C305 C301 1.389 . S
C305 C303 1.364 . S
C305 H331 0.931 . S
C306 O320 1.256 . S
C306 O321 1.257 . S
C307 O322 1.240 1_545 S
C307 O323 1.240 . S
C308 Gd297 2.818 . S
C308 C309 1.510 . S
C308 O324 1.249 . S
C308 O325 1.252 . S
C309 C308 1.510 . S
C309 C310 1.404 . S
C309 C311 1.352 . S
C310 C309 1.404 . S
C310 C314 1.389 . S
C310 H332 0.930 . S
C311 C309 1.352 . S
C311 C313 1.374 . S
C311 H333 0.931 1_565 S
C312 C313 1.359 . S
C312 C314 1.364 . S
C313 C311 1.374 . S
C313 C312 1.359 . S
C313 H334 0.931 . S
C314 C310 1.389 . S
C314 C312 1.364 . S
C314 H335 0.931 . S
C315 O326 1.256 . S
C315 O327 1.257 . S
O316 Gd296 2.377 . S
O316 C298 1.240 1_545 S
O317 Gd297 2.395 . S
O317 C298 1.240 . S
O318 Gd296 2.448 . S
O318 C299 1.249 . S
O319 Gd296 2.506 . S
O319 C299 1.252 . S
O320 Gd296 2.435 . S
O320 C306 1.256 . S
O321 Gd296 2.717 . S
O321 Gd297 2.327 1_545 S
O321 C306 1.257 . S
O322 Gd297 2.377 . S
O322 C307 1.240 1_565 S
O323 Gd296 2.395 . S
O323 C307 1.240 . S
O324 Gd297 2.448 . S
O324 C308 1.249 . S
O325 Gd297 2.506 . S
O325 C308 1.252 . S
O326 Gd297 2.435 . S
O326 C315 1.256 . S
O327 Gd296 2.327 1_565 S
O327 Gd297 2.717 . S
O327 C315 1.257 . S
H328 C301 0.930 1_556 S
H329 C302 0.931 1_565 S
H330 C304 0.931 . S
H331 C305 0.931 . S
H332 C310 0.930 . S
H333 C311 0.931 1_545 S
H334 C313 0.931 . S
H335 C314 0.931 . S
Gd336 C339 2.818 . S
Gd336 O356 2.377 . S
Gd336 O358 2.448 . S
Gd336 O359 2.506 . S
Gd336 O360 2.435 . S
Gd336 O361 2.717 . S
Gd336 O363 2.395 . S
Gd336 O367 2.327 . S
Gd337 C348 2.818 . S
Gd337 O357 2.395 . S
Gd337 O361 2.327 . S
Gd337 O362 2.377 . S
Gd337 O364 2.448 . S
Gd337 O365 2.506 . S
Gd337 O366 2.435 . S
Gd337 O367 2.717 . S
C338 O356 1.240 . S
C338 O357 1.240 . S
C339 Gd336 2.818 . S
C339 C340 1.510 1_556 S
C339 O358 1.249 . S
C339 O359 1.252 . S
C340 C339 1.510 1_554 S
C340 C341 1.404 . S
C340 C342 1.352 . S
C341 C340 1.404 . S
C341 C345 1.389 . S
C341 H368 0.930 1_554 S
C342 C340 1.352 . S
C342 C344 1.374 . S
C342 H369 0.931 . S
C343 C344 1.359 . S
C343 C345 1.364 . S
C344 C342 1.374 . S
C344 C343 1.359 . S
C344 H370 0.931 . S
C345 C341 1.389 . S
C345 C343 1.364 . S
C345 H371 0.931 . S
C346 O360 1.256 . S
C346 O361 1.257 . S
C347 O362 1.240 . S
C347 O363 1.240 . S
C348 Gd337 2.818 . S
C348 C349 1.510 . S
C348 O364 1.249 . S
C348 O365 1.252 . S
C349 C348 1.510 . S
C349 C350 1.404 . S
C349 C351 1.352 . S
C350 C349 1.404 . S
C350 C354 1.389 . S
C350 H372 0.930 . S
C351 C349 1.352 . S
C351 C353 1.374 . S
C351 H373 0.931 . S
C352 C353 1.359 . S
C352 C354 1.364 . S
C353 C351 1.374 . S
C353 C352 1.359 . S
C353 H374 0.931 . S
C354 C350 1.389 . S
C354 C352 1.364 . S
C354 H375 0.931 . S
C355 O366 1.256 . S
C355 O367 1.257 . S
O356 Gd336 2.377 . S
O356 C338 1.240 . S
O357 Gd337 2.395 . S
O357 C338 1.240 . S
O358 Gd336 2.448 . S
O358 C339 1.249 . S
O359 Gd336 2.506 . S
O359 C339 1.252 . S
O360 Gd336 2.435 . S
O360 C346 1.256 . S
O361 Gd336 2.717 . S
O361 Gd337 2.327 . S
O361 C346 1.257 . S
O362 Gd337 2.377 . S
O362 C347 1.240 . S
O363 Gd336 2.395 . S
O363 C347 1.240 . S
O364 Gd337 2.448 . S
O364 C348 1.249 . S
O365 Gd337 2.506 . S
O365 C348 1.252 . S
O366 Gd337 2.435 . S
O366 C355 1.256 . S
O367 Gd336 2.327 . S
O367 Gd337 2.717 . S
O367 C355 1.257 . S
H368 C341 0.930 1_556 S
H369 C342 0.931 . S
H370 C344 0.931 . S
H371 C345 0.931 . S
H372 C350 0.930 . S
H373 C351 0.931 . S
H374 C353 0.931 . S
H375 C354 0.931 . S
Gd376 C379 2.818 . S
Gd376 O396 2.377 . S
Gd376 O398 2.448 . S
Gd376 O399 2.506 . S
Gd376 O400 2.435 . S
Gd376 O401 2.717 1_655 S
Gd376 O403 2.395 1_655 S
Gd376 O407 2.327 . S
Gd377 C388 2.818 . S
Gd377 O397 2.395 1_455 S
Gd377 O401 2.327 . S
Gd377 O402 2.377 . S
Gd377 O404 2.448 . S
Gd377 O405 2.506 . S
Gd377 O406 2.435 . S
Gd377 O407 2.717 1_455 S
C378 O396 1.240 . S
C378 O397 1.240 . S
C379 Gd376 2.818 . S
C379 C380 1.507 1_556 S
C379 O398 1.249 . S
C379 O399 1.252 . S
C380 C379 1.507 1_554 S
C380 C381 1.405 . S
C380 C382 1.355 . S
C381 C380 1.405 . S
C381 C385 1.389 . S
C381 H408 0.930 1_554 S
C382 C380 1.355 . S
C382 C384 1.374 . S
C382 H409 0.931 . S
C383 C384 1.359 . S
C383 C385 1.364 . S
C384 C382 1.374 . S
C384 C383 1.359 . S
C384 H410 0.931 . S
C385 C381 1.389 . S
C385 C383 1.364 . S
C385 H411 0.931 . S
C386 O400 1.270 . S
C386 O401 1.250 1_655 S
C387 O402 1.240 . S
C387 O403 1.240 . S
C388 Gd377 2.818 . S
C388 C389 1.510 . S
C388 O404 1.249 . S
C388 O405 1.252 . S
C389 C388 1.510 . S
C389 C390 1.404 . S
C389 C391 1.352 . S
C390 C389 1.404 . S
C390 C394 1.389 . S
C390 H412 0.930 . S
C391 C389 1.352 . S
C391 C393 1.374 . S
C391 H413 0.931 . S
C392 C393 1.359 . S
C392 C394 1.364 . S
C393 C391 1.374 . S
C393 C392 1.359 . S
C393 H414 0.931 . S
C394 C390 1.389 . S
C394 C392 1.364 . S
C394 H415 0.931 . S
C395 O406 1.274 . S
C395 O407 1.248 1_455 S
O396 Gd376 2.377 . S
O396 C378 1.240 . S
O397 Gd377 2.395 1_655 S
O397 C378 1.240 . S
O398 Gd376 2.448 . S
O398 C379 1.249 . S
O399 Gd376 2.506 . S
O399 C379 1.252 . S
O400 Gd376 2.435 . S
O400 C386 1.270 . S
O401 Gd376 2.717 1_455 S
O401 Gd377 2.327 . S
O401 C386 1.250 1_455 S
O402 Gd377 2.377 . S
O402 C387 1.240 . S
O403 Gd376 2.395 1_455 S
O403 C387 1.240 . S
O404 Gd377 2.448 . S
O404 C388 1.249 . S
O405 Gd377 2.506 . S
O405 C388 1.252 . S
O406 Gd377 2.435 . S
O406 C395 1.274 . S
O407 Gd376 2.327 . S
O407 Gd377 2.717 1_655 S
O407 C395 1.248 1_655 S
H408 C381 0.930 1_556 S
H409 C382 0.931 . S
H410 C384 0.931 . S
H411 C385 0.931 . S
H412 C390 0.930 . S
H413 C391 0.931 . S
H414 C393 0.931 . S
H415 C394 0.931 . S
C416 C417 1.376 . S
C416 C418 1.419 . S
C416 H420 0.930 . S
C417 C416 1.376 . S
C417 C426 1.422 1_545 S
C418 C416 1.419 . S
C418 C419 1.363 . S
C418 H421 0.929 . S
C419 C418 1.363 . S
C419 C425 1.428 1_545 S
H420 C416 0.930 . S
H421 C418 0.929 . S
S422 N423 1.613 . S
S422 N424 1.610 . S
N423 S422 1.613 . S
N423 C426 1.350 . S
N424 S422 1.610 . S
N424 C425 1.351 . S
C425 C419 1.428 1_565 S
C425 N424 1.351 . S
C425 C426 1.434 . S
C426 C417 1.422 1_565 S
C426 N423 1.350 . S
C426 C425 1.434 . S
C427 C428 1.369 . S
C427 C429 1.419 . S
C427 H431 0.930 . S
C428 C427 1.369 . S
C428 C437 1.429 . S
C429 C427 1.419 . S
C429 C430 1.363 . S
C429 H432 0.929 . S
C430 C429 1.363 . S
C430 C436 1.428 . S
H431 C427 0.930 . S
H432 C429 0.929 . S
S433 N434 1.613 . S
S433 N435 1.610 . S
N434 S433 1.613 . S
N434 C437 1.350 . S
N435 S433 1.610 . S
N435 C436 1.351 . S
C436 C430 1.428 . S
C436 N435 1.351 . S
C436 C437 1.434 . S
C437 C428 1.429 . S
C437 N434 1.350 . S
C437 C436 1.434 . S
C438 C439 1.369 . S
C438 C440 1.419 . S
C438 H442 0.930 . S
C439 C438 1.369 . S
C439 C448 1.429 . S
C440 C438 1.419 . S
C440 C441 1.363 . S
C440 H443 0.929 . S
C441 C440 1.363 . S
C441 C447 1.428 . S
H442 C438 0.930 . S
H443 C440 0.929 . S
S444 N445 1.613 . S
S444 N446 1.610 . S
N445 S444 1.613 . S
N445 C448 1.350 . S
N446 S444 1.610 . S
N446 C447 1.351 . S
C447 C441 1.428 . S
C447 N446 1.351 . S
C447 C448 1.434 . S
C448 C439 1.429 . S
C448 N445 1.350 . S
C448 C447 1.434 . S
C449 C450 1.387 . S
C449 C451 1.419 . S
C449 H453 0.930 . S
C450 C449 1.387 . S
C450 C459 1.411 1_455 S
C451 C449 1.419 . S
C451 C452 1.363 . S
C451 H454 0.929 . S
C452 C451 1.363 . S
C452 C458 1.428 1_455 S
H453 C449 0.930 . S
H454 C451 0.929 . S
S455 N456 1.613 . S
S455 N457 1.610 . S
N456 S455 1.613 . S
N456 C459 1.350 . S
N457 S455 1.610 . S
N457 C458 1.351 . S
C458 C452 1.428 1_655 S
C458 N457 1.351 . S
C458 C459 1.434 . S
C459 C450 1.411 1_655 S
C459 N456 1.350 . S
C459 C458 1.434 . S
C460 C461 1.370 . S
C460 C462 1.419 . S
C460 H464 0.930 . S
C461 C460 1.370 . S
C461 C470 1.428 1_565 S
C462 C460 1.419 . S
C462 C463 1.363 . S
C462 H465 0.929 . S
C463 C462 1.363 . S
C463 C469 1.428 1_565 S
H464 C460 0.930 . S
H465 C462 0.929 . S
S466 N467 1.613 . S
S466 N468 1.610 . S
N467 S466 1.613 . S
N467 C470 1.350 . S
N468 S466 1.610 . S
N468 C469 1.351 . S
C469 C463 1.428 1_545 S
C469 N468 1.351 . S
C469 C470 1.434 . S
C470 C461 1.428 1_545 S
C470 N467 1.350 . S
C470 C469 1.434 . S
C471 C472 1.369 . S
C471 C473 1.419 . S
C471 H475 0.930 . S
C472 C471 1.369 . S
C472 C481 1.429 . S
C473 C471 1.419 . S
C473 C474 1.363 . S
C473 H476 0.929 . S
C474 C473 1.363 . S
C474 C480 1.428 . S
H475 C471 0.930 . S
H476 C473 0.929 . S
S477 N478 1.613 . S
S477 N479 1.610 . S
N478 S477 1.613 . S
N478 C481 1.350 . S
N479 S477 1.610 . S
N479 C480 1.351 . S
C480 C474 1.428 . S
C480 N479 1.351 . S
C480 C481 1.434 . S
C481 C472 1.429 . S
C481 N478 1.350 . S
C481 C480 1.434 . S
C482 C483 1.369 . S
C482 C484 1.419 . S
C482 H486 0.930 . S
C483 C482 1.369 . S
C483 C492 1.429 . S
C484 C482 1.419 . S
C484 C485 1.363 . S
C484 H487 0.929 . S
C485 C484 1.363 . S
C485 C491 1.428 . S
H486 C482 0.930 . S
H487 C484 0.929 . S
S488 N489 1.613 . S
S488 N490 1.610 . S
N489 S488 1.613 . S
N489 C492 1.350 . S
N490 S488 1.610 . S
N490 C491 1.351 . S
C491 C485 1.428 . S
C491 N490 1.351 . S
C491 C492 1.434 . S
C492 C483 1.429 . S
C492 N489 1.350 . S
C492 C491 1.434 . S
C493 C494 1.378 . S
C493 C495 1.419 . S
C493 H497 0.930 . S
C494 C493 1.378 . S
C494 C503 1.421 1_655 S
C495 C493 1.419 . S
C495 C496 1.363 . S
C495 H498 0.929 . S
C496 C495 1.363 . S
C496 C502 1.428 1_655 S
H497 C493 0.930 . S
H498 C495 0.929 . S
S499 N500 1.613 . S
S499 N501 1.610 . S
N500 S499 1.613 . S
N500 C503 1.350 . S
N501 S499 1.610 . S
N501 C502 1.351 . S
C502 C496 1.428 1_455 S
C502 N501 1.351 . S
C502 C503 1.434 . S
C503 C494 1.421 1_455 S
C503 N500 1.350 . S
C503 C502 1.434 . S
C504 C505 1.369 . S
C504 C506 1.419 . S
C504 H508 0.930 . S
C505 C504 1.369 . S
C505 C514 1.429 . S
C506 C504 1.419 . S
C506 C507 1.363 . S
C506 H509 0.929 . S
C507 C506 1.363 . S
C507 C513 1.428 . S
H508 C504 0.930 . S
H509 C506 0.929 . S
S510 N511 1.613 . S
S510 N512 1.610 1_455 S
N511 S510 1.613 . S
N511 C514 1.350 1_455 S
N512 S510 1.610 1_655 S
N512 C513 1.351 . S
C513 C507 1.428 . S
C513 N512 1.351 . S
C513 C514 1.434 . S
C514 C505 1.429 . S
C514 N511 1.350 1_655 S
C514 C513 1.434 . S
C515 C516 1.369 . S
C515 C517 1.419 . S
C515 H519 0.930 . S
C516 C515 1.369 . S
C516 C525 1.429 1_565 S
C517 C515 1.419 . S
C517 C518 1.363 . S
C517 H520 0.929 . S
C518 C517 1.363 . S
C518 C524 1.428 . S
H519 C515 0.930 . S
H520 C517 0.929 . S
S521 N522 1.613 . S
S521 N523 1.610 1_545 S
N522 S521 1.613 . S
N522 C525 1.350 . S
N523 S521 1.610 1_565 S
N523 C524 1.351 . S
C524 C518 1.428 . S
C524 N523 1.351 . S
C524 C525 1.434 1_565 S
C525 C516 1.429 1_545 S
C525 N522 1.350 . S
C525 C524 1.434 1_545 S
C526 C527 1.369 . S
C526 C528 1.419 . S
C526 H530 0.930 . S
C527 C526 1.369 . S
C527 C536 1.429 . S
C528 C526 1.419 . S
C528 C529 1.363 . S
C528 H531 0.929 . S
C529 C528 1.363 . S
C529 C535 1.428 . S
H530 C526 0.930 . S
H531 C528 0.929 . S
S532 N533 1.613 . S
S532 N534 1.610 . S
N533 S532 1.613 . S
N533 C536 1.350 . S
N534 S532 1.610 . S
N534 C535 1.351 . S
C535 C529 1.428 . S
C535 N534 1.351 . S
C535 C536 1.434 . S
C536 C527 1.429 . S
C536 N533 1.350 . S
C536 C535 1.434 . S
C537 C538 1.369 . S
C537 C539 1.419 . S
C537 H541 0.930 . S
C538 C537 1.369 . S
C538 C547 1.429 . S
C539 C537 1.419 . S
C539 C540 1.363 . S
C539 H542 0.929 . S
C540 C539 1.363 . S
C540 C546 1.428 . S
H541 C537 0.930 . S
H542 C539 0.929 . S
S543 N544 1.613 . S
S543 N545 1.610 . S
N544 S543 1.613 . S
N544 C547 1.350 . S
N545 S543 1.610 . S
N545 C546 1.351 . S
C546 C540 1.428 . S
C546 N545 1.351 . S
C546 C547 1.434 . S
C547 C538 1.429 . S
C547 N544 1.350 . S
C547 C546 1.434 . S
C548 C549 1.369 . S
C548 C550 1.419 . S
C548 H552 0.930 . S
C549 C548 1.369 . S
C549 C558 1.429 . S
C550 C548 1.419 . S
C550 C551 1.363 . S
C550 H553 0.929 . S
C551 C550 1.363 . S
C551 C557 1.428 . S
H552 C548 0.930 . S
H553 C550 0.929 . S
S554 N555 1.613 1_455 S
S554 N556 1.610 . S
N555 S554 1.613 1_655 S
N555 C558 1.350 1_655 S
N556 S554 1.610 . S
N556 C557 1.351 . S
C557 C551 1.428 . S
C557 N556 1.351 . S
C557 C558 1.434 . S
C558 C549 1.429 . S
C558 N555 1.350 1_455 S
C558 C557 1.434 . S
C559 C560 1.369 . S
C559 C561 1.419 . S
C559 H563 0.930 . S
C560 C559 1.369 . S
C560 C569 1.429 1_545 S
C561 C559 1.419 . S
C561 C562 1.363 . S
C561 H564 0.929 . S
C562 C561 1.363 . S
C562 C568 1.428 . S
H563 C559 0.930 . S
H564 C561 0.929 . S
S565 N566 1.613 1_556 S
S565 N567 1.610 1_565 S
N566 S565 1.613 1_554 S
N566 C569 1.350 . S
N567 S565 1.610 1_545 S
N567 C568 1.351 1_556 S
C568 C562 1.428 . S
C568 N567 1.351 1_554 S
C568 C569 1.434 1_545 S
C569 C560 1.429 1_565 S
C569 N566 1.350 . S
C569 C568 1.434 1_565 S
C570 C571 1.369 . S
C570 C572 1.419 . S
C570 H574 0.930 . S
C571 C570 1.369 . S
C571 C580 1.429 . S
C572 C570 1.419 . S
C572 C573 1.363 . S
C572 H575 0.929 . S
C573 C572 1.363 . S
C573 C579 1.428 . S
H574 C570 0.930 . S
H575 C572 0.929 . S
S576 N577 1.613 . S
S576 N578 1.610 . S
N577 S576 1.613 . S
N577 C580 1.350 . S
N578 S576 1.610 . S
N578 C579 1.351 . S
C579 C573 1.428 . S
C579 N578 1.351 . S
C579 C580 1.434 . S
C580 C571 1.429 . S
C580 N577 1.350 . S
C580 C579 1.434 . S
C581 C582 1.369 . S
C581 C583 1.419 . S
C581 H585 0.930 . S
C582 C581 1.369 . S
C582 C591 1.429 . S
C583 C581 1.419 . S
C583 C584 1.363 . S
C583 H586 0.929 . S
C584 C583 1.363 . S
C584 C590 1.428 . S
H585 C581 0.930 . S
H586 C583 0.929 . S
S587 N588 1.613 . S
S587 N589 1.610 . S
N588 S587 1.613 . S
N588 C591 1.350 . S
N589 S587 1.610 . S
N589 C590 1.351 . S
C590 C584 1.428 . S
C590 N589 1.351 . S
C590 C591 1.434 . S
C591 C582 1.429 . S
C591 N588 1.350 . S
C591 C590 1.434 . S
C592 C593 1.369 . S
C592 C594 1.419 . S
C592 H596 0.930 . S
C593 C592 1.369 . S
C593 C602 1.429 1_455 S
C594 C592 1.419 . S
C594 C595 1.363 . S
C594 H597 0.929 . S
C595 C594 1.363 . S
C595 C601 1.428 1_455 S
H596 C592 0.930 . S
H597 C594 0.929 . S
S598 N599 1.613 . S
S598 N600 1.610 . S
N599 S598 1.613 . S
N599 C602 1.350 . S
N600 S598 1.610 . S
N600 C601 1.351 . S
C601 C595 1.428 1_655 S
C601 N600 1.351 . S
C601 C602 1.434 . S
C602 C593 1.429 1_655 S
C602 N599 1.350 . S
C602 C601 1.434 . S
C603 C604 1.369 . S
C603 C605 1.419 . S
C603 H607 0.930 . S
C604 C603 1.369 . S
C604 C613 1.429 1_545 S
C605 C603 1.419 . S
C605 C606 1.363 . S
C605 H608 0.929 . S
C606 C605 1.363 . S
C606 C612 1.428 1_545 S
H607 C603 0.930 . S
H608 C605 0.929 . S
S609 N610 1.613 . S
S609 N611 1.610 . S
N610 S609 1.613 . S
N610 C613 1.350 . S
N611 S609 1.610 . S
N611 C612 1.351 . S
C612 C606 1.428 1_565 S
C612 N611 1.351 . S
C612 C613 1.434 . S
C613 C604 1.429 1_565 S
C613 N610 1.350 . S
C613 C612 1.434 . S
C614 C615 1.369 . S
C614 C616 1.419 . S
C614 H618 0.930 . S
C615 C614 1.369 . S
C615 C624 1.429 . S
C616 C614 1.419 . S
C616 C617 1.363 . S
C616 H619 0.929 . S
C617 C616 1.363 . S
C617 C623 1.428 . S
H618 C614 0.930 . S
H619 C616 0.929 . S
S620 N621 1.613 . S
S620 N622 1.610 . S
N621 S620 1.613 . S
N621 C624 1.350 . S
N622 S620 1.610 . S
N622 C623 1.351 . S
C623 C617 1.428 . S
C623 N622 1.351 . S
C623 C624 1.434 . S
C624 C615 1.429 . S
C624 N621 1.350 . S
C624 C623 1.434 . S
C625 C626 1.369 . S
C625 C627 1.419 . S
C625 H629 0.930 . S
C626 C625 1.369 . S
C626 C635 1.429 . S
C627 C625 1.419 . S
C627 C628 1.363 . S
C627 H630 0.929 . S
C628 C627 1.363 . S
C628 C634 1.428 . S
H629 C625 0.930 . S
H630 C627 0.929 . S
S631 N632 1.613 . S
S631 N633 1.610 . S
N632 S631 1.613 . S
N632 C635 1.350 . S
N633 S631 1.610 . S
N633 C634 1.351 . S
C634 C628 1.428 . S
C634 N633 1.351 . S
C634 C635 1.434 . S
C635 C626 1.429 . S
C635 N632 1.350 . S
C635 C634 1.434 . S
C636 C637 1.369 1_455 S
C636 C638 1.419 . S
C636 H640 0.930 . S
C637 C636 1.369 1_655 S
C637 C646 1.429 . S
C638 C636 1.419 . S
C638 C639 1.363 1_455 S
C638 H641 0.929 . S
C639 C638 1.363 1_655 S
C639 C645 1.428 . S
H640 C636 0.930 . S
H641 C638 0.929 . S
S642 N643 1.613 . S
S642 N644 1.610 . S
N643 S642 1.613 . S
N643 C646 1.350 . S
N644 S642 1.610 . S
N644 C645 1.351 . S
C645 C639 1.428 . S
C645 N644 1.351 . S
C645 C646 1.434 . S
C646 C637 1.429 . S
C646 N643 1.350 . S
C646 C645 1.434 . S
C647 C648 1.369 . S
C647 C649 1.419 . S
C647 H651 0.930 . S
C648 C647 1.369 . S
C648 C657 1.429 1_565 S
C649 C647 1.419 . S
C649 C650 1.363 . S
C649 H652 0.929 . S
C650 C649 1.363 . S
C650 C656 1.428 1_565 S
H651 C647 0.930 . S
H652 C649 0.929 . S
S653 N654 1.613 . S
S653 N655 1.610 . S
N654 S653 1.613 . S
N654 C657 1.350 . S
N655 S653 1.610 . S
N655 C656 1.351 . S
C656 C650 1.428 1_545 S
C656 N655 1.351 . S
C656 C657 1.434 . S
C657 C648 1.429 1_545 S
C657 N654 1.350 . S
C657 C656 1.434 . S
C658 C659 1.369 . S
C658 C660 1.419 . S
C658 H662 0.930 . S
C659 C658 1.369 . S
C659 C668 1.429 . S
C660 C658 1.419 . S
C660 C661 1.363 . S
C660 H663 0.929 . S
C661 C660 1.363 . S
C661 C667 1.428 . S
H662 C658 0.930 . S
H663 C660 0.929 . S
S664 N665 1.613 . S
S664 N666 1.610 . S
N665 S664 1.613 . S
N665 C668 1.350 . S
N666 S664 1.610 . S
N666 C667 1.351 . S
C667 C661 1.428 . S
C667 N666 1.351 . S
C667 C668 1.434 . S
C668 C659 1.429 . S
C668 N665 1.350 . S
C668 C667 1.434 . S
C669 C670 1.369 . S
C669 C671 1.419 . S
C669 H673 0.930 . S
C670 C669 1.369 . S
C670 C679 1.429 . S
C671 C669 1.419 . S
C671 C672 1.363 . S
C671 H674 0.929 . S
C672 C671 1.363 . S
C672 C678 1.428 . S
H673 C669 0.930 . S
H674 C671 0.929 . S
S675 N676 1.613 . S
S675 N677 1.610 . S
N676 S675 1.613 . S
N676 C679 1.350 . S
N677 S675 1.610 . S
N677 C678 1.351 . S
C678 C672 1.428 . S
C678 N677 1.351 . S
C678 C679 1.434 . S
C679 C670 1.429 . S
C679 N676 1.350 . S
C679 C678 1.434 . S
C417 C215 2.315 . S
C419 C266 2.591 1_545 S
C430 C306 2.600 . S
C428 C247 2.307 . S
C441 C346 2.601 . S
C439 C151 2.318 . S
C452 C386 2.593 1_455 S
C450 C183 2.322 . S
C463 C275 2.592 1_564 S
C461 C87 2.318 1_565 S
C472 C119 2.340 . S
C474 C315 2.601 1_554 S
C483 C23 2.339 . S
C485 C355 2.601 1_554 S
C494 C55 2.323 1_655 S
C496 C395 2.592 1_654 S
C507 C272 0.803 . S
C505 C189 0.842 1_655 S
C518 C312 0.795 . S
C516 C221 0.848 1_565 S
C529 C352 0.805 . S
C527 C253 0.817 . S
C538 C157 0.832 . S
C540 C392 0.789 . S
C549 C61 0.795 . S
C551 C263 0.805 . S
C562 C303 0.800 . S
C560 C93 0.797 . S
C573 C343 0.786 . S
C571 C125 0.795 . S
C582 C29 0.793 . S
C584 C383 0.792 . S
C593 C177 2.809 . S
C595 C267 3.241 . S
C604 C209 2.793 . S
C606 C307 3.229 . S
C617 C347 3.225 . S
C615 C241 2.779 . S
C628 C387 3.240 . S
C626 C145 2.796 . S
C637 C49 2.850 1_655 S
C639 C258 3.251 . S
C650 C298 3.229 . S
C648 C81 2.834 1_565 S
C661 C338 3.224 . S
C659 C113 2.842 . S
C670 C17 2.855 . S
C672 C378 3.247 . S
