# Generated by pormake.
# Topology apo, (3,6)-cn, num edge types: 1
# Building blocks:
#     Node 0, Type 0, BuildingBlock: KAKCAD_clean_linker_0, # of connection points: 3
#     Node 1, Type 0, BuildingBlock: KAKCAD_clean_linker_0, # of connection points: 3
#     Node 2, Type 0, BuildingBlock: KAKCAD_clean_linker_0, # of connection points: 3
#     Node 3, Type 0, BuildingBlock: KAKCAD_clean_linker_0, # of connection points: 3
#     Node 4, Type 0, BuildingBlock: KAKCAD_clean_linker_0, # of connection points: 3
#     Node 5, Type 0, BuildingBlock: KAKCAD_clean_linker_0, # of connection points: 3
#     Node 6, Type 0, BuildingBlock: KAKCAD_clean_linker_0, # of connection points: 3
#     Node 7, Type 0, BuildingBlock: KAKCAD_clean_linker_0, # of connection points: 3
#     Node 8, Type 1, BuildingBlock: KUMBUR_clean_sbu_1, # of connection points: 6
#     Node 9, Type 1, BuildingBlock: KUMBUR_clean_sbu_1, # of connection points: 6
#     Node 10, Type 1, BuildingBlock: KUMBUR_clean_sbu_1, # of connection points: 6
#     Node 11, Type 1, BuildingBlock: KUMBUR_clean_sbu_1, # of connection points: 6
#     Edge 12, Type (0, 1), BuildingBlock: OJICUG_clean_linker_0, # of connection points: 2
#     Edge 13, Type (0, 1), BuildingBlock: OJICUG_clean_linker_0, # of connection points: 2
#     Edge 14, Type (0, 1), BuildingBlock: OJICUG_clean_linker_0, # of connection points: 2
#     Edge 15, Type (0, 1), BuildingBlock: OJICUG_clean_linker_0, # of connection points: 2
#     Edge 16, Type (0, 1), BuildingBlock: OJICUG_clean_linker_0, # of connection points: 2
#     Edge 17, Type (0, 1), BuildingBlock: OJICUG_clean_linker_0, # of connection points: 2
#     Edge 18, Type (0, 1), BuildingBlock: OJICUG_clean_linker_0, # of connection points: 2
#     Edge 19, Type (0, 1), BuildingBlock: OJICUG_clean_linker_0, # of connection points: 2
#     Edge 20, Type (0, 1), BuildingBlock: OJICUG_clean_linker_0, # of connection points: 2
#     Edge 21, Type (0, 1), BuildingBlock: OJICUG_clean_linker_0, # of connection points: 2
#     Edge 22, Type (0, 1), BuildingBlock: OJICUG_clean_linker_0, # of connection points: 2
#     Edge 23, Type (0, 1), BuildingBlock: OJICUG_clean_linker_0, # of connection points: 2
#     Edge 24, Type (0, 1), BuildingBlock: OJICUG_clean_linker_0, # of connection points: 2
#     Edge 25, Type (0, 1), BuildingBlock: OJICUG_clean_linker_0, # of connection points: 2
#     Edge 26, Type (0, 1), BuildingBlock: OJICUG_clean_linker_0, # of connection points: 2
#     Edge 27, Type (0, 1), BuildingBlock: OJICUG_clean_linker_0, # of connection points: 2
#     Edge 28, Type (0, 1), BuildingBlock: OJICUG_clean_linker_0, # of connection points: 2
#     Edge 29, Type (0, 1), BuildingBlock: OJICUG_clean_linker_0, # of connection points: 2
#     Edge 30, Type (0, 1), BuildingBlock: OJICUG_clean_linker_0, # of connection points: 2
#     Edge 31, Type (0, 1), BuildingBlock: OJICUG_clean_linker_0, # of connection points: 2
#     Edge 32, Type (0, 1), BuildingBlock: OJICUG_clean_linker_0, # of connection points: 2
#     Edge 33, Type (0, 1), BuildingBlock: OJICUG_clean_linker_0, # of connection points: 2
#     Edge 34, Type (0, 1), BuildingBlock: OJICUG_clean_linker_0, # of connection points: 2
#     Edge 35, Type (0, 1), BuildingBlock: OJICUG_clean_linker_0, # of connection points: 2
# Relax obj value: 0.008
# Max RMSD: 0.113
# Mean RMSD: 0.086
data_MOF--net-apo--node1-KUMBUR_clean_sbu_1--node2-KAKCAD_clean_linker_0--edge1-OJICUG_clean_linker_0
_symmetry_space_group_name_H-M    P1
_symmetry_Int_Tables_number       1
_symmetry_cell_setting            triclinic
loop_
_symmetry_equiv_pos_as_xyz
'x, y, z'
_cell_length_a     23.108336
_cell_length_b     40.535363
_cell_length_c     51.349804
_cell_angle_alpha  89.838636
_cell_angle_beta   90.052332
_cell_angle_gamma 90.389149
loop_
_atom_site_label
_atom_site_type_symbol
_atom_site_fract_x
_atom_site_fract_y
_atom_site_fract_z
_atom_type_partial_charge
C0 C 0.32346 0.47608 0.3466 0.0
C1 C 0.37852 0.48962 0.3516 0.0
C2 C 0.30277 0.44928 0.3611 0.0
C3 C 0.33667 0.43521 0.38094 0.0
C4 C 0.39153 0.44898 0.38615 0.0
C5 C 0.41216 0.47592 0.37168 0.0
C6 C 0.31484 0.4062 0.396 0.0
C7 C 0.28401 0.38086 0.38342 0.0
C8 C 0.26141 0.35381 0.39742 0.0
C9 C 0.2716 0.3519 0.42444 0.0
C10 C 0.30308 0.37682 0.43744 0.0
C11 C 0.32402 0.40395 0.42299 0.0
C12 C 0.31269 0.37539 0.46621 0.0
C13 C 0.26888 0.36405 0.48311 0.0
C14 C 0.36495 0.38693 0.47711 0.0
C15 C 0.37211 0.38863 0.50412 0.0
C16 C 0.32753 0.37842 0.52094 0.0
C17 C 0.22694 0.3279 0.38361 0.0
C18 C 0.1888 0.33662 0.36338 0.0
C19 C 0.23245 0.29433 0.39009 0.0
C20 C 0.20135 0.27014 0.37643 0.0
C21 C 0.16414 0.27886 0.35582 0.0
C22 C 0.15814 0.31247 0.3496 0.0
C23 C 0.27634 0.36542 0.51016 0.0
H24 H 0.29606 0.48641 0.33156 0.0
H25 H 0.25986 0.43978 0.35691 0.0
H26 H 0.41908 0.43854 0.40107 0.0
H27 H 0.45502 0.48553 0.37583 0.0
H28 H 0.27841 0.38195 0.36249 0.0
H29 H 0.34603 0.42398 0.4329 0.0
H30 H 0.25465 0.33113 0.4354 0.0
H31 H 0.22782 0.35535 0.47552 0.0
H32 H 0.40022 0.39513 0.46476 0.0
H33 H 0.41232 0.39839 0.51188 0.0
H34 H 0.18254 0.36223 0.35809 0.0
H35 H 0.26166 0.2866 0.4054 0.0
H36 H 0.24095 0.35771 0.52264 0.0
H37 H 0.13057 0.32024 0.3337 0.0
H38 H 0.20653 0.24458 0.38209 0.0
C39 C 0.18508 0.03657 0.8479 0.0
C40 C 0.13132 0.02186 0.85343 0.0
C41 C 0.20579 0.06268 0.86303 0.0
C42 C 0.17281 0.07508 0.88382 0.0
C43 C 0.11906 0.06012 0.88941 0.0
C44 C 0.09872 0.03366 0.87447 0.0
C45 C 0.19426 0.10374 0.89931 0.0
C46 C 0.2249 0.12944 0.88706 0.0
C47 C 0.24751 0.15606 0.90137 0.0
C48 C 0.23689 0.15758 0.92832 0.0
C49 C 0.20541 0.13235 0.94102 0.0
C50 C 0.18496 0.10538 0.92631 0.0
C51 C 0.19539 0.13323 0.96972 0.0
C52 C 0.23889 0.14436 0.98685 0.0
C53 C 0.14305 0.12136 0.98033 0.0
C54 C 0.13556 0.1191 1.00729 0.0
C55 C 0.17986 0.12907 0.02433 0.0
C56 C 0.28271 0.18178 0.88783 0.0
C57 C 0.32245 0.17265 0.86845 0.0
C58 C 0.27577 0.21546 0.89338 0.0
C59 C 0.3066 0.23944 0.8793 0.0
C60 C 0.34503 0.23027 0.85936 0.0
C61 C 0.35295 0.19653 0.85434 0.0
C62 C 0.23109 0.14243 0.01385 0.0
H63 H 0.21145 0.02761 0.83202 0.0
H64 H 0.24796 0.07298 0.85849 0.0
H65 H 0.0921 0.06924 0.90502 0.0
H66 H 0.05689 0.02288 0.879 0.0
H67 H 0.23064 0.12899 0.86613 0.0
H68 H 0.16323 0.08507 0.93605 0.0
H69 H 0.2536 0.17824 0.93941 0.0
H70 H 0.27999 0.1533 0.97947 0.0
H71 H 0.10802 0.11332 0.96779 0.0
H72 H 0.09535 0.10906 0.01484 0.0
H73 H 0.32965 0.14691 0.86397 0.0
H74 H 0.24539 0.22335 0.90811 0.0
H75 H 0.26624 0.14997 0.02652 0.0
H76 H 0.38159 0.18847 0.83898 0.0
H77 H 0.30001 0.26518 0.88395 0.0
C78 C 0.81007 0.03364 0.67834 0.0
C79 C 0.86556 0.0205 0.67494 0.0
C80 C 0.79063 0.05923 0.66236 0.0
C81 C 0.82644 0.0726 0.64274 0.0
C82 C 0.88167 0.05911 0.63908 0.0
C83 C 0.90098 0.03334 0.65499 0.0
C84 C 0.80719 0.10168 0.62728 0.0
C85 C 0.77715 0.12708 0.63979 0.0
C86 C 0.75806 0.15479 0.626 0.0
C87 C 0.77032 0.15748 0.59937 0.0
C88 C 0.79964 0.13217 0.58611 0.0
C89 C 0.8184 0.10439 0.60035 0.0
C90 C 0.80871 0.13478 0.55736 0.0
C91 C 0.76579 0.14908 0.54157 0.0
C92 C 0.86027 0.1241 0.54548 0.0
C93 C 0.86929 0.12877 0.51865 0.0
C94 C 0.82723 0.14454 0.50339 0.0
C95 C 0.72393 0.18037 0.63958 0.0
C96 C 0.67826 0.17094 0.65607 0.0
C97 C 0.73729 0.21405 0.63673 0.0
C98 C 0.7067 0.23776 0.65082 0.0
C99 C 0.66198 0.22819 0.6679 0.0
C100 C 0.64754 0.19454 0.66998 0.0
C101 C 0.77517 0.15417 0.51505 0.0
H102 H 0.78139 0.02387 0.6932 0.0
H103 H 0.74738 0.06859 0.66541 0.0
H104 H 0.9106 0.06906 0.62441 0.0
H105 H 0.94421 0.0239 0.65201 0.0
H106 H 0.76935 0.12565 0.66058 0.0
H107 H 0.84003 0.08445 0.59039 0.0
H108 H 0.75611 0.17922 0.5889 0.0
H109 H 0.72477 0.15663 0.54972 0.0
H110 H 0.89436 0.11308 0.55699 0.0
H111 H 0.90979 0.12113 0.51003 0.0
H112 H 0.6663 0.14518 0.65824 0.0
H113 H 0.77249 0.22197 0.62422 0.0
H114 H 0.74165 0.16587 0.50358 0.0
H115 H 0.61248 0.18637 0.68246 0.0
H116 H 0.71925 0.26344 0.64894 0.0
C117 C 0.68919 0.47376 0.18046 0.0
C118 C 0.63614 0.48863 0.17458 0.0
C119 C 0.7099 0.44792 0.16522 0.0
C120 C 0.67748 0.4358 0.144 0.0
C121 C 0.62449 0.45103 0.138 0.0
C122 C 0.60427 0.47733 0.15303 0.0
C123 C 0.69855 0.40696 0.12873 0.0
C124 C 0.72861 0.38147 0.14138 0.0
C125 C 0.75072 0.35461 0.12748 0.0
C126 C 0.74086 0.3527 0.10054 0.0
C127 C 0.71044 0.37773 0.08736 0.0
C128 C 0.68956 0.40479 0.10164 0.0
C129 C 0.70185 0.37592 0.0586 0.0
C130 C 0.74688 0.36521 0.04238 0.0
C131 C 0.64863 0.38447 0.04715 0.0
C132 C 0.64043 0.3818 0.02017 0.0
C133 C 0.68538 0.3707 1.004 0.0
C134 C 0.78503 0.32907 0.14136 0.0
C135 C 0.82721 0.33857 0.15964 0.0
C136 C 0.77511 0.29526 0.13707 0.0
C137 C 0.80553 0.27151 0.15137 0.0
C138 C 0.84668 0.28109 0.17018 0.0
C139 C 0.85769 0.31492 0.17381 0.0
C140 C 0.73875 0.36259 0.0155 0.0
H141 H 0.71504 0.48239 0.19672 0.0
H142 H 0.75161 0.43757 0.17008 0.0
H143 H 0.59794 0.44221 0.12206 0.0
H144 H 0.56305 0.48835 0.14817 0.0
H145 H 0.73427 0.38218 0.16232 0.0
H146 H 0.66792 0.42465 0.09149 0.0
H147 H 0.75741 0.33182 0.0898 0.0
H148 H 0.78867 0.35885 0.05045 0.0
H149 H 0.6129 0.39262 0.05909 0.0
H150 H 0.59889 0.38844 0.01199 0.0
H151 H 0.83668 0.36442 0.16302 0.0
H152 H 0.74262 0.28719 0.12322 0.0
H153 H 0.77411 0.35345 1.0038 0.0
H154 H 0.88998 0.32321 0.18767 0.0
H155 H 0.79556 0.24569 0.14823 0.0
C156 C 0.63379 0.55041 0.68292 0.0
C157 C 0.64439 0.51762 0.67558 0.0
C158 C 0.65594 0.57666 0.66824 0.0
C159 C 0.68903 0.57076 0.64579 0.0
C160 C 0.69937 0.53798 0.63833 0.0
C161 C 0.6775 0.51168 0.65314 0.0
C162 C 0.71403 0.59877 0.63071 0.0
C163 C 0.7405 0.62519 0.64379 0.0
C164 C 0.76535 0.65159 0.62999 0.0
C165 C 0.76379 0.65142 0.60261 0.0
C166 C 0.73636 0.62548 0.58898 0.0
C167 C 0.71174 0.59921 0.60335 0.0
C168 C 0.73272 0.62592 0.55989 0.0
C169 C 0.72547 0.65577 0.54619 0.0
C170 C 0.7359 0.59643 0.54551 0.0
C171 C 0.7316 0.59677 0.51833 0.0
C172 C 0.72491 0.62662 0.50475 0.0
C173 C 0.79301 0.67914 0.64449 0.0
C174 C 0.76397 0.69383 0.66547 0.0
C175 C 0.84925 0.68994 0.6383 0.0
C176 C 0.87646 0.71437 0.65326 0.0
C177 C 0.84757 0.7288 0.67442 0.0
C178 C 0.79082 0.71853 0.68018 0.0
C179 C 0.72205 0.65613 0.51896 0.0
H180 H 0.60882 0.55581 0.70022 0.0
H181 H 0.64688 0.60163 0.67439 0.0
H182 H 0.72516 0.53267 0.62126 0.0
H183 H 0.68591 0.48669 0.64685 0.0
H184 H 0.74316 0.62483 0.66488 0.0
H185 H 0.68932 0.5794 0.59334 0.0
H186 H 0.78376 0.67164 0.59202 0.0
H187 H 0.72161 0.67893 0.55647 0.0
H188 H 0.74258 0.573 0.5552 0.0
H189 H 0.73478 0.57368 0.50786 0.0
H190 H 0.72046 0.68609 0.67058 0.0
H191 H 0.87271 0.67888 0.62233 0.0
H192 H 0.71637 0.67949 0.50902 0.0
H193 H 0.76765 0.72907 0.69646 0.0
H194 H 0.92009 0.72203 0.64828 0.0
C195 C 0.72202 0.87793 0.012 0.0
C196 C 0.77401 0.88587 0.99901 0.0
C197 C 0.71921 0.87773 0.03926 0.0
C198 C 0.76807 0.88589 0.05429 0.0
C199 C 0.82007 0.89372 0.04142 0.0
C200 C 0.82311 0.89353 0.01418 0.0
C201 C 0.76461 0.88684 0.08326 0.0
C202 C 0.73749 0.86106 0.09725 0.0
C203 C 0.73497 0.86175 0.12464 0.0
C204 C 0.7583 0.88906 0.13789 0.0
C205 C 0.78487 0.91518 0.12433 0.0
C206 C 0.78847 0.91368 0.09703 0.0
C207 C 0.80898 0.94382 0.13892 0.0
C208 C 0.77727 0.95821 0.15927 0.0
C209 C 0.86445 0.9563 0.13324 0.0
C210 C 0.88821 0.98206 0.14799 0.0
C211 C 0.85678 0.99612 0.16858 0.0
C212 C 0.70912 0.8339 0.13975 0.0
C213 C 0.65559 0.81989 0.13263 0.0
C214 C 0.73734 0.82184 0.16207 0.0
C215 C 0.71237 0.79678 0.17713 0.0
C216 C 0.65837 0.78312 0.17035 0.0
C217 C 0.63031 0.79489 0.14785 0.0
C218 C 0.80079 0.98412 0.17385 0.0
H219 H 0.68294 0.87248 1.00116 0.0
H220 H 0.67834 0.87196 0.04859 0.0
H221 H 0.8587 0.89968 0.05245 0.0
H222 H 0.86426 0.8991 1.00506 0.0
H223 H 0.72004 0.83998 0.08687 0.0
H224 H 0.80844 0.93392 0.08643 0.0
H225 H 0.75602 0.88991 0.15897 0.0
H226 H 0.73419 0.94934 0.16396 0.0
H227 H 0.89006 0.94562 0.11779 0.0
H228 H 0.93125 0.99098 0.14329 0.0
H229 H 0.63266 0.82876 0.11561 0.0
H230 H 0.77892 0.83185 0.16795 0.0
H231 H 0.77562 0.99425 0.18968 0.0
H232 H 0.58892 0.78467 0.14196 0.0
H233 H 0.73495 0.78853 0.19444 0.0
C234 C 0.12003 0.95485 0.34343 0.0
C235 C 0.12569 0.98692 0.35356 0.0
C236 C 0.13901 0.92759 0.35763 0.0
C237 C 0.16377 0.93161 0.38242 0.0
C238 C 0.16819 0.96351 0.39292 0.0
C239 C 0.14951 0.99091 0.3786 0.0
C240 C 0.18604 0.90252 0.39682 0.0
C241 C 0.21937 0.87894 0.38374 0.0
C242 C 0.23979 0.85085 0.39675 0.0
C243 C 0.2264 0.84636 0.42317 0.0
C244 C 0.19252 0.86946 0.43658 0.0
C245 C 0.17313 0.89775 0.42332 0.0
C246 C 0.176 0.86332 0.46415 0.0
C247 C 0.15804 0.83169 0.47218 0.0
C248 C 0.17833 0.88881 0.48263 0.0
C249 C 0.1639 0.88262 0.50866 0.0
C250 C 0.14647 0.85088 0.51672 0.0
C251 C 0.2739 0.82583 0.38251 0.0
C252 C 0.25525 0.81455 0.35805 0.0
C253 C 0.32505 0.81301 0.39324 0.0
C254 C 0.35712 0.78951 0.37965 0.0
C255 C 0.33821 0.7781 0.35524 0.0
C256 C 0.28691 0.79083 0.34461 0.0
C257 C 0.14342 0.82555 0.49814 0.0
H258 H 0.10055 0.95072 0.32452 0.0
H259 H 0.13403 0.90324 0.34923 0.0
H260 H 0.18746 0.96734 0.41192 0.0
H261 H 0.15497 0.01526 0.38692 0.0
H262 H 0.23025 0.8827 0.36341 0.0
H263 H 0.14612 0.91541 0.43333 0.0
H264 H 0.2418 0.82457 0.43323 0.0
H265 H 0.15502 0.81163 0.45835 0.0
H266 H 0.19223 0.9134 0.47706 0.0
H267 H 0.16614 0.90275 0.52246 0.0
H268 H 0.21575 0.82381 0.34941 0.0
H269 H 0.34057 0.82143 0.41201 0.0
H270 H 0.1307 0.80076 0.50373 0.0
H271 H 0.27158 0.78271 0.32573 0.0
H272 H 0.39633 0.77997 0.38836 0.0
C273 C 0.29174 0.6547 1.00398 0.0
C274 C 0.3442 0.64511 0.01559 0.0
C275 C 0.28381 0.65225 0.97712 0.0
C276 C 0.32801 0.64 0.96117 0.0
C277 C 0.38068 0.63062 0.97265 0.0
C278 C 0.38873 0.6332 0.99958 0.0
C279 C 0.3183 0.63627 0.93274 0.0
C280 C 0.29032 0.66119 0.91852 0.0
C281 C 0.27862 0.6573 0.89185 0.0
C282 C 0.29544 0.62808 0.87944 0.0
C283 C 0.3235 0.6029 0.89331 0.0
C284 C 0.33502 0.60727 0.91995 0.0
C285 C 0.3402 0.572 0.8799 0.0
C286 C 0.30247 0.55711 0.86186 0.0
C287 C 0.39447 0.55765 0.88449 0.0
C288 C 0.41124 0.52953 0.87082 0.0
C289 C 0.3741 0.51522 0.85226 0.0
C290 C 0.24784 0.68337 0.877 0.0
C291 C 0.20037 0.69975 0.888 0.0
C292 C 0.26478 0.6915 0.85146 0.0
C293 C 0.2345 0.71513 0.83715 0.0
C294 C 0.18677 0.73128 0.8481 0.0
C295 C 0.17024 0.72348 0.87373 0.0
C296 C 0.31928 0.52907 0.84817 0.0
H297 H 0.256 0.66327 0.01574 0.0
H298 H 0.24239 0.65913 0.96892 0.0
H299 H 0.41575 0.62142 0.96079 0.0
H300 H 0.42987 0.62594 1.00784 0.0
H301 H 0.27835 0.68388 0.92818 0.0
H302 H 0.35521 0.58758 0.93094 0.0
H303 H 0.28633 0.62481 0.85891 0.0
H304 H 0.25987 0.56716 0.85829 0.0
H305 H 0.4247 0.56872 0.89809 0.0
H306 H 0.45402 0.51962 0.87418 0.0
H307 H 0.18564 0.69371 0.90747 0.0
H308 H 0.30174 0.67974 0.84256 0.0
H309 H 0.28937 0.51826 0.8343 0.0
H310 H 0.13319 0.73523 0.88257 0.0
H311 H 0.2488 0.721 0.81758 0.0
Tb312 Tb 0.07396 0.13842 0.24051 0.0
C313 C 0.81239 0.1139 0.26295 0.0
N314 N 0.84254 0.14281 0.26303 0.0
C315 C 0.76662 0.16895 0.23884 0.0
C316 C 0.75854 0.11119 0.25019 0.0
C317 C 0.82003 0.17036 0.25162 0.0
C318 C 0.73582 0.1392 0.23801 0.0
C319 C 0.80786 0.05593 0.27454 0.0
C320 C 0.83712 0.08658 0.27479 0.0
C321 C 0.75426 0.05305 0.26179 0.0
C322 C 0.72965 0.08061 0.24965 0.0
Tb323 Tb 0.92903 0.14231 0.28459 0.0
N324 N 0.88989 0.09009 0.28639 0.0
C325 C 0.83303 0.02917 0.28739 0.0
C326 C 0.91207 0.06465 0.30066 0.0
C327 C 0.88488 0.03372 0.30086 0.0
H328 H 0.84242 0.19367 0.25302 0.0
H329 H 0.9034 0.01358 0.31188 0.0
H330 H 0.16737 0.09787 0.27711 0.0
H331 H 0.08134 0.26167 0.1987 0.0
H332 H 0.94924 0.06806 0.31282 0.0
H333 H 0.81194 0.00522 0.2877 0.0
H334 H 0.04681 0.20467 0.20235 0.0
H335 H 0.74907 0.19086 0.22979 0.0
H336 H 0.73134 0.02965 0.2613 0.0
H337 H 0.68833 0.078 0.23986 0.0
H338 H 0.25951 0.10964 0.29989 0.0
H339 H 0.69455 0.13815 0.22801 0.0
H340 H 0.16578 0.28028 0.22449 0.0
N341 N 0.15899 0.14657 0.26223 0.0
C342 C 0.18298 0.17717 0.26015 0.0
C343 C 0.23831 0.12888 0.28886 0.0
C344 C 0.23525 0.18505 0.27292 0.0
C345 C 0.18604 0.12231 0.27606 0.0
C346 C 0.26293 0.16041 0.28738 0.0
N347 N 0.10358 0.19202 0.23359 0.0
C348 C 0.08019 0.21286 0.21548 0.0
C349 C 0.17715 0.2329 0.24329 0.0
C350 C 0.15368 0.20082 0.24583 0.0
C351 C 0.14915 0.25542 0.22701 0.0
C352 C 0.10122 0.24509 0.21259 0.0
H353 H 0.30319 0.16549 0.29748 0.0
H354 H 0.29758 0.2239 0.28097 0.0
H355 H 0.24704 0.26572 0.2548 0.0
O356 O 0.08856 0.13805 0.1995 0.0
O357 O 0.08005 0.15902 0.28006 0.0
O358 O 0.9917 0.18306 0.2873 0.0
O359 O 0.13899 0.10777 0.22597 0.0
O360 O 0.99593 0.16208 0.22446 0.0
O361 O 0.95127 0.18488 0.26028 0.0
O362 O 0.9157 0.13776 0.32577 0.0
O363 O 0.92307 0.11893 0.24587 0.0
O364 O 0.01317 0.09691 0.23881 0.0
O365 O 0.86742 0.17243 0.30192 0.0
O366 O 0.0043 0.11612 0.30096 0.0
O367 O 0.05574 0.09594 0.26561 0.0
C368 C 0.04764 0.18106 0.2916 0.0
C369 C 0.1637 0.10279 0.18033 0.0
C370 C 0.18545 0.09817 0.13393 0.0
C371 C 0.22485 0.07292 0.13957 0.0
C372 C 0.20387 0.07768 0.18546 0.0
C373 C 0.23423 0.06294 0.1652 0.0
C374 C 0.15514 0.11333 0.15442 0.0
C375 C 0.96121 0.18395 0.23507 0.0
C376 C 0.12975 0.11657 0.20208 0.0
C377 C 0.25768 0.21726 0.27114 0.0
C378 C 0.2287 0.24112 0.25636 0.0
C379 C 0.95721 0.09752 0.23451 0.0
C380 C 0.84123 0.17179 0.34737 0.0
C381 C 0.82183 0.1756 0.39415 0.0
C382 C 0.77373 0.19556 0.38856 0.0
C383 C 0.79305 0.19192 0.34256 0.0
C384 C 0.8553 0.16335 0.37332 0.0
C385 C 0.75959 0.20359 0.36301 0.0
C386 C 0.04188 0.09555 0.29052 0.0
C387 C 0.87556 0.16015 0.32492 0.0
H388 H 0.2487 0.06105 0.12408 0.0
H389 H 0.21144 0.06907 0.20515 0.0
H390 H 0.26484 0.04352 0.16936 0.0
H391 H 0.12424 0.13259 0.15011 0.0
H392 H 0.7464 0.20472 0.40404 0.0
H393 H 0.78085 0.19863 0.32287 0.0
H394 H 0.89242 0.14795 0.3773 0.0
H395 H 0.72242 0.21892 0.35902 0.0
Tb396 Tb 0.43022 0.36616 0.73804 0.0
C397 C 0.69454 0.38564 0.76501 0.0
N398 N 0.6621 0.35756 0.76512 0.0
C399 C 0.73821 0.32866 0.74333 0.0
C400 C 0.74983 0.38652 0.75345 0.0
C401 C 0.68353 0.32906 0.75496 0.0
C402 C 0.77141 0.35756 0.74243 0.0
C403 C 0.70304 0.44368 0.77574 0.0
C404 C 0.67129 0.41386 0.77593 0.0
C405 C 0.75814 0.44473 0.76422 0.0
C406 C 0.78147 0.41622 0.7531 0.0
Tb407 Tb 0.5732 0.36123 0.78425 0.0
N408 N 0.61697 0.41214 0.78617 0.0
C409 C 0.67849 0.47153 0.78719 0.0
C410 C 0.59441 0.43883 0.79863 0.0
C411 C 0.62424 0.46896 0.79895 0.0
H412 H 0.65922 0.30638 0.75654 0.0
H413 H 0.60564 0.4901 0.80859 0.0
H414 H 0.33213 0.40432 0.77343 0.0
H415 H 0.43302 0.24353 0.69567 0.0
H416 H 0.55432 0.43712 0.80901 0.0
H417 H 0.70147 0.49492 0.78748 0.0
H418 H 0.46337 0.30122 0.69987 0.0
H419 H 0.75487 0.30599 0.73524 0.0
H420 H 0.78309 0.46746 0.76383 0.0
H421 H 0.824 0.41742 0.74426 0.0
H422 H 0.2392 0.39041 0.79484 0.0
H423 H 0.81373 0.35719 0.73337 0.0
H424 H 0.34858 0.22274 0.72046 0.0
N425 N 0.34438 0.356 0.75852 0.0
C426 C 0.32258 0.32493 0.75614 0.0
C427 C 0.26231 0.37176 0.78407 0.0
C428 C 0.27012 0.31581 0.76821 0.0
C429 C 0.31491 0.37955 0.772 0.0
C430 C 0.23991 0.33972 0.78227 0.0
N431 N 0.40454 0.31207 0.73064 0.0
C432 C 0.43011 0.29206 0.71267 0.0
C433 C 0.3331 0.26957 0.73928 0.0
C434 C 0.35433 0.30207 0.74221 0.0
C435 C 0.36345 0.24789 0.72327 0.0
C436 C 0.4114 0.25944 0.70942 0.0
H437 H 0.19939 0.3337 0.79182 0.0
H438 H 0.20989 0.2756 0.77538 0.0
H439 H 0.26468 0.23518 0.74979 0.0
O440 O 0.41566 0.36645 0.69701 0.0
O441 O 0.42191 0.34542 0.77754 0.0
O442 O 0.50968 0.32105 0.78343 0.0
O443 O 0.36592 0.39724 0.72314 0.0
O444 O 0.51065 0.34519 0.72229 0.0
O445 O 0.55131 0.32051 0.75826 0.0
O446 O 0.57793 0.36497 0.82579 0.0
O447 O 0.58135 0.3883 0.74709 0.0
O448 O 0.49009 0.40815 0.73735 0.0
O449 O 0.63062 0.33042 0.80392 0.0
O450 O 0.49809 0.38826 0.79947 0.0
O451 O 0.44501 0.408 0.76406 0.0
C452 C 0.45505 0.3242 0.78965 0.0
C453 C 0.34132 0.40203 0.67738 0.0
C454 C 0.32052 0.40701 0.63084 0.0
C455 C 0.28061 0.43201 0.63633 0.0
C456 C 0.30064 0.42689 0.68232 0.0
C457 C 0.27051 0.44167 0.66192 0.0
C458 C 0.35061 0.39179 0.65147 0.0
C459 C 0.54579 0.32348 0.7329 0.0
C460 C 0.37494 0.38821 0.69934 0.0
C461 C 0.24993 0.28318 0.7661 0.0
C462 C 0.28134 0.26012 0.75166 0.0
C463 C 0.54682 0.40945 0.7355 0.0
C464 C 0.64416 0.32872 0.85053 0.0
C465 C 0.66805 0.33191 0.89682 0.0
C466 C 0.69959 0.3026 0.89463 0.0
C467 C 0.67588 0.29928 0.84895 0.0
C468 C 0.63981 0.34493 0.87474 0.0
C469 C 0.7032 0.28634 0.87086 0.0
C470 C 0.46005 0.40854 0.78888 0.0
C471 C 0.61703 0.34196 0.82659 0.0
H472 H 0.25694 0.44393 0.62073 0.0
H473 H 0.29246 0.43526 0.70199 0.0
H474 H 0.2395 0.46089 0.66595 0.0
H475 H 0.3819 0.37273 0.64729 0.0
H476 H 0.72148 0.29229 0.91143 0.0
H477 H 0.67971 0.28613 0.83069 0.0
H478 H 0.61573 0.36768 0.87633 0.0
H479 H 0.72752 0.26369 0.86938 0.0
Tb480 Tb 0.07089 0.87249 0.73754 0.0
C481 C 0.83157 0.82641 0.77598 0.0
N482 N 0.85225 0.85754 0.77257 0.0
C483 C 0.76599 0.8723 0.74942 0.0
C484 C 0.77786 0.8166 0.76546 0.0
C485 C 0.81986 0.88076 0.76003 0.0
C486 C 0.74505 0.84002 0.75198 0.0
C487 C 0.84581 0.77162 0.79356 0.0
C488 C 0.86532 0.80429 0.78965 0.0
C489 C 0.79284 0.76139 0.78266 0.0
C490 C 0.7589 0.78385 0.76866 0.0
Tb491 Tb 0.94015 0.86909 0.79078 0.0
N492 N 0.91632 0.81516 0.79983 0.0
C493 C 0.87942 0.75049 0.80882 0.0
C494 C 0.94664 0.79536 0.81647 0.0
C495 C 0.92956 0.7626 0.82069 0.0
H496 H 0.83525 0.90586 0.75835 0.0
H497 H 0.95449 0.74693 0.83352 0.0
H498 H 0.1649 0.81457 0.75712 0.0
H499 H 0.11283 0.99842 0.70962 0.0
H500 H 0.98293 0.80485 0.82733 0.0
H501 H 0.86599 0.7252 0.81232 0.0
H502 H 0.05802 0.94562 0.71072 0.0
H503 H 0.74061 0.89069 0.73933 0.0
H504 H 0.77733 0.73632 0.7853 0.0
H505 H 0.71792 0.77572 0.76056 0.0
H506 H 0.25813 0.81298 0.7802 0.0
H507 H 0.70346 0.83351 0.74362 0.0
H508 H 0.20494 0.0037 0.73404 0.0
N509 N 0.16021 0.86706 0.75672 0.0
C510 C 0.19123 0.89546 0.7594 0.0
C511 C 0.23928 0.83646 0.77496 0.0
C512 C 0.24636 0.8957 0.77119 0.0
C513 C 0.18543 0.83751 0.76253 0.0
C514 C 0.26938 0.86578 0.77984 0.0
N515 N 0.1176 0.92215 0.73612 0.0
C516 C 0.09803 0.94796 0.72145 0.0
C517 C 0.20249 0.95332 0.74821 0.0
C518 C 0.16984 0.92386 0.74814 0.0
C519 C 0.18106 0.98061 0.73456 0.0
C520 C 0.12905 0.97774 0.72075 0.0
H521 H 0.31156 0.86487 0.78904 0.0
H522 H 0.31997 0.9262 0.782 0.0
H523 H 0.28149 0.97672 0.76182 0.0
O524 O 0.0526 0.87695 0.69755 0.0
O525 O 0.05857 0.91448 0.76414 0.0
O526 O 0.02577 0.88827 0.8005 0.0
O527 O 0.13227 0.85576 0.71045 0.0
O528 O 0.98667 0.89329 0.72751 0.0
O529 O 0.94206 0.91291 0.76498 0.0
O530 O 0.91579 0.86438 0.82996 0.0
O531 O 0.92809 0.84855 0.75146 0.0
O532 O 0.01688 0.82784 0.73998 0.0
O533 O 0.8959 0.90849 0.80877 0.0
O534 O 0.02493 0.84817 0.80131 0.0
O535 O 0.06577 0.82887 0.76314 0.0
C536 C 0.04988 0.91386 0.78937 0.0
C537 C 0.09376 0.8367 0.67074 0.0
C538 C 0.09705 0.82052 0.62501 0.0
C539 C 0.08061 0.78829 0.6323 0.0
C540 C 0.07816 0.80441 0.67768 0.0
C541 C 0.07123 0.78037 0.65849 0.0
C542 C 0.10306 0.84467 0.64448 0.0
C543 C 0.95419 0.91489 0.73976 0.0
C544 C 0.10001 0.86257 0.69048 0.0
C545 C 0.27781 0.92545 0.77277 0.0
C546 C 0.25597 0.95421 0.76122 0.0
C547 C 0.95996 0.8267 0.73933 0.0
C548 C 0.83431 0.89299 0.84434 0.0
C549 C 0.78102 0.88995 0.88553 0.0
C550 C 0.72894 0.88858 0.87137 0.0
C551 C 0.78183 0.89179 0.83065 0.0
C552 C 0.83362 0.89234 0.87177 0.0
C553 C 0.72947 0.88968 0.84415 0.0
C554 C 0.05859 0.82757 0.78859 0.0
C555 C 0.8906 0.89279 0.83082 0.0
H556 H 0.0761 0.76903 0.61785 0.0
H557 H 0.07168 0.79786 0.6979 0.0
H558 H 0.05902 0.75546 0.66393 0.0
H559 H 0.11456 0.86981 0.63926 0.0
H560 H 0.68775 0.88699 0.88136 0.0
H561 H 0.78118 0.89221 0.80963 0.0
H562 H 0.87421 0.89279 0.88238 0.0
H563 H 0.6891 0.88869 0.83346 0.0
Tb564 Tb 0.4448 0.64209 0.2376 0.0
C565 C 0.71021 0.64482 0.26893 0.0
N566 N 0.66996 0.62078 0.27326 0.0
C567 C 0.73894 0.57954 0.261 0.0
C568 C 0.7658 0.63717 0.25947 0.0
C569 C 0.68461 0.58832 0.27061 0.0
C570 C 0.77949 0.60409 0.25508 0.0
C571 C 0.73688 0.70278 0.27081 0.0
C572 C 0.69635 0.67715 0.27493 0.0
C573 C 0.79183 0.69535 0.26085 0.0
C574 C 0.8063 0.66262 0.25525 0.0
Tb575 Tb 0.58289 0.63858 0.28901 0.0
N576 N 0.6423 0.68354 0.28403 0.0
C577 C 0.72075 0.73515 0.27658 0.0
C578 C 0.62667 0.71504 0.28999 0.0
C579 C 0.66543 0.74127 0.28626 0.0
H580 H 0.65511 0.56897 0.27649 0.0
H581 H 0.65253 0.76622 0.29077 0.0
H582 H 0.35067 0.70125 0.25297 0.0
H583 H 0.40279 0.51789 0.20515 0.0
H584 H 0.58418 0.72022 0.29721 0.0
H585 H 0.75057 0.75555 0.27361 0.0
H586 H 0.45896 0.56974 0.20936 0.0
H587 H 0.74982 0.5538 0.25858 0.0
H588 H 0.82352 0.71473 0.25751 0.0
H589 H 0.84911 0.65722 0.24788 0.0
H590 H 0.2497 0.70456 0.26819 0.0
H591 H 0.82174 0.59719 0.24786 0.0
H592 H 0.30496 0.51359 0.22458 0.0
N593 N 0.35059 0.64871 0.25088 0.0
C594 C 0.31761 0.62089 0.25173 0.0
C595 C 0.26843 0.68079 0.2639 0.0
C596 C 0.25927 0.62169 0.25972 0.0
C597 C 0.32583 0.67874 0.25544 0.0
C598 C 0.23532 0.65205 0.26658 0.0
N599 N 0.39539 0.59354 0.23228 0.0
C600 C 0.41696 0.56777 0.21831 0.0
C601 C 0.30642 0.56353 0.23946 0.0
C602 C 0.34055 0.59232 0.24166 0.0
C603 C 0.3298 0.53618 0.22674 0.0
C604 C 0.38499 0.53852 0.21574 0.0
H605 H 0.19066 0.65374 0.27281 0.0
H606 H 0.18127 0.59256 0.26556 0.0
H607 H 0.22273 0.54151 0.24785 0.0
O608 O 0.4584 0.63659 0.19712 0.0
O609 O 0.44953 0.59922 0.26359 0.0
O610 O 0.49484 0.62192 0.29909 0.0
O611 O 0.40137 0.6735 0.21163 0.0
O612 O 0.52904 0.62083 0.22756 0.0
O613 O 0.56587 0.59554 0.26418 0.0
O614 O 0.60609 0.65401 0.32668 0.0
O615 O 0.59297 0.66424 0.25142 0.0
O616 O 0.50205 0.68435 0.24413 0.0
O617 O 0.61233 0.60301 0.31601 0.0
O618 O 0.51713 0.67473 0.30043 0.0
O619 O 0.43699 0.67436 0.27193 0.0
C620 C 0.46398 0.5983 0.28834 0.0
C621 C 0.37481 0.6481 0.17223 0.0
C622 C 0.34219 0.64148 0.12744 0.0
C623 C 0.28793 0.63081 0.13646 0.0
C624 C 0.31999 0.63757 0.18087 0.0
C625 C 0.27705 0.62873 0.16308 0.0
C626 C 0.38589 0.64985 0.14535 0.0
C627 C 0.55487 0.59582 0.23896 0.0
C628 C 0.41963 0.65834 0.19107 0.0
C629 C 0.22596 0.59255 0.25919 0.0
C630 C 0.24952 0.56349 0.24906 0.0
C631 C 0.55768 0.68449 0.23928 0.0
C632 C 0.67527 0.62267 0.34944 0.0
C633 C 0.72362 0.62418 0.39185 0.0
C634 C 0.77736 0.62252 0.37914 0.0
C635 C 0.72939 0.62063 0.33724 0.0
C636 C 0.67259 0.62411 0.3768 0.0
C637 C 0.78007 0.62057 0.35203 0.0
C638 C 0.46495 0.6844 0.29309 0.0
C639 C 0.62118 0.62471 0.33425 0.0
H640 H 0.25387 0.62433 0.12284 0.0
H641 H 0.30979 0.63669 0.2013 0.0
H642 H 0.23498 0.6207 0.16997 0.0
H643 H 0.42773 0.65833 0.13839 0.0
H644 H 0.81727 0.62229 0.39022 0.0
H645 H 0.7328 0.61919 0.31639 0.0
H646 H 0.63088 0.62586 0.38634 0.0
H647 H 0.82166 0.61906 0.34244 0.0
C648 C 0.07879 0.04271 0.34944 0.0
C649 C 0.10705 0.01589 0.33781 0.0
H650 H 0.03654 0.08907 0.34374 0.0
C651 C 0.11632 0.0165 0.31075 0.0
H652 H 0.07062 0.043 0.3702 0.0
C653 C 0.0961 0.04261 0.29557 0.0
C654 C 0.06642 0.06899 0.30706 0.0
H655 H 0.1391 0.99668 0.30119 0.0
H656 H 0.1031 0.04178 0.27473 0.0
C657 C 0.05891 0.06904 0.33424 0.0
C658 C 0.38329 0.48647 0.80941 0.0
C659 C 0.39347 0.48687 0.83639 0.0
H660 H 0.39641 0.46166 0.7733 0.0
C661 C 0.42375 0.46061 0.84783 0.0
H662 H 0.36066 0.50655 0.79998 0.0
C663 C 0.44424 0.43474 0.83253 0.0
C664 C 0.43532 0.43477 0.80542 0.0
H665 H 0.43163 0.46007 0.86862 0.0
H666 H 0.46777 0.41498 0.84191 0.0
C667 C 0.40401 0.46075 0.7941 0.0
C668 C 0.65356 0.46196 0.69705 0.0
C669 C 0.62002 0.48982 0.6911 0.0
H670 H 0.65679 0.4146 0.71562 0.0
C671 C 0.56262 0.491 0.70002 0.0
H672 H 0.69809 0.46045 0.69062 0.0
C673 C 0.53916 0.46493 0.71444 0.0
C674 C 0.57258 0.43706 0.72043 0.0
H675 H 0.53546 0.51194 0.69553 0.0
H676 H 0.49472 0.46673 0.72095 0.0
C677 C 0.6301 0.43586 0.7116 0.0
C678 C 0.94019 0.02012 0.19373 0.0
C679 C 0.88276 0.0226 0.18494 0.0
H680 H 0.00839 0.04148 0.21642 0.0
C681 C 0.85021 0.05025 0.19226 0.0
H682 H 0.96623 0.99897 0.18868 0.0
C683 C 0.87453 0.07481 0.20802 0.0
C684 C 0.93159 0.07201 0.21724 0.0
H685 H 0.80611 0.05313 0.1855 0.0
H686 H 0.84877 0.09614 0.21271 0.0
C687 C 0.96427 0.04448 0.20973 0.0
C688 C 0.91535 0.96643 0.68075 0.0
C689 C 0.88624 0.99316 0.69183 0.0
H690 H 0.95838 0.92086 0.68691 0.0
C691 C 0.87742 0.99352 0.71897 0.0
H692 H 0.9219 0.96509 0.65989 0.0
C693 C 0.89859 0.96796 0.73473 0.0
C694 C 0.92865 0.9415 0.72359 0.0
H695 H 0.85528 0.01393 0.72808 0.0
H696 H 0.89215 0.96919 0.75559 0.0
C697 C 0.93604 0.94094 0.69636 0.0
C698 C 0.59659 0.54565 0.17967 0.0
C699 C 0.61433 0.51585 0.19101 0.0
H700 H 0.56515 0.59449 0.18593 0.0
C701 C 0.61187 0.5123 0.21822 0.0
H702 H 0.59831 0.54903 0.15875 0.0
C703 C 0.59196 0.53808 0.2338 0.0
C704 C 0.57546 0.56824 0.22255 0.0
H705 H 0.6246 0.48938 0.2274 0.0
H706 H 0.58902 0.53422 0.25462 0.0
C707 C 0.57779 0.57166 0.19528 0.0
C708 C 0.43054 0.54418 0.34708 0.0
C709 C 0.40098 0.5175 0.33555 0.0
H710 H 0.47324 0.59073 0.34133 0.0
C711 C 0.39307 0.51752 0.30842 0.0
H712 H 0.43705 0.54499 0.36796 0.0
C713 C 0.41386 0.5436 0.2932 0.0
C714 C 0.44262 0.57054 0.30468 0.0
H715 H 0.3715 0.49707 0.29885 0.0
H716 H 0.40781 0.54238 0.27238 0.0
C717 C 0.45105 0.57045 0.33181 0.0
C718 C 0.08765 0.96542 0.84859 0.0
C719 C 0.10931 0.99443 0.83709 0.0
H720 H 0.05263 0.91704 0.84256 0.0
C721 C 0.11012 0.99708 0.80982 0.0
H722 H 0.08672 0.96271 0.86958 0.0
C723 C 0.08984 0.97118 0.79435 0.0
C724 C 0.06962 0.94177 0.80575 0.0
H725 H 0.12571 0.01941 0.80045 0.0
H726 H 0.08956 0.97438 0.77349 0.0
C727 C 0.06828 0.93927 0.83309 0.0
C728 C 0.1573 0.09155 0.06174 0.0
C729 C 0.1748 0.12284 0.05275 0.0
H730 H 0.14708 0.05936 0.09462 0.0
C731 C 0.19097 0.14701 0.07103 0.0
H732 H 0.14515 0.07233 0.04813 0.0
C733 C 0.19122 0.13967 0.09772 0.0
C734 C 0.17634 0.10788 0.10646 0.0
H735 H 0.2044 0.17137 0.06462 0.0
H736 H 0.20553 0.1583 0.11142 0.0
C737 C 0.15853 0.08408 0.08829 0.0
C738 C 0.3153 0.35952 0.56747 0.0
C739 C 0.33236 0.38397 0.54948 0.0
H740 H 0.29972 0.34748 0.60771 0.0
C741 C 0.35055 0.4149 0.55885 0.0
H742 H 0.30134 0.33543 0.56079 0.0
C743 C 0.34909 0.42178 0.58548 0.0
C744 C 0.33036 0.39774 0.60336 0.0
H745 H 0.36337 0.43433 0.54549 0.0
H746 H 0.36097 0.44627 0.59209 0.0
C747 C 0.3148 0.36628 0.59425 0.0
C748 C 0.72165 0.37311 0.95783 0.0
C749 C 0.67654 0.36608 0.97544 0.0
H750 H 0.75363 0.36807 0.91884 0.0
C751 C 0.62493 0.35203 0.96574 0.0
H752 H 0.76153 0.38448 0.96447 0.0
C753 C 0.62017 0.34324 0.93943 0.0
C754 C 0.6668 0.34844 0.9224 0.0
H755 H 0.58949 0.34601 0.97873 0.0
H756 H 0.58151 0.33057 0.93275 0.0
C757 C 0.71696 0.36416 0.93165 0.0
C758 C 0.83147 0.1853 0.46716 0.0
C759 C 0.83719 0.15254 0.47556 0.0
H760 H 0.82442 0.21834 0.43486 0.0
C761 C 0.84622 0.1277 0.45699 0.0
H762 H 0.82523 0.20494 0.48113 0.0
C763 C 0.84506 0.13531 0.43027 0.0
C764 C 0.8351 0.16787 0.42188 0.0
H765 H 0.8507 0.10223 0.46307 0.0
H766 H 0.84839 0.11549 0.41625 0.0
C767 C 0.83085 0.19291 0.44067 0.0
C768 C 0.81195 0.90967 0.95665 0.0
C769 C 0.77681 0.88649 0.96984 0.0
H770 H 0.84084 0.92891 0.91988 0.0
C771 C 0.74391 0.86413 0.95486 0.0
H772 H 0.83718 0.9277 0.96734 0.0
C773 C 0.74538 0.86525 0.92761 0.0
C774 C 0.78031 0.88848 0.91454 0.0
H775 H 0.7173 0.84544 0.96415 0.0
H776 H 0.71961 0.84762 0.91673 0.0
C777 C 0.81394 0.9105 0.92938 0.0
C778 C 0.68629 0.60476 0.4623 0.0
C779 C 0.7223 0.627 0.47582 0.0
H780 H 0.65785 0.58679 0.4251 0.0
C781 C 0.75699 0.64911 0.46149 0.0
H782 H 0.65879 0.5876 0.47285 0.0
C783 C 0.75684 0.64842 0.43426 0.0
C784 C 0.72133 0.62597 0.42073 0.0
H785 H 0.78537 0.66639 0.47137 0.0
H786 H 0.78466 0.66543 0.42373 0.0
C787 C 0.68543 0.60445 0.43502 0.0
C788 C 0.32673 0.67233 0.05872 0.0
C789 C 0.35096 0.64632 0.04438 0.0
H790 H 0.30542 0.69105 0.09652 0.0
C791 C 0.37802 0.62038 0.05792 0.0
H792 H 0.30656 0.69298 0.04894 0.0
C793 C 0.37818 0.61969 0.08516 0.0
C794 C 0.3513 0.64488 0.09922 0.0
H795 H 0.39656 0.59979 0.04752 0.0
H796 H 0.39686 0.59878 0.09523 0.0
C797 C 0.32655 0.67147 0.08589 0.0
C798 C 0.08536 0.82358 0.5512 0.0
C799 C 0.13262 0.84393 0.54448 0.0
H800 H 0.0365 0.80068 0.58179 0.0
C801 C 0.16746 0.85692 0.56447 0.0
H802 H 0.05718 0.81357 0.53628 0.0
C803 C 0.15573 0.84945 0.59054 0.0
C804 C 0.10877 0.82888 0.59726 0.0
H805 H 0.20471 0.87224 0.55995 0.0
H806 H 0.18429 0.85925 0.6054 0.0
C807 C 0.07356 0.81616 0.57727 0.0
C808 C 0.0767 0.25878 0.33074 0.0
C809 C 0.13284 0.25309 0.34042 0.0
H810 H 0.00589 0.24069 0.30772 0.0
C811 C 0.15937 0.22282 0.33472 0.0
H812 H 0.05428 0.28146 0.33512 0.0
C813 C 0.13096 0.19918 0.31952 0.0
C814 C 0.07585 0.20538 0.30911 0.0
H815 H 0.20266 0.21752 0.34156 0.0
H816 H 0.15239 0.17602 0.31586 0.0
C817 C 0.04861 0.23524 0.31523 0.0
C818 C 0.43194 0.25054 0.8342 0.0
C819 C 0.37502 0.25558 0.84304 0.0
H820 H 0.5018 0.26811 0.81043 0.0
C821 C 0.34605 0.28434 0.83519 0.0
H822 H 0.45605 0.22903 0.84026 0.0
C823 C 0.37275 0.30701 0.81847 0.0
C824 C 0.42861 0.30126 0.80879 0.0
H825 H 0.3021 0.28901 0.8414 0.0
H826 H 0.3493 0.32895 0.81298 0.0
C827 C 0.45838 0.27309 0.81724 0.0
C828 C 0.61652 0.28397 0.67425 0.0
C829 C 0.63177 0.25287 0.68427 0.0
H830 H 0.57714 0.33078 0.68183 0.0
C831 C 0.61815 0.24534 0.71031 0.0
H832 H 0.62586 0.2904 0.65421 0.0
C833 C 0.58988 0.26821 0.72592 0.0
C834 C 0.57507 0.29933 0.716 0.0
H835 H 0.63 0.22185 0.71881 0.0
H836 H 0.5798 0.26153 0.74586 0.0
C837 C 0.58828 0.30697 0.68997 0.0
C838 C 0.88639 0.26212 0.2132 0.0
C839 C 0.87685 0.25613 0.18656 0.0
H840 H 0.92084 0.24428 0.24923 0.0
C841 C 0.89606 0.22619 0.17591 0.0
H842 H 0.87147 0.28465 0.22218 0.0
C843 C 0.92398 0.20282 0.19157 0.0
C844 C 0.93306 0.20886 0.2182 0.0
H845 H 0.88999 0.22091 0.15543 0.0
H846 H 0.93798 0.17991 0.18287 0.0
C847 C 0.91429 0.23885 0.22879 0.0
C848 C 0.93318 0.749 0.70008 0.0
C849 C 0.8767 0.75407 0.69079 0.0
H850 H 0.00291 0.76741 0.72353 0.0
C851 C 0.84777 0.78314 0.69769 0.0
H852 H 0.95621 0.72661 0.69537 0.0
C853 C 0.87495 0.80678 0.71333 0.0
C854 C 0.93124 0.80161 0.7228 0.0
H855 H 0.80438 0.78783 0.69066 0.0
H856 H 0.8521 0.8293 0.71771 0.0
C857 C 0.95996 0.7724 0.71612 0.0
C858 C 0.6655 0.73145 0.19728 0.0
C859 C 0.63153 0.757 0.18698 0.0
H860 H 0.66875 0.68828 0.22114 0.0
C861 C 0.57235 0.75789 0.19334 0.0
H862 H 0.71098 0.72967 0.19244 0.0
C863 C 0.54809 0.73422 0.21012 0.0
C864 C 0.58244 0.70907 0.22082 0.0
H865 H 0.54506 0.77737 0.18588 0.0
H866 H 0.50259 0.73593 0.21495 0.0
C867 C 0.64122 0.70771 0.21384 0.0
C868 C 0.43204 0.75606 0.33805 0.0
C869 C 0.3717 0.75307 0.34072 0.0
H870 H 0.50899 0.73678 0.32096 0.0
C871 C 0.34321 0.72627 0.32897 0.0
H872 H 0.45519 0.77643 0.34697 0.0
C873 C 0.37412 0.70354 0.31422 0.0
C874 C 0.43389 0.70745 0.31034 0.0
H875 H 0.29699 0.72275 0.33134 0.0
H876 H 0.35133 0.68255 0.30619 0.0
C877 C 0.46287 0.7334 0.32303 0.0
C878 C 0.13971 0.74996 0.80659 0.0
C879 C 0.15408 0.75601 0.83277 0.0
H880 H 0.09732 0.76767 0.7722 0.0
C881 C 0.13667 0.78575 0.84425 0.0
H882 H 0.15183 0.72706 0.79732 0.0
C883 C 0.10574 0.809 0.82986 0.0
C884 C 0.09143 0.80293 0.80371 0.0
H885 H 0.14763 0.79126 0.8643 0.0
H886 H 0.09336 0.83184 0.83916 0.0
C887 C 0.10848 0.77314 0.79223 0.0
loop_
_geom_bond_atom_site_label_1
_geom_bond_atom_site_label_2
_geom_bond_distance
_geom_bond_site_symmetry_2
_ccdc_geom_bond_type
C0 C1 1.386 . S
C0 C2 1.397 . S
C0 H24 0.931 . S
C1 C0 1.386 . S
C1 C5 1.397 . S
C2 C0 1.397 . S
C2 C3 1.384 . S
C2 H25 0.930 . S
C3 C2 1.384 . S
C3 C4 1.377 . S
C3 C6 1.481 . S
C4 C3 1.377 . S
C4 C5 1.389 . S
C4 H26 0.929 . S
C5 C1 1.397 . S
C5 C4 1.389 . S
C5 H27 0.931 . S
C6 C3 1.481 . S
C6 C7 1.387 . S
C6 C11 1.390 . S
C7 C6 1.387 . S
C7 C8 1.401 . S
C7 H28 0.930 . S
C8 C7 1.401 . S
C8 C9 1.376 . S
C8 C17 1.511 . S
C9 C8 1.376 . S
C9 C10 1.392 . S
C9 H30 0.931 . S
C10 C9 1.392 . S
C10 C11 1.361 . S
C10 C12 1.500 . S
C11 C6 1.390 . S
C11 C10 1.361 . S
C11 H29 0.931 . S
C12 C10 1.500 . S
C12 C13 1.371 . S
C12 C14 1.365 . S
C13 C12 1.371 . S
C13 C23 1.386 . S
C13 H31 0.931 . S
C14 C12 1.365 . S
C14 C15 1.409 . S
C14 H32 0.929 . S
C15 C14 1.409 . S
C15 C16 1.380 . S
C15 H33 0.930 . S
C16 C15 1.380 . S
C16 C23 1.357 . S
C17 C8 1.511 . S
C17 C18 1.341 . S
C17 C19 1.371 . S
C18 C17 1.341 . S
C18 C22 1.394 . S
C18 H34 0.930 . S
C19 C17 1.371 . S
C19 C20 1.392 . S
C19 H35 0.931 . S
C20 C19 1.392 . S
C20 C21 1.331 . S
C20 H38 0.932 . S
C21 C20 1.331 . S
C21 C22 1.336 . S
C22 C18 1.394 . S
C22 C21 1.336 . S
C22 H37 0.929 . S
C23 C13 1.386 . S
C23 C16 1.357 . S
C23 H36 0.928 . S
H24 C0 0.931 . S
H25 C2 0.930 . S
H26 C4 0.929 . S
H27 C5 0.931 . S
H28 C7 0.930 . S
H29 C11 0.931 . S
H30 C9 0.931 . S
H31 C13 0.931 . S
H32 C14 0.929 . S
H33 C15 0.930 . S
H34 C18 0.930 . S
H35 C19 0.931 . S
H36 C23 0.928 . S
H37 C22 0.929 . S
H38 C20 0.932 . S
C39 C40 1.386 . S
C39 C41 1.397 . S
C39 H63 0.931 . S
C40 C39 1.386 . S
C40 C44 1.397 . S
C41 C39 1.397 . S
C41 C42 1.384 . S
C41 H64 0.930 . S
C42 C41 1.384 . S
C42 C43 1.377 . S
C42 C45 1.481 . S
C43 C42 1.377 . S
C43 C44 1.389 . S
C43 H65 0.929 . S
C44 C40 1.397 . S
C44 C43 1.389 . S
C44 H66 0.931 . S
C45 C42 1.481 . S
C45 C46 1.387 . S
C45 C50 1.390 . S
C46 C45 1.387 . S
C46 C47 1.401 . S
C46 H67 0.930 . S
C47 C46 1.401 . S
C47 C48 1.376 . S
C47 C56 1.511 . S
C48 C47 1.376 . S
C48 C49 1.392 . S
C48 H69 0.931 . S
C49 C48 1.392 . S
C49 C50 1.361 . S
C49 C51 1.500 . S
C50 C45 1.390 . S
C50 C49 1.361 . S
C50 H68 0.931 . S
C51 C49 1.500 . S
C51 C52 1.371 . S
C51 C53 1.365 . S
C52 C51 1.371 . S
C52 C62 1.386 . S
C52 H70 0.931 . S
C53 C51 1.365 . S
C53 C54 1.409 . S
C53 H71 0.929 . S
C54 C53 1.409 . S
C54 C55 1.380 1_556 S
C54 H72 0.930 . S
C55 C54 1.380 1_554 S
C55 C62 1.357 1_554 S
C56 C47 1.511 . S
C56 C57 1.341 . S
C56 C58 1.371 . S
C57 C56 1.341 . S
C57 C61 1.394 . S
C57 H73 0.930 . S
C58 C56 1.371 . S
C58 C59 1.392 . S
C58 H74 0.931 . S
C59 C58 1.392 . S
C59 C60 1.331 . S
C59 H77 0.932 . S
C60 C59 1.331 . S
C60 C61 1.336 . S
C61 C57 1.394 . S
C61 C60 1.336 . S
C61 H76 0.929 . S
C62 C52 1.386 . S
C62 C55 1.357 1_556 S
C62 H75 0.928 1_556 S
H63 C39 0.931 . S
H64 C41 0.930 . S
H65 C43 0.929 . S
H66 C44 0.931 . S
H67 C46 0.930 . S
H68 C50 0.931 . S
H69 C48 0.931 . S
H70 C52 0.931 . S
H71 C53 0.929 . S
H72 C54 0.930 . S
H73 C57 0.930 . S
H74 C58 0.931 . S
H75 C62 0.928 1_554 S
H76 C61 0.929 . S
H77 C59 0.932 . S
C78 C79 1.386 . S
C78 C80 1.397 . S
C78 H102 0.931 . S
C79 C78 1.386 . S
C79 C83 1.397 . S
C80 C78 1.397 . S
C80 C81 1.384 . S
C80 H103 0.930 . S
C81 C80 1.384 . S
C81 C82 1.377 . S
C81 C84 1.481 . S
C82 C81 1.377 . S
C82 C83 1.389 . S
C82 H104 0.929 . S
C83 C79 1.397 . S
C83 C82 1.389 . S
C83 H105 0.931 . S
C84 C81 1.481 . S
C84 C85 1.387 . S
C84 C89 1.390 . S
C85 C84 1.387 . S
C85 C86 1.401 . S
C85 H106 0.930 . S
C86 C85 1.401 . S
C86 C87 1.376 . S
C86 C95 1.511 . S
C87 C86 1.376 . S
C87 C88 1.392 . S
C87 H108 0.931 . S
C88 C87 1.392 . S
C88 C89 1.361 . S
C88 C90 1.500 . S
C89 C84 1.390 . S
C89 C88 1.361 . S
C89 H107 0.931 . S
C90 C88 1.500 . S
C90 C91 1.371 . S
C90 C92 1.365 . S
C91 C90 1.371 . S
C91 C101 1.386 . S
C91 H109 0.931 . S
C92 C90 1.365 . S
C92 C93 1.409 . S
C92 H110 0.929 . S
C93 C92 1.409 . S
C93 C94 1.380 . S
C93 H111 0.930 . S
C94 C93 1.380 . S
C94 C101 1.357 . S
C95 C86 1.511 . S
C95 C96 1.341 . S
C95 C97 1.371 . S
C96 C95 1.341 . S
C96 C100 1.394 . S
C96 H112 0.930 . S
C97 C95 1.371 . S
C97 C98 1.392 . S
C97 H113 0.931 . S
C98 C97 1.392 . S
C98 C99 1.331 . S
C98 H116 0.932 . S
C99 C98 1.331 . S
C99 C100 1.336 . S
C100 C96 1.394 . S
C100 C99 1.336 . S
C100 H115 0.929 . S
C101 C91 1.386 . S
C101 C94 1.357 . S
C101 H114 0.928 . S
H102 C78 0.931 . S
H103 C80 0.930 . S
H104 C82 0.929 . S
H105 C83 0.931 . S
H106 C85 0.930 . S
H107 C89 0.931 . S
H108 C87 0.931 . S
H109 C91 0.931 . S
H110 C92 0.929 . S
H111 C93 0.930 . S
H112 C96 0.930 . S
H113 C97 0.931 . S
H114 C101 0.928 . S
H115 C100 0.929 . S
H116 C98 0.932 . S
C117 C118 1.386 . S
C117 C119 1.397 . S
C117 H141 0.931 . S
C118 C117 1.386 . S
C118 C122 1.397 . S
C119 C117 1.397 . S
C119 C120 1.384 . S
C119 H142 0.930 . S
C120 C119 1.384 . S
C120 C121 1.377 . S
C120 C123 1.481 . S
C121 C120 1.377 . S
C121 C122 1.389 . S
C121 H143 0.929 . S
C122 C118 1.397 . S
C122 C121 1.389 . S
C122 H144 0.931 . S
C123 C120 1.481 . S
C123 C124 1.387 . S
C123 C128 1.390 . S
C124 C123 1.387 . S
C124 C125 1.401 . S
C124 H145 0.930 . S
C125 C124 1.401 . S
C125 C126 1.376 . S
C125 C134 1.511 . S
C126 C125 1.376 . S
C126 C127 1.392 . S
C126 H147 0.931 . S
C127 C126 1.392 . S
C127 C128 1.361 . S
C127 C129 1.500 . S
C128 C123 1.390 . S
C128 C127 1.361 . S
C128 H146 0.931 . S
C129 C127 1.500 . S
C129 C130 1.371 . S
C129 C131 1.365 . S
C130 C129 1.371 . S
C130 C140 1.386 . S
C130 H148 0.931 . S
C131 C129 1.365 . S
C131 C132 1.409 . S
C131 H149 0.929 . S
C132 C131 1.409 . S
C132 C133 1.380 1_554 S
C132 H150 0.930 . S
C133 C132 1.380 1_556 S
C133 C140 1.357 1_556 S
C134 C125 1.511 . S
C134 C135 1.341 . S
C134 C136 1.371 . S
C135 C134 1.341 . S
C135 C139 1.394 . S
C135 H151 0.930 . S
C136 C134 1.371 . S
C136 C137 1.392 . S
C136 H152 0.931 . S
C137 C136 1.392 . S
C137 C138 1.331 . S
C137 H155 0.932 . S
C138 C137 1.331 . S
C138 C139 1.336 . S
C139 C135 1.394 . S
C139 C138 1.336 . S
C139 H154 0.929 . S
C140 C130 1.386 . S
C140 C133 1.357 1_554 S
C140 H153 0.928 1_554 S
H141 C117 0.931 . S
H142 C119 0.930 . S
H143 C121 0.929 . S
H144 C122 0.931 . S
H145 C124 0.930 . S
H146 C128 0.931 . S
H147 C126 0.931 . S
H148 C130 0.931 . S
H149 C131 0.929 . S
H150 C132 0.930 . S
H151 C135 0.930 . S
H152 C136 0.931 . S
H153 C140 0.928 1_556 S
H154 C139 0.929 . S
H155 C137 0.932 . S
C156 C157 1.386 . S
C156 C158 1.397 . S
C156 H180 0.931 . S
C157 C156 1.386 . S
C157 C161 1.397 . S
C158 C156 1.397 . S
C158 C159 1.384 . S
C158 H181 0.930 . S
C159 C158 1.384 . S
C159 C160 1.377 . S
C159 C162 1.481 . S
C160 C159 1.377 . S
C160 C161 1.389 . S
C160 H182 0.929 . S
C161 C157 1.397 . S
C161 C160 1.389 . S
C161 H183 0.931 . S
C162 C159 1.481 . S
C162 C163 1.387 . S
C162 C167 1.390 . S
C163 C162 1.387 . S
C163 C164 1.401 . S
C163 H184 0.930 . S
C164 C163 1.401 . S
C164 C165 1.376 . S
C164 C173 1.511 . S
C165 C164 1.376 . S
C165 C166 1.392 . S
C165 H186 0.931 . S
C166 C165 1.392 . S
C166 C167 1.361 . S
C166 C168 1.500 . S
C167 C162 1.390 . S
C167 C166 1.361 . S
C167 H185 0.931 . S
C168 C166 1.500 . S
C168 C169 1.371 . S
C168 C170 1.365 . S
C169 C168 1.371 . S
C169 C179 1.386 . S
C169 H187 0.931 . S
C170 C168 1.365 . S
C170 C171 1.409 . S
C170 H188 0.929 . S
C171 C170 1.409 . S
C171 C172 1.380 . S
C171 H189 0.930 . S
C172 C171 1.380 . S
C172 C179 1.357 . S
C173 C164 1.511 . S
C173 C174 1.341 . S
C173 C175 1.371 . S
C174 C173 1.341 . S
C174 C178 1.394 . S
C174 H190 0.930 . S
C175 C173 1.371 . S
C175 C176 1.392 . S
C175 H191 0.931 . S
C176 C175 1.392 . S
C176 C177 1.331 . S
C176 H194 0.932 . S
C177 C176 1.331 . S
C177 C178 1.336 . S
C178 C174 1.394 . S
C178 C177 1.336 . S
C178 H193 0.929 . S
C179 C169 1.386 . S
C179 C172 1.357 . S
C179 H192 0.928 . S
H180 C156 0.931 . S
H181 C158 0.930 . S
H182 C160 0.929 . S
H183 C161 0.931 . S
H184 C163 0.930 . S
H185 C167 0.931 . S
H186 C165 0.931 . S
H187 C169 0.931 . S
H188 C170 0.929 . S
H189 C171 0.930 . S
H190 C174 0.930 . S
H191 C175 0.931 . S
H192 C179 0.928 . S
H193 C178 0.929 . S
H194 C176 0.932 . S
C195 C196 1.386 1_554 S
C195 C197 1.397 . S
C195 H219 0.931 1_554 S
C196 C195 1.386 1_556 S
C196 C200 1.397 1_556 S
C197 C195 1.397 . S
C197 C198 1.384 . S
C197 H220 0.930 . S
C198 C197 1.384 . S
C198 C199 1.377 . S
C198 C201 1.481 . S
C199 C198 1.377 . S
C199 C200 1.389 . S
C199 H221 0.929 . S
C200 C196 1.397 1_554 S
C200 C199 1.389 . S
C200 H222 0.931 . S
C201 C198 1.481 . S
C201 C202 1.387 . S
C201 C206 1.390 . S
C202 C201 1.387 . S
C202 C203 1.401 . S
C202 H223 0.930 . S
C203 C202 1.401 . S
C203 C204 1.376 . S
C203 C212 1.511 . S
C204 C203 1.376 . S
C204 C205 1.392 . S
C204 H225 0.931 . S
C205 C204 1.392 . S
C205 C206 1.361 . S
C205 C207 1.500 . S
C206 C201 1.390 . S
C206 C205 1.361 . S
C206 H224 0.931 . S
C207 C205 1.500 . S
C207 C208 1.371 . S
C207 C209 1.365 . S
C208 C207 1.371 . S
C208 C218 1.386 . S
C208 H226 0.931 . S
C209 C207 1.365 . S
C209 C210 1.409 . S
C209 H227 0.929 . S
C210 C209 1.409 . S
C210 C211 1.380 . S
C210 H228 0.930 . S
C211 C210 1.380 . S
C211 C218 1.357 . S
C212 C203 1.511 . S
C212 C213 1.341 . S
C212 C214 1.371 . S
C213 C212 1.341 . S
C213 C217 1.394 . S
C213 H229 0.930 . S
C214 C212 1.371 . S
C214 C215 1.392 . S
C214 H230 0.931 . S
C215 C214 1.392 . S
C215 C216 1.331 . S
C215 H233 0.932 . S
C216 C215 1.331 . S
C216 C217 1.336 . S
C217 C213 1.394 . S
C217 C216 1.336 . S
C217 H232 0.929 . S
C218 C208 1.386 . S
C218 C211 1.357 . S
C218 H231 0.928 . S
H219 C195 0.931 1_556 S
H220 C197 0.930 . S
H221 C199 0.929 . S
H222 C200 0.931 . S
H223 C202 0.930 . S
H224 C206 0.931 . S
H225 C204 0.931 . S
H226 C208 0.931 . S
H227 C209 0.929 . S
H228 C210 0.930 . S
H229 C213 0.930 . S
H230 C214 0.931 . S
H231 C218 0.928 . S
H232 C217 0.929 . S
H233 C215 0.932 . S
C234 C235 1.386 . S
C234 C236 1.397 . S
C234 H258 0.931 . S
C235 C234 1.386 . S
C235 C239 1.397 . S
C236 C234 1.397 . S
C236 C237 1.384 . S
C236 H259 0.930 . S
C237 C236 1.384 . S
C237 C238 1.377 . S
C237 C240 1.481 . S
C238 C237 1.377 . S
C238 C239 1.389 . S
C238 H260 0.929 . S
C239 C235 1.397 . S
C239 C238 1.389 . S
C239 H261 0.931 1_565 S
C240 C237 1.481 . S
C240 C241 1.387 . S
C240 C245 1.390 . S
C241 C240 1.387 . S
C241 C242 1.401 . S
C241 H262 0.930 . S
C242 C241 1.401 . S
C242 C243 1.376 . S
C242 C251 1.511 . S
C243 C242 1.376 . S
C243 C244 1.392 . S
C243 H264 0.931 . S
C244 C243 1.392 . S
C244 C245 1.361 . S
C244 C246 1.500 . S
C245 C240 1.390 . S
C245 C244 1.361 . S
C245 H263 0.931 . S
C246 C244 1.500 . S
C246 C247 1.371 . S
C246 C248 1.365 . S
C247 C246 1.371 . S
C247 C257 1.386 . S
C247 H265 0.931 . S
C248 C246 1.365 . S
C248 C249 1.409 . S
C248 H266 0.929 . S
C249 C248 1.409 . S
C249 C250 1.380 . S
C249 H267 0.930 . S
C250 C249 1.380 . S
C250 C257 1.357 . S
C251 C242 1.511 . S
C251 C252 1.341 . S
C251 C253 1.371 . S
C252 C251 1.341 . S
C252 C256 1.394 . S
C252 H268 0.930 . S
C253 C251 1.371 . S
C253 C254 1.392 . S
C253 H269 0.931 . S
C254 C253 1.392 . S
C254 C255 1.331 . S
C254 H272 0.932 . S
C255 C254 1.331 . S
C255 C256 1.336 . S
C256 C252 1.394 . S
C256 C255 1.336 . S
C256 H271 0.929 . S
C257 C247 1.386 . S
C257 C250 1.357 . S
C257 H270 0.928 . S
H258 C234 0.931 . S
H259 C236 0.930 . S
H260 C238 0.929 . S
H261 C239 0.931 1_545 S
H262 C241 0.930 . S
H263 C245 0.931 . S
H264 C243 0.931 . S
H265 C247 0.931 . S
H266 C248 0.929 . S
H267 C249 0.930 . S
H268 C252 0.930 . S
H269 C253 0.931 . S
H270 C257 0.928 . S
H271 C256 0.929 . S
H272 C254 0.932 . S
C273 C274 1.386 1_556 S
C273 C275 1.397 . S
C273 H297 0.931 1_556 S
C274 C273 1.386 1_554 S
C274 C278 1.397 1_554 S
C275 C273 1.397 . S
C275 C276 1.384 . S
C275 H298 0.930 . S
C276 C275 1.384 . S
C276 C277 1.377 . S
C276 C279 1.481 . S
C277 C276 1.377 . S
C277 C278 1.389 . S
C277 H299 0.929 . S
C278 C274 1.397 1_556 S
C278 C277 1.389 . S
C278 H300 0.931 . S
C279 C276 1.481 . S
C279 C280 1.387 . S
C279 C284 1.390 . S
C280 C279 1.387 . S
C280 C281 1.401 . S
C280 H301 0.930 . S
C281 C280 1.401 . S
C281 C282 1.376 . S
C281 C290 1.511 . S
C282 C281 1.376 . S
C282 C283 1.392 . S
C282 H303 0.931 . S
C283 C282 1.392 . S
C283 C284 1.361 . S
C283 C285 1.500 . S
C284 C279 1.390 . S
C284 C283 1.361 . S
C284 H302 0.931 . S
C285 C283 1.500 . S
C285 C286 1.371 . S
C285 C287 1.365 . S
C286 C285 1.371 . S
C286 C296 1.386 . S
C286 H304 0.931 . S
C287 C285 1.365 . S
C287 C288 1.409 . S
C287 H305 0.929 . S
C288 C287 1.409 . S
C288 C289 1.380 . S
C288 H306 0.930 . S
C289 C288 1.380 . S
C289 C296 1.357 . S
C290 C281 1.511 . S
C290 C291 1.341 . S
C290 C292 1.371 . S
C291 C290 1.341 . S
C291 C295 1.394 . S
C291 H307 0.930 . S
C292 C290 1.371 . S
C292 C293 1.392 . S
C292 H308 0.931 . S
C293 C292 1.392 . S
C293 C294 1.331 . S
C293 H311 0.932 . S
C294 C293 1.331 . S
C294 C295 1.336 . S
C295 C291 1.394 . S
C295 C294 1.336 . S
C295 H310 0.929 . S
C296 C286 1.386 . S
C296 C289 1.357 . S
C296 H309 0.928 . S
H297 C273 0.931 1_554 S
H298 C275 0.930 . S
H299 C277 0.929 . S
H300 C278 0.931 . S
H301 C280 0.930 . S
H302 C284 0.931 . S
H303 C282 0.931 . S
H304 C286 0.931 . S
H305 C287 0.929 . S
H306 C288 0.930 . S
H307 C291 0.930 . S
H308 C292 0.931 . S
H309 C296 0.928 . S
H310 C295 0.929 . S
H311 C293 0.932 . S
Tb312 N341 2.617 . S
Tb312 N347 2.572 . S
Tb312 O356 2.465 . S
Tb312 O357 2.387 . S
Tb312 O359 2.428 . S
Tb312 O360 2.318 . S
Tb312 O364 2.349 . S
Tb312 O367 2.393 . S
Tb312 C376 2.802 . S
C313 N314 1.379 . S
C313 C316 1.416 . S
C313 C320 1.424 . S
N314 C313 1.379 . S
N314 C317 1.334 . S
N314 Tb323 2.617 . S
C315 C317 1.390 . S
C315 C318 1.339 . S
C315 H335 0.930 . S
C316 C313 1.416 . S
C316 C318 1.416 . S
C316 C322 1.448 . S
C317 N314 1.334 . S
C317 C315 1.390 . S
C317 H328 0.930 . S
C318 C315 1.339 . S
C318 C316 1.416 . S
C318 H339 0.930 . S
C319 C320 1.413 . S
C319 C321 1.427 . S
C319 C325 1.416 . S
C320 C313 1.424 . S
C320 C319 1.413 . S
C320 N324 1.361 . S
C321 C319 1.427 . S
C321 C322 1.328 . S
C321 H336 0.929 . S
C322 C316 1.448 . S
C322 C321 1.328 . S
C322 H337 0.930 . S
Tb323 N314 2.617 . S
Tb323 N324 2.572 . S
Tb323 O358 2.349 1_655 S
Tb323 O361 2.393 . S
Tb323 O362 2.465 . S
Tb323 O363 2.387 . S
Tb323 O365 2.428 . S
Tb323 O366 2.308 1_655 S
Tb323 C387 2.802 . S
N324 C320 1.361 . S
N324 Tb323 2.572 . S
N324 C326 1.340 . S
C325 C319 1.416 . S
C325 C327 1.332 . S
C325 H333 0.931 . S
C326 N324 1.340 . S
C326 C327 1.407 . S
C326 H332 0.930 . S
C327 C325 1.332 . S
C327 C326 1.407 . S
C327 H329 0.929 . S
H328 C317 0.930 . S
H329 C327 0.929 . S
H330 C345 0.930 . S
H331 C352 0.929 . S
H332 C326 0.930 . S
H333 C325 0.931 . S
H334 C348 0.930 . S
H335 C315 0.930 . S
H336 C321 0.929 . S
H337 C322 0.930 . S
H338 C343 0.930 . S
H339 C318 0.930 . S
H340 C351 0.931 . S
N341 Tb312 2.617 . S
N341 C342 1.379 . S
N341 C345 1.334 . S
C342 N341 1.379 . S
C342 C344 1.416 . S
C342 C350 1.424 . S
C343 H338 0.930 . S
C343 C345 1.390 . S
C343 C346 1.339 . S
C344 C342 1.416 . S
C344 C346 1.416 . S
C344 C377 1.448 . S
C345 H330 0.930 . S
C345 N341 1.334 . S
C345 C343 1.390 . S
C346 C343 1.339 . S
C346 C344 1.416 . S
C346 H353 0.930 . S
N347 Tb312 2.572 . S
N347 C348 1.340 . S
N347 C350 1.361 . S
C348 H334 0.930 . S
C348 N347 1.340 . S
C348 C352 1.407 . S
C349 C350 1.413 . S
C349 C351 1.416 . S
C349 C378 1.427 . S
C350 C342 1.424 . S
C350 N347 1.361 . S
C350 C349 1.413 . S
C351 H340 0.931 . S
C351 C349 1.416 . S
C351 C352 1.332 . S
C352 H331 0.929 . S
C352 C348 1.407 . S
C352 C351 1.332 . S
H353 C346 0.930 . S
H354 C377 0.930 . S
H355 C378 0.929 . S
O356 Tb312 2.465 . S
O356 C376 1.264 . S
O357 Tb312 2.387 . S
O357 C368 1.264 . S
O358 Tb323 2.349 1_455 S
O358 C368 1.243 . S
O359 Tb312 2.428 . S
O359 C376 1.256 . S
O360 Tb312 2.318 . S
O360 C375 1.254 1_455 S
O361 Tb323 2.393 . S
O361 C375 1.248 . S
O362 Tb323 2.465 . S
O362 C387 1.264 . S
O363 Tb323 2.387 . S
O363 C379 1.264 . S
O364 Tb312 2.349 . S
O364 C379 1.243 1_455 S
O365 Tb323 2.428 . S
O365 C387 1.256 . S
O366 Tb323 2.308 1_455 S
O366 C386 1.266 . S
O367 Tb312 2.393 . S
O367 C386 1.248 . S
C368 O357 1.264 . S
C368 O358 1.243 . S
C369 C372 1.399 . S
C369 C374 1.383 . S
C369 C376 1.496 . S
C370 C371 1.399 . S
C370 C374 1.389 . S
C371 C370 1.399 . S
C371 C373 1.380 . S
C371 H388 0.929 . S
C372 C369 1.399 . S
C372 C373 1.392 . S
C372 H389 0.929 . S
C373 C371 1.380 . S
C373 C372 1.392 . S
C373 H390 0.929 . S
C374 C369 1.383 . S
C374 C370 1.389 . S
C374 H391 0.931 . S
C375 O360 1.254 1_655 S
C375 O361 1.248 . S
C376 Tb312 2.802 . S
C376 O356 1.264 . S
C376 O359 1.256 . S
C376 C369 1.496 . S
C377 C344 1.448 . S
C377 H354 0.930 . S
C377 C378 1.328 . S
C378 C349 1.427 . S
C378 H355 0.929 . S
C378 C377 1.328 . S
C379 O363 1.264 . S
C379 O364 1.243 1_655 S
C380 C383 1.399 . S
C380 C384 1.383 . S
C380 C387 1.496 . S
C381 C382 1.399 . S
C381 C384 1.389 . S
C382 C381 1.399 . S
C382 C385 1.380 . S
C382 H392 0.929 . S
C383 C380 1.399 . S
C383 C385 1.392 . S
C383 H393 0.929 . S
C384 C380 1.383 . S
C384 C381 1.389 . S
C384 H394 0.931 . S
C385 C382 1.380 . S
C385 C383 1.392 . S
C385 H395 0.929 . S
C386 O366 1.266 . S
C386 O367 1.248 . S
C387 Tb323 2.802 . S
C387 O362 1.264 . S
C387 O365 1.256 . S
C387 C380 1.496 . S
H388 C371 0.929 . S
H389 C372 0.929 . S
H390 C373 0.929 . S
H391 C374 0.931 . S
H392 C382 0.929 . S
H393 C383 0.929 . S
H394 C384 0.931 . S
H395 C385 0.929 . S
Tb396 N425 2.617 . S
Tb396 N431 2.572 . S
Tb396 O440 2.465 . S
Tb396 O441 2.387 . S
Tb396 O443 2.428 . S
Tb396 O444 2.308 . S
Tb396 O448 2.349 . S
Tb396 O451 2.393 . S
Tb396 C460 2.802 . S
C397 N398 1.379 . S
C397 C400 1.416 . S
C397 C404 1.424 . S
N398 C397 1.379 . S
N398 C401 1.334 . S
N398 Tb407 2.617 . S
C399 C401 1.390 . S
C399 C402 1.339 . S
C399 H419 0.930 . S
C400 C397 1.416 . S
C400 C402 1.416 . S
C400 C406 1.448 . S
C401 N398 1.334 . S
C401 C399 1.390 . S
C401 H412 0.930 . S
C402 C399 1.339 . S
C402 C400 1.416 . S
C402 H423 0.930 . S
C403 C404 1.413 . S
C403 C405 1.427 . S
C403 C409 1.416 . S
C404 C397 1.424 . S
C404 C403 1.413 . S
C404 N408 1.361 . S
C405 C403 1.427 . S
C405 C406 1.328 . S
C405 H420 0.929 . S
C406 C400 1.448 . S
C406 C405 1.328 . S
C406 H421 0.930 . S
Tb407 N398 2.617 . S
Tb407 N408 2.572 . S
Tb407 O442 2.349 . S
Tb407 O445 2.393 . S
Tb407 O446 2.465 . S
Tb407 O447 2.387 . S
Tb407 O449 2.428 . S
Tb407 O450 2.308 . S
Tb407 C471 2.802 . S
N408 C404 1.361 . S
N408 Tb407 2.572 . S
N408 C410 1.340 . S
C409 C403 1.416 . S
C409 C411 1.332 . S
C409 H417 0.931 . S
C410 N408 1.340 . S
C410 C411 1.407 . S
C410 H416 0.930 . S
C411 C409 1.332 . S
C411 C410 1.407 . S
C411 H413 0.929 . S
H412 C401 0.930 . S
H413 C411 0.929 . S
H414 C429 0.930 . S
H415 C436 0.929 . S
H416 C410 0.930 . S
H417 C409 0.931 . S
H418 C432 0.930 . S
H419 C399 0.930 . S
H420 C405 0.929 . S
H421 C406 0.930 . S
H422 C427 0.930 . S
H423 C402 0.930 . S
H424 C435 0.931 . S
N425 Tb396 2.617 . S
N425 C426 1.379 . S
N425 C429 1.334 . S
C426 N425 1.379 . S
C426 C428 1.416 . S
C426 C434 1.424 . S
C427 H422 0.930 . S
C427 C429 1.390 . S
C427 C430 1.339 . S
C428 C426 1.416 . S
C428 C430 1.416 . S
C428 C461 1.448 . S
C429 H414 0.930 . S
C429 N425 1.334 . S
C429 C427 1.390 . S
C430 C427 1.339 . S
C430 C428 1.416 . S
C430 H437 0.930 . S
N431 Tb396 2.572 . S
N431 C432 1.340 . S
N431 C434 1.361 . S
C432 H418 0.930 . S
C432 N431 1.340 . S
C432 C436 1.407 . S
C433 C434 1.413 . S
C433 C435 1.416 . S
C433 C462 1.427 . S
C434 C426 1.424 . S
C434 N431 1.361 . S
C434 C433 1.413 . S
C435 H424 0.931 . S
C435 C433 1.416 . S
C435 C436 1.332 . S
C436 H415 0.929 . S
C436 C432 1.407 . S
C436 C435 1.332 . S
H437 C430 0.930 . S
H438 C461 0.930 . S
H439 C462 0.929 . S
O440 Tb396 2.465 . S
O440 C460 1.264 . S
O441 Tb396 2.387 . S
O441 C452 1.264 . S
O442 Tb407 2.349 . S
O442 C452 1.243 . S
O443 Tb396 2.428 . S
O443 C460 1.256 . S
O444 Tb396 2.308 . S
O444 C459 1.266 . S
O445 Tb407 2.393 . S
O445 C459 1.248 . S
O446 Tb407 2.465 . S
O446 C471 1.264 . S
O447 Tb407 2.387 . S
O447 C463 1.264 . S
O448 Tb396 2.349 . S
O448 C463 1.243 . S
O449 Tb407 2.428 . S
O449 C471 1.256 . S
O450 Tb407 2.308 . S
O450 C470 1.266 . S
O451 Tb396 2.393 . S
O451 C470 1.248 . S
C452 O441 1.264 . S
C452 O442 1.243 . S
C453 C456 1.399 . S
C453 C458 1.383 . S
C453 C460 1.496 . S
C454 C455 1.399 . S
C454 C458 1.389 . S
C455 C454 1.399 . S
C455 C457 1.380 . S
C455 H472 0.929 . S
C456 C453 1.399 . S
C456 C457 1.392 . S
C456 H473 0.929 . S
C457 C455 1.380 . S
C457 C456 1.392 . S
C457 H474 0.929 . S
C458 C453 1.383 . S
C458 C454 1.389 . S
C458 H475 0.931 . S
C459 O444 1.266 . S
C459 O445 1.248 . S
C460 Tb396 2.802 . S
C460 O440 1.264 . S
C460 O443 1.256 . S
C460 C453 1.496 . S
C461 C428 1.448 . S
C461 H438 0.930 . S
C461 C462 1.328 . S
C462 C433 1.427 . S
C462 H439 0.929 . S
C462 C461 1.328 . S
C463 O447 1.264 . S
C463 O448 1.243 . S
C464 C467 1.399 . S
C464 C468 1.383 . S
C464 C471 1.496 . S
C465 C466 1.399 . S
C465 C468 1.389 . S
C466 C465 1.399 . S
C466 C469 1.380 . S
C466 H476 0.929 . S
C467 C464 1.399 . S
C467 C469 1.392 . S
C467 H477 0.929 . S
C468 C464 1.383 . S
C468 C465 1.389 . S
C468 H478 0.931 . S
C469 C466 1.380 . S
C469 C467 1.392 . S
C469 H479 0.929 . S
C470 O450 1.266 . S
C470 O451 1.248 . S
C471 Tb407 2.802 . S
C471 O446 1.264 . S
C471 O449 1.256 . S
C471 C464 1.496 . S
H472 C455 0.929 . S
H473 C456 0.929 . S
H474 C457 0.929 . S
H475 C458 0.931 . S
H476 C466 0.929 . S
H477 C467 0.929 . S
H478 C468 0.931 . S
H479 C469 0.929 . S
Tb480 N509 2.617 . S
Tb480 N515 2.572 . S
Tb480 O524 2.465 . S
Tb480 O525 2.387 . S
Tb480 O527 2.428 . S
Tb480 O528 2.308 . S
Tb480 O532 2.349 . S
Tb480 O535 2.393 . S
Tb480 C544 2.802 . S
C481 N482 1.379 . S
C481 C484 1.416 . S
C481 C488 1.424 . S
N482 C481 1.379 . S
N482 C485 1.334 . S
N482 Tb491 2.617 . S
C483 C485 1.390 . S
C483 C486 1.339 . S
C483 H503 0.930 . S
C484 C481 1.416 . S
C484 C486 1.416 . S
C484 C490 1.448 . S
C485 N482 1.334 . S
C485 C483 1.390 . S
C485 H496 0.930 . S
C486 C483 1.339 . S
C486 C484 1.416 . S
C486 H507 0.930 . S
C487 C488 1.413 . S
C487 C489 1.427 . S
C487 C493 1.416 . S
C488 C481 1.424 . S
C488 C487 1.413 . S
C488 N492 1.361 . S
C489 C487 1.427 . S
C489 C490 1.328 . S
C489 H504 0.929 . S
C490 C484 1.448 . S
C490 C489 1.328 . S
C490 H505 0.930 . S
Tb491 N482 2.617 . S
Tb491 N492 2.572 . S
Tb491 O526 2.349 1_655 S
Tb491 O529 2.393 . S
Tb491 O530 2.465 . S
Tb491 O531 2.387 . S
Tb491 O533 2.428 . S
Tb491 O534 2.308 1_655 S
Tb491 C555 2.802 . S
N492 C488 1.361 . S
N492 Tb491 2.572 . S
N492 C494 1.340 . S
C493 C487 1.416 . S
C493 C495 1.332 . S
C493 H501 0.931 . S
C494 N492 1.340 . S
C494 C495 1.407 . S
C494 H500 0.930 . S
C495 C493 1.332 . S
C495 C494 1.407 . S
C495 H497 0.929 . S
H496 C485 0.930 . S
H497 C495 0.929 . S
H498 C513 0.930 . S
H499 C520 0.929 . S
H500 C494 0.930 . S
H501 C493 0.931 . S
H502 C516 0.930 . S
H503 C483 0.930 . S
H504 C489 0.929 . S
H505 C490 0.930 . S
H506 C511 0.930 . S
H507 C486 0.930 . S
H508 C519 0.931 . S
N509 Tb480 2.617 . S
N509 C510 1.379 . S
N509 C513 1.334 . S
C510 N509 1.379 . S
C510 C512 1.416 . S
C510 C518 1.424 . S
C511 H506 0.930 . S
C511 C513 1.390 . S
C511 C514 1.339 . S
C512 C510 1.416 . S
C512 C514 1.416 . S
C512 C545 1.448 . S
C513 H498 0.930 . S
C513 N509 1.334 . S
C513 C511 1.390 . S
C514 C511 1.339 . S
C514 C512 1.416 . S
C514 H521 0.930 . S
N515 Tb480 2.572 . S
N515 C516 1.340 . S
N515 C518 1.361 . S
C516 H502 0.930 . S
C516 N515 1.340 . S
C516 C520 1.407 . S
C517 C518 1.413 . S
C517 C519 1.416 . S
C517 C546 1.427 . S
C518 C510 1.424 . S
C518 N515 1.361 . S
C518 C517 1.413 . S
C519 H508 0.931 . S
C519 C517 1.416 . S
C519 C520 1.332 . S
C520 H499 0.929 . S
C520 C516 1.407 . S
C520 C519 1.332 . S
H521 C514 0.930 . S
H522 C545 0.930 . S
H523 C546 0.929 . S
O524 Tb480 2.465 . S
O524 C544 1.264 . S
O525 Tb480 2.387 . S
O525 C536 1.264 . S
O526 Tb491 2.349 1_455 S
O526 C536 1.243 . S
O527 Tb480 2.428 . S
O527 C544 1.256 . S
O528 Tb480 2.308 . S
O528 C543 1.266 1_455 S
O529 Tb491 2.393 . S
O529 C543 1.248 . S
O530 Tb491 2.465 . S
O530 C555 1.264 . S
O531 Tb491 2.387 . S
O531 C547 1.264 . S
O532 Tb480 2.349 . S
O532 C547 1.243 1_455 S
O533 Tb491 2.428 . S
O533 C555 1.256 . S
O534 Tb491 2.308 1_455 S
O534 C554 1.266 . S
O535 Tb480 2.393 . S
O535 C554 1.248 . S
C536 O525 1.264 . S
C536 O526 1.243 . S
C537 C540 1.399 . S
C537 C542 1.383 . S
C537 C544 1.496 . S
C538 C539 1.399 . S
C538 C542 1.389 . S
C539 C538 1.399 . S
C539 C541 1.380 . S
C539 H556 0.929 . S
C540 C537 1.399 . S
C540 C541 1.392 . S
C540 H557 0.929 . S
C541 C539 1.380 . S
C541 C540 1.392 . S
C541 H558 0.929 . S
C542 C537 1.383 . S
C542 C538 1.389 . S
C542 H559 0.931 . S
C543 O528 1.266 1_655 S
C543 O529 1.248 . S
C544 Tb480 2.802 . S
C544 O524 1.264 . S
C544 O527 1.256 . S
C544 C537 1.496 . S
C545 C512 1.448 . S
C545 H522 0.930 . S
C545 C546 1.328 . S
C546 C517 1.427 . S
C546 H523 0.929 . S
C546 C545 1.328 . S
C547 O531 1.264 . S
C547 O532 1.243 1_655 S
C548 C551 1.399 . S
C548 C552 1.383 . S
C548 C555 1.496 . S
C549 C550 1.399 . S
C549 C552 1.389 . S
C550 C549 1.399 . S
C550 C553 1.380 . S
C550 H560 0.929 . S
C551 C548 1.399 . S
C551 C553 1.392 . S
C551 H561 0.929 . S
C552 C548 1.383 . S
C552 C549 1.389 . S
C552 H562 0.931 . S
C553 C550 1.380 . S
C553 C551 1.392 . S
C553 H563 0.929 . S
C554 O534 1.266 . S
C554 O535 1.248 . S
C555 Tb491 2.802 . S
C555 O530 1.264 . S
C555 O533 1.256 . S
C555 C548 1.496 . S
H556 C539 0.929 . S
H557 C540 0.929 . S
H558 C541 0.929 . S
H559 C542 0.931 . S
H560 C550 0.929 . S
H561 C551 0.929 . S
H562 C552 0.931 . S
H563 C553 0.929 . S
Tb564 N593 2.617 . S
Tb564 N599 2.572 . S
Tb564 O608 2.465 . S
Tb564 O609 2.387 . S
Tb564 O611 2.428 . S
Tb564 O612 2.308 . S
Tb564 O616 2.349 . S
Tb564 O619 2.393 . S
Tb564 C628 2.802 . S
C565 N566 1.379 . S
C565 C568 1.416 . S
C565 C572 1.424 . S
N566 C565 1.379 . S
N566 C569 1.334 . S
N566 Tb575 2.617 . S
C567 C569 1.390 . S
C567 C570 1.339 . S
C567 H587 0.930 . S
C568 C565 1.416 . S
C568 C570 1.416 . S
C568 C574 1.448 . S
C569 N566 1.334 . S
C569 C567 1.390 . S
C569 H580 0.930 . S
C570 C567 1.339 . S
C570 C568 1.416 . S
C570 H591 0.930 . S
C571 C572 1.413 . S
C571 C573 1.427 . S
C571 C577 1.416 . S
C572 C565 1.424 . S
C572 C571 1.413 . S
C572 N576 1.361 . S
C573 C571 1.427 . S
C573 C574 1.328 . S
C573 H588 0.929 . S
C574 C568 1.448 . S
C574 C573 1.328 . S
C574 H589 0.930 . S
Tb575 N566 2.617 . S
Tb575 N576 2.572 . S
Tb575 O610 2.349 . S
Tb575 O613 2.393 . S
Tb575 O614 2.465 . S
Tb575 O615 2.387 . S
Tb575 O617 2.428 . S
Tb575 O618 2.308 . S
Tb575 C639 2.802 . S
N576 C572 1.361 . S
N576 Tb575 2.572 . S
N576 C578 1.340 . S
C577 C571 1.416 . S
C577 C579 1.332 . S
C577 H585 0.931 . S
C578 N576 1.340 . S
C578 C579 1.407 . S
C578 H584 0.930 . S
C579 C577 1.332 . S
C579 C578 1.407 . S
C579 H581 0.929 . S
H580 C569 0.930 . S
H581 C579 0.929 . S
H582 C597 0.930 . S
H583 C604 0.929 . S
H584 C578 0.930 . S
H585 C577 0.931 . S
H586 C600 0.930 . S
H587 C567 0.930 . S
H588 C573 0.929 . S
H589 C574 0.930 . S
H590 C595 0.930 . S
H591 C570 0.930 . S
H592 C603 0.931 . S
N593 Tb564 2.617 . S
N593 C594 1.379 . S
N593 C597 1.334 . S
C594 N593 1.379 . S
C594 C596 1.416 . S
C594 C602 1.424 . S
C595 H590 0.930 . S
C595 C597 1.390 . S
C595 C598 1.339 . S
C596 C594 1.416 . S
C596 C598 1.416 . S
C596 C629 1.448 . S
C597 H582 0.930 . S
C597 N593 1.334 . S
C597 C595 1.390 . S
C598 C595 1.339 . S
C598 C596 1.416 . S
C598 H605 0.930 . S
N599 Tb564 2.572 . S
N599 C600 1.340 . S
N599 C602 1.361 . S
C600 H586 0.930 . S
C600 N599 1.340 . S
C600 C604 1.407 . S
C601 C602 1.413 . S
C601 C603 1.416 . S
C601 C630 1.427 . S
C602 C594 1.424 . S
C602 N599 1.361 . S
C602 C601 1.413 . S
C603 H592 0.931 . S
C603 C601 1.416 . S
C603 C604 1.332 . S
C604 H583 0.929 . S
C604 C600 1.407 . S
C604 C603 1.332 . S
H605 C598 0.930 . S
H606 C629 0.930 . S
H607 C630 0.929 . S
O608 Tb564 2.465 . S
O608 C628 1.264 . S
O609 Tb564 2.387 . S
O609 C620 1.264 . S
O610 Tb575 2.349 . S
O610 C620 1.243 . S
O611 Tb564 2.428 . S
O611 C628 1.256 . S
O612 Tb564 2.308 . S
O612 C627 1.266 . S
O613 Tb575 2.393 . S
O613 C627 1.248 . S
O614 Tb575 2.465 . S
O614 C639 1.264 . S
O615 Tb575 2.387 . S
O615 C631 1.264 . S
O616 Tb564 2.349 . S
O616 C631 1.243 . S
O617 Tb575 2.428 . S
O617 C639 1.256 . S
O618 Tb575 2.308 . S
O618 C638 1.266 . S
O619 Tb564 2.393 . S
O619 C638 1.248 . S
C620 O609 1.264 . S
C620 O610 1.243 . S
C621 C624 1.399 . S
C621 C626 1.383 . S
C621 C628 1.496 . S
C622 C623 1.399 . S
C622 C626 1.389 . S
C623 C622 1.399 . S
C623 C625 1.380 . S
C623 H640 0.929 . S
C624 C621 1.399 . S
C624 C625 1.392 . S
C624 H641 0.929 . S
C625 C623 1.380 . S
C625 C624 1.392 . S
C625 H642 0.929 . S
C626 C621 1.383 . S
C626 C622 1.389 . S
C626 H643 0.931 . S
C627 O612 1.266 . S
C627 O613 1.248 . S
C628 Tb564 2.802 . S
C628 O608 1.264 . S
C628 O611 1.256 . S
C628 C621 1.496 . S
C629 C596 1.448 . S
C629 H606 0.930 . S
C629 C630 1.328 . S
C630 C601 1.427 . S
C630 H607 0.929 . S
C630 C629 1.328 . S
C631 O615 1.264 . S
C631 O616 1.243 . S
C632 C635 1.399 . S
C632 C636 1.383 . S
C632 C639 1.496 . S
C633 C634 1.399 . S
C633 C636 1.389 . S
C634 C633 1.399 . S
C634 C637 1.380 . S
C634 H644 0.929 . S
C635 C632 1.399 . S
C635 C637 1.392 . S
C635 H645 0.929 . S
C636 C632 1.383 . S
C636 C633 1.389 . S
C636 H646 0.931 . S
C637 C634 1.380 . S
C637 C635 1.392 . S
C637 H647 0.929 . S
C638 O618 1.266 . S
C638 O619 1.248 . S
C639 Tb575 2.802 . S
C639 O614 1.264 . S
C639 O617 1.256 . S
C639 C632 1.496 . S
H640 C623 0.929 . S
H641 C624 0.929 . S
H642 C625 0.929 . S
H643 C626 0.931 . S
H644 C634 0.929 . S
H645 C635 0.929 . S
H646 C636 0.931 . S
H647 C637 0.929 . S
C648 C649 1.387 . S
C648 H652 0.950 . S
C648 C657 1.390 . S
C649 C648 1.387 . S
C649 C651 1.387 . S
H650 C657 0.950 . S
C651 C649 1.387 . S
C651 C653 1.390 . S
C651 H655 0.950 . S
H652 C648 0.950 . S
C653 C651 1.390 . S
C653 C654 1.387 . S
C653 H656 0.950 . S
C654 C653 1.387 . S
C654 C657 1.387 . S
H655 C651 0.950 . S
H656 C653 0.950 . S
C657 C648 1.390 . S
C657 H650 0.950 . S
C657 C654 1.387 . S
C658 C659 1.387 . S
C658 H662 0.950 . S
C658 C667 1.390 . S
C659 C658 1.387 . S
C659 C661 1.387 . S
H660 C667 0.950 . S
C661 C659 1.387 . S
C661 C663 1.390 . S
C661 H665 0.950 . S
H662 C658 0.950 . S
C663 C661 1.390 . S
C663 C664 1.387 . S
C663 H666 0.950 . S
C664 C663 1.387 . S
C664 C667 1.387 . S
H665 C661 0.950 . S
H666 C663 0.950 . S
C667 C658 1.390 . S
C667 H660 0.950 . S
C667 C664 1.387 . S
C668 C669 1.387 . S
C668 H672 0.950 . S
C668 C677 1.390 . S
C669 C668 1.387 . S
C669 C671 1.387 . S
H670 C677 0.950 . S
C671 C669 1.387 . S
C671 C673 1.390 . S
C671 H675 0.950 . S
H672 C668 0.950 . S
C673 C671 1.390 . S
C673 C674 1.387 . S
C673 H676 0.950 . S
C674 C673 1.387 . S
C674 C677 1.387 . S
H675 C671 0.950 . S
H676 C673 0.950 . S
C677 C668 1.390 . S
C677 H670 0.950 . S
C677 C674 1.387 . S
C678 C679 1.387 . S
C678 H682 0.950 1_545 S
C678 C687 1.390 . S
C679 C678 1.387 . S
C679 C681 1.387 . S
H680 C687 0.950 . S
C681 C679 1.387 . S
C681 C683 1.390 . S
C681 H685 0.950 . S
H682 C678 0.950 1_565 S
C683 C681 1.390 . S
C683 C684 1.387 . S
C683 H686 0.950 . S
C684 C683 1.387 . S
C684 C687 1.387 . S
H685 C681 0.950 . S
H686 C683 0.950 . S
C687 C678 1.390 . S
C687 H680 0.950 . S
C687 C684 1.387 . S
C688 C689 1.387 . S
C688 H692 0.950 . S
C688 C697 1.390 . S
C689 C688 1.387 . S
C689 C691 1.387 . S
H690 C697 0.950 . S
C691 C689 1.387 . S
C691 C693 1.390 . S
C691 H695 0.956 . S
H692 C688 0.950 . S
C693 C691 1.390 . S
C693 C694 1.387 . S
C693 H696 0.950 . S
C694 C693 1.387 . S
C694 C697 1.387 . S
H695 C691 0.956 . S
H696 C693 0.950 . S
C697 C688 1.390 . S
C697 H690 0.950 . S
C697 C694 1.387 . S
C698 C699 1.387 . S
C698 H702 0.950 . S
C698 C707 1.390 . S
C699 C698 1.387 . S
C699 C701 1.387 . S
H700 C707 0.950 . S
C701 C699 1.387 . S
C701 C703 1.390 . S
C701 H705 0.950 . S
H702 C698 0.950 . S
C703 C701 1.390 . S
C703 C704 1.387 . S
C703 H706 0.950 . S
C704 C703 1.387 . S
C704 C707 1.387 . S
H705 C701 0.950 . S
H706 C703 0.950 . S
C707 C698 1.390 . S
C707 H700 0.950 . S
C707 C704 1.387 . S
C708 C709 1.387 . S
C708 H712 0.950 . S
C708 C717 1.390 . S
C709 C708 1.387 . S
C709 C711 1.387 . S
H710 C717 0.950 . S
C711 C709 1.387 . S
C711 C713 1.390 . S
C711 H715 0.950 . S
H712 C708 0.950 . S
C713 C711 1.390 . S
C713 C714 1.387 . S
C713 H716 0.950 . S
C714 C713 1.387 . S
C714 C717 1.387 . S
H715 C711 0.950 . S
H716 C713 0.950 . S
C717 C708 1.390 . S
C717 H710 0.950 . S
C717 C714 1.387 . S
C718 C719 1.387 . S
C718 H722 0.950 . S
C718 C727 1.390 . S
C719 C718 1.387 . S
C719 C721 1.387 . S
H720 C727 0.950 . S
C721 C719 1.387 . S
C721 C723 1.390 . S
C721 H725 0.950 1_565 S
H722 C718 0.950 . S
C723 C721 1.390 . S
C723 C724 1.387 . S
C723 H726 0.950 . S
C724 C723 1.387 . S
C724 C727 1.387 . S
H725 C721 0.950 1_545 S
H726 C723 0.950 . S
C727 C718 1.390 . S
C727 H720 0.950 . S
C727 C724 1.387 . S
C728 C729 1.387 . S
C728 H732 0.950 . S
C728 C737 1.390 . S
C729 C728 1.387 . S
C729 C731 1.387 . S
H730 C737 0.950 . S
C731 C729 1.387 . S
C731 C733 1.390 . S
C731 H735 0.950 . S
H732 C728 0.950 . S
C733 C731 1.390 . S
C733 C734 1.387 . S
C733 H736 0.950 . S
C734 C733 1.387 . S
C734 C737 1.387 . S
H735 C731 0.950 . S
H736 C733 0.950 . S
C737 C728 1.390 . S
C737 H730 0.950 . S
C737 C734 1.387 . S
C738 C739 1.387 . S
C738 H742 0.950 . S
C738 C747 1.390 . S
C739 C738 1.387 . S
C739 C741 1.387 . S
H740 C747 0.950 . S
C741 C739 1.387 . S
C741 C743 1.390 . S
C741 H745 0.950 . S
H742 C738 0.950 . S
C743 C741 1.390 . S
C743 C744 1.387 . S
C743 H746 0.950 . S
C744 C743 1.387 . S
C744 C747 1.387 . S
H745 C741 0.950 . S
H746 C743 0.950 . S
C747 C738 1.390 . S
C747 H740 0.950 . S
C747 C744 1.387 . S
C748 C749 1.387 . S
C748 H752 0.950 . S
C748 C757 1.390 . S
C749 C748 1.387 . S
C749 C751 1.387 . S
H750 C757 0.950 . S
C751 C749 1.387 . S
C751 C753 1.390 . S
C751 H755 0.950 . S
H752 C748 0.950 . S
C753 C751 1.390 . S
C753 C754 1.387 . S
C753 H756 0.950 . S
C754 C753 1.387 . S
C754 C757 1.387 . S
H755 C751 0.950 . S
H756 C753 0.950 . S
C757 C748 1.390 . S
C757 H750 0.950 . S
C757 C754 1.387 . S
C758 C759 1.387 . S
C758 H762 0.950 . S
C758 C767 1.390 . S
C759 C758 1.387 . S
C759 C761 1.387 . S
H760 C767 0.950 . S
C761 C759 1.387 . S
C761 C763 1.390 . S
C761 H765 0.950 . S
H762 C758 0.950 . S
C763 C761 1.390 . S
C763 C764 1.387 . S
C763 H766 0.950 . S
C764 C763 1.387 . S
C764 C767 1.387 . S
H765 C761 0.950 . S
H766 C763 0.950 . S
C767 C758 1.390 . S
C767 H760 0.950 . S
C767 C764 1.387 . S
C768 C769 1.387 . S
C768 H772 0.950 . S
C768 C777 1.390 . S
C769 C768 1.387 . S
C769 C771 1.387 . S
H770 C777 0.950 . S
C771 C769 1.387 . S
C771 C773 1.390 . S
C771 H775 0.950 . S
H772 C768 0.950 . S
C773 C771 1.390 . S
C773 C774 1.387 . S
C773 H776 0.950 . S
C774 C773 1.387 . S
C774 C777 1.387 . S
H775 C771 0.950 . S
H776 C773 0.950 . S
C777 C768 1.390 . S
C777 H770 0.950 . S
C777 C774 1.387 . S
C778 C779 1.387 . S
C778 H782 0.950 . S
C778 C787 1.390 . S
C779 C778 1.387 . S
C779 C781 1.387 . S
H780 C787 0.950 . S
C781 C779 1.387 . S
C781 C783 1.390 . S
C781 H785 0.950 . S
H782 C778 0.950 . S
C783 C781 1.390 . S
C783 C784 1.387 . S
C783 H786 0.950 . S
C784 C783 1.387 . S
C784 C787 1.387 . S
H785 C781 0.950 . S
H786 C783 0.950 . S
C787 C778 1.390 . S
C787 H780 0.950 . S
C787 C784 1.387 . S
C788 C789 1.387 . S
C788 H792 0.950 . S
C788 C797 1.390 . S
C789 C788 1.387 . S
C789 C791 1.387 . S
H790 C797 0.950 . S
C791 C789 1.387 . S
C791 C793 1.390 . S
C791 H795 0.950 . S
H792 C788 0.950 . S
C793 C791 1.390 . S
C793 C794 1.387 . S
C793 H796 0.950 . S
C794 C793 1.387 . S
C794 C797 1.387 . S
H795 C791 0.950 . S
H796 C793 0.950 . S
C797 C788 1.390 . S
C797 H790 0.950 . S
C797 C794 1.387 . S
C798 C799 1.387 . S
C798 H802 0.950 . S
C798 C807 1.390 . S
C799 C798 1.387 . S
C799 C801 1.387 . S
H800 C807 0.950 . S
C801 C799 1.387 . S
C801 C803 1.390 . S
C801 H805 0.950 . S
H802 C798 0.950 . S
C803 C801 1.390 . S
C803 C804 1.387 . S
C803 H806 0.950 . S
C804 C803 1.387 . S
C804 C807 1.387 . S
H805 C801 0.950 . S
H806 C803 0.950 . S
C807 C798 1.390 . S
C807 H800 0.950 . S
C807 C804 1.387 . S
C808 C809 1.387 . S
C808 H812 0.950 . S
C808 C817 1.390 . S
C809 C808 1.387 . S
C809 C811 1.387 . S
H810 C817 0.950 1_655 S
C811 C809 1.387 . S
C811 C813 1.390 . S
C811 H815 0.950 . S
H812 C808 0.950 . S
C813 C811 1.390 . S
C813 C814 1.387 . S
C813 H816 0.950 . S
C814 C813 1.387 . S
C814 C817 1.387 . S
H815 C811 0.950 . S
H816 C813 0.950 . S
C817 C808 1.390 . S
C817 H810 0.950 1_455 S
C817 C814 1.387 . S
C818 C819 1.387 . S
C818 H822 0.950 . S
C818 C827 1.390 . S
C819 C818 1.387 . S
C819 C821 1.387 . S
H820 C827 0.950 . S
C821 C819 1.387 . S
C821 C823 1.390 . S
C821 H825 0.950 . S
H822 C818 0.950 . S
C823 C821 1.390 . S
C823 C824 1.387 . S
C823 H826 0.950 . S
C824 C823 1.387 . S
C824 C827 1.387 . S
H825 C821 0.950 . S
H826 C823 0.950 . S
C827 C818 1.390 . S
C827 H820 0.950 . S
C827 C824 1.387 . S
C828 C829 1.387 . S
C828 H832 0.950 . S
C828 C837 1.390 . S
C829 C828 1.387 . S
C829 C831 1.387 . S
H830 C837 0.950 . S
C831 C829 1.387 . S
C831 C833 1.390 . S
C831 H835 0.950 . S
H832 C828 0.950 . S
C833 C831 1.390 . S
C833 C834 1.387 . S
C833 H836 0.950 . S
C834 C833 1.387 . S
C834 C837 1.387 . S
H835 C831 0.950 . S
H836 C833 0.950 . S
C837 C828 1.390 . S
C837 H830 0.950 . S
C837 C834 1.387 . S
C838 C839 1.387 . S
C838 H842 0.950 . S
C838 C847 1.390 . S
C839 C838 1.387 . S
C839 C841 1.387 . S
H840 C847 0.950 . S
C841 C839 1.387 . S
C841 C843 1.390 . S
C841 H845 0.950 . S
H842 C838 0.950 . S
C843 C841 1.390 . S
C843 C844 1.387 . S
C843 H846 0.950 . S
C844 C843 1.387 . S
C844 C847 1.387 . S
H845 C841 0.950 . S
H846 C843 0.950 . S
C847 C838 1.390 . S
C847 H840 0.950 . S
C847 C844 1.387 . S
C848 C849 1.387 . S
C848 H852 0.950 . S
C848 C857 1.390 . S
C849 C848 1.387 . S
C849 C851 1.387 . S
H850 C857 0.950 1_455 S
C851 C849 1.387 . S
C851 C853 1.390 . S
C851 H855 0.950 . S
H852 C848 0.950 . S
C853 C851 1.390 . S
C853 C854 1.387 . S
C853 H856 0.950 . S
C854 C853 1.387 . S
C854 C857 1.387 . S
H855 C851 0.950 . S
H856 C853 0.950 . S
C857 C848 1.390 . S
C857 H850 0.950 1_655 S
C857 C854 1.387 . S
C858 C859 1.387 . S
C858 H862 0.950 . S
C858 C867 1.390 . S
C859 C858 1.387 . S
C859 C861 1.387 . S
H860 C867 0.950 . S
C861 C859 1.387 . S
C861 C863 1.390 . S
C861 H865 0.950 . S
H862 C858 0.950 . S
C863 C861 1.390 . S
C863 C864 1.387 . S
C863 H866 0.950 . S
C864 C863 1.387 . S
C864 C867 1.387 . S
H865 C861 0.950 . S
H866 C863 0.950 . S
C867 C858 1.390 . S
C867 H860 0.950 . S
C867 C864 1.387 . S
C868 C869 1.387 . S
C868 H872 0.950 . S
C868 C877 1.390 . S
C869 C868 1.387 . S
C869 C871 1.387 . S
H870 C877 0.950 . S
C871 C869 1.387 . S
C871 C873 1.390 . S
C871 H875 0.950 . S
H872 C868 0.950 . S
C873 C871 1.390 . S
C873 C874 1.387 . S
C873 H876 0.950 . S
C874 C873 1.387 . S
C874 C877 1.387 . S
H875 C871 0.950 . S
H876 C873 0.950 . S
C877 C868 1.390 . S
C877 H870 0.950 . S
C877 C874 1.387 . S
C878 C879 1.387 . S
C878 H882 0.950 . S
C878 C887 1.390 . S
C879 C878 1.387 . S
C879 C881 1.387 . S
H880 C887 0.950 . S
C881 C879 1.387 . S
C881 C883 1.390 . S
C881 H885 0.950 . S
H882 C878 0.950 . S
C883 C881 1.390 . S
C883 C884 1.387 . S
C883 H886 0.950 . S
C884 C883 1.387 . S
C884 C887 1.387 . S
H885 C881 0.950 . S
H886 C883 0.950 . S
C887 C878 1.390 . S
C887 H880 0.950 . S
C887 C884 1.387 . S
C649 C235 1.485 1_545 S
C654 C386 1.476 . S
C664 C470 1.474 . S
C659 C289 1.485 . S
C674 C463 1.483 . S
C669 C157 1.481 . S
C679 C211 1.481 1_545 S
C684 C379 1.481 . S
C694 C543 1.475 . S
C689 C79 1.488 1_565 S
C704 C627 1.477 . S
C699 C118 1.491 . S
C709 C1 1.484 . S
C714 C620 1.483 . S
C719 C40 1.487 1_565 S
C724 C536 1.486 . S
C734 C370 1.316 . S
C729 C55 1.518 . S
C744 C454 1.321 . S
C739 C16 1.519 . S
C754 C465 1.397 . S
C749 C133 1.533 . S
C764 C381 1.400 . S
C759 C94 1.534 . S
C774 C549 1.325 . S
C769 C196 1.526 . S
C779 C172 1.524 . S
C784 C633 1.324 . S
C794 C622 1.399 . S
C789 C274 1.540 . S
C799 C250 1.538 . S
C804 C538 1.399 . S
C814 C368 1.577 . S
C809 C21 1.572 . S
C824 C452 1.580 . S
C819 C60 1.575 . S
C829 C99 1.559 . S
C834 C459 1.560 . S
C844 C375 1.563 . S
C839 C138 1.563 . S
C854 C547 1.582 . S
C849 C177 1.569 . S
C859 C216 1.573 . S
C864 C631 1.583 . S
C869 C255 1.560 . S
C874 C638 1.568 . S
C879 C294 1.560 . S
C884 C554 1.568 . S
