# Generated by pormake.
# Topology anh, (6,3)-cn, num edge types: 1
# Building blocks:
#     Node 0, Type 0, BuildingBlock: GEDQOX_clean_sbu_0, # of connection points: 6
#     Node 1, Type 0, BuildingBlock: GEDQOX_clean_sbu_0, # of connection points: 6
#     Node 2, Type 0, BuildingBlock: GEDQOX_clean_sbu_0, # of connection points: 6
#     Node 3, Type 1, BuildingBlock: MIDCAF_clean_linker_0, # of connection points: 3
#     Node 4, Type 1, BuildingBlock: MIDCAF_clean_linker_0, # of connection points: 3
#     Node 5, Type 1, BuildingBlock: MIDCAF_clean_linker_0, # of connection points: 3
#     Node 6, Type 1, BuildingBlock: MIDCAF_clean_linker_0, # of connection points: 3
#     Node 7, Type 1, BuildingBlock: MIDCAF_clean_linker_0, # of connection points: 3
#     Node 8, Type 1, BuildingBlock: MIDCAF_clean_linker_0, # of connection points: 3
#     Edge 9, Type (0, 1), BuildingBlock: ZUJKAS_clean_linker_0, # of connection points: 2
#     Edge 10, Type (0, 1), BuildingBlock: ZUJKAS_clean_linker_0, # of connection points: 2
#     Edge 11, Type (0, 1), BuildingBlock: ZUJKAS_clean_linker_0, # of connection points: 2
#     Edge 12, Type (0, 1), BuildingBlock: ZUJKAS_clean_linker_0, # of connection points: 2
#     Edge 13, Type (0, 1), BuildingBlock: ZUJKAS_clean_linker_0, # of connection points: 2
#     Edge 14, Type (0, 1), BuildingBlock: ZUJKAS_clean_linker_0, # of connection points: 2
#     Edge 15, Type (0, 1), BuildingBlock: ZUJKAS_clean_linker_0, # of connection points: 2
#     Edge 16, Type (0, 1), BuildingBlock: ZUJKAS_clean_linker_0, # of connection points: 2
#     Edge 17, Type (0, 1), BuildingBlock: ZUJKAS_clean_linker_0, # of connection points: 2
#     Edge 18, Type (0, 1), BuildingBlock: ZUJKAS_clean_linker_0, # of connection points: 2
#     Edge 19, Type (0, 1), BuildingBlock: ZUJKAS_clean_linker_0, # of connection points: 2
#     Edge 20, Type (0, 1), BuildingBlock: ZUJKAS_clean_linker_0, # of connection points: 2
#     Edge 21, Type (0, 1), BuildingBlock: ZUJKAS_clean_linker_0, # of connection points: 2
#     Edge 22, Type (0, 1), BuildingBlock: ZUJKAS_clean_linker_0, # of connection points: 2
#     Edge 23, Type (0, 1), BuildingBlock: ZUJKAS_clean_linker_0, # of connection points: 2
#     Edge 24, Type (0, 1), BuildingBlock: ZUJKAS_clean_linker_0, # of connection points: 2
#     Edge 25, Type (0, 1), BuildingBlock: ZUJKAS_clean_linker_0, # of connection points: 2
#     Edge 26, Type (0, 1), BuildingBlock: ZUJKAS_clean_linker_0, # of connection points: 2
# Relax obj value: 0.162
# Max RMSD: 0.200
# Mean RMSD: 0.152
data_MOF--net-anh--node1-GEDQOX_clean_sbu_0--node2-MIDCAF_clean_linker_0--edge1-ZUJKAS_clean_linker_0
_symmetry_space_group_name_H-M    P1
_symmetry_Int_Tables_number       1
_symmetry_cell_setting            triclinic
loop_
_symmetry_equiv_pos_as_xyz
'x, y, z'
_cell_length_a     45.593782
_cell_length_b     44.162283
_cell_length_c     82.356268
_cell_angle_alpha  92.716502
_cell_angle_beta   90.977726
_cell_angle_gamma 108.6559
loop_
_atom_site_label
_atom_site_type_symbol
_atom_site_fract_x
_atom_site_fract_y
_atom_site_fract_z
_atom_type_partial_charge
Nd0 Nd 0.0721 0.54171 0.1445 0.0
Nd1 Nd 0.05015 0.47003 0.14906 0.0
C2 C 0.10005 0.60001 0.13498 0.0
C3 C 0.1305 0.62422 0.13841 0.0
C4 C 0.14129 0.64986 0.12832 0.0
C5 C 0.16997 0.67336 0.13177 0.0
C6 C 0.18832 0.67163 0.14541 0.0
C7 C 0.17746 0.6455 0.15534 0.0
C8 C 0.14889 0.62197 0.15183 0.0
C9 C 0.06546 0.5258 0.17628 0.0
C10 C 0.12449 0.50323 0.14732 0.0
C11 C 1.02328 0.41209 0.15935 0.0
C12 C 0.9919 0.38936 0.16141 0.0
C13 C 0.98243 0.3802 0.17707 0.0
C14 C 0.95325 0.3581 0.17935 0.0
C15 C 0.93295 0.34446 0.16598 0.0
C16 C 0.94238 0.3537 0.15029 0.0
C17 C 0.97153 0.376 0.14802 0.0
C18 C 0.05847 0.48688 0.11749 0.0
C19 C 0.9978 0.50789 0.14523 0.0
O20 O 0.10009 0.57405 0.12664 0.0
O21 O 0.08144 0.59405 0.14719 0.0
O22 O 0.05909 0.55007 0.17074 0.0
O23 O 0.0768 0.51222 0.16544 0.0
O24 O 0.11796 0.52893 0.14288 0.0
O25 O 0.10245 0.47788 0.15209 0.0
O26 O 1.03174 0.43799 0.16903 0.0
O27 O 1.03272 0.41737 0.14451 0.0
O28 O 0.06531 0.46279 0.123 0.0
O29 O 0.04612 0.49962 0.12819 0.0
O30 O 1.00444 0.48309 0.15087 0.0
O31 O 1.01988 0.53234 0.1397 0.0
H32 H 0.12747 0.65179 0.11782 0.0
H33 H 0.1778 0.6928 0.1237 0.0
H34 H 0.19069 0.64354 0.16605 0.0
H35 H 0.14095 0.6022 0.15972 0.0
H36 H 0.99777 0.38995 0.18757 0.0
H37 H 0.94685 0.35116 0.19156 0.0
H38 H 0.92714 0.34383 0.13977 0.0
H39 H 0.97809 0.38261 0.13578 0.0
Nd40 Nd 0.51106 0.99694 0.51659 0.0
Nd41 Nd 0.58278 0.02242 0.50573 0.0
C42 C 0.45765 0.96839 0.52988 0.0
C43 C 0.43189 0.93877 0.52583 0.0
C44 C 0.41346 0.92245 0.53813 0.0
C45 C 0.38926 0.89397 0.53435 0.0
C46 C 0.38306 0.88134 0.51816 0.0
C47 C 0.40171 0.89791 0.50588 0.0
C48 C 0.42597 0.92621 0.50969 0.0
C49 C 0.521 1.00149 0.48389 0.0
C50 C 0.55102 0.94584 0.51116 0.0
C51 C 0.63148 0.0453 0.48784 0.0
C52 C 0.65758 0.07516 0.48733 0.0
C53 C 0.67166 0.08392 0.47253 0.0
C54 C 0.69575 0.11278 0.47165 0.0
C55 C 0.70622 0.13339 0.48559 0.0
C56 C 0.69215 0.12441 0.50046 0.0
C57 C 0.66789 0.09558 0.50131 0.0
C58 C 0.57801 0.02862 0.53913 0.0
C59 C 0.54485 0.07313 0.51487 0.0
O60 O 0.48374 0.96467 0.53467 0.0
O61 O 0.46153 0.99118 0.51971 0.0
O62 O 0.49681 0.00543 0.49058 0.0
O63 O 0.537 0.99273 0.49409 0.0
O64 O 0.5259 0.95158 0.51652 0.0
O65 O 0.57469 0.96824 0.50525 0.0
O66 O 0.60413 0.04739 0.48411 0.0
O67 O 0.63138 0.02759 0.50022 0.0
O68 O 0.60458 0.03625 0.53213 0.0
O69 O 0.5571 0.01903 0.5283 0.0
O70 O 0.56594 0.06656 0.50569 0.0
O71 O 0.52439 0.05088 0.52281 0.0
H72 H 0.4179 0.93166 0.55068 0.0
H73 H 0.3757 0.88164 0.54414 0.0
H74 H 0.39737 0.88925 0.49326 0.0
H75 H 0.44008 0.93834 0.50001 0.0
H76 H 0.66389 0.06848 0.46162 0.0
H77 H 0.70635 0.11886 0.46006 0.0
H78 H 0.69948 0.13994 0.51136 0.0
H79 H 0.65702 0.08937 0.51282 0.0
Nd80 Nd 0.51694 0.49709 0.83458 0.0
Nd81 Nd 0.58267 0.51957 0.84811 0.0
C82 C 0.46604 0.49281 0.81761 0.0
C83 C 0.45001 0.51647 0.81578 0.0
C84 C 0.43019 0.51447 0.8023 0.0
C85 C 0.4162 0.53812 0.80038 0.0
C86 C 0.42206 0.56414 0.8119 0.0
C87 C 0.44243 0.56618 0.82522 0.0
C88 C 0.45611 0.54252 0.82717 0.0
C89 C 0.52206 0.49745 0.86781 0.0
C90 C 0.55304 0.57448 0.84315 0.0
C91 C 0.6357 0.52507 0.86317 0.0
C92 C 0.65783 0.50815 0.85939 0.0
C93 C 0.68648 0.51649 0.86777 0.0
C94 C 0.7086 0.50243 0.86287 0.0
C95 C 0.70233 0.48001 0.84946 0.0
C96 C 0.67312 0.47098 0.84148 0.0
C97 C 0.65106 0.48495 0.84641 0.0
C98 C 0.57738 0.51842 0.81484 0.0
C99 C 0.54645 0.4418 0.83992 0.0
O100 O 0.49337 0.50031 0.81128 0.0
O101 O 0.46576 0.48188 0.83212 0.0
O102 O 0.50112 0.47552 0.85908 0.0
O103 O 0.53813 0.51902 0.85917 0.0
O104 O 0.53248 0.55234 0.83378 0.0
O105 O 0.57284 0.56682 0.85267 0.0
O106 O 0.60897 0.50734 0.86827 0.0
O107 O 0.63291 0.54436 0.85212 0.0
O108 O 0.59829 0.54049 0.82342 0.0
O109 O 0.56156 0.49721 0.8237 0.0
O110 O 0.56823 0.46427 0.84852 0.0
O111 O 0.52511 0.44886 0.83129 0.0
H112 H 0.42554 0.49466 0.7933 0.0
H113 H 0.40039 0.53573 0.79008 0.0
H114 H 0.44791 0.58618 0.83414 0.0
H115 H 0.47167 0.54469 0.83757 0.0
H116 H 0.69208 0.5345 0.87774 0.0
H117 H 0.73108 0.51016 0.86911 0.0
H118 H 0.66757 0.45361 0.83122 0.0
H119 H 0.62902 0.47837 0.83975 0.0
C120 C 0.47375 0.90894 0.22202 0.0
C121 C 0.46751 0.91272 0.20562 0.0
C122 C 0.48604 0.93998 0.19816 0.0
C123 C 0.51025 0.96302 0.20696 0.0
H124 H 0.59366 0.0396 0.20232 0.0
H125 H 0.63486 0.08096 0.18985 0.0
H126 H 0.67445 0.11864 0.23752 0.0
H127 H 0.63329 0.07809 0.24996 0.0
H128 H 0.601 0.05074 0.28116 0.0
H129 H 0.59986 0.05061 0.31073 0.0
H130 H 0.52294 0.96251 0.30715 0.0
H131 H 0.52423 0.96224 0.27763 0.0
H132 H 0.5015 0.92836 0.24351 0.0
H133 H 0.45966 0.88841 0.22818 0.0
H134 H 0.48186 0.94342 0.1855 0.0
H135 H 0.52398 0.98385 0.2009 0.0
N136 N 0.56294 0.00753 0.22588 0.0
N137 N 0.58502 0.02964 0.25147 0.0
N138 N 0.54101 0.98413 0.24969 0.0
C139 C 0.58529 0.03026 0.23498 0.0
C140 C 0.56299 0.00672 0.25893 0.0
C141 C 0.54073 0.98432 0.23319 0.0
C142 C 0.61001 0.05542 0.22717 0.0
C143 C 0.61108 0.05678 0.21015 0.0
C144 C 0.6348 0.0804 0.20298 0.0
C145 C 0.65792 0.10322 0.21268 0.0
C146 C 0.65675 0.10184 0.22968 0.0
C147 C 0.63315 0.07833 0.23682 0.0
C148 C 0.56269 0.00651 0.27694 0.0
C149 C 0.58388 0.03125 0.28664 0.0
C150 C 0.58315 0.0313 0.30361 0.0
C151 C 0.56132 0.00656 0.31128 0.0
C152 C 0.5403 0.98172 0.30161 0.0
C153 C 0.54094 0.9817 0.28466 0.0
C154 C 0.51612 0.95946 0.22347 0.0
C155 C 0.49765 0.93204 0.23084 0.0
C156 C 0.51907 0.39549 0.55533 0.0
C157 C 0.53234 0.39315 0.54026 0.0
C158 C 0.54608 0.42141 0.53216 0.0
C159 C 0.54686 0.45136 0.53917 0.0
H160 H 0.56003 0.55744 0.53304 0.0
H161 H 0.56553 0.60924 0.52154 0.0
H162 H 0.53027 0.63993 0.56551 0.0
H163 H 0.52563 0.58934 0.57698 0.0
H164 H 0.5449 0.56438 0.60989 0.0
H165 H 0.54702 0.56567 0.63951 0.0
H166 H 0.54018 0.46571 0.63763 0.0
H167 H 0.53746 0.46412 0.6081 0.0
H168 H 0.51007 0.4258 0.57413 0.0
H169 H 0.50871 0.3744 0.56205 0.0
H170 H 0.55641 0.42037 0.52049 0.0
H171 H 0.5581 0.47279 0.53287 0.0
N172 N 0.53983 0.51176 0.5553 0.0
N173 N 0.54192 0.53988 0.58053 0.0
N174 N 0.53796 0.48589 0.57976 0.0
C175 C 0.54166 0.53949 0.56401 0.0
C176 C 0.54025 0.51331 0.58851 0.0
C177 C 0.53767 0.4847 0.56325 0.0
C178 C 0.54286 0.56935 0.55603 0.0
C179 C 0.55334 0.57527 0.54016 0.0
C180 C 0.55644 0.60492 0.53358 0.0
C181 C 0.54894 0.62909 0.54272 0.0
C182 C 0.53724 0.62242 0.55829 0.0
C183 C 0.5344 0.59316 0.56485 0.0
C184 C 0.54104 0.51415 0.60655 0.0
C185 C 0.54374 0.54261 0.61577 0.0
C186 C 0.54512 0.54343 0.63276 0.0
C187 C 0.54379 0.5158 0.64093 0.0
C188 C 0.54084 0.48731 0.63172 0.0
C189 C 0.53948 0.48648 0.61475 0.0
C190 C 0.5344 0.45352 0.55452 0.0
C191 C 0.52012 0.42515 0.56235 0.0
C192 C 0.99438 0.5083 0.86611 0.0
C193 C 0.99547 0.50317 0.84916 0.0
C194 C 1.02314 0.51847 0.84141 0.0
C195 C 0.04866 0.53927 0.85032 0.0
H196 H 0.12957 0.61082 0.84498 0.0
H197 H 0.17523 0.64031 0.83107 0.0
H198 H 0.21655 0.6898 0.87653 0.0
H199 H 0.17092 0.65921 0.89069 0.0
H200 H 0.14403 0.62276 0.92419 0.0
H201 H 0.14415 0.619 0.95374 0.0
H202 H 0.05068 0.55311 0.94991 0.0
H203 H 0.05021 0.55723 0.92073 0.0
H204 H 1.01776 0.53255 0.88795 0.0
H205 H 0.97334 0.4977 0.87252 0.0
H206 H 1.02493 0.51484 0.82841 0.0
H207 H 0.06944 0.55113 0.84395 0.0
N208 N 0.09683 0.58892 0.86901 0.0
N209 N 0.12074 0.61124 0.89424 0.0
N210 N 0.07355 0.56931 0.89311 0.0
C211 C 0.1206 0.61061 0.87769 0.0
C212 C 0.09714 0.5906 0.90203 0.0
C213 C 0.07322 0.56822 0.87663 0.0
C214 C 0.14677 0.63206 0.86905 0.0
C215 C 0.14813 0.62827 0.85206 0.0
C216 C 0.17431 0.64558 0.84399 0.0
C217 C 0.19977 0.66736 0.85266 0.0
C218 C 0.19755 0.67282 0.86951 0.0
C219 C 0.17138 0.65527 0.87763 0.0
C220 C 0.09717 0.59022 0.92003 0.0
C221 C 0.12341 0.60775 0.92969 0.0
C222 C 0.12356 0.60547 0.9466 0.0
C223 C 0.0974 0.58582 0.95418 0.0
C224 C 0.07104 0.56888 0.94452 0.0
C225 C 0.07091 0.57105 0.92771 0.0
C226 C 0.0471 0.54495 0.86718 0.0
C227 C 1.01988 0.52871 0.875 0.0
C228 C 0.14585 0.59689 0.43691 0.0
C229 C 0.14129 0.60397 0.45331 0.0
C230 C 0.11536 0.58393 0.4609 0.0
C231 C 0.09426 0.55773 0.4522 0.0
H232 H 1.01764 0.47474 0.45702 0.0
H233 H 0.97496 0.43493 0.46947 0.0
H234 H 0.94563 0.38627 0.42235 0.0
H235 H 0.98749 0.42595 0.40991 0.0
H236 H 1.0183 0.45329 0.37882 0.0
H237 H 1.02107 0.45036 0.34932 0.0
H238 H 0.10376 0.53291 0.35221 0.0
H239 H 0.1014 0.53567 0.38172 0.0
H240 H 0.12912 0.5664 0.41559 0.0
H241 H 0.16589 0.61134 0.43076 0.0
H242 H 0.111 0.58883 0.47347 0.0
H243 H 0.07434 0.54304 0.45836 0.0
N244 N 0.0525 0.50224 0.43352 0.0
N245 N 1.03432 0.47557 0.4082 0.0
N246 N 0.07808 0.52132 0.40973 0.0
C247 C 1.03166 0.4778 0.42459 0.0
C248 C 0.0574 0.49717 0.40066 0.0
C249 C 0.07586 0.52409 0.42614 0.0
C250 C 1.00605 0.45373 0.43243 0.0
C251 C 1.00204 0.45558 0.44932 0.0
C252 C 0.97766 0.43269 0.45647 0.0
C253 C 0.95674 0.40754 0.44689 0.0
C254 C 0.96092 0.40566 0.43006 0.0
C255 C 0.98517 0.42841 0.42293 0.0
C256 C 0.05958 0.49479 0.38271 0.0
C257 C 1.03719 0.47078 0.37321 0.0
C258 C 1.03866 0.46916 0.35627 0.0
C259 C 0.06259 0.49143 0.34842 0.0
C260 C 0.08523 0.51515 0.3579 0.0
C261 C 0.08373 0.51684 0.37484 0.0
C262 C 0.09858 0.55107 0.4357 0.0
C263 C 0.12476 0.57089 0.42822 0.0
C264 C 0.58335 0.12397 0.7978 0.0
C265 C 0.56607 0.12561 0.81157 0.0
C266 C 0.55173 0.09724 0.81947 0.0
C267 C 0.55306 0.06763 0.81304 0.0
H268 H 0.55239 0.9651 0.82057 0.0
H269 H 0.55401 0.91602 0.83292 0.0
H270 H 0.5799 0.88241 0.78702 0.0
H271 H 0.57828 0.93067 0.77477 0.0
H272 H 0.55681 0.95633 0.74237 0.0
H273 H 0.5534 0.95603 0.71275 0.0
H274 H 0.56172 0.05638 0.71591 0.0
H275 H 0.56451 0.05666 0.74535 0.0
H276 H 0.59706 0.0943 0.78035 0.0
H277 H 0.5955 0.14539 0.7917 0.0
H278 H 0.5383 0.09771 0.83014 0.0
H279 H 0.5406 0.04594 0.81884 0.0
N280 N 0.56537 0.00851 0.79755 0.0
N281 N 0.56254 0.98062 0.77216 0.0
N282 N 0.56462 0.03414 0.77325 0.0
C283 C 0.56397 0.98106 0.7887 0.0
C284 C 0.56267 0.00699 0.76434 0.0
C285 C 0.56597 0.03526 0.78974 0.0
C286 C 0.56513 0.9519 0.79666 0.0
C287 C 0.55852 0.94725 0.81317 0.0
C288 C 0.55931 0.91913 0.82022 0.0
C289 C 0.56731 0.89548 0.81096 0.0
C290 C 0.57409 0.90034 0.79454 0.0
C291 C 0.57289 0.92802 0.78749 0.0
C292 C 0.56088 0.00649 0.74631 0.0
C293 C 0.55787 0.97833 0.73676 0.0
C294 C 0.55604 0.97817 0.71976 0.0
C295 C 0.55714 0.00614 0.71195 0.0
C296 C 0.56024 0.03426 0.72152 0.0
C297 C 0.56205 0.03444 0.73845 0.0
C298 C 0.56857 0.06606 0.79858 0.0
C299 C 0.58441 0.09465 0.79135 0.0
C300 C 0.67388 0.53205 0.12254 0.0
C301 C 0.67935 0.51366 0.13504 0.0
C302 C 0.65346 0.4956 0.14359 0.0
C303 C 0.62311 0.49527 0.13938 0.0
H304 H 0.51947 0.54152 0.14309 0.0
H305 H 0.4678 0.54214 0.15095 0.0
H306 H 0.42625 0.45296 0.12295 0.0
H307 H 0.47744 0.45255 0.11524 0.0
H308 H 0.50356 0.48212 0.07507 0.0
H309 H 0.5001 0.481 0.04552 0.0
H310 H 0.59979 0.52087 0.04427 0.0
H311 H 0.60333 0.52097 0.07375 0.0
H312 H 0.64085 0.54521 0.10819 0.0
H313 H 0.69273 0.54593 0.11543 0.0
H314 H 0.65657 0.48132 0.1534 0.0
H315 H 0.60371 0.48016 0.14573 0.0
N316 N 0.56025 0.50458 0.12811 0.0
N317 N 0.53041 0.49857 0.10374 0.0
N318 N 0.58352 0.50713 0.10264 0.0
C319 C 0.53211 0.49989 0.12025 0.0
C320 C 0.55591 0.50233 0.09485 0.0
C321 C 0.58621 0.50806 0.11913 0.0
C322 C 0.50269 0.49666 0.12879 0.0
C323 C 0.49932 0.52152 0.13914 0.0
C324 C 0.4696 0.52211 0.1434 0.0
C325 C 0.44251 0.49767 0.13754 0.0
C326 C 0.44626 0.47204 0.1279 0.0
C327 C 0.47576 0.47172 0.12351 0.0
C328 C 0.55373 0.5016 0.07683 0.0
C329 C 0.52476 0.49063 0.0685 0.0
C330 C 0.52276 0.49015 0.05152 0.0
C331 C 0.54965 0.5009 0.04245 0.0
C332 C 0.57861 0.5119 0.0508 0.0
C333 C 0.58063 0.51212 0.06776 0.0
C334 C 0.61787 0.51271 0.12639 0.0
C335 C 0.64384 0.53153 0.11831 0.0
H336 H 0.17722 0.55263 0.14093 0.0
H337 H 0.23075 0.55203 0.14003 0.0
H338 H 0.20058 0.45331 0.15234 0.0
H339 H 0.147 0.45362 0.15318 0.0
H340 H 0.26933 0.53939 0.16399 0.0
H341 H 0.25031 0.45057 0.11177 0.0
H342 H 0.22248 0.47042 0.11699 0.0
H343 H 0.22485 0.43733 0.12824 0.0
C344 C 0.18185 0.5307 0.14341 0.0
C345 C 0.15745 0.5031 0.14704 0.0
C346 C 0.21264 0.53043 0.14292 0.0
C347 C 0.21996 0.5025 0.14586 0.0
C348 C 0.19571 0.47504 0.14969 0.0
H349 H 0.38928 0.44882 0.14399 0.0
H350 H 0.3366 0.45095 0.14661 0.0
C351 C 0.16495 0.47532 0.15027 0.0
C352 C 0.25287 0.50216 0.14506 0.0
H353 H 0.29927 0.46543 0.12553 0.0
C354 C 0.27587 0.52329 0.15553 0.0
C355 C 0.2617 0.48117 0.13407 0.0
C356 C 0.23866 0.45876 0.12201 0.0
C357 C 0.30697 0.5235 0.15558 0.0
C358 C 0.31587 0.50255 0.14455 0.0
C359 C 0.29281 0.48151 0.13405 0.0
C360 C 0.34873 0.50187 0.14367 0.0
C361 C 0.32976 0.54555 0.16787 0.0
C362 C 0.37368 0.52971 0.14113 0.0
C363 C 0.40408 0.52857 0.13971 0.0
C364 C 0.41048 0.49946 0.14052 0.0
C365 C 0.38547 0.47168 0.14315 0.0
C366 C 0.35515 0.47287 0.14468 0.0
H367 H 0.31784 0.55225 0.17844 0.0
H368 H 0.3467 0.53435 0.17241 0.0
H369 H 0.34264 0.56789 0.16207 0.0
H370 H 0.3696 0.55231 0.13982 0.0
H371 H 0.42241 0.55039 0.13737 0.0
H372 H 0.75634 0.15959 0.50649 0.0
H373 H 0.799 0.2097 0.50405 0.0
H374 H 0.75632 0.22641 0.45972 0.0
H375 H 0.71349 0.17677 0.4622 0.0
H376 H 0.83896 0.22444 0.47723 0.0
H377 H 0.77616 0.31223 0.48673 0.0
H378 H 0.76109 0.27148 0.49278 0.0
H379 H 0.75776 0.28036 0.47188 0.0
C380 C 0.75585 0.17421 0.49636 0.0
C381 C 0.73158 0.16423 0.48452 0.0
C382 C 0.78026 0.20272 0.49495 0.0
C383 C 0.78058 0.22193 0.48183 0.0
C384 C 0.75625 0.2122 0.47009 0.0
H385 H 0.89714 0.38159 0.43501 0.0
H386 H 0.85569 0.33775 0.4456 0.0
C387 C 0.73198 0.18365 0.47143 0.0
C388 C 0.80715 0.25121 0.47975 0.0
H389 H 0.82583 0.33144 0.47492 0.0
C390 C 0.83629 0.24796 0.47697 0.0
C391 C 0.80349 0.28178 0.47942 0.0
C392 C 0.77301 0.28684 0.48301 0.0
C393 C 0.86156 0.27423 0.47302 0.0
C394 C 0.85766 0.30467 0.47219 0.0
C395 C 0.82876 0.30809 0.47555 0.0
C396 C 0.88254 0.33265 0.4666 0.0
C397 C 0.89173 0.26883 0.46897 0.0
C398 C 0.91121 0.34488 0.4751 0.0
C399 C 0.93516 0.3698 0.46896 0.0
C400 C 0.93075 0.38299 0.45426 0.0
C401 C 0.90153 0.37153 0.44618 0.0
C402 C 0.87772 0.34664 0.45229 0.0
H403 H 0.88889 0.243 0.46681 0.0
H404 H 0.90157 0.2815 0.45799 0.0
H405 H 0.90868 0.27841 0.47927 0.0
H406 H 0.91523 0.33483 0.48634 0.0
H407 H 0.95737 0.37803 0.47547 0.0
H408 H 0.5136 0.59765 0.82617 0.0
H409 H 0.51649 0.65325 0.82362 0.0
H410 H 0.59784 0.68417 0.85546 0.0
H411 H 0.59464 0.6282 0.85847 0.0
H412 H 0.5565 0.71857 0.86156 0.0
H413 H 0.58063 0.7131 0.79591 0.0
H414 H 0.54562 0.6831 0.80123 0.0
H415 H 0.58235 0.68234 0.8092 0.0
C416 C 0.53198 0.61614 0.83279 0.0
C417 C 0.554 0.60836 0.84247 0.0
C418 C 0.5337 0.64802 0.83122 0.0
C419 C 0.55774 0.67294 0.83908 0.0
C420 C 0.57919 0.66532 0.84921 0.0
H421 H 0.61248 0.86755 0.80805 0.0
H422 H 0.61139 0.81502 0.81667 0.0
C423 C 0.57736 0.63331 0.85088 0.0
C424 C 0.56096 0.70685 0.83624 0.0
H425 H 0.56979 0.75936 0.80616 0.0
C426 C 0.55956 0.72759 0.84947 0.0
C427 C 0.56539 0.71873 0.82049 0.0
C428 C 0.5689 0.69828 0.80591 0.0
C429 C 0.56182 0.7597 0.8473 0.0
C430 C 0.56512 0.77121 0.83145 0.0
C431 C 0.56704 0.75055 0.8183 0.0
C432 C 0.56708 0.80462 0.82805 0.0
C433 C 0.56118 0.7811 0.86202 0.0
C434 C 0.54277 0.81664 0.83181 0.0
C435 C 0.54345 0.84687 0.82696 0.0
C436 C 0.56822 0.8654 0.81805 0.0
C437 C 0.59292 0.8537 0.81476 0.0
C438 C 0.59235 0.8237 0.8197 0.0
H439 H 0.56735 0.7716 0.87338 0.0
H440 H 0.57738 0.8057 0.86087 0.0
H441 H 0.53744 0.78255 0.86316 0.0
H442 H 0.5227 0.80215 0.83793 0.0
H443 H 0.52393 0.85509 0.82951 0.0
H444 H 0.94484 0.45941 0.15241 0.0
H445 H 0.89106 0.45932 0.15121 0.0
H446 H 0.92181 0.55644 0.13632 0.0
H447 H 0.97543 0.5564 0.13708 0.0
H448 H 0.86048 0.49337 0.16715 0.0
H449 H 0.85592 0.51713 0.102 0.0
H450 H 0.88763 0.50707 0.11108 0.0
H451 H 0.88649 0.54748 0.11305 0.0
C452 C 0.94023 0.48075 0.14879 0.0
C453 C 0.96477 0.50783 0.1447 0.0
C454 C 0.9093 0.48068 0.14813 0.0
C455 C 0.90188 0.50763 0.14334 0.0
C456 C 0.92645 0.53491 0.13959 0.0
H457 H 0.73498 0.56264 0.13405 0.0
H458 H 0.7875 0.55991 0.13656 0.0
C459 C 0.95733 0.53494 0.14014 0.0
C460 C 0.86869 0.50742 0.14253 0.0
H461 H 0.81416 0.52217 0.11771 0.0
C462 C 0.85036 0.49945 0.15627 0.0
C463 C 0.855 0.51518 0.12836 0.0
C464 C 0.87216 0.52187 0.11274 0.0
C465 C 0.81947 0.49993 0.1564 0.0
C466 C 0.80606 0.50829 0.14234 0.0
C467 C 0.82425 0.51595 0.12856 0.0
C468 C 0.77349 0.50981 0.14167 0.0
C469 C 0.80171 0.49235 0.17178 0.0
C470 C 0.7476 0.48262 0.14376 0.0
C471 C 0.7172 0.48402 0.14219 0.0
C472 C 0.71176 0.51264 0.13839 0.0
C473 C 0.73786 0.53996 0.13668 0.0
C474 C 0.76813 0.53849 0.13819 0.0
H475 H 0.81731 0.49408 0.18254 0.0
H476 H 0.788 0.50878 0.17406 0.0
H477 H 0.78539 0.46753 0.17048 0.0
H478 H 0.75082 0.45998 0.14616 0.0
H479 H 0.69796 0.46231 0.14337 0.0
H480 H 0.3253 0.86109 0.53109 0.0
H481 H 0.28264 0.81208 0.52368 0.0
H482 H 0.3389 0.78525 0.48778 0.0
H483 H 0.38211 0.83316 0.49568 0.0
H484 H 0.25151 0.79417 0.4953 0.0
H485 H 0.30573 0.70308 0.51027 0.0
H486 H 0.32252 0.7447 0.51696 0.0
H487 H 0.32881 0.73106 0.49675 0.0
C488 C 0.32886 0.84443 0.52187 0.0
C489 C 0.35724 0.85113 0.51402 0.0
C490 C 0.30434 0.81652 0.51756 0.0
C491 C 0.30769 0.79469 0.50535 0.0
C492 C 0.33596 0.8013 0.4975 0.0
H493 H 0.16962 0.66322 0.44201 0.0
H494 H 0.20818 0.70883 0.4561 0.0
C495 C 0.36053 0.82904 0.50187 0.0
C496 C 0.28116 0.76596 0.50013 0.0
H497 H 0.26073 0.68515 0.49223 0.0
C498 C 0.2534 0.77028 0.49483 0.0
C499 C 0.28335 0.73468 0.49978 0.0
C500 C 0.31161 0.72803 0.50642 0.0
C501 C 0.22831 0.7444 0.48853 0.0
C502 C 0.23133 0.71347 0.48712 0.0
C503 C 0.25855 0.70892 0.4931 0.0
C504 C 0.20718 0.68585 0.47881 0.0
C505 C 0.19883 0.75051 0.48346 0.0
C506 C 0.19431 0.65735 0.48673 0.0
C507 C 0.17261 0.63087 0.47857 0.0
C508 C 0.1635 0.63235 0.46229 0.0
C509 C 0.17634 0.66106 0.45447 0.0
C510 C 0.19808 0.68738 0.46259 0.0
H511 H 0.19647 0.77198 0.49019 0.0
H512 H 0.19934 0.75499 0.47031 0.0
H513 H 0.17812 0.72967 0.48556 0.0
H514 H 0.20121 0.65553 0.49921 0.0
H515 H 0.16351 0.60904 0.4849 0.0
H516 H 0.58919 0.41941 0.85459 0.0
H517 H 0.59189 0.36499 0.85276 0.0
H518 H 0.50868 0.33405 0.82231 0.0
H519 H 0.50554 0.38843 0.82417 0.0
H520 H 0.51102 0.29117 0.84723 0.0
H521 H 0.6174 0.32561 0.811 0.0
H522 H 0.61969 0.34839 0.82992 0.0
H523 H 0.59369 0.35114 0.81385 0.0
C524 C 0.57131 0.40106 0.84756 0.0
C525 C 0.54722 0.4084 0.83943 0.0
C526 C 0.57298 0.36995 0.8465 0.0
C527 C 0.5507 0.34556 0.83725 0.0
C528 C 0.52616 0.35255 0.82949 0.0
H529 H 0.55493 0.16935 0.79222 0.0
H530 H 0.55124 0.22181 0.80015 0.0
C531 C 0.52446 0.38368 0.83053 0.0
C532 C 0.55352 0.31303 0.83516 0.0
H533 H 0.59834 0.27193 0.81813 0.0
C534 C 0.53019 0.28692 0.84096 0.0
C535 C 0.57848 0.30759 0.8269 0.0
C536 C 0.60366 0.33456 0.81992 0.0
C537 C 0.53104 0.25545 0.83858 0.0
C538 C 0.55593 0.25005 0.83025 0.0
C539 C 0.57941 0.2762 0.82463 0.0
C540 C 0.55685 0.21734 0.82595 0.0
C541 C 0.50487 0.22808 0.84448 0.0
C542 C 0.56102 0.1972 0.83787 0.0
C543 C 0.56341 0.16703 0.83335 0.0
C544 C 0.56187 0.1567 0.81683 0.0
C545 C 0.55695 0.17678 0.80503 0.0
C546 C 0.55464 0.20675 0.80953 0.0
H547 H 0.48512 0.23581 0.84852 0.0
H548 H 0.49643 0.20882 0.83471 0.0
H549 H 0.51339 0.2178 0.8549 0.0
H550 H 0.5631 0.20509 0.85062 0.0
H551 H 0.56732 0.15223 0.84272 0.0
H552 H 0.59251 0.92034 0.49677 0.0
H553 H 0.59425 0.86562 0.49794 0.0
H554 H 0.51499 0.842 0.52844 0.0
H555 H 0.51249 0.89609 0.52693 0.0
H556 H 0.60383 0.83389 0.5227 0.0
H557 H 0.48803 0.76802 0.49567 0.0
H558 H 0.50497 0.81084 0.49487 0.0
H559 H 0.4852 0.79366 0.51267 0.0
C560 C 0.57528 0.90342 0.50362 0.0
C561 C 0.55223 0.91264 0.51166 0.0
C562 C 0.5763 0.8721 0.50427 0.0
C563 C 0.55434 0.84936 0.51298 0.0
C564 C 0.53159 0.85868 0.52119 0.0
H565 H 0.57048 0.68706 0.55968 0.0
H566 H 0.57361 0.73948 0.55052 0.0
C567 C 0.53036 0.88982 0.52042 0.0
C568 C 0.55607 0.8164 0.51428 0.0
H569 H 0.51201 0.73741 0.51165 0.0
C570 C 0.58386 0.81279 0.52006 0.0
C571 C 0.53031 0.78866 0.51048 0.0
C572 C 0.50059 0.79047 0.5029 0.0
C573 C 0.58608 0.78247 0.52295 0.0
C574 C 0.55955 0.75499 0.52045 0.0
C575 C 0.53226 0.75843 0.51383 0.0
C576 C 0.55895 0.72291 0.52562 0.0
C577 C 0.61692 0.78032 0.52871 0.0
C578 C 0.54891 0.69569 0.51481 0.0
C579 C 0.54637 0.66526 0.52016 0.0
C580 C 0.55361 0.66144 0.53646 0.0
C581 C 0.56422 0.6889 0.54711 0.0
C582 C 0.56654 0.71911 0.54181 0.0
H583 H 0.63639 0.80024 0.5243 0.0
H584 H 0.61839 0.78231 0.5422 0.0
H585 H 0.61993 0.75727 0.5245 0.0
H586 H 0.54267 0.69793 0.50228 0.0
H587 H 0.53787 0.64467 0.51165 0.0
H588 H 0.74319 0.45901 0.86663 0.0
H589 H 0.78916 0.44824 0.85636 0.0
H590 H 0.76361 0.46403 0.80763 0.0
H591 H 0.71772 0.47515 0.81778 0.0
H592 H 0.79973 0.40491 0.82582 0.0
H593 H 0.84804 0.538 0.82468 0.0
H594 H 0.81582 0.51938 0.83719 0.0
H595 H 0.8104 0.51709 0.8155 0.0
C596 C 0.74708 0.45961 0.8537 0.0
C597 C 0.72709 0.46825 0.84304 0.0
C598 C 0.7731 0.45312 0.84783 0.0
C599 C 0.77958 0.45533 0.83127 0.0
C600 C 0.75873 0.46197 0.82043 0.0
H601 H 0.9757 0.51539 0.81922 0.0
H602 H 0.92322 0.4947 0.80759 0.0
C603 C 0.73259 0.46832 0.82627 0.0
C604 C 0.81055 0.45609 0.82606 0.0
H605 H 0.88272 0.50929 0.8231 0.0
C606 C 0.81791 0.4276 0.82483 0.0
C607 C 0.83392 0.48568 0.82445 0.0
C608 C 0.82692 0.51691 0.82552 0.0
C609 C 0.84868 0.42818 0.82304 0.0
C610 C 0.87257 0.45806 0.82315 0.0
C611 C 0.86462 0.48629 0.82304 0.0
C612 C 0.90568 0.46158 0.8264 0.0
C613 C 0.85522 0.39681 0.8215 0.0
C614 C 0.914 0.44817 0.84017 0.0
C615 C 0.9443 0.45926 0.84657 0.0
C616 C 0.96667 0.4848 0.83969 0.0
C617 C 0.95916 0.4958 0.82492 0.0
C618 C 0.92898 0.48407 0.81828 0.0
H619 H 0.83657 0.37876 0.81408 0.0
H620 H 0.87776 0.39941 0.81584 0.0
H621 H 0.85548 0.38743 0.83375 0.0
H622 H 0.89662 0.43123 0.84691 0.0
H623 H 0.94953 0.4495 0.85766 0.0
H624 H 0.24244 0.66511 0.15738 0.0
H625 H 0.29041 0.70754 0.16573 0.0
H626 H 0.25085 0.77849 0.15032 0.0
H627 H 0.20226 0.7364 0.14272 0.0
H628 H 0.33106 0.75336 0.14866 0.0
H629 H 0.27896 0.81044 0.19663 0.0
H630 H 0.25868 0.77164 0.187 0.0
H631 H 0.26072 0.80744 0.17688 0.0
C632 C 0.24376 0.68975 0.15594 0.0
C633 C 0.21827 0.69728 0.14953 0.0
C634 C 0.27133 0.71397 0.16059 0.0
C635 C 0.27404 0.74623 0.15893 0.0
C636 C 0.24906 0.75381 0.15205 0.0
H637 H 0.42337 0.92346 0.18589 0.0
H638 H 0.37739 0.88354 0.17296 0.0
C639 C 0.22141 0.72963 0.14749 0.0
C640 C 0.30295 0.77185 0.16451 0.0
H641 H 0.33124 0.83743 0.19085 0.0
C642 C 0.3311 0.77174 0.15789 0.0
C643 C 0.30298 0.7958 0.17659 0.0
C644 C 0.27378 0.79627 0.18482 0.0
C645 C 0.35925 0.79501 0.16295 0.0
C646 C 0.35922 0.81884 0.17502 0.0
C647 C 0.3311 0.81922 0.18151 0.0
C648 C 0.38826 0.84279 0.18166 0.0
C649 C 0.38879 0.79408 0.1553 0.0
C650 C 0.40958 0.83304 0.19077 0.0
C651 C 0.43575 0.85572 0.19819 0.0
C652 C 0.4411 0.88862 0.19662 0.0
C653 C 0.42005 0.89829 0.18716 0.0
C654 C 0.39373 0.87556 0.17985 0.0
H655 H 0.38415 0.77931 0.14366 0.0
H656 H 0.404 0.8186 0.15299 0.0
H657 H 0.40153 0.78348 0.16375 0.0
H658 H 0.40555 0.80788 0.19251 0.0
H659 H 0.45164 0.84754 0.20531 0.0
H660 H 0.50127 0.09537 0.52917 0.0
H661 H 0.5 0.15033 0.53111 0.0
H662 H 0.58598 0.18192 0.50612 0.0
H663 H 0.5871 0.12693 0.50378 0.0
H664 H 0.54031 0.20315 0.5462 0.0
H665 H 0.53367 0.2223 0.48033 0.0
H666 H 0.52767 0.18321 0.48796 0.0
H667 H 0.56629 0.21044 0.48623 0.0
C668 C 0.51987 0.11394 0.52401 0.0
C669 C 0.5442 0.1066 0.51624 0.0
C670 C 0.5191 0.1454 0.52512 0.0
C671 C 0.54259 0.17026 0.5185 0.0
C672 C 0.56713 0.1631 0.51093 0.0
H673 H 0.58065 0.37798 0.52641 0.0
H674 H 0.58363 0.3242 0.51987 0.0
C675 C 0.56784 0.1316 0.50972 0.0
C676 C 0.54186 0.20376 0.5201 0.0
H677 H 0.54128 0.2679 0.49847 0.0
C678 C 0.54043 0.21721 0.53574 0.0
C679 C 0.54212 0.22225 0.50645 0.0
C680 C 0.54223 0.20877 0.48929 0.0
C681 C 0.53934 0.24853 0.53813 0.0
C682 C 0.53944 0.2669 0.52451 0.0
C683 C 0.54128 0.25374 0.50887 0.0
C684 C 0.53664 0.29944 0.52643 0.0
C685 C 0.53824 0.26188 0.55523 0.0
C686 C 0.50888 0.30327 0.53167 0.0
C687 C 0.50702 0.33383 0.53527 0.0
C688 C 0.53294 0.36126 0.53376 0.0
C689 C 0.56022 0.3574 0.52761 0.0
C690 C 0.56203 0.32671 0.52396 0.0
H691 H 0.54461 0.24733 0.56447 0.0
H692 H 0.5541 0.28691 0.55686 0.0
H693 H 0.51438 0.2621 0.55752 0.0
H694 H 0.48888 0.28253 0.53342 0.0
H695 H 0.48548 0.33594 0.53969 0.0
H696 H 0.39716 0.59026 0.83641 0.0
H697 H 0.3691 0.62846 0.83465 0.0
H698 H 0.38135 0.63078 0.78286 0.0
H699 H 0.41018 0.59246 0.78454 0.0
H700 H 0.38608 0.69222 0.8215 0.0
H701 H 0.28586 0.60091 0.78872 0.0
H702 H 0.31543 0.58905 0.79893 0.0
H703 H 0.324 0.61026 0.78065 0.0
C704 C 0.39451 0.59929 0.82467 0.0
C705 C 0.40594 0.58832 0.81062 0.0
C706 C 0.37844 0.62115 0.82368 0.0
C707 C 0.37322 0.63244 0.80865 0.0
C708 C 0.38507 0.62219 0.79457 0.0
H709 H 0.21003 0.68812 0.82157 0.0
H710 H 0.25703 0.69402 0.80636 0.0
C711 C 0.40131 0.60019 0.79555 0.0
C712 C 0.35291 0.65258 0.80805 0.0
H713 H 0.27611 0.64298 0.80334 0.0
C714 C 0.36223 0.68209 0.81704 0.0
C715 C 0.32201 0.63963 0.80196 0.0
C716 C 0.31098 0.60822 0.79203 0.0
C717 C 0.34058 0.69706 0.82171 0.0
C718 C 0.30892 0.68174 0.81752 0.0
C719 C 0.30038 0.65456 0.80671 0.0
C720 C 0.28411 0.68815 0.82708 0.0
C721 C 0.35147 0.72787 0.83209 0.0
C722 C 0.28409 0.68412 0.84389 0.0
C723 C 0.25726 0.68027 0.85253 0.0
C724 C 0.22977 0.68024 0.84454 0.0
C725 C 0.23066 0.68739 0.82803 0.0
C726 C 0.25757 0.69107 0.81933 0.0
H727 H 0.37467 0.74298 0.82842 0.0
H728 H 0.33504 0.74169 0.83123 0.0
H729 H 0.35373 0.72236 0.84497 0.0
H730 H 0.30394 0.6809 0.85009 0.0
H731 H 0.25747 0.6744 0.86514 0.0
H732 H 0.90559 0.28789 0.1484 0.0
H733 H 0.8562 0.24685 0.15331 0.0
H734 H 0.84229 0.30467 0.19426 0.0
H735 H 0.89132 0.34599 0.18928 0.0
H736 H 0.84108 0.21431 0.18267 0.0
H737 H 0.7592 0.27957 0.16788 0.0
H738 H 0.79865 0.29174 0.16125 0.0
H739 H 0.79047 0.30127 0.18178 0.0
C740 C 0.89175 0.29209 0.15828 0.0
C741 C 0.90234 0.32021 0.16844 0.0
C742 C 0.86364 0.26856 0.16112 0.0
C743 C 0.84543 0.2729 0.17402 0.0
C744 C 0.85575 0.30108 0.18407 0.0
H745 H 0.68335 0.16637 0.22279 0.0
H746 H 0.72819 0.20622 0.21206 0.0
C747 C 0.88391 0.32451 0.18131 0.0
C748 C 0.81652 0.24726 0.17761 0.0
H749 H 0.73875 0.23153 0.18177 0.0
C750 C 0.81862 0.21787 0.18229 0.0
C751 C 0.78733 0.25208 0.17714 0.0
C752 C 0.78359 0.28276 0.17161 0.0
C753 C 0.79246 0.19356 0.18714 0.0
C754 C 0.76329 0.19856 0.18694 0.0
C755 C 0.76111 0.22773 0.18191 0.0
C756 C 0.73512 0.1745 0.19275 0.0
C757 C 0.79653 0.16329 0.19309 0.0
C758 C 0.72367 0.1436 0.18523 0.0
C759 C 0.69818 0.12059 0.19145 0.0
C760 C 0.68355 0.12816 0.20526 0.0
C761 C 0.69443 0.15953 0.21235 0.0
C762 C 0.71991 0.18244 0.20615 0.0
H763 H 0.82119 0.16632 0.1961 0.0
H764 H 0.7828 0.15561 0.20404 0.0
H765 H 0.78826 0.14386 0.18342 0.0
H766 H 0.73468 0.13714 0.17467 0.0
H767 H 0.69049 0.09666 0.18573 0.0
H768 H 0.08593 0.46277 0.09323 0.0
H769 H 0.09743 0.48278 0.066 0.0
H770 H 0.05775 0.55736 0.07759 0.0
H771 H 0.04628 0.53757 0.1048 0.0
H772 H 0.05423 0.48864 0.04243 0.0
H773 H 0.14278 0.60594 0.05941 0.0
H774 H 0.1316 0.57373 0.07311 0.0
H775 H 0.10741 0.59826 0.07017 0.0
C776 C 0.07976 0.48348 0.08996 0.0
C777 C 0.06526 0.49866 0.10108 0.0
C778 C 0.08639 0.49491 0.07445 0.0
C779 C 0.07888 0.52183 0.0699 0.0
C780 C 0.06431 0.53695 0.08099 0.0
H781 H 0.05102 0.58324 0.97521 0.0
H782 H 0.04864 0.56888 0.00358 0.0
C783 C 0.05758 0.52548 0.09646 0.0
C784 C 0.08479 0.53312 0.05326 0.0
H785 H 0.12292 0.59789 0.03197 0.0
C786 C 0.06941 0.51243 0.04013 0.0
C787 C 0.10481 0.56409 0.05033 0.0
C788 C 0.12285 0.58675 0.06397 0.0
C789 C 0.07284 0.52223 0.02413 0.0
C790 C 0.09197 0.55356 0.02126 0.0
C791 C 0.10807 0.57398 0.03431 0.0
C792 C 0.09486 0.56544 0.0047 0.0
C793 C 0.05589 0.49911 0.01039 0.0
C794 C 0.12204 0.56918 0.99618 0.0
C795 C 0.12342 0.57715 0.9799 0.0
C796 C 0.09763 0.58158 0.97196 0.0
C797 C 0.07104 0.57938 0.98088 0.0
C798 C 0.06967 0.57132 0.99709 0.0
H799 H 0.04677 0.47416 0.01428 0.0
H800 H 1.03606 0.50623 0.00594 0.0
H801 H 0.07139 0.49973 6e-05 0.0
H802 H 0.14171 0.56473 0.00192 0.0
H803 H 0.14414 0.57842 0.97335 0.0
H804 H 0.4889 0.02084 0.46061 0.0
H805 H 0.49799 0.02263 0.43138 0.0
H806 H 0.57574 0.98851 0.4385 0.0
H807 H 0.56695 0.98699 0.46777 0.0
H808 H 0.58769 0.03914 0.41775 0.0
H809 H 0.47761 0.9434 0.39996 0.0
H810 H 0.47268 0.97597 0.41228 0.0
H811 H 0.49281 0.951 0.42067 0.0
C812 C 0.50794 0.01377 0.45592 0.0
C813 C 0.52712 0.00361 0.46639 0.0
C814 C 0.51302 0.01466 0.43924 0.0
C815 C 0.5372 0.00518 0.43276 0.0
C816 C 0.55685 0.99576 0.44326 0.0
H817 H 0.55365 0.95617 0.33069 0.0
H818 H 0.54968 0.95627 0.36028 0.0
C819 C 0.5518 0.99489 0.45995 0.0
C820 C 0.54186 0.00487 0.415 0.0
H821 H 0.50638 0.97186 0.37858 0.0
C822 C 0.56999 0.02438 0.40917 0.0
C823 C 0.51889 0.98521 0.40387 0.0
C824 C 0.48891 0.96246 0.40948 0.0
C825 C 0.57551 0.02522 0.39244 0.0
C826 C 0.55208 0.00641 0.38129 0.0
C827 C 0.52421 0.98647 0.38715 0.0
C828 C 0.55592 0.00689 0.36345 0.0
C829 C 0.60653 0.04585 0.3869 0.0
C830 C 0.5606 0.03529 0.35541 0.0
C831 C 0.56284 0.03531 0.33851 0.0
C832 C 0.56012 0.00682 0.3293 0.0
C833 C 0.55551 0.97843 0.33741 0.0
C834 C 0.55338 0.97847 0.35432 0.0
H835 H 0.62451 0.05164 0.39687 0.0
H836 H 0.61444 0.03387 0.3765 0.0
H837 H 0.60442 0.06871 0.38288 0.0
H838 H 0.56188 0.05734 0.36218 0.0
H839 H 0.56588 0.05745 0.3326 0.0
H840 H 0.60869 0.56361 0.79455 0.0
H841 H 0.60144 0.5632 0.765 0.0
H842 H 0.52978 0.47158 0.76545 0.0
H843 H 0.53674 0.47199 0.79505 0.0
H844 H 0.60761 0.51781 0.74149 0.0
H845 H 0.48844 0.52578 0.7401 0.0
H846 H 0.51279 0.5346 0.75837 0.0
H847 H 0.49312 0.49379 0.75145 0.0
C848 C 0.59135 0.54342 0.78834 0.0
C849 C 0.57319 0.51788 0.79705 0.0
C850 C 0.58723 0.54323 0.77149 0.0
C851 C 0.56478 0.51759 0.7631 0.0
C852 C 0.5468 0.49189 0.77176 0.0
H853 H 0.51027 0.47101 0.66119 0.0
H854 H 0.51573 0.47154 0.69083 0.0
C855 C 0.55091 0.49207 0.78862 0.0
C856 C 0.56087 0.51741 0.74521 0.0
H857 H 0.50891 0.51668 0.71472 0.0
C858 C 0.58609 0.51769 0.73562 0.0
C859 C 0.53272 0.51719 0.73763 0.0
C860 C 0.50527 0.5181 0.74739 0.0
C861 C 0.5838 0.51728 0.7186 0.0
C862 C 0.55569 0.51716 0.71102 0.0
C863 C 0.53042 0.51679 0.7206 0.0
C864 C 0.55207 0.51732 0.69313 0.0
C865 C 0.61127 0.51632 0.70887 0.0
C866 C 0.57034 0.54316 0.68467 0.0
C867 C 0.56742 0.54285 0.66774 0.0
C868 C 0.54604 0.51674 0.65897 0.0
C869 C 0.52729 0.49122 0.66756 0.0
C870 C 0.53023 0.49157 0.68449 0.0
H871 H 0.62797 0.50845 0.71616 0.0
H872 H 0.60375 0.49996 0.69784 0.0
H873 H 0.62356 0.54067 0.7049 0.0
H874 H 0.58697 0.56351 0.69116 0.0
H875 H 0.58235 0.56276 0.6615 0.0
H876 H 0.52342 0.01051 0.55484 0.0
H877 H 0.51639 0.00693 0.58424 0.0
H878 H 0.61552 0.04114 0.59254 0.0
H879 H 0.62264 0.04471 0.5632 0.0
H880 H 0.53956 0.96996 0.6054 0.0
H881 H 0.58411 0.09971 0.6234 0.0
H882 H 0.57257 0.08475 0.60269 0.0
H883 H 0.60963 0.08574 0.61094 0.0
C884 C 0.54365 0.01733 0.56296 0.0
C885 C 0.57356 0.02779 0.5568 0.0
C886 C 0.53962 0.01531 0.57972 0.0
C887 C 0.56543 0.02407 0.59055 0.0
C888 C 0.5953 0.03475 0.5844 0.0
H889 H 0.58548 0.9774 0.68983 0.0
H890 H 0.58484 0.98023 0.66023 0.0
C891 C 0.59933 0.03666 0.56766 0.0
C892 C 0.56127 0.02104 0.60825 0.0
H893 H 0.57702 0.06382 0.64476 0.0
C894 C 0.54754 0.99048 0.61402 0.0
C895 C 0.5714 0.04791 0.61942 0.0
C896 C 0.585 0.08144 0.61384 0.0
C897 C 0.54447 0.98595 0.63075 0.0
C898 C 0.55575 0.01267 0.64195 0.0
C899 C 0.56866 0.04334 0.63615 0.0
C900 C 0.5547 0.00939 0.65976 0.0
C901 C 0.52905 0.95268 0.6363 0.0
C902 C 0.53818 0.02505 0.66931 0.0
C903 C 0.53846 0.02344 0.68621 0.0
C904 C 0.55549 0.00633 0.69391 0.0
C905 C 0.57176 0.99036 0.68427 0.0
C906 C 0.57143 0.99196 0.66736 0.0
H907 H 0.51473 0.93652 0.62636 0.0
H908 H 0.54711 0.94246 0.64027 0.0
H909 H 0.51413 0.95318 0.64676 0.0
H910 H 0.52516 0.03865 0.66367 0.0
H911 H 0.52534 0.03565 0.69324 0.0
H912 H 0.56774 0.53878 0.88734 0.0
H913 H 0.57419 0.53901 0.91694 0.0
H914 H 0.49067 0.4581 0.91813 0.0
H915 H 0.48467 0.45719 0.88851 0.0
H916 H 0.53761 0.54772 0.94063 0.0
H917 H 0.55033 0.42761 0.94414 0.0
H918 H 0.55202 0.44697 0.92521 0.0
H919 H 0.51521 0.42639 0.93357 0.0
C920 C 0.55086 0.52096 0.89393 0.0
C921 C 0.52577 0.49787 0.88566 0.0
C922 C 0.55456 0.52112 0.91083 0.0
C923 C 0.53322 0.49823 0.91974 0.0
C924 C 0.50788 0.47546 0.91149 0.0
H925 H 0.50609 0.51486 0.02345 0.0
H926 H 0.50249 0.51413 0.99383 0.0
C927 C 0.50433 0.47511 0.89458 0.0
C928 C 0.53698 0.49879 0.93771 0.0
H929 H 0.54188 0.45268 0.96912 0.0
C930 C 0.53873 0.52699 0.94686 0.0
C931 C 0.53895 0.47192 0.94582 0.0
C932 C 0.53936 0.44163 0.93667 0.0
C933 C 0.54176 0.52888 0.9639 0.0
C934 C 0.54222 0.50151 0.97206 0.0
C935 C 0.54112 0.47352 0.96289 0.0
C936 C 0.54407 0.50145 0.99007 0.0
C937 C 0.545 0.56037 0.97296 0.0
C938 C 0.56799 0.49341 -0.00216 0.0
C939 C 0.56972 0.49306 0.01479 0.0
C940 C 0.54755 0.5008 0.02436 0.0
C941 C 0.52342 0.50851 0.0165 0.0
C942 C 0.52158 0.50859 -0.00045 0.0
H943 H 0.55362 0.5808 0.96501 0.0
H944 H 0.52199 0.56016 0.97722 0.0
H945 H 0.56108 0.56444 0.98371 0.0
H946 H 0.58544 0.48751 0.99077 0.0
H947 H 0.58828 0.4864 0.02036 0.0
H948 H 0.04484 0.55556 0.20106 0.0
H949 H 0.04563 0.54584 0.23003 0.0
H950 H 0.08531 0.47079 0.21969 0.0
H951 H 0.08433 0.48024 0.19057 0.0
H952 H 1.03667 0.45486 0.242 0.0
H953 H 0.12499 0.57202 0.25915 0.0
H954 H 0.09231 0.57517 0.2477 0.0
H955 H 0.11754 0.55589 0.23837 0.0
C956 C 0.0537 0.53696 0.20495 0.0
C957 C 0.06478 0.51884 0.19362 0.0
C958 C 0.05426 0.53154 0.2215 0.0
C959 C 0.06606 0.50801 0.227 0.0
C960 C 0.07632 0.48922 0.21567 0.0
H961 H 0.11311 0.49972 0.32949 0.0
H962 H 0.11473 0.50079 0.29982 0.0
C963 C 0.07577 0.49464 0.19908 0.0
C964 C 0.06775 0.50329 0.24463 0.0
H965 H 0.09829 0.54231 0.28085 0.0
C966 C 0.05032 0.47385 0.25051 0.0
C967 C 0.08598 0.52794 0.25564 0.0
C968 C 0.10652 0.55944 0.24992 0.0
C969 C 0.04978 0.4688 0.26723 0.0
C970 C 0.06679 0.49404 0.27831 0.0
C971 C 0.08504 0.52308 0.27235 0.0
C972 C 0.06542 0.49128 0.29617 0.0
C973 C 1.03112 0.43648 0.27286 0.0
C974 C 1.03719 0.48571 0.30395 0.0
C975 C 1.0362 0.48518 0.32088 0.0
C976 C 0.0635 0.4905 0.33038 0.0
C977 C 0.09173 0.49586 0.32253 0.0
C978 C 0.09268 0.49631 0.30559 0.0
H979 H 1.02719 0.41747 0.26297 0.0
H980 H 1.04283 0.42984 0.28341 0.0
H981 H 1.00816 0.43731 0.27668 0.0
H982 H 1.016 0.48261 0.29695 0.0
H983 H 1.01417 0.48155 0.32656 0.0
loop_
_geom_bond_atom_site_label_1
_geom_bond_atom_site_label_2
_geom_bond_distance
_geom_bond_site_symmetry_2
_ccdc_geom_bond_type
Nd0 C2 2.836 . S
Nd0 O20 2.500 . S
Nd0 O21 2.492 . S
Nd0 O22 2.487 . S
Nd0 O23 2.682 . S
Nd0 O24 2.410 . S
Nd0 O29 2.414 . S
Nd0 O31 2.424 1_455 S
Nd1 C11 2.836 1_455 S
Nd1 O23 2.414 . S
Nd1 O25 2.424 . S
Nd1 O26 2.500 1_455 S
Nd1 O27 2.492 1_455 S
Nd1 O28 2.487 . S
Nd1 O29 2.682 . S
Nd1 O30 2.410 1_455 S
C2 Nd0 2.836 . S
C2 C3 1.498 . S
C2 O20 1.258 . S
C2 O21 1.239 . S
C3 C2 1.498 . S
C3 C4 1.366 . S
C3 C8 1.407 . S
C4 C3 1.366 . S
C4 C5 1.392 . S
C4 H32 0.930 . S
C5 C4 1.392 . S
C5 C6 1.398 . S
C5 H33 0.929 . S
C6 C5 1.398 . S
C6 C7 1.352 . S
C7 C6 1.352 . S
C7 C8 1.384 . S
C7 H34 0.930 . S
C8 C3 1.407 . S
C8 C7 1.384 . S
C8 H35 0.929 . S
C9 O22 1.241 . S
C9 O23 1.273 . S
C10 O24 1.251 . S
C10 O25 1.268 . S
C11 Nd1 2.836 1_655 S
C11 C12 1.498 . S
C11 O26 1.258 . S
C11 O27 1.239 . S
C12 C11 1.498 . S
C12 C13 1.366 . S
C12 C17 1.407 . S
C13 C12 1.366 . S
C13 C14 1.392 . S
C13 H36 0.930 . S
C14 C13 1.392 . S
C14 C15 1.398 . S
C14 H37 0.929 . S
C15 C14 1.398 . S
C15 C16 1.352 . S
C16 C15 1.352 . S
C16 C17 1.384 . S
C16 H38 0.930 . S
C17 C12 1.407 . S
C17 C16 1.384 . S
C17 H39 0.929 . S
C18 O28 1.241 . S
C18 O29 1.273 . S
C19 O30 1.251 . S
C19 O31 1.268 . S
O20 Nd0 2.500 . S
O20 C2 1.258 . S
O21 Nd0 2.492 . S
O21 C2 1.239 . S
O22 Nd0 2.487 . S
O22 C9 1.241 . S
O23 Nd0 2.682 . S
O23 Nd1 2.414 . S
O23 C9 1.273 . S
O24 Nd0 2.410 . S
O24 C10 1.251 . S
O25 Nd1 2.424 . S
O25 C10 1.268 . S
O26 Nd1 2.500 1_655 S
O26 C11 1.258 . S
O27 Nd1 2.492 1_655 S
O27 C11 1.239 . S
O28 Nd1 2.487 . S
O28 C18 1.241 . S
O29 Nd0 2.414 . S
O29 Nd1 2.682 . S
O29 C18 1.273 . S
O30 Nd1 2.410 1_655 S
O30 C19 1.251 . S
O31 Nd0 2.424 1_655 S
O31 C19 1.268 . S
H32 C4 0.930 . S
H33 C5 0.929 . S
H34 C7 0.930 . S
H35 C8 0.929 . S
H36 C13 0.930 . S
H37 C14 0.929 . S
H38 C16 0.930 . S
H39 C17 0.929 . S
Nd40 C42 2.836 1_545 S
Nd40 O60 2.500 1_545 S
Nd40 O61 2.492 1_545 S
Nd40 O62 2.487 . S
Nd40 O63 2.682 . S
Nd40 O64 2.410 1_545 S
Nd40 O69 2.414 . S
Nd40 O71 2.424 . S
Nd41 C51 2.836 . S
Nd41 O63 2.414 . S
Nd41 O65 2.424 1_545 S
Nd41 O66 2.500 . S
Nd41 O67 2.492 . S
Nd41 O68 2.487 . S
Nd41 O69 2.682 . S
Nd41 O70 2.410 . S
C42 Nd40 2.836 1_565 S
C42 C43 1.498 . S
C42 O60 1.258 . S
C42 O61 1.239 . S
C43 C42 1.498 . S
C43 C44 1.366 . S
C43 C48 1.407 . S
C44 C43 1.366 . S
C44 C45 1.392 . S
C44 H72 0.930 . S
C45 C44 1.392 . S
C45 C46 1.398 . S
C45 H73 0.929 . S
C46 C45 1.398 . S
C46 C47 1.352 . S
C47 C46 1.352 . S
C47 C48 1.384 . S
C47 H74 0.930 . S
C48 C43 1.407 . S
C48 C47 1.384 . S
C48 H75 0.929 . S
C49 O62 1.241 . S
C49 O63 1.273 . S
C50 O64 1.251 . S
C50 O65 1.268 . S
C51 Nd41 2.836 . S
C51 C52 1.498 . S
C51 O66 1.258 . S
C51 O67 1.239 . S
C52 C51 1.498 . S
C52 C53 1.366 . S
C52 C57 1.407 . S
C53 C52 1.366 . S
C53 C54 1.392 . S
C53 H76 0.930 . S
C54 C53 1.392 . S
C54 C55 1.398 . S
C54 H77 0.929 . S
C55 C54 1.398 . S
C55 C56 1.352 . S
C56 C55 1.352 . S
C56 C57 1.384 . S
C56 H78 0.930 . S
C57 C52 1.407 . S
C57 C56 1.384 . S
C57 H79 0.929 . S
C58 O68 1.241 . S
C58 O69 1.273 . S
C59 O70 1.251 . S
C59 O71 1.268 . S
O60 Nd40 2.500 1_565 S
O60 C42 1.258 . S
O61 Nd40 2.492 1_565 S
O61 C42 1.239 . S
O62 Nd40 2.487 . S
O62 C49 1.241 . S
O63 Nd40 2.682 . S
O63 Nd41 2.414 . S
O63 C49 1.273 . S
O64 Nd40 2.410 1_565 S
O64 C50 1.251 . S
O65 Nd41 2.424 1_565 S
O65 C50 1.268 . S
O66 Nd41 2.500 . S
O66 C51 1.258 . S
O67 Nd41 2.492 . S
O67 C51 1.239 . S
O68 Nd41 2.487 . S
O68 C58 1.241 . S
O69 Nd40 2.414 . S
O69 Nd41 2.682 . S
O69 C58 1.273 . S
O70 Nd41 2.410 . S
O70 C59 1.251 . S
O71 Nd40 2.424 . S
O71 C59 1.268 . S
H72 C44 0.930 . S
H73 C45 0.929 . S
H74 C47 0.930 . S
H75 C48 0.929 . S
H76 C53 0.930 . S
H77 C54 0.929 . S
H78 C56 0.930 . S
H79 C57 0.929 . S
Nd80 C82 2.836 . S
Nd80 O100 2.500 . S
Nd80 O101 2.492 . S
Nd80 O102 2.487 . S
Nd80 O103 2.682 . S
Nd80 O104 2.410 . S
Nd80 O109 2.414 . S
Nd80 O111 2.424 . S
Nd81 C91 2.836 . S
Nd81 O103 2.414 . S
Nd81 O105 2.424 . S
Nd81 O106 2.500 . S
Nd81 O107 2.492 . S
Nd81 O108 2.487 . S
Nd81 O109 2.682 . S
Nd81 O110 2.410 . S
C82 Nd80 2.836 . S
C82 C83 1.498 . S
C82 O100 1.258 . S
C82 O101 1.239 . S
C83 C82 1.498 . S
C83 C84 1.366 . S
C83 C88 1.407 . S
C84 C83 1.366 . S
C84 C85 1.392 . S
C84 H112 0.930 . S
C85 C84 1.392 . S
C85 C86 1.398 . S
C85 H113 0.929 . S
C86 C85 1.398 . S
C86 C87 1.352 . S
C87 C86 1.352 . S
C87 C88 1.384 . S
C87 H114 0.930 . S
C88 C83 1.407 . S
C88 C87 1.384 . S
C88 H115 0.929 . S
C89 O102 1.241 . S
C89 O103 1.273 . S
C90 O104 1.251 . S
C90 O105 1.268 . S
C91 Nd81 2.836 . S
C91 C92 1.498 . S
C91 O106 1.258 . S
C91 O107 1.239 . S
C92 C91 1.498 . S
C92 C93 1.366 . S
C92 C97 1.407 . S
C93 C92 1.366 . S
C93 C94 1.392 . S
C93 H116 0.930 . S
C94 C93 1.392 . S
C94 C95 1.398 . S
C94 H117 0.929 . S
C95 C94 1.398 . S
C95 C96 1.352 . S
C96 C95 1.352 . S
C96 C97 1.384 . S
C96 H118 0.930 . S
C97 C92 1.407 . S
C97 C96 1.384 . S
C97 H119 0.929 . S
C98 O108 1.241 . S
C98 O109 1.273 . S
C99 O110 1.251 . S
C99 O111 1.268 . S
O100 Nd80 2.500 . S
O100 C82 1.258 . S
O101 Nd80 2.492 . S
O101 C82 1.239 . S
O102 Nd80 2.487 . S
O102 C89 1.241 . S
O103 Nd80 2.682 . S
O103 Nd81 2.414 . S
O103 C89 1.273 . S
O104 Nd80 2.410 . S
O104 C90 1.251 . S
O105 Nd81 2.424 . S
O105 C90 1.268 . S
O106 Nd81 2.500 . S
O106 C91 1.258 . S
O107 Nd81 2.492 . S
O107 C91 1.239 . S
O108 Nd81 2.487 . S
O108 C98 1.241 . S
O109 Nd80 2.414 . S
O109 Nd81 2.682 . S
O109 C98 1.273 . S
O110 Nd81 2.410 . S
O110 C99 1.251 . S
O111 Nd80 2.424 . S
O111 C99 1.268 . S
H112 C84 0.930 . S
H113 C85 0.929 . S
H114 C87 0.930 . S
H115 C88 0.929 . S
H116 C93 0.930 . S
H117 C94 0.929 . S
H118 C96 0.930 . S
H119 C97 0.929 . S
C120 C121 1.384 . S
C120 H133 0.947 . S
C120 C155 1.382 . S
C121 C120 1.384 . S
C121 C122 1.378 . S
C122 C121 1.378 . S
C122 C123 1.378 . S
C122 H134 0.952 . S
C123 C122 1.378 . S
C123 H135 0.950 . S
C123 C154 1.383 . S
H124 C143 0.947 . S
H125 C144 0.946 . S
H126 C146 0.953 . S
H127 C147 0.945 . S
H128 C149 0.952 . S
H129 C150 0.949 . S
H130 C152 0.950 1_565 S
H131 C153 0.956 . S
H132 C155 0.951 . S
H133 C120 0.947 . S
H134 C122 0.952 . S
H135 C123 0.950 . S
N136 C139 1.382 . S
N136 C141 1.363 1_545 S
N137 C139 1.371 . S
N137 C140 1.372 . S
N138 C140 1.356 1_565 S
N138 C141 1.377 . S
C139 N136 1.382 . S
C139 N137 1.371 . S
C139 C142 1.480 . S
C140 N137 1.372 . S
C140 N138 1.356 1_545 S
C140 C148 1.457 . S
C141 N136 1.363 1_565 S
C141 N138 1.377 . S
C141 C154 1.479 . S
C142 C139 1.480 . S
C142 C143 1.383 . S
C142 C147 1.385 . S
C143 H124 0.947 . S
C143 C142 1.383 . S
C143 C144 1.388 . S
C144 H125 0.946 . S
C144 C143 1.388 . S
C144 C145 1.384 . S
C145 C144 1.384 . S
C145 C146 1.377 . S
C146 H126 0.953 . S
C146 C145 1.377 . S
C146 C147 1.369 . S
C147 H127 0.945 . S
C147 C142 1.385 . S
C147 C146 1.369 . S
C148 C140 1.457 . S
C148 C149 1.372 . S
C148 C153 1.357 1_545 S
C149 H128 0.952 . S
C149 C148 1.372 . S
C149 C150 1.389 . S
C150 H129 0.949 . S
C150 C149 1.389 . S
C150 C151 1.387 . S
C151 C150 1.387 . S
C151 C152 1.372 . S
C152 H130 0.950 1_545 S
C152 C151 1.372 . S
C152 C153 1.378 1_545 S
C153 H131 0.956 . S
C153 C148 1.357 1_565 S
C153 C152 1.378 1_565 S
C154 C123 1.383 . S
C154 C141 1.479 . S
C154 C155 1.398 . S
C155 C120 1.382 . S
C155 H132 0.951 . S
C155 C154 1.398 . S
C156 C157 1.384 . S
C156 H169 0.947 . S
C156 C191 1.382 . S
C157 C156 1.384 . S
C157 C158 1.378 . S
C158 C157 1.378 . S
C158 C159 1.378 . S
C158 H170 0.952 . S
C159 C158 1.378 . S
C159 H171 0.950 . S
C159 C190 1.383 . S
H160 C179 0.947 . S
H161 C180 0.946 . S
H162 C182 0.953 . S
H163 C183 0.945 . S
H164 C185 0.952 . S
H165 C186 0.949 . S
H166 C188 0.950 . S
H167 C189 0.948 . S
H168 C191 0.951 . S
H169 C156 0.947 . S
H170 C158 0.952 . S
H171 C159 0.950 . S
N172 C175 1.382 . S
N172 C177 1.363 . S
N173 C175 1.371 . S
N173 C176 1.372 . S
N174 C176 1.361 . S
N174 C177 1.377 . S
C175 N172 1.382 . S
C175 N173 1.371 . S
C175 C178 1.480 . S
C176 N173 1.372 . S
C176 N174 1.361 . S
C176 C184 1.457 . S
C177 N172 1.363 . S
C177 N174 1.377 . S
C177 C190 1.479 . S
C178 C175 1.480 . S
C178 C179 1.383 . S
C178 C183 1.385 . S
C179 H160 0.947 . S
C179 C178 1.383 . S
C179 C180 1.388 . S
C180 H161 0.946 . S
C180 C179 1.388 . S
C180 C181 1.384 . S
C181 C180 1.384 . S
C181 C182 1.377 . S
C182 H162 0.953 . S
C182 C181 1.377 . S
C182 C183 1.369 . S
C183 H163 0.945 . S
C183 C178 1.385 . S
C183 C182 1.369 . S
C184 C176 1.457 . S
C184 C185 1.372 . S
C184 C189 1.364 . S
C185 H164 0.952 . S
C185 C184 1.372 . S
C185 C186 1.389 . S
C186 H165 0.949 . S
C186 C185 1.389 . S
C186 C187 1.387 . S
C187 C186 1.387 . S
C187 C188 1.372 . S
C188 H166 0.950 . S
C188 C187 1.372 . S
C188 C189 1.379 . S
C189 H167 0.948 . S
C189 C184 1.364 . S
C189 C188 1.379 . S
C190 C159 1.383 . S
C190 C177 1.479 . S
C190 C191 1.398 . S
C191 C156 1.382 . S
C191 H168 0.951 . S
C191 C190 1.398 . S
C192 C193 1.384 . S
C192 H205 0.947 . S
C192 C227 1.382 . S
C193 C192 1.384 . S
C193 C194 1.378 . S
C194 C193 1.378 . S
C194 C195 1.378 . S
C194 H206 0.952 . S
C195 C194 1.378 . S
C195 H207 0.950 . S
C195 C226 1.383 . S
H196 C215 0.947 . S
H197 C216 0.946 . S
H198 C218 0.953 . S
H199 C219 0.945 . S
H200 C221 0.952 . S
H201 C222 0.949 . S
H202 C224 0.950 1_655 S
H203 C225 0.948 1_655 S
H204 C227 0.951 . S
H205 C192 0.947 . S
H206 C194 0.952 . S
H207 C195 0.950 . S
N208 C211 1.382 . S
N208 C213 1.363 . S
N209 C211 1.371 . S
N209 C212 1.372 . S
N210 C212 1.361 . S
N210 C213 1.377 . S
C211 N208 1.382 . S
C211 N209 1.371 . S
C211 C214 1.480 . S
C212 N209 1.372 . S
C212 N210 1.361 . S
C212 C220 1.457 . S
C213 N208 1.363 . S
C213 N210 1.377 . S
C213 C226 1.479 1_455 S
C214 C211 1.480 . S
C214 C215 1.383 . S
C214 C219 1.385 . S
C215 H196 0.947 . S
C215 C214 1.383 . S
C215 C216 1.388 . S
C216 H197 0.946 . S
C216 C215 1.388 . S
C216 C217 1.384 . S
C217 C216 1.384 . S
C217 C218 1.377 . S
C218 H198 0.953 . S
C218 C217 1.377 . S
C218 C219 1.369 . S
C219 H199 0.945 . S
C219 C214 1.385 . S
C219 C218 1.369 . S
C220 C212 1.457 . S
C220 C221 1.372 . S
C220 C225 1.364 . S
C221 H200 0.952 . S
C221 C220 1.372 . S
C221 C222 1.389 . S
C222 H201 0.949 . S
C222 C221 1.389 . S
C222 C223 1.387 . S
C223 C222 1.387 . S
C223 C224 1.372 . S
C224 H202 0.950 1_455 S
C224 C223 1.372 . S
C224 C225 1.379 . S
C225 H203 0.948 1_455 S
C225 C220 1.364 . S
C225 C224 1.379 . S
C226 C195 1.383 . S
C226 C213 1.479 1_655 S
C226 C227 1.398 . S
C227 C192 1.382 . S
C227 H204 0.951 . S
C227 C226 1.398 . S
C228 C229 1.384 . S
C228 H241 0.947 . S
C228 C263 1.382 . S
C229 C228 1.384 . S
C229 C230 1.378 . S
C230 C229 1.378 . S
C230 C231 1.378 . S
C230 H242 0.952 . S
C231 C230 1.378 . S
C231 H243 0.950 . S
C231 C262 1.383 . S
H232 C251 0.947 . S
H233 C252 0.946 . S
H234 C254 0.953 . S
H235 C255 0.945 . S
H236 C257 0.952 . S
H237 C258 0.949 . S
H238 C260 0.950 . S
H239 C261 0.948 . S
H240 C263 0.951 . S
H241 C228 0.947 . S
H242 C230 0.952 . S
H243 C231 0.950 . S
N244 C247 1.382 1_455 S
N244 C249 1.363 . S
N245 C247 1.371 . S
N245 C248 1.372 1_655 S
N246 C248 1.361 . S
N246 C249 1.377 . S
C247 N244 1.382 1_655 S
C247 N245 1.371 . S
C247 C250 1.480 . S
C248 N245 1.372 1_455 S
C248 N246 1.361 . S
C248 C256 1.457 . S
C249 N244 1.363 . S
C249 N246 1.377 . S
C249 C262 1.479 . S
C250 C247 1.480 . S
C250 C251 1.383 . S
C250 C255 1.385 . S
C251 H232 0.947 . S
C251 C250 1.383 . S
C251 C252 1.388 . S
C252 H233 0.946 . S
C252 C251 1.388 . S
C252 C253 1.384 . S
C253 C252 1.384 . S
C253 C254 1.377 . S
C254 H234 0.953 . S
C254 C253 1.377 . S
C254 C255 1.369 . S
C255 H235 0.945 . S
C255 C250 1.385 . S
C255 C254 1.369 . S
C256 C248 1.457 . S
C256 C257 1.372 1_455 S
C256 C261 1.364 . S
C257 H236 0.952 . S
C257 C256 1.372 1_655 S
C257 C258 1.389 . S
C258 H237 0.949 . S
C258 C257 1.389 . S
C258 C259 1.387 1_655 S
C259 C258 1.387 1_455 S
C259 C260 1.372 . S
C260 H238 0.950 . S
C260 C259 1.372 . S
C260 C261 1.379 . S
C261 H239 0.948 . S
C261 C256 1.364 . S
C261 C260 1.379 . S
C262 C231 1.383 . S
C262 C249 1.479 . S
C262 C263 1.398 . S
C263 C228 1.382 . S
C263 H240 0.951 . S
C263 C262 1.398 . S
C264 C265 1.384 . S
C264 H277 0.947 . S
C264 C299 1.382 . S
C265 C264 1.384 . S
C265 C266 1.378 . S
C266 C265 1.378 . S
C266 C267 1.378 . S
C266 H278 0.952 . S
C267 C266 1.378 . S
C267 H279 0.950 . S
C267 C298 1.383 . S
H268 C287 0.947 . S
H269 C288 0.946 . S
H270 C290 0.953 . S
H271 C291 0.945 . S
H272 C293 0.952 . S
H273 C294 0.949 . S
H274 C296 0.950 . S
H275 C297 0.948 . S
H276 C299 0.951 . S
H277 C264 0.947 . S
H278 C266 0.952 . S
H279 C267 0.950 . S
N280 C283 1.382 1_545 S
N280 C285 1.363 . S
N281 C283 1.371 . S
N281 C284 1.372 1_565 S
N282 C284 1.361 . S
N282 C285 1.377 . S
C283 N280 1.382 1_565 S
C283 N281 1.371 . S
C283 C286 1.480 . S
C284 N281 1.372 1_545 S
C284 N282 1.361 . S
C284 C292 1.457 . S
C285 N280 1.363 . S
C285 N282 1.377 . S
C285 C298 1.479 . S
C286 C283 1.480 . S
C286 C287 1.383 . S
C286 C291 1.385 . S
C287 H268 0.947 . S
C287 C286 1.383 . S
C287 C288 1.388 . S
C288 H269 0.946 . S
C288 C287 1.388 . S
C288 C289 1.384 . S
C289 C288 1.384 . S
C289 C290 1.377 . S
C290 H270 0.953 . S
C290 C289 1.377 . S
C290 C291 1.369 . S
C291 H271 0.945 . S
C291 C286 1.385 . S
C291 C290 1.369 . S
C292 C284 1.457 . S
C292 C293 1.372 1_545 S
C292 C297 1.364 . S
C293 H272 0.952 . S
C293 C292 1.372 1_565 S
C293 C294 1.389 . S
C294 H273 0.949 . S
C294 C293 1.389 . S
C294 C295 1.387 1_565 S
C295 C294 1.387 1_545 S
C295 C296 1.372 . S
C296 H274 0.950 . S
C296 C295 1.372 . S
C296 C297 1.379 . S
C297 H275 0.948 . S
C297 C292 1.364 . S
C297 C296 1.379 . S
C298 C267 1.383 . S
C298 C285 1.479 . S
C298 C299 1.398 . S
C299 C264 1.382 . S
C299 H276 0.951 . S
C299 C298 1.398 . S
C300 C301 1.384 . S
C300 H313 0.947 . S
C300 C335 1.382 . S
C301 C300 1.384 . S
C301 C302 1.378 . S
C302 C301 1.378 . S
C302 C303 1.378 . S
C302 H314 0.952 . S
C303 C302 1.378 . S
C303 H315 0.950 . S
C303 C334 1.383 . S
H304 C323 0.947 . S
H305 C324 0.946 . S
H306 C326 0.953 . S
H307 C327 0.945 . S
H308 C329 0.952 . S
H309 C330 0.949 . S
H310 C332 0.950 . S
H311 C333 0.948 . S
H312 C335 0.951 . S
H313 C300 0.947 . S
H314 C302 0.952 . S
H315 C303 0.950 . S
N316 C319 1.382 . S
N316 C321 1.363 . S
N317 C319 1.371 . S
N317 C320 1.372 . S
N318 C320 1.361 . S
N318 C321 1.377 . S
C319 N316 1.382 . S
C319 N317 1.371 . S
C319 C322 1.480 . S
C320 N317 1.372 . S
C320 N318 1.361 . S
C320 C328 1.457 . S
C321 N316 1.363 . S
C321 N318 1.377 . S
C321 C334 1.479 . S
C322 C319 1.480 . S
C322 C323 1.383 . S
C322 C327 1.385 . S
C323 H304 0.947 . S
C323 C322 1.383 . S
C323 C324 1.388 . S
C324 H305 0.946 . S
C324 C323 1.388 . S
C324 C325 1.384 . S
C325 C324 1.384 . S
C325 C326 1.377 . S
C326 H306 0.953 . S
C326 C325 1.377 . S
C326 C327 1.369 . S
C327 H307 0.945 . S
C327 C322 1.385 . S
C327 C326 1.369 . S
C328 C320 1.457 . S
C328 C329 1.372 . S
C328 C333 1.364 . S
C329 H308 0.952 . S
C329 C328 1.372 . S
C329 C330 1.389 . S
C330 H309 0.949 . S
C330 C329 1.389 . S
C330 C331 1.387 . S
C331 C330 1.387 . S
C331 C332 1.372 . S
C332 H310 0.950 . S
C332 C331 1.372 . S
C332 C333 1.379 . S
C333 H311 0.948 . S
C333 C328 1.364 . S
C333 C332 1.379 . S
C334 C303 1.383 . S
C334 C321 1.479 . S
C334 C335 1.398 . S
C335 C300 1.382 . S
C335 H312 0.951 . S
C335 C334 1.398 . S
H336 C344 0.929 . S
H337 C346 0.930 . S
H338 C348 0.930 . S
H339 C351 0.929 . S
H340 C354 0.930 . S
H341 C356 0.960 . S
H342 C356 0.960 . S
H343 C356 0.960 . S
C344 H336 0.929 . S
C344 C345 1.377 . S
C344 C346 1.384 . S
C345 C344 1.377 . S
C345 C351 1.390 . S
C346 H337 0.930 . S
C346 C344 1.384 . S
C346 C347 1.372 . S
C347 C346 1.372 . S
C347 C348 1.400 . S
C347 C352 1.490 . S
C348 H338 0.930 . S
C348 C347 1.400 . S
C348 C351 1.386 . S
H349 C365 0.930 . S
H350 C366 0.931 . S
C351 H339 0.929 . S
C351 C345 1.390 . S
C351 C348 1.386 . S
C352 C347 1.490 . S
C352 C354 1.395 . S
C352 C355 1.403 . S
H353 C359 0.930 . S
C354 H340 0.930 . S
C354 C352 1.395 . S
C354 C357 1.403 . S
C355 C352 1.403 . S
C355 C356 1.524 . S
C355 C359 1.400 . S
C356 H341 0.960 . S
C356 H342 0.960 . S
C356 H343 0.960 . S
C356 C355 1.524 . S
C357 C354 1.403 . S
C357 C358 1.392 . S
C357 C361 1.495 . S
C358 C357 1.392 . S
C358 C359 1.385 . S
C358 C360 1.478 . S
C359 H353 0.930 . S
C359 C355 1.400 . S
C359 C358 1.385 . S
C360 C358 1.478 . S
C360 C362 1.381 . S
C360 C366 1.383 . S
C361 C357 1.495 . S
C361 H367 0.959 . S
C361 H368 0.961 . S
C361 H369 0.960 . S
C362 C360 1.381 . S
C362 C363 1.394 . S
C362 H370 0.930 . S
C363 C362 1.394 . S
C363 C364 1.383 . S
C363 H371 0.929 . S
C364 C363 1.383 . S
C364 C365 1.377 . S
C365 H349 0.930 . S
C365 C364 1.377 . S
C365 C366 1.379 . S
C366 H350 0.931 . S
C366 C360 1.383 . S
C366 C365 1.379 . S
H367 C361 0.959 . S
H368 C361 0.961 . S
H369 C361 0.960 . S
H370 C362 0.930 . S
H371 C363 0.929 . S
H372 C380 0.929 . S
H373 C382 0.930 . S
H374 C384 0.930 . S
H375 C387 0.929 . S
H376 C390 0.930 . S
H377 C392 0.960 . S
H378 C392 0.960 . S
H379 C392 0.960 . S
C380 H372 0.929 . S
C380 C381 1.377 . S
C380 C382 1.384 . S
C381 C380 1.377 . S
C381 C387 1.390 . S
C382 H373 0.930 . S
C382 C380 1.384 . S
C382 C383 1.372 . S
C383 C382 1.372 . S
C383 C384 1.400 . S
C383 C388 1.490 . S
C384 H374 0.930 . S
C384 C383 1.400 . S
C384 C387 1.386 . S
H385 C401 0.930 . S
H386 C402 0.931 . S
C387 H375 0.929 . S
C387 C381 1.390 . S
C387 C384 1.386 . S
C388 C383 1.490 . S
C388 C390 1.395 . S
C388 C391 1.403 . S
H389 C395 0.930 . S
C390 H376 0.930 . S
C390 C388 1.395 . S
C390 C393 1.403 . S
C391 C388 1.403 . S
C391 C392 1.524 . S
C391 C395 1.400 . S
C392 H377 0.960 . S
C392 H378 0.960 . S
C392 H379 0.960 . S
C392 C391 1.524 . S
C393 C390 1.403 . S
C393 C394 1.392 . S
C393 C397 1.495 . S
C394 C393 1.392 . S
C394 C395 1.385 . S
C394 C396 1.478 . S
C395 H389 0.930 . S
C395 C391 1.400 . S
C395 C394 1.385 . S
C396 C394 1.478 . S
C396 C398 1.381 . S
C396 C402 1.383 . S
C397 C393 1.495 . S
C397 H403 0.959 . S
C397 H404 0.961 . S
C397 H405 0.960 . S
C398 C396 1.381 . S
C398 C399 1.394 . S
C398 H406 0.930 . S
C399 C398 1.394 . S
C399 C400 1.383 . S
C399 H407 0.929 . S
C400 C399 1.383 . S
C400 C401 1.377 . S
C401 H385 0.930 . S
C401 C400 1.377 . S
C401 C402 1.379 . S
C402 H386 0.931 . S
C402 C396 1.383 . S
C402 C401 1.379 . S
H403 C397 0.959 . S
H404 C397 0.961 . S
H405 C397 0.960 . S
H406 C398 0.930 . S
H407 C399 0.929 . S
H408 C416 0.929 . S
H409 C418 0.930 . S
H410 C420 0.930 . S
H411 C423 0.929 . S
H412 C426 0.930 . S
H413 C428 0.960 . S
H414 C428 0.960 . S
H415 C428 0.960 . S
C416 H408 0.929 . S
C416 C417 1.377 . S
C416 C418 1.384 . S
C417 C416 1.377 . S
C417 C423 1.390 . S
C418 H409 0.930 . S
C418 C416 1.384 . S
C418 C419 1.372 . S
C419 C418 1.372 . S
C419 C420 1.400 . S
C419 C424 1.490 . S
C420 H410 0.930 . S
C420 C419 1.400 . S
C420 C423 1.386 . S
H421 C437 0.930 . S
H422 C438 0.931 . S
C423 H411 0.929 . S
C423 C417 1.390 . S
C423 C420 1.386 . S
C424 C419 1.490 . S
C424 C426 1.395 . S
C424 C427 1.403 . S
H425 C431 0.930 . S
C426 H412 0.930 . S
C426 C424 1.395 . S
C426 C429 1.403 . S
C427 C424 1.403 . S
C427 C428 1.524 . S
C427 C431 1.400 . S
C428 H413 0.960 . S
C428 H414 0.960 . S
C428 H415 0.960 . S
C428 C427 1.524 . S
C429 C426 1.403 . S
C429 C430 1.392 . S
C429 C433 1.495 . S
C430 C429 1.392 . S
C430 C431 1.385 . S
C430 C432 1.478 . S
C431 H425 0.930 . S
C431 C427 1.400 . S
C431 C430 1.385 . S
C432 C430 1.478 . S
C432 C434 1.381 . S
C432 C438 1.383 . S
C433 C429 1.495 . S
C433 H439 0.959 . S
C433 H440 0.961 . S
C433 H441 0.960 . S
C434 C432 1.381 . S
C434 C435 1.394 . S
C434 H442 0.930 . S
C435 C434 1.394 . S
C435 C436 1.383 . S
C435 H443 0.929 . S
C436 C435 1.383 . S
C436 C437 1.377 . S
C437 H421 0.930 . S
C437 C436 1.377 . S
C437 C438 1.379 . S
C438 H422 0.931 . S
C438 C432 1.383 . S
C438 C437 1.379 . S
H439 C433 0.959 . S
H440 C433 0.961 . S
H441 C433 0.960 . S
H442 C434 0.930 . S
H443 C435 0.929 . S
H444 C452 0.929 . S
H445 C454 0.930 . S
H446 C456 0.930 . S
H447 C459 0.929 . S
H448 C462 0.930 . S
H449 C464 0.960 . S
H450 C464 0.960 . S
H451 C464 0.960 . S
C452 H444 0.929 . S
C452 C453 1.377 . S
C452 C454 1.384 . S
C453 C452 1.377 . S
C453 C459 1.390 . S
C454 H445 0.930 . S
C454 C452 1.384 . S
C454 C455 1.372 . S
C455 C454 1.372 . S
C455 C456 1.400 . S
C455 C460 1.490 . S
C456 H446 0.930 . S
C456 C455 1.400 . S
C456 C459 1.386 . S
H457 C473 0.930 . S
H458 C474 0.931 . S
C459 H447 0.929 . S
C459 C453 1.390 . S
C459 C456 1.386 . S
C460 C455 1.490 . S
C460 C462 1.395 . S
C460 C463 1.403 . S
H461 C467 0.930 . S
C462 H448 0.930 . S
C462 C460 1.395 . S
C462 C465 1.403 . S
C463 C460 1.403 . S
C463 C464 1.524 . S
C463 C467 1.400 . S
C464 H449 0.960 . S
C464 H450 0.960 . S
C464 H451 0.960 . S
C464 C463 1.524 . S
C465 C462 1.403 . S
C465 C466 1.392 . S
C465 C469 1.495 . S
C466 C465 1.392 . S
C466 C467 1.385 . S
C466 C468 1.478 . S
C467 H461 0.930 . S
C467 C463 1.400 . S
C467 C466 1.385 . S
C468 C466 1.478 . S
C468 C470 1.381 . S
C468 C474 1.383 . S
C469 C465 1.495 . S
C469 H475 0.959 . S
C469 H476 0.961 . S
C469 H477 0.960 . S
C470 C468 1.381 . S
C470 C471 1.394 . S
C470 H478 0.930 . S
C471 C470 1.394 . S
C471 C472 1.383 . S
C471 H479 0.929 . S
C472 C471 1.383 . S
C472 C473 1.377 . S
C473 H457 0.930 . S
C473 C472 1.377 . S
C473 C474 1.379 . S
C474 H458 0.931 . S
C474 C468 1.383 . S
C474 C473 1.379 . S
H475 C469 0.959 . S
H476 C469 0.961 . S
H477 C469 0.960 . S
H478 C470 0.930 . S
H479 C471 0.929 . S
H480 C488 0.929 . S
H481 C490 0.930 . S
H482 C492 0.930 . S
H483 C495 0.929 . S
H484 C498 0.930 . S
H485 C500 0.960 . S
H486 C500 0.960 . S
H487 C500 0.960 . S
C488 H480 0.929 . S
C488 C489 1.377 . S
C488 C490 1.384 . S
C489 C488 1.377 . S
C489 C495 1.390 . S
C490 H481 0.930 . S
C490 C488 1.384 . S
C490 C491 1.372 . S
C491 C490 1.372 . S
C491 C492 1.400 . S
C491 C496 1.490 . S
C492 H482 0.930 . S
C492 C491 1.400 . S
C492 C495 1.386 . S
H493 C509 0.930 . S
H494 C510 0.931 . S
C495 H483 0.929 . S
C495 C489 1.390 . S
C495 C492 1.386 . S
C496 C491 1.490 . S
C496 C498 1.395 . S
C496 C499 1.403 . S
H497 C503 0.930 . S
C498 H484 0.930 . S
C498 C496 1.395 . S
C498 C501 1.403 . S
C499 C496 1.403 . S
C499 C500 1.524 . S
C499 C503 1.400 . S
C500 H485 0.960 . S
C500 H486 0.960 . S
C500 H487 0.960 . S
C500 C499 1.524 . S
C501 C498 1.403 . S
C501 C502 1.392 . S
C501 C505 1.495 . S
C502 C501 1.392 . S
C502 C503 1.385 . S
C502 C504 1.478 . S
C503 H497 0.930 . S
C503 C499 1.400 . S
C503 C502 1.385 . S
C504 C502 1.478 . S
C504 C506 1.381 . S
C504 C510 1.383 . S
C505 C501 1.495 . S
C505 H511 0.959 . S
C505 H512 0.961 . S
C505 H513 0.960 . S
C506 C504 1.381 . S
C506 C507 1.394 . S
C506 H514 0.930 . S
C507 C506 1.394 . S
C507 C508 1.383 . S
C507 H515 0.929 . S
C508 C507 1.383 . S
C508 C509 1.377 . S
C509 H493 0.930 . S
C509 C508 1.377 . S
C509 C510 1.379 . S
C510 H494 0.931 . S
C510 C504 1.383 . S
C510 C509 1.379 . S
H511 C505 0.959 . S
H512 C505 0.961 . S
H513 C505 0.960 . S
H514 C506 0.930 . S
H515 C507 0.929 . S
H516 C524 0.929 . S
H517 C526 0.930 . S
H518 C528 0.930 . S
H519 C531 0.929 . S
H520 C534 0.930 . S
H521 C536 0.960 . S
H522 C536 0.960 . S
H523 C536 0.960 . S
C524 H516 0.929 . S
C524 C525 1.377 . S
C524 C526 1.384 . S
C525 C524 1.377 . S
C525 C531 1.390 . S
C526 H517 0.930 . S
C526 C524 1.384 . S
C526 C527 1.372 . S
C527 C526 1.372 . S
C527 C528 1.400 . S
C527 C532 1.490 . S
C528 H518 0.930 . S
C528 C527 1.400 . S
C528 C531 1.386 . S
H529 C545 0.930 . S
H530 C546 0.931 . S
C531 H519 0.929 . S
C531 C525 1.390 . S
C531 C528 1.386 . S
C532 C527 1.490 . S
C532 C534 1.395 . S
C532 C535 1.403 . S
H533 C539 0.930 . S
C534 H520 0.930 . S
C534 C532 1.395 . S
C534 C537 1.403 . S
C535 C532 1.403 . S
C535 C536 1.524 . S
C535 C539 1.400 . S
C536 H521 0.960 . S
C536 H522 0.960 . S
C536 H523 0.960 . S
C536 C535 1.524 . S
C537 C534 1.403 . S
C537 C538 1.392 . S
C537 C541 1.495 . S
C538 C537 1.392 . S
C538 C539 1.385 . S
C538 C540 1.478 . S
C539 H533 0.930 . S
C539 C535 1.400 . S
C539 C538 1.385 . S
C540 C538 1.478 . S
C540 C542 1.381 . S
C540 C546 1.383 . S
C541 C537 1.495 . S
C541 H547 0.959 . S
C541 H548 0.961 . S
C541 H549 0.960 . S
C542 C540 1.381 . S
C542 C543 1.394 . S
C542 H550 0.930 . S
C543 C542 1.394 . S
C543 C544 1.383 . S
C543 H551 0.929 . S
C544 C543 1.383 . S
C544 C545 1.377 . S
C545 H529 0.930 . S
C545 C544 1.377 . S
C545 C546 1.379 . S
C546 H530 0.931 . S
C546 C540 1.383 . S
C546 C545 1.379 . S
H547 C541 0.959 . S
H548 C541 0.961 . S
H549 C541 0.960 . S
H550 C542 0.930 . S
H551 C543 0.929 . S
H552 C560 0.929 . S
H553 C562 0.930 . S
H554 C564 0.930 . S
H555 C567 0.929 . S
H556 C570 0.930 . S
H557 C572 0.960 . S
H558 C572 0.960 . S
H559 C572 0.960 . S
C560 H552 0.929 . S
C560 C561 1.377 . S
C560 C562 1.384 . S
C561 C560 1.377 . S
C561 C567 1.390 . S
C562 H553 0.930 . S
C562 C560 1.384 . S
C562 C563 1.372 . S
C563 C562 1.372 . S
C563 C564 1.400 . S
C563 C568 1.490 . S
C564 H554 0.930 . S
C564 C563 1.400 . S
C564 C567 1.386 . S
H565 C581 0.930 . S
H566 C582 0.931 . S
C567 H555 0.929 . S
C567 C561 1.390 . S
C567 C564 1.386 . S
C568 C563 1.490 . S
C568 C570 1.395 . S
C568 C571 1.403 . S
H569 C575 0.930 . S
C570 H556 0.930 . S
C570 C568 1.395 . S
C570 C573 1.403 . S
C571 C568 1.403 . S
C571 C572 1.524 . S
C571 C575 1.400 . S
C572 H557 0.960 . S
C572 H558 0.960 . S
C572 H559 0.960 . S
C572 C571 1.524 . S
C573 C570 1.403 . S
C573 C574 1.392 . S
C573 C577 1.495 . S
C574 C573 1.392 . S
C574 C575 1.385 . S
C574 C576 1.478 . S
C575 H569 0.930 . S
C575 C571 1.400 . S
C575 C574 1.385 . S
C576 C574 1.478 . S
C576 C578 1.381 . S
C576 C582 1.383 . S
C577 C573 1.495 . S
C577 H583 0.959 . S
C577 H584 0.961 . S
C577 H585 0.960 . S
C578 C576 1.381 . S
C578 C579 1.394 . S
C578 H586 0.930 . S
C579 C578 1.394 . S
C579 C580 1.383 . S
C579 H587 0.929 . S
C580 C579 1.383 . S
C580 C581 1.377 . S
C581 H565 0.930 . S
C581 C580 1.377 . S
C581 C582 1.379 . S
C582 H566 0.931 . S
C582 C576 1.383 . S
C582 C581 1.379 . S
H583 C577 0.959 . S
H584 C577 0.961 . S
H585 C577 0.960 . S
H586 C578 0.930 . S
H587 C579 0.929 . S
H588 C596 0.929 . S
H589 C598 0.930 . S
H590 C600 0.930 . S
H591 C603 0.929 . S
H592 C606 0.930 . S
H593 C608 0.960 . S
H594 C608 0.960 . S
H595 C608 0.960 . S
C596 H588 0.929 . S
C596 C597 1.377 . S
C596 C598 1.384 . S
C597 C596 1.377 . S
C597 C603 1.390 . S
C598 H589 0.930 . S
C598 C596 1.384 . S
C598 C599 1.372 . S
C599 C598 1.372 . S
C599 C600 1.400 . S
C599 C604 1.490 . S
C600 H590 0.930 . S
C600 C599 1.400 . S
C600 C603 1.386 . S
H601 C617 0.930 . S
H602 C618 0.931 . S
C603 H591 0.929 . S
C603 C597 1.390 . S
C603 C600 1.386 . S
C604 C599 1.490 . S
C604 C606 1.395 . S
C604 C607 1.403 . S
H605 C611 0.930 . S
C606 H592 0.930 . S
C606 C604 1.395 . S
C606 C609 1.403 . S
C607 C604 1.403 . S
C607 C608 1.524 . S
C607 C611 1.400 . S
C608 H593 0.960 . S
C608 H594 0.960 . S
C608 H595 0.960 . S
C608 C607 1.524 . S
C609 C606 1.403 . S
C609 C610 1.392 . S
C609 C613 1.495 . S
C610 C609 1.392 . S
C610 C611 1.385 . S
C610 C612 1.478 . S
C611 H605 0.930 . S
C611 C607 1.400 . S
C611 C610 1.385 . S
C612 C610 1.478 . S
C612 C614 1.381 . S
C612 C618 1.383 . S
C613 C609 1.495 . S
C613 H619 0.959 . S
C613 H620 0.961 . S
C613 H621 0.960 . S
C614 C612 1.381 . S
C614 C615 1.394 . S
C614 H622 0.930 . S
C615 C614 1.394 . S
C615 C616 1.383 . S
C615 H623 0.929 . S
C616 C615 1.383 . S
C616 C617 1.377 . S
C617 H601 0.930 . S
C617 C616 1.377 . S
C617 C618 1.379 . S
C618 H602 0.931 . S
C618 C612 1.383 . S
C618 C617 1.379 . S
H619 C613 0.959 . S
H620 C613 0.961 . S
H621 C613 0.960 . S
H622 C614 0.930 . S
H623 C615 0.929 . S
H624 C632 0.929 . S
H625 C634 0.930 . S
H626 C636 0.930 . S
H627 C639 0.929 . S
H628 C642 0.930 . S
H629 C644 0.960 . S
H630 C644 0.960 . S
H631 C644 0.960 . S
C632 H624 0.929 . S
C632 C633 1.377 . S
C632 C634 1.384 . S
C633 C632 1.377 . S
C633 C639 1.390 . S
C634 H625 0.930 . S
C634 C632 1.384 . S
C634 C635 1.372 . S
C635 C634 1.372 . S
C635 C636 1.400 . S
C635 C640 1.490 . S
C636 H626 0.930 . S
C636 C635 1.400 . S
C636 C639 1.386 . S
H637 C653 0.930 . S
H638 C654 0.931 . S
C639 H627 0.929 . S
C639 C633 1.390 . S
C639 C636 1.386 . S
C640 C635 1.490 . S
C640 C642 1.395 . S
C640 C643 1.403 . S
H641 C647 0.930 . S
C642 H628 0.930 . S
C642 C640 1.395 . S
C642 C645 1.403 . S
C643 C640 1.403 . S
C643 C644 1.524 . S
C643 C647 1.400 . S
C644 H629 0.960 . S
C644 H630 0.960 . S
C644 H631 0.960 . S
C644 C643 1.524 . S
C645 C642 1.403 . S
C645 C646 1.392 . S
C645 C649 1.495 . S
C646 C645 1.392 . S
C646 C647 1.385 . S
C646 C648 1.478 . S
C647 H641 0.930 . S
C647 C643 1.400 . S
C647 C646 1.385 . S
C648 C646 1.478 . S
C648 C650 1.381 . S
C648 C654 1.383 . S
C649 C645 1.495 . S
C649 H655 0.959 . S
C649 H656 0.961 . S
C649 H657 0.960 . S
C650 C648 1.381 . S
C650 C651 1.394 . S
C650 H658 0.930 . S
C651 C650 1.394 . S
C651 C652 1.383 . S
C651 H659 0.929 . S
C652 C651 1.383 . S
C652 C653 1.377 . S
C653 H637 0.930 . S
C653 C652 1.377 . S
C653 C654 1.379 . S
C654 H638 0.931 . S
C654 C648 1.383 . S
C654 C653 1.379 . S
H655 C649 0.959 . S
H656 C649 0.961 . S
H657 C649 0.960 . S
H658 C650 0.930 . S
H659 C651 0.929 . S
H660 C668 0.929 . S
H661 C670 0.930 . S
H662 C672 0.930 . S
H663 C675 0.929 . S
H664 C678 0.930 . S
H665 C680 0.960 . S
H666 C680 0.960 . S
H667 C680 0.960 . S
C668 H660 0.929 . S
C668 C669 1.377 . S
C668 C670 1.384 . S
C669 C668 1.377 . S
C669 C675 1.390 . S
C670 H661 0.930 . S
C670 C668 1.384 . S
C670 C671 1.372 . S
C671 C670 1.372 . S
C671 C672 1.400 . S
C671 C676 1.490 . S
C672 H662 0.930 . S
C672 C671 1.400 . S
C672 C675 1.386 . S
H673 C689 0.930 . S
H674 C690 0.931 . S
C675 H663 0.929 . S
C675 C669 1.390 . S
C675 C672 1.386 . S
C676 C671 1.490 . S
C676 C678 1.395 . S
C676 C679 1.403 . S
H677 C683 0.930 . S
C678 H664 0.930 . S
C678 C676 1.395 . S
C678 C681 1.403 . S
C679 C676 1.403 . S
C679 C680 1.524 . S
C679 C683 1.400 . S
C680 H665 0.960 . S
C680 H666 0.960 . S
C680 H667 0.960 . S
C680 C679 1.524 . S
C681 C678 1.403 . S
C681 C682 1.392 . S
C681 C685 1.495 . S
C682 C681 1.392 . S
C682 C683 1.385 . S
C682 C684 1.478 . S
C683 H677 0.930 . S
C683 C679 1.400 . S
C683 C682 1.385 . S
C684 C682 1.478 . S
C684 C686 1.381 . S
C684 C690 1.383 . S
C685 C681 1.495 . S
C685 H691 0.959 . S
C685 H692 0.961 . S
C685 H693 0.960 . S
C686 C684 1.381 . S
C686 C687 1.394 . S
C686 H694 0.930 . S
C687 C686 1.394 . S
C687 C688 1.383 . S
C687 H695 0.929 . S
C688 C687 1.383 . S
C688 C689 1.377 . S
C689 H673 0.930 . S
C689 C688 1.377 . S
C689 C690 1.379 . S
C690 H674 0.931 . S
C690 C684 1.383 . S
C690 C689 1.379 . S
H691 C685 0.959 . S
H692 C685 0.961 . S
H693 C685 0.960 . S
H694 C686 0.930 . S
H695 C687 0.929 . S
H696 C704 0.929 . S
H697 C706 0.930 . S
H698 C708 0.930 . S
H699 C711 0.929 . S
H700 C714 0.930 . S
H701 C716 0.960 . S
H702 C716 0.960 . S
H703 C716 0.960 . S
C704 H696 0.929 . S
C704 C705 1.377 . S
C704 C706 1.384 . S
C705 C704 1.377 . S
C705 C711 1.390 . S
C706 H697 0.930 . S
C706 C704 1.384 . S
C706 C707 1.372 . S
C707 C706 1.372 . S
C707 C708 1.400 . S
C707 C712 1.490 . S
C708 H698 0.930 . S
C708 C707 1.400 . S
C708 C711 1.386 . S
H709 C725 0.930 . S
H710 C726 0.931 . S
C711 H699 0.929 . S
C711 C705 1.390 . S
C711 C708 1.386 . S
C712 C707 1.490 . S
C712 C714 1.395 . S
C712 C715 1.403 . S
H713 C719 0.930 . S
C714 H700 0.930 . S
C714 C712 1.395 . S
C714 C717 1.403 . S
C715 C712 1.403 . S
C715 C716 1.524 . S
C715 C719 1.400 . S
C716 H701 0.960 . S
C716 H702 0.960 . S
C716 H703 0.960 . S
C716 C715 1.524 . S
C717 C714 1.403 . S
C717 C718 1.392 . S
C717 C721 1.495 . S
C718 C717 1.392 . S
C718 C719 1.385 . S
C718 C720 1.478 . S
C719 H713 0.930 . S
C719 C715 1.400 . S
C719 C718 1.385 . S
C720 C718 1.478 . S
C720 C722 1.381 . S
C720 C726 1.383 . S
C721 C717 1.495 . S
C721 H727 0.959 . S
C721 H728 0.961 . S
C721 H729 0.960 . S
C722 C720 1.381 . S
C722 C723 1.394 . S
C722 H730 0.930 . S
C723 C722 1.394 . S
C723 C724 1.383 . S
C723 H731 0.929 . S
C724 C723 1.383 . S
C724 C725 1.377 . S
C725 H709 0.930 . S
C725 C724 1.377 . S
C725 C726 1.379 . S
C726 H710 0.931 . S
C726 C720 1.383 . S
C726 C725 1.379 . S
H727 C721 0.959 . S
H728 C721 0.961 . S
H729 C721 0.960 . S
H730 C722 0.930 . S
H731 C723 0.929 . S
H732 C740 0.929 . S
H733 C742 0.930 . S
H734 C744 0.930 . S
H735 C747 0.929 . S
H736 C750 0.930 . S
H737 C752 0.960 . S
H738 C752 0.960 . S
H739 C752 0.960 . S
C740 H732 0.929 . S
C740 C741 1.377 . S
C740 C742 1.384 . S
C741 C740 1.377 . S
C741 C747 1.390 . S
C742 H733 0.930 . S
C742 C740 1.384 . S
C742 C743 1.372 . S
C743 C742 1.372 . S
C743 C744 1.400 . S
C743 C748 1.490 . S
C744 H734 0.930 . S
C744 C743 1.400 . S
C744 C747 1.386 . S
H745 C761 0.930 . S
H746 C762 0.931 . S
C747 H735 0.929 . S
C747 C741 1.390 . S
C747 C744 1.386 . S
C748 C743 1.490 . S
C748 C750 1.395 . S
C748 C751 1.403 . S
H749 C755 0.930 . S
C750 H736 0.930 . S
C750 C748 1.395 . S
C750 C753 1.403 . S
C751 C748 1.403 . S
C751 C752 1.524 . S
C751 C755 1.400 . S
C752 H737 0.960 . S
C752 H738 0.960 . S
C752 H739 0.960 . S
C752 C751 1.524 . S
C753 C750 1.403 . S
C753 C754 1.392 . S
C753 C757 1.495 . S
C754 C753 1.392 . S
C754 C755 1.385 . S
C754 C756 1.478 . S
C755 H749 0.930 . S
C755 C751 1.400 . S
C755 C754 1.385 . S
C756 C754 1.478 . S
C756 C758 1.381 . S
C756 C762 1.383 . S
C757 C753 1.495 . S
C757 H763 0.959 . S
C757 H764 0.961 . S
C757 H765 0.960 . S
C758 C756 1.381 . S
C758 C759 1.394 . S
C758 H766 0.930 . S
C759 C758 1.394 . S
C759 C760 1.383 . S
C759 H767 0.929 . S
C760 C759 1.383 . S
C760 C761 1.377 . S
C761 H745 0.930 . S
C761 C760 1.377 . S
C761 C762 1.379 . S
C762 H746 0.931 . S
C762 C756 1.383 . S
C762 C761 1.379 . S
H763 C757 0.959 . S
H764 C757 0.961 . S
H765 C757 0.960 . S
H766 C758 0.930 . S
H767 C759 0.929 . S
H768 C776 0.929 . S
H769 C778 0.930 . S
H770 C780 0.930 . S
H771 C783 0.929 . S
H772 C786 0.930 1_655 S
H773 C788 0.960 . S
H774 C788 0.960 . S
H775 C788 0.960 . S
C776 H768 0.929 . S
C776 C777 1.377 . S
C776 C778 1.384 . S
C777 C776 1.377 . S
C777 C783 1.390 . S
C778 H769 0.930 . S
C778 C776 1.384 . S
C778 C779 1.372 . S
C779 C778 1.372 . S
C779 C780 1.400 . S
C779 C784 1.490 . S
C780 H770 0.930 . S
C780 C779 1.400 . S
C780 C783 1.386 . S
H781 C797 0.930 . S
H782 C798 0.931 . S
C783 H771 0.929 . S
C783 C777 1.390 . S
C783 C780 1.386 . S
C784 C779 1.490 . S
C784 C786 1.395 . S
C784 C787 1.403 . S
H785 C791 0.930 . S
C786 H772 0.930 1_455 S
C786 C784 1.395 . S
C786 C789 1.403 . S
C787 C784 1.403 . S
C787 C788 1.524 . S
C787 C791 1.400 . S
C788 H773 0.960 . S
C788 H774 0.960 . S
C788 H775 0.960 . S
C788 C787 1.524 . S
C789 C786 1.403 . S
C789 C790 1.392 . S
C789 C793 1.495 1_455 S
C790 C789 1.392 . S
C790 C791 1.385 . S
C790 C792 1.478 . S
C791 H785 0.930 . S
C791 C787 1.400 . S
C791 C790 1.385 . S
C792 C790 1.478 . S
C792 C794 1.381 . S
C792 C798 1.383 . S
C793 C789 1.495 1_655 S
C793 H799 0.959 . S
C793 H800 0.961 . S
C793 H801 0.960 . S
C794 C792 1.381 . S
C794 C795 1.394 1_554 S
C794 H802 0.930 . S
C795 C794 1.394 1_556 S
C795 C796 1.383 . S
C795 H803 0.929 . S
C796 C795 1.383 . S
C796 C797 1.377 . S
C797 H781 0.930 . S
C797 C796 1.377 . S
C797 C798 1.379 1_556 S
C798 H782 0.931 . S
C798 C792 1.383 . S
C798 C797 1.379 1_554 S
H799 C793 0.959 . S
H800 C793 0.961 . S
H801 C793 0.960 . S
H802 C794 0.930 . S
H803 C795 0.929 . S
H804 C812 0.929 . S
H805 C814 0.930 . S
H806 C816 0.930 1_565 S
H807 C819 0.929 1_565 S
H808 C822 0.930 . S
H809 C824 0.960 . S
H810 C824 0.960 . S
H811 C824 0.960 . S
C812 H804 0.929 . S
C812 C813 1.377 . S
C812 C814 1.384 . S
C813 C812 1.377 . S
C813 C819 1.390 . S
C814 H805 0.930 . S
C814 C812 1.384 . S
C814 C815 1.372 . S
C815 C814 1.372 . S
C815 C816 1.400 . S
C815 C820 1.490 . S
C816 H806 0.930 1_545 S
C816 C815 1.400 . S
C816 C819 1.386 . S
H817 C833 0.930 . S
H818 C834 0.931 . S
C819 H807 0.929 1_545 S
C819 C813 1.390 . S
C819 C816 1.386 . S
C820 C815 1.490 . S
C820 C822 1.395 . S
C820 C823 1.403 . S
H821 C827 0.930 1_565 S
C822 H808 0.930 . S
C822 C820 1.395 . S
C822 C825 1.403 . S
C823 C820 1.403 . S
C823 C824 1.524 1_545 S
C823 C827 1.400 . S
C824 H809 0.960 . S
C824 H810 0.960 . S
C824 H811 0.960 . S
C824 C823 1.524 1_565 S
C825 C822 1.403 . S
C825 C826 1.392 . S
C825 C829 1.495 . S
C826 C825 1.392 . S
C826 C827 1.385 . S
C826 C828 1.478 . S
C827 H821 0.930 1_545 S
C827 C823 1.400 . S
C827 C826 1.385 . S
C828 C826 1.478 . S
C828 C830 1.381 . S
C828 C834 1.383 . S
C829 C825 1.495 . S
C829 H835 0.959 . S
C829 H836 0.961 . S
C829 H837 0.960 . S
C830 C828 1.381 . S
C830 C831 1.394 . S
C830 H838 0.930 . S
C831 C830 1.394 . S
C831 C832 1.383 . S
C831 H839 0.929 . S
C832 C831 1.383 . S
C832 C833 1.377 . S
C833 H817 0.930 . S
C833 C832 1.377 . S
C833 C834 1.379 . S
C834 H818 0.931 . S
C834 C828 1.383 . S
C834 C833 1.379 . S
H835 C829 0.959 . S
H836 C829 0.961 . S
H837 C829 0.960 . S
H838 C830 0.930 . S
H839 C831 0.929 . S
H840 C848 0.929 . S
H841 C850 0.930 . S
H842 C852 0.930 . S
H843 C855 0.929 . S
H844 C858 0.930 . S
H845 C860 0.960 . S
H846 C860 0.960 . S
H847 C860 0.960 . S
C848 H840 0.929 . S
C848 C849 1.377 . S
C848 C850 1.384 . S
C849 C848 1.377 . S
C849 C855 1.390 . S
C850 H841 0.930 . S
C850 C848 1.384 . S
C850 C851 1.372 . S
C851 C850 1.372 . S
C851 C852 1.400 . S
C851 C856 1.490 . S
C852 H842 0.930 . S
C852 C851 1.400 . S
C852 C855 1.386 . S
H853 C869 0.930 . S
H854 C870 0.931 . S
C855 H843 0.929 . S
C855 C849 1.390 . S
C855 C852 1.386 . S
C856 C851 1.490 . S
C856 C858 1.395 . S
C856 C859 1.403 . S
H857 C863 0.930 . S
C858 H844 0.930 . S
C858 C856 1.395 . S
C858 C861 1.403 . S
C859 C856 1.403 . S
C859 C860 1.524 . S
C859 C863 1.400 . S
C860 H845 0.960 . S
C860 H846 0.960 . S
C860 H847 0.960 . S
C860 C859 1.524 . S
C861 C858 1.403 . S
C861 C862 1.392 . S
C861 C865 1.495 . S
C862 C861 1.392 . S
C862 C863 1.385 . S
C862 C864 1.478 . S
C863 H857 0.930 . S
C863 C859 1.400 . S
C863 C862 1.385 . S
C864 C862 1.478 . S
C864 C866 1.381 . S
C864 C870 1.383 . S
C865 C861 1.495 . S
C865 H871 0.959 . S
C865 H872 0.961 . S
C865 H873 0.960 . S
C866 C864 1.381 . S
C866 C867 1.394 . S
C866 H874 0.930 . S
C867 C866 1.394 . S
C867 C868 1.383 . S
C867 H875 0.929 . S
C868 C867 1.383 . S
C868 C869 1.377 . S
C869 H853 0.930 . S
C869 C868 1.377 . S
C869 C870 1.379 . S
C870 H854 0.931 . S
C870 C864 1.383 . S
C870 C869 1.379 . S
H871 C865 0.959 . S
H872 C865 0.961 . S
H873 C865 0.960 . S
H874 C866 0.930 . S
H875 C867 0.929 . S
H876 C884 0.929 . S
H877 C886 0.930 . S
H878 C888 0.930 . S
H879 C891 0.929 . S
H880 C894 0.930 . S
H881 C896 0.960 . S
H882 C896 0.960 . S
H883 C896 0.960 . S
C884 H876 0.929 . S
C884 C885 1.377 . S
C884 C886 1.384 . S
C885 C884 1.377 . S
C885 C891 1.390 . S
C886 H877 0.930 . S
C886 C884 1.384 . S
C886 C887 1.372 . S
C887 C886 1.372 . S
C887 C888 1.400 . S
C887 C892 1.490 . S
C888 H878 0.930 . S
C888 C887 1.400 . S
C888 C891 1.386 . S
H889 C905 0.930 . S
H890 C906 0.931 . S
C891 H879 0.929 . S
C891 C885 1.390 . S
C891 C888 1.386 . S
C892 C887 1.490 . S
C892 C894 1.395 1_545 S
C892 C895 1.403 . S
H893 C899 0.930 . S
C894 H880 0.930 . S
C894 C892 1.395 1_565 S
C894 C897 1.403 . S
C895 C892 1.403 . S
C895 C896 1.524 . S
C895 C899 1.400 . S
C896 H881 0.960 . S
C896 H882 0.960 . S
C896 H883 0.960 . S
C896 C895 1.524 . S
C897 C894 1.403 . S
C897 C898 1.392 1_565 S
C897 C901 1.495 . S
C898 C897 1.392 1_545 S
C898 C899 1.385 . S
C898 C900 1.480 . S
C899 H893 0.930 . S
C899 C895 1.400 . S
C899 C898 1.385 . S
C900 C898 1.480 . S
C900 C902 1.385 . S
C900 C906 1.376 . S
C901 C897 1.495 . S
C901 H907 0.959 . S
C901 H908 0.961 . S
C901 H909 0.960 . S
C902 C900 1.385 . S
C902 C903 1.394 . S
C902 H910 0.938 1_545 S
C903 C902 1.394 . S
C903 C904 1.383 . S
C903 H911 0.929 . S
C904 C903 1.383 . S
C904 C905 1.377 . S
C905 H889 0.930 . S
C905 C904 1.377 . S
C905 C906 1.379 . S
C906 H890 0.931 . S
C906 C900 1.376 . S
C906 C905 1.379 . S
H907 C901 0.959 . S
H908 C901 0.961 . S
H909 C901 0.960 . S
H910 C902 0.938 1_565 S
H911 C903 0.929 . S
H912 C920 0.929 . S
H913 C922 0.930 . S
H914 C924 0.930 . S
H915 C927 0.929 . S
H916 C930 0.930 . S
H917 C932 0.960 . S
H918 C932 0.960 . S
H919 C932 0.960 . S
C920 H912 0.929 . S
C920 C921 1.377 . S
C920 C922 1.384 . S
C921 C920 1.377 . S
C921 C927 1.390 . S
C922 H913 0.930 . S
C922 C920 1.384 . S
C922 C923 1.372 . S
C923 C922 1.372 . S
C923 C924 1.400 . S
C923 C928 1.490 . S
C924 H914 0.930 . S
C924 C923 1.400 . S
C924 C927 1.386 . S
H925 C941 0.930 . S
H926 C942 0.931 . S
C927 H915 0.929 . S
C927 C921 1.390 . S
C927 C924 1.386 . S
C928 C923 1.490 . S
C928 C930 1.395 . S
C928 C931 1.403 . S
H929 C935 0.930 . S
C930 H916 0.930 . S
C930 C928 1.395 . S
C930 C933 1.403 . S
C931 C928 1.403 . S
C931 C932 1.524 . S
C931 C935 1.400 . S
C932 H917 0.960 . S
C932 H918 0.960 . S
C932 H919 0.960 . S
C932 C931 1.524 . S
C933 C930 1.403 . S
C933 C934 1.392 . S
C933 C937 1.495 . S
C934 C933 1.392 . S
C934 C935 1.385 . S
C934 C936 1.478 . S
C935 H929 0.930 . S
C935 C931 1.400 . S
C935 C934 1.385 . S
C936 C934 1.478 . S
C936 C938 1.381 . S
C936 C942 1.383 . S
C937 C933 1.495 . S
C937 H943 0.959 . S
C937 H944 0.961 . S
C937 H945 0.960 . S
C938 C936 1.381 . S
C938 C939 1.394 1_556 S
C938 H946 0.930 . S
C939 C938 1.394 1_554 S
C939 C940 1.383 . S
C939 H947 0.929 . S
C940 C939 1.383 . S
C940 C941 1.377 . S
C941 H925 0.930 . S
C941 C940 1.377 . S
C941 C942 1.379 1_554 S
C942 H926 0.931 . S
C942 C936 1.383 . S
C942 C941 1.379 1_556 S
H943 C937 0.959 . S
H944 C937 0.961 . S
H945 C937 0.960 . S
H946 C938 0.930 . S
H947 C939 0.929 . S
H948 C956 0.929 . S
H949 C958 0.930 . S
H950 C960 0.930 . S
H951 C963 0.929 . S
H952 C966 0.930 . S
H953 C968 0.960 . S
H954 C968 0.960 . S
H955 C968 0.960 . S
C956 H948 0.929 . S
C956 C957 1.377 1_655 S
C956 C958 1.384 . S
C957 C956 1.377 1_455 S
C957 C963 1.390 . S
C958 H949 0.930 . S
C958 C956 1.384 . S
C958 C959 1.372 1_655 S
C959 C958 1.372 1_455 S
C959 C960 1.400 . S
C959 C964 1.490 . S
C960 H950 0.930 . S
C960 C959 1.400 . S
C960 C963 1.386 . S
H961 C977 0.930 . S
H962 C978 0.931 . S
C963 H951 0.929 . S
C963 C957 1.390 . S
C963 C960 1.386 . S
C964 C959 1.490 . S
C964 C966 1.395 1_455 S
C964 C967 1.403 . S
H965 C971 0.930 . S
C966 H952 0.930 . S
C966 C964 1.395 1_655 S
C966 C969 1.403 . S
C967 C964 1.403 . S
C967 C968 1.524 . S
C967 C971 1.400 . S
C968 H953 0.960 . S
C968 H954 0.960 . S
C968 H955 0.960 . S
C968 C967 1.524 . S
C969 C966 1.403 . S
C969 C970 1.392 1_655 S
C969 C973 1.495 . S
C970 C969 1.392 1_455 S
C970 C971 1.385 . S
C970 C972 1.478 . S
C971 H965 0.930 . S
C971 C967 1.400 . S
C971 C970 1.385 . S
C972 C970 1.478 . S
C972 C974 1.381 1_455 S
C972 C978 1.383 . S
C973 C969 1.495 . S
C973 H979 0.959 . S
C973 H980 0.961 . S
C973 H981 0.960 . S
C974 C972 1.381 1_655 S
C974 C975 1.394 . S
C974 H982 0.930 . S
C975 C974 1.394 . S
C975 C976 1.383 1_655 S
C975 H983 0.929 . S
C976 C975 1.383 1_455 S
C976 C977 1.377 . S
C977 H961 0.930 . S
C977 C976 1.377 . S
C977 C978 1.379 . S
C978 H962 0.931 . S
C978 C972 1.383 . S
C978 C977 1.379 . S
H979 C973 0.959 . S
H980 C973 0.961 . S
H981 C973 0.960 . S
H982 C974 0.930 . S
H983 C975 0.929 . S
C345 C10 3.071 . S
C364 C325 3.009 . S
C381 C55 1.150 . S
C400 C253 1.128 . S
C417 C90 1.841 . S
C436 C289 1.807 . S
C453 C19 2.910 . S
C472 C301 2.908 . S
C508 C229 1.277 . S
C489 C46 1.258 . S
C544 C265 2.001 . S
C525 C99 2.008 . S
C561 C50 1.851 . S
C580 C181 1.800 . S
C597 C95 0.468 . S
C616 C193 0.439 . S
C633 C6 1.287 . S
C652 C121 1.282 . S
C688 C157 1.939 . S
C669 C59 1.975 . S
C724 C217 0.257 . S
C705 C86 0.333 . S
C741 C15 1.172 . S
C760 C145 1.140 . S
C796 C223 1.107 . S
C777 C18 1.106 . S
C813 C49 1.446 . S
C832 C151 1.491 . S
C849 C98 1.341 . S
C868 C187 1.359 . S
C904 C295 1.386 . S
C885 C58 1.342 . S
C940 C331 1.760 . S
C921 C89 1.693 . S
C957 C9 1.453 . S
C976 C259 1.502 . S
