# Generated by pormake.
# Topology ssb, (4,4)-cn, num edge types: 1
# Building blocks:
#     Node 0, Type 0, BuildingBlock: KUFVIS_clean_linker_0, # of connection points: 4
#     Node 1, Type 0, BuildingBlock: KUFVIS_clean_linker_0, # of connection points: 4
#     Node 2, Type 0, BuildingBlock: KUFVIS_clean_linker_0, # of connection points: 4
#     Node 3, Type 0, BuildingBlock: KUFVIS_clean_linker_0, # of connection points: 4
#     Node 4, Type 0, BuildingBlock: KUFVIS_clean_linker_0, # of connection points: 4
#     Node 5, Type 0, BuildingBlock: KUFVIS_clean_linker_0, # of connection points: 4
#     Node 6, Type 0, BuildingBlock: KUFVIS_clean_linker_0, # of connection points: 4
#     Node 7, Type 0, BuildingBlock: KUFVIS_clean_linker_0, # of connection points: 4
#     Node 8, Type 1, BuildingBlock: NAWXER_clean_sbu_0, # of connection points: 4
#     Node 9, Type 1, BuildingBlock: NAWXER_clean_sbu_0, # of connection points: 4
#     Node 10, Type 1, BuildingBlock: NAWXER_clean_sbu_0, # of connection points: 4
#     Node 11, Type 1, BuildingBlock: NAWXER_clean_sbu_0, # of connection points: 4
#     Node 12, Type 1, BuildingBlock: NAWXER_clean_sbu_0, # of connection points: 4
#     Node 13, Type 1, BuildingBlock: NAWXER_clean_sbu_0, # of connection points: 4
#     Node 14, Type 1, BuildingBlock: NAWXER_clean_sbu_0, # of connection points: 4
#     Node 15, Type 1, BuildingBlock: NAWXER_clean_sbu_0, # of connection points: 4
#     Edge 16, Type (0, 1), BuildingBlock: ZUJKAS_clean_linker_0, # of connection points: 2
#     Edge 17, Type (0, 1), BuildingBlock: ZUJKAS_clean_linker_0, # of connection points: 2
#     Edge 18, Type (0, 1), BuildingBlock: ZUJKAS_clean_linker_0, # of connection points: 2
#     Edge 19, Type (0, 1), BuildingBlock: ZUJKAS_clean_linker_0, # of connection points: 2
#     Edge 20, Type (0, 1), BuildingBlock: ZUJKAS_clean_linker_0, # of connection points: 2
#     Edge 21, Type (0, 1), BuildingBlock: ZUJKAS_clean_linker_0, # of connection points: 2
#     Edge 22, Type (0, 1), BuildingBlock: ZUJKAS_clean_linker_0, # of connection points: 2
#     Edge 23, Type (0, 1), BuildingBlock: ZUJKAS_clean_linker_0, # of connection points: 2
#     Edge 24, Type (0, 1), BuildingBlock: ZUJKAS_clean_linker_0, # of connection points: 2
#     Edge 25, Type (0, 1), BuildingBlock: ZUJKAS_clean_linker_0, # of connection points: 2
#     Edge 26, Type (0, 1), BuildingBlock: ZUJKAS_clean_linker_0, # of connection points: 2
#     Edge 27, Type (0, 1), BuildingBlock: ZUJKAS_clean_linker_0, # of connection points: 2
#     Edge 28, Type (0, 1), BuildingBlock: ZUJKAS_clean_linker_0, # of connection points: 2
#     Edge 29, Type (0, 1), BuildingBlock: ZUJKAS_clean_linker_0, # of connection points: 2
#     Edge 30, Type (0, 1), BuildingBlock: ZUJKAS_clean_linker_0, # of connection points: 2
#     Edge 31, Type (0, 1), BuildingBlock: ZUJKAS_clean_linker_0, # of connection points: 2
#     Edge 32, Type (0, 1), BuildingBlock: ZUJKAS_clean_linker_0, # of connection points: 2
#     Edge 33, Type (0, 1), BuildingBlock: ZUJKAS_clean_linker_0, # of connection points: 2
#     Edge 34, Type (0, 1), BuildingBlock: ZUJKAS_clean_linker_0, # of connection points: 2
#     Edge 35, Type (0, 1), BuildingBlock: ZUJKAS_clean_linker_0, # of connection points: 2
#     Edge 36, Type (0, 1), BuildingBlock: ZUJKAS_clean_linker_0, # of connection points: 2
#     Edge 37, Type (0, 1), BuildingBlock: ZUJKAS_clean_linker_0, # of connection points: 2
#     Edge 38, Type (0, 1), BuildingBlock: ZUJKAS_clean_linker_0, # of connection points: 2
#     Edge 39, Type (0, 1), BuildingBlock: ZUJKAS_clean_linker_0, # of connection points: 2
#     Edge 40, Type (0, 1), BuildingBlock: ZUJKAS_clean_linker_0, # of connection points: 2
#     Edge 41, Type (0, 1), BuildingBlock: ZUJKAS_clean_linker_0, # of connection points: 2
#     Edge 42, Type (0, 1), BuildingBlock: ZUJKAS_clean_linker_0, # of connection points: 2
#     Edge 43, Type (0, 1), BuildingBlock: ZUJKAS_clean_linker_0, # of connection points: 2
#     Edge 44, Type (0, 1), BuildingBlock: ZUJKAS_clean_linker_0, # of connection points: 2
#     Edge 45, Type (0, 1), BuildingBlock: ZUJKAS_clean_linker_0, # of connection points: 2
#     Edge 46, Type (0, 1), BuildingBlock: ZUJKAS_clean_linker_0, # of connection points: 2
#     Edge 47, Type (0, 1), BuildingBlock: ZUJKAS_clean_linker_0, # of connection points: 2
# Relax obj value: 0.000
# Max RMSD: 0.051
# Mean RMSD: 0.025
data_MOF--net-ssb--node1-NAWXER_clean_sbu_0--node2-KUFVIS_clean_linker_0--edge1-ZUJKAS_clean_linker_0
_symmetry_space_group_name_H-M    P1
_symmetry_Int_Tables_number       1
_symmetry_cell_setting            triclinic
loop_
_symmetry_equiv_pos_as_xyz
'x, y, z'
_cell_length_a     59.295737
_cell_length_b     59.320417
_cell_length_c     50.548487
_cell_angle_alpha  89.663589
_cell_angle_beta   89.721164
_cell_angle_gamma 89.970412
loop_
_atom_site_label
_atom_site_type_symbol
_atom_site_fract_x
_atom_site_fract_y
_atom_site_fract_z
_atom_type_partial_charge
H0 H 0.24023 0.23722 0.34993 0.0
H1 H 0.29349 0.24172 0.29291 0.0
H2 H 0.24474 0.29586 0.30078 0.0
H3 H 0.25365 0.30456 0.26067 0.0
H4 H 0.31279 0.31746 0.21487 0.0
H5 H 0.31498 0.26617 0.27454 0.0
C6 C 0.24876 0.2465 0.33428 0.0
C7 C 0.23985 0.26714 0.32578 0.0
C8 C 0.26852 0.23768 0.32311 0.0
C9 C 0.27893 0.24938 0.30207 0.0
C10 C 0.27081 0.27066 0.29336 0.0
C11 C 0.25134 0.27948 0.30607 0.0
C12 C 0.28259 0.28361 0.27138 0.0
C13 C 0.27123 0.30083 0.25707 0.0
C14 C 0.28249 0.31357 0.23763 0.0
C15 C 0.30473 0.30833 0.23099 0.0
C16 C 0.31618 0.29075 0.24363 0.0
C17 C 0.30532 0.27887 0.26423 0.0
H18 H 0.72669 0.276 0.1848 0.0
H19 H 0.77313 0.27482 0.24952 0.0
H20 H 0.72615 0.21983 0.23839 0.0
H21 H 0.72772 0.21818 0.28264 0.0
H22 H 0.78188 0.20547 0.33649 0.0
H23 H 0.79362 0.24774 0.26889 0.0
C24 C 0.73329 0.26777 0.20234 0.0
C25 C 0.724 0.24716 0.21058 0.0
C26 C 0.75138 0.27753 0.21588 0.0
C27 C 0.75989 0.2666 0.23854 0.0
C28 C 0.75084 0.24575 0.24743 0.0
C29 C 0.73313 0.23601 0.23268 0.0
C30 C 0.75951 0.2344 0.27217 0.0
C31 C 0.74525 0.22046 0.28786 0.0
C32 C 0.75322 0.20996 0.31105 0.0
C33 C 0.77562 0.21349 0.31864 0.0
C34 C 0.7901 0.2273 0.30377 0.0
C35 C 0.78204 0.23762 0.28055 0.0
H36 H 0.78704 0.7881 0.35514 0.0
H37 H 0.78151 0.73127 0.30392 0.0
H38 H 0.73715 0.789 0.29439 0.0
H39 H 0.71331 0.76327 0.27961 0.0
H40 H 0.71478 0.71551 0.21657 0.0
H41 H 0.77474 0.72657 0.26127 0.0
C42 C 0.77873 0.7797 0.33885 0.0
C43 C 0.76069 0.79038 0.3263 0.0
C44 C 0.78649 0.75866 0.33059 0.0
C45 C 0.77587 0.74798 0.30929 0.0
C46 C 0.75767 0.75847 0.29586 0.0
C47 C 0.75061 0.78011 0.30438 0.0
C48 C 0.74578 0.7467 0.27359 0.0
C49 C 0.72284 0.75141 0.26786 0.0
C50 C 0.71168 0.74019 0.24731 0.0
C51 C 0.72336 0.72418 0.23246 0.0
C52 C 0.7459 0.71909 0.23764 0.0
C53 C 0.75712 0.73036 0.25806 0.0
H54 H 0.20189 0.77717 0.33287 0.0
H55 H 0.24928 0.78718 0.26982 0.0
H56 H 0.21093 0.72497 0.27606 0.0
H57 H 0.21635 0.72235 0.23387 0.0
H58 H 0.27196 0.72343 0.17983 0.0
H59 H 0.27265 0.76775 0.24623 0.0
C60 C 0.21022 0.77103 0.31516 0.0
C61 C 0.20407 0.75005 0.30511 0.0
C62 C 0.22715 0.78403 0.30318 0.0
C63 C 0.23706 0.77639 0.27948 0.0
C64 C 0.2315 0.75499 0.2688 0.0
C65 C 0.21522 0.74174 0.28258 0.0
C66 C 0.24273 0.74644 0.24375 0.0
C67 C 0.23261 0.72921 0.22845 0.0
C68 C 0.2435 0.72026 0.20606 0.0
C69 C 0.26406 0.7296 0.19777 0.0
C70 C 0.27435 0.74704 0.21185 0.0
C71 C 0.26383 0.75512 0.23497 0.0
H72 H 0.31467 0.70571 0.80743 0.0
H73 H 0.2604 0.7181 0.75377 0.0
H74 H 0.30937 0.77042 0.7703 0.0
H75 H 0.30219 0.78073 0.72874 0.0
H76 H 0.24213 0.8023 0.68948 0.0
H77 H 0.23849 0.74745 0.74478 0.0
C78 C 0.30631 0.71679 0.79341 0.0
C79 C 0.31468 0.73852 0.78931 0.0
C80 C 0.28647 0.70965 0.78124 0.0
C81 C 0.27531 0.72424 0.76363 0.0
C82 C 0.2836 0.7463 0.75867 0.0
C83 C 0.30311 0.75338 0.77242 0.0
C84 C 0.27196 0.76192 0.7395 0.0
C85 C 0.2842 0.77899 0.72595 0.0
C86 C 0.27334 0.79409 0.70868 0.0
C87 C 0.25027 0.79142 0.70387 0.0
C88 C 0.23774 0.77443 0.71643 0.0
C89 C 0.24856 0.75994 0.73447 0.0
H90 H 0.27333 0.27192 0.85064 0.0
H91 H 0.26702 0.21286 0.80291 0.0
H92 H 0.22477 0.27122 0.78846 0.0
H93 H 0.20148 0.24699 0.77157 0.0
H94 H 0.20346 0.19576 0.71242 0.0
H95 H 0.26139 0.20581 0.76082 0.0
C96 C 0.26528 0.26307 0.83455 0.0
C97 C 0.24767 0.27362 0.82084 0.0
C98 C 0.27262 0.24134 0.82788 0.0
C99 C 0.26189 0.22997 0.80704 0.0
C100 C 0.24434 0.24029 0.79232 0.0
C101 C 0.23757 0.26234 0.79955 0.0
C102 C 0.23303 0.22804 0.76981 0.0
C103 C 0.21087 0.23386 0.76168 0.0
C104 C 0.20025 0.22247 0.74083 0.0
C105 C 0.21141 0.20449 0.7287 0.0
C106 C 0.23317 0.19825 0.73621 0.0
C107 C 0.24419 0.21036 0.75617 0.0
H108 H 0.70274 0.31196 0.8109 0.0
H109 H 0.76647 0.306 0.77207 0.0
H110 H 0.71178 0.26032 0.753 0.0
H111 H 0.7391 0.23805 0.74007 0.0
H112 H 0.79475 0.24193 0.68602 0.0
H113 H 0.77701 0.30019 0.73091 0.0
C114 C 0.71314 0.3038 0.79605 0.0
C115 C 0.7049 0.285 0.78267 0.0
C116 C 0.73507 0.31157 0.79187 0.0
C117 C 0.74924 0.30025 0.77405 0.0
C118 C 0.74118 0.2818 0.75912 0.0
C119 C 0.71878 0.27426 0.76391 0.0
C120 C 0.7561 0.27061 0.73879 0.0
C121 C 0.75247 0.24794 0.73118 0.0
C122 C 0.76584 0.23786 0.71148 0.0
C123 C 0.78404 0.24986 0.70074 0.0
C124 C 0.78839 0.27208 0.70816 0.0
C125 C 0.77401 0.28264 0.72646 0.0
H126 H 0.72784 0.7289 0.86046 0.0
H127 H 0.77131 0.72154 0.79353 0.0
H128 H 0.73081 0.78191 0.80271 0.0
H129 H 0.73508 0.7863 0.76051 0.0
H130 H 0.78812 0.78651 0.70281 0.0
H131 H 0.79288 0.74199 0.76919 0.0
C132 C 0.73468 0.73571 0.84217 0.0
C133 C 0.72693 0.75659 0.83268 0.0
C134 C 0.75116 0.72343 0.82848 0.0
C135 C 0.75957 0.73197 0.80437 0.0
C136 C 0.75251 0.75316 0.7942 0.0
C137 C 0.73617 0.76533 0.80899 0.0
C138 C 0.76231 0.7625 0.76857 0.0
C139 C 0.75117 0.77977 0.75401 0.0
C140 C 0.76085 0.78913 0.7309 0.0
C141 C 0.78115 0.78015 0.72128 0.0
C142 C 0.79239 0.7628 0.7347 0.0
C143 C 0.78318 0.75443 0.75848 0.0
C144 C 0.97405 0.30048 0.53861 0.0
C145 C 0.03914 0.29633 0.47834 0.0
O146 O 0.98484 0.31693 0.52841 0.0
Zn147 Zn 0.00644 0.29902 0.5083 0.0
O148 O 0.98018 0.28027 0.53329 0.0
Zn149 Zn 0.00551 0.2633 0.51035 0.0
O150 O 0.02223 0.24721 0.53728 0.0
O151 O 0.02641 0.28407 0.53947 0.0
O152 O 0.03182 0.27694 0.48574 0.0
O153 O 0.02925 0.31398 0.48659 0.0
O154 O 0.98504 0.28301 0.47935 0.0
O155 O 0.98755 0.2463 0.4857 0.0
C156 C 0.03092 0.26428 0.54839 0.0
C157 C 0.97933 0.26289 0.47296 0.0
C158 C 0.74591 0.03519 0.56427 0.0
C159 C 0.74522 0.98186 0.49066 0.0
O160 O 0.76297 0.02728 0.55209 0.0
Zn161 Zn 0.74664 0.00803 0.52785 0.0
O162 O 0.72605 0.02897 0.55756 0.0
Zn163 Zn 0.71032 0.00736 0.52929 0.0
O164 O 0.69564 0.98448 0.55199 0.0
O165 O 0.73272 0.98289 0.55334 0.0
O166 O 0.72552 0.98721 0.49911 0.0
O167 O 0.76261 0.98971 0.50202 0.0
O168 O 0.7302 0.03221 0.50312 0.0
O169 O 0.69332 0.02904 0.50746 0.0
C170 C 0.71351 0.97535 0.56096 0.0
C171 C 0.71031 0.0387 0.49682 0.0
C172 C 0.97951 0.71418 0.56776 0.0
C173 C 0.03884 0.70952 0.49881 0.0
O174 O 0.98591 0.73316 0.55816 0.0
Zn175 Zn 0.00872 0.74647 0.5295 0.0
O176 O 0.98846 0.69613 0.55909 0.0
Zn177 Zn 0.00919 0.71029 0.53329 0.0
O178 O 0.03236 0.72799 0.55822 0.0
O179 O 0.02858 0.76456 0.55123 0.0
O180 O 0.02984 0.69281 0.5108 0.0
O181 O 0.03225 0.72954 0.50432 0.0
O182 O 0.98824 0.76049 0.50427 0.0
O183 O 0.98637 0.72334 0.50442 0.0
C184 C 0.03819 0.74833 0.56331 0.0
C185 C 0.97984 0.7424 0.49517 0.0
C186 C 0.27355 0.03112 0.53984 0.0
C187 C 0.2698 0.97554 0.46842 0.0
O188 O 0.29307 0.02575 0.53069 0.0
Zn189 Zn 0.30695 0.00398 0.50041 0.0
O190 O 0.25603 0.0222 0.52994 0.0
Zn191 Zn 0.2712 1.0035 0.50416 0.0
O192 O 0.28873 0.9801 0.52911 0.0
O193 O 0.32521 0.98298 0.52105 0.0
O194 O 0.25356 0.98387 0.48165 0.0
O195 O 0.29004 0.98174 0.4735 0.0
O196 O 0.32138 0.02548 0.47646 0.0
O197 O 0.28431 0.02832 0.47721 0.0
C198 C 0.30903 0.97382 0.53374 0.0
C199 C 0.30348 0.03509 0.46841 0.0
C200 C 0.47166 0.79375 0.05988 0.0
C201 C 0.53765 0.79532 0.99916 0.0
O202 O 0.481 0.81152 0.05069 0.0
Zn203 Zn 0.5047 0.79638 0.0296 0.0
O204 O 0.47955 0.77447 0.05334 0.0
Zn205 Zn 0.50557 0.75993 0.02996 0.0
O206 O 0.52354 0.74441 0.05656 0.0
O207 O 0.52513 0.78147 0.05971 0.0
O208 O 0.53087 0.77566 1.00615 0.0
O209 O 0.52737 0.81261 1.00801 0.0
O210 O 0.48529 0.7804 0.9996 0.0
O211 O 0.48824 0.74345 1.00373 0.0
C212 C 0.531 0.76189 0.06809 0.0
C213 C 0.48026 0.76056 0.99165 0.0
C214 C 0.20973 0.5367 0.03178 0.0
C215 C 0.21154 0.47377 0.96815 0.0
O216 O 0.22955 0.52982 0.02563 0.0
Zn217 Zn 0.24544 0.50547 1.00081 0.0
O218 O 0.19269 0.52752 0.02103 0.0
Zn219 Zn 0.20931 0.50548 0.99954 0.0
O220 O 0.22404 0.48414 0.02934 0.0
O221 O 0.26109 0.48677 0.02639 0.0
O222 O 0.19391 0.48328 0.97729 0.0
O223 O 0.23097 0.48073 0.97551 0.0
O224 O 0.26234 0.52414 0.97613 0.0
O225 O 0.22554 0.52658 0.97052 0.0
C226 C 0.24368 0.47843 0.03754 0.0
C227 C 0.24561 0.53227 0.96362 0.0
C228 C 0.53114 0.24517 0.96859 0.0
C229 C 0.48302 0.2484 0.04764 0.0
O230 O 0.52361 0.26267 0.98008 0.0
Zn231 Zn 0.50692 0.24744 1.00794 0.0
O232 O 0.52583 0.22562 0.97766 0.0
Zn233 Zn 0.50596 0.21146 1.00943 0.0
O234 O 0.48217 0.1955 0.99035 0.0
O235 O 0.47976 0.23244 0.98661 0.0
O236 O 0.48727 0.22822 0.04011 0.0
O237 O 0.49117 0.26492 0.03461 0.0
O238 O 0.53327 0.23198 0.03053 0.0
O239 O 0.52861 0.19511 0.03007 0.0
C240 C 0.47206 0.2128 0.98127 0.0
C241 C 0.53974 0.21224 0.03763 0.0
C242 C 0.76498 0.53198 0.06558 0.0
C243 C 0.76135 0.47688 0.99364 0.0
O244 O 0.78424 0.5254 0.05698 0.0
Zn245 Zn 0.79823 0.50346 0.02797 0.0
O246 O 0.74705 0.52414 0.05534 0.0
Zn247 Zn 0.76164 0.50426 0.02991 0.0
O248 O 0.77708 0.47989 0.0549 0.0
O249 O 0.81403 0.48091 0.05009 0.0
O250 O 0.74451 0.48532 1.00578 0.0
O251 O 0.78136 0.48249 1.00041 0.0
O252 O 0.81348 0.52515 1.00394 0.0
O253 O 0.77643 0.52791 1.00336 0.0
C254 C 0.79661 0.47235 0.06109 0.0
C255 C 0.79572 0.53453 0.99493 0.0
H256 H 0.23002 0.30945 0.34497 0.0
H257 H 0.19593 0.32094 0.36951 0.0
H258 H 0.16768 0.25473 0.35879 0.0
H259 H 0.20128 0.24326 0.33413 0.0
H260 H 0.14209 0.31138 0.35231 0.0
H261 H 0.17685 0.27239 0.4439 0.0
H262 H 0.19475 0.28383 0.41808 0.0
H263 H 0.1807 0.25742 0.41329 0.0
C264 C 0.21632 0.29753 0.3474 0.0
C265 C 0.21843 0.27537 0.33787 0.0
C266 C 0.19693 0.30409 0.36145 0.0
C267 C 0.17942 0.28861 0.36604 0.0
C268 C 0.18107 0.26687 0.35553 0.0
H269 H 0.0629 0.26138 0.45728 0.0
H270 H 0.09687 0.2629 0.43008 0.0
C271 C 0.20033 0.26033 0.34157 0.0
C272 C 0.16 0.29421 0.38335 0.0
H273 H 0.13828 0.28244 0.44452 0.0
C274 C 0.14131 0.30547 0.37263 0.0
C275 C 0.1591 0.28634 0.40976 0.0
C276 C 0.17892 0.27441 0.42216 0.0
C277 C 0.12128 0.30816 0.38739 0.0
C278 C 0.12011 0.29952 0.41354 0.0
C279 C 0.13918 0.28904 0.42449 0.0
C280 C 0.09881 0.2993 0.42918 0.0
C281 C 0.10116 0.31915 0.37452 0.0
C282 C 0.08848 0.31932 0.43773 0.0
C283 C 0.06887 0.31853 0.45341 0.0
C284 C 0.05935 0.29769 0.46086 0.0
C285 C 0.06971 0.27774 0.452 0.0
C286 C 0.0892 0.27856 0.43642 0.0
H287 H 0.10363 0.32154 0.35288 0.0
H288 H 0.08575 0.30886 0.37788 0.0
H289 H 0.09827 0.33592 0.38352 0.0
H290 H 0.09579 0.33552 0.4327 0.0
H291 H 0.06139 0.3342 0.45997 0.0
H292 H 0.72573 0.17539 0.29506 0.0
H293 H 0.70755 0.14676 0.32328 0.0
H294 H 0.73118 0.18131 0.39268 0.0
H295 H 0.74854 0.21012 0.36478 0.0
H296 H 0.72955 0.1187 0.35457 0.0
H297 H 0.66924 0.16489 0.41727 0.0
H298 H 0.68117 0.17711 0.38754 0.0
H299 H 0.6963 0.17825 0.41838 0.0
C300 C 0.72636 0.17724 0.31635 0.0
C301 C 0.7387 0.19494 0.32767 0.0
C302 C 0.71608 0.16081 0.33248 0.0
C303 C 0.71774 0.16191 0.36022 0.0
C304 C 0.72912 0.18024 0.37146 0.0
H305 H 0.744 0.06342 0.47444 0.0
H306 H 0.74153 0.09183 0.43985 0.0
C307 C 0.73932 0.19661 0.35542 0.0
C308 C 0.7104 0.14268 0.37738 0.0
H309 H 0.68491 0.1304 0.43662 0.0
C310 C 0.71932 0.12121 0.37216 0.0
C311 C 0.69677 0.14564 0.40023 0.0
C312 C 0.68513 0.16769 0.40599 0.0
C313 C 0.71643 0.10321 0.39003 0.0
C314 C 0.70466 0.1068 0.41408 0.0
C315 C 0.69426 0.12772 0.41841 0.0
C316 C 0.7053 0.08987 0.43593 0.0
C317 C 0.72668 0.08064 0.38338 0.0
C318 C 0.68558 0.07979 0.44608 0.0
C319 C 0.68689 0.06335 0.46622 0.0
C320 C 0.70795 0.05692 0.47662 0.0
C321 C 0.72748 0.06767 0.46684 0.0
C322 C 0.72615 0.08392 0.44688 0.0
H323 H 0.72844 0.07849 0.36165 0.0
H324 H 0.74378 0.07955 0.39212 0.0
H325 H 0.71635 0.06657 0.39147 0.0
H326 H 0.66927 0.08431 0.43809 0.0
H327 H 0.67153 0.05548 0.47333 0.0
H328 H 0.79113 0.75263 0.38354 0.0
H329 H 0.82605 0.74563 0.40754 0.0
H330 H 0.86119 0.73529 0.33365 0.0
H331 H 0.82614 0.74308 0.3094 0.0
H332 H 0.85636 0.71218 0.41176 0.0
H333 H 0.89597 0.78755 0.36508 0.0
H334 H 0.86643 0.78111 0.36145 0.0
H335 H 0.88719 0.76612 0.34239 0.0
C336 C 0.80622 0.74845 0.37243 0.0
C337 C 0.80604 0.74867 0.34462 0.0
C338 C 0.82617 0.74447 0.38615 0.0
C339 C 0.84639 0.74056 0.37239 0.0
C340 C 0.8459 0.73887 0.34465 0.0
H341 H 0.96753 0.70795 0.46307 0.0
H342 H 0.93668 0.70707 0.43137 0.0
C343 C 0.82584 0.74297 0.33083 0.0
C344 C 0.86789 0.73973 0.38736 0.0
H345 H 0.91763 0.76772 0.39644 0.0
C346 C 0.86985 0.72419 0.40826 0.0
C347 C 0.88529 0.75574 0.38313 0.0
C348 C 0.88364 0.77373 0.36197 0.0
C349 C 0.88849 0.7244 0.42528 0.0
C350 C 0.90605 0.74019 0.42083 0.0
C351 C 0.90425 0.75555 0.39972 0.0
C352 C 0.92605 0.74142 0.43838 0.0
C353 C 0.88869 0.7083 0.44853 0.0
C354 C 0.93116 0.76143 0.45187 0.0
C355 C 0.94914 0.76214 0.46975 0.0
C356 C 0.9622 0.74278 0.47452 0.0
C357 C 0.95756 0.72307 0.46018 0.0
C358 C 0.93983 0.72247 0.44213 0.0
H359 H 0.8715 0.70199 0.45334 0.0
H360 H 0.89936 0.69352 0.44362 0.0
H361 H 0.89571 0.71644 0.46641 0.0
H362 H 0.92084 0.77634 0.44912 0.0
H363 H 0.95232 0.77757 0.48045 0.0
H364 H 0.2354 0.78974 0.35558 0.0
H365 H 0.2439 0.82444 0.37891 0.0
H366 H 0.24574 0.86075 0.30475 0.0
H367 H 0.23613 0.82592 0.28117 0.0
H368 H 0.27898 0.85218 0.37711 0.0
H369 H 0.2018 0.89868 0.34701 0.0
H370 H 0.20536 0.86891 0.34124 0.0
H371 H 0.2192 0.88914 0.32012 0.0
C372 C 0.2374 0.80513 0.34416 0.0
C373 C 0.23463 0.80511 0.31652 0.0
C374 C 0.24243 0.82497 0.35755 0.0
C375 C 0.24502 0.84537 0.34372 0.0
C376 C 0.24326 0.84534 0.31596 0.0
H377 H 0.29916 0.96112 0.43031 0.0
H378 H 0.29356 0.93125 0.39796 0.0
C379 C 0.23806 0.82537 0.30245 0.0
C380 C 0.24946 0.86639 0.35885 0.0
H381 H 0.22743 0.918 0.3743 0.0
C382 C 0.26779 0.86664 0.37635 0.0
C383 C 0.23466 0.88514 0.35818 0.0
C384 C 0.21403 0.8855 0.34083 0.0
C385 C 0.2715 0.8848 0.39351 0.0
C386 C 0.25687 0.90368 0.39264 0.0
C387 C 0.23873 0.90362 0.37485 0.0
C388 C 0.25963 0.92318 0.4108 0.0
C389 C 0.29051 0.88306 0.41319 0.0
C390 C 0.24203 0.92944 0.428 0.0
C391 C 0.24505 0.94685 0.44629 0.0
C392 C 0.26578 0.95827 0.44781 0.0
C393 C 0.28309 0.95246 0.42995 0.0
C394 C 0.27996 0.93528 0.4115 0.0
H395 H 0.29593 0.86531 0.41629 0.0
H396 H 0.30526 0.89265 0.40559 0.0
H397 H 0.28552 0.89019 0.43262 0.0
H398 H 0.22613 0.92046 0.42776 0.0
H399 H 0.23136 0.95092 0.4597 0.0
H400 H 0.20554 0.80715 0.71155 0.0
H401 H 0.16844 0.80361 0.69105 0.0
H402 H 0.17835 0.7319 0.68376 0.0
H403 H 0.21565 0.73535 0.70409 0.0
H404 H 0.16424 0.78695 0.63905 0.0
H405 H 0.11239 0.7374 0.71024 0.0
H406 H 0.13762 0.75225 0.71989 0.0
H407 H 0.13972 0.72572 0.70311 0.0
C408 C 0.19965 0.79055 0.70601 0.0
C409 C 0.21361 0.77154 0.70922 0.0
C410 C 0.17844 0.78857 0.69435 0.0
C411 C 0.17061 0.76751 0.68592 0.0
C412 C 0.18392 0.74828 0.69049 0.0
H413 H 0.06468 0.71694 0.5876 0.0
H414 H 0.0957 0.72315 0.61811 0.0
C415 C 0.20522 0.75026 0.70214 0.0
C416 C 0.14983 0.76612 0.66976 0.0
H417 H 0.09762 0.74204 0.66685 0.0
C418 C 0.14955 0.77733 0.64522 0.0
C419 C 0.1308 0.75346 0.67781 0.0
C420 C 0.12995 0.74165 0.70429 0.0
C421 C 0.13106 0.77564 0.6281 0.0
C422 C 0.11202 0.76284 0.63604 0.0
C423 C 0.11216 0.75192 0.66081 0.0
C424 C 0.0924 0.75947 0.61827 0.0
C425 C 0.13252 0.78682 0.60124 0.0
C426 C 0.07992 0.77782 0.60842 0.0
C427 C 0.0622 0.77434 0.59064 0.0
C428 C 0.05646 0.75241 0.58268 0.0
C429 C 0.06862 0.73408 0.59321 0.0
C430 C 0.08637 0.73758 0.61076 0.0
H431 H 0.15019 0.79102 0.59572 0.0
H432 H 0.12536 0.77582 0.5857 0.0
H433 H 0.12272 0.80276 0.60155 0.0
H434 H 0.08393 0.79485 0.61439 0.0
H435 H 0.05305 0.78881 0.58311 0.0
H436 H 0.27102 0.19913 0.70504 0.0
H437 H 0.28298 0.16983 0.67361 0.0
H438 H 0.23053 0.12591 0.70305 0.0
H439 H 0.21858 0.15506 0.73425 0.0
H440 H 0.27395 0.10399 0.69097 0.0
H441 H 0.23973 0.1573 0.60946 0.0
H442 H 0.26005 0.17018 0.63094 0.0
H443 H 0.2329 0.16228 0.64377 0.0
C444 C 0.26258 0.18294 0.7053 0.0
C445 C 0.24396 0.17925 0.72204 0.0
C446 C 0.26925 0.16632 0.68722 0.0
C447 C 0.25743 0.14582 0.6858 0.0
C448 C 0.23985 0.1416 0.7038 0.0
H449 H 0.23521 0.05021 0.56058 0.0
H450 H 0.23253 0.07781 0.59635 0.0
C451 C 0.23309 0.1582 0.72164 0.0
C452 C 0.26182 0.12952 0.66418 0.0
H453 H 0.25429 0.1218 0.59784 0.0
C454 C 0.2699 0.10793 0.67056 0.0
C455 C 0.2561 0.1346 0.63765 0.0
C456 C 0.24656 0.15726 0.62989 0.0
C457 C 0.27242 0.09126 0.65107 0.0
C458 C 0.26673 0.09637 0.62454 0.0
C459 C 0.25871 0.11798 0.61818 0.0
C460 C 0.26848 0.07936 0.60317 0.0
C461 C 0.28053 0.06811 0.65906 0.0
C462 C 0.28959 0.07122 0.59501 0.0
C463 C 0.29119 0.05555 0.5745 0.0
C464 C 0.27169 0.04765 0.56174 0.0
C465 C 0.25055 0.05585 0.57 0.0
C466 C 0.24899 0.07165 0.59042 0.0
H467 H 0.28008 0.06562 0.68086 0.0
H468 H 0.27009 0.05487 0.64967 0.0
H469 H 0.29819 0.06584 0.65219 0.0
H470 H 0.30486 0.07717 0.60434 0.0
H471 H 0.30776 0.04963 0.56865 0.0
H472 H 0.78891 0.31252 0.68143 0.0
H473 H 0.82009 0.32779 0.65441 0.0
H474 H 0.86263 0.27283 0.6797 0.0
H475 H 0.8318 0.25776 0.70671 0.0
H476 H 0.88532 0.31548 0.67568 0.0
H477 H 0.83649 0.29355 0.58545 0.0
H478 H 0.82331 0.31209 0.60894 0.0
H479 H 0.82862 0.28325 0.61785 0.0
C480 C 0.80513 0.3041 0.6817 0.0
C481 C 0.80794 0.28388 0.69594 0.0
C482 C 0.82284 0.31271 0.66613 0.0
C483 C 0.84357 0.30124 0.66475 0.0
C484 C 0.84679 0.28193 0.68041 0.0
H485 H 0.94501 0.26873 0.55755 0.0
H486 H 0.91316 0.27377 0.5875 0.0
C487 C 0.82915 0.2733 0.69577 0.0
C488 C 0.86131 0.30769 0.64529 0.0
H489 H 0.87417 0.30418 0.57948 0.0
C490 C 0.8828 0.31355 0.65458 0.0
C491 C 0.858 0.30488 0.61779 0.0
C492 C 0.83544 0.29797 0.60675 0.0
C493 C 0.90128 0.31573 0.63719 0.0
C494 C 0.89813 0.31199 0.60986 0.0
C495 C 0.87645 0.30717 0.60044 0.0
C496 C 0.91748 0.30978 0.59135 0.0
C497 C 0.92433 0.32062 0.64824 0.0
C498 C 0.93045 0.32846 0.58339 0.0
C499 C 0.94879 0.32566 0.56602 0.0
C500 C 0.95446 0.30411 0.55652 0.0
C501 C 0.94125 0.28556 0.56451 0.0
C502 C 0.92296 0.28839 0.58161 0.0
H503 H 0.92423 0.32146 0.67019 0.0
H504 H 0.93645 0.30738 0.64196 0.0
H505 H 0.9305 0.33697 0.64028 0.0
H506 H 0.92637 0.34515 0.59055 0.0
H507 H 0.95861 0.34028 0.56024 0.0
H508 H 0.71613 0.79586 0.71759 0.0
H509 H 0.70053 0.82644 0.68994 0.0
H510 H 0.76649 0.85653 0.68398 0.0
H511 H 0.78202 0.82657 0.71171 0.0
H512 H 0.70776 0.88036 0.6962 0.0
H513 H 0.74143 0.83976 0.6054 0.0
H514 H 0.73483 0.82401 0.63517 0.0
H515 H 0.76012 0.84056 0.63333 0.0
C516 C 0.72719 0.80922 0.71076 0.0
C517 C 0.7504 0.80858 0.71657 0.0
C518 C 0.71827 0.82662 0.69492 0.0
C519 C 0.73242 0.8436 0.68472 0.0
C520 C 0.75532 0.84348 0.69145 0.0
H521 H 0.7494 0.95349 0.58243 0.0
H522 H 0.74959 0.92117 0.61211 0.0
C523 C 0.76418 0.82626 0.70721 0.0
C524 C 0.72403 0.86092 0.66582 0.0
H525 H 0.73049 0.87817 0.60166 0.0
C526 C 0.71223 0.87974 0.67539 0.0
C527 C 0.72995 0.86004 0.63873 0.0
C528 C 0.74214 0.83996 0.62736 0.0
C529 C 0.70739 0.89832 0.6588 0.0
C530 C 0.71437 0.89788 0.63197 0.0
C531 C 0.72514 0.87852 0.62221 0.0
C532 C 0.7133 0.91817 0.6145 0.0
C533 C 0.69607 0.9188 0.67037 0.0
C534 C 0.69274 0.92742 0.60585 0.0
C535 C 0.69253 0.94615 0.58861 0.0
C536 C 0.71289 0.95589 0.57975 0.0
C537 C 0.73334 0.94655 0.58871 0.0
C538 C 0.73352 0.92797 0.60575 0.0
H539 H 0.69418 0.91753 0.6922 0.0
H540 H 0.70591 0.93422 0.66548 0.0
H541 H 0.67907 0.92077 0.66159 0.0
H542 H 0.67691 0.91997 0.61209 0.0
H543 H 0.67649 0.95285 0.58207 0.0
H544 H 0.80434 0.71844 0.72809 0.0
H545 H 0.83783 0.70364 0.70513 0.0
H546 H 0.86155 0.7715 0.69203 0.0
H547 H 0.82846 0.78629 0.7151 0.0
H548 H 0.8503 0.71306 0.652 0.0
H549 H 0.91762 0.7393 0.72061 0.0
H550 H 0.88831 0.73784 0.73041 0.0
H551 H 0.89878 0.76193 0.71237 0.0
C552 C 0.81695 0.73015 0.72077 0.0
C553 C 0.81374 0.75354 0.7234 0.0
C554 C 0.836 0.72168 0.70752 0.0
C555 C 0.85235 0.73643 0.69708 0.0
C556 C 0.8494 0.75975 0.70028 0.0
H557 H 0.96152 0.75053 0.59261 0.0
H558 H 0.93138 0.75163 0.62527 0.0
C559 C 0.83037 0.7682 0.7133 0.0
C560 C 0.87181 0.72786 0.68133 0.0
H561 H 0.92913 0.73163 0.67585 0.0
C562 C 0.86759 0.71666 0.65744 0.0
C563 C 0.89437 0.73249 0.68848 0.0
C564 C 0.9001 0.74335 0.7145 0.0
C565 C 0.88519 0.71138 0.6397 0.0
C566 C 0.90764 0.71716 0.64624 0.0
C567 C 0.91194 0.72725 0.67078 0.0
C568 C 0.92647 0.71554 0.62672 0.0
C569 C 0.87952 0.70093 0.61343 0.0
C570 C 0.93404 0.69476 0.61671 0.0
C571 C 0.95151 0.69402 0.59777 0.0
C572 C 0.96163 0.71406 0.58855 0.0
C573 C 0.95414 0.73471 0.59905 0.0
C574 C 0.93688 0.73541 0.61786 0.0
H575 H 0.86106 0.70055 0.60982 0.0
H576 H 0.8878 0.71038 0.59703 0.0
H577 H 0.88591 0.68335 0.613 0.0
H578 H 0.92647 0.67915 0.62352 0.0
H579 H 0.95689 0.67784 0.59018 0.0
H580 H 0.26008 0.83779 0.70411 0.0
H581 H 0.2767 0.86733 0.67661 0.0
H582 H 0.33134 0.8228 0.65549 0.0
H583 H 0.31421 0.79267 0.6825 0.0
H584 H 0.31736 0.88917 0.67583 0.0
H585 H 0.3056 0.83968 0.58354 0.0
H586 H 0.29313 0.83118 0.61464 0.0
H587 H 0.32273 0.82701 0.6088 0.0
C588 C 0.27568 0.83427 0.69369 0.0
C589 C 0.28562 0.81277 0.69511 0.0
C590 C 0.28525 0.85123 0.67809 0.0
C591 C 0.30504 0.84719 0.66354 0.0
C592 C 0.31581 0.82616 0.6661 0.0
H593 H 0.3463 0.94651 0.54005 0.0
H594 H 0.35092 0.9156 0.57238 0.0
C595 C 0.30615 0.80905 0.68175 0.0
C596 C 0.31323 0.86482 0.64479 0.0
H597 H 0.31657 0.87739 0.57877 0.0
C598 C 0.31763 0.88647 0.65463 0.0
C599 C 0.3136 0.86132 0.61707 0.0
C600 C 0.30838 0.83862 0.60523 0.0
C601 C 0.32115 0.90489 0.63753 0.0
C602 C 0.3202 0.90161 0.60991 0.0
C603 C 0.31735 0.87977 0.6 0.0
C604 C 0.31857 0.92093 0.59129 0.0
C605 C 0.32485 0.92796 0.64909 0.0
C606 C 0.29887 0.93398 0.59122 0.0
C607 C 0.29608 0.95128 0.57274 0.0
C608 C 0.31301 0.95607 0.55396 0.0
C609 C 0.33301 0.94328 0.55434 0.0
C610 C 0.33566 0.92564 0.57273 0.0
H611 H 0.33091 0.92692 0.66983 0.0
H612 H 0.33723 0.9377 0.63708 0.0
H613 H 0.30865 0.93735 0.64904 0.0
H614 H 0.28538 0.93044 0.60518 0.0
H615 H 0.28051 0.96085 0.57309 0.0
H616 H 0.18729 0.26517 0.72701 0.0
H617 H 0.15472 0.27578 0.69987 0.0
H618 H 0.13186 0.20676 0.70118 0.0
H619 H 0.16391 0.19628 0.72876 0.0
H620 H 0.14877 0.2591 0.65055 0.0
H621 H 0.07296 0.23979 0.71065 0.0
H622 H 0.10066 0.24236 0.725 0.0
H623 H 0.09221 0.21648 0.70947 0.0
C624 C 0.17484 0.25247 0.72233 0.0
C625 C 0.17818 0.22989 0.72994 0.0
C626 C 0.15633 0.25849 0.70665 0.0
C627 C 0.14073 0.2421 0.69856 0.0
C628 C 0.14336 0.21982 0.70751 0.0
H629 H 0.0428 0.22524 0.57432 0.0
H630 H 0.06886 0.22112 0.61155 0.0
C631 C 0.1618 0.2138 0.72314 0.0
C632 C 0.1235 0.24751 0.67818 0.0
H633 H 0.06748 0.24245 0.66357 0.0
C634 C 0.13095 0.2558 0.65356 0.0
C635 C 0.10025 0.24302 0.68199 0.0
C636 C 0.09101 0.23513 0.70831 0.0
C637 C 0.11597 0.259 0.63243 0.0
C638 C 0.09283 0.25404 0.63607 0.0
C639 C 0.08526 0.24613 0.66079 0.0
C640 C 0.07635 0.25671 0.61424 0.0
C641 C 0.12514 0.26692 0.60606 0.0
C642 C 0.0717 0.27811 0.60367 0.0
C643 C 0.05684 0.28054 0.58244 0.0
C644 C 0.04628 0.26158 0.57133 0.0
C645 C 0.0507 0.24018 0.58229 0.0
C646 C 0.06553 0.23779 0.60362 0.0
H647 H 0.14379 0.26537 0.60493 0.0
H648 H 0.11763 0.25714 0.58965 0.0
H649 H 0.12068 0.28492 0.60308 0.0
H650 H 0.07964 0.29297 0.6118 0.0
H651 H 0.05377 0.29729 0.57462 0.0
H652 H 0.76302 0.2262 0.65983 0.0
H653 H 0.7576 0.18882 0.64121 0.0
H654 H 0.75115 0.16069 0.71975 0.0
H655 H 0.75709 0.1984 0.73872 0.0
H656 H 0.78103 0.13647 0.68596 0.0
H657 H 0.69923 0.1524 0.63711 0.0
H658 H 0.71988 0.17345 0.62892 0.0
H659 H 0.7102 0.17053 0.66258 0.0
C660 C 0.76039 0.21209 0.67319 0.0
C661 C 0.76058 0.2152 0.70075 0.0
C662 C 0.75711 0.19076 0.6625 0.0
C663 C 0.75372 0.17202 0.67906 0.0
C664 C 0.75362 0.175 0.70663 0.0
H665 H 0.71458 0.04752 0.60096 0.0
H666 H 0.71682 0.07818 0.63277 0.0
C667 C 0.75686 0.1965 0.71742 0.0
C668 C 0.75114 0.14938 0.66714 0.0
H669 H 0.7208 0.12116 0.62075 0.0
C670 C 0.76766 0.13292 0.67202 0.0
C671 C 0.73356 0.14467 0.64921 0.0
C672 C 0.71458 0.16112 0.64433 0.0
C673 C 0.76765 0.11228 0.65844 0.0
C674 C 0.75091 0.10823 0.63916 0.0
C675 C 0.73381 0.1243 0.63527 0.0
C676 C 0.7509 0.08781 0.62221 0.0
C677 C 0.78557 0.09508 0.66487 0.0
C678 C 0.76946 0.0827 0.60588 0.0
C679 C 0.76832 0.06495 0.58777 0.0
C680 C 0.74842 0.05226 0.58534 0.0
C681 C 0.73012 0.05705 0.6022 0.0
C682 C 0.73137 0.07458 0.62045 0.0
H683 H 0.79215 0.09738 0.68523 0.0
H684 H 0.77902 0.07763 0.66304 0.0
H685 H 0.79992 0.09718 0.65089 0.0
H686 H 0.78453 0.09299 0.60638 0.0
H687 H 0.78263 0.06179 0.57493 0.0
H688 H 0.82077 0.19578 0.31957 0.0
H689 H 0.85574 0.20218 0.34387 0.0
H690 H 0.84673 0.27399 0.33556 0.0
H691 H 0.81163 0.26765 0.31098 0.0
H692 H 0.89302 0.25852 0.33033 0.0
H693 H 0.85076 0.22516 0.42068 0.0
H694 H 0.85017 0.20646 0.39288 0.0
H695 H 0.83539 0.2329 0.39126 0.0
C696 C 0.82643 0.21293 0.32254 0.0
C697 C 0.81335 0.23123 0.31365 0.0
C698 C 0.84637 0.21656 0.3365 0.0
C699 C 0.85355 0.23856 0.34206 0.0
C700 C 0.84139 0.25688 0.33163 0.0
H701 H 0.95795 0.29477 0.44275 0.0
H702 H 0.92868 0.28892 0.40963 0.0
C703 C 0.82142 0.25324 0.31751 0.0
C704 C 0.87277 0.24228 0.36029 0.0
H705 H 0.88972 0.23297 0.42393 0.0
C706 C 0.89232 0.25301 0.35082 0.0
C707 C 0.87178 0.23513 0.38704 0.0
C708 C 0.85084 0.22445 0.39872 0.0
C709 C 0.91112 0.25632 0.36727 0.0
C710 C 0.91015 0.24903 0.39399 0.0
C711 C 0.89053 0.23841 0.40342 0.0
C712 C 0.92905 0.25253 0.41278 0.0
C713 C 0.93202 0.26713 0.35575 0.0
C714 C 0.93883 0.23405 0.42592 0.0
C715 C 0.95549 0.23734 0.44505 0.0
C716 C 0.96262 0.25922 0.45159 0.0
C717 C 0.95297 0.27768 0.43815 0.0
C718 C 0.93631 0.27437 0.41904 0.0
H719 H 0.93237 0.26605 0.33382 0.0
H720 H 0.93229 0.28523 0.36117 0.0
H721 H 0.94751 0.25909 0.36368 0.0
H722 H 0.93338 0.21705 0.42155 0.0
H723 H 0.9625 0.22274 0.455 0.0
H724 H 0.75542 0.83115 0.30084 0.0
H725 H 0.74913 0.86796 0.322 0.0
H726 H 0.74299 0.8348 0.39792 0.0
H727 H 0.74847 0.79837 0.37688 0.0
H728 H 0.71328 0.86839 0.3934 0.0
H729 H 0.79881 0.89815 0.36395 0.0
H730 H 0.78028 0.89106 0.33725 0.0
H731 H 0.78984 0.86939 0.3595 0.0
C732 C 0.75213 0.83182 0.32191 0.0
C733 C 0.75262 0.81203 0.33731 0.0
C734 C 0.74886 0.85281 0.33404 0.0
C735 C 0.74618 0.85418 0.36166 0.0
C736 C 0.7452 0.83423 0.37664 0.0
H737 H 0.77912 0.95183 0.47952 0.0
H738 H 0.77892 0.92271 0.44518 0.0
C739 C 0.74834 0.81341 0.36461 0.0
C740 C 0.74544 0.8761 0.3757 0.0
H741 H 0.77761 0.9218 0.39173 0.0
C742 C 0.72722 0.88023 0.39281 0.0
C743 C 0.76385 0.89132 0.37522 0.0
C744 C 0.78442 0.88728 0.35819 0.0
C745 C 0.72719 0.89862 0.41012 0.0
C746 C 0.74558 0.91388 0.40965 0.0
C747 C 0.76351 0.91016 0.39196 0.0
C748 C 0.74696 0.93303 0.4284 0.0
C749 C 0.708 0.90074 0.42972 0.0
C750 C 0.72955 0.949 0.42973 0.0
C751 C 0.72944 0.96526 0.44957 0.0
C752 C 0.74706 0.96629 0.46804 0.0
C753 C 0.76531 0.95136 0.46558 0.0
C754 C 0.7652 0.93475 0.44597 0.0
H755 H 0.69879 0.88457 0.43235 0.0
H756 H 0.71418 0.90624 0.44935 0.0
H757 H 0.69579 0.91346 0.42236 0.0
H758 H 0.71569 0.94851 0.41587 0.0
H759 H 0.71533 0.97684 0.45072 0.0
H760 H 0.16143 0.76402 0.3154 0.0
H761 H 0.13407 0.74689 0.34576 0.0
H762 H 0.17874 0.69039 0.3577 0.0
H763 H 0.20637 0.70768 0.32718 0.0
H764 H 0.11166 0.70378 0.34911 0.0
H765 H 0.17109 0.7192 0.43215 0.0
H766 H 0.17492 0.73209 0.40002 0.0
H767 H 0.18121 0.70275 0.40475 0.0
C768 C 0.16519 0.74769 0.32405 0.0
C769 C 0.18603 0.7372 0.31905 0.0
C770 C 0.14955 0.73791 0.34138 0.0
C771 C 0.15446 0.71751 0.35429 0.0
C772 C 0.17471 0.70626 0.34815 0.0
H773 H 0.05213 0.67076 0.47269 0.0
H774 H 0.08098 0.66769 0.43757 0.0
C775 C 0.19038 0.71603 0.33057 0.0
C776 C 0.13918 0.7095 0.37582 0.0
H777 H 0.13441 0.70794 0.44324 0.0
C778 C 0.11673 0.70414 0.36968 0.0
C779 C 0.14579 0.71024 0.40269 0.0
C780 C 0.1695 0.71649 0.41051 0.0
C781 C 0.10053 0.70043 0.3897 0.0
C782 C 0.10696 0.70212 0.41652 0.0
C783 C 0.1296 0.70646 0.42265 0.0
C784 C 0.08995 0.70304 0.43821 0.0
C785 C 0.07635 0.69614 0.38215 0.0
C786 C 0.0857 0.72377 0.45038 0.0
C787 C 0.06932 0.72558 0.47015 0.0
C788 C 0.05684 0.70663 0.47851 0.0
C789 C 0.06144 0.68566 0.46673 0.0
C790 C 0.07783 0.6839 0.44661 0.0
H791 H 0.07385 0.6966 0.36038 0.0
H792 H 0.07104 0.67935 0.3897 0.0
H793 H 0.0652 0.70894 0.3914 0.0
H794 H 0.09486 0.73873 0.44424 0.0
H795 H 0.06641 0.74198 0.47883 0.0
H796 H 0.28651 0.20134 0.29633 0.0
H797 H 0.29967 0.16552 0.31533 0.0
H798 H 0.28467 0.18997 0.39366 0.0
H799 H 0.27269 0.22593 0.37506 0.0
H800 H 0.32356 0.16675 0.39312 0.0
H801 H 0.25676 0.11771 0.34227 0.0
H802 H 0.2758 0.13284 0.32091 0.0
H803 H 0.25703 0.1481 0.34236 0.0
C804 C 0.28637 0.19919 0.31761 0.0
C805 C 0.27816 0.21639 0.33413 0.0
C806 C 0.29366 0.1786 0.32844 0.0
C807 C 0.29269 0.17483 0.35592 0.0
C808 C 0.28544 0.19236 0.37241 0.0
H809 H 0.26854 0.06186 0.45323 0.0
H810 H 0.2693 0.09429 0.42363 0.0
C811 C 0.27835 0.21287 0.36169 0.0
C812 C 0.2982 0.15252 0.36789 0.0
H813 H 0.27986 0.09801 0.37193 0.0
C814 C 0.31422 0.15162 0.38828 0.0
C815 C 0.28588 0.13282 0.36168 0.0
C816 C 0.26777 0.13282 0.34078 0.0
C817 C 0.31751 0.13193 0.40341 0.0
C818 C 0.30484 0.11238 0.39755 0.0
C819 C 0.28962 0.11298 0.37634 0.0
C820 C 0.30501 0.09208 0.41499 0.0
C821 C 0.33354 0.13268 0.42649 0.0
C822 C 0.32485 0.07978 0.41995 0.0
C823 C 0.32453 0.06118 0.43726 0.0
C824 C 0.30429 0.05441 0.44961 0.0
C825 C 0.28444 0.06652 0.4441 0.0
C826 C 0.28482 0.08511 0.42708 0.0
H827 H 0.33839 0.15021 0.43158 0.0
H828 H 0.32591 0.1246 0.44427 0.0
H829 H 0.34914 0.1233 0.42137 0.0
H830 H 0.34056 0.08454 0.41045 0.0
H831 H 0.34007 0.05212 0.44092 0.0
H832 H 0.68976 0.77857 0.81283 0.0
H833 H 0.65775 0.79405 0.83767 0.0
H834 H 0.69036 0.77617 0.91093 0.0
H835 H 0.72268 0.76175 0.88639 0.0
H836 H 0.62983 0.77128 0.868 0.0
H837 H 0.66757 0.83717 0.9301 0.0
H838 H 0.68244 0.82504 0.90236 0.0
H839 H 0.68256 0.81116 0.9342 0.0
C840 C 0.69041 0.77856 0.83424 0.0
C841 C 0.70879 0.76875 0.84755 0.0
C842 C 0.672 0.78729 0.84845 0.0
C843 C 0.67163 0.78657 0.87628 0.0
C844 C 0.69033 0.77749 0.88956 0.0
H845 H 0.56416 0.76106 0.9817 0.0
H846 H 0.59524 0.76244 0.95034 0.0
C847 C 0.70872 0.76889 0.87542 0.0
C848 C 0.65088 0.79293 0.89143 0.0
H849 H 0.63271 0.8206 0.94684 0.0
C850 C 0.63043 0.78243 0.88491 0.0
C851 C 0.65134 0.80779 0.9133 0.0
C852 C 0.67213 0.82111 0.9202 0.0
C853 C 0.61097 0.78519 0.90054 0.0
C854 C 0.612 0.79842 0.92374 0.0
C855 C 0.63197 0.81015 0.92933 0.0
C856 C 0.59326 0.79841 0.94353 0.0
C857 C 0.58956 0.77349 0.8923 0.0
C858 C 0.58219 0.81837 0.95109 0.0
C859 C 0.56424 0.8177 0.96943 0.0
C860 C 0.55719 0.79705 0.98058 0.0
C861 C 0.56882 0.77728 0.97339 0.0
C862 C 0.58662 0.77798 0.95526 0.0
H863 H 0.58923 0.77071 0.87058 0.0
H864 H 0.58862 0.75675 0.90215 0.0
H865 H 0.57441 0.78337 0.89803 0.0
H866 H 0.58719 0.83439 0.94251 0.0
H867 H 0.55573 0.83324 0.97458 0.0
H868 H 0.24537 0.70184 0.80366 0.0
H869 H 0.23479 0.66853 0.83 0.0
H870 H 0.29609 0.63526 0.80579 0.0
H871 H 0.30674 0.66849 0.77956 0.0
H872 H 0.25332 0.60646 0.81193 0.0
H873 H 0.27721 0.65968 0.89779 0.0
H874 H 0.25724 0.67137 0.87476 0.0
H875 H 0.28577 0.66643 0.86435 0.0
C876 C 0.25608 0.68705 0.80309 0.0
C877 C 0.27686 0.68768 0.78965 0.0
C878 C 0.25014 0.66814 0.8183 0.0
C879 C 0.26482 0.64961 0.82006 0.0
C880 C 0.28455 0.64941 0.80468 0.0
H881 H 0.28478 0.55292 0.94728 0.0
H882 H 0.28938 0.58038 0.91119 0.0
C883 C 0.29058 0.66834 0.78966 0.0
C884 C 0.26133 0.63193 0.8405 0.0
H885 H 0.26528 0.62266 0.90708 0.0
C886 C 0.25577 0.60997 0.83275 0.0
C887 C 0.265 0.63654 0.86757 0.0
C888 C 0.27179 0.65972 0.87678 0.0
C889 C 0.2535 0.5925 0.85152 0.0
C890 C 0.25689 0.5972 0.87863 0.0
C891 C 0.26266 0.61913 0.88628 0.0
C892 C 0.25433 0.57971 0.89951 0.0
C893 C 0.24789 0.56905 0.84224 0.0
C894 C 0.2331 0.57036 0.90496 0.0
C895 C 0.23039 0.55483 0.92563 0.0
C896 C 0.24888 0.54829 0.94128 0.0
C897 C 0.27021 0.55753 0.93559 0.0
C898 C 0.27287 0.57322 0.91499 0.0
H899 H 0.2506 0.56717 0.8206 0.0
H900 H 0.25828 0.5563 0.8528 0.0
H901 H 0.2299 0.56543 0.84666 0.0
H902 H 0.21851 0.57541 0.89354 0.0
H903 H 0.21371 0.54807 0.92943 0.0
H904 H 0.28052 0.24216 0.88126 0.0
H905 H 0.31471 0.23074 0.90444 0.0
H906 H 0.34231 0.20479 0.83165 0.0
H907 H 0.30845 0.21718 0.80797 0.0
H908 H 0.33722 0.19141 0.91276 0.0
H909 H 0.38986 0.2501 0.85257 0.0
H910 H 0.35948 0.25043 0.85142 0.0
H911 H 0.37508 0.22912 0.83399 0.0
C912 C 0.29386 0.23405 0.87011 0.0
C913 C 0.29189 0.23105 0.8426 0.0
C914 C 0.31335 0.22734 0.88347 0.0
C915 C 0.33136 0.21736 0.86973 0.0
C916 C 0.32889 0.21295 0.84259 0.0
H917 H 0.45222 0.17452 0.96083 0.0
H918 H 0.41872 0.17259 0.93246 0.0
C919 C 0.30939 0.2198 0.82912 0.0
C920 C 0.35302 0.21298 0.88373 0.0
H921 H 0.4082 0.22947 0.88584 0.0
C922 C 0.35282 0.19953 0.90673 0.0
C923 C 0.37334 0.22377 0.87603 0.0
C924 C 0.37454 0.23932 0.85231 0.0
C925 C 0.37215 0.1971 0.92259 0.0
C926 C 0.39237 0.2081 0.91501 0.0
C927 C 0.39274 0.22094 0.89157 0.0
C928 C 0.41265 0.20859 0.93232 0.0
C929 C 0.37044 0.18371 0.94799 0.0
C930 C 0.42064 0.22941 0.94135 0.0
C931 C 0.43977 0.23057 0.95724 0.0
C932 C 0.45152 0.21091 0.96462 0.0
C933 C 0.44352 0.18997 0.95565 0.0
C934 C 0.4243 0.18883 0.93954 0.0
H935 H 0.35264 0.18015 0.95358 0.0
H936 H 0.37926 0.16736 0.94548 0.0
H937 H 0.37862 0.19284 0.96448 0.0
H938 H 0.41197 0.24488 0.93612 0.0
H939 H 0.44532 0.24701 0.96376 0.0
H940 H 0.71629 0.35315 0.79307 0.0
H941 H 0.72337 0.3829 0.82531 0.0
H942 H 0.77722 0.34337 0.85905 0.0
H943 H 0.77011 0.31343 0.82664 0.0
H944 H 0.74256 0.35751 0.8955 0.0
H945 H 0.7752 0.42889 0.83496 0.0
H946 H 0.75023 0.41574 0.82226 0.0
H947 H 0.7761 0.40002 0.8238 0.0
C948 C 0.73007 0.35114 0.8069 0.0
C949 C 0.74278 0.33115 0.80737 0.0
C950 C 0.7341 0.36812 0.82526 0.0
C951 C 0.75088 0.36537 0.84446 0.0
C952 C 0.76427 0.34582 0.84427 0.0
H953 H 0.79424 0.46067 0.9613 0.0
H954 H 0.7907 0.43376 0.92545 0.0
C955 C 0.76035 0.32886 0.82568 0.0
C956 C 0.75282 0.38192 0.86614 0.0
H957 H 0.76365 0.43729 0.87895 0.0
C958 C 0.7473 0.37493 0.89195 0.0
C959 C 0.75894 0.40461 0.86137 0.0
C960 C 0.76565 0.41281 0.83415 0.0
C961 C 0.74751 0.39014 0.91313 0.0
C962 C 0.75319 0.41293 0.90828 0.0
C963 C 0.759 0.41985 0.88252 0.0
C964 C 0.75468 0.42953 0.92996 0.0
C965 C 0.74201 0.38166 0.94062 0.0
C966 C 0.73548 0.43627 0.94429 0.0
C967 C 0.7374 0.45182 0.96496 0.0
C968 C 0.75857 0.46077 0.97158 0.0
C969 C 0.77765 0.45407 0.9569 0.0
C970 C 0.7757 0.4387 0.9363 0.0
H971 H 0.74207 0.36295 0.94176 0.0
H972 H 0.75429 0.3883 0.95514 0.0
H973 H 0.725 0.3877 0.94643 0.0
H974 H 0.71904 0.42955 0.93945 0.0
H975 H 0.72239 0.45669 0.97582 0.0
H976 H 0.68487 0.26852 0.19813 0.0
H977 H 0.65396 0.25469 0.17071 0.0
H978 H 0.68826 0.19108 0.16171 0.0
H979 H 0.71931 0.20485 0.18952 0.0
H980 H 0.67317 0.21539 0.11232 0.0
H981 H 0.6054 0.20401 0.18738 0.0
H982 H 0.62111 0.22985 0.18985 0.0
H983 H 0.63503 0.2034 0.19564 0.0
C984 C 0.6857 0.25149 0.19056 0.0
C985 C 0.70448 0.23776 0.19593 0.0
C986 C 0.668 0.24358 0.17502 0.0
C987 C 0.66874 0.22181 0.16435 0.0
C988 C 0.68731 0.20788 0.16993 0.0
H989 H 0.55336 0.17572 0.06769 0.0
H990 H 0.5857 0.17393 0.09803 0.0
C991 C 0.70495 0.21571 0.18586 0.0
C992 C 0.65075 0.21452 0.14593 0.0
H993 H 0.59383 0.20624 0.14218 0.0
C994 C 0.65589 0.21295 0.11888 0.0
C995 C 0.62826 0.21122 0.15453 0.0
C996 C 0.62203 0.212 0.18346 0.0
C997 C 0.63888 0.20947 0.10005 0.0
C998 C 0.61618 0.20755 0.10852 0.0
C999 C 0.61122 0.20778 0.1357 0.0
C1000 C 0.59723 0.20778 0.08938 0.0
C1001 C 0.6452 0.20857 0.07115 0.0
C1002 C 0.59298 0.22739 0.07462 0.0
C1003 C 0.57455 0.22853 0.05759 0.0
C1004 C 0.55991 0.21003 0.05479 0.0
C1005 C 0.56437 0.1902 0.06928 0.0
C1006 C 0.58278 0.18917 0.08665 0.0
H1007 H 0.66331 0.20437 0.06834 0.0
H1008 H 0.63481 0.19594 0.0606 0.0
H1009 H 0.64207 0.22532 0.06196 0.0
H1010 H 0.60373 0.24204 0.07667 0.0
H1011 H 0.57169 0.24406 0.04674 0.0
H1012 H 0.76535 0.68022 0.2555 0.0
H1013 H 0.77427 0.64678 0.2289 0.0
H1014 H 0.75792 0.6838 0.15781 0.0
H1015 H 0.74939 0.71711 0.18419 0.0
H1016 H 0.74218 0.62567 0.19861 0.0
H1017 H 0.81452 0.65057 0.13544 0.0
H1018 H 0.80678 0.66583 0.16493 0.0
H1019 H 0.79213 0.67089 0.13435 0.0
C1020 C 0.76456 0.68138 0.23413 0.0
C1021 C 0.7568 0.70118 0.22182 0.0
C1022 C 0.76943 0.66227 0.21898 0.0
C1023 C 0.76686 0.66282 0.19135 0.0
C1024 C 0.76043 0.68305 0.17901 0.0
H1025 H 0.72896 0.55767 0.08219 0.0
H1026 H 0.72958 0.58827 0.11465 0.0
C1027 C 0.75552 0.70206 0.19409 0.0
C1028 C 0.7683 0.64184 0.17559 0.0
H1029 H 0.79219 0.61952 0.12007 0.0
C1030 C 0.75335 0.62416 0.18166 0.0
C1031 C 0.78291 0.63985 0.15355 0.0
C1032 C 0.80015 0.65772 0.14682 0.0
C1033 C 0.75212 0.60486 0.16575 0.0
C1034 C 0.7659 0.60342 0.14292 0.0
C1035 C 0.78138 0.62076 0.13738 0.0
C1036 C 0.76483 0.584 0.12456 0.0
C1037 C 0.73612 0.58619 0.17362 0.0
C1038 C 0.78442 0.57159 0.11919 0.0
C1039 C 0.78416 0.55436 0.10054 0.0
C1040 C 0.76428 0.54912 0.08677 0.0
C1041 C 0.74448 0.56119 0.09258 0.0
C1042 C 0.7448 0.57861 0.11121 0.0
H1043 H 0.73169 0.58695 0.19498 0.0
H1044 H 0.7203 0.58794 0.16216 0.0
H1045 H 0.74351 0.56939 0.16936 0.0
H1046 H 0.80005 0.57543 0.12922 0.0
H1047 H 0.7997 0.54534 0.09668 0.0
H1048 H 0.28637 0.79162 0.2058 0.0
H1049 H 0.3197 0.80659 0.18233 0.0
H1050 H 0.34426 0.73892 0.17109 0.0
H1051 H 0.31138 0.72395 0.19457 0.0
H1052 H 0.37075 0.79762 0.18938 0.0
H1053 H 0.33422 0.76799 0.09487 0.0
H1054 H 0.31737 0.77235 0.12428 0.0
H1055 H 0.33428 0.74737 0.12108 0.0
C1056 C 0.29916 0.78 0.19885 0.0
C1057 C 0.29607 0.75657 0.20174 0.0
C1058 C 0.31813 0.78857 0.18536 0.0
C1059 C 0.33426 0.77383 0.17461 0.0
C1060 C 0.33187 0.75058 0.1789 0.0
H1061 H 0.44983 0.75796 0.08184 0.0
H1062 H 0.41638 0.75769 0.10965 0.0
C1063 C 0.31303 0.74204 0.1923 0.0
C1064 C 0.35284 0.78221 0.1573 0.0
H1065 H 0.37325 0.77752 0.09426 0.0
C1066 C 0.37118 0.79367 0.16846 0.0
C1067 C 0.35328 0.77715 0.12998 0.0
C1068 C 0.33367 0.76571 0.1167 0.0
C1069 C 0.39054 0.79891 0.15329 0.0
C1070 C 0.39142 0.79267 0.12632 0.0
C1071 C 0.37258 0.78229 0.11494 0.0
C1072 C 0.41257 0.79391 0.1104 0.0
C1073 C 0.41044 0.80988 0.16644 0.0
C1074 C 0.42176 0.81449 0.10152 0.0
C1075 C 0.44114 0.81477 0.08529 0.0
C1076 C 0.45158 0.79445 0.07773 0.0
C1077 C 0.44235 0.774 0.08707 0.0
C1078 C 0.42314 0.77376 0.10307 0.0
H1079 H 0.40773 0.81216 0.18802 0.0
H1080 H 0.42583 0.79952 0.16336 0.0
H1081 H 0.41354 0.82665 0.15728 0.0
H1082 H 0.41372 0.83026 0.10673 0.0
H1083 H 0.44776 0.83079 0.07845 0.0
H1084 H 0.29485 0.35743 0.23659 0.0
H1085 H 0.28278 0.38632 0.20495 0.0
H1086 H 0.23432 0.34 0.1725 0.0
H1087 H 0.24645 0.31094 0.20437 0.0
H1088 H 0.26534 0.35842 0.13527 0.0
H1089 H 0.22597 0.42564 0.19571 0.0
H1090 H 0.25267 0.41601 0.20808 0.0
H1091 H 0.22909 0.39699 0.20749 0.0
C1092 C 0.28109 0.35371 0.22328 0.0
C1093 C 0.2714 0.33212 0.22298 0.0
C1094 C 0.2742 0.37021 0.20524 0.0
C1095 C 0.25754 0.36537 0.18651 0.0
C1096 C 0.24709 0.3441 0.18695 0.0
H1097 H 0.20968 0.46102 0.06794 0.0
H1098 H 0.21244 0.43336 0.10374 0.0
C1099 C 0.25386 0.32761 0.20522 0.0
C1100 C 0.25315 0.3816 0.1647 0.0
H1101 H 0.23752 0.43598 0.15185 0.0
C1102 C 0.259 0.3753 0.13883 0.0
C1103 C 0.24489 0.40358 0.1694 0.0
C1104 C 0.23759 0.41096 0.19664 0.0
C1105 C 0.25743 0.39062 0.11764 0.0
C1106 C 0.25003 0.41288 0.12252 0.0
C1107 C 0.24348 0.41898 0.14824 0.0
C1108 C 0.24868 0.42998 0.10107 0.0
C1109 C 0.26368 0.38288 0.09019 0.0
C1110 C 0.26822 0.4375 0.08791 0.0
C1111 C 0.26674 0.45341 0.06741 0.0
C1112 C 0.24567 0.46205 0.0597 0.0
C1113 C 0.22619 0.45466 0.07323 0.0
C1114 C 0.2277 0.43887 0.09376 0.0
H1115 H 0.26403 0.3642 0.08879 0.0
H1116 H 0.25162 0.38958 0.07535 0.0
H1117 H 0.28072 0.38931 0.08504 0.0
H1118 H 0.28462 0.43107 0.09354 0.0
H1119 H 0.28207 0.45879 0.05748 0.0
H1120 H 0.35173 0.31797 0.23019 0.0
H1121 H 0.38359 0.3081 0.20171 0.0
H1122 H 0.36366 0.23822 0.20479 0.0
H1123 H 0.33112 0.24816 0.23244 0.0
H1124 H 0.42024 0.27983 0.20204 0.0
H1125 H 0.35808 0.25301 0.12656 0.0
H1126 H 0.34985 0.26744 0.15637 0.0
H1127 H 0.35623 0.2378 0.15729 0.0
C1128 C 0.35434 0.30043 0.22516 0.0
C1129 C 0.33863 0.28391 0.23309 0.0
C1130 C 0.37261 0.2948 0.20894 0.0
C1131 C 0.37561 0.27253 0.20044 0.0
C1132 C 0.3613 0.25563 0.21053 0.0
H1133 H 0.46075 0.21652 0.07682 0.0
H1134 H 0.43624 0.22213 0.11514 0.0
C1135 C 0.34288 0.26128 0.22665 0.0
C1136 C 0.39228 0.2676 0.17919 0.0
H1137 H 0.39647 0.24936 0.11533 0.0
C1138 C 0.41507 0.27308 0.18312 0.0
C1139 C 0.38547 0.25907 0.15434 0.0
C1140 C 0.36107 0.25418 0.14819 0.0
C1141 C 0.43123 0.27005 0.16297 0.0
C1142 C 0.42437 0.26152 0.13823 0.0
C1143 C 0.40167 0.25585 0.13438 0.0
C1144 C 0.44036 0.25833 0.11589 0.0
C1145 C 0.45555 0.2758 0.16833 0.0
C1146 C 0.45072 0.27689 0.10346 0.0
C1147 C 0.46471 0.27378 0.08133 0.0
C1148 C 0.46855 0.25203 0.07129 0.0
C1149 C 0.45822 0.23351 0.08399 0.0
C1150 C 0.44421 0.23665 0.10595 0.0
H1151 H 0.45888 0.27752 0.18983 0.0
H1152 H 0.46694 0.2627 0.16011 0.0
H1153 H 0.45972 0.29207 0.15853 0.0
H1154 H 0.44765 0.29381 0.11055 0.0
H1155 H 0.47236 0.28839 0.07202 0.0
H1156 H 0.72891 0.31561 0.20067 0.0
H1157 H 0.74436 0.3492 0.17896 0.0
H1158 H 0.81149 0.32197 0.18611 0.0
H1159 H 0.79602 0.28806 0.20779 0.0
H1160 H 0.77892 0.38088 0.19659 0.0
H1161 H 0.80293 0.33462 0.10501 0.0
H1162 H 0.78321 0.3231 0.12883 0.0
H1163 H 0.81275 0.32374 0.13622 0.0
C1164 C 0.74698 0.31681 0.19778 0.0
C1165 C 0.76122 0.29908 0.20577 0.0
C1166 C 0.7558 0.33606 0.18543 0.0
C1167 C 0.77904 0.33798 0.18056 0.0
C1168 C 0.79347 0.32072 0.18937 0.0
H1169 H 0.83315 0.44536 0.07438 0.0
H1170 H 0.83333 0.41333 0.10573 0.0
C1171 C 0.78464 0.30146 0.20196 0.0
C1172 C 0.78771 0.35783 0.16548 0.0
H1173 H 0.80655 0.37401 0.10417 0.0
C1174 C 0.7853 0.37935 0.17653 0.0
C1175 C 0.79622 0.35585 0.13937 0.0
C1176 C 0.7989 0.33315 0.12644 0.0
C1177 C 0.79032 0.39894 0.16186 0.0
C1178 C 0.79745 0.39704 0.13517 0.0
C1179 C 0.80108 0.37549 0.12459 0.0
C1180 C 0.79829 0.417 0.11712 0.0
C1181 C 0.78747 0.42155 0.17496 0.0
C1182 C 0.77857 0.42952 0.1129 0.0
C1183 C 0.77841 0.44759 0.09514 0.0
C1184 C 0.79796 0.45367 0.08086 0.0
C1185 C 0.81785 0.44123 0.08515 0.0
C1186 C 0.81796 0.42291 0.103 0.0
H1187 H 0.78982 0.42022 0.1967 0.0
H1188 H 0.7996 0.43412 0.1669 0.0
H1189 H 0.77011 0.42783 0.17139 0.0
H1190 H 0.76304 0.42503 0.12301 0.0
H1191 H 0.76273 0.45667 0.09243 0.0
H1192 H 0.69325 0.78118 0.23524 0.0
H1193 H 0.65769 0.78771 0.21168 0.0
H1194 H 0.64235 0.71674 0.21724 0.0
H1195 H 0.67735 0.71036 0.24127 0.0
H1196 H 0.65121 0.76917 0.16391 0.0
H1197 H 0.5808 0.74314 0.22932 0.0
H1198 H 0.6087 0.74888 0.24176 0.0
H1199 H 0.60226 0.7219 0.2275 0.0
C1200 C 0.68177 0.7672 0.23241 0.0
C1201 C 0.68802 0.74527 0.23997 0.0
C1202 C 0.66157 0.77089 0.21878 0.0
C1203 C 0.64726 0.75273 0.21275 0.0
C1204 C 0.65278 0.73111 0.22206 0.0
H1205 H 0.54808 0.72368 0.09201 0.0
H1206 H 0.57543 0.72189 0.12835 0.0
C1207 C 0.67289 0.72744 0.23566 0.0
C1208 C 0.62862 0.75558 0.19346 0.0
H1209 H 0.57305 0.74355 0.18249 0.0
C1210 C 0.63404 0.76391 0.16815 0.0
C1211 C 0.60627 0.74844 0.19884 0.0
C1212 C 0.59911 0.7403 0.22593 0.0
C1213 C 0.61795 0.76472 0.14792 0.0
C1214 C 0.59576 0.75719 0.15316 0.0
C1215 C 0.59016 0.74913 0.17851 0.0
C1216 C 0.57813 0.75806 0.13251 0.0
C1217 C 0.62494 0.77308 0.12084 0.0
C1218 C 0.57039 0.77894 0.12323 0.0
C1219 C 0.55488 0.78003 0.1026 0.0
C1220 C 0.54672 0.76022 0.09078 0.0
C1221 C 0.55409 0.73924 0.10058 0.0
C1222 C 0.56964 0.73818 0.12137 0.0
H1223 H 0.64357 0.77389 0.11859 0.0
H1224 H 0.61806 0.762 0.10519 0.0
H1225 H 0.61807 0.79028 0.11764 0.0
H1226 H 0.57658 0.79445 0.13176 0.0
H1227 H 0.54951 0.7965 0.09573 0.0
H1228 H 0.26608 0.68289 0.18971 0.0
H1229 H 0.25222 0.65191 0.16278 0.0
H1230 H 0.18583 0.6816 0.1625 0.0
H1231 H 0.19983 0.71315 0.18923 0.0
H1232 H 0.21729 0.62075 0.17278 0.0
H1233 H 0.2003 0.67294 0.08305 0.0
H1234 H 0.21724 0.68314 0.11003 0.0
H1235 H 0.18716 0.68152 0.11352 0.0
C1236 C 0.24853 0.68292 0.18387 0.0
C1237 C 0.23413 0.70066 0.19136 0.0
C1238 C 0.24059 0.66511 0.16858 0.0
C1239 C 0.21806 0.66455 0.16027 0.0
C1240 C 0.20337 0.68185 0.16832 0.0
H1241 H 0.17175 0.56128 0.04556 0.0
H1242 H 0.16934 0.59196 0.07815 0.0
C1243 C 0.21133 0.69975 0.1838 0.0
C1244 C 0.21052 0.64584 0.14291 0.0
H1245 H 0.19655 0.63371 0.07895 0.0
C1246 C 0.21238 0.62362 0.15239 0.0
C1247 C 0.20401 0.64954 0.1163 0.0
C1248 C 0.20214 0.67303 0.10491 0.0
C1249 C 0.2089 0.60506 0.13575 0.0
C1250 C 0.20371 0.60876 0.10879 0.0
C1251 C 0.20053 0.63092 0.09963 0.0
C1252 C 0.20448 0.59007 0.0893 0.0
C1253 C 0.21149 0.5816 0.147 0.0
C1254 C 0.22501 0.57909 0.08455 0.0
C1255 C 0.22647 0.56183 0.066 0.0
C1256 C 0.20739 0.55501 0.05162 0.0
C1257 C 0.18673 0.56603 0.05635 0.0
C1258 C 0.18533 0.58357 0.07492 0.0
H1259 H 0.20871 0.58133 0.16875 0.0
H1260 H 0.19951 0.56971 0.13764 0.0
H1261 H 0.22889 0.57553 0.14307 0.0
H1262 H 0.24008 0.58405 0.09507 0.0
H1263 H 0.24269 0.55381 0.06296 0.0
H1264 H 0.31879 0.77418 0.82288 0.0
H1265 H 0.34935 0.7805 0.85469 0.0
H1266 H 0.38578 0.72394 0.82247 0.0
H1267 H 0.35541 0.71764 0.79076 0.0
H1268 H 0.36181 0.74608 0.89214 0.0
H1269 H 0.43465 0.77337 0.83037 0.0
H1270 H 0.40581 0.77558 0.81925 0.0
H1271 H 0.42006 0.74886 0.8186 0.0
C1272 C 0.33368 0.76361 0.82208 0.0
C1273 C 0.33485 0.7455 0.80437 0.0
C1274 C 0.35101 0.7671 0.84034 0.0
C1275 C 0.36986 0.75274 0.84083 0.0
C1276 C 0.37156 0.73541 0.8222 0.0
H1277 H 0.45936 0.72228 0.97325 0.0
H1278 H 0.43281 0.71969 0.93619 0.0
C1279 C 0.35421 0.73181 0.80414 0.0
C1280 C 0.38663 0.75431 0.86239 0.0
H1281 H 0.44256 0.76265 0.8748 0.0
C1282 C 0.37945 0.74983 0.8884 0.0
C1283 C 0.4096 0.75915 0.8574 0.0
C1284 C 0.41805 0.76471 0.82993 0.0
C1285 C 0.39471 0.7498 0.90955 0.0
C1286 C 0.41777 0.75418 0.90449 0.0
C1287 C 0.42491 0.75899 0.87854 0.0
C1288 C 0.43448 0.75518 0.92616 0.0
C1289 C 0.38604 0.74541 0.93722 0.0
C1290 C 0.44451 0.77583 0.93236 0.0
C1291 C 0.45953 0.77736 0.95341 0.0
C1292 C 0.46505 0.7582 0.96864 0.0
C1293 C 0.45543 0.73734 0.96197 0.0
C1294 C 0.44021 0.73586 0.9409 0.0
H1295 H 0.36735 0.74642 0.93837 0.0
H1296 H 0.39124 0.72826 0.94363 0.0
H1297 H 0.39332 0.75769 0.9513 0.0
H1298 H 0.44036 0.79091 0.92118 0.0
H1299 H 0.46672 0.79369 0.95784 0.0
H1300 H 0.20419 0.28771 0.82937 0.0
H1301 H 0.19168 0.32348 0.84888 0.0
H1302 H 0.26076 0.34588 0.85245 0.0
H1303 H 0.27325 0.31051 0.83268 0.0
H1304 H 0.20417 0.33942 0.89873 0.0
H1305 H 0.22884 0.40072 0.82102 0.0
H1306 H 0.22634 0.37089 0.8147 0.0
H1307 H 0.25145 0.382 0.82965 0.0
C1308 C 0.21663 0.3005 0.83375 0.0
C1309 C 0.23971 0.29627 0.8295 0.0
C1310 C 0.20948 0.32086 0.84505 0.0
C1311 C 0.22524 0.33749 0.8519 0.0
C1312 C 0.24822 0.33352 0.84693 0.0
H1313 H 0.24661 0.4535 0.94284 0.0
H1314 H 0.24587 0.4212 0.91351 0.0
C1315 C 0.25537 0.31319 0.83582 0.0
C1316 C 0.21814 0.35828 0.86606 0.0
H1317 H 0.22379 0.41559 0.86488 0.0
C1318 C 0.20801 0.35613 0.89114 0.0
C1319 C 0.2231 0.38008 0.85611 0.0
C1320 C 0.23282 0.38361 0.82878 0.0
C1321 C 0.20408 0.37505 0.90721 0.0
C1322 C 0.21013 0.39674 0.89777 0.0
C1323 C 0.21921 0.39897 0.87216 0.0
C1324 C 0.20968 0.41693 0.91513 0.0
C1325 C 0.19473 0.37157 0.93474 0.0
C1326 C 0.18947 0.42557 0.92569 0.0
C1327 C 0.1898 0.44425 0.9427 0.0
C1328 C 0.21036 0.45456 0.94939 0.0
C1329 C 0.23043 0.44601 0.93832 0.0
C1330 C 0.23007 0.42751 0.92141 0.0
H1331 H 0.19429 0.35347 0.94051 0.0
H1332 H 0.20498 0.38087 0.94941 0.0
H1333 H 0.17727 0.37824 0.93567 0.0
H1334 H 0.17348 0.41788 0.92082 0.0
H1335 H 0.17404 0.45044 0.95078 0.0
H1336 H 0.66566 0.30849 0.78862 0.0
H1337 H 0.63287 0.29678 0.81461 0.0
H1338 H 0.66016 0.22956 0.8208 0.0
H1339 H 0.69364 0.24154 0.7957 0.0
H1340 H 0.59955 0.26571 0.81461 0.0
H1341 H 0.65877 0.24868 0.89732 0.0
H1342 H 0.66771 0.26192 0.86686 0.0
H1343 H 0.66361 0.23189 0.86843 0.0
C1344 C 0.66445 0.29107 0.79503 0.0
C1345 C 0.68243 0.27605 0.79062 0.0
C1346 C 0.64566 0.28438 0.80988 0.0
C1347 C 0.6444 0.2625 0.82044 0.0
C1348 C 0.66112 0.24673 0.81352 0.0
H1349 H 0.55439 0.21132 0.94422 0.0
H1350 H 0.58037 0.21428 0.90669 0.0
C1351 C 0.68008 0.25349 0.79882 0.0
C1352 C 0.6269 0.25721 0.84075 0.0
H1353 H 0.6202 0.24346 0.90611 0.0
C1354 C 0.60406 0.26068 0.83456 0.0
C1355 C 0.63279 0.25093 0.86693 0.0
C1356 C 0.65703 0.24833 0.87545 0.0
C1357 C 0.58704 0.25813 0.85383 0.0
C1358 C 0.59302 0.25204 0.87994 0.0
C1359 C 0.61572 0.24808 0.88601 0.0
C1360 C 0.5761 0.25023 0.90156 0.0
C1361 C 0.56279 0.26201 0.84622 0.0
C1362 C 0.56518 0.26953 0.91122 0.0
C1363 C 0.55042 0.26796 0.93289 0.0
C1364 C 0.54629 0.24703 0.94521 0.0
C1365 C 0.5571 0.22771 0.9352 0.0
C1366 C 0.57196 0.22934 0.91372 0.0
H1367 H 0.56051 0.26209 0.82441 0.0
H1368 H 0.55176 0.24882 0.85507 0.0
H1369 H 0.55717 0.27858 0.85395 0.0
H1370 H 0.56843 0.28588 0.90235 0.0
H1371 H 0.54239 0.28316 0.94009 0.0
H1372 H 0.7951 0.70977 0.83409 0.0
H1373 H 0.8091 0.67602 0.8572 0.0
H1374 H 0.74065 0.65516 0.87276 0.0
H1375 H 0.72663 0.68856 0.84955 0.0
H1376 H 0.80029 0.66437 0.91098 0.0
H1377 H 0.77024 0.5977 0.84368 0.0
H1378 H 0.7727 0.62685 0.83354 0.0
H1379 H 0.74857 0.6175 0.85232 0.0
C1380 C 0.78306 0.69774 0.84199 0.0
C1381 C 0.75974 0.70185 0.83997 0.0
C1382 C 0.79108 0.67854 0.85534 0.0
C1383 C 0.77594 0.66292 0.86652 0.0
C1384 C 0.75268 0.66676 0.86397 0.0
H1385 H 0.75987 0.55454 0.97122 0.0
H1386 H 0.75952 0.58488 0.93891 0.0
C1387 C 0.74467 0.68596 0.85085 0.0
C1388 C 0.78415 0.64326 0.88224 0.0
H1389 H 0.77874 0.58613 0.88816 0.0
C1390 C 0.79601 0.6472 0.90577 0.0
C1391 C 0.77868 0.62085 0.87536 0.0
C1392 C 0.76704 0.6154 0.84971 0.0
C1393 C 0.80113 0.62949 0.92346 0.0
C1394 C 0.79451 0.60722 0.91724 0.0
C1395 C 0.78378 0.60318 0.893 0.0
C1396 C 0.79576 0.58843 0.93689 0.0
C1397 C 0.81232 0.6349 0.94939 0.0
C1398 C 0.81638 0.58008 0.94661 0.0
C1399 C 0.8167 0.56246 0.96541 0.0
C1400 C 0.79639 0.55296 0.97476 0.0
C1401 C 0.77591 0.56136 0.96468 0.0
C1402 C 0.77562 0.57877 0.94604 0.0
H1403 H 0.81347 0.65335 0.95281 0.0
H1404 H 0.80288 0.62707 0.9661 0.0
H1405 H 0.82965 0.62785 0.94944 0.0
H1406 H 0.83218 0.58708 0.93957 0.0
H1407 H 0.83275 0.55636 0.97265 0.0
loop_
_geom_bond_atom_site_label_1
_geom_bond_atom_site_label_2
_geom_bond_distance
_geom_bond_site_symmetry_2
_ccdc_geom_bond_type
H0 C6 0.930 . S
H1 C9 0.931 . S
H2 C11 0.931 . S
H3 C13 0.930 . S
H4 C15 0.930 . S
H5 C17 0.931 . S
C6 H0 0.930 . S
C6 C7 1.380 . S
C6 C8 1.394 . S
C7 C6 1.380 . S
C7 C11 1.382 . S
C8 C6 1.394 . S
C8 C9 1.400 . S
C9 H1 0.931 . S
C9 C8 1.400 . S
C9 C10 1.375 . S
C10 C9 1.375 . S
C10 C11 1.415 . S
C10 C12 1.501 . S
C11 H2 0.931 . S
C11 C7 1.382 . S
C11 C10 1.415 . S
C12 C10 1.501 . S
C12 C13 1.384 . S
C12 C17 1.408 . S
C13 H3 0.930 . S
C13 C12 1.384 . S
C13 C14 1.389 . S
C14 C13 1.389 . S
C14 C15 1.405 . S
C15 H4 0.930 . S
C15 C14 1.405 . S
C15 C16 1.364 . S
C16 C15 1.364 . S
C16 C17 1.400 . S
C17 H5 0.931 . S
C17 C12 1.408 . S
C17 C16 1.400 . S
H18 C24 0.930 . S
H19 C27 0.931 . S
H20 C29 0.931 . S
H21 C31 0.930 . S
H22 C33 0.930 . S
H23 C35 0.931 . S
C24 H18 0.930 . S
C24 C25 1.380 . S
C24 C26 1.394 . S
C25 C24 1.380 . S
C25 C29 1.382 . S
C26 C24 1.394 . S
C26 C27 1.400 . S
C27 H19 0.931 . S
C27 C26 1.400 . S
C27 C28 1.375 . S
C28 C27 1.375 . S
C28 C29 1.415 . S
C28 C30 1.501 . S
C29 H20 0.931 . S
C29 C25 1.382 . S
C29 C28 1.415 . S
C30 C28 1.501 . S
C30 C31 1.384 . S
C30 C35 1.408 . S
C31 H21 0.930 . S
C31 C30 1.384 . S
C31 C32 1.389 . S
C32 C31 1.389 . S
C32 C33 1.405 . S
C33 H22 0.930 . S
C33 C32 1.405 . S
C33 C34 1.364 . S
C34 C33 1.364 . S
C34 C35 1.400 . S
C35 H23 0.931 . S
C35 C30 1.408 . S
C35 C34 1.400 . S
H36 C42 0.930 . S
H37 C45 0.931 . S
H38 C47 0.931 . S
H39 C49 0.930 . S
H40 C51 0.930 . S
H41 C53 0.931 . S
C42 H36 0.930 . S
C42 C43 1.380 . S
C42 C44 1.394 . S
C43 C42 1.380 . S
C43 C47 1.382 . S
C44 C42 1.394 . S
C44 C45 1.400 . S
C45 H37 0.931 . S
C45 C44 1.400 . S
C45 C46 1.375 . S
C46 C45 1.375 . S
C46 C47 1.415 . S
C46 C48 1.501 . S
C47 H38 0.931 . S
C47 C43 1.382 . S
C47 C46 1.415 . S
C48 C46 1.501 . S
C48 C49 1.384 . S
C48 C53 1.408 . S
C49 H39 0.930 . S
C49 C48 1.384 . S
C49 C50 1.389 . S
C50 C49 1.389 . S
C50 C51 1.405 . S
C51 H40 0.930 . S
C51 C50 1.405 . S
C51 C52 1.364 . S
C52 C51 1.364 . S
C52 C53 1.400 . S
C53 H41 0.931 . S
C53 C48 1.408 . S
C53 C52 1.400 . S
H54 C60 0.930 . S
H55 C63 0.931 . S
H56 C65 0.931 . S
H57 C67 0.930 . S
H58 C69 0.930 . S
H59 C71 0.931 . S
C60 H54 0.930 . S
C60 C61 1.380 . S
C60 C62 1.394 . S
C61 C60 1.380 . S
C61 C65 1.382 . S
C62 C60 1.394 . S
C62 C63 1.400 . S
C63 H55 0.931 . S
C63 C62 1.400 . S
C63 C64 1.375 . S
C64 C63 1.375 . S
C64 C65 1.415 . S
C64 C66 1.501 . S
C65 H56 0.931 . S
C65 C61 1.382 . S
C65 C64 1.415 . S
C66 C64 1.501 . S
C66 C67 1.384 . S
C66 C71 1.408 . S
C67 H57 0.930 . S
C67 C66 1.384 . S
C67 C68 1.389 . S
C68 C67 1.389 . S
C68 C69 1.405 . S
C69 H58 0.930 . S
C69 C68 1.405 . S
C69 C70 1.364 . S
C70 C69 1.364 . S
C70 C71 1.400 . S
C71 H59 0.931 . S
C71 C66 1.408 . S
C71 C70 1.400 . S
H72 C78 0.930 . S
H73 C81 0.931 . S
H74 C83 0.931 . S
H75 C85 0.930 . S
H76 C87 0.930 . S
H77 C89 0.931 . S
C78 H72 0.930 . S
C78 C79 1.380 . S
C78 C80 1.394 . S
C79 C78 1.380 . S
C79 C83 1.382 . S
C80 C78 1.394 . S
C80 C81 1.400 . S
C81 H73 0.931 . S
C81 C80 1.400 . S
C81 C82 1.375 . S
C82 C81 1.375 . S
C82 C83 1.415 . S
C82 C84 1.501 . S
C83 H74 0.931 . S
C83 C79 1.382 . S
C83 C82 1.415 . S
C84 C82 1.501 . S
C84 C85 1.384 . S
C84 C89 1.408 . S
C85 H75 0.930 . S
C85 C84 1.384 . S
C85 C86 1.389 . S
C86 C85 1.389 . S
C86 C87 1.405 . S
C87 H76 0.930 . S
C87 C86 1.405 . S
C87 C88 1.364 . S
C88 C87 1.364 . S
C88 C89 1.400 . S
C89 H77 0.931 . S
C89 C84 1.408 . S
C89 C88 1.400 . S
H90 C96 0.930 . S
H91 C99 0.931 . S
H92 C101 0.931 . S
H93 C103 0.930 . S
H94 C105 0.930 . S
H95 C107 0.931 . S
C96 H90 0.930 . S
C96 C97 1.380 . S
C96 C98 1.394 . S
C97 C96 1.380 . S
C97 C101 1.382 . S
C98 C96 1.394 . S
C98 C99 1.400 . S
C99 H91 0.931 . S
C99 C98 1.400 . S
C99 C100 1.375 . S
C100 C99 1.375 . S
C100 C101 1.415 . S
C100 C102 1.501 . S
C101 H92 0.931 . S
C101 C97 1.382 . S
C101 C100 1.415 . S
C102 C100 1.501 . S
C102 C103 1.384 . S
C102 C107 1.408 . S
C103 H93 0.930 . S
C103 C102 1.384 . S
C103 C104 1.389 . S
C104 C103 1.389 . S
C104 C105 1.405 . S
C105 H94 0.930 . S
C105 C104 1.405 . S
C105 C106 1.364 . S
C106 C105 1.364 . S
C106 C107 1.400 . S
C107 H95 0.931 . S
C107 C102 1.408 . S
C107 C106 1.400 . S
H108 C114 0.930 . S
H109 C117 0.931 . S
H110 C119 0.931 . S
H111 C121 0.930 . S
H112 C123 0.930 . S
H113 C125 0.931 . S
C114 H108 0.930 . S
C114 C115 1.380 . S
C114 C116 1.394 . S
C115 C114 1.380 . S
C115 C119 1.382 . S
C116 C114 1.394 . S
C116 C117 1.400 . S
C117 H109 0.931 . S
C117 C116 1.400 . S
C117 C118 1.375 . S
C118 C117 1.375 . S
C118 C119 1.415 . S
C118 C120 1.501 . S
C119 H110 0.931 . S
C119 C115 1.382 . S
C119 C118 1.415 . S
C120 C118 1.501 . S
C120 C121 1.384 . S
C120 C125 1.408 . S
C121 H111 0.930 . S
C121 C120 1.384 . S
C121 C122 1.389 . S
C122 C121 1.389 . S
C122 C123 1.405 . S
C123 H112 0.930 . S
C123 C122 1.405 . S
C123 C124 1.364 . S
C124 C123 1.364 . S
C124 C125 1.400 . S
C125 H113 0.931 . S
C125 C120 1.408 . S
C125 C124 1.400 . S
H126 C132 0.930 . S
H127 C135 0.931 . S
H128 C137 0.931 . S
H129 C139 0.930 . S
H130 C141 0.930 . S
H131 C143 0.931 . S
C132 H126 0.930 . S
C132 C133 1.380 . S
C132 C134 1.394 . S
C133 C132 1.380 . S
C133 C137 1.382 . S
C134 C132 1.394 . S
C134 C135 1.400 . S
C135 H127 0.931 . S
C135 C134 1.400 . S
C135 C136 1.375 . S
C136 C135 1.375 . S
C136 C137 1.415 . S
C136 C138 1.501 . S
C137 H128 0.931 . S
C137 C133 1.382 . S
C137 C136 1.415 . S
C138 C136 1.501 . S
C138 C139 1.384 . S
C138 C143 1.408 . S
C139 H129 0.930 . S
C139 C138 1.384 . S
C139 C140 1.389 . S
C140 C139 1.389 . S
C140 C141 1.405 . S
C141 H130 0.930 . S
C141 C140 1.405 . S
C141 C142 1.364 . S
C142 C141 1.364 . S
C142 C143 1.400 . S
C143 H131 0.931 . S
C143 C138 1.408 . S
C143 C142 1.400 . S
C144 O146 1.247 . S
C144 O148 1.258 . S
C145 O152 1.247 . S
C145 O153 1.258 . S
O146 C144 1.247 . S
O146 Zn147 2.028 1_655 S
Zn147 O146 2.028 1_455 S
Zn147 O151 2.035 . S
Zn147 O153 2.035 . S
Zn147 O154 2.028 1_455 S
O148 C144 1.258 . S
O148 Zn149 2.035 1_655 S
Zn149 O148 2.035 1_455 S
Zn149 O150 2.028 . S
Zn149 O152 2.028 . S
Zn149 O155 2.035 1_455 S
O150 Zn149 2.028 . S
O150 C156 1.247 . S
O151 Zn147 2.035 . S
O151 C156 1.258 . S
O152 C145 1.247 . S
O152 Zn149 2.028 . S
O153 C145 1.258 . S
O153 Zn147 2.035 . S
O154 Zn147 2.028 1_655 S
O154 C157 1.247 . S
O155 Zn149 2.035 1_655 S
O155 C157 1.258 . S
C156 O150 1.247 . S
C156 O151 1.258 . S
C157 O154 1.247 . S
C157 O155 1.258 . S
C158 O160 1.247 . S
C158 O162 1.258 . S
C159 O166 1.247 . S
C159 O167 1.258 . S
O160 C158 1.247 . S
O160 Zn161 2.028 . S
Zn161 O160 2.028 . S
Zn161 O165 2.035 1_545 S
Zn161 O167 2.035 1_545 S
Zn161 O168 2.028 . S
O162 C158 1.258 . S
O162 Zn163 2.070 . S
Zn163 O162 2.070 . S
Zn163 O164 1.994 1_545 S
Zn163 O166 1.995 1_545 S
Zn163 O169 2.070 . S
O164 Zn163 1.994 1_565 S
O164 C170 1.247 . S
O165 Zn161 2.035 1_565 S
O165 C170 1.258 . S
O166 C159 1.247 . S
O166 Zn163 1.995 1_565 S
O167 C159 1.258 . S
O167 Zn161 2.035 1_565 S
O168 Zn161 2.028 . S
O168 C171 1.247 . S
O169 Zn163 2.070 . S
O169 C171 1.258 . S
C170 O164 1.247 . S
C170 O165 1.258 . S
C171 O168 1.247 . S
C171 O169 1.258 . S
C172 O174 1.247 . S
C172 O176 1.258 . S
C173 O180 1.247 . S
C173 O181 1.258 . S
O174 C172 1.247 . S
O174 Zn175 2.028 1_655 S
Zn175 O174 2.028 1_455 S
Zn175 O179 2.035 . S
Zn175 O181 2.035 . S
Zn175 O182 2.028 1_455 S
O176 C172 1.258 . S
O176 Zn177 2.035 1_655 S
Zn177 O176 2.035 1_455 S
Zn177 O178 2.028 . S
Zn177 O180 2.028 . S
Zn177 O183 2.035 1_455 S
O178 Zn177 2.028 . S
O178 C184 1.247 . S
O179 Zn175 2.035 . S
O179 C184 1.258 . S
O180 C173 1.247 . S
O180 Zn177 2.028 . S
O181 C173 1.258 . S
O181 Zn175 2.035 . S
O182 Zn175 2.028 1_655 S
O182 C185 1.247 . S
O183 Zn177 2.035 1_655 S
O183 C185 1.258 . S
C184 O178 1.247 . S
C184 O179 1.258 . S
C185 O182 1.247 . S
C185 O183 1.258 . S
C186 O188 1.247 . S
C186 O190 1.258 . S
C187 O194 1.247 . S
C187 O195 1.258 . S
O188 C186 1.247 . S
O188 Zn189 2.060 . S
Zn189 O188 2.060 . S
Zn189 O193 2.003 1_545 S
Zn189 O195 2.003 1_545 S
Zn189 O196 2.060 . S
O190 C186 1.258 . S
O190 Zn191 2.054 . S
Zn191 O190 2.054 . S
Zn191 O192 2.010 1_545 S
Zn191 O194 2.010 1_545 S
Zn191 O197 2.054 . S
O192 Zn191 2.010 1_565 S
O192 C198 1.247 . S
O193 Zn189 2.003 1_565 S
O193 C198 1.258 . S
O194 C187 1.247 . S
O194 Zn191 2.010 1_565 S
O195 C187 1.258 . S
O195 Zn189 2.003 1_565 S
O196 Zn189 2.060 . S
O196 C199 1.247 . S
O197 Zn191 2.054 . S
O197 C199 1.258 . S
C198 O192 1.247 . S
C198 O193 1.258 . S
C199 O196 1.247 . S
C199 O197 1.258 . S
C200 O202 1.247 . S
C200 O204 1.258 . S
C201 O208 1.247 . S
C201 O209 1.258 . S
O202 C200 1.247 . S
O202 Zn203 2.028 . S
Zn203 O202 2.028 . S
Zn203 O207 2.035 . S
Zn203 O209 2.036 1_554 S
Zn203 O210 2.028 1_554 S
O204 C200 1.258 . S
O204 Zn205 2.036 . S
Zn205 O204 2.036 . S
Zn205 O206 2.028 . S
Zn205 O208 2.028 1_554 S
Zn205 O211 2.035 1_554 S
O206 Zn205 2.028 . S
O206 C212 1.247 . S
O207 Zn203 2.035 . S
O207 C212 1.258 . S
O208 C201 1.247 . S
O208 Zn205 2.028 1_556 S
O209 C201 1.258 . S
O209 Zn203 2.036 1_556 S
O210 Zn203 2.028 1_556 S
O210 C213 1.247 . S
O211 Zn205 2.035 1_556 S
O211 C213 1.258 . S
C212 O206 1.247 . S
C212 O207 1.258 . S
C213 O210 1.247 . S
C213 O211 1.258 . S
C214 O216 1.247 . S
C214 O218 1.258 . S
C215 O222 1.247 . S
C215 O223 1.258 . S
O216 C214 1.247 . S
O216 Zn217 2.050 . S
Zn217 O216 2.050 . S
Zn217 O221 2.057 . S
Zn217 O223 2.014 1_554 S
Zn217 O224 2.006 1_554 S
O218 C214 1.258 . S
O218 Zn219 2.059 . S
Zn219 O218 2.059 . S
Zn219 O220 2.052 . S
Zn219 O222 2.004 1_554 S
Zn219 O225 2.012 1_554 S
O220 Zn219 2.052 . S
O220 C226 1.247 . S
O221 Zn217 2.057 . S
O221 C226 1.258 . S
O222 C215 1.247 . S
O222 Zn219 2.004 1_556 S
O223 C215 1.258 . S
O223 Zn217 2.014 1_556 S
O224 Zn217 2.006 1_556 S
O224 C227 1.247 . S
O225 Zn219 2.012 1_556 S
O225 C227 1.258 . S
C226 O220 1.247 . S
C226 O221 1.258 . S
C227 O224 1.247 . S
C227 O225 1.258 . S
C228 O230 1.247 . S
C228 O232 1.258 . S
C229 O236 1.247 . S
C229 O237 1.258 . S
O230 C228 1.247 . S
O230 Zn231 2.004 1_556 S
Zn231 O230 2.004 1_554 S
Zn231 O235 2.011 1_554 S
Zn231 O237 2.059 . S
Zn231 O238 2.052 . S
O232 C228 1.258 . S
O232 Zn233 2.011 1_556 S
Zn233 O232 2.011 1_554 S
Zn233 O234 2.003 1_554 S
Zn233 O236 2.053 . S
Zn233 O239 2.060 . S
O234 Zn233 2.003 1_556 S
O234 C240 1.247 . S
O235 Zn231 2.011 1_556 S
O235 C240 1.258 . S
O236 C229 1.247 . S
O236 Zn233 2.053 . S
O237 C229 1.258 . S
O237 Zn231 2.059 . S
O238 Zn231 2.052 . S
O238 C241 1.247 . S
O239 Zn233 2.060 . S
O239 C241 1.258 . S
C240 O234 1.247 . S
C240 O235 1.258 . S
C241 O238 1.247 . S
C241 O239 1.258 . S
C242 O244 1.247 . S
C242 O246 1.258 . S
C243 O250 1.247 . S
C243 O251 1.258 . S
O244 C242 1.247 . S
O244 Zn245 2.037 . S
Zn245 O244 2.037 . S
Zn245 O249 2.045 . S
Zn245 O251 2.026 1_554 S
Zn245 O252 2.018 1_554 S
O246 C242 1.258 . S
O246 Zn247 2.047 . S
Zn247 O246 2.047 . S
Zn247 O248 2.040 . S
Zn247 O250 2.016 1_554 S
Zn247 O253 2.024 1_554 S
O248 Zn247 2.040 . S
O248 C254 1.247 . S
O249 Zn245 2.045 . S
O249 C254 1.258 . S
O250 C243 1.247 . S
O250 Zn247 2.016 1_556 S
O251 C243 1.258 . S
O251 Zn245 2.026 1_556 S
O252 Zn245 2.018 1_556 S
O252 C255 1.247 . S
O253 Zn247 2.024 1_556 S
O253 C255 1.258 . S
C254 O248 1.247 . S
C254 O249 1.258 . S
C255 O252 1.247 . S
C255 O253 1.258 . S
H256 C264 0.929 . S
H257 C266 0.930 . S
H258 C268 0.930 . S
H259 C271 0.929 . S
H260 C274 0.930 . S
H261 C276 0.960 . S
H262 C276 0.960 . S
H263 C276 0.960 . S
C264 H256 0.929 . S
C264 C265 1.377 . S
C264 C266 1.384 . S
C265 C264 1.377 . S
C265 C271 1.390 . S
C266 H257 0.930 . S
C266 C264 1.384 . S
C266 C267 1.372 . S
C267 C266 1.372 . S
C267 C268 1.400 . S
C267 C272 1.490 . S
C268 H258 0.930 . S
C268 C267 1.400 . S
C268 C271 1.386 . S
H269 C285 0.930 . S
H270 C286 0.931 . S
C271 H259 0.929 . S
C271 C265 1.390 . S
C271 C268 1.386 . S
C272 C267 1.490 . S
C272 C274 1.395 . S
C272 C275 1.403 . S
H273 C279 0.930 . S
C274 H260 0.930 . S
C274 C272 1.395 . S
C274 C277 1.403 . S
C275 C272 1.403 . S
C275 C276 1.524 . S
C275 C279 1.400 . S
C276 H261 0.960 . S
C276 H262 0.960 . S
C276 H263 0.960 . S
C276 C275 1.524 . S
C277 C274 1.403 . S
C277 C278 1.392 . S
C277 C281 1.495 . S
C278 C277 1.392 . S
C278 C279 1.385 . S
C278 C280 1.478 . S
C279 H273 0.930 . S
C279 C275 1.400 . S
C279 C278 1.385 . S
C280 C278 1.478 . S
C280 C282 1.381 . S
C280 C286 1.383 . S
C281 C277 1.495 . S
C281 H287 0.959 . S
C281 H288 0.961 . S
C281 H289 0.960 . S
C282 C280 1.381 . S
C282 C283 1.394 . S
C282 H290 0.930 . S
C283 C282 1.394 . S
C283 C284 1.383 . S
C283 H291 0.929 . S
C284 C283 1.383 . S
C284 C285 1.377 . S
C285 H269 0.930 . S
C285 C284 1.377 . S
C285 C286 1.379 . S
C286 H270 0.931 . S
C286 C280 1.383 . S
C286 C285 1.379 . S
H287 C281 0.959 . S
H288 C281 0.961 . S
H289 C281 0.960 . S
H290 C282 0.930 . S
H291 C283 0.929 . S
H292 C300 0.929 . S
H293 C302 0.930 . S
H294 C304 0.930 . S
H295 C307 0.929 . S
H296 C310 0.930 . S
H297 C312 0.960 . S
H298 C312 0.960 . S
H299 C312 0.960 . S
C300 H292 0.929 . S
C300 C301 1.377 . S
C300 C302 1.384 . S
C301 C300 1.377 . S
C301 C307 1.390 . S
C302 H293 0.930 . S
C302 C300 1.384 . S
C302 C303 1.372 . S
C303 C302 1.372 . S
C303 C304 1.400 . S
C303 C308 1.490 . S
C304 H294 0.930 . S
C304 C303 1.400 . S
C304 C307 1.386 . S
H305 C321 0.930 . S
H306 C322 0.931 . S
C307 H295 0.929 . S
C307 C301 1.390 . S
C307 C304 1.386 . S
C308 C303 1.490 . S
C308 C310 1.395 . S
C308 C311 1.403 . S
H309 C315 0.930 . S
C310 H296 0.930 . S
C310 C308 1.395 . S
C310 C313 1.403 . S
C311 C308 1.403 . S
C311 C312 1.524 . S
C311 C315 1.400 . S
C312 H297 0.960 . S
C312 H298 0.960 . S
C312 H299 0.960 . S
C312 C311 1.524 . S
C313 C310 1.403 . S
C313 C314 1.392 . S
C313 C317 1.495 . S
C314 C313 1.392 . S
C314 C315 1.385 . S
C314 C316 1.478 . S
C315 H309 0.930 . S
C315 C311 1.400 . S
C315 C314 1.385 . S
C316 C314 1.478 . S
C316 C318 1.381 . S
C316 C322 1.383 . S
C317 C313 1.495 . S
C317 H323 0.959 . S
C317 H324 0.961 . S
C317 H325 0.960 . S
C318 C316 1.381 . S
C318 C319 1.394 . S
C318 H326 0.930 . S
C319 C318 1.394 . S
C319 C320 1.383 . S
C319 H327 0.929 . S
C320 C319 1.383 . S
C320 C321 1.377 . S
C321 H305 0.930 . S
C321 C320 1.377 . S
C321 C322 1.379 . S
C322 H306 0.931 . S
C322 C316 1.383 . S
C322 C321 1.379 . S
H323 C317 0.959 . S
H324 C317 0.961 . S
H325 C317 0.960 . S
H326 C318 0.930 . S
H327 C319 0.929 . S
H328 C336 0.929 . S
H329 C338 0.930 . S
H330 C340 0.930 . S
H331 C343 0.929 . S
H332 C346 0.930 . S
H333 C348 0.960 . S
H334 C348 0.960 . S
H335 C348 0.960 . S
C336 H328 0.929 . S
C336 C337 1.377 . S
C336 C338 1.384 . S
C337 C336 1.377 . S
C337 C343 1.390 . S
C338 H329 0.930 . S
C338 C336 1.384 . S
C338 C339 1.372 . S
C339 C338 1.372 . S
C339 C340 1.400 . S
C339 C344 1.490 . S
C340 H330 0.930 . S
C340 C339 1.400 . S
C340 C343 1.386 . S
H341 C357 0.930 . S
H342 C358 0.931 . S
C343 H331 0.929 . S
C343 C337 1.390 . S
C343 C340 1.386 . S
C344 C339 1.490 . S
C344 C346 1.395 . S
C344 C347 1.403 . S
H345 C351 0.930 . S
C346 H332 0.930 . S
C346 C344 1.395 . S
C346 C349 1.403 . S
C347 C344 1.403 . S
C347 C348 1.524 . S
C347 C351 1.400 . S
C348 H333 0.960 . S
C348 H334 0.960 . S
C348 H335 0.960 . S
C348 C347 1.524 . S
C349 C346 1.403 . S
C349 C350 1.392 . S
C349 C353 1.495 . S
C350 C349 1.392 . S
C350 C351 1.385 . S
C350 C352 1.478 . S
C351 H345 0.930 . S
C351 C347 1.400 . S
C351 C350 1.385 . S
C352 C350 1.478 . S
C352 C354 1.381 . S
C352 C358 1.383 . S
C353 C349 1.495 . S
C353 H359 0.959 . S
C353 H360 0.961 . S
C353 H361 0.960 . S
C354 C352 1.381 . S
C354 C355 1.394 . S
C354 H362 0.930 . S
C355 C354 1.394 . S
C355 C356 1.383 . S
C355 H363 0.929 . S
C356 C355 1.383 . S
C356 C357 1.377 . S
C357 H341 0.930 . S
C357 C356 1.377 . S
C357 C358 1.379 . S
C358 H342 0.931 . S
C358 C352 1.383 . S
C358 C357 1.379 . S
H359 C353 0.959 . S
H360 C353 0.961 . S
H361 C353 0.960 . S
H362 C354 0.930 . S
H363 C355 0.929 . S
H364 C372 0.929 . S
H365 C374 0.930 . S
H366 C376 0.930 . S
H367 C379 0.929 . S
H368 C382 0.930 . S
H369 C384 0.960 . S
H370 C384 0.960 . S
H371 C384 0.960 . S
C372 H364 0.929 . S
C372 C373 1.377 . S
C372 C374 1.384 . S
C373 C372 1.377 . S
C373 C379 1.390 . S
C374 H365 0.930 . S
C374 C372 1.384 . S
C374 C375 1.372 . S
C375 C374 1.372 . S
C375 C376 1.400 . S
C375 C380 1.490 . S
C376 H366 0.930 . S
C376 C375 1.400 . S
C376 C379 1.386 . S
H377 C393 0.930 . S
H378 C394 0.931 . S
C379 H367 0.929 . S
C379 C373 1.390 . S
C379 C376 1.386 . S
C380 C375 1.490 . S
C380 C382 1.395 . S
C380 C383 1.403 . S
H381 C387 0.930 . S
C382 H368 0.930 . S
C382 C380 1.395 . S
C382 C385 1.403 . S
C383 C380 1.403 . S
C383 C384 1.524 . S
C383 C387 1.400 . S
C384 H369 0.960 . S
C384 H370 0.960 . S
C384 H371 0.960 . S
C384 C383 1.524 . S
C385 C382 1.403 . S
C385 C386 1.392 . S
C385 C389 1.495 . S
C386 C385 1.392 . S
C386 C387 1.385 . S
C386 C388 1.478 . S
C387 H381 0.930 . S
C387 C383 1.400 . S
C387 C386 1.385 . S
C388 C386 1.478 . S
C388 C390 1.381 . S
C388 C394 1.383 . S
C389 C385 1.495 . S
C389 H395 0.959 . S
C389 H396 0.961 . S
C389 H397 0.960 . S
C390 C388 1.381 . S
C390 C391 1.394 . S
C390 H398 0.930 . S
C391 C390 1.394 . S
C391 C392 1.383 . S
C391 H399 0.929 . S
C392 C391 1.383 . S
C392 C393 1.377 . S
C393 H377 0.930 . S
C393 C392 1.377 . S
C393 C394 1.379 . S
C394 H378 0.931 . S
C394 C388 1.383 . S
C394 C393 1.379 . S
H395 C389 0.959 . S
H396 C389 0.961 . S
H397 C389 0.960 . S
H398 C390 0.930 . S
H399 C391 0.929 . S
H400 C408 0.929 . S
H401 C410 0.930 . S
H402 C412 0.930 . S
H403 C415 0.929 . S
H404 C418 0.930 . S
H405 C420 0.960 . S
H406 C420 0.960 . S
H407 C420 0.960 . S
C408 H400 0.929 . S
C408 C409 1.377 . S
C408 C410 1.384 . S
C409 C408 1.377 . S
C409 C415 1.390 . S
C410 H401 0.930 . S
C410 C408 1.384 . S
C410 C411 1.372 . S
C411 C410 1.372 . S
C411 C412 1.400 . S
C411 C416 1.490 . S
C412 H402 0.930 . S
C412 C411 1.400 . S
C412 C415 1.386 . S
H413 C429 0.930 . S
H414 C430 0.931 . S
C415 H403 0.929 . S
C415 C409 1.390 . S
C415 C412 1.386 . S
C416 C411 1.490 . S
C416 C418 1.395 . S
C416 C419 1.403 . S
H417 C423 0.930 . S
C418 H404 0.930 . S
C418 C416 1.395 . S
C418 C421 1.403 . S
C419 C416 1.403 . S
C419 C420 1.524 . S
C419 C423 1.400 . S
C420 H405 0.960 . S
C420 H406 0.960 . S
C420 H407 0.960 . S
C420 C419 1.524 . S
C421 C418 1.403 . S
C421 C422 1.392 . S
C421 C425 1.495 . S
C422 C421 1.392 . S
C422 C423 1.385 . S
C422 C424 1.478 . S
C423 H417 0.930 . S
C423 C419 1.400 . S
C423 C422 1.385 . S
C424 C422 1.478 . S
C424 C426 1.381 . S
C424 C430 1.383 . S
C425 C421 1.495 . S
C425 H431 0.959 . S
C425 H432 0.961 . S
C425 H433 0.960 . S
C426 C424 1.381 . S
C426 C427 1.394 . S
C426 H434 0.930 . S
C427 C426 1.394 . S
C427 C428 1.383 . S
C427 H435 0.929 . S
C428 C427 1.383 . S
C428 C429 1.377 . S
C429 H413 0.930 . S
C429 C428 1.377 . S
C429 C430 1.379 . S
C430 H414 0.931 . S
C430 C424 1.383 . S
C430 C429 1.379 . S
H431 C425 0.959 . S
H432 C425 0.961 . S
H433 C425 0.960 . S
H434 C426 0.930 . S
H435 C427 0.929 . S
H436 C444 0.929 . S
H437 C446 0.930 . S
H438 C448 0.930 . S
H439 C451 0.929 . S
H440 C454 0.930 . S
H441 C456 0.960 . S
H442 C456 0.960 . S
H443 C456 0.960 . S
C444 H436 0.929 . S
C444 C445 1.377 . S
C444 C446 1.384 . S
C445 C444 1.377 . S
C445 C451 1.390 . S
C446 H437 0.930 . S
C446 C444 1.384 . S
C446 C447 1.372 . S
C447 C446 1.372 . S
C447 C448 1.400 . S
C447 C452 1.490 . S
C448 H438 0.930 . S
C448 C447 1.400 . S
C448 C451 1.386 . S
H449 C465 0.930 . S
H450 C466 0.931 . S
C451 H439 0.929 . S
C451 C445 1.390 . S
C451 C448 1.386 . S
C452 C447 1.490 . S
C452 C454 1.395 . S
C452 C455 1.403 . S
H453 C459 0.930 . S
C454 H440 0.930 . S
C454 C452 1.395 . S
C454 C457 1.403 . S
C455 C452 1.403 . S
C455 C456 1.524 . S
C455 C459 1.400 . S
C456 H441 0.960 . S
C456 H442 0.960 . S
C456 H443 0.960 . S
C456 C455 1.524 . S
C457 C454 1.403 . S
C457 C458 1.392 . S
C457 C461 1.495 . S
C458 C457 1.392 . S
C458 C459 1.385 . S
C458 C460 1.478 . S
C459 H453 0.930 . S
C459 C455 1.400 . S
C459 C458 1.385 . S
C460 C458 1.478 . S
C460 C462 1.381 . S
C460 C466 1.383 . S
C461 C457 1.495 . S
C461 H467 0.959 . S
C461 H468 0.961 . S
C461 H469 0.960 . S
C462 C460 1.381 . S
C462 C463 1.394 . S
C462 H470 0.930 . S
C463 C462 1.394 . S
C463 C464 1.383 . S
C463 H471 0.929 . S
C464 C463 1.383 . S
C464 C465 1.377 . S
C465 H449 0.930 . S
C465 C464 1.377 . S
C465 C466 1.379 . S
C466 H450 0.931 . S
C466 C460 1.383 . S
C466 C465 1.379 . S
H467 C461 0.959 . S
H468 C461 0.961 . S
H469 C461 0.960 . S
H470 C462 0.930 . S
H471 C463 0.929 . S
H472 C480 0.929 . S
H473 C482 0.930 . S
H474 C484 0.930 . S
H475 C487 0.929 . S
H476 C490 0.930 . S
H477 C492 0.960 . S
H478 C492 0.960 . S
H479 C492 0.960 . S
C480 H472 0.929 . S
C480 C481 1.377 . S
C480 C482 1.384 . S
C481 C480 1.377 . S
C481 C487 1.390 . S
C482 H473 0.930 . S
C482 C480 1.384 . S
C482 C483 1.372 . S
C483 C482 1.372 . S
C483 C484 1.400 . S
C483 C488 1.490 . S
C484 H474 0.930 . S
C484 C483 1.400 . S
C484 C487 1.386 . S
H485 C501 0.930 . S
H486 C502 0.931 . S
C487 H475 0.929 . S
C487 C481 1.390 . S
C487 C484 1.386 . S
C488 C483 1.490 . S
C488 C490 1.395 . S
C488 C491 1.403 . S
H489 C495 0.930 . S
C490 H476 0.930 . S
C490 C488 1.395 . S
C490 C493 1.403 . S
C491 C488 1.403 . S
C491 C492 1.524 . S
C491 C495 1.400 . S
C492 H477 0.960 . S
C492 H478 0.960 . S
C492 H479 0.960 . S
C492 C491 1.524 . S
C493 C490 1.403 . S
C493 C494 1.392 . S
C493 C497 1.495 . S
C494 C493 1.392 . S
C494 C495 1.385 . S
C494 C496 1.478 . S
C495 H489 0.930 . S
C495 C491 1.400 . S
C495 C494 1.385 . S
C496 C494 1.478 . S
C496 C498 1.381 . S
C496 C502 1.383 . S
C497 C493 1.495 . S
C497 H503 0.959 . S
C497 H504 0.961 . S
C497 H505 0.960 . S
C498 C496 1.381 . S
C498 C499 1.394 . S
C498 H506 0.930 . S
C499 C498 1.394 . S
C499 C500 1.383 . S
C499 H507 0.929 . S
C500 C499 1.383 . S
C500 C501 1.377 . S
C501 H485 0.930 . S
C501 C500 1.377 . S
C501 C502 1.379 . S
C502 H486 0.931 . S
C502 C496 1.383 . S
C502 C501 1.379 . S
H503 C497 0.959 . S
H504 C497 0.961 . S
H505 C497 0.960 . S
H506 C498 0.930 . S
H507 C499 0.929 . S
H508 C516 0.929 . S
H509 C518 0.930 . S
H510 C520 0.930 . S
H511 C523 0.929 . S
H512 C526 0.930 . S
H513 C528 0.960 . S
H514 C528 0.960 . S
H515 C528 0.960 . S
C516 H508 0.929 . S
C516 C517 1.377 . S
C516 C518 1.384 . S
C517 C516 1.377 . S
C517 C523 1.390 . S
C518 H509 0.930 . S
C518 C516 1.384 . S
C518 C519 1.372 . S
C519 C518 1.372 . S
C519 C520 1.400 . S
C519 C524 1.490 . S
C520 H510 0.930 . S
C520 C519 1.400 . S
C520 C523 1.386 . S
H521 C537 0.930 . S
H522 C538 0.931 . S
C523 H511 0.929 . S
C523 C517 1.390 . S
C523 C520 1.386 . S
C524 C519 1.490 . S
C524 C526 1.395 . S
C524 C527 1.403 . S
H525 C531 0.930 . S
C526 H512 0.930 . S
C526 C524 1.395 . S
C526 C529 1.403 . S
C527 C524 1.403 . S
C527 C528 1.524 . S
C527 C531 1.400 . S
C528 H513 0.960 . S
C528 H514 0.960 . S
C528 H515 0.960 . S
C528 C527 1.524 . S
C529 C526 1.403 . S
C529 C530 1.392 . S
C529 C533 1.495 . S
C530 C529 1.392 . S
C530 C531 1.385 . S
C530 C532 1.478 . S
C531 H525 0.930 . S
C531 C527 1.400 . S
C531 C530 1.385 . S
C532 C530 1.478 . S
C532 C534 1.381 . S
C532 C538 1.383 . S
C533 C529 1.495 . S
C533 H539 0.959 . S
C533 H540 0.961 . S
C533 H541 0.960 . S
C534 C532 1.381 . S
C534 C535 1.394 . S
C534 H542 0.930 . S
C535 C534 1.394 . S
C535 C536 1.383 . S
C535 H543 0.929 . S
C536 C535 1.383 . S
C536 C537 1.377 . S
C537 H521 0.930 . S
C537 C536 1.377 . S
C537 C538 1.379 . S
C538 H522 0.931 . S
C538 C532 1.383 . S
C538 C537 1.379 . S
H539 C533 0.959 . S
H540 C533 0.961 . S
H541 C533 0.960 . S
H542 C534 0.930 . S
H543 C535 0.929 . S
H544 C552 0.929 . S
H545 C554 0.930 . S
H546 C556 0.930 . S
H547 C559 0.929 . S
H548 C562 0.930 . S
H549 C564 0.960 . S
H550 C564 0.960 . S
H551 C564 0.960 . S
C552 H544 0.929 . S
C552 C553 1.377 . S
C552 C554 1.384 . S
C553 C552 1.377 . S
C553 C559 1.390 . S
C554 H545 0.930 . S
C554 C552 1.384 . S
C554 C555 1.372 . S
C555 C554 1.372 . S
C555 C556 1.400 . S
C555 C560 1.490 . S
C556 H546 0.930 . S
C556 C555 1.400 . S
C556 C559 1.386 . S
H557 C573 0.930 . S
H558 C574 0.931 . S
C559 H547 0.929 . S
C559 C553 1.390 . S
C559 C556 1.386 . S
C560 C555 1.490 . S
C560 C562 1.395 . S
C560 C563 1.403 . S
H561 C567 0.930 . S
C562 H548 0.930 . S
C562 C560 1.395 . S
C562 C565 1.403 . S
C563 C560 1.403 . S
C563 C564 1.524 . S
C563 C567 1.400 . S
C564 H549 0.960 . S
C564 H550 0.960 . S
C564 H551 0.960 . S
C564 C563 1.524 . S
C565 C562 1.403 . S
C565 C566 1.392 . S
C565 C569 1.495 . S
C566 C565 1.392 . S
C566 C567 1.385 . S
C566 C568 1.478 . S
C567 H561 0.930 . S
C567 C563 1.400 . S
C567 C566 1.385 . S
C568 C566 1.478 . S
C568 C570 1.381 . S
C568 C574 1.383 . S
C569 C565 1.495 . S
C569 H575 0.959 . S
C569 H576 0.961 . S
C569 H577 0.960 . S
C570 C568 1.381 . S
C570 C571 1.394 . S
C570 H578 0.930 . S
C571 C570 1.394 . S
C571 C572 1.383 . S
C571 H579 0.929 . S
C572 C571 1.383 . S
C572 C573 1.377 . S
C573 H557 0.930 . S
C573 C572 1.377 . S
C573 C574 1.379 . S
C574 H558 0.931 . S
C574 C568 1.383 . S
C574 C573 1.379 . S
H575 C569 0.959 . S
H576 C569 0.961 . S
H577 C569 0.960 . S
H578 C570 0.930 . S
H579 C571 0.929 . S
H580 C588 0.929 . S
H581 C590 0.930 . S
H582 C592 0.930 . S
H583 C595 0.929 . S
H584 C598 0.930 . S
H585 C600 0.960 . S
H586 C600 0.960 . S
H587 C600 0.960 . S
C588 H580 0.929 . S
C588 C589 1.377 . S
C588 C590 1.384 . S
C589 C588 1.377 . S
C589 C595 1.390 . S
C590 H581 0.930 . S
C590 C588 1.384 . S
C590 C591 1.372 . S
C591 C590 1.372 . S
C591 C592 1.400 . S
C591 C596 1.490 . S
C592 H582 0.930 . S
C592 C591 1.400 . S
C592 C595 1.386 . S
H593 C609 0.930 . S
H594 C610 0.931 . S
C595 H583 0.929 . S
C595 C589 1.390 . S
C595 C592 1.386 . S
C596 C591 1.490 . S
C596 C598 1.395 . S
C596 C599 1.403 . S
H597 C603 0.930 . S
C598 H584 0.930 . S
C598 C596 1.395 . S
C598 C601 1.403 . S
C599 C596 1.403 . S
C599 C600 1.524 . S
C599 C603 1.400 . S
C600 H585 0.960 . S
C600 H586 0.960 . S
C600 H587 0.960 . S
C600 C599 1.524 . S
C601 C598 1.403 . S
C601 C602 1.392 . S
C601 C605 1.495 . S
C602 C601 1.392 . S
C602 C603 1.385 . S
C602 C604 1.478 . S
C603 H597 0.930 . S
C603 C599 1.400 . S
C603 C602 1.385 . S
C604 C602 1.478 . S
C604 C606 1.381 . S
C604 C610 1.383 . S
C605 C601 1.495 . S
C605 H611 0.959 . S
C605 H612 0.961 . S
C605 H613 0.960 . S
C606 C604 1.381 . S
C606 C607 1.394 . S
C606 H614 0.930 . S
C607 C606 1.394 . S
C607 C608 1.383 . S
C607 H615 0.929 . S
C608 C607 1.383 . S
C608 C609 1.377 . S
C609 H593 0.930 . S
C609 C608 1.377 . S
C609 C610 1.379 . S
C610 H594 0.931 . S
C610 C604 1.383 . S
C610 C609 1.379 . S
H611 C605 0.959 . S
H612 C605 0.961 . S
H613 C605 0.960 . S
H614 C606 0.930 . S
H615 C607 0.929 . S
H616 C624 0.929 . S
H617 C626 0.930 . S
H618 C628 0.930 . S
H619 C631 0.929 . S
H620 C634 0.930 . S
H621 C636 0.960 . S
H622 C636 0.960 . S
H623 C636 0.960 . S
C624 H616 0.929 . S
C624 C625 1.377 . S
C624 C626 1.384 . S
C625 C624 1.377 . S
C625 C631 1.390 . S
C626 H617 0.930 . S
C626 C624 1.384 . S
C626 C627 1.372 . S
C627 C626 1.372 . S
C627 C628 1.400 . S
C627 C632 1.490 . S
C628 H618 0.930 . S
C628 C627 1.400 . S
C628 C631 1.386 . S
H629 C645 0.930 . S
H630 C646 0.931 . S
C631 H619 0.929 . S
C631 C625 1.390 . S
C631 C628 1.386 . S
C632 C627 1.490 . S
C632 C634 1.395 . S
C632 C635 1.403 . S
H633 C639 0.930 . S
C634 H620 0.930 . S
C634 C632 1.395 . S
C634 C637 1.403 . S
C635 C632 1.403 . S
C635 C636 1.524 . S
C635 C639 1.400 . S
C636 H621 0.960 . S
C636 H622 0.960 . S
C636 H623 0.960 . S
C636 C635 1.524 . S
C637 C634 1.403 . S
C637 C638 1.392 . S
C637 C641 1.495 . S
C638 C637 1.392 . S
C638 C639 1.385 . S
C638 C640 1.478 . S
C639 H633 0.930 . S
C639 C635 1.400 . S
C639 C638 1.385 . S
C640 C638 1.478 . S
C640 C642 1.381 . S
C640 C646 1.383 . S
C641 C637 1.495 . S
C641 H647 0.959 . S
C641 H648 0.961 . S
C641 H649 0.960 . S
C642 C640 1.381 . S
C642 C643 1.394 . S
C642 H650 0.930 . S
C643 C642 1.394 . S
C643 C644 1.383 . S
C643 H651 0.929 . S
C644 C643 1.383 . S
C644 C645 1.377 . S
C645 H629 0.930 . S
C645 C644 1.377 . S
C645 C646 1.379 . S
C646 H630 0.931 . S
C646 C640 1.383 . S
C646 C645 1.379 . S
H647 C641 0.959 . S
H648 C641 0.961 . S
H649 C641 0.960 . S
H650 C642 0.930 . S
H651 C643 0.929 . S
H652 C660 0.929 . S
H653 C662 0.930 . S
H654 C664 0.930 . S
H655 C667 0.929 . S
H656 C670 0.930 . S
H657 C672 0.960 . S
H658 C672 0.960 . S
H659 C672 0.960 . S
C660 H652 0.929 . S
C660 C661 1.377 . S
C660 C662 1.384 . S
C661 C660 1.377 . S
C661 C667 1.390 . S
C662 H653 0.930 . S
C662 C660 1.384 . S
C662 C663 1.372 . S
C663 C662 1.372 . S
C663 C664 1.400 . S
C663 C668 1.490 . S
C664 H654 0.930 . S
C664 C663 1.400 . S
C664 C667 1.386 . S
H665 C681 0.930 . S
H666 C682 0.931 . S
C667 H655 0.929 . S
C667 C661 1.390 . S
C667 C664 1.386 . S
C668 C663 1.490 . S
C668 C670 1.395 . S
C668 C671 1.403 . S
H669 C675 0.930 . S
C670 H656 0.930 . S
C670 C668 1.395 . S
C670 C673 1.403 . S
C671 C668 1.403 . S
C671 C672 1.524 . S
C671 C675 1.400 . S
C672 H657 0.960 . S
C672 H658 0.960 . S
C672 H659 0.960 . S
C672 C671 1.524 . S
C673 C670 1.403 . S
C673 C674 1.392 . S
C673 C677 1.495 . S
C674 C673 1.392 . S
C674 C675 1.385 . S
C674 C676 1.478 . S
C675 H669 0.930 . S
C675 C671 1.400 . S
C675 C674 1.385 . S
C676 C674 1.478 . S
C676 C678 1.381 . S
C676 C682 1.383 . S
C677 C673 1.495 . S
C677 H683 0.959 . S
C677 H684 0.961 . S
C677 H685 0.960 . S
C678 C676 1.381 . S
C678 C679 1.394 . S
C678 H686 0.930 . S
C679 C678 1.394 . S
C679 C680 1.383 . S
C679 H687 0.929 . S
C680 C679 1.383 . S
C680 C681 1.377 . S
C681 H665 0.930 . S
C681 C680 1.377 . S
C681 C682 1.379 . S
C682 H666 0.931 . S
C682 C676 1.383 . S
C682 C681 1.379 . S
H683 C677 0.959 . S
H684 C677 0.961 . S
H685 C677 0.960 . S
H686 C678 0.930 . S
H687 C679 0.929 . S
H688 C696 0.929 . S
H689 C698 0.930 . S
H690 C700 0.930 . S
H691 C703 0.929 . S
H692 C706 0.930 . S
H693 C708 0.960 . S
H694 C708 0.960 . S
H695 C708 0.960 . S
C696 H688 0.929 . S
C696 C697 1.377 . S
C696 C698 1.384 . S
C697 C696 1.377 . S
C697 C703 1.390 . S
C698 H689 0.930 . S
C698 C696 1.384 . S
C698 C699 1.372 . S
C699 C698 1.372 . S
C699 C700 1.400 . S
C699 C704 1.490 . S
C700 H690 0.930 . S
C700 C699 1.400 . S
C700 C703 1.386 . S
H701 C717 0.930 . S
H702 C718 0.931 . S
C703 H691 0.929 . S
C703 C697 1.390 . S
C703 C700 1.386 . S
C704 C699 1.490 . S
C704 C706 1.395 . S
C704 C707 1.403 . S
H705 C711 0.930 . S
C706 H692 0.930 . S
C706 C704 1.395 . S
C706 C709 1.403 . S
C707 C704 1.403 . S
C707 C708 1.524 . S
C707 C711 1.400 . S
C708 H693 0.960 . S
C708 H694 0.960 . S
C708 H695 0.960 . S
C708 C707 1.524 . S
C709 C706 1.403 . S
C709 C710 1.392 . S
C709 C713 1.495 . S
C710 C709 1.392 . S
C710 C711 1.385 . S
C710 C712 1.478 . S
C711 H705 0.930 . S
C711 C707 1.400 . S
C711 C710 1.385 . S
C712 C710 1.478 . S
C712 C714 1.381 . S
C712 C718 1.383 . S
C713 C709 1.495 . S
C713 H719 0.959 . S
C713 H720 0.961 . S
C713 H721 0.960 . S
C714 C712 1.381 . S
C714 C715 1.394 . S
C714 H722 0.930 . S
C715 C714 1.394 . S
C715 C716 1.383 . S
C715 H723 0.929 . S
C716 C715 1.383 . S
C716 C717 1.377 . S
C717 H701 0.930 . S
C717 C716 1.377 . S
C717 C718 1.379 . S
C718 H702 0.931 . S
C718 C712 1.383 . S
C718 C717 1.379 . S
H719 C713 0.959 . S
H720 C713 0.961 . S
H721 C713 0.960 . S
H722 C714 0.930 . S
H723 C715 0.929 . S
H724 C732 0.929 . S
H725 C734 0.930 . S
H726 C736 0.930 . S
H727 C739 0.929 . S
H728 C742 0.930 . S
H729 C744 0.960 . S
H730 C744 0.960 . S
H731 C744 0.960 . S
C732 H724 0.929 . S
C732 C733 1.377 . S
C732 C734 1.384 . S
C733 C732 1.377 . S
C733 C739 1.390 . S
C734 H725 0.930 . S
C734 C732 1.384 . S
C734 C735 1.372 . S
C735 C734 1.372 . S
C735 C736 1.400 . S
C735 C740 1.490 . S
C736 H726 0.930 . S
C736 C735 1.400 . S
C736 C739 1.386 . S
H737 C753 0.930 . S
H738 C754 0.931 . S
C739 H727 0.929 . S
C739 C733 1.390 . S
C739 C736 1.386 . S
C740 C735 1.490 . S
C740 C742 1.395 . S
C740 C743 1.403 . S
H741 C747 0.930 . S
C742 H728 0.930 . S
C742 C740 1.395 . S
C742 C745 1.403 . S
C743 C740 1.403 . S
C743 C744 1.524 . S
C743 C747 1.400 . S
C744 H729 0.960 . S
C744 H730 0.960 . S
C744 H731 0.960 . S
C744 C743 1.524 . S
C745 C742 1.403 . S
C745 C746 1.392 . S
C745 C749 1.495 . S
C746 C745 1.392 . S
C746 C747 1.385 . S
C746 C748 1.478 . S
C747 H741 0.930 . S
C747 C743 1.400 . S
C747 C746 1.385 . S
C748 C746 1.478 . S
C748 C750 1.381 . S
C748 C754 1.383 . S
C749 C745 1.495 . S
C749 H755 0.959 . S
C749 H756 0.961 . S
C749 H757 0.960 . S
C750 C748 1.381 . S
C750 C751 1.394 . S
C750 H758 0.930 . S
C751 C750 1.394 . S
C751 C752 1.383 . S
C751 H759 0.929 . S
C752 C751 1.383 . S
C752 C753 1.377 . S
C753 H737 0.930 . S
C753 C752 1.377 . S
C753 C754 1.379 . S
C754 H738 0.931 . S
C754 C748 1.383 . S
C754 C753 1.379 . S
H755 C749 0.959 . S
H756 C749 0.961 . S
H757 C749 0.960 . S
H758 C750 0.930 . S
H759 C751 0.929 . S
H760 C768 0.929 . S
H761 C770 0.930 . S
H762 C772 0.930 . S
H763 C775 0.929 . S
H764 C778 0.930 . S
H765 C780 0.960 . S
H766 C780 0.960 . S
H767 C780 0.960 . S
C768 H760 0.929 . S
C768 C769 1.377 . S
C768 C770 1.384 . S
C769 C768 1.377 . S
C769 C775 1.390 . S
C770 H761 0.930 . S
C770 C768 1.384 . S
C770 C771 1.372 . S
C771 C770 1.372 . S
C771 C772 1.400 . S
C771 C776 1.490 . S
C772 H762 0.930 . S
C772 C771 1.400 . S
C772 C775 1.386 . S
H773 C789 0.930 . S
H774 C790 0.931 . S
C775 H763 0.929 . S
C775 C769 1.390 . S
C775 C772 1.386 . S
C776 C771 1.490 . S
C776 C778 1.395 . S
C776 C779 1.403 . S
H777 C783 0.930 . S
C778 H764 0.930 . S
C778 C776 1.395 . S
C778 C781 1.403 . S
C779 C776 1.403 . S
C779 C780 1.524 . S
C779 C783 1.400 . S
C780 H765 0.960 . S
C780 H766 0.960 . S
C780 H767 0.960 . S
C780 C779 1.524 . S
C781 C778 1.403 . S
C781 C782 1.392 . S
C781 C785 1.495 . S
C782 C781 1.392 . S
C782 C783 1.385 . S
C782 C784 1.478 . S
C783 H777 0.930 . S
C783 C779 1.400 . S
C783 C782 1.385 . S
C784 C782 1.478 . S
C784 C786 1.381 . S
C784 C790 1.383 . S
C785 C781 1.495 . S
C785 H791 0.959 . S
C785 H792 0.961 . S
C785 H793 0.960 . S
C786 C784 1.381 . S
C786 C787 1.394 . S
C786 H794 0.930 . S
C787 C786 1.394 . S
C787 C788 1.383 . S
C787 H795 0.929 . S
C788 C787 1.383 . S
C788 C789 1.377 . S
C789 H773 0.930 . S
C789 C788 1.377 . S
C789 C790 1.379 . S
C790 H774 0.931 . S
C790 C784 1.383 . S
C790 C789 1.379 . S
H791 C785 0.959 . S
H792 C785 0.961 . S
H793 C785 0.960 . S
H794 C786 0.930 . S
H795 C787 0.929 . S
H796 C804 0.929 . S
H797 C806 0.930 . S
H798 C808 0.930 . S
H799 C811 0.929 . S
H800 C814 0.930 . S
H801 C816 0.960 . S
H802 C816 0.960 . S
H803 C816 0.960 . S
C804 H796 0.929 . S
C804 C805 1.377 . S
C804 C806 1.384 . S
C805 C804 1.377 . S
C805 C811 1.390 . S
C806 H797 0.930 . S
C806 C804 1.384 . S
C806 C807 1.372 . S
C807 C806 1.372 . S
C807 C808 1.400 . S
C807 C812 1.490 . S
C808 H798 0.930 . S
C808 C807 1.400 . S
C808 C811 1.386 . S
H809 C825 0.930 . S
H810 C826 0.931 . S
C811 H799 0.929 . S
C811 C805 1.390 . S
C811 C808 1.386 . S
C812 C807 1.490 . S
C812 C814 1.395 . S
C812 C815 1.403 . S
H813 C819 0.930 . S
C814 H800 0.930 . S
C814 C812 1.395 . S
C814 C817 1.403 . S
C815 C812 1.403 . S
C815 C816 1.524 . S
C815 C819 1.400 . S
C816 H801 0.960 . S
C816 H802 0.960 . S
C816 H803 0.960 . S
C816 C815 1.524 . S
C817 C814 1.403 . S
C817 C818 1.392 . S
C817 C821 1.495 . S
C818 C817 1.392 . S
C818 C819 1.385 . S
C818 C820 1.478 . S
C819 H813 0.930 . S
C819 C815 1.400 . S
C819 C818 1.385 . S
C820 C818 1.478 . S
C820 C822 1.381 . S
C820 C826 1.383 . S
C821 C817 1.495 . S
C821 H827 0.959 . S
C821 H828 0.961 . S
C821 H829 0.960 . S
C822 C820 1.381 . S
C822 C823 1.394 . S
C822 H830 0.930 . S
C823 C822 1.394 . S
C823 C824 1.383 . S
C823 H831 0.929 . S
C824 C823 1.383 . S
C824 C825 1.377 . S
C825 H809 0.930 . S
C825 C824 1.377 . S
C825 C826 1.379 . S
C826 H810 0.931 . S
C826 C820 1.383 . S
C826 C825 1.379 . S
H827 C821 0.959 . S
H828 C821 0.961 . S
H829 C821 0.960 . S
H830 C822 0.930 . S
H831 C823 0.929 . S
H832 C840 0.929 . S
H833 C842 0.930 . S
H834 C844 0.930 . S
H835 C847 0.929 . S
H836 C850 0.930 . S
H837 C852 0.960 . S
H838 C852 0.960 . S
H839 C852 0.960 . S
C840 H832 0.929 . S
C840 C841 1.377 . S
C840 C842 1.384 . S
C841 C840 1.377 . S
C841 C847 1.390 . S
C842 H833 0.930 . S
C842 C840 1.384 . S
C842 C843 1.372 . S
C843 C842 1.372 . S
C843 C844 1.400 . S
C843 C848 1.490 . S
C844 H834 0.930 . S
C844 C843 1.400 . S
C844 C847 1.386 . S
H845 C861 0.930 . S
H846 C862 0.931 . S
C847 H835 0.929 . S
C847 C841 1.390 . S
C847 C844 1.386 . S
C848 C843 1.490 . S
C848 C850 1.395 . S
C848 C851 1.403 . S
H849 C855 0.930 . S
C850 H836 0.930 . S
C850 C848 1.395 . S
C850 C853 1.403 . S
C851 C848 1.403 . S
C851 C852 1.524 . S
C851 C855 1.400 . S
C852 H837 0.960 . S
C852 H838 0.960 . S
C852 H839 0.960 . S
C852 C851 1.524 . S
C853 C850 1.403 . S
C853 C854 1.392 . S
C853 C857 1.495 . S
C854 C853 1.392 . S
C854 C855 1.385 . S
C854 C856 1.478 . S
C855 H849 0.930 . S
C855 C851 1.400 . S
C855 C854 1.385 . S
C856 C854 1.478 . S
C856 C858 1.381 . S
C856 C862 1.383 . S
C857 C853 1.495 . S
C857 H863 0.959 . S
C857 H864 0.961 . S
C857 H865 0.960 . S
C858 C856 1.381 . S
C858 C859 1.394 . S
C858 H866 0.930 . S
C859 C858 1.394 . S
C859 C860 1.383 . S
C859 H867 0.929 . S
C860 C859 1.383 . S
C860 C861 1.377 . S
C861 H845 0.930 . S
C861 C860 1.377 . S
C861 C862 1.379 . S
C862 H846 0.931 . S
C862 C856 1.383 . S
C862 C861 1.379 . S
H863 C857 0.959 . S
H864 C857 0.961 . S
H865 C857 0.960 . S
H866 C858 0.930 . S
H867 C859 0.929 . S
H868 C876 0.929 . S
H869 C878 0.930 . S
H870 C880 0.930 . S
H871 C883 0.929 . S
H872 C886 0.930 . S
H873 C888 0.960 . S
H874 C888 0.960 . S
H875 C888 0.960 . S
C876 H868 0.929 . S
C876 C877 1.377 . S
C876 C878 1.384 . S
C877 C876 1.377 . S
C877 C883 1.390 . S
C878 H869 0.930 . S
C878 C876 1.384 . S
C878 C879 1.372 . S
C879 C878 1.372 . S
C879 C880 1.400 . S
C879 C884 1.490 . S
C880 H870 0.930 . S
C880 C879 1.400 . S
C880 C883 1.386 . S
H881 C897 0.930 . S
H882 C898 0.931 . S
C883 H871 0.929 . S
C883 C877 1.390 . S
C883 C880 1.386 . S
C884 C879 1.490 . S
C884 C886 1.395 . S
C884 C887 1.403 . S
H885 C891 0.930 . S
C886 H872 0.930 . S
C886 C884 1.395 . S
C886 C889 1.403 . S
C887 C884 1.403 . S
C887 C888 1.524 . S
C887 C891 1.400 . S
C888 H873 0.960 . S
C888 H874 0.960 . S
C888 H875 0.960 . S
C888 C887 1.524 . S
C889 C886 1.403 . S
C889 C890 1.392 . S
C889 C893 1.495 . S
C890 C889 1.392 . S
C890 C891 1.385 . S
C890 C892 1.478 . S
C891 H885 0.930 . S
C891 C887 1.400 . S
C891 C890 1.385 . S
C892 C890 1.478 . S
C892 C894 1.381 . S
C892 C898 1.383 . S
C893 C889 1.495 . S
C893 H899 0.959 . S
C893 H900 0.961 . S
C893 H901 0.960 . S
C894 C892 1.381 . S
C894 C895 1.394 . S
C894 H902 0.930 . S
C895 C894 1.394 . S
C895 C896 1.383 . S
C895 H903 0.929 . S
C896 C895 1.383 . S
C896 C897 1.377 . S
C897 H881 0.930 . S
C897 C896 1.377 . S
C897 C898 1.379 . S
C898 H882 0.931 . S
C898 C892 1.383 . S
C898 C897 1.379 . S
H899 C893 0.959 . S
H900 C893 0.961 . S
H901 C893 0.960 . S
H902 C894 0.930 . S
H903 C895 0.929 . S
H904 C912 0.929 . S
H905 C914 0.930 . S
H906 C916 0.930 . S
H907 C919 0.929 . S
H908 C922 0.930 . S
H909 C924 0.960 . S
H910 C924 0.960 . S
H911 C924 0.960 . S
C912 H904 0.929 . S
C912 C913 1.377 . S
C912 C914 1.384 . S
C913 C912 1.377 . S
C913 C919 1.390 . S
C914 H905 0.930 . S
C914 C912 1.384 . S
C914 C915 1.372 . S
C915 C914 1.372 . S
C915 C916 1.400 . S
C915 C920 1.490 . S
C916 H906 0.930 . S
C916 C915 1.400 . S
C916 C919 1.386 . S
H917 C933 0.930 . S
H918 C934 0.931 . S
C919 H907 0.929 . S
C919 C913 1.390 . S
C919 C916 1.386 . S
C920 C915 1.490 . S
C920 C922 1.395 . S
C920 C923 1.403 . S
H921 C927 0.930 . S
C922 H908 0.930 . S
C922 C920 1.395 . S
C922 C925 1.403 . S
C923 C920 1.403 . S
C923 C924 1.524 . S
C923 C927 1.400 . S
C924 H909 0.960 . S
C924 H910 0.960 . S
C924 H911 0.960 . S
C924 C923 1.524 . S
C925 C922 1.403 . S
C925 C926 1.392 . S
C925 C929 1.495 . S
C926 C925 1.392 . S
C926 C927 1.385 . S
C926 C928 1.478 . S
C927 H921 0.930 . S
C927 C923 1.400 . S
C927 C926 1.385 . S
C928 C926 1.478 . S
C928 C930 1.381 . S
C928 C934 1.383 . S
C929 C925 1.495 . S
C929 H935 0.959 . S
C929 H936 0.961 . S
C929 H937 0.960 . S
C930 C928 1.381 . S
C930 C931 1.394 . S
C930 H938 0.930 . S
C931 C930 1.394 . S
C931 C932 1.383 . S
C931 H939 0.929 . S
C932 C931 1.383 . S
C932 C933 1.377 . S
C933 H917 0.930 . S
C933 C932 1.377 . S
C933 C934 1.379 . S
C934 H918 0.931 . S
C934 C928 1.383 . S
C934 C933 1.379 . S
H935 C929 0.959 . S
H936 C929 0.961 . S
H937 C929 0.960 . S
H938 C930 0.930 . S
H939 C931 0.929 . S
H940 C948 0.929 . S
H941 C950 0.930 . S
H942 C952 0.930 . S
H943 C955 0.929 . S
H944 C958 0.930 . S
H945 C960 0.960 . S
H946 C960 0.960 . S
H947 C960 0.960 . S
C948 H940 0.929 . S
C948 C949 1.377 . S
C948 C950 1.384 . S
C949 C948 1.377 . S
C949 C955 1.390 . S
C950 H941 0.930 . S
C950 C948 1.384 . S
C950 C951 1.372 . S
C951 C950 1.372 . S
C951 C952 1.400 . S
C951 C956 1.490 . S
C952 H942 0.930 . S
C952 C951 1.400 . S
C952 C955 1.386 . S
H953 C969 0.930 . S
H954 C970 0.931 . S
C955 H943 0.929 . S
C955 C949 1.390 . S
C955 C952 1.386 . S
C956 C951 1.490 . S
C956 C958 1.395 . S
C956 C959 1.403 . S
H957 C963 0.930 . S
C958 H944 0.930 . S
C958 C956 1.395 . S
C958 C961 1.403 . S
C959 C956 1.403 . S
C959 C960 1.524 . S
C959 C963 1.400 . S
C960 H945 0.960 . S
C960 H946 0.960 . S
C960 H947 0.960 . S
C960 C959 1.524 . S
C961 C958 1.403 . S
C961 C962 1.392 . S
C961 C965 1.495 . S
C962 C961 1.392 . S
C962 C963 1.385 . S
C962 C964 1.478 . S
C963 H957 0.930 . S
C963 C959 1.400 . S
C963 C962 1.385 . S
C964 C962 1.478 . S
C964 C966 1.381 . S
C964 C970 1.383 . S
C965 C961 1.495 . S
C965 H971 0.959 . S
C965 H972 0.961 . S
C965 H973 0.960 . S
C966 C964 1.381 . S
C966 C967 1.394 . S
C966 H974 0.930 . S
C967 C966 1.394 . S
C967 C968 1.383 . S
C967 H975 0.929 . S
C968 C967 1.383 . S
C968 C969 1.377 . S
C969 H953 0.930 . S
C969 C968 1.377 . S
C969 C970 1.379 . S
C970 H954 0.931 . S
C970 C964 1.383 . S
C970 C969 1.379 . S
H971 C965 0.959 . S
H972 C965 0.961 . S
H973 C965 0.960 . S
H974 C966 0.930 . S
H975 C967 0.929 . S
H976 C984 0.929 . S
H977 C986 0.930 . S
H978 C988 0.930 . S
H979 C991 0.929 . S
H980 C994 0.930 . S
H981 C996 0.960 . S
H982 C996 0.960 . S
H983 C996 0.960 . S
C984 H976 0.929 . S
C984 C985 1.377 . S
C984 C986 1.384 . S
C985 C984 1.377 . S
C985 C991 1.390 . S
C986 H977 0.930 . S
C986 C984 1.384 . S
C986 C987 1.372 . S
C987 C986 1.372 . S
C987 C988 1.400 . S
C987 C992 1.490 . S
C988 H978 0.930 . S
C988 C987 1.400 . S
C988 C991 1.386 . S
H989 C1005 0.930 . S
H990 C1006 0.931 . S
C991 H979 0.929 . S
C991 C985 1.390 . S
C991 C988 1.386 . S
C992 C987 1.490 . S
C992 C994 1.395 . S
C992 C995 1.403 . S
H993 C999 0.930 . S
C994 H980 0.930 . S
C994 C992 1.395 . S
C994 C997 1.403 . S
C995 C992 1.403 . S
C995 C996 1.524 . S
C995 C999 1.400 . S
C996 H981 0.960 . S
C996 H982 0.960 . S
C996 H983 0.960 . S
C996 C995 1.524 . S
C997 C994 1.403 . S
C997 C998 1.392 . S
C997 C1001 1.495 . S
C998 C997 1.392 . S
C998 C999 1.385 . S
C998 C1000 1.478 . S
C999 H993 0.930 . S
C999 C995 1.400 . S
C999 C998 1.385 . S
C1000 C998 1.478 . S
C1000 C1002 1.381 . S
C1000 C1006 1.383 . S
C1001 C997 1.495 . S
C1001 H1007 0.959 . S
C1001 H1008 0.961 . S
C1001 H1009 0.960 . S
C1002 C1000 1.381 . S
C1002 C1003 1.394 . S
C1002 H1010 0.930 . S
C1003 C1002 1.394 . S
C1003 C1004 1.383 . S
C1003 H1011 0.929 . S
C1004 C1003 1.383 . S
C1004 C1005 1.377 . S
C1005 H989 0.930 . S
C1005 C1004 1.377 . S
C1005 C1006 1.379 . S
C1006 H990 0.931 . S
C1006 C1000 1.383 . S
C1006 C1005 1.379 . S
H1007 C1001 0.959 . S
H1008 C1001 0.961 . S
H1009 C1001 0.960 . S
H1010 C1002 0.930 . S
H1011 C1003 0.929 . S
H1012 C1020 0.929 . S
H1013 C1022 0.930 . S
H1014 C1024 0.930 . S
H1015 C1027 0.929 . S
H1016 C1030 0.930 . S
H1017 C1032 0.960 . S
H1018 C1032 0.960 . S
H1019 C1032 0.960 . S
C1020 H1012 0.929 . S
C1020 C1021 1.377 . S
C1020 C1022 1.384 . S
C1021 C1020 1.377 . S
C1021 C1027 1.390 . S
C1022 H1013 0.930 . S
C1022 C1020 1.384 . S
C1022 C1023 1.372 . S
C1023 C1022 1.372 . S
C1023 C1024 1.400 . S
C1023 C1028 1.490 . S
C1024 H1014 0.930 . S
C1024 C1023 1.400 . S
C1024 C1027 1.386 . S
H1025 C1041 0.930 . S
H1026 C1042 0.931 . S
C1027 H1015 0.929 . S
C1027 C1021 1.390 . S
C1027 C1024 1.386 . S
C1028 C1023 1.490 . S
C1028 C1030 1.395 . S
C1028 C1031 1.403 . S
H1029 C1035 0.930 . S
C1030 H1016 0.930 . S
C1030 C1028 1.395 . S
C1030 C1033 1.403 . S
C1031 C1028 1.403 . S
C1031 C1032 1.524 . S
C1031 C1035 1.400 . S
C1032 H1017 0.960 . S
C1032 H1018 0.960 . S
C1032 H1019 0.960 . S
C1032 C1031 1.524 . S
C1033 C1030 1.403 . S
C1033 C1034 1.392 . S
C1033 C1037 1.495 . S
C1034 C1033 1.392 . S
C1034 C1035 1.385 . S
C1034 C1036 1.478 . S
C1035 H1029 0.930 . S
C1035 C1031 1.400 . S
C1035 C1034 1.385 . S
C1036 C1034 1.478 . S
C1036 C1038 1.381 . S
C1036 C1042 1.383 . S
C1037 C1033 1.495 . S
C1037 H1043 0.959 . S
C1037 H1044 0.961 . S
C1037 H1045 0.960 . S
C1038 C1036 1.381 . S
C1038 C1039 1.394 . S
C1038 H1046 0.930 . S
C1039 C1038 1.394 . S
C1039 C1040 1.383 . S
C1039 H1047 0.929 . S
C1040 C1039 1.383 . S
C1040 C1041 1.377 . S
C1041 H1025 0.930 . S
C1041 C1040 1.377 . S
C1041 C1042 1.379 . S
C1042 H1026 0.931 . S
C1042 C1036 1.383 . S
C1042 C1041 1.379 . S
H1043 C1037 0.959 . S
H1044 C1037 0.961 . S
H1045 C1037 0.960 . S
H1046 C1038 0.930 . S
H1047 C1039 0.929 . S
H1048 C1056 0.929 . S
H1049 C1058 0.930 . S
H1050 C1060 0.930 . S
H1051 C1063 0.929 . S
H1052 C1066 0.930 . S
H1053 C1068 0.960 . S
H1054 C1068 0.960 . S
H1055 C1068 0.960 . S
C1056 H1048 0.929 . S
C1056 C1057 1.377 . S
C1056 C1058 1.384 . S
C1057 C1056 1.377 . S
C1057 C1063 1.390 . S
C1058 H1049 0.930 . S
C1058 C1056 1.384 . S
C1058 C1059 1.372 . S
C1059 C1058 1.372 . S
C1059 C1060 1.400 . S
C1059 C1064 1.490 . S
C1060 H1050 0.930 . S
C1060 C1059 1.400 . S
C1060 C1063 1.386 . S
H1061 C1077 0.930 . S
H1062 C1078 0.931 . S
C1063 H1051 0.929 . S
C1063 C1057 1.390 . S
C1063 C1060 1.386 . S
C1064 C1059 1.490 . S
C1064 C1066 1.395 . S
C1064 C1067 1.403 . S
H1065 C1071 0.930 . S
C1066 H1052 0.930 . S
C1066 C1064 1.395 . S
C1066 C1069 1.403 . S
C1067 C1064 1.403 . S
C1067 C1068 1.524 . S
C1067 C1071 1.400 . S
C1068 H1053 0.960 . S
C1068 H1054 0.960 . S
C1068 H1055 0.960 . S
C1068 C1067 1.524 . S
C1069 C1066 1.403 . S
C1069 C1070 1.392 . S
C1069 C1073 1.495 . S
C1070 C1069 1.392 . S
C1070 C1071 1.385 . S
C1070 C1072 1.478 . S
C1071 H1065 0.930 . S
C1071 C1067 1.400 . S
C1071 C1070 1.385 . S
C1072 C1070 1.478 . S
C1072 C1074 1.381 . S
C1072 C1078 1.383 . S
C1073 C1069 1.495 . S
C1073 H1079 0.959 . S
C1073 H1080 0.961 . S
C1073 H1081 0.960 . S
C1074 C1072 1.381 . S
C1074 C1075 1.394 . S
C1074 H1082 0.930 . S
C1075 C1074 1.394 . S
C1075 C1076 1.383 . S
C1075 H1083 0.929 . S
C1076 C1075 1.383 . S
C1076 C1077 1.377 . S
C1077 H1061 0.930 . S
C1077 C1076 1.377 . S
C1077 C1078 1.379 . S
C1078 H1062 0.931 . S
C1078 C1072 1.383 . S
C1078 C1077 1.379 . S
H1079 C1073 0.959 . S
H1080 C1073 0.961 . S
H1081 C1073 0.960 . S
H1082 C1074 0.930 . S
H1083 C1075 0.929 . S
H1084 C1092 0.929 . S
H1085 C1094 0.930 . S
H1086 C1096 0.930 . S
H1087 C1099 0.929 . S
H1088 C1102 0.930 . S
H1089 C1104 0.960 . S
H1090 C1104 0.960 . S
H1091 C1104 0.960 . S
C1092 H1084 0.929 . S
C1092 C1093 1.377 . S
C1092 C1094 1.384 . S
C1093 C1092 1.377 . S
C1093 C1099 1.390 . S
C1094 H1085 0.930 . S
C1094 C1092 1.384 . S
C1094 C1095 1.372 . S
C1095 C1094 1.372 . S
C1095 C1096 1.400 . S
C1095 C1100 1.490 . S
C1096 H1086 0.930 . S
C1096 C1095 1.400 . S
C1096 C1099 1.386 . S
H1097 C1113 0.930 . S
H1098 C1114 0.931 . S
C1099 H1087 0.929 . S
C1099 C1093 1.390 . S
C1099 C1096 1.386 . S
C1100 C1095 1.490 . S
C1100 C1102 1.395 . S
C1100 C1103 1.403 . S
H1101 C1107 0.930 . S
C1102 H1088 0.930 . S
C1102 C1100 1.395 . S
C1102 C1105 1.403 . S
C1103 C1100 1.403 . S
C1103 C1104 1.524 . S
C1103 C1107 1.400 . S
C1104 H1089 0.960 . S
C1104 H1090 0.960 . S
C1104 H1091 0.960 . S
C1104 C1103 1.524 . S
C1105 C1102 1.403 . S
C1105 C1106 1.392 . S
C1105 C1109 1.495 . S
C1106 C1105 1.392 . S
C1106 C1107 1.385 . S
C1106 C1108 1.478 . S
C1107 H1101 0.930 . S
C1107 C1103 1.400 . S
C1107 C1106 1.385 . S
C1108 C1106 1.478 . S
C1108 C1110 1.381 . S
C1108 C1114 1.383 . S
C1109 C1105 1.495 . S
C1109 H1115 0.959 . S
C1109 H1116 0.961 . S
C1109 H1117 0.960 . S
C1110 C1108 1.381 . S
C1110 C1111 1.394 . S
C1110 H1118 0.930 . S
C1111 C1110 1.394 . S
C1111 C1112 1.383 . S
C1111 H1119 0.929 . S
C1112 C1111 1.383 . S
C1112 C1113 1.377 . S
C1113 H1097 0.930 . S
C1113 C1112 1.377 . S
C1113 C1114 1.379 . S
C1114 H1098 0.931 . S
C1114 C1108 1.383 . S
C1114 C1113 1.379 . S
H1115 C1109 0.959 . S
H1116 C1109 0.961 . S
H1117 C1109 0.960 . S
H1118 C1110 0.930 . S
H1119 C1111 0.929 . S
H1120 C1128 0.929 . S
H1121 C1130 0.930 . S
H1122 C1132 0.930 . S
H1123 C1135 0.929 . S
H1124 C1138 0.930 . S
H1125 C1140 0.960 . S
H1126 C1140 0.960 . S
H1127 C1140 0.960 . S
C1128 H1120 0.929 . S
C1128 C1129 1.377 . S
C1128 C1130 1.384 . S
C1129 C1128 1.377 . S
C1129 C1135 1.390 . S
C1130 H1121 0.930 . S
C1130 C1128 1.384 . S
C1130 C1131 1.372 . S
C1131 C1130 1.372 . S
C1131 C1132 1.400 . S
C1131 C1136 1.490 . S
C1132 H1122 0.930 . S
C1132 C1131 1.400 . S
C1132 C1135 1.386 . S
H1133 C1149 0.930 . S
H1134 C1150 0.931 . S
C1135 H1123 0.929 . S
C1135 C1129 1.390 . S
C1135 C1132 1.386 . S
C1136 C1131 1.490 . S
C1136 C1138 1.395 . S
C1136 C1139 1.403 . S
H1137 C1143 0.930 . S
C1138 H1124 0.930 . S
C1138 C1136 1.395 . S
C1138 C1141 1.403 . S
C1139 C1136 1.403 . S
C1139 C1140 1.524 . S
C1139 C1143 1.400 . S
C1140 H1125 0.960 . S
C1140 H1126 0.960 . S
C1140 H1127 0.960 . S
C1140 C1139 1.524 . S
C1141 C1138 1.403 . S
C1141 C1142 1.392 . S
C1141 C1145 1.495 . S
C1142 C1141 1.392 . S
C1142 C1143 1.385 . S
C1142 C1144 1.478 . S
C1143 H1137 0.930 . S
C1143 C1139 1.400 . S
C1143 C1142 1.385 . S
C1144 C1142 1.478 . S
C1144 C1146 1.381 . S
C1144 C1150 1.383 . S
C1145 C1141 1.495 . S
C1145 H1151 0.959 . S
C1145 H1152 0.961 . S
C1145 H1153 0.960 . S
C1146 C1144 1.381 . S
C1146 C1147 1.394 . S
C1146 H1154 0.930 . S
C1147 C1146 1.394 . S
C1147 C1148 1.383 . S
C1147 H1155 0.929 . S
C1148 C1147 1.383 . S
C1148 C1149 1.377 . S
C1149 H1133 0.930 . S
C1149 C1148 1.377 . S
C1149 C1150 1.379 . S
C1150 H1134 0.931 . S
C1150 C1144 1.383 . S
C1150 C1149 1.379 . S
H1151 C1145 0.959 . S
H1152 C1145 0.961 . S
H1153 C1145 0.960 . S
H1154 C1146 0.930 . S
H1155 C1147 0.929 . S
H1156 C1164 0.929 . S
H1157 C1166 0.930 . S
H1158 C1168 0.930 . S
H1159 C1171 0.929 . S
H1160 C1174 0.930 . S
H1161 C1176 0.960 . S
H1162 C1176 0.960 . S
H1163 C1176 0.960 . S
C1164 H1156 0.929 . S
C1164 C1165 1.377 . S
C1164 C1166 1.384 . S
C1165 C1164 1.377 . S
C1165 C1171 1.390 . S
C1166 H1157 0.930 . S
C1166 C1164 1.384 . S
C1166 C1167 1.372 . S
C1167 C1166 1.372 . S
C1167 C1168 1.400 . S
C1167 C1172 1.490 . S
C1168 H1158 0.930 . S
C1168 C1167 1.400 . S
C1168 C1171 1.386 . S
H1169 C1185 0.930 . S
H1170 C1186 0.931 . S
C1171 H1159 0.929 . S
C1171 C1165 1.390 . S
C1171 C1168 1.386 . S
C1172 C1167 1.490 . S
C1172 C1174 1.395 . S
C1172 C1175 1.403 . S
H1173 C1179 0.930 . S
C1174 H1160 0.930 . S
C1174 C1172 1.395 . S
C1174 C1177 1.403 . S
C1175 C1172 1.403 . S
C1175 C1176 1.524 . S
C1175 C1179 1.400 . S
C1176 H1161 0.960 . S
C1176 H1162 0.960 . S
C1176 H1163 0.960 . S
C1176 C1175 1.524 . S
C1177 C1174 1.403 . S
C1177 C1178 1.392 . S
C1177 C1181 1.495 . S
C1178 C1177 1.392 . S
C1178 C1179 1.385 . S
C1178 C1180 1.478 . S
C1179 H1173 0.930 . S
C1179 C1175 1.400 . S
C1179 C1178 1.385 . S
C1180 C1178 1.478 . S
C1180 C1182 1.381 . S
C1180 C1186 1.383 . S
C1181 C1177 1.495 . S
C1181 H1187 0.959 . S
C1181 H1188 0.961 . S
C1181 H1189 0.960 . S
C1182 C1180 1.381 . S
C1182 C1183 1.394 . S
C1182 H1190 0.930 . S
C1183 C1182 1.394 . S
C1183 C1184 1.383 . S
C1183 H1191 0.929 . S
C1184 C1183 1.383 . S
C1184 C1185 1.377 . S
C1185 H1169 0.930 . S
C1185 C1184 1.377 . S
C1185 C1186 1.379 . S
C1186 H1170 0.931 . S
C1186 C1180 1.383 . S
C1186 C1185 1.379 . S
H1187 C1181 0.959 . S
H1188 C1181 0.961 . S
H1189 C1181 0.960 . S
H1190 C1182 0.930 . S
H1191 C1183 0.929 . S
H1192 C1200 0.929 . S
H1193 C1202 0.930 . S
H1194 C1204 0.930 . S
H1195 C1207 0.929 . S
H1196 C1210 0.930 . S
H1197 C1212 0.960 . S
H1198 C1212 0.960 . S
H1199 C1212 0.960 . S
C1200 H1192 0.929 . S
C1200 C1201 1.377 . S
C1200 C1202 1.384 . S
C1201 C1200 1.377 . S
C1201 C1207 1.390 . S
C1202 H1193 0.930 . S
C1202 C1200 1.384 . S
C1202 C1203 1.372 . S
C1203 C1202 1.372 . S
C1203 C1204 1.400 . S
C1203 C1208 1.490 . S
C1204 H1194 0.930 . S
C1204 C1203 1.400 . S
C1204 C1207 1.386 . S
H1205 C1221 0.930 . S
H1206 C1222 0.931 . S
C1207 H1195 0.929 . S
C1207 C1201 1.390 . S
C1207 C1204 1.386 . S
C1208 C1203 1.490 . S
C1208 C1210 1.395 . S
C1208 C1211 1.403 . S
H1209 C1215 0.930 . S
C1210 H1196 0.930 . S
C1210 C1208 1.395 . S
C1210 C1213 1.403 . S
C1211 C1208 1.403 . S
C1211 C1212 1.524 . S
C1211 C1215 1.400 . S
C1212 H1197 0.960 . S
C1212 H1198 0.960 . S
C1212 H1199 0.960 . S
C1212 C1211 1.524 . S
C1213 C1210 1.403 . S
C1213 C1214 1.392 . S
C1213 C1217 1.495 . S
C1214 C1213 1.392 . S
C1214 C1215 1.385 . S
C1214 C1216 1.478 . S
C1215 H1209 0.930 . S
C1215 C1211 1.400 . S
C1215 C1214 1.385 . S
C1216 C1214 1.478 . S
C1216 C1218 1.381 . S
C1216 C1222 1.383 . S
C1217 C1213 1.495 . S
C1217 H1223 0.959 . S
C1217 H1224 0.961 . S
C1217 H1225 0.960 . S
C1218 C1216 1.381 . S
C1218 C1219 1.394 . S
C1218 H1226 0.930 . S
C1219 C1218 1.394 . S
C1219 C1220 1.383 . S
C1219 H1227 0.929 . S
C1220 C1219 1.383 . S
C1220 C1221 1.377 . S
C1221 H1205 0.930 . S
C1221 C1220 1.377 . S
C1221 C1222 1.379 . S
C1222 H1206 0.931 . S
C1222 C1216 1.383 . S
C1222 C1221 1.379 . S
H1223 C1217 0.959 . S
H1224 C1217 0.961 . S
H1225 C1217 0.960 . S
H1226 C1218 0.930 . S
H1227 C1219 0.929 . S
H1228 C1236 0.929 . S
H1229 C1238 0.930 . S
H1230 C1240 0.930 . S
H1231 C1243 0.929 . S
H1232 C1246 0.930 . S
H1233 C1248 0.960 . S
H1234 C1248 0.960 . S
H1235 C1248 0.960 . S
C1236 H1228 0.929 . S
C1236 C1237 1.377 . S
C1236 C1238 1.384 . S
C1237 C1236 1.377 . S
C1237 C1243 1.390 . S
C1238 H1229 0.930 . S
C1238 C1236 1.384 . S
C1238 C1239 1.372 . S
C1239 C1238 1.372 . S
C1239 C1240 1.400 . S
C1239 C1244 1.490 . S
C1240 H1230 0.930 . S
C1240 C1239 1.400 . S
C1240 C1243 1.386 . S
H1241 C1257 0.930 . S
H1242 C1258 0.931 . S
C1243 H1231 0.929 . S
C1243 C1237 1.390 . S
C1243 C1240 1.386 . S
C1244 C1239 1.490 . S
C1244 C1246 1.395 . S
C1244 C1247 1.403 . S
H1245 C1251 0.930 . S
C1246 H1232 0.930 . S
C1246 C1244 1.395 . S
C1246 C1249 1.403 . S
C1247 C1244 1.403 . S
C1247 C1248 1.524 . S
C1247 C1251 1.400 . S
C1248 H1233 0.960 . S
C1248 H1234 0.960 . S
C1248 H1235 0.960 . S
C1248 C1247 1.524 . S
C1249 C1246 1.403 . S
C1249 C1250 1.392 . S
C1249 C1253 1.495 . S
C1250 C1249 1.392 . S
C1250 C1251 1.385 . S
C1250 C1252 1.478 . S
C1251 H1245 0.930 . S
C1251 C1247 1.400 . S
C1251 C1250 1.385 . S
C1252 C1250 1.478 . S
C1252 C1254 1.381 . S
C1252 C1258 1.383 . S
C1253 C1249 1.495 . S
C1253 H1259 0.959 . S
C1253 H1260 0.961 . S
C1253 H1261 0.960 . S
C1254 C1252 1.381 . S
C1254 C1255 1.394 . S
C1254 H1262 0.930 . S
C1255 C1254 1.394 . S
C1255 C1256 1.383 . S
C1255 H1263 0.929 . S
C1256 C1255 1.383 . S
C1256 C1257 1.377 . S
C1257 H1241 0.930 . S
C1257 C1256 1.377 . S
C1257 C1258 1.379 . S
C1258 H1242 0.931 . S
C1258 C1252 1.383 . S
C1258 C1257 1.379 . S
H1259 C1253 0.959 . S
H1260 C1253 0.961 . S
H1261 C1253 0.960 . S
H1262 C1254 0.930 . S
H1263 C1255 0.929 . S
H1264 C1272 0.929 . S
H1265 C1274 0.930 . S
H1266 C1276 0.930 . S
H1267 C1279 0.929 . S
H1268 C1282 0.930 . S
H1269 C1284 0.960 . S
H1270 C1284 0.960 . S
H1271 C1284 0.960 . S
C1272 H1264 0.929 . S
C1272 C1273 1.377 . S
C1272 C1274 1.384 . S
C1273 C1272 1.377 . S
C1273 C1279 1.390 . S
C1274 H1265 0.930 . S
C1274 C1272 1.384 . S
C1274 C1275 1.372 . S
C1275 C1274 1.372 . S
C1275 C1276 1.400 . S
C1275 C1280 1.490 . S
C1276 H1266 0.930 . S
C1276 C1275 1.400 . S
C1276 C1279 1.386 . S
H1277 C1293 0.930 . S
H1278 C1294 0.931 . S
C1279 H1267 0.929 . S
C1279 C1273 1.390 . S
C1279 C1276 1.386 . S
C1280 C1275 1.490 . S
C1280 C1282 1.395 . S
C1280 C1283 1.403 . S
H1281 C1287 0.930 . S
C1282 H1268 0.930 . S
C1282 C1280 1.395 . S
C1282 C1285 1.403 . S
C1283 C1280 1.403 . S
C1283 C1284 1.524 . S
C1283 C1287 1.400 . S
C1284 H1269 0.960 . S
C1284 H1270 0.960 . S
C1284 H1271 0.960 . S
C1284 C1283 1.524 . S
C1285 C1282 1.403 . S
C1285 C1286 1.392 . S
C1285 C1289 1.495 . S
C1286 C1285 1.392 . S
C1286 C1287 1.385 . S
C1286 C1288 1.478 . S
C1287 H1281 0.930 . S
C1287 C1283 1.400 . S
C1287 C1286 1.385 . S
C1288 C1286 1.478 . S
C1288 C1290 1.381 . S
C1288 C1294 1.383 . S
C1289 C1285 1.495 . S
C1289 H1295 0.959 . S
C1289 H1296 0.961 . S
C1289 H1297 0.960 . S
C1290 C1288 1.381 . S
C1290 C1291 1.394 . S
C1290 H1298 0.930 . S
C1291 C1290 1.394 . S
C1291 C1292 1.383 . S
C1291 H1299 0.929 . S
C1292 C1291 1.383 . S
C1292 C1293 1.377 . S
C1293 H1277 0.930 . S
C1293 C1292 1.377 . S
C1293 C1294 1.379 . S
C1294 H1278 0.931 . S
C1294 C1288 1.383 . S
C1294 C1293 1.379 . S
H1295 C1289 0.959 . S
H1296 C1289 0.961 . S
H1297 C1289 0.960 . S
H1298 C1290 0.930 . S
H1299 C1291 0.929 . S
H1300 C1308 0.929 . S
H1301 C1310 0.930 . S
H1302 C1312 0.930 . S
H1303 C1315 0.929 . S
H1304 C1318 0.930 . S
H1305 C1320 0.960 . S
H1306 C1320 0.960 . S
H1307 C1320 0.960 . S
C1308 H1300 0.929 . S
C1308 C1309 1.377 . S
C1308 C1310 1.384 . S
C1309 C1308 1.377 . S
C1309 C1315 1.390 . S
C1310 H1301 0.930 . S
C1310 C1308 1.384 . S
C1310 C1311 1.372 . S
C1311 C1310 1.372 . S
C1311 C1312 1.400 . S
C1311 C1316 1.490 . S
C1312 H1302 0.930 . S
C1312 C1311 1.400 . S
C1312 C1315 1.386 . S
H1313 C1329 0.930 . S
H1314 C1330 0.931 . S
C1315 H1303 0.929 . S
C1315 C1309 1.390 . S
C1315 C1312 1.386 . S
C1316 C1311 1.490 . S
C1316 C1318 1.395 . S
C1316 C1319 1.403 . S
H1317 C1323 0.930 . S
C1318 H1304 0.930 . S
C1318 C1316 1.395 . S
C1318 C1321 1.403 . S
C1319 C1316 1.403 . S
C1319 C1320 1.524 . S
C1319 C1323 1.400 . S
C1320 H1305 0.960 . S
C1320 H1306 0.960 . S
C1320 H1307 0.960 . S
C1320 C1319 1.524 . S
C1321 C1318 1.403 . S
C1321 C1322 1.392 . S
C1321 C1325 1.495 . S
C1322 C1321 1.392 . S
C1322 C1323 1.385 . S
C1322 C1324 1.478 . S
C1323 H1317 0.930 . S
C1323 C1319 1.400 . S
C1323 C1322 1.385 . S
C1324 C1322 1.478 . S
C1324 C1326 1.381 . S
C1324 C1330 1.383 . S
C1325 C1321 1.495 . S
C1325 H1331 0.959 . S
C1325 H1332 0.961 . S
C1325 H1333 0.960 . S
C1326 C1324 1.381 . S
C1326 C1327 1.394 . S
C1326 H1334 0.930 . S
C1327 C1326 1.394 . S
C1327 C1328 1.383 . S
C1327 H1335 0.929 . S
C1328 C1327 1.383 . S
C1328 C1329 1.377 . S
C1329 H1313 0.930 . S
C1329 C1328 1.377 . S
C1329 C1330 1.379 . S
C1330 H1314 0.931 . S
C1330 C1324 1.383 . S
C1330 C1329 1.379 . S
H1331 C1325 0.959 . S
H1332 C1325 0.961 . S
H1333 C1325 0.960 . S
H1334 C1326 0.930 . S
H1335 C1327 0.929 . S
H1336 C1344 0.929 . S
H1337 C1346 0.930 . S
H1338 C1348 0.930 . S
H1339 C1351 0.929 . S
H1340 C1354 0.930 . S
H1341 C1356 0.960 . S
H1342 C1356 0.960 . S
H1343 C1356 0.960 . S
C1344 H1336 0.929 . S
C1344 C1345 1.377 . S
C1344 C1346 1.384 . S
C1345 C1344 1.377 . S
C1345 C1351 1.390 . S
C1346 H1337 0.930 . S
C1346 C1344 1.384 . S
C1346 C1347 1.372 . S
C1347 C1346 1.372 . S
C1347 C1348 1.400 . S
C1347 C1352 1.490 . S
C1348 H1338 0.930 . S
C1348 C1347 1.400 . S
C1348 C1351 1.386 . S
H1349 C1365 0.930 . S
H1350 C1366 0.931 . S
C1351 H1339 0.929 . S
C1351 C1345 1.390 . S
C1351 C1348 1.386 . S
C1352 C1347 1.490 . S
C1352 C1354 1.395 . S
C1352 C1355 1.403 . S
H1353 C1359 0.930 . S
C1354 H1340 0.930 . S
C1354 C1352 1.395 . S
C1354 C1357 1.403 . S
C1355 C1352 1.403 . S
C1355 C1356 1.524 . S
C1355 C1359 1.400 . S
C1356 H1341 0.960 . S
C1356 H1342 0.960 . S
C1356 H1343 0.960 . S
C1356 C1355 1.524 . S
C1357 C1354 1.403 . S
C1357 C1358 1.392 . S
C1357 C1361 1.495 . S
C1358 C1357 1.392 . S
C1358 C1359 1.385 . S
C1358 C1360 1.478 . S
C1359 H1353 0.930 . S
C1359 C1355 1.400 . S
C1359 C1358 1.385 . S
C1360 C1358 1.478 . S
C1360 C1362 1.381 . S
C1360 C1366 1.383 . S
C1361 C1357 1.495 . S
C1361 H1367 0.959 . S
C1361 H1368 0.961 . S
C1361 H1369 0.960 . S
C1362 C1360 1.381 . S
C1362 C1363 1.394 . S
C1362 H1370 0.930 . S
C1363 C1362 1.394 . S
C1363 C1364 1.383 . S
C1363 H1371 0.929 . S
C1364 C1363 1.383 . S
C1364 C1365 1.377 . S
C1365 H1349 0.930 . S
C1365 C1364 1.377 . S
C1365 C1366 1.379 . S
C1366 H1350 0.931 . S
C1366 C1360 1.383 . S
C1366 C1365 1.379 . S
H1367 C1361 0.959 . S
H1368 C1361 0.961 . S
H1369 C1361 0.960 . S
H1370 C1362 0.930 . S
H1371 C1363 0.929 . S
H1372 C1380 0.929 . S
H1373 C1382 0.930 . S
H1374 C1384 0.930 . S
H1375 C1387 0.929 . S
H1376 C1390 0.930 . S
H1377 C1392 0.960 . S
H1378 C1392 0.960 . S
H1379 C1392 0.960 . S
C1380 H1372 0.929 . S
C1380 C1381 1.377 . S
C1380 C1382 1.384 . S
C1381 C1380 1.377 . S
C1381 C1387 1.390 . S
C1382 H1373 0.930 . S
C1382 C1380 1.384 . S
C1382 C1383 1.372 . S
C1383 C1382 1.372 . S
C1383 C1384 1.400 . S
C1383 C1388 1.490 . S
C1384 H1374 0.930 . S
C1384 C1383 1.400 . S
C1384 C1387 1.386 . S
H1385 C1401 0.930 . S
H1386 C1402 0.931 . S
C1387 H1375 0.929 . S
C1387 C1381 1.390 . S
C1387 C1384 1.386 . S
C1388 C1383 1.490 . S
C1388 C1390 1.395 . S
C1388 C1391 1.403 . S
H1389 C1395 0.930 . S
C1390 H1376 0.930 . S
C1390 C1388 1.395 . S
C1390 C1393 1.403 . S
C1391 C1388 1.403 . S
C1391 C1392 1.524 . S
C1391 C1395 1.400 . S
C1392 H1377 0.960 . S
C1392 H1378 0.960 . S
C1392 H1379 0.960 . S
C1392 C1391 1.524 . S
C1393 C1390 1.403 . S
C1393 C1394 1.392 . S
C1393 C1397 1.495 . S
C1394 C1393 1.392 . S
C1394 C1395 1.385 . S
C1394 C1396 1.478 . S
C1395 H1389 0.930 . S
C1395 C1391 1.400 . S
C1395 C1394 1.385 . S
C1396 C1394 1.478 . S
C1396 C1398 1.381 . S
C1396 C1402 1.383 . S
C1397 C1393 1.495 . S
C1397 H1403 0.959 . S
C1397 H1404 0.961 . S
C1397 H1405 0.960 . S
C1398 C1396 1.381 . S
C1398 C1399 1.394 . S
C1398 H1406 0.930 . S
C1399 C1398 1.394 . S
C1399 C1400 1.383 . S
C1399 H1407 0.929 . S
C1400 C1399 1.383 . S
C1400 C1401 1.377 . S
C1401 H1385 0.930 . S
C1401 C1400 1.377 . S
C1401 C1402 1.379 . S
C1402 H1386 0.931 . S
C1402 C1396 1.383 . S
C1402 C1401 1.379 . S
H1403 C1397 0.959 . S
H1404 C1397 0.961 . S
H1405 C1397 0.960 . S
H1406 C1398 0.930 . S
H1407 C1399 0.929 . S
C284 C145 1.497 . S
C265 C7 1.443 . S
C320 C171 1.501 . S
C301 C32 1.457 . S
C356 C185 1.496 . S
C337 C44 1.443 . S
C392 C187 1.500 . S
C373 C62 1.443 . S
C409 C88 1.448 . S
C428 C184 1.507 . S
C464 C186 1.494 . S
C445 C106 1.446 . S
C500 C144 1.498 . S
C481 C124 1.441 . S
C536 C170 1.498 . S
C517 C140 1.451 . S
C572 C172 1.507 . S
C553 C142 1.451 . S
C608 C198 1.496 . S
C589 C86 1.443 . S
C644 C156 1.508 . S
C625 C104 1.455 . S
C680 C158 1.502 . S
C661 C122 1.449 . S
C716 C157 1.495 . S
C697 C34 1.443 . S
C752 C159 1.501 . S
C733 C43 1.451 . S
C788 C173 1.493 . S
C769 C61 1.442 . S
C824 C199 1.493 . S
C805 C8 1.448 . S
C860 C201 1.501 . S
C841 C133 1.452 . S
C877 C80 1.454 . S
C896 C227 1.496 . S
C913 C98 1.444 . S
C932 C240 1.500 . S
C949 C116 1.447 . S
C968 C243 1.502 . S
C985 C25 1.450 . S
C1004 C241 1.504 . S
C1021 C52 1.449 . S
C1040 C242 1.496 . S
C1057 C70 1.444 . S
C1076 C200 1.497 . S
C1112 C226 1.509 . S
C1093 C14 1.454 . S
C1148 C229 1.500 . S
C1129 C16 1.442 . S
C1165 C26 1.443 . S
C1184 C254 1.492 . S
C1201 C50 1.457 . S
C1220 C212 1.505 . S
C1237 C68 1.448 . S
C1256 C214 1.500 . S
C1292 C213 1.506 . S
C1273 C79 1.454 . S
C1328 C215 1.506 . S
C1309 C97 1.453 . S
C1345 C115 1.440 . S
C1364 C228 1.495 . S
C1400 C255 1.499 . S
C1381 C134 1.453 . S
