# Generated by pormake.
# Topology pyr, (3,6)-cn, num edge types: 1
# Building blocks:
#     Node 0, Type 0, BuildingBlock: ESEHIV_clean_linker_0, # of connection points: 3
#     Node 1, Type 0, BuildingBlock: ESEHIV_clean_linker_0, # of connection points: 3
#     Node 2, Type 0, BuildingBlock: ESEHIV_clean_linker_0, # of connection points: 3
#     Node 3, Type 0, BuildingBlock: ESEHIV_clean_linker_0, # of connection points: 3
#     Node 4, Type 0, BuildingBlock: ESEHIV_clean_linker_0, # of connection points: 3
#     Node 5, Type 0, BuildingBlock: ESEHIV_clean_linker_0, # of connection points: 3
#     Node 6, Type 0, BuildingBlock: ESEHIV_clean_linker_0, # of connection points: 3
#     Node 7, Type 0, BuildingBlock: ESEHIV_clean_linker_0, # of connection points: 3
#     Node 8, Type 1, BuildingBlock: BETDAH_clean_sbu_0, # of connection points: 6
#     Node 9, Type 1, BuildingBlock: BETDAH_clean_sbu_0, # of connection points: 6
#     Node 10, Type 1, BuildingBlock: BETDAH_clean_sbu_0, # of connection points: 6
#     Node 11, Type 1, BuildingBlock: BETDAH_clean_sbu_0, # of connection points: 6
#     Edge 12, Type (0, 1), BuildingBlock: KIFKEQ_clean_linker_1, # of connection points: 2
#     Edge 13, Type (0, 1), BuildingBlock: KIFKEQ_clean_linker_1, # of connection points: 2
#     Edge 14, Type (0, 1), BuildingBlock: KIFKEQ_clean_linker_1, # of connection points: 2
#     Edge 15, Type (0, 1), BuildingBlock: KIFKEQ_clean_linker_1, # of connection points: 2
#     Edge 16, Type (0, 1), BuildingBlock: KIFKEQ_clean_linker_1, # of connection points: 2
#     Edge 17, Type (0, 1), BuildingBlock: KIFKEQ_clean_linker_1, # of connection points: 2
#     Edge 18, Type (0, 1), BuildingBlock: KIFKEQ_clean_linker_1, # of connection points: 2
#     Edge 19, Type (0, 1), BuildingBlock: KIFKEQ_clean_linker_1, # of connection points: 2
#     Edge 20, Type (0, 1), BuildingBlock: KIFKEQ_clean_linker_1, # of connection points: 2
#     Edge 21, Type (0, 1), BuildingBlock: KIFKEQ_clean_linker_1, # of connection points: 2
#     Edge 22, Type (0, 1), BuildingBlock: KIFKEQ_clean_linker_1, # of connection points: 2
#     Edge 23, Type (0, 1), BuildingBlock: KIFKEQ_clean_linker_1, # of connection points: 2
#     Edge 24, Type (0, 1), BuildingBlock: KIFKEQ_clean_linker_1, # of connection points: 2
#     Edge 25, Type (0, 1), BuildingBlock: KIFKEQ_clean_linker_1, # of connection points: 2
#     Edge 26, Type (0, 1), BuildingBlock: KIFKEQ_clean_linker_1, # of connection points: 2
#     Edge 27, Type (0, 1), BuildingBlock: KIFKEQ_clean_linker_1, # of connection points: 2
#     Edge 28, Type (0, 1), BuildingBlock: KIFKEQ_clean_linker_1, # of connection points: 2
#     Edge 29, Type (0, 1), BuildingBlock: KIFKEQ_clean_linker_1, # of connection points: 2
#     Edge 30, Type (0, 1), BuildingBlock: KIFKEQ_clean_linker_1, # of connection points: 2
#     Edge 31, Type (0, 1), BuildingBlock: KIFKEQ_clean_linker_1, # of connection points: 2
#     Edge 32, Type (0, 1), BuildingBlock: KIFKEQ_clean_linker_1, # of connection points: 2
#     Edge 33, Type (0, 1), BuildingBlock: KIFKEQ_clean_linker_1, # of connection points: 2
#     Edge 34, Type (0, 1), BuildingBlock: KIFKEQ_clean_linker_1, # of connection points: 2
#     Edge 35, Type (0, 1), BuildingBlock: KIFKEQ_clean_linker_1, # of connection points: 2
# Relax obj value: 0.132
# Max RMSD: 0.135
# Mean RMSD: 0.064
data_MOF--net-pyr--node1-BETDAH_clean_sbu_0--node2-ESEHIV_clean_linker_0--edge1-KIFKEQ_clean_linker_1
_symmetry_space_group_name_H-M    P1
_symmetry_Int_Tables_number       1
_symmetry_cell_setting            triclinic
loop_
_symmetry_equiv_pos_as_xyz
'x, y, z'
_cell_length_a     37.167595
_cell_length_b     38.377274
_cell_length_c     33.097429
_cell_angle_alpha  90.185582
_cell_angle_beta   88.050529
_cell_angle_gamma 104.27275
loop_
_atom_site_label
_atom_site_type_symbol
_atom_site_fract_x
_atom_site_fract_y
_atom_site_fract_z
_atom_type_partial_charge
H0 H 0.30885 0.35328 0.27373 0.0
H1 H 0.38526 0.28962 0.3008 0.0
H2 H 0.36671 0.31315 0.1773 0.0
C3 C 0.33036 0.34016 0.26418 0.0
C4 C 0.33848 0.33811 0.22263 0.0
C5 C 0.34602 0.32179 0.29271 0.0
C6 C 0.37218 0.30315 0.27909 0.0
C7 C 0.3789 0.29873 0.23757 0.0
C8 C 0.36248 0.31694 0.20941 0.0
H9 H 0.1821 0.86946 0.71073 0.0
H10 H 0.25482 0.79868 0.69682 0.0
H11 H 0.20304 0.82909 0.59316 0.0
C12 C 0.19392 0.85151 0.69207 0.0
C13 C 0.18853 0.85026 0.6503 0.0
C14 C 0.21809 0.83328 0.70913 0.0
C15 C 0.23473 0.8116 0.6844 0.0
C16 C 0.22888 0.80968 0.64272 0.0
C17 C 0.20568 0.82886 0.62569 0.0
H18 H 0.6914 0.34682 0.94913 0.0
H19 H 0.70056 0.43762 0.8705 0.0
H20 H 0.60905 0.3445 0.86013 0.0
C21 C 0.68077 0.35955 0.92466 0.0
C22 C 0.64786 0.34096 0.90626 0.0
C23 C 0.70019 0.39439 0.9121 0.0
C24 C 0.6859 0.41087 0.88036 0.0
C25 C 0.65288 0.39335 0.86131 0.0
C26 C 0.63429 0.35828 0.87451 0.0
H27 H 0.82412 0.74528 0.43586 0.0
H28 H 0.91875 0.74984 0.35499 0.0
H29 H 0.82892 0.65406 0.3629 0.0
C30 C 0.83882 0.73295 0.41336 0.0
C31 C 0.82276 0.69758 0.40142 0.0
C32 C 0.87386 0.7521 0.39769 0.0
C33 C 0.89176 0.73568 0.36731 0.0
C34 C 0.87581 0.70014 0.35443 0.0
C35 C 0.84153 0.6813 0.37228 0.0
H36 H 0.64539 0.8192 0.85089 0.0
H37 H 0.71859 0.75292 0.8798 0.0
H38 H 0.65355 0.78724 0.97414 0.0
C39 C 0.65654 0.80412 0.87279 0.0
C40 C 0.64664 0.80601 0.91397 0.0
C41 C 0.68337 0.78599 0.8601 0.0
C42 C 0.69658 0.76565 0.88861 0.0
C43 C 0.68509 0.76485 0.92955 0.0
C44 C 0.66044 0.7856 0.94224 0.0
H45 H 0.70796 0.27513 0.50276 0.0
H46 H 0.77108 0.20294 0.45648 0.0
H47 H 0.7694 0.22643 0.58372 0.0
C48 C 0.72592 0.25724 0.50754 0.0
C49 C 0.73652 0.25182 0.54687 0.0
C50 C 0.73882 0.24029 0.47451 0.0
C51 C 0.7623 0.21757 0.48146 0.0
C52 C 0.77359 0.21246 0.52057 0.0
C53 C 0.7607 0.22986 0.55336 0.0
H54 H 0.33422 0.75293 0.20144 0.0
H55 H 0.32668 0.66219 0.27947 0.0
H56 H 0.41765 0.756 0.28955 0.0
C57 C 0.34509 0.74068 0.22617 0.0
C58 C 0.37818 0.7594 0.24412 0.0
C59 C 0.32637 0.70565 0.23859 0.0
C60 C 0.34141 0.68888 0.26941 0.0
C61 C 0.37443 0.70672 0.28827 0.0
C62 C 0.39238 0.74204 0.27534 0.0
H63 H 0.12106 0.36056 0.79977 0.0
H64 H 0.20701 0.36678 0.70727 0.0
H65 H 0.20735 0.45831 0.78107 0.0
C66 C 0.14559 0.37576 0.78342 0.0
C67 C 0.16192 0.41172 0.79493 0.0
C68 C 0.16154 0.35889 0.75176 0.0
C69 C 0.19449 0.37861 0.73209 0.0
C70 C 0.21129 0.41406 0.74299 0.0
C71 C 0.19453 0.43063 0.77368 0.0
Ho72 Ho 0.02927 0.07712 0.53532 0.0
Ho73 Ho 1.00134 1.03583 0.61518 0.0
C74 C 0.04979 0.11924 0.61896 0.0
C75 C 0.04278 0.11385 0.46946 0.0
C76 C 0.07509 0.14393 0.45885 0.0
C77 C 0.07174 0.17965 0.45984 0.0
C78 C 0.10328 0.20834 0.4555 0.0
C79 C 0.13869 0.20174 0.45025 0.0
C80 C 0.14178 0.16605 0.44783 0.0
C81 C 0.11043 0.13751 0.45201 0.0
C82 C 0.07941 0.05022 0.57324 0.0
C83 C 0.98406 0.99317 0.53189 0.0
C84 C 0.98668 0.99823 0.68066 0.0
C85 C 0.95858 0.96439 0.68772 0.0
C86 C 0.9375 0.94778 0.65541 0.0
C87 C 0.90775 0.91798 0.66217 0.0
C88 C 0.89842 0.90436 0.70146 0.0
C89 C 0.92064 0.9201 0.73358 0.0
C90 C 0.95051 0.95002 0.72672 0.0
C91 C 0.95142 0.06233 0.57625 0.0
O92 O 0.04697 0.12214 0.5794 0.0
O93 O 0.03754 0.08817 0.63858 0.0
O94 O 0.04963 0.08214 0.47325 0.0
O95 O 0.0203 0.12039 0.49824 0.0
O96 O 0.08853 0.07831 0.54997 0.0
O97 O 0.04548 1.03595 0.57052 0.0
O98 O 0.99054 0.9907 0.57068 0.0
O99 O 0.99138 1.02483 0.51307 0.0
O100 O 0.97312 1.02594 0.67369 0.0
O101 O 0.01392 0.99638 0.65529 0.0
O102 O 0.94285 1.03212 0.59596 0.0
O103 O 0.98508 0.07738 0.58027 0.0
H104 H 0.04486 0.18539 0.46512 0.0
H105 H 0.10008 0.23561 0.45713 0.0
H106 H 0.16857 0.1601 0.44254 0.0
H107 H 0.11417 0.11041 0.45085 0.0
H108 H 0.94314 0.95864 0.62511 0.0
H109 H 0.89133 0.90629 0.63685 0.0
H110 H 0.91379 0.91049 0.76429 0.0
H111 H 0.96638 0.96267 0.75201 0.0
Ho112 Ho 0.55164 0.06605 0.08886 0.0
Ho113 Ho 0.47259 1.03677 1.06638 0.0
C114 C 0.48617 0.09874 0.12881 0.0
C115 C 0.6162 0.10561 0.10709 0.0
C116 C 0.62891 0.13509 0.13555 0.0
C117 C 0.66654 0.14608 0.14464 0.0
C118 C 0.67787 0.17029 0.17613 0.0
C119 C 0.65157 0.18361 0.19894 0.0
C120 C 0.61427 0.17416 0.18799 0.0
C121 C 0.60307 0.14997 0.15674 0.0
C122 C 0.5151 1.00529 0.12905 0.0
C123 C 0.5382 1.00424 1.02476 0.0
C124 C 0.40775 0.99652 1.05143 0.0
C125 C 0.39033 0.97411 1.01784 0.0
C126 C 0.37126 0.93823 1.02525 0.0
C127 C 0.3538 0.91675 0.9939 0.0
C128 C 0.35504 0.93093 0.95463 0.0
C129 C 0.37445 0.96686 0.94734 0.0
C130 C 0.39209 0.98817 0.97854 0.0
C131 C 0.50914 0.09677 1.02453 0.0
O132 O 0.5211 0.10523 0.11564 0.0
O133 O 0.4624 0.06829 0.12027 0.0
O134 O 0.60099 0.07453 0.12393 0.0
O135 O 0.59739 0.11251 1.07676 0.0
O136 O 0.54948 1.0119 0.11637 0.0
O137 O 0.50206 1.03193 0.12137 0.0
O138 O 0.5024 0.99918 1.03437 0.0
O139 O 0.56301 1.03272 1.0372 0.0
O140 O 0.4172 1.03128 1.04537 0.0
O141 O 0.43284 0.98499 1.07042 0.0
O142 O 0.47433 0.08964 1.03559 0.0
O143 O 0.52219 0.0705 1.0336 0.0
H144 H 0.68686 0.13471 0.12866 0.0
H145 H 0.70676 0.17682 0.18417 0.0
H146 H 0.59346 0.18425 0.20478 0.0
H147 H 0.574 0.14172 0.15046 0.0
H148 H 0.36973 0.92686 1.05538 0.0
H149 H 0.33941 0.8891 1.00041 0.0
H150 H 0.37535 0.97891 0.91766 0.0
H151 H 0.40669 1.01575 0.97189 0.0
Ho152 Ho 0.51682 0.52204 0.54635 0.0
Ho153 Ho 0.51978 0.5835 0.59973 0.0
C154 C 0.55014 0.52182 0.63738 0.0
C155 C 0.53568 0.46998 0.5099 0.0
C156 C 0.56248 0.45088 0.52476 0.0
C157 C 0.59782 0.47034 0.53649 0.0
C158 C 0.62042 0.45356 0.55806 0.0
C159 C 0.60809 0.41709 0.56865 0.0
C160 C 0.57326 0.39737 0.55583 0.0
C161 C 0.55068 0.41413 0.53404 0.0
C162 C 0.45161 0.51948 0.58659 0.0
C163 C 0.48467 0.5826 0.50963 0.0
C164 C 0.50211 0.63576 0.6373 0.0
C165 C 0.47124 0.65143 0.62771 0.0
C166 C 0.4385 0.62924 0.61279 0.0
C167 C 0.41069 0.64411 0.59882 0.0
C168 C 0.41507 0.68145 0.59942 0.0
C169 C 0.44782 0.70367 0.61443 0.0
C170 C 0.47579 0.68872 0.6284 0.0
C171 C 0.58478 0.58601 0.5588 0.0
O172 O 0.54957 0.51003 0.59965 0.0
O173 O 0.53663 0.54958 0.6468 0.0
O174 O 0.50502 0.46538 0.53198 0.0
O175 O 0.54932 0.50359 0.49929 0.0
O176 O 0.45426 0.50979 0.5492 0.0
O177 O 0.48357 0.52885 0.601 0.0
O178 O 0.48455 0.59362 0.54767 0.0
O179 O 0.49981 0.55601 0.49955 0.0
O180 O 0.5287 0.64074 0.60951 0.0
O181 O 0.49255 0.60266 0.65081 0.0
O182 O 0.5824 0.59543 0.59629 0.0
O183 O 0.55266 0.57685 0.54487 0.0
H184 H 0.60751 0.49893 0.53058 0.0
H185 H 0.64705 0.46945 0.56758 0.0
H186 H 0.56345 0.36895 0.56261 0.0
H187 H 0.52342 0.39872 0.52574 0.0
H188 H 0.43468 0.60036 0.61104 0.0
H189 H 0.38594 0.6264 0.58708 0.0
H190 H 0.45162 0.73254 0.61586 0.0
H191 H 0.50112 0.70623 0.63915 0.0
Ho192 Ho 0.01549 0.51436 0.09573 0.0
Ho193 Ho 0.01152 0.58851 1.05557 0.0
C194 C 0.08454 0.58357 0.10387 0.0
C195 C 0.02501 0.45097 0.10831 0.0
C196 C 0.05879 0.43751 0.10869 0.0
C197 C 0.09037 0.45415 0.08496 0.0
C198 C 0.12319 0.44281 0.08744 0.0
C199 C 0.12521 0.41486 0.11401 0.0
C200 C 0.09325 0.39798 0.1373 0.0
C201 C 0.06036 0.40921 0.1346 0.0
C202 C 0.99091 0.56062 0.14526 0.0
C203 C 0.94258 0.51767 1.04476 0.0
C204 C 0.99454 0.64884 1.0435 0.0
C205 C 0.95938 0.65991 1.04486 0.0
C206 C 0.92607 0.63553 1.0569 0.0
C207 C 0.89241 0.64556 1.05631 0.0
C208 C 0.89111 0.6798 1.04212 0.0
C209 C 0.92483 0.7041 1.03 0.0
C210 C 0.9586 0.69431 1.0317 0.0
C211 C 0.05093 0.5518 1.00696 0.0
O212 O 0.07426 0.54798 0.10084 0.0
O213 O 0.06296 0.60449 0.09259 0.0
O214 O 0.02142 0.47299 0.13756 0.0
O215 O 0.01663 0.46178 1.07321 0.0
O216 O 1.00863 0.53746 0.15704 0.0
O217 O 0.98391 0.5557 0.10809 0.0
O218 O 0.95657 0.55255 1.03809 0.0
O219 O 0.95965 0.49792 1.06652 0.0
O220 O 0.99769 0.62637 1.01452 0.0
O221 O 1.00599 0.63999 0.07819 0.0
O222 O 0.04657 0.58343 0.99825 0.0
O223 O 0.03536 0.54372 1.04102 0.0
H224 H 0.08985 0.47628 1.06492 0.0
H225 H 0.14706 0.45614 1.06873 0.0
H226 H 0.09393 0.37683 0.15861 0.0
H227 H 0.03638 0.39631 0.15343 0.0
H228 H 0.92595 0.60846 1.06605 0.0
H229 H 0.86742 0.62616 1.06654 0.0
H230 H 0.92523 0.73034 1.01789 0.0
H231 H 0.98402 0.71329 1.02164 0.0
H232 H 0.33509 0.26052 0.33865 0.0
H233 H 0.31598 0.36737 0.34102 0.0
H234 H 0.29075 0.24267 0.39373 0.0
H235 H 0.2692 0.34815 0.39544 0.0
H236 H 0.20554 0.20814 0.48506 0.0
H237 H 0.26475 0.24842 0.46362 0.0
H238 H 0.20742 0.30276 0.38287 0.0
H239 H 0.14837 0.2624 0.40401 0.0
C240 C 0.32278 0.28089 0.35182 0.0
C241 C 0.32863 0.31527 0.33422 0.0
C242 C 0.29697 0.27042 0.38366 0.0
C243 C 0.27594 0.2938 0.39833 0.0
C244 C 0.28468 0.32943 0.38416 0.0
C245 C 0.31125 0.34026 0.35277 0.0
C246 C 0.20556 0.22928 0.46344 0.0
C247 C 0.17254 0.23153 0.44528 0.0
C248 C 0.23938 0.25248 0.45147 0.0
C249 C 0.24072 0.27835 0.4212 0.0
C250 C 0.20724 0.28324 0.40649 0.0
C251 C 0.17338 0.25997 0.41842 0.0
H252 H 0.22861 0.78863 0.77008 0.0
H253 H 0.24164 0.90045 0.73895 0.0
H254 H 0.2613 0.807 0.83315 0.0
H255 H 0.274 0.91836 0.80118 0.0
H256 H 0.37841 0.92936 0.87569 0.0
H257 H 0.34182 0.90135 0.81919 0.0
H258 H 0.25054 0.85397 0.90145 0.0
H259 H 0.28644 0.88322 0.95834 0.0
C260 C 0.23781 0.81696 0.77708 0.0
C261 C 0.23234 0.84311 0.74987 0.0
C262 C 0.25638 0.82737 0.81295 0.0
C263 C 0.27019 0.86398 0.82143 0.0
C264 C 0.26361 0.88996 0.79498 0.0
C265 C 0.24476 0.87966 0.75964 0.0
C266 C 0.35059 0.91294 0.88189 0.0
C267 C 0.33508 0.90913 0.92144 0.0
C268 C 0.32987 0.89672 0.84961 0.0
C269 C 0.2935 0.87588 0.85629 0.0
C270 C 0.27868 0.86989 0.89587 0.0
C271 C 0.29928 0.88655 0.92828 0.0
H272 H 0.65336 0.46513 0.85453 0.0
H273 H 0.61785 0.36421 0.79196 0.0
H274 H 0.63066 0.49565 0.80046 0.0
H275 H 0.59297 0.39444 0.73889 0.0
H276 H 0.58079 0.46357 0.63017 0.0
H277 H 0.6062 0.43321 0.68274 0.0
H278 H 0.57802 0.50581 0.77156 0.0
H279 H 0.55437 0.53702 0.7186 0.0
C280 C 0.64075 0.44929 0.82926 0.0
C281 C 0.63778 0.41196 0.82801 0.0
C282 C 0.62708 0.46686 0.79827 0.0
C283 C 0.60957 0.4478 0.76488 0.0
C284 C 0.60654 0.41042 0.76361 0.0
C285 C 0.62042 0.39284 0.79457 0.0
C286 C 0.58044 0.47334 0.6608 0.0
C287 C 0.56586 0.50316 0.66974 0.0
C288 C 0.59467 0.45557 0.69128 0.0
C289 C 0.59446 0.46681 0.73192 0.0
C290 C 0.57957 0.49654 0.74078 0.0
C291 C 0.56565 0.51444 0.71025 0.0
H292 H 0.90886 0.72658 0.28111 0.0
H293 H 0.88585 0.63191 0.35694 0.0
H294 H 0.93737 0.69492 0.22924 0.0
H295 H 0.91387 0.60042 0.30544 0.0
H296 H 1.0014 0.56691 0.22594 0.0
H297 H 0.9755 0.6021 0.27513 0.0
H298 H 0.92019 0.64282 0.18004 0.0
H299 H 0.94629 0.60697 0.13059 0.0
C300 C 0.9101 0.69914 0.28685 0.0
C301 C 0.89498 0.68185 0.32328 0.0
C302 C 0.92611 0.68087 0.25695 0.0
C303 C 0.928 0.64503 0.26302 0.0
C304 C 0.91328 0.62804 0.29971 0.0
C305 C 0.89694 0.64607 0.32922 0.0
C306 C 0.98377 0.58338 0.21533 0.0
C307 C 0.9758 0.58396 0.1741 0.0
C308 C 0.96876 0.60352 0.24369 0.0
C309 C 0.94544 0.6252 0.23182 0.0
C310 C 0.93819 0.62661 0.19036 0.0
C311 C 0.95303 0.60603 0.16192 0.0
H312 H 0.371 0.23209 0.27027 0.0
H313 H 0.42905 0.30132 0.17375 0.0
H314 H 0.39942 0.18472 0.24744 0.0
H315 H 0.45638 0.25288 0.14962 0.0
H316 H 0.52395 0.16887 0.13853 0.0
H317 H 0.50036 0.21775 0.16696 0.0
H318 H 0.39366 0.14386 0.19123 0.0
H319 H 0.41759 0.09466 0.16401 0.0
C320 C 0.39026 0.23743 0.24443 0.0
C321 C 0.3981 0.27076 0.2241 0.0
C322 C 0.40611 0.20997 0.23098 0.0
C323 C 0.43 0.2149 0.1966 0.0
C324 C 0.43833 0.24835 0.17647 0.0
C325 C 0.42246 0.27599 0.19004 0.0
C326 C 0.4957 0.16281 0.15071 0.0
C327 C 0.47278 0.12769 0.14938 0.0
C328 C 0.48204 0.19101 0.16649 0.0
C329 C 0.44511 0.18477 0.18123 0.0
C330 C 0.4224 0.14953 0.18058 0.0
C331 C 0.43608 0.12131 0.16484 0.0
H332 H 0.21958 0.89991 0.59324 0.0
H333 H 0.12073 0.86204 0.66879 0.0
H334 H 0.19814 0.95254 0.57431 0.0
H335 H 0.09841 0.91397 0.64884 0.0
H336 H 0.08738 1.02626 0.64764 0.0
H337 H 0.11526 0.97692 0.66372 0.0
H338 H 0.15266 0.97417 0.53877 0.0
H339 H 0.12572 1.02445 0.52345 0.0
C340 C 0.19265 0.90235 0.60467 0.0
C341 C 0.17162 0.87709 0.63231 0.0
C342 C 0.18049 0.93254 0.59406 0.0
C343 C 0.14698 0.93776 0.61074 0.0
C344 C 0.12491 0.91123 0.63645 0.0
C345 C 0.13729 0.88128 0.64741 0.0
C346 C 0.10258 1.01564 0.62409 0.0
C347 C 0.10479 1.02884 0.58456 0.0
C348 C 0.11802 0.98715 0.63302 0.0
C349 C 0.13525 0.97104 0.60224 0.0
C350 C 0.13961 0.98603 0.56313 0.0
C351 C 0.12451 1.01491 0.55437 0.0
H352 H 0.76368 0.43898 0.87759 0.0
H353 H 0.71715 0.39329 0.99267 0.0
H354 H 0.82085 0.46906 0.91018 0.0
H355 H 0.77476 0.42255 1.02481 0.0
H356 H 0.8992 0.44893 1.05752 0.0
H357 H 0.84085 0.41995 1.02614 0.0
H358 H 0.84495 0.51733 0.9594 0.0
H359 H 0.90317 0.54636 0.99066 0.0
C360 C 0.76534 0.43549 0.90986 0.0
C361 C 0.73539 0.41341 0.93222 0.0
C362 C 0.79833 0.45273 0.92857 0.0
C363 C 0.80263 0.44821 0.97019 0.0
C364 C 0.77276 0.42625 0.99261 0.0
C365 C 0.73963 0.40932 0.97401 0.0
C366 C 0.88767 0.46427 1.03628 0.0
C367 C 0.90617 0.50009 1.02675 0.0
C368 C 0.85403 0.44765 1.01837 0.0
C369 C 0.8381 0.46619 0.99005 0.0
C370 C 0.85653 0.50203 0.98066 0.0
C371 C 0.88991 0.51878 0.99887 0.0
H372 H 0.80804 0.63342 0.44206 0.0
H373 H 0.7568 0.71695 0.40509 0.0
H374 H 0.75027 0.603 0.47874 0.0
H375 H 0.69883 0.68614 0.44078 0.0
H376 H 0.59149 0.59892 0.47731 0.0
H377 H 0.64861 0.6234 0.43687 0.0
H378 H 0.71347 0.6224 0.5423 0.0
H379 H 0.65626 0.59888 0.58305 0.0
C380 C 0.78423 0.64493 0.44129 0.0
C381 C 0.78685 0.67751 0.4207 0.0
C382 C 0.7513 0.62767 0.46242 0.0
C383 C 0.72003 0.64217 0.46258 0.0
C384 C 0.72236 0.67419 0.44097 0.0
C385 C 0.75552 0.69187 0.42066 0.0
C386 C 0.61796 0.60363 0.49177 0.0
C387 C 0.61942 0.59717 0.53341 0.0
C388 C 0.65062 0.61777 0.46865 0.0
C389 C 0.6855 0.62491 0.48644 0.0
C390 C 0.68702 0.61703 0.52773 0.0
C391 C 0.6543 0.60367 0.55105 0.0
H392 H 0.30085 0.30549 0.15747 0.0
H393 H 0.32559 0.40494 0.22412 0.0
H394 H 0.25372 0.32577 0.12089 0.0
H395 H 0.27763 0.42462 0.18905 0.0
H396 H 0.1955 0.45904 0.11504 0.0
H397 H 0.25306 0.44279 0.12945 0.0
H398 H 0.19295 0.33135 0.14139 0.0
H399 H 0.13584 0.34731 0.12468 0.0
C400 C 0.29696 0.3321 0.16348 0.0
C401 C 0.31668 0.35354 0.19388 0.0
C402 C 0.26957 0.34353 0.14296 0.0
C403 C 0.26135 0.37656 0.1525 0.0
C404 C 0.28323 0.39913 0.18065 0.0
C405 C 0.31062 0.38778 0.201 0.0
C406 C 0.19468 0.43093 0.11966 0.0
C407 C 0.16087 0.40452 0.11906 0.0
C408 C 0.22769 0.42166 0.12837 0.0
C409 C 0.2277 0.3858 0.13695 0.0
C410 C 0.19418 0.3592 0.13454 0.0
C411 C 0.16123 0.36843 0.1256 0.0
H412 H 0.57217 0.31013 0.91093 0.0
H413 H 0.67722 0.28658 0.93515 0.0
H414 H 0.53975 0.25106 0.93621 0.0
H415 H 0.64476 0.22885 0.96372 0.0
H416 H 0.57816 0.11314 0.98589 0.0
H417 H 0.61115 0.1704 0.95486 0.0
H418 H 0.52096 0.217 0.99339 0.0
H419 H 0.48765 0.15943 1.02212 0.0
C420 C 0.58854 0.29249 0.92155 0.0
C421 C 0.62762 0.30382 0.92095 0.0
C422 C 0.56976 0.25852 0.93691 0.0
C423 C 0.58927 0.2347 0.9528 0.0
C424 C 0.62837 0.24584 0.95162 0.0
C425 C 0.64716 0.27958 0.93572 0.0
C426 C 0.56545 0.13567 0.98746 0.0
C427 C 0.53016 0.13161 1.0062 0.0
C428 C 0.58447 0.16876 0.96989 0.0
C429 C 0.56896 0.19892 0.97112 0.0
C430 C 0.53376 0.19461 0.99056 0.0
C431 C 0.51462 0.16149 1.00748 0.0
H432 H 0.87272 0.77284 0.47681 0.0
H433 H 0.9163 0.8135 0.35893 0.0
H434 H 0.89819 0.83107 0.50602 0.0
H435 H 0.94412 0.87209 0.389 0.0
H436 H 0.9574 0.98317 0.45419 0.0
H437 H 0.93211 0.92589 0.42 0.0
H438 H 0.95428 0.86855 0.52467 0.0
H439 H 0.97787 0.92487 0.55883 0.0
C440 C 0.88773 0.79424 0.45691 0.0
C441 C 0.89187 0.7882 0.4152 0.0
C442 C 0.90301 0.8278 0.47394 0.0
C443 C 0.92366 0.85666 0.45015 0.0
C444 C 0.92817 0.85075 0.40837 0.0
C445 C 0.91257 0.81694 0.39115 0.0
C446 C 0.95674 0.95828 0.46984 0.0
C447 C 0.96935 0.95889 0.50955 0.0
C448 C 0.94245 0.92535 0.45012 0.0
C449 C 0.94057 0.89222 0.46957 0.0
C450 C 0.95415 0.89317 0.50886 0.0
C451 C 0.96801 0.92578 0.52852 0.0
H452 H 0.20905 0.74702 0.60075 0.0
H453 H 0.30187 0.8353 0.6274 0.0
H454 H 0.25191 0.71403 0.57028 0.0
H455 H 0.34461 0.80277 0.598 0.0
H456 H 0.41971 0.74155 0.55325 0.0
H457 H 0.37054 0.77268 0.54403 0.0
H458 H 0.29277 0.68716 0.60898 0.0
H459 H 0.34144 0.65629 0.61784 0.0
C460 C 0.23855 0.75962 0.59891 0.0
C461 C 0.25262 0.79312 0.61673 0.0
C462 C 0.263 0.7409 0.58162 0.0
C463 C 0.30164 0.75562 0.58218 0.0
C464 C 0.31508 0.79075 0.59663 0.0
C465 C 0.29073 0.80927 0.61389 0.0
C466 C 0.39188 0.72921 0.56481 0.0
C467 C 0.38451 0.69698 0.58705 0.0
C468 C 0.36374 0.74683 0.55929 0.0
C469 C 0.32792 0.73259 0.57622 0.0
C470 C 0.3199 0.6987 0.59513 0.0
C471 C 0.34794 0.68108 0.6005 0.0
H472 H 0.71516 0.74217 0.81129 0.0
H473 H 0.6988 0.84993 0.81864 0.0
H474 H 0.76419 0.76283 0.75944 0.0
H475 H 0.74552 0.86934 0.76584 0.0
H476 H 0.88682 0.84533 0.75099 0.0
H477 H 0.82691 0.80774 0.77479 0.0
H478 H 0.77084 0.86373 0.69452 0.0
H479 H 0.83056 0.90163 0.67113 0.0
C480 C 0.72107 0.76987 0.80118 0.0
C481 C 0.7035 0.79449 0.82019 0.0
C482 C 0.74895 0.78154 0.77129 0.0
C483 C 0.75888 0.81772 0.75906 0.0
C484 C 0.73827 0.84119 0.77445 0.0
C485 C 0.71113 0.82983 0.80484 0.0
C486 C 0.86173 0.84901 0.7378 0.0
C487 C 0.86333 0.87674 0.70971 0.0
C488 C 0.82748 0.8272 0.75099 0.0
C489 C 0.79429 0.83301 0.73657 0.0
C490 C 0.79605 0.85877 0.7061 0.0
C491 C 0.83027 0.88039 0.6927 0.0
H492 H 0.66998 0.24463 0.45113 0.0
H493 H 0.78023 0.24627 0.40378 0.0
H494 H 0.64805 0.24315 0.38264 0.0
H495 H 0.75771 0.24196 0.33556 0.0
H496 H 0.61441 0.17105 0.27134 0.0
H497 H 0.63498 0.19536 0.33638 0.0
H498 H 0.73301 0.26428 0.27881 0.0
H499 H 0.7125 0.23886 0.21313 0.0
C500 C 0.68971 0.24525 0.42615 0.0
C501 C 0.72668 0.24473 0.43298 0.0
C502 C 0.67702 0.24398 0.38683 0.0
C503 C 0.70087 0.2416 0.35356 0.0
C504 C 0.7385 0.24384 0.36033 0.0
C505 C 0.7513 0.24564 0.39958 0.0
C506 C 0.63986 0.19211 0.27234 0.0
C507 C 0.66193 0.20298 0.23718 0.0
C508 C 0.65165 0.20623 0.30976 0.0
C509 C 0.68576 0.23178 0.31298 0.0
C510 C 0.70688 0.24422 0.27746 0.0
C511 C 0.69517 0.22976 0.23989 0.0
H512 H 0.40874 0.73623 0.35769 0.0
H513 H 0.37578 0.63536 0.2945 0.0
H514 H 0.43495 0.70673 0.41035 0.0
H515 H 0.40024 0.60555 0.3481 0.0
H516 H 0.48174 0.56876 0.42815 0.0
H517 H 0.45558 0.5986 0.3759 0.0
H518 H 0.42155 0.66651 0.46632 0.0
H519 H 0.44884 0.63728 0.51845 0.0
C520 C 0.40704 0.70776 0.35486 0.0
C521 C 0.39007 0.68843 0.32136 0.0
C522 C 0.42171 0.69063 0.38556 0.0
C523 C 0.41992 0.65352 0.38391 0.0
C524 C 0.40277 0.63418 0.3505 0.0
C525 C 0.38818 0.65131 0.31981 0.0
C526 C 0.46862 0.59 0.43703 0.0
C527 C 0.46745 0.60039 0.4778 0.0
C528 C 0.45331 0.60708 0.40691 0.0
C529 C 0.43614 0.63514 0.41646 0.0
C530 C 0.43487 0.64545 0.45736 0.0
C531 C 0.45032 0.62839 0.4875 0.0
H532 H 0.08793 0.40299 0.81929 0.0
H533 H 0.19867 0.46146 0.84957 0.0
H534 H 0.06217 0.43441 0.87313 0.0
H535 H 0.17263 0.49379 0.90167 0.0
H536 H 0.10646 0.5753 0.95066 0.0
H537 H 0.13334 0.53986 0.90198 0.0
H538 H 0.06128 0.4424 0.95115 0.0
H539 H 0.03458 0.47813 1.00006 0.0
C540 C 0.10693 0.42221 0.83741 0.0
C541 C 0.1456 0.42973 0.82919 0.0
C542 C 0.09204 0.44036 0.8683 0.0
C543 C 0.11528 0.46692 0.89156 0.0
C544 C 0.15384 0.47396 0.88395 0.0
C545 C 0.16876 0.45547 0.85364 0.0
C546 C 0.09671 0.54627 0.95145 0.0
C547 C 0.06889 0.52949 0.97982 0.0
C548 C 0.11215 0.52593 0.92357 0.0
C549 C 0.09957 0.4882 0.9226 0.0
C550 C 0.07162 0.47137 0.95098 0.0
C551 C 0.05669 0.49178 0.97946 0.0
H552 H 0.65825 0.8745 0.88565 0.0
H553 H 0.59157 0.80078 0.97339 0.0
H554 H 0.62883 0.92117 0.90806 0.0
H555 H 0.56302 0.84863 0.99728 0.0
H556 H 0.60837 1.00692 0.99565 0.0
H557 H 0.63189 0.95791 0.96781 0.0
H558 H 0.52166 0.88736 0.97729 0.0
H559 H 0.49802 0.93646 1.006 0.0
C560 C 0.63688 0.86802 0.90942 0.0
C561 C 0.62696 0.83364 0.9274 0.0
C562 C 0.62038 0.89506 0.92265 0.0
C563 C 0.59376 0.88872 0.95459 0.0
C564 C 0.58325 0.85423 0.97233 0.0
C565 C 0.59982 0.82696 0.95894 0.0
C566 C 0.58898 0.98113 0.9914 0.0
C567 C 0.5513 0.97569 1.00301 0.0
C568 C 0.60247 0.953 0.97531 0.0
C569 C 0.57864 0.91869 0.9704 0.0
C570 C 0.54077 0.91338 0.98114 0.0
C571 C 0.52719 0.94163 0.99716 0.0
H572 H 0.76872 0.16171 0.57957 0.0
H573 H 0.83506 0.20972 0.47495 0.0
H574 H 0.81074 0.12271 0.58916 0.0
H575 H 0.87599 0.16982 0.48349 0.0
H576 H 0.87617 1.03721 0.57394 0.0
H577 H 0.83131 0.07184 0.55738 0.0
H578 H 0.92172 0.16521 0.53278 0.0
H579 H 0.96608 0.13078 0.54881 0.0
C580 C 0.79224 0.16387 0.55867 0.0
C581 C 0.79879 0.18879 0.52665 0.0
C582 C 0.81591 0.14121 0.56376 0.0
C583 C 0.84649 0.14321 0.53696 0.0
C584 C 0.85275 0.1679 0.50475 0.0
C585 C 0.82921 0.19054 0.49972 0.0
C586 C 0.88626 0.065 0.56443 0.0
C587 C 0.92443 0.08139 0.56249 0.0
C588 C 0.86071 0.08481 0.55524 0.0
C589 C 0.8731 0.12118 0.54391 0.0
C590 C 0.91138 0.1371 0.54085 0.0
C591 C 0.93679 0.11738 0.55005 0.0
H592 H 0.26633 0.73238 0.22329 0.0
H593 H 0.30613 0.63639 0.20995 0.0
H594 H 0.20902 0.70269 0.19112 0.0
H595 H 0.24944 0.60685 0.176 0.0
H596 H 0.12892 0.55165 0.14833 0.0
H597 H 0.18632 0.58021 0.18118 0.0
H598 H 0.18139 0.68285 0.13129 0.0
H599 H 0.12311 0.65444 0.10029 0.0
C600 C 0.26296 0.70496 0.21306 0.0
C601 C 0.29095 0.68685 0.21921 0.0
C602 C 0.23004 0.68786 0.19424 0.0
C603 C 0.22416 0.65217 0.1803 0.0
C604 C 0.25228 0.63405 0.18666 0.0
C605 C 0.28502 0.65105 0.20607 0.0
C606 C 0.14016 0.58032 0.14425 0.0
C607 C 0.12111 0.60068 0.12169 0.0
C608 C 0.17339 0.59681 0.16303 0.0
C609 C 0.18896 0.63417 0.15942 0.0
C610 C 0.1702 0.65427 0.13592 0.0
C611 C 0.13673 0.63786 0.11767 0.0
H612 H 0.2267 0.47744 0.70015 0.0
H613 H 0.27628 0.39347 0.73947 0.0
H614 H 0.28498 0.5066 0.66334 0.0
H615 H 0.33464 0.42298 0.70379 0.0
H616 H 0.44331 0.50806 0.66831 0.0
H617 H 0.38532 0.48531 0.70793 0.0
H618 H 0.32261 0.48588 0.60074 0.0
H619 H 0.38067 0.50768 0.56085 0.0
C620 C 0.2502 0.46551 0.70128 0.0
C621 C 0.24702 0.43321 0.7226 0.0
C622 C 0.28343 0.48207 0.68014 0.0
C623 C 0.3144 0.46712 0.6808 0.0
C624 C 0.31138 0.43529 0.70298 0.0
C625 C 0.27798 0.41833 0.72325 0.0
C626 C 0.41713 0.50365 0.65329 0.0
C627 C 0.41652 0.50941 0.61141 0.0
C628 C 0.38397 0.49051 0.67593 0.0
C629 C 0.34943 0.48371 0.65741 0.0
C630 C 0.34878 0.49101 0.61587 0.0
C631 C 0.38199 0.50335 0.59304 0.0
H632 H 0.71513 0.78991 1.00199 0.0
H633 H 0.69855 0.69855 0.92224 0.0
H634 H 0.75846 0.76569 1.04032 0.0
H635 H 0.74358 0.67575 0.95806 0.0
H636 H 0.82325 0.63489 1.02488 0.0
H637 H 0.76596 0.65097 1.0113 0.0
H638 H 0.81965 0.76296 1.03058 0.0
H639 H 0.87576 0.74642 1.04876 0.0
C640 C 0.72005 0.76422 0.99322 0.0
C641 C 0.70384 0.7464 0.95871 0.0
C642 C 0.74546 0.7506 1.01475 0.0
C643 C 0.7555 0.71912 1.00189 0.0
C644 C 0.73673 0.69988 0.96937 0.0
C645 C 0.71101 0.71316 0.94839 0.0
C646 C 0.82272 0.66285 1.02769 0.0
C647 C 0.85478 0.68934 1.03744 0.0
C648 C 0.78975 0.67221 1.0191 0.0
C649 C 0.78805 0.70843 1.0188 0.0
C650 C 0.81948 0.73472 1.03059 0.0
C651 C 0.85219 0.72526 1.04021 0.0
H652 H 0.4537 0.79073 0.23883 0.0
H653 H 0.34802 0.8135 0.21595 0.0
H654 H 0.48549 0.85015 0.21414 0.0
H655 H 0.37991 0.87175 0.18802 0.0
H656 H 0.44626 0.98827 0.16821 0.0
H657 H 0.41349 0.93041 0.19815 0.0
H658 H 0.50334 0.88449 0.15683 0.0
H659 H 0.53642 0.9425 0.12913 0.0
C660 C 0.43705 0.80828 0.22865 0.0
C661 C 0.39799 0.79666 0.22952 0.0
C662 C 0.45547 0.84245 0.21363 0.0
C663 C 0.4356 0.86621 0.19833 0.0
C664 C 0.39652 0.85477 0.19969 0.0
C665 C 0.37808 0.82078 0.21523 0.0
C666 C 0.45895 0.96575 0.1658 0.0
C667 C 0.49409 0.97012 0.1466 0.0
C668 C 0.44005 0.93234 0.18273 0.0
C669 C 0.45559 0.90223 0.18044 0.0
C670 C 0.49058 0.90683 0.16048 0.0
C671 C 0.50958 0.94023 0.14415 0.0
H672 H 0.08694 0.32327 0.7491 0.0
H673 H 0.19676 0.30756 0.72398 0.0
H674 H 0.05979 0.26379 0.72085 0.0
H675 H 0.16947 0.24961 0.69378 0.0
H676 H 0.10151 0.17856 0.59134 0.0
H677 H 0.12767 0.23433 0.62732 0.0
H678 H 0.0612 0.19233 0.73374 0.0
H679 H 0.03568 0.13572 0.69805 0.0
C680 C 0.10539 0.30724 0.73807 0.0
C681 C 0.14427 0.32101 0.73836 0.0
C682 C 0.08974 0.27316 0.72167 0.0
C683 C 0.11252 0.25224 0.7046 0.0
C684 C 0.15119 0.26533 0.70611 0.0
C685 C 0.16679 0.29886 0.7232 0.0
C686 C 0.0926 0.18102 0.6225 0.0
C687 C 0.06661 0.15252 0.64184 0.0
C688 C 0.10764 0.21299 0.64311 0.0
C689 C 0.09644 0.21777 0.68334 0.0
C690 C 0.07024 0.18946 0.70272 0.0
C691 C 0.05586 0.15699 0.68237 0.0
H692 H 0.66584 0.2389 0.5757 0.0
H693 H 0.77529 0.30725 0.5913 0.0
H694 H 0.63839 0.28307 0.60858 0.0
H695 H 0.74798 0.35192 0.6251 0.0
H696 H 0.68249 0.42528 0.5569 0.0
H697 H 0.71877 0.3857 0.58029 0.0
H698 H 0.62514 0.32802 0.6545 0.0
H699 H 0.58848 0.36827 0.63079 0.0
C700 C 0.68401 0.26267 0.58829 0.0
C701 C 0.72238 0.27035 0.58037 0.0
C702 C 0.66838 0.28802 0.60746 0.0
C703 C 0.69102 0.32161 0.61827 0.0
C704 C 0.72986 0.32658 0.61626 0.0
C705 C 0.74551 0.30108 0.59706 0.0
C706 C 0.67 0.40513 0.57944 0.0
C707 C 0.63227 0.39899 0.59087 0.0
C708 C 0.691 0.38247 0.59327 0.0
C709 C 0.67457 0.35308 0.6186 0.0
C710 C 0.63829 0.34998 0.63432 0.0
C711 C 0.61722 0.37271 0.62039 0.0
loop_
_geom_bond_atom_site_label_1
_geom_bond_atom_site_label_2
_geom_bond_distance
_geom_bond_site_symmetry_2
_ccdc_geom_bond_type
H0 C3 0.931 . S
H1 C6 0.928 . S
H2 C8 0.930 . S
C3 H0 0.931 . S
C3 C4 1.413 . S
C3 C5 1.360 . S
C4 C3 1.413 . S
C4 C8 1.429 . S
C5 C3 1.360 . S
C5 C6 1.372 . S
C6 H1 0.928 . S
C6 C5 1.372 . S
C6 C7 1.404 . S
C7 C6 1.404 . S
C7 C8 1.391 . S
C8 H2 0.930 . S
C8 C4 1.429 . S
C8 C7 1.391 . S
H9 C12 0.931 . S
H10 C15 0.928 . S
H11 C17 0.930 . S
C12 H9 0.931 . S
C12 C13 1.413 . S
C12 C14 1.360 . S
C13 C12 1.413 . S
C13 C17 1.429 . S
C14 C12 1.360 . S
C14 C15 1.372 . S
C15 H10 0.928 . S
C15 C14 1.372 . S
C15 C16 1.404 . S
C16 C15 1.404 . S
C16 C17 1.391 . S
C17 H11 0.930 . S
C17 C13 1.429 . S
C17 C16 1.391 . S
H18 C21 0.931 . S
H19 C24 0.928 . S
H20 C26 0.930 . S
C21 H18 0.931 . S
C21 C22 1.413 . S
C21 C23 1.360 . S
C22 C21 1.413 . S
C22 C26 1.429 . S
C23 C21 1.360 . S
C23 C24 1.372 . S
C24 H19 0.928 . S
C24 C23 1.372 . S
C24 C25 1.404 . S
C25 C24 1.404 . S
C25 C26 1.391 . S
C26 H20 0.930 . S
C26 C22 1.429 . S
C26 C25 1.391 . S
H27 C30 0.931 . S
H28 C33 0.928 . S
H29 C35 0.930 . S
C30 H27 0.931 . S
C30 C31 1.413 . S
C30 C32 1.360 . S
C31 C30 1.413 . S
C31 C35 1.429 . S
C32 C30 1.360 . S
C32 C33 1.372 . S
C33 H28 0.928 . S
C33 C32 1.372 . S
C33 C34 1.404 . S
C34 C33 1.404 . S
C34 C35 1.391 . S
C35 H29 0.930 . S
C35 C31 1.429 . S
C35 C34 1.391 . S
H36 C39 0.931 . S
H37 C42 0.928 . S
H38 C44 0.930 . S
C39 H36 0.931 . S
C39 C40 1.413 . S
C39 C41 1.360 . S
C40 C39 1.413 . S
C40 C44 1.429 . S
C41 C39 1.360 . S
C41 C42 1.372 . S
C42 H37 0.928 . S
C42 C41 1.372 . S
C42 C43 1.404 . S
C43 C42 1.404 . S
C43 C44 1.391 . S
C44 H38 0.930 . S
C44 C40 1.429 . S
C44 C43 1.391 . S
H45 C48 0.931 . S
H46 C51 0.928 . S
H47 C53 0.930 . S
C48 H45 0.931 . S
C48 C49 1.413 . S
C48 C50 1.360 . S
C49 C48 1.413 . S
C49 C53 1.429 . S
C50 C48 1.360 . S
C50 C51 1.372 . S
C51 H46 0.928 . S
C51 C50 1.372 . S
C51 C52 1.404 . S
C52 C51 1.404 . S
C52 C53 1.391 . S
C53 H47 0.930 . S
C53 C49 1.429 . S
C53 C52 1.391 . S
H54 C57 0.931 . S
H55 C60 0.928 . S
H56 C62 0.930 . S
C57 H54 0.931 . S
C57 C58 1.413 . S
C57 C59 1.360 . S
C58 C57 1.413 . S
C58 C62 1.429 . S
C59 C57 1.360 . S
C59 C60 1.372 . S
C60 H55 0.928 . S
C60 C59 1.372 . S
C60 C61 1.404 . S
C61 C60 1.404 . S
C61 C62 1.391 . S
C62 H56 0.930 . S
C62 C58 1.429 . S
C62 C61 1.391 . S
H63 C66 0.931 . S
H64 C69 0.928 . S
H65 C71 0.930 . S
C66 H63 0.931 . S
C66 C67 1.413 . S
C66 C68 1.360 . S
C67 C66 1.413 . S
C67 C71 1.429 . S
C68 C66 1.360 . S
C68 C69 1.372 . S
C69 H64 0.928 . S
C69 C68 1.372 . S
C69 C70 1.404 . S
C70 C69 1.404 . S
C70 C71 1.391 . S
C71 H65 0.930 . S
C71 C67 1.429 . S
C71 C70 1.391 . S
Ho72 C75 2.811 . S
Ho72 O92 2.322 . S
Ho72 O94 2.378 . S
Ho72 O95 2.524 . S
Ho72 O96 2.381 1_545 S
Ho72 O97 2.669 1_545 S
Ho72 O99 2.346 1_445 S
Ho72 O103 2.305 1_455 S
Ho73 C84 2.811 . S
Ho73 O93 2.346 1_665 S
Ho73 O97 2.305 1_655 S
Ho73 O98 2.322 . S
Ho73 O100 2.378 . S
Ho73 O101 2.524 . S
Ho73 O102 2.381 1_565 S
Ho73 O103 2.669 1_565 S
C74 O92 1.259 . S
C74 O93 1.268 . S
C75 Ho72 2.811 . S
C75 C76 1.488 . S
C75 O94 1.215 . S
C75 O95 1.289 . S
C76 C75 1.488 . S
C76 C77 1.348 . S
C76 C81 1.413 . S
C77 C76 1.348 . S
C77 C78 1.442 . S
C77 H104 0.930 . S
C78 C77 1.442 . S
C78 C79 1.381 . S
C78 H105 0.931 . S
C79 C78 1.381 . S
C79 C80 1.321 . S
C80 C79 1.321 . S
C80 C81 1.403 . S
C80 H106 0.934 . S
C81 C76 1.413 . S
C81 C80 1.403 . S
C81 H107 0.930 . S
C82 O96 1.275 . S
C82 O97 1.256 . S
C83 O98 1.259 . S
C83 O99 1.268 . S
C84 Ho73 2.811 . S
C84 C85 1.488 . S
C84 O100 1.215 . S
C84 O101 1.289 . S
C85 C84 1.488 . S
C85 C86 1.348 . S
C85 C90 1.413 . S
C86 C85 1.348 . S
C86 C87 1.442 . S
C86 H108 0.930 . S
C87 C86 1.442 . S
C87 C88 1.381 . S
C87 H109 0.931 . S
C88 C87 1.381 . S
C88 C89 1.321 . S
C89 C88 1.321 . S
C89 C90 1.403 . S
C89 H110 0.934 . S
C90 C85 1.413 . S
C90 C89 1.403 . S
C90 H111 0.930 . S
C91 O102 1.275 . S
C91 O103 1.256 . S
O92 Ho72 2.322 . S
O92 C74 1.259 . S
O93 Ho73 2.346 1_445 S
O93 C74 1.268 . S
O94 Ho72 2.378 . S
O94 C75 1.215 . S
O95 Ho72 2.524 . S
O95 C75 1.289 . S
O96 Ho72 2.381 1_565 S
O96 C82 1.275 . S
O97 Ho72 2.669 1_565 S
O97 Ho73 2.305 1_455 S
O97 C82 1.256 . S
O98 Ho73 2.322 . S
O98 C83 1.259 . S
O99 Ho72 2.346 1_665 S
O99 C83 1.268 . S
O100 Ho73 2.378 . S
O100 C84 1.215 . S
O101 Ho73 2.524 . S
O101 C84 1.289 . S
O102 Ho73 2.381 1_545 S
O102 C91 1.275 . S
O103 Ho72 2.305 1_655 S
O103 Ho73 2.669 1_545 S
O103 C91 1.256 . S
H104 C77 0.930 . S
H105 C78 0.931 . S
H106 C80 0.934 . S
H107 C81 0.930 . S
H108 C86 0.930 . S
H109 C87 0.931 . S
H110 C89 0.934 . S
H111 C90 0.930 . S
Ho112 C115 2.799 1_565 S
Ho112 O132 2.308 1_565 S
Ho112 O134 2.376 1_565 S
Ho112 O135 2.503 1_565 S
Ho112 O136 2.399 . S
Ho112 O137 2.678 . S
Ho112 O139 2.360 1_554 S
Ho112 O143 2.287 1_564 S
Ho113 C124 2.811 1_545 S
Ho113 O133 2.346 1_556 S
Ho113 O137 2.305 1_546 S
Ho113 O138 2.322 1_545 S
Ho113 O140 2.378 1_545 S
Ho113 O141 2.524 1_545 S
Ho113 O142 2.381 . S
Ho113 O143 2.669 . S
C114 O132 1.259 . S
C114 O133 1.268 . S
C115 Ho112 2.799 1_545 S
C115 C116 1.488 . S
C115 O134 1.215 . S
C115 O135 1.289 . S
C116 C115 1.488 . S
C116 C117 1.348 . S
C116 C121 1.413 . S
C117 C116 1.348 . S
C117 C118 1.442 . S
C117 H144 0.930 . S
C118 C117 1.442 . S
C118 C119 1.381 . S
C118 H145 0.931 . S
C119 C118 1.381 . S
C119 C120 1.321 . S
C120 C119 1.321 . S
C120 C121 1.403 . S
C120 H146 0.934 . S
C121 C116 1.413 . S
C121 C120 1.403 . S
C121 H147 0.930 . S
C122 O136 1.275 . S
C122 O137 1.256 . S
C123 O138 1.259 . S
C123 O139 1.268 . S
C124 Ho113 2.811 1_565 S
C124 C125 1.488 . S
C124 O140 1.215 . S
C124 O141 1.289 . S
C125 C124 1.488 . S
C125 C126 1.348 . S
C125 C130 1.413 . S
C126 C125 1.348 . S
C126 C127 1.442 . S
C126 H148 0.930 . S
C127 C126 1.442 . S
C127 C128 1.381 . S
C127 H149 0.931 . S
C128 C127 1.381 . S
C128 C129 1.321 . S
C129 C128 1.321 . S
C129 C130 1.403 . S
C129 H150 0.934 . S
C130 C125 1.413 . S
C130 C129 1.403 . S
C130 H151 0.930 . S
C131 O142 1.275 . S
C131 O143 1.256 . S
O132 Ho112 2.308 1_545 S
O132 C114 1.259 . S
O133 Ho113 2.346 1_554 S
O133 C114 1.268 . S
O134 Ho112 2.376 1_545 S
O134 C115 1.215 . S
O135 Ho112 2.503 1_545 S
O135 C115 1.289 . S
O136 Ho112 2.399 . S
O136 C122 1.275 . S
O137 Ho112 2.678 . S
O137 Ho113 2.305 1_564 S
O137 C122 1.256 . S
O138 Ho113 2.322 1_565 S
O138 C123 1.259 . S
O139 Ho112 2.360 1_556 S
O139 C123 1.268 . S
O140 Ho113 2.378 1_565 S
O140 C124 1.215 . S
O141 Ho113 2.524 1_565 S
O141 C124 1.289 . S
O142 Ho113 2.381 . S
O142 C131 1.275 . S
O143 Ho112 2.287 1_546 S
O143 Ho113 2.669 . S
O143 C131 1.256 . S
H144 C117 0.930 . S
H145 C118 0.931 . S
H146 C120 0.934 . S
H147 C121 0.930 . S
H148 C126 0.930 . S
H149 C127 0.931 . S
H150 C129 0.934 . S
H151 C130 0.930 . S
Ho152 C155 2.811 . S
Ho152 O172 2.322 . S
Ho152 O174 2.378 . S
Ho152 O175 2.524 . S
Ho152 O176 2.381 . S
Ho152 O177 2.669 . S
Ho152 O179 2.346 . S
Ho152 O183 2.305 . S
Ho153 C164 2.811 . S
Ho153 O173 2.346 . S
Ho153 O177 2.305 . S
Ho153 O178 2.322 . S
Ho153 O180 2.378 . S
Ho153 O181 2.524 . S
Ho153 O182 2.381 . S
Ho153 O183 2.669 . S
C154 O172 1.259 . S
C154 O173 1.268 . S
C155 Ho152 2.811 . S
C155 C156 1.488 . S
C155 O174 1.215 . S
C155 O175 1.289 . S
C156 C155 1.488 . S
C156 C157 1.348 . S
C156 C161 1.413 . S
C157 C156 1.348 . S
C157 C158 1.442 . S
C157 H184 0.930 . S
C158 C157 1.442 . S
C158 C159 1.381 . S
C158 H185 0.931 . S
C159 C158 1.381 . S
C159 C160 1.321 . S
C160 C159 1.321 . S
C160 C161 1.403 . S
C160 H186 0.934 . S
C161 C156 1.413 . S
C161 C160 1.403 . S
C161 H187 0.930 . S
C162 O176 1.275 . S
C162 O177 1.256 . S
C163 O178 1.259 . S
C163 O179 1.268 . S
C164 Ho153 2.811 . S
C164 C165 1.488 . S
C164 O180 1.215 . S
C164 O181 1.289 . S
C165 C164 1.488 . S
C165 C166 1.348 . S
C165 C170 1.413 . S
C166 C165 1.348 . S
C166 C167 1.442 . S
C166 H188 0.930 . S
C167 C166 1.442 . S
C167 C168 1.381 . S
C167 H189 0.931 . S
C168 C167 1.381 . S
C168 C169 1.321 . S
C169 C168 1.321 . S
C169 C170 1.403 . S
C169 H190 0.934 . S
C170 C165 1.413 . S
C170 C169 1.403 . S
C170 H191 0.930 . S
C171 O182 1.275 . S
C171 O183 1.256 . S
O172 Ho152 2.322 . S
O172 C154 1.259 . S
O173 Ho153 2.346 . S
O173 C154 1.268 . S
O174 Ho152 2.378 . S
O174 C155 1.215 . S
O175 Ho152 2.524 . S
O175 C155 1.289 . S
O176 Ho152 2.381 . S
O176 C162 1.275 . S
O177 Ho152 2.669 . S
O177 Ho153 2.305 . S
O177 C162 1.256 . S
O178 Ho153 2.322 . S
O178 C163 1.259 . S
O179 Ho152 2.346 . S
O179 C163 1.268 . S
O180 Ho153 2.378 . S
O180 C164 1.215 . S
O181 Ho153 2.524 . S
O181 C164 1.289 . S
O182 Ho153 2.381 . S
O182 C171 1.275 . S
O183 Ho152 2.305 . S
O183 Ho153 2.669 . S
O183 C171 1.256 . S
H184 C157 0.930 . S
H185 C158 0.931 . S
H186 C160 0.934 . S
H187 C161 0.930 . S
H188 C166 0.930 . S
H189 C167 0.931 . S
H190 C169 0.934 . S
H191 C170 0.930 . S
Ho192 C195 2.811 . S
Ho192 O212 2.322 . S
Ho192 O214 2.378 . S
Ho192 O215 2.524 . S
Ho192 O216 2.381 1_455 S
Ho192 O217 2.669 1_455 S
Ho192 O219 2.346 1_454 S
Ho192 O223 2.305 1_554 S
Ho193 C204 2.811 . S
Ho193 O213 2.346 1_656 S
Ho193 O217 2.305 1_556 S
Ho193 O218 2.322 . S
Ho193 O220 2.378 . S
Ho193 O221 2.524 . S
Ho193 O222 2.381 1_655 S
Ho193 O223 2.669 1_655 S
C194 O212 1.259 . S
C194 O213 1.268 . S
C195 Ho192 2.811 . S
C195 C196 1.488 . S
C195 O214 1.215 . S
C195 O215 1.289 . S
C196 C195 1.488 . S
C196 C197 1.348 . S
C196 C201 1.413 . S
C197 C196 1.348 . S
C197 C198 1.442 . S
C197 H224 0.930 . S
C198 C197 1.442 . S
C198 C199 1.381 . S
C198 H225 0.931 . S
C199 C198 1.381 . S
C199 C200 1.321 . S
C200 C199 1.321 . S
C200 C201 1.403 . S
C200 H226 0.934 . S
C201 C196 1.413 . S
C201 C200 1.403 . S
C201 H227 0.930 . S
C202 O216 1.275 . S
C202 O217 1.256 . S
C203 O218 1.259 . S
C203 O219 1.268 . S
C204 Ho193 2.811 . S
C204 C205 1.488 . S
C204 O220 1.215 . S
C204 O221 1.289 . S
C205 C204 1.488 . S
C205 C206 1.348 . S
C205 C210 1.413 . S
C206 C205 1.348 . S
C206 C207 1.442 . S
C206 H228 0.930 . S
C207 C206 1.442 . S
C207 C208 1.381 . S
C207 H229 0.931 . S
C208 C207 1.381 . S
C208 C209 1.321 . S
C209 C208 1.321 . S
C209 C210 1.403 . S
C209 H230 0.934 . S
C210 C205 1.413 . S
C210 C209 1.403 . S
C210 H231 0.930 . S
C211 O222 1.275 . S
C211 O223 1.256 . S
O212 Ho192 2.322 . S
O212 C194 1.259 . S
O213 Ho193 2.346 1_454 S
O213 C194 1.268 . S
O214 Ho192 2.378 . S
O214 C195 1.215 . S
O215 Ho192 2.524 . S
O215 C195 1.289 . S
O216 Ho192 2.381 1_655 S
O216 C202 1.275 . S
O217 Ho192 2.669 1_655 S
O217 Ho193 2.305 1_554 S
O217 C202 1.256 . S
O218 Ho193 2.322 . S
O218 C203 1.259 . S
O219 Ho192 2.346 1_656 S
O219 C203 1.268 . S
O220 Ho193 2.378 . S
O220 C204 1.215 . S
O221 Ho193 2.524 . S
O221 C204 1.289 . S
O222 Ho193 2.381 1_455 S
O222 C211 1.275 . S
O223 Ho192 2.305 1_556 S
O223 Ho193 2.669 1_455 S
O223 C211 1.256 . S
H224 C197 0.930 . S
H225 C198 0.931 . S
H226 C200 0.934 . S
H227 C201 0.930 . S
H228 C206 0.930 . S
H229 C207 0.931 . S
H230 C209 0.934 . S
H231 C210 0.930 . S
H232 C240 0.950 . S
H233 C245 0.950 . S
H234 C242 0.950 . S
H235 C244 0.950 . S
H236 C246 0.950 . S
H237 C248 0.950 . S
H238 C250 0.950 . S
H239 C251 0.950 . S
C240 H232 0.950 . S
C240 C241 1.386 . S
C240 C242 1.391 . S
C241 C240 1.386 . S
C241 C245 1.393 . S
C242 H234 0.950 . S
C242 C240 1.391 . S
C242 C243 1.400 . S
C243 C242 1.400 . S
C243 C244 1.398 . S
C243 C249 1.491 . S
C244 H235 0.950 . S
C244 C243 1.398 . S
C244 C245 1.391 . S
C245 H233 0.950 . S
C245 C241 1.393 . S
C245 C244 1.391 . S
C246 H236 0.950 . S
C246 C247 1.386 . S
C246 C248 1.391 . S
C247 C246 1.386 . S
C247 C251 1.393 . S
C248 H237 0.950 . S
C248 C246 1.391 . S
C248 C249 1.400 . S
C249 C243 1.491 . S
C249 C248 1.400 . S
C249 C250 1.398 . S
C250 H238 0.950 . S
C250 C249 1.398 . S
C250 C251 1.391 . S
C251 H239 0.950 . S
C251 C247 1.393 . S
C251 C250 1.391 . S
H252 C260 0.950 . S
H253 C265 0.950 . S
H254 C262 0.950 . S
H255 C264 0.950 . S
H256 C266 0.950 . S
H257 C268 0.950 . S
H258 C270 0.950 . S
H259 C271 0.950 . S
C260 H252 0.950 . S
C260 C261 1.386 . S
C260 C262 1.391 . S
C261 C260 1.386 . S
C261 C265 1.393 . S
C262 H254 0.950 . S
C262 C260 1.391 . S
C262 C263 1.400 . S
C263 C262 1.400 . S
C263 C264 1.398 . S
C263 C269 1.491 . S
C264 H255 0.950 . S
C264 C263 1.398 . S
C264 C265 1.391 . S
C265 H253 0.950 . S
C265 C261 1.393 . S
C265 C264 1.391 . S
C266 H256 0.950 . S
C266 C267 1.386 . S
C266 C268 1.391 . S
C267 C266 1.386 . S
C267 C271 1.393 . S
C268 H257 0.950 . S
C268 C266 1.391 . S
C268 C269 1.400 . S
C269 C263 1.491 . S
C269 C268 1.400 . S
C269 C270 1.398 . S
C270 H258 0.950 . S
C270 C269 1.398 . S
C270 C271 1.391 . S
C271 H259 0.950 . S
C271 C267 1.393 . S
C271 C270 1.391 . S
H272 C280 0.950 . S
H273 C285 0.950 . S
H274 C282 0.950 . S
H275 C284 0.950 . S
H276 C286 0.950 . S
H277 C288 0.950 . S
H278 C290 0.950 . S
H279 C291 0.950 . S
C280 H272 0.950 . S
C280 C281 1.386 . S
C280 C282 1.391 . S
C281 C280 1.386 . S
C281 C285 1.393 . S
C282 H274 0.950 . S
C282 C280 1.391 . S
C282 C283 1.400 . S
C283 C282 1.400 . S
C283 C284 1.398 . S
C283 C289 1.491 . S
C284 H275 0.950 . S
C284 C283 1.398 . S
C284 C285 1.391 . S
C285 H273 0.950 . S
C285 C281 1.393 . S
C285 C284 1.391 . S
C286 H276 0.950 . S
C286 C287 1.386 . S
C286 C288 1.391 . S
C287 C286 1.386 . S
C287 C291 1.393 . S
C288 H277 0.950 . S
C288 C286 1.391 . S
C288 C289 1.400 . S
C289 C283 1.491 . S
C289 C288 1.400 . S
C289 C290 1.398 . S
C290 H278 0.950 . S
C290 C289 1.398 . S
C290 C291 1.391 . S
C291 H279 0.950 . S
C291 C287 1.393 . S
C291 C290 1.391 . S
H292 C300 0.950 . S
H293 C305 0.950 . S
H294 C302 0.950 . S
H295 C304 0.950 . S
H296 C306 0.950 . S
H297 C308 0.950 . S
H298 C310 0.950 . S
H299 C311 0.950 . S
C300 H292 0.950 . S
C300 C301 1.386 . S
C300 C302 1.391 . S
C301 C300 1.386 . S
C301 C305 1.393 . S
C302 H294 0.950 . S
C302 C300 1.391 . S
C302 C303 1.400 . S
C303 C302 1.400 . S
C303 C304 1.398 . S
C303 C309 1.491 . S
C304 H295 0.950 . S
C304 C303 1.398 . S
C304 C305 1.391 . S
C305 H293 0.950 . S
C305 C301 1.393 . S
C305 C304 1.391 . S
C306 H296 0.950 . S
C306 C307 1.386 . S
C306 C308 1.391 . S
C307 C306 1.386 . S
C307 C311 1.393 . S
C308 H297 0.950 . S
C308 C306 1.391 . S
C308 C309 1.400 . S
C309 C303 1.491 . S
C309 C308 1.400 . S
C309 C310 1.398 . S
C310 H298 0.950 . S
C310 C309 1.398 . S
C310 C311 1.391 . S
C311 H299 0.950 . S
C311 C307 1.393 . S
C311 C310 1.391 . S
H312 C320 0.950 . S
H313 C325 0.950 . S
H314 C322 0.950 . S
H315 C324 0.950 . S
H316 C326 0.950 . S
H317 C328 0.950 . S
H318 C330 0.950 . S
H319 C331 0.950 . S
C320 H312 0.950 . S
C320 C321 1.386 . S
C320 C322 1.391 . S
C321 C320 1.386 . S
C321 C325 1.393 . S
C322 H314 0.950 . S
C322 C320 1.391 . S
C322 C323 1.400 . S
C323 C322 1.400 . S
C323 C324 1.398 . S
C323 C329 1.491 . S
C324 H315 0.950 . S
C324 C323 1.398 . S
C324 C325 1.391 . S
C325 H313 0.950 . S
C325 C321 1.393 . S
C325 C324 1.391 . S
C326 H316 0.950 . S
C326 C327 1.386 . S
C326 C328 1.391 . S
C327 C326 1.386 . S
C327 C331 1.393 . S
C328 H317 0.950 . S
C328 C326 1.391 . S
C328 C329 1.400 . S
C329 C323 1.491 . S
C329 C328 1.400 . S
C329 C330 1.398 . S
C330 H318 0.950 . S
C330 C329 1.398 . S
C330 C331 1.391 . S
C331 H319 0.950 . S
C331 C327 1.393 . S
C331 C330 1.391 . S
H332 C340 0.950 . S
H333 C345 0.950 . S
H334 C342 0.950 . S
H335 C344 0.950 . S
H336 C346 0.950 . S
H337 C348 0.950 . S
H338 C350 0.950 . S
H339 C351 0.950 . S
C340 H332 0.950 . S
C340 C341 1.386 . S
C340 C342 1.391 . S
C341 C340 1.386 . S
C341 C345 1.393 . S
C342 H334 0.950 . S
C342 C340 1.391 . S
C342 C343 1.400 . S
C343 C342 1.400 . S
C343 C344 1.398 . S
C343 C349 1.491 . S
C344 H335 0.950 . S
C344 C343 1.398 . S
C344 C345 1.391 . S
C345 H333 0.950 . S
C345 C341 1.393 . S
C345 C344 1.391 . S
C346 H336 0.950 . S
C346 C347 1.386 . S
C346 C348 1.391 . S
C347 C346 1.386 . S
C347 C351 1.393 . S
C348 H337 0.950 . S
C348 C346 1.391 . S
C348 C349 1.400 . S
C349 C343 1.491 . S
C349 C348 1.400 . S
C349 C350 1.398 . S
C350 H338 0.950 . S
C350 C349 1.398 . S
C350 C351 1.391 . S
C351 H339 0.950 . S
C351 C347 1.393 . S
C351 C350 1.391 . S
H352 C360 0.950 . S
H353 C365 0.950 . S
H354 C362 0.950 . S
H355 C364 0.950 . S
H356 C366 0.950 . S
H357 C368 0.950 . S
H358 C370 0.950 . S
H359 C371 0.950 . S
C360 H352 0.950 . S
C360 C361 1.386 . S
C360 C362 1.391 . S
C361 C360 1.386 . S
C361 C365 1.393 . S
C362 H354 0.950 . S
C362 C360 1.391 . S
C362 C363 1.400 . S
C363 C362 1.400 . S
C363 C364 1.398 . S
C363 C369 1.491 . S
C364 H355 0.950 . S
C364 C363 1.398 . S
C364 C365 1.391 . S
C365 H353 0.950 . S
C365 C361 1.393 . S
C365 C364 1.391 . S
C366 H356 0.950 . S
C366 C367 1.386 . S
C366 C368 1.391 . S
C367 C366 1.386 . S
C367 C371 1.393 . S
C368 H357 0.950 . S
C368 C366 1.391 . S
C368 C369 1.400 . S
C369 C363 1.491 . S
C369 C368 1.400 . S
C369 C370 1.398 . S
C370 H358 0.950 . S
C370 C369 1.398 . S
C370 C371 1.391 . S
C371 H359 0.950 . S
C371 C367 1.393 . S
C371 C370 1.391 . S
H372 C380 0.950 . S
H373 C385 0.950 . S
H374 C382 0.950 . S
H375 C384 0.950 . S
H376 C386 0.950 . S
H377 C388 0.950 . S
H378 C390 0.950 . S
H379 C391 0.950 . S
C380 H372 0.950 . S
C380 C381 1.386 . S
C380 C382 1.391 . S
C381 C380 1.386 . S
C381 C385 1.393 . S
C382 H374 0.950 . S
C382 C380 1.391 . S
C382 C383 1.400 . S
C383 C382 1.400 . S
C383 C384 1.398 . S
C383 C389 1.491 . S
C384 H375 0.950 . S
C384 C383 1.398 . S
C384 C385 1.391 . S
C385 H373 0.950 . S
C385 C381 1.393 . S
C385 C384 1.391 . S
C386 H376 0.950 . S
C386 C387 1.386 . S
C386 C388 1.391 . S
C387 C386 1.386 . S
C387 C391 1.393 . S
C388 H377 0.950 . S
C388 C386 1.391 . S
C388 C389 1.400 . S
C389 C383 1.491 . S
C389 C388 1.400 . S
C389 C390 1.398 . S
C390 H378 0.950 . S
C390 C389 1.398 . S
C390 C391 1.391 . S
C391 H379 0.950 . S
C391 C387 1.393 . S
C391 C390 1.391 . S
H392 C400 0.950 . S
H393 C405 0.950 . S
H394 C402 0.950 . S
H395 C404 0.950 . S
H396 C406 0.950 . S
H397 C408 0.950 . S
H398 C410 0.950 . S
H399 C411 0.950 . S
C400 H392 0.950 . S
C400 C401 1.386 . S
C400 C402 1.391 . S
C401 C400 1.386 . S
C401 C405 1.393 . S
C402 H394 0.950 . S
C402 C400 1.391 . S
C402 C403 1.400 . S
C403 C402 1.400 . S
C403 C404 1.398 . S
C403 C409 1.491 . S
C404 H395 0.950 . S
C404 C403 1.398 . S
C404 C405 1.391 . S
C405 H393 0.950 . S
C405 C401 1.393 . S
C405 C404 1.391 . S
C406 H396 0.950 . S
C406 C407 1.386 . S
C406 C408 1.391 . S
C407 C406 1.386 . S
C407 C411 1.393 . S
C408 H397 0.950 . S
C408 C406 1.391 . S
C408 C409 1.400 . S
C409 C403 1.491 . S
C409 C408 1.400 . S
C409 C410 1.398 . S
C410 H398 0.950 . S
C410 C409 1.398 . S
C410 C411 1.391 . S
C411 H399 0.950 . S
C411 C407 1.393 . S
C411 C410 1.391 . S
H412 C420 0.950 . S
H413 C425 0.950 . S
H414 C422 0.950 . S
H415 C424 0.950 . S
H416 C426 0.950 . S
H417 C428 0.950 . S
H418 C430 0.950 . S
H419 C431 0.950 . S
C420 H412 0.950 . S
C420 C421 1.386 . S
C420 C422 1.391 . S
C421 C420 1.386 . S
C421 C425 1.393 . S
C422 H414 0.950 . S
C422 C420 1.391 . S
C422 C423 1.400 . S
C423 C422 1.400 . S
C423 C424 1.398 . S
C423 C429 1.491 . S
C424 H415 0.950 . S
C424 C423 1.398 . S
C424 C425 1.391 . S
C425 H413 0.950 . S
C425 C421 1.393 . S
C425 C424 1.391 . S
C426 H416 0.950 . S
C426 C427 1.386 . S
C426 C428 1.391 . S
C427 C426 1.386 . S
C427 C431 1.393 . S
C428 H417 0.950 . S
C428 C426 1.391 . S
C428 C429 1.400 . S
C429 C423 1.491 . S
C429 C428 1.400 . S
C429 C430 1.398 . S
C430 H418 0.950 . S
C430 C429 1.398 . S
C430 C431 1.391 . S
C431 H419 0.950 . S
C431 C427 1.393 . S
C431 C430 1.391 . S
H432 C440 0.950 . S
H433 C445 0.950 . S
H434 C442 0.950 . S
H435 C444 0.950 . S
H436 C446 0.950 . S
H437 C448 0.950 . S
H438 C450 0.950 . S
H439 C451 0.950 . S
C440 H432 0.950 . S
C440 C441 1.386 . S
C440 C442 1.391 . S
C441 C440 1.386 . S
C441 C445 1.393 . S
C442 H434 0.950 . S
C442 C440 1.391 . S
C442 C443 1.400 . S
C443 C442 1.400 . S
C443 C444 1.398 . S
C443 C449 1.491 . S
C444 H435 0.950 . S
C444 C443 1.398 . S
C444 C445 1.391 . S
C445 H433 0.950 . S
C445 C441 1.393 . S
C445 C444 1.391 . S
C446 H436 0.950 . S
C446 C447 1.386 . S
C446 C448 1.391 . S
C447 C446 1.386 . S
C447 C451 1.393 . S
C448 H437 0.950 . S
C448 C446 1.391 . S
C448 C449 1.400 . S
C449 C443 1.491 . S
C449 C448 1.400 . S
C449 C450 1.398 . S
C450 H438 0.950 . S
C450 C449 1.398 . S
C450 C451 1.391 . S
C451 H439 0.950 . S
C451 C447 1.393 . S
C451 C450 1.391 . S
H452 C460 0.950 . S
H453 C465 0.950 . S
H454 C462 0.950 . S
H455 C464 0.950 . S
H456 C466 0.950 . S
H457 C468 0.950 . S
H458 C470 0.950 . S
H459 C471 0.950 . S
C460 H452 0.950 . S
C460 C461 1.386 . S
C460 C462 1.391 . S
C461 C460 1.386 . S
C461 C465 1.393 . S
C462 H454 0.950 . S
C462 C460 1.391 . S
C462 C463 1.400 . S
C463 C462 1.400 . S
C463 C464 1.398 . S
C463 C469 1.491 . S
C464 H455 0.950 . S
C464 C463 1.398 . S
C464 C465 1.391 . S
C465 H453 0.950 . S
C465 C461 1.393 . S
C465 C464 1.391 . S
C466 H456 0.950 . S
C466 C467 1.386 . S
C466 C468 1.391 . S
C467 C466 1.386 . S
C467 C471 1.393 . S
C468 H457 0.950 . S
C468 C466 1.391 . S
C468 C469 1.400 . S
C469 C463 1.491 . S
C469 C468 1.400 . S
C469 C470 1.398 . S
C470 H458 0.950 . S
C470 C469 1.398 . S
C470 C471 1.391 . S
C471 H459 0.950 . S
C471 C467 1.393 . S
C471 C470 1.391 . S
H472 C480 0.950 . S
H473 C485 0.950 . S
H474 C482 0.950 . S
H475 C484 0.950 . S
H476 C486 0.950 . S
H477 C488 0.950 . S
H478 C490 0.950 . S
H479 C491 0.950 . S
C480 H472 0.950 . S
C480 C481 1.386 . S
C480 C482 1.391 . S
C481 C480 1.386 . S
C481 C485 1.393 . S
C482 H474 0.950 . S
C482 C480 1.391 . S
C482 C483 1.400 . S
C483 C482 1.400 . S
C483 C484 1.398 . S
C483 C489 1.491 . S
C484 H475 0.950 . S
C484 C483 1.398 . S
C484 C485 1.391 . S
C485 H473 0.950 . S
C485 C481 1.393 . S
C485 C484 1.391 . S
C486 H476 0.950 . S
C486 C487 1.386 . S
C486 C488 1.391 . S
C487 C486 1.386 . S
C487 C491 1.393 . S
C488 H477 0.950 . S
C488 C486 1.391 . S
C488 C489 1.400 . S
C489 C483 1.491 . S
C489 C488 1.400 . S
C489 C490 1.398 . S
C490 H478 0.950 . S
C490 C489 1.398 . S
C490 C491 1.391 . S
C491 H479 0.950 . S
C491 C487 1.393 . S
C491 C490 1.391 . S
H492 C500 0.950 . S
H493 C505 0.950 . S
H494 C502 0.950 . S
H495 C504 0.950 . S
H496 C506 0.950 . S
H497 C508 0.950 . S
H498 C510 0.950 . S
H499 C511 0.950 . S
C500 H492 0.950 . S
C500 C501 1.386 . S
C500 C502 1.391 . S
C501 C500 1.386 . S
C501 C505 1.393 . S
C502 H494 0.950 . S
C502 C500 1.391 . S
C502 C503 1.400 . S
C503 C502 1.400 . S
C503 C504 1.398 . S
C503 C509 1.491 . S
C504 H495 0.950 . S
C504 C503 1.398 . S
C504 C505 1.391 . S
C505 H493 0.950 . S
C505 C501 1.393 . S
C505 C504 1.391 . S
C506 H496 0.950 . S
C506 C507 1.386 . S
C506 C508 1.391 . S
C507 C506 1.386 . S
C507 C511 1.393 . S
C508 H497 0.950 . S
C508 C506 1.391 . S
C508 C509 1.400 . S
C509 C503 1.491 . S
C509 C508 1.400 . S
C509 C510 1.398 . S
C510 H498 0.950 . S
C510 C509 1.398 . S
C510 C511 1.391 . S
C511 H499 0.950 . S
C511 C507 1.393 . S
C511 C510 1.391 . S
H512 C520 0.950 . S
H513 C525 0.950 . S
H514 C522 0.950 . S
H515 C524 0.950 . S
H516 C526 0.950 . S
H517 C528 0.950 . S
H518 C530 0.950 . S
H519 C531 0.950 . S
C520 H512 0.950 . S
C520 C521 1.386 . S
C520 C522 1.391 . S
C521 C520 1.386 . S
C521 C525 1.393 . S
C522 H514 0.950 . S
C522 C520 1.391 . S
C522 C523 1.400 . S
C523 C522 1.400 . S
C523 C524 1.398 . S
C523 C529 1.491 . S
C524 H515 0.950 . S
C524 C523 1.398 . S
C524 C525 1.391 . S
C525 H513 0.950 . S
C525 C521 1.393 . S
C525 C524 1.391 . S
C526 H516 0.950 . S
C526 C527 1.386 . S
C526 C528 1.391 . S
C527 C526 1.386 . S
C527 C531 1.393 . S
C528 H517 0.950 . S
C528 C526 1.391 . S
C528 C529 1.400 . S
C529 C523 1.491 . S
C529 C528 1.400 . S
C529 C530 1.398 . S
C530 H518 0.950 . S
C530 C529 1.398 . S
C530 C531 1.391 . S
C531 H519 0.950 . S
C531 C527 1.393 . S
C531 C530 1.391 . S
H532 C540 0.950 . S
H533 C545 0.950 . S
H534 C542 0.950 . S
H535 C544 0.950 . S
H536 C546 0.950 . S
H537 C548 0.950 . S
H538 C550 0.950 . S
H539 C551 0.950 . S
C540 H532 0.950 . S
C540 C541 1.386 . S
C540 C542 1.391 . S
C541 C540 1.386 . S
C541 C545 1.393 . S
C542 H534 0.950 . S
C542 C540 1.391 . S
C542 C543 1.400 . S
C543 C542 1.400 . S
C543 C544 1.398 . S
C543 C549 1.491 . S
C544 H535 0.950 . S
C544 C543 1.398 . S
C544 C545 1.391 . S
C545 H533 0.950 . S
C545 C541 1.393 . S
C545 C544 1.391 . S
C546 H536 0.950 . S
C546 C547 1.386 . S
C546 C548 1.391 . S
C547 C546 1.386 . S
C547 C551 1.393 . S
C548 H537 0.950 . S
C548 C546 1.391 . S
C548 C549 1.400 . S
C549 C543 1.491 . S
C549 C548 1.400 . S
C549 C550 1.398 . S
C550 H538 0.950 . S
C550 C549 1.398 . S
C550 C551 1.391 . S
C551 H539 0.950 . S
C551 C547 1.393 . S
C551 C550 1.391 . S
H552 C560 0.950 . S
H553 C565 0.950 . S
H554 C562 0.950 . S
H555 C564 0.950 . S
H556 C566 0.950 . S
H557 C568 0.950 . S
H558 C570 0.950 . S
H559 C571 0.950 . S
C560 H552 0.950 . S
C560 C561 1.386 . S
C560 C562 1.391 . S
C561 C560 1.386 . S
C561 C565 1.393 . S
C562 H554 0.950 . S
C562 C560 1.391 . S
C562 C563 1.400 . S
C563 C562 1.400 . S
C563 C564 1.398 . S
C563 C569 1.491 . S
C564 H555 0.950 . S
C564 C563 1.398 . S
C564 C565 1.391 . S
C565 H553 0.950 . S
C565 C561 1.393 . S
C565 C564 1.391 . S
C566 H556 0.950 . S
C566 C567 1.386 . S
C566 C568 1.391 . S
C567 C566 1.386 . S
C567 C571 1.393 . S
C568 H557 0.950 . S
C568 C566 1.391 . S
C568 C569 1.400 . S
C569 C563 1.491 . S
C569 C568 1.400 . S
C569 C570 1.398 . S
C570 H558 0.950 . S
C570 C569 1.398 . S
C570 C571 1.391 . S
C571 H559 0.950 . S
C571 C567 1.393 . S
C571 C570 1.391 . S
H572 C580 0.950 . S
H573 C585 0.950 . S
H574 C582 0.950 . S
H575 C584 0.950 . S
H576 C586 0.950 . S
H577 C588 0.950 . S
H578 C590 0.950 . S
H579 C591 0.950 . S
C580 H572 0.950 . S
C580 C581 1.386 . S
C580 C582 1.391 . S
C581 C580 1.386 . S
C581 C585 1.393 . S
C582 H574 0.950 . S
C582 C580 1.391 . S
C582 C583 1.400 . S
C583 C582 1.400 . S
C583 C584 1.398 . S
C583 C589 1.491 . S
C584 H575 0.950 . S
C584 C583 1.398 . S
C584 C585 1.391 . S
C585 H573 0.950 . S
C585 C581 1.393 . S
C585 C584 1.391 . S
C586 H576 0.950 . S
C586 C587 1.386 . S
C586 C588 1.391 . S
C587 C586 1.386 . S
C587 C591 1.393 . S
C588 H577 0.950 . S
C588 C586 1.391 . S
C588 C589 1.400 . S
C589 C583 1.491 . S
C589 C588 1.400 . S
C589 C590 1.398 . S
C590 H578 0.950 . S
C590 C589 1.398 . S
C590 C591 1.391 . S
C591 H579 0.950 . S
C591 C587 1.393 . S
C591 C590 1.391 . S
H592 C600 0.950 . S
H593 C605 0.950 . S
H594 C602 0.950 . S
H595 C604 0.950 . S
H596 C606 0.950 . S
H597 C608 0.950 . S
H598 C610 0.950 . S
H599 C611 0.950 . S
C600 H592 0.950 . S
C600 C601 1.386 . S
C600 C602 1.391 . S
C601 C600 1.386 . S
C601 C605 1.393 . S
C602 H594 0.950 . S
C602 C600 1.391 . S
C602 C603 1.400 . S
C603 C602 1.400 . S
C603 C604 1.398 . S
C603 C609 1.491 . S
C604 H595 0.950 . S
C604 C603 1.398 . S
C604 C605 1.391 . S
C605 H593 0.950 . S
C605 C601 1.393 . S
C605 C604 1.391 . S
C606 H596 0.950 . S
C606 C607 1.386 . S
C606 C608 1.391 . S
C607 C606 1.386 . S
C607 C611 1.393 . S
C608 H597 0.950 . S
C608 C606 1.391 . S
C608 C609 1.400 . S
C609 C603 1.491 . S
C609 C608 1.400 . S
C609 C610 1.398 . S
C610 H598 0.950 . S
C610 C609 1.398 . S
C610 C611 1.391 . S
C611 H599 0.950 . S
C611 C607 1.393 . S
C611 C610 1.391 . S
H612 C620 0.950 . S
H613 C625 0.950 . S
H614 C622 0.950 . S
H615 C624 0.950 . S
H616 C626 0.950 . S
H617 C628 0.950 . S
H618 C630 0.950 . S
H619 C631 0.950 . S
C620 H612 0.950 . S
C620 C621 1.386 . S
C620 C622 1.391 . S
C621 C620 1.386 . S
C621 C625 1.393 . S
C622 H614 0.950 . S
C622 C620 1.391 . S
C622 C623 1.400 . S
C623 C622 1.400 . S
C623 C624 1.398 . S
C623 C629 1.491 . S
C624 H615 0.950 . S
C624 C623 1.398 . S
C624 C625 1.391 . S
C625 H613 0.950 . S
C625 C621 1.393 . S
C625 C624 1.391 . S
C626 H616 0.950 . S
C626 C627 1.386 . S
C626 C628 1.391 . S
C627 C626 1.386 . S
C627 C631 1.393 . S
C628 H617 0.950 . S
C628 C626 1.391 . S
C628 C629 1.400 . S
C629 C623 1.491 . S
C629 C628 1.400 . S
C629 C630 1.398 . S
C630 H618 0.950 . S
C630 C629 1.398 . S
C630 C631 1.391 . S
C631 H619 0.950 . S
C631 C627 1.393 . S
C631 C630 1.391 . S
H632 C640 0.950 . S
H633 C645 0.950 . S
H634 C642 0.950 . S
H635 C644 0.950 . S
H636 C646 0.950 . S
H637 C648 0.950 . S
H638 C650 0.950 . S
H639 C651 0.950 . S
C640 H632 0.950 . S
C640 C641 1.386 . S
C640 C642 1.391 . S
C641 C640 1.386 . S
C641 C645 1.393 . S
C642 H634 0.950 . S
C642 C640 1.391 . S
C642 C643 1.400 . S
C643 C642 1.400 . S
C643 C644 1.398 . S
C643 C649 1.491 . S
C644 H635 0.950 . S
C644 C643 1.398 . S
C644 C645 1.391 . S
C645 H633 0.950 . S
C645 C641 1.393 . S
C645 C644 1.391 . S
C646 H636 0.950 . S
C646 C647 1.386 . S
C646 C648 1.391 . S
C647 C646 1.386 . S
C647 C651 1.393 . S
C648 H637 0.950 . S
C648 C646 1.391 . S
C648 C649 1.400 . S
C649 C643 1.491 . S
C649 C648 1.400 . S
C649 C650 1.398 . S
C650 H638 0.950 . S
C650 C649 1.398 . S
C650 C651 1.391 . S
C651 H639 0.950 . S
C651 C647 1.393 . S
C651 C650 1.391 . S
H652 C660 0.950 . S
H653 C665 0.950 . S
H654 C662 0.950 . S
H655 C664 0.950 . S
H656 C666 0.950 . S
H657 C668 0.950 . S
H658 C670 0.950 . S
H659 C671 0.950 . S
C660 H652 0.950 . S
C660 C661 1.386 . S
C660 C662 1.391 . S
C661 C660 1.386 . S
C661 C665 1.393 . S
C662 H654 0.950 . S
C662 C660 1.391 . S
C662 C663 1.400 . S
C663 C662 1.400 . S
C663 C664 1.398 . S
C663 C669 1.491 . S
C664 H655 0.950 . S
C664 C663 1.398 . S
C664 C665 1.391 . S
C665 H653 0.950 . S
C665 C661 1.393 . S
C665 C664 1.391 . S
C666 H656 0.950 . S
C666 C667 1.386 . S
C666 C668 1.391 . S
C667 C666 1.386 . S
C667 C671 1.393 . S
C668 H657 0.950 . S
C668 C666 1.391 . S
C668 C669 1.400 . S
C669 C663 1.491 . S
C669 C668 1.400 . S
C669 C670 1.398 . S
C670 H658 0.950 . S
C670 C669 1.398 . S
C670 C671 1.391 . S
C671 H659 0.950 . S
C671 C667 1.393 . S
C671 C670 1.391 . S
H672 C680 0.950 . S
H673 C685 0.950 . S
H674 C682 0.950 . S
H675 C684 0.950 . S
H676 C686 0.950 . S
H677 C688 0.950 . S
H678 C690 0.950 . S
H679 C691 0.950 . S
C680 H672 0.950 . S
C680 C681 1.386 . S
C680 C682 1.391 . S
C681 C680 1.386 . S
C681 C685 1.393 . S
C682 H674 0.950 . S
C682 C680 1.391 . S
C682 C683 1.400 . S
C683 C682 1.400 . S
C683 C684 1.398 . S
C683 C689 1.491 . S
C684 H675 0.950 . S
C684 C683 1.398 . S
C684 C685 1.391 . S
C685 H673 0.950 . S
C685 C681 1.393 . S
C685 C684 1.391 . S
C686 H676 0.950 . S
C686 C687 1.386 . S
C686 C688 1.391 . S
C687 C686 1.386 . S
C687 C691 1.393 . S
C688 H677 0.950 . S
C688 C686 1.391 . S
C688 C689 1.400 . S
C689 C683 1.491 . S
C689 C688 1.400 . S
C689 C690 1.398 . S
C690 H678 0.950 . S
C690 C689 1.398 . S
C690 C691 1.391 . S
C691 H679 0.950 . S
C691 C687 1.393 . S
C691 C690 1.391 . S
H692 C700 0.950 . S
H693 C705 0.950 . S
H694 C702 0.950 . S
H695 C704 0.950 . S
H696 C706 0.950 . S
H697 C708 0.950 . S
H698 C710 0.950 . S
H699 C711 0.950 . S
C700 H692 0.950 . S
C700 C701 1.386 . S
C700 C702 1.391 . S
C701 C700 1.386 . S
C701 C705 1.393 . S
C702 H694 0.950 . S
C702 C700 1.391 . S
C702 C703 1.400 . S
C703 C702 1.400 . S
C703 C704 1.398 . S
C703 C709 1.491 . S
C704 H695 0.950 . S
C704 C703 1.398 . S
C704 C705 1.391 . S
C705 H693 0.950 . S
C705 C701 1.393 . S
C705 C704 1.391 . S
C706 H696 0.950 . S
C706 C707 1.386 . S
C706 C708 1.391 . S
C707 C706 1.386 . S
C707 C711 1.393 . S
C708 H697 0.950 . S
C708 C706 1.391 . S
C708 C709 1.400 . S
C709 C703 1.491 . S
C709 C708 1.400 . S
C709 C710 1.398 . S
C710 H698 0.950 . S
C710 C709 1.398 . S
C710 C711 1.391 . S
C711 H699 0.950 . S
C711 C707 1.393 . S
C711 C710 1.391 . S
C241 C5 1.019 . S
C247 C79 1.033 . S
C261 C14 0.917 . S
C267 C128 0.919 . S
C287 C154 2.480 . S
C281 C25 2.527 . S
C301 C34 2.441 . S
C307 C202 2.398 . S
C327 C114 2.047 . S
C321 C7 1.964 . S
C347 C82 0.755 . S
C341 C13 0.767 . S
C367 C203 1.909 . S
C361 C23 1.958 . S
C387 C171 1.681 . S
C381 C31 1.698 . S
C401 C4 1.423 . S
C407 C199 1.450 . S
C427 C131 2.338 . S
C421 C22 2.407 . S
C441 C32 2.357 . S
C447 C83 2.342 . S
C461 C16 0.848 . S
C467 C168 0.837 . S
C487 C88 1.020 . S
C481 C41 1.012 . S
C501 C50 0.937 . S
C507 C119 0.933 . S
C521 C61 2.520 . S
C527 C163 2.472 . S
C541 C67 2.448 . S
C547 C211 2.397 . S
C561 C40 1.996 . S
C567 C123 2.063 . S
C587 C91 0.747 . S
C581 C52 0.723 . S
C607 C194 1.920 . S
C601 C59 1.969 . S
C627 C162 1.668 . S
C621 C70 1.696 . S
C641 C43 1.411 . S
C647 C208 1.452 . S
C667 C122 2.346 . S
C661 C58 2.418 . S
C687 C74 2.321 . S
C681 C68 2.335 . S
C701 C49 0.860 . S
C707 C159 0.849 . S
