# Generated by pormake.
# Topology zzz, (3,6)-cn, num edge types: 1
# Building blocks:
#     Node 0, Type 0, BuildingBlock: BETDAH_clean_linker_0, # of connection points: 3
#     Node 1, Type 0, BuildingBlock: BETDAH_clean_linker_0, # of connection points: 3
#     Node 2, Type 0, BuildingBlock: BETDAH_clean_linker_0, # of connection points: 3
#     Node 3, Type 0, BuildingBlock: BETDAH_clean_linker_0, # of connection points: 3
#     Node 4, Type 0, BuildingBlock: BETDAH_clean_linker_0, # of connection points: 3
#     Node 5, Type 0, BuildingBlock: BETDAH_clean_linker_0, # of connection points: 3
#     Node 6, Type 0, BuildingBlock: BETDAH_clean_linker_0, # of connection points: 3
#     Node 7, Type 0, BuildingBlock: BETDAH_clean_linker_0, # of connection points: 3
#     Node 8, Type 1, BuildingBlock: CUWYAW_clean_sbu_0, # of connection points: 6
#     Node 9, Type 1, BuildingBlock: CUWYAW_clean_sbu_0, # of connection points: 6
#     Node 10, Type 1, BuildingBlock: CUWYAW_clean_sbu_0, # of connection points: 6
#     Node 11, Type 1, BuildingBlock: CUWYAW_clean_sbu_0, # of connection points: 6
#     Edge 12, Type (0, 1), BuildingBlock: CIFDUS_clean_linker_0, # of connection points: 2
#     Edge 13, Type (0, 1), BuildingBlock: CIFDUS_clean_linker_0, # of connection points: 2
#     Edge 14, Type (0, 1), BuildingBlock: CIFDUS_clean_linker_0, # of connection points: 2
#     Edge 15, Type (0, 1), BuildingBlock: CIFDUS_clean_linker_0, # of connection points: 2
#     Edge 16, Type (0, 1), BuildingBlock: CIFDUS_clean_linker_0, # of connection points: 2
#     Edge 17, Type (0, 1), BuildingBlock: CIFDUS_clean_linker_0, # of connection points: 2
#     Edge 18, Type (0, 1), BuildingBlock: CIFDUS_clean_linker_0, # of connection points: 2
#     Edge 19, Type (0, 1), BuildingBlock: CIFDUS_clean_linker_0, # of connection points: 2
#     Edge 20, Type (0, 1), BuildingBlock: CIFDUS_clean_linker_0, # of connection points: 2
#     Edge 21, Type (0, 1), BuildingBlock: CIFDUS_clean_linker_0, # of connection points: 2
#     Edge 22, Type (0, 1), BuildingBlock: CIFDUS_clean_linker_0, # of connection points: 2
#     Edge 23, Type (0, 1), BuildingBlock: CIFDUS_clean_linker_0, # of connection points: 2
#     Edge 24, Type (0, 1), BuildingBlock: CIFDUS_clean_linker_0, # of connection points: 2
#     Edge 25, Type (0, 1), BuildingBlock: CIFDUS_clean_linker_0, # of connection points: 2
#     Edge 26, Type (0, 1), BuildingBlock: CIFDUS_clean_linker_0, # of connection points: 2
#     Edge 27, Type (0, 1), BuildingBlock: CIFDUS_clean_linker_0, # of connection points: 2
#     Edge 28, Type (0, 1), BuildingBlock: CIFDUS_clean_linker_0, # of connection points: 2
#     Edge 29, Type (0, 1), BuildingBlock: CIFDUS_clean_linker_0, # of connection points: 2
#     Edge 30, Type (0, 1), BuildingBlock: CIFDUS_clean_linker_0, # of connection points: 2
#     Edge 31, Type (0, 1), BuildingBlock: CIFDUS_clean_linker_0, # of connection points: 2
#     Edge 32, Type (0, 1), BuildingBlock: CIFDUS_clean_linker_0, # of connection points: 2
#     Edge 33, Type (0, 1), BuildingBlock: CIFDUS_clean_linker_0, # of connection points: 2
#     Edge 34, Type (0, 1), BuildingBlock: CIFDUS_clean_linker_0, # of connection points: 2
#     Edge 35, Type (0, 1), BuildingBlock: CIFDUS_clean_linker_0, # of connection points: 2
# Relax obj value: 0.297
# Max RMSD: 0.174
# Mean RMSD: 0.137
data_MOF--net-zzz--node1-CUWYAW_clean_sbu_0--node2-BETDAH_clean_linker_0--edge1-CIFDUS_clean_linker_0
_symmetry_space_group_name_H-M    P1
_symmetry_Int_Tables_number       1
_symmetry_cell_setting            triclinic
loop_
_symmetry_equiv_pos_as_xyz
'x, y, z'
_cell_length_a     44.931396
_cell_length_b     44.80508
_cell_length_c     12.481348
_cell_angle_alpha  89.786371
_cell_angle_beta   89.600098
_cell_angle_gamma 89.741403
loop_
_atom_site_label
_atom_site_type_symbol
_atom_site_fract_x
_atom_site_fract_y
_atom_site_fract_z
_atom_type_partial_charge
H0 H 0.82078 0.47567 0.42705 0.0
H1 H 0.73618 0.48687 0.27353 0.0
H2 H 0.76023 0.54283 0.54046 0.0
C3 C 0.79891 0.48602 0.42441 0.0
C4 C 0.79273 0.50937 0.4949 0.0
C5 C 0.77882 0.4779 0.34407 0.0
C6 C 0.75133 0.49275 0.33711 0.0
C7 C 0.74406 0.5159 0.40913 0.0
C8 C 0.7651 0.5243 0.48753 0.0
N9 N 0.71656 0.5319 0.4014 0.0
C10 C 0.69442 0.52621 0.32574 0.0
H11 H 0.05739 0.8381 0.41156 0.0
H12 H 0.04417 0.7539 0.25638 0.0
H13 H 0.98995 0.77876 0.52943 0.0
C14 C 0.04666 0.81645 0.40967 0.0
C15 C 1.02346 0.81076 0.4818 0.0
C16 C 0.05404 0.79632 0.32778 0.0
C17 C 0.03872 0.76917 0.32074 0.0
C18 C 1.01607 0.7622 0.39548 0.0
C19 C 1.00821 0.78339 0.47479 0.0
N20 N 1.00031 0.73464 0.39117 0.0
C21 C 1.0023 0.71414 0.30711 0.0
H22 H 0.71726 0.98159 0.48972 0.0
H23 H 0.80144 0.98732 0.32722 0.0
H24 H 0.78283 0.04244 0.60328 0.0
C25 C 0.73988 0.98988 0.48538 0.0
C26 C 0.74776 1.01225 0.55701 0.0
C27 C 0.75854 0.98147 0.39992 0.0
C28 C 0.78722 0.99363 0.39346 0.0
C29 C 0.79667 1.01514 0.46807 0.0
C30 C 0.77654 1.02468 0.54947 0.0
N31 N 0.82531 0.02881 0.45864 0.0
C32 C 0.84548 1.02398 0.37398 0.0
H33 H 0.58632 0.73255 0.37972 0.0
H34 H 0.56724 0.8223 0.28227 0.0
H35 H 0.51855 0.78259 0.54525 0.0
C36 C 0.57442 0.75331 0.39267 0.0
C37 C 0.55185 0.75406 0.47084 0.0
C38 C 0.57926 0.77733 0.32182 0.0
C39 C 0.56382 0.80411 0.33833 0.0
C40 C 0.54218 0.80649 0.41971 0.0
C41 C 0.53626 0.78132 0.48614 0.0
N42 N 0.52464 0.83304 0.43022 0.0
C43 C 0.52402 0.85624 0.35423 0.0
H44 H 0.22035 0.56821 0.1219 0.0
H45 H 0.3048 0.55318 0.27172 0.0
H46 H 0.2681 0.48704 0.05962 0.0
C47 C 0.2405 0.55501 0.13031 0.0
C48 C 0.24193 0.52738 0.07886 0.0
C49 C 0.26275 0.56432 0.20119 0.0
C50 C 0.28776 0.54602 0.21673 0.0
C51 C 0.29015 0.51815 0.16523 0.0
C52 C 0.26691 0.5088 0.09695 0.0
N53 N 0.31498 0.49883 0.18434 0.0
C54 C 0.33637 0.50384 0.26338 0.0
H55 H 0.96584 0.23969 0.0841 0.0
H56 H 0.97549 0.32544 0.23013 0.0
H57 H 0.03871 0.29575 0.99018 0.0
C58 C 0.97681 0.26122 0.08656 0.0
C59 C 1.00276 0.26528 0.02608 0.0
C60 C 0.9672 0.28245 0.16134 0.0
C61 C 0.98272 0.3094 0.17063 0.0
C62 C 1.00811 0.31489 0.10632 0.0
C63 C 1.01833 0.29241 0.03548 0.0
N64 N 0.02447 0.34201 0.11501 0.0
C65 C 1.02021 0.36281 0.19701 0.0
H66 H 0.32063 0.98861 0.17835 0.0
H67 H 0.23221 0.9978 0.30695 0.0
H68 H 0.26329 0.05726 0.05646 0.0
C69 C 0.29883 0.99914 0.17602 0.0
C70 C 0.29462 1.02341 0.10753 0.0
C71 C 0.27664 0.98986 0.24817 0.0
C72 C 0.24906 1.00467 0.24965 0.0
C73 C 0.24372 0.02864 0.1784 0.0
C74 C 0.26688 0.03827 0.10883 0.0
N75 N 0.21573 0.04385 0.17629 0.0
C76 C 0.19147 0.03767 0.24369 0.0
H77 H 0.56437 0.32491 0.09652 0.0
H78 H 0.55682 0.24157 0.26605 0.0
H79 H 0.48326 0.27543 0.07939 0.0
C80 C 0.55205 0.30477 0.11544 0.0
C81 C 0.52299 0.3025 0.07791 0.0
C82 C 0.56449 0.28306 0.18345 0.0
C83 C 0.54742 0.25806 0.21236 0.0
C84 C 0.51807 0.2549 0.1747 0.0
C85 C 0.50598 0.27729 0.10691 0.0
N86 N 0.49999 0.23017 0.20649 0.0
C87 C 0.5077 0.20901 0.28474 0.0
C88 C 0.95586 0.05596 0.56435 0.0
Eu89 Eu 0.99135 0.03684 0.71339 0.0
C90 C 0.95168 0.08697 0.52721 0.0
C91 C 0.92312 0.09985 0.52474 0.0
C92 C 0.91965 0.13064 0.5082 0.0
C93 C 0.94476 0.14896 0.49511 0.0
C94 C 0.97317 0.13573 0.49362 0.0
C95 C 0.97661 0.10518 0.50962 0.0
C96 C 0.97091 1.02425 0.91483 0.0
C97 C 1.01462 0.09807 0.8253 0.0
C98 C 0.07535 1.01822 0.01599 0.0
Eu99 Eu 0.03861 0.03338 0.86444 0.0
C100 C 0.09277 0.99101 0.03565 0.0
C101 C 0.09933 0.97135 0.95127 0.0
C102 C 0.11067 0.94288 0.97275 0.0
C103 C 0.1155 0.93365 0.07898 0.0
C104 C 0.1111 0.95439 0.16235 0.0
C105 C 0.09974 0.98281 0.14073 0.0
C106 C 0.05883 0.04807 0.66584 0.0
C107 C 1.01575 0.9717 0.74427 0.0
O108 O 0.98176 0.0437 0.54386 0.0
O109 O 0.94706 0.05097 0.66256 0.0
O110 O 0.96218 1.0109 0.82858 0.0
O111 O 0.99071 0.04328 0.89158 0.0
O112 O 1.00359 0.08566 0.73864 0.0
O113 O 0.02679 0.08129 0.89999 0.0
O114 O 0.0465 1.015 0.02378 0.0
O115 O 0.08315 0.03395 0.93229 0.0
O116 O 0.06695 0.06096 0.75337 0.0
O117 O 0.03987 0.02789 0.68605 0.0
O118 O 0.03155 0.984 0.82172 0.0
O119 O 0.99871 0.98819 0.68239 0.0
H120 H 0.90361 0.08626 0.53928 0.0
H121 H 0.89748 0.14022 0.50868 0.0
H122 H 0.99293 0.14906 0.48056 0.0
H123 H 0.99897 0.09605 0.51188 0.0
H124 H 0.09418 0.9774 0.86933 0.0
H125 H 0.11405 0.92754 0.90687 0.0
H126 H 0.11417 0.94795 0.24527 0.0
H127 H 0.09472 0.99772 0.20668 0.0
C128 C 0.49507 0.9893 0.51178 0.0
Eu129 Eu 0.51313 1.00857 0.69549 0.0
C130 C 0.47069 0.96863 0.48971 0.0
C131 C 0.46028 0.96518 0.38528 0.0
C132 C 0.43351 0.9503 0.36745 0.0
C133 C 0.41667 0.93899 0.45408 0.0
C134 C 0.42821 0.94088 0.558 0.0
C135 C 0.45512 0.95548 0.57559 0.0
C136 C 0.52779 0.97187 0.8658 0.0
C137 C 0.4581 0.02624 0.85641 0.0
C138 C 0.5389 0.05317 0.10513 0.0
Eu139 Eu 0.52708 0.04564 0.90561 0.0
C140 C 0.56196 0.0361 0.16351 0.0
C141 C 0.59009 0.0488 0.17848 0.0
C142 C 0.61465 0.03068 0.20023 0.0
C143 C 0.61155 0.9995 0.20794 0.0
C144 C 0.58295 0.98716 0.20467 0.0
C145 C 0.55836 1.00527 0.18258 0.0
C146 C 0.52058 0.0797 0.72684 0.0
C147 C 0.58007 0.03025 0.73956 0.0
O148 O 0.48643 1.0148 0.55263 0.0
O149 O 0.51807 0.97785 0.5613 0.0
O150 O 0.51954 0.96183 0.77361 0.0
O151 O 0.52746 0.99967 0.85808 0.0
O152 O 0.46756 1.0105 0.773 0.0
O153 O 0.47623 0.04288 0.91502 0.0
O154 O 0.51593 0.0377 0.07324 0.0
O155 O 0.54892 0.0713 0.03042 0.0
O156 O 0.53588 0.08778 0.81009 0.0
O157 O 0.50644 0.05591 0.74836 0.0
O158 O 0.57302 0.03156 0.84299 0.0
O159 O 0.55942 0.0265 0.66551 0.0
H160 H 0.47193 0.97539 0.31835 0.0
H161 H 0.42487 0.94972 0.28668 0.0
H162 H 0.41564 0.93252 0.62606 0.0
H163 H 0.46287 0.95803 0.657 0.0
H164 H 0.59352 0.07248 0.16583 0.0
H165 H 0.63628 0.04103 0.20747 0.0
H166 H 0.57977 0.96335 0.21353 0.0
H167 H 0.5369 0.9947 0.1734 0.0
C168 C 0.57086 0.48773 0.53147 0.0
Eu169 Eu 0.54071 0.51156 0.68696 0.0
C170 C 0.58511 0.45812 0.5275 0.0
C171 C 0.61284 0.45391 0.47751 0.0
C172 C 0.62581 0.42538 0.47374 0.0
C173 C 0.61104 0.40058 0.51921 0.0
C174 C 0.58395 0.4056 0.57408 0.0
C175 C 0.57135 0.43393 0.57875 0.0
C176 C 0.5681 0.52007 0.87807 0.0
C177 C 0.50804 0.46868 0.85853 0.0
C178 C 0.48943 0.57207 0.02597 0.0
Eu179 Eu 0.50229 0.54118 0.85871 0.0
C180 C 0.50491 0.59992 0.05014 0.0
C181 C 0.48908 0.62495 0.08607 0.0
C182 C 0.50212 0.65319 0.0804 0.0
C183 C 0.531 0.65677 0.03732 0.0
C184 C 0.54707 0.63147 1.00509 0.0
C185 C 0.5341 0.6034 0.01155 0.0
C186 C 0.46542 0.52506 0.69468 0.0
C187 C 0.52977 0.58382 0.67407 0.0
O188 O 0.54168 0.48775 0.53546 0.0
O189 O 0.5826 0.50645 0.5991 0.0
O190 O 0.56973 0.49569 0.82319 0.0
O191 O 0.55146 0.5388 0.83076 0.0
O192 O 0.51878 0.47053 0.75958 0.0
O193 O 0.50288 0.49295 0.91654 0.0
O194 O 0.5056 0.5476 0.0315 0.0
O195 O 0.47381 0.57375 0.93808 0.0
O196 O 0.45641 0.53726 0.78306 0.0
O197 O 0.49317 0.52108 0.69984 0.0
O198 O 0.51871 0.58245 0.77197 0.0
O199 O 0.53736 0.55923 0.62144 0.0
H200 H 0.62421 0.47254 0.44012 0.0
H201 H 0.6469 0.4227 0.43245 0.0
H202 H 0.57123 0.38745 0.60855 0.0
H203 H 0.55025 0.43665 0.62005 0.0
H204 H 0.46626 0.62284 0.11364 0.0
H205 H 0.48945 0.67227 0.10858 0.0
H206 H 0.56923 0.63344 0.97117 0.0
H207 H 0.54617 0.58453 0.97977 0.0
C208 C 0.04625 0.59504 0.52875 0.0
Eu209 Eu 0.02517 0.56074 0.67999 0.0
C210 C 0.07623 0.60579 0.50224 0.0
C211 C 0.08041 0.63501 0.46441 0.0
C212 C 0.10911 0.64544 0.44142 0.0
C213 C 0.134 0.62679 0.45689 0.0
C214 C 0.12952 0.59774 0.49724 0.0
C215 C 0.10102 0.5874 0.51973 0.0
C216 C 1.00776 0.58377 0.8719 0.0
C217 C 0.0806 0.53171 0.81615 0.0
C218 C 0.99321 0.48929 0.02657 0.0
Eu219 Eu 1.01136 0.51467 0.85121 0.0
C220 C 0.96983 0.46731 0.04704 0.0
C221 C 0.95248 0.45682 0.96211 0.0
C222 C 0.92705 0.4399 0.98291 0.0
C223 C 0.91857 0.43337 0.08902 0.0
C224 C 0.93751 0.4419 0.17306 0.0
C225 C 0.96288 0.45888 0.15211 0.0
C226 C 1.01596 0.48428 0.66267 0.0
C227 C 0.95797 0.53876 0.69426 0.0
O228 O 0.04148 0.56645 0.51634 0.0
O229 O 0.03518 0.60518 0.61841 0.0
O230 O 0.99784 0.5927 0.77989 0.0
O231 O 0.02559 0.5621 0.85878 0.0
O232 O 0.07185 0.54806 0.73353 0.0
O233 O 0.0612 0.51772 0.87846 0.0
O234 O 0.98362 0.51552 0.99444 0.0
O235 O 1.01615 0.47965 0.97122 0.0
O236 O 1.01062 0.47211 0.75474 0.0
O237 O 1.0191 0.5121 0.67452 0.0
O238 O 0.9648 0.52753 0.78968 0.0
O239 O 0.97876 0.54956 0.62996 0.0
H240 H 0.0615 0.64967 0.4521 0.0
H241 H 0.11178 0.66785 0.41015 0.0
H242 H 0.14795 0.58234 0.50731 0.0
H243 H 0.0984 0.56482 0.54936 0.0
H244 H 0.95769 0.46311 0.88022 0.0
H245 H 0.91303 0.43354 0.9166 0.0
H246 H 0.93149 0.43766 0.25589 0.0
H247 H 0.97603 0.46687 0.21837 0.0
H248 H 0.15638 0.08106 0.32181 0.0
H249 H 0.16805 0.98568 0.31748 0.0
H250 H 0.12496 0.97968 0.43807 0.0
H251 H 0.08596 1.00226 0.55604 0.0
H252 H 0.07672 0.09797 0.56525 0.0
H253 H 0.11611 0.10326 0.43052 0.0
C254 C 0.14931 0.05899 0.34703 0.0
C255 C 0.16537 0.03386 0.31201 0.0
C256 C 0.1247 0.05583 0.41681 0.0
C257 C 0.15608 1.00534 0.34447 0.0
C258 C 0.13141 1.00194 0.4132 0.0
C259 C 0.0921 1.02415 0.52612 0.0
C260 C 0.07816 0.04974 0.56923 0.0
C261 C 0.11571 0.02707 0.45113 0.0
C262 C 0.0869 0.07801 0.53221 0.0
C263 C 0.1096 0.08105 0.45584 0.0
H264 H 0.48085 0.15575 0.31971 0.0
H265 H 0.54934 0.21367 0.43826 0.0
H266 H 0.56005 0.17823 0.58307 0.0
H267 H 0.54917 0.13134 0.67898 0.0
H268 H 0.47989 0.07363 0.56464 0.0
H269 H 0.47043 0.108 0.41526 0.0
C270 C 0.4982 0.16044 0.37715 0.0
C271 C 0.51441 0.18721 0.36834 0.0
C272 C 0.50409 0.13992 0.46094 0.0
C273 C 0.53671 0.19316 0.4432 0.0
C274 C 0.54278 0.17291 0.52614 0.0
C275 C 0.53204 0.12619 0.62119 0.0
C276 C 0.51535 0.09976 0.633 0.0
C277 C 0.52652 0.1463 0.53624 0.0
C278 C 0.49329 0.09355 0.55713 0.0
C279 C 0.48776 0.11334 0.4719 0.0
H280 H 0.39582 0.49184 0.26865 0.0
H281 H 0.3229 0.52789 0.45393 0.0
H282 H 0.35636 0.53716 0.60405 0.0
H283 H 0.40621 0.53525 0.68281 0.0
H284 H 0.4799 0.49967 0.50023 0.0
H285 H 0.44652 0.48986 0.34934 0.0
C286 C 0.38741 0.50174 0.34207 0.0
C287 C 0.35698 0.50926 0.35064 0.0
C288 C 0.40692 0.507 0.42848 0.0
C289 C 0.34623 0.522 0.44577 0.0
C290 C 0.36536 0.52727 0.53157 0.0
C291 C 0.41501 0.52526 0.61012 0.0
C292 C 0.44555 0.51814 0.60302 0.0
C293 C 0.39572 0.51987 0.52393 0.0
C294 C 0.45652 0.50529 0.50801 0.0
C295 C 0.43741 0.49974 0.42165 0.0
H296 H 0.02936 0.42286 0.20523 0.0
H297 H 1.0034 0.34641 0.39407 0.0
H298 H 0.99925 0.37765 0.55369 0.0
H299 H 1.00431 0.42593 0.64077 0.0
H300 H 0.0304 0.50335 0.45747 0.0
H301 H 0.0333 0.47266 0.2944 0.0
C302 C 1.02269 0.41323 0.28151 0.0
C303 C 1.01664 0.38243 0.28858 0.0
C304 C 1.02055 0.43145 0.37364 0.0
C305 C 1.00804 0.37007 0.38715 0.0
C306 C 1.00575 0.3879 0.47835 0.0
C307 C 1.01062 0.43622 0.56519 0.0
C308 C 1.01731 0.46689 0.56145 0.0
C309 C 1.01217 0.41851 0.47272 0.0
C310 C 0.02524 0.47979 0.46261 0.0
C311 C 0.02691 0.46221 0.3695 0.0
H312 H 0.89977 0.04955 0.34835 0.0
H313 H 0.83827 0.98913 0.19974 0.0
H314 H 0.87232 0.9826 0.04841 0.0
H315 H 0.91889 0.9951 0.95437 0.0
H316 H 0.98041 0.05645 0.09803 0.0
H317 H 0.94748 0.06133 0.25474 0.0
C318 C 0.89397 0.03488 0.28283 0.0
C319 C 0.86649 1.0198 0.28541 0.0
C320 C 0.91376 0.03137 0.19494 0.0
C321 C 0.85921 1.00093 0.20014 0.0
C322 C 0.87873 0.9972 0.11324 0.0
C323 C 0.92525 1.00939 0.02024 0.0
C324 C 0.95216 0.02541 0.01407 0.0
C325 C 0.90598 1.01241 0.10932 0.0
C326 C 0.95989 0.04385 0.10043 0.0
C327 C 0.94099 0.04672 0.19002 0.0
H328 H 0.56643 0.87723 0.21721 0.0
H329 H 0.47487 0.88885 0.31348 0.0
H330 H 0.46824 0.92733 0.17531 0.0
H331 H 0.48789 0.95655 0.02163 0.0
H332 H 0.57903 0.94422 0.92253 0.0
H333 H 0.58663 0.90777 0.06711 0.0
C334 C 0.54512 0.88841 0.20828 0.0
C335 C 0.52111 0.88018 0.2751 0.0
C336 C 0.54148 0.91062 0.12842 0.0
C337 C 0.49364 0.89479 0.26283 0.0
C338 C 0.48986 0.91686 0.18403 0.0
C339 C 0.50951 0.94622 0.03329 0.0
C340 C 0.53303 0.95333 0.96272 0.0
C341 C 0.51353 0.92488 0.11582 0.0
C342 C 0.56076 0.93937 0.97689 0.0
C343 C 0.56502 0.91836 0.05909 0.0
H344 H 0.66727 0.56653 0.1969 0.0
H345 H 0.66813 0.47352 0.28517 0.0
H346 H 0.62794 0.46364 0.15826 0.0
H347 H 0.5933 0.48129 0.01825 0.0
H348 H 0.59383 0.57391 0.92436 0.0
H349 H 0.63208 0.58431 0.05766 0.0
C350 C 0.65858 0.54414 0.18801 0.0
C351 C 0.67063 0.5207 0.24966 0.0
C352 C 0.63546 0.53867 0.11446 0.0
C353 C 0.65923 0.49182 0.23807 0.0
C354 C 0.63623 0.48621 0.16562 0.0
C355 C 0.6016 0.50381 0.02785 0.0
C356 C 0.58994 0.527 0.96372 0.0
C357 C 0.62425 0.50942 0.10293 0.0
C358 C 0.60134 0.55593 0.97581 0.0
C359 C 0.62364 0.56178 0.05093 0.0
H360 H 1.02355 0.65726 0.30291 0.0
H361 H 0.97868 0.72405 0.11371 0.0
H362 H 0.97495 0.68903 0.96424 0.0
H363 H 0.98474 0.63971 0.88661 0.0
H364 H 0.03099 0.57277 0.0713 0.0
H365 H 0.03367 0.60723 0.22348 0.0
C366 C 1.01312 0.66405 0.22858 0.0
C367 C 1.00151 0.69317 0.21854 0.0
C368 C 1.01113 0.64368 0.14265 0.0
C369 C 0.98787 0.70178 0.1226 0.0
C370 C 0.98567 0.68173 0.03738 0.0
C371 C 0.99524 0.63252 0.96035 0.0
C372 C 1.00756 0.6036 0.96751 0.0
C373 C 0.99718 0.65263 0.04645 0.0
C374 C 1.02125 0.59483 0.06366 0.0
C375 C 1.02288 0.61459 0.15056 0.0
H376 H 0.97834 0.27747 0.37102 0.0
H377 H 0.91053 0.26161 0.1365 0.0
H378 H 0.89208 0.21925 0.24086 0.0
H379 H 0.90627 0.17863 0.3643 0.0
H380 H 0.97765 0.19266 0.58748 0.0
H381 H 0.98359 0.24364 0.52347 0.0
C382 C 0.95842 0.26582 0.34621 0.0
C383 C 0.94631 0.27194 0.24515 0.0
C384 C 0.94945 0.24024 0.40258 0.0
C385 C 0.92036 0.25696 0.21384 0.0
C386 C 0.91025 0.23232 0.27239 0.0
C387 C 0.9223 0.19324 0.40167 0.0
C388 C 0.94206 0.18165 0.47832 0.0
C389 C 0.92632 0.22232 0.36164 0.0
C390 C 0.96263 0.20088 0.5266 0.0
C391 C 0.96607 0.23007 0.48996 0.0
H392 H 0.29834 0.93417 0.21892 0.0
H393 H 0.27713 0.99838 0.46356 0.0
H394 H 0.31819 0.97995 0.57261 0.0
H395 H 0.3688 0.95935 0.56395 0.0
H396 H 0.39399 0.90152 0.30299 0.0
H397 H 0.34319 0.90339 0.23457 0.0
C398 C 0.30177 0.94284 0.29896 0.0
C399 C 0.28565 0.96823 0.33176 0.0
C400 C 0.32719 0.93414 0.35579 0.0
C401 C 0.28963 0.97911 0.43596 0.0
C402 C 0.3136 0.96901 0.49723 0.0
C403 C 0.36281 0.94604 0.495 0.0
C404 C 0.38515 0.93089 0.43688 0.0
C405 C 0.33404 0.94863 0.45294 0.0
C406 C 0.37719 0.91377 0.34761 0.0
C407 C 0.34818 0.91493 0.30841 0.0
H408 H 0.57683 0.27734 0.39602 0.0
H409 H 0.61578 0.30621 0.09676 0.0
H410 H 0.64362 0.34468 0.18951 0.0
H411 H 0.63976 0.37973 0.33919 0.0
H412 H 0.60383 0.34952 0.64233 0.0
H413 H 0.59256 0.30124 0.56404 0.0
C414 C 0.59274 0.29079 0.35162 0.0
C415 C 0.59263 0.29056 0.23897 0.0
C416 C 0.60826 0.31328 0.40535 0.0
C417 C 0.61438 0.30715 0.1834 0.0
C418 C 0.63011 0.32939 0.23627 0.0
C419 C 0.63091 0.36233 0.39061 0.0
C420 C 0.62006 0.36923 0.4938 0.0
C421 C 0.62463 0.33448 0.34531 0.0
C422 C 0.61018 0.34558 0.5597 0.0
C423 C 0.60382 0.31782 0.51523 0.0
H424 H 0.23825 0.61815 0.14957 0.0
H425 H 0.27113 0.56724 0.41792 0.0
H426 H 0.23723 0.59349 0.53769 0.0
H427 H 0.18743 0.6156 0.55084 0.0
H428 H 0.14827 0.65657 0.27169 0.0
H429 H 0.19487 0.65064 0.17366 0.0
C430 C 0.23871 0.61369 0.23506 0.0
C431 C 0.25592 0.58969 0.27379 0.0
C432 C 0.21697 0.62657 0.30147 0.0
C433 C 0.25754 0.58503 0.3851 0.0
C434 C 0.23769 0.59972 0.45369 0.0
C435 C 0.18943 0.62401 0.46948 0.0
C436 C 0.16406 0.63516 0.41705 0.0
C437 C 0.21544 0.61814 0.41059 0.0
C438 C 0.16724 0.64731 0.31356 0.0
C439 C 0.19387 0.64358 0.25677 0.0
H440 H 0.10957 0.81872 0.34719 0.0
H441 H 0.04166 0.79997 0.11541 0.0
H442 H 0.06139 0.83874 0.99717 0.0
H443 H 0.08711 0.88672 0.98953 0.0
H444 H 0.15188 0.90847 0.23038 0.0
H445 H 0.14444 0.85983 0.31506 0.0
C446 C 0.10007 0.82224 0.26842 0.0
C447 C 0.07381 0.80721 0.24096 0.0
C448 C 0.11032 0.84588 0.2044 0.0
C449 C 0.06177 0.81147 0.13851 0.0
C450 C 0.07275 0.83403 0.07172 0.0
C451 C 0.10062 0.88038 0.05767 0.0
C452 C 0.11937 0.90154 0.10564 0.0
C453 C 0.09541 0.85285 0.10807 0.0
C454 C 0.13671 0.89286 0.19381 0.0
C455 C 0.13243 0.86506 0.2423 0.0
H456 H 0.72035 0.9341 0.39694 0.0
H457 H 0.76344 0.99747 0.18826 0.0
H458 H 0.71819 1.0027 0.08434 0.0
H459 H 0.66375 1.0046 0.09964 0.0
H460 H 0.61925 0.95072 0.33851 0.0
H461 H 0.66652 0.92721 0.3856 0.0
C462 C 0.7201 0.94799 0.32552 0.0
C463 C 0.74421 0.96729 0.30589 0.0
C464 C 0.6928 0.95416 0.27617 0.0
C465 C 0.74465 0.9835 0.20914 0.0
C466 C 0.71841 0.98717 0.15114 0.0
C467 C 0.66437 0.98738 0.16095 0.0
C468 C 0.63834 0.98032 0.21881 0.0
C469 C 0.69179 0.97529 0.19188 0.0
C470 C 0.63911 0.95701 0.29438 0.0
C471 C 0.66617 0.94357 0.32143 0.0
H472 H 0.55342 0.78808 0.13119 0.0
H473 H 0.63244 0.74929 0.26607 0.0
H474 H 0.62654 0.70516 0.15464 0.0
H475 H 0.58788 0.67175 0.08551 0.0
H476 H 0.50504 0.70898 0.97238 0.0
H477 H 0.52267 0.75917 0.01102 0.0
C478 C 0.57032 0.77069 0.13186 0.0
C479 C 0.5915 0.77017 0.21421 0.0
C480 C 0.5647 0.74421 0.07672 0.0
C481 C 0.61475 0.74912 0.20753 0.0
C482 C 0.61084 0.72343 0.14612 0.0
C483 C 0.57413 0.69088 0.06523 0.0
C484 C 0.54468 0.68671 0.03098 0.0
C485 C 0.58404 0.71954 0.09089 0.0
C486 C 0.5273 0.7117 1.00356 0.0
C487 C 0.53747 0.74039 0.02463 0.0
H488 H 0.8063 0.42408 0.36313 0.0
H489 H 0.77793 0.48915 0.12976 0.0
H490 H 0.81711 0.47286 1.00719 0.0
H491 H 0.86788 0.45342 0.99707 0.0
H492 H 0.89981 0.39297 0.24086 0.0
H493 H 0.85101 0.39389 0.32825 0.0
C494 C 0.80793 0.43365 0.28331 0.0
C495 C 0.79011 0.45847 0.25689 0.0
C496 C 0.83196 0.42576 0.21686 0.0
C497 C 0.79171 0.4703 0.15265 0.0
C498 C 0.8145 0.46133 0.08317 0.0
C499 C 0.86384 0.43927 0.06633 0.0
C500 C 0.88769 0.42395 0.11466 0.0
C501 C 0.83622 0.44106 0.11876 0.0
C502 C 0.88198 0.40562 0.20405 0.0
C503 C 0.8541 0.40623 0.25419 0.0
H504 H 0.97539 0.23286 0.87289 0.0
H505 H 0.05561 0.23658 0.05884 0.0
H506 H 0.06735 0.18479 0.01087 0.0
H507 H 0.05113 0.1363 0.93458 0.0
H508 H 0.97088 0.13362 0.74714 0.0
H509 H 0.96243 0.18664 0.77931 0.0
C510 C 0.99596 0.22261 0.8998 0.0
C511 C 1.01471 0.23863 0.9687 0.0
C512 C 1.00208 0.19262 0.87425 0.0
C513 C 0.0411 0.22497 1.00416 0.0
C514 C 0.04752 0.19514 0.97823 0.0
C515 C 0.032 0.14747 0.89991 0.0
C516 C 1.01149 0.13088 0.83957 0.0
C517 C 0.02759 0.17838 0.91657 0.0
C518 C 0.98702 0.14576 0.79393 0.0
C519 C 0.98217 0.17616 0.81206 0.0
H520 H 0.32389 0.99254 0.95359 0.0
H521 H 0.32595 0.07526 0.12727 0.0
H522 H 0.37708 0.08418 0.0643 0.0
H523 H 0.42328 0.0654 0.97468 0.0
H524 H 0.4197 0.98243 0.80029 0.0
H525 H 0.36755 0.97667 0.84877 0.0
C526 C 0.33521 1.01302 0.97455 0.0
C527 C 0.32098 0.03342 0.04375 0.0
C528 C 0.36477 1.01758 0.94004 0.0
C529 C 0.33613 0.05956 0.07217 0.0
C530 C 0.36558 0.06438 0.03756 0.0
C531 C 0.41104 0.04615 0.94701 0.0
C532 C 0.42576 1.02424 0.88474 0.0
C533 C 0.38052 0.04305 0.97418 0.0
C534 C 0.40925 0.99966 0.84845 0.0
C535 C 0.37927 0.99629 0.87609 0.0
H536 H 0.49986 0.35391 0.15599 0.0
H537 H 0.52371 0.31018 0.86122 0.0
H538 H 0.51956 0.35774 0.76415 0.0
H539 H 0.51477 0.41291 0.76768 0.0
H540 H 0.49191 0.45633 0.06563 0.0
H541 H 0.48988 0.4081 0.15594 0.0
C542 C 0.50295 0.35465 0.06974 0.0
C543 C 0.51127 0.32837 0.01534 0.0
C544 C 0.50135 0.38229 0.01523 0.0
C545 C 0.51638 0.32987 0.90425 0.0
C546 C 0.51445 0.3572 0.84912 0.0
C547 C 0.50896 0.41186 0.85205 0.0
C548 C 0.50377 0.43859 0.90939 0.0
C549 C 0.50785 0.38377 0.90435 0.0
C550 C 0.49617 0.43644 0.01882 0.0
C551 C 0.49499 0.40873 0.07097 0.0
H552 H 0.21686 0.5556 0.90908 0.0
H553 H 0.20536 0.47977 0.11778 0.0
H554 H 0.15436 0.47334 0.0526 0.0
H555 H 0.111 0.49309 0.95046 0.0
H556 H 0.12378 0.56909 0.74163 0.0
H557 H 0.17587 0.57156 0.79224 0.0
C558 C 0.20347 0.53709 0.93777 0.0
C559 C 0.21505 0.51802 0.01756 0.0
C560 C 0.174 0.53396 0.90144 0.0
C561 C 0.19726 0.4944 0.05503 0.0
C562 C 0.16789 0.49103 0.01885 0.0
C563 C 0.12524 0.51003 0.91536 0.0
C564 C 0.11308 0.53105 0.84277 0.0
C565 C 0.15565 0.51129 0.94452 0.0
C566 C 0.13218 0.55259 0.79751 0.0
C567 C 0.16214 0.5541 0.82662 0.0
H568 H 0.0559 0.84001 0.63154 0.0
H569 H 0.96978 0.83919 0.48238 0.0
H570 H 0.95882 0.88879 0.55524 0.0
H571 H 0.97648 0.935 0.64228 0.0
H572 H 0.06217 0.93496 0.79584 0.0
H573 H 0.07048 0.88328 0.7414 0.0
C574 C 0.03435 0.85032 0.61811 0.0
C575 C 1.01359 0.83584 0.55211 0.0
C576 C 0.0284 0.87903 0.65926 0.0
C577 C 0.9859 0.8496 0.53425 0.0
C578 C 0.97984 0.87818 0.57468 0.0
C579 C 0.99684 0.92357 0.66482 0.0
C580 C 1.01889 0.93913 0.72183 0.0
C581 C 1.00134 0.89356 0.6341 0.0
C582 C 0.04489 0.92373 0.75177 0.0
C583 C 0.04969 0.89411 0.72033 0.0
H584 H 0.70138 0.04418 0.487 0.0
H585 H 0.73677 1.00413 0.77292 0.0
H586 H 0.68779 1.00863 0.86117 0.0
H587 H 0.63277 1.01735 0.84596 0.0
H588 H 0.59832 0.05222 0.54836 0.0
H589 H 0.64848 0.05594 0.47576 0.0
C590 C 0.69863 0.03755 0.57021 0.0
C591 C 0.72291 1.0245 0.62408 0.0
C592 C 0.67007 0.03835 0.61718 0.0
C593 C 0.71875 1.01502 0.73063 0.0
C594 C 0.69052 1.01706 0.78022 0.0
C595 C 0.63635 0.02613 0.76585 0.0
C596 C 0.61155 0.03421 0.70253 0.0
C597 C 0.66566 0.02761 0.72274 0.0
C598 C 0.61673 0.04541 0.59862 0.0
C599 C 0.64553 0.04774 0.55696 0.0
H600 H 0.54787 0.69856 0.38172 0.0
H601 H 0.53677 0.74376 0.68407 0.0
H602 H 0.52824 0.69546 0.77306 0.0
H603 H 0.52649 0.63984 0.76609 0.0
H604 H 0.54094 0.59581 0.46274 0.0
H605 H 0.54641 0.64412 0.37435 0.0
C606 C 0.54396 0.69807 0.46755 0.0
C607 C 0.54359 0.72512 0.52603 0.0
C608 C 0.53998 0.67021 0.5185 0.0
C609 C 0.53725 0.7236 0.6365 0.0
C610 C 0.53262 0.69586 0.68765 0.0
C611 C 0.53084 0.64076 0.6806 0.0
C612 C 0.53338 0.61384 0.62158 0.0
C613 C 0.53435 0.66892 0.62974 0.0
C614 C 0.53905 0.61581 0.51082 0.0
C615 C 0.54209 0.64356 0.4599 0.0
H616 H 0.83643 0.54755 0.44174 0.0
H617 H 0.8064 0.49037 0.6975 0.0
H618 H 0.85462 0.49547 0.78735 0.0
H619 H 0.90762 0.51205 0.78199 0.0
H620 H 0.93693 0.56753 0.51807 0.0
H621 H 0.88724 0.56717 0.44348 0.0
C622 C 0.84012 0.53714 0.5192 0.0
C623 C 0.81758 0.51934 0.56449 0.0
C624 C 0.86825 0.53927 0.56787 0.0
C625 C 0.82306 0.50495 0.66274 0.0
C626 C 0.85084 0.50751 0.71317 0.0
C627 C 0.90306 0.52433 0.70886 0.0
C628 C 0.92643 0.53956 0.65575 0.0
C629 C 0.874 0.52394 0.66489 0.0
C630 C 0.9198 0.5553 0.56081 0.0
C631 C 0.8912 0.55524 0.51777 0.0
loop_
_geom_bond_atom_site_label_1
_geom_bond_atom_site_label_2
_geom_bond_distance
_geom_bond_site_symmetry_2
_ccdc_geom_bond_type
H0 C3 0.929 . S
H1 C6 0.929 . S
H2 C8 0.930 . S
C3 H0 0.929 . S
C3 C4 1.398 . S
C3 C5 1.396 . S
C4 C3 1.398 . S
C4 C8 1.407 . S
C5 C3 1.396 . S
C5 C6 1.394 . S
C6 H1 0.929 . S
C6 C5 1.394 . S
C6 C7 1.382 . S
C7 C6 1.382 . S
C7 C8 1.392 . S
C7 N9 1.420 . S
C8 H2 0.930 . S
C8 C4 1.407 . S
C8 C7 1.392 . S
N9 C7 1.420 . S
N9 C10 1.244 . S
C10 N9 1.244 . S
H11 C14 0.929 . S
H12 C17 0.929 . S
H13 C19 0.930 . S
C14 H11 0.929 . S
C14 C15 1.395 1_655 S
C14 C16 1.394 1_655 S
C15 C14 1.395 1_455 S
C15 C19 1.414 . S
C16 C14 1.394 1_455 S
C16 C17 1.397 . S
C17 H12 0.929 . S
C17 C16 1.397 . S
C17 C18 1.382 . S
C18 C17 1.382 . S
C18 C19 1.392 . S
C18 N20 1.420 . S
C19 H13 0.930 . S
C19 C15 1.414 . S
C19 C18 1.392 . S
N20 C18 1.420 . S
N20 C21 1.232 1_455 S
C21 N20 1.232 1_655 S
H22 C25 0.929 . S
H23 C28 0.929 . S
H24 C30 0.930 . S
C25 H22 0.929 . S
C25 C26 1.395 1_565 S
C25 C27 1.395 1_565 S
C26 C25 1.395 1_545 S
C26 C30 1.414 . S
C27 C25 1.395 1_545 S
C27 C28 1.397 . S
C28 H23 0.929 . S
C28 C27 1.397 . S
C28 C29 1.382 . S
C29 C28 1.382 . S
C29 C30 1.392 . S
C29 N31 1.420 . S
C30 H24 0.930 . S
C30 C26 1.414 . S
C30 C29 1.392 . S
N31 C29 1.420 . S
N31 C32 1.232 1_545 S
C32 N31 1.232 1_565 S
H33 C36 0.929 . S
H34 C39 0.929 . S
H35 C41 0.930 . S
C36 H33 0.929 . S
C36 C37 1.398 . S
C36 C38 1.396 . S
C37 C36 1.398 . S
C37 C41 1.407 . S
C38 C36 1.396 . S
C38 C39 1.394 . S
C39 H34 0.929 . S
C39 C38 1.394 . S
C39 C40 1.382 . S
C40 C39 1.382 . S
C40 C41 1.392 . S
C40 N42 1.420 . S
C41 H35 0.930 . S
C41 C37 1.407 . S
C41 C40 1.392 . S
N42 C40 1.420 . S
N42 C43 1.244 . S
C43 N42 1.244 . S
H44 C47 0.929 . S
H45 C50 0.929 . S
H46 C52 0.930 . S
C47 H44 0.929 . S
C47 C48 1.398 1_554 S
C47 C49 1.396 . S
C48 C47 1.398 1_556 S
C48 C52 1.407 . S
C49 C47 1.396 . S
C49 C50 1.394 . S
C50 H45 0.929 . S
C50 C49 1.394 . S
C50 C51 1.382 . S
C51 C50 1.382 . S
C51 C52 1.392 1_554 S
C51 N53 1.420 . S
C52 H46 0.930 . S
C52 C48 1.407 . S
C52 C51 1.392 1_556 S
N53 C51 1.420 . S
N53 C54 1.244 . S
C54 N53 1.244 . S
H55 C58 0.929 . S
H56 C61 0.929 . S
H57 C63 0.930 . S
C58 H55 0.929 . S
C58 C59 1.398 1_654 S
C58 C60 1.394 1_655 S
C59 C58 1.398 1_456 S
C59 C63 1.407 . S
C60 C58 1.394 1_455 S
C60 C61 1.398 . S
C61 H56 0.929 . S
C61 C60 1.398 . S
C61 C62 1.382 . S
C62 C61 1.382 . S
C62 C63 1.392 1_554 S
C62 N64 1.420 . S
C63 H57 0.930 . S
C63 C59 1.407 . S
C63 C62 1.392 1_556 S
N64 C62 1.420 . S
N64 C65 1.236 1_455 S
C65 N64 1.236 1_655 S
H66 C69 0.929 . S
H67 C72 0.929 . S
H68 C74 0.930 . S
C69 H66 0.929 . S
C69 C70 1.398 1_564 S
C69 C71 1.394 1_565 S
C70 C69 1.398 1_546 S
C70 C74 1.407 . S
C71 C69 1.394 1_545 S
C71 C72 1.398 . S
C72 H67 0.929 . S
C72 C71 1.398 . S
C72 C73 1.382 . S
C73 C72 1.382 . S
C73 C74 1.392 1_554 S
C73 N75 1.420 . S
C74 H68 0.930 . S
C74 C70 1.407 . S
C74 C73 1.392 1_556 S
N75 C73 1.420 . S
N75 C76 1.236 1_545 S
C76 N75 1.236 1_565 S
H77 C80 0.929 . S
H78 C83 0.929 . S
H79 C85 0.930 . S
C80 H77 0.929 . S
C80 C81 1.398 1_554 S
C80 C82 1.396 . S
C81 C80 1.398 1_556 S
C81 C85 1.407 . S
C82 C80 1.396 . S
C82 C83 1.394 . S
C83 H78 0.929 . S
C83 C82 1.394 . S
C83 C84 1.382 . S
C84 C83 1.382 . S
C84 C85 1.392 1_554 S
C84 N86 1.420 . S
C85 H79 0.930 . S
C85 C81 1.407 . S
C85 C84 1.392 1_556 S
N86 C84 1.420 . S
N86 C87 1.244 . S
C87 N86 1.244 . S
C88 Eu89 2.835 . S
C88 C90 1.500 . S
C88 O108 1.257 . S
C88 O109 1.260 . S
Eu89 C88 2.835 . S
Eu89 O108 2.473 . S
Eu89 O109 2.480 . S
Eu89 O110 2.430 . S
Eu89 O111 2.670 1_545 S
Eu89 O112 2.394 . S
Eu89 O117 2.355 1_655 S
Eu89 O119 2.374 1_545 S
C90 C88 1.500 . S
C90 C91 1.377 . S
C90 C95 1.377 . S
C91 C90 1.377 . S
C91 C92 1.395 . S
C91 H120 0.931 . S
C92 C91 1.395 . S
C92 C93 1.383 . S
C92 H121 0.931 . S
C93 C92 1.383 . S
C93 C94 1.394 . S
C94 C93 1.394 . S
C94 C95 1.378 . S
C94 H122 0.931 1_655 S
C95 C90 1.377 . S
C95 C94 1.378 . S
C95 H123 0.931 1_655 S
C96 O110 1.259 . S
C96 O111 1.270 1_545 S
C97 O112 1.251 1_455 S
C97 O113 1.251 . S
C98 Eu99 2.835 . S
C98 C100 1.500 1_556 S
C98 O114 1.257 . S
C98 O115 1.260 . S
Eu99 C98 2.835 . S
Eu99 O111 2.355 1_455 S
Eu99 O113 2.374 1_565 S
Eu99 O114 2.473 . S
Eu99 O115 2.480 . S
Eu99 O116 2.430 . S
Eu99 O117 2.670 1_565 S
Eu99 O118 2.394 . S
C100 C98 1.500 1_554 S
C100 C101 1.377 . S
C100 C105 1.377 . S
C101 C100 1.377 . S
C101 C102 1.395 . S
C101 H124 0.931 . S
C102 C101 1.395 . S
C102 C103 1.383 . S
C102 H125 0.931 . S
C103 C102 1.383 . S
C103 C104 1.394 . S
C104 C103 1.394 . S
C104 C105 1.378 . S
C104 H126 0.931 1_455 S
C105 C100 1.377 . S
C105 C104 1.378 . S
C105 H127 0.931 1_455 S
C106 O116 1.259 . S
C106 O117 1.270 1_565 S
C107 O118 1.251 1_655 S
C107 O119 1.251 . S
O108 C88 1.257 . S
O108 Eu89 2.473 . S
O109 C88 1.260 . S
O109 Eu89 2.480 . S
O110 Eu89 2.430 . S
O110 C96 1.259 . S
O111 Eu89 2.670 1_565 S
O111 C96 1.270 1_565 S
O111 Eu99 2.355 1_655 S
O112 Eu89 2.394 . S
O112 C97 1.251 1_655 S
O113 C97 1.251 . S
O113 Eu99 2.374 1_545 S
O114 C98 1.257 . S
O114 Eu99 2.473 . S
O115 C98 1.260 . S
O115 Eu99 2.480 . S
O116 Eu99 2.430 . S
O116 C106 1.259 . S
O117 Eu89 2.355 1_455 S
O117 Eu99 2.670 1_545 S
O117 C106 1.270 1_545 S
O118 Eu99 2.394 . S
O118 C107 1.251 1_455 S
O119 Eu89 2.374 1_565 S
O119 C107 1.251 . S
H120 C91 0.931 . S
H121 C92 0.931 . S
H122 C94 0.931 1_455 S
H123 C95 0.931 1_455 S
H124 C101 0.931 . S
H125 C102 0.931 . S
H126 C104 0.931 1_655 S
H127 C105 0.931 1_655 S
C128 Eu129 2.835 . S
C128 C130 1.500 . S
C128 O148 1.257 . S
C128 O149 1.260 . S
Eu129 C128 2.835 . S
Eu129 O148 2.473 . S
Eu129 O149 2.480 . S
Eu129 O150 2.430 . S
Eu129 O151 2.670 . S
Eu129 O152 2.394 . S
Eu129 O157 2.355 1_565 S
Eu129 O159 2.374 . S
C130 C128 1.500 . S
C130 C131 1.377 . S
C130 C135 1.377 . S
C131 C130 1.377 . S
C131 C132 1.395 . S
C131 H160 0.931 . S
C132 C131 1.395 . S
C132 C133 1.383 . S
C132 H161 0.931 . S
C133 C132 1.383 . S
C133 C134 1.394 . S
C134 C133 1.394 . S
C134 C135 1.378 . S
C134 H162 0.931 1_565 S
C135 C130 1.377 . S
C135 C134 1.378 . S
C135 H163 0.931 1_565 S
C136 O150 1.259 . S
C136 O151 1.270 . S
C137 O152 1.251 1_545 S
C137 O153 1.251 . S
C138 Eu139 2.835 . S
C138 C140 1.500 1_556 S
C138 O154 1.257 . S
C138 O155 1.260 . S
Eu139 C138 2.835 . S
Eu139 O151 2.355 1_545 S
Eu139 O153 2.374 . S
Eu139 O154 2.473 . S
Eu139 O155 2.480 . S
Eu139 O156 2.430 . S
Eu139 O157 2.670 . S
Eu139 O158 2.394 . S
C140 C138 1.500 1_554 S
C140 C141 1.377 . S
C140 C145 1.377 . S
C141 C140 1.377 . S
C141 C142 1.395 . S
C141 H164 0.931 . S
C142 C141 1.395 . S
C142 C143 1.383 . S
C142 H165 0.931 . S
C143 C142 1.383 . S
C143 C144 1.394 . S
C144 C143 1.394 . S
C144 C145 1.378 . S
C144 H166 0.931 1_545 S
C145 C140 1.377 . S
C145 C144 1.378 . S
C145 H167 0.931 1_545 S
C146 O156 1.259 . S
C146 O157 1.270 . S
C147 O158 1.251 1_565 S
C147 O159 1.251 . S
O148 C128 1.257 . S
O148 Eu129 2.473 . S
O149 C128 1.260 . S
O149 Eu129 2.480 . S
O150 Eu129 2.430 . S
O150 C136 1.259 . S
O151 Eu129 2.670 . S
O151 C136 1.270 . S
O151 Eu139 2.355 1_565 S
O152 Eu129 2.394 . S
O152 C137 1.251 1_565 S
O153 C137 1.251 . S
O153 Eu139 2.374 . S
O154 C138 1.257 . S
O154 Eu139 2.473 . S
O155 C138 1.260 . S
O155 Eu139 2.480 . S
O156 Eu139 2.430 . S
O156 C146 1.259 . S
O157 Eu129 2.355 1_545 S
O157 Eu139 2.670 . S
O157 C146 1.270 . S
O158 Eu139 2.394 . S
O158 C147 1.251 1_545 S
O159 Eu129 2.374 . S
O159 C147 1.251 . S
H160 C131 0.931 . S
H161 C132 0.931 . S
H162 C134 0.931 1_545 S
H163 C135 0.931 1_545 S
H164 C141 0.931 . S
H165 C142 0.931 . S
H166 C144 0.931 1_565 S
H167 C145 0.931 1_565 S
C168 Eu169 2.835 . S
C168 C170 1.500 . S
C168 O188 1.257 . S
C168 O189 1.260 . S
Eu169 C168 2.835 . S
Eu169 O188 2.473 . S
Eu169 O189 2.480 . S
Eu169 O190 2.430 . S
Eu169 O191 2.670 . S
Eu169 O192 2.394 . S
Eu169 O197 2.355 . S
Eu169 O199 2.374 . S
C170 C168 1.500 . S
C170 C171 1.377 . S
C170 C175 1.377 . S
C171 C170 1.377 . S
C171 C172 1.395 . S
C171 H200 0.931 . S
C172 C171 1.395 . S
C172 C173 1.383 . S
C172 H201 0.931 . S
C173 C172 1.383 . S
C173 C174 1.394 . S
C174 C173 1.394 . S
C174 C175 1.378 . S
C174 H202 0.931 . S
C175 C170 1.377 . S
C175 C174 1.378 . S
C175 H203 0.931 . S
C176 O190 1.259 . S
C176 O191 1.270 . S
C177 O192 1.251 . S
C177 O193 1.251 . S
C178 Eu179 2.835 . S
C178 C180 1.500 1_556 S
C178 O194 1.257 . S
C178 O195 1.260 . S
Eu179 C178 2.835 . S
Eu179 O191 2.355 . S
Eu179 O193 2.374 . S
Eu179 O194 2.473 . S
Eu179 O195 2.480 . S
Eu179 O196 2.430 . S
Eu179 O197 2.670 . S
Eu179 O198 2.394 . S
C180 C178 1.500 1_554 S
C180 C181 1.377 . S
C180 C185 1.377 . S
C181 C180 1.377 . S
C181 C182 1.395 . S
C181 H204 0.931 . S
C182 C181 1.395 . S
C182 C183 1.383 . S
C182 H205 0.931 . S
C183 C182 1.383 . S
C183 C184 1.394 . S
C184 C183 1.394 . S
C184 C185 1.378 . S
C184 H206 0.931 . S
C185 C180 1.377 . S
C185 C184 1.378 . S
C185 H207 0.931 . S
C186 O196 1.259 . S
C186 O197 1.270 . S
C187 O198 1.251 . S
C187 O199 1.251 . S
O188 C168 1.257 . S
O188 Eu169 2.473 . S
O189 C168 1.260 . S
O189 Eu169 2.480 . S
O190 Eu169 2.430 . S
O190 C176 1.259 . S
O191 Eu169 2.670 . S
O191 C176 1.270 . S
O191 Eu179 2.355 . S
O192 Eu169 2.394 . S
O192 C177 1.251 . S
O193 C177 1.251 . S
O193 Eu179 2.374 . S
O194 C178 1.257 . S
O194 Eu179 2.473 . S
O195 C178 1.260 . S
O195 Eu179 2.480 . S
O196 Eu179 2.430 . S
O196 C186 1.259 . S
O197 Eu169 2.355 . S
O197 Eu179 2.670 . S
O197 C186 1.270 . S
O198 Eu179 2.394 . S
O198 C187 1.251 . S
O199 Eu169 2.374 . S
O199 C187 1.251 . S
H200 C171 0.931 . S
H201 C172 0.931 . S
H202 C174 0.931 . S
H203 C175 0.931 . S
H204 C181 0.931 . S
H205 C182 0.931 . S
H206 C184 0.931 . S
H207 C185 0.931 . S
C208 Eu209 2.835 . S
C208 C210 1.500 . S
C208 O228 1.257 . S
C208 O229 1.260 . S
Eu209 C208 2.835 . S
Eu209 O228 2.473 . S
Eu209 O229 2.480 . S
Eu209 O230 2.430 . S
Eu209 O231 2.670 1_455 S
Eu209 O232 2.394 . S
Eu209 O237 2.355 . S
Eu209 O239 2.374 1_455 S
C210 C208 1.500 . S
C210 C211 1.377 . S
C210 C215 1.377 . S
C211 C210 1.377 . S
C211 C212 1.395 . S
C211 H240 0.931 . S
C212 C211 1.395 . S
C212 C213 1.383 . S
C212 H241 0.931 . S
C213 C212 1.383 . S
C213 C214 1.394 . S
C214 C213 1.394 . S
C214 C215 1.378 . S
C214 H242 0.931 . S
C215 C210 1.377 . S
C215 C214 1.378 . S
C215 H243 0.931 . S
C216 O230 1.266 . S
C216 O231 1.265 1_455 S
C217 O232 1.251 . S
C217 O233 1.251 . S
C218 Eu219 2.835 . S
C218 C220 1.500 1_556 S
C218 O234 1.257 . S
C218 O235 1.260 . S
Eu219 C218 2.835 . S
Eu219 O231 2.355 . S
Eu219 O233 2.374 1_655 S
Eu219 O234 2.473 . S
Eu219 O235 2.480 . S
Eu219 O236 2.430 . S
Eu219 O237 2.670 1_655 S
Eu219 O238 2.394 . S
C220 C218 1.500 1_554 S
C220 C221 1.377 . S
C220 C225 1.377 . S
C221 C220 1.377 . S
C221 C222 1.395 . S
C221 H244 0.931 . S
C222 C221 1.395 . S
C222 C223 1.383 . S
C222 H245 0.931 . S
C223 C222 1.383 . S
C223 C224 1.394 . S
C224 C223 1.394 . S
C224 C225 1.378 . S
C224 H246 0.931 . S
C225 C220 1.377 . S
C225 C224 1.378 . S
C225 H247 0.931 . S
C226 O236 1.262 . S
C226 O237 1.268 1_655 S
C227 O238 1.251 . S
C227 O239 1.251 . S
O228 C208 1.257 . S
O228 Eu209 2.473 . S
O229 C208 1.260 . S
O229 Eu209 2.480 . S
O230 Eu209 2.430 . S
O230 C216 1.266 . S
O231 Eu209 2.670 1_655 S
O231 C216 1.265 1_655 S
O231 Eu219 2.355 . S
O232 Eu209 2.394 . S
O232 C217 1.251 . S
O233 C217 1.251 . S
O233 Eu219 2.374 1_455 S
O234 C218 1.257 . S
O234 Eu219 2.473 . S
O235 C218 1.260 . S
O235 Eu219 2.480 . S
O236 Eu219 2.430 . S
O236 C226 1.262 . S
O237 Eu209 2.355 . S
O237 Eu219 2.670 1_455 S
O237 C226 1.268 1_455 S
O238 Eu219 2.394 . S
O238 C227 1.251 . S
O239 Eu209 2.374 1_655 S
O239 C227 1.251 . S
H240 C211 0.931 . S
H241 C212 0.931 . S
H242 C214 0.931 . S
H243 C215 0.931 . S
H244 C221 0.931 . S
H245 C222 0.931 . S
H246 C224 0.931 . S
H247 C225 0.931 . S
H248 C254 0.930 . S
H249 C257 0.930 . S
H250 C258 0.930 . S
H251 C259 0.930 . S
H252 C262 0.930 . S
H253 C263 0.930 . S
C254 H248 0.930 . S
C254 C255 1.355 1_545 S
C254 C256 1.415 . S
C255 C254 1.355 1_565 S
C255 C257 1.419 . S
C256 C254 1.415 . S
C256 C261 1.425 1_545 S
C256 C263 1.409 . S
C257 H249 0.930 . S
C257 C255 1.419 . S
C257 C258 1.362 . S
C258 H250 0.930 . S
C258 C257 1.362 . S
C258 C261 1.409 . S
C259 H251 0.930 . S
C259 C260 1.355 1_565 S
C259 C261 1.415 . S
C260 C259 1.355 1_545 S
C260 C262 1.419 . S
C261 C256 1.425 1_565 S
C261 C258 1.409 . S
C261 C259 1.415 . S
C262 H252 0.930 . S
C262 C260 1.419 . S
C262 C263 1.362 . S
C263 H253 0.930 . S
C263 C256 1.409 . S
C263 C262 1.362 . S
H264 C270 0.930 . S
H265 C273 0.930 . S
H266 C274 0.930 . S
H267 C275 0.930 . S
H268 C278 0.930 . S
H269 C279 0.930 . S
C270 H264 0.930 . S
C270 C271 1.355 . S
C270 C272 1.415 . S
C271 C270 1.355 . S
C271 C273 1.419 . S
C272 C270 1.415 . S
C272 C277 1.425 . S
C272 C279 1.409 . S
C273 H265 0.930 . S
C273 C271 1.419 . S
C273 C274 1.362 . S
C274 H266 0.930 . S
C274 C273 1.362 . S
C274 C277 1.409 . S
C275 H267 0.930 . S
C275 C276 1.355 . S
C275 C277 1.415 . S
C276 C275 1.355 . S
C276 C278 1.419 . S
C277 C272 1.425 . S
C277 C274 1.409 . S
C277 C275 1.415 . S
C278 H268 0.930 . S
C278 C276 1.419 . S
C278 C279 1.362 . S
C279 H269 0.930 . S
C279 C272 1.409 . S
C279 C278 1.362 . S
H280 C286 0.930 . S
H281 C289 0.930 . S
H282 C290 0.930 . S
H283 C291 0.930 . S
H284 C294 0.930 . S
H285 C295 0.930 . S
C286 H280 0.930 . S
C286 C287 1.355 . S
C286 C288 1.415 . S
C287 C286 1.355 . S
C287 C289 1.419 . S
C288 C286 1.415 . S
C288 C293 1.425 . S
C288 C295 1.409 . S
C289 H281 0.930 . S
C289 C287 1.419 . S
C289 C290 1.362 . S
C290 H282 0.930 . S
C290 C289 1.362 . S
C290 C293 1.409 . S
C291 H283 0.930 . S
C291 C292 1.355 . S
C291 C293 1.415 . S
C292 C291 1.355 . S
C292 C294 1.419 . S
C293 C288 1.425 . S
C293 C290 1.409 . S
C293 C291 1.415 . S
C294 H284 0.930 . S
C294 C292 1.419 . S
C294 C295 1.362 . S
C295 H285 0.930 . S
C295 C288 1.409 . S
C295 C294 1.362 . S
H296 C302 0.930 . S
H297 C305 0.930 . S
H298 C306 0.930 . S
H299 C307 0.930 . S
H300 C310 0.930 . S
H301 C311 0.930 . S
C302 H296 0.930 . S
C302 C303 1.355 1_455 S
C302 C304 1.415 . S
C303 C302 1.355 1_655 S
C303 C305 1.419 . S
C304 C302 1.415 . S
C304 C309 1.425 1_455 S
C304 C311 1.409 . S
C305 H297 0.930 . S
C305 C303 1.419 . S
C305 C306 1.362 . S
C306 H298 0.930 . S
C306 C305 1.362 . S
C306 C309 1.409 . S
C307 H299 0.930 . S
C307 C308 1.355 1_655 S
C307 C309 1.415 . S
C308 C307 1.355 1_455 S
C308 C310 1.419 . S
C309 C304 1.425 1_655 S
C309 C306 1.409 . S
C309 C307 1.415 . S
C310 H300 0.930 . S
C310 C308 1.419 . S
C310 C311 1.362 . S
C311 H301 0.930 . S
C311 C304 1.409 . S
C311 C310 1.362 . S
H312 C318 0.930 . S
H313 C321 0.930 . S
H314 C322 0.930 . S
H315 C323 0.930 1_556 S
H316 C326 0.930 . S
H317 C327 0.930 . S
C318 H312 0.930 . S
C318 C319 1.341 1_545 S
C318 C320 1.415 . S
C319 C318 1.341 1_565 S
C319 C321 1.437 . S
C320 C318 1.415 . S
C320 C325 1.425 1_545 S
C320 C327 1.409 . S
C321 H313 0.930 . S
C321 C319 1.437 . S
C321 C322 1.362 . S
C322 H314 0.930 . S
C322 C321 1.362 . S
C322 C325 1.409 . S
C323 H315 0.930 1_554 S
C323 C324 1.355 1_564 S
C323 C325 1.415 . S
C324 C323 1.355 1_546 S
C324 C326 1.419 1_556 S
C325 C320 1.425 1_565 S
C325 C322 1.409 . S
C325 C323 1.415 . S
C326 H316 0.930 . S
C326 C324 1.419 1_554 S
C326 C327 1.362 . S
C327 H317 0.930 . S
C327 C320 1.409 . S
C327 C326 1.362 . S
H328 C334 0.930 . S
H329 C337 0.930 . S
H330 C338 0.930 . S
H331 C339 0.930 . S
H332 C342 0.930 1_556 S
H333 C343 0.930 . S
C334 H328 0.930 . S
C334 C335 1.355 . S
C334 C336 1.415 . S
C335 C334 1.355 . S
C335 C337 1.419 . S
C336 C334 1.415 . S
C336 C341 1.425 . S
C336 C343 1.409 . S
C337 H329 0.930 . S
C337 C335 1.419 . S
C337 C338 1.362 . S
C338 H330 0.930 . S
C338 C337 1.362 . S
C338 C341 1.409 . S
C339 H331 0.930 . S
C339 C340 1.355 1_554 S
C339 C341 1.415 . S
C340 C339 1.355 1_556 S
C340 C342 1.419 1_556 S
C341 C336 1.425 . S
C341 C338 1.409 . S
C341 C339 1.415 . S
C342 H332 0.930 1_554 S
C342 C340 1.419 1_554 S
C342 C343 1.362 . S
C343 H333 0.930 . S
C343 C336 1.409 . S
C343 C342 1.362 . S
H344 C350 0.930 . S
H345 C353 0.930 . S
H346 C354 0.930 . S
H347 C355 0.930 . S
H348 C358 0.930 . S
H349 C359 0.930 . S
C350 H344 0.930 . S
C350 C351 1.355 . S
C350 C352 1.415 . S
C351 C350 1.355 . S
C351 C353 1.419 . S
C352 C350 1.415 . S
C352 C357 1.425 . S
C352 C359 1.409 . S
C353 H345 0.930 . S
C353 C351 1.419 . S
C353 C354 1.362 . S
C354 H346 0.930 . S
C354 C353 1.362 . S
C354 C357 1.409 . S
C355 H347 0.930 . S
C355 C356 1.355 1_554 S
C355 C357 1.415 . S
C356 C355 1.355 1_556 S
C356 C358 1.419 . S
C357 C352 1.425 . S
C357 C354 1.409 . S
C357 C355 1.415 . S
C358 H348 0.930 . S
C358 C356 1.419 . S
C358 C359 1.362 1_556 S
C359 H349 0.930 . S
C359 C352 1.409 . S
C359 C358 1.362 1_554 S
H360 C366 0.930 . S
H361 C369 0.930 . S
H362 C370 0.930 . S
H363 C371 0.930 1_556 S
H364 C374 0.930 . S
H365 C375 0.930 . S
C366 H360 0.930 . S
C366 C367 1.355 1_455 S
C366 C368 1.415 . S
C367 C366 1.355 1_655 S
C367 C369 1.419 . S
C368 C366 1.415 . S
C368 C373 1.425 1_455 S
C368 C375 1.409 . S
C369 H361 0.930 . S
C369 C367 1.419 . S
C369 C370 1.362 . S
C370 H362 0.930 . S
C370 C369 1.362 . S
C370 C373 1.409 . S
C371 H363 0.930 1_554 S
C371 C372 1.329 1_654 S
C371 C373 1.415 . S
C372 C371 1.329 1_456 S
C372 C374 1.452 1_556 S
C373 C368 1.425 1_655 S
C373 C370 1.409 . S
C373 C371 1.415 . S
C374 H364 0.930 . S
C374 C372 1.452 1_554 S
C374 C375 1.362 . S
C375 H365 0.930 . S
C375 C368 1.409 . S
C375 C374 1.362 . S
H376 C382 0.930 . S
H377 C385 0.924 1_455 S
H378 C386 0.930 . S
H379 C387 0.930 . S
H380 C390 0.930 . S
H381 C391 0.930 . S
C382 H376 0.930 . S
C382 C383 1.355 1_655 S
C382 C384 1.415 . S
C383 C382 1.355 1_455 S
C383 C385 1.418 1_455 S
C384 C382 1.415 . S
C384 C389 1.425 . S
C384 C391 1.409 . S
C385 H377 0.924 1_655 S
C385 C383 1.418 1_655 S
C385 C386 1.369 . S
C386 H378 0.930 . S
C386 C385 1.369 . S
C386 C389 1.409 . S
C387 H379 0.930 . S
C387 C388 1.355 . S
C387 C389 1.415 . S
C388 C387 1.355 . S
C388 C390 1.419 . S
C389 C384 1.425 . S
C389 C386 1.409 . S
C389 C387 1.415 . S
C390 H380 0.930 . S
C390 C388 1.419 . S
C390 C391 1.362 . S
C391 H381 0.930 . S
C391 C384 1.409 . S
C391 C390 1.362 . S
H392 C398 0.930 . S
H393 C401 0.930 . S
H394 C402 0.930 . S
H395 C403 0.902 1_545 S
H396 C406 0.930 . S
H397 C407 0.930 . S
C398 H392 0.930 . S
C398 C399 1.355 1_565 S
C398 C400 1.415 . S
C399 C398 1.355 1_545 S
C399 C401 1.419 . S
C400 C398 1.415 . S
C400 C405 1.425 . S
C400 C407 1.409 . S
C401 H393 0.930 . S
C401 C399 1.419 . S
C401 C402 1.362 . S
C402 H394 0.930 . S
C402 C401 1.362 . S
C402 C405 1.409 1_545 S
C403 H395 0.902 1_565 S
C403 C404 1.355 . S
C403 C405 1.415 . S
C404 C403 1.355 . S
C404 C406 1.419 . S
C405 C400 1.425 . S
C405 C402 1.409 1_565 S
C405 C403 1.415 . S
C406 H396 0.930 . S
C406 C404 1.419 . S
C406 C407 1.362 . S
C407 H397 0.930 . S
C407 C400 1.409 . S
C407 C406 1.362 . S
H408 C414 0.930 . S
H409 C417 0.930 . S
H410 C418 0.930 . S
H411 C419 0.930 . S
H412 C422 0.930 . S
H413 C423 0.930 . S
C414 H408 0.930 . S
C414 C415 1.355 . S
C414 C416 1.415 . S
C415 C414 1.355 . S
C415 C417 1.419 . S
C416 C414 1.415 . S
C416 C421 1.425 . S
C416 C423 1.409 . S
C417 H409 0.930 . S
C417 C415 1.419 . S
C417 C418 1.362 . S
C418 H410 0.930 . S
C418 C417 1.362 . S
C418 C421 1.409 . S
C419 H411 0.930 . S
C419 C420 1.355 . S
C419 C421 1.415 . S
C420 C419 1.355 . S
C420 C422 1.419 . S
C421 C416 1.425 . S
C421 C418 1.409 . S
C421 C419 1.415 . S
C422 H412 0.930 . S
C422 C420 1.419 . S
C422 C423 1.362 . S
C423 H413 0.930 . S
C423 C416 1.409 . S
C423 C422 1.362 . S
H424 C430 0.930 . S
H425 C433 0.930 . S
H426 C434 0.930 . S
H427 C435 0.930 . S
H428 C438 0.930 . S
H429 C439 0.930 . S
C430 H424 0.930 . S
C430 C431 1.355 . S
C430 C432 1.415 . S
C431 C430 1.355 . S
C431 C433 1.419 . S
C432 C430 1.415 . S
C432 C437 1.425 . S
C432 C439 1.409 . S
C433 H425 0.930 . S
C433 C431 1.419 . S
C433 C434 1.362 . S
C434 H426 0.930 . S
C434 C433 1.362 . S
C434 C437 1.409 . S
C435 H427 0.930 . S
C435 C436 1.355 . S
C435 C437 1.415 . S
C436 C435 1.355 . S
C436 C438 1.419 . S
C437 C432 1.425 . S
C437 C434 1.409 . S
C437 C435 1.415 . S
C438 H428 0.930 . S
C438 C436 1.419 . S
C438 C439 1.362 . S
C439 H429 0.930 . S
C439 C432 1.409 . S
C439 C438 1.362 . S
H440 C446 0.930 . S
H441 C449 0.930 . S
H442 C450 0.930 . S
H443 C451 0.931 . S
H444 C454 0.930 . S
H445 C455 0.930 . S
C446 H440 0.930 . S
C446 C447 1.355 1_455 S
C446 C448 1.415 . S
C447 C446 1.355 1_655 S
C447 C449 1.419 . S
C448 C446 1.415 . S
C448 C453 1.425 . S
C448 C455 1.409 . S
C449 H441 0.930 . S
C449 C447 1.419 . S
C449 C450 1.362 . S
C450 H442 0.930 . S
C450 C449 1.362 . S
C450 C453 1.409 1_655 S
C451 H443 0.931 . S
C451 C452 1.355 . S
C451 C453 1.415 . S
C452 C451 1.355 . S
C452 C454 1.419 . S
C453 C448 1.425 . S
C453 C450 1.409 1_455 S
C453 C451 1.415 . S
C454 H444 0.930 . S
C454 C452 1.419 . S
C454 C455 1.362 . S
C455 H445 0.930 . S
C455 C448 1.409 . S
C455 C454 1.362 . S
H456 C462 0.930 . S
H457 C465 0.930 . S
H458 C466 0.930 . S
H459 C467 0.930 . S
H460 C470 0.927 1_565 S
H461 C471 0.930 . S
C462 H456 0.930 . S
C462 C463 1.348 1_565 S
C462 C464 1.415 1_565 S
C463 C462 1.348 1_545 S
C463 C465 1.435 . S
C464 C462 1.415 1_545 S
C464 C469 1.425 . S
C464 C471 1.409 1_545 S
C465 H457 0.930 . S
C465 C463 1.435 . S
C465 C466 1.362 . S
C466 H458 0.930 . S
C466 C465 1.362 . S
C466 C469 1.409 . S
C467 H459 0.930 . S
C467 C468 1.355 . S
C467 C469 1.415 . S
C468 C467 1.355 . S
C468 C470 1.419 . S
C469 C464 1.425 . S
C469 C466 1.409 . S
C469 C467 1.415 . S
C470 H460 0.927 1_545 S
C470 C468 1.419 . S
C470 C471 1.362 1_545 S
C471 H461 0.930 . S
C471 C464 1.409 1_565 S
C471 C470 1.362 1_565 S
H472 C478 0.930 . S
H473 C481 0.930 . S
H474 C482 0.930 . S
H475 C483 0.930 . S
H476 C486 0.930 . S
H477 C487 0.930 . S
C478 H472 0.930 . S
C478 C479 1.355 . S
C478 C480 1.415 . S
C479 C478 1.355 . S
C479 C481 1.419 . S
C480 C478 1.415 . S
C480 C485 1.425 . S
C480 C487 1.409 . S
C481 H473 0.930 . S
C481 C479 1.419 . S
C481 C482 1.362 . S
C482 H474 0.930 . S
C482 C481 1.362 . S
C482 C485 1.409 . S
C483 H475 0.930 . S
C483 C484 1.355 . S
C483 C485 1.415 . S
C484 C483 1.355 . S
C484 C486 1.419 . S
C485 C480 1.425 . S
C485 C482 1.409 . S
C485 C483 1.415 . S
C486 H476 0.930 . S
C486 C484 1.419 . S
C486 C487 1.362 . S
C487 H477 0.930 . S
C487 C480 1.409 . S
C487 C486 1.362 . S
H488 C494 0.930 . S
H489 C497 0.930 . S
H490 C498 0.930 . S
H491 C499 0.930 . S
H492 C502 0.930 . S
H493 C503 0.930 . S
C494 H488 0.930 . S
C494 C495 1.355 . S
C494 C496 1.415 . S
C495 C494 1.355 . S
C495 C497 1.419 . S
C496 C494 1.415 . S
C496 C501 1.425 . S
C496 C503 1.409 . S
C497 H489 0.930 . S
C497 C495 1.419 . S
C497 C498 1.362 . S
C498 H490 0.930 . S
C498 C497 1.362 . S
C498 C501 1.409 . S
C499 H491 0.930 . S
C499 C500 1.355 . S
C499 C501 1.415 . S
C500 C499 1.355 . S
C500 C502 1.419 . S
C501 C496 1.425 . S
C501 C498 1.409 . S
C501 C499 1.415 . S
C502 H492 0.930 . S
C502 C500 1.419 . S
C502 C503 1.362 . S
C503 H493 0.930 . S
C503 C496 1.409 . S
C503 C502 1.362 . S
H504 C510 0.930 . S
H505 C513 0.930 . S
H506 C514 0.930 . S
H507 C515 0.930 . S
H508 C518 0.930 . S
H509 C519 0.930 . S
C510 H504 0.930 . S
C510 C511 1.355 1_655 S
C510 C512 1.415 . S
C511 C510 1.355 1_455 S
C511 C513 1.419 . S
C512 C510 1.415 . S
C512 C517 1.425 1_655 S
C512 C519 1.409 . S
C513 H505 0.930 . S
C513 C511 1.419 . S
C513 C514 1.362 . S
C514 H506 0.930 . S
C514 C513 1.362 . S
C514 C517 1.409 . S
C515 H507 0.930 . S
C515 C516 1.355 . S
C515 C517 1.415 . S
C516 C515 1.355 . S
C516 C518 1.419 1_455 S
C517 C512 1.425 1_455 S
C517 C514 1.409 . S
C517 C515 1.415 . S
C518 H508 0.930 . S
C518 C516 1.419 1_655 S
C518 C519 1.362 . S
C519 H509 0.930 . S
C519 C512 1.409 . S
C519 C518 1.362 . S
H520 C526 0.930 . S
H521 C529 0.930 . S
H522 C530 0.930 . S
H523 C531 0.930 . S
H524 C534 0.930 . S
H525 C535 0.930 . S
C526 H520 0.930 . S
C526 C527 1.355 1_565 S
C526 C528 1.415 . S
C527 C526 1.355 1_545 S
C527 C529 1.419 . S
C528 C526 1.415 . S
C528 C533 1.425 1_565 S
C528 C535 1.409 . S
C529 H521 0.930 . S
C529 C527 1.419 . S
C529 C530 1.362 . S
C530 H522 0.930 . S
C530 C529 1.362 . S
C530 C533 1.409 . S
C531 H523 0.930 . S
C531 C532 1.355 . S
C531 C533 1.415 . S
C532 C531 1.355 . S
C532 C534 1.419 1_545 S
C533 C528 1.425 1_545 S
C533 C530 1.409 . S
C533 C531 1.415 . S
C534 H524 0.930 . S
C534 C532 1.419 1_565 S
C534 C535 1.362 . S
C535 H525 0.930 . S
C535 C528 1.409 . S
C535 C534 1.362 . S
H536 C542 0.930 . S
H537 C545 0.930 . S
H538 C546 0.930 . S
H539 C547 0.930 . S
H540 C550 0.930 . S
H541 C551 0.930 . S
C542 H536 0.930 . S
C542 C543 1.355 . S
C542 C544 1.415 . S
C543 C542 1.355 . S
C543 C545 1.419 . S
C544 C542 1.415 . S
C544 C549 1.425 . S
C544 C551 1.409 . S
C545 H537 0.930 . S
C545 C543 1.419 . S
C545 C546 1.362 . S
C546 H538 0.930 . S
C546 C545 1.362 . S
C546 C549 1.409 . S
C547 H539 0.930 . S
C547 C548 1.355 . S
C547 C549 1.415 . S
C548 C547 1.355 . S
C548 C550 1.419 . S
C549 C544 1.425 . S
C549 C546 1.409 . S
C549 C547 1.415 . S
C550 H540 0.930 . S
C550 C548 1.419 . S
C550 C551 1.362 . S
C551 H541 0.930 . S
C551 C544 1.409 . S
C551 C550 1.362 . S
H552 C558 0.930 . S
H553 C561 0.930 1_554 S
H554 C562 0.931 1_554 S
H555 C563 0.930 . S
H556 C566 0.930 . S
H557 C567 0.930 . S
C558 H552 0.930 . S
C558 C559 1.355 . S
C558 C560 1.415 . S
C559 C558 1.355 . S
C559 C561 1.419 . S
C560 C558 1.415 . S
C560 C565 1.425 . S
C560 C567 1.409 . S
C561 H553 0.930 1_556 S
C561 C559 1.419 . S
C561 C562 1.362 . S
C562 H554 0.931 1_556 S
C562 C561 1.362 . S
C562 C565 1.408 . S
C563 H555 0.930 . S
C563 C564 1.355 . S
C563 C565 1.415 . S
C564 C563 1.355 . S
C564 C566 1.419 . S
C565 C560 1.425 . S
C565 C562 1.408 . S
C565 C563 1.415 . S
C566 H556 0.930 . S
C566 C564 1.419 . S
C566 C567 1.362 . S
C567 H557 0.930 . S
C567 C560 1.409 . S
C567 C566 1.362 . S
H568 C574 0.930 . S
H569 C577 0.930 . S
H570 C578 0.930 . S
H571 C579 0.930 . S
H572 C582 0.925 1_455 S
H573 C583 0.930 . S
C574 H568 0.930 . S
C574 C575 1.355 1_455 S
C574 C576 1.415 1_455 S
C575 C574 1.355 1_655 S
C575 C577 1.419 . S
C576 C574 1.415 1_655 S
C576 C581 1.425 . S
C576 C583 1.409 1_655 S
C577 H569 0.930 . S
C577 C575 1.419 . S
C577 C578 1.362 . S
C578 H570 0.930 . S
C578 C577 1.362 . S
C578 C581 1.409 . S
C579 H571 0.930 . S
C579 C580 1.355 . S
C579 C581 1.415 . S
C580 C579 1.355 . S
C580 C582 1.428 . S
C581 C576 1.425 . S
C581 C578 1.409 . S
C581 C579 1.415 . S
C582 H572 0.925 1_655 S
C582 C580 1.428 . S
C582 C583 1.359 1_655 S
C583 H573 0.930 . S
C583 C576 1.409 1_455 S
C583 C582 1.359 1_455 S
H584 C590 0.930 . S
H585 C593 0.930 . S
H586 C594 0.930 . S
H587 C595 0.930 . S
H588 C598 0.930 . S
H589 C599 0.930 . S
C590 H584 0.930 . S
C590 C591 1.355 1_545 S
C590 C592 1.415 . S
C591 C590 1.355 1_565 S
C591 C593 1.419 . S
C592 C590 1.415 . S
C592 C597 1.425 1_545 S
C592 C599 1.409 . S
C593 H585 0.930 . S
C593 C591 1.419 . S
C593 C594 1.362 . S
C594 H586 0.930 . S
C594 C593 1.362 . S
C594 C597 1.409 . S
C595 H587 0.930 . S
C595 C596 1.355 . S
C595 C597 1.415 . S
C596 C595 1.355 . S
C596 C598 1.419 1_565 S
C597 C592 1.425 1_565 S
C597 C594 1.409 . S
C597 C595 1.415 . S
C598 H588 0.930 . S
C598 C596 1.419 1_545 S
C598 C599 1.362 . S
C599 H589 0.930 . S
C599 C592 1.409 . S
C599 C598 1.362 . S
H600 C606 0.930 . S
H601 C609 0.930 . S
H602 C610 0.930 . S
H603 C611 0.930 . S
H604 C614 0.930 . S
H605 C615 0.930 . S
C606 H600 0.930 . S
C606 C607 1.355 . S
C606 C608 1.415 . S
C607 C606 1.355 . S
C607 C609 1.419 . S
C608 C606 1.415 . S
C608 C613 1.425 . S
C608 C615 1.409 . S
C609 H601 0.930 . S
C609 C607 1.419 . S
C609 C610 1.362 . S
C610 H602 0.930 . S
C610 C609 1.362 . S
C610 C613 1.409 . S
C611 H603 0.930 . S
C611 C612 1.355 . S
C611 C613 1.415 . S
C612 C611 1.355 . S
C612 C614 1.419 . S
C613 C608 1.425 . S
C613 C610 1.409 . S
C613 C611 1.415 . S
C614 H604 0.930 . S
C614 C612 1.419 . S
C614 C615 1.362 . S
C615 H605 0.930 . S
C615 C608 1.409 . S
C615 C614 1.362 . S
H616 C622 0.930 . S
H617 C625 0.930 . S
H618 C626 0.930 . S
H619 C627 0.930 . S
H620 C630 0.930 . S
H621 C631 0.930 . S
C622 H616 0.930 . S
C622 C623 1.355 . S
C622 C624 1.415 . S
C623 C622 1.355 . S
C623 C625 1.419 . S
C624 C622 1.415 . S
C624 C629 1.425 . S
C624 C631 1.409 . S
C625 H617 0.930 . S
C625 C623 1.419 . S
C625 C626 1.362 . S
C626 H618 0.930 . S
C626 C625 1.362 . S
C626 C629 1.409 . S
C627 H619 0.930 . S
C627 C628 1.355 . S
C627 C629 1.415 . S
C628 C627 1.355 . S
C628 C630 1.419 . S
C629 C624 1.425 . S
C629 C626 1.409 . S
C629 C627 1.415 . S
C630 H620 0.930 . S
C630 C628 1.419 . S
C630 C631 1.362 . S
C631 H621 0.930 . S
C631 C624 1.409 . S
C631 C630 1.362 . S
C255 C76 1.911 . S
C260 C106 2.068 1_545 S
C276 C146 2.093 . S
C271 C87 1.868 . S
C292 C186 2.097 . S
C287 C54 1.872 . S
C308 C226 2.084 1_455 S
C303 C65 1.895 . S
C324 C96 2.073 . S
C319 C32 1.848 . S
C335 C43 1.931 . S
C340 C136 2.089 . S
C351 C10 1.947 . S
C356 C176 2.094 . S
C367 C21 1.865 . S
C372 C216 2.079 . S
C388 C93 0.582 . S
C383 C60 0.642 . S
C404 C133 0.675 . S
C399 C71 0.666 . S
C420 C173 0.543 . S
C415 C82 0.509 . S
C431 C49 0.648 . S
C436 C213 0.588 . S
C447 C16 0.629 1_655 S
C452 C103 0.661 . S
C468 C143 0.543 . S
C463 C27 0.605 . S
C484 C183 0.635 . S
C479 C38 0.590 . S
C495 C5 0.677 . S
C500 C223 0.638 . S
C511 C59 2.118 . S
C516 C97 2.374 . S
C527 C70 2.094 . S
C532 C137 2.340 . S
C548 C177 2.358 . S
C543 C81 2.082 . S
C564 C217 2.376 . S
C559 C48 2.062 . S
C575 C15 2.172 1_655 S
C580 C107 2.403 . S
C596 C147 2.356 . S
C591 C26 2.135 1_565 S
C612 C187 2.335 . S
C607 C37 2.121 . S
C623 C4 2.091 . S
C628 C227 2.394 . S
