# Generated by pormake.
# Topology ptr, (4,4)-cn, num edge types: 1
# Building blocks:
#     Node 0, Type 0, BuildingBlock: AZAVOO_clean_sbu_0, # of connection points: 4
#     Node 1, Type 0, BuildingBlock: AZAVOO_clean_sbu_0, # of connection points: 4
#     Node 2, Type 0, BuildingBlock: AZAVOO_clean_sbu_0, # of connection points: 4
#     Node 3, Type 0, BuildingBlock: AZAVOO_clean_sbu_0, # of connection points: 4
#     Node 4, Type 0, BuildingBlock: AZAVOO_clean_sbu_0, # of connection points: 4
#     Node 5, Type 0, BuildingBlock: AZAVOO_clean_sbu_0, # of connection points: 4
#     Node 6, Type 0, BuildingBlock: AZAVOO_clean_sbu_0, # of connection points: 4
#     Node 7, Type 0, BuildingBlock: AZAVOO_clean_sbu_0, # of connection points: 4
#     Node 8, Type 0, BuildingBlock: AZAVOO_clean_sbu_0, # of connection points: 4
#     Node 9, Type 0, BuildingBlock: AZAVOO_clean_sbu_0, # of connection points: 4
#     Node 10, Type 0, BuildingBlock: AZAVOO_clean_sbu_0, # of connection points: 4
#     Node 11, Type 0, BuildingBlock: AZAVOO_clean_sbu_0, # of connection points: 4
#     Node 12, Type 0, BuildingBlock: AZAVOO_clean_sbu_0, # of connection points: 4
#     Node 13, Type 0, BuildingBlock: AZAVOO_clean_sbu_0, # of connection points: 4
#     Node 14, Type 0, BuildingBlock: AZAVOO_clean_sbu_0, # of connection points: 4
#     Node 15, Type 0, BuildingBlock: AZAVOO_clean_sbu_0, # of connection points: 4
#     Node 16, Type 0, BuildingBlock: AZAVOO_clean_sbu_0, # of connection points: 4
#     Node 17, Type 0, BuildingBlock: AZAVOO_clean_sbu_0, # of connection points: 4
#     Node 18, Type 1, BuildingBlock: KUFVIS_clean_linker_0, # of connection points: 4
#     Node 19, Type 1, BuildingBlock: KUFVIS_clean_linker_0, # of connection points: 4
#     Node 20, Type 1, BuildingBlock: KUFVIS_clean_linker_0, # of connection points: 4
#     Node 21, Type 1, BuildingBlock: KUFVIS_clean_linker_0, # of connection points: 4
#     Node 22, Type 1, BuildingBlock: KUFVIS_clean_linker_0, # of connection points: 4
#     Node 23, Type 1, BuildingBlock: KUFVIS_clean_linker_0, # of connection points: 4
#     Node 24, Type 1, BuildingBlock: KUFVIS_clean_linker_0, # of connection points: 4
#     Node 25, Type 1, BuildingBlock: KUFVIS_clean_linker_0, # of connection points: 4
#     Node 26, Type 1, BuildingBlock: KUFVIS_clean_linker_0, # of connection points: 4
#     Node 27, Type 1, BuildingBlock: KUFVIS_clean_linker_0, # of connection points: 4
#     Node 28, Type 1, BuildingBlock: KUFVIS_clean_linker_0, # of connection points: 4
#     Node 29, Type 1, BuildingBlock: KUFVIS_clean_linker_0, # of connection points: 4
#     Node 30, Type 1, BuildingBlock: KUFVIS_clean_linker_0, # of connection points: 4
#     Node 31, Type 1, BuildingBlock: KUFVIS_clean_linker_0, # of connection points: 4
#     Node 32, Type 1, BuildingBlock: KUFVIS_clean_linker_0, # of connection points: 4
#     Node 33, Type 1, BuildingBlock: KUFVIS_clean_linker_0, # of connection points: 4
#     Node 34, Type 1, BuildingBlock: KUFVIS_clean_linker_0, # of connection points: 4
#     Node 35, Type 1, BuildingBlock: KUFVIS_clean_linker_0, # of connection points: 4
#     Edge 36, Type (0, 1), BuildingBlock: XIVTED_clean_linker_0, # of connection points: 2
#     Edge 37, Type (0, 1), BuildingBlock: XIVTED_clean_linker_0, # of connection points: 2
#     Edge 38, Type (0, 1), BuildingBlock: XIVTED_clean_linker_0, # of connection points: 2
#     Edge 39, Type (0, 1), BuildingBlock: XIVTED_clean_linker_0, # of connection points: 2
#     Edge 40, Type (0, 1), BuildingBlock: XIVTED_clean_linker_0, # of connection points: 2
#     Edge 41, Type (0, 1), BuildingBlock: XIVTED_clean_linker_0, # of connection points: 2
#     Edge 42, Type (0, 1), BuildingBlock: XIVTED_clean_linker_0, # of connection points: 2
#     Edge 43, Type (0, 1), BuildingBlock: XIVTED_clean_linker_0, # of connection points: 2
#     Edge 44, Type (0, 1), BuildingBlock: XIVTED_clean_linker_0, # of connection points: 2
#     Edge 45, Type (0, 1), BuildingBlock: XIVTED_clean_linker_0, # of connection points: 2
#     Edge 46, Type (0, 1), BuildingBlock: XIVTED_clean_linker_0, # of connection points: 2
#     Edge 47, Type (0, 1), BuildingBlock: XIVTED_clean_linker_0, # of connection points: 2
#     Edge 48, Type (0, 1), BuildingBlock: XIVTED_clean_linker_0, # of connection points: 2
#     Edge 49, Type (0, 1), BuildingBlock: XIVTED_clean_linker_0, # of connection points: 2
#     Edge 50, Type (0, 1), BuildingBlock: XIVTED_clean_linker_0, # of connection points: 2
#     Edge 51, Type (0, 1), BuildingBlock: XIVTED_clean_linker_0, # of connection points: 2
#     Edge 52, Type (0, 1), BuildingBlock: XIVTED_clean_linker_0, # of connection points: 2
#     Edge 53, Type (0, 1), BuildingBlock: XIVTED_clean_linker_0, # of connection points: 2
#     Edge 54, Type (0, 1), BuildingBlock: XIVTED_clean_linker_0, # of connection points: 2
#     Edge 55, Type (0, 1), BuildingBlock: XIVTED_clean_linker_0, # of connection points: 2
#     Edge 56, Type (0, 1), BuildingBlock: XIVTED_clean_linker_0, # of connection points: 2
#     Edge 57, Type (0, 1), BuildingBlock: XIVTED_clean_linker_0, # of connection points: 2
#     Edge 58, Type (0, 1), BuildingBlock: XIVTED_clean_linker_0, # of connection points: 2
#     Edge 59, Type (0, 1), BuildingBlock: XIVTED_clean_linker_0, # of connection points: 2
#     Edge 60, Type (0, 1), BuildingBlock: XIVTED_clean_linker_0, # of connection points: 2
#     Edge 61, Type (0, 1), BuildingBlock: XIVTED_clean_linker_0, # of connection points: 2
#     Edge 62, Type (0, 1), BuildingBlock: XIVTED_clean_linker_0, # of connection points: 2
#     Edge 63, Type (0, 1), BuildingBlock: XIVTED_clean_linker_0, # of connection points: 2
#     Edge 64, Type (0, 1), BuildingBlock: XIVTED_clean_linker_0, # of connection points: 2
#     Edge 65, Type (0, 1), BuildingBlock: XIVTED_clean_linker_0, # of connection points: 2
#     Edge 66, Type (0, 1), BuildingBlock: XIVTED_clean_linker_0, # of connection points: 2
#     Edge 67, Type (0, 1), BuildingBlock: XIVTED_clean_linker_0, # of connection points: 2
#     Edge 68, Type (0, 1), BuildingBlock: XIVTED_clean_linker_0, # of connection points: 2
#     Edge 69, Type (0, 1), BuildingBlock: XIVTED_clean_linker_0, # of connection points: 2
#     Edge 70, Type (0, 1), BuildingBlock: XIVTED_clean_linker_0, # of connection points: 2
#     Edge 71, Type (0, 1), BuildingBlock: XIVTED_clean_linker_0, # of connection points: 2
#     Edge 72, Type (0, 1), BuildingBlock: XIVTED_clean_linker_0, # of connection points: 2
#     Edge 73, Type (0, 1), BuildingBlock: XIVTED_clean_linker_0, # of connection points: 2
#     Edge 74, Type (0, 1), BuildingBlock: XIVTED_clean_linker_0, # of connection points: 2
#     Edge 75, Type (0, 1), BuildingBlock: XIVTED_clean_linker_0, # of connection points: 2
#     Edge 76, Type (0, 1), BuildingBlock: XIVTED_clean_linker_0, # of connection points: 2
#     Edge 77, Type (0, 1), BuildingBlock: XIVTED_clean_linker_0, # of connection points: 2
#     Edge 78, Type (0, 1), BuildingBlock: XIVTED_clean_linker_0, # of connection points: 2
#     Edge 79, Type (0, 1), BuildingBlock: XIVTED_clean_linker_0, # of connection points: 2
#     Edge 80, Type (0, 1), BuildingBlock: XIVTED_clean_linker_0, # of connection points: 2
#     Edge 81, Type (0, 1), BuildingBlock: XIVTED_clean_linker_0, # of connection points: 2
#     Edge 82, Type (0, 1), BuildingBlock: XIVTED_clean_linker_0, # of connection points: 2
#     Edge 83, Type (0, 1), BuildingBlock: XIVTED_clean_linker_0, # of connection points: 2
#     Edge 84, Type (0, 1), BuildingBlock: XIVTED_clean_linker_0, # of connection points: 2
#     Edge 85, Type (0, 1), BuildingBlock: XIVTED_clean_linker_0, # of connection points: 2
#     Edge 86, Type (0, 1), BuildingBlock: XIVTED_clean_linker_0, # of connection points: 2
#     Edge 87, Type (0, 1), BuildingBlock: XIVTED_clean_linker_0, # of connection points: 2
#     Edge 88, Type (0, 1), BuildingBlock: XIVTED_clean_linker_0, # of connection points: 2
#     Edge 89, Type (0, 1), BuildingBlock: XIVTED_clean_linker_0, # of connection points: 2
#     Edge 90, Type (0, 1), BuildingBlock: XIVTED_clean_linker_0, # of connection points: 2
#     Edge 91, Type (0, 1), BuildingBlock: XIVTED_clean_linker_0, # of connection points: 2
#     Edge 92, Type (0, 1), BuildingBlock: XIVTED_clean_linker_0, # of connection points: 2
#     Edge 93, Type (0, 1), BuildingBlock: XIVTED_clean_linker_0, # of connection points: 2
#     Edge 94, Type (0, 1), BuildingBlock: XIVTED_clean_linker_0, # of connection points: 2
#     Edge 95, Type (0, 1), BuildingBlock: XIVTED_clean_linker_0, # of connection points: 2
#     Edge 96, Type (0, 1), BuildingBlock: XIVTED_clean_linker_0, # of connection points: 2
#     Edge 97, Type (0, 1), BuildingBlock: XIVTED_clean_linker_0, # of connection points: 2
#     Edge 98, Type (0, 1), BuildingBlock: XIVTED_clean_linker_0, # of connection points: 2
#     Edge 99, Type (0, 1), BuildingBlock: XIVTED_clean_linker_0, # of connection points: 2
#     Edge 100, Type (0, 1), BuildingBlock: XIVTED_clean_linker_0, # of connection points: 2
#     Edge 101, Type (0, 1), BuildingBlock: XIVTED_clean_linker_0, # of connection points: 2
#     Edge 102, Type (0, 1), BuildingBlock: XIVTED_clean_linker_0, # of connection points: 2
#     Edge 103, Type (0, 1), BuildingBlock: XIVTED_clean_linker_0, # of connection points: 2
#     Edge 104, Type (0, 1), BuildingBlock: XIVTED_clean_linker_0, # of connection points: 2
#     Edge 105, Type (0, 1), BuildingBlock: XIVTED_clean_linker_0, # of connection points: 2
#     Edge 106, Type (0, 1), BuildingBlock: XIVTED_clean_linker_0, # of connection points: 2
#     Edge 107, Type (0, 1), BuildingBlock: XIVTED_clean_linker_0, # of connection points: 2
# Relax obj value: 0.078
# Max RMSD: 0.240
# Mean RMSD: 0.132
data_MOF--net-ptr--node1-AZAVOO_clean_sbu_0--node2-KUFVIS_clean_linker_0--edge1-XIVTED_clean_linker_0
_symmetry_space_group_name_H-M    P1
_symmetry_Int_Tables_number       1
_symmetry_cell_setting            triclinic
loop_
_symmetry_equiv_pos_as_xyz
'x, y, z'
_cell_length_a     80.158521
_cell_length_b     78.833382
_cell_length_c     47.065656
_cell_angle_alpha  91.634815
_cell_angle_beta   91.563679
_cell_angle_gamma 120.06413
loop_
_atom_site_label
_atom_site_type_symbol
_atom_site_fract_x
_atom_site_fract_y
_atom_site_fract_z
_atom_type_partial_charge
Mg0 Mg 0.0108 0.36172 0.97276 0.0
O1 O 1.00317 0.37609 0.01006 0.0
O2 O 0.97689 0.37701 -0.00524 0.0
Mg3 Mg 0.96886 0.36523 0.94877 0.0
C4 C 0.98983 0.38023 0.01397 0.0
C5 C 0.04172 0.35134 0.98674 0.0
O6 O 0.039 0.34872 0.95893 0.0
O7 O 0.98496 0.33159 0.98099 0.0
O8 O 0.96026 0.33448 0.964 0.0
O9 O 0.03032 0.39108 0.95684 0.0
O10 O 0.99925 0.37348 0.94439 0.0
C11 C 0.96692 0.32441 0.97531 0.0
C12 C 0.01539 0.38981 0.94349 0.0
O13 O 0.03133 0.35638 0.00056 0.0
Mg14 Mg 0.64814 0.6461 0.04622 0.0
O15 O 0.62683 0.62965 0.00769 0.0
O16 O 0.5979 0.62335 0.0219 0.0
Mg17 Mg 0.6004 0.63506 0.06751 0.0
C18 C 0.60861 0.62231 0.00312 0.0
C19 C 0.68819 0.65478 0.03222 0.0
O20 O 0.68579 0.64787 0.05779 0.0
O21 O 0.64701 0.67375 0.03765 0.0
O22 O 0.61834 0.6669 0.0532 0.0
O23 O 0.64318 0.61778 0.06183 0.0
O24 O 0.62566 0.63129 0.07318 0.0
C25 C 0.63441 0.67869 0.0426 0.0
C26 C 0.62835 0.61646 0.0741 0.0
O27 O 0.67455 0.65606 0.01997 0.0
Mg28 Mg 0.36729 1.00131 0.97335 0.0
O29 O 0.38818 0.00902 0.01264 0.0
O30 O 0.41646 0.03443 0.00102 0.0
Mg31 Mg 0.4143 0.04157 0.95507 0.0
C32 C 0.4058 0.02204 0.01874 0.0
C33 C 0.32483 0.98109 0.99031 0.0
O34 O 0.32427 0.99137 0.9692 0.0
O35 O 0.36538 0.02873 0.9824 0.0
O36 O 0.39376 0.05248 0.96858 0.0
O37 O 0.37511 0.97969 0.95734 0.0
O38 O 0.39064 0.01107 0.94748 0.0
C39 C 0.37713 0.04675 0.97834 0.0
C40 C 0.38945 0.99412 0.94571 0.0
O41 O 0.3409 0.98283 -0.00157 0.0
Mg42 Mg 1.0035 0.65641 0.03037 0.0
O43 O 0.00697 0.64004 -0.00875 0.0
O44 O 0.03381 0.63883 0.00123 0.0
Mg45 Mg 0.04786 0.65446 0.04381 0.0
C46 C 0.01912 0.63465 0.98493 0.0
C47 C 0.96224 0.64771 0.0088 0.0
O48 O 0.95725 0.63132 0.02147 0.0
O49 O 0.02767 0.68623 0.01665 0.0
O50 O 0.0538 0.68391 0.02707 0.0
O51 O 0.98754 0.62762 0.05113 0.0
O52 O 0.01904 0.6475 0.05594 0.0
C53 C 0.04599 0.69355 0.01802 0.0
C54 C 1.00422 0.63085 0.06068 0.0
O55 O 0.98009 0.66033 0.0074 0.0
Mg56 Mg 0.36283 0.36603 0.9668 0.0
O57 O 0.38377 0.38285 0.00537 0.0
O58 O 0.41347 0.39155 -0.00828 0.0
Mg59 Mg 0.4114 0.37931 0.94644 0.0
C60 C 0.40207 0.39152 0.01018 0.0
C61 C 0.32007 0.3452 0.982 0.0
O62 O 0.31848 0.33756 0.9562 0.0
O63 O 0.36483 0.33884 0.97528 0.0
O64 O 0.39404 0.34725 0.96025 0.0
O65 O 0.36689 0.39392 0.951 0.0
O66 O 0.38517 0.38128 0.93967 0.0
C67 C 0.37802 0.33473 0.97029 0.0
C68 C 0.38186 0.39569 0.93864 0.0
O69 O 0.33679 0.35642 -0.0065 0.0
Mg70 Mg 0.64995 0.00897 0.03773 0.0
O71 O 0.63139 0.00495 -0.00278 0.0
O72 O 0.60451 0.97574 -0.00136 0.0
Mg73 Mg 0.60646 0.96042 0.03773 0.0
C74 C 0.6148 0.99192 0.9868 0.0
C75 C 0.6917 0.04407 0.03293 0.0
O76 O 0.69414 0.03676 0.05639 0.0
O77 O 0.65968 0.98844 0.0193 0.0
O78 O 0.63264 0.9594 0.0211 0.0
O79 O 0.63372 0.02086 0.06023 0.0
O80 O 0.62543 0.9895 0.05834 0.0
C81 C 0.65038 0.96979 0.01533 0.0
C82 C 0.62139 1.00287 0.06548 0.0
O83 O 0.6752 0.03569 0.01995 0.0
Mg84 Mg 0.68424 0.6957 0.29805 0.0
O85 O 0.67974 0.71278 0.33509 0.0
O86 O 0.65634 0.71836 0.3195 0.0
Mg87 Mg 0.646 0.70538 0.2744 0.0
C88 C 0.66872 0.72002 0.3387 0.0
C89 C 0.71264 0.68183 0.31272 0.0
O90 O 0.71009 0.67912 0.28491 0.0
O91 O 0.65621 0.66756 0.30745 0.0
O92 O 0.63397 0.6743 0.29061 0.0
O93 O 0.70609 0.72392 0.28095 0.0
O94 O 0.67486 0.70932 0.26951 0.0
C95 C 0.63859 0.66262 0.30202 0.0
C96 C 0.69188 0.72445 0.26817 0.0
O97 O 0.70295 0.68798 0.32609 0.0
Mg98 Mg 0.31918 0.97874 0.37322 0.0
O99 O 0.29702 0.96204 0.33577 0.0
O100 O 0.26837 0.95558 0.35134 0.0
Mg101 Mg 0.27188 0.96734 0.39719 0.0
C102 C 0.27875 0.9546 0.33197 0.0
C103 C 0.36099 1.00162 0.35474 0.0
O104 O 0.36211 0.01169 0.37815 0.0
O105 O 0.31776 0.0064 0.36538 0.0
O106 O 0.28945 0.99917 0.38287 0.0
O107 O 0.31491 0.95069 0.38859 0.0
O108 O 0.29748 0.96402 0.40138 0.0
C109 C 0.30518 0.01114 0.37159 0.0
C110 C 0.30038 0.94932 0.4018 0.0
O111 O 0.34461 0.98778 0.34537 0.0
Mg112 Mg 0.02921 0.32563 0.29841 0.0
O113 O 0.04988 0.33379 0.33813 0.0
O114 O 0.07873 0.35752 0.32492 0.0
Mg115 Mg 0.07719 0.36271 0.27787 0.0
C116 C 0.06773 0.34639 0.3436 0.0
C117 C 0.98869 0.29426 0.31146 0.0
O118 O 0.9916 0.28817 0.2868 0.0
O119 O 0.02973 0.35461 0.30431 0.0
O120 O 0.0585 0.37637 0.28891 0.0
O121 O 0.035 0.30187 0.28515 0.0
O122 O 0.05232 0.33275 0.27329 0.0
C123 C 0.04222 0.37212 0.29871 0.0
C124 C 0.04991 0.3153 0.2731 0.0
O125 O 1.0022 0.31004 0.32351 0.0
Mg126 Mg 0.66628 0.97838 0.36839 0.0
O127 O 0.67193 0.963 0.32989 0.0
O128 O 0.69519 0.95737 0.34611 0.0
Mg129 Mg 0.70439 0.96853 0.39211 0.0
C130 C 0.68336 0.95621 0.32635 0.0
C131 C 0.63376 0.98616 0.35486 0.0
O132 O 0.63083 0.97927 0.38047 0.0
O133 O 0.69434 0.00699 0.36152 0.0
O134 O 0.7166 1.00023 0.3782 0.0
O135 O 0.64416 0.9493 0.3833 0.0
O136 O 0.67521 0.96384 0.39575 0.0
C137 C 0.71192 0.01206 0.36746 0.0
C138 C 0.65822 0.94859 0.39623 0.0
O139 O 0.64824 0.98785 0.34196 0.0
Mg140 Mg 0.0309 0.69978 0.29582 0.0
O141 O 0.05235 0.71688 0.33406 0.0
O142 O 0.08125 0.72316 0.31984 0.0
Mg143 Mg 0.07864 0.71093 0.27453 0.0
C144 C 0.0706 0.72437 0.33854 0.0
C145 C 0.99082 0.69092 0.30996 0.0
O146 O 0.99318 0.69807 0.28456 0.0
O147 O 0.03219 0.67231 0.30509 0.0
O148 O 0.06094 0.67928 0.28974 0.0
O149 O 0.03551 0.72772 0.2793 0.0
O150 O 0.05316 0.71431 0.26837 0.0
C151 C 0.04491 0.66749 0.30046 0.0
C152 C 0.05023 0.72895 0.26682 0.0
O153 O 1.00457 0.68979 0.32213 0.0
Mg154 Mg 0.31307 0.33753 0.36566 0.0
O155 O 0.29352 0.33341 0.32614 0.0
O156 O 0.26589 0.30533 0.33101 0.0
Mg157 Mg 0.26779 0.29122 0.37147 0.0
C158 C 0.27634 0.32064 0.3174 0.0
C159 C 0.34973 0.37855 0.35584 0.0
O160 O 0.34396 0.38391 0.37848 0.0
O161 O 0.31934 0.31431 0.34799 0.0
O162 O 0.29162 0.2865 0.35332 0.0
O163 O 0.29981 0.35269 0.38851 0.0
O164 O 0.28893 0.32079 0.38862 0.0
C165 C 0.30905 0.29564 0.3457 0.0
C166 C 0.28669 0.33541 0.39549 0.0
O167 O 0.33962 0.36114 0.34517 0.0
Mg168 Mg 0.35297 0.03138 0.63395 0.0
O169 O 0.3473 0.04688 0.67221 0.0
O170 O 0.32375 0.05209 0.65615 0.0
Mg171 Mg 0.31409 0.04022 0.61057 0.0
C172 C 0.33584 0.05363 0.67573 0.0
C173 C 0.38896 0.02981 0.65229 0.0
O174 O 0.39434 0.0414 0.63082 0.0
O175 O 0.32524 1.00235 0.64116 0.0
O176 O 0.30265 0.00878 0.62492 0.0
O177 O 0.37434 0.06064 0.61905 0.0
O178 O 0.34336 0.04526 0.6061 0.0
C179 C 0.30756 0.99709 0.63549 0.0
C180 C 0.36011 0.06087 0.60586 0.0
O181 O 0.37183 0.02288 0.66059 0.0
Mg182 Mg 0.98205 0.31602 0.70771 0.0
O183 O 0.96182 0.2985 0.66867 0.0
O184 O 0.93242 0.2924 0.67986 0.0
Mg185 Mg 0.93349 0.30591 0.72357 0.0
C186 C 0.9437 0.29081 0.66275 0.0
C187 C 0.02018 0.31825 0.69257 0.0
O188 O 0.01512 0.30711 0.71456 0.0
O189 O 0.98181 0.34377 0.69548 0.0
O190 O 0.95232 0.33681 0.7073 0.0
O191 O 0.97534 0.28788 0.72651 0.0
O192 O 0.95868 0.30284 0.7339 0.0
C193 C 0.9688 0.34851 0.69775 0.0
C194 C 0.96053 0.28768 0.73713 0.0
O195 O 0.00917 0.32439 0.68335 0.0
Mg196 Mg 0.69449 0.65369 0.62889 0.0
O197 O 0.71511 0.6587 0.66773 0.0
O198 O 0.74467 0.68052 0.65453 0.0
Mg199 Mg 0.74323 0.68928 0.6093 0.0
C200 C 0.73337 0.66921 0.67281 0.0
C201 C 0.65335 0.62372 0.64349 0.0
O202 O 0.65471 0.61684 0.61844 0.0
O203 O 0.69701 0.68333 0.63814 0.0
O204 O 0.72644 0.70438 0.62411 0.0
O205 O 0.69835 0.62924 0.61229 0.0
O206 O 0.71698 0.66044 0.60265 0.0
C207 C 0.7104 0.70078 0.63417 0.0
C208 C 0.71363 0.64264 0.60091 0.0
O209 O 0.66793 0.63898 0.65477 0.0
Mg210 Mg 0.3333 0.31694 0.69184 0.0
O211 O 0.33871 0.30275 0.65166 0.0
O212 O 0.36384 0.29912 0.66481 0.0
Mg213 Mg 0.37292 0.30838 0.71147 0.0
C214 C 0.35116 0.29755 0.64625 0.0
C215 C 0.29975 0.32382 0.68167 0.0
O216 O 0.29711 0.31587 0.7065 0.0
O217 O 0.36075 0.34632 0.68552 0.0
O218 O 0.38393 0.34045 0.70078 0.0
O219 O 0.31214 0.2873 0.70615 0.0
O220 O 0.34343 0.30246 0.71705 0.0
C221 C 0.37852 0.35205 0.69131 0.0
C222 C 0.3267 0.28691 0.71797 0.0
O223 O 0.31427 0.32642 0.66795 0.0
Mg224 Mg 0.69946 0.02834 0.63466 0.0
O225 O 0.71932 0.04314 0.67507 0.0
O226 O 0.74878 0.04959 0.66341 0.0
Mg227 Mg 0.74818 0.04016 0.61705 0.0
C228 C 0.73727 0.04989 0.68139 0.0
C229 C 0.65908 0.02004 0.64577 0.0
O230 O 0.66286 0.02822 0.62106 0.0
O231 O 0.70009 1.00021 0.6418 0.0
O232 O 0.72944 0.00782 0.62831 0.0
O233 O 0.70535 0.05734 0.62033 0.0
O234 O 0.72303 0.0439 0.60982 0.0
C235 C 0.71295 0.99554 0.63725 0.0
C236 C 0.72043 0.05876 0.60878 0.0
O237 O 0.6719 0.01767 0.65861 0.0
Mg238 Mg 0.98547 0.68835 0.70731 0.0
O239 O 0.96377 0.68223 0.66962 0.0
O240 O 0.93508 0.6583 0.68251 0.0
Mg241 Mg 0.93827 0.64899 0.72666 0.0
C242 C 0.94565 0.67062 0.66463 0.0
C243 C 0.02778 0.71094 0.68942 0.0
O244 O 0.02999 0.70342 0.7128 0.0
O245 O 0.98599 0.66043 0.69545 0.0
O246 O 0.95728 0.63722 0.70912 0.0
O247 O 0.97909 0.71042 0.72611 0.0
O248 O 0.96297 0.6788 0.73471 0.0
C249 C 0.97358 0.64244 0.69851 0.0
C250 C 0.96468 0.69595 0.73754 0.0
O251 O 0.01091 0.70661 0.68064 0.0
H252 H 0.23766 0.34349 0.1204 0.0
H253 H 0.18757 0.32995 0.06775 0.0
H254 H 0.18565 0.3317 0.15952 0.0
H255 H 0.15618 0.30647 0.14919 0.0
H256 H 0.10978 0.31242 0.11401 0.0
H257 H 0.16404 0.33963 0.07398 0.0
C258 C 0.22284 0.34032 0.11861 0.0
C259 C 0.21248 0.33739 0.1431 0.0
C260 C 0.21407 0.33809 0.09156 0.0
C261 C 0.19443 0.33242 0.08879 0.0
C262 C 0.18377 0.32978 0.11329 0.0
C263 C 0.19323 0.33289 0.14032 0.0
C264 C 0.16279 0.32347 0.11131 0.0
C265 C 0.15072 0.31195 0.13266 0.0
C266 C 0.1318 0.30825 0.13402 0.0
C267 C 0.12427 0.31475 0.11261 0.0
C268 C 0.13572 0.32586 0.09084 0.0
C269 C 0.15499 0.33019 0.09004 0.0
H270 H 0.68864 0.91199 0.12044 0.0
H271 H 0.69298 0.86769 0.07166 0.0
H272 H 0.6836 0.86196 0.16175 0.0
H273 H 0.7035 0.84942 0.15828 0.0
H274 H 0.6933 0.79666 0.11419 0.0
H275 H 0.6755 0.83348 0.07392 0.0
C276 C 0.68857 0.89819 0.11949 0.0
C277 C 0.68607 0.88795 0.14428 0.0
C278 C 0.69079 0.8908 0.09332 0.0
C279 C 0.69087 0.87305 0.09192 0.0
C280 C 0.68881 0.86264 0.11671 0.0
C281 C 0.68606 0.87013 0.14269 0.0
C282 C 0.69 0.8443 0.11574 0.0
C283 C 0.69812 0.83977 0.13932 0.0
C284 C 0.6993 0.82264 0.13876 0.0
C285 C 0.69297 0.81026 0.11426 0.0
C286 C 0.68443 0.8141 0.09091 0.0
C287 C 0.68275 0.831 0.09169 0.0
H288 H 0.23758 0.90423 0.1246 0.0
H289 H 0.18694 0.87009 0.0706 0.0
H290 H 0.18584 0.86179 0.16142 0.0
H291 H 0.15596 0.85256 0.1565 0.0
H292 H 0.10803 0.80704 0.10767 0.0
H293 H 0.1619 0.83972 0.06828 0.0
C294 C 0.22256 0.89273 0.12226 0.0
C295 C 0.21238 0.88408 0.1463 0.0
C296 C 0.21351 0.88724 0.0951 0.0
C297 C 0.19376 0.87337 0.09175 0.0
C298 C 0.18313 0.86395 0.11559 0.0
C299 C 0.19297 0.86922 0.14272 0.0
C300 C 0.16198 0.8488 0.11255 0.0
C301 C 0.15029 0.8445 0.13629 0.0
C302 C 0.13114 0.82911 0.13487 0.0
C303 C 0.12274 0.81928 0.10872 0.0
C304 C 0.13367 0.82341 0.08457 0.0
C305 C 0.15339 0.83775 0.08664 0.0
H306 H 0.34166 0.10958 0.8767 0.0
H307 H 0.33549 0.15317 0.92396 0.0
H308 H 0.34106 0.15602 0.83266 0.0
H309 H 0.32192 0.16847 0.83549 0.0
H310 H 0.32753 0.21965 0.87851 0.0
H311 H 0.34812 0.18587 0.92098 0.0
C312 C 0.34067 0.12281 0.87705 0.0
C313 C 0.3412 0.13173 0.8516 0.0
C314 C 0.33897 0.13072 0.90307 0.0
C315 C 0.33736 0.14763 0.9037 0.0
C316 C 0.33757 0.15685 0.87827 0.0
C317 C 0.33992 0.14887 0.85237 0.0
C318 C 0.33489 0.17437 0.87856 0.0
C319 C 0.32655 0.17812 0.85442 0.0
C320 C 0.32409 0.19449 0.85429 0.0
C321 C 0.32901 0.2067 0.87884 0.0
C322 C 0.33749 0.20354 0.90293 0.0
C323 C 0.34078 0.18763 0.90263 0.0
H324 H 0.77138 0.11082 0.88978 0.0
H325 H 0.81963 0.15769 0.93694 0.0
H326 H 0.8256 0.14077 0.85098 0.0
H327 H 0.84736 0.17076 0.84832 0.0
H328 H 0.90003 0.21054 0.89357 0.0
H329 H 0.85092 0.17316 0.94068 0.0
C330 C 0.78638 0.12241 0.89069 0.0
C331 C 0.79745 0.1252 0.86704 0.0
C332 C 0.79452 0.13379 0.91596 0.0
C333 C 0.81399 0.14866 0.91748 0.0
C334 C 0.82564 0.15195 0.89387 0.0
C335 C 0.81713 0.13945 0.8691 0.0
C336 C 0.84636 0.1684 0.89443 0.0
C337 C 0.85535 0.17576 0.86858 0.0
C338 C 0.87481 0.19025 0.86834 0.0
C339 C 0.88533 0.19839 0.89399 0.0
C340 C 0.87653 0.19284 0.91999 0.0
C341 C 0.85722 0.17753 0.92028 0.0
H342 H 0.77053 0.66662 0.88083 0.0
H343 H 0.82009 0.68133 0.93568 0.0
H344 H 0.81951 0.66692 0.84625 0.0
H345 H 0.84947 0.69362 0.8527 0.0
H346 H 0.89732 0.69481 0.89686 0.0
H347 H 0.84244 0.66879 0.93538 0.0
C348 C 0.78479 0.6684 0.8838 0.0
C349 C 0.794 0.6663 0.8603 0.0
C350 C 0.79398 0.67354 0.91099 0.0
C351 C 0.81277 0.6766 0.91485 0.0
C352 C 0.82244 0.6748 0.89138 0.0
C353 C 0.81258 0.66898 0.8644 0.0
C354 C 0.84329 0.68068 0.89398 0.0
C355 C 0.85521 0.69022 0.8714 0.0
C356 C 0.87456 0.69513 0.87222 0.0
C357 C 0.88248 0.6916 0.89656 0.0
C358 C 0.87112 0.6823 0.91947 0.0
C359 C 0.85139 0.6766 0.9181 0.0
H360 H 0.90391 0.66864 0.45855 0.0
H361 H 0.85479 0.65415 0.40275 0.0
H362 H 0.8532 0.6646 0.49296 0.0
H363 H 0.82325 0.63696 0.48309 0.0
H364 H 0.77761 0.6419 0.44223 0.0
H365 H 0.83304 0.6681 0.40552 0.0
C366 C 0.88941 0.66622 0.45548 0.0
C367 C 0.87957 0.66711 0.47902 0.0
C368 C 0.88066 0.66174 0.42801 0.0
C369 C 0.8617 0.65812 0.4239 0.0
C370 C 0.85139 0.65856 0.44742 0.0
C371 C 0.8607 0.66356 0.47477 0.0
C372 C 0.83064 0.65282 0.44423 0.0
C373 C 0.81808 0.64193 0.46547 0.0
C374 C 0.79903 0.63805 0.46498 0.0
C375 C 0.79214 0.6442 0.44224 0.0
C376 C 0.80423 0.6549 0.42076 0.0
C377 C 0.8235 0.65913 0.42154 0.0
H378 H 0.3556 0.24542 0.44491 0.0
H379 H 0.35458 0.19617 0.40212 0.0
H380 H 0.34929 0.19767 0.49345 0.0
H381 H 0.36637 0.18243 0.49236 0.0
H382 H 0.35689 0.12863 0.453 0.0
H383 H 0.33869 0.16343 0.40784 0.0
C384 C 0.35493 0.23135 0.44579 0.0
C385 C 0.35293 0.22282 0.47198 0.0
C386 C 0.35494 0.22149 0.42059 0.0
C387 C 0.35386 0.20322 0.42175 0.0
C388 C 0.35237 0.19449 0.44806 0.0
C389 C 0.35123 0.20425 0.47303 0.0
C390 C 0.35287 0.17579 0.44957 0.0
C391 C 0.36091 0.17213 0.47412 0.0
C392 C 0.36226 0.15515 0.47531 0.0
C393 C 0.35616 0.14197 0.45175 0.0
C394 C 0.34777 0.14495 0.42742 0.0
C395 C 0.34579 0.16165 0.42646 0.0
H396 H 0.90247 0.23621 0.45889 0.0
H397 H 0.85303 0.19585 0.40599 0.0
H398 H 0.85509 0.18802 0.4964 0.0
H399 H 0.82447 0.17919 0.49183 0.0
H400 H 0.7778 0.12949 0.44712 0.0
H401 H 0.83127 0.16243 0.40627 0.0
C402 C 0.88836 0.22308 0.4567 0.0
C403 C 0.87961 0.21305 0.48085 0.0
C404 C 0.87902 0.21671 0.4297 0.0
C405 C 0.8604 0.20015 0.4268 0.0
C406 C 0.85114 0.18987 0.45095 0.0
C407 C 0.86133 0.19614 0.47769 0.0
C408 C 0.8306 0.17339 0.44897 0.0
C409 C 0.81896 0.16986 0.47259 0.0
C410 C 0.80015 0.1539 0.47218 0.0
C411 C 0.79219 0.14222 0.4472 0.0
C412 C 0.80321 0.14537 0.42329 0.0
C413 C 0.82255 0.16074 0.42431 0.0
H414 H 0.99529 0.43601 0.21084 0.0
H415 H 0.01398 0.49022 0.25786 0.0
H416 H 0.99301 0.48222 0.16963 0.0
H417 H 0.00898 0.51318 0.16892 0.0
H418 H 0.01714 0.56386 0.21609 0.0
H419 H 0.00703 0.51357 0.26129 0.0
C420 C 0.99688 0.45052 0.21206 0.0
C421 C 0.99392 0.45827 0.18747 0.0
C422 C 1.00376 0.46194 0.2375 0.0
C423 C 0.00751 0.48137 0.23841 0.0
C424 C 1.00343 0.48923 0.21423 0.0
C425 C 0.99643 0.47718 0.18883 0.0
C426 C 0.00724 0.51003 0.215 0.0
C427 C 0.00936 0.51989 0.18942 0.0
C428 C 0.01262 0.53906 0.18984 0.0
C429 C 0.01449 0.54893 0.21577 0.0
C430 C 0.01281 0.53986 0.24136 0.0
C431 C 0.0089 0.52039 0.24113 0.0
H432 H 0.43877 0.44491 0.22211 0.0
H433 H 0.49031 0.48346 0.27183 0.0
H434 H 0.48949 0.48438 0.17985 0.0
H435 H 0.51956 0.49438 0.18514 0.0
H436 H 0.56768 0.5437 0.2278 0.0
H437 H 0.5141 0.51488 0.2691 0.0
C438 C 0.45382 0.45632 0.22287 0.0
C439 C 0.46331 0.46311 0.19762 0.0
C440 C 0.46348 0.46373 0.24939 0.0
C441 C 0.48293 0.47858 0.25108 0.0
C442 C 0.49281 0.48639 0.22602 0.0
C443 C 0.48254 0.47866 0.19941 0.0
C444 C 0.51384 0.50195 0.22736 0.0
C445 C 0.52534 0.50412 0.20391 0.0
C446 C 0.54449 0.51938 0.20377 0.0
C447 C 0.55299 0.53152 0.2282 0.0
C448 C 0.54223 0.52975 0.25196 0.0
C449 C 0.52254 0.51529 0.2513 0.0
H450 H 0.45406 0.02372 0.22268 0.0
H451 H 0.48763 1.00395 0.26864 0.0
H452 H 0.49536 0.01509 0.17899 0.0
H453 H 0.50128 0.99095 0.17953 0.0
H454 H 0.54948 0.98985 0.21815 0.0
H455 H 0.51993 0.01246 0.2671 0.0
C456 C 0.46562 0.02033 0.22324 0.0
C457 C 0.47396 0.01954 0.19801 0.0
C458 C 0.47071 0.01499 0.24874 0.0
C459 C 0.48454 0.00899 0.24909 0.0
C460 C 0.49382 0.00898 0.22401 0.0
C461 C 0.48849 0.01465 0.19865 0.0
C462 C 0.50844 1.00243 0.22356 0.0
C463 C 0.51074 0.99397 0.19816 0.0
C464 C 0.52565 0.98976 0.19602 0.0
C465 C 0.53767 0.99278 0.21989 0.0
C466 C 0.53559 1.00076 0.24554 0.0
C467 C 0.52093 0.00556 0.2475 0.0
H468 H 0.57518 0.00712 0.78951 0.0
H469 H 0.52491 0.99428 0.73781 0.0
H470 H 0.52922 0.01082 0.82736 0.0
H471 H 0.49896 0.98755 0.82524 0.0
H472 H 0.45022 0.98523 0.78279 0.0
H473 H 0.50225 0.00472 0.73793 0.0
C474 C 0.56125 0.00624 0.78745 0.0
C475 C 0.55305 0.00907 0.81159 0.0
C476 C 0.55138 1.00137 0.76079 0.0
C477 C 0.5328 0.99904 0.75822 0.0
C478 C 0.52416 1.00172 0.78243 0.0
C479 C 0.53499 0.00773 0.80866 0.0
C480 C 0.50347 0.99675 0.78151 0.0
C481 C 0.49271 0.98985 0.8061 0.0
C482 C 0.47374 0.98602 0.80668 0.0
C483 C 0.46478 0.98767 0.78199 0.0
C484 C 0.4748 0.99408 0.75702 0.0
C485 C 0.49431 0.99898 0.7569 0.0
H486 H 1.00149 0.57094 0.78771 0.0
H487 H 0.00818 0.52799 0.74 0.0
H488 H 1.00235 0.52462 0.83142 0.0
H489 H 0.01867 0.50995 0.83005 0.0
H490 H 0.01631 0.46106 0.78524 0.0
H491 H 0.99876 0.49667 0.7411 0.0
C492 C 1.00242 0.55767 0.78728 0.0
C493 C 1.00226 0.54886 0.81265 0.0
C494 C 1.00407 0.54983 0.76124 0.0
C495 C 0.00612 0.53318 0.76038 0.0
C496 C 0.00596 0.52382 0.78572 0.0
C497 C 1.0035 0.53171 0.81168 0.0
C498 C 0.0088 0.50631 0.78534 0.0
C499 C 0.01536 0.50132 0.8103 0.0
C500 C 0.01779 0.48494 0.81026 0.0
C501 C 0.01483 0.47401 0.78494 0.0
C502 C 0.00828 0.47838 0.75991 0.0
C503 C 1.00481 0.4942 0.76028 0.0
H504 H 0.56749 0.57274 0.79545 0.0
H505 H 0.5176 0.53406 0.7421 0.0
H506 H 0.51817 0.52672 0.83283 0.0
H507 H 0.48773 0.51824 0.82703 0.0
H508 H 0.44116 0.46896 0.78135 0.0
H509 H 0.49528 0.50126 0.74209 0.0
C510 C 0.55297 0.56025 0.79317 0.0
C511 C 0.54365 0.55071 0.81733 0.0
C512 C 0.54377 0.55407 0.76605 0.0
C513 C 0.52477 0.53822 0.76305 0.0
C514 C 0.51495 0.52838 0.78712 0.0
C515 C 0.52489 0.53451 0.81409 0.0
C516 C 0.49426 0.51229 0.78458 0.0
C517 C 0.48233 0.50896 0.80774 0.0
C518 C 0.46342 0.49316 0.80689 0.0
C519 C 0.45563 0.48159 0.78176 0.0
C520 C 0.46692 0.48463 0.75818 0.0
C521 C 0.48637 0.49972 0.7598 0.0
H522 H 0.68559 0.77663 0.54298 0.0
H523 H 0.67406 0.81508 0.59387 0.0
H524 H 0.67592 0.81897 0.5022 0.0
H525 H 0.65503 0.82864 0.5075 0.0
H526 H 0.65746 0.87761 0.55274 0.0
H527 H 0.68262 0.84691 0.59207 0.0
C528 C 0.68274 0.78871 0.54426 0.0
C529 C 0.68045 0.79673 0.51938 0.0
C530 C 0.68089 0.79565 0.57095 0.0
C531 C 0.6762 0.81053 0.57302 0.0
C532 C 0.67403 0.81913 0.54825 0.0
C533 C 0.67663 0.81225 0.52155 0.0
C534 C 0.66892 0.83503 0.55001 0.0
C535 C 0.65931 0.83801 0.52668 0.0
C536 C 0.65547 0.8535 0.52741 0.0
C537 C 0.65988 0.86524 0.55238 0.0
C538 C 0.6694 0.86272 0.57579 0.0
C539 C 0.67427 0.84791 0.57441 0.0
H540 H 0.11096 0.78247 0.54339 0.0
H541 H 0.16167 0.81761 0.59708 0.0
H542 H 0.16378 0.82148 0.50547 0.0
H543 H 0.19308 0.82752 0.51315 0.0
H544 H 0.24142 0.87614 0.55696 0.0
H545 H 0.18686 0.84896 0.59574 0.0
C546 C 0.12608 0.79371 0.54553 0.0
C547 C 0.13657 0.80086 0.52121 0.0
C548 C 0.13498 0.80013 0.57275 0.0
C549 C 0.15488 0.81349 0.57589 0.0
C550 C 0.16579 0.82137 0.55172 0.0
C551 C 0.15618 0.81519 0.52447 0.0
C552 C 0.18707 0.83577 0.55452 0.0
C553 C 0.1989 0.83727 0.53193 0.0
C554 C 0.21825 0.85214 0.53233 0.0
C555 C 0.22658 0.86421 0.55691 0.0
C556 C 0.21546 0.86289 0.58006 0.0
C557 C 0.19559 0.84897 0.5786 0.0
H558 H 0.11423 0.3542 0.55057 0.0
H559 H 0.15192 0.34122 0.60012 0.0
H560 H 0.15904 0.35039 0.50982 0.0
H561 H 0.16908 0.32977 0.51151 0.0
H562 H 0.21807 0.33245 0.55367 0.0
H563 H 0.18383 0.35046 0.60017 0.0
C564 C 0.12679 0.35241 0.55218 0.0
C565 C 0.13585 0.35217 0.52749 0.0
C566 C 0.13275 0.34886 0.57851 0.0
C567 C 0.14804 0.34487 0.57994 0.0
C568 C 0.15791 0.34526 0.55524 0.0
C569 C 0.15174 0.3494 0.52921 0.0
C570 C 0.17409 0.34081 0.55585 0.0
C571 C 0.17814 0.33346 0.53075 0.0
C572 C 0.19408 0.33081 0.52985 0.0
C573 C 0.20559 0.33438 0.55447 0.0
C574 C 0.20186 0.34123 0.57983 0.0
C575 C 0.18613 0.34449 0.58065 0.0
H576 H 0.95855 0.37547 0.04183 0.0
H577 H 0.01717 0.47086 0.14286 0.0
H578 H 0.02079 0.40811 0.04657 0.0
H579 H 0.96534 0.42112 0.17043 0.0
H580 H 0.01609 0.45112 0.10081 0.0
H581 H 0.95845 0.39468 0.08371 0.0
C582 C 0.97218 0.38659 0.05186 0.0
C583 C 0.98972 0.39019 0.04091 0.0
C584 C 1.00486 0.44463 0.11594 0.0
C585 C 0.98964 0.4125 0.08799 0.0
C586 C 1.00531 0.45592 0.13963 0.0
C587 C 0.99122 0.44758 0.15986 0.0
C588 C 0.99002 0.42501 0.11226 0.0
C589 C 0.97637 0.42804 0.15512 0.0
C590 C 0.97209 0.39751 0.07565 0.0
C591 C 0.00698 0.40477 0.05458 0.0
N592 N 0.97609 0.41739 0.13167 0.0
N593 N 0.00652 0.41561 0.07724 0.0
H594 H 0.63552 0.58848 0.09384 0.0
H595 H 0.5307 0.52574 0.15436 0.0
H596 H 0.59033 0.6028 0.08488 0.0
H597 H 0.58142 0.52834 0.19287 0.0
H598 H 0.5502 0.54589 0.11643 0.0
H599 H 0.61356 0.55924 0.11893 0.0
C600 C 0.62093 0.58538 0.09691 0.0
C601 C 0.61482 0.59827 0.08771 0.0
C602 C 0.55694 0.54162 0.1328 0.0
C603 C 0.58965 0.56476 0.11575 0.0
C604 C 0.54579 0.52991 0.15422 0.0
C605 C 0.55455 0.52556 0.17687 0.0
C606 C 0.5769 0.54885 0.134 0.0
C607 C 0.57421 0.53156 0.17585 0.0
C608 C 0.60845 0.56871 0.11116 0.0
C609 C 0.59577 0.59352 0.09209 0.0
N610 N 0.58483 0.54317 0.15496 0.0
N611 N 0.58386 0.57715 0.10588 0.0
H612 H 0.43385 0.05392 0.04948 0.0
H613 H 0.45932 0.99258 0.15375 0.0
H614 H 0.3985 0.99095 0.05096 0.0
H615 H 0.46856 0.04948 0.18088 0.0
H616 H 0.44172 0.99322 0.11073 0.0
H617 H 0.45093 0.054 0.09355 0.0
C618 C 0.42961 0.04013 0.05923 0.0
C619 C 0.41474 0.02239 0.04668 0.0
C620 C 0.4477 0.00559 0.12605 0.0
C621 C 0.43449 0.02238 0.09641 0.0
C622 C 0.45791 0.00535 0.15033 0.0
C623 C 0.46547 0.02108 0.17063 0.0
C624 C 0.44537 0.02184 0.12184 0.0
C625 C 0.46298 0.03713 0.16557 0.0
C626 C 0.43933 0.04021 0.0843 0.0
C627 C 0.40978 0.00494 0.06012 0.0
N628 N 0.45322 0.03718 0.1415 0.0
N629 N 0.41984 0.00533 0.0841 0.0
H630 H 0.38537 0.95941 0.92577 0.0
H631 H 0.48757 0.0095 0.85488 0.0
H632 H 0.42608 0.02164 0.93211 0.0
H633 H 0.43768 0.95699 0.81926 0.0
H634 H 0.46863 0.00971 0.89474 0.0
H635 H 0.408 0.95461 0.8975 0.0
C636 C 0.39917 0.97204 0.92155 0.0
C637 C 0.40376 0.99101 0.93095 0.0
C638 C 0.46199 0.99791 0.87852 0.0
C639 C 0.42969 0.98553 0.89912 0.0
C640 C 0.47281 0.99766 0.85599 0.0
C641 C 0.46406 0.98326 0.8338 0.0
C642 C 0.44241 0.98355 0.87889 0.0
C643 C 0.44483 0.96839 0.83596 0.0
C644 C 0.41202 0.96926 0.90543 0.0
C645 C 0.42183 0.00682 0.92494 0.0
N646 N 0.43455 0.969 0.85802 0.0
N647 N 0.43414 1.00374 0.90929 0.0
H648 H 0.04825 0.42174 0.92749 0.0
H649 H 0.99409 0.47225 0.85443 0.0
H650 H 0.98642 0.39662 0.92532 0.0
H651 H 0.04736 0.4787 0.82523 0.0
H652 H 0.99446 0.45129 0.89179 0.0
H653 H 0.05096 0.44898 0.90042 0.0
C654 C 0.03524 0.42202 0.92156 0.0
C655 C 0.01703 0.40675 0.92843 0.0
C656 C 0.00628 0.45767 0.87759 0.0
C657 C 0.02013 0.43803 0.8979 0.0
C658 C 0.0062 0.46979 0.85658 0.0
C659 C 0.02076 0.47719 0.83694 0.0
C660 C 0.02114 0.45317 0.87905 0.0
C661 C 0.03594 0.47329 0.84013 0.0
C662 C 0.03683 0.43757 0.90612 0.0
C663 C 1.0007 0.40793 0.92023 0.0
N664 N 0.03569 0.46143 0.86071 0.0
N665 N 1.00263 0.42331 0.90536 0.0
H666 H 0.57045 0.60506 0.98638 0.0
H667 H 0.58148 0.56431 0.83468 0.0
H668 H 0.62499 0.61431 0.95758 0.0
H669 H 0.52759 0.55571 0.86509 0.0
H670 H 0.59757 0.58128 0.88014 0.0
H671 H 0.5546 0.58607 0.9425 0.0
C672 C 0.57916 0.60317 0.9708 0.0
C673 C 0.59916 0.61139 0.97578 0.0
C674 C 0.5822 0.57555 0.87693 0.0
C675 C 0.5809 0.58941 0.92518 0.0
C676 C 0.573 0.56588 0.85099 0.0
C677 C 0.55316 0.55868 0.84598 0.0
C678 C 0.5715 0.5781 0.89804 0.0
C679 C 0.54286 0.56087 0.86804 0.0
C680 C 0.57003 0.59223 0.9457 0.0
C681 C 0.60957 0.60832 0.95468 0.0
N682 N 0.55217 0.57049 0.89299 0.0
N683 N 0.60031 0.59758 0.93028 0.0
H684 H 0.9897 0.62141 0.94337 0.0
H685 H 0.02464 0.5551 0.86097 0.0
H686 H 0.04038 0.61824 0.96783 0.0
H687 H 0.98005 0.56517 0.8266 0.0
H688 H 0.02765 0.57509 0.90348 0.0
H689 H 0.98372 0.59861 0.90263 0.0
C690 C 0.99961 0.61604 0.94016 0.0
C691 C 0.01561 0.62186 0.95909 0.0
C692 C 0.0171 0.57285 0.88673 0.0
C693 C 0.00868 0.59558 0.91286 0.0
C694 C 0.01524 0.56124 0.86259 0.0
C695 C 1.00217 0.55857 0.84013 0.0
C696 C 0.0058 0.58185 0.88852 0.0
C697 C 0.99052 0.5671 0.84327 0.0
C698 C 0.99615 0.60298 0.91697 0.0
C699 C 0.02789 0.6143 0.95387 0.0
N700 N 0.99268 0.57846 0.86693 0.0
N701 N 0.02414 0.60157 0.93138 0.0
H702 H 0.37301 0.42208 0.91715 0.0
H703 H 0.47741 0.48777 0.85691 0.0
H704 H 0.42017 0.41089 0.92855 0.0
H705 H 0.42562 0.48162 0.81636 0.0
H706 H 0.45828 0.46762 0.89505 0.0
H707 H 0.39401 0.45114 0.89097 0.0
C708 C 0.38783 0.42584 0.9144 0.0
C709 C 0.3948 0.41387 0.92457 0.0
C710 C 0.4512 0.47108 0.87814 0.0
C711 C 0.41883 0.44715 0.8953 0.0
C712 C 0.46211 0.48276 0.85656 0.0
C713 C 0.453 0.48616 0.83335 0.0
C714 C 0.4311 0.4629 0.87653 0.0
C715 C 0.4331 0.47911 0.83378 0.0
C716 C 0.39975 0.44239 0.89952 0.0
C717 C 0.4141 0.41944 0.92057 0.0
N718 N 0.42272 0.46755 0.85488 0.0
N719 N 0.42545 0.43567 0.90616 0.0
H720 H 0.63284 0.02215 0.95057 0.0
H721 H 0.53524 0.9899 0.85863 0.0
H722 H 0.57757 0.97149 0.9654 0.0
H723 H 0.59144 0.03083 0.82933 0.0
H724 H 0.55051 0.98762 0.90265 0.0
H725 H 0.61791 0.02916 0.90976 0.0
C726 C 0.61761 0.01249 0.94525 0.0
C727 C 0.60648 0.99613 0.96135 0.0
C728 C 0.55952 0.99725 0.88672 0.0
C729 C 0.58933 0.00425 0.91515 0.0
C730 C 0.55079 0.99876 0.8617 0.0
C731 C 0.56209 0.0105 0.84017 0.0
C732 C 0.57972 0.00752 0.89033 0.0
C733 C 0.58221 0.0214 0.84524 0.0
C734 C 0.60912 0.01653 0.92203 0.0
C735 C 0.5868 0.98417 0.95353 0.0
N736 N 0.59043 0.01954 0.86974 0.0
N737 N 0.57888 0.98851 0.93108 0.0
H738 H 0.59541 0.96778 0.08638 0.0
H739 H 0.53153 0.01026 0.14827 0.0
H740 H 0.60497 0.02582 0.07248 0.0
H741 H 0.53341 0.9607 0.18109 0.0
H742 H 0.55063 0.01021 0.10866 0.0
H743 H 0.56584 0.96001 0.11006 0.0
C744 C 0.59117 0.97882 0.08798 0.0
C745 C 0.6028 0.99759 0.07784 0.0
C746 C 0.54643 0.99903 0.12413 0.0
C747 C 0.56898 0.98874 0.10477 0.0
C748 C 0.53535 0.9989 0.14653 0.0
C749 C 0.53119 0.98563 0.16811 0.0
C750 C 0.55332 0.98579 0.12343 0.0
C751 C 0.53659 0.97132 0.16501 0.0
C752 C 0.57428 0.97435 0.10147 0.0
C753 C 0.59658 0.01128 0.08042 0.0
N754 N 0.5477 0.97199 0.14333 0.0
N755 N 0.58015 0.00664 0.09387 0.0
H756 H 0.03684 0.63492 0.08696 0.0
H757 H 0.98461 0.52765 0.14755 0.0
H758 H 0.9769 0.59229 0.06741 0.0
H759 H 0.04207 0.57366 0.1735 0.0
H760 H 0.98329 0.54853 0.11079 0.0
H761 H 0.04052 0.61034 0.11185 0.0
C762 C 0.02447 0.62031 0.08761 0.0
C763 C 0.00652 0.61568 0.07508 0.0
C764 C 0.99632 0.55389 0.12415 0.0
C765 C 0.01058 0.5874 0.10406 0.0
C766 C 0.99714 0.54192 0.14486 0.0
C767 C 0.01344 0.54908 0.16348 0.0
C768 C 0.01195 0.57304 0.12221 0.0
C769 C 0.02923 0.56771 0.15953 0.0
C770 C 0.02657 0.60625 0.10194 0.0
C771 C 0.99096 0.59652 0.07695 0.0
N772 N 0.02802 0.57914 0.13952 0.0
N773 N 0.99331 0.58308 0.09138 0.0
H774 H 0.43737 0.42426 0.01997 0.0
H775 H 0.43718 0.42392 0.1866 0.0
H776 H 0.3862 0.38425 0.06247 0.0
H777 H 0.46692 0.47871 0.14444 0.0
H778 H 0.42123 0.4073 0.14132 0.0
H779 H 0.45163 0.44258 0.06543 0.0
C780 C 0.42916 0.4193 0.0389 0.0
C781 C 0.41061 0.40266 0.03753 0.0
C782 C 0.43115 0.42298 0.14211 0.0
C783 C 0.42692 0.4234 0.08944 0.0
C784 C 0.44022 0.43262 0.16804 0.0
C785 C 0.45338 0.45297 0.16975 0.0
C786 C 0.4356 0.43355 0.11737 0.0
C787 C 0.45715 0.46304 0.14438 0.0
C788 C 0.43726 0.42984 0.06471 0.0
C789 C 0.40053 0.397 0.06263 0.0
N790 N 0.44844 0.4532 0.1192 0.0
N791 N 0.40893 0.40722 0.08768 0.0
H792 H 0.64699 0.73632 0.35411 0.0
H793 H 0.70546 0.78452 0.50241 0.0
H794 H 0.69516 0.73035 0.38392 0.0
H795 H 0.65616 0.78842 0.47253 0.0
H796 H 0.70317 0.76621 0.45824 0.0
H797 H 0.6511 0.75646 0.39668 0.0
C798 C 0.65843 0.73917 0.36964 0.0
C799 C 0.67074 0.73154 0.36534 0.0
C800 C 0.69294 0.77118 0.46127 0.0
C801 C 0.67558 0.75485 0.41437 0.0
C802 C 0.69422 0.78162 0.48648 0.0
C803 C 0.68089 0.78791 0.49127 0.0
C804 C 0.6782 0.76695 0.44067 0.0
C805 C 0.66683 0.78402 0.46969 0.0
C806 C 0.66079 0.75076 0.39398 0.0
C807 C 0.68529 0.73584 0.38633 0.0
N808 N 0.66579 0.77368 0.44545 0.0
N809 N 0.68731 0.74722 0.40994 0.0
H810 H 0.30884 0.92244 0.42233 0.0
H811 H 0.20429 0.85726 0.48209 0.0
H812 H 0.26224 0.93462 0.41254 0.0
H813 H 0.25568 0.86224 0.5223 0.0
H814 H 0.22358 0.8773 0.44407 0.0
H815 H 0.28758 0.89308 0.44779 0.0
C816 C 0.29409 0.91884 0.42532 0.0
C817 C 0.28735 0.93115 0.4158 0.0
C818 C 0.23053 0.87358 0.46085 0.0
C819 C 0.26301 0.89752 0.44417 0.0
C820 C 0.21951 0.86192 0.48236 0.0
C821 C 0.22848 0.8583 0.50555 0.0
C822 C 0.25059 0.88154 0.46249 0.0
C823 C 0.2483 0.86493 0.50494 0.0
C824 C 0.28202 0.90212 0.43977 0.0
C825 C 0.26813 0.9258 0.42006 0.0
N826 N 0.2588 0.87653 0.48394 0.0
N827 N 0.25663 0.90937 0.434 0.0
H828 H 0.09538 0.37942 0.37249 0.0
H829 H 0.12216 0.32382 0.48514 0.0
H830 H 0.06039 0.31677 0.37902 0.0
H831 H 0.12893 0.38043 0.50736 0.0
H832 H 0.10433 0.32234 0.44101 0.0
H833 H 0.11222 0.38145 0.41787 0.0
C834 C 0.09117 0.36612 0.38363 0.0
C835 C 0.07648 0.34789 0.37215 0.0
C836 C 0.10981 0.3351 0.45552 0.0
C837 C 0.09597 0.35008 0.42334 0.0
C838 C 0.12013 0.33606 0.48041 0.0
C839 C 0.12708 0.35235 0.4996 0.0
C840 C 0.1068 0.35072 0.44958 0.0
C841 C 0.12384 0.3677 0.4929 0.0
C842 C 0.10075 0.36731 0.40943 0.0
C843 C 0.07155 0.3311 0.38734 0.0
N844 N 0.11403 0.3666 0.46824 0.0
N845 N 0.08149 0.33255 0.41203 0.0
H846 H 0.08865 0.33941 0.26815 0.0
H847 H 0.09415 0.27973 0.13984 0.0
H848 H 0.04211 0.28055 0.24746 0.0
H849 H 0.14535 0.3229 0.18786 0.0
H850 H 0.07497 0.27734 0.18075 0.0
H851 H 0.11008 0.33246 0.24059 0.0
C852 C 0.08299 0.32499 0.25791 0.0
C853 C 0.06355 0.31066 0.25952 0.0
C854 C 0.09048 0.28687 0.18265 0.0
C855 C 0.08788 0.30258 0.22795 0.0
C856 C 0.1014 0.28818 0.15936 0.0
C857 C 0.12127 0.30169 0.16044 0.0
C858 C 0.0995 0.29951 0.20676 0.0
C859 C 0.13004 0.31233 0.18616 0.0
C860 C 0.09527 0.32094 0.24246 0.0
C861 C 0.05703 0.29204 0.24646 0.0
N862 N 0.11902 0.31142 0.20808 0.0
N863 N 0.06908 0.28864 0.23063 0.0
H864 H 0.66647 0.73772 0.25937 0.0
H865 H 0.72702 0.81253 0.14648 0.0
H866 H 0.72491 0.75195 0.24512 0.0
H867 H 0.68136 0.81529 0.18871 0.0
H868 H 0.72786 0.79169 0.1835 0.0
H869 H 0.67196 0.76644 0.23389 0.0
C870 C 0.68044 0.74682 0.25083 0.0
C871 C 0.69514 0.74222 0.25392 0.0
C872 C 0.71803 0.7973 0.18512 0.0
C873 C 0.70159 0.77525 0.22486 0.0
C874 C 0.71764 0.80925 0.16413 0.0
C875 C 0.70412 0.81557 0.16469 0.0
C876 C 0.70443 0.79124 0.20629 0.0
C877 C 0.69207 0.81079 0.18771 0.0
C878 C 0.68365 0.7634 0.23658 0.0
C879 C 0.71314 0.75491 0.24301 0.0
N880 N 0.6922 0.79851 0.2073 0.0
N881 N 0.71579 0.77069 0.22854 0.0
H882 H 0.24055 0.93821 0.3158 0.0
H883 H 0.24937 0.89475 0.16487 0.0
H884 H 0.29433 0.94582 0.28622 0.0
H885 H 0.19698 0.89115 0.19324 0.0
H886 H 0.26566 0.91136 0.21038 0.0
H887 H 0.22415 0.91931 0.27202 0.0
C888 C 0.24897 0.93597 0.30008 0.0
C889 C 0.26892 0.94371 0.30478 0.0
C890 C 0.25057 0.90681 0.20671 0.0
C891 C 0.25004 0.92185 0.25437 0.0
C892 C 0.24125 0.89734 0.18073 0.0
C893 C 0.22179 0.89166 0.17511 0.0
C894 C 0.24037 0.91065 0.22727 0.0
C895 C 0.21193 0.8951 0.19667 0.0
C896 C 0.23953 0.9251 0.27504 0.0
C897 C 0.27896 0.94022 0.28353 0.0
N898 N 0.22136 0.90448 0.22167 0.0
N899 N 0.26941 0.92954 0.25924 0.0
H900 H 0.66137 0.95057 0.27685 0.0
H901 H 0.70301 0.8895 0.19633 0.0
H902 H 0.70389 0.93817 0.31353 0.0
H903 H 0.66459 0.90562 0.15496 0.0
H904 H 0.70136 0.90536 0.2406 0.0
H905 H 0.66071 0.93281 0.2327 0.0
C906 C 0.67056 0.94418 0.27567 0.0
C907 C 0.68273 0.94597 0.29901 0.0
C908 C 0.69323 0.9054 0.22188 0.0
C909 C 0.68194 0.92554 0.24873 0.0
C910 C 0.69405 0.89619 0.19663 0.0
C911 C 0.68401 0.8963 0.17184 0.0
C912 C 0.68226 0.91481 0.22246 0.0
C913 C 0.67281 0.90544 0.17347 0.0
C914 C 0.67016 0.93403 0.25049 0.0
C915 C 0.6943 0.9373 0.2962 0.0
N916 N 0.67228 0.91437 0.19831 0.0
N917 N 0.69358 0.9275 0.27164 0.0
H918 H 0.04268 0.75694 0.24818 0.0
H919 H 0.14533 0.81978 0.18116 0.0
H920 H 0.08741 0.7417 0.25184 0.0
H921 H 0.09383 0.81792 0.14741 0.0
H922 H 0.12659 0.7981 0.21831 0.0
H923 H 0.06366 0.78559 0.22135 0.0
C924 C 0.05698 0.7597 0.24358 0.0
C925 C 0.06325 0.74678 0.25198 0.0
C926 C 0.11949 0.80277 0.2031 0.0
C927 C 0.08731 0.77963 0.2218 0.0
C928 C 0.1302 0.81533 0.18213 0.0
C929 C 0.12106 0.82055 0.16113 0.0
C930 C 0.09956 0.79554 0.20319 0.0
C931 C 0.10135 0.8141 0.16313 0.0
C932 C 0.06889 0.77603 0.22829 0.0
C933 C 0.0819 0.75109 0.2455 0.0
N934 N 0.09118 0.80176 0.18367 0.0
N935 N 0.09329 0.76716 0.23075 0.0
H936 H 0.29281 0.3515 0.2818 0.0
H937 H 0.19564 0.31136 0.18463 0.0
H938 H 0.23968 0.2977 0.2945 0.0
H939 H 0.24943 0.3623 0.16512 0.0
H940 H 0.21117 0.30827 0.22777 0.0
H941 H 0.27705 0.35721 0.24081 0.0
C942 C 0.2779 0.34086 0.27595 0.0
C943 C 0.2676 0.32406 0.29164 0.0
C944 C 0.21958 0.32021 0.21418 0.0
C945 C 0.24946 0.33063 0.24504 0.0
C946 C 0.21065 0.32212 0.18967 0.0
C947 C 0.22125 0.33708 0.17115 0.0
C948 C 0.23932 0.33332 0.2203 0.0
C949 C 0.24077 0.35039 0.1786 0.0
C950 C 0.2689 0.34417 0.25262 0.0
C951 C 0.24827 0.31084 0.2831 0.0
N952 N 0.24922 0.34813 0.20254 0.0
N953 N 0.23987 0.31443 0.26047 0.0
H954 H 0.25991 0.30213 0.41955 0.0
H955 H 0.20225 0.35185 0.48233 0.0
H956 H 0.27378 0.36139 0.40393 0.0
H957 H 0.20173 0.30153 0.51681 0.0
H958 H 0.2215 0.35075 0.44345 0.0
H959 H 0.23221 0.29756 0.44567 0.0
C960 C 0.25701 0.31412 0.42132 0.0
C961 C 0.26928 0.33225 0.40978 0.0
C962 C 0.21679 0.33969 0.45917 0.0
C963 C 0.23757 0.32707 0.43967 0.0
C964 C 0.20564 0.34017 0.48111 0.0
C965 C 0.20057 0.32682 0.50274 0.0
C966 C 0.22273 0.32569 0.45894 0.0
C967 C 0.2055 0.31212 0.50052 0.0
C968 C 0.24119 0.31149 0.43627 0.0
C969 C 0.26481 0.34726 0.41279 0.0
N970 N 0.21651 0.31208 0.47917 0.0
N971 N 0.24936 0.34438 0.42763 0.0
H972 H 0.62511 0.92106 0.41914 0.0
H973 H 0.67301 0.86017 0.47704 0.0
H974 H 0.6835 0.93518 0.40479 0.0
H975 H 0.6271 0.86286 0.51873 0.0
H976 H 0.67093 0.87988 0.43936 0.0
H977 H 0.62043 0.89268 0.44549 0.0
C978 C 0.63688 0.91809 0.42129 0.0
C979 C 0.65486 0.93071 0.41027 0.0
C980 C 0.66101 0.87576 0.45642 0.0
C981 C 0.64948 0.8982 0.43976 0.0
C982 C 0.66202 0.86432 0.47772 0.0
C983 C 0.6503 0.86004 0.5011 0.0
C984 C 0.6481 0.88282 0.45846 0.0
C985 C 0.63648 0.86601 0.50113 0.0
C986 C 0.63419 0.90193 0.43629 0.0
C987 C 0.66958 0.92614 0.41352 0.0
N988 N 0.63591 0.87733 0.4803 0.0
N989 N 0.66659 0.91028 0.42803 0.0
H990 H 0.10828 0.73957 0.35666 0.0
H991 H 0.09999 0.79056 0.50084 0.0
H992 H 0.05499 0.73534 0.38202 0.0
H993 H 0.15165 0.79074 0.47672 0.0
H994 H 0.08366 0.77215 0.45631 0.0
H995 H 0.12454 0.75961 0.39965 0.0
C996 C 0.09993 0.74279 0.3713 0.0
C997 C 0.08016 0.73569 0.3656 0.0
C998 C 0.09861 0.77633 0.4607 0.0
C999 C 0.0989 0.7589 0.41515 0.0
C1000 C 0.10795 0.78684 0.48612 0.0
C1001 C 0.12722 0.79213 0.49267 0.0
C1002 C 0.10858 0.77105 0.44163 0.0
C1003 C 0.13687 0.78717 0.47253 0.0
C1004 C 0.10929 0.75431 0.3959 0.0
C1005 C 0.0702 0.74041 0.38553 0.0
N1006 N 0.12742 0.77683 0.44806 0.0
N1007 N 0.07969 0.75175 0.40941 0.0
H1008 H 0.36117 0.06353 0.7225 0.0
H1009 H 0.32035 0.12585 0.80161 0.0
H1010 H 0.31361 0.06957 0.68979 0.0
H1011 H 0.36427 0.11612 0.83963 0.0
H1012 H 0.31968 0.10725 0.75875 0.0
H1013 H 0.36384 0.08391 0.76471 0.0
C1014 C 0.35124 0.06901 0.72421 0.0
C1015 C 0.33716 0.06478 0.70247 0.0
C1016 C 0.32954 0.10924 0.77641 0.0
C1017 C 0.34028 0.08827 0.75049 0.0
C1018 C 0.33005 0.12004 0.80078 0.0
C1019 C 0.34229 0.12245 0.8243 0.0
C1020 C 0.34137 0.10079 0.77547 0.0
C1021 C 0.35439 0.11436 0.82213 0.0
C1022 C 0.35282 0.08071 0.74825 0.0
C1023 C 0.32473 0.07238 0.70587 0.0
N1024 N 0.35357 0.10383 0.79822 0.0
N1025 N 0.32663 0.08375 0.72929 0.0
H1026 H 0.96163 0.25452 0.74922 0.0
H1027 H 0.86254 0.20682 0.82909 0.0
H1028 H 0.92616 0.28117 0.75752 0.0
H1029 H 0.9081 0.19433 0.84815 0.0
H1030 H 0.88157 0.22786 0.79134 0.0
H1031 H 0.93813 0.22666 0.77512 0.0
C1032 C 0.94883 0.25445 0.75618 0.0
C1033 C 0.94591 0.27029 0.75127 0.0
C1034 C 0.88721 0.22019 0.80343 0.0
C1035 C 0.91895 0.23839 0.78051 0.0
C1036 C 0.8763 0.20807 0.82471 0.0
C1037 C 0.88389 0.199 0.84168 0.0
C1038 C 0.9057 0.22307 0.79911 0.0
C1039 C 0.90188 0.20123 0.83551 0.0
C1040 C 0.93544 0.23854 0.77091 0.0
C1041 C 0.92904 0.26935 0.76073 0.0
N1042 N 0.91229 0.21321 0.81483 0.0
N1043 N 0.91622 0.2537 0.77497 0.0
H1044 H 0.77155 0.68883 0.68995 0.0
H1045 H 0.75601 0.64207 0.84226 0.0
H1046 H 0.71544 0.64639 0.71802 0.0
H1047 H 0.81133 0.68474 0.81234 0.0
H1048 H 0.7409 0.64166 0.79613 0.0
H1049 H 0.78622 0.68608 0.73405 0.0
C1050 C 0.76224 0.67893 0.70541 0.0
C1051 C 0.74215 0.66787 0.70019 0.0
C1052 C 0.75636 0.65096 0.7996 0.0
C1053 C 0.75906 0.6646 0.75106 0.0
C1054 C 0.765 0.65121 0.82591 0.0
C1055 C 0.78497 0.66354 0.83126 0.0
C1056 C 0.76777 0.66317 0.77849 0.0
C1057 C 0.79594 0.67487 0.80916 0.0
C1058 C 0.7707 0.67733 0.73064 0.0
C1059 C 0.73097 0.65526 0.72113 0.0
N1060 N 0.78717 0.67452 0.78388 0.0
N1061 N 0.73958 0.654 0.74569 0.0
H1062 H 0.75284 0.66474 0.60154 0.0
H1063 H 0.7609 0.60986 0.46755 0.0
H1064 H 0.70491 0.60935 0.56969 0.0
H1065 H 0.8106 0.65143 0.51992 0.0
H1066 H 0.74029 0.60642 0.50697 0.0
H1067 H 0.77454 0.65816 0.57424 0.0
C1068 C 0.74691 0.65117 0.58879 0.0
C1069 C 0.72706 0.63779 0.5872 0.0
C1070 C 0.75577 0.61585 0.51012 0.0
C1071 C 0.75174 0.63007 0.55594 0.0
C1072 C 0.76751 0.61779 0.48766 0.0
C1073 C 0.7874 0.63116 0.4904 0.0
C1074 C 0.764 0.62768 0.53516 0.0
C1075 C 0.79531 0.641 0.51689 0.0
C1076 C 0.75933 0.64727 0.57348 0.0
C1077 C 0.72016 0.62011 0.57114 0.0
N1078 N 0.78352 0.63943 0.53804 0.0
N1079 N 0.73245 0.61692 0.55557 0.0
H1080 H 0.39435 0.09372 0.59608 0.0
H1081 H 0.393 0.15007 0.48581 0.0
H1082 H 0.33273 0.06884 0.58425 0.0
H1083 H 0.34261 0.1454 0.52358 0.0
H1084 H 0.39573 0.13078 0.52361 0.0
H1085 H 0.39911 0.12237 0.57065 0.0
C1086 C 0.38181 0.0943 0.58831 0.0
C1087 C 0.36308 0.0787 0.59201 0.0
C1088 C 0.38454 0.13463 0.52435 0.0
C1089 C 0.36847 0.11137 0.56302 0.0
C1090 C 0.38302 0.14564 0.50282 0.0
C1091 C 0.36769 0.14939 0.50193 0.0
C1092 C 0.37031 0.12697 0.54458 0.0
C1093 C 0.35477 0.14297 0.5239 0.0
C1094 C 0.38457 0.11062 0.57374 0.0
C1095 C 0.3474 0.08035 0.58172 0.0
N1096 N 0.35607 0.1316 0.54399 0.0
N1097 N 0.35045 0.09639 0.56767 0.0
H1098 H 0.96169 0.28274 0.61951 0.0
H1099 H 0.86243 0.21596 0.52863 0.0
H1100 H 0.90567 0.2711 0.645 0.0
H1101 H 0.91796 0.22977 0.49816 0.0
H1102 H 0.8782 0.23362 0.57353 0.0
H1103 H 0.94619 0.26177 0.57632 0.0
C1104 C 0.94619 0.27585 0.61605 0.0
C1105 C 0.93501 0.27879 0.63594 0.0
C1106 C 0.88697 0.2327 0.55713 0.0
C1107 C 0.91722 0.25467 0.58681 0.0
C1108 C 0.87792 0.22241 0.53155 0.0
C1109 C 0.88888 0.22144 0.5095 0.0
C1110 C 0.90717 0.24221 0.56077 0.0
C1111 C 0.90897 0.2304 0.51443 0.0
C1112 C 0.93735 0.26384 0.59145 0.0
C1113 C 0.91496 0.26939 0.63034 0.0
N1114 N 0.9175 0.24053 0.53948 0.0
N1115 N 0.90676 0.2578 0.60638 0.0
H1116 H 0.31952 0.27217 0.61187 0.0
H1117 H 0.38127 0.25857 0.49256 0.0
H1118 H 0.38169 0.30149 0.61753 0.0
H1119 H 0.32417 0.21217 0.50959 0.0
H1120 H 0.38035 0.27788 0.53359 0.0
H1121 H 0.3195 0.25361 0.56881 0.0
C1122 C 0.33314 0.27496 0.60373 0.0
C1123 C 0.35064 0.28836 0.61819 0.0
C1124 C 0.36804 0.26344 0.52844 0.0
C1125 C 0.35071 0.26731 0.56936 0.0
C1126 C 0.36859 0.25244 0.50514 0.0
C1127 C 0.35285 0.23374 0.49801 0.0
C1128 C 0.35147 0.25586 0.5444 0.0
C1129 C 0.33666 0.22646 0.51474 0.0
C1130 C 0.3331 0.26424 0.57944 0.0
C1131 C 0.36788 0.29124 0.60704 0.0
N1132 N 0.33631 0.23762 0.53712 0.0
N1133 N 0.36749 0.28086 0.58328 0.0
H1134 H 0.75832 0.07204 0.5977 0.0
H1135 H 0.76274 0.1432 0.48267 0.0
H1136 H 0.71323 0.08644 0.58781 0.0
H1137 H 0.81427 0.14776 0.52148 0.0
H1138 H 0.74433 0.12365 0.52197 0.0
H1139 H 0.77925 0.10028 0.57043 0.0
C1140 C 0.75285 0.08119 0.58995 0.0
C1141 C 0.73394 0.07674 0.59471 0.0
C1142 C 0.75976 0.12936 0.52226 0.0
C1143 C 0.75775 0.10901 0.56336 0.0
C1144 C 0.77024 0.14053 0.49991 0.0
C1145 C 0.78998 0.14698 0.49885 0.0
C1146 C 0.76906 0.12425 0.5432 0.0
C1147 C 0.79907 0.14311 0.5216 0.0
C1148 C 0.76487 0.09742 0.57458 0.0
C1149 C 0.72772 0.08932 0.58449 0.0
N1150 N 0.78845 0.13161 0.54255 0.0
N1151 N 0.73948 0.1047 0.56883 0.0
H1152 H 0.96227 0.69447 0.61996 0.0
H1153 H 0.86277 0.64779 0.52679 0.0
H1154 H 0.90744 0.6491 0.64784 0.0
H1155 H 0.91707 0.69301 0.49735 0.0
H1156 H 0.8787 0.6501 0.57278 0.0
H1157 H 0.94594 0.69561 0.57591 0.0
C1158 C 0.94684 0.68476 0.61687 0.0
C1159 C 0.93626 0.6716 0.63765 0.0
C1160 C 0.88714 0.65963 0.55635 0.0
C1161 C 0.91749 0.67292 0.58739 0.0
C1162 C 0.87799 0.65845 0.53014 0.0
C1163 C 0.88861 0.67014 0.50809 0.0
C1164 C 0.9071 0.67256 0.56061 0.0
C1165 C 0.90838 0.68348 0.5136 0.0
C1166 C 0.93751 0.68545 0.59175 0.0
C1167 C 0.91626 0.65943 0.63246 0.0
N1168 N 0.91701 0.68423 0.53923 0.0
N1169 N 0.90757 0.66036 0.6079 0.0
H1170 H 0.97051 0.72926 0.76577 0.0
H1171 H 0.86311 0.67757 0.81921 0.0
H1172 H 0.92625 0.66983 0.74222 0.0
H1173 H 0.91172 0.72493 0.86681 0.0
H1174 H 0.8842 0.68102 0.78057 0.0
H1175 H 0.9471 0.73337 0.79329 0.0
C1176 C 0.95583 0.71715 0.76618 0.0
C1177 C 0.95038 0.69901 0.75231 0.0
C1178 C 0.89014 0.69095 0.79921 0.0
C1179 C 0.92362 0.70374 0.78305 0.0
C1180 C 0.87809 0.68914 0.82112 0.0
C1181 C 0.8858 0.70083 0.84633 0.0
C1182 C 0.90995 0.70459 0.80257 0.0
C1183 C 0.90534 0.71547 0.84781 0.0
C1184 C 0.94253 0.71952 0.78181 0.0
C1185 C 0.9312 0.68384 0.75327 0.0
N1186 N 0.91685 0.71677 0.82636 0.0
N1187 N 0.9185 0.68652 0.7685 0.0
H1188 H 0.3534 0.27546 0.72785 0.0
H1189 H 0.29545 0.20315 0.84453 0.0
H1190 H 0.29392 0.25819 0.74003 0.0
H1191 H 0.34241 0.2015 0.80464 0.0
H1192 H 0.29341 0.22197 0.80537 0.0
H1193 H 0.34933 0.24788 0.75515 0.0
C1194 C 0.33947 0.26583 0.73615 0.0
C1195 C 0.32407 0.2693 0.73204 0.0
C1196 C 0.30383 0.21705 0.80479 0.0
C1197 C 0.3193 0.23772 0.76338 0.0
C1198 C 0.30494 0.20628 0.82704 0.0
C1199 C 0.31913 0.20085 0.82771 0.0
C1200 C 0.31736 0.22284 0.78355 0.0
C1201 C 0.33121 0.20535 0.80475 0.0
C1202 C 0.33709 0.24996 0.75152 0.0
C1203 C 0.3062 0.25609 0.74286 0.0
N1204 N 0.33034 0.21648 0.78388 0.0
N1205 N 0.30438 0.24106 0.75849 0.0
H1206 H 0.77298 0.06066 0.7049 0.0
H1207 H 0.76211 0.11518 0.84267 0.0
H1208 H 0.72042 0.06058 0.72312 0.0
H1209 H 0.81153 0.1082 0.82998 0.0
H1210 H 0.74673 0.09544 0.79887 0.0
H1211 H 0.7873 0.07811 0.75049 0.0
C1212 C 0.76438 0.06423 0.71853 0.0
C1213 C 0.74545 0.0592 0.71002 0.0
C1214 C 0.7609 0.09817 0.80569 0.0
C1215 C 0.76193 0.07937 0.76239 0.0
C1216 C 0.7697 0.10938 0.83078 0.0
C1217 C 0.78816 0.11334 0.84014 0.0
C1218 C 0.77065 0.0909 0.7896 0.0
C1219 C 0.7974 0.10575 0.82348 0.0
C1220 C 0.77261 0.0742 0.74462 0.0
C1221 C 0.73504 0.06414 0.72875 0.0
N1222 N 0.78856 0.09492 0.79902 0.0
N1223 N 0.74347 0.07407 0.75397 0.0
H1224 H 0.05569 0.36167 0.04213 0.0
H1225 H 0.12566 0.3172 0.03395 0.0
H1226 H 0.06339 0.33679 0.96412 0.0
H1227 H 0.12585 0.35301 0.10495 0.0
H1228 H 0.10422 0.32538 0.00664 0.0
H1229 H 0.08186 0.35888 0.06506 0.0
C1230 C 0.06285 0.35558 0.02984 0.0
C1231 C 0.05727 0.34938 0.00121 0.0
C1232 C 0.10929 0.33178 0.02799 0.0
C1233 C 0.08735 0.3462 0.02729 0.0
C1234 C 0.12166 0.32728 0.04338 0.0
C1235 C 0.1275 0.33454 0.07156 0.0
C1236 C 0.10262 0.34339 0.04115 0.0
C1237 C 0.12165 0.34721 0.08317 0.0
C1238 C 0.0779 0.35411 0.04288 0.0
C1239 C 0.06719 0.34173 0.98627 0.0
N1240 N 0.10935 0.35103 0.06807 0.0
N1241 N 0.08166 0.34024 -0.00047 0.0
H1242 H 0.61182 0.69533 0.05135 0.0
H1243 H 0.70215 0.8024 0.05319 0.0
H1244 H 0.66799 0.70901 0.02378 0.0
H1245 H 0.6461 0.78946 0.07939 0.0
H1246 H 0.68771 0.76949 0.03052 0.0
H1247 H 0.62188 0.73012 0.05108 0.0
C1248 C 0.62618 0.70558 0.04485 0.0
C1249 C 0.63921 0.69921 0.03819 0.0
C1250 C 0.6784 0.77397 0.04043 0.0
C1251 C 0.65085 0.73918 0.03793 0.0
C1252 C 0.68663 0.79286 0.05301 0.0
C1253 C 0.67525 0.79855 0.06808 0.0
C1254 C 0.65873 0.76058 0.04354 0.0
C1255 C 0.65529 0.7856 0.06777 0.0
C1256 C 0.63191 0.72548 0.04465 0.0
C1257 C 0.65753 0.71321 0.02955 0.0
N1258 N 0.6477 0.76702 0.05631 0.0
N1259 N 0.66289 0.73254 0.03012 0.0
H1260 H 0.2888 0.97702 0.98481 0.0
H1261 H 0.24097 0.88066 0.07485 0.0
H1262 H 0.31969 0.95098 0.023 0.0
H1263 H 0.2141 0.91562 0.06238 0.0
H1264 H 0.26697 0.9022 0.04485 0.0
H1265 H 0.25894 0.95135 0.00423 0.0
C1266 C 0.28931 0.96593 -0.00274 0.0
C1267 C 0.30678 0.96622 0.00251 0.0
C1268 C 0.25522 0.90498 0.04817 0.0
C1269 C 0.27274 0.93673 0.02412 0.0
C1270 C 0.2403 0.89256 0.06495 0.0
C1271 C 0.22547 0.89642 0.0708 0.0
C1272 C 0.25538 0.9215 0.03744 0.0
C1273 C 0.22528 0.91215 0.05799 0.0
C1274 C 0.27228 0.95129 0.00822 0.0
C1275 C 0.30661 0.95146 0.01866 0.0
N1276 N 0.24022 0.92435 0.0421 0.0
N1277 N 0.28986 0.93732 0.02881 0.0
H1278 H 0.39933 0.08678 0.98168 0.0
H1279 H 0.36577 0.14715 0.94725 0.0
H1280 H 0.3402 0.03979 0.98303 0.0
H1281 H 0.31543 0.09305 0.91736 0.0
H1282 H 0.37419 0.12882 0.98025 0.0
H1283 H 0.38813 0.11005 0.97693 0.0
C1284 C 0.38397 0.08141 0.98171 0.0
C1285 C 0.37068 0.06124 0.98206 0.0
C1286 C 0.36116 0.12095 0.96677 0.0
C1287 C 0.3576 0.08795 0.97694 0.0
C1288 C 0.35618 0.13148 0.94836 0.0
C1289 C 0.34016 0.12145 0.92925 0.0
C1290 C 0.35014 0.10032 0.96554 0.0
C1291 C 0.32811 0.1012 0.9315 0.0
C1292 C 0.37753 0.09481 0.97933 0.0
C1293 C 0.35096 0.05518 0.98241 0.0
N1294 N 0.33356 0.09122 0.94886 0.0
N1295 N 0.34501 0.06843 0.97908 0.0
H1296 H 0.975 0.2948 0.98389 0.0
H1297 H 0.8649 0.21352 0.95287 0.0
H1298 H 0.92762 0.30606 0.97734 0.0
H1299 H 0.91245 0.20334 0.94254 0.0
H1300 H 0.88683 0.2448 0.97835 0.0
H1301 H 0.9517 0.25956 0.98374 0.0
C1302 C 0.95972 0.28992 0.98296 0.0
C1303 C 0.95327 0.30341 0.98 0.0
C1304 C 0.89239 0.23546 0.97132 0.0
C1305 C 0.92655 0.26311 0.97995 0.0
C1306 C 0.87978 0.21743 0.95718 0.0
C1307 C 0.88695 0.206 0.94527 0.0
C1308 C 0.91227 0.24205 0.9734 0.0
C1309 C 0.90643 0.21188 0.95121 0.0
C1310 C 0.94643 0.26979 0.98287 0.0
C1311 C 0.93328 0.2962 0.97906 0.0
N1312 N 0.91853 0.22973 0.96424 0.0
N1313 N 0.92067 0.27657 0.97868 0.0
H1314 H 0.71707 0.64763 0.0483 0.0
H1315 H 0.77822 0.69701 0.91289 0.0
H1316 H 0.70075 0.67521 0.98387 0.0
H1317 H 0.78574 0.6558 0.96201 0.0
H1318 H 0.75473 0.69557 0.94612 0.0
H1319 H 0.74645 0.65615 0.02331 0.0
C1320 C 0.71972 0.65559 0.029 0.0
C1321 C 0.70634 0.66056 0.01797 0.0
C1322 C 0.76169 0.68704 0.94991 0.0
C1323 C 0.73999 0.6705 0.98957 0.0
C1324 C 0.77516 0.68795 0.93108 0.0
C1325 C 0.78365 0.67627 0.9346 0.0
C1326 C 0.75664 0.67433 0.97242 0.0
C1327 C 0.77942 0.66495 0.95861 0.0
C1328 C 0.73649 0.66044 0.0148 0.0
C1329 C 0.71056 0.67091 -0.00703 0.0
N1330 N 0.76595 0.66403 0.97647 0.0
N1331 N 0.72699 0.6755 0.97959 0.0
H1332 H 0.92318 0.62258 0.00144 0.0
H1333 H 0.90244 0.70711 0.95337 0.0
H1334 H 0.96701 0.68314 -0.0062 0.0
H1335 H 0.8616 0.6457 0.9363 0.0
H1336 H 0.92374 0.69841 0.97922 0.0
H1337 H 0.89856 0.63068 0.98632 0.0
C1338 C 0.92764 0.63757 -0.00342 0.0
C1339 C 0.94723 0.65218 -0.00132 0.0
C1340 C 0.90995 0.68679 0.97036 0.0
C1341 C 0.9191 0.66157 0.98197 0.0
C1342 C 0.89768 0.69176 0.95599 0.0
C1343 C 0.88027 0.67709 0.94276 0.0
C1344 C 0.90482 0.66699 0.97144 0.0
C1345 C 0.87484 0.65742 0.94644 0.0
C1346 C 0.91357 0.64217 0.98805 0.0
C1347 C 0.95214 0.67135 -0.00777 0.0
N1348 N 0.88723 0.65291 0.96011 0.0
N1349 N 0.93818 0.67548 0.98423 0.0
H1350 H 0.34444 0.30284 0.98605 0.0
H1351 H 0.37469 0.22814 0.9222 0.0
H1352 H 0.40172 0.31961 0.95999 0.0
H1353 H 0.3162 0.21376 0.93566 0.0
H1354 H 0.38633 0.25934 0.94946 0.0
H1355 H 0.33571 0.26844 0.98091 0.0
C1356 C 0.35532 0.29936 0.97974 0.0
C1357 C 0.37374 0.31421 0.97281 0.0
C1358 C 0.37096 0.24912 0.94716 0.0
C1359 C 0.36373 0.27472 0.96671 0.0
C1360 C 0.36435 0.23124 0.93191 0.0
C1361 C 0.3445 0.21851 0.92668 0.0
C1362 C 0.35757 0.25422 0.95708 0.0
C1363 C 0.33163 0.22328 0.93925 0.0
C1364 C 0.35029 0.27966 0.97677 0.0
C1365 C 0.38724 0.30869 0.96508 0.0
N1366 N 0.33838 0.2409 0.95348 0.0
N1367 N 0.38188 0.2894 0.96179 0.0
H1368 H 0.73016 0.06185 0.04915 0.0
H1369 H 0.7605 0.13321 0.91991 0.0
H1370 H 0.69034 0.0663 0.99047 0.0
H1371 H 0.80039 0.12194 0.9673 0.0
H1372 H 0.73606 0.11543 0.95426 0.0
H1373 H 0.75701 0.08944 0.02702 0.0
C1374 C 0.72705 0.06874 0.03181 0.0
C1375 C 0.708 0.06157 0.02133 0.0
C1376 C 0.75027 0.11717 0.95757 0.0
C1377 C 0.73858 0.09319 -0.0038 0.0
C1378 C 0.76425 0.12748 0.93813 0.0
C1379 C 0.78234 0.12884 0.94079 0.0
C1380 C 0.75436 0.10795 0.97959 0.0
C1381 C 0.78656 0.12117 0.96464 0.0
C1382 C 0.74237 0.08449 0.01924 0.0
C1383 C 0.7048 0.07114 -0.00104 0.0
N1384 N 0.77251 0.11067 0.9829 0.0
N1385 N 0.71993 0.08635 0.98705 0.0
H1386 H 0.63574 0.93211 -0.00597 0.0
H1387 H 0.71694 0.92862 0.08259 0.0
H1388 H 0.68914 0.98345 0.02341 0.0
H1389 H 0.66609 0.87736 0.04655 0.0
H1390 H 0.71196 0.94868 0.04856 0.0
H1391 H 0.65101 0.91225 -0.00049 0.0
C1392 C 0.65086 0.93931 0.00089 0.0
C1393 C 0.661 0.95935 0.00919 0.0
C1394 C 0.70217 0.93297 0.04743 0.0
C1395 C 0.67844 0.93662 0.01621 0.0
C1396 C 0.70508 0.92153 0.06679 0.0
C1397 C 0.69169 0.90144 0.06757 0.0
C1398 C 0.68547 0.92428 0.02929 0.0
C1399 C 0.67662 0.89286 0.0467 0.0
C1400 C 0.65959 0.92794 0.00407 0.0
C1401 C 0.68065 0.96797 0.01732 0.0
N1402 N 0.6736 0.90443 0.02886 0.0
N1403 N 0.68858 0.95645 0.02143 0.0
H1404 H 0.03672 0.72263 0.01386 0.0
H1405 H 0.10248 0.81797 0.05234 0.0
H1406 H 0.08493 0.71268 0.01123 0.0
H1407 H 0.14318 0.79772 0.06065 0.0
H1408 H 0.08103 0.78865 0.02287 0.0
H1409 H 0.05911 0.75772 0.01754 0.0
C1410 C 0.05204 0.72786 0.01327 0.0
C1411 C 0.05892 0.71463 0.01295 0.0
C1412 C 0.09465 0.79049 0.03075 0.0
C1413 C 0.08502 0.75516 0.01728 0.0
C1414 C 0.1071 0.80752 0.04714 0.0
C1415 C 0.12449 0.81011 0.05908 0.0
C1416 C 0.09944 0.77569 0.02699 0.0
C1417 C 0.12987 0.79623 0.05182 0.0
C1418 C 0.06499 0.74809 0.01541 0.0
C1419 C 0.07894 0.72231 0.0121 0.0
N1420 N 0.11719 0.77941 0.03678 0.0
N1421 N 0.09123 0.74198 0.01483 0.0
H1422 H 0.28187 0.31862 0.96866 0.0
H1423 H 0.24604 0.37138 0.07834 0.0
H1424 H 0.31918 0.36816 0.0256 0.0
H1425 H 0.20973 0.31069 0.05054 0.0
H1426 H 0.27106 0.37349 0.0477 0.0
H1427 H 0.25372 0.31782 0.98962 0.0
C1428 C 0.28414 0.32925 0.9856 0.0
C1429 C 0.30289 0.34339 -0.00445 0.0
C1430 C 0.25748 0.3598 0.04783 0.0
C1431 C 0.27094 0.34289 0.01882 0.0
C1432 C 0.24315 0.35869 0.06498 0.0
C1433 C 0.22592 0.34085 0.06685 0.0
C1434 C 0.25459 0.34291 0.03258 0.0
C1435 C 0.22284 0.32472 0.04942 0.0
C1436 C 0.26811 0.32882 -0.0026 0.0
C1437 C 0.30502 0.35688 0.01743 0.0
N1438 N 0.23722 0.32603 0.0332 0.0
N1439 N 0.28926 0.35635 0.02819 0.0
H1440 H 0.72737 0.69341 0.36759 0.0
H1441 H 0.79209 0.64293 0.36513 0.0
H1442 H 0.73225 0.66443 0.29171 0.0
H1443 H 0.79748 0.68473 0.43089 0.0
H1444 H 0.77104 0.65107 0.33671 0.0
H1445 H 0.75299 0.68992 0.39107 0.0
C1446 C 0.73377 0.68623 0.3559 0.0
C1447 C 0.72759 0.67913 0.32768 0.0
C1448 C 0.7772 0.65879 0.35707 0.0
C1449 C 0.75704 0.67516 0.35439 0.0
C1450 C 0.78936 0.65431 0.37306 0.0
C1451 C 0.79661 0.66338 0.40011 0.0
C1452 C 0.77207 0.67214 0.36859 0.0
C1453 C 0.79228 0.67762 0.40993 0.0
C1454 C 0.74852 0.68438 0.36923 0.0
C1455 C 0.73654 0.6701 0.31351 0.0
N1456 N 0.78009 0.68138 0.39436 0.0
N1457 N 0.75073 0.66826 0.32706 0.0
H1458 H 0.33853 0.04229 0.35358 0.0
H1459 H 0.31002 0.11961 0.41202 0.0
H1460 H 0.2821 0.02697 0.38197 0.0
H1461 H 0.36779 0.13376 0.39357 0.0
H1462 H 0.29762 0.0872 0.38805 0.0
H1463 H 0.34737 0.0768 0.35575 0.0
C1464 C 0.32787 0.04611 0.35985 0.0
C1465 C 0.30966 0.03167 0.36819 0.0
C1466 C 0.31297 0.09759 0.38847 0.0
C1467 C 0.31977 0.07127 0.37083 0.0
C1468 C 0.31999 0.11617 0.4018 0.0
C1469 C 0.3399 0.12925 0.40468 0.0
C1470 C 0.32603 0.09214 0.37822 0.0
C1471 C 0.35231 0.12401 0.39166 0.0
C1472 C 0.33295 0.06586 0.36109 0.0
C1473 C 0.29642 0.03757 0.37581 0.0
N1474 N 0.34521 0.10573 0.37942 0.0
N1475 N 0.30183 0.05692 0.37735 0.0
H1476 H 0.95968 0.25694 0.29667 0.0
H1477 H 0.89454 0.25578 0.42285 0.0
H1478 H 0.97492 0.30581 0.35608 0.0
H1479 H 0.8877 0.20302 0.38157 0.0
H1480 H 0.91902 0.2753 0.38946 0.0
H1481 H 0.92909 0.23805 0.31984 0.0
C1482 C 0.95655 0.26375 0.31448 0.0
C1483 C 0.96996 0.28292 0.32469 0.0
C1484 C 0.91195 0.25944 0.38735 0.0
C1485 C 0.93494 0.26149 0.35092 0.0
C1486 C 0.89789 0.24832 0.40622 0.0
C1487 C 0.88935 0.22783 0.40507 0.0
C1488 C 0.91753 0.24999 0.36724 0.0
C1489 C 0.89403 0.21881 0.3831 0.0
C1490 C 0.93909 0.25295 0.32762 0.0
C1491 C 0.96512 0.29101 0.34773 0.0
N1492 N 0.90809 0.22999 0.36524 0.0
N1493 N 0.94802 0.28024 0.3601 0.0
H1494 H 0.00744 0.36849 0.31186 0.0
H1495 H 0.03962 0.47565 0.26216 0.0
H1496 H 0.06567 0.41161 0.29275 0.0
H1497 H 0.9806 0.42904 0.26531 0.0
H1498 H 0.04999 0.45597 0.28873 0.0
H1499 H 0.99839 0.39376 0.30947 0.0
C1500 C 0.01841 0.38331 0.30758 0.0
C1501 C 0.03724 0.3878 0.30177 0.0
C1502 C 0.03472 0.45027 0.28436 0.0
C1503 C 0.02694 0.41679 0.29905 0.0
C1504 C 0.02881 0.4616 0.26951 0.0
C1505 C 0.00929 0.45379 0.26142 0.0
C1506 C 0.02096 0.43106 0.29093 0.0
C1507 C 0.99582 0.43544 0.27107 0.0
C1508 C 0.01322 0.39775 0.30626 0.0
C1509 C 0.05087 0.40735 0.29675 0.0
N1510 N 1.00193 0.42451 0.28488 0.0
N1511 N 0.04539 0.42105 0.2951 0.0
H1512 H 0.6418 0.63073 0.31669 0.0
H1513 H 0.53215 0.55656 0.26935 0.0
H1514 H 0.59953 0.64799 0.29781 0.0
H1515 H 0.57465 0.53927 0.28439 0.0
H1516 H 0.5544 0.58882 0.29223 0.0
H1517 H 0.61576 0.59652 0.31644 0.0
C1518 C 0.62705 0.62741 0.31296 0.0
C1519 C 0.62294 0.64229 0.30667 0.0
C1520 C 0.55868 0.5778 0.2913 0.0
C1521 C 0.59302 0.60308 0.30625 0.0
C1522 C 0.54584 0.55928 0.27862 0.0
C1523 C 0.55166 0.54534 0.27487 0.0
C1524 C 0.57749 0.58237 0.30001 0.0
C1525 C 0.5697 0.54971 0.28683 0.0
C1526 C 0.61216 0.60784 0.3128 0.0
C1527 C 0.60348 0.63703 0.30223 0.0
N1528 N 0.58214 0.56797 0.29831 0.0
N1529 N 0.58932 0.61788 0.30171 0.0
H1530 H 0.39742 0.03361 0.36092 0.0
H1531 H 0.44481 0.98162 0.27287 0.0
H1532 H 0.36506 0.97559 0.32038 0.0
H1533 H 0.46948 0.04439 0.2785 0.0
H1534 H 0.41891 0.97825 0.30301 0.0
H1535 H 0.42696 0.03693 0.34139 0.0
C1536 C 0.39653 0.02161 0.34789 0.0
C1537 C 0.37875 0.00439 0.34197 0.0
C1538 C 0.43026 0.99278 0.2982 0.0
C1539 C 0.41241 0.00787 0.32045 0.0
C1540 C 0.44514 0.9947 0.28143 0.0
C1541 C 0.45923 0.0133 0.27349 0.0
C1542 C 0.42963 0.0096 0.30712 0.0
C1543 C 0.45887 0.02983 0.28446 0.0
C1544 C 0.41336 0.02348 0.33691 0.0
C1545 C 0.37841 0.98923 0.32515 0.0
N1546 N 0.44416 0.02761 0.30057 0.0
N1547 N 0.395 0.99129 0.31507 0.0
H1548 H 0.63798 0.00651 0.30664 0.0
H1549 H 0.5297 0.98372 0.29693 0.0
H1550 H 0.59857 0.97813 0.37311 0.0
H1551 H 0.57413 0.02577 0.24583 0.0
H1552 H 0.55471 0.983 0.32743 0.0
H1553 H 0.61479 0.01444 0.28494 0.0
C1554 C 0.62448 1.00198 0.3167 0.0
C1555 C 0.62017 0.99153 0.34161 0.0
C1556 C 0.55902 0.99276 0.30997 0.0
C1557 C 0.59351 1.00053 0.31691 0.0
C1558 C 0.54476 0.99333 0.29283 0.0
C1559 C 0.54994 0.00482 0.26897 0.0
C1560 C 0.57846 1.00354 0.30277 0.0
C1561 C 0.56962 0.01674 0.26412 0.0
C1562 C 0.61128 0.00662 0.30442 0.0
C1563 C 0.60248 0.98616 0.35384 0.0
N1564 N 0.58314 0.01553 0.28053 0.0
N1565 N 0.58973 0.99054 0.34122 0.0
H1566 H 0.01 0.63586 0.3126 0.0
H1567 H 0.04632 0.56166 0.2724 0.0
H1568 H 0.06917 0.65237 0.29883 0.0
H1569 H 0.98685 0.54701 0.26699 0.0
H1570 H 0.05462 0.59215 0.29925 0.0
H1571 H 1.00157 0.60144 0.31187 0.0
C1572 C 0.02131 0.63232 0.30994 0.0
C1573 C 0.04027 0.64705 0.30509 0.0
C1574 C 0.03963 0.58195 0.29313 0.0
C1575 C 0.03066 0.60763 0.30434 0.0
C1576 C 0.03486 0.5644 0.27825 0.0
C1577 C 0.01589 0.55188 0.26764 0.0
C1578 C 0.02531 0.58701 0.29707 0.0
C1579 C 1.00162 0.55628 0.27507 0.0
C1580 C 0.01646 0.61264 0.30954 0.0
C1581 C 0.0543 0.64152 0.30207 0.0
N1582 N 0.00667 0.57371 0.28881 0.0
N1583 N 0.04917 0.62225 0.30135 0.0
H1584 H 0.37049 0.36908 0.3205 0.0
H1585 H 0.44713 0.4777 0.28656 0.0
H1586 H 0.37207 0.41857 0.36493 0.0
H1587 H 0.45422 0.42801 0.26736 0.0
H1588 H 0.42095 0.45748 0.31776 0.0
H1589 H 0.40165 0.39112 0.30151 0.0
C1590 C 0.37738 0.38463 0.32621 0.0
C1591 C 0.36858 0.39202 0.34413 0.0
C1592 C 0.42862 0.45117 0.30738 0.0
C1593 C 0.40443 0.41743 0.32244 0.0
C1594 C 0.44365 0.46275 0.28989 0.0
C1595 C 0.45281 0.45444 0.27472 0.0
C1596 C 0.42261 0.43115 0.30908 0.0
C1597 C 0.44754 0.43491 0.27898 0.0
C1598 C 0.3953 0.3972 0.31557 0.0
C1599 C 0.37833 0.41228 0.35107 0.0
N1600 N 0.43257 0.42383 0.2954 0.0
N1601 N 0.39567 0.42435 0.33994 0.0
H1602 H 0.29167 0.25631 0.33141 0.0
H1603 H 0.38028 0.2575 0.40172 0.0
H1604 H 0.34772 0.30839 0.34401 0.0
H1605 H 0.32676 0.20459 0.37855 0.0
H1606 H 0.37221 0.27492 0.36685 0.0
H1607 H 0.3069 0.23629 0.33412 0.0
C1608 C 0.30724 0.26357 0.33407 0.0
C1609 C 0.31836 0.28403 0.33858 0.0
C1610 C 0.36245 0.25935 0.36863 0.0
C1611 C 0.33588 0.26116 0.34227 0.0
C1612 C 0.36714 0.24941 0.38844 0.0
C1613 C 0.35395 0.22976 0.39329 0.0
C1614 C 0.3442 0.24966 0.35429 0.0
C1615 C 0.33719 0.21984 0.37556 0.0
C1616 C 0.31597 0.25211 0.33558 0.0
C1617 C 0.33851 0.29263 0.34117 0.0
N1618 N 0.33249 0.23004 0.3574 0.0
N1619 N 0.34658 0.28113 0.3438 0.0
H1620 H 0.75107 0.0272 0.37181 0.0
H1621 H 0.77146 0.1361 0.38949 0.0
H1622 H 0.70819 0.044 0.35536 0.0
H1623 H 0.81433 0.11948 0.40573 0.0
H1624 H 0.75054 0.1041 0.36518 0.0
H1625 H 0.77612 0.0617 0.37352 0.0
C1626 C 0.74691 0.03812 0.3682 0.0
C1627 C 0.72739 0.03265 0.36403 0.0
C1628 C 0.76474 0.10759 0.37327 0.0
C1629 C 0.75615 0.07236 0.3661 0.0
C1630 C 0.77677 0.12596 0.38681 0.0
C1631 C 0.79458 0.13034 0.39962 0.0
C1632 C 0.77045 0.0934 0.373 0.0
C1633 C 0.80073 0.11666 0.39598 0.0
C1634 C 0.76128 0.05786 0.36911 0.0
C1635 C 0.72299 0.04749 0.35901 0.0
N1636 N 0.78849 0.0986 0.38357 0.0
N1637 N 0.73722 0.06666 0.36066 0.0
H1638 H 0.96141 0.6974 0.29447 0.0
H1639 H 0.89783 0.63967 0.42384 0.0
H1640 H 0.97807 0.66876 0.35667 0.0
H1641 H 0.88938 0.68193 0.37909 0.0
H1642 H 0.92269 0.644 0.3912 0.0
H1643 H 0.93115 0.68653 0.31832 0.0
C1644 C 0.95867 0.68875 0.31306 0.0
C1645 C 0.97236 0.68413 0.32379 0.0
C1646 C 0.91523 0.65213 0.38821 0.0
C1647 C 0.93772 0.67146 0.35081 0.0
C1648 C 0.90097 0.64956 0.40668 0.0
C1649 C 0.89181 0.66067 0.40426 0.0
C1650 C 0.92038 0.66595 0.36721 0.0
C1651 C 0.8962 0.67315 0.38159 0.0
C1652 C 0.9414 0.68255 0.32659 0.0
C1653 C 0.96803 0.67283 0.34785 0.0
N1654 N 0.91044 0.67569 0.3641 0.0
N1655 N 0.9511 0.66691 0.36056 0.0
H1656 H 0.4281 0.04868 0.64885 0.0
H1657 H 0.43963 0.96814 0.73236 0.0
H1658 H 0.38076 0.99832 0.68456 0.0
H1659 H 0.48643 0.02764 0.72803 0.0
H1660 H 0.41896 0.9763 0.70368 0.0
H1661 H 0.45041 0.03887 0.66862 0.0
C1662 C 0.42239 0.03555 0.66086 0.0
C1663 C 0.40253 0.02434 0.66523 0.0
C1664 C 0.43385 0.98749 0.70857 0.0
C1665 C 0.42795 0.01287 0.68731 0.0
C1666 C 0.4457 0.98279 0.72462 0.0
C1667 C 0.4647 0.9973 0.73275 0.0
C1668 C 0.44106 0.0068 0.70037 0.0
C1669 C 0.47189 0.01603 0.72214 0.0
C1670 C 0.43514 0.02998 0.67206 0.0
C1671 C 0.39596 0.00747 0.68091 0.0
N1672 N 0.45996 0.02034 0.70674 0.0
N1673 N 0.40863 1.0022 0.69127 0.0
H1674 H 0.94406 0.36292 0.69495 0.0
H1675 H 0.9737 0.4585 0.72945 0.0
H1676 H 1.00419 0.38063 0.68876 0.0
H1677 H 0.03082 0.46616 0.73455 0.0
H1678 H 0.96252 0.42827 0.70058 0.0
H1679 H 0.95256 0.397 0.69692 0.0
C1680 C 0.95908 0.37402 0.69341 0.0
C1681 C 0.97347 0.36885 0.69246 0.0
C1682 C 0.97754 0.43648 0.70772 0.0
C1683 C 0.98354 0.40845 0.69463 0.0
C1684 C 0.984 0.45406 0.72375 0.0
C1685 C 1.00307 0.46452 0.73493 0.0
C1686 C 0.99024 0.42924 0.70343 0.0
C1687 C 0.01587 0.45822 0.7268 0.0
C1688 C 0.96399 0.3937 0.6944 0.0
C1689 C 0.99261 0.38389 0.68999 0.0
N1690 N 0.00914 0.44078 0.71213 0.0
N1691 N 0.99711 0.40298 0.69176 0.0
H1692 H 0.64299 0.63844 0.68848 0.0
H1693 H 0.54932 0.53799 0.71748 0.0
H1694 H 0.62186 0.58733 0.63132 0.0
H1695 H 0.56351 0.5934 0.7589 0.0
H1696 H 0.57395 0.55565 0.68298 0.0
H1697 H 0.61291 0.62215 0.71304 0.0
C1698 C 0.63199 0.62377 0.68108 0.0
C1699 C 0.63499 0.61413 0.65803 0.0
C1700 C 0.57139 0.56395 0.69927 0.0
C1701 C 0.60046 0.59536 0.68605 0.0
C1702 C 0.55726 0.55389 0.71878 0.0
C1703 C 0.55469 0.5643 0.74124 0.0
C1704 C 0.58302 0.58448 0.70256 0.0
C1705 C 0.56536 0.58486 0.74215 0.0
C1706 C 0.61474 0.61453 0.69498 0.0
C1707 C 0.62015 0.59523 0.64913 0.0
N1708 N 0.57928 0.59427 0.7234 0.0
N1709 N 0.60358 0.58634 0.66338 0.0
H1710 H 0.73631 0.74026 0.63566 0.0
H1711 H 0.65427 0.76365 0.59724 0.0
H1712 H 0.67566 0.69875 0.64213 0.0
H1713 H 0.71487 0.8064 0.59902 0.0
H1714 H 0.66154 0.74222 0.62518 0.0
H1715 H 0.72889 0.76665 0.63334 0.0
C1716 C 0.72145 0.73672 0.63703 0.0
C1717 C 0.70654 0.71718 0.63837 0.0
C1718 C 0.67324 0.75655 0.62035 0.0
C1719 C 0.69789 0.74736 0.63538 0.0
C1720 C 0.66902 0.76885 0.60469 0.0
C1721 C 0.68402 0.78674 0.59607 0.0
C1722 C 0.69261 0.76209 0.62671 0.0
C1723 C 0.70295 0.79271 0.60554 0.0
C1724 C 0.71721 0.75182 0.63578 0.0
C1725 C 0.6876 0.71355 0.64064 0.0
N1726 N 0.70677 0.78023 0.61987 0.0
N1727 N 0.68377 0.72843 0.63845 0.0
H1728 H 0.26842 0.98186 0.63238 0.0
H1729 H 0.2476 0.87259 0.61339 0.0
H1730 H 0.31154 0.96505 0.64601 0.0
H1731 H 0.20517 0.88975 0.59648 0.0
H1732 H 0.26884 0.90475 0.6371 0.0
H1733 H 0.24343 0.94734 0.63012 0.0
C1734 C 0.27265 0.97093 0.63527 0.0
C1735 C 0.29222 0.97642 0.63884 0.0
C1736 C 0.25469 0.90135 0.62893 0.0
C1737 C 0.26351 0.93667 0.63611 0.0
C1738 C 0.24248 0.88291 0.61568 0.0
C1739 C 0.22468 0.8786 0.60286 0.0
C1740 C 0.24915 0.91566 0.62903 0.0
C1741 C 0.21876 0.89249 0.60618 0.0
C1742 C 0.25832 0.95117 0.63402 0.0
C1743 C 0.29671 0.96155 0.64291 0.0
N1744 N 0.23114 0.91057 0.6184 0.0
N1745 N 0.2825 0.94236 0.64097 0.0
H1746 H 0.04309 0.30196 0.69962 0.0
H1747 H 0.12272 0.37538 0.597 0.0
H1748 H 0.03958 0.34757 0.65597 0.0
H1749 H 0.11602 0.31909 0.61543 0.0
H1750 H 0.09694 0.36934 0.62886 0.0
H1751 H 0.07373 0.31151 0.67761 0.0
C1752 C 0.04879 0.31403 0.68549 0.0
C1753 C 0.03869 0.3239 0.67943 0.0
C1754 C 0.1013 0.35843 0.62631 0.0
C1755 C 0.07383 0.33504 0.65464 0.0
C1756 C 0.1161 0.36194 0.60834 0.0
C1757 C 0.1213 0.3476 0.60336 0.0
C1758 C 0.09165 0.34047 0.63948 0.0
C1759 C 0.11242 0.33051 0.61872 0.0
C1760 C 0.06627 0.31945 0.67299 0.0
C1761 C 0.04677 0.33944 0.66103 0.0
N1762 N 0.09779 0.32727 0.63586 0.0
N1763 N 0.06387 0.34454 0.64931 0.0
H1764 H 0.30395 0.3473 0.63723 0.0
H1765 H 0.195 0.32081 0.62811 0.0
H1766 H 0.26414 0.31358 0.70063 0.0
H1767 H 0.23966 0.36911 0.58533 0.0
H1768 H 0.2199 0.31934 0.65771 0.0
H1769 H 0.28052 0.35606 0.61887 0.0
C1770 C 0.2903 0.34176 0.6473 0.0
C1771 C 0.28595 0.32957 0.67035 0.0
C1772 C 0.22426 0.33065 0.64244 0.0
C1773 C 0.25905 0.33953 0.64949 0.0
C1774 C 0.21003 0.33166 0.62588 0.0
C1775 C 0.21535 0.34514 0.60443 0.0
C1776 C 0.24384 0.34298 0.63699 0.0
C1777 C 0.23504 0.35858 0.60182 0.0
C1778 C 0.27699 0.34689 0.63698 0.0
C1779 C 0.26809 0.32296 0.68274 0.0
N1780 N 0.24858 0.35688 0.61743 0.0
N1781 N 0.25521 0.32783 0.67197 0.0
H1782 H 0.73678 0.98012 0.63173 0.0
H1783 H 0.64811 0.87235 0.60962 0.0
H1784 H 0.67807 0.96371 0.64895 0.0
H1785 H 0.70669 0.88815 0.59362 0.0
H1786 H 0.65997 0.90387 0.63563 0.0
H1787 H 0.72731 0.94549 0.62849 0.0
C1788 C 0.72194 0.96927 0.63523 0.0
C1789 C 0.70811 0.97488 0.63998 0.0
C1790 C 0.67032 0.90029 0.62716 0.0
C1791 C 0.69715 0.93509 0.63615 0.0
C1792 C 0.66354 0.88222 0.61256 0.0
C1793 C 0.67647 0.8778 0.59939 0.0
C1794 C 0.69014 0.91415 0.62807 0.0
C1795 C 0.69629 0.89106 0.60355 0.0
C1796 C 0.71656 0.94945 0.63343 0.0
C1797 C 0.68918 0.96012 0.64479 0.0
N1798 N 0.70252 0.90887 0.61699 0.0
N1799 N 0.6842 0.94091 0.64228 0.0
H1800 H 0.02852 0.73521 0.64882 0.0
H1801 H 0.13851 0.77852 0.61464 0.0
H1802 H 0.06565 0.72047 0.69725 0.0
H1803 H 0.10348 0.80242 0.58536 0.0
H1804 H 0.11325 0.75824 0.64712 0.0
H1805 H 0.05651 0.76012 0.62581 0.0
C1806 C 0.04258 0.73717 0.65456 0.0
C1807 C 0.04474 0.72566 0.67487 0.0
C1808 C 0.11131 0.76825 0.63403 0.0
C1809 C 0.077 0.75433 0.6486 0.0
C1810 C 0.12576 0.77991 0.61576 0.0
C1811 C 0.12289 0.79197 0.59735 0.0
C1812 C 0.09397 0.76867 0.63349 0.0
C1813 C 0.10609 0.79315 0.59918 0.0
C1814 C 0.05862 0.75154 0.64157 0.0
C1815 C 0.06336 0.729 0.68162 0.0
N1816 N 0.09215 0.78143 0.61661 0.0
N1817 N 0.07881 0.74296 0.66833 0.0
H1818 H 0.9495 0.60279 0.6906 0.0
H1819 H 0.03192 0.58402 0.74116 0.0
H1820 H 0.00976 0.64735 0.69364 0.0
H1821 H 0.97298 0.53806 0.72506 0.0
H1822 H 0.02566 0.60562 0.71206 0.0
H1823 H 0.95867 0.57765 0.69173 0.0
C1824 C 0.96468 0.60728 0.691 0.0
C1825 C 0.97888 0.62723 0.69278 0.0
C1826 C 0.01422 0.59061 0.71397 0.0
C1827 C 0.98954 0.59847 0.69452 0.0
C1828 C 0.01789 0.57824 0.73033 0.0
C1829 C 1.00291 0.55934 0.73539 0.0
C1830 C 0.9953 0.58412 0.70338 0.0
C1831 C 0.98488 0.55256 0.72146 0.0
C1832 C 0.96993 0.59289 0.69155 0.0
C1833 C 0.99832 0.63215 0.69268 0.0
N1834 N 0.98142 0.56511 0.70664 0.0
N1835 N 1.00308 0.61789 0.69427 0.0
H1836 H 0.37301 0.38311 0.6806 0.0
H1837 H 0.47979 0.46077 0.73741 0.0
H1838 H 0.41783 0.36915 0.69802 0.0
H1839 H 0.43402 0.47392 0.72619 0.0
H1840 H 0.45985 0.42942 0.71063 0.0
H1841 H 0.39723 0.41801 0.68557 0.0
C1842 C 0.38796 0.38734 0.68501 0.0
C1843 C 0.39328 0.37311 0.6895 0.0
C1844 C 0.45434 0.43939 0.71332 0.0
C1845 C 0.42111 0.4131 0.69534 0.0
C1846 C 0.46585 0.45739 0.72829 0.0
C1847 C 0.45843 0.4698 0.73416 0.0
C1848 C 0.43529 0.4338 0.70441 0.0
C1849 C 0.44016 0.46463 0.72222 0.0
C1850 C 0.40181 0.4073 0.68787 0.0
C1851 C 0.41295 0.37954 0.69491 0.0
N1852 N 0.42906 0.44686 0.70839 0.0
N1853 N 0.42607 0.39902 0.69807 0.0
H1854 H 0.63199 0.02955 0.62894 0.0
H1855 H 0.56363 0.97505 0.75579 0.0
H1856 H 0.64347 0.99708 0.69122 0.0
H1857 H 0.56173 0.02125 0.71173 0.0
H1858 H 0.58751 0.97645 0.72329 0.0
H1859 H 0.60171 0.02091 0.65134 0.0
C1860 C 0.62809 0.02048 0.6472 0.0
C1861 C 0.64038 0.01418 0.65843 0.0
C1862 C 0.58162 0.98603 0.72034 0.0
C1863 C 0.60566 1.00408 0.68383 0.0
C1864 C 0.56788 0.9851 0.73867 0.0
C1865 C 0.5609 0.99817 0.73645 0.0
C1866 C 0.58847 1.00018 0.69969 0.0
C1867 C 0.56679 0.01093 0.71401 0.0
C1868 C 0.6108 0.01557 0.65992 0.0
C1869 C 0.63455 1.00243 0.68204 0.0
N1870 N 0.58052 0.01184 0.69667 0.0
N1871 N 0.61763 0.9978 0.694 0.0
loop_
_geom_bond_atom_site_label_1
_geom_bond_atom_site_label_2
_geom_bond_distance
_geom_bond_site_symmetry_2
_ccdc_geom_bond_type
Mg0 O1 2.028 1_556 S
Mg0 O7 1.986 1_455 S
Mg0 O9 2.114 . S
Mg0 O10 2.251 1_455 S
Mg0 O13 2.010 1_556 S
O1 Mg0 2.028 1_554 S
O1 C4 1.250 1_455 S
O2 Mg3 2.028 1_554 S
O2 C4 1.248 . S
Mg3 O2 2.028 1_556 S
Mg3 O8 2.032 . S
Mg3 O10 2.079 . S
C4 O1 1.250 1_655 S
C4 O2 1.248 . S
C5 O6 1.264 1_554 S
C5 O13 1.249 . S
O6 C5 1.264 1_556 S
O7 Mg0 1.986 1_655 S
O7 C11 1.246 . S
O8 Mg3 2.032 . S
O8 C11 1.259 . S
O9 Mg0 2.114 . S
O9 C12 1.252 . S
O10 Mg0 2.251 1_655 S
O10 Mg3 2.079 . S
O10 C12 1.273 1_655 S
C11 O7 1.246 . S
C11 O8 1.259 . S
C12 O9 1.252 . S
C12 O10 1.273 1_455 S
O13 Mg0 2.010 1_554 S
O13 C5 1.249 . S
Mg14 O15 2.028 1_554 S
Mg14 O21 1.986 . S
Mg14 O23 2.114 . S
Mg14 O24 2.251 . S
Mg14 O27 2.010 . S
O15 Mg14 2.028 1_556 S
O15 C18 1.250 . S
O16 Mg17 2.028 1_556 S
O16 C18 1.248 . S
Mg17 O16 2.028 1_554 S
Mg17 O22 2.032 . S
Mg17 O24 2.079 . S
C18 O15 1.250 . S
C18 O16 1.248 . S
C19 O20 1.264 . S
C19 O27 1.249 . S
O20 C19 1.264 . S
O21 Mg14 1.986 . S
O21 C25 1.246 . S
O22 Mg17 2.032 . S
O22 C25 1.259 . S
O23 Mg14 2.114 . S
O23 C26 1.252 . S
O24 Mg14 2.251 . S
O24 Mg17 2.079 . S
O24 C26 1.273 . S
C25 O21 1.246 . S
C25 O22 1.259 . S
C26 O23 1.252 . S
C26 O24 1.273 . S
O27 Mg14 2.010 . S
O27 C19 1.249 . S
Mg28 O29 2.023 1_556 S
Mg28 O35 1.986 1_565 S
Mg28 O37 2.114 . S
Mg28 O38 2.251 1_565 S
Mg28 O41 2.010 1_556 S
O29 Mg28 2.023 1_554 S
O29 C32 1.244 1_565 S
O30 Mg31 2.028 1_554 S
O30 C32 1.248 . S
Mg31 O30 2.028 1_556 S
Mg31 O36 2.032 . S
Mg31 O38 2.079 . S
C32 O29 1.244 1_545 S
C32 O30 1.248 . S
C33 O34 1.264 1_554 S
C33 O41 1.249 . S
O34 C33 1.264 1_556 S
O35 Mg28 1.986 1_545 S
O35 C39 1.246 . S
O36 Mg31 2.032 . S
O36 C39 1.259 . S
O37 Mg28 2.114 . S
O37 C40 1.252 . S
O38 Mg28 2.251 1_545 S
O38 Mg31 2.079 . S
O38 C40 1.273 1_545 S
C39 O35 1.246 . S
C39 O36 1.259 . S
C40 O37 1.252 . S
C40 O38 1.273 1_565 S
O41 Mg28 2.010 1_554 S
O41 C33 1.249 . S
Mg42 O43 2.028 1_554 S
Mg42 O49 1.986 1_655 S
Mg42 O51 2.114 . S
Mg42 O52 2.251 1_655 S
Mg42 O55 2.010 . S
O43 Mg42 2.028 1_556 S
O43 C46 1.250 1_655 S
O44 Mg45 2.028 1_556 S
O44 C46 1.248 . S
Mg45 O44 2.028 1_554 S
Mg45 O50 2.032 . S
Mg45 O52 2.079 . S
C46 O43 1.250 1_455 S
C46 O44 1.248 . S
C47 O48 1.264 . S
C47 O55 1.249 . S
O48 C47 1.264 . S
O49 Mg42 1.986 1_455 S
O49 C53 1.246 . S
O50 Mg45 2.032 . S
O50 C53 1.259 . S
O51 Mg42 2.114 . S
O51 C54 1.252 . S
O52 Mg42 2.251 1_455 S
O52 Mg45 2.079 . S
O52 C54 1.273 1_455 S
C53 O49 1.246 . S
C53 O50 1.259 . S
C54 O51 1.252 . S
C54 O52 1.273 1_655 S
O55 Mg42 2.010 . S
O55 C47 1.249 . S
Mg56 O57 2.028 1_556 S
Mg56 O63 1.986 . S
Mg56 O65 2.114 . S
Mg56 O66 2.251 . S
Mg56 O69 2.010 1_556 S
O57 Mg56 2.028 1_554 S
O57 C60 1.250 . S
O58 Mg59 2.028 1_554 S
O58 C60 1.248 . S
Mg59 O58 2.028 1_556 S
Mg59 O64 2.032 . S
Mg59 O66 2.079 . S
C60 O57 1.250 . S
C60 O58 1.248 . S
C61 O62 1.264 . S
C61 O69 1.249 . S
O62 C61 1.264 . S
O63 Mg56 1.986 . S
O63 C67 1.246 . S
O64 Mg59 2.032 . S
O64 C67 1.259 . S
O65 Mg56 2.114 . S
O65 C68 1.252 . S
O66 Mg56 2.251 . S
O66 Mg59 2.079 . S
O66 C68 1.273 . S
C67 O63 1.246 . S
C67 O64 1.259 . S
C68 O65 1.252 . S
C68 O66 1.273 . S
O69 Mg56 2.010 1_554 S
O69 C61 1.249 . S
Mg70 O71 2.028 1_554 S
Mg70 O77 1.986 1_545 S
Mg70 O79 2.114 . S
Mg70 O80 2.251 1_545 S
Mg70 O83 2.010 . S
O71 Mg70 2.028 1_556 S
O71 C74 1.250 1_545 S
O72 Mg73 2.028 1_556 S
O72 C74 1.248 . S
Mg73 O72 2.028 1_554 S
Mg73 O78 2.032 . S
Mg73 O80 2.079 . S
C74 O71 1.250 1_565 S
C74 O72 1.248 . S
C75 O76 1.264 . S
C75 O83 1.249 . S
O76 C75 1.264 . S
O77 Mg70 1.986 1_565 S
O77 C81 1.246 . S
O78 Mg73 2.032 . S
O78 C81 1.259 . S
O79 Mg70 2.114 . S
O79 C82 1.252 . S
O80 Mg70 2.251 1_565 S
O80 Mg73 2.079 . S
O80 C82 1.273 1_565 S
C81 O77 1.246 . S
C81 O78 1.259 . S
C82 O79 1.252 . S
C82 O80 1.273 1_545 S
O83 Mg70 2.010 . S
O83 C75 1.249 . S
Mg84 O85 2.028 . S
Mg84 O91 1.986 . S
Mg84 O93 2.114 . S
Mg84 O94 2.251 . S
Mg84 O97 2.010 . S
O85 Mg84 2.028 . S
O85 C88 1.250 . S
O86 Mg87 2.028 . S
O86 C88 1.248 . S
Mg87 O86 2.028 . S
Mg87 O92 2.032 . S
Mg87 O94 2.079 . S
C88 O85 1.250 . S
C88 O86 1.248 . S
C89 O90 1.264 . S
C89 O97 1.249 . S
O90 C89 1.264 . S
O91 Mg84 1.986 . S
O91 C95 1.246 . S
O92 Mg87 2.032 . S
O92 C95 1.259 . S
O93 Mg84 2.114 . S
O93 C96 1.252 . S
O94 Mg84 2.251 . S
O94 Mg87 2.079 . S
O94 C96 1.273 . S
C95 O91 1.246 . S
C95 O92 1.259 . S
C96 O93 1.252 . S
C96 O94 1.273 . S
O97 Mg84 2.010 . S
O97 C89 1.249 . S
Mg98 O99 2.028 . S
Mg98 O105 1.986 1_565 S
Mg98 O107 2.114 . S
Mg98 O108 2.251 . S
Mg98 O111 2.010 . S
O99 Mg98 2.028 . S
O99 C102 1.250 . S
O100 Mg101 2.028 . S
O100 C102 1.248 . S
Mg101 O100 2.028 . S
Mg101 O106 2.032 1_565 S
Mg101 O108 2.079 . S
C102 O99 1.250 . S
C102 O100 1.248 . S
C103 O104 1.264 . S
C103 O111 1.249 . S
O104 C103 1.264 . S
O105 Mg98 1.986 1_545 S
O105 C109 1.246 . S
O106 Mg101 2.032 1_545 S
O106 C109 1.259 . S
O107 Mg98 2.114 . S
O107 C110 1.252 . S
O108 Mg98 2.251 . S
O108 Mg101 2.079 . S
O108 C110 1.273 . S
C109 O105 1.246 . S
C109 O106 1.259 . S
C110 O107 1.252 . S
C110 O108 1.273 . S
O111 Mg98 2.010 . S
O111 C103 1.249 . S
Mg112 O113 2.028 . S
Mg112 O119 1.986 . S
Mg112 O121 2.114 . S
Mg112 O122 2.251 . S
Mg112 O125 2.010 1_455 S
O113 Mg112 2.028 . S
O113 C116 1.250 . S
O114 Mg115 2.028 . S
O114 C116 1.248 . S
Mg115 O114 2.028 . S
Mg115 O120 2.032 . S
Mg115 O122 2.079 . S
C116 O113 1.250 . S
C116 O114 1.248 . S
C117 O118 1.264 . S
C117 O125 1.249 . S
O118 C117 1.264 . S
O119 Mg112 1.986 . S
O119 C123 1.246 . S
O120 Mg115 2.032 . S
O120 C123 1.259 . S
O121 Mg112 2.114 . S
O121 C124 1.252 . S
O122 Mg112 2.251 . S
O122 Mg115 2.079 . S
O122 C124 1.273 . S
C123 O119 1.246 . S
C123 O120 1.259 . S
C124 O121 1.252 . S
C124 O122 1.273 . S
O125 Mg112 2.010 1_655 S
O125 C117 1.249 . S
Mg126 O127 2.028 . S
Mg126 O133 1.986 1_565 S
Mg126 O135 2.114 . S
Mg126 O136 2.251 . S
Mg126 O139 2.010 . S
O127 Mg126 2.028 . S
O127 C130 1.250 . S
O128 Mg129 2.028 . S
O128 C130 1.248 . S
Mg129 O128 2.028 . S
Mg129 O134 2.032 1_565 S
Mg129 O136 2.079 . S
C130 O127 1.250 . S
C130 O128 1.248 . S
C131 O132 1.264 . S
C131 O139 1.249 . S
O132 C131 1.264 . S
O133 Mg126 1.986 1_545 S
O133 C137 1.246 . S
O134 Mg129 2.032 1_545 S
O134 C137 1.259 . S
O135 Mg126 2.114 . S
O135 C138 1.252 . S
O136 Mg126 2.251 . S
O136 Mg129 2.079 . S
O136 C138 1.273 . S
C137 O133 1.246 . S
C137 O134 1.259 . S
C138 O135 1.252 . S
C138 O136 1.273 . S
O139 Mg126 2.010 . S
O139 C131 1.249 . S
Mg140 O141 2.028 . S
Mg140 O147 1.986 . S
Mg140 O149 2.114 . S
Mg140 O150 2.251 . S
Mg140 O153 2.010 1_455 S
O141 Mg140 2.028 . S
O141 C144 1.250 . S
O142 Mg143 2.028 . S
O142 C144 1.248 . S
Mg143 O142 2.028 . S
Mg143 O148 2.032 . S
Mg143 O150 2.079 . S
C144 O141 1.250 . S
C144 O142 1.248 . S
C145 O146 1.264 . S
C145 O153 1.249 . S
O146 C145 1.264 . S
O147 Mg140 1.986 . S
O147 C151 1.246 . S
O148 Mg143 2.032 . S
O148 C151 1.259 . S
O149 Mg140 2.114 . S
O149 C152 1.252 . S
O150 Mg140 2.251 . S
O150 Mg143 2.079 . S
O150 C152 1.273 . S
C151 O147 1.246 . S
C151 O148 1.259 . S
C152 O149 1.252 . S
C152 O150 1.273 . S
O153 Mg140 2.010 1_655 S
O153 C145 1.249 . S
Mg154 O155 2.028 . S
Mg154 O161 1.986 . S
Mg154 O163 2.114 . S
Mg154 O164 2.251 . S
Mg154 O167 2.010 . S
O155 Mg154 2.028 . S
O155 C158 1.250 . S
O156 Mg157 2.028 . S
O156 C158 1.248 . S
Mg157 O156 2.028 . S
Mg157 O162 2.032 . S
Mg157 O164 2.079 . S
C158 O155 1.250 . S
C158 O156 1.248 . S
C159 O160 1.264 . S
C159 O167 1.249 . S
O160 C159 1.264 . S
O161 Mg154 1.986 . S
O161 C165 1.246 . S
O162 Mg157 2.032 . S
O162 C165 1.259 . S
O163 Mg154 2.114 . S
O163 C166 1.252 . S
O164 Mg154 2.251 . S
O164 Mg157 2.079 . S
O164 C166 1.273 . S
C165 O161 1.246 . S
C165 O162 1.259 . S
C166 O163 1.252 . S
C166 O164 1.273 . S
O167 Mg154 2.010 . S
O167 C159 1.249 . S
Mg168 O169 2.028 . S
Mg168 O175 1.986 1_545 S
Mg168 O177 2.114 . S
Mg168 O178 2.251 . S
Mg168 O181 2.010 . S
O169 Mg168 2.028 . S
O169 C172 1.250 . S
O170 Mg171 2.028 . S
O170 C172 1.248 . S
Mg171 O170 2.028 . S
Mg171 O176 2.032 1_545 S
Mg171 O178 2.079 . S
C172 O169 1.250 . S
C172 O170 1.248 . S
C173 O174 1.264 . S
C173 O181 1.249 . S
O174 C173 1.264 . S
O175 Mg168 1.986 1_565 S
O175 C179 1.246 . S
O176 Mg171 2.032 1_565 S
O176 C179 1.259 . S
O177 Mg168 2.114 . S
O177 C180 1.252 . S
O178 Mg168 2.251 . S
O178 Mg171 2.079 . S
O178 C180 1.273 . S
C179 O175 1.246 . S
C179 O176 1.259 . S
C180 O177 1.252 . S
C180 O178 1.273 . S
O181 Mg168 2.010 . S
O181 C173 1.249 . S
Mg182 O183 2.028 . S
Mg182 O189 1.986 . S
Mg182 O191 2.114 . S
Mg182 O192 2.251 . S
Mg182 O195 2.010 1_655 S
O183 Mg182 2.028 . S
O183 C186 1.250 . S
O184 Mg185 2.028 . S
O184 C186 1.248 . S
Mg185 O184 2.028 . S
Mg185 O190 2.032 . S
Mg185 O192 2.079 . S
C186 O183 1.250 . S
C186 O184 1.248 . S
C187 O188 1.264 . S
C187 O195 1.249 . S
O188 C187 1.264 . S
O189 Mg182 1.986 . S
O189 C193 1.246 . S
O190 Mg185 2.032 . S
O190 C193 1.259 . S
O191 Mg182 2.114 . S
O191 C194 1.252 . S
O192 Mg182 2.251 . S
O192 Mg185 2.079 . S
O192 C194 1.273 . S
C193 O189 1.246 . S
C193 O190 1.259 . S
C194 O191 1.252 . S
C194 O192 1.273 . S
O195 Mg182 2.010 1_455 S
O195 C187 1.249 . S
Mg196 O197 2.028 . S
Mg196 O203 1.986 . S
Mg196 O205 2.114 . S
Mg196 O206 2.251 . S
Mg196 O209 2.010 . S
O197 Mg196 2.028 . S
O197 C200 1.250 . S
O198 Mg199 2.028 . S
O198 C200 1.248 . S
Mg199 O198 2.028 . S
Mg199 O204 2.032 . S
Mg199 O206 2.079 . S
C200 O197 1.250 . S
C200 O198 1.248 . S
C201 O202 1.264 . S
C201 O209 1.249 . S
O202 C201 1.264 . S
O203 Mg196 1.986 . S
O203 C207 1.246 . S
O204 Mg199 2.032 . S
O204 C207 1.259 . S
O205 Mg196 2.114 . S
O205 C208 1.252 . S
O206 Mg196 2.251 . S
O206 Mg199 2.079 . S
O206 C208 1.273 . S
C207 O203 1.246 . S
C207 O204 1.259 . S
C208 O205 1.252 . S
C208 O206 1.273 . S
O209 Mg196 2.010 . S
O209 C201 1.249 . S
Mg210 O211 2.028 . S
Mg210 O217 1.986 . S
Mg210 O219 2.114 . S
Mg210 O220 2.251 . S
Mg210 O223 2.010 . S
O211 Mg210 2.028 . S
O211 C214 1.250 . S
O212 Mg213 2.028 . S
O212 C214 1.248 . S
Mg213 O212 2.028 . S
Mg213 O218 2.032 . S
Mg213 O220 2.079 . S
C214 O211 1.250 . S
C214 O212 1.248 . S
C215 O216 1.264 . S
C215 O223 1.249 . S
O216 C215 1.264 . S
O217 Mg210 1.986 . S
O217 C221 1.246 . S
O218 Mg213 2.032 . S
O218 C221 1.259 . S
O219 Mg210 2.114 . S
O219 C222 1.252 . S
O220 Mg210 2.251 . S
O220 Mg213 2.079 . S
O220 C222 1.273 . S
C221 O217 1.246 . S
C221 O218 1.259 . S
C222 O219 1.252 . S
C222 O220 1.273 . S
O223 Mg210 2.010 . S
O223 C215 1.249 . S
Mg224 O225 2.028 . S
Mg224 O231 1.986 1_545 S
Mg224 O233 2.114 . S
Mg224 O234 2.251 . S
Mg224 O237 2.010 . S
O225 Mg224 2.028 . S
O225 C228 1.250 . S
O226 Mg227 2.028 . S
O226 C228 1.248 . S
Mg227 O226 2.028 . S
Mg227 O232 2.032 1_545 S
Mg227 O234 2.079 . S
C228 O225 1.250 . S
C228 O226 1.248 . S
C229 O230 1.264 . S
C229 O237 1.249 . S
O230 C229 1.264 . S
O231 Mg224 1.986 1_565 S
O231 C235 1.246 . S
O232 Mg227 2.032 1_565 S
O232 C235 1.259 . S
O233 Mg224 2.114 . S
O233 C236 1.252 . S
O234 Mg224 2.251 . S
O234 Mg227 2.079 . S
O234 C236 1.273 . S
C235 O231 1.246 . S
C235 O232 1.259 . S
C236 O233 1.252 . S
C236 O234 1.273 . S
O237 Mg224 2.010 . S
O237 C229 1.249 . S
Mg238 O239 2.028 . S
Mg238 O245 1.986 . S
Mg238 O247 2.114 . S
Mg238 O248 2.251 . S
Mg238 O251 2.010 1_655 S
O239 Mg238 2.028 . S
O239 C242 1.250 . S
O240 Mg241 2.028 . S
O240 C242 1.248 . S
Mg241 O240 2.028 . S
Mg241 O246 2.032 . S
Mg241 O248 2.079 . S
C242 O239 1.250 . S
C242 O240 1.248 . S
C243 O244 1.264 . S
C243 O251 1.249 . S
O244 C243 1.264 . S
O245 Mg238 1.986 . S
O245 C249 1.246 . S
O246 Mg241 2.032 . S
O246 C249 1.259 . S
O247 Mg238 2.114 . S
O247 C250 1.252 . S
O248 Mg238 2.251 . S
O248 Mg241 2.079 . S
O248 C250 1.273 . S
C249 O245 1.246 . S
C249 O246 1.259 . S
C250 O247 1.252 . S
C250 O248 1.273 . S
O251 Mg238 2.010 1_455 S
O251 C243 1.249 . S
H252 C258 0.930 . S
H253 C261 0.931 . S
H254 C263 0.931 . S
H255 C265 0.930 . S
H256 C267 0.930 . S
H257 C269 0.931 . S
C258 H252 0.930 . S
C258 C259 1.380 . S
C258 C260 1.394 . S
C259 C258 1.380 . S
C259 C263 1.382 . S
C260 C258 1.394 . S
C260 C261 1.400 . S
C261 H253 0.931 . S
C261 C260 1.400 . S
C261 C262 1.375 . S
C262 C261 1.375 . S
C262 C263 1.415 . S
C262 C264 1.501 . S
C263 H254 0.931 . S
C263 C259 1.382 . S
C263 C262 1.415 . S
C264 C262 1.501 . S
C264 C265 1.384 . S
C264 C269 1.408 . S
C265 H255 0.930 . S
C265 C264 1.384 . S
C265 C266 1.389 . S
C266 C265 1.389 . S
C266 C267 1.405 . S
C267 H256 0.930 . S
C267 C266 1.405 . S
C267 C268 1.364 . S
C268 C267 1.364 . S
C268 C269 1.400 . S
C269 H257 0.931 . S
C269 C264 1.408 . S
C269 C268 1.400 . S
H270 C276 0.930 . S
H271 C279 0.931 . S
H272 C281 0.931 . S
H273 C283 0.930 . S
H274 C285 0.930 . S
H275 C287 0.931 . S
C276 H270 0.930 . S
C276 C277 1.380 . S
C276 C278 1.394 . S
C277 C276 1.380 . S
C277 C281 1.382 . S
C278 C276 1.394 . S
C278 C279 1.400 . S
C279 H271 0.931 . S
C279 C278 1.400 . S
C279 C280 1.375 . S
C280 C279 1.375 . S
C280 C281 1.415 . S
C280 C282 1.501 . S
C281 H272 0.931 . S
C281 C277 1.382 . S
C281 C280 1.415 . S
C282 C280 1.501 . S
C282 C283 1.384 . S
C282 C287 1.408 . S
C283 H273 0.930 . S
C283 C282 1.384 . S
C283 C284 1.389 . S
C284 C283 1.389 . S
C284 C285 1.405 . S
C285 H274 0.930 . S
C285 C284 1.405 . S
C285 C286 1.364 . S
C286 C285 1.364 . S
C286 C287 1.400 . S
C287 H275 0.931 . S
C287 C282 1.408 . S
C287 C286 1.400 . S
H288 C294 0.930 . S
H289 C297 0.931 . S
H290 C299 0.931 . S
H291 C301 0.930 . S
H292 C303 0.930 . S
H293 C305 0.931 . S
C294 H288 0.930 . S
C294 C295 1.380 . S
C294 C296 1.394 . S
C295 C294 1.380 . S
C295 C299 1.382 . S
C296 C294 1.394 . S
C296 C297 1.400 . S
C297 H289 0.931 . S
C297 C296 1.400 . S
C297 C298 1.375 . S
C298 C297 1.375 . S
C298 C299 1.415 . S
C298 C300 1.501 . S
C299 H290 0.931 . S
C299 C295 1.382 . S
C299 C298 1.415 . S
C300 C298 1.501 . S
C300 C301 1.384 . S
C300 C305 1.408 . S
C301 H291 0.930 . S
C301 C300 1.384 . S
C301 C302 1.389 . S
C302 C301 1.389 . S
C302 C303 1.405 . S
C303 H292 0.930 . S
C303 C302 1.405 . S
C303 C304 1.364 . S
C304 C303 1.364 . S
C304 C305 1.400 . S
C305 H293 0.931 . S
C305 C300 1.408 . S
C305 C304 1.400 . S
H306 C312 0.930 . S
H307 C315 0.931 . S
H308 C317 0.931 . S
H309 C319 0.930 . S
H310 C321 0.930 . S
H311 C323 0.931 . S
C312 H306 0.930 . S
C312 C313 1.380 . S
C312 C314 1.394 . S
C313 C312 1.380 . S
C313 C317 1.382 . S
C314 C312 1.394 . S
C314 C315 1.400 . S
C315 H307 0.931 . S
C315 C314 1.400 . S
C315 C316 1.375 . S
C316 C315 1.375 . S
C316 C317 1.415 . S
C316 C318 1.501 . S
C317 H308 0.931 . S
C317 C313 1.382 . S
C317 C316 1.415 . S
C318 C316 1.501 . S
C318 C319 1.384 . S
C318 C323 1.408 . S
C319 H309 0.930 . S
C319 C318 1.384 . S
C319 C320 1.389 . S
C320 C319 1.389 . S
C320 C321 1.405 . S
C321 H310 0.930 . S
C321 C320 1.405 . S
C321 C322 1.364 . S
C322 C321 1.364 . S
C322 C323 1.400 . S
C323 H311 0.931 . S
C323 C318 1.408 . S
C323 C322 1.400 . S
H324 C330 0.930 . S
H325 C333 0.931 . S
H326 C335 0.931 . S
H327 C337 0.930 . S
H328 C339 0.930 . S
H329 C341 0.931 . S
C330 H324 0.930 . S
C330 C331 1.380 . S
C330 C332 1.394 . S
C331 C330 1.380 . S
C331 C335 1.382 . S
C332 C330 1.394 . S
C332 C333 1.400 . S
C333 H325 0.931 . S
C333 C332 1.400 . S
C333 C334 1.375 . S
C334 C333 1.375 . S
C334 C335 1.415 . S
C334 C336 1.501 . S
C335 H326 0.931 . S
C335 C331 1.382 . S
C335 C334 1.415 . S
C336 C334 1.501 . S
C336 C337 1.384 . S
C336 C341 1.408 . S
C337 H327 0.930 . S
C337 C336 1.384 . S
C337 C338 1.389 . S
C338 C337 1.389 . S
C338 C339 1.405 . S
C339 H328 0.930 . S
C339 C338 1.405 . S
C339 C340 1.364 . S
C340 C339 1.364 . S
C340 C341 1.400 . S
C341 H329 0.931 . S
C341 C336 1.408 . S
C341 C340 1.400 . S
H342 C348 0.930 . S
H343 C351 0.931 . S
H344 C353 0.931 . S
H345 C355 0.930 . S
H346 C357 0.930 . S
H347 C359 0.931 . S
C348 H342 0.930 . S
C348 C349 1.380 . S
C348 C350 1.394 . S
C349 C348 1.380 . S
C349 C353 1.382 . S
C350 C348 1.394 . S
C350 C351 1.400 . S
C351 H343 0.931 . S
C351 C350 1.400 . S
C351 C352 1.375 . S
C352 C351 1.375 . S
C352 C353 1.415 . S
C352 C354 1.501 . S
C353 H344 0.931 . S
C353 C349 1.382 . S
C353 C352 1.415 . S
C354 C352 1.501 . S
C354 C355 1.384 . S
C354 C359 1.408 . S
C355 H345 0.930 . S
C355 C354 1.384 . S
C355 C356 1.389 . S
C356 C355 1.389 . S
C356 C357 1.405 . S
C357 H346 0.930 . S
C357 C356 1.405 . S
C357 C358 1.364 . S
C358 C357 1.364 . S
C358 C359 1.400 . S
C359 H347 0.931 . S
C359 C354 1.408 . S
C359 C358 1.400 . S
H360 C366 0.930 . S
H361 C369 0.931 . S
H362 C371 0.931 . S
H363 C373 0.930 . S
H364 C375 0.930 . S
H365 C377 0.931 . S
C366 H360 0.930 . S
C366 C367 1.380 . S
C366 C368 1.394 . S
C367 C366 1.380 . S
C367 C371 1.382 . S
C368 C366 1.394 . S
C368 C369 1.400 . S
C369 H361 0.931 . S
C369 C368 1.400 . S
C369 C370 1.375 . S
C370 C369 1.375 . S
C370 C371 1.415 . S
C370 C372 1.501 . S
C371 H362 0.931 . S
C371 C367 1.382 . S
C371 C370 1.415 . S
C372 C370 1.501 . S
C372 C373 1.384 . S
C372 C377 1.408 . S
C373 H363 0.930 . S
C373 C372 1.384 . S
C373 C374 1.389 . S
C374 C373 1.389 . S
C374 C375 1.405 . S
C375 H364 0.930 . S
C375 C374 1.405 . S
C375 C376 1.364 . S
C376 C375 1.364 . S
C376 C377 1.400 . S
C377 H365 0.931 . S
C377 C372 1.408 . S
C377 C376 1.400 . S
H378 C384 0.930 . S
H379 C387 0.931 . S
H380 C389 0.931 . S
H381 C391 0.930 . S
H382 C393 0.930 . S
H383 C395 0.931 . S
C384 H378 0.930 . S
C384 C385 1.380 . S
C384 C386 1.394 . S
C385 C384 1.380 . S
C385 C389 1.382 . S
C386 C384 1.394 . S
C386 C387 1.400 . S
C387 H379 0.931 . S
C387 C386 1.400 . S
C387 C388 1.375 . S
C388 C387 1.375 . S
C388 C389 1.415 . S
C388 C390 1.501 . S
C389 H380 0.931 . S
C389 C385 1.382 . S
C389 C388 1.415 . S
C390 C388 1.501 . S
C390 C391 1.384 . S
C390 C395 1.408 . S
C391 H381 0.930 . S
C391 C390 1.384 . S
C391 C392 1.389 . S
C392 C391 1.389 . S
C392 C393 1.405 . S
C393 H382 0.930 . S
C393 C392 1.405 . S
C393 C394 1.364 . S
C394 C393 1.364 . S
C394 C395 1.400 . S
C395 H383 0.931 . S
C395 C390 1.408 . S
C395 C394 1.400 . S
H396 C402 0.930 . S
H397 C405 0.931 . S
H398 C407 0.931 . S
H399 C409 0.930 . S
H400 C411 0.930 . S
H401 C413 0.931 . S
C402 H396 0.930 . S
C402 C403 1.380 . S
C402 C404 1.394 . S
C403 C402 1.380 . S
C403 C407 1.382 . S
C404 C402 1.394 . S
C404 C405 1.400 . S
C405 H397 0.931 . S
C405 C404 1.400 . S
C405 C406 1.375 . S
C406 C405 1.375 . S
C406 C407 1.415 . S
C406 C408 1.501 . S
C407 H398 0.931 . S
C407 C403 1.382 . S
C407 C406 1.415 . S
C408 C406 1.501 . S
C408 C409 1.384 . S
C408 C413 1.408 . S
C409 H399 0.930 . S
C409 C408 1.384 . S
C409 C410 1.389 . S
C410 C409 1.389 . S
C410 C411 1.405 . S
C411 H400 0.930 . S
C411 C410 1.405 . S
C411 C412 1.364 . S
C412 C411 1.364 . S
C412 C413 1.400 . S
C413 H401 0.931 . S
C413 C408 1.408 . S
C413 C412 1.400 . S
H414 C420 0.925 . S
H415 C423 0.931 . S
H416 C425 0.931 . S
H417 C427 0.930 . S
H418 C429 0.930 . S
H419 C431 0.941 . S
C420 H414 0.925 . S
C420 C421 1.384 . S
C420 C422 1.395 1_655 S
C421 C420 1.384 . S
C421 C425 1.382 . S
C422 C420 1.395 1_455 S
C422 C423 1.400 . S
C423 H415 0.931 . S
C423 C422 1.400 . S
C423 C424 1.375 . S
C424 C423 1.375 . S
C424 C425 1.415 1_455 S
C424 C426 1.501 . S
C425 H416 0.931 . S
C425 C421 1.382 . S
C425 C424 1.415 1_655 S
C426 C424 1.501 . S
C426 C427 1.384 . S
C426 C431 1.422 . S
C427 H417 0.930 . S
C427 C426 1.384 . S
C427 C428 1.389 . S
C428 C427 1.389 . S
C428 C429 1.405 . S
C429 H418 0.930 . S
C429 C428 1.405 . S
C429 C430 1.360 . S
C430 C429 1.360 . S
C430 C431 1.391 . S
C431 H419 0.941 . S
C431 C426 1.422 . S
C431 C430 1.391 . S
H432 C438 0.930 . S
H433 C441 0.931 . S
H434 C443 0.931 . S
H435 C445 0.930 . S
H436 C447 0.930 . S
H437 C449 0.931 . S
C438 H432 0.930 . S
C438 C439 1.380 . S
C438 C440 1.394 . S
C439 C438 1.380 . S
C439 C443 1.382 . S
C440 C438 1.394 . S
C440 C441 1.400 . S
C441 H433 0.931 . S
C441 C440 1.400 . S
C441 C442 1.375 . S
C442 C441 1.375 . S
C442 C443 1.415 . S
C442 C444 1.501 . S
C443 H434 0.931 . S
C443 C439 1.382 . S
C443 C442 1.415 . S
C444 C442 1.501 . S
C444 C445 1.384 . S
C444 C449 1.408 . S
C445 H435 0.930 . S
C445 C444 1.384 . S
C445 C446 1.389 . S
C446 C445 1.389 . S
C446 C447 1.405 . S
C447 H436 0.930 . S
C447 C446 1.405 . S
C447 C448 1.364 . S
C448 C447 1.364 . S
C448 C449 1.400 . S
C449 H437 0.931 . S
C449 C444 1.408 . S
C449 C448 1.400 . S
H450 C456 0.939 . S
H451 C459 0.931 . S
H452 C461 0.931 . S
H453 C463 0.930 . S
H454 C465 0.930 . S
H455 C467 0.921 . S
C456 H450 0.939 . S
C456 C457 1.378 . S
C456 C458 1.387 1_545 S
C457 C456 1.378 . S
C457 C461 1.382 . S
C458 C456 1.387 1_565 S
C458 C459 1.400 . S
C459 H451 0.931 . S
C459 C458 1.400 . S
C459 C460 1.375 . S
C460 C459 1.375 . S
C460 C461 1.415 1_565 S
C460 C462 1.501 . S
C461 H452 0.931 . S
C461 C457 1.382 . S
C461 C460 1.415 1_545 S
C462 C460 1.501 . S
C462 C463 1.384 . S
C462 C467 1.396 . S
C463 H453 0.930 . S
C463 C462 1.384 . S
C463 C464 1.389 . S
C464 C463 1.389 . S
C464 C465 1.405 . S
C465 H454 0.930 . S
C465 C464 1.405 . S
C465 C466 1.375 . S
C466 C465 1.375 . S
C466 C467 1.408 . S
C467 H455 0.921 . S
C467 C462 1.396 . S
C467 C466 1.408 . S
H468 C474 0.909 . S
H469 C477 0.931 . S
H470 C479 0.926 . S
H471 C481 0.930 . S
H472 C483 0.930 . S
H473 C485 0.931 . S
C474 H468 0.909 . S
C474 C475 1.385 . S
C474 C476 1.415 1_545 S
C475 C474 1.385 . S
C475 C479 1.403 1_545 S
C476 C474 1.415 1_565 S
C476 C477 1.384 . S
C477 H469 0.931 . S
C477 C476 1.384 . S
C477 C478 1.375 . S
C478 C477 1.375 . S
C478 C479 1.411 . S
C478 C480 1.501 . S
C479 H470 0.926 . S
C479 C475 1.403 1_565 S
C479 C478 1.411 . S
C480 C478 1.501 . S
C480 C481 1.384 . S
C480 C485 1.408 1_565 S
C481 H471 0.930 . S
C481 C480 1.384 . S
C481 C482 1.389 . S
C482 C481 1.389 . S
C482 C483 1.405 . S
C483 H472 0.930 . S
C483 C482 1.405 . S
C483 C484 1.364 1_565 S
C484 C483 1.364 1_545 S
C484 C485 1.400 . S
C485 H473 0.931 . S
C485 C480 1.408 1_545 S
C485 C484 1.400 . S
H486 C492 0.961 . S
H487 C495 0.931 . S
H488 C497 0.934 . S
H489 C499 0.930 . S
H490 C501 0.930 . S
H491 C503 0.931 . S
C492 H486 0.961 . S
C492 C493 1.372 . S
C492 C494 1.371 1_655 S
C493 C492 1.372 . S
C493 C497 1.359 1_655 S
C494 C492 1.371 1_455 S
C494 C495 1.414 . S
C495 H487 0.931 . S
C495 C494 1.414 . S
C495 C496 1.375 . S
C496 C495 1.375 . S
C496 C497 1.422 . S
C496 C498 1.501 . S
C497 H488 0.934 . S
C497 C493 1.359 1_455 S
C497 C496 1.422 . S
C498 C496 1.501 . S
C498 C499 1.384 . S
C498 C503 1.408 1_455 S
C499 H489 0.930 . S
C499 C498 1.384 . S
C499 C500 1.389 . S
C500 C499 1.389 . S
C500 C501 1.405 . S
C501 H490 0.930 . S
C501 C500 1.405 . S
C501 C502 1.364 1_455 S
C502 C501 1.364 1_655 S
C502 C503 1.400 . S
C503 H491 0.931 . S
C503 C498 1.408 1_655 S
C503 C502 1.400 . S
H504 C510 0.930 . S
H505 C513 0.931 . S
H506 C515 0.931 . S
H507 C517 0.930 . S
H508 C519 0.930 . S
H509 C521 0.931 . S
C510 H504 0.930 . S
C510 C511 1.380 . S
C510 C512 1.394 . S
C511 C510 1.380 . S
C511 C515 1.382 . S
C512 C510 1.394 . S
C512 C513 1.400 . S
C513 H505 0.931 . S
C513 C512 1.400 . S
C513 C514 1.375 . S
C514 C513 1.375 . S
C514 C515 1.415 . S
C514 C516 1.501 . S
C515 H506 0.931 . S
C515 C511 1.382 . S
C515 C514 1.415 . S
C516 C514 1.501 . S
C516 C517 1.384 . S
C516 C521 1.408 . S
C517 H507 0.930 . S
C517 C516 1.384 . S
C517 C518 1.389 . S
C518 C517 1.389 . S
C518 C519 1.405 . S
C519 H508 0.930 . S
C519 C518 1.405 . S
C519 C520 1.364 . S
C520 C519 1.364 . S
C520 C521 1.400 . S
C521 H509 0.931 . S
C521 C516 1.408 . S
C521 C520 1.400 . S
H522 C528 0.930 . S
H523 C531 0.931 . S
H524 C533 0.931 . S
H525 C535 0.930 . S
H526 C537 0.930 . S
H527 C539 0.931 . S
C528 H522 0.930 . S
C528 C529 1.380 . S
C528 C530 1.394 . S
C529 C528 1.380 . S
C529 C533 1.382 . S
C530 C528 1.394 . S
C530 C531 1.400 . S
C531 H523 0.931 . S
C531 C530 1.400 . S
C531 C532 1.375 . S
C532 C531 1.375 . S
C532 C533 1.415 . S
C532 C534 1.501 . S
C533 H524 0.931 . S
C533 C529 1.382 . S
C533 C532 1.415 . S
C534 C532 1.501 . S
C534 C535 1.384 . S
C534 C539 1.408 . S
C535 H525 0.930 . S
C535 C534 1.384 . S
C535 C536 1.389 . S
C536 C535 1.389 . S
C536 C537 1.405 . S
C537 H526 0.930 . S
C537 C536 1.405 . S
C537 C538 1.364 . S
C538 C537 1.364 . S
C538 C539 1.400 . S
C539 H527 0.931 . S
C539 C534 1.408 . S
C539 C538 1.400 . S
H540 C546 0.930 . S
H541 C549 0.931 . S
H542 C551 0.931 . S
H543 C553 0.930 . S
H544 C555 0.930 . S
H545 C557 0.931 . S
C546 H540 0.930 . S
C546 C547 1.380 . S
C546 C548 1.394 . S
C547 C546 1.380 . S
C547 C551 1.382 . S
C548 C546 1.394 . S
C548 C549 1.400 . S
C549 H541 0.931 . S
C549 C548 1.400 . S
C549 C550 1.375 . S
C550 C549 1.375 . S
C550 C551 1.415 . S
C550 C552 1.501 . S
C551 H542 0.931 . S
C551 C547 1.382 . S
C551 C550 1.415 . S
C552 C550 1.501 . S
C552 C553 1.384 . S
C552 C557 1.408 . S
C553 H543 0.930 . S
C553 C552 1.384 . S
C553 C554 1.389 . S
C554 C553 1.389 . S
C554 C555 1.405 . S
C555 H544 0.930 . S
C555 C554 1.405 . S
C555 C556 1.364 . S
C556 C555 1.364 . S
C556 C557 1.400 . S
C557 H545 0.931 . S
C557 C552 1.408 . S
C557 C556 1.400 . S
H558 C564 0.930 . S
H559 C567 0.931 . S
H560 C569 0.931 . S
H561 C571 0.930 . S
H562 C573 0.930 . S
H563 C575 0.931 . S
C564 H558 0.930 . S
C564 C565 1.380 . S
C564 C566 1.394 . S
C565 C564 1.380 . S
C565 C569 1.382 . S
C566 C564 1.394 . S
C566 C567 1.400 . S
C567 H559 0.931 . S
C567 C566 1.400 . S
C567 C568 1.375 . S
C568 C567 1.375 . S
C568 C569 1.415 . S
C568 C570 1.501 . S
C569 H560 0.931 . S
C569 C565 1.382 . S
C569 C568 1.415 . S
C570 C568 1.501 . S
C570 C571 1.384 . S
C570 C575 1.408 . S
C571 H561 0.930 . S
C571 C570 1.384 . S
C571 C572 1.389 . S
C572 C571 1.389 . S
C572 C573 1.405 . S
C573 H562 0.930 . S
C573 C572 1.405 . S
C573 C574 1.364 . S
C574 C573 1.364 . S
C574 C575 1.400 . S
C575 H563 0.931 . S
C575 C570 1.408 . S
C575 C574 1.400 . S
H576 C582 0.930 . S
H577 C586 0.930 . S
H578 C591 0.929 . S
H579 C589 0.929 . S
H580 C584 0.929 . S
H581 C590 0.929 . S
C582 H576 0.930 . S
C582 C583 1.367 . S
C582 C590 1.378 . S
C583 C582 1.367 . S
C583 C591 1.433 1_655 S
C584 H580 0.929 . S
C584 C586 1.378 . S
C584 C588 1.350 1_455 S
C585 C588 1.463 . S
C585 C590 1.350 . S
C585 N593 1.427 1_655 S
C586 H577 0.930 . S
C586 C584 1.378 . S
C586 C587 1.367 1_455 S
C587 C586 1.367 1_655 S
C587 C589 1.433 . S
C588 C584 1.350 1_655 S
C588 C585 1.463 . S
C588 N592 1.427 . S
C589 H579 0.929 . S
C589 C587 1.433 . S
C589 N592 1.384 . S
C590 H581 0.929 . S
C590 C582 1.378 . S
C590 C585 1.350 . S
C591 H578 0.929 . S
C591 C583 1.433 1_455 S
C591 N593 1.384 . S
N592 C588 1.427 . S
N592 C589 1.384 . S
N593 C585 1.427 1_455 S
N593 C591 1.384 . S
H594 C600 0.930 . S
H595 C604 0.930 . S
H596 C609 0.929 . S
H597 C607 0.929 . S
H598 C602 0.929 . S
H599 C608 0.929 . S
C600 H594 0.930 . S
C600 C601 1.367 . S
C600 C608 1.378 . S
C601 C600 1.367 . S
C601 C609 1.433 . S
C602 H598 0.929 . S
C602 C604 1.378 . S
C602 C606 1.350 . S
C603 C606 1.463 . S
C603 C608 1.350 . S
C603 N611 1.427 . S
C604 H595 0.930 . S
C604 C602 1.378 . S
C604 C605 1.367 . S
C605 C604 1.367 . S
C605 C607 1.433 . S
C606 C602 1.350 . S
C606 C603 1.463 . S
C606 N610 1.427 . S
C607 H597 0.929 . S
C607 C605 1.433 . S
C607 N610 1.384 . S
C608 H599 0.929 . S
C608 C600 1.378 . S
C608 C603 1.350 . S
C609 H596 0.929 . S
C609 C601 1.433 . S
C609 N611 1.384 . S
N610 C606 1.427 . S
N610 C607 1.384 . S
N611 C603 1.427 . S
N611 C609 1.384 . S
H612 C618 0.930 . S
H613 C622 0.930 . S
H614 C627 0.929 . S
H615 C625 0.929 . S
H616 C620 0.929 . S
H617 C626 0.929 . S
C618 H612 0.930 . S
C618 C619 1.367 . S
C618 C626 1.378 . S
C619 C618 1.367 . S
C619 C627 1.433 1_545 S
C620 H616 0.929 . S
C620 C622 1.378 . S
C620 C624 1.350 1_565 S
C621 C624 1.463 . S
C621 C626 1.350 . S
C621 N629 1.427 1_545 S
C622 H613 0.930 . S
C622 C620 1.378 . S
C622 C623 1.367 1_565 S
C623 C622 1.367 1_545 S
C623 C625 1.433 . S
C624 C620 1.350 1_545 S
C624 C621 1.463 . S
C624 N628 1.427 . S
C625 H615 0.929 . S
C625 C623 1.433 . S
C625 N628 1.384 . S
C626 H617 0.929 . S
C626 C618 1.378 . S
C626 C621 1.350 . S
C627 H614 0.929 . S
C627 C619 1.433 1_565 S
C627 N629 1.384 . S
N628 C624 1.427 . S
N628 C625 1.384 . S
N629 C621 1.427 1_565 S
N629 C627 1.384 . S
H630 C636 0.930 . S
H631 C640 0.930 . S
H632 C645 0.929 . S
H633 C643 0.929 . S
H634 C638 0.929 . S
H635 C644 0.929 . S
C636 H630 0.930 . S
C636 C637 1.367 . S
C636 C644 1.378 . S
C637 C636 1.367 . S
C637 C645 1.433 . S
C638 H634 0.929 . S
C638 C640 1.378 . S
C638 C642 1.350 . S
C639 C642 1.463 . S
C639 C644 1.350 . S
C639 N647 1.427 . S
C640 H631 0.930 . S
C640 C638 1.378 . S
C640 C641 1.367 . S
C641 C640 1.367 . S
C641 C643 1.433 . S
C642 C638 1.350 . S
C642 C639 1.463 . S
C642 N646 1.427 . S
C643 H633 0.929 . S
C643 C641 1.433 . S
C643 N646 1.384 . S
C644 H635 0.929 . S
C644 C636 1.378 . S
C644 C639 1.350 . S
C645 H632 0.929 . S
C645 C637 1.433 . S
C645 N647 1.384 . S
N646 C642 1.427 . S
N646 C643 1.384 . S
N647 C639 1.427 . S
N647 C645 1.384 . S
H648 C654 0.930 . S
H649 C658 0.930 . S
H650 C663 0.929 . S
H651 C661 0.929 . S
H652 C656 0.929 . S
H653 C662 0.929 . S
C654 H648 0.930 . S
C654 C655 1.367 . S
C654 C662 1.378 . S
C655 C654 1.367 . S
C655 C663 1.433 1_455 S
C656 H652 0.929 . S
C656 C658 1.378 . S
C656 C660 1.350 1_655 S
C657 C660 1.463 . S
C657 C662 1.350 . S
C657 N665 1.427 1_455 S
C658 H649 0.930 . S
C658 C656 1.378 . S
C658 C659 1.367 1_655 S
C659 C658 1.367 1_455 S
C659 C661 1.433 . S
C660 C656 1.350 1_455 S
C660 C657 1.463 . S
C660 N664 1.427 . S
C661 H651 0.929 . S
C661 C659 1.433 . S
C661 N664 1.384 . S
C662 H653 0.929 . S
C662 C654 1.378 . S
C662 C657 1.350 . S
C663 H650 0.929 . S
C663 C655 1.433 1_655 S
C663 N665 1.384 . S
N664 C660 1.427 . S
N664 C661 1.384 . S
N665 C657 1.427 1_655 S
N665 C663 1.384 . S
H666 C672 0.930 . S
H667 C676 0.930 . S
H668 C681 0.929 . S
H669 C679 0.929 . S
H670 C674 0.929 . S
H671 C680 0.929 . S
C672 H666 0.930 . S
C672 C673 1.367 . S
C672 C680 1.378 . S
C673 C672 1.367 . S
C673 C681 1.433 . S
C674 H670 0.929 . S
C674 C676 1.378 . S
C674 C678 1.350 . S
C675 C678 1.463 . S
C675 C680 1.350 . S
C675 N683 1.427 . S
C676 H667 0.930 . S
C676 C674 1.378 . S
C676 C677 1.367 . S
C677 C676 1.367 . S
C677 C679 1.433 . S
C678 C674 1.350 . S
C678 C675 1.463 . S
C678 N682 1.427 . S
C679 H669 0.929 . S
C679 C677 1.433 . S
C679 N682 1.384 . S
C680 H671 0.929 . S
C680 C672 1.378 . S
C680 C675 1.350 . S
C681 H668 0.929 . S
C681 C673 1.433 . S
C681 N683 1.384 . S
N682 C678 1.427 . S
N682 C679 1.384 . S
N683 C675 1.427 . S
N683 C681 1.384 . S
H684 C690 0.890 1_655 S
H685 C694 0.930 . S
H686 C699 0.929 . S
H687 C697 0.929 . S
H688 C692 0.929 . S
H689 C698 0.922 1_655 S
C690 H684 0.890 1_455 S
C690 C691 1.367 . S
C690 C698 1.369 . S
C691 C690 1.367 . S
C691 C699 1.433 . S
C692 H688 0.929 . S
C692 C694 1.378 . S
C692 C696 1.350 . S
C693 C696 1.463 . S
C693 C698 1.366 . S
C693 N701 1.427 . S
C694 H685 0.930 . S
C694 C692 1.378 . S
C694 C695 1.378 . S
C695 C694 1.378 . S
C695 C697 1.410 1_455 S
C696 C692 1.350 . S
C696 C693 1.463 . S
C696 N700 1.427 1_455 S
C697 H687 0.929 . S
C697 C695 1.410 1_655 S
C697 N700 1.384 . S
C698 H689 0.922 1_455 S
C698 C690 1.369 . S
C698 C693 1.366 . S
C699 H686 0.929 . S
C699 C691 1.433 . S
C699 N701 1.384 . S
N700 C696 1.427 1_655 S
N700 C697 1.384 . S
N701 C693 1.427 . S
N701 C699 1.384 . S
H702 C708 0.930 . S
H703 C712 0.930 . S
H704 C717 0.929 . S
H705 C715 0.929 . S
H706 C710 0.929 . S
H707 C716 0.929 . S
C708 H702 0.930 . S
C708 C709 1.367 . S
C708 C716 1.378 . S
C709 C708 1.367 . S
C709 C717 1.433 . S
C710 H706 0.929 . S
C710 C712 1.378 . S
C710 C714 1.350 . S
C711 C714 1.463 . S
C711 C716 1.350 . S
C711 N719 1.427 . S
C712 H703 0.930 . S
C712 C710 1.378 . S
C712 C713 1.367 . S
C713 C712 1.367 . S
C713 C715 1.433 . S
C714 C710 1.350 . S
C714 C711 1.463 . S
C714 N718 1.427 . S
C715 H705 0.929 . S
C715 C713 1.433 . S
C715 N718 1.384 . S
C716 H707 0.929 . S
C716 C708 1.378 . S
C716 C711 1.350 . S
C717 H704 0.929 . S
C717 C709 1.433 . S
C717 N719 1.384 . S
N718 C714 1.427 . S
N718 C715 1.384 . S
N719 C711 1.427 . S
N719 C717 1.384 . S
H720 C726 0.930 . S
H721 C730 0.930 . S
H722 C735 0.929 . S
H723 C733 0.929 . S
H724 C728 0.929 . S
H725 C734 0.929 . S
C726 H720 0.930 . S
C726 C727 1.367 1_545 S
C726 C734 1.378 . S
C727 C726 1.367 1_565 S
C727 C735 1.433 . S
C728 H724 0.929 . S
C728 C730 1.378 . S
C728 C732 1.350 . S
C729 C732 1.463 . S
C729 C734 1.350 1_565 S
C729 N737 1.427 . S
C730 H721 0.930 . S
C730 C728 1.378 . S
C730 C731 1.376 . S
C731 C730 1.376 . S
C731 C733 1.429 1_565 S
C732 C728 1.350 . S
C732 C729 1.463 . S
C732 N736 1.427 1_565 S
C733 H723 0.929 . S
C733 C731 1.429 1_545 S
C733 N736 1.384 . S
C734 H725 0.929 . S
C734 C726 1.378 . S
C734 C729 1.350 1_545 S
C735 H722 0.929 . S
C735 C727 1.433 . S
C735 N737 1.384 . S
N736 C732 1.427 1_545 S
N736 C733 1.384 . S
N737 C729 1.427 . S
N737 C735 1.384 . S
H738 C744 0.930 . S
H739 C748 0.930 . S
H740 C753 0.929 . S
H741 C751 0.929 . S
H742 C746 0.929 . S
H743 C752 0.929 . S
C744 H738 0.930 . S
C744 C745 1.367 1_565 S
C744 C752 1.378 . S
C745 C744 1.367 1_545 S
C745 C753 1.433 . S
C746 H742 0.929 . S
C746 C748 1.378 . S
C746 C750 1.350 . S
C747 C750 1.463 . S
C747 C752 1.350 1_545 S
C747 N755 1.427 . S
C748 H739 0.930 . S
C748 C746 1.378 . S
C748 C749 1.367 . S
C749 C748 1.367 . S
C749 C751 1.433 1_545 S
C750 C746 1.350 . S
C750 C747 1.463 . S
C750 N754 1.427 1_545 S
C751 H741 0.929 . S
C751 C749 1.433 1_565 S
C751 N754 1.384 . S
C752 H743 0.929 . S
C752 C744 1.378 . S
C752 C747 1.350 1_565 S
C753 H740 0.929 . S
C753 C745 1.433 . S
C753 N755 1.384 . S
N754 C750 1.427 1_565 S
N754 C751 1.384 . S
N755 C747 1.427 . S
N755 C753 1.384 . S
H756 C762 0.930 . S
H757 C766 0.930 . S
H758 C771 0.929 . S
H759 C769 0.929 . S
H760 C764 0.929 . S
H761 C770 0.929 . S
C762 H756 0.930 . S
C762 C763 1.367 1_455 S
C762 C770 1.378 . S
C763 C762 1.367 1_655 S
C763 C771 1.433 . S
C764 H760 0.929 . S
C764 C766 1.378 . S
C764 C768 1.350 . S
C765 C768 1.463 . S
C765 C770 1.350 1_655 S
C765 N773 1.427 . S
C766 H757 0.930 . S
C766 C764 1.378 . S
C766 C767 1.376 . S
C767 C766 1.376 . S
C767 C769 1.439 1_655 S
C768 C764 1.350 . S
C768 C765 1.463 . S
C768 N772 1.427 1_655 S
C769 H759 0.929 . S
C769 C767 1.439 1_455 S
C769 N772 1.384 . S
C770 H761 0.929 . S
C770 C762 1.378 . S
C770 C765 1.350 1_455 S
C771 H758 0.929 . S
C771 C763 1.433 . S
C771 N773 1.384 . S
N772 C768 1.427 1_455 S
N772 C769 1.384 . S
N773 C765 1.427 . S
N773 C771 1.384 . S
H774 C780 0.930 . S
H775 C784 0.930 . S
H776 C789 0.929 . S
H777 C787 0.929 . S
H778 C782 0.929 . S
H779 C788 0.929 . S
C780 H774 0.930 . S
C780 C781 1.367 . S
C780 C788 1.378 . S
C781 C780 1.367 . S
C781 C789 1.433 . S
C782 H778 0.929 . S
C782 C784 1.378 . S
C782 C786 1.350 . S
C783 C786 1.463 . S
C783 C788 1.350 . S
C783 N791 1.427 . S
C784 H775 0.930 . S
C784 C782 1.378 . S
C784 C785 1.367 . S
C785 C784 1.367 . S
C785 C787 1.433 . S
C786 C782 1.350 . S
C786 C783 1.463 . S
C786 N790 1.427 . S
C787 H777 0.929 . S
C787 C785 1.433 . S
C787 N790 1.384 . S
C788 H779 0.929 . S
C788 C780 1.378 . S
C788 C783 1.350 . S
C789 H776 0.929 . S
C789 C781 1.433 . S
C789 N791 1.384 . S
N790 C786 1.427 . S
N790 C787 1.384 . S
N791 C783 1.427 . S
N791 C789 1.384 . S
H792 C798 0.930 . S
H793 C802 0.930 . S
H794 C807 0.929 . S
H795 C805 0.929 . S
H796 C800 0.929 . S
H797 C806 0.929 . S
C798 H792 0.930 . S
C798 C799 1.367 . S
C798 C806 1.378 . S
C799 C798 1.367 . S
C799 C807 1.433 . S
C800 H796 0.929 . S
C800 C802 1.378 . S
C800 C804 1.350 . S
C801 C804 1.463 . S
C801 C806 1.350 . S
C801 N809 1.427 . S
C802 H793 0.930 . S
C802 C800 1.378 . S
C802 C803 1.367 . S
C803 C802 1.367 . S
C803 C805 1.433 . S
C804 C800 1.350 . S
C804 C801 1.463 . S
C804 N808 1.427 . S
C805 H795 0.929 . S
C805 C803 1.433 . S
C805 N808 1.384 . S
C806 H797 0.929 . S
C806 C798 1.378 . S
C806 C801 1.350 . S
C807 H794 0.929 . S
C807 C799 1.433 . S
C807 N809 1.384 . S
N808 C804 1.427 . S
N808 C805 1.384 . S
N809 C801 1.427 . S
N809 C807 1.384 . S
H810 C816 0.930 . S
H811 C820 0.930 . S
H812 C825 0.929 . S
H813 C823 0.929 . S
H814 C818 0.929 . S
H815 C824 0.929 . S
C816 H810 0.930 . S
C816 C817 1.367 . S
C816 C824 1.378 . S
C817 C816 1.367 . S
C817 C825 1.433 . S
C818 H814 0.929 . S
C818 C820 1.378 . S
C818 C822 1.350 . S
C819 C822 1.463 . S
C819 C824 1.350 . S
C819 N827 1.427 . S
C820 H811 0.930 . S
C820 C818 1.378 . S
C820 C821 1.367 . S
C821 C820 1.367 . S
C821 C823 1.433 . S
C822 C818 1.350 . S
C822 C819 1.463 . S
C822 N826 1.427 . S
C823 H813 0.929 . S
C823 C821 1.433 . S
C823 N826 1.384 . S
C824 H815 0.929 . S
C824 C816 1.378 . S
C824 C819 1.350 . S
C825 H812 0.929 . S
C825 C817 1.433 . S
C825 N827 1.384 . S
N826 C822 1.427 . S
N826 C823 1.384 . S
N827 C819 1.427 . S
N827 C825 1.384 . S
H828 C834 0.930 . S
H829 C838 0.930 . S
H830 C843 0.929 . S
H831 C841 0.929 . S
H832 C836 0.929 . S
H833 C842 0.929 . S
C834 H828 0.930 . S
C834 C835 1.367 . S
C834 C842 1.378 . S
C835 C834 1.367 . S
C835 C843 1.433 . S
C836 H832 0.929 . S
C836 C838 1.378 . S
C836 C840 1.350 . S
C837 C840 1.463 . S
C837 C842 1.350 . S
C837 N845 1.427 . S
C838 H829 0.930 . S
C838 C836 1.378 . S
C838 C839 1.367 . S
C839 C838 1.367 . S
C839 C841 1.433 . S
C840 C836 1.350 . S
C840 C837 1.463 . S
C840 N844 1.427 . S
C841 H831 0.929 . S
C841 C839 1.433 . S
C841 N844 1.384 . S
C842 H833 0.929 . S
C842 C834 1.378 . S
C842 C837 1.350 . S
C843 H830 0.929 . S
C843 C835 1.433 . S
C843 N845 1.384 . S
N844 C840 1.427 . S
N844 C841 1.384 . S
N845 C837 1.427 . S
N845 C843 1.384 . S
H846 C852 0.930 . S
H847 C856 0.930 . S
H848 C861 0.929 . S
H849 C859 0.929 . S
H850 C854 0.929 . S
H851 C860 0.929 . S
C852 H846 0.930 . S
C852 C853 1.367 . S
C852 C860 1.378 . S
C853 C852 1.367 . S
C853 C861 1.433 . S
C854 H850 0.929 . S
C854 C856 1.378 . S
C854 C858 1.350 . S
C855 C858 1.463 . S
C855 C860 1.350 . S
C855 N863 1.427 . S
C856 H847 0.930 . S
C856 C854 1.378 . S
C856 C857 1.367 . S
C857 C856 1.367 . S
C857 C859 1.433 . S
C858 C854 1.350 . S
C858 C855 1.463 . S
C858 N862 1.427 . S
C859 H849 0.929 . S
C859 C857 1.433 . S
C859 N862 1.384 . S
C860 H851 0.929 . S
C860 C852 1.378 . S
C860 C855 1.350 . S
C861 H848 0.929 . S
C861 C853 1.433 . S
C861 N863 1.384 . S
N862 C858 1.427 . S
N862 C859 1.384 . S
N863 C855 1.427 . S
N863 C861 1.384 . S
H864 C870 0.930 . S
H865 C874 0.930 . S
H866 C879 0.929 . S
H867 C877 0.929 . S
H868 C872 0.929 . S
H869 C878 0.929 . S
C870 H864 0.930 . S
C870 C871 1.367 . S
C870 C878 1.378 . S
C871 C870 1.367 . S
C871 C879 1.433 . S
C872 H868 0.929 . S
C872 C874 1.378 . S
C872 C876 1.350 . S
C873 C876 1.463 . S
C873 C878 1.350 . S
C873 N881 1.427 . S
C874 H865 0.930 . S
C874 C872 1.378 . S
C874 C875 1.367 . S
C875 C874 1.367 . S
C875 C877 1.433 . S
C876 C872 1.350 . S
C876 C873 1.463 . S
C876 N880 1.427 . S
C877 H867 0.929 . S
C877 C875 1.433 . S
C877 N880 1.384 . S
C878 H869 0.929 . S
C878 C870 1.378 . S
C878 C873 1.350 . S
C879 H866 0.929 . S
C879 C871 1.433 . S
C879 N881 1.384 . S
N880 C876 1.427 . S
N880 C877 1.384 . S
N881 C873 1.427 . S
N881 C879 1.384 . S
H882 C888 0.930 . S
H883 C892 0.930 . S
H884 C897 0.929 . S
H885 C895 0.929 . S
H886 C890 0.929 . S
H887 C896 0.929 . S
C888 H882 0.930 . S
C888 C889 1.367 . S
C888 C896 1.378 . S
C889 C888 1.367 . S
C889 C897 1.433 . S
C890 H886 0.929 . S
C890 C892 1.378 . S
C890 C894 1.350 . S
C891 C894 1.463 . S
C891 C896 1.350 . S
C891 N899 1.427 . S
C892 H883 0.930 . S
C892 C890 1.378 . S
C892 C893 1.367 . S
C893 C892 1.367 . S
C893 C895 1.433 . S
C894 C890 1.350 . S
C894 C891 1.463 . S
C894 N898 1.427 . S
C895 H885 0.929 . S
C895 C893 1.433 . S
C895 N898 1.384 . S
C896 H887 0.929 . S
C896 C888 1.378 . S
C896 C891 1.350 . S
C897 H884 0.929 . S
C897 C889 1.433 . S
C897 N899 1.384 . S
N898 C894 1.427 . S
N898 C895 1.384 . S
N899 C891 1.427 . S
N899 C897 1.384 . S
H900 C906 0.930 . S
H901 C910 0.930 . S
H902 C915 0.929 . S
H903 C913 0.929 . S
H904 C908 0.929 . S
H905 C914 0.929 . S
C906 H900 0.930 . S
C906 C907 1.367 . S
C906 C914 1.378 . S
C907 C906 1.367 . S
C907 C915 1.433 . S
C908 H904 0.929 . S
C908 C910 1.378 . S
C908 C912 1.350 . S
C909 C912 1.463 . S
C909 C914 1.350 . S
C909 N917 1.427 . S
C910 H901 0.930 . S
C910 C908 1.378 . S
C910 C911 1.367 . S
C911 C910 1.367 . S
C911 C913 1.433 . S
C912 C908 1.350 . S
C912 C909 1.463 . S
C912 N916 1.427 . S
C913 H903 0.929 . S
C913 C911 1.433 . S
C913 N916 1.384 . S
C914 H905 0.929 . S
C914 C906 1.378 . S
C914 C909 1.350 . S
C915 H902 0.929 . S
C915 C907 1.433 . S
C915 N917 1.384 . S
N916 C912 1.427 . S
N916 C913 1.384 . S
N917 C909 1.427 . S
N917 C915 1.384 . S
H918 C924 0.930 . S
H919 C928 0.930 . S
H920 C933 0.929 . S
H921 C931 0.929 . S
H922 C926 0.929 . S
H923 C932 0.929 . S
C924 H918 0.930 . S
C924 C925 1.367 . S
C924 C932 1.378 . S
C925 C924 1.367 . S
C925 C933 1.433 . S
C926 H922 0.929 . S
C926 C928 1.378 . S
C926 C930 1.350 . S
C927 C930 1.463 . S
C927 C932 1.350 . S
C927 N935 1.427 . S
C928 H919 0.930 . S
C928 C926 1.378 . S
C928 C929 1.367 . S
C929 C928 1.367 . S
C929 C931 1.433 . S
C930 C926 1.350 . S
C930 C927 1.463 . S
C930 N934 1.427 . S
C931 H921 0.929 . S
C931 C929 1.433 . S
C931 N934 1.384 . S
C932 H923 0.929 . S
C932 C924 1.378 . S
C932 C927 1.350 . S
C933 H920 0.929 . S
C933 C925 1.433 . S
C933 N935 1.384 . S
N934 C930 1.427 . S
N934 C931 1.384 . S
N935 C927 1.427 . S
N935 C933 1.384 . S
H936 C942 0.930 . S
H937 C946 0.930 . S
H938 C951 0.929 . S
H939 C949 0.929 . S
H940 C944 0.929 . S
H941 C950 0.929 . S
C942 H936 0.930 . S
C942 C943 1.367 . S
C942 C950 1.378 . S
C943 C942 1.367 . S
C943 C951 1.433 . S
C944 H940 0.929 . S
C944 C946 1.378 . S
C944 C948 1.350 . S
C945 C948 1.463 . S
C945 C950 1.350 . S
C945 N953 1.427 . S
C946 H937 0.930 . S
C946 C944 1.378 . S
C946 C947 1.367 . S
C947 C946 1.367 . S
C947 C949 1.433 . S
C948 C944 1.350 . S
C948 C945 1.463 . S
C948 N952 1.427 . S
C949 H939 0.929 . S
C949 C947 1.433 . S
C949 N952 1.384 . S
C950 H941 0.929 . S
C950 C942 1.378 . S
C950 C945 1.350 . S
C951 H938 0.929 . S
C951 C943 1.433 . S
C951 N953 1.384 . S
N952 C948 1.427 . S
N952 C949 1.384 . S
N953 C945 1.427 . S
N953 C951 1.384 . S
H954 C960 0.930 . S
H955 C964 0.930 . S
H956 C969 0.929 . S
H957 C967 0.929 . S
H958 C962 0.929 . S
H959 C968 0.929 . S
C960 H954 0.930 . S
C960 C961 1.367 . S
C960 C968 1.378 . S
C961 C960 1.367 . S
C961 C969 1.433 . S
C962 H958 0.929 . S
C962 C964 1.378 . S
C962 C966 1.350 . S
C963 C966 1.463 . S
C963 C968 1.350 . S
C963 N971 1.427 . S
C964 H955 0.930 . S
C964 C962 1.378 . S
C964 C965 1.367 . S
C965 C964 1.367 . S
C965 C967 1.433 . S
C966 C962 1.350 . S
C966 C963 1.463 . S
C966 N970 1.427 . S
C967 H957 0.929 . S
C967 C965 1.433 . S
C967 N970 1.384 . S
C968 H959 0.929 . S
C968 C960 1.378 . S
C968 C963 1.350 . S
C969 H956 0.929 . S
C969 C961 1.433 . S
C969 N971 1.384 . S
N970 C966 1.427 . S
N970 C967 1.384 . S
N971 C963 1.427 . S
N971 C969 1.384 . S
H972 C978 0.930 . S
H973 C982 0.930 . S
H974 C987 0.929 . S
H975 C985 0.929 . S
H976 C980 0.929 . S
H977 C986 0.929 . S
C978 H972 0.930 . S
C978 C979 1.367 . S
C978 C986 1.378 . S
C979 C978 1.367 . S
C979 C987 1.433 . S
C980 H976 0.929 . S
C980 C982 1.378 . S
C980 C984 1.350 . S
C981 C984 1.463 . S
C981 C986 1.350 . S
C981 N989 1.427 . S
C982 H973 0.930 . S
C982 C980 1.378 . S
C982 C983 1.367 . S
C983 C982 1.367 . S
C983 C985 1.433 . S
C984 C980 1.350 . S
C984 C981 1.463 . S
C984 N988 1.427 . S
C985 H975 0.929 . S
C985 C983 1.433 . S
C985 N988 1.384 . S
C986 H977 0.929 . S
C986 C978 1.378 . S
C986 C981 1.350 . S
C987 H974 0.929 . S
C987 C979 1.433 . S
C987 N989 1.384 . S
N988 C984 1.427 . S
N988 C985 1.384 . S
N989 C981 1.427 . S
N989 C987 1.384 . S
H990 C996 0.930 . S
H991 C1000 0.930 . S
H992 C1005 0.929 . S
H993 C1003 0.929 . S
H994 C998 0.929 . S
H995 C1004 0.929 . S
C996 H990 0.930 . S
C996 C997 1.367 . S
C996 C1004 1.378 . S
C997 C996 1.367 . S
C997 C1005 1.433 . S
C998 H994 0.929 . S
C998 C1000 1.378 . S
C998 C1002 1.350 . S
C999 C1002 1.463 . S
C999 C1004 1.350 . S
C999 N1007 1.427 . S
C1000 H991 0.930 . S
C1000 C998 1.378 . S
C1000 C1001 1.367 . S
C1001 C1000 1.367 . S
C1001 C1003 1.433 . S
C1002 C998 1.350 . S
C1002 C999 1.463 . S
C1002 N1006 1.427 . S
C1003 H993 0.929 . S
C1003 C1001 1.433 . S
C1003 N1006 1.384 . S
C1004 H995 0.929 . S
C1004 C996 1.378 . S
C1004 C999 1.350 . S
C1005 H992 0.929 . S
C1005 C997 1.433 . S
C1005 N1007 1.384 . S
N1006 C1002 1.427 . S
N1006 C1003 1.384 . S
N1007 C999 1.427 . S
N1007 C1005 1.384 . S
H1008 C1014 0.930 . S
H1009 C1018 0.930 . S
H1010 C1023 0.929 . S
H1011 C1021 0.929 . S
H1012 C1016 0.929 . S
H1013 C1022 0.929 . S
C1014 H1008 0.930 . S
C1014 C1015 1.367 . S
C1014 C1022 1.378 . S
C1015 C1014 1.367 . S
C1015 C1023 1.433 . S
C1016 H1012 0.929 . S
C1016 C1018 1.378 . S
C1016 C1020 1.350 . S
C1017 C1020 1.463 . S
C1017 C1022 1.350 . S
C1017 N1025 1.427 . S
C1018 H1009 0.930 . S
C1018 C1016 1.378 . S
C1018 C1019 1.367 . S
C1019 C1018 1.367 . S
C1019 C1021 1.433 . S
C1020 C1016 1.350 . S
C1020 C1017 1.463 . S
C1020 N1024 1.427 . S
C1021 H1011 0.929 . S
C1021 C1019 1.433 . S
C1021 N1024 1.384 . S
C1022 H1013 0.929 . S
C1022 C1014 1.378 . S
C1022 C1017 1.350 . S
C1023 H1010 0.929 . S
C1023 C1015 1.433 . S
C1023 N1025 1.384 . S
N1024 C1020 1.427 . S
N1024 C1021 1.384 . S
N1025 C1017 1.427 . S
N1025 C1023 1.384 . S
H1026 C1032 0.930 . S
H1027 C1036 0.930 . S
H1028 C1041 0.929 . S
H1029 C1039 0.929 . S
H1030 C1034 0.929 . S
H1031 C1040 0.929 . S
C1032 H1026 0.930 . S
C1032 C1033 1.367 . S
C1032 C1040 1.378 . S
C1033 C1032 1.367 . S
C1033 C1041 1.433 . S
C1034 H1030 0.929 . S
C1034 C1036 1.378 . S
C1034 C1038 1.350 . S
C1035 C1038 1.463 . S
C1035 C1040 1.350 . S
C1035 N1043 1.427 . S
C1036 H1027 0.930 . S
C1036 C1034 1.378 . S
C1036 C1037 1.367 . S
C1037 C1036 1.367 . S
C1037 C1039 1.433 . S
C1038 C1034 1.350 . S
C1038 C1035 1.463 . S
C1038 N1042 1.427 . S
C1039 H1029 0.929 . S
C1039 C1037 1.433 . S
C1039 N1042 1.384 . S
C1040 H1031 0.929 . S
C1040 C1032 1.378 . S
C1040 C1035 1.350 . S
C1041 H1028 0.929 . S
C1041 C1033 1.433 . S
C1041 N1043 1.384 . S
N1042 C1038 1.427 . S
N1042 C1039 1.384 . S
N1043 C1035 1.427 . S
N1043 C1041 1.384 . S
H1044 C1050 0.930 . S
H1045 C1054 0.930 . S
H1046 C1059 0.929 . S
H1047 C1057 0.929 . S
H1048 C1052 0.929 . S
H1049 C1058 0.929 . S
C1050 H1044 0.930 . S
C1050 C1051 1.367 . S
C1050 C1058 1.378 . S
C1051 C1050 1.367 . S
C1051 C1059 1.433 . S
C1052 H1048 0.929 . S
C1052 C1054 1.378 . S
C1052 C1056 1.350 . S
C1053 C1056 1.463 . S
C1053 C1058 1.350 . S
C1053 N1061 1.427 . S
C1054 H1045 0.930 . S
C1054 C1052 1.378 . S
C1054 C1055 1.367 . S
C1055 C1054 1.367 . S
C1055 C1057 1.433 . S
C1056 C1052 1.350 . S
C1056 C1053 1.463 . S
C1056 N1060 1.427 . S
C1057 H1047 0.929 . S
C1057 C1055 1.433 . S
C1057 N1060 1.384 . S
C1058 H1049 0.929 . S
C1058 C1050 1.378 . S
C1058 C1053 1.350 . S
C1059 H1046 0.929 . S
C1059 C1051 1.433 . S
C1059 N1061 1.384 . S
N1060 C1056 1.427 . S
N1060 C1057 1.384 . S
N1061 C1053 1.427 . S
N1061 C1059 1.384 . S
H1062 C1068 0.930 . S
H1063 C1072 0.930 . S
H1064 C1077 0.929 . S
H1065 C1075 0.929 . S
H1066 C1070 0.929 . S
H1067 C1076 0.929 . S
C1068 H1062 0.930 . S
C1068 C1069 1.367 . S
C1068 C1076 1.378 . S
C1069 C1068 1.367 . S
C1069 C1077 1.433 . S
C1070 H1066 0.929 . S
C1070 C1072 1.378 . S
C1070 C1074 1.350 . S
C1071 C1074 1.463 . S
C1071 C1076 1.350 . S
C1071 N1079 1.427 . S
C1072 H1063 0.930 . S
C1072 C1070 1.378 . S
C1072 C1073 1.367 . S
C1073 C1072 1.367 . S
C1073 C1075 1.433 . S
C1074 C1070 1.350 . S
C1074 C1071 1.463 . S
C1074 N1078 1.427 . S
C1075 H1065 0.929 . S
C1075 C1073 1.433 . S
C1075 N1078 1.384 . S
C1076 H1067 0.929 . S
C1076 C1068 1.378 . S
C1076 C1071 1.350 . S
C1077 H1064 0.929 . S
C1077 C1069 1.433 . S
C1077 N1079 1.384 . S
N1078 C1074 1.427 . S
N1078 C1075 1.384 . S
N1079 C1071 1.427 . S
N1079 C1077 1.384 . S
H1080 C1086 0.930 . S
H1081 C1090 0.930 . S
H1082 C1095 0.929 . S
H1083 C1093 0.929 . S
H1084 C1088 0.929 . S
H1085 C1094 0.929 . S
C1086 H1080 0.930 . S
C1086 C1087 1.367 . S
C1086 C1094 1.378 . S
C1087 C1086 1.367 . S
C1087 C1095 1.433 . S
C1088 H1084 0.929 . S
C1088 C1090 1.378 . S
C1088 C1092 1.350 . S
C1089 C1092 1.463 . S
C1089 C1094 1.350 . S
C1089 N1097 1.427 . S
C1090 H1081 0.930 . S
C1090 C1088 1.378 . S
C1090 C1091 1.367 . S
C1091 C1090 1.367 . S
C1091 C1093 1.433 . S
C1092 C1088 1.350 . S
C1092 C1089 1.463 . S
C1092 N1096 1.427 . S
C1093 H1083 0.929 . S
C1093 C1091 1.433 . S
C1093 N1096 1.384 . S
C1094 H1085 0.929 . S
C1094 C1086 1.378 . S
C1094 C1089 1.350 . S
C1095 H1082 0.929 . S
C1095 C1087 1.433 . S
C1095 N1097 1.384 . S
N1096 C1092 1.427 . S
N1096 C1093 1.384 . S
N1097 C1089 1.427 . S
N1097 C1095 1.384 . S
H1098 C1104 0.930 . S
H1099 C1108 0.930 . S
H1100 C1113 0.929 . S
H1101 C1111 0.929 . S
H1102 C1106 0.929 . S
H1103 C1112 0.929 . S
C1104 H1098 0.930 . S
C1104 C1105 1.367 . S
C1104 C1112 1.378 . S
C1105 C1104 1.367 . S
C1105 C1113 1.433 . S
C1106 H1102 0.929 . S
C1106 C1108 1.378 . S
C1106 C1110 1.350 . S
C1107 C1110 1.463 . S
C1107 C1112 1.350 . S
C1107 N1115 1.427 . S
C1108 H1099 0.930 . S
C1108 C1106 1.378 . S
C1108 C1109 1.367 . S
C1109 C1108 1.367 . S
C1109 C1111 1.433 . S
C1110 C1106 1.350 . S
C1110 C1107 1.463 . S
C1110 N1114 1.427 . S
C1111 H1101 0.929 . S
C1111 C1109 1.433 . S
C1111 N1114 1.384 . S
C1112 H1103 0.929 . S
C1112 C1104 1.378 . S
C1112 C1107 1.350 . S
C1113 H1100 0.929 . S
C1113 C1105 1.433 . S
C1113 N1115 1.384 . S
N1114 C1110 1.427 . S
N1114 C1111 1.384 . S
N1115 C1107 1.427 . S
N1115 C1113 1.384 . S
H1116 C1122 0.930 . S
H1117 C1126 0.930 . S
H1118 C1131 0.929 . S
H1119 C1129 0.929 . S
H1120 C1124 0.929 . S
H1121 C1130 0.929 . S
C1122 H1116 0.930 . S
C1122 C1123 1.367 . S
C1122 C1130 1.378 . S
C1123 C1122 1.367 . S
C1123 C1131 1.433 . S
C1124 H1120 0.929 . S
C1124 C1126 1.378 . S
C1124 C1128 1.350 . S
C1125 C1128 1.463 . S
C1125 C1130 1.350 . S
C1125 N1133 1.427 . S
C1126 H1117 0.930 . S
C1126 C1124 1.378 . S
C1126 C1127 1.367 . S
C1127 C1126 1.367 . S
C1127 C1129 1.433 . S
C1128 C1124 1.350 . S
C1128 C1125 1.463 . S
C1128 N1132 1.427 . S
C1129 H1119 0.929 . S
C1129 C1127 1.433 . S
C1129 N1132 1.384 . S
C1130 H1121 0.929 . S
C1130 C1122 1.378 . S
C1130 C1125 1.350 . S
C1131 H1118 0.929 . S
C1131 C1123 1.433 . S
C1131 N1133 1.384 . S
N1132 C1128 1.427 . S
N1132 C1129 1.384 . S
N1133 C1125 1.427 . S
N1133 C1131 1.384 . S
H1134 C1140 0.930 . S
H1135 C1144 0.930 . S
H1136 C1149 0.929 . S
H1137 C1147 0.929 . S
H1138 C1142 0.929 . S
H1139 C1148 0.929 . S
C1140 H1134 0.930 . S
C1140 C1141 1.367 . S
C1140 C1148 1.378 . S
C1141 C1140 1.367 . S
C1141 C1149 1.433 . S
C1142 H1138 0.929 . S
C1142 C1144 1.378 . S
C1142 C1146 1.350 . S
C1143 C1146 1.463 . S
C1143 C1148 1.350 . S
C1143 N1151 1.427 . S
C1144 H1135 0.930 . S
C1144 C1142 1.378 . S
C1144 C1145 1.367 . S
C1145 C1144 1.367 . S
C1145 C1147 1.433 . S
C1146 C1142 1.350 . S
C1146 C1143 1.463 . S
C1146 N1150 1.427 . S
C1147 H1137 0.929 . S
C1147 C1145 1.433 . S
C1147 N1150 1.384 . S
C1148 H1139 0.929 . S
C1148 C1140 1.378 . S
C1148 C1143 1.350 . S
C1149 H1136 0.929 . S
C1149 C1141 1.433 . S
C1149 N1151 1.384 . S
N1150 C1146 1.427 . S
N1150 C1147 1.384 . S
N1151 C1143 1.427 . S
N1151 C1149 1.384 . S
H1152 C1158 0.930 . S
H1153 C1162 0.930 . S
H1154 C1167 0.929 . S
H1155 C1165 0.929 . S
H1156 C1160 0.929 . S
H1157 C1166 0.929 . S
C1158 H1152 0.930 . S
C1158 C1159 1.367 . S
C1158 C1166 1.378 . S
C1159 C1158 1.367 . S
C1159 C1167 1.433 . S
C1160 H1156 0.929 . S
C1160 C1162 1.378 . S
C1160 C1164 1.350 . S
C1161 C1164 1.463 . S
C1161 C1166 1.350 . S
C1161 N1169 1.427 . S
C1162 H1153 0.930 . S
C1162 C1160 1.378 . S
C1162 C1163 1.367 . S
C1163 C1162 1.367 . S
C1163 C1165 1.433 . S
C1164 C1160 1.350 . S
C1164 C1161 1.463 . S
C1164 N1168 1.427 . S
C1165 H1155 0.929 . S
C1165 C1163 1.433 . S
C1165 N1168 1.384 . S
C1166 H1157 0.929 . S
C1166 C1158 1.378 . S
C1166 C1161 1.350 . S
C1167 H1154 0.929 . S
C1167 C1159 1.433 . S
C1167 N1169 1.384 . S
N1168 C1164 1.427 . S
N1168 C1165 1.384 . S
N1169 C1161 1.427 . S
N1169 C1167 1.384 . S
H1170 C1176 0.930 . S
H1171 C1180 0.930 . S
H1172 C1185 0.929 . S
H1173 C1183 0.929 . S
H1174 C1178 0.929 . S
H1175 C1184 0.929 . S
C1176 H1170 0.930 . S
C1176 C1177 1.367 . S
C1176 C1184 1.378 . S
C1177 C1176 1.367 . S
C1177 C1185 1.433 . S
C1178 H1174 0.929 . S
C1178 C1180 1.378 . S
C1178 C1182 1.350 . S
C1179 C1182 1.463 . S
C1179 C1184 1.350 . S
C1179 N1187 1.427 . S
C1180 H1171 0.930 . S
C1180 C1178 1.378 . S
C1180 C1181 1.367 . S
C1181 C1180 1.367 . S
C1181 C1183 1.433 . S
C1182 C1178 1.350 . S
C1182 C1179 1.463 . S
C1182 N1186 1.427 . S
C1183 H1173 0.929 . S
C1183 C1181 1.433 . S
C1183 N1186 1.384 . S
C1184 H1175 0.929 . S
C1184 C1176 1.378 . S
C1184 C1179 1.350 . S
C1185 H1172 0.929 . S
C1185 C1177 1.433 . S
C1185 N1187 1.384 . S
N1186 C1182 1.427 . S
N1186 C1183 1.384 . S
N1187 C1179 1.427 . S
N1187 C1185 1.384 . S
H1188 C1194 0.930 . S
H1189 C1198 0.930 . S
H1190 C1203 0.929 . S
H1191 C1201 0.929 . S
H1192 C1196 0.929 . S
H1193 C1202 0.929 . S
C1194 H1188 0.930 . S
C1194 C1195 1.367 . S
C1194 C1202 1.378 . S
C1195 C1194 1.367 . S
C1195 C1203 1.433 . S
C1196 H1192 0.929 . S
C1196 C1198 1.378 . S
C1196 C1200 1.350 . S
C1197 C1200 1.463 . S
C1197 C1202 1.350 . S
C1197 N1205 1.427 . S
C1198 H1189 0.930 . S
C1198 C1196 1.378 . S
C1198 C1199 1.367 . S
C1199 C1198 1.367 . S
C1199 C1201 1.433 . S
C1200 C1196 1.350 . S
C1200 C1197 1.463 . S
C1200 N1204 1.427 . S
C1201 H1191 0.929 . S
C1201 C1199 1.433 . S
C1201 N1204 1.384 . S
C1202 H1193 0.929 . S
C1202 C1194 1.378 . S
C1202 C1197 1.350 . S
C1203 H1190 0.929 . S
C1203 C1195 1.433 . S
C1203 N1205 1.384 . S
N1204 C1200 1.427 . S
N1204 C1201 1.384 . S
N1205 C1197 1.427 . S
N1205 C1203 1.384 . S
H1206 C1212 0.930 . S
H1207 C1216 0.930 . S
H1208 C1221 0.929 . S
H1209 C1219 0.929 . S
H1210 C1214 0.929 . S
H1211 C1220 0.929 . S
C1212 H1206 0.930 . S
C1212 C1213 1.367 . S
C1212 C1220 1.378 . S
C1213 C1212 1.367 . S
C1213 C1221 1.433 . S
C1214 H1210 0.929 . S
C1214 C1216 1.378 . S
C1214 C1218 1.350 . S
C1215 C1218 1.463 . S
C1215 C1220 1.350 . S
C1215 N1223 1.427 . S
C1216 H1207 0.930 . S
C1216 C1214 1.378 . S
C1216 C1217 1.367 . S
C1217 C1216 1.367 . S
C1217 C1219 1.433 . S
C1218 C1214 1.350 . S
C1218 C1215 1.463 . S
C1218 N1222 1.427 . S
C1219 H1209 0.929 . S
C1219 C1217 1.433 . S
C1219 N1222 1.384 . S
C1220 H1211 0.929 . S
C1220 C1212 1.378 . S
C1220 C1215 1.350 . S
C1221 H1208 0.929 . S
C1221 C1213 1.433 . S
C1221 N1223 1.384 . S
N1222 C1218 1.427 . S
N1222 C1219 1.384 . S
N1223 C1215 1.427 . S
N1223 C1221 1.384 . S
H1224 C1230 0.930 . S
H1225 C1234 0.930 . S
H1226 C1239 0.929 1_556 S
H1227 C1237 0.929 . S
H1228 C1232 0.929 . S
H1229 C1238 0.929 . S
C1230 H1224 0.930 . S
C1230 C1231 1.367 . S
C1230 C1238 1.378 . S
C1231 C1230 1.367 . S
C1231 C1239 1.433 . S
C1232 H1228 0.929 . S
C1232 C1234 1.378 . S
C1232 C1236 1.350 . S
C1233 C1236 1.463 . S
C1233 C1238 1.350 . S
C1233 N1241 1.427 . S
C1234 H1225 0.930 . S
C1234 C1232 1.378 . S
C1234 C1235 1.367 . S
C1235 C1234 1.367 . S
C1235 C1237 1.433 . S
C1236 C1232 1.350 . S
C1236 C1233 1.463 . S
C1236 N1240 1.427 . S
C1237 H1227 0.929 . S
C1237 C1235 1.433 . S
C1237 N1240 1.384 . S
C1238 H1229 0.929 . S
C1238 C1230 1.378 . S
C1238 C1233 1.350 . S
C1239 H1226 0.929 1_554 S
C1239 C1231 1.433 . S
C1239 N1241 1.384 . S
N1240 C1236 1.427 . S
N1240 C1237 1.384 . S
N1241 C1233 1.427 . S
N1241 C1239 1.384 . S
H1242 C1248 0.920 1_556 S
H1243 C1252 0.930 . S
H1244 C1257 0.929 . S
H1245 C1255 0.929 . S
H1246 C1250 0.929 . S
H1247 C1256 0.929 . S
C1248 H1242 0.920 1_554 S
C1248 C1249 1.367 . S
C1248 C1256 1.378 . S
C1249 C1248 1.367 . S
C1249 C1257 1.433 . S
C1250 H1246 0.929 . S
C1250 C1252 1.378 . S
C1250 C1254 1.350 . S
C1251 C1254 1.463 . S
C1251 C1256 1.350 . S
C1251 N1259 1.427 . S
C1252 H1243 0.930 . S
C1252 C1250 1.378 . S
C1252 C1253 1.367 . S
C1253 C1252 1.367 . S
C1253 C1255 1.433 . S
C1254 C1250 1.350 . S
C1254 C1251 1.463 . S
C1254 N1258 1.427 . S
C1255 H1245 0.929 . S
C1255 C1253 1.433 . S
C1255 N1258 1.384 . S
C1256 H1247 0.929 . S
C1256 C1248 1.378 . S
C1256 C1251 1.350 . S
C1257 H1244 0.929 . S
C1257 C1249 1.433 . S
C1257 N1259 1.384 . S
N1258 C1254 1.427 . S
N1258 C1255 1.384 . S
N1259 C1251 1.427 . S
N1259 C1257 1.384 . S
H1260 C1266 0.963 . S
H1261 C1270 0.930 . S
H1262 C1275 0.929 . S
H1263 C1273 0.929 . S
H1264 C1268 0.929 . S
H1265 C1274 0.929 . S
C1266 H1260 0.963 . S
C1266 C1267 1.367 . S
C1266 C1274 1.378 . S
C1267 C1266 1.367 . S
C1267 C1275 1.433 . S
C1268 H1264 0.929 . S
C1268 C1270 1.378 . S
C1268 C1272 1.350 . S
C1269 C1272 1.463 . S
C1269 C1274 1.350 . S
C1269 N1277 1.427 . S
C1270 H1261 0.930 . S
C1270 C1268 1.378 . S
C1270 C1271 1.367 . S
C1271 C1270 1.367 . S
C1271 C1273 1.433 . S
C1272 C1268 1.350 . S
C1272 C1269 1.463 . S
C1272 N1276 1.427 . S
C1273 H1263 0.929 . S
C1273 C1271 1.433 . S
C1273 N1276 1.384 . S
C1274 H1265 0.929 . S
C1274 C1266 1.378 . S
C1274 C1269 1.350 . S
C1275 H1262 0.929 . S
C1275 C1267 1.433 . S
C1275 N1277 1.384 . S
N1276 C1272 1.427 . S
N1276 C1273 1.384 . S
N1277 C1269 1.427 . S
N1277 C1275 1.384 . S
H1278 C1284 0.930 . S
H1279 C1288 0.930 . S
H1280 C1293 0.929 . S
H1281 C1291 0.929 . S
H1282 C1286 0.929 . S
H1283 C1292 0.929 1_554 S
C1284 H1278 0.930 . S
C1284 C1285 1.367 1_554 S
C1284 C1292 1.378 1_554 S
C1285 C1284 1.367 1_556 S
C1285 C1293 1.433 . S
C1286 H1282 0.929 . S
C1286 C1288 1.378 . S
C1286 C1290 1.350 . S
C1287 C1290 1.463 . S
C1287 C1292 1.350 . S
C1287 N1295 1.427 . S
C1288 H1279 0.930 . S
C1288 C1286 1.378 . S
C1288 C1289 1.367 . S
C1289 C1288 1.367 . S
C1289 C1291 1.433 . S
C1290 C1286 1.350 . S
C1290 C1287 1.463 . S
C1290 N1294 1.427 . S
C1291 H1281 0.929 . S
C1291 C1289 1.433 . S
C1291 N1294 1.384 . S
C1292 H1283 0.929 1_556 S
C1292 C1284 1.378 1_556 S
C1292 C1287 1.350 . S
C1293 H1280 0.929 . S
C1293 C1285 1.433 . S
C1293 N1295 1.384 . S
N1294 C1290 1.427 . S
N1294 C1291 1.384 . S
N1295 C1287 1.427 . S
N1295 C1293 1.384 . S
H1296 C1302 0.930 . S
H1297 C1306 0.930 . S
H1298 C1311 0.929 . S
H1299 C1309 0.929 . S
H1300 C1304 0.929 . S
H1301 C1310 0.929 1_554 S
C1302 H1296 0.930 . S
C1302 C1303 1.367 1_554 S
C1302 C1310 1.378 1_554 S
C1303 C1302 1.367 1_556 S
C1303 C1311 1.433 . S
C1304 H1300 0.929 . S
C1304 C1306 1.378 . S
C1304 C1308 1.350 . S
C1305 C1308 1.463 . S
C1305 C1310 1.350 . S
C1305 N1313 1.427 . S
C1306 H1297 0.930 . S
C1306 C1304 1.378 . S
C1306 C1307 1.367 . S
C1307 C1306 1.367 . S
C1307 C1309 1.433 . S
C1308 C1304 1.350 . S
C1308 C1305 1.463 . S
C1308 N1312 1.427 . S
C1309 H1299 0.929 . S
C1309 C1307 1.433 . S
C1309 N1312 1.384 . S
C1310 H1301 0.929 1_556 S
C1310 C1302 1.378 1_556 S
C1310 C1305 1.350 . S
C1311 H1298 0.929 . S
C1311 C1303 1.433 . S
C1311 N1313 1.384 . S
N1312 C1308 1.427 . S
N1312 C1309 1.384 . S
N1313 C1305 1.427 . S
N1313 C1311 1.384 . S
H1314 C1320 0.929 . S
H1315 C1324 0.930 . S
H1316 C1329 0.929 . S
H1317 C1327 0.929 . S
H1318 C1322 0.929 . S
H1319 C1328 0.929 . S
C1320 H1314 0.929 . S
C1320 C1321 1.367 . S
C1320 C1328 1.378 . S
C1321 C1320 1.367 . S
C1321 C1329 1.433 . S
C1322 H1318 0.929 . S
C1322 C1324 1.378 . S
C1322 C1326 1.350 . S
C1323 C1326 1.463 . S
C1323 C1328 1.350 . S
C1323 N1331 1.427 . S
C1324 H1315 0.930 . S
C1324 C1322 1.378 . S
C1324 C1325 1.367 . S
C1325 C1324 1.367 . S
C1325 C1327 1.433 . S
C1326 C1322 1.350 . S
C1326 C1323 1.463 . S
C1326 N1330 1.427 . S
C1327 H1317 0.929 . S
C1327 C1325 1.433 . S
C1327 N1330 1.384 . S
C1328 H1319 0.929 . S
C1328 C1320 1.378 . S
C1328 C1323 1.350 . S
C1329 H1316 0.929 . S
C1329 C1321 1.433 . S
C1329 N1331 1.384 . S
N1330 C1326 1.427 . S
N1330 C1327 1.384 . S
N1331 C1323 1.427 . S
N1331 C1329 1.384 . S
H1332 C1338 0.965 . S
H1333 C1342 0.930 . S
H1334 C1347 0.929 . S
H1335 C1345 0.929 . S
H1336 C1340 0.929 . S
H1337 C1346 0.910 1_554 S
C1338 H1332 0.965 . S
C1338 C1339 1.346 1_554 S
C1338 C1346 1.365 1_554 S
C1339 C1338 1.346 1_556 S
C1339 C1347 1.433 . S
C1340 H1336 0.929 . S
C1340 C1342 1.378 . S
C1340 C1344 1.350 . S
C1341 C1344 1.463 . S
C1341 C1346 1.350 . S
C1341 N1349 1.427 . S
C1342 H1333 0.930 . S
C1342 C1340 1.378 . S
C1342 C1343 1.367 . S
C1343 C1342 1.367 . S
C1343 C1345 1.433 . S
C1344 C1340 1.350 . S
C1344 C1341 1.463 . S
C1344 N1348 1.427 . S
C1345 H1335 0.929 . S
C1345 C1343 1.433 . S
C1345 N1348 1.384 . S
C1346 H1337 0.910 1_556 S
C1346 C1338 1.365 1_556 S
C1346 C1341 1.350 . S
C1347 H1334 0.929 . S
C1347 C1339 1.433 . S
C1347 N1349 1.384 . S
N1348 C1344 1.427 . S
N1348 C1345 1.384 . S
N1349 C1341 1.427 . S
N1349 C1347 1.384 . S
H1350 C1356 0.930 . S
H1351 C1360 0.930 . S
H1352 C1365 0.929 . S
H1353 C1363 0.929 . S
H1354 C1358 0.929 . S
H1355 C1364 0.929 1_554 S
C1356 H1350 0.930 . S
C1356 C1357 1.367 1_554 S
C1356 C1364 1.378 1_554 S
C1357 C1356 1.367 1_556 S
C1357 C1365 1.433 . S
C1358 H1354 0.929 . S
C1358 C1360 1.378 . S
C1358 C1362 1.350 . S
C1359 C1362 1.463 . S
C1359 C1364 1.350 . S
C1359 N1367 1.427 . S
C1360 H1351 0.930 . S
C1360 C1358 1.378 . S
C1360 C1361 1.367 . S
C1361 C1360 1.367 . S
C1361 C1363 1.433 . S
C1362 C1358 1.350 . S
C1362 C1359 1.463 . S
C1362 N1366 1.427 . S
C1363 H1353 0.929 . S
C1363 C1361 1.433 . S
C1363 N1366 1.384 . S
C1364 H1355 0.929 1_556 S
C1364 C1356 1.378 1_556 S
C1364 C1359 1.350 . S
C1365 H1352 0.929 . S
C1365 C1357 1.433 . S
C1365 N1367 1.384 . S
N1366 C1362 1.427 . S
N1366 C1363 1.384 . S
N1367 C1359 1.427 . S
N1367 C1365 1.384 . S
H1368 C1374 0.930 . S
H1369 C1378 0.930 . S
H1370 C1383 0.929 . S
H1371 C1381 0.929 . S
H1372 C1376 0.929 . S
H1373 C1382 0.929 1_554 S
C1374 H1368 0.930 . S
C1374 C1375 1.367 1_554 S
C1374 C1382 1.378 1_554 S
C1375 C1374 1.367 1_556 S
C1375 C1383 1.433 . S
C1376 H1372 0.929 . S
C1376 C1378 1.378 . S
C1376 C1380 1.350 . S
C1377 C1380 1.463 . S
C1377 C1382 1.350 . S
C1377 N1385 1.427 . S
C1378 H1369 0.930 . S
C1378 C1376 1.378 . S
C1378 C1379 1.367 . S
C1379 C1378 1.367 . S
C1379 C1381 1.433 . S
C1380 C1376 1.350 . S
C1380 C1377 1.463 . S
C1380 N1384 1.427 . S
C1381 H1371 0.929 . S
C1381 C1379 1.433 . S
C1381 N1384 1.384 . S
C1382 H1373 0.929 1_556 S
C1382 C1374 1.378 1_556 S
C1382 C1377 1.350 . S
C1383 H1370 0.929 . S
C1383 C1375 1.433 . S
C1383 N1385 1.384 . S
N1384 C1380 1.427 . S
N1384 C1381 1.384 . S
N1385 C1377 1.427 . S
N1385 C1383 1.384 . S
H1386 C1392 0.930 1_556 S
H1387 C1396 0.930 . S
H1388 C1401 0.929 . S
H1389 C1399 0.929 . S
H1390 C1394 0.929 . S
H1391 C1400 0.929 . S
C1392 H1386 0.930 1_554 S
C1392 C1393 1.367 . S
C1392 C1400 1.378 . S
C1393 C1392 1.367 . S
C1393 C1401 1.433 . S
C1394 H1390 0.929 . S
C1394 C1396 1.378 . S
C1394 C1398 1.350 . S
C1395 C1398 1.463 . S
C1395 C1400 1.350 . S
C1395 N1403 1.427 . S
C1396 H1387 0.930 . S
C1396 C1394 1.378 . S
C1396 C1397 1.367 . S
C1397 C1396 1.367 . S
C1397 C1399 1.433 . S
C1398 C1394 1.350 . S
C1398 C1395 1.463 . S
C1398 N1402 1.427 . S
C1399 H1389 0.929 . S
C1399 C1397 1.433 . S
C1399 N1402 1.384 . S
C1400 H1391 0.929 . S
C1400 C1392 1.378 . S
C1400 C1395 1.350 . S
C1401 H1388 0.929 . S
C1401 C1393 1.433 . S
C1401 N1403 1.384 . S
N1402 C1398 1.427 . S
N1402 C1399 1.384 . S
N1403 C1395 1.427 . S
N1403 C1401 1.384 . S
H1404 C1410 0.930 . S
H1405 C1414 0.930 . S
H1406 C1419 0.929 1_556 S
H1407 C1417 0.929 . S
H1408 C1412 0.929 . S
H1409 C1418 0.929 . S
C1410 H1404 0.930 . S
C1410 C1411 1.367 . S
C1410 C1418 1.378 . S
C1411 C1410 1.367 . S
C1411 C1419 1.433 . S
C1412 H1408 0.929 . S
C1412 C1414 1.378 . S
C1412 C1416 1.350 . S
C1413 C1416 1.463 . S
C1413 C1418 1.350 . S
C1413 N1421 1.427 . S
C1414 H1405 0.930 . S
C1414 C1412 1.378 . S
C1414 C1415 1.367 . S
C1415 C1414 1.367 . S
C1415 C1417 1.433 . S
C1416 C1412 1.350 . S
C1416 C1413 1.463 . S
C1416 N1420 1.427 . S
C1417 H1407 0.929 . S
C1417 C1415 1.433 . S
C1417 N1420 1.384 . S
C1418 H1409 0.929 . S
C1418 C1410 1.378 . S
C1418 C1413 1.350 . S
C1419 H1406 0.929 1_554 S
C1419 C1411 1.433 . S
C1419 N1421 1.384 . S
N1420 C1416 1.427 . S
N1420 C1417 1.384 . S
N1421 C1413 1.427 . S
N1421 C1419 1.384 . S
H1422 C1428 0.930 . S
H1423 C1432 0.930 . S
H1424 C1437 0.929 . S
H1425 C1435 0.929 . S
H1426 C1430 0.929 . S
H1427 C1436 0.929 . S
C1428 H1422 0.930 . S
C1428 C1429 1.367 . S
C1428 C1436 1.378 . S
C1429 C1428 1.367 . S
C1429 C1437 1.433 . S
C1430 H1426 0.929 . S
C1430 C1432 1.378 . S
C1430 C1434 1.350 . S
C1431 C1434 1.463 . S
C1431 C1436 1.350 . S
C1431 N1439 1.427 . S
C1432 H1423 0.930 . S
C1432 C1430 1.378 . S
C1432 C1433 1.367 . S
C1433 C1432 1.367 . S
C1433 C1435 1.433 . S
C1434 C1430 1.350 . S
C1434 C1431 1.463 . S
C1434 N1438 1.427 . S
C1435 H1425 0.929 . S
C1435 C1433 1.433 . S
C1435 N1438 1.384 . S
C1436 H1427 0.929 . S
C1436 C1428 1.378 . S
C1436 C1431 1.350 . S
C1437 H1424 0.929 . S
C1437 C1429 1.433 . S
C1437 N1439 1.384 . S
N1438 C1434 1.427 . S
N1438 C1435 1.384 . S
N1439 C1431 1.427 . S
N1439 C1437 1.384 . S
H1440 C1446 0.930 . S
H1441 C1450 0.930 . S
H1442 C1455 0.929 . S
H1443 C1453 0.929 . S
H1444 C1448 0.929 . S
H1445 C1454 0.929 . S
C1446 H1440 0.930 . S
C1446 C1447 1.367 . S
C1446 C1454 1.378 . S
C1447 C1446 1.367 . S
C1447 C1455 1.433 . S
C1448 H1444 0.929 . S
C1448 C1450 1.378 . S
C1448 C1452 1.350 . S
C1449 C1452 1.463 . S
C1449 C1454 1.350 . S
C1449 N1457 1.427 . S
C1450 H1441 0.930 . S
C1450 C1448 1.378 . S
C1450 C1451 1.367 . S
C1451 C1450 1.367 . S
C1451 C1453 1.433 . S
C1452 C1448 1.350 . S
C1452 C1449 1.463 . S
C1452 N1456 1.427 . S
C1453 H1443 0.929 . S
C1453 C1451 1.433 . S
C1453 N1456 1.384 . S
C1454 H1445 0.929 . S
C1454 C1446 1.378 . S
C1454 C1449 1.350 . S
C1455 H1442 0.929 . S
C1455 C1447 1.433 . S
C1455 N1457 1.384 . S
N1456 C1452 1.427 . S
N1456 C1453 1.384 . S
N1457 C1449 1.427 . S
N1457 C1455 1.384 . S
H1458 C1464 0.930 . S
H1459 C1468 0.930 . S
H1460 C1473 0.929 . S
H1461 C1471 0.929 . S
H1462 C1466 0.929 . S
H1463 C1472 0.929 . S
C1464 H1458 0.930 . S
C1464 C1465 1.367 . S
C1464 C1472 1.378 . S
C1465 C1464 1.367 . S
C1465 C1473 1.433 . S
C1466 H1462 0.929 . S
C1466 C1468 1.378 . S
C1466 C1470 1.350 . S
C1467 C1470 1.463 . S
C1467 C1472 1.350 . S
C1467 N1475 1.427 . S
C1468 H1459 0.930 . S
C1468 C1466 1.378 . S
C1468 C1469 1.367 . S
C1469 C1468 1.367 . S
C1469 C1471 1.433 . S
C1470 C1466 1.350 . S
C1470 C1467 1.463 . S
C1470 N1474 1.427 . S
C1471 H1461 0.929 . S
C1471 C1469 1.433 . S
C1471 N1474 1.384 . S
C1472 H1463 0.929 . S
C1472 C1464 1.378 . S
C1472 C1467 1.350 . S
C1473 H1460 0.929 . S
C1473 C1465 1.433 . S
C1473 N1475 1.384 . S
N1474 C1470 1.427 . S
N1474 C1471 1.384 . S
N1475 C1467 1.427 . S
N1475 C1473 1.384 . S
H1476 C1482 0.930 . S
H1477 C1486 0.930 . S
H1478 C1491 0.929 . S
H1479 C1489 0.929 . S
H1480 C1484 0.929 . S
H1481 C1490 0.929 . S
C1482 H1476 0.930 . S
C1482 C1483 1.367 . S
C1482 C1490 1.378 . S
C1483 C1482 1.367 . S
C1483 C1491 1.433 . S
C1484 H1480 0.929 . S
C1484 C1486 1.378 . S
C1484 C1488 1.350 . S
C1485 C1488 1.463 . S
C1485 C1490 1.350 . S
C1485 N1493 1.427 . S
C1486 H1477 0.930 . S
C1486 C1484 1.378 . S
C1486 C1487 1.367 . S
C1487 C1486 1.367 . S
C1487 C1489 1.433 . S
C1488 C1484 1.350 . S
C1488 C1485 1.463 . S
C1488 N1492 1.427 . S
C1489 H1479 0.929 . S
C1489 C1487 1.433 . S
C1489 N1492 1.384 . S
C1490 H1481 0.929 . S
C1490 C1482 1.378 . S
C1490 C1485 1.350 . S
C1491 H1478 0.929 . S
C1491 C1483 1.433 . S
C1491 N1493 1.384 . S
N1492 C1488 1.427 . S
N1492 C1489 1.384 . S
N1493 C1485 1.427 . S
N1493 C1491 1.384 . S
H1494 C1500 0.923 1_655 S
H1495 C1504 0.930 . S
H1496 C1509 0.929 . S
H1497 C1507 0.929 . S
H1498 C1502 0.929 . S
H1499 C1508 0.929 . S
C1500 H1494 0.923 1_455 S
C1500 C1501 1.393 . S
C1500 C1508 1.361 1_455 S
C1501 C1500 1.393 . S
C1501 C1509 1.433 . S
C1502 H1498 0.929 . S
C1502 C1504 1.378 . S
C1502 C1506 1.350 . S
C1503 C1506 1.463 . S
C1503 C1508 1.350 1_455 S
C1503 N1511 1.427 . S
C1504 H1495 0.930 . S
C1504 C1502 1.378 . S
C1504 C1505 1.367 . S
C1505 C1504 1.367 . S
C1505 C1507 1.433 1_455 S
C1506 C1502 1.350 . S
C1506 C1503 1.463 . S
C1506 N1510 1.427 1_455 S
C1507 H1497 0.929 . S
C1507 C1505 1.433 1_655 S
C1507 N1510 1.384 . S
C1508 H1499 0.929 . S
C1508 C1500 1.361 1_655 S
C1508 C1503 1.350 1_655 S
C1509 H1496 0.929 . S
C1509 C1501 1.433 . S
C1509 N1511 1.384 . S
N1510 C1506 1.427 1_655 S
N1510 C1507 1.384 . S
N1511 C1503 1.427 . S
N1511 C1509 1.384 . S
H1512 C1518 0.930 . S
H1513 C1522 0.930 . S
H1514 C1527 0.929 . S
H1515 C1525 0.929 . S
H1516 C1520 0.929 . S
H1517 C1526 0.929 . S
C1518 H1512 0.930 . S
C1518 C1519 1.367 . S
C1518 C1526 1.378 . S
C1519 C1518 1.367 . S
C1519 C1527 1.433 . S
C1520 H1516 0.929 . S
C1520 C1522 1.378 . S
C1520 C1524 1.350 . S
C1521 C1524 1.463 . S
C1521 C1526 1.350 . S
C1521 N1529 1.427 . S
C1522 H1513 0.930 . S
C1522 C1520 1.378 . S
C1522 C1523 1.367 . S
C1523 C1522 1.367 . S
C1523 C1525 1.433 . S
C1524 C1520 1.350 . S
C1524 C1521 1.463 . S
C1524 N1528 1.427 . S
C1525 H1515 0.929 . S
C1525 C1523 1.433 . S
C1525 N1528 1.384 . S
C1526 H1517 0.929 . S
C1526 C1518 1.378 . S
C1526 C1521 1.350 . S
C1527 H1514 0.929 . S
C1527 C1519 1.433 . S
C1527 N1529 1.384 . S
N1528 C1524 1.427 . S
N1528 C1525 1.384 . S
N1529 C1521 1.427 . S
N1529 C1527 1.384 . S
H1530 C1536 0.930 . S
H1531 C1540 0.930 . S
H1532 C1545 0.929 . S
H1533 C1543 0.929 . S
H1534 C1538 0.929 . S
H1535 C1544 0.929 . S
C1536 H1530 0.930 . S
C1536 C1537 1.367 . S
C1536 C1544 1.378 . S
C1537 C1536 1.367 . S
C1537 C1545 1.433 . S
C1538 H1534 0.929 . S
C1538 C1540 1.378 . S
C1538 C1542 1.350 . S
C1539 C1542 1.463 . S
C1539 C1544 1.350 . S
C1539 N1547 1.427 . S
C1540 H1531 0.930 . S
C1540 C1538 1.378 . S
C1540 C1541 1.367 . S
C1541 C1540 1.367 . S
C1541 C1543 1.433 . S
C1542 C1538 1.350 . S
C1542 C1539 1.463 . S
C1542 N1546 1.427 . S
C1543 H1533 0.929 . S
C1543 C1541 1.433 . S
C1543 N1546 1.384 . S
C1544 H1535 0.929 . S
C1544 C1536 1.378 . S
C1544 C1539 1.350 . S
C1545 H1532 0.929 . S
C1545 C1537 1.433 . S
C1545 N1547 1.384 . S
N1546 C1542 1.427 . S
N1546 C1543 1.384 . S
N1547 C1539 1.427 . S
N1547 C1545 1.384 . S
H1548 C1554 0.930 . S
H1549 C1558 0.930 . S
H1550 C1563 0.929 . S
H1551 C1561 0.929 . S
H1552 C1556 0.929 . S
H1553 C1562 0.929 . S
C1554 H1548 0.930 . S
C1554 C1555 1.367 1_545 S
C1554 C1562 1.378 . S
C1555 C1554 1.367 1_565 S
C1555 C1563 1.433 . S
C1556 H1552 0.929 . S
C1556 C1558 1.378 . S
C1556 C1560 1.350 . S
C1557 C1560 1.463 . S
C1557 C1562 1.350 1_565 S
C1557 N1565 1.427 . S
C1558 H1549 0.930 . S
C1558 C1556 1.378 . S
C1558 C1559 1.367 . S
C1559 C1558 1.367 . S
C1559 C1561 1.433 1_565 S
C1560 C1556 1.350 . S
C1560 C1557 1.463 . S
C1560 N1564 1.427 1_565 S
C1561 H1551 0.929 . S
C1561 C1559 1.433 1_545 S
C1561 N1564 1.384 . S
C1562 H1553 0.929 . S
C1562 C1554 1.378 . S
C1562 C1557 1.350 1_545 S
C1563 H1550 0.929 . S
C1563 C1555 1.433 . S
C1563 N1565 1.384 . S
N1564 C1560 1.427 1_545 S
N1564 C1561 1.384 . S
N1565 C1557 1.427 . S
N1565 C1563 1.384 . S
H1566 C1572 0.930 1_655 S
H1567 C1576 0.930 . S
H1568 C1581 0.929 . S
H1569 C1579 0.929 . S
H1570 C1574 0.929 . S
H1571 C1580 0.929 . S
C1572 H1566 0.930 1_455 S
C1572 C1573 1.367 . S
C1572 C1580 1.378 1_455 S
C1573 C1572 1.367 . S
C1573 C1581 1.433 . S
C1574 H1570 0.929 . S
C1574 C1576 1.378 . S
C1574 C1578 1.350 . S
C1575 C1578 1.463 . S
C1575 C1580 1.350 1_455 S
C1575 N1583 1.427 . S
C1576 H1567 0.930 . S
C1576 C1574 1.378 . S
C1576 C1577 1.367 . S
C1577 C1576 1.367 . S
C1577 C1579 1.433 1_455 S
C1578 C1574 1.350 . S
C1578 C1575 1.463 . S
C1578 N1582 1.427 1_455 S
C1579 H1569 0.929 . S
C1579 C1577 1.433 1_655 S
C1579 N1582 1.384 . S
C1580 H1571 0.929 . S
C1580 C1572 1.378 1_655 S
C1580 C1575 1.350 1_655 S
C1581 H1568 0.929 . S
C1581 C1573 1.433 . S
C1581 N1583 1.384 . S
N1582 C1578 1.427 1_655 S
N1582 C1579 1.384 . S
N1583 C1575 1.427 . S
N1583 C1581 1.384 . S
H1584 C1590 0.930 . S
H1585 C1594 0.930 . S
H1586 C1599 0.929 . S
H1587 C1597 0.929 . S
H1588 C1592 0.929 . S
H1589 C1598 0.929 . S
C1590 H1584 0.930 . S
C1590 C1591 1.367 . S
C1590 C1598 1.378 . S
C1591 C1590 1.367 . S
C1591 C1599 1.433 . S
C1592 H1588 0.929 . S
C1592 C1594 1.378 . S
C1592 C1596 1.350 . S
C1593 C1596 1.463 . S
C1593 C1598 1.350 . S
C1593 N1601 1.427 . S
C1594 H1585 0.930 . S
C1594 C1592 1.378 . S
C1594 C1595 1.367 . S
C1595 C1594 1.367 . S
C1595 C1597 1.433 . S
C1596 C1592 1.350 . S
C1596 C1593 1.463 . S
C1596 N1600 1.427 . S
C1597 H1587 0.929 . S
C1597 C1595 1.433 . S
C1597 N1600 1.384 . S
C1598 H1589 0.929 . S
C1598 C1590 1.378 . S
C1598 C1593 1.350 . S
C1599 H1586 0.929 . S
C1599 C1591 1.433 . S
C1599 N1601 1.384 . S
N1600 C1596 1.427 . S
N1600 C1597 1.384 . S
N1601 C1593 1.427 . S
N1601 C1599 1.384 . S
H1602 C1608 0.930 . S
H1603 C1612 0.930 . S
H1604 C1617 0.929 . S
H1605 C1615 0.929 . S
H1606 C1610 0.929 . S
H1607 C1616 0.929 . S
C1608 H1602 0.930 . S
C1608 C1609 1.367 . S
C1608 C1616 1.378 . S
C1609 C1608 1.367 . S
C1609 C1617 1.433 . S
C1610 H1606 0.929 . S
C1610 C1612 1.378 . S
C1610 C1614 1.350 . S
C1611 C1614 1.463 . S
C1611 C1616 1.350 . S
C1611 N1619 1.427 . S
C1612 H1603 0.930 . S
C1612 C1610 1.378 . S
C1612 C1613 1.367 . S
C1613 C1612 1.367 . S
C1613 C1615 1.433 . S
C1614 C1610 1.350 . S
C1614 C1611 1.463 . S
C1614 N1618 1.427 . S
C1615 H1605 0.929 . S
C1615 C1613 1.433 . S
C1615 N1618 1.384 . S
C1616 H1607 0.929 . S
C1616 C1608 1.378 . S
C1616 C1611 1.350 . S
C1617 H1604 0.929 . S
C1617 C1609 1.433 . S
C1617 N1619 1.384 . S
N1618 C1614 1.427 . S
N1618 C1615 1.384 . S
N1619 C1611 1.427 . S
N1619 C1617 1.384 . S
H1620 C1626 0.930 . S
H1621 C1630 0.930 . S
H1622 C1635 0.929 . S
H1623 C1633 0.929 . S
H1624 C1628 0.929 . S
H1625 C1634 0.929 . S
C1626 H1620 0.930 . S
C1626 C1627 1.367 . S
C1626 C1634 1.378 . S
C1627 C1626 1.367 . S
C1627 C1635 1.433 . S
C1628 H1624 0.929 . S
C1628 C1630 1.378 . S
C1628 C1632 1.350 . S
C1629 C1632 1.463 . S
C1629 C1634 1.350 . S
C1629 N1637 1.427 . S
C1630 H1621 0.930 . S
C1630 C1628 1.378 . S
C1630 C1631 1.367 . S
C1631 C1630 1.367 . S
C1631 C1633 1.433 . S
C1632 C1628 1.350 . S
C1632 C1629 1.463 . S
C1632 N1636 1.427 . S
C1633 H1623 0.929 . S
C1633 C1631 1.433 . S
C1633 N1636 1.384 . S
C1634 H1625 0.929 . S
C1634 C1626 1.378 . S
C1634 C1629 1.350 . S
C1635 H1622 0.929 . S
C1635 C1627 1.433 . S
C1635 N1637 1.384 . S
N1636 C1632 1.427 . S
N1636 C1633 1.384 . S
N1637 C1629 1.427 . S
N1637 C1635 1.384 . S
H1638 C1644 0.930 . S
H1639 C1648 0.930 . S
H1640 C1653 0.929 . S
H1641 C1651 0.929 . S
H1642 C1646 0.929 . S
H1643 C1652 0.929 . S
C1644 H1638 0.930 . S
C1644 C1645 1.367 . S
C1644 C1652 1.378 . S
C1645 C1644 1.367 . S
C1645 C1653 1.433 . S
C1646 H1642 0.929 . S
C1646 C1648 1.378 . S
C1646 C1650 1.350 . S
C1647 C1650 1.463 . S
C1647 C1652 1.350 . S
C1647 N1655 1.427 . S
C1648 H1639 0.930 . S
C1648 C1646 1.378 . S
C1648 C1649 1.367 . S
C1649 C1648 1.367 . S
C1649 C1651 1.433 . S
C1650 C1646 1.350 . S
C1650 C1647 1.463 . S
C1650 N1654 1.427 . S
C1651 H1641 0.929 . S
C1651 C1649 1.433 . S
C1651 N1654 1.384 . S
C1652 H1643 0.929 . S
C1652 C1644 1.378 . S
C1652 C1647 1.350 . S
C1653 H1640 0.929 . S
C1653 C1645 1.433 . S
C1653 N1655 1.384 . S
N1654 C1650 1.427 . S
N1654 C1651 1.384 . S
N1655 C1647 1.427 . S
N1655 C1653 1.384 . S
H1656 C1662 0.930 . S
H1657 C1666 0.930 . S
H1658 C1671 0.929 . S
H1659 C1669 0.929 . S
H1660 C1664 0.932 1_565 S
H1661 C1670 0.929 . S
C1662 H1656 0.930 . S
C1662 C1663 1.367 . S
C1662 C1670 1.378 . S
C1663 C1662 1.367 . S
C1663 C1671 1.433 . S
C1664 H1660 0.932 1_545 S
C1664 C1666 1.354 1_545 S
C1664 C1668 1.372 . S
C1665 C1668 1.463 . S
C1665 C1670 1.350 . S
C1665 N1673 1.427 . S
C1666 H1657 0.930 . S
C1666 C1664 1.354 1_565 S
C1666 C1667 1.367 1_565 S
C1667 C1666 1.367 1_545 S
C1667 C1669 1.433 . S
C1668 C1664 1.372 . S
C1668 C1665 1.463 . S
C1668 N1672 1.427 . S
C1669 H1659 0.929 . S
C1669 C1667 1.433 . S
C1669 N1672 1.384 . S
C1670 H1661 0.929 . S
C1670 C1662 1.378 . S
C1670 C1665 1.350 . S
C1671 H1658 0.929 . S
C1671 C1663 1.433 . S
C1671 N1673 1.384 . S
N1672 C1668 1.427 . S
N1672 C1669 1.384 . S
N1673 C1665 1.427 . S
N1673 C1671 1.384 . S
H1674 C1680 0.930 . S
H1675 C1684 0.930 . S
H1676 C1689 0.929 . S
H1677 C1687 0.929 . S
H1678 C1682 0.929 . S
H1679 C1688 0.929 . S
C1680 H1674 0.930 . S
C1680 C1681 1.367 . S
C1680 C1688 1.378 . S
C1681 C1680 1.367 . S
C1681 C1689 1.433 . S
C1682 H1678 0.929 . S
C1682 C1684 1.378 . S
C1682 C1686 1.350 . S
C1683 C1686 1.463 . S
C1683 C1688 1.350 . S
C1683 N1691 1.427 . S
C1684 H1675 0.930 . S
C1684 C1682 1.378 . S
C1684 C1685 1.367 . S
C1685 C1684 1.367 . S
C1685 C1687 1.433 . S
C1686 C1682 1.350 . S
C1686 C1683 1.463 . S
C1686 N1690 1.427 . S
C1687 H1677 0.929 . S
C1687 C1685 1.433 . S
C1687 N1690 1.384 . S
C1688 H1679 0.929 . S
C1688 C1680 1.378 . S
C1688 C1683 1.350 . S
C1689 H1676 0.929 . S
C1689 C1681 1.433 . S
C1689 N1691 1.384 . S
N1690 C1686 1.427 . S
N1690 C1687 1.384 . S
N1691 C1683 1.427 . S
N1691 C1689 1.384 . S
H1692 C1698 0.930 . S
H1693 C1702 0.930 . S
H1694 C1707 0.929 . S
H1695 C1705 0.929 . S
H1696 C1700 0.929 . S
H1697 C1706 0.929 . S
C1698 H1692 0.930 . S
C1698 C1699 1.367 . S
C1698 C1706 1.378 . S
C1699 C1698 1.367 . S
C1699 C1707 1.433 . S
C1700 H1696 0.929 . S
C1700 C1702 1.378 . S
C1700 C1704 1.350 . S
C1701 C1704 1.463 . S
C1701 C1706 1.350 . S
C1701 N1709 1.427 . S
C1702 H1693 0.930 . S
C1702 C1700 1.378 . S
C1702 C1703 1.367 . S
C1703 C1702 1.367 . S
C1703 C1705 1.433 . S
C1704 C1700 1.350 . S
C1704 C1701 1.463 . S
C1704 N1708 1.427 . S
C1705 H1695 0.929 . S
C1705 C1703 1.433 . S
C1705 N1708 1.384 . S
C1706 H1697 0.929 . S
C1706 C1698 1.378 . S
C1706 C1701 1.350 . S
C1707 H1694 0.929 . S
C1707 C1699 1.433 . S
C1707 N1709 1.384 . S
N1708 C1704 1.427 . S
N1708 C1705 1.384 . S
N1709 C1701 1.427 . S
N1709 C1707 1.384 . S
H1710 C1716 0.930 . S
H1711 C1720 0.930 . S
H1712 C1725 0.929 . S
H1713 C1723 0.929 . S
H1714 C1718 0.929 . S
H1715 C1724 0.929 . S
C1716 H1710 0.930 . S
C1716 C1717 1.367 . S
C1716 C1724 1.378 . S
C1717 C1716 1.367 . S
C1717 C1725 1.433 . S
C1718 H1714 0.929 . S
C1718 C1720 1.378 . S
C1718 C1722 1.350 . S
C1719 C1722 1.463 . S
C1719 C1724 1.350 . S
C1719 N1727 1.427 . S
C1720 H1711 0.930 . S
C1720 C1718 1.378 . S
C1720 C1721 1.367 . S
C1721 C1720 1.367 . S
C1721 C1723 1.433 . S
C1722 C1718 1.350 . S
C1722 C1719 1.463 . S
C1722 N1726 1.427 . S
C1723 H1713 0.929 . S
C1723 C1721 1.433 . S
C1723 N1726 1.384 . S
C1724 H1715 0.929 . S
C1724 C1716 1.378 . S
C1724 C1719 1.350 . S
C1725 H1712 0.929 . S
C1725 C1717 1.433 . S
C1725 N1727 1.384 . S
N1726 C1722 1.427 . S
N1726 C1723 1.384 . S
N1727 C1719 1.427 . S
N1727 C1725 1.384 . S
H1728 C1734 0.930 . S
H1729 C1738 0.930 . S
H1730 C1743 0.929 . S
H1731 C1741 0.929 . S
H1732 C1736 0.929 . S
H1733 C1742 0.929 . S
C1734 H1728 0.930 . S
C1734 C1735 1.367 . S
C1734 C1742 1.378 . S
C1735 C1734 1.367 . S
C1735 C1743 1.433 . S
C1736 H1732 0.929 . S
C1736 C1738 1.378 . S
C1736 C1740 1.350 . S
C1737 C1740 1.463 . S
C1737 C1742 1.350 . S
C1737 N1745 1.427 . S
C1738 H1729 0.930 . S
C1738 C1736 1.378 . S
C1738 C1739 1.367 . S
C1739 C1738 1.367 . S
C1739 C1741 1.433 . S
C1740 C1736 1.350 . S
C1740 C1737 1.463 . S
C1740 N1744 1.427 . S
C1741 H1731 0.929 . S
C1741 C1739 1.433 . S
C1741 N1744 1.384 . S
C1742 H1733 0.929 . S
C1742 C1734 1.378 . S
C1742 C1737 1.350 . S
C1743 H1730 0.929 . S
C1743 C1735 1.433 . S
C1743 N1745 1.384 . S
N1744 C1740 1.427 . S
N1744 C1741 1.384 . S
N1745 C1737 1.427 . S
N1745 C1743 1.384 . S
H1746 C1752 0.930 . S
H1747 C1756 0.930 . S
H1748 C1761 0.929 . S
H1749 C1759 0.929 . S
H1750 C1754 0.929 . S
H1751 C1760 0.929 . S
C1752 H1746 0.930 . S
C1752 C1753 1.367 . S
C1752 C1760 1.378 . S
C1753 C1752 1.367 . S
C1753 C1761 1.433 . S
C1754 H1750 0.929 . S
C1754 C1756 1.378 . S
C1754 C1758 1.350 . S
C1755 C1758 1.463 . S
C1755 C1760 1.350 . S
C1755 N1763 1.427 . S
C1756 H1747 0.930 . S
C1756 C1754 1.378 . S
C1756 C1757 1.367 . S
C1757 C1756 1.367 . S
C1757 C1759 1.433 . S
C1758 C1754 1.350 . S
C1758 C1755 1.463 . S
C1758 N1762 1.427 . S
C1759 H1749 0.929 . S
C1759 C1757 1.433 . S
C1759 N1762 1.384 . S
C1760 H1751 0.929 . S
C1760 C1752 1.378 . S
C1760 C1755 1.350 . S
C1761 H1748 0.929 . S
C1761 C1753 1.433 . S
C1761 N1763 1.384 . S
N1762 C1758 1.427 . S
N1762 C1759 1.384 . S
N1763 C1755 1.427 . S
N1763 C1761 1.384 . S
H1764 C1770 0.930 . S
H1765 C1774 0.930 . S
H1766 C1779 0.929 . S
H1767 C1777 0.929 . S
H1768 C1772 0.929 . S
H1769 C1778 0.929 . S
C1770 H1764 0.930 . S
C1770 C1771 1.367 . S
C1770 C1778 1.378 . S
C1771 C1770 1.367 . S
C1771 C1779 1.433 . S
C1772 H1768 0.929 . S
C1772 C1774 1.378 . S
C1772 C1776 1.350 . S
C1773 C1776 1.463 . S
C1773 C1778 1.350 . S
C1773 N1781 1.427 . S
C1774 H1765 0.930 . S
C1774 C1772 1.378 . S
C1774 C1775 1.367 . S
C1775 C1774 1.367 . S
C1775 C1777 1.433 . S
C1776 C1772 1.350 . S
C1776 C1773 1.463 . S
C1776 N1780 1.427 . S
C1777 H1767 0.929 . S
C1777 C1775 1.433 . S
C1777 N1780 1.384 . S
C1778 H1769 0.929 . S
C1778 C1770 1.378 . S
C1778 C1773 1.350 . S
C1779 H1766 0.929 . S
C1779 C1771 1.433 . S
C1779 N1781 1.384 . S
N1780 C1776 1.427 . S
N1780 C1777 1.384 . S
N1781 C1773 1.427 . S
N1781 C1779 1.384 . S
H1782 C1788 0.930 . S
H1783 C1792 0.930 . S
H1784 C1797 0.929 . S
H1785 C1795 0.929 . S
H1786 C1790 0.929 . S
H1787 C1796 0.929 . S
C1788 H1782 0.930 . S
C1788 C1789 1.367 . S
C1788 C1796 1.378 . S
C1789 C1788 1.367 . S
C1789 C1797 1.433 . S
C1790 H1786 0.929 . S
C1790 C1792 1.378 . S
C1790 C1794 1.350 . S
C1791 C1794 1.463 . S
C1791 C1796 1.350 . S
C1791 N1799 1.427 . S
C1792 H1783 0.930 . S
C1792 C1790 1.378 . S
C1792 C1793 1.367 . S
C1793 C1792 1.367 . S
C1793 C1795 1.433 . S
C1794 C1790 1.350 . S
C1794 C1791 1.463 . S
C1794 N1798 1.427 . S
C1795 H1785 0.929 . S
C1795 C1793 1.433 . S
C1795 N1798 1.384 . S
C1796 H1787 0.929 . S
C1796 C1788 1.378 . S
C1796 C1791 1.350 . S
C1797 H1784 0.929 . S
C1797 C1789 1.433 . S
C1797 N1799 1.384 . S
N1798 C1794 1.427 . S
N1798 C1795 1.384 . S
N1799 C1791 1.427 . S
N1799 C1797 1.384 . S
H1800 C1806 0.930 . S
H1801 C1810 0.930 . S
H1802 C1815 0.929 . S
H1803 C1813 0.929 . S
H1804 C1808 0.929 . S
H1805 C1814 0.929 . S
C1806 H1800 0.930 . S
C1806 C1807 1.367 . S
C1806 C1814 1.378 . S
C1807 C1806 1.367 . S
C1807 C1815 1.433 . S
C1808 H1804 0.929 . S
C1808 C1810 1.378 . S
C1808 C1812 1.350 . S
C1809 C1812 1.463 . S
C1809 C1814 1.350 . S
C1809 N1817 1.427 . S
C1810 H1801 0.930 . S
C1810 C1808 1.378 . S
C1810 C1811 1.367 . S
C1811 C1810 1.367 . S
C1811 C1813 1.433 . S
C1812 C1808 1.350 . S
C1812 C1809 1.463 . S
C1812 N1816 1.427 . S
C1813 H1803 0.929 . S
C1813 C1811 1.433 . S
C1813 N1816 1.384 . S
C1814 H1805 0.929 . S
C1814 C1806 1.378 . S
C1814 C1809 1.350 . S
C1815 H1802 0.929 . S
C1815 C1807 1.433 . S
C1815 N1817 1.384 . S
N1816 C1812 1.427 . S
N1816 C1813 1.384 . S
N1817 C1809 1.427 . S
N1817 C1815 1.384 . S
H1818 C1824 0.930 . S
H1819 C1828 0.930 . S
H1820 C1833 0.929 . S
H1821 C1831 0.929 . S
H1822 C1826 0.929 . S
H1823 C1832 0.929 . S
C1824 H1818 0.930 . S
C1824 C1825 1.367 . S
C1824 C1832 1.378 . S
C1825 C1824 1.367 . S
C1825 C1833 1.433 . S
C1826 H1822 0.929 . S
C1826 C1828 1.378 . S
C1826 C1830 1.350 1_455 S
C1827 C1830 1.463 . S
C1827 C1832 1.350 . S
C1827 N1835 1.427 . S
C1828 H1819 0.930 . S
C1828 C1826 1.378 . S
C1828 C1829 1.379 1_455 S
C1829 C1828 1.379 1_655 S
C1829 C1831 1.461 . S
C1830 C1826 1.350 1_655 S
C1830 C1827 1.463 . S
C1830 N1834 1.427 . S
C1831 H1821 0.929 . S
C1831 C1829 1.461 . S
C1831 N1834 1.384 . S
C1832 H1823 0.929 . S
C1832 C1824 1.378 . S
C1832 C1827 1.350 . S
C1833 H1820 0.929 . S
C1833 C1825 1.433 . S
C1833 N1835 1.384 . S
N1834 C1830 1.427 . S
N1834 C1831 1.384 . S
N1835 C1827 1.427 . S
N1835 C1833 1.384 . S
H1836 C1842 0.930 . S
H1837 C1846 0.930 . S
H1838 C1851 0.929 . S
H1839 C1849 0.929 . S
H1840 C1844 0.929 . S
H1841 C1850 0.929 . S
C1842 H1836 0.930 . S
C1842 C1843 1.367 . S
C1842 C1850 1.378 . S
C1843 C1842 1.367 . S
C1843 C1851 1.433 . S
C1844 H1840 0.929 . S
C1844 C1846 1.378 . S
C1844 C1848 1.350 . S
C1845 C1848 1.463 . S
C1845 C1850 1.350 . S
C1845 N1853 1.427 . S
C1846 H1837 0.930 . S
C1846 C1844 1.378 . S
C1846 C1847 1.367 . S
C1847 C1846 1.367 . S
C1847 C1849 1.433 . S
C1848 C1844 1.350 . S
C1848 C1845 1.463 . S
C1848 N1852 1.427 . S
C1849 H1839 0.929 . S
C1849 C1847 1.433 . S
C1849 N1852 1.384 . S
C1850 H1841 0.929 . S
C1850 C1842 1.378 . S
C1850 C1845 1.350 . S
C1851 H1838 0.929 . S
C1851 C1843 1.433 . S
C1851 N1853 1.384 . S
N1852 C1848 1.427 . S
N1852 C1849 1.384 . S
N1853 C1845 1.427 . S
N1853 C1851 1.384 . S
H1854 C1860 0.930 . S
H1855 C1864 0.930 . S
H1856 C1869 0.929 . S
H1857 C1867 0.929 . S
H1858 C1862 0.929 . S
H1859 C1868 0.929 . S
C1860 H1854 0.930 . S
C1860 C1861 1.367 . S
C1860 C1868 1.378 . S
C1861 C1860 1.367 . S
C1861 C1869 1.433 . S
C1862 H1858 0.929 . S
C1862 C1864 1.378 . S
C1862 C1866 1.350 1_565 S
C1863 C1866 1.463 . S
C1863 C1868 1.350 . S
C1863 N1871 1.427 . S
C1864 H1855 0.930 . S
C1864 C1862 1.378 . S
C1864 C1865 1.331 1_565 S
C1865 C1864 1.331 1_545 S
C1865 C1867 1.455 . S
C1866 C1862 1.350 1_545 S
C1866 C1863 1.463 . S
C1866 N1870 1.427 . S
C1867 H1857 0.929 . S
C1867 C1865 1.455 . S
C1867 N1870 1.384 . S
C1868 H1859 0.929 . S
C1868 C1860 1.378 . S
C1868 C1863 1.350 . S
C1869 H1856 0.929 . S
C1869 C1861 1.433 . S
C1869 N1871 1.384 . S
N1870 C1866 1.427 . S
N1870 C1867 1.384 . S
N1871 C1863 1.427 . S
N1871 C1869 1.384 . S
C583 C4 1.537 . S
C587 C421 1.562 . S
C601 C26 1.572 . S
C605 C446 1.541 . S
C623 C457 1.511 . S
C619 C32 1.490 . S
C637 C40 1.510 . S
C641 C482 1.496 . S
C655 C12 1.547 . S
C659 C500 1.530 . S
C673 C18 1.505 . S
C677 C511 1.533 . S
C691 C46 1.536 . S
C695 C493 1.574 1_455 S
C713 C518 1.532 . S
C709 C68 1.551 . S
C731 C475 1.508 1_565 S
C727 C74 1.500 . S
C745 C82 1.497 . S
C749 C464 1.489 1_545 S
C767 C428 1.529 1_655 S
C763 C54 1.552 . S
C781 C60 1.489 . S
C785 C439 1.523 . S
C799 C88 1.575 . S
C803 C529 1.600 . S
C817 C110 1.596 . S
C821 C554 1.563 . S
C839 C565 1.565 . S
C835 C116 1.543 . S
C853 C124 1.526 . S
C857 C266 1.504 . S
C871 C96 1.567 . S
C875 C284 1.548 . S
C889 C102 1.519 . S
C893 C295 1.542 . S
C907 C130 1.543 . S
C911 C277 1.571 . S
C925 C152 1.581 . S
C929 C302 1.560 . S
C947 C259 1.556 . S
C943 C158 1.525 . S
C965 C572 1.513 . S
C961 C166 1.527 . S
C983 C536 1.528 . S
C979 C138 1.546 . S
C1001 C547 1.553 . S
C997 C144 1.516 . S
C1015 C172 1.570 . S
C1019 C313 1.590 . S
C1033 C194 1.596 . S
C1037 C338 1.566 . S
C1051 C200 1.543 . S
C1055 C349 1.564 . S
C1069 C208 1.541 . S
C1073 C374 1.518 . S
C1091 C392 1.540 . S
C1087 C180 1.565 . S
C1109 C403 1.567 . S
C1105 C186 1.541 . S
C1127 C385 1.595 . S
C1123 C214 1.561 . S
C1145 C410 1.550 . S
C1141 C236 1.569 . S
C1159 C242 1.507 . S
C1163 C367 1.542 . S
C1181 C356 1.489 . S
C1177 C250 1.505 . S
C1195 C222 1.551 . S
C1199 C320 1.537 . S
C1217 C331 1.545 . S
C1213 C228 1.514 . S
C1235 C268 1.335 . S
C1231 C5 1.205 . S
C1249 C25 1.322 . S
C1253 C286 1.248 . S
C1271 C296 1.318 . S
C1267 C33 1.188 . S
C1289 C314 1.238 . S
C1285 C39 1.292 . S
C1307 C340 1.270 . S
C1303 C11 1.340 . S
C1325 C350 1.276 . S
C1321 C19 1.143 1_556 S
C1339 C47 1.217 1_556 S
C1343 C358 1.346 . S
C1357 C67 1.364 . S
C1361 C322 1.257 . S
C1375 C75 1.204 1_556 S
C1379 C332 1.339 . S
C1393 C81 1.347 . S
C1397 C278 1.273 . S
C1415 C304 1.287 . S
C1411 C53 1.359 . S
C1429 C61 1.151 . S
C1433 C260 1.298 . S
C1451 C376 1.317 . S
C1447 C89 1.184 . S
C1465 C109 1.372 . S
C1469 C394 1.300 . S
C1483 C117 1.182 . S
C1487 C404 1.315 . S
C1505 C422 1.228 . S
C1501 C123 1.268 . S
C1519 C95 1.324 . S
C1523 C448 1.273 . S
C1537 C103 1.112 . S
C1541 C458 1.237 . S
C1555 C131 1.134 . S
C1559 C466 1.263 . S
C1573 C151 1.322 . S
C1577 C430 1.227 . S
C1595 C440 1.325 . S
C1591 C159 1.192 . S
C1609 C165 1.341 . S
C1613 C386 1.285 . S
C1627 C137 1.398 . S
C1631 C412 1.320 . S
C1649 C368 1.335 . S
C1645 C145 1.193 . S
C1667 C484 1.251 . S
C1663 C173 1.130 . S
C1681 C193 1.283 . S
C1685 C502 1.216 . S
C1699 C201 1.159 . S
C1703 C512 1.292 . S
C1721 C530 1.248 . S
C1717 C207 1.295 . S
C1739 C556 1.320 . S
C1735 C179 1.369 . S
C1753 C187 1.185 . S
C1757 C566 1.318 . S
C1771 C215 1.214 . S
C1775 C574 1.338 . S
C1789 C235 1.400 . S
C1793 C538 1.321 . S
C1811 C548 1.351 . S
C1807 C243 1.221 . S
C1829 C494 1.176 1_655 S
C1825 C249 1.269 . S
C1847 C520 1.269 . S
C1843 C221 1.368 . S
C1861 C229 1.125 . S
C1865 C476 1.285 1_545 S
