# Generated by pormake.
# Topology anh, (6,3)-cn, num edge types: 1
# Building blocks:
#     Node 0, Type 0, BuildingBlock: CUKXOW_clean_sbu_0, # of connection points: 6
#     Node 1, Type 0, BuildingBlock: CUKXOW_clean_sbu_0, # of connection points: 6
#     Node 2, Type 0, BuildingBlock: CUKXOW_clean_sbu_0, # of connection points: 6
#     Node 3, Type 1, BuildingBlock: KAKCAD_clean_linker_0, # of connection points: 3
#     Node 4, Type 1, BuildingBlock: KAKCAD_clean_linker_0, # of connection points: 3
#     Node 5, Type 1, BuildingBlock: KAKCAD_clean_linker_0, # of connection points: 3
#     Node 6, Type 1, BuildingBlock: KAKCAD_clean_linker_0, # of connection points: 3
#     Node 7, Type 1, BuildingBlock: KAKCAD_clean_linker_0, # of connection points: 3
#     Node 8, Type 1, BuildingBlock: KAKCAD_clean_linker_0, # of connection points: 3
#     Edge 9, Type (0, 1), BuildingBlock: KIFKEQ_clean_linker_1, # of connection points: 2
#     Edge 10, Type (0, 1), BuildingBlock: KIFKEQ_clean_linker_1, # of connection points: 2
#     Edge 11, Type (0, 1), BuildingBlock: KIFKEQ_clean_linker_1, # of connection points: 2
#     Edge 12, Type (0, 1), BuildingBlock: KIFKEQ_clean_linker_1, # of connection points: 2
#     Edge 13, Type (0, 1), BuildingBlock: KIFKEQ_clean_linker_1, # of connection points: 2
#     Edge 14, Type (0, 1), BuildingBlock: KIFKEQ_clean_linker_1, # of connection points: 2
#     Edge 15, Type (0, 1), BuildingBlock: KIFKEQ_clean_linker_1, # of connection points: 2
#     Edge 16, Type (0, 1), BuildingBlock: KIFKEQ_clean_linker_1, # of connection points: 2
#     Edge 17, Type (0, 1), BuildingBlock: KIFKEQ_clean_linker_1, # of connection points: 2
#     Edge 18, Type (0, 1), BuildingBlock: KIFKEQ_clean_linker_1, # of connection points: 2
#     Edge 19, Type (0, 1), BuildingBlock: KIFKEQ_clean_linker_1, # of connection points: 2
#     Edge 20, Type (0, 1), BuildingBlock: KIFKEQ_clean_linker_1, # of connection points: 2
#     Edge 21, Type (0, 1), BuildingBlock: KIFKEQ_clean_linker_1, # of connection points: 2
#     Edge 22, Type (0, 1), BuildingBlock: KIFKEQ_clean_linker_1, # of connection points: 2
#     Edge 23, Type (0, 1), BuildingBlock: KIFKEQ_clean_linker_1, # of connection points: 2
#     Edge 24, Type (0, 1), BuildingBlock: KIFKEQ_clean_linker_1, # of connection points: 2
#     Edge 25, Type (0, 1), BuildingBlock: KIFKEQ_clean_linker_1, # of connection points: 2
#     Edge 26, Type (0, 1), BuildingBlock: KIFKEQ_clean_linker_1, # of connection points: 2
# Relax obj value: 0.133
# Max RMSD: 0.194
# Mean RMSD: 0.139
data_MOF--net-anh--node1-CUKXOW_clean_sbu_0--node2-KAKCAD_clean_linker_0--edge1-KIFKEQ_clean_linker_1
_symmetry_space_group_name_H-M    P1
_symmetry_Int_Tables_number       1
_symmetry_cell_setting            triclinic
loop_
_symmetry_equiv_pos_as_xyz
'x, y, z'
_cell_length_a     35.922308
_cell_length_b     34.924508
_cell_length_c     66.215888
_cell_angle_alpha  95.566413
_cell_angle_beta   90.216068
_cell_angle_gamma 115.55337
loop_
_atom_site_label
_atom_site_type_symbol
_atom_site_fract_x
_atom_site_fract_y
_atom_site_fract_z
_atom_type_partial_charge
Tb0 Tb 0.06331 0.53515 0.15529 0.0
C1 C 0.03887 0.49409 0.19664 0.0
Tb2 Tb 1.00636 0.43806 0.1543 0.0
O3 O 1.01297 0.54522 0.14155 0.0
O4 O 0.99913 0.49603 0.15973 0.0
O5 O 0.06504 0.52663 0.18741 0.0
C6 C 0.93743 0.36589 0.15377 0.0
O7 O 1.01077 0.45828 0.18669 0.0
C8 C 0.08619 0.45291 0.1526 0.0
C9 C 0.03693 0.47772 0.1135 0.0
O10 O 0.97076 0.37567 0.16494 0.0
O11 O 0.94315 0.39653 0.14272 0.0
O12 O 0.05535 0.41503 0.15117 0.0
O13 O 0.06967 0.47836 0.15463 0.0
O14 O 1.00727 0.44692 0.12218 0.0
O15 O 0.06535 0.51253 0.12388 0.0
C16 C 0.12816 0.61134 0.15811 0.0
O17 O 0.09358 0.60315 0.16686 0.0
O18 O 0.12602 0.57679 0.14792 0.0
C19 C 0.98311 0.51243 0.14814 0.0
Tb20 Tb 0.50055 0.01222 0.50806 0.0
C21 C 0.54379 0.04217 0.46782 0.0
Tb22 Tb 0.59568 0.07677 0.50987 0.0
O23 O 0.48286 0.06042 0.4982 0.0
O24 O 0.53794 0.07885 0.51525 0.0
O25 O 0.51396 0.01076 0.47614 0.0
C26 C 0.66536 0.14802 0.50974 0.0
O27 O 0.57468 0.0743 0.4786 0.0
C28 C 0.58311 0.99566 0.50724 0.0
C29 C 0.55471 0.04215 0.55029 0.0
O30 O 0.65573 0.11315 0.49774 0.0
O31 O 0.63592 0.1427 0.52206 0.0
O32 O 0.6197 0.02759 0.50894 0.0
O33 O 0.55808 0.01179 0.5068 0.0
O34 O 0.58793 0.06987 0.54201 0.0
O35 O 0.51935 0.01629 0.53997 0.0
C36 C 0.42999 0.94238 0.5085 0.0
O37 O 0.43759 0.97944 0.51818 0.0
O38 O 0.46193 0.9449 0.49859 0.0
C39 C 0.5171 0.09257 0.50523 0.0
Tb40 Tb 0.51946 0.5199 0.82784 0.0
C41 C 0.56024 0.53698 0.87242 0.0
Tb42 Tb 0.6143 0.55681 0.83405 0.0
O43 O 0.51763 0.46147 0.81176 0.0
O44 O 0.5633 0.49607 0.83425 0.0
O45 O 0.52748 0.53229 0.86105 0.0
C46 C 0.68983 0.56265 0.83226 0.0
O47 O 0.59597 0.54182 0.86467 0.0
C48 C 0.5916 0.61947 0.83514 0.0
C49 C 0.57356 0.54724 0.79014 0.0
O50 O 0.6776 0.58251 0.8464 0.0
O51 O 0.6591 0.53811 0.81972 0.0
O52 O 0.62961 0.62547 0.83776 0.0
O53 O 0.56981 0.57985 0.83234 0.0
O54 O 0.60631 0.55118 0.801 0.0
O55 O 0.53764 0.53956 0.79804 0.0
C56 C 0.44129 0.50496 0.82277 0.0
O57 O 0.45406 0.48292 0.83325 0.0
O58 O 0.47242 0.53615 0.81618 0.0
C59 C 0.55115 0.46473 0.82074 0.0
C60 C 0.5435 0.06906 0.30473 0.0
C61 C 0.5402 0.0341 0.31481 0.0
C62 C 0.5428 0.06642 0.28351 0.0
C63 C 0.53817 0.02862 0.27198 0.0
C64 C 0.53541 0.99393 0.28197 0.0
C65 C 0.53673 0.99673 0.30314 0.0
C66 C 0.53492 0.02464 0.24955 0.0
C67 C 0.56467 0.0551 0.2387 0.0
C68 C 0.56226 0.05034 0.21732 0.0
C69 C 0.52898 0.01511 0.20688 0.0
C70 C 0.4989 0.98455 0.21764 0.0
C71 C 0.50221 0.98957 0.23894 0.0
C72 C 0.46393 0.94703 0.20691 0.0
C73 C 0.44021 0.95181 0.19128 0.0
C74 C 0.45268 0.90634 0.21312 0.0
C75 C 0.41766 0.87135 0.20439 0.0
C76 C 0.39304 0.87621 0.18923 0.0
C77 C 0.59575 0.08104 0.20607 0.0
C78 C 0.61267 0.12504 0.21239 0.0
C79 C 0.61275 0.06635 0.18971 0.0
C80 C 0.64688 0.09492 0.18036 0.0
C81 C 0.66462 0.13878 0.18711 0.0
C82 C 0.6467 0.1536 0.20301 0.0
C83 C 0.40492 0.91671 0.18258 0.0
H84 H 0.54567 0.09815 0.31317 0.0
H85 H 0.54469 0.09349 0.2761 0.0
H86 H 0.53239 0.96462 0.27337 0.0
H87 H 0.53518 0.96956 0.31032 0.0
H88 H 0.59061 0.08157 0.24693 0.0
H89 H 0.47881 0.96642 0.24737 0.0
H90 H 0.52675 0.01117 0.19042 0.0
H91 H 0.44815 0.9829 0.18628 0.0
H92 H 0.47066 0.90169 0.225 0.0
H93 H 0.40914 0.84071 0.21002 0.0
H94 H 0.59998 0.13733 0.22483 0.0
H95 H 0.6006 0.03258 0.1846 0.0
H96 H 0.38673 0.92131 0.17079 0.0
H97 H 0.65985 0.18714 0.2087 0.0
H98 H 0.65975 0.0826 0.16801 0.0
C99 C 0.55667 0.58415 0.63103 0.0
C100 C 0.58191 0.56814 0.63981 0.0
C101 C 0.55251 0.58232 0.6099 0.0
C102 C 0.57408 0.56505 0.59717 0.0
C103 C 0.60067 0.55072 0.60617 0.0
C104 C 0.60414 0.55179 0.62724 0.0
C105 C 0.56799 0.56055 0.57462 0.0
C106 C 0.56197 0.59136 0.56475 0.0
C107 C 0.55633 0.58707 0.54349 0.0
C108 C 0.55726 0.5514 0.53185 0.0
C109 C 0.56328 0.52013 0.54158 0.0
C110 C 0.56794 0.5249 0.56287 0.0
C111 C 0.56429 0.48154 0.53031 0.0
C112 C 0.53166 0.45352 0.51672 0.0
C113 C 0.59526 0.46933 0.53558 0.0
C114 C 0.59231 0.42901 0.52864 0.0
C115 C 0.55838 0.39964 0.51606 0.0
C116 C 0.5504 0.6211 0.53406 0.0
C117 C 0.51845 0.63186 0.54023 0.0
C118 C 0.57974 0.64691 0.52132 0.0
C119 C 0.57846 0.68419 0.51582 0.0
C120 C 0.54754 0.69623 0.52281 0.0
C121 C 0.5168 0.66867 0.53454 0.0
C122 C 0.52871 0.41296 0.50968 0.0
H123 H 0.539 0.59663 0.64049 0.0
H124 H 0.53141 0.5932 0.60357 0.0
H125 H 0.61869 0.53833 0.59696 0.0
H126 H 0.62412 0.53968 0.63374 0.0
H127 H 0.56258 0.61947 0.57356 0.0
H128 H 0.57073 0.49995 0.57037 0.0
H129 H 0.55337 0.54807 0.51544 0.0
H130 H 0.50724 0.46197 0.51246 0.0
H131 H 0.62092 0.49033 0.54596 0.0
H132 H 0.61563 0.42018 0.53413 0.0
H133 H 0.49542 0.61242 0.55006 0.0
H134 H 0.60501 0.63962 0.51659 0.0
H135 H 0.50253 0.39162 0.4997 0.0
H136 H 0.49185 0.67598 0.53979 0.0
H137 H 0.60294 0.70458 0.50694 0.0
C138 C 0.09763 0.54192 0.96123 0.0
C139 C 0.05744 0.51528 0.96647 0.0
C140 C 0.10445 0.55728 0.94226 0.0
C141 C 0.0712 0.54662 0.92826 0.0
C142 C 0.03098 0.52035 0.93352 0.0
C143 C 0.02417 0.50474 0.95244 0.0
C144 C 0.07855 0.56098 0.90779 0.0
C145 C 0.10885 0.55537 0.89624 0.0
C146 C 0.11257 0.56401 0.87596 0.0
C147 C 0.08739 0.57999 0.86742 0.0
C148 C 0.05732 0.58603 0.87878 0.0
C149 C 0.05298 0.57661 0.899 0.0
C150 C 0.02653 0.59521 0.86824 0.0
C151 C 0.03875 0.62735 0.85509 0.0
C152 C 0.9846 0.56771 0.86921 0.0
C153 C 0.95542 0.57118 0.85669 0.0
C154 C 0.96761 0.6023 0.84305 0.0
C155 C 0.13964 0.55224 0.86295 0.0
C156 C 0.18203 0.56982 0.8679 0.0
C157 C 0.1229 0.52321 0.84544 0.0
C158 C 0.1484 0.51158 0.83305 0.0
C159 C 0.19089 0.52956 0.83788 0.0
C160 C 0.2076 0.55879 0.85533 0.0
C161 C 1.00931 0.63114 0.84266 0.0
H162 H 0.12383 0.55137 0.97187 0.0
H163 H 0.13571 0.57771 0.93858 0.0
H164 H 1.00488 0.51102 0.92282 0.0
H165 H 0.99293 0.48389 0.95594 0.0
H166 H 0.12764 0.54166 0.90257 0.0
H167 H 0.029 0.58035 0.90768 0.0
H168 H 0.08967 0.58536 0.85151 0.0
H169 H 0.07109 0.6488 0.85413 0.0
H170 H 0.97452 0.54231 0.879 0.0
H171 H 0.92317 0.54933 0.85761 0.0
H172 H 0.19529 0.59222 0.88137 0.0
H173 H 0.09003 0.50915 0.84155 0.0
H174 H 0.01909 0.65576 0.83245 0.0
H175 H 0.24036 0.57242 0.85944 0.0
H176 H 0.13509 0.48876 0.81972 0.0
C177 C 0.99463 0.52279 0.35832 0.0
C178 C 0.02992 0.52272 0.34926 0.0
C179 C 0.9931 0.52736 0.37948 0.0
C180 C 0.02709 0.53262 0.39191 0.0
C181 C 0.06232 0.53245 0.38283 0.0
C182 C 0.06361 0.52726 0.36171 0.0
C183 C 0.02626 0.53904 0.4143 0.0
C184 C 0.99284 0.51131 0.42455 0.0
C185 C 0.99278 0.51651 0.44589 0.0
C186 C 0.02609 0.55066 0.45686 0.0
C187 C 0.05966 0.57849 0.44678 0.0
C188 C 0.05957 0.57242 0.42553 0.0
C189 C 0.09552 0.61328 0.4584 0.0
C190 C 0.08992 0.64099 0.47363 0.0
C191 C 0.13575 0.61937 0.45398 0.0
C192 C 0.16981 0.65298 0.46432 0.0
C193 C 0.16437 0.68139 0.47921 0.0
C194 C 0.95939 0.48464 0.45673 0.0
C195 C 0.91797 0.46779 0.44948 0.0
C196 C 0.96907 0.46925 0.47389 0.0
C197 C 0.93823 0.43685 0.4832 0.0
C198 C 0.89701 0.41905 0.47557 0.0
C199 C 0.88709 0.43537 0.45881 0.0
C200 C 0.1241 0.67498 0.48386 0.0
H201 H 0.96813 0.51905 0.34904 0.0
H202 H 0.96566 0.52756 0.38612 0.0
H203 H 0.08882 0.53614 0.3921 0.0
H204 H 0.09126 0.52756 0.3551 0.0
H205 H 0.96779 0.48459 0.41593 0.0
H206 H 0.08529 0.59413 0.41765 0.0
H207 H 0.02634 0.55507 0.4733 0.0
H208 H 0.05916 0.63699 0.47726 0.0
H209 H 0.14087 0.59818 0.44244 0.0
H210 H 0.20048 0.65745 0.46022 0.0
H211 H 0.90951 0.4793 0.43641 0.0
H212 H 1.00072 0.48123 0.47974 0.0
H213 H 0.11909 0.69637 0.49532 0.0
H214 H 0.85567 0.42205 0.45245 0.0
H215 H 0.94677 0.42525 0.49621 0.0
C216 C 0.54467 0.99296 0.70973 0.0
C217 C 0.57041 0.02935 0.70072 0.0
C218 C 0.54538 0.99348 0.73087 0.0
C219 C 0.57242 0.03024 0.74333 0.0
C220 C 0.5992 0.06608 0.73405 0.0
C221 C 0.59781 0.06579 0.71298 0.0
C222 C 0.57183 0.03189 0.76589 0.0
C223 C 0.56439 0.99563 0.77572 0.0
C224 C 0.56306 0.99706 0.79699 0.0
C225 C 0.57002 0.03571 0.80865 0.0
C226 C 0.5778 0.07241 0.79899 0.0
C227 C 0.57812 0.06992 0.77771 0.0
C228 C 0.58393 0.11358 0.81039 0.0
C229 C 0.55373 0.11601 0.82314 0.0
C230 C 0.6167 0.1516 0.80578 0.0
C231 C 0.61743 0.19115 0.81231 0.0
C232 C 0.58537 0.19364 0.82362 0.0
C233 C 0.55517 0.95776 0.80654 0.0
C234 C 0.5216 0.91909 0.79929 0.0
C235 C 0.58346 0.95747 0.82112 0.0
C236 C 0.57966 0.9188 0.82737 0.0
C237 C 0.54725 0.8797 0.81928 0.0
C238 C 0.51753 0.88058 0.80568 0.0
C239 C 0.5544 0.15571 0.82968 0.0
H240 H 0.52316 0.96462 0.70043 0.0
H241 H 0.5239 0.9655 0.73741 0.0
H242 H 0.6212 0.09456 0.74305 0.0
H243 H 0.61814 0.09406 0.70622 0.0
H244 H 0.56042 0.96623 0.76687 0.0
H245 H 0.58215 0.09772 0.77032 0.0
H246 H 0.56922 0.03717 0.82506 0.0
H247 H 0.52808 0.08717 0.82686 0.0
H248 H 0.64048 0.15057 0.79602 0.0
H249 H 0.64162 0.21947 0.80722 0.0
H250 H 0.49913 0.91856 0.78817 0.0
H251 H 0.60979 0.98683 0.8268 0.0
H252 H 0.52962 0.15655 0.83869 0.0
H253 H 0.49162 0.85133 0.79951 0.0
H254 H 0.60337 0.91945 0.83773 0.0
C255 C 0.54866 0.47907 0.03074 0.0
C256 C 0.54342 0.51292 0.02333 0.0
C257 C 0.54807 0.47512 0.05158 0.0
C258 C 0.54157 0.50454 0.06541 0.0
C259 C 0.53605 0.53821 0.058 0.0
C260 C 0.53729 0.54255 0.03719 0.0
C261 C 0.54028 0.50001 0.08752 0.0
C262 C 0.57151 0.4941 0.09749 0.0
C263 C 0.57122 0.48982 0.11842 0.0
C264 C 0.53769 0.4915 0.12954 0.0
C265 C 0.50543 0.49744 0.1195 0.0
C266 C 0.50773 0.50156 0.09854 0.0
C267 C 0.4682 0.49919 0.12957 0.0
C268 C 0.44117 0.46633 0.14046 0.0
C269 C 0.45539 0.53045 0.12498 0.0
C270 C 0.41624 0.52763 0.12979 0.0
C271 C 0.38795 0.49369 0.13978 0.0
C272 C 0.60702 0.48378 0.12734 0.0
C273 C 0.61833 0.45305 0.11737 0.0
C274 C 0.63484 0.51316 0.14269 0.0
C275 C 0.67358 0.51316 0.14703 0.0
C276 C 0.68585 0.48407 0.13601 0.0
C277 C 0.65684 0.45326 0.12155 0.0
C278 C 0.40183 0.46369 0.14553 0.0
H279 H 0.55375 0.45595 0.02042 0.0
H280 H 0.55219 0.44874 0.05688 0.0
H281 H 0.53119 0.56146 0.06834 0.0
H282 H 0.53295 0.56881 0.0319 0.0
H283 H 0.59694 0.49371 0.08884 0.0
H284 H 0.48322 0.50502 0.09047 0.0
H285 H 0.53671 0.4882 0.14564 0.0
H286 H 0.44949 0.44141 0.14416 0.0
H287 H 0.4751 0.55637 0.11662 0.0
H288 H 0.40772 0.5514 0.12469 0.0
H289 H 0.59796 0.42986 0.10546 0.0
H290 H 0.62777 0.53778 0.15047 0.0
H291 H 0.38207 0.43746 0.15364 0.0
H292 H 0.66431 0.42967 0.11299 0.0
H293 H 0.69482 0.53746 0.15829 0.0
H294 H 0.15777 0.52701 0.1645 0.0
H295 H 0.11626 0.39836 0.13601 0.0
H296 H 0.22961 0.53741 0.16275 0.0
H297 H 0.1872 0.40882 0.13315 0.0
H298 H 0.31543 0.42007 0.14316 0.0
H299 H 0.24572 0.41229 0.14725 0.0
H300 H 0.28862 0.54822 0.14644 0.0
H301 H 0.3589 0.55648 0.14429 0.0
C302 C 0.16397 0.50116 0.15751 0.0
C303 C 0.1309 0.46186 0.15037 0.0
C304 C 0.20549 0.50703 0.15644 0.0
C305 C 0.21549 0.47392 0.14794 0.0
C306 C 0.18195 0.43505 0.14039 0.0
C307 C 0.14072 0.42907 0.14179 0.0
C308 C 0.31057 0.44867 0.14427 0.0
C309 C 0.3441 0.48898 0.14319 0.0
C310 C 0.26973 0.44406 0.14622 0.0
C311 C 0.26009 0.47942 0.14685 0.0
C312 C 0.29371 0.51983 0.14614 0.0
C313 C 0.33466 0.52452 0.14452 0.0
H314 H 0.68214 0.227 0.5288 0.0
H315 H 0.73036 0.15983 0.48642 0.0
H316 H 0.74041 0.29481 0.5234 0.0
H317 H 0.78814 0.22717 0.48091 0.0
H318 H 0.90422 0.34933 0.48676 0.0
H319 H 0.85043 0.2853 0.49828 0.0
H320 H 0.76309 0.33932 0.49448 0.0
H321 H 0.81735 0.40413 0.48352 0.0
C322 C 0.70548 0.22676 0.51854 0.0
C323 C 0.70196 0.18837 0.50803 0.0
C324 C 0.7386 0.26548 0.51535 0.0
C325 C 0.76882 0.26626 0.50175 0.0
C326 C 0.76567 0.22757 0.49169 0.0
C327 C 0.73251 0.18903 0.49476 0.0
C328 C 0.87379 0.34798 0.48879 0.0
C329 C 0.86499 0.38175 0.48416 0.0
C330 C 0.84289 0.31112 0.4952 0.0
C331 C 0.80252 0.3072 0.49714 0.0
C332 C 0.79401 0.34156 0.49326 0.0
C333 C 0.82494 0.37845 0.48677 0.0
H334 H 0.63543 0.7011 0.85107 0.0
H335 H 0.51895 0.6165 0.81986 0.0
H336 H 0.6188 0.76126 0.84927 0.0
H337 H 0.50179 0.67698 0.81814 0.0
H338 H 0.52559 0.80686 0.79309 0.0
H339 H 0.52966 0.74125 0.79924 0.0
H340 H 0.57203 0.79266 0.86139 0.0
H341 H 0.56726 0.85835 0.8554 0.0
C342 C 0.60587 0.69528 0.84409 0.0
C343 C 0.57836 0.6541 0.83564 0.0
C344 C 0.59621 0.72973 0.84319 0.0
C345 C 0.55893 0.72395 0.83361 0.0
C346 C 0.53085 0.68247 0.82557 0.0
C347 C 0.54042 0.64777 0.82668 0.0
C348 C 0.53476 0.80394 0.80824 0.0
C349 C 0.54623 0.83817 0.82373 0.0
C350 C 0.53711 0.76619 0.81175 0.0
C351 C 0.55128 0.76175 0.83077 0.0
C352 C 0.56145 0.79532 0.84647 0.0
C353 C 0.55887 0.83303 0.84301 0.0
H354 H 0.9177 0.46643 0.17163 0.0
H355 H 0.94697 0.54144 0.12099 0.0
H356 H 0.8463 0.45901 0.16949 0.0
H357 H 0.87621 0.53371 0.11866 0.0
H358 H 0.73589 0.47586 0.10618 0.0
H359 H 0.80513 0.47986 0.10941 0.0
H360 H 0.80477 0.50286 0.17454 0.0
H361 H 0.73488 0.49885 0.1713 0.0
C362 C 0.90891 0.48104 0.15994 0.0
C363 C 0.93839 0.50453 0.14647 0.0
C364 C 0.86795 0.47708 0.15879 0.0
C365 C 0.85495 0.49574 0.14388 0.0
C366 C 0.88446 0.51848 0.13025 0.0
C367 C 0.92533 0.52303 0.13162 0.0
C368 C 0.75021 0.48147 0.12127 0.0
C369 C 0.7291 0.48684 0.13846 0.0
C370 C 0.79038 0.48412 0.12312 0.0
C371 C 0.81115 0.49172 0.14225 0.0
C372 C 0.78997 0.49663 0.15953 0.0
C373 C 0.74985 0.49469 0.15765 0.0
H374 H 0.41399 0.86398 0.49005 0.0
H375 H 0.35811 0.93343 0.52581 0.0
H376 H 0.34854 0.80035 0.487 0.0
H377 H 0.29221 0.86913 0.52308 0.0
H378 H 0.17576 0.76423 0.48502 0.0
H379 H 0.23976 0.82717 0.49584 0.0
H380 H 0.2994 0.74596 0.50591 0.0
H381 H 0.23551 0.68311 0.49484 0.0
C382 C 0.38771 0.86541 0.49746 0.0
C383 C 0.39089 0.90355 0.50805 0.0
C384 C 0.35028 0.82886 0.49588 0.0
C385 C 0.31518 0.82964 0.50486 0.0
C386 C 0.31865 0.86766 0.51587 0.0
C387 C 0.35629 0.90434 0.5175 0.0
C388 C 0.20229 0.75985 0.49001 0.0
C389 C 0.20089 0.71887 0.48885 0.0
C390 C 0.23894 0.79588 0.49623 0.0
C391 C 0.27479 0.79154 0.50147 0.0
C392 C 0.27252 0.75036 0.50155 0.0
C393 C 0.23599 0.7144 0.49525 0.0
H394 H 0.51976 0.39142 0.79522 0.0
H395 H 0.60536 0.45528 0.84683 0.0
H396 H 0.52958 0.32725 0.79764 0.0
H397 H 0.61478 0.39044 0.84954 0.0
H398 H 0.64716 0.275 0.83313 0.0
H399 H 0.64184 0.34235 0.83253 0.0
H400 H 0.50992 0.27257 0.82069 0.0
H401 H 0.51535 0.20557 0.82045 0.0
C402 C 0.5409 0.39177 0.80703 0.0
C403 C 0.56152 0.42817 0.82094 0.0
C404 C 0.54625 0.35486 0.80855 0.0
C405 C 0.57232 0.35338 0.82405 0.0
C406 C 0.59443 0.3905 0.83745 0.0
C407 C 0.58905 0.42759 0.83591 0.0
C408 C 0.61699 0.27407 0.8305 0.0
C409 C 0.58173 0.23474 0.82671 0.0
C410 C 0.61393 0.3127 0.83029 0.0
C411 C 0.57556 0.31285 0.82622 0.0
C412 C 0.5401 0.2736 0.82344 0.0
C413 C 0.54313 0.2351 0.82365 0.0
H414 H 0.51388 0.93112 0.52009 0.0
H415 H 0.63331 0.95838 0.49645 0.0
H416 H 0.50167 0.85692 0.52219 0.0
H417 H 0.62165 0.88471 0.49879 0.0
H418 H 0.57217 0.73933 0.48882 0.0
H419 H 0.57794 0.81002 0.48385 0.0
H420 H 0.53085 0.81951 0.54305 0.0
H421 H 0.52615 0.74969 0.54835 0.0
C422 C 0.53709 0.92099 0.51495 0.0
C423 C 0.5742 0.95024 0.50777 0.0
C424 C 0.53041 0.87868 0.51641 0.0
C425 C 0.56062 0.86474 0.51057 0.0
C426 C 0.59748 0.89409 0.50313 0.0
C427 C 0.60428 0.93637 0.50191 0.0
C428 C 0.56322 0.75647 0.50086 0.0
C429 C 0.54869 0.73839 0.51901 0.0
C430 C 0.5664 0.79701 0.49796 0.0
C431 C 0.55481 0.82048 0.51304 0.0
C432 C 0.53943 0.8021 0.53097 0.0
C433 C 0.53663 0.76181 0.53397 0.0
H434 H 0.75658 0.61523 0.85655 0.0
H435 H 0.71996 0.53428 0.79954 0.0
H436 H 0.82864 0.63395 0.85036 0.0
H437 H 0.7925 0.55392 0.79296 0.0
H438 H 0.90912 0.53864 0.8181 0.0
H439 H 0.84248 0.5355 0.80866 0.0
H440 H 0.88724 0.66965 0.82977 0.0
H441 H 0.95374 0.67213 0.83994 0.0
C442 C 0.76412 0.60172 0.84263 0.0
C443 C 0.73301 0.5728 0.82871 0.0
C444 C 0.80538 0.61308 0.83885 0.0
C445 C 0.81625 0.59585 0.821 0.0
C446 C 0.78498 0.56768 0.80681 0.0
C447 C 0.7436 0.55615 0.81067 0.0
C448 C 0.9051 0.56779 0.81995 0.0
C449 C 0.93564 0.60522 0.83032 0.0
C450 C 0.86705 0.56614 0.81442 0.0
C451 C 0.85933 0.60203 0.81916 0.0
C452 C 0.89221 0.64125 0.8265 0.0
C453 C 0.93029 0.64281 0.83215 0.0
H454 H 0.14081 0.68423 0.18231 0.0
H455 H 0.19887 0.63088 0.13837 0.0
H456 H 0.20474 0.75032 0.18743 0.0
H457 H 0.26223 0.69705 0.14297 0.0
H458 H 0.38078 0.794 0.17861 0.0
H459 H 0.31562 0.73184 0.16939 0.0
H460 H 0.25217 0.81278 0.17202 0.0
H461 H 0.3174 0.87496 0.18208 0.0
C462 C 0.16708 0.68695 0.17356 0.0
C463 C 0.16516 0.6525 0.16009 0.0
C464 C 0.20359 0.72481 0.17636 0.0
C465 C 0.23868 0.72884 0.16569 0.0
C466 C 0.23603 0.69473 0.15168 0.0
C467 C 0.19969 0.65692 0.14897 0.0
C468 C 0.35294 0.79854 0.17717 0.0
C469 C 0.35419 0.83932 0.18122 0.0
C470 C 0.31562 0.76297 0.17168 0.0
C471 C 0.27863 0.76732 0.17002 0.0
C472 C 0.28005 0.80831 0.1734 0.0
C473 C 0.31748 0.84398 0.17892 0.0
H474 H 0.57707 0.16357 0.52694 0.0
H475 H 0.47477 0.12395 0.48311 0.0
H476 H 0.58838 0.23785 0.52703 0.0
H477 H 0.48527 0.19801 0.48355 0.0
H478 H 0.48603 0.32565 0.51295 0.0
H479 H 0.47754 0.25222 0.50854 0.0
H480 H 0.60931 0.29725 0.50456 0.0
H481 H 0.61792 0.37082 0.50832 0.0
C482 C 0.55759 0.17082 0.51701 0.0
C483 C 0.52549 0.13797 0.5048 0.0
C484 C 0.56386 0.21336 0.51713 0.0
C485 C 0.53772 0.22392 0.50528 0.0
C486 C 0.50575 0.19098 0.49298 0.0
C487 C 0.49983 0.14857 0.49268 0.0
C488 C 0.5132 0.32011 0.51063 0.0
C489 C 0.55273 0.35458 0.51112 0.0
C490 C 0.5083 0.27784 0.50821 0.0
C491 C 0.54278 0.26882 0.50638 0.0
C492 C 0.58217 0.3031 0.50628 0.0
C493 C 0.58705 0.34535 0.50847 0.0
H494 H 0.41347 0.53256 0.79211 0.0
H495 H 0.37296 0.45528 0.8419 0.0
H496 H 0.34381 0.5257 0.78626 0.0
H497 H 0.30343 0.44981 0.83667 0.0
H498 H 0.18362 0.44914 0.82851 0.0
H499 H 0.23875 0.43046 0.81654 0.0
H500 H 0.31461 0.56306 0.80877 0.0
H501 H 0.25962 0.58109 0.82037 0.0
C502 C 0.38938 0.51368 0.80165 0.0
C503 C 0.39837 0.49543 0.81783 0.0
C504 C 0.34957 0.50952 0.7982 0.0
C505 C 0.31844 0.48785 0.81119 0.0
C506 C 0.32674 0.46644 0.82629 0.0
C507 C 0.36656 0.47002 0.82951 0.0
C508 C 0.21156 0.47374 0.82342 0.0
C509 C 0.21812 0.51656 0.8256 0.0
C510 C 0.24304 0.46316 0.8167 0.0
C511 C 0.2811 0.49536 0.81203 0.0
C512 C 0.28557 0.53741 0.8121 0.0
C513 C 0.25432 0.54793 0.81891 0.0
H514 H 0.92156 0.30144 0.17724 0.0
H515 H 0.86403 0.34655 0.13388 0.0
H516 H 0.85451 0.24358 0.18252 0.0
H517 H 0.79687 0.2882 0.13887 0.0
H518 H 0.68345 0.21917 0.1772 0.0
H519 H 0.74939 0.27106 0.16659 0.0
H520 H 0.79845 0.1778 0.16658 0.0
H521 H 0.73297 0.12638 0.17787 0.0
C522 C 0.89461 0.29849 0.1686 0.0
C523 C 0.89782 0.32843 0.15523 0.0
C524 C 0.85625 0.26525 0.17153 0.0
C525 C 0.82034 0.26139 0.16116 0.0
C526 C 0.82389 0.29064 0.14726 0.0
C527 C 0.86231 0.32384 0.14431 0.0
C528 C 0.70829 0.20973 0.17487 0.0
C529 C 0.70307 0.16878 0.17851 0.0
C530 C 0.74592 0.23929 0.16858 0.0
C531 C 0.7792 0.22858 0.16582 0.0
C532 C 0.77353 0.18715 0.16879 0.0
C533 C 0.73586 0.15755 0.17504 0.0
H534 H 0.9737 0.43025 0.08543 0.0
H535 H 0.1037 0.51697 0.0914 0.0
H536 H 0.97571 0.43018 0.04843 0.0
H537 H 0.10559 0.5168 0.0547 0.0
H538 H 0.104 0.48621 0.98743 0.0
H539 H 0.09676 0.46819 0.02235 0.0
H540 H 0.98724 0.48981 0.02604 0.0
H541 H 0.99482 0.50873 0.99133 0.0
C542 C 1.00275 0.44872 0.07883 0.0
C543 C 0.03845 0.47393 0.09124 0.0
C544 C 1.00384 0.44878 0.05773 0.0
C545 C 0.0408 0.47346 0.04879 0.0
C546 C 0.07681 0.49712 0.06119 0.0
C547 C 0.07561 0.49753 0.08221 0.0
C548 C 0.07832 0.48702 0.99568 0.0
C549 C 0.05035 0.49953 0.98674 0.0
C550 C 0.07406 0.47643 0.01557 0.0
C551 C 0.04157 0.47783 0.02684 0.0
C552 C 1.01229 0.48802 0.01758 0.0
C553 C 0.0167 0.49891 -0.00229 0.0
H554 H 0.47727 0.999 0.44106 0.0
H555 H 0.60745 0.08466 0.4442 0.0
H556 H 0.4753 0.99882 0.40429 0.0
H557 H 0.60606 0.083 0.40741 0.0
H558 H 0.58443 0.1027 0.34288 0.0
H559 H 0.58328 0.10595 0.3797 0.0
H560 H 0.49623 0.97264 0.37468 0.0
H561 H 0.49487 0.97034 0.33796 0.0
C562 C 0.50554 0.01749 0.43386 0.0
C563 C 0.5425 0.04182 0.44551 0.0
C564 C 0.50451 0.01724 0.41275 0.0
C565 C 0.54055 0.04081 0.40279 0.0
C566 C 0.57751 0.0651 0.41453 0.0
C567 C 0.57839 0.06584 0.43564 0.0
C568 C 0.56448 0.07427 0.34961 0.0
C569 C 0.53984 0.03623 0.33736 0.0
C570 C 0.5643 0.07595 0.37078 0.0
C571 C 0.53982 0.0395 0.38025 0.0
C572 C 0.51508 1.00153 0.36799 0.0
C573 C 0.51486 1.00001 0.34685 0.0
H574 H 0.64239 0.59278 0.76986 0.0
H575 H 0.5117 0.51022 0.76085 0.0
H576 H 0.64641 0.59954 0.73323 0.0
H577 H 0.51618 0.51615 0.72437 0.0
H578 H 0.56429 0.49805 0.65932 0.0
H579 H 0.56397 0.49381 0.69606 0.0
H580 H 0.60323 0.6298 0.70689 0.0
H581 H 0.60246 0.63393 0.67001 0.0
C582 C 0.61468 0.57595 0.76006 0.0
C583 C 0.57673 0.55104 0.76815 0.0
C584 C 0.61698 0.57999 0.73921 0.0
C585 C 0.58158 0.55831 0.72617 0.0
C586 C 0.54384 0.53304 0.73421 0.0
C587 C 0.54132 0.52981 0.75504 0.0
C588 C 0.57305 0.52701 0.66958 0.0
C589 C 0.58339 0.56631 0.66197 0.0
C590 C 0.57277 0.52456 0.6905 0.0
C591 C 0.58371 0.56151 0.70412 0.0
C592 C 0.59495 0.601 0.69657 0.0
C593 C 0.59431 0.60332 0.6756 0.0
H594 H 0.49151 0.01977 0.57596 0.0
H595 H 0.62303 0.05868 0.57425 0.0
H596 H 0.4953 0.01607 0.6126 0.0
H597 H 0.6264 0.05381 0.61085 0.0
H598 H 0.59079 0.98279 0.6713 0.0
H599 H 0.58755 0.98564 0.63437 0.0
H600 H 0.53955 0.07962 0.64384 0.0
H601 H 0.544 0.0777 0.6807 0.0
C602 C 0.52113 0.02726 0.58339 0.0
C603 C 0.55702 0.03965 0.57232 0.0
C604 C 0.52325 0.02524 0.6043 0.0
C605 C 0.56109 0.03458 0.61436 0.0
C606 C 0.59689 0.04632 0.6033 0.0
C607 C 0.59496 0.04933 0.58246 0.0
C608 C 0.57962 0.00399 0.66538 0.0
C609 C 0.56767 0.03008 0.6786 0.0
C610 C 0.57791 0.00573 0.6444 0.0
C611 C 0.56329 0.03282 0.63645 0.0
C612 C 0.55078 0.05842 0.64971 0.0
C613 C 0.5534 0.0574 0.67067 0.0
H614 H 0.48971 0.50352 0.89352 0.0
H615 H 0.62282 0.56663 0.90169 0.0
H616 H 0.48458 0.49843 0.93012 0.0
H617 H 0.61753 0.56183 0.93817 0.0
H618 H 0.58702 0.58464 0.00478 0.0
H619 H 0.58994 0.59178 0.96834 0.0
H620 H 0.50524 0.45853 0.95556 0.0
H621 H 0.50245 0.45133 0.99202 0.0
C622 C 0.51782 0.51658 0.90311 0.0
C623 C 0.55667 0.5354 0.89467 0.0
C624 C 0.51487 0.51343 0.92403 0.0
C625 C 0.55066 0.52972 0.93698 0.0
C626 C 0.58942 0.54927 0.92859 0.0
C627 C 0.59241 0.55179 0.90767 0.0
C628 C 0.56885 0.55697 0.99418 0.0
C629 C 0.54457 0.51741 0.00122 0.0
C630 C 0.57071 0.56099 0.97334 0.0
C631 C 0.5478 0.52572 0.95912 0.0
C632 C 0.52298 0.48632 0.96618 0.0
C633 C 0.52164 0.48213 0.98701 0.0
H634 H 1.00603 0.43044 0.2213 0.0
H635 H 0.07359 0.56748 0.22278 0.0
H636 H 1.00499 0.43767 0.25831 0.0
H637 H 0.07221 0.57452 0.25983 0.0
H638 H 1.01093 0.56672 0.32232 0.0
H639 H 0.01488 0.56017 0.28533 0.0
H640 H 0.05742 0.4626 0.28881 0.0
H641 H 0.05352 0.46919 0.32581 0.0
C642 C 0.02074 0.46209 0.22951 0.0
C643 C 0.03984 0.49841 0.2191 0.0
C644 C 0.0203 0.46615 0.25069 0.0
C645 C 0.03841 0.50664 0.26188 0.0
C646 C 0.05773 0.54296 0.25152 0.0
C647 C 0.05873 0.53887 0.23034 0.0
C648 C 0.02095 0.54378 0.31514 0.0
C649 C 0.03186 0.5184 0.32687 0.0
C650 C 0.02355 0.54031 0.29404 0.0
C651 C 0.03652 0.51095 0.28427 0.0
C652 C 0.04714 0.48534 0.29598 0.0
C653 C 0.04513 0.48927 0.31711 0.0
loop_
_geom_bond_atom_site_label_1
_geom_bond_atom_site_label_2
_geom_bond_distance
_geom_bond_site_symmetry_2
_ccdc_geom_bond_type
Tb0 O3 2.453 1_455 S
Tb0 O4 2.596 1_455 S
Tb0 O5 2.374 . S
Tb0 O13 2.343 . S
Tb0 O15 2.353 . S
Tb0 O17 2.427 . S
Tb0 O18 2.513 . S
C1 O5 1.251 . S
C1 O7 1.263 . S
Tb2 O4 2.343 1_455 S
Tb2 O7 2.353 . S
Tb2 O10 2.427 1_455 S
Tb2 O11 2.513 1_455 S
Tb2 O12 2.453 . S
Tb2 O13 2.596 . S
Tb2 O14 2.374 . S
O3 Tb0 2.453 1_655 S
O3 C19 1.245 . S
O4 Tb0 2.596 1_655 S
O4 Tb2 2.343 1_655 S
O4 C19 1.259 . S
O5 Tb0 2.374 . S
O5 C1 1.251 . S
C6 O10 1.275 . S
C6 O11 1.246 . S
O7 C1 1.263 . S
O7 Tb2 2.353 . S
C8 O12 1.245 . S
C8 O13 1.259 . S
C9 O14 1.250 . S
C9 O15 1.263 . S
O10 Tb2 2.427 1_655 S
O10 C6 1.275 . S
O11 Tb2 2.513 1_655 S
O11 C6 1.246 . S
O12 Tb2 2.453 . S
O12 C8 1.245 . S
O13 Tb0 2.343 . S
O13 Tb2 2.596 . S
O13 C8 1.259 . S
O14 Tb2 2.374 . S
O14 C9 1.250 . S
O15 Tb0 2.353 . S
O15 C9 1.263 . S
C16 O17 1.275 . S
C16 O18 1.246 . S
O17 Tb0 2.427 . S
O17 C16 1.275 . S
O18 Tb0 2.513 . S
O18 C16 1.246 . S
C19 O3 1.245 . S
C19 O4 1.259 . S
Tb20 O23 2.453 . S
Tb20 O24 2.596 . S
Tb20 O25 2.374 . S
Tb20 O33 2.343 1_545 S
Tb20 O35 2.353 . S
Tb20 O37 2.427 1_545 S
Tb20 O38 2.513 1_545 S
C21 O25 1.251 . S
C21 O27 1.263 . S
Tb22 O24 2.343 . S
Tb22 O27 2.353 . S
Tb22 O30 2.427 . S
Tb22 O31 2.513 . S
Tb22 O32 2.453 1_545 S
Tb22 O33 2.596 1_545 S
Tb22 O34 2.374 . S
O23 Tb20 2.453 . S
O23 C39 1.245 . S
O24 Tb20 2.596 . S
O24 Tb22 2.343 . S
O24 C39 1.259 . S
O25 Tb20 2.374 . S
O25 C21 1.251 . S
C26 O30 1.275 . S
C26 O31 1.246 . S
O27 C21 1.263 . S
O27 Tb22 2.353 . S
C28 O32 1.245 . S
C28 O33 1.259 . S
C29 O34 1.250 . S
C29 O35 1.263 . S
O30 Tb22 2.427 . S
O30 C26 1.275 . S
O31 Tb22 2.513 . S
O31 C26 1.246 . S
O32 Tb22 2.453 1_565 S
O32 C28 1.245 . S
O33 Tb20 2.343 1_565 S
O33 Tb22 2.596 1_565 S
O33 C28 1.259 . S
O34 Tb22 2.374 . S
O34 C29 1.250 . S
O35 Tb20 2.353 . S
O35 C29 1.263 . S
C36 O37 1.275 . S
C36 O38 1.246 . S
O37 Tb20 2.427 1_565 S
O37 C36 1.275 . S
O38 Tb20 2.513 1_565 S
O38 C36 1.246 . S
C39 O23 1.245 . S
C39 O24 1.259 . S
Tb40 O43 2.453 . S
Tb40 O44 2.596 . S
Tb40 O45 2.374 . S
Tb40 O53 2.343 . S
Tb40 O55 2.353 . S
Tb40 O57 2.427 . S
Tb40 O58 2.513 . S
C41 O45 1.251 . S
C41 O47 1.263 . S
Tb42 O44 2.343 . S
Tb42 O47 2.353 . S
Tb42 O50 2.427 . S
Tb42 O51 2.513 . S
Tb42 O52 2.453 . S
Tb42 O53 2.596 . S
Tb42 O54 2.374 . S
O43 Tb40 2.453 . S
O43 C59 1.245 . S
O44 Tb40 2.596 . S
O44 Tb42 2.343 . S
O44 C59 1.259 . S
O45 Tb40 2.374 . S
O45 C41 1.251 . S
C46 O50 1.275 . S
C46 O51 1.246 . S
O47 C41 1.263 . S
O47 Tb42 2.353 . S
C48 O52 1.245 . S
C48 O53 1.259 . S
C49 O54 1.250 . S
C49 O55 1.263 . S
O50 Tb42 2.427 . S
O50 C46 1.275 . S
O51 Tb42 2.513 . S
O51 C46 1.246 . S
O52 Tb42 2.453 . S
O52 C48 1.245 . S
O53 Tb40 2.343 . S
O53 Tb42 2.596 . S
O53 C48 1.259 . S
O54 Tb42 2.374 . S
O54 C49 1.250 . S
O55 Tb40 2.353 . S
O55 C49 1.263 . S
C56 O57 1.275 . S
C56 O58 1.246 . S
O57 Tb40 2.427 . S
O57 C56 1.275 . S
O58 Tb40 2.513 . S
O58 C56 1.246 . S
C59 O43 1.245 . S
C59 O44 1.259 . S
C60 C61 1.386 . S
C60 C62 1.397 . S
C60 H84 0.931 . S
C61 C60 1.386 . S
C61 C65 1.397 . S
C62 C60 1.397 . S
C62 C63 1.384 . S
C62 H85 0.930 . S
C63 C62 1.384 . S
C63 C64 1.377 . S
C63 C66 1.481 . S
C64 C63 1.377 . S
C64 C65 1.389 . S
C64 H86 0.929 1_545 S
C65 C61 1.397 . S
C65 C64 1.389 . S
C65 H87 0.931 1_545 S
C66 C63 1.481 . S
C66 C67 1.387 . S
C66 C71 1.390 . S
C67 C66 1.387 . S
C67 C68 1.401 . S
C67 H88 0.930 . S
C68 C67 1.401 . S
C68 C69 1.376 . S
C68 C77 1.511 . S
C69 C68 1.376 . S
C69 C70 1.392 . S
C69 H90 0.931 . S
C70 C69 1.392 . S
C70 C71 1.361 . S
C70 C72 1.500 1_545 S
C71 C66 1.390 . S
C71 C70 1.361 . S
C71 H89 0.931 1_545 S
C72 C70 1.500 1_565 S
C72 C73 1.371 . S
C72 C74 1.365 . S
C73 C72 1.371 . S
C73 C83 1.386 . S
C73 H91 0.931 . S
C74 C72 1.365 . S
C74 C75 1.409 . S
C74 H92 0.929 . S
C75 C74 1.409 . S
C75 C76 1.380 . S
C75 H93 0.930 . S
C76 C75 1.380 . S
C76 C83 1.357 . S
C77 C68 1.511 . S
C77 C78 1.341 . S
C77 C79 1.371 . S
C78 C77 1.341 . S
C78 C82 1.394 . S
C78 H94 0.930 . S
C79 C77 1.371 . S
C79 C80 1.392 . S
C79 H95 0.931 . S
C80 C79 1.392 . S
C80 C81 1.331 . S
C80 H98 0.932 . S
C81 C80 1.331 . S
C81 C82 1.336 . S
C82 C78 1.394 . S
C82 C81 1.336 . S
C82 H97 0.929 . S
C83 C73 1.386 . S
C83 C76 1.357 . S
C83 H96 0.928 . S
H84 C60 0.931 . S
H85 C62 0.930 . S
H86 C64 0.929 1_565 S
H87 C65 0.931 1_565 S
H88 C67 0.930 . S
H89 C71 0.931 1_565 S
H90 C69 0.931 . S
H91 C73 0.931 . S
H92 C74 0.929 . S
H93 C75 0.930 . S
H94 C78 0.930 . S
H95 C79 0.931 . S
H96 C83 0.928 . S
H97 C82 0.929 . S
H98 C80 0.932 . S
C99 C100 1.386 . S
C99 C101 1.397 . S
C99 H123 0.931 . S
C100 C99 1.386 . S
C100 C104 1.397 . S
C101 C99 1.397 . S
C101 C102 1.384 . S
C101 H124 0.930 . S
C102 C101 1.384 . S
C102 C103 1.377 . S
C102 C105 1.481 . S
C103 C102 1.377 . S
C103 C104 1.389 . S
C103 H125 0.929 . S
C104 C100 1.397 . S
C104 C103 1.389 . S
C104 H126 0.931 . S
C105 C102 1.481 . S
C105 C106 1.387 . S
C105 C110 1.390 . S
C106 C105 1.387 . S
C106 C107 1.401 . S
C106 H127 0.930 . S
C107 C106 1.401 . S
C107 C108 1.376 . S
C107 C116 1.511 . S
C108 C107 1.376 . S
C108 C109 1.392 . S
C108 H129 0.931 . S
C109 C108 1.392 . S
C109 C110 1.361 . S
C109 C111 1.500 . S
C110 C105 1.390 . S
C110 C109 1.361 . S
C110 H128 0.931 . S
C111 C109 1.500 . S
C111 C112 1.371 . S
C111 C113 1.365 . S
C112 C111 1.371 . S
C112 C122 1.386 . S
C112 H130 0.931 . S
C113 C111 1.365 . S
C113 C114 1.409 . S
C113 H131 0.929 . S
C114 C113 1.409 . S
C114 C115 1.380 . S
C114 H132 0.930 . S
C115 C114 1.380 . S
C115 C122 1.357 . S
C116 C107 1.511 . S
C116 C117 1.341 . S
C116 C118 1.371 . S
C117 C116 1.341 . S
C117 C121 1.394 . S
C117 H133 0.930 . S
C118 C116 1.371 . S
C118 C119 1.392 . S
C118 H134 0.931 . S
C119 C118 1.392 . S
C119 C120 1.331 . S
C119 H137 0.932 . S
C120 C119 1.331 . S
C120 C121 1.336 . S
C121 C117 1.394 . S
C121 C120 1.336 . S
C121 H136 0.929 . S
C122 C112 1.386 . S
C122 C115 1.357 . S
C122 H135 0.928 . S
H123 C99 0.931 . S
H124 C101 0.930 . S
H125 C103 0.929 . S
H126 C104 0.931 . S
H127 C106 0.930 . S
H128 C110 0.931 . S
H129 C108 0.931 . S
H130 C112 0.931 . S
H131 C113 0.929 . S
H132 C114 0.930 . S
H133 C117 0.930 . S
H134 C118 0.931 . S
H135 C122 0.928 . S
H136 C121 0.929 . S
H137 C119 0.932 . S
C138 C139 1.386 . S
C138 C140 1.397 . S
C138 H162 0.931 . S
C139 C138 1.386 . S
C139 C143 1.397 . S
C140 C138 1.397 . S
C140 C141 1.384 . S
C140 H163 0.930 . S
C141 C140 1.384 . S
C141 C142 1.377 . S
C141 C144 1.481 . S
C142 C141 1.377 . S
C142 C143 1.389 . S
C142 H164 0.929 . S
C143 C139 1.397 . S
C143 C142 1.389 . S
C143 H165 0.931 . S
C144 C141 1.481 . S
C144 C145 1.387 . S
C144 C149 1.390 . S
C145 C144 1.387 . S
C145 C146 1.401 . S
C145 H166 0.930 . S
C146 C145 1.401 . S
C146 C147 1.376 . S
C146 C155 1.511 . S
C147 C146 1.376 . S
C147 C148 1.392 . S
C147 H168 0.931 . S
C148 C147 1.392 . S
C148 C149 1.361 . S
C148 C150 1.500 . S
C149 C144 1.390 . S
C149 C148 1.361 . S
C149 H167 0.931 . S
C150 C148 1.500 . S
C150 C151 1.371 . S
C150 C152 1.365 1_455 S
C151 C150 1.371 . S
C151 C161 1.386 1_455 S
C151 H169 0.931 . S
C152 C150 1.365 1_655 S
C152 C153 1.409 . S
C152 H170 0.929 . S
C153 C152 1.409 . S
C153 C154 1.380 . S
C153 H171 0.930 . S
C154 C153 1.380 . S
C154 C161 1.357 . S
C155 C146 1.511 . S
C155 C156 1.341 . S
C155 C157 1.371 . S
C156 C155 1.341 . S
C156 C160 1.394 . S
C156 H172 0.930 . S
C157 C155 1.371 . S
C157 C158 1.392 . S
C157 H173 0.931 . S
C158 C157 1.392 . S
C158 C159 1.331 . S
C158 H176 0.932 . S
C159 C158 1.331 . S
C159 C160 1.336 . S
C160 C156 1.394 . S
C160 C159 1.336 . S
C160 H175 0.929 . S
C161 C151 1.386 1_655 S
C161 C154 1.357 . S
C161 H174 0.928 . S
H162 C138 0.931 . S
H163 C140 0.930 . S
H164 C142 0.929 . S
H165 C143 0.931 . S
H166 C145 0.930 . S
H167 C149 0.931 . S
H168 C147 0.931 . S
H169 C151 0.931 . S
H170 C152 0.929 . S
H171 C153 0.930 . S
H172 C156 0.930 . S
H173 C157 0.931 . S
H174 C161 0.928 . S
H175 C160 0.929 . S
H176 C158 0.932 . S
C177 C178 1.386 . S
C177 C179 1.397 . S
C177 H201 0.931 . S
C178 C177 1.386 . S
C178 C182 1.397 1_655 S
C179 C177 1.397 . S
C179 C180 1.384 . S
C179 H202 0.930 . S
C180 C179 1.384 . S
C180 C181 1.377 1_655 S
C180 C183 1.481 . S
C181 C180 1.377 1_455 S
C181 C182 1.389 . S
C181 H203 0.929 . S
C182 C178 1.397 1_455 S
C182 C181 1.389 . S
C182 H204 0.931 . S
C183 C180 1.481 . S
C183 C184 1.387 . S
C183 C188 1.390 1_655 S
C184 C183 1.387 . S
C184 C185 1.401 . S
C184 H205 0.930 . S
C185 C184 1.401 . S
C185 C186 1.363 1_655 S
C185 C194 1.511 . S
C186 C185 1.363 1_455 S
C186 C187 1.408 . S
C186 H207 0.930 . S
C187 C186 1.408 . S
C187 C188 1.361 . S
C187 C189 1.500 . S
C188 C183 1.390 1_455 S
C188 C187 1.361 . S
C188 H206 0.931 . S
C189 C187 1.500 . S
C189 C190 1.371 . S
C189 C191 1.365 . S
C190 C189 1.371 . S
C190 C200 1.386 . S
C190 H208 0.931 . S
C191 C189 1.365 . S
C191 C192 1.409 . S
C191 H209 0.929 . S
C192 C191 1.409 . S
C192 C193 1.380 . S
C192 H210 0.930 . S
C193 C192 1.380 . S
C193 C200 1.357 . S
C194 C185 1.511 . S
C194 C195 1.341 . S
C194 C196 1.371 . S
C195 C194 1.341 . S
C195 C199 1.394 . S
C195 H211 0.930 . S
C196 C194 1.371 . S
C196 C197 1.392 . S
C196 H212 0.931 . S
C197 C196 1.392 . S
C197 C198 1.331 . S
C197 H215 0.932 . S
C198 C197 1.331 . S
C198 C199 1.336 . S
C199 C195 1.394 . S
C199 C198 1.336 . S
C199 H214 0.929 . S
C200 C190 1.386 . S
C200 C193 1.357 . S
C200 H213 0.928 . S
H201 C177 0.931 . S
H202 C179 0.930 . S
H203 C181 0.929 . S
H204 C182 0.931 . S
H205 C184 0.930 . S
H206 C188 0.931 . S
H207 C186 0.930 . S
H208 C190 0.931 . S
H209 C191 0.929 . S
H210 C192 0.930 . S
H211 C195 0.930 . S
H212 C196 0.931 . S
H213 C200 0.928 . S
H214 C199 0.929 . S
H215 C197 0.932 . S
C216 C217 1.386 1_565 S
C216 C218 1.397 . S
C216 H240 0.931 . S
C217 C216 1.386 1_545 S
C217 C221 1.397 . S
C218 C216 1.397 . S
C218 C219 1.384 1_565 S
C218 H241 0.930 . S
C219 C218 1.384 1_545 S
C219 C220 1.377 . S
C219 C222 1.481 . S
C220 C219 1.377 . S
C220 C221 1.389 . S
C220 H242 0.929 . S
C221 C217 1.397 . S
C221 C220 1.389 . S
C221 H243 0.931 . S
C222 C219 1.481 . S
C222 C223 1.387 1_545 S
C222 C227 1.390 . S
C223 C222 1.387 1_565 S
C223 C224 1.401 . S
C223 H244 0.930 . S
C224 C223 1.401 . S
C224 C225 1.376 1_565 S
C224 C233 1.511 . S
C225 C224 1.376 1_545 S
C225 C226 1.392 . S
C225 H246 0.931 . S
C226 C225 1.392 . S
C226 C227 1.361 . S
C226 C228 1.500 . S
C227 C222 1.390 . S
C227 C226 1.361 . S
C227 H245 0.931 . S
C228 C226 1.500 . S
C228 C229 1.371 . S
C228 C230 1.365 . S
C229 C228 1.371 . S
C229 C239 1.386 . S
C229 H247 0.931 . S
C230 C228 1.365 . S
C230 C231 1.409 . S
C230 H248 0.929 . S
C231 C230 1.409 . S
C231 C232 1.380 . S
C231 H249 0.930 . S
C232 C231 1.380 . S
C232 C239 1.357 . S
C233 C224 1.511 . S
C233 C234 1.341 . S
C233 C235 1.371 . S
C234 C233 1.341 . S
C234 C238 1.394 . S
C234 H250 0.930 . S
C235 C233 1.371 . S
C235 C236 1.392 . S
C235 H251 0.931 . S
C236 C235 1.392 . S
C236 C237 1.331 . S
C236 H254 0.932 . S
C237 C236 1.331 . S
C237 C238 1.336 . S
C238 C234 1.394 . S
C238 C237 1.336 . S
C238 H253 0.929 . S
C239 C229 1.386 . S
C239 C232 1.357 . S
C239 H252 0.928 . S
H240 C216 0.931 . S
H241 C218 0.930 . S
H242 C220 0.929 . S
H243 C221 0.931 . S
H244 C223 0.930 . S
H245 C227 0.931 . S
H246 C225 0.931 . S
H247 C229 0.931 . S
H248 C230 0.929 . S
H249 C231 0.930 . S
H250 C234 0.930 . S
H251 C235 0.931 . S
H252 C239 0.928 . S
H253 C238 0.929 . S
H254 C236 0.932 . S
C255 C256 1.386 . S
C255 C257 1.397 . S
C255 H279 0.931 . S
C256 C255 1.386 . S
C256 C260 1.397 . S
C257 C255 1.397 . S
C257 C258 1.384 . S
C257 H280 0.930 . S
C258 C257 1.384 . S
C258 C259 1.377 . S
C258 C261 1.481 . S
C259 C258 1.377 . S
C259 C260 1.389 . S
C259 H281 0.929 . S
C260 C256 1.397 . S
C260 C259 1.389 . S
C260 H282 0.931 . S
C261 C258 1.481 . S
C261 C262 1.387 . S
C261 C266 1.390 . S
C262 C261 1.387 . S
C262 C263 1.401 . S
C262 H283 0.930 . S
C263 C262 1.401 . S
C263 C264 1.376 . S
C263 C272 1.511 . S
C264 C263 1.376 . S
C264 C265 1.392 . S
C264 H285 0.931 . S
C265 C264 1.392 . S
C265 C266 1.361 . S
C265 C267 1.500 . S
C266 C261 1.390 . S
C266 C265 1.361 . S
C266 H284 0.931 . S
C267 C265 1.500 . S
C267 C268 1.371 . S
C267 C269 1.365 . S
C268 C267 1.371 . S
C268 C278 1.386 . S
C268 H286 0.931 . S
C269 C267 1.365 . S
C269 C270 1.409 . S
C269 H287 0.929 . S
C270 C269 1.409 . S
C270 C271 1.380 . S
C270 H288 0.930 . S
C271 C270 1.380 . S
C271 C278 1.357 . S
C272 C263 1.511 . S
C272 C273 1.341 . S
C272 C274 1.371 . S
C273 C272 1.341 . S
C273 C277 1.394 . S
C273 H289 0.930 . S
C274 C272 1.371 . S
C274 C275 1.392 . S
C274 H290 0.931 . S
C275 C274 1.392 . S
C275 C276 1.331 . S
C275 H293 0.932 . S
C276 C275 1.331 . S
C276 C277 1.336 . S
C277 C273 1.394 . S
C277 C276 1.336 . S
C277 H292 0.929 . S
C278 C268 1.386 . S
C278 C271 1.357 . S
C278 H291 0.928 . S
H279 C255 0.931 . S
H280 C257 0.930 . S
H281 C259 0.929 . S
H282 C260 0.931 . S
H283 C262 0.930 . S
H284 C266 0.931 . S
H285 C264 0.931 . S
H286 C268 0.931 . S
H287 C269 0.929 . S
H288 C270 0.930 . S
H289 C273 0.930 . S
H290 C274 0.931 . S
H291 C278 0.928 . S
H292 C277 0.929 . S
H293 C275 0.932 . S
H294 C302 0.950 . S
H295 C307 0.950 . S
H296 C304 0.950 . S
H297 C306 0.950 . S
H298 C308 0.950 . S
H299 C310 0.950 . S
H300 C312 0.950 . S
H301 C313 0.950 . S
C302 H294 0.950 . S
C302 C303 1.386 . S
C302 C304 1.391 . S
C303 C302 1.386 . S
C303 C307 1.393 . S
C304 H296 0.950 . S
C304 C302 1.391 . S
C304 C305 1.400 . S
C305 C304 1.400 . S
C305 C306 1.398 . S
C305 C311 1.491 . S
C306 H297 0.950 . S
C306 C305 1.398 . S
C306 C307 1.391 . S
C307 H295 0.950 . S
C307 C303 1.393 . S
C307 C306 1.391 . S
C308 H298 0.950 . S
C308 C309 1.386 . S
C308 C310 1.391 . S
C309 C308 1.386 . S
C309 C313 1.393 . S
C310 H299 0.950 . S
C310 C308 1.391 . S
C310 C311 1.400 . S
C311 C305 1.491 . S
C311 C310 1.400 . S
C311 C312 1.398 . S
C312 H300 0.950 . S
C312 C311 1.398 . S
C312 C313 1.391 . S
C313 H301 0.950 . S
C313 C309 1.393 . S
C313 C312 1.391 . S
H314 C322 0.950 . S
H315 C327 0.950 . S
H316 C324 0.950 . S
H317 C326 0.950 . S
H318 C328 0.950 . S
H319 C330 0.950 . S
H320 C332 0.950 . S
H321 C333 0.950 . S
C322 H314 0.950 . S
C322 C323 1.386 . S
C322 C324 1.391 . S
C323 C322 1.386 . S
C323 C327 1.393 . S
C324 H316 0.950 . S
C324 C322 1.391 . S
C324 C325 1.400 . S
C325 C324 1.400 . S
C325 C326 1.398 . S
C325 C331 1.491 . S
C326 H317 0.950 . S
C326 C325 1.398 . S
C326 C327 1.391 . S
C327 H315 0.950 . S
C327 C323 1.393 . S
C327 C326 1.391 . S
C328 H318 0.950 . S
C328 C329 1.386 . S
C328 C330 1.391 . S
C329 C328 1.386 . S
C329 C333 1.393 . S
C330 H319 0.950 . S
C330 C328 1.391 . S
C330 C331 1.400 . S
C331 C325 1.491 . S
C331 C330 1.400 . S
C331 C332 1.398 . S
C332 H320 0.950 . S
C332 C331 1.398 . S
C332 C333 1.391 . S
C333 H321 0.950 . S
C333 C329 1.393 . S
C333 C332 1.391 . S
H334 C342 0.950 . S
H335 C347 0.950 . S
H336 C344 0.950 . S
H337 C346 0.950 . S
H338 C348 0.950 . S
H339 C350 0.950 . S
H340 C352 0.950 . S
H341 C353 0.950 . S
C342 H334 0.950 . S
C342 C343 1.386 . S
C342 C344 1.391 . S
C343 C342 1.386 . S
C343 C347 1.393 . S
C344 H336 0.950 . S
C344 C342 1.391 . S
C344 C345 1.400 . S
C345 C344 1.400 . S
C345 C346 1.398 . S
C345 C351 1.491 . S
C346 H337 0.950 . S
C346 C345 1.398 . S
C346 C347 1.391 . S
C347 H335 0.950 . S
C347 C343 1.393 . S
C347 C346 1.391 . S
C348 H338 0.950 . S
C348 C349 1.386 . S
C348 C350 1.391 . S
C349 C348 1.386 . S
C349 C353 1.393 . S
C350 H339 0.950 . S
C350 C348 1.391 . S
C350 C351 1.400 . S
C351 C345 1.491 . S
C351 C350 1.400 . S
C351 C352 1.398 . S
C352 H340 0.950 . S
C352 C351 1.398 . S
C352 C353 1.391 . S
C353 H341 0.950 . S
C353 C349 1.393 . S
C353 C352 1.391 . S
H354 C362 0.950 . S
H355 C367 0.950 . S
H356 C364 0.950 . S
H357 C366 0.950 . S
H358 C368 0.950 . S
H359 C370 0.950 . S
H360 C372 0.950 . S
H361 C373 0.950 . S
C362 H354 0.950 . S
C362 C363 1.386 . S
C362 C364 1.391 . S
C363 C362 1.386 . S
C363 C367 1.393 . S
C364 H356 0.950 . S
C364 C362 1.391 . S
C364 C365 1.400 . S
C365 C364 1.400 . S
C365 C366 1.398 . S
C365 C371 1.491 . S
C366 H357 0.950 . S
C366 C365 1.398 . S
C366 C367 1.391 . S
C367 H355 0.950 . S
C367 C363 1.393 . S
C367 C366 1.391 . S
C368 H358 0.950 . S
C368 C369 1.386 . S
C368 C370 1.391 . S
C369 C368 1.386 . S
C369 C373 1.393 . S
C370 H359 0.950 . S
C370 C368 1.391 . S
C370 C371 1.400 . S
C371 C365 1.491 . S
C371 C370 1.400 . S
C371 C372 1.398 . S
C372 H360 0.950 . S
C372 C371 1.398 . S
C372 C373 1.391 . S
C373 H361 0.950 . S
C373 C369 1.393 . S
C373 C372 1.391 . S
H374 C382 0.950 . S
H375 C387 0.950 . S
H376 C384 0.950 . S
H377 C386 0.950 . S
H378 C388 0.950 . S
H379 C390 0.950 . S
H380 C392 0.950 . S
H381 C393 0.950 . S
C382 H374 0.950 . S
C382 C383 1.386 . S
C382 C384 1.391 . S
C383 C382 1.386 . S
C383 C387 1.393 . S
C384 H376 0.950 . S
C384 C382 1.391 . S
C384 C385 1.400 . S
C385 C384 1.400 . S
C385 C386 1.398 . S
C385 C391 1.491 . S
C386 H377 0.950 . S
C386 C385 1.398 . S
C386 C387 1.391 . S
C387 H375 0.950 . S
C387 C383 1.393 . S
C387 C386 1.391 . S
C388 H378 0.950 . S
C388 C389 1.386 . S
C388 C390 1.391 . S
C389 C388 1.386 . S
C389 C393 1.393 . S
C390 H379 0.950 . S
C390 C388 1.391 . S
C390 C391 1.400 . S
C391 C385 1.491 . S
C391 C390 1.400 . S
C391 C392 1.398 . S
C392 H380 0.950 . S
C392 C391 1.398 . S
C392 C393 1.391 . S
C393 H381 0.950 . S
C393 C389 1.393 . S
C393 C392 1.391 . S
H394 C402 0.950 . S
H395 C407 0.950 . S
H396 C404 0.950 . S
H397 C406 0.950 . S
H398 C408 0.950 . S
H399 C410 0.950 . S
H400 C412 0.950 . S
H401 C413 0.950 . S
C402 H394 0.950 . S
C402 C403 1.386 . S
C402 C404 1.391 . S
C403 C402 1.386 . S
C403 C407 1.393 . S
C404 H396 0.950 . S
C404 C402 1.391 . S
C404 C405 1.400 . S
C405 C404 1.400 . S
C405 C406 1.398 . S
C405 C411 1.491 . S
C406 H397 0.950 . S
C406 C405 1.398 . S
C406 C407 1.391 . S
C407 H395 0.950 . S
C407 C403 1.393 . S
C407 C406 1.391 . S
C408 H398 0.950 . S
C408 C409 1.386 . S
C408 C410 1.391 . S
C409 C408 1.386 . S
C409 C413 1.393 . S
C410 H399 0.950 . S
C410 C408 1.391 . S
C410 C411 1.400 . S
C411 C405 1.491 . S
C411 C410 1.400 . S
C411 C412 1.398 . S
C412 H400 0.950 . S
C412 C411 1.398 . S
C412 C413 1.391 . S
C413 H401 0.950 . S
C413 C409 1.393 . S
C413 C412 1.391 . S
H414 C422 0.950 . S
H415 C427 0.950 . S
H416 C424 0.950 . S
H417 C426 0.950 . S
H418 C428 0.950 . S
H419 C430 0.950 . S
H420 C432 0.950 . S
H421 C433 0.950 . S
C422 H414 0.950 . S
C422 C423 1.386 . S
C422 C424 1.391 . S
C423 C422 1.386 . S
C423 C427 1.393 . S
C424 H416 0.950 . S
C424 C422 1.391 . S
C424 C425 1.400 . S
C425 C424 1.400 . S
C425 C426 1.398 . S
C425 C431 1.491 . S
C426 H417 0.950 . S
C426 C425 1.398 . S
C426 C427 1.391 . S
C427 H415 0.950 . S
C427 C423 1.393 . S
C427 C426 1.391 . S
C428 H418 0.950 . S
C428 C429 1.386 . S
C428 C430 1.391 . S
C429 C428 1.386 . S
C429 C433 1.393 . S
C430 H419 0.950 . S
C430 C428 1.391 . S
C430 C431 1.400 . S
C431 C425 1.491 . S
C431 C430 1.400 . S
C431 C432 1.398 . S
C432 H420 0.950 . S
C432 C431 1.398 . S
C432 C433 1.391 . S
C433 H421 0.950 . S
C433 C429 1.393 . S
C433 C432 1.391 . S
H434 C442 0.950 . S
H435 C447 0.950 . S
H436 C444 0.950 . S
H437 C446 0.950 . S
H438 C448 0.950 . S
H439 C450 0.950 . S
H440 C452 0.950 . S
H441 C453 0.950 . S
C442 H434 0.950 . S
C442 C443 1.386 . S
C442 C444 1.391 . S
C443 C442 1.386 . S
C443 C447 1.393 . S
C444 H436 0.950 . S
C444 C442 1.391 . S
C444 C445 1.400 . S
C445 C444 1.400 . S
C445 C446 1.398 . S
C445 C451 1.491 . S
C446 H437 0.950 . S
C446 C445 1.398 . S
C446 C447 1.391 . S
C447 H435 0.950 . S
C447 C443 1.393 . S
C447 C446 1.391 . S
C448 H438 0.950 . S
C448 C449 1.386 . S
C448 C450 1.391 . S
C449 C448 1.386 . S
C449 C453 1.393 . S
C450 H439 0.950 . S
C450 C448 1.391 . S
C450 C451 1.400 . S
C451 C445 1.491 . S
C451 C450 1.400 . S
C451 C452 1.398 . S
C452 H440 0.950 . S
C452 C451 1.398 . S
C452 C453 1.391 . S
C453 H441 0.950 . S
C453 C449 1.393 . S
C453 C452 1.391 . S
H454 C462 0.950 . S
H455 C467 0.950 . S
H456 C464 0.950 . S
H457 C466 0.950 . S
H458 C468 0.950 . S
H459 C470 0.950 . S
H460 C472 0.950 . S
H461 C473 0.950 . S
C462 H454 0.950 . S
C462 C463 1.386 . S
C462 C464 1.391 . S
C463 C462 1.386 . S
C463 C467 1.393 . S
C464 H456 0.950 . S
C464 C462 1.391 . S
C464 C465 1.400 . S
C465 C464 1.400 . S
C465 C466 1.398 . S
C465 C471 1.491 . S
C466 H457 0.950 . S
C466 C465 1.398 . S
C466 C467 1.391 . S
C467 H455 0.950 . S
C467 C463 1.393 . S
C467 C466 1.391 . S
C468 H458 0.950 . S
C468 C469 1.386 . S
C468 C470 1.391 . S
C469 C468 1.386 . S
C469 C473 1.393 . S
C470 H459 0.950 . S
C470 C468 1.391 . S
C470 C471 1.400 . S
C471 C465 1.491 . S
C471 C470 1.400 . S
C471 C472 1.398 . S
C472 H460 0.950 . S
C472 C471 1.398 . S
C472 C473 1.391 . S
C473 H461 0.950 . S
C473 C469 1.393 . S
C473 C472 1.391 . S
H474 C482 0.950 . S
H475 C487 0.950 . S
H476 C484 0.950 . S
H477 C486 0.950 . S
H478 C488 0.950 . S
H479 C490 0.950 . S
H480 C492 0.950 . S
H481 C493 0.950 . S
C482 H474 0.950 . S
C482 C483 1.386 . S
C482 C484 1.391 . S
C483 C482 1.386 . S
C483 C487 1.393 . S
C484 H476 0.950 . S
C484 C482 1.391 . S
C484 C485 1.400 . S
C485 C484 1.400 . S
C485 C486 1.398 . S
C485 C491 1.491 . S
C486 H477 0.950 . S
C486 C485 1.398 . S
C486 C487 1.391 . S
C487 H475 0.950 . S
C487 C483 1.393 . S
C487 C486 1.391 . S
C488 H478 0.950 . S
C488 C489 1.386 . S
C488 C490 1.391 . S
C489 C488 1.386 . S
C489 C493 1.393 . S
C490 H479 0.950 . S
C490 C488 1.391 . S
C490 C491 1.400 . S
C491 C485 1.491 . S
C491 C490 1.400 . S
C491 C492 1.398 . S
C492 H480 0.950 . S
C492 C491 1.398 . S
C492 C493 1.391 . S
C493 H481 0.950 . S
C493 C489 1.393 . S
C493 C492 1.391 . S
H494 C502 0.950 . S
H495 C507 0.950 . S
H496 C504 0.950 . S
H497 C506 0.950 . S
H498 C508 0.950 . S
H499 C510 0.950 . S
H500 C512 0.950 . S
H501 C513 0.950 . S
C502 H494 0.950 . S
C502 C503 1.386 . S
C502 C504 1.391 . S
C503 C502 1.386 . S
C503 C507 1.393 . S
C504 H496 0.950 . S
C504 C502 1.391 . S
C504 C505 1.400 . S
C505 C504 1.400 . S
C505 C506 1.398 . S
C505 C511 1.491 . S
C506 H497 0.950 . S
C506 C505 1.398 . S
C506 C507 1.391 . S
C507 H495 0.950 . S
C507 C503 1.393 . S
C507 C506 1.391 . S
C508 H498 0.950 . S
C508 C509 1.386 . S
C508 C510 1.391 . S
C509 C508 1.386 . S
C509 C513 1.393 . S
C510 H499 0.950 . S
C510 C508 1.391 . S
C510 C511 1.400 . S
C511 C505 1.491 . S
C511 C510 1.400 . S
C511 C512 1.398 . S
C512 H500 0.950 . S
C512 C511 1.398 . S
C512 C513 1.391 . S
C513 H501 0.950 . S
C513 C509 1.393 . S
C513 C512 1.391 . S
H514 C522 0.950 . S
H515 C527 0.950 . S
H516 C524 0.950 . S
H517 C526 0.950 . S
H518 C528 0.950 . S
H519 C530 0.950 . S
H520 C532 0.950 . S
H521 C533 0.950 . S
C522 H514 0.950 . S
C522 C523 1.386 . S
C522 C524 1.391 . S
C523 C522 1.386 . S
C523 C527 1.393 . S
C524 H516 0.950 . S
C524 C522 1.391 . S
C524 C525 1.400 . S
C525 C524 1.400 . S
C525 C526 1.398 . S
C525 C531 1.491 . S
C526 H517 0.950 . S
C526 C525 1.398 . S
C526 C527 1.391 . S
C527 H515 0.950 . S
C527 C523 1.393 . S
C527 C526 1.391 . S
C528 H518 0.950 . S
C528 C529 1.386 . S
C528 C530 1.391 . S
C529 C528 1.386 . S
C529 C533 1.393 . S
C530 H519 0.950 . S
C530 C528 1.391 . S
C530 C531 1.400 . S
C531 C525 1.491 . S
C531 C530 1.400 . S
C531 C532 1.398 . S
C532 H520 0.950 . S
C532 C531 1.398 . S
C532 C533 1.391 . S
C533 H521 0.950 . S
C533 C529 1.393 . S
C533 C532 1.391 . S
H534 C542 0.950 1_655 S
H535 C547 0.950 . S
H536 C544 0.950 1_655 S
H537 C546 0.950 . S
H538 C548 0.950 . S
H539 C550 0.950 . S
H540 C552 0.950 1_655 S
H541 C553 0.950 1_556 S
C542 H534 0.950 1_455 S
C542 C543 1.386 . S
C542 C544 1.391 . S
C543 C542 1.386 . S
C543 C547 1.393 . S
C544 H536 0.950 1_455 S
C544 C542 1.391 . S
C544 C545 1.400 . S
C545 C544 1.400 . S
C545 C546 1.398 . S
C545 C551 1.491 . S
C546 H537 0.950 . S
C546 C545 1.398 . S
C546 C547 1.391 . S
C547 H535 0.950 . S
C547 C543 1.393 . S
C547 C546 1.391 . S
C548 H538 0.950 . S
C548 C549 1.386 1_554 S
C548 C550 1.391 . S
C549 C548 1.386 1_556 S
C549 C553 1.393 1_556 S
C550 H539 0.950 . S
C550 C548 1.391 . S
C550 C551 1.400 . S
C551 C545 1.491 . S
C551 C550 1.400 . S
C551 C552 1.398 . S
C552 H540 0.950 1_455 S
C552 C551 1.398 . S
C552 C553 1.391 . S
C553 H541 0.950 1_554 S
C553 C549 1.393 1_554 S
C553 C552 1.391 . S
H554 C562 0.950 . S
H555 C567 0.950 . S
H556 C564 0.950 . S
H557 C566 0.950 . S
H558 C568 0.950 . S
H559 C570 0.950 . S
H560 C572 0.950 . S
H561 C573 0.950 . S
C562 H554 0.950 . S
C562 C563 1.386 . S
C562 C564 1.391 . S
C563 C562 1.386 . S
C563 C567 1.393 . S
C564 H556 0.950 . S
C564 C562 1.391 . S
C564 C565 1.400 . S
C565 C564 1.400 . S
C565 C566 1.398 . S
C565 C571 1.491 . S
C566 H557 0.950 . S
C566 C565 1.398 . S
C566 C567 1.391 . S
C567 H555 0.950 . S
C567 C563 1.393 . S
C567 C566 1.391 . S
C568 H558 0.950 . S
C568 C569 1.386 . S
C568 C570 1.391 . S
C569 C568 1.386 . S
C569 C573 1.393 . S
C570 H559 0.950 . S
C570 C568 1.391 . S
C570 C571 1.400 . S
C571 C565 1.491 . S
C571 C570 1.400 . S
C571 C572 1.398 . S
C572 H560 0.950 . S
C572 C571 1.398 . S
C572 C573 1.391 . S
C573 H561 0.950 . S
C573 C569 1.393 . S
C573 C572 1.391 . S
H574 C582 0.950 . S
H575 C587 0.950 . S
H576 C584 0.950 . S
H577 C586 0.950 . S
H578 C588 0.950 . S
H579 C590 0.950 . S
H580 C592 0.950 . S
H581 C593 0.950 . S
C582 H574 0.950 . S
C582 C583 1.386 . S
C582 C584 1.391 . S
C583 C582 1.386 . S
C583 C587 1.393 . S
C584 H576 0.950 . S
C584 C582 1.391 . S
C584 C585 1.400 . S
C585 C584 1.400 . S
C585 C586 1.398 . S
C585 C591 1.491 . S
C586 H577 0.950 . S
C586 C585 1.398 . S
C586 C587 1.391 . S
C587 H575 0.950 . S
C587 C583 1.393 . S
C587 C586 1.391 . S
C588 H578 0.950 . S
C588 C589 1.386 . S
C588 C590 1.391 . S
C589 C588 1.386 . S
C589 C593 1.393 . S
C590 H579 0.950 . S
C590 C588 1.391 . S
C590 C591 1.400 . S
C591 C585 1.491 . S
C591 C590 1.400 . S
C591 C592 1.398 . S
C592 H580 0.950 . S
C592 C591 1.398 . S
C592 C593 1.391 . S
C593 H581 0.950 . S
C593 C589 1.393 . S
C593 C592 1.391 . S
H594 C602 0.950 . S
H595 C607 0.950 1_565 S
H596 C604 0.950 . S
H597 C606 0.950 1_565 S
H598 C608 0.950 . S
H599 C610 0.950 1_565 S
H600 C612 0.950 . S
H601 C613 0.950 . S
C602 H594 0.950 . S
C602 C603 1.386 . S
C602 C604 1.391 . S
C603 C602 1.386 . S
C603 C607 1.393 . S
C604 H596 0.950 . S
C604 C602 1.391 . S
C604 C605 1.400 . S
C605 C604 1.400 . S
C605 C606 1.398 . S
C605 C611 1.491 . S
C606 H597 0.950 1_545 S
C606 C605 1.398 . S
C606 C607 1.391 . S
C607 H595 0.950 1_545 S
C607 C603 1.393 . S
C607 C606 1.391 . S
C608 H598 0.950 . S
C608 C609 1.386 1_565 S
C608 C610 1.391 1_565 S
C609 C608 1.386 1_545 S
C609 C613 1.393 . S
C610 H599 0.950 1_545 S
C610 C608 1.391 1_545 S
C610 C611 1.400 . S
C611 C605 1.491 . S
C611 C610 1.400 . S
C611 C612 1.398 . S
C612 H600 0.950 . S
C612 C611 1.398 . S
C612 C613 1.391 . S
C613 H601 0.950 . S
C613 C609 1.393 . S
C613 C612 1.391 . S
H614 C622 0.950 . S
H615 C627 0.950 . S
H616 C624 0.950 . S
H617 C626 0.950 . S
H618 C628 0.950 1_554 S
H619 C630 0.950 . S
H620 C632 0.950 . S
H621 C633 0.950 . S
C622 H614 0.950 . S
C622 C623 1.386 . S
C622 C624 1.391 . S
C623 C622 1.386 . S
C623 C627 1.393 . S
C624 H616 0.950 . S
C624 C622 1.391 . S
C624 C625 1.400 . S
C625 C624 1.400 . S
C625 C626 1.398 . S
C625 C631 1.491 . S
C626 H617 0.950 . S
C626 C625 1.398 . S
C626 C627 1.391 . S
C627 H615 0.950 . S
C627 C623 1.393 . S
C627 C626 1.391 . S
C628 H618 0.950 1_556 S
C628 C629 1.377 1_556 S
C628 C630 1.391 . S
C629 C628 1.377 1_554 S
C629 C633 1.377 1_554 S
C630 H619 0.950 . S
C630 C628 1.391 . S
C630 C631 1.400 . S
C631 C625 1.491 . S
C631 C630 1.400 . S
C631 C632 1.398 . S
C632 H620 0.950 . S
C632 C631 1.398 . S
C632 C633 1.391 . S
C633 H621 0.950 . S
C633 C629 1.377 1_556 S
C633 C632 1.391 . S
H634 C642 0.950 . S
H635 C647 0.950 . S
H636 C644 0.950 . S
H637 C646 0.950 . S
H638 C648 0.950 . S
H639 C650 0.950 . S
H640 C652 0.950 . S
H641 C653 0.950 . S
C642 H634 0.950 . S
C642 C643 1.386 . S
C642 C644 1.391 . S
C643 C642 1.386 . S
C643 C647 1.393 . S
C644 H636 0.950 . S
C644 C642 1.391 . S
C644 C645 1.400 . S
C645 C644 1.400 . S
C645 C646 1.398 . S
C645 C651 1.491 . S
C646 H637 0.950 . S
C646 C645 1.398 . S
C646 C647 1.391 . S
C647 H635 0.950 . S
C647 C643 1.393 . S
C647 C646 1.391 . S
C648 H638 0.950 . S
C648 C649 1.386 1_455 S
C648 C650 1.391 . S
C649 C648 1.386 1_655 S
C649 C653 1.392 . S
C650 H639 0.950 . S
C650 C648 1.391 . S
C650 C651 1.400 . S
C651 C645 1.491 . S
C651 C650 1.400 . S
C651 C652 1.398 1_455 S
C652 H640 0.950 . S
C652 C651 1.398 1_655 S
C652 C653 1.391 . S
C653 H641 0.950 . S
C653 C649 1.392 . S
C653 C652 1.391 . S
C303 C8 2.021 . S
C309 C271 2.079 . S
C323 C26 1.347 . S
C329 C198 1.337 . S
C343 C48 1.497 . S
C349 C237 1.543 . S
C363 C19 1.819 . S
C369 C276 1.854 . S
C389 C193 1.515 . S
C383 C36 1.526 . S
C409 C232 1.767 . S
C403 C59 1.729 . S
C423 C28 1.541 . S
C429 C120 1.569 . S
C443 C46 1.261 . S
C449 C154 1.264 . S
C463 C16 1.595 . S
C469 C76 1.607 . S
C489 C115 1.711 . S
C483 C39 1.702 . S
C509 C159 1.014 . S
C503 C56 1.014 . S
C523 C6 1.394 . S
C529 C81 1.383 . S
C549 C139 1.434 . S
C543 C9 1.394 . S
C563 C21 1.507 . S
C569 C61 1.510 . S
C583 C49 1.468 . S
C589 C100 1.491 . S
C609 C217 1.470 . S
C603 C29 1.469 . S
C629 C256 1.617 . S
C623 C41 1.578 . S
C643 C1 1.491 . S
C649 C178 1.514 . S
