# Generated by pormake.
# Topology nom, (4,4)-cn, num edge types: 1
# Building blocks:
#     Node 0, Type 0, BuildingBlock: MIFKUJ_clean_linker_1, # of connection points: 4
#     Node 1, Type 0, BuildingBlock: MIFKUJ_clean_linker_1, # of connection points: 4
#     Node 2, Type 0, BuildingBlock: MIFKUJ_clean_linker_1, # of connection points: 4
#     Node 3, Type 0, BuildingBlock: MIFKUJ_clean_linker_1, # of connection points: 4
#     Node 4, Type 0, BuildingBlock: MIFKUJ_clean_linker_1, # of connection points: 4
#     Node 5, Type 0, BuildingBlock: MIFKUJ_clean_linker_1, # of connection points: 4
#     Node 6, Type 1, BuildingBlock: QUQFOY_clean_sbu_1, # of connection points: 4
#     Node 7, Type 1, BuildingBlock: QUQFOY_clean_sbu_1, # of connection points: 4
#     Node 8, Type 1, BuildingBlock: QUQFOY_clean_sbu_1, # of connection points: 4
#     Node 9, Type 1, BuildingBlock: QUQFOY_clean_sbu_1, # of connection points: 4
#     Node 10, Type 1, BuildingBlock: QUQFOY_clean_sbu_1, # of connection points: 4
#     Node 11, Type 1, BuildingBlock: QUQFOY_clean_sbu_1, # of connection points: 4
#     Edge 12, Type (0, 1), BuildingBlock: CIFDUS_clean_linker_0, # of connection points: 2
#     Edge 13, Type (0, 1), BuildingBlock: CIFDUS_clean_linker_0, # of connection points: 2
#     Edge 14, Type (0, 1), BuildingBlock: CIFDUS_clean_linker_0, # of connection points: 2
#     Edge 15, Type (0, 1), BuildingBlock: CIFDUS_clean_linker_0, # of connection points: 2
#     Edge 16, Type (0, 1), BuildingBlock: CIFDUS_clean_linker_0, # of connection points: 2
#     Edge 17, Type (0, 1), BuildingBlock: CIFDUS_clean_linker_0, # of connection points: 2
#     Edge 18, Type (0, 1), BuildingBlock: CIFDUS_clean_linker_0, # of connection points: 2
#     Edge 19, Type (0, 1), BuildingBlock: CIFDUS_clean_linker_0, # of connection points: 2
#     Edge 20, Type (0, 1), BuildingBlock: CIFDUS_clean_linker_0, # of connection points: 2
#     Edge 21, Type (0, 1), BuildingBlock: CIFDUS_clean_linker_0, # of connection points: 2
#     Edge 22, Type (0, 1), BuildingBlock: CIFDUS_clean_linker_0, # of connection points: 2
#     Edge 23, Type (0, 1), BuildingBlock: CIFDUS_clean_linker_0, # of connection points: 2
#     Edge 24, Type (0, 1), BuildingBlock: CIFDUS_clean_linker_0, # of connection points: 2
#     Edge 25, Type (0, 1), BuildingBlock: CIFDUS_clean_linker_0, # of connection points: 2
#     Edge 26, Type (0, 1), BuildingBlock: CIFDUS_clean_linker_0, # of connection points: 2
#     Edge 27, Type (0, 1), BuildingBlock: CIFDUS_clean_linker_0, # of connection points: 2
#     Edge 28, Type (0, 1), BuildingBlock: CIFDUS_clean_linker_0, # of connection points: 2
#     Edge 29, Type (0, 1), BuildingBlock: CIFDUS_clean_linker_0, # of connection points: 2
#     Edge 30, Type (0, 1), BuildingBlock: CIFDUS_clean_linker_0, # of connection points: 2
#     Edge 31, Type (0, 1), BuildingBlock: CIFDUS_clean_linker_0, # of connection points: 2
#     Edge 32, Type (0, 1), BuildingBlock: CIFDUS_clean_linker_0, # of connection points: 2
#     Edge 33, Type (0, 1), BuildingBlock: CIFDUS_clean_linker_0, # of connection points: 2
#     Edge 34, Type (0, 1), BuildingBlock: CIFDUS_clean_linker_0, # of connection points: 2
#     Edge 35, Type (0, 1), BuildingBlock: CIFDUS_clean_linker_0, # of connection points: 2
# Relax obj value: 0.014
# Max RMSD: 0.115
# Mean RMSD: 0.112
data_MOF--net-nom--node1-QUQFOY_clean_sbu_1--node2-MIFKUJ_clean_linker_1--edge1-CIFDUS_clean_linker_0
_symmetry_space_group_name_H-M    P1
_symmetry_Int_Tables_number       1
_symmetry_cell_setting            triclinic
loop_
_symmetry_equiv_pos_as_xyz
'x, y, z'
_cell_length_a     50.079351
_cell_length_b     50.035905
_cell_length_c     48.017936
_cell_angle_alpha  89.985512
_cell_angle_beta   90.07777
_cell_angle_gamma 119.96005
loop_
_atom_site_label
_atom_site_type_symbol
_atom_site_fract_x
_atom_site_fract_y
_atom_site_fract_z
_atom_type_partial_charge
H0 H 0.97831 0.45529 0.27094 0.0
H1 H 0.93698 0.43145 0.23647 0.0
H2 H 0.90289 0.49171 0.26232 0.0
H3 H 0.94515 0.51636 0.29579 0.0
H4 H 0.02529 0.51642 0.27586 0.0
H5 H 0.93924 0.44112 0.33812 0.0
H6 H 0.88567 0.41937 0.35298 0.0
H7 H 0.90251 0.51157 0.36966 0.0
H8 H 0.95629 0.53257 0.3566 0.0
H9 H 0.06455 0.58294 0.37464 0.0
H10 H 0.10788 0.60243 0.40713 0.0
H11 H 0.11132 0.51826 0.39644 0.0
H12 H 0.06953 0.50027 0.36255 0.0
H13 H 1.00344 0.51487 0.37692 0.0
H14 H 0.08207 0.59165 0.32095 0.0
H15 H 0.13468 0.62314 0.30398 0.0
H16 H 0.13208 0.54161 0.27078 0.0
H17 H 0.07917 0.50994 0.2884 0.0
C18 C 0.96459 0.48731 0.2862 0.0
C19 C 0.96198 0.46341 0.26908 0.0
C20 C 0.93814 0.44961 0.24958 0.0
C21 C 0.91642 0.45947 0.24676 0.0
C22 C 0.9193 0.48365 0.26379 0.0
C23 C 0.94325 0.49755 0.28319 0.0
C24 C 0.98974 0.50152 0.30711 0.0
C25 C 0.02046 0.51559 0.29796 0.0
C26 C 0.98356 0.50186 0.33584 0.0
C27 C 0.95164 0.48839 0.34639 0.0
C28 C 0.93134 0.45647 0.34544 0.0
C29 C 0.9006 0.44415 0.35367 0.0
C30 C 0.88938 0.4636 0.36252 0.0
C31 C 0.91015 0.49563 0.36366 0.0
C32 C 0.94098 0.50781 0.35601 0.0
C33 C 0.06394 0.54022 0.36633 0.0
C34 C 0.07479 0.56884 0.37937 0.0
C35 C 0.09948 0.5798 0.39809 0.0
C36 C 0.1133 0.56196 0.40467 0.0
C37 C 0.10191 0.53305 0.39162 0.0
C38 C 0.07771 0.52247 0.37246 0.0
C39 C 0.03875 0.52892 0.34562 0.0
C40 C 0.00816 0.51535 0.35482 0.0
C41 C 0.04501 0.52994 0.31687 0.0
C42 C 0.07688 0.54846 0.30617 0.0
C43 C 0.09288 0.5805 0.31019 0.0
C44 C 0.12284 0.5985 0.30023 0.0
C45 C 0.13748 0.58488 0.28589 0.0
C46 C 0.12144 0.55271 0.28189 0.0
C47 C 0.09124 0.53465 0.29179 0.0
H48 H 0.43257 0.96419 0.5373 0.0
H49 H 0.39698 0.91314 0.55512 0.0
H50 H 0.44827 0.87667 0.51307 0.0
H51 H 0.48546 0.92864 0.49711 0.0
H52 H 0.48977 1.00349 0.54368 0.0
H53 H 0.42819 0.94126 0.46317 0.0
H54 H 0.41138 0.89883 0.42977 0.0
H55 H 0.50613 0.93373 0.40523 0.0
H56 H 0.52273 0.97522 0.43931 0.0
H57 H 0.57198 0.09001 0.47171 0.0
H58 H 0.58674 0.14241 0.45707 0.0
H59 H 0.49029 0.11433 0.4471 0.0
H60 H 0.47611 0.06325 0.46444 0.0
H61 H 0.50617 0.0211 0.44194 0.0
H62 H 0.56861 0.08289 0.52037 0.0
H63 H 0.58724 0.12608 0.55254 0.0
H64 H 0.49421 0.09095 0.58273 0.0
H65 H 0.47554 0.04951 0.54836 0.0
C66 C 0.46149 0.95035 0.51536 0.0
C67 C 0.43656 0.94536 0.53226 0.0
C68 C 0.41588 0.91593 0.54215 0.0
C69 C 0.41921 0.89046 0.53506 0.0
C70 C 0.44491 0.89564 0.51903 0.0
C71 C 0.46602 0.92536 0.50954 0.0
C72 C 0.48167 0.98163 0.50341 0.0
C73 C 0.49345 0.00721 0.52142 0.0
C74 C 0.48747 0.98674 0.47441 0.0
C75 C 0.47676 0.96115 0.454 0.0
C76 C 0.44531 0.93954 0.45075 0.0
C77 C 0.43573 0.91545 0.43149 0.0
C78 C 0.45742 0.91272 0.41491 0.0
C79 C 0.48884 0.93471 0.41801 0.0
C80 C 0.49837 0.95866 0.43731 0.0
C81 C 0.52298 0.07317 0.47006 0.0
C82 C 0.55414 0.09544 0.46672 0.0
C83 C 0.56249 0.12531 0.4579 0.0
C84 C 0.53976 0.13311 0.45134 0.0
C85 C 0.50855 0.10983 0.45294 0.0
C86 C 0.50031 0.08037 0.46252 0.0
C87 C 0.51337 0.04249 0.48219 0.0
C88 C 0.50319 0.01715 0.46423 0.0
C89 C 0.50936 0.03752 0.51121 0.0
C90 C 0.52058 0.06354 0.53126 0.0
C91 C 0.55211 0.08511 0.53323 0.0
C92 C 0.56282 0.10948 0.55221 0.0
C93 C 0.54233 0.11225 0.57045 0.0
C94 C 0.5107 0.09016 0.56871 0.0
C95 C 0.49996 0.06617 0.54924 0.0
H96 H 0.53595 0.56928 0.71119 0.0
H97 H 0.51964 0.5941 0.74551 0.0
H98 H 0.42479 0.53505 0.72052 0.0
H99 H 0.44128 0.50922 0.68716 0.0
H100 H 0.52041 0.50781 0.7071 0.0
H101 H 0.4958 0.57864 0.65361 0.0
H102 H 0.45676 0.59134 0.6384 0.0
H103 H 0.40785 0.50344 0.59612 0.0
H104 H 0.44539 0.49008 0.61307 0.0
H105 H 0.49868 0.46001 0.59245 0.0
H106 H 0.52404 0.44466 0.55762 0.0
H107 H 0.61063 0.49725 0.60114 0.0
H108 H 0.58541 0.5134 0.63529 0.0
H109 H 0.50436 0.5124 0.60565 0.0
H110 H 0.50747 0.4351 0.65489 0.0
H111 H 0.52703 0.4023 0.67215 0.0
H112 H 0.59576 0.47837 0.72066 0.0
H113 H 0.57622 0.51146 0.70287 0.0
C114 C 0.48991 0.53766 0.69636 0.0
C115 C 0.51162 0.56157 0.71322 0.0
C116 C 0.50226 0.57599 0.73263 0.0
C117 C 0.4709 0.56688 0.73563 0.0
C118 C 0.4491 0.54257 0.71895 0.0
C119 C 0.4585 0.52793 0.69967 0.0
C120 C 0.50061 0.52326 0.67543 0.0
C121 C 0.51728 0.50922 0.68489 0.0
C122 C 0.49456 0.52309 0.64652 0.0
C123 C 0.47319 0.53303 0.63514 0.0
C124 C 0.4765 0.56202 0.64127 0.0
C125 C 0.45432 0.56942 0.63222 0.0
C126 C 0.42875 0.54821 0.61637 0.0
C127 C 0.42663 0.52002 0.60896 0.0
C128 C 0.4484 0.51247 0.61837 0.0
C129 C 0.54007 0.48775 0.61658 0.0
C130 C 0.52314 0.46828 0.59445 0.0
C131 C 0.53761 0.45928 0.57471 0.0
C132 C 0.56937 0.46967 0.57663 0.0
C133 C 0.58622 0.48906 0.5989 0.0
C134 C 0.57175 0.49807 0.6186 0.0
C135 C 0.52497 0.49796 0.6373 0.0
C136 C 0.50764 0.5112 0.62785 0.0
C137 C 0.52838 0.49544 0.66626 0.0
C138 C 0.54056 0.47585 0.67735 0.0
C139 C 0.52685 0.44483 0.66913 0.0
C140 C 0.53788 0.426 0.67923 0.0
C141 C 0.56288 0.43769 0.69787 0.0
C142 C 0.5766 0.46877 0.70619 0.0
C143 C 0.56536 0.48763 0.69618 0.0
H144 H 0.04913 0.56113 0.77338 0.0
H145 H 0.0911 0.58676 0.7399 0.0
H146 H 0.12613 0.52681 0.76436 0.0
H147 H 0.08313 0.50029 0.79677 0.0
H148 H 1.00284 0.49972 0.77687 0.0
H149 H 0.09579 0.57044 0.83123 0.0
H150 H 0.14843 0.58586 0.84562 0.0
H151 H 0.11486 0.49739 0.88572 0.0
H152 H 0.06309 0.48138 0.86945 0.0
H153 H 0.97057 0.43185 0.87562 0.0
H154 H 0.93015 0.40895 0.91077 0.0
H155 H 0.91112 0.4837 0.89925 0.0
H156 H 0.95 0.50485 0.8626 0.0
H157 H 0.02311 0.4982 0.87787 0.0
H158 H 0.94792 0.4222 0.82221 0.0
H159 H 0.89698 0.38797 0.803 0.0
H160 H 0.89593 0.46609 0.76585 0.0
H161 H 0.94717 0.50065 0.78591 0.0
C162 C 0.06321 0.52908 0.78783 0.0
C163 C 0.06575 0.55339 0.77136 0.0
C164 C 0.09 0.56826 0.75246 0.0
C165 C 0.11227 0.55913 0.74961 0.0
C166 C 0.10933 0.53436 0.76584 0.0
C167 C 0.08489 0.51931 0.78456 0.0
C168 C 0.03801 0.51429 0.80857 0.0
C169 C 0.00734 0.50003 0.79901 0.0
C170 C 0.04388 0.51301 0.83734 0.0
C171 C 0.07548 0.52443 0.84861 0.0
C172 C 0.09985 0.55431 0.84294 0.0
C173 C 0.12994 0.56325 0.85151 0.0
C174 C 0.1361 0.5427 0.86647 0.0
C175 C 0.11126 0.51354 0.87354 0.0
C176 C 0.08144 0.50446 0.86455 0.0
C177 C 0.96315 0.46995 0.86663 0.0
C178 C 0.95734 0.44298 0.88054 0.0
C179 C 0.93437 0.43012 0.90083 0.0
C180 C 0.91738 0.44456 0.9083 0.0
C181 C 0.92318 0.4715 0.89392 0.0
C182 C 0.94563 0.48387 0.87309 0.0
C183 C 0.98841 0.48436 0.84612 0.0
C184 C 0.01886 0.49863 0.85576 0.0
C185 C 0.98251 0.48413 0.81736 0.0
C186 C 0.95116 0.46403 0.80587 0.0
C187 C 0.93661 0.43209 0.81029 0.0
C188 C 0.90761 0.41249 0.79898 0.0
C189 C 0.89249 0.42429 0.78273 0.0
C190 C 0.90694 0.45636 0.77842 0.0
C191 C 0.93621 0.47608 0.78974 0.0
H192 H 0.58854 0.06822 0.03793 0.0
H193 H 0.61802 0.12017 0.05627 0.0
H194 H 0.56143 0.14687 0.00907 0.0
H195 H 0.53 0.09375 0.99291 0.0
H196 H 0.53354 0.02462 0.04274 0.0
H197 H 0.59279 0.08834 0.96358 0.0
H198 H 0.60731 0.13014 0.93009 0.0
H199 H 0.51336 0.08575 0.90001 0.0
H200 H 0.49877 0.04502 0.93456 0.0
H201 H 0.46371 0.94713 0.94844 0.0
H202 H 0.44986 0.89631 0.92907 0.0
H203 H 0.52771 0.89996 0.9716 0.0
H204 H 0.54179 0.95066 0.99 0.0
H205 H 0.51848 1.00352 0.9413 0.0
H206 H 0.45786 0.95039 0.02634 0.0
H207 H 0.43996 0.91195 0.06339 0.0
H208 H 0.53401 0.93339 0.07785 0.0
H209 H 0.55162 0.97346 0.04226 0.0
C210 C 0.55732 0.077 0.01352 0.0
C211 C 0.58208 0.08508 0.03183 0.0
C212 C 0.59932 0.1151 0.04201 0.0
C213 C 0.59274 0.13819 0.03371 0.0
C214 C 0.56725 0.12985 0.01605 0.0
C215 C 0.54948 0.09948 0.00639 0.0
C216 C 0.5404 0.04511 0.00192 0.0
C217 C 0.53051 0.02024 0.0205 0.0
C218 C 0.53515 0.03892 0.97294 0.0
C219 C 0.54457 0.0638 0.9519 0.0
C220 C 0.57528 0.08781 0.94995 0.0
C221 C 0.5836 0.11157 0.93057 0.0
C222 C 0.56148 0.1115 0.91238 0.0
C223 C 0.53089 0.08699 0.91404 0.0
C224 C 0.52255 0.06344 0.93358 0.0
C225 C 0.5035 0.95247 0.97102 0.0
C226 C 0.47767 0.93685 0.95358 0.0
C227 C 0.46972 0.90779 0.94266 0.0
C228 C 0.48775 0.89413 0.94872 0.0
C229 C 0.51354 0.90994 0.96622 0.0
C230 C 0.52139 0.93879 0.9771 0.0
C231 C 0.51298 0.98366 0.98212 0.0
C232 C 0.52133 0.0082 0.96349 0.0
C233 C 0.51681 0.98977 0.01096 0.0
C234 C 0.50599 0.96469 0.03171 0.0
C235 C 0.4745 0.94664 0.03754 0.0
C236 C 0.46432 0.92442 0.05862 0.0
C237 C 0.48545 0.91937 0.07392 0.0
C238 C 0.51701 0.93698 0.06717 0.0
C239 C 0.52719 0.95974 0.04661 0.0
H240 H 0.51809 0.48106 0.21575 0.0
H241 H 0.53932 0.46066 0.25019 0.0
H242 H 0.63078 0.52053 0.21781 0.0
H243 H 0.6095 0.54159 0.18417 0.0
H244 H 0.53195 0.54234 0.20996 0.0
H245 H 0.53783 0.46398 0.14591 0.0
H246 H 0.56819 0.44289 0.12538 0.0
H247 H 0.63979 0.53554 0.10457 0.0
H248 H 0.60838 0.55578 0.12337 0.0
H249 H 0.54237 0.61372 0.13379 0.0
H250 H 0.52259 0.63574 0.09934 0.0
H251 H 0.46254 0.54451 0.06627 0.0
H252 H 0.48181 0.52271 0.10109 0.0
H253 H 0.54308 0.53655 0.10785 0.0
H254 H 0.55024 0.60056 0.20813 0.0
H255 H 0.53279 0.63463 0.22623 0.0
H256 H 0.4501 0.58738 0.17626 0.0
H257 H 0.46678 0.55184 0.1597 0.0
C258 C 0.56215 0.51257 0.19718 0.0
C259 C 0.5427 0.48968 0.21604 0.0
C260 C 0.55485 0.47787 0.23555 0.0
C261 C 0.58675 0.48886 0.23668 0.0
C262 C 0.60615 0.5117 0.21764 0.0
C263 C 0.59398 0.52353 0.19817 0.0
C264 C 0.5492 0.52572 0.17718 0.0
C265 C 0.53406 0.54086 0.1876 0.0
C266 C 0.5528 0.52455 0.14813 0.0
C267 C 0.57085 0.51137 0.13596 0.0
C268 C 0.55998 0.47955 0.13664 0.0
C269 C 0.57754 0.46762 0.12509 0.0
C270 C 0.60655 0.48739 0.11304 0.0
C271 C 0.6173 0.51935 0.11282 0.0
C272 C 0.59949 0.5311 0.12381 0.0
C273 C 0.51332 0.56655 0.12013 0.0
C274 C 0.52472 0.5985 0.11927 0.0
C275 C 0.51355 0.61104 0.09948 0.0
C276 C 0.49087 0.59185 0.08015 0.0
C277 C 0.47958 0.55988 0.08115 0.0
C278 C 0.49077 0.5474 0.10087 0.0
C279 C 0.52531 0.55285 0.14052 0.0
C280 C 0.54036 0.53761 0.13017 0.0
C281 C 0.52263 0.55511 0.16971 0.0
C282 C 0.51016 0.57392 0.1821 0.0
C283 C 0.52806 0.59711 0.20142 0.0
C284 C 0.5182 0.61689 0.21151 0.0
C285 C 0.49029 0.61426 0.20231 0.0
C286 C 0.47168 0.59012 0.18389 0.0
C287 C 0.48139 0.56998 0.17409 0.0
O288 O 0.60739 0.37649 0.43984 0.0
Cd289 Cd 0.61715 0.36055 0.40384 0.0
Cd290 Cd 0.66942 0.41701 0.40688 0.0
O291 O 0.65098 0.42043 0.4443 0.0
O292 O 0.58479 0.3162 0.40462 0.0
O293 O 0.63459 0.33182 0.40603 0.0
C294 C 0.6064 0.30946 0.40677 0.0
C295 C 0.72047 0.42793 0.40508 0.0
C296 C 0.62428 0.40119 0.45326 0.0
C297 C 0.62767 0.40532 0.35764 0.0
O298 O 0.65136 0.42477 0.37112 0.0
O299 O 0.61149 0.37779 0.36648 0.0
O300 O 0.71376 0.44946 0.40848 0.0
O301 O 0.69807 0.39982 0.40304 0.0
O302 O 0.24052 0.59966 0.60972 0.0
Cd303 Cd 0.2672 0.61232 0.57407 0.0
Cd304 Cd 0.26604 0.66398 0.58297 0.0
O305 O 0.24666 0.64506 0.62102 0.0
O306 O 0.2827 0.5826 0.57226 0.0
O307 O 0.31343 0.63283 0.57775 0.0
C308 C 0.31009 0.60554 0.57632 0.0
C309 C 0.30744 0.71418 0.57843 0.0
C310 C 0.23589 0.61662 0.62645 0.0
C311 C 0.23183 0.62593 0.53273 0.0
O312 O 0.23644 0.64752 0.54943 0.0
O313 O 0.24463 0.60981 0.53704 0.0
O314 O 0.28 0.70887 0.58388 0.0
O315 O 0.31174 0.69083 0.57673 0.0
O316 O 0.65146 0.24375 0.77491 0.0
Cd317 Cd 0.66635 0.27071 0.73963 0.0
Cd318 Cd 0.60903 0.26369 0.74259 0.0
O319 O 0.60672 0.2417 0.77992 0.0
O320 O 0.7115 0.28608 0.73911 0.0
O321 O 0.69222 0.31706 0.74369 0.0
C322 C 0.71609 0.31358 0.7427 0.0
C323 C 0.59476 0.30165 0.74024 0.0
C324 C 0.62663 0.23483 0.78843 0.0
C325 C 0.62278 0.23542 0.6932 0.0
O326 O 0.60259 0.23856 0.70652 0.0
O327 O 0.65032 0.24785 0.70219 0.0
O328 O 0.57459 0.27282 0.74299 0.0
O329 O 0.62349 0.30921 0.73967 0.0
O330 O 0.42792 0.65179 0.9415 0.0
Cd331 Cd 0.41935 0.66856 0.90525 0.0
Cd332 Cd 0.36404 0.61751 0.90958 0.0
O333 O 0.38051 0.61355 0.94793 0.0
O334 O 0.44938 0.71369 0.90464 0.0
O335 O 0.39901 0.6944 0.90851 0.0
C336 C 0.42639 0.71826 0.90784 0.0
C337 C 0.31367 0.60846 0.90531 0.0
C338 C 0.40829 0.62943 0.95616 0.0
C339 C 0.40413 0.6219 0.8607 0.0
O340 O 0.38013 0.60535 0.87508 0.0
O341 O 0.42282 0.64951 0.86806 0.0
O342 O 0.31933 0.58631 0.90932 0.0
O343 O 0.33676 0.63628 0.90471 0.0
O344 O 0.78977 0.37883 0.0438 0.0
Cd345 Cd 0.76281 0.36073 0.07874 0.0
Cd346 Cd 0.75844 0.41155 0.07313 0.0
O347 O 0.77618 0.41334 0.0338 0.0
O348 O 0.75493 0.31765 0.07931 0.0
O349 O 0.71776 0.32887 0.07415 0.0
C350 C 0.72618 0.30832 0.07504 0.0
C351 C 0.71575 0.41794 0.07914 0.0
C352 C 0.79042 0.39911 0.02748 0.0
C353 C 0.79446 0.40849 0.12213 0.0
O354 O 0.78886 0.4256 0.10642 0.0
O355 O 0.78344 0.38012 0.11625 0.0
O356 O 0.74221 0.44064 0.07201 0.0
O357 O 0.71314 0.39106 0.08208 0.0
O358 O 0.42083 0.79078 0.20943 0.0
Cd359 Cd 0.41007 0.76322 0.24428 0.0
Cd360 Cd 0.35488 0.75925 0.23703 0.0
O361 O 0.37329 0.77867 0.1987 0.0
O362 O 0.44202 0.75069 0.24548 0.0
O363 O 0.3924 0.71741 0.23954 0.0
C364 C 0.42041 0.72271 0.24103 0.0
C365 C 0.30345 0.71948 0.23928 0.0
C366 C 0.40185 0.79231 0.19287 0.0
C367 C 0.39268 0.79357 0.28777 0.0
O368 O 0.37013 0.7877 0.27177 0.0
O369 O 0.41087 0.78357 0.28185 0.0
O370 O 0.31072 0.74758 0.23412 0.0
O371 O 0.3256 0.71358 0.2425 0.0
H372 H 0.16031 0.63924 0.25847 0.0
H373 H 0.18626 0.57459 0.28966 0.0
H374 H 0.23984 0.6095 0.276 0.0
H375 H 0.27997 0.66035 0.25836 0.0
H376 H 0.25315 0.72495 0.22842 0.0
H377 H 0.1994 0.68819 0.23849 0.0
C378 C 0.17769 0.63278 0.26228 0.0
C379 C 0.16939 0.60454 0.27534 0.0
C380 C 0.20838 0.65306 0.25471 0.0
C381 C 0.19204 0.59617 0.27956 0.0
C382 C 0.22271 0.61621 0.27191 0.0
C383 C 0.26231 0.66621 0.25375 0.0
C384 C 0.27068 0.6955 0.24284 0.0
C385 C 0.23126 0.64499 0.2599 0.0
C386 C 0.24747 0.70271 0.23699 0.0
C387 C 0.21666 0.68169 0.24276 0.0
H388 H 0.59105 0.17708 0.42318 0.0
H389 H 0.50789 0.1629 0.46377 0.0
H390 H 0.52021 0.21479 0.45156 0.0
H391 H 0.55484 0.2648 0.43073 0.0
H392 H 0.64089 0.28215 0.39483 0.0
H393 H 0.62749 0.22867 0.40441 0.0
C394 C 0.57572 0.18532 0.42969 0.0
C395 C 0.54818 0.16546 0.44401 0.0
C396 C 0.58352 0.21591 0.42355 0.0
C397 C 0.52868 0.1769 0.45193 0.0
C398 C 0.53586 0.20686 0.44524 0.0
C399 C 0.57059 0.25683 0.4248 0.0
C400 C 0.59864 0.27723 0.41182 0.0
C401 C 0.56316 0.22653 0.43109 0.0
C402 C 0.6191 0.26679 0.40478 0.0
C403 C 0.61143 0.23625 0.41026 0.0
H404 H 0.43329 0.60331 0.60075 0.0
H405 H 0.36691 0.50722 0.615 0.0
H406 H 0.32524 0.51622 0.60184 0.0
H407 H 0.30704 0.55117 0.58769 0.0
H408 H 0.37197 0.648 0.57653 0.0
H409 H 0.41465 0.63893 0.5873 0.0
C410 C 0.40972 0.58438 0.60119 0.0
C411 C 0.40352 0.55451 0.60856 0.0
C412 C 0.3855 0.58981 0.59415 0.0
C413 C 0.37269 0.53029 0.60876 0.0
C414 C 0.34868 0.53543 0.60144 0.0
C415 C 0.33054 0.57031 0.58735 0.0
C416 C 0.3363 0.60019 0.58114 0.0
C417 C 0.35479 0.56504 0.59414 0.0
C418 C 0.36689 0.62475 0.58118 0.0
C419 C 0.3913 0.61957 0.58739 0.0
H420 H 0.84086 0.42996 0.78097 0.0
H421 H 0.87566 0.37014 0.75621 0.0
H422 H 0.82459 0.33166 0.73993 0.0
H423 H 0.76958 0.31336 0.73575 0.0
H424 H 0.73372 0.37229 0.76038 0.0
H425 H 0.78572 0.41295 0.77317 0.0
C426 C 0.83732 0.40871 0.77161 0.0
C427 C 0.86196 0.40275 0.77021 0.0
C428 C 0.8077 0.38647 0.76234 0.0
C429 C 0.85697 0.37504 0.75808 0.0
C430 C 0.82779 0.35305 0.74865 0.0
C431 C 0.7731 0.33519 0.74368 0.0
C432 C 0.74774 0.33965 0.74733 0.0
C433 C 0.80289 0.35824 0.75122 0.0
C434 C 0.75283 0.36822 0.75739 0.0
C435 C 0.78255 0.39144 0.76482 0.0
H436 H 0.43115 0.84205 0.94398 0.0
H437 H 0.52764 0.87788 0.92647 0.0
H438 H 0.51681 0.82712 0.91076 0.0
H439 H 0.48069 0.77206 0.90463 0.0
H440 H 0.38407 0.73548 0.92192 0.0
H441 H 0.39412 0.78708 0.93452 0.0
C442 C 0.44971 0.83883 0.93633 0.0
C443 C 0.48023 0.86369 0.93679 0.0
C444 C 0.44333 0.80943 0.92732 0.0
C445 C 0.50404 0.85904 0.92692 0.0
C446 C 0.49786 0.83004 0.91778 0.0
C447 C 0.46173 0.77535 0.9109 0.0
C448 C 0.4317 0.74986 0.9125 0.0
C449 C 0.46771 0.80496 0.91836 0.0
C450 C 0.40743 0.75467 0.92052 0.0
C451 C 0.41317 0.78417 0.92784 0.0
H452 H 0.61133 0.43757 0.13056 0.0
H453 H 0.64532 0.50923 0.06799 0.0
H454 H 0.68125 0.49346 0.05162 0.0
H455 H 0.70536 0.46144 0.05668 0.0
H456 H 0.66885 0.38701 0.11616 0.0
H457 H 0.63086 0.40112 0.13144 0.0
C458 C 0.62604 0.44941 0.11296 0.0
C459 C 0.62593 0.47517 0.10113 0.0
C460 C 0.64622 0.43966 0.10299 0.0
C461 C 0.6455 0.4901 0.07834 0.0
C462 C 0.66594 0.4809 0.06869 0.0
C463 C 0.68882 0.44809 0.07277 0.0
C464 C 0.69003 0.42344 0.08548 0.0
C465 C 0.66692 0.45614 0.08121 0.0
C466 C 0.66828 0.40606 0.10603 0.0
C467 C 0.6467 0.41425 0.11489 0.0
H468 H 0.42669 0.8417 0.5509 0.0
H469 H 0.35696 0.86718 0.53741 0.0
H470 H 0.31713 0.81605 0.55154 0.0
H471 H 0.30148 0.76368 0.56643 0.0
H472 H 0.36974 0.73589 0.57666 0.0
H473 H 0.41061 0.78817 0.56479 0.0
C474 C 0.40279 0.83604 0.55081 0.0
C475 C 0.39511 0.85868 0.54341 0.0
C476 C 0.37963 0.8061 0.55835 0.0
C477 C 0.36388 0.85074 0.54368 0.0
C478 C 0.34092 0.82131 0.55154 0.0
C479 C 0.32532 0.76907 0.56631 0.0
C480 C 0.33256 0.74599 0.57261 0.0
C481 C 0.3485 0.79884 0.55889 0.0
C482 C 0.36355 0.75328 0.57195 0.0
C483 C 0.38691 0.78315 0.56512 0.0
H484 H 0.52901 0.37888 0.71663 0.0
H485 H 0.62278 0.45076 0.70243 0.0
H486 H 0.64135 0.41568 0.71604 0.0
H487 H 0.6305 0.36337 0.72907 0.0
H488 H 0.53623 0.29175 0.74242 0.0
H489 H 0.5184 0.32787 0.73198 0.0
C490 C 0.55352 0.38688 0.71649 0.0
C491 C 0.57444 0.4173 0.70827 0.0
C492 C 0.56396 0.36655 0.72409 0.0
C493 C 0.60618 0.42749 0.70878 0.0
C494 C 0.6168 0.40738 0.7164 0.0
C495 C 0.6061 0.35576 0.72995 0.0
C496 C 0.58476 0.32478 0.73635 0.0
C497 C 0.59585 0.37669 0.7237 0.0
C498 C 0.55321 0.31536 0.73743 0.0
C499 C 0.54292 0.33601 0.73142 0.0
H500 H 0.1846 0.59887 0.8826 0.0
H501 H 0.16044 0.50457 0.86574 0.0
H502 H 0.21225 0.51637 0.87792 0.0
H503 H 0.26467 0.55321 0.89227 0.0
H504 H 0.29109 0.64846 0.90605 0.0
H505 H 0.23829 0.6366 0.8958 0.0
C506 C 0.1907 0.58095 0.88136 0.0
C507 C 0.16827 0.55072 0.87362 0.0
C508 C 0.221 0.58804 0.88779 0.0
C509 C 0.17676 0.52783 0.87234 0.0
C510 C 0.20656 0.53459 0.87908 0.0
C511 C 0.2589 0.5714 0.89324 0.0
C512 C 0.28172 0.60163 0.9001 0.0
C513 C 0.22882 0.56455 0.88682 0.0
C514 C 0.27391 0.62497 0.90087 0.0
C515 C 0.24373 0.61819 0.89499 0.0
H516 H 0.65493 0.1681 0.04158 0.0
H517 H 0.57679 0.18236 0.04591 0.0
H518 H 0.6109 0.23611 0.05923 0.0
H519 H 0.66333 0.27941 0.06931 0.0
H520 H 0.74014 0.26291 0.06768 0.0
H521 H 0.70583 0.20944 0.05464 0.0
C522 C 0.64504 0.18259 0.046 0.0
C523 C 0.61314 0.17087 0.04271 0.0
C524 C 0.66459 0.21319 0.05434 0.0
C525 C 0.60124 0.19065 0.04779 0.0
C526 C 0.62072 0.22141 0.05566 0.0
C527 C 0.67248 0.26403 0.06631 0.0
C528 C 0.70432 0.27528 0.06941 0.0
C529 C 0.6525 0.23299 0.05891 0.0
C530 C 0.71577 0.25497 0.06551 0.0
C531 C 0.69618 0.22434 0.05793 0.0
H532 H 0.43276 0.60542 0.2144 0.0
H533 H 0.52857 0.67625 0.20878 0.0
H534 H 0.5155 0.71513 0.22216 0.0
H535 H 0.47711 0.72971 0.23374 0.0
H536 H 0.38081 0.66029 0.23676 0.0
H537 H 0.39385 0.62032 0.22588 0.0
C538 C 0.45077 0.62937 0.21593 0.0
C539 C 0.48169 0.63766 0.2108 0.0
C540 C 0.44303 0.65196 0.22312 0.0
C541 C 0.50468 0.66889 0.2132 0.0
C542 C 0.49722 0.69129 0.22064 0.0
C543 C 0.45892 0.70581 0.23225 0.0
C544 C 0.42803 0.69802 0.23615 0.0
C545 C 0.46651 0.68313 0.22553 0.0
C546 C 0.40479 0.66694 0.23389 0.0
C547 C 0.41224 0.64408 0.22762 0.0
H548 H 0.86441 0.48474 0.40149 0.0
H549 H 0.83879 0.41353 0.33933 0.0
H550 H 0.78454 0.39412 0.34938 0.0
H551 H 0.74392 0.39949 0.37339 0.0
H552 H 0.76988 0.47458 0.43105 0.0
H553 H 0.82428 0.49063 0.42478 0.0
C554 C 0.8471 0.46519 0.38982 0.0
C555 C 0.85609 0.45081 0.3696 0.0
C556 C 0.8158 0.45487 0.39481 0.0
C557 C 0.83294 0.42492 0.35538 0.0
C558 C 0.80174 0.4139 0.3609 0.0
C559 C 0.76153 0.41912 0.3848 0.0
C560 C 0.75299 0.43576 0.40274 0.0
C561 C 0.79287 0.42892 0.3803 0.0
C562 C 0.77598 0.46145 0.41709 0.0
C563 C 0.80706 0.47064 0.4135 0.0
H564 H 0.12206 0.5969 0.45123 0.0
H565 H 0.16286 0.55225 0.40501 0.0
H566 H 0.2028 0.56762 0.44042 0.0
H567 H 0.22584 0.5931 0.48522 0.0
H568 H 0.18704 0.64123 0.52879 0.0
H569 H 0.14736 0.62592 0.49325 0.0
C570 C 0.13996 0.59098 0.44842 0.0
C571 C 0.13897 0.57306 0.42542 0.0
C572 C 0.16345 0.60065 0.46844 0.0
C573 C 0.16232 0.5653 0.42275 0.0
C574 C 0.18544 0.57434 0.44291 0.0
C575 C 0.20879 0.60036 0.48681 0.0
C576 C 0.20939 0.61817 0.50973 0.0
C577 C 0.18611 0.5918 0.466 0.0
C578 C 0.18727 0.62761 0.51136 0.0
C579 C 0.16442 0.61876 0.49108 0.0
H580 H 0.59709 0.13815 0.59881 0.0
H581 H 0.51394 0.14344 0.59026 0.0
H582 H 0.53166 0.18228 0.62693 0.0
H583 H 0.57014 0.21379 0.66244 0.0
H584 H 0.6546 0.21074 0.66852 0.0
H585 H 0.63735 0.17282 0.63103 0.0
C586 C 0.583 0.14815 0.6044 0.0
C587 C 0.55398 0.13742 0.59174 0.0
C588 C 0.59364 0.1711 0.62504 0.0
C589 C 0.53601 0.15051 0.59996 0.0
C590 C 0.54625 0.17301 0.62081 0.0
C591 C 0.58489 0.20502 0.6554 0.0
C592 C 0.61355 0.21499 0.66844 0.0
C593 C 0.5749 0.18326 0.63369 0.0
C594 C 0.63247 0.20356 0.65888 0.0
C595 C 0.62255 0.18172 0.63751 0.0
H596 H 0.42013 0.54057 0.76914 0.0
H597 H 0.49975 0.62835 0.74905 0.0
H598 H 0.48584 0.65331 0.78532 0.0
H599 H 0.45203 0.64995 0.82396 0.0
H600 H 0.37161 0.56223 0.84282 0.0
H601 H 0.38456 0.53786 0.80543 0.0
C602 C 0.4342 0.56525 0.77231 0.0
C603 C 0.46114 0.5824 0.75647 0.0
C604 C 0.42593 0.57958 0.79304 0.0
C605 C 0.47924 0.61436 0.76127 0.0
C606 C 0.4712 0.62874 0.78191 0.0
C607 C 0.43721 0.62555 0.81977 0.0
C608 C 0.41099 0.60801 0.83638 0.0
C609 C 0.44478 0.61152 0.79816 0.0
C610 C 0.39199 0.5764 0.83049 0.0
C611 C 0.39939 0.56235 0.80911 0.0
H612 H 0.86345 0.44594 0.91431 0.0
H613 H 0.92076 0.41619 0.95599 0.0
H614 H 0.88515 0.3973 0.99488 0.0
H615 H 0.83939 0.39149 0.01844 0.0
H616 H 0.78483 0.42604 0.97979 0.0
H617 H 0.81818 0.44145 0.93866 0.0
C618 C 0.86846 0.43566 0.93197 0.0
C619 C 0.89488 0.43241 0.93182 0.0
C620 C 0.84845 0.42586 0.95499 0.0
C621 C 0.90037 0.41842 0.95489 0.0
C622 C 0.88015 0.40786 0.97743 0.0
C623 C 0.83461 0.40215 0.00092 0.0
C624 C 0.80958 0.40746 0.00207 0.0
C625 C 0.85429 0.41167 0.9778 0.0
C626 C 0.80398 0.42173 0.97939 0.0
C627 C 0.82303 0.43052 0.95589 0.0
H628 H 0.43063 0.86487 0.0792 0.0
H629 H 0.51612 0.92337 0.12261 0.0
H630 H 0.49878 0.88784 0.16165 0.0
H631 H 0.45851 0.84174 0.18487 0.0
H632 H 0.37081 0.78629 0.14425 0.0
H633 H 0.38962 0.8195 0.10307 0.0
C634 C 0.44543 0.87019 0.09726 0.0
C635 C 0.47484 0.89693 0.09756 0.0
C636 C 0.43482 0.85026 0.12035 0.0
C637 C 0.49373 0.90276 0.12117 0.0
C638 C 0.48369 0.88257 0.14379 0.0
C639 C 0.44359 0.83676 0.1669 0.0
C640 C 0.41339 0.81152 0.16751 0.0
C641 C 0.45423 0.85642 0.14371 0.0
C642 C 0.39416 0.80563 0.14427 0.0
C643 C 0.40491 0.8246 0.12074 0.0
H644 H 0.56407 0.42963 0.25459 0.0
H645 H 0.63883 0.52252 0.26775 0.0
H646 H 0.65918 0.5045 0.30491 0.0
H647 H 0.65428 0.46301 0.33536 0.0
H648 H 0.57866 0.37027 0.32335 0.0
H649 H 0.56011 0.38768 0.28419 0.0
C650 C 0.58476 0.44595 0.26565 0.0
C651 C 0.59982 0.4774 0.25838 0.0
C652 C 0.59616 0.4355 0.28729 0.0
C653 C 0.62693 0.49813 0.27264 0.0
C654 C 0.63849 0.48788 0.29405 0.0
C655 C 0.63387 0.44649 0.32408 0.0
C656 C 0.61785 0.41537 0.33246 0.0
C657 C 0.62311 0.45669 0.30176 0.0
C658 C 0.59144 0.39437 0.31749 0.0
C659 C 0.58076 0.40431 0.29508 0.0
H660 H 0.40763 0.8899 0.38016 0.0
H661 H 0.48499 0.87875 0.4026 0.0
H662 H 0.47118 0.84013 0.36606 0.0
H663 H 0.43848 0.81112 0.32642 0.0
H664 H 0.36066 0.8218 0.30445 0.0
H665 H 0.37299 0.85843 0.34248 0.0
C666 C 0.4212 0.87868 0.37739 0.0
C667 C 0.4475 0.88751 0.39399 0.0
C668 C 0.41307 0.85636 0.35638 0.0
C669 C 0.46498 0.8729 0.3898 0.0
C670 C 0.457 0.85065 0.369 0.0
C671 C 0.42404 0.82125 0.33005 0.0
C672 C 0.39879 0.81377 0.31241 0.0
C673 C 0.43134 0.8425 0.35191 0.0
C674 C 0.38031 0.82711 0.31759 0.0
C675 C 0.38737 0.84817 0.33933 0.0
H676 H 0.5485 0.41342 0.55246 0.0
H677 H 0.62541 0.50654 0.55233 0.0
H678 H 0.6503 0.49301 0.51568 0.0
H679 H 0.64895 0.45551 0.48185 0.0
H680 H 0.5711 0.36283 0.481 0.0
H681 H 0.54791 0.37549 0.51969 0.0
C682 C 0.57064 0.43079 0.54433 0.0
C683 C 0.58497 0.46097 0.55509 0.0
C684 C 0.58468 0.42297 0.523 0.0
C685 C 0.61397 0.48304 0.54465 0.0
C686 C 0.62816 0.47538 0.52356 0.0
C687 C 0.62706 0.43798 0.4903 0.0
C688 C 0.61179 0.4083 0.47839 0.0
C689 C 0.61359 0.4455 0.51237 0.0
C690 C 0.58336 0.38591 0.48962 0.0
C691 C 0.57001 0.39313 0.51175 0.0
H692 H 0.13732 0.53346 0.71599 0.0
H693 H 0.14555 0.62095 0.73787 0.0
H694 H 0.18564 0.64677 0.70279 0.0
H695 H 0.21673 0.64418 0.6644 0.0
H696 H 0.20893 0.55662 0.64338 0.0
H697 H 0.171 0.53147 0.68015 0.0
C698 C 0.14821 0.55825 0.71348 0.0
C699 C 0.13811 0.57511 0.72944 0.0
C700 C 0.17145 0.57304 0.69342 0.0
C701 C 0.15233 0.60722 0.72551 0.0
C702 C 0.17545 0.62209 0.70557 0.0
C703 C 0.20702 0.61966 0.66804 0.0
C704 C 0.2156 0.60236 0.65094 0.0
C705 C 0.18492 0.60517 0.68915 0.0
C706 C 0.20274 0.57058 0.65608 0.0
C707 C 0.18092 0.55609 0.67709 0.0
H708 H 0.61436 0.14066 0.88177 0.0
H709 H 0.52829 0.13879 0.8957 0.0
H710 H 0.54116 0.17742 0.85937 0.0
H711 H 0.57606 0.21047 0.82241 0.0
H712 H 0.66274 0.21314 0.80971 0.0
H713 H 0.65066 0.17614 0.84725 0.0
C714 C 0.59859 0.14903 0.87727 0.0
C715 C 0.57025 0.1365 0.89139 0.0
C716 C 0.60625 0.17152 0.85653 0.0
C717 C 0.54999 0.14745 0.88483 0.0
C718 C 0.55742 0.16975 0.86416 0.0
C719 C 0.59244 0.20318 0.82799 0.0
C720 C 0.62019 0.21453 0.81304 0.0
C721 C 0.58534 0.18171 0.84964 0.0
C722 C 0.64115 0.20482 0.82072 0.0
C723 C 0.63425 0.18355 0.84219 0.0
H724 H 0.43182 0.56971 0.06246 0.0
H725 H 0.52491 0.64349 0.04863 0.0
H726 H 0.50723 0.66288 0.0103 0.0
H727 H 0.46595 0.65687 0.97877 0.0
H728 H 0.37302 0.58218 0.99187 0.0
H729 H 0.39011 0.56513 0.03229 0.0
C730 C 0.44825 0.59002 0.05103 0.0
C731 C 0.47968 0.60498 0.05831 0.0
C732 C 0.438 0.6008 0.02877 0.0
C733 C 0.50056 0.63165 0.04364 0.0
C734 C 0.4905 0.64263 0.02158 0.0
C735 C 0.44934 0.637 0.99056 0.0
C736 C 0.41826 0.62074 0.98208 0.0
C737 C 0.45935 0.62712 0.01369 0.0
C738 C 0.39711 0.5951 0.99777 0.0
C739 C 0.40686 0.58528 0.0209 0.0
H740 H 0.89411 0.4877 0.21298 0.0
H741 H 0.88188 0.39824 0.23341 0.0
H742 H 0.84233 0.37446 0.19747 0.0
H743 H 0.81246 0.37925 0.15921 0.0
H744 H 0.82423 0.46868 0.13924 0.0
H745 H 0.86217 0.49207 0.17648 0.0
C746 C 0.88249 0.46294 0.2099 0.0
C747 C 0.89119 0.44487 0.2258 0.0
C748 C 0.85962 0.44935 0.18928 0.0
C749 C 0.87611 0.41283 0.22117 0.0
C750 C 0.85332 0.39916 0.20072 0.0
C751 C 0.82311 0.40383 0.1631 0.0
C752 C 0.81553 0.42214 0.14628 0.0
C753 C 0.84511 0.41723 0.18446 0.0
C754 C 0.8296 0.45396 0.15176 0.0
C755 C 0.8514 0.46742 0.17304 0.0
loop_
_geom_bond_atom_site_label_1
_geom_bond_atom_site_label_2
_geom_bond_distance
_geom_bond_site_symmetry_2
_ccdc_geom_bond_type
H0 C19 0.949 . S
H1 C20 0.950 . S
H2 C22 0.950 . S
H3 C23 0.950 . S
H4 C25 0.950 . S
H5 C28 0.950 . S
H6 C29 0.950 . S
H7 C31 0.951 . S
H8 C32 0.949 . S
H9 C34 0.949 . S
H10 C35 0.950 . S
H11 C37 0.950 . S
H12 C38 0.950 . S
H13 C40 0.950 1_655 S
H14 C43 0.950 . S
H15 C44 0.950 . S
H16 C46 0.951 . S
H17 C47 0.949 . S
C18 C19 1.376 . S
C18 C23 1.386 . S
C18 C24 1.483 . S
C19 H0 0.949 . S
C19 C18 1.376 . S
C19 C20 1.397 . S
C20 H1 0.950 . S
C20 C19 1.397 . S
C20 C21 1.391 . S
C21 C20 1.391 . S
C21 C22 1.405 . S
C22 H2 0.950 . S
C22 C21 1.405 . S
C22 C23 1.367 . S
C23 H3 0.950 . S
C23 C18 1.386 . S
C23 C22 1.367 . S
C24 C18 1.483 . S
C24 C25 1.382 1_655 S
C24 C26 1.403 . S
C25 H4 0.950 . S
C25 C24 1.382 1_455 S
C25 C41 1.411 . S
C26 C24 1.403 . S
C26 C27 1.489 . S
C26 C40 1.411 1_655 S
C27 C26 1.489 . S
C27 C28 1.383 . S
C27 C32 1.382 . S
C28 H5 0.950 . S
C28 C27 1.383 . S
C28 C29 1.395 . S
C29 H6 0.950 . S
C29 C28 1.395 . S
C29 C30 1.288 . S
C30 C29 1.288 . S
C30 C31 1.392 . S
C31 H7 0.951 . S
C31 C30 1.392 . S
C31 C32 1.392 . S
C32 H8 0.949 . S
C32 C27 1.382 . S
C32 C31 1.392 . S
C33 C34 1.376 . S
C33 C38 1.386 . S
C33 C39 1.483 . S
C34 H9 0.949 . S
C34 C33 1.376 . S
C34 C35 1.397 . S
C35 H10 0.950 . S
C35 C34 1.397 . S
C35 C36 1.391 . S
C36 C35 1.391 . S
C36 C37 1.405 . S
C37 H11 0.950 . S
C37 C36 1.405 . S
C37 C38 1.367 . S
C38 H12 0.950 . S
C38 C33 1.386 . S
C38 C37 1.367 . S
C39 C33 1.483 . S
C39 C40 1.382 . S
C39 C41 1.403 . S
C40 H13 0.950 1_455 S
C40 C26 1.411 1_455 S
C40 C39 1.382 . S
C41 C25 1.411 . S
C41 C39 1.403 . S
C41 C42 1.489 . S
C42 C41 1.489 . S
C42 C43 1.383 . S
C42 C47 1.382 . S
C43 H14 0.950 . S
C43 C42 1.383 . S
C43 C44 1.395 . S
C44 H15 0.950 . S
C44 C43 1.395 . S
C44 C45 1.288 . S
C45 C44 1.288 . S
C45 C46 1.392 . S
C46 H16 0.951 . S
C46 C45 1.392 . S
C46 C47 1.392 . S
C47 H17 0.949 . S
C47 C42 1.382 . S
C47 C46 1.392 . S
H48 C67 0.949 . S
H49 C68 0.950 . S
H50 C70 0.950 . S
H51 C71 0.950 . S
H52 C73 0.946 1_565 S
H53 C76 0.950 . S
H54 C77 0.950 . S
H55 C79 0.951 . S
H56 C80 0.949 . S
H57 C82 0.949 . S
H58 C83 0.950 . S
H59 C85 0.950 . S
H60 C86 0.950 . S
H61 C88 0.950 . S
H62 C91 0.950 . S
H63 C92 0.950 . S
H64 C94 0.951 . S
H65 C95 0.949 . S
C66 C67 1.376 . S
C66 C71 1.386 . S
C66 C72 1.483 . S
C67 H48 0.949 . S
C67 C66 1.376 . S
C67 C68 1.397 . S
C68 H49 0.950 . S
C68 C67 1.397 . S
C68 C69 1.391 . S
C69 C68 1.391 . S
C69 C70 1.405 . S
C70 H50 0.950 . S
C70 C69 1.405 . S
C70 C71 1.367 . S
C71 H51 0.950 . S
C71 C66 1.386 . S
C71 C70 1.367 . S
C72 C66 1.483 . S
C72 C73 1.368 1_565 S
C72 C74 1.403 . S
C73 H52 0.946 1_545 S
C73 C72 1.368 1_545 S
C73 C89 1.429 . S
C74 C72 1.403 . S
C74 C75 1.489 . S
C74 C88 1.411 1_565 S
C75 C74 1.489 . S
C75 C76 1.383 . S
C75 C80 1.382 . S
C76 H53 0.950 . S
C76 C75 1.383 . S
C76 C77 1.395 . S
C77 H54 0.950 . S
C77 C76 1.395 . S
C77 C78 1.288 . S
C78 C77 1.288 . S
C78 C79 1.392 . S
C79 H55 0.951 . S
C79 C78 1.392 . S
C79 C80 1.392 . S
C80 H56 0.949 . S
C80 C75 1.382 . S
C80 C79 1.392 . S
C81 C82 1.376 . S
C81 C86 1.386 . S
C81 C87 1.483 . S
C82 H57 0.949 . S
C82 C81 1.376 . S
C82 C83 1.397 . S
C83 H58 0.950 . S
C83 C82 1.397 . S
C83 C84 1.391 . S
C84 C83 1.391 . S
C84 C85 1.405 . S
C85 H59 0.950 . S
C85 C84 1.405 . S
C85 C86 1.367 . S
C86 H60 0.950 . S
C86 C81 1.386 . S
C86 C85 1.367 . S
C87 C81 1.483 . S
C87 C88 1.382 . S
C87 C89 1.403 . S
C88 H61 0.950 . S
C88 C74 1.411 1_545 S
C88 C87 1.382 . S
C89 C73 1.429 . S
C89 C87 1.403 . S
C89 C90 1.489 . S
C90 C89 1.489 . S
C90 C91 1.383 . S
C90 C95 1.382 . S
C91 H62 0.950 . S
C91 C90 1.383 . S
C91 C92 1.395 . S
C92 H63 0.950 . S
C92 C91 1.395 . S
C92 C93 1.288 . S
C93 C92 1.288 . S
C93 C94 1.392 . S
C94 H64 0.951 . S
C94 C93 1.392 . S
C94 C95 1.392 . S
C95 H65 0.949 . S
C95 C90 1.382 . S
C95 C94 1.392 . S
H96 C115 0.949 . S
H97 C116 0.950 . S
H98 C118 0.950 . S
H99 C119 0.950 . S
H100 C121 0.950 . S
H101 C124 0.950 . S
H102 C125 0.950 . S
H103 C127 0.951 . S
H104 C128 0.949 . S
H105 C130 0.949 . S
H106 C131 0.950 . S
H107 C133 0.950 . S
H108 C134 0.950 . S
H109 C136 0.950 . S
H110 C139 0.950 . S
H111 C140 0.950 . S
H112 C142 0.951 . S
H113 C143 0.949 . S
C114 C115 1.376 . S
C114 C119 1.386 . S
C114 C120 1.483 . S
C115 H96 0.949 . S
C115 C114 1.376 . S
C115 C116 1.397 . S
C116 H97 0.950 . S
C116 C115 1.397 . S
C116 C117 1.391 . S
C117 C116 1.391 . S
C117 C118 1.405 . S
C118 H98 0.950 . S
C118 C117 1.405 . S
C118 C119 1.367 . S
C119 H99 0.950 . S
C119 C114 1.386 . S
C119 C118 1.367 . S
C120 C114 1.483 . S
C120 C121 1.382 . S
C120 C122 1.403 . S
C121 H100 0.950 . S
C121 C120 1.382 . S
C121 C137 1.411 . S
C122 C120 1.403 . S
C122 C123 1.489 . S
C122 C136 1.411 . S
C123 C122 1.489 . S
C123 C124 1.383 . S
C123 C128 1.382 . S
C124 H101 0.950 . S
C124 C123 1.383 . S
C124 C125 1.395 . S
C125 H102 0.950 . S
C125 C124 1.395 . S
C125 C126 1.288 . S
C126 C125 1.288 . S
C126 C127 1.392 . S
C127 H103 0.951 . S
C127 C126 1.392 . S
C127 C128 1.392 . S
C128 H104 0.949 . S
C128 C123 1.382 . S
C128 C127 1.392 . S
C129 C130 1.376 . S
C129 C134 1.386 . S
C129 C135 1.483 . S
C130 H105 0.949 . S
C130 C129 1.376 . S
C130 C131 1.397 . S
C131 H106 0.950 . S
C131 C130 1.397 . S
C131 C132 1.391 . S
C132 C131 1.391 . S
C132 C133 1.405 . S
C133 H107 0.950 . S
C133 C132 1.405 . S
C133 C134 1.367 . S
C134 H108 0.950 . S
C134 C129 1.386 . S
C134 C133 1.367 . S
C135 C129 1.483 . S
C135 C136 1.382 . S
C135 C137 1.403 . S
C136 H109 0.950 . S
C136 C122 1.411 . S
C136 C135 1.382 . S
C137 C121 1.411 . S
C137 C135 1.403 . S
C137 C138 1.489 . S
C138 C137 1.489 . S
C138 C139 1.383 . S
C138 C143 1.382 . S
C139 H110 0.950 . S
C139 C138 1.383 . S
C139 C140 1.395 . S
C140 H111 0.950 . S
C140 C139 1.395 . S
C140 C141 1.288 . S
C141 C140 1.288 . S
C141 C142 1.392 . S
C142 H112 0.951 . S
C142 C141 1.392 . S
C142 C143 1.392 . S
C143 H113 0.949 . S
C143 C138 1.382 . S
C143 C142 1.392 . S
H144 C163 0.949 . S
H145 C164 0.950 . S
H146 C166 0.950 . S
H147 C167 0.950 . S
H148 C169 0.950 1_655 S
H149 C172 0.950 . S
H150 C173 0.950 . S
H151 C175 0.951 . S
H152 C176 0.949 . S
H153 C178 0.949 . S
H154 C179 0.950 . S
H155 C181 0.950 . S
H156 C182 0.950 . S
H157 C184 0.950 . S
H158 C187 0.950 . S
H159 C188 0.950 . S
H160 C190 0.951 . S
H161 C191 0.949 . S
C162 C163 1.376 . S
C162 C167 1.386 . S
C162 C168 1.483 . S
C163 H144 0.949 . S
C163 C162 1.376 . S
C163 C164 1.397 . S
C164 H145 0.950 . S
C164 C163 1.397 . S
C164 C165 1.391 . S
C165 C164 1.391 . S
C165 C166 1.405 . S
C166 H146 0.950 . S
C166 C165 1.405 . S
C166 C167 1.367 . S
C167 H147 0.950 . S
C167 C162 1.386 . S
C167 C166 1.367 . S
C168 C162 1.483 . S
C168 C169 1.382 . S
C168 C170 1.403 . S
C169 H148 0.950 1_455 S
C169 C168 1.382 . S
C169 C185 1.411 1_455 S
C170 C168 1.403 . S
C170 C171 1.489 . S
C170 C184 1.411 . S
C171 C170 1.489 . S
C171 C172 1.383 . S
C171 C176 1.382 . S
C172 H149 0.950 . S
C172 C171 1.383 . S
C172 C173 1.395 . S
C173 H150 0.950 . S
C173 C172 1.395 . S
C173 C174 1.288 . S
C174 C173 1.288 . S
C174 C175 1.392 . S
C175 H151 0.951 . S
C175 C174 1.392 . S
C175 C176 1.392 . S
C176 H152 0.949 . S
C176 C171 1.382 . S
C176 C175 1.392 . S
C177 C178 1.376 . S
C177 C182 1.386 . S
C177 C183 1.483 . S
C178 H153 0.949 . S
C178 C177 1.376 . S
C178 C179 1.397 . S
C179 H154 0.950 . S
C179 C178 1.397 . S
C179 C180 1.391 . S
C180 C179 1.391 . S
C180 C181 1.405 . S
C181 H155 0.950 . S
C181 C180 1.405 . S
C181 C182 1.367 . S
C182 H156 0.950 . S
C182 C177 1.386 . S
C182 C181 1.367 . S
C183 C177 1.483 . S
C183 C184 1.382 1_655 S
C183 C185 1.403 . S
C184 H157 0.950 . S
C184 C170 1.411 . S
C184 C183 1.382 1_455 S
C185 C169 1.411 1_655 S
C185 C183 1.403 . S
C185 C186 1.489 . S
C186 C185 1.489 . S
C186 C187 1.383 . S
C186 C191 1.382 . S
C187 H158 0.950 . S
C187 C186 1.383 . S
C187 C188 1.395 . S
C188 H159 0.950 . S
C188 C187 1.395 . S
C188 C189 1.288 . S
C189 C188 1.288 . S
C189 C190 1.392 . S
C190 H160 0.951 . S
C190 C189 1.392 . S
C190 C191 1.392 . S
C191 H161 0.949 . S
C191 C186 1.382 . S
C191 C190 1.392 . S
H192 C211 0.949 . S
H193 C212 0.950 . S
H194 C214 0.950 . S
H195 C215 0.950 . S
H196 C217 0.950 . S
H197 C220 0.950 . S
H198 C221 0.950 . S
H199 C223 0.951 . S
H200 C224 0.949 . S
H201 C226 0.949 . S
H202 C227 0.950 . S
H203 C229 0.950 . S
H204 C230 0.950 . S
H205 C232 0.946 1_565 S
H206 C235 0.950 . S
H207 C236 0.950 . S
H208 C238 0.951 . S
H209 C239 0.949 . S
C210 C211 1.376 . S
C210 C215 1.386 1_554 S
C210 C216 1.483 1_554 S
C211 H192 0.949 . S
C211 C210 1.376 . S
C211 C212 1.397 . S
C212 H193 0.950 . S
C212 C211 1.397 . S
C212 C213 1.391 . S
C213 C212 1.391 . S
C213 C214 1.405 . S
C214 H194 0.950 . S
C214 C213 1.405 . S
C214 C215 1.367 1_554 S
C215 H195 0.950 . S
C215 C210 1.386 1_556 S
C215 C214 1.367 1_556 S
C216 C210 1.483 1_556 S
C216 C217 1.382 1_556 S
C216 C218 1.403 . S
C217 H196 0.950 . S
C217 C216 1.382 1_554 S
C217 C233 1.411 1_545 S
C218 C216 1.403 . S
C218 C219 1.489 . S
C218 C232 1.427 . S
C219 C218 1.489 . S
C219 C220 1.383 . S
C219 C224 1.382 . S
C220 H197 0.950 . S
C220 C219 1.383 . S
C220 C221 1.395 . S
C221 H198 0.950 . S
C221 C220 1.395 . S
C221 C222 1.288 . S
C222 C221 1.288 . S
C222 C223 1.392 . S
C223 H199 0.951 . S
C223 C222 1.392 . S
C223 C224 1.392 . S
C224 H200 0.949 . S
C224 C219 1.382 . S
C224 C223 1.392 . S
C225 C226 1.376 . S
C225 C230 1.386 . S
C225 C231 1.483 . S
C226 H201 0.949 . S
C226 C225 1.376 . S
C226 C227 1.397 . S
C227 H202 0.950 . S
C227 C226 1.397 . S
C227 C228 1.391 . S
C228 C227 1.391 . S
C228 C229 1.405 . S
C229 H203 0.950 . S
C229 C228 1.405 . S
C229 C230 1.367 . S
C230 H204 0.950 . S
C230 C225 1.386 . S
C230 C229 1.367 . S
C231 C225 1.483 . S
C231 C232 1.369 1_565 S
C231 C233 1.403 1_556 S
C232 H205 0.946 1_545 S
C232 C218 1.427 . S
C232 C231 1.369 1_545 S
C233 C217 1.411 1_565 S
C233 C231 1.403 1_554 S
C233 C234 1.489 . S
C234 C233 1.489 . S
C234 C235 1.383 . S
C234 C239 1.382 . S
C235 H206 0.950 . S
C235 C234 1.383 . S
C235 C236 1.395 . S
C236 H207 0.950 . S
C236 C235 1.395 . S
C236 C237 1.288 . S
C237 C236 1.288 . S
C237 C238 1.392 . S
C238 H208 0.951 . S
C238 C237 1.392 . S
C238 C239 1.392 . S
C239 H209 0.949 . S
C239 C234 1.382 . S
C239 C238 1.392 . S
H240 C259 0.949 . S
H241 C260 0.950 . S
H242 C262 0.950 . S
H243 C263 0.950 . S
H244 C265 0.950 . S
H245 C268 0.950 . S
H246 C269 0.950 . S
H247 C271 0.951 . S
H248 C272 0.949 . S
H249 C274 0.949 . S
H250 C275 0.950 . S
H251 C277 0.950 . S
H252 C278 0.950 . S
H253 C280 0.950 . S
H254 C283 0.950 . S
H255 C284 0.950 . S
H256 C286 0.951 . S
H257 C287 0.949 . S
C258 C259 1.376 . S
C258 C263 1.386 . S
C258 C264 1.483 . S
C259 H240 0.949 . S
C259 C258 1.376 . S
C259 C260 1.397 . S
C260 H241 0.950 . S
C260 C259 1.397 . S
C260 C261 1.391 . S
C261 C260 1.391 . S
C261 C262 1.405 . S
C262 H242 0.950 . S
C262 C261 1.405 . S
C262 C263 1.367 . S
C263 H243 0.950 . S
C263 C258 1.386 . S
C263 C262 1.367 . S
C264 C258 1.483 . S
C264 C265 1.382 . S
C264 C266 1.403 . S
C265 H244 0.950 . S
C265 C264 1.382 . S
C265 C281 1.411 . S
C266 C264 1.403 . S
C266 C267 1.489 . S
C266 C280 1.411 . S
C267 C266 1.489 . S
C267 C268 1.383 . S
C267 C272 1.382 . S
C268 H245 0.950 . S
C268 C267 1.383 . S
C268 C269 1.395 . S
C269 H246 0.950 . S
C269 C268 1.395 . S
C269 C270 1.288 . S
C270 C269 1.288 . S
C270 C271 1.392 . S
C271 H247 0.951 . S
C271 C270 1.392 . S
C271 C272 1.392 . S
C272 H248 0.949 . S
C272 C267 1.382 . S
C272 C271 1.392 . S
C273 C274 1.376 . S
C273 C278 1.386 . S
C273 C279 1.483 . S
C274 H249 0.949 . S
C274 C273 1.376 . S
C274 C275 1.397 . S
C275 H250 0.950 . S
C275 C274 1.397 . S
C275 C276 1.391 . S
C276 C275 1.391 . S
C276 C277 1.405 . S
C277 H251 0.950 . S
C277 C276 1.405 . S
C277 C278 1.367 . S
C278 H252 0.950 . S
C278 C273 1.386 . S
C278 C277 1.367 . S
C279 C273 1.483 . S
C279 C280 1.382 . S
C279 C281 1.403 . S
C280 H253 0.950 . S
C280 C266 1.411 . S
C280 C279 1.382 . S
C281 C265 1.411 . S
C281 C279 1.403 . S
C281 C282 1.489 . S
C282 C281 1.489 . S
C282 C283 1.383 . S
C282 C287 1.382 . S
C283 H254 0.950 . S
C283 C282 1.383 . S
C283 C284 1.395 . S
C284 H255 0.950 . S
C284 C283 1.395 . S
C284 C285 1.288 . S
C285 C284 1.288 . S
C285 C286 1.392 . S
C286 H256 0.951 . S
C286 C285 1.392 . S
C286 C287 1.392 . S
C287 H257 0.949 . S
C287 C282 1.382 . S
C287 C286 1.392 . S
O288 Cd289 2.223 . S
O288 C296 1.315 . S
Cd289 O288 2.223 . S
Cd289 O292 2.297 . S
Cd289 O293 2.439 . S
Cd289 O299 2.240 . S
Cd290 O291 2.240 . S
Cd290 O298 2.223 . S
Cd290 O300 2.297 . S
Cd290 O301 2.439 . S
O291 Cd290 2.240 . S
O291 C296 1.279 . S
O292 Cd289 2.297 . S
O292 C294 1.247 . S
O293 Cd289 2.439 . S
O293 C294 1.208 . S
C294 O292 1.247 . S
C294 O293 1.208 . S
C295 O300 1.247 . S
C295 O301 1.208 . S
C296 O288 1.315 . S
C296 O291 1.279 . S
C297 O298 1.315 . S
C297 O299 1.279 . S
O298 Cd290 2.223 . S
O298 C297 1.315 . S
O299 Cd289 2.240 . S
O299 C297 1.279 . S
O300 Cd290 2.297 . S
O300 C295 1.247 . S
O301 Cd290 2.439 . S
O301 C295 1.208 . S
O302 Cd303 2.223 . S
O302 C310 1.315 . S
Cd303 O302 2.223 . S
Cd303 O306 2.297 . S
Cd303 O307 2.439 . S
Cd303 O313 2.240 . S
Cd304 O305 2.240 . S
Cd304 O312 2.223 . S
Cd304 O314 2.297 . S
Cd304 O315 2.439 . S
O305 Cd304 2.240 . S
O305 C310 1.279 . S
O306 Cd303 2.297 . S
O306 C308 1.247 . S
O307 Cd303 2.439 . S
O307 C308 1.208 . S
C308 O306 1.247 . S
C308 O307 1.208 . S
C309 O314 1.247 . S
C309 O315 1.208 . S
C310 O302 1.315 . S
C310 O305 1.279 . S
C311 O312 1.315 . S
C311 O313 1.279 . S
O312 Cd304 2.223 . S
O312 C311 1.315 . S
O313 Cd303 2.240 . S
O313 C311 1.279 . S
O314 Cd304 2.297 . S
O314 C309 1.247 . S
O315 Cd304 2.439 . S
O315 C309 1.208 . S
O316 Cd317 2.223 . S
O316 C324 1.315 . S
Cd317 O316 2.223 . S
Cd317 O320 2.297 . S
Cd317 O321 2.439 . S
Cd317 O327 2.240 . S
Cd318 O319 2.240 . S
Cd318 O326 2.223 . S
Cd318 O328 2.297 . S
Cd318 O329 2.439 . S
O319 Cd318 2.240 . S
O319 C324 1.279 . S
O320 Cd317 2.297 . S
O320 C322 1.247 . S
O321 Cd317 2.439 . S
O321 C322 1.208 . S
C322 O320 1.247 . S
C322 O321 1.208 . S
C323 O328 1.247 . S
C323 O329 1.208 . S
C324 O316 1.315 . S
C324 O319 1.279 . S
C325 O326 1.315 . S
C325 O327 1.279 . S
O326 Cd318 2.223 . S
O326 C325 1.315 . S
O327 Cd317 2.240 . S
O327 C325 1.279 . S
O328 Cd318 2.297 . S
O328 C323 1.247 . S
O329 Cd318 2.439 . S
O329 C323 1.208 . S
O330 Cd331 2.223 . S
O330 C338 1.315 . S
Cd331 O330 2.223 . S
Cd331 O334 2.297 . S
Cd331 O335 2.439 . S
Cd331 O341 2.240 . S
Cd332 O333 2.240 . S
Cd332 O340 2.223 . S
Cd332 O342 2.297 . S
Cd332 O343 2.439 . S
O333 Cd332 2.240 . S
O333 C338 1.279 . S
O334 Cd331 2.297 . S
O334 C336 1.247 . S
O335 Cd331 2.439 . S
O335 C336 1.208 . S
C336 O334 1.247 . S
C336 O335 1.208 . S
C337 O342 1.247 . S
C337 O343 1.208 . S
C338 O330 1.315 . S
C338 O333 1.279 . S
C339 O340 1.315 . S
C339 O341 1.279 . S
O340 Cd332 2.223 . S
O340 C339 1.315 . S
O341 Cd331 2.240 . S
O341 C339 1.279 . S
O342 Cd332 2.297 . S
O342 C337 1.247 . S
O343 Cd332 2.439 . S
O343 C337 1.208 . S
O344 Cd345 2.223 . S
O344 C352 1.315 . S
Cd345 O344 2.223 . S
Cd345 O348 2.297 . S
Cd345 O349 2.439 . S
Cd345 O355 2.240 . S
Cd346 O347 2.240 . S
Cd346 O354 2.223 . S
Cd346 O356 2.297 . S
Cd346 O357 2.439 . S
O347 Cd346 2.240 . S
O347 C352 1.279 . S
O348 Cd345 2.297 . S
O348 C350 1.247 . S
O349 Cd345 2.439 . S
O349 C350 1.208 . S
C350 O348 1.247 . S
C350 O349 1.208 . S
C351 O356 1.247 . S
C351 O357 1.208 . S
C352 O344 1.315 . S
C352 O347 1.279 . S
C353 O354 1.315 . S
C353 O355 1.279 . S
O354 Cd346 2.223 . S
O354 C353 1.315 . S
O355 Cd345 2.240 . S
O355 C353 1.279 . S
O356 Cd346 2.297 . S
O356 C351 1.247 . S
O357 Cd346 2.439 . S
O357 C351 1.208 . S
O358 Cd359 2.223 . S
O358 C366 1.315 . S
Cd359 O358 2.223 . S
Cd359 O362 2.297 . S
Cd359 O363 2.439 . S
Cd359 O369 2.240 . S
Cd360 O361 2.240 . S
Cd360 O368 2.223 . S
Cd360 O370 2.297 . S
Cd360 O371 2.439 . S
O361 Cd360 2.240 . S
O361 C366 1.279 . S
O362 Cd359 2.297 . S
O362 C364 1.247 . S
O363 Cd359 2.439 . S
O363 C364 1.208 . S
C364 O362 1.247 . S
C364 O363 1.208 . S
C365 O370 1.247 . S
C365 O371 1.208 . S
C366 O358 1.315 . S
C366 O361 1.279 . S
C367 O368 1.315 . S
C367 O369 1.279 . S
O368 Cd360 2.223 . S
O368 C367 1.315 . S
O369 Cd359 2.240 . S
O369 C367 1.279 . S
O370 Cd360 2.297 . S
O370 C365 1.247 . S
O371 Cd360 2.439 . S
O371 C365 1.208 . S
H372 C378 0.930 . S
H373 C381 0.930 . S
H374 C382 0.930 . S
H375 C383 0.930 . S
H376 C386 0.930 . S
H377 C387 0.930 . S
C378 H372 0.930 . S
C378 C379 1.355 . S
C378 C380 1.415 . S
C379 C378 1.355 . S
C379 C381 1.419 . S
C380 C378 1.415 . S
C380 C385 1.425 . S
C380 C387 1.409 . S
C381 H373 0.930 . S
C381 C379 1.419 . S
C381 C382 1.362 . S
C382 H374 0.930 . S
C382 C381 1.362 . S
C382 C385 1.409 . S
C383 H375 0.930 . S
C383 C384 1.355 . S
C383 C385 1.415 . S
C384 C383 1.355 . S
C384 C386 1.419 . S
C385 C380 1.425 . S
C385 C382 1.409 . S
C385 C383 1.415 . S
C386 H376 0.930 . S
C386 C384 1.419 . S
C386 C387 1.362 . S
C387 H377 0.930 . S
C387 C380 1.409 . S
C387 C386 1.362 . S
H388 C394 0.930 . S
H389 C397 0.930 . S
H390 C398 0.930 . S
H391 C399 0.930 . S
H392 C402 0.930 . S
H393 C403 0.930 . S
C394 H388 0.930 . S
C394 C395 1.355 . S
C394 C396 1.415 . S
C395 C394 1.355 . S
C395 C397 1.419 . S
C396 C394 1.415 . S
C396 C401 1.425 . S
C396 C403 1.409 . S
C397 H389 0.930 . S
C397 C395 1.419 . S
C397 C398 1.362 . S
C398 H390 0.930 . S
C398 C397 1.362 . S
C398 C401 1.409 . S
C399 H391 0.930 . S
C399 C400 1.355 . S
C399 C401 1.415 . S
C400 C399 1.355 . S
C400 C402 1.419 . S
C401 C396 1.425 . S
C401 C398 1.409 . S
C401 C399 1.415 . S
C402 H392 0.930 . S
C402 C400 1.419 . S
C402 C403 1.362 . S
C403 H393 0.930 . S
C403 C396 1.409 . S
C403 C402 1.362 . S
H404 C410 0.930 . S
H405 C413 0.930 . S
H406 C414 0.930 . S
H407 C415 0.930 . S
H408 C418 0.930 . S
H409 C419 0.930 . S
C410 H404 0.930 . S
C410 C411 1.355 . S
C410 C412 1.415 . S
C411 C410 1.355 . S
C411 C413 1.419 . S
C412 C410 1.415 . S
C412 C417 1.425 . S
C412 C419 1.409 . S
C413 H405 0.930 . S
C413 C411 1.419 . S
C413 C414 1.362 . S
C414 H406 0.930 . S
C414 C413 1.362 . S
C414 C417 1.409 . S
C415 H407 0.930 . S
C415 C416 1.355 . S
C415 C417 1.415 . S
C416 C415 1.355 . S
C416 C418 1.419 . S
C417 C412 1.425 . S
C417 C414 1.409 . S
C417 C415 1.415 . S
C418 H408 0.930 . S
C418 C416 1.419 . S
C418 C419 1.362 . S
C419 H409 0.930 . S
C419 C412 1.409 . S
C419 C418 1.362 . S
H420 C426 0.930 . S
H421 C429 0.930 . S
H422 C430 0.930 . S
H423 C431 0.930 . S
H424 C434 0.930 . S
H425 C435 0.930 . S
C426 H420 0.930 . S
C426 C427 1.355 . S
C426 C428 1.415 . S
C427 C426 1.355 . S
C427 C429 1.419 . S
C428 C426 1.415 . S
C428 C433 1.425 . S
C428 C435 1.409 . S
C429 H421 0.930 . S
C429 C427 1.419 . S
C429 C430 1.362 . S
C430 H422 0.930 . S
C430 C429 1.362 . S
C430 C433 1.409 . S
C431 H423 0.930 . S
C431 C432 1.355 . S
C431 C433 1.415 . S
C432 C431 1.355 . S
C432 C434 1.419 . S
C433 C428 1.425 . S
C433 C430 1.409 . S
C433 C431 1.415 . S
C434 H424 0.930 . S
C434 C432 1.419 . S
C434 C435 1.362 . S
C435 H425 0.930 . S
C435 C428 1.409 . S
C435 C434 1.362 . S
H436 C442 0.930 . S
H437 C445 0.930 . S
H438 C446 0.930 . S
H439 C447 0.930 . S
H440 C450 0.930 . S
H441 C451 0.930 . S
C442 H436 0.930 . S
C442 C443 1.355 . S
C442 C444 1.415 . S
C443 C442 1.355 . S
C443 C445 1.419 . S
C444 C442 1.415 . S
C444 C449 1.425 . S
C444 C451 1.409 . S
C445 H437 0.930 . S
C445 C443 1.419 . S
C445 C446 1.362 . S
C446 H438 0.930 . S
C446 C445 1.362 . S
C446 C449 1.409 . S
C447 H439 0.930 . S
C447 C448 1.355 . S
C447 C449 1.415 . S
C448 C447 1.355 . S
C448 C450 1.419 . S
C449 C444 1.425 . S
C449 C446 1.409 . S
C449 C447 1.415 . S
C450 H440 0.930 . S
C450 C448 1.419 . S
C450 C451 1.362 . S
C451 H441 0.930 . S
C451 C444 1.409 . S
C451 C450 1.362 . S
H452 C458 0.930 . S
H453 C461 0.930 . S
H454 C462 0.930 . S
H455 C463 0.930 . S
H456 C466 0.930 . S
H457 C467 0.930 . S
C458 H452 0.930 . S
C458 C459 1.355 . S
C458 C460 1.415 . S
C459 C458 1.355 . S
C459 C461 1.419 . S
C460 C458 1.415 . S
C460 C465 1.425 . S
C460 C467 1.409 . S
C461 H453 0.930 . S
C461 C459 1.419 . S
C461 C462 1.362 . S
C462 H454 0.930 . S
C462 C461 1.362 . S
C462 C465 1.409 . S
C463 H455 0.930 . S
C463 C464 1.355 . S
C463 C465 1.415 . S
C464 C463 1.355 . S
C464 C466 1.419 . S
C465 C460 1.425 . S
C465 C462 1.409 . S
C465 C463 1.415 . S
C466 H456 0.930 . S
C466 C464 1.419 . S
C466 C467 1.362 . S
C467 H457 0.930 . S
C467 C460 1.409 . S
C467 C466 1.362 . S
H468 C474 0.930 . S
H469 C477 0.930 . S
H470 C478 0.930 . S
H471 C479 0.930 . S
H472 C482 0.930 . S
H473 C483 0.930 . S
C474 H468 0.930 . S
C474 C475 1.355 . S
C474 C476 1.415 . S
C475 C474 1.355 . S
C475 C477 1.419 . S
C476 C474 1.415 . S
C476 C481 1.425 . S
C476 C483 1.409 . S
C477 H469 0.930 . S
C477 C475 1.419 . S
C477 C478 1.362 . S
C478 H470 0.930 . S
C478 C477 1.362 . S
C478 C481 1.409 . S
C479 H471 0.930 . S
C479 C480 1.355 . S
C479 C481 1.415 . S
C480 C479 1.355 . S
C480 C482 1.419 . S
C481 C476 1.425 . S
C481 C478 1.409 . S
C481 C479 1.415 . S
C482 H472 0.930 . S
C482 C480 1.419 . S
C482 C483 1.362 . S
C483 H473 0.930 . S
C483 C476 1.409 . S
C483 C482 1.362 . S
H484 C490 0.930 . S
H485 C493 0.930 . S
H486 C494 0.930 . S
H487 C495 0.930 . S
H488 C498 0.930 . S
H489 C499 0.930 . S
C490 H484 0.930 . S
C490 C491 1.355 . S
C490 C492 1.415 . S
C491 C490 1.355 . S
C491 C493 1.419 . S
C492 C490 1.415 . S
C492 C497 1.425 . S
C492 C499 1.409 . S
C493 H485 0.930 . S
C493 C491 1.419 . S
C493 C494 1.362 . S
C494 H486 0.930 . S
C494 C493 1.362 . S
C494 C497 1.409 . S
C495 H487 0.930 . S
C495 C496 1.355 . S
C495 C497 1.415 . S
C496 C495 1.355 . S
C496 C498 1.419 . S
C497 C492 1.425 . S
C497 C494 1.409 . S
C497 C495 1.415 . S
C498 H488 0.930 . S
C498 C496 1.419 . S
C498 C499 1.362 . S
C499 H489 0.930 . S
C499 C492 1.409 . S
C499 C498 1.362 . S
H500 C506 0.930 . S
H501 C509 0.930 . S
H502 C510 0.930 . S
H503 C511 0.930 . S
H504 C514 0.930 . S
H505 C515 0.930 . S
C506 H500 0.930 . S
C506 C507 1.355 . S
C506 C508 1.415 . S
C507 C506 1.355 . S
C507 C509 1.419 . S
C508 C506 1.415 . S
C508 C513 1.425 . S
C508 C515 1.409 . S
C509 H501 0.930 . S
C509 C507 1.419 . S
C509 C510 1.362 . S
C510 H502 0.930 . S
C510 C509 1.362 . S
C510 C513 1.409 . S
C511 H503 0.930 . S
C511 C512 1.355 . S
C511 C513 1.415 . S
C512 C511 1.355 . S
C512 C514 1.419 . S
C513 C508 1.425 . S
C513 C510 1.409 . S
C513 C511 1.415 . S
C514 H504 0.930 . S
C514 C512 1.419 . S
C514 C515 1.362 . S
C515 H505 0.930 . S
C515 C508 1.409 . S
C515 C514 1.362 . S
H516 C522 0.930 . S
H517 C525 0.930 . S
H518 C526 0.930 . S
H519 C527 0.930 . S
H520 C530 0.930 . S
H521 C531 0.930 . S
C522 H516 0.930 . S
C522 C523 1.355 . S
C522 C524 1.415 . S
C523 C522 1.355 . S
C523 C525 1.419 . S
C524 C522 1.415 . S
C524 C529 1.425 . S
C524 C531 1.409 . S
C525 H517 0.930 . S
C525 C523 1.419 . S
C525 C526 1.362 . S
C526 H518 0.930 . S
C526 C525 1.362 . S
C526 C529 1.409 . S
C527 H519 0.930 . S
C527 C528 1.355 . S
C527 C529 1.415 . S
C528 C527 1.355 . S
C528 C530 1.419 . S
C529 C524 1.425 . S
C529 C526 1.409 . S
C529 C527 1.415 . S
C530 H520 0.930 . S
C530 C528 1.419 . S
C530 C531 1.362 . S
C531 H521 0.930 . S
C531 C524 1.409 . S
C531 C530 1.362 . S
H532 C538 0.930 . S
H533 C541 0.930 . S
H534 C542 0.930 . S
H535 C543 0.930 . S
H536 C546 0.930 . S
H537 C547 0.930 . S
C538 H532 0.930 . S
C538 C539 1.355 . S
C538 C540 1.415 . S
C539 C538 1.355 . S
C539 C541 1.419 . S
C540 C538 1.415 . S
C540 C545 1.425 . S
C540 C547 1.409 . S
C541 H533 0.930 . S
C541 C539 1.419 . S
C541 C542 1.362 . S
C542 H534 0.930 . S
C542 C541 1.362 . S
C542 C545 1.409 . S
C543 H535 0.930 . S
C543 C544 1.355 . S
C543 C545 1.415 . S
C544 C543 1.355 . S
C544 C546 1.419 . S
C545 C540 1.425 . S
C545 C542 1.409 . S
C545 C543 1.415 . S
C546 H536 0.930 . S
C546 C544 1.419 . S
C546 C547 1.362 . S
C547 H537 0.930 . S
C547 C540 1.409 . S
C547 C546 1.362 . S
H548 C554 0.930 . S
H549 C557 0.930 . S
H550 C558 0.930 . S
H551 C559 0.930 . S
H552 C562 0.930 . S
H553 C563 0.930 . S
C554 H548 0.930 . S
C554 C555 1.355 . S
C554 C556 1.415 . S
C555 C554 1.355 . S
C555 C557 1.419 . S
C556 C554 1.415 . S
C556 C561 1.425 . S
C556 C563 1.409 . S
C557 H549 0.930 . S
C557 C555 1.419 . S
C557 C558 1.362 . S
C558 H550 0.930 . S
C558 C557 1.362 . S
C558 C561 1.409 . S
C559 H551 0.930 . S
C559 C560 1.355 . S
C559 C561 1.415 . S
C560 C559 1.355 . S
C560 C562 1.419 . S
C561 C556 1.425 . S
C561 C558 1.409 . S
C561 C559 1.415 . S
C562 H552 0.930 . S
C562 C560 1.419 . S
C562 C563 1.362 . S
C563 H553 0.930 . S
C563 C556 1.409 . S
C563 C562 1.362 . S
H564 C570 0.930 . S
H565 C573 0.930 . S
H566 C574 0.930 . S
H567 C575 0.930 . S
H568 C578 0.930 . S
H569 C579 0.930 . S
C570 H564 0.930 . S
C570 C571 1.355 . S
C570 C572 1.415 . S
C571 C570 1.355 . S
C571 C573 1.419 . S
C572 C570 1.415 . S
C572 C577 1.425 . S
C572 C579 1.409 . S
C573 H565 0.930 . S
C573 C571 1.419 . S
C573 C574 1.362 . S
C574 H566 0.930 . S
C574 C573 1.362 . S
C574 C577 1.409 . S
C575 H567 0.930 . S
C575 C576 1.355 . S
C575 C577 1.415 . S
C576 C575 1.355 . S
C576 C578 1.419 . S
C577 C572 1.425 . S
C577 C574 1.409 . S
C577 C575 1.415 . S
C578 H568 0.930 . S
C578 C576 1.419 . S
C578 C579 1.362 . S
C579 H569 0.930 . S
C579 C572 1.409 . S
C579 C578 1.362 . S
H580 C586 0.930 . S
H581 C589 0.930 . S
H582 C590 0.930 . S
H583 C591 0.930 . S
H584 C594 0.930 . S
H585 C595 0.930 . S
C586 H580 0.930 . S
C586 C587 1.355 . S
C586 C588 1.415 . S
C587 C586 1.355 . S
C587 C589 1.419 . S
C588 C586 1.415 . S
C588 C593 1.425 . S
C588 C595 1.409 . S
C589 H581 0.930 . S
C589 C587 1.419 . S
C589 C590 1.362 . S
C590 H582 0.930 . S
C590 C589 1.362 . S
C590 C593 1.409 . S
C591 H583 0.930 . S
C591 C592 1.355 . S
C591 C593 1.415 . S
C592 C591 1.355 . S
C592 C594 1.419 . S
C593 C588 1.425 . S
C593 C590 1.409 . S
C593 C591 1.415 . S
C594 H584 0.930 . S
C594 C592 1.419 . S
C594 C595 1.362 . S
C595 H585 0.930 . S
C595 C588 1.409 . S
C595 C594 1.362 . S
H596 C602 0.930 . S
H597 C605 0.930 . S
H598 C606 0.930 . S
H599 C607 0.930 . S
H600 C610 0.930 . S
H601 C611 0.930 . S
C602 H596 0.930 . S
C602 C603 1.355 . S
C602 C604 1.415 . S
C603 C602 1.355 . S
C603 C605 1.419 . S
C604 C602 1.415 . S
C604 C609 1.425 . S
C604 C611 1.409 . S
C605 H597 0.930 . S
C605 C603 1.419 . S
C605 C606 1.362 . S
C606 H598 0.930 . S
C606 C605 1.362 . S
C606 C609 1.409 . S
C607 H599 0.930 . S
C607 C608 1.355 . S
C607 C609 1.415 . S
C608 C607 1.355 . S
C608 C610 1.419 . S
C609 C604 1.425 . S
C609 C606 1.409 . S
C609 C607 1.415 . S
C610 H600 0.930 . S
C610 C608 1.419 . S
C610 C611 1.362 . S
C611 H601 0.930 . S
C611 C604 1.409 . S
C611 C610 1.362 . S
H612 C618 0.930 . S
H613 C621 0.930 . S
H614 C622 0.930 1_554 S
H615 C623 0.930 . S
H616 C626 0.930 . S
H617 C627 0.930 . S
C618 H612 0.930 . S
C618 C619 1.355 . S
C618 C620 1.415 . S
C619 C618 1.355 . S
C619 C621 1.419 . S
C620 C618 1.415 . S
C620 C625 1.425 . S
C620 C627 1.409 . S
C621 H613 0.930 . S
C621 C619 1.419 . S
C621 C622 1.362 . S
C622 H614 0.930 1_556 S
C622 C621 1.362 . S
C622 C625 1.409 . S
C623 H615 0.930 . S
C623 C624 1.355 . S
C623 C625 1.415 1_554 S
C624 C623 1.355 . S
C624 C626 1.419 1_554 S
C625 C620 1.425 . S
C625 C622 1.409 . S
C625 C623 1.415 1_556 S
C626 H616 0.930 . S
C626 C624 1.419 1_556 S
C626 C627 1.362 . S
C627 H617 0.930 . S
C627 C620 1.409 . S
C627 C626 1.362 . S
H628 C634 0.930 . S
H629 C637 0.930 . S
H630 C638 0.930 . S
H631 C639 0.930 . S
H632 C642 0.930 . S
H633 C643 0.930 . S
C634 H628 0.930 . S
C634 C635 1.355 . S
C634 C636 1.415 . S
C635 C634 1.355 . S
C635 C637 1.419 . S
C636 C634 1.415 . S
C636 C641 1.425 . S
C636 C643 1.409 . S
C637 H629 0.930 . S
C637 C635 1.419 . S
C637 C638 1.362 . S
C638 H630 0.930 . S
C638 C637 1.362 . S
C638 C641 1.409 . S
C639 H631 0.930 . S
C639 C640 1.355 . S
C639 C641 1.415 . S
C640 C639 1.355 . S
C640 C642 1.419 . S
C641 C636 1.425 . S
C641 C638 1.409 . S
C641 C639 1.415 . S
C642 H632 0.930 . S
C642 C640 1.419 . S
C642 C643 1.362 . S
C643 H633 0.930 . S
C643 C636 1.409 . S
C643 C642 1.362 . S
H644 C650 0.930 . S
H645 C653 0.930 . S
H646 C654 0.930 . S
H647 C655 0.930 . S
H648 C658 0.930 . S
H649 C659 0.930 . S
C650 H644 0.930 . S
C650 C651 1.355 . S
C650 C652 1.415 . S
C651 C650 1.355 . S
C651 C653 1.419 . S
C652 C650 1.415 . S
C652 C657 1.425 . S
C652 C659 1.409 . S
C653 H645 0.930 . S
C653 C651 1.419 . S
C653 C654 1.362 . S
C654 H646 0.930 . S
C654 C653 1.362 . S
C654 C657 1.409 . S
C655 H647 0.930 . S
C655 C656 1.355 . S
C655 C657 1.415 . S
C656 C655 1.355 . S
C656 C658 1.419 . S
C657 C652 1.425 . S
C657 C654 1.409 . S
C657 C655 1.415 . S
C658 H648 0.930 . S
C658 C656 1.419 . S
C658 C659 1.362 . S
C659 H649 0.930 . S
C659 C652 1.409 . S
C659 C658 1.362 . S
H660 C666 0.930 . S
H661 C669 0.930 . S
H662 C670 0.930 . S
H663 C671 0.930 . S
H664 C674 0.930 . S
H665 C675 0.930 . S
C666 H660 0.930 . S
C666 C667 1.355 . S
C666 C668 1.415 . S
C667 C666 1.355 . S
C667 C669 1.419 . S
C668 C666 1.415 . S
C668 C673 1.425 . S
C668 C675 1.409 . S
C669 H661 0.930 . S
C669 C667 1.419 . S
C669 C670 1.362 . S
C670 H662 0.930 . S
C670 C669 1.362 . S
C670 C673 1.409 . S
C671 H663 0.930 . S
C671 C672 1.355 . S
C671 C673 1.415 . S
C672 C671 1.355 . S
C672 C674 1.419 . S
C673 C668 1.425 . S
C673 C670 1.409 . S
C673 C671 1.415 . S
C674 H664 0.930 . S
C674 C672 1.419 . S
C674 C675 1.362 . S
C675 H665 0.930 . S
C675 C668 1.409 . S
C675 C674 1.362 . S
H676 C682 0.930 . S
H677 C685 0.930 . S
H678 C686 0.930 . S
H679 C687 0.930 . S
H680 C690 0.930 . S
H681 C691 0.930 . S
C682 H676 0.930 . S
C682 C683 1.355 . S
C682 C684 1.415 . S
C683 C682 1.355 . S
C683 C685 1.419 . S
C684 C682 1.415 . S
C684 C689 1.425 . S
C684 C691 1.409 . S
C685 H677 0.930 . S
C685 C683 1.419 . S
C685 C686 1.362 . S
C686 H678 0.930 . S
C686 C685 1.362 . S
C686 C689 1.409 . S
C687 H679 0.930 . S
C687 C688 1.355 . S
C687 C689 1.415 . S
C688 C687 1.355 . S
C688 C690 1.419 . S
C689 C684 1.425 . S
C689 C686 1.409 . S
C689 C687 1.415 . S
C690 H680 0.930 . S
C690 C688 1.419 . S
C690 C691 1.362 . S
C691 H681 0.930 . S
C691 C684 1.409 . S
C691 C690 1.362 . S
H692 C698 0.930 . S
H693 C701 0.930 . S
H694 C702 0.930 . S
H695 C703 0.930 . S
H696 C706 0.930 . S
H697 C707 0.930 . S
C698 H692 0.930 . S
C698 C699 1.355 . S
C698 C700 1.415 . S
C699 C698 1.355 . S
C699 C701 1.419 . S
C700 C698 1.415 . S
C700 C705 1.425 . S
C700 C707 1.409 . S
C701 H693 0.930 . S
C701 C699 1.419 . S
C701 C702 1.362 . S
C702 H694 0.930 . S
C702 C701 1.362 . S
C702 C705 1.409 . S
C703 H695 0.930 . S
C703 C704 1.355 . S
C703 C705 1.415 . S
C704 C703 1.355 . S
C704 C706 1.419 . S
C705 C700 1.425 . S
C705 C702 1.409 . S
C705 C703 1.415 . S
C706 H696 0.930 . S
C706 C704 1.419 . S
C706 C707 1.362 . S
C707 H697 0.930 . S
C707 C700 1.409 . S
C707 C706 1.362 . S
H708 C714 0.930 . S
H709 C717 0.930 . S
H710 C718 0.930 . S
H711 C719 0.930 . S
H712 C722 0.930 . S
H713 C723 0.930 . S
C714 H708 0.930 . S
C714 C715 1.355 . S
C714 C716 1.415 . S
C715 C714 1.355 . S
C715 C717 1.419 . S
C716 C714 1.415 . S
C716 C721 1.425 . S
C716 C723 1.409 . S
C717 H709 0.930 . S
C717 C715 1.419 . S
C717 C718 1.362 . S
C718 H710 0.930 . S
C718 C717 1.362 . S
C718 C721 1.409 . S
C719 H711 0.930 . S
C719 C720 1.355 . S
C719 C721 1.415 . S
C720 C719 1.355 . S
C720 C722 1.419 . S
C721 C716 1.425 . S
C721 C718 1.409 . S
C721 C719 1.415 . S
C722 H712 0.930 . S
C722 C720 1.419 . S
C722 C723 1.362 . S
C723 H713 0.930 . S
C723 C716 1.409 . S
C723 C722 1.362 . S
H724 C730 0.930 . S
H725 C733 0.930 . S
H726 C734 0.930 . S
H727 C735 0.930 . S
H728 C738 0.930 . S
H729 C739 0.930 . S
C730 H724 0.930 . S
C730 C731 1.355 . S
C730 C732 1.415 . S
C731 C730 1.355 . S
C731 C733 1.419 . S
C732 C730 1.415 . S
C732 C737 1.425 1_554 S
C732 C739 1.409 . S
C733 H725 0.930 . S
C733 C731 1.419 . S
C733 C734 1.362 1_554 S
C734 H726 0.930 . S
C734 C733 1.362 1_556 S
C734 C737 1.409 . S
C735 H727 0.930 . S
C735 C736 1.355 . S
C735 C737 1.415 . S
C736 C735 1.355 . S
C736 C738 1.419 . S
C737 C732 1.425 1_556 S
C737 C734 1.409 . S
C737 C735 1.415 . S
C738 H728 0.930 . S
C738 C736 1.419 . S
C738 C739 1.362 1_556 S
C739 H729 0.930 . S
C739 C732 1.409 . S
C739 C738 1.362 1_554 S
H740 C746 0.930 . S
H741 C749 0.930 . S
H742 C750 0.930 . S
H743 C751 0.930 . S
H744 C754 0.930 . S
H745 C755 0.930 . S
C746 H740 0.930 . S
C746 C747 1.355 . S
C746 C748 1.415 . S
C747 C746 1.355 . S
C747 C749 1.419 . S
C748 C746 1.415 . S
C748 C753 1.425 . S
C748 C755 1.409 . S
C749 H741 0.930 . S
C749 C747 1.419 . S
C749 C750 1.362 . S
C750 H742 0.930 . S
C750 C749 1.362 . S
C750 C753 1.409 . S
C751 H743 0.930 . S
C751 C752 1.355 . S
C751 C753 1.415 . S
C752 C751 1.355 . S
C752 C754 1.419 . S
C753 C748 1.425 . S
C753 C750 1.409 . S
C753 C751 1.415 . S
C754 H744 0.930 . S
C754 C752 1.419 . S
C754 C755 1.362 . S
C755 H745 0.930 . S
C755 C748 1.409 . S
C755 C754 1.362 . S
C384 C365 1.461 . S
C379 C45 1.513 . S
C395 C84 1.478 . S
C400 C294 1.459 . S
C411 C126 1.472 . S
C416 C308 1.488 . S
C427 C189 1.495 . S
C432 C322 1.471 . S
C448 C336 1.506 . S
C443 C228 1.501 . S
C459 C270 1.472 . S
C464 C351 1.495 . S
C475 C69 1.470 . S
C480 C309 1.456 . S
C491 C141 1.510 . S
C496 C323 1.458 . S
C507 C174 1.465 . S
C512 C337 1.484 . S
C528 C350 1.482 . S
C523 C213 1.520 . S
C544 C364 1.453 . S
C539 C285 1.491 . S
C560 C295 1.461 . S
C555 C30 1.512 . S
C571 C36 1.529 . S
C576 C311 1.510 . S
C587 C93 1.591 . S
C592 C325 1.576 . S
C608 C339 1.488 . S
C603 C117 1.510 . S
C619 C180 1.585 . S
C624 C352 1.546 . S
C640 C366 1.511 . S
C635 C237 1.544 . S
C656 C297 1.559 . S
C651 C261 1.581 . S
C672 C367 1.524 . S
C667 C78 1.524 . S
C683 C132 1.537 . S
C688 C296 1.491 . S
C704 C310 1.521 . S
C699 C165 1.543 . S
C715 C222 1.509 . S
C720 C324 1.506 . S
C731 C276 1.586 . S
C736 C338 1.546 . S
C747 C21 1.529 . S
C752 C353 1.527 . S
