# Generated by pormake.
# Topology zzz, (3,6)-cn, num edge types: 1
# Building blocks:
#     Node 0, Type 0, BuildingBlock: PAMTOO_clean_linker_0, # of connection points: 3
#     Node 1, Type 0, BuildingBlock: PAMTOO_clean_linker_0, # of connection points: 3
#     Node 2, Type 0, BuildingBlock: PAMTOO_clean_linker_0, # of connection points: 3
#     Node 3, Type 0, BuildingBlock: PAMTOO_clean_linker_0, # of connection points: 3
#     Node 4, Type 0, BuildingBlock: PAMTOO_clean_linker_0, # of connection points: 3
#     Node 5, Type 0, BuildingBlock: PAMTOO_clean_linker_0, # of connection points: 3
#     Node 6, Type 0, BuildingBlock: PAMTOO_clean_linker_0, # of connection points: 3
#     Node 7, Type 0, BuildingBlock: PAMTOO_clean_linker_0, # of connection points: 3
#     Node 8, Type 1, BuildingBlock: BETFEN_clean_sbu_0, # of connection points: 6
#     Node 9, Type 1, BuildingBlock: BETFEN_clean_sbu_0, # of connection points: 6
#     Node 10, Type 1, BuildingBlock: BETFEN_clean_sbu_0, # of connection points: 6
#     Node 11, Type 1, BuildingBlock: BETFEN_clean_sbu_0, # of connection points: 6
#     Edge 12, Type (0, 1), BuildingBlock: EZIPEK_clean_linker_0, # of connection points: 2
#     Edge 13, Type (0, 1), BuildingBlock: EZIPEK_clean_linker_0, # of connection points: 2
#     Edge 14, Type (0, 1), BuildingBlock: EZIPEK_clean_linker_0, # of connection points: 2
#     Edge 15, Type (0, 1), BuildingBlock: EZIPEK_clean_linker_0, # of connection points: 2
#     Edge 16, Type (0, 1), BuildingBlock: EZIPEK_clean_linker_0, # of connection points: 2
#     Edge 17, Type (0, 1), BuildingBlock: EZIPEK_clean_linker_0, # of connection points: 2
#     Edge 18, Type (0, 1), BuildingBlock: EZIPEK_clean_linker_0, # of connection points: 2
#     Edge 19, Type (0, 1), BuildingBlock: EZIPEK_clean_linker_0, # of connection points: 2
#     Edge 20, Type (0, 1), BuildingBlock: EZIPEK_clean_linker_0, # of connection points: 2
#     Edge 21, Type (0, 1), BuildingBlock: EZIPEK_clean_linker_0, # of connection points: 2
#     Edge 22, Type (0, 1), BuildingBlock: EZIPEK_clean_linker_0, # of connection points: 2
#     Edge 23, Type (0, 1), BuildingBlock: EZIPEK_clean_linker_0, # of connection points: 2
#     Edge 24, Type (0, 1), BuildingBlock: EZIPEK_clean_linker_0, # of connection points: 2
#     Edge 25, Type (0, 1), BuildingBlock: EZIPEK_clean_linker_0, # of connection points: 2
#     Edge 26, Type (0, 1), BuildingBlock: EZIPEK_clean_linker_0, # of connection points: 2
#     Edge 27, Type (0, 1), BuildingBlock: EZIPEK_clean_linker_0, # of connection points: 2
#     Edge 28, Type (0, 1), BuildingBlock: EZIPEK_clean_linker_0, # of connection points: 2
#     Edge 29, Type (0, 1), BuildingBlock: EZIPEK_clean_linker_0, # of connection points: 2
#     Edge 30, Type (0, 1), BuildingBlock: EZIPEK_clean_linker_0, # of connection points: 2
#     Edge 31, Type (0, 1), BuildingBlock: EZIPEK_clean_linker_0, # of connection points: 2
#     Edge 32, Type (0, 1), BuildingBlock: EZIPEK_clean_linker_0, # of connection points: 2
#     Edge 33, Type (0, 1), BuildingBlock: EZIPEK_clean_linker_0, # of connection points: 2
#     Edge 34, Type (0, 1), BuildingBlock: EZIPEK_clean_linker_0, # of connection points: 2
#     Edge 35, Type (0, 1), BuildingBlock: EZIPEK_clean_linker_0, # of connection points: 2
# Relax obj value: 0.369
# Max RMSD: 0.214
# Mean RMSD: 0.160
data_MOF--net-zzz--node1-BETFEN_clean_sbu_0--node2-PAMTOO_clean_linker_0--edge1-EZIPEK_clean_linker_0
_symmetry_space_group_name_H-M    P1
_symmetry_Int_Tables_number       1
_symmetry_cell_setting            triclinic
loop_
_symmetry_equiv_pos_as_xyz
'x, y, z'
_cell_length_a     37.671682
_cell_length_b     37.886402
_cell_length_c     10.184822
_cell_angle_alpha  89.962639
_cell_angle_beta   90.142477
_cell_angle_gamma 90.261448
loop_
_atom_site_label
_atom_site_type_symbol
_atom_site_fract_x
_atom_site_fract_y
_atom_site_fract_z
_atom_type_partial_charge
H0 H 0.85905 0.51498 0.41155 0.0
H1 H 0.76657 0.56174 0.23885 0.0
H2 H 0.76607 0.53043 0.64524 0.0
H3 H 0.68048 0.52206 0.49089 0.0
C4 C 0.69842 0.52354 0.40518 0.0
O5 O 0.72479 0.5482 0.43508 0.0
H6 H 0.70942 0.49638 0.40097 0.0
C7 C 0.83151 0.52272 0.41922 0.0
C8 C 0.81632 0.52302 0.54292 0.0
C9 C 0.81552 0.54086 0.31509 0.0
C10 C 0.77946 0.54872 0.32072 0.0
C11 C 0.76029 0.5412 0.43512 0.0
C12 C 0.77936 0.53097 0.55118 0.0
H13 H 1.01431 0.84841 0.3875 0.0
H14 H 0.98672 0.74785 0.22236 0.0
H15 H 0.03836 0.75449 0.60088 0.0
H16 H 0.03999 0.66646 0.45481 0.0
C17 C 0.03892 0.68629 0.37501 0.0
O18 O 1.01332 0.71078 0.41134 0.0
H19 H 0.0657 0.69846 0.37872 0.0
C20 C 1.01449 0.82002 0.39231 0.0
C21 C 1.02792 0.80486 0.50561 0.0
C22 C 0.99739 0.80019 0.29488 0.0
C23 C 0.99947 0.76345 0.29829 0.0
C24 C 1.01601 0.74658 0.40463 0.0
C25 C 1.02893 0.76733 0.51255 0.0
H26 H 0.72742 0.08349 0.37644 0.0
H27 H 0.82496 0.05897 0.1836 0.0
H28 H 0.78722 0.99222 0.49591 0.0
H29 H 0.88159 0.98184 0.39093 0.0
C30 C 0.87261 1.00481 0.332 0.0
O31 O 0.83649 1.00059 0.30606 0.0
H32 H 0.87765 1.02708 0.40027 0.0
C33 C 0.75107 0.06734 0.3705 0.0
C34 C 0.7538 0.03749 0.4513 0.0
C35 C 0.77713 0.07594 0.27743 0.0
C36 C 0.80619 0.05379 0.26117 0.0
C37 C 0.81042 1.0238 0.33931 0.0
C38 C 0.78449 1.01586 0.43707 0.0
H39 H 0.46538 0.71409 0.45826 0.0
H40 H 0.47609 0.81695 0.29026 0.0
H41 H 0.55839 0.77631 0.54324 0.0
H42 H 0.54094 0.8737 0.47092 0.0
C43 C 0.53264 0.86307 0.37447 0.0
O44 O 0.54163 0.82739 0.36872 0.0
H45 H 0.50333 0.86604 0.37575 0.0
C46 C 0.47985 0.73879 0.45072 0.0
C47 C 0.51233 0.74202 0.51703 0.0
C48 C 0.46632 0.76581 0.37092 0.0
C49 C 0.48633 0.79649 0.35344 0.0
C50 C 0.52003 0.80042 0.41116 0.0
C51 C 0.53253 0.77356 0.49771 0.0
H52 H 0.21983 0.58486 0.19826 0.0
H53 H 0.32372 0.57748 0.36586 0.0
H54 H 0.29222 0.50597 0.05607 0.0
H55 H 0.35788 0.47541 0.25488 0.0
C56 C 0.35518 0.49978 0.31401 0.0
O57 O 0.34553 0.5253 0.22228 0.0
H58 H 0.33323 0.49533 0.38523 0.0
C59 C 0.24586 0.57266 0.19871 0.0
C60 C 0.25231 0.54446 0.11374 0.0
C61 C 0.27151 0.58466 0.2882 0.0
C62 C 0.30454 0.56846 0.29417 0.0
C63 C 0.3124 0.53982 0.21284 0.0
C64 C 0.28624 0.52779 0.12076 0.0
H65 H 0.96813 0.20339 0.1536 0.0
H66 H 0.96747 0.30758 0.30855 0.0
H67 H 0.0552 0.27372 0.0678 0.0
H68 H 0.0722 0.3253 0.34462 0.0
C69 C 0.04449 0.33503 0.34259 0.0
O70 O 1.0295 0.32718 0.22003 0.0
H71 H 1.03101 0.31921 0.42028 0.0
C72 C 0.98045 0.22922 0.16013 0.0
C73 C 1.01272 0.23502 0.09568 0.0
C74 C 0.96407 0.25537 0.23535 0.0
C75 C 0.9802 0.28828 0.24785 0.0
C76 C 1.01364 0.29519 0.19311 0.0
C77 C 1.02989 0.26848 0.11411 0.0
H78 H 0.35372 0.9639 0.22518 0.0
H79 H 0.24631 0.97465 0.35881 0.0
H80 H 0.28677 0.04411 0.05799 0.0
H81 H 0.21535 0.07851 0.2286 0.0
C82 C 0.22047 0.05523 0.29209 0.0
O83 O 0.23058 1.02777 0.21 0.0
H84 H 0.24313 0.06209 0.35796 0.0
C85 C 0.32825 0.97705 0.21847 0.0
C86 C 0.32418 1.0049 0.12939 0.0
C87 C 0.30037 0.96576 0.29959 0.0
C88 C 0.26782 0.98312 0.29554 0.0
C89 C 0.26295 1.01192 0.21163 0.0
C90 C 0.29093 1.02256 0.1261 0.0
H91 H 0.60421 0.34265 0.19344 0.0
H92 H 0.60611 0.23728 0.33655 0.0
H93 H 0.52535 0.26824 0.05751 0.0
H94 H 0.50093 0.2122 0.30494 0.0
C95 C 0.52907 0.20522 0.32295 0.0
O96 O 0.54909 0.2149 0.21331 0.0
H97 H 0.5368 0.22189 0.40859 0.0
C98 C 0.59326 0.31609 0.19109 0.0
C99 C 0.56379 0.30901 0.11141 0.0
C100 C 0.60864 0.29009 0.26985 0.0
C101 C 0.59429 0.25627 0.27171 0.0
C102 C 0.56362 0.24797 0.19939 0.0
C103 C 0.54849 0.27445 0.11651 0.0
Pr104 Pr 0.06249 1.01437 0.90001 0.0
Pr105 Pr 1.02042 1.02403 0.67799 0.0
C106 C 0.08665 0.99277 0.13415 0.0
C107 C 0.06398 0.97369 0.22768 0.0
C108 C 0.07466 0.9402 0.27006 0.0
C109 C 0.04933 0.91355 0.28543 0.0
C110 C 1.01343 0.92022 0.25545 0.0
C111 C 1.00246 0.95523 0.24232 0.0
C112 C 1.02762 0.98202 0.2293 0.0
C113 C 0.10615 0.03065 0.68211 0.0
C114 C 0.03984 0.94284 0.72867 0.0
C115 C 0.98839 0.04333 0.45326 0.0
C116 C 0.96415 0.07197 0.41939 0.0
C117 C 0.93705 0.08211 0.50626 0.0
C118 C 0.92025 0.1146 0.49034 0.0
C119 C 0.93076 0.13712 0.38836 0.0
C120 C 0.95566 0.12566 0.29571 0.0
C121 C 0.97223 0.09318 0.31098 0.0
C122 C 0.97647 1.0083 0.89682 0.0
C123 C 0.03809 0.09625 0.86011 0.0
O124 O 0.0782 1.02555 0.1116 0.0
O125 O 0.09263 0.9753 0.02602 0.0
O126 O 0.07996 1.00961 0.67999 0.0
O127 O 0.11056 0.04343 0.79911 0.0
O128 O 0.03627 0.96538 0.63163 0.0
O129 O 0.04333 0.95547 0.84904 0.0
O130 O 1.02044 0.05354 0.48538 0.0
O131 O 0.97595 1.01858 0.52972 0.0
O132 O 1.00294 0.0291 0.89796 0.0
O133 O 0.97242 0.99511 0.78065 0.0
O134 O 0.04873 0.07337 0.94879 0.0
O135 O 1.02969 0.08454 0.74133 0.0
H136 H 0.10244 0.93305 0.27049 0.0
H137 H 0.05853 0.88678 0.29982 0.0
H138 H 0.97497 0.96149 0.22777 0.0
H139 H 1.01843 1.00796 0.20032 0.0
H140 H 0.93073 0.06627 0.59173 0.0
H141 H 0.90156 0.12348 0.5638 0.0
H142 H 0.96426 0.14293 0.21713 0.0
H143 H 0.99313 0.08579 0.2435 0.0
Pr144 Pr 0.54477 0.04956 0.89418 0.0
Pr145 Pr 0.53467 0.99748 0.70863 0.0
C146 C 0.56417 0.09368 0.08982 0.0
C147 C 0.59525 0.1158 0.11913 0.0
C148 C 0.61505 0.10805 0.23199 0.0
C149 C 0.65011 0.11936 0.24181 0.0
C150 C 0.66568 0.13814 0.13809 0.0
C151 C 0.64446 0.15058 0.03486 0.0
C152 C 0.60919 0.1393 0.02514 0.0
C153 C 0.52597 0.08016 0.65017 0.0
C154 C 0.61581 1.02532 0.71534 0.0
C155 C 0.51401 0.95334 0.51502 0.0
C156 C 0.48247 0.93157 0.48861 0.0
C157 C 0.46353 0.93747 0.37226 0.0
C158 C 0.4284 0.92626 0.36213 0.0
C159 C 0.41208 0.90908 0.46825 0.0
C160 C 0.4326 0.89824 0.57574 0.0
C161 C 0.46779 0.90964 0.58614 0.0
C162 C 0.55356 0.9673 0.95387 0.0
C163 C 0.46358 1.02145 0.8834 0.0
O164 O 0.57017 0.05974 0.09143 0.0
O165 O 0.54391 0.10327 0.99217 0.0
O166 O 0.5488 0.05607 0.6668 0.0
O167 O 0.51068 0.08727 0.76078 0.0
O168 O 0.59184 1.01154 0.63673 0.0
O169 O 0.60539 0.03805 0.83044 0.0
O170 O 0.50853 0.98735 0.51245 0.0
O171 O 0.53463 0.94367 0.61157 0.0
O172 O 0.53057 0.99116 0.93645 0.0
O173 O 0.56864 0.95988 0.84303 0.0
O174 O 0.48728 0.03516 0.96333 0.0
O175 O 0.47424 1.00902 0.76863 0.0
H176 H 0.60455 0.09045 0.30651 0.0
H177 H 0.66617 0.10976 0.3226 0.0
H178 H 0.65626 0.165 0.954 0.0
H179 H 0.59422 0.14608 0.93797 0.0
H180 H 0.47471 0.95363 0.2947 0.0
H181 H 0.41294 0.93441 0.27761 0.0
H182 H 0.42035 0.88472 0.65782 0.0
H183 H 0.48233 0.90375 0.67483 0.0
Pr184 Pr 0.51385 0.52964 0.92176 0.0
Pr185 Pr 0.56101 0.52167 0.72352 0.0
C186 C 0.47596 0.55064 0.13112 0.0
C187 C 0.4561 0.58273 0.16296 0.0
C188 C 0.46645 0.60251 0.27296 0.0
C189 C 0.45295 0.63625 0.29198 0.0
C190 C 0.42883 0.65053 0.20156 0.0
C191 C 0.41654 0.63001 0.09636 0.0
C192 C 0.43023 0.59623 0.07671 0.0
C193 C 0.47619 0.51382 0.68859 0.0
C194 C 0.53426 0.60171 0.74594 0.0
C195 C 0.60097 0.50341 0.51548 0.0
C196 C 0.62476 0.47421 0.48394 0.0
C197 C 0.64711 0.45966 0.58036 0.0
C198 C 0.66194 0.42639 0.56155 0.0
C199 C 0.65361 0.40734 0.44764 0.0
C200 C 0.63528 0.42384 0.34456 0.0
C201 C 0.62089 0.45724 0.36271 0.0
C202 C 0.59732 0.53688 0.96269 0.0
C203 C 0.53947 0.44871 0.89036 0.0
O204 O 0.51024 0.55501 0.12167 0.0
O205 O 0.46295 0.53018 0.03965 0.0
O206 O 0.50139 0.53611 0.69724 0.0
O207 O 0.47168 0.49757 0.79939 0.0
O208 O 0.54473 0.57854 0.659 0.0
O209 O 0.52569 0.5902 0.86451 0.0
O210 O 0.56762 0.4945 0.52789 0.0
O211 O 0.61162 0.52565 0.60525 0.0
O212 O 0.57272 0.51433 0.94809 0.0
O213 O 0.60288 0.55318 0.85265 0.0
O214 O 0.52773 0.4712 0.97813 0.0
O215 O 0.54961 0.46096 0.77464 0.0
H216 H 0.48633 0.59256 0.34045 0.0
H217 H 0.46296 0.65201 0.37286 0.0
H218 H 0.39843 0.64105 0.02469 0.0
H219 H 0.42206 0.58162 0.99033 0.0
H220 H 0.6509 0.47267 0.67373 0.0
H221 H 0.67609 0.4139 0.64168 0.0
H222 H 0.62884 0.40941 0.25567 0.0
H223 H 0.60412 0.46837 0.28673 0.0
Pr224 Pr 0.0321 0.4978 0.90627 0.0
Pr225 Pr 0.03707 0.54509 0.70891 0.0
C226 C 1.01699 0.46148 0.12625 0.0
C227 C 0.9998 0.47734 0.2407 0.0
C228 C 0.9684 0.46171 0.28641 0.0
C229 C 0.93955 0.48309 0.31759 0.0
C230 C 0.94203 0.51972 0.29639 0.0
C231 C 0.97564 0.53512 0.28302 0.0
C232 C 1.00484 0.51384 0.25831 0.0
C233 C 0.04654 0.46143 0.66797 0.0
C234 C 0.95625 0.52206 0.76513 0.0
C235 C 0.05355 0.58369 0.49529 0.0
C236 C 0.08336 0.60734 0.46697 0.0
C237 C 0.09831 0.62807 0.56765 0.0
C238 C 0.13286 0.64099 0.55539 0.0
C239 C 0.15264 0.63259 0.44354 0.0
C240 C 0.136 0.61627 0.33599 0.0
C241 C 0.10142 0.60352 0.34794 0.0
C242 C 1.0227 0.58303 0.9435 0.0
C243 C 0.11244 0.52636 0.87335 0.0
O244 O 0.04883 0.47294 0.09997 0.0
O245 O 0.99675 0.46074 0.02212 0.0
O246 O 1.02383 0.48563 0.68251 0.0
O247 O 0.0633 0.45641 0.77728 0.0
O248 O 0.97738 0.53006 0.66708 0.0
O249 O 0.971 0.51482 0.88011 0.0
O250 O 0.06236 0.5506 0.50903 0.0
O251 O 1.03108 0.59421 0.5841 0.0
O252 O 0.04463 0.55776 0.93335 0.0
O253 O 1.0071 0.5882 0.83191 0.0
O254 O 0.09038 0.5135 0.96045 0.0
O255 O 0.09927 0.53682 0.75896 0.0
H256 H 0.96388 0.43371 0.27388 0.0
H257 H 0.9139 0.47074 0.33327 0.0
H258 H 0.97869 0.56333 0.27533 0.0
H259 H 1.02933 0.52662 0.22855 0.0
H260 H 0.08474 0.63136 0.66046 0.0
H261 H 0.14551 0.65344 0.63913 0.0
H262 H 0.15107 0.60964 0.24896 0.0
H263 H 0.09022 0.58763 0.26952 0.0
C264 C 0.17699 0.07588 0.46952 0.0
C265 C 0.18714 0.04882 0.37931 0.0
C266 C 0.1439 1.00902 0.48699 0.0
C267 C 0.13239 0.03667 0.57164 0.0
N268 N 0.13091 0.09948 0.60956 0.0
N269 N 0.16692 0.99526 0.27187 0.0
C270 C 0.1469 0.07098 0.55289 0.0
C271 C 0.1668 1.01694 0.37873 0.0
N272 N 0.19617 0.10656 0.47734 0.0
N273 N 0.13416 0.97491 0.51097 0.0
H274 H 0.17637 1.00329 0.1807 0.0
H275 H 0.15205 0.9721 0.26661 0.0
H276 H 0.11842 0.96749 0.58993 0.0
H277 H 0.14499 0.95361 0.46048 0.0
H278 H 0.19292 0.12474 0.55308 0.0
H279 H 0.21681 0.11314 0.41388 0.0
H280 H 0.13807 0.12547 0.58864 0.0
H281 H 0.10774 0.09751 0.66492 0.0
C282 C 0.50415 0.14189 0.35947 0.0
C283 C 0.53314 0.16614 0.36681 0.0
C284 C 0.5586 0.13175 0.54798 0.0
C285 C 0.52932 0.10808 0.54573 0.0
N286 N 0.47763 0.08619 0.43254 0.0
N287 N 0.59507 0.17067 0.41759 0.0
C288 C 0.50315 0.1117 0.44552 0.0
C289 C 0.5626 0.15693 0.44579 0.0
N290 N 0.47774 0.14784 0.27033 0.0
N291 N 0.58195 0.13141 0.65056 0.0
H292 H 0.59948 0.18229 0.32654 0.0
H293 H 0.61808 0.16405 0.46885 0.0
H294 H 0.57911 0.11448 0.73054 0.0
H295 H 0.60186 0.15037 0.66217 0.0
H296 H 0.45378 0.13408 0.26835 0.0
H297 H 0.48021 0.16681 0.19655 0.0
H298 H 0.45923 0.08535 0.35629 0.0
H299 H 0.47629 0.06432 0.49475 0.0
C300 C 0.40323 0.53972 0.43607 0.0
C301 C 0.39026 0.5057 0.39525 0.0
C302 C 0.43913 0.47905 0.52638 0.0
C303 C 0.44859 0.51222 0.58012 0.0
N304 N 0.43355 0.57351 0.60639 0.0
N305 N 0.39152 0.44267 0.44431 0.0
C306 C 0.42884 0.5424 0.54085 0.0
C307 C 0.40711 0.47531 0.45205 0.0
N308 N 0.39251 0.56967 0.3736 0.0
N309 N 0.46071 0.45065 0.54644 0.0
H310 H 0.3669 0.43769 0.40153 0.0
H311 H 0.40111 0.42086 0.49556 0.0
H312 H 0.48431 0.45223 0.60004 0.0
H313 H 0.45699 0.42662 0.49835 0.0
H314 H 0.39999 0.59495 0.40216 0.0
H315 H 0.38099 0.56973 0.2813 0.0
H316 H 0.41715 0.59533 0.59449 0.0
H317 H 0.45154 0.57638 0.68325 0.0
C318 C 0.07331 0.39609 0.39415 0.0
C319 C 0.04232 0.37447 0.3856 0.0
C320 C 1.01334 0.41201 0.55044 0.0
C321 C 0.04439 0.43313 0.56363 0.0
N322 N 0.1014 0.44996 0.47743 0.0
N323 N 0.979 0.37476 0.40502 0.0
C324 C 0.07364 0.42662 0.47863 0.0
C325 C 1.0111 0.3865 0.44816 0.0
N326 N 0.10239 0.3873 0.3218 0.0
N327 N 0.98656 0.41477 0.63968 0.0
H328 H 0.97697 0.36234 0.31437 0.0
H329 H 0.95492 0.38342 0.44322 0.0
H330 H 0.98824 0.43127 0.72115 0.0
H331 H 0.96472 0.39779 0.64089 0.0
H332 H 0.12734 0.39873 0.3341 0.0
H333 H 0.1013 0.36816 0.24821 0.0
H334 H 0.12228 0.44888 0.41094 0.0
H335 H 0.10228 0.47215 0.53805 0.0
C336 C 0.9039 0.97525 0.13609 0.0
C337 C 0.89516 1.00684 0.20471 0.0
C338 C 0.93317 0.04028 0.04894 0.0
C339 C 0.94675 1.00811 0.99738 0.0
N340 N 0.94528 0.94454 0.99408 0.0
N341 N 0.89424 0.07057 0.20183 0.0
C342 C 0.93138 0.97556 0.03886 0.0
C343 C 0.90781 0.03974 0.15416 0.0
N344 N 0.88559 0.94484 0.16287 0.0
N345 N 0.94438 0.07147 0.99567 0.0
H346 H 0.87735 0.0721 0.28201 0.0
H347 H 0.89773 0.09508 0.15807 0.0
H348 H 0.95803 0.07255 0.90734 0.0
H349 H 0.9398 0.09631 0.03495 0.0
H350 H 0.88776 0.92184 0.10781 0.0
H351 H 0.86539 0.94334 0.23235 0.0
H352 H 0.93757 0.91971 0.02721 0.0
H353 H 0.96747 0.94349 0.93366 0.0
C354 C 0.56935 0.91492 0.27492 0.0
C355 C 0.54613 0.88537 0.25596 0.0
C356 C 0.52856 0.90994 0.041 0.0
C357 C 0.55076 0.93983 0.06052 0.0
N358 N 0.59653 0.96861 0.18607 0.0
N359 N 0.51706 0.8489 0.09395 0.0
C360 C 0.57244 0.94166 0.17488 0.0
C361 C 0.52963 0.88119 0.13113 0.0
N362 N 0.58889 0.91712 0.38777 0.0
N363 N 0.50584 0.90905 0.93643 0.0
H364 H 0.52192 0.82623 0.14812 0.0
H365 H 0.50719 0.8435 1.00043 0.0
H366 H 0.50511 0.92885 0.86559 0.0
H367 H 0.48572 0.89026 0.92633 0.0
H368 H 0.60218 0.93978 0.41856 0.0
H369 H 0.59227 0.8957 0.45076 0.0
H370 H 0.61549 0.9705 0.26014 0.0
H371 H 0.59873 0.98866 0.11625 0.0
C372 C 0.68101 0.51269 0.16311 0.0
C373 C 0.67622 0.53247 0.28057 0.0
C374 C 0.62278 0.55971 0.17926 0.0
C375 C 0.62469 0.53578 0.07191 0.0
N376 N 0.65485 0.48791 0.96523 0.0
N377 N 0.64354 0.57715 0.39671 0.0
C378 C 0.65369 0.51194 0.06495 0.0
C379 C 0.64753 0.55694 0.2867 0.0
N380 N 0.71237 0.4956 0.14259 0.0
N381 N 0.59759 0.58558 0.17716 0.0
H382 H 0.66258 0.57835 0.47104 0.0
H383 H 0.62096 0.59186 0.41705 0.0
H384 H 0.57888 0.58784 0.10194 0.0
H385 H 0.59647 0.60619 0.24443 0.0
H386 H 0.71897 0.48349 0.0543 0.0
H387 H 0.73362 0.49702 0.20803 0.0
H388 H 0.67245 0.46681 0.96288 0.0
H389 H 0.63638 0.48764 0.88902 0.0
C390 C 0.99914 0.64499 0.23188 0.0
C391 C 1.0307 0.66564 0.24614 0.0
C392 C 0.05633 0.63346 0.05739 0.0
C393 C 1.02515 0.61231 0.04518 0.0
N394 N 0.96274 0.60716 0.09193 0.0
N395 N 0.08236 0.6884 0.13464 0.0
C396 C 0.99513 0.62137 0.12232 0.0
C397 C 0.0573 0.66246 0.14776 0.0
N398 N 0.97336 0.64666 0.32551 0.0
N399 N 0.08496 0.62652 0.98019 0.0
H400 H 0.08139 0.71198 0.18714 0.0
H401 H 0.10094 0.68901 0.05916 0.0
H402 H 0.08382 0.60869 0.90277 0.0
H403 H 0.11003 0.63738 0.99671 0.0
H404 H 0.95038 0.63158 0.32249 0.0
H405 H 0.97543 0.66163 0.41072 0.0
H406 H 0.93901 0.61613 0.13177 0.0
H407 H 0.95934 0.58772 0.02061 0.0
C408 C 0.94615 0.23354 0.4459 0.0
C409 C 0.93438 0.24466 0.32206 0.0
C410 C 0.89972 0.19046 0.30242 0.0
C411 C 0.92331 0.17517 0.39473 0.0
N412 N 0.97151 0.18282 0.55051 0.0
N413 N 0.89021 0.24033 0.15482 0.0
C414 C 0.94633 0.19701 0.47011 0.0
C415 C 0.90638 0.22581 0.26153 0.0
N416 N 0.96136 0.25702 0.53026 0.0
N417 N 0.87305 0.17056 0.24959 0.0
H418 H 0.89639 0.26606 0.12528 0.0
H419 H 0.8718 0.22711 0.09622 0.0
H420 H 0.86856 0.14458 0.27976 0.0
H421 H 0.85419 0.18041 0.18452 0.0
H422 H 0.97014 0.24989 0.62364 0.0
H423 H 0.96149 0.28405 0.5106 0.0
H424 H 0.99172 0.19793 0.59278 0.0
H425 H 0.9742 0.15577 0.56487 0.0
C426 C 0.31942 0.90511 0.34643 0.0
C427 C 0.30816 0.93791 0.39691 0.0
C428 C 0.35814 0.94089 0.54425 0.0
C429 C 0.37311 0.91141 0.47816 0.0
N430 N 0.36415 0.85881 0.35063 0.0
N431 N 0.30484 0.97453 0.58745 0.0
C432 C 0.35192 0.89069 0.39266 0.0
C433 C 0.32292 0.95049 0.51444 0.0
N434 N 0.30098 0.89055 0.24458 0.0
N435 N 0.37861 0.96242 0.62099 0.0
H436 H 0.27922 0.98234 0.56174 0.0
H437 H 0.31381 0.9835 0.6785 0.0
H438 H 0.40527 0.95769 0.64041 0.0
H439 H 0.36974 0.98657 0.6569 0.0
H440 H 0.3092 0.8684 0.19273 0.0
H441 H 0.27726 0.90178 0.21175 0.0
H442 H 0.34952 0.84167 0.29154 0.0
H443 H 0.38828 0.84864 0.38393 0.0
C444 C 0.6227 0.31351 0.48401 0.0
C445 C 0.63626 0.30122 0.36451 0.0
C446 C 0.67753 0.35094 0.35885 0.0
C447 C 0.65483 0.36848 0.44801 0.0
N448 N 0.60318 0.36639 0.59044 0.0
N449 N 0.68305 0.3015 0.20709 0.0
C450 C 0.62746 0.34949 0.51381 0.0
C451 C 0.66699 0.31716 0.31155 0.0
N452 N 0.60201 0.29201 0.55931 0.0
N453 N 0.70746 0.3675 0.315 0.0
H454 H 0.6747 0.2767 0.17391 0.0
H455 H 0.70356 0.31296 0.15345 0.0
H456 H 0.71485 0.39249 0.34896 0.0
H457 H 0.72591 0.35569 0.25337 0.0
H458 H 0.5924 0.29952 0.65099 0.0
H459 H 0.59792 0.26555 0.53524 0.0
H460 H 0.5804 0.35399 0.62613 0.0
H461 H 0.60388 0.39336 0.60924 0.0
C462 C 0.24368 0.59448 0.49689 0.0
C463 C 0.26024 0.61028 0.38853 0.0
C464 C 0.21286 0.65364 0.37613 0.0
C465 C 0.19161 0.63053 0.4522 0.0
N466 N 0.1866 0.5758 0.57554 0.0
N467 N 0.26666 0.66213 0.25453 0.0
C468 C 0.20715 0.60068 0.51479 0.0
C469 C 0.24745 0.64291 0.3419 0.0
N470 N 0.26176 0.57051 0.57074 0.0
N471 N 0.19923 0.68429 0.3279 0.0
H472 H 0.29205 0.65466 0.22455 0.0
H473 H 0.29205 0.65466 0.22455 0.0
H474 H 0.17365 0.69274 0.35114 0.0
H475 H 0.21404 0.70127 0.26835 0.0
H476 H 0.25113 0.55872 0.65445 0.0
H477 H 0.28859 0.56546 0.55437 0.0
H478 H 0.1966 0.55179 0.60884 0.0
H479 H 0.1591 0.57745 0.58212 0.0
C480 C 0.99641 0.83335 0.09469 0.0
C481 C 0.97592 0.81964 0.19691 0.0
C482 C 0.96052 0.8784 0.27119 0.0
C483 C 0.99123 0.89067 0.20364 0.0
N484 N 1.03048 0.88371 0.0183 0.0
N485 N 0.92129 0.82792 0.30965 0.0
C486 C 1.00569 0.86965 0.10045 0.0
C487 C 0.9508 0.84232 0.25438 0.0
N488 N 1.0097 0.8107 1.00371 0.0
N489 N 0.94408 0.89903 0.36209 0.0
H490 H 0.91661 0.80075 0.30394 0.0
H491 H 0.90104 0.84287 0.35094 0.0
H492 H 0.95178 0.92495 0.38104 0.0
H493 H 0.92379 0.8899 0.42263 0.0
H494 H 1.02501 0.81844 0.92378 0.0
H495 H 1.0033 0.78384 1.00723 0.0
H496 H 0.04499 0.86905 0.95116 0.0
H497 H 0.03679 0.91048 0.02064 0.0
C498 C 0.76049 0.1378 0.23855 0.0
C499 C 0.76941 0.10478 0.18355 0.0
C500 C 0.71671 0.10422 0.05037 0.0
C501 C 0.70426 0.13414 0.12067 0.0
N502 N 0.71757 0.18572 0.24904 0.0
N503 N 0.768 0.07021 0.98658 0.0
C504 C 0.72776 0.15367 0.20175 0.0
C505 C 0.75211 0.09365 0.06867 0.0
N506 N 0.78134 0.15109 0.33639 0.0
N507 N 0.69396 0.08322 0.98067 0.0
H508 H 0.79431 0.0626 0.99949 0.0
H509 H 0.75641 0.0617 0.8991 0.0
H510 H 0.66705 0.08857 0.96992 0.0
H511 H 0.70132 0.05872 0.9434 0.0
H512 H 0.77516 0.17344 0.39097 0.0
H513 H 0.80493 0.13856 0.36321 0.0
H514 H 0.7339 0.20197 0.30546 0.0
H515 H 0.69326 0.19691 0.22294 0.0
C516 C 0.40727 0.73889 0.34286 0.0
C517 C 0.4356 0.75755 0.28394 0.0
C518 C 0.44563 0.71113 0.12928 0.0
C519 C 0.42291 0.68892 0.20398 0.0
N520 N 0.37362 0.68373 0.35284 0.0
N521 N 0.45928 0.77162 0.07199 0.0
C522 C 0.40008 0.70377 0.29963 0.0
C523 C 0.44592 0.74741 0.15748 0.0
N524 N 0.39146 0.7532 0.45032 0.0
N525 N 0.46983 0.69751 0.04423 0.0
H526 H 0.45861 0.79853 0.09307 0.0
H527 H 0.46674 0.76505 0.97655 0.0
H528 H 0.47254 0.67052 0.02852 0.0
H529 H 0.48953 0.71297 1.00073 0.0
H530 H 0.37264 0.74019 0.50744 0.0
H531 H 0.39823 0.77864 0.48154 0.0
H532 H 0.35541 0.69324 0.42069 0.0
H533 H 0.36873 0.65791 0.32144 0.0
C534 C 0.85392 0.53534 0.12852 0.0
C535 C 0.83978 0.55832 0.22164 0.0
C536 C 0.89728 0.56933 0.31765 0.0
C537 C 0.91011 0.53908 0.25055 0.0
N538 N 0.90442 0.50014 0.06278 0.0
N539 N 0.84995 0.61137 0.34294 0.0
C540 C 0.88992 0.52493 0.14315 0.0
C541 C 0.86313 0.58179 0.28588 0.0
N542 N 0.83172 0.52167 0.03565 0.0
N543 N 0.9142 0.58359 0.42321 0.0
H544 H 0.82351 0.61871 0.32852 0.0
H545 H 0.86577 0.62831 0.39922 0.0
H546 H 0.93813 0.57428 0.46119 0.0
H547 H 0.93813 0.57428 0.46119 0.0
H548 H 0.83951 0.50453 0.96154 0.0
H549 H 0.80509 0.52929 0.03201 0.0
H550 H 0.88991 0.48543 0.99532 0.0
H551 H 0.93134 0.4941 0.06506 0.0
C552 C 1.00122 0.19093 0.91425 0.0
C553 C 1.02542 0.20466 0.00934 0.0
C554 C 0.06243 0.15159 0.97413 0.0
C555 C 0.03506 0.13515 0.89798 0.0
N556 N 0.97542 0.13933 0.81097 0.0
N557 N 0.07767 0.19497 0.14108 0.0
C558 C 1.00381 0.15504 0.8709 0.0
C559 C 0.05589 0.18432 0.04127 0.0
N560 N 0.97505 0.2124 0.86708 0.0
N561 N 0.09519 0.13638 0.97993 0.0
H562 H 0.07404 0.21854 0.19186 0.0
H563 H 0.0977 0.17916 0.17971 0.0
H564 H 0.10145 0.11351 0.92811 0.0
H565 H 0.11708 0.14853 0.02372 0.0
H566 H 0.9568 0.20486 0.79549 0.0
H567 H 0.97349 0.23907 0.89212 0.0
H568 H 0.95017 0.15043 0.80883 0.0
H569 H 0.97621 0.11441 0.76881 0.0
C570 C 0.37544 0.04498 0.05345 0.0
C571 C 0.3556 1.0131 0.04114 0.0
C572 C 0.40621 0.98658 0.92336 0.0
C573 C 0.42517 1.01914 0.92708 0.0
N574 N 0.42315 0.08179 0.96871 0.0
N575 N 0.34892 0.95715 0.93154 0.0
C576 C 0.40826 0.04911 0.98368 0.0
C577 C 0.36999 0.98524 0.96442 0.0
N578 N 0.3642 0.07066 0.13743 0.0
N579 N 0.42327 0.9562 0.88967 0.0
H580 H 0.32212 0.95584 0.95693 0.0
H581 H 0.35698 0.93718 0.86811 0.0
H582 H 0.44972 0.95558 0.86114 0.0
H583 H 0.4119 0.93124 0.90027 0.0
H584 H 0.37969 0.0925 0.16254 0.0
H585 H 0.3406 0.06881 0.19013 0.0
H586 H 0.41056 0.10497 0.99727 0.0
H587 H 0.44635 0.08605 0.91519 0.0
C588 C 0.57762 0.35498 0.94053 0.0
C589 C 0.55181 0.33933 0.02448 0.0
C590 C 0.51414 0.3918 0.98829 0.0
C591 C 0.54276 0.40991 0.92561 0.0
N592 N 0.60471 0.40924 0.86437 0.0
N593 N 0.49621 0.34519 0.13863 0.0
C594 C 0.57519 0.39147 0.90605 0.0
C595 C 0.52001 0.3582 0.0499 0.0
N596 N 0.60529 0.33492 0.8973 0.0
N597 N 0.48104 0.40634 0.98687 0.0
H598 H 0.49922 0.32073 0.18406 0.0
H599 H 0.4748 0.35971 0.17354 0.0
H600 H 0.47551 0.43013 0.93956 0.0
H601 H 0.45851 0.39308 0.02024 0.0
H602 H 0.62424 0.34393 0.83086 0.0
H603 H 0.60723 0.30804 0.91872 0.0
H604 H 0.62997 0.39819 0.86374 0.0
H605 H 0.60475 0.43595 0.84102 0.0
C606 C 0.20854 0.56091 0.93539 0.0
C607 C 0.22196 0.53453 0.0216 0.0
C608 C 0.16824 0.49896 0.97265 0.0
C609 C 0.15192 0.52815 0.90774 0.0
N610 N 0.157 0.58917 0.841 0.0
N611 N 0.212 0.47912 0.13187 0.0
C612 C 0.17239 0.55958 0.89124 0.0
C613 C 0.20128 0.50351 0.04155 0.0
N614 N 0.23055 0.58765 0.89637 0.0
N615 N 0.15257 0.46643 0.96601 0.0
H616 H 0.23599 0.4811 0.18251 0.0
H617 H 0.19594 0.45829 0.16301 0.0
H618 H 0.12948 0.4617 0.91197 0.0
H619 H 0.16454 0.44355 1.00119 0.0
H620 H 0.22364 0.60609 0.82489 0.0
H621 H 0.25712 0.589 0.9255 0.0
H622 H 0.16887 0.61405 0.84479 0.0
H623 H 0.13175 0.58928 0.8001 0.0
C624 C 1.0036 0.8486 0.66421 0.0
C625 C 0.03416 0.83116 0.61553 0.0
C626 C 0.06957 0.88375 0.67848 0.0
C627 C 0.03808 0.90342 0.70201 0.0
N628 N 0.97411 0.90446 0.6999 0.0
N629 N 0.09779 0.83241 0.58911 0.0
C630 C 1.0048 0.88563 0.69212 0.0
C631 C 0.06745 0.8486 0.62787 0.0
N632 N 0.97291 0.82971 0.67791 0.0
N633 N 0.10194 0.89885 0.70054 0.0
H634 H 0.09835 0.80666 0.55264 0.0
H635 H 0.09835 0.80666 0.55264 0.0
H636 H 0.10474 0.92377 0.7429 0.0
H637 H 0.12566 0.88563 0.68203 0.0
H638 H 0.95024 0.8397 0.72268 0.0
H639 H 0.97168 0.80278 0.65634 0.0
H640 H 0.94913 0.89377 0.68059 0.0
H641 H 0.97394 0.93167 0.71294 0.0
C642 C 0.71058 0.05797 0.62593 0.0
C643 C 0.72275 0.03018 0.54348 0.0
C644 C 0.66936 0.9961 0.60835 0.0
C645 C 0.65429 1.02635 0.66986 0.0
N646 N 0.65977 0.08883 0.71259 0.0
N647 N 0.70903 0.97433 0.4401 0.0
C648 C 0.67482 0.05797 0.67299 0.0
C649 C 0.70105 0.99944 0.53132 0.0
N650 N 0.7333 0.08475 0.65894 0.0
N651 N 0.65374 0.96381 0.62502 0.0
H652 H 0.73107 0.97589 0.37891 0.0
H653 H 0.69187 0.95359 0.41684 0.0
H654 H 0.63151 0.96001 0.68428 0.0
H655 H 0.66516 0.94042 0.59221 0.0
H656 H 0.72688 0.10437 0.72639 0.0
H657 H 0.75986 0.085 0.62997 0.0
H658 H 0.672 0.11335 0.70064 0.0
H659 H 0.63421 0.09024 0.75 0.0
C660 C 0.55348 0.68942 0.56621 0.0
C661 C 0.52354 0.71042 0.59974 0.0
C662 C 0.50086 0.66053 0.73364 0.0
C663 C 0.53171 0.64032 0.7068 0.0
N664 N 0.59193 0.6407 0.62643 0.0
N665 N 0.47203 0.71647 0.74077 0.0
C666 C 0.55942 0.65643 0.6321 0.0
C667 C 0.49889 0.69637 0.69253 0.0
N668 N 0.57506 0.69941 0.46515 0.0
N669 N 0.4722 0.64557 0.79403 0.0
H670 H 0.46915 0.74336 0.72112 0.0
H671 H 0.46915 0.74336 0.72112 0.0
H672 H 0.47139 0.61952 0.82598 0.0
H673 H 0.44849 0.65924 0.8079 0.0
H674 H 0.59453 0.68301 0.42628 0.0
H675 H 0.5716 0.72265 0.41224 0.0
H676 H 0.61402 0.65269 0.58376 0.0
H677 H 0.59784 0.61753 0.67721 0.0
C678 C 0.86118 0.55474 0.6854 0.0
C679 C 0.84346 0.52246 0.65372 0.0
C680 C 0.89701 0.49004 0.72711 0.0
C681 C 0.91611 0.52217 0.74455 0.0
N682 N 0.91391 0.58518 0.76821 0.0
N683 N 0.84423 0.45884 0.66288 0.0
C684 C 0.89725 0.55454 0.7329 0.0
C685 C 0.86105 0.49025 0.68238 0.0
N686 N 0.84421 0.5858 0.65988 0.0
N687 N 0.91316 0.45867 0.75295 0.0
H688 H 0.81784 0.4568 0.63194 0.0
H689 H 0.81784 0.4568 0.63194 0.0
H690 H 0.93839 0.45734 0.79457 0.0
H691 H 0.90053 0.43437 0.7388 0.0
H692 H 0.85633 0.6105 0.66237 0.0
H693 H 0.81758 0.58671 0.63204 0.0
H694 H 0.90143 0.60952 0.77503 0.0
H695 H 0.94022 0.58584 0.79937 0.0
loop_
_geom_bond_atom_site_label_1
_geom_bond_atom_site_label_2
_geom_bond_distance
_geom_bond_site_symmetry_2
_ccdc_geom_bond_type
H0 C7 0.929 . S
H1 C10 0.930 . S
H2 C12 0.929 . S
H3 C4 0.969 . S
C4 H3 0.969 . S
C4 O5 1.550 . S
C4 H6 0.973 . S
O5 C4 1.550 . S
O5 C11 1.412 . S
H6 C4 0.973 . S
C7 H0 0.929 . S
C7 C8 1.400 . S
C7 C9 1.364 . S
C8 C7 1.400 . S
C8 C12 1.377 . S
C9 C7 1.364 . S
C9 C10 1.374 . S
C10 H1 0.930 . S
C10 C9 1.374 . S
C10 C11 1.383 . S
C11 O5 1.412 . S
C11 C10 1.383 . S
C11 C12 1.394 . S
C12 H2 0.929 . S
C12 C8 1.377 . S
C12 C11 1.394 . S
H13 C20 0.928 1_655 S
H14 C23 0.931 . S
H15 C25 0.928 1_655 S
H16 C17 0.969 . S
C17 H16 0.969 . S
C17 O18 1.550 1_455 S
C17 H19 0.973 1_455 S
O18 C17 1.550 1_655 S
O18 C24 1.404 1_655 S
H19 C17 0.973 1_655 S
C20 H13 0.928 1_455 S
C20 C21 1.399 . S
C20 C22 1.364 . S
C21 C20 1.399 . S
C21 C25 1.377 . S
C22 C20 1.364 . S
C22 C23 1.374 1_455 S
C23 H14 0.931 . S
C23 C22 1.374 1_655 S
C23 C24 1.382 1_655 S
C24 O18 1.404 1_455 S
C24 C23 1.382 1_455 S
C24 C25 1.394 . S
C25 H15 0.928 1_455 S
C25 C21 1.377 . S
C25 C24 1.394 . S
H26 C33 0.928 1_565 S
H27 C36 0.931 . S
H28 C38 0.929 1_565 S
H29 C30 0.969 . S
C30 H29 0.969 . S
C30 O31 1.550 1_545 S
C30 H32 0.973 1_545 S
O31 C30 1.550 1_565 S
O31 C37 1.404 1_565 S
H32 C30 0.973 1_565 S
C33 H26 0.928 1_545 S
C33 C34 1.399 . S
C33 C35 1.364 . S
C34 C33 1.399 . S
C34 C38 1.377 . S
C35 C33 1.364 . S
C35 C36 1.374 1_545 S
C36 H27 0.931 . S
C36 C35 1.374 1_565 S
C36 C37 1.382 1_565 S
C37 O31 1.404 1_545 S
C37 C36 1.382 1_545 S
C37 C38 1.394 . S
C38 H28 0.929 1_545 S
C38 C34 1.377 . S
C38 C37 1.394 . S
H39 C46 0.929 . S
H40 C49 0.930 . S
H41 C51 0.929 . S
H42 C43 0.969 . S
C43 H42 0.969 . S
C43 O44 1.550 . S
C43 H45 0.973 . S
O44 C43 1.550 . S
O44 C50 1.412 . S
H45 C43 0.973 . S
C46 H39 0.929 . S
C46 C47 1.400 . S
C46 C48 1.364 . S
C47 C46 1.400 . S
C47 C51 1.377 . S
C48 C46 1.364 . S
C48 C49 1.374 . S
C49 H40 0.930 . S
C49 C48 1.374 . S
C49 C50 1.383 . S
C50 O44 1.412 . S
C50 C49 1.383 . S
C50 C51 1.394 . S
C51 H41 0.929 . S
C51 C47 1.377 . S
C51 C50 1.394 . S
H52 C59 0.929 . S
H53 C62 0.930 . S
H54 C64 0.929 . S
H55 C56 0.969 . S
C56 H55 0.969 . S
C56 O57 1.550 . S
C56 H58 0.973 . S
O57 C56 1.550 . S
O57 C63 1.412 . S
H58 C56 0.973 . S
C59 H52 0.929 . S
C59 C60 1.400 1_554 S
C59 C61 1.364 . S
C60 C59 1.400 1_556 S
C60 C64 1.377 . S
C61 C59 1.364 . S
C61 C62 1.374 . S
C62 H53 0.930 . S
C62 C61 1.374 . S
C62 C63 1.383 . S
C63 O57 1.412 . S
C63 C62 1.383 . S
C63 C64 1.394 1_554 S
C64 H54 0.929 . S
C64 C60 1.377 . S
C64 C63 1.394 1_556 S
H65 C72 0.928 1_655 S
H66 C75 0.930 . S
H67 C77 0.928 1_655 S
H68 C69 0.969 . S
C69 H68 0.969 . S
C69 O70 1.550 1_455 S
C69 H71 0.973 1_455 S
O70 C69 1.550 1_655 S
O70 C76 1.412 1_655 S
H71 C69 0.973 1_655 S
C72 H65 0.928 1_455 S
C72 C73 1.400 1_554 S
C72 C74 1.364 . S
C73 C72 1.400 1_556 S
C73 C77 1.377 . S
C74 C72 1.364 . S
C74 C75 1.374 1_455 S
C75 H66 0.930 . S
C75 C74 1.374 1_655 S
C75 C76 1.383 1_655 S
C76 O70 1.412 1_455 S
C76 C75 1.383 1_455 S
C76 C77 1.395 1_554 S
C77 H67 0.928 1_455 S
C77 C73 1.377 . S
C77 C76 1.395 1_556 S
H78 C85 0.928 1_565 S
H79 C88 0.930 . S
H80 C90 0.928 1_565 S
H81 C82 0.969 . S
C82 H81 0.969 . S
C82 O83 1.550 1_545 S
C82 H84 0.973 1_545 S
O83 C82 1.550 1_565 S
O83 C89 1.412 1_565 S
H84 C82 0.973 1_565 S
C85 H78 0.928 1_545 S
C85 C86 1.400 1_554 S
C85 C87 1.364 . S
C86 C85 1.400 1_556 S
C86 C90 1.377 . S
C87 C85 1.364 . S
C87 C88 1.374 1_545 S
C88 H79 0.930 . S
C88 C87 1.374 1_565 S
C88 C89 1.383 1_565 S
C89 O83 1.412 1_545 S
C89 C88 1.383 1_545 S
C89 C90 1.395 1_554 S
C90 H80 0.928 1_545 S
C90 C86 1.377 . S
C90 C89 1.395 1_556 S
H91 C98 0.929 1_556 S
H92 C101 0.930 . S
H93 C103 0.929 . S
H94 C95 0.969 . S
C95 H94 0.969 . S
C95 O96 1.550 . S
C95 H97 0.973 . S
O96 C95 1.550 . S
O96 C102 1.412 . S
H97 C95 0.973 . S
C98 H91 0.929 1_554 S
C98 C99 1.400 1_554 S
C98 C100 1.364 . S
C99 C98 1.400 1_556 S
C99 C103 1.377 . S
C100 C98 1.364 . S
C100 C101 1.374 . S
C101 H92 0.930 . S
C101 C100 1.374 . S
C101 C102 1.383 . S
C102 O96 1.412 . S
C102 C101 1.383 . S
C102 C103 1.394 1_554 S
C103 H93 0.929 . S
C103 C99 1.377 . S
C103 C102 1.394 1_556 S
Pr104 C106 2.880 1_556 S
Pr104 O124 2.562 1_556 S
Pr104 O125 2.490 1_556 S
Pr104 O126 2.695 1_565 S
Pr104 O127 2.512 . S
Pr104 O129 2.437 . S
Pr104 O132 2.436 1_455 S
Pr104 O134 2.438 1_565 S
Pr105 C115 2.880 . S
Pr105 O126 2.436 1_655 S
Pr105 O128 2.438 1_545 S
Pr105 O130 2.562 . S
Pr105 O131 2.490 . S
Pr105 O132 2.695 1_545 S
Pr105 O133 2.512 . S
Pr105 O135 2.437 . S
C106 Pr104 2.880 1_554 S
C106 C107 1.491 . S
C106 O124 1.254 . S
C106 O125 1.225 . S
C107 C106 1.491 . S
C107 C108 1.392 . S
C107 C112 1.356 . S
C108 C107 1.392 . S
C108 C109 1.368 . S
C108 H136 0.929 . S
C109 C108 1.368 . S
C109 C110 1.386 . S
C109 H137 0.929 . S
C110 C109 1.386 . S
C110 C111 1.373 . S
C111 C110 1.373 . S
C111 C112 1.409 . S
C111 H138 0.931 . S
C112 C107 1.356 . S
C112 C111 1.409 . S
C112 H139 0.930 1_455 S
C113 O126 1.270 1_565 S
C113 O127 1.248 . S
C114 O128 1.267 . S
C114 O129 1.278 1_655 S
C115 Pr105 2.880 . S
C115 C116 1.491 . S
C115 O130 1.254 . S
C115 O131 1.225 . S
C116 C115 1.491 . S
C116 C117 1.392 . S
C116 C121 1.356 . S
C117 C116 1.392 . S
C117 C118 1.368 . S
C117 H140 0.929 . S
C118 C117 1.368 . S
C118 C119 1.386 . S
C118 H141 0.929 . S
C119 C118 1.386 . S
C119 C120 1.373 . S
C120 C119 1.373 . S
C120 C121 1.409 . S
C120 H142 0.931 . S
C121 C116 1.356 . S
C121 C120 1.409 . S
C121 H143 0.930 1_655 S
C122 O132 1.270 1_545 S
C122 O133 1.248 . S
C123 O134 1.267 . S
C123 O135 1.278 1_455 S
O124 Pr104 2.562 1_554 S
O124 C106 1.254 . S
O125 Pr104 2.490 1_554 S
O125 C106 1.225 . S
O126 Pr104 2.695 1_545 S
O126 Pr105 2.436 1_455 S
O126 C113 1.270 1_545 S
O127 Pr104 2.512 . S
O127 C113 1.248 . S
O128 Pr105 2.438 1_565 S
O128 C114 1.267 . S
O129 Pr104 2.437 . S
O129 C114 1.278 1_455 S
O130 Pr105 2.562 . S
O130 C115 1.254 . S
O131 Pr105 2.490 . S
O131 C115 1.225 . S
O132 Pr104 2.436 1_655 S
O132 Pr105 2.695 1_565 S
O132 C122 1.270 1_565 S
O133 Pr105 2.512 . S
O133 C122 1.248 . S
O134 Pr104 2.438 1_545 S
O134 C123 1.267 . S
O135 Pr105 2.437 . S
O135 C123 1.278 1_655 S
H136 C108 0.929 . S
H137 C109 0.929 . S
H138 C111 0.931 . S
H139 C112 0.930 1_655 S
H140 C117 0.929 . S
H141 C118 0.929 . S
H142 C120 0.931 . S
H143 C121 0.930 1_455 S
Pr144 C146 2.880 1_556 S
Pr144 O164 2.562 1_556 S
Pr144 O165 2.490 1_556 S
Pr144 O166 2.695 . S
Pr144 O167 2.512 . S
Pr144 O169 2.437 . S
Pr144 O172 2.436 1_545 S
Pr144 O174 2.438 . S
Pr145 C155 2.880 . S
Pr145 O166 2.436 1_565 S
Pr145 O168 2.438 . S
Pr145 O170 2.562 . S
Pr145 O171 2.490 . S
Pr145 O172 2.695 . S
Pr145 O173 2.512 . S
Pr145 O175 2.437 . S
C146 Pr144 2.880 1_554 S
C146 C147 1.491 . S
C146 O164 1.254 . S
C146 O165 1.225 . S
C147 C146 1.491 . S
C147 C148 1.392 . S
C147 C152 1.356 . S
C148 C147 1.392 . S
C148 C149 1.368 . S
C148 H176 0.929 . S
C149 C148 1.368 . S
C149 C150 1.386 . S
C149 H177 0.929 . S
C150 C149 1.386 . S
C150 C151 1.373 . S
C151 C150 1.373 . S
C151 C152 1.409 . S
C151 H178 0.931 1_545 S
C152 C147 1.356 . S
C152 C151 1.409 . S
C152 H179 0.930 1_545 S
C153 O166 1.270 . S
C153 O167 1.248 . S
C154 O168 1.267 . S
C154 O169 1.278 1_565 S
C155 Pr145 2.880 . S
C155 C156 1.491 . S
C155 O170 1.254 . S
C155 O171 1.225 . S
C156 C155 1.491 . S
C156 C157 1.392 . S
C156 C161 1.356 . S
C157 C156 1.392 . S
C157 C158 1.368 . S
C157 H180 0.929 . S
C158 C157 1.368 . S
C158 C159 1.386 . S
C158 H181 0.929 . S
C159 C158 1.386 . S
C159 C160 1.373 . S
C160 C159 1.373 . S
C160 C161 1.409 . S
C160 H182 0.925 1_565 S
C161 C156 1.356 . S
C161 C160 1.409 . S
C161 H183 0.930 1_565 S
C162 O172 1.270 . S
C162 O173 1.248 . S
C163 O174 1.267 . S
C163 O175 1.278 1_545 S
O164 Pr144 2.562 1_554 S
O164 C146 1.254 . S
O165 Pr144 2.490 1_554 S
O165 C146 1.225 . S
O166 Pr144 2.695 . S
O166 Pr145 2.436 1_545 S
O166 C153 1.270 . S
O167 Pr144 2.512 . S
O167 C153 1.248 . S
O168 Pr145 2.438 . S
O168 C154 1.267 . S
O169 Pr144 2.437 . S
O169 C154 1.278 1_545 S
O170 Pr145 2.562 . S
O170 C155 1.254 . S
O171 Pr145 2.490 . S
O171 C155 1.225 . S
O172 Pr144 2.436 1_565 S
O172 Pr145 2.695 . S
O172 C162 1.270 . S
O173 Pr145 2.512 . S
O173 C162 1.248 . S
O174 Pr144 2.438 . S
O174 C163 1.267 . S
O175 Pr145 2.437 . S
O175 C163 1.278 1_565 S
H176 C148 0.929 . S
H177 C149 0.929 . S
H178 C151 0.931 1_565 S
H179 C152 0.930 1_565 S
H180 C157 0.929 . S
H181 C158 0.929 . S
H182 C160 0.925 1_545 S
H183 C161 0.930 1_545 S
Pr184 C186 2.880 1_556 S
Pr184 O204 2.562 1_556 S
Pr184 O205 2.490 1_556 S
Pr184 O206 2.695 . S
Pr184 O207 2.512 . S
Pr184 O209 2.437 . S
Pr184 O212 2.436 . S
Pr184 O214 2.438 . S
Pr185 C195 2.880 . S
Pr185 O206 2.436 . S
Pr185 O208 2.438 . S
Pr185 O210 2.562 . S
Pr185 O211 2.490 . S
Pr185 O212 2.695 . S
Pr185 O213 2.512 . S
Pr185 O215 2.437 . S
C186 Pr184 2.880 1_554 S
C186 C187 1.491 . S
C186 O204 1.254 . S
C186 O205 1.225 . S
C187 C186 1.491 . S
C187 C188 1.392 . S
C187 C192 1.356 . S
C188 C187 1.392 . S
C188 C189 1.368 . S
C188 H216 0.929 . S
C189 C188 1.368 . S
C189 C190 1.386 . S
C189 H217 0.929 . S
C190 C189 1.386 . S
C190 C191 1.373 . S
C191 C190 1.373 . S
C191 C192 1.409 . S
C191 H218 0.931 . S
C192 C187 1.356 . S
C192 C191 1.409 . S
C192 H219 0.930 . S
C193 O206 1.270 . S
C193 O207 1.248 . S
C194 O208 1.267 . S
C194 O209 1.278 . S
C195 Pr185 2.880 . S
C195 C196 1.491 . S
C195 O210 1.254 . S
C195 O211 1.225 . S
C196 C195 1.491 . S
C196 C197 1.392 . S
C196 C201 1.356 . S
C197 C196 1.392 . S
C197 C198 1.368 . S
C197 H220 0.929 . S
C198 C197 1.368 . S
C198 C199 1.386 . S
C198 H221 0.929 . S
C199 C198 1.386 . S
C199 C200 1.373 . S
C200 C199 1.373 . S
C200 C201 1.409 . S
C200 H222 0.931 . S
C201 C196 1.356 . S
C201 C200 1.409 . S
C201 H223 0.930 . S
C202 O212 1.270 . S
C202 O213 1.248 . S
C203 O214 1.267 . S
C203 O215 1.278 . S
O204 Pr184 2.562 1_554 S
O204 C186 1.254 . S
O205 Pr184 2.490 1_554 S
O205 C186 1.225 . S
O206 Pr184 2.695 . S
O206 Pr185 2.436 . S
O206 C193 1.270 . S
O207 Pr184 2.512 . S
O207 C193 1.248 . S
O208 Pr185 2.438 . S
O208 C194 1.267 . S
O209 Pr184 2.437 . S
O209 C194 1.278 . S
O210 Pr185 2.562 . S
O210 C195 1.254 . S
O211 Pr185 2.490 . S
O211 C195 1.225 . S
O212 Pr184 2.436 . S
O212 Pr185 2.695 . S
O212 C202 1.270 . S
O213 Pr185 2.512 . S
O213 C202 1.248 . S
O214 Pr184 2.438 . S
O214 C203 1.267 . S
O215 Pr185 2.437 . S
O215 C203 1.278 . S
H216 C188 0.929 . S
H217 C189 0.929 . S
H218 C191 0.931 . S
H219 C192 0.930 . S
H220 C197 0.929 . S
H221 C198 0.929 . S
H222 C200 0.931 . S
H223 C201 0.930 . S
Pr224 C226 2.880 1_556 S
Pr224 O244 2.562 1_556 S
Pr224 O245 2.490 1_556 S
Pr224 O246 2.695 1_655 S
Pr224 O247 2.512 . S
Pr224 O249 2.437 . S
Pr224 O252 2.436 . S
Pr224 O254 2.438 1_655 S
Pr225 C235 2.880 . S
Pr225 O246 2.436 . S
Pr225 O248 2.438 1_455 S
Pr225 O250 2.562 . S
Pr225 O251 2.490 . S
Pr225 O252 2.695 1_455 S
Pr225 O253 2.512 . S
Pr225 O255 2.437 . S
C226 Pr224 2.880 1_554 S
C226 C227 1.491 . S
C226 O244 1.254 . S
C226 O245 1.225 . S
C227 C226 1.491 . S
C227 C228 1.392 . S
C227 C232 1.356 . S
C228 C227 1.392 . S
C228 C229 1.368 . S
C228 H256 0.929 . S
C229 C228 1.368 . S
C229 C230 1.386 . S
C229 H257 0.929 . S
C230 C229 1.386 . S
C230 C231 1.373 . S
C231 C230 1.373 . S
C231 C232 1.409 . S
C231 H258 0.931 . S
C232 C227 1.356 . S
C232 C231 1.409 . S
C232 H259 0.930 . S
C233 O246 1.264 1_655 S
C233 O247 1.258 . S
C234 O248 1.267 . S
C234 O249 1.278 . S
C235 Pr225 2.880 . S
C235 C236 1.491 . S
C235 O250 1.254 . S
C235 O251 1.225 . S
C236 C235 1.491 . S
C236 C237 1.392 . S
C236 C241 1.356 . S
C237 C236 1.392 . S
C237 C238 1.368 . S
C237 H260 0.929 . S
C238 C237 1.368 . S
C238 C239 1.386 . S
C238 H261 0.929 . S
C239 C238 1.386 . S
C239 C240 1.373 . S
C240 C239 1.373 . S
C240 C241 1.409 . S
C240 H262 0.931 . S
C241 C236 1.356 . S
C241 C240 1.409 . S
C241 H263 0.930 . S
C242 O252 1.262 1_455 S
C242 O253 1.262 . S
C243 O254 1.267 . S
C243 O255 1.278 . S
O244 Pr224 2.562 1_554 S
O244 C226 1.254 . S
O245 Pr224 2.490 1_554 S
O245 C226 1.225 . S
O246 Pr224 2.695 1_455 S
O246 Pr225 2.436 . S
O246 C233 1.264 1_455 S
O247 Pr224 2.512 . S
O247 C233 1.258 . S
O248 Pr225 2.438 1_655 S
O248 C234 1.267 . S
O249 Pr224 2.437 . S
O249 C234 1.278 . S
O250 Pr225 2.562 . S
O250 C235 1.254 . S
O251 Pr225 2.490 . S
O251 C235 1.225 . S
O252 Pr224 2.436 . S
O252 Pr225 2.695 1_655 S
O252 C242 1.262 1_655 S
O253 Pr225 2.512 . S
O253 C242 1.262 . S
O254 Pr224 2.438 1_455 S
O254 C243 1.267 . S
O255 Pr225 2.437 . S
O255 C243 1.278 . S
H256 C228 0.929 . S
H257 C229 0.929 . S
H258 C231 0.931 . S
H259 C232 0.930 . S
H260 C237 0.929 . S
H261 C238 0.929 . S
H262 C240 0.931 . S
H263 C241 0.930 . S
C264 C265 1.367 . S
C264 C270 1.379 . S
C264 N272 1.356 . S
C265 C264 1.367 . S
C265 C271 1.359 1_545 S
C266 C267 1.351 1_565 S
C266 C271 1.379 . S
C266 N273 1.356 . S
C267 C266 1.351 1_545 S
C267 C270 1.375 . S
N268 C270 1.356 . S
N268 H280 0.984 . S
N268 H281 0.985 . S
N269 C271 1.356 . S
N269 H274 0.984 . S
N269 H275 0.985 . S
C270 C264 1.379 . S
C270 C267 1.375 . S
C270 N268 1.356 . S
C271 C265 1.359 1_565 S
C271 C266 1.379 . S
C271 N269 1.356 . S
N272 C264 1.356 . S
N272 H278 0.984 . S
N272 H279 0.984 . S
N273 C266 1.356 . S
N273 H276 0.984 . S
N273 H277 0.985 . S
H274 N269 0.984 . S
H275 N269 0.985 . S
H276 N273 0.984 . S
H277 N273 0.985 . S
H278 N272 0.984 . S
H279 N272 0.984 . S
H280 N268 0.984 . S
H281 N268 0.985 . S
C282 C283 1.363 . S
C282 C288 1.379 . S
C282 N290 1.356 . S
C283 C282 1.363 . S
C283 C289 1.363 . S
C284 C285 1.363 . S
C284 C289 1.379 . S
C284 N291 1.356 . S
C285 C284 1.363 . S
C285 C288 1.363 . S
N286 C288 1.356 . S
N286 H298 0.984 . S
N286 H299 0.985 . S
N287 C289 1.356 . S
N287 H292 0.984 . S
N287 H293 0.985 . S
C288 C282 1.379 . S
C288 C285 1.363 . S
C288 N286 1.356 . S
C289 C283 1.363 . S
C289 C284 1.379 . S
C289 N287 1.356 . S
N290 C282 1.356 . S
N290 H296 0.984 . S
N290 H297 0.984 . S
N291 C284 1.356 . S
N291 H294 0.984 . S
N291 H295 0.985 . S
H292 N287 0.984 . S
H293 N287 0.985 . S
H294 N291 0.984 . S
H295 N291 0.985 . S
H296 N290 0.984 . S
H297 N290 0.984 . S
H298 N286 0.984 . S
H299 N286 0.985 . S
C300 C301 1.363 . S
C300 C306 1.379 . S
C300 N308 1.356 . S
C301 C300 1.363 . S
C301 C307 1.363 . S
C302 C303 1.363 . S
C302 C307 1.379 . S
C302 N309 1.356 . S
C303 C302 1.363 . S
C303 C306 1.363 . S
N304 C306 1.356 . S
N304 H316 0.984 . S
N304 H317 0.985 . S
N305 C307 1.356 . S
N305 H310 0.984 . S
N305 H311 0.985 . S
C306 C300 1.379 . S
C306 C303 1.363 . S
C306 N304 1.356 . S
C307 C301 1.363 . S
C307 C302 1.379 . S
C307 N305 1.356 . S
N308 C300 1.356 . S
N308 H314 0.984 . S
N308 H315 0.984 . S
N309 C302 1.356 . S
N309 H312 0.984 . S
N309 H313 0.985 . S
H310 N305 0.984 . S
H311 N305 0.985 . S
H312 N309 0.984 . S
H313 N309 0.985 . S
H314 N308 0.984 . S
H315 N308 0.984 . S
H316 N304 0.984 . S
H317 N304 0.985 . S
C318 C319 1.375 . S
C318 C324 1.379 . S
C318 N326 1.356 . S
C319 C318 1.375 . S
C319 C325 1.352 1_455 S
C320 C321 1.363 1_655 S
C320 C325 1.379 . S
C320 N327 1.356 . S
C321 C320 1.363 1_455 S
C321 C324 1.363 . S
N322 C324 1.356 . S
N322 H334 0.984 . S
N322 H335 0.985 . S
N323 C325 1.356 . S
N323 H328 0.984 . S
N323 H329 0.985 . S
C324 C318 1.379 . S
C324 C321 1.363 . S
C324 N322 1.356 . S
C325 C319 1.352 1_655 S
C325 C320 1.379 . S
C325 N323 1.356 . S
N326 C318 1.356 . S
N326 H332 0.984 . S
N326 H333 0.984 . S
N327 C320 1.356 . S
N327 H330 0.984 . S
N327 H331 0.985 . S
H328 N323 0.984 . S
H329 N323 0.985 . S
H330 N327 0.984 . S
H331 N327 0.985 . S
H332 N326 0.984 . S
H333 N326 0.984 . S
H334 N322 0.984 . S
H335 N322 0.985 . S
C336 C337 1.362 . S
C336 C342 1.379 . S
C336 N344 1.356 . S
C337 C336 1.362 . S
C337 C343 1.364 1_565 S
C338 C339 1.356 1_545 S
C338 C343 1.379 . S
C338 N345 1.356 . S
C339 C338 1.356 1_565 S
C339 C342 1.369 . S
N340 C342 1.356 . S
N340 H352 0.984 . S
N340 H353 0.985 . S
N341 C343 1.356 . S
N341 H346 0.984 . S
N341 H347 0.985 . S
C342 C336 1.379 . S
C342 C339 1.369 . S
C342 N340 1.356 . S
C343 C337 1.364 1_545 S
C343 C338 1.379 . S
C343 N341 1.356 . S
N344 C336 1.356 . S
N344 H350 0.984 . S
N344 H351 0.984 . S
N345 C338 1.356 . S
N345 H348 0.984 1_554 S
N345 H349 0.985 . S
H346 N341 0.984 . S
H347 N341 0.985 . S
H348 N345 0.984 1_556 S
H349 N345 0.985 . S
H350 N344 0.984 . S
H351 N344 0.984 . S
H352 N340 0.984 . S
H353 N340 0.985 . S
C354 C355 1.363 . S
C354 C360 1.379 . S
C354 N362 1.356 . S
C355 C354 1.363 . S
C355 C361 1.363 . S
C356 C357 1.363 . S
C356 C361 1.379 . S
C356 N363 1.356 1_554 S
C357 C356 1.363 . S
C357 C360 1.363 . S
N358 C360 1.356 . S
N358 H370 0.984 . S
N358 H371 0.985 . S
N359 C361 1.356 . S
N359 H364 0.984 . S
N359 H365 0.985 . S
C360 C354 1.379 . S
C360 C357 1.363 . S
C360 N358 1.356 . S
C361 C355 1.363 . S
C361 C356 1.379 . S
C361 N359 1.356 . S
N362 C354 1.356 . S
N362 H368 0.984 . S
N362 H369 0.984 . S
N363 C356 1.356 1_556 S
N363 H366 0.984 . S
N363 H367 0.985 . S
H364 N359 0.984 . S
H365 N359 0.985 . S
H366 N363 0.984 . S
H367 N363 0.985 . S
H368 N362 0.984 . S
H369 N362 0.984 . S
H370 N358 0.984 . S
H371 N358 0.985 . S
C372 C373 1.363 . S
C372 C378 1.379 . S
C372 N380 1.356 . S
C373 C372 1.363 . S
C373 C379 1.363 . S
C374 C375 1.363 . S
C374 C379 1.379 . S
C374 N381 1.356 . S
C375 C374 1.363 . S
C375 C378 1.363 . S
N376 C378 1.356 . S
N376 H388 0.984 1_554 S
N376 H389 0.985 1_554 S
N377 C379 1.356 . S
N377 H382 0.984 . S
N377 H383 0.985 . S
C378 C372 1.379 . S
C378 C375 1.363 . S
C378 N376 1.356 . S
C379 C373 1.363 . S
C379 C374 1.379 . S
C379 N377 1.356 . S
N380 C372 1.356 . S
N380 H386 0.984 . S
N380 H387 0.984 . S
N381 C374 1.356 . S
N381 H384 0.984 . S
N381 H385 0.985 . S
H382 N377 0.984 . S
H383 N377 0.985 . S
H384 N381 0.984 . S
H385 N381 0.985 . S
H386 N380 0.984 . S
H387 N380 0.984 . S
H388 N376 0.984 1_556 S
H389 N376 0.985 1_556 S
C390 C391 1.384 . S
C390 C396 1.379 . S
C390 N398 1.356 . S
C391 C390 1.384 . S
C391 C397 1.343 1_655 S
C392 C393 1.363 1_455 S
C392 C397 1.379 . S
C392 N399 1.356 . S
C393 C392 1.363 1_655 S
C393 C396 1.363 . S
N394 C396 1.356 . S
N394 H406 0.984 . S
N394 H407 0.985 1_554 S
N395 C397 1.356 . S
N395 H400 0.984 . S
N395 H401 0.985 . S
C396 C390 1.379 . S
C396 C393 1.363 . S
C396 N394 1.356 . S
C397 C391 1.343 1_455 S
C397 C392 1.379 . S
C397 N395 1.356 . S
N398 C390 1.356 . S
N398 H404 0.984 . S
N398 H405 0.984 . S
N399 C392 1.356 . S
N399 H402 0.984 1_554 S
N399 H403 0.985 . S
H400 N395 0.984 . S
H401 N395 0.985 . S
H402 N399 0.984 1_556 S
H403 N399 0.985 . S
H404 N398 0.984 . S
H405 N398 0.984 . S
H406 N394 0.984 . S
H407 N394 0.985 1_556 S
C408 C409 1.363 . S
C408 C414 1.379 . S
C408 N416 1.356 1_655 S
C409 C408 1.363 . S
C409 C415 1.363 . S
C410 C411 1.363 . S
C410 C415 1.379 . S
C410 N417 1.356 . S
C411 C410 1.363 . S
C411 C414 1.363 . S
N412 C414 1.356 . S
N412 H424 0.984 . S
N412 H425 0.985 . S
N413 C415 1.356 . S
N413 H418 0.984 1_654 S
N413 H419 0.985 1_554 S
C414 C408 1.379 . S
C414 C411 1.363 . S
C414 N412 1.356 . S
C415 C409 1.363 . S
C415 C410 1.379 . S
C415 N413 1.356 . S
N416 C408 1.356 1_455 S
N416 H422 0.984 . S
N416 H423 0.984 . S
N417 C410 1.356 . S
N417 H420 0.984 . S
N417 H421 0.985 . S
H418 N413 0.984 1_456 S
H419 N413 0.985 1_556 S
H420 N417 0.984 . S
H421 N417 0.985 . S
H422 N416 0.984 . S
H423 N416 0.984 . S
H424 N412 0.984 . S
H425 N412 0.985 . S
C426 C427 1.363 . S
C426 C432 1.379 . S
C426 N434 1.356 . S
C427 C426 1.363 . S
C427 C433 1.363 1_565 S
C428 C429 1.363 . S
C428 C433 1.379 1_565 S
C428 N435 1.356 . S
C429 C428 1.363 . S
C429 C432 1.363 . S
N430 C432 1.356 . S
N430 H442 0.984 . S
N430 H443 0.985 . S
N431 C433 1.356 . S
N431 H436 0.984 . S
N431 H437 0.985 . S
C432 C426 1.379 . S
C432 C429 1.363 . S
C432 N430 1.356 . S
C433 C427 1.363 1_545 S
C433 C428 1.379 1_545 S
C433 N431 1.356 . S
N434 C426 1.356 . S
N434 H440 0.984 . S
N434 H441 0.984 . S
N435 C428 1.356 . S
N435 H438 0.984 . S
N435 H439 0.985 . S
H436 N431 0.984 . S
H437 N431 0.985 . S
H438 N435 0.984 . S
H439 N435 0.985 . S
H440 N434 0.984 . S
H441 N434 0.984 . S
H442 N430 0.984 . S
H443 N430 0.985 . S
C444 C445 1.363 . S
C444 C450 1.379 . S
C444 N452 1.356 . S
C445 C444 1.363 . S
C445 C451 1.363 . S
C446 C447 1.363 . S
C446 C451 1.379 . S
C446 N453 1.356 . S
C447 C446 1.363 . S
C447 C450 1.363 . S
N448 C450 1.356 . S
N448 H460 0.984 . S
N448 H461 0.985 . S
N449 C451 1.356 1_556 S
N449 H454 0.984 . S
N449 H455 0.985 . S
C450 C444 1.379 . S
C450 C447 1.363 . S
C450 N448 1.356 . S
C451 C445 1.363 . S
C451 C446 1.379 . S
C451 N449 1.356 1_554 S
N452 C444 1.356 . S
N452 H458 0.984 . S
N452 H459 0.984 . S
N453 C446 1.356 . S
N453 H456 0.984 . S
N453 H457 0.985 . S
H454 N449 0.984 . S
H455 N449 0.985 . S
H456 N453 0.984 . S
H457 N453 0.985 . S
H458 N452 0.984 . S
H459 N452 0.984 . S
H460 N448 0.984 . S
H461 N448 0.985 . S
C462 C463 1.363 . S
C462 C468 1.379 . S
C462 N470 1.356 . S
C463 C462 1.363 . S
C463 C469 1.363 . S
C464 C465 1.363 . S
C464 C469 1.379 . S
C464 N471 1.356 . S
C465 C464 1.363 . S
C465 C468 1.363 . S
N466 C468 1.356 . S
N466 H478 0.984 . S
N466 H479 0.985 . S
N467 C469 1.356 . S
N467 H472 0.984 . S
N467 H473 0.985 1_554 S
C468 C462 1.379 . S
C468 C465 1.363 . S
C468 N466 1.356 . S
C469 C463 1.363 . S
C469 C464 1.379 . S
C469 N467 1.356 . S
N470 C462 1.356 . S
N470 H476 0.984 . S
N470 H477 0.984 . S
N471 C464 1.356 . S
N471 H474 0.984 . S
N471 H475 0.985 . S
H472 N467 0.984 . S
H473 N467 0.985 1_556 S
H474 N471 0.984 . S
H475 N471 0.985 . S
H476 N470 0.984 . S
H477 N470 0.984 . S
H478 N466 0.984 . S
H479 N466 0.985 . S
C480 C481 1.363 . S
C480 C486 1.379 . S
C480 N488 1.356 . S
C481 C480 1.363 . S
C481 C487 1.363 1_455 S
C482 C483 1.363 . S
C482 C487 1.379 1_455 S
C482 N489 1.356 . S
C483 C482 1.363 . S
C483 C486 1.363 . S
N484 C486 1.356 . S
N484 H496 0.984 . S
N484 H497 0.985 . S
N485 C487 1.356 . S
N485 H490 0.984 . S
N485 H491 0.985 . S
C486 C480 1.379 . S
C486 C483 1.363 . S
C486 N484 1.356 . S
C487 C481 1.363 1_655 S
C487 C482 1.379 1_655 S
C487 N485 1.356 . S
N488 C480 1.356 . S
N488 H494 0.984 . S
N488 H495 0.984 . S
N489 C482 1.356 . S
N489 H492 0.984 . S
N489 H493 0.985 . S
H490 N485 0.984 . S
H491 N485 0.985 . S
H492 N489 0.984 . S
H493 N489 0.985 . S
H494 N488 0.984 . S
H495 N488 0.984 . S
H496 N484 0.984 . S
H497 N484 0.985 . S
C498 C499 1.363 . S
C498 C504 1.379 . S
C498 N506 1.356 . S
C499 C498 1.363 . S
C499 C505 1.363 1_545 S
C500 C501 1.363 . S
C500 C505 1.379 1_545 S
C500 N507 1.356 . S
C501 C500 1.363 . S
C501 C504 1.363 . S
N502 C504 1.356 . S
N502 H514 0.984 . S
N502 H515 0.985 . S
N503 C505 1.356 . S
N503 H508 0.984 . S
N503 H509 0.985 . S
C504 C498 1.379 . S
C504 C501 1.363 . S
C504 N502 1.356 . S
C505 C499 1.363 1_565 S
C505 C500 1.379 1_565 S
C505 N503 1.356 . S
N506 C498 1.356 . S
N506 H512 0.984 . S
N506 H513 0.984 . S
N507 C500 1.356 . S
N507 H510 0.984 . S
N507 H511 0.985 . S
H508 N503 0.984 . S
H509 N503 0.985 . S
H510 N507 0.984 . S
H511 N507 0.985 . S
H512 N506 0.984 . S
H513 N506 0.984 . S
H514 N502 0.984 . S
H515 N502 0.985 . S
C516 C517 1.363 . S
C516 C522 1.379 . S
C516 N524 1.356 . S
C517 C516 1.363 . S
C517 C523 1.363 . S
C518 C519 1.363 . S
C518 C523 1.379 . S
C518 N525 1.356 . S
C519 C518 1.363 . S
C519 C522 1.363 . S
N520 C522 1.356 . S
N520 H532 0.984 . S
N520 H533 0.985 . S
N521 C523 1.356 . S
N521 H526 0.984 . S
N521 H527 0.985 . S
C522 C516 1.379 . S
C522 C519 1.363 . S
C522 N520 1.356 . S
C523 C517 1.363 . S
C523 C518 1.379 . S
C523 N521 1.356 . S
N524 C516 1.356 . S
N524 H530 0.984 . S
N524 H531 0.984 . S
N525 C518 1.356 . S
N525 H528 0.984 . S
N525 H529 0.985 . S
H526 N521 0.984 . S
H527 N521 0.985 . S
H528 N525 0.984 . S
H529 N525 0.985 . S
H530 N524 0.984 . S
H531 N524 0.984 . S
H532 N520 0.984 . S
H533 N520 0.985 . S
C534 C535 1.363 . S
C534 C540 1.379 . S
C534 N542 1.356 . S
C535 C534 1.363 . S
C535 C541 1.363 . S
C536 C537 1.363 . S
C536 C541 1.379 . S
C536 N543 1.356 . S
C537 C536 1.363 . S
C537 C540 1.363 . S
N538 C540 1.356 . S
N538 H550 0.984 . S
N538 H551 0.985 . S
N539 C541 1.356 . S
N539 H544 0.984 . S
N539 H545 0.985 . S
C540 C534 1.379 . S
C540 C537 1.363 . S
C540 N538 1.356 . S
C541 C535 1.363 . S
C541 C536 1.379 . S
C541 N539 1.356 . S
N542 C534 1.356 . S
N542 H548 0.984 . S
N542 H549 0.984 . S
N543 C536 1.356 . S
N543 H546 0.984 . S
N543 H547 0.985 . S
H544 N539 0.984 . S
H545 N539 0.985 . S
H546 N543 0.984 . S
H547 N543 0.985 . S
H548 N542 0.984 . S
H549 N542 0.984 . S
H550 N538 0.984 . S
H551 N538 0.985 . S
C552 C553 1.363 1_655 S
C552 C558 1.379 . S
C552 N560 1.356 . S
C553 C552 1.363 1_455 S
C553 C559 1.363 . S
C554 C555 1.363 . S
C554 C559 1.379 . S
C554 N561 1.356 1_556 S
C555 C554 1.363 . S
C555 C558 1.363 1_455 S
N556 C558 1.356 . S
N556 H568 0.984 . S
N556 H569 0.985 . S
N557 C559 1.356 1_554 S
N557 H562 0.984 1_554 S
N557 H563 0.985 . S
C558 C552 1.379 . S
C558 C555 1.363 1_655 S
C558 N556 1.356 . S
C559 C553 1.363 . S
C559 C554 1.379 . S
C559 N557 1.356 1_556 S
N560 C552 1.356 . S
N560 H566 0.984 . S
N560 H567 0.984 . S
N561 C554 1.356 1_554 S
N561 H564 0.984 . S
N561 H565 0.985 . S
H562 N557 0.984 1_556 S
H563 N557 0.985 . S
H564 N561 0.984 . S
H565 N561 0.985 . S
H566 N560 0.984 . S
H567 N560 0.984 . S
H568 N556 0.984 . S
H569 N556 0.985 . S
C570 C571 1.363 . S
C570 C576 1.379 . S
C570 N578 1.356 . S
C571 C570 1.363 . S
C571 C577 1.363 1_545 S
C572 C573 1.363 1_565 S
C572 C577 1.379 . S
C572 N579 1.356 . S
C573 C572 1.363 1_545 S
C573 C576 1.363 . S
N574 C576 1.356 . S
N574 H586 0.984 . S
N574 H587 0.985 . S
N575 C577 1.356 . S
N575 H580 0.984 . S
N575 H581 0.985 . S
C576 C570 1.379 . S
C576 C573 1.363 . S
C576 N574 1.356 . S
C577 C571 1.363 1_565 S
C577 C572 1.379 . S
C577 N575 1.356 . S
N578 C570 1.356 . S
N578 H584 0.984 . S
N578 H585 0.984 . S
N579 C572 1.356 . S
N579 H582 0.984 . S
N579 H583 0.985 . S
H580 N575 0.984 . S
H581 N575 0.985 . S
H582 N579 0.984 . S
H583 N579 0.985 . S
H584 N578 0.984 . S
H585 N578 0.984 . S
H586 N574 0.984 . S
H587 N574 0.985 . S
C588 C589 1.363 . S
C588 C594 1.379 . S
C588 N596 1.356 . S
C589 C588 1.363 . S
C589 C595 1.363 . S
C590 C591 1.363 . S
C590 C595 1.379 . S
C590 N597 1.356 1_556 S
C591 C590 1.363 . S
C591 C594 1.363 . S
N592 C594 1.356 . S
N592 H604 0.984 . S
N592 H605 0.985 . S
N593 C595 1.356 1_554 S
N593 H598 0.984 1_554 S
N593 H599 0.985 . S
C594 C588 1.379 . S
C594 C591 1.363 . S
C594 N592 1.356 . S
C595 C589 1.363 . S
C595 C590 1.379 . S
C595 N593 1.356 1_556 S
N596 C588 1.356 . S
N596 H602 0.984 . S
N596 H603 0.984 . S
N597 C590 1.356 1_554 S
N597 H600 0.984 . S
N597 H601 0.985 . S
H598 N593 0.984 1_556 S
H599 N593 0.985 . S
H600 N597 0.984 . S
H601 N597 0.985 . S
H602 N596 0.984 . S
H603 N596 0.984 . S
H604 N592 0.984 . S
H605 N592 0.985 . S
C606 C607 1.363 . S
C606 C612 1.379 . S
C606 N614 1.356 . S
C607 C606 1.363 . S
C607 C613 1.363 . S
C608 C609 1.363 . S
C608 C613 1.379 . S
C608 N615 1.356 1_556 S
C609 C608 1.363 . S
C609 C612 1.363 . S
N610 C612 1.356 . S
N610 H622 0.984 . S
N610 H623 0.985 . S
N611 C613 1.356 1_554 S
N611 H616 0.984 1_554 S
N611 H617 0.985 . S
C612 C606 1.379 . S
C612 C609 1.363 . S
C612 N610 1.356 . S
C613 C607 1.363 . S
C613 C608 1.379 . S
C613 N611 1.356 1_556 S
N614 C606 1.356 . S
N614 H620 0.984 . S
N614 H621 0.984 . S
N615 C608 1.356 1_554 S
N615 H618 0.984 . S
N615 H619 0.985 . S
H616 N611 0.984 1_556 S
H617 N611 0.985 . S
H618 N615 0.984 . S
H619 N615 0.985 . S
H620 N614 0.984 . S
H621 N614 0.984 . S
H622 N610 0.984 . S
H623 N610 0.985 . S
C624 C625 1.363 . S
C624 C630 1.379 . S
C624 N632 1.356 . S
C625 C624 1.363 . S
C625 C631 1.363 1_655 S
C626 C627 1.363 1_455 S
C626 C631 1.379 . S
C626 N633 1.356 . S
C627 C626 1.363 1_655 S
C627 C630 1.363 . S
N628 C630 1.356 . S
N628 H640 0.984 . S
N628 H641 0.985 . S
N629 C631 1.356 . S
N629 H634 0.984 . S
N629 H635 0.985 . S
C630 C624 1.379 . S
C630 C627 1.363 . S
C630 N628 1.356 . S
C631 C625 1.363 1_455 S
C631 C626 1.379 . S
C631 N629 1.356 . S
N632 C624 1.356 . S
N632 H638 0.984 . S
N632 H639 0.984 . S
N633 C626 1.356 . S
N633 H636 0.984 . S
N633 H637 0.985 . S
H634 N629 0.984 . S
H635 N629 0.985 . S
H636 N633 0.984 . S
H637 N633 0.985 . S
H638 N632 0.984 . S
H639 N632 0.984 . S
H640 N628 0.984 . S
H641 N628 0.985 . S
C642 C643 1.363 1_545 S
C642 C648 1.379 . S
C642 N650 1.356 . S
C643 C642 1.363 1_565 S
C643 C649 1.363 . S
C644 C645 1.363 . S
C644 C649 1.379 . S
C644 N651 1.356 . S
C645 C644 1.363 . S
C645 C648 1.363 1_565 S
N646 C648 1.356 . S
N646 H658 0.984 . S
N646 H659 0.985 . S
N647 C649 1.356 . S
N647 H652 0.984 . S
N647 H653 0.985 . S
C648 C642 1.379 . S
C648 C645 1.363 1_545 S
C648 N646 1.356 . S
C649 C643 1.363 . S
C649 C644 1.379 . S
C649 N647 1.356 . S
N650 C642 1.356 . S
N650 H656 0.984 . S
N650 H657 0.984 . S
N651 C644 1.356 . S
N651 H654 0.984 . S
N651 H655 0.985 . S
H652 N647 0.984 . S
H653 N647 0.985 . S
H654 N651 0.984 . S
H655 N651 0.985 . S
H656 N650 0.984 . S
H657 N650 0.984 . S
H658 N646 0.984 . S
H659 N646 0.985 . S
C660 C661 1.363 . S
C660 C666 1.379 . S
C660 N668 1.356 . S
C661 C660 1.363 . S
C661 C667 1.363 . S
C662 C663 1.363 . S
C662 C667 1.379 . S
C662 N669 1.356 . S
C663 C662 1.363 . S
C663 C666 1.363 . S
N664 C666 1.356 . S
N664 H676 0.984 . S
N664 H677 0.985 . S
N665 C667 1.356 . S
N665 H670 0.984 . S
N665 H671 0.985 . S
C666 C660 1.379 . S
C666 C663 1.363 . S
C666 N664 1.356 . S
C667 C661 1.363 . S
C667 C662 1.379 . S
C667 N665 1.356 . S
N668 C660 1.356 . S
N668 H674 0.984 1_556 S
N668 H675 0.984 . S
N669 C662 1.356 . S
N669 H672 0.984 . S
N669 H673 0.985 . S
H670 N665 0.984 . S
H671 N665 0.985 . S
H672 N669 0.984 . S
H673 N669 0.985 . S
H674 N668 0.984 1_554 S
H675 N668 0.984 . S
H676 N664 0.984 . S
H677 N664 0.985 . S
C678 C679 1.363 . S
C678 C684 1.379 . S
C678 N686 1.356 . S
C679 C678 1.363 . S
C679 C685 1.363 . S
C680 C681 1.363 . S
C680 C685 1.379 . S
C680 N687 1.356 . S
C681 C680 1.363 . S
C681 C684 1.363 . S
N682 C684 1.356 . S
N682 H694 0.984 . S
N682 H695 0.985 . S
N683 C685 1.356 . S
N683 H688 0.984 . S
N683 H689 0.985 . S
C684 C678 1.379 . S
C684 C681 1.363 . S
C684 N682 1.356 . S
C685 C679 1.363 . S
C685 C680 1.379 . S
C685 N683 1.356 . S
N686 C678 1.356 . S
N686 H692 0.984 . S
N686 H693 0.984 . S
N687 C680 1.356 . S
N687 H690 0.984 . S
N687 H691 0.985 . S
H688 N683 0.984 . S
H689 N683 0.985 . S
H690 N687 0.984 . S
H691 N687 0.985 . S
H692 N686 0.984 . S
H693 N686 0.984 . S
H694 N682 0.984 . S
H695 N682 0.985 . S
C265 C82 1.754 . S
C267 C113 2.188 1_545 S
C285 C153 2.207 . S
C283 C95 1.757 . S
C303 C193 2.218 . S
C301 C56 1.772 . S
C321 C233 2.200 1_455 S
C319 C69 1.768 . S
C339 C122 2.190 1_564 S
C337 C30 1.757 1_565 S
C355 C43 1.788 . S
C357 C162 2.208 1_554 S
C373 C4 1.804 . S
C375 C202 2.217 1_554 S
C391 C17 1.768 1_655 S
C393 C242 2.200 1_654 S
C411 C119 0.838 . S
C409 C74 0.846 1_655 S
C429 C159 0.836 . S
C427 C87 0.843 1_565 S
C447 C199 0.826 . S
C445 C100 0.835 . S
C463 C61 0.837 . S
C465 C239 0.824 . S
C481 C22 0.847 . S
C483 C110 0.840 . S
C501 C150 0.836 . S
C499 C35 0.844 . S
C519 C190 0.826 . S
C517 C48 0.833 . S
C535 C9 0.835 . S
C537 C230 0.829 . S
C553 C73 2.251 . S
C555 C123 2.568 . S
C571 C86 2.211 . S
C573 C163 2.530 . S
C591 C203 2.516 . S
C589 C99 2.196 . S
C609 C243 2.558 . S
C607 C60 2.233 . S
C625 C21 2.252 1_655 S
C627 C114 2.575 . S
C645 C154 2.530 . S
C643 C34 2.212 1_565 S
C663 C194 2.517 . S
C661 C47 2.203 . S
C679 C8 2.242 . S
C681 C234 2.561 . S
