# Generated by pormake.
# Topology ctn, (3,4)-cn, num edge types: 1
# Building blocks:
#     Node 0, Type 0, BuildingBlock: QEWDON_clean_linker_0, # of connection points: 3
#     Node 1, Type 0, BuildingBlock: QEWDON_clean_linker_0, # of connection points: 3
#     Node 2, Type 0, BuildingBlock: QEWDON_clean_linker_0, # of connection points: 3
#     Node 3, Type 0, BuildingBlock: QEWDON_clean_linker_0, # of connection points: 3
#     Node 4, Type 0, BuildingBlock: QEWDON_clean_linker_0, # of connection points: 3
#     Node 5, Type 0, BuildingBlock: QEWDON_clean_linker_0, # of connection points: 3
#     Node 6, Type 0, BuildingBlock: QEWDON_clean_linker_0, # of connection points: 3
#     Node 7, Type 0, BuildingBlock: QEWDON_clean_linker_0, # of connection points: 3
#     Node 8, Type 0, BuildingBlock: QEWDON_clean_linker_0, # of connection points: 3
#     Node 9, Type 0, BuildingBlock: QEWDON_clean_linker_0, # of connection points: 3
#     Node 10, Type 0, BuildingBlock: QEWDON_clean_linker_0, # of connection points: 3
#     Node 11, Type 0, BuildingBlock: QEWDON_clean_linker_0, # of connection points: 3
#     Node 12, Type 0, BuildingBlock: QEWDON_clean_linker_0, # of connection points: 3
#     Node 13, Type 0, BuildingBlock: QEWDON_clean_linker_0, # of connection points: 3
#     Node 14, Type 0, BuildingBlock: QEWDON_clean_linker_0, # of connection points: 3
#     Node 15, Type 0, BuildingBlock: QEWDON_clean_linker_0, # of connection points: 3
#     Node 16, Type 1, BuildingBlock: UXUYUI_clean_sbu_0, # of connection points: 4
#     Node 17, Type 1, BuildingBlock: UXUYUI_clean_sbu_0, # of connection points: 4
#     Node 18, Type 1, BuildingBlock: UXUYUI_clean_sbu_0, # of connection points: 4
#     Node 19, Type 1, BuildingBlock: UXUYUI_clean_sbu_0, # of connection points: 4
#     Node 20, Type 1, BuildingBlock: UXUYUI_clean_sbu_0, # of connection points: 4
#     Node 21, Type 1, BuildingBlock: UXUYUI_clean_sbu_0, # of connection points: 4
#     Node 22, Type 1, BuildingBlock: UXUYUI_clean_sbu_0, # of connection points: 4
#     Node 23, Type 1, BuildingBlock: UXUYUI_clean_sbu_0, # of connection points: 4
#     Node 24, Type 1, BuildingBlock: UXUYUI_clean_sbu_0, # of connection points: 4
#     Node 25, Type 1, BuildingBlock: UXUYUI_clean_sbu_0, # of connection points: 4
#     Node 26, Type 1, BuildingBlock: UXUYUI_clean_sbu_0, # of connection points: 4
#     Node 27, Type 1, BuildingBlock: UXUYUI_clean_sbu_0, # of connection points: 4
#     Edge 28, Type (0, 1), BuildingBlock: XIVTED_clean_linker_0, # of connection points: 2
#     Edge 29, Type (0, 1), BuildingBlock: XIVTED_clean_linker_0, # of connection points: 2
#     Edge 30, Type (0, 1), BuildingBlock: XIVTED_clean_linker_0, # of connection points: 2
#     Edge 31, Type (0, 1), BuildingBlock: XIVTED_clean_linker_0, # of connection points: 2
#     Edge 32, Type (0, 1), BuildingBlock: XIVTED_clean_linker_0, # of connection points: 2
#     Edge 33, Type (0, 1), BuildingBlock: XIVTED_clean_linker_0, # of connection points: 2
#     Edge 34, Type (0, 1), BuildingBlock: XIVTED_clean_linker_0, # of connection points: 2
#     Edge 35, Type (0, 1), BuildingBlock: XIVTED_clean_linker_0, # of connection points: 2
#     Edge 36, Type (0, 1), BuildingBlock: XIVTED_clean_linker_0, # of connection points: 2
#     Edge 37, Type (0, 1), BuildingBlock: XIVTED_clean_linker_0, # of connection points: 2
#     Edge 38, Type (0, 1), BuildingBlock: XIVTED_clean_linker_0, # of connection points: 2
#     Edge 39, Type (0, 1), BuildingBlock: XIVTED_clean_linker_0, # of connection points: 2
#     Edge 40, Type (0, 1), BuildingBlock: XIVTED_clean_linker_0, # of connection points: 2
#     Edge 41, Type (0, 1), BuildingBlock: XIVTED_clean_linker_0, # of connection points: 2
#     Edge 42, Type (0, 1), BuildingBlock: XIVTED_clean_linker_0, # of connection points: 2
#     Edge 43, Type (0, 1), BuildingBlock: XIVTED_clean_linker_0, # of connection points: 2
#     Edge 44, Type (0, 1), BuildingBlock: XIVTED_clean_linker_0, # of connection points: 2
#     Edge 45, Type (0, 1), BuildingBlock: XIVTED_clean_linker_0, # of connection points: 2
#     Edge 46, Type (0, 1), BuildingBlock: XIVTED_clean_linker_0, # of connection points: 2
#     Edge 47, Type (0, 1), BuildingBlock: XIVTED_clean_linker_0, # of connection points: 2
#     Edge 48, Type (0, 1), BuildingBlock: XIVTED_clean_linker_0, # of connection points: 2
#     Edge 49, Type (0, 1), BuildingBlock: XIVTED_clean_linker_0, # of connection points: 2
#     Edge 50, Type (0, 1), BuildingBlock: XIVTED_clean_linker_0, # of connection points: 2
#     Edge 51, Type (0, 1), BuildingBlock: XIVTED_clean_linker_0, # of connection points: 2
#     Edge 52, Type (0, 1), BuildingBlock: XIVTED_clean_linker_0, # of connection points: 2
#     Edge 53, Type (0, 1), BuildingBlock: XIVTED_clean_linker_0, # of connection points: 2
#     Edge 54, Type (0, 1), BuildingBlock: XIVTED_clean_linker_0, # of connection points: 2
#     Edge 55, Type (0, 1), BuildingBlock: XIVTED_clean_linker_0, # of connection points: 2
#     Edge 56, Type (0, 1), BuildingBlock: XIVTED_clean_linker_0, # of connection points: 2
#     Edge 57, Type (0, 1), BuildingBlock: XIVTED_clean_linker_0, # of connection points: 2
#     Edge 58, Type (0, 1), BuildingBlock: XIVTED_clean_linker_0, # of connection points: 2
#     Edge 59, Type (0, 1), BuildingBlock: XIVTED_clean_linker_0, # of connection points: 2
#     Edge 60, Type (0, 1), BuildingBlock: XIVTED_clean_linker_0, # of connection points: 2
#     Edge 61, Type (0, 1), BuildingBlock: XIVTED_clean_linker_0, # of connection points: 2
#     Edge 62, Type (0, 1), BuildingBlock: XIVTED_clean_linker_0, # of connection points: 2
#     Edge 63, Type (0, 1), BuildingBlock: XIVTED_clean_linker_0, # of connection points: 2
#     Edge 64, Type (0, 1), BuildingBlock: XIVTED_clean_linker_0, # of connection points: 2
#     Edge 65, Type (0, 1), BuildingBlock: XIVTED_clean_linker_0, # of connection points: 2
#     Edge 66, Type (0, 1), BuildingBlock: XIVTED_clean_linker_0, # of connection points: 2
#     Edge 67, Type (0, 1), BuildingBlock: XIVTED_clean_linker_0, # of connection points: 2
#     Edge 68, Type (0, 1), BuildingBlock: XIVTED_clean_linker_0, # of connection points: 2
#     Edge 69, Type (0, 1), BuildingBlock: XIVTED_clean_linker_0, # of connection points: 2
#     Edge 70, Type (0, 1), BuildingBlock: XIVTED_clean_linker_0, # of connection points: 2
#     Edge 71, Type (0, 1), BuildingBlock: XIVTED_clean_linker_0, # of connection points: 2
#     Edge 72, Type (0, 1), BuildingBlock: XIVTED_clean_linker_0, # of connection points: 2
#     Edge 73, Type (0, 1), BuildingBlock: XIVTED_clean_linker_0, # of connection points: 2
#     Edge 74, Type (0, 1), BuildingBlock: XIVTED_clean_linker_0, # of connection points: 2
#     Edge 75, Type (0, 1), BuildingBlock: XIVTED_clean_linker_0, # of connection points: 2
# Relax obj value: 0.115
# Max RMSD: 0.279
# Mean RMSD: 0.161
data_MOF--net-ctn--node1-UXUYUI_clean_sbu_0--node2-QEWDON_clean_linker_0--edge1-XIVTED_clean_linker_0
_symmetry_space_group_name_H-M    P1
_symmetry_Int_Tables_number       1
_symmetry_cell_setting            triclinic
loop_
_symmetry_equiv_pos_as_xyz
'x, y, z'
_cell_length_a     65.584337
_cell_length_b     68.211563
_cell_length_c     72.610252
_cell_angle_alpha  97.887306
_cell_angle_beta   91.84464
_cell_angle_gamma 95.279943
loop_
_atom_site_label
_atom_site_type_symbol
_atom_site_fract_x
_atom_site_fract_y
_atom_site_fract_z
_atom_type_partial_charge
H0 H 0.08833 0.04634 0.05652 0.0
C1 C 0.0782 0.04377 0.06763 0.0
C2 C 0.0789 0.02648 0.07614 0.0
C3 C 0.06586 0.05861 0.07457 0.0
H4 H 0.06746 0.01091 0.09823 0.0
C5 C 0.0666 0.02396 0.09136 0.0
C6 C 0.05395 0.03859 0.09828 0.0
C7 C 0.05348 0.05568 0.08955 0.0
C8 C 0.0681 0.07845 0.06831 0.0
H9 H 0.04387 0.06714 0.09473 0.0
C10 C 0.06573 0.08083 0.0494 0.0
C11 C 0.06846 0.09997 0.04407 0.0
C12 C 0.07307 0.09532 0.08169 0.0
H13 H 0.07512 0.09385 0.09629 0.0
C14 C 0.07579 0.11421 0.0764 0.0
H15 H 0.06184 0.06795 0.03896 0.0
C16 C 0.07356 0.11655 0.05772 0.0
H17 H 0.0756 0.1314 0.05392 0.0
H18 H 0.07966 0.12708 0.08681 0.0
H19 H 0.3284 0.75187 0.24093 0.0
C20 C 0.3186 0.73798 0.2391 0.0
C21 C 0.32565 0.72095 0.24507 0.0
C22 C 0.29859 0.73744 0.23149 0.0
H23 H 0.31759 0.69021 0.24799 0.0
C24 C 0.31244 0.70329 0.24306 0.0
C25 C 0.29225 0.70262 0.23575 0.0
C26 C 0.2855 0.71976 0.22976 0.0
C27 C 0.29031 0.75611 0.22833 0.0
H28 H 0.26974 0.71974 0.22477 0.0
C29 C 0.29165 0.76319 0.21106 0.0
C30 C 0.28405 0.78139 0.20864 0.0
C31 C 0.28119 0.76708 0.24305 0.0
H32 H 0.28007 0.76178 0.25642 0.0
C33 C 0.27352 0.78499 0.24067 0.0
H34 H 0.29884 0.75475 0.19974 0.0
C35 C 0.27494 0.79213 0.22362 0.0
H36 H 0.26867 0.806 0.22209 0.0
H37 H 0.26645 0.79337 0.25208 0.0
H38 H 0.02263 0.47567 0.03941 0.0
C39 C 0.00992 0.48458 0.03823 0.0
C40 C 1.00264 0.49524 0.05429 0.0
C41 C 1.00194 0.48652 0.02049 0.0
H42 H 0.98135 0.51613 0.06455 0.0
C43 C 0.98688 0.50765 0.05232 0.0
C44 C 0.97869 0.50967 0.03461 0.0
C45 C 0.98616 0.49878 0.01885 0.0
C46 C 0.01133 0.47742 1.00351 0.0
H47 H 0.97986 0.49998 0.00511 0.0
C48 C 0.01428 0.45705 1.00064 0.0
C49 C 0.02328 0.44878 0.98436 0.0
C50 C 0.01751 0.48941 0.99003 0.0
H51 H 0.01556 0.50515 0.99201 0.0
C52 C 0.0265 0.48129 0.97398 0.0
H53 H 0.00951 0.4477 0.01096 0.0
C54 C 0.02937 0.46114 0.97113 0.0
H55 H 0.03605 0.45514 0.95836 0.0
H56 H 0.03119 0.49065 0.96368 0.0
H57 H 0.77692 0.80544 0.25088 0.0
C58 C 0.77395 0.7982 0.23667 0.0
C59 C 0.78138 0.80755 0.22183 0.0
C60 C 0.76346 0.77915 0.23347 0.0
H61 H 0.78499 0.80413 0.19227 0.0
C62 C 0.77857 0.79725 0.20362 0.0
C63 C 0.7682 0.77796 0.20011 0.0
C64 C 0.76015 0.76931 0.21523 0.0
C65 C 0.75841 0.76865 0.24944 0.0
H66 H 0.75202 0.75456 0.21303 0.0
C67 C 0.73798 0.76347 0.25355 0.0
C68 C 0.73361 0.75381 0.26915 0.0
C69 C 0.77445 0.76399 0.26083 0.0
H70 H 0.79027 0.76787 0.25783 0.0
C71 C 0.77022 0.75423 0.27611 0.0
H72 H 0.72561 0.76711 0.24476 0.0
C73 C 0.74998 0.74921 0.2803 0.0
H74 H 0.74716 0.74209 0.29255 0.0
H75 H 0.78267 0.75071 0.28484 0.0
H76 H 0.10826 0.96395 0.49029 0.0
C77 C 0.09575 0.96811 0.48199 0.0
C78 C 0.09736 0.98667 0.47543 0.0
C79 C 0.07884 0.95407 0.47636 0.0
H80 H 0.08193 0.00574 0.45938 0.0
C81 C 0.08125 0.99127 0.46403 0.0
C82 C 0.06486 0.97709 0.45752 0.0
C83 C 0.06354 0.9586 0.46403 0.0
C84 C 0.07917 0.93336 0.48014 0.0
H85 H 0.05135 0.94724 0.45864 0.0
C86 C 0.07594 0.92803 0.49798 0.0
C87 C 0.07668 0.90809 0.50098 0.0
C88 C 0.08292 0.91872 0.46542 0.0
H89 H 0.08541 0.92257 0.45162 0.0
C90 C 0.08369 0.89905 0.46837 0.0
H91 H 0.07296 0.93926 0.50939 0.0
C92 C 0.08066 0.89376 0.48601 0.0
H93 H 0.08113 0.87833 0.48793 0.0
H94 H 0.08663 0.88787 0.45695 0.0
H95 H 0.27229 0.69662 0.78465 0.0
C96 C 0.26845 0.70467 0.79782 0.0
C97 C 0.27649 0.69978 0.81456 0.0
C98 C 0.25599 0.72026 0.79774 0.0
H99 H 0.27842 0.70742 0.84444 0.0
C100 C 0.27155 0.71055 0.83151 0.0
C101 C 0.25914 0.7264 0.83168 0.0
C102 C 0.25106 0.73083 0.81467 0.0
C103 C 0.25069 0.72712 0.7799 0.0
H104 H 0.24173 0.74313 0.81451 0.0
C105 C 0.23019 0.72787 0.77384 0.0
C106 C 0.22573 0.73358 0.75632 0.0
C107 C 0.26662 0.73269 0.76863 0.0
H108 H 0.28249 0.73236 0.77312 0.0
C109 C 0.26228 0.73888 0.75157 0.0
H110 H 0.21785 0.72332 0.78239 0.0
C111 C 0.24201 0.73928 0.74541 0.0
H112 H 0.23907 0.74414 0.73206 0.0
H113 H 0.27466 0.74327 0.74304 0.0
H114 H 0.97703 0.58707 0.46701 0.0
C115 C 0.96736 0.57481 0.47113 0.0
C116 C 0.96337 0.57439 0.49002 0.0
C117 C 0.958 0.56 0.45736 0.0
H118 H 0.9471 0.55811 0.5094 0.0
C119 C 0.95043 0.55847 0.49494 0.0
C120 C 0.94099 0.54347 0.48126 0.0
C121 C 0.94492 0.54443 0.46248 0.0
C122 C 0.95921 0.56234 0.43751 0.0
H123 H 0.93705 0.53356 0.45167 0.0
C124 C 0.97722 0.5595 0.42784 0.0
C125 C 0.97773 0.56168 0.40881 0.0
C126 C 0.94181 0.56733 0.42813 0.0
H127 H 0.92783 0.56953 0.43538 0.0
C128 C 0.9423 0.56961 0.40938 0.0
H129 H 0.99065 0.55559 0.43507 0.0
C130 C 0.96009 0.5668 0.39976 0.0
H131 H 0.9599 0.56828 0.38509 0.0
H132 H 0.9288 0.57344 0.40223 0.0
H133 H 0.82799 0.81544 0.79584 0.0
C134 C 0.82538 0.80435 0.80509 0.0
C135 C 0.83612 0.7873 0.80295 0.0
C136 C 0.81259 0.80795 0.82006 0.0
H137 H 0.84132 0.76019 0.81383 0.0
C138 C 0.83326 0.77345 0.81558 0.0
C139 C 0.82009 0.77661 0.83039 0.0
C140 C 0.80992 0.79398 0.8325 0.0
C141 C 0.80382 0.82725 0.82413 0.0
H142 H 0.80036 0.79705 0.84426 0.0
C143 C 0.79112 0.83427 0.81095 0.0
C144 C 0.78251 0.85236 0.81561 0.0
C145 C 0.80808 0.83866 0.84171 0.0
H146 H 0.81793 0.83363 0.85199 0.0
C147 C 0.79978 0.85672 0.84615 0.0
H148 H 0.78756 0.82553 0.79741 0.0
C149 C 0.787 0.86351 0.83322 0.0
H150 H 0.78045 0.87746 0.83698 0.0
H151 H 0.80316 0.8654 0.85972 0.0
H152 H 0.32487 0.31754 0.29737 0.0
C153 C 0.32356 0.30661 0.30688 0.0
C154 C 0.33478 0.28984 0.30426 0.0
C155 C 0.3112 0.30983 0.32221 0.0
H156 H 0.34138 0.26304 0.31526 0.0
C157 C 0.33272 0.2759 0.31693 0.0
C158 C 0.31984 0.27861 0.33201 0.0
C159 C 0.30927 0.2957 0.33453 0.0
C160 C 0.30166 0.32873 0.32652 0.0
H161 H 0.29988 0.29835 0.34647 0.0
C162 C 0.28895 0.33573 0.31331 0.0
C163 C 0.27923 0.35313 0.31833 0.0
C164 C 0.30501 0.33966 0.34441 0.0
H165 H 0.31491 0.33472 0.35472 0.0
C166 C 0.29568 0.35708 0.3492 0.0
H167 H 0.28608 0.32737 0.29952 0.0
C168 C 0.28273 0.36371 0.3363 0.0
H169 H 0.27536 0.37713 0.34035 0.0
H170 H 0.29834 0.36536 0.36302 0.0
H171 H 0.52634 0.97701 0.53748 0.0
C172 C 0.51383 0.9863 0.53696 0.0
C173 C 0.50769 0.99709 0.55345 0.0
C174 C 0.50457 0.98814 0.51971 0.0
H175 H 0.48751 0.01839 0.56508 0.0
C176 C 0.49176 0.00949 0.55252 0.0
C177 C 0.48234 0.01146 0.53526 0.0
C178 C 0.48866 1.0004 0.51903 0.0
C179 C 0.51279 0.97894 0.50217 0.0
H180 H 0.48137 1.00152 0.50565 0.0
C181 C 0.51586 0.95861 0.49918 0.0
C182 C 0.52394 0.95028 0.48246 0.0
C183 C 0.51789 0.99083 0.48832 0.0
H184 H 0.51584 0.00655 0.49038 0.0
C185 C 0.52596 0.98265 0.47182 0.0
H186 H 0.51193 0.94933 0.50978 0.0
C187 C 0.529 0.96254 0.46888 0.0
H188 H 0.53499 0.95647 0.45579 0.0
H189 H 0.52985 0.99194 0.46124 0.0
H190 H 0.27795 0.30671 0.75386 0.0
C191 C 0.27659 0.29939 0.73959 0.0
C192 C 0.28524 0.30895 0.72533 0.0
C193 C 0.2666 0.28016 0.73571 0.0
H194 H 0.29123 0.30582 0.69611 0.0
C195 C 0.28366 0.29894 0.70699 0.0
C196 C 0.27377 0.27953 0.70289 0.0
C197 C 0.26489 0.27042 0.71738 0.0
C198 C 0.26076 0.26923 0.75119 0.0
H199 H 0.2574 0.25541 0.71459 0.0
C200 C 0.2401 0.2647 0.75497 0.0
C201 C 0.23501 0.2542 0.76987 0.0
C202 C 0.27628 0.26325 0.7623 0.0
H203 H 0.29227 0.26665 0.75955 0.0
C204 C 0.27131 0.25272 0.77694 0.0
H205 H 0.22811 0.26936 0.74639 0.0
C206 C 0.25085 0.2482 0.78072 0.0
H207 H 0.24742 0.24035 0.79242 0.0
H208 H 0.28337 0.24814 0.78545 0.0
H209 H 0.82944 0.25034 0.73984 0.0
C210 C 0.81938 0.23667 0.73873 0.0
C211 C 0.82618 0.21984 0.74535 0.0
C212 C 0.79926 0.23628 0.73144 0.0
H213 H 0.81748 0.18954 0.74952 0.0
C214 C 0.81259 0.20247 0.74413 0.0
C215 C 0.79235 0.20191 0.73694 0.0
C216 C 0.78585 0.2189 0.73046 0.0
C217 C 0.79124 0.25499 0.728 0.0
H218 H 0.77004 0.21901 0.72564 0.0
C219 C 0.79247 0.26167 0.71055 0.0
C220 C 0.78517 0.27995 0.7079 0.0
C221 C 0.78255 0.26644 0.74269 0.0
H222 H 0.78153 0.26145 0.7562 0.0
C223 C 0.77519 0.28443 0.7401 0.0
H224 H 0.79933 0.25287 0.69924 0.0
C225 C 0.7765 0.29118 0.72286 0.0
H226 H 0.77048 0.30512 0.72117 0.0
H227 H 0.76846 0.29317 0.75149 0.0
H228 H 0.58833 0.54705 0.55713 0.0
C229 C 0.57748 0.5436 0.56743 0.0
C230 C 0.57671 0.52511 0.57414 0.0
C231 C 0.56544 0.55841 0.575 0.0
H232 H 0.56189 0.50725 0.59323 0.0
C233 C 0.56311 0.52154 0.58824 0.0
C234 C 0.55111 0.53633 0.5961 0.0
C235 C 0.55237 0.55468 0.58929 0.0
C236 C 0.56825 0.57863 0.56967 0.0
H237 H 0.54373 0.56647 0.59556 0.0
C238 C 0.56555 0.58188 0.55102 0.0
C239 C 0.56869 0.60128 0.54637 0.0
C240 C 0.57393 0.5949 0.58352 0.0
H241 H 0.57616 0.59271 0.59792 0.0
C242 C 0.57711 0.61407 0.5789 0.0
H243 H 0.56106 0.56944 0.54025 0.0
C244 C 0.57459 0.61726 0.56045 0.0
H245 H 0.57698 0.63232 0.55719 0.0
H246 H 0.58155 0.6265 0.58965 0.0
H247 H 0.59966 0.46471 0.99547 0.0
C248 C 0.58859 0.4693 0.98592 0.0
C249 C 0.59169 0.48824 0.98022 0.0
C250 C 0.57186 0.45586 0.97845 0.0
H251 H 0.58038 0.50789 0.9622 0.0
C252 C 0.57774 0.49361 0.96714 0.0
C253 C 0.56105 0.48032 0.95953 0.0
C254 C 0.55803 0.4616 0.96547 0.0
C255 C 0.57055 0.43483 0.98173 0.0
H256 H 0.54555 0.45101 0.95917 0.0
C257 C 0.56913 0.42939 0.99974 0.0
C258 C 0.56824 0.40917 1.0022 0.0
C259 C 0.57099 0.41995 0.96635 0.0
H260 H 0.57219 0.4238 0.95241 0.0
C261 C 0.57018 0.40001 0.96878 0.0
H262 H 0.56872 0.44076 0.01168 0.0
C263 C 0.56886 0.39462 0.98655 0.0
H264 H 0.56801 0.37899 0.98805 0.0
H265 H 0.57057 0.38867 0.95684 0.0
H266 H 0.76742 0.18901 0.28767 0.0
C267 C 0.76375 0.19721 0.30082 0.0
C268 C 0.77152 0.19213 0.31758 0.0
C269 C 0.75203 0.21333 0.30071 0.0
H270 H 0.77454 0.20043 0.34726 0.0
C271 C 0.76779 0.20384 0.33443 0.0
C272 C 0.75586 0.2201 0.33466 0.0
C273 C 0.74756 0.2243 0.3176 0.0
C274 C 0.74684 0.22008 0.28277 0.0
H275 H 0.73826 0.23657 0.31725 0.0
C276 C 0.7264 0.22143 0.27686 0.0
C277 C 0.72205 0.22693 0.25922 0.0
C278 C 0.76282 0.22487 0.27125 0.0
H279 H 0.77864 0.22407 0.27562 0.0
C280 C 0.75859 0.23083 0.25407 0.0
H281 H 0.71401 0.21751 0.2856 0.0
C282 C 0.73839 0.23181 0.24804 0.0
H283 H 0.73553 0.23646 0.23459 0.0
H284 H 0.77101 0.23459 0.24533 0.0
H285 H 0.47603 0.09021 0.9677 0.0
C286 C 0.46652 0.07768 0.97153 0.0
C287 C 0.46213 0.07695 0.99027 0.0
C288 C 0.45805 0.06268 0.95752 0.0
H289 H 0.44577 0.06014 0.00915 0.0
C290 C 0.44942 0.06069 0.99478 0.0
C291 C 0.44052 0.04567 0.98084 0.0
C292 C 0.44513 0.04675 0.96219 0.0
C293 C 0.4598 0.06543 0.93784 0.0
H294 H 0.43776 0.03586 0.95114 0.0
C295 C 0.47467 0.05663 0.92679 0.0
C296 C 0.47547 0.05903 0.90784 0.0
C297 C 0.44599 0.07682 0.92999 0.0
H298 H 0.43449 0.08369 0.93836 0.0
C299 C 0.44682 0.07931 0.9113 0.0
H300 H 0.4853 0.04776 0.93284 0.0
C301 C 0.46139 0.07045 0.90026 0.0
H302 H 0.46182 0.07274 0.8858 0.0
H303 H 0.43611 0.08812 0.90533 0.0
Li304 Li 0.27657 0.89475 0.01847 0.0
Li305 Li 0.26153 0.87267 0.03804 0.0
Li306 Li 0.25418 0.86577 1.00428 0.0
Li307 Li 0.2403 0.89527 0.02486 0.0
C308 C 0.29803 0.85887 0.0124 0.0
N309 N 0.33372 0.84347 1.00066 0.0
C310 C 0.31303 0.85552 0.02542 0.0
C311 C 0.30113 0.85421 0.99339 0.0
C312 C 0.33099 0.84779 0.01921 0.0
C313 C 0.31929 0.84648 0.98774 0.0
C314 C 0.27794 0.90908 0.05704 0.0
C315 C 0.28681 0.92892 0.08682 0.0
N316 N 0.30594 0.92273 0.08627 0.0
C317 C 0.29767 0.9029 0.05678 0.0
C318 C 0.27244 0.92219 0.07217 0.0
C319 C 0.31161 0.90997 0.07168 0.0
C320 C 0.29826 0.9325 0.02022 0.0
N321 N 0.29989 0.91289 0.0145 0.0
C322 C 0.3328 0.92069 1.00261 0.0
C323 C 0.3168 0.90684 0.0059 0.0
C324 C 0.3314 0.94108 0.00802 0.0
C325 C 0.31381 0.9469 0.01703 0.0
H326 H 0.28461 0.93698 0.02695 0.0
H327 H 0.31794 0.89134 1.00135 0.0
C328 C 0.27353 0.84196 0.05734 0.0
N329 N 0.26553 0.85978 0.05941 0.0
C330 C 0.27673 0.83224 0.07277 0.0
C331 C 0.26305 0.85925 0.09208 0.0
C332 C 0.26008 0.86841 0.07629 0.0
C333 C 0.27161 0.84097 0.09048 0.0
H334 H 0.27743 0.83529 0.04368 0.0
H335 H 0.2533 0.88236 0.07748 0.0
C336 C 0.26063 0.90741 0.98913 0.0
N337 N 0.27747 0.93486 0.96788 0.0
C338 C 0.25604 0.92716 0.99242 0.0
C339 C 0.27359 0.90155 0.97491 0.0
C340 C 0.26475 0.94083 0.98154 0.0
C341 C 0.28201 0.91568 0.96436 0.0
C342 C 0.22468 0.85452 0.03644 0.0
C343 C 0.22622 0.83404 0.03416 0.0
C344 C 0.21428 0.86337 0.05139 0.0
C345 C 0.21744 0.82273 0.04704 0.0
C346 C 0.20568 0.85154 0.06395 0.0
N347 N 0.20745 0.83165 0.06155 0.0
C348 C 0.25512 0.82741 0.98418 0.0
C349 C 0.24171 0.85083 0.967 0.0
C350 C 0.25422 0.81327 0.96823 0.0
N351 N 0.24926 0.84586 0.98318 0.0
C352 C 0.24042 0.83713 0.95073 0.0
C353 C 0.24714 0.81816 0.9511 0.0
H354 H 0.26132 0.82398 0.99722 0.0
H355 H 0.23723 0.86565 0.96662 0.0
C356 C 0.22282 0.92959 0.03947 0.0
N357 N 0.21836 0.91148 0.02906 0.0
C358 C 0.20731 0.94189 0.04396 0.0
C359 C 0.18293 0.91692 0.02648 0.0
C360 C 0.19893 0.90499 0.02245 0.0
C361 C 0.18701 0.93555 0.03757 0.0
H362 H 0.23845 0.93442 0.04437 0.0
H363 H 0.19584 0.89046 0.01426 0.0
O364 O 0.28019 0.86609 0.01826 0.0
O365 O 0.26394 0.90221 0.04269 0.0
O366 O 0.25276 0.89397 0.99999 0.0
O367 O 0.23378 0.86595 0.02438 0.0
H368 H 0.31085 0.85882 0.04019 0.0
H369 H 0.28983 0.85682 0.98308 0.0
H370 H 0.34274 0.84519 0.02915 0.0
H371 H 0.32192 0.84292 0.97309 0.0
H372 H 0.28275 0.93903 0.09864 0.0
H373 H 0.3022 0.89282 0.0452 0.0
H374 H 0.25718 0.92701 0.07267 0.0
H375 H 0.32695 0.90533 0.07163 0.0
H376 H 0.34617 0.91539 0.99593 0.0
H377 H 0.3118 0.96243 0.02123 0.0
H378 H 0.28344 0.81822 0.07089 0.0
H379 H 0.25847 0.86632 0.10538 0.0
H380 H 0.24607 0.93191 1.00341 0.0
H381 H 0.27728 0.88632 0.9722 0.0
H382 H 0.26146 0.95619 0.98402 0.0
H383 H 0.29219 0.9114 0.95341 0.0
H384 H 0.23433 0.82701 0.0227 0.0
H385 H 0.21309 0.87924 0.0534 0.0
H386 H 0.21862 0.80689 0.04553 0.0
H387 H 0.19769 0.85819 0.07566 0.0
H388 H 0.25982 0.79899 0.96919 0.0
H389 H 0.23451 0.84147 0.93796 0.0
H390 H 0.21118 0.95625 0.05231 0.0
H391 H 0.16747 0.91142 0.02139 0.0
Li392 Li 0.12204 0.50979 0.26414 0.0
Li393 Li 0.14656 0.48779 0.24947 0.0
Li394 Li 0.15085 0.52375 0.24668 0.0
Li395 Li 0.12363 0.50138 0.22983 0.0
C396 C 0.16814 0.51581 0.28187 0.0
N397 N 0.20162 0.52582 0.3066 0.0
C398 C 0.18645 0.50724 0.27843 0.0
C399 C 0.16683 0.52937 0.29798 0.0
C400 C 0.20321 0.51252 0.29107 0.0
C401 C 0.18394 0.53428 0.31028 0.0
C402 C 0.11303 0.46445 0.25211 0.0
C403 C 0.11408 0.42922 0.24298 0.0
N404 N 0.10869 0.42596 0.26032 0.0
C405 C 0.10735 0.46075 0.2698 0.0
C406 C 0.11628 0.44857 0.23854 0.0
C407 C 0.10528 0.44118 0.27368 0.0
C408 C 0.0867 0.52258 0.2811 0.0
N409 N 0.10497 0.51557 0.28453 0.0
C410 C 0.09913 0.51841 0.3171 0.0
C411 C 0.11126 0.51317 0.30204 0.0
C412 C 0.08044 0.52628 0.31405 0.0
C413 C 0.07419 0.52814 0.29573 0.0
H414 H 0.08194 0.52405 0.267 0.0
H415 H 0.12577 0.50734 0.30432 0.0
C416 C 0.17319 0.4572 0.24062 0.0
N417 N 0.16123 0.46576 0.25378 0.0
C418 C 0.1849 0.44199 0.24448 0.0
C419 C 0.1716 0.44463 0.27529 0.0
C420 C 0.16028 0.45983 0.27088 0.0
C421 C 0.18424 0.43556 0.26206 0.0
H422 H 0.17395 0.46243 0.22724 0.0
H423 H 0.15103 0.46723 0.28123 0.0
C424 C 0.11646 0.5461 0.25212 0.0
N425 N 0.10614 0.58295 0.26761 0.0
C426 C 0.10082 0.5549 0.24378 0.0
C427 C 0.12686 0.55602 0.26832 0.0
C428 C 0.09582 0.57355 0.25183 0.0
C429 C 0.12142 0.57465 0.27594 0.0
C430 C 0.15442 0.49805 0.20859 0.0
C431 C 0.15973 0.51424 0.19923 0.0
C432 C 0.14909 0.47925 0.19842 0.0
C433 C 0.15937 0.51138 0.17979 0.0
C434 C 0.1489 0.477 0.17899 0.0
N435 N 0.15398 0.49299 0.17016 0.0
C436 C 0.18929 0.54773 0.25152 0.0
C437 C 0.16258 0.56182 0.23682 0.0
C438 C 0.2028 0.56453 0.25041 0.0
N439 N 0.16948 0.54681 0.24512 0.0
C440 C 0.17557 0.57891 0.2354 0.0
C441 C 0.19596 0.5805 0.24239 0.0
H442 H 0.19477 0.53536 0.25727 0.0
H443 H 0.147 0.56052 0.23118 0.0
C444 C 0.09535 0.48119 0.20076 0.0
N445 N 0.10722 0.49828 0.2073 0.0
C446 C 0.08309 0.47999 0.18443 0.0
C447 C 0.09564 0.51393 0.18194 0.0
C448 C 0.10756 0.51448 0.19829 0.0
C449 C 0.08303 0.49657 0.17484 0.0
H450 H 0.09522 0.46859 0.20831 0.0
H451 H 0.11712 0.52789 0.20388 0.0
O452 O 0.15141 0.51059 0.26984 0.0
O453 O 0.11551 0.48353 0.24816 0.0
O454 O 0.12135 0.52775 0.2445 0.0
O455 O 0.15416 0.50065 0.22759 0.0
H456 H 0.18789 0.49692 0.26595 0.0
H457 H 0.15276 0.53604 0.30101 0.0
H458 H 0.2175 0.50609 0.2885 0.0
H459 H 0.18314 0.54478 0.32277 0.0
H460 H 0.11671 0.4168 0.23266 0.0
H461 H 0.10474 0.47286 0.28045 0.0
H462 H 0.12068 0.45117 0.2248 0.0
H463 H 0.10101 0.4381 0.28734 0.0
H464 H 0.10454 0.51677 0.331 0.0
H465 H 0.05973 0.53378 0.2927 0.0
H466 H 0.19437 0.43537 0.23386 0.0
H467 H 0.17093 0.44046 0.28914 0.0
H468 H 0.0926 0.54736 0.23125 0.0
H469 H 0.13904 0.54945 0.27487 0.0
H470 H 0.08374 0.58054 0.24554 0.0
H471 H 0.12935 0.58251 0.28847 0.0
H472 H 0.1639 0.52889 0.20687 0.0
H473 H 0.1449 0.46657 0.20543 0.0
H474 H 0.16332 0.52381 0.17236 0.0
H475 H 0.14465 0.46257 0.17094 0.0
H476 H 0.21854 0.56487 0.25553 0.0
H477 H 0.16961 0.59084 0.22911 0.0
H478 H 0.07344 0.46638 0.17962 0.0
H479 H 0.09641 0.52696 0.1749 0.0
Li480 Li 0.77682 0.62969 0.9966 0.0
Li481 Li 0.79225 0.65905 0.01854 0.0
Li482 Li 0.79677 0.6555 0.98377 0.0
Li483 Li 0.81379 0.63536 1.002 0.0
C484 C 0.75036 0.65692 0.99721 0.0
N485 N 0.708 0.65344 0.99641 0.0
C486 C 0.74007 0.66395 0.01298 0.0
C487 C 0.73908 0.64821 0.98101 0.0
C488 C 0.71865 0.66204 0.01229 0.0
C489 C 0.71769 0.64655 0.98089 0.0
C490 C 0.79715 0.6133 0.02663 0.0
C491 C 0.81068 0.59579 0.05031 0.0
N492 N 0.80787 0.57854 0.03829 0.0
C493 C 0.79459 0.59539 0.01447 0.0
C494 C 0.80543 0.61352 0.04467 0.0
C495 C 0.80001 0.57799 0.02064 0.0
C496 C 0.75001 0.59541 0.98022 0.0
N497 N 0.75338 0.61035 0.99474 0.0
C498 C 0.7233 0.59828 0.00907 0.0
C499 C 0.74064 0.6118 0.00917 0.0
C500 C 0.71922 0.58284 0.99414 0.0
C501 C 0.73292 0.58143 0.97962 0.0
H502 H 0.76071 0.59415 0.96922 0.0
H503 H 0.74401 0.62348 0.02082 0.0
C504 C 0.78636 0.69577 0.04079 0.0
N505 N 0.78794 0.67605 0.04081 0.0
C506 C 0.78261 0.70789 0.05726 0.0
C507 C 0.78267 0.6792 0.07342 0.0
C508 C 0.78599 0.66764 0.05662 0.0
C509 C 0.78073 0.69965 0.07397 0.0
H510 H 0.78774 0.70202 0.02792 0.0
H511 H 0.78689 0.65189 0.05618 0.0
C512 C 0.8011 0.62569 0.95948 0.0
N513 N 0.80697 0.62628 0.92202 0.0
C514 C 0.8208 0.62969 0.95325 0.0
C515 C 0.78439 0.62197 0.94663 0.0
C516 C 0.82345 0.62994 0.93427 0.0
C517 C 0.78768 0.62232 0.92775 0.0
C518 C 0.83731 0.66916 0.01133 0.0
C519 C 0.85335 0.66529 0.99955 0.0
C520 C 0.84176 0.67725 0.02993 0.0
C521 C 0.87358 0.66934 0.00664 0.0
C522 C 0.8622 0.68112 0.03649 0.0
N523 N 0.87755 0.6771 0.02481 0.0
C524 C 0.81733 0.68136 0.96124 0.0
C525 C 0.78296 0.67059 0.95114 0.0
C526 C 0.81976 0.69224 0.94635 0.0
N527 N 0.79918 0.67071 0.96331 0.0
C528 C 0.78473 0.68116 0.936 0.0
C529 C 0.80333 0.69223 0.93342 0.0
H530 H 0.82994 0.68145 0.97118 0.0
H531 H 0.76868 0.66207 0.95302 0.0
C532 C 0.84241 0.60711 0.99268 0.0
N533 N 0.83744 0.62163 0.00607 0.0
C534 C 0.85842 0.59571 0.99598 0.0
C535 C 0.86368 0.61412 0.02692 0.0
C536 C 0.84768 0.62526 0.02297 0.0
C537 C 0.86918 0.59905 0.01334 0.0
H538 H 0.83356 0.60397 0.97963 0.0
H539 H 0.84306 0.63647 0.03359 0.0
O540 O 0.77133 0.65843 0.9977 0.0
O541 O 0.79269 0.63064 0.02054 0.0
O542 O 0.79816 0.62589 0.97809 0.0
O543 O 0.81737 0.66518 1.0047 0.0
H544 H 0.74849 0.67069 0.02565 0.0
H545 H 0.74673 0.64236 0.96879 0.0
H546 H 0.7105 0.66736 0.02441 0.0
H547 H 0.70879 0.63967 0.9685 0.0
H548 H 0.81716 0.59579 0.0642 0.0
H549 H 0.78895 0.59498 1.00027 0.0
H550 H 0.80825 0.62726 0.05412 0.0
H551 H 0.79814 0.56406 0.01135 0.0
H552 H 0.71338 0.59971 0.02072 0.0
H553 H 0.73036 0.56977 0.96783 0.0
H554 H 0.7809 0.72344 0.05679 0.0
H555 H 0.78182 0.67209 0.08585 0.0
H556 H 0.8339 0.63278 0.96298 0.0
H557 H 0.76899 0.61925 0.95117 0.0
H558 H 0.8386 0.63311 0.92929 0.0
H559 H 0.77487 0.61959 0.91768 0.0
H560 H 0.85024 0.65901 0.98513 0.0
H561 H 0.82959 0.6804 0.03926 0.0
H562 H 0.88613 0.66628 0.99771 0.0
H563 H 0.86585 0.68729 0.05088 0.0
H564 H 0.83428 0.70081 0.94518 0.0
H565 H 0.77171 0.68043 0.9263 0.0
H566 H 0.86191 0.58398 0.98525 0.0
H567 H 0.87161 0.61721 0.04047 0.0
Li568 Li 0.9104 0.03435 0.28433 0.0
Li569 Li 0.93675 0.01438 0.29748 0.0
Li570 Li 0.9362 0.01996 0.266 0.0
Li571 Li 0.91014 0.99671 0.27442 0.0
C572 C 0.95655 0.0522 0.28288 0.0
N573 N 0.98904 0.07475 0.27039 0.0
C574 C 0.9764 0.04647 0.28421 0.0
C575 C 0.95323 0.06945 0.27529 0.0
C576 C 0.99262 0.05804 0.27778 0.0
C577 C 0.96986 0.08065 0.26904 0.0
C578 C 0.89602 0.01268 0.3153 0.0
C579 C 0.87503 0.99696 0.33684 0.0
N580 N 0.87489 0.01484 0.34772 0.0
C581 C 0.89562 0.03091 0.32667 0.0
C582 C 0.88559 0.99557 0.32037 0.0
C583 C 0.88487 0.03169 0.34301 0.0
C584 C 0.87231 0.04967 0.28635 0.0
N585 N 0.89272 0.05477 0.28975 0.0
C586 C 0.88678 0.08821 0.30129 0.0
C587 C 0.90015 0.07353 0.29723 0.0
C588 C 0.86554 0.08347 0.29782 0.0
C589 C 0.85839 0.06381 0.29035 0.0
H590 H 0.86686 0.03454 0.28065 0.0
H591 H 0.91644 0.07708 0.30014 0.0
C592 C 0.97153 1.00413 0.3163 0.0
N593 N 0.95301 0.01122 0.31917 0.0
C594 C 0.98375 1.00036 0.33126 0.0
C595 C 0.95782 0.0115 0.35203 0.0
C596 C 0.94611 0.01507 0.33664 0.0
C597 C 0.9769 1.00397 0.34945 0.0
H598 H 0.97671 1.00111 0.3023 0.0
H599 H 0.93152 0.02086 0.33873 0.0
C600 C 0.90459 0.01797 0.24077 0.0
N601 N 0.90169 0.01747 0.20269 0.0
C602 C 0.9098 1.00146 0.22888 0.0
C603 C 0.89769 0.03413 0.23332 0.0
C604 C 0.90831 1.00153 0.20966 0.0
C605 C 0.89637 0.03361 0.21401 0.0
C606 C 0.94342 0.97669 0.28125 0.0
C607 C 0.95748 0.96459 0.27267 0.0
C608 C 0.93257 0.97056 0.29606 0.0
C609 C 0.96045 0.94661 0.27906 0.0
C610 C 0.93599 0.9525 0.30206 0.0
N611 N 0.94974 0.94098 0.29351 0.0
C612 C 0.96697 0.01104 0.24075 0.0
C613 C 0.95051 0.03933 0.23534 0.0
C614 C 0.97858 0.01232 0.2251 0.0
N615 N 0.95309 0.02427 0.24544 0.0
C616 C 0.96184 0.04122 0.21961 0.0
C617 C 0.97595 0.02745 0.21418 0.0
H618 H 0.96886 0.99933 0.24906 0.0
H619 H 0.93936 0.04967 0.23929 0.0
C620 C 0.87254 0.97253 0.27163 0.0
N621 N 0.89248 0.97307 0.26703 0.0
C622 C 0.85924 0.95532 0.26633 0.0
C623 C 0.88724 0.93966 0.25152 0.0
C624 C 0.89991 0.9572 0.25696 0.0
C625 C 0.86656 0.9385 0.25619 0.0
H626 H 0.86697 0.98551 0.27938 0.0
H627 H 0.91571 0.95813 0.25312 0.0
O628 O 0.94044 0.04086 0.28884 0.0
O629 O 0.90617 0.01165 0.29907 0.0
O630 O 0.90622 0.01832 0.25961 0.0
O631 O 0.94042 0.99438 0.27507 0.0
H632 H 0.97921 0.03312 0.28996 0.0
H633 H 0.93794 0.07396 0.2739 0.0
H634 H 0.00804 0.05372 0.27862 0.0
H635 H 0.9675 0.09396 0.26301 0.0
H636 H 0.86693 0.98383 0.34095 0.0
H637 H 0.90381 0.04426 0.3231 0.0
H638 H 0.88565 0.98134 0.31171 0.0
H639 H 0.88452 0.04568 0.35199 0.0
H640 H 0.89308 0.10316 0.30686 0.0
H641 H 0.84218 0.05928 0.28778 0.0
H642 H 0.99825 0.99435 0.32857 0.0
H643 H 0.95208 0.01479 0.36582 0.0
H644 H 0.91524 0.98888 0.23447 0.0
H645 H 0.89357 0.047 0.24239 0.0
H646 H 0.91245 0.98893 0.20028 0.0
H647 H 0.89117 0.04605 0.20803 0.0
H648 H 0.966 0.96896 0.26116 0.0
H649 H 0.92172 0.97964 0.30296 0.0
H650 H 0.97128 0.93711 0.27253 0.0
H651 H 0.92771 0.94764 0.31353 0.0
H652 H 0.98953 1.00159 0.22162 0.0
H653 H 0.95918 0.05302 0.21152 0.0
H654 H 0.84335 0.9553 0.26995 0.0
H655 H 0.8937 0.92707 0.24394 0.0
Li656 Li 0.29666 0.16207 0.52049 0.0
Li657 Li 0.28042 0.13182 0.4986 0.0
Li658 Li 0.31646 0.13697 0.50566 0.0
Li659 Li 0.30244 0.15755 0.48529 0.0
C660 C 0.30256 0.12264 0.5355 0.0
N661 N 0.32016 0.10025 0.55954 0.0
C662 C 0.30243 0.10207 0.53066 0.0
C663 C 0.31152 0.1318 0.55263 0.0
C664 C 0.31146 0.09102 0.54297 0.0
C665 C 0.32035 0.12022 0.56458 0.0
C666 C 0.25839 0.16805 0.49572 0.0
C667 C 0.23246 0.17705 0.47494 0.0
N668 N 0.22135 0.18307 0.4898 0.0
C669 C 0.24676 0.17448 0.51079 0.0
C670 C 0.25124 0.16947 0.47764 0.0
C671 C 0.22806 0.18196 0.50751 0.0
C672 C 0.30208 0.19842 0.54574 0.0
N673 N 0.29236 0.17973 0.54222 0.0
C674 C 0.27659 0.18383 0.57149 0.0
C675 C 0.27966 0.17238 0.55457 0.0
C676 C 0.28674 0.20305 0.5758 0.0
C677 C 0.29943 0.21045 0.56256 0.0
H678 H 0.31217 0.20383 0.53565 0.0
H679 H 0.27212 0.15746 0.55133 0.0
C680 C 0.25961 0.09316 0.49122 0.0
N681 N 0.25671 0.11274 0.49537 0.0
C682 C 0.24295 0.07859 0.48986 0.0
C683 C 0.22054 0.10464 0.49638 0.0
C684 C 0.23764 0.11864 0.49801 0.0
C685 C 0.22312 0.08434 0.49241 0.0
H686 H 0.27491 0.08884 0.48906 0.0
H687 H 0.23563 0.13417 0.50155 0.0
C688 C 0.34302 0.16922 0.50798 0.0
N689 N 0.38533 0.17407 0.51014 0.0
C690 C 0.35406 0.16264 0.49256 0.0
C691 C 0.35345 0.17844 0.52443 0.0
C692 C 0.37546 0.16518 0.49396 0.0
C693 C 0.37486 0.18071 0.52526 0.0
C694 C 0.29531 0.12085 0.46303 0.0
C695 C 0.30757 0.11062 0.45035 0.0
C696 C 0.27546 0.12403 0.4574 0.0
C697 C 0.29977 0.10381 0.43225 0.0
C698 C 0.26819 0.11696 0.43919 0.0
N699 N 0.2804 0.10709 0.42708 0.0
C700 C 0.3429 0.10682 0.49786 0.0
C701 C 0.35185 0.12808 0.52614 0.0
C702 C 0.35887 0.09532 0.50098 0.0
N703 N 0.33969 0.12285 0.51037 0.0
C704 C 0.36785 0.11685 0.52994 0.0
C705 C 0.37149 0.10022 0.51726 0.0
H706 H 0.33282 0.10276 0.48561 0.0
H707 H 0.34892 0.14077 0.53598 0.0
C708 C 0.29801 0.1899 0.46563 0.0
N709 N 0.30598 0.17211 0.46469 0.0
C710 C 0.29969 0.20095 0.45081 0.0
C711 C 0.31848 0.17556 0.43457 0.0
C712 C 0.31633 0.16493 0.44967 0.0
C713 C 0.30994 0.19376 0.43494 0.0
H714 H 0.29024 0.19549 0.47789 0.0
H715 H 0.32292 0.15096 0.44939 0.0
O716 O 0.29413 0.13377 0.52348 0.0
O717 O 0.27682 0.16077 0.49873 0.0
O718 O 0.32209 0.16663 0.50696 0.0
O719 O 0.30293 0.12786 0.48073 0.0
H720 H 0.2957 0.09476 0.51743 0.0
H721 H 0.31202 0.14772 0.55653 0.0
H722 H 0.31161 0.07512 0.53934 0.0
H723 H 0.32746 0.12713 0.57782 0.0
H724 H 0.22675 0.17819 0.46102 0.0
H725 H 0.25199 0.17351 0.52486 0.0
H726 H 0.26009 0.1649 0.46577 0.0
H727 H 0.21887 0.18687 0.51905 0.0
H728 H 0.26642 0.17764 0.58114 0.0
H729 H 0.30768 0.22512 0.56538 0.0
H730 H 0.24549 0.06305 0.48658 0.0
H731 H 0.20546 0.10961 0.49852 0.0
H732 H 0.34618 0.15542 0.47976 0.0
H733 H 0.34509 0.18357 0.53649 0.0
H734 H 0.38423 0.16003 0.48219 0.0
H735 H 0.38316 0.1877 0.53793 0.0
H736 H 0.32306 0.10818 0.45438 0.0
H737 H 0.26573 0.13179 0.46697 0.0
H738 H 0.30914 0.09595 0.42229 0.0
H739 H 0.25284 0.11932 0.43468 0.0
H740 H 0.36103 0.08246 0.49096 0.0
H741 H 0.37733 0.1212 0.54259 0.0
H742 H 0.2932 0.21508 0.45186 0.0
H743 H 0.32646 0.16942 0.42261 0.0
Li744 Li 0.43621 0.5178 0.79827 0.0
Li745 Li 0.41047 0.53746 0.78645 0.0
Li746 Li 0.40864 0.50141 0.77726 0.0
Li747 Li 0.43504 0.52382 0.76554 0.0
C748 C 0.40509 0.51523 0.82081 0.0
N749 N 0.40421 0.51402 0.85866 0.0
C750 C 0.40064 0.53193 0.83287 0.0
C751 C 0.40902 0.49789 0.828 0.0
C752 C 0.40026 0.53102 0.85196 0.0
C753 C 0.40855 0.49759 0.84718 0.0
C754 C 0.45767 0.55458 0.78412 0.0
C755 C 0.47412 0.57852 0.76644 0.0
N756 N 0.49261 0.57569 0.77416 0.0
C757 C 0.47682 0.55195 0.79192 0.0
C758 C 0.45627 0.56802 0.77134 0.0
C759 C 0.49431 0.56276 0.78669 0.0
C760 C 0.46582 0.49963 0.81737 0.0
N761 N 0.45372 0.51486 0.81906 0.0
C762 C 0.46535 0.52458 0.85084 0.0
C763 C 0.45365 0.52757 0.83523 0.0
C764 C 0.47768 0.50872 0.84959 0.0
C765 C 0.47805 0.49631 0.83252 0.0
H766 H 0.46588 0.48995 0.80429 0.0
H767 H 0.44427 0.53986 0.83606 0.0
C768 C 0.3742 0.55495 0.79621 0.0
N769 N 0.39422 0.55908 0.79255 0.0
C770 C 0.36162 0.57032 0.80011 0.0
C771 C 0.3906 0.59393 0.79673 0.0
C772 C 0.40261 0.5781 0.79289 0.0
C773 C 0.36976 0.59015 0.8003 0.0
H774 H 0.36795 0.53966 0.79589 0.0
H775 H 0.41861 0.58098 0.7901 0.0
C776 C 0.43847 0.47932 0.76828 0.0
N777 N 0.43644 0.4398 0.75289 0.0
C778 C 0.44108 0.47419 0.74925 0.0
C779 C 0.43497 0.46437 0.7795 0.0
C780 C 0.43998 0.45412 0.74173 0.0
C781 C 0.43393 0.44447 0.77144 0.0
C782 C 0.38903 0.53084 0.75486 0.0
C783 C 0.36908 0.52195 0.75567 0.0
C784 C 0.39224 0.54919 0.74835 0.0
C785 C 0.3526 0.53167 0.75003 0.0
C786 C 0.37536 0.55844 0.74288 0.0
N787 N 0.35605 0.54956 0.74383 0.0
C788 C 0.38119 0.46869 0.78376 0.0
C789 C 0.38872 0.46971 0.75218 0.0
C790 C 0.36914 0.45064 0.77897 0.0
N791 N 0.39091 0.47764 0.77045 0.0
C792 C 0.37683 0.45166 0.74676 0.0
C793 C 0.36702 0.44176 0.76027 0.0
H794 H 0.38289 0.47549 0.79812 0.0
H795 H 0.39654 0.47727 0.74188 0.0
C796 C 0.47141 0.52578 0.74518 0.0
N797 N 0.45082 0.52689 0.74428 0.0
C798 C 0.48279 0.52683 0.72933 0.0
C799 C 0.45149 0.52963 0.71183 0.0
C800 C 0.44076 0.52873 0.72804 0.0
C801 C 0.47282 0.52865 0.71228 0.0
H802 H 0.47896 0.52385 0.75817 0.0
H803 H 0.42431 0.52901 0.72756 0.0
O804 O 0.40568 0.51588 0.80208 0.0
O805 O 0.4404 0.544 0.78892 0.0
O806 O 0.439 0.49888 0.77583 0.0
O807 O 0.40533 0.52182 0.76075 0.0
H808 H 0.39771 0.54553 0.8276 0.0
H809 H 0.41273 0.4849 0.8189 0.0
H810 H 0.39691 0.54385 0.86147 0.0
H811 H 0.41171 0.48432 0.85294 0.0
H812 H 0.47328 0.58887 0.75648 0.0
H813 H 0.4782 0.54161 0.80182 0.0
H814 H 0.44158 0.57013 0.76507 0.0
H815 H 0.50924 0.56084 0.79257 0.0
H816 H 0.46491 0.53464 0.8637 0.0
H817 H 0.48737 0.48393 0.83101 0.0
H818 H 0.34561 0.56667 0.80256 0.0
H819 H 0.39761 0.60898 0.79698 0.0
H820 H 0.44371 0.48556 0.74034 0.0
H821 H 0.43281 0.46809 0.79423 0.0
H822 H 0.44187 0.44992 0.72702 0.0
H823 H 0.43108 0.43275 0.77993 0.0
H824 H 0.36633 0.50781 0.76077 0.0
H825 H 0.4076 0.55632 0.74777 0.0
H826 H 0.33706 0.52501 0.75066 0.0
H827 H 0.3776 0.57271 0.73794 0.0
H828 H 0.36153 0.44374 0.7898 0.0
H829 H 0.37575 0.4453 0.73221 0.0
H830 H 0.49921 0.5262 0.73047 0.0
H831 H 0.44301 0.53056 0.69899 0.0
Li832 Li 0.77525 0.39456 0.51868 0.0
Li833 Li 0.76037 0.37251 0.53836 0.0
Li834 Li 0.75353 0.36513 0.50436 0.0
Li835 Li 0.73862 0.39443 0.5244 0.0
C836 C 0.79734 0.35856 0.51436 0.0
N837 N 0.8337 0.34281 0.50543 0.0
C838 C 0.81162 0.35627 0.52843 0.0
C839 C 0.80145 0.35259 0.49575 0.0
C840 C 0.82994 0.34836 0.52363 0.0
C841 C 0.81994 0.34473 0.49153 0.0
C842 C 0.77486 0.41089 0.55678 0.0
C843 C 0.78193 0.4349 0.58438 0.0
N844 N 0.80108 0.42899 0.58596 0.0
C845 C 0.79461 0.40509 0.55864 0.0
C846 C 0.76845 0.42595 0.5697 0.0
C847 C 0.80764 0.41441 0.57349 0.0
C848 C 0.79624 0.43248 0.51969 0.0
N849 N 0.79863 0.41282 0.51536 0.0
C850 C 0.83262 0.4206 0.50575 0.0
C851 C 0.81643 0.40672 0.50858 0.0
C852 C 0.83049 0.44104 0.5098 0.0
C853 C 0.81197 0.4469 0.51695 0.0
H854 H 0.78189 0.43697 0.52498 0.0
H855 H 0.81814 0.39113 0.50512 0.0
C856 C 0.77115 0.3414 0.55755 0.0
N857 N 0.7647 0.35992 0.55989 0.0
C858 C 0.77474 0.33174 0.57294 0.0
C859 C 0.7646 0.36026 0.59283 0.0
C860 C 0.76119 0.36935 0.57707 0.0
C861 C 0.77163 0.34125 0.59091 0.0
H862 H 0.7736 0.33418 0.54369 0.0
H863 H 0.7556 0.38387 0.57853 0.0
C864 C 0.76047 0.40595 0.48844 0.0
N865 N 0.77891 0.43195 0.46655 0.0
C866 C 0.75444 0.42515 0.48908 0.0
C867 C 0.77571 0.3999 0.4765 0.0
C868 C 0.76398 0.43809 0.47794 0.0
C869 C 0.7849 0.41328 0.4656 0.0
C870 C 0.72365 0.35431 0.53701 0.0
C871 C 0.72238 0.33355 0.53416 0.0
C872 C 0.71602 0.36417 0.55311 0.0
C873 C 0.71357 0.32297 0.54755 0.0
C874 C 0.70732 0.35306 0.56617 0.0
N875 N 0.7063 0.33287 0.56315 0.0
C876 C 0.75092 0.32572 0.48532 0.0
C877 C 0.74642 0.35058 0.46618 0.0
C878 C 0.74947 0.31103 0.46976 0.0
N879 N 0.74939 0.34504 0.48326 0.0
C880 C 0.74537 0.33648 0.45023 0.0
C881 C 0.74694 0.3163 0.45179 0.0
H882 H 0.75367 0.32178 0.49905 0.0
H883 H 0.74539 0.36605 0.4649 0.0
C884 C 0.72009 0.43014 0.53178 0.0
N885 N 0.7161 0.41003 0.52819 0.0
C886 C 0.70415 0.44215 0.53553 0.0
C887 C 0.68034 0.41252 0.5323 0.0
C888 C 0.69669 0.40109 0.52821 0.0
C889 C 0.68402 0.43332 0.53602 0.0
H890 H 0.73573 0.43681 0.53197 0.0
H891 H 0.69395 0.38507 0.52536 0.0
O892 O 0.77922 0.36611 0.5188 0.0
O893 O 0.76181 0.40201 0.54236 0.0
O894 O 0.75175 0.39327 0.49967 0.0
O895 O 0.73283 0.36498 0.52438 0.0
H896 H 0.80861 0.36049 0.54292 0.0
H897 H 0.79059 0.35415 0.48467 0.0
H898 H 0.84116 0.34657 0.53437 0.0
H899 H 0.82336 0.34016 0.47719 0.0
H900 H 0.77716 0.44654 0.59452 0.0
H901 H 0.79984 0.39362 0.54866 0.0
H902 H 0.75319 0.43062 0.5684 0.0
H903 H 0.82299 0.41007 0.5751 0.0
H904 H 0.84668 0.41532 0.5005 0.0
H905 H 0.80945 0.46244 0.52003 0.0
H906 H 0.78025 0.31715 0.5708 0.0
H907 H 0.76156 0.36798 0.60636 0.0
H908 H 0.7426 0.43005 0.49815 0.0
H909 H 0.78063 0.38514 0.4759 0.0
H910 H 0.75955 0.45303 0.47837 0.0
H911 H 0.79685 0.40885 0.45644 0.0
H912 H 0.72821 0.32568 0.5218 0.0
H913 H 0.71717 0.38025 0.55567 0.0
H914 H 0.71255 0.30689 0.54556 0.0
H915 H 0.70149 0.3605 0.57876 0.0
H916 H 0.75043 0.29574 0.47188 0.0
H917 H 0.74391 0.34156 0.43681 0.0
H918 H 0.7076 0.45813 0.53854 0.0
H919 H 0.66499 0.4052 0.53249 0.0
Li920 Li 0.64741 0.98708 0.75053 0.0
Li921 Li 0.62209 0.00821 0.76493 0.0
Li922 Li 0.62446 1.00076 0.73064 0.0
Li923 Li 0.65114 0.02328 0.74889 0.0
C924 C 0.61408 0.96296 0.75172 0.0
N925 N 0.61013 0.92406 0.75878 0.0
C926 C 0.60856 0.95863 0.76925 0.0
C927 C 0.61739 0.94752 0.73772 0.0
C928 C 0.60668 0.93886 0.77256 0.0
C929 C 0.61538 0.92794 0.74158 0.0
C930 C 0.66773 0.01621 0.78359 0.0
C931 C 0.68263 0.03814 0.81051 0.0
N932 N 0.70064 0.02989 0.80817 0.0
C933 C 0.68635 0.00786 0.78153 0.0
C934 C 0.66579 0.03138 0.79828 0.0
C935 C 0.70282 0.01502 0.79406 0.0
C936 C 0.67458 0.95721 0.74108 0.0
N937 N 0.66237 0.96512 0.75436 0.0
C938 C 0.67291 0.94332 0.77517 0.0
C939 C 0.66135 0.95852 0.77117 0.0
C940 C 0.68586 0.93496 0.76183 0.0
C941 C 0.68654 0.94204 0.74455 0.0
H942 H 0.67535 0.96294 0.72794 0.0
H943 H 0.65187 0.9654 0.78163 0.0
C944 C 0.58459 0.01647 0.78048 0.0
N945 N 0.60401 0.01264 0.78472 0.0
C946 C 0.57075 0.01983 0.7945 0.0
C947 C 0.59704 0.01488 0.81704 0.0
C948 C 0.61042 0.0117 0.80255 0.0
C949 C 0.57686 0.019 0.81311 0.0
H950 H 0.57985 0.01693 0.76615 0.0
H951 H 0.62587 0.00829 0.80548 0.0
C952 C 0.65664 0.99891 0.71037 0.0
N953 N 0.65873 0.99523 0.67213 0.0
C954 C 0.66322 0.0154 0.70185 0.0
C955 C 0.65132 0.98051 0.69947 0.0
C956 C 0.66413 0.01324 0.68249 0.0
C957 C 0.65241 0.97896 0.68015 0.0
C958 C 0.61346 0.04354 0.75298 0.0
C959 C 0.59569 0.0488 0.74456 0.0
C960 C 0.6225 0.05547 0.76884 0.0
C961 C 0.58722 0.06598 0.75222 0.0
C962 C 0.61357 0.07253 0.77608 0.0
N963 N 0.59626 0.07738 0.7677 0.0
C964 C 0.59573 0.98147 0.7017 0.0
C965 C 0.6106 0.01367 0.69812 0.0
C966 C 0.5841 0.9803 0.68501 0.0
N967 N 0.60869 0.99797 0.70781 0.0
C968 C 0.5995 0.01304 0.68131 0.0
C969 C 0.58601 0.99621 0.67456 0.0
H970 H 0.59435 0.96929 0.7098 0.0
H971 H 0.62076 0.02674 0.70352 0.0
C972 C 0.68956 0.04718 0.75351 0.0
N973 N 0.66946 0.04666 0.7481 0.0
C974 C 0.70298 0.06409 0.75253 0.0
C975 C 0.67502 0.07937 0.73964 0.0
C976 C 0.66213 0.0622 0.74096 0.0
C977 C 0.69573 0.08052 0.74557 0.0
H978 H 0.69532 0.03437 0.75826 0.0
H979 H 0.6463 0.0612 0.73603 0.0
O980 O 0.6164 0.98225 0.74833 0.0
O981 O 0.65132 0.00923 0.77161 0.0
O982 O 0.65521 1.00082 0.72927 0.0
O983 O 0.62181 0.02665 0.74579 0.0
H984 H 0.60594 0.97041 0.78024 0.0
H985 H 0.62165 0.95063 0.72407 0.0
H986 H 0.60253 0.93528 0.7861 0.0
H987 H 0.61803 0.91585 0.73092 0.0
H988 H 0.68135 0.0499 0.82191 0.0
H989 H 0.68823 0.99622 0.77019 0.0
H990 H 0.65143 0.03783 0.80028 0.0
H991 H 0.71736 0.00879 0.79255 0.0
H992 H 0.6722 0.93861 0.78881 0.0
H993 H 0.69624 0.93598 0.73384 0.0
H994 H 0.55548 0.02324 0.7908 0.0
H995 H 0.60235 0.0138 0.8311 0.0
H996 H 0.66742 0.02975 0.71007 0.0
H997 H 0.64618 0.96761 0.70584 0.0
H998 H 0.66908 0.0259 0.67569 0.0
H999 H 0.64819 0.96484 0.67153 0.0
H1000 H 0.5885 0.03967 0.73228 0.0
H1001 H 0.6363 0.05162 0.77543 0.0
H1002 H 0.57345 0.07024 0.74588 0.0
H1003 H 0.62041 0.08191 0.78836 0.0
H1004 H 0.57392 0.96704 0.68023 0.0
H1005 H 0.60121 0.02574 0.67383 0.0
H1006 H 0.71896 0.06412 0.7568 0.0
H1007 H 0.66877 0.09166 0.73418 0.0
Li1008 Li 0.04561 0.22592 0.86762 0.0
Li1009 Li 0.02785 0.24535 0.89348 0.0
Li1010 Li 0.0298 0.20797 0.89061 0.0
Li1011 Li 0.00872 0.22161 0.86932 0.0
C1012 C 0.07301 0.23555 0.89601 0.0
N1013 N 0.11459 0.24711 0.89697 0.0
C1014 C 0.08057 0.25492 0.90354 0.0
C1015 C 0.08663 0.22201 0.88912 0.0
C1016 C 0.10164 0.26048 0.90387 0.0
C1017 C 0.10759 0.22816 0.88967 0.0
C1018 C 0.01749 0.25357 0.8522 0.0
C1019 C 0.99532 0.2757 0.84037 0.0
N1020 N 0.99805 0.26701 0.82273 0.0
C1021 C 0.02019 0.24493 0.83396 0.0
C1022 C 0.00505 0.26914 0.85547 0.0
C1023 C 0.01018 0.25191 0.81924 0.0
C1024 C 0.07168 0.21376 0.83845 0.0
N1025 N 0.06757 0.22908 0.85138 0.0
C1026 C 0.09534 0.25 0.84182 0.0
C1027 C 0.0787 0.2471 0.85298 0.0
C1028 C 0.1004 0.23427 0.82869 0.0
C1029 C 0.08816 0.21601 0.82695 0.0
H1030 H 0.06216 0.19981 0.83701 0.0
H1031 H 0.07482 0.25913 0.86317 0.0
C1032 C 0.02252 0.27119 0.92695 0.0
N1033 N 0.02844 0.27006 0.90909 0.0
C1034 C 0.02265 0.28969 0.938 0.0
C1035 C 0.03546 0.30535 0.91218 0.0
C1036 C 0.03491 0.28661 0.90161 0.0
C1037 C 0.02922 0.30708 0.93061 0.0
H1038 H 0.01754 0.25772 0.93254 0.0
H1039 H 0.03962 0.28522 0.88739 0.0
C1040 C 0.0263 0.18058 0.86153 0.0
N1041 N 0.02397 0.13966 0.85943 0.0
C1042 C 0.00727 0.16951 0.86142 0.0
C1043 C 0.04413 0.17081 0.86035 0.0
C1044 C 0.00641 0.14884 0.86041 0.0
C1045 C 0.04265 0.15013 0.85937 0.0
C1046 C 0.98556 0.22241 0.8993 0.0
C1047 C 0.97389 0.20403 0.89511 0.0
C1048 C 0.97601 0.23925 0.90615 0.0
C1049 C 0.9528 0.20285 0.89753 0.0
C1050 C 0.95487 0.23746 0.9084 0.0
N1051 N 0.9438 0.21946 0.90406 0.0
C1052 C 0.05085 0.17871 0.90549 0.0
C1053 C 0.01821 0.18284 0.91761 0.0
C1054 C 0.05447 0.16501 0.91753 0.0
N1055 N 0.03299 0.18736 0.90573 0.0
C1056 C 0.02125 0.16931 0.93004 0.0
C1057 C 0.03974 0.16041 0.93033 0.0
H1058 H 0.06253 0.18272 0.8962 0.0
H1059 H 0.00435 0.19026 0.91794 0.0
C1060 C 0.98282 0.20587 0.83767 0.0
N1061 N 0.98416 0.21898 0.85366 0.0
C1062 C 0.96635 0.20527 0.82483 0.0
C1063 C 0.95289 0.23159 0.84517 0.0
C1064 C 0.96967 0.23179 0.8575 0.0
C1065 C 0.95114 0.21837 0.82843 0.0
H1066 H 0.99494 0.19638 0.83455 0.0
H1067 H 0.97152 0.24276 0.86978 0.0
O1068 O 0.05238 0.22993 0.89534 0.0
O1069 O 0.02662 0.24651 0.86681 0.0
O1070 O 0.02746 0.20087 0.86274 0.0
O1071 O 0.00624 0.22388 0.89699 0.0
H1072 H 0.07031 0.26556 0.90905 0.0
H1073 H 0.08107 0.20708 0.88295 0.0
H1074 H 0.10768 0.27544 0.9096 0.0
H1075 H 0.11826 0.21789 0.88419 0.0
H1076 H 0.98552 0.28764 0.84268 0.0
H1077 H 0.02966 0.23277 0.83123 0.0
H1078 H 1.00269 0.27587 0.86953 0.0
H1079 H 0.01199 0.24527 0.80506 0.0
H1080 H 0.10441 0.26428 0.84377 0.0
H1081 H 0.09121 0.20361 0.81675 0.0
H1082 H 0.01787 0.29038 0.95219 0.0
H1083 H 0.0404 0.31837 0.90586 0.0
H1084 H 0.99329 0.17675 0.86205 0.0
H1085 H 0.05902 0.17911 0.86056 0.0
H1086 H 0.99178 0.14011 0.86037 0.0
H1087 H 0.05635 0.1424 0.85864 0.0
H1088 H 0.98106 0.1908 0.89009 0.0
H1089 H 0.98474 0.25362 0.90939 0.0
H1090 H 0.94359 0.18873 0.89426 0.0
H1091 H 0.94726 0.2504 0.91355 0.0
H1092 H 0.06885 0.15838 0.91704 0.0
H1093 H 0.0096 0.16654 0.93985 0.0
H1094 H 0.96594 0.19511 0.81196 0.0
H1095 H 0.94153 0.24189 0.84867 0.0
Li1096 Li 0.54475 0.72584 0.36841 0.0
Li1097 Li 0.52788 0.74615 0.39292 0.0
Li1098 Li 0.5286 0.70919 0.392 0.0
Li1099 Li 0.50724 0.72198 0.36947 0.0
C1100 C 0.57248 0.73387 0.3957 0.0
N1101 N 0.6146 0.74034 0.39456 0.0
C1102 C 0.58206 0.75326 0.39776 0.0
C1103 C 0.58433 0.71777 0.3933 0.0
C1104 C 0.60337 0.75622 0.39709 0.0
C1105 C 0.6056 0.72135 0.39269 0.0
C1106 C 0.514 0.75988 0.35983 0.0
C1107 C 0.48632 0.78078 0.36405 0.0
N1108 N 0.49017 0.78719 0.34746 0.0
C1109 C 0.51767 0.76664 0.34282 0.0
C1110 C 0.4982 0.76696 0.37055 0.0
C1111 C 0.50546 0.78048 0.33681 0.0
C1112 C 0.57355 0.711 0.34276 0.0
N1113 N 0.56703 0.72759 0.35241 0.0
C1114 C 0.59303 0.74824 0.33999 0.0
C1115 C 0.57617 0.74601 0.35104 0.0
C1116 C 0.6004 0.73136 0.33006 0.0
C1117 C 0.59028 0.71255 0.33144 0.0
H1118 H 0.56579 0.69658 0.34385 0.0
H1119 H 0.57053 0.75895 0.35878 0.0
C1120 C 0.5218 0.77265 0.42547 0.0
N1121 N 0.52911 0.77123 0.40808 0.0
C1122 C 0.52205 0.79121 0.43641 0.0
C1123 C 0.53775 0.80635 0.41146 0.0
C1124 C 0.53712 0.78754 0.40099 0.0
C1125 C 0.53008 0.80838 0.4294 0.0
H1126 H 0.51574 0.75936 0.4308 0.0
H1127 H 0.54288 0.78594 0.38713 0.0
C1128 C 0.52479 0.68066 0.36202 0.0
N1129 N 0.52208 0.63959 0.35724 0.0
C1130 C 0.50626 0.66956 0.35583 0.0
C1131 C 0.542 0.67087 0.36556 0.0
C1132 C 0.50519 0.64881 0.35355 0.0
C1133 C 0.5403 0.6501 0.36313 0.0
C1134 C 0.48682 0.71839 0.40255 0.0
C1135 C 0.47912 0.69884 0.39597 0.0
C1136 C 0.47523 0.73044 0.41438 0.0
C1137 C 0.46003 0.69152 0.4015 0.0
C1138 C 0.45619 0.72259 0.41959 0.0
N1139 N 0.44905 0.70345 0.41311 0.0
C1140 C 0.54575 0.69577 0.42274 0.0
C1141 C 0.52089 0.67145 0.4068 0.0
C1142 C 0.54989 0.68321 0.43571 0.0
N1143 N 0.53163 0.68972 0.40851 0.0
C1144 C 0.52454 0.65834 0.41953 0.0
C1145 C 0.53935 0.66413 0.43416 0.0
H1146 H 0.55382 0.71047 0.4241 0.0
H1147 H 0.50959 0.66688 0.39553 0.0
C1148 C 0.48421 0.71184 0.33582 0.0
N1149 N 0.48278 0.71921 0.35405 0.0
C1150 C 0.46765 0.71166 0.32319 0.0
C1151 C 0.44841 0.72657 0.34836 0.0
C1152 C 0.46532 0.72644 0.36049 0.0
C1153 C 0.44952 0.71935 0.32937 0.0
H1154 H 0.49846 0.70663 0.33101 0.0
H1155 H 0.4647 0.73275 0.37491 0.0
O1156 O 0.5516 0.73065 0.39581 0.0
O1157 O 0.52562 0.7461 0.36574 0.0
O1158 O 0.52614 0.701 0.36423 0.0
O1159 O 0.50526 0.72599 0.39697 0.0
H1160 H 0.57312 0.76587 0.39965 0.0
H1161 H 0.57718 0.70269 0.39186 0.0
H1162 H 0.61098 0.77114 0.39852 0.0
H1163 H 0.61495 0.70903 0.39072 0.0
H1164 H 0.47401 0.78635 0.37217 0.0
H1165 H 0.52981 0.76121 0.33435 0.0
H1166 H 0.49501 0.76172 0.38366 0.0
H1167 H 0.50812 0.78585 0.32367 0.0
H1168 H 0.60045 0.76302 0.33958 0.0
H1169 H 0.59515 0.69914 0.32379 0.0
H1170 H 0.5162 0.79209 0.45025 0.0
H1171 H 0.54382 0.81919 0.4054 0.0
H1172 H 0.49281 0.67687 0.35288 0.0
H1173 H 0.55646 0.6792 0.3703 0.0
H1174 H 0.49092 0.64004 0.34887 0.0
H1175 H 0.55346 0.64234 0.36595 0.0
H1176 H 0.48766 0.68953 0.38647 0.0
H1177 H 0.48079 0.74574 0.41935 0.0
H1178 H 0.4539 0.67639 0.39648 0.0
H1179 H 0.44705 0.73174 0.42874 0.0
H1180 H 0.56107 0.68854 0.447 0.0
H1181 H 0.51607 0.64377 0.41778 0.0
H1182 H 0.46931 0.70622 0.30865 0.0
H1183 H 0.43469 0.73248 0.35377 0.0
Li1184 Li 0.01811 0.78124 0.63981 0.0
Li1185 Li 0.99511 0.76707 0.66424 0.0
Li1186 Li 0.03136 0.76161 0.6625 0.0
Li1187 Li 0.00778 0.74583 0.63822 0.0
C1188 C 0.03375 0.79741 0.6805 0.0
N1189 N 0.06376 0.81547 0.70648 0.0
C1190 C 0.03202 0.79528 0.69927 0.0
C1191 C 0.05064 0.80882 0.67494 0.0
C1192 C 0.04739 0.8045 0.71219 0.0
C1193 C 0.06567 0.81782 0.68829 0.0
C1194 C 0.97658 0.75915 0.62237 0.0
C1195 C 0.94633 0.73799 0.61019 0.0
N1196 N 0.95148 0.74052 0.59261 0.0
C1197 C 0.98148 0.7617 0.60421 0.0
C1198 C 0.95879 0.74734 0.62543 0.0
C1199 C 0.96863 0.7521 0.58934 0.0
C1200 C 0.03412 0.79652 0.6093 0.0
N1201 N 0.02453 0.80201 0.62523 0.0
C1202 C 0.02614 0.83571 0.61904 0.0
C1203 C 0.02036 0.82114 0.63026 0.0
C1204 C 0.03647 0.83049 0.60267 0.0
C1205 C 0.04028 0.81054 0.59781 0.0
H1206 H 0.03701 0.78117 0.60553 0.0
H1207 H 0.01274 0.8251 0.64304 0.0
C1208 C 0.97611 0.76476 0.6978 0.0
N1209 N 0.97389 0.7716 0.68121 0.0
C1210 C 0.96094 0.76664 0.71079 0.0
C1211 C 0.94166 0.78316 0.68964 0.0
C1212 C 0.95714 0.78071 0.67692 0.0
C1213 C 0.94337 0.77599 0.70687 0.0
H1214 H 0.98956 0.75747 0.7008 0.0
H1215 H 0.95579 0.78602 0.6636 0.0
C1216 C 0.05023 0.74672 0.63102 0.0
N1217 N 0.0805 0.72176 0.6225 0.0
C1218 C 0.04873 0.72775 0.63635 0.0
C1219 C 0.06715 0.75302 0.62136 0.0
C1220 C 0.06417 0.71534 0.63191 0.0
C1221 C 0.0823 0.74018 0.61718 0.0
C1222 C 0.99859 0.7247 0.6689 0.0
C1223 C 0.01034 0.70964 0.67302 0.0
C1224 C 0.97723 0.72189 0.66942 0.0
C1225 C 1.0005 0.69188 0.67729 0.0
C1226 C 0.96798 0.70393 0.67379 0.0
N1227 N 0.9797 0.68941 0.67758 0.0
C1228 C 0.07383 0.76564 0.67202 0.0
C1229 C 0.05322 0.74954 0.69279 0.0
C1230 C 0.09161 0.76268 0.6819 0.0
N1231 N 0.05516 0.75877 0.67739 0.0
C1232 C 0.07064 0.7464 0.7032 0.0
C1233 C 0.09017 0.75269 0.69756 0.0
H1234 H 0.07491 0.77326 0.65993 0.0
H1235 H 0.03815 0.74439 0.69683 0.0
C1236 C 0.01053 0.72412 0.60281 0.0
N1237 N 1.00166 0.72283 0.61934 0.0
C1238 C 0.00752 0.70836 0.58823 0.0
C1239 C 0.98599 0.69019 0.60773 0.0
C1240 C 0.98937 0.70634 0.62192 0.0
C1241 C 0.99519 0.69102 0.59062 0.0
H1242 H 0.02 0.73746 0.60091 0.0
H1243 H 0.982 0.70563 0.63485 0.0
O1244 O 0.01925 0.78797 0.66756 0.0
O1245 O 0.98935 0.76788 0.63705 0.0
O1246 O 0.03546 0.75928 0.6355 0.0
O1247 O 0.00804 0.74234 0.66507 0.0
H1248 H 0.01909 0.7864 0.70376 0.0
H1249 H 0.05224 0.8105 0.66043 0.0
H1250 H 0.04634 0.80287 0.72675 0.0
H1251 H 0.07889 0.82661 0.68418 0.0
H1252 H 0.93258 0.7287 0.61233 0.0
H1253 H 0.99522 0.77077 0.60162 0.0
H1254 H 0.9547 0.74535 0.63941 0.0
H1255 H 0.97233 0.75379 0.57519 0.0
H1256 H 0.02298 0.85093 0.62332 0.0
H1257 H 0.04783 0.80576 0.58515 0.0
H1258 H 0.96287 0.76046 0.72361 0.0
H1259 H 0.92861 0.79073 0.68604 0.0
H1260 H 0.03576 0.72264 0.64381 0.0
H1261 H 0.06867 0.76774 0.61727 0.0
H1262 H 0.06317 0.70061 0.63595 0.0
H1263 H 0.0955 0.74488 0.60975 0.0
H1264 H 0.0269 0.71164 0.673 0.0
H1265 H 0.96785 0.7333 0.66626 0.0
H1266 H 0.00941 0.68007 0.68043 0.0
H1267 H 0.95147 0.70153 0.67413 0.0
H1268 H 0.10636 0.76808 0.67728 0.0
H1269 H 0.06888 0.7386 0.71516 0.0
H1270 H 0.01501 0.70966 0.57532 0.0
H1271 H 0.97603 0.67728 0.61007 0.0
Li1272 Li 0.51745 0.28167 0.14231 0.0
Li1273 Li 0.49424 0.26755 0.16664 0.0
Li1274 Li 0.53047 0.26175 0.16489 0.0
Li1275 Li 0.5068 0.24627 0.14057 0.0
C1276 C 0.53316 0.29737 0.18315 0.0
N1277 N 0.56328 0.31466 0.20933 0.0
C1278 C 0.53106 0.29537 0.2019 0.0
C1279 C 0.55048 0.30825 0.17769 0.0
C1280 C 0.54649 0.3042 0.21493 0.0
C1281 C 0.56556 0.31686 0.19115 0.0
C1282 C 0.47532 0.25955 0.12527 0.0
C1283 C 0.4447 0.23833 0.11428 0.0
N1284 N 0.44917 0.24046 0.09646 0.0
C1285 C 0.47953 0.26169 0.10687 0.0
C1286 C 0.4577 0.24792 0.12906 0.0
C1287 C 0.46614 0.25185 0.09248 0.0
C1288 C 0.53239 0.29658 0.11127 0.0
N1289 N 0.52397 0.30238 0.12774 0.0
C1290 C 0.52672 0.33623 0.12193 0.0
C1291 C 0.52095 0.32175 0.13324 0.0
C1292 C 0.53583 0.33066 0.10497 0.0
C1293 C 0.53847 0.31049 0.09966 0.0
H1294 H 0.53441 0.28105 0.10718 0.0
H1295 H 0.51425 0.32595 0.14645 0.0
C1296 C 0.47448 0.26516 0.19996 0.0
N1297 N 0.47284 0.27209 0.18334 0.0
C1298 C 0.45889 0.26705 0.21253 0.0
C1299 C 0.44049 0.28385 0.19098 0.0
C1300 C 0.45635 0.28138 0.17867 0.0
C1301 C 0.44158 0.27644 0.20809 0.0
H1302 H 0.48782 0.25788 0.20331 0.0
H1303 H 0.45544 0.28669 0.16532 0.0
C1304 C 0.5494 0.24726 0.13303 0.0
N1305 N 0.57984 0.22275 0.12363 0.0
C1306 C 0.54815 0.2281 0.13792 0.0
C1307 C 0.56612 0.25397 0.12334 0.0
C1308 C 0.56368 0.21592 0.13305 0.0
C1309 C 0.58136 0.24135 0.11872 0.0
C1310 C 0.49817 0.22488 0.1713 0.0
C1311 C 0.51053 0.21008 0.17495 0.0
C1312 C 0.47691 0.22157 0.17243 0.0
C1313 C 0.50137 0.19208 0.17931 0.0
C1314 C 0.46835 0.20338 0.17687 0.0
N1315 N 0.48065 0.18913 0.18017 0.0
C1316 C 0.55162 0.2496 0.19543 0.0
C1317 C 0.573 0.26452 0.17446 0.0
C1318 C 0.56873 0.24593 0.20596 0.0
N1319 N 0.55407 0.25845 0.17986 0.0
C1320 C 0.59049 0.26098 0.18444 0.0
C1321 C 0.58849 0.2513 0.20026 0.0
H1322 H 0.53636 0.24513 0.1995 0.0
H1323 H 0.57451 0.27191 0.16226 0.0
C1324 C 0.5093 0.22446 0.10516 0.0
N1325 N 0.50044 0.22334 0.12172 0.0
C1326 C 0.50607 0.20867 0.09063 0.0
C1327 C 0.48433 0.19084 0.11024 0.0
C1328 C 0.48791 0.20703 0.12437 0.0
C1329 C 0.49356 0.19149 0.09312 0.0
H1330 H 0.51891 0.2377 0.1032 0.0
H1331 H 0.48051 0.2065 0.1373 0.0
O1332 O 0.51859 0.28827 0.1701 0.0
O1333 O 0.48861 0.2685 0.13948 0.0
O1334 O 0.5345 0.25955 0.13786 0.0
O1335 O 0.50694 0.24275 0.16738 0.0
H1336 H 0.51778 0.28689 0.20631 0.0
H1337 H 0.55236 0.30979 0.16318 0.0
H1338 H 0.54516 0.30267 0.22949 0.0
H1339 H 0.57911 0.32523 0.18713 0.0
H1340 H 0.43107 0.22918 0.11699 0.0
H1341 H 0.49313 0.27062 0.10372 0.0
H1342 H 0.45418 0.24623 0.14323 0.0
H1343 H 0.46929 0.25322 0.07816 0.0
H1344 H 0.52449 0.35163 0.12658 0.0
H1345 H 0.54506 0.30546 0.08656 0.0
H1346 H 0.46044 0.26135 0.22566 0.0
H1347 H 0.42734 0.2911 0.18701 0.0
H1348 H 0.53529 0.22267 0.14533 0.0
H1349 H 0.56739 0.26882 0.11954 0.0
H1350 H 0.56289 0.20105 0.13674 0.0
H1351 H 0.59442 0.24637 0.11127 0.0
H1352 H 0.52703 0.21248 0.17452 0.0
H1353 H 0.46708 0.23278 0.16968 0.0
H1354 H 0.51075 0.18049 0.1821 0.0
H1355 H 0.45192 0.20059 0.17766 0.0
H1356 H 0.56654 0.23839 0.21804 0.0
H1357 H 0.60545 0.26568 0.17978 0.0
H1358 H 0.51356 0.20981 0.07769 0.0
H1359 H 0.47422 0.17806 0.11263 0.0
H1360 H 0.26142 0.76698 0.83717 0.0
H1361 H 0.23916 0.77727 0.9457 0.0
H1362 H 0.25116 0.71624 0.86643 0.0
H1363 H 0.25701 0.82673 0.91648 0.0
H1364 H 0.24168 0.75454 0.91684 0.0
H1365 H 0.2576 0.78888 0.86599 0.0
C1366 C 0.25811 0.7604 0.84963 0.0
C1367 C 0.25639 0.73969 0.84929 0.0
C1368 C 0.24498 0.77038 0.91677 0.0
C1369 C 0.25235 0.76485 0.88262 0.0
C1370 C 0.24362 0.78338 0.93326 0.0
C1371 C 0.2478 0.80403 0.93358 0.0
C1372 C 0.25051 0.77805 0.90045 0.0
C1373 C 0.25325 0.81102 0.91692 0.0
C1374 C 0.25611 0.77296 0.86616 0.0
C1375 C 0.25266 0.73212 0.86605 0.0
N1376 N 0.25444 0.79809 0.90111 0.0
N1377 N 0.25071 0.7447 0.88204 0.0
H1378 H 1.00208 0.53087 0.40846 0.0
H1379 H 0.06074 0.56003 0.31966 0.0
H1380 H 0.99519 0.58429 0.38419 0.0
H1381 H 0.07098 0.50757 0.34441 0.0
H1382 H 0.03832 0.56999 0.34466 0.0
H1383 H 0.0294 0.52318 0.38706 0.0
C1384 C 0.00655 0.54114 0.39885 0.0
C1385 C 0.99619 0.55812 0.39794 0.0
C1386 C 0.04551 0.55633 0.34473 0.0
C1387 C 0.02717 0.54933 0.37331 0.0
C1388 C 0.05823 0.55057 0.33036 0.0
C1389 C 0.06758 0.53283 0.32981 0.0
C1390 C 0.04194 0.54423 0.35869 0.0
C1391 C 0.06412 0.52139 0.3443 0.0
C1392 C 0.02204 0.53668 0.38656 0.0
C1393 C 1.00251 0.57084 0.38514 0.0
N1394 N 0.05143 0.5272 0.35808 0.0
N1395 N 0.01743 0.56611 0.37326 0.0
H1396 H 0.84964 0.75684 0.84581 0.0
H1397 H 0.77465 0.71305 0.91824 0.0
H1398 H 0.78501 0.76425 0.84689 0.0
H1399 H 0.83691 0.69817 0.91225 0.0
H1400 H 0.77842 0.73212 0.89231 0.0
H1401 H 0.84552 0.7354 0.87009 0.0
C1402 C 0.83453 0.75379 0.85097 0.0
C1403 C 0.81766 0.76247 0.84429 0.0
C1404 C 0.79125 0.72464 0.89662 0.0
C1405 C 0.81292 0.73817 0.87237 0.0
C1406 C 0.78908 0.71362 0.9114 0.0
C1407 C 0.80546 0.70389 0.91751 0.0
C1408 C 0.80999 0.7261 0.88784 0.0
C1409 C 0.82392 0.70561 0.90825 0.0
C1410 C 0.83222 0.74164 0.86494 0.0
C1411 C 0.79853 0.75819 0.85178 0.0
N1412 N 0.82569 0.71652 0.89393 0.0
N1413 N 0.79671 0.74645 0.86544 0.0
H1414 H 0.02285 0.9685 0.45274 0.0
H1415 H 0.01846 0.0115 0.3554 0.0
H1416 H 0.07541 0.99367 0.42671 0.0
H1417 H 0.96449 0.98751 0.38029 0.0
H1418 H 0.03936 1.0046 0.38163 0.0
H1419 H 1.0009 0.9748 0.42651 0.0
C1420 C 0.02974 0.97536 0.44156 0.0
C1421 C 0.05095 0.98083 0.44207 0.0
C1422 C 0.02294 1.00083 0.38141 0.0
C1423 C 0.02606 0.98802 0.41209 0.0
C1424 C 0.011 1.00467 0.36634 0.0
C1425 C 0.98968 1.00003 0.36557 0.0
C1426 C 0.01357 0.99224 0.39592 0.0
C1427 C 0.98085 0.99152 0.38039 0.0
C1428 C 0.01724 0.979 0.42663 0.0
C1429 C 0.05909 0.98964 0.42717 0.0
N1430 N 0.99284 0.98786 0.39495 0.0
N1431 N 0.04667 0.99295 0.41287 0.0
H1432 H 0.28008 0.24031 0.69375 0.0
H1433 H 0.28236 0.24303 0.58396 0.0
H1434 H 0.26971 0.29267 0.6688 0.0
H1435 H 0.28629 0.19006 0.60976 0.0
H1436 H 0.27859 0.2619 0.61473 0.0
H1437 H 0.28262 0.22196 0.66289 0.0
C1438 C 0.27804 0.24792 0.68178 0.0
C1439 C 0.27449 0.26808 0.68395 0.0
C1440 C 0.28022 0.24614 0.61362 0.0
C1441 C 0.27794 0.24713 0.64837 0.0
C1442 C 0.2825 0.23539 0.59609 0.0
C1443 C 0.28454 0.2149 0.59426 0.0
C1444 C 0.28012 0.23635 0.62944 0.0
C1445 C 0.28442 0.20574 0.61044 0.0
C1446 C 0.27969 0.23744 0.66411 0.0
C1447 C 0.27261 0.27721 0.66783 0.0
N1448 N 0.28228 0.21652 0.62729 0.0
N1449 N 0.27439 0.26668 0.65072 0.0
H1450 H 0.51289 0.54832 0.60309 0.0
H1451 H 0.50572 0.50815 0.70142 0.0
H1452 H 0.56028 0.51775 0.6262 0.0
H1453 H 0.46647 0.55007 0.68349 0.0
H1454 H 0.52425 0.50894 0.67284 0.0
H1455 H 0.49371 0.54604 0.63112 0.0
C1456 C 0.51927 0.54109 0.61403 0.0
C1457 C 0.53833 0.53333 0.61227 0.0
C1458 C 0.51157 0.51795 0.67518 0.0
C1459 C 0.5163 0.53053 0.64441 0.0
C1460 C 0.50105 0.51764 0.69159 0.0
C1461 C 0.48445 0.52909 0.69499 0.0
C1462 C 0.50541 0.52968 0.66196 0.0
C1463 C 0.47892 0.54074 0.68143 0.0
C1464 C 0.50827 0.53977 0.63003 0.0
C1465 C 0.54558 0.52377 0.6268 0.0
N1466 N 0.48933 0.5407 0.66555 0.0
N1467 N 0.5346 0.52271 0.64227 0.0
H1468 H 0.77513 0.25969 0.67289 0.0
H1469 H 0.78977 0.35848 0.62443 0.0
H1470 H 0.79775 0.3176 0.70158 0.0
H1471 H 0.76321 0.30195 0.59545 0.0
H1472 H 0.7954 0.34282 0.65212 0.0
H1473 H 0.77379 0.27381 0.64358 0.0
C1474 C 0.78006 0.2753 0.67297 0.0
C1475 C 0.78634 0.28755 0.68972 0.0
C1476 C 0.7884 0.33378 0.63971 0.0
C1477 C 0.7847 0.3038 0.65637 0.0
C1478 C 0.78504 0.34277 0.6239 0.0
C1479 C 0.77581 0.33158 0.60761 0.0
C1480 C 0.78246 0.31341 0.63934 0.0
C1481 C 0.77047 0.31114 0.60766 0.0
C1482 C 0.77917 0.28337 0.65628 0.0
C1483 C 0.79246 0.30769 0.68905 0.0
N1484 N 0.77377 0.30274 0.62331 0.0
N1485 N 0.79138 0.31518 0.67271 0.0
H1486 H 0.54915 1.0002 0.55991 0.0
H1487 H 0.54516 0.98418 0.66686 0.0
H1488 H 0.49233 0.99311 0.5877 0.0
H1489 H 0.59965 0.00655 0.64173 0.0
H1490 H 0.52566 0.98405 0.63741 0.0
H1491 H 0.56802 0.99931 0.58925 0.0
C1492 C 0.54063 0.9983 0.57219 0.0
C1493 C 0.51913 0.99658 0.57134 0.0
C1494 C 0.54188 0.98899 0.63837 0.0
C1495 C 0.54068 0.99569 0.60508 0.0
C1496 C 0.55303 0.98893 0.65511 0.0
C1497 C 0.57404 0.99543 0.65674 0.0
C1498 C 0.55188 0.99535 0.62311 0.0
C1499 C 0.58344 1.00162 0.64114 0.0
C1500 C 0.55142 0.99794 0.58897 0.0
C1501 C 0.50891 0.99454 0.58778 0.0
N1502 N 0.57232 1.00137 0.62499 0.0
N1503 N 0.51978 0.99406 0.60398 0.0
H1504 H 0.84587 0.25096 0.76938 0.0
H1505 H 0.93003 0.18677 0.80588 0.0
H1506 H 0.8529 0.19086 0.74446 0.0
H1507 H 0.93286 0.25066 0.81938 0.0
H1508 H 0.90133 0.1877 0.78382 0.0
H1509 H 0.87744 0.25109 0.78805 0.0
C1510 C 0.85419 0.23789 0.76755 0.0
C1511 C 0.84657 0.22084 0.7553 0.0
C1512 C 0.90831 0.20152 0.79156 0.0
C1513 C 0.88256 0.22073 0.77715 0.0
C1514 C 0.92476 0.20102 0.80414 0.0
C1515 C 0.93387 0.21865 0.81467 0.0
C1516 C 0.90075 0.21975 0.78957 0.0
C1517 C 0.9261 0.23662 0.81193 0.0
C1518 C 0.87217 0.23793 0.77838 0.0
C1519 C 0.85793 0.20423 0.75394 0.0
N1520 N 0.90994 0.23669 0.79976 0.0
N1521 N 0.87523 0.20453 0.76484 0.0
H1522 H 0.55732 0.93319 0.46872 0.0
H1523 H 0.49986 0.82331 0.45098 0.0
H1524 H 0.49674 0.91856 0.48736 0.0
H1525 H 0.56058 0.83906 0.4331 0.0
H1526 H 0.49958 0.85717 0.46726 0.0
H1527 H 0.56001 0.89796 0.45858 0.0
C1528 C 0.54463 0.92249 0.47079 0.0
C1529 C 0.52669 0.9288 0.47868 0.0
C1530 C 0.51302 0.85317 0.45989 0.0
C1531 C 0.52958 0.88838 0.46701 0.0
C1532 C 0.51323 0.83381 0.45066 0.0
C1533 C 0.5302 0.82838 0.4405 0.0
C1534 C 0.5299 0.8672 0.45895 0.0
C1535 C 0.54701 0.84267 0.44044 0.0
C1536 C 0.54617 0.90237 0.46503 0.0
C1537 C 0.51085 0.9143 0.48134 0.0
N1538 N 0.54638 0.86141 0.44941 0.0
N1539 N 0.51255 0.89476 0.47531 0.0
H1540 H 0.21633 0.21931 0.77835 0.0
H1541 H 0.11453 0.26677 0.81243 0.0
H1542 H 0.20465 0.27945 0.77271 0.0
H1543 H 0.12812 0.20734 0.81912 0.0
H1544 H 0.14586 0.27093 0.79539 0.0
H1545 H 0.18227 0.21371 0.79034 0.0
C1546 C 0.2065 0.23131 0.77953 0.0
C1547 C 0.21341 0.24994 0.77474 0.0
C1548 C 0.1419 0.25693 0.80047 0.0
C1549 C 0.17435 0.24369 0.78855 0.0
C1550 C 0.12407 0.25458 0.81031 0.0
C1551 C 0.11869 0.2367 0.81732 0.0
C1552 C 0.15449 0.24131 0.79766 0.0
C1553 C 0.13148 0.22131 0.81383 0.0
C1554 C 0.18704 0.2281 0.78636 0.0
C1555 C 0.19991 0.26485 0.77623 0.0
N1556 N 0.1488 0.22403 0.80436 0.0
N1557 N 0.18109 0.26147 0.78321 0.0
H1558 H 0.59625 0.61987 0.52585 0.0
H1559 H 0.51217 0.63933 0.45059 0.0
H1560 H 0.5341 0.59266 0.5234 0.0
H1561 H 0.57668 0.65823 0.44927 0.0
H1562 H 0.51987 0.61989 0.47551 0.0
H1563 H 0.58965 0.63166 0.49616 0.0
C1564 C 0.58128 0.61615 0.51884 0.0
C1565 C 0.56567 0.60538 0.52703 0.0
C1566 C 0.53234 0.62814 0.46962 0.0
C1567 C 0.55776 0.61918 0.49323 0.0
C1568 C 0.52797 0.63919 0.45534 0.0
C1569 C 0.54377 0.65069 0.44799 0.0
C1570 C 0.55265 0.62864 0.47662 0.0
C1571 C 0.56393 0.65 0.4548 0.0
C1572 C 0.57747 0.62289 0.50191 0.0
C1573 C 0.54654 0.60088 0.51744 0.0
N1574 N 0.56775 0.63936 0.4688 0.0
N1575 N 0.543 0.60807 0.50114 0.0
H1576 H 0.87529 0.77756 0.80714 0.0
H1577 H 0.90148 0.77455 0.70028 0.0
H1578 H 0.83216 0.7916 0.76594 0.0
H1579 H 0.94768 0.78213 0.74514 0.0
H1580 H 0.87508 0.77722 0.72329 0.0
H1581 H 0.90111 0.77478 0.78362 0.0
C1582 C 0.8712 0.77987 0.79308 0.0
C1583 C 0.85153 0.78476 0.78847 0.0
C1584 C 0.89102 0.77831 0.72803 0.0
C1585 C 0.88107 0.78172 0.76148 0.0
C1586 C 0.90617 0.77692 0.71491 0.0
C1587 C 0.92698 0.77804 0.72066 0.0
C1588 C 0.89665 0.78059 0.74708 0.0
C1589 C 0.9319 0.78073 0.7399 0.0
C1590 C 0.88599 0.77844 0.7797 0.0
C1591 C 0.84718 0.78789 0.77009 0.0
N1592 N 0.91689 0.7818 0.75236 0.0
N1593 N 0.86181 0.78624 0.75722 0.0
H1594 H 0.10127 0.88754 0.52044 0.0
H1595 H 0.01568 0.86047 0.59144 0.0
H1596 H 0.0437 0.91335 0.52295 0.0
H1597 H 0.0733 0.83481 0.58644 0.0
H1598 H 0.02687 0.88311 0.56936 0.0
H1599 H 0.09278 0.87168 0.54771 0.0
C1600 C 0.08693 0.89007 0.52696 0.0
C1601 C 0.0731 0.90163 0.51939 0.0
C1602 C 0.03711 0.87263 0.57324 0.0
C1603 C 0.063 0.88318 0.55048 0.0
C1604 C 0.03077 0.85976 0.58589 0.0
C1605 C 0.04347 0.84554 0.59062 0.0
C1606 C 0.05633 0.87131 0.56536 0.0
C1607 C 0.06282 0.84523 0.58292 0.0
C1608 C 0.08203 0.88097 0.5425 0.0
C1609 C 0.05479 0.90457 0.52842 0.0
N1610 N 0.06857 0.8578 0.57065 0.0
N1611 N 0.05011 0.89516 0.54336 0.0
H1612 H 0.21037 0.71875 0.72142 0.0
H1613 H 0.09909 0.75658 0.7353 0.0
H1614 H 0.19237 0.74761 0.77421 0.0
H1615 H 0.12406 0.73833 0.68211 0.0
H1616 H 0.13101 0.74962 0.75079 0.0
H1617 H 0.17651 0.72161 0.70792 0.0
C1618 C 0.19923 0.72568 0.73019 0.0
C1619 C 0.20432 0.73329 0.74888 0.0
C1620 C 0.12943 0.74712 0.73574 0.0
C1621 C 0.16533 0.73659 0.73348 0.0
C1622 C 0.11123 0.75101 0.72691 0.0
C1623 C 0.10902 0.74821 0.70739 0.0
C1624 C 0.14537 0.74015 0.72494 0.0
C1625 C 0.12523 0.74104 0.69717 0.0
C1626 C 0.17987 0.72729 0.72248 0.0
C1627 C 0.18908 0.74162 0.75972 0.0
N1628 N 0.14266 0.73728 0.70605 0.0
N1629 N 0.17028 0.74323 0.7518 0.0
H1630 H 0.97793 0.57347 0.52585 0.0
H1631 H 0.98857 0.69199 0.55325 0.0
H1632 H 0.96568 0.61427 0.48728 0.0
H1633 H 0.99435 0.65117 0.59315 0.0
H1634 H 0.98302 0.66375 0.52842 0.0
H1635 H 0.98683 0.60179 0.55017 0.0
C1636 C 0.97719 0.58837 0.52245 0.0
C1637 C 0.97096 0.59142 0.50446 0.0
C1638 C 0.98554 0.66095 0.5426 0.0
C1639 C 0.98124 0.62397 0.53227 0.0
C1640 C 0.98882 0.67709 0.55679 0.0
C1641 C 0.9919 0.67397 0.57535 0.0
C1642 C 0.9854 0.64149 0.54694 0.0
C1643 C 0.99176 0.65429 0.57909 0.0
C1644 C 0.98232 0.60454 0.53635 0.0
C1645 C 0.97063 0.61112 0.50084 0.0
N1646 N 0.98857 0.63882 0.56503 0.0
N1647 N 0.97559 0.6266 0.51462 0.0
H1648 H 0.81597 0.82134 0.20523 0.0
H1649 H 0.83561 0.92216 0.27569 0.0
H1650 H 0.7737 0.83938 0.24727 0.0
H1651 H 0.86616 0.9121 0.22389 0.0
H1652 H 0.81391 0.8911 0.26651 0.0
H1653 H 0.83571 0.85375 0.21276 0.0
C1654 C 0.81065 0.83217 0.21588 0.0
C1655 C 0.79308 0.82755 0.22561 0.0
C1656 C 0.82532 0.89575 0.25713 0.0
C1657 C 0.81597 0.86458 0.23459 0.0
C1658 C 0.83767 0.91357 0.26232 0.0
C1659 C 0.85285 0.91984 0.25059 0.0
C1660 C 0.82825 0.88397 0.24018 0.0
C1661 C 0.85498 0.90776 0.23358 0.0
C1662 C 0.82204 0.85064 0.22025 0.0
C1663 C 0.78729 0.84211 0.23958 0.0
N1664 N 0.84291 0.89038 0.22894 0.0
N1665 N 0.79876 0.8599 0.24371 0.0
H1666 H 0.80748 0.18995 0.33764 0.0
H1667 H 0.83038 0.08775 0.27779 0.0
H1668 H 0.76507 0.15573 0.29606 0.0
H1669 H 0.86734 0.11463 0.32663 0.0
H1670 H 0.80671 0.11303 0.28418 0.0
H1671 H 0.82983 0.16292 0.33405 0.0
C1672 C 0.80271 0.17667 0.32795 0.0
C1673 C 0.78441 0.1752 0.31703 0.0
C1674 C 0.81995 0.11337 0.29356 0.0
C1675 C 0.81011 0.14439 0.31261 0.0
C1676 C 0.83347 0.09883 0.28997 0.0
C1677 C 0.85095 0.09891 0.3017 0.0
C1678 C 0.82391 0.12833 0.30891 0.0
C1679 C 0.85427 0.11406 0.31702 0.0
C1680 C 0.81555 0.1613 0.32582 0.0
C1681 C 0.7792 0.1577 0.30453 0.0
N1682 N 0.84093 0.12818 0.32015 0.0
N1683 N 0.79202 0.14309 0.30258 0.0
H1684 H 0.41102 0.04921 0.00681 0.0
H1685 H 0.35527 0.94019 0.97747 0.0
H1686 H 0.43426 0.00621 0.96541 0.0
H1687 H 0.34559 0.97649 0.02947 0.0
H1688 H 0.38252 0.965 0.97135 0.0
H1689 H 0.38528 0.02358 0.01386 0.0
C1690 C 0.41096 0.03433 0.99935 0.0
C1691 C 0.42507 0.0299 0.98558 0.0
C1692 C 0.37446 0.96748 0.98413 0.0
C1693 C 0.39506 1.00053 0.9933 0.0
C1694 C 0.35894 0.95326 0.98771 0.0
C1695 C 0.34805 0.95614 1.00408 0.0
C1696 C 0.37903 0.98486 0.99687 0.0
C1697 C 0.35327 0.97368 0.01654 0.0
C1698 C 0.3961 0.01972 1.00332 0.0
C1699 C 0.42364 0.01042 0.97602 0.0
N1700 N 0.36832 0.98738 0.01264 0.0
N1701 N 0.40887 0.99648 0.98001 0.0
H1702 H 0.28768 0.37221 0.28832 0.0
H1703 H 0.17373 0.40489 0.28172 0.0
H1704 H 0.23796 0.35117 0.32007 0.0
H1705 H 0.22424 0.43084 0.2536 0.0
H1706 H 0.19601 0.38143 0.29211 0.0
H1707 H 0.26365 0.38978 0.2714 0.0
C1708 C 0.27158 0.3709 0.29133 0.0
C1709 C 0.26464 0.36024 0.30546 0.0
C1710 C 0.20221 0.39214 0.28354 0.0
C1711 C 0.23726 0.38044 0.28659 0.0
C1712 C 0.18951 0.40562 0.27768 0.0
C1713 C 0.19716 0.42002 0.26694 0.0
C1714 C 0.22283 0.39306 0.27873 0.0
C1715 C 0.21764 0.41995 0.2618 0.0
C1716 C 0.25792 0.38103 0.28183 0.0
C1717 C 0.24378 0.35922 0.30918 0.0
N1718 N 0.22981 0.40682 0.26789 0.0
N1719 N 0.23085 0.3693 0.2999 0.0
H1720 H 0.11527 0.00883 0.45055 0.0
H1721 H 0.21704 0.05121 0.50989 0.0
H1722 H 0.12412 0.9954 0.50655 0.0
H1723 H 0.18832 0.0835 0.47081 0.0
H1724 H 0.18656 0.02677 0.50657 0.0
H1725 H 0.14568 0.0323 0.45536 0.0
C1726 C 0.12339 0.01097 0.464 0.0
C1727 C 0.11661 1.00044 0.47838 0.0
C1728 C 0.18699 0.03925 0.4988 0.0
C1729 C 0.15223 0.02696 0.48361 0.0
C1730 C 0.20434 0.05307 0.50058 0.0
C1731 C 0.2051 0.06933 0.49059 0.0
C1732 C 0.1706 0.04154 0.48661 0.0
C1733 C 0.18826 0.07122 0.47881 0.0
C1734 C 0.14091 0.02431 0.46664 0.0
C1735 C 0.12862 1.00324 0.49511 0.0
N1736 N 0.17179 0.0574 0.47703 0.0
N1737 N 0.14589 0.01626 0.49729 0.0
H1738 H 0.7631 0.18384 0.71046 0.0
H1739 H 0.72543 0.09881 0.77118 0.0
H1740 H 0.78779 0.17976 0.76547 0.0
H1741 H 0.69799 0.10358 0.71735 0.0
H1742 H 0.74867 0.12834 0.76895 0.0
H1743 H 0.73908 0.15453 0.71244 0.0
C1744 C 0.76345 0.17681 0.72295 0.0
C1745 C 0.77763 0.18415 0.73773 0.0
C1746 C 0.73756 0.12296 0.75761 0.0
C1747 C 0.75029 0.15062 0.74008 0.0
C1748 C 0.72436 0.10601 0.75884 0.0
C1749 C 0.70976 0.09865 0.74441 0.0
C1750 C 0.73626 0.13267 0.74181 0.0
C1751 C 0.70886 0.10884 0.72889 0.0
C1752 C 0.74979 0.16005 0.72405 0.0
C1753 C 0.77746 0.17439 0.75356 0.0
N1754 N 0.72196 0.1253 0.72798 0.0
N1755 N 0.76406 0.15816 0.75429 0.0
H1756 H 0.47871 0.03589 0.50868 0.0
H1757 H 0.38159 0.08641 0.54979 0.0
H1758 H 0.45086 0.02032 0.55846 0.0
H1759 H 0.39959 0.08614 0.49314 0.0
H1760 H 0.40922 0.06563 0.55525 0.0
H1761 H 0.45219 0.05785 0.50491 0.0
C1762 C 0.46692 0.03695 0.51878 0.0
C1763 C 0.46682 0.02586 0.53372 0.0
C1764 C 0.40709 0.07014 0.54165 0.0
C1765 C 0.43653 0.05152 0.52965 0.0
C1766 C 0.39144 0.08207 0.53855 0.0
C1767 C 0.3883 0.08796 0.52097 0.0
C1768 C 0.41983 0.0643 0.52712 0.0
C1769 C 0.40135 0.08177 0.50684 0.0
C1770 C 0.45182 0.04963 0.51665 0.0
C1771 C 0.45154 0.02854 0.54672 0.0
N1772 N 0.41656 0.07035 0.51024 0.0
N1773 N 0.43694 0.04106 0.54435 0.0
H1774 H 0.59159 0.51682 0.53899 0.0
H1775 H 0.65571 0.4289 0.5623 0.0
H1776 H 0.59522 0.49933 0.59393 0.0
H1777 H 0.67391 0.46597 0.52095 0.0
H1778 H 0.62847 0.45032 0.57099 0.0
H1779 H 0.61715 0.49406 0.52918 0.0
C1780 C 0.59767 0.50827 0.54903 0.0
C1781 C 0.59113 0.5102 0.56741 0.0
C1782 C 0.6384 0.4537 0.55998 0.0
C1783 C 0.62005 0.48367 0.55599 0.0
C1784 C 0.65383 0.44146 0.55496 0.0
C1785 C 0.66705 0.44573 0.54092 0.0
C1786 C 0.63592 0.4701 0.55065 0.0
C1787 C 0.6641 0.46227 0.53193 0.0
C1788 C 0.61221 0.4952 0.54335 0.0
C1789 C 0.59935 0.49822 0.57955 0.0
N1790 N 0.64877 0.47382 0.53688 0.0
N1791 N 0.61331 0.48548 0.57362 0.0
H1792 H 0.75372 0.21056 0.37054 0.0
H1793 H 0.72652 0.31583 0.4178 0.0
H1794 H 0.75212 0.26046 0.33978 0.0
H1795 H 0.76634 0.2817 0.44659 0.0
H1796 H 0.72812 0.29215 0.38964 0.0
H1797 H 0.75105 0.23325 0.39935 0.0
C1798 C 0.75284 0.22618 0.3697 0.0
C1799 C 0.75315 0.23342 0.35244 0.0
C1800 C 0.73641 0.28989 0.40221 0.0
C1801 C 0.74929 0.25924 0.38545 0.0
C1802 C 0.73567 0.30349 0.41832 0.0
C1803 C 0.74653 0.3011 0.43478 0.0
C1804 C 0.74762 0.27342 0.40255 0.0
C1805 C 0.75746 0.28421 0.43448 0.0
C1806 C 0.75118 0.23907 0.3862 0.0
C1807 C 0.75142 0.25386 0.35249 0.0
N1808 N 0.75768 0.271 0.41865 0.0
N1809 N 0.74944 0.26598 0.36868 0.0
H1810 H 0.51704 0.06007 0.91467 0.0
H1811 H 0.53579 0.00663 0.81206 0.0
H1812 H 0.46884 0.03745 0.87335 0.0
H1813 H 0.58439 0.03892 0.8487 0.0
H1814 H 0.51152 0.01391 0.83618 0.0
H1815 H 0.54237 0.04814 0.89264 0.0
C1816 C 0.5118 0.05234 0.90107 0.0
C1817 C 0.49086 0.0499 0.89573 0.0
C1818 C 0.5275 0.01936 0.839 0.0
C1819 C 0.51961 0.03635 0.87051 0.0
C1820 C 0.54139 0.01531 0.82516 0.0
C1821 C 0.56218 0.02238 0.82821 0.0
C1822 C 0.53437 0.03053 0.85613 0.0
C1823 C 0.56855 0.03308 0.84572 0.0
C1824 C 0.52623 0.04567 0.88847 0.0
C1825 C 0.48486 0.03989 0.87792 0.0
N1826 N 0.55468 0.03693 0.85898 0.0
N1827 N 0.49915 0.03357 0.86595 0.0
H1828 H 0.28518 0.26501 0.34829 0.0
H1829 H 0.34323 0.20027 0.41371 0.0
H1830 H 0.35018 0.25952 0.34719 0.0
H1831 H 0.28039 0.21321 0.4195 0.0
H1832 H 0.34555 0.21946 0.38759 0.0
H1833 H 0.28266 0.24364 0.37262 0.0
C1834 C 0.29894 0.2593 0.35315 0.0
C1835 C 0.31795 0.26424 0.34574 0.0
C1836 C 0.33125 0.21808 0.39457 0.0
C1837 C 0.31513 0.23952 0.3736 0.0
C1838 C 0.32988 0.20703 0.40942 0.0
C1839 C 0.3116 0.20516 0.41888 0.0
C1840 C 0.31418 0.22723 0.38901 0.0
C1841 C 0.29488 0.21447 0.41282 0.0
C1842 C 0.29748 0.24704 0.36703 0.0
C1843 C 0.33517 0.25602 0.35235 0.0
N1844 N 0.29657 0.22506 0.3983 0.0
N1845 N 0.33337 0.24415 0.36596 0.0
H1846 H 0.51905 0.47695 0.9554 0.0
H1847 H 0.51803 0.50189 0.85123 0.0
H1848 H 0.57388 0.49429 0.92803 0.0
H1849 H 0.46544 0.50706 0.88509 0.0
H1850 H 0.53816 0.49527 0.87829 0.0
H1851 H 0.49838 0.48426 0.92876 0.0
C1852 C 0.52669 0.48234 0.9438 0.0
C1853 C 0.54816 0.48519 0.94394 0.0
C1854 C 0.52223 0.49791 0.87982 0.0
C1855 C 0.52477 0.49328 0.91347 0.0
C1856 C 0.51074 0.50159 0.86438 0.0
C1857 C 0.49008 0.50505 0.86597 0.0
C1858 C 0.51294 0.49739 0.89692 0.0
C1859 C 0.48139 0.50463 0.88335 0.0
C1860 C 0.51493 0.48656 0.92868 0.0
C1861 C 0.55735 0.49217 0.92858 0.0
N1862 N 0.49282 0.50073 0.89815 0.0
N1863 N 0.54562 0.49585 0.91393 0.0
H1864 H 0.76915 0.73753 0.19037 0.0
H1865 H 0.79353 0.73932 0.0857 0.0
H1866 H 0.76582 0.79159 0.16592 0.0
H1867 H 0.75891 0.68865 0.10336 0.0
H1868 H 0.78804 0.75877 0.1157 0.0
H1869 H 0.76985 0.71907 0.15931 0.0
C1870 C 0.76822 0.74559 0.17858 0.0
C1871 C 0.76735 0.76632 0.18102 0.0
C1872 C 0.78161 0.7434 0.11286 0.0
C1873 C 0.7691 0.7451 0.14529 0.0
C1874 C 0.78462 0.73226 0.09569 0.0
C1875 C 0.77686 0.71212 0.09186 0.0
C1876 C 0.77114 0.73429 0.12645 0.0
C1877 C 0.76576 0.70387 0.1057 0.0
C1878 C 0.76882 0.73497 0.16081 0.0
C1879 C 0.76692 0.77576 0.16494 0.0
N1880 N 0.76347 0.7149 0.12243 0.0
N1881 N 0.76806 0.76512 0.14779 0.0
H1882 H 0.04889 0.06797 0.12708 0.0
H1883 H 0.98444 0.9969 0.1877 0.0
H1884 H 0.03309 0.00528 0.10894 0.0
H1885 H 0.99397 0.06074 0.20162 0.0
H1886 H 1.00355 0.99926 0.15958 0.0
H1887 H 0.0299 0.06521 0.15499 0.0
C1888 C 0.04126 0.05362 0.12884 0.0
C1889 C 0.04243 0.03686 0.11544 0.0
C1890 C 1.00145 0.01275 0.16878 0.0
C1891 C 0.02093 0.03353 0.1478 0.0
C1892 C 0.99066 0.01141 0.18491 0.0
C1893 C 0.98761 0.02866 0.19708 0.0
C1894 C 0.00936 0.03146 0.1648 0.0
C1895 C 0.99574 0.04708 0.19256 0.0
C1896 C 0.03051 0.05205 0.14491 0.0
C1897 C 0.03271 0.01858 0.11889 0.0
N1898 N 0.00626 0.04798 0.17683 0.0
N1899 N 0.02235 0.0174 0.13471 0.0
H1900 H 0.29588 0.81947 0.20313 0.0
H1901 H 0.26544 0.80123 0.09404 0.0
H1902 H 0.27515 0.76161 0.17324 0.0
H1903 H 0.28631 0.85851 0.12512 0.0
H1904 H 0.27092 0.78586 0.12214 0.0
H1905 H 0.29464 0.8334 0.174 0.0
C1906 C 0.29111 0.80968 0.19038 0.0
C1907 C 0.28537 0.78939 0.19065 0.0
C1908 C 0.27436 0.80178 0.12277 0.0
C1909 C 0.28389 0.80527 0.15711 0.0
C1910 C 0.27132 0.81056 0.10672 0.0
C1911 C 0.27529 0.83123 0.10723 0.0
C1912 C 0.28146 0.81375 0.13946 0.0
C1913 C 0.28268 0.84258 0.12412 0.0
C1914 C 0.29044 0.81763 0.17373 0.0
C1915 C 0.27972 0.77733 0.17366 0.0
N1916 N 0.28546 0.83371 0.13952 0.0
N1917 N 0.27893 0.78548 0.15758 0.0
H1918 H 0.01602 0.46293 0.06827 0.0
H1919 H 0.06159 0.52619 0.16423 0.0
H1920 H 0.01236 0.52602 0.08268 0.0
H1921 H 0.07401 0.46561 0.14633 0.0
H1922 H 0.04093 0.52547 0.13559 0.0
H1923 H 0.03459 0.46271 0.09799 0.0
C1924 C 0.01907 0.47673 0.07767 0.0
C1925 C 0.0126 0.49453 0.07289 0.0
C1926 C 0.04815 0.51232 0.13792 0.0
C1927 C 0.03376 0.49433 0.10704 0.0
C1928 C 0.06008 0.51275 0.15425 0.0
C1929 C 0.06976 0.49599 0.15769 0.0
C1930 C 0.04573 0.49498 0.12487 0.0
C1931 C 0.06674 0.47884 0.14439 0.0
C1932 C 0.02963 0.47657 0.09467 0.0
C1933 C 0.01674 0.51188 0.08581 0.0
N1934 N 0.05505 0.4788 0.12855 0.0
N1935 N 0.02709 0.51135 0.10222 0.0
H1936 H 0.35384 0.69342 0.24186 0.0
H1937 H 0.425 0.74967 0.32833 0.0
H1938 H 0.34326 0.75047 0.27181 0.0
H1939 H 0.4345 0.69163 0.29983 0.0
H1940 H 0.3962 0.75106 0.30656 0.0
H1941 H 0.38488 0.69353 0.26146 0.0
C1942 C 0.35813 0.70604 0.25247 0.0
C1943 C 0.34586 0.72192 0.25522 0.0
C1944 C 0.4046 0.73803 0.30503 0.0
C1945 C 0.38139 0.72215 0.27775 0.0
C1946 C 0.42096 0.73715 0.31756 0.0
C1947 C 0.43211 0.72043 0.31603 0.0
C1948 C 0.39927 0.72206 0.29081 0.0
C1949 C 0.42644 0.70487 0.30149 0.0
C1950 C 0.37586 0.7061 0.26365 0.0
C1951 C 0.35232 0.738 0.26903 0.0
N1952 N 0.41038 0.70603 0.2895 0.0
N1953 N 0.36954 0.73763 0.27985 0.0
H1954 H 0.057 0.43149 0.97169 0.0
H1955 H 0.99981 0.32132 0.95358 0.0
H1956 H 0.99548 0.4171 0.98828 0.0
H1957 H 0.05903 0.33822 0.9332 0.0
H1958 H 0.99951 0.35516 0.97006 0.0
H1959 H 0.05962 0.39628 0.96142 0.0
C1960 C 0.04408 0.42086 0.97328 0.0
C1961 C 0.0259 0.42724 0.98061 0.0
C1962 C 0.01262 0.3514 0.96209 0.0
C1963 C 0.02873 0.38682 0.9688 0.0
C1964 C 0.01285 0.33208 0.95276 0.0
C1965 C 0.02939 0.327 0.94185 0.0
C1966 C 0.0291 0.3657 0.96056 0.0
C1967 C 0.04581 0.34157 0.94117 0.0
C1968 C 0.04558 0.40075 0.96743 0.0
C1969 C 0.00978 0.4128 0.9827 0.0
N1970 N 0.04519 0.36023 0.9503 0.0
N1971 N 0.01148 0.39325 0.97661 0.0
H1972 H 0.70166 0.77725 0.26941 0.0
H1973 H 0.6313 0.70683 0.32592 0.0
H1974 H 0.71685 0.7199 0.28128 0.0
H1975 H 0.61174 0.76044 0.30849 0.0
H1976 H 0.66203 0.71085 0.30835 0.0
H1977 H 0.66788 0.77079 0.28202 0.0
C1978 C 0.69778 0.76317 0.27439 0.0
C1979 C 0.7122 0.74919 0.27449 0.0
C1980 C 0.65097 0.72169 0.30825 0.0
C1981 C 0.67374 0.74184 0.28919 0.0
C1982 C 0.63331 0.71933 0.31823 0.0
C1983 C 0.61883 0.73332 0.31876 0.0
C1984 C 0.65437 0.73824 0.29879 0.0
C1985 C 0.62259 0.74945 0.30876 0.0
C1986 C 0.67855 0.75955 0.2817 0.0
C1987 C 0.70639 0.73128 0.28127 0.0
N1988 N 0.64003 0.75152 0.29928 0.0
N1989 N 0.68771 0.72821 0.28848 0.0
H1990 H 0.09641 0.11791 0.02353 0.0
H1991 H 0.01366 0.13277 0.9447 0.0
H1992 H 0.03437 0.09037 0.02058 0.0
H1993 H 0.07633 0.15923 0.9492 0.0
H1994 H 0.0214 0.11411 0.9702 0.0
H1995 H 0.09017 0.12935 0.99364 0.0
C1996 C 0.08156 0.11399 0.01634 0.0
C1997 C 0.06585 0.10329 0.02447 0.0
C1998 C 0.03348 0.12384 0.96543 0.0
C1999 C 0.05832 0.11674 0.99046 0.0
C2000 C 0.02905 0.1346 0.95095 0.0
C2001 C 0.04434 0.14768 0.94476 0.0
C2002 C 0.05333 0.12622 0.97383 0.0
C2003 C 0.06408 0.14917 0.95324 0.0
C2004 C 0.07793 0.12058 0.99932 0.0
C2005 C 0.04687 0.09855 0.01466 0.0
N2006 N 0.06793 0.13871 0.96736 0.0
N2007 N 0.04351 0.10557 0.99825 0.0
H2008 H 0.34425 0.25524 0.28324 0.0
H2009 H 0.42186 0.30946 0.21931 0.0
H2010 H 0.35912 0.31894 0.29028 0.0
H2011 H 0.42319 0.24796 0.22688 0.0
H2012 H 0.39496 0.31262 0.24191 0.0
H2013 H 0.36965 0.25177 0.2594 0.0
C2014 C 0.35281 0.26851 0.27986 0.0
C2015 C 0.34944 0.28744 0.28895 0.0
C2016 C 0.40113 0.29843 0.2386 0.0
C2017 C 0.37827 0.2835 0.26125 0.0
C2018 C 0.41638 0.29659 0.22563 0.0
C2019 C 0.42481 0.27844 0.22128 0.0
C2020 C 0.39406 0.28193 0.24708 0.0
C2021 C 0.41726 0.26228 0.23 0.0
C2022 C 0.36725 0.26649 0.26615 0.0
C2023 C 0.3608 0.30406 0.28354 0.0
N2024 N 0.40227 0.26438 0.24244 0.0
N2025 N 0.37464 0.3017 0.27006 0.0
H2026 H 0.53944 0.41776 0.028 0.0
H2027 H 0.57152 0.33333 0.08669 0.0
H2028 H 0.59216 0.38509 0.01819 0.0
H2029 H 0.516 0.36203 0.09542 0.0
H2030 H 0.58149 0.35574 0.06447 0.0
H2031 H 0.53299 0.40146 0.05575 0.0
C2032 C 0.54991 0.40751 0.03195 0.0
C2033 C 0.56626 0.40262 0.02077 0.0
C2034 C 0.56717 0.35728 0.0713 0.0
C2035 C 0.55891 0.3838 0.0522 0.0
C2036 C 0.56141 0.34439 0.08395 0.0
C2037 C 0.54274 0.34558 0.09275 0.0
C2038 C 0.55414 0.37151 0.06723 0.0
C2039 C 0.53052 0.36057 0.08895 0.0
C2040 C 0.54614 0.39809 0.04767 0.0
C2041 C 0.57927 0.38911 0.02636 0.0
N2042 N 0.53632 0.37282 0.07632 0.0
N2043 N 0.57522 0.38008 0.04155 0.0
H2044 H 0.70588 0.21155 0.22473 0.0
H2045 H 0.59738 0.25554 0.23802 0.0
H2046 H 0.68963 0.24303 0.27702 0.0
H2047 H 0.6215 0.23496 0.18501 0.0
H2048 H 0.62862 0.24724 0.25366 0.0
H2049 H 0.67236 0.21568 0.21124 0.0
C2050 C 0.69518 0.21931 0.2334 0.0
C2051 C 0.70069 0.22729 0.25192 0.0
C2052 C 0.627 0.24452 0.23862 0.0
C2053 C 0.66211 0.23208 0.23653 0.0
C2054 C 0.60919 0.24919 0.2297 0.0
C2055 C 0.60695 0.24611 0.21018 0.0
C2056 C 0.64251 0.2365 0.22791 0.0
C2057 C 0.62273 0.23791 0.20006 0.0
C2058 C 0.67602 0.22165 0.22569 0.0
C2059 C 0.68601 0.23673 0.26265 0.0
N2060 N 0.63978 0.23341 0.20903 0.0
N2061 N 0.66741 0.23906 0.25474 0.0
H2062 H 0.46376 0.1168 0.9877 0.0
H2063 H 0.49248 0.15169 0.09587 0.0
H2064 H 0.47584 0.07607 0.02639 0.0
H2065 H 0.48678 0.19228 0.05575 0.0
H2066 H 0.48632 0.12377 0.07072 0.0
H2067 H 0.47271 0.14457 0.01237 0.0
C2068 C 0.46859 0.11366 1.0013 0.0
C2069 C 0.46907 0.09399 0.0049 0.0
C2070 C 0.48648 0.13878 0.0674 0.0
C2071 C 0.47889 0.12588 0.03345 0.0
C2072 C 0.48985 0.15473 0.08178 0.0
C2073 C 0.49009 0.17438 0.07794 0.0
C2074 C 0.4832 0.14246 0.04903 0.0
C2075 C 0.48694 0.17741 0.05936 0.0
C2076 C 0.47354 0.12957 0.01545 0.0
C2077 C 0.475 0.09095 0.02299 0.0
N2078 N 0.48354 0.16164 0.04563 0.0
N2079 N 0.47958 0.1067 0.03659 0.0
H2080 H 0.28578 0.34099 0.70603 0.0
H2081 H 0.36599 0.40934 0.77875 0.0
H2082 H 0.31229 0.32185 0.75494 0.0
H2083 H 0.34077 0.42934 0.72973 0.0
H2084 H 0.3461 0.37723 0.77011 0.0
H2085 H 0.30581 0.37337 0.7141 0.0
C2086 C 0.29583 0.34357 0.71843 0.0
C2087 C 0.29721 0.32872 0.72991 0.0
C2088 C 0.34488 0.38862 0.76122 0.0
C2089 C 0.32006 0.36572 0.73927 0.0
C2090 C 0.35615 0.40703 0.76622 0.0
C2091 C 0.35499 0.42213 0.75501 0.0
C2092 C 0.33229 0.38517 0.74486 0.0
C2093 C 0.34228 0.41809 0.73871 0.0
C2094 C 0.30719 0.36207 0.72307 0.0
C2095 C 0.31039 0.33295 0.74588 0.0
N2096 N 0.3314 0.40001 0.73414 0.0
N2097 N 0.32125 0.35102 0.75007 0.0
H2098 H 0.30865 0.69562 0.79195 0.0
H2099 H 0.33943 0.59481 0.82546 0.0
H2100 H 0.27833 0.66936 0.83579 0.0
H2101 H 0.36973 0.6233 0.78286 0.0
H2102 H 0.31731 0.62196 0.83012 0.0
H2103 H 0.3317 0.66949 0.78932 0.0
C2104 C 0.30681 0.68427 0.80101 0.0
C2105 C 0.29133 0.68451 0.81393 0.0
C2106 C 0.32886 0.62229 0.81982 0.0
C2107 C 0.31793 0.65448 0.8111 0.0
C2108 C 0.34142 0.60674 0.81706 0.0
C2109 C 0.3565 0.60674 0.80374 0.0
C2110 C 0.33133 0.63794 0.80912 0.0
C2111 C 0.35855 0.62275 0.79346 0.0
C2112 C 0.32006 0.66938 0.79956 0.0
C2113 C 0.29003 0.66971 0.82562 0.0
N2114 N 0.34609 0.63762 0.79633 0.0
N2115 N 0.30307 0.65518 0.82384 0.0
H2116 H 0.93529 0.50397 0.46638 0.0
H2117 H 0.84272 0.47729 0.53063 0.0
H2118 H 0.91185 0.54698 0.50761 0.0
H2119 H 0.85684 0.43922 0.48105 0.0
H2120 H 0.87011 0.50192 0.52432 0.0
H2121 H 0.90887 0.47886 0.47363 0.0
C2122 C 0.92462 0.50816 0.47696 0.0
C2123 C 0.92584 0.52769 0.48636 0.0
C2124 C 0.86721 0.48815 0.51484 0.0
C2125 C 0.89566 0.49889 0.49487 0.0
C2126 C 0.85148 0.47411 0.51837 0.0
C2127 C 0.84736 0.45609 0.50635 0.0
C2128 C 0.87905 0.48416 0.49924 0.0
C2129 C 0.85959 0.45271 0.49089 0.0
C2130 C 0.90957 0.49378 0.48113 0.0
C2131 C 0.91176 0.53209 0.50017 0.0
N2132 N 0.87485 0.46659 0.48779 0.0
N2133 N 0.89726 0.51783 0.50398 0.0
H2134 H 0.79156 0.87582 0.78893 0.0
H2135 H 0.676 0.90315 0.7803 0.0
H2136 H 0.74102 0.84663 0.8143 0.0
H2137 H 0.72616 0.93181 0.75375 0.0
H2138 H 0.69894 0.87982 0.78996 0.0
H2139 H 0.7673 0.89357 0.77258 0.0
C2140 C 0.77527 0.8728 0.79061 0.0
C2141 C 0.76813 0.8597 0.80275 0.0
C2142 C 0.70491 0.89109 0.78187 0.0
C2143 C 0.7404 0.88022 0.78466 0.0
C2144 C 0.69183 0.90449 0.77644 0.0
C2145 C 0.69919 0.91959 0.76633 0.0
C2146 C 0.7256 0.89282 0.7773 0.0
C2147 C 0.71977 0.92036 0.76143 0.0
C2148 C 0.76145 0.88301 0.78143 0.0
C2149 C 0.74699 0.85652 0.80487 0.0
N2150 N 0.73229 0.90731 0.76712 0.0
N2151 N 0.73387 0.86684 0.79605 0.0
H2152 H 0.59467 0.52826 0.99214 0.0
H2153 H 0.71623 0.54234 0.98404 0.0
H2154 H 0.63152 0.47914 0.98098 0.0
H2155 H 0.68021 0.59027 1.00343 0.0
H2156 H 0.68551 0.51888 0.98308 0.0
H2157 H 0.62595 0.55111 0.99717 0.0
C2158 C 0.60938 0.52228 0.99098 0.0
C2159 C 0.6105 0.50178 0.98611 0.0
C2160 C 0.68435 0.53452 0.98764 0.0
C2161 C 0.64641 0.52786 0.9916 0.0
C2162 C 0.70185 0.54794 0.98805 0.0
C2163 C 0.70079 0.56833 0.99377 0.0
C2164 C 0.66558 0.54152 0.99283 0.0
C2165 C 0.6818 0.57468 0.99908 0.0
C2166 C 0.62724 0.53531 0.99384 0.0
C2167 C 0.62996 0.49481 0.98487 0.0
N2168 N 0.66495 0.56136 0.99838 0.0
N2169 N 0.64715 0.50784 0.98739 0.0
H2170 H 0.26345 0.68468 0.20877 0.0
H2171 H 0.22433 0.59956 0.26888 0.0
H2172 H 0.28773 0.67981 0.26374 0.0
H2173 H 0.19958 0.60293 0.21371 0.0
H2174 H 0.2476 0.62913 0.26701 0.0
H2175 H 0.23958 0.65509 0.21017 0.0
C2176 C 0.26375 0.6774 0.22111 0.0
C2177 C 0.27776 0.68461 0.23607 0.0
C2178 C 0.23709 0.62343 0.25529 0.0
C2179 C 0.25057 0.65082 0.23777 0.0
C2180 C 0.22387 0.60645 0.25631 0.0
C2181 C 0.21001 0.59866 0.2414 0.0
C2182 C 0.23653 0.63279 0.23923 0.0
C2183 C 0.20985 0.60851 0.22562 0.0
C2184 C 0.25019 0.66049 0.22188 0.0
C2185 C 0.27753 0.67455 0.25171 0.0
N2186 N 0.22294 0.62504 0.22493 0.0
N2187 N 0.26419 0.65822 0.25213 0.0
H2188 H 0.9765 0.53435 0.00802 0.0
H2189 H 0.87613 0.58233 0.04496 0.0
H2190 H 0.94556 0.51766 0.05596 0.0
H2191 H 0.89982 0.58732 0.99087 0.0
H2192 H 0.90325 0.5613 0.05101 0.0
H2193 H 0.95025 0.55637 1.00329 0.0
C2194 C 0.9641 0.53518 0.01751 0.0
C2195 C 0.96312 0.52383 0.03226 0.0
C2196 C 0.9025 0.56701 0.03783 0.0
C2197 C 0.9331 0.54951 0.0271 0.0
C2198 C 0.88712 0.57911 0.03442 0.0
C2199 C 0.88572 0.58659 0.01738 0.0
C2200 C 0.91668 0.5625 0.02417 0.0
C2201 C 0.9002 0.58173 1.00412 0.0
C2202 C 0.94916 0.54788 0.01484 0.0
C2203 C 0.947 0.52612 0.04443 0.0
N2204 N 0.91508 0.57004 0.00781 0.0
N2205 N 0.93259 0.53867 0.04155 0.0
H2206 H 0.10482 0.01 0.09851 0.0
H2207 H 0.15511 0.94399 0.0154 0.0
H2208 H 0.08759 0.01042 0.04073 0.0
H2209 H 0.18069 0.95585 0.07175 0.0
H2210 H 0.128 0.96543 0.02453 0.0
H2211 H 0.13035 0.9872 0.08905 0.0
C2212 C 0.10625 0.00511 0.08382 0.0
C2213 C 0.09396 0.01204 0.07039 0.0
C2214 C 0.13957 0.96333 0.03487 0.0
C2215 C 0.1234 0.98603 0.05942 0.0
C2216 C 0.15496 0.95102 0.0297 0.0
C2217 C 0.17024 0.94821 0.04281 0.0
C2218 C 0.13932 0.97269 0.05334 0.0
C2219 C 0.1694 0.95781 0.06112 0.0
C2220 C 0.12097 0.99221 0.07842 0.0
C2221 C 0.09681 0.0055 0.05153 0.0
N2222 N 0.1542 0.96955 0.06583 0.0
N2223 N 0.1112 0.99281 0.0466 0.0
loop_
_geom_bond_atom_site_label_1
_geom_bond_atom_site_label_2
_geom_bond_distance
_geom_bond_site_symmetry_2
_ccdc_geom_bond_type
H0 C1 0.949 . S
C1 H0 0.949 . S
C1 C2 1.395 . S
C1 C3 1.391 . S
C2 C1 1.395 . S
C2 C5 1.390 . S
C3 C1 1.391 . S
C3 C7 1.387 . S
C3 C8 1.491 . S
H4 C5 0.978 . S
C5 C2 1.390 . S
C5 H4 0.978 . S
C5 C6 1.378 . S
C6 C5 1.378 . S
C6 C7 1.409 . S
C7 C3 1.387 . S
C7 C6 1.409 . S
C7 H9 0.951 . S
C8 C3 1.491 . S
C8 C10 1.382 . S
C8 C12 1.404 . S
H9 C7 0.951 . S
C10 C8 1.382 . S
C10 C11 1.390 . S
C10 H15 0.949 . S
C11 C10 1.390 . S
C11 C16 1.399 . S
C12 C8 1.404 . S
C12 H13 0.950 . S
C12 C14 1.375 . S
H13 C12 0.950 . S
C14 C12 1.375 . S
C14 C16 1.382 . S
C14 H18 0.950 . S
H15 C10 0.949 . S
C16 C11 1.399 . S
C16 C14 1.382 . S
C16 H17 0.952 . S
H17 C16 0.952 . S
H18 C14 0.950 . S
H19 C20 0.949 . S
C20 H19 0.949 . S
C20 C21 1.395 . S
C20 C22 1.391 . S
C21 C20 1.395 . S
C21 C24 1.390 . S
C22 C20 1.391 . S
C22 C26 1.387 . S
C22 C27 1.491 . S
H23 C24 0.950 . S
C24 C21 1.390 . S
C24 H23 0.950 . S
C24 C25 1.378 . S
C25 C24 1.378 . S
C25 C26 1.409 . S
C26 C22 1.387 . S
C26 C25 1.409 . S
C26 H28 0.951 . S
C27 C22 1.491 . S
C27 C29 1.382 . S
C27 C31 1.404 . S
H28 C26 0.951 . S
C29 C27 1.382 . S
C29 C30 1.390 . S
C29 H34 0.949 . S
C30 C29 1.390 . S
C30 C35 1.399 . S
C31 C27 1.404 . S
C31 H32 0.950 . S
C31 C33 1.375 . S
H32 C31 0.950 . S
C33 C31 1.375 . S
C33 C35 1.382 . S
C33 H37 0.950 . S
H34 C29 0.949 . S
C35 C30 1.399 . S
C35 C33 1.382 . S
C35 H36 0.952 . S
H36 C35 0.952 . S
H37 C33 0.950 . S
H38 C39 0.949 . S
C39 H38 0.949 . S
C39 C40 1.395 . S
C39 C41 1.391 1_455 S
C40 C39 1.395 . S
C40 C43 1.390 1_455 S
C41 C39 1.391 1_655 S
C41 C45 1.387 . S
C41 C46 1.487 1_654 S
H42 C43 0.950 . S
C43 C40 1.390 1_655 S
C43 H42 0.950 . S
C43 C44 1.378 . S
C44 C43 1.378 . S
C44 C45 1.409 . S
C45 C41 1.387 . S
C45 C44 1.409 . S
C45 H47 0.951 1_554 S
C46 C41 1.487 1_456 S
C46 C48 1.386 . S
C46 C50 1.404 . S
H47 C45 0.951 1_556 S
C48 C46 1.386 . S
C48 C49 1.390 . S
C48 H53 0.949 1_556 S
C49 C48 1.390 . S
C49 C54 1.399 . S
C50 C46 1.404 . S
C50 H51 0.949 1_455 S
C50 C52 1.376 . S
H51 C50 0.949 1_655 S
C52 C50 1.376 . S
C52 C54 1.382 . S
C52 H56 0.950 . S
H53 C48 0.949 1_554 S
C54 C49 1.399 . S
C54 C52 1.382 . S
C54 H55 0.952 . S
H55 C54 0.952 . S
H56 C52 0.950 . S
H57 C58 0.949 . S
C58 H57 0.949 . S
C58 C59 1.395 . S
C58 C60 1.391 . S
C59 C58 1.395 . S
C59 C62 1.390 . S
C60 C58 1.391 . S
C60 C64 1.387 . S
C60 C65 1.491 . S
H61 C62 0.950 . S
C62 C59 1.390 . S
C62 H61 0.950 . S
C62 C63 1.378 . S
C63 C62 1.378 . S
C63 C64 1.409 . S
C64 C60 1.387 . S
C64 C63 1.409 . S
C64 H66 0.951 . S
C65 C60 1.491 . S
C65 C67 1.382 . S
C65 C69 1.404 . S
H66 C64 0.951 . S
C67 C65 1.382 . S
C67 C68 1.390 . S
C67 H72 0.949 . S
C68 C67 1.390 . S
C68 C73 1.399 . S
C69 C65 1.404 . S
C69 H70 0.950 . S
C69 C71 1.375 . S
H70 C69 0.950 . S
C71 C69 1.375 . S
C71 C73 1.382 . S
C71 H75 0.950 . S
H72 C67 0.949 . S
C73 C68 1.399 . S
C73 C71 1.382 . S
C73 H74 0.952 . S
H74 C73 0.952 . S
H75 C71 0.950 . S
H76 C77 0.949 . S
C77 H76 0.949 . S
C77 C78 1.395 . S
C77 C79 1.391 . S
C78 C77 1.395 . S
C78 C81 1.390 . S
C79 C77 1.391 . S
C79 C83 1.387 . S
C79 C84 1.491 . S
H80 C81 0.950 1_545 S
C81 C78 1.390 . S
C81 H80 0.950 1_565 S
C81 C82 1.378 . S
C82 C81 1.378 . S
C82 C83 1.409 . S
C83 C79 1.387 . S
C83 C82 1.409 . S
C83 H85 0.951 . S
C84 C79 1.491 . S
C84 C86 1.382 . S
C84 C88 1.404 . S
H85 C83 0.951 . S
C86 C84 1.382 . S
C86 C87 1.390 . S
C86 H91 0.949 . S
C87 C86 1.390 . S
C87 C92 1.399 . S
C88 C84 1.404 . S
C88 H89 0.950 . S
C88 C90 1.375 . S
H89 C88 0.950 . S
C90 C88 1.375 . S
C90 C92 1.382 . S
C90 H94 0.950 . S
H91 C86 0.949 . S
C92 C87 1.399 . S
C92 C90 1.382 . S
C92 H93 0.952 . S
H93 C92 0.952 . S
H94 C90 0.950 . S
H95 C96 0.949 . S
C96 H95 0.949 . S
C96 C97 1.395 . S
C96 C98 1.391 . S
C97 C96 1.395 . S
C97 C100 1.390 . S
C98 C96 1.391 . S
C98 C102 1.387 . S
C98 C103 1.491 . S
H99 C100 0.950 . S
C100 C97 1.390 . S
C100 H99 0.950 . S
C100 C101 1.378 . S
C101 C100 1.378 . S
C101 C102 1.409 . S
C102 C98 1.387 . S
C102 C101 1.409 . S
C102 H104 0.951 . S
C103 C98 1.491 . S
C103 C105 1.382 . S
C103 C107 1.404 . S
H104 C102 0.951 . S
C105 C103 1.382 . S
C105 C106 1.390 . S
C105 H110 0.949 . S
C106 C105 1.390 . S
C106 C111 1.399 . S
C107 C103 1.404 . S
C107 H108 0.950 . S
C107 C109 1.375 . S
H108 C107 0.950 . S
C109 C107 1.375 . S
C109 C111 1.382 . S
C109 H113 0.950 . S
H110 C105 0.949 . S
C111 C106 1.399 . S
C111 C109 1.382 . S
C111 H112 0.952 . S
H112 C111 0.952 . S
H113 C109 0.950 . S
H114 C115 0.949 . S
C115 H114 0.949 . S
C115 C116 1.395 . S
C115 C117 1.391 . S
C116 C115 1.395 . S
C116 C119 1.390 . S
C117 C115 1.391 . S
C117 C121 1.387 . S
C117 C122 1.491 . S
H118 C119 0.950 . S
C119 C116 1.390 . S
C119 H118 0.950 . S
C119 C120 1.378 . S
C120 C119 1.378 . S
C120 C121 1.409 . S
C121 C117 1.387 . S
C121 C120 1.409 . S
C121 H123 0.951 . S
C122 C117 1.491 . S
C122 C124 1.382 . S
C122 C126 1.404 . S
H123 C121 0.951 . S
C124 C122 1.382 . S
C124 C125 1.390 1_655 S
C124 H129 0.949 1_655 S
C125 C124 1.390 1_455 S
C125 C130 1.399 1_455 S
C126 C122 1.404 . S
C126 H127 0.950 . S
C126 C128 1.375 . S
H127 C126 0.950 . S
C128 C126 1.375 . S
C128 C130 1.382 . S
C128 H132 0.950 . S
H129 C124 0.949 1_455 S
C130 C125 1.399 1_655 S
C130 C128 1.382 . S
C130 H131 0.952 . S
H131 C130 0.952 . S
H132 C128 0.950 . S
H133 C134 0.949 . S
C134 H133 0.949 . S
C134 C135 1.395 . S
C134 C136 1.391 . S
C135 C134 1.395 . S
C135 C138 1.390 . S
C136 C134 1.391 . S
C136 C140 1.387 . S
C136 C141 1.491 . S
H137 C138 0.950 . S
C138 C135 1.390 . S
C138 H137 0.950 . S
C138 C139 1.378 . S
C139 C138 1.378 . S
C139 C140 1.409 . S
C140 C136 1.387 . S
C140 C139 1.409 . S
C140 H142 0.951 . S
C141 C136 1.491 . S
C141 C143 1.382 . S
C141 C145 1.404 . S
H142 C140 0.951 . S
C143 C141 1.382 . S
C143 C144 1.390 . S
C143 H148 0.949 . S
C144 C143 1.390 . S
C144 C149 1.399 . S
C145 C141 1.404 . S
C145 H146 0.950 . S
C145 C147 1.375 . S
H146 C145 0.950 . S
C147 C145 1.375 . S
C147 C149 1.382 . S
C147 H151 0.950 . S
H148 C143 0.949 . S
C149 C144 1.399 . S
C149 C147 1.382 . S
C149 H150 0.952 . S
H150 C149 0.952 . S
H151 C147 0.950 . S
H152 C153 0.949 . S
C153 H152 0.949 . S
C153 C154 1.395 . S
C153 C155 1.391 . S
C154 C153 1.395 . S
C154 C157 1.390 . S
C155 C153 1.391 . S
C155 C159 1.387 . S
C155 C160 1.491 . S
H156 C157 0.950 . S
C157 C154 1.390 . S
C157 H156 0.950 . S
C157 C158 1.378 . S
C158 C157 1.378 . S
C158 C159 1.409 . S
C159 C155 1.387 . S
C159 C158 1.409 . S
C159 H161 0.951 . S
C160 C155 1.491 . S
C160 C162 1.382 . S
C160 C164 1.404 . S
H161 C159 0.951 . S
C162 C160 1.382 . S
C162 C163 1.390 . S
C162 H167 0.949 . S
C163 C162 1.390 . S
C163 C168 1.399 . S
C164 C160 1.404 . S
C164 H165 0.950 . S
C164 C166 1.375 . S
H165 C164 0.950 . S
C166 C164 1.375 . S
C166 C168 1.382 . S
C166 H170 0.950 . S
H167 C162 0.949 . S
C168 C163 1.399 . S
C168 C166 1.382 . S
C168 H169 0.952 . S
H169 C168 0.952 . S
H170 C166 0.950 . S
H171 C172 0.949 . S
C172 H171 0.949 . S
C172 C173 1.395 . S
C172 C174 1.391 . S
C173 C172 1.395 . S
C173 C176 1.390 . S
C174 C172 1.391 . S
C174 C178 1.387 . S
C174 C179 1.491 . S
H175 C176 0.950 1_545 S
C176 C173 1.390 . S
C176 H175 0.950 1_565 S
C176 C177 1.378 . S
C177 C176 1.378 . S
C177 C178 1.409 . S
C178 C174 1.387 . S
C178 C177 1.409 . S
C178 H180 0.951 . S
C179 C174 1.491 . S
C179 C181 1.382 . S
C179 C183 1.404 . S
H180 C178 0.951 . S
C181 C179 1.382 . S
C181 C182 1.390 . S
C181 H186 0.949 . S
C182 C181 1.390 . S
C182 C187 1.399 . S
C183 C179 1.404 . S
C183 H184 0.950 . S
C183 C185 1.375 . S
H184 C183 0.950 . S
C185 C183 1.375 . S
C185 C187 1.382 . S
C185 H189 0.950 . S
H186 C181 0.949 . S
C187 C182 1.399 . S
C187 C185 1.382 . S
C187 H188 0.952 . S
H188 C187 0.952 . S
H189 C185 0.950 . S
H190 C191 0.949 . S
C191 H190 0.949 . S
C191 C192 1.395 . S
C191 C193 1.391 . S
C192 C191 1.395 . S
C192 C195 1.390 . S
C193 C191 1.391 . S
C193 C197 1.387 . S
C193 C198 1.491 . S
H194 C195 0.950 . S
C195 C192 1.390 . S
C195 H194 0.950 . S
C195 C196 1.378 . S
C196 C195 1.378 . S
C196 C197 1.409 . S
C197 C193 1.387 . S
C197 C196 1.409 . S
C197 H199 0.951 . S
C198 C193 1.491 . S
C198 C200 1.382 . S
C198 C202 1.404 . S
H199 C197 0.951 . S
C200 C198 1.382 . S
C200 C201 1.390 . S
C200 H205 0.949 . S
C201 C200 1.390 . S
C201 C206 1.399 . S
C202 C198 1.404 . S
C202 H203 0.950 . S
C202 C204 1.375 . S
H203 C202 0.950 . S
C204 C202 1.375 . S
C204 C206 1.382 . S
C204 H208 0.950 . S
H205 C200 0.949 . S
C206 C201 1.399 . S
C206 C204 1.382 . S
C206 H207 0.952 . S
H207 C206 0.952 . S
H208 C204 0.950 . S
H209 C210 0.949 . S
C210 H209 0.949 . S
C210 C211 1.395 . S
C210 C212 1.391 . S
C211 C210 1.395 . S
C211 C214 1.390 . S
C212 C210 1.391 . S
C212 C216 1.387 . S
C212 C217 1.491 . S
H213 C214 0.950 . S
C214 C211 1.390 . S
C214 H213 0.950 . S
C214 C215 1.378 . S
C215 C214 1.378 . S
C215 C216 1.409 . S
C216 C212 1.387 . S
C216 C215 1.409 . S
C216 H218 0.951 . S
C217 C212 1.491 . S
C217 C219 1.382 . S
C217 C221 1.404 . S
H218 C216 0.951 . S
C219 C217 1.382 . S
C219 C220 1.390 . S
C219 H224 0.949 . S
C220 C219 1.390 . S
C220 C225 1.399 . S
C221 C217 1.404 . S
C221 H222 0.950 . S
C221 C223 1.375 . S
H222 C221 0.950 . S
C223 C221 1.375 . S
C223 C225 1.382 . S
C223 H227 0.950 . S
H224 C219 0.949 . S
C225 C220 1.399 . S
C225 C223 1.382 . S
C225 H226 0.952 . S
H226 C225 0.952 . S
H227 C223 0.950 . S
H228 C229 0.949 . S
C229 H228 0.949 . S
C229 C230 1.395 . S
C229 C231 1.391 . S
C230 C229 1.395 . S
C230 C233 1.390 . S
C231 C229 1.391 . S
C231 C235 1.387 . S
C231 C236 1.491 . S
H232 C233 0.950 . S
C233 C230 1.390 . S
C233 H232 0.950 . S
C233 C234 1.378 . S
C234 C233 1.378 . S
C234 C235 1.409 . S
C235 C231 1.387 . S
C235 C234 1.409 . S
C235 H237 0.951 . S
C236 C231 1.491 . S
C236 C238 1.382 . S
C236 C240 1.404 . S
H237 C235 0.951 . S
C238 C236 1.382 . S
C238 C239 1.390 . S
C238 H243 0.949 . S
C239 C238 1.390 . S
C239 C244 1.399 . S
C240 C236 1.404 . S
C240 H241 0.950 . S
C240 C242 1.375 . S
H241 C240 0.950 . S
C242 C240 1.375 . S
C242 C244 1.382 . S
C242 H246 0.950 . S
H243 C238 0.949 . S
C244 C239 1.399 . S
C244 C242 1.382 . S
C244 H245 0.952 . S
H245 C244 0.952 . S
H246 C242 0.950 . S
H247 C248 0.949 1_554 S
C248 H247 0.949 1_556 S
C248 C249 1.395 . S
C248 C250 1.391 . S
C249 C248 1.395 . S
C249 C252 1.390 . S
C250 C248 1.391 . S
C250 C254 1.387 . S
C250 C255 1.491 . S
H251 C252 0.950 . S
C252 C249 1.390 . S
C252 H251 0.950 . S
C252 C253 1.378 . S
C253 C252 1.378 . S
C253 C254 1.409 . S
C254 C250 1.387 . S
C254 C253 1.409 . S
C254 H256 0.951 . S
C255 C250 1.491 . S
C255 C257 1.382 1_556 S
C255 C259 1.404 . S
H256 C254 0.951 . S
C257 C255 1.382 1_554 S
C257 C258 1.390 . S
C257 H262 0.949 . S
C258 C257 1.390 . S
C258 C263 1.399 . S
C259 C255 1.404 . S
C259 H260 0.950 . S
C259 C261 1.375 . S
H260 C259 0.950 . S
C261 C259 1.375 . S
C261 C263 1.382 1_556 S
C261 H265 0.950 . S
H262 C257 0.949 . S
C263 C258 1.399 . S
C263 C261 1.382 1_554 S
C263 H264 0.952 . S
H264 C263 0.952 . S
H265 C261 0.950 . S
H266 C267 0.949 . S
C267 H266 0.949 . S
C267 C268 1.395 . S
C267 C269 1.391 . S
C268 C267 1.395 . S
C268 C271 1.390 . S
C269 C267 1.391 . S
C269 C273 1.387 . S
C269 C274 1.491 . S
H270 C271 0.950 . S
C271 C268 1.390 . S
C271 H270 0.950 . S
C271 C272 1.378 . S
C272 C271 1.378 . S
C272 C273 1.409 . S
C273 C269 1.387 . S
C273 C272 1.409 . S
C273 H275 0.951 . S
C274 C269 1.491 . S
C274 C276 1.382 . S
C274 C278 1.404 . S
H275 C273 0.951 . S
C276 C274 1.382 . S
C276 C277 1.390 . S
C276 H281 0.949 . S
C277 C276 1.390 . S
C277 C282 1.399 . S
C278 C274 1.404 . S
C278 H279 0.950 . S
C278 C280 1.375 . S
H279 C278 0.950 . S
C280 C278 1.375 . S
C280 C282 1.382 . S
C280 H284 0.950 . S
H281 C276 0.949 . S
C282 C277 1.399 . S
C282 C280 1.382 . S
C282 H283 0.952 . S
H283 C282 0.952 . S
H284 C280 0.950 . S
H285 C286 0.949 . S
C286 H285 0.949 . S
C286 C287 1.395 . S
C286 C288 1.391 . S
C287 C286 1.395 . S
C287 C290 1.390 . S
C288 C286 1.391 . S
C288 C292 1.387 . S
C288 C293 1.491 . S
H289 C290 0.950 . S
C290 C287 1.390 . S
C290 H289 0.950 . S
C290 C291 1.378 . S
C291 C290 1.378 . S
C291 C292 1.409 . S
C292 C288 1.387 . S
C292 C291 1.409 . S
C292 H294 0.951 . S
C293 C288 1.491 . S
C293 C295 1.382 . S
C293 C297 1.404 . S
H294 C292 0.951 . S
C295 C293 1.382 . S
C295 C296 1.390 . S
C295 H300 0.949 . S
C296 C295 1.390 . S
C296 C301 1.399 . S
C297 C293 1.404 . S
C297 H298 0.950 . S
C297 C299 1.375 . S
H298 C297 0.950 . S
C299 C297 1.375 . S
C299 C301 1.382 . S
C299 H303 0.950 . S
H300 C295 0.949 . S
C301 C296 1.399 . S
C301 C299 1.382 . S
C301 H302 0.952 . S
H302 C301 0.952 . S
H303 C299 0.950 . S
Li304 N321 1.990 . S
Li304 O364 1.956 . S
Li304 O365 1.970 . S
Li304 O366 1.961 . S
Li305 N329 1.990 . S
Li305 O364 1.970 . S
Li305 O365 1.956 . S
Li305 O367 1.961 . S
Li306 N351 1.990 1_554 S
Li306 O364 1.961 . S
Li306 O366 1.956 . S
Li306 O367 1.970 . S
Li307 N357 1.990 . S
Li307 O365 1.961 . S
Li307 O366 1.970 . S
Li307 O367 1.956 . S
C308 C310 1.348 . S
C308 C311 1.356 . S
C308 O364 1.325 . S
N309 C312 1.314 . S
N309 C313 1.279 . S
C310 C308 1.348 . S
C310 C312 1.353 . S
C310 H368 0.929 . S
C311 C308 1.356 . S
C311 C313 1.358 . S
C311 H369 0.930 . S
C312 N309 1.314 . S
C312 C310 1.353 . S
C312 H370 0.930 . S
C313 N309 1.279 . S
C313 C311 1.358 . S
C313 H371 0.930 1_554 S
C314 C317 1.348 . S
C314 C318 1.356 . S
C314 O365 1.325 . S
C315 N316 1.279 . S
C315 C318 1.358 . S
C315 H372 0.930 . S
N316 C315 1.279 . S
N316 C319 1.314 . S
C317 C314 1.348 . S
C317 C319 1.353 . S
C317 H373 0.929 . S
C318 C314 1.356 . S
C318 C315 1.358 . S
C318 H374 0.930 . S
C319 N316 1.314 . S
C319 C317 1.353 . S
C319 H375 0.930 . S
C320 N321 1.314 . S
C320 C325 1.353 . S
C320 H326 0.930 . S
N321 Li304 1.990 . S
N321 C320 1.314 . S
N321 C323 1.279 . S
C322 C323 1.358 . S
C322 C324 1.356 . S
C322 H376 0.930 . S
C323 N321 1.279 . S
C323 C322 1.358 . S
C323 H327 0.930 . S
C324 C322 1.356 . S
C324 C325 1.348 . S
C325 C320 1.353 . S
C325 C324 1.348 . S
C325 H377 0.929 . S
H326 C320 0.930 . S
H327 C323 0.930 . S
C328 N329 1.314 . S
C328 C330 1.353 . S
C328 H334 0.930 . S
N329 Li305 1.990 . S
N329 C328 1.314 . S
N329 C332 1.279 . S
C330 C328 1.353 . S
C330 C333 1.348 . S
C330 H378 0.929 . S
C331 C332 1.358 . S
C331 C333 1.356 . S
C331 H379 0.930 . S
C332 N329 1.279 . S
C332 C331 1.358 . S
C332 H335 0.930 . S
C333 C330 1.348 . S
C333 C331 1.356 . S
H334 C328 0.930 . S
H335 C332 0.930 . S
C336 C338 1.348 . S
C336 C339 1.356 . S
C336 O366 1.325 1_556 S
N337 C340 1.314 . S
N337 C341 1.279 . S
C338 C336 1.348 . S
C338 C340 1.353 . S
C338 H380 0.929 1_556 S
C339 C336 1.356 . S
C339 C341 1.358 . S
C339 H381 0.930 . S
C340 N337 1.314 . S
C340 C338 1.353 . S
C340 H382 0.930 . S
C341 N337 1.279 . S
C341 C339 1.358 . S
C341 H383 0.930 . S
C342 C343 1.348 . S
C342 C344 1.356 . S
C342 O367 1.325 . S
C343 C342 1.348 . S
C343 C345 1.353 . S
C343 H384 0.929 . S
C344 C342 1.356 . S
C344 C346 1.358 . S
C344 H385 0.930 . S
C345 C343 1.353 . S
C345 N347 1.314 . S
C345 H386 0.930 . S
C346 C344 1.358 . S
C346 N347 1.279 . S
C346 H387 0.930 . S
N347 C345 1.314 . S
N347 C346 1.279 . S
C348 C350 1.353 . S
C348 N351 1.314 . S
C348 H354 0.930 1_556 S
C349 N351 1.279 . S
C349 C352 1.358 . S
C349 H355 0.930 . S
C350 C348 1.353 . S
C350 C353 1.348 . S
C350 H388 0.929 . S
N351 Li306 1.990 1_556 S
N351 C348 1.314 . S
N351 C349 1.279 . S
C352 C349 1.358 . S
C352 C353 1.356 . S
C352 H389 0.930 . S
C353 C350 1.348 . S
C353 C352 1.356 . S
H354 C348 0.930 1_554 S
H355 C349 0.930 . S
C356 N357 1.314 . S
C356 C358 1.353 . S
C356 H362 0.930 . S
N357 Li307 1.990 . S
N357 C356 1.314 . S
N357 C360 1.279 . S
C358 C356 1.353 . S
C358 C361 1.348 . S
C358 H390 0.929 . S
C359 C360 1.358 . S
C359 C361 1.356 . S
C359 H391 0.930 . S
C360 N357 1.279 . S
C360 C359 1.358 . S
C360 H363 0.930 . S
C361 C358 1.348 . S
C361 C359 1.356 . S
H362 C356 0.930 . S
H363 C360 0.930 . S
O364 Li304 1.956 . S
O364 Li305 1.970 . S
O364 Li306 1.961 . S
O364 C308 1.325 . S
O365 Li304 1.970 . S
O365 Li305 1.956 . S
O365 Li307 1.961 . S
O365 C314 1.325 . S
O366 Li304 1.961 . S
O366 Li306 1.956 . S
O366 Li307 1.970 . S
O366 C336 1.325 1_554 S
O367 Li305 1.961 . S
O367 Li306 1.970 . S
O367 Li307 1.956 . S
O367 C342 1.325 . S
H368 C310 0.929 . S
H369 C311 0.930 . S
H370 C312 0.930 . S
H371 C313 0.930 1_556 S
H372 C315 0.930 . S
H373 C317 0.929 . S
H374 C318 0.930 . S
H375 C319 0.930 . S
H376 C322 0.930 . S
H377 C325 0.929 . S
H378 C330 0.929 . S
H379 C331 0.930 . S
H380 C338 0.929 1_554 S
H381 C339 0.930 . S
H382 C340 0.930 . S
H383 C341 0.930 . S
H384 C343 0.929 . S
H385 C344 0.930 . S
H386 C345 0.930 . S
H387 C346 0.930 . S
H388 C350 0.929 . S
H389 C352 0.930 . S
H390 C358 0.929 . S
H391 C359 0.930 . S
Li392 N409 1.990 . S
Li392 O452 1.956 . S
Li392 O453 1.970 . S
Li392 O454 1.961 . S
Li393 N417 1.990 . S
Li393 O452 1.970 . S
Li393 O453 1.956 . S
Li393 O455 1.961 . S
Li394 N439 1.990 . S
Li394 O452 1.961 . S
Li394 O454 1.956 . S
Li394 O455 1.970 . S
Li395 N445 1.990 . S
Li395 O453 1.961 . S
Li395 O454 1.970 . S
Li395 O455 1.956 . S
C396 C398 1.348 . S
C396 C399 1.356 . S
C396 O452 1.325 . S
N397 C400 1.314 . S
N397 C401 1.279 . S
C398 C396 1.348 . S
C398 C400 1.353 . S
C398 H456 0.929 . S
C399 C396 1.356 . S
C399 C401 1.358 . S
C399 H457 0.930 . S
C400 N397 1.314 . S
C400 C398 1.353 . S
C400 H458 0.930 . S
C401 N397 1.279 . S
C401 C399 1.358 . S
C401 H459 0.930 . S
C402 C405 1.348 . S
C402 C406 1.356 . S
C402 O453 1.325 . S
C403 N404 1.279 . S
C403 C406 1.358 . S
C403 H460 0.930 . S
N404 C403 1.279 . S
N404 C407 1.314 . S
C405 C402 1.348 . S
C405 C407 1.353 . S
C405 H461 0.929 . S
C406 C402 1.356 . S
C406 C403 1.358 . S
C406 H462 0.930 . S
C407 N404 1.314 . S
C407 C405 1.353 . S
C407 H463 0.930 . S
C408 N409 1.314 . S
C408 C413 1.353 . S
C408 H414 0.930 . S
N409 Li392 1.990 . S
N409 C408 1.314 . S
N409 C411 1.279 . S
C410 C411 1.358 . S
C410 C412 1.356 . S
C410 H464 0.930 . S
C411 N409 1.279 . S
C411 C410 1.358 . S
C411 H415 0.930 . S
C412 C410 1.356 . S
C412 C413 1.348 . S
C413 C408 1.353 . S
C413 C412 1.348 . S
C413 H465 0.929 . S
H414 C408 0.930 . S
H415 C411 0.930 . S
C416 N417 1.314 . S
C416 C418 1.353 . S
C416 H422 0.930 . S
N417 Li393 1.990 . S
N417 C416 1.314 . S
N417 C420 1.279 . S
C418 C416 1.353 . S
C418 C421 1.348 . S
C418 H466 0.929 . S
C419 C420 1.358 . S
C419 C421 1.356 . S
C419 H467 0.930 . S
C420 N417 1.279 . S
C420 C419 1.358 . S
C420 H423 0.930 . S
C421 C418 1.348 . S
C421 C419 1.356 . S
H422 C416 0.930 . S
H423 C420 0.930 . S
C424 C426 1.348 . S
C424 C427 1.356 . S
C424 O454 1.325 . S
N425 C428 1.314 . S
N425 C429 1.279 . S
C426 C424 1.348 . S
C426 C428 1.353 . S
C426 H468 0.929 . S
C427 C424 1.356 . S
C427 C429 1.358 . S
C427 H469 0.930 . S
C428 N425 1.314 . S
C428 C426 1.353 . S
C428 H470 0.930 . S
C429 N425 1.279 . S
C429 C427 1.358 . S
C429 H471 0.930 . S
C430 C431 1.348 . S
C430 C432 1.356 . S
C430 O455 1.325 . S
C431 C430 1.348 . S
C431 C433 1.353 . S
C431 H472 0.929 . S
C432 C430 1.356 . S
C432 C434 1.358 . S
C432 H473 0.930 . S
C433 C431 1.353 . S
C433 N435 1.314 . S
C433 H474 0.930 . S
C434 C432 1.358 . S
C434 N435 1.279 . S
C434 H475 0.930 . S
N435 C433 1.314 . S
N435 C434 1.279 . S
C436 C438 1.353 . S
C436 N439 1.314 . S
C436 H442 0.930 . S
C437 N439 1.279 . S
C437 C440 1.358 . S
C437 H443 0.930 . S
C438 C436 1.353 . S
C438 C441 1.348 . S
C438 H476 0.929 . S
N439 Li394 1.990 . S
N439 C436 1.314 . S
N439 C437 1.279 . S
C440 C437 1.358 . S
C440 C441 1.356 . S
C440 H477 0.930 . S
C441 C438 1.348 . S
C441 C440 1.356 . S
H442 C436 0.930 . S
H443 C437 0.930 . S
C444 N445 1.314 . S
C444 C446 1.353 . S
C444 H450 0.930 . S
N445 Li395 1.990 . S
N445 C444 1.314 . S
N445 C448 1.279 . S
C446 C444 1.353 . S
C446 C449 1.348 . S
C446 H478 0.929 . S
C447 C448 1.358 . S
C447 C449 1.356 . S
C447 H479 0.930 . S
C448 N445 1.279 . S
C448 C447 1.358 . S
C448 H451 0.930 . S
C449 C446 1.348 . S
C449 C447 1.356 . S
H450 C444 0.930 . S
H451 C448 0.930 . S
O452 Li392 1.956 . S
O452 Li393 1.970 . S
O452 Li394 1.961 . S
O452 C396 1.325 . S
O453 Li392 1.970 . S
O453 Li393 1.956 . S
O453 Li395 1.961 . S
O453 C402 1.325 . S
O454 Li392 1.961 . S
O454 Li394 1.956 . S
O454 Li395 1.970 . S
O454 C424 1.325 . S
O455 Li393 1.961 . S
O455 Li394 1.970 . S
O455 Li395 1.956 . S
O455 C430 1.325 . S
H456 C398 0.929 . S
H457 C399 0.930 . S
H458 C400 0.930 . S
H459 C401 0.930 . S
H460 C403 0.930 . S
H461 C405 0.929 . S
H462 C406 0.930 . S
H463 C407 0.930 . S
H464 C410 0.930 . S
H465 C413 0.929 . S
H466 C418 0.929 . S
H467 C419 0.930 . S
H468 C426 0.929 . S
H469 C427 0.930 . S
H470 C428 0.930 . S
H471 C429 0.930 . S
H472 C431 0.929 . S
H473 C432 0.930 . S
H474 C433 0.930 . S
H475 C434 0.930 . S
H476 C438 0.929 . S
H477 C440 0.930 . S
H478 C446 0.929 . S
H479 C447 0.930 . S
Li480 N497 1.990 . S
Li480 O540 1.956 1_556 S
Li480 O541 1.970 1_556 S
Li480 O542 1.961 . S
Li481 N505 1.990 . S
Li481 O540 1.970 . S
Li481 O541 1.956 . S
Li481 O543 1.961 . S
Li482 N527 1.990 . S
Li482 O540 1.961 1_556 S
Li482 O542 1.956 . S
Li482 O543 1.970 1_556 S
Li483 N533 1.990 . S
Li483 O541 1.961 . S
Li483 O542 1.970 1_554 S
Li483 O543 1.956 . S
C484 C486 1.386 . S
C484 C487 1.316 1_554 S
C484 O540 1.329 . S
N485 C488 1.287 1_556 S
N485 C489 1.304 . S
C486 C484 1.386 . S
C486 C488 1.353 . S
C486 H544 0.929 . S
C487 C484 1.316 1_556 S
C487 C489 1.358 . S
C487 H545 0.930 . S
C488 N485 1.287 1_554 S
C488 C486 1.353 . S
C488 H546 0.930 . S
C489 N485 1.304 . S
C489 C487 1.358 . S
C489 H547 0.930 . S
C490 C493 1.348 . S
C490 C494 1.356 . S
C490 O541 1.325 . S
C491 N492 1.279 . S
C491 C494 1.358 . S
C491 H548 0.930 . S
N492 C491 1.279 . S
N492 C495 1.314 . S
C493 C490 1.348 . S
C493 C495 1.353 . S
C493 H549 0.929 . S
C494 C490 1.356 . S
C494 C491 1.358 . S
C494 H550 0.930 . S
C495 N492 1.314 . S
C495 C493 1.353 . S
C495 H551 0.930 . S
C496 N497 1.314 . S
C496 C501 1.353 . S
C496 H502 0.930 . S
N497 Li480 1.990 . S
N497 C496 1.314 . S
N497 C499 1.279 . S
C498 C499 1.358 . S
C498 C500 1.356 . S
C498 H552 0.930 . S
C499 N497 1.279 . S
C499 C498 1.358 . S
C499 H503 0.930 1_556 S
C500 C498 1.356 . S
C500 C501 1.348 . S
C501 C496 1.353 . S
C501 C500 1.348 . S
C501 H553 0.929 . S
H502 C496 0.930 . S
H503 C499 0.930 1_554 S
C504 N505 1.314 . S
C504 C506 1.353 . S
C504 H510 0.930 . S
N505 Li481 1.990 . S
N505 C504 1.314 . S
N505 C508 1.279 . S
C506 C504 1.353 . S
C506 C509 1.348 . S
C506 H554 0.929 . S
C507 C508 1.358 . S
C507 C509 1.356 . S
C507 H555 0.930 . S
C508 N505 1.279 . S
C508 C507 1.358 . S
C508 H511 0.930 . S
C509 C506 1.348 . S
C509 C507 1.356 . S
H510 C504 0.930 . S
H511 C508 0.930 . S
C512 C514 1.348 . S
C512 C515 1.356 . S
C512 O542 1.325 . S
N513 C516 1.314 . S
N513 C517 1.279 . S
C514 C512 1.348 . S
C514 C516 1.353 . S
C514 H556 0.929 . S
C515 C512 1.356 . S
C515 C517 1.358 . S
C515 H557 0.930 . S
C516 N513 1.314 . S
C516 C514 1.353 . S
C516 H558 0.930 . S
C517 N513 1.279 . S
C517 C515 1.358 . S
C517 H559 0.930 . S
C518 C519 1.348 1_554 S
C518 C520 1.356 . S
C518 O543 1.325 . S
C519 C518 1.348 1_556 S
C519 C521 1.353 . S
C519 H560 0.929 . S
C520 C518 1.356 . S
C520 C522 1.358 . S
C520 H561 0.930 . S
C521 C519 1.353 . S
C521 N523 1.314 1_556 S
C521 H562 0.930 . S
C522 C520 1.358 . S
C522 N523 1.279 . S
C522 H563 0.930 . S
N523 C521 1.314 1_554 S
N523 C522 1.279 . S
C524 C526 1.353 . S
C524 N527 1.314 . S
C524 H530 0.930 . S
C525 N527 1.279 . S
C525 C528 1.358 . S
C525 H531 0.930 . S
C526 C524 1.353 . S
C526 C529 1.348 . S
C526 H564 0.929 . S
N527 Li482 1.990 . S
N527 C524 1.314 . S
N527 C525 1.279 . S
C528 C525 1.358 . S
C528 C529 1.356 . S
C528 H565 0.930 . S
C529 C526 1.348 . S
C529 C528 1.356 . S
H530 C524 0.930 . S
H531 C525 0.930 . S
C532 N533 1.314 . S
C532 C534 1.353 . S
C532 H538 0.930 . S
N533 Li483 1.990 . S
N533 C532 1.314 . S
N533 C536 1.289 . S
C534 C532 1.353 . S
C534 C537 1.348 . S
C534 H566 0.929 . S
C535 C536 1.359 . S
C535 C537 1.360 . S
C535 H567 0.918 1_554 S
C536 N533 1.289 . S
C536 C535 1.359 . S
C536 H539 0.907 1_554 S
C537 C534 1.348 . S
C537 C535 1.360 . S
H538 C532 0.930 . S
H539 C536 0.907 1_556 S
O540 Li480 1.956 1_554 S
O540 Li481 1.970 . S
O540 Li482 1.961 1_554 S
O540 C484 1.329 . S
O541 Li480 1.970 1_554 S
O541 Li481 1.956 . S
O541 Li483 1.961 . S
O541 C490 1.325 . S
O542 Li480 1.961 . S
O542 Li482 1.956 . S
O542 Li483 1.970 1_556 S
O542 C512 1.325 . S
O543 Li481 1.961 . S
O543 Li482 1.970 1_554 S
O543 Li483 1.956 . S
O543 C518 1.325 . S
H544 C486 0.929 . S
H545 C487 0.930 . S
H546 C488 0.930 . S
H547 C489 0.930 . S
H548 C491 0.930 . S
H549 C493 0.929 . S
H550 C494 0.930 . S
H551 C495 0.930 . S
H552 C498 0.930 . S
H553 C501 0.929 . S
H554 C506 0.929 . S
H555 C507 0.930 . S
H556 C514 0.929 . S
H557 C515 0.930 . S
H558 C516 0.930 . S
H559 C517 0.930 . S
H560 C519 0.929 . S
H561 C520 0.930 . S
H562 C521 0.930 . S
H563 C522 0.930 . S
H564 C526 0.929 . S
H565 C528 0.930 . S
H566 C534 0.929 . S
H567 C535 0.918 1_556 S
Li568 N585 1.990 . S
Li568 O628 1.956 . S
Li568 O629 1.970 . S
Li568 O630 1.961 . S
Li569 N593 1.990 . S
Li569 O628 1.970 . S
Li569 O629 1.956 . S
Li569 O631 1.961 1_545 S
Li570 N615 1.990 . S
Li570 O628 1.961 . S
Li570 O630 1.956 . S
Li570 O631 1.970 1_545 S
Li571 N621 1.990 . S
Li571 O629 1.961 1_565 S
Li571 O630 1.970 1_565 S
Li571 O631 1.956 . S
C572 C574 1.348 . S
C572 C575 1.356 . S
C572 O628 1.325 . S
N573 C576 1.314 . S
N573 C577 1.279 . S
C574 C572 1.348 . S
C574 C576 1.353 . S
C574 H632 0.929 . S
C575 C572 1.356 . S
C575 C577 1.358 . S
C575 H633 0.930 . S
C576 N573 1.314 . S
C576 C574 1.353 . S
C576 H634 0.930 . S
C577 N573 1.279 . S
C577 C575 1.358 . S
C577 H635 0.930 . S
C578 C581 1.348 . S
C578 C582 1.356 1_545 S
C578 O629 1.325 . S
C579 N580 1.279 1_565 S
C579 C582 1.358 . S
C579 H636 0.930 . S
N580 C579 1.279 1_545 S
N580 C583 1.314 . S
C581 C578 1.348 . S
C581 C583 1.353 . S
C581 H637 0.929 . S
C582 C578 1.356 1_565 S
C582 C579 1.358 . S
C582 H638 0.930 . S
C583 N580 1.314 . S
C583 C581 1.353 . S
C583 H639 0.930 . S
C584 N585 1.314 . S
C584 C589 1.353 . S
C584 H590 0.930 . S
N585 Li568 1.990 . S
N585 C584 1.314 . S
N585 C587 1.279 . S
C586 C587 1.358 . S
C586 C588 1.356 . S
C586 H640 0.930 . S
C587 N585 1.279 . S
C587 C586 1.358 . S
C587 H591 0.930 . S
C588 C586 1.356 . S
C588 C589 1.348 . S
C589 C584 1.353 . S
C589 C588 1.348 . S
C589 H641 0.929 . S
H590 C584 0.930 . S
H591 C587 0.930 . S
C592 N593 1.314 . S
C592 C594 1.353 1_655 S
C592 H598 0.930 . S
N593 Li569 1.990 . S
N593 C592 1.314 . S
N593 C596 1.279 . S
C594 C592 1.353 1_455 S
C594 C597 1.348 1_455 S
C594 H642 0.929 . S
C595 C596 1.358 . S
C595 C597 1.356 . S
C595 H643 0.930 . S
C596 N593 1.279 . S
C596 C595 1.358 . S
C596 H599 0.930 . S
C597 C594 1.348 1_655 S
C597 C595 1.356 . S
H598 C592 0.930 . S
H599 C596 0.930 . S
C600 C602 1.347 1_545 S
C600 C603 1.356 . S
C600 O630 1.325 . S
N601 C604 1.314 . S
N601 C605 1.279 . S
C602 C600 1.347 1_565 S
C602 C604 1.353 1_565 S
C602 H644 0.931 . S
C603 C600 1.356 . S
C603 C605 1.358 . S
C603 H645 0.930 . S
C604 N601 1.314 . S
C604 C602 1.353 1_545 S
C604 H646 0.930 1_545 S
C605 N601 1.279 . S
C605 C603 1.358 . S
C605 H647 0.930 . S
C606 C607 1.348 . S
C606 C608 1.356 . S
C606 O631 1.325 . S
C607 C606 1.348 . S
C607 C609 1.353 . S
C607 H648 0.929 . S
C608 C606 1.356 . S
C608 C610 1.358 . S
C608 H649 0.930 . S
C609 C607 1.353 . S
C609 N611 1.314 . S
C609 H650 0.930 . S
C610 C608 1.358 . S
C610 N611 1.279 . S
C610 H651 0.930 . S
N611 C609 1.314 . S
N611 C610 1.279 . S
C612 C614 1.353 . S
C612 N615 1.314 . S
C612 H618 0.930 . S
C613 N615 1.279 . S
C613 C616 1.358 . S
C613 H619 0.930 . S
C614 C612 1.353 . S
C614 C617 1.348 . S
C614 H652 0.929 1_655 S
N615 Li570 1.990 . S
N615 C612 1.314 . S
N615 C613 1.279 . S
C616 C613 1.358 . S
C616 C617 1.356 . S
C616 H653 0.930 . S
C617 C614 1.348 . S
C617 C616 1.356 . S
H618 C612 0.930 . S
H619 C613 0.930 . S
C620 N621 1.314 . S
C620 C622 1.353 . S
C620 H626 0.930 . S
N621 Li571 1.990 . S
N621 C620 1.314 . S
N621 C624 1.279 . S
C622 C620 1.353 . S
C622 C625 1.348 . S
C622 H654 0.929 . S
C623 C624 1.358 . S
C623 C625 1.356 . S
C623 H655 0.930 . S
C624 N621 1.279 . S
C624 C623 1.358 . S
C624 H627 0.930 . S
C625 C622 1.348 . S
C625 C623 1.356 . S
H626 C620 0.930 . S
H627 C624 0.930 . S
O628 Li568 1.956 . S
O628 Li569 1.970 . S
O628 Li570 1.961 . S
O628 C572 1.325 . S
O629 Li568 1.970 . S
O629 Li569 1.956 . S
O629 Li571 1.961 1_545 S
O629 C578 1.325 . S
O630 Li568 1.961 . S
O630 Li570 1.956 . S
O630 Li571 1.970 1_545 S
O630 C600 1.325 . S
O631 Li569 1.961 1_565 S
O631 Li570 1.970 1_565 S
O631 Li571 1.956 . S
O631 C606 1.325 . S
H632 C574 0.929 . S
H633 C575 0.930 . S
H634 C576 0.930 . S
H635 C577 0.930 . S
H636 C579 0.930 . S
H637 C581 0.929 . S
H638 C582 0.930 . S
H639 C583 0.930 . S
H640 C586 0.930 . S
H641 C589 0.929 . S
H642 C594 0.929 . S
H643 C595 0.930 . S
H644 C602 0.931 . S
H645 C603 0.930 . S
H646 C604 0.930 1_565 S
H647 C605 0.930 . S
H648 C607 0.929 . S
H649 C608 0.930 . S
H650 C609 0.930 . S
H651 C610 0.930 . S
H652 C614 0.929 1_455 S
H653 C616 0.930 . S
H654 C622 0.929 . S
H655 C623 0.930 . S
Li656 N673 1.990 . S
Li656 O716 1.956 . S
Li656 O717 1.970 . S
Li656 O718 1.961 . S
Li657 N681 1.990 . S
Li657 O716 1.970 . S
Li657 O717 1.956 . S
Li657 O719 1.961 . S
Li658 N703 1.990 . S
Li658 O716 1.961 . S
Li658 O718 1.956 . S
Li658 O719 1.970 . S
Li659 N709 1.990 . S
Li659 O717 1.961 . S
Li659 O718 1.970 . S
Li659 O719 1.956 . S
C660 C662 1.348 . S
C660 C663 1.356 . S
C660 O716 1.325 . S
N661 C664 1.314 . S
N661 C665 1.279 . S
C662 C660 1.348 . S
C662 C664 1.353 . S
C662 H720 0.929 . S
C663 C660 1.356 . S
C663 C665 1.358 . S
C663 H721 0.930 . S
C664 N661 1.314 . S
C664 C662 1.353 . S
C664 H722 0.930 . S
C665 N661 1.279 . S
C665 C663 1.358 . S
C665 H723 0.930 . S
C666 C669 1.348 . S
C666 C670 1.356 . S
C666 O717 1.325 . S
C667 N668 1.279 . S
C667 C670 1.358 . S
C667 H724 0.930 . S
N668 C667 1.279 . S
N668 C671 1.314 . S
C669 C666 1.348 . S
C669 C671 1.353 . S
C669 H725 0.929 . S
C670 C666 1.356 . S
C670 C667 1.358 . S
C670 H726 0.930 . S
C671 N668 1.314 . S
C671 C669 1.353 . S
C671 H727 0.930 . S
C672 N673 1.314 . S
C672 C677 1.353 . S
C672 H678 0.930 . S
N673 Li656 1.990 . S
N673 C672 1.314 . S
N673 C675 1.279 . S
C674 C675 1.358 . S
C674 C676 1.356 . S
C674 H728 0.930 . S
C675 N673 1.279 . S
C675 C674 1.358 . S
C675 H679 0.930 . S
C676 C674 1.356 . S
C676 C677 1.348 . S
C677 C672 1.353 . S
C677 C676 1.348 . S
C677 H729 0.929 . S
H678 C672 0.930 . S
H679 C675 0.930 . S
C680 N681 1.314 . S
C680 C682 1.353 . S
C680 H686 0.930 . S
N681 Li657 1.990 . S
N681 C680 1.314 . S
N681 C684 1.279 . S
C682 C680 1.353 . S
C682 C685 1.348 . S
C682 H730 0.929 . S
C683 C684 1.358 . S
C683 C685 1.356 . S
C683 H731 0.930 . S
C684 N681 1.279 . S
C684 C683 1.358 . S
C684 H687 0.930 . S
C685 C682 1.348 . S
C685 C683 1.356 . S
H686 C680 0.930 . S
H687 C684 0.930 . S
C688 C690 1.348 . S
C688 C691 1.356 . S
C688 O718 1.325 . S
N689 C692 1.314 . S
N689 C693 1.279 . S
C690 C688 1.348 . S
C690 C692 1.353 . S
C690 H732 0.929 . S
C691 C688 1.356 . S
C691 C693 1.358 . S
C691 H733 0.930 . S
C692 N689 1.314 . S
C692 C690 1.353 . S
C692 H734 0.930 . S
C693 N689 1.279 . S
C693 C691 1.358 . S
C693 H735 0.930 . S
C694 C695 1.348 . S
C694 C696 1.356 . S
C694 O719 1.325 . S
C695 C694 1.348 . S
C695 C697 1.353 . S
C695 H736 0.929 . S
C696 C694 1.356 . S
C696 C698 1.358 . S
C696 H737 0.930 . S
C697 C695 1.353 . S
C697 N699 1.314 . S
C697 H738 0.930 . S
C698 C696 1.358 . S
C698 N699 1.279 . S
C698 H739 0.930 . S
N699 C697 1.314 . S
N699 C698 1.279 . S
C700 C702 1.353 . S
C700 N703 1.314 . S
C700 H706 0.930 . S
C701 N703 1.279 . S
C701 C704 1.358 . S
C701 H707 0.930 . S
C702 C700 1.353 . S
C702 C705 1.348 . S
C702 H740 0.929 . S
N703 Li658 1.990 . S
N703 C700 1.314 . S
N703 C701 1.279 . S
C704 C701 1.358 . S
C704 C705 1.356 . S
C704 H741 0.930 . S
C705 C702 1.348 . S
C705 C704 1.356 . S
H706 C700 0.930 . S
H707 C701 0.930 . S
C708 N709 1.314 . S
C708 C710 1.353 . S
C708 H714 0.930 . S
N709 Li659 1.990 . S
N709 C708 1.314 . S
N709 C712 1.279 . S
C710 C708 1.353 . S
C710 C713 1.348 . S
C710 H742 0.929 . S
C711 C712 1.358 . S
C711 C713 1.356 . S
C711 H743 0.930 . S
C712 N709 1.279 . S
C712 C711 1.358 . S
C712 H715 0.930 . S
C713 C710 1.348 . S
C713 C711 1.356 . S
H714 C708 0.930 . S
H715 C712 0.930 . S
O716 Li656 1.956 . S
O716 Li657 1.970 . S
O716 Li658 1.961 . S
O716 C660 1.325 . S
O717 Li656 1.970 . S
O717 Li657 1.956 . S
O717 Li659 1.961 . S
O717 C666 1.325 . S
O718 Li656 1.961 . S
O718 Li658 1.956 . S
O718 Li659 1.970 . S
O718 C688 1.325 . S
O719 Li657 1.961 . S
O719 Li658 1.970 . S
O719 Li659 1.956 . S
O719 C694 1.325 . S
H720 C662 0.929 . S
H721 C663 0.930 . S
H722 C664 0.930 . S
H723 C665 0.930 . S
H724 C667 0.930 . S
H725 C669 0.929 . S
H726 C670 0.930 . S
H727 C671 0.930 . S
H728 C674 0.930 . S
H729 C677 0.929 . S
H730 C682 0.929 . S
H731 C683 0.930 . S
H732 C690 0.929 . S
H733 C691 0.930 . S
H734 C692 0.930 . S
H735 C693 0.930 . S
H736 C695 0.929 . S
H737 C696 0.930 . S
H738 C697 0.930 . S
H739 C698 0.930 . S
H740 C702 0.929 . S
H741 C704 0.930 . S
H742 C710 0.929 . S
H743 C711 0.930 . S
Li744 N761 1.990 . S
Li744 O804 1.956 . S
Li744 O805 1.970 . S
Li744 O806 1.961 . S
Li745 N769 1.990 . S
Li745 O804 1.970 . S
Li745 O805 1.956 . S
Li745 O807 1.961 . S
Li746 N791 1.990 . S
Li746 O804 1.961 . S
Li746 O806 1.956 . S
Li746 O807 1.970 . S
Li747 N797 1.990 . S
Li747 O805 1.961 . S
Li747 O806 1.970 . S
Li747 O807 1.956 . S
C748 C750 1.348 . S
C748 C751 1.356 . S
C748 O804 1.325 . S
N749 C752 1.314 . S
N749 C753 1.279 . S
C750 C748 1.348 . S
C750 C752 1.353 . S
C750 H808 0.929 . S
C751 C748 1.356 . S
C751 C753 1.358 . S
C751 H809 0.930 . S
C752 N749 1.314 . S
C752 C750 1.353 . S
C752 H810 0.930 . S
C753 N749 1.279 . S
C753 C751 1.358 . S
C753 H811 0.930 . S
C754 C757 1.348 . S
C754 C758 1.356 . S
C754 O805 1.325 . S
C755 N756 1.279 . S
C755 C758 1.358 . S
C755 H812 0.930 . S
N756 C755 1.279 . S
N756 C759 1.314 . S
C757 C754 1.348 . S
C757 C759 1.353 . S
C757 H813 0.929 . S
C758 C754 1.356 . S
C758 C755 1.358 . S
C758 H814 0.930 . S
C759 N756 1.314 . S
C759 C757 1.353 . S
C759 H815 0.930 . S
C760 N761 1.314 . S
C760 C765 1.353 . S
C760 H766 0.930 . S
N761 Li744 1.990 . S
N761 C760 1.314 . S
N761 C763 1.279 . S
C762 C763 1.358 . S
C762 C764 1.356 . S
C762 H816 0.930 . S
C763 N761 1.279 . S
C763 C762 1.358 . S
C763 H767 0.930 . S
C764 C762 1.356 . S
C764 C765 1.348 . S
C765 C760 1.353 . S
C765 C764 1.348 . S
C765 H817 0.929 . S
H766 C760 0.930 . S
H767 C763 0.930 . S
C768 N769 1.314 . S
C768 C770 1.353 . S
C768 H774 0.930 . S
N769 Li745 1.990 . S
N769 C768 1.314 . S
N769 C772 1.279 . S
C770 C768 1.353 . S
C770 C773 1.348 . S
C770 H818 0.929 . S
C771 C772 1.358 . S
C771 C773 1.356 . S
C771 H819 0.930 . S
C772 N769 1.279 . S
C772 C771 1.358 . S
C772 H775 0.930 . S
C773 C770 1.348 . S
C773 C771 1.356 . S
H774 C768 0.930 . S
H775 C772 0.930 . S
C776 C778 1.348 . S
C776 C779 1.356 . S
C776 O806 1.325 . S
N777 C780 1.314 . S
N777 C781 1.279 . S
C778 C776 1.348 . S
C778 C780 1.353 . S
C778 H820 0.929 . S
C779 C776 1.356 . S
C779 C781 1.358 . S
C779 H821 0.930 . S
C780 N777 1.314 . S
C780 C778 1.353 . S
C780 H822 0.930 . S
C781 N777 1.279 . S
C781 C779 1.358 . S
C781 H823 0.930 . S
C782 C783 1.348 . S
C782 C784 1.356 . S
C782 O807 1.325 . S
C783 C782 1.348 . S
C783 C785 1.353 . S
C783 H824 0.929 . S
C784 C782 1.356 . S
C784 C786 1.358 . S
C784 H825 0.930 . S
C785 C783 1.353 . S
C785 N787 1.314 . S
C785 H826 0.930 . S
C786 C784 1.358 . S
C786 N787 1.279 . S
C786 H827 0.930 . S
N787 C785 1.314 . S
N787 C786 1.279 . S
C788 C790 1.353 . S
C788 N791 1.314 . S
C788 H794 0.930 . S
C789 N791 1.279 . S
C789 C792 1.358 . S
C789 H795 0.930 . S
C790 C788 1.353 . S
C790 C793 1.348 . S
C790 H828 0.929 . S
N791 Li746 1.990 . S
N791 C788 1.314 . S
N791 C789 1.279 . S
C792 C789 1.358 . S
C792 C793 1.356 . S
C792 H829 0.930 . S
C793 C790 1.348 . S
C793 C792 1.356 . S
H794 C788 0.930 . S
H795 C789 0.930 . S
C796 N797 1.314 . S
C796 C798 1.353 . S
C796 H802 0.930 . S
N797 Li747 1.990 . S
N797 C796 1.314 . S
N797 C800 1.279 . S
C798 C796 1.353 . S
C798 C801 1.348 . S
C798 H830 0.929 . S
C799 C800 1.358 . S
C799 C801 1.356 . S
C799 H831 0.930 . S
C800 N797 1.279 . S
C800 C799 1.358 . S
C800 H803 0.930 . S
C801 C798 1.348 . S
C801 C799 1.356 . S
H802 C796 0.930 . S
H803 C800 0.930 . S
O804 Li744 1.956 . S
O804 Li745 1.970 . S
O804 Li746 1.961 . S
O804 C748 1.325 . S
O805 Li744 1.970 . S
O805 Li745 1.956 . S
O805 Li747 1.961 . S
O805 C754 1.325 . S
O806 Li744 1.961 . S
O806 Li746 1.956 . S
O806 Li747 1.970 . S
O806 C776 1.325 . S
O807 Li745 1.961 . S
O807 Li746 1.970 . S
O807 Li747 1.956 . S
O807 C782 1.325 . S
H808 C750 0.929 . S
H809 C751 0.930 . S
H810 C752 0.930 . S
H811 C753 0.930 . S
H812 C755 0.930 . S
H813 C757 0.929 . S
H814 C758 0.930 . S
H815 C759 0.930 . S
H816 C762 0.930 . S
H817 C765 0.929 . S
H818 C770 0.929 . S
H819 C771 0.930 . S
H820 C778 0.929 . S
H821 C779 0.930 . S
H822 C780 0.930 . S
H823 C781 0.930 . S
H824 C783 0.929 . S
H825 C784 0.930 . S
H826 C785 0.930 . S
H827 C786 0.930 . S
H828 C790 0.929 . S
H829 C792 0.930 . S
H830 C798 0.929 . S
H831 C799 0.930 . S
Li832 N849 1.990 . S
Li832 O892 1.956 . S
Li832 O893 1.970 . S
Li832 O894 1.961 . S
Li833 N857 1.990 . S
Li833 O892 1.970 . S
Li833 O893 1.956 . S
Li833 O895 1.961 . S
Li834 N879 1.990 . S
Li834 O892 1.961 . S
Li834 O894 1.956 . S
Li834 O895 1.970 . S
Li835 N885 1.990 . S
Li835 O893 1.961 . S
Li835 O894 1.970 . S
Li835 O895 1.956 . S
C836 C838 1.348 . S
C836 C839 1.356 . S
C836 O892 1.325 . S
N837 C840 1.314 . S
N837 C841 1.279 . S
C838 C836 1.348 . S
C838 C840 1.353 . S
C838 H896 0.929 . S
C839 C836 1.356 . S
C839 C841 1.358 . S
C839 H897 0.930 . S
C840 N837 1.314 . S
C840 C838 1.353 . S
C840 H898 0.930 . S
C841 N837 1.279 . S
C841 C839 1.358 . S
C841 H899 0.930 . S
C842 C845 1.348 . S
C842 C846 1.356 . S
C842 O893 1.325 . S
C843 N844 1.279 . S
C843 C846 1.358 . S
C843 H900 0.930 . S
N844 C843 1.279 . S
N844 C847 1.314 . S
C845 C842 1.348 . S
C845 C847 1.353 . S
C845 H901 0.929 . S
C846 C842 1.356 . S
C846 C843 1.358 . S
C846 H902 0.930 . S
C847 N844 1.314 . S
C847 C845 1.353 . S
C847 H903 0.930 . S
C848 N849 1.314 . S
C848 C853 1.353 . S
C848 H854 0.930 . S
N849 Li832 1.990 . S
N849 C848 1.314 . S
N849 C851 1.279 . S
C850 C851 1.358 . S
C850 C852 1.356 . S
C850 H904 0.930 . S
C851 N849 1.279 . S
C851 C850 1.358 . S
C851 H855 0.930 . S
C852 C850 1.356 . S
C852 C853 1.348 . S
C853 C848 1.353 . S
C853 C852 1.348 . S
C853 H905 0.929 . S
H854 C848 0.930 . S
H855 C851 0.930 . S
C856 N857 1.314 . S
C856 C858 1.353 . S
C856 H862 0.930 . S
N857 Li833 1.990 . S
N857 C856 1.314 . S
N857 C860 1.279 . S
C858 C856 1.353 . S
C858 C861 1.348 . S
C858 H906 0.929 . S
C859 C860 1.358 . S
C859 C861 1.356 . S
C859 H907 0.930 . S
C860 N857 1.279 . S
C860 C859 1.358 . S
C860 H863 0.930 . S
C861 C858 1.348 . S
C861 C859 1.356 . S
H862 C856 0.930 . S
H863 C860 0.930 . S
C864 C866 1.348 . S
C864 C867 1.356 . S
C864 O894 1.325 . S
N865 C868 1.314 . S
N865 C869 1.279 . S
C866 C864 1.348 . S
C866 C868 1.353 . S
C866 H908 0.929 . S
C867 C864 1.356 . S
C867 C869 1.358 . S
C867 H909 0.930 . S
C868 N865 1.314 . S
C868 C866 1.353 . S
C868 H910 0.930 . S
C869 N865 1.279 . S
C869 C867 1.358 . S
C869 H911 0.930 . S
C870 C871 1.348 . S
C870 C872 1.356 . S
C870 O895 1.325 . S
C871 C870 1.348 . S
C871 C873 1.353 . S
C871 H912 0.929 . S
C872 C870 1.356 . S
C872 C874 1.358 . S
C872 H913 0.930 . S
C873 C871 1.353 . S
C873 N875 1.314 . S
C873 H914 0.930 . S
C874 C872 1.358 . S
C874 N875 1.279 . S
C874 H915 0.930 . S
N875 C873 1.314 . S
N875 C874 1.279 . S
C876 C878 1.353 . S
C876 N879 1.314 . S
C876 H882 0.930 . S
C877 N879 1.279 . S
C877 C880 1.358 . S
C877 H883 0.930 . S
C878 C876 1.353 . S
C878 C881 1.348 . S
C878 H916 0.929 . S
N879 Li834 1.990 . S
N879 C876 1.314 . S
N879 C877 1.279 . S
C880 C877 1.358 . S
C880 C881 1.356 . S
C880 H917 0.930 . S
C881 C878 1.348 . S
C881 C880 1.356 . S
H882 C876 0.930 . S
H883 C877 0.930 . S
C884 N885 1.314 . S
C884 C886 1.353 . S
C884 H890 0.930 . S
N885 Li835 1.990 . S
N885 C884 1.314 . S
N885 C888 1.279 . S
C886 C884 1.353 . S
C886 C889 1.348 . S
C886 H918 0.929 . S
C887 C888 1.358 . S
C887 C889 1.356 . S
C887 H919 0.930 . S
C888 N885 1.279 . S
C888 C887 1.358 . S
C888 H891 0.930 . S
C889 C886 1.348 . S
C889 C887 1.356 . S
H890 C884 0.930 . S
H891 C888 0.930 . S
O892 Li832 1.956 . S
O892 Li833 1.970 . S
O892 Li834 1.961 . S
O892 C836 1.325 . S
O893 Li832 1.970 . S
O893 Li833 1.956 . S
O893 Li835 1.961 . S
O893 C842 1.325 . S
O894 Li832 1.961 . S
O894 Li834 1.956 . S
O894 Li835 1.970 . S
O894 C864 1.325 . S
O895 Li833 1.961 . S
O895 Li834 1.970 . S
O895 Li835 1.956 . S
O895 C870 1.325 . S
H896 C838 0.929 . S
H897 C839 0.930 . S
H898 C840 0.930 . S
H899 C841 0.930 . S
H900 C843 0.930 . S
H901 C845 0.929 . S
H902 C846 0.930 . S
H903 C847 0.930 . S
H904 C850 0.930 . S
H905 C853 0.929 . S
H906 C858 0.929 . S
H907 C859 0.930 . S
H908 C866 0.929 . S
H909 C867 0.930 . S
H910 C868 0.930 . S
H911 C869 0.930 . S
H912 C871 0.929 . S
H913 C872 0.930 . S
H914 C873 0.930 . S
H915 C874 0.930 . S
H916 C878 0.929 . S
H917 C880 0.930 . S
H918 C886 0.929 . S
H919 C887 0.930 . S
Li920 N937 1.990 1_545 S
Li920 O980 1.956 . S
Li920 O981 1.970 . S
Li920 O982 1.961 . S
Li921 N945 1.990 . S
Li921 O980 1.970 . S
Li921 O981 1.956 . S
Li921 O983 1.961 . S
Li922 N967 1.990 . S
Li922 O980 1.961 . S
Li922 O982 1.956 . S
Li922 O983 1.970 . S
Li923 N973 1.990 . S
Li923 O981 1.961 . S
Li923 O982 1.970 . S
Li923 O983 1.956 . S
C924 C926 1.348 . S
C924 C927 1.356 . S
C924 O980 1.325 1_565 S
N925 C928 1.314 . S
N925 C929 1.279 . S
C926 C924 1.348 . S
C926 C928 1.353 . S
C926 H984 0.929 . S
C927 C924 1.356 . S
C927 C929 1.358 . S
C927 H985 0.930 . S
C928 N925 1.314 . S
C928 C926 1.353 . S
C928 H986 0.930 . S
C929 N925 1.279 . S
C929 C927 1.358 . S
C929 H987 0.930 . S
C930 C933 1.348 . S
C930 C934 1.356 . S
C930 O981 1.325 . S
C931 N932 1.279 . S
C931 C934 1.358 . S
C931 H988 0.930 . S
N932 C931 1.279 . S
N932 C935 1.314 . S
C933 C930 1.348 . S
C933 C935 1.353 . S
C933 H989 0.929 . S
C934 C930 1.356 . S
C934 C931 1.358 . S
C934 H990 0.930 . S
C935 N932 1.314 . S
C935 C933 1.353 . S
C935 H991 0.930 . S
C936 N937 1.314 . S
C936 C941 1.353 . S
C936 H942 0.930 . S
N937 Li920 1.990 1_565 S
N937 C936 1.314 . S
N937 C939 1.279 . S
C938 C939 1.358 . S
C938 C940 1.356 . S
C938 H992 0.930 . S
C939 N937 1.279 . S
C939 C938 1.358 . S
C939 H943 0.930 . S
C940 C938 1.356 . S
C940 C941 1.348 . S
C941 C936 1.353 . S
C941 C940 1.348 . S
C941 H993 0.929 . S
H942 C936 0.930 . S
H943 C939 0.930 . S
C944 N945 1.314 . S
C944 C946 1.353 . S
C944 H950 0.930 . S
N945 Li921 1.990 . S
N945 C944 1.314 . S
N945 C948 1.279 . S
C946 C944 1.353 . S
C946 C949 1.348 . S
C946 H994 0.929 . S
C947 C948 1.358 . S
C947 C949 1.356 . S
C947 H995 0.930 . S
C948 N945 1.279 . S
C948 C947 1.358 . S
C948 H951 0.930 . S
C949 C946 1.348 . S
C949 C947 1.356 . S
H950 C944 0.930 . S
H951 C948 0.930 . S
C952 C954 1.348 . S
C952 C955 1.356 1_545 S
C952 O982 1.325 . S
N953 C956 1.314 . S
N953 C957 1.279 1_545 S
C954 C952 1.348 . S
C954 C956 1.353 . S
C954 H996 0.929 . S
C955 C952 1.356 1_565 S
C955 C957 1.358 . S
C955 H997 0.930 . S
C956 N953 1.314 . S
C956 C954 1.353 . S
C956 H998 0.930 . S
C957 N953 1.279 1_565 S
C957 C955 1.358 . S
C957 H999 0.930 . S
C958 C959 1.348 . S
C958 C960 1.356 . S
C958 O983 1.325 . S
C959 C958 1.348 . S
C959 C961 1.353 . S
C959 H1000 0.929 . S
C960 C958 1.356 . S
C960 C962 1.358 . S
C960 H1001 0.930 . S
C961 C959 1.353 . S
C961 N963 1.314 . S
C961 H1002 0.930 . S
C962 C960 1.358 . S
C962 N963 1.279 . S
C962 H1003 0.930 . S
N963 C961 1.314 . S
N963 C962 1.279 . S
C964 C966 1.352 1_545 S
C964 N967 1.314 . S
C964 H970 0.930 . S
C965 N967 1.279 . S
C965 C968 1.358 . S
C965 H971 0.930 . S
C966 C964 1.352 1_565 S
C966 C969 1.340 1_565 S
C966 H1004 0.940 . S
N967 Li922 1.990 . S
N967 C964 1.314 . S
N967 C965 1.279 . S
C968 C965 1.358 . S
C968 C969 1.356 . S
C968 H1005 0.930 . S
C969 C966 1.340 1_545 S
C969 C968 1.356 . S
H970 C964 0.930 . S
H971 C965 0.930 . S
C972 N973 1.314 . S
C972 C974 1.353 . S
C972 H978 0.930 . S
N973 Li923 1.990 . S
N973 C972 1.314 . S
N973 C976 1.279 . S
C974 C972 1.353 . S
C974 C977 1.348 . S
C974 H1006 0.929 . S
C975 C976 1.358 . S
C975 C977 1.356 . S
C975 H1007 0.930 . S
C976 N973 1.279 . S
C976 C975 1.358 . S
C976 H979 0.930 . S
C977 C974 1.348 . S
C977 C975 1.356 . S
H978 C972 0.930 . S
H979 C976 0.930 . S
O980 Li920 1.956 . S
O980 Li921 1.970 . S
O980 Li922 1.961 . S
O980 C924 1.325 1_545 S
O981 Li920 1.970 . S
O981 Li921 1.956 . S
O981 Li923 1.961 . S
O981 C930 1.325 . S
O982 Li920 1.961 . S
O982 Li922 1.956 . S
O982 Li923 1.970 . S
O982 C952 1.325 . S
O983 Li921 1.961 . S
O983 Li922 1.970 . S
O983 Li923 1.956 . S
O983 C958 1.325 . S
H984 C926 0.929 . S
H985 C927 0.930 . S
H986 C928 0.930 . S
H987 C929 0.930 . S
H988 C931 0.930 . S
H989 C933 0.929 . S
H990 C934 0.930 . S
H991 C935 0.930 . S
H992 C938 0.930 . S
H993 C941 0.929 . S
H994 C946 0.929 . S
H995 C947 0.930 . S
H996 C954 0.929 . S
H997 C955 0.930 . S
H998 C956 0.930 . S
H999 C957 0.930 . S
H1000 C959 0.929 . S
H1001 C960 0.930 . S
H1002 C961 0.930 . S
H1003 C962 0.930 . S
H1004 C966 0.940 . S
H1005 C968 0.930 . S
H1006 C974 0.929 . S
H1007 C975 0.930 . S
Li1008 N1025 1.990 . S
Li1008 O1068 1.956 . S
Li1008 O1069 1.970 . S
Li1008 O1070 1.961 . S
Li1009 N1033 1.990 . S
Li1009 O1068 1.970 . S
Li1009 O1069 1.956 . S
Li1009 O1071 1.961 1_455 S
Li1010 N1055 1.990 . S
Li1010 O1068 1.961 . S
Li1010 O1070 1.956 . S
Li1010 O1071 1.970 1_455 S
Li1011 N1061 1.990 . S
Li1011 O1069 1.961 1_655 S
Li1011 O1070 1.970 1_655 S
Li1011 O1071 1.956 . S
C1012 C1014 1.348 . S
C1012 C1015 1.356 . S
C1012 O1068 1.325 . S
N1013 C1016 1.314 . S
N1013 C1017 1.279 . S
C1014 C1012 1.348 . S
C1014 C1016 1.353 . S
C1014 H1072 0.929 . S
C1015 C1012 1.356 . S
C1015 C1017 1.358 . S
C1015 H1073 0.930 . S
C1016 N1013 1.314 . S
C1016 C1014 1.353 . S
C1016 H1074 0.930 . S
C1017 N1013 1.279 . S
C1017 C1015 1.358 . S
C1017 H1075 0.930 . S
C1018 C1021 1.348 . S
C1018 C1022 1.356 1_455 S
C1018 O1069 1.325 . S
C1019 N1020 1.246 1_655 S
C1019 C1022 1.358 . S
C1019 H1076 0.930 . S
N1020 C1019 1.246 1_455 S
N1020 C1023 1.354 . S
C1021 C1018 1.348 . S
C1021 C1023 1.353 . S
C1021 H1077 0.929 . S
C1022 C1018 1.356 1_655 S
C1022 C1019 1.358 . S
C1022 H1078 0.930 . S
C1023 N1020 1.354 . S
C1023 C1021 1.353 . S
C1023 H1079 0.930 . S
C1024 N1025 1.314 . S
C1024 C1029 1.353 . S
C1024 H1030 0.930 . S
N1025 Li1008 1.990 . S
N1025 C1024 1.314 . S
N1025 C1027 1.279 . S
C1026 C1027 1.358 . S
C1026 C1028 1.356 . S
C1026 H1080 0.930 . S
C1027 N1025 1.279 . S
C1027 C1026 1.358 . S
C1027 H1031 0.930 . S
C1028 C1026 1.356 . S
C1028 C1029 1.348 . S
C1029 C1024 1.353 . S
C1029 C1028 1.348 . S
C1029 H1081 0.929 . S
H1030 C1024 0.930 . S
H1031 C1027 0.930 . S
C1032 N1033 1.314 1_655 S
C1032 C1034 1.353 . S
C1032 H1038 0.930 . S
N1033 Li1009 1.990 . S
N1033 C1032 1.314 1_455 S
N1033 C1036 1.279 . S
C1034 C1032 1.353 . S
C1034 C1037 1.348 1_655 S
C1034 H1082 0.929 . S
C1035 C1036 1.358 . S
C1035 C1037 1.356 . S
C1035 H1083 0.930 . S
C1036 N1033 1.279 . S
C1036 C1035 1.358 . S
C1036 H1039 0.930 . S
C1037 C1034 1.348 1_455 S
C1037 C1035 1.356 . S
H1038 C1032 0.930 . S
H1039 C1036 0.930 . S
C1040 C1042 1.348 1_455 S
C1040 C1043 1.356 . S
C1040 O1070 1.325 . S
N1041 C1044 1.314 1_455 S
N1041 C1045 1.279 . S
C1042 C1040 1.348 1_655 S
C1042 C1044 1.353 . S
C1042 H1084 0.929 . S
C1043 C1040 1.356 . S
C1043 C1045 1.358 . S
C1043 H1085 0.930 . S
C1044 N1041 1.314 1_655 S
C1044 C1042 1.353 . S
C1044 H1086 0.930 . S
C1045 N1041 1.279 . S
C1045 C1043 1.358 . S
C1045 H1087 0.930 . S
C1046 C1047 1.348 . S
C1046 C1048 1.356 . S
C1046 O1071 1.325 . S
C1047 C1046 1.348 . S
C1047 C1049 1.353 . S
C1047 H1088 0.929 . S
C1048 C1046 1.356 . S
C1048 C1050 1.358 . S
C1048 H1089 0.930 . S
C1049 C1047 1.353 . S
C1049 N1051 1.314 . S
C1049 H1090 0.930 . S
C1050 C1048 1.358 . S
C1050 N1051 1.279 . S
C1050 H1091 0.930 . S
N1051 C1049 1.314 . S
N1051 C1050 1.279 . S
C1052 C1054 1.353 . S
C1052 N1055 1.314 . S
C1052 H1058 0.930 . S
C1053 N1055 1.279 . S
C1053 C1056 1.358 . S
C1053 H1059 0.930 . S
C1054 C1052 1.353 . S
C1054 C1057 1.348 . S
C1054 H1092 0.929 . S
N1055 Li1010 1.990 . S
N1055 C1052 1.314 . S
N1055 C1053 1.279 . S
C1056 C1053 1.358 . S
C1056 C1057 1.356 . S
C1056 H1093 0.930 . S
C1057 C1054 1.348 . S
C1057 C1056 1.356 . S
H1058 C1052 0.930 . S
H1059 C1053 0.930 . S
C1060 N1061 1.314 . S
C1060 C1062 1.353 . S
C1060 H1066 0.930 . S
N1061 Li1011 1.990 . S
N1061 C1060 1.314 . S
N1061 C1064 1.279 . S
C1062 C1060 1.353 . S
C1062 C1065 1.348 . S
C1062 H1094 0.929 . S
C1063 C1064 1.358 . S
C1063 C1065 1.356 . S
C1063 H1095 0.930 . S
C1064 N1061 1.279 . S
C1064 C1063 1.358 . S
C1064 H1067 0.930 . S
C1065 C1062 1.348 . S
C1065 C1063 1.356 . S
H1066 C1060 0.930 . S
H1067 C1064 0.930 . S
O1068 Li1008 1.956 . S
O1068 Li1009 1.970 . S
O1068 Li1010 1.961 . S
O1068 C1012 1.325 . S
O1069 Li1008 1.970 . S
O1069 Li1009 1.956 . S
O1069 Li1011 1.961 1_455 S
O1069 C1018 1.325 . S
O1070 Li1008 1.961 . S
O1070 Li1010 1.956 . S
O1070 Li1011 1.970 1_455 S
O1070 C1040 1.325 . S
O1071 Li1009 1.961 1_655 S
O1071 Li1010 1.970 1_655 S
O1071 Li1011 1.956 . S
O1071 C1046 1.325 . S
H1072 C1014 0.929 . S
H1073 C1015 0.930 . S
H1074 C1016 0.930 . S
H1075 C1017 0.930 . S
H1076 C1019 0.930 . S
H1077 C1021 0.929 . S
H1078 C1022 0.930 . S
H1079 C1023 0.930 . S
H1080 C1026 0.930 . S
H1081 C1029 0.929 . S
H1082 C1034 0.929 . S
H1083 C1035 0.930 . S
H1084 C1042 0.929 . S
H1085 C1043 0.930 . S
H1086 C1044 0.930 . S
H1087 C1045 0.930 . S
H1088 C1047 0.929 . S
H1089 C1048 0.930 . S
H1090 C1049 0.930 . S
H1091 C1050 0.930 . S
H1092 C1054 0.929 . S
H1093 C1056 0.930 . S
H1094 C1062 0.929 . S
H1095 C1063 0.930 . S
Li1096 N1113 1.990 . S
Li1096 O1156 1.956 . S
Li1096 O1157 1.970 . S
Li1096 O1158 1.961 . S
Li1097 N1121 1.990 . S
Li1097 O1156 1.970 . S
Li1097 O1157 1.956 . S
Li1097 O1159 1.961 . S
Li1098 N1143 1.990 . S
Li1098 O1156 1.961 . S
Li1098 O1158 1.956 . S
Li1098 O1159 1.970 . S
Li1099 N1149 1.990 . S
Li1099 O1157 1.961 . S
Li1099 O1158 1.970 . S
Li1099 O1159 1.956 . S
C1100 C1102 1.348 . S
C1100 C1103 1.356 . S
C1100 O1156 1.325 . S
N1101 C1104 1.314 . S
N1101 C1105 1.279 . S
C1102 C1100 1.348 . S
C1102 C1104 1.353 . S
C1102 H1160 0.929 . S
C1103 C1100 1.356 . S
C1103 C1105 1.358 . S
C1103 H1161 0.930 . S
C1104 N1101 1.314 . S
C1104 C1102 1.353 . S
C1104 H1162 0.930 . S
C1105 N1101 1.279 . S
C1105 C1103 1.358 . S
C1105 H1163 0.930 . S
C1106 C1109 1.348 . S
C1106 C1110 1.356 . S
C1106 O1157 1.325 . S
C1107 N1108 1.279 . S
C1107 C1110 1.358 . S
C1107 H1164 0.930 . S
N1108 C1107 1.279 . S
N1108 C1111 1.314 . S
C1109 C1106 1.348 . S
C1109 C1111 1.353 . S
C1109 H1165 0.929 . S
C1110 C1106 1.356 . S
C1110 C1107 1.358 . S
C1110 H1166 0.930 . S
C1111 N1108 1.314 . S
C1111 C1109 1.353 . S
C1111 H1167 0.930 . S
C1112 N1113 1.314 . S
C1112 C1117 1.353 . S
C1112 H1118 0.930 . S
N1113 Li1096 1.990 . S
N1113 C1112 1.314 . S
N1113 C1115 1.279 . S
C1114 C1115 1.358 . S
C1114 C1116 1.356 . S
C1114 H1168 0.930 . S
C1115 N1113 1.279 . S
C1115 C1114 1.358 . S
C1115 H1119 0.930 . S
C1116 C1114 1.356 . S
C1116 C1117 1.348 . S
C1117 C1112 1.353 . S
C1117 C1116 1.348 . S
C1117 H1169 0.929 . S
H1118 C1112 0.930 . S
H1119 C1115 0.930 . S
C1120 N1121 1.314 . S
C1120 C1122 1.353 . S
C1120 H1126 0.930 . S
N1121 Li1097 1.990 . S
N1121 C1120 1.314 . S
N1121 C1124 1.279 . S
C1122 C1120 1.353 . S
C1122 C1125 1.348 . S
C1122 H1170 0.929 . S
C1123 C1124 1.358 . S
C1123 C1125 1.356 . S
C1123 H1171 0.930 . S
C1124 N1121 1.279 . S
C1124 C1123 1.358 . S
C1124 H1127 0.930 . S
C1125 C1122 1.348 . S
C1125 C1123 1.356 . S
H1126 C1120 0.930 . S
H1127 C1124 0.930 . S
C1128 C1130 1.348 . S
C1128 C1131 1.356 . S
C1128 O1158 1.325 . S
N1129 C1132 1.314 . S
N1129 C1133 1.279 . S
C1130 C1128 1.348 . S
C1130 C1132 1.353 . S
C1130 H1172 0.929 . S
C1131 C1128 1.356 . S
C1131 C1133 1.358 . S
C1131 H1173 0.930 . S
C1132 N1129 1.314 . S
C1132 C1130 1.353 . S
C1132 H1174 0.930 . S
C1133 N1129 1.279 . S
C1133 C1131 1.358 . S
C1133 H1175 0.930 . S
C1134 C1135 1.348 . S
C1134 C1136 1.356 . S
C1134 O1159 1.325 . S
C1135 C1134 1.348 . S
C1135 C1137 1.353 . S
C1135 H1176 0.929 . S
C1136 C1134 1.356 . S
C1136 C1138 1.358 . S
C1136 H1177 0.930 . S
C1137 C1135 1.353 . S
C1137 N1139 1.314 . S
C1137 H1178 0.930 . S
C1138 C1136 1.358 . S
C1138 N1139 1.279 . S
C1138 H1179 0.930 . S
N1139 C1137 1.314 . S
N1139 C1138 1.279 . S
C1140 C1142 1.353 . S
C1140 N1143 1.314 . S
C1140 H1146 0.930 . S
C1141 N1143 1.279 . S
C1141 C1144 1.358 . S
C1141 H1147 0.930 . S
C1142 C1140 1.353 . S
C1142 C1145 1.348 . S
C1142 H1180 0.929 . S
N1143 Li1098 1.990 . S
N1143 C1140 1.314 . S
N1143 C1141 1.279 . S
C1144 C1141 1.358 . S
C1144 C1145 1.356 . S
C1144 H1181 0.930 . S
C1145 C1142 1.348 . S
C1145 C1144 1.356 . S
H1146 C1140 0.930 . S
H1147 C1141 0.930 . S
C1148 N1149 1.314 . S
C1148 C1150 1.353 . S
C1148 H1154 0.930 . S
N1149 Li1099 1.990 . S
N1149 C1148 1.314 . S
N1149 C1152 1.279 . S
C1150 C1148 1.353 . S
C1150 C1153 1.348 . S
C1150 H1182 0.929 . S
C1151 C1152 1.358 . S
C1151 C1153 1.356 . S
C1151 H1183 0.930 . S
C1152 N1149 1.279 . S
C1152 C1151 1.358 . S
C1152 H1155 0.930 . S
C1153 C1150 1.348 . S
C1153 C1151 1.356 . S
H1154 C1148 0.930 . S
H1155 C1152 0.930 . S
O1156 Li1096 1.956 . S
O1156 Li1097 1.970 . S
O1156 Li1098 1.961 . S
O1156 C1100 1.325 . S
O1157 Li1096 1.970 . S
O1157 Li1097 1.956 . S
O1157 Li1099 1.961 . S
O1157 C1106 1.325 . S
O1158 Li1096 1.961 . S
O1158 Li1098 1.956 . S
O1158 Li1099 1.970 . S
O1158 C1128 1.325 . S
O1159 Li1097 1.961 . S
O1159 Li1098 1.970 . S
O1159 Li1099 1.956 . S
O1159 C1134 1.325 . S
H1160 C1102 0.929 . S
H1161 C1103 0.930 . S
H1162 C1104 0.930 . S
H1163 C1105 0.930 . S
H1164 C1107 0.930 . S
H1165 C1109 0.929 . S
H1166 C1110 0.930 . S
H1167 C1111 0.930 . S
H1168 C1114 0.930 . S
H1169 C1117 0.929 . S
H1170 C1122 0.929 . S
H1171 C1123 0.930 . S
H1172 C1130 0.929 . S
H1173 C1131 0.930 . S
H1174 C1132 0.930 . S
H1175 C1133 0.930 . S
H1176 C1135 0.929 . S
H1177 C1136 0.930 . S
H1178 C1137 0.930 . S
H1179 C1138 0.930 . S
H1180 C1142 0.929 . S
H1181 C1144 0.930 . S
H1182 C1150 0.929 . S
H1183 C1151 0.930 . S
Li1184 N1201 1.990 . S
Li1184 O1244 1.956 . S
Li1184 O1245 1.970 1_455 S
Li1184 O1246 1.961 . S
Li1185 N1209 1.990 . S
Li1185 O1244 1.970 1_655 S
Li1185 O1245 1.956 . S
Li1185 O1247 1.961 . S
Li1186 N1231 1.990 . S
Li1186 O1244 1.961 . S
Li1186 O1246 1.956 . S
Li1186 O1247 1.970 1_455 S
Li1187 N1237 1.990 . S
Li1187 O1245 1.961 . S
Li1187 O1246 1.970 1_655 S
Li1187 O1247 1.956 . S
C1188 C1190 1.348 1_455 S
C1188 C1191 1.356 . S
C1188 O1244 1.325 . S
N1189 C1192 1.321 . S
N1189 C1193 1.279 . S
C1190 C1188 1.348 1_655 S
C1190 C1192 1.352 1_655 S
C1190 H1248 0.929 . S
C1191 C1188 1.356 . S
C1191 C1193 1.358 . S
C1191 H1249 0.930 . S
C1192 N1189 1.321 . S
C1192 C1190 1.352 1_455 S
C1192 H1250 0.923 1_455 S
C1193 N1189 1.279 . S
C1193 C1191 1.358 . S
C1193 H1251 0.930 . S
C1194 C1197 1.348 . S
C1194 C1198 1.356 . S
C1194 O1245 1.325 . S
C1195 N1196 1.279 . S
C1195 C1198 1.358 . S
C1195 H1252 0.930 . S
N1196 C1195 1.279 . S
N1196 C1199 1.314 . S
C1197 C1194 1.348 . S
C1197 C1199 1.353 . S
C1197 H1253 0.929 . S
C1198 C1194 1.356 . S
C1198 C1195 1.358 . S
C1198 H1254 0.930 . S
C1199 N1196 1.314 . S
C1199 C1197 1.353 . S
C1199 H1255 0.930 . S
C1200 N1201 1.314 . S
C1200 C1205 1.353 . S
C1200 H1206 0.930 . S
N1201 Li1184 1.990 . S
N1201 C1200 1.314 . S
N1201 C1203 1.279 . S
C1202 C1203 1.358 . S
C1202 C1204 1.356 . S
C1202 H1256 0.930 . S
C1203 N1201 1.279 . S
C1203 C1202 1.358 . S
C1203 H1207 0.930 . S
C1204 C1202 1.356 . S
C1204 C1205 1.348 . S
C1205 C1200 1.353 . S
C1205 C1204 1.348 . S
C1205 H1257 0.929 . S
H1206 C1200 0.930 . S
H1207 C1203 0.930 . S
C1208 N1209 1.314 . S
C1208 C1210 1.353 . S
C1208 H1214 0.930 . S
N1209 Li1185 1.990 . S
N1209 C1208 1.314 . S
N1209 C1212 1.279 . S
C1210 C1208 1.353 . S
C1210 C1213 1.348 . S
C1210 H1258 0.929 . S
C1211 C1212 1.358 . S
C1211 C1213 1.356 . S
C1211 H1259 0.930 . S
C1212 N1209 1.279 . S
C1212 C1211 1.358 . S
C1212 H1215 0.930 . S
C1213 C1210 1.348 . S
C1213 C1211 1.356 . S
H1214 C1208 0.930 . S
H1215 C1212 0.930 . S
C1216 C1218 1.348 . S
C1216 C1219 1.356 . S
C1216 O1246 1.325 . S
N1217 C1220 1.314 . S
N1217 C1221 1.279 . S
C1218 C1216 1.348 . S
C1218 C1220 1.353 . S
C1218 H1260 0.929 . S
C1219 C1216 1.356 . S
C1219 C1221 1.358 . S
C1219 H1261 0.930 . S
C1220 N1217 1.314 . S
C1220 C1218 1.353 . S
C1220 H1262 0.930 . S
C1221 N1217 1.279 . S
C1221 C1219 1.358 . S
C1221 H1263 0.930 . S
C1222 C1223 1.348 1_655 S
C1222 C1224 1.356 . S
C1222 O1247 1.325 . S
C1223 C1222 1.348 1_455 S
C1223 C1225 1.353 1_455 S
C1223 H1264 0.929 . S
C1224 C1222 1.356 . S
C1224 C1226 1.358 . S
C1224 H1265 0.930 . S
C1225 C1223 1.353 1_655 S
C1225 N1227 1.314 . S
C1225 H1266 0.930 1_655 S
C1226 C1224 1.358 . S
C1226 N1227 1.279 . S
C1226 H1267 0.930 . S
N1227 C1225 1.314 . S
N1227 C1226 1.279 . S
C1228 C1230 1.353 . S
C1228 N1231 1.314 . S
C1228 H1234 0.930 . S
C1229 N1231 1.279 . S
C1229 C1232 1.358 . S
C1229 H1235 0.930 . S
C1230 C1228 1.353 . S
C1230 C1233 1.348 . S
C1230 H1268 0.929 . S
N1231 Li1186 1.990 . S
N1231 C1228 1.314 . S
N1231 C1229 1.279 . S
C1232 C1229 1.358 . S
C1232 C1233 1.356 . S
C1232 H1269 0.930 . S
C1233 C1230 1.348 . S
C1233 C1232 1.356 . S
H1234 C1228 0.930 . S
H1235 C1229 0.930 . S
C1236 N1237 1.314 . S
C1236 C1238 1.353 . S
C1236 H1242 0.930 . S
N1237 Li1187 1.990 . S
N1237 C1236 1.314 . S
N1237 C1240 1.279 . S
C1238 C1236 1.353 . S
C1238 C1241 1.348 . S
C1238 H1270 0.929 . S
C1239 C1240 1.358 . S
C1239 C1241 1.356 . S
C1239 H1271 0.930 . S
C1240 N1237 1.279 . S
C1240 C1239 1.358 . S
C1240 H1243 0.930 . S
C1241 C1238 1.348 . S
C1241 C1239 1.356 . S
H1242 C1236 0.930 . S
H1243 C1240 0.930 . S
O1244 Li1184 1.956 . S
O1244 Li1185 1.970 1_455 S
O1244 Li1186 1.961 . S
O1244 C1188 1.325 . S
O1245 Li1184 1.970 1_655 S
O1245 Li1185 1.956 . S
O1245 Li1187 1.961 . S
O1245 C1194 1.325 . S
O1246 Li1184 1.961 . S
O1246 Li1186 1.956 . S
O1246 Li1187 1.970 1_455 S
O1246 C1216 1.325 . S
O1247 Li1185 1.961 . S
O1247 Li1186 1.970 1_655 S
O1247 Li1187 1.956 . S
O1247 C1222 1.325 . S
H1248 C1190 0.929 . S
H1249 C1191 0.930 . S
H1250 C1192 0.923 1_655 S
H1251 C1193 0.930 . S
H1252 C1195 0.930 . S
H1253 C1197 0.929 . S
H1254 C1198 0.930 . S
H1255 C1199 0.930 . S
H1256 C1202 0.930 . S
H1257 C1205 0.929 . S
H1258 C1210 0.929 . S
H1259 C1211 0.930 . S
H1260 C1218 0.929 . S
H1261 C1219 0.930 . S
H1262 C1220 0.930 . S
H1263 C1221 0.930 . S
H1264 C1223 0.929 . S
H1265 C1224 0.930 . S
H1266 C1225 0.930 1_455 S
H1267 C1226 0.930 . S
H1268 C1230 0.929 . S
H1269 C1232 0.930 . S
H1270 C1238 0.929 . S
H1271 C1239 0.930 . S
Li1272 N1289 1.990 . S
Li1272 O1332 1.956 . S
Li1272 O1333 1.970 . S
Li1272 O1334 1.961 . S
Li1273 N1297 1.990 . S
Li1273 O1332 1.970 . S
Li1273 O1333 1.956 . S
Li1273 O1335 1.961 . S
Li1274 N1319 1.990 . S
Li1274 O1332 1.961 . S
Li1274 O1334 1.956 . S
Li1274 O1335 1.970 . S
Li1275 N1325 1.990 . S
Li1275 O1333 1.961 . S
Li1275 O1334 1.970 . S
Li1275 O1335 1.956 . S
C1276 C1278 1.348 . S
C1276 C1279 1.356 . S
C1276 O1332 1.325 . S
N1277 C1280 1.314 . S
N1277 C1281 1.279 . S
C1278 C1276 1.348 . S
C1278 C1280 1.353 . S
C1278 H1336 0.929 . S
C1279 C1276 1.356 . S
C1279 C1281 1.358 . S
C1279 H1337 0.930 . S
C1280 N1277 1.314 . S
C1280 C1278 1.353 . S
C1280 H1338 0.930 . S
C1281 N1277 1.279 . S
C1281 C1279 1.358 . S
C1281 H1339 0.930 . S
C1282 C1285 1.348 . S
C1282 C1286 1.356 . S
C1282 O1333 1.325 . S
C1283 N1284 1.279 . S
C1283 C1286 1.358 . S
C1283 H1340 0.930 . S
N1284 C1283 1.279 . S
N1284 C1287 1.314 . S
C1285 C1282 1.348 . S
C1285 C1287 1.353 . S
C1285 H1341 0.929 . S
C1286 C1282 1.356 . S
C1286 C1283 1.358 . S
C1286 H1342 0.930 . S
C1287 N1284 1.314 . S
C1287 C1285 1.353 . S
C1287 H1343 0.930 . S
C1288 N1289 1.314 . S
C1288 C1293 1.353 . S
C1288 H1294 0.930 . S
N1289 Li1272 1.990 . S
N1289 C1288 1.314 . S
N1289 C1291 1.279 . S
C1290 C1291 1.358 . S
C1290 C1292 1.356 . S
C1290 H1344 0.930 . S
C1291 N1289 1.279 . S
C1291 C1290 1.358 . S
C1291 H1295 0.930 . S
C1292 C1290 1.356 . S
C1292 C1293 1.348 . S
C1293 C1288 1.353 . S
C1293 C1292 1.348 . S
C1293 H1345 0.929 . S
H1294 C1288 0.930 . S
H1295 C1291 0.930 . S
C1296 N1297 1.314 . S
C1296 C1298 1.353 . S
C1296 H1302 0.930 . S
N1297 Li1273 1.990 . S
N1297 C1296 1.314 . S
N1297 C1300 1.279 . S
C1298 C1296 1.353 . S
C1298 C1301 1.348 . S
C1298 H1346 0.929 . S
C1299 C1300 1.358 . S
C1299 C1301 1.356 . S
C1299 H1347 0.930 . S
C1300 N1297 1.279 . S
C1300 C1299 1.358 . S
C1300 H1303 0.930 . S
C1301 C1298 1.348 . S
C1301 C1299 1.356 . S
H1302 C1296 0.930 . S
H1303 C1300 0.930 . S
C1304 C1306 1.348 . S
C1304 C1307 1.356 . S
C1304 O1334 1.325 . S
N1305 C1308 1.314 . S
N1305 C1309 1.279 . S
C1306 C1304 1.348 . S
C1306 C1308 1.353 . S
C1306 H1348 0.929 . S
C1307 C1304 1.356 . S
C1307 C1309 1.358 . S
C1307 H1349 0.930 . S
C1308 N1305 1.314 . S
C1308 C1306 1.353 . S
C1308 H1350 0.930 . S
C1309 N1305 1.279 . S
C1309 C1307 1.358 . S
C1309 H1351 0.930 . S
C1310 C1311 1.348 . S
C1310 C1312 1.356 . S
C1310 O1335 1.325 . S
C1311 C1310 1.348 . S
C1311 C1313 1.353 . S
C1311 H1352 0.929 . S
C1312 C1310 1.356 . S
C1312 C1314 1.358 . S
C1312 H1353 0.930 . S
C1313 C1311 1.353 . S
C1313 N1315 1.314 . S
C1313 H1354 0.930 . S
C1314 C1312 1.358 . S
C1314 N1315 1.279 . S
C1314 H1355 0.930 . S
N1315 C1313 1.314 . S
N1315 C1314 1.279 . S
C1316 C1318 1.353 . S
C1316 N1319 1.314 . S
C1316 H1322 0.930 . S
C1317 N1319 1.279 . S
C1317 C1320 1.358 . S
C1317 H1323 0.930 . S
C1318 C1316 1.353 . S
C1318 C1321 1.348 . S
C1318 H1356 0.929 . S
N1319 Li1274 1.990 . S
N1319 C1316 1.314 . S
N1319 C1317 1.279 . S
C1320 C1317 1.358 . S
C1320 C1321 1.356 . S
C1320 H1357 0.930 . S
C1321 C1318 1.348 . S
C1321 C1320 1.356 . S
H1322 C1316 0.930 . S
H1323 C1317 0.930 . S
C1324 N1325 1.314 . S
C1324 C1326 1.353 . S
C1324 H1330 0.930 . S
N1325 Li1275 1.990 . S
N1325 C1324 1.314 . S
N1325 C1328 1.279 . S
C1326 C1324 1.353 . S
C1326 C1329 1.348 . S
C1326 H1358 0.929 . S
C1327 C1328 1.358 . S
C1327 C1329 1.356 . S
C1327 H1359 0.930 . S
C1328 N1325 1.279 . S
C1328 C1327 1.358 . S
C1328 H1331 0.930 . S
C1329 C1326 1.348 . S
C1329 C1327 1.356 . S
H1330 C1324 0.930 . S
H1331 C1328 0.930 . S
O1332 Li1272 1.956 . S
O1332 Li1273 1.970 . S
O1332 Li1274 1.961 . S
O1332 C1276 1.325 . S
O1333 Li1272 1.970 . S
O1333 Li1273 1.956 . S
O1333 Li1275 1.961 . S
O1333 C1282 1.325 . S
O1334 Li1272 1.961 . S
O1334 Li1274 1.956 . S
O1334 Li1275 1.970 . S
O1334 C1304 1.325 . S
O1335 Li1273 1.961 . S
O1335 Li1274 1.970 . S
O1335 Li1275 1.956 . S
O1335 C1310 1.325 . S
H1336 C1278 0.929 . S
H1337 C1279 0.930 . S
H1338 C1280 0.930 . S
H1339 C1281 0.930 . S
H1340 C1283 0.930 . S
H1341 C1285 0.929 . S
H1342 C1286 0.930 . S
H1343 C1287 0.930 . S
H1344 C1290 0.930 . S
H1345 C1293 0.929 . S
H1346 C1298 0.929 . S
H1347 C1299 0.930 . S
H1348 C1306 0.929 . S
H1349 C1307 0.930 . S
H1350 C1308 0.930 . S
H1351 C1309 0.930 . S
H1352 C1311 0.929 . S
H1353 C1312 0.930 . S
H1354 C1313 0.930 . S
H1355 C1314 0.930 . S
H1356 C1318 0.929 . S
H1357 C1320 0.930 . S
H1358 C1326 0.929 . S
H1359 C1327 0.930 . S
H1360 C1366 0.930 . S
H1361 C1370 0.930 . S
H1362 C1375 0.929 . S
H1363 C1373 0.929 . S
H1364 C1368 0.929 . S
H1365 C1374 0.929 . S
C1366 H1360 0.930 . S
C1366 C1367 1.367 . S
C1366 C1374 1.378 . S
C1367 C1366 1.367 . S
C1367 C1375 1.433 . S
C1368 H1364 0.929 . S
C1368 C1370 1.378 . S
C1368 C1372 1.350 . S
C1369 C1372 1.463 . S
C1369 C1374 1.350 . S
C1369 N1377 1.427 . S
C1370 H1361 0.930 . S
C1370 C1368 1.378 . S
C1370 C1371 1.367 . S
C1371 C1370 1.367 . S
C1371 C1373 1.433 . S
C1372 C1368 1.350 . S
C1372 C1369 1.463 . S
C1372 N1376 1.427 . S
C1373 H1363 0.929 . S
C1373 C1371 1.433 . S
C1373 N1376 1.384 . S
C1374 H1365 0.929 . S
C1374 C1366 1.378 . S
C1374 C1369 1.350 . S
C1375 H1362 0.929 . S
C1375 C1367 1.433 . S
C1375 N1377 1.384 . S
N1376 C1372 1.427 . S
N1376 C1373 1.384 . S
N1377 C1369 1.427 . S
N1377 C1375 1.384 . S
H1378 C1384 0.930 . S
H1379 C1388 0.930 . S
H1380 C1393 0.929 1_655 S
H1381 C1391 0.929 . S
H1382 C1386 0.929 . S
H1383 C1392 0.929 . S
C1384 H1378 0.930 . S
C1384 C1385 1.367 . S
C1384 C1392 1.378 . S
C1385 C1384 1.367 . S
C1385 C1393 1.433 . S
C1386 H1382 0.929 . S
C1386 C1388 1.378 . S
C1386 C1390 1.350 . S
C1387 C1390 1.463 . S
C1387 C1392 1.350 . S
C1387 N1395 1.427 . S
C1388 H1379 0.930 . S
C1388 C1386 1.378 . S
C1388 C1389 1.367 . S
C1389 C1388 1.367 . S
C1389 C1391 1.433 . S
C1390 C1386 1.350 . S
C1390 C1387 1.463 . S
C1390 N1394 1.427 . S
C1391 H1381 0.929 . S
C1391 C1389 1.433 . S
C1391 N1394 1.384 . S
C1392 H1383 0.929 . S
C1392 C1384 1.378 . S
C1392 C1387 1.350 . S
C1393 H1380 0.929 1_455 S
C1393 C1385 1.433 . S
C1393 N1395 1.384 . S
N1394 C1390 1.427 . S
N1394 C1391 1.384 . S
N1395 C1387 1.427 . S
N1395 C1393 1.384 . S
H1396 C1402 0.930 . S
H1397 C1406 0.930 . S
H1398 C1411 0.929 . S
H1399 C1409 0.929 . S
H1400 C1404 0.929 . S
H1401 C1410 0.929 . S
C1402 H1396 0.930 . S
C1402 C1403 1.367 . S
C1402 C1410 1.378 . S
C1403 C1402 1.367 . S
C1403 C1411 1.433 . S
C1404 H1400 0.929 . S
C1404 C1406 1.378 . S
C1404 C1408 1.350 . S
C1405 C1408 1.463 . S
C1405 C1410 1.350 . S
C1405 N1413 1.427 . S
C1406 H1397 0.930 . S
C1406 C1404 1.378 . S
C1406 C1407 1.367 . S
C1407 C1406 1.367 . S
C1407 C1409 1.433 . S
C1408 C1404 1.350 . S
C1408 C1405 1.463 . S
C1408 N1412 1.427 . S
C1409 H1399 0.929 . S
C1409 C1407 1.433 . S
C1409 N1412 1.384 . S
C1410 H1401 0.929 . S
C1410 C1402 1.378 . S
C1410 C1405 1.350 . S
C1411 H1398 0.929 . S
C1411 C1403 1.433 . S
C1411 N1413 1.384 . S
N1412 C1408 1.427 . S
N1412 C1409 1.384 . S
N1413 C1405 1.427 . S
N1413 C1411 1.384 . S
H1414 C1420 0.930 . S
H1415 C1424 0.930 . S
H1416 C1429 0.929 1_545 S
H1417 C1427 0.934 1_655 S
H1418 C1422 0.929 . S
H1419 C1428 0.929 . S
C1420 H1414 0.930 . S
C1420 C1421 1.367 . S
C1420 C1428 1.378 . S
C1421 C1420 1.367 . S
C1421 C1429 1.433 . S
C1422 H1418 0.929 . S
C1422 C1424 1.378 . S
C1422 C1426 1.362 . S
C1423 C1426 1.455 1_565 S
C1423 C1428 1.350 . S
C1423 N1431 1.427 1_565 S
C1424 H1415 0.930 . S
C1424 C1422 1.378 . S
C1424 C1425 1.367 . S
C1425 C1424 1.367 . S
C1425 C1427 1.430 1_545 S
C1426 C1422 1.362 . S
C1426 C1423 1.455 1_545 S
C1426 N1430 1.422 1_545 S
C1427 H1417 0.934 1_455 S
C1427 C1425 1.430 1_565 S
C1427 N1430 1.381 . S
C1428 H1419 0.929 . S
C1428 C1420 1.378 . S
C1428 C1423 1.350 . S
C1429 H1416 0.929 1_565 S
C1429 C1421 1.433 . S
C1429 N1431 1.384 1_565 S
N1430 C1426 1.422 1_565 S
N1430 C1427 1.381 . S
N1431 C1423 1.427 1_545 S
N1431 C1429 1.384 1_545 S
H1432 C1438 0.930 . S
H1433 C1442 0.930 . S
H1434 C1447 0.929 . S
H1435 C1445 0.929 . S
H1436 C1440 0.929 . S
H1437 C1446 0.929 . S
C1438 H1432 0.930 . S
C1438 C1439 1.367 . S
C1438 C1446 1.378 . S
C1439 C1438 1.367 . S
C1439 C1447 1.433 . S
C1440 H1436 0.929 . S
C1440 C1442 1.378 . S
C1440 C1444 1.350 . S
C1441 C1444 1.463 . S
C1441 C1446 1.350 . S
C1441 N1449 1.427 . S
C1442 H1433 0.930 . S
C1442 C1440 1.378 . S
C1442 C1443 1.367 . S
C1443 C1442 1.367 . S
C1443 C1445 1.433 . S
C1444 C1440 1.350 . S
C1444 C1441 1.463 . S
C1444 N1448 1.427 . S
C1445 H1435 0.929 . S
C1445 C1443 1.433 . S
C1445 N1448 1.384 . S
C1446 H1437 0.929 . S
C1446 C1438 1.378 . S
C1446 C1441 1.350 . S
C1447 H1434 0.929 . S
C1447 C1439 1.433 . S
C1447 N1449 1.384 . S
N1448 C1444 1.427 . S
N1448 C1445 1.384 . S
N1449 C1441 1.427 . S
N1449 C1447 1.384 . S
H1450 C1456 0.930 . S
H1451 C1460 0.930 . S
H1452 C1465 0.929 . S
H1453 C1463 0.929 . S
H1454 C1458 0.929 . S
H1455 C1464 0.929 . S
C1456 H1450 0.930 . S
C1456 C1457 1.367 . S
C1456 C1464 1.378 . S
C1457 C1456 1.367 . S
C1457 C1465 1.433 . S
C1458 H1454 0.929 . S
C1458 C1460 1.378 . S
C1458 C1462 1.350 . S
C1459 C1462 1.463 . S
C1459 C1464 1.350 . S
C1459 N1467 1.427 . S
C1460 H1451 0.930 . S
C1460 C1458 1.378 . S
C1460 C1461 1.367 . S
C1461 C1460 1.367 . S
C1461 C1463 1.433 . S
C1462 C1458 1.350 . S
C1462 C1459 1.463 . S
C1462 N1466 1.427 . S
C1463 H1453 0.929 . S
C1463 C1461 1.433 . S
C1463 N1466 1.384 . S
C1464 H1455 0.929 . S
C1464 C1456 1.378 . S
C1464 C1459 1.350 . S
C1465 H1452 0.929 . S
C1465 C1457 1.433 . S
C1465 N1467 1.384 . S
N1466 C1462 1.427 . S
N1466 C1463 1.384 . S
N1467 C1459 1.427 . S
N1467 C1465 1.384 . S
H1468 C1474 0.930 . S
H1469 C1478 0.930 . S
H1470 C1483 0.929 . S
H1471 C1481 0.929 . S
H1472 C1476 0.929 . S
H1473 C1482 0.929 . S
C1474 H1468 0.930 . S
C1474 C1475 1.367 . S
C1474 C1482 1.378 . S
C1475 C1474 1.367 . S
C1475 C1483 1.433 . S
C1476 H1472 0.929 . S
C1476 C1478 1.378 . S
C1476 C1480 1.350 . S
C1477 C1480 1.463 . S
C1477 C1482 1.350 . S
C1477 N1485 1.427 . S
C1478 H1469 0.930 . S
C1478 C1476 1.378 . S
C1478 C1479 1.367 . S
C1479 C1478 1.367 . S
C1479 C1481 1.433 . S
C1480 C1476 1.350 . S
C1480 C1477 1.463 . S
C1480 N1484 1.427 . S
C1481 H1471 0.929 . S
C1481 C1479 1.433 . S
C1481 N1484 1.384 . S
C1482 H1473 0.929 . S
C1482 C1474 1.378 . S
C1482 C1477 1.350 . S
C1483 H1470 0.929 . S
C1483 C1475 1.433 . S
C1483 N1485 1.384 . S
N1484 C1480 1.427 . S
N1484 C1481 1.384 . S
N1485 C1477 1.427 . S
N1485 C1483 1.384 . S
H1486 C1492 0.930 . S
H1487 C1496 0.930 . S
H1488 C1501 0.929 1_545 S
H1489 C1499 0.929 . S
H1490 C1494 0.929 . S
H1491 C1500 0.929 . S
C1492 H1486 0.930 . S
C1492 C1493 1.367 . S
C1492 C1500 1.378 . S
C1493 C1492 1.367 . S
C1493 C1501 1.433 . S
C1494 H1490 0.929 . S
C1494 C1496 1.378 . S
C1494 C1498 1.350 1_545 S
C1495 C1498 1.463 . S
C1495 C1500 1.350 . S
C1495 N1503 1.454 . S
C1496 H1487 0.930 . S
C1496 C1494 1.378 . S
C1496 C1497 1.367 1_545 S
C1497 C1496 1.367 1_565 S
C1497 C1499 1.433 . S
C1498 C1494 1.350 1_565 S
C1498 C1495 1.463 . S
C1498 N1502 1.427 . S
C1499 H1489 0.929 . S
C1499 C1497 1.433 . S
C1499 N1502 1.384 . S
C1500 H1491 0.929 . S
C1500 C1492 1.378 . S
C1500 C1495 1.350 . S
C1501 H1488 0.929 1_565 S
C1501 C1493 1.433 . S
C1501 N1503 1.381 . S
N1502 C1498 1.427 . S
N1502 C1499 1.384 . S
N1503 C1495 1.454 . S
N1503 C1501 1.381 . S
H1504 C1510 0.930 . S
H1505 C1514 0.930 . S
H1506 C1519 0.929 . S
H1507 C1517 0.929 . S
H1508 C1512 0.929 . S
H1509 C1518 0.929 . S
C1510 H1504 0.930 . S
C1510 C1511 1.367 . S
C1510 C1518 1.378 . S
C1511 C1510 1.367 . S
C1511 C1519 1.433 . S
C1512 H1508 0.929 . S
C1512 C1514 1.378 . S
C1512 C1516 1.350 . S
C1513 C1516 1.463 . S
C1513 C1518 1.350 . S
C1513 N1521 1.427 . S
C1514 H1505 0.930 . S
C1514 C1512 1.378 . S
C1514 C1515 1.367 . S
C1515 C1514 1.367 . S
C1515 C1517 1.433 . S
C1516 C1512 1.350 . S
C1516 C1513 1.463 . S
C1516 N1520 1.427 . S
C1517 H1507 0.929 . S
C1517 C1515 1.433 . S
C1517 N1520 1.384 . S
C1518 H1509 0.929 . S
C1518 C1510 1.378 . S
C1518 C1513 1.350 . S
C1519 H1506 0.929 . S
C1519 C1511 1.433 . S
C1519 N1521 1.384 . S
N1520 C1516 1.427 . S
N1520 C1517 1.384 . S
N1521 C1513 1.427 . S
N1521 C1519 1.384 . S
H1522 C1528 0.930 . S
H1523 C1532 0.930 . S
H1524 C1537 0.929 . S
H1525 C1535 0.929 . S
H1526 C1530 0.929 . S
H1527 C1536 0.929 . S
C1528 H1522 0.930 . S
C1528 C1529 1.367 . S
C1528 C1536 1.378 . S
C1529 C1528 1.367 . S
C1529 C1537 1.433 . S
C1530 H1526 0.929 . S
C1530 C1532 1.378 . S
C1530 C1534 1.350 . S
C1531 C1534 1.463 . S
C1531 C1536 1.350 . S
C1531 N1539 1.427 . S
C1532 H1523 0.930 . S
C1532 C1530 1.378 . S
C1532 C1533 1.367 . S
C1533 C1532 1.367 . S
C1533 C1535 1.433 . S
C1534 C1530 1.350 . S
C1534 C1531 1.463 . S
C1534 N1538 1.427 . S
C1535 H1525 0.929 . S
C1535 C1533 1.433 . S
C1535 N1538 1.384 . S
C1536 H1527 0.929 . S
C1536 C1528 1.378 . S
C1536 C1531 1.350 . S
C1537 H1524 0.929 . S
C1537 C1529 1.433 . S
C1537 N1539 1.384 . S
N1538 C1534 1.427 . S
N1538 C1535 1.384 . S
N1539 C1531 1.427 . S
N1539 C1537 1.384 . S
H1540 C1546 0.930 . S
H1541 C1550 0.930 . S
H1542 C1555 0.929 . S
H1543 C1553 0.929 . S
H1544 C1548 0.929 . S
H1545 C1554 0.929 . S
C1546 H1540 0.930 . S
C1546 C1547 1.367 . S
C1546 C1554 1.378 . S
C1547 C1546 1.367 . S
C1547 C1555 1.433 . S
C1548 H1544 0.929 . S
C1548 C1550 1.378 . S
C1548 C1552 1.350 . S
C1549 C1552 1.463 . S
C1549 C1554 1.350 . S
C1549 N1557 1.427 . S
C1550 H1541 0.930 . S
C1550 C1548 1.378 . S
C1550 C1551 1.367 . S
C1551 C1550 1.367 . S
C1551 C1553 1.433 . S
C1552 C1548 1.350 . S
C1552 C1549 1.463 . S
C1552 N1556 1.427 . S
C1553 H1543 0.929 . S
C1553 C1551 1.433 . S
C1553 N1556 1.384 . S
C1554 H1545 0.929 . S
C1554 C1546 1.378 . S
C1554 C1549 1.350 . S
C1555 H1542 0.929 . S
C1555 C1547 1.433 . S
C1555 N1557 1.384 . S
N1556 C1552 1.427 . S
N1556 C1553 1.384 . S
N1557 C1549 1.427 . S
N1557 C1555 1.384 . S
H1558 C1564 0.930 . S
H1559 C1568 0.930 . S
H1560 C1573 0.929 . S
H1561 C1571 0.929 . S
H1562 C1566 0.929 . S
H1563 C1572 0.929 . S
C1564 H1558 0.930 . S
C1564 C1565 1.367 . S
C1564 C1572 1.378 . S
C1565 C1564 1.367 . S
C1565 C1573 1.433 . S
C1566 H1562 0.929 . S
C1566 C1568 1.378 . S
C1566 C1570 1.350 . S
C1567 C1570 1.463 . S
C1567 C1572 1.350 . S
C1567 N1575 1.427 . S
C1568 H1559 0.930 . S
C1568 C1566 1.378 . S
C1568 C1569 1.367 . S
C1569 C1568 1.367 . S
C1569 C1571 1.433 . S
C1570 C1566 1.350 . S
C1570 C1567 1.463 . S
C1570 N1574 1.427 . S
C1571 H1561 0.929 . S
C1571 C1569 1.433 . S
C1571 N1574 1.384 . S
C1572 H1563 0.929 . S
C1572 C1564 1.378 . S
C1572 C1567 1.350 . S
C1573 H1560 0.929 . S
C1573 C1565 1.433 . S
C1573 N1575 1.384 . S
N1574 C1570 1.427 . S
N1574 C1571 1.384 . S
N1575 C1567 1.427 . S
N1575 C1573 1.384 . S
H1576 C1582 0.930 . S
H1577 C1586 0.930 . S
H1578 C1591 0.929 . S
H1579 C1589 0.929 . S
H1580 C1584 0.929 . S
H1581 C1590 0.929 . S
C1582 H1576 0.930 . S
C1582 C1583 1.367 . S
C1582 C1590 1.378 . S
C1583 C1582 1.367 . S
C1583 C1591 1.433 . S
C1584 H1580 0.929 . S
C1584 C1586 1.378 . S
C1584 C1588 1.350 . S
C1585 C1588 1.463 . S
C1585 C1590 1.350 . S
C1585 N1593 1.427 . S
C1586 H1577 0.930 . S
C1586 C1584 1.378 . S
C1586 C1587 1.367 . S
C1587 C1586 1.367 . S
C1587 C1589 1.433 . S
C1588 C1584 1.350 . S
C1588 C1585 1.463 . S
C1588 N1592 1.427 . S
C1589 H1579 0.929 . S
C1589 C1587 1.433 . S
C1589 N1592 1.384 . S
C1590 H1581 0.929 . S
C1590 C1582 1.378 . S
C1590 C1585 1.350 . S
C1591 H1578 0.929 . S
C1591 C1583 1.433 . S
C1591 N1593 1.384 . S
N1592 C1588 1.427 . S
N1592 C1589 1.384 . S
N1593 C1585 1.427 . S
N1593 C1591 1.384 . S
H1594 C1600 0.930 . S
H1595 C1604 0.930 . S
H1596 C1609 0.929 . S
H1597 C1607 0.929 . S
H1598 C1602 0.929 . S
H1599 C1608 0.929 . S
C1600 H1594 0.930 . S
C1600 C1601 1.367 . S
C1600 C1608 1.378 . S
C1601 C1600 1.367 . S
C1601 C1609 1.433 . S
C1602 H1598 0.929 . S
C1602 C1604 1.378 . S
C1602 C1606 1.350 . S
C1603 C1606 1.463 . S
C1603 C1608 1.350 . S
C1603 N1611 1.427 . S
C1604 H1595 0.930 . S
C1604 C1602 1.378 . S
C1604 C1605 1.367 . S
C1605 C1604 1.367 . S
C1605 C1607 1.433 . S
C1606 C1602 1.350 . S
C1606 C1603 1.463 . S
C1606 N1610 1.427 . S
C1607 H1597 0.929 . S
C1607 C1605 1.433 . S
C1607 N1610 1.384 . S
C1608 H1599 0.929 . S
C1608 C1600 1.378 . S
C1608 C1603 1.350 . S
C1609 H1596 0.929 . S
C1609 C1601 1.433 . S
C1609 N1611 1.384 . S
N1610 C1606 1.427 . S
N1610 C1607 1.384 . S
N1611 C1603 1.427 . S
N1611 C1609 1.384 . S
H1612 C1618 0.930 . S
H1613 C1622 0.930 . S
H1614 C1627 0.929 . S
H1615 C1625 0.929 . S
H1616 C1620 0.929 . S
H1617 C1626 0.929 . S
C1618 H1612 0.930 . S
C1618 C1619 1.367 . S
C1618 C1626 1.378 . S
C1619 C1618 1.367 . S
C1619 C1627 1.433 . S
C1620 H1616 0.929 . S
C1620 C1622 1.378 . S
C1620 C1624 1.350 . S
C1621 C1624 1.463 . S
C1621 C1626 1.350 . S
C1621 N1629 1.427 . S
C1622 H1613 0.930 . S
C1622 C1620 1.378 . S
C1622 C1623 1.367 . S
C1623 C1622 1.367 . S
C1623 C1625 1.433 . S
C1624 C1620 1.350 . S
C1624 C1621 1.463 . S
C1624 N1628 1.427 . S
C1625 H1615 0.929 . S
C1625 C1623 1.433 . S
C1625 N1628 1.384 . S
C1626 H1617 0.929 . S
C1626 C1618 1.378 . S
C1626 C1621 1.350 . S
C1627 H1614 0.929 . S
C1627 C1619 1.433 . S
C1627 N1629 1.384 . S
N1628 C1624 1.427 . S
N1628 C1625 1.384 . S
N1629 C1621 1.427 . S
N1629 C1627 1.384 . S
H1630 C1636 0.930 . S
H1631 C1640 0.930 . S
H1632 C1645 0.929 . S
H1633 C1643 0.929 . S
H1634 C1638 0.929 . S
H1635 C1644 0.929 . S
C1636 H1630 0.930 . S
C1636 C1637 1.367 . S
C1636 C1644 1.378 . S
C1637 C1636 1.367 . S
C1637 C1645 1.433 . S
C1638 H1634 0.929 . S
C1638 C1640 1.378 . S
C1638 C1642 1.350 . S
C1639 C1642 1.463 . S
C1639 C1644 1.350 . S
C1639 N1647 1.427 . S
C1640 H1631 0.930 . S
C1640 C1638 1.378 . S
C1640 C1641 1.367 . S
C1641 C1640 1.367 . S
C1641 C1643 1.433 . S
C1642 C1638 1.350 . S
C1642 C1639 1.463 . S
C1642 N1646 1.427 . S
C1643 H1633 0.929 . S
C1643 C1641 1.433 . S
C1643 N1646 1.384 . S
C1644 H1635 0.929 . S
C1644 C1636 1.378 . S
C1644 C1639 1.350 . S
C1645 H1632 0.929 . S
C1645 C1637 1.433 . S
C1645 N1647 1.384 . S
N1646 C1642 1.427 . S
N1646 C1643 1.384 . S
N1647 C1639 1.427 . S
N1647 C1645 1.384 . S
H1648 C1654 0.930 . S
H1649 C1658 0.930 . S
H1650 C1663 0.929 . S
H1651 C1661 0.929 . S
H1652 C1656 0.929 . S
H1653 C1662 0.929 . S
C1654 H1648 0.930 . S
C1654 C1655 1.367 . S
C1654 C1662 1.378 . S
C1655 C1654 1.367 . S
C1655 C1663 1.433 . S
C1656 H1652 0.929 . S
C1656 C1658 1.378 . S
C1656 C1660 1.350 . S
C1657 C1660 1.463 . S
C1657 C1662 1.350 . S
C1657 N1665 1.427 . S
C1658 H1649 0.930 . S
C1658 C1656 1.378 . S
C1658 C1659 1.367 . S
C1659 C1658 1.367 . S
C1659 C1661 1.433 . S
C1660 C1656 1.350 . S
C1660 C1657 1.463 . S
C1660 N1664 1.427 . S
C1661 H1651 0.929 . S
C1661 C1659 1.433 . S
C1661 N1664 1.384 . S
C1662 H1653 0.929 . S
C1662 C1654 1.378 . S
C1662 C1657 1.350 . S
C1663 H1650 0.929 . S
C1663 C1655 1.433 . S
C1663 N1665 1.384 . S
N1664 C1660 1.427 . S
N1664 C1661 1.384 . S
N1665 C1657 1.427 . S
N1665 C1663 1.384 . S
H1666 C1672 0.930 . S
H1667 C1676 0.930 . S
H1668 C1681 0.929 . S
H1669 C1679 0.929 . S
H1670 C1674 0.929 . S
H1671 C1680 0.929 . S
C1672 H1666 0.930 . S
C1672 C1673 1.367 . S
C1672 C1680 1.378 . S
C1673 C1672 1.367 . S
C1673 C1681 1.433 . S
C1674 H1670 0.929 . S
C1674 C1676 1.378 . S
C1674 C1678 1.350 . S
C1675 C1678 1.463 . S
C1675 C1680 1.350 . S
C1675 N1683 1.427 . S
C1676 H1667 0.930 . S
C1676 C1674 1.378 . S
C1676 C1677 1.367 . S
C1677 C1676 1.367 . S
C1677 C1679 1.433 . S
C1678 C1674 1.350 . S
C1678 C1675 1.463 . S
C1678 N1682 1.427 . S
C1679 H1669 0.929 . S
C1679 C1677 1.433 . S
C1679 N1682 1.384 . S
C1680 H1671 0.929 . S
C1680 C1672 1.378 . S
C1680 C1675 1.350 . S
C1681 H1668 0.929 . S
C1681 C1673 1.433 . S
C1681 N1683 1.384 . S
N1682 C1678 1.427 . S
N1682 C1679 1.384 . S
N1683 C1675 1.427 . S
N1683 C1681 1.384 . S
H1684 C1690 0.930 . S
H1685 C1694 0.923 1_556 S
H1686 C1699 0.929 . S
H1687 C1697 0.929 . S
H1688 C1692 0.929 . S
H1689 C1698 0.925 . S
C1690 H1684 0.930 . S
C1690 C1691 1.367 . S
C1690 C1698 1.380 1_556 S
C1691 C1690 1.367 . S
C1691 C1699 1.433 1_545 S
C1692 H1688 0.929 . S
C1692 C1694 1.378 1_556 S
C1692 C1696 1.350 1_556 S
C1693 C1696 1.463 1_556 S
C1693 C1698 1.351 1_566 S
C1693 N1701 1.427 . S
C1694 H1685 0.923 1_554 S
C1694 C1692 1.378 1_554 S
C1694 C1695 1.367 . S
C1695 C1694 1.367 . S
C1695 C1697 1.433 . S
C1696 C1692 1.350 1_554 S
C1696 C1693 1.463 1_554 S
C1696 N1700 1.427 . S
C1697 H1687 0.929 . S
C1697 C1695 1.433 . S
C1697 N1700 1.384 . S
C1698 H1689 0.925 . S
C1698 C1690 1.380 1_554 S
C1698 C1693 1.351 1_544 S
C1699 H1686 0.929 . S
C1699 C1691 1.433 1_565 S
C1699 N1701 1.384 . S
N1700 C1696 1.427 . S
N1700 C1697 1.384 . S
N1701 C1693 1.427 . S
N1701 C1699 1.384 . S
H1702 C1708 0.930 . S
H1703 C1712 0.930 . S
H1704 C1717 0.929 . S
H1705 C1715 0.929 . S
H1706 C1710 0.929 . S
H1707 C1716 0.929 . S
C1708 H1702 0.930 . S
C1708 C1709 1.367 . S
C1708 C1716 1.378 . S
C1709 C1708 1.367 . S
C1709 C1717 1.433 . S
C1710 H1706 0.929 . S
C1710 C1712 1.378 . S
C1710 C1714 1.350 . S
C1711 C1714 1.463 . S
C1711 C1716 1.350 . S
C1711 N1719 1.427 . S
C1712 H1703 0.930 . S
C1712 C1710 1.378 . S
C1712 C1713 1.367 . S
C1713 C1712 1.367 . S
C1713 C1715 1.433 . S
C1714 C1710 1.350 . S
C1714 C1711 1.463 . S
C1714 N1718 1.427 . S
C1715 H1705 0.929 . S
C1715 C1713 1.433 . S
C1715 N1718 1.384 . S
C1716 H1707 0.929 . S
C1716 C1708 1.378 . S
C1716 C1711 1.350 . S
C1717 H1704 0.929 . S
C1717 C1709 1.433 . S
C1717 N1719 1.384 . S
N1718 C1714 1.427 . S
N1718 C1715 1.384 . S
N1719 C1711 1.427 . S
N1719 C1717 1.384 . S
H1720 C1726 0.930 . S
H1721 C1730 0.930 . S
H1722 C1735 0.929 1_565 S
H1723 C1733 0.929 . S
H1724 C1728 0.929 . S
H1725 C1734 0.929 . S
C1726 H1720 0.930 . S
C1726 C1727 1.367 . S
C1726 C1734 1.378 . S
C1727 C1726 1.367 . S
C1727 C1735 1.433 . S
C1728 H1724 0.929 . S
C1728 C1730 1.378 . S
C1728 C1732 1.350 . S
C1729 C1732 1.463 . S
C1729 C1734 1.350 . S
C1729 N1737 1.427 . S
C1730 H1721 0.930 . S
C1730 C1728 1.378 . S
C1730 C1731 1.367 . S
C1731 C1730 1.367 . S
C1731 C1733 1.433 . S
C1732 C1728 1.350 . S
C1732 C1729 1.463 . S
C1732 N1736 1.427 . S
C1733 H1723 0.929 . S
C1733 C1731 1.433 . S
C1733 N1736 1.384 . S
C1734 H1725 0.929 . S
C1734 C1726 1.378 . S
C1734 C1729 1.350 . S
C1735 H1722 0.929 1_545 S
C1735 C1727 1.433 . S
C1735 N1737 1.384 . S
N1736 C1732 1.427 . S
N1736 C1733 1.384 . S
N1737 C1729 1.427 . S
N1737 C1735 1.384 . S
H1738 C1744 0.930 . S
H1739 C1748 0.930 . S
H1740 C1753 0.929 . S
H1741 C1751 0.929 . S
H1742 C1746 0.929 . S
H1743 C1752 0.929 . S
C1744 H1738 0.930 . S
C1744 C1745 1.367 . S
C1744 C1752 1.378 . S
C1745 C1744 1.367 . S
C1745 C1753 1.433 . S
C1746 H1742 0.929 . S
C1746 C1748 1.378 . S
C1746 C1750 1.350 . S
C1747 C1750 1.463 . S
C1747 C1752 1.350 . S
C1747 N1755 1.427 . S
C1748 H1739 0.930 . S
C1748 C1746 1.378 . S
C1748 C1749 1.367 . S
C1749 C1748 1.367 . S
C1749 C1751 1.433 . S
C1750 C1746 1.350 . S
C1750 C1747 1.463 . S
C1750 N1754 1.427 . S
C1751 H1741 0.929 . S
C1751 C1749 1.433 . S
C1751 N1754 1.384 . S
C1752 H1743 0.929 . S
C1752 C1744 1.378 . S
C1752 C1747 1.350 . S
C1753 H1740 0.929 . S
C1753 C1745 1.433 . S
C1753 N1755 1.384 . S
N1754 C1750 1.427 . S
N1754 C1751 1.384 . S
N1755 C1747 1.427 . S
N1755 C1753 1.384 . S
H1756 C1762 0.930 . S
H1757 C1766 0.930 . S
H1758 C1771 0.929 . S
H1759 C1769 0.929 . S
H1760 C1764 0.929 . S
H1761 C1770 0.929 . S
C1762 H1756 0.930 . S
C1762 C1763 1.367 . S
C1762 C1770 1.378 . S
C1763 C1762 1.367 . S
C1763 C1771 1.433 . S
C1764 H1760 0.929 . S
C1764 C1766 1.378 . S
C1764 C1768 1.350 . S
C1765 C1768 1.463 . S
C1765 C1770 1.350 . S
C1765 N1773 1.427 . S
C1766 H1757 0.930 . S
C1766 C1764 1.378 . S
C1766 C1767 1.367 . S
C1767 C1766 1.367 . S
C1767 C1769 1.433 . S
C1768 C1764 1.350 . S
C1768 C1765 1.463 . S
C1768 N1772 1.427 . S
C1769 H1759 0.929 . S
C1769 C1767 1.433 . S
C1769 N1772 1.384 . S
C1770 H1761 0.929 . S
C1770 C1762 1.378 . S
C1770 C1765 1.350 . S
C1771 H1758 0.929 . S
C1771 C1763 1.433 . S
C1771 N1773 1.384 . S
N1772 C1768 1.427 . S
N1772 C1769 1.384 . S
N1773 C1765 1.427 . S
N1773 C1771 1.384 . S
H1774 C1780 0.930 . S
H1775 C1784 0.930 . S
H1776 C1789 0.929 . S
H1777 C1787 0.929 . S
H1778 C1782 0.929 . S
H1779 C1788 0.929 . S
C1780 H1774 0.930 . S
C1780 C1781 1.367 . S
C1780 C1788 1.378 . S
C1781 C1780 1.367 . S
C1781 C1789 1.433 . S
C1782 H1778 0.929 . S
C1782 C1784 1.378 . S
C1782 C1786 1.350 . S
C1783 C1786 1.463 . S
C1783 C1788 1.350 . S
C1783 N1791 1.427 . S
C1784 H1775 0.930 . S
C1784 C1782 1.378 . S
C1784 C1785 1.367 . S
C1785 C1784 1.367 . S
C1785 C1787 1.433 . S
C1786 C1782 1.350 . S
C1786 C1783 1.463 . S
C1786 N1790 1.427 . S
C1787 H1777 0.929 . S
C1787 C1785 1.433 . S
C1787 N1790 1.384 . S
C1788 H1779 0.929 . S
C1788 C1780 1.378 . S
C1788 C1783 1.350 . S
C1789 H1776 0.929 . S
C1789 C1781 1.433 . S
C1789 N1791 1.384 . S
N1790 C1786 1.427 . S
N1790 C1787 1.384 . S
N1791 C1783 1.427 . S
N1791 C1789 1.384 . S
H1792 C1798 0.930 . S
H1793 C1802 0.930 . S
H1794 C1807 0.929 . S
H1795 C1805 0.929 . S
H1796 C1800 0.929 . S
H1797 C1806 0.929 . S
C1798 H1792 0.930 . S
C1798 C1799 1.367 . S
C1798 C1806 1.378 . S
C1799 C1798 1.367 . S
C1799 C1807 1.433 . S
C1800 H1796 0.929 . S
C1800 C1802 1.378 . S
C1800 C1804 1.350 . S
C1801 C1804 1.463 . S
C1801 C1806 1.350 . S
C1801 N1809 1.427 . S
C1802 H1793 0.930 . S
C1802 C1800 1.378 . S
C1802 C1803 1.367 . S
C1803 C1802 1.367 . S
C1803 C1805 1.433 . S
C1804 C1800 1.350 . S
C1804 C1801 1.463 . S
C1804 N1808 1.427 . S
C1805 H1795 0.929 . S
C1805 C1803 1.433 . S
C1805 N1808 1.384 . S
C1806 H1797 0.929 . S
C1806 C1798 1.378 . S
C1806 C1801 1.350 . S
C1807 H1794 0.929 . S
C1807 C1799 1.433 . S
C1807 N1809 1.384 . S
N1808 C1804 1.427 . S
N1808 C1805 1.384 . S
N1809 C1801 1.427 . S
N1809 C1807 1.384 . S
H1810 C1816 0.930 . S
H1811 C1820 0.930 . S
H1812 C1825 0.929 . S
H1813 C1823 0.929 . S
H1814 C1818 0.929 . S
H1815 C1824 0.929 . S
C1816 H1810 0.930 . S
C1816 C1817 1.367 . S
C1816 C1824 1.378 . S
C1817 C1816 1.367 . S
C1817 C1825 1.433 . S
C1818 H1814 0.929 . S
C1818 C1820 1.378 . S
C1818 C1822 1.350 . S
C1819 C1822 1.463 . S
C1819 C1824 1.350 . S
C1819 N1827 1.427 . S
C1820 H1811 0.930 . S
C1820 C1818 1.378 . S
C1820 C1821 1.367 . S
C1821 C1820 1.367 . S
C1821 C1823 1.433 . S
C1822 C1818 1.350 . S
C1822 C1819 1.463 . S
C1822 N1826 1.427 . S
C1823 H1813 0.929 . S
C1823 C1821 1.433 . S
C1823 N1826 1.384 . S
C1824 H1815 0.929 . S
C1824 C1816 1.378 . S
C1824 C1819 1.350 . S
C1825 H1812 0.929 . S
C1825 C1817 1.433 . S
C1825 N1827 1.384 . S
N1826 C1822 1.427 . S
N1826 C1823 1.384 . S
N1827 C1819 1.427 . S
N1827 C1825 1.384 . S
H1828 C1834 0.930 . S
H1829 C1838 0.930 . S
H1830 C1843 0.929 . S
H1831 C1841 0.929 . S
H1832 C1836 0.929 . S
H1833 C1842 0.929 . S
C1834 H1828 0.930 . S
C1834 C1835 1.367 . S
C1834 C1842 1.378 . S
C1835 C1834 1.367 . S
C1835 C1843 1.433 . S
C1836 H1832 0.929 . S
C1836 C1838 1.378 . S
C1836 C1840 1.350 . S
C1837 C1840 1.463 . S
C1837 C1842 1.350 . S
C1837 N1845 1.427 . S
C1838 H1829 0.930 . S
C1838 C1836 1.378 . S
C1838 C1839 1.367 . S
C1839 C1838 1.367 . S
C1839 C1841 1.433 . S
C1840 C1836 1.350 . S
C1840 C1837 1.463 . S
C1840 N1844 1.427 . S
C1841 H1831 0.929 . S
C1841 C1839 1.433 . S
C1841 N1844 1.384 . S
C1842 H1833 0.929 . S
C1842 C1834 1.378 . S
C1842 C1837 1.350 . S
C1843 H1830 0.929 . S
C1843 C1835 1.433 . S
C1843 N1845 1.384 . S
N1844 C1840 1.427 . S
N1844 C1841 1.384 . S
N1845 C1837 1.427 . S
N1845 C1843 1.384 . S
H1846 C1852 0.930 . S
H1847 C1856 0.930 . S
H1848 C1861 0.929 . S
H1849 C1859 0.929 . S
H1850 C1854 0.929 . S
H1851 C1860 0.929 . S
C1852 H1846 0.930 . S
C1852 C1853 1.367 . S
C1852 C1860 1.378 . S
C1853 C1852 1.367 . S
C1853 C1861 1.433 . S
C1854 H1850 0.929 . S
C1854 C1856 1.378 . S
C1854 C1858 1.350 . S
C1855 C1858 1.463 . S
C1855 C1860 1.350 . S
C1855 N1863 1.427 . S
C1856 H1847 0.930 . S
C1856 C1854 1.378 . S
C1856 C1857 1.367 . S
C1857 C1856 1.367 . S
C1857 C1859 1.433 . S
C1858 C1854 1.350 . S
C1858 C1855 1.463 . S
C1858 N1862 1.427 . S
C1859 H1849 0.929 . S
C1859 C1857 1.433 . S
C1859 N1862 1.384 . S
C1860 H1851 0.929 . S
C1860 C1852 1.378 . S
C1860 C1855 1.350 . S
C1861 H1848 0.929 . S
C1861 C1853 1.433 . S
C1861 N1863 1.384 . S
N1862 C1858 1.427 . S
N1862 C1859 1.384 . S
N1863 C1855 1.427 . S
N1863 C1861 1.384 . S
H1864 C1870 0.930 . S
H1865 C1874 0.930 . S
H1866 C1879 0.929 . S
H1867 C1877 0.929 . S
H1868 C1872 0.929 . S
H1869 C1878 0.929 . S
C1870 H1864 0.930 . S
C1870 C1871 1.367 . S
C1870 C1878 1.378 . S
C1871 C1870 1.367 . S
C1871 C1879 1.433 . S
C1872 H1868 0.929 . S
C1872 C1874 1.378 . S
C1872 C1876 1.350 . S
C1873 C1876 1.463 . S
C1873 C1878 1.350 . S
C1873 N1881 1.427 . S
C1874 H1865 0.930 . S
C1874 C1872 1.378 . S
C1874 C1875 1.367 . S
C1875 C1874 1.367 . S
C1875 C1877 1.433 . S
C1876 C1872 1.350 . S
C1876 C1873 1.463 . S
C1876 N1880 1.427 . S
C1877 H1867 0.929 . S
C1877 C1875 1.433 . S
C1877 N1880 1.384 . S
C1878 H1869 0.929 . S
C1878 C1870 1.378 . S
C1878 C1873 1.350 . S
C1879 H1866 0.929 . S
C1879 C1871 1.433 . S
C1879 N1881 1.384 . S
N1880 C1876 1.427 . S
N1880 C1877 1.384 . S
N1881 C1873 1.427 . S
N1881 C1879 1.384 . S
H1882 C1888 0.930 . S
H1883 C1892 0.930 . S
H1884 C1897 0.916 1_565 S
H1885 C1895 0.929 . S
H1886 C1890 0.929 . S
H1887 C1896 0.930 . S
C1888 H1882 0.930 . S
C1888 C1889 1.367 . S
C1888 C1896 1.378 . S
C1889 C1888 1.367 . S
C1889 C1897 1.433 . S
C1890 H1886 0.929 . S
C1890 C1892 1.378 . S
C1890 C1894 1.350 . S
C1891 C1894 1.463 . S
C1891 C1896 1.350 . S
C1891 N1899 1.427 . S
C1892 H1883 0.930 . S
C1892 C1890 1.378 . S
C1892 C1893 1.341 1_455 S
C1893 C1892 1.341 1_655 S
C1893 C1895 1.449 . S
C1894 C1890 1.350 . S
C1894 C1891 1.463 . S
C1894 N1898 1.427 1_455 S
C1895 H1885 0.929 . S
C1895 C1893 1.449 . S
C1895 N1898 1.384 . S
C1896 H1887 0.930 . S
C1896 C1888 1.378 . S
C1896 C1891 1.350 . S
C1897 H1884 0.916 1_545 S
C1897 C1889 1.433 . S
C1897 N1899 1.384 . S
N1898 C1894 1.427 1_655 S
N1898 C1895 1.384 . S
N1899 C1891 1.427 . S
N1899 C1897 1.384 . S
H1900 C1906 0.930 . S
H1901 C1910 0.930 . S
H1902 C1915 0.929 . S
H1903 C1913 0.929 . S
H1904 C1908 0.929 . S
H1905 C1914 0.929 . S
C1906 H1900 0.930 . S
C1906 C1907 1.367 . S
C1906 C1914 1.378 . S
C1907 C1906 1.367 . S
C1907 C1915 1.433 . S
C1908 H1904 0.929 . S
C1908 C1910 1.378 . S
C1908 C1912 1.350 . S
C1909 C1912 1.463 . S
C1909 C1914 1.350 . S
C1909 N1917 1.427 . S
C1910 H1901 0.930 . S
C1910 C1908 1.378 . S
C1910 C1911 1.367 . S
C1911 C1910 1.367 . S
C1911 C1913 1.433 . S
C1912 C1908 1.350 . S
C1912 C1909 1.463 . S
C1912 N1916 1.427 . S
C1913 H1903 0.929 . S
C1913 C1911 1.433 . S
C1913 N1916 1.384 . S
C1914 H1905 0.929 . S
C1914 C1906 1.378 . S
C1914 C1909 1.350 . S
C1915 H1902 0.929 . S
C1915 C1907 1.433 . S
C1915 N1917 1.384 . S
N1916 C1912 1.427 . S
N1916 C1913 1.384 . S
N1917 C1909 1.427 . S
N1917 C1915 1.384 . S
H1918 C1924 0.930 . S
H1919 C1928 0.930 . S
H1920 C1933 0.929 . S
H1921 C1931 0.929 . S
H1922 C1926 0.929 . S
H1923 C1932 0.929 . S
C1924 H1918 0.930 . S
C1924 C1925 1.367 . S
C1924 C1932 1.378 . S
C1925 C1924 1.367 . S
C1925 C1933 1.433 . S
C1926 H1922 0.929 . S
C1926 C1928 1.378 . S
C1926 C1930 1.350 . S
C1927 C1930 1.463 . S
C1927 C1932 1.350 . S
C1927 N1935 1.427 . S
C1928 H1919 0.930 . S
C1928 C1926 1.378 . S
C1928 C1929 1.367 . S
C1929 C1928 1.367 . S
C1929 C1931 1.433 . S
C1930 C1926 1.350 . S
C1930 C1927 1.463 . S
C1930 N1934 1.427 . S
C1931 H1921 0.929 . S
C1931 C1929 1.433 . S
C1931 N1934 1.384 . S
C1932 H1923 0.929 . S
C1932 C1924 1.378 . S
C1932 C1927 1.350 . S
C1933 H1920 0.929 . S
C1933 C1925 1.433 . S
C1933 N1935 1.384 . S
N1934 C1930 1.427 . S
N1934 C1931 1.384 . S
N1935 C1927 1.427 . S
N1935 C1933 1.384 . S
H1936 C1942 0.930 . S
H1937 C1946 0.930 . S
H1938 C1951 0.929 . S
H1939 C1949 0.929 . S
H1940 C1944 0.929 . S
H1941 C1950 0.929 . S
C1942 H1936 0.930 . S
C1942 C1943 1.367 . S
C1942 C1950 1.378 . S
C1943 C1942 1.367 . S
C1943 C1951 1.433 . S
C1944 H1940 0.929 . S
C1944 C1946 1.378 . S
C1944 C1948 1.350 . S
C1945 C1948 1.463 . S
C1945 C1950 1.350 . S
C1945 N1953 1.427 . S
C1946 H1937 0.930 . S
C1946 C1944 1.378 . S
C1946 C1947 1.367 . S
C1947 C1946 1.367 . S
C1947 C1949 1.433 . S
C1948 C1944 1.350 . S
C1948 C1945 1.463 . S
C1948 N1952 1.427 . S
C1949 H1939 0.929 . S
C1949 C1947 1.433 . S
C1949 N1952 1.384 . S
C1950 H1941 0.929 . S
C1950 C1942 1.378 . S
C1950 C1945 1.350 . S
C1951 H1938 0.929 . S
C1951 C1943 1.433 . S
C1951 N1953 1.384 . S
N1952 C1948 1.427 . S
N1952 C1949 1.384 . S
N1953 C1945 1.427 . S
N1953 C1951 1.384 . S
H1954 C1960 0.930 . S
H1955 C1964 0.930 . S
H1956 C1969 0.929 . S
H1957 C1967 0.929 . S
H1958 C1962 0.929 . S
H1959 C1968 0.929 . S
C1960 H1954 0.930 . S
C1960 C1961 1.367 . S
C1960 C1968 1.378 . S
C1961 C1960 1.367 . S
C1961 C1969 1.433 1_455 S
C1962 H1958 0.929 . S
C1962 C1964 1.378 . S
C1962 C1966 1.350 1_655 S
C1963 C1966 1.463 . S
C1963 C1968 1.350 . S
C1963 N1971 1.427 1_455 S
C1964 H1955 0.930 . S
C1964 C1962 1.378 . S
C1964 C1965 1.367 1_655 S
C1965 C1964 1.367 1_455 S
C1965 C1967 1.433 . S
C1966 C1962 1.350 1_455 S
C1966 C1963 1.463 . S
C1966 N1970 1.427 . S
C1967 H1957 0.929 . S
C1967 C1965 1.433 . S
C1967 N1970 1.384 . S
C1968 H1959 0.929 . S
C1968 C1960 1.378 . S
C1968 C1963 1.350 . S
C1969 H1956 0.929 . S
C1969 C1961 1.433 1_655 S
C1969 N1971 1.384 . S
N1970 C1966 1.427 . S
N1970 C1967 1.384 . S
N1971 C1963 1.427 1_655 S
N1971 C1969 1.384 . S
H1972 C1978 0.930 . S
H1973 C1982 0.930 . S
H1974 C1987 0.929 . S
H1975 C1985 0.929 . S
H1976 C1980 0.929 . S
H1977 C1986 0.929 . S
C1978 H1972 0.930 . S
C1978 C1979 1.367 . S
C1978 C1986 1.378 . S
C1979 C1978 1.367 . S
C1979 C1987 1.433 . S
C1980 H1976 0.929 . S
C1980 C1982 1.378 . S
C1980 C1984 1.350 . S
C1981 C1984 1.463 . S
C1981 C1986 1.350 . S
C1981 N1989 1.427 . S
C1982 H1973 0.930 . S
C1982 C1980 1.378 . S
C1982 C1983 1.367 . S
C1983 C1982 1.367 . S
C1983 C1985 1.433 . S
C1984 C1980 1.350 . S
C1984 C1981 1.463 . S
C1984 N1988 1.427 . S
C1985 H1975 0.929 . S
C1985 C1983 1.433 . S
C1985 N1988 1.384 . S
C1986 H1977 0.929 . S
C1986 C1978 1.378 . S
C1986 C1981 1.350 . S
C1987 H1974 0.929 . S
C1987 C1979 1.433 . S
C1987 N1989 1.384 . S
N1988 C1984 1.427 . S
N1988 C1985 1.384 . S
N1989 C1981 1.427 . S
N1989 C1987 1.384 . S
H1990 C1996 0.930 1_554 S
H1991 C2000 0.930 . S
H1992 C2005 0.929 . S
H1993 C2003 0.929 . S
H1994 C1998 0.929 . S
H1995 C2004 0.929 . S
C1996 H1990 0.930 1_556 S
C1996 C1997 1.367 . S
C1996 C2004 1.378 . S
C1997 C1996 1.367 . S
C1997 C2005 1.433 . S
C1998 H1994 0.929 . S
C1998 C2000 1.378 . S
C1998 C2002 1.350 . S
C1999 C2002 1.463 . S
C1999 C2004 1.350 . S
C1999 N2007 1.427 . S
C2000 H1991 0.930 . S
C2000 C1998 1.378 . S
C2000 C2001 1.367 . S
C2001 C2000 1.367 . S
C2001 C2003 1.433 . S
C2002 C1998 1.350 . S
C2002 C1999 1.463 . S
C2002 N2006 1.427 . S
C2003 H1993 0.929 . S
C2003 C2001 1.433 . S
C2003 N2006 1.384 . S
C2004 H1995 0.929 . S
C2004 C1996 1.378 . S
C2004 C1999 1.350 . S
C2005 H1992 0.929 . S
C2005 C1997 1.433 . S
C2005 N2007 1.384 . S
N2006 C2002 1.427 . S
N2006 C2003 1.384 . S
N2007 C1999 1.427 . S
N2007 C2005 1.384 . S
H2008 C2014 0.930 . S
H2009 C2018 0.930 . S
H2010 C2023 0.929 . S
H2011 C2021 0.929 . S
H2012 C2016 0.929 . S
H2013 C2022 0.929 . S
C2014 H2008 0.930 . S
C2014 C2015 1.367 . S
C2014 C2022 1.378 . S
C2015 C2014 1.367 . S
C2015 C2023 1.433 . S
C2016 H2012 0.929 . S
C2016 C2018 1.378 . S
C2016 C2020 1.350 . S
C2017 C2020 1.463 . S
C2017 C2022 1.350 . S
C2017 N2025 1.427 . S
C2018 H2009 0.930 . S
C2018 C2016 1.378 . S
C2018 C2019 1.367 . S
C2019 C2018 1.367 . S
C2019 C2021 1.433 . S
C2020 C2016 1.350 . S
C2020 C2017 1.463 . S
C2020 N2024 1.427 . S
C2021 H2011 0.929 . S
C2021 C2019 1.433 . S
C2021 N2024 1.384 . S
C2022 H2013 0.929 . S
C2022 C2014 1.378 . S
C2022 C2017 1.350 . S
C2023 H2010 0.929 . S
C2023 C2015 1.433 . S
C2023 N2025 1.384 . S
N2024 C2020 1.427 . S
N2024 C2021 1.384 . S
N2025 C2017 1.427 . S
N2025 C2023 1.384 . S
H2026 C2032 0.930 . S
H2027 C2036 0.930 . S
H2028 C2041 0.929 . S
H2029 C2039 0.929 . S
H2030 C2034 0.929 . S
H2031 C2040 0.929 . S
C2032 H2026 0.930 . S
C2032 C2033 1.367 . S
C2032 C2040 1.378 . S
C2033 C2032 1.367 . S
C2033 C2041 1.433 . S
C2034 H2030 0.929 . S
C2034 C2036 1.378 . S
C2034 C2038 1.350 . S
C2035 C2038 1.463 . S
C2035 C2040 1.350 . S
C2035 N2043 1.427 . S
C2036 H2027 0.930 . S
C2036 C2034 1.378 . S
C2036 C2037 1.367 . S
C2037 C2036 1.367 . S
C2037 C2039 1.433 . S
C2038 C2034 1.350 . S
C2038 C2035 1.463 . S
C2038 N2042 1.427 . S
C2039 H2029 0.929 . S
C2039 C2037 1.433 . S
C2039 N2042 1.384 . S
C2040 H2031 0.929 . S
C2040 C2032 1.378 . S
C2040 C2035 1.350 . S
C2041 H2028 0.929 . S
C2041 C2033 1.433 . S
C2041 N2043 1.384 . S
N2042 C2038 1.427 . S
N2042 C2039 1.384 . S
N2043 C2035 1.427 . S
N2043 C2041 1.384 . S
H2044 C2050 0.930 . S
H2045 C2054 0.930 . S
H2046 C2059 0.929 . S
H2047 C2057 0.929 . S
H2048 C2052 0.929 . S
H2049 C2058 0.929 . S
C2050 H2044 0.930 . S
C2050 C2051 1.367 . S
C2050 C2058 1.378 . S
C2051 C2050 1.367 . S
C2051 C2059 1.433 . S
C2052 H2048 0.929 . S
C2052 C2054 1.378 . S
C2052 C2056 1.350 . S
C2053 C2056 1.463 . S
C2053 C2058 1.350 . S
C2053 N2061 1.427 . S
C2054 H2045 0.930 . S
C2054 C2052 1.378 . S
C2054 C2055 1.367 . S
C2055 C2054 1.367 . S
C2055 C2057 1.433 . S
C2056 C2052 1.350 . S
C2056 C2053 1.463 . S
C2056 N2060 1.427 . S
C2057 H2047 0.929 . S
C2057 C2055 1.433 . S
C2057 N2060 1.384 . S
C2058 H2049 0.929 . S
C2058 C2050 1.378 . S
C2058 C2053 1.350 . S
C2059 H2046 0.929 . S
C2059 C2051 1.433 . S
C2059 N2061 1.384 . S
N2060 C2056 1.427 . S
N2060 C2057 1.384 . S
N2061 C2053 1.427 . S
N2061 C2059 1.384 . S
H2062 C2068 0.930 . S
H2063 C2072 0.930 . S
H2064 C2077 0.929 . S
H2065 C2075 0.929 . S
H2066 C2070 0.929 . S
H2067 C2076 0.929 . S
C2068 H2062 0.930 . S
C2068 C2069 1.367 . S
C2068 C2076 1.378 1_556 S
C2069 C2068 1.367 . S
C2069 C2077 1.433 1_556 S
C2070 H2066 0.929 . S
C2070 C2072 1.378 . S
C2070 C2074 1.350 . S
C2071 C2074 1.463 . S
C2071 C2076 1.350 . S
C2071 N2079 1.427 . S
C2072 H2063 0.930 . S
C2072 C2070 1.378 . S
C2072 C2073 1.367 . S
C2073 C2072 1.367 . S
C2073 C2075 1.433 . S
C2074 C2070 1.350 . S
C2074 C2071 1.463 . S
C2074 N2078 1.427 . S
C2075 H2065 0.929 . S
C2075 C2073 1.433 . S
C2075 N2078 1.384 . S
C2076 H2067 0.929 . S
C2076 C2068 1.378 1_554 S
C2076 C2071 1.350 . S
C2077 H2064 0.929 . S
C2077 C2069 1.433 1_554 S
C2077 N2079 1.384 . S
N2078 C2074 1.427 . S
N2078 C2075 1.384 . S
N2079 C2071 1.427 . S
N2079 C2077 1.384 . S
H2080 C2086 0.930 . S
H2081 C2090 0.930 . S
H2082 C2095 0.929 . S
H2083 C2093 0.929 . S
H2084 C2088 0.929 . S
H2085 C2094 0.929 . S
C2086 H2080 0.930 . S
C2086 C2087 1.367 . S
C2086 C2094 1.378 . S
C2087 C2086 1.367 . S
C2087 C2095 1.433 . S
C2088 H2084 0.929 . S
C2088 C2090 1.378 . S
C2088 C2092 1.350 . S
C2089 C2092 1.463 . S
C2089 C2094 1.350 . S
C2089 N2097 1.427 . S
C2090 H2081 0.930 . S
C2090 C2088 1.378 . S
C2090 C2091 1.367 . S
C2091 C2090 1.367 . S
C2091 C2093 1.433 . S
C2092 C2088 1.350 . S
C2092 C2089 1.463 . S
C2092 N2096 1.427 . S
C2093 H2083 0.929 . S
C2093 C2091 1.433 . S
C2093 N2096 1.384 . S
C2094 H2085 0.929 . S
C2094 C2086 1.378 . S
C2094 C2089 1.350 . S
C2095 H2082 0.929 . S
C2095 C2087 1.433 . S
C2095 N2097 1.384 . S
N2096 C2092 1.427 . S
N2096 C2093 1.384 . S
N2097 C2089 1.427 . S
N2097 C2095 1.384 . S
H2098 C2104 0.930 . S
H2099 C2108 0.930 . S
H2100 C2113 0.929 . S
H2101 C2111 0.929 . S
H2102 C2106 0.929 . S
H2103 C2112 0.929 . S
C2104 H2098 0.930 . S
C2104 C2105 1.367 . S
C2104 C2112 1.378 . S
C2105 C2104 1.367 . S
C2105 C2113 1.433 . S
C2106 H2102 0.929 . S
C2106 C2108 1.378 . S
C2106 C2110 1.350 . S
C2107 C2110 1.463 . S
C2107 C2112 1.350 . S
C2107 N2115 1.427 . S
C2108 H2099 0.930 . S
C2108 C2106 1.378 . S
C2108 C2109 1.367 . S
C2109 C2108 1.367 . S
C2109 C2111 1.433 . S
C2110 C2106 1.350 . S
C2110 C2107 1.463 . S
C2110 N2114 1.427 . S
C2111 H2101 0.929 . S
C2111 C2109 1.433 . S
C2111 N2114 1.384 . S
C2112 H2103 0.929 . S
C2112 C2104 1.378 . S
C2112 C2107 1.350 . S
C2113 H2100 0.929 . S
C2113 C2105 1.433 . S
C2113 N2115 1.384 . S
N2114 C2110 1.427 . S
N2114 C2111 1.384 . S
N2115 C2107 1.427 . S
N2115 C2113 1.384 . S
H2116 C2122 0.930 . S
H2117 C2126 0.930 . S
H2118 C2131 0.929 . S
H2119 C2129 0.929 . S
H2120 C2124 0.929 . S
H2121 C2130 0.929 . S
C2122 H2116 0.930 . S
C2122 C2123 1.367 . S
C2122 C2130 1.378 . S
C2123 C2122 1.367 . S
C2123 C2131 1.433 . S
C2124 H2120 0.929 . S
C2124 C2126 1.378 . S
C2124 C2128 1.350 . S
C2125 C2128 1.463 . S
C2125 C2130 1.350 . S
C2125 N2133 1.427 . S
C2126 H2117 0.930 . S
C2126 C2124 1.378 . S
C2126 C2127 1.367 . S
C2127 C2126 1.367 . S
C2127 C2129 1.433 . S
C2128 C2124 1.350 . S
C2128 C2125 1.463 . S
C2128 N2132 1.427 . S
C2129 H2119 0.929 . S
C2129 C2127 1.433 . S
C2129 N2132 1.384 . S
C2130 H2121 0.929 . S
C2130 C2122 1.378 . S
C2130 C2125 1.350 . S
C2131 H2118 0.929 . S
C2131 C2123 1.433 . S
C2131 N2133 1.384 . S
N2132 C2128 1.427 . S
N2132 C2129 1.384 . S
N2133 C2125 1.427 . S
N2133 C2131 1.384 . S
H2134 C2140 0.930 . S
H2135 C2144 0.930 . S
H2136 C2149 0.929 . S
H2137 C2147 0.929 . S
H2138 C2142 0.929 . S
H2139 C2148 0.929 . S
C2140 H2134 0.930 . S
C2140 C2141 1.367 . S
C2140 C2148 1.378 . S
C2141 C2140 1.367 . S
C2141 C2149 1.433 . S
C2142 H2138 0.929 . S
C2142 C2144 1.378 . S
C2142 C2146 1.350 . S
C2143 C2146 1.463 . S
C2143 C2148 1.350 . S
C2143 N2151 1.427 . S
C2144 H2135 0.930 . S
C2144 C2142 1.378 . S
C2144 C2145 1.367 . S
C2145 C2144 1.367 . S
C2145 C2147 1.433 . S
C2146 C2142 1.350 . S
C2146 C2143 1.463 . S
C2146 N2150 1.427 . S
C2147 H2137 0.929 . S
C2147 C2145 1.433 . S
C2147 N2150 1.384 . S
C2148 H2139 0.929 . S
C2148 C2140 1.378 . S
C2148 C2143 1.350 . S
C2149 H2136 0.929 . S
C2149 C2141 1.433 . S
C2149 N2151 1.384 . S
N2150 C2146 1.427 . S
N2150 C2147 1.384 . S
N2151 C2143 1.427 . S
N2151 C2149 1.384 . S
H2152 C2158 0.930 . S
H2153 C2162 0.935 . S
H2154 C2167 0.929 . S
H2155 C2165 0.929 . S
H2156 C2160 0.929 . S
H2157 C2166 0.929 . S
C2158 H2152 0.930 . S
C2158 C2159 1.367 . S
C2158 C2166 1.378 . S
C2159 C2158 1.367 . S
C2159 C2167 1.433 1_556 S
C2160 H2156 0.929 . S
C2160 C2162 1.380 . S
C2160 C2164 1.350 1_554 S
C2161 C2164 1.463 . S
C2161 C2166 1.350 . S
C2161 N2169 1.427 1_556 S
C2162 H2153 0.935 . S
C2162 C2160 1.380 . S
C2162 C2163 1.360 1_554 S
C2163 C2162 1.360 1_556 S
C2163 C2165 1.433 . S
C2164 C2160 1.350 1_556 S
C2164 C2161 1.463 . S
C2164 N2168 1.427 . S
C2165 H2155 0.929 . S
C2165 C2163 1.433 . S
C2165 N2168 1.384 . S
C2166 H2157 0.929 . S
C2166 C2158 1.378 . S
C2166 C2161 1.350 . S
C2167 H2154 0.929 . S
C2167 C2159 1.433 1_554 S
C2167 N2169 1.384 . S
N2168 C2164 1.427 . S
N2168 C2165 1.384 . S
N2169 C2161 1.427 1_554 S
N2169 C2167 1.384 . S
H2170 C2176 0.930 . S
H2171 C2180 0.930 . S
H2172 C2185 0.929 . S
H2173 C2183 0.929 . S
H2174 C2178 0.929 . S
H2175 C2184 0.929 . S
C2176 H2170 0.930 . S
C2176 C2177 1.367 . S
C2176 C2184 1.378 . S
C2177 C2176 1.367 . S
C2177 C2185 1.433 . S
C2178 H2174 0.929 . S
C2178 C2180 1.378 . S
C2178 C2182 1.350 . S
C2179 C2182 1.463 . S
C2179 C2184 1.350 . S
C2179 N2187 1.427 . S
C2180 H2171 0.930 . S
C2180 C2178 1.378 . S
C2180 C2181 1.367 . S
C2181 C2180 1.367 . S
C2181 C2183 1.433 . S
C2182 C2178 1.350 . S
C2182 C2179 1.463 . S
C2182 N2186 1.427 . S
C2183 H2173 0.929 . S
C2183 C2181 1.433 . S
C2183 N2186 1.384 . S
C2184 H2175 0.929 . S
C2184 C2176 1.378 . S
C2184 C2179 1.350 . S
C2185 H2172 0.929 . S
C2185 C2177 1.433 . S
C2185 N2187 1.384 . S
N2186 C2182 1.427 . S
N2186 C2183 1.384 . S
N2187 C2179 1.427 . S
N2187 C2185 1.384 . S
H2188 C2194 0.930 1_556 S
H2189 C2198 0.930 . S
H2190 C2203 0.929 . S
H2191 C2201 0.929 . S
H2192 C2196 0.929 . S
H2193 C2202 0.929 . S
C2194 H2188 0.930 1_554 S
C2194 C2195 1.367 . S
C2194 C2202 1.378 1_554 S
C2195 C2194 1.367 . S
C2195 C2203 1.433 . S
C2196 H2192 0.929 . S
C2196 C2198 1.378 . S
C2196 C2200 1.350 . S
C2197 C2200 1.463 . S
C2197 C2202 1.350 1_554 S
C2197 N2205 1.427 . S
C2198 H2189 0.930 . S
C2198 C2196 1.378 . S
C2198 C2199 1.367 . S
C2199 C2198 1.367 . S
C2199 C2201 1.433 1_554 S
C2200 C2196 1.350 . S
C2200 C2197 1.463 . S
C2200 N2204 1.427 1_554 S
C2201 H2191 0.929 . S
C2201 C2199 1.433 1_556 S
C2201 N2204 1.384 . S
C2202 H2193 0.929 . S
C2202 C2194 1.378 1_556 S
C2202 C2197 1.350 1_556 S
C2203 H2190 0.929 . S
C2203 C2195 1.433 . S
C2203 N2205 1.384 . S
N2204 C2200 1.427 1_556 S
N2204 C2201 1.384 . S
N2205 C2197 1.427 . S
N2205 C2203 1.384 . S
H2206 C2212 0.930 . S
H2207 C2216 0.930 . S
H2208 C2221 0.930 1_545 S
H2209 C2219 0.929 . S
H2210 C2214 0.929 . S
H2211 C2220 0.929 . S
C2212 H2206 0.930 . S
C2212 C2213 1.345 1_565 S
C2212 C2220 1.378 . S
C2213 C2212 1.345 1_545 S
C2213 C2221 1.427 1_545 S
C2214 H2210 0.929 . S
C2214 C2216 1.378 . S
C2214 C2218 1.350 . S
C2215 C2218 1.463 . S
C2215 C2220 1.350 . S
C2215 N2223 1.427 . S
C2216 H2207 0.930 . S
C2216 C2214 1.378 . S
C2216 C2217 1.367 . S
C2217 C2216 1.367 . S
C2217 C2219 1.433 . S
C2218 C2214 1.350 . S
C2218 C2215 1.463 . S
C2218 N2222 1.427 . S
C2219 H2209 0.929 . S
C2219 C2217 1.433 . S
C2219 N2222 1.384 . S
C2220 H2211 0.929 . S
C2220 C2212 1.378 . S
C2220 C2215 1.350 . S
C2221 H2208 0.930 1_565 S
C2221 C2213 1.427 1_565 S
C2221 N2223 1.384 . S
N2222 C2218 1.427 . S
N2222 C2219 1.384 . S
N2223 C2215 1.427 . S
N2223 C2221 1.384 . S
C1371 C353 1.885 . S
C1367 C101 1.874 . S
C1389 C412 1.030 . S
C1385 C125 0.974 . S
C1403 C139 2.117 . S
C1407 C529 2.111 . S
C1425 C597 1.873 1_455 S
C1421 C82 1.894 . S
C1443 C676 1.620 . S
C1439 C196 1.639 . S
C1461 C801 1.889 . S
C1457 C234 1.899 . S
C1475 C220 0.752 . S
C1479 C861 0.777 . S
C1497 C969 1.714 1_565 S
C1493 C173 1.707 . S
C1511 C211 1.258 . S
C1515 C1065 1.264 . S
C1533 C1125 1.067 . S
C1529 C182 1.020 . S
C1547 C201 1.347 . S
C1551 C1028 1.486 . S
C1569 C1145 1.344 . S
C1565 C239 1.263 . S
C1583 C135 1.672 . S
C1587 C1213 1.689 . S
C1601 C87 1.874 . S
C1605 C1204 2.050 . S
C1619 C106 1.074 . S
C1623 C1233 1.204 . S
C1637 C116 1.225 . S
C1641 C1241 1.245 . S
C1655 C59 1.975 . S
C1659 C625 1.995 . S
C1673 C268 2.328 . S
C1677 C588 2.340 . S
C1695 C324 1.160 . S
C1691 C291 1.173 . S
C1713 C421 1.462 . S
C1709 C163 1.335 . S
C1727 C78 2.130 1_545 S
C1731 C685 2.167 . S
C1749 C977 1.117 . S
C1745 C215 1.113 . S
C1767 C705 1.679 . S
C1763 C177 1.700 1_545 S
C1785 C889 1.888 . S
C1781 C230 1.874 . S
C1803 C881 1.902 . S
C1799 C272 1.896 . S
C1817 C296 0.982 . S
C1821 C949 1.039 . S
C1835 C158 2.118 . S
C1839 C713 2.112 . S
C1857 C764 1.848 . S
C1853 C253 1.869 . S
C1871 C63 1.625 . S
C1875 C509 1.608 . S
C1893 C617 1.908 . S
C1889 C6 1.902 . S
C1911 C333 0.767 . S
C1907 C30 0.784 . S
C1929 C449 1.723 . S
C1925 C40 1.720 . S
C1943 C21 1.267 . S
C1947 C1153 1.272 . S
C1961 C49 0.990 . S
C1965 C1037 1.041 . S
C1979 C68 1.357 . S
C1983 C1116 1.477 . S
C1997 C11 1.254 1_556 S
C2001 C1057 1.341 . S
C2019 C1301 1.644 . S
C2015 C154 1.637 . S
C2037 C1292 2.060 . S
C2033 C258 1.890 . S
C2055 C1321 1.260 . S
C2051 C277 1.147 . S
C2069 C287 1.235 . S
C2073 C1329 1.254 . S
C2087 C192 1.973 . S
C2091 C793 1.992 . S
C2109 C773 2.313 . S
C2105 C97 2.303 . S
C2127 C852 1.168 . S
C2123 C120 1.177 . S
C2145 C940 1.467 . S
C2141 C144 1.346 . S
C2159 C249 2.129 . S
C2163 C500 2.167 . S
C2181 C441 1.140 . S
C2177 C25 1.136 . S
C2195 C44 1.654 . S
C2199 C537 1.626 . S
C2217 C361 1.887 . S
C2213 C2 1.900 . S
