# Generated by pormake.
# Topology ctn, (3,4)-cn, num edge types: 1
# Building blocks:
#     Node 0, Type 0, BuildingBlock: BELTOD_clean_linker_0, # of connection points: 3
#     Node 1, Type 0, BuildingBlock: BELTOD_clean_linker_0, # of connection points: 3
#     Node 2, Type 0, BuildingBlock: BELTOD_clean_linker_0, # of connection points: 3
#     Node 3, Type 0, BuildingBlock: BELTOD_clean_linker_0, # of connection points: 3
#     Node 4, Type 0, BuildingBlock: BELTOD_clean_linker_0, # of connection points: 3
#     Node 5, Type 0, BuildingBlock: BELTOD_clean_linker_0, # of connection points: 3
#     Node 6, Type 0, BuildingBlock: BELTOD_clean_linker_0, # of connection points: 3
#     Node 7, Type 0, BuildingBlock: BELTOD_clean_linker_0, # of connection points: 3
#     Node 8, Type 0, BuildingBlock: BELTOD_clean_linker_0, # of connection points: 3
#     Node 9, Type 0, BuildingBlock: BELTOD_clean_linker_0, # of connection points: 3
#     Node 10, Type 0, BuildingBlock: BELTOD_clean_linker_0, # of connection points: 3
#     Node 11, Type 0, BuildingBlock: BELTOD_clean_linker_0, # of connection points: 3
#     Node 12, Type 0, BuildingBlock: BELTOD_clean_linker_0, # of connection points: 3
#     Node 13, Type 0, BuildingBlock: BELTOD_clean_linker_0, # of connection points: 3
#     Node 14, Type 0, BuildingBlock: BELTOD_clean_linker_0, # of connection points: 3
#     Node 15, Type 0, BuildingBlock: BELTOD_clean_linker_0, # of connection points: 3
#     Node 16, Type 1, BuildingBlock: AZAVOO_clean_sbu_0, # of connection points: 4
#     Node 17, Type 1, BuildingBlock: AZAVOO_clean_sbu_0, # of connection points: 4
#     Node 18, Type 1, BuildingBlock: AZAVOO_clean_sbu_0, # of connection points: 4
#     Node 19, Type 1, BuildingBlock: AZAVOO_clean_sbu_0, # of connection points: 4
#     Node 20, Type 1, BuildingBlock: AZAVOO_clean_sbu_0, # of connection points: 4
#     Node 21, Type 1, BuildingBlock: AZAVOO_clean_sbu_0, # of connection points: 4
#     Node 22, Type 1, BuildingBlock: AZAVOO_clean_sbu_0, # of connection points: 4
#     Node 23, Type 1, BuildingBlock: AZAVOO_clean_sbu_0, # of connection points: 4
#     Node 24, Type 1, BuildingBlock: AZAVOO_clean_sbu_0, # of connection points: 4
#     Node 25, Type 1, BuildingBlock: AZAVOO_clean_sbu_0, # of connection points: 4
#     Node 26, Type 1, BuildingBlock: AZAVOO_clean_sbu_0, # of connection points: 4
#     Node 27, Type 1, BuildingBlock: AZAVOO_clean_sbu_0, # of connection points: 4
#     Edge 28, Type (0, 1), BuildingBlock: EZIPEK_clean_linker_0, # of connection points: 2
#     Edge 29, Type (0, 1), BuildingBlock: EZIPEK_clean_linker_0, # of connection points: 2
#     Edge 30, Type (0, 1), BuildingBlock: EZIPEK_clean_linker_0, # of connection points: 2
#     Edge 31, Type (0, 1), BuildingBlock: EZIPEK_clean_linker_0, # of connection points: 2
#     Edge 32, Type (0, 1), BuildingBlock: EZIPEK_clean_linker_0, # of connection points: 2
#     Edge 33, Type (0, 1), BuildingBlock: EZIPEK_clean_linker_0, # of connection points: 2
#     Edge 34, Type (0, 1), BuildingBlock: EZIPEK_clean_linker_0, # of connection points: 2
#     Edge 35, Type (0, 1), BuildingBlock: EZIPEK_clean_linker_0, # of connection points: 2
#     Edge 36, Type (0, 1), BuildingBlock: EZIPEK_clean_linker_0, # of connection points: 2
#     Edge 37, Type (0, 1), BuildingBlock: EZIPEK_clean_linker_0, # of connection points: 2
#     Edge 38, Type (0, 1), BuildingBlock: EZIPEK_clean_linker_0, # of connection points: 2
#     Edge 39, Type (0, 1), BuildingBlock: EZIPEK_clean_linker_0, # of connection points: 2
#     Edge 40, Type (0, 1), BuildingBlock: EZIPEK_clean_linker_0, # of connection points: 2
#     Edge 41, Type (0, 1), BuildingBlock: EZIPEK_clean_linker_0, # of connection points: 2
#     Edge 42, Type (0, 1), BuildingBlock: EZIPEK_clean_linker_0, # of connection points: 2
#     Edge 43, Type (0, 1), BuildingBlock: EZIPEK_clean_linker_0, # of connection points: 2
#     Edge 44, Type (0, 1), BuildingBlock: EZIPEK_clean_linker_0, # of connection points: 2
#     Edge 45, Type (0, 1), BuildingBlock: EZIPEK_clean_linker_0, # of connection points: 2
#     Edge 46, Type (0, 1), BuildingBlock: EZIPEK_clean_linker_0, # of connection points: 2
#     Edge 47, Type (0, 1), BuildingBlock: EZIPEK_clean_linker_0, # of connection points: 2
#     Edge 48, Type (0, 1), BuildingBlock: EZIPEK_clean_linker_0, # of connection points: 2
#     Edge 49, Type (0, 1), BuildingBlock: EZIPEK_clean_linker_0, # of connection points: 2
#     Edge 50, Type (0, 1), BuildingBlock: EZIPEK_clean_linker_0, # of connection points: 2
#     Edge 51, Type (0, 1), BuildingBlock: EZIPEK_clean_linker_0, # of connection points: 2
#     Edge 52, Type (0, 1), BuildingBlock: EZIPEK_clean_linker_0, # of connection points: 2
#     Edge 53, Type (0, 1), BuildingBlock: EZIPEK_clean_linker_0, # of connection points: 2
#     Edge 54, Type (0, 1), BuildingBlock: EZIPEK_clean_linker_0, # of connection points: 2
#     Edge 55, Type (0, 1), BuildingBlock: EZIPEK_clean_linker_0, # of connection points: 2
#     Edge 56, Type (0, 1), BuildingBlock: EZIPEK_clean_linker_0, # of connection points: 2
#     Edge 57, Type (0, 1), BuildingBlock: EZIPEK_clean_linker_0, # of connection points: 2
#     Edge 58, Type (0, 1), BuildingBlock: EZIPEK_clean_linker_0, # of connection points: 2
#     Edge 59, Type (0, 1), BuildingBlock: EZIPEK_clean_linker_0, # of connection points: 2
#     Edge 60, Type (0, 1), BuildingBlock: EZIPEK_clean_linker_0, # of connection points: 2
#     Edge 61, Type (0, 1), BuildingBlock: EZIPEK_clean_linker_0, # of connection points: 2
#     Edge 62, Type (0, 1), BuildingBlock: EZIPEK_clean_linker_0, # of connection points: 2
#     Edge 63, Type (0, 1), BuildingBlock: EZIPEK_clean_linker_0, # of connection points: 2
#     Edge 64, Type (0, 1), BuildingBlock: EZIPEK_clean_linker_0, # of connection points: 2
#     Edge 65, Type (0, 1), BuildingBlock: EZIPEK_clean_linker_0, # of connection points: 2
#     Edge 66, Type (0, 1), BuildingBlock: EZIPEK_clean_linker_0, # of connection points: 2
#     Edge 67, Type (0, 1), BuildingBlock: EZIPEK_clean_linker_0, # of connection points: 2
#     Edge 68, Type (0, 1), BuildingBlock: EZIPEK_clean_linker_0, # of connection points: 2
#     Edge 69, Type (0, 1), BuildingBlock: EZIPEK_clean_linker_0, # of connection points: 2
#     Edge 70, Type (0, 1), BuildingBlock: EZIPEK_clean_linker_0, # of connection points: 2
#     Edge 71, Type (0, 1), BuildingBlock: EZIPEK_clean_linker_0, # of connection points: 2
#     Edge 72, Type (0, 1), BuildingBlock: EZIPEK_clean_linker_0, # of connection points: 2
#     Edge 73, Type (0, 1), BuildingBlock: EZIPEK_clean_linker_0, # of connection points: 2
#     Edge 74, Type (0, 1), BuildingBlock: EZIPEK_clean_linker_0, # of connection points: 2
#     Edge 75, Type (0, 1), BuildingBlock: EZIPEK_clean_linker_0, # of connection points: 2
# Relax obj value: 0.002
# Max RMSD: 0.041
# Mean RMSD: 0.025
data_MOF--net-ctn--node1-AZAVOO_clean_sbu_0--node2-BELTOD_clean_linker_0--edge1-EZIPEK_clean_linker_0
_symmetry_space_group_name_H-M    P1
_symmetry_Int_Tables_number       1
_symmetry_cell_setting            triclinic
loop_
_symmetry_equiv_pos_as_xyz
'x, y, z'
_cell_length_a     46.530128
_cell_length_b     47.826845
_cell_length_c     47.277572
_cell_angle_alpha  89.400669
_cell_angle_beta   93.333356
_cell_angle_gamma 94.332509
loop_
_atom_site_label
_atom_site_type_symbol
_atom_site_fract_x
_atom_site_fract_y
_atom_site_fract_z
_atom_type_partial_charge
P0 P 0.07819 0.05098 0.05277 0.0
H1 H 0.06071 0.00118 0.08634 0.0
H2 H 0.02295 0.99277 0.12036 0.0
H3 H 0.99042 0.0726 0.0982 0.0
H4 H 0.02841 0.08149 0.06511 0.0
H5 H 0.13813 0.03851 0.05004 0.0
H6 H 0.16092 0.99724 0.03461 0.0
H7 H 0.07731 0.95767 0.00876 0.0
H8 H 0.05426 -0.00078 0.02438 0.0
H9 H 0.11204 0.09837 0.02959 0.0
H10 H 0.02741 0.05636 0.0134 0.0
O11 O 0.10205 0.06739 0.07587 0.0
H12 H 0.09878 0.13667 0.99793 0.0
H13 H 0.01377 0.09538 0.98229 0.0
C14 C 0.04678 0.0415 0.07231 0.0
C15 C 0.04484 0.01642 0.08801 0.0
C16 C 0.02336 0.0116 0.10741 0.0
C17 C 0.00371 0.03189 0.11132 0.0
C18 C 0.00503 0.05647 0.09493 0.0
C19 C 0.02667 0.06143 0.07592 0.0
C20 C 0.09448 0.0215 0.03903 0.0
C21 C 0.12462 0.02107 0.04095 0.0
C22 C 0.13767 0.99768 0.03198 0.0
C23 C 0.12074 0.97455 0.02065 0.0
C24 C 0.09063 0.97546 0.01741 0.0
C25 C 0.07754 -0.00103 0.02645 0.0
C26 C 0.07033 0.07515 0.02456 0.0
C27 C 0.09077 0.09718 0.01888 0.0
C28 C 0.08326 0.11895 0.00077 0.0
C29 C 0.05522 0.11892 0.98814 0.0
C30 C 0.03548 0.09571 0.99194 0.0
C31 C 0.04321 0.07363 0.00977 0.0
P32 P 0.34343 0.69839 0.20912 0.0
H33 H 0.36328 0.72255 0.15606 0.0
H34 H 0.33991 0.7516 0.11972 0.0
H35 H 0.26967 0.76061 0.17368 0.0
H36 H 0.29305 0.73196 0.21017 0.0
H37 H 0.39571 0.67985 0.23757 0.0
H38 H 0.42427 0.69564 0.28024 0.0
H39 H 0.36849 0.76259 0.28953 0.0
H40 H 0.34028 0.74729 0.24599 0.0
H41 H 0.31415 0.64544 0.18947 0.0
H42 H 0.3056 0.70484 0.25603 0.0
O43 O 0.36293 0.67807 0.19048 0.0
H44 H 0.27245 0.61664 0.20583 0.0
H45 H 0.26334 0.67646 0.27174 0.0
C46 C 0.32961 0.72458 0.18556 0.0
C47 C 0.34314 0.73119 0.16035 0.0
C48 C 0.32988 0.74772 0.13964 0.0
C49 C 0.30301 0.75784 0.14405 0.0
C50 C 0.29036 0.75276 0.16998 0.0
C51 C 0.3037 0.73636 0.19072 0.0
C52 C 0.3661 0.71262 0.23841 0.0
C53 C 0.38992 0.69831 0.24833 0.0
C54 C 0.40617 0.70722 0.27273 0.0
C55 C 0.39849 0.73027 0.28796 0.0
C56 C 0.37482 0.74486 0.27792 0.0
C57 C 0.35879 0.73616 0.25314 0.0
C58 C 0.31344 0.67692 0.22195 0.0
C59 C 0.30346 0.65223 0.20766 0.0
C60 C 0.27955 0.63594 0.2168 0.0
C61 C 0.26499 0.64443 0.24003 0.0
C62 C 0.27445 0.66956 0.25386 0.0
C63 C 0.29867 0.68559 0.245 0.0
P64 P 0.01041 0.51883 0.0263 0.0
H65 H 0.96408 0.48975 0.98991 0.0
H66 H 0.95851 0.4424 0.96978 0.0
H67 H 0.04266 0.4259 0.00642 0.0
H68 H 0.0478 0.47268 0.02745 0.0
H69 H 0.99154 0.57515 0.0171 0.0
H70 H 0.94541 0.59549 0.02261 0.0
H71 H 0.90852 0.51555 0.05141 0.0
H72 H 0.95476 0.49504 0.04586 0.0
H73 H 0.07022 0.53623 0.0446 0.0
H74 H 0.99483 0.49703 0.08211 0.0
O75 O 0.02936 0.53932 0.0042 0.0
H76 H 0.09789 0.5327 0.0901 0.0
H77 H 0.02254 0.49383 0.12771 0.0
C78 C 0.00588 0.48432 0.01115 0.0
C79 C 0.98113 0.47582 0.99405 0.0
C80 C 0.97806 0.44897 0.98229 0.0
C81 C 1.00016 0.43072 0.9867 0.0
C82 C 0.02534 0.43969 0.00289 0.0
C83 C 0.02818 0.46629 0.01501 0.0
C84 C 0.97642 0.53349 0.03063 0.0
C85 C 0.97357 0.56191 0.02449 0.0
C86 C 0.94732 0.57353 0.02765 0.0
C87 C 0.92368 0.55693 0.03727 0.0
C88 C 0.92659 0.52858 0.04388 0.0
C89 C 0.95291 0.51696 0.04072 0.0
C90 C 0.03028 0.51741 0.06009 0.0
C91 C 0.05951 0.52715 0.06262 0.0
C92 C 0.07534 0.52504 0.0885 0.0
C93 C 0.06215 0.51311 0.11215 0.0
C94 C 0.03297 0.50321 0.10965 0.0
C95 C 0.01717 0.50519 0.08369 0.0
P96 P 0.68438 0.84547 0.18683 0.0
H97 H 0.71061 0.89531 0.15914 0.0
H98 H 0.75527 0.92493 0.16991 0.0
H99 H 0.77457 0.87325 0.24283 0.0
H100 H 0.72963 0.84394 0.23242 0.0
H101 H 0.67449 0.82275 0.12939 0.0
H102 H 0.68936 0.78026 0.10742 0.0
H103 H 0.73174 0.75674 0.18669 0.0
H104 H 0.7167 0.7991 0.20882 0.0
H105 H 0.6757 0.87709 0.23795 0.0
H106 H 0.6498 0.79504 0.20386 0.0
O107 O 0.66237 0.86214 0.16445 0.0
H108 H 0.64997 0.86479 0.28088 0.0
H109 H 0.6246 0.78275 0.2468 0.0
C110 C 0.71666 0.86767 0.1952 0.0
C111 C 0.72429 0.89047 0.17758 0.0
C112 C 0.74975 0.90729 0.18363 0.0
C113 C 0.76808 0.90125 0.20717 0.0
C114 C 0.76061 0.87823 0.22462 0.0
C115 C 0.73504 0.86156 0.21866 0.0
C116 C 0.69459 0.81408 0.1707 0.0
C117 C 0.68679 0.80841 0.14213 0.0
C118 C 0.69513 0.78417 0.12964 0.0
C119 C 0.71141 0.76544 0.14557 0.0
C120 C 0.71899 0.77095 0.17421 0.0
C121 C 0.71062 0.79516 0.1867 0.0
C122 C 0.66544 0.83666 0.21816 0.0
C123 C 0.66472 0.85642 0.23978 0.0
C124 C 0.65002 0.8495 0.26415 0.0
C125 C 0.63575 0.82279 0.267 0.0
C126 C 0.63574 0.80336 0.245 0.0
C127 C 0.65028 0.81034 0.22062 0.0
P128 P 0.06793 0.95651 0.45714 0.0
H129 H 0.1096 0.96061 0.50591 0.0
H130 H 0.14134 4e-05 0.52542 0.0
H131 H 0.10145 0.05618 0.46583 0.0
H132 H 0.06955 0.01704 0.44655 0.0
H133 H 0.05798 0.89686 0.44776 0.0
H134 H 0.04048 0.8577 0.47747 0.0
H135 H 0.03298 0.91466 0.5463 0.0
H136 H 0.05039 0.95421 0.51631 0.0
H137 H 0.06056 0.97111 0.39737 0.0
H138 H 0.00804 0.96522 0.4698 0.0
O139 O 0.09133 0.94414 0.43585 0.0
H140 H 0.01884 0.9837 0.36734 0.0
H141 H 0.96602 0.97791 0.43946 0.0
C142 C 0.08667 0.98599 0.47529 0.0
C143 C 0.10704 0.98153 0.49764 0.0
C144 C 0.12524 0.00392 0.50865 0.0
C145 C 0.12356 0.03091 0.49706 0.0
C146 C 0.10283 0.03549 0.47512 0.0
C147 C 0.08455 0.01315 0.46425 0.0
C148 C 0.05621 0.92826 0.48012 0.0
C149 C 0.05288 0.90097 0.46932 0.0
C150 C 0.04279 0.87868 0.48616 0.0
C151 C 0.03569 0.88338 0.51402 0.0
C152 C 0.0386 0.91073 0.52486 0.0
C153 C 0.04863 0.93316 0.50786 0.0
C154 C 0.03722 0.9667 0.43566 0.0
C155 C 0.04005 0.97243 0.40681 0.0
C156 C 0.01631 0.97966 0.3897 0.0
C157 C 0.98941 0.98141 0.4012 0.0
C158 C 0.98662 0.9764 0.43025 0.0
C159 C 0.01051 0.96916 0.44745 0.0
P160 P 0.2187 0.74294 0.73708 0.0
H161 H 0.24705 0.79347 0.76374 0.0
H162 H 0.24798 0.81159 0.812 0.0
H163 H 0.18595 0.74453 0.83423 0.0
H164 H 0.18358 0.72741 0.78542 0.0
H165 H 0.25358 0.71561 0.69809 0.0
H166 H 0.28501 0.67672 0.70372 0.0
H167 H 0.25885 0.66293 0.78902 0.0
H168 H 0.22759 0.70166 0.78361 0.0
H169 H 0.18763 0.77183 0.69176 0.0
H170 H 0.17292 0.69757 0.74313 0.0
O171 O 0.23763 0.76583 0.71717 0.0
H172 H 0.14096 0.76156 0.66618 0.0
H173 H 0.12533 0.68786 0.71805 0.0
C174 C 0.21547 0.75886 0.77102 0.0
C175 C 0.23305 0.78303 0.7787 0.0
C176 C 0.23364 0.79338 0.80625 0.0
C177 C 0.21739 0.77914 0.82678 0.0
C178 C 0.19875 0.75575 0.81874 0.0
C179 C 0.19747 0.74595 0.79091 0.0
C180 C 0.23866 0.71207 0.74059 0.0
C181 C 0.25439 0.70413 0.71795 0.0
C182 C 0.27225 0.68195 0.7211 0.0
C183 C 0.27439 0.66726 0.74688 0.0
C184 C 0.25755 0.67421 0.76905 0.0
C185 C 0.23974 0.69644 0.76591 0.0
C186 C 0.18388 0.73528 0.71912 0.0
C187 C 0.17438 0.75333 0.69759 0.0
C188 C 0.1477 0.74755 0.68304 0.0
C189 C 0.12983 0.72385 0.69007 0.0
C190 C 0.13894 0.70613 0.71219 0.0
C191 C 0.16598 0.71171 0.72649 0.0
P192 P 0.98336 0.47483 0.49465 0.0
H193 H 0.04406 0.47365 0.48392 0.0
H194 H 0.07048 0.47873 0.44059 0.0
H195 H 0.99017 0.48332 0.39103 0.0
H196 H 0.96359 0.47839 0.43462 0.0
H197 H 0.02041 0.50931 0.53471 0.0
H198 H 0.01947 0.55789 0.55044 0.0
H199 H 0.94485 0.56813 0.49376 0.0
H200 H 0.94744 0.52034 0.47625 0.0
H201 H 0.96363 0.41985 0.47237 0.0
H202 H 0.92537 0.48841 0.51093 0.0
O203 O 0.00217 0.45754 0.51937 0.0
H204 H 0.91679 0.39242 0.47142 0.0
H205 H 0.87838 0.46226 0.50731 0.0
C206 C 0.00187 0.47504 0.46235 0.0
C207 C 0.03205 0.47521 0.46372 0.0
C208 C 0.04711 0.47818 0.43907 0.0
C209 C 0.03222 0.4813 0.41272 0.0
C210 C 0.00195 0.48077 0.41122 0.0
C211 C 0.98685 0.47788 0.436 0.0
C212 C 0.98303 0.5108 0.50539 0.0
C213 C 0.00388 0.522 0.5256 0.0
C214 C 0.0034 0.54971 0.53454 0.0
C215 C 0.98161 0.56639 0.52385 0.0
C216 C 0.96155 0.55549 0.50265 0.0
C217 C 0.96283 0.52817 0.4929 0.0
C218 C 0.94797 0.45661 0.49078 0.0
C219 C 0.94507 0.42935 0.47981 0.0
C220 C 0.91839 0.41372 0.47924 0.0
C221 C 0.89405 0.42537 0.48913 0.0
C222 C 0.89683 0.45293 0.4994 0.0
C223 C 0.92372 0.46808 0.50103 0.0
P224 P 0.81184 0.79192 0.80512 0.0
H225 H 0.85322 0.8217 0.76997 0.0
H226 H 0.87662 0.8087 0.72731 0.0
H227 H 0.82817 0.72819 0.72693 0.0
H228 H 0.80459 0.74122 0.76966 0.0
H229 H 0.78168 0.82611 0.84214 0.0
H230 H 0.74865 0.86315 0.83298 0.0
H231 H 0.74867 0.84799 0.74324 0.0
H232 H 0.78108 0.81029 0.75238 0.0
H233 H 0.84129 0.74413 0.82716 0.0
H234 H 0.75631 0.77418 0.82973 0.0
O235 O 0.83788 0.80951 0.82493 0.0
H236 H 0.82963 0.71006 0.8648 0.0
H237 H 0.74521 0.74099 0.86788 0.0
C238 C 0.82767 0.78218 0.77322 0.0
C239 C 0.84763 0.80124 0.76074 0.0
C240 C 0.8609 0.79391 0.73644 0.0
C241 C 0.85421 0.76747 0.72424 0.0
C242 C 0.83364 0.74863 0.73625 0.0
C243 C 0.8203 0.75603 0.76058 0.0
C244 C 0.78398 0.81562 0.79797 0.0
C245 C 0.77402 0.83025 0.82053 0.0
C246 C 0.7551 0.85124 0.81536 0.0
C247 C 0.74627 0.85821 0.78746 0.0
C248 C 0.75512 0.8427 0.7649 0.0
C249 C 0.77378 0.82137 0.77014 0.0
C250 C 0.79988 0.762 0.82595 0.0
C251 C 0.81991 0.7429 0.83523 0.0
C252 C 0.8133 0.72349 0.85664 0.0
C253 C 0.78674 0.72339 0.86931 0.0
C254 C 0.76587 0.74092 0.85842 0.0
C255 C 0.77234 0.76003 0.83676 0.0
P256 P 0.31385 0.2931 0.30847 0.0
H257 H 0.35645 0.32217 0.27415 0.0
H258 H 0.38056 0.30869 0.2321 0.0
H259 H 0.33179 0.22835 0.23168 0.0
H260 H 0.30748 0.24187 0.2738 0.0
H261 H 0.28321 0.32904 0.34326 0.0
H262 H 0.25004 0.3655 0.33182 0.0
H263 H 0.25097 0.34599 0.24305 0.0
H264 H 0.28356 0.30888 0.25451 0.0
H265 H 0.34256 0.24539 0.33184 0.0
H266 H 0.25785 0.2764 0.3326 0.0
O267 O 0.33923 0.31123 0.32859 0.0
H268 H 0.33002 0.21204 0.36983 0.0
H269 H 0.24585 0.24387 0.37104 0.0
C270 C 0.33069 0.28277 0.27735 0.0
C271 C 0.35099 0.30162 0.26508 0.0
C272 C 0.36466 0.29401 0.24112 0.0
C273 C 0.35803 0.26751 0.22905 0.0
C274 C 0.33723 0.24883 0.24092 0.0
C275 C 0.32347 0.2565 0.26491 0.0
C276 C 0.28604 0.31647 0.29975 0.0
C277 C 0.27575 0.33213 0.32139 0.0
C278 C 0.25675 0.35277 0.31492 0.0
C279 C 0.2481 0.35833 0.28663 0.0
C280 C 0.25727 0.34179 0.26501 0.0
C281 C 0.27604 0.3208 0.27157 0.0
C282 C 0.30133 0.26363 0.32963 0.0
C283 C 0.32105 0.2445 0.33957 0.0
C284 C 0.31393 0.22551 0.3612 0.0
C285 C 0.28717 0.22584 0.3734 0.0
C286 C 0.26664 0.24344 0.36193 0.0
C287 C 0.27363 0.26216 0.34008 0.0
P288 P 0.50853 0.01554 0.5315 0.0
H289 H 0.49948 0.99683 0.47296 0.0
H290 H 0.49577 0.95007 0.45132 0.0
H291 H 0.50184 0.91217 0.53441 0.0
H292 H 0.50549 0.95878 0.55606 0.0
H293 H 0.49273 0.07312 0.53221 0.0
H294 H 0.44667 0.09391 0.53701 0.0
H295 H 0.40367 0.01133 0.54467 0.0
H296 H 0.44985 0.9904 0.5398 0.0
H297 H 0.57015 0.0171 0.54659 0.0
H298 H 0.49103 0.00977 0.59029 0.0
O299 O 0.52777 0.03626 0.50981 0.0
H300 H 0.59808 0.015 0.59213 0.0
H301 H 0.51907 0.00753 0.63588 0.0
C302 C 0.50345 0.98122 0.51604 0.0
C303 C 0.49984 0.97845 0.48652 0.0
C304 C 0.49757 0.95188 0.47419 0.0
C305 C 0.49862 0.92784 0.49134 0.0
C306 C 0.50101 0.93058 0.52092 0.0
C307 C 0.50326 0.95714 0.53322 0.0
C308 C 0.47454 0.03027 0.53509 0.0
C309 C 0.4734 0.05946 0.53476 0.0
C310 C 0.44722 0.0713 0.53755 0.0
C311 C 0.42191 0.05409 0.54103 0.0
C312 C 0.42305 0.02486 0.54186 0.0
C313 C 0.44931 0.01299 0.53901 0.0
C314 C 0.52859 0.01426 0.56515 0.0
C315 C 0.55881 0.01522 0.56597 0.0
C316 C 0.57472 0.01391 0.59186 0.0
C317 C 0.56058 0.01134 0.61727 0.0
C318 C 0.53029 0.00973 0.61645 0.0
C319 C 0.51437 0.01112 0.5905 0.0
P320 P 0.18704 0.34879 0.68681 0.0
H321 H 0.211 0.40168 0.66275 0.0
H322 H 0.25571 0.43104 0.67395 0.0
H323 H 0.2798 0.37287 0.73987 0.0
H324 H 0.23495 0.34352 0.72883 0.0
H325 H 0.18854 0.32952 0.62846 0.0
H326 H 0.20285 0.28596 0.6082 0.0
H327 H 0.22241 0.2541 0.69222 0.0
H328 H 0.20826 0.29775 0.71257 0.0
H329 H 0.18417 0.37861 0.74057 0.0
H330 H 0.14473 0.30333 0.70063 0.0
O331 O 0.16582 0.365 0.66327 0.0
H332 H 0.15805 0.367 0.78336 0.0
H333 H 0.11895 0.29168 0.74346 0.0
C334 C 0.21961 0.37057 0.69514 0.0
C335 C 0.22579 0.39525 0.67968 0.0
C336 C 0.25127 0.41197 0.686 0.0
C337 C 0.2709 0.40407 0.70774 0.0
C338 C 0.26482 0.37925 0.72306 0.0
C339 C 0.23932 0.36257 0.71675 0.0
C340 C 0.19694 0.31664 0.67199 0.0
C341 C 0.19571 0.31313 0.64255 0.0
C342 C 0.20383 0.28834 0.631 0.0
C343 C 0.21348 0.26689 0.64878 0.0
C344 C 0.21484 0.27043 0.67825 0.0
C345 C 0.20683 0.29528 0.68978 0.0
C346 C 0.16713 0.3413 0.71783 0.0
C347 C 0.17007 0.35956 0.74102 0.0
C348 C 0.1551 0.35307 0.76533 0.0
C349 C 0.13693 0.32835 0.76654 0.0
C350 C 0.1331 0.31072 0.74291 0.0
C351 C 0.14792 0.3173 0.7186 0.0
P352 P 0.85085 0.19242 0.70663 0.0
H353 H 0.8677 0.21086 0.65041 0.0
H354 H 0.84423 0.2395 0.61383 0.0
H355 H 0.78045 0.25849 0.67192 0.0
H356 H 0.80387 0.23007 0.70859 0.0
H357 H 0.90389 0.17467 0.73441 0.0
H358 H 0.93341 0.19159 0.77609 0.0
H359 H 0.87794 0.25891 0.78472 0.0
H360 H 0.84885 0.24256 0.74214 0.0
H361 H 0.8205 0.13902 0.68989 0.0
H362 H 0.81334 0.20223 0.75309 0.0
O363 O 0.86953 0.17071 0.68874 0.0
H364 H 0.77805 0.11227 0.70735 0.0
H365 H 0.77028 0.17593 0.7698 0.0
C366 C 0.83726 0.21792 0.68209 0.0
C367 C 0.84897 0.22152 0.65551 0.0
C368 C 0.83563 0.23781 0.63464 0.0
C369 C 0.81052 0.25073 0.64023 0.0
C370 C 0.79975 0.24847 0.6673 0.0
C371 C 0.81313 0.23224 0.68817 0.0
C372 C 0.87429 0.20748 0.73502 0.0
C373 C 0.89837 0.19345 0.74478 0.0
C374 C 0.91518 0.20302 0.76861 0.0
C375 C 0.90782 0.22645 0.78345 0.0
C376 C 0.88402 0.24086 0.77344 0.0
C377 C 0.86745 0.23152 0.74921 0.0
C378 C 0.82051 0.17232 0.72058 0.0
C379 C 0.80998 0.14709 0.70759 0.0
C380 C 0.78565 0.13195 0.71736 0.0
C381 C 0.77119 0.14213 0.7399 0.0
C382 C 0.78129 0.16772 0.75247 0.0
C383 C 0.80595 0.1826 0.74301 0.0
P384 P 0.57362 0.54623 0.54861 0.0
H385 H 0.55658 0.49833 0.58505 0.0
H386 H 0.52029 0.49227 0.62078 0.0
H387 H 0.48952 0.57257 0.59748 0.0
H388 H 0.52608 0.57912 0.56258 0.0
H389 H 0.63277 0.53266 0.54277 0.0
H390 H 0.654 0.48945 0.53045 0.0
H391 H 0.56887 0.44904 0.51319 0.0
H392 H 0.5474 0.49259 0.52561 0.0
H393 H 0.60743 0.59132 0.52152 0.0
H394 H 0.52084 0.55213 0.51198 0.0
O395 O 0.59891 0.56314 0.56988 0.0
H396 H 0.59328 0.6298 0.49056 0.0
H397 H 0.50637 0.59138 0.48161 0.0
C398 C 0.54329 0.53864 0.57017 0.0
C399 C 0.54137 0.51418 0.58685 0.0
C400 C 0.52075 0.51071 0.60726 0.0
C401 C 0.502 0.53177 0.61127 0.0
C402 C 0.50341 0.55585 0.59414 0.0
C403 C 0.5242 0.55945 0.57408 0.0
C404 C 0.58853 0.51549 0.53583 0.0
C405 C 0.61859 0.51464 0.53612 0.0
C406 C 0.63073 0.49009 0.52896 0.0
C407 C 0.61296 0.46617 0.52111 0.0
C408 C 0.58284 0.46741 0.51922 0.0
C409 C 0.57066 0.4921 0.5264 0.0
C410 C 0.5649 0.56951 0.5198 0.0
C411 C 0.58553 0.5907 0.51232 0.0
C412 C 0.57749 0.61261 0.49461 0.0
C413 C 0.54872 0.61355 0.4842 0.0
C414 C 0.52865 0.59098 0.48954 0.0
C415 C 0.53688 0.56875 0.50693 0.0
P416 P 0.56638 0.45478 0.95945 0.0
H417 H 0.61929 0.45754 0.9955 0.0
H418 H 0.65143 0.49729 0.01374 0.0
H419 H 0.59005 0.55462 0.98157 0.0
H420 H 0.55795 0.51511 0.96336 0.0
H421 H 0.54658 0.39754 0.94655 0.0
H422 H 0.52979 0.35756 0.9756 0.0
H423 H 0.54123 0.40913 0.05028 0.0
H424 H 0.55812 0.44946 0.02102 0.0
H425 H 0.56101 0.47534 0.90148 0.0
H426 H 0.50552 0.46044 0.97095 0.0
O427 O 0.58905 0.44204 0.93763 0.0
H428 H 0.51987 0.48906 0.87125 0.0
H429 H 0.46412 0.47443 0.94048 0.0
C430 C 0.58625 0.48334 0.97813 0.0
C431 C 0.61244 0.47862 0.99298 0.0
C432 C 0.63077 0.50121 0.00329 0.0
C433 C 0.62306 0.52877 0.99884 0.0
C434 C 0.59625 0.53345 0.9852 0.0
C435 C 0.57796 0.51086 0.97485 0.0
C436 C 0.55411 0.4262 0.98175 0.0
C437 C 0.54561 0.40027 0.96918 0.0
C438 C 0.53595 0.37754 0.98567 0.0
C439 C 0.53451 0.38045 0.015 0.0
C440 C 0.5424 0.40657 0.02765 0.0
C441 C 0.5521 0.42944 0.01102 0.0
C442 C 0.53612 0.46626 0.93818 0.0
C443 C 0.53998 0.47499 0.91021 0.0
C444 C 0.51657 0.48288 0.89301 0.0
C445 C 0.489 0.48237 0.9036 0.0
C446 C 0.48524 0.47465 0.93195 0.0
C447 C 0.50877 0.46666 0.94921 0.0
P448 P 0.72214 0.24307 0.23697 0.0
H449 H 0.76595 0.25956 0.28066 0.0
H450 H 0.76385 0.27575 0.32949 0.0
H451 H 0.67101 0.2731 0.31916 0.0
H452 H 0.673 0.257 0.27018 0.0
H453 H 0.76204 0.21913 0.20022 0.0
H454 H 0.792 0.17913 0.20605 0.0
H455 H 0.75428 0.15801 0.28539 0.0
H456 H 0.72413 0.19798 0.27955 0.0
H457 H 0.69435 0.26846 0.18711 0.0
H458 H 0.67375 0.2016 0.24625 0.0
O459 O 0.74155 0.26705 0.21876 0.0
H460 H 0.64764 0.25835 0.1614 0.0
H461 H 0.62648 0.19176 0.22057 0.0
C462 C 0.71966 0.25681 0.27193 0.0
C463 C 0.74514 0.26267 0.2888 0.0
C464 C 0.74398 0.27192 0.31656 0.0
C465 C 0.71729 0.27549 0.32779 0.0
C466 C 0.69176 0.27039 0.31072 0.0
C467 C 0.69294 0.2611 0.28286 0.0
C468 C 0.74138 0.21183 0.23974 0.0
C469 C 0.76001 0.20579 0.21875 0.0
C470 C 0.77703 0.183 0.22203 0.0
C471 C 0.77546 0.16591 0.24626 0.0
C472 C 0.75582 0.17113 0.26665 0.0
C473 C 0.73873 0.19391 0.26332 0.0
C474 C 0.68755 0.23565 0.21847 0.0
C475 C 0.67982 0.25161 0.19459 0.0
C476 C 0.65317 0.24589 0.17992 0.0
C477 C 0.63377 0.22423 0.18902 0.0
C478 C 0.6413 0.20844 0.21317 0.0
C479 C 0.66816 0.21403 0.22774 0.0
P480 P 0.48665 0.97181 -0.00018 0.0
H481 H 0.5451 0.9605 0.98645 0.0
H482 H 0.57192 0.96803 0.94368 0.0
H483 H 0.49606 0.99666 0.89902 0.0
H484 H 0.46911 0.98943 0.9422 0.0
H485 H 0.52822 0.01206 0.02843 0.0
H486 H 0.52504 0.06026 0.0448 0.0
H487 H 0.43616 0.05753 0.01277 0.0
H488 H 0.43968 0.00987 0.99537 0.0
H489 H 0.45906 0.932 0.95735 0.0
H490 H 0.43858 0.96747 0.03663 0.0
O491 O 0.5066 0.95537 0.02429 0.0
H492 H 0.41324 0.90283 0.95609 0.0
H493 H 0.39279 0.93841 0.03521 0.0
C494 C 0.50499 0.97401 0.96732 0.0
C495 C 0.53401 0.96797 0.96741 0.0
C496 C 0.54935 0.97229 0.94304 0.0
C497 C 0.53593 0.98285 0.91828 0.0
C498 C 0.50669 0.98839 0.91796 0.0
C499 C 0.49137 0.98423 0.94247 0.0
C500 C 0.48391 0.00711 0.01156 0.0
C501 C 0.50803 0.02182 0.02499 0.0
C502 C 0.50626 0.04925 0.03426 0.0
C503 C 0.48024 0.06223 0.03036 0.0
C504 C 0.45631 0.04772 0.01625 0.0
C505 C 0.45828 0.02048 0.00653 0.0
C506 C 0.45184 0.95252 0.99669 0.0
C507 C 0.44449 0.93404 0.97411 0.0
C508 C 0.41842 0.91736 0.97338 0.0
C509 C 0.3996 0.91878 0.99539 0.0
C510 C 0.40691 0.93734 0.01788 0.0
C511 C 0.43296 0.95391 0.01863 0.0
Mg512 Mg 0.22508 0.83431 0.00575 0.0
O513 O 0.27197 0.85331 0.00283 0.0
O514 O 0.29954 0.81699 5e-05 0.0
Mg515 Mg 0.27144 0.77597 0.00367 0.0
C516 C 0.2965 0.84331 0.00055 0.0
C517 C 0.17929 0.87478 0.00162 0.0
O518 O 0.16625 0.85054 0.00849 0.0
O519 O 0.22402 0.82333 0.95895 0.0
O520 O 0.24973 0.78558 0.96004 0.0
O521 O 0.23044 0.83412 0.05278 0.0
O522 O 0.24099 0.79941 0.02559 0.0
C523 C 0.23428 0.80296 0.94666 0.0
C524 C 0.24178 0.81045 0.0504 0.0
O525 O 0.20592 0.87596 0.99677 0.0
Mg526 Mg 0.15613 0.51176 0.28183 0.0
O527 O 0.13182 0.50961 0.23806 0.0
O528 O 0.165 0.5164 0.20574 0.0
Mg529 Mg 0.20987 0.52267 0.22817 0.0
C530 C 0.13884 0.51212 0.21239 0.0
C531 C 0.11337 0.50606 0.32733 0.0
O532 O 0.13291 0.52569 0.33636 0.0
O533 O 0.17209 0.46816 0.27649 0.0
O534 O 0.20688 0.47789 0.24617 0.0
O535 O 0.15511 0.55878 0.28289 0.0
O536 O 0.19015 0.53629 0.26602 0.0
C537 C 0.19294 0.46092 0.26241 0.0
C538 C 0.17954 0.55956 0.27102 0.0
O539 O 0.1158 0.49485 0.30341 0.0
Mg540 Mg 0.77035 0.65088 0.0404 0.0
O541 O 0.72899 0.62193 0.03316 0.0
O542 O 0.69331 0.64935 0.02085 0.0
Mg543 Mg 0.71081 0.69538 0.02493 0.0
C544 C 0.70273 0.62521 0.02524 0.0
C545 C 0.8245 0.62034 0.04699 0.0
O546 O 0.83145 0.64488 0.05872 0.0
O547 O 0.77146 0.65962 0.99299 0.0
O548 O 0.73784 0.69066 0.98623 0.0
O549 O 0.76367 0.65544 0.08669 0.0
O550 O 0.74724 0.68333 0.05287 0.0
C551 C 0.75795 0.67684 0.97737 0.0
C552 C 0.74963 0.67697 0.0793 0.0
O553 O 0.79874 0.61459 0.03721 0.0
Mg554 Mg 0.89953 0.03742 0.24701 0.0
O555 O 0.86999 0.99851 0.23502 0.0
O556 O 0.8974 0.96228 0.23202 0.0
Mg557 Mg 0.94487 0.97886 0.23868 0.0
C558 C 0.87283 0.97257 0.2309 0.0
C559 C 0.8625 0.08653 0.25063 0.0
O560 O 0.88647 0.09758 0.24039 0.0
O561 O 0.90675 0.02087 0.29228 0.0
O562 O 0.93823 0.9887 0.28515 0.0
O563 O 0.90577 0.0483 0.20145 0.0
O564 O 0.93348 0.02131 0.2275 0.0
C565 C 0.92438 0.00318 0.30155 0.0
C566 C 0.92762 0.03304 0.20351 0.0
O567 O 0.86058 0.06071 0.25741 0.0
Mg568 Mg 0.27089 0.15191 0.54382 0.0
O569 O 0.22997 0.12256 0.53586 0.0
O570 O 0.1935 0.14948 0.52509 0.0
Mg571 Mg 0.21044 0.19568 0.52989 0.0
C572 C 0.20352 0.12548 0.52853 0.0
C573 C 0.32416 0.1192 0.55219 0.0
O574 O 0.33061 0.14162 0.56779 0.0
O575 O 0.27166 0.16192 0.49665 0.0
O576 O 0.23723 0.19223 0.49074 0.0
O577 O 0.2641 0.15525 0.59028 0.0
O578 O 0.24744 0.18385 0.55728 0.0
C579 C 0.25764 0.17908 0.48145 0.0
C580 C 0.25025 0.1771 0.5836 0.0
O581 O 0.29939 0.11583 0.53939 0.0
Mg582 Mg 0.401 0.54094 0.74909 0.0
O583 O 0.3718 0.50179 0.73693 0.0
O584 O 0.39964 0.46592 0.73342 0.0
Mg585 Mg 0.44693 0.48284 0.74045 0.0
C586 C 0.37494 0.47595 0.73247 0.0
C587 C 0.36315 0.58941 0.75129 0.0
O588 O 0.38658 0.60015 0.73982 0.0
O589 O 0.4082 0.52413 0.79428 0.0
O590 O 0.43972 0.49208 0.78694 0.0
O591 O 0.40701 0.55199 0.70356 0.0
O592 O 0.43502 0.52512 0.72942 0.0
C593 C 0.42574 0.50633 0.80344 0.0
C594 C 0.42886 0.53673 0.70544 0.0
O595 O 0.36188 0.56398 0.75948 0.0
Mg596 Mg 0.7235 0.32909 0.50728 0.0
O597 O 0.76598 0.35534 0.49979 0.0
O598 O 0.7999 0.32511 0.49536 0.0
Mg599 Mg 0.77932 0.2803 0.4989 0.0
C600 C 0.79199 0.35007 0.49608 0.0
C601 C 0.67309 0.36583 0.51021 0.0
O602 O 0.66303 0.34192 0.52109 0.0
O603 O 0.71871 0.31834 0.46036 0.0
O604 O 0.75213 0.28722 0.45749 0.0
O605 O 0.7347 0.32824 0.55388 0.0
O606 O 0.74596 0.29599 0.52406 0.0
C607 C 0.73199 0.3012 0.44632 0.0
C608 C 0.74746 0.3057 0.54942 0.0
O609 O 0.69828 0.36781 0.50101 0.0
Mg610 Mg 0.65807 0.01452 0.78534 0.0
O611 O 0.63262 0.0122 0.74219 0.0
O612 O 0.66501 0.01652 0.70889 0.0
Mg613 Mg 0.71047 0.02253 0.73014 0.0
C614 C 0.63902 0.01339 0.71629 0.0
C615 C 0.61807 0.00804 0.8334 0.0
O616 O 0.64018 0.02442 0.84342 0.0
O617 O 0.67235 0.97015 0.78032 0.0
O618 O 0.70673 0.97825 0.74924 0.0
O619 O 0.65875 0.06171 0.78569 0.0
O620 O 0.69229 0.03766 0.7682 0.0
C621 C 0.69261 0.96199 0.76599 0.0
C622 C 0.68274 0.06144 0.77317 0.0
O623 O 0.61789 -0.0007 0.80809 0.0
Mg624 Mg 0.04146 0.27491 0.91544 0.0
O625 O 0.00261 0.2621 0.88522 0.0
O626 O 0.96555 0.24796 0.91127 0.0
Mg627 Mg 0.98176 0.24839 0.95793 0.0
C628 C 0.97632 0.25304 0.88736 0.0
C629 C 0.08001 0.28542 0.8648 0.0
O630 O 0.08507 0.25947 0.87144 0.0
O631 O 0.02131 0.31395 0.92917 0.0
O632 O 0.98714 0.29669 0.95742 0.0
O633 O 0.05609 0.23169 0.9146 0.0
O634 O 0.02638 0.24605 0.94525 0.0
C635 C 0.0017 0.31731 0.94635 0.0
C636 C 0.04017 0.22611 0.93578 0.0
O637 O 0.0631 0.29834 0.87926 0.0
Mg638 Mg 0.53755 0.77083 0.4142 0.0
O639 O 0.49633 0.76027 0.38666 0.0
O640 O 0.46061 0.74873 0.4153 0.0
Mg641 Mg 0.48022 0.74825 0.461 0.0
C642 C 0.46993 0.75294 0.39061 0.0
C643 C 0.5792 0.78192 0.36642 0.0
O644 O 0.58873 0.75904 0.37794 0.0
O645 O 0.52067 0.81124 0.42862 0.0
O646 O 0.48888 0.79646 0.46041 0.0
O647 O 0.54932 0.72673 0.41213 0.0
O648 O 0.52298 0.74278 0.44493 0.0
C649 C 0.5032 0.81603 0.4475 0.0
C650 C 0.53473 0.72199 0.43439 0.0
O651 O 0.55812 0.79283 0.37678 0.0
Mg652 Mg 0.96303 0.72462 0.58845 0.0
O653 O 0.00447 0.71827 0.61615 0.0
O654 O 0.03925 0.71172 0.58654 0.0
Mg655 Mg 0.02001 0.71094 0.54102 0.0
C656 C 0.0307 0.71451 0.61146 0.0
C657 C 0.91449 0.7371 0.62677 0.0
O658 O 0.89986 0.72433 0.60543 0.0
O659 O 0.98179 0.7682 0.57621 0.0
O660 O 0.01422 0.75808 0.54526 0.0
O661 O 0.95017 0.67882 0.58897 0.0
O662 O 0.97763 0.69979 0.55737 0.0
C663 C 0.00066 0.77566 0.55851 0.0
C664 C 0.96603 0.67687 0.56756 0.0
O665 O 0.94174 0.74137 0.62625 0.0
Mg666 Mg 0.46426 0.22182 0.09223 0.0
O667 O 0.50696 0.21641 0.11813 0.0
O668 O 0.54015 0.20866 0.08717 0.0
Mg669 Mg 0.51856 0.20654 0.04254 0.0
C670 C 0.53285 0.21239 0.1124 0.0
C671 C 0.41757 0.23569 0.13167 0.0
O672 O 0.40241 0.22269 0.11078 0.0
O673 O 0.48242 0.26501 0.07801 0.0
O674 O 0.51334 0.25389 0.04599 0.0
O675 O 0.45168 0.17605 0.09489 0.0
O676 O 0.47703 0.19598 0.06102 0.0
C677 C 0.50052 0.27192 0.0594 0.0
C678 C 0.46612 0.17343 0.0726 0.0
O679 O 0.44479 0.23971 0.13052 0.0
C680 C 0.24926 0.78577 0.87135 0.0
C681 C 0.22169 0.78726 0.85712 0.0
C682 C 0.20155 0.79879 0.90197 0.0
C683 C 0.22971 0.79984 0.91548 0.0
N684 N 0.28124 0.80284 0.91046 0.0
N685 N 0.17312 0.80165 0.85757 0.0
C686 C 0.25386 0.79597 0.89936 0.0
C687 C 0.19827 0.79581 0.87202 0.0
N688 N 0.27072 0.77333 0.8588 0.0
N689 N 0.17783 0.79908 0.91767 0.0
H690 H 0.17017 0.80019 0.83557 0.0
H691 H 0.15638 0.81056 0.86707 0.0
H692 H 0.17907 0.80027 0.9397 0.0
H693 H 0.15679 0.79544 0.909 0.0
H694 H 0.29022 0.7694 0.86955 0.0
H695 H 0.268 0.76419 0.83881 0.0
H696 H 0.29938 0.80273 0.89854 0.0
H697 H 0.28551 0.81178 0.93045 0.0
C698 C 0.0532 0.51414 0.37618 0.0
C699 C 0.04889 0.48649 0.38709 0.0
C700 C 0.0847 0.47042 0.35612 0.0
C701 C 0.0887 0.49803 0.34493 0.0
N702 N 0.07134 0.54398 0.33843 0.0
N703 N 0.05488 0.43717 0.38299 0.0
C704 C 0.07116 0.5192 0.35311 0.0
C705 C 0.06279 0.46422 0.3755 0.0
N706 N 0.04134 0.53583 0.38874 0.0
N707 N 0.10292 0.45059 0.34966 0.0
H708 H 0.03893 0.43206 0.3972 0.0
H709 H 0.06214 0.41981 0.37324 0.0
H710 H 0.11928 0.45421 0.33562 0.0
H711 H 0.10324 0.43116 0.35976 0.0
H712 H 0.04658 0.55682 0.38389 0.0
H713 H 0.02784 0.53307 0.40555 0.0
H714 H 0.057 0.55921 0.34158 0.0
H715 H 0.08388 0.5481 0.32105 0.0
C716 C 0.76145 0.685 0.89745 0.0
C717 C 0.78221 0.70825 0.89646 0.0
C718 C 0.79213 0.70485 0.9478 0.0
C719 C 0.76854 0.68445 0.94925 0.0
N720 N 0.72975 0.65541 0.92625 0.0
N721 N 0.81448 0.74311 0.92112 0.0
C722 C 0.75299 0.67444 0.92425 0.0
C723 C 0.7971 0.71873 0.9217 0.0
N724 N 0.75019 0.6729 0.87278 0.0
N725 N 0.80961 0.71125 0.97146 0.0
H726 H 0.81836 0.75452 0.90266 0.0
H727 H 0.82305 0.75351 0.9393 0.0
H728 H 0.80616 0.70226 0.99128 0.0
H729 H 0.829 0.7236 0.97096 0.0
H730 H 0.73691 0.65437 0.87196 0.0
H731 H 0.75609 0.68022 0.85291 0.0
H732 H 0.71548 0.64958 0.9092 0.0
H733 H 0.72388 0.64644 0.94549 0.0
C734 C 0.94653 0.96675 0.36863 0.0
C735 C 0.96456 0.98849 0.38207 0.0
C736 C 0.94784 0.0226 0.34713 0.0
C737 C 0.93155 0.00042 0.33234 0.0
N738 N 0.90795 0.95404 0.33313 0.0
N739 N 0.97557 0.03772 0.39015 0.0
C740 C 0.92829 0.97335 0.3447 0.0
C741 C 0.96266 0.01672 0.37341 0.0
N742 N 0.94817 0.93967 0.37771 0.0
N743 N 0.95111 0.04867 0.33508 0.0
H744 H 0.98672 0.03371 0.40938 0.0
H745 H 0.97296 0.0589 0.38642 0.0
H746 H 0.94023 0.05416 0.31621 0.0
H747 H 0.96575 0.0646 0.34304 0.0
H748 H 0.93821 0.92242 0.36682 0.0
H749 H 0.96065 0.93433 0.39572 0.0
H750 H 0.90278 0.93451 0.3422 0.0
H751 H 0.89432 0.95879 0.31568 0.0
C752 C 0.20189 0.22082 0.62437 0.0
C753 C 0.2229 0.24105 0.63621 0.0
C754 C 0.26159 0.21378 0.62066 0.0
C755 C 0.24061 0.19592 0.60525 0.0
N756 N 0.19095 0.18225 0.59164 0.0
N757 N 0.2727 0.25842 0.64422 0.0
C758 C 0.21075 0.19928 0.60707 0.0
C759 C 0.25278 0.23776 0.63437 0.0
N760 N 0.17354 0.22208 0.63007 0.0
N761 N 0.29002 0.20814 0.6218 0.0
H762 H 0.26718 0.27621 0.65459 0.0
H763 H 0.29454 0.25906 0.64037 0.0
H764 H 0.29768 0.19158 0.61104 0.0
H765 H 0.3058 0.21847 0.63523 0.0
H766 H 0.15743 0.20655 0.62434 0.0
H767 H 0.16643 0.23764 0.64269 0.0
H768 H 0.1691 0.18558 0.58913 0.0
H769 H 0.19682 0.16534 0.58014 0.0
C770 C 0.49468 0.54466 0.66123 0.0
C771 C 0.48376 0.53083 0.636 0.0
C772 C 0.43653 0.52093 0.65603 0.0
C773 C 0.44762 0.5343 0.68149 0.0
N774 N 0.48748 0.55711 0.70972 0.0
N775 N 0.44629 0.50287 0.60988 0.0
C776 C 0.47683 0.54549 0.68453 0.0
C777 C 0.45521 0.51808 0.63355 0.0
N778 N 0.52186 0.55794 0.66244 0.0
N779 N 0.40809 0.51122 0.65337 0.0
H780 H 0.45936 0.50088 0.59292 0.0
H781 H 0.42678 0.49078 0.60753 0.0
H782 H 0.39424 0.5116 0.6699 0.0
H783 H 0.39766 0.50384 0.63456 0.0
H784 H 0.52995 0.57154 0.67849 0.0
H785 H 0.53625 0.55655 0.64649 0.0
H786 H 0.50932 0.56195 0.71483 0.0
H787 H 0.47464 0.56107 0.72634 0.0
C788 C 0.77018 0.25039 0.60276 0.0
C789 C 0.79435 0.26499 0.61711 0.0
C790 C 0.78943 0.30523 0.58528 0.0
C791 C 0.76375 0.29169 0.57263 0.0
N792 N 0.72706 0.25324 0.57187 0.0
N793 N 0.82487 0.30748 0.62505 0.0
C794 C 0.75341 0.26472 0.58202 0.0
C795 C 0.80336 0.2928 0.60926 0.0
N796 N 0.76373 0.22259 0.60845 0.0
N797 N 0.80123 0.32929 0.57353 0.0
H798 H 0.83587 0.29883 0.64249 0.0
H799 H 0.83028 0.32881 0.62226 0.0
H800 H 0.79184 0.33835 0.55554 0.0
H801 H 0.82146 0.33871 0.57984 0.0
H802 H 0.74848 0.20998 0.59646 0.0
H803 H 0.77522 0.21143 0.62382 0.0
H804 H 0.71687 0.23511 0.58021 0.0
H805 H 0.71413 0.26306 0.55661 0.0
C806 C 0.58153 0.03488 0.66192 0.0
C807 C 0.57779 0.01059 0.6447 0.0
C808 C 0.61219 0.98696 0.67621 0.0
C809 C 0.61561 0.01112 0.69362 0.0
N810 N 0.59893 0.05543 0.70695 0.0
N811 N 0.58446 0.96168 0.63816 0.0
C812 C 0.59867 0.03419 0.68779 0.0
C813 C 0.5916 0.98603 0.65271 0.0
N814 N 0.56991 0.05906 0.65283 0.0
N815 N 0.62897 0.96508 0.68196 0.0
H816 H 0.56942 0.96034 0.62089 0.0
H817 H 0.59154 0.94233 0.64448 0.0
H818 H 0.64282 0.9642 0.70007 0.0
H819 H 0.63022 0.94839 0.66825 0.0
H820 H 0.57473 0.07836 0.66264 0.0
H821 H 0.55706 0.06041 0.63412 0.0
H822 H 0.58483 0.07134 0.7053 0.0
H823 H 0.61148 0.0559 0.72594 0.0
C824 C 0.94171 0.25995 0.81271 0.0
C825 C 0.92406 0.23446 0.81054 0.0
C826 C 0.94262 0.22026 0.85759 0.0
C827 C 0.95799 0.24693 0.86106 0.0
N828 N 0.96714 0.29442 0.84404 0.0
N829 N 0.90237 0.19354 0.83367 0.0
C830 C 0.95614 0.26747 0.8392 0.0
C831 C 0.92284 0.21561 0.83387 0.0
N832 N 0.94556 0.27649 0.78929 0.0
N833 N 0.94804 0.19877 0.87598 0.0
H834 H 0.88702 0.18973 0.81691 0.0
H835 H 0.89877 0.1808 0.85133 0.0
H836 H 0.96347 0.20063 0.89287 0.0
H837 H 0.93951 0.17822 0.87261 0.0
H838 H 0.96068 0.2937 0.78897 0.0
H839 H 0.9355 0.27163 0.76948 0.0
H840 H 0.96394 0.3108 0.82979 0.0
H841 H 0.97696 0.30104 0.86346 0.0
C842 C 0.47398 0.88499 0.46738 0.0
C843 C 0.49967 0.89985 0.47841 0.0
C844 C 0.52724 0.85944 0.47006 0.0
C845 C 0.502 0.84522 0.45718 0.0
N846 N 0.45254 0.84585 0.43913 0.0
N847 N 0.55162 0.90381 0.48493 0.0
C848 C 0.47565 0.85839 0.45456 0.0
C849 C 0.52658 0.88785 0.47808 0.0
N850 N 0.44796 0.89594 0.46989 0.0
N851 N 0.55143 0.84539 0.4761 0.0
H852 H 0.55206 0.92472 0.4911 0.0
H853 H 0.57203 0.89713 0.48201 0.0
H854 H 0.55279 0.82434 0.47123 0.0
H855 H 0.56926 0.85381 0.48835 0.0
H856 H 0.42819 0.88483 0.46511 0.0
H857 H 0.44603 0.91556 0.47874 0.0
H858 H 0.43366 0.8556 0.434 0.0
H859 H 0.45316 0.82647 0.42933 0.0
C860 C 0.13898 0.30951 0.81627 0.0
C861 C 0.12258 0.32016 0.79288 0.0
C862 C 0.07788 0.30869 0.8169 0.0
C863 C 0.09446 0.2994 0.84087 0.0
N864 N 0.14079 0.29719 0.86611 0.0
N865 N 0.07748 0.33543 0.77302 0.0
C866 C 0.12504 0.3017 0.84138 0.0
C867 C 0.09231 0.32152 0.79388 0.0
N868 N 0.16759 0.30568 0.81409 0.0
N869 N 0.04847 0.30393 0.81543 0.0
H870 H 0.08744 0.34504 0.75584 0.0
H871 H 0.05591 0.3396 0.77401 0.0
H872 H 0.03702 0.29435 0.83168 0.0
H873 H 0.03554 0.30735 0.79718 0.0
H874 H 0.17977 0.29499 0.82924 0.0
H875 H 0.17871 0.31111 0.79607 0.0
H876 H 0.16309 0.30135 0.8685 0.0
H877 H 0.13128 0.29194 0.8851 0.0
C878 C 0.53979 0.66379 0.48958 0.0
C879 C 0.5393 0.64017 0.47171 0.0
C880 C 0.52672 0.66961 0.43087 0.0
C881 C 0.53306 0.69385 0.44791 0.0
N882 N 0.55033 0.71373 0.49335 0.0
N883 N 0.53354 0.62027 0.42493 0.0
C884 C 0.54043 0.69096 0.47735 0.0
C885 C 0.53279 0.64288 0.44221 0.0
N886 N 0.53979 0.66024 0.51831 0.0
N887 N 0.51427 0.67211 0.40416 0.0
H888 H 0.53749 0.60032 0.43263 0.0
H889 H 0.53217 0.62172 0.4029 0.0
H890 H 0.50863 0.69129 0.39564 0.0
H891 H 0.50683 0.65495 0.39168 0.0
H892 H 0.53734 0.67659 0.53217 0.0
H893 H 0.53911 0.64051 0.528 0.0
H894 H 0.55888 0.71204 0.51411 0.0
H895 H 0.55303 0.73404 0.48532 0.0
C896 C 0.86103 0.76978 0.67199 0.0
C897 C 0.86939 0.75937 0.69919 0.0
C898 C 0.90595 0.73278 0.67859 0.0
C899 C 0.89935 0.74515 0.6518 0.0
N900 N 0.87405 0.77889 0.62366 0.0
N901 N 0.90263 0.73471 0.72949 0.0
C902 C 0.87776 0.76457 0.64863 0.0
C903 C 0.89269 0.74194 0.70282 0.0
N904 N 0.83672 0.7841 0.66838 0.0
N905 N 0.92389 0.71138 0.68071 0.0
H906 H 0.89322 0.74066 0.74778 0.0
H907 H 0.9216 0.72478 0.73364 0.0
H908 H 0.93375 0.70374 0.66343 0.0
H909 H 0.92697 0.69948 0.69905 0.0
H910 H 0.82771 0.78958 0.64861 0.0
H911 H 0.82411 0.78854 0.68507 0.0
H912 H 0.86086 0.79547 0.621 0.0
H913 H 0.88616 0.7759 0.60619 0.0
C914 C 0.04524 0.84382 0.54764 0.0
C915 C 0.02515 0.85912 0.53135 0.0
C916 C 0.98718 0.82148 0.53708 0.0
C917 C 0.00749 0.80581 0.55273 0.0
N918 N 0.05316 0.80439 0.57919 0.0
N919 N 0.97595 0.86635 0.51638 0.0
C920 C 0.0357 0.81782 0.56008 0.0
C921 C 0.99568 0.84921 0.52814 0.0
N922 N 0.07366 0.85357 0.55012 0.0
N923 N 0.96043 0.80925 0.52925 0.0
H924 H 0.9817 0.88665 0.50937 0.0
H925 H 0.95374 0.8615 0.51582 0.0
H926 H 0.95326 0.78911 0.53563 0.0
H927 H 0.9459 0.81828 0.51499 0.0
H928 H 0.09005 0.84187 0.5587 0.0
H929 H 0.08115 0.87306 0.54222 0.0
H930 H 0.07297 0.81313 0.58752 0.0
H931 H 0.0466 0.78535 0.58871 0.0
C932 C 0.09728 0.69534 0.65482 0.0
C933 C 0.10162 0.71816 0.67393 0.0
C934 C 0.05754 0.73761 0.65402 0.0
C935 C 0.05267 0.71429 0.6355 0.0
N936 N 0.0632 0.66724 0.62416 0.0
N937 N 0.0818 0.75625 0.6973 0.0
C938 C 0.07104 0.69191 0.63786 0.0
C939 C 0.08029 0.73767 0.6754 0.0
N940 N 0.11877 0.67787 0.65158 0.0
N941 N 0.04196 0.7606 0.65007 0.0
H942 H 0.0981 0.7566 0.71345 0.0
H943 H 0.06541 0.76922 0.70095 0.0
H944 H 0.02561 0.76207 0.63425 0.0
H945 H 0.04703 0.77933 0.66093 0.0
H946 H 0.11794 0.66292 0.63563 0.0
H947 H 0.13849 0.67976 0.66328 0.0
H948 H 0.07441 0.6493 0.6272 0.0
H949 H 0.04377 0.66387 0.61208 0.0
C950 C 0.97983 0.61854 0.51663 0.0
C951 C 0.97935 0.59504 0.53521 0.0
C952 C 0.97679 0.62652 0.57531 0.0
C953 C 0.97193 0.64908 0.55631 0.0
N954 N 0.96275 0.66438 0.50778 0.0
N955 N 0.97066 0.57641 0.58201 0.0
C956 C 0.9719 0.64461 0.52661 0.0
C957 C 0.97596 0.59891 0.56454 0.0
N958 N 0.98849 0.61625 0.48969 0.0
N959 N 0.98342 0.63139 0.60344 0.0
H960 H 0.96827 0.55578 0.57484 0.0
H961 H 0.96547 0.57853 0.60301 0.0
H962 H 0.98642 0.6515 0.61195 0.0
H963 H 0.98951 0.6157 0.61754 0.0
H964 H 0.99168 0.63348 0.47625 0.0
H965 H 0.99551 0.59775 0.48193 0.0
H966 H 0.95992 0.66076 0.48606 0.0
H967 H 0.95478 0.68303 0.51389 0.0
C968 C 0.81852 0.91823 0.19558 0.0
C969 C 0.7952 0.91908 0.21354 0.0
C970 C 0.82445 0.95197 0.24482 0.0
C971 C 0.84644 0.95365 0.22513 0.0
N972 N 0.86234 0.94201 0.17925 0.0
N973 N 0.77397 0.94031 0.25262 0.0
C974 C 0.84298 0.9377 0.19982 0.0
C975 C 0.79759 0.93695 0.23745 0.0
N976 N 0.81766 0.89829 0.17498 0.0
N977 N 0.82961 0.96372 0.27104 0.0
H978 H 0.75383 0.92981 0.24781 0.0
H979 H 0.77366 0.95536 0.26834 0.0
H980 H 0.8493 0.97421 0.27761 0.0
H981 H 0.81546 0.96065 0.28726 0.0
H982 H 0.8353 0.89475 0.16326 0.0
H983 H 0.80019 0.88354 0.17133 0.0
H984 H 0.85916 0.93324 0.15913 0.0
H985 H 0.88032 0.95637 0.18127 0.0
C986 C 0.79001 0.1177 0.23642 0.0
C987 C 0.79571 0.14355 0.25079 0.0
C988 C 0.84173 0.1281 0.27073 0.0
C989 C 0.83796 0.10417 0.25309 0.0
N990 N 0.8097 0.0769 0.21721 0.0
N991 N 0.82762 0.1747 0.28019 0.0
C992 C 0.81223 0.09889 0.23568 0.0
C993 C 0.82164 0.14904 0.2678 0.0
N994 N 0.76328 0.11113 0.22363 0.0
N995 N 0.86423 0.13046 0.29069 0.0
H996 H 0.81322 0.19041 0.27906 0.0
H997 H 0.84761 0.18116 0.28996 0.0
H998 H 0.8791 0.11525 0.29357 0.0
H999 H 0.86662 0.14597 0.30611 0.0
H1000 H 0.75675 0.09146 0.21528 0.0
H1001 H 0.74669 0.12465 0.22357 0.0
H1002 H 0.79301 0.07394 0.20165 0.0
H1003 H 0.82539 0.06259 0.21597 0.0
C1004 C 0.34851 0.90402 0.97826 0.0
C1005 C 0.37324 0.89931 0.99614 0.0
C1006 C 0.34675 0.85969 0.01864 0.0
C1007 C 0.32277 0.86282 -0.0009 0.0
N1008 N 0.30315 0.88432 0.95648 0.0
N1009 N 0.39799 0.86953 0.02939 0.0
C1010 C 0.32422 0.88406 0.97786 0.0
C1011 C 0.37296 0.87622 0.01519 0.0
N1012 N 0.34799 0.92789 0.96215 0.0
N1013 N 0.34422 0.84175 0.04121 0.0
H1014 H 0.41772 0.88108 0.02744 0.0
H1015 H 0.39979 0.85109 0.04107 0.0
H1016 H 0.32552 0.82916 0.04474 0.0
H1017 H 0.3598 0.84116 0.05791 0.0
H1018 H 0.32945 0.934 0.95109 0.0
H1019 H 0.36551 0.94282 0.96167 0.0
H1020 H 0.30459 0.89748 0.93885 0.0
H1021 H 0.28548 0.86954 0.95486 0.0
C1022 C 0.2036 0.38268 0.27036 0.0
C1023 C 0.23326 0.38413 0.27965 0.0
C1024 C 0.2343 0.4352 0.28166 0.0
C1025 C 0.20567 0.4341 0.26941 0.0
N1026 N 0.16379 0.40726 0.24906 0.0
N1027 N 0.27847 0.41188 0.28808 0.0
C1028 C 0.1904 0.40793 0.26297 0.0
C1029 C 0.24909 0.41044 0.28351 0.0
N1030 N 0.18798 0.35732 0.2693 0.0
N1031 N 0.24704 0.45976 0.29265 0.0
H1032 H 0.29036 0.39423 0.28912 0.0
H1033 H 0.29132 0.43069 0.28799 0.0
H1034 H 0.23664 0.47833 0.29272 0.0
H1035 H 0.26672 0.46099 0.30445 0.0
H1036 H 0.16566 0.35509 0.2655 0.0
H1037 H 0.19713 0.3385 0.27427 0.0
H1038 H 0.1528 0.38897 0.24114 0.0
H1039 H 0.15355 0.42539 0.24362 0.0
C1040 C 0.13928 0.07125 0.5294 0.0
C1041 C 0.14488 0.0541 0.50638 0.0
C1042 C 0.18883 0.08382 0.49775 0.0
C1043 C 0.1841 0.10012 0.52176 0.0
N1044 N 0.15823 0.10628 0.56368 0.0
N1045 N 0.17708 0.04075 0.47156 0.0
C1046 C 0.16023 0.09299 0.53851 0.0
C1047 C 0.17036 0.05937 0.49148 0.0
N1048 N 0.11364 0.06712 0.54213 0.0
N1049 N 0.21013 0.09245 0.48015 0.0
H1050 H 0.16372 0.02297 0.46584 0.0
H1051 H 0.1969 0.04166 0.4623 0.0
H1052 H 0.2243 0.11011 0.484 0.0
H1053 H 0.21241 0.08344 0.46053 0.0
H1054 H 0.10678 0.08089 0.5568 0.0
H1055 H 0.0982 0.05085 0.53658 0.0
H1056 H 0.14298 0.10024 0.57826 0.0
H1057 H 0.1736 0.12177 0.57125 0.0
C1058 C 0.72011 0.12136 0.73297 0.0
C1059 C 0.74584 0.12541 0.75059 0.0
C1060 C 0.72415 0.09501 0.7868 0.0
C1061 C 0.70083 0.08722 0.76721 0.0
N1062 N 0.67641 0.09177 0.72134 0.0
N1063 N 0.77375 0.11392 0.79331 0.0
C1064 C 0.69854 0.1003 0.74027 0.0
C1065 C 0.74812 0.11201 0.77749 0.0
N1066 N 0.71625 0.1379 0.70951 0.0
N1067 N 0.72341 0.08585 0.81425 0.0
H1068 H 0.79215 0.12562 0.78708 0.0
H1069 H 0.77757 0.10199 0.8115 0.0
H1070 H 0.7061 0.07322 0.8216 0.0
H1071 H 0.73846 0.09295 0.83024 0.0
H1072 H 0.69694 0.13766 0.69719 0.0
H1073 H 0.73155 0.15373 0.70383 0.0
H1074 H 0.67534 0.09802 0.70016 0.0
H1075 H 0.65978 0.07715 0.72661 0.0
C1076 C 0.38412 0.07163 0.57076 0.0
C1077 C 0.39425 0.06709 0.54359 0.0
C1078 C 0.35704 0.09517 0.52153 0.0
C1079 C 0.34635 0.09909 0.54864 0.0
N1080 N 0.34518 0.086 0.59794 0.0
N1081 N 0.38685 0.06878 0.49278 0.0
C1082 C 0.35853 0.08574 0.57295 0.0
C1083 C 0.37947 0.07697 0.51884 0.0
N1084 N 0.39955 0.06341 0.5945 0.0
N1085 N 0.3471 0.11015 0.49867 0.0
H1086 H 0.4034 0.05567 0.49009 0.0
H1087 H 0.37496 0.07287 0.47404 0.0
H1088 H 0.33095 0.12402 0.49965 0.0
H1089 H 0.35646 0.11063 0.47918 0.0
H1090 H 0.39522 0.06908 0.61494 0.0
H1091 H 0.41801 0.05242 0.59372 0.0
H1092 H 0.35133 0.07436 0.61571 0.0
H1093 H 0.32615 0.09582 0.60012 0.0
C1094 C 0.63318 0.43062 0.49041 0.0
C1095 C 0.62619 0.43926 0.51762 0.0
C1096 C 0.65158 0.40096 0.5398 0.0
C1097 C 0.65692 0.3911 0.51252 0.0
N1098 N 0.64935 0.39367 0.46171 0.0
N1099 N 0.62382 0.43012 0.56772 0.0
C1100 C 0.64678 0.40515 0.48772 0.0
C1101 C 0.63384 0.42358 0.54216 0.0
N1102 N 0.62749 0.44714 0.46729 0.0
N1103 N 0.66475 0.38972 0.56345 0.0
H1104 H 0.61109 0.44684 0.57042 0.0
H1105 H 0.62597 0.41758 0.58574 0.0
H1106 H 0.67852 0.37356 0.56269 0.0
H1107 H 0.66429 0.39813 0.58363 0.0
H1108 H 0.63495 0.44374 0.44737 0.0
H1109 H 0.61674 0.46544 0.46843 0.0
H1110 H 0.63976 0.40125 0.44302 0.0
H1111 H 0.65928 0.37511 0.45901 0.0
C1112 C 0.71075 0.26195 0.37849 0.0
C1113 C 0.71642 0.28322 0.35799 0.0
C1114 C 0.7295 0.31756 0.39559 0.0
C1115 C 0.72348 0.29632 0.41605 0.0
N1116 N 0.70159 0.25063 0.42741 0.0
N1117 N 0.72501 0.33213 0.34626 0.0
C1118 C 0.71193 0.26922 0.40759 0.0
C1119 C 0.72376 0.31137 0.36634 0.0
N1120 N 0.70556 0.23461 0.37028 0.0
N1121 N 0.74208 0.34312 0.404 0.0
H1122 H 0.72107 0.32815 0.32467 0.0
H1123 H 0.72747 0.3534 0.35106 0.0
H1124 H 0.74615 0.3486 0.42522 0.0
H1125 H 0.75022 0.35828 0.39002 0.0
H1126 H 0.70478 0.2178 0.38446 0.0
H1127 H 0.70403 0.22842 0.34913 0.0
H1128 H 0.69029 0.23156 0.42232 0.0
H1129 H 0.70186 0.25547 0.4489 0.0
C1130 C 0.56306 0.96702 0.87773 0.0
C1131 C 0.55331 0.9893 0.8933 0.0
C1132 C 0.57999 0.0233 0.86367 0.0
C1133 C 0.59346 0.00108 0.85143 0.0
N1134 N 0.59988 0.95155 0.84859 0.0
N1135 N 0.55483 0.03883 0.90332 0.0
C1136 C 0.5853 0.9728 0.85861 0.0
C1137 C 0.56217 0.01754 0.88672 0.0
N1138 N 0.55086 0.94038 0.88112 0.0
N1139 N 0.58374 0.04984 0.8528 0.0
H1140 H 0.54186 0.03563 0.92049 0.0
H1141 H 0.56352 0.05945 0.9015 0.0
H1142 H 0.5961 0.05466 0.83543 0.0
H1143 H 0.57224 0.06637 0.85901 0.0
H1144 H 0.55499 0.92367 0.86838 0.0
H1145 H 0.5345 0.93553 0.89496 0.0
H1146 H 0.59712 0.9309 0.85572 0.0
H1147 H 0.61647 0.95481 0.83476 0.0
C1148 C 0.26114 0.1879 0.40153 0.0
C1149 C 0.28204 0.21104 0.40062 0.0
C1150 C 0.29143 0.20788 0.45205 0.0
C1151 C 0.26789 0.18738 0.45337 0.0
N1152 N 0.22896 0.15868 0.43013 0.0
N1153 N 0.31402 0.24604 0.42539 0.0
C1154 C 0.2524 0.17748 0.42828 0.0
C1155 C 0.29664 0.22166 0.42594 0.0
N1156 N 0.25005 0.17573 0.37683 0.0
N1157 N 0.30867 0.21445 0.47584 0.0
H1158 H 0.31809 0.25734 0.40691 0.0
H1159 H 0.32239 0.25655 0.44358 0.0
H1160 H 0.30499 0.20567 0.4957 0.0
H1161 H 0.32806 0.2268 0.47545 0.0
H1162 H 0.23674 0.15723 0.376 0.0
H1163 H 0.25614 0.18294 0.35698 0.0
H1164 H 0.21477 0.15294 0.41297 0.0
H1165 H 0.22272 0.14992 0.44934 0.0
C1166 C 0.44699 0.46819 0.86969 0.0
C1167 C 0.46447 0.4897 0.88417 0.0
C1168 C 0.44809 0.52465 0.84995 0.0
C1169 C 0.43233 0.50279 0.83424 0.0
N1170 N 0.40901 0.45626 0.8334 0.0
N1171 N 0.47458 0.53873 0.89397 0.0
C1172 C 0.42905 0.47537 0.84577 0.0
C1173 C 0.46237 0.51813 0.87633 0.0
N1174 N 0.44897 0.44083 0.87769 0.0
N1175 N 0.4514 0.55108 0.83873 0.0
H1176 H 0.48525 0.53423 0.91333 0.0
H1177 H 0.47177 0.55995 0.89081 0.0
H1178 H 0.4409 0.557 0.81981 0.0
H1179 H 0.46571 0.56689 0.84745 0.0
H1180 H 0.43948 0.42393 0.86595 0.0
H1181 H 0.46135 0.43492 0.89554 0.0
H1182 H 0.4038 0.43648 0.8419 0.0
H1183 H 0.39561 0.46139 0.81592 0.0
C1184 C 0.75017 0.74384 0.12076 0.0
C1185 C 0.7223 0.74108 0.13159 0.0
C1186 C 0.71347 0.69402 0.11121 0.0
C1187 C 0.74128 0.69691 0.1004 0.0
N1188 N 0.78861 0.72108 0.09988 0.0
N1189 N 0.67921 0.7125 0.14176 0.0
C1190 C 0.76044 0.72075 0.10684 0.0
C1191 C 0.70448 0.71575 0.12828 0.0
N1192 N 0.76632 0.76894 0.12275 0.0
N1193 N 0.69555 0.6708 0.1045 0.0
H1194 H 0.67196 0.72821 0.1541 0.0
H1195 H 0.66636 0.69376 0.14238 0.0
H1196 H 0.70241 0.65395 0.09351 0.0
H1197 H 0.67382 0.66854 0.10882 0.0
H1198 H 0.7852 0.77342 0.11227 0.0
H1199 H 0.7599 0.78621 0.1334 0.0
H1200 H 0.80447 0.73649 0.10654 0.0
H1201 H 0.79683 0.70455 0.08948 0.0
C1202 C 0.9566 0.0163 0.1322 0.0
C1203 C 0.98478 0.02982 0.13555 0.0
C1204 C 0.97604 0.04339 0.18401 0.0
C1205 C 0.94718 0.03142 0.18009 0.0
N1206 N 0.90908 0.00744 0.15089 0.0
N1207 N 0.02151 0.05733 0.16335 0.0
C1208 C 0.93718 0.01811 0.15426 0.0
C1209 C 0.99464 0.04342 0.16123 0.0
N1210 N 0.94873 0.00144 0.10806 0.0
N1211 N 0.98565 0.05494 0.20955 0.0
H1212 H 0.03647 0.05654 0.14784 0.0
H1213 H 0.0288 0.07085 0.17975 0.0
H1214 H 0.97217 0.05831 0.22583 0.0
H1215 H 0.00726 0.06032 0.2153 0.0
H1216 H 0.92953 0.98899 0.10493 0.0
H1217 H 0.96238 0.00018 0.09144 0.0
H1218 H 0.89935 -0.00013 0.13185 0.0
H1219 H 0.89479 0.00716 0.1671 0.0
C1220 C 0.26678 0.7553 0.10278 0.0
C1221 C 0.28693 0.77167 0.12058 0.0
C1222 C 0.27872 0.81334 0.0916 0.0
C1223 C 0.25695 0.7974 0.075 0.0
N1224 N 0.22586 0.75489 0.06873 0.0
N1225 N 0.3089 0.81678 0.13524 0.0
C1226 C 0.2498 0.7688 0.08162 0.0
C1227 C 0.29187 0.8009 0.11603 0.0
N1228 N 0.26423 0.72676 0.10576 0.0
N1229 N 0.28795 0.83983 0.08328 0.0
H1230 H 0.31948 0.80819 0.15297 0.0
H1231 H 0.31072 0.83862 0.13491 0.0
H1232 H 0.27996 0.84941 0.06488 0.0
H1233 H 0.30571 0.8513 0.0929 0.0
H1234 H 0.25247 0.71349 0.09127 0.0
H1235 H 0.27569 0.71607 0.12152 0.0
H1236 H 0.21785 0.73497 0.07486 0.0
H1237 H 0.21219 0.76427 0.05382 0.0
C1238 C 0.09533 0.48758 0.1453 0.0
C1239 C 0.07912 0.51116 0.13959 0.0
C1240 C 0.09709 0.53204 0.18505 0.0
C1241 C 0.11599 0.51018 0.18911 0.0
N1242 N 0.1334 0.46689 0.1739 0.0
N1243 N 0.06519 0.55658 0.15257 0.0
C1244 C 0.11507 0.48777 0.16949 0.0
C1245 C 0.07994 0.53348 0.15922 0.0
N1246 N 0.09144 0.46488 0.12775 0.0
N1247 N 0.09549 0.55143 0.20586 0.0
H1248 H 0.05163 0.55798 0.13433 0.0
H1249 H 0.06764 0.5751 0.16411 0.0
H1250 H 0.10824 0.55169 0.22471 0.0
H1251 H 0.07999 0.56602 0.20556 0.0
H1252 H 0.1003 0.44585 0.13201 0.0
H1253 H 0.07755 0.46431 0.1096 0.0
H1254 H 0.13658 0.45183 0.1589 0.0
H1255 H 0.14646 0.46514 0.19244 0.0
C1256 C 0.41295 0.71855 0.33827 0.0
C1257 C 0.41451 0.73778 0.31528 0.0
C1258 C 0.44784 0.76942 0.34419 0.0
C1259 C 0.44966 0.74826 0.3654 0.0
N1260 N 0.43783 0.70028 0.37992 0.0
N1261 N 0.43649 0.78 0.29476 0.0
C1262 C 0.43312 0.7222 0.36186 0.0
C1263 C 0.4327 0.76291 0.3178 0.0
N1264 N 0.3919 0.69699 0.33778 0.0
N1265 N 0.45977 0.79597 0.34955 0.0
H1266 H 0.42588 0.77593 0.27503 0.0
H1267 H 0.45196 0.79691 0.2946 0.0
H1268 H 0.4702 0.80178 0.36897 0.0
H1269 H 0.45673 0.81284 0.33588 0.0
H1270 H 0.38804 0.68399 0.35519 0.0
H1271 H 0.3764 0.6939 0.32103 0.0
H1272 H 0.4285 0.68004 0.37638 0.0
H1273 H 0.45327 0.70144 0.39682 0.0
C1274 C 0.99571 0.37903 0.99527 0.0
C1275 C 0.99676 0.40163 0.97568 0.0
C1276 C 0.99432 0.36817 0.93652 0.0
C1277 C 0.99812 0.34607 0.95636 0.0
N1278 N 0.00888 0.332 0.00503 0.0
N1279 N 0.00069 0.41815 0.92752 0.0
C1280 C 1.00032 0.3518 0.9859 0.0
C1281 C 0.99687 0.39637 0.94618 0.0
N1282 N 0.99011 0.38354 0.02285 0.0
N1283 N 0.98759 0.36219 0.90861 0.0
H1284 H 0.00289 0.43908 0.93376 0.0
H1285 H 0.00408 0.41535 0.90617 0.0
H1286 H 0.98482 0.34173 0.90096 0.0
H1287 H 0.98192 0.37728 0.89367 0.0
H1288 H 0.98637 0.36729 0.03734 0.0
H1289 H 0.98617 0.40323 0.03041 0.0
H1290 H 0.01358 0.33631 0.02643 0.0
H1291 H 0.01452 0.31225 -0.0007 0.0
C1292 C 0.63768 0.80911 0.31842 0.0
C1293 C 0.62106 0.81476 0.29319 0.0
C1294 C 0.57669 0.79867 0.31581 0.0
C1295 C 0.59315 0.79477 0.34161 0.0
N1296 N 0.63822 0.80266 0.36929 0.0
N1297 N 0.57465 0.82076 0.26943 0.0
C1298 C 0.62336 0.80189 0.34346 0.0
C1299 C 0.59049 0.81139 0.2924 0.0
N1300 N 0.66708 0.80953 0.31824 0.0
N1301 N 0.54829 0.78885 0.31311 0.0
H1302 H 0.5841 0.83024 0.25192 0.0
H1303 H 0.55231 0.82151 0.26887 0.0
H1304 H 0.53741 0.77881 0.32947 0.0
H1305 H 0.53615 0.78838 0.29388 0.0
H1306 H 0.68 0.80246 0.33517 0.0
H1307 H 0.67848 0.81468 0.30032 0.0
H1308 H 0.6597 0.81044 0.37223 0.0
H1309 H 0.62833 0.79822 0.38824 0.0
C1310 C 0.04407 0.16873 0.99187 0.0
C1311 C 0.04588 0.14505 0.97453 0.0
C1312 C 0.03529 0.17358 0.93249 0.0
C1313 C 0.03921 0.19807 0.94946 0.0
N1314 N 0.05239 0.2189 0.99543 0.0
N1315 N 0.04483 0.12471 0.92803 0.0
C1316 C 0.04455 0.19571 0.97927 0.0
C1317 C 0.04165 0.14729 0.94471 0.0
N1318 N 0.04201 0.16543 0.02046 0.0
N1319 N 0.02481 0.17537 0.90498 0.0
H1320 H 0.04911 0.10506 0.93633 0.0
H1321 H 0.04519 0.12597 0.90604 0.0
H1322 H 0.01901 0.19417 0.8957 0.0
H1323 H 0.01907 0.15788 0.89236 0.0
H1324 H 0.03784 0.18174 0.03372 0.0
H1325 H 0.04136 0.14582 0.03041 0.0
H1326 H 0.05945 0.21772 0.0167 0.0
H1327 H 0.05498 0.23916 0.98722 0.0
C1328 C 0.3649 0.26949 0.17681 0.0
C1329 C 0.37328 0.25929 0.2041 0.0
C1330 C 0.40974 0.23241 0.18371 0.0
C1331 C 0.40299 0.24443 0.15678 0.0
N1332 N 0.3778 0.27803 0.12837 0.0
N1333 N 0.40655 0.23489 0.23461 0.0
C1334 C 0.38152 0.26395 0.15348 0.0
C1335 C 0.39657 0.24186 0.20788 0.0
N1336 N 0.34064 0.28387 0.17311 0.0
N1337 N 0.42769 0.21102 0.18603 0.0
H1338 H 0.39718 0.24105 0.25284 0.0
H1339 H 0.42551 0.22496 0.23884 0.0
H1340 H 0.43753 0.2032 0.16882 0.0
H1341 H 0.43085 0.19934 0.20451 0.0
H1342 H 0.33161 0.28918 0.15329 0.0
H1343 H 0.32811 0.28857 0.18977 0.0
H1344 H 0.36468 0.29465 0.12557 0.0
H1345 H 0.38986 0.27482 0.11092 0.0
C1346 C 0.49531 0.34644 0.03129 0.0
C1347 C 0.52504 0.35555 0.03202 0.0
C1348 C 0.53679 0.31309 0.05829 0.0
C1349 C 0.50783 0.30196 0.05324 0.0
N1350 N 0.4594 0.30717 0.03375 0.0
N1351 N 0.57463 0.34758 0.04514 0.0
C1352 C 0.48687 0.31856 0.03986 0.0
C1353 C 0.54594 0.33906 0.0456 0.0
N1354 N 0.47523 0.36453 0.02236 0.0
N1355 N 0.55538 0.29891 0.07557 0.0
H1356 H 0.58214 0.36682 0.03671 0.0
H1357 H 0.59109 0.33491 0.05153 0.0
H1358 H 0.54924 0.27988 0.0853 0.0
H1359 H 0.57594 0.30715 0.08237 0.0
H1360 H 0.4531 0.36019 0.02381 0.0
H1361 H 0.4809 0.38503 0.01585 0.0
H1362 H 0.44412 0.31707 0.02108 0.0
H1363 H 0.45231 0.28688 0.03971 0.0
C1364 C 0.60054 0.19477 0.15529 0.0
C1365 C 0.60552 0.21862 0.173 0.0
C1366 C 0.56155 0.23777 0.15249 0.0
C1367 C 0.55591 0.21339 0.1355 0.0
N1368 N 0.56594 0.16574 0.12607 0.0
N1369 N 0.58721 0.25889 0.19394 0.0
C1370 C 0.57414 0.19092 0.13863 0.0
C1371 C 0.58476 0.2388 0.17341 0.0
N1372 N 0.62157 0.17654 0.15326 0.0
N1373 N 0.54614 0.26073 0.14746 0.0
H1374 H 0.60395 0.26012 0.20967 0.0
H1375 H 0.57121 0.27247 0.19704 0.0
H1376 H 0.52939 0.26144 0.13192 0.0
H1377 H 0.55168 0.28008 0.15698 0.0
H1378 H 0.62046 0.16066 0.13824 0.0
H1379 H 0.64121 0.17854 0.16512 0.0
H1380 H 0.5769 0.14776 0.12987 0.0
H1381 H 0.54653 0.1621 0.11403 0.0
C1382 C 0.48012 0.09616 0.07071 0.0
C1383 C 0.47792 0.09103 0.04112 0.0
C1384 C 0.46599 0.13946 0.03225 0.0
C1385 C 0.47107 0.14534 0.0616 0.0
N1386 N 0.49024 0.13075 0.10757 0.0
N1387 N 0.47543 0.10951 0.99342 0.0
C1388 C 0.48024 0.12411 0.08053 0.0
C1389 C 0.47291 0.11323 0.02177 0.0
N1390 N 0.48101 0.0743 0.08952 0.0
N1391 N 0.45309 0.15818 0.01454 0.0
H1392 H 0.48098 0.09072 0.98497 0.0
H1393 H 0.47488 0.12587 0.97871 0.0
H1394 H 0.44635 0.17712 0.02141 0.0
H1395 H 0.44629 0.15358 0.99361 0.0
H1396 H 0.47958 0.07674 0.11126 0.0
H1397 H 0.48033 0.05341 0.08326 0.0
H1398 H 0.49983 0.11651 0.12127 0.0
H1399 H 0.49199 0.15118 0.11529 0.0
C1400 C 0.30042 0.43875 0.73911 0.0
C1401 C 0.2979 0.4219 0.71445 0.0
C1402 C 0.34525 0.44166 0.70067 0.0
C1403 C 0.34877 0.45681 0.72647 0.0
N1404 N 0.33243 0.46523 0.77297 0.0
N1405 N 0.31975 0.40323 0.67439 0.0
C1406 C 0.32709 0.45411 0.74647 0.0
C1407 C 0.32088 0.42215 0.69598 0.0
N1408 N 0.27707 0.44074 0.75504 0.0
N1409 N 0.36447 0.44678 0.68009 0.0
H1410 H 0.3022 0.38866 0.67024 0.0
H1411 H 0.33717 0.40033 0.66215 0.0
H1412 H 0.38252 0.46101 0.68254 0.0
H1413 H 0.36123 0.43876 0.65966 0.0
H1414 H 0.27666 0.4551 0.77139 0.0
H1415 H 0.25718 0.4297 0.75042 0.0
H1416 H 0.31865 0.46139 0.78938 0.0
H1417 H 0.35196 0.47606 0.77946 0.0
C1418 C 0.28964 0.61895 0.73847 0.0
C1419 C 0.29561 0.6457 0.75103 0.0
C1420 C 0.3428 0.63201 0.76965 0.0
C1421 C 0.33853 0.60696 0.7537 0.0
N1422 N 0.30904 0.5774 0.72059 0.0
N1423 N 0.32879 0.67912 0.7764 0.0
C1424 C 0.31211 0.60042 0.73773 0.0
C1425 C 0.32236 0.65257 0.76625 0.0
N1426 N 0.2624 0.6112 0.72751 0.0
N1427 N 0.36614 0.63582 0.78852 0.0
H1428 H 0.31436 0.69479 0.77458 0.0
H1429 H 0.34919 0.6863 0.78471 0.0
H1430 H 0.38131 0.62094 0.79178 0.0
H1431 H 0.36898 0.65232 0.80286 0.0
H1432 H 0.25586 0.59097 0.72068 0.0
H1433 H 0.24555 0.62442 0.72755 0.0
H1434 H 0.29167 0.57339 0.70595 0.0
H1435 H 0.32491 0.56327 0.71937 0.0
C1436 C 0.85303 0.40332 0.51628 0.0
C1437 C 0.86597 0.40826 0.49002 0.0
C1438 C 0.82784 0.37701 0.46651 0.0
C1439 C 0.8143 0.37347 0.49256 0.0
N1440 N 0.8087 0.39149 0.53926 0.0
N1441 N 0.86131 0.4057 0.43896 0.0
C1442 C 0.82508 0.38938 0.51647 0.0
C1443 C 0.85205 0.39686 0.46469 0.0
N1444 N 0.86799 0.41034 0.54125 0.0
N1445 N 0.81769 0.36132 0.44356 0.0
H1446 H 0.87834 0.42092 0.43683 0.0
H1447 H 0.85037 0.40005 0.41978 0.0
H1448 H 0.79893 0.34792 0.44362 0.0
H1449 H 0.82867 0.36055 0.42503 0.0
H1450 H 0.86039 0.4046 0.56096 0.0
H1451 H 0.88925 0.41903 0.54237 0.0
H1452 H 0.81491 0.40467 0.55631 0.0
H1453 H 0.78747 0.38289 0.53952 0.0
C1454 C 0.70194 0.88344 0.77264 0.0
C1455 C 0.73159 0.88437 0.78193 0.0
C1456 C 0.73311 0.93539 0.78553 0.0
C1457 C 0.70459 0.93486 0.77311 0.0
N1458 N 0.6624 0.90897 0.75219 0.0
N1459 N 0.77697 0.91153 0.79157 0.0
C1460 C 0.68902 0.90901 0.76602 0.0
C1461 C 0.74762 0.91044 0.78679 0.0
N1462 N 0.68608 0.85822 0.77079 0.0
N1463 N 0.74606 0.95963 0.79704 0.0
H1464 H 0.78871 0.89378 0.79213 0.0
H1465 H 0.79001 0.93023 0.79215 0.0
H1466 H 0.73589 0.97833 0.79729 0.0
H1467 H 0.76564 0.96046 0.80898 0.0
H1468 H 0.66377 0.85627 0.7669 0.0
H1469 H 0.69502 0.83919 0.77524 0.0
H1470 H 0.65121 0.89101 0.74375 0.0
H1471 H 0.6523 0.92734 0.74746 0.0
C1472 C 0.66613 0.56085 0.98766 0.0
C1473 C 0.64405 0.55289 0.00629 0.0
C1474 C 0.65951 0.59312 0.03672 0.0
C1475 C 0.68282 0.60001 0.01914 0.0
N1476 N 0.71041 0.5891 0.97949 0.0
N1477 N 0.62183 0.55851 0.05039 0.0
C1478 C 0.68684 0.58335 0.99517 0.0
C1479 C 0.64132 0.56823 0.03136 0.0
N1480 N 0.66654 0.54761 0.96217 0.0
N1481 N 0.65452 0.6106 0.0583 0.0
H1482 H 0.60796 0.54054 0.04693 0.0
H1483 H 0.62082 0.56688 0.07051 0.0
H1484 H 0.66798 0.62839 0.06358 0.0
H1485 H 0.63607 0.60861 0.06981 0.0
H1486 H 0.67982 0.55447 0.94614 0.0
H1487 H 0.65201 0.53081 0.95601 0.0
H1488 H 0.71656 0.57575 0.96405 0.0
H1489 H 0.72503 0.6065 0.98292 0.0
C1490 C 0.24376 0.61151 0.27633 0.0
C1491 C 0.24041 0.62631 0.2503 0.0
C1492 C 0.19355 0.60043 0.23979 0.0
C1493 C 0.1969 0.58598 0.2659 0.0
N1494 N 0.2207 0.5827 0.31225 0.0
N1495 N 0.20952 0.64003 0.21065 0.0
C1496 C 0.22051 0.59333 0.28529 0.0
C1497 C 0.21437 0.62244 0.23311 0.0
N1498 N 0.26973 0.61332 0.29157 0.0
N1499 N 0.17116 0.59231 0.22098 0.0
H1500 H 0.22429 0.65652 0.20544 0.0
H1501 H 0.18993 0.63989 0.19881 0.0
H1502 H 0.15508 0.57694 0.22585 0.0
H1503 H 0.16935 0.59969 0.2002 0.0
H1504 H 0.27436 0.60052 0.30894 0.0
H1505 H 0.28764 0.62592 0.28555 0.0
H1506 H 0.23596 0.58934 0.32824 0.0
H1507 H 0.20388 0.56924 0.31937 0.0
C1508 C 0.8782 0.57481 0.0156 0.0
C1509 C 0.89588 0.56956 0.04023 0.0
C1510 C 0.86221 0.59145 0.0695 0.0
C1511 C 0.84702 0.60037 0.04454 0.0
N1512 N 0.84223 0.60326 0.99344 0.0
N1513 N 0.90645 0.57457 0.09055 0.0
C1514 C 0.85518 0.5925 0.01743 0.0
C1515 C 0.88825 0.57813 0.06724 0.0
N1516 N 0.88334 0.56269 0.9905 0.0
N1517 N 0.85133 0.59518 0.09533 0.0
H1518 H 0.92549 0.56447 0.08983 0.0
H1519 H 0.90376 0.58334 0.1102 0.0
H1520 H 0.83203 0.60447 0.09766 0.0
H1521 H 0.85984 0.58671 0.1141 0.0
H1522 H 0.86944 0.56334 0.97246 0.0
H1523 H 0.90017 0.54976 0.98842 0.0
H1524 H 0.84961 0.6009 0.97329 0.0
H1525 H 0.82549 0.61653 0.99371 0.0
C1526 C 0.14375 0.94322 0.9875 0.0
C1527 C 0.13463 0.94848 0.01495 0.0
C1528 C 0.15784 0.90743 0.03378 0.0
C1529 C 0.16485 0.90075 0.00596 0.0
N1530 N 0.16203 0.90999 0.95573 0.0
N1531 N 0.12871 0.93357 0.06331 0.0
C1532 C 0.15721 0.91807 0.9826 0.0
C1533 C 0.14038 0.92993 0.03782 0.0
N1534 N 0.14008 0.96258 0.96637 0.0
N1535 N 0.16901 0.89306 0.05654 0.0
H1536 H 0.11619 0.95013 0.06732 0.0
H1537 H 0.12936 0.91892 0.07973 0.0
H1538 H 0.18246 0.87678 0.05459 0.0
H1539 H 0.16731 0.89896 0.07747 0.0
H1540 H 0.14901 0.96157 0.94676 0.0
H1541 H 0.12953 0.98077 0.96908 0.0
H1542 H 0.15423 0.92004 0.93755 0.0
H1543 H 0.17224 0.89193 0.95152 0.0
loop_
_geom_bond_atom_site_label_1
_geom_bond_atom_site_label_2
_geom_bond_distance
_geom_bond_site_symmetry_2
_ccdc_geom_bond_type
P0 O11 1.490 . S
P0 C14 1.812 . S
P0 C20 1.803 . S
P0 C26 1.819 . S
H1 C15 0.941 . S
H2 C16 0.939 . S
H3 C18 0.940 . S
H4 C19 0.940 . S
H5 C21 0.939 . S
H6 C22 0.942 . S
H7 C24 0.940 . S
H8 C25 0.939 . S
H9 C27 0.941 . S
H10 C31 0.939 1_556 S
O11 P0 1.490 . S
H12 C28 0.939 . S
H13 C30 0.940 . S
C14 P0 1.812 . S
C14 C15 1.389 . S
C14 C19 1.391 . S
C15 H1 0.941 . S
C15 C14 1.389 . S
C15 C16 1.397 . S
C16 H2 0.939 . S
C16 C15 1.397 . S
C16 C17 1.378 1_455 S
C17 C16 1.378 1_655 S
C17 C18 1.378 . S
C18 H3 0.940 . S
C18 C17 1.378 . S
C18 C19 1.396 1_655 S
C19 H4 0.940 . S
C19 C14 1.391 . S
C19 C18 1.396 1_455 S
C20 P0 1.803 . S
C20 C21 1.378 . S
C20 C25 1.400 . S
C21 H5 0.939 . S
C21 C20 1.378 . S
C21 C22 1.361 . S
C22 H6 0.942 . S
C22 C21 1.361 . S
C22 C23 1.369 1_545 S
C23 C22 1.369 1_565 S
C23 C24 1.404 . S
C24 H7 0.940 . S
C24 C23 1.404 . S
C24 C25 1.389 1_565 S
C25 H8 0.939 . S
C25 C20 1.400 . S
C25 C24 1.389 1_545 S
C26 P0 1.819 . S
C26 C27 1.391 . S
C26 C31 1.391 . S
C27 H9 0.941 . S
C27 C26 1.391 . S
C27 C28 1.396 . S
C28 H12 0.939 . S
C28 C27 1.396 . S
C28 C29 1.397 1_554 S
C29 C28 1.397 1_556 S
C29 C30 1.385 . S
C30 H13 0.940 . S
C30 C29 1.385 . S
C30 C31 1.388 1_556 S
C31 H10 0.939 1_554 S
C31 C26 1.391 . S
C31 C30 1.388 1_554 S
P32 O43 1.490 . S
P32 C46 1.812 . S
P32 C52 1.803 . S
P32 C58 1.819 . S
H33 C47 0.941 . S
H34 C48 0.939 . S
H35 C50 0.940 . S
H36 C51 0.940 . S
H37 C53 0.939 . S
H38 C54 0.942 . S
H39 C56 0.940 . S
H40 C57 0.939 . S
H41 C59 0.941 . S
H42 C63 0.939 . S
O43 P32 1.490 . S
H44 C60 0.939 . S
H45 C62 0.940 . S
C46 P32 1.812 . S
C46 C47 1.389 . S
C46 C51 1.391 . S
C47 H33 0.941 . S
C47 C46 1.389 . S
C47 C48 1.397 . S
C48 H34 0.939 . S
C48 C47 1.397 . S
C48 C49 1.378 . S
C49 C48 1.378 . S
C49 C50 1.378 . S
C50 H35 0.940 . S
C50 C49 1.378 . S
C50 C51 1.396 . S
C51 H36 0.940 . S
C51 C46 1.391 . S
C51 C50 1.396 . S
C52 P32 1.803 . S
C52 C53 1.378 . S
C52 C57 1.400 . S
C53 H37 0.939 . S
C53 C52 1.378 . S
C53 C54 1.361 . S
C54 H38 0.942 . S
C54 C53 1.361 . S
C54 C55 1.369 . S
C55 C54 1.369 . S
C55 C56 1.404 . S
C56 H39 0.940 . S
C56 C55 1.404 . S
C56 C57 1.389 . S
C57 H40 0.939 . S
C57 C52 1.400 . S
C57 C56 1.389 . S
C58 P32 1.819 . S
C58 C59 1.391 . S
C58 C63 1.391 . S
C59 H41 0.941 . S
C59 C58 1.391 . S
C59 C60 1.396 . S
C60 H44 0.939 . S
C60 C59 1.396 . S
C60 C61 1.397 . S
C61 C60 1.397 . S
C61 C62 1.385 . S
C62 H45 0.940 . S
C62 C61 1.385 . S
C62 C63 1.388 . S
C63 H42 0.939 . S
C63 C58 1.391 . S
C63 C62 1.388 . S
P64 O75 1.490 . S
P64 C78 1.811 . S
P64 C84 1.803 1_455 S
P64 C90 1.819 . S
H65 C79 0.941 . S
H66 C80 0.939 . S
H67 C82 0.940 . S
H68 C83 0.940 . S
H69 C85 0.939 . S
H70 C86 0.942 . S
H71 C88 0.940 . S
H72 C89 0.939 . S
H73 C91 0.941 . S
H74 C95 0.939 . S
O75 P64 1.490 . S
H76 C92 0.939 . S
H77 C94 0.918 1_655 S
C78 P64 1.811 . S
C78 C79 1.398 1_554 S
C78 C83 1.385 1_455 S
C79 H65 0.941 . S
C79 C78 1.398 1_556 S
C79 C80 1.397 . S
C80 H66 0.939 . S
C80 C79 1.397 . S
C80 C81 1.378 1_455 S
C81 C80 1.378 1_655 S
C81 C82 1.378 1_556 S
C82 H67 0.940 . S
C82 C81 1.378 1_554 S
C82 C83 1.396 . S
C83 H68 0.940 . S
C83 C78 1.385 1_655 S
C83 C82 1.396 . S
C84 P64 1.803 1_655 S
C84 C85 1.378 . S
C84 C89 1.400 . S
C85 H69 0.939 . S
C85 C84 1.378 . S
C85 C86 1.361 . S
C86 H70 0.942 . S
C86 C85 1.361 . S
C86 C87 1.369 . S
C87 C86 1.369 . S
C87 C88 1.404 . S
C88 H71 0.940 . S
C88 C87 1.404 . S
C88 C89 1.389 . S
C89 H72 0.939 . S
C89 C84 1.400 . S
C89 C88 1.389 . S
C90 P64 1.819 . S
C90 C91 1.391 . S
C90 C95 1.391 1_455 S
C91 H73 0.941 . S
C91 C90 1.391 . S
C91 C92 1.396 . S
C92 H76 0.939 . S
C92 C91 1.396 . S
C92 C93 1.397 . S
C93 C92 1.397 . S
C93 C94 1.385 . S
C94 H77 0.918 1_455 S
C94 C93 1.385 . S
C94 C95 1.388 1_455 S
C95 H74 0.939 . S
C95 C90 1.391 1_655 S
C95 C94 1.388 1_655 S
P96 O107 1.490 . S
P96 C110 1.812 . S
P96 C116 1.803 . S
P96 C122 1.819 . S
H97 C111 0.941 . S
H98 C112 0.939 . S
H99 C114 0.940 . S
H100 C115 0.940 . S
H101 C117 0.939 . S
H102 C118 0.942 . S
H103 C120 0.940 . S
H104 C121 0.939 . S
H105 C123 0.941 . S
H106 C127 0.939 . S
O107 P96 1.490 . S
H108 C124 0.939 . S
H109 C126 0.940 . S
C110 P96 1.812 . S
C110 C111 1.389 . S
C110 C115 1.391 . S
C111 H97 0.941 . S
C111 C110 1.389 . S
C111 C112 1.397 . S
C112 H98 0.939 . S
C112 C111 1.397 . S
C112 C113 1.378 . S
C113 C112 1.378 . S
C113 C114 1.378 . S
C114 H99 0.940 . S
C114 C113 1.378 . S
C114 C115 1.396 . S
C115 H100 0.940 . S
C115 C110 1.391 . S
C115 C114 1.396 . S
C116 P96 1.803 . S
C116 C117 1.378 . S
C116 C121 1.400 . S
C117 H101 0.939 . S
C117 C116 1.378 . S
C117 C118 1.361 . S
C118 H102 0.942 . S
C118 C117 1.361 . S
C118 C119 1.369 . S
C119 C118 1.369 . S
C119 C120 1.404 . S
C120 H103 0.940 . S
C120 C119 1.404 . S
C120 C121 1.389 . S
C121 H104 0.939 . S
C121 C116 1.400 . S
C121 C120 1.389 . S
C122 P96 1.819 . S
C122 C123 1.391 . S
C122 C127 1.391 . S
C123 H105 0.941 . S
C123 C122 1.391 . S
C123 C124 1.396 . S
C124 H108 0.939 . S
C124 C123 1.396 . S
C124 C125 1.397 . S
C125 C124 1.397 . S
C125 C126 1.385 . S
C126 H109 0.940 . S
C126 C125 1.385 . S
C126 C127 1.388 . S
C127 H106 0.939 . S
C127 C122 1.391 . S
C127 C126 1.388 . S
P128 O139 1.490 . S
P128 C142 1.812 . S
P128 C148 1.803 . S
P128 C154 1.819 . S
H129 C143 0.941 . S
H130 C144 0.939 . S
H131 C146 0.940 . S
H132 C147 0.940 . S
H133 C149 0.939 . S
H134 C150 0.942 . S
H135 C152 0.940 . S
H136 C153 0.939 . S
H137 C155 0.941 . S
H138 C159 0.939 . S
O139 P128 1.490 . S
H140 C156 0.939 . S
H141 C158 0.940 . S
C142 P128 1.812 . S
C142 C143 1.389 . S
C142 C147 1.391 1_565 S
C143 H129 0.941 . S
C143 C142 1.389 . S
C143 C144 1.397 1_565 S
C144 H130 0.939 . S
C144 C143 1.397 1_545 S
C144 C145 1.378 . S
C145 C144 1.378 . S
C145 C146 1.378 . S
C146 H131 0.940 . S
C146 C145 1.378 . S
C146 C147 1.396 . S
C147 H132 0.940 . S
C147 C142 1.391 1_545 S
C147 C146 1.396 . S
C148 P128 1.803 . S
C148 C149 1.378 . S
C148 C153 1.400 . S
C149 H133 0.939 . S
C149 C148 1.378 . S
C149 C150 1.361 . S
C150 H134 0.942 . S
C150 C149 1.361 . S
C150 C151 1.369 . S
C151 C150 1.369 . S
C151 C152 1.404 . S
C152 H135 0.940 . S
C152 C151 1.404 . S
C152 C153 1.389 . S
C153 H136 0.939 . S
C153 C148 1.400 . S
C153 C152 1.389 . S
C154 P128 1.819 . S
C154 C155 1.391 . S
C154 C159 1.391 . S
C155 H137 0.941 . S
C155 C154 1.391 . S
C155 C156 1.396 . S
C156 H140 0.939 . S
C156 C155 1.396 . S
C156 C157 1.402 . S
C157 C156 1.402 . S
C157 C158 1.384 1_455 S
C158 H141 0.940 . S
C158 C157 1.384 1_655 S
C158 C159 1.388 1_655 S
C159 H138 0.939 . S
C159 C154 1.391 . S
C159 C158 1.388 1_455 S
P160 O171 1.490 . S
P160 C174 1.812 . S
P160 C180 1.803 . S
P160 C186 1.819 . S
H161 C175 0.941 . S
H162 C176 0.939 . S
H163 C178 0.940 . S
H164 C179 0.940 . S
H165 C181 0.939 . S
H166 C182 0.942 . S
H167 C184 0.940 . S
H168 C185 0.939 . S
H169 C187 0.941 . S
H170 C191 0.939 . S
O171 P160 1.490 . S
H172 C188 0.939 . S
H173 C190 0.940 . S
C174 P160 1.812 . S
C174 C175 1.389 . S
C174 C179 1.391 . S
C175 H161 0.941 . S
C175 C174 1.389 . S
C175 C176 1.397 . S
C176 H162 0.939 . S
C176 C175 1.397 . S
C176 C177 1.378 . S
C177 C176 1.378 . S
C177 C178 1.378 . S
C178 H163 0.940 . S
C178 C177 1.378 . S
C178 C179 1.396 . S
C179 H164 0.940 . S
C179 C174 1.391 . S
C179 C178 1.396 . S
C180 P160 1.803 . S
C180 C181 1.378 . S
C180 C185 1.400 . S
C181 H165 0.939 . S
C181 C180 1.378 . S
C181 C182 1.361 . S
C182 H166 0.942 . S
C182 C181 1.361 . S
C182 C183 1.369 . S
C183 C182 1.369 . S
C183 C184 1.404 . S
C184 H167 0.940 . S
C184 C183 1.404 . S
C184 C185 1.389 . S
C185 H168 0.939 . S
C185 C180 1.400 . S
C185 C184 1.389 . S
C186 P160 1.819 . S
C186 C187 1.391 . S
C186 C191 1.391 . S
C187 H169 0.941 . S
C187 C186 1.391 . S
C187 C188 1.396 . S
C188 H172 0.939 . S
C188 C187 1.396 . S
C188 C189 1.397 . S
C189 C188 1.397 . S
C189 C190 1.385 . S
C190 H173 0.940 . S
C190 C189 1.385 . S
C190 C191 1.388 . S
C191 H170 0.939 . S
C191 C186 1.391 . S
C191 C190 1.388 . S
P192 O203 1.490 1_655 S
P192 C206 1.812 1_655 S
P192 C212 1.803 . S
P192 C218 1.819 . S
H193 C207 0.941 . S
H194 C208 0.939 . S
H195 C210 0.940 . S
H196 C211 0.940 . S
H197 C213 0.939 . S
H198 C214 0.942 . S
H199 C216 0.940 . S
H200 C217 0.939 . S
H201 C219 0.941 . S
H202 C223 0.939 . S
O203 P192 1.490 1_455 S
H204 C220 0.939 . S
H205 C222 0.940 . S
C206 P192 1.812 1_455 S
C206 C207 1.389 . S
C206 C211 1.391 1_455 S
C207 H193 0.941 . S
C207 C206 1.389 . S
C207 C208 1.397 . S
C208 H194 0.939 . S
C208 C207 1.397 . S
C208 C209 1.378 . S
C209 C208 1.378 . S
C209 C210 1.378 1_455 S
C210 H195 0.940 . S
C210 C209 1.378 1_655 S
C210 C211 1.396 . S
C211 H196 0.940 . S
C211 C206 1.391 1_655 S
C211 C210 1.396 . S
C212 P192 1.803 . S
C212 C213 1.378 . S
C212 C217 1.400 . S
C213 H197 0.939 . S
C213 C212 1.378 . S
C213 C214 1.361 . S
C214 H198 0.942 . S
C214 C213 1.361 . S
C214 C215 1.369 . S
C215 C214 1.369 . S
C215 C216 1.404 . S
C216 H199 0.940 . S
C216 C215 1.404 . S
C216 C217 1.389 . S
C217 H200 0.939 . S
C217 C212 1.400 . S
C217 C216 1.389 . S
C218 P192 1.819 . S
C218 C219 1.391 . S
C218 C223 1.391 . S
C219 H201 0.941 . S
C219 C218 1.391 . S
C219 C220 1.396 . S
C220 H204 0.939 . S
C220 C219 1.396 . S
C220 C221 1.397 . S
C221 C220 1.397 . S
C221 C222 1.385 . S
C222 H205 0.940 . S
C222 C221 1.385 . S
C222 C223 1.388 . S
C223 H202 0.939 . S
C223 C218 1.391 . S
C223 C222 1.388 . S
P224 O235 1.490 . S
P224 C238 1.812 . S
P224 C244 1.803 . S
P224 C250 1.819 . S
H225 C239 0.941 . S
H226 C240 0.939 . S
H227 C242 0.940 . S
H228 C243 0.940 . S
H229 C245 0.939 . S
H230 C246 0.942 . S
H231 C248 0.940 . S
H232 C249 0.939 . S
H233 C251 0.941 . S
H234 C255 0.939 . S
O235 P224 1.490 . S
H236 C252 0.939 . S
H237 C254 0.940 . S
C238 P224 1.812 . S
C238 C239 1.389 . S
C238 C243 1.391 . S
C239 H225 0.941 . S
C239 C238 1.389 . S
C239 C240 1.397 . S
C240 H226 0.939 . S
C240 C239 1.397 . S
C240 C241 1.378 . S
C241 C240 1.378 . S
C241 C242 1.378 . S
C242 H227 0.940 . S
C242 C241 1.378 . S
C242 C243 1.396 . S
C243 H228 0.940 . S
C243 C238 1.391 . S
C243 C242 1.396 . S
C244 P224 1.803 . S
C244 C245 1.378 . S
C244 C249 1.400 . S
C245 H229 0.939 . S
C245 C244 1.378 . S
C245 C246 1.361 . S
C246 H230 0.942 . S
C246 C245 1.361 . S
C246 C247 1.369 . S
C247 C246 1.369 . S
C247 C248 1.404 . S
C248 H231 0.940 . S
C248 C247 1.404 . S
C248 C249 1.389 . S
C249 H232 0.939 . S
C249 C244 1.400 . S
C249 C248 1.389 . S
C250 P224 1.819 . S
C250 C251 1.391 . S
C250 C255 1.391 . S
C251 H233 0.941 . S
C251 C250 1.391 . S
C251 C252 1.396 . S
C252 H236 0.939 . S
C252 C251 1.396 . S
C252 C253 1.397 . S
C253 C252 1.397 . S
C253 C254 1.385 . S
C254 H237 0.940 . S
C254 C253 1.385 . S
C254 C255 1.388 . S
C255 H234 0.939 . S
C255 C250 1.391 . S
C255 C254 1.388 . S
P256 O267 1.490 . S
P256 C270 1.812 . S
P256 C276 1.803 . S
P256 C282 1.819 . S
H257 C271 0.941 . S
H258 C272 0.939 . S
H259 C274 0.940 . S
H260 C275 0.940 . S
H261 C277 0.939 . S
H262 C278 0.942 . S
H263 C280 0.940 . S
H264 C281 0.939 . S
H265 C283 0.941 . S
H266 C287 0.939 . S
O267 P256 1.490 . S
H268 C284 0.939 . S
H269 C286 0.940 . S
C270 P256 1.812 . S
C270 C271 1.389 . S
C270 C275 1.391 . S
C271 H257 0.941 . S
C271 C270 1.389 . S
C271 C272 1.397 . S
C272 H258 0.939 . S
C272 C271 1.397 . S
C272 C273 1.378 . S
C273 C272 1.378 . S
C273 C274 1.378 . S
C274 H259 0.940 . S
C274 C273 1.378 . S
C274 C275 1.396 . S
C275 H260 0.940 . S
C275 C270 1.391 . S
C275 C274 1.396 . S
C276 P256 1.803 . S
C276 C277 1.378 . S
C276 C281 1.400 . S
C277 H261 0.939 . S
C277 C276 1.378 . S
C277 C278 1.361 . S
C278 H262 0.942 . S
C278 C277 1.361 . S
C278 C279 1.369 . S
C279 C278 1.369 . S
C279 C280 1.404 . S
C280 H263 0.940 . S
C280 C279 1.404 . S
C280 C281 1.389 . S
C281 H264 0.939 . S
C281 C276 1.400 . S
C281 C280 1.389 . S
C282 P256 1.819 . S
C282 C283 1.391 . S
C282 C287 1.391 . S
C283 H265 0.941 . S
C283 C282 1.391 . S
C283 C284 1.396 . S
C284 H268 0.939 . S
C284 C283 1.396 . S
C284 C285 1.397 . S
C285 C284 1.397 . S
C285 C286 1.385 . S
C286 H269 0.940 . S
C286 C285 1.385 . S
C286 C287 1.388 . S
C287 H266 0.939 . S
C287 C282 1.391 . S
C287 C286 1.388 . S
P288 O299 1.490 1_565 S
P288 C302 1.812 . S
P288 C308 1.803 1_565 S
P288 C314 1.819 . S
H289 C303 0.941 . S
H290 C304 0.939 . S
H291 C306 0.940 . S
H292 C307 0.940 . S
H293 C309 0.939 . S
H294 C310 0.942 . S
H295 C312 0.940 . S
H296 C313 0.939 . S
H297 C315 0.941 . S
H298 C319 0.939 . S
O299 P288 1.490 1_545 S
H300 C316 0.939 . S
H301 C318 0.940 . S
C302 P288 1.812 . S
C302 C303 1.389 . S
C302 C307 1.391 . S
C303 H289 0.941 . S
C303 C302 1.389 . S
C303 C304 1.397 . S
C304 H290 0.939 . S
C304 C303 1.397 . S
C304 C305 1.378 . S
C305 C304 1.378 . S
C305 C306 1.378 . S
C306 H291 0.940 . S
C306 C305 1.378 . S
C306 C307 1.396 . S
C307 H292 0.940 . S
C307 C302 1.391 . S
C307 C306 1.396 . S
C308 P288 1.803 1_545 S
C308 C309 1.378 . S
C308 C313 1.400 1_545 S
C309 H293 0.939 . S
C309 C308 1.378 . S
C309 C310 1.361 . S
C310 H294 0.942 . S
C310 C309 1.361 . S
C310 C311 1.369 . S
C311 C310 1.369 . S
C311 C312 1.404 1_545 S
C312 H295 0.940 . S
C312 C311 1.404 1_565 S
C312 C313 1.389 . S
C313 H296 0.939 . S
C313 C308 1.400 1_565 S
C313 C312 1.389 . S
C314 P288 1.819 . S
C314 C315 1.391 . S
C314 C319 1.391 . S
C315 H297 0.941 . S
C315 C314 1.391 . S
C315 C316 1.396 . S
C316 H300 0.939 . S
C316 C315 1.396 . S
C316 C317 1.397 . S
C317 C316 1.397 . S
C317 C318 1.385 . S
C318 H301 0.940 . S
C318 C317 1.385 . S
C318 C319 1.388 . S
C319 H298 0.939 . S
C319 C314 1.391 . S
C319 C318 1.388 . S
P320 O331 1.490 . S
P320 C334 1.812 . S
P320 C340 1.803 . S
P320 C346 1.819 . S
H321 C335 0.941 . S
H322 C336 0.939 . S
H323 C338 0.940 . S
H324 C339 0.940 . S
H325 C341 0.939 . S
H326 C342 0.942 . S
H327 C344 0.940 . S
H328 C345 0.939 . S
H329 C347 0.941 . S
H330 C351 0.939 . S
O331 P320 1.490 . S
H332 C348 0.939 . S
H333 C350 0.940 . S
C334 P320 1.812 . S
C334 C335 1.389 . S
C334 C339 1.391 . S
C335 H321 0.941 . S
C335 C334 1.389 . S
C335 C336 1.397 . S
C336 H322 0.939 . S
C336 C335 1.397 . S
C336 C337 1.378 . S
C337 C336 1.378 . S
C337 C338 1.378 . S
C338 H323 0.940 . S
C338 C337 1.378 . S
C338 C339 1.396 . S
C339 H324 0.940 . S
C339 C334 1.391 . S
C339 C338 1.396 . S
C340 P320 1.803 . S
C340 C341 1.378 . S
C340 C345 1.400 . S
C341 H325 0.939 . S
C341 C340 1.378 . S
C341 C342 1.361 . S
C342 H326 0.942 . S
C342 C341 1.361 . S
C342 C343 1.369 . S
C343 C342 1.369 . S
C343 C344 1.404 . S
C344 H327 0.940 . S
C344 C343 1.404 . S
C344 C345 1.389 . S
C345 H328 0.939 . S
C345 C340 1.400 . S
C345 C344 1.389 . S
C346 P320 1.819 . S
C346 C347 1.391 . S
C346 C351 1.391 . S
C347 H329 0.941 . S
C347 C346 1.391 . S
C347 C348 1.396 . S
C348 H332 0.939 . S
C348 C347 1.396 . S
C348 C349 1.397 . S
C349 C348 1.397 . S
C349 C350 1.385 . S
C350 H333 0.940 . S
C350 C349 1.385 . S
C350 C351 1.388 . S
C351 H330 0.939 . S
C351 C346 1.391 . S
C351 C350 1.388 . S
P352 O363 1.490 . S
P352 C366 1.812 . S
P352 C372 1.803 . S
P352 C378 1.819 . S
H353 C367 0.941 . S
H354 C368 0.939 . S
H355 C370 0.940 . S
H356 C371 0.940 . S
H357 C373 0.939 . S
H358 C374 0.942 . S
H359 C376 0.940 . S
H360 C377 0.939 . S
H361 C379 0.941 . S
H362 C383 0.939 . S
O363 P352 1.490 . S
H364 C380 0.939 . S
H365 C382 0.940 . S
C366 P352 1.812 . S
C366 C367 1.389 . S
C366 C371 1.391 . S
C367 H353 0.941 . S
C367 C366 1.389 . S
C367 C368 1.397 . S
C368 H354 0.939 . S
C368 C367 1.397 . S
C368 C369 1.378 . S
C369 C368 1.378 . S
C369 C370 1.378 . S
C370 H355 0.940 . S
C370 C369 1.378 . S
C370 C371 1.396 . S
C371 H356 0.940 . S
C371 C366 1.391 . S
C371 C370 1.396 . S
C372 P352 1.803 . S
C372 C373 1.378 . S
C372 C377 1.400 . S
C373 H357 0.939 . S
C373 C372 1.378 . S
C373 C374 1.361 . S
C374 H358 0.942 . S
C374 C373 1.361 . S
C374 C375 1.369 . S
C375 C374 1.369 . S
C375 C376 1.404 . S
C376 H359 0.940 . S
C376 C375 1.404 . S
C376 C377 1.389 . S
C377 H360 0.939 . S
C377 C372 1.400 . S
C377 C376 1.389 . S
C378 P352 1.819 . S
C378 C379 1.391 . S
C378 C383 1.391 . S
C379 H361 0.941 . S
C379 C378 1.391 . S
C379 C380 1.396 . S
C380 H364 0.939 . S
C380 C379 1.396 . S
C380 C381 1.397 . S
C381 C380 1.397 . S
C381 C382 1.385 . S
C382 H365 0.940 . S
C382 C381 1.385 . S
C382 C383 1.388 . S
C383 H362 0.939 . S
C383 C378 1.391 . S
C383 C382 1.388 . S
P384 O395 1.490 . S
P384 C398 1.812 . S
P384 C404 1.803 . S
P384 C410 1.819 . S
H385 C399 0.941 . S
H386 C400 0.939 . S
H387 C402 0.940 . S
H388 C403 0.940 . S
H389 C405 0.939 . S
H390 C406 0.942 . S
H391 C408 0.940 . S
H392 C409 0.939 . S
H393 C411 0.941 . S
H394 C415 0.939 . S
O395 P384 1.490 . S
H396 C412 0.939 . S
H397 C414 0.940 . S
C398 P384 1.812 . S
C398 C399 1.389 . S
C398 C403 1.391 . S
C399 H385 0.941 . S
C399 C398 1.389 . S
C399 C400 1.397 . S
C400 H386 0.939 . S
C400 C399 1.397 . S
C400 C401 1.378 . S
C401 C400 1.378 . S
C401 C402 1.378 . S
C402 H387 0.940 . S
C402 C401 1.378 . S
C402 C403 1.396 . S
C403 H388 0.940 . S
C403 C398 1.391 . S
C403 C402 1.396 . S
C404 P384 1.803 . S
C404 C405 1.378 . S
C404 C409 1.400 . S
C405 H389 0.939 . S
C405 C404 1.378 . S
C405 C406 1.361 . S
C406 H390 0.942 . S
C406 C405 1.361 . S
C406 C407 1.369 . S
C407 C406 1.369 . S
C407 C408 1.404 . S
C408 H391 0.940 . S
C408 C407 1.404 . S
C408 C409 1.389 . S
C409 H392 0.939 . S
C409 C404 1.400 . S
C409 C408 1.389 . S
C410 P384 1.819 . S
C410 C411 1.391 . S
C410 C415 1.391 . S
C411 H393 0.941 . S
C411 C410 1.391 . S
C411 C412 1.396 . S
C412 H396 0.939 . S
C412 C411 1.396 . S
C412 C413 1.397 . S
C413 C412 1.397 . S
C413 C414 1.385 . S
C414 H397 0.940 . S
C414 C413 1.385 . S
C414 C415 1.388 . S
C415 H394 0.939 . S
C415 C410 1.391 . S
C415 C414 1.388 . S
P416 O427 1.490 . S
P416 C430 1.812 . S
P416 C436 1.803 . S
P416 C442 1.819 . S
H417 C431 0.941 . S
H418 C432 0.939 . S
H419 C434 0.940 . S
H420 C435 0.940 . S
H421 C437 0.939 . S
H422 C438 0.948 . S
H423 C440 0.940 . S
H424 C441 0.939 . S
H425 C443 0.941 . S
H426 C447 0.939 . S
O427 P416 1.490 . S
H428 C444 0.939 . S
H429 C446 0.940 . S
C430 P416 1.812 . S
C430 C431 1.389 . S
C430 C435 1.391 . S
C431 H417 0.941 . S
C431 C430 1.389 . S
C431 C432 1.397 . S
C432 H418 0.939 . S
C432 C431 1.397 . S
C432 C433 1.378 . S
C433 C432 1.378 . S
C433 C434 1.378 . S
C434 H419 0.940 . S
C434 C433 1.378 . S
C434 C435 1.396 . S
C435 H420 0.940 . S
C435 C430 1.391 . S
C435 C434 1.396 . S
C436 P416 1.803 . S
C436 C437 1.378 . S
C436 C441 1.400 1_556 S
C437 H421 0.939 . S
C437 C436 1.378 . S
C437 C438 1.392 . S
C438 H422 0.948 . S
C438 C437 1.392 . S
C438 C439 1.333 1_556 S
C439 C438 1.333 1_554 S
C439 C440 1.404 . S
C440 H423 0.940 . S
C440 C439 1.404 . S
C440 C441 1.389 . S
C441 H424 0.939 . S
C441 C436 1.400 1_554 S
C441 C440 1.389 . S
C442 P416 1.819 . S
C442 C443 1.391 . S
C442 C447 1.391 . S
C443 H425 0.941 . S
C443 C442 1.391 . S
C443 C444 1.396 . S
C444 H428 0.939 . S
C444 C443 1.396 . S
C444 C445 1.397 . S
C445 C444 1.397 . S
C445 C446 1.385 . S
C446 H429 0.940 . S
C446 C445 1.385 . S
C446 C447 1.388 . S
C447 H426 0.939 . S
C447 C442 1.391 . S
C447 C446 1.388 . S
P448 O459 1.490 . S
P448 C462 1.812 . S
P448 C468 1.803 . S
P448 C474 1.819 . S
H449 C463 0.941 . S
H450 C464 0.939 . S
H451 C466 0.940 . S
H452 C467 0.940 . S
H453 C469 0.939 . S
H454 C470 0.942 . S
H455 C472 0.940 . S
H456 C473 0.939 . S
H457 C475 0.941 . S
H458 C479 0.939 . S
O459 P448 1.490 . S
H460 C476 0.939 . S
H461 C478 0.940 . S
C462 P448 1.812 . S
C462 C463 1.389 . S
C462 C467 1.391 . S
C463 H449 0.941 . S
C463 C462 1.389 . S
C463 C464 1.397 . S
C464 H450 0.939 . S
C464 C463 1.397 . S
C464 C465 1.378 . S
C465 C464 1.378 . S
C465 C466 1.378 . S
C466 H451 0.940 . S
C466 C465 1.378 . S
C466 C467 1.396 . S
C467 H452 0.940 . S
C467 C462 1.391 . S
C467 C466 1.396 . S
C468 P448 1.803 . S
C468 C469 1.378 . S
C468 C473 1.400 . S
C469 H453 0.939 . S
C469 C468 1.378 . S
C469 C470 1.361 . S
C470 H454 0.942 . S
C470 C469 1.361 . S
C470 C471 1.369 . S
C471 C470 1.369 . S
C471 C472 1.404 . S
C472 H455 0.940 . S
C472 C471 1.404 . S
C472 C473 1.389 . S
C473 H456 0.939 . S
C473 C468 1.400 . S
C473 C472 1.389 . S
C474 P448 1.819 . S
C474 C475 1.391 . S
C474 C479 1.391 . S
C475 H457 0.941 . S
C475 C474 1.391 . S
C475 C476 1.396 . S
C476 H460 0.939 . S
C476 C475 1.396 . S
C476 C477 1.397 . S
C477 C476 1.397 . S
C477 C478 1.385 . S
C478 H461 0.940 . S
C478 C477 1.385 . S
C478 C479 1.388 . S
C479 H458 0.939 . S
C479 C474 1.391 . S
C479 C478 1.388 . S
P480 O491 1.490 1_545 S
P480 C494 1.812 1_554 S
P480 C500 1.803 . S
P480 C506 1.819 1_544 S
H481 C495 0.941 . S
H482 C496 0.939 . S
H483 C498 0.940 . S
H484 C499 0.940 . S
H485 C501 0.939 . S
H486 C502 0.942 . S
H487 C504 0.940 1_556 S
H488 C505 0.939 . S
H489 C507 0.941 . S
H490 C511 0.939 . S
O491 P480 1.490 1_565 S
H492 C508 0.939 . S
H493 C510 0.918 1_545 S
C494 P480 1.812 1_556 S
C494 C495 1.389 . S
C494 C499 1.391 . S
C495 H481 0.941 . S
C495 C494 1.389 . S
C495 C496 1.397 . S
C496 H482 0.939 . S
C496 C495 1.397 . S
C496 C497 1.378 . S
C497 C496 1.378 . S
C497 C498 1.378 . S
C498 H483 0.940 . S
C498 C497 1.378 . S
C498 C499 1.396 . S
C499 H484 0.940 . S
C499 C494 1.391 . S
C499 C498 1.396 . S
C500 P480 1.803 . S
C500 C501 1.378 . S
C500 C505 1.400 1_554 S
C501 H485 0.939 . S
C501 C500 1.378 . S
C501 C502 1.361 . S
C502 H486 0.942 . S
C502 C501 1.361 . S
C502 C503 1.369 . S
C503 C502 1.369 . S
C503 C504 1.404 . S
C504 H487 0.940 1_554 S
C504 C503 1.404 . S
C504 C505 1.389 1_554 S
C505 H488 0.939 . S
C505 C500 1.400 1_556 S
C505 C504 1.389 1_556 S
C506 P480 1.819 1_566 S
C506 C507 1.391 . S
C506 C511 1.391 1_566 S
C507 H489 0.941 . S
C507 C506 1.391 . S
C507 C508 1.396 . S
C508 H492 0.939 . S
C508 C507 1.396 . S
C508 C509 1.397 . S
C509 C508 1.397 . S
C509 C510 1.421 . S
C510 H493 0.918 1_565 S
C510 C509 1.421 . S
C510 C511 1.375 1_566 S
C511 H490 0.939 . S
C511 C506 1.391 1_544 S
C511 C510 1.375 1_544 S
Mg512 O513 2.028 . S
Mg512 O519 1.986 1_554 S
Mg512 O521 2.114 . S
Mg512 O522 2.251 . S
Mg512 O525 2.010 . S
O513 Mg512 2.028 . S
O513 C516 1.248 1_554 S
O514 Mg515 2.028 . S
O514 C516 1.249 . S
Mg515 O514 2.028 . S
Mg515 O520 2.032 . S
Mg515 O522 2.079 1_556 S
C516 O513 1.248 1_556 S
C516 O514 1.249 . S
C517 O518 1.264 . S
C517 O525 1.249 . S
O518 C517 1.264 . S
O519 Mg512 1.986 1_556 S
O519 C523 1.246 . S
O520 Mg515 2.032 . S
O520 C523 1.259 . S
O521 Mg512 2.114 . S
O521 C524 1.252 . S
O522 Mg512 2.251 . S
O522 Mg515 2.079 1_554 S
O522 C524 1.273 . S
C523 O519 1.246 . S
C523 O520 1.259 . S
C524 O521 1.252 . S
C524 O522 1.273 . S
O525 Mg512 2.010 . S
O525 C517 1.249 . S
Mg526 O527 2.028 . S
Mg526 O533 1.986 . S
Mg526 O535 2.114 . S
Mg526 O536 2.251 . S
Mg526 O539 2.010 . S
O527 Mg526 2.028 . S
O527 C530 1.250 . S
O528 Mg529 2.028 . S
O528 C530 1.248 . S
Mg529 O528 2.028 . S
Mg529 O534 2.032 . S
Mg529 O536 2.079 . S
C530 O527 1.250 . S
C530 O528 1.248 . S
C531 O532 1.264 . S
C531 O539 1.249 . S
O532 C531 1.264 . S
O533 Mg526 1.986 . S
O533 C537 1.246 . S
O534 Mg529 2.032 . S
O534 C537 1.259 . S
O535 Mg526 2.114 . S
O535 C538 1.252 . S
O536 Mg526 2.251 . S
O536 Mg529 2.079 . S
O536 C538 1.273 . S
C537 O533 1.246 . S
C537 O534 1.259 . S
C538 O535 1.252 . S
C538 O536 1.273 . S
O539 Mg526 2.010 . S
O539 C531 1.249 . S
Mg540 O541 2.028 . S
Mg540 O547 1.986 1_554 S
Mg540 O549 2.114 . S
Mg540 O550 2.251 . S
Mg540 O553 2.010 . S
O541 Mg540 2.028 . S
O541 C544 1.250 . S
O542 Mg543 2.028 . S
O542 C544 1.248 1_556 S
Mg543 O542 2.028 . S
Mg543 O548 2.032 . S
Mg543 O550 2.079 1_556 S
C544 O541 1.250 . S
C544 O542 1.248 1_554 S
C545 O546 1.264 . S
C545 O553 1.249 . S
O546 C545 1.264 . S
O547 Mg540 1.986 1_556 S
O547 C551 1.246 . S
O548 Mg543 2.032 . S
O548 C551 1.259 . S
O549 Mg540 2.114 . S
O549 C552 1.252 . S
O550 Mg540 2.251 . S
O550 Mg543 2.079 1_554 S
O550 C552 1.273 . S
C551 O547 1.246 . S
C551 O548 1.259 . S
C552 O549 1.252 . S
C552 O550 1.273 . S
O553 Mg540 2.010 . S
O553 C545 1.249 . S
Mg554 O555 2.028 1_545 S
Mg554 O561 1.986 . S
Mg554 O563 2.114 . S
Mg554 O564 2.251 . S
Mg554 O567 2.010 . S
O555 Mg554 2.028 1_565 S
O555 C558 1.250 . S
O556 Mg557 2.028 . S
O556 C558 1.248 . S
Mg557 O556 2.028 . S
Mg557 O562 2.032 . S
Mg557 O564 2.079 1_565 S
C558 O555 1.250 . S
C558 O556 1.248 . S
C559 O560 1.264 . S
C559 O567 1.249 . S
O560 C559 1.264 . S
O561 Mg554 1.986 . S
O561 C565 1.246 . S
O562 Mg557 2.032 . S
O562 C565 1.259 1_565 S
O563 Mg554 2.114 . S
O563 C566 1.252 . S
O564 Mg554 2.251 . S
O564 Mg557 2.079 1_545 S
O564 C566 1.273 . S
C565 O561 1.246 . S
C565 O562 1.259 1_545 S
C566 O563 1.252 . S
C566 O564 1.273 . S
O567 Mg554 2.010 . S
O567 C559 1.249 . S
Mg568 O569 2.028 . S
Mg568 O575 1.986 . S
Mg568 O577 2.114 . S
Mg568 O578 2.251 . S
Mg568 O581 2.010 . S
O569 Mg568 2.028 . S
O569 C572 1.250 . S
O570 Mg571 2.028 . S
O570 C572 1.248 . S
Mg571 O570 2.028 . S
Mg571 O576 2.032 . S
Mg571 O578 2.079 . S
C572 O569 1.250 . S
C572 O570 1.248 . S
C573 O574 1.264 . S
C573 O581 1.249 . S
O574 C573 1.264 . S
O575 Mg568 1.986 . S
O575 C579 1.246 . S
O576 Mg571 2.032 . S
O576 C579 1.259 . S
O577 Mg568 2.114 . S
O577 C580 1.252 . S
O578 Mg568 2.251 . S
O578 Mg571 2.079 . S
O578 C580 1.273 . S
C579 O575 1.246 . S
C579 O576 1.259 . S
C580 O577 1.252 . S
C580 O578 1.273 . S
O581 Mg568 2.010 . S
O581 C573 1.249 . S
Mg582 O583 2.028 . S
Mg582 O589 1.986 . S
Mg582 O591 2.114 . S
Mg582 O592 2.251 . S
Mg582 O595 2.010 . S
O583 Mg582 2.028 . S
O583 C586 1.250 . S
O584 Mg585 2.028 . S
O584 C586 1.248 . S
Mg585 O584 2.028 . S
Mg585 O590 2.032 . S
Mg585 O592 2.079 . S
C586 O583 1.250 . S
C586 O584 1.248 . S
C587 O588 1.264 . S
C587 O595 1.249 . S
O588 C587 1.264 . S
O589 Mg582 1.986 . S
O589 C593 1.246 . S
O590 Mg585 2.032 . S
O590 C593 1.259 . S
O591 Mg582 2.114 . S
O591 C594 1.252 . S
O592 Mg582 2.251 . S
O592 Mg585 2.079 . S
O592 C594 1.273 . S
C593 O589 1.246 . S
C593 O590 1.259 . S
C594 O591 1.252 . S
C594 O592 1.273 . S
O595 Mg582 2.010 . S
O595 C587 1.249 . S
Mg596 O597 2.028 . S
Mg596 O603 1.986 . S
Mg596 O605 2.114 . S
Mg596 O606 2.251 . S
Mg596 O609 2.010 . S
O597 Mg596 2.028 . S
O597 C600 1.250 . S
O598 Mg599 2.028 . S
O598 C600 1.248 . S
Mg599 O598 2.028 . S
Mg599 O604 2.032 . S
Mg599 O606 2.079 . S
C600 O597 1.250 . S
C600 O598 1.248 . S
C601 O602 1.264 . S
C601 O609 1.249 . S
O602 C601 1.264 . S
O603 Mg596 1.986 . S
O603 C607 1.246 . S
O604 Mg599 2.032 . S
O604 C607 1.259 . S
O605 Mg596 2.114 . S
O605 C608 1.252 . S
O606 Mg596 2.251 . S
O606 Mg599 2.079 . S
O606 C608 1.273 . S
C607 O603 1.246 . S
C607 O604 1.259 . S
C608 O605 1.252 . S
C608 O606 1.273 . S
O609 Mg596 2.010 . S
O609 C601 1.249 . S
Mg610 O611 2.028 1_545 S
Mg610 O617 1.986 1_545 S
Mg610 O619 2.114 . S
Mg610 O620 2.251 . S
Mg610 O623 2.010 . S
O611 Mg610 2.028 1_565 S
O611 C614 1.250 . S
O612 Mg613 2.028 . S
O612 C614 1.248 . S
Mg613 O612 2.028 . S
Mg613 O618 2.032 . S
Mg613 O620 2.079 1_565 S
C614 O611 1.250 . S
C614 O612 1.248 . S
C615 O616 1.264 . S
C615 O623 1.249 . S
O616 C615 1.264 . S
O617 Mg610 1.986 1_565 S
O617 C621 1.246 . S
O618 Mg613 2.032 . S
O618 C621 1.259 . S
O619 Mg610 2.114 . S
O619 C622 1.252 . S
O620 Mg610 2.251 . S
O620 Mg613 2.079 1_545 S
O620 C622 1.273 . S
C621 O617 1.246 . S
C621 O618 1.259 . S
C622 O619 1.252 . S
C622 O620 1.273 . S
O623 Mg610 2.010 . S
O623 C615 1.249 . S
Mg624 O625 2.028 . S
Mg624 O631 1.986 . S
Mg624 O633 2.114 . S
Mg624 O634 2.251 . S
Mg624 O637 2.010 . S
O625 Mg624 2.028 . S
O625 C628 1.250 1_455 S
O626 Mg627 2.028 . S
O626 C628 1.248 . S
Mg627 O626 2.028 . S
Mg627 O632 2.032 . S
Mg627 O634 2.079 1_655 S
C628 O625 1.250 1_655 S
C628 O626 1.248 . S
C629 O630 1.264 . S
C629 O637 1.249 . S
O630 C629 1.264 . S
O631 Mg624 1.986 . S
O631 C635 1.246 . S
O632 Mg627 2.032 . S
O632 C635 1.259 1_655 S
O633 Mg624 2.114 . S
O633 C636 1.252 . S
O634 Mg624 2.251 . S
O634 Mg627 2.079 1_455 S
O634 C636 1.273 . S
C635 O631 1.246 . S
C635 O632 1.259 1_455 S
C636 O633 1.252 . S
C636 O634 1.273 . S
O637 Mg624 2.010 . S
O637 C629 1.249 . S
Mg638 O639 2.028 . S
Mg638 O645 1.986 . S
Mg638 O647 2.114 . S
Mg638 O648 2.251 . S
Mg638 O651 2.010 . S
O639 Mg638 2.028 . S
O639 C642 1.250 . S
O640 Mg641 2.028 . S
O640 C642 1.248 . S
Mg641 O640 2.028 . S
Mg641 O646 2.032 . S
Mg641 O648 2.079 . S
C642 O639 1.250 . S
C642 O640 1.248 . S
C643 O644 1.264 . S
C643 O651 1.249 . S
O644 C643 1.264 . S
O645 Mg638 1.986 . S
O645 C649 1.246 . S
O646 Mg641 2.032 . S
O646 C649 1.259 . S
O647 Mg638 2.114 . S
O647 C650 1.252 . S
O648 Mg638 2.251 . S
O648 Mg641 2.079 . S
O648 C650 1.273 . S
C649 O645 1.246 . S
C649 O646 1.259 . S
C650 O647 1.252 . S
C650 O648 1.273 . S
O651 Mg638 2.010 . S
O651 C643 1.249 . S
Mg652 O653 2.028 1_655 S
Mg652 O659 1.994 . S
Mg652 O661 2.114 . S
Mg652 O662 2.251 1_655 S
Mg652 O665 2.010 . S
O653 Mg652 2.028 1_455 S
O653 C656 1.250 . S
O654 Mg655 2.028 . S
O654 C656 1.248 . S
Mg655 O654 2.028 . S
Mg655 O660 2.032 . S
Mg655 O662 2.079 . S
C656 O653 1.250 . S
C656 O654 1.248 . S
C657 O658 1.264 . S
C657 O665 1.249 . S
O658 C657 1.264 . S
O659 Mg652 1.994 . S
O659 C663 1.223 1_655 S
O660 Mg655 2.032 . S
O660 C663 1.259 . S
O661 Mg652 2.114 . S
O661 C664 1.252 . S
O662 Mg652 2.251 1_455 S
O662 Mg655 2.079 . S
O662 C664 1.273 1_455 S
C663 O659 1.223 1_455 S
C663 O660 1.259 . S
C664 O661 1.252 . S
C664 O662 1.273 1_655 S
O665 Mg652 2.010 . S
O665 C657 1.249 . S
Mg666 O667 2.028 . S
Mg666 O673 1.986 . S
Mg666 O675 2.114 . S
Mg666 O676 2.251 . S
Mg666 O679 2.010 . S
O667 Mg666 2.028 . S
O667 C670 1.250 . S
O668 Mg669 2.028 . S
O668 C670 1.248 . S
Mg669 O668 2.028 . S
Mg669 O674 2.032 . S
Mg669 O676 2.079 . S
C670 O667 1.250 . S
C670 O668 1.248 . S
C671 O672 1.264 . S
C671 O679 1.249 . S
O672 C671 1.264 . S
O673 Mg666 1.986 . S
O673 C677 1.246 . S
O674 Mg669 2.032 . S
O674 C677 1.259 . S
O675 Mg666 2.114 . S
O675 C678 1.252 . S
O676 Mg666 2.251 . S
O676 Mg669 2.079 . S
O676 C678 1.273 . S
C677 O673 1.246 . S
C677 O674 1.259 . S
C678 O675 1.252 . S
C678 O676 1.273 . S
O679 Mg666 2.010 . S
O679 C671 1.249 . S
C680 C681 1.363 . S
C680 C686 1.379 . S
C680 N688 1.356 . S
C681 C680 1.363 . S
C681 C687 1.363 . S
C682 C683 1.363 . S
C682 C687 1.379 . S
C682 N689 1.356 . S
C683 C682 1.363 . S
C683 C686 1.363 . S
N684 C686 1.356 . S
N684 H696 0.984 . S
N684 H697 0.985 . S
N685 C687 1.356 . S
N685 H690 0.984 . S
N685 H691 0.985 . S
C686 C680 1.379 . S
C686 C683 1.363 . S
C686 N684 1.356 . S
C687 C681 1.363 . S
C687 C682 1.379 . S
C687 N685 1.356 . S
N688 C680 1.356 . S
N688 H694 0.984 . S
N688 H695 0.984 . S
N689 C682 1.356 . S
N689 H692 0.984 . S
N689 H693 0.985 . S
H690 N685 0.984 . S
H691 N685 0.985 . S
H692 N689 0.984 . S
H693 N689 0.985 . S
H694 N688 0.984 . S
H695 N688 0.984 . S
H696 N684 0.984 . S
H697 N684 0.985 . S
C698 C699 1.363 . S
C698 C704 1.379 . S
C698 N706 1.356 . S
C699 C698 1.363 . S
C699 C705 1.363 . S
C700 C701 1.363 . S
C700 C705 1.379 . S
C700 N707 1.356 . S
C701 C700 1.363 . S
C701 C704 1.363 . S
N702 C704 1.356 . S
N702 H714 0.984 . S
N702 H715 0.985 . S
N703 C705 1.356 . S
N703 H708 0.984 . S
N703 H709 0.985 . S
C704 C698 1.379 . S
C704 C701 1.363 . S
C704 N702 1.356 . S
C705 C699 1.363 . S
C705 C700 1.379 . S
C705 N703 1.356 . S
N706 C698 1.356 . S
N706 H712 0.984 . S
N706 H713 0.984 . S
N707 C700 1.356 . S
N707 H710 0.984 . S
N707 H711 0.985 . S
H708 N703 0.984 . S
H709 N703 0.985 . S
H710 N707 0.984 . S
H711 N707 0.985 . S
H712 N706 0.984 . S
H713 N706 0.984 . S
H714 N702 0.984 . S
H715 N702 0.985 . S
C716 C717 1.363 . S
C716 C722 1.379 . S
C716 N724 1.356 . S
C717 C716 1.363 . S
C717 C723 1.363 . S
C718 C719 1.363 . S
C718 C723 1.379 . S
C718 N725 1.356 . S
C719 C718 1.363 . S
C719 C722 1.363 . S
N720 C722 1.356 . S
N720 H732 0.984 . S
N720 H733 0.985 . S
N721 C723 1.356 . S
N721 H726 0.984 . S
N721 H727 0.985 . S
C722 C716 1.379 . S
C722 C719 1.363 . S
C722 N720 1.356 . S
C723 C717 1.363 . S
C723 C718 1.379 . S
C723 N721 1.356 . S
N724 C716 1.356 . S
N724 H730 0.984 . S
N724 H731 0.984 . S
N725 C718 1.356 . S
N725 H728 0.984 . S
N725 H729 0.985 . S
H726 N721 0.984 . S
H727 N721 0.985 . S
H728 N725 0.984 . S
H729 N725 0.985 . S
H730 N724 0.984 . S
H731 N724 0.984 . S
H732 N720 0.984 . S
H733 N720 0.985 . S
C734 C735 1.363 . S
C734 C740 1.379 . S
C734 N742 1.356 . S
C735 C734 1.363 . S
C735 C741 1.363 1_565 S
C736 C737 1.363 . S
C736 C741 1.379 . S
C736 N743 1.356 . S
C737 C736 1.363 . S
C737 C740 1.363 1_545 S
N738 C740 1.356 . S
N738 H750 0.984 . S
N738 H751 0.985 . S
N739 C741 1.356 . S
N739 H744 0.984 . S
N739 H745 0.985 . S
C740 C734 1.379 . S
C740 C737 1.363 1_565 S
C740 N738 1.356 . S
C741 C735 1.363 1_545 S
C741 C736 1.379 . S
C741 N739 1.356 . S
N742 C734 1.356 . S
N742 H748 0.984 . S
N742 H749 1.000 . S
N743 C736 1.356 . S
N743 H746 0.984 . S
N743 H747 0.985 . S
H744 N739 0.984 . S
H745 N739 0.985 . S
H746 N743 0.984 . S
H747 N743 0.985 . S
H748 N742 0.984 . S
H749 N742 1.000 . S
H750 N738 0.984 . S
H751 N738 0.985 . S
C752 C753 1.363 . S
C752 C758 1.379 . S
C752 N760 1.356 . S
C753 C752 1.363 . S
C753 C759 1.363 . S
C754 C755 1.363 . S
C754 C759 1.379 . S
C754 N761 1.356 . S
C755 C754 1.363 . S
C755 C758 1.363 . S
N756 C758 1.356 . S
N756 H768 0.984 . S
N756 H769 0.985 . S
N757 C759 1.356 . S
N757 H762 0.984 . S
N757 H763 0.985 . S
C758 C752 1.379 . S
C758 C755 1.363 . S
C758 N756 1.356 . S
C759 C753 1.363 . S
C759 C754 1.379 . S
C759 N757 1.356 . S
N760 C752 1.356 . S
N760 H766 0.984 . S
N760 H767 0.984 . S
N761 C754 1.356 . S
N761 H764 0.984 . S
N761 H765 0.985 . S
H762 N757 0.984 . S
H763 N757 0.985 . S
H764 N761 0.984 . S
H765 N761 0.985 . S
H766 N760 0.984 . S
H767 N760 0.984 . S
H768 N756 0.984 . S
H769 N756 0.985 . S
C770 C771 1.363 . S
C770 C776 1.379 . S
C770 N778 1.356 . S
C771 C770 1.363 . S
C771 C777 1.363 . S
C772 C773 1.363 . S
C772 C777 1.379 . S
C772 N779 1.356 . S
C773 C772 1.363 . S
C773 C776 1.363 . S
N774 C776 1.356 . S
N774 H786 0.984 . S
N774 H787 0.985 . S
N775 C777 1.356 . S
N775 H780 0.984 . S
N775 H781 0.985 . S
C776 C770 1.379 . S
C776 C773 1.363 . S
C776 N774 1.356 . S
C777 C771 1.363 . S
C777 C772 1.379 . S
C777 N775 1.356 . S
N778 C770 1.356 . S
N778 H784 0.984 . S
N778 H785 0.984 . S
N779 C772 1.356 . S
N779 H782 0.984 . S
N779 H783 0.985 . S
H780 N775 0.984 . S
H781 N775 0.985 . S
H782 N779 0.984 . S
H783 N779 0.985 . S
H784 N778 0.984 . S
H785 N778 0.984 . S
H786 N774 0.984 . S
H787 N774 0.985 . S
C788 C789 1.363 . S
C788 C794 1.379 . S
C788 N796 1.356 . S
C789 C788 1.363 . S
C789 C795 1.363 . S
C790 C791 1.363 . S
C790 C795 1.379 . S
C790 N797 1.356 . S
C791 C790 1.363 . S
C791 C794 1.363 . S
N792 C794 1.356 . S
N792 H804 0.984 . S
N792 H805 0.985 . S
N793 C795 1.356 . S
N793 H798 0.984 . S
N793 H799 0.985 . S
C794 C788 1.379 . S
C794 C791 1.363 . S
C794 N792 1.356 . S
C795 C789 1.363 . S
C795 C790 1.379 . S
C795 N793 1.356 . S
N796 C788 1.356 . S
N796 H802 0.984 . S
N796 H803 0.984 . S
N797 C790 1.356 . S
N797 H800 0.984 . S
N797 H801 0.985 . S
H798 N793 0.984 . S
H799 N793 0.985 . S
H800 N797 0.984 . S
H801 N797 0.985 . S
H802 N796 0.984 . S
H803 N796 0.984 . S
H804 N792 0.984 . S
H805 N792 0.985 . S
C806 C807 1.363 1_545 S
C806 C812 1.379 . S
C806 N814 1.356 . S
C807 C806 1.363 1_565 S
C807 C813 1.363 . S
C808 C809 1.363 . S
C808 C813 1.379 . S
C808 N815 1.356 . S
C809 C808 1.363 . S
C809 C812 1.363 1_565 S
N810 C812 1.356 . S
N810 H822 0.984 . S
N810 H823 0.985 . S
N811 C813 1.356 . S
N811 H816 0.984 . S
N811 H817 0.985 . S
C812 C806 1.379 . S
C812 C809 1.363 1_545 S
C812 N810 1.356 . S
C813 C807 1.363 . S
C813 C808 1.379 . S
C813 N811 1.356 . S
N814 C806 1.356 . S
N814 H820 0.984 . S
N814 H821 0.984 . S
N815 C808 1.356 . S
N815 H818 0.984 . S
N815 H819 0.985 . S
H816 N811 0.984 . S
H817 N811 0.985 . S
H818 N815 0.984 . S
H819 N815 0.985 . S
H820 N814 0.984 . S
H821 N814 0.984 . S
H822 N810 0.984 . S
H823 N810 0.985 . S
C824 C825 1.363 . S
C824 C830 1.379 . S
C824 N832 1.356 . S
C825 C824 1.363 . S
C825 C831 1.363 . S
C826 C827 1.363 . S
C826 C831 1.379 . S
C826 N833 1.356 . S
C827 C826 1.363 . S
C827 C830 1.363 . S
N828 C830 1.356 . S
N828 H840 0.984 . S
N828 H841 0.985 . S
N829 C831 1.356 . S
N829 H834 0.984 . S
N829 H835 0.985 . S
C830 C824 1.379 . S
C830 C827 1.363 . S
C830 N828 1.356 . S
C831 C825 1.363 . S
C831 C826 1.379 . S
C831 N829 1.356 . S
N832 C824 1.356 . S
N832 H838 0.984 . S
N832 H839 0.984 . S
N833 C826 1.356 . S
N833 H836 0.984 . S
N833 H837 0.985 . S
H834 N829 0.984 . S
H835 N829 0.985 . S
H836 N833 0.984 . S
H837 N833 0.985 . S
H838 N832 0.984 . S
H839 N832 0.984 . S
H840 N828 0.984 . S
H841 N828 0.985 . S
C842 C843 1.363 . S
C842 C848 1.379 . S
C842 N850 1.356 . S
C843 C842 1.363 . S
C843 C849 1.363 . S
C844 C845 1.363 . S
C844 C849 1.379 . S
C844 N851 1.356 . S
C845 C844 1.363 . S
C845 C848 1.363 . S
N846 C848 1.356 . S
N846 H858 0.984 . S
N846 H859 0.985 . S
N847 C849 1.356 . S
N847 H852 0.984 . S
N847 H853 0.985 . S
C848 C842 1.379 . S
C848 C845 1.363 . S
C848 N846 1.356 . S
C849 C843 1.363 . S
C849 C844 1.379 . S
C849 N847 1.356 . S
N850 C842 1.356 . S
N850 H856 0.984 . S
N850 H857 0.984 . S
N851 C844 1.356 . S
N851 H854 0.984 . S
N851 H855 0.985 . S
H852 N847 0.984 . S
H853 N847 0.985 . S
H854 N851 0.984 . S
H855 N851 0.985 . S
H856 N850 0.984 . S
H857 N850 0.984 . S
H858 N846 0.984 . S
H859 N846 0.985 . S
C860 C861 1.363 . S
C860 C866 1.379 . S
C860 N868 1.356 . S
C861 C860 1.363 . S
C861 C867 1.363 . S
C862 C863 1.363 . S
C862 C867 1.379 . S
C862 N869 1.356 . S
C863 C862 1.363 . S
C863 C866 1.363 . S
N864 C866 1.356 . S
N864 H876 0.984 . S
N864 H877 0.985 . S
N865 C867 1.356 . S
N865 H870 0.984 . S
N865 H871 0.985 . S
C866 C860 1.379 . S
C866 C863 1.363 . S
C866 N864 1.356 . S
C867 C861 1.363 . S
C867 C862 1.379 . S
C867 N865 1.356 . S
N868 C860 1.356 . S
N868 H874 0.984 . S
N868 H875 0.984 . S
N869 C862 1.356 . S
N869 H872 0.984 . S
N869 H873 0.985 . S
H870 N865 0.984 . S
H871 N865 0.985 . S
H872 N869 0.984 . S
H873 N869 0.985 . S
H874 N868 0.984 . S
H875 N868 0.984 . S
H876 N864 0.984 . S
H877 N864 0.985 . S
C878 C879 1.363 . S
C878 C884 1.379 . S
C878 N886 1.356 . S
C879 C878 1.363 . S
C879 C885 1.363 . S
C880 C881 1.363 . S
C880 C885 1.379 . S
C880 N887 1.356 . S
C881 C880 1.363 . S
C881 C884 1.363 . S
N882 C884 1.356 . S
N882 H894 0.984 . S
N882 H895 0.985 . S
N883 C885 1.356 . S
N883 H888 0.984 . S
N883 H889 0.985 . S
C884 C878 1.379 . S
C884 C881 1.363 . S
C884 N882 1.356 . S
C885 C879 1.363 . S
C885 C880 1.379 . S
C885 N883 1.356 . S
N886 C878 1.356 . S
N886 H892 0.984 . S
N886 H893 0.984 . S
N887 C880 1.356 . S
N887 H890 0.984 . S
N887 H891 0.985 . S
H888 N883 0.984 . S
H889 N883 0.985 . S
H890 N887 0.984 . S
H891 N887 0.985 . S
H892 N886 0.984 . S
H893 N886 0.984 . S
H894 N882 0.984 . S
H895 N882 0.985 . S
C896 C897 1.363 . S
C896 C902 1.379 . S
C896 N904 1.356 . S
C897 C896 1.363 . S
C897 C903 1.363 . S
C898 C899 1.363 . S
C898 C903 1.379 . S
C898 N905 1.356 . S
C899 C898 1.363 . S
C899 C902 1.363 . S
N900 C902 1.356 . S
N900 H912 0.984 . S
N900 H913 0.985 . S
N901 C903 1.356 . S
N901 H906 0.984 . S
N901 H907 0.985 . S
C902 C896 1.379 . S
C902 C899 1.363 . S
C902 N900 1.356 . S
C903 C897 1.363 . S
C903 C898 1.379 . S
C903 N901 1.356 . S
N904 C896 1.356 . S
N904 H910 0.984 . S
N904 H911 0.984 . S
N905 C898 1.356 . S
N905 H908 0.984 . S
N905 H909 0.985 . S
H906 N901 0.984 . S
H907 N901 0.985 . S
H908 N905 0.984 . S
H909 N905 0.985 . S
H910 N904 0.984 . S
H911 N904 0.984 . S
H912 N900 0.984 . S
H913 N900 0.985 . S
C914 C915 1.363 . S
C914 C920 1.379 . S
C914 N922 1.356 . S
C915 C914 1.363 . S
C915 C921 1.363 . S
C916 C917 1.363 . S
C916 C921 1.379 . S
C916 N923 1.356 1_455 S
C917 C916 1.363 . S
C917 C920 1.363 . S
N918 C920 1.356 . S
N918 H930 0.984 . S
N918 H931 0.985 . S
N919 C921 1.356 1_655 S
N919 H924 0.984 1_655 S
N919 H925 0.985 . S
C920 C914 1.379 . S
C920 C917 1.363 . S
C920 N918 1.356 . S
C921 C915 1.363 . S
C921 C916 1.379 . S
C921 N919 1.356 1_455 S
N922 C914 1.356 . S
N922 H928 0.984 . S
N922 H929 0.984 . S
N923 C916 1.356 1_655 S
N923 H926 0.984 . S
N923 H927 0.985 . S
H924 N919 0.984 1_455 S
H925 N919 0.985 . S
H926 N923 0.984 . S
H927 N923 0.985 . S
H928 N922 0.984 . S
H929 N922 0.984 . S
H930 N918 0.984 . S
H931 N918 0.985 . S
C932 C933 1.363 . S
C932 C938 1.379 . S
C932 N940 1.356 . S
C933 C932 1.363 . S
C933 C939 1.363 . S
C934 C935 1.363 . S
C934 C939 1.379 . S
C934 N941 1.356 . S
C935 C934 1.363 . S
C935 C938 1.363 . S
N936 C938 1.356 . S
N936 H948 0.984 . S
N936 H949 0.985 . S
N937 C939 1.356 . S
N937 H942 0.984 . S
N937 H943 0.985 . S
C938 C932 1.379 . S
C938 C935 1.363 . S
C938 N936 1.356 . S
C939 C933 1.363 . S
C939 C934 1.379 . S
C939 N937 1.356 . S
N940 C932 1.356 . S
N940 H946 0.984 . S
N940 H947 0.984 . S
N941 C934 1.356 . S
N941 H944 0.984 . S
N941 H945 0.985 . S
H942 N937 0.984 . S
H943 N937 0.985 . S
H944 N941 0.984 . S
H945 N941 0.985 . S
H946 N940 0.984 . S
H947 N940 0.984 . S
H948 N936 0.984 . S
H949 N936 0.985 . S
C950 C951 1.363 . S
C950 C956 1.379 1_655 S
C950 N958 1.356 1_655 S
C951 C950 1.363 . S
C951 C957 1.363 . S
C952 C953 1.363 . S
C952 C957 1.379 . S
C952 N959 1.356 . S
C953 C952 1.363 . S
C953 C956 1.357 1_655 S
N954 C956 1.361 . S
N954 H966 0.984 . S
N954 H967 0.985 . S
N955 C957 1.356 . S
N955 H960 0.984 . S
N955 H961 0.985 . S
C956 C950 1.379 1_455 S
C956 C953 1.357 1_455 S
C956 N954 1.361 . S
C957 C951 1.363 . S
C957 C952 1.379 . S
C957 N955 1.356 . S
N958 C950 1.356 1_455 S
N958 H964 0.984 . S
N958 H965 0.984 1_455 S
N959 C952 1.356 . S
N959 H962 0.984 . S
N959 H963 0.985 . S
H960 N955 0.984 . S
H961 N955 0.985 . S
H962 N959 0.984 . S
H963 N959 0.985 . S
H964 N958 0.984 . S
H965 N958 0.984 1_655 S
H966 N954 0.984 . S
H967 N954 0.985 . S
C968 C969 1.363 . S
C968 C974 1.379 . S
C968 N976 1.356 . S
C969 C968 1.363 . S
C969 C975 1.363 . S
C970 C971 1.363 . S
C970 C975 1.379 . S
C970 N977 1.356 . S
C971 C970 1.363 . S
C971 C974 1.363 . S
N972 C974 1.356 . S
N972 H984 0.984 . S
N972 H985 0.985 . S
N973 C975 1.356 . S
N973 H978 0.984 . S
N973 H979 0.985 . S
C974 C968 1.379 . S
C974 C971 1.363 . S
C974 N972 1.356 . S
C975 C969 1.363 . S
C975 C970 1.379 . S
C975 N973 1.356 . S
N976 C968 1.356 . S
N976 H982 0.984 . S
N976 H983 0.984 . S
N977 C970 1.356 . S
N977 H980 0.984 . S
N977 H981 0.985 . S
H978 N973 0.984 . S
H979 N973 0.985 . S
H980 N977 0.984 . S
H981 N977 0.985 . S
H982 N976 0.984 . S
H983 N976 0.984 . S
H984 N972 0.984 . S
H985 N972 0.985 . S
C986 C987 1.363 . S
C986 C992 1.379 . S
C986 N994 1.356 . S
C987 C986 1.363 . S
C987 C993 1.363 . S
C988 C989 1.363 . S
C988 C993 1.379 . S
C988 N995 1.356 . S
C989 C988 1.363 . S
C989 C992 1.363 . S
N990 C992 1.356 . S
N990 H1002 0.984 . S
N990 H1003 0.985 . S
N991 C993 1.356 . S
N991 H996 0.984 . S
N991 H997 0.985 . S
C992 C986 1.379 . S
C992 C989 1.363 . S
C992 N990 1.356 . S
C993 C987 1.363 . S
C993 C988 1.379 . S
C993 N991 1.356 . S
N994 C986 1.356 . S
N994 H1000 0.984 . S
N994 H1001 0.984 . S
N995 C988 1.356 . S
N995 H998 0.984 . S
N995 H999 0.985 . S
H996 N991 0.984 . S
H997 N991 0.985 . S
H998 N995 0.984 . S
H999 N995 0.985 . S
H1000 N994 0.984 . S
H1001 N994 0.984 . S
H1002 N990 0.984 . S
H1003 N990 0.985 . S
C1004 C1005 1.363 . S
C1004 C1010 1.379 . S
C1004 N1012 1.356 . S
C1005 C1004 1.363 . S
C1005 C1011 1.363 1_556 S
C1006 C1007 1.363 1_554 S
C1006 C1011 1.379 . S
C1006 N1013 1.356 . S
C1007 C1006 1.363 1_556 S
C1007 C1010 1.363 . S
N1008 C1010 1.356 . S
N1008 H1020 0.984 . S
N1008 H1021 0.985 . S
N1009 C1011 1.356 . S
N1009 H1014 0.984 . S
N1009 H1015 0.985 . S
C1010 C1004 1.379 . S
C1010 C1007 1.363 . S
C1010 N1008 1.356 . S
C1011 C1005 1.363 1_554 S
C1011 C1006 1.379 . S
C1011 N1009 1.356 . S
N1012 C1004 1.356 . S
N1012 H1018 0.984 . S
N1012 H1019 0.984 . S
N1013 C1006 1.356 . S
N1013 H1016 0.984 . S
N1013 H1017 0.985 . S
H1014 N1009 0.984 . S
H1015 N1009 0.985 . S
H1016 N1013 0.984 . S
H1017 N1013 0.985 . S
H1018 N1012 0.984 . S
H1019 N1012 0.984 . S
H1020 N1008 0.984 . S
H1021 N1008 0.985 . S
C1022 C1023 1.363 . S
C1022 C1028 1.379 . S
C1022 N1030 1.356 . S
C1023 C1022 1.363 . S
C1023 C1029 1.363 . S
C1024 C1025 1.363 . S
C1024 C1029 1.379 . S
C1024 N1031 1.356 . S
C1025 C1024 1.363 . S
C1025 C1028 1.363 . S
N1026 C1028 1.356 . S
N1026 H1038 0.984 . S
N1026 H1039 0.985 . S
N1027 C1029 1.356 . S
N1027 H1032 0.984 . S
N1027 H1033 0.985 . S
C1028 C1022 1.379 . S
C1028 C1025 1.363 . S
C1028 N1026 1.356 . S
C1029 C1023 1.363 . S
C1029 C1024 1.379 . S
C1029 N1027 1.356 . S
N1030 C1022 1.356 . S
N1030 H1036 0.984 . S
N1030 H1037 0.984 . S
N1031 C1024 1.356 . S
N1031 H1034 0.984 . S
N1031 H1035 0.985 . S
H1032 N1027 0.984 . S
H1033 N1027 0.985 . S
H1034 N1031 0.984 . S
H1035 N1031 0.985 . S
H1036 N1030 0.984 . S
H1037 N1030 0.984 . S
H1038 N1026 0.984 . S
H1039 N1026 0.985 . S
C1040 C1041 1.363 . S
C1040 C1046 1.379 . S
C1040 N1048 1.356 . S
C1041 C1040 1.363 . S
C1041 C1047 1.363 . S
C1042 C1043 1.363 . S
C1042 C1047 1.379 . S
C1042 N1049 1.356 . S
C1043 C1042 1.363 . S
C1043 C1046 1.363 . S
N1044 C1046 1.356 . S
N1044 H1056 0.984 . S
N1044 H1057 0.985 . S
N1045 C1047 1.356 . S
N1045 H1050 0.984 . S
N1045 H1051 0.985 . S
C1046 C1040 1.379 . S
C1046 C1043 1.363 . S
C1046 N1044 1.356 . S
C1047 C1041 1.363 . S
C1047 C1042 1.379 . S
C1047 N1045 1.356 . S
N1048 C1040 1.356 . S
N1048 H1054 0.984 . S
N1048 H1055 0.984 . S
N1049 C1042 1.356 . S
N1049 H1052 0.984 . S
N1049 H1053 0.985 . S
H1050 N1045 0.984 . S
H1051 N1045 0.985 . S
H1052 N1049 0.984 . S
H1053 N1049 0.985 . S
H1054 N1048 0.984 . S
H1055 N1048 0.984 . S
H1056 N1044 0.984 . S
H1057 N1044 0.985 . S
C1058 C1059 1.363 . S
C1058 C1064 1.379 . S
C1058 N1066 1.356 . S
C1059 C1058 1.363 . S
C1059 C1065 1.363 . S
C1060 C1061 1.363 . S
C1060 C1065 1.379 . S
C1060 N1067 1.356 . S
C1061 C1060 1.363 . S
C1061 C1064 1.363 . S
N1062 C1064 1.356 . S
N1062 H1074 0.984 . S
N1062 H1075 0.985 . S
N1063 C1065 1.356 . S
N1063 H1068 0.984 . S
N1063 H1069 0.985 . S
C1064 C1058 1.379 . S
C1064 C1061 1.363 . S
C1064 N1062 1.356 . S
C1065 C1059 1.363 . S
C1065 C1060 1.379 . S
C1065 N1063 1.356 . S
N1066 C1058 1.356 . S
N1066 H1072 0.984 . S
N1066 H1073 0.984 . S
N1067 C1060 1.356 . S
N1067 H1070 0.984 . S
N1067 H1071 0.985 . S
H1068 N1063 0.984 . S
H1069 N1063 0.985 . S
H1070 N1067 0.984 . S
H1071 N1067 0.985 . S
H1072 N1066 0.984 . S
H1073 N1066 0.984 . S
H1074 N1062 0.984 . S
H1075 N1062 0.985 . S
C1076 C1077 1.363 . S
C1076 C1082 1.379 . S
C1076 N1084 1.356 . S
C1077 C1076 1.363 . S
C1077 C1083 1.363 . S
C1078 C1079 1.363 . S
C1078 C1083 1.379 . S
C1078 N1085 1.356 . S
C1079 C1078 1.363 . S
C1079 C1082 1.363 . S
N1080 C1082 1.356 . S
N1080 H1092 0.984 . S
N1080 H1093 0.985 . S
N1081 C1083 1.356 . S
N1081 H1086 0.984 . S
N1081 H1087 0.985 . S
C1082 C1076 1.379 . S
C1082 C1079 1.363 . S
C1082 N1080 1.356 . S
C1083 C1077 1.363 . S
C1083 C1078 1.379 . S
C1083 N1081 1.356 . S
N1084 C1076 1.356 . S
N1084 H1090 0.984 . S
N1084 H1091 0.984 . S
N1085 C1078 1.356 . S
N1085 H1088 0.984 . S
N1085 H1089 0.985 . S
H1086 N1081 0.984 . S
H1087 N1081 0.985 . S
H1088 N1085 0.984 . S
H1089 N1085 0.985 . S
H1090 N1084 0.984 . S
H1091 N1084 0.984 . S
H1092 N1080 0.984 . S
H1093 N1080 0.985 . S
C1094 C1095 1.363 . S
C1094 C1100 1.379 . S
C1094 N1102 1.356 . S
C1095 C1094 1.363 . S
C1095 C1101 1.363 . S
C1096 C1097 1.363 . S
C1096 C1101 1.379 . S
C1096 N1103 1.356 . S
C1097 C1096 1.363 . S
C1097 C1100 1.363 . S
N1098 C1100 1.356 . S
N1098 H1110 0.984 . S
N1098 H1111 0.985 . S
N1099 C1101 1.356 . S
N1099 H1104 0.984 . S
N1099 H1105 0.985 . S
C1100 C1094 1.379 . S
C1100 C1097 1.363 . S
C1100 N1098 1.356 . S
C1101 C1095 1.363 . S
C1101 C1096 1.379 . S
C1101 N1099 1.356 . S
N1102 C1094 1.356 . S
N1102 H1108 0.984 . S
N1102 H1109 0.984 . S
N1103 C1096 1.356 . S
N1103 H1106 0.984 . S
N1103 H1107 0.985 . S
H1104 N1099 0.984 . S
H1105 N1099 0.985 . S
H1106 N1103 0.984 . S
H1107 N1103 0.985 . S
H1108 N1102 0.984 . S
H1109 N1102 0.984 . S
H1110 N1098 0.984 . S
H1111 N1098 0.985 . S
C1112 C1113 1.363 . S
C1112 C1118 1.379 . S
C1112 N1120 1.356 . S
C1113 C1112 1.363 . S
C1113 C1119 1.363 . S
C1114 C1115 1.363 . S
C1114 C1119 1.379 . S
C1114 N1121 1.356 . S
C1115 C1114 1.363 . S
C1115 C1118 1.363 . S
N1116 C1118 1.356 . S
N1116 H1128 0.984 . S
N1116 H1129 0.985 . S
N1117 C1119 1.356 . S
N1117 H1122 0.984 . S
N1117 H1123 0.985 . S
C1118 C1112 1.379 . S
C1118 C1115 1.363 . S
C1118 N1116 1.356 . S
C1119 C1113 1.363 . S
C1119 C1114 1.379 . S
C1119 N1117 1.356 . S
N1120 C1112 1.356 . S
N1120 H1126 0.984 . S
N1120 H1127 0.984 . S
N1121 C1114 1.356 . S
N1121 H1124 0.984 . S
N1121 H1125 0.985 . S
H1122 N1117 0.984 . S
H1123 N1117 0.985 . S
H1124 N1121 0.984 . S
H1125 N1121 0.985 . S
H1126 N1120 0.984 . S
H1127 N1120 0.984 . S
H1128 N1116 0.984 . S
H1129 N1116 0.985 . S
C1130 C1131 1.363 1_565 S
C1130 C1136 1.379 . S
C1130 N1138 1.356 . S
C1131 C1130 1.363 1_545 S
C1131 C1137 1.363 . S
C1132 C1133 1.363 . S
C1132 C1137 1.379 . S
C1132 N1139 1.356 . S
C1133 C1132 1.363 . S
C1133 C1136 1.363 1_545 S
N1134 C1136 1.356 . S
N1134 H1146 0.984 . S
N1134 H1147 0.985 . S
N1135 C1137 1.356 . S
N1135 H1140 0.984 . S
N1135 H1141 0.985 . S
C1136 C1130 1.379 . S
C1136 C1133 1.363 1_565 S
C1136 N1134 1.356 . S
C1137 C1131 1.363 . S
C1137 C1132 1.379 . S
C1137 N1135 1.356 . S
N1138 C1130 1.356 . S
N1138 H1144 0.984 . S
N1138 H1145 0.984 . S
N1139 C1132 1.356 . S
N1139 H1142 0.984 . S
N1139 H1143 0.985 . S
H1140 N1135 0.984 . S
H1141 N1135 0.985 . S
H1142 N1139 0.984 . S
H1143 N1139 0.985 . S
H1144 N1138 0.984 . S
H1145 N1138 0.984 . S
H1146 N1134 0.984 . S
H1147 N1134 0.985 . S
C1148 C1149 1.363 . S
C1148 C1154 1.379 . S
C1148 N1156 1.356 . S
C1149 C1148 1.363 . S
C1149 C1155 1.363 . S
C1150 C1151 1.363 . S
C1150 C1155 1.379 . S
C1150 N1157 1.356 . S
C1151 C1150 1.363 . S
C1151 C1154 1.363 . S
N1152 C1154 1.356 . S
N1152 H1164 0.984 . S
N1152 H1165 0.985 . S
N1153 C1155 1.356 . S
N1153 H1158 0.984 . S
N1153 H1159 0.985 . S
C1154 C1148 1.379 . S
C1154 C1151 1.363 . S
C1154 N1152 1.356 . S
C1155 C1149 1.363 . S
C1155 C1150 1.379 . S
C1155 N1153 1.356 . S
N1156 C1148 1.356 . S
N1156 H1162 0.984 . S
N1156 H1163 0.984 . S
N1157 C1150 1.356 . S
N1157 H1160 0.984 . S
N1157 H1161 0.985 . S
H1158 N1153 0.984 . S
H1159 N1153 0.985 . S
H1160 N1157 0.984 . S
H1161 N1157 0.985 . S
H1162 N1156 0.984 . S
H1163 N1156 0.984 . S
H1164 N1152 0.984 . S
H1165 N1152 0.985 . S
C1166 C1167 1.363 . S
C1166 C1172 1.379 . S
C1166 N1174 1.356 . S
C1167 C1166 1.363 . S
C1167 C1173 1.363 . S
C1168 C1169 1.363 . S
C1168 C1173 1.379 . S
C1168 N1175 1.356 . S
C1169 C1168 1.363 . S
C1169 C1172 1.363 . S
N1170 C1172 1.356 . S
N1170 H1182 0.984 . S
N1170 H1183 0.985 . S
N1171 C1173 1.356 . S
N1171 H1176 0.984 . S
N1171 H1177 0.985 . S
C1172 C1166 1.379 . S
C1172 C1169 1.363 . S
C1172 N1170 1.356 . S
C1173 C1167 1.363 . S
C1173 C1168 1.379 . S
C1173 N1171 1.356 . S
N1174 C1166 1.356 . S
N1174 H1180 0.984 . S
N1174 H1181 0.984 . S
N1175 C1168 1.356 . S
N1175 H1178 0.984 . S
N1175 H1179 0.985 . S
H1176 N1171 0.984 . S
H1177 N1171 0.985 . S
H1178 N1175 0.984 . S
H1179 N1175 0.985 . S
H1180 N1174 0.984 . S
H1181 N1174 0.984 . S
H1182 N1170 0.984 . S
H1183 N1170 0.985 . S
C1184 C1185 1.363 . S
C1184 C1190 1.379 . S
C1184 N1192 1.356 . S
C1185 C1184 1.363 . S
C1185 C1191 1.363 . S
C1186 C1187 1.363 . S
C1186 C1191 1.379 . S
C1186 N1193 1.356 . S
C1187 C1186 1.363 . S
C1187 C1190 1.363 . S
N1188 C1190 1.356 . S
N1188 H1200 0.984 . S
N1188 H1201 0.985 . S
N1189 C1191 1.356 . S
N1189 H1194 0.984 . S
N1189 H1195 0.985 . S
C1190 C1184 1.379 . S
C1190 C1187 1.363 . S
C1190 N1188 1.356 . S
C1191 C1185 1.363 . S
C1191 C1186 1.379 . S
C1191 N1189 1.356 . S
N1192 C1184 1.356 . S
N1192 H1198 0.984 . S
N1192 H1199 0.984 . S
N1193 C1186 1.356 . S
N1193 H1196 0.984 . S
N1193 H1197 0.985 . S
H1194 N1189 0.984 . S
H1195 N1189 0.985 . S
H1196 N1193 0.984 . S
H1197 N1193 0.985 . S
H1198 N1192 0.984 . S
H1199 N1192 0.984 . S
H1200 N1188 0.984 . S
H1201 N1188 0.985 . S
C1202 C1203 1.363 . S
C1202 C1208 1.379 . S
C1202 N1210 1.356 1_545 S
C1203 C1202 1.363 . S
C1203 C1209 1.363 . S
C1204 C1205 1.363 . S
C1204 C1209 1.379 . S
C1204 N1211 1.356 . S
C1205 C1204 1.363 . S
C1205 C1208 1.363 . S
N1206 C1208 1.356 1_565 S
N1206 H1218 0.984 . S
N1206 H1219 0.985 . S
N1207 C1209 1.356 . S
N1207 H1212 0.984 . S
N1207 H1213 0.985 . S
C1208 C1202 1.379 . S
C1208 C1205 1.363 . S
C1208 N1206 1.356 1_545 S
C1209 C1203 1.363 . S
C1209 C1204 1.379 . S
C1209 N1207 1.356 . S
N1210 C1202 1.356 1_565 S
N1210 H1216 0.984 . S
N1210 H1217 0.984 . S
N1211 C1204 1.356 . S
N1211 H1214 0.984 . S
N1211 H1215 0.985 . S
H1212 N1207 0.984 . S
H1213 N1207 0.985 . S
H1214 N1211 0.984 . S
H1215 N1211 0.985 . S
H1216 N1210 0.984 . S
H1217 N1210 0.984 . S
H1218 N1206 0.984 . S
H1219 N1206 0.985 . S
C1220 C1221 1.363 . S
C1220 C1226 1.379 . S
C1220 N1228 1.356 . S
C1221 C1220 1.363 . S
C1221 C1227 1.363 . S
C1222 C1223 1.363 . S
C1222 C1227 1.379 . S
C1222 N1229 1.356 . S
C1223 C1222 1.363 . S
C1223 C1226 1.363 . S
N1224 C1226 1.356 . S
N1224 H1236 0.984 . S
N1224 H1237 0.985 . S
N1225 C1227 1.356 . S
N1225 H1230 0.984 . S
N1225 H1231 0.985 . S
C1226 C1220 1.379 . S
C1226 C1223 1.363 . S
C1226 N1224 1.356 . S
C1227 C1221 1.363 . S
C1227 C1222 1.379 . S
C1227 N1225 1.356 . S
N1228 C1220 1.356 . S
N1228 H1234 0.984 . S
N1228 H1235 0.984 . S
N1229 C1222 1.356 . S
N1229 H1232 0.984 . S
N1229 H1233 0.985 . S
H1230 N1225 0.984 . S
H1231 N1225 0.985 . S
H1232 N1229 0.984 . S
H1233 N1229 0.985 . S
H1234 N1228 0.984 . S
H1235 N1228 0.984 . S
H1236 N1224 0.984 . S
H1237 N1224 0.985 . S
C1238 C1239 1.363 . S
C1238 C1244 1.379 . S
C1238 N1246 1.356 . S
C1239 C1238 1.363 . S
C1239 C1245 1.363 . S
C1240 C1241 1.363 . S
C1240 C1245 1.379 . S
C1240 N1247 1.356 . S
C1241 C1240 1.363 . S
C1241 C1244 1.363 . S
N1242 C1244 1.356 . S
N1242 H1254 0.984 . S
N1242 H1255 0.985 . S
N1243 C1245 1.356 . S
N1243 H1248 0.984 . S
N1243 H1249 0.985 . S
C1244 C1238 1.379 . S
C1244 C1241 1.363 . S
C1244 N1242 1.356 . S
C1245 C1239 1.363 . S
C1245 C1240 1.379 . S
C1245 N1243 1.356 . S
N1246 C1238 1.356 . S
N1246 H1252 0.984 . S
N1246 H1253 0.984 . S
N1247 C1240 1.356 . S
N1247 H1250 0.984 . S
N1247 H1251 0.985 . S
H1248 N1243 0.984 . S
H1249 N1243 0.985 . S
H1250 N1247 0.984 . S
H1251 N1247 0.985 . S
H1252 N1246 0.984 . S
H1253 N1246 0.984 . S
H1254 N1242 0.984 . S
H1255 N1242 0.985 . S
C1256 C1257 1.363 . S
C1256 C1262 1.379 . S
C1256 N1264 1.356 . S
C1257 C1256 1.363 . S
C1257 C1263 1.363 . S
C1258 C1259 1.363 . S
C1258 C1263 1.379 . S
C1258 N1265 1.356 . S
C1259 C1258 1.363 . S
C1259 C1262 1.363 . S
N1260 C1262 1.356 . S
N1260 H1272 0.984 . S
N1260 H1273 0.985 . S
N1261 C1263 1.356 . S
N1261 H1266 0.984 . S
N1261 H1267 0.985 . S
C1262 C1256 1.379 . S
C1262 C1259 1.363 . S
C1262 N1260 1.356 . S
C1263 C1257 1.363 . S
C1263 C1258 1.379 . S
C1263 N1261 1.356 . S
N1264 C1256 1.356 . S
N1264 H1270 0.984 . S
N1264 H1271 0.984 . S
N1265 C1258 1.356 . S
N1265 H1268 0.984 . S
N1265 H1269 0.985 . S
H1266 N1261 0.984 . S
H1267 N1261 0.985 . S
H1268 N1265 0.984 . S
H1269 N1265 0.985 . S
H1270 N1264 0.984 . S
H1271 N1264 0.984 . S
H1272 N1260 0.984 . S
H1273 N1260 0.985 . S
C1274 C1275 1.354 1_655 S
C1274 C1280 1.379 . S
C1274 N1282 1.356 1_556 S
C1275 C1274 1.354 1_455 S
C1275 C1281 1.382 . S
C1276 C1277 1.363 . S
C1276 C1281 1.379 . S
C1276 N1283 1.356 . S
C1277 C1276 1.363 . S
C1277 C1280 1.363 1_455 S
N1278 C1280 1.356 . S
N1278 H1290 0.984 . S
N1278 H1291 0.985 . S
N1279 C1281 1.356 . S
N1279 H1284 0.984 . S
N1279 H1285 0.985 . S
C1280 C1274 1.379 . S
C1280 C1277 1.363 1_655 S
C1280 N1278 1.356 . S
C1281 C1275 1.382 . S
C1281 C1276 1.379 . S
C1281 N1279 1.356 . S
N1282 C1274 1.356 1_554 S
N1282 H1288 0.984 . S
N1282 H1289 0.984 . S
N1283 C1276 1.356 . S
N1283 H1286 0.984 . S
N1283 H1287 0.985 . S
H1284 N1279 0.984 . S
H1285 N1279 0.985 . S
H1286 N1283 0.984 . S
H1287 N1283 0.985 . S
H1288 N1282 0.984 . S
H1289 N1282 0.984 . S
H1290 N1278 0.984 . S
H1291 N1278 0.985 . S
C1292 C1293 1.363 . S
C1292 C1298 1.379 . S
C1292 N1300 1.356 . S
C1293 C1292 1.363 . S
C1293 C1299 1.363 . S
C1294 C1295 1.363 . S
C1294 C1299 1.379 . S
C1294 N1301 1.356 . S
C1295 C1294 1.363 . S
C1295 C1298 1.363 . S
N1296 C1298 1.356 . S
N1296 H1308 0.984 . S
N1296 H1309 0.985 . S
N1297 C1299 1.356 . S
N1297 H1302 0.984 . S
N1297 H1303 0.985 . S
C1298 C1292 1.379 . S
C1298 C1295 1.363 . S
C1298 N1296 1.356 . S
C1299 C1293 1.363 . S
C1299 C1294 1.379 . S
C1299 N1297 1.356 . S
N1300 C1292 1.356 . S
N1300 H1306 0.984 . S
N1300 H1307 0.984 . S
N1301 C1294 1.356 . S
N1301 H1304 0.984 . S
N1301 H1305 0.985 . S
H1302 N1297 0.984 . S
H1303 N1297 0.985 . S
H1304 N1301 0.984 . S
H1305 N1301 0.985 . S
H1306 N1300 0.984 . S
H1307 N1300 0.984 . S
H1308 N1296 0.984 . S
H1309 N1296 0.985 . S
C1310 C1311 1.363 . S
C1310 C1316 1.379 . S
C1310 N1318 1.356 1_455 S
C1311 C1310 1.363 . S
C1311 C1317 1.363 . S
C1312 C1313 1.363 . S
C1312 C1317 1.379 . S
C1312 N1319 1.356 . S
C1313 C1312 1.363 . S
C1313 C1316 1.363 . S
N1314 C1316 1.356 1_655 S
N1314 H1326 0.984 . S
N1314 H1327 0.992 . S
N1315 C1317 1.356 . S
N1315 H1320 0.984 . S
N1315 H1321 0.985 . S
C1316 C1310 1.379 . S
C1316 C1313 1.363 . S
C1316 N1314 1.356 1_455 S
C1317 C1311 1.363 . S
C1317 C1312 1.379 . S
C1317 N1315 1.356 . S
N1318 C1310 1.356 1_655 S
N1318 H1324 0.984 1_556 S
N1318 H1325 0.983 1_556 S
N1319 C1312 1.356 . S
N1319 H1322 0.984 . S
N1319 H1323 0.985 . S
H1320 N1315 0.984 . S
H1321 N1315 0.985 . S
H1322 N1319 0.984 . S
H1323 N1319 0.985 . S
H1324 N1318 0.984 1_554 S
H1325 N1318 0.983 1_554 S
H1326 N1314 0.984 . S
H1327 N1314 0.992 . S
C1328 C1329 1.363 . S
C1328 C1334 1.379 . S
C1328 N1336 1.356 . S
C1329 C1328 1.363 . S
C1329 C1335 1.363 . S
C1330 C1331 1.363 . S
C1330 C1335 1.379 . S
C1330 N1337 1.356 . S
C1331 C1330 1.363 . S
C1331 C1334 1.363 . S
N1332 C1334 1.356 . S
N1332 H1344 0.984 . S
N1332 H1345 0.985 . S
N1333 C1335 1.356 . S
N1333 H1338 0.984 . S
N1333 H1339 0.985 . S
C1334 C1328 1.379 . S
C1334 C1331 1.363 . S
C1334 N1332 1.356 . S
C1335 C1329 1.363 . S
C1335 C1330 1.379 . S
C1335 N1333 1.356 . S
N1336 C1328 1.356 . S
N1336 H1342 0.984 . S
N1336 H1343 0.984 . S
N1337 C1330 1.356 . S
N1337 H1340 0.984 . S
N1337 H1341 0.985 . S
H1338 N1333 0.984 . S
H1339 N1333 0.985 . S
H1340 N1337 0.984 . S
H1341 N1337 0.985 . S
H1342 N1336 0.984 . S
H1343 N1336 0.984 . S
H1344 N1332 0.984 . S
H1345 N1332 0.985 . S
C1346 C1347 1.363 . S
C1346 C1352 1.379 . S
C1346 N1354 1.356 . S
C1347 C1346 1.363 . S
C1347 C1353 1.363 . S
C1348 C1349 1.363 . S
C1348 C1353 1.379 . S
C1348 N1355 1.356 . S
C1349 C1348 1.363 . S
C1349 C1352 1.363 . S
N1350 C1352 1.356 . S
N1350 H1362 0.984 . S
N1350 H1363 0.985 . S
N1351 C1353 1.356 . S
N1351 H1356 0.984 . S
N1351 H1357 0.985 . S
C1352 C1346 1.379 . S
C1352 C1349 1.363 . S
C1352 N1350 1.356 . S
C1353 C1347 1.363 . S
C1353 C1348 1.379 . S
C1353 N1351 1.356 . S
N1354 C1346 1.356 . S
N1354 H1360 0.984 . S
N1354 H1361 0.984 . S
N1355 C1348 1.356 . S
N1355 H1358 0.984 . S
N1355 H1359 0.985 . S
H1356 N1351 0.984 . S
H1357 N1351 0.985 . S
H1358 N1355 0.984 . S
H1359 N1355 0.985 . S
H1360 N1354 0.984 . S
H1361 N1354 0.984 . S
H1362 N1350 0.984 . S
H1363 N1350 0.985 . S
C1364 C1365 1.363 . S
C1364 C1370 1.379 . S
C1364 N1372 1.356 . S
C1365 C1364 1.363 . S
C1365 C1371 1.363 . S
C1366 C1367 1.363 . S
C1366 C1371 1.379 . S
C1366 N1373 1.356 . S
C1367 C1366 1.363 . S
C1367 C1370 1.363 . S
N1368 C1370 1.356 . S
N1368 H1380 0.984 . S
N1368 H1381 0.985 . S
N1369 C1371 1.356 . S
N1369 H1374 0.984 . S
N1369 H1375 0.985 . S
C1370 C1364 1.379 . S
C1370 C1367 1.363 . S
C1370 N1368 1.356 . S
C1371 C1365 1.363 . S
C1371 C1366 1.379 . S
C1371 N1369 1.356 . S
N1372 C1364 1.356 . S
N1372 H1378 0.984 . S
N1372 H1379 0.984 . S
N1373 C1366 1.356 . S
N1373 H1376 0.984 . S
N1373 H1377 0.985 . S
H1374 N1369 0.984 . S
H1375 N1369 0.985 . S
H1376 N1373 0.984 . S
H1377 N1373 0.985 . S
H1378 N1372 0.984 . S
H1379 N1372 0.984 . S
H1380 N1368 0.984 . S
H1381 N1368 0.985 . S
C1382 C1383 1.363 . S
C1382 C1388 1.379 . S
C1382 N1390 1.356 . S
C1383 C1382 1.363 . S
C1383 C1389 1.363 . S
C1384 C1385 1.363 . S
C1384 C1389 1.379 . S
C1384 N1391 1.356 . S
C1385 C1384 1.363 . S
C1385 C1388 1.363 . S
N1386 C1388 1.356 . S
N1386 H1398 0.984 . S
N1386 H1399 0.985 . S
N1387 C1389 1.356 . S
N1387 H1392 0.984 . S
N1387 H1393 0.985 . S
C1388 C1382 1.379 . S
C1388 C1385 1.363 . S
C1388 N1386 1.356 . S
C1389 C1383 1.363 . S
C1389 C1384 1.379 . S
C1389 N1387 1.356 . S
N1390 C1382 1.356 . S
N1390 H1396 0.984 . S
N1390 H1397 0.984 . S
N1391 C1384 1.356 . S
N1391 H1394 0.984 . S
N1391 H1395 0.985 . S
H1392 N1387 0.984 . S
H1393 N1387 0.985 . S
H1394 N1391 0.984 . S
H1395 N1391 0.985 . S
H1396 N1390 0.984 . S
H1397 N1390 0.984 . S
H1398 N1386 0.984 . S
H1399 N1386 0.985 . S
C1400 C1401 1.363 . S
C1400 C1406 1.379 . S
C1400 N1408 1.356 . S
C1401 C1400 1.363 . S
C1401 C1407 1.363 . S
C1402 C1403 1.363 . S
C1402 C1407 1.379 . S
C1402 N1409 1.356 . S
C1403 C1402 1.363 . S
C1403 C1406 1.363 . S
N1404 C1406 1.356 . S
N1404 H1416 0.984 . S
N1404 H1417 0.985 . S
N1405 C1407 1.356 . S
N1405 H1410 0.984 . S
N1405 H1411 0.985 . S
C1406 C1400 1.379 . S
C1406 C1403 1.363 . S
C1406 N1404 1.356 . S
C1407 C1401 1.363 . S
C1407 C1402 1.379 . S
C1407 N1405 1.356 . S
N1408 C1400 1.356 . S
N1408 H1414 0.984 . S
N1408 H1415 0.984 . S
N1409 C1402 1.356 . S
N1409 H1412 0.984 . S
N1409 H1413 0.985 . S
H1410 N1405 0.984 . S
H1411 N1405 0.985 . S
H1412 N1409 0.984 . S
H1413 N1409 0.985 . S
H1414 N1408 0.984 . S
H1415 N1408 0.984 . S
H1416 N1404 0.984 . S
H1417 N1404 0.985 . S
C1418 C1419 1.363 . S
C1418 C1424 1.379 . S
C1418 N1426 1.356 . S
C1419 C1418 1.363 . S
C1419 C1425 1.363 . S
C1420 C1421 1.363 . S
C1420 C1425 1.379 . S
C1420 N1427 1.356 . S
C1421 C1420 1.363 . S
C1421 C1424 1.363 . S
N1422 C1424 1.356 . S
N1422 H1434 0.984 . S
N1422 H1435 0.985 . S
N1423 C1425 1.356 . S
N1423 H1428 0.984 . S
N1423 H1429 0.985 . S
C1424 C1418 1.379 . S
C1424 C1421 1.363 . S
C1424 N1422 1.356 . S
C1425 C1419 1.363 . S
C1425 C1420 1.379 . S
C1425 N1423 1.356 . S
N1426 C1418 1.356 . S
N1426 H1432 0.984 . S
N1426 H1433 0.984 . S
N1427 C1420 1.356 . S
N1427 H1430 0.984 . S
N1427 H1431 0.985 . S
H1428 N1423 0.984 . S
H1429 N1423 0.985 . S
H1430 N1427 0.984 . S
H1431 N1427 0.985 . S
H1432 N1426 0.984 . S
H1433 N1426 0.984 . S
H1434 N1422 0.984 . S
H1435 N1422 0.985 . S
C1436 C1437 1.363 . S
C1436 C1442 1.379 . S
C1436 N1444 1.356 . S
C1437 C1436 1.363 . S
C1437 C1443 1.363 . S
C1438 C1439 1.363 . S
C1438 C1443 1.379 . S
C1438 N1445 1.356 . S
C1439 C1438 1.363 . S
C1439 C1442 1.363 . S
N1440 C1442 1.356 . S
N1440 H1452 0.984 . S
N1440 H1453 0.985 . S
N1441 C1443 1.356 . S
N1441 H1446 0.984 . S
N1441 H1447 0.985 . S
C1442 C1436 1.379 . S
C1442 C1439 1.363 . S
C1442 N1440 1.356 . S
C1443 C1437 1.363 . S
C1443 C1438 1.379 . S
C1443 N1441 1.356 . S
N1444 C1436 1.356 . S
N1444 H1450 0.984 . S
N1444 H1451 0.984 . S
N1445 C1438 1.356 . S
N1445 H1448 0.984 . S
N1445 H1449 0.985 . S
H1446 N1441 0.984 . S
H1447 N1441 0.985 . S
H1448 N1445 0.984 . S
H1449 N1445 0.985 . S
H1450 N1444 0.984 . S
H1451 N1444 0.984 . S
H1452 N1440 0.984 . S
H1453 N1440 0.985 . S
C1454 C1455 1.363 . S
C1454 C1460 1.379 . S
C1454 N1462 1.356 . S
C1455 C1454 1.363 . S
C1455 C1461 1.363 . S
C1456 C1457 1.363 . S
C1456 C1461 1.379 . S
C1456 N1463 1.356 . S
C1457 C1456 1.363 . S
C1457 C1460 1.363 . S
N1458 C1460 1.356 . S
N1458 H1470 0.984 . S
N1458 H1471 0.985 . S
N1459 C1461 1.356 . S
N1459 H1464 0.984 . S
N1459 H1465 0.985 . S
C1460 C1454 1.379 . S
C1460 C1457 1.363 . S
C1460 N1458 1.356 . S
C1461 C1455 1.363 . S
C1461 C1456 1.379 . S
C1461 N1459 1.356 . S
N1462 C1454 1.356 . S
N1462 H1468 0.984 . S
N1462 H1469 0.984 . S
N1463 C1456 1.356 . S
N1463 H1466 0.984 . S
N1463 H1467 0.985 . S
H1464 N1459 0.984 . S
H1465 N1459 0.985 . S
H1466 N1463 0.984 . S
H1467 N1463 0.985 . S
H1468 N1462 0.984 . S
H1469 N1462 0.984 . S
H1470 N1458 0.984 . S
H1471 N1458 0.985 . S
C1472 C1473 1.363 . S
C1472 C1478 1.379 . S
C1472 N1480 1.356 . S
C1473 C1472 1.363 . S
C1473 C1479 1.363 1_556 S
C1474 C1475 1.351 1_554 S
C1474 C1479 1.379 . S
C1474 N1481 1.356 . S
C1475 C1474 1.351 1_556 S
C1475 C1478 1.377 . S
N1476 C1478 1.356 . S
N1476 H1488 0.984 . S
N1476 H1489 0.985 . S
N1477 C1479 1.356 . S
N1477 H1482 0.984 . S
N1477 H1483 0.985 . S
C1478 C1472 1.379 . S
C1478 C1475 1.377 . S
C1478 N1476 1.356 . S
C1479 C1473 1.363 1_554 S
C1479 C1474 1.379 . S
C1479 N1477 1.356 . S
N1480 C1472 1.356 . S
N1480 H1486 0.984 . S
N1480 H1487 0.984 . S
N1481 C1474 1.356 . S
N1481 H1484 0.984 . S
N1481 H1485 0.985 . S
H1482 N1477 0.984 . S
H1483 N1477 0.985 . S
H1484 N1481 0.984 . S
H1485 N1481 0.985 . S
H1486 N1480 0.984 . S
H1487 N1480 0.984 . S
H1488 N1476 0.984 . S
H1489 N1476 0.985 . S
C1490 C1491 1.363 . S
C1490 C1496 1.379 . S
C1490 N1498 1.356 . S
C1491 C1490 1.363 . S
C1491 C1497 1.363 . S
C1492 C1493 1.363 . S
C1492 C1497 1.379 . S
C1492 N1499 1.356 . S
C1493 C1492 1.363 . S
C1493 C1496 1.363 . S
N1494 C1496 1.356 . S
N1494 H1506 0.984 . S
N1494 H1507 0.985 . S
N1495 C1497 1.356 . S
N1495 H1500 0.984 . S
N1495 H1501 0.985 . S
C1496 C1490 1.379 . S
C1496 C1493 1.363 . S
C1496 N1494 1.356 . S
C1497 C1491 1.363 . S
C1497 C1492 1.379 . S
C1497 N1495 1.356 . S
N1498 C1490 1.356 . S
N1498 H1504 0.984 . S
N1498 H1505 0.984 . S
N1499 C1492 1.356 . S
N1499 H1502 0.984 . S
N1499 H1503 0.985 . S
H1500 N1495 0.984 . S
H1501 N1495 0.985 . S
H1502 N1499 0.984 . S
H1503 N1499 0.985 . S
H1504 N1498 0.984 . S
H1505 N1498 0.984 . S
H1506 N1494 0.984 . S
H1507 N1494 0.985 . S
C1508 C1509 1.363 . S
C1508 C1514 1.379 . S
C1508 N1516 1.356 1_554 S
C1509 C1508 1.363 . S
C1509 C1515 1.363 . S
C1510 C1511 1.363 . S
C1510 C1515 1.379 . S
C1510 N1517 1.356 . S
C1511 C1510 1.363 . S
C1511 C1514 1.363 . S
N1512 C1514 1.356 1_556 S
N1512 H1524 0.984 . S
N1512 H1525 0.985 . S
N1513 C1515 1.356 . S
N1513 H1518 0.984 . S
N1513 H1519 0.985 . S
C1514 C1508 1.379 . S
C1514 C1511 1.363 . S
C1514 N1512 1.356 1_554 S
C1515 C1509 1.363 . S
C1515 C1510 1.379 . S
C1515 N1513 1.356 . S
N1516 C1508 1.356 1_556 S
N1516 H1522 0.984 . S
N1516 H1523 0.984 1_556 S
N1517 C1510 1.356 . S
N1517 H1520 0.984 . S
N1517 H1521 0.985 . S
H1518 N1513 0.984 . S
H1519 N1513 0.985 . S
H1520 N1517 0.984 . S
H1521 N1517 0.985 . S
H1522 N1516 0.984 . S
H1523 N1516 0.984 1_554 S
H1524 N1512 0.984 . S
H1525 N1512 0.985 . S
C1526 C1527 1.363 1_556 S
C1526 C1532 1.379 . S
C1526 N1534 1.356 . S
C1527 C1526 1.363 1_554 S
C1527 C1533 1.363 . S
C1528 C1529 1.363 . S
C1528 C1533 1.379 . S
C1528 N1535 1.356 . S
C1529 C1528 1.363 . S
C1529 C1532 1.363 1_554 S
N1530 C1532 1.356 . S
N1530 H1542 0.984 . S
N1530 H1543 0.985 . S
N1531 C1533 1.356 . S
N1531 H1536 0.984 . S
N1531 H1537 0.985 . S
C1532 C1526 1.379 . S
C1532 C1529 1.363 1_556 S
C1532 N1530 1.356 . S
C1533 C1527 1.363 . S
C1533 C1528 1.379 . S
C1533 N1531 1.356 . S
N1534 C1526 1.356 . S
N1534 H1540 0.984 . S
N1534 H1541 0.984 . S
N1535 C1528 1.356 . S
N1535 H1538 0.984 . S
N1535 H1539 0.985 . S
H1536 N1531 0.984 . S
H1537 N1531 0.985 . S
H1538 N1535 0.984 . S
H1539 N1535 0.985 . S
H1540 N1534 0.984 . S
H1541 N1534 0.984 . S
H1542 N1530 0.984 . S
H1543 N1530 0.985 . S
C683 C523 1.432 . S
C681 C177 1.435 . S
C701 C531 1.284 . S
C699 C209 1.541 . S
C717 C253 1.370 . S
C719 C551 1.401 . S
C737 C565 1.508 . S
C735 C157 1.484 1_655 S
C755 C580 1.534 . S
C753 C343 1.503 . S
C773 C594 1.508 . S
C771 C401 1.457 . S
C789 C369 1.535 . S
C791 C608 1.566 . S
C809 C614 1.435 . S
C807 C317 1.460 . S
C825 C375 1.498 . S
C827 C628 1.492 . S
C845 C649 1.546 . S
C843 C305 1.550 . S
C861 C349 1.466 . S
C863 C629 1.271 . S
C881 C650 1.535 . S
C879 C413 1.473 . S
C897 C241 1.429 . S
C899 C657 1.197 . S
C915 C151 1.451 . S
C917 C663 1.475 . S
C933 C189 1.492 . S
C935 C656 1.461 . S
C951 C215 1.470 . S
C953 C664 1.483 . S
C969 C113 1.463 . S
C971 C558 1.451 . S
C987 C471 1.469 . S
C989 C559 1.251 . S
C1007 C516 1.508 . S
C1005 C509 1.536 . S
C1025 C537 1.449 . S
C1023 C279 1.427 . S
C1041 C145 1.430 . S
C1043 C572 1.420 . S
C1061 C622 1.561 . S
C1059 C381 1.520 . S
C1079 C573 1.234 . S
C1077 C311 1.461 . S
C1097 C601 1.258 . S
C1095 C407 1.478 . S
C1115 C607 1.432 . S
C1113 C465 1.435 . S
C1131 C497 1.541 . S
C1133 C615 1.284 . S
C1149 C285 1.370 . S
C1151 C579 1.401 . S
C1169 C593 1.508 . S
C1167 C445 1.488 . S
C1185 C119 1.503 . S
C1187 C552 1.534 . S
C1205 C566 1.508 . S
C1203 C17 1.456 . S
C1223 C524 1.566 . S
C1221 C49 1.535 . S
C1241 C530 1.435 . S
C1239 C93 1.460 . S
C1257 C55 1.498 . S
C1259 C642 1.492 . S
C1275 C81 1.544 1_455 S
C1277 C635 1.546 . S
C1293 C125 1.466 . S
C1295 C643 1.271 . S
C1311 C29 1.473 . S
C1313 C636 1.535 . S
C1331 C671 1.196 . S
C1329 C273 1.429 . S
C1349 C677 1.475 . S
C1347 C439 1.451 . S
C1367 C670 1.463 . S
C1365 C477 1.492 . S
C1383 C503 1.470 . S
C1385 C678 1.483 . S
C1401 C337 1.464 . S
C1403 C586 1.451 . S
C1421 C587 1.251 . S
C1419 C183 1.469 . S
C1439 C600 1.506 . S
C1437 C221 1.536 . S
C1457 C621 1.449 . S
C1455 C247 1.427 . S
C1473 C433 1.430 . S
C1475 C544 1.418 1_556 S
C1493 C538 1.561 . S
C1491 C61 1.520 . S
C1509 C87 1.460 . S
C1511 C545 1.233 . S
C1529 C517 1.258 . S
C1527 C23 1.478 . S
