# Generated by pormake.
# Topology ctn, (3,4)-cn, num edge types: 1
# Building blocks:
#     Node 0, Type 0, BuildingBlock: ESEHIV_clean_linker_0, # of connection points: 3
#     Node 1, Type 0, BuildingBlock: ESEHIV_clean_linker_0, # of connection points: 3
#     Node 2, Type 0, BuildingBlock: ESEHIV_clean_linker_0, # of connection points: 3
#     Node 3, Type 0, BuildingBlock: ESEHIV_clean_linker_0, # of connection points: 3
#     Node 4, Type 0, BuildingBlock: ESEHIV_clean_linker_0, # of connection points: 3
#     Node 5, Type 0, BuildingBlock: ESEHIV_clean_linker_0, # of connection points: 3
#     Node 6, Type 0, BuildingBlock: ESEHIV_clean_linker_0, # of connection points: 3
#     Node 7, Type 0, BuildingBlock: ESEHIV_clean_linker_0, # of connection points: 3
#     Node 8, Type 0, BuildingBlock: ESEHIV_clean_linker_0, # of connection points: 3
#     Node 9, Type 0, BuildingBlock: ESEHIV_clean_linker_0, # of connection points: 3
#     Node 10, Type 0, BuildingBlock: ESEHIV_clean_linker_0, # of connection points: 3
#     Node 11, Type 0, BuildingBlock: ESEHIV_clean_linker_0, # of connection points: 3
#     Node 12, Type 0, BuildingBlock: ESEHIV_clean_linker_0, # of connection points: 3
#     Node 13, Type 0, BuildingBlock: ESEHIV_clean_linker_0, # of connection points: 3
#     Node 14, Type 0, BuildingBlock: ESEHIV_clean_linker_0, # of connection points: 3
#     Node 15, Type 0, BuildingBlock: ESEHIV_clean_linker_0, # of connection points: 3
#     Node 16, Type 1, BuildingBlock: UXUYUI_clean_sbu_0, # of connection points: 4
#     Node 17, Type 1, BuildingBlock: UXUYUI_clean_sbu_0, # of connection points: 4
#     Node 18, Type 1, BuildingBlock: UXUYUI_clean_sbu_0, # of connection points: 4
#     Node 19, Type 1, BuildingBlock: UXUYUI_clean_sbu_0, # of connection points: 4
#     Node 20, Type 1, BuildingBlock: UXUYUI_clean_sbu_0, # of connection points: 4
#     Node 21, Type 1, BuildingBlock: UXUYUI_clean_sbu_0, # of connection points: 4
#     Node 22, Type 1, BuildingBlock: UXUYUI_clean_sbu_0, # of connection points: 4
#     Node 23, Type 1, BuildingBlock: UXUYUI_clean_sbu_0, # of connection points: 4
#     Node 24, Type 1, BuildingBlock: UXUYUI_clean_sbu_0, # of connection points: 4
#     Node 25, Type 1, BuildingBlock: UXUYUI_clean_sbu_0, # of connection points: 4
#     Node 26, Type 1, BuildingBlock: UXUYUI_clean_sbu_0, # of connection points: 4
#     Node 27, Type 1, BuildingBlock: UXUYUI_clean_sbu_0, # of connection points: 4
#     Edge 28, Type (0, 1), None
#     Edge 29, Type (0, 1), None
#     Edge 30, Type (0, 1), None
#     Edge 31, Type (0, 1), None
#     Edge 32, Type (0, 1), None
#     Edge 33, Type (0, 1), None
#     Edge 34, Type (0, 1), None
#     Edge 35, Type (0, 1), None
#     Edge 36, Type (0, 1), None
#     Edge 37, Type (0, 1), None
#     Edge 38, Type (0, 1), None
#     Edge 39, Type (0, 1), None
#     Edge 40, Type (0, 1), None
#     Edge 41, Type (0, 1), None
#     Edge 42, Type (0, 1), None
#     Edge 43, Type (0, 1), None
#     Edge 44, Type (0, 1), None
#     Edge 45, Type (0, 1), None
#     Edge 46, Type (0, 1), None
#     Edge 47, Type (0, 1), None
#     Edge 48, Type (0, 1), None
#     Edge 49, Type (0, 1), None
#     Edge 50, Type (0, 1), None
#     Edge 51, Type (0, 1), None
#     Edge 52, Type (0, 1), None
#     Edge 53, Type (0, 1), None
#     Edge 54, Type (0, 1), None
#     Edge 55, Type (0, 1), None
#     Edge 56, Type (0, 1), None
#     Edge 57, Type (0, 1), None
#     Edge 58, Type (0, 1), None
#     Edge 59, Type (0, 1), None
#     Edge 60, Type (0, 1), None
#     Edge 61, Type (0, 1), None
#     Edge 62, Type (0, 1), None
#     Edge 63, Type (0, 1), None
#     Edge 64, Type (0, 1), None
#     Edge 65, Type (0, 1), None
#     Edge 66, Type (0, 1), None
#     Edge 67, Type (0, 1), None
#     Edge 68, Type (0, 1), None
#     Edge 69, Type (0, 1), None
#     Edge 70, Type (0, 1), None
#     Edge 71, Type (0, 1), None
#     Edge 72, Type (0, 1), None
#     Edge 73, Type (0, 1), None
#     Edge 74, Type (0, 1), None
#     Edge 75, Type (0, 1), None
# Relax obj value: 0.000
# Max RMSD: 0.006
# Mean RMSD: 0.004
data_MOF--net-ctn--node1-UXUYUI_clean_sbu_0--node2-ESEHIV_clean_linker_0--edge1-none
_symmetry_space_group_name_H-M    P1
_symmetry_Int_Tables_number       1
_symmetry_cell_setting            triclinic
loop_
_symmetry_equiv_pos_as_xyz
'x, y, z'
_cell_length_a     33.709581
_cell_length_b     33.713242
_cell_length_c     33.65944
_cell_angle_alpha  89.974678
_cell_angle_beta   90.117528
_cell_angle_gamma 90.054315
loop_
_atom_site_label
_atom_site_type_symbol
_atom_site_fract_x
_atom_site_fract_y
_atom_site_fract_z
_atom_type_partial_charge
H0 H 0.99733 0.09845 0.0635 0.0
H1 H 0.06443 0.99585 0.09845 0.0
H2 H 0.09968 0.06354 0.9962 0.0
C3 C 0.02201 0.0785 0.05885 0.0
C4 C 0.04775 0.08503 0.02663 0.0
C5 C 0.02764 0.04637 0.08498 0.0
C6 C 0.05985 0.02064 0.07854 0.0
C7 C 0.08607 0.02645 0.04655 0.0
C8 C 0.07972 0.05882 0.02089 0.0
H9 H 0.31461 0.67575 0.27866 0.0
H10 H 0.34928 0.77817 0.21104 0.0
H11 H 0.24672 0.71069 0.17628 0.0
C12 C 0.30982 0.69568 0.25391 0.0
C13 C 0.27744 0.6892 0.22826 0.0
C14 C 0.33597 0.72773 0.24807 0.0
C15 C 0.32936 0.75343 0.21577 0.0
C16 C 0.29721 0.74766 0.18965 0.0
C17 C 0.27154 0.71537 0.19619 0.0
H18 H 0.96193 0.52801 0.09883 0.0
H19 H 0.02943 0.42582 0.06382 0.0
H20 H 0.927 0.4607 0.99614 0.0
C21 C 0.96662 0.50333 0.07884 0.0
C22 C 0.94044 0.49759 0.04671 0.0
C23 C 0.99891 0.47769 0.08535 0.0
C24 C 1.00468 0.44571 0.05912 0.0
C25 C 0.97898 0.43924 0.02675 0.0
C26 C 0.94693 0.46537 0.02095 0.0
H27 H 0.67712 0.74591 0.21109 0.0
H28 H 0.77936 0.8135 0.17599 0.0
H29 H 0.71186 0.84867 0.27822 0.0
C30 C 0.69699 0.77072 0.2157 0.0
C31 C 0.69046 0.79653 0.24788 0.0
C32 C 0.72902 0.77646 0.18953 0.0
C33 C 0.75464 0.80883 0.19592 0.0
C34 C 0.74884 0.83511 0.22787 0.0
C35 C 0.71657 0.82866 0.25356 0.0
H36 H 0.99668 0.92614 0.46096 0.0
H37 H 0.06442 0.0284 0.42615 0.0
H38 H 0.09922 0.96075 0.52867 0.0
C39 C 0.02148 0.946 0.4657 0.0
C40 C 0.04717 0.93942 0.49804 0.0
C41 C 0.02732 0.97806 0.43954 0.0
C42 C 0.05967 1.00366 0.44609 0.0
C43 C 0.08585 0.9978 0.4782 0.0
C44 C 0.07929 0.96551 0.50389 0.0
H45 H 0.17669 0.778 0.81351 0.0
H46 H 0.27935 0.71086 0.84829 0.0
H47 H 0.21157 0.67581 0.74585 0.0
C48 C 0.19665 0.75334 0.80878 0.0
C49 C 0.19009 0.72766 0.77646 0.0
C50 C 0.2288 0.74766 0.83491 0.0
C51 C 0.25453 0.71548 0.82837 0.0
C52 C 0.2487 0.68932 0.79628 0.0
C53 C 0.21631 0.69572 0.77062 0.0
H54 H 0.92642 0.56344 0.52825 0.0
H55 H 0.02904 0.59822 0.46115 0.0
H56 H 0.96171 0.49567 0.42618 0.0
C57 C 0.94643 0.55869 0.50362 0.0
C58 C 0.94004 0.52632 0.47799 0.0
C59 C 0.97849 0.58486 0.49792 0.0
C60 C 1.0043 0.57829 0.46578 0.0
C61 C 0.99862 0.54616 0.43967 0.0
C62 C 0.96632 0.52047 0.44607 0.0
H63 H 0.74722 0.81334 0.84901 0.0
H64 H 0.81442 0.8484 0.74646 0.0
H65 H 0.84933 0.74585 0.81381 0.0
C66 C 0.77187 0.80867 0.82901 0.0
C67 C 0.7975 0.77636 0.83542 0.0
C68 C 0.77759 0.83489 0.79696 0.0
C69 C 0.80977 0.82843 0.7712 0.0
C70 C 0.83589 0.79636 0.7769 0.0
C71 C 0.82945 0.77061 0.80918 0.0
H72 H 0.24722 0.31334 0.34901 0.0
H73 H 0.31442 0.3484 0.24646 0.0
H74 H 0.34933 0.24585 0.31381 0.0
C75 C 0.27187 0.30867 0.32901 0.0
C76 C 0.2975 0.27636 0.33542 0.0
C77 C 0.27759 0.33489 0.29696 0.0
C78 C 0.30977 0.32843 0.2712 0.0
C79 C 0.33589 0.29636 0.2769 0.0
C80 C 0.32945 0.27061 0.30918 0.0
H81 H 0.46193 0.02801 0.59883 0.0
H82 H 0.52943 0.92582 0.56382 0.0
H83 H 0.427 0.9607 0.49614 0.0
C84 C 0.46662 1.00333 0.57884 0.0
C85 C 0.44044 0.99759 0.5467 0.0
C86 C 0.49891 0.97769 0.58535 0.0
C87 C 0.50468 0.94571 0.55912 0.0
C88 C 0.47898 0.93924 0.52675 0.0
C89 C 0.44693 0.96537 0.52095 0.0
H90 H 0.17712 0.24591 0.71109 0.0
H91 H 0.27936 0.3135 0.67599 0.0
H92 H 0.21186 0.34867 0.77822 0.0
C93 C 0.19699 0.27072 0.7157 0.0
C94 C 0.19046 0.29653 0.74788 0.0
C95 C 0.22902 0.27646 0.68953 0.0
C96 C 0.25464 0.30883 0.69592 0.0
C97 C 0.24884 0.33511 0.72787 0.0
C98 C 0.21657 0.32866 0.75356 0.0
H99 H 0.81461 0.17575 0.77866 0.0
H100 H 0.84928 0.27817 0.71104 0.0
H101 H 0.74672 0.21069 0.67629 0.0
C102 C 0.80982 0.19568 0.75391 0.0
C103 C 0.77744 0.1892 0.72826 0.0
C104 C 0.83597 0.22773 0.74807 0.0
C105 C 0.82936 0.25343 0.71577 0.0
C106 C 0.79721 0.24766 0.68965 0.0
C107 C 0.77154 0.21537 0.69619 0.0
H108 H 0.49733 0.59845 0.5635 0.0
H109 H 0.56443 0.49585 0.59845 0.0
H110 H 0.59968 0.56354 0.4962 0.0
C111 C 0.52201 0.5785 0.55885 0.0
C112 C 0.54775 0.58503 0.52663 0.0
C113 C 0.52764 0.54637 0.58498 0.0
C114 C 0.55985 0.52064 0.57854 0.0
C115 C 0.58607 0.52645 0.54655 0.0
C116 C 0.57972 0.55882 0.52089 0.0
H117 H 0.49668 0.42614 0.96096 0.0
H118 H 0.56441 0.5284 0.92615 0.0
H119 H 0.59922 0.46075 0.02867 0.0
C120 C 0.52148 0.446 0.9657 0.0
C121 C 0.54717 0.43942 0.99804 0.0
C122 C 0.52732 0.47806 0.93954 0.0
C123 C 0.55967 0.50366 0.94609 0.0
C124 C 0.58585 0.4978 0.9782 0.0
C125 C 0.57929 0.46551 1.00389 0.0
H126 H 0.67669 0.278 0.31351 0.0
H127 H 0.77935 0.21086 0.34829 0.0
H128 H 0.71157 0.17581 0.24585 0.0
C129 C 0.69665 0.25334 0.30878 0.0
C130 C 0.6901 0.22766 0.27646 0.0
C131 C 0.7288 0.24766 0.33491 0.0
C132 C 0.75453 0.21548 0.32837 0.0
C133 C 0.7487 0.18932 0.29628 0.0
C134 C 0.71631 0.19572 0.27062 0.0
H135 H 0.42642 0.06344 0.02825 0.0
H136 H 0.52904 0.09822 0.96115 0.0
H137 H 0.46171 0.99567 0.92618 0.0
C138 C 0.44643 0.05869 1.00362 0.0
C139 C 0.44004 0.02632 0.97799 0.0
C140 C 0.47849 0.08486 0.99792 0.0
C141 C 0.5043 0.07829 0.96578 0.0
C142 C 0.49862 0.04616 0.93967 0.0
C143 C 0.46632 0.02047 0.94607 0.0
Li144 Li 0.29867 0.91215 1.00655 0.0
Li145 Li 0.26859 0.86186 0.04811 0.0
Li146 Li 0.25711 0.86184 0.97647 0.0
Li147 Li 0.22713 0.91216 0.01797 0.0
C148 C 0.34361 0.84359 0.02151 0.0
N149 N 0.41524 0.8224 0.05538 0.0
C150 C 0.35861 0.8649 0.05386 0.0
C151 C 0.36497 0.81147 1.00645 0.0
C152 C 0.39488 0.85372 0.07056 0.0
C153 C 0.40117 0.80125 0.02396 0.0
C154 C 0.25392 0.93042 0.09313 0.0
C155 C 0.20503 0.92031 0.14436 0.0
N156 N 0.22028 0.95162 0.1648 0.0
C157 C 0.26906 0.96254 0.11457 0.0
C158 C 0.22161 0.90913 0.10807 0.0
C159 C 0.25166 0.97277 0.15079 0.0
C160 C 0.33856 0.98543 1.00592 0.0
N161 N 0.34342 0.9462 0.99808 0.0
C162 C 0.4102 0.95761 0.97701 0.0
C163 C 0.37821 0.93206 0.98342 0.0
C164 C 0.40623 0.99842 0.98483 0.0
C165 C 0.36958 0.01218 0.99931 0.0
H166 H 0.31034 0.99597 0.01693 0.0
H167 H 0.38121 0.90093 0.9765 0.0
C168 C 0.2689 0.78861 0.08808 0.0
N169 N 0.277 0.8278 0.09292 0.0
C170 C 0.27548 0.76185 0.11915 0.0
C171 C 0.29826 0.81636 0.15979 0.0
C172 C 0.29186 0.84191 0.12775 0.0
C173 C 0.29021 0.77558 0.15583 0.0
H174 H 0.25772 0.77808 0.05983 0.0
H175 H 0.29896 0.87302 0.13074 0.0
C176 C 0.27191 0.93037 0.93135 0.0
N177 N 0.30558 0.9515 0.85963 0.0
C178 C 0.25681 0.96244 0.90983 0.0
C179 C 0.3042 0.90908 0.91647 0.0
C180 C 0.27421 0.97263 0.8736 0.0
C181 C 0.32079 0.92022 0.88014 0.0
C182 C 0.18203 0.84365 1.00307 0.0
C183 C 0.16714 0.86498 0.97068 0.0
C184 C 0.16053 0.81158 0.01815 0.0
C185 C 0.13084 0.85388 0.95398 0.0
C186 C 0.12431 0.80143 1.00064 0.0
N187 N 0.11034 0.82261 0.96918 0.0
C188 C 0.25692 0.7886 0.93652 0.0
C189 C 0.23388 0.84186 0.89685 0.0
C190 C 0.25044 0.76185 0.90543 0.0
N191 N 0.24873 0.82776 0.93169 0.0
C192 C 0.22757 0.81631 0.86479 0.0
C193 C 0.23571 0.77556 0.86875 0.0
H194 H 0.26811 0.77809 0.96478 0.0
H195 H 0.22672 0.87294 0.89386 0.0
C196 C 0.1874 0.98545 0.0185 0.0
N197 N 0.18245 0.94624 0.0264 0.0
C198 C 0.15646 0.01224 0.02511 0.0
C199 C 0.11573 0.95771 0.04755 0.0
C200 C 0.14764 0.93213 0.04112 0.0
C201 C 0.11979 0.99851 0.03967 0.0
H202 H 0.21563 0.99598 1.00744 0.0
H203 H 0.14457 0.901 0.0481 0.0
O204 O 0.30796 0.85358 1.00484 0.0
O205 O 0.27047 0.92044 0.05745 0.0
O206 O 0.25535 0.92041 0.96706 0.0
O207 O 0.21771 0.85357 0.01976 0.0
H208 H 0.3425 0.88984 0.06593 0.0
H209 H 0.35366 0.79462 0.98149 0.0
H210 H 0.40684 0.86995 0.09558 0.0
H211 H 0.41805 0.77647 0.01259 0.0
H212 H 0.18004 0.90409 0.15629 0.0
H213 H 0.29398 0.97938 0.1033 0.0
H214 H 0.20948 0.88419 0.0919 0.0
H215 H 0.26309 0.99755 0.16773 0.0
H216 H 0.43785 0.94531 0.96634 0.0
H217 H 0.36459 0.04338 1.00499 0.0
H218 H 0.2696 0.73067 0.11418 0.0
H219 H 0.30911 0.82863 0.18747 0.0
H220 H 0.2319 0.97928 0.92106 0.0
H221 H 0.31631 0.88418 0.9327 0.0
H222 H 0.26281 0.99737 0.8566 0.0
H223 H 0.34577 0.90401 0.86826 0.0
H224 H 0.18335 0.88989 0.95859 0.0
H225 H 0.17176 0.79472 0.04314 0.0
H226 H 0.11895 0.87012 0.92893 0.0
H227 H 0.10732 0.77669 0.01203 0.0
H228 H 0.25639 0.73069 0.91039 0.0
H229 H 0.21672 0.82858 0.83711 0.0
H230 H 0.16152 0.04343 0.01938 0.0
H231 H 0.08806 0.94544 0.05827 0.0
Li232 Li 0.11313 0.51767 0.29867 0.0
Li233 Li 0.16348 0.47627 0.2687 0.0
Li234 Li 0.16339 0.54779 0.25717 0.0
Li235 Li 0.11312 0.50622 0.22704 0.0
C236 C 0.18164 0.503 0.34391 0.0
N237 N 0.20267 0.46933 0.41576 0.0
C238 C 0.16035 0.47064 0.35877 0.0
C239 C 0.21366 0.51817 0.36552 0.0
C240 C 0.17144 0.45405 0.39516 0.0
C241 C 0.2238 0.50076 0.40182 0.0
C242 C 0.09494 0.43114 0.25376 0.0
C243 C 0.10511 0.37997 0.20479 0.0
N244 N 0.07382 0.35949 0.21997 0.0
C245 C 0.06286 0.40967 0.26882 0.0
C246 C 0.11625 0.41626 0.22144 0.0
C247 C 0.05267 0.37346 0.25136 0.0
C248 C 0.03982 0.51795 0.33834 0.0
N249 N 0.079 0.52604 0.34336 0.0
C250 C 0.06741 0.54725 0.41014 0.0
C251 C 0.09304 0.54086 0.37823 0.0
C252 C 0.02663 0.53922 0.40599 0.0
C253 C 0.01299 0.52452 0.36927 0.0
H254 H 0.02936 0.5068 0.31005 0.0
H255 H 0.12415 0.54794 0.38136 0.0
C256 C 0.23674 0.4364 0.26903 0.0
N257 N 0.19756 0.43157 0.27714 0.0
C258 C 0.26346 0.40536 0.27551 0.0
C259 C 0.20896 0.36478 0.29825 0.0
C260 C 0.18344 0.39679 0.29195 0.0
C261 C 0.24972 0.36872 0.29016 0.0
H262 H 0.24727 0.46461 0.25788 0.0
H263 H 0.15235 0.39381 0.29906 0.0
C264 C 0.09482 0.59267 0.2719 0.0
N265 N 0.07362 0.66423 0.30567 0.0
C266 C 0.06266 0.61403 0.25677 0.0
C267 C 0.11615 0.60763 0.30427 0.0
C268 C 0.05243 0.65019 0.27423 0.0
C269 C 0.10497 0.64387 0.32091 0.0
C270 C 0.18168 0.5211 0.18207 0.0
C271 C 0.16037 0.55336 0.16702 0.0
C272 C 0.21381 0.50605 0.16073 0.0
C273 C 0.17155 0.56997 0.1307 0.0
C274 C 0.22404 0.52346 0.12449 0.0
N275 N 0.20288 0.5548 0.11036 0.0
C276 C 0.23663 0.58776 0.25659 0.0
C277 C 0.18321 0.62732 0.23384 0.0
C278 C 0.26336 0.61878 0.2499 0.0
N279 N 0.1974 0.59257 0.24866 0.0
C280 C 0.20874 0.65932 0.22734 0.0
C281 C 0.24956 0.65539 0.23524 0.0
H282 H 0.24721 0.55957 0.26773 0.0
H283 H 0.15207 0.63028 0.22684 0.0
C284 C 0.03985 0.50569 0.18701 0.0
N285 N 0.07906 0.49774 0.18221 0.0
C286 C 0.01309 0.49912 0.15591 0.0
C287 C 0.06761 0.47664 0.11531 0.0
C288 C 0.09318 0.48302 0.14739 0.0
C289 C 0.02682 0.48456 0.11923 0.0
H290 H 0.02933 0.51676 0.21526 0.0
H291 H 0.12429 0.47603 0.14443 0.0
O292 O 0.17173 0.51958 0.30816 0.0
O293 O 0.1049 0.46681 0.27038 0.0
O294 O 0.1048 0.55704 0.25529 0.0
O295 O 0.17169 0.50452 0.21778 0.0
H296 H 0.13548 0.45848 0.34249 0.0
H297 H 0.23049 0.54314 0.35431 0.0
H298 H 0.15523 0.42902 0.40703 0.0
H299 H 0.2485 0.51222 0.41889 0.0
H300 H 0.12133 0.36808 0.1798 0.0
H301 H 0.04601 0.4209 0.29374 0.0
H302 H 0.14116 0.43245 0.20936 0.0
H303 H 0.02792 0.35649 0.26273 0.0
H304 H 0.07962 0.55809 0.43786 0.0
H305 H 0.98182 0.51865 0.36416 0.0
H306 H 0.29463 0.41031 0.26961 0.0
H307 H 0.19666 0.33714 0.30903 0.0
H308 H 0.04579 0.60274 0.23181 0.0
H309 H 0.14112 0.59152 0.3164 0.0
H310 H 0.02763 0.66707 0.26281 0.0
H311 H 0.12122 0.65581 0.34594 0.0
H312 H 0.13542 0.56543 0.18312 0.0
H313 H 0.23066 0.48116 0.17209 0.0
H314 H 0.15531 0.59492 0.11869 0.0
H315 H 0.24883 0.5121 0.10762 0.0
H316 H 0.29457 0.61383 0.25566 0.0
H317 H 0.19641 0.68693 0.21653 0.0
H318 H 0.9819 0.50488 0.16085 0.0
H319 H 0.07989 0.46592 0.08764 0.0
Li320 Li 0.7275 0.6117 1.00686 0.0
Li321 Li 0.75764 0.66198 0.04843 0.0
Li322 Li 0.76903 0.662 0.97679 0.0
Li323 Li 0.79904 0.61166 0.01837 0.0
C324 C 0.68261 0.6803 0.02161 0.0
N325 N 0.61107 0.70156 0.0553 0.0
C326 C 0.66767 0.65902 0.05397 0.0
C327 C 0.66125 0.71243 1.00646 0.0
C328 C 0.63143 0.67023 0.07056 0.0
C329 C 0.6251 0.72269 0.02388 0.0
C330 C 0.77248 0.59349 0.09356 0.0
C331 C 0.82152 0.60377 0.14481 0.0
N332 N 0.80636 0.5725 0.16534 0.0
C333 C 0.75743 0.56143 0.1151 0.0
C334 C 0.80483 0.61485 0.10845 0.0
C335 C 0.77494 0.5513 0.15136 0.0
C336 C 0.68742 0.5385 1.00647 0.0
N337 N 0.68269 0.5777 0.99839 0.0
C338 C 0.61587 0.56642 0.97713 0.0
C339 C 0.64795 0.5919 0.98353 0.0
C340 C 0.61972 0.52563 0.98516 0.0
C341 C 0.65632 0.51181 0.99987 0.0
H342 H 0.71561 0.52791 0.01765 0.0
H343 H 0.64504 0.62301 0.97645 0.0
C344 C 0.75715 0.73529 0.08816 0.0
N345 N 0.74925 0.69608 0.09316 0.0
C346 C 0.75053 0.76212 0.1191 0.0
C347 C 0.72809 0.70766 0.15995 0.0
C348 C 0.73453 0.68202 0.12803 0.0
C349 C 0.73596 0.74846 0.15582 0.0
H350 H 0.76821 0.74577 0.05988 0.0
H351 H 0.72756 0.6509 0.13113 0.0
C352 C 0.75404 0.59349 0.93171 0.0
N353 N 0.72014 0.5724 0.85997 0.0
C354 C 0.769 0.56137 0.91027 0.0
C355 C 0.72176 0.61486 0.91673 0.0
C356 C 0.75148 0.55119 0.87402 0.0
C357 C 0.70506 0.60373 0.8804 0.0
C358 C 0.84412 0.68024 1.00362 0.0
C359 C 0.859 0.65898 0.97125 0.0
C360 C 0.8656 0.7123 0.0188 0.0
C361 C 0.89528 0.67017 0.95467 0.0
C362 C 0.90179 0.72253 1.0014 0.0
N363 N 0.91575 0.70144 0.96996 0.0
C364 C 0.76957 0.7353 0.93695 0.0
C365 C 0.79213 0.68201 0.89718 0.0
C366 C 0.77615 0.7621 0.90594 0.0
N367 N 0.77746 0.6961 0.93203 0.0
C368 C 0.79852 0.70762 0.86518 0.0
C369 C 0.79065 0.74841 0.86922 0.0
H370 H 0.75855 0.7458 0.96523 0.0
H371 H 0.79908 0.6509 0.89413 0.0
C372 C 0.83894 0.53842 0.0186 0.0
N373 N 0.84377 0.5776 0.02677 0.0
C374 C 0.86999 0.5117 0.02509 0.0
C375 C 0.91058 0.56622 0.04795 0.0
C376 C 0.87856 0.59173 0.04164 0.0
C377 C 0.90663 0.52545 0.03982 0.0
H378 H 0.81073 0.52788 1.0074 0.0
H379 H 0.88154 0.62282 0.04879 0.0
O380 O 0.71823 0.67028 1.00504 0.0
O381 O 0.7558 0.60339 0.05783 0.0
O382 O 0.77071 0.60343 0.96743 0.0
O383 O 0.80847 0.67024 0.02018 0.0
H384 H 0.68378 0.63408 0.06611 0.0
H385 H 0.67253 0.72926 0.98151 0.0
H386 H 0.6195 0.65403 0.09559 0.0
H387 H 0.60821 0.74747 0.01244 0.0
H388 H 0.84654 0.62004 0.1567 0.0
H389 H 0.73248 0.54454 0.10386 0.0
H390 H 0.81689 0.63975 0.09222 0.0
H391 H 0.76358 0.52656 0.16838 0.0
H392 H 0.58827 0.57877 0.96629 0.0
H393 H 0.6612 0.48062 1.00573 0.0
H394 H 0.75626 0.79331 0.114 0.0
H395 H 0.71735 0.69544 0.18766 0.0
H396 H 0.79389 0.54447 0.92157 0.0
H397 H 0.70976 0.6398 0.9329 0.0
H398 H 0.76278 0.52641 0.85708 0.0
H399 H 0.68009 0.62 0.86845 0.0
H400 H 0.8428 0.63408 0.95909 0.0
H401 H 0.85437 0.72911 0.04376 0.0
H402 H 0.90716 0.65398 0.92964 0.0
H403 H 0.91875 0.74728 0.01286 0.0
H404 H 0.77043 0.79328 0.91097 0.0
H405 H 0.8092 0.69537 0.83748 0.0
H406 H 0.86504 0.48054 0.01915 0.0
H407 H 0.93822 0.57852 0.0588 0.0
Li408 Li 0.86294 0.04824 0.2676 0.0
Li409 Li 0.91319 1.0068 0.29784 0.0
Li410 Li 0.91325 0.01818 0.2262 0.0
Li411 Li 0.86288 0.97671 0.2562 0.0
C412 C 0.93147 0.09327 0.25282 0.0
N413 N 0.95257 0.16485 0.2189 0.0
C414 C 0.96358 0.11476 0.26791 0.0
C415 C 0.91013 0.1081 0.22041 0.0
C416 C 0.97376 0.15093 0.25038 0.0
C417 C 0.92126 0.14436 0.20369 0.0
C418 C 0.84461 0.0216 0.34273 0.0
C419 C 0.80223 0.02399 0.40029 0.0
N420 N 0.82341 0.05536 0.41436 0.0
C421 C 0.86594 0.0539 0.35772 0.0
C422 C 0.81247 1.00653 0.3641 0.0
C423 C 0.85476 0.07054 0.394 0.0
C424 C 0.78966 0.08802 0.26803 0.0
N425 N 0.82888 0.09295 0.276 0.0
C426 C 0.81744 0.15967 0.29724 0.0
C427 C 0.84302 0.12775 0.29079 0.0
C428 C 0.77663 0.15561 0.28932 0.0
C429 C 0.76289 0.11896 0.27467 0.0
H430 H 0.77912 0.05979 0.25692 0.0
H431 H 0.87415 0.13081 0.2978 0.0
C432 C 0.98644 1.00631 0.33791 0.0
N433 N 0.94721 0.99836 0.34271 0.0
C434 C 0.01318 0.99967 0.36901 0.0
C435 C 0.95861 0.97714 0.40959 0.0
C436 C 0.93306 0.98359 0.37752 0.0
C437 C 0.99942 0.98504 0.40567 0.0
H438 H 0.99699 0.01741 0.30967 0.0
H439 H 0.90193 0.9766 0.38046 0.0
C440 C 0.84474 1.00334 0.18094 0.0
N441 N 0.8237 0.96958 0.10915 0.0
C442 C 0.86603 0.97101 0.16612 0.0
C443 C 0.81271 0.01843 0.15932 0.0
C444 C 0.85493 0.95437 0.12976 0.0
C445 C 0.80256 1.00098 0.12305 0.0
C446 C 0.93144 0.93175 0.27128 0.0
C447 C 0.96362 0.91041 0.25633 0.0
C448 C 0.9101 0.9168 0.30357 0.0
C449 C 0.97386 0.87427 0.27387 0.0
C450 C 0.9213 0.88057 0.3203 0.0
N451 N 0.95267 0.86023 0.30523 0.0
C452 C 0.98654 0.01833 0.18644 0.0
C453 C 0.93333 0.04129 0.14661 0.0
C454 C 0.01334 0.0248 0.15544 0.0
N455 N 0.94738 0.02649 0.18149 0.0
C456 C 0.95892 0.04759 0.11464 0.0
C457 C 0.99968 0.03948 0.11872 0.0
H458 H 0.99701 1.00718 0.21473 0.0
H459 H 0.90224 0.04843 0.14352 0.0
C460 C 0.78962 0.93672 0.25571 0.0
N461 N 0.82882 0.93194 0.24775 0.0
C462 C 0.76291 0.90563 0.24919 0.0
C463 C 0.81747 0.8651 0.22673 0.0
C464 C 0.84299 0.89717 0.23306 0.0
C465 C 0.77669 0.86899 0.23467 0.0
H466 H 0.77906 0.96492 0.26677 0.0
H467 H 0.8741 0.89422 0.22605 0.0
O468 O 0.92154 0.05763 0.26951 0.0
O469 O 0.85461 1.00499 0.30707 0.0
O470 O 0.85466 0.01996 0.21666 0.0
O471 O 0.92145 0.96738 0.25459 0.0
H472 H 0.98046 0.10357 0.29292 0.0
H473 H 0.8852 0.09189 0.2083 0.0
H474 H 0.99853 0.16792 0.26178 0.0
H475 H 0.905 0.15621 0.17862 0.0
H476 H 0.77743 0.01261 0.41718 0.0
H477 H 0.89091 0.06598 0.34161 0.0
H478 H 0.7956 0.98162 0.35278 0.0
H479 H 0.871 0.09553 0.40596 0.0
H480 H 0.82973 0.18732 0.30804 0.0
H481 H 0.73169 0.11392 0.2689 0.0
H482 H 0.04438 1.00543 0.36408 0.0
H483 H 0.9463 0.96637 0.43725 0.0
H484 H 0.8909 0.95891 0.18242 0.0
H485 H 0.79588 0.04337 0.17049 0.0
H486 H 0.87114 0.92936 0.11793 0.0
H487 H 0.77785 0.01237 0.10596 0.0
H488 H 0.9805 0.9217 0.23143 0.0
H489 H 0.88513 0.9329 0.31557 0.0
H490 H 0.99868 0.8574 0.26259 0.0
H491 H 0.90505 0.86863 0.34528 0.0
H492 H 0.0445 0.01887 0.1605 0.0
H493 H 0.9467 0.05841 0.08692 0.0
H494 H 0.73172 0.91055 0.25497 0.0
H495 H 0.8298 0.83747 0.21604 0.0
Li496 Li 0.25764 0.16198 0.54843 0.0
Li497 Li 0.2275 0.1117 0.50686 0.0
Li498 Li 0.29904 0.11166 0.51837 0.0
Li499 Li 0.26903 0.162 0.4768 0.0
C500 C 0.27248 0.09349 0.59356 0.0
N501 N 0.30636 0.0725 0.66534 0.0
C502 C 0.25743 0.06143 0.6151 0.0
C503 C 0.30483 0.11485 0.60845 0.0
C504 C 0.27494 0.0513 0.65136 0.0
C505 C 0.32152 0.10377 0.64481 0.0
C506 C 0.18261 0.1803 0.52161 0.0
C507 C 0.1251 0.22269 0.52388 0.0
N508 N 0.11107 0.20156 0.5553 0.0
C509 C 0.16767 0.15902 0.55397 0.0
C510 C 0.16125 0.21243 0.50646 0.0
C511 C 0.13143 0.17023 0.57057 0.0
C512 C 0.25715 0.23529 0.58816 0.0
N513 N 0.24925 0.19608 0.59316 0.0
C514 C 0.22809 0.20766 0.65995 0.0
C515 C 0.23453 0.18202 0.62803 0.0
C516 C 0.23596 0.24846 0.65582 0.0
C517 C 0.25053 0.26212 0.6191 0.0
H518 H 0.26821 0.24577 0.55988 0.0
H519 H 0.22756 0.1509 0.63113 0.0
C520 C 0.18742 0.0385 0.50647 0.0
N521 N 0.18269 0.0777 0.49839 0.0
C522 C 0.15632 0.01181 0.49987 0.0
C523 C 0.11587 0.06642 0.47713 0.0
C524 C 0.14795 0.0919 0.48353 0.0
C525 C 0.11972 0.02563 0.48516 0.0
H526 H 0.21561 0.02791 0.51765 0.0
H527 H 0.14504 0.12301 0.47645 0.0
C528 C 0.34412 0.18024 0.50362 0.0
N529 N 0.41575 0.20144 0.46996 0.0
C530 C 0.359 0.15898 0.47125 0.0
C531 C 0.3656 0.2123 0.5188 0.0
C532 C 0.39528 0.17017 0.45467 0.0
C533 C 0.40179 0.22254 0.5014 0.0
C534 C 0.25404 0.09349 0.43171 0.0
C535 C 0.269 0.06137 0.41027 0.0
C536 C 0.22176 0.11486 0.41673 0.0
C537 C 0.25148 0.05119 0.37402 0.0
C538 C 0.20506 0.10373 0.3804 0.0
N539 N 0.22014 0.0724 0.35997 0.0
C540 C 0.33895 0.03842 0.5186 0.0
C541 C 0.37856 0.09173 0.54164 0.0
C542 C 0.37 0.0117 0.52509 0.0
N543 N 0.34377 0.0776 0.52677 0.0
C544 C 0.41058 0.06622 0.54795 0.0
C545 C 0.40664 0.02545 0.53982 0.0
H546 H 0.31073 0.02788 0.5074 0.0
H547 H 0.38154 0.12282 0.54879 0.0
C548 C 0.26957 0.2353 0.43695 0.0
N549 N 0.27746 0.1961 0.43203 0.0
C550 C 0.27615 0.2621 0.40594 0.0
C551 C 0.29852 0.20762 0.36518 0.0
C552 C 0.29213 0.18201 0.39718 0.0
C553 C 0.29065 0.24841 0.36922 0.0
H554 H 0.25855 0.2458 0.46523 0.0
H555 H 0.29908 0.1509 0.39413 0.0
O556 O 0.2558 0.10339 0.55783 0.0
O557 O 0.21823 0.17028 0.50504 0.0
O558 O 0.30847 0.17024 0.52018 0.0
O559 O 0.27071 0.10343 0.46743 0.0
H560 H 0.23248 0.04454 0.60386 0.0
H561 H 0.31689 0.13975 0.59222 0.0
H562 H 0.26358 0.02656 0.66838 0.0
H563 H 0.34654 0.12004 0.6567 0.0
H564 H 0.10821 0.24747 0.51244 0.0
H565 H 0.18378 0.13408 0.56611 0.0
H566 H 0.17253 0.22926 0.48151 0.0
H567 H 0.1195 0.15403 0.59559 0.0
H568 H 0.21735 0.19544 0.68766 0.0
H569 H 0.25626 0.29331 0.614 0.0
H570 H 0.1612 0.98062 0.50573 0.0
H571 H 0.08827 0.07877 0.46629 0.0
H572 H 0.3428 0.13408 0.45909 0.0
H573 H 0.35437 0.22911 0.54376 0.0
H574 H 0.40716 0.15398 0.42964 0.0
H575 H 0.41875 0.24728 0.51286 0.0
H576 H 0.29389 0.04447 0.42157 0.0
H577 H 0.20976 0.1398 0.4329 0.0
H578 H 0.26278 0.02641 0.35708 0.0
H579 H 0.18009 0.12 0.36845 0.0
H580 H 0.36504 0.98054 0.51915 0.0
H581 H 0.43822 0.07852 0.5588 0.0
H582 H 0.27043 0.29328 0.41097 0.0
H583 H 0.3092 0.19537 0.33748 0.0
Li584 Li 0.41319 0.5068 0.79784 0.0
Li585 Li 0.36294 0.54824 0.7676 0.0
Li586 Li 0.36288 0.47671 0.7562 0.0
Li587 Li 0.41325 0.51818 0.7262 0.0
C588 C 0.34461 0.5216 0.84273 0.0
N589 N 0.32341 0.55536 0.91436 0.0
C590 C 0.36594 0.5539 0.85772 0.0
C591 C 0.31247 0.50653 0.8641 0.0
C592 C 0.35476 0.57054 0.894 0.0
C593 C 0.30223 0.52399 0.90029 0.0
C594 C 0.43147 0.59327 0.75282 0.0
C595 C 0.42126 0.64436 0.70369 0.0
N596 N 0.45257 0.66485 0.7189 0.0
C597 C 0.46358 0.61476 0.76791 0.0
C598 C 0.41013 0.6081 0.72041 0.0
C599 C 0.47376 0.65093 0.75038 0.0
C600 C 0.48644 0.50631 0.83791 0.0
N601 N 0.44721 0.49836 0.84271 0.0
C602 C 0.45861 0.47714 0.90959 0.0
C603 C 0.43306 0.48359 0.87752 0.0
C604 C 0.49942 0.48504 0.90567 0.0
C605 C 0.51318 0.49967 0.86901 0.0
H606 H 0.49699 0.51741 0.80967 0.0
H607 H 0.40193 0.4766 0.88046 0.0
C608 C 0.28966 0.58802 0.76803 0.0
N609 N 0.32888 0.59295 0.776 0.0
C610 C 0.26289 0.61896 0.77467 0.0
C611 C 0.31744 0.65967 0.79724 0.0
C612 C 0.34302 0.62775 0.79079 0.0
C613 C 0.27663 0.65561 0.78932 0.0
H614 H 0.27912 0.55979 0.75692 0.0
H615 H 0.37415 0.63081 0.7978 0.0
C616 C 0.43144 0.43175 0.77128 0.0
N617 N 0.45267 0.36023 0.80523 0.0
C618 C 0.46362 0.41041 0.75633 0.0
C619 C 0.4101 0.4168 0.80357 0.0
C620 C 0.47386 0.37427 0.77387 0.0
C621 C 0.4213 0.38057 0.8203 0.0
C622 C 0.34474 0.50334 0.68094 0.0
C623 C 0.36603 0.47101 0.66612 0.0
C624 C 0.31271 0.51843 0.65932 0.0
C625 C 0.35493 0.45437 0.62976 0.0
C626 C 0.30256 0.50098 0.62305 0.0
N627 N 0.3237 0.46958 0.60915 0.0
C628 C 0.28962 0.43672 0.75571 0.0
C629 C 0.34299 0.39717 0.73306 0.0
C630 C 0.26291 0.40563 0.74919 0.0
N631 N 0.32882 0.43194 0.74775 0.0
C632 C 0.31747 0.3651 0.72673 0.0
C633 C 0.27669 0.36899 0.73467 0.0
H634 H 0.27906 0.46492 0.76677 0.0
H635 H 0.3741 0.39422 0.72605 0.0
C636 C 0.48654 0.51833 0.68644 0.0
N637 N 0.44738 0.52649 0.68149 0.0
C638 C 0.51334 0.5248 0.65544 0.0
C639 C 0.45892 0.54759 0.61464 0.0
C640 C 0.43333 0.54129 0.64661 0.0
C641 C 0.49968 0.53948 0.61872 0.0
H642 H 0.49701 0.50718 0.71473 0.0
H643 H 0.40224 0.54843 0.64352 0.0
O644 O 0.35461 0.50499 0.80707 0.0
O645 O 0.42154 0.55763 0.76951 0.0
O646 O 0.42145 0.46738 0.75459 0.0
O647 O 0.35466 0.51996 0.71666 0.0
H648 H 0.39091 0.56598 0.84161 0.0
H649 H 0.2956 0.48161 0.85278 0.0
H650 H 0.371 0.59553 0.90596 0.0
H651 H 0.27743 0.51261 0.91718 0.0
H652 H 0.405 0.65621 0.67862 0.0
H653 H 0.48046 0.60357 0.79292 0.0
H654 H 0.3852 0.59189 0.7083 0.0
H655 H 0.49853 0.66792 0.76178 0.0
H656 H 0.4463 0.46637 0.93725 0.0
H657 H 0.54438 0.50543 0.86408 0.0
H658 H 0.23169 0.61392 0.7689 0.0
H659 H 0.32973 0.68732 0.80804 0.0
H660 H 0.4805 0.4217 0.73143 0.0
H661 H 0.38513 0.4329 0.81557 0.0
H662 H 0.49868 0.3574 0.76259 0.0
H663 H 0.40505 0.36863 0.84528 0.0
H664 H 0.3909 0.45891 0.68242 0.0
H665 H 0.29588 0.54337 0.67049 0.0
H666 H 0.37114 0.42936 0.61793 0.0
H667 H 0.27785 0.51237 0.60596 0.0
H668 H 0.23172 0.41055 0.75497 0.0
H669 H 0.3298 0.33747 0.71604 0.0
H670 H 0.5445 0.51887 0.6605 0.0
H671 H 0.4467 0.55841 0.58692 0.0
Li672 Li 0.79867 0.41215 0.50655 0.0
Li673 Li 0.76859 0.36186 0.54811 0.0
Li674 Li 0.75711 0.36184 0.47647 0.0
Li675 Li 0.72713 0.41216 0.51797 0.0
C676 C 0.84361 0.34359 0.52151 0.0
N677 N 0.91524 0.3224 0.55538 0.0
C678 C 0.85861 0.3649 0.55386 0.0
C679 C 0.86497 0.31147 0.50645 0.0
C680 C 0.89488 0.35372 0.57056 0.0
C681 C 0.90117 0.30125 0.52396 0.0
C682 C 0.75392 0.43042 0.59313 0.0
C683 C 0.70503 0.42031 0.64436 0.0
N684 N 0.72028 0.45162 0.6648 0.0
C685 C 0.76906 0.46254 0.61457 0.0
C686 C 0.72161 0.40913 0.60807 0.0
C687 C 0.75166 0.47277 0.65079 0.0
C688 C 0.83856 0.48543 0.50592 0.0
N689 N 0.84342 0.4462 0.49808 0.0
C690 C 0.9102 0.45761 0.47701 0.0
C691 C 0.87821 0.43206 0.48342 0.0
C692 C 0.90623 0.49842 0.48483 0.0
C693 C 0.86958 0.51218 0.49931 0.0
H694 H 0.81034 0.49597 0.51693 0.0
H695 H 0.88121 0.40093 0.4765 0.0
C696 C 0.7689 0.28861 0.58808 0.0
N697 N 0.777 0.3278 0.59292 0.0
C698 C 0.77548 0.26185 0.61915 0.0
C699 C 0.79826 0.31636 0.65979 0.0
C700 C 0.79186 0.34191 0.62775 0.0
C701 C 0.79021 0.27558 0.65583 0.0
H702 H 0.75772 0.27809 0.55983 0.0
H703 H 0.79896 0.37302 0.63074 0.0
C704 C 0.77191 0.43037 0.43135 0.0
N705 N 0.80558 0.4515 0.35963 0.0
C706 C 0.75681 0.46244 0.40983 0.0
C707 C 0.8042 0.40908 0.41647 0.0
C708 C 0.77421 0.47263 0.3736 0.0
C709 C 0.82079 0.42022 0.38014 0.0
C710 C 0.68203 0.34365 0.50307 0.0
C711 C 0.66714 0.36498 0.47068 0.0
C712 C 0.66053 0.31158 0.51815 0.0
C713 C 0.63083 0.35388 0.45398 0.0
C714 C 0.62431 0.30143 0.50064 0.0
N715 N 0.61034 0.32261 0.46918 0.0
C716 C 0.75692 0.2886 0.43652 0.0
C717 C 0.73388 0.34186 0.39685 0.0
C718 C 0.75044 0.26185 0.40543 0.0
N719 N 0.74873 0.32776 0.43169 0.0
C720 C 0.72757 0.31631 0.36479 0.0
C721 C 0.73571 0.27556 0.36875 0.0
H722 H 0.76811 0.27809 0.46478 0.0
H723 H 0.72672 0.37294 0.39386 0.0
C724 C 0.6874 0.48545 0.5185 0.0
N725 N 0.68245 0.44624 0.5264 0.0
C726 C 0.65646 0.51224 0.52511 0.0
C727 C 0.61573 0.45771 0.54755 0.0
C728 C 0.64764 0.43213 0.54112 0.0
C729 C 0.61979 0.49851 0.53967 0.0
H730 H 0.71563 0.49598 0.50744 0.0
H731 H 0.64457 0.401 0.5481 0.0
O732 O 0.80796 0.35358 0.50484 0.0
O733 O 0.77047 0.42044 0.55745 0.0
O734 O 0.75535 0.42041 0.46706 0.0
O735 O 0.71771 0.35357 0.51976 0.0
H736 H 0.8425 0.38985 0.56593 0.0
H737 H 0.85366 0.29462 0.48149 0.0
H738 H 0.90684 0.36995 0.59558 0.0
H739 H 0.91805 0.27647 0.51259 0.0
H740 H 0.68004 0.40409 0.65629 0.0
H741 H 0.79398 0.47938 0.6033 0.0
H742 H 0.70948 0.38419 0.59189 0.0
H743 H 0.76309 0.49755 0.66773 0.0
H744 H 0.93785 0.44531 0.46634 0.0
H745 H 0.86459 0.54338 0.50499 0.0
H746 H 0.7696 0.23067 0.61418 0.0
H747 H 0.80911 0.32863 0.68747 0.0
H748 H 0.7319 0.47928 0.42107 0.0
H749 H 0.81631 0.38418 0.4327 0.0
H750 H 0.76281 0.49737 0.3566 0.0
H751 H 0.84577 0.40401 0.36826 0.0
H752 H 0.68335 0.38989 0.45859 0.0
H753 H 0.67176 0.29472 0.54314 0.0
H754 H 0.61895 0.37012 0.42893 0.0
H755 H 0.60732 0.27669 0.51203 0.0
H756 H 0.75639 0.23069 0.41039 0.0
H757 H 0.71672 0.32858 0.33711 0.0
H758 H 0.66152 0.54343 0.51938 0.0
H759 H 0.58806 0.44544 0.55827 0.0
Li760 Li 0.66348 0.97627 0.7687 0.0
Li761 Li 0.61313 0.01767 0.79867 0.0
Li762 Li 0.61312 1.00622 0.72704 0.0
Li763 Li 0.66339 0.04779 0.75717 0.0
C764 C 0.59494 0.93114 0.75376 0.0
N765 N 0.57382 0.85949 0.71997 0.0
C766 C 0.56286 0.90967 0.76882 0.0
C767 C 0.61625 0.91626 0.72144 0.0
C768 C 0.55267 0.87346 0.75136 0.0
C769 C 0.60511 0.87997 0.70479 0.0
C770 C 0.68164 1.003 0.84391 0.0
C771 C 0.7238 1.00076 0.90182 0.0
N772 N 0.70267 0.96933 0.91576 0.0
C773 C 0.66035 0.97064 0.85877 0.0
C774 C 0.71366 0.01817 0.86552 0.0
C775 C 0.67144 0.95405 0.89516 0.0
C776 C 0.73674 0.9364 0.76903 0.0
N777 N 0.69756 0.93157 0.77714 0.0
C778 C 0.70896 0.86478 0.79825 0.0
C779 C 0.68344 0.89679 0.79195 0.0
C780 C 0.74972 0.86872 0.79016 0.0
C781 C 0.76346 0.90536 0.77551 0.0
H782 H 0.74727 0.96461 0.75788 0.0
H783 H 0.65235 0.89381 0.79906 0.0
C784 C 0.53982 0.01795 0.83834 0.0
N785 N 0.579 0.02604 0.84336 0.0
C786 C 0.51299 0.02452 0.86927 0.0
C787 C 0.56741 0.04725 0.91014 0.0
C788 C 0.59304 0.04086 0.87823 0.0
C789 C 0.52663 0.03922 0.90599 0.0
H790 H 0.52936 1.0068 0.81005 0.0
H791 H 0.62415 0.04794 0.88136 0.0
C792 C 0.68168 0.0211 0.68207 0.0
N793 N 0.70288 0.0548 0.61036 0.0
C794 C 0.66037 0.05336 0.66702 0.0
C795 C 0.71381 1.00605 0.66073 0.0
C796 C 0.67155 0.06997 0.6307 0.0
C797 C 0.72404 0.02346 0.62449 0.0
C798 C 0.59482 0.09267 0.7719 0.0
C799 C 0.56266 0.11403 0.75677 0.0
C800 C 0.61615 0.10763 0.80427 0.0
C801 C 0.55243 0.15019 0.77423 0.0
C802 C 0.60497 0.14387 0.82091 0.0
N803 N 0.57362 0.16423 0.80567 0.0
C804 C 0.53985 1.00569 0.68701 0.0
C805 C 0.59318 0.98302 0.64739 0.0
C806 C 0.51309 0.99912 0.65591 0.0
N807 N 0.57906 0.99774 0.68221 0.0
C808 C 0.56761 0.97664 0.61531 0.0
C809 C 0.52682 0.98456 0.61923 0.0
H810 H 0.52933 0.01676 0.71526 0.0
H811 H 0.62429 0.97603 0.64443 0.0
C812 C 0.73663 0.08776 0.75659 0.0
N813 N 0.6974 0.09257 0.74866 0.0
C814 C 0.76336 0.11878 0.7499 0.0
C815 C 0.70874 0.15932 0.72734 0.0
C816 C 0.68321 0.12732 0.73384 0.0
C817 C 0.74956 0.15539 0.73524 0.0
H818 H 0.74721 0.05957 0.76773 0.0
H819 H 0.65207 0.13028 0.72684 0.0
O820 O 0.6049 0.96681 0.77038 0.0
O821 O 0.67173 0.01958 0.80816 0.0
O822 O 0.67169 1.00452 0.71778 0.0
O823 O 0.6048 0.05704 0.75529 0.0
H824 H 0.54601 0.9209 0.79374 0.0
H825 H 0.64116 0.93245 0.70936 0.0
H826 H 0.52792 0.85649 0.76273 0.0
H827 H 0.62133 0.86808 0.6798 0.0
H828 H 0.7485 0.01222 0.91889 0.0
H829 H 0.63548 0.95848 0.84249 0.0
H830 H 0.73049 0.04314 0.85431 0.0
H831 H 0.65523 0.92902 0.90703 0.0
H832 H 0.69666 0.83714 0.80903 0.0
H833 H 0.79463 0.91031 0.76961 0.0
H834 H 0.48182 0.01865 0.86416 0.0
H835 H 0.57962 0.05809 0.93786 0.0
H836 H 0.63542 0.06543 0.68312 0.0
H837 H 0.73066 0.98117 0.67209 0.0
H838 H 0.65532 0.09492 0.61869 0.0
H839 H 0.74883 0.0121 0.60762 0.0
H840 H 0.54579 0.10274 0.73181 0.0
H841 H 0.64112 0.09152 0.8164 0.0
H842 H 0.52763 0.16707 0.76281 0.0
H843 H 0.62122 0.15581 0.84594 0.0
H844 H 0.4819 1.00488 0.66085 0.0
H845 H 0.57989 0.96592 0.58764 0.0
H846 H 0.79457 0.11383 0.75566 0.0
H847 H 0.6964 0.18693 0.71653 0.0
Li848 Li 0.0492 0.26814 0.86209 0.0
Li849 Li 1.00776 0.29809 0.91244 0.0
Li850 Li 0.01934 0.22658 0.9125 0.0
Li851 Li 0.97769 0.2565 0.86212 0.0
C852 C 0.09438 0.25345 0.93076 0.0
N853 N 0.16609 0.21989 0.95196 0.0
C854 C 0.11584 0.26857 0.96291 0.0
C855 C 0.10931 0.2212 0.90942 0.0
C856 C 0.15208 0.25122 0.97314 0.0
C857 C 0.14563 0.20466 0.9206 0.0
C858 C 0.02236 0.34311 0.84376 0.0
C859 C 0.02454 0.40073 0.80136 0.0
N860 N 0.05593 0.41482 0.82255 0.0
C861 C 0.05468 0.35812 0.8651 0.0
C862 C 1.00718 0.3645 0.8116 0.0
C863 C 0.07122 0.39443 0.85392 0.0
C864 C 0.08906 0.26839 0.78876 0.0
N865 N 0.09388 0.27661 0.82799 0.0
C866 C 0.16061 0.29788 0.81659 0.0
C867 C 0.12863 0.29154 0.84214 0.0
C868 C 0.15668 0.28969 0.77578 0.0
C869 C 0.12007 0.2749 0.76201 0.0
H870 H 0.06087 0.25713 0.7782 0.0
H871 H 0.1316 0.29873 0.87327 0.0
C872 C 1.00724 0.33793 0.9858 0.0
N873 N 0.99925 0.34279 0.94652 0.0
C874 C 1.00058 0.36889 0.01259 0.0
C875 C 0.97792 0.40948 0.95794 0.0
C876 C 0.9844 0.37754 0.93235 0.0
C877 C 0.98589 0.40549 0.9988 0.0
H878 H 0.01839 0.30974 0.99636 0.0
H879 H 0.97737 0.38054 0.90117 0.0
C880 C 1.00444 0.18154 0.84385 0.0
N881 N 0.97079 0.10983 0.82268 0.0
C882 C 0.97222 0.16651 0.86521 0.0
C883 C 0.01949 0.16016 0.8117 0.0
C884 C 0.95563 0.1302 0.85404 0.0
C885 C 1.00209 0.12393 0.80148 0.0
C886 C 0.93282 0.27122 0.9308 0.0
C887 C 0.91154 0.25612 0.96301 0.0
C888 C 0.91777 0.30346 0.90943 0.0
C889 C 0.87536 0.27347 0.97326 0.0
C890 C 0.88151 0.32 0.92064 0.0
N891 N 0.86122 0.30479 0.95205 0.0
C892 C 0.01983 0.18658 0.98583 0.0
C893 C 0.04269 0.14713 0.9324 0.0
C894 C 0.02637 0.1555 0.01257 0.0
N895 N 0.02788 0.18184 0.94658 0.0
C896 C 0.04904 0.11508 0.95793 0.0
C897 C 0.04099 0.11891 0.99876 0.0
H898 H 1.00868 0.21474 0.99641 0.0
H899 H 0.04976 0.14422 0.90125 0.0
C900 C 0.93756 0.25597 0.78881 0.0
N901 N 0.93288 0.24794 0.82808 0.0
C902 C 0.90644 0.24934 0.76208 0.0
C903 C 0.86609 0.22662 0.81679 0.0
C904 C 0.89818 0.23307 0.8423 0.0
C905 C 0.86988 0.23464 0.77593 0.0
H906 H 0.96571 0.26715 0.7782 0.0
H907 H 0.89532 0.22601 0.87347 0.0
O908 O 0.05868 0.26997 0.92077 0.0
O909 O 1.00583 0.30742 0.85376 0.0
O910 O 0.021 0.21723 0.85384 0.0
O911 O 0.96847 0.25471 0.92078 0.0
H912 H 0.10458 0.29346 0.97979 0.0
H913 H 0.09312 0.20907 0.88445 0.0
H914 H 0.16904 0.26264 0.99795 0.0
H915 H 0.15755 0.17971 0.90435 0.0
H916 H 0.01308 0.41763 0.77655 0.0
H917 H 0.06684 0.342 0.89008 0.0
H918 H 0.98225 0.35317 0.79472 0.0
H919 H 0.09622 0.40641 0.87017 0.0
H920 H 0.18823 0.30879 0.82891 0.0
H921 H 0.11512 0.26891 0.7308 0.0
H922 H 1.00639 0.3639 0.04383 0.0
H923 H 0.96709 0.43709 0.94562 0.0
H924 H 0.96016 0.18263 0.89018 0.0
H925 H 0.04435 0.1715 0.79481 0.0
H926 H 0.93071 0.11821 0.8703 0.0
H927 H 0.01345 0.10704 0.77668 0.0
H928 H 0.9229 0.23125 0.9799 0.0
H929 H 0.93382 0.31557 0.88442 0.0
H930 H 0.85853 0.26207 0.99811 0.0
H931 H 0.8695 0.34494 0.90436 0.0
H932 H 0.02051 0.16038 0.04379 0.0
H933 H 0.05981 0.08748 0.94559 0.0
H934 H 0.91128 0.25518 0.73084 0.0
H935 H 0.83852 0.21579 0.82916 0.0
Li936 Li 0.5492 0.76814 0.36209 0.0
Li937 Li 0.50776 0.79809 0.41244 0.0
Li938 Li 0.51934 0.72658 0.4125 0.0
Li939 Li 0.47769 0.7565 0.36212 0.0
C940 C 0.59438 0.75345 0.43076 0.0
N941 N 0.66609 0.71989 0.45196 0.0
C942 C 0.61584 0.76857 0.46291 0.0
C943 C 0.60931 0.7212 0.40942 0.0
C944 C 0.65208 0.75122 0.47314 0.0
C945 C 0.64563 0.70466 0.4206 0.0
C946 C 0.52236 0.84311 0.34376 0.0
C947 C 0.52454 0.90073 0.30136 0.0
N948 N 0.55593 0.91482 0.32255 0.0
C949 C 0.55468 0.85812 0.3651 0.0
C950 C 0.50718 0.8645 0.3116 0.0
C951 C 0.57122 0.89443 0.35392 0.0
C952 C 0.58906 0.76839 0.28876 0.0
N953 N 0.59388 0.77661 0.32799 0.0
C954 C 0.66061 0.79788 0.31659 0.0
C955 C 0.62863 0.79154 0.34214 0.0
C956 C 0.65668 0.78969 0.27578 0.0
C957 C 0.62007 0.7749 0.26201 0.0
H958 H 0.56087 0.75713 0.2782 0.0
H959 H 0.6316 0.79873 0.37327 0.0
C960 C 0.50724 0.83793 0.4858 0.0
N961 N 0.49925 0.84279 0.44652 0.0
C962 C 0.50058 0.86889 0.51259 0.0
C963 C 0.47792 0.90948 0.45794 0.0
C964 C 0.4844 0.87754 0.43235 0.0
C965 C 0.48589 0.90549 0.4988 0.0
H966 H 0.51839 0.80974 0.49636 0.0
H967 H 0.47737 0.88054 0.40117 0.0
C968 C 0.50444 0.68154 0.34385 0.0
N969 N 0.47079 0.60983 0.32268 0.0
C970 C 0.47222 0.66651 0.36521 0.0
C971 C 0.51949 0.66016 0.3117 0.0
C972 C 0.45563 0.6302 0.35404 0.0
C973 C 0.50209 0.62393 0.30148 0.0
C974 C 0.43282 0.77122 0.4308 0.0
C975 C 0.41154 0.75612 0.46301 0.0
C976 C 0.41777 0.80346 0.40943 0.0
C977 C 0.37536 0.77348 0.47326 0.0
C978 C 0.38151 0.82 0.42064 0.0
N979 N 0.36123 0.80479 0.45205 0.0
C980 C 0.51983 0.68658 0.48583 0.0
C981 C 0.54269 0.64713 0.4324 0.0
C982 C 0.52637 0.6555 0.51257 0.0
N983 N 0.52788 0.68184 0.44658 0.0
C984 C 0.54904 0.61508 0.45793 0.0
C985 C 0.54099 0.61891 0.49876 0.0
H986 H 0.50868 0.71474 0.49641 0.0
H987 H 0.54976 0.64422 0.40125 0.0
C988 C 0.43756 0.75597 0.28881 0.0
N989 N 0.43288 0.74794 0.32808 0.0
C990 C 0.40644 0.74934 0.26208 0.0
C991 C 0.36609 0.72662 0.31679 0.0
C992 C 0.39818 0.73307 0.3423 0.0
C993 C 0.36988 0.73464 0.27593 0.0
H994 H 0.46571 0.76715 0.2782 0.0
H995 H 0.39532 0.72601 0.37347 0.0
O996 O 0.55868 0.76997 0.42077 0.0
O997 O 0.50583 0.80742 0.35376 0.0
O998 O 0.521 0.71723 0.35384 0.0
O999 O 0.46847 0.75471 0.42078 0.0
H1000 H 0.60458 0.79346 0.47979 0.0
H1001 H 0.59312 0.70907 0.38445 0.0
H1002 H 0.66904 0.76264 0.49795 0.0
H1003 H 0.65755 0.67971 0.40435 0.0
H1004 H 0.51308 0.91763 0.27655 0.0
H1005 H 0.56684 0.842 0.39008 0.0
H1006 H 0.48225 0.85317 0.29472 0.0
H1007 H 0.59622 0.90641 0.37017 0.0
H1008 H 0.68823 0.80879 0.32891 0.0
H1009 H 0.61512 0.76891 0.2308 0.0
H1010 H 0.50639 0.8639 0.54383 0.0
H1011 H 0.46709 0.93709 0.44562 0.0
H1012 H 0.46016 0.68263 0.39018 0.0
H1013 H 0.54435 0.6715 0.29481 0.0
H1014 H 0.43071 0.61821 0.3703 0.0
H1015 H 0.51345 0.60704 0.27668 0.0
H1016 H 0.4229 0.73125 0.4799 0.0
H1017 H 0.43382 0.81557 0.38442 0.0
H1018 H 0.35853 0.76207 0.49811 0.0
H1019 H 0.3695 0.84494 0.40436 0.0
H1020 H 0.52051 0.66038 0.54379 0.0
H1021 H 0.55981 0.58748 0.44559 0.0
H1022 H 0.41128 0.75518 0.23084 0.0
H1023 H 0.33852 0.71579 0.32916 0.0
Li1024 Li 0.01832 0.79795 0.61211 0.0
Li1025 Li 0.97688 0.76788 0.66245 0.0
Li1026 Li 0.0484 0.75634 0.66241 0.0
Li1027 Li 1.00674 0.72643 0.61202 0.0
C1028 C 1.00376 0.84285 0.68083 0.0
N1029 N 0.97021 0.91446 0.70212 0.0
C1030 C 0.97145 0.85785 0.6595 0.0
C1031 C 0.01894 0.8642 0.71302 0.0
C1032 C 0.95492 0.89412 0.67073 0.0
C1033 C 1.0016 0.90038 0.72329 0.0
C1034 C 0.93167 0.75317 0.59384 0.0
C1035 C 0.88045 0.70426 0.60409 0.0
N1036 N 0.85993 0.71947 0.57277 0.0
C1037 C 0.91015 0.76826 0.56172 0.0
C1038 C 0.91679 0.72086 0.61521 0.0
C1039 C 0.8739 0.75084 0.55156 0.0
C1040 C 0.01877 0.83798 0.53881 0.0
N1041 N 0.02683 0.84273 0.57809 0.0
C1042 C 0.04823 0.90946 0.56679 0.0
C1043 C 0.04175 0.87744 0.59231 0.0
C1044 C 0.0402 0.90559 0.52592 0.0
C1045 C 0.02544 0.86903 0.51208 0.0
H1046 H 1.00756 0.80982 0.5282 0.0
H1047 H 0.04883 0.88035 0.62349 0.0
C1048 C 0.93716 0.76823 0.73584 0.0
N1049 N 0.93224 0.77632 0.69659 0.0
C1050 C 0.90623 0.77479 0.76265 0.0
C1051 C 0.86555 0.79756 0.70809 0.0
C1052 C 0.89746 0.79118 0.68248 0.0
C1053 C 0.8696 0.78949 0.74893 0.0
H1054 H 0.96537 0.75705 0.74636 0.0
H1055 H 0.89441 0.79828 0.65133 0.0
C1056 C 0.09325 0.77124 0.59373 0.0
N1057 N 0.16483 0.80499 0.57245 0.0
C1058 C 0.11449 0.75626 0.56146 0.0
C1059 C 0.10834 0.80345 0.61513 0.0
C1060 C 0.15067 0.7737 0.5512 0.0
C1061 C 0.14459 0.82008 0.60391 0.0
C1062 C 0.02159 0.68132 0.68067 0.0
C1063 C 0.05382 0.66636 0.65933 0.0
C1064 C 1.00652 0.65991 0.71282 0.0
C1065 C 0.07037 0.63006 0.67051 0.0
C1066 C 0.02388 0.62369 0.72304 0.0
N1067 N 0.05518 0.60965 0.70186 0.0
C1068 C 0.0885 0.75569 0.73572 0.0
C1069 C 0.12791 0.73301 0.68221 0.0
C1070 C 0.1196 0.74907 0.76245 0.0
N1071 N 0.09321 0.74777 0.69644 0.0
C1072 C 0.15999 0.72657 0.70774 0.0
C1073 C 0.15618 0.73449 0.7486 0.0
H1074 H 0.06034 0.76679 0.74633 0.0
H1075 H 0.13079 0.72603 0.65104 0.0
C1076 C 1.00645 0.68643 0.5387 0.0
N1077 N 0.99825 0.68171 0.57792 0.0
C1078 C 0.99998 0.65534 0.51197 0.0
C1079 C 0.97708 0.61491 0.56659 0.0
C1080 C 0.98337 0.64698 0.5921 0.0
C1081 C 0.98526 0.61875 0.52578 0.0
H1082 H 0.01766 0.7146 0.52812 0.0
H1083 H 0.9762 0.64408 0.62323 0.0
O1084 O 0.02027 0.8072 0.67079 0.0
O1085 O 0.96738 0.76976 0.60377 0.0
O1086 O 0.0576 0.75466 0.60375 0.0
O1087 O 1.00506 0.71701 0.67068 0.0
H1088 H 0.95928 0.84176 0.63451 0.0
H1089 H 0.04387 0.85288 0.72988 0.0
H1090 H 0.92992 0.90609 0.65449 0.0
H1091 H 0.01307 0.91725 0.74813 0.0
H1092 H 0.86856 0.67927 0.62037 0.0
H1093 H 0.92138 0.79319 0.54482 0.0
H1094 H 0.93301 0.70876 0.64015 0.0
H1095 H 0.85689 0.76224 0.52678 0.0
H1096 H 0.05912 0.93704 0.57915 0.0
H1097 H 0.01958 0.86413 0.48083 0.0
H1098 H 0.91127 0.7689 0.79387 0.0
H1099 H 0.83791 0.80841 0.69581 0.0
H1100 H 0.1031 0.73142 0.54454 0.0
H1101 H 0.09232 0.81547 0.64018 0.0
H1102 H 0.16746 0.7624 0.52631 0.0
H1103 H 0.15663 0.845 0.62021 0.0
H1104 H 0.0659 0.68251 0.63436 0.0
H1105 H 0.98166 0.6712 0.72969 0.0
H1106 H 0.0953 0.61812 0.65425 0.0
H1107 H 0.0125 0.60677 0.74785 0.0
H1108 H 0.11475 0.75482 0.7937 0.0
H1109 H 0.18758 0.71583 0.69537 0.0
H1110 H 1.00595 0.66021 0.48077 0.0
H1111 H 0.96624 0.58731 0.57893 0.0
Li1112 Li 0.51832 0.29795 0.11211 0.0
Li1113 Li 0.47688 0.26788 0.16245 0.0
Li1114 Li 0.5484 0.25634 0.16241 0.0
Li1115 Li 0.50674 0.22643 0.11202 0.0
C1116 C 0.50376 0.34285 0.18083 0.0
N1117 N 0.47021 0.41446 0.20212 0.0
C1118 C 0.47145 0.35785 0.1595 0.0
C1119 C 0.51894 0.3642 0.21302 0.0
C1120 C 0.45492 0.39412 0.17073 0.0
C1121 C 0.5016 0.40038 0.22329 0.0
C1122 C 0.43167 0.25317 0.09384 0.0
C1123 C 0.38045 0.20426 0.10409 0.0
N1124 N 0.35993 0.21947 0.07277 0.0
C1125 C 0.41015 0.26826 0.06172 0.0
C1126 C 0.41679 0.22086 0.11521 0.0
C1127 C 0.3739 0.25084 0.05156 0.0
C1128 C 0.51877 0.33798 0.03881 0.0
N1129 N 0.52683 0.34273 0.07809 0.0
C1130 C 0.54823 0.40946 0.06679 0.0
C1131 C 0.54175 0.37744 0.09231 0.0
C1132 C 0.5402 0.40559 0.02592 0.0
C1133 C 0.52543 0.36903 0.01208 0.0
H1134 H 0.50756 0.30982 0.0282 0.0
H1135 H 0.54883 0.38035 0.12349 0.0
C1136 C 0.43716 0.26823 0.23584 0.0
N1137 N 0.43224 0.27632 0.19659 0.0
C1138 C 0.40623 0.27479 0.26265 0.0
C1139 C 0.36555 0.29756 0.20809 0.0
C1140 C 0.39746 0.29118 0.18248 0.0
C1141 C 0.3696 0.28949 0.24893 0.0
H1142 H 0.46537 0.25705 0.24636 0.0
H1143 H 0.39441 0.29828 0.15133 0.0
C1144 C 0.59325 0.27124 0.09373 0.0
N1145 N 0.66483 0.30499 0.07245 0.0
C1146 C 0.61449 0.25626 0.06146 0.0
C1147 C 0.60834 0.30345 0.11513 0.0
C1148 C 0.65067 0.2737 0.0512 0.0
C1149 C 0.64459 0.32008 0.10391 0.0
C1150 C 0.52159 0.18132 0.18067 0.0
C1151 C 0.55382 0.16636 0.15933 0.0
C1152 C 0.50652 0.15991 0.21282 0.0
C1153 C 0.57037 0.13006 0.17051 0.0
C1154 C 0.52388 0.12369 0.22304 0.0
N1155 N 0.55519 0.10965 0.20186 0.0
C1156 C 0.5885 0.25569 0.23572 0.0
C1157 C 0.62791 0.23301 0.18221 0.0
C1158 C 0.6196 0.24907 0.26245 0.0
N1159 N 0.59321 0.24777 0.19644 0.0
C1160 C 0.65999 0.22657 0.20774 0.0
C1161 C 0.65618 0.23449 0.2486 0.0
H1162 H 0.56034 0.26679 0.24633 0.0
H1163 H 0.63079 0.22603 0.15104 0.0
C1164 C 0.50645 0.18643 0.0387 0.0
N1165 N 0.49825 0.18171 0.07792 0.0
C1166 C 0.49998 0.15534 0.01197 0.0
C1167 C 0.47708 0.11491 0.06659 0.0
C1168 C 0.48337 0.14698 0.0921 0.0
C1169 C 0.48526 0.11875 0.02578 0.0
H1170 H 0.51766 0.2146 0.02812 0.0
H1171 H 0.4762 0.14408 0.12323 0.0
O1172 O 0.52027 0.3072 0.17079 0.0
O1173 O 0.46738 0.26976 0.10377 0.0
O1174 O 0.5576 0.25466 0.10375 0.0
O1175 O 0.50506 0.217 0.17068 0.0
H1176 H 0.45928 0.34176 0.13451 0.0
H1177 H 0.54387 0.35288 0.22988 0.0
H1178 H 0.42992 0.40609 0.15449 0.0
H1179 H 0.51307 0.41725 0.24813 0.0
H1180 H 0.36856 0.17927 0.12037 0.0
H1181 H 0.42138 0.29319 0.04482 0.0
H1182 H 0.43301 0.20876 0.14015 0.0
H1183 H 0.35689 0.26224 0.02678 0.0
H1184 H 0.55912 0.43704 0.07915 0.0
H1185 H 0.51958 0.36413 0.98083 0.0
H1186 H 0.41127 0.2689 0.29387 0.0
H1187 H 0.33791 0.30841 0.19581 0.0
H1188 H 0.6031 0.23142 0.04454 0.0
H1189 H 0.59232 0.31547 0.14018 0.0
H1190 H 0.66746 0.2624 0.02631 0.0
H1191 H 0.65663 0.345 0.12021 0.0
H1192 H 0.5659 0.18251 0.13436 0.0
H1193 H 0.48166 0.1712 0.22969 0.0
H1194 H 0.5953 0.11812 0.15425 0.0
H1195 H 0.5125 0.10677 0.24785 0.0
H1196 H 0.61475 0.25482 0.2937 0.0
H1197 H 0.68758 0.21583 0.19537 0.0
H1198 H 0.50595 0.16021 0.98077 0.0
H1199 H 0.46624 0.08731 0.07893 0.0
loop_
_geom_bond_atom_site_label_1
_geom_bond_atom_site_label_2
_geom_bond_distance
_geom_bond_site_symmetry_2
_ccdc_geom_bond_type
H0 C3 0.931 1_655 S
H1 C6 0.928 1_565 S
H2 C8 0.915 1_556 S
C3 H0 0.931 1_455 S
C3 C4 1.413 . S
C3 C5 1.360 . S
C4 C3 1.413 . S
C4 C8 1.433 . S
C5 C3 1.360 . S
C5 C6 1.372 . S
C6 H1 0.928 1_545 S
C6 C5 1.372 . S
C6 C7 1.404 . S
C7 C6 1.404 . S
C7 C8 1.403 . S
C8 H2 0.915 1_554 S
C8 C4 1.433 . S
C8 C7 1.403 . S
H9 C12 0.931 . S
H10 C15 0.928 . S
H11 C17 0.930 . S
C12 H9 0.931 . S
C12 C13 1.413 . S
C12 C14 1.360 . S
C13 C12 1.413 . S
C13 C17 1.429 . S
C14 C12 1.360 . S
C14 C15 1.372 . S
C15 H10 0.928 . S
C15 C14 1.372 . S
C15 C16 1.404 . S
C16 C15 1.404 . S
C16 C17 1.391 . S
C17 H11 0.930 . S
C17 C13 1.429 . S
C17 C16 1.391 . S
H18 C21 0.931 . S
H19 C24 0.928 . S
H20 C26 0.930 1_556 S
C21 H18 0.931 . S
C21 C22 1.413 . S
C21 C23 1.360 . S
C22 C21 1.413 . S
C22 C26 1.429 . S
C23 C21 1.360 . S
C23 C24 1.372 1_655 S
C24 H19 0.928 . S
C24 C23 1.372 1_455 S
C24 C25 1.404 1_455 S
C25 C24 1.404 1_655 S
C25 C26 1.391 . S
C26 H20 0.930 1_554 S
C26 C22 1.429 . S
C26 C25 1.391 . S
H27 C30 0.931 . S
H28 C33 0.928 . S
H29 C35 0.930 . S
C30 H27 0.931 . S
C30 C31 1.413 . S
C30 C32 1.360 . S
C31 C30 1.413 . S
C31 C35 1.429 . S
C32 C30 1.360 . S
C32 C33 1.372 . S
C33 H28 0.928 . S
C33 C32 1.372 . S
C33 C34 1.404 . S
C34 C33 1.404 . S
C34 C35 1.391 . S
C35 H29 0.930 . S
C35 C31 1.429 . S
C35 C34 1.391 . S
H36 C39 0.931 1_655 S
H37 C42 0.917 1_545 S
H38 C44 0.930 . S
C39 H36 0.931 1_455 S
C39 C40 1.413 . S
C39 C41 1.360 . S
C40 C39 1.413 . S
C40 C44 1.429 . S
C41 C39 1.360 . S
C41 C42 1.382 . S
C42 H37 0.917 1_565 S
C42 C41 1.382 . S
C42 C43 1.406 . S
C43 C42 1.406 . S
C43 C44 1.391 . S
C44 H38 0.930 . S
C44 C40 1.429 . S
C44 C43 1.391 . S
H45 C48 0.931 . S
H46 C51 0.928 . S
H47 C53 0.930 . S
C48 H45 0.931 . S
C48 C49 1.413 . S
C48 C50 1.360 . S
C49 C48 1.413 . S
C49 C53 1.429 . S
C50 C48 1.360 . S
C50 C51 1.372 . S
C51 H46 0.928 . S
C51 C50 1.372 . S
C51 C52 1.404 . S
C52 C51 1.404 . S
C52 C53 1.391 . S
C53 H47 0.930 . S
C53 C49 1.429 . S
C53 C52 1.391 . S
H54 C57 0.931 . S
H55 C60 0.921 1_455 S
H56 C62 0.930 . S
C57 H54 0.931 . S
C57 C58 1.413 . S
C57 C59 1.360 . S
C58 C57 1.413 . S
C58 C62 1.429 . S
C59 C57 1.360 . S
C59 C60 1.378 . S
C60 H55 0.921 1_655 S
C60 C59 1.378 . S
C60 C61 1.405 . S
C61 C60 1.405 . S
C61 C62 1.391 . S
C62 H56 0.930 . S
C62 C58 1.429 . S
C62 C61 1.391 . S
H63 C66 0.931 . S
H64 C69 0.928 . S
H65 C71 0.930 . S
C66 H63 0.931 . S
C66 C67 1.413 . S
C66 C68 1.360 . S
C67 C66 1.413 . S
C67 C71 1.429 . S
C68 C66 1.360 . S
C68 C69 1.372 . S
C69 H64 0.928 . S
C69 C68 1.372 . S
C69 C70 1.404 . S
C70 C69 1.404 . S
C70 C71 1.391 . S
C71 H65 0.930 . S
C71 C67 1.429 . S
C71 C70 1.391 . S
H72 C75 0.931 . S
H73 C78 0.928 . S
H74 C80 0.930 . S
C75 H72 0.931 . S
C75 C76 1.413 . S
C75 C77 1.360 . S
C76 C75 1.413 . S
C76 C80 1.429 . S
C77 C75 1.360 . S
C77 C78 1.372 . S
C78 H73 0.928 . S
C78 C77 1.372 . S
C78 C79 1.404 . S
C79 C78 1.404 . S
C79 C80 1.391 . S
C80 H74 0.930 . S
C80 C76 1.429 . S
C80 C79 1.391 . S
H81 C84 0.923 1_545 S
H82 C87 0.928 . S
H83 C89 0.930 . S
C84 H81 0.923 1_565 S
C84 C85 1.415 . S
C84 C86 1.366 . S
C85 C84 1.415 . S
C85 C89 1.429 . S
C86 C84 1.366 . S
C86 C87 1.372 . S
C87 H82 0.928 . S
C87 C86 1.372 . S
C87 C88 1.404 . S
C88 C87 1.404 . S
C88 C89 1.391 . S
C89 H83 0.930 . S
C89 C85 1.429 . S
C89 C88 1.391 . S
H90 C93 0.931 . S
H91 C96 0.928 . S
H92 C98 0.930 . S
C93 H90 0.931 . S
C93 C94 1.413 . S
C93 C95 1.360 . S
C94 C93 1.413 . S
C94 C98 1.429 . S
C95 C93 1.360 . S
C95 C96 1.372 . S
C96 H91 0.928 . S
C96 C95 1.372 . S
C96 C97 1.404 . S
C97 C96 1.404 . S
C97 C98 1.391 . S
C98 H92 0.930 . S
C98 C94 1.429 . S
C98 C97 1.391 . S
H99 C102 0.931 . S
H100 C105 0.928 . S
H101 C107 0.930 . S
C102 H99 0.931 . S
C102 C103 1.413 . S
C102 C104 1.360 . S
C103 C102 1.413 . S
C103 C107 1.429 . S
C104 C102 1.360 . S
C104 C105 1.372 . S
C105 H100 0.928 . S
C105 C104 1.372 . S
C105 C106 1.404 . S
C106 C105 1.404 . S
C106 C107 1.391 . S
C107 H101 0.930 . S
C107 C103 1.429 . S
C107 C106 1.391 . S
H108 C111 0.931 . S
H109 C114 0.928 . S
H110 C116 0.930 . S
C111 H108 0.931 . S
C111 C112 1.413 . S
C111 C113 1.360 . S
C112 C111 1.413 . S
C112 C116 1.429 . S
C113 C111 1.360 . S
C113 C114 1.372 . S
C114 H109 0.928 . S
C114 C113 1.372 . S
C114 C115 1.404 . S
C115 C114 1.404 . S
C115 C116 1.391 . S
C116 H110 0.930 . S
C116 C112 1.429 . S
C116 C115 1.391 . S
H117 C120 0.931 . S
H118 C123 0.928 . S
H119 C125 0.930 . S
C120 H117 0.931 . S
C120 C121 1.413 . S
C120 C122 1.360 . S
C121 C120 1.413 . S
C121 C125 1.429 1_556 S
C122 C120 1.360 . S
C122 C123 1.372 . S
C123 H118 0.928 . S
C123 C122 1.372 . S
C123 C124 1.404 . S
C124 C123 1.404 . S
C124 C125 1.391 1_556 S
C125 H119 0.930 . S
C125 C121 1.429 1_554 S
C125 C124 1.391 1_554 S
H126 C129 0.931 . S
H127 C132 0.928 . S
H128 C134 0.930 . S
C129 H126 0.931 . S
C129 C130 1.413 . S
C129 C131 1.360 . S
C130 C129 1.413 . S
C130 C134 1.429 . S
C131 C129 1.360 . S
C131 C132 1.372 . S
C132 H127 0.928 . S
C132 C131 1.372 . S
C132 C133 1.404 . S
C133 C132 1.404 . S
C133 C134 1.391 . S
C134 H128 0.930 . S
C134 C130 1.429 . S
C134 C133 1.391 . S
H135 C138 0.935 . S
H136 C141 0.928 . S
H137 C143 0.909 1_565 S
C138 H135 0.935 . S
C138 C139 1.410 1_554 S
C138 C140 1.359 1_554 S
C139 C138 1.410 1_556 S
C139 C143 1.434 . S
C140 C138 1.359 1_556 S
C140 C141 1.372 . S
C141 H136 0.928 . S
C141 C140 1.372 . S
C141 C142 1.404 . S
C142 C141 1.404 . S
C142 C143 1.408 . S
C143 H137 0.909 1_545 S
C143 C139 1.434 . S
C143 C142 1.408 . S
Li144 N161 1.990 . S
Li144 O204 1.956 . S
Li144 O205 1.970 1_556 S
Li144 O206 1.961 . S
Li145 N169 1.990 . S
Li145 O204 1.970 1_554 S
Li145 O205 1.956 . S
Li145 O207 1.961 . S
Li146 N191 1.990 . S
Li146 O204 1.961 . S
Li146 O206 1.956 . S
Li146 O207 1.970 1_556 S
Li147 N197 1.990 . S
Li147 O205 1.961 . S
Li147 O206 1.970 1_554 S
Li147 O207 1.956 . S
C148 C150 1.348 1_556 S
C148 C151 1.356 . S
C148 O204 1.325 . S
N149 C152 1.314 1_556 S
N149 C153 1.279 . S
C150 C148 1.348 1_554 S
C150 C152 1.353 . S
C150 H208 0.929 . S
C151 C148 1.356 . S
C151 C153 1.358 . S
C151 H209 0.930 . S
C152 N149 1.314 1_554 S
C152 C150 1.353 . S
C152 H210 0.930 . S
C153 N149 1.279 . S
C153 C151 1.358 . S
C153 H211 0.930 . S
C154 C157 1.348 . S
C154 C158 1.356 . S
C154 O205 1.325 . S
C155 N156 1.279 . S
C155 C158 1.358 . S
C155 H212 0.930 . S
N156 C155 1.279 . S
N156 C159 1.314 . S
C157 C154 1.348 . S
C157 C159 1.353 . S
C157 H213 0.929 . S
C158 C154 1.356 . S
C158 C155 1.358 . S
C158 H214 0.930 . S
C159 N156 1.314 . S
C159 C157 1.353 . S
C159 H215 0.930 . S
C160 N161 1.314 . S
C160 C165 1.353 . S
C160 H166 0.930 . S
N161 Li144 1.990 . S
N161 C160 1.314 . S
N161 C163 1.279 . S
C162 C163 1.358 . S
C162 C164 1.356 . S
C162 H216 0.930 . S
C163 N161 1.279 . S
C163 C162 1.358 . S
C163 H167 0.930 . S
C164 C162 1.356 . S
C164 C165 1.348 . S
C165 C160 1.353 . S
C165 C164 1.348 . S
C165 H217 0.929 1_565 S
H166 C160 0.930 . S
H167 C163 0.930 . S
C168 N169 1.314 . S
C168 C170 1.353 . S
C168 H174 0.930 . S
N169 Li145 1.990 . S
N169 C168 1.314 . S
N169 C172 1.279 . S
C170 C168 1.353 . S
C170 C173 1.348 . S
C170 H218 0.929 . S
C171 C172 1.358 . S
C171 C173 1.356 . S
C171 H219 0.930 . S
C172 N169 1.279 . S
C172 C171 1.358 . S
C172 H175 0.930 . S
C173 C170 1.348 . S
C173 C171 1.356 . S
H174 C168 0.930 . S
H175 C172 0.930 . S
C176 C178 1.348 . S
C176 C179 1.356 . S
C176 O206 1.325 . S
N177 C180 1.314 . S
N177 C181 1.279 . S
C178 C176 1.348 . S
C178 C180 1.353 . S
C178 H220 0.929 . S
C179 C176 1.356 . S
C179 C181 1.358 . S
C179 H221 0.930 . S
C180 N177 1.314 . S
C180 C178 1.353 . S
C180 H222 0.930 . S
C181 N177 1.279 . S
C181 C179 1.358 . S
C181 H223 0.930 . S
C182 C183 1.348 1_554 S
C182 C184 1.356 . S
C182 O207 1.325 . S
C183 C182 1.348 1_556 S
C183 C185 1.353 . S
C183 H224 0.929 . S
C184 C182 1.356 . S
C184 C186 1.358 . S
C184 H225 0.930 . S
C185 C183 1.353 . S
C185 N187 1.314 1_556 S
C185 H226 0.930 . S
C186 C184 1.358 . S
C186 N187 1.279 . S
C186 H227 0.930 . S
N187 C185 1.314 1_554 S
N187 C186 1.279 . S
C188 C190 1.353 . S
C188 N191 1.314 . S
C188 H194 0.930 . S
C189 N191 1.279 . S
C189 C192 1.358 . S
C189 H195 0.930 . S
C190 C188 1.353 . S
C190 C193 1.348 . S
C190 H228 0.929 . S
N191 Li146 1.990 . S
N191 C188 1.314 . S
N191 C189 1.279 . S
C192 C189 1.358 . S
C192 C193 1.356 . S
C192 H229 0.930 . S
C193 C190 1.348 . S
C193 C192 1.356 . S
H194 C188 0.930 . S
H195 C189 0.930 . S
C196 N197 1.314 . S
C196 C198 1.353 . S
C196 H202 0.930 . S
N197 Li147 1.990 . S
N197 C196 1.314 . S
N197 C200 1.279 . S
C198 C196 1.353 . S
C198 C201 1.348 . S
C198 H230 0.929 1_565 S
C199 C200 1.358 . S
C199 C201 1.356 . S
C199 H231 0.930 . S
C200 N197 1.279 . S
C200 C199 1.358 . S
C200 H203 0.930 . S
C201 C198 1.348 . S
C201 C199 1.356 . S
H202 C196 0.930 . S
H203 C200 0.930 . S
O204 Li144 1.956 . S
O204 Li145 1.970 1_556 S
O204 Li146 1.961 . S
O204 C148 1.325 . S
O205 Li144 1.970 1_554 S
O205 Li145 1.956 . S
O205 Li147 1.961 . S
O205 C154 1.325 . S
O206 Li144 1.961 . S
O206 Li146 1.956 . S
O206 Li147 1.970 1_556 S
O206 C176 1.325 . S
O207 Li145 1.961 . S
O207 Li146 1.970 1_554 S
O207 Li147 1.956 . S
O207 C182 1.325 . S
H208 C150 0.929 . S
H209 C151 0.930 . S
H210 C152 0.930 . S
H211 C153 0.930 . S
H212 C155 0.930 . S
H213 C157 0.929 . S
H214 C158 0.930 . S
H215 C159 0.930 . S
H216 C162 0.930 . S
H217 C165 0.929 1_545 S
H218 C170 0.929 . S
H219 C171 0.930 . S
H220 C178 0.929 . S
H221 C179 0.930 . S
H222 C180 0.930 . S
H223 C181 0.930 . S
H224 C183 0.929 . S
H225 C184 0.930 . S
H226 C185 0.930 . S
H227 C186 0.930 . S
H228 C190 0.929 . S
H229 C192 0.930 . S
H230 C198 0.929 1_545 S
H231 C199 0.930 . S
Li232 N249 1.990 . S
Li232 O292 1.956 . S
Li232 O293 1.970 . S
Li232 O294 1.961 . S
Li233 N257 1.990 . S
Li233 O292 1.970 . S
Li233 O293 1.956 . S
Li233 O295 1.961 . S
Li234 N279 1.990 . S
Li234 O292 1.961 . S
Li234 O294 1.956 . S
Li234 O295 1.970 . S
Li235 N285 1.990 . S
Li235 O293 1.961 . S
Li235 O294 1.970 . S
Li235 O295 1.956 . S
C236 C238 1.348 . S
C236 C239 1.356 . S
C236 O292 1.325 . S
N237 C240 1.314 . S
N237 C241 1.279 . S
C238 C236 1.348 . S
C238 C240 1.353 . S
C238 H296 0.929 . S
C239 C236 1.356 . S
C239 C241 1.358 . S
C239 H297 0.930 . S
C240 N237 1.314 . S
C240 C238 1.353 . S
C240 H298 0.930 . S
C241 N237 1.279 . S
C241 C239 1.358 . S
C241 H299 0.930 . S
C242 C245 1.348 . S
C242 C246 1.356 . S
C242 O293 1.325 . S
C243 N244 1.279 . S
C243 C246 1.358 . S
C243 H300 0.930 . S
N244 C243 1.279 . S
N244 C247 1.314 . S
C245 C242 1.348 . S
C245 C247 1.353 . S
C245 H301 0.929 . S
C246 C242 1.356 . S
C246 C243 1.358 . S
C246 H302 0.930 . S
C247 N244 1.314 . S
C247 C245 1.353 . S
C247 H303 0.930 . S
C248 N249 1.314 . S
C248 C253 1.353 . S
C248 H254 0.930 . S
N249 Li232 1.990 . S
N249 C248 1.314 . S
N249 C251 1.279 . S
C250 C251 1.358 . S
C250 C252 1.356 . S
C250 H304 0.930 . S
C251 N249 1.279 . S
C251 C250 1.358 . S
C251 H255 0.930 . S
C252 C250 1.356 . S
C252 C253 1.348 . S
C253 C248 1.353 . S
C253 C252 1.348 . S
C253 H305 0.929 1_455 S
H254 C248 0.930 . S
H255 C251 0.930 . S
C256 N257 1.314 . S
C256 C258 1.353 . S
C256 H262 0.930 . S
N257 Li233 1.990 . S
N257 C256 1.314 . S
N257 C260 1.279 . S
C258 C256 1.353 . S
C258 C261 1.348 . S
C258 H306 0.929 . S
C259 C260 1.358 . S
C259 C261 1.356 . S
C259 H307 0.930 . S
C260 N257 1.279 . S
C260 C259 1.358 . S
C260 H263 0.930 . S
C261 C258 1.348 . S
C261 C259 1.356 . S
H262 C256 0.930 . S
H263 C260 0.930 . S
C264 C266 1.348 . S
C264 C267 1.356 . S
C264 O294 1.325 . S
N265 C268 1.314 . S
N265 C269 1.279 . S
C266 C264 1.348 . S
C266 C268 1.353 . S
C266 H308 0.929 . S
C267 C264 1.356 . S
C267 C269 1.358 . S
C267 H309 0.930 . S
C268 N265 1.314 . S
C268 C266 1.353 . S
C268 H310 0.930 . S
C269 N265 1.279 . S
C269 C267 1.358 . S
C269 H311 0.930 . S
C270 C271 1.348 . S
C270 C272 1.356 . S
C270 O295 1.325 . S
C271 C270 1.348 . S
C271 C273 1.353 . S
C271 H312 0.929 . S
C272 C270 1.356 . S
C272 C274 1.358 . S
C272 H313 0.930 . S
C273 C271 1.353 . S
C273 N275 1.314 . S
C273 H314 0.930 . S
C274 C272 1.358 . S
C274 N275 1.279 . S
C274 H315 0.930 . S
N275 C273 1.314 . S
N275 C274 1.279 . S
C276 C278 1.353 . S
C276 N279 1.314 . S
C276 H282 0.930 . S
C277 N279 1.279 . S
C277 C280 1.358 . S
C277 H283 0.930 . S
C278 C276 1.353 . S
C278 C281 1.348 . S
C278 H316 0.929 . S
N279 Li234 1.990 . S
N279 C276 1.314 . S
N279 C277 1.279 . S
C280 C277 1.358 . S
C280 C281 1.356 . S
C280 H317 0.930 . S
C281 C278 1.348 . S
C281 C280 1.356 . S
H282 C276 0.930 . S
H283 C277 0.930 . S
C284 N285 1.314 . S
C284 C286 1.353 . S
C284 H290 0.930 . S
N285 Li235 1.990 . S
N285 C284 1.314 . S
N285 C288 1.279 . S
C286 C284 1.353 . S
C286 C289 1.348 . S
C286 H318 0.929 1_455 S
C287 C288 1.358 . S
C287 C289 1.356 . S
C287 H319 0.930 . S
C288 N285 1.279 . S
C288 C287 1.358 . S
C288 H291 0.930 . S
C289 C286 1.348 . S
C289 C287 1.356 . S
H290 C284 0.930 . S
H291 C288 0.930 . S
O292 Li232 1.956 . S
O292 Li233 1.970 . S
O292 Li234 1.961 . S
O292 C236 1.325 . S
O293 Li232 1.970 . S
O293 Li233 1.956 . S
O293 Li235 1.961 . S
O293 C242 1.325 . S
O294 Li232 1.961 . S
O294 Li234 1.956 . S
O294 Li235 1.970 . S
O294 C264 1.325 . S
O295 Li233 1.961 . S
O295 Li234 1.970 . S
O295 Li235 1.956 . S
O295 C270 1.325 . S
H296 C238 0.929 . S
H297 C239 0.930 . S
H298 C240 0.930 . S
H299 C241 0.930 . S
H300 C243 0.930 . S
H301 C245 0.929 . S
H302 C246 0.930 . S
H303 C247 0.930 . S
H304 C250 0.930 . S
H305 C253 0.929 1_655 S
H306 C258 0.929 . S
H307 C259 0.930 . S
H308 C266 0.929 . S
H309 C267 0.930 . S
H310 C268 0.930 . S
H311 C269 0.930 . S
H312 C271 0.929 . S
H313 C272 0.930 . S
H314 C273 0.930 . S
H315 C274 0.930 . S
H316 C278 0.929 . S
H317 C280 0.930 . S
H318 C286 0.929 1_655 S
H319 C287 0.930 . S
Li320 N337 1.990 . S
Li320 O380 1.956 . S
Li320 O381 1.970 1_556 S
Li320 O382 1.961 . S
Li321 N345 1.990 . S
Li321 O380 1.970 1_554 S
Li321 O381 1.956 . S
Li321 O383 1.961 . S
Li322 N367 1.990 . S
Li322 O380 1.961 . S
Li322 O382 1.956 . S
Li322 O383 1.970 1_556 S
Li323 N373 1.990 . S
Li323 O381 1.961 . S
Li323 O382 1.970 1_554 S
Li323 O383 1.956 . S
C324 C326 1.348 1_556 S
C324 C327 1.356 . S
C324 O380 1.325 . S
N325 C328 1.314 1_556 S
N325 C329 1.279 . S
C326 C324 1.348 1_554 S
C326 C328 1.353 . S
C326 H384 0.929 . S
C327 C324 1.356 . S
C327 C329 1.358 . S
C327 H385 0.930 . S
C328 N325 1.314 1_554 S
C328 C326 1.353 . S
C328 H386 0.930 . S
C329 N325 1.279 . S
C329 C327 1.358 . S
C329 H387 0.930 . S
C330 C333 1.348 . S
C330 C334 1.356 . S
C330 O381 1.325 . S
C331 N332 1.279 . S
C331 C334 1.358 . S
C331 H388 0.930 . S
N332 C331 1.279 . S
N332 C335 1.314 . S
C333 C330 1.348 . S
C333 C335 1.353 . S
C333 H389 0.929 . S
C334 C330 1.356 . S
C334 C331 1.358 . S
C334 H390 0.930 . S
C335 N332 1.314 . S
C335 C333 1.353 . S
C335 H391 0.930 . S
C336 N337 1.314 . S
C336 C341 1.353 . S
C336 H342 0.930 . S
N337 Li320 1.990 . S
N337 C336 1.314 . S
N337 C339 1.279 . S
C338 C339 1.358 . S
C338 C340 1.356 . S
C338 H392 0.930 . S
C339 N337 1.279 . S
C339 C338 1.358 . S
C339 H343 0.930 . S
C340 C338 1.356 . S
C340 C341 1.348 . S
C341 C336 1.353 . S
C341 C340 1.348 . S
C341 H393 0.929 . S
H342 C336 0.930 . S
H343 C339 0.930 . S
C344 N345 1.314 . S
C344 C346 1.353 . S
C344 H350 0.930 . S
N345 Li321 1.990 . S
N345 C344 1.314 . S
N345 C348 1.279 . S
C346 C344 1.353 . S
C346 C349 1.348 . S
C346 H394 0.929 . S
C347 C348 1.358 . S
C347 C349 1.356 . S
C347 H395 0.930 . S
C348 N345 1.279 . S
C348 C347 1.358 . S
C348 H351 0.930 . S
C349 C346 1.348 . S
C349 C347 1.356 . S
H350 C344 0.930 . S
H351 C348 0.930 . S
C352 C354 1.348 . S
C352 C355 1.356 . S
C352 O382 1.325 . S
N353 C356 1.314 . S
N353 C357 1.279 . S
C354 C352 1.348 . S
C354 C356 1.353 . S
C354 H396 0.929 . S
C355 C352 1.356 . S
C355 C357 1.358 . S
C355 H397 0.930 . S
C356 N353 1.314 . S
C356 C354 1.353 . S
C356 H398 0.930 . S
C357 N353 1.279 . S
C357 C355 1.358 . S
C357 H399 0.930 . S
C358 C359 1.348 1_554 S
C358 C360 1.356 . S
C358 O383 1.325 . S
C359 C358 1.348 1_556 S
C359 C361 1.353 . S
C359 H400 0.929 . S
C360 C358 1.356 . S
C360 C362 1.358 . S
C360 H401 0.930 . S
C361 C359 1.353 . S
C361 N363 1.314 1_556 S
C361 H402 0.930 . S
C362 C360 1.358 . S
C362 N363 1.279 . S
C362 H403 0.930 . S
N363 C361 1.314 1_554 S
N363 C362 1.279 . S
C364 C366 1.353 . S
C364 N367 1.314 . S
C364 H370 0.930 . S
C365 N367 1.279 . S
C365 C368 1.358 . S
C365 H371 0.930 . S
C366 C364 1.353 . S
C366 C369 1.348 . S
C366 H404 0.929 . S
N367 Li322 1.990 . S
N367 C364 1.314 . S
N367 C365 1.279 . S
C368 C365 1.358 . S
C368 C369 1.356 . S
C368 H405 0.930 . S
C369 C366 1.348 . S
C369 C368 1.356 . S
H370 C364 0.930 . S
H371 C365 0.930 . S
C372 N373 1.314 . S
C372 C374 1.353 . S
C372 H378 0.930 . S
N373 Li323 1.990 . S
N373 C372 1.314 . S
N373 C376 1.279 . S
C374 C372 1.353 . S
C374 C377 1.348 . S
C374 H406 0.929 . S
C375 C376 1.358 . S
C375 C377 1.356 . S
C375 H407 0.930 . S
C376 N373 1.279 . S
C376 C375 1.358 . S
C376 H379 0.930 . S
C377 C374 1.348 . S
C377 C375 1.356 . S
H378 C372 0.930 . S
H379 C376 0.930 . S
O380 Li320 1.956 . S
O380 Li321 1.970 1_556 S
O380 Li322 1.961 . S
O380 C324 1.325 . S
O381 Li320 1.970 1_554 S
O381 Li321 1.956 . S
O381 Li323 1.961 . S
O381 C330 1.325 . S
O382 Li320 1.961 . S
O382 Li322 1.956 . S
O382 Li323 1.970 1_556 S
O382 C352 1.325 . S
O383 Li321 1.961 . S
O383 Li322 1.970 1_554 S
O383 Li323 1.956 . S
O383 C358 1.325 . S
H384 C326 0.929 . S
H385 C327 0.930 . S
H386 C328 0.930 . S
H387 C329 0.930 . S
H388 C331 0.930 . S
H389 C333 0.929 . S
H390 C334 0.930 . S
H391 C335 0.930 . S
H392 C338 0.930 . S
H393 C341 0.929 . S
H394 C346 0.929 . S
H395 C347 0.930 . S
H396 C354 0.929 . S
H397 C355 0.930 . S
H398 C356 0.930 . S
H399 C357 0.930 . S
H400 C359 0.929 . S
H401 C360 0.930 . S
H402 C361 0.930 . S
H403 C362 0.930 . S
H404 C366 0.929 . S
H405 C368 0.930 . S
H406 C374 0.929 . S
H407 C375 0.930 . S
Li408 N425 1.990 . S
Li408 O468 1.956 . S
Li408 O469 1.970 1_545 S
Li408 O470 1.961 . S
Li409 N433 1.990 . S
Li409 O468 1.970 1_565 S
Li409 O469 1.956 . S
Li409 O471 1.961 . S
Li410 N455 1.990 . S
Li410 O468 1.961 . S
Li410 O470 1.956 . S
Li410 O471 1.970 1_545 S
Li411 N461 1.990 . S
Li411 O469 1.961 . S
Li411 O470 1.970 1_565 S
Li411 O471 1.956 . S
C412 C414 1.348 . S
C412 C415 1.356 . S
C412 O468 1.325 . S
N413 C416 1.314 . S
N413 C417 1.279 . S
C414 C412 1.348 . S
C414 C416 1.353 . S
C414 H472 0.929 . S
C415 C412 1.356 . S
C415 C417 1.358 . S
C415 H473 0.930 . S
C416 N413 1.314 . S
C416 C414 1.353 . S
C416 H474 0.930 . S
C417 N413 1.279 . S
C417 C415 1.358 . S
C417 H475 0.930 . S
C418 C421 1.348 1_565 S
C418 C422 1.356 . S
C418 O469 1.325 . S
C419 N420 1.279 . S
C419 C422 1.358 . S
C419 H476 0.930 . S
N420 C419 1.279 . S
N420 C423 1.314 1_565 S
C421 C418 1.348 1_545 S
C421 C423 1.353 . S
C421 H477 0.929 . S
C422 C418 1.356 . S
C422 C419 1.358 . S
C422 H478 0.930 . S
C423 N420 1.314 1_545 S
C423 C421 1.353 . S
C423 H479 0.930 . S
C424 N425 1.314 . S
C424 C429 1.353 . S
C424 H430 0.930 . S
N425 Li408 1.990 . S
N425 C424 1.314 . S
N425 C427 1.279 . S
C426 C427 1.358 . S
C426 C428 1.356 . S
C426 H480 0.930 . S
C427 N425 1.279 . S
C427 C426 1.358 . S
C427 H431 0.930 . S
C428 C426 1.356 . S
C428 C429 1.348 . S
C429 C424 1.353 . S
C429 C428 1.348 . S
C429 H481 0.929 . S
H430 C424 0.930 . S
H431 C427 0.930 . S
C432 N433 1.314 . S
C432 C434 1.353 . S
C432 H438 0.930 . S
N433 Li409 1.990 . S
N433 C432 1.314 . S
N433 C436 1.279 . S
C434 C432 1.353 . S
C434 C437 1.348 . S
C434 H482 0.929 1_655 S
C435 C436 1.358 . S
C435 C437 1.356 . S
C435 H483 0.930 . S
C436 N433 1.279 . S
C436 C435 1.358 . S
C436 H439 0.930 . S
C437 C434 1.348 . S
C437 C435 1.356 . S
H438 C432 0.930 . S
H439 C436 0.930 . S
C440 C442 1.348 1_545 S
C440 C443 1.356 . S
C440 O470 1.325 . S
N441 C444 1.314 1_545 S
N441 C445 1.279 . S
C442 C440 1.348 1_565 S
C442 C444 1.353 . S
C442 H484 0.929 . S
C443 C440 1.356 . S
C443 C445 1.358 . S
C443 H485 0.930 . S
C444 N441 1.314 1_565 S
C444 C442 1.353 . S
C444 H486 0.930 . S
C445 N441 1.279 . S
C445 C443 1.358 . S
C445 H487 0.930 . S
C446 C447 1.348 . S
C446 C448 1.356 . S
C446 O471 1.325 . S
C447 C446 1.348 . S
C447 C449 1.353 . S
C447 H488 0.929 . S
C448 C446 1.356 . S
C448 C450 1.358 . S
C448 H489 0.930 . S
C449 C447 1.353 . S
C449 N451 1.314 . S
C449 H490 0.930 . S
C450 C448 1.358 . S
C450 N451 1.279 . S
C450 H491 0.930 . S
N451 C449 1.314 . S
N451 C450 1.279 . S
C452 C454 1.353 . S
C452 N455 1.314 . S
C452 H458 0.930 . S
C453 N455 1.279 . S
C453 C456 1.358 . S
C453 H459 0.930 . S
C454 C452 1.353 . S
C454 C457 1.348 . S
C454 H492 0.929 1_655 S
N455 Li410 1.990 . S
N455 C452 1.314 . S
N455 C453 1.279 . S
C456 C453 1.358 . S
C456 C457 1.356 . S
C456 H493 0.930 . S
C457 C454 1.348 . S
C457 C456 1.356 . S
H458 C452 0.930 . S
H459 C453 0.930 . S
C460 N461 1.314 . S
C460 C462 1.353 . S
C460 H466 0.930 . S
N461 Li411 1.990 . S
N461 C460 1.314 . S
N461 C464 1.279 . S
C462 C460 1.353 . S
C462 C465 1.348 . S
C462 H494 0.929 . S
C463 C464 1.358 . S
C463 C465 1.356 . S
C463 H495 0.930 . S
C464 N461 1.279 . S
C464 C463 1.358 . S
C464 H467 0.930 . S
C465 C462 1.348 . S
C465 C463 1.356 . S
H466 C460 0.930 . S
H467 C464 0.930 . S
O468 Li408 1.956 . S
O468 Li409 1.970 1_545 S
O468 Li410 1.961 . S
O468 C412 1.325 . S
O469 Li408 1.970 1_565 S
O469 Li409 1.956 . S
O469 Li411 1.961 . S
O469 C418 1.325 . S
O470 Li408 1.961 . S
O470 Li410 1.956 . S
O470 Li411 1.970 1_545 S
O470 C440 1.325 . S
O471 Li409 1.961 . S
O471 Li410 1.970 1_565 S
O471 Li411 1.956 . S
O471 C446 1.325 . S
H472 C414 0.929 . S
H473 C415 0.930 . S
H474 C416 0.930 . S
H475 C417 0.930 . S
H476 C419 0.930 . S
H477 C421 0.929 . S
H478 C422 0.930 . S
H479 C423 0.930 . S
H480 C426 0.930 . S
H481 C429 0.929 . S
H482 C434 0.929 1_455 S
H483 C435 0.930 . S
H484 C442 0.929 . S
H485 C443 0.930 . S
H486 C444 0.930 . S
H487 C445 0.930 . S
H488 C447 0.929 . S
H489 C448 0.930 . S
H490 C449 0.930 . S
H491 C450 0.930 . S
H492 C454 0.929 1_455 S
H493 C456 0.930 . S
H494 C462 0.929 . S
H495 C463 0.930 . S
Li496 N513 1.990 . S
Li496 O556 1.956 . S
Li496 O557 1.970 . S
Li496 O558 1.961 . S
Li497 N521 1.990 . S
Li497 O556 1.970 . S
Li497 O557 1.956 . S
Li497 O559 1.961 . S
Li498 N543 1.990 . S
Li498 O556 1.961 . S
Li498 O558 1.956 . S
Li498 O559 1.970 . S
Li499 N549 1.990 . S
Li499 O557 1.961 . S
Li499 O558 1.970 . S
Li499 O559 1.956 . S
C500 C502 1.348 . S
C500 C503 1.356 . S
C500 O556 1.325 . S
N501 C504 1.314 . S
N501 C505 1.279 . S
C502 C500 1.348 . S
C502 C504 1.353 . S
C502 H560 0.929 . S
C503 C500 1.356 . S
C503 C505 1.358 . S
C503 H561 0.930 . S
C504 N501 1.314 . S
C504 C502 1.353 . S
C504 H562 0.930 . S
C505 N501 1.279 . S
C505 C503 1.358 . S
C505 H563 0.930 . S
C506 C509 1.348 . S
C506 C510 1.356 . S
C506 O557 1.325 . S
C507 N508 1.279 . S
C507 C510 1.358 . S
C507 H564 0.930 . S
N508 C507 1.279 . S
N508 C511 1.314 . S
C509 C506 1.348 . S
C509 C511 1.353 . S
C509 H565 0.929 . S
C510 C506 1.356 . S
C510 C507 1.358 . S
C510 H566 0.930 . S
C511 N508 1.314 . S
C511 C509 1.353 . S
C511 H567 0.930 . S
C512 N513 1.314 . S
C512 C517 1.353 . S
C512 H518 0.930 . S
N513 Li496 1.990 . S
N513 C512 1.314 . S
N513 C515 1.279 . S
C514 C515 1.358 . S
C514 C516 1.356 . S
C514 H568 0.930 . S
C515 N513 1.279 . S
C515 C514 1.358 . S
C515 H519 0.930 . S
C516 C514 1.356 . S
C516 C517 1.348 . S
C517 C512 1.353 . S
C517 C516 1.348 . S
C517 H569 0.929 . S
H518 C512 0.930 . S
H519 C515 0.930 . S
C520 N521 1.314 . S
C520 C522 1.353 . S
C520 H526 0.930 . S
N521 Li497 1.990 . S
N521 C520 1.314 . S
N521 C524 1.279 . S
C522 C520 1.353 . S
C522 C525 1.348 . S
C522 H570 0.929 1_545 S
C523 C524 1.358 . S
C523 C525 1.356 . S
C523 H571 0.930 . S
C524 N521 1.279 . S
C524 C523 1.358 . S
C524 H527 0.930 . S
C525 C522 1.348 . S
C525 C523 1.356 . S
H526 C520 0.930 . S
H527 C524 0.930 . S
C528 C530 1.348 . S
C528 C531 1.356 . S
C528 O558 1.325 . S
N529 C532 1.314 . S
N529 C533 1.279 . S
C530 C528 1.348 . S
C530 C532 1.353 . S
C530 H572 0.929 . S
C531 C528 1.356 . S
C531 C533 1.358 . S
C531 H573 0.930 . S
C532 N529 1.314 . S
C532 C530 1.353 . S
C532 H574 0.930 . S
C533 N529 1.279 . S
C533 C531 1.358 . S
C533 H575 0.930 . S
C534 C535 1.348 . S
C534 C536 1.356 . S
C534 O559 1.325 . S
C535 C534 1.348 . S
C535 C537 1.353 . S
C535 H576 0.929 . S
C536 C534 1.356 . S
C536 C538 1.358 . S
C536 H577 0.930 . S
C537 C535 1.353 . S
C537 N539 1.314 . S
C537 H578 0.930 . S
C538 C536 1.358 . S
C538 N539 1.279 . S
C538 H579 0.930 . S
N539 C537 1.314 . S
N539 C538 1.279 . S
C540 C542 1.353 . S
C540 N543 1.314 . S
C540 H546 0.930 . S
C541 N543 1.279 . S
C541 C544 1.358 . S
C541 H547 0.930 . S
C542 C540 1.353 . S
C542 C545 1.348 . S
C542 H580 0.929 1_545 S
N543 Li498 1.990 . S
N543 C540 1.314 . S
N543 C541 1.279 . S
C544 C541 1.358 . S
C544 C545 1.356 . S
C544 H581 0.930 . S
C545 C542 1.348 . S
C545 C544 1.356 . S
H546 C540 0.930 . S
H547 C541 0.930 . S
C548 N549 1.314 . S
C548 C550 1.353 . S
C548 H554 0.930 . S
N549 Li499 1.990 . S
N549 C548 1.314 . S
N549 C552 1.279 . S
C550 C548 1.353 . S
C550 C553 1.348 . S
C550 H582 0.929 . S
C551 C552 1.358 . S
C551 C553 1.356 . S
C551 H583 0.930 . S
C552 N549 1.279 . S
C552 C551 1.358 . S
C552 H555 0.930 . S
C553 C550 1.348 . S
C553 C551 1.356 . S
H554 C548 0.930 . S
H555 C552 0.930 . S
O556 Li496 1.956 . S
O556 Li497 1.970 . S
O556 Li498 1.961 . S
O556 C500 1.325 . S
O557 Li496 1.970 . S
O557 Li497 1.956 . S
O557 Li499 1.961 . S
O557 C506 1.325 . S
O558 Li496 1.961 . S
O558 Li498 1.956 . S
O558 Li499 1.970 . S
O558 C528 1.325 . S
O559 Li497 1.961 . S
O559 Li498 1.970 . S
O559 Li499 1.956 . S
O559 C534 1.325 . S
H560 C502 0.929 . S
H561 C503 0.930 . S
H562 C504 0.930 . S
H563 C505 0.930 . S
H564 C507 0.930 . S
H565 C509 0.929 . S
H566 C510 0.930 . S
H567 C511 0.930 . S
H568 C514 0.930 . S
H569 C517 0.929 . S
H570 C522 0.929 1_565 S
H571 C523 0.930 . S
H572 C530 0.929 . S
H573 C531 0.930 . S
H574 C532 0.930 . S
H575 C533 0.930 . S
H576 C535 0.929 . S
H577 C536 0.930 . S
H578 C537 0.930 . S
H579 C538 0.930 . S
H580 C542 0.929 1_565 S
H581 C544 0.930 . S
H582 C550 0.929 . S
H583 C551 0.930 . S
Li584 N601 1.990 . S
Li584 O644 1.956 . S
Li584 O645 1.970 . S
Li584 O646 1.961 . S
Li585 N609 1.990 . S
Li585 O644 1.970 . S
Li585 O645 1.956 . S
Li585 O647 1.961 . S
Li586 N631 1.990 . S
Li586 O644 1.961 . S
Li586 O646 1.956 . S
Li586 O647 1.970 . S
Li587 N637 1.990 . S
Li587 O645 1.961 . S
Li587 O646 1.970 . S
Li587 O647 1.956 . S
C588 C590 1.348 . S
C588 C591 1.356 . S
C588 O644 1.325 . S
N589 C592 1.314 . S
N589 C593 1.279 . S
C590 C588 1.348 . S
C590 C592 1.353 . S
C590 H648 0.929 . S
C591 C588 1.356 . S
C591 C593 1.358 . S
C591 H649 0.930 . S
C592 N589 1.314 . S
C592 C590 1.353 . S
C592 H650 0.930 . S
C593 N589 1.279 . S
C593 C591 1.358 . S
C593 H651 0.930 . S
C594 C597 1.348 . S
C594 C598 1.356 . S
C594 O645 1.325 . S
C595 N596 1.279 . S
C595 C598 1.358 . S
C595 H652 0.930 . S
N596 C595 1.279 . S
N596 C599 1.314 . S
C597 C594 1.348 . S
C597 C599 1.353 . S
C597 H653 0.929 . S
C598 C594 1.356 . S
C598 C595 1.358 . S
C598 H654 0.930 . S
C599 N596 1.314 . S
C599 C597 1.353 . S
C599 H655 0.930 . S
C600 N601 1.314 . S
C600 C605 1.353 . S
C600 H606 0.930 . S
N601 Li584 1.990 . S
N601 C600 1.314 . S
N601 C603 1.279 . S
C602 C603 1.358 . S
C602 C604 1.356 . S
C602 H656 0.930 . S
C603 N601 1.279 . S
C603 C602 1.358 . S
C603 H607 0.930 . S
C604 C602 1.356 . S
C604 C605 1.348 . S
C605 C600 1.353 . S
C605 C604 1.348 . S
C605 H657 0.929 . S
H606 C600 0.930 . S
H607 C603 0.930 . S
C608 N609 1.314 . S
C608 C610 1.353 . S
C608 H614 0.930 . S
N609 Li585 1.990 . S
N609 C608 1.314 . S
N609 C612 1.279 . S
C610 C608 1.353 . S
C610 C613 1.348 . S
C610 H658 0.929 . S
C611 C612 1.358 . S
C611 C613 1.356 . S
C611 H659 0.930 . S
C612 N609 1.279 . S
C612 C611 1.358 . S
C612 H615 0.930 . S
C613 C610 1.348 . S
C613 C611 1.356 . S
H614 C608 0.930 . S
H615 C612 0.930 . S
C616 C618 1.348 . S
C616 C619 1.356 . S
C616 O646 1.325 . S
N617 C620 1.314 . S
N617 C621 1.279 . S
C618 C616 1.348 . S
C618 C620 1.353 . S
C618 H660 0.929 . S
C619 C616 1.356 . S
C619 C621 1.358 . S
C619 H661 0.930 . S
C620 N617 1.314 . S
C620 C618 1.353 . S
C620 H662 0.930 . S
C621 N617 1.279 . S
C621 C619 1.358 . S
C621 H663 0.930 . S
C622 C623 1.348 . S
C622 C624 1.356 . S
C622 O647 1.325 . S
C623 C622 1.348 . S
C623 C625 1.353 . S
C623 H664 0.929 . S
C624 C622 1.356 . S
C624 C626 1.358 . S
C624 H665 0.930 . S
C625 C623 1.353 . S
C625 N627 1.314 . S
C625 H666 0.930 . S
C626 C624 1.358 . S
C626 N627 1.279 . S
C626 H667 0.930 . S
N627 C625 1.314 . S
N627 C626 1.279 . S
C628 C630 1.353 . S
C628 N631 1.314 . S
C628 H634 0.930 . S
C629 N631 1.279 . S
C629 C632 1.358 . S
C629 H635 0.930 . S
C630 C628 1.353 . S
C630 C633 1.348 . S
C630 H668 0.929 . S
N631 Li586 1.990 . S
N631 C628 1.314 . S
N631 C629 1.279 . S
C632 C629 1.358 . S
C632 C633 1.356 . S
C632 H669 0.930 . S
C633 C630 1.348 . S
C633 C632 1.356 . S
H634 C628 0.930 . S
H635 C629 0.930 . S
C636 N637 1.314 . S
C636 C638 1.353 . S
C636 H642 0.930 . S
N637 Li587 1.990 . S
N637 C636 1.314 . S
N637 C640 1.279 . S
C638 C636 1.353 . S
C638 C641 1.348 . S
C638 H670 0.929 . S
C639 C640 1.358 . S
C639 C641 1.356 . S
C639 H671 0.930 . S
C640 N637 1.279 . S
C640 C639 1.358 . S
C640 H643 0.930 . S
C641 C638 1.348 . S
C641 C639 1.356 . S
H642 C636 0.930 . S
H643 C640 0.930 . S
O644 Li584 1.956 . S
O644 Li585 1.970 . S
O644 Li586 1.961 . S
O644 C588 1.325 . S
O645 Li584 1.970 . S
O645 Li585 1.956 . S
O645 Li587 1.961 . S
O645 C594 1.325 . S
O646 Li584 1.961 . S
O646 Li586 1.956 . S
O646 Li587 1.970 . S
O646 C616 1.325 . S
O647 Li585 1.961 . S
O647 Li586 1.970 . S
O647 Li587 1.956 . S
O647 C622 1.325 . S
H648 C590 0.929 . S
H649 C591 0.930 . S
H650 C592 0.930 . S
H651 C593 0.930 . S
H652 C595 0.930 . S
H653 C597 0.929 . S
H654 C598 0.930 . S
H655 C599 0.930 . S
H656 C602 0.930 . S
H657 C605 0.929 . S
H658 C610 0.929 . S
H659 C611 0.930 . S
H660 C618 0.929 . S
H661 C619 0.930 . S
H662 C620 0.930 . S
H663 C621 0.930 . S
H664 C623 0.929 . S
H665 C624 0.930 . S
H666 C625 0.930 . S
H667 C626 0.930 . S
H668 C630 0.929 . S
H669 C632 0.930 . S
H670 C638 0.929 . S
H671 C639 0.930 . S
Li672 N689 1.990 . S
Li672 O732 1.956 . S
Li672 O733 1.970 . S
Li672 O734 1.961 . S
Li673 N697 1.990 . S
Li673 O732 1.970 . S
Li673 O733 1.956 . S
Li673 O735 1.961 . S
Li674 N719 1.990 . S
Li674 O732 1.961 . S
Li674 O734 1.956 . S
Li674 O735 1.970 . S
Li675 N725 1.990 . S
Li675 O733 1.961 . S
Li675 O734 1.970 . S
Li675 O735 1.956 . S
C676 C678 1.348 . S
C676 C679 1.356 . S
C676 O732 1.325 . S
N677 C680 1.314 . S
N677 C681 1.279 . S
C678 C676 1.348 . S
C678 C680 1.353 . S
C678 H736 0.929 . S
C679 C676 1.356 . S
C679 C681 1.358 . S
C679 H737 0.930 . S
C680 N677 1.314 . S
C680 C678 1.353 . S
C680 H738 0.930 . S
C681 N677 1.279 . S
C681 C679 1.358 . S
C681 H739 0.930 . S
C682 C685 1.348 . S
C682 C686 1.356 . S
C682 O733 1.325 . S
C683 N684 1.279 . S
C683 C686 1.358 . S
C683 H740 0.930 . S
N684 C683 1.279 . S
N684 C687 1.314 . S
C685 C682 1.348 . S
C685 C687 1.353 . S
C685 H741 0.929 . S
C686 C682 1.356 . S
C686 C683 1.358 . S
C686 H742 0.930 . S
C687 N684 1.314 . S
C687 C685 1.353 . S
C687 H743 0.930 . S
C688 N689 1.314 . S
C688 C693 1.353 . S
C688 H694 0.930 . S
N689 Li672 1.990 . S
N689 C688 1.314 . S
N689 C691 1.279 . S
C690 C691 1.358 . S
C690 C692 1.356 . S
C690 H744 0.930 . S
C691 N689 1.279 . S
C691 C690 1.358 . S
C691 H695 0.930 . S
C692 C690 1.356 . S
C692 C693 1.348 . S
C693 C688 1.353 . S
C693 C692 1.348 . S
C693 H745 0.929 . S
H694 C688 0.930 . S
H695 C691 0.930 . S
C696 N697 1.314 . S
C696 C698 1.353 . S
C696 H702 0.930 . S
N697 Li673 1.990 . S
N697 C696 1.314 . S
N697 C700 1.279 . S
C698 C696 1.353 . S
C698 C701 1.348 . S
C698 H746 0.929 . S
C699 C700 1.358 . S
C699 C701 1.356 . S
C699 H747 0.930 . S
C700 N697 1.279 . S
C700 C699 1.358 . S
C700 H703 0.930 . S
C701 C698 1.348 . S
C701 C699 1.356 . S
H702 C696 0.930 . S
H703 C700 0.930 . S
C704 C706 1.348 . S
C704 C707 1.356 . S
C704 O734 1.325 . S
N705 C708 1.314 . S
N705 C709 1.279 . S
C706 C704 1.348 . S
C706 C708 1.353 . S
C706 H748 0.929 . S
C707 C704 1.356 . S
C707 C709 1.358 . S
C707 H749 0.930 . S
C708 N705 1.314 . S
C708 C706 1.353 . S
C708 H750 0.930 . S
C709 N705 1.279 . S
C709 C707 1.358 . S
C709 H751 0.930 . S
C710 C711 1.348 . S
C710 C712 1.356 . S
C710 O735 1.325 . S
C711 C710 1.348 . S
C711 C713 1.353 . S
C711 H752 0.929 . S
C712 C710 1.356 . S
C712 C714 1.358 . S
C712 H753 0.930 . S
C713 C711 1.353 . S
C713 N715 1.314 . S
C713 H754 0.930 . S
C714 C712 1.358 . S
C714 N715 1.279 . S
C714 H755 0.930 . S
N715 C713 1.314 . S
N715 C714 1.279 . S
C716 C718 1.353 . S
C716 N719 1.314 . S
C716 H722 0.930 . S
C717 N719 1.279 . S
C717 C720 1.358 . S
C717 H723 0.930 . S
C718 C716 1.353 . S
C718 C721 1.348 . S
C718 H756 0.929 . S
N719 Li674 1.990 . S
N719 C716 1.314 . S
N719 C717 1.279 . S
C720 C717 1.358 . S
C720 C721 1.356 . S
C720 H757 0.930 . S
C721 C718 1.348 . S
C721 C720 1.356 . S
H722 C716 0.930 . S
H723 C717 0.930 . S
C724 N725 1.314 . S
C724 C726 1.353 . S
C724 H730 0.930 . S
N725 Li675 1.990 . S
N725 C724 1.314 . S
N725 C728 1.279 . S
C726 C724 1.353 . S
C726 C729 1.348 . S
C726 H758 0.929 . S
C727 C728 1.358 . S
C727 C729 1.356 . S
C727 H759 0.930 . S
C728 N725 1.279 . S
C728 C727 1.358 . S
C728 H731 0.930 . S
C729 C726 1.348 . S
C729 C727 1.356 . S
H730 C724 0.930 . S
H731 C728 0.930 . S
O732 Li672 1.956 . S
O732 Li673 1.970 . S
O732 Li674 1.961 . S
O732 C676 1.325 . S
O733 Li672 1.970 . S
O733 Li673 1.956 . S
O733 Li675 1.961 . S
O733 C682 1.325 . S
O734 Li672 1.961 . S
O734 Li674 1.956 . S
O734 Li675 1.970 . S
O734 C704 1.325 . S
O735 Li673 1.961 . S
O735 Li674 1.970 . S
O735 Li675 1.956 . S
O735 C710 1.325 . S
H736 C678 0.929 . S
H737 C679 0.930 . S
H738 C680 0.930 . S
H739 C681 0.930 . S
H740 C683 0.930 . S
H741 C685 0.929 . S
H742 C686 0.930 . S
H743 C687 0.930 . S
H744 C690 0.930 . S
H745 C693 0.929 . S
H746 C698 0.929 . S
H747 C699 0.930 . S
H748 C706 0.929 . S
H749 C707 0.930 . S
H750 C708 0.930 . S
H751 C709 0.930 . S
H752 C711 0.929 . S
H753 C712 0.930 . S
H754 C713 0.930 . S
H755 C714 0.930 . S
H756 C718 0.929 . S
H757 C720 0.930 . S
H758 C726 0.929 . S
H759 C727 0.930 . S
Li760 N777 1.990 . S
Li760 O820 1.956 . S
Li760 O821 1.970 1_565 S
Li760 O822 1.961 . S
Li761 N785 1.990 . S
Li761 O820 1.970 1_545 S
Li761 O821 1.956 . S
Li761 O823 1.961 . S
Li762 N807 1.990 . S
Li762 O820 1.961 . S
Li762 O822 1.956 . S
Li762 O823 1.970 1_565 S
Li763 N813 1.990 . S
Li763 O821 1.961 . S
Li763 O822 1.970 1_545 S
Li763 O823 1.956 . S
C764 C766 1.348 . S
C764 C767 1.356 . S
C764 O820 1.325 . S
N765 C768 1.314 . S
N765 C769 1.279 . S
C766 C764 1.348 . S
C766 C768 1.353 . S
C766 H824 0.929 . S
C767 C764 1.356 . S
C767 C769 1.358 . S
C767 H825 0.930 . S
C768 N765 1.314 . S
C768 C766 1.353 . S
C768 H826 0.930 . S
C769 N765 1.279 . S
C769 C767 1.358 . S
C769 H827 0.930 . S
C770 C773 1.348 1_545 S
C770 C774 1.356 . S
C770 O821 1.325 . S
C771 N772 1.279 . S
C771 C774 1.358 . S
C771 H828 0.930 . S
N772 C771 1.279 . S
N772 C775 1.314 1_545 S
C773 C770 1.348 1_565 S
C773 C775 1.353 . S
C773 H829 0.929 . S
C774 C770 1.356 . S
C774 C771 1.358 . S
C774 H830 0.930 . S
C775 N772 1.314 1_565 S
C775 C773 1.353 . S
C775 H831 0.930 . S
C776 N777 1.314 . S
C776 C781 1.353 . S
C776 H782 0.930 . S
N777 Li760 1.990 . S
N777 C776 1.314 . S
N777 C779 1.279 . S
C778 C779 1.358 . S
C778 C780 1.356 . S
C778 H832 0.930 . S
C779 N777 1.279 . S
C779 C778 1.358 . S
C779 H783 0.930 . S
C780 C778 1.356 . S
C780 C781 1.348 . S
C781 C776 1.353 . S
C781 C780 1.348 . S
C781 H833 0.929 . S
H782 C776 0.930 . S
H783 C779 0.930 . S
C784 N785 1.314 . S
C784 C786 1.353 . S
C784 H790 0.930 . S
N785 Li761 1.990 . S
N785 C784 1.314 . S
N785 C788 1.279 . S
C786 C784 1.353 . S
C786 C789 1.348 . S
C786 H834 0.929 . S
C787 C788 1.358 . S
C787 C789 1.356 . S
C787 H835 0.930 . S
C788 N785 1.279 . S
C788 C787 1.358 . S
C788 H791 0.930 . S
C789 C786 1.348 . S
C789 C787 1.356 . S
H790 C784 0.930 . S
H791 C788 0.930 . S
C792 C794 1.348 1_565 S
C792 C795 1.356 . S
C792 O822 1.325 . S
N793 C796 1.314 1_565 S
N793 C797 1.279 . S
C794 C792 1.348 1_545 S
C794 C796 1.353 . S
C794 H836 0.929 . S
C795 C792 1.356 . S
C795 C797 1.358 . S
C795 H837 0.930 . S
C796 N793 1.314 1_545 S
C796 C794 1.353 . S
C796 H838 0.930 . S
C797 N793 1.279 . S
C797 C795 1.358 . S
C797 H839 0.930 . S
C798 C799 1.348 . S
C798 C800 1.356 . S
C798 O823 1.325 . S
C799 C798 1.348 . S
C799 C801 1.353 . S
C799 H840 0.929 . S
C800 C798 1.356 . S
C800 C802 1.358 . S
C800 H841 0.930 . S
C801 C799 1.353 . S
C801 N803 1.314 . S
C801 H842 0.930 . S
C802 C800 1.358 . S
C802 N803 1.279 . S
C802 H843 0.930 . S
N803 C801 1.314 . S
N803 C802 1.279 . S
C804 C806 1.353 . S
C804 N807 1.314 . S
C804 H810 0.930 . S
C805 N807 1.279 . S
C805 C808 1.358 . S
C805 H811 0.930 . S
C806 C804 1.353 . S
C806 C809 1.348 . S
C806 H844 0.929 . S
N807 Li762 1.990 . S
N807 C804 1.314 . S
N807 C805 1.279 . S
C808 C805 1.358 . S
C808 C809 1.356 . S
C808 H845 0.930 . S
C809 C806 1.348 . S
C809 C808 1.356 . S
H810 C804 0.930 . S
H811 C805 0.930 . S
C812 N813 1.314 . S
C812 C814 1.353 . S
C812 H818 0.930 . S
N813 Li763 1.990 . S
N813 C812 1.314 . S
N813 C816 1.279 . S
C814 C812 1.353 . S
C814 C817 1.348 . S
C814 H846 0.929 . S
C815 C816 1.358 . S
C815 C817 1.356 . S
C815 H847 0.930 . S
C816 N813 1.279 . S
C816 C815 1.358 . S
C816 H819 0.930 . S
C817 C814 1.348 . S
C817 C815 1.356 . S
H818 C812 0.930 . S
H819 C816 0.930 . S
O820 Li760 1.956 . S
O820 Li761 1.970 1_565 S
O820 Li762 1.961 . S
O820 C764 1.325 . S
O821 Li760 1.970 1_545 S
O821 Li761 1.956 . S
O821 Li763 1.961 . S
O821 C770 1.325 . S
O822 Li760 1.961 . S
O822 Li762 1.956 . S
O822 Li763 1.970 1_565 S
O822 C792 1.325 . S
O823 Li761 1.961 . S
O823 Li762 1.970 1_545 S
O823 Li763 1.956 . S
O823 C798 1.325 . S
H824 C766 0.929 . S
H825 C767 0.930 . S
H826 C768 0.930 . S
H827 C769 0.930 . S
H828 C771 0.930 . S
H829 C773 0.929 . S
H830 C774 0.930 . S
H831 C775 0.930 . S
H832 C778 0.930 . S
H833 C781 0.929 . S
H834 C786 0.929 . S
H835 C787 0.930 . S
H836 C794 0.929 . S
H837 C795 0.930 . S
H838 C796 0.930 . S
H839 C797 0.930 . S
H840 C799 0.929 . S
H841 C800 0.930 . S
H842 C801 0.930 . S
H843 C802 0.930 . S
H844 C806 0.929 . S
H845 C808 0.930 . S
H846 C814 0.929 . S
H847 C815 0.930 . S
Li848 N865 1.990 . S
Li848 O908 1.956 . S
Li848 O909 1.970 1_455 S
Li848 O910 1.961 . S
Li849 N873 1.990 . S
Li849 O908 1.970 1_655 S
Li849 O909 1.956 . S
Li849 O911 1.961 . S
Li850 N895 1.990 . S
Li850 O908 1.961 . S
Li850 O910 1.956 . S
Li850 O911 1.970 1_455 S
Li851 N901 1.990 . S
Li851 O909 1.961 . S
Li851 O910 1.970 1_655 S
Li851 O911 1.956 . S
C852 C854 1.348 . S
C852 C855 1.356 . S
C852 O908 1.325 . S
N853 C856 1.314 . S
N853 C857 1.279 . S
C854 C852 1.348 . S
C854 C856 1.353 . S
C854 H912 0.929 . S
C855 C852 1.356 . S
C855 C857 1.358 . S
C855 H913 0.930 . S
C856 N853 1.314 . S
C856 C854 1.353 . S
C856 H914 0.930 . S
C857 N853 1.279 . S
C857 C855 1.358 . S
C857 H915 0.930 . S
C858 C861 1.348 1_655 S
C858 C862 1.356 . S
C858 O909 1.325 . S
C859 N860 1.279 . S
C859 C862 1.358 . S
C859 H916 0.930 . S
N860 C859 1.279 . S
N860 C863 1.314 1_655 S
C861 C858 1.348 1_455 S
C861 C863 1.353 . S
C861 H917 0.929 . S
C862 C858 1.356 . S
C862 C859 1.358 . S
C862 H918 0.930 . S
C863 N860 1.314 1_455 S
C863 C861 1.353 . S
C863 H919 0.930 . S
C864 N865 1.314 . S
C864 C869 1.353 . S
C864 H870 0.930 . S
N865 Li848 1.990 . S
N865 C864 1.314 . S
N865 C867 1.279 . S
C866 C867 1.358 . S
C866 C868 1.356 . S
C866 H920 0.930 . S
C867 N865 1.279 . S
C867 C866 1.358 . S
C867 H871 0.930 . S
C868 C866 1.356 . S
C868 C869 1.348 . S
C869 C864 1.353 . S
C869 C868 1.348 . S
C869 H921 0.929 . S
H870 C864 0.930 . S
H871 C867 0.930 . S
C872 N873 1.314 . S
C872 C874 1.353 . S
C872 H878 0.930 . S
N873 Li849 1.990 . S
N873 C872 1.314 . S
N873 C876 1.279 . S
C874 C872 1.353 . S
C874 C877 1.348 . S
C874 H922 0.929 1_556 S
C875 C876 1.358 . S
C875 C877 1.356 . S
C875 H923 0.930 . S
C876 N873 1.279 . S
C876 C875 1.358 . S
C876 H879 0.930 . S
C877 C874 1.348 . S
C877 C875 1.356 . S
H878 C872 0.930 . S
H879 C876 0.930 . S
C880 C882 1.348 1_455 S
C880 C883 1.356 . S
C880 O910 1.325 . S
N881 C884 1.314 1_455 S
N881 C885 1.279 . S
C882 C880 1.348 1_655 S
C882 C884 1.353 . S
C882 H924 0.929 . S
C883 C880 1.356 . S
C883 C885 1.358 . S
C883 H925 0.930 . S
C884 N881 1.314 1_655 S
C884 C882 1.353 . S
C884 H926 0.930 . S
C885 N881 1.279 . S
C885 C883 1.358 . S
C885 H927 0.930 . S
C886 C887 1.348 . S
C886 C888 1.356 . S
C886 O911 1.325 . S
C887 C886 1.348 . S
C887 C889 1.353 . S
C887 H928 0.929 . S
C888 C886 1.356 . S
C888 C890 1.358 . S
C888 H929 0.930 . S
C889 C887 1.353 . S
C889 N891 1.314 . S
C889 H930 0.930 . S
C890 C888 1.358 . S
C890 N891 1.279 . S
C890 H931 0.930 . S
N891 C889 1.314 . S
N891 C890 1.279 . S
C892 C894 1.353 . S
C892 N895 1.314 . S
C892 H898 0.930 . S
C893 N895 1.279 . S
C893 C896 1.358 . S
C893 H899 0.930 . S
C894 C892 1.353 . S
C894 C897 1.348 . S
C894 H932 0.929 1_556 S
N895 Li850 1.990 . S
N895 C892 1.314 . S
N895 C893 1.279 . S
C896 C893 1.358 . S
C896 C897 1.356 . S
C896 H933 0.930 . S
C897 C894 1.348 . S
C897 C896 1.356 . S
H898 C892 0.930 . S
H899 C893 0.930 . S
C900 N901 1.314 . S
C900 C902 1.353 . S
C900 H906 0.930 . S
N901 Li851 1.990 . S
N901 C900 1.314 . S
N901 C904 1.279 . S
C902 C900 1.353 . S
C902 C905 1.348 . S
C902 H934 0.929 . S
C903 C904 1.358 . S
C903 C905 1.356 . S
C903 H935 0.930 . S
C904 N901 1.279 . S
C904 C903 1.358 . S
C904 H907 0.930 . S
C905 C902 1.348 . S
C905 C903 1.356 . S
H906 C900 0.930 . S
H907 C904 0.930 . S
O908 Li848 1.956 . S
O908 Li849 1.970 1_455 S
O908 Li850 1.961 . S
O908 C852 1.325 . S
O909 Li848 1.970 1_655 S
O909 Li849 1.956 . S
O909 Li851 1.961 . S
O909 C858 1.325 . S
O910 Li848 1.961 . S
O910 Li850 1.956 . S
O910 Li851 1.970 1_455 S
O910 C880 1.325 . S
O911 Li849 1.961 . S
O911 Li850 1.970 1_655 S
O911 Li851 1.956 . S
O911 C886 1.325 . S
H912 C854 0.929 . S
H913 C855 0.930 . S
H914 C856 0.930 . S
H915 C857 0.930 . S
H916 C859 0.930 . S
H917 C861 0.929 . S
H918 C862 0.930 . S
H919 C863 0.930 . S
H920 C866 0.930 . S
H921 C869 0.929 . S
H922 C874 0.929 1_554 S
H923 C875 0.930 . S
H924 C882 0.929 . S
H925 C883 0.930 . S
H926 C884 0.930 . S
H927 C885 0.930 . S
H928 C887 0.929 . S
H929 C888 0.930 . S
H930 C889 0.930 . S
H931 C890 0.930 . S
H932 C894 0.929 1_554 S
H933 C896 0.930 . S
H934 C902 0.929 . S
H935 C903 0.930 . S
Li936 N953 1.990 . S
Li936 O996 1.956 . S
Li936 O997 1.970 . S
Li936 O998 1.961 . S
Li937 N961 1.990 . S
Li937 O996 1.970 . S
Li937 O997 1.956 . S
Li937 O999 1.961 . S
Li938 N983 1.990 . S
Li938 O996 1.961 . S
Li938 O998 1.956 . S
Li938 O999 1.970 . S
Li939 N989 1.990 . S
Li939 O997 1.961 . S
Li939 O998 1.970 . S
Li939 O999 1.956 . S
C940 C942 1.348 . S
C940 C943 1.356 . S
C940 O996 1.325 . S
N941 C944 1.314 . S
N941 C945 1.279 . S
C942 C940 1.348 . S
C942 C944 1.353 . S
C942 H1000 0.929 . S
C943 C940 1.356 . S
C943 C945 1.358 . S
C943 H1001 0.930 . S
C944 N941 1.314 . S
C944 C942 1.353 . S
C944 H1002 0.930 . S
C945 N941 1.279 . S
C945 C943 1.358 . S
C945 H1003 0.930 . S
C946 C949 1.348 . S
C946 C950 1.356 . S
C946 O997 1.325 . S
C947 N948 1.279 . S
C947 C950 1.358 . S
C947 H1004 0.930 . S
N948 C947 1.279 . S
N948 C951 1.314 . S
C949 C946 1.348 . S
C949 C951 1.353 . S
C949 H1005 0.929 . S
C950 C946 1.356 . S
C950 C947 1.358 . S
C950 H1006 0.930 . S
C951 N948 1.314 . S
C951 C949 1.353 . S
C951 H1007 0.930 . S
C952 N953 1.314 . S
C952 C957 1.353 . S
C952 H958 0.930 . S
N953 Li936 1.990 . S
N953 C952 1.314 . S
N953 C955 1.279 . S
C954 C955 1.358 . S
C954 C956 1.356 . S
C954 H1008 0.930 . S
C955 N953 1.279 . S
C955 C954 1.358 . S
C955 H959 0.930 . S
C956 C954 1.356 . S
C956 C957 1.348 . S
C957 C952 1.353 . S
C957 C956 1.348 . S
C957 H1009 0.929 . S
H958 C952 0.930 . S
H959 C955 0.930 . S
C960 N961 1.314 . S
C960 C962 1.353 . S
C960 H966 0.930 . S
N961 Li937 1.990 . S
N961 C960 1.314 . S
N961 C964 1.279 . S
C962 C960 1.353 . S
C962 C965 1.348 . S
C962 H1010 0.929 . S
C963 C964 1.358 . S
C963 C965 1.356 . S
C963 H1011 0.930 . S
C964 N961 1.279 . S
C964 C963 1.358 . S
C964 H967 0.930 . S
C965 C962 1.348 . S
C965 C963 1.356 . S
H966 C960 0.930 . S
H967 C964 0.930 . S
C968 C970 1.348 . S
C968 C971 1.356 . S
C968 O998 1.325 . S
N969 C972 1.314 . S
N969 C973 1.279 . S
C970 C968 1.348 . S
C970 C972 1.353 . S
C970 H1012 0.929 . S
C971 C968 1.356 . S
C971 C973 1.358 . S
C971 H1013 0.930 . S
C972 N969 1.314 . S
C972 C970 1.353 . S
C972 H1014 0.930 . S
C973 N969 1.279 . S
C973 C971 1.358 . S
C973 H1015 0.930 . S
C974 C975 1.348 . S
C974 C976 1.356 . S
C974 O999 1.325 . S
C975 C974 1.348 . S
C975 C977 1.353 . S
C975 H1016 0.929 . S
C976 C974 1.356 . S
C976 C978 1.358 . S
C976 H1017 0.930 . S
C977 C975 1.353 . S
C977 N979 1.314 . S
C977 H1018 0.930 . S
C978 C976 1.358 . S
C978 N979 1.279 . S
C978 H1019 0.930 . S
N979 C977 1.314 . S
N979 C978 1.279 . S
C980 C982 1.353 . S
C980 N983 1.314 . S
C980 H986 0.930 . S
C981 N983 1.279 . S
C981 C984 1.358 . S
C981 H987 0.930 . S
C982 C980 1.353 . S
C982 C985 1.348 . S
C982 H1020 0.929 . S
N983 Li938 1.990 . S
N983 C980 1.314 . S
N983 C981 1.279 . S
C984 C981 1.358 . S
C984 C985 1.356 . S
C984 H1021 0.930 . S
C985 C982 1.348 . S
C985 C984 1.356 . S
H986 C980 0.930 . S
H987 C981 0.930 . S
C988 N989 1.314 . S
C988 C990 1.353 . S
C988 H994 0.930 . S
N989 Li939 1.990 . S
N989 C988 1.314 . S
N989 C992 1.279 . S
C990 C988 1.353 . S
C990 C993 1.348 . S
C990 H1022 0.929 . S
C991 C992 1.358 . S
C991 C993 1.356 . S
C991 H1023 0.930 . S
C992 N989 1.279 . S
C992 C991 1.358 . S
C992 H995 0.930 . S
C993 C990 1.348 . S
C993 C991 1.356 . S
H994 C988 0.930 . S
H995 C992 0.930 . S
O996 Li936 1.956 . S
O996 Li937 1.970 . S
O996 Li938 1.961 . S
O996 C940 1.325 . S
O997 Li936 1.970 . S
O997 Li937 1.956 . S
O997 Li939 1.961 . S
O997 C946 1.325 . S
O998 Li936 1.961 . S
O998 Li938 1.956 . S
O998 Li939 1.970 . S
O998 C968 1.325 . S
O999 Li937 1.961 . S
O999 Li938 1.970 . S
O999 Li939 1.956 . S
O999 C974 1.325 . S
H1000 C942 0.929 . S
H1001 C943 0.930 . S
H1002 C944 0.930 . S
H1003 C945 0.930 . S
H1004 C947 0.930 . S
H1005 C949 0.929 . S
H1006 C950 0.930 . S
H1007 C951 0.930 . S
H1008 C954 0.930 . S
H1009 C957 0.929 . S
H1010 C962 0.929 . S
H1011 C963 0.930 . S
H1012 C970 0.929 . S
H1013 C971 0.930 . S
H1014 C972 0.930 . S
H1015 C973 0.930 . S
H1016 C975 0.929 . S
H1017 C976 0.930 . S
H1018 C977 0.930 . S
H1019 C978 0.930 . S
H1020 C982 0.929 . S
H1021 C984 0.930 . S
H1022 C990 0.929 . S
H1023 C991 0.930 . S
Li1024 N1041 1.990 . S
Li1024 O1084 1.956 . S
Li1024 O1085 1.970 1_455 S
Li1024 O1086 1.961 . S
Li1025 N1049 1.990 . S
Li1025 O1084 1.970 1_655 S
Li1025 O1085 1.956 . S
Li1025 O1087 1.961 . S
Li1026 N1071 1.990 . S
Li1026 O1084 1.961 . S
Li1026 O1086 1.956 . S
Li1026 O1087 1.970 1_455 S
Li1027 N1077 1.990 . S
Li1027 O1085 1.961 . S
Li1027 O1086 1.970 1_655 S
Li1027 O1087 1.956 . S
C1028 C1030 1.348 1_455 S
C1028 C1031 1.356 . S
C1028 O1084 1.325 . S
N1029 C1032 1.314 1_455 S
N1029 C1033 1.279 . S
C1030 C1028 1.348 1_655 S
C1030 C1032 1.353 . S
C1030 H1088 0.929 . S
C1031 C1028 1.356 . S
C1031 C1033 1.358 . S
C1031 H1089 0.930 . S
C1032 N1029 1.314 1_655 S
C1032 C1030 1.353 . S
C1032 H1090 0.930 . S
C1033 N1029 1.279 . S
C1033 C1031 1.358 . S
C1033 H1091 0.930 . S
C1034 C1037 1.348 . S
C1034 C1038 1.356 . S
C1034 O1085 1.325 . S
C1035 N1036 1.279 . S
C1035 C1038 1.358 . S
C1035 H1092 0.930 . S
N1036 C1035 1.279 . S
N1036 C1039 1.314 . S
C1037 C1034 1.348 . S
C1037 C1039 1.353 . S
C1037 H1093 0.929 . S
C1038 C1034 1.356 . S
C1038 C1035 1.358 . S
C1038 H1094 0.930 . S
C1039 N1036 1.314 . S
C1039 C1037 1.353 . S
C1039 H1095 0.930 . S
C1040 N1041 1.314 . S
C1040 C1045 1.353 . S
C1040 H1046 0.930 . S
N1041 Li1024 1.990 . S
N1041 C1040 1.314 . S
N1041 C1043 1.279 . S
C1042 C1043 1.358 . S
C1042 C1044 1.356 . S
C1042 H1096 0.930 . S
C1043 N1041 1.279 . S
C1043 C1042 1.358 . S
C1043 H1047 0.930 . S
C1044 C1042 1.356 . S
C1044 C1045 1.348 . S
C1045 C1040 1.353 . S
C1045 C1044 1.348 . S
C1045 H1097 0.929 . S
H1046 C1040 0.930 . S
H1047 C1043 0.930 . S
C1048 N1049 1.314 . S
C1048 C1050 1.353 . S
C1048 H1054 0.930 . S
N1049 Li1025 1.990 . S
N1049 C1048 1.314 . S
N1049 C1052 1.279 . S
C1050 C1048 1.353 . S
C1050 C1053 1.348 . S
C1050 H1098 0.929 . S
C1051 C1052 1.358 . S
C1051 C1053 1.356 . S
C1051 H1099 0.930 . S
C1052 N1049 1.279 . S
C1052 C1051 1.358 . S
C1052 H1055 0.930 . S
C1053 C1050 1.348 . S
C1053 C1051 1.356 . S
H1054 C1048 0.930 . S
H1055 C1052 0.930 . S
C1056 C1058 1.348 . S
C1056 C1059 1.356 . S
C1056 O1086 1.325 . S
N1057 C1060 1.314 . S
N1057 C1061 1.279 . S
C1058 C1056 1.348 . S
C1058 C1060 1.353 . S
C1058 H1100 0.929 . S
C1059 C1056 1.356 . S
C1059 C1061 1.358 . S
C1059 H1101 0.930 . S
C1060 N1057 1.314 . S
C1060 C1058 1.353 . S
C1060 H1102 0.930 . S
C1061 N1057 1.279 . S
C1061 C1059 1.358 . S
C1061 H1103 0.930 . S
C1062 C1063 1.348 1_655 S
C1062 C1064 1.356 . S
C1062 O1087 1.325 . S
C1063 C1062 1.348 1_455 S
C1063 C1065 1.353 . S
C1063 H1104 0.929 . S
C1064 C1062 1.356 . S
C1064 C1066 1.358 . S
C1064 H1105 0.930 . S
C1065 C1063 1.353 . S
C1065 N1067 1.314 1_455 S
C1065 H1106 0.930 . S
C1066 C1064 1.358 . S
C1066 N1067 1.279 . S
C1066 H1107 0.930 . S
N1067 C1065 1.314 1_655 S
N1067 C1066 1.279 . S
C1068 C1070 1.353 . S
C1068 N1071 1.314 . S
C1068 H1074 0.930 . S
C1069 N1071 1.279 . S
C1069 C1072 1.358 . S
C1069 H1075 0.930 . S
C1070 C1068 1.353 . S
C1070 C1073 1.348 . S
C1070 H1108 0.929 . S
N1071 Li1026 1.990 . S
N1071 C1068 1.314 . S
N1071 C1069 1.279 . S
C1072 C1069 1.358 . S
C1072 C1073 1.356 . S
C1072 H1109 0.930 . S
C1073 C1070 1.348 . S
C1073 C1072 1.356 . S
H1074 C1068 0.930 . S
H1075 C1069 0.930 . S
C1076 N1077 1.314 . S
C1076 C1078 1.353 . S
C1076 H1082 0.930 . S
N1077 Li1027 1.990 . S
N1077 C1076 1.314 . S
N1077 C1080 1.279 . S
C1078 C1076 1.353 . S
C1078 C1081 1.348 . S
C1078 H1110 0.929 . S
C1079 C1080 1.358 . S
C1079 C1081 1.356 . S
C1079 H1111 0.930 . S
C1080 N1077 1.279 . S
C1080 C1079 1.358 . S
C1080 H1083 0.930 . S
C1081 C1078 1.348 . S
C1081 C1079 1.356 . S
H1082 C1076 0.930 . S
H1083 C1080 0.930 . S
O1084 Li1024 1.956 . S
O1084 Li1025 1.970 1_455 S
O1084 Li1026 1.961 . S
O1084 C1028 1.325 . S
O1085 Li1024 1.970 1_655 S
O1085 Li1025 1.956 . S
O1085 Li1027 1.961 . S
O1085 C1034 1.325 . S
O1086 Li1024 1.961 . S
O1086 Li1026 1.956 . S
O1086 Li1027 1.970 1_455 S
O1086 C1056 1.325 . S
O1087 Li1025 1.961 . S
O1087 Li1026 1.970 1_655 S
O1087 Li1027 1.956 . S
O1087 C1062 1.325 . S
H1088 C1030 0.929 . S
H1089 C1031 0.930 . S
H1090 C1032 0.930 . S
H1091 C1033 0.930 . S
H1092 C1035 0.930 . S
H1093 C1037 0.929 . S
H1094 C1038 0.930 . S
H1095 C1039 0.930 . S
H1096 C1042 0.930 . S
H1097 C1045 0.929 . S
H1098 C1050 0.929 . S
H1099 C1051 0.930 . S
H1100 C1058 0.929 . S
H1101 C1059 0.930 . S
H1102 C1060 0.930 . S
H1103 C1061 0.930 . S
H1104 C1063 0.929 . S
H1105 C1064 0.930 . S
H1106 C1065 0.930 . S
H1107 C1066 0.930 . S
H1108 C1070 0.929 . S
H1109 C1072 0.930 . S
H1110 C1078 0.929 . S
H1111 C1079 0.930 . S
Li1112 N1129 1.990 . S
Li1112 O1172 1.956 . S
Li1112 O1173 1.970 . S
Li1112 O1174 1.961 . S
Li1113 N1137 1.990 . S
Li1113 O1172 1.970 . S
Li1113 O1173 1.956 . S
Li1113 O1175 1.961 . S
Li1114 N1159 1.990 . S
Li1114 O1172 1.961 . S
Li1114 O1174 1.956 . S
Li1114 O1175 1.970 . S
Li1115 N1165 1.990 . S
Li1115 O1173 1.961 . S
Li1115 O1174 1.970 . S
Li1115 O1175 1.956 . S
C1116 C1118 1.348 . S
C1116 C1119 1.356 . S
C1116 O1172 1.325 . S
N1117 C1120 1.314 . S
N1117 C1121 1.279 . S
C1118 C1116 1.348 . S
C1118 C1120 1.353 . S
C1118 H1176 0.929 . S
C1119 C1116 1.356 . S
C1119 C1121 1.358 . S
C1119 H1177 0.930 . S
C1120 N1117 1.314 . S
C1120 C1118 1.353 . S
C1120 H1178 0.930 . S
C1121 N1117 1.279 . S
C1121 C1119 1.358 . S
C1121 H1179 0.930 . S
C1122 C1125 1.348 . S
C1122 C1126 1.356 . S
C1122 O1173 1.325 . S
C1123 N1124 1.279 . S
C1123 C1126 1.358 . S
C1123 H1180 0.930 . S
N1124 C1123 1.279 . S
N1124 C1127 1.314 . S
C1125 C1122 1.348 . S
C1125 C1127 1.353 . S
C1125 H1181 0.929 . S
C1126 C1122 1.356 . S
C1126 C1123 1.358 . S
C1126 H1182 0.930 . S
C1127 N1124 1.314 . S
C1127 C1125 1.353 . S
C1127 H1183 0.930 . S
C1128 N1129 1.314 . S
C1128 C1133 1.353 . S
C1128 H1134 0.930 . S
N1129 Li1112 1.990 . S
N1129 C1128 1.314 . S
N1129 C1131 1.279 . S
C1130 C1131 1.358 . S
C1130 C1132 1.356 . S
C1130 H1184 0.930 . S
C1131 N1129 1.279 . S
C1131 C1130 1.358 . S
C1131 H1135 0.930 . S
C1132 C1130 1.356 . S
C1132 C1133 1.348 . S
C1133 C1128 1.353 . S
C1133 C1132 1.348 . S
C1133 H1185 0.929 1_554 S
H1134 C1128 0.930 . S
H1135 C1131 0.930 . S
C1136 N1137 1.314 . S
C1136 C1138 1.353 . S
C1136 H1142 0.930 . S
N1137 Li1113 1.990 . S
N1137 C1136 1.314 . S
N1137 C1140 1.279 . S
C1138 C1136 1.353 . S
C1138 C1141 1.348 . S
C1138 H1186 0.929 . S
C1139 C1140 1.358 . S
C1139 C1141 1.356 . S
C1139 H1187 0.930 . S
C1140 N1137 1.279 . S
C1140 C1139 1.358 . S
C1140 H1143 0.930 . S
C1141 C1138 1.348 . S
C1141 C1139 1.356 . S
H1142 C1136 0.930 . S
H1143 C1140 0.930 . S
C1144 C1146 1.348 . S
C1144 C1147 1.356 . S
C1144 O1174 1.325 . S
N1145 C1148 1.314 . S
N1145 C1149 1.279 . S
C1146 C1144 1.348 . S
C1146 C1148 1.353 . S
C1146 H1188 0.929 . S
C1147 C1144 1.356 . S
C1147 C1149 1.358 . S
C1147 H1189 0.930 . S
C1148 N1145 1.314 . S
C1148 C1146 1.353 . S
C1148 H1190 0.930 . S
C1149 N1145 1.279 . S
C1149 C1147 1.358 . S
C1149 H1191 0.930 . S
C1150 C1151 1.348 . S
C1150 C1152 1.356 . S
C1150 O1175 1.325 . S
C1151 C1150 1.348 . S
C1151 C1153 1.353 . S
C1151 H1192 0.929 . S
C1152 C1150 1.356 . S
C1152 C1154 1.358 . S
C1152 H1193 0.930 . S
C1153 C1151 1.353 . S
C1153 N1155 1.314 . S
C1153 H1194 0.930 . S
C1154 C1152 1.358 . S
C1154 N1155 1.279 . S
C1154 H1195 0.930 . S
N1155 C1153 1.314 . S
N1155 C1154 1.279 . S
C1156 C1158 1.353 . S
C1156 N1159 1.314 . S
C1156 H1162 0.930 . S
C1157 N1159 1.279 . S
C1157 C1160 1.358 . S
C1157 H1163 0.930 . S
C1158 C1156 1.353 . S
C1158 C1161 1.348 . S
C1158 H1196 0.929 . S
N1159 Li1114 1.990 . S
N1159 C1156 1.314 . S
N1159 C1157 1.279 . S
C1160 C1157 1.358 . S
C1160 C1161 1.356 . S
C1160 H1197 0.930 . S
C1161 C1158 1.348 . S
C1161 C1160 1.356 . S
H1162 C1156 0.930 . S
H1163 C1157 0.930 . S
C1164 N1165 1.314 . S
C1164 C1166 1.353 . S
C1164 H1170 0.930 . S
N1165 Li1115 1.990 . S
N1165 C1164 1.314 . S
N1165 C1168 1.279 . S
C1166 C1164 1.353 . S
C1166 C1169 1.348 . S
C1166 H1198 0.929 1_554 S
C1167 C1168 1.358 . S
C1167 C1169 1.356 . S
C1167 H1199 0.930 . S
C1168 N1165 1.279 . S
C1168 C1167 1.358 . S
C1168 H1171 0.930 . S
C1169 C1166 1.348 . S
C1169 C1167 1.356 . S
H1170 C1164 0.930 . S
H1171 C1168 0.930 . S
O1172 Li1112 1.956 . S
O1172 Li1113 1.970 . S
O1172 Li1114 1.961 . S
O1172 C1116 1.325 . S
O1173 Li1112 1.970 . S
O1173 Li1113 1.956 . S
O1173 Li1115 1.961 . S
O1173 C1122 1.325 . S
O1174 Li1112 1.961 . S
O1174 Li1114 1.956 . S
O1174 Li1115 1.970 . S
O1174 C1144 1.325 . S
O1175 Li1113 1.961 . S
O1175 Li1114 1.970 . S
O1175 Li1115 1.956 . S
O1175 C1150 1.325 . S
H1176 C1118 0.929 . S
H1177 C1119 0.930 . S
H1178 C1120 0.930 . S
H1179 C1121 0.930 . S
H1180 C1123 0.930 . S
H1181 C1125 0.929 . S
H1182 C1126 0.930 . S
H1183 C1127 0.930 . S
H1184 C1130 0.930 . S
H1185 C1133 0.929 1_556 S
H1186 C1138 0.929 . S
H1187 C1139 0.930 . S
H1188 C1146 0.929 . S
H1189 C1147 0.930 . S
H1190 C1148 0.930 . S
H1191 C1149 0.930 . S
H1192 C1151 0.929 . S
H1193 C1152 0.930 . S
H1194 C1153 0.930 . S
H1195 C1154 0.930 . S
H1196 C1158 0.929 . S
H1197 C1160 0.930 . S
H1198 C1166 0.929 1_556 S
H1199 C1167 0.930 . S
C193 C50 1.515 . S
C252 C61 1.498 1_455 S
C67 C369 1.513 . S
C437 C41 1.506 1_655 S
C516 C95 1.502 . S
C641 C113 1.521 . S
C106 C701 1.489 . S
C809 C86 1.524 . S
C104 C905 1.498 . S
C965 C88 1.522 . S
C94 C868 1.525 . S
C985 C112 1.504 . S
C70 C1053 1.497 . S
C40 C1044 1.516 . S
C49 C1073 1.514 . S
C59 C1081 1.520 . S
C34 C465 1.497 . S
C133 C428 1.502 . S
C164 C139 1.518 1_565 S
C261 C77 1.515 . S
C43 C525 1.498 1_565 S
C817 C103 1.506 . S
C545 C85 1.535 1_545 S
C729 C115 1.496 . S
C721 C131 1.515 . S
C142 C789 1.498 . S
C76 C553 1.513 . S
C604 C122 1.506 . S
C32 C349 1.502 . S
C457 C5 1.521 1_655 S
C173 C16 1.489 . S
C289 C23 1.524 1_455 S
C14 C993 1.498 . S
C25 C877 1.523 1_554 S
C31 C956 1.525 . S
C4 C897 1.504 1_554 S
C1141 C79 1.497 . S
C1132 C121 1.517 1_554 S
C1161 C130 1.514 . S
C140 C1169 1.519 1_556 S
C97 C633 1.497 . S
C613 C52 1.502 . S
C692 C58 1.518 . S
C780 C68 1.515 . S
C124 C340 1.498 . S
C281 C13 1.506 . S
C22 C377 1.535 . S
C201 C7 1.496 1_565 S
