# Generated by pormake.
# Topology anh, (6,3)-cn, num edge types: 1
# Building blocks:
#     Node 0, Type 0, BuildingBlock: BETGAK_clean_sbu_0, # of connection points: 6
#     Node 1, Type 0, BuildingBlock: BETGAK_clean_sbu_0, # of connection points: 6
#     Node 2, Type 0, BuildingBlock: BETGAK_clean_sbu_0, # of connection points: 6
#     Node 3, Type 1, BuildingBlock: BETDAH_clean_linker_0, # of connection points: 3
#     Node 4, Type 1, BuildingBlock: BETDAH_clean_linker_0, # of connection points: 3
#     Node 5, Type 1, BuildingBlock: BETDAH_clean_linker_0, # of connection points: 3
#     Node 6, Type 1, BuildingBlock: BETDAH_clean_linker_0, # of connection points: 3
#     Node 7, Type 1, BuildingBlock: BETDAH_clean_linker_0, # of connection points: 3
#     Node 8, Type 1, BuildingBlock: BETDAH_clean_linker_0, # of connection points: 3
#     Edge 9, Type (0, 1), BuildingBlock: EYOCIG_clean_linker_4, # of connection points: 2
#     Edge 10, Type (0, 1), BuildingBlock: EYOCIG_clean_linker_4, # of connection points: 2
#     Edge 11, Type (0, 1), BuildingBlock: EYOCIG_clean_linker_4, # of connection points: 2
#     Edge 12, Type (0, 1), BuildingBlock: EYOCIG_clean_linker_4, # of connection points: 2
#     Edge 13, Type (0, 1), BuildingBlock: EYOCIG_clean_linker_4, # of connection points: 2
#     Edge 14, Type (0, 1), BuildingBlock: EYOCIG_clean_linker_4, # of connection points: 2
#     Edge 15, Type (0, 1), BuildingBlock: EYOCIG_clean_linker_4, # of connection points: 2
#     Edge 16, Type (0, 1), BuildingBlock: EYOCIG_clean_linker_4, # of connection points: 2
#     Edge 17, Type (0, 1), BuildingBlock: EYOCIG_clean_linker_4, # of connection points: 2
#     Edge 18, Type (0, 1), BuildingBlock: EYOCIG_clean_linker_4, # of connection points: 2
#     Edge 19, Type (0, 1), BuildingBlock: EYOCIG_clean_linker_4, # of connection points: 2
#     Edge 20, Type (0, 1), BuildingBlock: EYOCIG_clean_linker_4, # of connection points: 2
#     Edge 21, Type (0, 1), BuildingBlock: EYOCIG_clean_linker_4, # of connection points: 2
#     Edge 22, Type (0, 1), BuildingBlock: EYOCIG_clean_linker_4, # of connection points: 2
#     Edge 23, Type (0, 1), BuildingBlock: EYOCIG_clean_linker_4, # of connection points: 2
#     Edge 24, Type (0, 1), BuildingBlock: EYOCIG_clean_linker_4, # of connection points: 2
#     Edge 25, Type (0, 1), BuildingBlock: EYOCIG_clean_linker_4, # of connection points: 2
#     Edge 26, Type (0, 1), BuildingBlock: EYOCIG_clean_linker_4, # of connection points: 2
# Relax obj value: 0.198
# Max RMSD: 0.203
# Mean RMSD: 0.118
data_MOF--net-anh--node1-BETGAK_clean_sbu_0--node2-BETDAH_clean_linker_0--edge1-EYOCIG_clean_linker_4
_symmetry_space_group_name_H-M    P1
_symmetry_Int_Tables_number       1
_symmetry_cell_setting            triclinic
loop_
_symmetry_equiv_pos_as_xyz
'x, y, z'
_cell_length_a     24.480115
_cell_length_b     31.40568
_cell_length_c     38.841803
_cell_angle_alpha  94.634066
_cell_angle_beta   88.910389
_cell_angle_gamma 132.19235
loop_
_atom_site_label
_atom_site_type_symbol
_atom_site_fract_x
_atom_site_fract_y
_atom_site_fract_z
_atom_type_partial_charge
La0 La 0.20666 0.56384 0.16894 0.0
La1 La 0.12892 0.59544 0.16132 0.0
C2 C 0.29886 0.55471 0.16663 0.0
C3 C 0.37748 0.60168 0.17345 0.0
C4 C 0.40919 0.60844 0.20534 0.0
C5 C 0.48532 0.64898 0.21054 0.0
C6 C 0.5297 0.68074 0.18329 0.0
C7 C 0.49757 0.68166 0.15423 0.0
C8 C 0.42134 0.64152 0.149 0.0
C9 C 0.15836 0.56949 0.22818 0.0
C10 C 0.29482 0.69768 0.16653 0.0
C11 C 1.05665 0.61999 0.18041 0.0
C12 C 0.97759 0.57573 0.18165 0.0
C13 C 0.93374 0.56048 0.15228 0.0
C14 C 0.85829 0.51693 0.15311 0.0
C15 C 0.82667 0.4922 0.18429 0.0
C16 C 0.86979 0.49999 0.21128 0.0
C17 C 0.94578 0.54225 0.21008 0.0
C18 C 0.14071 0.57197 0.09647 0.0
C19 C 1.04051 0.46262 0.16131 0.0
O20 O 0.2595 0.54276 0.1935 0.0
O21 O 0.27135 0.55629 0.13876 0.0
O22 O 0.15153 0.5265 0.21649 0.0
O23 O 0.1886 0.60634 0.20608 0.0
O24 O 0.29872 0.65918 0.17332 0.0
O25 O 0.23179 0.68182 0.15853 0.0
O26 O 1.08203 0.62874 0.14937 0.0
O27 O 1.09245 0.61608 0.20239 0.0
O28 O 1.10311 0.58535 0.1065 0.0
O29 O 0.16808 0.56831 0.12224 0.0
O30 O 1.03722 0.50275 0.16783 0.0
O31 O 1.10358 0.47729 0.1549 0.0
H32 H 0.37573 0.57973 0.22522 0.0
H33 H 0.50898 0.64765 0.23327 0.0
H34 H 0.53074 0.7058 0.13282 0.0
H35 H 0.39765 0.63906 0.12479 0.0
H36 H 0.95719 0.58339 0.12924 0.0
H37 H 0.82497 0.50964 0.13137 0.0
H38 H 0.84562 0.48008 0.2351 0.0
H39 H 0.97906 0.5506 0.23219 0.0
La40 La 0.66456 0.03805 0.47525 0.0
La41 La 0.58218 0.07333 0.48141 0.0
C42 C 0.7019 0.98255 0.48397 0.0
C43 C 0.66156 0.92036 0.48024 0.0
C44 C 0.66427 0.89505 0.44945 0.0
C45 C 0.63961 0.83995 0.4483 0.0
C46 C 0.61191 0.8099 0.47786 0.0
C47 C 0.60158 0.83211 0.50727 0.0
C48 C 0.626 0.88707 0.50846 0.0
C49 C 0.6372 0.05542 0.41584 0.0
C50 C 0.48735 0.94171 0.47559 0.0
C51 C 0.54237 0.12729 0.4724 0.0
C52 C 0.57897 0.1886 0.47771 0.0
C53 C 0.57615 0.21105 0.50979 0.0
C54 C 0.60122 0.26621 0.51361 0.0
C55 C 0.62955 0.29967 0.48553 0.0
C56 C 0.63754 0.27959 0.45415 0.0
C57 C 0.6124 0.22415 0.45023 0.0
C58 C 0.61351 0.05794 0.54103 0.0
C59 C 0.75926 0.16978 0.47942 0.0
O60 O 0.7127 1.00641 0.4555 0.0
O61 O 0.68376 1.00053 0.50931 0.0
O62 O 0.69717 0.067 0.42392 0.0
O63 O 0.59212 0.03099 0.43964 0.0
O64 O 0.55106 0.95543 0.4794 0.0
O65 O 0.48443 0.98152 0.47166 0.0
O66 O 0.52899 0.10114 0.50017 0.0
O67 O 0.56641 0.11344 0.4477 0.0
O68 O 0.55282 0.04579 0.53373 0.0
O69 O 0.65625 0.08165 0.51652 0.0
O70 O 0.6953 0.15601 0.47656 0.0
O71 O 0.76264 0.13018 0.48352 0.0
H72 H 0.68993 0.9192 0.42705 0.0
H73 H 0.64798 0.82308 0.42543 0.0
H74 H 0.58013 0.809 0.53027 0.0
H75 H 0.62148 0.90476 0.53229 0.0
H76 H 0.55181 0.18523 0.53159 0.0
H77 H 0.59556 0.28177 0.53812 0.0
H78 H 0.66019 0.30561 0.43239 0.0
H79 H 0.61644 0.20837 0.42536 0.0
La80 La 0.75778 0.62555 0.83867 0.0
La81 La 0.65668 0.49885 0.82712 0.0
C82 C 0.81172 0.72641 0.83494 0.0
C83 C 0.77838 0.752 0.83777 0.0
C84 C 0.78827 0.78409 0.86849 0.0
C85 C 0.76316 0.81314 0.86984 0.0
C86 C 0.72794 0.81008 0.84052 0.0
C87 C 0.7137 0.7753 0.81077 0.0
C88 C 0.73835 0.74619 0.8094 0.0
C89 C 0.7201 0.57285 0.89334 0.0
C90 C 0.57735 0.54774 0.83699 0.0
C91 C 0.60065 0.39797 0.83347 0.0
C92 C 0.62907 0.36881 0.82945 0.0
C93 C 0.61793 0.33863 0.79767 0.0
C94 C 0.63786 0.30624 0.79456 0.0
C95 C 0.66903 0.30359 0.8231 0.0
C96 C 0.68443 0.33596 0.85433 0.0
C97 C 0.66457 0.36862 0.85752 0.0
C98 C 0.68945 0.54937 0.7706 0.0
C99 C 0.83554 0.5753 0.83791 0.0
O100 O 0.81554 0.70849 0.86326 0.0
O101 O 0.79137 0.69033 0.80763 0.0
O102 O 0.78477 0.62323 0.89102 0.0
O103 O 0.67876 0.55682 0.86763 0.0
O104 O 0.64589 0.59906 0.83588 0.0
O105 O 0.56757 0.50042 0.83677 0.0
O106 O 0.59253 0.41373 0.80521 0.0
O107 O 0.62878 0.43734 0.85964 0.0
O108 O 0.62641 0.49906 0.77527 0.0
O109 O 0.73454 0.56793 0.79576 0.0
O110 O 0.76652 0.52416 0.83518 0.0
O111 O 0.84738 0.62341 0.83682 0.0
H112 H 0.8177 0.78846 0.89099 0.0
H113 H 0.77443 0.84007 0.89302 0.0
H114 H 0.68638 0.77271 0.78797 0.0
H115 H 0.72837 0.72095 0.78561 0.0
H116 H 0.59161 0.33844 0.77548 0.0
H117 H 0.6263 0.28148 0.77019 0.0
H118 H 0.70904 0.33428 0.87646 0.0
H119 H 0.67485 0.3921 0.88222 0.0
H120 H 0.5328 0.96518 0.24944 0.0
H121 H 0.71651 0.14425 0.23595 0.0
H122 H 0.60833 1.01724 0.14758 0.0
C123 C 0.57004 0.99896 0.23252 0.0
C124 C 0.56392 0.98456 0.19697 0.0
C125 C 0.62443 0.05621 0.24662 0.0
C126 C 0.67381 0.1001 0.22488 0.0
C127 C 0.66799 0.08618 0.18884 0.0
C128 C 0.61263 0.02823 0.17518 0.0
N129 N 0.71683 0.12825 0.1654 0.0
C130 C 0.77314 0.18779 0.17332 0.0
H131 H 0.66149 0.49009 0.59882 0.0
H132 H 0.71849 0.65321 0.60021 0.0
H133 H 0.68933 0.56231 0.50346 0.0
C134 C 0.67109 0.52327 0.58517 0.0
C135 C 0.67112 0.51996 0.54897 0.0
C136 C 0.68784 0.57126 0.60375 0.0
C137 C 0.70317 0.61508 0.58603 0.0
C138 C 0.70351 0.61155 0.5499 0.0
C139 C 0.6866 0.56376 0.53139 0.0
N140 N 0.73099 0.65958 0.53245 0.0
C141 C 0.68443 0.66601 0.52043 0.0
H142 H 1.07962 0.56863 0.92407 0.0
H143 H 0.24492 0.55672 0.91423 0.0
H144 H 0.14977 0.56044 0.82297 0.0
C145 C 1.11351 0.56578 0.90757 0.0
C146 C 1.107 0.56514 0.87156 0.0
C147 C 0.16247 0.56266 0.92294 0.0
C148 C 0.20758 0.55905 0.90212 0.0
C149 C 0.20441 0.55821 0.86582 0.0
C150 C 0.15328 0.56118 0.85079 0.0
N151 N 0.25037 0.55425 0.84381 0.0
C152 C 0.30546 0.5517 0.85137 0.0
H153 H 0.23507 0.67709 0.39905 0.0
H154 H 1.06792 0.49518 0.411 0.0
H155 H 0.18344 0.61872 0.50085 0.0
C156 C 0.20328 0.64206 0.41568 0.0
C157 C 0.21536 0.65473 0.45152 0.0
C158 C 0.15041 0.58504 0.40091 0.0
C159 C 1.10885 0.53928 0.42243 0.0
C160 C 1.12071 0.55116 0.45879 0.0
C161 C 0.17428 0.6092 0.47301 0.0
N162 N 1.08035 0.50694 0.48207 0.0
C163 C 1.02571 0.4471 0.47389 0.0
H164 H 0.64416 0.11369 0.71314 0.0
H165 H 0.70388 1.01213 0.71207 0.0
H166 H 0.71374 0.09635 0.80761 0.0
C167 C 0.65961 0.09409 0.72683 0.0
C168 C 0.6749 0.10667 0.76261 0.0
C169 C 0.669 0.05928 0.70842 0.0
C170 C 0.69284 0.03667 0.7262 0.0
C171 C 0.70857 0.04999 0.76205 0.0
C172 C 0.69831 0.0841 0.78019 0.0
N173 N 0.75004 0.04064 0.77845 0.0
C174 C 0.71781 0.98966 0.79237 0.0
H175 H 0.73356 0.54377 0.06005 0.0
H176 H 0.50138 0.44559 0.04075 0.0
H177 H 0.58507 0.47137 0.14319 0.0
C178 C 0.67816 0.5185 0.06931 0.0
C179 C 0.66537 0.51056 0.10417 0.0
C180 C 0.61745 0.49165 0.04646 0.0
C181 C 0.54651 0.46105 0.05829 0.0
C182 C 0.5353 0.45471 0.0934 0.0
C183 C 0.5942 0.47636 0.11577 0.0
N184 N 0.4743 0.44431 0.10742 0.0
C185 C 0.49245 0.49089 0.12772 0.0
C186 C 0.58691 0.64144 0.166 0.0
C187 C 0.58293 0.67645 0.17557 0.0
C188 C 0.56581 0.59539 0.1555 0.0
C189 C 0.52389 0.5378 0.14221 0.0
C190 C 0.87535 0.28164 0.47559 0.0
C191 C 0.82566 0.23003 0.47765 0.0
C192 C 0.92284 0.33338 0.47323 0.0
C193 C 0.9781 0.3946 0.47171 0.0
C194 C 0.70037 0.87596 0.83158 0.0
C195 C 0.71462 0.84775 0.83862 0.0
C196 C 0.69336 0.90687 0.82084 0.0
C197 C 0.69905 0.94854 0.80548 0.0
C198 C 0.73816 0.50392 0.18421 0.0
C199 C 0.76626 0.48694 0.19319 0.0
C200 C 0.73553 0.52999 0.15794 0.0
C201 C 0.72091 0.53252 0.12958 0.0
C202 C 0.37105 0.82893 0.47352 0.0
C203 C 0.42091 0.88099 0.47418 0.0
C204 C 0.31582 0.76735 0.47082 0.0
C205 C 0.26932 0.71515 0.46506 0.0
C206 C 0.68134 0.22749 0.81189 0.0
C207 C 0.67883 0.26359 0.82034 0.0
C208 C 0.67808 0.18406 0.79649 0.0
C209 C 0.67646 0.1488 0.7808 0.0
C210 C 0.6066 0.72538 0.48693 0.0
C211 C 0.60974 0.76381 0.48101 0.0
C212 C 0.62182 0.69297 0.49833 0.0
C213 C 0.64892 0.67598 0.50946 0.0
C214 C 0.94776 0.57525 0.84652 0.0
C215 C 0.89865 0.57719 0.84265 0.0
C216 C 1.00483 0.57168 0.85184 0.0
C217 C 1.05217 0.56856 0.85805 0.0
C218 C 0.40663 0.81115 0.17278 0.0
C219 C 0.35852 0.75895 0.17045 0.0
C220 C 0.46153 0.87246 0.17721 0.0
C221 C 0.50933 0.92424 0.1839 0.0
C222 C 0.65236 0.3937 0.49781 0.0
C223 C 0.64442 0.35231 0.48897 0.0
C224 C 0.65752 0.438 0.5137 0.0
C225 C 0.66371 0.47534 0.52985 0.0
C226 C 0.46281 0.54534 0.84484 0.0
C227 C 0.51345 0.54496 0.8413 0.0
C228 C 0.4131 0.54681 0.84841 0.0
C229 C 0.35458 0.54933 0.85168 0.0
C230 C 0.92859 0.35158 0.16962 0.0
C231 C 0.97775 0.40265 0.16613 0.0
C232 C 0.88038 0.30047 0.17321 0.0
C233 C 0.82289 0.23989 0.17545 0.0
C234 C 0.15952 0.56426 0.02894 0.0
C235 C 0.15371 0.56694 0.06014 0.0
C236 C 0.16395 0.56323 0.99201 0.0
C237 C 0.1652 0.56284 0.96057 0.0
C238 C 0.61894 0.06342 0.35086 0.0
C239 C 0.62014 0.05759 0.38113 0.0
C240 C 0.6248 0.0686 0.31479 0.0
C241 C 0.62931 0.06773 0.28374 0.0
C242 C 0.70995 0.58047 0.70767 0.0
C243 C 0.70818 0.57143 0.73739 0.0
C244 C 0.70352 0.58157 0.67182 0.0
C245 C 0.69686 0.5783 0.64084 0.0
C246 C 0.64513 0.0527 0.60455 0.0
C247 C 0.63418 0.05623 0.57511 0.0
C248 C 0.65435 0.05056 0.64014 0.0
C249 C 0.66193 0.05267 0.67108 0.0
C250 C 0.66709 0.52213 0.9493 0.0
C251 C 0.69253 0.54608 0.9239 0.0
C252 C 0.64187 0.50385 0.98147 0.0
C253 C 0.6282 0.49716 0.01094 0.0
C254 C 0.14658 0.57958 0.29578 0.0
C255 C 0.15388 0.57984 0.26475 0.0
C256 C 0.14074 0.57603 0.33223 0.0
C257 C 0.14095 0.57564 0.36345 0.0
loop_
_geom_bond_atom_site_label_1
_geom_bond_atom_site_label_2
_geom_bond_distance
_geom_bond_site_symmetry_2
_ccdc_geom_bond_type
La0 C2 2.928 . S
La0 O20 2.521 . S
La0 O21 2.628 . S
La0 O22 2.554 . S
La0 O23 2.757 . S
La0 O24 2.470 . S
La0 O29 2.482 . S
La0 O31 2.503 1_455 S
La1 C11 2.928 . S
La1 O23 2.482 1_655 S
La1 O25 2.503 1_655 S
La1 O26 2.521 . S
La1 O27 2.628 . S
La1 O28 2.554 . S
La1 O29 2.757 1_655 S
La1 O30 2.470 . S
C2 La0 2.928 . S
C2 C3 1.503 . S
C2 O20 1.261 . S
C2 O21 1.243 . S
C3 C2 1.503 . S
C3 C4 1.394 . S
C3 C8 1.373 . S
C4 C3 1.394 . S
C4 C5 1.380 . S
C4 H32 0.930 . S
C5 C4 1.380 . S
C5 C6 1.376 . S
C5 H33 0.930 . S
C6 C5 1.376 . S
C6 C7 1.370 . S
C7 C6 1.370 . S
C7 C8 1.396 . S
C7 H34 0.929 . S
C8 C3 1.373 . S
C8 C7 1.396 . S
C8 H35 0.929 . S
C9 O22 1.240 . S
C9 O23 1.289 . S
C10 O24 1.258 . S
C10 O25 1.256 . S
C11 La1 2.928 . S
C11 C12 1.503 . S
C11 O26 1.261 . S
C11 O27 1.243 . S
C12 C11 1.503 . S
C12 C13 1.394 . S
C12 C17 1.373 . S
C13 C12 1.394 . S
C13 C14 1.380 . S
C13 H36 0.930 . S
C14 C13 1.380 . S
C14 C15 1.376 . S
C14 H37 0.930 . S
C15 C14 1.376 . S
C15 C16 1.370 . S
C16 C15 1.370 . S
C16 C17 1.396 . S
C16 H38 0.929 . S
C17 C12 1.373 . S
C17 C16 1.396 . S
C17 H39 0.929 . S
C18 O28 1.238 1_455 S
C18 O29 1.289 . S
C19 O30 1.258 . S
C19 O31 1.256 . S
O20 La0 2.521 . S
O20 C2 1.261 . S
O21 La0 2.628 . S
O21 C2 1.243 . S
O22 La0 2.554 . S
O22 C9 1.240 . S
O23 La0 2.757 . S
O23 La1 2.482 1_455 S
O23 C9 1.289 . S
O24 La0 2.470 . S
O24 C10 1.258 . S
O25 La1 2.503 1_455 S
O25 C10 1.256 . S
O26 La1 2.521 . S
O26 C11 1.261 . S
O27 La1 2.628 . S
O27 C11 1.243 . S
O28 La1 2.554 . S
O28 C18 1.238 1_655 S
O29 La0 2.482 . S
O29 La1 2.757 1_455 S
O29 C18 1.289 . S
O30 La1 2.470 . S
O30 C19 1.258 . S
O31 La0 2.503 1_655 S
O31 C19 1.256 . S
H32 C4 0.930 . S
H33 C5 0.930 . S
H34 C7 0.929 . S
H35 C8 0.929 . S
H36 C13 0.930 . S
H37 C14 0.930 . S
H38 C16 0.929 . S
H39 C17 0.929 . S
La40 C42 2.928 1_545 S
La40 O60 2.521 1_545 S
La40 O61 2.628 1_545 S
La40 O62 2.554 . S
La40 O63 2.757 . S
La40 O64 2.470 1_545 S
La40 O69 2.482 . S
La40 O71 2.503 . S
La41 C51 2.928 . S
La41 O63 2.482 . S
La41 O65 2.503 1_545 S
La41 O66 2.521 . S
La41 O67 2.628 . S
La41 O68 2.554 . S
La41 O69 2.757 . S
La41 O70 2.470 . S
C42 La40 2.928 1_565 S
C42 C43 1.503 . S
C42 O60 1.261 . S
C42 O61 1.243 . S
C43 C42 1.503 . S
C43 C44 1.394 . S
C43 C48 1.373 . S
C44 C43 1.394 . S
C44 C45 1.380 . S
C44 H72 0.930 . S
C45 C44 1.380 . S
C45 C46 1.376 . S
C45 H73 0.930 . S
C46 C45 1.376 . S
C46 C47 1.370 . S
C47 C46 1.370 . S
C47 C48 1.396 . S
C47 H74 0.929 . S
C48 C43 1.373 . S
C48 C47 1.396 . S
C48 H75 0.929 . S
C49 O62 1.240 . S
C49 O63 1.289 . S
C50 O64 1.258 . S
C50 O65 1.256 . S
C51 La41 2.928 . S
C51 C52 1.503 . S
C51 O66 1.261 . S
C51 O67 1.243 . S
C52 C51 1.503 . S
C52 C53 1.394 . S
C52 C57 1.373 . S
C53 C52 1.394 . S
C53 C54 1.380 . S
C53 H76 0.930 . S
C54 C53 1.380 . S
C54 C55 1.376 . S
C54 H77 0.930 . S
C55 C54 1.376 . S
C55 C56 1.370 . S
C56 C55 1.370 . S
C56 C57 1.396 . S
C56 H78 0.929 . S
C57 C52 1.373 . S
C57 C56 1.396 . S
C57 H79 0.929 . S
C58 O68 1.240 . S
C58 O69 1.289 . S
C59 O70 1.258 . S
C59 O71 1.256 . S
O60 La40 2.521 1_565 S
O60 C42 1.261 . S
O61 La40 2.628 1_565 S
O61 C42 1.243 . S
O62 La40 2.554 . S
O62 C49 1.240 . S
O63 La40 2.757 . S
O63 La41 2.482 . S
O63 C49 1.289 . S
O64 La40 2.470 1_565 S
O64 C50 1.258 . S
O65 La41 2.503 1_565 S
O65 C50 1.256 . S
O66 La41 2.521 . S
O66 C51 1.261 . S
O67 La41 2.628 . S
O67 C51 1.243 . S
O68 La41 2.554 . S
O68 C58 1.240 . S
O69 La40 2.482 . S
O69 La41 2.757 . S
O69 C58 1.289 . S
O70 La41 2.470 . S
O70 C59 1.258 . S
O71 La40 2.503 . S
O71 C59 1.256 . S
H72 C44 0.930 . S
H73 C45 0.930 . S
H74 C47 0.929 . S
H75 C48 0.929 . S
H76 C53 0.930 . S
H77 C54 0.930 . S
H78 C56 0.929 . S
H79 C57 0.929 . S
La80 C82 2.928 . S
La80 O100 2.521 . S
La80 O101 2.628 . S
La80 O102 2.554 . S
La80 O103 2.757 . S
La80 O104 2.470 . S
La80 O109 2.482 . S
La80 O111 2.503 . S
La81 C91 2.928 . S
La81 O103 2.482 . S
La81 O105 2.503 . S
La81 O106 2.521 . S
La81 O107 2.628 . S
La81 O108 2.554 . S
La81 O109 2.757 . S
La81 O110 2.470 . S
C82 La80 2.928 . S
C82 C83 1.503 . S
C82 O100 1.261 . S
C82 O101 1.243 . S
C83 C82 1.503 . S
C83 C84 1.394 . S
C83 C88 1.373 . S
C84 C83 1.394 . S
C84 C85 1.380 . S
C84 H112 0.930 . S
C85 C84 1.380 . S
C85 C86 1.376 . S
C85 H113 0.930 . S
C86 C85 1.376 . S
C86 C87 1.370 . S
C87 C86 1.370 . S
C87 C88 1.396 . S
C87 H114 0.929 . S
C88 C83 1.373 . S
C88 C87 1.396 . S
C88 H115 0.929 . S
C89 O102 1.240 . S
C89 O103 1.289 . S
C90 O104 1.258 . S
C90 O105 1.256 . S
C91 La81 2.928 . S
C91 C92 1.503 . S
C91 O106 1.261 . S
C91 O107 1.243 . S
C92 C91 1.503 . S
C92 C93 1.394 . S
C92 C97 1.373 . S
C93 C92 1.394 . S
C93 C94 1.380 . S
C93 H116 0.930 . S
C94 C93 1.380 . S
C94 C95 1.376 . S
C94 H117 0.930 . S
C95 C94 1.376 . S
C95 C96 1.370 . S
C96 C95 1.370 . S
C96 C97 1.396 . S
C96 H118 0.929 . S
C97 C92 1.373 . S
C97 C96 1.396 . S
C97 H119 0.929 . S
C98 O108 1.240 . S
C98 O109 1.289 . S
C99 O110 1.258 . S
C99 O111 1.256 . S
O100 La80 2.521 . S
O100 C82 1.261 . S
O101 La80 2.628 . S
O101 C82 1.243 . S
O102 La80 2.554 . S
O102 C89 1.240 . S
O103 La80 2.757 . S
O103 La81 2.482 . S
O103 C89 1.289 . S
O104 La80 2.470 . S
O104 C90 1.258 . S
O105 La81 2.503 . S
O105 C90 1.256 . S
O106 La81 2.521 . S
O106 C91 1.261 . S
O107 La81 2.628 . S
O107 C91 1.243 . S
O108 La81 2.554 . S
O108 C98 1.240 . S
O109 La80 2.482 . S
O109 La81 2.757 . S
O109 C98 1.289 . S
O110 La81 2.470 . S
O110 C99 1.258 . S
O111 La80 2.503 . S
O111 C99 1.256 . S
H112 C84 0.930 . S
H113 C85 0.930 . S
H114 C87 0.929 . S
H115 C88 0.929 . S
H116 C93 0.930 . S
H117 C94 0.930 . S
H118 C96 0.929 . S
H119 C97 0.929 . S
H120 C123 0.929 . S
H121 C126 0.929 . S
H122 C128 0.930 . S
C123 H120 0.929 . S
C123 C124 1.398 . S
C123 C125 1.396 1_565 S
C124 C123 1.398 . S
C124 C128 1.407 1_565 S
C125 C123 1.396 1_545 S
C125 C126 1.394 . S
C126 H121 0.929 . S
C126 C125 1.394 . S
C126 C127 1.382 . S
C127 C126 1.382 . S
C127 C128 1.392 . S
C127 N129 1.420 . S
C128 H122 0.930 . S
C128 C124 1.407 1_545 S
C128 C127 1.392 . S
N129 C127 1.420 . S
N129 C130 1.244 . S
C130 N129 1.244 . S
H131 C134 0.929 . S
H132 C137 0.929 . S
H133 C139 0.930 . S
C134 H131 0.929 . S
C134 C135 1.398 . S
C134 C136 1.396 . S
C135 C134 1.398 . S
C135 C139 1.407 . S
C136 C134 1.396 . S
C136 C137 1.394 . S
C137 H132 0.929 . S
C137 C136 1.394 . S
C137 C138 1.382 . S
C138 C137 1.382 . S
C138 C139 1.392 . S
C138 N140 1.420 . S
C139 H133 0.930 . S
C139 C135 1.407 . S
C139 C138 1.392 . S
N140 C138 1.420 . S
N140 C141 1.244 . S
C141 N140 1.244 . S
H142 C145 0.929 1_655 S
H143 C148 0.929 . S
H144 C150 0.930 . S
C145 H142 0.929 1_455 S
C145 C146 1.397 1_455 S
C145 C147 1.396 . S
C146 C145 1.397 1_655 S
C146 C150 1.390 1_655 S
C147 C145 1.396 . S
C147 C148 1.394 . S
C148 H143 0.929 . S
C148 C147 1.394 . S
C148 C149 1.382 . S
C149 C148 1.382 . S
C149 C150 1.392 . S
C149 N151 1.420 . S
C150 H144 0.930 . S
C150 C146 1.390 1_455 S
C150 C149 1.392 . S
N151 C149 1.420 . S
N151 C152 1.244 . S
C152 N151 1.244 . S
H153 C156 0.929 . S
H154 C159 0.929 . S
H155 C161 0.930 . S
C156 H153 0.929 . S
C156 C157 1.398 . S
C156 C158 1.396 . S
C157 C156 1.398 . S
C157 C161 1.407 . S
C158 C156 1.396 . S
C158 C159 1.394 1_455 S
C159 H154 0.929 . S
C159 C158 1.394 1_655 S
C159 C160 1.382 . S
C160 C159 1.382 . S
C160 C161 1.392 1_655 S
C160 N162 1.420 . S
C161 H155 0.930 . S
C161 C157 1.407 . S
C161 C160 1.392 1_455 S
N162 C160 1.420 . S
N162 C163 1.244 . S
C163 N162 1.244 . S
H164 C167 0.929 . S
H165 C170 0.929 1_565 S
H166 C172 0.930 . S
C167 H164 0.929 . S
C167 C168 1.398 . S
C167 C169 1.396 . S
C168 C167 1.398 . S
C168 C172 1.407 . S
C169 C167 1.396 . S
C169 C170 1.394 . S
C170 H165 0.929 1_545 S
C170 C169 1.394 . S
C170 C171 1.382 . S
C171 C170 1.382 . S
C171 C172 1.392 . S
C171 N173 1.420 . S
C172 H166 0.930 . S
C172 C168 1.407 . S
C172 C171 1.392 . S
N173 C171 1.420 . S
N173 C174 1.244 1_545 S
C174 N173 1.244 1_565 S
H175 C178 0.929 . S
H176 C181 0.929 . S
H177 C183 0.930 . S
C178 H175 0.929 . S
C178 C179 1.398 . S
C178 C180 1.396 . S
C179 C178 1.398 . S
C179 C183 1.407 . S
C180 C178 1.396 . S
C180 C181 1.394 . S
C181 H176 0.929 . S
C181 C180 1.394 . S
C181 C182 1.382 . S
C182 C181 1.382 . S
C182 C183 1.392 . S
C182 N184 1.420 . S
C183 H177 0.930 . S
C183 C179 1.407 . S
C183 C182 1.392 . S
N184 C182 1.420 . S
N184 C185 1.244 . S
C185 N184 1.244 . S
C186 C187 1.170 . S
C186 C188 1.380 . S
C187 C186 1.170 . S
C188 C186 1.380 . S
C188 C189 1.170 . S
C189 C188 1.170 . S
C190 C191 1.170 . S
C190 C192 1.380 . S
C191 C190 1.170 . S
C192 C190 1.380 . S
C192 C193 1.170 . S
C193 C192 1.170 . S
C194 C195 1.170 . S
C194 C196 1.380 . S
C195 C194 1.170 . S
C196 C194 1.380 . S
C196 C197 1.170 . S
C197 C196 1.170 . S
C198 C199 1.170 . S
C198 C200 1.380 . S
C199 C198 1.170 . S
C200 C198 1.380 . S
C200 C201 1.170 . S
C201 C200 1.170 . S
C202 C203 1.170 . S
C202 C204 1.380 . S
C203 C202 1.170 . S
C204 C202 1.380 . S
C204 C205 1.170 . S
C205 C204 1.170 . S
C206 C207 1.170 . S
C206 C208 1.380 . S
C207 C206 1.170 . S
C208 C206 1.380 . S
C208 C209 1.170 . S
C209 C208 1.170 . S
C210 C211 1.170 . S
C210 C212 1.380 . S
C211 C210 1.170 . S
C212 C210 1.380 . S
C212 C213 1.170 . S
C213 C212 1.170 . S
C214 C215 1.170 . S
C214 C216 1.380 . S
C215 C214 1.170 . S
C216 C214 1.380 . S
C216 C217 1.170 . S
C217 C216 1.170 . S
C218 C219 1.170 . S
C218 C220 1.380 . S
C219 C218 1.170 . S
C220 C218 1.380 . S
C220 C221 1.170 . S
C221 C220 1.170 . S
C222 C223 1.170 . S
C222 C224 1.380 . S
C223 C222 1.170 . S
C224 C222 1.380 . S
C224 C225 1.170 . S
C225 C224 1.170 . S
C226 C227 1.170 . S
C226 C228 1.380 . S
C227 C226 1.170 . S
C228 C226 1.380 . S
C228 C229 1.170 . S
C229 C228 1.170 . S
C230 C231 1.170 . S
C230 C232 1.380 . S
C231 C230 1.170 . S
C232 C230 1.380 . S
C232 C233 1.170 . S
C233 C232 1.170 . S
C234 C235 1.170 . S
C234 C236 1.380 1_554 S
C235 C234 1.170 . S
C236 C234 1.380 1_556 S
C236 C237 1.170 . S
C237 C236 1.170 . S
C238 C239 1.170 . S
C238 C240 1.380 . S
C239 C238 1.170 . S
C240 C238 1.380 . S
C240 C241 1.170 . S
C241 C240 1.170 . S
C242 C243 1.170 . S
C242 C244 1.380 . S
C243 C242 1.170 . S
C244 C242 1.380 . S
C244 C245 1.170 . S
C245 C244 1.170 . S
C246 C247 1.170 . S
C246 C248 1.380 . S
C247 C246 1.170 . S
C248 C246 1.380 . S
C248 C249 1.170 . S
C249 C248 1.170 . S
C250 C251 1.170 . S
C250 C252 1.380 . S
C251 C250 1.170 . S
C252 C250 1.380 . S
C252 C253 1.170 1_556 S
C253 C252 1.170 1_554 S
C254 C255 1.170 . S
C254 C256 1.380 . S
C255 C254 1.170 . S
C256 C254 1.380 . S
C256 C257 1.170 . S
C257 C256 1.170 . S
C187 C6 1.050 . S
C189 C185 1.034 . S
C191 C59 1.957 . S
C193 C163 1.899 . S
C195 C86 1.387 . S
C197 C174 1.420 . S
C199 C15 0.633 . S
C201 C179 0.434 . S
C205 C157 1.858 . S
C203 C50 1.888 . S
C209 C168 1.231 . S
C207 C95 1.207 . S
C211 C46 1.340 . S
C213 C141 1.380 . S
C215 C99 3.090 . S
C217 C146 3.062 . S
C219 C10 1.905 . S
C221 C124 1.905 . S
C225 C135 1.242 . S
C223 C55 1.230 . S
C229 C152 3.045 . S
C227 C90 3.084 . S
C231 C19 1.963 . S
C233 C130 1.932 . S
C237 C147 1.747 . S
C235 C18 1.700 . S
C239 C49 1.376 . S
C241 C125 1.449 . S
C243 C98 1.512 . S
C245 C136 1.543 . S
C249 C169 1.503 . S
C247 C58 1.489 . S
C253 C180 1.220 . S
C251 C89 1.205 . S
C255 C9 1.340 . S
C257 C158 1.422 . S
