# Generated by pormake.
# Topology pth, (4,4)-cn, num edge types: 1
# Building blocks:
#     Node 0, Type 0, BuildingBlock: KUFVIS_clean_sbu_0, # of connection points: 4
#     Node 1, Type 0, BuildingBlock: KUFVIS_clean_sbu_0, # of connection points: 4
#     Node 2, Type 0, BuildingBlock: KUFVIS_clean_sbu_0, # of connection points: 4
#     Node 3, Type 1, BuildingBlock: NAWXER_clean_linker_0, # of connection points: 4
#     Node 4, Type 1, BuildingBlock: NAWXER_clean_linker_0, # of connection points: 4
#     Node 5, Type 1, BuildingBlock: NAWXER_clean_linker_0, # of connection points: 4
#     Edge 6, Type (0, 1), BuildingBlock: TEMPAE_clean_linker_10, # of connection points: 2
#     Edge 7, Type (0, 1), BuildingBlock: TEMPAE_clean_linker_10, # of connection points: 2
#     Edge 8, Type (0, 1), BuildingBlock: TEMPAE_clean_linker_10, # of connection points: 2
#     Edge 9, Type (0, 1), BuildingBlock: TEMPAE_clean_linker_10, # of connection points: 2
#     Edge 10, Type (0, 1), BuildingBlock: TEMPAE_clean_linker_10, # of connection points: 2
#     Edge 11, Type (0, 1), BuildingBlock: TEMPAE_clean_linker_10, # of connection points: 2
#     Edge 12, Type (0, 1), BuildingBlock: TEMPAE_clean_linker_10, # of connection points: 2
#     Edge 13, Type (0, 1), BuildingBlock: TEMPAE_clean_linker_10, # of connection points: 2
#     Edge 14, Type (0, 1), BuildingBlock: TEMPAE_clean_linker_10, # of connection points: 2
#     Edge 15, Type (0, 1), BuildingBlock: TEMPAE_clean_linker_10, # of connection points: 2
#     Edge 16, Type (0, 1), BuildingBlock: TEMPAE_clean_linker_10, # of connection points: 2
#     Edge 17, Type (0, 1), BuildingBlock: TEMPAE_clean_linker_10, # of connection points: 2
# Relax obj value: 0.011
# Max RMSD: 0.077
# Mean RMSD: 0.050
data_MOF--net-pth--node1-KUFVIS_clean_sbu_0--node2-NAWXER_clean_linker_0--edge1-TEMPAE_clean_linker_10
_symmetry_space_group_name_H-M    P1
_symmetry_Int_Tables_number       1
_symmetry_cell_setting            triclinic
loop_
_symmetry_equiv_pos_as_xyz
'x, y, z'
_cell_length_a     28.909354
_cell_length_b     28.993784
_cell_length_c     66.739139
_cell_angle_alpha  90.459797
_cell_angle_beta   91.878225
_cell_angle_gamma 120.27639
loop_
_atom_site_label
_atom_site_type_symbol
_atom_site_fract_x
_atom_site_fract_y
_atom_site_fract_z
_atom_type_partial_charge
Mn0 Mn 0.03947 0.06901 0.04853 0.0
Mn1 Mn 0.97571 0.12062 0.022 0.0
C2 C 0.98651 0.02271 0.02044 0.0
C3 C 0.04196 0.01902 0.07533 0.0
C4 C 0.09456 0.15961 0.01938 0.0
O5 O 0.0447 0.12731 0.06734 0.0
O6 O 0.9934 0.15206 0.04971 0.0
C7 C 0.87557 0.07537 0.04413 0.0
N8 N 0.90075 0.08258 0.02657 0.0
C9 C 0.81658 0.03783 0.00767 0.0
C10 C 0.78969 0.03035 0.02553 0.0
C11 C 0.81933 0.04888 0.04386 0.0
C12 C 0.87263 0.06408 0.00891 0.0
H13 H 0.89827 0.08975 0.05822 0.0
C14 C 0.02106 0.15425 0.06545 0.0
O15 O 0.08561 0.05499 0.06739 0.0
O16 O 0.9971 0.01309 0.06799 0.0
N17 N 0.9554 0.09389 0.99495 0.0
C18 C 0.9873 0.10092 0.97932 0.0
C19 C 0.96386 0.08305 0.95998 0.0
C20 C 0.90806 0.05896 0.95688 0.0
C21 C 0.87602 0.05189 0.97321 0.0
C22 C 0.90161 0.07038 0.99213 0.0
H23 H 0.0303 0.1203 0.98157 0.0
O24 O 0.02265 0.01269 0.02766 0.0
O25 O 0.98112 0.0586 0.03029 0.0
O26 O 0.09594 0.12543 0.03091 0.0
O27 O 0.05234 0.16234 0.01578 0.0
C28 C 0.81971 0.02714 0.97148 0.0
C29 C 0.78998 0.01976 0.98872 0.0
H30 H 0.74632 0.01005 0.02537 0.0
H31 H 0.79887 0.04297 0.05772 0.0
H32 H 0.9888 0.0884 0.94746 0.0
H33 H 0.89025 0.04592 0.94189 0.0
H34 H 0.79876 0.01302 0.95701 0.0
H35 H 0.74666 0.9997 0.98725 0.0
Mn36 Mn 0.02152 0.06766 0.38218 0.0
Mn37 Mn 0.09161 0.19063 0.40385 0.0
C38 C 0.07889 0.08265 0.40967 0.0
C39 C 0.0137 0.00697 0.35724 0.0
C40 C 0.9733 0.11446 0.41011 0.0
O41 O 0.01391 0.11515 0.36153 0.0
O42 O 0.06997 0.19609 0.37583 0.0
C43 C 0.18738 0.23391 0.37925 0.0
N44 N 0.16529 0.22266 0.39756 0.0
C45 C 0.25215 0.26167 0.41443 0.0
C46 C 0.27593 0.27411 0.39577 0.0
C47 C 0.24337 0.25983 0.3781 0.0
C48 C 0.19615 0.2351 0.41461 0.0
H49 H 0.16245 0.22311 0.36566 0.0
C50 C 0.03898 0.16608 0.36133 0.0
O51 O 0.97179 0.00224 0.36575 0.0
O52 O 0.05983 0.04731 0.36304 0.0
N53 N 0.11577 0.19207 0.43099 0.0
C54 C 0.08642 0.17537 0.44772 0.0
C55 C 0.11287 0.18616 0.46666 0.0
C56 C 0.16913 0.21486 0.46823 0.0
C57 C 0.19848 0.23172 0.4508 0.0
C58 C 0.16993 0.21953 0.43234 0.0
H59 H 0.04316 0.15426 0.44664 0.0
O60 O 0.04153 0.0345 0.40448 0.0
O61 O 0.08269 0.1203 0.3982 0.0
O62 O 0.96927 0.07487 0.40006 0.0
O63 O 0.01638 0.16001 0.41164 0.0
C64 C 0.25493 0.2605 0.45102 0.0
C65 C 0.28176 0.2747 0.43285 0.0
H66 H 0.31911 0.29443 0.39483 0.0
H67 H 0.26139 0.26904 0.36364 0.0
H68 H 0.08996 0.17294 0.48004 0.0
H69 H 0.18935 0.22368 0.4829 0.0
H70 H 0.27814 0.27172 0.4651 0.0
H71 H 0.32517 0.29588 0.43322 0.0
Mn72 Mn 0.0395 0.06001 0.71504 0.0
Mn73 Mn 0.99024 0.13339 0.73458 0.0
C74 C 0.08454 0.11802 0.74206 0.0
C75 C 0.08996 0.04867 0.69097 0.0
C76 C 0.94626 0.01614 0.74326 0.0
O77 O 0.98388 0.05229 0.6937 0.0
O78 O 0.95961 0.10812 0.70694 0.0
C79 C 0.04099 0.22475 0.70751 0.0
N80 N 0.0317 0.20556 0.7264 0.0
C81 C 0.07993 0.29437 0.74106 0.0
C82 C 0.0897 0.31518 0.72176 0.0
C83 C 0.07045 0.28018 0.70492 0.0
C84 C 0.05103 0.23878 0.7427 0.0
H85 H 0.02598 0.19794 0.69454 0.0
C86 C 0.95761 0.07676 0.69292 0.0
O87 O 0.05225 0.00814 0.69991 0.0
O88 O 0.09788 0.09555 0.69591 0.0
N89 N 0.01584 0.16145 0.76122 0.0
C90 C 0.0047 0.13483 0.77875 0.0
C91 C 0.02117 0.16395 0.79704 0.0
C92 C 0.04797 0.22002 0.79712 0.0
C93 C 0.05929 0.24656 0.7789 0.0
C94 C 0.04194 0.21543 0.76115 0.0
H95 H 0.98292 0.09171 0.77878 0.0
O96 O 0.09352 0.07965 0.73766 0.0
O97 O 0.05095 0.12279 0.73001 0.0
O98 O 0.97968 0.01006 0.73318 0.0
O99 O 0.94583 0.05999 0.74422 0.0
C100 C 0.0867 0.30266 0.77763 0.0
C101 C 0.09767 0.32655 0.75873 0.0
H102 H 0.11209 0.35793 0.71971 0.0
H103 H 0.07802 0.29591 0.68997 0.0
H104 H 0.01248 0.14323 0.81106 0.0
H105 H 0.05957 0.24226 0.81128 0.0
H106 H 0.09995 0.32786 0.79109 0.0
H107 H 0.11964 0.3697 0.75795 0.0
C108 C 0.97396 0.3901 0.24251 0.0
C109 C 0.00274 0.40152 0.26098 0.0
C110 C 0.97756 0.43162 0.23084 0.0
C111 C 0.01165 0.48526 0.23711 0.0
C112 C 0.03542 0.45496 0.26753 0.0
C113 C 0.03991 0.49637 0.25569 0.0
C114 C 0.01639 0.53027 0.22513 0.0
C115 C 0.06588 0.438 0.18515 0.0
C116 C 0.03781 0.42134 0.16651 0.0
C117 C 0.06139 0.4749 0.19737 0.0
C118 C 0.02701 0.49402 0.19148 0.0
C119 C 0.005 0.44179 0.16031 0.0
C120 C 0.99951 0.47761 0.1727 0.0
C121 C 0.02139 0.53327 0.20407 0.0
C122 C 0.06546 0.755 0.18658 0.0
C123 C 0.03243 0.74382 0.16915 0.0
C124 C 0.06164 0.71348 0.19828 0.0
C125 C 0.02419 0.66003 0.19292 0.0
C126 C 0.99528 0.69023 0.16379 0.0
C127 C 0.99145 0.64883 0.17549 0.0
C128 C 0.02052 0.61535 0.20472 0.0
C129 C 0.9725 0.70714 0.24573 0.0
C130 C 0.00597 0.7287 0.26313 0.0
C131 C 0.97579 0.6696 0.23347 0.0
C132 C 0.01309 0.6534 0.23825 0.0
C133 C 0.04284 0.71193 0.26793 0.0
C134 C 0.04611 0.67447 0.25569 0.0
C135 C 0.01657 0.61288 0.22576 0.0
H136 H 0.94799 0.3491 0.23731 0.0
H137 H 0.95357 0.42171 0.21698 0.0
H138 H 0.05811 0.4647 0.28171 0.0
H139 H 0.06592 0.53726 0.26102 0.0
H140 H 0.09198 0.42321 0.19007 0.0
H141 H 0.08499 0.48858 0.21134 0.0
H142 H 0.98301 0.42943 0.14596 0.0
H143 H 0.97339 0.49227 0.16764 0.0
H144 H 0.09509 0.79578 0.19093 0.0
H145 H 0.0885 0.72314 0.21133 0.0
H146 H 0.96883 0.68026 0.15059 0.0
H147 H 0.96254 0.60791 0.17099 0.0
H148 H 0.94307 0.71855 0.24178 0.0
H149 H 0.94874 0.65276 0.22042 0.0
H150 H 0.06967 0.72819 0.28107 0.0
H151 H 0.07494 0.66233 0.25974 0.0
N152 N 0.01482 0.57056 0.23509 0.0
N153 N 0.02261 0.57541 0.19476 0.0
C154 C 0.68511 0.09257 0.51546 0.0
C155 C 0.67272 0.06222 0.4975 0.0
C156 C 0.64443 0.08573 0.528 0.0
C157 C 0.59069 0.04747 0.52306 0.0
C158 C 0.61885 0.02488 0.49235 0.0
C159 C 0.57826 0.01768 0.50499 0.0
C160 C 0.54684 0.04027 0.53592 0.0
C161 C 0.65346 1.00033 0.57392 0.0
C162 C 0.67187 0.02898 0.59229 0.0
C163 C 0.61288 0.00171 0.56236 0.0
C164 C 0.59146 0.03331 0.56867 0.0
C165 C 0.64961 0.05946 0.59879 0.0
C166 C 0.60996 0.06169 0.58709 0.0
C167 C 0.54797 0.03534 0.55698 0.0
C168 C 0.32863 0.99 0.5798 0.0
C169 C 0.34355 0.02386 0.59694 0.0
C170 C 0.36762 0.99249 0.56722 0.0
C171 C 0.42216 0.02939 0.57142 0.0
C172 C 0.39827 0.06002 0.60124 0.0
C173 C 0.4371 0.06251 0.58869 0.0
C174 C 0.46436 0.0333 0.55835 0.0
C175 C 0.364 0.08205 0.52127 0.0
C176 C 0.34563 0.05674 0.50222 0.0
C177 C 0.40225 0.07653 0.53266 0.0
C178 C 0.42126 0.04344 0.52577 0.0
C179 C 0.36598 0.02487 0.49513 0.0
C180 C 0.40302 0.0181 0.50681 0.0
C181 C 0.46319 0.03824 0.53729 0.0
H182 H 0.7262 0.12232 0.51962 0.0
H183 H 0.65497 0.11067 0.54147 0.0
H184 H 0.60815 0.00079 0.47865 0.0
H185 H 0.53706 0.98845 0.50072 0.0
H186 H 0.66966 0.97605 0.56874 0.0
H187 H 0.598 0.9777 0.54862 0.0
H188 H 0.66337 0.0821 0.61287 0.0
H189 H 0.59388 0.08595 0.59243 0.0
H190 H 0.28688 0.96116 0.57623 0.0
H191 H 0.3552 0.96558 0.55425 0.0
H192 H 0.41114 0.08713 0.61416 0.0
H193 H 0.47893 0.0911 0.59229 0.0
H194 H 0.34914 0.10647 0.52747 0.0
H195 H 0.41734 0.09888 0.54673 0.0
H196 H 0.35427 0.00586 0.48036 0.0
H197 H 0.41787 0.99332 0.50089 0.0
N198 N 0.50433 0.04109 0.52698 0.0
N199 N 0.50681 0.0324 0.56728 0.0
C200 C 0.40551 0.37753 0.8488 0.0
C201 C 0.37223 0.38913 0.83669 0.0
C202 C 0.44814 0.4181 0.86035 0.0
C203 C 0.45843 0.47085 0.85967 0.0
C204 C 0.38261 0.44188 0.83605 0.0
C205 C 0.4258 0.48253 0.84725 0.0
C206 C 0.50395 0.51442 0.87137 0.0
C207 C 0.37863 0.41893 0.91528 0.0
C208 C 0.39507 0.39859 0.93127 0.0
C209 C 0.41613 0.45586 0.90254 0.0
C210 C 0.47078 0.47219 0.90517 0.0
C211 C 0.44977 0.41555 0.93416 0.0
C212 C 0.48726 0.45199 0.92121 0.0
C213 C 0.5113 0.51361 0.8924 0.0
C214 C 0.67933 0.73515 0.91503 0.0
C215 C 0.71823 0.72927 0.92617 0.0
C216 C 0.63917 0.69255 0.90346 0.0
C217 C 0.63641 0.64289 0.90303 0.0
C218 C 0.71538 0.67928 0.92549 0.0
C219 C 0.67438 0.63633 0.91425 0.0
C220 C 0.59268 0.59745 0.89142 0.0
C221 C 0.71315 0.7012 0.84693 0.0
C222 C 0.69349 0.72279 0.83248 0.0
C223 C 0.67816 0.66126 0.85948 0.0
C224 C 0.62286 0.64251 0.85796 0.0
C225 C 0.63808 0.70375 0.83095 0.0
C226 C 0.60315 0.66385 0.84349 0.0
C227 C 0.58488 0.59856 0.87049 0.0
H228 H 0.39813 0.33706 0.84949 0.0
H229 H 0.47334 0.40846 0.86966 0.0
H230 H 0.35764 0.4517 0.82668 0.0
H231 H 0.43335 0.52305 0.84644 0.0
H232 H 0.33688 0.40751 0.913 0.0
H233 H 0.40236 0.47268 0.891 0.0
H234 H 0.46349 0.40053 0.94641 0.0
H235 H 0.52924 0.46459 0.92378 0.0
H236 H 0.67908 0.77234 0.9155 0.0
H237 H 0.60958 0.69805 0.89513 0.0
H238 H 0.74496 0.67325 0.93352 0.0
H239 H 0.67274 0.59816 0.91409 0.0
H240 H 0.75547 0.71427 0.84824 0.0
H241 H 0.69426 0.64422 0.87002 0.0
H242 H 0.6217 0.71994 0.82013 0.0
H243 H 0.56062 0.64979 0.84195 0.0
N244 N 0.54072 0.557 0.86128 0.0
N245 N 0.55573 0.55509 0.90159 0.0
C246 C 0.07165 0.2156 0.09487 0.0
C247 C 0.02548 0.19026 0.08217 0.0
C248 C 0.07747 0.25294 0.10978 0.0
C249 C 0.03552 0.26402 0.11232 0.0
C250 C 0.988 0.23688 0.10004 0.0
C251 C 0.98389 0.20093 0.08496 0.0
C252 C 0.12916 0.28193 0.1223 0.0
C253 C 0.94181 0.24657 0.10256 0.0
C254 C 0.02672 0.33127 0.16004 0.0
C255 C 0.04236 0.3826 0.1534 0.0
C256 C 0.02572 0.29245 0.147 0.0
C257 C 0.0419 0.30588 0.12705 0.0
C258 C 0.06019 0.35858 0.12065 0.0
C259 C 0.05952 0.39613 0.13384 0.0
C260 C 0.00491 0.23647 0.15426 0.0
C261 C 0.07884 0.37486 0.09965 0.0
H262 H 0.10403 0.20769 0.09268 0.0
H263 H 0.94791 0.18112 0.07531 0.0
H264 H 0.14969 0.32524 0.11923 0.0
H265 H 0.12084 0.27765 0.13849 0.0
H266 H 0.15684 0.26693 0.11913 0.0
H267 H 0.90614 0.21918 0.09287 0.0
H268 H 0.93009 0.2413 0.11841 0.0
H269 H 0.95424 0.2883 0.09874 0.0
H270 H 0.01315 0.32091 0.17517 0.0
H271 H 0.07194 0.43605 0.12882 0.0
H272 H 0.03371 0.22287 0.15124 0.0
H273 H 0.96674 0.20866 0.14594 0.0
H274 H 0.99756 0.23349 0.17056 0.0
H275 H 0.10887 0.36332 0.09597 0.0
H276 H 0.09686 0.41854 0.0977 0.0
H277 H 0.04441 0.35365 0.0887 0.0
C278 C 0.92627 0.15083 0.43013 0.0
C279 C 0.92666 0.10676 0.42143 0.0
C280 C 0.88404 0.144 0.44191 0.0
C281 C 0.84134 0.09183 0.44527 0.0
C282 C 0.84098 0.04722 0.43631 0.0
C283 C 0.88347 0.05522 0.42442 0.0
C284 C 0.88555 0.19261 0.45103 0.0
C285 C 0.79632 0.99093 0.43967 0.0
C286 C 0.76247 0.07197 0.49202 0.0
C287 C 0.71583 0.06971 0.4841 0.0
C288 C 0.80343 0.07873 0.47952 0.0
C289 C 0.79783 0.08389 0.45863 0.0
C290 C 0.7509 0.08183 0.45056 0.0
C291 C 0.71033 0.0745 0.46339 0.0
C292 C 0.85263 0.08016 0.48867 0.0
C293 C 0.74374 0.08779 0.4284 0.0
H294 H 0.95926 0.19084 0.42786 0.0
H295 H 0.88343 0.02087 0.41787 0.0
H296 H 0.84817 0.19268 0.44676 0.0
H297 H 0.88782 0.19141 0.46763 0.0
H298 H 0.92033 0.23051 0.44622 0.0
H299 H 0.80124 0.96063 0.43121 0.0
H300 H 0.79507 0.98231 0.45588 0.0
H301 H 0.75708 0.98662 0.43507 0.0
H302 H 0.76656 0.06768 0.508 0.0
H303 H 0.67456 0.07335 0.45725 0.0
H304 H 0.88892 0.11883 0.48562 0.0
H305 H 0.85767 0.04816 0.48171 0.0
H306 H 0.85048 0.07486 0.50515 0.0
H307 H 0.77668 0.12682 0.42356 0.0
H308 H 0.70486 0.08529 0.42451 0.0
H309 H 0.7459 0.05618 0.41972 0.0
C310 C 0.86751 0.97482 0.76534 0.0
C311 C 0.90724 0.97092 0.75518 0.0
C312 C 0.83204 0.93368 0.77749 0.0
C313 C 0.83642 0.8875 0.77964 0.0
C314 C 0.87586 0.88286 0.76924 0.0
C315 C 0.9107 0.92453 0.7571 0.0
C316 C 0.79026 0.93995 0.78823 0.0
C317 C 0.88183 0.83425 0.77122 0.0
C318 C 0.78007 0.80669 0.82629 0.0
C319 C 0.73052 0.76459 0.81887 0.0
C320 C 0.81515 0.84665 0.81364 0.0
C321 C 0.8003 0.84453 0.79308 0.0
C322 C 0.75052 0.80199 0.78546 0.0
C323 C 0.71627 0.76251 0.79844 0.0
C324 C 0.86789 0.89145 0.82233 0.0
C325 C 0.73332 0.79833 0.76361 0.0
H326 H 0.86428 0.01032 0.76396 0.0
H327 H 0.94126 0.92106 0.74939 0.0
H328 H 0.74967 0.90591 0.78419 0.0
H329 H 0.79679 0.93946 0.80469 0.0
H330 H 0.79119 0.9777 0.78456 0.0
H331 H 0.91363 0.83617 0.76176 0.0
H332 H 0.8918 0.8304 0.78709 0.0
H333 H 0.84339 0.7976 0.76691 0.0
H334 H 0.79108 0.8089 0.8421 0.0
H335 H 0.67843 0.72965 0.79253 0.0
H336 H 0.86958 0.93026 0.82047 0.0
H337 H 0.90157 0.89338 0.81413 0.0
H338 H 0.87403 0.88657 0.83852 0.0
H339 H 0.73127 0.83436 0.75963 0.0
H340 H 0.69358 0.76239 0.76002 0.0
H341 H 0.76334 0.79712 0.75403 0.0
C342 C 0.99462 0.94385 0.09872 0.0
C343 C 0.0428 0.98401 0.0912 0.0
C344 C 0.99418 0.90729 0.11247 0.0
C345 C 0.04312 0.91097 0.11889 0.0
C346 C 0.09207 0.95253 0.1119 0.0
C347 C 0.09133 0.98856 0.09811 0.0
C348 C 0.94114 0.86358 0.1196 0.0
C349 C 0.14507 0.95788 0.11846 0.0
C350 C 0.04235 0.83444 0.16507 0.0
C351 C 0.03702 0.78765 0.15639 0.0
C352 C 0.0452 0.87536 0.15308 0.0
C353 C 0.04264 0.8693 0.13193 0.0
C354 C 0.03806 0.82253 0.1231 0.0
C355 C 0.03539 0.78237 0.13543 0.0
C356 C 0.05005 0.92464 0.16303 0.0
C357 C 0.03538 0.8146 0.10061 0.0
H358 H 0.95695 0.94013 0.0935 0.0
H359 H 0.12874 0.01956 0.09241 0.0
H360 H 0.93403 0.82414 0.1142 0.0
H361 H 0.94185 0.86331 0.13623 0.0
H362 H 0.90699 0.86819 0.11416 0.0
H363 H 0.17971 0.9945 0.11276 0.0
H364 H 0.14912 0.95883 0.13507 0.0
H365 H 0.14679 0.92263 0.1129 0.0
H366 H 0.04315 0.83859 0.18125 0.0
H367 H 0.03223 0.74678 0.12862 0.0
H368 H 0.0143 0.92781 0.15886 0.0
H369 H 0.08558 0.96097 0.15768 0.0
H370 H 0.05372 0.92418 0.17964 0.0
H371 H 0.99979 0.81486 0.094 0.0
H372 H 0.0329 0.7764 0.09613 0.0
H373 H 0.0713 0.848 0.09404 0.0
C374 C 0.17348 0.11247 0.41971 0.0
C375 C 0.12016 0.09061 0.42501 0.0
C376 C 0.21185 0.11197 0.43303 0.0
C377 C 0.19633 0.08919 0.4521 0.0
C378 C 0.14307 0.06996 0.45789 0.0
C379 C 0.10526 0.06972 0.44407 0.0
C380 C 0.26824 0.13342 0.42633 0.0
C381 C 0.12573 0.04831 0.47848 0.0
C382 C 0.26912 0.02403 0.4764 0.0
C383 C 0.30666 0.06471 0.4896 0.0
C384 C 0.23369 0.03191 0.46397 0.0
C385 C 0.2342 0.08096 0.46522 0.0
C386 C 0.27085 0.12155 0.47889 0.0
C387 C 0.30732 0.11345 0.49051 0.0
C388 C 0.19595 0.98779 0.44935 0.0
C389 C 0.2729 0.17423 0.4811 0.0
H390 H 0.18459 0.12773 0.40478 0.0
H391 H 0.06382 0.05265 0.44806 0.0
H392 H 0.29722 0.16462 0.43716 0.0
H393 H 0.27773 0.10079 0.42596 0.0
H394 H 0.2741 0.15093 0.41123 0.0
H395 H 0.08478 0.04042 0.48139 0.0
H396 H 0.12621 0.01048 0.48004 0.0
H397 H 0.15422 0.07706 0.49013 0.0
H398 H 0.26714 0.98574 0.47576 0.0
H399 H 0.33685 0.14595 0.50014 0.0
H400 H 0.20153 0.00313 0.4339 0.0
H401 H 0.15382 0.97381 0.45299 0.0
H402 H 0.20228 0.95304 0.44955 0.0
H403 H 0.2994 0.20149 0.46971 0.0
H404 H 0.2897 0.19332 0.49612 0.0
H405 H 0.23257 0.16938 0.47887 0.0
C406 C 0.14734 0.212 0.75355 0.0
C407 C 0.11814 0.15773 0.75788 0.0
C408 C 0.18537 0.24945 0.76754 0.0
C409 C 0.19536 0.23182 0.78608 0.0
C410 C 0.16497 0.17704 0.79066 0.0
C411 C 0.12701 0.14058 0.77641 0.0
C412 C 0.21637 0.30752 0.76215 0.0
C413 C 0.17407 0.1566 0.81025 0.0
C414 C 0.3351 0.31614 0.81037 0.0
C415 C 0.32667 0.34655 0.82462 0.0
C416 C 0.29252 0.27825 0.79785 0.0
C417 C 0.24026 0.27001 0.79995 0.0
C418 C 0.2315 0.29929 0.81494 0.0
C419 C 0.27494 0.33778 0.82689 0.0
C420 C 0.30369 0.24787 0.7821 0.0
C421 C 0.17653 0.2909 0.8181 0.0
H422 H 0.14176 0.22488 0.73892 0.0
H423 H 0.10493 0.09835 0.77956 0.0
H424 H 0.21351 0.3327 0.77409 0.0
H425 H 0.2594 0.32035 0.76102 0.0
H426 H 0.20154 0.31509 0.74769 0.0
H427 H 0.14382 0.1139 0.81227 0.0
H428 H 0.21448 0.16093 0.81079 0.0
H429 H 0.17276 0.18051 0.82305 0.0
H430 H 0.3753 0.32321 0.80862 0.0
H431 H 0.26854 0.36112 0.83807 0.0
H432 H 0.29387 0.25697 0.76696 0.0
H433 H 0.27782 0.20424 0.78402 0.0
H434 H 0.34625 0.25798 0.78274 0.0
H435 H 0.16395 0.30529 0.80489 0.0
H436 H 0.17542 0.31269 0.83167 0.0
H437 H 0.14724 0.24775 0.81947 0.0
C438 C 0.90979 0.1077 0.66993 0.0
C439 C 0.92157 0.06793 0.67524 0.0
C440 C 0.87176 0.09866 0.65455 0.0
C441 C 0.84391 0.04817 0.64447 0.0
C442 C 0.85698 0.00844 0.64924 0.0
C443 C 0.89612 0.01899 0.66448 0.0
C444 C 0.85983 0.14251 0.64967 0.0
C445 C 0.8277 0.95393 0.63899 0.0
C446 C 0.70558 0.01478 0.62514 0.0
C447 C 0.7141 0.02741 0.60489 0.0
C448 C 0.7468 0.01839 0.63792 0.0
C449 C 0.79809 0.03602 0.63031 0.0
C450 C 0.80631 0.04683 0.60966 0.0
C451 C 0.76395 0.04198 0.59712 0.0
C452 C 0.73606 0.0056 0.65976 0.0
C453 C 0.86053 0.06634 0.60105 0.0
H454 H 0.92979 0.14584 0.67804 0.0
H455 H 0.90496 0.98806 0.66859 0.0
H456 H 0.86121 0.14885 0.63328 0.0
H457 H 0.81878 0.13067 0.65417 0.0
H458 H 0.88855 0.18098 0.65749 0.0
H459 H 0.84623 0.92948 0.64289 0.0
H460 H 0.78546 0.93237 0.64353 0.0
H461 H 0.82698 0.95762 0.62247 0.0
H462 H 0.66678 0.00298 0.63107 0.0
H463 H 0.77051 0.05197 0.58145 0.0
H464 H 0.75878 0.04277 0.66911 0.0
H465 H 0.74998 0.97789 0.66454 0.0
H466 H 0.69284 0.98725 0.66282 0.0
H467 H 0.88898 0.10725 0.60705 0.0
H468 H 0.85888 0.06738 0.58441 0.0
H469 H 0.87687 0.04046 0.6056 0.0
C470 C 0.96762 0.97047 0.98853 0.0
C471 C 0.94861 0.98728 0.00439 0.0
C472 C 0.93204 0.93042 0.97473 0.0
C473 C 0.87608 0.90712 0.97675 0.0
C474 C 0.85675 0.92498 0.9925 0.0
C475 C 0.89332 0.96385 0.00646 0.0
C476 C 0.95432 0.91134 0.95857 0.0
C477 C 0.79744 0.90203 0.99492 0.0
C478 C 0.78193 0.82763 0.93251 0.0
C479 C 0.76077 0.7748 0.93869 0.0
C480 C 0.81965 0.87103 0.94463 0.0
C481 C 0.83775 0.86161 0.96325 0.0
C482 C 0.81835 0.80843 0.96925 0.0
C483 C 0.77955 0.76579 0.95709 0.0
C484 C 0.83841 0.92689 0.93776 0.0
C485 C 0.83817 0.7965 0.98865 0.0
H486 H 0.01049 0.98764 0.98728 0.0
H487 H 0.87865 0.97477 0.01933 0.0
H488 H 0.94136 0.86864 0.9607 0.0
H489 H 0.93838 0.91422 0.94358 0.0
H490 H 0.99881 0.93466 0.95868 0.0
H491 H 0.77863 0.90624 0.98082 0.0
H492 H 0.778 0.85875 0.99787 0.0
H493 H 0.78905 0.92194 0.00741 0.0
H494 H 0.76889 0.83533 0.91816 0.0
H495 H 0.76323 0.7254 0.96226 0.0
H496 H 0.88251 0.95246 0.9399 0.0
H497 H 0.81979 0.94455 0.94698 0.0
H498 H 0.827 0.9276 0.92175 0.0
H499 H 0.88264 0.81762 0.98942 0.0
H500 H 0.82255 0.75306 0.99031 0.0
H501 H 0.82558 0.81125 0.00156 0.0
C502 C 0.95976 0.92319 0.33617 0.0
C503 C 0.00966 0.9673 0.3421 0.0
C504 C 0.95604 0.88401 0.3226 0.0
C505 C 0.00336 0.88904 0.31485 0.0
C506 C 0.05371 0.93405 0.32048 0.0
C507 C 0.05623 0.97262 0.33401 0.0
C508 C 0.90162 0.8367 0.31687 0.0
C509 C 0.1051 0.94086 0.31258 0.0
C510 C 0.00543 0.76526 0.29724 0.0
C511 C 0.00255 0.76842 0.27631 0.0
C512 C 0.00466 0.80366 0.30993 0.0
C513 C 0.00071 0.84627 0.30151 0.0
C514 C 0.99654 0.84909 0.28041 0.0
C515 C 0.99756 0.81016 0.26806 0.0
C516 C 0.00908 0.79916 0.33236 0.0
C517 C 0.99224 0.8939 0.27088 0.0
H518 H 0.92359 0.91887 0.34233 0.0
H519 H 0.09496 0.00661 0.33849 0.0
H520 H 0.89532 0.83283 0.30031 0.0
H521 H 0.89943 0.79944 0.32209 0.0
H522 H 0.86854 0.84 0.32342 0.0
H523 H 0.14079 0.97913 0.31783 0.0
H524 H 0.11069 0.90747 0.31752 0.0
H525 H 0.10296 0.93947 0.29594 0.0
H526 H 0.00831 0.73261 0.30374 0.0
H527 H 0.99581 0.81317 0.2519 0.0
H528 H 0.97466 0.79844 0.33953 0.0
H529 H 0.04609 0.83461 0.33863 0.0
H530 H 0.01016 0.76268 0.33652 0.0
H531 H 0.95827 0.8963 0.277 0.0
H532 H 0.98636 0.88876 0.2543 0.0
H533 H 0.02924 0.93259 0.27454 0.0
C534 C 0.16528 0.08716 0.66747 0.0
C535 C 0.12345 0.04215 0.67615 0.0
C536 C 0.19889 0.08211 0.65403 0.0
C537 C 0.19045 0.03077 0.64909 0.0
C538 C 0.14768 0.98506 0.6575 0.0
C539 C 0.11471 0.9913 0.67096 0.0
C540 C 0.24411 0.13186 0.64541 0.0
C541 C 0.13733 0.92966 0.65253 0.0
C542 C 0.25536 0.01863 0.60218 0.0
C543 C 0.30248 0.02214 0.61028 0.0
C544 C 0.21785 0.02012 0.61465 0.0
C545 C 0.22776 0.02535 0.6357 0.0
C546 C 0.27463 0.02766 0.64398 0.0
C547 C 0.31131 0.02592 0.63118 0.0
C548 C 0.16832 0.0175 0.60526 0.0
C549 C 0.28662 0.03312 0.66635 0.0
H550 H 0.17229 0.1266 0.67138 0.0
H551 H 0.08239 0.95632 0.67757 0.0
H552 H 0.28314 0.13586 0.65018 0.0
H553 H 0.24103 0.12883 0.62879 0.0
H554 H 0.2442 0.16865 0.65026 0.0
H555 H 0.10112 0.8981 0.65968 0.0
H556 H 0.13214 0.92221 0.63606 0.0
H557 H 0.17236 0.92625 0.65764 0.0
H558 H 0.24849 0.01624 0.58605 0.0
H559 H 0.34716 0.02773 0.63757 0.0
H560 H 0.16914 0.05555 0.6084 0.0
H561 H 0.13187 0.98513 0.61195 0.0
H562 H 0.16498 0.0104 0.58876 0.0
H563 H 0.29104 0.0712 0.67212 0.0
H564 H 0.32389 0.03254 0.67042 0.0
H565 H 0.25283 1.00023 0.67406 0.0
C566 C 0.14839 0.24296 1.0004 0.0
C567 C 0.14337 0.19641 0.00869 0.0
C568 C 0.19218 0.27619 0.98889 0.0
C569 C 0.2316 0.26219 0.9853 0.0
C570 C 0.22748 0.21593 0.99398 0.0
C571 C 0.18359 0.18377 0.0057 0.0
C572 C 0.19553 0.32564 0.98015 0.0
C573 C 0.26841 0.19939 0.9903 0.0
C574 C 0.30701 0.31743 0.93774 0.0
C575 C 0.35515 0.36128 0.94524 0.0
C576 C 0.26724 0.28377 0.95069 0.0
C577 C 0.27554 0.2947 0.97164 0.0
C578 C 0.32457 0.33829 0.97933 0.0
C579 C 0.36397 0.37091 0.96603 0.0
C580 C 0.21582 0.23724 0.94191 0.0
C581 C 0.33462 0.35161 0.00153 0.0
H582 H 0.11773 0.25327 0.00276 0.0
H583 H 0.17986 0.1477 0.01194 0.0
H584 H 0.23509 0.36123 0.98421 0.0
H585 H 0.19188 0.32165 0.96354 0.0
H586 H 0.16358 0.33279 0.98544 0.0
H587 H 0.26103 0.16394 0.99898 0.0
H588 H 0.26744 0.1898 0.97411 0.0
H589 H 0.30934 0.23276 0.99437 0.0
H590 H 0.30038 0.30964 0.92168 0.0
H591 H 0.40098 0.40511 0.97184 0.0
H592 H 0.18173 0.24334 0.9449 0.0
H593 H 0.20771 0.19971 0.94916 0.0
H594 H 0.21709 0.23216 0.92546 0.0
H595 H 0.3057 0.36298 0.0069 0.0
H596 H 0.37592 0.385 0.00519 0.0
H597 H 0.32812 0.31612 0.00994 0.0
C598 C 0.07254 0.24394 0.33899 0.0
C599 C 0.0315 0.19283 0.34378 0.0
C600 C 0.06493 0.27257 0.3237 0.0
C601 C 0.01459 0.25008 0.31319 0.0
C602 C 0.9735 0.19772 0.31747 0.0
C603 C 0.98264 0.16942 0.33262 0.0
C604 C 0.11022 0.32783 0.31934 0.0
C605 C 0.91908 0.17272 0.30678 0.0
C606 C 0.98631 0.35611 0.2937 0.0
C607 C 0.99929 0.35821 0.27357 0.0
C608 C 0.98803 0.31878 0.30646 0.0
C609 C 0.00422 0.28346 0.29898 0.0
C610 C 0.01546 0.28412 0.27844 0.0
C611 C 0.0124 0.32131 0.26591 0.0
C612 C 0.97477 0.31875 0.32816 0.0
C613 C 0.03359 0.24769 0.26998 0.0
H614 H 0.11059 0.262 0.34743 0.0
H615 H 0.95073 0.13001 0.33634 0.0
H616 H 0.11711 0.33156 0.30303 0.0
H617 H 0.09941 0.35803 0.3238 0.0
H618 H 0.14828 0.33742 0.3275 0.0
H619 H 0.89326 0.13002 0.31043 0.0
H620 H 0.8986 0.1947 0.31116 0.0
H621 H 0.92321 0.17574 0.29031 0.0
H622 H 0.97568 0.3844 0.29953 0.0
H623 H 0.02268 0.32322 0.25034 0.0
H624 H 0.01168 0.33333 0.33785 0.0
H625 H 0.94588 0.27755 0.33266 0.0
H626 H 0.95745 0.34464 0.33106 0.0
H627 H 0.07412 0.25969 0.27641 0.0
H628 H 0.0353 0.24918 0.25338 0.0
H629 H 0.00632 0.20582 0.27422 0.0
loop_
_geom_bond_atom_site_label_1
_geom_bond_atom_site_label_2
_geom_bond_distance
_geom_bond_site_symmetry_2
_ccdc_geom_bond_type
Mn0 O5 2.095 . S
Mn0 O15 2.162 . S
Mn0 O16 2.297 1_545 S
Mn0 O24 2.385 1_545 S
Mn0 O25 2.209 1_455 S
Mn0 O26 2.094 . S
Mn1 O6 2.121 . S
Mn1 N8 2.257 . S
Mn1 N17 2.282 1_554 S
Mn1 O25 2.215 . S
Mn1 O27 2.117 1_655 S
C2 O24 1.234 1_645 S
C2 O25 1.283 . S
C3 O15 1.281 1_565 S
C3 O16 1.236 . S
C4 O26 1.240 . S
C4 O27 1.264 . S
O5 Mn0 2.095 . S
O5 C14 1.250 . S
O6 Mn1 2.121 . S
O6 C14 1.255 1_655 S
C7 N8 1.326 . S
C7 C11 1.460 . S
C7 H13 0.929 . S
N8 Mn1 2.257 . S
N8 C7 1.326 . S
N8 C12 1.362 . S
C9 C10 1.258 1_556 S
C9 C12 1.431 1_556 S
C9 C29 1.449 . S
C10 C9 1.258 1_554 S
C10 C11 1.477 . S
C10 H30 0.931 . S
C11 C7 1.460 . S
C11 C10 1.477 . S
C11 H31 0.930 . S
C12 N8 1.362 . S
C12 C9 1.431 1_554 S
C12 C22 1.476 1_554 S
H13 C7 0.929 . S
C14 O5 1.250 . S
C14 O6 1.255 1_455 S
O15 Mn0 2.162 . S
O15 C3 1.281 1_545 S
O16 Mn0 2.297 1_565 S
O16 C3 1.236 . S
N17 Mn1 2.282 1_556 S
N17 C18 1.328 . S
N17 C22 1.318 . S
C18 N17 1.328 . S
C18 C19 1.457 . S
C18 H23 0.929 1_655 S
C19 C18 1.457 . S
C19 C20 1.291 . S
C19 H32 0.931 . S
C20 C19 1.291 . S
C20 C21 1.373 . S
C20 H33 0.929 . S
C21 C20 1.373 . S
C21 C22 1.396 . S
C21 C28 1.403 . S
C22 C12 1.476 1_556 S
C22 N17 1.318 . S
C22 C21 1.396 . S
H23 C18 0.929 1_455 S
O24 Mn0 2.385 1_565 S
O24 C2 1.234 1_465 S
O25 Mn0 2.209 1_655 S
O25 Mn1 2.215 . S
O25 C2 1.283 . S
O26 Mn0 2.094 . S
O26 C4 1.240 . S
O27 Mn1 2.117 1_455 S
O27 C4 1.264 . S
C28 C21 1.403 . S
C28 C29 1.399 . S
C28 H34 0.929 . S
C29 C9 1.449 . S
C29 C28 1.399 . S
C29 H35 0.930 . S
H30 C10 0.931 . S
H31 C11 0.930 . S
H32 C19 0.931 . S
H33 C20 0.929 . S
H34 C28 0.929 . S
H35 C29 0.930 . S
Mn36 O41 2.095 . S
Mn36 O51 2.162 1_545 S
Mn36 O52 2.297 1_655 S
Mn36 O60 2.385 1_655 S
Mn36 O61 2.209 1_655 S
Mn36 O62 2.094 . S
Mn37 O42 2.121 . S
Mn37 N44 2.257 . S
Mn37 N53 2.282 . S
Mn37 O61 2.215 . S
Mn37 O63 2.117 1_455 S
C38 O60 1.234 . S
C38 O61 1.283 . S
C39 O51 1.281 1_455 S
C39 O52 1.236 1_565 S
C40 O62 1.240 . S
C40 O63 1.264 . S
O41 Mn36 2.095 . S
O41 C50 1.250 1_655 S
O42 Mn37 2.121 . S
O42 C50 1.258 . S
C43 N44 1.326 . S
C43 C47 1.460 . S
C43 H49 0.929 . S
N44 Mn37 2.257 . S
N44 C43 1.326 . S
N44 C48 1.362 . S
C45 C46 1.258 . S
C45 C48 1.431 . S
C45 C65 1.449 . S
C46 C45 1.258 . S
C46 C47 1.477 . S
C46 H66 0.931 . S
C47 C43 1.460 . S
C47 C46 1.477 . S
C47 H67 0.930 . S
C48 N44 1.362 . S
C48 C45 1.431 . S
C48 C58 1.476 . S
H49 C43 0.929 . S
C50 O41 1.250 1_455 S
C50 O42 1.258 . S
O51 Mn36 2.162 1_565 S
O51 C39 1.281 1_655 S
O52 Mn36 2.297 1_455 S
O52 C39 1.236 1_545 S
N53 Mn37 2.282 . S
N53 C54 1.328 . S
N53 C58 1.318 . S
C54 N53 1.328 . S
C54 C55 1.457 . S
C54 H59 0.929 . S
C55 C54 1.457 . S
C55 C56 1.291 . S
C55 H68 0.931 . S
C56 C55 1.291 . S
C56 C57 1.373 . S
C56 H69 0.929 . S
C57 C56 1.373 . S
C57 C58 1.396 . S
C57 C64 1.403 . S
C58 C48 1.476 . S
C58 N53 1.318 . S
C58 C57 1.396 . S
H59 C54 0.929 . S
O60 Mn36 2.385 1_455 S
O60 C38 1.234 . S
O61 Mn36 2.209 1_455 S
O61 Mn37 2.215 . S
O61 C38 1.283 . S
O62 Mn36 2.094 . S
O62 C40 1.240 . S
O63 Mn37 2.117 1_655 S
O63 C40 1.264 . S
C64 C57 1.403 . S
C64 C65 1.399 . S
C64 H70 0.929 . S
C65 C45 1.449 . S
C65 C64 1.399 . S
C65 H71 0.930 . S
H66 C46 0.931 . S
H67 C47 0.930 . S
H68 C55 0.931 . S
H69 C56 0.929 . S
H70 C64 0.929 . S
H71 C65 0.930 . S
Mn72 O77 2.095 1_455 S
Mn72 O87 2.162 . S
Mn72 O88 2.297 . S
Mn72 O96 2.385 . S
Mn72 O97 2.209 . S
Mn72 O98 2.094 1_445 S
Mn73 O78 2.121 . S
Mn73 N80 2.257 . S
Mn73 N89 2.282 1_655 S
Mn73 O97 2.215 1_655 S
Mn73 O99 2.117 . S
C74 O96 1.234 . S
C74 O97 1.283 . S
C75 O87 1.281 . S
C75 O88 1.236 . S
C76 O98 1.240 . S
C76 O99 1.264 1_565 S
O77 Mn72 2.095 1_655 S
O77 C86 1.250 . S
O78 Mn73 2.121 . S
O78 C86 1.258 . S
C79 N80 1.326 . S
C79 C83 1.460 1_655 S
C79 H85 0.929 . S
N80 Mn73 2.257 . S
N80 C79 1.326 . S
N80 C84 1.362 1_655 S
C81 C82 1.258 . S
C81 C84 1.431 . S
C81 C101 1.449 . S
C82 C81 1.258 . S
C82 C83 1.477 . S
C82 H102 0.931 . S
C83 C79 1.460 1_455 S
C83 C82 1.477 . S
C83 H103 0.930 1_455 S
C84 N80 1.362 1_455 S
C84 C81 1.431 . S
C84 C94 1.476 . S
H85 C79 0.929 . S
C86 O77 1.250 . S
C86 O78 1.258 . S
O87 Mn72 2.162 . S
O87 C75 1.281 . S
O88 Mn72 2.297 . S
O88 C75 1.236 . S
N89 Mn73 2.282 1_455 S
N89 C90 1.328 . S
N89 C94 1.318 . S
C90 N89 1.328 . S
C90 C91 1.457 . S
C90 H95 0.929 1_455 S
C91 C90 1.457 . S
C91 C92 1.291 . S
C91 H104 0.931 . S
C92 C91 1.291 . S
C92 C93 1.373 . S
C92 H105 0.929 . S
C93 C92 1.373 . S
C93 C94 1.396 . S
C93 C100 1.403 . S
C94 C84 1.476 . S
C94 N89 1.318 . S
C94 C93 1.396 . S
H95 C90 0.929 1_655 S
O96 Mn72 2.385 . S
O96 C74 1.234 . S
O97 Mn72 2.209 . S
O97 Mn73 2.215 1_455 S
O97 C74 1.283 . S
O98 Mn72 2.094 1_665 S
O98 C76 1.240 . S
O99 Mn73 2.117 . S
O99 C76 1.264 1_545 S
C100 C93 1.403 . S
C100 C101 1.399 . S
C100 H106 0.929 . S
C101 C81 1.449 . S
C101 C100 1.399 . S
C101 H107 0.930 . S
H102 C82 0.931 . S
H103 C83 0.930 1_655 S
H104 C91 0.931 . S
H105 C92 0.929 . S
H106 C100 0.929 . S
H107 C101 0.930 . S
C108 C109 1.384 1_655 S
C108 C110 1.384 . S
C108 H136 0.931 . S
C109 C108 1.384 1_455 S
C109 C112 1.382 . S
C110 C108 1.384 . S
C110 C111 1.381 1_655 S
C110 H137 0.930 . S
C111 C110 1.381 1_455 S
C111 C113 1.381 . S
C111 C114 1.487 . S
C112 C109 1.382 . S
C112 C113 1.387 . S
C112 H138 0.930 . S
C113 C111 1.381 . S
C113 C112 1.387 . S
C113 H139 0.931 . S
C114 C111 1.487 . S
C114 C121 1.399 . S
C114 N152 1.343 . S
C115 C116 1.384 . S
C115 C117 1.384 . S
C115 H140 0.931 . S
C116 C115 1.384 . S
C116 C119 1.382 1_455 S
C117 C115 1.384 . S
C117 C118 1.381 . S
C117 H141 0.930 . S
C118 C117 1.381 . S
C118 C120 1.381 1_455 S
C118 C121 1.487 . S
C119 C116 1.382 1_655 S
C119 C120 1.387 . S
C119 H142 0.930 . S
C120 C118 1.381 1_655 S
C120 C119 1.387 . S
C120 H143 0.931 . S
C121 C114 1.399 . S
C121 C118 1.487 . S
C121 N153 1.343 . S
C122 C123 1.384 . S
C122 C124 1.384 . S
C122 H144 0.931 . S
C123 C122 1.384 . S
C123 C126 1.382 1_455 S
C124 C122 1.384 . S
C124 C125 1.381 . S
C124 H145 0.930 . S
C125 C124 1.381 . S
C125 C127 1.381 1_455 S
C125 C128 1.487 . S
C126 C123 1.382 1_655 S
C126 C127 1.387 . S
C126 H146 0.930 . S
C127 C125 1.381 1_655 S
C127 C126 1.387 . S
C127 H147 0.931 . S
C128 C125 1.487 . S
C128 C135 1.399 . S
C128 N153 1.343 . S
C129 C130 1.384 1_655 S
C129 C131 1.384 . S
C129 H148 0.931 . S
C130 C129 1.384 1_455 S
C130 C133 1.382 . S
C131 C129 1.384 . S
C131 C132 1.381 1_655 S
C131 H149 0.930 . S
C132 C131 1.381 1_455 S
C132 C134 1.381 . S
C132 C135 1.487 . S
C133 C130 1.382 . S
C133 C134 1.387 . S
C133 H150 0.930 . S
C134 C132 1.381 . S
C134 C133 1.387 . S
C134 H151 0.931 . S
C135 C128 1.399 . S
C135 C132 1.487 . S
C135 N152 1.343 . S
H136 C108 0.931 . S
H137 C110 0.930 . S
H138 C112 0.930 . S
H139 C113 0.931 . S
H140 C115 0.931 . S
H141 C117 0.930 . S
H142 C119 0.930 . S
H143 C120 0.931 . S
H144 C122 0.931 . S
H145 C124 0.930 . S
H146 C126 0.930 . S
H147 C127 0.931 . S
H148 C129 0.931 . S
H149 C131 0.930 . S
H150 C133 0.930 . S
H151 C134 0.931 . S
N152 C114 1.343 . S
N152 C135 1.343 . S
N153 C121 1.343 . S
N153 C128 1.343 . S
C154 C155 1.384 . S
C154 C156 1.384 . S
C154 H182 0.931 . S
C155 C154 1.384 . S
C155 C158 1.382 . S
C156 C154 1.384 . S
C156 C157 1.381 . S
C156 H183 0.930 . S
C157 C156 1.381 . S
C157 C159 1.381 . S
C157 C160 1.487 . S
C158 C155 1.382 . S
C158 C159 1.387 . S
C158 H184 0.930 . S
C159 C157 1.381 . S
C159 C158 1.387 . S
C159 H185 0.931 . S
C160 C157 1.487 . S
C160 C167 1.399 . S
C160 N198 1.343 . S
C161 C162 1.384 . S
C161 C163 1.384 . S
C161 H186 0.931 . S
C162 C161 1.384 . S
C162 C165 1.382 . S
C163 C161 1.384 . S
C163 C164 1.381 . S
C163 H187 0.930 . S
C164 C163 1.381 . S
C164 C166 1.381 . S
C164 C167 1.487 . S
C165 C162 1.382 . S
C165 C166 1.387 . S
C165 H188 0.930 . S
C166 C164 1.381 . S
C166 C165 1.387 . S
C166 H189 0.931 . S
C167 C160 1.399 . S
C167 C164 1.487 . S
C167 N199 1.343 . S
C168 C169 1.384 . S
C168 C170 1.384 . S
C168 H190 0.931 . S
C169 C168 1.384 . S
C169 C172 1.382 . S
C170 C168 1.384 . S
C170 C171 1.381 . S
C170 H191 0.930 . S
C171 C170 1.381 . S
C171 C173 1.381 . S
C171 C174 1.487 . S
C172 C169 1.382 . S
C172 C173 1.387 . S
C172 H192 0.930 . S
C173 C171 1.381 . S
C173 C172 1.387 . S
C173 H193 0.931 . S
C174 C171 1.487 . S
C174 C181 1.399 . S
C174 N199 1.343 . S
C175 C176 1.384 . S
C175 C177 1.384 . S
C175 H194 0.931 . S
C176 C175 1.384 . S
C176 C179 1.382 . S
C177 C175 1.384 . S
C177 C178 1.381 . S
C177 H195 0.930 . S
C178 C177 1.381 . S
C178 C180 1.381 . S
C178 C181 1.487 . S
C179 C176 1.382 . S
C179 C180 1.387 . S
C179 H196 0.930 . S
C180 C178 1.381 . S
C180 C179 1.387 . S
C180 H197 0.931 . S
C181 C174 1.399 . S
C181 C178 1.487 . S
C181 N198 1.343 . S
H182 C154 0.931 . S
H183 C156 0.930 . S
H184 C158 0.930 . S
H185 C159 0.931 . S
H186 C161 0.931 . S
H187 C163 0.930 . S
H188 C165 0.930 . S
H189 C166 0.931 . S
H190 C168 0.931 . S
H191 C170 0.930 . S
H192 C172 0.930 . S
H193 C173 0.931 . S
H194 C175 0.931 . S
H195 C177 0.930 . S
H196 C179 0.930 . S
H197 C180 0.931 . S
N198 C160 1.343 . S
N198 C181 1.343 . S
N199 C167 1.343 . S
N199 C174 1.343 . S
C200 C201 1.384 . S
C200 C202 1.384 . S
C200 H228 0.931 . S
C201 C200 1.384 . S
C201 C204 1.382 . S
C202 C200 1.384 . S
C202 C203 1.381 . S
C202 H229 0.930 . S
C203 C202 1.381 . S
C203 C205 1.381 . S
C203 C206 1.487 . S
C204 C201 1.382 . S
C204 C205 1.387 . S
C204 H230 0.930 . S
C205 C203 1.381 . S
C205 C204 1.387 . S
C205 H231 0.931 . S
C206 C203 1.487 . S
C206 C213 1.399 . S
C206 N244 1.343 . S
C207 C208 1.384 . S
C207 C209 1.384 . S
C207 H232 0.931 . S
C208 C207 1.384 . S
C208 C211 1.382 . S
C209 C207 1.384 . S
C209 C210 1.381 . S
C209 H233 0.930 . S
C210 C209 1.381 . S
C210 C212 1.381 . S
C210 C213 1.487 . S
C211 C208 1.382 . S
C211 C212 1.387 . S
C211 H234 0.930 . S
C212 C210 1.381 . S
C212 C211 1.387 . S
C212 H235 0.931 . S
C213 C206 1.399 . S
C213 C210 1.487 . S
C213 N245 1.343 . S
C214 C215 1.384 . S
C214 C216 1.384 . S
C214 H236 0.931 . S
C215 C214 1.384 . S
C215 C218 1.382 . S
C216 C214 1.384 . S
C216 C217 1.381 . S
C216 H237 0.930 . S
C217 C216 1.381 . S
C217 C219 1.381 . S
C217 C220 1.487 . S
C218 C215 1.382 . S
C218 C219 1.387 . S
C218 H238 0.930 . S
C219 C217 1.381 . S
C219 C218 1.387 . S
C219 H239 0.931 . S
C220 C217 1.487 . S
C220 C227 1.399 . S
C220 N245 1.343 . S
C221 C222 1.384 . S
C221 C223 1.384 . S
C221 H240 0.931 . S
C222 C221 1.384 . S
C222 C225 1.382 . S
C223 C221 1.384 . S
C223 C224 1.381 . S
C223 H241 0.930 . S
C224 C223 1.381 . S
C224 C226 1.381 . S
C224 C227 1.487 . S
C225 C222 1.382 . S
C225 C226 1.387 . S
C225 H242 0.930 . S
C226 C224 1.381 . S
C226 C225 1.387 . S
C226 H243 0.931 . S
C227 C220 1.399 . S
C227 C224 1.487 . S
C227 N244 1.343 . S
H228 C200 0.931 . S
H229 C202 0.930 . S
H230 C204 0.930 . S
H231 C205 0.931 . S
H232 C207 0.931 . S
H233 C209 0.930 . S
H234 C211 0.930 . S
H235 C212 0.931 . S
H236 C214 0.931 . S
H237 C216 0.930 . S
H238 C218 0.930 . S
H239 C219 0.931 . S
H240 C221 0.931 . S
H241 C223 0.930 . S
H242 C225 0.930 . S
H243 C226 0.931 . S
N244 C206 1.343 . S
N244 C227 1.343 . S
N245 C213 1.343 . S
N245 C220 1.343 . S
C246 C247 1.391 . S
C246 C248 1.394 . S
C246 H262 0.931 . S
C247 C246 1.391 . S
C247 C251 1.376 1_455 S
C248 C246 1.394 . S
C248 C249 1.369 . S
C248 C252 1.531 . S
C249 C248 1.369 . S
C249 C250 1.410 1_455 S
C249 C257 1.503 . S
C250 C249 1.410 1_655 S
C250 C251 1.392 . S
C250 C253 1.511 . S
C251 C247 1.376 1_655 S
C251 C250 1.392 . S
C251 H263 0.929 . S
C252 C248 1.531 . S
C252 H264 0.960 . S
C252 H265 0.962 . S
C252 H266 0.960 . S
C253 C250 1.511 . S
C253 H267 0.961 . S
C253 H268 0.961 . S
C253 H269 0.961 . S
C254 C255 1.370 . S
C254 C256 1.363 . S
C254 H270 0.931 . S
C255 C254 1.370 . S
C255 C259 1.408 . S
C256 C254 1.363 . S
C256 C257 1.370 . S
C256 C260 1.524 . S
C257 C249 1.503 . S
C257 C256 1.370 . S
C257 C258 1.403 . S
C258 C257 1.403 . S
C258 C259 1.404 . S
C258 C261 1.539 1_455 S
C259 C255 1.408 . S
C259 C258 1.404 . S
C259 H271 0.914 1_455 S
C260 C256 1.524 . S
C260 H272 0.956 . S
C260 H273 0.961 . S
C260 H274 0.961 . S
C261 C258 1.539 1_655 S
C261 H275 0.958 1_655 S
C261 H276 0.961 . S
C261 H277 0.960 . S
H262 C246 0.931 . S
H263 C251 0.929 . S
H264 C252 0.960 . S
H265 C252 0.962 . S
H266 C252 0.960 . S
H267 C253 0.961 . S
H268 C253 0.961 . S
H269 C253 0.961 . S
H270 C254 0.931 . S
H271 C259 0.914 1_655 S
H272 C260 0.956 . S
H273 C260 0.961 . S
H274 C260 0.961 . S
H275 C261 0.958 1_455 S
H276 C261 0.961 . S
H277 C261 0.960 . S
C278 C279 1.391 . S
C278 C280 1.394 . S
C278 H294 0.931 . S
C279 C278 1.391 . S
C279 C283 1.376 . S
C280 C278 1.394 . S
C280 C281 1.369 . S
C280 C284 1.531 . S
C281 C280 1.369 . S
C281 C282 1.410 . S
C281 C289 1.503 . S
C282 C281 1.410 . S
C282 C283 1.392 . S
C282 C285 1.511 . S
C283 C279 1.376 . S
C283 C282 1.392 . S
C283 H295 0.929 . S
C284 C280 1.531 . S
C284 H296 0.960 . S
C284 H297 0.962 . S
C284 H298 0.960 . S
C285 C282 1.511 . S
C285 H299 0.961 1_545 S
C285 H300 0.961 . S
C285 H301 0.961 . S
C286 C287 1.370 . S
C286 C288 1.363 . S
C286 H302 0.931 . S
C287 C286 1.370 . S
C287 C291 1.408 . S
C288 C286 1.363 . S
C288 C289 1.370 . S
C288 C292 1.524 . S
C289 C281 1.503 . S
C289 C288 1.370 . S
C289 C290 1.403 . S
C290 C289 1.403 . S
C290 C291 1.404 . S
C290 C293 1.539 . S
C291 C287 1.408 . S
C291 C290 1.404 . S
C291 H303 0.930 . S
C292 C288 1.524 . S
C292 H304 0.956 . S
C292 H305 0.961 1_545 S
C292 H306 0.961 1_545 S
C293 C290 1.539 . S
C293 H307 0.958 . S
C293 H308 0.961 . S
C293 H309 0.960 . S
H294 C278 0.931 . S
H295 C283 0.929 . S
H296 C284 0.960 . S
H297 C284 0.962 . S
H298 C284 0.960 . S
H299 C285 0.961 1_565 S
H300 C285 0.961 . S
H301 C285 0.961 . S
H302 C286 0.931 . S
H303 C291 0.930 . S
H304 C292 0.956 . S
H305 C292 0.961 1_565 S
H306 C292 0.961 1_565 S
H307 C293 0.958 . S
H308 C293 0.961 . S
H309 C293 0.960 . S
C310 C311 1.391 . S
C310 C312 1.394 . S
C310 H326 0.931 . S
C311 C310 1.391 . S
C311 C315 1.376 . S
C312 C310 1.394 . S
C312 C313 1.369 . S
C312 C316 1.531 . S
C313 C312 1.369 . S
C313 C314 1.410 . S
C313 C321 1.503 . S
C314 C313 1.410 . S
C314 C315 1.392 . S
C314 C317 1.511 . S
C315 C311 1.376 . S
C315 C314 1.392 . S
C315 H327 0.929 . S
C316 C312 1.531 . S
C316 H328 0.960 . S
C316 H329 0.962 . S
C316 H330 0.960 . S
C317 C314 1.511 . S
C317 H331 0.961 . S
C317 H332 0.961 . S
C317 H333 0.961 . S
C318 C319 1.370 . S
C318 C320 1.363 . S
C318 H334 0.931 . S
C319 C318 1.370 . S
C319 C323 1.408 . S
C320 C318 1.363 . S
C320 C321 1.370 . S
C320 C324 1.524 . S
C321 C313 1.503 . S
C321 C320 1.370 . S
C321 C322 1.403 . S
C322 C321 1.403 . S
C322 C323 1.404 . S
C322 C325 1.539 . S
C323 C319 1.408 . S
C323 C322 1.404 . S
C323 H335 0.930 . S
C324 C320 1.524 . S
C324 H336 0.956 . S
C324 H337 0.961 . S
C324 H338 0.961 . S
C325 C322 1.539 . S
C325 H339 0.958 . S
C325 H340 0.961 . S
C325 H341 0.960 . S
H326 C310 0.931 . S
H327 C315 0.929 . S
H328 C316 0.960 . S
H329 C316 0.962 . S
H330 C316 0.960 . S
H331 C317 0.961 . S
H332 C317 0.961 . S
H333 C317 0.961 . S
H334 C318 0.931 . S
H335 C323 0.930 . S
H336 C324 0.956 . S
H337 C324 0.961 . S
H338 C324 0.961 . S
H339 C325 0.958 . S
H340 C325 0.961 . S
H341 C325 0.960 . S
C342 C343 1.392 . S
C342 C344 1.394 1_455 S
C342 H358 0.930 1_455 S
C343 C342 1.392 . S
C343 C347 1.376 . S
C344 C342 1.394 1_655 S
C344 C345 1.369 1_655 S
C344 C348 1.531 . S
C345 C344 1.369 1_455 S
C345 C346 1.410 . S
C345 C353 1.503 . S
C346 C345 1.410 . S
C346 C347 1.392 . S
C346 C349 1.511 . S
C347 C343 1.376 . S
C347 C346 1.392 . S
C347 H359 0.929 . S
C348 C344 1.531 . S
C348 H360 0.960 . S
C348 H361 0.962 . S
C348 H362 0.960 . S
C349 C346 1.511 . S
C349 H363 0.961 . S
C349 H364 0.961 . S
C349 H365 0.961 . S
C350 C351 1.370 . S
C350 C352 1.363 . S
C350 H366 0.931 . S
C351 C350 1.370 . S
C351 C355 1.408 . S
C352 C350 1.363 . S
C352 C353 1.370 . S
C352 C356 1.524 . S
C353 C345 1.503 . S
C353 C352 1.370 . S
C353 C354 1.403 . S
C354 C353 1.403 . S
C354 C355 1.404 . S
C354 C357 1.539 . S
C355 C351 1.408 . S
C355 C354 1.404 . S
C355 H367 0.930 . S
C356 C352 1.524 . S
C356 H368 0.956 1_455 S
C356 H369 0.961 . S
C356 H370 0.961 . S
C357 C354 1.539 . S
C357 H371 0.958 . S
C357 H372 0.961 . S
C357 H373 0.960 . S
H358 C342 0.930 1_655 S
H359 C347 0.929 . S
H360 C348 0.960 . S
H361 C348 0.962 . S
H362 C348 0.960 . S
H363 C349 0.961 . S
H364 C349 0.961 . S
H365 C349 0.961 . S
H366 C350 0.931 . S
H367 C355 0.930 . S
H368 C356 0.956 1_655 S
H369 C356 0.961 . S
H370 C356 0.961 . S
H371 C357 0.958 . S
H372 C357 0.961 . S
H373 C357 0.960 . S
C374 C375 1.391 . S
C374 C376 1.394 . S
C374 H390 0.931 . S
C375 C374 1.391 . S
C375 C379 1.376 . S
C376 C374 1.394 . S
C376 C377 1.369 . S
C376 C380 1.531 . S
C377 C376 1.369 . S
C377 C378 1.410 . S
C377 C385 1.503 . S
C378 C377 1.410 . S
C378 C379 1.392 . S
C378 C381 1.511 . S
C379 C375 1.376 . S
C379 C378 1.392 . S
C379 H391 0.929 . S
C380 C376 1.531 . S
C380 H392 0.960 . S
C380 H393 0.962 . S
C380 H394 0.960 . S
C381 C378 1.511 . S
C381 H395 0.961 . S
C381 H396 0.961 . S
C381 H397 0.961 . S
C382 C383 1.370 . S
C382 C384 1.363 . S
C382 H398 0.931 . S
C383 C382 1.370 . S
C383 C387 1.408 . S
C384 C382 1.363 . S
C384 C385 1.370 . S
C384 C388 1.524 1_545 S
C385 C377 1.503 . S
C385 C384 1.370 . S
C385 C386 1.403 . S
C386 C385 1.403 . S
C386 C387 1.404 . S
C386 C389 1.539 . S
C387 C383 1.408 . S
C387 C386 1.404 . S
C387 H399 0.930 . S
C388 C384 1.524 1_565 S
C388 H400 0.956 1_565 S
C388 H401 0.961 . S
C388 H402 0.961 . S
C389 C386 1.539 . S
C389 H403 0.958 . S
C389 H404 0.961 . S
C389 H405 0.960 . S
H390 C374 0.931 . S
H391 C379 0.929 . S
H392 C380 0.960 . S
H393 C380 0.962 . S
H394 C380 0.960 . S
H395 C381 0.961 . S
H396 C381 0.961 . S
H397 C381 0.961 . S
H398 C382 0.931 . S
H399 C387 0.930 . S
H400 C388 0.956 1_545 S
H401 C388 0.961 . S
H402 C388 0.961 . S
H403 C389 0.958 . S
H404 C389 0.961 . S
H405 C389 0.960 . S
C406 C407 1.391 . S
C406 C408 1.394 . S
C406 H422 0.931 . S
C407 C406 1.391 . S
C407 C411 1.376 . S
C408 C406 1.394 . S
C408 C409 1.369 . S
C408 C412 1.531 . S
C409 C408 1.369 . S
C409 C410 1.410 . S
C409 C417 1.503 . S
C410 C409 1.410 . S
C410 C411 1.392 . S
C410 C413 1.511 . S
C411 C407 1.376 . S
C411 C410 1.392 . S
C411 H423 0.929 . S
C412 C408 1.531 . S
C412 H424 0.960 . S
C412 H425 0.962 . S
C412 H426 0.960 . S
C413 C410 1.511 . S
C413 H427 0.961 . S
C413 H428 0.961 . S
C413 H429 0.961 . S
C414 C415 1.370 . S
C414 C416 1.363 . S
C414 H430 0.931 . S
C415 C414 1.370 . S
C415 C419 1.408 . S
C416 C414 1.363 . S
C416 C417 1.370 . S
C416 C420 1.524 . S
C417 C409 1.503 . S
C417 C416 1.370 . S
C417 C418 1.403 . S
C418 C417 1.403 . S
C418 C419 1.404 . S
C418 C421 1.539 . S
C419 C415 1.408 . S
C419 C418 1.404 . S
C419 H431 0.930 . S
C420 C416 1.524 . S
C420 H432 0.956 . S
C420 H433 0.961 . S
C420 H434 0.961 . S
C421 C418 1.539 . S
C421 H435 0.958 . S
C421 H436 0.961 . S
C421 H437 0.960 . S
H422 C406 0.931 . S
H423 C411 0.929 . S
H424 C412 0.960 . S
H425 C412 0.962 . S
H426 C412 0.960 . S
H427 C413 0.961 . S
H428 C413 0.961 . S
H429 C413 0.961 . S
H430 C414 0.931 . S
H431 C419 0.930 . S
H432 C420 0.956 . S
H433 C420 0.961 . S
H434 C420 0.961 . S
H435 C421 0.958 . S
H436 C421 0.961 . S
H437 C421 0.960 . S
C438 C439 1.391 . S
C438 C440 1.394 . S
C438 H454 0.931 . S
C439 C438 1.391 . S
C439 C443 1.376 . S
C440 C438 1.394 . S
C440 C441 1.369 . S
C440 C444 1.531 . S
C441 C440 1.369 . S
C441 C442 1.410 . S
C441 C449 1.503 . S
C442 C441 1.410 . S
C442 C443 1.392 . S
C442 C445 1.511 1_545 S
C443 C439 1.376 . S
C443 C442 1.392 . S
C443 H455 0.929 1_545 S
C444 C440 1.531 . S
C444 H456 0.960 . S
C444 H457 0.962 . S
C444 H458 0.960 . S
C445 C442 1.511 1_565 S
C445 H459 0.961 . S
C445 H460 0.961 . S
C445 H461 0.961 . S
C446 C447 1.370 . S
C446 C448 1.363 . S
C446 H462 0.931 . S
C447 C446 1.370 . S
C447 C451 1.408 . S
C448 C446 1.363 . S
C448 C449 1.370 . S
C448 C452 1.524 . S
C449 C441 1.503 . S
C449 C448 1.370 . S
C449 C450 1.403 . S
C450 C449 1.403 . S
C450 C451 1.404 . S
C450 C453 1.539 . S
C451 C447 1.408 . S
C451 C450 1.404 . S
C451 H463 0.930 . S
C452 C448 1.524 . S
C452 H464 0.956 . S
C452 H465 0.961 . S
C452 H466 0.961 . S
C453 C450 1.539 . S
C453 H467 0.958 . S
C453 H468 0.961 . S
C453 H469 0.960 . S
H454 C438 0.931 . S
H455 C443 0.929 1_565 S
H456 C444 0.960 . S
H457 C444 0.962 . S
H458 C444 0.960 . S
H459 C445 0.961 . S
H460 C445 0.961 . S
H461 C445 0.961 . S
H462 C446 0.931 . S
H463 C451 0.930 . S
H464 C452 0.956 . S
H465 C452 0.961 . S
H466 C452 0.961 . S
H467 C453 0.958 . S
H468 C453 0.961 . S
H469 C453 0.960 . S
C470 C471 1.391 . S
C470 C472 1.394 . S
C470 H486 0.931 . S
C471 C470 1.391 . S
C471 C475 1.376 1_554 S
C472 C470 1.394 . S
C472 C473 1.369 1_554 S
C472 C476 1.531 . S
C473 C472 1.369 1_556 S
C473 C474 1.410 . S
C473 C481 1.503 . S
C474 C473 1.410 . S
C474 C475 1.392 . S
C474 C477 1.511 . S
C475 C471 1.376 1_556 S
C475 C474 1.392 . S
C475 H487 0.929 1_565 S
C476 C472 1.531 . S
C476 H488 0.960 1_554 S
C476 H489 0.962 1_554 S
C476 H490 0.960 . S
C477 C474 1.511 . S
C477 H491 0.961 . S
C477 H492 0.961 . S
C477 H493 0.961 . S
C478 C479 1.370 . S
C478 C480 1.363 . S
C478 H494 0.931 . S
C479 C478 1.370 . S
C479 C483 1.408 . S
C480 C478 1.363 . S
C480 C481 1.370 . S
C480 C484 1.524 . S
C481 C473 1.503 . S
C481 C480 1.370 . S
C481 C482 1.403 . S
C482 C481 1.403 . S
C482 C483 1.404 . S
C482 C485 1.539 . S
C483 C479 1.408 . S
C483 C482 1.404 . S
C483 H495 0.930 . S
C484 C480 1.524 . S
C484 H496 0.956 . S
C484 H497 0.961 . S
C484 H498 0.961 . S
C485 C482 1.539 . S
C485 H499 0.958 1_556 S
C485 H500 0.961 . S
C485 H501 0.950 1_556 S
H486 C470 0.931 . S
H487 C475 0.929 1_545 S
H488 C476 0.960 1_556 S
H489 C476 0.962 1_556 S
H490 C476 0.960 . S
H491 C477 0.961 . S
H492 C477 0.961 . S
H493 C477 0.961 . S
H494 C478 0.931 . S
H495 C483 0.930 . S
H496 C484 0.956 . S
H497 C484 0.961 . S
H498 C484 0.961 . S
H499 C485 0.958 1_554 S
H500 C485 0.961 . S
H501 C485 0.950 1_554 S
C502 C503 1.391 1_655 S
C502 C504 1.394 . S
C502 H518 0.931 . S
C503 C502 1.391 1_455 S
C503 C507 1.376 . S
C504 C502 1.394 . S
C504 C505 1.369 1_655 S
C504 C508 1.531 . S
C505 C504 1.369 1_455 S
C505 C506 1.410 . S
C505 C513 1.503 . S
C506 C505 1.410 . S
C506 C507 1.392 . S
C506 C509 1.511 . S
C507 C503 1.376 . S
C507 C506 1.392 . S
C507 H519 0.929 . S
C508 C504 1.531 . S
C508 H520 0.960 . S
C508 H521 0.962 . S
C508 H522 0.960 . S
C509 C506 1.511 . S
C509 H523 0.961 . S
C509 H524 0.961 . S
C509 H525 0.961 . S
C510 C511 1.370 . S
C510 C512 1.363 . S
C510 H526 0.931 . S
C511 C510 1.370 . S
C511 C515 1.408 1_455 S
C512 C510 1.363 . S
C512 C513 1.370 . S
C512 C516 1.524 . S
C513 C505 1.503 . S
C513 C512 1.370 . S
C513 C514 1.403 1_455 S
C514 C513 1.403 1_655 S
C514 C515 1.404 . S
C514 C517 1.539 . S
C515 C511 1.408 1_655 S
C515 C514 1.404 . S
C515 H527 0.930 . S
C516 C512 1.524 . S
C516 H528 0.956 . S
C516 H529 0.961 . S
C516 H530 0.961 . S
C517 C514 1.539 . S
C517 H531 0.958 . S
C517 H532 0.961 . S
C517 H533 0.960 . S
H518 C502 0.931 . S
H519 C507 0.929 . S
H520 C508 0.960 . S
H521 C508 0.962 . S
H522 C508 0.960 . S
H523 C509 0.961 . S
H524 C509 0.961 . S
H525 C509 0.961 . S
H526 C510 0.931 . S
H527 C515 0.930 . S
H528 C516 0.956 . S
H529 C516 0.961 . S
H530 C516 0.961 . S
H531 C517 0.958 . S
H532 C517 0.961 . S
H533 C517 0.960 . S
C534 C535 1.391 . S
C534 C536 1.394 . S
C534 H550 0.931 . S
C535 C534 1.391 . S
C535 C539 1.376 . S
C536 C534 1.394 . S
C536 C537 1.369 . S
C536 C540 1.531 . S
C537 C536 1.369 . S
C537 C538 1.410 . S
C537 C545 1.503 . S
C538 C537 1.410 . S
C538 C539 1.392 . S
C538 C541 1.511 1_545 S
C539 C535 1.376 . S
C539 C538 1.392 . S
C539 H551 0.929 1_545 S
C540 C536 1.531 . S
C540 H552 0.960 . S
C540 H553 0.962 . S
C540 H554 0.960 . S
C541 C538 1.511 1_565 S
C541 H555 0.961 . S
C541 H556 0.961 . S
C541 H557 0.961 . S
C542 C543 1.370 . S
C542 C544 1.363 . S
C542 H558 0.931 . S
C543 C542 1.370 . S
C543 C547 1.408 . S
C544 C542 1.363 . S
C544 C545 1.370 . S
C544 C548 1.524 . S
C545 C537 1.503 . S
C545 C544 1.370 . S
C545 C546 1.403 . S
C546 C545 1.403 . S
C546 C547 1.404 . S
C546 C549 1.539 . S
C547 C543 1.408 . S
C547 C546 1.404 . S
C547 H559 0.930 . S
C548 C544 1.524 . S
C548 H560 0.956 . S
C548 H561 0.961 . S
C548 H562 0.961 . S
C549 C546 1.539 . S
C549 H563 0.958 . S
C549 H564 0.961 1_545 S
C549 H565 0.960 1_545 S
H550 C534 0.931 . S
H551 C539 0.929 1_565 S
H552 C540 0.960 . S
H553 C540 0.962 . S
H554 C540 0.960 . S
H555 C541 0.961 . S
H556 C541 0.961 . S
H557 C541 0.961 . S
H558 C542 0.931 . S
H559 C547 0.930 . S
H560 C548 0.956 . S
H561 C548 0.961 . S
H562 C548 0.961 . S
H563 C549 0.958 . S
H564 C549 0.961 1_565 S
H565 C549 0.960 1_565 S
C566 C567 1.391 . S
C566 C568 1.394 1_554 S
C566 H582 0.931 . S
C567 C566 1.391 . S
C567 C571 1.376 1_554 S
C568 C566 1.394 1_556 S
C568 C569 1.369 . S
C568 C572 1.531 . S
C569 C568 1.369 . S
C569 C570 1.410 . S
C569 C577 1.503 . S
C570 C569 1.410 . S
C570 C571 1.392 . S
C570 C573 1.511 . S
C571 C567 1.376 1_556 S
C571 C570 1.392 . S
C571 H583 0.929 . S
C572 C568 1.531 . S
C572 H584 0.961 . S
C572 H585 0.964 . S
C572 H586 0.957 1_556 S
C573 C570 1.511 . S
C573 H587 0.961 . S
C573 H588 0.961 . S
C573 H589 0.961 . S
C574 C575 1.370 . S
C574 C576 1.363 . S
C574 H590 0.931 . S
C575 C574 1.370 . S
C575 C579 1.408 . S
C576 C574 1.363 . S
C576 C577 1.370 . S
C576 C580 1.524 . S
C577 C569 1.503 . S
C577 C576 1.370 . S
C577 C578 1.403 . S
C578 C577 1.403 . S
C578 C579 1.404 . S
C578 C581 1.539 . S
C579 C575 1.408 . S
C579 C578 1.404 . S
C579 H591 0.930 . S
C580 C576 1.524 . S
C580 H592 0.956 . S
C580 H593 0.961 . S
C580 H594 0.961 . S
C581 C578 1.539 . S
C581 H595 0.958 1_556 S
C581 H596 0.961 . S
C581 H597 0.969 . S
H582 C566 0.931 . S
H583 C571 0.929 . S
H584 C572 0.961 . S
H585 C572 0.964 . S
H586 C572 0.957 1_554 S
H587 C573 0.961 . S
H588 C573 0.961 . S
H589 C573 0.961 . S
H590 C574 0.931 . S
H591 C579 0.930 . S
H592 C580 0.956 . S
H593 C580 0.961 . S
H594 C580 0.961 . S
H595 C581 0.958 1_554 S
H596 C581 0.961 . S
H597 C581 0.969 . S
C598 C599 1.391 . S
C598 C600 1.394 . S
C598 H614 0.931 . S
C599 C598 1.391 . S
C599 C603 1.376 1_455 S
C600 C598 1.394 . S
C600 C601 1.369 . S
C600 C604 1.531 . S
C601 C600 1.369 . S
C601 C602 1.410 1_455 S
C601 C609 1.503 . S
C602 C601 1.410 1_655 S
C602 C603 1.392 . S
C602 C605 1.511 . S
C603 C599 1.376 1_655 S
C603 C602 1.392 . S
C603 H615 0.929 . S
C604 C600 1.531 . S
C604 H616 0.960 . S
C604 H617 0.962 . S
C604 H618 0.960 . S
C605 C602 1.511 . S
C605 H619 0.961 . S
C605 H620 0.961 . S
C605 H621 0.961 . S
C606 C607 1.370 . S
C606 C608 1.363 . S
C606 H622 0.931 1_455 S
C607 C606 1.370 . S
C607 C611 1.408 . S
C608 C606 1.363 . S
C608 C609 1.370 . S
C608 C612 1.524 1_455 S
C609 C601 1.503 . S
C609 C608 1.370 . S
C609 C610 1.403 . S
C610 C609 1.403 . S
C610 C611 1.404 . S
C610 C613 1.539 . S
C611 C607 1.408 . S
C611 C610 1.404 . S
C611 H623 0.930 . S
C612 C608 1.524 1_655 S
C612 H624 0.956 1_655 S
C612 H625 0.961 . S
C612 H626 0.961 . S
C613 C610 1.539 . S
C613 H627 0.958 . S
C613 H628 0.961 . S
C613 H629 0.960 . S
H614 C598 0.931 . S
H615 C603 0.929 . S
H616 C604 0.960 . S
H617 C604 0.962 . S
H618 C604 0.960 . S
H619 C605 0.961 . S
H620 C605 0.961 . S
H621 C605 0.961 . S
H622 C606 0.931 1_655 S
H623 C611 0.930 . S
H624 C612 0.956 1_455 S
H625 C612 0.961 . S
H626 C612 0.961 . S
H627 C613 0.958 . S
H628 C613 0.961 . S
H629 C613 0.960 . S
C255 C116 1.479 . S
C247 C14 1.402 . S
C279 C40 1.475 . S
C287 C155 1.504 . S
C311 C76 1.483 . S
C319 C222 1.485 . S
C343 C3 1.462 . S
C351 C123 1.465 . S
C383 C176 1.501 . S
C375 C38 1.494 . S
C407 C74 1.474 . S
C415 C201 1.476 . S
C447 C162 1.454 . S
C439 C86 1.434 . S
C471 C2 1.472 1_565 S
C479 C215 1.479 . S
C511 C130 1.463 . S
C503 C39 1.460 . S
C543 C169 1.467 . S
C535 C75 1.467 . S
C575 C208 1.482 . S
C567 C4 1.480 . S
C599 C50 1.456 . S
C607 C109 1.478 . S
