# Generated by pormake.
# Topology zzz, (3,6)-cn, num edge types: 1
# Building blocks:
#     Node 0, Type 0, BuildingBlock: BELTOD_clean_linker_0, # of connection points: 3
#     Node 1, Type 0, BuildingBlock: BELTOD_clean_linker_0, # of connection points: 3
#     Node 2, Type 0, BuildingBlock: BELTOD_clean_linker_0, # of connection points: 3
#     Node 3, Type 0, BuildingBlock: BELTOD_clean_linker_0, # of connection points: 3
#     Node 4, Type 0, BuildingBlock: BELTOD_clean_linker_0, # of connection points: 3
#     Node 5, Type 0, BuildingBlock: BELTOD_clean_linker_0, # of connection points: 3
#     Node 6, Type 0, BuildingBlock: BELTOD_clean_linker_0, # of connection points: 3
#     Node 7, Type 0, BuildingBlock: BELTOD_clean_linker_0, # of connection points: 3
#     Node 8, Type 1, BuildingBlock: KUMBOL_clean_sbu_0, # of connection points: 6
#     Node 9, Type 1, BuildingBlock: KUMBOL_clean_sbu_0, # of connection points: 6
#     Node 10, Type 1, BuildingBlock: KUMBOL_clean_sbu_0, # of connection points: 6
#     Node 11, Type 1, BuildingBlock: KUMBOL_clean_sbu_0, # of connection points: 6
#     Edge 12, Type (0, 1), BuildingBlock: EZIPEK_clean_linker_0, # of connection points: 2
#     Edge 13, Type (0, 1), BuildingBlock: EZIPEK_clean_linker_0, # of connection points: 2
#     Edge 14, Type (0, 1), BuildingBlock: EZIPEK_clean_linker_0, # of connection points: 2
#     Edge 15, Type (0, 1), BuildingBlock: EZIPEK_clean_linker_0, # of connection points: 2
#     Edge 16, Type (0, 1), BuildingBlock: EZIPEK_clean_linker_0, # of connection points: 2
#     Edge 17, Type (0, 1), BuildingBlock: EZIPEK_clean_linker_0, # of connection points: 2
#     Edge 18, Type (0, 1), BuildingBlock: EZIPEK_clean_linker_0, # of connection points: 2
#     Edge 19, Type (0, 1), BuildingBlock: EZIPEK_clean_linker_0, # of connection points: 2
#     Edge 20, Type (0, 1), BuildingBlock: EZIPEK_clean_linker_0, # of connection points: 2
#     Edge 21, Type (0, 1), BuildingBlock: EZIPEK_clean_linker_0, # of connection points: 2
#     Edge 22, Type (0, 1), BuildingBlock: EZIPEK_clean_linker_0, # of connection points: 2
#     Edge 23, Type (0, 1), BuildingBlock: EZIPEK_clean_linker_0, # of connection points: 2
#     Edge 24, Type (0, 1), BuildingBlock: EZIPEK_clean_linker_0, # of connection points: 2
#     Edge 25, Type (0, 1), BuildingBlock: EZIPEK_clean_linker_0, # of connection points: 2
#     Edge 26, Type (0, 1), BuildingBlock: EZIPEK_clean_linker_0, # of connection points: 2
#     Edge 27, Type (0, 1), BuildingBlock: EZIPEK_clean_linker_0, # of connection points: 2
#     Edge 28, Type (0, 1), BuildingBlock: EZIPEK_clean_linker_0, # of connection points: 2
#     Edge 29, Type (0, 1), BuildingBlock: EZIPEK_clean_linker_0, # of connection points: 2
#     Edge 30, Type (0, 1), BuildingBlock: EZIPEK_clean_linker_0, # of connection points: 2
#     Edge 31, Type (0, 1), BuildingBlock: EZIPEK_clean_linker_0, # of connection points: 2
#     Edge 32, Type (0, 1), BuildingBlock: EZIPEK_clean_linker_0, # of connection points: 2
#     Edge 33, Type (0, 1), BuildingBlock: EZIPEK_clean_linker_0, # of connection points: 2
#     Edge 34, Type (0, 1), BuildingBlock: EZIPEK_clean_linker_0, # of connection points: 2
#     Edge 35, Type (0, 1), BuildingBlock: EZIPEK_clean_linker_0, # of connection points: 2
# Relax obj value: 0.332
# Max RMSD: 0.213
# Mean RMSD: 0.205
data_MOF--net-zzz--node1-KUMBOL_clean_sbu_0--node2-BELTOD_clean_linker_0--edge1-EZIPEK_clean_linker_0
_symmetry_space_group_name_H-M    P1
_symmetry_Int_Tables_number       1
_symmetry_cell_setting            triclinic
loop_
_symmetry_equiv_pos_as_xyz
'x, y, z'
_cell_length_a     40.728028
_cell_length_b     40.829447
_cell_length_c     14.374864
_cell_angle_alpha  90.68688
_cell_angle_beta   90.023927
_cell_angle_gamma 89.922394
loop_
_atom_site_label
_atom_site_type_symbol
_atom_site_fract_x
_atom_site_fract_y
_atom_site_fract_z
_atom_type_partial_charge
P0 P 0.72361 0.52851 0.32215 0.0
H1 H 0.74761 0.49702 0.49278 0.0
H2 H 0.80148 0.50185 0.56482 0.0
H3 H 0.81469 0.59601 0.4392 0.0
H4 H 0.76033 0.59132 0.36593 0.0
H5 H 0.66807 0.48449 0.2822 0.0
H6 H 0.62556 0.48708 0.16425 0.0
H7 H 0.64272 0.59033 0.13437 0.0
H8 H 0.68475 0.58835 0.25759 0.0
H9 H 0.77471 0.49001 0.23494 0.0
H10 H 0.73499 0.58769 0.20856 0.0
O11 O 0.72444 0.48786 0.33448 0.0
H12 H 0.81857 0.50421 0.12961 0.0
H13 H 0.77808 0.60117 0.09817 0.0
C14 C 0.74957 0.54311 0.41952 0.0
C15 C 0.7612 0.51942 0.48231 0.0
C16 C 0.79253 0.52189 0.52305 0.0
C17 C 0.81318 0.54851 0.50422 0.0
C18 C 0.79986 0.5746 0.45274 0.0
C19 C 0.76837 0.57201 0.41145 0.0
C20 C 0.68186 0.53588 0.2765 0.0
C21 C 0.66275 0.50814 0.25272 0.0
C22 C 0.63835 0.50937 0.18382 0.0
C23 C 0.63189 0.53847 0.13653 0.0
C24 C 0.6481 0.56718 0.1671 0.0
C25 C 0.67239 0.56598 0.2375 0.0
C26 C 0.75038 0.53712 0.22683 0.0
C27 C 0.77438 0.514 0.20377 0.0
C28 C 0.79962 0.52222 0.14417 0.0
C29 C 0.80117 0.55366 0.10591 0.0
C30 C 0.77689 0.57673 0.12652 0.0
C31 C 0.75177 0.5686 0.18787 0.0
P32 P 0.99482 0.72778 0.33273 0.0
H33 H 0.01874 0.75057 0.51683 0.0
H34 H 0.01676 0.80542 0.58495 0.0
H35 H 0.93363 0.82893 0.41384 0.0
H36 H 0.93539 0.77379 0.34472 0.0
H37 H 0.04166 0.6776 0.27168 0.0
H38 H 0.03957 0.63567 0.15237 0.0
H39 H 0.93425 0.64355 0.14317 0.0
H40 H 0.93614 0.68681 0.26493 0.0
H41 H 0.04065 0.76892 0.23263 0.0
H42 H 0.93908 0.73934 0.2082 0.0
O43 O 0.0347 0.72764 0.36022 0.0
H44 H 0.03312 0.80601 0.10349 0.0
H45 H 0.93143 0.77746 0.07995 0.0
C46 C 0.97829 0.75735 0.42092 0.0
C47 C 0.99911 0.76668 0.4953 0.0
C48 C 0.99812 0.79852 0.5348 0.0
C49 C 0.97547 0.82214 0.50409 0.0
C50 C 0.95174 0.81167 0.43874 0.0
C51 C 0.95287 0.7797 0.39876 0.0
C52 C 0.98904 0.68645 0.2797 0.0
C53 C 0.01763 0.67017 0.24761 0.0
C54 C 0.01664 0.64601 0.17727 0.0
C55 C 0.98693 0.63644 0.13572 0.0
C56 C 0.95777 0.65058 0.17221 0.0
C57 C 0.95882 0.67529 0.24296 0.0
C58 C 0.99055 0.75122 0.22956 0.0
C59 C 0.01698 0.76979 0.19852 0.0
C60 C 0.01266 0.7909 0.12493 0.0
C61 C 0.98171 0.79415 0.0829 0.0
C62 C 0.95546 0.77482 0.11133 0.0
C63 C 0.96 0.7531 0.18413 0.0
P64 P 0.79106 0.99885 0.3343 0.0
H65 H 0.77691 0.025 0.5232 0.0
H66 H 0.72377 0.0276 0.60246 0.0
H67 H 0.68857 0.94772 0.43219 0.0
H68 H 0.74228 0.94314 0.35871 0.0
H69 H 0.8504 0.04003 0.31691 0.0
H70 H 0.89237 0.03902 0.19663 0.0
H71 H 0.86744 0.93914 0.129 0.0
H72 H 0.82749 0.93902 0.25652 0.0
H73 H 0.75012 0.04146 0.22147 0.0
H74 H 0.77572 0.93869 0.2258 0.0
O75 O 0.79098 0.03946 0.35046 0.0
H76 H 0.71124 0.03015 0.09717 0.0
H77 H 0.7374 0.92781 0.09917 0.0
C78 C 0.76394 0.98513 0.42967 0.0
C79 C 0.75859 0.00678 0.50546 0.0
C80 C 0.72779 0.00859 0.55051 0.0
C81 C 0.70131 0.9888 0.52113 0.0
C82 C 0.70803 0.964 0.45502 0.0
C83 C 0.73915 0.96161 0.41209 0.0
C84 C 0.8333 0.99027 0.29313 0.0
C85 C 0.85431 0.01728 0.27917 0.0
C86 C 0.87836 0.01695 0.20878 0.0
C87 C 0.88213 0.98969 0.14893 0.0
C88 C 0.86437 0.96114 0.17095 0.0
C89 C 0.84101 0.9612 0.24382 0.0
C90 C 0.76669 0.99117 0.23207 0.0
C91 C 0.74833 0.0167 0.19432 0.0
C92 C 0.72609 0.01025 0.12333 0.0
C93 C 0.7218 0.97817 0.08923 0.0
C94 C 0.74083 0.95271 0.12414 0.0
C95 C 0.76316 0.9592 0.19544 0.0
P96 P 0.53675 0.80086 0.33895 0.0
H97 H 0.50569 0.78426 0.51814 0.0
H98 H 0.50681 0.73296 0.60403 0.0
H99 H 0.5954 0.70458 0.46169 0.0
H100 H 0.59575 0.75656 0.38066 0.0
H101 H 0.49683 0.86079 0.32903 0.0
H102 H 0.49782 0.90271 0.21052 0.0
H103 H 0.59757 0.87693 0.14262 0.0
H104 H 0.59636 0.83369 0.26023 0.0
H105 H 0.49367 0.78216 0.18573 0.0
H106 H 0.59736 0.77605 0.24331 0.0
O107 O 0.49593 0.80102 0.35118 0.0
H108 H 0.49951 0.74069 0.06599 0.0
H109 H 0.60249 0.73075 0.13075 0.0
C110 C 0.54947 0.77435 0.43663 0.0
C111 C 0.52627 0.76787 0.50715 0.0
C112 C 0.52675 0.73822 0.5567 0.0
C113 C 0.55065 0.71414 0.53791 0.0
C114 C 0.57623 0.72228 0.47666 0.0
C115 C 0.57603 0.75222 0.42846 0.0
C116 C 0.5462 0.84276 0.30313 0.0
C117 C 0.51949 0.86435 0.29125 0.0
C118 C 0.51978 0.88831 0.222 0.0
C119 C 0.54724 0.8923 0.1642 0.0
C120 C 0.57562 0.87378 0.18402 0.0
C121 C 0.57511 0.84933 0.25278 0.0
C122 C 0.54422 0.77884 0.23193 0.0
C123 C 0.51779 0.77189 0.1731 0.0
C124 C 0.52139 0.74871 0.10265 0.0
C125 C 0.55099 0.73111 0.09423 0.0
C126 C 0.57909 0.74307 0.13915 0.0
C127 C 0.57574 0.76774 0.20671 0.0
P128 P 0.30543 0.42935 0.05067 0.0
H129 H 0.27766 0.40879 0.86961 0.0
H130 H 0.2271 0.42447 0.78956 0.0
H131 H 0.21726 0.5081 0.97271 0.0
H132 H 0.26831 0.49263 0.05215 0.0
H133 H 0.37207 0.40596 0.09055 0.0
H134 H 0.41134 0.42137 0.21191 0.0
H135 H 0.35631 0.5095 0.26821 0.0
H136 H 0.31663 0.49403 0.1461 0.0
H137 H 0.23657 0.40782 0.05723 0.0
H138 H 0.31383 0.42541 0.25743 0.0
O139 O 0.31823 0.39438 1.00143 0.0
H140 H 0.19633 0.42711 0.16995 0.0
H141 H 0.2734 0.44514 0.36964 0.0
C142 C 0.2777 0.44961 0.96742 0.0
C143 C 0.26561 0.4313 0.89082 0.0
C144 C 0.23613 0.43994 0.84568 0.0
C145 C 0.2175 0.46712 0.87591 0.0
C146 C 0.23067 0.48676 0.94822 0.0
C147 C 0.2603 0.47815 0.9931 0.0
C148 C 0.34115 0.44893 0.1067 0.0
C149 C 0.36885 0.42931 0.1258 0.0
C150 C 0.3912 0.43784 0.19673 0.0
C151 C 0.38662 0.4663 0.25113 0.0
C152 C 0.36035 0.48724 0.22807 0.0
C153 C 0.33791 0.47868 0.15671 0.0
C154 C 0.27843 0.41892 0.14536 0.0
C155 C 0.24494 0.41459 0.12626 0.0
C156 C 0.22183 0.42535 0.19098 0.0
C157 C 0.23237 0.43912 0.27558 0.0
C158 C 0.26512 0.4355 0.30315 0.0
C159 C 0.28822 0.42477 0.23796 0.0
P160 P 0.08058 0.29661 0.03463 0.0
H161 H 0.10235 0.2646 0.86038 0.0
H162 H 0.08765 0.21306 0.78318 0.0
H163 H 1.0042 0.20387 0.96446 0.0
H164 H 0.01942 0.25561 0.04393 0.0
H165 H 0.11258 0.35328 0.11618 0.0
H166 H 0.09616 0.39462 0.23058 0.0
H167 H 0.99566 0.36316 0.20644 0.0
H168 H 0.01241 0.3207 0.09088 0.0
H169 H 0.12991 0.24468 0.05339 0.0
H170 H 0.05541 0.29065 0.22486 0.0
O171 O 0.115 0.30867 0.98212 0.0
H172 H 0.12708 0.19576 0.151 0.0
H173 H 0.05162 0.24228 0.31662 0.0
C174 C 0.06151 0.26539 0.95718 0.0
C175 C 0.08022 0.25234 0.88258 0.0
C176 C 0.07218 0.2222 0.83904 0.0
C177 C 0.04514 0.20355 0.8685 0.0
C178 C 0.02552 0.21714 0.94053 0.0
C179 C 0.03379 0.24729 0.98487 0.0
C180 C 0.06384 0.33377 0.09221 0.0
C181 C 0.08672 0.35568 0.13228 0.0
C182 C 0.0774 0.37928 0.1992 0.0
C183 C 0.04471 0.3821 0.22916 0.0
C184 C 0.02114 0.36157 0.18548 0.0
C185 C 0.03063 0.33752 0.11818 0.0
C186 C 0.09219 0.27106 0.12977 0.0
C187 C 0.11423 0.24504 0.11423 0.0
C188 C 0.11256 0.21711 0.16955 0.0
C189 C 0.08794 0.21501 0.23746 0.0
C190 C 0.07017 0.24313 0.26263 0.0
C191 C 0.0723 0.27099 0.20919 0.0
P192 P 0.24396 0.10294 0.05395 0.0
H193 H 0.28772 0.13224 0.91862 0.0
H194 H 0.33551 0.11073 0.83666 0.0
H195 H 0.30229 0.01234 0.88686 0.0
H196 H 0.25612 0.03427 0.9796 0.0
H197 H 0.17896 0.1304 0.09979 0.0
H198 H 0.13697 0.11541 0.21216 0.0
H199 H 0.18812 0.02505 0.2649 0.0
H200 H 0.23027 0.04007 0.15046 0.0
H201 H 0.31492 0.08686 0.07195 0.0
H202 H 0.23722 0.12367 0.25028 0.0
O203 O 0.23491 0.14137 0.02485 0.0
H204 H 0.3427 0.06542 0.20342 0.0
H205 H 0.26677 0.10253 0.38591 0.0
C206 C 0.26758 0.08512 0.95584 0.0
C207 C 0.28981 0.10595 0.90986 0.0
C208 C 0.31764 0.09355 0.86303 0.0
C209 C 0.32359 0.05963 0.85568 0.0
C210 C 0.29911 0.03863 0.8921 0.0
C211 C 0.27214 0.05114 0.94404 0.0
C212 C 0.20756 0.08585 0.11206 0.0
C213 C 0.18092 0.10681 0.13282 0.0
C214 C 0.15706 0.09852 0.19945 0.0
C215 C 0.15866 0.06885 0.24849 0.0
C216 C 0.18544 0.04784 0.22786 0.0
C217 C 0.20934 0.0561 0.16059 0.0
C218 C 0.27242 0.10474 0.14965 0.0
C219 C 0.30379 0.09118 0.13893 0.0
C220 C 0.32008 0.07889 0.21515 0.0
C221 C 0.30578 0.08081 0.30376 0.0
C222 C 0.27744 0.09975 0.31728 0.0
C223 C 0.2608 0.11192 0.23988 0.0
P224 P 0.42255 0.22826 0.04034 0.0
H225 H 0.39436 0.26476 0.88602 0.0
H226 H 0.41295 0.31458 0.80961 0.0
H227 H 0.51038 0.29911 0.91594 0.0
H228 H 0.49121 0.2512 1.00037 0.0
H229 H 0.39405 0.17563 0.14636 0.0
H230 H 0.41693 0.13538 0.25294 0.0
H231 H 0.51466 0.16157 0.16737 0.0
H232 H 0.49177 0.20185 0.05969 0.0
H233 H 0.38608 0.29015 0.05328 0.0
H234 H 0.4491 0.23327 0.23183 0.0
O235 O 0.38513 0.21746 1.00396 0.0
H236 H 0.40305 0.34007 0.13611 0.0
H237 H 0.46472 0.28252 0.31499 0.0
C238 C 0.44125 0.25324 0.94923 0.0
C239 C 0.42008 0.27119 0.89103 0.0
C240 C 0.43057 0.30008 0.8478 0.0
C241 C 0.46283 0.31143 0.85968 0.0
C242 C 0.48511 0.2914 0.90772 0.0
C243 C 0.47428 0.26318 0.95423 0.0
C244 C 0.44093 0.192 0.09333 0.0
C245 C 0.42042 0.17223 0.14792 0.0
C246 C 0.4335 0.14944 0.21009 0.0
C247 C 0.46759 0.14577 0.21998 0.0
C248 C 0.48827 0.16422 0.16211 0.0
C249 C 0.47509 0.18721 0.09974 0.0
C250 C 0.41773 0.25814 0.13257 0.0
C251 C 0.40208 0.288 0.11302 0.0
C252 C 0.41146 0.31653 0.16077 0.0
C253 C 0.43595 0.31478 0.22905 0.0
C254 C 0.4462 0.28419 0.26108 0.0
C255 C 0.43737 0.25592 0.21246 0.0
Gd256 Gd 0.97705 0.02622 0.59334 0.0
Gd257 Gd 0.04455 1.00403 0.74108 0.0
C258 C 0.07883 0.0642 0.98615 0.0
C259 C 0.1378 0.05859 0.97074 0.0
C260 C 0.10212 0.04042 0.84522 0.0
C261 C 0.07473 0.04919 0.89826 0.0
C262 C 0.13396 0.04592 0.88059 0.0
C263 C 0.11028 0.06776 0.02304 0.0
C264 C 0.05118 0.07495 0.03525 0.0
C265 C 0.02029 0.07138 0.99525 0.0
N266 N 0.04422 0.04316 0.86393 0.0
C267 C 0.01722 0.05552 0.90929 0.0
H268 H 0.99301 0.05344 0.88072 0.0
C269 C 0.12433 0.01805 0.70608 0.0
N270 N 0.09762 0.02638 0.75984 0.0
C271 C 0.15621 0.0242 0.73734 0.0
C272 C 0.1611 0.03777 0.82552 0.0
H273 H 0.12163 1.00435 0.6418 0.0
H274 H 0.11307 0.07764 0.09204 0.0
H275 H 0.02014 0.98865 0.42345 0.0
H276 H 0.05353 0.08654 0.10313 0.0
H277 H 0.99862 0.08014 0.03124 0.0
H278 H 0.16199 0.06126 0.99998 0.0
H279 H 0.9019 0.03792 0.68775 0.0
H280 H 0.9612 0.91351 0.30257 0.0
H281 H 0.0132 0.94449 0.30863 0.0
H282 H 0.85851 0.92512 0.45967 0.0
H283 H 0.17706 0.01709 0.69498 0.0
H284 H 0.18591 0.04153 0.85082 0.0
H285 H 0.90365 0.90656 0.35864 0.0
H286 H 0.84693 0.01308 0.68009 0.0
N287 N 0.97351 0.98224 0.48645 0.0
C288 C 0.96427 0.93288 0.35373 0.0
C289 C 0.99364 0.95025 0.35713 0.0
C290 C 0.93884 0.94131 0.4147 0.0
C291 C 0.94416 0.96656 0.48106 0.0
C292 C 0.99772 0.97513 0.42363 0.0
N293 N 0.92429 1.00198 0.59931 0.0
C294 C 0.91885 0.97669 0.53905 0.0
C295 C 0.86702 1.00223 0.64118 0.0
C296 C 0.8616 0.97497 0.58407 0.0
C297 C 0.89836 0.01598 0.64613 0.0
C298 C 0.88745 0.96224 0.53073 0.0
H299 H 0.83714 0.9647 0.57906 0.0
O300 O 0.94138 0.06446 0.56709 0.0
O301 O 0.02078 0.04844 0.67175 0.0
O302 O 0.99862 0.9974 0.82964 0.0
O303 O 0.95479 0.01152 0.73344 0.0
O304 O 0.97528 0.06902 0.69316 0.0
O305 O 0.97005 0.04413 0.45359 0.0
O306 O 0.08223 0.96643 0.7397 0.0
O307 O 1.00562 0.98462 0.64534 0.0
O308 O 0.02467 0.03779 0.51159 0.0
O309 O 0.06791 0.01857 0.60245 0.0
O310 O 0.03549 0.95063 0.6997 0.0
O311 O 0.0587 0.98168 0.87014 0.0
C312 C 1.00615 0.07342 0.70844 0.0
C313 C 0.88242 0.93649 0.4668 0.0
C314 C 0.90809 0.92597 0.40914 0.0
C315 C 0.94864 0.06619 0.47934 0.0
C316 C 0.95318 0.0992 0.44357 0.0
C317 C 0.92599 0.12016 0.43615 0.0
C318 C 0.98439 0.1102 0.41793 0.0
C319 C 0.98824 0.14167 0.38298 0.0
C320 C 0.92998 0.15184 0.40247 0.0
C321 C 0.96102 0.16258 0.37534 0.0
C322 C 0.96676 1.00197 0.81477 0.0
C323 C 0.01041 0.95367 0.64733 0.0
C324 C 0.08026 0.96234 0.82971 0.0
C325 C 0.08061 0.92864 0.86177 0.0
C326 C 0.11057 0.91341 0.88235 0.0
C327 C 0.0511 0.9122 0.877 0.0
C328 C 0.05139 0.88102 0.91493 0.0
C329 C 0.11088 0.88185 0.91885 0.0
C330 C 0.08132 0.86567 0.93555 0.0
C331 C 0.05654 0.0316 0.52461 0.0
H332 H 0.90175 0.11198 0.45632 0.0
H333 H 1.00559 0.09424 0.42301 0.0
H334 H 0.90896 0.16792 0.39635 0.0
H335 H 0.96378 0.1869 0.34707 0.0
H336 H 0.13358 0.92609 0.87148 0.0
H337 H 0.02791 0.92403 0.86278 0.0
H338 H 0.13397 0.87017 0.93561 0.0
H339 H 0.0817 0.84152 0.96603 0.0
Gd340 Gd 0.50409 0.9815 0.61699 0.0
Gd341 Gd 0.518 0.05597 0.7532 0.0
C342 C 0.43145 0.09381 0.92748 0.0
C343 C 0.42352 0.14849 0.86745 0.0
C344 C 0.4652 0.11246 0.79999 0.0
C345 C 0.45642 0.08802 0.86092 0.0
C346 C 0.44953 0.14339 0.80502 0.0
C347 C 0.41451 0.12375 0.92865 0.0
C348 C 0.42515 0.06994 0.99377 0.0
C349 C 0.44359 0.04122 0.99317 0.0
N350 N 0.47368 0.05948 0.85958 0.0
C351 C 0.4674 0.03617 0.92464 0.0
H352 H 0.47936 0.01284 0.92222 0.0
C353 C 0.50553 0.13344 0.69995 0.0
N354 N 0.49134 0.10733 0.7431 0.0
C355 C 0.49048 0.16418 0.70048 0.0
C356 C 0.46187 0.16903 0.7518 0.0
H357 H 0.52916 0.13085 0.66756 0.0
H358 H 0.39516 0.12842 0.97885 0.0
H359 H 0.54487 0.01528 0.43043 0.0
H360 H 0.40644 0.07361 0.04648 0.0
H361 H 0.43883 0.02241 0.04381 0.0
H362 H 0.41114 0.17196 0.87162 0.0
H363 H 0.4873 0.91142 0.72392 0.0
H364 H 0.61924 0.94937 0.34228 0.0
H365 H 0.59002 1.00192 0.32792 0.0
H366 H 0.59947 0.85386 0.52044 0.0
H367 H 0.5016 0.18437 0.66398 0.0
H368 H 0.45071 0.19314 0.75445 0.0
H369 H 0.62234 0.89432 0.41369 0.0
H370 H 0.50755 0.8545 0.72701 0.0
N371 N 0.54894 0.97211 0.51357 0.0
C372 C 0.59962 0.95541 0.39042 0.0
C373 C 0.58313 0.98499 0.38191 0.0
C374 C 0.58939 0.93321 0.45752 0.0
C375 C 0.56381 0.94234 0.51941 0.0
C376 C 0.55728 0.99258 0.44226 0.0
N377 N 0.52584 0.92845 0.63675 0.0
C378 C 0.5516 0.91975 0.5817 0.0
C379 C 0.52047 0.87267 0.6869 0.0
C380 C 0.54816 0.86386 0.63548 0.0
C381 C 0.50925 0.905 0.68539 0.0
C382 C 0.56377 0.88728 0.58087 0.0
H383 H 0.55654 0.83866 0.63569 0.0
O384 O 0.46367 0.94796 0.59329 0.0
O385 O 0.47907 0.02461 0.68698 0.0
O386 O 0.52992 0.01175 0.84467 0.0
O387 O 0.51978 0.96376 0.76176 0.0
O388 O 0.4563 0.97998 0.69704 0.0
O389 O 0.48754 0.97064 0.47602 0.0
O390 O 0.55747 0.09102 0.77071 0.0
O391 O 0.54312 0.01312 0.68141 0.0
O392 O 0.50207 0.02685 0.52405 0.0
O393 O 0.50191 0.07479 0.61245 0.0
O394 O 0.56358 0.05875 0.66354 0.0
O395 O 0.53421 0.06991 0.89138 0.0
C396 C 0.45362 0.01043 0.71972 0.0
C397 C 0.58987 0.87862 0.52179 0.0
C398 C 0.60284 0.90163 0.46087 0.0
C399 C 0.46491 0.95037 0.50334 0.0
C400 C 0.43342 0.95035 0.45419 0.0
C401 C 0.42592 0.92366 0.39579 0.0
C402 C 0.41083 0.97605 0.46472 0.0
C403 C 0.38143 0.97583 0.41311 0.0
C404 C 0.39639 0.92289 0.34659 0.0
C405 C 0.37439 0.94901 0.35417 0.0
C406 C 0.52859 0.97926 0.83997 0.0
C407 C 0.56724 0.02807 0.6438 0.0
C408 C 0.55774 0.08849 0.86077 0.0
C409 C 0.58995 0.08307 0.90152 0.0
C410 C 0.60759 0.10958 0.93876 0.0
C411 C 0.6034 0.05152 0.9023 0.0
C412 C 0.63407 0.04634 0.94262 0.0
C413 C 0.63856 0.10449 0.97758 0.0
C414 C 0.65177 0.07295 0.97979 0.0
C415 C 0.50049 0.05934 0.5309 0.0
H416 H 0.44304 0.90346 0.38785 0.0
H417 H 0.4167 0.99677 0.50962 0.0
H418 H 0.39086 0.90233 0.30102 0.0
H419 H 0.35225 0.94866 0.31239 0.0
H420 H 0.59742 0.13411 0.93777 0.0
H421 H 0.58986 0.03101 0.87371 0.0
H422 H 0.65222 0.12492 1.00653 0.0
H423 H 0.67562 0.06923 0.01128 0.0
Gd424 Gd 0.47616 0.52452 0.74791 0.0
Gd425 Gd 0.54517 0.49672 0.62001 0.0
C426 C 0.63915 0.45068 0.73778 0.0
C427 C 0.68073 0.47506 0.63968 0.0
C428 C 0.62374 0.49265 0.62879 0.0
C429 C 0.61476 0.46994 0.69458 0.0
C430 C 0.65694 0.49601 0.60236 0.0
C431 C 0.67185 0.45244 0.70741 0.0
C432 C 0.6304 0.43151 0.81349 0.0
C433 C 0.59862 0.43355 0.84834 0.0
N434 N 0.58289 0.46931 0.72311 0.0
C435 C 0.5754 0.4531 0.8038 0.0
H436 H 0.55147 0.45451 0.83514 0.0
C437 C 0.60871 0.53762 0.53598 0.0
N438 N 0.60026 0.51298 0.59541 0.0
C439 C 0.64125 0.54192 0.50822 0.0
C440 C 0.66542 0.52083 0.54082 0.0
H441 H 0.59033 0.5533 0.50565 0.0
H442 H 0.69069 0.43734 0.73853 0.0
H443 H 0.46956 0.57553 0.56524 0.0
H444 H 0.64838 0.41645 0.84852 0.0
H445 H 0.59193 0.42013 0.91 0.0
H446 H 0.70623 0.47692 0.61901 0.0
H447 H 0.43695 0.47033 0.8859 0.0
H448 H 0.37199 0.57068 0.46057 0.0
H449 H 0.42781 0.59416 0.45611 0.0
H450 H 0.31967 0.49316 0.65729 0.0
H451 H 0.64756 0.56117 0.46031 0.0
H452 H 0.69059 0.52424 0.51936 0.0
H453 H 0.33192 0.53333 0.53647 0.0
H454 H 0.38223 0.44645 0.90354 0.0
N455 N 0.43912 0.5401 0.62968 0.0
C456 C 0.39058 0.56187 0.50807 0.0
C457 C 0.42198 0.57524 0.50554 0.0
C458 C 0.38334 0.5378 0.57322 0.0
C459 C 0.40849 0.52702 0.63346 0.0
C460 C 0.4458 0.56444 0.56801 0.0
N461 N 0.42623 0.49447 0.75861 0.0
C462 C 0.40181 0.50368 0.69997 0.0
C463 C 0.38749 0.46189 0.84467 0.0
C464 C 0.3627 0.47003 0.78254 0.0
C465 C 0.41888 0.47486 0.83282 0.0
C466 C 0.3695 0.49147 0.70997 0.0
H467 H 0.33815 0.46056 0.79317 0.0
O468 O 0.45289 0.5303 0.88133 0.0
O469 O 0.53201 0.52521 0.75067 0.0
O470 O 0.52607 0.45061 0.68703 0.0
O471 O 0.47824 0.46811 0.75994 0.0
O472 O 0.50857 0.50927 0.86752 0.0
O473 O 0.45601 0.57203 0.79146 0.0
O474 O 0.54665 0.51132 0.47508 0.0
O475 O 0.49164 0.51059 0.60511 0.0
O476 O 0.50181 0.57195 0.70241 0.0
O477 O 0.54682 0.55301 0.61742 0.0
O478 O 0.50503 0.46544 0.55393 0.0
O479 O 0.5704 0.46643 0.51801 0.0
C480 C 0.53694 0.51722 0.8351 0.0
C481 C 0.34457 0.5021 0.65004 0.0
C482 C 0.35152 0.52504 0.58148 0.0
C483 C 0.44497 0.56068 0.86982 0.0
C484 C 0.44594 0.58102 0.95436 0.0
C485 C 0.42906 0.57001 0.03267 0.0
C486 C 0.46513 0.60937 0.9604 0.0
C487 C 0.46825 0.62711 0.04496 0.0
C488 C 0.43317 0.58578 0.11767 0.0
C489 C 0.45331 0.61318 0.12468 0.0
C490 C 0.4994 0.44448 0.73651 0.0
C491 C 0.48088 0.4857 0.55995 0.0
C492 C 0.56241 0.48508 0.44841 0.0
C493 C 0.55049 0.46856 0.3636 0.0
C494 C 0.55545 0.48317 0.27734 0.0
C495 C 0.53511 0.43796 0.36807 0.0
C496 C 0.524 0.42166 0.28721 0.0
C497 C 0.5442 0.46782 0.1964 0.0
C498 C 0.52809 0.43773 0.20127 0.0
C499 C 0.52798 0.57725 0.64914 0.0
H500 H 0.41408 0.5481 0.02911 0.0
H501 H 0.47983 0.6154 0.90055 0.0
H502 H 0.42165 0.57603 0.17929 0.0
H503 H 0.45764 0.62167 0.19455 0.0
H504 H 0.56804 0.5064 0.27295 0.0
H505 H 0.53299 0.4274 0.43525 0.0
H506 H 0.54788 0.47928 0.12968 0.0
H507 H 0.51905 0.42692 0.13704 0.0
Gd508 Gd 1.00157 0.48039 0.74003 0.0
Gd509 Gd 0.0307 0.54592 0.62582 0.0
C510 C 0.04604 0.64077 0.79106 0.0
C511 C 0.0141 0.67972 0.70266 0.0
C512 C 0.01366 0.62176 0.65885 0.0
C513 C 0.03544 0.61511 0.73121 0.0
C514 C 1.00324 0.65438 0.64364 0.0
C515 C 0.03525 0.67291 0.77638 0.0
C516 C 0.06755 0.63358 0.86381 0.0
C517 C 0.07833 0.60157 0.87557 0.0
N518 N 0.04645 0.58393 0.74315 0.0
C519 C 0.0678 0.57708 0.81409 0.0
H520 H 0.07627 0.55254 0.82585 0.0
C521 C 0.98437 0.60387 0.52535 0.0
N522 N 1.00337 0.59685 0.60206 0.0
C523 C 0.97348 0.63563 0.50841 0.0
C524 C 0.98283 0.66099 0.56796 0.0
H525 H 0.97782 0.58488 0.47556 0.0
H526 H 0.0434 0.6928 0.82125 0.0
H527 H 0.95967 0.47464 0.53058 0.0
H528 H 0.07603 0.6526 0.9112 0.0
H529 H 0.09488 0.5957 0.93191 0.0
H530 H 1.00644 0.7048 0.69144 0.0
H531 H 0.05542 0.43908 0.87731 0.0
H532 H 0.93475 0.37437 0.48779 0.0
H533 H 0.93087 0.4323 0.44129 0.0
H534 H 0.9959 0.31884 0.72195 0.0
H535 H 0.9584 0.6406 0.44816 0.0
H536 H 0.97473 0.68573 0.55372 0.0
H537 H 0.95863 0.33242 0.59362 0.0
H538 H 0.06598 0.38233 0.92093 0.0
N539 N 0.97929 0.44195 0.63098 0.0
C540 C 0.94748 0.39303 0.528 0.0
C541 C 0.94518 0.42567 0.50171 0.0
C542 C 0.96708 0.38473 0.60399 0.0
C543 C 0.98334 0.40995 0.65381 0.0
C544 C 0.96134 0.44983 0.55382 0.0
N545 N 0.02199 0.4269 0.76735 0.0
C546 C 1.00509 0.40222 0.72462 0.0
C547 C 0.04909 0.3875 0.8648 0.0
C548 C 0.0323 0.36206 0.82052 0.0
C549 C 0.04338 0.4198 0.83814 0.0
C550 C 0.01006 0.36918 0.74948 0.0
H551 H 0.03657 0.33705 0.84202 0.0
O552 O 1.00512 0.47319 0.88913 0.0
O553 O 0.01986 0.53215 0.7701 0.0
O554 O 0.07864 0.52399 0.67378 0.0
O555 O 0.05884 0.48039 0.75796 0.0
O556 O 0.97349 0.52124 0.81207 0.0
O557 O 0.96385 0.45321 0.81171 0.0
O558 O 0.03424 0.56202 0.48349 0.0
O559 O 0.02011 0.49339 0.59214 0.0
O560 O 0.95452 0.502 0.67824 0.0
O561 O 0.97465 0.54908 0.60954 0.0
O562 O 0.02034 0.49332 0.5917 0.0
O563 O 0.07753 0.56116 0.56919 0.0
C564 C 0.99534 0.54363 0.81467 0.0
C565 C 0.99266 0.34425 0.70301 0.0
C566 C 0.97134 0.35199 0.6302 0.0
C567 C 0.97753 0.45715 0.89321 0.0
C568 C 0.95554 0.46608 0.96965 0.0
C569 C 0.95853 0.4504 0.05549 0.0
C570 C 0.93117 0.48976 0.95726 0.0
C571 C 0.90997 0.49803 0.02969 0.0
C572 C 0.93721 0.45851 0.12838 0.0
C573 C 0.91302 0.48233 0.11576 0.0
C574 C 0.08403 0.49849 0.72739 0.0
C575 C 0.04189 0.47642 0.54413 0.0
C576 C 0.06545 0.56763 0.48763 0.0
C577 C 0.08447 0.55822 0.40552 0.0
C578 C 0.07384 0.56827 0.31736 0.0
C579 C 0.11308 0.53957 0.41375 0.0
C580 C 0.12954 0.52878 0.33399 0.0
C581 C 0.09083 0.55833 0.2377 0.0
C582 C 0.1184 0.53827 0.24572 0.0
C583 C 0.94997 0.52932 0.63058 0.0
H584 H 0.97712 0.43179 0.06577 0.0
H585 H 0.92763 0.50119 0.89077 0.0
H586 H 0.93948 0.44637 0.19463 0.0
H587 H 0.89672 0.48859 0.17287 0.0
H588 H 0.05222 0.58354 0.3103 0.0
H589 H 0.12211 0.53245 0.48158 0.0
H590 H 0.08248 0.56594 0.16979 0.0
H591 H 0.1312 0.5303 0.18337 0.0
C592 C 0.11583 0.02872 0.31264 0.0
C593 C 0.13209 0.05959 0.31907 0.0
C594 C 0.0944 0.07389 0.44967 0.0
C595 C 0.08141 0.04159 0.45072 0.0
N596 N 0.08744 0.98601 0.39529 0.0
N597 N 0.13819 0.10997 0.41042 0.0
C598 C 0.09443 0.01838 0.38577 0.0
C599 C 0.12183 0.0816 0.39182 0.0
N600 N 0.1192 0.00971 0.23438 0.0
N601 N 0.0813 0.09753 0.50622 0.0
H602 H 0.15988 0.11693 0.37758 0.0
H603 H 0.15988 0.11693 0.37758 0.0
H604 H 0.05972 0.09393 0.54373 0.0
H605 H 0.091 0.12113 0.51066 0.0
H606 H 0.10549 0.98851 0.22278 0.0
H607 H 0.13255 0.01705 0.17643 0.0
H608 H 0.09871 0.96761 0.35576 0.0
H609 H 0.07318 0.97758 0.44967 0.0
C610 C 0.47674 0.08838 0.28099 0.0
C611 C 0.48112 0.1227 0.29181 0.0
C612 C 0.50807 0.11263 0.44134 0.0
C613 C 0.49618 0.07984 0.44302 0.0
N614 N 0.47541 0.03465 0.35007 0.0
N615 N 0.49903 0.16787 0.38898 0.0
C616 C 0.4825 0.0671 0.35821 0.0
C617 C 0.49629 0.13492 0.37373 0.0
N618 N 0.46517 0.07651 0.19809 0.0
N619 N 0.53374 0.12161 0.49659 0.0
H620 H 0.49082 0.18525 0.34169 0.0
H621 H 0.5071 0.1777 0.4523 0.0
H622 H 0.54619 0.10486 0.53775 0.0
H623 H 0.54531 0.14431 0.49179 0.0
H624 H 0.45766 0.05251 0.18654 0.0
H625 H 0.46321 0.0912 0.13953 0.0
H626 H 0.47462 0.02185 0.28709 0.0
H627 H 0.46681 0.02129 0.40584 0.0
C628 C 0.43526 0.49584 0.3248 0.0
C629 C 0.40892 0.47344 0.33349 0.0
C630 C 0.42806 0.46066 0.49307 0.0
C631 C 0.45352 0.48454 0.48675 0.0
N632 N 0.47783 0.52808 0.39859 0.0
N633 N 0.37753 0.43729 0.42976 0.0
C634 C 0.45591 0.50306 0.40316 0.0
C635 C 0.40455 0.45673 0.419 0.0
N636 N 0.44154 0.50925 0.23988 0.0
N637 N 0.42674 0.44113 0.56944 0.0
H638 H 0.36035 0.4334 0.37696 0.0
H639 H 0.3707 0.42684 0.49247 0.0
H640 H 0.44234 0.44419 0.62616 0.0
H641 H 0.41141 0.42091 0.57534 0.0
H642 H 0.46279 0.52225 0.22452 0.0
H643 H 0.42666 0.50527 0.18177 0.0
H644 H 0.47868 0.54501 0.34509 0.0
H645 H 0.49283 0.53402 0.45407 0.0
C646 C 0.03598 0.39449 0.40172 0.0
C647 C 0.03658 0.40575 0.30887 0.0
C648 C 0.03178 0.46267 0.37122 0.0
C649 C 0.03398 0.45156 0.46528 0.0
N650 N 0.0501 0.4064 0.56093 0.0
N651 N 0.03212 0.45063 0.20368 0.0
C652 C 0.039 0.41726 0.47778 0.0
C653 C 0.0338 0.43998 0.29342 0.0
N654 N 0.03288 0.36176 0.41811 0.0
N655 N 0.03003 0.49547 0.35629 0.0
H656 H 0.03355 0.4347 0.14651 0.0
H657 H 0.02768 0.47469 0.18455 0.0
H658 H 0.02435 0.51171 0.40978 0.0
H659 H 0.03422 0.50662 0.29281 0.0
H660 H 0.02862 0.3525 0.4843 0.0
H661 H 0.0314 0.34425 0.36485 0.0
H662 H 0.05793 0.38246 0.5723 0.0
H663 H 0.05368 0.42239 0.61624 0.0
C664 C 0.89659 0.01663 0.99407 0.0
C665 C 0.90299 0.99198 0.0611 0.0
C666 C 0.94616 0.97035 0.95604 0.0
C667 C 0.94345 0.99794 0.89693 0.0
N668 N 0.91947 0.05168 0.8763 0.0
N669 N 0.93961 0.94943 0.11184 0.0
C670 C 0.9195 0.02225 0.92032 0.0
C671 C 0.92935 0.96994 0.04358 0.0
N672 N 0.868 0.03411 0.99832 0.0
N673 N 0.9634 0.94352 0.92688 0.0
H674 H 0.9288 0.94883 0.17751 0.0
H675 H 0.96117 0.93591 0.10594 0.0
H676 H 0.97443 0.94205 0.8616 0.0
H677 H 0.96285 0.92146 0.96245 0.0
H678 H 0.86072 0.05012 0.94623 0.0
H679 H 0.84989 0.02986 0.04796 0.0
H680 H 0.90479 0.07131 0.89755 0.0
H681 H 0.9365 0.0578 0.82566 0.0
C682 C 0.54827 0.90343 0.98969 0.0
C683 C 0.5456 0.91538 0.08244 0.0
C684 C 0.53496 0.97075 0.02054 0.0
C685 C 0.53837 0.95892 0.92594 0.0
N686 N 0.56362 0.91603 0.83261 0.0
N687 N 0.54373 0.96192 0.18578 0.0
C688 C 0.54937 0.92582 0.91407 0.0
C689 C 0.54089 0.94942 0.09744 0.0
N690 N 0.54871 0.87045 0.97242 0.0
N691 N 0.52608 1.0023 0.03971 0.0
H692 H 0.54846 0.94739 0.24338 0.0
H693 H 0.54446 0.98689 0.20128 0.0
H694 H 0.51508 0.00941 0.10224 0.0
H695 H 0.53091 0.02176 0.99664 0.0
H696 H 0.54708 0.86051 0.9054 0.0
H697 H 0.54737 0.85309 0.0249 0.0
H698 H 0.57506 0.89334 0.82391 0.0
H699 H 0.56795 0.93192 0.77825 0.0
C700 C 0.57517 0.54753 0.06669 0.0
C701 C 0.60853 0.53834 0.05462 0.0
C702 C 0.59712 0.52911 0.88745 0.0
C703 C 0.56294 0.53097 0.90319 0.0
N704 N 0.5232 0.56024 0.99366 0.0
N705 N 0.65116 0.51882 0.95101 0.0
C706 C 0.55291 0.54515 0.98966 0.0
C707 C 0.61947 0.52871 0.96423 0.0
N708 N 0.56455 0.55787 0.15231 0.0
N709 N 0.60851 0.53339 0.80002 0.0
H710 H 0.66862 0.51911 1.00416 0.0
H711 H 0.6592 0.50836 0.88846 0.0
H712 H 0.59237 0.5399 0.74727 0.0
H713 H 0.6334 0.53583 0.78462 0.0
H714 H 0.53991 0.561 0.16956 0.0
H715 H 0.58038 0.5615 0.20852 0.0
H716 H 0.51466 0.57345 0.05097 0.0
H717 H 0.50964 0.56352 0.93326 0.0
C718 C 1.00225 0.58098 0.06256 0.0
C719 C 0.9875 0.61242 0.05314 0.0
C720 C 0.97694 0.59849 0.88724 0.0
C721 C 0.99542 0.5689 0.89407 0.0
N722 N 0.03127 0.53586 0.98827 0.0
N723 N 0.96706 0.65338 0.94812 0.0
C724 C 0.00976 0.56138 0.98176 0.0
C725 C 0.97646 0.62176 0.96312 0.0
N726 N 1.00779 0.56903 0.14949 0.0
N727 N 0.95952 0.60456 0.80822 0.0
H728 H 0.96705 0.67133 1.00027 0.0
H729 H 0.96239 0.66254 0.88206 0.0
H730 H 0.96045 0.58922 0.74994 0.0
H731 H 0.94268 0.62367 0.80279 0.0
H732 H 0.01527 0.54503 0.16145 0.0
H733 H 1.00132 0.5819 0.20989 0.0
H734 H 0.04478 0.53104 0.04815 0.0
H735 H 0.03855 0.5219 0.93088 0.0
C736 C 0.05193 0.1669 0.20876 0.0
C737 C 0.07439 0.18344 0.2688 0.0
C738 C 0.04457 0.16498 0.40559 0.0
C739 C 0.02031 0.15164 0.34562 0.0
N740 N 1.00433 0.13138 0.19441 0.0
N741 N 0.09901 0.18904 0.41917 0.0
C742 C 0.02542 0.14946 0.24839 0.0
C743 C 0.07323 0.17867 0.36586 0.0
N744 N 0.0545 0.17002 0.11444 0.0
N745 N 0.03919 0.16636 0.49943 0.0
H746 H 0.11986 0.1994 0.38919 0.0
H747 H 0.10096 0.18489 0.49025 0.0
H748 H 0.01857 0.15604 0.53051 0.0
H749 H 0.05435 0.1788 0.54618 0.0
H750 H 0.03673 0.16236 0.06709 0.0
H751 H 0.07452 0.18073 0.0821 0.0
H752 H 1.00708 0.12767 0.1233 0.0
H753 H 0.98478 0.11815 0.22187 0.0
C754 C 0.3053 0.02916 0.39575 0.0
C755 C 0.32004 0.05994 0.37657 0.0
C756 C 0.37375 0.03595 0.38712 0.0
C757 C 0.36006 1.00537 0.4114 0.0
N758 N 0.31251 0.9756 0.46416 0.0
N759 N 0.36725 0.09462 0.39191 0.0
C760 C 0.32566 1.00294 0.42529 0.0
C761 C 0.3539 0.06404 0.39078 0.0
N762 N 0.27277 0.02399 0.37802 0.0
N763 N 0.40357 0.03752 0.34499 0.0
H764 H 0.35253 0.11557 0.38939 0.0
H765 H 0.39225 0.09858 0.40358 0.0
H766 H 0.41613 0.01649 0.32378 0.0
H767 H 0.41258 0.05924 0.31751 0.0
H768 H 0.26211 1.0008 0.37877 0.0
H769 H 0.25682 0.04256 0.35801 0.0
H770 H 0.2877 0.97368 0.48103 0.0
H771 H 0.32705 0.95633 0.48765 0.0
C772 C 0.4561 0.36118 0.32796 0.0
C773 C 0.45838 0.3426 0.24502 0.0
C774 C 0.51195 0.3672 0.21187 0.0
C775 C 0.50745 0.38863 0.28842 0.0
N776 N 0.49 0.38384 0.44694 0.0
N777 N 0.4881 0.32814 0.10498 0.0
C778 C 0.4831 0.38072 0.35502 0.0
C779 C 0.48638 0.34549 0.1864 0.0
N780 N 0.42891 0.35917 0.38298 0.0
N781 N 0.54184 0.36607 0.16875 0.0
H782 H 0.47034 0.31125 0.08491 0.0
H783 H 0.50563 0.33263 0.05412 0.0
H784 H 0.56152 0.38039 0.1919 0.0
H785 H 0.54828 0.34871 0.11832 0.0
H786 H 0.42544 0.37434 0.44107 0.0
H787 H 0.40886 0.34439 0.36573 0.0
H788 H 0.47356 0.37767 0.49946 0.0
H789 H 0.51443 0.38288 0.46733 0.0
C790 C 0.18476 0.45513 0.37377 0.0
C791 C 0.21156 0.46464 0.31844 0.0
C792 C 0.18908 0.51989 0.30728 0.0
C793 C 0.159 0.50798 0.34233 0.0
N794 N 0.12744 0.4639 0.40977 0.0
N795 N 0.24003 0.50625 0.23103 0.0
C796 C 0.15673 0.47572 0.37817 0.0
C797 C 0.21436 0.49732 0.28638 0.0
N798 N 0.18605 0.42617 0.42004 0.0
N799 N 0.19337 0.55273 0.29426 0.0
H800 H 0.25999 0.49104 0.21715 0.0
H801 H 0.24065 0.52817 0.1947 0.0
H802 H 0.1753 0.56998 0.31089 0.0
H803 H 0.21583 0.56308 0.27624 0.0
H804 H 0.16854 0.41911 0.46858 0.0
H805 H 0.20658 0.41085 0.41646 0.0
H806 H 0.12383 0.4396 0.42832 0.0
H807 H 0.10583 0.47754 0.41079 0.0
C808 C 0.98001 0.85213 0.05775 0.0
C809 C 0.97743 0.82083 0.01702 0.0
C810 C 0.0089 0.83864 0.88374 0.0
C811 C 0.0203 0.86513 0.9394 0.0
N812 N 0.0158 0.89875 0.07866 0.0
N813 N 0.98188 0.78552 0.88398 0.0
C814 C 1.00484 0.87314 0.02514 0.0
C815 C 0.9884 0.81501 0.92553 0.0
N816 N 0.96133 0.85961 0.13371 0.0
N817 N 0.0187 0.83572 0.79329 0.0
H818 H 0.96638 0.76852 0.91527 0.0
H819 H 0.99216 0.77777 0.82118 0.0
H820 H 0.03386 0.85303 0.76213 0.0
H821 H 0.00968 0.81789 0.74781 0.0
H822 H 0.96111 0.8826 0.16553 0.0
H823 H 0.94401 0.84309 0.15905 0.0
H824 H 0.00824 0.90277 0.1471 0.0
H825 H 0.03376 0.91504 0.05638 0.0
C826 C 0.66342 0.97154 0.06172 0.0
C827 C 0.69507 0.97229 0.0226 0.0
C828 C 0.67508 1.00474 0.89412 0.0
C829 C 0.64776 0.01308 0.95034 0.0
N830 N 0.61187 1.00063 0.07852 0.0
N831 N 0.7295 0.97991 0.89037 0.0
C832 C 0.6399 0.99428 0.02953 0.0
C833 C 0.69984 0.98459 0.93253 0.0
N834 N 0.65744 0.95136 0.13466 0.0
N835 N 0.67789 0.01785 0.80767 0.0
H836 H 0.74743 0.96503 0.92033 0.0
H837 H 0.73633 0.99058 0.82797 0.0
H838 H 0.65965 0.03295 0.78031 0.0
H839 H 0.69668 0.01203 0.76132 0.0
H840 H 0.63434 0.94825 0.16427 0.0
H841 H 0.67557 0.93562 0.15958 0.0
H842 H 0.60669 0.99047 0.14291 0.0
H843 H 0.59413 0.01708 0.05551 0.0
C844 C 0.5349 0.67839 0.14713 0.0
C845 C 0.54746 0.69598 0.07133 0.0
C846 C 0.50516 0.67152 0.97192 0.0
C847 C 0.49129 0.65622 0.05187 0.0
N848 N 0.48135 0.67447 0.20884 0.0
N849 N 0.55086 0.70263 0.90757 0.0
C850 C 0.50288 0.66671 0.13969 0.0
C851 C 0.53516 0.68928 0.98157 0.0
N852 N 0.54954 0.67904 0.23213 0.0
N853 N 0.48684 0.6743 0.89292 0.0
H854 H 0.57235 0.71628 0.91674 0.0
H855 H 0.54403 0.69831 0.83885 0.0
H856 H 0.4621 0.66765 0.89134 0.0
H857 H 0.49447 0.68671 0.83394 0.0
H858 H 0.57301 0.68855 0.24335 0.0
H859 H 0.57301 0.68855 0.24335 0.0
H860 H 0.48897 0.68631 0.2697 0.0
H861 H 0.45601 0.67444 0.19746 0.0
C862 C 0.83114 0.54153 0.96612 0.0
C863 C 0.82944 0.56112 0.04678 0.0
C864 C 0.88748 0.5525 0.0753 0.0
C865 C 0.88539 0.52422 0.01734 0.0
N866 N 0.85644 0.49348 0.89712 0.0
N867 N 0.85667 0.59347 0.16307 0.0
C868 C 0.85806 0.51978 0.95663 0.0
C869 C 0.85838 0.57038 0.09387 0.0
N870 N 0.80467 0.54066 0.90807 0.0
N871 N 0.91685 0.56117 0.11422 0.0
H872 H 0.83513 0.60671 0.17543 0.0
H873 H 0.8759 0.59893 0.20838 0.0
H874 H 0.93843 0.54822 0.10005 0.0
H875 H 0.92035 0.58234 0.15398 0.0
H876 H 0.80382 0.52723 0.84614 0.0
H877 H 0.78439 0.55585 0.92024 0.0
H878 H 0.83595 0.48794 0.85667 0.0
H879 H 0.87487 0.47592 0.89127 0.0
C880 C 1.0077 0.16797 0.76594 0.0
C881 C 0.03657 0.17088 0.82072 0.0
C882 C 0.05163 0.11482 0.76625 0.0
C883 C 0.01932 0.10845 0.73323 0.0
N884 N 0.96954 0.13461 0.67849 0.0
N885 N 0.086 0.14477 0.87562 0.0
C886 C 0.99813 0.13669 0.72728 0.0
C887 C 0.05853 0.14364 0.82136 0.0
N888 N 0.99069 0.19576 0.74398 0.0
N889 N 0.07676 0.09562 0.73623 0.0
H890 H 0.0918 0.16489 0.91786 0.0
H891 H 0.10137 0.12457 0.88401 0.0
H892 H 0.07292 0.07649 0.6893 0.0
H893 H 0.10133 0.10139 0.74869 0.0
H894 H 0.97189 0.19647 0.69501 0.0
H895 H 0.9974 0.21902 0.76788 0.0
H896 H 0.94996 0.15076 0.68789 0.0
H897 H 0.96654 0.11811 0.62376 0.0
C898 C 0.37512 0.02358 0.86946 0.0
C899 C 0.35651 0.04666 0.81801 0.0
C900 C 0.40319 0.04942 0.70594 0.0
C901 C 0.42064 0.02439 0.75421 0.0
N902 N 0.41672 0.98139 0.86897 0.0
N903 N 0.35026 0.07441 0.672 0.0
C904 C 0.40416 0.00915 0.83031 0.0
C905 C 0.36999 0.05781 0.73225 0.0
N906 N 0.36693 0.01725 0.95974 0.0
N907 N 0.41755 0.06452 0.63239 0.0
H908 H 0.32549 0.07891 0.68534 0.0
H909 H 0.35726 0.08037 0.60462 0.0
H910 H 0.43952 0.0566 0.60337 0.0
H911 H 0.40824 0.08578 0.6028 0.0
H912 H 0.38107 1.00257 1.00298 0.0
H913 H 0.34876 0.03009 0.99587 0.0
H914 H 0.40342 0.96721 0.91553 0.0
H915 H 0.43961 0.97159 0.85237 0.0
C916 C 0.46546 0.37324 0.88298 0.0
C917 C 0.47284 0.34512 0.82771 0.0
C918 C 0.50167 0.38071 0.71605 0.0
C919 C 0.49284 0.40944 0.76932 0.0
N920 N 0.48111 0.42839 0.92541 0.0
N921 N 0.49451 0.32232 0.68597 0.0
C922 C 0.47853 0.40446 0.85865 0.0
C923 C 0.4904 0.34894 0.74353 0.0
N924 N 0.44539 0.37045 0.95862 0.0
N925 N 0.52267 0.38274 0.64251 0.0
H926 H 0.4872 0.29875 0.70393 0.0
H927 H 0.50258 0.32388 0.61742 0.0
H928 H 0.52904 0.4041 0.60909 0.0
H929 H 0.53545 0.36257 0.61608 0.0
H930 H 0.43594 0.39065 0.99473 0.0
H931 H 0.43591 0.34813 0.98052 0.0
H932 H 0.47429 0.42509 0.99452 0.0
H933 H 0.49405 0.45001 0.91492 0.0
C934 C 0.15773 0.45226 0.83816 0.0
C935 C 0.18417 0.47475 0.83306 0.0
C936 C 0.14628 0.51405 0.75839 0.0
C937 C 0.11984 0.4904 0.75712 0.0
N938 N 0.11017 0.43208 0.75743 0.0
N939 N 0.20538 0.52261 0.75867 0.0
C940 C 0.12828 0.45812 0.78676 0.0
C941 C 0.17893 0.50425 0.78425 0.0
N942 N 0.16029 0.42513 0.89226 0.0
N943 N 0.14118 0.5463 0.73863 0.0
H944 H 0.22949 0.51608 0.77457 0.0
H945 H 0.20359 0.54215 0.7129 0.0
H946 H 0.1195 0.55647 0.71567 0.0
H947 H 0.15877 0.56425 0.75229 0.0
H948 H 0.14048 0.40953 0.90393 0.0
H949 H 0.18102 0.42009 0.9323 0.0
H950 H 0.11664 0.40785 0.77068 0.0
H951 H 0.09195 0.43477 0.70798 0.0
C952 C 1.00649 0.87586 0.49093 0.0
C953 C 0.9801 0.85824 0.53068 0.0
C954 C 0.96726 0.9079 0.62664 0.0
C955 C 0.99639 0.92382 0.59539 0.0
N956 N 0.04769 0.91768 0.51249 0.0
N957 N 0.93609 0.85706 0.64176 0.0
C958 C 0.01698 0.90626 0.53151 0.0
C959 C 0.96044 0.87433 0.59946 0.0
N960 N 0.02156 0.86373 0.41287 0.0
N961 N 0.94628 0.92474 0.68351 0.0
H962 H 0.93027 0.83305 0.62234 0.0
H963 H 0.92305 0.86559 0.69941 0.0
H964 H 0.95097 0.94872 0.70466 0.0
H965 H 0.9232 0.91628 0.70276 0.0
H966 H 0.03844 0.8772 0.37457 0.0
H967 H 0.01464 0.84174 0.38083 0.0
H968 H 0.06506 0.90424 0.47487 0.0
H969 H 0.05691 0.93922 0.54142 0.0
C970 C 0.6487 0.97772 0.61432 0.0
C971 C 0.66619 0.99705 0.54947 0.0
C972 C 0.61695 0.03251 0.5358 0.0
C973 C 0.60045 0.0151 0.60791 0.0
N974 N 0.6073 0.97745 0.73426 0.0
N975 N 0.66748 0.04508 0.45373 0.0
C976 C 0.61794 0.9891 0.65138 0.0
C977 C 0.65045 0.02517 0.51236 0.0
N978 N 0.66163 0.94862 0.64251 0.0
N979 N 0.59995 0.05508 0.48535 0.0
H980 H 0.69053 0.03916 0.4268 0.0
H981 H 0.65962 0.06844 0.4358 0.0
H982 H 0.57513 0.05984 0.4957 0.0
H983 H 0.60904 0.06614 0.42583 0.0
H984 H 0.64827 0.93178 0.6811 0.0
H985 H 0.68466 0.94026 0.62114 0.0
H986 H 0.62101 0.96143 0.77477 0.0
H987 H 0.58689 0.987 0.7679 0.0
C988 C 0.56099 0.66658 0.65057 0.0
C989 C 0.54584 0.67907 0.56895 0.0
C990 C 0.52632 0.62339 0.53231 0.0
C991 C 0.53618 0.61199 0.62097 0.0
N992 N 0.56248 0.62367 0.76753 0.0
N993 N 0.50861 0.66935 0.44111 0.0
C994 C 0.55337 0.63395 0.68125 0.0
C995 C 0.52674 0.65748 0.51302 0.0
N996 N 0.5833 0.68549 0.69724 0.0
N997 N 0.5186 0.60153 0.46347 0.0
H998 H 0.50878 0.69391 0.42215 0.0
H999 H 0.49111 0.65511 0.40648 0.0
H1000 H 0.52219 0.5766 0.47185 0.0
H1001 H 0.51357 0.6083 0.39521 0.0
H1002 H 0.59787 0.67673 0.75108 0.0
H1003 H 0.5887 0.70942 0.67771 0.0
H1004 H 0.57239 0.63921 0.81816 0.0
H1005 H 0.55832 0.59983 0.79013 0.0
C1006 C 0.87439 0.54095 0.46933 0.0
C1007 C 0.84895 0.54768 0.53504 0.0
C1008 C 0.89035 0.54704 0.66181 0.0
C1009 C 0.91548 0.53787 0.59714 0.0
N1010 N 0.93166 0.52703 0.43846 0.0
N1011 N 0.8332 0.56275 0.69054 0.0
C1012 C 0.90758 0.53567 0.50044 0.0
C1013 C 0.85719 0.55233 0.63047 0.0
N1014 N 0.86679 0.53994 0.37655 0.0
N1015 N 0.89835 0.55078 0.75358 0.0
H1016 H 0.80908 0.56712 0.66956 0.0
H1017 H 0.83694 0.56898 0.75991 0.0
H1018 H 0.9221 0.54798 0.77812 0.0
H1019 H 0.88204 0.55678 0.80648 0.0
H1020 H 0.88401 0.53911 0.32323 0.0
H1021 H 0.84285 0.54157 0.35139 0.0
H1022 H 0.92756 0.52086 0.36908 0.0
H1023 H 0.95629 0.52476 0.45694 0.0
loop_
_geom_bond_atom_site_label_1
_geom_bond_atom_site_label_2
_geom_bond_distance
_geom_bond_site_symmetry_2
_ccdc_geom_bond_type
P0 O11 1.490 . S
P0 C14 1.812 . S
P0 C20 1.803 . S
P0 C26 1.819 . S
H1 C15 0.941 . S
H2 C16 0.939 . S
H3 C18 0.940 . S
H4 C19 0.940 . S
H5 C21 0.939 . S
H6 C22 0.942 . S
H7 C24 0.940 . S
H8 C25 0.939 . S
H9 C27 0.941 . S
H10 C31 0.939 . S
O11 P0 1.490 . S
H12 C28 0.939 . S
H13 C30 0.940 . S
C14 P0 1.812 . S
C14 C15 1.389 . S
C14 C19 1.391 . S
C15 H1 0.941 . S
C15 C14 1.389 . S
C15 C16 1.397 . S
C16 H2 0.939 . S
C16 C15 1.397 . S
C16 C17 1.378 . S
C17 C16 1.378 . S
C17 C18 1.378 . S
C18 H3 0.940 . S
C18 C17 1.378 . S
C18 C19 1.396 . S
C19 H4 0.940 . S
C19 C14 1.391 . S
C19 C18 1.396 . S
C20 P0 1.803 . S
C20 C21 1.378 . S
C20 C25 1.400 . S
C21 H5 0.939 . S
C21 C20 1.378 . S
C21 C22 1.361 . S
C22 H6 0.942 . S
C22 C21 1.361 . S
C22 C23 1.369 . S
C23 C22 1.369 . S
C23 C24 1.404 . S
C24 H7 0.940 . S
C24 C23 1.404 . S
C24 C25 1.389 . S
C25 H8 0.939 . S
C25 C20 1.400 . S
C25 C24 1.389 . S
C26 P0 1.819 . S
C26 C27 1.391 . S
C26 C31 1.391 . S
C27 H9 0.941 . S
C27 C26 1.391 . S
C27 C28 1.396 . S
C28 H12 0.939 . S
C28 C27 1.396 . S
C28 C29 1.397 . S
C29 C28 1.397 . S
C29 C30 1.385 . S
C30 H13 0.940 . S
C30 C29 1.385 . S
C30 C31 1.388 . S
C31 H10 0.939 . S
C31 C26 1.391 . S
C31 C30 1.388 . S
P32 O43 1.490 1_655 S
P32 C46 1.812 . S
P32 C52 1.803 . S
P32 C58 1.819 . S
H33 C47 0.941 1_455 S
H34 C48 0.939 . S
H35 C50 0.940 . S
H36 C51 0.940 . S
H37 C53 0.939 1_455 S
H38 C54 0.942 . S
H39 C56 0.940 . S
H40 C57 0.939 . S
H41 C59 0.941 1_455 S
H42 C63 0.939 . S
O43 P32 1.490 1_455 S
H44 C60 0.939 . S
H45 C62 0.940 . S
C46 P32 1.812 . S
C46 C47 1.389 . S
C46 C51 1.391 . S
C47 H33 0.941 1_655 S
C47 C46 1.389 . S
C47 C48 1.397 . S
C48 H34 0.939 . S
C48 C47 1.397 . S
C48 C49 1.378 . S
C49 C48 1.378 . S
C49 C50 1.378 . S
C50 H35 0.940 . S
C50 C49 1.378 . S
C50 C51 1.396 . S
C51 H36 0.940 . S
C51 C46 1.391 . S
C51 C50 1.396 . S
C52 P32 1.803 . S
C52 C53 1.378 . S
C52 C57 1.400 . S
C53 H37 0.939 1_655 S
C53 C52 1.378 . S
C53 C54 1.361 . S
C54 H38 0.942 . S
C54 C53 1.361 . S
C54 C55 1.369 . S
C55 C54 1.369 . S
C55 C56 1.404 . S
C56 H39 0.940 . S
C56 C55 1.404 . S
C56 C57 1.389 . S
C57 H40 0.939 . S
C57 C52 1.400 . S
C57 C56 1.389 . S
C58 P32 1.819 . S
C58 C59 1.391 . S
C58 C63 1.391 . S
C59 H41 0.941 1_655 S
C59 C58 1.391 . S
C59 C60 1.396 . S
C60 H44 0.939 . S
C60 C59 1.396 . S
C60 C61 1.397 . S
C61 C60 1.397 . S
C61 C62 1.385 . S
C62 H45 0.940 . S
C62 C61 1.385 . S
C62 C63 1.388 . S
C63 H42 0.939 . S
C63 C58 1.391 . S
C63 C62 1.388 . S
P64 O75 1.490 . S
P64 C78 1.812 1_545 S
P64 C84 1.803 1_545 S
P64 C90 1.819 1_545 S
H65 C79 0.941 . S
H66 C80 0.939 1_545 S
H67 C82 0.940 . S
H68 C83 0.940 . S
H69 C85 0.939 . S
H70 C86 0.942 1_545 S
H71 C88 0.940 . S
H72 C89 0.939 . S
H73 C91 0.941 1_545 S
H74 C95 0.939 . S
O75 P64 1.490 . S
H76 C92 0.939 . S
H77 C94 0.940 . S
C78 P64 1.812 1_565 S
C78 C79 1.389 1_565 S
C78 C83 1.391 . S
C79 H65 0.941 . S
C79 C78 1.389 1_545 S
C79 C80 1.397 1_545 S
C80 H66 0.939 1_565 S
C80 C79 1.397 1_565 S
C80 C81 1.378 . S
C81 C80 1.378 . S
C81 C82 1.378 . S
C82 H67 0.940 . S
C82 C81 1.378 . S
C82 C83 1.396 . S
C83 H68 0.940 . S
C83 C78 1.391 . S
C83 C82 1.396 . S
C84 P64 1.803 1_565 S
C84 C85 1.378 1_565 S
C84 C89 1.400 . S
C85 H69 0.939 . S
C85 C84 1.378 1_545 S
C85 C86 1.361 1_545 S
C86 H70 0.942 1_565 S
C86 C85 1.361 1_565 S
C86 C87 1.369 . S
C87 C86 1.369 . S
C87 C88 1.404 . S
C88 H71 0.940 . S
C88 C87 1.404 . S
C88 C89 1.389 . S
C89 H72 0.939 . S
C89 C84 1.400 . S
C89 C88 1.389 . S
C90 P64 1.819 1_565 S
C90 C91 1.391 . S
C90 C95 1.391 . S
C91 H73 0.941 1_565 S
C91 C90 1.391 . S
C91 C92 1.396 . S
C92 H76 0.939 . S
C92 C91 1.396 . S
C92 C93 1.397 . S
C93 C92 1.397 . S
C93 C94 1.385 . S
C94 H77 0.940 . S
C94 C93 1.385 . S
C94 C95 1.388 . S
C95 H74 0.939 . S
C95 C90 1.391 . S
C95 C94 1.388 . S
P96 O107 1.490 . S
P96 C110 1.812 . S
P96 C116 1.803 . S
P96 C122 1.819 . S
H97 C111 0.941 . S
H98 C112 0.939 . S
H99 C114 0.940 . S
H100 C115 0.940 . S
H101 C117 0.939 . S
H102 C118 0.942 . S
H103 C120 0.940 . S
H104 C121 0.939 . S
H105 C123 0.941 . S
H106 C127 0.939 . S
O107 P96 1.490 . S
H108 C124 0.939 . S
H109 C126 0.940 . S
C110 P96 1.812 . S
C110 C111 1.389 . S
C110 C115 1.391 . S
C111 H97 0.941 . S
C111 C110 1.389 . S
C111 C112 1.397 . S
C112 H98 0.939 . S
C112 C111 1.397 . S
C112 C113 1.378 . S
C113 C112 1.378 . S
C113 C114 1.378 . S
C114 H99 0.940 . S
C114 C113 1.378 . S
C114 C115 1.396 . S
C115 H100 0.940 . S
C115 C110 1.391 . S
C115 C114 1.396 . S
C116 P96 1.803 . S
C116 C117 1.378 . S
C116 C121 1.400 . S
C117 H101 0.939 . S
C117 C116 1.378 . S
C117 C118 1.361 . S
C118 H102 0.942 . S
C118 C117 1.361 . S
C118 C119 1.369 . S
C119 C118 1.369 . S
C119 C120 1.404 . S
C120 H103 0.940 . S
C120 C119 1.404 . S
C120 C121 1.389 . S
C121 H104 0.939 . S
C121 C116 1.400 . S
C121 C120 1.389 . S
C122 P96 1.819 . S
C122 C123 1.391 . S
C122 C127 1.391 . S
C123 H105 0.941 . S
C123 C122 1.391 . S
C123 C124 1.396 . S
C124 H108 0.939 . S
C124 C123 1.396 . S
C124 C125 1.397 . S
C125 C124 1.397 . S
C125 C126 1.385 . S
C126 H109 0.940 . S
C126 C125 1.385 . S
C126 C127 1.388 . S
C127 H106 0.939 . S
C127 C122 1.391 . S
C127 C126 1.388 . S
P128 O139 1.490 . S
P128 C142 1.812 1_554 S
P128 C148 1.803 . S
P128 C154 1.819 . S
H129 C143 0.941 . S
H130 C144 0.939 . S
H131 C146 0.940 . S
H132 C147 0.940 . S
H133 C149 0.939 . S
H134 C150 0.942 . S
H135 C152 0.940 . S
H136 C153 0.939 1_556 S
H137 C155 0.941 . S
H138 C159 0.939 . S
O139 P128 1.490 . S
H140 C156 0.939 . S
H141 C158 0.940 . S
C142 P128 1.812 1_556 S
C142 C143 1.389 . S
C142 C147 1.391 . S
C143 H129 0.941 . S
C143 C142 1.389 . S
C143 C144 1.397 . S
C144 H130 0.939 . S
C144 C143 1.397 . S
C144 C145 1.378 . S
C145 C144 1.378 . S
C145 C146 1.378 . S
C146 H131 0.940 . S
C146 C145 1.378 . S
C146 C147 1.396 . S
C147 H132 0.940 . S
C147 C142 1.391 . S
C147 C146 1.396 . S
C148 P128 1.803 . S
C148 C149 1.378 . S
C148 C153 1.400 . S
C149 H133 0.939 . S
C149 C148 1.378 . S
C149 C150 1.361 . S
C150 H134 0.942 . S
C150 C149 1.361 . S
C150 C151 1.369 . S
C151 C150 1.369 . S
C151 C152 1.404 . S
C152 H135 0.940 . S
C152 C151 1.404 . S
C152 C153 1.389 . S
C153 H136 0.939 1_554 S
C153 C148 1.400 . S
C153 C152 1.389 . S
C154 P128 1.819 . S
C154 C155 1.391 . S
C154 C159 1.391 . S
C155 H137 0.941 . S
C155 C154 1.391 . S
C155 C156 1.396 . S
C156 H140 0.939 . S
C156 C155 1.396 . S
C156 C157 1.397 . S
C157 C156 1.397 . S
C157 C158 1.385 . S
C158 H141 0.940 . S
C158 C157 1.385 . S
C158 C159 1.388 . S
C159 H138 0.939 . S
C159 C154 1.391 . S
C159 C158 1.388 . S
P160 O171 1.490 . S
P160 C174 1.812 1_554 S
P160 C180 1.803 . S
P160 C186 1.819 . S
H161 C175 0.941 . S
H162 C176 0.939 . S
H163 C178 0.940 . S
H164 C179 0.940 . S
H165 C181 0.939 . S
H166 C182 0.942 . S
H167 C184 0.940 . S
H168 C185 0.939 1_556 S
H169 C187 0.941 . S
H170 C191 0.939 . S
O171 P160 1.490 . S
H172 C188 0.939 . S
H173 C190 0.940 . S
C174 P160 1.812 1_556 S
C174 C175 1.389 . S
C174 C179 1.391 . S
C175 H161 0.941 . S
C175 C174 1.389 . S
C175 C176 1.397 . S
C176 H162 0.939 . S
C176 C175 1.397 . S
C176 C177 1.378 . S
C177 C176 1.378 . S
C177 C178 1.378 . S
C178 H163 0.940 . S
C178 C177 1.378 . S
C178 C179 1.396 . S
C179 H164 0.940 . S
C179 C174 1.391 . S
C179 C178 1.396 . S
C180 P160 1.803 . S
C180 C181 1.378 . S
C180 C185 1.400 . S
C181 H165 0.939 . S
C181 C180 1.378 . S
C181 C182 1.361 . S
C182 H166 0.942 . S
C182 C181 1.361 . S
C182 C183 1.369 . S
C183 C182 1.369 . S
C183 C184 1.404 . S
C184 H167 0.940 . S
C184 C183 1.404 . S
C184 C185 1.389 . S
C185 H168 0.939 1_554 S
C185 C180 1.400 . S
C185 C184 1.389 . S
C186 P160 1.819 . S
C186 C187 1.391 . S
C186 C191 1.391 . S
C187 H169 0.941 . S
C187 C186 1.391 . S
C187 C188 1.396 . S
C188 H172 0.939 . S
C188 C187 1.396 . S
C188 C189 1.397 . S
C189 C188 1.397 . S
C189 C190 1.385 . S
C190 H173 0.940 . S
C190 C189 1.385 . S
C190 C191 1.388 . S
C191 H170 0.939 . S
C191 C186 1.391 . S
C191 C190 1.388 . S
P192 O203 1.490 . S
P192 C206 1.812 1_554 S
P192 C212 1.803 . S
P192 C218 1.819 . S
H193 C207 0.941 . S
H194 C208 0.939 . S
H195 C210 0.940 . S
H196 C211 0.940 . S
H197 C213 0.939 . S
H198 C214 0.942 . S
H199 C216 0.940 . S
H200 C217 0.939 1_556 S
H201 C219 0.941 . S
H202 C223 0.939 . S
O203 P192 1.490 . S
H204 C220 0.939 . S
H205 C222 0.940 . S
C206 P192 1.812 1_556 S
C206 C207 1.389 . S
C206 C211 1.391 . S
C207 H193 0.941 . S
C207 C206 1.389 . S
C207 C208 1.397 . S
C208 H194 0.939 . S
C208 C207 1.397 . S
C208 C209 1.378 . S
C209 C208 1.378 . S
C209 C210 1.378 . S
C210 H195 0.940 . S
C210 C209 1.378 . S
C210 C211 1.396 . S
C211 H196 0.940 . S
C211 C206 1.391 . S
C211 C210 1.396 . S
C212 P192 1.803 . S
C212 C213 1.378 . S
C212 C217 1.400 . S
C213 H197 0.939 . S
C213 C212 1.378 . S
C213 C214 1.361 . S
C214 H198 0.942 . S
C214 C213 1.361 . S
C214 C215 1.369 . S
C215 C214 1.369 . S
C215 C216 1.404 . S
C216 H199 0.940 . S
C216 C215 1.404 . S
C216 C217 1.389 . S
C217 H200 0.939 1_554 S
C217 C212 1.400 . S
C217 C216 1.389 . S
C218 P192 1.819 . S
C218 C219 1.391 . S
C218 C223 1.391 . S
C219 H201 0.941 . S
C219 C218 1.391 . S
C219 C220 1.396 . S
C220 H204 0.939 . S
C220 C219 1.396 . S
C220 C221 1.397 . S
C221 C220 1.397 . S
C221 C222 1.385 . S
C222 H205 0.940 . S
C222 C221 1.385 . S
C222 C223 1.388 . S
C223 H202 0.939 . S
C223 C218 1.391 . S
C223 C222 1.388 . S
P224 O235 1.490 . S
P224 C238 1.812 1_554 S
P224 C244 1.803 . S
P224 C250 1.819 . S
H225 C239 0.941 . S
H226 C240 0.939 . S
H227 C242 0.940 . S
H228 C243 0.940 . S
H229 C245 0.939 . S
H230 C246 0.942 . S
H231 C248 0.940 . S
H232 C249 0.939 1_556 S
H233 C251 0.941 . S
H234 C255 0.939 . S
O235 P224 1.490 . S
H236 C252 0.939 . S
H237 C254 0.940 . S
C238 P224 1.812 1_556 S
C238 C239 1.389 . S
C238 C243 1.391 . S
C239 H225 0.941 . S
C239 C238 1.389 . S
C239 C240 1.397 . S
C240 H226 0.939 . S
C240 C239 1.397 . S
C240 C241 1.378 . S
C241 C240 1.378 . S
C241 C242 1.378 . S
C242 H227 0.940 . S
C242 C241 1.378 . S
C242 C243 1.396 . S
C243 H228 0.940 . S
C243 C238 1.391 . S
C243 C242 1.396 . S
C244 P224 1.803 . S
C244 C245 1.378 . S
C244 C249 1.400 . S
C245 H229 0.939 . S
C245 C244 1.378 . S
C245 C246 1.361 . S
C246 H230 0.942 . S
C246 C245 1.361 . S
C246 C247 1.369 . S
C247 C246 1.369 . S
C247 C248 1.404 . S
C248 H231 0.940 . S
C248 C247 1.404 . S
C248 C249 1.389 . S
C249 H232 0.939 1_554 S
C249 C244 1.400 . S
C249 C248 1.389 . S
C250 P224 1.819 . S
C250 C251 1.391 . S
C250 C255 1.391 . S
C251 H233 0.941 . S
C251 C250 1.391 . S
C251 C252 1.396 . S
C252 H236 0.939 . S
C252 C251 1.396 . S
C252 C253 1.397 . S
C253 C252 1.397 . S
C253 C254 1.385 . S
C254 H237 0.940 . S
C254 C253 1.385 . S
C254 C255 1.388 . S
C255 H234 0.939 . S
C255 C250 1.391 . S
C255 C254 1.388 . S
Gd256 N287 2.661 1_545 S
Gd256 N293 2.601 . S
Gd256 O300 2.545 . S
Gd256 O301 2.606 1_655 S
Gd256 O303 2.429 . S
Gd256 O304 2.545 1_655 S
Gd256 O305 2.412 . S
Gd256 O307 2.362 1_545 S
Gd256 O308 2.324 1_655 S
Gd256 C315 2.828 . S
Gd257 N266 2.661 1_565 S
Gd257 N270 2.601 . S
Gd257 O301 2.362 1_565 S
Gd257 O302 2.324 1_455 S
Gd257 O306 2.545 . S
Gd257 O307 2.606 1_455 S
Gd257 O309 2.429 . S
Gd257 O310 2.545 . S
Gd257 O311 2.412 . S
Gd257 C324 2.828 . S
C258 C261 1.417 1_554 S
C258 C263 1.431 . S
C258 C264 1.412 . S
C259 C262 1.437 1_554 S
C259 C263 1.317 . S
C259 H278 0.929 . S
C260 C261 1.426 . S
C260 C262 1.413 . S
C260 N270 1.359 1_545 S
C261 C258 1.417 1_556 S
C261 C260 1.426 . S
C261 N266 1.350 . S
C262 C259 1.437 1_556 S
C262 C260 1.413 . S
C262 C272 1.391 . S
C263 C258 1.431 . S
C263 C259 1.317 . S
C263 H274 0.930 . S
C264 C258 1.412 . S
C264 C265 1.355 . S
C264 H276 0.930 . S
C265 C264 1.355 . S
C265 C267 1.402 1_554 S
C265 H277 0.930 1_455 S
N266 Gd257 2.661 1_545 S
N266 C261 1.350 . S
N266 C267 1.307 . S
C267 C265 1.402 1_556 S
C267 N266 1.307 . S
C267 H268 0.930 1_455 S
H268 C267 0.930 1_655 S
C269 N270 1.334 . S
C269 C271 1.394 . S
C269 H273 0.930 . S
N270 Gd257 2.601 . S
N270 C260 1.359 1_565 S
N270 C269 1.334 . S
C271 C269 1.394 . S
C271 C272 1.359 1_565 S
C271 H283 0.930 . S
C272 C262 1.391 . S
C272 C271 1.359 1_545 S
C272 H284 0.929 . S
H273 C269 0.930 . S
H274 C263 0.930 . S
H275 C292 0.930 1_455 S
H276 C264 0.930 . S
H277 C265 0.930 1_655 S
H278 C259 0.929 . S
H279 C297 0.930 . S
H280 C288 0.930 . S
H281 C289 0.930 1_455 S
H282 C313 0.929 . S
H283 C271 0.930 . S
H284 C272 0.929 . S
H285 C314 0.930 . S
H286 C295 0.930 . S
N287 Gd256 2.661 1_565 S
N287 C291 1.350 . S
N287 C292 1.307 . S
C288 H280 0.930 . S
C288 C289 1.355 . S
C288 C290 1.412 . S
C289 H281 0.930 1_655 S
C289 C288 1.355 . S
C289 C292 1.402 . S
C290 C288 1.412 . S
C290 C291 1.417 . S
C290 C314 1.431 . S
C291 N287 1.350 . S
C291 C290 1.417 . S
C291 C294 1.432 . S
C292 H275 0.930 1_655 S
C292 N287 1.307 . S
C292 C289 1.402 . S
N293 Gd256 2.601 . S
N293 C294 1.351 1_545 S
N293 C297 1.334 . S
C294 C291 1.432 . S
C294 N293 1.351 1_565 S
C294 C298 1.416 . S
C295 H286 0.930 . S
C295 C296 1.359 . S
C295 C297 1.394 . S
C296 C295 1.359 . S
C296 C298 1.391 1_545 S
C296 H299 0.929 . S
C297 H279 0.930 . S
C297 N293 1.334 . S
C297 C295 1.394 . S
C298 C294 1.416 . S
C298 C296 1.391 1_565 S
C298 C313 1.437 . S
H299 C296 0.929 . S
O300 Gd256 2.545 . S
O300 C315 1.258 . S
O301 Gd256 2.606 1_455 S
O301 Gd257 2.362 1_545 S
O301 C312 1.284 . S
O302 Gd257 2.324 1_655 S
O302 C322 1.254 1_565 S
O303 Gd256 2.429 . S
O303 C322 1.268 . S
O304 Gd256 2.545 1_455 S
O304 C312 1.250 . S
O305 Gd256 2.412 . S
O305 C315 1.252 . S
O306 Gd257 2.545 . S
O306 C324 1.258 . S
O307 Gd256 2.362 1_565 S
O307 Gd257 2.606 1_655 S
O307 C323 1.284 . S
O308 Gd256 2.324 1_455 S
O308 C331 1.254 . S
O309 Gd257 2.429 . S
O309 C331 1.268 1_565 S
O310 Gd257 2.545 . S
O310 C323 1.250 1_455 S
O311 Gd257 2.412 . S
O311 C324 1.252 . S
C312 O301 1.284 . S
C312 O304 1.250 . S
C313 H282 0.929 . S
C313 C298 1.437 . S
C313 C314 1.317 . S
C314 H285 0.930 . S
C314 C290 1.431 . S
C314 C313 1.317 . S
C315 Gd256 2.828 . S
C315 O300 1.258 . S
C315 O305 1.252 . S
C315 C316 1.497 . S
C316 C315 1.497 . S
C316 C317 1.395 . S
C316 C318 1.380 . S
C317 C316 1.395 . S
C317 C320 1.398 . S
C317 H332 0.930 . S
C318 C316 1.380 . S
C318 C319 1.391 . S
C318 H333 0.930 1_655 S
C319 C318 1.391 . S
C319 C321 1.387 . S
C320 C317 1.398 . S
C320 C321 1.380 . S
C320 H334 0.930 . S
C321 C319 1.387 . S
C321 C320 1.380 . S
C321 H335 0.930 . S
C322 O302 1.254 1_545 S
C322 O303 1.268 . S
C323 O307 1.284 . S
C323 O310 1.250 1_655 S
C324 Gd257 2.828 . S
C324 O306 1.258 . S
C324 O311 1.252 . S
C324 C325 1.497 . S
C325 C324 1.497 . S
C325 C326 1.395 . S
C325 C327 1.380 . S
C326 C325 1.395 . S
C326 C329 1.398 . S
C326 H336 0.930 . S
C327 C325 1.380 . S
C327 C328 1.391 1_556 S
C327 H337 0.930 . S
C328 C327 1.391 1_554 S
C328 C330 1.387 . S
C329 C326 1.398 . S
C329 C330 1.380 1_556 S
C329 H338 0.930 . S
C330 C328 1.387 . S
C330 C329 1.380 1_554 S
C330 H339 0.930 . S
C331 O308 1.254 . S
C331 O309 1.268 1_545 S
H332 C317 0.930 . S
H333 C318 0.930 1_455 S
H334 C320 0.930 . S
H335 C321 0.930 . S
H336 C326 0.930 . S
H337 C327 0.930 . S
H338 C329 0.930 . S
H339 C330 0.930 . S
Gd340 N371 2.661 . S
Gd340 N377 2.601 . S
Gd340 O384 2.545 . S
Gd340 O385 2.606 1_565 S
Gd340 O387 2.429 . S
Gd340 O388 2.537 1_565 S
Gd340 O389 2.412 . S
Gd340 O391 2.362 . S
Gd340 O392 2.324 1_565 S
Gd340 C399 2.828 . S
Gd341 N350 2.661 . S
Gd341 N354 2.601 . S
Gd341 O385 2.362 . S
Gd341 O386 2.324 1_545 S
Gd341 O390 2.545 . S
Gd341 O391 2.606 1_545 S
Gd341 O393 2.429 . S
Gd341 O394 2.545 . S
Gd341 O395 2.412 . S
Gd341 C408 2.828 . S
C342 C345 1.417 1_554 S
C342 C347 1.431 . S
C342 C348 1.412 . S
C343 C346 1.437 1_554 S
C343 C347 1.317 . S
C343 H362 0.929 . S
C344 C345 1.426 . S
C344 C346 1.413 . S
C344 N354 1.359 . S
C345 C342 1.417 1_556 S
C345 C344 1.426 . S
C345 N350 1.350 . S
C346 C343 1.437 1_556 S
C346 C344 1.413 . S
C346 C356 1.391 . S
C347 C342 1.431 . S
C347 C343 1.317 . S
C347 H358 0.930 . S
C348 C342 1.412 . S
C348 C349 1.355 . S
C348 H360 0.930 . S
C349 C348 1.355 . S
C349 C351 1.402 1_554 S
C349 H361 0.930 1_545 S
N350 Gd341 2.661 . S
N350 C345 1.350 . S
N350 C351 1.307 . S
C351 C349 1.402 1_556 S
C351 N350 1.307 . S
C351 H352 0.930 1_545 S
H352 C351 0.930 1_565 S
C353 N354 1.334 . S
C353 C355 1.394 . S
C353 H357 0.930 . S
N354 Gd341 2.601 . S
N354 C344 1.359 . S
N354 C353 1.334 . S
C355 C353 1.394 . S
C355 C356 1.359 . S
C355 H367 0.930 . S
C356 C346 1.391 . S
C356 C355 1.359 . S
C356 H368 0.929 . S
H357 C353 0.930 . S
H358 C347 0.930 . S
H359 C376 0.939 . S
H360 C348 0.930 . S
H361 C349 0.930 1_565 S
H362 C343 0.929 . S
H363 C381 0.930 . S
H364 C372 0.930 . S
H365 C373 0.930 1_545 S
H366 C397 0.929 . S
H367 C355 0.930 . S
H368 C356 0.929 . S
H369 C398 0.930 . S
H370 C379 0.930 . S
N371 Gd340 2.661 . S
N371 C375 1.350 . S
N371 C376 1.299 1_565 S
C372 H364 0.930 . S
C372 C373 1.355 . S
C372 C374 1.412 . S
C373 H365 0.930 1_565 S
C373 C372 1.355 . S
C373 C376 1.402 1_565 S
C374 C372 1.412 . S
C374 C375 1.417 . S
C374 C398 1.431 . S
C375 N371 1.350 . S
C375 C374 1.417 . S
C375 C378 1.426 . S
C376 H359 0.939 . S
C376 N371 1.299 1_545 S
C376 C373 1.402 1_545 S
N377 Gd340 2.601 . S
N377 C378 1.359 . S
N377 C381 1.334 . S
C378 C375 1.426 . S
C378 N377 1.359 . S
C378 C382 1.413 . S
C379 H370 0.930 . S
C379 C380 1.359 . S
C379 C381 1.394 . S
C380 C379 1.359 . S
C380 C382 1.391 . S
C380 H383 0.929 . S
C381 H363 0.930 . S
C381 N377 1.334 . S
C381 C379 1.394 . S
C382 C378 1.413 . S
C382 C380 1.391 . S
C382 C397 1.437 . S
H383 C380 0.929 . S
O384 Gd340 2.545 . S
O384 C399 1.258 . S
O385 Gd340 2.606 1_545 S
O385 Gd341 2.362 . S
O385 C396 1.284 . S
O386 Gd341 2.324 1_565 S
O386 C406 1.254 . S
O387 Gd340 2.429 . S
O387 C406 1.268 . S
O388 Gd340 2.537 1_545 S
O388 C396 1.264 . S
O389 Gd340 2.412 . S
O389 C399 1.252 . S
O390 Gd341 2.545 . S
O390 C408 1.258 . S
O391 Gd340 2.362 . S
O391 Gd341 2.606 1_565 S
O391 C407 1.284 . S
O392 Gd340 2.324 1_545 S
O392 C415 1.254 . S
O393 Gd341 2.429 . S
O393 C415 1.268 . S
O394 Gd341 2.545 . S
O394 C407 1.250 1_545 S
O395 Gd341 2.412 . S
O395 C408 1.252 . S
C396 O385 1.284 . S
C396 O388 1.264 . S
C397 H366 0.929 . S
C397 C382 1.437 . S
C397 C398 1.317 . S
C398 H369 0.930 . S
C398 C374 1.431 . S
C398 C397 1.317 . S
C399 Gd340 2.828 . S
C399 O384 1.258 . S
C399 O389 1.252 . S
C399 C400 1.497 . S
C400 C399 1.497 . S
C400 C401 1.395 . S
C400 C402 1.380 . S
C401 C400 1.395 . S
C401 C404 1.398 . S
C401 H416 0.930 . S
C402 C400 1.380 . S
C402 C403 1.391 . S
C402 H417 0.930 1_565 S
C403 C402 1.391 . S
C403 C405 1.387 . S
C404 C401 1.398 . S
C404 C405 1.380 . S
C404 H418 0.930 . S
C405 C403 1.387 . S
C405 C404 1.380 . S
C405 H419 0.930 . S
C406 O386 1.254 . S
C406 O387 1.268 . S
C407 O391 1.284 . S
C407 O394 1.250 1_565 S
C408 Gd341 2.828 . S
C408 O390 1.258 . S
C408 O395 1.252 . S
C408 C409 1.497 . S
C409 C408 1.497 . S
C409 C410 1.395 . S
C409 C411 1.380 . S
C410 C409 1.395 . S
C410 C413 1.398 . S
C410 H420 0.930 . S
C411 C409 1.380 . S
C411 C412 1.391 1_556 S
C411 H421 0.930 . S
C412 C411 1.391 1_554 S
C412 C414 1.387 . S
C413 C410 1.398 . S
C413 C414 1.380 1_556 S
C413 H422 0.930 . S
C414 C412 1.387 . S
C414 C413 1.380 1_554 S
C414 H423 0.930 . S
C415 O392 1.254 . S
C415 O393 1.268 . S
H416 C401 0.930 . S
H417 C402 0.930 1_545 S
H418 C404 0.930 . S
H419 C405 0.930 . S
H420 C410 0.930 . S
H421 C411 0.930 . S
H422 C413 0.930 . S
H423 C414 0.930 . S
Gd424 N455 2.661 . S
Gd424 N461 2.601 . S
Gd424 O468 2.545 . S
Gd424 O469 2.606 . S
Gd424 O471 2.429 . S
Gd424 O472 2.545 . S
Gd424 O473 2.412 . S
Gd424 O475 2.362 . S
Gd424 O476 2.324 . S
Gd424 C483 2.828 . S
Gd425 N434 2.661 . S
Gd425 N438 2.601 . S
Gd425 O469 2.362 . S
Gd425 O470 2.324 . S
Gd425 O474 2.545 . S
Gd425 O475 2.606 . S
Gd425 O477 2.429 . S
Gd425 O478 2.545 . S
Gd425 O479 2.412 . S
Gd425 C492 2.828 . S
C426 C429 1.417 . S
C426 C431 1.431 . S
C426 C432 1.412 . S
C427 C430 1.437 . S
C427 C431 1.317 . S
C427 H446 0.929 . S
C428 C429 1.426 . S
C428 C430 1.413 . S
C428 N438 1.359 . S
C429 C426 1.417 . S
C429 C428 1.426 . S
C429 N434 1.350 . S
C430 C427 1.437 . S
C430 C428 1.413 . S
C430 C440 1.391 . S
C431 C426 1.431 . S
C431 C427 1.317 . S
C431 H442 0.930 . S
C432 C426 1.412 . S
C432 C433 1.355 . S
C432 H444 0.930 . S
C433 C432 1.355 . S
C433 C435 1.402 . S
C433 H445 0.930 . S
N434 Gd425 2.661 . S
N434 C429 1.350 . S
N434 C435 1.307 . S
C435 C433 1.402 . S
C435 N434 1.307 . S
C435 H436 0.930 . S
H436 C435 0.930 . S
C437 N438 1.334 . S
C437 C439 1.394 . S
C437 H441 0.930 . S
N438 Gd425 2.601 . S
N438 C428 1.359 . S
N438 C437 1.334 . S
C439 C437 1.394 . S
C439 C440 1.359 . S
C439 H451 0.930 . S
C440 C430 1.391 . S
C440 C439 1.359 . S
C440 H452 0.929 . S
H441 C437 0.930 . S
H442 C431 0.930 . S
H443 C460 0.930 . S
H444 C432 0.930 . S
H445 C433 0.930 . S
H446 C427 0.929 . S
H447 C465 0.930 . S
H448 C456 0.930 . S
H449 C457 0.930 . S
H450 C481 0.929 . S
H451 C439 0.930 . S
H452 C440 0.929 . S
H453 C482 0.930 . S
H454 C463 0.930 . S
N455 Gd424 2.661 . S
N455 C459 1.350 . S
N455 C460 1.307 . S
C456 H448 0.930 . S
C456 C457 1.355 . S
C456 C458 1.412 . S
C457 H449 0.930 . S
C457 C456 1.355 . S
C457 C460 1.402 . S
C458 C456 1.412 . S
C458 C459 1.417 . S
C458 C482 1.431 . S
C459 N455 1.350 . S
C459 C458 1.417 . S
C459 C462 1.426 . S
C460 H443 0.930 . S
C460 N455 1.307 . S
C460 C457 1.402 . S
N461 Gd424 2.601 . S
N461 C462 1.359 . S
N461 C465 1.334 . S
C462 C459 1.426 . S
C462 N461 1.359 . S
C462 C466 1.413 . S
C463 H454 0.930 . S
C463 C464 1.359 . S
C463 C465 1.394 . S
C464 C463 1.359 . S
C464 C466 1.391 . S
C464 H467 0.929 . S
C465 H447 0.930 . S
C465 N461 1.334 . S
C465 C463 1.394 . S
C466 C462 1.413 . S
C466 C464 1.391 . S
C466 C481 1.437 . S
H467 C464 0.929 . S
O468 Gd424 2.545 . S
O468 C483 1.258 . S
O469 Gd424 2.606 . S
O469 Gd425 2.362 . S
O469 C480 1.284 . S
O470 Gd425 2.324 . S
O470 C490 1.254 . S
O471 Gd424 2.429 . S
O471 C490 1.268 . S
O472 Gd424 2.545 . S
O472 C480 1.250 . S
O473 Gd424 2.412 . S
O473 C483 1.252 . S
O474 Gd425 2.545 . S
O474 C492 1.258 . S
O475 Gd424 2.362 . S
O475 Gd425 2.606 . S
O475 C491 1.284 . S
O476 Gd424 2.324 . S
O476 C499 1.254 . S
O477 Gd425 2.429 . S
O477 C499 1.268 . S
O478 Gd425 2.545 . S
O478 C491 1.250 . S
O479 Gd425 2.412 . S
O479 C492 1.252 . S
C480 O469 1.284 . S
C480 O472 1.250 . S
C481 H450 0.929 . S
C481 C466 1.437 . S
C481 C482 1.317 . S
C482 H453 0.930 . S
C482 C458 1.431 . S
C482 C481 1.317 . S
C483 Gd424 2.828 . S
C483 O468 1.258 . S
C483 O473 1.252 . S
C483 C484 1.497 . S
C484 C483 1.497 . S
C484 C485 1.395 1_556 S
C484 C486 1.380 . S
C485 C484 1.395 1_554 S
C485 C488 1.398 . S
C485 H500 0.930 . S
C486 C484 1.380 . S
C486 C487 1.391 1_556 S
C486 H501 0.930 . S
C487 C486 1.391 1_554 S
C487 C489 1.387 . S
C488 C485 1.398 . S
C488 C489 1.380 . S
C488 H502 0.930 . S
C489 C487 1.387 . S
C489 C488 1.380 . S
C489 H503 0.930 . S
C490 O470 1.254 . S
C490 O471 1.268 . S
C491 O475 1.284 . S
C491 O478 1.250 . S
C492 Gd425 2.828 . S
C492 O474 1.258 . S
C492 O479 1.252 . S
C492 C493 1.497 . S
C493 C492 1.497 . S
C493 C494 1.395 . S
C493 C495 1.380 . S
C494 C493 1.395 . S
C494 C497 1.398 . S
C494 H504 0.930 . S
C495 C493 1.380 . S
C495 C496 1.391 . S
C495 H505 0.930 . S
C496 C495 1.391 . S
C496 C498 1.387 . S
C497 C494 1.398 . S
C497 C498 1.380 . S
C497 H506 0.930 . S
C498 C496 1.387 . S
C498 C497 1.380 . S
C498 H507 0.930 . S
C499 O476 1.254 . S
C499 O477 1.268 . S
H500 C485 0.930 . S
H501 C486 0.930 . S
H502 C488 0.930 . S
H503 C489 0.930 . S
H504 C494 0.930 . S
H505 C495 0.930 . S
H506 C497 0.930 . S
H507 C498 0.930 . S
Gd508 N539 2.661 . S
Gd508 N545 2.601 . S
Gd508 O552 2.545 . S
Gd508 O553 2.614 . S
Gd508 O555 2.429 1_655 S
Gd508 O556 2.545 . S
Gd508 O557 2.412 . S
Gd508 O559 2.362 1_655 S
Gd508 O560 2.324 . S
Gd508 C567 2.828 . S
Gd509 N518 2.661 . S
Gd509 N522 2.601 . S
Gd509 O553 2.349 1_455 S
Gd509 O554 2.324 . S
Gd509 O558 2.545 . S
Gd509 O559 2.606 . S
Gd509 O561 2.429 1_455 S
Gd509 O562 2.545 . S
Gd509 O563 2.412 . S
Gd509 C576 2.828 . S
C510 C513 1.417 . S
C510 C515 1.431 . S
C510 C516 1.412 . S
C511 C514 1.437 . S
C511 C515 1.317 . S
C511 H530 0.929 . S
C512 C513 1.426 . S
C512 C514 1.413 . S
C512 N522 1.359 . S
C513 C510 1.417 . S
C513 C512 1.426 . S
C513 N518 1.350 . S
C514 C511 1.437 . S
C514 C512 1.413 . S
C514 C524 1.391 . S
C515 C510 1.431 . S
C515 C511 1.317 . S
C515 H526 0.930 . S
C516 C510 1.412 . S
C516 C517 1.355 . S
C516 H528 0.930 . S
C517 C516 1.355 . S
C517 C519 1.402 . S
C517 H529 0.930 . S
N518 Gd509 2.661 . S
N518 C513 1.350 . S
N518 C519 1.307 . S
C519 C517 1.402 . S
C519 N518 1.307 . S
C519 H520 0.930 . S
H520 C519 0.930 . S
C521 N522 1.334 1_655 S
C521 C523 1.394 . S
C521 H525 0.930 . S
N522 Gd509 2.601 . S
N522 C512 1.359 . S
N522 C521 1.334 1_455 S
C523 C521 1.394 . S
C523 C524 1.359 1_655 S
C523 H535 0.930 . S
C524 C514 1.391 . S
C524 C523 1.359 1_455 S
C524 H536 0.929 . S
H525 C521 0.930 . S
H526 C515 0.930 . S
H527 C544 0.930 . S
H528 C516 0.930 . S
H529 C517 0.930 . S
H530 C511 0.929 . S
H531 C549 0.930 . S
H532 C540 0.930 . S
H533 C541 0.930 . S
H534 C565 0.929 . S
H535 C523 0.930 . S
H536 C524 0.929 . S
H537 C566 0.930 . S
H538 C547 0.930 . S
N539 Gd508 2.661 . S
N539 C543 1.350 . S
N539 C544 1.307 . S
C540 H532 0.930 . S
C540 C541 1.355 . S
C540 C542 1.412 . S
C541 H533 0.930 . S
C541 C540 1.355 . S
C541 C544 1.402 . S
C542 C540 1.412 . S
C542 C543 1.417 . S
C542 C566 1.431 . S
C543 N539 1.350 . S
C543 C542 1.417 . S
C543 C546 1.426 . S
C544 H527 0.930 . S
C544 N539 1.307 . S
C544 C541 1.402 . S
N545 Gd508 2.601 . S
N545 C546 1.359 . S
N545 C549 1.334 1_655 S
C546 C543 1.426 . S
C546 N545 1.359 . S
C546 C550 1.413 . S
C547 H538 0.930 . S
C547 C548 1.359 . S
C547 C549 1.394 . S
C548 C547 1.359 . S
C548 C550 1.391 1_455 S
C548 H551 0.929 . S
C549 H531 0.930 . S
C549 N545 1.334 1_455 S
C549 C547 1.394 . S
C550 C546 1.413 . S
C550 C548 1.391 1_655 S
C550 C565 1.437 . S
H551 C548 0.929 . S
O552 Gd508 2.545 . S
O552 C567 1.258 . S
O553 Gd508 2.614 . S
O553 Gd509 2.349 1_655 S
O553 C564 1.294 . S
O554 Gd509 2.324 . S
O554 C574 1.254 . S
O555 Gd508 2.429 1_455 S
O555 C574 1.268 . S
O556 Gd508 2.545 . S
O556 C564 1.250 . S
O557 Gd508 2.412 . S
O557 C567 1.252 . S
O558 Gd509 2.545 . S
O558 C576 1.258 . S
O559 Gd508 2.362 1_455 S
O559 Gd509 2.606 . S
O559 C575 1.284 . S
O560 Gd508 2.324 . S
O560 C583 1.254 . S
O561 Gd509 2.429 1_655 S
O561 C583 1.268 . S
O562 Gd509 2.545 . S
O562 C575 1.250 . S
O563 Gd509 2.412 . S
O563 C576 1.252 . S
C564 O553 1.294 . S
C564 O556 1.250 . S
C565 H534 0.929 . S
C565 C550 1.437 . S
C565 C566 1.317 . S
C566 H537 0.930 . S
C566 C542 1.431 . S
C566 C565 1.317 . S
C567 Gd508 2.828 . S
C567 O552 1.258 . S
C567 O557 1.252 . S
C567 C568 1.497 . S
C568 C567 1.497 . S
C568 C569 1.395 1_556 S
C568 C570 1.380 . S
C569 C568 1.395 1_554 S
C569 C572 1.398 . S
C569 H584 0.930 . S
C570 C568 1.380 . S
C570 C571 1.391 1_556 S
C570 H585 0.930 . S
C571 C570 1.391 1_554 S
C571 C573 1.387 . S
C572 C569 1.398 . S
C572 C573 1.380 . S
C572 H586 0.930 . S
C573 C571 1.387 . S
C573 C572 1.380 . S
C573 H587 0.930 . S
C574 O554 1.254 . S
C574 O555 1.268 . S
C575 O559 1.284 . S
C575 O562 1.250 . S
C576 Gd509 2.828 . S
C576 O558 1.258 . S
C576 O563 1.252 . S
C576 C577 1.497 . S
C577 C576 1.497 . S
C577 C578 1.395 . S
C577 C579 1.380 . S
C578 C577 1.395 . S
C578 C581 1.398 . S
C578 H588 0.930 . S
C579 C577 1.380 . S
C579 C580 1.391 . S
C579 H589 0.930 . S
C580 C579 1.391 . S
C580 C582 1.387 . S
C581 C578 1.398 . S
C581 C582 1.380 . S
C581 H590 0.930 . S
C582 C580 1.387 . S
C582 C581 1.380 . S
C582 H591 0.930 . S
C583 O560 1.254 . S
C583 O561 1.268 . S
H584 C569 0.930 . S
H585 C570 0.930 . S
H586 C572 0.930 . S
H587 C573 0.930 . S
H588 C578 0.930 . S
H589 C579 0.930 . S
H590 C581 0.930 . S
H591 C582 0.930 . S
C592 C593 1.363 . S
C592 C598 1.379 . S
C592 N600 1.356 . S
C593 C592 1.363 . S
C593 C599 1.363 . S
C594 C595 1.363 . S
C594 C599 1.379 . S
C594 N601 1.356 . S
C595 C594 1.363 . S
C595 C598 1.363 . S
N596 C598 1.356 1_565 S
N596 H608 0.984 . S
N596 H609 0.985 . S
N597 C599 1.356 . S
N597 H602 0.984 . S
N597 H603 0.985 . S
C598 C592 1.379 . S
C598 C595 1.363 . S
C598 N596 1.356 1_545 S
C599 C593 1.363 . S
C599 C594 1.379 . S
C599 N597 1.356 . S
N600 C592 1.356 . S
N600 H606 0.984 1_545 S
N600 H607 0.984 . S
N601 C594 1.356 . S
N601 H604 0.984 . S
N601 H605 0.985 . S
H602 N597 0.984 . S
H603 N597 0.985 . S
H604 N601 0.984 . S
H605 N601 0.985 . S
H606 N600 0.984 1_565 S
H607 N600 0.984 . S
H608 N596 0.984 . S
H609 N596 0.985 . S
C610 C611 1.363 . S
C610 C616 1.379 . S
C610 N618 1.356 . S
C611 C610 1.363 . S
C611 C617 1.363 . S
C612 C613 1.363 . S
C612 C617 1.379 . S
C612 N619 1.356 . S
C613 C612 1.363 . S
C613 C616 1.363 . S
N614 C616 1.356 . S
N614 H626 0.984 . S
N614 H627 0.985 . S
N615 C617 1.356 . S
N615 H620 0.984 . S
N615 H621 0.985 . S
C616 C610 1.379 . S
C616 C613 1.363 . S
C616 N614 1.356 . S
C617 C611 1.363 . S
C617 C612 1.379 . S
C617 N615 1.356 . S
N618 C610 1.356 . S
N618 H624 0.984 . S
N618 H625 0.984 . S
N619 C612 1.356 . S
N619 H622 0.984 . S
N619 H623 0.985 . S
H620 N615 0.984 . S
H621 N615 0.985 . S
H622 N619 0.984 . S
H623 N619 0.985 . S
H624 N618 0.984 . S
H625 N618 0.984 . S
H626 N614 0.984 . S
H627 N614 0.985 . S
C628 C629 1.363 . S
C628 C634 1.379 . S
C628 N636 1.356 . S
C629 C628 1.363 . S
C629 C635 1.363 . S
C630 C631 1.363 . S
C630 C635 1.379 . S
C630 N637 1.356 . S
C631 C630 1.363 . S
C631 C634 1.363 . S
N632 C634 1.356 . S
N632 H644 0.984 . S
N632 H645 0.985 . S
N633 C635 1.356 . S
N633 H638 0.984 . S
N633 H639 0.985 . S
C634 C628 1.379 . S
C634 C631 1.363 . S
C634 N632 1.356 . S
C635 C629 1.363 . S
C635 C630 1.379 . S
C635 N633 1.356 . S
N636 C628 1.356 . S
N636 H642 0.984 . S
N636 H643 0.984 . S
N637 C630 1.356 . S
N637 H640 0.984 . S
N637 H641 0.985 . S
H638 N633 0.984 . S
H639 N633 0.985 . S
H640 N637 0.984 . S
H641 N637 0.985 . S
H642 N636 0.984 . S
H643 N636 0.984 . S
H644 N632 0.984 . S
H645 N632 0.985 . S
C646 C647 1.363 . S
C646 C652 1.379 . S
C646 N654 1.356 . S
C647 C646 1.363 . S
C647 C653 1.363 . S
C648 C649 1.363 . S
C648 C653 1.379 . S
C648 N655 1.356 . S
C649 C648 1.363 . S
C649 C652 1.363 . S
N650 C652 1.356 . S
N650 H662 0.984 . S
N650 H663 0.985 . S
N651 C653 1.356 . S
N651 H656 0.984 . S
N651 H657 0.985 . S
C652 C646 1.379 . S
C652 C649 1.363 . S
C652 N650 1.356 . S
C653 C647 1.363 . S
C653 C648 1.379 . S
C653 N651 1.356 . S
N654 C646 1.356 . S
N654 H660 0.984 . S
N654 H661 0.984 . S
N655 C648 1.356 . S
N655 H658 0.984 . S
N655 H659 0.985 . S
H656 N651 0.984 . S
H657 N651 0.985 . S
H658 N655 0.984 . S
H659 N655 0.985 . S
H660 N654 0.984 . S
H661 N654 0.984 . S
H662 N650 0.984 . S
H663 N650 0.985 . S
C664 C665 1.363 . S
C664 C670 1.387 1_554 S
C664 N672 1.356 1_565 S
C665 C664 1.363 . S
C665 C671 1.363 . S
C666 C667 1.363 . S
C666 C671 1.379 1_556 S
C666 N673 1.356 . S
C667 C666 1.363 . S
C667 C670 1.381 . S
N668 C670 1.334 1_545 S
N668 H680 0.984 . S
N668 H681 0.985 . S
N669 C671 1.356 . S
N669 H674 0.984 . S
N669 H675 0.985 . S
C670 C664 1.387 1_556 S
C670 C667 1.381 . S
C670 N668 1.334 1_565 S
C671 C665 1.363 . S
C671 C666 1.379 1_554 S
C671 N669 1.356 . S
N672 C664 1.356 1_545 S
N672 H678 0.984 . S
N672 H679 0.984 1_545 S
N673 C666 1.356 . S
N673 H676 0.984 . S
N673 H677 0.985 . S
H674 N669 0.984 . S
H675 N669 0.985 . S
H676 N673 0.984 . S
H677 N673 0.985 . S
H678 N672 0.984 . S
H679 N672 0.984 1_565 S
H680 N668 0.984 . S
H681 N668 0.985 . S
C682 C683 1.363 . S
C682 C688 1.379 1_554 S
C682 N690 1.356 . S
C683 C682 1.363 . S
C683 C689 1.363 . S
C684 C685 1.363 . S
C684 C689 1.379 1_556 S
C684 N691 1.356 . S
C685 C684 1.363 . S
C685 C688 1.363 . S
N686 C688 1.356 . S
N686 H698 0.984 . S
N686 H699 0.985 . S
N687 C689 1.356 . S
N687 H692 0.984 . S
N687 H693 0.985 . S
C688 C682 1.379 1_556 S
C688 C685 1.363 . S
C688 N686 1.356 . S
C689 C683 1.363 . S
C689 C684 1.379 1_554 S
C689 N687 1.356 . S
N690 C682 1.356 . S
N690 H696 0.984 . S
N690 H697 0.984 . S
N691 C684 1.356 . S
N691 H694 0.984 . S
N691 H695 0.985 . S
H692 N687 0.984 . S
H693 N687 0.985 . S
H694 N691 0.984 . S
H695 N691 0.985 . S
H696 N690 0.984 . S
H697 N690 0.984 . S
H698 N686 0.984 . S
H699 N686 0.985 . S
C700 C701 1.363 . S
C700 C706 1.379 1_554 S
C700 N708 1.356 . S
C701 C700 1.363 . S
C701 C707 1.363 . S
C702 C703 1.363 . S
C702 C707 1.379 1_556 S
C702 N709 1.356 . S
C703 C702 1.363 . S
C703 C706 1.363 . S
N704 C706 1.356 . S
N704 H716 0.984 . S
N704 H717 0.985 . S
N705 C707 1.356 . S
N705 H710 0.984 . S
N705 H711 0.985 . S
C706 C700 1.379 1_556 S
C706 C703 1.363 . S
C706 N704 1.356 . S
C707 C701 1.363 . S
C707 C702 1.379 1_554 S
C707 N705 1.356 . S
N708 C700 1.356 . S
N708 H714 0.984 . S
N708 H715 0.984 . S
N709 C702 1.356 . S
N709 H712 0.984 . S
N709 H713 0.985 . S
H710 N705 0.984 . S
H711 N705 0.985 . S
H712 N709 0.984 . S
H713 N709 0.985 . S
H714 N708 0.984 . S
H715 N708 0.984 . S
H716 N704 0.984 . S
H717 N704 0.985 . S
C718 C719 1.363 . S
C718 C724 1.379 1_554 S
C718 N726 1.356 . S
C719 C718 1.363 . S
C719 C725 1.363 . S
C720 C721 1.363 . S
C720 C725 1.379 1_556 S
C720 N727 1.356 . S
C721 C720 1.363 . S
C721 C724 1.363 . S
N722 C724 1.356 1_455 S
N722 H734 0.984 . S
N722 H735 0.985 . S
N723 C725 1.356 . S
N723 H728 0.984 . S
N723 H729 0.985 . S
C724 C718 1.379 1_556 S
C724 C721 1.363 . S
C724 N722 1.356 1_655 S
C725 C719 1.363 . S
C725 C720 1.379 1_554 S
C725 N723 1.356 . S
N726 C718 1.356 . S
N726 H732 0.984 1_655 S
N726 H733 0.984 . S
N727 C720 1.356 . S
N727 H730 0.984 . S
N727 H731 0.985 . S
H728 N723 0.984 . S
H729 N723 0.985 . S
H730 N727 0.984 . S
H731 N727 0.985 . S
H732 N726 0.984 1_455 S
H733 N726 0.984 . S
H734 N722 0.984 . S
H735 N722 0.985 . S
C736 C737 1.363 . S
C736 C742 1.379 . S
C736 N744 1.356 . S
C737 C736 1.363 . S
C737 C743 1.363 . S
C738 C739 1.346 1_455 S
C738 C743 1.379 . S
C738 N745 1.356 . S
C739 C738 1.346 1_655 S
C739 C742 1.355 1_655 S
N740 C742 1.356 1_655 S
N740 H752 0.984 . S
N740 H753 0.985 . S
N741 C743 1.356 . S
N741 H746 0.984 . S
N741 H747 0.985 . S
C742 C736 1.379 . S
C742 C739 1.355 1_455 S
C742 N740 1.356 1_455 S
C743 C737 1.363 . S
C743 C738 1.379 . S
C743 N741 1.356 . S
N744 C736 1.356 . S
N744 H750 0.984 . S
N744 H751 0.984 . S
N745 C738 1.356 . S
N745 H748 0.984 1_455 S
N745 H749 0.985 . S
H746 N741 0.984 . S
H747 N741 0.985 . S
H748 N745 0.984 1_655 S
H749 N745 0.985 . S
H750 N744 0.984 . S
H751 N744 0.984 . S
H752 N740 0.984 . S
H753 N740 0.985 . S
C754 C755 1.363 . S
C754 C760 1.379 1_545 S
C754 N762 1.356 . S
C755 C754 1.363 . S
C755 C761 1.363 . S
C756 C757 1.363 1_545 S
C756 C761 1.379 . S
C756 N763 1.356 . S
C757 C756 1.363 1_565 S
C757 C760 1.363 . S
N758 C760 1.356 . S
N758 H770 0.984 . S
N758 H771 0.985 . S
N759 C761 1.356 . S
N759 H764 0.984 . S
N759 H765 0.985 . S
C760 C754 1.379 1_565 S
C760 C757 1.363 . S
C760 N758 1.356 . S
C761 C755 1.363 . S
C761 C756 1.379 . S
C761 N759 1.356 . S
N762 C754 1.356 . S
N762 H768 0.984 . S
N762 H769 0.984 . S
N763 C756 1.356 . S
N763 H766 0.984 1_545 S
N763 H767 0.985 . S
H764 N759 0.984 . S
H765 N759 0.985 . S
H766 N763 0.984 1_565 S
H767 N763 0.985 . S
H768 N762 0.984 . S
H769 N762 0.984 . S
H770 N758 0.984 . S
H771 N758 0.985 . S
C772 C773 1.363 . S
C772 C778 1.379 . S
C772 N780 1.356 . S
C773 C772 1.363 . S
C773 C779 1.363 . S
C774 C775 1.363 . S
C774 C779 1.379 . S
C774 N781 1.356 . S
C775 C774 1.363 . S
C775 C778 1.363 . S
N776 C778 1.356 . S
N776 H788 0.984 . S
N776 H789 0.985 . S
N777 C779 1.356 . S
N777 H782 0.984 . S
N777 H783 0.985 . S
C778 C772 1.379 . S
C778 C775 1.363 . S
C778 N776 1.356 . S
C779 C773 1.363 . S
C779 C774 1.379 . S
C779 N777 1.356 . S
N780 C772 1.356 . S
N780 H786 0.984 . S
N780 H787 0.984 . S
N781 C774 1.356 . S
N781 H784 0.984 . S
N781 H785 0.985 . S
H782 N777 0.984 . S
H783 N777 0.985 . S
H784 N781 0.984 . S
H785 N781 0.985 . S
H786 N780 0.984 . S
H787 N780 0.984 . S
H788 N776 0.984 . S
H789 N776 0.985 . S
C790 C791 1.363 . S
C790 C796 1.379 . S
C790 N798 1.356 . S
C791 C790 1.363 . S
C791 C797 1.363 . S
C792 C793 1.363 . S
C792 C797 1.379 . S
C792 N799 1.356 . S
C793 C792 1.363 . S
C793 C796 1.363 . S
N794 C796 1.356 . S
N794 H806 0.984 . S
N794 H807 0.985 . S
N795 C797 1.356 . S
N795 H800 0.984 . S
N795 H801 0.985 . S
C796 C790 1.379 . S
C796 C793 1.363 . S
C796 N794 1.356 . S
C797 C791 1.363 . S
C797 C792 1.379 . S
C797 N795 1.356 . S
N798 C790 1.356 . S
N798 H804 0.984 . S
N798 H805 0.984 . S
N799 C792 1.356 . S
N799 H802 0.984 . S
N799 H803 0.985 . S
H800 N795 0.984 . S
H801 N795 0.985 . S
H802 N799 0.984 . S
H803 N799 0.985 . S
H804 N798 0.984 . S
H805 N798 0.984 . S
H806 N794 0.984 . S
H807 N794 0.985 . S
C808 C809 1.363 . S
C808 C814 1.379 . S
C808 N816 1.356 . S
C809 C808 1.363 . S
C809 C815 1.363 . S
C810 C811 1.363 . S
C810 C815 1.379 1_455 S
C810 N817 1.356 1_554 S
C811 C810 1.363 . S
C811 C814 1.363 1_455 S
N812 C814 1.356 . S
N812 H824 0.984 . S
N812 H825 0.985 1_655 S
N813 C815 1.356 . S
N813 H818 0.984 . S
N813 H819 0.985 1_554 S
C814 C808 1.379 . S
C814 C811 1.363 1_655 S
C814 N812 1.356 . S
C815 C809 1.363 . S
C815 C810 1.379 1_655 S
C815 N813 1.356 . S
N816 C808 1.356 . S
N816 H822 0.984 . S
N816 H823 0.984 . S
N817 C810 1.356 1_556 S
N817 H820 0.984 . S
N817 H821 0.985 . S
H818 N813 0.984 . S
H819 N813 0.985 1_556 S
H820 N817 0.984 . S
H821 N817 0.985 . S
H822 N816 0.984 . S
H823 N816 0.984 . S
H824 N812 0.984 . S
H825 N812 0.985 1_455 S
C826 C827 1.363 . S
C826 C832 1.406 . S
C826 N834 1.356 . S
C827 C826 1.363 . S
C827 C833 1.363 . S
C828 C829 1.363 1_556 S
C828 C833 1.379 1_546 S
C828 N835 1.356 . S
C829 C828 1.363 1_554 S
C829 C832 1.346 1_545 S
N830 C832 1.339 1_545 S
N830 H842 0.984 . S
N830 H843 0.985 . S
N831 C833 1.356 1_556 S
N831 H836 0.984 1_556 S
N831 H837 0.985 . S
C832 C826 1.406 . S
C832 C829 1.346 1_565 S
C832 N830 1.339 1_565 S
C833 C827 1.363 . S
C833 C828 1.379 1_564 S
C833 N831 1.356 1_554 S
N834 C826 1.356 . S
N834 H840 0.984 . S
N834 H841 0.984 . S
N835 C828 1.356 . S
N835 H838 0.984 . S
N835 H839 0.985 . S
H836 N831 0.984 1_554 S
H837 N831 0.985 . S
H838 N835 0.984 . S
H839 N835 0.985 . S
H840 N834 0.984 . S
H841 N834 0.984 . S
H842 N830 0.984 . S
H843 N830 0.985 . S
C844 C845 1.363 . S
C844 C850 1.379 . S
C844 N852 1.356 . S
C845 C844 1.363 . S
C845 C851 1.363 . S
C846 C847 1.363 1_556 S
C846 C851 1.379 1_556 S
C846 N853 1.356 . S
C847 C846 1.363 1_554 S
C847 C850 1.363 . S
N848 C850 1.356 . S
N848 H860 0.984 . S
N848 H861 0.985 . S
N849 C851 1.356 1_556 S
N849 H854 0.984 . S
N849 H855 0.985 . S
C850 C844 1.379 . S
C850 C847 1.363 . S
C850 N848 1.356 . S
C851 C845 1.363 . S
C851 C846 1.379 1_554 S
C851 N849 1.356 1_554 S
N852 C844 1.356 . S
N852 H858 0.984 . S
N852 H859 0.984 . S
N853 C846 1.356 . S
N853 H856 0.984 . S
N853 H857 0.985 . S
H854 N849 0.984 . S
H855 N849 0.985 . S
H856 N853 0.984 . S
H857 N853 0.985 . S
H858 N852 0.984 . S
H859 N852 0.984 . S
H860 N848 0.984 . S
H861 N848 0.985 . S
C862 C863 1.363 . S
C862 C868 1.379 1_554 S
C862 N870 1.356 1_554 S
C863 C862 1.363 . S
C863 C869 1.363 . S
C864 C865 1.363 . S
C864 C869 1.379 . S
C864 N871 1.356 . S
C865 C864 1.363 . S
C865 C868 1.363 1_554 S
N866 C868 1.356 . S
N866 H878 0.984 . S
N866 H879 0.985 . S
N867 C869 1.356 . S
N867 H872 0.984 . S
N867 H873 0.985 . S
C868 C862 1.379 1_556 S
C868 C865 1.363 1_556 S
C868 N866 1.356 . S
C869 C863 1.363 . S
C869 C864 1.379 . S
C869 N867 1.356 . S
N870 C862 1.356 1_556 S
N870 H876 0.984 . S
N870 H877 0.984 . S
N871 C864 1.356 . S
N871 H874 0.984 . S
N871 H875 0.985 . S
H872 N867 0.984 . S
H873 N867 0.985 . S
H874 N871 0.984 . S
H875 N871 0.985 . S
H876 N870 0.984 . S
H877 N870 0.984 . S
H878 N866 0.984 . S
H879 N866 0.985 . S
C880 C881 1.363 . S
C880 C886 1.379 . S
C880 N888 1.356 . S
C881 C880 1.363 . S
C881 C887 1.363 . S
C882 C883 1.363 . S
C882 C887 1.379 . S
C882 N889 1.356 . S
C883 C882 1.363 . S
C883 C886 1.363 . S
N884 C886 1.356 . S
N884 H896 0.969 1_455 S
N884 H897 0.985 . S
N885 C887 1.356 . S
N885 H890 0.984 . S
N885 H891 0.985 . S
C886 C880 1.379 . S
C886 C883 1.363 . S
C886 N884 1.356 . S
C887 C881 1.363 . S
C887 C882 1.379 . S
C887 N885 1.356 . S
N888 C880 1.356 . S
N888 H894 0.984 . S
N888 H895 0.984 . S
N889 C882 1.356 . S
N889 H892 0.984 . S
N889 H893 0.985 . S
H890 N885 0.984 . S
H891 N885 0.985 . S
H892 N889 0.984 . S
H893 N889 0.985 . S
H894 N888 0.984 . S
H895 N888 0.984 . S
H896 N884 0.969 1_655 S
H897 N884 0.985 . S
C898 C899 1.363 . S
C898 C904 1.379 . S
C898 N906 1.356 . S
C899 C898 1.363 . S
C899 C905 1.363 . S
C900 C901 1.363 . S
C900 C905 1.379 . S
C900 N907 1.356 . S
C901 C900 1.363 . S
C901 C904 1.363 . S
N902 C904 1.356 . S
N902 H914 0.984 . S
N902 H915 0.985 . S
N903 C905 1.356 . S
N903 H908 0.984 . S
N903 H909 0.985 . S
C904 C898 1.379 . S
C904 C901 1.363 . S
C904 N902 1.356 . S
C905 C899 1.363 . S
C905 C900 1.379 . S
C905 N903 1.356 . S
N906 C898 1.356 . S
N906 H912 0.984 . S
N906 H913 0.984 . S
N907 C900 1.356 . S
N907 H910 0.984 . S
N907 H911 0.985 . S
H908 N903 0.984 . S
H909 N903 0.985 . S
H910 N907 0.984 . S
H911 N907 0.985 . S
H912 N906 0.984 . S
H913 N906 0.984 . S
H914 N902 0.984 . S
H915 N902 0.985 . S
C916 C917 1.363 . S
C916 C922 1.379 . S
C916 N924 1.356 . S
C917 C916 1.363 . S
C917 C923 1.363 . S
C918 C919 1.363 . S
C918 C923 1.379 . S
C918 N925 1.356 . S
C919 C918 1.363 . S
C919 C922 1.363 . S
N920 C922 1.356 . S
N920 H932 0.984 . S
N920 H933 0.985 . S
N921 C923 1.356 . S
N921 H926 0.984 . S
N921 H927 0.985 . S
C922 C916 1.379 . S
C922 C919 1.363 . S
C922 N920 1.356 . S
C923 C917 1.363 . S
C923 C918 1.379 . S
C923 N921 1.356 . S
N924 C916 1.356 . S
N924 H930 0.984 . S
N924 H931 0.984 . S
N925 C918 1.356 . S
N925 H928 0.984 . S
N925 H929 0.985 . S
H926 N921 0.984 . S
H927 N921 0.985 . S
H928 N925 0.984 . S
H929 N925 0.985 . S
H930 N924 0.984 . S
H931 N924 0.984 . S
H932 N920 0.984 . S
H933 N920 0.985 . S
C934 C935 1.363 . S
C934 C940 1.379 . S
C934 N942 1.356 . S
C935 C934 1.363 . S
C935 C941 1.363 . S
C936 C937 1.363 . S
C936 C941 1.379 . S
C936 N943 1.356 . S
C937 C936 1.363 . S
C937 C940 1.363 . S
N938 C940 1.356 . S
N938 H950 0.984 . S
N938 H951 0.985 . S
N939 C941 1.356 . S
N939 H944 0.984 . S
N939 H945 0.985 . S
C940 C934 1.379 . S
C940 C937 1.363 . S
C940 N938 1.356 . S
C941 C935 1.363 . S
C941 C936 1.379 . S
C941 N939 1.356 . S
N942 C934 1.356 . S
N942 H948 0.984 . S
N942 H949 0.984 . S
N943 C936 1.356 . S
N943 H946 0.984 . S
N943 H947 0.985 . S
H944 N939 0.984 . S
H945 N939 0.985 . S
H946 N943 0.984 . S
H947 N943 0.985 . S
H948 N942 0.984 . S
H949 N942 0.984 . S
H950 N938 0.984 . S
H951 N938 0.985 . S
C952 C953 1.363 . S
C952 C958 1.379 . S
C952 N960 1.356 . S
C953 C952 1.363 . S
C953 C959 1.363 . S
C954 C955 1.363 . S
C954 C959 1.379 . S
C954 N961 1.356 . S
C955 C954 1.363 . S
C955 C958 1.363 . S
N956 C958 1.356 . S
N956 H968 0.984 1_655 S
N956 H969 0.985 . S
N957 C959 1.356 . S
N957 H962 0.984 . S
N957 H963 0.985 . S
C958 C952 1.379 . S
C958 C955 1.363 . S
C958 N956 1.356 . S
C959 C953 1.363 . S
C959 C954 1.379 . S
C959 N957 1.356 . S
N960 C952 1.356 . S
N960 H966 0.984 . S
N960 H967 0.984 . S
N961 C954 1.356 . S
N961 H964 0.984 . S
N961 H965 0.985 . S
H962 N957 0.984 . S
H963 N957 0.985 . S
H964 N961 0.984 . S
H965 N961 0.985 . S
H966 N960 0.984 . S
H967 N960 0.984 . S
H968 N956 0.984 1_455 S
H969 N956 0.985 . S
C970 C971 1.363 . S
C970 C976 1.379 . S
C970 N978 1.356 . S
C971 C970 1.363 . S
C971 C977 1.363 . S
C972 C973 1.363 . S
C972 C977 1.379 . S
C972 N979 1.356 1_565 S
C973 C972 1.363 . S
C973 C976 1.363 . S
N974 C976 1.356 . S
N974 H986 0.984 . S
N974 H987 0.985 . S
N975 C977 1.356 1_545 S
N975 H980 0.975 1_545 S
N975 H981 0.985 . S
C976 C970 1.379 . S
C976 C973 1.363 . S
C976 N974 1.356 . S
C977 C971 1.363 . S
C977 C972 1.379 . S
C977 N975 1.356 1_565 S
N978 C970 1.356 . S
N978 H984 0.984 . S
N978 H985 0.984 . S
N979 C972 1.356 1_545 S
N979 H982 0.984 . S
N979 H983 0.985 . S
H980 N975 0.975 1_565 S
H981 N975 0.985 . S
H982 N979 0.984 . S
H983 N979 0.985 . S
H984 N978 0.984 . S
H985 N978 0.984 . S
H986 N974 0.984 . S
H987 N974 0.985 . S
C988 C989 1.363 . S
C988 C994 1.379 . S
C988 N996 1.356 . S
C989 C988 1.363 . S
C989 C995 1.363 . S
C990 C991 1.363 . S
C990 C995 1.379 . S
C990 N997 1.356 . S
C991 C990 1.363 . S
C991 C994 1.363 . S
N992 C994 1.356 . S
N992 H1004 0.984 . S
N992 H1005 0.985 . S
N993 C995 1.356 . S
N993 H998 0.984 . S
N993 H999 0.985 . S
C994 C988 1.379 . S
C994 C991 1.363 . S
C994 N992 1.356 . S
C995 C989 1.363 . S
C995 C990 1.379 . S
C995 N993 1.356 . S
N996 C988 1.356 . S
N996 H1002 0.984 . S
N996 H1003 0.984 . S
N997 C990 1.356 . S
N997 H1000 0.984 . S
N997 H1001 0.985 . S
H998 N993 0.984 . S
H999 N993 0.985 . S
H1000 N997 0.984 . S
H1001 N997 0.985 . S
H1002 N996 0.984 . S
H1003 N996 0.984 . S
H1004 N992 0.984 . S
H1005 N992 0.985 . S
C1006 C1007 1.363 . S
C1006 C1012 1.379 . S
C1006 N1014 1.356 . S
C1007 C1006 1.363 . S
C1007 C1013 1.363 . S
C1008 C1009 1.363 . S
C1008 C1013 1.379 . S
C1008 N1015 1.356 . S
C1009 C1008 1.363 . S
C1009 C1012 1.363 . S
N1010 C1012 1.356 . S
N1010 H1022 0.984 . S
N1010 H1023 0.985 . S
N1011 C1013 1.356 . S
N1011 H1016 0.984 . S
N1011 H1017 0.985 . S
C1012 C1006 1.379 . S
C1012 C1009 1.363 . S
C1012 N1010 1.356 . S
C1013 C1007 1.363 . S
C1013 C1008 1.379 . S
C1013 N1011 1.356 . S
N1014 C1006 1.356 . S
N1014 H1020 0.984 . S
N1014 H1021 0.984 . S
N1015 C1008 1.356 . S
N1015 H1018 0.984 . S
N1015 H1019 0.985 . S
H1016 N1011 0.984 . S
H1017 N1011 0.985 . S
H1018 N1015 0.984 . S
H1019 N1015 0.985 . S
H1020 N1014 0.984 . S
H1021 N1014 0.984 . S
H1022 N1010 0.984 . S
H1023 N1010 0.985 . S
C593 C215 2.410 . S
C595 C331 2.475 . S
C613 C415 2.483 . S
C611 C247 2.419 . S
C631 C491 2.309 . S
C629 C151 2.493 . S
C649 C575 2.306 . S
C647 C183 2.486 . S
C667 C322 2.476 1_565 S
C665 C87 2.309 . S
C683 C119 2.305 . S
C685 C406 2.483 . S
C701 C23 2.369 . S
C703 C480 2.309 . S
C719 C55 2.372 . S
C721 C564 2.306 . S
C739 C319 1.114 . S
C737 C189 1.049 . S
C757 C403 1.033 . S
C755 C221 0.999 . S
C775 C496 1.003 . S
C773 C253 0.978 . S
C791 C157 1.022 . S
C793 C580 1.054 . S
C809 C61 0.871 . S
C811 C328 1.091 . S
C829 C412 1.033 . S
C827 C93 0.849 . S
C847 C487 1.004 . S
C845 C125 0.833 . S
C863 C29 0.852 . S
C865 C571 1.054 . S
C881 C177 2.713 . S
C883 C312 2.821 . S
C899 C209 2.688 . S
C901 C396 2.801 . S
C919 C490 2.949 . S
C917 C241 2.607 . S
C937 C574 2.967 . S
C935 C145 2.629 . S
C953 C49 2.638 . S
C955 C323 2.821 . S
C973 C407 2.801 . S
C971 C81 2.624 . S
C991 C499 2.949 . S
C989 C113 2.531 . S
C1007 C17 2.545 . S
C1009 C583 2.967 . S
