# Generated by pormake.
# Topology nom, (4,4)-cn, num edge types: 1
# Building blocks:
#     Node 0, Type 0, BuildingBlock: NAWXER_clean_linker_0, # of connection points: 4
#     Node 1, Type 0, BuildingBlock: NAWXER_clean_linker_0, # of connection points: 4
#     Node 2, Type 0, BuildingBlock: NAWXER_clean_linker_0, # of connection points: 4
#     Node 3, Type 0, BuildingBlock: NAWXER_clean_linker_0, # of connection points: 4
#     Node 4, Type 0, BuildingBlock: NAWXER_clean_linker_0, # of connection points: 4
#     Node 5, Type 0, BuildingBlock: NAWXER_clean_linker_0, # of connection points: 4
#     Node 6, Type 1, BuildingBlock: CEKHIL_clean_sbu_0, # of connection points: 4
#     Node 7, Type 1, BuildingBlock: CEKHIL_clean_sbu_0, # of connection points: 4
#     Node 8, Type 1, BuildingBlock: CEKHIL_clean_sbu_0, # of connection points: 4
#     Node 9, Type 1, BuildingBlock: CEKHIL_clean_sbu_0, # of connection points: 4
#     Node 10, Type 1, BuildingBlock: CEKHIL_clean_sbu_0, # of connection points: 4
#     Node 11, Type 1, BuildingBlock: CEKHIL_clean_sbu_0, # of connection points: 4
#     Edge 12, Type (0, 1), BuildingBlock: EZIPEK_clean_linker_0, # of connection points: 2
#     Edge 13, Type (0, 1), BuildingBlock: EZIPEK_clean_linker_0, # of connection points: 2
#     Edge 14, Type (0, 1), BuildingBlock: EZIPEK_clean_linker_0, # of connection points: 2
#     Edge 15, Type (0, 1), BuildingBlock: EZIPEK_clean_linker_0, # of connection points: 2
#     Edge 16, Type (0, 1), BuildingBlock: EZIPEK_clean_linker_0, # of connection points: 2
#     Edge 17, Type (0, 1), BuildingBlock: EZIPEK_clean_linker_0, # of connection points: 2
#     Edge 18, Type (0, 1), BuildingBlock: EZIPEK_clean_linker_0, # of connection points: 2
#     Edge 19, Type (0, 1), BuildingBlock: EZIPEK_clean_linker_0, # of connection points: 2
#     Edge 20, Type (0, 1), BuildingBlock: EZIPEK_clean_linker_0, # of connection points: 2
#     Edge 21, Type (0, 1), BuildingBlock: EZIPEK_clean_linker_0, # of connection points: 2
#     Edge 22, Type (0, 1), BuildingBlock: EZIPEK_clean_linker_0, # of connection points: 2
#     Edge 23, Type (0, 1), BuildingBlock: EZIPEK_clean_linker_0, # of connection points: 2
#     Edge 24, Type (0, 1), BuildingBlock: EZIPEK_clean_linker_0, # of connection points: 2
#     Edge 25, Type (0, 1), BuildingBlock: EZIPEK_clean_linker_0, # of connection points: 2
#     Edge 26, Type (0, 1), BuildingBlock: EZIPEK_clean_linker_0, # of connection points: 2
#     Edge 27, Type (0, 1), BuildingBlock: EZIPEK_clean_linker_0, # of connection points: 2
#     Edge 28, Type (0, 1), BuildingBlock: EZIPEK_clean_linker_0, # of connection points: 2
#     Edge 29, Type (0, 1), BuildingBlock: EZIPEK_clean_linker_0, # of connection points: 2
#     Edge 30, Type (0, 1), BuildingBlock: EZIPEK_clean_linker_0, # of connection points: 2
#     Edge 31, Type (0, 1), BuildingBlock: EZIPEK_clean_linker_0, # of connection points: 2
#     Edge 32, Type (0, 1), BuildingBlock: EZIPEK_clean_linker_0, # of connection points: 2
#     Edge 33, Type (0, 1), BuildingBlock: EZIPEK_clean_linker_0, # of connection points: 2
#     Edge 34, Type (0, 1), BuildingBlock: EZIPEK_clean_linker_0, # of connection points: 2
#     Edge 35, Type (0, 1), BuildingBlock: EZIPEK_clean_linker_0, # of connection points: 2
# Relax obj value: 0.006
# Max RMSD: 0.110
# Mean RMSD: 0.075
data_MOF--net-nom--node1-CEKHIL_clean_sbu_0--node2-NAWXER_clean_linker_0--edge1-EZIPEK_clean_linker_0
_symmetry_space_group_name_H-M    P1
_symmetry_Int_Tables_number       1
_symmetry_cell_setting            triclinic
loop_
_symmetry_equiv_pos_as_xyz
'x, y, z'
_cell_length_a     41.014142
_cell_length_b     40.530286
_cell_length_c     44.762573
_cell_angle_alpha  89.986948
_cell_angle_beta   90.004299
_cell_angle_gamma 121.32516
loop_
_atom_site_label
_atom_site_type_symbol
_atom_site_fract_x
_atom_site_fract_y
_atom_site_fract_z
_atom_type_partial_charge
C0 C 0.87475 0.50665 0.3387 0.0
C1 C 0.85971 0.48369 0.3644 0.0
C2 C 0.9126 0.52077 0.33022 0.0
C3 C 0.93544 0.51056 0.34649 0.0
C4 C 0.88324 0.47552 0.38166 0.0
C5 C 0.92062 0.48859 0.37269 0.0
C6 C 0.97521 0.5238 0.33735 0.0
C7 C 0.90152 0.45548 0.25941 0.0
C8 C 0.91426 0.47041 0.23057 0.0
C9 C 0.92519 0.4724 0.28421 0.0
C10 C 0.96088 0.50688 0.2813 0.0
C11 C 0.95065 0.50368 0.22734 0.0
C12 C 0.97329 0.5221 0.25241 0.0
C13 C 0.98718 0.52533 0.30731 0.0
C14 C 0.15586 0.58638 0.31668 0.0
C15 C 0.17001 0.6192 0.29841 0.0
C16 C 0.11735 0.56582 0.32502 0.0
C17 C 0.09269 0.57789 0.31508 0.0
C18 C 0.14524 0.63082 0.28813 0.0
C19 C 0.10678 0.61011 0.2962 0.0
C20 C 0.05212 0.55737 0.32394 0.0
C21 C 0.12197 0.61065 0.40789 0.0
C22 C 0.11321 0.58346 0.43068 0.0
C23 C 0.09834 0.60088 0.38277 0.0
C24 C 0.06594 0.56357 0.37992 0.0
C25 C 0.08074 0.54639 0.428 0.0
C26 C 0.05723 0.5366 0.40289 0.0
C27 C 0.03986 0.55241 0.35391 0.0
H28 H 0.85716 0.51356 0.32521 0.0
H29 H 0.92375 0.53909 0.31068 0.0
H30 H 0.87229 0.45815 0.40172 0.0
H31 H 0.93778 0.48094 0.38601 0.0
H32 H 0.87378 0.42961 0.26259 0.0
H33 H 0.91551 0.45785 0.30547 0.0
H34 H 0.96154 0.51549 0.20537 0.0
H35 H 1.00093 0.54803 0.24906 0.0
H36 H 0.17469 0.57702 0.32467 0.0
H37 H 0.10687 0.54067 0.33924 0.0
H38 H 0.15576 0.656 0.27392 0.0
H39 H 0.08813 0.61969 0.28817 0.0
H40 H 0.14676 0.63952 0.40979 0.0
H41 H 0.10512 0.62261 0.36584 0.0
H42 H 0.07346 0.52517 0.44548 0.0
H43 H 0.03224 0.5078 0.40134 0.0
N44 N 0.00197 0.53632 0.35934 0.0
N45 N 0.02535 0.54319 0.30196 0.0
C46 C 0.38584 0.8659 0.50537 0.0
C47 C 0.40136 0.84858 0.52278 0.0
C48 C 0.40853 0.90439 0.4965 0.0
C49 C 0.447 0.92637 0.5052 0.0
C50 C 0.44001 0.87036 0.53109 0.0
C51 C 0.46254 0.90918 0.52271 0.0
C52 C 0.46997 0.96781 0.49748 0.0
C53 C 0.46646 0.90721 0.41259 0.0
C54 C 0.44191 0.90749 0.39087 0.0
C55 C 0.47589 0.93052 0.43797 0.0
C56 C 0.46142 0.95497 0.44182 0.0
C57 C 0.42726 0.93178 0.3948 0.0
C58 C 0.43736 0.95572 0.4199 0.0
C59 C 0.47308 0.98111 0.46792 0.0
C60 C 0.57409 0.15385 0.47848 0.0
C61 C 0.55235 0.16503 0.46194 0.0
C62 C 0.55866 0.11509 0.48628 0.0
C63 C 0.52123 0.08718 0.47776 0.0
C64 C 0.51525 0.13716 0.45305 0.0
C65 C 0.4999 0.09845 0.46073 0.0
C66 C 0.5042 0.046 0.48562 0.0
C67 C 0.52415 0.11145 0.57192 0.0
C68 C 0.54888 0.10783 0.59146 0.0
C69 C 0.50884 0.08704 0.54711 0.0
C70 C 0.5184 0.05894 0.54135 0.0
C71 C 0.55772 0.07925 0.58613 0.0
C72 C 0.54247 0.0549 0.56137 0.0
C73 C 0.50277 0.03282 0.51516 0.0
H74 H 0.35606 0.84965 0.49887 0.0
H75 H 0.39577 0.91731 0.48344 0.0
H76 H 0.45246 0.85746 0.54454 0.0
H77 H 0.49208 0.92577 0.52982 0.0
H78 H 0.47828 0.88892 0.40986 0.0
H79 H 0.4951 0.93003 0.45433 0.0
H80 H 0.40837 0.93248 0.37824 0.0
H81 H 0.42616 0.9746 0.42234 0.0
H82 H 0.60286 0.17513 0.48538 0.0
H83 H 0.57594 0.10691 0.49885 0.0
H84 H 0.49821 0.14542 0.44021 0.0
H85 H 0.47112 0.07733 0.45371 0.0
H86 H 0.51678 0.13315 0.57588 0.0
H87 H 0.48946 0.09002 0.53252 0.0
H88 H 0.5766 0.07595 0.6011 0.0
H89 H 0.5499 0.0332 0.5576 0.0
N90 N 0.48545 0.99412 0.51996 0.0
N91 N 0.48949 0.01963 0.46312 0.0
C92 C 0.55339 0.45042 0.58536 0.0
C93 C 0.5291 0.42752 0.56218 0.0
C94 C 0.53842 0.45779 0.61077 0.0
C95 C 0.49896 0.4427 0.61328 0.0
C96 C 0.48966 0.4124 0.56466 0.0
C97 C 0.47475 0.42031 0.58989 0.0
C98 C 0.48343 0.45216 0.63953 0.0
C99 C 0.51112 0.36576 0.67361 0.0
C100 C 0.54325 0.38147 0.6923 0.0
C101 C 0.4951 0.38764 0.66564 0.0
C102 C 0.51071 0.42548 0.67645 0.0
C103 C 0.55907 0.41941 0.70295 0.0
C104 C 0.54261 0.44109 0.69538 0.0
C105 C 0.4925 0.44784 0.66909 0.0
C106 C 0.40604 0.50216 0.74362 0.0
C107 C 0.43549 0.5271 0.76308 0.0
C108 C 0.41394 0.486 0.7191 0.0
C109 C 0.45149 0.4951 0.7135 0.0
C110 C 0.47268 0.5352 0.75807 0.0
C111 C 0.48059 0.51922 0.73354 0.0
C112 C 0.46106 0.47957 0.68719 0.0
C113 C 0.41516 0.55198 0.65127 0.0
C114 C 0.38275 0.53084 0.63323 0.0
C115 C 0.43726 0.53627 0.65937 0.0
C116 C 0.42688 0.49898 0.64985 0.0
C117 C 0.37262 0.49386 0.62341 0.0
C118 C 0.39462 0.47813 0.63156 0.0
C119 C 0.45005 0.48185 0.65763 0.0
H120 H 0.58391 0.46259 0.58371 0.0
H121 H 0.55776 0.4759 0.62822 0.0
H122 H 0.47053 0.39482 0.54691 0.0
H123 H 0.44431 0.40875 0.59126 0.0
H124 H 0.49836 0.33648 0.66535 0.0
H125 H 0.47002 0.37472 0.65149 0.0
H126 H 0.5838 0.43197 0.71747 0.0
H127 H 0.55489 0.47009 0.70413 0.0
H128 H 0.37712 0.49542 0.74737 0.0
H129 H 0.39079 0.46659 0.70447 0.0
H130 H 0.49565 0.55427 0.77298 0.0
H131 H 0.50966 0.52634 0.72987 0.0
H132 H 0.42353 0.58075 0.65876 0.0
H133 H 0.46259 0.55336 0.67281 0.0
H134 H 0.34783 0.47732 0.6093 0.0
H135 H 0.38632 0.44952 0.6237 0.0
N136 N 0.46194 0.46829 0.63493 0.0
N137 N 0.48165 0.46236 0.69177 0.0
C138 C 0.87389 0.37541 0.81577 0.0
C139 C 0.85734 0.39178 0.79844 0.0
C140 C 0.91204 0.39769 0.82455 0.0
C141 C 0.9344 0.43657 0.81583 0.0
C142 C 0.87961 0.43076 0.78992 0.0
C143 C 0.91806 0.45285 0.79819 0.0
C144 C 0.9752 0.45945 0.82408 0.0
C145 C 0.90916 0.44892 0.90665 0.0
C146 C 0.91464 0.43041 0.93087 0.0
C147 C 0.93301 0.45957 0.88165 0.0
C148 C 0.96211 0.45094 0.88013 0.0
C149 C 0.9443 0.42278 0.92988 0.0
C150 C 0.96787 0.43302 0.90474 0.0
C151 C 0.98795 0.46246 0.85383 0.0
C152 C 0.15868 0.55891 0.84678 0.0
C153 C 0.16821 0.53433 0.8613 0.0
C154 C 0.12094 0.54517 0.83819 0.0
C155 C 0.09234 0.50676 0.8442 0.0
C156 C 0.13969 0.49593 0.86711 0.0
C157 C 0.10195 0.48238 0.8589 0.0
C158 C 0.0521 0.49184 0.83628 0.0
C159 C 0.11776 0.51375 0.75021 0.0
C160 C 0.11459 0.53933 0.73102 0.0
C161 C 0.09338 0.49786 0.77485 0.0
C162 C 0.06583 0.50777 0.78083 0.0
C163 C 0.08658 0.54853 0.73655 0.0
C164 C 0.06232 0.53276 0.76118 0.0
C165 C 0.03962 0.49149 0.80677 0.0
H166 H 0.85725 0.34535 0.8224 0.0
H167 H 0.92429 0.3844 0.83776 0.0
H168 H 0.86732 0.44386 0.77652 0.0
H169 H 0.93495 0.4827 0.79107 0.0
H170 H 0.88648 0.45514 0.90714 0.0
H171 H 0.92884 0.47489 0.86369 0.0
H172 H 0.9488 0.4084 0.94841 0.0
H173 H 0.99036 0.42651 0.9044 0.0
H174 H 0.18043 0.58868 0.84224 0.0
H175 H 0.11399 0.56456 0.82721 0.0
H176 H 0.14662 0.47669 0.87838 0.0
H177 H 0.08022 0.45272 0.86386 0.0
H178 H 0.13904 0.5061 0.74607 0.0
H179 H 0.0959 0.47767 0.78904 0.0
H180 H 0.08364 0.56808 0.72186 0.0
H181 H 0.04104 0.54048 0.76511 0.0
N182 N 1.00151 0.47488 0.80178 0.0
N183 N 0.02587 0.47774 0.85867 0.0
C184 C 0.50929 0.87321 0.95392 0.0
C185 C 0.47239 0.84561 0.96345 0.0
C186 C 0.525 0.91205 0.96127 0.0
C187 C 0.50427 0.9237 0.97865 0.0
C188 C 0.45123 0.8572 0.98034 0.0
C189 C 0.4671 0.89608 0.98792 0.0
C190 C 0.52193 0.96485 0.98662 0.0
C191 C 0.47053 0.92856 0.08627 0.0
C192 C 0.48066 0.90091 0.0915 0.0
C193 C 0.48597 0.95383 0.06204 0.0
C194 C 0.5113 0.95145 0.04236 0.0
C195 C 0.50675 0.89905 0.07231 0.0
C196 C 0.52191 0.92411 0.04782 0.0
C197 C 0.52643 0.97791 0.01641 0.0
C198 C 0.59111 0.14921 0.00438 0.0
C199 C 0.62287 0.16285 0.02332 0.0
C200 C 0.56991 0.11015 0.99644 0.0
C201 C 0.58032 0.08439 0.00737 0.0
C202 C 0.6329 0.13701 0.03452 0.0
C203 C 0.61162 0.09802 0.02676 0.0
C204 C 0.55891 0.04312 0.9991 0.0
C205 C 0.61433 0.11148 0.91489 0.0
C206 C 0.58794 0.10392 0.892 0.0
C207 C 0.60341 0.08757 0.94009 0.0
C208 C 0.56576 0.05611 0.94294 0.0
C209 C 0.55054 0.07229 0.89461 0.0
C210 C 0.53959 0.04851 0.91981 0.0
C211 C 0.55336 0.03 0.96921 0.0
H212 H 0.52585 0.86464 0.94078 0.0
H213 H 0.55363 0.93296 0.9538 0.0
H214 H 0.42262 0.83614 0.98772 0.0
H215 H 0.4504 0.90459 1.00093 0.0
H216 H 0.45063 0.93053 0.10098 0.0
H217 H 0.47761 0.97484 0.05834 0.0
H218 H 0.51505 0.87803 0.07617 0.0
H219 H 0.5419 0.92219 0.03319 0.0
H220 H 0.58285 0.16881 0.99578 0.0
H221 H 0.54546 0.10006 0.98186 0.0
H222 H 0.65718 0.14708 0.0493 0.0
H223 H 0.61995 0.07855 0.03554 0.0
H224 H 0.64342 0.1356 0.91306 0.0
H225 H 0.62448 0.09344 0.95715 0.0
H226 H 0.52991 0.06595 0.87705 0.0
H227 H 0.51053 0.02425 0.92136 0.0
N228 N 0.53531 0.99133 0.96418 0.0
N229 N 0.54497 0.01657 0.02151 0.0
C230 C 0.51259 0.64121 0.17133 0.0
C231 C 0.4806 0.62485 0.19018 0.0
C232 C 0.52925 0.62003 0.1631 0.0
C233 C 0.5144 0.58223 0.17378 0.0
C234 C 0.46539 0.58688 0.20057 0.0
C235 C 0.48248 0.5659 0.19272 0.0
C236 C 0.5337 0.56089 0.16661 0.0
C237 C 0.47299 0.55701 0.08259 0.0
C238 C 0.49727 0.58188 0.06019 0.0
C239 C 0.48814 0.54941 0.10778 0.0
C240 C 0.52779 0.56617 0.11081 0.0
C241 C 0.53692 0.59857 0.06315 0.0
C242 C 0.55204 0.59039 0.08814 0.0
C243 C 0.54356 0.55715 0.13717 0.0
C244 C 0.61544 0.46071 0.15039 0.0
C245 C 0.64808 0.48244 0.13269 0.0
C246 C 0.59247 0.47558 0.15802 0.0
C247 C 0.60217 0.51264 0.14837 0.0
C248 C 0.65756 0.5192 0.12277 0.0
C249 C 0.63469 0.53411 0.13044 0.0
C250 C 0.57807 0.52888 0.15575 0.0
C251 C 0.62164 0.50995 0.24275 0.0
C252 C 0.5921 0.48473 0.26204 0.0
C253 C 0.61367 0.52548 0.21784 0.0
C254 C 0.57595 0.51546 0.2117 0.0
C255 C 0.55472 0.47567 0.25644 0.0
C256 C 0.54673 0.49102 0.23154 0.0
C257 C 0.56631 0.53059 0.18516 0.0
H258 H 0.52486 0.67053 0.16326 0.0
H259 H 0.55435 0.63353 0.14896 0.0
H260 H 0.44075 0.57383 0.21519 0.0
H261 H 0.47078 0.53692 0.20137 0.0
H262 H 0.44234 0.5436 0.08056 0.0
H263 H 0.46884 0.53001 0.12474 0.0
H264 H 0.55607 0.61769 0.04601 0.0
H265 H 0.58265 0.60331 0.08995 0.0
H266 H 0.60752 0.43209 0.15793 0.0
H267 H 0.56698 0.45802 0.17118 0.0
H268 H 0.68249 0.53617 0.10887 0.0
H269 H 0.64249 0.56255 0.12249 0.0
H270 H 0.65071 0.51739 0.24694 0.0
H271 H 0.63689 0.54517 0.20338 0.0
H272 H 0.53166 0.45635 0.2712 0.0
H273 H 0.51753 0.48321 0.22746 0.0
N274 N 0.5448 0.54683 0.18944 0.0
N275 N 0.56597 0.54199 0.13285 0.0
Co276 Co 0.63959 0.38655 0.41411 0.0
O277 O 0.67515 0.38396 0.38765 0.0
O278 O 0.69013 0.4312 0.41988 0.0
C279 C 0.61149 0.32483 0.43033 0.0
O280 O 0.61179 0.39904 0.44579 0.0
Co281 Co 0.55302 0.33687 0.40368 0.0
O282 O 0.54844 0.35751 0.44254 0.0
C283 C 0.59987 0.4026 0.36409 0.0
C284 C 0.70122 0.41624 0.39952 0.0
C285 C 0.57754 0.38508 0.45545 0.0
O286 O 0.62826 0.41425 0.38204 0.0
O287 O 0.56831 0.37052 0.36718 0.0
O288 O 0.64305 0.35178 0.44224 0.0
O289 O 0.5993 0.33508 0.40758 0.0
Co290 Co 0.26567 0.62923 0.57989 0.0
O291 O 0.3039 0.63172 0.60642 0.0
O292 O 0.26768 0.58284 0.57601 0.0
C293 C 0.30297 0.69002 0.56224 0.0
O294 O 0.22467 0.61662 0.54841 0.0
Co295 Co 0.23379 0.68306 0.58722 0.0
O296 O 0.21279 0.66478 0.54656 0.0
C297 C 0.20962 0.61794 0.62887 0.0
C298 C 0.29483 0.59823 0.5958 0.0
C299 C 0.20928 0.63391 0.53599 0.0
O300 O 0.22606 0.60474 0.61247 0.0
O301 O 0.21179 0.65015 0.62401 0.0
O302 O 0.30532 0.66175 0.55105 0.0
O303 O 0.27996 0.68117 0.58462 0.0
Co304 Co 0.63898 0.25998 0.74325 0.0
O305 O 0.64237 0.29949 0.71712 0.0
O306 O 0.59391 0.26332 0.74744 0.0
C307 C 0.69937 0.29631 0.76064 0.0
O308 O 0.62553 0.21799 0.7745 0.0
Co309 Co 0.69021 0.22545 0.73566 0.0
O310 O 0.67191 0.20422 0.7763 0.0
C311 C 0.62614 0.20293 0.69407 0.0
C312 C 0.6095 0.29103 0.72787 0.0
C313 C 0.64179 0.20156 0.78688 0.0
O314 O 0.61387 0.22027 0.7105 0.0
O315 O 0.65742 0.204 0.69894 0.0
O316 O 0.67206 0.29955 0.77213 0.0
O317 O 0.68984 0.27298 0.73823 0.0
Co318 Co 0.38542 0.62488 0.91392 0.0
O319 O 0.34985 0.62798 0.88777 0.0
O320 O 0.33509 0.57963 0.91899 0.0
C321 C 0.41278 0.68608 0.93098 0.0
O322 O 0.41342 0.61193 0.94515 0.0
Co323 Co 0.4721 0.67579 0.90402 0.0
O324 O 0.47643 0.65542 0.94312 0.0
C325 C 0.42628 0.61025 0.86389 0.0
C326 C 0.32409 0.59514 0.89902 0.0
C327 C 0.44757 0.62673 0.95533 0.0
O328 O 0.39742 0.59835 0.88136 0.0
O329 O 0.45779 0.64227 0.86748 0.0
O330 O 0.38134 0.65864 0.94272 0.0
O331 O 0.42534 0.67655 0.90807 0.0
Co332 Co 0.76176 0.38058 0.07993 0.0
O333 O 0.72502 0.38028 0.10697 0.0
O334 O 0.76337 0.42901 0.07719 0.0
C335 C 0.72152 0.32137 0.06095 0.0
O336 O 0.80143 0.39092 0.04746 0.0
Co337 Co 0.78899 0.32304 0.08529 0.0
O338 O 0.81392 0.34308 0.04636 0.0
C339 C 0.81996 0.389 0.12689 0.0
C340 C 0.73595 0.41446 0.09677 0.0
C341 C 0.81734 0.37374 0.03556 0.0
O342 O 0.8013 0.40177 0.11289 0.0
O343 O 0.81833 0.35766 0.11957 0.0
O344 O 0.72125 0.35136 0.05112 0.0
O345 O 0.74403 0.32752 0.08334 0.0
Co346 Co 0.38788 0.74833 0.24348 0.0
O347 O 0.38235 0.70754 0.21775 0.0
O348 O 0.43209 0.74341 0.24703 0.0
C349 C 0.32815 0.71443 0.2625 0.0
O350 O 0.40372 0.79124 0.2743 0.0
Co351 Co 0.33969 0.78575 0.23584 0.0
O352 O 0.362 0.81139 0.27452 0.0
C353 C 0.40221 0.80558 0.19369 0.0
C354 C 0.41532 0.71539 0.22781 0.0
C355 C 0.39057 0.81126 0.28548 0.0
O356 O 0.41315 0.7869 0.20992 0.0
O357 O 0.37193 0.80631 0.19889 0.0
O358 O 0.35521 0.71038 0.27339 0.0
O359 O 0.33705 0.73658 0.23934 0.0
C360 C 0.23749 0.67104 0.30965 0.0
C361 C 0.21096 0.64194 0.29004 0.0
C362 C 0.26208 0.65789 0.25392 0.0
C363 C 0.2879 0.68936 0.27225 0.0
N364 N 0.29962 0.72902 0.31571 0.0
N365 N 0.19633 0.60925 0.24255 0.0
C366 C 0.27552 0.69662 0.29974 0.0
C367 C 0.22281 0.63579 0.26189 0.0
N368 N 0.22632 0.67407 0.33781 0.0
N369 N 0.27539 0.64825 0.22946 0.0
H370 H 0.16765 0.59111 0.24819 0.0
H371 H 0.20217 0.60671 0.22033 0.0
H372 H 0.3039 0.66376 0.2228 0.0
H373 H 0.25899 0.62316 0.21707 0.0
H374 H 0.2452 0.69162 0.35438 0.0
H375 H 0.19834 0.65689 0.34546 0.0
H376 H 0.29137 0.73853 0.33419 0.0
H377 H 0.32745 0.74827 0.30894 0.0
C378 C 0.56174 0.22989 0.47339 0.0
C379 C 0.56816 0.20614 0.45406 0.0
C380 C 0.60458 0.2607 0.41997 0.0
C381 C 0.59554 0.28364 0.43808 0.0
N382 N 0.561 0.28883 0.47949 0.0
N383 N 0.59143 0.19666 0.40738 0.0
C384 C 0.57295 0.26791 0.46416 0.0
C385 C 0.58839 0.22091 0.42687 0.0
N386 N 0.5455 0.21626 0.50081 0.0
N387 N 0.6297 0.27727 0.39677 0.0
H388 H 0.5811 0.16766 0.41214 0.0
H389 H 0.60182 0.20446 0.38569 0.0
H390 H 0.64161 0.3061 0.3906 0.0
H391 H 0.64099 0.26337 0.38496 0.0
H392 H 0.54398 0.23349 0.51732 0.0
H393 H 0.53604 0.18821 0.50803 0.0
H394 H 0.54118 0.27775 0.49681 0.0
H395 H 0.56849 0.31652 0.4731 0.0
C396 C 0.36524 0.56386 0.59464 0.0
C397 C 0.3599 0.54785 0.6237 0.0
C398 C 0.3123 0.56555 0.63477 0.0
C399 C 0.31595 0.57939 0.60507 0.0
N400 N 0.34249 0.58832 0.55551 0.0
N401 N 0.32549 0.52859 0.67029 0.0
C402 C 0.34128 0.57733 0.58459 0.0
C403 C 0.33268 0.54743 0.64351 0.0
N404 N 0.39433 0.5676 0.57712 0.0
N405 N 0.28954 0.56999 0.65466 0.0
H406 H 0.34028 0.51552 0.67758 0.0
H407 H 0.30321 0.52347 0.68444 0.0
H408 H 0.27229 0.58081 0.64864 0.0
H409 H 0.28913 0.56492 0.67749 0.0
H410 H 0.40269 0.58294 0.55713 0.0
H411 H 0.41232 0.55785 0.58362 0.0
H412 H 0.35672 0.58313 0.53864 0.0
H413 H 0.32728 0.60063 0.54761 0.0
C414 C 0.80777 0.3604 0.75799 0.0
C415 C 0.8168 0.36773 0.78879 0.0
C416 C 0.74932 0.32433 0.80125 0.0
C417 C 0.73977 0.32086 0.77046 0.0
N418 N 0.75994 0.3443 0.72004 0.0
N419 N 0.79495 0.36307 0.83959 0.0
C420 C 0.76899 0.34129 0.7489 0.0
C421 C 0.78719 0.35161 0.81042 0.0
N422 N 0.83603 0.37049 0.73739 0.0
N423 N 0.72285 0.3003 0.82166 0.0
H424 H 0.82219 0.38369 0.8471 0.0
H425 H 0.77374 0.35499 0.85567 0.0
H426 H 0.69555 0.27853 0.81553 0.0
H427 H 0.72933 0.29912 0.844 0.0
H428 H 0.8305 0.36222 0.71504 0.0
H429 H 0.86479 0.38362 0.74313 0.0
H430 H 0.78032 0.36199 0.7043 0.0
H431 H 0.73199 0.3329 0.71265 0.0
C432 C 0.45955 0.7796 0.97582 0.0
C433 C 0.45604 0.80445 0.95553 0.0
C434 C 0.422 0.75105 0.92008 0.0
C435 C 0.42838 0.72702 0.93925 0.0
N436 N 0.45772 0.71946 0.98321 0.0
N437 N 0.43786 0.81589 0.90719 0.0
C438 C 0.44824 0.74153 0.96663 0.0
C439 C 0.43841 0.79076 0.92729 0.0
N440 N 0.47339 0.79233 0.00397 0.0
N441 N 0.39894 0.73554 0.8956 0.0
H442 H 0.44789 0.84476 0.91218 0.0
H443 H 0.42977 0.8089 0.88495 0.0
H444 H 0.38655 0.70668 0.88939 0.0
H445 H 0.38956 0.75038 0.88271 0.0
H446 H 0.47257 0.77437 0.02095 0.0
H447 H 0.48326 0.82047 0.01115 0.0
H448 H 0.47559 0.72955 1.00178 0.0
H449 H 0.45032 0.69179 0.97679 0.0
C450 C 0.69883 0.46686 0.14336 0.0
C451 C 0.67155 0.46604 0.12337 0.0
C452 C 0.69054 0.43637 0.08471 0.0
C453 C 0.71566 0.43437 0.10547 0.0
N454 N 0.74208 0.44455 0.15506 0.0
N455 N 0.63742 0.44581 0.07667 0.0
C456 C 0.7193 0.44869 0.13499 0.0
C457 C 0.66645 0.44983 0.09441 0.0
N458 N 0.70584 0.48597 0.16998 0.0
N459 N 0.68964 0.42533 0.05569 0.0
H460 H 0.61936 0.45559 0.08286 0.0
H461 H 0.62917 0.43021 0.0568 0.0
H462 H 0.70512 0.41323 0.04798 0.0
H463 H 0.67555 0.43044 0.03866 0.0
H464 H 0.72805 0.49126 0.18428 0.0
H465 H 0.69097 0.49907 0.17697 0.0
H466 H 0.74263 0.45011 0.17781 0.0
H467 H 0.75926 0.43357 0.14924 0.0
C468 C 0.36927 0.79945 0.56379 0.0
C469 C 0.37667 0.80787 0.53289 0.0
C470 C 0.3318 0.73978 0.52116 0.0
C471 C 0.3281 0.73063 0.55207 0.0
N472 N 0.35163 0.7514 0.60235 0.0
N473 N 0.371 0.78458 0.48238 0.0
C474 C 0.34911 0.76035 0.57333 0.0
C475 C 0.35974 0.77757 0.5116 0.0
N476 N 0.3803 0.82863 0.58403 0.0
N477 N 0.3074 0.71306 0.501 0.0
H478 H 0.39203 0.81173 0.4746 0.0
H479 H 0.36221 0.76273 0.46653 0.0
H480 H 0.2852 0.68591 0.50741 0.0
H481 H 0.30648 0.71936 0.47856 0.0
H482 H 0.3721 0.82369 0.6064 0.0
H483 H 0.39426 0.85768 0.57796 0.0
H484 H 0.36964 0.77199 0.61791 0.0
H485 H 0.33934 0.72314 0.61011 0.0
C486 C 0.55843 0.34714 0.73171 0.0
C487 C 0.5597 0.35774 0.70132 0.0
C488 C 0.58803 0.31932 0.68795 0.0
C489 C 0.59132 0.31302 0.71874 0.0
N490 N 0.58715 0.32865 0.77021 0.0
N491 N 0.5822 0.35974 0.65111 0.0
C492 C 0.57849 0.32894 0.74076 0.0
C493 C 0.57636 0.34547 0.67956 0.0
N494 N 0.53713 0.35337 0.75184 0.0
N495 N 0.59448 0.29916 0.66669 0.0
H496 H 0.57474 0.37953 0.6442 0.0
H497 H 0.59773 0.35479 0.6352 0.0
H498 H 0.60151 0.27851 0.67189 0.0
H499 H 0.58889 0.29988 0.64407 0.0
H500 H 0.53212 0.34259 0.77358 0.0
H501 H 0.5213 0.36587 0.74603 0.0
H502 H 0.58179 0.34342 0.78667 0.0
H503 H 0.60334 0.31733 0.77786 0.0
C504 C 0.2353 0.55139 0.85037 0.0
C505 C 0.20801 0.549 0.87117 0.0
C506 C 0.25689 0.57662 0.9104 0.0
C507 C 0.28367 0.57717 0.89003 0.0
N508 N 0.29798 0.56033 0.84224 0.0
N509 N 0.1908 0.55466 0.92162 0.0
C510 C 0.27278 0.5633 0.8604 0.0
C511 C 0.21821 0.56011 0.90143 0.0
N512 N 0.22544 0.54277 0.82096 0.0
N513 N 0.26889 0.59371 0.93781 0.0
H514 H 0.16261 0.54483 0.91566 0.0
H515 H 0.19526 0.55756 0.94461 0.0
H516 H 0.29688 0.60582 0.94535 0.0
H517 H 0.25195 0.59851 0.95233 0.0
H518 H 0.24496 0.54818 0.804 0.0
H519 H 0.19782 0.53223 0.81304 0.0
H520 H 0.29083 0.54689 0.82146 0.0
H521 H 0.32559 0.56867 0.84894 0.0
C522 C 0.6429 0.21481 0.0618 0.0
C523 C 0.64547 0.20415 0.03212 0.0
C524 C 0.69128 0.27188 0.01977 0.0
C525 C 0.69333 0.28166 0.0505 0.0
N526 N 0.6694 0.26309 0.1009 0.0
N527 N 0.67492 0.22131 0.98345 0.0
C528 C 0.6687 0.25324 0.07158 0.0
C529 C 0.67013 0.23239 0.01117 0.0
N530 N 0.61467 0.18849 0.0802 0.0
N531 N 0.70903 0.3001 0.99864 0.0
H532 H 0.66002 0.19268 0.9762 0.0
H533 H 0.69598 0.24 0.96853 0.0
H534 H 0.72648 0.3293 0.00366 0.0
H535 H 0.70444 0.29479 0.9758 0.0
H536 H 0.60851 0.19523 0.10106 0.0
H537 H 0.59497 0.16025 0.0736 0.0
H538 H 0.65674 0.24298 0.11805 0.0
H539 H 0.68346 0.29157 0.10841 0.0
C540 C 0.4656 0.65852 0.23027 0.0
C541 C 0.46382 0.64806 0.19979 0.0
C542 C 0.43509 0.68635 0.18725 0.0
C543 C 0.43256 0.69274 0.21815 0.0
N544 N 0.43772 0.67711 0.2694 0.0
N545 N 0.44027 0.64599 0.14997 0.0
C546 C 0.44575 0.67674 0.2398 0.0
C547 C 0.44663 0.66023 0.17844 0.0
N548 N 0.48725 0.65224 0.25001 0.0
N549 N 0.42819 0.70648 0.16625 0.0
H550 H 0.4477 0.62627 0.14278 0.0
H551 H 0.42437 0.65086 0.13436 0.0
H552 H 0.42125 0.72711 0.17171 0.0
H553 H 0.43329 0.70572 0.14354 0.0
H554 H 0.49264 0.66295 0.27176 0.0
H555 H 0.50297 0.63975 0.24385 0.0
H556 H 0.44335 0.66232 0.28566 0.0
H557 H 0.42177 0.68856 0.27737 0.0
C558 C 0.79441 0.42621 0.37431 0.0
C559 C 0.81894 0.4669 0.37284 0.0
C560 C 0.76494 0.47444 0.38524 0.0
C561 C 0.74197 0.43412 0.39084 0.0
N562 N 0.73908 0.37345 0.39816 0.0
N563 N 0.82913 0.53013 0.38305 0.0
C564 C 0.75784 0.41043 0.38746 0.0
C565 C 0.8047 0.49122 0.38009 0.0
N566 N 0.80545 0.40248 0.36238 0.0
N567 N 0.74874 0.49652 0.38337 0.0
H568 H 0.85858 0.54345 0.38028 0.0
H569 H 0.82056 0.54855 0.39118 0.0
H570 H 0.71948 0.48516 0.38538 0.0
H571 H 0.76384 0.52529 0.37653 0.0
H572 H 0.78703 0.3727 0.36047 0.0
H573 H 0.83147 0.41285 0.35147 0.0
H574 H 0.75126 0.35639 0.39849 0.0
H575 H 0.71351 0.36142 0.40999 0.0
C576 C 0.1719 0.59417 0.45748 0.0
C577 C 0.13728 0.59412 0.45797 0.0
C578 C 0.14617 0.61009 0.51127 0.0
C579 C 0.18339 0.61587 0.50985 0.0
N580 N 0.2324 0.61385 0.48132 0.0
N581 N 0.09306 0.60601 0.48426 0.0
C582 C 0.19636 0.60762 0.48296 0.0
C583 C 0.12479 0.60307 0.4846 0.0
N584 N 0.18092 0.58049 0.43288 0.0
N585 N 0.13057 0.60959 0.53839 0.0
H586 H 0.07635 0.60075 0.46523 0.0
H587 H 0.08509 0.61677 0.50212 0.0
H588 H 0.14467 0.61277 0.55856 0.0
H589 H 0.10221 0.60175 0.54115 0.0
H590 H 0.20344 0.5756 0.43222 0.0
H591 H 0.16404 0.57111 0.41368 0.0
H592 H 0.24539 0.61373 0.46137 0.0
H593 H 0.25033 0.62098 0.49971 0.0
C594 C 0.55161 0.11959 0.64675 0.0
C595 C 0.56579 0.13389 0.61769 0.0
C596 C 0.61396 0.19633 0.63903 0.0
C597 C 0.60303 0.18029 0.66807 0.0
N598 N 0.56326 0.12632 0.70022 0.0
N599 N 0.61225 0.18457 0.58576 0.0
C600 C 0.5721 0.14189 0.67215 0.0
C601 C 0.59726 0.17208 0.61367 0.0
N602 N 0.51815 0.08499 0.64996 0.0
N603 N 0.63989 0.23493 0.6358 0.0
H604 H 0.60059 0.16786 0.56658 0.0
H605 H 0.63777 0.21038 0.58177 0.0
H606 H 0.65271 0.2534 0.65397 0.0
H607 H 0.64622 0.24931 0.61539 0.0
H608 H 0.5042 0.07464 0.67031 0.0
H609 H 0.50249 0.06795 0.6318 0.0
H610 H 0.54413 0.09717 0.70446 0.0
H611 H 0.57689 0.14218 0.7194 0.0
C612 C 0.42724 0.57979 0.784 0.0
C613 C 0.4279 0.54551 0.78863 0.0
C614 C 0.42443 0.55186 0.84287 0.0
C615 C 0.42326 0.58587 0.83818 0.0
N616 N 0.41469 0.6274 0.80485 0.0
N617 N 0.41943 0.49441 0.82131 0.0
C618 C 0.42193 0.59835 0.80885 0.0
C619 C 0.424 0.53009 0.81777 0.0
N620 N 0.43317 0.59542 0.75599 0.0
N621 N 0.42767 0.54137 0.87124 0.0
H622 H 0.41936 0.47794 0.80336 0.0
H623 H 0.41261 0.47973 0.84159 0.0
H624 H 0.42715 0.55605 0.89019 0.0
H625 H 0.43327 0.51966 0.87604 0.0
H626 H 0.43756 0.62268 0.75167 0.0
H627 H 0.43624 0.5822 0.7371 0.0
H628 H 0.40949 0.63531 0.78407 0.0
H629 H 0.41046 0.64141 0.82264 0.0
C630 C 0.89505 0.44255 0.98099 0.0
C631 C 0.88813 0.41713 0.95678 0.0
C632 C 0.83169 0.36551 0.98238 0.0
C633 C 0.84069 0.38969 0.00794 0.0
N634 N 0.8843 0.44928 0.03332 0.0
N635 N 0.85202 0.35381 0.93471 0.0
C636 C 0.87306 0.42789 0.00763 0.0
C637 C 0.85695 0.37848 0.95753 0.0
N638 N 0.92264 0.48076 0.97846 0.0
N639 N 0.79836 0.33046 0.98151 0.0
H640 H 0.86858 0.36264 0.91534 0.0
H641 H 0.83311 0.32408 0.93562 0.0
H642 H 0.77968 0.31909 0.9995 0.0
H643 H 0.78765 0.31372 0.9623 0.0
H644 H 0.92624 0.50168 0.99382 0.0
H645 H 0.94019 0.49218 0.95974 0.0
H646 H 0.90994 0.47554 0.03543 0.0
H647 H 0.86972 0.43937 0.05352 0.0
C648 C 0.4316 0.83655 0.11296 0.0
C649 C 0.46381 0.87419 0.1174 0.0
C650 C 0.46003 0.86329 0.17166 0.0
C651 C 0.4255 0.82741 0.16741 0.0
N652 N 0.37809 0.77881 0.13488 0.0
N653 N 0.50931 0.92416 0.15013 0.0
C654 C 0.41139 0.81359 0.13824 0.0
C655 C 0.47844 0.88761 0.14654 0.0
N656 N 0.42053 0.82286 0.08451 0.0
N657 N 0.47507 0.87403 0.19976 0.0
H658 H 0.52473 0.94188 0.13219 0.0
H659 H 0.51896 0.93781 0.17068 0.0
H660 H 0.46162 0.85767 0.21877 0.0
H661 H 0.50193 0.89784 0.20432 0.0
H662 H 0.39982 0.79448 0.07941 0.0
H663 H 0.43371 0.83938 0.06552 0.0
H664 H 0.3635 0.76872 0.11477 0.0
H665 H 0.36397 0.76018 0.15273 0.0
C666 C 0.60087 0.43278 0.28383 0.0
C667 C 0.59973 0.46688 0.28797 0.0
C668 C 0.60221 0.46095 0.34236 0.0
C669 C 0.60366 0.42703 0.33817 0.0
N670 N 0.61326 0.38552 0.30562 0.0
N671 N 0.60701 0.51797 0.32006 0.0
C672 C 0.60576 0.41447 0.30905 0.0
C673 C 0.60292 0.48244 0.31695 0.0
N674 N 0.59575 0.41709 0.25591 0.0
N675 N 0.59842 0.47159 0.37053 0.0
H676 H 0.60727 0.53422 0.30187 0.0
H677 H 0.61325 0.53278 0.34025 0.0
H678 H 0.59878 0.45711 0.38967 0.0
H679 H 0.5926 0.49323 0.37495 0.0
H680 H 0.59168 0.38991 0.25187 0.0
H681 H 0.59308 0.43018 0.23676 0.0
H682 H 0.619 0.37756 0.28508 0.0
H683 H 0.61719 0.37167 0.32369 0.0
C684 C 0.41086 0.8419 0.36648 0.0
C685 C 0.43195 0.88277 0.36373 0.0
C686 C 0.42929 0.87674 0.30908 0.0
C687 C 0.40945 0.83594 0.31198 0.0
N688 N 0.39195 0.7806 0.3432 0.0
N689 N 0.46962 0.93891 0.33281 0.0
C690 C 0.40375 0.81879 0.34061 0.0
C691 C 0.44367 0.90019 0.33509 0.0
N692 N 0.39585 0.82503 0.39348 0.0
N693 N 0.43422 0.89306 0.28145 0.0
H694 H 0.48153 0.95681 0.35139 0.0
H695 H 0.4821 0.95264 0.31272 0.0
H696 H 0.42656 0.87699 0.26173 0.0
H697 H 0.44416 0.92223 0.27815 0.0
H698 H 0.37685 0.79546 0.39607 0.0
H699 H 0.39933 0.8408 0.41287 0.0
H700 H 0.39065 0.76749 0.36356 0.0
H701 H 0.38745 0.76299 0.3248 0.0
C702 C 0.56213 0.39718 0.53705 0.0
C703 C 0.54503 0.41986 0.535 0.0
C704 C 0.55267 0.42296 0.48053 0.0
C705 C 0.57098 0.40147 0.48278 0.0
N706 N 0.60273 0.37773 0.51358 0.0
N707 N 0.53271 0.46239 0.50596 0.0
C708 C 0.57894 0.39179 0.5112 0.0
C709 C 0.54288 0.43519 0.50704 0.0
N710 N 0.56061 0.3791 0.56328 0.0
N711 N 0.54429 0.43135 0.45304 0.0
H712 H 0.52611 0.47261 0.525 0.0
H713 H 0.53426 0.47746 0.48665 0.0
H714 H 0.55314 0.42499 0.43315 0.0
H715 H 0.52688 0.44272 0.44991 0.0
H716 H 0.56888 0.35886 0.56515 0.0
H717 H 0.5478 0.38152 0.5826 0.0
H718 H 0.61229 0.37354 0.53397 0.0
H719 H 0.61612 0.37404 0.49522 0.0
C720 C 0.17792 0.58916 0.70919 0.0
C721 C 0.14055 0.55679 0.70497 0.0
C722 C 0.14919 0.56306 0.65056 0.0
C723 C 0.18685 0.59484 0.65485 0.0
N724 N 0.24012 0.63314 0.68753 0.0
N725 N 0.0931 0.50803 0.67252 0.0
C726 C 0.20216 0.60633 0.684 0.0
C727 C 0.12697 0.5422 0.67586 0.0
N728 N 0.18967 0.60444 0.73714 0.0
N729 N 0.13421 0.5538 0.62237 0.0
H730 H 0.07607 0.49216 0.6906 0.0
H731 H 0.08335 0.49373 0.65219 0.0
H732 H 0.14997 0.56781 0.60328 0.0
H733 H 0.10558 0.53397 0.61793 0.0
H734 H 0.21478 0.6306 0.74126 0.0
H735 H 0.17301 0.59231 0.75622 0.0
H736 H 0.25401 0.63991 0.70808 0.0
H737 H 0.2586 0.64627 0.66951 0.0
C738 C 0.60812 0.11531 0.83823 0.0
C739 C 0.59967 0.12848 0.86476 0.0
C740 C 0.61574 0.18918 0.83986 0.0
C741 C 0.62338 0.17551 0.81302 0.0
N742 N 0.61551 0.12133 0.7845 0.0
N743 N 0.5883 0.17419 0.88974 0.0
C744 C 0.61625 0.13729 0.8116 0.0
C745 C 0.60134 0.16434 0.86524 0.0
N746 N 0.60944 0.08229 0.83864 0.0
N747 N 0.62344 0.22622 0.84155 0.0
H748 H 0.57828 0.15707 0.90889 0.0
H749 H 0.5846 0.19772 0.89035 0.0
H750 H 0.63144 0.2446 0.82322 0.0
H751 H 0.6237 0.23956 0.8615 0.0
H752 H 0.61972 0.07366 0.8209 0.0
H753 H 0.60324 0.06509 0.85762 0.0
H754 H 0.60675 0.09237 0.78171 0.0
H755 H 0.61953 0.13589 0.76433 0.0
C756 C 0.4852 0.57736 0.00479 0.0
C757 C 0.48114 0.59006 0.03335 0.0
C758 C 0.44468 0.61613 0.01077 0.0
C759 C 0.45449 0.60943 0.98198 0.0
N760 N 0.48501 0.58455 0.95103 0.0
N761 N 0.46141 0.62629 0.06323 0.0
C762 C 0.475 0.59022 0.97883 0.0
C763 C 0.46178 0.61049 0.03634 0.0
N764 N 0.49756 0.55196 0.00256 0.0
N765 N 0.41885 0.62757 0.01379 0.0
H766 H 0.47445 0.62377 0.08237 0.0
H767 H 0.4513 0.64497 0.06592 0.0
H768 H 0.40512 0.63119 0.99563 0.0
H769 H 0.40805 0.62947 0.03436 0.0
H770 H 0.49753 0.53866 0.98265 0.0
H771 H 0.50448 0.54125 0.02114 0.0
H772 H 0.50396 0.57513 0.94741 0.0
H773 H 0.47586 0.59119 0.93142 0.0
C774 C 0.88223 0.47047 0.18193 0.0
C775 C 0.89018 0.45012 0.20378 0.0
C776 C 0.84593 0.38979 0.17822 0.0
C777 C 0.84353 0.41056 0.15353 0.0
N778 N 0.86898 0.47306 0.12973 0.0
N779 N 0.88765 0.39073 0.21649 0.0
C780 C 0.86435 0.45167 0.15469 0.0
C781 C 0.87452 0.40985 0.20007 0.0
N782 N 0.89037 0.50714 0.18739 0.0
N783 N 0.81986 0.35136 0.18196 0.0
H784 H 0.91063 0.40474 0.23119 0.0
H785 H 0.87865 0.36183 0.21266 0.0
H786 H 0.79575 0.33612 0.16852 0.0
H787 H 0.81947 0.33617 0.20091 0.0
H788 H 0.88207 0.52167 0.17298 0.0
H789 H 0.90133 0.52116 0.20771 0.0
H790 H 0.88652 0.50307 0.12938 0.0
H791 H 0.8595 0.46095 0.10865 0.0
loop_
_geom_bond_atom_site_label_1
_geom_bond_atom_site_label_2
_geom_bond_distance
_geom_bond_site_symmetry_2
_ccdc_geom_bond_type
C0 C1 1.384 . S
C0 C2 1.384 . S
C0 H28 0.931 . S
C1 C0 1.384 . S
C1 C4 1.382 . S
C2 C0 1.384 . S
C2 C3 1.381 . S
C2 H29 0.930 . S
C3 C2 1.381 . S
C3 C5 1.381 . S
C3 C6 1.487 . S
C4 C1 1.382 . S
C4 C5 1.387 . S
C4 H30 0.930 . S
C5 C3 1.381 . S
C5 C4 1.387 . S
C5 H31 0.931 . S
C6 C3 1.487 . S
C6 C13 1.399 . S
C6 N44 1.347 . S
C7 C8 1.384 . S
C7 C9 1.384 . S
C7 H32 0.931 . S
C8 C7 1.384 . S
C8 C11 1.382 . S
C9 C7 1.384 . S
C9 C10 1.381 . S
C9 H33 0.930 . S
C10 C9 1.381 . S
C10 C12 1.381 . S
C10 C13 1.487 . S
C11 C8 1.382 . S
C11 C12 1.387 . S
C11 H34 0.930 . S
C12 C10 1.381 . S
C12 C11 1.387 . S
C12 H35 0.931 . S
C13 C6 1.399 . S
C13 C10 1.487 . S
C13 N45 1.343 1_655 S
C14 C15 1.384 . S
C14 C16 1.384 . S
C14 H36 0.931 . S
C15 C14 1.384 . S
C15 C18 1.382 . S
C16 C14 1.384 . S
C16 C17 1.381 . S
C16 H37 0.930 . S
C17 C16 1.381 . S
C17 C19 1.381 . S
C17 C20 1.487 . S
C18 C15 1.382 . S
C18 C19 1.387 . S
C18 H38 0.930 . S
C19 C17 1.381 . S
C19 C18 1.387 . S
C19 H39 0.931 . S
C20 C17 1.487 . S
C20 C27 1.399 . S
C20 N45 1.343 . S
C21 C22 1.384 . S
C21 C23 1.384 . S
C21 H40 0.931 . S
C22 C21 1.384 . S
C22 C25 1.382 . S
C23 C21 1.384 . S
C23 C24 1.381 . S
C23 H41 0.930 . S
C24 C23 1.381 . S
C24 C26 1.381 . S
C24 C27 1.487 . S
C25 C22 1.382 . S
C25 C26 1.387 . S
C25 H42 0.930 . S
C26 C24 1.381 . S
C26 C25 1.387 . S
C26 H43 0.931 . S
C27 C20 1.399 . S
C27 C24 1.487 . S
C27 N44 1.337 1_455 S
H28 C0 0.931 . S
H29 C2 0.930 . S
H30 C4 0.930 . S
H31 C5 0.931 . S
H32 C7 0.931 . S
H33 C9 0.930 . S
H34 C11 0.930 . S
H35 C12 0.931 . S
H36 C14 0.931 . S
H37 C16 0.930 . S
H38 C18 0.930 . S
H39 C19 0.931 . S
H40 C21 0.931 . S
H41 C23 0.930 . S
H42 C25 0.930 . S
H43 C26 0.931 . S
N44 C6 1.347 . S
N44 C27 1.337 1_655 S
N45 C13 1.343 1_455 S
N45 C20 1.343 . S
C46 C47 1.384 . S
C46 C48 1.384 . S
C46 H74 0.931 . S
C47 C46 1.384 . S
C47 C50 1.382 . S
C48 C46 1.384 . S
C48 C49 1.381 . S
C48 H75 0.930 . S
C49 C48 1.381 . S
C49 C51 1.381 . S
C49 C52 1.487 . S
C50 C47 1.382 . S
C50 C51 1.387 . S
C50 H76 0.930 . S
C51 C49 1.381 . S
C51 C50 1.387 . S
C51 H77 0.931 . S
C52 C49 1.487 . S
C52 C59 1.399 . S
C52 N90 1.343 . S
C53 C54 1.384 . S
C53 C55 1.384 . S
C53 H78 0.931 . S
C54 C53 1.384 . S
C54 C57 1.382 . S
C55 C53 1.384 . S
C55 C56 1.381 . S
C55 H79 0.930 . S
C56 C55 1.381 . S
C56 C58 1.381 . S
C56 C59 1.487 . S
C57 C54 1.382 . S
C57 C58 1.387 . S
C57 H80 0.930 . S
C58 C56 1.381 . S
C58 C57 1.387 . S
C58 H81 0.931 . S
C59 C52 1.399 . S
C59 C56 1.487 . S
C59 N91 1.343 1_565 S
C60 C61 1.384 . S
C60 C62 1.384 . S
C60 H82 0.931 . S
C61 C60 1.384 . S
C61 C64 1.382 . S
C62 C60 1.384 . S
C62 C63 1.381 . S
C62 H83 0.930 . S
C63 C62 1.381 . S
C63 C65 1.381 . S
C63 C66 1.487 . S
C64 C61 1.382 . S
C64 C65 1.387 . S
C64 H84 0.930 . S
C65 C63 1.381 . S
C65 C64 1.387 . S
C65 H85 0.931 . S
C66 C63 1.487 . S
C66 C73 1.399 . S
C66 N91 1.343 . S
C67 C68 1.384 . S
C67 C69 1.384 . S
C67 H86 0.931 . S
C68 C67 1.384 . S
C68 C71 1.382 . S
C69 C67 1.384 . S
C69 C70 1.381 . S
C69 H87 0.930 . S
C70 C69 1.381 . S
C70 C72 1.381 . S
C70 C73 1.487 . S
C71 C68 1.382 . S
C71 C72 1.387 . S
C71 H88 0.930 . S
C72 C70 1.381 . S
C72 C71 1.387 . S
C72 H89 0.931 . S
C73 C66 1.399 . S
C73 C70 1.487 . S
C73 N90 1.343 1_545 S
H74 C46 0.931 . S
H75 C48 0.930 . S
H76 C50 0.930 . S
H77 C51 0.931 . S
H78 C53 0.931 . S
H79 C55 0.930 . S
H80 C57 0.930 . S
H81 C58 0.931 . S
H82 C60 0.931 . S
H83 C62 0.930 . S
H84 C64 0.930 . S
H85 C65 0.931 . S
H86 C67 0.931 . S
H87 C69 0.930 . S
H88 C71 0.930 . S
H89 C72 0.931 . S
N90 C52 1.343 . S
N90 C73 1.343 1_565 S
N91 C59 1.343 1_545 S
N91 C66 1.343 . S
C92 C93 1.384 . S
C92 C94 1.384 . S
C92 H120 0.931 . S
C93 C92 1.384 . S
C93 C96 1.382 . S
C94 C92 1.384 . S
C94 C95 1.381 . S
C94 H121 0.930 . S
C95 C94 1.381 . S
C95 C97 1.381 . S
C95 C98 1.487 . S
C96 C93 1.382 . S
C96 C97 1.387 . S
C96 H122 0.930 . S
C97 C95 1.381 . S
C97 C96 1.387 . S
C97 H123 0.931 . S
C98 C95 1.487 . S
C98 C105 1.399 . S
C98 N136 1.343 . S
C99 C100 1.384 . S
C99 C101 1.384 . S
C99 H124 0.931 . S
C100 C99 1.384 . S
C100 C103 1.382 . S
C101 C99 1.384 . S
C101 C102 1.381 . S
C101 H125 0.930 . S
C102 C101 1.381 . S
C102 C104 1.381 . S
C102 C105 1.487 . S
C103 C100 1.382 . S
C103 C104 1.387 . S
C103 H126 0.930 . S
C104 C102 1.381 . S
C104 C103 1.387 . S
C104 H127 0.931 . S
C105 C98 1.399 . S
C105 C102 1.487 . S
C105 N137 1.343 . S
C106 C107 1.384 . S
C106 C108 1.384 . S
C106 H128 0.931 . S
C107 C106 1.384 . S
C107 C110 1.382 . S
C108 C106 1.384 . S
C108 C109 1.381 . S
C108 H129 0.930 . S
C109 C108 1.381 . S
C109 C111 1.381 . S
C109 C112 1.487 . S
C110 C107 1.382 . S
C110 C111 1.387 . S
C110 H130 0.930 . S
C111 C109 1.381 . S
C111 C110 1.387 . S
C111 H131 0.931 . S
C112 C109 1.487 . S
C112 C119 1.399 . S
C112 N137 1.343 . S
C113 C114 1.384 . S
C113 C115 1.384 . S
C113 H132 0.931 . S
C114 C113 1.384 . S
C114 C117 1.382 . S
C115 C113 1.384 . S
C115 C116 1.381 . S
C115 H133 0.930 . S
C116 C115 1.381 . S
C116 C118 1.381 . S
C116 C119 1.487 . S
C117 C114 1.382 . S
C117 C118 1.387 . S
C117 H134 0.930 . S
C118 C116 1.381 . S
C118 C117 1.387 . S
C118 H135 0.931 . S
C119 C112 1.399 . S
C119 C116 1.487 . S
C119 N136 1.343 . S
H120 C92 0.931 . S
H121 C94 0.930 . S
H122 C96 0.930 . S
H123 C97 0.931 . S
H124 C99 0.931 . S
H125 C101 0.930 . S
H126 C103 0.930 . S
H127 C104 0.931 . S
H128 C106 0.931 . S
H129 C108 0.930 . S
H130 C110 0.930 . S
H131 C111 0.931 . S
H132 C113 0.931 . S
H133 C115 0.930 . S
H134 C117 0.930 . S
H135 C118 0.931 . S
N136 C98 1.343 . S
N136 C119 1.343 . S
N137 C105 1.343 . S
N137 C112 1.343 . S
C138 C139 1.384 . S
C138 C140 1.384 . S
C138 H166 0.931 . S
C139 C138 1.384 . S
C139 C142 1.382 . S
C140 C138 1.384 . S
C140 C141 1.381 . S
C140 H167 0.930 . S
C141 C140 1.381 . S
C141 C143 1.381 . S
C141 C144 1.487 . S
C142 C139 1.382 . S
C142 C143 1.387 . S
C142 H168 0.930 . S
C143 C141 1.381 . S
C143 C142 1.387 . S
C143 H169 0.931 . S
C144 C141 1.487 . S
C144 C151 1.399 . S
C144 N182 1.343 . S
C145 C146 1.384 . S
C145 C147 1.384 . S
C145 H170 0.931 . S
C146 C145 1.384 . S
C146 C149 1.382 . S
C147 C145 1.384 . S
C147 C148 1.381 . S
C147 H171 0.930 . S
C148 C147 1.381 . S
C148 C150 1.381 . S
C148 C151 1.487 . S
C149 C146 1.382 . S
C149 C150 1.387 . S
C149 H172 0.930 . S
C150 C148 1.381 . S
C150 C149 1.387 . S
C150 H173 0.931 . S
C151 C144 1.399 . S
C151 C148 1.487 . S
C151 N183 1.343 1_655 S
C152 C153 1.384 . S
C152 C154 1.384 . S
C152 H174 0.931 . S
C153 C152 1.384 . S
C153 C156 1.382 . S
C154 C152 1.384 . S
C154 C155 1.381 . S
C154 H175 0.930 . S
C155 C154 1.381 . S
C155 C157 1.381 . S
C155 C158 1.487 . S
C156 C153 1.382 . S
C156 C157 1.387 . S
C156 H176 0.930 . S
C157 C155 1.381 . S
C157 C156 1.387 . S
C157 H177 0.931 . S
C158 C155 1.487 . S
C158 C165 1.399 . S
C158 N183 1.343 . S
C159 C160 1.384 . S
C159 C161 1.384 . S
C159 H178 0.931 . S
C160 C159 1.384 . S
C160 C163 1.382 . S
C161 C159 1.384 . S
C161 C162 1.381 . S
C161 H179 0.930 . S
C162 C161 1.381 . S
C162 C164 1.381 . S
C162 C165 1.487 . S
C163 C160 1.382 . S
C163 C164 1.387 . S
C163 H180 0.930 . S
C164 C162 1.381 . S
C164 C163 1.387 . S
C164 H181 0.931 . S
C165 C158 1.399 . S
C165 C162 1.487 . S
C165 N182 1.343 1_455 S
H166 C138 0.931 . S
H167 C140 0.930 . S
H168 C142 0.930 . S
H169 C143 0.931 . S
H170 C145 0.931 . S
H171 C147 0.930 . S
H172 C149 0.930 . S
H173 C150 0.931 . S
H174 C152 0.931 . S
H175 C154 0.930 . S
H176 C156 0.930 . S
H177 C157 0.931 . S
H178 C159 0.931 . S
H179 C161 0.930 . S
H180 C163 0.930 . S
H181 C164 0.931 . S
N182 C144 1.343 . S
N182 C165 1.343 1_655 S
N183 C151 1.343 1_455 S
N183 C158 1.343 . S
C184 C185 1.384 . S
C184 C186 1.384 . S
C184 H212 0.931 . S
C185 C184 1.384 . S
C185 C188 1.382 . S
C186 C184 1.384 . S
C186 C187 1.381 . S
C186 H213 0.930 1_556 S
C187 C186 1.381 . S
C187 C189 1.381 . S
C187 C190 1.487 . S
C188 C185 1.382 . S
C188 C189 1.387 . S
C188 H214 0.930 . S
C189 C187 1.381 . S
C189 C188 1.387 . S
C189 H215 0.931 . S
C190 C187 1.487 . S
C190 C197 1.399 1_556 S
C190 N228 1.343 . S
C191 C192 1.384 . S
C191 C193 1.384 . S
C191 H216 0.931 . S
C192 C191 1.384 . S
C192 C195 1.382 . S
C193 C191 1.384 . S
C193 C194 1.381 . S
C193 H217 0.930 . S
C194 C193 1.381 . S
C194 C196 1.381 . S
C194 C197 1.487 . S
C195 C192 1.382 . S
C195 C196 1.387 . S
C195 H218 0.930 . S
C196 C194 1.381 . S
C196 C195 1.387 . S
C196 H219 0.931 . S
C197 C190 1.399 1_554 S
C197 C194 1.487 . S
C197 N229 1.343 1_565 S
C198 C199 1.384 . S
C198 C200 1.382 1_554 S
C198 H220 0.931 . S
C199 C198 1.384 . S
C199 C202 1.382 . S
C200 C198 1.382 1_556 S
C200 C201 1.379 1_556 S
C200 H221 0.935 . S
C201 C200 1.379 1_554 S
C201 C203 1.381 . S
C201 C204 1.487 . S
C202 C199 1.382 . S
C202 C203 1.387 . S
C202 H222 0.930 . S
C203 C201 1.381 . S
C203 C202 1.387 . S
C203 H223 0.931 . S
C204 C201 1.487 . S
C204 C211 1.399 1_554 S
C204 N229 1.343 . S
C205 C206 1.384 . S
C205 C207 1.384 . S
C205 H224 0.931 . S
C206 C205 1.384 . S
C206 C209 1.382 . S
C207 C205 1.384 . S
C207 C208 1.381 . S
C207 H225 0.930 . S
C208 C207 1.381 . S
C208 C210 1.381 . S
C208 C211 1.487 . S
C209 C206 1.382 . S
C209 C210 1.387 . S
C209 H226 0.930 . S
C210 C208 1.381 . S
C210 C209 1.387 . S
C210 H227 0.931 . S
C211 C204 1.399 1_556 S
C211 C208 1.487 . S
C211 N228 1.343 1_545 S
H212 C184 0.931 . S
H213 C186 0.930 1_554 S
H214 C188 0.930 . S
H215 C189 0.931 . S
H216 C191 0.931 . S
H217 C193 0.930 . S
H218 C195 0.930 . S
H219 C196 0.931 . S
H220 C198 0.931 . S
H221 C200 0.935 . S
H222 C202 0.930 . S
H223 C203 0.931 . S
H224 C205 0.931 . S
H225 C207 0.930 . S
H226 C209 0.930 . S
H227 C210 0.931 . S
N228 C190 1.343 . S
N228 C211 1.343 1_565 S
N229 C197 1.343 1_545 S
N229 C204 1.343 . S
C230 C231 1.384 . S
C230 C232 1.384 . S
C230 H258 0.931 . S
C231 C230 1.384 . S
C231 C234 1.382 . S
C232 C230 1.384 . S
C232 C233 1.381 . S
C232 H259 0.930 . S
C233 C232 1.381 . S
C233 C235 1.381 . S
C233 C236 1.487 . S
C234 C231 1.382 . S
C234 C235 1.387 . S
C234 H260 0.930 . S
C235 C233 1.381 . S
C235 C234 1.387 . S
C235 H261 0.931 . S
C236 C233 1.487 . S
C236 C243 1.399 . S
C236 N274 1.343 . S
C237 C238 1.384 . S
C237 C239 1.384 . S
C237 H262 0.931 . S
C238 C237 1.384 . S
C238 C241 1.382 . S
C239 C237 1.384 . S
C239 C240 1.381 . S
C239 H263 0.930 . S
C240 C239 1.381 . S
C240 C242 1.381 . S
C240 C243 1.487 . S
C241 C238 1.382 . S
C241 C242 1.387 . S
C241 H264 0.930 . S
C242 C240 1.381 . S
C242 C241 1.387 . S
C242 H265 0.931 . S
C243 C236 1.399 . S
C243 C240 1.487 . S
C243 N275 1.343 . S
C244 C245 1.384 . S
C244 C246 1.384 . S
C244 H266 0.931 . S
C245 C244 1.384 . S
C245 C248 1.382 . S
C246 C244 1.384 . S
C246 C247 1.381 . S
C246 H267 0.930 . S
C247 C246 1.381 . S
C247 C249 1.381 . S
C247 C250 1.487 . S
C248 C245 1.382 . S
C248 C249 1.387 . S
C248 H268 0.930 . S
C249 C247 1.381 . S
C249 C248 1.387 . S
C249 H269 0.931 . S
C250 C247 1.487 . S
C250 C257 1.399 . S
C250 N275 1.343 . S
C251 C252 1.384 . S
C251 C253 1.384 . S
C251 H270 0.931 . S
C252 C251 1.384 . S
C252 C255 1.382 . S
C253 C251 1.384 . S
C253 C254 1.381 . S
C253 H271 0.930 . S
C254 C253 1.381 . S
C254 C256 1.381 . S
C254 C257 1.487 . S
C255 C252 1.382 . S
C255 C256 1.387 . S
C255 H272 0.930 . S
C256 C254 1.381 . S
C256 C255 1.387 . S
C256 H273 0.931 . S
C257 C250 1.399 . S
C257 C254 1.487 . S
C257 N274 1.343 . S
H258 C230 0.931 . S
H259 C232 0.930 . S
H260 C234 0.930 . S
H261 C235 0.931 . S
H262 C237 0.931 . S
H263 C239 0.930 . S
H264 C241 0.930 . S
H265 C242 0.931 . S
H266 C244 0.931 . S
H267 C246 0.930 . S
H268 C248 0.930 . S
H269 C249 0.931 . S
H270 C251 0.931 . S
H271 C253 0.930 . S
H272 C255 0.930 . S
H273 C256 0.931 . S
N274 C236 1.343 . S
N274 C257 1.343 . S
N275 C243 1.343 . S
N275 C250 1.343 . S
Co276 O277 2.216 . S
Co276 O278 2.091 . S
Co276 O280 2.004 . S
Co276 O286 2.021 . S
Co276 O288 2.137 . S
Co276 O289 2.244 . S
O277 Co276 2.216 . S
O277 C284 1.247 . S
O278 Co276 2.091 . S
O278 C284 1.261 . S
C279 O288 1.247 . S
C279 O289 1.272 . S
O280 Co276 2.004 . S
O280 C285 1.259 . S
Co281 O282 2.061 . S
Co281 O287 2.052 . S
Co281 O289 2.135 . S
O282 Co281 2.061 . S
O282 C285 1.235 . S
C283 O286 1.238 . S
C283 O287 1.241 . S
C284 O277 1.247 . S
C284 O278 1.261 . S
C285 O280 1.259 . S
C285 O282 1.235 . S
O286 Co276 2.021 . S
O286 C283 1.238 . S
O287 Co281 2.052 . S
O287 C283 1.241 . S
O288 Co276 2.137 . S
O288 C279 1.247 . S
O289 Co276 2.244 . S
O289 C279 1.272 . S
O289 Co281 2.135 . S
Co290 O291 2.216 . S
Co290 O292 2.091 . S
Co290 O294 2.004 . S
Co290 O300 2.021 . S
Co290 O302 2.137 . S
Co290 O303 2.244 . S
O291 Co290 2.216 . S
O291 C298 1.247 . S
O292 Co290 2.091 . S
O292 C298 1.261 . S
C293 O302 1.247 . S
C293 O303 1.272 . S
O294 Co290 2.004 . S
O294 C299 1.259 . S
Co295 O296 2.061 . S
Co295 O301 2.052 . S
Co295 O303 2.135 . S
O296 Co295 2.061 . S
O296 C299 1.235 . S
C297 O300 1.238 . S
C297 O301 1.241 . S
C298 O291 1.247 . S
C298 O292 1.261 . S
C299 O294 1.259 . S
C299 O296 1.235 . S
O300 Co290 2.021 . S
O300 C297 1.238 . S
O301 Co295 2.052 . S
O301 C297 1.241 . S
O302 Co290 2.137 . S
O302 C293 1.247 . S
O303 Co290 2.244 . S
O303 C293 1.272 . S
O303 Co295 2.135 . S
Co304 O305 2.216 . S
Co304 O306 2.091 . S
Co304 O308 2.004 . S
Co304 O314 2.021 . S
Co304 O316 2.137 . S
Co304 O317 2.244 . S
O305 Co304 2.216 . S
O305 C312 1.247 . S
O306 Co304 2.091 . S
O306 C312 1.261 . S
C307 O316 1.247 . S
C307 O317 1.272 . S
O308 Co304 2.004 . S
O308 C313 1.259 . S
Co309 O310 2.061 . S
Co309 O315 2.052 . S
Co309 O317 2.135 . S
O310 Co309 2.061 . S
O310 C313 1.235 . S
C311 O314 1.238 . S
C311 O315 1.241 . S
C312 O305 1.247 . S
C312 O306 1.261 . S
C313 O308 1.259 . S
C313 O310 1.235 . S
O314 Co304 2.021 . S
O314 C311 1.238 . S
O315 Co309 2.052 . S
O315 C311 1.241 . S
O316 Co304 2.137 . S
O316 C307 1.247 . S
O317 Co304 2.244 . S
O317 C307 1.272 . S
O317 Co309 2.135 . S
Co318 O319 2.216 . S
Co318 O320 2.091 . S
Co318 O322 2.004 . S
Co318 O328 2.021 . S
Co318 O330 2.137 . S
Co318 O331 2.244 . S
O319 Co318 2.216 . S
O319 C326 1.247 . S
O320 Co318 2.091 . S
O320 C326 1.261 . S
C321 O330 1.247 . S
C321 O331 1.272 . S
O322 Co318 2.004 . S
O322 C327 1.259 . S
Co323 O324 2.061 . S
Co323 O329 2.052 . S
Co323 O331 2.135 . S
O324 Co323 2.061 . S
O324 C327 1.235 . S
C325 O328 1.238 . S
C325 O329 1.241 . S
C326 O319 1.247 . S
C326 O320 1.261 . S
C327 O322 1.259 . S
C327 O324 1.235 . S
O328 Co318 2.021 . S
O328 C325 1.238 . S
O329 Co323 2.052 . S
O329 C325 1.241 . S
O330 Co318 2.137 . S
O330 C321 1.247 . S
O331 Co318 2.244 . S
O331 C321 1.272 . S
O331 Co323 2.135 . S
Co332 O333 2.216 . S
Co332 O334 2.091 . S
Co332 O336 2.004 . S
Co332 O342 2.021 . S
Co332 O344 2.137 . S
Co332 O345 2.244 . S
O333 Co332 2.216 . S
O333 C340 1.247 . S
O334 Co332 2.091 . S
O334 C340 1.261 . S
C335 O344 1.247 . S
C335 O345 1.272 . S
O336 Co332 2.004 . S
O336 C341 1.259 . S
Co337 O338 2.061 . S
Co337 O343 2.052 . S
Co337 O345 2.135 . S
O338 Co337 2.061 . S
O338 C341 1.235 . S
C339 O342 1.238 . S
C339 O343 1.241 . S
C340 O333 1.247 . S
C340 O334 1.261 . S
C341 O336 1.259 . S
C341 O338 1.235 . S
O342 Co332 2.021 . S
O342 C339 1.238 . S
O343 Co337 2.052 . S
O343 C339 1.241 . S
O344 Co332 2.137 . S
O344 C335 1.247 . S
O345 Co332 2.244 . S
O345 C335 1.272 . S
O345 Co337 2.135 . S
Co346 O347 2.216 . S
Co346 O348 2.091 . S
Co346 O350 2.004 . S
Co346 O356 2.021 . S
Co346 O358 2.137 . S
Co346 O359 2.244 . S
O347 Co346 2.216 . S
O347 C354 1.247 . S
O348 Co346 2.091 . S
O348 C354 1.261 . S
C349 O358 1.247 . S
C349 O359 1.272 . S
O350 Co346 2.004 . S
O350 C355 1.259 . S
Co351 O352 2.061 . S
Co351 O357 2.052 . S
Co351 O359 2.135 . S
O352 Co351 2.061 . S
O352 C355 1.235 . S
C353 O356 1.238 . S
C353 O357 1.241 . S
C354 O347 1.247 . S
C354 O348 1.261 . S
C355 O350 1.259 . S
C355 O352 1.235 . S
O356 Co346 2.021 . S
O356 C353 1.238 . S
O357 Co351 2.052 . S
O357 C353 1.241 . S
O358 Co346 2.137 . S
O358 C349 1.247 . S
O359 Co346 2.244 . S
O359 C349 1.272 . S
O359 Co351 2.135 . S
C360 C361 1.363 . S
C360 C366 1.379 . S
C360 N368 1.356 . S
C361 C360 1.363 . S
C361 C367 1.363 . S
C362 C363 1.363 . S
C362 C367 1.379 . S
C362 N369 1.356 . S
C363 C362 1.363 . S
C363 C366 1.363 . S
N364 C366 1.356 . S
N364 H376 0.984 . S
N364 H377 0.985 . S
N365 C367 1.356 . S
N365 H370 0.984 . S
N365 H371 0.985 . S
C366 C360 1.379 . S
C366 C363 1.363 . S
C366 N364 1.356 . S
C367 C361 1.363 . S
C367 C362 1.379 . S
C367 N365 1.356 . S
N368 C360 1.356 . S
N368 H374 0.984 . S
N368 H375 0.984 . S
N369 C362 1.356 . S
N369 H372 0.984 . S
N369 H373 0.985 . S
H370 N365 0.984 . S
H371 N365 0.985 . S
H372 N369 0.984 . S
H373 N369 0.985 . S
H374 N368 0.984 . S
H375 N368 0.984 . S
H376 N364 0.984 . S
H377 N364 0.985 . S
C378 C379 1.363 . S
C378 C384 1.379 . S
C378 N386 1.356 . S
C379 C378 1.363 . S
C379 C385 1.363 . S
C380 C381 1.363 . S
C380 C385 1.379 . S
C380 N387 1.356 . S
C381 C380 1.363 . S
C381 C384 1.363 . S
N382 C384 1.356 . S
N382 H394 0.984 . S
N382 H395 0.985 . S
N383 C385 1.356 . S
N383 H388 0.984 . S
N383 H389 0.985 . S
C384 C378 1.379 . S
C384 C381 1.363 . S
C384 N382 1.356 . S
C385 C379 1.363 . S
C385 C380 1.379 . S
C385 N383 1.356 . S
N386 C378 1.356 . S
N386 H392 0.984 . S
N386 H393 0.984 . S
N387 C380 1.356 . S
N387 H390 0.984 . S
N387 H391 0.985 . S
H388 N383 0.984 . S
H389 N383 0.985 . S
H390 N387 0.984 . S
H391 N387 0.985 . S
H392 N386 0.984 . S
H393 N386 0.984 . S
H394 N382 0.984 . S
H395 N382 0.985 . S
C396 C397 1.363 . S
C396 C402 1.379 . S
C396 N404 1.356 . S
C397 C396 1.363 . S
C397 C403 1.363 . S
C398 C399 1.363 . S
C398 C403 1.379 . S
C398 N405 1.356 . S
C399 C398 1.363 . S
C399 C402 1.363 . S
N400 C402 1.356 . S
N400 H412 0.984 . S
N400 H413 0.985 . S
N401 C403 1.356 . S
N401 H406 0.984 . S
N401 H407 0.985 . S
C402 C396 1.379 . S
C402 C399 1.363 . S
C402 N400 1.356 . S
C403 C397 1.363 . S
C403 C398 1.379 . S
C403 N401 1.356 . S
N404 C396 1.356 . S
N404 H410 0.984 . S
N404 H411 0.984 . S
N405 C398 1.356 . S
N405 H408 0.984 . S
N405 H409 0.985 . S
H406 N401 0.984 . S
H407 N401 0.985 . S
H408 N405 0.984 . S
H409 N405 0.985 . S
H410 N404 0.984 . S
H411 N404 0.984 . S
H412 N400 0.984 . S
H413 N400 0.985 . S
C414 C415 1.363 . S
C414 C420 1.379 . S
C414 N422 1.356 . S
C415 C414 1.363 . S
C415 C421 1.363 . S
C416 C417 1.363 . S
C416 C421 1.379 . S
C416 N423 1.356 . S
C417 C416 1.363 . S
C417 C420 1.363 . S
N418 C420 1.356 . S
N418 H430 0.984 . S
N418 H431 0.985 . S
N419 C421 1.356 . S
N419 H424 0.984 . S
N419 H425 0.985 . S
C420 C414 1.379 . S
C420 C417 1.363 . S
C420 N418 1.356 . S
C421 C415 1.363 . S
C421 C416 1.379 . S
C421 N419 1.356 . S
N422 C414 1.356 . S
N422 H428 0.984 . S
N422 H429 0.984 . S
N423 C416 1.356 . S
N423 H426 0.984 . S
N423 H427 0.985 . S
H424 N419 0.984 . S
H425 N419 0.985 . S
H426 N423 0.984 . S
H427 N423 0.985 . S
H428 N422 0.984 . S
H429 N422 0.984 . S
H430 N418 0.984 . S
H431 N418 0.985 . S
C432 C433 1.363 . S
C432 C438 1.379 . S
C432 N440 1.356 . S
C433 C432 1.363 . S
C433 C439 1.363 . S
C434 C435 1.363 . S
C434 C439 1.379 . S
C434 N441 1.356 . S
C435 C434 1.363 . S
C435 C438 1.363 . S
N436 C438 1.356 . S
N436 H448 0.984 . S
N436 H449 0.985 . S
N437 C439 1.356 . S
N437 H442 0.984 . S
N437 H443 0.985 . S
C438 C432 1.379 . S
C438 C435 1.363 . S
C438 N436 1.356 . S
C439 C433 1.363 . S
C439 C434 1.379 . S
C439 N437 1.356 . S
N440 C432 1.356 . S
N440 H446 0.984 1_556 S
N440 H447 0.984 . S
N441 C434 1.356 . S
N441 H444 0.984 . S
N441 H445 0.985 . S
H442 N437 0.984 . S
H443 N437 0.985 . S
H444 N441 0.984 . S
H445 N441 0.985 . S
H446 N440 0.984 1_554 S
H447 N440 0.984 . S
H448 N436 0.984 . S
H449 N436 0.985 . S
C450 C451 1.363 . S
C450 C456 1.379 . S
C450 N458 1.356 . S
C451 C450 1.363 . S
C451 C457 1.363 . S
C452 C453 1.363 . S
C452 C457 1.379 . S
C452 N459 1.356 . S
C453 C452 1.363 . S
C453 C456 1.363 . S
N454 C456 1.356 . S
N454 H466 0.984 . S
N454 H467 0.985 . S
N455 C457 1.356 . S
N455 H460 0.984 . S
N455 H461 0.985 . S
C456 C450 1.379 . S
C456 C453 1.363 . S
C456 N454 1.356 . S
C457 C451 1.363 . S
C457 C452 1.379 . S
C457 N455 1.356 . S
N458 C450 1.356 . S
N458 H464 0.984 . S
N458 H465 0.984 . S
N459 C452 1.356 . S
N459 H462 0.984 . S
N459 H463 0.985 . S
H460 N455 0.984 . S
H461 N455 0.985 . S
H462 N459 0.984 . S
H463 N459 0.985 . S
H464 N458 0.984 . S
H465 N458 0.984 . S
H466 N454 0.984 . S
H467 N454 0.985 . S
C468 C469 1.363 . S
C468 C474 1.379 . S
C468 N476 1.356 . S
C469 C468 1.363 . S
C469 C475 1.363 . S
C470 C471 1.363 . S
C470 C475 1.379 . S
C470 N477 1.356 . S
C471 C470 1.363 . S
C471 C474 1.363 . S
N472 C474 1.356 . S
N472 H484 0.984 . S
N472 H485 0.985 . S
N473 C475 1.356 . S
N473 H478 0.984 . S
N473 H479 0.985 . S
C474 C468 1.379 . S
C474 C471 1.363 . S
C474 N472 1.356 . S
C475 C469 1.363 . S
C475 C470 1.379 . S
C475 N473 1.356 . S
N476 C468 1.356 . S
N476 H482 0.984 . S
N476 H483 0.984 . S
N477 C470 1.356 . S
N477 H480 0.984 . S
N477 H481 0.985 . S
H478 N473 0.984 . S
H479 N473 0.985 . S
H480 N477 0.984 . S
H481 N477 0.985 . S
H482 N476 0.984 . S
H483 N476 0.984 . S
H484 N472 0.984 . S
H485 N472 0.985 . S
C486 C487 1.363 . S
C486 C492 1.379 . S
C486 N494 1.356 . S
C487 C486 1.363 . S
C487 C493 1.363 . S
C488 C489 1.363 . S
C488 C493 1.379 . S
C488 N495 1.356 . S
C489 C488 1.363 . S
C489 C492 1.363 . S
N490 C492 1.356 . S
N490 H502 0.984 . S
N490 H503 0.985 . S
N491 C493 1.356 . S
N491 H496 0.984 . S
N491 H497 0.985 . S
C492 C486 1.379 . S
C492 C489 1.363 . S
C492 N490 1.356 . S
C493 C487 1.363 . S
C493 C488 1.379 . S
C493 N491 1.356 . S
N494 C486 1.356 . S
N494 H500 0.984 . S
N494 H501 0.984 . S
N495 C488 1.356 . S
N495 H498 0.984 . S
N495 H499 0.985 . S
H496 N491 0.984 . S
H497 N491 0.985 . S
H498 N495 0.984 . S
H499 N495 0.985 . S
H500 N494 0.984 . S
H501 N494 0.984 . S
H502 N490 0.984 . S
H503 N490 0.985 . S
C504 C505 1.363 . S
C504 C510 1.379 . S
C504 N512 1.356 . S
C505 C504 1.363 . S
C505 C511 1.363 . S
C506 C507 1.363 . S
C506 C511 1.379 . S
C506 N513 1.356 . S
C507 C506 1.363 . S
C507 C510 1.363 . S
N508 C510 1.356 . S
N508 H520 0.984 . S
N508 H521 0.985 . S
N509 C511 1.356 . S
N509 H514 0.984 . S
N509 H515 0.985 . S
C510 C504 1.379 . S
C510 C507 1.363 . S
C510 N508 1.356 . S
C511 C505 1.363 . S
C511 C506 1.379 . S
C511 N509 1.356 . S
N512 C504 1.356 . S
N512 H518 0.984 . S
N512 H519 0.984 . S
N513 C506 1.356 . S
N513 H516 0.984 . S
N513 H517 0.985 . S
H514 N509 0.984 . S
H515 N509 0.985 . S
H516 N513 0.984 . S
H517 N513 0.985 . S
H518 N512 0.984 . S
H519 N512 0.984 . S
H520 N508 0.984 . S
H521 N508 0.985 . S
C522 C523 1.363 . S
C522 C528 1.379 . S
C522 N530 1.356 . S
C523 C522 1.363 . S
C523 C529 1.363 . S
C524 C525 1.363 . S
C524 C529 1.379 . S
C524 N531 1.356 . S
C525 C524 1.363 . S
C525 C528 1.363 . S
N526 C528 1.356 . S
N526 H538 0.984 . S
N526 H539 0.985 . S
N527 C529 1.356 . S
N527 H532 0.984 . S
N527 H533 0.982 1_554 S
C528 C522 1.379 . S
C528 C525 1.363 . S
C528 N526 1.356 . S
C529 C523 1.363 . S
C529 C524 1.379 . S
C529 N527 1.356 . S
N530 C522 1.356 . S
N530 H536 0.984 . S
N530 H537 0.984 . S
N531 C524 1.356 . S
N531 H534 0.984 . S
N531 H535 0.985 . S
H532 N527 0.984 . S
H533 N527 0.982 1_556 S
H534 N531 0.984 . S
H535 N531 0.985 . S
H536 N530 0.984 . S
H537 N530 0.984 . S
H538 N526 0.984 . S
H539 N526 0.985 . S
C540 C541 1.363 . S
C540 C546 1.379 . S
C540 N548 1.356 . S
C541 C540 1.363 . S
C541 C547 1.363 . S
C542 C543 1.363 . S
C542 C547 1.379 . S
C542 N549 1.356 . S
C543 C542 1.363 . S
C543 C546 1.363 . S
N544 C546 1.356 . S
N544 H556 0.984 . S
N544 H557 0.985 . S
N545 C547 1.356 . S
N545 H550 0.984 . S
N545 H551 0.985 . S
C546 C540 1.379 . S
C546 C543 1.363 . S
C546 N544 1.356 . S
C547 C541 1.363 . S
C547 C542 1.379 . S
C547 N545 1.356 . S
N548 C540 1.356 . S
N548 H554 0.984 . S
N548 H555 0.984 . S
N549 C542 1.356 . S
N549 H552 0.984 . S
N549 H553 0.985 . S
H550 N545 0.984 . S
H551 N545 0.985 . S
H552 N549 0.984 . S
H553 N549 0.985 . S
H554 N548 0.984 . S
H555 N548 0.984 . S
H556 N544 0.984 . S
H557 N544 0.985 . S
C558 C559 1.363 . S
C558 C564 1.379 . S
C558 N566 1.356 . S
C559 C558 1.363 . S
C559 C565 1.363 . S
C560 C561 1.363 . S
C560 C565 1.379 . S
C560 N567 1.356 . S
C561 C560 1.363 . S
C561 C564 1.363 . S
N562 C564 1.356 . S
N562 H574 0.984 . S
N562 H575 0.985 . S
N563 C565 1.356 . S
N563 H568 0.984 . S
N563 H569 0.985 . S
C564 C558 1.379 . S
C564 C561 1.363 . S
C564 N562 1.356 . S
C565 C559 1.363 . S
C565 C560 1.379 . S
C565 N563 1.356 . S
N566 C558 1.356 . S
N566 H572 0.984 . S
N566 H573 0.984 . S
N567 C560 1.356 . S
N567 H570 0.984 . S
N567 H571 0.985 . S
H568 N563 0.984 . S
H569 N563 0.985 . S
H570 N567 0.984 . S
H571 N567 0.985 . S
H572 N566 0.984 . S
H573 N566 0.984 . S
H574 N562 0.984 . S
H575 N562 0.985 . S
C576 C577 1.363 . S
C576 C582 1.379 . S
C576 N584 1.356 . S
C577 C576 1.363 . S
C577 C583 1.363 . S
C578 C579 1.363 . S
C578 C583 1.379 . S
C578 N585 1.356 . S
C579 C578 1.363 . S
C579 C582 1.363 . S
N580 C582 1.356 . S
N580 H592 0.984 . S
N580 H593 0.985 . S
N581 C583 1.356 . S
N581 H586 0.984 . S
N581 H587 0.985 . S
C582 C576 1.379 . S
C582 C579 1.363 . S
C582 N580 1.356 . S
C583 C577 1.363 . S
C583 C578 1.379 . S
C583 N581 1.356 . S
N584 C576 1.356 . S
N584 H590 0.984 . S
N584 H591 0.984 . S
N585 C578 1.356 . S
N585 H588 0.984 . S
N585 H589 0.985 . S
H586 N581 0.984 . S
H587 N581 0.985 . S
H588 N585 0.984 . S
H589 N585 0.985 . S
H590 N584 0.984 . S
H591 N584 0.984 . S
H592 N580 0.984 . S
H593 N580 0.985 . S
C594 C595 1.363 . S
C594 C600 1.379 . S
C594 N602 1.356 . S
C595 C594 1.363 . S
C595 C601 1.363 . S
C596 C597 1.363 . S
C596 C601 1.379 . S
C596 N603 1.356 . S
C597 C596 1.363 . S
C597 C600 1.363 . S
N598 C600 1.356 . S
N598 H610 0.984 . S
N598 H611 0.985 . S
N599 C601 1.356 . S
N599 H604 0.984 . S
N599 H605 0.985 . S
C600 C594 1.379 . S
C600 C597 1.363 . S
C600 N598 1.356 . S
C601 C595 1.363 . S
C601 C596 1.379 . S
C601 N599 1.356 . S
N602 C594 1.356 . S
N602 H608 0.984 . S
N602 H609 0.984 . S
N603 C596 1.356 . S
N603 H606 0.984 . S
N603 H607 0.985 . S
H604 N599 0.984 . S
H605 N599 0.985 . S
H606 N603 0.984 . S
H607 N603 0.985 . S
H608 N602 0.984 . S
H609 N602 0.984 . S
H610 N598 0.984 . S
H611 N598 0.985 . S
C612 C613 1.363 . S
C612 C618 1.379 . S
C612 N620 1.356 . S
C613 C612 1.363 . S
C613 C619 1.363 . S
C614 C615 1.363 . S
C614 C619 1.379 . S
C614 N621 1.356 . S
C615 C614 1.363 . S
C615 C618 1.363 . S
N616 C618 1.356 . S
N616 H628 0.984 . S
N616 H629 0.985 . S
N617 C619 1.356 . S
N617 H622 0.984 . S
N617 H623 0.985 . S
C618 C612 1.379 . S
C618 C615 1.363 . S
C618 N616 1.356 . S
C619 C613 1.363 . S
C619 C614 1.379 . S
C619 N617 1.356 . S
N620 C612 1.356 . S
N620 H626 0.984 . S
N620 H627 0.984 . S
N621 C614 1.356 . S
N621 H624 0.984 . S
N621 H625 0.985 . S
H622 N617 0.984 . S
H623 N617 0.985 . S
H624 N621 0.984 . S
H625 N621 0.985 . S
H626 N620 0.984 . S
H627 N620 0.984 . S
H628 N616 0.984 . S
H629 N616 0.985 . S
C630 C631 1.363 . S
C630 C636 1.379 1_556 S
C630 N638 1.356 . S
C631 C630 1.363 . S
C631 C637 1.363 . S
C632 C633 1.363 1_556 S
C632 C637 1.379 . S
C632 N639 1.356 . S
C633 C632 1.363 1_554 S
C633 C636 1.363 . S
N634 C636 1.356 . S
N634 H646 0.984 . S
N634 H647 0.985 . S
N635 C637 1.356 . S
N635 H640 0.984 . S
N635 H641 0.985 . S
C636 C630 1.379 1_554 S
C636 C633 1.363 . S
C636 N634 1.356 . S
C637 C631 1.363 . S
C637 C632 1.379 . S
C637 N635 1.356 . S
N638 C630 1.356 . S
N638 H644 0.984 . S
N638 H645 0.984 . S
N639 C632 1.356 . S
N639 H642 0.984 1_556 S
N639 H643 0.985 . S
H640 N635 0.984 . S
H641 N635 0.985 . S
H642 N639 0.984 1_554 S
H643 N639 0.985 . S
H644 N638 0.984 . S
H645 N638 0.984 . S
H646 N634 0.984 . S
H647 N634 0.985 . S
C648 C649 1.363 . S
C648 C654 1.379 . S
C648 N656 1.356 . S
C649 C648 1.363 . S
C649 C655 1.363 . S
C650 C651 1.363 . S
C650 C655 1.379 . S
C650 N657 1.356 . S
C651 C650 1.363 . S
C651 C654 1.363 . S
N652 C654 1.356 . S
N652 H664 0.984 . S
N652 H665 0.985 . S
N653 C655 1.356 . S
N653 H658 0.984 . S
N653 H659 0.985 . S
C654 C648 1.379 . S
C654 C651 1.363 . S
C654 N652 1.356 . S
C655 C649 1.363 . S
C655 C650 1.379 . S
C655 N653 1.356 . S
N656 C648 1.356 . S
N656 H662 0.984 . S
N656 H663 0.984 . S
N657 C650 1.356 . S
N657 H660 0.984 . S
N657 H661 0.985 . S
H658 N653 0.984 . S
H659 N653 0.985 . S
H660 N657 0.984 . S
H661 N657 0.985 . S
H662 N656 0.984 . S
H663 N656 0.984 . S
H664 N652 0.984 . S
H665 N652 0.985 . S
C666 C667 1.363 . S
C666 C672 1.379 . S
C666 N674 1.356 . S
C667 C666 1.363 . S
C667 C673 1.363 . S
C668 C669 1.363 . S
C668 C673 1.379 . S
C668 N675 1.356 . S
C669 C668 1.363 . S
C669 C672 1.363 . S
N670 C672 1.356 . S
N670 H682 0.984 . S
N670 H683 0.985 . S
N671 C673 1.356 . S
N671 H676 0.984 . S
N671 H677 0.985 . S
C672 C666 1.379 . S
C672 C669 1.363 . S
C672 N670 1.356 . S
C673 C667 1.363 . S
C673 C668 1.379 . S
C673 N671 1.356 . S
N674 C666 1.356 . S
N674 H680 0.984 . S
N674 H681 0.984 . S
N675 C668 1.356 . S
N675 H678 0.984 . S
N675 H679 0.985 . S
H676 N671 0.984 . S
H677 N671 0.985 . S
H678 N675 0.984 . S
H679 N675 0.985 . S
H680 N674 0.984 . S
H681 N674 0.984 . S
H682 N670 0.984 . S
H683 N670 0.985 . S
C684 C685 1.363 . S
C684 C690 1.379 . S
C684 N692 1.356 . S
C685 C684 1.363 . S
C685 C691 1.363 . S
C686 C687 1.363 . S
C686 C691 1.379 . S
C686 N693 1.356 . S
C687 C686 1.363 . S
C687 C690 1.363 . S
N688 C690 1.356 . S
N688 H700 0.984 . S
N688 H701 0.985 . S
N689 C691 1.356 . S
N689 H694 0.984 . S
N689 H695 0.985 . S
C690 C684 1.379 . S
C690 C687 1.363 . S
C690 N688 1.356 . S
C691 C685 1.363 . S
C691 C686 1.379 . S
C691 N689 1.356 . S
N692 C684 1.356 . S
N692 H698 0.984 . S
N692 H699 0.984 . S
N693 C686 1.356 . S
N693 H696 0.984 . S
N693 H697 0.985 . S
H694 N689 0.984 . S
H695 N689 0.985 . S
H696 N693 0.984 . S
H697 N693 0.985 . S
H698 N692 0.984 . S
H699 N692 0.984 . S
H700 N688 0.984 . S
H701 N688 0.985 . S
C702 C703 1.363 . S
C702 C708 1.379 . S
C702 N710 1.356 . S
C703 C702 1.363 . S
C703 C709 1.363 . S
C704 C705 1.363 . S
C704 C709 1.379 . S
C704 N711 1.356 . S
C705 C704 1.363 . S
C705 C708 1.363 . S
N706 C708 1.356 . S
N706 H718 0.984 . S
N706 H719 0.985 . S
N707 C709 1.356 . S
N707 H712 0.984 . S
N707 H713 0.985 . S
C708 C702 1.379 . S
C708 C705 1.363 . S
C708 N706 1.356 . S
C709 C703 1.363 . S
C709 C704 1.379 . S
C709 N707 1.356 . S
N710 C702 1.356 . S
N710 H716 0.984 . S
N710 H717 0.984 . S
N711 C704 1.356 . S
N711 H714 0.984 . S
N711 H715 0.985 . S
H712 N707 0.984 . S
H713 N707 0.985 . S
H714 N711 0.984 . S
H715 N711 0.985 . S
H716 N710 0.984 . S
H717 N710 0.984 . S
H718 N706 0.984 . S
H719 N706 0.985 . S
C720 C721 1.363 . S
C720 C726 1.379 . S
C720 N728 1.356 . S
C721 C720 1.363 . S
C721 C727 1.363 . S
C722 C723 1.363 . S
C722 C727 1.379 . S
C722 N729 1.356 . S
C723 C722 1.363 . S
C723 C726 1.363 . S
N724 C726 1.356 . S
N724 H736 0.984 . S
N724 H737 0.985 . S
N725 C727 1.356 . S
N725 H730 0.984 . S
N725 H731 0.985 . S
C726 C720 1.379 . S
C726 C723 1.363 . S
C726 N724 1.356 . S
C727 C721 1.363 . S
C727 C722 1.379 . S
C727 N725 1.356 . S
N728 C720 1.356 . S
N728 H734 0.984 . S
N728 H735 0.984 . S
N729 C722 1.356 . S
N729 H732 0.984 . S
N729 H733 0.985 . S
H730 N725 0.984 . S
H731 N725 0.985 . S
H732 N729 0.984 . S
H733 N729 0.985 . S
H734 N728 0.984 . S
H735 N728 0.984 . S
H736 N724 0.984 . S
H737 N724 0.985 . S
C738 C739 1.363 . S
C738 C744 1.379 . S
C738 N746 1.356 . S
C739 C738 1.363 . S
C739 C745 1.363 . S
C740 C741 1.363 . S
C740 C745 1.379 . S
C740 N747 1.356 . S
C741 C740 1.363 . S
C741 C744 1.363 . S
N742 C744 1.356 . S
N742 H754 0.984 . S
N742 H755 0.985 . S
N743 C745 1.356 . S
N743 H748 0.984 . S
N743 H749 0.985 . S
C744 C738 1.379 . S
C744 C741 1.363 . S
C744 N742 1.356 . S
C745 C739 1.363 . S
C745 C740 1.379 . S
C745 N743 1.356 . S
N746 C738 1.356 . S
N746 H752 0.984 . S
N746 H753 0.984 . S
N747 C740 1.356 . S
N747 H750 0.984 . S
N747 H751 0.985 . S
H748 N743 0.984 . S
H749 N743 0.985 . S
H750 N747 0.984 . S
H751 N747 0.985 . S
H752 N746 0.984 . S
H753 N746 0.984 . S
H754 N742 0.984 . S
H755 N742 0.985 . S
C756 C757 1.363 . S
C756 C762 1.379 1_554 S
C756 N764 1.356 . S
C757 C756 1.363 . S
C757 C763 1.363 . S
C758 C759 1.363 1_554 S
C758 C763 1.379 . S
C758 N765 1.356 . S
C759 C758 1.363 1_556 S
C759 C762 1.363 . S
N760 C762 1.356 . S
N760 H772 0.984 . S
N760 H773 0.985 . S
N761 C763 1.356 . S
N761 H766 0.984 . S
N761 H767 0.985 . S
C762 C756 1.379 1_556 S
C762 C759 1.363 . S
C762 N760 1.356 . S
C763 C757 1.363 . S
C763 C758 1.379 . S
C763 N761 1.356 . S
N764 C756 1.356 . S
N764 H770 0.984 1_554 S
N764 H771 0.984 . S
N765 C758 1.356 . S
N765 H768 0.984 1_554 S
N765 H769 0.985 . S
H766 N761 0.984 . S
H767 N761 0.985 . S
H768 N765 0.984 1_556 S
H769 N765 0.985 . S
H770 N764 0.984 1_556 S
H771 N764 0.984 . S
H772 N760 0.984 . S
H773 N760 0.985 . S
C774 C775 1.363 . S
C774 C780 1.379 . S
C774 N782 1.356 . S
C775 C774 1.363 . S
C775 C781 1.363 . S
C776 C777 1.363 . S
C776 C781 1.379 . S
C776 N783 1.356 . S
C777 C776 1.363 . S
C777 C780 1.363 . S
N778 C780 1.356 . S
N778 H790 0.984 . S
N778 H791 0.985 . S
N779 C781 1.356 . S
N779 H784 0.984 . S
N779 H785 0.985 . S
C780 C774 1.379 . S
C780 C777 1.363 . S
C780 N778 1.356 . S
C781 C775 1.363 . S
C781 C776 1.379 . S
C781 N779 1.356 . S
N782 C774 1.356 . S
N782 H788 0.984 . S
N782 H789 0.984 . S
N783 C776 1.356 . S
N783 H786 0.984 . S
N783 H787 0.985 . S
H784 N779 0.984 . S
H785 N779 0.985 . S
H786 N783 0.984 . S
H787 N783 0.985 . S
H788 N782 0.984 . S
H789 N782 0.984 . S
H790 N778 0.984 . S
H791 N778 0.985 . S
C363 C349 1.626 . S
C361 C15 1.596 . S
C379 C61 1.594 . S
C381 C279 1.615 . S
C397 C114 1.612 . S
C399 C298 1.646 . S
C415 C139 1.612 . S
C417 C307 1.626 . S
C435 C321 1.615 . S
C433 C185 1.609 . S
C451 C245 1.612 . S
C453 C340 1.646 . S
C469 C47 1.586 . S
C471 C293 1.596 . S
C487 C100 1.609 . S
C489 C312 1.626 . S
C505 C153 1.589 . S
C507 C326 1.617 . S
C525 C335 1.596 . S
C523 C199 1.572 . S
C543 C354 1.626 . S
C541 C231 1.609 . S
C561 C284 1.617 . S
C559 C1 1.605 . S
C577 C22 1.492 . S
C579 C299 1.481 . S
C595 C68 1.492 . S
C597 C311 1.482 . S
C615 C325 1.470 . S
C613 C107 1.493 . S
C631 C146 1.494 . S
C633 C341 1.481 . S
C651 C353 1.482 . S
C649 C192 1.497 . S
C669 C283 1.470 . S
C667 C252 1.493 . S
C687 C355 1.489 . S
C685 C54 1.504 . S
C703 C93 1.502 . S
C705 C285 1.494 . S
C723 C297 1.480 . S
C721 C160 1.497 . S
C739 C206 1.500 . S
C741 C313 1.489 . S
C757 C238 1.502 . S
C759 C327 1.494 . S
C775 C8 1.499 . S
C777 C339 1.479 . S
