# Generated by pormake.
# Topology ctn, (3,4)-cn, num edge types: 1
# Building blocks:
#     Node 0, Type 0, BuildingBlock: PAMTOO_clean_linker_0, # of connection points: 3
#     Node 1, Type 0, BuildingBlock: PAMTOO_clean_linker_0, # of connection points: 3
#     Node 2, Type 0, BuildingBlock: PAMTOO_clean_linker_0, # of connection points: 3
#     Node 3, Type 0, BuildingBlock: PAMTOO_clean_linker_0, # of connection points: 3
#     Node 4, Type 0, BuildingBlock: PAMTOO_clean_linker_0, # of connection points: 3
#     Node 5, Type 0, BuildingBlock: PAMTOO_clean_linker_0, # of connection points: 3
#     Node 6, Type 0, BuildingBlock: PAMTOO_clean_linker_0, # of connection points: 3
#     Node 7, Type 0, BuildingBlock: PAMTOO_clean_linker_0, # of connection points: 3
#     Node 8, Type 0, BuildingBlock: PAMTOO_clean_linker_0, # of connection points: 3
#     Node 9, Type 0, BuildingBlock: PAMTOO_clean_linker_0, # of connection points: 3
#     Node 10, Type 0, BuildingBlock: PAMTOO_clean_linker_0, # of connection points: 3
#     Node 11, Type 0, BuildingBlock: PAMTOO_clean_linker_0, # of connection points: 3
#     Node 12, Type 0, BuildingBlock: PAMTOO_clean_linker_0, # of connection points: 3
#     Node 13, Type 0, BuildingBlock: PAMTOO_clean_linker_0, # of connection points: 3
#     Node 14, Type 0, BuildingBlock: PAMTOO_clean_linker_0, # of connection points: 3
#     Node 15, Type 0, BuildingBlock: PAMTOO_clean_linker_0, # of connection points: 3
#     Node 16, Type 1, BuildingBlock: KUFVIS_clean_sbu_0, # of connection points: 4
#     Node 17, Type 1, BuildingBlock: KUFVIS_clean_sbu_0, # of connection points: 4
#     Node 18, Type 1, BuildingBlock: KUFVIS_clean_sbu_0, # of connection points: 4
#     Node 19, Type 1, BuildingBlock: KUFVIS_clean_sbu_0, # of connection points: 4
#     Node 20, Type 1, BuildingBlock: KUFVIS_clean_sbu_0, # of connection points: 4
#     Node 21, Type 1, BuildingBlock: KUFVIS_clean_sbu_0, # of connection points: 4
#     Node 22, Type 1, BuildingBlock: KUFVIS_clean_sbu_0, # of connection points: 4
#     Node 23, Type 1, BuildingBlock: KUFVIS_clean_sbu_0, # of connection points: 4
#     Node 24, Type 1, BuildingBlock: KUFVIS_clean_sbu_0, # of connection points: 4
#     Node 25, Type 1, BuildingBlock: KUFVIS_clean_sbu_0, # of connection points: 4
#     Node 26, Type 1, BuildingBlock: KUFVIS_clean_sbu_0, # of connection points: 4
#     Node 27, Type 1, BuildingBlock: KUFVIS_clean_sbu_0, # of connection points: 4
#     Edge 28, Type (0, 1), BuildingBlock: OJICUG_clean_linker_0, # of connection points: 2
#     Edge 29, Type (0, 1), BuildingBlock: OJICUG_clean_linker_0, # of connection points: 2
#     Edge 30, Type (0, 1), BuildingBlock: OJICUG_clean_linker_0, # of connection points: 2
#     Edge 31, Type (0, 1), BuildingBlock: OJICUG_clean_linker_0, # of connection points: 2
#     Edge 32, Type (0, 1), BuildingBlock: OJICUG_clean_linker_0, # of connection points: 2
#     Edge 33, Type (0, 1), BuildingBlock: OJICUG_clean_linker_0, # of connection points: 2
#     Edge 34, Type (0, 1), BuildingBlock: OJICUG_clean_linker_0, # of connection points: 2
#     Edge 35, Type (0, 1), BuildingBlock: OJICUG_clean_linker_0, # of connection points: 2
#     Edge 36, Type (0, 1), BuildingBlock: OJICUG_clean_linker_0, # of connection points: 2
#     Edge 37, Type (0, 1), BuildingBlock: OJICUG_clean_linker_0, # of connection points: 2
#     Edge 38, Type (0, 1), BuildingBlock: OJICUG_clean_linker_0, # of connection points: 2
#     Edge 39, Type (0, 1), BuildingBlock: OJICUG_clean_linker_0, # of connection points: 2
#     Edge 40, Type (0, 1), BuildingBlock: OJICUG_clean_linker_0, # of connection points: 2
#     Edge 41, Type (0, 1), BuildingBlock: OJICUG_clean_linker_0, # of connection points: 2
#     Edge 42, Type (0, 1), BuildingBlock: OJICUG_clean_linker_0, # of connection points: 2
#     Edge 43, Type (0, 1), BuildingBlock: OJICUG_clean_linker_0, # of connection points: 2
#     Edge 44, Type (0, 1), BuildingBlock: OJICUG_clean_linker_0, # of connection points: 2
#     Edge 45, Type (0, 1), BuildingBlock: OJICUG_clean_linker_0, # of connection points: 2
#     Edge 46, Type (0, 1), BuildingBlock: OJICUG_clean_linker_0, # of connection points: 2
#     Edge 47, Type (0, 1), BuildingBlock: OJICUG_clean_linker_0, # of connection points: 2
#     Edge 48, Type (0, 1), BuildingBlock: OJICUG_clean_linker_0, # of connection points: 2
#     Edge 49, Type (0, 1), BuildingBlock: OJICUG_clean_linker_0, # of connection points: 2
#     Edge 50, Type (0, 1), BuildingBlock: OJICUG_clean_linker_0, # of connection points: 2
#     Edge 51, Type (0, 1), BuildingBlock: OJICUG_clean_linker_0, # of connection points: 2
#     Edge 52, Type (0, 1), BuildingBlock: OJICUG_clean_linker_0, # of connection points: 2
#     Edge 53, Type (0, 1), BuildingBlock: OJICUG_clean_linker_0, # of connection points: 2
#     Edge 54, Type (0, 1), BuildingBlock: OJICUG_clean_linker_0, # of connection points: 2
#     Edge 55, Type (0, 1), BuildingBlock: OJICUG_clean_linker_0, # of connection points: 2
#     Edge 56, Type (0, 1), BuildingBlock: OJICUG_clean_linker_0, # of connection points: 2
#     Edge 57, Type (0, 1), BuildingBlock: OJICUG_clean_linker_0, # of connection points: 2
#     Edge 58, Type (0, 1), BuildingBlock: OJICUG_clean_linker_0, # of connection points: 2
#     Edge 59, Type (0, 1), BuildingBlock: OJICUG_clean_linker_0, # of connection points: 2
#     Edge 60, Type (0, 1), BuildingBlock: OJICUG_clean_linker_0, # of connection points: 2
#     Edge 61, Type (0, 1), BuildingBlock: OJICUG_clean_linker_0, # of connection points: 2
#     Edge 62, Type (0, 1), BuildingBlock: OJICUG_clean_linker_0, # of connection points: 2
#     Edge 63, Type (0, 1), BuildingBlock: OJICUG_clean_linker_0, # of connection points: 2
#     Edge 64, Type (0, 1), BuildingBlock: OJICUG_clean_linker_0, # of connection points: 2
#     Edge 65, Type (0, 1), BuildingBlock: OJICUG_clean_linker_0, # of connection points: 2
#     Edge 66, Type (0, 1), BuildingBlock: OJICUG_clean_linker_0, # of connection points: 2
#     Edge 67, Type (0, 1), BuildingBlock: OJICUG_clean_linker_0, # of connection points: 2
#     Edge 68, Type (0, 1), BuildingBlock: OJICUG_clean_linker_0, # of connection points: 2
#     Edge 69, Type (0, 1), BuildingBlock: OJICUG_clean_linker_0, # of connection points: 2
#     Edge 70, Type (0, 1), BuildingBlock: OJICUG_clean_linker_0, # of connection points: 2
#     Edge 71, Type (0, 1), BuildingBlock: OJICUG_clean_linker_0, # of connection points: 2
#     Edge 72, Type (0, 1), BuildingBlock: OJICUG_clean_linker_0, # of connection points: 2
#     Edge 73, Type (0, 1), BuildingBlock: OJICUG_clean_linker_0, # of connection points: 2
#     Edge 74, Type (0, 1), BuildingBlock: OJICUG_clean_linker_0, # of connection points: 2
#     Edge 75, Type (0, 1), BuildingBlock: OJICUG_clean_linker_0, # of connection points: 2
# Relax obj value: 0.079
# Max RMSD: 0.177
# Mean RMSD: 0.120
data_MOF--net-ctn--node1-KUFVIS_clean_sbu_0--node2-PAMTOO_clean_linker_0--edge1-OJICUG_clean_linker_0
_symmetry_space_group_name_H-M    P1
_symmetry_Int_Tables_number       1
_symmetry_cell_setting            triclinic
loop_
_symmetry_equiv_pos_as_xyz
'x, y, z'
_cell_length_a     37.797955
_cell_length_b     38.040045
_cell_length_c     39.016573
_cell_angle_alpha  85.776742
_cell_angle_beta   92.614003
_cell_angle_gamma 99.501053
loop_
_atom_site_label
_atom_site_type_symbol
_atom_site_fract_x
_atom_site_fract_y
_atom_site_fract_z
_atom_type_partial_charge
H0 H 0.9958 0.09963 0.07289 0.0
H1 H 0.06003 0.01631 0.09277 0.0
H2 H 0.08176 0.09117 1.00636 0.0
H3 H 0.07724 0.01777 0.99059 0.0
C4 C 0.08932 1.00661 0.01471 0.0
O5 O 0.09777 0.03303 0.03763 0.0
H6 H 0.06903 0.98473 0.02592 0.0
C7 C 0.01815 0.08713 0.06652 0.0
C8 C 0.0378 0.10002 0.03705 0.0
C9 C 0.02621 0.05742 0.08741 0.0
C10 C 0.05338 0.03939 0.07746 0.0
C11 C 0.07257 0.05125 0.04778 0.0
C12 C 0.0655 0.0819 0.02836 0.0
H13 H 0.36557 0.65326 0.27013 0.0
H14 H 0.30854 0.68485 0.17771 0.0
H15 H 0.40338 0.75213 0.21237 0.0
H16 H 0.3477 0.78997 0.19239 0.0
C17 C 0.33203 0.77279 0.17325 0.0
O18 O 0.35074 0.74583 0.16674 0.0
H19 H 0.30574 0.76101 0.18419 0.0
C20 C 0.36327 0.67164 0.2479 0.0
C21 C 0.38813 0.70346 0.24443 0.0
C22 C 0.33443 0.66426 0.2239 0.0
C23 C 0.33127 0.68897 0.19572 0.0
C24 C 0.3561 0.72053 0.1918 0.0
C25 C 0.3847 0.72737 0.21568 0.0
H26 H 0.98871 0.55914 0.11665 0.0
H27 H 0.94993 0.49698 0.03018 0.0
H28 H 0.03717 0.46901 0.09379 0.0
H29 H 0.04641 0.46348 0.02224 0.0
C30 C 0.01824 0.45459 0.01312 0.0
O31 O 0.9957 0.45258 0.0405 0.0
H32 H 1.01093 0.47456 0.99291 0.0
C33 C 0.98994 0.53729 0.10077 0.0
C34 C 0.01562 0.51452 0.10957 0.0
C35 C 0.96581 0.5319 0.07192 0.0
C36 C 0.9684 0.50303 0.05174 0.0
C37 C 0.99421 0.48073 0.05963 0.0
C38 C 0.01742 0.48649 0.08837 0.0
H39 H 0.70134 0.886 0.26394 0.0
H40 H 0.67077 0.77841 0.23394 0.0
H41 H 0.75642 0.84818 0.18314 0.0
H42 H 0.68972 0.80278 0.14324 0.0
C43 C 0.69623 0.77732 0.15601 0.0
O44 O 0.71775 0.78448 0.18509 0.0
H45 H 0.67066 0.76031 0.16373 0.0
C46 C 0.70454 0.8652 0.2473 0.0
C47 C 0.73207 0.87119 0.2235 0.0
C48 C 0.68245 0.83193 0.25139 0.0
C49 C 0.68734 0.80446 0.2307 0.0
C50 C 0.71332 0.81078 0.20536 0.0
C51 C 0.73543 0.84416 0.20169 0.0
H52 H 0.12188 0.962 0.55581 0.0
H53 H 0.03219 0.92711 0.4866 0.0
H54 H 0.10674 0.02047 0.45934 0.0
H55 H 0.03327 0.02973 0.4469 0.0
C56 C 0.02141 1.00265 0.43903 0.0
O57 O 0.0475 0.98094 0.44143 0.0
H58 H 0.99936 0.99127 0.45652 0.0
C59 C 0.1065 0.96524 0.53204 0.0
C60 C 0.11828 0.99436 0.50861 0.0
C61 C 0.07569 0.93994 0.5244 0.0
C62 C 0.05568 0.94585 0.49369 0.0
C63 C 0.06661 0.97544 0.47092 0.0
C64 C 0.09817 0.99873 0.47795 0.0
H65 H 0.15898 0.76129 0.8407 0.0
H66 H 0.19345 0.67318 0.79538 0.0
H67 H 0.25427 0.72104 0.87999 0.0
H68 H 0.29781 0.70806 0.82503 0.0
C69 C 0.28078 0.68447 0.81418 0.0
O70 O 0.25152 0.67357 0.83465 0.0
H71 H 0.27142 0.69247 0.78773 0.0
C72 C 0.17747 0.74238 0.84032 0.0
C73 C 0.20704 0.74441 0.86392 0.0
C74 C 0.17199 0.71644 0.81571 0.0
C75 C 0.19662 0.69262 0.81471 0.0
C76 C 0.22651 0.69485 0.83748 0.0
C77 C 0.23128 0.72017 0.86228 0.0
H78 H 0.93487 0.57181 0.54509 0.0
H79 H 0.96331 0.50492 0.47035 0.0
H80 H 0.0409 0.59232 0.50305 0.0
H81 H 0.01624 0.57417 0.42078 0.0
C82 C 0.02124 0.54621 0.42623 0.0
O83 O 0.02764 0.53977 0.46119 0.0
H84 H 0.99648 0.52834 0.41791 0.0
C85 C 0.95474 0.56508 0.52871 0.0
C86 C 0.98974 0.58532 0.52813 0.0
C87 C 0.94486 0.5365 0.50747 0.0
C88 C 0.97053 0.52715 0.48654 0.0
C89 C 1.0048 0.54749 0.48443 0.0
C90 C 0.01441 0.57651 0.50519 0.0
H91 H 0.7814 0.83361 0.88473 0.0
H92 H 0.87348 0.79758 0.84532 0.0
H93 H 0.82285 0.8762 0.78667 0.0
H94 H 0.85745 0.83955 0.73822 0.0
C95 C 0.86633 0.82045 0.75846 0.0
O96 O 0.87474 0.83788 0.78837 0.0
H97 H 0.84338 0.79815 0.76219 0.0
C98 C 0.80126 0.83486 0.86532 0.0
C99 C 0.79899 0.85773 0.83542 0.0
C100 C 0.82786 0.81243 0.86931 0.0
C101 C 0.85251 0.81396 0.84297 0.0
C102 C 0.85074 0.83688 0.81339 0.0
C103 C 0.82411 0.85869 0.80974 0.0
H104 H 0.28104 0.33621 0.38656 0.0
H105 H 0.37329 0.3003 0.34739 0.0
H106 H 0.32487 0.38147 0.29021 0.0
H107 H 0.36114 0.34646 0.24096 0.0
C108 C 0.36856 0.32631 0.26093 0.0
O109 O 0.37632 0.3425 0.29161 0.0
H110 H 0.34484 0.30465 0.26327 0.0
C111 C 0.30122 0.3378 0.36742 0.0
C112 C 0.29986 0.36169 0.33813 0.0
C113 C 0.32747 0.31496 0.37118 0.0
C114 C 0.35258 0.31699 0.34517 0.0
C115 C 0.35171 0.34089 0.31619 0.0
C116 C 0.32547 0.36318 0.31281 0.0
H117 H 0.48567 0.05647 0.61639 0.0
H118 H 0.44608 0.99578 0.52918 0.0
H119 H 0.53277 0.96588 0.59233 0.0
H120 H 0.54183 0.96278 0.5202 0.0
C121 C 0.51371 0.95333 0.51125 0.0
O122 O 0.49128 0.95078 0.53875 0.0
H123 H 0.50586 0.97312 0.49114 0.0
C124 C 0.48658 0.03476 0.60026 0.0
C125 C 0.5119 0.01151 0.60873 0.0
C126 C 0.46244 0.03005 0.57134 0.0
C127 C 0.46457 1.00132 0.55083 0.0
C128 C 0.49001 0.97857 0.55841 0.0
C129 C 0.51327 0.98367 0.58719 0.0
H130 H 0.20033 0.38657 0.76425 0.0
H131 H 0.16859 0.27949 0.73322 0.0
H132 H 0.25551 0.34855 0.68362 0.0
H133 H 0.18896 0.30413 0.64273 0.0
C134 C 0.19487 0.27847 0.65556 0.0
O135 O 0.21609 0.28523 0.68489 0.0
H136 H 0.16899 0.26184 0.66295 0.0
C137 C 0.20332 0.36586 0.74743 0.0
C138 C 0.23109 0.37165 0.72387 0.0
C139 C 0.18075 0.33281 0.75108 0.0
C140 C 0.18546 0.3054 0.73025 0.0
C141 C 0.21174 0.31153 0.7052 0.0
C142 C 0.2343 0.34469 0.70194 0.0
H143 H 0.85915 0.15209 0.77628 0.0
H144 H 0.80191 0.1828 0.68367 0.0
H145 H 0.89468 0.25213 0.71926 0.0
H146 H 0.8341 0.28684 0.70005 0.0
C147 C 0.82086 0.26968 0.67969 0.0
O148 O 0.84217 0.24474 0.67362 0.0
H149 H 0.79436 0.25583 0.68882 0.0
C150 C 0.85652 0.17055 0.75418 0.0
C151 C 0.88068 0.20291 0.75093 0.0
C152 C 0.82803 0.16262 0.72989 0.0
C153 C 0.8244 0.18738 0.7019 0.0
C154 C 0.84825 0.21956 0.69846 0.0
C155 C 0.87659 0.22696 0.72244 0.0
H156 H 0.49657 0.6033 0.57655 0.0
H157 H 0.55682 0.51603 0.5917 0.0
H158 H 0.57412 0.58932 0.50328 0.0
H159 H 0.57196 0.51672 0.48836 0.0
C160 C 0.58338 0.5055 0.51278 0.0
O161 O 0.59245 0.53218 0.5353 0.0
H162 H 0.56246 0.48429 0.52405 0.0
C163 C 0.5166 0.58869 0.56833 0.0
C164 C 0.5346 0.60055 0.53775 0.0
C165 C 0.5242 0.55819 0.5883 0.0
C166 C 0.55004 0.53931 0.57683 0.0
C167 C 0.56781 0.55059 0.54621 0.0
C168 C 0.5603 0.58119 0.52701 0.0
H169 H 0.62301 0.46321 0.05783 0.0
H170 H 0.53274 0.42738 0.98966 0.0
H171 H 0.60755 0.51998 0.96051 0.0
H172 H 0.53417 0.52948 0.94834 0.0
C173 C 0.52202 0.50229 0.94098 0.0
O174 O 0.54794 0.48038 0.94353 0.0
H175 H 0.50014 0.49139 0.95881 0.0
C176 C 0.60751 0.46607 0.03407 0.0
C177 C 0.61928 0.49471 0.01014 0.0
C178 C 0.57657 0.44075 0.02701 0.0
C179 C 0.55638 0.44616 0.99629 0.0
C180 C 0.56729 0.47528 0.97297 0.0
C181 C 0.59901 0.4986 0.97949 0.0
H182 H 0.65695 0.25688 0.34459 0.0
H183 H 0.69859 0.17624 0.29406 0.0
H184 H 0.75314 0.2184 0.38436 0.0
H185 H 0.80357 0.20496 0.33866 0.0
C186 C 0.78631 0.18713 0.32111 0.0
O187 O 0.75406 0.17421 0.33651 0.0
H188 H 0.78128 0.203 0.29674 0.0
C189 C 0.67654 0.23916 0.34373 0.0
C190 C 0.70562 0.24118 0.36793 0.0
C191 C 0.67371 0.21565 0.31711 0.0
C192 C 0.70016 0.19405 0.31472 0.0
C193 C 0.72862 0.19508 0.33904 0.0
C194 C 0.73099 0.21815 0.36572 0.0
H195 H 0.43764 0.0739 0.04485 0.0
H196 H 0.46661 0.02277 0.95786 0.0
H197 H 0.54473 0.09997 1.0058 0.0
H198 H 0.53213 1.00266 0.96217 0.0
C199 C 0.55033 0.02809 0.95536 0.0
O200 O 0.53197 0.05673 0.95562 0.0
H201 H 0.57289 0.03146 0.97476 0.0
C202 C 0.45759 0.07011 0.02701 0.0
C203 C 0.49248 0.09036 0.02891 0.0
C204 C 0.4479 0.04565 1.00146 0.0
C205 C 0.47358 0.0412 0.97793 0.0
C206 C 0.50853 0.06003 0.98002 0.0
C207 C 0.51801 0.08443 1.00551 0.0
Mn208 Mn 0.26073 0.88648 1.00807 0.0
Mn209 Mn 0.25779 0.92301 0.92677 0.0
C210 C 0.23424 0.85216 0.96402 0.0
C211 C 0.28825 0.8575 0.05407 0.0
C212 C 0.20994 0.93845 0.98245 0.0
O213 O 0.29936 0.93099 0.00931 0.0
O214 O 0.29779 0.95089 0.95342 0.0
C215 C 0.32687 0.90847 0.90286 0.0
N216 N 0.29045 0.90483 0.89938 0.0
C217 C 0.28984 0.87058 0.84981 0.0
C218 C 0.32735 0.87416 0.85275 0.0
C219 C 0.34593 0.89316 0.87941 0.0
C220 C 0.27231 0.88669 0.87375 0.0
H221 H 0.34126 0.92287 0.92341 0.0
C222 C 0.31129 0.95259 0.98419 0.0
O223 O 0.26458 0.87764 0.05863 0.0
O224 O 0.29671 0.85465 0.02259 0.0
N225 N 0.22073 0.89784 0.89847 0.0
C226 C 0.18445 0.8948 0.9006 0.0
C227 C 0.16189 0.87545 0.87653 0.0
C228 C 0.17683 0.85951 0.8505 0.0
C229 C 0.21423 0.86316 0.84872 0.0
C230 C 0.23539 0.88304 0.87323 0.0
H231 H 0.1728 0.9068 0.92065 0.0
O232 O 0.22546 0.84335 0.99567 0.0
O233 O 0.25774 0.88097 0.95923 0.0
O234 O 0.22115 0.91721 1.00557 0.0
O235 O 0.22233 0.94328 0.95224 0.0
C236 C 0.23132 0.84718 0.82406 0.0
C237 C 0.2691 0.85091 0.82459 0.0
H238 H 0.34214 0.86213 0.8349 0.0
H239 H 0.37487 0.89588 0.88195 0.0
H240 H 0.13305 0.87265 0.87814 0.0
H241 H 0.15933 0.84425 0.83223 0.0
H242 H 0.21565 0.8315 0.80491 0.0
H243 H 0.28191 0.83806 0.80582 0.0
Mn244 Mn 0.173 0.50775 0.27771 0.0
Mn245 Mn 0.15971 0.59387 0.26969 0.0
C246 C 0.21402 0.55213 0.24988 0.0
C247 C 0.19978 0.46097 0.30595 0.0
C248 C 0.11752 0.53606 0.22704 0.0
O249 O 0.13635 0.50927 0.31532 0.0
O250 O 0.1338 0.56846 0.30955 0.0
C251 C 0.19806 0.61904 0.33355 0.0
N252 N 0.19295 0.62252 0.29878 0.0
C253 C 0.2371 0.6759 0.29466 0.0
C254 C 0.24213 0.67343 0.33053 0.0
C255 C 0.22281 0.64465 0.35001 0.0
C256 C 0.21215 0.64953 0.2797 0.0
H257 H 0.18361 0.59674 0.34852 0.0
C258 C 0.12576 0.53737 0.32492 0.0
O259 O 0.17235 0.45469 0.28472 0.0
O260 O 0.2098 0.49404 0.31278 0.0
N261 N 0.18418 0.62151 0.2323 0.0
C262 C 0.17874 0.61807 0.19786 0.0
C263 C 0.19798 0.64327 0.17462 0.0
C264 C 0.22229 0.67193 0.187 0.0
C265 C 0.22735 0.67494 0.22254 0.0
C266 C 0.20752 0.64897 0.24447 0.0
H267 H 0.15999 0.5962 0.18817 0.0
O268 O 0.21222 0.519 0.24312 0.0
O269 O 0.19139 0.55817 0.2717 0.0
O270 O 0.13363 0.51054 0.23923 0.0
O271 O 0.12461 0.56748 0.2377 0.0
C272 C 0.25156 0.7025 0.23709 0.0
C273 C 0.25635 0.70304 0.27309 0.0
H274 H 0.26121 0.69311 0.34333 0.0
H275 H 0.22699 0.6422 0.37765 0.0
H276 H 0.19401 0.64067 0.14722 0.0
H277 H 0.23714 0.69129 0.169 0.0
H278 H 0.26692 0.72319 0.22084 0.0
H279 H 0.27516 0.7243 0.28384 0.0
Mn280 Mn 0.79786 0.64325 0.03305 0.0
Mn281 Mn 0.7253 0.66461 0.98632 0.0
C282 C 0.74424 0.60266 0.0306 0.0
C283 C 0.85135 0.61794 0.03992 0.0
C284 C 0.74779 0.69284 0.05604 0.0
O285 O 0.82009 0.68633 1.00102 0.0
O286 O 0.76943 0.69603 0.97139 0.0
C287 C 0.74365 0.64362 0.91859 0.0
N288 N 0.71999 0.64133 0.94427 0.0
C289 C 0.67369 0.60654 0.911 0.0
C290 C 0.6975 0.60855 0.88412 0.0
C291 C 0.73273 0.62693 0.88806 0.0
C292 C 0.68634 0.62306 0.94107 0.0
H293 H 0.77052 0.65828 0.92134 0.0
C294 C 0.80315 0.70334 0.97778 0.0
O295 O 0.84405 0.64106 0.06025 0.0
O296 O 0.82863 0.61092 0.0144 0.0
N297 N 0.67989 0.63677 0.99736 0.0
C298 C 0.66082 0.63607 0.02628 0.0
C299 C 0.62538 0.61774 0.02704 0.0
C300 C 0.60957 0.60135 0.99771 0.0
C301 C 0.6295 0.60309 0.96801 0.0
C302 C 0.66494 0.62099 0.96906 0.0
H303 H 0.67258 0.64944 0.04855 0.0
O304 O 0.76751 0.6002 0.05578 0.0
O305 O 0.75288 0.62854 1.00735 0.0
O306 O 0.77493 0.67685 0.06169 0.0
O307 O 0.7278 0.68977 0.02884 0.0
C308 C 0.61561 0.58789 0.93736 0.0
C309 C 0.63783 0.58908 0.90907 0.0
H310 H 0.68903 0.59608 0.86038 0.0
H311 H 0.75127 0.6286 0.86745 0.0
H312 H 0.61013 0.61666 0.05 0.0
H313 H 0.58213 0.5875 0.99828 0.0
H314 H 0.58801 0.57465 0.93545 0.0
H315 H 0.62705 0.57652 0.88595 0.0
Mn316 Mn 0.88977 0.03267 0.25862 0.0
Mn317 Mn 0.90964 0.94937 0.25639 0.0
C318 C 0.84952 0.98766 0.23425 0.0
C319 C 0.8647 0.07666 0.28357 0.0
C320 C 0.94202 0.01158 0.20861 0.0
O321 O 0.9297 0.03189 0.29596 0.0
O322 O 0.93947 0.97533 0.29252 0.0
C323 C 0.88323 0.92003 0.3247 0.0
N324 N 0.88257 0.91821 0.28993 0.0
C325 C 0.83942 0.86404 0.29319 0.0
C326 C 0.83979 0.86526 0.32904 0.0
C327 C 0.86169 0.89345 0.34483 0.0
C328 C 0.86133 0.89138 0.27445 0.0
H329 H 0.90003 0.94161 0.337 0.0
C330 C 0.94544 1.00544 0.30623 0.0
O331 O 0.88969 0.08469 0.26129 0.0
O332 O 0.85532 0.04299 0.29266 0.0
N333 N 0.88187 0.92101 0.22303 0.0
C334 C 0.88319 0.92472 0.18808 0.0
C335 C 0.86232 0.89902 0.16835 0.0
C336 C 0.84058 0.86962 0.18472 0.0
C337 C 0.83976 0.86629 0.22071 0.0
C338 C 0.86117 0.89271 0.23904 0.0
H339 H 0.89999 0.94715 0.17535 0.0
O340 O 0.84813 0.02091 0.22502 0.0
O341 O 0.87467 0.98198 0.25661 0.0
O342 O 0.92582 0.03457 0.22065 0.0
O343 O 0.93819 0.97895 0.22023 0.0
C344 C 0.81829 0.83796 0.23912 0.0
C345 C 0.81788 0.837 0.2753 0.0
H346 H 0.82321 0.84481 0.34466 0.0
H347 H 0.86201 0.89466 0.37247 0.0
H348 H 0.86304 0.90182 0.14057 0.0
H349 H 0.82447 0.84989 0.1694 0.0
H350 H 0.80167 0.81698 0.22568 0.0
H351 H 0.80075 0.81544 0.28911 0.0
Mn352 Mn 0.29608 0.1435 0.53305 0.0
Mn353 Mn 0.22363 0.16504 0.48632 0.0
C354 C 0.24245 0.10292 0.53041 0.0
C355 C 0.34945 0.11796 0.53981 0.0
C356 C 0.2461 0.19312 0.55613 0.0
O357 O 0.31837 0.18674 0.50119 0.0
O358 O 0.26778 0.19648 0.47144 0.0
C359 C 0.24192 0.14422 0.41851 0.0
N360 N 0.21829 0.14186 0.44422 0.0
C361 C 0.17193 0.10721 0.4109 0.0
C362 C 0.19572 0.10929 0.38399 0.0
C363 C 0.23096 0.12763 0.38794 0.0
C364 C 0.18462 0.12362 0.44101 0.0
H365 H 0.2688 0.15886 0.42127 0.0
C366 C 0.30148 0.2038 0.47792 0.0
O367 O 0.34225 0.14103 0.56026 0.0
O368 O 0.32674 0.11121 0.51423 0.0
N369 N 0.17824 0.13716 0.49736 0.0
C370 C 0.15924 0.1363 0.52635 0.0
C371 C 0.12382 0.11794 0.52712 0.0
C372 C 0.10795 0.10167 0.49774 0.0
C373 C 0.12783 0.10356 0.46799 0.0
C374 C 0.16326 0.12146 0.46904 0.0
H375 H 0.17104 0.14958 0.54866 0.0
O376 O 0.26566 0.10037 0.55562 0.0
O377 O 0.25114 0.12891 0.50728 0.0
O378 O 0.27317 0.17703 0.56182 0.0
O379 O 0.22616 0.19012 0.52889 0.0
C380 C 0.11388 0.08851 0.43728 0.0
C381 C 0.13607 0.08978 0.40896 0.0
H382 H 0.18721 0.0969 0.3602 0.0
H383 H 0.24948 0.12935 0.3673 0.0
H384 H 0.10861 0.11674 0.55013 0.0
H385 H 0.08052 0.08781 0.49831 0.0
H386 H 0.08628 0.07529 0.43537 0.0
H387 H 0.12525 0.07732 0.38581 0.0
Mn388 Mn 0.38963 0.53166 0.76087 0.0
Mn389 Mn 0.40968 0.44858 0.75784 0.0
C390 C 0.34963 0.48698 0.73578 0.0
C391 C 0.36401 0.57503 0.78611 0.0
C392 C 0.44225 0.51137 0.71077 0.0
O393 O 0.42921 0.53048 0.79848 0.0
O394 O 0.43941 0.47417 0.79436 0.0
C395 C 0.38307 0.41851 0.82588 0.0
N396 N 0.38249 0.41708 0.79107 0.0
C397 C 0.33899 0.36315 0.79372 0.0
C398 C 0.33928 0.36396 0.8296 0.0
C399 C 0.36133 0.39183 0.84573 0.0
C400 C 0.36115 0.39053 0.77527 0.0
H401 H 0.39993 0.43986 0.83843 0.0
C402 C 0.4451 0.50407 0.80848 0.0
O403 O 0.3894 0.58356 0.76428 0.0
O404 O 0.35463 0.54124 0.79466 0.0
N405 N 0.38199 0.42061 0.72415 0.0
C406 C 0.38333 0.42475 0.68922 0.0
C407 C 0.3623 0.39943 0.66918 0.0
C408 C 0.34033 0.36999 0.68524 0.0
C409 C 0.33946 0.36623 0.72122 0.0
C410 C 0.36108 0.39225 0.73986 0.0
H411 H 0.40022 0.44726 0.67672 0.0
O412 O 0.34835 0.5203 0.72682 0.0
O413 O 0.37463 0.48106 0.75823 0.0
O414 O 0.4261 0.53421 0.72316 0.0
O415 O 0.43829 0.4786 0.72195 0.0
C416 C 0.31771 0.33788 0.73932 0.0
C417 C 0.31726 0.33649 0.77552 0.0
H418 H 0.32252 0.34345 0.845 0.0
H419 H 0.36158 0.39273 0.8734 0.0
H420 H 0.36303 0.40258 0.64142 0.0
H421 H 0.32405 0.35059 0.66969 0.0
H422 H 0.3009 0.31722 0.72563 0.0
H423 H 0.29992 0.31491 0.78909 0.0
Mn424 Mn 0.75384 0.38338 0.51265 0.0
Mn425 Mn 0.75358 0.41912 0.43099 0.0
C426 C 0.72853 0.3487 0.46839 0.0
C427 C 0.77988 0.35462 0.55961 0.0
C428 C 0.70407 0.43544 0.48481 0.0
O429 O 0.79272 0.42764 0.5145 0.0
O430 O 0.79297 0.44689 0.45842 0.0
C431 C 0.82327 0.40376 0.40941 0.0
N432 N 0.78695 0.40038 0.40489 0.0
C433 C 0.78764 0.36568 0.35583 0.0
C434 C 0.82507 0.369 0.35985 0.0
C435 C 0.84294 0.38809 0.38678 0.0
C436 C 0.76949 0.38216 0.37899 0.0
H437 H 0.83713 0.41822 0.43019 0.0
C438 C 0.80565 0.44878 0.48948 0.0
O439 O 0.75614 0.37493 0.56329 0.0
O440 O 0.78923 0.35148 0.52848 0.0
N441 N 0.71725 0.39391 0.40199 0.0
C442 C 0.68089 0.39105 0.40313 0.0
C443 C 0.65895 0.37158 0.37872 0.0
C444 C 0.67458 0.35532 0.35338 0.0
C445 C 0.71204 0.35875 0.35262 0.0
C446 C 0.73257 0.37875 0.37743 0.0
H447 H 0.66871 0.4033 0.42266 0.0
O448 O 0.71873 0.34028 0.49981 0.0
O449 O 0.7523 0.37736 0.46395 0.0
O450 O 0.71449 0.41436 0.50853 0.0
O451 O 0.71747 0.43995 0.45503 0.0
C452 C 0.72979 0.34243 0.32872 0.0
C453 C 0.76756 0.34591 0.3303 0.0
H454 H 0.84031 0.35669 0.34263 0.0
H455 H 0.87181 0.3906 0.39015 0.0
H456 H 0.63005 0.36894 0.37956 0.0
H457 H 0.65755 0.33997 0.33485 0.0
H458 H 0.71461 0.32665 0.30936 0.0
H459 H 0.78085 0.33279 0.31211 0.0
Mn460 Mn 0.66894 1.00199 0.77755 0.0
Mn461 Mn 0.65204 0.08697 0.77293 0.0
C462 C 0.70871 0.04856 0.75187 0.0
C463 C 0.69711 0.95527 0.80384 0.0
C464 C 0.61336 0.03081 0.72681 0.0
O465 O 0.6325 1.00025 0.81557 0.0
O466 O 0.62428 0.05802 0.81011 0.0
C467 C 0.68434 0.10929 0.84015 0.0
N468 N 0.68249 0.11427 0.80523 0.0
C469 C 0.72667 0.16764 0.80619 0.0
C470 C 0.72894 0.16315 0.84217 0.0
C471 C 0.70779 0.13375 0.8592 0.0
C472 C 0.70293 0.14232 0.78857 0.0
H473 H 0.66804 0.08683 0.85338 0.0
C474 C 0.61839 0.02642 0.82482 0.0
O475 O 0.67001 0.94914 0.7822 0.0
O476 O 0.7062 0.98804 0.81194 0.0
N477 N 0.67798 0.11781 0.73832 0.0
C478 C 0.67448 0.11695 0.70345 0.0
C479 C 0.69489 0.14373 0.68257 0.0
C480 C 0.71845 0.17125 0.69771 0.0
C481 C 0.72152 0.17162 0.73363 0.0
C482 C 0.70048 0.14424 0.75313 0.0
H483 H 0.65641 0.0959 0.69166 0.0
O484 O 0.70784 0.01613 0.7433 0.0
O485 O 0.6856 0.05285 0.77407 0.0
O486 O 0.62923 1.00516 0.73921 0.0
O487 O 0.61989 0.06199 0.738 0.0
C488 C 0.74492 0.19787 0.75085 0.0
C489 C 0.74738 0.19596 0.78708 0.0
H490 H 0.74704 0.18192 0.85694 0.0
H491 H 0.7095 0.13002 0.88696 0.0
H492 H 0.69246 0.14318 0.65487 0.0
H493 H 0.73421 0.19182 0.68152 0.0
H494 H 0.7614 0.21947 0.73649 0.0
H495 H 0.76543 0.21632 0.79997 0.0
Mn496 Mn 0.03037 0.27616 0.89154 0.0
Mn497 Mn 0.94555 0.26088 0.91945 0.0
C498 C 0.98469 0.24338 0.86014 0.0
C499 C 0.07752 0.306 0.85865 0.0
C500 C 1.00429 0.22198 0.95049 0.0
O501 O 0.0311 0.3152 0.92577 0.0
O502 O 0.97286 0.30394 0.94027 0.0
C503 C 0.91911 0.32498 0.88708 0.0
N504 N 0.91623 0.28878 0.8914 0.0
C505 C 0.86466 0.28068 0.85249 0.0
C506 C 0.86697 0.31787 0.8478 0.0
C507 C 0.89432 0.3401 0.86516 0.0
C508 C 0.88988 0.26713 0.87496 0.0
H509 H 0.94023 0.34219 0.90016 0.0
C510 C 1.00447 0.32252 0.94176 0.0
O511 O 0.08303 0.28565 0.88584 0.0
O512 O 0.04491 0.31211 0.85255 0.0
N513 N 0.91666 0.22033 0.90028 0.0
C514 C 0.9197 0.18511 0.90562 0.0
C515 C 0.89517 0.1594 0.88908 0.0
C516 C 0.86779 0.17012 0.86722 0.0
C517 C 0.86513 0.20647 0.86222 0.0
C518 C 0.89009 0.23087 0.87969 0.0
H519 H 0.94086 0.17668 0.92214 0.0
O520 O 0.01771 0.23909 0.8572 0.0
O521 O 0.97934 0.26608 0.88189 0.0
O522 O 0.02837 0.23702 0.93018 0.0
O523 O 0.97268 0.22973 0.94986 0.0
C524 C 0.83925 0.21947 0.83987 0.0
C525 C 0.83895 0.25655 0.83504 0.0
H526 H 0.84814 0.32966 0.83065 0.0
H527 H 0.89639 0.36884 0.86152 0.0
H528 H 0.89752 0.13141 0.89296 0.0
H529 H 0.8492 0.15026 0.85413 0.0
H530 H 0.81994 0.20115 0.8258 0.0
H531 H 0.81925 0.26627 0.81736 0.0
Mn532 Mn 0.53112 0.77599 0.39059 0.0
Mn533 Mn 0.4451 0.76017 0.41483 0.0
C534 C 0.4871 0.74246 0.35793 0.0
C535 C 0.57885 0.80574 0.35847 0.0
C536 C 0.50289 0.72186 0.44917 0.0
O537 O 0.53009 0.81559 0.42356 0.0
O538 O 0.47164 0.80282 0.43718 0.0
C539 C 0.42067 0.82507 0.38188 0.0
N540 N 0.41737 0.7888 0.38575 0.0
C541 C 0.36825 0.78184 0.34399 0.0
C542 C 0.371 0.8191 0.33973 0.0
C543 C 0.39732 0.84079 0.35876 0.0
C544 C 0.39196 0.76767 0.36772 0.0
H545 H 0.44104 0.84188 0.3962 0.0
C546 C 0.50291 0.82205 0.43922 0.0
O547 O 0.58405 0.78607 0.38624 0.0
O548 O 0.54621 0.81119 0.35134 0.0
N549 N 0.41688 0.72016 0.39414 0.0
C550 C 0.41931 0.68481 0.3995 0.0
C551 C 0.39559 0.65959 0.38155 0.0
C552 C 0.3697 0.67095 0.35825 0.0
C553 C 0.36766 0.70744 0.35326 0.0
C554 C 0.39166 0.73132 0.37222 0.0
H555 H 0.4394 0.6759 0.41707 0.0
O556 O 0.5203 0.73804 0.35689 0.0
O557 O 0.48056 0.7654 0.37891 0.0
O558 O 0.52813 0.73811 0.43063 0.0
O559 O 0.47077 0.7283 0.4458 0.0
C560 C 0.34338 0.72109 0.32949 0.0
C561 C 0.3436 0.75826 0.32491 0.0
H562 H 0.35331 0.83135 0.32165 0.0
H563 H 0.39973 0.86958 0.35547 0.0
H564 H 0.39747 0.63149 0.38544 0.0
H565 H 0.35179 0.65148 0.34407 0.0
H566 H 0.325 0.70318 0.31416 0.0
H567 H 0.32518 0.76852 0.30617 0.0
Mn568 Mn 0.03206 0.75546 0.64615 0.0
Mn569 Mn 0.98562 0.67933 0.68267 0.0
C570 C 0.027 0.70183 0.61917 0.0
C571 C 0.0396 0.80913 0.61177 0.0
C572 C 0.05862 0.71368 0.70976 0.0
O573 O 1.00008 0.7739 0.67965 0.0
O574 O 0.9687 0.72136 0.70012 0.0
C575 C 0.91325 0.68389 0.65206 0.0
N576 N 0.9415 0.66587 0.65748 0.0
C577 C 0.91074 0.61655 0.62675 0.0
C578 C 0.88125 0.63451 0.62097 0.0
C579 C 0.88257 0.66837 0.6336 0.0
C580 C 0.94057 0.63333 0.64533 0.0
H581 H 0.91413 0.7099 0.66176 0.0
C582 C 0.97557 0.75564 0.69831 0.0
O583 O 0.06107 0.80327 0.63752 0.0
O584 O 0.01251 0.78401 0.60616 0.0
N585 N 0.99915 0.63686 0.66748 0.0
C586 C 0.03074 0.62421 0.67327 0.0
C587 C 0.03436 0.59116 0.66118 0.0
C588 C 1.00543 0.57136 0.64352 0.0
C589 C 0.97313 0.58485 0.63805 0.0
C590 C 0.97107 0.61791 0.65074 0.0
H591 H 0.05305 0.63932 0.68684 0.0
O592 O 0.05373 0.7274 0.61302 0.0
O593 O 1.00458 0.70812 0.64138 0.0
O594 O 0.06291 0.73865 0.68617 0.0
O595 O 0.03068 0.68973 0.71113 0.0
C596 C 0.9431 0.56705 0.62003 0.0
C597 C 0.91195 0.58292 0.61432 0.0
H598 H 0.85758 0.62268 0.60666 0.0
H599 H 0.85997 0.68246 0.62913 0.0
H600 H 0.05941 0.58098 0.66542 0.0
H601 H 1.0084 0.54599 0.63404 0.0
H602 H 0.94389 0.54142 0.60994 0.0
H603 H 0.88927 0.56924 0.59991 0.0
Mn604 Mn 0.53324 0.25743 0.15024 0.0
Mn605 Mn 0.48523 0.18217 0.18654 0.0
C606 C 0.52706 0.20415 0.12289 0.0
C607 C 0.54075 0.31137 0.11635 0.0
C608 C 0.55915 0.21478 0.21318 0.0
O609 O 0.5024 0.27614 0.18481 0.0
O610 O 0.46818 0.22437 0.20328 0.0
C611 C 0.41343 0.1868 0.15463 0.0
N612 N 0.44155 0.16869 0.16067 0.0
C613 C 0.41167 0.11975 0.12893 0.0
C614 C 0.38231 0.13779 0.12253 0.0
C615 C 0.38324 0.1715 0.13538 0.0
C616 C 0.44095 0.13626 0.14841 0.0
H617 H 0.41408 0.21275 0.1644 0.0
C618 C 0.4766 0.25851 0.20238 0.0
O619 O 0.56275 0.30501 0.14153 0.0
O620 O 0.51317 0.28667 0.11117 0.0
N621 N 0.499 0.13956 0.17191 0.0
C622 C 0.53047 0.12685 0.17834 0.0
C623 C 0.53446 0.09394 0.16616 0.0
C624 C 0.50604 0.07439 0.14765 0.0
C625 C 0.47384 0.08793 0.1415 0.0
C626 C 0.47134 0.12077 0.15446 0.0
H627 H 0.55243 0.14178 0.1925 0.0
O628 O 0.55375 0.22962 0.11629 0.0
O629 O 0.50495 0.21062 0.14535 0.0
O630 O 0.5647 0.23893 0.18892 0.0
O631 O 0.52981 0.19281 0.21572 0.0
C632 C 0.4444 0.07047 0.12245 0.0
C633 C 0.41335 0.08639 0.11613 0.0
H634 H 0.35906 0.12618 0.10752 0.0
H635 H 0.36075 0.18566 0.1304 0.0
H636 H 0.55943 0.08372 0.17091 0.0
H637 H 0.50933 0.04917 0.13803 0.0
H638 H 0.44559 0.04509 0.11202 0.0
H639 H 0.39114 0.07299 0.10094 0.0
C640 C 0.24855 0.78964 0.89696 0.0
C641 C 0.21346 0.77237 0.88951 0.0
H642 H 0.28233 0.82808 0.92645 0.0
C643 C 0.18493 0.78181 0.907 0.0
H644 H 0.27119 0.78351 0.88383 0.0
C645 C 0.19145 0.8078 0.93129 0.0
C646 C 0.22647 0.82541 0.93792 0.0
H647 H 0.15764 0.76871 0.90232 0.0
H648 H 0.16914 0.81444 0.94458 0.0
C649 C 0.25495 0.81558 0.92105 0.0
C650 C 0.08031 0.56859 0.39881 0.0
C651 C 0.05222 0.54032 0.40532 0.0
H652 H 0.12517 0.58973 0.36839 0.0
C653 C 0.05142 0.50845 0.38874 0.0
H654 H 0.08173 0.59327 0.4114 0.0
C655 C 0.07679 0.50609 0.36402 0.0
C656 C 0.10308 0.5357 0.3554 0.0
H657 H 0.03004 0.48613 0.39353 0.0
H658 H 0.07444 0.48207 0.35023 0.0
C659 C 0.10518 0.56644 0.37402 0.0
C660 C 0.83699 0.75175 0.89614 0.0
C661 C 0.8288 0.78613 0.89988 0.0
H662 H 0.83676 0.69858 0.91894 0.0
C663 C 0.81949 0.79418 0.93262 0.0
H664 H 0.84377 0.74414 0.87137 0.0
C665 C 0.81572 0.76787 0.95995 0.0
C666 C 0.82168 0.73303 0.95543 0.0
H667 H 0.81361 0.82041 0.93681 0.0
H668 H 0.80549 0.77402 0.98392 0.0
C669 C 0.83342 0.72556 0.92357 0.0
C670 C 0.99151 0.03591 0.39028 0.0
C671 C 1.00578 1.00534 0.40277 0.0
H672 H 0.9617 0.06044 0.34973 0.0
C673 C 1.00202 0.97608 0.38228 0.0
H674 H 0.99353 0.05862 0.40586 0.0
C675 C 0.98432 0.97722 0.35017 0.0
C676 C 0.969 1.00733 0.3379 0.0
H677 H 0.01203 0.95185 0.39139 0.0
H678 H 0.98149 0.95371 0.33559 0.0
C679 C 0.97337 0.03697 0.35812 0.0
C680 C 0.20304 0.26327 0.59524 0.0
C681 C 0.21234 0.2588 0.63032 0.0
H682 H 0.2067 0.24669 0.54465 0.0
C683 C 0.23419 0.23311 0.64105 0.0
H684 H 0.18572 0.28231 0.58626 0.0
C685 C 0.24652 0.21252 0.61698 0.0
C686 C 0.23644 0.21662 0.58191 0.0
H687 H 0.24112 0.22845 0.66805 0.0
H688 H 0.26279 0.19256 0.62597 0.0
C689 C 0.21492 0.2426 0.57141 0.0
C690 C 0.49566 0.57102 0.6423 0.0
C691 C 0.50491 0.54605 0.62079 0.0
H692 H 0.46891 0.57984 0.68732 0.0
C693 C 0.49486 0.50943 0.63027 0.0
H694 H 0.50361 0.59942 0.63644 0.0
C695 C 0.47551 0.49817 0.65998 0.0
C696 C 0.46531 0.5232 0.68081 0.0
H697 H 0.50105 0.48934 0.61426 0.0
H698 H 0.4677 0.46978 0.66604 0.0
C699 C 0.47595 0.55977 0.67174 0.0
C700 C 0.79852 0.32339 0.65172 0.0
C701 C 0.81416 0.29299 0.64791 0.0
H702 H 0.77579 0.36683 0.62689 0.0
C703 C 0.82009 0.28381 0.61458 0.0
H704 H 0.79327 0.33073 0.67709 0.0
C705 C 0.81038 0.30472 0.58571 0.0
C706 C 0.79388 0.33462 0.58969 0.0
H707 H 0.83155 0.26019 0.61071 0.0
H708 H 0.81457 0.29674 0.56032 0.0
C709 C 0.78846 0.34395 0.62298 0.0
C710 C 0.5513 0.05045 0.65025 0.0
C711 C 0.53717 0.01621 0.63972 0.0
H712 H 0.58577 0.08181 0.68543 0.0
C713 C 0.54811 0.98651 0.6587 0.0
H714 H 0.54434 0.07411 0.63622 0.0
C715 C 0.57272 0.99097 0.68683 0.0
C716 C 0.5868 0.02526 0.69719 0.0
H717 H 0.53748 0.95958 0.65205 0.0
H718 H 0.5805 0.9675 0.70057 0.0
C719 C 0.57548 0.05487 0.67855 0.0
C720 C 0.92718 0.18749 0.79567 0.0
C721 C 0.90825 0.21294 0.77853 0.0
H722 H 0.96646 0.17726 0.83522 0.0
C723 C 0.91518 0.24826 0.78855 0.0
H724 H 0.92291 0.16019 0.78828 0.0
C725 C 0.94003 0.25783 0.81511 0.0
C726 C 0.95797 0.23223 0.83282 0.0
H727 H 0.90083 0.26851 0.77641 0.0
H728 H 0.94503 0.28533 0.822 0.0
C729 C 0.95213 0.19718 0.82239 0.0
C730 C 0.54213 0.90792 0.48193 0.0
C731 C 0.51145 0.91769 0.49537 0.0
H732 H 0.56386 0.8702 0.45408 0.0
C733 C 0.47828 0.89554 0.49062 0.0
H734 H 0.56798 0.92487 0.48454 0.0
C735 C 0.47587 0.8642 0.47328 0.0
C736 C 0.5065 0.85437 0.4596 0.0
H737 H 0.45402 0.90272 0.49987 0.0
H738 H 0.44966 0.84812 0.46996 0.0
C739 C 0.53974 0.87662 0.46436 0.0
C740 C 0.12652 0.34692 0.77874 0.0
C741 C 0.1543 0.3265 0.77863 0.0
H742 H 0.0801 0.35643 0.80422 0.0
C743 C 0.15799 0.30126 0.80603 0.0
H744 H 0.12347 0.36683 0.75797 0.0
C745 C 0.1341 0.29618 0.83293 0.0
C746 C 0.10551 0.31571 0.83266 0.0
H747 H 0.17956 0.28563 0.80672 0.0
H748 H 0.13737 0.27601 0.85339 0.0
C749 C 0.10199 0.34121 0.80529 0.0
C750 C 0.49093 0.63936 0.51156 0.0
C751 C 0.52645 0.63287 0.51682 0.0
H752 H 0.45557 0.67247 0.48639 0.0
C753 C 0.55419 0.65715 0.50126 0.0
H754 H 0.46884 0.62105 0.52285 0.0
C755 C 0.54658 0.68651 0.4802 0.0
C756 C 0.511 0.69253 0.47416 0.0
H757 H 0.58191 0.65343 0.50525 0.0
H758 H 0.56869 0.70424 0.46826 0.0
C759 C 0.4833 0.66885 0.49054 0.0
C760 C 0.92184 0.82581 0.72284 0.0
C761 C 0.8982 0.80582 0.74654 0.0
H762 H 0.96509 0.82581 0.689 0.0
C763 C 0.90313 0.77091 0.75724 0.0
H764 H 0.91879 0.85296 0.71446 0.0
C765 C 0.92939 0.75531 0.74267 0.0
C766 C 0.9517 0.7744 0.71728 0.0
H767 H 0.88559 0.75514 0.77583 0.0
H768 H 0.93142 0.7278 0.75059 0.0
C769 C 0.94837 0.81026 0.70834 0.0
C770 C 0.02958 0.88946 0.54999 0.0
C771 C 0.06559 0.90666 0.54738 0.0
H772 H 0.993 0.84482 0.57182 0.0
C773 C 0.09233 0.89091 0.56609 0.0
H774 H 1.00798 0.90079 0.53657 0.0
C775 C 0.08346 0.85958 0.58699 0.0
C776 C 0.04772 0.84234 0.58924 0.0
H777 H 0.12042 0.90226 0.5642 0.0
H778 H 0.10492 0.8484 0.60094 0.0
C779 C 0.02082 0.8574 0.57035 0.0
C780 C 0.11951 0.68325 0.7827 0.0
C781 C 0.14192 0.71554 0.7896 0.0
H782 H 0.0752 0.65726 0.75243 0.0
C783 C 0.13639 0.74695 0.77038 0.0
H784 H 0.12317 0.65864 0.7972 0.0
C785 C 0.10953 0.74606 0.74446 0.0
C786 C 0.08703 0.71384 0.73744 0.0
H787 H 0.15342 0.77214 0.77488 0.0
H788 H 0.10625 0.7708 0.73 0.0
C789 C 0.09205 0.68247 0.75715 0.0
C790 C 0.97503 0.63812 0.55739 0.0
C791 C 1.00002 0.61599 0.55074 0.0
H792 H 0.96415 0.6824 0.58396 0.0
C793 C 0.0347 0.62328 0.56624 0.0
H794 H 0.94842 0.63419 0.54537 0.0
C795 C 0.04374 0.65132 0.58824 0.0
C796 C 0.01814 0.67222 0.59584 0.0
H797 H 0.05469 0.60686 0.56197 0.0
H798 H 0.07045 0.65607 0.60003 0.0
C799 C 0.98403 0.66587 0.57951 0.0
C800 C 0.7738 0.91432 0.25729 0.0
C801 C 0.75993 0.90354 0.22501 0.0
H802 H 0.81286 0.94946 0.28502 0.0
C803 C 0.77449 0.92243 0.19511 0.0
H804 H 0.76374 0.90007 0.28084 0.0
C805 C 0.803 0.95101 0.19765 0.0
C806 C 0.81774 0.96019 0.23005 0.0
H807 H 0.76419 0.9148 0.16991 0.0
H808 H 0.81444 0.96486 0.17446 0.0
C809 C 0.80223 0.94236 0.25974 0.0
C810 C 0.83679 0.16667 0.29265 0.0
C811 C 0.80644 0.15764 0.3129 0.0
H812 H 0.87904 0.14849 0.26779 0.0
C813 C 0.79661 0.12183 0.32543 0.0
H814 H 0.84529 0.19411 0.28312 0.0
C815 C 0.81606 0.09554 0.31672 0.0
C816 C 0.84585 0.10457 0.29558 0.0
H817 H 0.77373 0.11396 0.34159 0.0
H818 H 0.80738 0.06808 0.32605 0.0
C819 C 0.85621 0.14052 0.28403 0.0
C820 C 0.39331 0.02259 0.96592 0.0
C821 C 0.41093 0.02505 0.99834 0.0
H822 H 0.34829 0.9985 0.93611 0.0
C823 C 0.394 1.00582 0.02692 0.0
H824 H 0.4054 0.0375 0.94349 0.0
C825 C 0.36102 0.98309 0.02273 0.0
C826 C 0.34413 0.97947 0.98992 0.0
H827 H 0.40697 1.00719 0.05223 0.0
H828 H 0.3493 0.96765 0.04504 0.0
C829 C 0.36039 1.00025 0.96176 0.0
C830 C 0.24449 0.37818 0.30723 0.0
C831 C 0.2714 0.38467 0.33312 0.0
H832 H 0.20013 0.39648 0.27907 0.0
C833 C 0.27255 0.41482 0.35214 0.0
H834 H 0.24312 0.3552 0.29209 0.0
C835 C 0.24831 0.43888 0.34434 0.0
C836 C 0.22191 0.43295 0.31777 0.0
H837 H 0.29315 0.42056 0.37209 0.0
H838 H 0.25086 0.46265 0.35852 0.0
C839 C 0.2198 0.40179 0.2999 0.0
C840 C 0.15921 0.03423 0.54787 0.0
C841 C 0.15163 0.02024 0.51544 0.0
H842 H 0.19403 0.07169 0.57801 0.0
C843 C 0.17544 0.03241 0.4888 0.0
H844 H 0.14143 0.02549 0.56892 0.0
C845 C 0.20515 0.05889 0.49398 0.0
C846 C 0.21156 0.07414 0.52575 0.0
H847 H 0.17094 0.02168 0.46373 0.0
H848 H 0.22293 0.06779 0.47296 0.0
C849 C 0.18913 0.06076 0.55305 0.0
C850 C 0.78321 0.11194 0.70758 0.0
C851 C 0.79996 0.13055 0.73549 0.0
H852 H 0.74088 0.0711 0.69086 0.0
C853 C 0.78783 0.11986 0.76876 0.0
H854 H 0.79231 0.11902 0.68169 0.0
C855 C 0.75877 0.0925 0.7738 0.0
C856 C 0.74074 0.07563 0.74574 0.0
H857 H 0.7996 0.13368 0.79086 0.0
H858 H 0.74963 0.08524 0.79969 0.0
C859 C 0.75395 0.08447 0.71273 0.0
C860 C 0.42116 0.05994 0.52883 0.0
C861 C 0.4347 0.05437 0.56287 0.0
H862 H 0.38386 0.08372 0.49495 0.0
C863 C 0.42072 0.07176 0.58872 0.0
H864 H 0.43146 0.04822 0.50771 0.0
C865 C 0.39424 0.09341 0.58093 0.0
C866 C 0.38009 0.09781 0.5472 0.0
H867 H 0.42933 0.06802 0.61536 0.0
H868 H 0.38389 0.1057 0.6017 0.0
C869 C 0.39398 0.08083 0.52125 0.0
C870 C 0.63153 0.49441 0.47348 0.0
C871 C 0.61589 0.4891 0.50585 0.0
H872 H 0.67145 0.48164 0.44129 0.0
C873 C 0.63026 0.46729 0.53156 0.0
H874 H 0.62102 0.51125 0.45323 0.0
C875 C 0.65913 0.45035 0.52484 0.0
C876 C 0.67439 0.45485 0.49218 0.0
H877 H 0.61873 0.46293 0.55674 0.0
H878 H 0.66917 0.43335 0.54523 0.0
C879 C 0.66041 0.47742 0.46668 0.0
C880 C 0.74561 0.28585 0.40281 0.0
C881 C 0.71084 0.26843 0.39425 0.0
H882 H 0.77813 0.32444 0.43304 0.0
C883 C 0.68158 0.27766 0.41079 0.0
H884 H 0.76882 0.28003 0.39039 0.0
C885 C 0.68707 0.30375 0.43503 0.0
C886 C 0.72178 0.32159 0.4426 0.0
H887 H 0.65449 0.2645 0.40527 0.0
H888 H 0.66421 0.31035 0.44746 0.0
C889 C 0.75098 0.31178 0.42687 0.0
C890 C 0.58826 1.00069 0.91611 0.0
C891 C 0.56512 0.02544 0.92023 0.0
H892 H 0.62288 0.98089 0.88251 0.0
C893 C 0.55634 0.04707 0.89132 0.0
H894 H 0.59506 0.98331 0.9378 0.0
C895 C 0.5721 0.04561 0.85984 0.0
C896 C 0.5967 0.0222 0.85614 0.0
H897 H 0.53804 0.06591 0.89306 0.0
H898 H 0.56581 0.06374 0.83854 0.0
C899 C 0.60385 0.999 0.88438 0.0
C900 C 0.33559 0.25354 0.39684 0.0
C901 C 0.32774 0.28792 0.40123 0.0
H902 H 0.33485 0.19993 0.4187 0.0
C903 C 0.31833 0.29537 0.43413 0.0
H904 H 0.34244 0.2464 0.37192 0.0
C905 C 0.31428 0.26856 0.46101 0.0
C906 C 0.32002 0.23378 0.45588 0.0
H907 H 0.31267 0.32156 0.43881 0.0
H908 H 0.30407 0.27433 0.48514 0.0
C909 C 0.3317 0.22683 0.42382 0.0
C910 C 0.49246 0.53526 0.89179 0.0
C911 C 0.50598 0.50444 0.90483 0.0
H912 H 0.46308 0.5598 0.85091 0.0
C913 C 0.50106 0.47457 0.88507 0.0
H914 H 0.49535 0.55846 0.90682 0.0
C915 C 0.48306 0.47541 0.85307 0.0
C916 C 0.46862 0.50586 0.8402 0.0
H917 H 0.51044 0.45016 0.89466 0.0
H918 H 0.47933 0.45146 0.83903 0.0
C919 C 0.47403 0.53602 0.85976 0.0
C920 C 0.7042 0.76237 0.09556 0.0
C921 C 0.71376 0.75795 0.13058 0.0
H922 H 0.70772 0.74594 0.04489 0.0
C923 C 0.73598 0.73254 0.14111 0.0
H924 H 0.6866 0.7812 0.08673 0.0
C925 C 0.74839 0.71216 0.11692 0.0
C926 C 0.73805 0.7162 0.08191 0.0
H927 H 0.74312 0.72791 0.16807 0.0
H928 H 0.76493 0.69239 0.12577 0.0
C929 C 0.71617 0.74191 0.0716 0.0
C930 C 0.99645 0.00887 0.1294 0.0
C931 C 1.00597 0.0454 0.11935 0.0
H932 H 0.96913 0.96952 0.16539 0.0
C933 C 0.99554 0.07058 0.13989 0.0
H934 H 1.00362 0.98865 0.11411 0.0
C935 C 0.97532 0.0596 0.16902 0.0
C936 C 0.96527 0.0231 0.17874 0.0
H937 H 1.00303 0.09895 0.1335 0.0
H938 H 0.96749 0.07984 0.1839 0.0
C939 C 0.97649 0.99787 0.1588 0.0
C940 C 0.32896 0.78607 0.10791 0.0
C941 C 0.32468 0.79582 0.14141 0.0
H942 H 0.32143 0.79855 0.05373 0.0
C943 C 0.31021 0.82684 0.1456 0.0
H944 H 0.33958 0.76203 0.10377 0.0
C945 C 0.29951 0.84737 0.11712 0.0
C946 C 0.30315 0.83746 0.08367 0.0
H947 H 0.30633 0.83471 0.17112 0.0
H948 H 0.28773 0.87072 0.12138 0.0
C949 C 0.3186 0.80698 0.07925 0.0
C950 C 0.05442 0.55433 0.15086 0.0
C951 C 0.04074 0.51986 0.1406 0.0
H952 H 0.08868 0.58638 0.18571 0.0
C953 C 0.05197 0.49051 0.15991 0.0
H954 H 0.04717 0.57774 0.1366 0.0
C955 C 0.07657 0.49552 0.18796 0.0
C956 C 0.09037 0.53003 0.19795 0.0
H957 H 0.04165 0.46344 0.15352 0.0
H958 H 0.0847 0.4723 0.20186 0.0
C959 C 0.07861 0.5593 0.17912 0.0
C960 C 0.42204 0.74862 0.28259 0.0
C961 C 0.41524 0.71334 0.27248 0.0
H962 H 0.4502 0.78519 0.31746 0.0
C963 C 0.43316 0.68759 0.29051 0.0
H964 H 0.40844 0.76909 0.26975 0.0
C965 C 0.45672 0.69687 0.31839 0.0
C966 C 0.46214 0.7318 0.32907 0.0
H967 H 0.42896 0.6603 0.2831 0.0
H968 H 0.47015 0.67668 0.33198 0.0
C969 C 0.44544 0.75776 0.31035 0.0
C970 C 0.9819 0.39692 0.99319 0.0
C971 C 0.01531 0.41883 0.99732 0.0
H972 H 0.95242 0.34955 0.97328 0.0
C973 C 0.04554 0.40862 0.98337 0.0
H974 H 0.95795 0.40441 1.00281 0.0
C975 C 0.04247 0.37712 0.96596 0.0
C976 C 1.00898 0.3551 0.96189 0.0
H977 H 0.07155 0.42538 0.98547 0.0
H978 H 0.06623 0.37035 0.95528 0.0
C979 C 0.97883 0.36541 0.97605 0.0
C980 C 0.62829 0.84617 0.27883 0.0
C981 C 0.65603 0.8257 0.27893 0.0
H982 H 0.58186 0.85593 0.30405 0.0
C983 C 0.6597 0.80065 0.30652 0.0
H984 H 0.62526 0.86594 0.25792 0.0
C985 C 0.63575 0.79578 0.3334 0.0
C986 C 0.60719 0.81536 0.33286 0.0
H987 H 0.68125 0.78499 0.30737 0.0
H988 H 0.63889 0.77571 0.35399 0.0
C989 C 0.60375 0.84069 0.30533 0.0
C990 C 0.03496 0.13481 0.9795 0.0
C991 C 0.02896 0.13171 0.01506 0.0
H992 H 0.03246 0.16604 0.93175 0.0
C993 C 0.01422 0.15907 0.02913 0.0
H994 H 0.04507 0.11413 0.96712 0.0
C995 C 1.0055 0.18824 0.00823 0.0
C996 C 0.01249 0.19134 0.97309 0.0
H997 H 1.00975 0.15837 0.05638 0.0
H998 H 0.99411 0.20877 0.01966 0.0
C999 C 0.02739 0.16448 0.95898 0.0
C1000 C 0.40388 0.27555 0.26012 0.0
C1001 C 0.40021 0.31086 0.24962 0.0
H1002 H 0.43088 0.23147 0.25363 0.0
C1003 C 0.42483 0.33043 0.22654 0.0
H1004 H 0.38556 0.26006 0.27822 0.0
C1005 C 0.45108 0.31416 0.21242 0.0
C1006 C 0.45314 0.27796 0.22111 0.0
H1007 H 0.42276 0.35786 0.21831 0.0
H1008 H 0.46856 0.32943 0.1935 0.0
C1009 C 0.42985 0.25924 0.24592 0.0
C1010 C 0.59335 0.39246 0.06949 0.0
C1011 C 0.56654 0.40798 0.05064 0.0
H1012 H 0.60608 0.35048 0.10493 0.0
C1013 C 0.53051 0.39103 0.05379 0.0
H1014 H 0.62146 0.40361 0.06722 0.0
C1015 C 0.52181 0.35939 0.07475 0.0
C1016 C 0.5488 0.3445 0.0937 0.0
H1017 H 0.50887 0.40222 0.04028 0.0
H1018 H 0.49398 0.34692 0.07653 0.0
C1019 C 0.58456 0.36155 0.09098 0.0
C1020 C 0.65196 0.22387 0.25606 0.0
C1021 C 0.64414 0.21471 0.2907 0.0
H1022 H 0.63117 0.23128 0.20452 0.0
C1023 C 0.60816 0.20432 0.29973 0.0
H1024 H 0.6795 0.23195 0.24851 0.0
C1025 C 0.58045 0.20302 0.27442 0.0
C1026 C 0.58823 0.21302 0.23981 0.0
H1027 H 0.60156 0.19697 0.32631 0.0
H1028 H 0.55291 0.19516 0.28204 0.0
C1029 C 0.6243 0.22346 0.23096 0.0
C1030 C 0.5357 0.12585 0.07028 0.0
C1031 C 0.5015 0.11904 0.05379 0.0
H1032 H 0.57059 0.15808 0.10512 0.0
C1033 C 0.47615 0.1408 0.06039 0.0
H1034 H 0.55593 0.10971 0.06597 0.0
C1035 C 0.48454 0.16813 0.08302 0.0
C1036 C 0.51831 0.17427 0.09998 0.0
H1037 H 0.4499 0.13718 0.0476 0.0
H1038 H 0.46459 0.18469 0.08713 0.0
C1039 C 0.5441 0.15341 0.09284 0.0
C1040 C 0.2733 0.41392 0.75814 0.0
C1041 C 0.25933 0.40366 0.72574 0.0
H1042 H 0.31271 0.44837 0.78624 0.0
C1043 C 0.27413 0.42271 0.69601 0.0
H1044 H 0.26304 0.39953 0.78155 0.0
C1045 C 0.30292 0.45097 0.69883 0.0
C1046 C 0.31773 0.45966 0.73134 0.0
H1047 H 0.26376 0.41546 0.67072 0.0
H1048 H 0.31448 0.46498 0.67576 0.0
C1049 C 0.30204 0.44164 0.76087 0.0
C1050 C 0.28962 0.61895 0.81809 0.0
C1051 C 0.3033 0.65542 0.81151 0.0
H1052 H 0.29856 0.56486 0.81609 0.0
C1053 C 0.33792 0.66501 0.79862 0.0
H1054 H 0.26279 0.61057 0.82741 0.0
C1055 C 0.35819 0.6389 0.79177 0.0
C1056 C 0.34436 0.60246 0.79771 0.0
H1057 H 0.3489 0.69286 0.79283 0.0
H1058 H 0.38437 0.64729 0.78094 0.0
C1059 C 0.31014 0.59274 0.81162 0.0
C1060 C 0.89025 0.51521 0.47178 0.0
C1061 C 0.90723 0.5177 0.50447 0.0
H1062 H 0.84509 0.49238 0.44153 0.0
C1063 C 0.88904 0.50011 0.53308 0.0
H1064 H 0.90352 0.52885 0.44934 0.0
C1065 C 0.85531 0.47865 0.52864 0.0
C1066 C 0.83902 0.47486 0.49556 0.0
H1067 H 0.90157 0.50169 0.55857 0.0
H1068 H 0.84255 0.46421 0.55096 0.0
C1069 C 0.85661 0.4943 0.46739 0.0
C1070 C 0.76896 0.90861 0.85093 0.0
C1071 C 0.77008 0.88018 0.83016 0.0
H1072 H 0.74515 0.95482 0.85882 0.0
C1073 C 0.74494 0.87489 0.80258 0.0
H1074 H 0.78814 0.9134 0.87223 0.0
C1075 C 0.71978 0.89801 0.79537 0.0
C1076 C 0.71972 0.92755 0.81506 0.0
H1077 H 0.74526 0.85321 0.78614 0.0
H1078 H 0.7015 0.89369 0.77333 0.0
C1079 C 0.74434 0.93229 0.84322 0.0
C1080 C 0.67649 0.53223 0.98974 0.0
C1081 C 0.65275 0.52055 0.01654 0.0
H1082 H 0.72417 0.56707 0.97349 0.0
C1083 C 0.66064 0.53481 0.04882 0.0
H1084 H 0.67176 0.52126 0.96479 0.0
C1085 C 0.6908 0.56113 0.0537 0.0
C1086 C 0.71318 0.57403 0.02625 0.0
H1087 H 0.64293 0.52646 0.06998 0.0
H1088 H 0.69593 0.57229 0.07854 0.0
C1089 C 0.70645 0.55851 0.99463 0.0
C1090 C 0.29432 0.62278 0.26388 0.0
C1091 C 0.30567 0.63285 0.23024 0.0
H1092 H 0.25682 0.58895 0.29608 0.0
C1093 C 0.28791 0.61399 0.20291 0.0
H1094 H 0.30674 0.63685 0.28559 0.0
C1095 C 0.25861 0.58672 0.20906 0.0
C1096 C 0.24638 0.57839 0.24251 0.0
H1097 H 0.29631 0.62065 0.17674 0.0
H1098 H 0.24473 0.57316 0.18765 0.0
C1099 C 0.26529 0.59566 0.26991 0.0
C1100 C 0.92379 0.56064 0.02926 0.0
C1101 C 0.93757 0.55561 0.06329 0.0
H1102 H 0.88599 0.58359 0.99528 0.0
C1103 C 0.92336 0.57299 0.08901 0.0
H1104 H 0.93421 0.54886 0.00824 0.0
C1105 C 0.89653 0.59418 0.08111 0.0
C1106 C 0.88221 0.5981 0.04739 0.0
H1107 H 0.9321 0.56961 0.11565 0.0
H1108 H 0.88607 0.60651 0.10179 0.0
C1109 C 0.89625 0.58106 0.02157 0.0
C1110 C 0.13767 0.96961 0.03203 0.0
C1111 C 0.12227 0.9913 1.00693 0.0
H1112 H 0.17722 0.93599 0.04415 0.0
C1113 C 0.13686 0.99691 0.97409 0.0
H1114 H 0.12691 0.96494 0.05753 0.0
C1115 C 0.16562 0.98026 0.9662 0.0
C1116 C 0.18053 0.95768 0.99105 0.0
H1117 H 0.12551 0.01361 0.95426 0.0
H1118 H 0.17577 0.98466 0.94046 0.0
C1119 C 0.16643 0.95298 0.02422 0.0
loop_
_geom_bond_atom_site_label_1
_geom_bond_atom_site_label_2
_geom_bond_distance
_geom_bond_site_symmetry_2
_ccdc_geom_bond_type
H0 C7 0.929 . S
H1 C10 0.930 1_565 S
H2 C12 0.912 1_556 S
H3 C4 0.969 . S
C4 H3 0.969 . S
C4 O5 1.550 1_565 S
C4 H6 0.973 . S
O5 C4 1.550 1_545 S
O5 C11 1.412 . S
H6 C4 0.973 . S
C7 H0 0.929 . S
C7 C8 1.400 1_655 S
C7 C9 1.364 1_655 S
C8 C7 1.400 1_455 S
C8 C12 1.383 . S
C9 C7 1.364 1_455 S
C9 C10 1.374 . S
C10 H1 0.930 1_545 S
C10 C9 1.374 . S
C10 C11 1.383 . S
C11 O5 1.412 . S
C11 C10 1.383 . S
C11 C12 1.406 . S
C12 H2 0.912 1_554 S
C12 C8 1.383 . S
C12 C11 1.406 . S
H13 C20 0.929 . S
H14 C23 0.930 . S
H15 C25 0.929 . S
H16 C17 0.969 . S
C17 H16 0.969 . S
C17 O18 1.550 . S
C17 H19 0.973 . S
O18 C17 1.550 . S
O18 C24 1.412 . S
H19 C17 0.973 . S
C20 H13 0.929 . S
C20 C21 1.400 . S
C20 C22 1.364 . S
C21 C20 1.400 . S
C21 C25 1.377 . S
C22 C20 1.364 . S
C22 C23 1.374 . S
C23 H14 0.930 . S
C23 C22 1.374 . S
C23 C24 1.383 . S
C24 O18 1.412 . S
C24 C23 1.383 . S
C24 C25 1.394 . S
C25 H15 0.929 . S
C25 C21 1.377 . S
C25 C24 1.394 . S
H26 C33 0.929 . S
H27 C36 0.930 . S
H28 C38 0.929 . S
H29 C30 0.969 . S
C30 H29 0.969 . S
C30 O31 1.550 1_556 S
C30 H32 0.973 . S
O31 C30 1.550 1_554 S
O31 C37 1.412 . S
H32 C30 0.973 . S
C33 H26 0.929 . S
C33 C34 1.400 1_655 S
C33 C35 1.364 . S
C34 C33 1.400 1_455 S
C34 C38 1.377 . S
C35 C33 1.364 . S
C35 C36 1.374 . S
C36 H27 0.930 . S
C36 C35 1.374 . S
C36 C37 1.383 . S
C37 O31 1.412 . S
C37 C36 1.383 . S
C37 C38 1.394 1_655 S
C38 H28 0.929 . S
C38 C34 1.377 . S
C38 C37 1.394 1_455 S
H39 C46 0.929 . S
H40 C49 0.930 . S
H41 C51 0.929 . S
H42 C43 0.969 . S
C43 H42 0.969 . S
C43 O44 1.550 . S
C43 H45 0.973 . S
O44 C43 1.550 . S
O44 C50 1.412 . S
H45 C43 0.973 . S
C46 H39 0.929 . S
C46 C47 1.400 . S
C46 C48 1.364 . S
C47 C46 1.400 . S
C47 C51 1.377 . S
C48 C46 1.364 . S
C48 C49 1.374 . S
C49 H40 0.930 . S
C49 C48 1.374 . S
C49 C50 1.383 . S
C50 O44 1.412 . S
C50 C49 1.383 . S
C50 C51 1.394 . S
C51 H41 0.929 . S
C51 C47 1.377 . S
C51 C50 1.394 . S
H52 C59 0.929 . S
H53 C62 0.930 . S
H54 C64 0.929 . S
H55 C56 0.969 . S
C56 H55 0.969 . S
C56 O57 1.550 1_655 S
C56 H58 0.973 . S
O57 C56 1.550 1_455 S
O57 C63 1.412 . S
H58 C56 0.973 . S
C59 H52 0.929 . S
C59 C60 1.400 1_565 S
C59 C61 1.364 . S
C60 C59 1.400 1_545 S
C60 C64 1.377 . S
C61 C59 1.364 . S
C61 C62 1.374 . S
C62 H53 0.930 . S
C62 C61 1.374 . S
C62 C63 1.383 . S
C63 O57 1.412 . S
C63 C62 1.383 . S
C63 C64 1.394 1_565 S
C64 H54 0.929 . S
C64 C60 1.377 . S
C64 C63 1.394 1_545 S
H65 C72 0.929 . S
H66 C75 0.930 . S
H67 C77 0.929 . S
H68 C69 0.969 . S
C69 H68 0.969 . S
C69 O70 1.550 . S
C69 H71 0.973 . S
O70 C69 1.550 . S
O70 C76 1.412 . S
H71 C69 0.973 . S
C72 H65 0.929 . S
C72 C73 1.400 . S
C72 C74 1.364 . S
C73 C72 1.400 . S
C73 C77 1.377 . S
C74 C72 1.364 . S
C74 C75 1.374 . S
C75 H66 0.930 . S
C75 C74 1.374 . S
C75 C76 1.383 . S
C76 O70 1.412 . S
C76 C75 1.383 . S
C76 C77 1.394 . S
C77 H67 0.929 . S
C77 C73 1.377 . S
C77 C76 1.394 . S
H78 C85 0.929 . S
H79 C88 0.930 . S
H80 C90 0.929 . S
H81 C82 0.969 . S
C82 H81 0.969 . S
C82 O83 1.550 . S
C82 H84 0.973 . S
O83 C82 1.550 . S
O83 C89 1.412 . S
H84 C82 0.973 . S
C85 H78 0.929 . S
C85 C86 1.400 . S
C85 C87 1.364 . S
C86 C85 1.400 . S
C86 C90 1.377 1_655 S
C87 C85 1.364 . S
C87 C88 1.374 . S
C88 H79 0.930 . S
C88 C87 1.374 . S
C88 C89 1.383 1_655 S
C89 O83 1.412 . S
C89 C88 1.383 1_455 S
C89 C90 1.394 . S
C90 H80 0.929 . S
C90 C86 1.377 1_455 S
C90 C89 1.394 . S
H91 C98 0.929 . S
H92 C101 0.930 . S
H93 C103 0.929 . S
H94 C95 0.969 . S
C95 H94 0.969 . S
C95 O96 1.550 . S
C95 H97 0.973 . S
O96 C95 1.550 . S
O96 C102 1.412 . S
H97 C95 0.973 . S
C98 H91 0.929 . S
C98 C99 1.400 . S
C98 C100 1.364 . S
C99 C98 1.400 . S
C99 C103 1.377 . S
C100 C98 1.364 . S
C100 C101 1.374 . S
C101 H92 0.930 . S
C101 C100 1.374 . S
C101 C102 1.383 . S
C102 O96 1.412 . S
C102 C101 1.383 . S
C102 C103 1.394 . S
C103 H93 0.929 . S
C103 C99 1.377 . S
C103 C102 1.394 . S
H104 C111 0.929 . S
H105 C114 0.930 . S
H106 C116 0.929 . S
H107 C108 0.969 . S
C108 H107 0.969 . S
C108 O109 1.550 . S
C108 H110 0.973 . S
O109 C108 1.550 . S
O109 C115 1.412 . S
H110 C108 0.973 . S
C111 H104 0.929 . S
C111 C112 1.400 . S
C111 C113 1.364 . S
C112 C111 1.400 . S
C112 C116 1.377 . S
C113 C111 1.364 . S
C113 C114 1.374 . S
C114 H105 0.930 . S
C114 C113 1.374 . S
C114 C115 1.383 . S
C115 O109 1.412 . S
C115 C114 1.383 . S
C115 C116 1.394 . S
C116 H106 0.929 . S
C116 C112 1.377 . S
C116 C115 1.394 . S
H117 C124 0.929 . S
H118 C127 0.930 . S
H119 C129 0.929 . S
H120 C121 0.969 . S
C121 H120 0.969 . S
C121 O122 1.550 . S
C121 H123 0.973 . S
O122 C121 1.550 . S
O122 C128 1.412 . S
H123 C121 0.973 . S
C124 H117 0.929 . S
C124 C125 1.400 1_545 S
C124 C126 1.364 1_545 S
C125 C124 1.400 1_565 S
C125 C129 1.377 . S
C126 C124 1.364 1_565 S
C126 C127 1.374 . S
C127 H118 0.930 . S
C127 C126 1.374 . S
C127 C128 1.383 . S
C128 O122 1.412 . S
C128 C127 1.383 . S
C128 C129 1.394 . S
C129 H119 0.929 . S
C129 C125 1.377 . S
C129 C128 1.394 . S
H130 C137 0.929 . S
H131 C140 0.930 . S
H132 C142 0.929 . S
H133 C134 0.969 . S
C134 H133 0.969 . S
C134 O135 1.550 . S
C134 H136 0.973 . S
O135 C134 1.550 . S
O135 C141 1.412 . S
H136 C134 0.973 . S
C137 H130 0.929 . S
C137 C138 1.400 . S
C137 C139 1.364 . S
C138 C137 1.400 . S
C138 C142 1.377 . S
C139 C137 1.364 . S
C139 C140 1.374 . S
C140 H131 0.930 . S
C140 C139 1.374 . S
C140 C141 1.383 . S
C141 O135 1.412 . S
C141 C140 1.383 . S
C141 C142 1.394 . S
C142 H132 0.929 . S
C142 C138 1.377 . S
C142 C141 1.394 . S
H143 C150 0.929 . S
H144 C153 0.930 . S
H145 C155 0.929 . S
H146 C147 0.969 . S
C147 H146 0.969 . S
C147 O148 1.550 . S
C147 H149 0.973 . S
O148 C147 1.550 . S
O148 C154 1.412 . S
H149 C147 0.973 . S
C150 H143 0.929 . S
C150 C151 1.400 . S
C150 C152 1.364 . S
C151 C150 1.400 . S
C151 C155 1.377 . S
C152 C150 1.364 . S
C152 C153 1.374 . S
C153 H144 0.930 . S
C153 C152 1.374 . S
C153 C154 1.383 . S
C154 O148 1.412 . S
C154 C153 1.383 . S
C154 C155 1.394 . S
C155 H145 0.929 . S
C155 C151 1.377 . S
C155 C154 1.394 . S
H156 C163 0.929 . S
H157 C166 0.930 . S
H158 C168 0.929 . S
H159 C160 0.969 . S
C160 H159 0.969 . S
C160 O161 1.550 . S
C160 H162 0.973 . S
O161 C160 1.550 . S
O161 C167 1.412 . S
H162 C160 0.973 . S
C163 H156 0.929 . S
C163 C164 1.400 . S
C163 C165 1.364 . S
C164 C163 1.400 . S
C164 C168 1.377 . S
C165 C163 1.364 . S
C165 C166 1.374 . S
C166 H157 0.930 . S
C166 C165 1.374 . S
C166 C167 1.383 . S
C167 O161 1.412 . S
C167 C166 1.383 . S
C167 C168 1.394 . S
C168 H158 0.929 . S
C168 C164 1.377 . S
C168 C167 1.394 . S
H169 C176 0.929 . S
H170 C179 0.930 . S
H171 C181 0.929 . S
H172 C173 0.969 . S
C173 H172 0.969 . S
C173 O174 1.550 . S
C173 H175 0.973 . S
O174 C173 1.550 . S
O174 C180 1.412 . S
H175 C173 0.973 . S
C176 H169 0.929 . S
C176 C177 1.400 1_554 S
C176 C178 1.364 1_554 S
C177 C176 1.400 1_556 S
C177 C181 1.377 . S
C178 C176 1.364 1_556 S
C178 C179 1.374 . S
C179 H170 0.930 . S
C179 C178 1.374 . S
C179 C180 1.383 . S
C180 O174 1.412 . S
C180 C179 1.383 . S
C180 C181 1.394 . S
C181 H171 0.929 . S
C181 C177 1.377 . S
C181 C180 1.394 . S
H182 C189 0.929 . S
H183 C192 0.930 . S
H184 C194 0.929 . S
H185 C186 0.969 . S
C186 H185 0.969 . S
C186 O187 1.550 . S
C186 H188 0.973 . S
O187 C186 1.550 . S
O187 C193 1.412 . S
H188 C186 0.973 . S
C189 H182 0.929 . S
C189 C190 1.400 . S
C189 C191 1.364 . S
C190 C189 1.400 . S
C190 C194 1.377 . S
C191 C189 1.364 . S
C191 C192 1.374 . S
C192 H183 0.930 . S
C192 C191 1.374 . S
C192 C193 1.383 . S
C193 O187 1.412 . S
C193 C192 1.383 . S
C193 C194 1.394 . S
C194 H184 0.929 . S
C194 C190 1.377 . S
C194 C193 1.394 . S
H195 C202 0.929 . S
H196 C205 0.930 . S
H197 C207 0.929 . S
H198 C199 0.969 . S
C199 H198 0.969 . S
C199 O200 1.550 . S
C199 H201 0.973 . S
O200 C199 1.550 . S
O200 C206 1.412 . S
H201 C199 0.973 . S
C202 H195 0.929 . S
C202 C203 1.400 . S
C202 C204 1.377 . S
C203 C202 1.400 . S
C203 C207 1.373 1_554 S
C204 C202 1.377 . S
C204 C205 1.362 1_554 S
C205 H196 0.930 . S
C205 C204 1.362 1_556 S
C205 C206 1.383 . S
C206 O200 1.412 . S
C206 C205 1.383 . S
C206 C207 1.398 . S
C207 H197 0.929 . S
C207 C203 1.373 1_556 S
C207 C206 1.398 . S
Mn208 O213 2.095 . S
Mn208 O223 2.162 . S
Mn208 O224 2.297 . S
Mn208 O232 2.385 1_554 S
Mn208 O233 2.209 1_554 S
Mn208 O234 2.094 . S
Mn209 O214 2.121 . S
Mn209 N216 2.257 . S
Mn209 N225 2.282 . S
Mn209 O233 2.215 . S
Mn209 O235 2.117 . S
C210 O232 1.234 . S
C210 O233 1.283 . S
C211 O223 1.281 . S
C211 O224 1.236 . S
C212 O234 1.240 1_556 S
C212 O235 1.264 . S
O213 Mn208 2.095 . S
O213 C222 1.250 1_554 S
O214 Mn209 2.121 . S
O214 C222 1.258 . S
C215 N216 1.326 . S
C215 C219 1.460 . S
C215 H221 0.929 . S
N216 Mn209 2.257 . S
N216 C215 1.326 . S
N216 C220 1.362 . S
C217 C218 1.258 . S
C217 C220 1.431 . S
C217 C237 1.449 . S
C218 C217 1.258 . S
C218 C219 1.477 . S
C218 H238 0.931 . S
C219 C215 1.460 . S
C219 C218 1.477 . S
C219 H239 0.930 . S
C220 N216 1.362 . S
C220 C217 1.431 . S
C220 C230 1.476 . S
H221 C215 0.929 . S
C222 O213 1.250 1_556 S
C222 O214 1.258 . S
O223 Mn208 2.162 . S
O223 C211 1.281 . S
O224 Mn208 2.297 . S
O224 C211 1.236 . S
N225 Mn209 2.282 . S
N225 C226 1.328 . S
N225 C230 1.318 . S
C226 N225 1.328 . S
C226 C227 1.457 . S
C226 H231 0.929 . S
C227 C226 1.457 . S
C227 C228 1.291 . S
C227 H240 0.931 . S
C228 C227 1.291 . S
C228 C229 1.373 . S
C228 H241 0.929 . S
C229 C228 1.373 . S
C229 C230 1.396 . S
C229 C236 1.403 . S
C230 C220 1.476 . S
C230 N225 1.318 . S
C230 C229 1.396 . S
H231 C226 0.929 . S
O232 Mn208 2.385 1_556 S
O232 C210 1.234 . S
O233 Mn208 2.209 1_556 S
O233 Mn209 2.215 . S
O233 C210 1.283 . S
O234 Mn208 2.094 . S
O234 C212 1.240 1_554 S
O235 Mn209 2.117 . S
O235 C212 1.264 . S
C236 C229 1.403 . S
C236 C237 1.399 . S
C236 H242 0.929 . S
C237 C217 1.449 . S
C237 C236 1.399 . S
C237 H243 0.930 . S
H238 C218 0.931 . S
H239 C219 0.930 . S
H240 C227 0.931 . S
H241 C228 0.929 . S
H242 C236 0.929 . S
H243 C237 0.930 . S
Mn244 O249 2.095 . S
Mn244 O259 2.162 . S
Mn244 O260 2.297 . S
Mn244 O268 2.385 . S
Mn244 O269 2.209 . S
Mn244 O270 2.094 . S
Mn245 O250 2.121 . S
Mn245 N252 2.257 . S
Mn245 N261 2.282 . S
Mn245 O269 2.215 . S
Mn245 O271 2.117 . S
C246 O268 1.234 . S
C246 O269 1.283 . S
C247 O259 1.281 . S
C247 O260 1.236 . S
C248 O270 1.240 . S
C248 O271 1.264 . S
O249 Mn244 2.095 . S
O249 C258 1.250 . S
O250 Mn245 2.121 . S
O250 C258 1.258 . S
C251 N252 1.326 . S
C251 C255 1.460 . S
C251 H257 0.929 . S
N252 Mn245 2.257 . S
N252 C251 1.326 . S
N252 C256 1.362 . S
C253 C254 1.258 . S
C253 C256 1.431 . S
C253 C273 1.449 . S
C254 C253 1.258 . S
C254 C255 1.477 . S
C254 H274 0.931 . S
C255 C251 1.460 . S
C255 C254 1.477 . S
C255 H275 0.930 . S
C256 N252 1.362 . S
C256 C253 1.431 . S
C256 C266 1.476 . S
H257 C251 0.929 . S
C258 O249 1.250 . S
C258 O250 1.258 . S
O259 Mn244 2.162 . S
O259 C247 1.281 . S
O260 Mn244 2.297 . S
O260 C247 1.236 . S
N261 Mn245 2.282 . S
N261 C262 1.328 . S
N261 C266 1.318 . S
C262 N261 1.328 . S
C262 C263 1.457 . S
C262 H267 0.929 . S
C263 C262 1.457 . S
C263 C264 1.291 . S
C263 H276 0.931 . S
C264 C263 1.291 . S
C264 C265 1.373 . S
C264 H277 0.929 . S
C265 C264 1.373 . S
C265 C266 1.396 . S
C265 C272 1.403 . S
C266 C256 1.476 . S
C266 N261 1.318 . S
C266 C265 1.396 . S
H267 C262 0.929 . S
O268 Mn244 2.385 . S
O268 C246 1.234 . S
O269 Mn244 2.209 . S
O269 Mn245 2.215 . S
O269 C246 1.283 . S
O270 Mn244 2.094 . S
O270 C248 1.240 . S
O271 Mn245 2.117 . S
O271 C248 1.264 . S
C272 C265 1.403 . S
C272 C273 1.399 . S
C272 H278 0.929 . S
C273 C253 1.449 . S
C273 C272 1.399 . S
C273 H279 0.930 . S
H274 C254 0.931 . S
H275 C255 0.930 . S
H276 C263 0.931 . S
H277 C264 0.929 . S
H278 C272 0.929 . S
H279 C273 0.930 . S
Mn280 O285 2.095 . S
Mn280 O295 2.162 . S
Mn280 O296 2.297 . S
Mn280 O304 2.385 . S
Mn280 O305 2.209 . S
Mn280 O306 2.094 . S
Mn281 O286 2.121 1_554 S
Mn281 N288 2.257 1_554 S
Mn281 N297 2.282 . S
Mn281 O305 2.215 . S
Mn281 O307 2.117 . S
C282 O304 1.234 . S
C282 O305 1.283 . S
C283 O295 1.281 . S
C283 O296 1.236 . S
C284 O306 1.240 . S
C284 O307 1.264 . S
O285 Mn280 2.095 . S
O285 C294 1.250 1_554 S
O286 Mn281 2.121 1_556 S
O286 C294 1.258 . S
C287 N288 1.326 . S
C287 C291 1.460 . S
C287 H293 0.929 . S
N288 Mn281 2.257 1_556 S
N288 C287 1.326 . S
N288 C292 1.362 . S
C289 C290 1.258 . S
C289 C292 1.431 . S
C289 C309 1.449 . S
C290 C289 1.258 . S
C290 C291 1.477 . S
C290 H310 0.931 . S
C291 C287 1.460 . S
C291 C290 1.477 . S
C291 H311 0.930 . S
C292 N288 1.362 . S
C292 C289 1.431 . S
C292 C302 1.476 . S
H293 C287 0.929 . S
C294 O285 1.250 1_556 S
C294 O286 1.258 . S
O295 Mn280 2.162 . S
O295 C283 1.281 . S
O296 Mn280 2.297 . S
O296 C283 1.236 . S
N297 Mn281 2.282 . S
N297 C298 1.328 . S
N297 C302 1.318 1_554 S
C298 N297 1.328 . S
C298 C299 1.457 . S
C298 H303 0.929 . S
C299 C298 1.457 . S
C299 C300 1.291 . S
C299 H312 0.931 . S
C300 C299 1.291 . S
C300 C301 1.373 . S
C300 H313 0.929 . S
C301 C300 1.373 . S
C301 C302 1.396 1_554 S
C301 C308 1.403 1_554 S
C302 C292 1.476 . S
C302 N297 1.318 1_556 S
C302 C301 1.396 1_556 S
H303 C298 0.929 . S
O304 Mn280 2.385 . S
O304 C282 1.234 . S
O305 Mn280 2.209 . S
O305 Mn281 2.215 . S
O305 C282 1.283 . S
O306 Mn280 2.094 . S
O306 C284 1.240 . S
O307 Mn281 2.117 . S
O307 C284 1.264 . S
C308 C301 1.403 1_556 S
C308 C309 1.399 . S
C308 H314 0.929 . S
C309 C289 1.449 . S
C309 C308 1.399 . S
C309 H315 0.930 . S
H310 C290 0.931 . S
H311 C291 0.930 . S
H312 C299 0.931 . S
H313 C300 0.929 . S
H314 C308 0.929 . S
H315 C309 0.930 . S
Mn316 O321 2.095 . S
Mn316 O331 2.162 . S
Mn316 O332 2.297 . S
Mn316 O340 2.385 . S
Mn316 O341 2.209 1_545 S
Mn316 O342 2.094 . S
Mn317 O322 2.121 . S
Mn317 N324 2.257 . S
Mn317 N333 2.282 . S
Mn317 O341 2.215 . S
Mn317 O343 2.117 . S
C318 O340 1.234 1_565 S
C318 O341 1.283 . S
C319 O331 1.281 . S
C319 O332 1.236 . S
C320 O342 1.240 . S
C320 O343 1.264 1_545 S
O321 Mn316 2.095 . S
O321 C330 1.250 . S
O322 Mn317 2.121 . S
O322 C330 1.258 1_565 S
C323 N324 1.326 . S
C323 C327 1.460 . S
C323 H329 0.929 . S
N324 Mn317 2.257 . S
N324 C323 1.326 . S
N324 C328 1.362 . S
C325 C326 1.258 . S
C325 C328 1.431 . S
C325 C345 1.449 . S
C326 C325 1.258 . S
C326 C327 1.477 . S
C326 H346 0.931 . S
C327 C323 1.460 . S
C327 C326 1.477 . S
C327 H347 0.930 . S
C328 N324 1.362 . S
C328 C325 1.431 . S
C328 C338 1.476 . S
H329 C323 0.929 . S
C330 O321 1.250 . S
C330 O322 1.258 1_545 S
O331 Mn316 2.162 . S
O331 C319 1.281 . S
O332 Mn316 2.297 . S
O332 C319 1.236 . S
N333 Mn317 2.282 . S
N333 C334 1.328 . S
N333 C338 1.318 . S
C334 N333 1.328 . S
C334 C335 1.457 . S
C334 H339 0.929 . S
C335 C334 1.457 . S
C335 C336 1.291 . S
C335 H348 0.931 . S
C336 C335 1.291 . S
C336 C337 1.373 . S
C336 H349 0.929 . S
C337 C336 1.373 . S
C337 C338 1.396 . S
C337 C344 1.403 . S
C338 C328 1.476 . S
C338 N333 1.318 . S
C338 C337 1.396 . S
H339 C334 0.929 . S
O340 Mn316 2.385 . S
O340 C318 1.234 1_545 S
O341 Mn316 2.209 1_565 S
O341 Mn317 2.215 . S
O341 C318 1.283 . S
O342 Mn316 2.094 . S
O342 C320 1.240 . S
O343 Mn317 2.117 . S
O343 C320 1.264 1_565 S
C344 C337 1.403 . S
C344 C345 1.399 . S
C344 H350 0.929 . S
C345 C325 1.449 . S
C345 C344 1.399 . S
C345 H351 0.930 . S
H346 C326 0.931 . S
H347 C327 0.930 . S
H348 C335 0.931 . S
H349 C336 0.929 . S
H350 C344 0.929 . S
H351 C345 0.930 . S
Mn352 O357 2.095 . S
Mn352 O367 2.162 . S
Mn352 O368 2.297 . S
Mn352 O376 2.385 . S
Mn352 O377 2.209 . S
Mn352 O378 2.094 . S
Mn353 O358 2.121 . S
Mn353 N360 2.257 . S
Mn353 N369 2.282 . S
Mn353 O377 2.215 . S
Mn353 O379 2.117 . S
C354 O376 1.234 . S
C354 O377 1.283 . S
C355 O367 1.281 . S
C355 O368 1.236 . S
C356 O378 1.240 . S
C356 O379 1.264 . S
O357 Mn352 2.095 . S
O357 C366 1.250 . S
O358 Mn353 2.121 . S
O358 C366 1.258 . S
C359 N360 1.326 . S
C359 C363 1.460 . S
C359 H365 0.929 . S
N360 Mn353 2.257 . S
N360 C359 1.326 . S
N360 C364 1.362 . S
C361 C362 1.258 . S
C361 C364 1.431 . S
C361 C381 1.449 . S
C362 C361 1.258 . S
C362 C363 1.477 . S
C362 H382 0.931 . S
C363 C359 1.460 . S
C363 C362 1.477 . S
C363 H383 0.930 . S
C364 N360 1.362 . S
C364 C361 1.431 . S
C364 C374 1.476 . S
H365 C359 0.929 . S
C366 O357 1.250 . S
C366 O358 1.258 . S
O367 Mn352 2.162 . S
O367 C355 1.281 . S
O368 Mn352 2.297 . S
O368 C355 1.236 . S
N369 Mn353 2.282 . S
N369 C370 1.328 . S
N369 C374 1.318 . S
C370 N369 1.328 . S
C370 C371 1.457 . S
C370 H375 0.929 . S
C371 C370 1.457 . S
C371 C372 1.291 . S
C371 H384 0.931 . S
C372 C371 1.291 . S
C372 C373 1.373 . S
C372 H385 0.929 . S
C373 C372 1.373 . S
C373 C374 1.396 . S
C373 C380 1.403 . S
C374 C364 1.476 . S
C374 N369 1.318 . S
C374 C373 1.396 . S
H375 C370 0.929 . S
O376 Mn352 2.385 . S
O376 C354 1.234 . S
O377 Mn352 2.209 . S
O377 Mn353 2.215 . S
O377 C354 1.283 . S
O378 Mn352 2.094 . S
O378 C356 1.240 . S
O379 Mn353 2.117 . S
O379 C356 1.264 . S
C380 C373 1.403 . S
C380 C381 1.399 . S
C380 H386 0.929 . S
C381 C361 1.449 . S
C381 C380 1.399 . S
C381 H387 0.930 . S
H382 C362 0.931 . S
H383 C363 0.930 . S
H384 C371 0.931 . S
H385 C372 0.929 . S
H386 C380 0.929 . S
H387 C381 0.930 . S
Mn388 O393 2.095 . S
Mn388 O403 2.162 . S
Mn388 O404 2.297 . S
Mn388 O412 2.385 . S
Mn388 O413 2.209 . S
Mn388 O414 2.094 . S
Mn389 O394 2.121 . S
Mn389 N396 2.257 . S
Mn389 N405 2.282 . S
Mn389 O413 2.215 . S
Mn389 O415 2.117 . S
C390 O412 1.234 . S
C390 O413 1.283 . S
C391 O403 1.281 . S
C391 O404 1.236 . S
C392 O414 1.240 . S
C392 O415 1.264 . S
O393 Mn388 2.095 . S
O393 C402 1.250 . S
O394 Mn389 2.121 . S
O394 C402 1.258 . S
C395 N396 1.326 . S
C395 C399 1.460 . S
C395 H401 0.929 . S
N396 Mn389 2.257 . S
N396 C395 1.326 . S
N396 C400 1.362 . S
C397 C398 1.258 . S
C397 C400 1.431 . S
C397 C417 1.449 . S
C398 C397 1.258 . S
C398 C399 1.477 . S
C398 H418 0.931 . S
C399 C395 1.460 . S
C399 C398 1.477 . S
C399 H419 0.930 . S
C400 N396 1.362 . S
C400 C397 1.431 . S
C400 C410 1.476 . S
H401 C395 0.929 . S
C402 O393 1.250 . S
C402 O394 1.258 . S
O403 Mn388 2.162 . S
O403 C391 1.281 . S
O404 Mn388 2.297 . S
O404 C391 1.236 . S
N405 Mn389 2.282 . S
N405 C406 1.328 . S
N405 C410 1.318 . S
C406 N405 1.328 . S
C406 C407 1.457 . S
C406 H411 0.929 . S
C407 C406 1.457 . S
C407 C408 1.291 . S
C407 H420 0.931 . S
C408 C407 1.291 . S
C408 C409 1.373 . S
C408 H421 0.929 . S
C409 C408 1.373 . S
C409 C410 1.396 . S
C409 C416 1.403 . S
C410 C400 1.476 . S
C410 N405 1.318 . S
C410 C409 1.396 . S
H411 C406 0.929 . S
O412 Mn388 2.385 . S
O412 C390 1.234 . S
O413 Mn388 2.209 . S
O413 Mn389 2.215 . S
O413 C390 1.283 . S
O414 Mn388 2.094 . S
O414 C392 1.240 . S
O415 Mn389 2.117 . S
O415 C392 1.264 . S
C416 C409 1.403 . S
C416 C417 1.399 . S
C416 H422 0.929 . S
C417 C397 1.449 . S
C417 C416 1.399 . S
C417 H423 0.930 . S
H418 C398 0.931 . S
H419 C399 0.930 . S
H420 C407 0.931 . S
H421 C408 0.929 . S
H422 C416 0.929 . S
H423 C417 0.930 . S
Mn424 O429 2.095 . S
Mn424 O439 2.162 . S
Mn424 O440 2.297 . S
Mn424 O448 2.385 . S
Mn424 O449 2.209 . S
Mn424 O450 2.094 . S
Mn425 O430 2.121 . S
Mn425 N432 2.257 . S
Mn425 N441 2.282 . S
Mn425 O449 2.215 . S
Mn425 O451 2.117 . S
C426 O448 1.234 . S
C426 O449 1.283 . S
C427 O439 1.281 . S
C427 O440 1.236 . S
C428 O450 1.240 . S
C428 O451 1.264 . S
O429 Mn424 2.095 . S
O429 C438 1.250 . S
O430 Mn425 2.121 . S
O430 C438 1.258 . S
C431 N432 1.326 . S
C431 C435 1.460 . S
C431 H437 0.929 . S
N432 Mn425 2.257 . S
N432 C431 1.326 . S
N432 C436 1.362 . S
C433 C434 1.258 . S
C433 C436 1.431 . S
C433 C453 1.449 . S
C434 C433 1.258 . S
C434 C435 1.477 . S
C434 H454 0.931 . S
C435 C431 1.460 . S
C435 C434 1.477 . S
C435 H455 0.930 . S
C436 N432 1.362 . S
C436 C433 1.431 . S
C436 C446 1.476 . S
H437 C431 0.929 . S
C438 O429 1.250 . S
C438 O430 1.258 . S
O439 Mn424 2.162 . S
O439 C427 1.281 . S
O440 Mn424 2.297 . S
O440 C427 1.236 . S
N441 Mn425 2.282 . S
N441 C442 1.328 . S
N441 C446 1.318 . S
C442 N441 1.328 . S
C442 C443 1.457 . S
C442 H447 0.929 . S
C443 C442 1.457 . S
C443 C444 1.291 . S
C443 H456 0.931 . S
C444 C443 1.291 . S
C444 C445 1.373 . S
C444 H457 0.929 . S
C445 C444 1.373 . S
C445 C446 1.396 . S
C445 C452 1.403 . S
C446 C436 1.476 . S
C446 N441 1.318 . S
C446 C445 1.396 . S
H447 C442 0.929 . S
O448 Mn424 2.385 . S
O448 C426 1.234 . S
O449 Mn424 2.209 . S
O449 Mn425 2.215 . S
O449 C426 1.283 . S
O450 Mn424 2.094 . S
O450 C428 1.240 . S
O451 Mn425 2.117 . S
O451 C428 1.264 . S
C452 C445 1.403 . S
C452 C453 1.399 . S
C452 H458 0.929 . S
C453 C433 1.449 . S
C453 C452 1.399 . S
C453 H459 0.930 . S
H454 C434 0.931 . S
H455 C435 0.930 . S
H456 C443 0.931 . S
H457 C444 0.929 . S
H458 C452 0.929 . S
H459 C453 0.930 . S
Mn460 O465 2.095 . S
Mn460 O475 2.162 . S
Mn460 O476 2.297 . S
Mn460 O484 2.385 1_565 S
Mn460 O485 2.209 1_565 S
Mn460 O486 2.094 . S
Mn461 O466 2.121 . S
Mn461 N468 2.257 . S
Mn461 N477 2.282 . S
Mn461 O485 2.215 . S
Mn461 O487 2.117 . S
C462 O484 1.234 . S
C462 O485 1.283 . S
C463 O475 1.281 . S
C463 O476 1.236 . S
C464 O486 1.240 . S
C464 O487 1.264 1_565 S
O465 Mn460 2.095 . S
O465 C474 1.250 1_565 S
O466 Mn461 2.121 . S
O466 C474 1.258 . S
C467 N468 1.326 . S
C467 C471 1.460 . S
C467 H473 0.929 . S
N468 Mn461 2.257 . S
N468 C467 1.326 . S
N468 C472 1.362 . S
C469 C470 1.258 . S
C469 C472 1.431 . S
C469 C489 1.449 . S
C470 C469 1.258 . S
C470 C471 1.477 . S
C470 H490 0.931 . S
C471 C467 1.460 . S
C471 C470 1.477 . S
C471 H491 0.930 . S
C472 N468 1.362 . S
C472 C469 1.431 . S
C472 C482 1.476 . S
H473 C467 0.929 . S
C474 O465 1.250 1_545 S
C474 O466 1.258 . S
O475 Mn460 2.162 . S
O475 C463 1.281 . S
O476 Mn460 2.297 . S
O476 C463 1.236 . S
N477 Mn461 2.282 . S
N477 C478 1.328 . S
N477 C482 1.318 . S
C478 N477 1.328 . S
C478 C479 1.457 . S
C478 H483 0.929 . S
C479 C478 1.457 . S
C479 C480 1.291 . S
C479 H492 0.931 . S
C480 C479 1.291 . S
C480 C481 1.373 . S
C480 H493 0.929 . S
C481 C480 1.373 . S
C481 C482 1.396 . S
C481 C488 1.403 . S
C482 C472 1.476 . S
C482 N477 1.318 . S
C482 C481 1.396 . S
H483 C478 0.929 . S
O484 Mn460 2.385 1_545 S
O484 C462 1.234 . S
O485 Mn460 2.209 1_545 S
O485 Mn461 2.215 . S
O485 C462 1.283 . S
O486 Mn460 2.094 . S
O486 C464 1.240 . S
O487 Mn461 2.117 . S
O487 C464 1.264 1_545 S
C488 C481 1.403 . S
C488 C489 1.399 . S
C488 H494 0.929 . S
C489 C469 1.449 . S
C489 C488 1.399 . S
C489 H495 0.930 . S
H490 C470 0.931 . S
H491 C471 0.930 . S
H492 C479 0.931 . S
H493 C480 0.929 . S
H494 C488 0.929 . S
H495 C489 0.930 . S
Mn496 O501 2.095 . S
Mn496 O511 2.162 . S
Mn496 O512 2.297 . S
Mn496 O520 2.385 1_455 S
Mn496 O521 2.209 1_455 S
Mn496 O522 2.094 . S
Mn497 O502 2.121 . S
Mn497 N504 2.257 . S
Mn497 N513 2.282 . S
Mn497 O521 2.215 . S
Mn497 O523 2.117 . S
C498 O520 1.234 . S
C498 O521 1.283 . S
C499 O511 1.281 . S
C499 O512 1.236 . S
C500 O522 1.240 1_655 S
C500 O523 1.264 . S
O501 Mn496 2.095 . S
O501 C510 1.250 1_455 S
O502 Mn497 2.121 . S
O502 C510 1.258 . S
C503 N504 1.326 . S
C503 C507 1.460 . S
C503 H509 0.929 . S
N504 Mn497 2.257 . S
N504 C503 1.326 . S
N504 C508 1.362 . S
C505 C506 1.258 . S
C505 C508 1.431 . S
C505 C525 1.449 . S
C506 C505 1.258 . S
C506 C507 1.477 . S
C506 H526 0.931 . S
C507 C503 1.460 . S
C507 C506 1.477 . S
C507 H527 0.930 . S
C508 N504 1.362 . S
C508 C505 1.431 . S
C508 C518 1.476 . S
H509 C503 0.929 . S
C510 O501 1.250 1_655 S
C510 O502 1.258 . S
O511 Mn496 2.162 . S
O511 C499 1.281 . S
O512 Mn496 2.297 . S
O512 C499 1.236 . S
N513 Mn497 2.282 . S
N513 C514 1.328 . S
N513 C518 1.318 . S
C514 N513 1.328 . S
C514 C515 1.457 . S
C514 H519 0.929 . S
C515 C514 1.457 . S
C515 C516 1.291 . S
C515 H528 0.931 . S
C516 C515 1.291 . S
C516 C517 1.373 . S
C516 H529 0.929 . S
C517 C516 1.373 . S
C517 C518 1.396 . S
C517 C524 1.403 . S
C518 C508 1.476 . S
C518 N513 1.318 . S
C518 C517 1.396 . S
H519 C514 0.929 . S
O520 Mn496 2.385 1_655 S
O520 C498 1.234 . S
O521 Mn496 2.209 1_655 S
O521 Mn497 2.215 . S
O521 C498 1.283 . S
O522 Mn496 2.094 . S
O522 C500 1.240 1_455 S
O523 Mn497 2.117 . S
O523 C500 1.264 . S
C524 C517 1.403 . S
C524 C525 1.399 . S
C524 H530 0.929 . S
C525 C505 1.449 . S
C525 C524 1.399 . S
C525 H531 0.930 . S
H526 C506 0.931 . S
H527 C507 0.930 . S
H528 C515 0.931 . S
H529 C516 0.929 . S
H530 C524 0.929 . S
H531 C525 0.930 . S
Mn532 O537 2.095 . S
Mn532 O547 2.162 . S
Mn532 O548 2.297 . S
Mn532 O556 2.385 . S
Mn532 O557 2.209 . S
Mn532 O558 2.094 . S
Mn533 O538 2.121 . S
Mn533 N540 2.257 . S
Mn533 N549 2.282 . S
Mn533 O557 2.215 . S
Mn533 O559 2.117 . S
C534 O556 1.234 . S
C534 O557 1.283 . S
C535 O547 1.281 . S
C535 O548 1.236 . S
C536 O558 1.240 . S
C536 O559 1.264 . S
O537 Mn532 2.095 . S
O537 C546 1.250 . S
O538 Mn533 2.121 . S
O538 C546 1.258 . S
C539 N540 1.326 . S
C539 C543 1.460 . S
C539 H545 0.929 . S
N540 Mn533 2.257 . S
N540 C539 1.326 . S
N540 C544 1.362 . S
C541 C542 1.258 . S
C541 C544 1.431 . S
C541 C561 1.449 . S
C542 C541 1.258 . S
C542 C543 1.477 . S
C542 H562 0.931 . S
C543 C539 1.460 . S
C543 C542 1.477 . S
C543 H563 0.930 . S
C544 N540 1.362 . S
C544 C541 1.431 . S
C544 C554 1.476 . S
H545 C539 0.929 . S
C546 O537 1.250 . S
C546 O538 1.258 . S
O547 Mn532 2.162 . S
O547 C535 1.281 . S
O548 Mn532 2.297 . S
O548 C535 1.236 . S
N549 Mn533 2.282 . S
N549 C550 1.328 . S
N549 C554 1.318 . S
C550 N549 1.328 . S
C550 C551 1.457 . S
C550 H555 0.929 . S
C551 C550 1.457 . S
C551 C552 1.291 . S
C551 H564 0.931 . S
C552 C551 1.291 . S
C552 C553 1.373 . S
C552 H565 0.929 . S
C553 C552 1.373 . S
C553 C554 1.396 . S
C553 C560 1.403 . S
C554 C544 1.476 . S
C554 N549 1.318 . S
C554 C553 1.396 . S
H555 C550 0.929 . S
O556 Mn532 2.385 . S
O556 C534 1.234 . S
O557 Mn532 2.209 . S
O557 Mn533 2.215 . S
O557 C534 1.283 . S
O558 Mn532 2.094 . S
O558 C536 1.240 . S
O559 Mn533 2.117 . S
O559 C536 1.264 . S
C560 C553 1.403 . S
C560 C561 1.399 . S
C560 H566 0.929 . S
C561 C541 1.449 . S
C561 C560 1.399 . S
C561 H567 0.930 . S
H562 C542 0.931 . S
H563 C543 0.930 . S
H564 C551 0.931 . S
H565 C552 0.929 . S
H566 C560 0.929 . S
H567 C561 0.930 . S
Mn568 O573 2.095 . S
Mn568 O583 2.162 . S
Mn568 O584 2.297 . S
Mn568 O592 2.385 . S
Mn568 O593 2.209 . S
Mn568 O594 2.094 . S
Mn569 O574 2.121 . S
Mn569 N576 2.257 . S
Mn569 N585 2.282 1_655 S
Mn569 O593 2.215 1_655 S
Mn569 O595 2.117 1_655 S
C570 O592 1.234 . S
C570 O593 1.283 . S
C571 O583 1.281 . S
C571 O584 1.236 . S
C572 O594 1.240 . S
C572 O595 1.264 . S
O573 Mn568 2.095 . S
O573 C582 1.250 1_455 S
O574 Mn569 2.121 . S
O574 C582 1.258 . S
C575 N576 1.326 . S
C575 C579 1.460 . S
C575 H581 0.929 . S
N576 Mn569 2.257 . S
N576 C575 1.326 . S
N576 C580 1.362 . S
C577 C578 1.258 . S
C577 C580 1.431 . S
C577 C597 1.449 . S
C578 C577 1.258 . S
C578 C579 1.477 . S
C578 H598 0.931 . S
C579 C575 1.460 . S
C579 C578 1.477 . S
C579 H599 0.930 . S
C580 N576 1.362 . S
C580 C577 1.431 . S
C580 C590 1.476 . S
H581 C575 0.929 . S
C582 O573 1.250 1_655 S
C582 O574 1.258 . S
O583 Mn568 2.162 . S
O583 C571 1.281 . S
O584 Mn568 2.297 . S
O584 C571 1.236 . S
N585 Mn569 2.282 1_455 S
N585 C586 1.328 . S
N585 C590 1.318 1_455 S
C586 N585 1.328 . S
C586 C587 1.457 . S
C586 H591 0.929 . S
C587 C586 1.457 . S
C587 C588 1.291 . S
C587 H600 0.931 . S
C588 C587 1.291 . S
C588 C589 1.373 1_455 S
C588 H601 0.929 . S
C589 C588 1.373 1_655 S
C589 C590 1.396 . S
C589 C596 1.403 . S
C590 C580 1.476 . S
C590 N585 1.318 1_655 S
C590 C589 1.396 . S
H591 C586 0.929 . S
O592 Mn568 2.385 . S
O592 C570 1.234 . S
O593 Mn568 2.209 . S
O593 Mn569 2.215 1_455 S
O593 C570 1.283 . S
O594 Mn568 2.094 . S
O594 C572 1.240 . S
O595 Mn569 2.117 1_455 S
O595 C572 1.264 . S
C596 C589 1.403 . S
C596 C597 1.399 . S
C596 H602 0.929 . S
C597 C577 1.449 . S
C597 C596 1.399 . S
C597 H603 0.930 . S
H598 C578 0.931 . S
H599 C579 0.930 . S
H600 C587 0.931 . S
H601 C588 0.929 . S
H602 C596 0.929 . S
H603 C597 0.930 . S
Mn604 O609 2.095 . S
Mn604 O619 2.162 . S
Mn604 O620 2.297 . S
Mn604 O628 2.385 . S
Mn604 O629 2.209 . S
Mn604 O630 2.094 . S
Mn605 O610 2.121 . S
Mn605 N612 2.257 . S
Mn605 N621 2.282 . S
Mn605 O629 2.215 . S
Mn605 O631 2.117 . S
C606 O628 1.234 . S
C606 O629 1.283 . S
C607 O619 1.281 . S
C607 O620 1.236 . S
C608 O630 1.240 . S
C608 O631 1.264 . S
O609 Mn604 2.095 . S
O609 C618 1.250 . S
O610 Mn605 2.121 . S
O610 C618 1.258 . S
C611 N612 1.326 . S
C611 C615 1.460 . S
C611 H617 0.929 . S
N612 Mn605 2.257 . S
N612 C611 1.326 . S
N612 C616 1.362 . S
C613 C614 1.258 . S
C613 C616 1.431 . S
C613 C633 1.449 . S
C614 C613 1.258 . S
C614 C615 1.477 . S
C614 H634 0.931 . S
C615 C611 1.460 . S
C615 C614 1.477 . S
C615 H635 0.930 . S
C616 N612 1.362 . S
C616 C613 1.431 . S
C616 C626 1.476 . S
H617 C611 0.929 . S
C618 O609 1.250 . S
C618 O610 1.258 . S
O619 Mn604 2.162 . S
O619 C607 1.281 . S
O620 Mn604 2.297 . S
O620 C607 1.236 . S
N621 Mn605 2.282 . S
N621 C622 1.328 . S
N621 C626 1.318 . S
C622 N621 1.328 . S
C622 C623 1.457 . S
C622 H627 0.929 . S
C623 C622 1.457 . S
C623 C624 1.291 . S
C623 H636 0.931 . S
C624 C623 1.291 . S
C624 C625 1.373 . S
C624 H637 0.929 . S
C625 C624 1.373 . S
C625 C626 1.396 . S
C625 C632 1.403 . S
C626 C616 1.476 . S
C626 N621 1.318 . S
C626 C625 1.396 . S
H627 C622 0.929 . S
O628 Mn604 2.385 . S
O628 C606 1.234 . S
O629 Mn604 2.209 . S
O629 Mn605 2.215 . S
O629 C606 1.283 . S
O630 Mn604 2.094 . S
O630 C608 1.240 . S
O631 Mn605 2.117 . S
O631 C608 1.264 . S
C632 C625 1.403 . S
C632 C633 1.399 . S
C632 H638 0.929 . S
C633 C613 1.449 . S
C633 C632 1.399 . S
C633 H639 0.930 . S
H634 C614 0.931 . S
H635 C615 0.930 . S
H636 C623 0.931 . S
H637 C624 0.929 . S
H638 C632 0.929 . S
H639 C633 0.930 . S
C640 C641 1.387 . S
C640 H644 0.950 . S
C640 C649 1.390 . S
C641 C640 1.387 . S
C641 C643 1.387 . S
H642 C649 0.950 . S
C643 C641 1.387 . S
C643 C645 1.390 . S
C643 H647 0.950 . S
H644 C640 0.950 . S
C645 C643 1.390 . S
C645 C646 1.387 . S
C645 H648 0.950 . S
C646 C645 1.387 . S
C646 C649 1.387 . S
H647 C643 0.950 . S
H648 C645 0.950 . S
C649 C640 1.390 . S
C649 H642 0.950 . S
C649 C646 1.387 . S
C650 C651 1.387 . S
C650 H654 0.950 . S
C650 C659 1.390 . S
C651 C650 1.387 . S
C651 C653 1.387 . S
H652 C659 0.950 . S
C653 C651 1.387 . S
C653 C655 1.390 . S
C653 H657 0.950 . S
H654 C650 0.950 . S
C655 C653 1.390 . S
C655 C656 1.387 . S
C655 H658 0.950 . S
C656 C655 1.387 . S
C656 C659 1.387 . S
H657 C653 0.950 . S
H658 C655 0.950 . S
C659 C650 1.390 . S
C659 H652 0.950 . S
C659 C656 1.387 . S
C660 C661 1.387 . S
C660 H664 0.950 . S
C660 C669 1.390 . S
C661 C660 1.387 . S
C661 C663 1.387 . S
H662 C669 0.950 . S
C663 C661 1.387 . S
C663 C665 1.390 . S
C663 H667 0.950 . S
H664 C660 0.950 . S
C665 C663 1.390 . S
C665 C666 1.387 . S
C665 H668 0.950 . S
C666 C665 1.387 . S
C666 C669 1.387 . S
H667 C663 0.950 . S
H668 C665 0.950 . S
C669 C660 1.390 . S
C669 H662 0.950 . S
C669 C666 1.387 . S
C670 C671 1.387 . S
C670 H674 0.950 . S
C670 C679 1.390 1_565 S
C671 C670 1.387 . S
C671 C673 1.387 . S
H672 C679 0.950 . S
C673 C671 1.387 . S
C673 C675 1.390 1_565 S
C673 H677 0.950 1_655 S
H674 C670 0.950 . S
C675 C673 1.390 1_545 S
C675 C676 1.387 . S
C675 H678 0.950 . S
C676 C675 1.387 . S
C676 C679 1.387 . S
H677 C673 0.950 1_455 S
H678 C675 0.950 . S
C679 C670 1.390 1_545 S
C679 H672 0.950 . S
C679 C676 1.387 . S
C680 C681 1.387 . S
C680 H684 0.950 . S
C680 C689 1.390 . S
C681 C680 1.387 . S
C681 C683 1.387 . S
H682 C689 0.950 . S
C683 C681 1.387 . S
C683 C685 1.390 . S
C683 H687 0.950 . S
H684 C680 0.950 . S
C685 C683 1.390 . S
C685 C686 1.387 . S
C685 H688 0.950 . S
C686 C685 1.387 . S
C686 C689 1.387 . S
H687 C683 0.950 . S
H688 C685 0.950 . S
C689 C680 1.390 . S
C689 H682 0.950 . S
C689 C686 1.387 . S
C690 C691 1.387 . S
C690 H694 0.950 . S
C690 C699 1.390 . S
C691 C690 1.387 . S
C691 C693 1.387 . S
H692 C699 0.950 . S
C693 C691 1.387 . S
C693 C695 1.390 . S
C693 H697 0.950 . S
H694 C690 0.950 . S
C695 C693 1.390 . S
C695 C696 1.387 . S
C695 H698 0.950 . S
C696 C695 1.387 . S
C696 C699 1.387 . S
H697 C693 0.950 . S
H698 C695 0.950 . S
C699 C690 1.390 . S
C699 H692 0.950 . S
C699 C696 1.387 . S
C700 C701 1.387 . S
C700 H704 0.950 . S
C700 C709 1.390 . S
C701 C700 1.387 . S
C701 C703 1.387 . S
H702 C709 0.950 . S
C703 C701 1.387 . S
C703 C705 1.390 . S
C703 H707 0.950 . S
H704 C700 0.950 . S
C705 C703 1.390 . S
C705 C706 1.387 . S
C705 H708 0.950 . S
C706 C705 1.387 . S
C706 C709 1.387 . S
H707 C703 0.950 . S
H708 C705 0.950 . S
C709 C700 1.390 . S
C709 H702 0.950 . S
C709 C706 1.387 . S
C710 C711 1.387 1_545 S
C710 H714 0.950 . S
C710 C719 1.390 . S
C711 C710 1.387 1_565 S
C711 C713 1.387 . S
H712 C719 0.950 . S
C713 C711 1.387 . S
C713 C715 1.390 . S
C713 H717 0.950 . S
H714 C710 0.950 . S
C715 C713 1.390 . S
C715 C716 1.387 . S
C715 H718 0.950 . S
C716 C715 1.387 . S
C716 C719 1.387 1_565 S
H717 C713 0.950 . S
H718 C715 0.950 . S
C719 C710 1.390 . S
C719 H712 0.950 . S
C719 C716 1.387 1_545 S
C720 C721 1.387 . S
C720 H724 0.950 . S
C720 C729 1.390 . S
C721 C720 1.387 . S
C721 C723 1.387 . S
H722 C729 0.950 . S
C723 C721 1.387 . S
C723 C725 1.390 . S
C723 H727 0.950 . S
H724 C720 0.950 . S
C725 C723 1.390 . S
C725 C726 1.387 . S
C725 H728 0.950 . S
C726 C725 1.387 . S
C726 C729 1.387 . S
H727 C723 0.950 . S
H728 C725 0.950 . S
C729 C720 1.390 . S
C729 H722 0.950 . S
C729 C726 1.387 . S
C730 C731 1.387 . S
C730 H734 0.950 . S
C730 C739 1.390 . S
C731 C730 1.387 . S
C731 C733 1.387 . S
H732 C739 0.950 . S
C733 C731 1.387 . S
C733 C735 1.390 . S
C733 H737 0.950 . S
H734 C730 0.950 . S
C735 C733 1.390 . S
C735 C736 1.387 . S
C735 H738 0.950 . S
C736 C735 1.387 . S
C736 C739 1.387 . S
H737 C733 0.950 . S
H738 C735 0.950 . S
C739 C730 1.390 . S
C739 H732 0.950 . S
C739 C736 1.387 . S
C740 C741 1.387 . S
C740 H744 0.950 . S
C740 C749 1.390 . S
C741 C740 1.387 . S
C741 C743 1.387 . S
H742 C749 0.950 . S
C743 C741 1.387 . S
C743 C745 1.390 . S
C743 H747 0.950 . S
H744 C740 0.950 . S
C745 C743 1.390 . S
C745 C746 1.387 . S
C745 H748 0.950 . S
C746 C745 1.387 . S
C746 C749 1.387 . S
H747 C743 0.950 . S
H748 C745 0.950 . S
C749 C740 1.390 . S
C749 H742 0.950 . S
C749 C746 1.387 . S
C750 C751 1.387 . S
C750 H754 0.950 . S
C750 C759 1.390 . S
C751 C750 1.387 . S
C751 C753 1.387 . S
H752 C759 0.950 . S
C753 C751 1.387 . S
C753 C755 1.390 . S
C753 H757 0.950 . S
H754 C750 0.950 . S
C755 C753 1.390 . S
C755 C756 1.387 . S
C755 H758 0.950 . S
C756 C755 1.387 . S
C756 C759 1.387 . S
H757 C753 0.950 . S
H758 C755 0.950 . S
C759 C750 1.390 . S
C759 H752 0.950 . S
C759 C756 1.387 . S
C760 C761 1.387 . S
C760 H764 0.950 . S
C760 C769 1.390 . S
C761 C760 1.387 . S
C761 C763 1.387 . S
H762 C769 0.950 . S
C763 C761 1.387 . S
C763 C765 1.390 . S
C763 H767 0.950 . S
H764 C760 0.950 . S
C765 C763 1.390 . S
C765 C766 1.387 . S
C765 H768 0.936 1_655 S
C766 C765 1.387 . S
C766 C769 1.387 . S
H767 C763 0.950 . S
H768 C765 0.936 1_455 S
C769 C760 1.390 . S
C769 H762 0.950 . S
C769 C766 1.387 . S
C770 C771 1.387 . S
C770 H774 0.950 . S
C770 C779 1.390 . S
C771 C770 1.387 . S
C771 C773 1.387 . S
H772 C779 0.950 1_655 S
C773 C771 1.387 . S
C773 C775 1.390 . S
C773 H777 0.950 . S
H774 C770 0.950 . S
C775 C773 1.390 . S
C775 C776 1.387 . S
C775 H778 0.950 . S
C776 C775 1.387 . S
C776 C779 1.387 . S
H777 C773 0.950 . S
H778 C775 0.950 . S
C779 C770 1.390 . S
C779 H772 0.950 1_455 S
C779 C776 1.387 . S
C780 C781 1.387 . S
C780 H784 0.950 . S
C780 C789 1.390 . S
C781 C780 1.387 . S
C781 C783 1.387 . S
H782 C789 0.950 . S
C783 C781 1.387 . S
C783 C785 1.390 . S
C783 H787 0.950 . S
H784 C780 0.950 . S
C785 C783 1.390 . S
C785 C786 1.387 . S
C785 H788 0.950 . S
C786 C785 1.387 . S
C786 C789 1.387 . S
H787 C783 0.950 . S
H788 C785 0.950 . S
C789 C780 1.390 . S
C789 H782 0.950 . S
C789 C786 1.387 . S
C790 C791 1.387 . S
C790 H794 0.950 . S
C790 C799 1.390 . S
C791 C790 1.387 . S
C791 C793 1.387 1_655 S
H792 C799 0.950 . S
C793 C791 1.387 1_455 S
C793 C795 1.390 . S
C793 H797 0.950 . S
H794 C790 0.950 . S
C795 C793 1.390 . S
C795 C796 1.387 . S
C795 H798 0.950 . S
C796 C795 1.387 . S
C796 C799 1.387 1_455 S
H797 C793 0.950 . S
H798 C795 0.950 . S
C799 C790 1.390 . S
C799 H792 0.950 . S
C799 C796 1.387 1_655 S
C800 C801 1.387 . S
C800 H804 0.950 . S
C800 C809 1.390 . S
C801 C800 1.387 . S
C801 C803 1.387 . S
H802 C809 0.950 . S
C803 C801 1.387 . S
C803 C805 1.390 . S
C803 H807 0.950 . S
H804 C800 0.950 . S
C805 C803 1.390 . S
C805 C806 1.387 . S
C805 H808 0.950 . S
C806 C805 1.387 . S
C806 C809 1.387 . S
H807 C803 0.950 . S
H808 C805 0.950 . S
C809 C800 1.390 . S
C809 H802 0.950 . S
C809 C806 1.387 . S
C810 C811 1.387 . S
C810 H814 0.950 . S
C810 C819 1.390 . S
C811 C810 1.387 . S
C811 C813 1.387 . S
H812 C819 0.950 . S
C813 C811 1.387 . S
C813 C815 1.390 . S
C813 H817 0.950 . S
H814 C810 0.950 . S
C815 C813 1.390 . S
C815 C816 1.387 . S
C815 H818 0.950 . S
C816 C815 1.387 . S
C816 C819 1.387 . S
H817 C813 0.950 . S
H818 C815 0.950 . S
C819 C810 1.390 . S
C819 H812 0.950 . S
C819 C816 1.387 . S
C820 C821 1.377 1_556 S
C820 H824 0.950 . S
C820 C829 1.390 1_545 S
C821 C820 1.377 1_554 S
C821 C823 1.397 1_545 S
H822 C829 0.950 . S
C823 C821 1.397 1_565 S
C823 C825 1.390 . S
C823 H827 0.945 1_565 S
H824 C820 0.950 . S
C825 C823 1.390 . S
C825 C826 1.387 1_554 S
C825 H828 0.950 . S
C826 C825 1.387 1_556 S
C826 C829 1.387 . S
H827 C823 0.945 1_545 S
H828 C825 0.950 . S
C829 C820 1.390 1_565 S
C829 H822 0.950 . S
C829 C826 1.387 . S
C830 C831 1.387 . S
C830 H834 0.950 . S
C830 C839 1.390 . S
C831 C830 1.387 . S
C831 C833 1.387 . S
H832 C839 0.950 . S
C833 C831 1.387 . S
C833 C835 1.390 . S
C833 H837 0.950 . S
H834 C830 0.950 . S
C835 C833 1.390 . S
C835 C836 1.387 . S
C835 H838 0.950 . S
C836 C835 1.387 . S
C836 C839 1.387 . S
H837 C833 0.950 . S
H838 C835 0.950 . S
C839 C830 1.390 . S
C839 H832 0.950 . S
C839 C836 1.387 . S
C840 C841 1.387 . S
C840 H844 0.950 1_545 S
C840 C849 1.390 . S
C841 C840 1.387 . S
C841 C843 1.387 . S
H842 C849 0.950 . S
C843 C841 1.387 . S
C843 C845 1.390 . S
C843 H847 0.950 . S
H844 C840 0.950 1_565 S
C845 C843 1.390 . S
C845 C846 1.387 . S
C845 H848 0.950 . S
C846 C845 1.387 . S
C846 C849 1.387 . S
H847 C843 0.950 . S
H848 C845 0.950 . S
C849 C840 1.390 . S
C849 H842 0.950 . S
C849 C846 1.387 . S
C850 C851 1.387 . S
C850 H854 0.950 . S
C850 C859 1.390 . S
C851 C850 1.387 . S
C851 C853 1.387 . S
H852 C859 0.950 . S
C853 C851 1.387 . S
C853 C855 1.390 . S
C853 H857 0.950 . S
H854 C850 0.950 . S
C855 C853 1.390 . S
C855 C856 1.387 . S
C855 H858 0.950 . S
C856 C855 1.387 . S
C856 C859 1.387 . S
H857 C853 0.950 . S
H858 C855 0.950 . S
C859 C850 1.390 . S
C859 H852 0.950 . S
C859 C856 1.387 . S
C860 C861 1.387 . S
C860 H864 0.950 . S
C860 C869 1.390 . S
C861 C860 1.387 . S
C861 C863 1.387 . S
H862 C869 0.950 . S
C863 C861 1.387 . S
C863 C865 1.390 . S
C863 H867 0.950 . S
H864 C860 0.950 . S
C865 C863 1.390 . S
C865 C866 1.387 . S
C865 H868 0.950 . S
C866 C865 1.387 . S
C866 C869 1.387 . S
H867 C863 0.950 . S
H868 C865 0.950 . S
C869 C860 1.390 . S
C869 H862 0.950 . S
C869 C866 1.387 . S
C870 C871 1.387 . S
C870 H874 0.950 . S
C870 C879 1.390 . S
C871 C870 1.387 . S
C871 C873 1.387 . S
H872 C879 0.950 . S
C873 C871 1.387 . S
C873 C875 1.390 . S
C873 H877 0.950 . S
H874 C870 0.950 . S
C875 C873 1.390 . S
C875 C876 1.387 . S
C875 H878 0.950 . S
C876 C875 1.387 . S
C876 C879 1.387 . S
H877 C873 0.950 . S
H878 C875 0.950 . S
C879 C870 1.390 . S
C879 H872 0.950 . S
C879 C876 1.387 . S
C880 C881 1.387 . S
C880 H884 0.950 . S
C880 C889 1.390 . S
C881 C880 1.387 . S
C881 C883 1.387 . S
H882 C889 0.950 . S
C883 C881 1.387 . S
C883 C885 1.390 . S
C883 H887 0.950 . S
H884 C880 0.950 . S
C885 C883 1.390 . S
C885 C886 1.387 . S
C885 H888 0.950 . S
C886 C885 1.387 . S
C886 C889 1.387 . S
H887 C883 0.950 . S
H888 C885 0.950 . S
C889 C880 1.390 . S
C889 H882 0.950 . S
C889 C886 1.387 . S
C890 C891 1.387 . S
C890 H894 0.950 1_545 S
C890 C899 1.390 1_545 S
C891 C890 1.387 . S
C891 C893 1.387 . S
H892 C899 0.950 . S
C893 C891 1.387 . S
C893 C895 1.390 . S
C893 H897 0.950 . S
H894 C890 0.950 1_565 S
C895 C893 1.390 . S
C895 C896 1.387 . S
C895 H898 0.950 . S
C896 C895 1.387 . S
C896 C899 1.387 1_545 S
H897 C893 0.950 . S
H898 C895 0.950 . S
C899 C890 1.390 1_565 S
C899 H892 0.950 . S
C899 C896 1.387 1_565 S
C900 C901 1.387 . S
C900 H904 0.950 . S
C900 C909 1.390 . S
C901 C900 1.387 . S
C901 C903 1.387 . S
H902 C909 0.950 . S
C903 C901 1.387 . S
C903 C905 1.390 . S
C903 H907 0.950 . S
H904 C900 0.950 . S
C905 C903 1.390 . S
C905 C906 1.387 . S
C905 H908 0.950 . S
C906 C905 1.387 . S
C906 C909 1.387 . S
H907 C903 0.950 . S
H908 C905 0.950 . S
C909 C900 1.390 . S
C909 H902 0.950 . S
C909 C906 1.387 . S
C910 C911 1.387 . S
C910 H914 0.950 . S
C910 C919 1.390 . S
C911 C910 1.387 . S
C911 C913 1.387 . S
H912 C919 0.950 . S
C913 C911 1.387 . S
C913 C915 1.390 . S
C913 H917 0.950 . S
H914 C910 0.950 . S
C915 C913 1.390 . S
C915 C916 1.387 . S
C915 H918 0.950 . S
C916 C915 1.387 . S
C916 C919 1.387 . S
H917 C913 0.950 . S
H918 C915 0.950 . S
C919 C910 1.390 . S
C919 H912 0.950 . S
C919 C916 1.387 . S
C920 C921 1.387 . S
C920 H924 0.950 . S
C920 C929 1.390 . S
C921 C920 1.387 . S
C921 C923 1.387 . S
H922 C929 0.950 . S
C923 C921 1.387 . S
C923 C925 1.390 . S
C923 H927 0.950 . S
H924 C920 0.950 . S
C925 C923 1.390 . S
C925 C926 1.387 . S
C925 H928 0.950 . S
C926 C925 1.387 . S
C926 C929 1.387 . S
H927 C923 0.950 . S
H928 C925 0.950 . S
C929 C920 1.390 . S
C929 H922 0.950 . S
C929 C926 1.387 . S
C930 C931 1.387 1_565 S
C930 H934 0.950 . S
C930 C939 1.390 . S
C931 C930 1.387 1_545 S
C931 C933 1.387 . S
H932 C939 0.950 . S
C933 C931 1.387 . S
C933 C935 1.390 . S
C933 H937 0.950 . S
H934 C930 0.950 . S
C935 C933 1.390 . S
C935 C936 1.387 . S
C935 H938 0.950 . S
C936 C935 1.387 . S
C936 C939 1.387 1_545 S
H937 C933 0.950 . S
H938 C935 0.950 . S
C939 C930 1.390 . S
C939 H932 0.950 . S
C939 C936 1.387 1_565 S
C940 C941 1.387 . S
C940 H944 0.950 . S
C940 C949 1.390 . S
C941 C940 1.387 . S
C941 C943 1.387 . S
H942 C949 0.950 . S
C943 C941 1.387 . S
C943 C945 1.390 . S
C943 H947 0.950 . S
H944 C940 0.950 . S
C945 C943 1.390 . S
C945 C946 1.387 . S
C945 H948 0.950 . S
C946 C945 1.387 . S
C946 C949 1.387 . S
H947 C943 0.950 . S
H948 C945 0.950 . S
C949 C940 1.390 . S
C949 H942 0.950 . S
C949 C946 1.387 . S
C950 C951 1.387 . S
C950 H954 0.950 . S
C950 C959 1.390 . S
C951 C950 1.387 . S
C951 C953 1.387 . S
H952 C959 0.950 . S
C953 C951 1.387 . S
C953 C955 1.390 . S
C953 H957 0.950 . S
H954 C950 0.950 . S
C955 C953 1.390 . S
C955 C956 1.387 . S
C955 H958 0.950 . S
C956 C955 1.387 . S
C956 C959 1.387 . S
H957 C953 0.950 . S
H958 C955 0.950 . S
C959 C950 1.390 . S
C959 H952 0.950 . S
C959 C956 1.387 . S
C960 C961 1.387 . S
C960 H964 0.950 . S
C960 C969 1.390 . S
C961 C960 1.387 . S
C961 C963 1.387 . S
H962 C969 0.950 . S
C963 C961 1.387 . S
C963 C965 1.390 . S
C963 H967 0.950 . S
H964 C960 0.950 . S
C965 C963 1.390 . S
C965 C966 1.387 . S
C965 H968 0.950 . S
C966 C965 1.387 . S
C966 C969 1.387 . S
H967 C963 0.950 . S
H968 C965 0.950 . S
C969 C960 1.390 . S
C969 H962 0.950 . S
C969 C966 1.387 . S
C970 C971 1.387 . S
C970 H974 0.950 . S
C970 C979 1.390 . S
C971 C970 1.387 . S
C971 C973 1.387 1_655 S
H972 C979 0.950 . S
C973 C971 1.387 1_455 S
C973 C975 1.390 . S
C973 H977 0.950 1_556 S
H974 C970 0.950 . S
C975 C973 1.390 . S
C975 C976 1.387 1_455 S
C975 H978 0.950 . S
C976 C975 1.387 1_655 S
C976 C979 1.387 . S
H977 C973 0.950 1_554 S
H978 C975 0.950 . S
C979 C970 1.390 . S
C979 H972 0.950 . S
C979 C976 1.387 . S
C980 C981 1.387 . S
C980 H984 0.950 . S
C980 C989 1.390 . S
C981 C980 1.387 . S
C981 C983 1.387 . S
H982 C989 0.950 . S
C983 C981 1.387 . S
C983 C985 1.390 . S
C983 H987 0.950 . S
H984 C980 0.950 . S
C985 C983 1.390 . S
C985 C986 1.387 . S
C985 H988 0.950 . S
C986 C985 1.387 . S
C986 C989 1.387 . S
H987 C983 0.950 . S
H988 C985 0.950 . S
C989 C980 1.390 . S
C989 H982 0.950 . S
C989 C986 1.387 . S
C990 C991 1.387 . S
C990 H994 0.950 . S
C990 C999 1.390 . S
C991 C990 1.387 . S
C991 C993 1.387 1_455 S
H992 C999 0.950 . S
C993 C991 1.387 1_655 S
C993 C995 1.390 . S
C993 H997 0.950 1_556 S
H994 C990 0.950 . S
C995 C993 1.390 . S
C995 C996 1.379 1_655 S
C995 H998 0.950 . S
C996 C995 1.379 1_455 S
C996 C999 1.399 . S
H997 C993 0.950 1_554 S
H998 C995 0.950 . S
C999 C990 1.390 . S
C999 H992 0.950 . S
C999 C996 1.399 . S
C1000 C1001 1.387 . S
C1000 H1004 0.950 . S
C1000 C1009 1.390 . S
C1001 C1000 1.387 . S
C1001 C1003 1.387 . S
H1002 C1009 0.950 . S
C1003 C1001 1.387 . S
C1003 C1005 1.390 . S
C1003 H1007 0.950 . S
H1004 C1000 0.950 . S
C1005 C1003 1.390 . S
C1005 C1006 1.387 . S
C1005 H1008 0.950 . S
C1006 C1005 1.387 . S
C1006 C1009 1.387 . S
H1007 C1003 0.950 . S
H1008 C1005 0.950 . S
C1009 C1000 1.390 . S
C1009 H1002 0.950 . S
C1009 C1006 1.387 . S
C1010 C1011 1.387 . S
C1010 H1014 0.950 . S
C1010 C1019 1.390 . S
C1011 C1010 1.387 . S
C1011 C1013 1.387 . S
H1012 C1019 0.950 . S
C1013 C1011 1.387 . S
C1013 C1015 1.390 . S
C1013 H1017 0.950 . S
H1014 C1010 0.950 . S
C1015 C1013 1.390 . S
C1015 C1016 1.387 . S
C1015 H1018 0.950 . S
C1016 C1015 1.387 . S
C1016 C1019 1.387 . S
H1017 C1013 0.950 . S
H1018 C1015 0.950 . S
C1019 C1010 1.390 . S
C1019 H1012 0.950 . S
C1019 C1016 1.387 . S
C1020 C1021 1.387 . S
C1020 H1024 0.950 . S
C1020 C1029 1.390 . S
C1021 C1020 1.387 . S
C1021 C1023 1.387 . S
H1022 C1029 0.950 . S
C1023 C1021 1.387 . S
C1023 C1025 1.390 . S
C1023 H1027 0.950 . S
H1024 C1020 0.950 . S
C1025 C1023 1.390 . S
C1025 C1026 1.387 . S
C1025 H1028 0.950 . S
C1026 C1025 1.387 . S
C1026 C1029 1.387 . S
H1027 C1023 0.950 . S
H1028 C1025 0.950 . S
C1029 C1020 1.390 . S
C1029 H1022 0.950 . S
C1029 C1026 1.387 . S
C1030 C1031 1.387 . S
C1030 H1034 0.950 . S
C1030 C1039 1.390 . S
C1031 C1030 1.387 . S
C1031 C1033 1.387 . S
H1032 C1039 0.950 . S
C1033 C1031 1.387 . S
C1033 C1035 1.390 . S
C1033 H1037 0.950 . S
H1034 C1030 0.950 . S
C1035 C1033 1.390 . S
C1035 C1036 1.387 . S
C1035 H1038 0.950 . S
C1036 C1035 1.387 . S
C1036 C1039 1.387 . S
H1037 C1033 0.950 . S
H1038 C1035 0.950 . S
C1039 C1030 1.390 . S
C1039 H1032 0.950 . S
C1039 C1036 1.387 . S
C1040 C1041 1.387 . S
C1040 H1044 0.950 . S
C1040 C1049 1.390 . S
C1041 C1040 1.387 . S
C1041 C1043 1.387 . S
H1042 C1049 0.950 . S
C1043 C1041 1.387 . S
C1043 C1045 1.390 . S
C1043 H1047 0.950 . S
H1044 C1040 0.950 . S
C1045 C1043 1.390 . S
C1045 C1046 1.387 . S
C1045 H1048 0.950 . S
C1046 C1045 1.387 . S
C1046 C1049 1.387 . S
H1047 C1043 0.950 . S
H1048 C1045 0.950 . S
C1049 C1040 1.390 . S
C1049 H1042 0.950 . S
C1049 C1046 1.387 . S
C1050 C1051 1.387 . S
C1050 H1054 0.950 . S
C1050 C1059 1.390 . S
C1051 C1050 1.387 . S
C1051 C1053 1.387 . S
H1052 C1059 0.950 . S
C1053 C1051 1.387 . S
C1053 C1055 1.390 . S
C1053 H1057 0.950 . S
H1054 C1050 0.950 . S
C1055 C1053 1.390 . S
C1055 C1056 1.387 . S
C1055 H1058 0.950 . S
C1056 C1055 1.387 . S
C1056 C1059 1.387 . S
H1057 C1053 0.950 . S
H1058 C1055 0.950 . S
C1059 C1050 1.390 . S
C1059 H1052 0.950 . S
C1059 C1056 1.387 . S
C1060 C1061 1.387 . S
C1060 H1064 0.950 . S
C1060 C1069 1.390 . S
C1061 C1060 1.387 . S
C1061 C1063 1.387 . S
H1062 C1069 0.950 . S
C1063 C1061 1.387 . S
C1063 C1065 1.390 . S
C1063 H1067 0.950 . S
H1064 C1060 0.950 . S
C1065 C1063 1.390 . S
C1065 C1066 1.387 . S
C1065 H1068 0.950 . S
C1066 C1065 1.387 . S
C1066 C1069 1.387 . S
H1067 C1063 0.950 . S
H1068 C1065 0.950 . S
C1069 C1060 1.390 . S
C1069 H1062 0.950 . S
C1069 C1066 1.387 . S
C1070 C1071 1.387 . S
C1070 H1074 0.950 . S
C1070 C1079 1.390 . S
C1071 C1070 1.387 . S
C1071 C1073 1.387 . S
H1072 C1079 0.950 . S
C1073 C1071 1.387 . S
C1073 C1075 1.390 . S
C1073 H1077 0.950 . S
H1074 C1070 0.950 . S
C1075 C1073 1.390 . S
C1075 C1076 1.387 . S
C1075 H1078 0.950 . S
C1076 C1075 1.387 . S
C1076 C1079 1.387 . S
H1077 C1073 0.950 . S
H1078 C1075 0.950 . S
C1079 C1070 1.390 . S
C1079 H1072 0.950 . S
C1079 C1076 1.387 . S
C1080 C1081 1.387 . S
C1080 H1084 0.950 . S
C1080 C1089 1.390 . S
C1081 C1080 1.387 . S
C1081 C1083 1.387 1_556 S
H1082 C1089 0.950 . S
C1083 C1081 1.387 1_554 S
C1083 C1085 1.390 . S
C1083 H1087 0.950 . S
H1084 C1080 0.950 . S
C1085 C1083 1.390 . S
C1085 C1086 1.387 . S
C1085 H1088 0.950 . S
C1086 C1085 1.387 . S
C1086 C1089 1.387 1_554 S
H1087 C1083 0.950 . S
H1088 C1085 0.950 . S
C1089 C1080 1.390 . S
C1089 H1082 0.950 . S
C1089 C1086 1.387 1_556 S
C1090 C1091 1.387 . S
C1090 H1094 0.950 . S
C1090 C1099 1.390 . S
C1091 C1090 1.387 . S
C1091 C1093 1.387 . S
H1092 C1099 0.950 . S
C1093 C1091 1.387 . S
C1093 C1095 1.390 . S
C1093 H1097 0.950 . S
H1094 C1090 0.950 . S
C1095 C1093 1.390 . S
C1095 C1096 1.387 . S
C1095 H1098 0.950 . S
C1096 C1095 1.387 . S
C1096 C1099 1.387 . S
H1097 C1093 0.950 . S
H1098 C1095 0.950 . S
C1099 C1090 1.390 . S
C1099 H1092 0.950 . S
C1099 C1096 1.387 . S
C1100 C1101 1.387 . S
C1100 H1104 0.972 . S
C1100 C1109 1.390 . S
C1101 C1100 1.387 . S
C1101 C1103 1.387 . S
H1102 C1109 0.950 1_556 S
C1103 C1101 1.387 . S
C1103 C1105 1.390 . S
C1103 H1107 0.950 . S
H1104 C1100 0.972 . S
C1105 C1103 1.390 . S
C1105 C1106 1.387 . S
C1105 H1108 0.950 . S
C1106 C1105 1.387 . S
C1106 C1109 1.387 . S
H1107 C1103 0.950 . S
H1108 C1105 0.950 . S
C1109 C1100 1.390 . S
C1109 H1102 0.950 1_554 S
C1109 C1106 1.387 . S
C1110 C1111 1.387 . S
C1110 H1114 0.950 . S
C1110 C1119 1.390 . S
C1111 C1110 1.387 . S
C1111 C1113 1.387 1_554 S
H1112 C1119 0.950 . S
C1113 C1111 1.387 1_556 S
C1113 C1115 1.390 . S
C1113 H1117 0.950 . S
H1114 C1110 0.950 . S
C1115 C1113 1.390 . S
C1115 C1116 1.387 1_556 S
C1115 H1118 0.950 . S
C1116 C1115 1.387 1_554 S
C1116 C1119 1.387 . S
H1117 C1113 0.950 . S
H1118 C1115 0.950 . S
C1119 C1110 1.390 . S
C1119 H1112 0.950 . S
C1119 C1116 1.387 . S
C646 C210 1.633 . S
C641 C73 1.642 . S
C656 C258 1.381 . S
C651 C82 1.381 . S
C661 C100 1.758 . S
C666 C294 1.635 . S
C676 C330 1.402 . S
C671 C56 1.438 . S
C686 C356 1.410 . S
C681 C134 1.441 . S
C696 C392 1.664 . S
C691 C165 1.669 . S
C701 C147 1.249 . S
C706 C427 1.328 . S
C716 C464 1.809 . S
C711 C125 1.823 . S
C721 C151 1.383 . S
C726 C498 1.372 . S
C736 C546 1.475 . S
C731 C121 1.510 . S
C741 C139 1.665 . S
C746 C499 1.675 . S
C756 C536 1.471 . S
C751 C164 1.472 . S
C761 C95 1.362 . S
C766 C582 1.385 . S
C771 C61 1.543 . S
C776 C571 1.546 . S
C781 C74 1.434 . S
C786 C572 1.427 . S
C791 C86 1.778 . S
C796 C570 1.770 . S
C801 C47 1.384 . S
C806 C318 1.391 . S
C811 C186 1.248 . S
C816 C319 1.324 . S
C826 C222 1.624 . S
C821 C204 1.640 . S
C836 C247 1.796 . S
C831 C112 1.794 . S
C841 C60 1.516 . S
C846 C354 1.516 . S
C856 C462 1.417 . S
C851 C152 1.414 . S
C866 C355 1.826 . S
C861 C126 1.826 1_545 S
C876 C428 1.449 . S
C871 C160 1.445 . S
C886 C426 1.633 . S
C881 C190 1.642 . S
C891 C199 1.385 . S
C896 C474 1.379 . S
C901 C113 1.757 . S
C906 C366 1.633 . S
C916 C402 1.400 . S
C911 C173 1.437 . S
C921 C43 1.442 . S
C926 C284 1.411 . S
C936 C320 1.665 . S
C931 C9 1.669 1_655 S
C946 C211 1.328 . S
C941 C17 1.253 . S
C956 C248 1.809 . S
C951 C34 1.823 . S
C961 C21 1.385 . S
C966 C534 1.375 . S
C971 C30 1.512 . S
C976 C510 1.477 . S
C981 C48 1.665 . S
C986 C535 1.675 . S
C991 C8 1.472 1_556 S
C996 C500 1.467 1_455 S
C1006 C618 1.384 . S
C1001 C108 1.364 . S
C1016 C607 1.545 . S
C1011 C178 1.544 1_554 S
C1026 C608 1.427 . S
C1021 C191 1.433 . S
C1031 C203 1.778 . S
C1036 C606 1.771 . S
C1041 C138 1.384 . S
C1046 C390 1.391 . S
C1056 C391 1.324 . S
C1051 C69 1.249 . S
C1066 C438 1.624 . S
C1061 C87 1.640 . S
C1076 C463 1.796 . S
C1071 C99 1.796 . S
C1081 C177 1.516 . S
C1086 C282 1.516 . S
C1096 C246 1.418 . S
C1091 C22 1.417 . S
C1101 C35 1.826 . S
C1106 C283 1.826 . S
C1116 C212 1.448 1_554 S
C1111 C4 1.445 . S
