# Generated by pormake.
# Topology ptr, (4,4)-cn, num edge types: 1
# Building blocks:
#     Node 0, Type 0, BuildingBlock: AZAVOO_clean_sbu_0, # of connection points: 4
#     Node 1, Type 0, BuildingBlock: AZAVOO_clean_sbu_0, # of connection points: 4
#     Node 2, Type 0, BuildingBlock: AZAVOO_clean_sbu_0, # of connection points: 4
#     Node 3, Type 0, BuildingBlock: AZAVOO_clean_sbu_0, # of connection points: 4
#     Node 4, Type 0, BuildingBlock: AZAVOO_clean_sbu_0, # of connection points: 4
#     Node 5, Type 0, BuildingBlock: AZAVOO_clean_sbu_0, # of connection points: 4
#     Node 6, Type 0, BuildingBlock: AZAVOO_clean_sbu_0, # of connection points: 4
#     Node 7, Type 0, BuildingBlock: AZAVOO_clean_sbu_0, # of connection points: 4
#     Node 8, Type 0, BuildingBlock: AZAVOO_clean_sbu_0, # of connection points: 4
#     Node 9, Type 0, BuildingBlock: AZAVOO_clean_sbu_0, # of connection points: 4
#     Node 10, Type 0, BuildingBlock: AZAVOO_clean_sbu_0, # of connection points: 4
#     Node 11, Type 0, BuildingBlock: AZAVOO_clean_sbu_0, # of connection points: 4
#     Node 12, Type 0, BuildingBlock: AZAVOO_clean_sbu_0, # of connection points: 4
#     Node 13, Type 0, BuildingBlock: AZAVOO_clean_sbu_0, # of connection points: 4
#     Node 14, Type 0, BuildingBlock: AZAVOO_clean_sbu_0, # of connection points: 4
#     Node 15, Type 0, BuildingBlock: AZAVOO_clean_sbu_0, # of connection points: 4
#     Node 16, Type 0, BuildingBlock: AZAVOO_clean_sbu_0, # of connection points: 4
#     Node 17, Type 0, BuildingBlock: AZAVOO_clean_sbu_0, # of connection points: 4
#     Node 18, Type 1, BuildingBlock: NAHDIM_clean_linker_0, # of connection points: 4
#     Node 19, Type 1, BuildingBlock: NAHDIM_clean_linker_0, # of connection points: 4
#     Node 20, Type 1, BuildingBlock: NAHDIM_clean_linker_0, # of connection points: 4
#     Node 21, Type 1, BuildingBlock: NAHDIM_clean_linker_0, # of connection points: 4
#     Node 22, Type 1, BuildingBlock: NAHDIM_clean_linker_0, # of connection points: 4
#     Node 23, Type 1, BuildingBlock: NAHDIM_clean_linker_0, # of connection points: 4
#     Node 24, Type 1, BuildingBlock: NAHDIM_clean_linker_0, # of connection points: 4
#     Node 25, Type 1, BuildingBlock: NAHDIM_clean_linker_0, # of connection points: 4
#     Node 26, Type 1, BuildingBlock: NAHDIM_clean_linker_0, # of connection points: 4
#     Node 27, Type 1, BuildingBlock: NAHDIM_clean_linker_0, # of connection points: 4
#     Node 28, Type 1, BuildingBlock: NAHDIM_clean_linker_0, # of connection points: 4
#     Node 29, Type 1, BuildingBlock: NAHDIM_clean_linker_0, # of connection points: 4
#     Node 30, Type 1, BuildingBlock: NAHDIM_clean_linker_0, # of connection points: 4
#     Node 31, Type 1, BuildingBlock: NAHDIM_clean_linker_0, # of connection points: 4
#     Node 32, Type 1, BuildingBlock: NAHDIM_clean_linker_0, # of connection points: 4
#     Node 33, Type 1, BuildingBlock: NAHDIM_clean_linker_0, # of connection points: 4
#     Node 34, Type 1, BuildingBlock: NAHDIM_clean_linker_0, # of connection points: 4
#     Node 35, Type 1, BuildingBlock: NAHDIM_clean_linker_0, # of connection points: 4
#     Edge 36, Type (0, 1), BuildingBlock: UVAHIK_clean_linker_0, # of connection points: 2
#     Edge 37, Type (0, 1), BuildingBlock: UVAHIK_clean_linker_0, # of connection points: 2
#     Edge 38, Type (0, 1), BuildingBlock: UVAHIK_clean_linker_0, # of connection points: 2
#     Edge 39, Type (0, 1), BuildingBlock: UVAHIK_clean_linker_0, # of connection points: 2
#     Edge 40, Type (0, 1), BuildingBlock: UVAHIK_clean_linker_0, # of connection points: 2
#     Edge 41, Type (0, 1), BuildingBlock: UVAHIK_clean_linker_0, # of connection points: 2
#     Edge 42, Type (0, 1), BuildingBlock: UVAHIK_clean_linker_0, # of connection points: 2
#     Edge 43, Type (0, 1), BuildingBlock: UVAHIK_clean_linker_0, # of connection points: 2
#     Edge 44, Type (0, 1), BuildingBlock: UVAHIK_clean_linker_0, # of connection points: 2
#     Edge 45, Type (0, 1), BuildingBlock: UVAHIK_clean_linker_0, # of connection points: 2
#     Edge 46, Type (0, 1), BuildingBlock: UVAHIK_clean_linker_0, # of connection points: 2
#     Edge 47, Type (0, 1), BuildingBlock: UVAHIK_clean_linker_0, # of connection points: 2
#     Edge 48, Type (0, 1), BuildingBlock: UVAHIK_clean_linker_0, # of connection points: 2
#     Edge 49, Type (0, 1), BuildingBlock: UVAHIK_clean_linker_0, # of connection points: 2
#     Edge 50, Type (0, 1), BuildingBlock: UVAHIK_clean_linker_0, # of connection points: 2
#     Edge 51, Type (0, 1), BuildingBlock: UVAHIK_clean_linker_0, # of connection points: 2
#     Edge 52, Type (0, 1), BuildingBlock: UVAHIK_clean_linker_0, # of connection points: 2
#     Edge 53, Type (0, 1), BuildingBlock: UVAHIK_clean_linker_0, # of connection points: 2
#     Edge 54, Type (0, 1), BuildingBlock: UVAHIK_clean_linker_0, # of connection points: 2
#     Edge 55, Type (0, 1), BuildingBlock: UVAHIK_clean_linker_0, # of connection points: 2
#     Edge 56, Type (0, 1), BuildingBlock: UVAHIK_clean_linker_0, # of connection points: 2
#     Edge 57, Type (0, 1), BuildingBlock: UVAHIK_clean_linker_0, # of connection points: 2
#     Edge 58, Type (0, 1), BuildingBlock: UVAHIK_clean_linker_0, # of connection points: 2
#     Edge 59, Type (0, 1), BuildingBlock: UVAHIK_clean_linker_0, # of connection points: 2
#     Edge 60, Type (0, 1), BuildingBlock: UVAHIK_clean_linker_0, # of connection points: 2
#     Edge 61, Type (0, 1), BuildingBlock: UVAHIK_clean_linker_0, # of connection points: 2
#     Edge 62, Type (0, 1), BuildingBlock: UVAHIK_clean_linker_0, # of connection points: 2
#     Edge 63, Type (0, 1), BuildingBlock: UVAHIK_clean_linker_0, # of connection points: 2
#     Edge 64, Type (0, 1), BuildingBlock: UVAHIK_clean_linker_0, # of connection points: 2
#     Edge 65, Type (0, 1), BuildingBlock: UVAHIK_clean_linker_0, # of connection points: 2
#     Edge 66, Type (0, 1), BuildingBlock: UVAHIK_clean_linker_0, # of connection points: 2
#     Edge 67, Type (0, 1), BuildingBlock: UVAHIK_clean_linker_0, # of connection points: 2
#     Edge 68, Type (0, 1), BuildingBlock: UVAHIK_clean_linker_0, # of connection points: 2
#     Edge 69, Type (0, 1), BuildingBlock: UVAHIK_clean_linker_0, # of connection points: 2
#     Edge 70, Type (0, 1), BuildingBlock: UVAHIK_clean_linker_0, # of connection points: 2
#     Edge 71, Type (0, 1), BuildingBlock: UVAHIK_clean_linker_0, # of connection points: 2
#     Edge 72, Type (0, 1), BuildingBlock: UVAHIK_clean_linker_0, # of connection points: 2
#     Edge 73, Type (0, 1), BuildingBlock: UVAHIK_clean_linker_0, # of connection points: 2
#     Edge 74, Type (0, 1), BuildingBlock: UVAHIK_clean_linker_0, # of connection points: 2
#     Edge 75, Type (0, 1), BuildingBlock: UVAHIK_clean_linker_0, # of connection points: 2
#     Edge 76, Type (0, 1), BuildingBlock: UVAHIK_clean_linker_0, # of connection points: 2
#     Edge 77, Type (0, 1), BuildingBlock: UVAHIK_clean_linker_0, # of connection points: 2
#     Edge 78, Type (0, 1), BuildingBlock: UVAHIK_clean_linker_0, # of connection points: 2
#     Edge 79, Type (0, 1), BuildingBlock: UVAHIK_clean_linker_0, # of connection points: 2
#     Edge 80, Type (0, 1), BuildingBlock: UVAHIK_clean_linker_0, # of connection points: 2
#     Edge 81, Type (0, 1), BuildingBlock: UVAHIK_clean_linker_0, # of connection points: 2
#     Edge 82, Type (0, 1), BuildingBlock: UVAHIK_clean_linker_0, # of connection points: 2
#     Edge 83, Type (0, 1), BuildingBlock: UVAHIK_clean_linker_0, # of connection points: 2
#     Edge 84, Type (0, 1), BuildingBlock: UVAHIK_clean_linker_0, # of connection points: 2
#     Edge 85, Type (0, 1), BuildingBlock: UVAHIK_clean_linker_0, # of connection points: 2
#     Edge 86, Type (0, 1), BuildingBlock: UVAHIK_clean_linker_0, # of connection points: 2
#     Edge 87, Type (0, 1), BuildingBlock: UVAHIK_clean_linker_0, # of connection points: 2
#     Edge 88, Type (0, 1), BuildingBlock: UVAHIK_clean_linker_0, # of connection points: 2
#     Edge 89, Type (0, 1), BuildingBlock: UVAHIK_clean_linker_0, # of connection points: 2
#     Edge 90, Type (0, 1), BuildingBlock: UVAHIK_clean_linker_0, # of connection points: 2
#     Edge 91, Type (0, 1), BuildingBlock: UVAHIK_clean_linker_0, # of connection points: 2
#     Edge 92, Type (0, 1), BuildingBlock: UVAHIK_clean_linker_0, # of connection points: 2
#     Edge 93, Type (0, 1), BuildingBlock: UVAHIK_clean_linker_0, # of connection points: 2
#     Edge 94, Type (0, 1), BuildingBlock: UVAHIK_clean_linker_0, # of connection points: 2
#     Edge 95, Type (0, 1), BuildingBlock: UVAHIK_clean_linker_0, # of connection points: 2
#     Edge 96, Type (0, 1), BuildingBlock: UVAHIK_clean_linker_0, # of connection points: 2
#     Edge 97, Type (0, 1), BuildingBlock: UVAHIK_clean_linker_0, # of connection points: 2
#     Edge 98, Type (0, 1), BuildingBlock: UVAHIK_clean_linker_0, # of connection points: 2
#     Edge 99, Type (0, 1), BuildingBlock: UVAHIK_clean_linker_0, # of connection points: 2
#     Edge 100, Type (0, 1), BuildingBlock: UVAHIK_clean_linker_0, # of connection points: 2
#     Edge 101, Type (0, 1), BuildingBlock: UVAHIK_clean_linker_0, # of connection points: 2
#     Edge 102, Type (0, 1), BuildingBlock: UVAHIK_clean_linker_0, # of connection points: 2
#     Edge 103, Type (0, 1), BuildingBlock: UVAHIK_clean_linker_0, # of connection points: 2
#     Edge 104, Type (0, 1), BuildingBlock: UVAHIK_clean_linker_0, # of connection points: 2
#     Edge 105, Type (0, 1), BuildingBlock: UVAHIK_clean_linker_0, # of connection points: 2
#     Edge 106, Type (0, 1), BuildingBlock: UVAHIK_clean_linker_0, # of connection points: 2
#     Edge 107, Type (0, 1), BuildingBlock: UVAHIK_clean_linker_0, # of connection points: 2
# Relax obj value: 0.102
# Max RMSD: 0.340
# Mean RMSD: 0.134
data_MOF--net-ptr--node1-AZAVOO_clean_sbu_0--node2-NAHDIM_clean_linker_0--edge1-UVAHIK_clean_linker_0
_symmetry_space_group_name_H-M    P1
_symmetry_Int_Tables_number       1
_symmetry_cell_setting            triclinic
loop_
_symmetry_equiv_pos_as_xyz
'x, y, z'
_cell_length_a     114.9148
_cell_length_b     112.48952
_cell_length_c     94.135197
_cell_angle_alpha  91.605073
_cell_angle_beta   91.02132
_cell_angle_gamma 120.32868
loop_
_atom_site_label
_atom_site_type_symbol
_atom_site_fract_x
_atom_site_fract_y
_atom_site_fract_z
_atom_type_partial_charge
Mg0 Mg 0.01925 0.34841 0.98693 0.0
O1 O 0.00983 0.35372 0.00563 0.0
O2 O 0.99291 0.35596 0.99667 0.0
Mg3 Mg 0.99161 0.35251 0.97252 0.0
C4 C 0.00021 0.35619 0.0072 0.0
C5 C 0.02964 0.33014 1.00011 0.0
O6 O 0.02265 0.32232 0.98897 0.0
O7 O 0.00106 0.32654 0.98478 0.0
O8 O 0.98523 0.32974 0.97458 0.0
O9 O 0.0334 0.37098 0.98388 0.0
O10 O 0.01305 0.3587 0.97364 0.0
C11 C 0.98925 0.32181 0.97922 0.0
C12 C 0.02373 0.37051 0.97615 0.0
O13 O 0.03037 0.34171 0.00228 0.0
Mg14 Mg 0.6633 0.65265 0.03098 0.0
O15 O 0.64614 0.64715 0.01446 0.0
O16 O 0.62823 0.64388 0.02647 0.0
Mg17 Mg 0.63368 0.64695 0.05027 0.0
C18 C 0.63386 0.64421 0.0148 0.0
C19 C 0.69067 0.66974 0.01767 0.0
O20 O 0.69303 0.67425 0.03103 0.0
O21 O 0.66644 0.67416 0.03495 0.0
O22 O 0.64877 0.67005 0.04786 0.0
O23 O 0.65645 0.6303 0.03275 0.0
O24 O 0.64932 0.64161 0.04612 0.0
C25 C 0.65981 0.6784 0.04211 0.0
C26 C 0.64858 0.63011 0.04253 0.0
O27 O 0.67881 0.66037 0.01373 0.0
Mg28 Mg 0.33769 0.982 0.98346 0.0
O29 O 0.35264 0.99086 0.00254 0.0
O30 O 0.37228 0.00793 0.99538 0.0
Mg31 Mg 0.36971 0.01027 0.97161 0.0
C32 C 0.36492 0.00021 0.00507 0.0
C33 C 0.30977 0.97151 0.99641 0.0
O34 O 0.30895 0.97793 0.98533 0.0
O35 O 0.33508 0.00074 0.98411 0.0
O36 O 0.35443 0.01742 0.97593 0.0
O37 O 0.34548 0.96774 0.9784 0.0
O38 O 0.35351 0.98848 0.96976 0.0
C39 C 0.34258 0.01312 0.98043 0.0
C40 C 0.35433 0.97758 0.971 0.0
O41 O 0.3204 0.97088 0.99857 0.0
Mg42 Mg 0.9917 0.66467 0.03047 0.0
O43 O 0.00214 0.65897 0.01334 0.0
O44 O 0.0188 0.65718 0.02365 0.0
Mg45 Mg 0.01899 0.66185 0.04753 0.0
C46 C 0.01183 0.65652 0.01263 0.0
C47 C 0.96943 0.66747 0.01372 0.0
O48 O 0.96217 0.65993 0.02407 0.0
O49 O 0.00926 0.68667 0.03257 0.0
O50 O 0.02538 0.68452 0.04374 0.0
O51 O 0.97787 0.64227 0.03388 0.0
O52 O 0.99733 0.65527 0.04564 0.0
C53 C 0.02108 0.69193 0.0383 0.0
C54 C 0.98689 0.64326 0.04306 0.0
O55 O 0.98174 0.67076 0.01326 0.0
Mg56 Mg 0.34342 0.35482 0.99638 0.0
O57 O 0.36143 0.36009 0.01137 0.0
O58 O 0.37834 0.36233 0.99819 0.0
Mg59 Mg 0.37135 0.35935 0.97472 0.0
C60 C 0.37345 0.36241 0.01025 0.0
C61 C 0.32007 0.35076 0.01524 0.0
O62 O 0.31952 0.35851 0.00538 0.0
O63 O 0.33955 0.33307 0.99231 0.0
O64 O 0.35597 0.33639 0.97773 0.0
O65 O 0.35054 0.37723 0.99428 0.0
O66 O 0.35628 0.36518 0.98019 0.0
C67 C 0.34535 0.32841 0.98435 0.0
C68 C 0.3574 0.37686 0.98368 0.0
O69 O 0.3293 0.3477 0.01489 0.0
Mg70 Mg 0.66855 0.01727 0.02251 0.0
O71 O 0.6515 0.00557 0.0057 0.0
O72 O 0.63424 0.98823 0.01628 0.0
Mg73 Mg 0.63991 0.98959 0.03997 0.0
C74 C 0.6396 0.99507 0.00529 0.0
C75 C 0.69374 0.03934 0.00754 0.0
O76 O 0.69442 0.04615 0.01939 0.0
O77 O 0.67305 0.99979 0.02283 0.0
O78 O 0.6561 0.98388 0.035 0.0
O79 O 0.66034 0.03112 0.02756 0.0
O80 O 0.65452 0.01176 0.03825 0.0
C81 C 0.66719 0.98818 0.02867 0.0
C82 C 0.65285 0.02213 0.03658 0.0
O83 O 0.68376 0.02723 0.00525 0.0
Mg84 Mg 0.67846 0.67713 0.32846 0.0
O85 O 0.66791 0.68411 0.34454 0.0
O86 O 0.65321 0.68746 0.33194 0.0
Mg87 Mg 0.65389 0.68244 0.30843 0.0
C88 C 0.65889 0.68755 0.34376 0.0
C89 C 0.68626 0.6586 0.3453 0.0
O90 O 0.67942 0.65037 0.33433 0.0
O91 O 0.65958 0.65581 0.3261 0.0
O92 O 0.6453 0.65957 0.31321 0.0
O93 O 0.69385 0.69917 0.32491 0.0
O94 O 0.6747 0.68714 0.31239 0.0
C95 C 0.6482 0.65148 0.31962 0.0
C96 C 0.6856 0.69874 0.31508 0.0
O97 O 0.68757 0.67052 0.34634 0.0
Mg98 Mg 0.33121 0.98792 0.36593 0.0
O99 O 0.31216 0.98171 0.35217 0.0
O100 O 0.29588 0.97897 0.36666 0.0
Mg101 Mg 0.3046 0.98379 0.38956 0.0
C102 C 0.30004 0.97871 0.35423 0.0
C103 C 0.34109 0.98471 0.33621 0.0
O104 O 0.32998 0.97266 0.33672 0.0
O105 O 0.33494 0.00974 0.36927 0.0
O106 O 0.31911 0.00654 0.38466 0.0
O107 O 0.32443 0.96572 0.36863 0.0
O108 O 0.3196 0.97822 0.38324 0.0
C109 C 0.32923 0.01445 0.37734 0.0
C110 C 0.3182 0.96643 0.37967 0.0
O111 O 0.34403 0.99359 0.34635 0.0
Mg112 Mg 0.0125 0.31484 0.32771 0.0
O113 O 0.03025 0.3253 0.34421 0.0
O114 O 0.04905 0.33638 0.33189 0.0
Mg115 Mg 0.04365 0.33308 0.30811 0.0
C116 C 0.04308 0.33287 0.34366 0.0
C117 C 0.98814 0.31388 0.34283 0.0
O118 O 0.98823 0.32024 0.33131 0.0
O119 O 0.01486 0.3358 0.32358 0.0
O120 O 0.0333 0.34589 0.31071 0.0
O121 O 0.01426 0.2959 0.32645 0.0
O122 O 0.02534 0.31397 0.3132 0.0
C123 C 0.02336 0.34591 0.31656 0.0
C124 C 0.02331 0.30222 0.31713 0.0
O125 O 0.99709 0.31054 0.34471 0.0
Mg126 Mg 0.65314 0.97221 0.35414 0.0
O127 O 0.66671 0.96732 0.34054 0.0
O128 O 0.68122 0.96576 0.35539 0.0
Mg129 Mg 0.67666 0.96905 0.37828 0.0
C130 C 0.67659 0.96536 0.34284 0.0
C131 C 0.63587 0.96936 0.32682 0.0
O132 O 0.63077 0.95627 0.32942 0.0
O133 O 0.67031 0.9943 0.35827 0.0
O134 O 0.68347 0.99174 0.37416 0.0
O135 O 0.63859 0.94972 0.35637 0.0
O136 O 0.65584 0.9624 0.37125 0.0
C137 C 0.68063 0.99937 0.36677 0.0
C138 C 0.64573 0.95049 0.36752 0.0
O139 O 0.64563 0.97838 0.33469 0.0
Mg140 Mg 0.01811 0.69538 0.32814 0.0
O141 O 0.03638 0.70295 0.3437 0.0
O142 O 0.05458 0.70936 0.33076 0.0
Mg143 Mg 0.04814 0.70616 0.30721 0.0
C144 C 0.04904 0.70767 0.34275 0.0
C145 C 0.99476 0.68929 0.34776 0.0
O146 O 0.99505 0.69876 0.33967 0.0
O147 O 0.01828 0.67546 0.32349 0.0
O148 O 0.03637 0.68275 0.31014 0.0
O149 O 0.02175 0.71687 0.32691 0.0
O150 O 0.0305 0.70784 0.31257 0.0
C151 C 0.0262 0.67312 0.31612 0.0
C152 C 0.02953 0.71834 0.3165 0.0
O153 O 0.00349 0.68566 0.34605 0.0
Mg154 Mg 0.32705 0.34831 0.36094 0.0
O155 O 0.30986 0.33511 0.34467 0.0
O156 O 0.29244 0.31928 0.3564 0.0
Mg157 Mg 0.2984 0.32268 0.38016 0.0
C158 C 0.29784 0.32486 0.34485 0.0
C159 C 0.34969 0.36962 0.34244 0.0
O160 O 0.34818 0.37789 0.35137 0.0
O161 O 0.33139 0.33095 0.36389 0.0
O162 O 0.3142 0.31603 0.37659 0.0
O163 O 0.31925 0.36276 0.36391 0.0
O164 O 0.31328 0.34449 0.37666 0.0
C165 C 0.32535 0.3198 0.37055 0.0
C166 C 0.31199 0.35491 0.37383 0.0
O167 O 0.34208 0.35668 0.34327 0.0
Mg168 Mg 0.34953 0.01849 0.65487 0.0
O169 O 0.33718 0.02343 0.67047 0.0
O170 O 0.32204 0.02583 0.65756 0.0
Mg171 Mg 0.32423 0.02197 0.63408 0.0
C172 C 0.32753 0.02595 0.66952 0.0
C173 C 0.3653 0.02178 0.68332 0.0
O174 O 0.36549 0.03357 0.68342 0.0
O175 O 0.33209 0.99623 0.65146 0.0
O176 O 0.31777 0.99942 0.63798 0.0
O177 O 0.36365 0.04108 0.65242 0.0
O178 O 0.3454 0.02835 0.63878 0.0
C179 C 0.32102 0.99149 0.64419 0.0
C180 C 0.35553 0.04033 0.64227 0.0
O181 O 0.35895 0.01295 0.6732 0.0
Mg182 Mg 0.99138 0.30826 0.69556 0.0
O183 O 0.97437 0.30061 0.67823 0.0
O184 O 0.95511 0.29356 0.68951 0.0
Mg185 Mg 0.95948 0.29665 0.71345 0.0
C186 C 0.96158 0.29552 0.67809 0.0
C187 C 0.01666 0.33104 0.68016 0.0
O188 O 0.01648 0.33872 0.69082 0.0
O189 O 0.99012 0.32765 0.69932 0.0
O190 O 0.97095 0.32014 0.71083 0.0
O191 O 0.9884 0.28714 0.69719 0.0
O192 O 0.97748 0.29506 0.70973 0.0
C193 C 0.98156 0.32983 0.70553 0.0
C194 C 0.97919 0.28492 0.70618 0.0
O195 O 0.0076 0.31835 0.67903 0.0
Mg196 Mg 0.67901 0.65271 0.66218 0.0
O197 O 0.69654 0.66581 0.67832 0.0
O198 O 0.71385 0.68095 0.66588 0.0
Mg199 Mg 0.70757 0.67774 0.64232 0.0
C200 C 0.70869 0.67577 0.67766 0.0
C201 C 0.65177 0.63981 0.67552 0.0
O202 O 0.64925 0.64029 0.66194 0.0
O203 O 0.67521 0.67048 0.65961 0.0
O204 O 0.69237 0.68499 0.64663 0.0
O205 O 0.68631 0.63785 0.65906 0.0
O206 O 0.69258 0.65619 0.64634 0.0
C207 C 0.68145 0.68163 0.65298 0.0
C208 C 0.69372 0.64569 0.64921 0.0
O209 O 0.66391 0.64439 0.67978 0.0
Mg210 Mg 0.32309 0.3181 0.68944 0.0
O211 O 0.33604 0.3141 0.67386 0.0
O212 O 0.35113 0.31158 0.68669 0.0
Mg213 Mg 0.34757 0.31353 0.7103 0.0
C214 C 0.34593 0.31195 0.67473 0.0
C215 C 0.30273 0.32174 0.67084 0.0
O216 O 0.29475 0.31272 0.67985 0.0
O217 O 0.34029 0.33988 0.69473 0.0
O218 O 0.3545 0.33659 0.70831 0.0
O219 O 0.30864 0.29548 0.69025 0.0
O220 O 0.32639 0.30717 0.70488 0.0
C221 C 0.35109 0.34455 0.70241 0.0
C222 C 0.31613 0.2955 0.70072 0.0
O223 O 0.31525 0.32582 0.6716 0.0
Mg224 Mg 0.68415 0.02683 0.65924 0.0
O225 O 0.70232 0.0318 0.67385 0.0
O226 O 0.71869 0.03315 0.66034 0.0
Mg227 Mg 0.7112 0.02973 0.63702 0.0
C228 C 0.71417 0.0337 0.67249 0.0
C229 C 0.66634 0.02887 0.68256 0.0
O230 O 0.67045 0.04056 0.6763 0.0
O231 O 0.6794 0.00468 0.65568 0.0
O232 O 0.69534 0.0071 0.64083 0.0
O233 O 0.69204 0.0493 0.6566 0.0
O234 O 0.69681 0.03644 0.64255 0.0
C235 C 0.68479 0.99954 0.64774 0.0
C236 C 0.69849 0.0484 0.64588 0.0
O237 O 0.67052 0.02092 0.67824 0.0
Mg238 Mg 0.98495 0.68045 0.69593 0.0
O239 O 0.96822 0.6692 0.67863 0.0
O240 O 0.94886 0.65616 0.68938 0.0
Mg241 Mg 0.95316 0.65952 0.71345 0.0
C242 C 0.95554 0.66061 0.67813 0.0
C243 C 0.01225 0.68736 0.68426 0.0
O244 O 0.01374 0.68589 0.69785 0.0
O245 O 0.98461 0.66061 0.70048 0.0
O246 O 0.96551 0.6485 0.712 0.0
O247 O 0.98107 0.69797 0.69679 0.0
O248 O 0.97109 0.67982 0.7101 0.0
C249 C 0.97641 0.64993 0.707 0.0
C250 C 0.97236 0.69131 0.70631 0.0
O251 O 0.00107 0.68577 0.67963 0.0
C252 C 0.1899 0.25142 0.06433 0.0
C253 C 0.19363 0.2639 0.07429 0.0
C254 C 0.18586 0.2642 0.09802 0.0
C255 C 0.18928 0.27806 0.09927 0.0
C256 C 0.18298 0.28236 0.10911 0.0
C257 C 0.17282 0.27251 0.1176 0.0
C258 C 0.16949 0.25854 0.11646 0.0
C259 C 0.17635 0.25466 0.10691 0.0
C260 C 0.18703 0.29738 0.11024 0.0
C261 C 0.15842 0.2476 0.12494 0.0
C262 C 0.1073 0.27642 0.073 0.0
C263 C 0.1006 0.28026 0.08483 0.0
C264 C 0.11838 0.28742 0.10352 0.0
C265 C 0.11537 0.27414 0.10712 0.0
C266 C 0.1244 0.27223 0.11564 0.0
C267 C 0.13673 0.28382 0.1206 0.0
C268 C 0.1396 0.29723 0.11738 0.0
C269 C 0.13029 0.29884 0.109 0.0
C270 C 0.1209 0.2578 0.11912 0.0
C271 C 0.15265 0.30981 0.12248 0.0
C272 C 0.122 0.28753 0.21231 0.0
C273 C 0.1196 0.27437 0.20817 0.0
C274 C 0.12924 0.27282 0.20073 0.0
C275 C 0.14158 0.28464 0.19757 0.0
C276 C 0.1443 0.29786 0.20236 0.0
C277 C 0.13446 0.29911 0.20977 0.0
C278 C 0.12618 0.25854 0.19608 0.0
C279 C 0.15742 0.31064 0.19929 0.0
C280 C 0.22331 0.26098 0.2078 0.0
C281 C 0.21966 0.27169 0.21283 0.0
C282 C 0.19736 0.26896 0.20804 0.0
C283 C 0.18407 0.25866 0.20473 0.0
C284 C 0.17497 0.2617 0.19796 0.0
C285 C 0.17925 0.27548 0.19469 0.0
C286 C 0.19254 0.28607 0.19856 0.0
C287 C 0.20148 0.28271 0.20522 0.0
C288 C 0.16082 0.25016 0.19418 0.0
C289 C 0.19728 0.3009 0.19554 0.0
C290 C 0.16503 0.27662 0.12692 0.0
C291 C 0.15529 0.27882 0.1204 0.0
C292 C 0.14693 0.28184 0.12842 0.0
C293 C 0.14813 0.28251 0.14343 0.0
C294 C 0.13954 0.28502 0.15183 0.0
C295 C 0.14061 0.28536 0.1666 0.0
C296 C 0.15034 0.28324 0.17353 0.0
C297 C 0.15125 0.2832 0.18852 0.0
C298 C 0.16097 0.281 0.1951 0.0
C299 C 0.16982 0.27871 0.18706 0.0
C300 C 0.16906 0.27871 0.17204 0.0
C301 C 0.17778 0.2764 0.16361 0.0
C302 C 0.17666 0.27598 0.14883 0.0
C303 C 0.16669 0.2777 0.14191 0.0
C304 C 0.15807 0.28045 0.15019 0.0
C305 C 0.15923 0.28091 0.16526 0.0
C306 C 0.09541 0.28997 0.20516 0.0
C307 C 0.09887 0.28226 0.21604 0.0
O308 O 0.19138 0.2597 0.08816 0.0
O309 O 0.20579 0.26521 0.21407 0.0
O310 O 0.11268 0.28944 0.21902 0.0
O311 O 0.11028 0.28968 0.09461 0.0
H312 H 0.1868 0.26782 0.07115 0.0
H313 H 0.17908 0.24357 0.06532 0.0
H314 H 0.19606 0.24666 0.06704 0.0
H315 H 0.19154 0.25453 0.05311 0.0
H316 H 0.19687 0.28551 0.09257 0.0
H317 H 0.17386 0.24401 0.10588 0.0
H318 H 0.17895 0.2987 0.10526 0.0
H319 H 0.19657 0.30401 0.10482 0.0
H320 H 0.18829 0.30098 0.12158 0.0
H321 H 0.15559 0.23702 0.12106 0.0
H322 H 0.14929 0.24859 0.12445 0.0
H323 H 0.16187 0.24889 0.13625 0.0
H324 H 0.09338 0.27083 0.09031 0.0
H325 H 0.09958 0.26908 0.06502 0.0
H326 H 0.11264 0.27137 0.07741 0.0
H327 H 0.11471 0.28579 0.06757 0.0
H328 H 0.10608 0.26518 0.10323 0.0
H329 H 0.13249 0.30906 0.10629 0.0
H330 H 0.12218 0.25719 0.13075 0.0
H331 H 0.1279 0.2552 0.11375 0.0
H332 H 0.11039 0.24999 0.11567 0.0
H333 H 0.15347 0.31952 0.11886 0.0
H334 H 0.16132 0.30907 0.11852 0.0
H335 H 0.15342 0.3103 0.13428 0.0
H336 H 0.09544 0.2718 0.21133 0.0
H337 H 0.11032 0.26528 0.21083 0.0
H338 H 0.13631 0.3092 0.21329 0.0
H339 H 0.12642 0.25776 0.18431 0.0
H340 H 0.11616 0.25038 0.19949 0.0
H341 H 0.13404 0.25663 0.20059 0.0
H342 H 0.15826 0.3201 0.20435 0.0
H343 H 0.15826 0.31185 0.18762 0.0
H344 H 0.16604 0.3096 0.20317 0.0
H345 H 0.2231 0.27954 0.20455 0.0
H346 H 0.23438 0.26591 0.20659 0.0
H347 H 0.21821 0.2563 0.19731 0.0
H348 H 0.22004 0.25265 0.21548 0.0
H349 H 0.18094 0.24812 0.20718 0.0
H350 H 0.2116 0.29084 0.20832 0.0
H351 H 0.15864 0.24993 0.18261 0.0
H352 H 0.15349 0.25202 0.19989 0.0
H353 H 0.15922 0.23993 0.19698 0.0
H354 H 0.20776 0.30801 0.19967 0.0
H355 H 0.19046 0.30404 0.20042 0.0
H356 H 0.19685 0.30199 0.18388 0.0
H357 H 0.15406 0.27796 0.10889 0.0
H358 H 0.13182 0.28663 0.14708 0.0
H359 H 0.13366 0.28724 0.1725 0.0
H360 H 0.16145 0.28077 0.2066 0.0
H361 H 0.18552 0.27482 0.16834 0.0
H362 H 0.18363 0.27416 0.14289 0.0
H363 H 0.08435 0.28444 0.20277 0.0
H364 H 0.10057 0.29058 0.19512 0.0
H365 H 0.09873 0.30062 0.20923 0.0
C366 C 0.759 0.95419 0.09751 0.0
C367 C 0.7462 0.94078 0.09266 0.0
C368 C 0.73752 0.92354 0.11106 0.0
C369 C 0.72568 0.91547 0.11818 0.0
C370 C 0.72366 0.90388 0.12535 0.0
C371 C 0.73406 0.90063 0.12589 0.0
C372 C 0.74621 0.90889 0.11886 0.0
C373 C 0.74778 0.92024 0.11141 0.0
C374 C 0.71039 0.89512 0.13232 0.0
C375 C 0.75755 0.90581 0.11935 0.0
C376 C 0.71266 0.79884 0.08515 0.0
C377 C 0.71987 0.81336 0.09092 0.0
C378 C 0.71518 0.82862 0.10576 0.0
C379 C 0.72876 0.8382 0.10942 0.0
C380 C 0.73223 0.84975 0.11844 0.0
C381 C 0.72193 0.85185 0.12376 0.0
C382 C 0.70827 0.84228 0.12 0.0
C383 C 0.70508 0.83074 0.11111 0.0
C384 C 0.7469 0.85977 0.12224 0.0
C385 C 0.69705 0.84432 0.12531 0.0
C386 C 0.71333 0.82725 0.2154 0.0
C387 C 0.72671 0.83535 0.21129 0.0
C388 C 0.73082 0.84757 0.20416 0.0
C389 C 0.72133 0.85169 0.20101 0.0
C390 C 0.70791 0.84372 0.20544 0.0
C391 C 0.70414 0.83167 0.21276 0.0
C392 C 0.74531 0.85608 0.19999 0.0
C393 C 0.69755 0.84785 0.20231 0.0
C394 C 0.75529 0.96237 0.22165 0.0
C395 C 0.74372 0.94758 0.22307 0.0
C396 C 0.74462 0.92658 0.21793 0.0
C397 C 0.75383 0.92208 0.21603 0.0
C398 C 0.7501 0.90967 0.20846 0.0
C399 C 0.73673 0.90146 0.2029 0.0
C400 C 0.72715 0.9056 0.2054 0.0
C401 C 0.7312 0.91814 0.2129 0.0
C402 C 0.76052 0.90549 0.20613 0.0
C403 C 0.71271 0.89688 0.19997 0.0
C404 C 0.73214 0.88858 0.13381 0.0
C405 C 0.72862 0.8764 0.12603 0.0
C406 C 0.72552 0.86432 0.13283 0.0
C407 C 0.72566 0.86424 0.14786 0.0
C408 C 0.72215 0.85216 0.15506 0.0
C409 C 0.72199 0.85213 0.16985 0.0
C410 C 0.72557 0.86424 0.17801 0.0
C411 C 0.7254 0.86433 0.19304 0.0
C412 C 0.72904 0.87656 0.20082 0.0
C413 C 0.7329 0.88882 0.194 0.0
C414 C 0.73313 0.88894 0.17898 0.0
C415 C 0.73702 0.90111 0.17178 0.0
C416 C 0.73687 0.90106 0.157 0.0
C417 C 0.73285 0.88885 0.14884 0.0
C418 C 0.72935 0.87657 0.15588 0.0
C419 C 0.72938 0.87659 0.17097 0.0
C420 C 0.70242 0.79616 0.20593 0.0
C421 C 0.71184 0.80507 0.21839 0.0
O422 O 0.73876 0.93465 0.10445 0.0
O423 O 0.74908 0.93905 0.22466 0.0
O424 O 0.70904 0.81534 0.2222 0.0
O425 O 0.71137 0.81722 0.09718 0.0
H426 H 0.74907 0.93382 0.08711 0.0
H427 H 0.76489 0.95203 0.10544 0.0
H428 H 0.75637 0.96157 0.10249 0.0
H429 H 0.7655 0.95905 0.08837 0.0
H430 H 0.71787 0.91819 0.11789 0.0
H431 H 0.75712 0.92665 0.10616 0.0
H432 H 0.70647 0.88401 0.12975 0.0
H433 H 0.70264 0.8977 0.12893 0.0
H434 H 0.71192 0.89678 0.14404 0.0
H435 H 0.76685 0.91403 0.11466 0.0
H436 H 0.75434 0.89593 0.11336 0.0
H437 H 0.75993 0.90459 0.13051 0.0
H438 H 0.72702 0.82115 0.0836 0.0
H439 H 0.71395 0.79963 0.07332 0.0
H440 H 0.7016 0.79542 0.08444 0.0
H441 H 0.72039 0.78919 0.09777 0.0
H442 H 0.7367 0.83674 0.1053 0.0
H443 H 0.69464 0.82331 0.10821 0.0
H444 H 0.74846 0.86124 0.13398 0.0
H445 H 0.74984 0.86995 0.11792 0.0
H446 H 0.75365 0.85624 0.11798 0.0
H447 H 0.68698 0.83619 0.121 0.0
H448 H 0.69876 0.85453 0.12225 0.0
H449 H 0.69706 0.84422 0.13709 0.0
H450 H 0.72241 0.80963 0.21499 0.0
H451 H 0.73404 0.83233 0.21387 0.0
H452 H 0.69389 0.82544 0.21617 0.0
H453 H 0.74576 0.85627 0.18823 0.0
H454 H 0.75167 0.85198 0.20406 0.0
H455 H 0.74964 0.86689 0.20414 0.0
H456 H 0.68737 0.84016 0.20585 0.0
H457 H 0.6969 0.8491 0.19071 0.0
H458 H 0.70069 0.85795 0.20778 0.0
H459 H 0.73746 0.94475 0.21302 0.0
H460 H 0.75128 0.96943 0.22024 0.0
H461 H 0.76117 0.9629 0.21221 0.0
H462 H 0.76219 0.96591 0.23123 0.0
H463 H 0.7641 0.92856 0.22016 0.0
H464 H 0.72386 0.92129 0.21482 0.0
H465 H 0.76156 0.90427 0.19455 0.0
H466 H 0.75716 0.89535 0.21082 0.0
H467 H 0.77056 0.91313 0.21095 0.0
H468 H 0.70624 0.90095 0.20379 0.0
H469 H 0.70846 0.88614 0.20339 0.0
H470 H 0.71235 0.89651 0.18816 0.0
H471 H 0.72808 0.87627 0.1145 0.0
H472 H 0.71934 0.84255 0.14933 0.0
H473 H 0.71903 0.84248 0.1748 0.0
H474 H 0.72888 0.87654 0.21234 0.0
H475 H 0.74015 0.91081 0.17747 0.0
H476 H 0.73991 0.91072 0.15204 0.0
H477 H 0.70451 0.78784 0.2028 0.0
H478 H 0.70405 0.80259 0.1966 0.0
H479 H 0.6917 0.79145 0.20885 0.0
C480 C 0.18743 0.91182 0.08169 0.0
C481 C 0.19958 0.92014 0.09208 0.0
C482 C 0.18998 0.90553 0.11245 0.0
C483 C 0.18154 0.91056 0.1167 0.0
C484 C 0.17078 0.90301 0.12559 0.0
C485 C 0.16839 0.89016 0.1303 0.0
C486 C 0.17731 0.88544 0.1267 0.0
C487 C 0.18811 0.89329 0.11792 0.0
C488 C 0.16162 0.90848 0.12948 0.0
C489 C 0.17507 0.87181 0.1316 0.0
C490 C 0.09429 0.84521 0.06507 0.0
C491 C 0.09675 0.83724 0.07651 0.0
C492 C 0.10117 0.84467 0.10144 0.0
C493 C 0.10915 0.83904 0.10537 0.0
C494 C 0.11848 0.84481 0.11691 0.0
C495 C 0.12 0.85659 0.12451 0.0
C496 C 0.11148 0.86186 0.12096 0.0
C497 C 0.10196 0.85562 0.10962 0.0
C498 C 0.12713 0.83867 0.1206 0.0
C499 C 0.11292 0.87454 0.12862 0.0
C500 C 0.08812 0.84194 0.21251 0.0
C501 C 0.09568 0.83551 0.20977 0.0
C502 C 0.10862 0.84293 0.20429 0.0
C503 C 0.11403 0.857 0.2014 0.0
C504 C 0.10663 0.8636 0.20464 0.0
C505 C 0.09381 0.85599 0.21031 0.0
C506 C 0.11643 0.8357 0.20139 0.0
C507 C 0.11214 0.87862 0.20182 0.0
C508 C 0.21261 0.93605 0.22089 0.0
C509 C 0.20451 0.93023 0.23426 0.0
C510 C 0.18583 0.90788 0.22473 0.0
C511 C 0.18143 0.89384 0.2231 0.0
C512 C 0.17015 0.88498 0.2143 0.0
C513 C 0.16296 0.8903 0.20713 0.0
C514 C 0.16708 0.90442 0.20906 0.0
C515 C 0.17853 0.9131 0.21773 0.0
C516 C 0.16603 0.86997 0.21249 0.0
C517 C 0.15944 0.91039 0.20185 0.0
C518 C 0.15572 0.88103 0.13753 0.0
C519 C 0.14422 0.87284 0.1289 0.0
C520 C 0.13167 0.86445 0.13469 0.0
C521 C 0.13051 0.86414 0.14962 0.0
C522 C 0.11806 0.85584 0.15585 0.0
C523 C 0.11695 0.85601 0.17055 0.0
C524 C 0.12829 0.8643 0.1796 0.0
C525 C 0.12722 0.86473 0.19454 0.0
C526 C 0.1387 0.8731 0.20319 0.0
C527 C 0.15131 0.88119 0.19735 0.0
C528 C 0.15258 0.88092 0.18243 0.0
C529 C 0.16511 0.88894 0.17618 0.0
C530 C 0.16618 0.88898 0.16148 0.0
C531 C 0.1548 0.88086 0.15248 0.0
C532 C 0.14212 0.87244 0.15854 0.0
C533 C 0.14101 0.87249 0.17354 0.0
C534 C 0.05225 0.81897 0.21146 0.0
C535 C 0.06624 0.82102 0.2148 0.0
O536 O 0.19965 0.91187 0.10273 0.0
O537 O 0.19714 0.91593 0.23304 0.0
O538 O 0.07534 0.83496 0.21721 0.0
O539 O 0.09302 0.84007 0.08954 0.0
H540 H 0.19907 0.92898 0.09692 0.0
H541 H 0.17781 0.90816 0.08719 0.0
H542 H 0.18759 0.90272 0.07704 0.0
H543 H 0.18758 0.91833 0.07295 0.0
H544 H 0.1831 0.92022 0.1129 0.0
H545 H 0.19477 0.88957 0.11474 0.0
H546 H 0.15157 0.90191 0.12411 0.0
H547 H 0.16566 0.91927 0.12632 0.0
H548 H 0.16015 0.90804 0.14113 0.0
H549 H 0.18329 0.8699 0.12848 0.0
H550 H 0.16535 0.86333 0.12693 0.0
H551 H 0.17436 0.8715 0.14334 0.0
H552 H 0.10781 0.84111 0.07668 0.0
H553 H 0.09695 0.84285 0.05448 0.0
H554 H 0.10071 0.85646 0.06753 0.0
H555 H 0.08358 0.84259 0.06461 0.0
H556 H 0.10823 0.83028 0.09926 0.0
H557 H 0.09561 0.85976 0.10656 0.0
H558 H 0.12789 0.83805 0.1323 0.0
H559 H 0.13747 0.84542 0.11684 0.0
H560 H 0.12307 0.82821 0.11555 0.0
H561 H 0.1061 0.87782 0.12396 0.0
H562 H 0.12349 0.8832 0.12822 0.0
H563 H 0.11059 0.87244 0.13997 0.0
H564 H 0.06893 0.81706 0.20517 0.0
H565 H 0.09152 0.82473 0.21191 0.0
H566 H 0.08797 0.86089 0.21266 0.0
H567 H 0.11757 0.83503 0.18976 0.0
H568 H 0.11137 0.82511 0.20542 0.0
H569 H 0.12672 0.84172 0.20643 0.0
H570 H 0.10489 0.88209 0.2044 0.0
H571 H 0.11467 0.88047 0.19046 0.0
H572 H 0.12159 0.88503 0.2083 0.0
H573 H 0.19757 0.93431 0.2357 0.0
H574 H 0.21863 0.94749 0.22189 0.0
H575 H 0.20574 0.93313 0.21136 0.0
H576 H 0.21955 0.932 0.21923 0.0
H577 H 0.18706 0.88987 0.22858 0.0
H578 H 0.18167 0.9239 0.2189 0.0
H579 H 0.16568 0.86714 0.20103 0.0
H580 H 0.15574 0.86347 0.21648 0.0
H581 H 0.17305 0.86757 0.21829 0.0
H582 H 0.16298 0.92115 0.20569 0.0
H583 H 0.14848 0.90397 0.20371 0.0
H584 H 0.16074 0.91032 0.1902 0.0
H585 H 0.14501 0.87318 0.11742 0.0
H586 H 0.10902 0.84923 0.14941 0.0
H587 H 0.10706 0.84956 0.17473 0.0
H588 H 0.13777 0.87349 0.21463 0.0
H589 H 0.17422 0.89539 0.18259 0.0
H590 H 0.17604 0.89547 0.15724 0.0
H591 H 0.04476 0.80783 0.20956 0.0
H592 H 0.05253 0.82442 0.2017 0.0
H593 H 0.04894 0.82315 0.22033 0.0
C594 C 0.28187 0.1004 0.94438 0.0
C595 C 0.28381 0.09157 0.93304 0.0
C596 C 0.289 0.10613 0.91231 0.0
C597 C 0.27569 0.1028 0.90889 0.0
C598 C 0.27303 0.10992 0.89852 0.0
C599 C 0.28387 0.12073 0.89158 0.0
C600 C 0.29725 0.12398 0.89483 0.0
C601 C 0.2996 0.11649 0.90503 0.0
C602 C 0.25862 0.10608 0.8952 0.0
C603 C 0.30906 0.13558 0.8878 0.0
C604 C 0.25824 0.19547 0.91015 0.0
C605 C 0.26987 0.19481 0.91753 0.0
C606 C 0.27718 0.18269 0.90086 0.0
C607 C 0.28809 0.18451 0.89298 0.0
C608 C 0.28806 0.17334 0.88599 0.0
C609 C 0.27661 0.15999 0.88665 0.0
C610 C 0.2654 0.15806 0.89443 0.0
C611 C 0.26581 0.16943 0.90154 0.0
C612 C 0.30033 0.17581 0.87804 0.0
C613 C 0.253 0.14397 0.89526 0.0
C614 C 0.25831 0.16235 0.79541 0.0
C615 C 0.27183 0.16802 0.80002 0.0
C616 C 0.27606 0.1601 0.80737 0.0
C617 C 0.26649 0.14632 0.81039 0.0
C618 C 0.253 0.14041 0.80514 0.0
C619 C 0.24913 0.14848 0.79751 0.0
C620 C 0.29067 0.16657 0.81222 0.0
C621 C 0.24256 0.12572 0.80801 0.0
C622 C 0.28433 0.06389 0.80605 0.0
C623 C 0.28245 0.06971 0.79224 0.0
C624 C 0.28591 0.09241 0.80025 0.0
C625 C 0.29543 0.10648 0.80146 0.0
C626 C 0.29261 0.11582 0.80856 0.0
C627 C 0.27979 0.11097 0.81437 0.0
C628 C 0.26997 0.09678 0.81299 0.0
C629 C 0.27318 0.0876 0.80612 0.0
C630 C 0.30335 0.13087 0.80987 0.0
C631 C 0.25609 0.09131 0.81877 0.0
C632 C 0.2812 0.12927 0.8818 0.0
C633 C 0.27977 0.13991 0.8879 0.0
C634 C 0.27665 0.14806 0.87955 0.0
C635 C 0.27456 0.14535 0.86469 0.0
C636 C 0.2706 0.15279 0.85608 0.0
C637 C 0.26896 0.15034 0.84142 0.0
C638 C 0.27148 0.14055 0.83475 0.0
C639 C 0.27038 0.13839 0.81979 0.0
C640 C 0.27303 0.12863 0.81353 0.0
C641 C 0.27667 0.1208 0.82182 0.0
C642 C 0.27765 0.12268 0.83682 0.0
C643 C 0.28111 0.11488 0.84553 0.0
C644 C 0.28201 0.11681 0.86028 0.0
C645 C 0.27993 0.12692 0.86686 0.0
C646 C 0.27652 0.13496 0.85829 0.0
C647 C 0.27518 0.1327 0.84328 0.0
C648 C 0.24463 0.18396 0.79642 0.0
C649 C 0.25742 0.18337 0.79366 0.0
O650 O 0.29211 0.09982 0.9226 0.0
O651 O 0.28949 0.084 0.79335 0.0
O652 O 0.25381 0.17007 0.78915 0.0
O653 O 0.27814 0.19406 0.90744 0.0
H654 H 0.27384 0.08378 0.92817 0.0
H655 H 0.27691 0.10569 0.93958 0.0
H656 H 0.29177 0.10834 0.94928 0.0
H657 H 0.27536 0.09383 0.95283 0.0
H658 H 0.26731 0.09476 0.91428 0.0
H659 H 0.30983 0.11897 0.90768 0.0
H660 H 0.25704 0.11457 0.89905 0.0
H661 H 0.25125 0.09647 0.90028 0.0
H662 H 0.25653 0.1047 0.88352 0.0
H663 H 0.31888 0.13703 0.89175 0.0
H664 H 0.30904 0.14535 0.88975 0.0
H665 H 0.30813 0.13346 0.87612 0.0
H666 H 0.26574 0.18563 0.92421 0.0
H667 H 0.25148 0.19594 0.91816 0.0
H668 H 0.25217 0.18616 0.90309 0.0
H669 H 0.26219 0.20471 0.9036 0.0
H670 H 0.29679 0.1948 0.89248 0.0
H671 H 0.25721 0.16788 0.90747 0.0
H672 H 0.29777 0.17397 0.86646 0.0
H673 H 0.3036 0.1685 0.88132 0.0
H674 H 0.30893 0.1865 0.87988 0.0
H675 H 0.24455 0.14442 0.90027 0.0
H676 H 0.25551 0.13735 0.90162 0.0
H677 H 0.24961 0.13901 0.88445 0.0
H678 H 0.2632 0.18621 0.80404 0.0
H679 H 0.27903 0.17866 0.79796 0.0
H680 H 0.23877 0.14417 0.79369 0.0
H681 H 0.29161 0.16872 0.82389 0.0
H682 H 0.29718 0.17641 0.807 0.0
H683 H 0.29445 0.15939 0.80994 0.0
H684 H 0.23236 0.12286 0.80373 0.0
H685 H 0.24204 0.12422 0.81965 0.0
H686 H 0.24552 0.1186 0.8031 0.0
H687 H 0.27153 0.06583 0.79013 0.0
H688 H 0.27871 0.05244 0.80523 0.0
H689 H 0.28042 0.06718 0.81511 0.0
H690 H 0.2952 0.06763 0.8083 0.0
H691 H 0.3052 0.11011 0.79691 0.0
H692 H 0.26565 0.07677 0.80537 0.0
H693 H 0.30488 0.13463 0.82117 0.0
H694 H 0.30002 0.13699 0.80376 0.0
H695 H 0.31315 0.1328 0.80582 0.0
H696 H 0.24917 0.08029 0.81559 0.0
H697 H 0.25161 0.09743 0.81497 0.0
H698 H 0.25687 0.09236 0.83056 0.0
H699 H 0.28122 0.14195 0.89932 0.0
H700 H 0.2687 0.16058 0.8606 0.0
H701 H 0.26585 0.15637 0.83536 0.0
H702 H 0.2723 0.12714 0.80204 0.0
H703 H 0.28308 0.10713 0.84105 0.0
H704 H 0.28459 0.11043 0.86645 0.0
H705 H 0.23794 0.18075 0.78671 0.0
H706 H 0.24729 0.19458 0.79992 0.0
H707 H 0.23898 0.1769 0.80497 0.0
C708 C 0.81955 0.0634 0.94907 0.0
C709 C 0.81668 0.07321 0.94082 0.0
C710 C 0.82303 0.08037 0.91688 0.0
C711 C 0.82077 0.09145 0.91608 0.0
C712 C 0.82795 0.10204 0.90671 0.0
C713 C 0.8379 0.10169 0.8983 0.0
C714 C 0.84009 0.09038 0.89905 0.0
C715 C 0.83232 0.07967 0.90807 0.0
C716 C 0.82507 0.1137 0.90602 0.0
C717 C 0.8509 0.08978 0.89073 0.0
C718 C 0.92154 0.20191 0.93604 0.0
C719 C 0.91371 0.18741 0.93029 0.0
C720 C 0.89331 0.17285 0.91541 0.0
C721 C 0.89639 0.16248 0.91226 0.0
C722 C 0.88763 0.1509 0.90352 0.0
C723 C 0.87552 0.14964 0.89794 0.0
C724 C 0.87243 0.16008 0.90106 0.0
C725 C 0.88141 0.17159 0.90972 0.0
C726 C 0.89122 0.13995 0.90034 0.0
C727 C 0.85954 0.159 0.8954 0.0
C728 C 0.89384 0.16551 0.80395 0.0
C729 C 0.89509 0.15417 0.80764 0.0
C730 C 0.88551 0.14389 0.81602 0.0
C731 C 0.87433 0.14482 0.82063 0.0
C732 C 0.87303 0.15621 0.81692 0.0
C733 C 0.8829 0.16648 0.80874 0.0
C734 C 0.8873 0.13196 0.81989 0.0
C735 C 0.86118 0.15747 0.82152 0.0
C736 C 0.78689 0.03887 0.80532 0.0
C737 C 0.79219 0.05388 0.80171 0.0
C738 C 0.81518 0.07295 0.80718 0.0
C739 C 0.82808 0.0754 0.81068 0.0
C740 C 0.83772 0.08775 0.81774 0.0
C741 C 0.83442 0.098 0.8211 0.0
C742 C 0.82157 0.09585 0.81699 0.0
C743 C 0.81205 0.08333 0.81005 0.0
C744 C 0.85136 0.08973 0.82184 0.0
C745 C 0.81785 0.10672 0.82015 0.0
C746 C 0.84669 0.1136 0.88961 0.0
C747 C 0.8566 0.12564 0.8968 0.0
C748 C 0.86574 0.13707 0.88943 0.0
C749 C 0.86531 0.13642 0.8744 0.0
C750 C 0.87478 0.14748 0.86664 0.0
C751 C 0.87438 0.14665 0.85184 0.0
C752 C 0.86438 0.1348 0.84423 0.0
C753 C 0.86396 0.13379 0.82919 0.0
C754 C 0.85391 0.12183 0.82197 0.0
C755 C 0.84426 0.11073 0.82937 0.0
C756 C 0.84451 0.11154 0.84441 0.0
C757 C 0.83495 0.10055 0.85219 0.0
C758 C 0.83549 0.10129 0.86699 0.0
C759 C 0.8457 0.11298 0.87458 0.0
C760 C 0.85519 0.12435 0.86695 0.0
C761 C 0.85464 0.1236 0.85185 0.0
C762 C 0.91911 0.18619 0.77768 0.0
C763 C 0.91285 0.17516 0.78812 0.0
O764 O 0.81666 0.07046 0.92638 0.0
O765 O 0.80611 0.06049 0.80101 0.0
O766 O 0.90286 0.17562 0.79577 0.0
O767 O 0.90146 0.1842 0.92385 0.0
H768 H 0.82507 0.08386 0.94376 0.0
H769 H 0.82956 0.06493 0.94629 0.0
H770 H 0.81177 0.05249 0.94641 0.0
H771 H 0.81971 0.06548 0.9607 0.0
H772 H 0.81338 0.09181 0.9228 0.0
H773 H 0.83393 0.071 0.90881 0.0
H774 H 0.83331 0.12297 0.9118 0.0
H775 H 0.81539 0.1111 0.91093 0.0
H776 H 0.82471 0.11638 0.89482 0.0
H777 H 0.85298 0.08175 0.89453 0.0
H778 H 0.86045 0.09988 0.89147 0.0
H779 H 0.84761 0.08733 0.87935 0.0
H780 H 0.91283 0.17944 0.93769 0.0
H781 H 0.9386 0.21083 0.92363 0.0
H782 H 0.92218 0.20107 0.94789 0.0
H783 H 0.91428 0.20587 0.93661 0.0
H784 H 0.90557 0.16331 0.91661 0.0
H785 H 0.87914 0.17965 0.9122 0.0
H786 H 0.88375 0.13018 0.90509 0.0
H787 H 0.90145 0.14291 0.90462 0.0
H788 H 0.89077 0.13792 0.88867 0.0
H789 H 0.8585 0.16789 0.89904 0.0
H790 H 0.85073 0.14935 0.89889 0.0
H791 H 0.85928 0.15847 0.8836 0.0
H792 H 0.92015 0.17387 0.79492 0.0
H793 H 0.90353 0.15329 0.80406 0.0
H794 H 0.88201 0.17526 0.80585 0.0
H795 H 0.88627 0.13043 0.8315 0.0
H796 H 0.89726 0.13351 0.81685 0.0
H797 H 0.87928 0.12239 0.81433 0.0
H798 H 0.86125 0.16656 0.8171 0.0
H799 H 0.86135 0.15841 0.8333 0.0
H800 H 0.8516 0.14802 0.81806 0.0
H801 H 0.78923 0.05855 0.81049 0.0
H802 H 0.77574 0.03333 0.8061 0.0
H803 H 0.79137 0.03848 0.81572 0.0
H804 H 0.7896 0.03352 0.79706 0.0
H805 H 0.83044 0.06741 0.80821 0.0
H806 H 0.80224 0.08172 0.80685 0.0
H807 H 0.85324 0.09171 0.83351 0.0
H808 H 0.85934 0.09887 0.81663 0.0
H809 H 0.85225 0.08063 0.81872 0.0
H810 H 0.8077 0.10377 0.81565 0.0
H811 H 0.82543 0.11664 0.81575 0.0
H812 H 0.81798 0.10844 0.83184 0.0
H813 H 0.85725 0.12612 0.90834 0.0
H814 H 0.8827 0.15684 0.87194 0.0
H815 H 0.88202 0.15542 0.84644 0.0
H816 H 0.85376 0.12105 0.81045 0.0
H817 H 0.82695 0.09121 0.84694 0.0
H818 H 0.82787 0.09253 0.87241 0.0
H819 H 0.92999 0.19267 0.78145 0.0
H820 H 0.91642 0.19423 0.7808 0.0
H821 H 0.91334 0.17535 0.75792 0.0
C822 C 0.81848 0.73512 0.94455 0.0
C823 C 0.8079 0.72754 0.93241 0.0
C824 C 0.82057 0.72087 0.91642 0.0
C825 C 0.82936 0.73416 0.91171 0.0
C826 C 0.84024 0.73668 0.90325 0.0
C827 C 0.84231 0.72569 0.89928 0.0
C828 C 0.83328 0.71224 0.90362 0.0
C829 C 0.8225 0.71001 0.91213 0.0
C830 C 0.84969 0.75117 0.89876 0.0
C831 C 0.83514 0.70028 0.89943 0.0
C832 C 0.9262 0.75695 0.95462 0.0
C833 C 0.91887 0.7442 0.94456 0.0
C834 C 0.91157 0.745 0.92061 0.0
C835 C 0.90187 0.73124 0.9172 0.0
C836 C 0.89124 0.72795 0.90736 0.0
C837 C 0.89015 0.7387 0.90114 0.0
C838 C 0.90007 0.75262 0.90453 0.0
C839 C 0.91087 0.75557 0.91398 0.0
C840 C 0.88103 0.713 0.90388 0.0
C841 C 0.89906 0.76442 0.89859 0.0
C842 C 0.91833 0.75999 0.81304 0.0
C843 C 0.91096 0.74568 0.81471 0.0
C844 C 0.89811 0.73941 0.82047 0.0
C845 C 0.89266 0.74767 0.82487 0.0
C846 C 0.89985 0.762 0.82269 0.0
C847 C 0.91254 0.76794 0.81661 0.0
C848 C 0.89048 0.72403 0.82213 0.0
C849 C 0.89429 0.77111 0.82712 0.0
C850 C 0.79317 0.72458 0.81448 0.0
C851 C 0.80047 0.72711 0.80045 0.0
C852 C 0.81974 0.72428 0.80733 0.0
C853 C 0.82425 0.71485 0.80734 0.0
C854 C 0.83604 0.71773 0.81499 0.0
C855 C 0.84363 0.73051 0.82264 0.0
C856 C 0.83941 0.74034 0.82229 0.0
C857 C 0.82743 0.73709 0.81476 0.0
C858 C 0.84026 0.70702 0.81511 0.0
C859 C 0.84746 0.75422 0.83003 0.0
C860 C 0.85431 0.72848 0.89112 0.0
C861 C 0.86605 0.73149 0.89882 0.0
C862 C 0.87809 0.73535 0.89203 0.0
C863 C 0.87852 0.73642 0.87708 0.0
C864 C 0.89051 0.74059 0.86989 0.0
C865 C 0.89098 0.74235 0.85529 0.0
C866 C 0.87937 0.73953 0.84723 0.0
C867 C 0.87979 0.74151 0.83243 0.0
C868 C 0.86799 0.73834 0.82471 0.0
C869 C 0.85572 0.7334 0.83141 0.0
C870 C 0.85516 0.73163 0.84626 0.0
C871 C 0.84303 0.72692 0.85339 0.0
C872 C 0.84271 0.72581 0.86807 0.0
C873 C 0.85443 0.72913 0.87616 0.0
C874 C 0.86665 0.73335 0.86914 0.0
C875 C 0.86704 0.73475 0.85418 0.0
C876 C 0.9544 0.77471 0.81235 0.0
C877 C 0.94031 0.76213 0.80963 0.0
O878 O 0.81031 0.71809 0.92525 0.0
O879 O 0.80793 0.72053 0.80011 0.0
O880 O 0.93105 0.76649 0.80815 0.0
O881 O 0.92142 0.74826 0.93065 0.0
H882 H 0.80828 0.73515 0.92486 0.0
H883 H 0.82874 0.74114 0.94034 0.0
H884 H 0.81847 0.72765 0.95204 0.0
H885 H 0.81632 0.74242 0.95047 0.0
H886 H 0.82796 0.74268 0.9147 0.0
H887 H 0.81563 0.69977 0.9157 0.0
H888 H 0.86013 0.7546 0.90265 0.0
H889 H 0.8468 0.75864 0.90288 0.0
H890 H 0.84973 0.75135 0.88697 0.0
H891 H 0.82678 0.6903 0.90292 0.0
H892 H 0.84478 0.70198 0.90425 0.0
H893 H 0.8358 0.69964 0.8877 0.0
H894 H 0.90788 0.73945 0.94649 0.0
H895 H 0.92419 0.75397 0.96586 0.0
H896 H 0.92253 0.76418 0.95244 0.0
H897 H 0.93726 0.76237 0.95313 0.0
H898 H 0.9026 0.72312 0.92231 0.0
H899 H 0.91847 0.76616 0.91675 0.0
H900 H 0.87881 0.71119 0.89223 0.0
H901 H 0.87147 0.71028 0.90912 0.0
H902 H 0.88455 0.70602 0.9076 0.0
H903 H 0.90625 0.77444 0.90411 0.0
H904 H 0.88868 0.76262 0.89951 0.0
H905 H 0.90136 0.7652 0.88715 0.0
H906 H 0.93815 0.75586 0.81924 0.0
H907 H 0.9152 0.73938 0.81156 0.0
H908 H 0.91823 0.77893 0.81507 0.0
H909 H 0.89002 0.72184 0.8336 0.0
H910 H 0.89531 0.71887 0.81661 0.0
H911 H 0.87995 0.71949 0.81787 0.0
H912 H 0.90142 0.78216 0.82527 0.0
H913 H 0.89199 0.76999 0.83858 0.0
H914 H 0.88471 0.76784 0.82103 0.0
H915 H 0.80726 0.73837 0.79934 0.0
H916 H 0.78708 0.72974 0.8147 0.0
H917 H 0.80056 0.72885 0.82362 0.0
H918 H 0.7864 0.71336 0.81579 0.0
H919 H 0.8183 0.70504 0.80153 0.0
H920 H 0.8242 0.74459 0.81482 0.0
H921 H 0.84121 0.7045 0.82624 0.0
H922 H 0.85032 0.71122 0.8104 0.0
H923 H 0.83298 0.69738 0.80905 0.0
H924 H 0.84374 0.76131 0.82735 0.0
H925 H 0.85826 0.75911 0.82742 0.0
H926 H 0.84681 0.75284 0.84168 0.0
H927 H 0.86587 0.73108 0.91033 0.0
H928 H 0.89973 0.74278 0.87551 0.0
H929 H 0.90059 0.74592 0.85042 0.0
H930 H 0.8684 0.73992 0.81337 0.0
H931 H 0.83368 0.72422 0.84772 0.0
H932 H 0.83314 0.72233 0.87302 0.0
H933 H 0.96201 0.77144 0.81349 0.0
H934 H 0.95463 0.78032 0.82235 0.0
H935 H 0.95718 0.7819 0.80351 0.0
C936 C 0.86114 0.59359 0.3927 0.0
C937 C 0.866 0.60533 0.40397 0.0
C938 C 0.85697 0.6031 0.42751 0.0
C939 C 0.85993 0.61669 0.43016 0.0
C940 C 0.85287 0.61972 0.44028 0.0
C941 C 0.84248 0.60888 0.44769 0.0
C942 C 0.83965 0.59517 0.44516 0.0
C943 C 0.84718 0.59253 0.43532 0.0
C944 C 0.85638 0.63448 0.44291 0.0
C945 C 0.82843 0.58324 0.45252 0.0
C946 C 0.77174 0.60976 0.40667 0.0
C947 C 0.76588 0.61295 0.41979 0.0
C948 C 0.78501 0.62035 0.43688 0.0
C949 C 0.78288 0.60713 0.43936 0.0
C950 C 0.7925 0.60547 0.44707 0.0
C951 C 0.80452 0.61724 0.45236 0.0
C952 C 0.80658 0.63054 0.45015 0.0
C953 C 0.79672 0.63191 0.44254 0.0
C954 C 0.7899 0.59112 0.44942 0.0
C955 C 0.8193 0.64331 0.45561 0.0
C956 C 0.78844 0.6143 0.54509 0.0
C957 C 0.78661 0.60156 0.54002 0.0
C958 C 0.79642 0.60095 0.53189 0.0
C959 C 0.80838 0.61329 0.52894 0.0
C960 C 0.81047 0.62607 0.53444 0.0
C961 C 0.80043 0.62639 0.54242 0.0
C962 C 0.79391 0.58713 0.52624 0.0
C963 C 0.82318 0.63939 0.5316 0.0
C964 C 0.89347 0.59321 0.53841 0.0
C965 C 0.88831 0.60309 0.54172 0.0
C966 C 0.86571 0.59941 0.53643 0.0
C967 C 0.85254 0.58905 0.53271 0.0
C968 C 0.84324 0.59216 0.52659 0.0
C969 C 0.84718 0.60607 0.52439 0.0
C970 C 0.86035 0.61669 0.52866 0.0
C971 C 0.86951 0.61326 0.53464 0.0
C972 C 0.82926 0.58057 0.5223 0.0
C973 C 0.86475 0.63163 0.52674 0.0
C974 C 0.83406 0.61173 0.45744 0.0
C975 C 0.82408 0.6138 0.45134 0.0
C976 C 0.81513 0.61559 0.45974 0.0
C977 C 0.81605 0.61522 0.4747 0.0
C978 C 0.80695 0.61656 0.48344 0.0
C979 C 0.80776 0.61588 0.49813 0.0
C980 C 0.81771 0.61386 0.50466 0.0
C981 C 0.8184 0.61282 0.51955 0.0
C982 C 0.82831 0.61066 0.52569 0.0
C983 C 0.83759 0.60941 0.51731 0.0
C984 C 0.83711 0.61049 0.50239 0.0
C985 C 0.84629 0.60928 0.49364 0.0
C986 C 0.84548 0.60995 0.47894 0.0
C987 C 0.83537 0.61168 0.47241 0.0
C988 C 0.82622 0.61327 0.48105 0.0
C989 C 0.82708 0.61265 0.49605 0.0
C990 C 0.75682 0.60075 0.54165 0.0
C991 C 0.76596 0.60511 0.55517 0.0
O992 O 0.86321 0.59984 0.41732 0.0
O993 O 0.87434 0.59559 0.54174 0.0
O994 O 0.77892 0.61547 0.55238 0.0
O995 O 0.77621 0.62246 0.42897 0.0
H996 H 0.86017 0.6106 0.40179 0.0
H997 H 0.85007 0.58659 0.39332 0.0
H998 H 0.86618 0.58749 0.39437 0.0
H999 H 0.86328 0.59775 0.38189 0.0
H1000 H 0.86775 0.62492 0.42432 0.0
H1001 H 0.84507 0.58209 0.43323 0.0
H1002 H 0.84815 0.63584 0.4384 0.0
H1003 H 0.86594 0.64186 0.43794 0.0
H1004 H 0.85732 0.63704 0.45451 0.0
H1005 H 0.82625 0.57312 0.44782 0.0
H1006 H 0.81904 0.58378 0.45189 0.0
H1007 H 0.83131 0.58377 0.46393 0.0
H1008 H 0.75952 0.6033 0.4254 0.0
H1009 H 0.76349 0.60229 0.39922 0.0
H1010 H 0.77788 0.6051 0.40978 0.0
H1011 H 0.77826 0.61934 0.40104 0.0
H1012 H 0.77382 0.59803 0.43527 0.0
H1013 H 0.79826 0.64206 0.44067 0.0
H1014 H 0.79741 0.58953 0.44371 0.0
H1015 H 0.77962 0.58301 0.4456 0.0
H1016 H 0.79114 0.58987 0.46091 0.0
H1017 H 0.81951 0.65293 0.45275 0.0
H1018 H 0.82823 0.64338 0.4512 0.0
H1019 H 0.82019 0.64322 0.46737 0.0
H1020 H 0.76627 0.59604 0.55915 0.0
H1021 H 0.77751 0.59205 0.54217 0.0
H1022 H 0.80182 0.63616 0.54646 0.0
H1023 H 0.79435 0.58709 0.51446 0.0
H1024 H 0.78397 0.5785 0.52922 0.0
H1025 H 0.80194 0.58532 0.53044 0.0
H1026 H 0.82361 0.6484 0.53728 0.0
H1027 H 0.82374 0.6411 0.52001 0.0
H1028 H 0.83215 0.63874 0.53493 0.0
H1029 H 0.89173 0.61056 0.53306 0.0
H1030 H 0.90465 0.59896 0.53808 0.0
H1031 H 0.88929 0.58787 0.52787 0.0
H1032 H 0.8903 0.58532 0.54659 0.0
H1033 H 0.84967 0.57842 0.53434 0.0
H1034 H 0.87955 0.6214 0.53794 0.0
H1035 H 0.82707 0.5811 0.51087 0.0
H1036 H 0.82172 0.5817 0.5285 0.0
H1037 H 0.82797 0.57027 0.52413 0.0
H1038 H 0.87508 0.63872 0.53128 0.0
H1039 H 0.85759 0.63415 0.53191 0.0
H1040 H 0.86454 0.63347 0.51524 0.0
H1041 H 0.82308 0.61374 0.43985 0.0
H1042 H 0.79904 0.61805 0.47902 0.0
H1043 H 0.80042 0.61689 0.50431 0.0
H1044 H 0.82862 0.60965 0.5371 0.0
H1045 H 0.85417 0.60775 0.49805 0.0
H1046 H 0.85282 0.60897 0.47274 0.0
H1047 H 0.74636 0.59274 0.54406 0.0
H1048 H 0.76044 0.59635 0.53334 0.0
H1049 H 0.75665 0.60973 0.53728 0.0
C1050 C 0.40506 0.24939 0.39236 0.0
C1051 C 0.39568 0.24762 0.40448 0.0
C1052 C 0.40051 0.24541 0.42925 0.0
C1053 C 0.38724 0.23652 0.43327 0.0
C1054 C 0.38469 0.22837 0.44513 0.0
C1055 C 0.39562 0.2291 0.45307 0.0
C1056 C 0.40902 0.23861 0.44948 0.0
C1057 C 0.41128 0.24681 0.4377 0.0
C1058 C 0.37028 0.21862 0.44887 0.0
C1059 C 0.42093 0.23964 0.45767 0.0
C1060 C 0.37959 0.12833 0.42817 0.0
C1061 C 0.38581 0.14106 0.43757 0.0
C1062 C 0.37968 0.15692 0.44888 0.0
C1063 C 0.39298 0.16715 0.45286 0.0
C1064 C 0.39569 0.17962 0.45962 0.0
C1065 C 0.38491 0.18192 0.46243 0.0
C1066 C 0.37152 0.17157 0.45861 0.0
C1067 C 0.36909 0.15918 0.45192 0.0
C1068 C 0.41009 0.19045 0.46358 0.0
C1069 C 0.3598 0.17371 0.4614 0.0
C1070 C 0.37736 0.1755 0.5588 0.0
C1071 C 0.39072 0.18384 0.55493 0.0
C1072 C 0.39415 0.19388 0.54476 0.0
C1073 C 0.38391 0.19556 0.53826 0.0
C1074 C 0.37036 0.18713 0.54204 0.0
C1075 C 0.36721 0.1772 0.55227 0.0
C1076 C 0.4087 0.20272 0.54096 0.0
C1077 C 0.3592 0.18866 0.53528 0.0
C1078 C 0.40777 0.3036 0.54071 0.0
C1079 C 0.39826 0.28882 0.54499 0.0
C1080 C 0.40207 0.26938 0.54079 0.0
C1081 C 0.41235 0.26642 0.53865 0.0
C1082 C 0.40954 0.25358 0.53284 0.0
C1083 C 0.39604 0.24339 0.52921 0.0
C1084 C 0.38551 0.24617 0.53168 0.0
C1085 C 0.38862 0.25912 0.53753 0.0
C1086 C 0.42099 0.25088 0.53057 0.0
C1087 C 0.37099 0.23542 0.52819 0.0
C1088 C 0.39302 0.21884 0.46398 0.0
C1089 C 0.39043 0.20584 0.45914 0.0
C1090 C 0.38773 0.19546 0.46856 0.0
C1091 C 0.38765 0.19807 0.48333 0.0
C1092 C 0.38498 0.18786 0.49312 0.0
C1093 C 0.38485 0.1905 0.50763 0.0
C1094 C 0.38747 0.20348 0.51291 0.0
C1095 C 0.38734 0.20625 0.52764 0.0
C1096 C 0.39013 0.2193 0.53254 0.0
C1097 C 0.39294 0.22973 0.52312 0.0
C1098 C 0.39293 0.22711 0.50832 0.0
C1099 C 0.39549 0.23728 0.4985 0.0
C1100 C 0.39545 0.23459 0.48396 0.0
C1101 C 0.39297 0.22167 0.4787 0.0
C1102 C 0.39031 0.21123 0.48841 0.0
C1103 C 0.39025 0.21395 0.50323 0.0
C1104 C 0.35859 0.16444 0.58562 0.0
C1105 C 0.36242 0.15701 0.57436 0.0
O1106 O 0.40323 0.25251 0.41715 0.0
O1107 O 0.40557 0.28214 0.54619 0.0
O1108 O 0.37481 0.1661 0.56889 0.0
O1109 O 0.37665 0.14484 0.442 0.0
H1110 H 0.38847 0.23631 0.40473 0.0
H1111 H 0.40988 0.24311 0.3942 0.0
H1112 H 0.41317 0.26033 0.39172 0.0
H1113 H 0.39925 0.24584 0.38204 0.0
H1114 H 0.37888 0.23579 0.42705 0.0
H1115 H 0.42148 0.25387 0.43462 0.0
H1116 H 0.36767 0.20787 0.44612 0.0
H1117 H 0.36305 0.22072 0.44307 0.0
H1118 H 0.36907 0.21938 0.46048 0.0
H1119 H 0.43072 0.24757 0.45352 0.0
H1120 H 0.42043 0.22952 0.4571 0.0
H1121 H 0.42057 0.24227 0.46905 0.0
H1122 H 0.39251 0.1413 0.44644 0.0
H1123 H 0.38864 0.13525 0.40871 0.0
H1124 H 0.36835 0.12313 0.4294 0.0
H1125 H 0.38076 0.12056 0.43438 0.0
H1126 H 0.40129 0.16553 0.45063 0.0
H1127 H 0.35887 0.15124 0.44884 0.0
H1128 H 0.41099 0.19352 0.47504 0.0
H1129 H 0.41301 0.19978 0.45745 0.0
H1130 H 0.41727 0.1868 0.46142 0.0
H1131 H 0.34996 0.16457 0.45799 0.0
H1132 H 0.36106 0.18275 0.45563 0.0
H1133 H 0.35962 0.17599 0.47292 0.0
H1134 H 0.35452 0.15269 0.56567 0.0
H1135 H 0.3985 0.18249 0.55999 0.0
H1136 H 0.35681 0.17094 0.55508 0.0
H1137 H 0.40971 0.20139 0.5294 0.0
H1138 H 0.41549 0.20012 0.54696 0.0
H1139 H 0.41206 0.21375 0.54322 0.0
H1140 H 0.34911 0.18114 0.53916 0.0
H1141 H 0.35905 0.1872 0.52355 0.0
H1142 H 0.36111 0.19924 0.53761 0.0
H1143 H 0.39036 0.28388 0.53631 0.0
H1144 H 0.40217 0.3092 0.53948 0.0
H1145 H 0.41224 0.30347 0.53037 0.0
H1146 H 0.41609 0.30923 0.54883 0.0
H1147 H 0.42267 0.27433 0.54139 0.0
H1148 H 0.38051 0.26109 0.53968 0.0
H1149 H 0.42129 0.24842 0.51912 0.0
H1150 H 0.41929 0.2418 0.53655 0.0
H1151 H 0.43093 0.25985 0.53405 0.0
H1152 H 0.36399 0.23929 0.53036 0.0
H1153 H 0.36809 0.22624 0.53457 0.0
H1154 H 0.36978 0.23203 0.5168 0.0
H1155 H 0.39046 0.20374 0.44782 0.0
H1156 H 0.38293 0.1777 0.48966 0.0
H1157 H 0.38271 0.18224 0.51467 0.0
H1158 H 0.39006 0.22136 0.54387 0.0
H1159 H 0.39751 0.24744 0.50196 0.0
H1160 H 0.39744 0.24278 0.47688 0.0
H1161 H 0.36646 0.16915 0.59433 0.0
H1162 H 0.3488 0.15706 0.59019 0.0
H1163 H 0.35753 0.17275 0.58082 0.0
C1164 C 0.8534 0.24253 0.40151 0.0
C1165 C 0.86309 0.24976 0.41439 0.0
C1166 C 0.85178 0.23266 0.43261 0.0
C1167 C 0.84135 0.23548 0.435 0.0
C1168 C 0.83077 0.2273 0.44385 0.0
C1169 C 0.83056 0.21602 0.45037 0.0
C1170 C 0.84106 0.21319 0.44808 0.0
C1171 C 0.85161 0.22165 0.43932 0.0
C1172 C 0.81974 0.23063 0.44616 0.0
C1173 C 0.84107 0.20117 0.45478 0.0
C1174 C 0.7319 0.13756 0.43159 0.0
C1175 C 0.7433 0.13787 0.42309 0.0
C1176 C 0.76377 0.15163 0.43858 0.0
C1177 C 0.7734 0.1507 0.44695 0.0
C1178 C 0.78406 0.16237 0.45398 0.0
C1179 C 0.78498 0.17533 0.45276 0.0
C1180 C 0.77528 0.1764 0.44429 0.0
C1181 C 0.76478 0.16453 0.43719 0.0
C1182 C 0.79436 0.16083 0.46268 0.0
C1183 C 0.77599 0.19006 0.4428 0.0
C1184 C 0.76064 0.17309 0.54176 0.0
C1185 C 0.76879 0.1675 0.53837 0.0
C1186 C 0.78114 0.17545 0.53186 0.0
C1187 C 0.78525 0.18917 0.52844 0.0
C1188 C 0.77735 0.19501 0.53249 0.0
C1189 C 0.7652 0.18692 0.5393 0.0
C1190 C 0.78961 0.16907 0.52828 0.0
C1191 C 0.7815 0.20965 0.52919 0.0
C1192 C 0.88498 0.2718 0.53769 0.0
C1193 C 0.87755 0.26473 0.55102 0.0
C1194 C 0.85857 0.24236 0.54183 0.0
C1195 C 0.85411 0.22831 0.54015 0.0
C1196 C 0.84186 0.2192 0.53293 0.0
C1197 C 0.83376 0.22428 0.52739 0.0
C1198 C 0.83804 0.23844 0.52928 0.0
C1199 C 0.85048 0.24739 0.53636 0.0
C1200 C 0.83763 0.20416 0.53107 0.0
C1201 C 0.82954 0.24414 0.52367 0.0
C1202 C 0.81916 0.20706 0.45934 0.0
C1203 C 0.80758 0.1962 0.45259 0.0
C1204 C 0.79624 0.18769 0.46028 0.0
C1205 C 0.79623 0.19035 0.47504 0.0
C1206 C 0.78467 0.18261 0.48292 0.0
C1207 C 0.7849 0.18502 0.49753 0.0
C1208 C 0.7968 0.195 0.50488 0.0
C1209 C 0.79731 0.19711 0.51983 0.0
C1210 C 0.80941 0.20686 0.52682 0.0
C1211 C 0.82103 0.21479 0.51924 0.0
C1212 C 0.8206 0.21316 0.50425 0.0
C1213 C 0.832 0.22125 0.49625 0.0
C1214 C 0.83147 0.2195 0.48152 0.0
C1215 C 0.81968 0.20926 0.47426 0.0
C1216 C 0.80812 0.20094 0.48211 0.0
C1217 C 0.80849 0.20307 0.49709 0.0
C1218 C 0.72527 0.14962 0.54073 0.0
C1219 C 0.73932 0.15163 0.54355 0.0
O1220 O 0.8621 0.24013 0.42391 0.0
O1221 O 0.87071 0.25053 0.54871 0.0
O1222 O 0.74826 0.16539 0.5472 0.0
O1223 O 0.75375 0.13976 0.43221 0.0
H1224 H 0.86063 0.25712 0.41973 0.0
H1225 H 0.8428 0.23681 0.40487 0.0
H1226 H 0.85573 0.2351 0.39609 0.0
H1227 H 0.85424 0.25021 0.39381 0.0
H1228 H 0.84131 0.244 0.43 0.0
H1229 H 0.8597 0.21956 0.43746 0.0
H1230 H 0.80997 0.22193 0.44189 0.0
H1231 H 0.8217 0.24016 0.4409 0.0
H1232 H 0.81872 0.23194 0.45772 0.0
H1233 H 0.84977 0.20009 0.45158 0.0
H1234 H 0.83158 0.19147 0.4517 0.0
H1235 H 0.84146 0.20251 0.46654 0.0
H1236 H 0.74707 0.14637 0.41552 0.0
H1237 H 0.7235 0.136 0.42429 0.0
H1238 H 0.73558 0.14744 0.43775 0.0
H1239 H 0.728 0.12908 0.43916 0.0
H1240 H 0.77253 0.14071 0.44792 0.0
H1241 H 0.75742 0.16543 0.43071 0.0
H1242 H 0.79344 0.16277 0.47411 0.0
H1243 H 0.80472 0.16854 0.45967 0.0
H1244 H 0.79301 0.15036 0.46128 0.0
H1245 H 0.76709 0.18901 0.43678 0.0
H1246 H 0.78524 0.19715 0.43719 0.0
H1247 H 0.77668 0.19487 0.45349 0.0
H1248 H 0.74217 0.14864 0.53337 0.0
H1249 H 0.76548 0.15691 0.54072 0.0
H1250 H 0.75892 0.19118 0.54219 0.0
H1251 H 0.789 0.16697 0.51662 0.0
H1252 H 0.78616 0.15922 0.53364 0.0
H1253 H 0.80036 0.1763 0.53141 0.0
H1254 H 0.77399 0.2125 0.53261 0.0
H1255 H 0.7828 0.21105 0.51758 0.0
H1256 H 0.79136 0.21685 0.53464 0.0
H1257 H 0.87032 0.26819 0.55371 0.0
H1258 H 0.89055 0.28318 0.53954 0.0
H1259 H 0.87768 0.26915 0.5286 0.0
H1260 H 0.89225 0.26843 0.53479 0.0
H1261 H 0.8604 0.22452 0.54441 0.0
H1262 H 0.85375 0.25823 0.53746 0.0
H1263 H 0.83587 0.20098 0.51959 0.0
H1264 H 0.82798 0.19779 0.5364 0.0
H1265 H 0.84531 0.20194 0.53556 0.0
H1266 H 0.8337 0.25513 0.52703 0.0
H1267 H 0.81909 0.23803 0.52742 0.0
H1268 H 0.82895 0.24324 0.51187 0.0
H1269 H 0.80746 0.19423 0.44122 0.0
H1270 H 0.7753 0.17465 0.47786 0.0
H1271 H 0.77566 0.17879 0.503 0.0
H1272 H 0.8098 0.20822 0.53831 0.0
H1273 H 0.84143 0.22911 0.50128 0.0
H1274 H 0.84052 0.2261 0.47591 0.0
H1275 H 0.72179 0.15284 0.55025 0.0
H1276 H 0.71791 0.13863 0.53783 0.0
H1277 H 0.72555 0.15595 0.53176 0.0
C1278 C 0.00915 0.46861 0.2844 0.0
C1279 C 0.00259 0.4558 0.27434 0.0
C1280 C 0.00446 0.46467 0.25053 0.0
C1281 C 0.99088 0.46027 0.2472 0.0
C1282 C 0.98741 0.46648 0.2365 0.0
C1283 C 0.99772 0.47723 0.22897 0.0
C1284 C 0.01137 0.48131 0.23193 0.0
C1285 C 0.01455 0.47483 0.24258 0.0
C1286 C 0.97274 0.46169 0.23335 0.0
C1287 C 0.02261 0.49276 0.2241 0.0
C1288 C 0.00953 0.56876 0.26488 0.0
C1289 C 0.00949 0.55806 0.25523 0.0
C1290 C 0.99564 0.54002 0.23767 0.0
C1291 C 0.00584 0.54061 0.22922 0.0
C1292 C 0.00382 0.52899 0.22121 0.0
C1293 C 0.9913 0.51655 0.22158 0.0
C1294 C 0.9807 0.51618 0.22934 0.0
C1295 C 0.98298 0.52801 0.23723 0.0
C1296 C 0.01529 0.52986 0.21282 0.0
C1297 C 0.96717 0.50314 0.22976 0.0
C1298 C 0.96783 0.5122 0.13086 0.0
C1299 C 0.98157 0.51819 0.13454 0.0
C1300 C 0.98636 0.51086 0.1421 0.0
C1301 C 0.97711 0.49737 0.14629 0.0
C1302 C 0.96333 0.49108 0.14191 0.0
C1303 C 0.95889 0.49856 0.13407 0.0
C1304 C 0.00121 0.5177 0.14606 0.0
C1305 C 0.95324 0.47666 0.14602 0.0
C1306 C 0.01136 0.42344 0.14941 0.0
C1307 C 0.00145 0.42444 0.13916 0.0
C1308 C 0.0014 0.44628 0.14173 0.0
C1309 C 0.01057 0.46034 0.14403 0.0
C1310 C 0.00646 0.4693 0.14949 0.0
C1311 C 0.99274 0.46404 0.15255 0.0
C1312 C 0.98327 0.44992 0.14968 0.0
C1313 C 0.98768 0.44116 0.14422 0.0
C1314 C 0.01681 0.48435 0.15222 0.0
C1315 C 0.96853 0.44409 0.15254 0.0
C1316 C 0.99424 0.48484 0.21873 0.0
C1317 C 0.99315 0.4959 0.22415 0.0
C1318 C 0.99 0.50369 0.21527 0.0
C1319 C 0.98728 0.50003 0.20061 0.0
C1320 C 0.98327 0.50709 0.19152 0.0
C1321 C 0.98101 0.50366 0.17702 0.0
C1322 C 0.98316 0.49336 0.17098 0.0
C1323 C 0.98161 0.49028 0.15614 0.0
C1324 C 0.98445 0.48044 0.15046 0.0
C1325 C 0.98852 0.47329 0.15928 0.0
C1326 C 0.98947 0.47573 0.17419 0.0
C1327 C 0.99294 0.46827 0.1834 0.0
C1328 C 0.99419 0.471 0.19804 0.0
C1329 C 0.99239 0.48154 0.20397 0.0
C1330 C 0.9888 0.48911 0.19488 0.0
C1331 C 0.98706 0.486 0.18001 0.0
C1332 C 0.95099 0.52803 0.13806 0.0
C1333 C 0.9642 0.5315 0.13105 0.0
O1334 O 0.00821 0.45919 0.2611 0.0
O1335 O 0.0062 0.43821 0.13667 0.0
O1336 O 0.96296 0.51963 0.1247 0.0
O1337 O 0.99789 0.55071 0.24662 0.0
H1338 H 0.99159 0.45196 0.27361 0.0
H1339 H 0.00718 0.47659 0.28023 0.0
H1340 H 0.02024 0.47297 0.28538 0.0
H1341 H 0.00485 0.46598 0.29512 0.0
H1342 H 0.98295 0.45192 0.25277 0.0
H1343 H 0.02498 0.47796 0.24507 0.0
H1344 H 0.97077 0.47016 0.23612 0.0
H1345 H 0.96588 0.45254 0.23941 0.0
H1346 H 0.97031 0.45908 0.22181 0.0
H1347 H 0.03271 0.49457 0.22753 0.0
H1348 H 0.02243 0.50245 0.22595 0.0
H1349 H 0.02109 0.49022 0.21249 0.0
H1350 H 0.01902 0.56168 0.24948 0.0
H1351 H 0.00947 0.56162 0.2852 0.0
H1352 H 0.0013 0.57054 0.26069 0.0
H1353 H 0.018 0.57886 0.2613 0.0
H1354 H 0.01546 0.55008 0.22896 0.0
H1355 H 0.97509 0.52773 0.2436 0.0
H1356 H 0.01202 0.52696 0.20146 0.0
H1357 H 0.01814 0.52246 0.21682 0.0
H1358 H 0.02436 0.54036 0.2135 0.0
H1359 H 0.95952 0.50492 0.23488 0.0
H1360 H 0.96827 0.49539 0.23579 0.0
H1361 H 0.96348 0.49871 0.2188 0.0
H1362 H 0.9722 0.53568 0.1397 0.0
H1363 H 0.98847 0.52869 0.13169 0.0
H1364 H 0.94831 0.49402 0.131 0.0
H1365 H 0.0028 0.52053 0.15761 0.0
H1366 H 0.00729 0.52719 0.14013 0.0
H1367 H 0.00495 0.51047 0.14392 0.0
H1368 H 0.94285 0.47332 0.14196 0.0
H1369 H 0.95319 0.47612 0.15778 0.0
H1370 H 0.95621 0.46931 0.14174 0.0
H1371 H 0.99154 0.41963 0.14427 0.0
H1372 H 0.00776 0.41249 0.15165 0.0
H1373 H 0.0122 0.42906 0.15962 0.0
H1374 H 0.02153 0.42806 0.14487 0.0
H1375 H 0.02108 0.46423 0.14178 0.0
H1376 H 0.98034 0.43044 0.14174 0.0
H1377 H 0.01754 0.48705 0.16377 0.0
H1378 H 0.01363 0.49083 0.14657 0.0
H1379 H 0.02697 0.48692 0.14871 0.0
H1380 H 0.96237 0.43293 0.14951 0.0
H1381 H 0.96457 0.44973 0.14653 0.0
H1382 H 0.96735 0.44559 0.16402 0.0
H1383 H 0.99517 0.49873 0.23542 0.0
H1384 H 0.98175 0.5153 0.19557 0.0
H1385 H 0.97782 0.50939 0.17057 0.0
H1386 H 0.98367 0.47845 0.13904 0.0
H1387 H 0.99468 0.4602 0.17941 0.0
H1388 H 0.99685 0.46492 0.20463 0.0
H1389 H 0.95175 0.53748 0.14303 0.0
H1390 H 0.9489 0.52057 0.1465 0.0
H1391 H 0.94239 0.52334 0.13014 0.0
C1392 C 0.48151 0.40884 0.28956 0.0
C1393 C 0.47661 0.41583 0.27929 0.0
C1394 C 0.48321 0.42074 0.25491 0.0
C1395 C 0.48045 0.43135 0.25266 0.0
C1396 C 0.48718 0.44102 0.2423 0.0
C1397 C 0.49711 0.44022 0.2343 0.0
C1398 C 0.4997 0.42932 0.23641 0.0
C1399 C 0.49243 0.41951 0.24647 0.0
C1400 C 0.48391 0.45227 0.24015 0.0
C1401 C 0.51048 0.42829 0.22847 0.0
C1402 C 0.58041 0.53717 0.2716 0.0
C1403 C 0.57383 0.52399 0.26294 0.0
C1404 C 0.55498 0.51121 0.24571 0.0
C1405 C 0.5564 0.49954 0.24436 0.0
C1406 C 0.54679 0.48768 0.23653 0.0
C1407 C 0.53537 0.48736 0.23019 0.0
C1408 C 0.53389 0.49909 0.23158 0.0
C1409 C 0.54384 0.51094 0.23915 0.0
C1410 C 0.5488 0.47543 0.23514 0.0
C1411 C 0.52169 0.49903 0.22528 0.0
C1412 C 0.55061 0.49855 0.13743 0.0
C1413 C 0.55231 0.48761 0.14168 0.0
C1414 C 0.54257 0.47704 0.14968 0.0
C1415 C 0.5308 0.47728 0.15331 0.0
C1416 C 0.5288 0.48796 0.14858 0.0
C1417 C 0.53877 0.49848 0.14072 0.0
C1418 C 0.54497 0.46574 0.15448 0.0
C1419 C 0.51628 0.48842 0.15212 0.0
C1420 C 0.44513 0.36926 0.14475 0.0
C1421 C 0.45021 0.38417 0.1409 0.0
C1422 C 0.47298 0.40397 0.1455 0.0
C1423 C 0.48614 0.4072 0.14899 0.0
C1424 C 0.49561 0.42016 0.15505 0.0
C1425 C 0.49185 0.43023 0.15743 0.0
C1426 C 0.47871 0.42724 0.15333 0.0
C1427 C 0.46937 0.41411 0.14741 0.0
C1428 C 0.50958 0.42302 0.15916 0.0
C1429 C 0.4745 0.43786 0.15544 0.0
C1430 C 0.50556 0.45138 0.22465 0.0
C1431 C 0.51569 0.46387 0.23089 0.0
C1432 C 0.52473 0.47456 0.22264 0.0
C1433 C 0.52377 0.47278 0.20765 0.0
C1434 C 0.533 0.48312 0.19902 0.0
C1435 C 0.53203 0.48121 0.18428 0.0
C1436 C 0.52182 0.46886 0.1776 0.0
C1437 C 0.52092 0.46673 0.16264 0.0
C1438 C 0.51084 0.45421 0.15636 0.0
C1439 C 0.50157 0.44367 0.16465 0.0
C1440 C 0.50219 0.44568 0.17961 0.0
C1441 C 0.49294 0.43534 0.18826 0.0
C1442 C 0.49385 0.43728 0.20299 0.0
C1443 C 0.50416 0.44955 0.20966 0.0
C1444 C 0.5134 0.46024 0.20114 0.0
C1445 C 0.51241 0.4583 0.1861 0.0
C1446 C 0.5821 0.51736 0.14115 0.0
C1447 C 0.5731 0.51245 0.1275 0.0
O1448 O 0.47743 0.41184 0.26546 0.0
O1449 O 0.46414 0.39099 0.14033 0.0
O1450 O 0.56012 0.50943 0.13039 0.0
O1451 O 0.56402 0.52285 0.25328 0.0
H1452 H 0.48357 0.42715 0.28111 0.0
H1453 H 0.49219 0.41208 0.28755 0.0
H1454 H 0.47535 0.39744 0.28811 0.0
H1455 H 0.48092 0.41188 0.30074 0.0
H1456 H 0.47308 0.4321 0.25905 0.0
H1457 H 0.4944 0.4112 0.2483 0.0
H1458 H 0.49224 0.46215 0.24486 0.0
H1459 H 0.47441 0.45004 0.24526 0.0
H1460 H 0.48296 0.45363 0.22863 0.0
H1461 H 0.51264 0.42053 0.23293 0.0
H1462 H 0.51999 0.43842 0.22879 0.0
H1463 H 0.50715 0.42525 0.21716 0.0
H1464 H 0.58096 0.52113 0.25822 0.0
H1465 H 0.57445 0.53102 0.2923 0.0
H1466 H 0.57803 0.54445 0.26596 0.0
H1467 H 0.59129 0.5426 0.26858 0.0
H1468 H 0.565 0.4996 0.24932 0.0
H1469 H 0.54282 0.51998 0.24027 0.0
H1470 H 0.54117 0.46692 0.24136 0.0
H1471 H 0.55899 0.47792 0.23906 0.0
H1472 H 0.54733 0.47165 0.22385 0.0
H1473 H 0.52146 0.5085 0.22841 0.0
H1474 H 0.51231 0.48991 0.22873 0.0
H1475 H 0.52172 0.49824 0.21351 0.0
H1476 H 0.5728 0.50309 0.12283 0.0
H1477 H 0.56127 0.4873 0.13898 0.0
H1478 H 0.53747 0.50687 0.1373 0.0
H1479 H 0.54464 0.4653 0.16625 0.0
H1480 H 0.55484 0.46725 0.15115 0.0
H1481 H 0.53683 0.45565 0.14996 0.0
H1482 H 0.51582 0.4969 0.14686 0.0
H1483 H 0.51605 0.48989 0.1638 0.0
H1484 H 0.50715 0.47847 0.14881 0.0
H1485 H 0.4471 0.38885 0.14953 0.0
H1486 H 0.43397 0.36356 0.14547 0.0
H1487 H 0.44961 0.36909 0.15524 0.0
H1488 H 0.44801 0.36392 0.13666 0.0
H1489 H 0.48887 0.39936 0.14727 0.0
H1490 H 0.45933 0.41186 0.14425 0.0
H1491 H 0.51177 0.42603 0.17065 0.0
H1492 H 0.51715 0.43179 0.15315 0.0
H1493 H 0.51079 0.41396 0.15696 0.0
H1494 H 0.46416 0.43423 0.15099 0.0
H1495 H 0.4817 0.44751 0.1503 0.0
H1496 H 0.4748 0.4404 0.16697 0.0
H1497 H 0.51671 0.4652 0.2424 0.0
H1498 H 0.54113 0.49278 0.20356 0.0
H1499 H 0.53946 0.48953 0.17821 0.0
H1500 H 0.51038 0.45256 0.14491 0.0
H1501 H 0.4849 0.42561 0.18374 0.0
H1502 H 0.48645 0.42898 0.20911 0.0
H1503 H 0.59259 0.52019 0.13869 0.0
H1504 H 0.57839 0.50912 0.14895 0.0
H1505 H 0.58223 0.52648 0.14621 0.0
C1506 C 0.44518 0.9672 0.27736 0.0
C1507 C 0.44638 0.97856 0.26786 0.0
C1508 C 0.45529 0.98061 0.24431 0.0
C1509 C 0.46255 0.995 0.24355 0.0
C1510 C 0.47341 0.00145 0.2345 0.0
C1511 C 0.47712 0.99331 0.22614 0.0
C1512 C 0.46944 0.97875 0.22647 0.0
C1513 C 0.45845 0.97258 0.23541 0.0
C1514 C 0.48115 0.01697 0.23415 0.0
C1515 C 0.47316 0.96975 0.2178 0.0
C1516 C 0.55796 0.03077 0.2833 0.0
C1517 C 0.5554 0.02069 0.27074 0.0
C1518 C 0.54807 0.02364 0.24756 0.0
C1519 C 0.54058 0.00992 0.24238 0.0
C1520 C 0.52992 0.00578 0.23235 0.0
C1521 C 0.52658 0.01556 0.2276 0.0
C1522 C 0.53447 0.02954 0.23246 0.0
C1523 C 0.54532 0.03344 0.24219 0.0
C1524 C 0.52197 0.99087 0.22716 0.0
C1525 C 0.53108 0.04022 0.22786 0.0
C1526 C 0.55285 0.04044 0.14024 0.0
C1527 C 0.54654 0.02612 0.14155 0.0
C1528 C 0.53367 0.01873 0.14718 0.0
C1529 C 0.52708 0.02587 0.15169 0.0
C1530 C 0.53313 0.04018 0.14966 0.0
C1531 C 0.5459 0.04725 0.14377 0.0
C1532 C 0.52727 0.00339 0.14869 0.0
C1533 C 0.52631 0.04809 0.15414 0.0
C1534 C 0.41935 0.98056 0.14228 0.0
C1535 C 0.42987 0.99232 0.13372 0.0
C1536 C 0.45208 0.99431 0.13632 0.0
C1537 C 0.45739 0.98557 0.13708 0.0
C1538 C 0.46986 0.98992 0.14407 0.0
C1539 C 0.47726 0.00342 0.15027 0.0
C1540 C 0.47225 0.01255 0.14894 0.0
C1541 C 0.45974 0.00793 0.14189 0.0
C1542 C 0.475 0.97999 0.14513 0.0
C1543 C 0.48006 0.02712 0.15516 0.0
C1544 C 0.48964 4e-05 0.218 0.0
C1545 C 0.50185 0.00458 0.2255 0.0
C1546 C 0.51412 0.01091 0.21868 0.0
C1547 C 0.51428 0.01274 0.20387 0.0
C1548 C 0.52641 0.01892 0.19663 0.0
C1549 C 0.52647 0.02093 0.18211 0.0
C1550 C 0.51438 0.01661 0.17421 0.0
C1551 C 0.51434 0.01861 0.15943 0.0
C1552 C 0.50212 0.01412 0.1519 0.0
C1553 C 0.48987 0.00777 0.15878 0.0
C1554 C 0.48971 0.00578 0.17357 0.0
C1555 C 0.47756 0.99957 0.18084 0.0
C1556 C 0.47751 0.99773 0.19539 0.0
C1557 C 0.48958 0.00194 0.20323 0.0
C1558 C 0.50196 0.00827 0.19613 0.0
C1559 C 0.50201 0.01019 0.18128 0.0
C1560 C 0.58763 0.05911 0.1466 0.0
C1561 C 0.57621 0.04591 0.13932 0.0
O1562 O 0.44541 0.97424 0.25373 0.0
O1563 O 0.43974 0.98932 0.12984 0.0
O1564 O 0.56563 0.04798 0.13573 0.0
O1565 O 0.55758 0.02752 0.25816 0.0
H1566 H 0.4565 0.98774 0.2705 0.0
H1567 H 0.45358 0.96524 0.27537 0.0
H1568 H 0.43549 0.95744 0.2751 0.0
H1569 H 0.4458 0.9704 0.28875 0.0
H1570 H 0.45979 0.00118 0.25014 0.0
H1571 H 0.45265 0.96146 0.23598 0.0
H1572 H 0.49132 0.02103 0.23926 0.0
H1573 H 0.47598 0.02169 0.23981 0.0
H1574 H 0.48257 0.02021 0.22297 0.0
H1575 H 0.46648 0.95862 0.21968 0.0
H1576 H 0.48375 0.97265 0.22043 0.0
H1577 H 0.47248 0.97138 0.20631 0.0
H1578 H 0.5446 0.01243 0.27125 0.0
H1579 H 0.55665 0.02558 0.29351 0.0
H1580 H 0.55061 0.03441 0.28263 0.0
H1581 H 0.56828 0.0399 0.28322 0.0
H1582 H 0.54297 0.00242 0.24636 0.0
H1583 H 0.55126 0.04404 0.24623 0.0
H1584 H 0.5203 0.99011 0.21543 0.0
H1585 H 0.51193 0.98584 0.232 0.0
H1586 H 0.52713 0.98511 0.23003 0.0
H1587 H 0.53757 0.05039 0.23347 0.0
H1588 H 0.52036 0.03673 0.22993 0.0
H1589 H 0.53239 0.04155 0.21626 0.0
H1590 H 0.57307 0.03776 0.14725 0.0
H1591 H 0.5517 0.02074 0.13826 0.0
H1592 H 0.55078 0.05827 0.14244 0.0
H1593 H 0.52707 0.00117 0.16012 0.0
H1594 H 0.53286 0.99912 0.14306 0.0
H1595 H 0.51667 0.99801 0.14445 0.0
H1596 H 0.53257 0.05927 0.15226 0.0
H1597 H 0.52413 0.04679 0.16562 0.0
H1598 H 0.51654 0.04389 0.14813 0.0
H1599 H 0.43414 0.00183 0.14067 0.0
H1600 H 0.41127 0.9827 0.14537 0.0
H1601 H 0.42421 0.97958 0.15213 0.0
H1602 H 0.41474 0.97062 0.136 0.0
H1603 H 0.45153 0.97518 0.13247 0.0
H1604 H 0.4561 0.01504 0.14065 0.0
H1605 H 0.47578 0.97793 0.15648 0.0
H1606 H 0.48528 0.98465 0.14088 0.0
H1607 H 0.46832 0.97003 0.13924 0.0
H1608 H 0.47496 0.03307 0.15293 0.0
H1609 H 0.49028 0.03255 0.15073 0.0
H1610 H 0.48136 0.02696 0.16685 0.0
H1611 H 0.50181 0.00316 0.23686 0.0
H1612 H 0.53601 0.02235 0.20213 0.0
H1613 H 0.53615 0.0259 0.17716 0.0
H1614 H 0.50217 0.01571 0.14059 0.0
H1615 H 0.46794 0.99609 0.17537 0.0
H1616 H 0.46787 0.99295 0.20044 0.0
H1617 H 0.59627 0.05772 0.14951 0.0
H1618 H 0.584 0.0616 0.15648 0.0
H1619 H 0.59115 0.06795 0.13953 0.0
C1620 C 0.53328 0.96863 0.73702 0.0
C1621 C 0.54165 0.97971 0.74859 0.0
C1622 C 0.53396 0.97941 0.77241 0.0
C1623 C 0.54113 0.99352 0.7762 0.0
C1624 C 0.53629 0.99906 0.78649 0.0
C1625 C 0.52391 0.99031 0.79289 0.0
C1626 C 0.51685 0.97598 0.7893 0.0
C1627 C 0.52216 0.97068 0.77931 0.0
C1628 C 0.54425 0.01432 0.79025 0.0
C1629 C 0.50345 0.96635 0.7956 0.0
C1630 C 0.48755 0.03536 0.74507 0.0
C1631 C 0.47709 0.02491 0.75482 0.0
C1632 C 0.48584 0.02476 0.77829 0.0
C1633 C 0.47914 0.01069 0.78095 0.0
C1634 C 0.48509 0.00531 0.78989 0.0
C1635 C 0.49809 0.01422 0.79615 0.0
C1636 C 0.50465 0.02854 0.79387 0.0
C1637 C 0.4983 0.03367 0.78512 0.0
C1638 C 0.47767 0.99005 0.79231 0.0
C1639 C 0.51856 0.03831 0.80023 0.0
C1640 C 0.48766 0.02426 0.88861 0.0
C1641 C 0.47961 0.01106 0.88218 0.0
C1642 C 0.48546 0.00461 0.87461 0.0
C1643 C 0.49963 0.01164 0.87322 0.0
C1644 C 0.50779 0.02473 0.88016 0.0
C1645 C 0.50167 0.03078 0.88795 0.0
C1646 C 0.4765 0.99039 0.86786 0.0
C1647 C 0.52292 0.03248 0.87901 0.0
C1648 C 0.54424 0.94505 0.87904 0.0
C1649 C 0.54801 0.95979 0.88348 0.0
C1650 C 0.53217 0.96821 0.8815 0.0
C1651 C 0.51837 0.96289 0.87911 0.0
C1652 C 0.51348 0.97084 0.87302 0.0
C1653 C 0.52268 0.98461 0.86966 0.0
C1654 C 0.53664 0.99033 0.87284 0.0
C1655 C 0.54127 0.98201 0.87862 0.0
C1656 C 0.49852 0.9644 0.86993 0.0
C1657 C 0.54665 0.00514 0.86994 0.0
C1658 C 0.51783 0.99632 0.80237 0.0
C1659 C 0.51141 0.00263 0.79594 0.0
C1660 C 0.50522 0.00835 0.80399 0.0
C1661 C 0.50552 0.00793 0.81898 0.0
C1662 C 0.49953 0.01371 0.82744 0.0
C1663 C 0.49985 0.01321 0.84219 0.0
C1664 C 0.50587 0.00658 0.84903 0.0
C1665 C 0.50587 0.00562 0.86399 0.0
C1666 C 0.51171 0.99873 0.87042 0.0
C1667 C 0.51766 0.99276 0.8623 0.0
C1668 C 0.518 0.99384 0.84735 0.0
C1669 C 0.52407 0.98814 0.83886 0.0
C1670 C 0.5243 0.98921 0.82417 0.0
C1671 C 0.51809 0.99563 0.81733 0.0
C1672 C 0.51191 0.00147 0.82567 0.0
C1673 C 0.51198 0.00069 0.8407 0.0
C1674 C 0.47172 0.04439 0.89291 0.0
C1675 C 0.47004 0.03002 0.89183 0.0
O1676 O 0.538 0.97407 0.76181 0.0
O1677 O 0.53629 0.95978 0.88675 0.0
O1678 O 0.48227 0.03104 0.89544 0.0
O1679 O 0.48063 0.02985 0.76882 0.0
H1680 H 0.53913 0.98801 0.74738 0.0
H1681 H 0.5224 0.96494 0.73828 0.0
H1682 H 0.53484 0.95968 0.73776 0.0
H1683 H 0.5361 0.97293 0.72632 0.0
H1684 H 0.55043 0.0002 0.77102 0.0
H1685 H 0.51677 0.95977 0.77632 0.0
H1686 H 0.53891 0.01934 0.78571 0.0
H1687 H 0.55456 0.01929 0.78603 0.0
H1688 H 0.54506 0.01617 0.80197 0.0
H1689 H 0.49862 0.95579 0.79061 0.0
H1690 H 0.49646 0.97039 0.79428 0.0
H1691 H 0.50492 0.96568 0.80717 0.0
H1692 H 0.47728 0.01515 0.75316 0.0
H1693 H 0.48487 0.03162 0.73377 0.0
H1694 H 0.49764 0.03678 0.74774 0.0
H1695 H 0.48817 0.04552 0.74637 0.0
H1696 H 0.46933 0.00391 0.77585 0.0
H1697 H 0.50332 0.04455 0.78305 0.0
H1698 H 0.47785 0.98824 0.80383 0.0
H1699 H 0.4828 0.98523 0.78677 0.0
H1700 H 0.46701 0.98486 0.78828 0.0
H1701 H 0.52244 0.04909 0.79711 0.0
H1702 H 0.5257 0.03497 0.79676 0.0
H1703 H 0.51836 0.03807 0.812 0.0
H1704 H 0.46711 0.02629 0.88051 0.0
H1705 H 0.46876 0.00578 0.88307 0.0
H1706 H 0.50779 0.04089 0.89313 0.0
H1707 H 0.47621 0.99108 0.85613 0.0
H1708 H 0.46601 0.98557 0.87156 0.0
H1709 H 0.48062 0.98359 0.87028 0.0
H1710 H 0.52778 0.0428 0.88456 0.0
H1711 H 0.52555 0.03379 0.86764 0.0
H1712 H 0.52714 0.02643 0.88367 0.0
H1713 H 0.55282 0.96628 0.87423 0.0
H1714 H 0.55328 0.94467 0.87577 0.0
H1715 H 0.53686 0.94126 0.86987 0.0
H1716 H 0.53959 0.93807 0.88796 0.0
H1717 H 0.51143 0.9523 0.88163 0.0
H1718 H 0.55194 0.9863 0.88097 0.0
H1719 H 0.4966 0.96547 0.85856 0.0
H1720 H 0.49457 0.9699 0.87641 0.0
H1721 H 0.49283 0.95331 0.87233 0.0
H1722 H 0.55683 0.00851 0.87466 0.0
H1723 H 0.54311 0.01201 0.87428 0.0
H1724 H 0.54748 0.0064 0.85829 0.0
H1725 H 0.51109 0.00295 0.78443 0.0
H1726 H 0.49457 0.01875 0.82275 0.0
H1727 H 0.49518 0.01796 0.84814 0.0
H1728 H 0.51146 0.99783 0.88187 0.0
H1729 H 0.52878 0.98283 0.84347 0.0
H1730 H 0.52925 0.98476 0.8182 0.0
H1731 H 0.46207 0.04388 0.8899 0.0
H1732 H 0.47952 0.05126 0.88554 0.0
H1733 H 0.47491 0.04895 0.9039 0.0
C1734 C 0.0268 0.55233 0.73214 0.0
C1735 C 0.01748 0.55249 0.74347 0.0
C1736 C 0.02028 0.54848 0.76832 0.0
C1737 C 0.0066 0.54014 0.77134 0.0
C1738 C 0.00273 0.53119 0.78264 0.0
C1739 C 0.01275 0.53065 0.7911 0.0
C1740 C 0.02655 0.53981 0.78873 0.0
C1741 C 0.03013 0.54874 0.77742 0.0
C1742 C 0.98794 0.52186 0.78517 0.0
C1743 C 0.03751 0.53966 0.79765 0.0
C1744 C 0.00739 0.43802 0.75638 0.0
C1745 C 0.01177 0.45045 0.76586 0.0
C1746 C 0.00228 0.4608 0.78149 0.0
C1747 C 0.01467 0.47231 0.78607 0.0
C1748 C 0.01513 0.48346 0.79364 0.0
C1749 C 0.00298 0.48327 0.79641 0.0
C1750 C 0.99047 0.47166 0.7919 0.0
C1751 C 0.9903 0.46046 0.7847 0.0
C1752 C 0.02867 0.49557 0.79844 0.0
C1753 C 0.97734 0.47123 0.79442 0.0
C1754 C 0.98719 0.46418 0.88561 0.0
C1755 C 0.0008 0.47308 0.8828 0.0
C1756 C 0.00487 0.48552 0.87615 0.0
C1757 C 0.99506 0.48897 0.87207 0.0
C1758 C 0.98148 0.48044 0.87576 0.0
C1759 C 0.97775 0.46819 0.88268 0.0
C1760 C 0.01954 0.49466 0.87293 0.0
C1761 C 0.97081 0.48393 0.87178 0.0
C1762 C 0.0234 0.59406 0.87342 0.0
C1763 C 0.01457 0.58478 0.885 0.0
C1764 C 0.01502 0.56329 0.88151 0.0
C1765 C 0.0246 0.55917 0.88067 0.0
C1766 C 0.02152 0.54668 0.87371 0.0
C1767 C 0.00838 0.53793 0.86774 0.0
C1768 C 0.99849 0.54182 0.86893 0.0
C1769 C 0.00191 0.55449 0.87577 0.0
C1770 C 0.03231 0.54282 0.87272 0.0
C1771 C 0.98427 0.53251 0.86308 0.0
C1772 C 0.00881 0.51924 0.80091 0.0
C1773 C 0.00671 0.50676 0.79497 0.0
C1774 C 0.00354 0.49556 0.80337 0.0
C1775 C 0.00204 0.49665 0.81813 0.0
C1776 C 0.99865 0.48552 0.82686 0.0
C1777 C 0.99728 0.48671 0.84139 0.0
C1778 C 0.99966 0.49923 0.84783 0.0
C1779 C 0.99873 0.50065 0.86269 0.0
C1780 C 0.00143 0.5133 0.86879 0.0
C1781 C 0.005 0.52465 0.86043 0.0
C1782 C 0.00575 0.52336 0.84551 0.0
C1783 C 0.00915 0.53451 0.83674 0.0
C1784 C 0.00996 0.53314 0.82209 0.0
C1785 C 0.00764 0.52066 0.8157 0.0
C1786 C 0.00419 0.50928 0.82433 0.0
C1787 C 0.00314 0.51061 0.83923 0.0
C1788 C 0.97491 0.42887 0.88101 0.0
C1789 C 0.98716 0.44262 0.88613 0.0
O1790 O 0.0243 0.55616 0.75661 0.0
O1791 O 0.01871 0.57553 0.88841 0.0
O1792 O 0.98284 0.45152 0.89073 0.0
O1793 O 0.00152 0.44997 0.77386 0.0
H1794 H 0.00871 0.54177 0.7433 0.0
H1795 H 0.02941 0.54431 0.73446 0.0
H1796 H 0.03633 0.56243 0.73201 0.0
H1797 H 0.02167 0.54987 0.72145 0.0
H1798 H 0.99894 0.54041 0.76473 0.0
H1799 H 0.04067 0.55545 0.77518 0.0
H1800 H 0.98494 0.51108 0.78199 0.0
H1801 H 0.9815 0.52479 0.77901 0.0
H1802 H 0.986 0.52213 0.79666 0.0
H1803 H 0.04776 0.54784 0.79484 0.0
H1804 H 0.03682 0.52949 0.79618 0.0
H1805 H 0.03612 0.54109 0.80909 0.0
H1806 H 0.02128 0.45375 0.77218 0.0
H1807 H 0.0094 0.4455 0.73586 0.0
H1808 H 0.99747 0.42972 0.76037 0.0
H1809 H 0.01329 0.43321 0.76039 0.0
H1810 H 0.02405 0.47269 0.78383 0.0
H1811 H 0.98078 0.45153 0.78115 0.0
H1812 H 0.02847 0.49868 0.8097 0.0
H1813 H 0.03095 0.50447 0.79185 0.0
H1814 H 0.03695 0.49325 0.79741 0.0
H1815 H 0.96853 0.4618 0.78951 0.0
H1816 H 0.97764 0.48043 0.79001 0.0
H1817 H 0.97588 0.47154 0.80602 0.0
H1818 H 0.99359 0.44668 0.87673 0.0
H1819 H 0.00819 0.47017 0.88557 0.0
H1820 H 0.9673 0.46134 0.88515 0.0
H1821 H 0.02084 0.49387 0.86135 0.0
H1822 H 0.02613 0.4917 0.87873 0.0
H1823 H 0.0229 0.5056 0.87578 0.0
H1824 H 0.96072 0.47629 0.87555 0.0
H1825 H 0.97011 0.48435 0.86004 0.0
H1826 H 0.97366 0.49428 0.8764 0.0
H1827 H 0.00394 0.57929 0.88089 0.0
H1828 H 0.02026 0.60161 0.87065 0.0
H1829 H 0.02228 0.58771 0.86368 0.0
H1830 H 0.03419 0.59974 0.87703 0.0
H1831 H 0.03462 0.56592 0.88533 0.0
H1832 H 0.99419 0.55721 0.87691 0.0
H1833 H 0.03343 0.54053 0.86144 0.0
H1834 H 0.02927 0.53334 0.87862 0.0
H1835 H 0.04224 0.55113 0.87715 0.0
H1836 H 0.97755 0.5367 0.86546 0.0
H1837 H 0.97998 0.52218 0.86762 0.0
H1838 H 0.98437 0.53111 0.85137 0.0
H1839 H 0.00792 0.50585 0.78365 0.0
H1840 H 0.99692 0.47571 0.82255 0.0
H1841 H 0.99449 0.47771 0.84751 0.0
H1842 H 0.00087 0.51435 0.88021 0.0
H1843 H 0.0112 0.54442 0.84111 0.0
H1844 H 0.01257 0.54203 0.81584 0.0
H1845 H 0.96759 0.42427 0.88957 0.0
H1846 H 0.97813 0.4215 0.87746 0.0
H1847 H 0.96972 0.43053 0.87186 0.0
C1848 C 0.52426 0.57815 0.74937 0.0
C1849 C 0.53495 0.58242 0.76146 0.0
C1850 C 0.52219 0.56375 0.77775 0.0
C1851 C 0.51359 0.56845 0.78245 0.0
C1852 C 0.50251 0.5602 0.7907 0.0
C1853 C 0.5 0.54703 0.7944 0.0
C1854 C 0.50887 0.54246 0.79012 0.0
C1855 C 0.5199 0.55093 0.78189 0.0
C1856 C 0.4933 0.56544 0.79522 0.0
C1857 C 0.50651 0.52851 0.79399 0.0
C1858 C 0.42469 0.49714 0.73248 0.0
C1859 C 0.42696 0.4893 0.74422 0.0
C1860 C 0.43206 0.49829 0.76863 0.0
C1861 C 0.44039 0.49321 0.77303 0.0
C1862 C 0.45016 0.50001 0.78404 0.0
C1863 C 0.45173 0.51222 0.79064 0.0
C1864 C 0.44287 0.51697 0.78667 0.0
C1865 C 0.43295 0.50975 0.77585 0.0
C1866 C 0.45919 0.49445 0.78822 0.0
C1867 C 0.44432 0.53004 0.79332 0.0
C1868 C 0.42295 0.50115 0.87971 0.0
C1869 C 0.43004 0.49434 0.87636 0.0
C1870 C 0.44284 0.50147 0.87053 0.0
C1871 C 0.44854 0.51561 0.86779 0.0
C1872 C 0.44163 0.52259 0.87167 0.0
C1873 C 0.42899 0.51527 0.87777 0.0
C1874 C 0.45017 0.49383 0.86706 0.0
C1875 C 0.44746 0.5377 0.86905 0.0
C1876 C 0.54995 0.59057 0.8779 0.0
C1877 C 0.54272 0.58905 0.89184 0.0
C1878 C 0.52183 0.56688 0.88679 0.0
C1879 C 0.51686 0.55268 0.88635 0.0
C1880 C 0.50496 0.54352 0.87852 0.0
C1881 C 0.49768 0.54871 0.87128 0.0
C1882 C 0.50226 0.56299 0.8723 0.0
C1883 C 0.51438 0.57195 0.87987 0.0
C1884 C 0.50036 0.52836 0.8777 0.0
C1885 C 0.49446 0.56884 0.86522 0.0
C1886 C 0.48766 0.5378 0.80206 0.0
C1887 C 0.4759 0.52927 0.79391 0.0
C1888 C 0.46365 0.52089 0.80028 0.0
C1889 C 0.46301 0.52109 0.81527 0.0
C1890 C 0.45082 0.51305 0.82206 0.0
C1891 C 0.45026 0.51371 0.8368 0.0
C1892 C 0.46193 0.52216 0.84536 0.0
C1893 C 0.46146 0.52301 0.86036 0.0
C1894 C 0.47327 0.53151 0.8685 0.0
C1895 C 0.48563 0.53934 0.86209 0.0
C1896 C 0.4863 0.53865 0.84711 0.0
C1897 C 0.49857 0.54641 0.84031 0.0
C1898 C 0.49905 0.54614 0.82556 0.0
C1899 C 0.48732 0.53791 0.81705 0.0
C1900 C 0.47492 0.52964 0.82368 0.0
C1901 C 0.4744 0.53009 0.83873 0.0
C1902 C 0.38704 0.48 0.87825 0.0
C1903 C 0.40058 0.48085 0.88121 0.0
O1904 O 0.53259 0.57106 0.76906 0.0
O1905 O 0.53378 0.57522 0.89398 0.0
O1906 O 0.41029 0.49441 0.88469 0.0
O1907 O 0.42346 0.49262 0.75713 0.0
H1908 H 0.53467 0.59024 0.76872 0.0
H1909 H 0.51406 0.57397 0.75365 0.0
H1910 H 0.5242 0.5701 0.74218 0.0
H1911 H 0.52639 0.5872 0.74308 0.0
H1912 H 0.51531 0.57843 0.77959 0.0
H1913 H 0.52663 0.54743 0.77835 0.0
H1914 H 0.48302 0.55859 0.79046 0.0
H1915 H 0.49691 0.57612 0.79194 0.0
H1916 H 0.49249 0.5652 0.80696 0.0
H1917 H 0.51462 0.52667 0.79033 0.0
H1918 H 0.49672 0.52032 0.78915 0.0
H1919 H 0.50588 0.52759 0.8057 0.0
H1920 H 0.43796 0.49289 0.74432 0.0
H1921 H 0.42704 0.49429 0.72197 0.0
H1922 H 0.43144 0.50841 0.73457 0.0
H1923 H 0.41411 0.49493 0.7321 0.0
H1924 H 0.43939 0.48408 0.76766 0.0
H1925 H 0.42634 0.51347 0.77244 0.0
H1926 H 0.46941 0.50118 0.78417 0.0
H1927 H 0.45532 0.48379 0.78381 0.0
H1928 H 0.4602 0.49451 0.79998 0.0
H1929 H 0.43689 0.53255 0.78873 0.0
H1930 H 0.45465 0.5388 0.79177 0.0
H1931 H 0.44293 0.52897 0.80494 0.0
H1932 H 0.40305 0.47734 0.8711 0.0
H1933 H 0.42559 0.48348 0.8783 0.0
H1934 H 0.42351 0.52046 0.8806 0.0
H1935 H 0.4505 0.49273 0.85534 0.0
H1936 H 0.44519 0.48339 0.87145 0.0
H1937 H 0.46075 0.49977 0.87134 0.0
H1938 H 0.44046 0.54141 0.87192 0.0
H1939 H 0.44986 0.53962 0.85767 0.0
H1940 H 0.45702 0.54385 0.87543 0.0
H1941 H 0.53721 0.59479 0.89132 0.0
H1942 H 0.55724 0.60161 0.8762 0.0
H1943 H 0.54252 0.58646 0.86878 0.0
H1944 H 0.55545 0.5848 0.87811 0.0
H1945 H 0.52257 0.54883 0.89184 0.0
H1946 H 0.51783 0.58285 0.88032 0.0
H1947 H 0.49924 0.5247 0.8664 0.0
H1948 H 0.49032 0.52245 0.88243 0.0
H1949 H 0.5075 0.52605 0.88337 0.0
H1950 H 0.49812 0.57967 0.8689 0.0
H1951 H 0.48356 0.56251 0.86736 0.0
H1952 H 0.49552 0.5686 0.85353 0.0
H1953 H 0.47627 0.52928 0.78239 0.0
H1954 H 0.44154 0.50632 0.81601 0.0
H1955 H 0.44053 0.50748 0.84141 0.0
H1956 H 0.47279 0.53224 0.87998 0.0
H1957 H 0.50794 0.5529 0.84629 0.0
H1958 H 0.50873 0.55246 0.8209 0.0
H1959 H 0.384 0.48387 0.88764 0.0
H1960 H 0.37907 0.46918 0.87553 0.0
H1961 H 0.38786 0.48639 0.86912 0.0
C1962 C 0.61767 0.76648 0.61797 0.0
C1963 C 0.61944 0.75767 0.60647 0.0
C1964 C 0.62404 0.77203 0.58564 0.0
C1965 C 0.61066 0.76872 0.5827 0.0
C1966 C 0.60769 0.7756 0.57232 0.0
C1967 C 0.6183 0.78612 0.56485 0.0
C1968 C 0.63175 0.78937 0.56765 0.0
C1969 C 0.6344 0.78214 0.5779 0.0
C1970 C 0.59322 0.7718 0.5695 0.0
C1971 C 0.64332 0.80068 0.56004 0.0
C1972 C 0.5953 0.86319 0.58012 0.0
C1973 C 0.60689 0.86272 0.58787 0.0
C1974 C 0.61334 0.84927 0.57199 0.0
C1975 C 0.62377 0.85034 0.56375 0.0
C1976 C 0.6231 0.83866 0.5572 0.0
C1977 C 0.61151 0.82556 0.55873 0.0
C1978 C 0.60079 0.82438 0.56691 0.0
C1979 C 0.60182 0.83626 0.57353 0.0
C1980 C 0.63486 0.84034 0.54878 0.0
C1981 C 0.58826 0.81058 0.56866 0.0
C1982 C 0.58749 0.82262 0.46845 0.0
C1983 C 0.60125 0.8288 0.47229 0.0
C1984 C 0.6062 0.82145 0.47955 0.0
C1985 C 0.59712 0.80777 0.48335 0.0
C1986 C 0.58337 0.80133 0.47886 0.0
C1987 C 0.57878 0.80881 0.47125 0.0
C1988 C 0.62105 0.82844 0.48354 0.0
C1989 C 0.57342 0.78672 0.48255 0.0
C1990 C 0.61639 0.72626 0.48035 0.0
C1991 C 0.61456 0.73208 0.46651 0.0
C1992 C 0.61794 0.75481 0.4743 0.0
C1993 C 0.62735 0.76891 0.4752 0.0
C1994 C 0.62444 0.7783 0.48205 0.0
C1995 C 0.61167 0.77344 0.48798 0.0
C1996 C 0.60198 0.75919 0.48694 0.0
C1997 C 0.60526 0.74999 0.48027 0.0
C1998 C 0.63505 0.79341 0.483 0.0
C1999 C 0.58817 0.75371 0.49291 0.0
C2000 C 0.61535 0.79431 0.55487 0.0
C2001 C 0.6143 0.80529 0.56065 0.0
C2002 C 0.61092 0.81312 0.5521 0.0
C2003 C 0.60808 0.80968 0.5374 0.0
C2004 C 0.60372 0.8167 0.52867 0.0
C2005 C 0.60133 0.81351 0.51414 0.0
C2006 C 0.60358 0.80343 0.50771 0.0
C2007 C 0.60178 0.80054 0.49284 0.0
C2008 C 0.60434 0.79064 0.4868 0.0
C2009 C 0.6085 0.78332 0.49523 0.0
C2010 C 0.61001 0.78579 0.51017 0.0
C2011 C 0.61382 0.77837 0.51904 0.0
C2012 C 0.61528 0.78091 0.53372 0.0
C2013 C 0.61346 0.7913 0.54003 0.0
C2014 C 0.60972 0.79897 0.53128 0.0
C2015 C 0.60773 0.79603 0.51638 0.0
C2016 C 0.57321 0.84402 0.46847 0.0
C2017 C 0.58597 0.84325 0.46621 0.0
O2018 O 0.62746 0.76592 0.59587 0.0
O2019 O 0.62161 0.74637 0.4676 0.0
O2020 O 0.58232 0.82981 0.46231 0.0
O2021 O 0.6149 0.86111 0.57807 0.0
H2022 H 0.6094 0.74979 0.60182 0.0
H2023 H 0.61254 0.7717 0.61338 0.0
H2024 H 0.62763 0.77448 0.62267 0.0
H2025 H 0.61137 0.75992 0.62654 0.0
H2026 H 0.60246 0.76088 0.58849 0.0
H2027 H 0.64467 0.7846 0.5802 0.0
H2028 H 0.5919 0.78053 0.57305 0.0
H2029 H 0.58601 0.7625 0.57514 0.0
H2030 H 0.59067 0.76989 0.55791 0.0
H2031 H 0.65324 0.80219 0.56371 0.0
H2032 H 0.64341 0.81053 0.5618 0.0
H2033 H 0.64198 0.79818 0.54843 0.0
H2034 H 0.60272 0.85403 0.5952 0.0
H2035 H 0.58878 0.86439 0.58792 0.0
H2036 H 0.58898 0.85349 0.57369 0.0
H2037 H 0.5993 0.87194 0.57289 0.0
H2038 H 0.63258 0.86042 0.5626 0.0
H2039 H 0.59359 0.83527 0.57977 0.0
H2040 H 0.63173 0.83784 0.53735 0.0
H2041 H 0.63808 0.83307 0.55234 0.0
H2042 H 0.64365 0.851 0.54983 0.0
H2043 H 0.58024 0.81155 0.57404 0.0
H2044 H 0.59086 0.80405 0.57507 0.0
H2045 H 0.58424 0.80519 0.55812 0.0
H2046 H 0.59167 0.84638 0.47666 0.0
H2047 H 0.60808 0.83939 0.46969 0.0
H2048 H 0.56821 0.8041 0.46802 0.0
H2049 H 0.6226 0.83127 0.49509 0.0
H2050 H 0.62705 0.83797 0.47763 0.0
H2051 H 0.62495 0.82134 0.48141 0.0
H2052 H 0.56296 0.78342 0.47881 0.0
H2053 H 0.57357 0.78573 0.49425 0.0
H2054 H 0.57639 0.7796 0.47764 0.0
H2055 H 0.60366 0.7282 0.46436 0.0
H2056 H 0.61077 0.71481 0.47953 0.0
H2057 H 0.61242 0.72955 0.48938 0.0
H2058 H 0.62724 0.73001 0.48268 0.0
H2059 H 0.63709 0.77255 0.47058 0.0
H2060 H 0.59783 0.73912 0.47978 0.0
H2061 H 0.6368 0.79734 0.49425 0.0
H2062 H 0.63144 0.79932 0.47694 0.0
H2063 H 0.64479 0.7954 0.4787 0.0
H2064 H 0.58138 0.74255 0.49022 0.0
H2065 H 0.58342 0.75948 0.48877 0.0
H2066 H 0.58912 0.75528 0.50466 0.0
H2067 H 0.61627 0.80787 0.57197 0.0
H2068 H 0.60204 0.82471 0.533 0.0
H2069 H 0.59789 0.81921 0.508 0.0
H2070 H 0.60315 0.78865 0.47537 0.0
H2071 H 0.61563 0.77045 0.51474 0.0
H2072 H 0.6181 0.7748 0.54003 0.0
H2073 H 0.56663 0.84059 0.45865 0.0
H2074 H 0.5759 0.85475 0.47155 0.0
H2075 H 0.56742 0.83723 0.47715 0.0
C2076 C 0.12479 0.71803 0.58477 0.0
C2077 C 0.126 0.72984 0.59442 0.0
C2078 C 0.13791 0.75069 0.58045 0.0
C2079 C 0.13637 0.76066 0.57354 0.0
C2080 C 0.14722 0.77156 0.56698 0.0
C2081 C 0.15992 0.77238 0.56719 0.0
C2082 C 0.16163 0.76241 0.57427 0.0
C2083 C 0.15062 0.75168 0.58089 0.0
C2084 C 0.14507 0.7821 0.55967 0.0
C2085 C 0.17504 0.76299 0.57464 0.0
C2086 C 0.24779 0.8704 0.60738 0.0
C2087 C 0.23892 0.85569 0.60255 0.0
C2088 C 0.21883 0.84182 0.58699 0.0
C2089 C 0.22084 0.83054 0.58515 0.0
C2090 C 0.21192 0.81901 0.57644 0.0
C2091 C 0.20071 0.81869 0.56955 0.0
C2092 C 0.19859 0.82996 0.57149 0.0
C2093 C 0.20774 0.84141 0.58014 0.0
C2094 C 0.21446 0.80715 0.57459 0.0
C2095 C 0.18666 0.82989 0.56444 0.0
C2096 C 0.22557 0.8368 0.47837 0.0
C2097 C 0.2287 0.82772 0.48515 0.0
C2098 C 0.21881 0.81643 0.49227 0.0
C2099 C 0.2056 0.81432 0.49285 0.0
C2100 C 0.20238 0.82332 0.48587 0.0
C2101 C 0.2124 0.83436 0.4786 0.0
C2102 C 0.22249 0.8068 0.49928 0.0
C2103 C 0.1884 0.82137 0.48624 0.0
C2104 C 0.12087 0.70675 0.47353 0.0
C2105 C 0.1257 0.72193 0.47132 0.0
C2106 C 0.14831 0.74158 0.47694 0.0
C2107 C 0.16138 0.74459 0.48056 0.0
C2108 C 0.17057 0.757 0.48786 0.0
C2109 C 0.16664 0.76675 0.49131 0.0
C2110 C 0.15365 0.7641 0.48697 0.0
C2111 C 0.14457 0.75149 0.47988 0.0
C2112 C 0.18438 0.75953 0.49219 0.0
C2113 C 0.14929 0.77448 0.49005 0.0
C2114 C 0.17124 0.7834 0.55954 0.0
C2115 C 0.18055 0.79539 0.56727 0.0
C2116 C 0.19106 0.80642 0.56056 0.0
C2117 C 0.19222 0.80562 0.54567 0.0
C2118 C 0.20241 0.81667 0.53849 0.0
C2119 C 0.20333 0.81583 0.52381 0.0
C2120 C 0.19427 0.8038 0.51576 0.0
C2121 C 0.19518 0.80278 0.50084 0.0
C2122 C 0.18601 0.79066 0.49319 0.0
C2123 C 0.17589 0.77942 0.50002 0.0
C2124 C 0.17479 0.78025 0.51492 0.0
C2125 C 0.16475 0.76912 0.52214 0.0
C2126 C 0.16358 0.77011 0.53674 0.0
C2127 C 0.1725 0.78222 0.54473 0.0
C2128 C 0.18292 0.79344 0.53774 0.0
C2129 C 0.184 0.7925 0.5228 0.0
C2130 C 0.25399 0.8615 0.48737 0.0
C2131 C 0.24879 0.85423 0.47267 0.0
O2132 O 0.12683 0.74031 0.58631 0.0
O2133 O 0.13964 0.72905 0.47065 0.0
O2134 O 0.23485 0.84801 0.47156 0.0
O2135 O 0.22732 0.85327 0.59515 0.0
H2136 H 0.13518 0.73387 0.60152 0.0
H2137 H 0.13387 0.72165 0.57832 0.0
H2138 H 0.11581 0.71394 0.5774 0.0
H2139 H 0.12388 0.70954 0.5913 0.0
H2140 H 0.12656 0.75984 0.57328 0.0
H2141 H 0.15202 0.74406 0.58619 0.0
H2142 H 0.15288 0.79267 0.56347 0.0
H2143 H 0.13494 0.78071 0.56154 0.0
H2144 H 0.14611 0.78126 0.54804 0.0
H2145 H 0.17464 0.75421 0.58018 0.0
H2146 H 0.18278 0.77276 0.58016 0.0
H2147 H 0.17833 0.76295 0.56363 0.0
H2148 H 0.23688 0.84799 0.61078 0.0
H2149 H 0.26523 0.87676 0.59587 0.0
H2150 H 0.24786 0.87033 0.61934 0.0
H2151 H 0.24148 0.87545 0.60661 0.0
H2152 H 0.22933 0.83067 0.59046 0.0
H2153 H 0.20625 0.85014 0.58163 0.0
H2154 H 0.21493 0.80497 0.5631 0.0
H2155 H 0.20596 0.79774 0.57889 0.0
H2156 H 0.22399 0.80926 0.58009 0.0
H2157 H 0.18619 0.83926 0.5674 0.0
H2158 H 0.17716 0.82066 0.56747 0.0
H2159 H 0.18724 0.82922 0.55271 0.0
H2160 H 0.2518 0.84634 0.47102 0.0
H2161 H 0.2388 0.82932 0.48494 0.0
H2162 H 0.21005 0.84136 0.47327 0.0
H2163 H 0.22203 0.80777 0.51099 0.0
H2164 H 0.23278 0.80904 0.4967 0.0
H2165 H 0.21512 0.79595 0.49589 0.0
H2166 H 0.18774 0.82976 0.48102 0.0
H2167 H 0.18535 0.82098 0.49742 0.0
H2168 H 0.18108 0.81139 0.48075 0.0
H2169 H 0.12256 0.72573 0.48072 0.0
H2170 H 0.10973 0.70079 0.47438 0.0
H2171 H 0.12553 0.70575 0.48354 0.0
H2172 H 0.12376 0.70226 0.46455 0.0
H2173 H 0.16422 0.73696 0.47803 0.0
H2174 H 0.13461 0.74942 0.47664 0.0
H2175 H 0.18605 0.76149 0.50389 0.0
H2176 H 0.19222 0.76887 0.4871 0.0
H2177 H 0.18572 0.7507 0.48912 0.0
H2178 H 0.1395 0.77157 0.4846 0.0
H2179 H 0.15707 0.78481 0.48665 0.0
H2180 H 0.14826 0.77534 0.50168 0.0
H2181 H 0.17956 0.79617 0.57865 0.0
H2182 H 0.20971 0.82615 0.54414 0.0
H2183 H 0.21129 0.82472 0.51885 0.0
H2184 H 0.18679 0.78995 0.48176 0.0
H2185 H 0.15761 0.75951 0.51658 0.0
H2186 H 0.1556 0.76123 0.54169 0.0
H2187 H 0.25102 0.86941 0.48915 0.0
H2188 H 0.26516 0.86657 0.48831 0.0
H2189 H 0.24975 0.85396 0.49587 0.0
C2190 C 0.14984 0.39239 0.61687 0.0
C2191 C 0.13979 0.38841 0.60421 0.0
C2192 C 0.15126 0.38198 0.58634 0.0
C2193 C 0.16132 0.39547 0.58337 0.0
C2194 C 0.17218 0.39782 0.57496 0.0
C2195 C 0.17308 0.38649 0.56946 0.0
C2196 C 0.16287 0.37291 0.57219 0.0
C2197 C 0.15202 0.37084 0.5805 0.0
C2198 C 0.18282 0.41245 0.57209 0.0
C2199 C 0.16355 0.36061 0.56653 0.0
C2200 C 0.25631 0.41229 0.62471 0.0
C2201 C 0.24948 0.4005 0.61344 0.0
C2202 C 0.2418 0.40303 0.59022 0.0
C2203 C 0.23169 0.38941 0.58679 0.0
C2204 C 0.22106 0.38656 0.57713 0.0
C2205 C 0.22041 0.3976 0.57105 0.0
C2206 C 0.23076 0.41137 0.57437 0.0
C2207 C 0.24152 0.41386 0.58367 0.0
C2208 C 0.21038 0.37176 0.57366 0.0
C2209 C 0.23027 0.42346 0.56847 0.0
C2210 C 0.24768 0.41424 0.48206 0.0
C2211 C 0.23977 0.40014 0.4846 0.0
C2212 C 0.22708 0.39485 0.4906 0.0
C2213 C 0.22235 0.40391 0.49434 0.0
C2214 C 0.23007 0.41802 0.49123 0.0
C2215 C 0.24257 0.42295 0.48492 0.0
C2216 C 0.21885 0.37965 0.49321 0.0
C2217 C 0.22528 0.42795 0.4949 0.0
C2218 C 0.12452 0.38635 0.48223 0.0
C2219 C 0.13184 0.38691 0.4686 0.0
C2220 C 0.15003 0.383 0.47714 0.0
C2221 C 0.15382 0.37305 0.47821 0.0
C2222 C 0.16557 0.37585 0.48589 0.0
C2223 C 0.17383 0.38905 0.49252 0.0
C2224 C 0.17029 0.39934 0.49116 0.0
C2225 C 0.15836 0.39618 0.4836 0.0
C2226 C 0.16905 0.36465 0.48712 0.0
C2227 C 0.17902 0.41361 0.49788 0.0
C2228 C 0.18496 0.38895 0.56126 0.0
C2229 C 0.1966 0.39156 0.56891 0.0
C2230 C 0.20846 0.39476 0.56203 0.0
C2231 C 0.20879 0.39548 0.54705 0.0
C2232 C 0.22058 0.39889 0.53978 0.0
C2233 C 0.22095 0.40013 0.5251 0.0
C2234 C 0.2094 0.39755 0.51706 0.0
C2235 C 0.20968 0.39884 0.50213 0.0
C2236 C 0.19795 0.39592 0.49445 0.0
C2237 C 0.1859 0.39194 0.5013 0.0
C2238 C 0.1855 0.3909 0.51624 0.0
C2239 C 0.17362 0.38721 0.5235 0.0
C2240 C 0.17342 0.38661 0.53824 0.0
C2241 C 0.18501 0.38938 0.54627 0.0
C2242 C 0.19702 0.39279 0.53916 0.0
C2243 C 0.19729 0.39369 0.52414 0.0
C2244 C 0.28328 0.42806 0.48351 0.0
C2245 C 0.26935 0.41545 0.4801 0.0
O2246 O 0.14081 0.37924 0.59486 0.0
O2247 O 0.13827 0.37934 0.46988 0.0
O2248 O 0.26029 0.4198 0.47703 0.0
O2249 O 0.25173 0.40597 0.60008 0.0
H2250 H 0.1419 0.39782 0.59858 0.0
H2251 H 0.16036 0.39763 0.61324 0.0
H2252 H 0.14794 0.38306 0.62253 0.0
H2253 H 0.14893 0.3996 0.62446 0.0
H2254 H 0.16087 0.40424 0.58762 0.0
H2255 H 0.14419 0.36048 0.58275 0.0
H2256 H 0.19262 0.41478 0.57707 0.0
H2257 H 0.18022 0.4201 0.57631 0.0
H2258 H 0.1842 0.41364 0.56046 0.0
H2259 H 0.15493 0.3507 0.56982 0.0
H2260 H 0.1731 0.36135 0.57038 0.0
H2261 H 0.1636 0.36055 0.55474 0.0
H2262 H 0.23847 0.395 0.61553 0.0
H2263 H 0.25459 0.40815 0.63553 0.0
H2264 H 0.252 0.41915 0.62393 0.0
H2265 H 0.26734 0.41851 0.62315 0.0
H2266 H 0.23211 0.38104 0.59172 0.0
H2267 H 0.24945 0.42434 0.58638 0.0
H2268 H 0.20825 0.36999 0.562 0.0
H2269 H 0.20088 0.3695 0.57876 0.0
H2270 H 0.2134 0.36442 0.5775 0.0
H2271 H 0.23805 0.43343 0.57362 0.0
H2272 H 0.22018 0.42229 0.56994 0.0
H2273 H 0.23198 0.42383 0.55689 0.0
H2274 H 0.26646 0.40939 0.4899 0.0
H2275 H 0.2435 0.39327 0.48194 0.0
H2276 H 0.24868 0.43377 0.4827 0.0
H2277 H 0.2186 0.37811 0.50482 0.0
H2278 H 0.22309 0.37374 0.48803 0.0
H2279 H 0.20829 0.37541 0.48918 0.0
H2280 H 0.23279 0.43873 0.49244 0.0
H2281 H 0.22315 0.42761 0.50639 0.0
H2282 H 0.21573 0.42485 0.48883 0.0
H2283 H 0.13936 0.39781 0.46657 0.0
H2284 H 0.11925 0.39229 0.48116 0.0
H2285 H 0.13184 0.39093 0.49142 0.0
H2286 H 0.11701 0.37551 0.4845 0.0
H2287 H 0.14737 0.36293 0.47316 0.0
H2288 H 0.15566 0.40407 0.48289 0.0
H2289 H 0.16995 0.3628 0.4985 0.0
H2290 H 0.17897 0.36801 0.48241 0.0
H2291 H 0.16137 0.3548 0.48166 0.0
H2292 H 0.17561 0.42083 0.4947 0.0
H2293 H 0.18966 0.41786 0.49486 0.0
H2294 H 0.1788 0.41306 0.50963 0.0
H2295 H 0.19648 0.39128 0.58042 0.0
H2296 H 0.22973 0.40083 0.54538 0.0
H2297 H 0.23041 0.40307 0.52015 0.0
H2298 H 0.19823 0.39691 0.48301 0.0
H2299 H 0.16436 0.3849 0.51789 0.0
H2300 H 0.16404 0.38391 0.54326 0.0
H2301 H 0.29074 0.42481 0.48591 0.0
H2302 H 0.2828 0.4339 0.49299 0.0
H2303 H 0.28677 0.43505 0.47446 0.0
C2304 C 0.98924 0.3657 0.02297 0.0
C2305 C 0.99814 0.36063 0.02145 0.0
C2306 C 0.98837 0.37137 0.03601 0.0
C2307 C 0.99569 0.3735 0.07451 0.0
H2308 H 0.99861 0.40933 0.07289 0.0
C2309 C 0.00916 0.42293 0.11439 0.0
C2310 C 9e-05 0.4166 0.12531 0.0
C2311 C 0.00815 0.41549 0.10185 0.0
C2312 C 0.9978 0.39934 0.0735 0.0
H2313 H 0.01262 0.35697 0.03269 0.0
H2314 H 0.011 0.36682 0.05551 0.0
H2315 H 0.99789 0.39694 0.05089 0.0
H2316 H 0.98333 0.39736 0.13193 0.0
H2317 H 0.98161 0.38427 0.10996 0.0
H2318 H 0.99575 0.37602 0.09719 0.0
C2319 C 0.00473 0.3664 0.04656 0.0
C2320 C 0.99726 0.39219 0.06092 0.0
C2321 C 0.00569 0.36081 0.03347 0.0
C2322 C 0.99027 0.40255 0.12357 0.0
C2323 C 0.98935 0.39506 0.11107 0.0
C2324 C 0.99609 0.3806 0.08712 0.0
C2325 C 0.99629 0.37201 0.04787 0.0
C2326 C 0.99629 0.37924 0.06129 0.0
C2327 C 0.99824 0.40148 0.10006 0.0
C2328 C 0.99727 0.39365 0.08673 0.0
H2329 H 0.98323 0.3657 0.01398 0.0
H2330 H 0.98164 0.37545 0.03677 0.0
H2331 H 0.99489 0.36351 0.07509 0.0
H2332 H 0.01709 0.43363 0.11557 0.0
H2333 H 0.01528 0.42064 0.09364 0.0
C2334 C 0.6307 0.61737 0.05999 0.0
C2335 C 0.63911 0.61723 0.04942 0.0
C2336 C 0.62246 0.60552 0.06727 0.0
C2337 C 0.60778 0.56759 0.06664 0.0
H2338 H 0.60629 0.57295 0.1073 0.0
C2339 C 0.5869 0.52315 0.10592 0.0
C2340 C 0.579 0.52369 0.11687 0.0
C2341 C 0.59331 0.53408 0.09682 0.0
C2342 C 0.60645 0.57128 0.09593 0.0
H2343 H 0.64525 0.6044 0.03801 0.0
H2344 H 0.63103 0.58371 0.05097 0.0
H2345 H 0.61914 0.59281 0.09295 0.0
H2346 H 0.57172 0.53613 0.12697 0.0
H2347 H 0.5828 0.55516 0.11101 0.0
H2348 H 0.59523 0.54596 0.06978 0.0
C2349 C 0.63066 0.59296 0.05345 0.0
C2350 C 0.61381 0.58268 0.08769 0.0
C2351 C 0.63886 0.60484 0.04608 0.0
C2352 C 0.5776 0.53536 0.1185 0.0
C2353 C 0.58404 0.54629 0.10944 0.0
C2354 C 0.60044 0.55615 0.07492 0.0
C2355 C 0.62251 0.59323 0.0643 0.0
C2356 C 0.61454 0.58099 0.07293 0.0
C2357 C 0.59209 0.54585 0.09861 0.0
C2358 C 0.59967 0.5579 0.08966 0.0
H2359 H 0.63064 0.62671 0.06289 0.0
H2360 H 0.61612 0.60603 0.07537 0.0
H2361 H 0.60803 0.56594 0.05528 0.0
H2362 H 0.58833 0.51438 0.10457 0.0
H2363 H 0.59959 0.53352 0.08869 0.0
C2364 C 0.36317 0.99307 0.03031 0.0
C2365 C 0.37105 0.00138 0.01941 0.0
C2366 C 0.36916 0.99307 0.04335 0.0
C2367 C 0.40042 0.01218 0.06605 0.0
H2368 H 0.38853 0.97618 0.08099 0.0
C2369 C 0.42038 0.00483 0.12009 0.0
C2370 C 0.42329 0.99412 0.12053 0.0
C2371 C 0.41385 0.0062 0.10812 0.0
C2372 C 0.39202 0.9863 0.07692 0.0
H2373 H 0.39139 0.01663 0.01395 0.0
H2374 H 0.40183 0.0165 0.03664 0.0
H2375 H 0.37742 0.97808 0.05964 0.0
H2376 H 0.42141 0.97628 0.10893 0.0
H2377 H 0.41017 0.97876 0.08793 0.0
H2378 H 0.41528 0.02034 0.08315 0.0
C2379 C 0.39099 0.01007 0.03513 0.0
C2380 C 0.38553 0.98742 0.06478 0.0
C2381 C 0.385 0.0101 0.02209 0.0
C2382 C 0.41942 0.98472 0.10881 0.0
C2383 C 0.41288 0.98608 0.09686 0.0
C2384 C 0.40691 0.01106 0.07822 0.0
C2385 C 0.38318 0.00135 0.04581 0.0
C2386 C 0.3897 0.00035 0.05914 0.0
C2387 C 0.40998 0.99681 0.09638 0.0
C2388 C 0.40285 0.9981 0.08372 0.0
H2389 H 0.35238 0.98631 0.02868 0.0
H2390 H 0.36282 0.98642 0.05145 0.0
H2391 H 0.4038 0.0223 0.06204 0.0
H2392 H 0.42309 0.01209 0.12906 0.0
H2393 H 0.41159 0.01446 0.10817 0.0
C2394 C 0.36597 0.97496 0.95037 0.0
C2395 C 0.36579 0.97713 0.96506 0.0
C2396 C 0.37782 0.97727 0.94411 0.0
C2397 C 0.41407 0.9996 0.94952 0.0
H2398 H 0.41545 0.97911 0.9164 0.0
C2399 C 0.46159 0.02119 0.91626 0.0
C2400 C 0.45912 0.02047 0.90149 0.0
C2401 C 0.45104 0.0135 0.92527 0.0
C2402 C 0.41523 0.98495 0.92563 0.0
H2403 H 0.3775 0.98311 0.98489 0.0
H2404 H 0.39838 0.98718 0.97395 0.0
H2405 H 0.39511 0.96938 0.93026 0.0
H2406 H 0.44377 0.0111 0.88458 0.0
H2407 H 0.42534 0.99778 0.90025 0.0
H2408 H 0.43389 0.01545 0.94457 0.0
C2409 C 0.38936 0.98359 0.96727 0.0
C2410 C 0.4036 0.97936 0.93358 0.0
C2411 C 0.37744 0.98115 0.97354 0.0
C2412 C 0.44597 0.01169 0.8959 0.0
C2413 C 0.43544 0.00401 0.90489 0.0
C2414 C 0.42567 0.00521 0.94154 0.0
C2415 C 0.38976 0.98202 0.95243 0.0
C2416 C 0.40276 0.98678 0.94539 0.0
C2417 C 0.43779 0.005 0.91971 0.0
C2418 C 0.42626 0.99812 0.92928 0.0
H2419 H 0.35711 0.9721 0.94366 0.0
H2420 H 0.37783 0.97616 0.93264 0.0
H2421 H 0.41369 0.00567 0.95843 0.0
H2422 H 0.47161 0.028 0.92085 0.0
H2423 H 0.45322 0.01441 0.93662 0.0
C2424 C 0.01322 0.38478 0.972 0.0
C2425 C 0.02443 0.38305 0.97093 0.0
C2426 C 0.0129 0.39548 0.96524 0.0
C2427 C 0.02457 0.4142 0.93333 0.0
H2428 H 0.00817 0.43458 0.94817 0.0
C2429 C 0.0078 0.44247 0.89569 0.0
C2430 C 0.99493 0.44054 0.89799 0.0
C2431 C 0.01442 0.43915 0.90607 0.0
C2432 C 0.01272 0.42894 0.94384 0.0
H2433 H 0.04442 0.39146 0.96269 0.0
H2434 H 0.04376 0.41015 0.95045 0.0
H2435 H 0.01466 0.42214 0.96434 0.0
H2436 H 0.97915 0.43427 0.91318 0.0
H2437 H 0.9904 0.42797 0.9311 0.0
H2438 H 0.02186 0.42012 0.91275 0.0
C2439 C 0.03526 0.40325 0.95662 0.0
C2440 C 0.01652 0.4219 0.95312 0.0
C2441 C 0.03567 0.39264 0.96363 0.0
C2442 C 0.98905 0.43579 0.91112 0.0
C2443 C 0.99558 0.43232 0.92144 0.0
C2444 C 0.02063 0.42109 0.92403 0.0
C2445 C 0.02372 0.40456 0.9571 0.0
C2446 C 0.02213 0.41415 0.94789 0.0
C2447 C 0.00823 0.43367 0.91893 0.0
C2448 C 0.01429 0.42822 0.9291 0.0
H2449 H 0.00454 0.37766 0.97779 0.0
H2450 H 0.00384 0.39617 0.96573 0.0
H2451 H 0.02871 0.40816 0.92897 0.0
H2452 H 0.01262 0.44623 0.88571 0.0
H2453 H 0.02426 0.4406 0.90387 0.0
C2454 C 0.63104 0.63977 0.98825 0.0
C2455 C 0.62559 0.64032 0.00135 0.0
C2456 C 0.62291 0.63524 0.97576 0.0
C2457 C 0.59023 0.62913 0.96048 0.0
H2458 H 0.59369 0.60411 0.93407 0.0
C2459 C 0.55775 0.58777 0.91124 0.0
C2460 C 0.55298 0.59539 0.90414 0.0
C2461 C 0.56733 0.59387 0.92248 0.0
C2462 C 0.59254 0.61102 0.94138 0.0
H2463 H 0.60731 0.63672 0.01148 0.0
H2464 H 0.59321 0.62869 0.98986 0.0
H2465 H 0.60896 0.61378 0.95493 0.0
H2466 H 0.5552 0.6156 0.90256 0.0
H2467 H 0.57205 0.62633 0.922 0.0
H2468 H 0.57352 0.626 0.94729 0.0
C2469 C 0.6038 0.63194 0.98916 0.0
C2470 C 0.60141 0.61671 0.95324 0.0
C2471 C 0.6119 0.63648 0.0016 0.0
C2472 C 0.55842 0.60938 0.90811 0.0
C2473 C 0.56804 0.61551 0.91927 0.0
C2474 C 0.58134 0.62341 0.94867 0.0
C2475 C 0.60916 0.63115 0.9761 0.0
C2476 C 0.60028 0.62574 0.96301 0.0
C2477 C 0.57251 0.6078 0.92671 0.0
C2478 C 0.58231 0.6142 0.93902 0.0
H2479 H 0.64155 0.64268 0.98764 0.0
H2480 H 0.62741 0.63492 0.96584 0.0
H2481 H 0.58918 0.63618 0.96768 0.0
H2482 H 0.55399 0.57705 0.90819 0.0
H2483 H 0.57048 0.5876 0.92801 0.0
C2484 C 0.00573 0.64922 0.98687 0.0
C2485 C 0.01437 0.65178 0.99878 0.0
C2486 C 0.00729 0.6435 0.97419 0.0
C2487 C 0.02137 0.6224 0.96083 0.0
H2488 H 0.01382 0.63207 0.92397 0.0
C2489 C 0.02646 0.598 0.9081 0.0
C2490 C 0.01564 0.59343 0.89812 0.0
C2491 C 0.02742 0.60611 0.9201 0.0
C2492 C 0.01589 0.62922 0.9342 0.0
H2493 H 0.03181 0.65086 0.00643 0.0
H2494 H 0.03466 0.6411 0.98423 0.0
H2495 H 0.01392 0.64492 0.94533 0.0
H2496 H 0.99777 0.59437 0.89249 0.0
H2497 H 0.99939 0.60847 0.91347 0.0
H2498 H 0.02326 0.60665 0.94968 0.0
C2499 C 0.0265 0.64326 0.98481 0.0
C2500 C 0.01593 0.63657 0.94644 0.0
C2501 C 0.02491 0.64894 0.99752 0.0
C2502 C 0.00608 0.59754 0.90014 0.0
C2503 C 0.00708 0.60571 0.91208 0.0
C2504 C 0.02139 0.6151 0.94858 0.0
C2505 C 0.01756 0.64025 0.97306 0.0
C2506 C 0.0185 0.63314 0.95993 0.0
C2507 C 0.01771 0.61001 0.92224 0.0
C2508 C 0.01848 0.61831 0.93515 0.0
H2509 H 0.99748 0.65125 0.98743 0.0
H2510 H 0.00012 0.64118 0.96544 0.0
H2511 H 0.02317 0.61932 0.97105 0.0
H2512 H 0.03417 0.59528 0.90664 0.0
H2513 H 0.03583 0.60944 0.92763 0.0
C2514 C 0.37182 0.38794 0.96304 0.0
C2515 C 0.36559 0.38912 0.97528 0.0
C2516 C 0.37795 0.39885 0.95392 0.0
C2517 C 0.39096 0.43603 0.95015 0.0
H2518 H 0.37951 0.42488 0.91064 0.0
C2519 C 0.39718 0.47444 0.90707 0.0
C2520 C 0.3995 0.47161 0.8931 0.0
C2521 C 0.39485 0.46514 0.91771 0.0
C2522 C 0.38305 0.4282 0.92156 0.0
H2523 H 0.36156 0.40295 0.98796 0.0
H2524 H 0.3723 0.42206 0.97195 0.0
H2525 H 0.37259 0.40748 0.92831 0.0
H2526 H 0.40184 0.45718 0.87948 0.0
H2527 H 0.39821 0.44115 0.89808 0.0
H2528 H 0.4014 0.45681 0.94335 0.0
C2529 C 0.37245 0.41268 0.96946 0.0
C2530 C 0.37904 0.4182 0.93171 0.0
C2531 C 0.36626 0.40172 0.9786 0.0
C2532 C 0.39999 0.45958 0.89013 0.0
C2533 C 0.39781 0.45036 0.90078 0.0
C2534 C 0.39508 0.44608 0.93995 0.0
C2535 C 0.37802 0.4112 0.95682 0.0
C2536 C 0.38289 0.42198 0.94612 0.0
C2537 C 0.39489 0.45285 0.91463 0.0
C2538 C 0.39112 0.44228 0.92552 0.0
H2539 H 0.37152 0.37841 0.96015 0.0
H2540 H 0.38235 0.39748 0.94437 0.0
H2541 H 0.39414 0.43923 0.96118 0.0
H2542 H 0.39676 0.48367 0.90963 0.0
H2543 H 0.39251 0.46735 0.9282 0.0
C2544 C 0.63389 0.00129 0.98192 0.0
C2545 C 0.63136 0.99129 0.9919 0.0
C2546 C 0.62533 0.9981 0.96992 0.0
C2547 C 0.59075 0.97207 0.95615 0.0
H2548 H 0.60409 0.99059 0.92094 0.0
C2549 C 0.55404 0.96531 0.91002 0.0
C2550 C 0.55804 0.96501 0.89604 0.0
C2551 C 0.56329 0.96914 0.92151 0.0
C2552 C 0.60017 0.98517 0.93061 0.0
H2553 H 0.61827 0.9699 0.9968 0.0
H2554 H 0.60375 0.96409 0.97554 0.0
H2555 H 0.61981 0.9951 0.9407 0.0
H2556 H 0.57478 0.96835 0.88321 0.0
H2557 H 0.59076 0.97441 0.90321 0.0
H2558 H 0.57123 0.96155 0.94583 0.0
C2559 C 0.61199 0.97459 0.97721 0.0
C2560 C 0.60921 0.98794 0.94208 0.0
C2561 C 0.6204 0.97787 0.98936 0.0
C2562 C 0.57148 0.96865 0.89385 0.0
C2563 C 0.58065 0.97221 0.90535 0.0
C2564 C 0.58176 0.96911 0.94461 0.0
C2565 C 0.61417 0.98472 0.96746 0.0
C2566 C 0.60462 0.98148 0.95505 0.0
C2567 C 0.57667 0.97243 0.91936 0.0
C2568 C 0.58631 0.97567 0.93169 0.0
H2569 H 0.6422 0.01177 0.98366 0.0
H2570 H 0.62726 0.00626 0.96285 0.0
H2571 H 0.58674 0.96706 0.96599 0.0
H2572 H 0.54375 0.96247 0.91215 0.0
H2573 H 0.55988 0.96946 0.93208 0.0
C2574 C 0.64003 0.03423 0.04199 0.0
C2575 C 0.64267 0.02357 0.04463 0.0
C2576 C 0.63095 0.03598 0.05024 0.0
C2577 C 0.60374 0.01835 0.07601 0.0
H2578 H 0.61491 0.05562 0.08943 0.0
C2579 C 0.58352 0.03094 0.12635 0.0
C2580 C 0.58113 0.042 0.1262 0.0
C2581 C 0.58925 0.02806 0.11476 0.0
C2582 C 0.61152 0.04516 0.0856 0.0
H2583 H 0.63773 0.00629 0.0579 0.0
H2584 H 0.62211 0.00943 0.07233 0.0
H2585 H 0.62822 0.05179 0.07201 0.0
H2586 H 0.58261 0.05858 0.11373 0.0
H2587 H 0.59269 0.05357 0.09342 0.0
H2588 H 0.58728 0.01173 0.09 0.0
C2589 C 0.62682 0.0163 0.06374 0.0
C2590 C 0.61915 0.04297 0.07559 0.0
C2591 C 0.63585 0.01454 0.05549 0.0
C2592 C 0.58432 0.04996 0.11409 0.0
C2593 C 0.59015 0.04714 0.10252 0.0
C2594 C 0.59616 0.02055 0.08607 0.0
C2595 C 0.62435 0.02712 0.06132 0.0
C2596 C 0.61548 0.02952 0.07086 0.0
C2597 C 0.59283 0.03627 0.10282 0.0
C2598 C 0.60009 0.03397 0.09115 0.0
H2599 H 0.6451 0.04133 0.03365 0.0
H2600 H 0.62916 0.04433 0.04798 0.0
H2601 H 0.60049 0.00787 0.07239 0.0
H2602 H 0.58125 0.0247 0.13559 0.0
H2603 H 0.59136 0.01972 0.11538 0.0
C2604 C 0.9745 0.61781 0.0469 0.0
C2605 C 0.98538 0.63111 0.05037 0.0
C2606 C 0.97271 0.60654 0.05454 0.0
C2607 C 0.98077 0.59863 0.08962 0.0
H2608 H 0.97103 0.56306 0.07206 0.0
C2609 C 0.97862 0.55576 0.12291 0.0
C2610 C 0.96773 0.54234 0.12016 0.0
C2611 C 0.98126 0.56616 0.11354 0.0
C2612 C 0.97362 0.5729 0.07713 0.0
H2613 H 0.00305 0.64294 0.06438 0.0
H2614 H -3e-05 0.62334 0.07757 0.0
H2615 H 0.97457 0.582 0.05713 0.0
H2616 H 0.95127 0.52917 0.10529 0.0
H2617 H 0.95569 0.54745 0.08901 0.0
H2618 H 0.97962 0.58962 0.10958 0.0
C2619 C 0.99276 0.62163 0.06904 0.0
C2620 C 0.97565 0.58373 0.06857 0.0
C2621 C 0.99458 0.63285 0.0614 0.0
C2622 C 0.95974 0.53944 0.10764 0.0
C2623 C 0.96233 0.54989 0.09829 0.0
C2624 C 0.97867 0.58783 0.09815 0.0
C2625 C 0.98171 0.60838 0.06585 0.0
C2626 C 0.97934 0.59674 0.07475 0.0
C2627 C 0.97299 0.56344 0.10127 0.0
C2628 C 0.97516 0.57485 0.09202 0.0
H2629 H 0.96725 0.61614 0.03845 0.0
H2630 H 0.96406 0.59646 0.05189 0.0
H2631 H 0.98333 0.60845 0.09472 0.0
H2632 H 0.98497 0.55828 0.13245 0.0
H2633 H 0.98973 0.57641 0.11602 0.0
C2634 C 0.37751 0.36713 0.03663 0.0
C2635 C 0.38204 0.36547 0.02333 0.0
C2636 C 0.38566 0.37017 0.04894 0.0
C2637 C 0.41394 0.36747 0.06391 0.0
H2638 H 0.41663 0.39481 0.09188 0.0
C2639 C 0.44908 0.38284 0.11389 0.0
C2640 C 0.44389 0.38443 0.12675 0.0
C2641 C 0.44239 0.3817 0.10093 0.0
C2642 C 0.4159 0.38706 0.08424 0.0
H2643 H 0.39874 0.3657 0.01264 0.0
H2644 H 0.41291 0.37098 0.03416 0.0
H2645 H 0.40314 0.3903 0.06996 0.0
H2646 H 0.42757 0.38587 0.13616 0.0
H2647 H 0.41576 0.38369 0.11358 0.0
H2648 H 0.42644 0.36399 0.07826 0.0
C2649 C 0.40301 0.36986 0.03502 0.0
C2650 C 0.40817 0.38449 0.07168 0.0
C2651 C 0.39491 0.36689 0.02268 0.0
C2652 C 0.43191 0.38491 0.12638 0.0
C2653 C 0.42519 0.38371 0.11343 0.0
C2654 C 0.4216 0.36998 0.0765 0.0
C2655 C 0.39849 0.37156 0.04828 0.0
C2656 C 0.40704 0.3746 0.06142 0.0
C2657 C 0.43026 0.38194 0.10055 0.0
C2658 C 0.42262 0.37975 0.08687 0.0
H2659 H 0.36767 0.36611 0.03755 0.0
H2660 H 0.38182 0.37125 0.05903 0.0
H2661 H 0.41312 0.35967 0.05629 0.0
H2662 H 0.45818 0.38222 0.11387 0.0
H2663 H 0.44667 0.38051 0.0912 0.0
C2664 C 0.64683 0.69807 0.3559 0.0
C2665 C 0.65484 0.69193 0.35688 0.0
C2666 C 0.6428 0.70211 0.36812 0.0
C2667 C 0.65049 0.71007 0.40679 0.0
H2668 H 0.61459 0.70521 0.40627 0.0
C2669 C 0.61072 0.71465 0.44677 0.0
C2670 C 0.61958 0.72714 0.45419 0.0
C2671 C 0.61518 0.70985 0.43548 0.0
C2672 C 0.62459 0.7065 0.4067 0.0
H2673 H 0.66497 0.6853 0.37159 0.0
H2674 H 0.65767 0.6921 0.393 0.0
H2675 H 0.62189 0.69746 0.38577 0.0
H2676 H 0.64031 0.74398 0.4561 0.0
H2677 H 0.648 0.7359 0.43604 0.0
H2678 H 0.65301 0.71877 0.42793 0.0
C2679 C 0.65469 0.69399 0.38272 0.0
C2680 C 0.62886 0.70223 0.39483 0.0
C2681 C 0.65882 0.69002 0.37044 0.0
C2682 C 0.63315 0.73449 0.45037 0.0
C2683 C 0.63759 0.72975 0.43898 0.0
C2684 C 0.64617 0.71426 0.41874 0.0
C2685 C 0.64656 0.70002 0.38169 0.0
C2686 C 0.64191 0.70408 0.39465 0.0
C2687 C 0.62863 0.71742 0.4313 0.0
C2688 C 0.63318 0.71261 0.41881 0.0
H2689 H 0.64369 0.69986 0.34564 0.0
H2690 H 0.63682 0.70701 0.36689 0.0
H2691 H 0.66064 0.71175 0.407 0.0
H2692 H 0.6003 0.7086 0.44973 0.0
H2693 H 0.60807 0.70014 0.43006 0.0
C2694 C 0.30659 0.95588 0.40193 0.0
C2695 C 0.30985 0.9542 0.38799 0.0
C2696 C 0.29957 0.94448 0.41029 0.0
C2697 C 0.27612 0.90773 0.40958 0.0
H2698 H 0.2926 0.90875 0.4463 0.0
C2699 C 0.24855 0.87106 0.45517 0.0
C2700 C 0.25518 0.86467 0.46125 0.0
C2701 C 0.25496 0.88123 0.44527 0.0
C2702 C 0.28793 0.90832 0.43605 0.0
H2703 H 0.30794 0.93926 0.37168 0.0
H2704 H 0.29527 0.91921 0.38625 0.0
H2705 H 0.30409 0.92817 0.43075 0.0
H2706 H 0.27381 0.86425 0.46202 0.0
H2707 H 0.28516 0.88234 0.44495 0.0
H2708 H 0.25978 0.888 0.41509 0.0
C2709 C 0.29832 0.9294 0.39069 0.0
C2710 C 0.29444 0.91943 0.42722 0.0
C2711 C 0.30559 0.94085 0.3824 0.0
C2712 C 0.26841 0.86885 0.45735 0.0
C2713 C 0.2749 0.8792 0.44765 0.0
C2714 C 0.26947 0.89671 0.41855 0.0
C2715 C 0.29546 0.93116 0.40478 0.0
C2716 C 0.28859 0.91923 0.41393 0.0
C2717 C 0.26824 0.88549 0.44155 0.0
C2718 C 0.27534 0.89692 0.43185 0.0
H2719 H 0.30978 0.96604 0.40655 0.0
H2720 H 0.29739 0.94606 0.4211 0.0
H2721 H 0.27142 0.90739 0.39939 0.0
H2722 H 0.23848 0.86834 0.45817 0.0
H2723 H 0.2497 0.88608 0.44085 0.0
C2724 C 0.06557 0.34453 0.3566 0.0
C2725 C 0.05143 0.33792 0.35704 0.0
C2726 C 0.07359 0.34966 0.36906 0.0
C2727 C 0.07286 0.34712 0.40813 0.0
H2728 H 0.10648 0.38193 0.40681 0.0
C2729 C 0.11951 0.38999 0.44781 0.0
C2730 C 0.12181 0.38112 0.45608 0.0
C2731 C 0.11023 0.38476 0.43628 0.0
C2732 C 0.09706 0.37228 0.40744 0.0
H2733 H 0.03465 0.33143 0.37103 0.0
H2734 H 0.04872 0.34062 0.39283 0.0
H2735 H 0.0915 0.37288 0.38582 0.0
H2736 H 0.11557 0.35973 0.4593 0.0
H2737 H 0.09969 0.35062 0.43889 0.0
H2738 H 0.07832 0.34669 0.4299 0.0
C2739 C 0.05357 0.34166 0.38281 0.0
C2740 C 0.08854 0.36698 0.39532 0.0
C2741 C 0.04551 0.33644 0.37031 0.0
C2742 C 0.11424 0.36685 0.45291 0.0
C2743 C 0.10502 0.36162 0.44132 0.0
C2744 C 0.08137 0.35245 0.4203 0.0
C2745 C 0.06772 0.34842 0.3823 0.0
C2746 C 0.07641 0.35427 0.39546 0.0
C2747 C 0.10298 0.37053 0.43278 0.0
C2748 C 0.09362 0.36505 0.42007 0.0
H2749 H 0.0705 0.34574 0.3466 0.0
H2750 H 0.08443 0.35454 0.36829 0.0
H2751 H 0.06364 0.33725 0.40858 0.0
H2752 H 0.12495 0.40099 0.45025 0.0
H2753 H 0.1087 0.39189 0.43014 0.0
C2754 C 0.04503 0.30531 0.30885 0.0
C2755 C 0.03138 0.29649 0.31148 0.0
C2756 C 0.05234 0.30035 0.30172 0.0
C2757 C 0.04696 0.27465 0.27448 0.0
H2758 H 0.08529 0.2892 0.28116 0.0
C2759 C 0.07953 0.26862 0.23216 0.0
C2760 C 0.09151 0.28092 0.22957 0.0
C2761 C 0.07222 0.26766 0.24421 0.0
C2762 C 0.07458 0.28502 0.27917 0.0
H2763 H 0.01479 0.2754 0.30964 0.0
H2764 H 0.02759 0.26665 0.29687 0.0
H2765 H 0.07223 0.29224 0.2996 0.0
H2766 H 0.10513 0.30189 0.23742 0.0
H2767 H 0.09238 0.30029 0.25839 0.0
H2768 H 0.04941 0.26804 0.2538 0.0
C2769 C 0.03261 0.27744 0.30031 0.0
C2770 C 0.0671 0.28672 0.28973 0.0
C2771 C 0.02532 0.2824 0.30764 0.0
C2772 C 0.09607 0.29222 0.23929 0.0
C2773 C 0.08879 0.29125 0.25134 0.0
C2774 C 0.05444 0.27297 0.2639 0.0
C2775 C 0.04611 0.28646 0.29699 0.0
C2776 C 0.05332 0.282 0.28728 0.0
C2777 C 0.07673 0.27901 0.25387 0.0
C2778 C 0.06843 0.27859 0.26595 0.0
H2779 H 0.05003 0.31612 0.31205 0.0
H2780 H 0.06269 0.30759 0.29926 0.0
H2781 H 0.03638 0.27102 0.27222 0.0
H2782 H 0.07572 0.25982 0.22474 0.0
H2783 H 0.06298 0.2581 0.24589 0.0
C2784 C 0.69919 0.7242 0.31143 0.0
C2785 C 0.68832 0.7111 0.30733 0.0
C2786 C 0.70189 0.73571 0.30366 0.0
C2787 C 0.68644 0.74765 0.27661 0.0
H2788 H 0.72357 0.77372 0.26836 0.0
C2789 C 0.69991 0.79323 0.2407 0.0
C2790 C 0.71002 0.79619 0.2309 0.0
C2791 C 0.69777 0.78427 0.25163 0.0
C2792 C 0.71314 0.7665 0.27051 0.0
H2793 H 0.67183 0.69977 0.2918 0.0
H2794 H 0.67661 0.71964 0.27823 0.0
H2795 H 0.71863 0.75523 0.28437 0.0
H2796 H 0.72549 0.79171 0.2246 0.0
H2797 H 0.72158 0.77582 0.24344 0.0
H2798 H 0.68088 0.75843 0.2622 0.0
C2799 C 0.68288 0.72119 0.28762 0.0
C2800 C 0.71032 0.75601 0.27986 0.0
C2801 C 0.68017 0.70975 0.29539 0.0
C2802 C 0.71783 0.78986 0.23219 0.0
C2803 C 0.71562 0.78081 0.24304 0.0
C2804 C 0.68925 0.75808 0.2672 0.0
C2805 C 0.69379 0.73431 0.29161 0.0
C2806 C 0.69691 0.74629 0.28282 0.0
C2807 C 0.70552 0.77783 0.25287 0.0
C2808 C 0.70263 0.7675 0.26384 0.0
H2809 H 0.70564 0.72557 0.3206 0.0
H2810 H 0.71029 0.74569 0.30711 0.0
H2811 H 0.67601 0.7405 0.27884 0.0
H2812 H 0.69355 0.79774 0.23982 0.0
H2813 H 0.68997 0.78231 0.25907 0.0
C2814 C 0.27649 0.96866 0.34393 0.0
C2815 C 0.29037 0.97434 0.34186 0.0
C2816 C 0.26729 0.96404 0.33233 0.0
C2817 C 0.26363 0.95327 0.29411 0.0
H2818 H 0.23245 0.95793 0.29519 0.0
C2819 C 0.21763 0.94742 0.25446 0.0
C2820 C 0.21406 0.9349 0.24719 0.0
C2821 C 0.22695 0.95228 0.26596 0.0
C2822 C 0.24116 0.95665 0.29462 0.0
H2823 H 0.30545 0.97983 0.3259 0.0
H2824 H 0.28945 0.97211 0.30566 0.0
H2825 H 0.24892 0.9669 0.31497 0.0
H2826 H 0.21791 0.91792 0.24592 0.0
H2827 H 0.23381 0.92611 0.26632 0.0
H2828 H 0.2561 0.94344 0.27354 0.0
C2829 C 0.28564 0.97093 0.31628 0.0
C2830 C 0.25054 0.96164 0.30608 0.0
C2831 C 0.29483 0.97545 0.32789 0.0
C2832 C 0.22023 0.92746 0.25151 0.0
C2833 C 0.22948 0.93225 0.26309 0.0
C2834 C 0.2543 0.94837 0.2826 0.0
C2835 C 0.27173 0.96509 0.31834 0.0
C2836 C 0.26187 0.95998 0.30601 0.0
C2837 C 0.23297 0.94474 0.27046 0.0
C2838 C 0.24293 0.94996 0.28272 0.0
H2839 H 0.27267 0.96755 0.35454 0.0
H2840 H 0.25666 0.9594 0.33436 0.0
H2841 H 0.27214 0.95164 0.29373 0.0
H2842 H 0.21329 0.95354 0.25113 0.0
H2843 H 0.22961 0.96208 0.27115 0.0
C2844 C 0.67805 0.96177 0.31659 0.0
C2845 C 0.68291 0.9625 0.3306 0.0
C2846 C 0.68411 0.95916 0.30509 0.0
C2847 C 0.71599 0.96137 0.29495 0.0
H2848 H 0.69431 0.93689 0.26325 0.0
C2849 C 0.74005 0.94679 0.24961 0.0
C2850 C 0.73545 0.94686 0.2357 0.0
C2851 C 0.73311 0.94759 0.2613 0.0
C2852 C 0.70051 0.94384 0.27197 0.0
H2853 H 0.69792 0.96091 0.34344 0.0
H2854 H 0.70837 0.95629 0.32343 0.0
H2855 H 0.68325 0.94062 0.28339 0.0
H2856 H 0.72007 0.94791 0.22312 0.0
H2857 H 0.70795 0.94939 0.24352 0.0
H2858 H 0.73323 0.96473 0.28352 0.0
C2859 C 0.69998 0.9579 0.32132 0.0
C2860 C 0.69417 0.94599 0.2835 0.0
C2861 C 0.69392 0.96048 0.33281 0.0
C2862 C 0.7237 0.94761 0.23372 0.0
C2863 C 0.71676 0.94842 0.24541 0.0
C2864 C 0.72231 0.95924 0.28343 0.0
C2865 C 0.69518 0.95725 0.30732 0.0
C2866 C 0.70184 0.9548 0.29511 0.0
C2867 C 0.72148 0.9486 0.25935 0.0
C2868 C 0.71466 0.95047 0.27178 0.0
H2869 H 0.6696 0.96327 0.31446 0.0
H2870 H 0.68026 0.95887 0.29442 0.0
H2871 H 0.7222 0.96841 0.30361 0.0
H2872 H 0.74919 0.94641 0.25145 0.0
H2873 H 0.73694 0.94754 0.27189 0.0
C2874 C 0.04353 0.73199 0.29659 0.0
C2875 C 0.03674 0.73141 0.30904 0.0
C2876 C 0.04918 0.74376 0.28861 0.0
C2877 C 0.04536 0.77363 0.28144 0.0
H2878 H 0.07707 0.78435 0.25933 0.0
C2879 C 0.06374 0.81691 0.24124 0.0
C2880 C 0.06592 0.81307 0.22765 0.0
C2881 C 0.06222 0.80879 0.25283 0.0
C2882 C 0.06821 0.78148 0.26546 0.0
H2883 H 0.03102 0.74296 0.32321 0.0
H2884 H 0.04111 0.7637 0.30937 0.0
H2885 H 0.071 0.76703 0.27717 0.0
H2886 H 0.0686 0.79799 0.21559 0.0
H2887 H 0.06608 0.78388 0.23584 0.0
H2888 H 0.0425 0.78798 0.26956 0.0
C2889 C 0.04186 0.75492 0.30565 0.0
C2890 C 0.0647 0.77154 0.27565 0.0
C2891 C 0.03615 0.74308 0.31363 0.0
C2892 C 0.06698 0.80122 0.22596 0.0
C2893 C 0.0656 0.79319 0.23756 0.0
C2894 C 0.04894 0.78366 0.27133 0.0
C2895 C 0.04823 0.75531 0.2929 0.0
C2896 C 0.05303 0.76722 0.28351 0.0
C2897 C 0.06298 0.79676 0.25107 0.0
C2898 C 0.06021 0.78744 0.26299 0.0
H2899 H 0.04408 0.72315 0.29266 0.0
H2900 H 0.05378 0.74356 0.27873 0.0
H2901 H 0.03621 0.77046 0.28714 0.0
H2902 H 0.0629 0.82602 0.24281 0.0
H2903 H 0.0603 0.81184 0.26314 0.0
C2904 C 0.27677 0.30781 0.33095 0.0
C2905 C 0.28978 0.31952 0.33128 0.0
C2906 C 0.26904 0.30298 0.31823 0.0
C2907 C 0.27184 0.30471 0.27912 0.0
H2908 H 0.23341 0.29124 0.27945 0.0
C2909 C 0.23926 0.29077 0.22732 0.0
C2910 C 0.22685 0.27834 0.22696 0.0
C2911 C 0.24668 0.29628 0.24013 0.0
C2912 C 0.24411 0.29488 0.2792 0.0
H2913 H 0.30484 0.33532 0.3184 0.0
H2914 H 0.2913 0.32701 0.29631 0.0
H2915 H 0.24697 0.29978 0.30159 0.0
H2916 H 0.21254 0.26184 0.23969 0.0
H2917 H 0.22544 0.27153 0.26212 0.0
H2918 H 0.26898 0.29983 0.25673 0.0
C2919 C 0.28714 0.32143 0.30585 0.0
C2920 C 0.25188 0.29974 0.29189 0.0
C2921 C 0.29489 0.32623 0.31855 0.0
C2922 C 0.22194 0.27159 0.23971 0.0
C2923 C 0.22933 0.27713 0.25253 0.0
C2924 C 0.26408 0.2999 0.26643 0.0
C2925 C 0.27411 0.30976 0.30553 0.0
C2926 C 0.26584 0.30468 0.29202 0.0
C2927 C 0.24187 0.28946 0.25286 0.0
C2928 C 0.25013 0.29489 0.26633 0.0
H2929 H 0.27251 0.30233 0.34052 0.0
H2930 H 0.25913 0.29384 0.31834 0.0
H2931 H 0.28251 0.30822 0.27884 0.0
H2932 H 0.24335 0.29608 0.21763 0.0
H2933 H 0.25624 0.30586 0.24006 0.0
C2934 C 0.29656 0.35036 0.39394 0.0
C2935 C 0.30328 0.3583 0.38234 0.0
C2936 C 0.29005 0.35469 0.40335 0.0
C2937 C 0.2774 0.37885 0.40898 0.0
H2938 H 0.28779 0.37871 0.44836 0.0
C2939 C 0.2726 0.41208 0.454 0.0
C2940 C 0.26992 0.40691 0.46771 0.0
C2941 C 0.27449 0.40475 0.44292 0.0
C2942 C 0.28453 0.3786 0.43747 0.0
H2943 H 0.30772 0.37658 0.37102 0.0
H2944 H 0.29637 0.38417 0.38752 0.0
H2945 H 0.29454 0.36813 0.42996 0.0
H2946 H 0.26644 0.38974 0.48043 0.0
H2947 H 0.2693 0.37673 0.46104 0.0
H2948 H 0.2675 0.3895 0.41654 0.0
C2949 C 0.29611 0.37457 0.38929 0.0
C2950 C 0.28843 0.37253 0.4269 0.0
C2951 C 0.30266 0.37024 0.37988 0.0
C2952 C 0.26858 0.39401 0.46998 0.0
C2953 C 0.27032 0.38662 0.45889 0.0
C2954 C 0.2734 0.38487 0.4196 0.0
C2955 C 0.2901 0.36705 0.40137 0.0
C2956 C 0.28502 0.37268 0.41253 0.0
C2957 C 0.27363 0.39204 0.4453 0.0
C2958 C 0.27703 0.38492 0.43398 0.0
H2959 H 0.29679 0.34109 0.39614 0.0
H2960 H 0.28531 0.34856 0.41244 0.0
H2961 H 0.27455 0.37904 0.39799 0.0
H2962 H 0.27366 0.42201 0.45198 0.0
H2963 H 0.27714 0.40932 0.43265 0.0
C2964 C 0.63086 0.92541 0.37208 0.0
C2965 C 0.64207 0.93833 0.37608 0.0
C2966 C 0.62646 0.91436 0.38107 0.0
C2967 C 0.62682 0.9081 0.41897 0.0
H2968 H 0.61281 0.87005 0.40626 0.0
C2969 C 0.60652 0.8651 0.45889 0.0
C2970 C 0.59438 0.853 0.45497 0.0
C2971 C 0.6137 0.87483 0.44883 0.0
C2972 C 0.6166 0.88061 0.40996 0.0
H2973 H 0.65782 0.9496 0.39237 0.0
H2974 H 0.65023 0.93033 0.40794 0.0
H2975 H 0.62299 0.8883 0.38922 0.0
H2976 H 0.58041 0.84138 0.43739 0.0
H2977 H 0.59275 0.85853 0.41982 0.0
H2978 H 0.62014 0.90053 0.43956 0.0
C2979 C 0.64474 0.92878 0.39794 0.0
C2980 C 0.62245 0.89106 0.4002 0.0
C2981 C 0.64914 0.9398 0.38895 0.0
C2982 C 0.58977 0.85062 0.44067 0.0
C2983 C 0.59689 0.86041 0.43061 0.0
C2984 C 0.62093 0.89769 0.42868 0.0
C2985 C 0.63316 0.91604 0.39426 0.0
C2986 C 0.62757 0.90491 0.40461 0.0
C2987 C 0.60882 0.87276 0.43463 0.0
C2988 C 0.61568 0.88381 0.42431 0.0
H2989 H 0.6252 0.92395 0.36222 0.0
H2990 H 0.61746 0.90469 0.37798 0.0
H2991 H 0.63041 0.91864 0.42266 0.0
H2992 H 0.61034 0.86717 0.46983 0.0
H2993 H 0.62298 0.88408 0.45224 0.0
C2994 C 0.0711 0.71429 0.35518 0.0
C2995 C 0.05756 0.71091 0.35594 0.0
C2996 C 0.07901 0.71674 0.36755 0.0
C2997 C 0.08191 0.72606 0.40578 0.0
H2998 H 0.10297 0.70795 0.40793 0.0
C2999 C 0.10671 0.72274 0.45837 0.0
C3000 C 0.11918 0.7233 0.45782 0.0
C3001 C 0.0998 0.72244 0.44587 0.0
C3002 C 0.09736 0.71329 0.40745 0.0
H3003 H 0.04184 0.7078 0.37039 0.0
H3004 H 0.05572 0.71214 0.39201 0.0
H3005 H 0.08977 0.70522 0.38632 0.0
H3006 H 0.13417 0.7239 0.44374 0.0
H3007 H 0.12237 0.72387 0.42194 0.0
H3008 H 0.08954 0.73419 0.4269 0.0
C3009 C 0.06018 0.7129 0.38179 0.0
C3010 C 0.08975 0.71168 0.39506 0.0
C3011 C 0.05221 0.71034 0.3694 0.0
C3012 C 0.12468 0.7237 0.44451 0.0
C3013 C 0.11782 0.7235 0.43201 0.0
C3014 C 0.08961 0.72776 0.41816 0.0
C3015 C 0.07362 0.71598 0.38099 0.0
C3016 C 0.08189 0.71799 0.3941 0.0
C3017 C 0.10519 0.72266 0.43252 0.0
C3018 C 0.09739 0.72135 0.41917 0.0
H3019 H 0.07558 0.71485 0.34501 0.0
H3020 H 0.08938 0.71925 0.36659 0.0
H3021 H 0.07607 0.73117 0.40528 0.0
H3022 H 0.10213 0.72215 0.46848 0.0
H3023 H 0.09 0.72155 0.44668 0.0
C3024 C 0.32719 0.02823 0.69617 0.0
C3025 C 0.32277 0.02958 0.6826 0.0
C3026 C 0.3228 0.03192 0.70842 0.0
C3027 C 0.29613 0.03887 0.72079 0.0
H3028 H 0.32098 0.05714 0.75306 0.0
C3029 C 0.30082 0.07231 0.77563 0.0
C3030 C 0.28738 0.06476 0.77985 0.0
C3031 C 0.30517 0.06752 0.76421 0.0
C3032 C 0.31393 0.05216 0.7441 0.0
H3033 H 0.3104 0.03605 0.67131 0.0
H3034 H 0.30307 0.04275 0.69252 0.0
H3035 H 0.32849 0.05 0.73217 0.0
H3036 H 0.2683 0.04582 0.77607 0.0
H3037 H 0.27594 0.03726 0.75639 0.0
H3038 H 0.28176 0.04154 0.73241 0.0
C3039 C 0.30963 0.03851 0.69378 0.0
C3040 C 0.31819 0.04787 0.73218 0.0
C3041 C 0.31391 0.03473 0.68158 0.0
C3042 C 0.2786 0.05203 0.7728 0.0
C3043 C 0.28298 0.04717 0.76149 0.0
C3044 C 0.29191 0.04325 0.73264 0.0
C3045 C 0.31397 0.03713 0.70737 0.0
C3046 C 0.30936 0.04125 0.72033 0.0
C3047 C 0.29629 0.05492 0.75692 0.0
C3048 C 0.30076 0.05 0.74445 0.0
H3049 H 0.33399 0.02428 0.69735 0.0
H3050 H 0.32623 0.03055 0.71871 0.0
H3051 H 0.28896 0.03361 0.71198 0.0
H3052 H 0.30794 0.08201 0.78106 0.0
H3053 H 0.31546 0.07383 0.76096 0.0
C3054 C 0.97636 0.26284 0.71468 0.0
C3055 C 0.97081 0.27119 0.71196 0.0
C3056 C 0.96874 0.25022 0.72107 0.0
C3057 C 0.93778 0.23095 0.74197 0.0
H3058 H 0.94344 0.20031 0.73377 0.0
C3059 C 0.89763 0.1734 0.76729 0.0
C3060 C 0.90782 0.16664 0.77569 0.0
C3061 C 0.90725 0.18866 0.75742 0.0
C3062 C 0.94183 0.20882 0.73622 0.0
H3063 H 0.9527 0.27253 0.71291 0.0
H3064 H 0.9392 0.25035 0.72346 0.0
H3065 H 0.95609 0.22156 0.72119 0.0
H3066 H 0.9295 0.16508 0.77315 0.0
H3067 H 0.94334 0.18908 0.75624 0.0
H3068 H 0.92323 0.21796 0.75673 0.0
C3069 C 0.94963 0.25374 0.72133 0.0
C3070 C 0.94911 0.22104 0.72905 0.0
C3071 C 0.95735 0.26647 0.71522 0.0
C3072 C 0.92426 0.17001 0.76888 0.0
C3073 C 0.93298 0.18534 0.75892 0.0
C3074 C 0.93032 0.21864 0.74892 0.0
C3075 C 0.95527 0.24553 0.72459 0.0
C3076 C 0.94726 0.23232 0.7319 0.0
C3077 C 0.92473 0.19473 0.7538 0.0
C3078 C 0.93236 0.20753 0.74617 0.0
H3079 H 0.98676 0.26629 0.71231 0.0
H3080 H 0.97355 0.24434 0.72357 0.0
H3081 H 0.93626 0.23946 0.74475 0.0
H3082 H 0.88752 0.17028 0.77048 0.0
H3083 H 0.90249 0.19424 0.75369 0.0
C3084 C 0.7312 0.69063 0.69009 0.0
C3085 C 0.71727 0.68134 0.69087 0.0
C3086 C 0.73944 0.69571 0.70241 0.0
C3087 C 0.75382 0.71073 0.72993 0.0
H3088 H 0.74801 0.68642 0.76077 0.0
C3089 C 0.78623 0.73044 0.78201 0.0
C3090 C 0.79025 0.72176 0.78809 0.0
C3091 C 0.77661 0.72559 0.77079 0.0
C3092 C 0.74984 0.69333 0.75221 0.0
H3093 H 0.70109 0.67024 0.70532 0.0
H3094 H 0.71548 0.67937 0.72689 0.0
H3095 H 0.7328 0.67787 0.73985 0.0
H3096 H 0.78674 0.70091 0.78769 0.0
H3097 H 0.77036 0.69256 0.76776 0.0
H3098 H 0.77119 0.72599 0.74195 0.0
C3099 C 0.72005 0.68252 0.71669 0.0
C3100 C 0.74099 0.68847 0.74029 0.0
C3101 C 0.71178 0.67734 0.70433 0.0
C3102 C 0.7841 0.70795 0.783 0.0
C3103 C 0.77456 0.70312 0.7717 0.0
C3104 C 0.76271 0.71554 0.74178 0.0
C3105 C 0.734 0.69174 0.71588 0.0
C3106 C 0.74294 0.69708 0.72893 0.0
C3107 C 0.77074 0.7119 0.76539 0.0
C3108 C 0.76091 0.70688 0.75304 0.0
H3109 H 0.73582 0.69387 0.67992 0.0
H3110 H 0.75016 0.70257 0.70133 0.0
H3111 H 0.75552 0.71773 0.7215 0.0
H3112 H 0.79055 0.74102 0.78597 0.0
H3113 H 0.77369 0.73255 0.76644 0.0
C3114 C 0.71096 0.65137 0.63076 0.0
C3115 C 0.70303 0.64266 0.64137 0.0
C3116 C 0.71893 0.648 0.62253 0.0
C3117 C 0.73371 0.62536 0.62017 0.0
H3118 H 0.73331 0.63147 0.57986 0.0
C3119 C 0.75279 0.60178 0.57745 0.0
C3120 C 0.76027 0.61031 0.56651 0.0
C3121 C 0.74671 0.60621 0.58735 0.0
C3122 C 0.73367 0.62986 0.59111 0.0
H3123 H 0.6975 0.62369 0.65187 0.0
H3124 H 0.71124 0.61763 0.63726 0.0
H3125 H 0.72115 0.63831 0.59584 0.0
H3126 H 0.76714 0.63011 0.55726 0.0
H3127 H 0.75662 0.63791 0.57461 0.0
H3128 H 0.74607 0.61665 0.61527 0.0
C3129 C 0.71145 0.62721 0.63547 0.0
C3130 C 0.72672 0.6338 0.60029 0.0
C3131 C 0.70353 0.63065 0.6438 0.0
C3132 C 0.76156 0.62338 0.56568 0.0
C3133 C 0.75546 0.62779 0.57554 0.0
C3134 C 0.74064 0.62135 0.61094 0.0
C3135 C 0.71907 0.63575 0.62458 0.0
C3136 C 0.72667 0.63164 0.61494 0.0
C3137 C 0.74786 0.61921 0.5864 0.0
C3138 C 0.74071 0.62359 0.59632 0.0
H3139 H 0.71082 0.66068 0.62857 0.0
H3140 H 0.72488 0.65494 0.61442 0.0
H3141 H 0.73399 0.62368 0.63141 0.0
H3142 H 0.75145 0.59157 0.57819 0.0
H3143 H 0.74077 0.5993 0.59548 0.0
C3144 C 0.34856 0.05149 0.62406 0.0
C3145 C 0.35724 0.05279 0.63547 0.0
C3146 C 0.34985 0.06315 0.61776 0.0
C3147 C 0.37342 0.09967 0.61215 0.0
H3148 H 0.34066 0.10071 0.60461 0.0
C3149 C 0.37343 0.14764 0.59076 0.0
C3150 C 0.36305 0.14518 0.58088 0.0
C3151 C 0.37335 0.13668 0.59754 0.0
C3152 C 0.3499 0.10053 0.60645 0.0
H3153 H 0.37435 0.06738 0.64894 0.0
H3154 H 0.37665 0.08785 0.63779 0.0
H3155 H 0.33944 0.08113 0.61631 0.0
H3156 H 0.34458 0.12932 0.57021 0.0
H3157 H 0.34463 0.11021 0.58167 0.0
H3158 H 0.38386 0.11901 0.60207 0.0
C3159 C 0.36882 0.07775 0.63381 0.0
C3160 C 0.34919 0.08931 0.61321 0.0
C3161 C 0.36746 0.06604 0.64022 0.0
C3162 C 0.35273 0.13153 0.57774 0.0
C3163 C 0.3527 0.1206 0.58443 0.0
C3164 C 0.37413 0.11089 0.60528 0.0
C3165 C 0.35992 0.0764 0.62261 0.0
C3166 C 0.36091 0.08869 0.61602 0.0
C3167 C 0.36289 0.12304 0.59457 0.0
C3168 C 0.36234 0.11137 0.60222 0.0
H3169 H 0.34076 0.04146 0.61992 0.0
H3170 H 0.343 0.06177 0.60897 0.0
H3171 H 0.3826 0.09941 0.61409 0.0
H3172 H 0.38144 0.15807 0.59345 0.0
H3173 H 0.38129 0.13895 0.60539 0.0
C3174 C 0.96047 0.29682 0.65149 0.0
C3175 C 0.95388 0.2921 0.66433 0.0
C3176 C 0.953 0.29425 0.6387 0.0
C3177 C 0.91897 0.28553 0.62536 0.0
H3178 H 0.92976 0.27634 0.58986 0.0
C3179 C 0.89455 0.2617 0.5658 0.0
C3180 C 0.88752 0.26875 0.56348 0.0
C3181 C 0.90351 0.2653 0.57751 0.0
C3182 C 0.92657 0.27882 0.59971 0.0
H3183 H 0.93429 0.28048 0.67366 0.0
H3184 H 0.92138 0.27579 0.65146 0.0
H3185 H 0.94347 0.28051 0.61157 0.0
H3186 H 0.88518 0.28577 0.57096 0.0
H3187 H 0.90099 0.29226 0.59129 0.0
H3188 H 0.90185 0.28338 0.61373 0.0
C3189 C 0.93228 0.2818 0.65127 0.0
C3190 C 0.93451 0.28137 0.61212 0.0
C3191 C 0.93971 0.28443 0.66402 0.0
C3192 C 0.89019 0.27993 0.57271 0.0
C3193 C 0.89921 0.2836 0.58436 0.0
C3194 C 0.91102 0.28294 0.61301 0.0
C3195 C 0.93881 0.28687 0.63849 0.0
C3196 C 0.93073 0.28463 0.62512 0.0
C3197 C 0.90582 0.27619 0.58705 0.0
C3198 C 0.91466 0.27947 0.60004 0.0
H3199 H 0.97138 0.30278 0.65135 0.0
H3200 H 0.95835 0.29837 0.62905 0.0
H3201 H 0.91587 0.28825 0.63514 0.0
H3202 H 0.89294 0.25323 0.55867 0.0
H3203 H 0.90836 0.25932 0.57928 0.0
C3204 C 0.36293 0.30822 0.662 0.0
C3205 C 0.35132 0.30942 0.66148 0.0
C3206 C 0.36783 0.30549 0.64959 0.0
C3207 C 0.35744 0.29081 0.61296 0.0
H3208 H 0.39584 0.31095 0.60663 0.0
C3209 C 0.37954 0.2886 0.55888 0.0
C3210 C 0.39195 0.28899 0.55893 0.0
C3211 C 0.3743 0.29029 0.57158 0.0
C3212 C 0.38511 0.30506 0.60831 0.0
H3213 H 0.33581 0.30873 0.64738 0.0
H3214 H 0.3444 0.30399 0.62574 0.0
H3215 H 0.38737 0.31569 0.62831 0.0
H3216 H 0.40867 0.29156 0.57233 0.0
H3217 H 0.39936 0.2941 0.59456 0.0
H3218 H 0.35517 0.28013 0.59301 0.0
C3219 C 0.34964 0.30506 0.6358 0.0
C3220 C 0.38025 0.30783 0.62074 0.0
C3221 C 0.34477 0.30788 0.64821 0.0
C3222 C 0.39897 0.29099 0.57198 0.0
C3223 C 0.3937 0.29261 0.58469 0.0
C3224 C 0.36231 0.28799 0.60056 0.0
C3225 C 0.36121 0.30382 0.63635 0.0
C3226 C 0.36636 0.30078 0.62318 0.0
C3227 C 0.38138 0.29247 0.58464 0.0
C3228 C 0.3762 0.29512 0.59805 0.0
H3229 H 0.36823 0.30933 0.67202 0.0
H3230 H 0.37669 0.30446 0.65039 0.0
H3231 H 0.3467 0.28506 0.61464 0.0
H3232 H 0.37406 0.28735 0.54895 0.0
H3233 H 0.36491 0.29035 0.57108 0.0
C3234 C 0.70808 0.07328 0.64055 0.0
C3235 C 0.70685 0.06042 0.63725 0.0
C3236 C 0.71441 0.08409 0.63129 0.0
C3237 C 0.72061 0.08919 0.59337 0.0
H3238 H 0.74284 0.12782 0.60499 0.0
C3239 C 0.74002 0.13086 0.55198 0.0
C3240 C 0.73902 0.14256 0.55527 0.0
C3241 C 0.73841 0.12167 0.56247 0.0
C3242 C 0.73657 0.11708 0.60159 0.0
H3243 H 0.71192 0.04906 0.62201 0.0
H3244 H 0.72304 0.06793 0.60598 0.0
H3245 H 0.736 0.11025 0.62275 0.0
H3246 H 0.73595 0.15404 0.57216 0.0
H3247 H 0.7328 0.13782 0.59047 0.0
H3248 H 0.72074 0.09589 0.57235 0.0
C3249 C 0.71896 0.0696 0.61562 0.0
C3250 C 0.73269 0.10703 0.61176 0.0
C3251 C 0.71266 0.05881 0.62487 0.0
C3252 C 0.73679 0.14511 0.56936 0.0
C3253 C 0.73508 0.13586 0.57986 0.0
C3254 C 0.72442 0.09921 0.58324 0.0
C3255 C 0.71959 0.08224 0.61853 0.0
C3256 C 0.72458 0.09298 0.60776 0.0
C3257 C 0.73561 0.12388 0.57647 0.0
C3258 C 0.73236 0.11329 0.58722 0.0
H3259 H 0.70372 0.07485 0.65002 0.0
H3260 H 0.71465 0.09367 0.63379 0.0
H3261 H 0.71413 0.07847 0.58997 0.0
H3262 H 0.74177 0.12867 0.5412 0.0
H3263 H 0.73914 0.11269 0.55955 0.0
C3264 C 0.93495 0.64458 0.66302 0.0
C3265 C 0.94836 0.65558 0.66407 0.0
C3266 C 0.92824 0.63971 0.64977 0.0
C3267 C 0.93464 0.63955 0.61133 0.0
H3268 H 0.89646 0.6269 0.60698 0.0
C3269 C 0.90649 0.62312 0.55662 0.0
C3270 C 0.89419 0.61057 0.55597 0.0
C3271 C 0.91281 0.62942 0.56973 0.0
C3272 C 0.90711 0.63034 0.60807 0.0
H3273 H 0.96514 0.67022 0.65195 0.0
H3274 H 0.95335 0.66192 0.62889 0.0
H3275 H 0.90815 0.63648 0.62999 0.0
H3276 H 0.87893 0.59466 0.56854 0.0
H3277 H 0.88988 0.60577 0.59148 0.0
H3278 H 0.93359 0.63347 0.58938 0.0
C3279 C 0.9481 0.65686 0.63829 0.0
C3280 C 0.91381 0.63579 0.62125 0.0
C3281 C 0.95485 0.66167 0.65154 0.0
C3282 C 0.88826 0.60449 0.56872 0.0
C3283 C 0.89453 0.61084 0.58184 0.0
C3284 C 0.92797 0.63421 0.59813 0.0
C3285 C 0.93472 0.64576 0.63722 0.0
C3286 C 0.92765 0.64038 0.62308 0.0
C3287 C 0.90697 0.62327 0.58248 0.0
C3288 C 0.91411 0.62947 0.59638 0.0
H3289 H 0.92966 0.63959 0.67244 0.0
H3290 H 0.91803 0.63101 0.64936 0.0
H3291 H 0.94523 0.64274 0.61238 0.0
H3292 H 0.91136 0.62791 0.54695 0.0
H3293 H 0.92235 0.63904 0.5699 0.0
C3294 C 0.96573 0.70934 0.70877 0.0
C3295 C 0.96474 0.69707 0.71328 0.0
C3296 C 0.96003 0.71574 0.71661 0.0
C3297 C 0.93743 0.71078 0.74681 0.0
H3298 H 0.96112 0.7502 0.75323 0.0
C3299 C 0.93868 0.74089 0.79774 0.0
C3300 C 0.93995 0.7539 0.79647 0.0
C3301 C 0.9392 0.7336 0.78577 0.0
C3302 C 0.95427 0.73924 0.75136 0.0
H3303 H 0.95648 0.68157 0.72917 0.0
H3304 H 0.94689 0.69282 0.74297 0.0
H3305 H 0.96636 0.73792 0.73513 0.0
H3306 H 0.94247 0.76937 0.78167 0.0
H3307 H 0.9437 0.7567 0.76068 0.0
H3308 H 0.9258 0.7121 0.76369 0.0
C3309 C 0.9518 0.69743 0.73326 0.0
C3310 C 0.95723 0.73218 0.74094 0.0
C3311 C 0.95739 0.69099 0.72537 0.0
C3312 C 0.94151 0.75937 0.78293 0.0
C3313 C 0.94221 0.75215 0.77096 0.0
C3314 C 0.93457 0.71783 0.75735 0.0
C3315 C 0.95333 0.71007 0.72919 0.0
C3316 C 0.94904 0.7178 0.73876 0.0
C3317 C 0.94118 0.73925 0.77229 0.0
C3318 C 0.94313 0.73207 0.75993 0.0
H3319 H 0.97125 0.71422 0.69943 0.0
H3320 H 0.96118 0.72533 0.71301 0.0
H3321 H 0.93073 0.69977 0.74522 0.0
H3322 H 0.93752 0.73646 0.80806 0.0
H3323 H 0.93854 0.72375 0.78713 0.0
C3324 C 0.30114 0.27016 0.70393 0.0
C3325 C 0.31263 0.28278 0.7082 0.0
C3326 C 0.29685 0.25858 0.71215 0.0
C3327 C 0.29822 0.25029 0.7492 0.0
H3328 H 0.28307 0.21274 0.73417 0.0
C3329 C 0.27808 0.20533 0.78671 0.0
C3330 C 0.26573 0.19354 0.78266 0.0
C3331 C 0.28517 0.21548 0.77699 0.0
C3332 C 0.28718 0.22316 0.73852 0.0
H3333 H 0.329 0.29295 0.72407 0.0
H3334 H 0.32159 0.27277 0.73829 0.0
H3335 H 0.29307 0.23182 0.71806 0.0
H3336 H 0.25135 0.18285 0.76512 0.0
H3337 H 0.2635 0.20076 0.74818 0.0
H3338 H 0.29201 0.24177 0.76953 0.0
C3339 C 0.31579 0.27186 0.72869 0.0
C3340 C 0.29293 0.23408 0.72929 0.0
C3341 C 0.32009 0.2834 0.72048 0.0
C3342 C 0.26084 0.19186 0.76852 0.0
C3343 C 0.26787 0.20209 0.75881 0.0
C3344 C 0.29242 0.23941 0.75839 0.0
C3345 C 0.30394 0.25942 0.72482 0.0
C3346 C 0.29846 0.24777 0.73454 0.0
C3347 C 0.27999 0.21416 0.76301 0.0
C3348 C 0.28676 0.22569 0.75318 0.0
H3349 H 0.29517 0.26934 0.69452 0.0
H3350 H 0.28764 0.24916 0.70892 0.0
H3351 H 0.30214 0.2607 0.75355 0.0
H3352 H 0.28213 0.20685 0.79752 0.0
H3353 H 0.29461 0.22448 0.78052 0.0
C3354 C 0.71885 0.03879 0.69877 0.0
C3355 C 0.72299 0.03677 0.68539 0.0
C3356 C 0.72718 0.04177 0.71092 0.0
C3357 C 0.75513 0.03818 0.7253 0.0
H3358 H 0.75902 0.06596 0.75339 0.0
C3359 C 0.7908 0.05273 0.77471 0.0
C3360 C 0.78587 0.05446 0.78769 0.0
C3361 C 0.78406 0.05183 0.76186 0.0
C3362 C 0.75796 0.05809 0.74571 0.0
H3363 H 0.7392 0.03631 0.67436 0.0
H3364 H 0.7537 0.04149 0.69559 0.0
H3365 H 0.74531 0.06174 0.73169 0.0
H3366 H 0.76996 0.05641 0.79743 0.0
H3367 H 0.75806 0.05467 0.77504 0.0
H3368 H 0.76753 0.0343 0.73938 0.0
C3369 C 0.74396 0.0407 0.69665 0.0
C3370 C 0.7501 0.05568 0.73328 0.0
C3371 C 0.73566 0.03779 0.68448 0.0
C3372 C 0.77411 0.05534 0.78755 0.0
C3373 C 0.76733 0.05438 0.77472 0.0
C3374 C 0.76293 0.04053 0.73775 0.0
C3375 C 0.73982 0.04273 0.71001 0.0
C3376 C 0.74853 0.04563 0.72298 0.0
C3377 C 0.77213 0.05245 0.76172 0.0
C3378 C 0.76438 0.05046 0.74816 0.0
H3379 H 0.70916 0.03809 0.69989 0.0
H3380 H 0.72362 0.04312 0.72109 0.0
H3381 H 0.75398 0.03024 0.71766 0.0
H3382 H 0.79973 0.05181 0.77451 0.0
H3383 H 0.78812 0.0505 0.75204 0.0
C3384 C 0.04726 0.33484 0.01909 0.0
C3385 C 0.03655 0.32544 0.00993 0.0
C3386 C 0.05406 0.33033 0.02792 0.0
C3387 C 0.0593 0.30046 0.0321 0.0
H3388 H 0.07394 0.31774 0.0694 0.0
C3389 C 0.07955 0.27729 0.07256 0.0
C3390 C 0.09265 0.28625 0.07822 0.0
C3391 C 0.07255 0.28238 0.06499 0.0
C3392 C 0.06994 0.31288 0.05897 0.0
H3393 H 0.02423 0.30389 0.00321 0.0
H3394 H 0.03563 0.29594 0.01894 0.0
H3395 H 0.06179 0.32589 0.05479 0.0
H3396 H 0.10874 0.30764 0.08022 0.0
H3397 H 0.09628 0.31659 0.06734 0.0
H3398 H 0.06716 0.28722 0.0365 0.0
C3399 C 0.03919 0.30688 0.019 0.0
C3400 C 0.06303 0.31758 0.05055 0.0
C3401 C 0.03257 0.31142 0.01002 0.0
C3402 C 0.09854 0.30049 0.07628 0.0
C3403 C 0.09144 0.30562 0.06889 0.0
C3404 C 0.06599 0.29564 0.0406 0.0
C3405 C 0.05017 0.31628 0.02793 0.0
C3406 C 0.0576 0.31141 0.03699 0.0
C3407 C 0.07847 0.29657 0.06298 0.0
C3408 C 0.07136 0.30178 0.05411 0.0
H3409 H 0.05058 0.34574 0.01921 0.0
H3410 H 0.06255 0.33792 0.03449 0.0
H3411 H 0.05561 0.29566 0.0216 0.0
H3412 H 0.07486 0.26627 0.07368 0.0
H3413 H 0.06255 0.2752 0.06057 0.0
C3414 C 0.6791 0.70282 0.04174 0.0
C3415 C 0.66575 0.6934 0.04522 0.0
C3416 C 0.68537 0.71659 0.04671 0.0
C3417 C 0.68353 0.737 0.07666 0.0
H3418 H 0.70893 0.76849 0.05595 0.0
C3419 C 0.7102 0.79501 0.10927 0.0
C3420 C 0.72555 0.80818 0.10051 0.0
C3421 C 0.70089 0.77875 0.09946 0.0
C3422 C 0.70197 0.75978 0.06192 0.0
H3423 H 0.64821 0.69137 0.05574 0.0
H3424 H 0.65909 0.71536 0.06423 0.0
H3425 H 0.69656 0.74576 0.04381 0.0
H3426 H 0.74432 0.81129 0.0834 0.0
H3427 H 0.72882 0.7843 0.06945 0.0
H3428 H 0.68913 0.75076 0.09483 0.0
C3429 C 0.66481 0.71202 0.05794 0.0
C3430 C 0.69485 0.74677 0.05494 0.0
C3431 C 0.65855 0.69828 0.053 0.0
C3432 C 0.73474 0.80362 0.0874 0.0
C3433 C 0.72466 0.78706 0.07829 0.0
C3434 C 0.69067 0.74995 0.08363 0.0
C3435 C 0.67841 0.72123 0.05524 0.0
C3436 C 0.68556 0.73523 0.06226 0.0
C3437 C 0.70785 0.77507 0.08395 0.0
C3438 C 0.7 0.76148 0.07636 0.0
H3439 H 0.68495 0.69943 0.03575 0.0
H3440 H 0.69588 0.72342 0.04448 0.0
H3441 H 0.67668 0.72827 0.0827 0.0
H3442 H 0.70571 0.79774 0.11783 0.0
H3443 H 0.69099 0.77127 0.10287 0.0
C3444 C 0.28919 0.97005 0.00653 0.0
C3445 C 0.29873 0.96576 0.00654 0.0
C3446 C 0.27886 0.96493 0.0162 0.0
C3447 C 0.26846 0.94661 0.05012 0.0
H3448 H 0.2337 0.94157 0.03826 0.0
C3449 C 0.21929 0.91857 0.08209 0.0
C3450 C 0.21242 0.92589 0.08389 0.0
C3451 C 0.23033 0.92344 0.07329 0.0
C3452 C 0.24339 0.943 0.04173 0.0
H3453 H 0.30488 0.95262 0.01662 0.0
H3454 H 0.28651 0.9432 0.03319 0.0
H3455 H 0.25164 0.94943 0.02135 0.0
H3456 H 0.21156 0.94382 0.07763 0.0
H3457 H 0.23072 0.95219 0.06206 0.0
H3458 H 0.25986 0.9397 0.07044 0.0
C3459 C 0.2872 0.95083 0.02596 0.0
C3460 C 0.25372 0.94758 0.03207 0.0
C3461 C 0.29769 0.95615 0.0164 0.0
C3462 C 0.21681 0.93812 0.07664 0.0
C3463 C 0.22768 0.94284 0.06767 0.0
C3464 C 0.25802 0.9418 0.05972 0.0
C3465 C 0.27765 0.95517 0.026 0.0
C3466 C 0.26647 0.94964 0.03618 0.0
C3467 C 0.23448 0.9355 0.06583 0.0
C3468 C 0.24546 0.94013 0.05564 0.0
H3469 H 0.28982 0.97759 0.99918 0.0
H3470 H 0.27194 0.9688 0.0161 0.0
H3471 H 0.27817 0.94823 0.05376 0.0
H3472 H 0.21596 0.90894 0.08724 0.0
H3473 H 0.23533 0.91753 0.07191 0.0
C3474 C 0.34479 0.03601 0.97571 0.0
C3475 C 0.33688 0.02236 0.97995 0.0
C3476 C 0.33893 0.04407 0.97321 0.0
C3477 C 0.30654 0.03981 0.96175 0.0
H3478 H 0.32353 0.079 0.97098 0.0
C3479 C 0.28152 0.07079 0.94515 0.0
C3480 C 0.28996 0.08389 0.93989 0.0
C3481 C 0.287 0.06364 0.95171 0.0
C3482 C 0.31871 0.06808 0.9682 0.0
H3483 H 0.31677 0.00684 0.9858 0.0
H3484 H 0.3066 0.02093 0.9814 0.0
H3485 H 0.33365 0.06601 0.98008 0.0
H3486 H 0.31077 0.10015 0.93818 0.0
H3487 H 0.32037 0.08748 0.94913 0.0
H3488 H 0.29187 0.04185 0.94951 0.0
C3489 C 0.31729 0.02529 0.97984 0.0
C3490 C 0.32449 0.06065 0.97347 0.0
C3491 C 0.32315 0.01725 0.98242 0.0
C3492 C 0.30401 0.08992 0.9418 0.0
C3493 C 0.3095 0.08272 0.94826 0.0
C3494 C 0.30083 0.04724 0.95641 0.0
C3495 C 0.32504 0.03865 0.97484 0.0
C3496 C 0.3185 0.04645 0.97022 0.0
C3497 C 0.30107 0.06944 0.95319 0.0
C3498 C 0.30689 0.06149 0.95947 0.0
H3499 H 0.35541 0.04031 0.97378 0.0
H3500 H 0.34516 0.0543 0.96931 0.0
H3501 H 0.30182 0.02892 0.95884 0.0
H3502 H 0.27066 0.06607 0.94417 0.0
H3503 H 0.28019 0.05358 0.95568 0.0
C3504 C 0.98513 0.29762 0.97947 0.0
C3505 C 0.98048 0.30673 0.97645 0.0
C3506 C 0.9778 0.28382 0.97456 0.0
C3507 C 0.95491 0.26338 0.94492 0.0
H3508 H 0.94948 0.23164 0.96534 0.0
C3509 C 0.92261 0.2057 0.91189 0.0
C3510 C 0.92433 0.19209 0.92084 0.0
C3511 C 0.93021 0.22203 0.92164 0.0
C3512 C 0.95107 0.24042 0.95943 0.0
H3513 H 0.96388 0.30812 0.96687 0.0
H3514 H 0.95118 0.28413 0.95838 0.0
H3515 H 0.96006 0.25431 0.97766 0.0
H3516 H 0.9397 0.18807 0.93828 0.0
H3517 H 0.95223 0.21517 0.95214 0.0
H3518 H 0.94647 0.24984 0.92661 0.0
C3519 C 0.96061 0.28773 0.96432 0.0
C3520 C 0.95706 0.25338 0.96653 0.0
C3521 C 0.96788 0.30148 0.96926 0.0
C3522 C 0.93811 0.19604 0.93415 0.0
C3523 C 0.94525 0.21271 0.94319 0.0
C3524 C 0.94906 0.2505 0.93782 0.0
C3525 C 0.9657 0.27888 0.96651 0.0
C3526 C 0.959 0.26498 0.95933 0.0
C3527 C 0.94096 0.22527 0.93731 0.0
C3528 C 0.94705 0.23886 0.94497 0.0
H3529 H 0.99474 0.30128 0.98504 0.0
H3530 H 0.98196 0.27722 0.9764 0.0
H3531 H 0.95655 0.27219 0.939 0.0
H3532 H 0.91533 0.20327 0.90324 0.0
H3533 H 0.92805 0.22979 0.91811 0.0
C3534 C 0.71466 0.68608 0.01204 0.0
C3535 C 0.70174 0.6754 0.00754 0.0
C3536 C 0.72522 0.69139 0.00265 0.0
C3537 C 0.73667 0.68294 0.96967 0.0
H3538 H 0.76173 0.72237 0.97051 0.0
C3539 C 0.78933 0.70766 0.94528 0.0
C3540 C 0.79401 0.72019 0.93852 0.0
C3541 C 0.77712 0.70168 0.95224 0.0
C3542 C 0.75474 0.71135 0.97 0.0
H3543 H 0.68977 0.66194 0.9896 0.0
H3544 H 0.70829 0.67129 0.97315 0.0
H3545 H 0.74215 0.71314 0.98535 0.0
H3546 H 0.78961 0.73628 0.93381 0.0
H3547 H 0.7682 0.72578 0.94581 0.0
H3548 H 0.74932 0.6812 0.95431 0.0
C3549 C 0.71023 0.67546 0.984 0.0
C3550 C 0.74361 0.70605 0.97864 0.0
C3551 C 0.69962 0.67016 0.9934 0.0
C3552 C 0.78616 0.72653 0.93876 0.0
C3553 C 0.77397 0.72058 0.94573 0.0
C3554 C 0.74786 0.68826 0.96105 0.0
C3555 C 0.72315 0.68615 0.98853 0.0
C3556 C 0.73452 0.69178 0.9787 0.0
C3557 C 0.76941 0.70819 0.95273 0.0
C3558 C 0.75708 0.70251 0.96122 0.0
H3559 H 0.71666 0.69034 0.02286 0.0
H3560 H 0.7351 0.69948 0.00654 0.0
H3561 H 0.7299 0.67189 0.96955 0.0
H3562 H 0.7953 0.70268 0.94551 0.0
H3563 H 0.77399 0.69225 0.95771 0.0
C3564 C 0.95038 0.67024 0.00447 0.0
C3565 C 0.96372 0.67309 0.00344 0.0
C3566 C 0.94535 0.67647 0.99555 0.0
C3567 C 0.95706 0.70746 0.97486 0.0
H3568 H 0.91994 0.68884 0.96043 0.0
C3569 C 0.93603 0.73631 0.94357 0.0
C3570 C 0.92341 0.73403 0.94778 0.0
C3571 C 0.9408 0.72772 0.94803 0.0
C3572 C 0.93032 0.6942 0.96443 0.0
H3573 H 0.98208 0.68427 0.9918 0.0
H3574 H 0.97327 0.69505 0.97619 0.0
H3575 H 0.92855 0.67577 0.97254 0.0
H3576 H 0.90588 0.72098 0.95983 0.0
H3577 H 0.91419 0.70605 0.96769 0.0
H3578 H 0.95876 0.72595 0.96713 0.0
C3579 C 0.96675 0.68816 0.98404 0.0
C3580 C 0.93525 0.68671 0.97137 0.0
C3581 C 0.97178 0.68192 0.99295 0.0
C3582 C 0.91556 0.72285 0.95627 0.0
C3583 C 0.9203 0.71427 0.96072 0.0
C3584 C 0.95213 0.71495 0.96795 0.0
C3585 C 0.95356 0.68569 0.98539 0.0
C3586 C 0.94861 0.6933 0.97687 0.0
C3587 C 0.93308 0.71673 0.95685 0.0
C3588 C 0.93864 0.70846 0.96286 0.0
H3589 H 0.9439 0.66348 0.01242 0.0
H3590 H 0.93519 0.67445 0.99697 0.0
H3591 H 0.96734 0.71291 0.97915 0.0
H3592 H 0.94235 0.74495 0.93715 0.0
H3593 H 0.95062 0.72983 0.94476 0.0
C3594 C 0.3274 0.30405 0.98885 0.0
C3595 C 0.33891 0.3133 0.98159 0.0
C3596 C 0.3204 0.28998 0.98493 0.0
C3597 C 0.32266 0.26325 0.96251 0.0
H3598 H 0.2837 0.24609 0.95946 0.0
C3599 C 0.28948 0.21924 0.92218 0.0
C3600 C 0.27808 0.20756 0.92716 0.0
C3601 C 0.29697 0.23096 0.93106 0.0
C3602 C 0.29456 0.25068 0.96046 0.0
H3603 H 0.35236 0.31486 0.96492 0.0
H3604 H 0.34005 0.2906 0.95789 0.0
H3605 H 0.29706 0.26877 0.97141 0.0
H3606 H 0.26516 0.19937 0.94507 0.0
H3607 H 0.27816 0.22017 0.96058 0.0
H3608 H 0.32011 0.24544 0.95077 0.0
C3609 C 0.33651 0.29406 0.96679 0.0
C3610 C 0.30223 0.26366 0.96735 0.0
C3611 C 0.34356 0.30806 0.97077 0.0
C3612 C 0.27405 0.20812 0.94107 0.0
C3613 C 0.28144 0.21998 0.9499 0.0
C3614 C 0.315 0.25039 0.95544 0.0
C3615 C 0.32468 0.28486 0.97361 0.0
C3616 C 0.31642 0.27027 0.96814 0.0
C3617 C 0.29304 0.23144 0.94499 0.0
C3618 C 0.30091 0.24414 0.95407 0.0
H3619 H 0.32359 0.30771 0.99731 0.0
H3620 H 0.31147 0.28316 0.99059 0.0
H3621 H 0.33352 0.26785 0.96322 0.0
H3622 H 0.29266 0.21936 0.9114 0.0
H3623 H 0.30571 0.23978 0.92693 0.0
C3624 C 0.70558 0.03674 0.98658 0.0
C3625 C 0.70528 0.04491 0.99799 0.0
C3626 C 0.71717 0.04134 0.9787 0.0
C3627 C 0.75381 0.06457 0.98282 0.0
H3628 H 0.75349 0.05666 0.94241 0.0
C3629 C 0.80314 0.08154 0.95424 0.0
C3630 C 0.80334 0.07168 0.94493 0.0
C3631 C 0.79096 0.07957 0.95928 0.0
C3632 C 0.75372 0.05887 0.95371 0.0
H3633 H 0.71665 0.06468 0.0095 0.0
H3634 H 0.73679 0.07277 0.99563 0.0
H3635 H 0.73241 0.05106 0.9537 0.0
H3636 H 0.79097 0.05213 0.93341 0.0
H3637 H 0.76963 0.04854 0.94236 0.0
H3638 H 0.775 0.07209 0.98298 0.0
C3639 C 0.72816 0.06267 0.99297 0.0
C3640 C 0.74166 0.05568 0.96018 0.0
C3641 C 0.71658 0.05807 0.00087 0.0
C3642 C 0.79107 0.05994 0.94048 0.0
C3643 C 0.77887 0.05794 0.94556 0.0
C3644 C 0.76583 0.06775 0.97639 0.0
C3645 C 0.72871 0.05422 0.98203 0.0
C3646 C 0.74156 0.0584 0.97484 0.0
C3647 C 0.7787 0.06761 0.95523 0.0
C3648 C 0.76594 0.06486 0.96178 0.0
H3649 H 0.69704 0.02655 0.98407 0.0
H3650 H 0.71729 0.03452 0.97041 0.0
H3651 H 0.75407 0.06654 0.99419 0.0
H3652 H 0.81245 0.09067 0.95786 0.0
H3653 H 0.79117 0.08733 0.96653 0.0
C3654 C 0.68629 0.98434 0.02257 0.0
C3655 C 0.67415 0.98013 0.0295 0.0
C3656 C 0.69385 0.97796 0.02513 0.0
C3657 C 0.69288 0.94819 0.04317 0.0
H3658 H 0.73099 0.97404 0.05068 0.0
C3659 C 0.72506 0.94169 0.08574 0.0
C3660 C 0.73775 0.94361 0.08217 0.0
C3661 C 0.71748 0.94443 0.07607 0.0
C3662 C 0.72042 0.96666 0.04836 0.0
H3663 H 0.66006 0.96534 0.04391 0.0
H3664 H 0.67331 0.95458 0.04867 0.0
H3665 H 0.71701 0.98177 0.03905 0.0
H3666 H 0.75225 0.94986 0.06553 0.0
H3667 H 0.73911 0.95526 0.04878 0.0
H3668 H 0.69623 0.93339 0.05352 0.0
C3669 C 0.67696 0.96261 0.04104 0.0
C3670 C 0.71238 0.97105 0.04164 0.0
C3671 C 0.66937 0.96889 0.03839 0.0
C3672 C 0.74258 0.94836 0.06863 0.0
C3673 C 0.73508 0.95139 0.05904 0.0
C3674 C 0.70088 0.94388 0.05008 0.0
C3675 C 0.68948 0.9673 0.03475 0.0
C3676 C 0.69841 0.96199 0.0394 0.0
C3677 C 0.72244 0.9494 0.0627 0.0
C3678 C 0.71462 0.95319 0.05311 0.0
H3679 H 0.69021 0.99288 0.01553 0.0
H3680 H 0.70331 0.98166 0.01988 0.0
H3681 H 0.68225 0.94083 0.04129 0.0
H3682 H 0.72092 0.93814 0.09603 0.0
H3683 H 0.70785 0.94301 0.07921 0.0
C3684 C 0.02376 0.71546 0.03882 0.0
C3685 C 0.02959 0.70713 0.03988 0.0
C3686 C 0.03141 0.72963 0.04201 0.0
C3687 C 0.06283 0.75548 0.06178 0.0
H3688 H 0.05547 0.78149 0.04328 0.0
C3689 C 0.09592 0.81479 0.07028 0.0
C3690 C 0.08898 0.8219 0.07292 0.0
C3691 C 0.08885 0.80077 0.06625 0.0
C3692 C 0.05756 0.77431 0.04858 0.0
H3693 H 0.04824 0.70728 0.04436 0.0
H3694 H 0.06173 0.73206 0.04936 0.0
H3695 H 0.04333 0.7573 0.03514 0.0
H3696 H 0.06921 0.81982 0.07385 0.0
H3697 H 0.05685 0.79532 0.06645 0.0
H3698 H 0.07732 0.77266 0.07498 0.0
C3699 C 0.05112 0.7276 0.04656 0.0
C3700 C 0.05058 0.76043 0.04396 0.0
C3701 C 0.04341 0.71339 0.04357 0.0
C3702 C 0.07481 0.81463 0.07171 0.0
C3703 C 0.06776 0.80066 0.06746 0.0
C3704 C 0.06994 0.76939 0.06625 0.0
C3705 C 0.04515 0.73587 0.04614 0.0
C3706 C 0.05304 0.7508 0.05057 0.0
C3707 C 0.07473 0.79362 0.06461 0.0
C3708 C 0.06729 0.77891 0.05977 0.0
H3709 H 0.01312 0.71097 0.0361 0.0
H3710 H 0.02638 0.73557 0.04173 0.0
H3711 H 0.06483 0.74837 0.06734 0.0
H3712 H 0.10683 0.82012 0.07118 0.0
H3713 H 0.09446 0.79559 0.06408 0.0
C3714 C 0.30914 0.3352 0.03542 0.0
C3715 C 0.30922 0.34441 0.02557 0.0
C3716 C 0.29813 0.32805 0.04406 0.0
C3717 C 0.26687 0.32664 0.05649 0.0
H3718 H 0.25342 0.28738 0.05745 0.0
C3719 C 0.21127 0.28654 0.0648 0.0
C3720 C 0.2082 0.27493 0.07263 0.0
C3721 C 0.22464 0.29615 0.06202 0.0
C3722 C 0.25715 0.29835 0.05755 0.0
H3723 H 0.29807 0.35381 0.01756 0.0
H3724 H 0.27883 0.34123 0.03243 0.0
H3725 H 0.27518 0.30237 0.04735 0.0
H3726 H 0.21666 0.26436 0.08391 0.0
H3727 H 0.24012 0.2812 0.07906 0.0
H3728 H 0.24854 0.32248 0.06622 0.0
C3729 C 0.28732 0.33962 0.03363 0.0
C3730 C 0.26965 0.30697 0.05176 0.0
C3731 C 0.29833 0.34677 0.02501 0.0
C3732 C 0.21878 0.27326 0.0779 0.0
C3733 C 0.23217 0.28285 0.07506 0.0
C3734 C 0.25434 0.31801 0.06225 0.0
C3735 C 0.28696 0.32995 0.04304 0.0
C3736 C 0.27452 0.32117 0.05086 0.0
C3737 C 0.23522 0.2943 0.06691 0.0
C3738 C 0.24922 0.30372 0.06254 0.0
H3739 H 0.31742 0.33322 0.03619 0.0
H3740 H 0.29826 0.32084 0.05136 0.0
H3741 H 0.27044 0.33756 0.05619 0.0
H3742 H 0.2033 0.288 0.06051 0.0
H3743 H 0.22662 0.30474 0.05554 0.0
C3744 C 0.70469 0.66406 0.36354 0.0
C3745 C 0.69317 0.65429 0.35556 0.0
C3746 C 0.71203 0.65987 0.37197 0.0
C3747 C 0.71722 0.62999 0.37544 0.0
H3748 H 0.73678 0.64943 0.4104 0.0
C3749 C 0.74332 0.60917 0.41115 0.0
C3750 C 0.75691 0.61848 0.41502 0.0
C3751 C 0.73522 0.61382 0.40514 0.0
C3752 C 0.73139 0.64395 0.40062 0.0
H3753 H 0.6798 0.63245 0.35086 0.0
H3754 H 0.69216 0.6251 0.36597 0.0
H3755 H 0.72282 0.65684 0.3979 0.0
H3756 H 0.77268 0.64 0.41548 0.0
H3757 H 0.75836 0.64816 0.40525 0.0
H3758 H 0.7256 0.61699 0.3783 0.0
C3759 C 0.69593 0.63604 0.36532 0.0
C3760 C 0.72343 0.64821 0.39342 0.0
C3761 C 0.68876 0.64024 0.35673 0.0
C3762 C 0.76217 0.63261 0.41291 0.0
C3763 C 0.75399 0.63728 0.40705 0.0
C3764 C 0.72499 0.62564 0.38273 0.0
C3765 C 0.70788 0.6458 0.37276 0.0
C3766 C 0.71623 0.64127 0.38071 0.0
C3767 C 0.7405 0.62789 0.40288 0.0
C3768 C 0.73216 0.63256 0.39538 0.0
H3769 H 0.70836 0.67498 0.3628 0.0
H3770 H 0.72122 0.66771 0.37743 0.0
H3771 H 0.71217 0.6246 0.36551 0.0
H3772 H 0.73906 0.59822 0.41242 0.0
H3773 H 0.72483 0.60636 0.40207 0.0
C3774 C 0.34635 0.03877 0.37159 0.0
C3775 C 0.3351 0.02958 0.37921 0.0
C3776 C 0.35268 0.053 0.37452 0.0
C3777 C 0.36956 0.08082 0.39011 0.0
H3778 H 0.34962 0.09848 0.40199 0.0
C3779 C 0.40226 0.13859 0.4232 0.0
C3780 C 0.3922 0.14728 0.42505 0.0
C3781 C 0.39333 0.12169 0.41456 0.0
C3782 C 0.35538 0.09382 0.39851 0.0
H3783 H 0.32141 0.02827 0.39552 0.0
H3784 H 0.33255 0.0529 0.40076 0.0
H3785 H 0.33746 0.07474 0.39272 0.0
H3786 H 0.37254 0.14916 0.41333 0.0
H3787 H 0.35975 0.12226 0.39899 0.0
H3788 H 0.38746 0.09995 0.39561 0.0
C3789 C 0.3364 0.04919 0.39238 0.0
C3790 C 0.34838 0.0801 0.39336 0.0
C3791 C 0.33004 0.035 0.38942 0.0
C3792 C 0.37744 0.14309 0.41306 0.0
C3793 C 0.36928 0.12604 0.40475 0.0
C3794 C 0.37655 0.09456 0.39518 0.0
C3795 C 0.34794 0.05837 0.38515 0.0
C3796 C 0.35537 0.07334 0.38932 0.0
C3797 C 0.37689 0.11537 0.40595 0.0
C3798 C 0.36954 0.10114 0.39965 0.0
H3799 H 0.35047 0.03498 0.36359 0.0
H3800 H 0.3614 0.05979 0.36856 0.0
H3801 H 0.3753 0.07595 0.38722 0.0
H3802 H 0.41142 0.14189 0.42952 0.0
H3803 H 0.39776 0.11522 0.41494 0.0
C3804 C 0.97384 0.29877 0.3619 0.0
C3805 C 0.977 0.30954 0.35273 0.0
C3806 C 0.96241 0.29369 0.37012 0.0
C3807 C 0.92956 0.29244 0.37102 0.0
H3808 H 0.92748 0.2767 0.40767 0.0
C3809 C 0.88224 0.27136 0.40471 0.0
C3810 C 0.87739 0.25796 0.4094 0.0
C3811 C 0.895 0.27868 0.399 0.0
C3812 C 0.92794 0.28106 0.39743 0.0
H3813 H 0.97117 0.32401 0.34558 0.0
H3814 H 0.95156 0.31556 0.3603 0.0
H3815 H 0.949 0.28821 0.39588 0.0
H3816 H 0.88204 0.2416 0.41142 0.0
H3817 H 0.90448 0.25457 0.40177 0.0
H3818 H 0.90852 0.28539 0.37269 0.0
C3819 C 0.95758 0.31065 0.3608 0.0
C3820 C 0.94024 0.2876 0.39063 0.0
C3821 C 0.96889 0.31558 0.35243 0.0
C3822 C 0.8856 0.25203 0.40825 0.0
C3823 C 0.89844 0.25944 0.40272 0.0
C3824 C 0.91734 0.28608 0.3779 0.0
C3825 C 0.95399 0.29942 0.3695 0.0
C3826 C 0.94117 0.29324 0.37725 0.0
C3827 C 0.90319 0.27277 0.39791 0.0
C3828 C 0.91638 0.2802 0.39109 0.0
H3829 H 0.97988 0.29387 0.36231 0.0
H3830 H 0.95991 0.28493 0.37653 0.0
H3831 H 0.92976 0.29637 0.3606 0.0
H3832 H 0.87603 0.27606 0.40525 0.0
H3833 H 0.89844 0.28895 0.39536 0.0
C3834 C 0.00965 0.35751 0.319 0.0
C3835 C 0.02147 0.35786 0.31468 0.0
C3836 C 0.00756 0.36847 0.31634 0.0
C3837 C 0.02516 0.40518 0.30754 0.0
H3838 H 0.99056 0.39619 0.29046 0.0
C3839 C 0.01712 0.44515 0.27885 0.0
C3840 C 0.00472 0.44465 0.28023 0.0
C3841 C 0.01906 0.43485 0.28433 0.0
C3842 C 0.00021 0.3989 0.29543 0.0
H3843 H 0.04055 0.37025 0.30456 0.0
H3844 H 0.03688 0.38928 0.29994 0.0
H3845 H 0.99415 0.37775 0.29816 0.0
H3846 H 0.98492 0.43342 0.28908 0.0
H3847 H 0.98834 0.41546 0.29881 0.0
H3848 H 0.03127 0.42632 0.30471 0.0
C3849 C 0.02925 0.38056 0.30543 0.0
C3850 C 0.00226 0.38832 0.29984 0.0
C3851 C 0.03131 0.36959 0.30801 0.0
C3852 C 0.99447 0.43389 0.28761 0.0
C3853 C 0.99642 0.4236 0.29314 0.0
C3854 C 0.0231 0.41576 0.30318 0.0
C3855 C 0.0173 0.38005 0.30941 0.0
C3856 C 0.01481 0.39134 0.30577 0.0
C3857 C 0.00871 0.42391 0.29148 0.0
C3858 C 0.01065 0.41274 0.2969 0.0
H3859 H 0.00188 0.34867 0.3242 0.0
H3860 H 0.99831 0.36787 0.31965 0.0
H3861 H 0.03488 0.40782 0.31226 0.0
H3862 H 0.02527 0.45346 0.27341 0.0
H3863 H 0.0286 0.43534 0.28274 0.0
C3864 C 0.64283 0.62696 0.31957 0.0
C3865 C 0.63841 0.63649 0.31849 0.0
C3866 C 0.63388 0.6129 0.31674 0.0
C3867 C 0.60101 0.58943 0.29783 0.0
H3868 H 0.60559 0.56117 0.31526 0.0
C3869 C 0.55892 0.52718 0.2804 0.0
C3870 C 0.56863 0.51844 0.27609 0.0
C3871 C 0.56895 0.54437 0.28815 0.0
C3872 C 0.60424 0.56897 0.31027 0.0
H3873 H 0.62098 0.6387 0.31449 0.0
H3874 H 0.60523 0.61416 0.31021 0.0
H3875 H 0.61966 0.58515 0.32363 0.0
H3876 H 0.58985 0.51717 0.28352 0.0
H3877 H 0.6044 0.54455 0.29672 0.0
H3878 H 0.58545 0.57314 0.28463 0.0
C3879 C 0.61571 0.61753 0.31266 0.0
C3880 C 0.61233 0.58273 0.31503 0.0
C3881 C 0.62472 0.63161 0.31524 0.0
C3882 C 0.58491 0.52308 0.28532 0.0
C3883 C 0.59407 0.54038 0.29294 0.0
C3884 C 0.59278 0.57564 0.29326 0.0
C3885 C 0.62023 0.60801 0.313 0.0
C3886 C 0.61096 0.5932 0.30873 0.0
C3887 C 0.58635 0.55095 0.2938 0.0
C3888 C 0.59446 0.56534 0.2993 0.0
H3889 H 0.65334 0.6304 0.32195 0.0
H3890 H 0.63783 0.60597 0.31693 0.0
H3891 H 0.59981 0.59715 0.29247 0.0
H3892 H 0.54888 0.52352 0.27595 0.0
H3893 H 0.56452 0.55082 0.28931 0.0
C3894 C 0.3636 0.99939 0.32561 0.0
C3895 C 0.35106 0.98707 0.32527 0.0
C3896 C 0.3738 0.00077 0.31674 0.0
C3897 C 0.38136 0.98504 0.28559 0.0
H3898 H 0.41542 0.99813 0.30628 0.0
C3899 C 0.42185 0.97231 0.26775 0.0
C3900 C 0.43549 0.98197 0.27097 0.0
C3901 C 0.41172 0.97482 0.27222 0.0
C3902 C 0.40611 0.99472 0.30019 0.0
H3903 H 0.3391 0.96692 0.31463 0.0
H3904 H 0.35693 0.96928 0.29928 0.0
H3905 H 0.3973 0.99941 0.31767 0.0
H3906 H 0.44926 0.00212 0.28071 0.0
H3907 H 0.43163 0.00668 0.2882 0.0
H3908 H 0.39015 0.98006 0.26819 0.0
C3909 C 0.35887 0.9779 0.30635 0.0
C3910 C 0.39568 0.99545 0.30676 0.0
C3911 C 0.34866 0.97652 0.31522 0.0
C3912 C 0.43883 0.99446 0.27815 0.0
C3913 C 0.42871 0.99702 0.28252 0.0
C3914 C 0.39184 0.98436 0.27898 0.0
C3915 C 0.37169 0.98988 0.30733 0.0
C3916 C 0.38312 0.99043 0.29963 0.0
C3917 C 0.41502 0.98708 0.27995 0.0
C3918 C 0.40427 0.98898 0.2863 0.0
H3919 H 0.36574 0.00778 0.33312 0.0
H3920 H 0.38349 0.01022 0.31757 0.0
H3921 H 0.37184 0.98122 0.27976 0.0
H3922 H 0.41902 0.96259 0.26223 0.0
H3923 H 0.40129 0.96686 0.27017 0.0
C3924 C 0.6343 0.98763 0.31368 0.0
C3925 C 0.62905 0.97362 0.31635 0.0
C3926 C 0.62688 0.9918 0.30539 0.0
C3927 C 0.5919 0.98104 0.29702 0.0
H3928 H 0.60646 0.01004 0.26997 0.0
C3929 C 0.55846 8e-05 0.27289 0.0
C3930 C 0.5643 0.0144 0.27197 0.0
C3931 C 0.56651 0.99428 0.27544 0.0
C3932 C 0.60225 0.002 0.27758 0.0
H3933 H 0.61226 0.95293 0.31165 0.0
H3934 H 0.59932 0.96024 0.29727 0.0
H3935 H 0.62062 0.00146 0.27958 0.0
H3936 H 0.58322 0.03378 0.27193 0.0
H3937 H 0.59728 0.02379 0.27708 0.0
H3938 H 0.57382 0.98193 0.2957 0.0
C3939 C 0.60912 0.96799 0.3017 0.0
C3940 C 0.61036 0.99705 0.28302 0.0
C3941 C 0.61657 0.96381 0.30989 0.0
C3942 C 0.57843 0.02273 0.27286 0.0
C3943 C 0.58649 0.01696 0.27565 0.0
C3944 C 0.58387 0.98607 0.29173 0.0
C3945 C 0.61404 0.98204 0.29968 0.0
C3946 C 0.60528 0.9866 0.29289 0.0
C3947 C 0.5806 0.00268 0.27733 0.0
C3948 C 0.58895 0.9967 0.28203 0.0
H3949 H 0.64392 0.99544 0.31844 0.0
H3950 H 0.6309 0.00271 0.30407 0.0
H3951 H 0.58778 0.97316 0.30481 0.0
H3952 H 0.54761 0.99337 0.27197 0.0
H3953 H 0.56163 0.98321 0.27623 0.0
C3954 C 0.01076 0.64745 0.31679 0.0
C3955 C 0.02347 0.65882 0.31408 0.0
C3956 C 0.00808 0.63399 0.31393 0.0
C3957 C 0.0248 0.61368 0.30832 0.0
H3958 H 0.99303 0.58886 0.28498 0.0
C3959 C 0.02552 0.56479 0.27561 0.0
C3960 C 0.00866 0.55162 0.26805 0.0
C3961 C 0.02603 0.57938 0.28453 0.0
C3962 C 0.00181 0.59554 0.29173 0.0
H3963 H 0.04343 0.66495 0.30666 0.0
H3964 H 0.03878 0.64159 0.30181 0.0
H3965 H 0.99615 0.61097 0.29374 0.0
H3966 H 0.98285 0.54077 0.27149 0.0
H3967 H 0.98512 0.56459 0.2868 0.0
H3968 H 0.03056 0.59842 0.30628 0.0
C3969 C 0.03089 0.64304 0.30613 0.0
C3970 C 0.0036 0.60821 0.29673 0.0
C3971 C 0.03352 0.65644 0.30883 0.0
C3972 C 0.99258 0.54933 0.27502 0.0
C3973 C 0.99414 0.56447 0.28398 0.0
C3974 C 0.02299 0.60102 0.30338 0.0
C3975 C 0.01812 0.63168 0.30851 0.0
C3976 C 0.01529 0.61755 0.30477 0.0
C3977 C 0.01061 0.57939 0.28817 0.0
C3978 C 0.01166 0.59198 0.29473 0.0
H3979 H 0.00279 0.64894 0.32081 0.0
H3980 H 0.99816 0.6254 0.31592 0.0
H3981 H 0.03379 0.62056 0.31473 0.0
H3982 H 0.03467 0.56526 0.27219 0.0
H3983 H 0.03573 0.58834 0.28733 0.0
C3984 C 0.37013 0.38953 0.3326 0.0
C3985 C 0.36106 0.37525 0.33267 0.0
C3986 C 0.38171 0.39476 0.32462 0.0
C3987 C 0.39824 0.38624 0.2958 0.0
H3988 H 0.43109 0.41272 0.31666 0.0
C3989 C 0.45149 0.39865 0.27964 0.0
C3990 C 0.46231 0.41213 0.28233 0.0
C3991 C 0.43854 0.39493 0.28396 0.0
C3992 C 0.42202 0.40554 0.31054 0.0
H3993 H 0.35669 0.35534 0.3238 0.0
H3994 H 0.37695 0.36449 0.30995 0.0
H3995 H 0.40944 0.40492 0.32727 0.0
H3996 H 0.46799 0.43244 0.29105 0.0
H3997 H 0.44537 0.4261 0.29826 0.0
H3998 H 0.41093 0.38674 0.27913 0.0
C3999 C 0.37508 0.37164 0.31602 0.0
C4000 C 0.40958 0.40105 0.31664 0.0
C4001 C 0.36349 0.36639 0.32403 0.0
C4002 C 0.45983 0.42196 0.28889 0.0
C4003 C 0.4469 0.41829 0.29311 0.0
C4004 C 0.41072 0.39078 0.28964 0.0
C4005 C 0.38447 0.38586 0.31649 0.0
C4006 C 0.39755 0.39126 0.30942 0.0
C4007 C 0.43615 0.40465 0.29101 0.0
C4008 C 0.42277 0.4004 0.297 0.0
H4009 H 0.36851 0.39666 0.33904 0.0
H4010 H 0.38865 0.40579 0.32501 0.0
H4011 H 0.38913 0.37878 0.28991 0.0
H4012 H 0.45315 0.39087 0.27463 0.0
H4013 H 0.43054 0.38431 0.28228 0.0
C4014 C 0.34599 0.31762 0.37048 0.0
C4015 C 0.33205 0.3116 0.37239 0.0
C4016 C 0.35264 0.31046 0.37367 0.0
C4017 C 0.34814 0.27626 0.3777 0.0
H4018 H 0.37947 0.29488 0.40351 0.0
C4019 C 0.37398 0.24777 0.39999 0.0
C4020 C 0.3881 0.25515 0.40174 0.0
C4021 C 0.36696 0.25457 0.39676 0.0
C4022 C 0.37088 0.28958 0.39612 0.0
H4023 H 0.31407 0.29309 0.37857 0.0
H4024 H 0.32571 0.28045 0.38381 0.0
H4025 H 0.3677 0.30678 0.39623 0.0
H4026 H 0.40592 0.27547 0.40191 0.0
H4027 H 0.39382 0.28729 0.39564 0.0
H4028 H 0.35148 0.25922 0.37716 0.0
C4029 C 0.33145 0.29078 0.37998 0.0
C4030 C 0.36411 0.2964 0.392 0.0
C4031 C 0.32482 0.29803 0.37702 0.0
C4032 C 0.39504 0.26951 0.40049 0.0
C4033 C 0.38806 0.27629 0.39704 0.0
C4034 C 0.35504 0.2695 0.38162 0.0
C4035 C 0.34546 0.29704 0.3786 0.0
C4036 C 0.35268 0.2898 0.38278 0.0
C4037 C 0.37392 0.2689 0.39502 0.0
C4038 C 0.36649 0.27606 0.39092 0.0
H4039 H 0.35187 0.32807 0.36697 0.0
H4040 H 0.36343 0.31546 0.37239 0.0
H4041 H 0.3394 0.27099 0.37048 0.0
H4042 H 0.36835 0.23671 0.40103 0.0
H4043 H 0.35607 0.24855 0.39564 0.0
C4044 C 0.6865 0.02345 0.36099 0.0
C4045 C 0.68905 0.01456 0.36898 0.0
C4046 C 0.69364 0.03768 0.3641 0.0
C4047 C 0.72367 0.06534 0.38479 0.0
H4048 H 0.70268 0.0836 0.38601 0.0
C4049 C 0.73824 0.11315 0.42067 0.0
C4050 C 0.738 0.12434 0.41464 0.0
C4051 C 0.73322 0.10066 0.41296 0.0
C4052 C 0.70871 0.07869 0.38551 0.0
H4053 H 0.70143 0.01378 0.38621 0.0
H4054 H 0.71354 0.03835 0.39181 0.0
H4055 H 0.6924 0.06003 0.37605 0.0
H4056 H 0.73159 0.1309 0.39616 0.0
H4057 H 0.72248 0.10877 0.38272 0.0
H4058 H 0.73973 0.0838 0.39494 0.0
C4059 C 0.70625 0.03445 0.38296 0.0
C4060 C 0.70286 0.0652 0.37977 0.0
C4061 C 0.6992 0.02028 0.3798 0.0
C4062 C 0.73214 0.12254 0.40093 0.0
C4063 C 0.72691 0.10991 0.39328 0.0
C4064 C 0.72944 0.07874 0.39068 0.0
C4065 C 0.70344 0.04333 0.3753 0.0
C4066 C 0.71017 0.05824 0.37965 0.0
C4067 C 0.72753 0.09891 0.3992 0.0
C4068 C 0.72193 0.08542 0.39138 0.0
H4069 H 0.67881 0.0194 0.35252 0.0
H4070 H 0.69136 0.04423 0.35784 0.0
H4071 H 0.72971 0.06045 0.38456 0.0
H4072 H 0.7423 0.11404 0.43137 0.0
H4073 H 0.73355 0.09224 0.4179 0.0
C4074 C 0.9738 0.68594 0.35897 0.0
C4075 C 0.98367 0.68214 0.3577 0.0
C4076 C 0.96262 0.67847 0.36727 0.0
C4077 C 0.942 0.64383 0.38085 0.0
H4078 H 0.92468 0.66101 0.40082 0.0
C4079 C 0.8905 0.61154 0.40651 0.0
C4080 C 0.88095 0.61535 0.40283 0.0
C4081 C 0.90416 0.62026 0.40389 0.0
C4082 C 0.9294 0.65607 0.39529 0.0
H4083 H 0.98984 0.66786 0.36466 0.0
H4084 H 0.97034 0.65487 0.3793 0.0
H4085 H 0.9469 0.67539 0.39116 0.0
H4086 H 0.87822 0.63136 0.39393 0.0
H4087 H 0.90202 0.64659 0.38943 0.0
H4088 H 0.92437 0.62453 0.38469 0.0
C4089 C 0.97117 0.66352 0.37369 0.0
C4090 C 0.94212 0.6643 0.38974 0.0
C4091 C 0.98237 0.67101 0.36536 0.0
C4092 C 0.88538 0.62822 0.39695 0.0
C4093 C 0.89901 0.63696 0.39444 0.0
C4094 C 0.92931 0.6356 0.38645 0.0
C4095 C 0.96104 0.66702 0.37454 0.0
C4096 C 0.94842 0.65829 0.38212 0.0
C4097 C 0.90853 0.63297 0.39763 0.0
C4098 C 0.92272 0.64164 0.39342 0.0
H4099 H 0.97448 0.69447 0.35323 0.0
H4100 H 0.95495 0.68135 0.36751 0.0
H4101 H 0.94646 0.63886 0.3749 0.0
H4102 H 0.88733 0.60166 0.41102 0.0
H4103 H 0.91127 0.61696 0.40657 0.0
C4104 C 0.37455 0.00753 0.693 0.0
C4105 C 0.37378 0.01962 0.69377 0.0
C4106 C 0.38381 0.00625 0.70171 0.0
C4107 C 0.40716 0.02162 0.73346 0.0
H4108 H 0.42792 0.00839 0.7135 0.0
C4109 C 0.45972 0.0325 0.75351 0.0
C4110 C 0.46316 0.02232 0.75084 0.0
C4111 C 0.44742 0.03067 0.7483 0.0
C4112 C 0.42209 0.01187 0.71935 0.0
H4113 H 0.38164 0.03951 0.70486 0.0
H4114 H 0.39786 0.03734 0.7199 0.0
H4115 H 0.40869 0.00763 0.70143 0.0
H4116 H 0.45626 0.00209 0.74103 0.0
H4117 H 0.4347 0.99877 0.73218 0.0
H4118 H 0.42083 0.02615 0.7513 0.0
C4119 C 0.39126 0.0288 0.71265 0.0
C4120 C 0.41103 0.01143 0.71241 0.0
C4121 C 0.38199 0.03008 0.70395 0.0
C4122 C 0.45387 0.0101 0.74327 0.0
C4123 C 0.44157 0.00825 0.73811 0.0
C4124 C 0.41825 0.02205 0.74043 0.0
C4125 C 0.39251 0.01702 0.71139 0.0
C4126 C 0.40352 0.01644 0.71931 0.0
C4127 C 0.43831 0.01864 0.74028 0.0
C4128 C 0.42594 0.01732 0.73339 0.0
H4129 H 0.36829 0.99922 0.68536 0.0
H4130 H 0.38434 0.99693 0.70065 0.0
H4131 H 0.40149 0.02541 0.73914 0.0
H4132 H 0.46675 0.04206 0.75923 0.0
H4133 H 0.44531 0.03895 0.75004 0.0
C4134 C 0.97368 0.34671 0.7093 0.0
C4135 C 0.98429 0.34412 0.70732 0.0
C4136 C 0.97634 0.36015 0.71202 0.0
C4137 C 0.00401 0.39716 0.71238 0.0
H4138 H 0.9815 0.40178 0.73957 0.0
C4139 C 0.02681 0.4544 0.74591 0.0
C4140 C 0.01304 0.45676 0.75286 0.0
C4141 C 0.02124 0.43785 0.73724 0.0
C4142 C 0.98775 0.40064 0.73182 0.0
H4143 H 0.006 0.35356 0.70647 0.0
H4144 H 0.01072 0.37685 0.71186 0.0
H4145 H 0.9758 0.37869 0.73142 0.0
H4146 H 0.98773 0.44927 0.74866 0.0
H4147 H 0.98034 0.42334 0.73391 0.0
H4148 H 0.01635 0.41919 0.71351 0.0
C4149 C 0.00029 0.36865 0.71084 0.0
C4150 C 0.98448 0.38739 0.72707 0.0
C4151 C 0.9976 0.35525 0.70783 0.0
C4152 C 0.99534 0.44688 0.74547 0.0
C4153 C 0.9908 0.43054 0.73685 0.0
C4154 C 0.00743 0.41039 0.71738 0.0
C4155 C 0.9897 0.37129 0.71314 0.0
C4156 C 0.99265 0.38545 0.71739 0.0
C4157 C 0.00352 0.42599 0.73332 0.0
C4158 C 0.99939 0.41219 0.72722 0.0
H4159 H 0.9633 0.33833 0.7088 0.0
H4160 H 0.96789 0.36176 0.71336 0.0
H4161 H 0.01037 0.39616 0.70466 0.0
H4162 H 0.03721 0.46097 0.74954 0.0
H4163 H 0.02859 0.43489 0.73471 0.0
C4164 C 0.64298 0.63317 0.70005 0.0
C4165 C 0.64061 0.63416 0.68554 0.0
C4166 C 0.63232 0.62792 0.7094 0.0
C4167 C 0.59814 0.62247 0.71321 0.0
H4168 H 0.59404 0.59577 0.74081 0.0
C4169 C 0.5563 0.60324 0.75382 0.0
C4170 C 0.54878 0.5889 0.75521 0.0
C4171 C 0.56837 0.60924 0.74665 0.0
C4172 C 0.59506 0.60322 0.73314 0.0
H4173 H 0.62517 0.63026 0.66946 0.0
H4174 H 0.60668 0.62112 0.68571 0.0
H4175 H 0.61341 0.60526 0.72542 0.0
H4176 H 0.54795 0.56958 0.75001 0.0
H4177 H 0.56914 0.58008 0.73756 0.0
H4178 H 0.57971 0.62026 0.72065 0.0
C4179 C 0.61677 0.62454 0.68991 0.0
C4180 C 0.6062 0.60873 0.72443 0.0
C4181 C 0.62738 0.62972 0.68058 0.0
C4182 C 0.55368 0.58069 0.74939 0.0
C4183 C 0.56581 0.5867 0.74227 0.0
C4184 C 0.58709 0.61704 0.72195 0.0
C4185 C 0.61912 0.62364 0.70442 0.0
C4186 C 0.60776 0.6183 0.71425 0.0
C4187 C 0.57317 0.60102 0.74064 0.0
C4188 C 0.58535 0.60727 0.73193 0.0
H4189 H 0.65307 0.63651 0.7042 0.0
H4190 H 0.63444 0.62742 0.72055 0.0
H4191 H 0.59914 0.62994 0.70558 0.0
H4192 H 0.55265 0.60978 0.758 0.0
H4193 H 0.57387 0.62031 0.74565 0.0
C4194 C 0.66183 0.68542 0.65501 0.0
C4195 C 0.67537 0.69046 0.65168 0.0
C4196 C 0.65564 0.69313 0.65224 0.0
C4197 C 0.66208 0.7279 0.64481 0.0
H4198 H 0.62831 0.7083 0.62279 0.0
C4199 C 0.63997 0.75623 0.61433 0.0
C4200 C 0.62587 0.75014 0.61305 0.0
C4201 C 0.64576 0.74917 0.62049 0.0
C4202 C 0.6376 0.71392 0.62916 0.0
H4203 H 0.69322 0.70786 0.64353 0.0
H4204 H 0.68242 0.72131 0.63882 0.0
H4205 H 0.63885 0.69574 0.63165 0.0
H4206 H 0.60683 0.73238 0.61814 0.0
H4207 H 0.61688 0.72016 0.62919 0.0
H4208 H 0.66085 0.74608 0.64236 0.0
C4209 C 0.6766 0.71139 0.64353 0.0
C4210 C 0.64364 0.7067 0.63422 0.0
C4211 C 0.68275 0.70364 0.64615 0.0
C4212 C 0.61771 0.73714 0.61864 0.0
C4213 C 0.62349 0.73014 0.62493 0.0
C4214 C 0.65597 0.73511 0.63987 0.0
C4215 C 0.6629 0.70608 0.64625 0.0
C4216 C 0.65603 0.71364 0.64194 0.0
C4217 C 0.63759 0.73599 0.62578 0.0
C4218 C 0.64373 0.72824 0.63181 0.0
H4219 H 0.65585 0.67532 0.6593 0.0
H4220 H 0.6451 0.68885 0.65457 0.0
H4221 H 0.67157 0.73347 0.65086 0.0
H4222 H 0.64655 0.76639 0.61044 0.0
H4223 H 0.65664 0.75397 0.62085 0.0
C4224 C 0.31611 0.96706 0.64603 0.0
C4225 C 0.31212 0.97638 0.64165 0.0
C4226 C 0.30848 0.95306 0.64178 0.0
C4227 C 0.2861 0.93151 0.61223 0.0
H4228 H 0.27679 0.90058 0.63596 0.0
C4229 C 0.25014 0.87245 0.58301 0.0
C4230 C 0.24974 0.85863 0.59378 0.0
C4231 C 0.25886 0.88938 0.59156 0.0
C4232 C 0.27947 0.9091 0.62914 0.0
H4233 H 0.29645 0.97804 0.63018 0.0
H4234 H 0.28331 0.9538 0.62281 0.0
H4235 H 0.28888 0.92405 0.64652 0.0
H4236 H 0.26294 0.85385 0.61336 0.0
H4237 H 0.27744 0.88178 0.62522 0.0
H4238 H 0.27723 0.91689 0.59481 0.0
C4239 C 0.29242 0.95734 0.62933 0.0
C4240 C 0.28634 0.92253 0.63522 0.0
C4241 C 0.29996 0.97124 0.63362 0.0
C4242 C 0.26258 0.86209 0.6081 0.0
C4243 C 0.27095 0.87938 0.61585 0.0
C4244 C 0.27939 0.91816 0.60615 0.0
C4245 C 0.29678 0.94817 0.63302 0.0
C4246 C 0.28962 0.93386 0.62682 0.0
C4247 C 0.26872 0.89264 0.60796 0.0
C4248 C 0.2759 0.90678 0.61453 0.0
H4249 H 0.32539 0.97065 0.65226 0.0
H4250 H 0.31207 0.94621 0.64477 0.0
H4251 H 0.28876 0.94006 0.60542 0.0
H4252 H 0.24337 0.87014 0.57389 0.0
H4253 H 0.25794 0.89752 0.58684 0.0
C4254 C 0.03079 0.32825 0.66184 0.0
C4255 C 0.0279 0.33689 0.67025 0.0
C4256 C 0.04212 0.33384 0.65343 0.0
C4257 C 0.07514 0.366 0.65029 0.0
H4258 H 0.07588 0.34843 0.61455 0.0
C4259 C 0.12067 0.3906 0.61411 0.0
C4260 C 0.12562 0.38202 0.60963 0.0
C4261 C 0.10819 0.3851 0.62045 0.0
C4262 C 0.0758 0.3534 0.62454 0.0
H4263 H 0.03422 0.35818 0.67588 0.0
H4264 H 0.05365 0.36794 0.66084 0.0
H4265 H 0.05488 0.33902 0.62727 0.0
H4266 H 0.12142 0.3609 0.60854 0.0
H4267 H 0.09941 0.35125 0.61931 0.0
H4268 H 0.09601 0.38048 0.6474 0.0
C4269 C 0.04748 0.35683 0.66108 0.0
C4270 C 0.0638 0.348 0.63188 0.0
C4271 C 0.03627 0.35124 0.66964 0.0
C4272 C 0.11775 0.36776 0.61156 0.0
C4273 C 0.10517 0.36223 0.61774 0.0
C4274 C 0.08706 0.37149 0.64286 0.0
C4275 C 0.05073 0.34821 0.65308 0.0
C4276 C 0.06333 0.35419 0.6449 0.0
C4277 C 0.10036 0.37088 0.62241 0.0
C4278 C 0.08753 0.36521 0.62996 0.0
H4279 H 0.02455 0.31714 0.66213 0.0
H4280 H 0.04436 0.32685 0.64758 0.0
H4281 H 0.07531 0.37089 0.66042 0.0
H4282 H 0.12662 0.40164 0.61298 0.0
H4283 H 0.1047 0.392 0.62392 0.0
C4284 C 0.30609 0.3387 0.65228 0.0
C4285 C 0.2974 0.32803 0.66096 0.0
C4286 C 0.30121 0.34551 0.64401 0.0
C4287 C 0.26967 0.34329 0.62986 0.0
H4288 H 0.29103 0.38321 0.63223 0.0
C4289 C 0.24711 0.37813 0.62132 0.0
C4290 C 0.25482 0.39071 0.61476 0.0
C4291 C 0.2525 0.36972 0.62412 0.0
C4292 C 0.28504 0.37207 0.63121 0.0
H4293 H 0.27668 0.31579 0.66729 0.0
H4294 H 0.26824 0.32773 0.65303 0.0
H4295 H 0.30018 0.36977 0.64223 0.0
H4296 H 0.27412 0.40426 0.60574 0.0
H4297 H 0.28359 0.3895 0.61058 0.0
H4298 H 0.25436 0.34564 0.61923 0.0
C4299 C 0.27879 0.33077 0.65248 0.0
C4300 C 0.29029 0.36435 0.63695 0.0
C4301 C 0.28365 0.32398 0.66075 0.0
C4302 C 0.26794 0.39456 0.61073 0.0
C4303 C 0.27337 0.38616 0.61359 0.0
C4304 C 0.26441 0.35101 0.62414 0.0
C4305 C 0.28754 0.34178 0.6442 0.0
C4306 C 0.28256 0.34987 0.63662 0.0
C4307 C 0.26578 0.37375 0.62053 0.0
C4308 C 0.27193 0.3655 0.62501 0.0
H4309 H 0.31672 0.34204 0.65213 0.0
H4310 H 0.30819 0.35382 0.6376 0.0
H4311 H 0.26355 0.33215 0.6292 0.0
H4312 H 0.23702 0.37498 0.62467 0.0
H4313 H 0.24645 0.36033 0.62967 0.0
C4314 C 0.6823 0.9786 0.63478 0.0
C4315 C 0.67799 0.98435 0.64544 0.0
C4316 C 0.67503 0.96449 0.63132 0.0
C4317 C 0.6407 0.93434 0.63326 0.0
H4318 H 0.65808 0.91516 0.61779 0.0
C4319 C 0.61171 0.87754 0.61045 0.0
C4320 C 0.6154 0.87601 0.59665 0.0
C4321 C 0.61934 0.88991 0.61848 0.0
C4322 C 0.6531 0.92039 0.62214 0.0
H4323 H 0.66301 0.97957 0.66139 0.0
H4324 H 0.65049 0.95483 0.6556 0.0
H4325 H 0.67181 0.93813 0.62898 0.0
H4326 H 0.62967 0.88658 0.58021 0.0
H4327 H 0.64316 0.90791 0.59436 0.0
H4328 H 0.62198 0.91647 0.62634 0.0
C4329 C 0.65933 0.96132 0.64965 0.0
C4330 C 0.66095 0.93357 0.62849 0.0
C4331 C 0.66656 0.97551 0.65303 0.0
C4332 C 0.62675 0.88723 0.59095 0.0
C4333 C 0.63448 0.89946 0.59904 0.0
C4334 C 0.63284 0.92105 0.62708 0.0
C4335 C 0.66331 0.95568 0.63853 0.0
C4336 C 0.65489 0.9409 0.63374 0.0
C4337 C 0.63087 0.90092 0.61287 0.0
C4338 C 0.639 0.91413 0.62111 0.0
H4339 H 0.69103 0.98507 0.62866 0.0
H4340 H 0.67832 0.96061 0.62255 0.0
H4341 H 0.63566 0.93969 0.63703 0.0
H4342 H 0.60287 0.86915 0.61499 0.0
H4343 H 0.61632 0.89083 0.62909 0.0
C4344 C 0.03589 0.69299 0.67997 0.0
C4345 C 0.02349 0.69096 0.67461 0.0
C4346 C 0.0466 0.69656 0.67099 0.0
C4347 C 0.05952 0.71199 0.63659 0.0
H4348 H 0.08239 0.69607 0.64107 0.0
C4349 C 0.10129 0.72185 0.59754 0.0
C4350 C 0.11377 0.72465 0.60351 0.0
C4351 C 0.09003 0.71719 0.60593 0.0
C4352 C 0.07617 0.7007 0.63977 0.0
H4353 H 0.01257 0.69093 0.65556 0.0
H4354 H 0.03127 0.69704 0.63983 0.0
H4355 H 0.0631 0.68889 0.65614 0.0
H4356 H 0.12411 0.72429 0.62281 0.0
H4357 H 0.10446 0.7163 0.63757 0.0
H4358 H 0.07264 0.72386 0.62027 0.0
C4359 C 0.03274 0.69605 0.65104 0.0
C4360 C 0.06512 0.69659 0.64841 0.0
C4361 C 0.02201 0.69248 0.66004 0.0
C4362 C 0.11466 0.72235 0.61797 0.0
C4363 C 0.10338 0.71768 0.62638 0.0
C4364 C 0.07057 0.7161 0.62795 0.0
C4365 C 0.04518 0.69816 0.65642 0.0
C4366 C 0.0567 0.70223 0.64696 0.0
C4367 C 0.09096 0.71514 0.62048 0.0
C4368 C 0.07906 0.71055 0.62948 0.0
H4369 H 0.03738 0.69194 0.69116 0.0
H4370 H 0.0561 0.6983 0.67552 0.0
H4371 H 0.05337 0.7167 0.63534 0.0
H4372 H 0.10028 0.72333 0.58636 0.0
H4373 H 0.08055 0.7151 0.60101 0.0
C4374 C 0.97018 0.62603 0.71359 0.0
C4375 C 0.97997 0.63921 0.7095 0.0
C4376 C 0.97375 0.61617 0.71667 0.0
C4377 C 0.00149 0.60835 0.71276 0.0
H4378 H 0.98415 0.58432 0.74384 0.0
C4379 C 0.0221 0.57659 0.73894 0.0
C4380 C 0.01276 0.56247 0.74003 0.0
C4381 C 0.01776 0.58566 0.73508 0.0
C4382 C 0.989 0.59092 0.73509 0.0
H4383 H 0.00119 0.65235 0.70538 0.0
H4384 H 0.00749 0.63541 0.7112 0.0
H4385 H 0.97721 0.60065 0.73703 0.0
H4386 H 0.99153 0.5469 0.73861 0.0
H4387 H 0.98391 0.56288 0.73218 0.0
H4388 H 0.0136 0.59886 0.71123 0.0
C4389 C 0.99697 0.63248 0.71167 0.0
C4390 C 0.98499 0.60022 0.7311 0.0
C4391 C 0.99337 0.64225 0.70839 0.0
C4392 C 0.99895 0.55771 0.73773 0.0
C4393 C 0.99459 0.56683 0.73409 0.0
C4394 C 0.00564 0.5992 0.7169 0.0
C4395 C 0.98723 0.61932 0.71593 0.0
C4396 C 0.99121 0.6091 0.7199 0.0
C4397 C 0.00398 0.58084 0.73254 0.0
C4398 C 0.99945 0.59043 0.72811 0.0
H4399 H 0.95974 0.62332 0.71443 0.0
H4400 H 0.96591 0.60608 0.71963 0.0
H4401 H 0.00633 0.61478 0.70391 0.0
H4402 H 0.03278 0.58058 0.74091 0.0
H4403 H 0.02517 0.59646 0.73416 0.0
C4404 C 0.35383 0.36812 0.70381 0.0
C4405 C 0.35943 0.35961 0.70549 0.0
C4406 C 0.36123 0.38209 0.70799 0.0
C4407 C 0.39528 0.41128 0.71442 0.0
H4408 H 0.37862 0.42543 0.74004 0.0
C4409 C 0.42555 0.46635 0.73947 0.0
C4410 C 0.41891 0.47387 0.74107 0.0
C4411 C 0.4183 0.45228 0.7357 0.0
C4412 C 0.38338 0.42175 0.73272 0.0
H4413 H 0.37735 0.35925 0.71239 0.0
H4414 H 0.39039 0.38379 0.71935 0.0
H4415 H 0.36604 0.4014 0.73143 0.0
H4416 H 0.39937 0.47241 0.74065 0.0
H4417 H 0.38674 0.44803 0.73341 0.0
H4418 H 0.41245 0.43163 0.71525 0.0
C4419 C 0.38022 0.37955 0.71494 0.0
C4420 C 0.37617 0.40796 0.72784 0.0
C4421 C 0.37275 0.36551 0.71099 0.0
C4422 C 0.40479 0.46692 0.73929 0.0
C4423 C 0.39754 0.45289 0.73528 0.0
C4424 C 0.40243 0.42514 0.71911 0.0
C4425 C 0.37445 0.38791 0.7137 0.0
C4426 C 0.38206 0.40259 0.71868 0.0
C4427 C 0.40422 0.44539 0.73327 0.0
C4428 C 0.3966 0.43057 0.72837 0.0
H4429 H 0.34359 0.3639 0.69966 0.0
H4430 H 0.3566 0.38836 0.70681 0.0
H4431 H 0.4 0.40742 0.70726 0.0
H4432 H 0.43641 0.47139 0.74099 0.0
H4433 H 0.42378 0.44682 0.73466 0.0
C4434 C 0.65049 0.03275 0.69716 0.0
C4435 C 0.65602 0.02448 0.69351 0.0
C4436 C 0.63982 0.0281 0.70641 0.0
C4437 C 0.61175 0.99575 0.71878 0.0
H4438 H 0.6065 0.02058 0.74367 0.0
C4439 C 0.56244 0.97725 0.7485 0.0
C4440 C 0.55657 0.98547 0.7466 0.0
C4441 C 0.57582 0.98209 0.74497 0.0
C4442 C 0.60784 0.01352 0.73678 0.0
H4443 H 0.65512 0.00511 0.69729 0.0
H4444 H 0.63661 0.99706 0.71361 0.0
H4445 H 0.62802 0.02893 0.73223 0.0
H4446 H 0.56025 0.00537 0.7401 0.0
H4447 H 0.58361 0.01385 0.73402 0.0
H4448 H 0.59148 0.98044 0.72309 0.0
C4449 C 0.64036 0.00704 0.7091 0.0
C4450 C 0.62015 0.0183 0.7302 0.0
C4451 C 0.65102 0.01169 0.6998 0.0
C4452 C 0.56452 0.99883 0.7417 0.0
C4453 C 0.57792 0.0037 0.73829 0.0
C4454 C 0.59948 0.99096 0.72542 0.0
C4455 C 0.63445 0.01508 0.71229 0.0
C4456 C 0.62213 0.00957 0.72082 0.0
C4457 C 0.58363 0.99528 0.73959 0.0
C4458 C 0.59727 -0.00012 0.73421 0.0
H4459 H 0.6541 0.04267 0.69253 0.0
H4460 H 0.63543 0.0345 0.70846 0.0
H4461 H 0.61283 0.98877 0.71149 0.0
H4462 H 0.55652 0.96692 0.75229 0.0
H4463 H 0.58 0.97541 0.74619 0.0
loop_
_geom_bond_atom_site_label_1
_geom_bond_atom_site_label_2
_geom_bond_distance
_geom_bond_site_symmetry_2
_ccdc_geom_bond_type
Mg0 O1 2.028 1_556 S
Mg0 O7 1.986 1_455 S
Mg0 O9 2.114 . S
Mg0 O10 2.251 . S
Mg0 O13 2.010 1_556 S
O1 Mg0 2.028 1_554 S
O1 C4 1.266 . S
O2 Mg3 2.028 1_554 S
O2 C4 1.235 1_655 S
Mg3 O2 2.028 1_556 S
Mg3 O8 2.032 . S
Mg3 O10 2.079 1_655 S
C4 O1 1.266 . S
C4 O2 1.235 1_455 S
C5 O6 1.264 . S
C5 O13 1.249 . S
O6 C5 1.264 . S
O7 Mg0 1.986 1_655 S
O7 C11 1.246 . S
O8 Mg3 2.032 . S
O8 C11 1.259 . S
O9 Mg0 2.114 . S
O9 C12 1.252 . S
O10 Mg0 2.251 . S
O10 Mg3 2.079 1_455 S
O10 C12 1.273 . S
C11 O7 1.246 . S
C11 O8 1.259 . S
C12 O9 1.252 . S
C12 O10 1.273 . S
O13 Mg0 2.010 1_554 S
O13 C5 1.249 . S
Mg14 O15 2.028 . S
Mg14 O21 1.986 . S
Mg14 O23 2.114 . S
Mg14 O24 2.251 . S
Mg14 O27 2.010 . S
O15 Mg14 2.028 . S
O15 C18 1.250 . S
O16 Mg17 2.028 . S
O16 C18 1.248 . S
Mg17 O16 2.028 . S
Mg17 O22 2.032 . S
Mg17 O24 2.079 . S
C18 O15 1.250 . S
C18 O16 1.248 . S
C19 O20 1.264 . S
C19 O27 1.249 . S
O20 C19 1.264 . S
O21 Mg14 1.986 . S
O21 C25 1.246 . S
O22 Mg17 2.032 . S
O22 C25 1.259 . S
O23 Mg14 2.114 . S
O23 C26 1.252 . S
O24 Mg14 2.251 . S
O24 Mg17 2.079 . S
O24 C26 1.273 . S
C25 O21 1.246 . S
C25 O22 1.259 . S
C26 O23 1.252 . S
C26 O24 1.273 . S
O27 Mg14 2.010 . S
O27 C19 1.249 . S
Mg28 O29 2.056 1_565 S
Mg28 O35 1.983 1_564 S
Mg28 O37 2.104 1_554 S
Mg28 O38 2.233 1_564 S
Mg28 O41 2.024 . S
O29 Mg28 2.056 1_545 S
O29 C32 1.250 . S
O30 Mg31 2.028 1_554 S
O30 C32 1.248 . S
Mg31 O30 2.028 1_556 S
Mg31 O36 2.032 . S
Mg31 O38 2.079 . S
C32 O29 1.250 . S
C32 O30 1.248 . S
C33 O34 1.264 . S
C33 O41 1.249 . S
O34 C33 1.264 . S
O35 Mg28 1.983 1_546 S
O35 C39 1.257 . S
O36 Mg31 2.032 . S
O36 C39 1.259 . S
O37 Mg28 2.104 1_556 S
O37 C40 1.252 . S
O38 Mg28 2.233 1_546 S
O38 Mg31 2.079 . S
O38 C40 1.273 1_545 S
C39 O35 1.257 . S
C39 O36 1.259 . S
C40 O37 1.252 . S
C40 O38 1.273 1_565 S
O41 Mg28 2.024 . S
O41 C33 1.249 . S
Mg42 O43 2.100 1_655 S
Mg42 O49 1.986 1_655 S
Mg42 O51 2.114 . S
Mg42 O52 2.251 1_655 S
Mg42 O55 2.010 . S
O43 Mg42 2.100 1_455 S
O43 C46 1.235 1_554 S
O44 Mg45 2.028 . S
O44 C46 1.248 1_554 S
Mg45 O44 2.028 . S
Mg45 O50 2.032 . S
Mg45 O52 2.079 . S
C46 O43 1.235 1_556 S
C46 O44 1.248 1_556 S
C47 O48 1.264 . S
C47 O55 1.249 . S
O48 C47 1.264 . S
O49 Mg42 1.986 1_455 S
O49 C53 1.246 . S
O50 Mg45 2.032 . S
O50 C53 1.259 . S
O51 Mg42 2.114 . S
O51 C54 1.252 . S
O52 Mg42 2.251 1_455 S
O52 Mg45 2.079 . S
O52 C54 1.273 1_455 S
C53 O49 1.246 . S
C53 O50 1.259 . S
C54 O51 1.252 . S
C54 O52 1.273 1_655 S
O55 Mg42 2.010 . S
O55 C47 1.249 . S
Mg56 O57 2.028 1_556 S
Mg56 O63 1.986 . S
Mg56 O65 2.114 . S
Mg56 O66 2.251 . S
Mg56 O69 2.010 1_556 S
O57 Mg56 2.028 1_554 S
O57 C60 1.250 . S
O58 Mg59 2.028 1_554 S
O58 C60 1.248 . S
Mg59 O58 2.028 1_556 S
Mg59 O64 2.032 . S
Mg59 O66 2.079 . S
C60 O57 1.250 . S
C60 O58 1.248 . S
C61 O62 1.264 . S
C61 O69 1.249 . S
O62 C61 1.264 . S
O63 Mg56 1.986 . S
O63 C67 1.246 . S
O64 Mg59 2.032 . S
O64 C67 1.259 . S
O65 Mg56 2.114 . S
O65 C68 1.252 . S
O66 Mg56 2.251 . S
O66 Mg59 2.079 . S
O66 C68 1.273 . S
C67 O63 1.246 . S
C67 O64 1.259 . S
C68 O65 1.252 . S
C68 O66 1.273 . S
O69 Mg56 2.010 1_554 S
O69 C61 1.249 . S
Mg70 O71 2.028 . S
Mg70 O77 1.986 1_545 S
Mg70 O79 2.114 . S
Mg70 O80 2.251 . S
Mg70 O83 2.010 . S
O71 Mg70 2.028 . S
O71 C74 1.239 1_544 S
O72 Mg73 2.028 . S
O72 C74 1.206 1_554 S
Mg73 O72 2.028 . S
Mg73 O78 2.032 . S
Mg73 O80 2.079 1_565 S
C74 O71 1.239 1_566 S
C74 O72 1.206 1_556 S
C75 O76 1.264 . S
C75 O83 1.249 . S
O76 C75 1.264 . S
O77 Mg70 1.986 1_565 S
O77 C81 1.246 . S
O78 Mg73 2.032 . S
O78 C81 1.259 . S
O79 Mg70 2.114 . S
O79 C82 1.252 . S
O80 Mg70 2.251 . S
O80 Mg73 2.079 1_545 S
O80 C82 1.273 . S
C81 O77 1.246 . S
C81 O78 1.259 . S
C82 O79 1.252 . S
C82 O80 1.273 . S
O83 Mg70 2.010 . S
O83 C75 1.249 . S
Mg84 O85 2.028 . S
Mg84 O91 1.986 . S
Mg84 O93 2.114 . S
Mg84 O94 2.251 . S
Mg84 O97 2.010 . S
O85 Mg84 2.028 . S
O85 C88 1.250 . S
O86 Mg87 2.028 . S
O86 C88 1.248 . S
Mg87 O86 2.028 . S
Mg87 O92 2.032 . S
Mg87 O94 2.079 . S
C88 O85 1.250 . S
C88 O86 1.248 . S
C89 O90 1.264 . S
C89 O97 1.249 . S
O90 C89 1.264 . S
O91 Mg84 1.986 . S
O91 C95 1.246 . S
O92 Mg87 2.032 . S
O92 C95 1.259 . S
O93 Mg84 2.114 . S
O93 C96 1.252 . S
O94 Mg84 2.251 . S
O94 Mg87 2.079 . S
O94 C96 1.273 . S
C95 O91 1.246 . S
C95 O92 1.259 . S
C96 O93 1.252 . S
C96 O94 1.273 . S
O97 Mg84 2.010 . S
O97 C89 1.249 . S
Mg98 O99 2.028 . S
Mg98 O105 1.986 1_565 S
Mg98 O107 2.114 . S
Mg98 O108 2.251 . S
Mg98 O111 2.010 . S
O99 Mg98 2.028 . S
O99 C102 1.250 . S
O100 Mg101 2.028 . S
O100 C102 1.248 . S
Mg101 O100 2.028 . S
Mg101 O106 2.032 1_565 S
Mg101 O108 2.079 . S
C102 O99 1.250 . S
C102 O100 1.248 . S
C103 O104 1.264 . S
C103 O111 1.249 . S
O104 C103 1.264 . S
O105 Mg98 1.986 1_545 S
O105 C109 1.246 . S
O106 Mg101 2.032 1_545 S
O106 C109 1.259 . S
O107 Mg98 2.114 . S
O107 C110 1.252 . S
O108 Mg98 2.251 . S
O108 Mg101 2.079 . S
O108 C110 1.273 . S
C109 O105 1.246 . S
C109 O106 1.259 . S
C110 O107 1.252 . S
C110 O108 1.273 . S
O111 Mg98 2.010 . S
O111 C103 1.249 . S
Mg112 O113 2.028 . S
Mg112 O119 1.986 . S
Mg112 O121 2.114 . S
Mg112 O122 2.251 . S
Mg112 O125 2.010 1_455 S
O113 Mg112 2.028 . S
O113 C116 1.250 . S
O114 Mg115 2.028 . S
O114 C116 1.248 . S
Mg115 O114 2.028 . S
Mg115 O120 2.032 . S
Mg115 O122 2.079 . S
C116 O113 1.250 . S
C116 O114 1.248 . S
C117 O118 1.264 . S
C117 O125 1.249 . S
O118 C117 1.264 . S
O119 Mg112 1.986 . S
O119 C123 1.246 . S
O120 Mg115 2.032 . S
O120 C123 1.259 . S
O121 Mg112 2.114 . S
O121 C124 1.252 . S
O122 Mg112 2.251 . S
O122 Mg115 2.079 . S
O122 C124 1.273 . S
C123 O119 1.246 . S
C123 O120 1.259 . S
C124 O121 1.252 . S
C124 O122 1.273 . S
O125 Mg112 2.010 1_655 S
O125 C117 1.249 . S
Mg126 O127 2.028 . S
Mg126 O133 1.933 1_565 S
Mg126 O135 2.114 . S
Mg126 O136 2.251 . S
Mg126 O139 2.010 . S
O127 Mg126 2.028 . S
O127 C130 1.250 . S
O128 Mg129 2.028 . S
O128 C130 1.248 . S
Mg129 O128 2.028 . S
Mg129 O134 2.118 . S
Mg129 O136 2.079 . S
C130 O127 1.250 . S
C130 O128 1.248 . S
C131 O132 1.264 . S
C131 O139 1.249 . S
O132 C131 1.264 . S
O133 Mg126 1.933 1_545 S
O133 C137 1.241 . S
O134 Mg129 2.118 . S
O134 C137 1.185 1_565 S
O135 Mg126 2.114 . S
O135 C138 1.252 . S
O136 Mg126 2.251 . S
O136 Mg129 2.079 . S
O136 C138 1.273 . S
C137 O133 1.241 . S
C137 O134 1.185 1_545 S
C138 O135 1.252 . S
C138 O136 1.273 . S
O139 Mg126 2.010 . S
O139 C131 1.249 . S
Mg140 O141 2.028 . S
Mg140 O147 1.986 . S
Mg140 O149 2.114 . S
Mg140 O150 2.251 . S
Mg140 O153 2.010 1_455 S
O141 Mg140 2.028 . S
O141 C144 1.250 . S
O142 Mg143 2.028 . S
O142 C144 1.248 . S
Mg143 O142 2.028 . S
Mg143 O148 2.032 . S
Mg143 O150 2.079 . S
C144 O141 1.250 . S
C144 O142 1.248 . S
C145 O146 1.264 . S
C145 O153 1.249 . S
O146 C145 1.264 . S
O147 Mg140 1.986 . S
O147 C151 1.246 . S
O148 Mg143 2.032 . S
O148 C151 1.259 . S
O149 Mg140 2.114 . S
O149 C152 1.252 . S
O150 Mg140 2.251 . S
O150 Mg143 2.079 . S
O150 C152 1.273 . S
C151 O147 1.246 . S
C151 O148 1.259 . S
C152 O149 1.252 . S
C152 O150 1.273 . S
O153 Mg140 2.010 1_655 S
O153 C145 1.249 . S
Mg154 O155 2.028 . S
Mg154 O161 1.986 . S
Mg154 O163 2.114 . S
Mg154 O164 2.251 . S
Mg154 O167 2.010 . S
O155 Mg154 2.028 . S
O155 C158 1.250 . S
O156 Mg157 2.028 . S
O156 C158 1.248 . S
Mg157 O156 2.028 . S
Mg157 O162 2.032 . S
Mg157 O164 2.079 . S
C158 O155 1.250 . S
C158 O156 1.248 . S
C159 O160 1.264 . S
C159 O167 1.249 . S
O160 C159 1.264 . S
O161 Mg154 1.986 . S
O161 C165 1.246 . S
O162 Mg157 2.032 . S
O162 C165 1.259 . S
O163 Mg154 2.114 . S
O163 C166 1.252 . S
O164 Mg154 2.251 . S
O164 Mg157 2.079 . S
O164 C166 1.273 . S
C165 O161 1.246 . S
C165 O162 1.259 . S
C166 O163 1.252 . S
C166 O164 1.273 . S
O167 Mg154 2.010 . S
O167 C159 1.249 . S
Mg168 O169 2.028 . S
Mg168 O175 2.047 . S
Mg168 O177 2.114 . S
Mg168 O178 2.251 . S
Mg168 O181 2.010 . S
O169 Mg168 2.028 . S
O169 C172 1.250 . S
O170 Mg171 2.028 . S
O170 C172 1.248 . S
Mg171 O170 2.028 . S
Mg171 O176 2.032 . S
Mg171 O178 2.079 . S
C172 O169 1.250 . S
C172 O170 1.248 . S
C173 O174 1.264 . S
C173 O181 1.249 . S
O174 C173 1.264 . S
O175 Mg168 2.047 . S
O175 C179 1.258 1_545 S
O176 Mg171 2.032 . S
O176 C179 1.259 1_545 S
O177 Mg168 2.114 . S
O177 C180 1.252 . S
O178 Mg168 2.251 . S
O178 Mg171 2.079 . S
O178 C180 1.273 . S
C179 O175 1.258 1_565 S
C179 O176 1.259 1_565 S
C180 O177 1.252 . S
C180 O178 1.273 . S
O181 Mg168 2.010 . S
O181 C173 1.249 . S
Mg182 O183 2.028 . S
Mg182 O189 1.986 . S
Mg182 O191 2.114 . S
Mg182 O192 2.251 . S
Mg182 O195 2.010 1_655 S
O183 Mg182 2.028 . S
O183 C186 1.250 . S
O184 Mg185 2.028 . S
O184 C186 1.248 . S
Mg185 O184 2.028 . S
Mg185 O190 2.032 . S
Mg185 O192 2.079 . S
C186 O183 1.250 . S
C186 O184 1.248 . S
C187 O188 1.264 . S
C187 O195 1.249 . S
O188 C187 1.264 . S
O189 Mg182 1.986 . S
O189 C193 1.246 . S
O190 Mg185 2.032 . S
O190 C193 1.259 . S
O191 Mg182 2.114 . S
O191 C194 1.252 . S
O192 Mg182 2.251 . S
O192 Mg185 2.079 . S
O192 C194 1.273 . S
C193 O189 1.246 . S
C193 O190 1.259 . S
C194 O191 1.252 . S
C194 O192 1.273 . S
O195 Mg182 2.010 1_455 S
O195 C187 1.249 . S
Mg196 O197 2.028 . S
Mg196 O203 1.986 . S
Mg196 O205 2.114 . S
Mg196 O206 2.251 . S
Mg196 O209 2.010 . S
O197 Mg196 2.028 . S
O197 C200 1.250 . S
O198 Mg199 2.028 . S
O198 C200 1.248 . S
Mg199 O198 2.028 . S
Mg199 O204 2.032 . S
Mg199 O206 2.079 . S
C200 O197 1.250 . S
C200 O198 1.248 . S
C201 O202 1.264 . S
C201 O209 1.249 . S
O202 C201 1.264 . S
O203 Mg196 1.986 . S
O203 C207 1.246 . S
O204 Mg199 2.032 . S
O204 C207 1.259 . S
O205 Mg196 2.114 . S
O205 C208 1.252 . S
O206 Mg196 2.251 . S
O206 Mg199 2.079 . S
O206 C208 1.273 . S
C207 O203 1.246 . S
C207 O204 1.259 . S
C208 O205 1.252 . S
C208 O206 1.273 . S
O209 Mg196 2.010 . S
O209 C201 1.249 . S
Mg210 O211 2.028 . S
Mg210 O217 1.986 . S
Mg210 O219 2.114 . S
Mg210 O220 2.251 . S
Mg210 O223 2.010 . S
O211 Mg210 2.028 . S
O211 C214 1.250 . S
O212 Mg213 2.028 . S
O212 C214 1.248 . S
Mg213 O212 2.028 . S
Mg213 O218 2.032 . S
Mg213 O220 2.079 . S
C214 O211 1.250 . S
C214 O212 1.248 . S
C215 O216 1.264 . S
C215 O223 1.249 . S
O216 C215 1.264 . S
O217 Mg210 1.986 . S
O217 C221 1.246 . S
O218 Mg213 2.032 . S
O218 C221 1.259 . S
O219 Mg210 2.114 . S
O219 C222 1.252 . S
O220 Mg210 2.251 . S
O220 Mg213 2.079 . S
O220 C222 1.273 . S
C221 O217 1.246 . S
C221 O218 1.259 . S
C222 O219 1.252 . S
C222 O220 1.273 . S
O223 Mg210 2.010 . S
O223 C215 1.249 . S
Mg224 O225 2.028 . S
Mg224 O231 1.986 1_545 S
Mg224 O233 2.114 . S
Mg224 O234 2.251 . S
Mg224 O237 2.010 . S
O225 Mg224 2.028 . S
O225 C228 1.250 . S
O226 Mg227 2.028 . S
O226 C228 1.248 . S
Mg227 O226 2.028 . S
Mg227 O232 1.980 1_545 S
Mg227 O234 2.079 . S
C228 O225 1.250 . S
C228 O226 1.248 . S
C229 O230 1.264 . S
C229 O237 1.249 . S
O230 C229 1.264 . S
O231 Mg224 1.986 1_565 S
O231 C235 1.246 . S
O232 Mg227 1.980 1_565 S
O232 C235 1.265 . S
O233 Mg224 2.114 . S
O233 C236 1.252 . S
O234 Mg224 2.251 . S
O234 Mg227 2.079 . S
O234 C236 1.273 . S
C235 O231 1.246 . S
C235 O232 1.265 . S
C236 O233 1.252 . S
C236 O234 1.273 . S
O237 Mg224 2.010 . S
O237 C229 1.249 . S
Mg238 O239 2.028 . S
Mg238 O245 1.986 . S
Mg238 O247 2.114 . S
Mg238 O248 2.251 . S
Mg238 O251 2.010 1_655 S
O239 Mg238 2.028 . S
O239 C242 1.250 . S
O240 Mg241 2.028 . S
O240 C242 1.248 . S
Mg241 O240 2.028 . S
Mg241 O246 2.032 . S
Mg241 O248 2.079 . S
C242 O239 1.250 . S
C242 O240 1.248 . S
C243 O244 1.264 . S
C243 O251 1.249 . S
O244 C243 1.264 . S
O245 Mg238 1.986 . S
O245 C249 1.246 . S
O246 Mg241 2.032 . S
O246 C249 1.259 . S
O247 Mg238 2.114 . S
O247 C250 1.252 . S
O248 Mg238 2.251 . S
O248 Mg241 2.079 . S
O248 C250 1.273 . S
C249 O245 1.246 . S
C249 O246 1.259 . S
C250 O247 1.252 . S
C250 O248 1.273 . S
O251 Mg238 2.010 1_455 S
O251 C243 1.249 . S
C252 C253 1.560 . S
C252 H313 0.959 . S
C252 H314 0.959 . S
C252 H315 0.960 . S
C253 C252 1.560 . S
C253 O308 1.426 . S
C253 H312 0.980 . S
C254 C255 1.407 . S
C254 C259 1.418 . S
C254 O308 1.334 . S
C255 C254 1.407 . S
C255 C256 1.360 . S
C255 H316 0.929 . S
C256 C255 1.360 . S
C256 C257 1.401 . S
C256 C260 1.527 . S
C257 C256 1.401 . S
C257 C258 1.405 . S
C257 C290 1.587 . S
C258 C257 1.405 . S
C258 C259 1.332 . S
C258 C261 1.496 . S
C259 C254 1.418 . S
C259 C258 1.332 . S
C259 H317 0.929 . S
C260 C256 1.527 . S
C260 H318 0.959 . S
C260 H319 0.961 . S
C260 H320 0.961 . S
C261 C258 1.496 . S
C261 H321 0.960 . S
C261 H322 0.960 . S
C261 H323 0.961 . S
C262 C263 1.517 . S
C262 H325 0.961 . S
C262 H326 0.960 . S
C262 H327 0.959 . S
C263 C262 1.517 . S
C263 O311 1.468 . S
C263 H324 0.980 . S
C264 C265 1.349 . S
C264 C269 1.367 . S
C264 O311 1.408 . S
C265 C264 1.349 . S
C265 C266 1.407 . S
C265 H328 0.930 . S
C266 C265 1.407 . S
C266 C267 1.449 . S
C266 C270 1.535 . S
C267 C266 1.449 . S
C267 C268 1.384 . S
C267 C292 1.553 . S
C268 C267 1.384 . S
C268 C269 1.364 . S
C268 C271 1.450 . S
C269 C264 1.367 . S
C269 C268 1.364 . S
C269 H329 0.931 . S
C270 C266 1.535 . S
C270 H330 0.959 . S
C270 H331 0.961 . S
C270 H332 0.959 . S
C271 C268 1.450 . S
C271 H333 0.960 . S
C271 H334 0.960 . S
C271 H335 0.960 . S
C272 C273 1.309 . S
C272 C277 1.304 . S
C272 O310 1.435 . S
C273 C272 1.309 . S
C273 C274 1.476 . S
C273 H337 0.930 . S
C274 C273 1.476 . S
C274 C275 1.400 . S
C274 C278 1.567 . S
C275 C274 1.400 . S
C275 C276 1.373 . S
C275 C297 1.432 . S
C276 C275 1.373 . S
C276 C277 1.339 . S
C276 C279 1.530 . S
C277 C272 1.304 . S
C277 C276 1.339 . S
C277 H338 0.930 . S
C278 C274 1.567 . S
C278 H339 0.961 . S
C278 H340 0.960 . S
C278 H341 0.958 . S
C279 C276 1.530 . S
C279 H342 0.961 . S
C279 H343 0.960 . S
C279 H344 0.960 . S
C280 C281 1.530 . S
C280 H346 0.961 . S
C280 H347 0.961 . S
C280 H348 0.959 . S
C281 C280 1.530 . S
C281 O309 1.412 . S
C281 H345 0.980 . S
C282 C283 1.288 . S
C282 C287 1.377 . S
C282 O309 1.393 . S
C283 C282 1.288 . S
C283 C284 1.369 . S
C283 H349 0.932 . S
C284 C283 1.369 . S
C284 C285 1.398 . S
C284 C288 1.527 . S
C285 C284 1.398 . S
C285 C286 1.380 . S
C285 C299 1.497 . S
C286 C285 1.380 . S
C286 C287 1.383 . S
C286 C289 1.603 . S
C287 C282 1.377 . S
C287 C286 1.383 . S
C287 H350 0.929 . S
C288 C284 1.527 . S
C288 H351 0.961 . S
C288 H352 0.959 . S
C288 H353 0.959 . S
C289 C286 1.603 . S
C289 H354 0.960 . S
C289 H355 0.962 . S
C289 H356 0.961 . S
C290 C257 1.587 . S
C290 C291 1.360 . S
C290 C303 1.412 . S
C291 C290 1.360 . S
C291 C292 1.365 . S
C291 H357 0.929 . S
C292 C267 1.553 . S
C292 C291 1.365 . S
C292 C293 1.404 . S
C293 C292 1.404 . S
C293 C294 1.395 . S
C293 C304 1.451 . S
C294 C293 1.395 . S
C294 C295 1.322 . S
C294 H358 0.930 . S
C295 C294 1.322 . S
C295 C296 1.459 . S
C295 H359 0.929 . S
C296 C295 1.459 . S
C296 C297 1.445 . S
C296 C305 1.395 . S
C297 C275 1.432 . S
C297 C296 1.445 . S
C297 C298 1.370 . S
C298 C297 1.370 . S
C298 C299 1.438 . S
C298 H360 0.930 . S
C299 C285 1.497 . S
C299 C298 1.438 . S
C299 C300 1.360 . S
C300 C299 1.360 . S
C300 C301 1.401 . S
C300 C305 1.446 . S
C301 C300 1.401 . S
C301 C302 1.347 . S
C301 H361 0.929 . S
C302 C301 1.347 . S
C302 C303 1.455 . S
C302 H362 0.930 . S
C303 C290 1.412 . S
C303 C302 1.455 . S
C303 C304 1.331 . S
C304 C293 1.451 . S
C304 C303 1.331 . S
C304 C305 1.497 . S
C305 C296 1.395 . S
C305 C300 1.446 . S
C305 C304 1.497 . S
C306 C307 1.582 . S
C306 H363 0.962 . S
C306 H364 0.959 . S
C306 H365 0.958 . S
C307 C306 1.582 . S
C307 O310 1.458 . S
C307 H336 0.980 . S
O308 C253 1.426 . S
O308 C254 1.334 . S
O309 C281 1.412 . S
O309 C282 1.393 . S
O310 C272 1.435 . S
O310 C307 1.458 . S
O311 C263 1.468 . S
O311 C264 1.408 . S
H312 C253 0.980 . S
H313 C252 0.959 . S
H314 C252 0.959 . S
H315 C252 0.960 . S
H316 C255 0.929 . S
H317 C259 0.929 . S
H318 C260 0.959 . S
H319 C260 0.961 . S
H320 C260 0.961 . S
H321 C261 0.960 . S
H322 C261 0.960 . S
H323 C261 0.961 . S
H324 C263 0.980 . S
H325 C262 0.961 . S
H326 C262 0.960 . S
H327 C262 0.959 . S
H328 C265 0.930 . S
H329 C269 0.931 . S
H330 C270 0.959 . S
H331 C270 0.961 . S
H332 C270 0.959 . S
H333 C271 0.960 . S
H334 C271 0.960 . S
H335 C271 0.960 . S
H336 C307 0.980 . S
H337 C273 0.930 . S
H338 C277 0.930 . S
H339 C278 0.961 . S
H340 C278 0.960 . S
H341 C278 0.958 . S
H342 C279 0.961 . S
H343 C279 0.960 . S
H344 C279 0.960 . S
H345 C281 0.980 . S
H346 C280 0.961 . S
H347 C280 0.961 . S
H348 C280 0.959 . S
H349 C283 0.932 . S
H350 C287 0.929 . S
H351 C288 0.961 . S
H352 C288 0.959 . S
H353 C288 0.959 . S
H354 C289 0.960 . S
H355 C289 0.962 . S
H356 C289 0.961 . S
H357 C291 0.929 . S
H358 C294 0.930 . S
H359 C295 0.929 . S
H360 C298 0.930 . S
H361 C301 0.929 . S
H362 C302 0.930 . S
H363 C306 0.962 . S
H364 C306 0.959 . S
H365 C306 0.958 . S
C366 C367 1.560 . S
C366 H427 0.959 . S
C366 H428 0.959 . S
C366 H429 0.960 . S
C367 C366 1.560 . S
C367 O422 1.426 . S
C367 H426 0.980 . S
C368 C369 1.407 . S
C368 C373 1.418 . S
C368 O422 1.334 . S
C369 C368 1.407 . S
C369 C370 1.360 . S
C369 H430 0.929 . S
C370 C369 1.360 . S
C370 C371 1.401 . S
C370 C374 1.527 . S
C371 C370 1.401 . S
C371 C372 1.405 . S
C371 C404 1.587 . S
C372 C371 1.405 . S
C372 C373 1.332 . S
C372 C375 1.496 . S
C373 C368 1.418 . S
C373 C372 1.332 . S
C373 H431 0.929 . S
C374 C370 1.527 . S
C374 H432 0.959 . S
C374 H433 0.961 . S
C374 H434 0.961 . S
C375 C372 1.496 . S
C375 H435 0.960 . S
C375 H436 0.960 . S
C375 H437 0.961 . S
C376 C377 1.517 . S
C376 H439 0.961 . S
C376 H440 0.960 . S
C376 H441 0.959 . S
C377 C376 1.517 . S
C377 O425 1.468 . S
C377 H438 0.980 . S
C378 C379 1.349 . S
C378 C383 1.367 . S
C378 O425 1.408 . S
C379 C378 1.349 . S
C379 C380 1.407 . S
C379 H442 0.930 . S
C380 C379 1.407 . S
C380 C381 1.449 . S
C380 C384 1.535 . S
C381 C380 1.449 . S
C381 C382 1.384 . S
C381 C406 1.553 . S
C382 C381 1.384 . S
C382 C383 1.364 . S
C382 C385 1.450 . S
C383 C378 1.367 . S
C383 C382 1.364 . S
C383 H443 0.931 . S
C384 C380 1.535 . S
C384 H444 0.959 . S
C384 H445 0.961 . S
C384 H446 0.959 . S
C385 C382 1.450 . S
C385 H447 0.960 . S
C385 H448 0.960 . S
C385 H449 0.960 . S
C386 C387 1.309 . S
C386 C391 1.304 . S
C386 O424 1.435 . S
C387 C386 1.309 . S
C387 C388 1.476 . S
C387 H451 0.930 . S
C388 C387 1.476 . S
C388 C389 1.400 . S
C388 C392 1.567 . S
C389 C388 1.400 . S
C389 C390 1.373 . S
C389 C411 1.432 . S
C390 C389 1.373 . S
C390 C391 1.339 . S
C390 C393 1.530 . S
C391 C386 1.304 . S
C391 C390 1.339 . S
C391 H452 0.930 . S
C392 C388 1.567 . S
C392 H453 0.961 . S
C392 H454 0.960 . S
C392 H455 0.958 . S
C393 C390 1.530 . S
C393 H456 0.961 . S
C393 H457 0.960 . S
C393 H458 0.960 . S
C394 C395 1.530 . S
C394 H460 0.961 . S
C394 H461 0.961 . S
C394 H462 0.959 . S
C395 C394 1.530 . S
C395 O423 1.412 . S
C395 H459 0.980 . S
C396 C397 1.288 . S
C396 C401 1.377 . S
C396 O423 1.393 . S
C397 C396 1.288 . S
C397 C398 1.369 . S
C397 H463 0.932 . S
C398 C397 1.369 . S
C398 C399 1.398 . S
C398 C402 1.527 . S
C399 C398 1.398 . S
C399 C400 1.380 . S
C399 C413 1.497 . S
C400 C399 1.380 . S
C400 C401 1.383 . S
C400 C403 1.603 . S
C401 C396 1.377 . S
C401 C400 1.383 . S
C401 H464 0.929 . S
C402 C398 1.527 . S
C402 H465 0.961 . S
C402 H466 0.959 . S
C402 H467 0.959 . S
C403 C400 1.603 . S
C403 H468 0.960 . S
C403 H469 0.962 . S
C403 H470 0.961 . S
C404 C371 1.587 . S
C404 C405 1.360 . S
C404 C417 1.412 . S
C405 C404 1.360 . S
C405 C406 1.365 . S
C405 H471 0.929 . S
C406 C381 1.553 . S
C406 C405 1.365 . S
C406 C407 1.404 . S
C407 C406 1.404 . S
C407 C408 1.395 . S
C407 C418 1.451 . S
C408 C407 1.395 . S
C408 C409 1.322 . S
C408 H472 0.930 . S
C409 C408 1.322 . S
C409 C410 1.459 . S
C409 H473 0.929 . S
C410 C409 1.459 . S
C410 C411 1.445 . S
C410 C419 1.395 . S
C411 C389 1.432 . S
C411 C410 1.445 . S
C411 C412 1.370 . S
C412 C411 1.370 . S
C412 C413 1.438 . S
C412 H474 0.930 . S
C413 C399 1.497 . S
C413 C412 1.438 . S
C413 C414 1.360 . S
C414 C413 1.360 . S
C414 C415 1.401 . S
C414 C419 1.446 . S
C415 C414 1.401 . S
C415 C416 1.347 . S
C415 H475 0.929 . S
C416 C415 1.347 . S
C416 C417 1.455 . S
C416 H476 0.930 . S
C417 C404 1.412 . S
C417 C416 1.455 . S
C417 C418 1.331 . S
C418 C407 1.451 . S
C418 C417 1.331 . S
C418 C419 1.497 . S
C419 C410 1.395 . S
C419 C414 1.446 . S
C419 C418 1.497 . S
C420 C421 1.582 . S
C420 H477 0.962 . S
C420 H478 0.959 . S
C420 H479 0.958 . S
C421 C420 1.582 . S
C421 O424 1.458 . S
C421 H450 0.980 . S
O422 C367 1.426 . S
O422 C368 1.334 . S
O423 C395 1.412 . S
O423 C396 1.393 . S
O424 C386 1.435 . S
O424 C421 1.458 . S
O425 C377 1.468 . S
O425 C378 1.408 . S
H426 C367 0.980 . S
H427 C366 0.959 . S
H428 C366 0.959 . S
H429 C366 0.960 . S
H430 C369 0.929 . S
H431 C373 0.929 . S
H432 C374 0.959 . S
H433 C374 0.961 . S
H434 C374 0.961 . S
H435 C375 0.960 . S
H436 C375 0.960 . S
H437 C375 0.961 . S
H438 C377 0.980 . S
H439 C376 0.961 . S
H440 C376 0.960 . S
H441 C376 0.959 . S
H442 C379 0.930 . S
H443 C383 0.931 . S
H444 C384 0.959 . S
H445 C384 0.961 . S
H446 C384 0.959 . S
H447 C385 0.960 . S
H448 C385 0.960 . S
H449 C385 0.960 . S
H450 C421 0.980 . S
H451 C387 0.930 . S
H452 C391 0.930 . S
H453 C392 0.961 . S
H454 C392 0.960 . S
H455 C392 0.958 . S
H456 C393 0.961 . S
H457 C393 0.960 . S
H458 C393 0.960 . S
H459 C395 0.980 . S
H460 C394 0.961 . S
H461 C394 0.961 . S
H462 C394 0.959 . S
H463 C397 0.932 . S
H464 C401 0.929 . S
H465 C402 0.961 . S
H466 C402 0.959 . S
H467 C402 0.959 . S
H468 C403 0.960 . S
H469 C403 0.962 . S
H470 C403 0.961 . S
H471 C405 0.929 . S
H472 C408 0.930 . S
H473 C409 0.929 . S
H474 C412 0.930 . S
H475 C415 0.929 . S
H476 C416 0.930 . S
H477 C420 0.962 . S
H478 C420 0.959 . S
H479 C420 0.958 . S
C480 C481 1.560 . S
C480 H541 0.959 . S
C480 H542 0.959 . S
C480 H543 0.960 . S
C481 C480 1.560 . S
C481 O536 1.426 . S
C481 H540 0.980 . S
C482 C483 1.407 . S
C482 C487 1.418 . S
C482 O536 1.334 . S
C483 C482 1.407 . S
C483 C484 1.360 . S
C483 H544 0.929 . S
C484 C483 1.360 . S
C484 C485 1.401 . S
C484 C488 1.527 . S
C485 C484 1.401 . S
C485 C486 1.405 . S
C485 C518 1.587 . S
C486 C485 1.405 . S
C486 C487 1.332 . S
C486 C489 1.496 . S
C487 C482 1.418 . S
C487 C486 1.332 . S
C487 H545 0.929 . S
C488 C484 1.527 . S
C488 H546 0.959 . S
C488 H547 0.961 . S
C488 H548 0.961 . S
C489 C486 1.496 . S
C489 H549 0.960 . S
C489 H550 0.960 . S
C489 H551 0.961 . S
C490 C491 1.517 . S
C490 H553 0.961 . S
C490 H554 0.960 . S
C490 H555 0.959 . S
C491 C490 1.517 . S
C491 O539 1.468 . S
C491 H552 0.980 . S
C492 C493 1.349 . S
C492 C497 1.367 . S
C492 O539 1.408 . S
C493 C492 1.349 . S
C493 C494 1.407 . S
C493 H556 0.930 . S
C494 C493 1.407 . S
C494 C495 1.449 . S
C494 C498 1.535 . S
C495 C494 1.449 . S
C495 C496 1.384 . S
C495 C520 1.553 . S
C496 C495 1.384 . S
C496 C497 1.364 . S
C496 C499 1.450 . S
C497 C492 1.367 . S
C497 C496 1.364 . S
C497 H557 0.931 . S
C498 C494 1.535 . S
C498 H558 0.959 . S
C498 H559 0.961 . S
C498 H560 0.959 . S
C499 C496 1.450 . S
C499 H561 0.960 . S
C499 H562 0.960 . S
C499 H563 0.960 . S
C500 C501 1.309 . S
C500 C505 1.304 . S
C500 O538 1.435 . S
C501 C500 1.309 . S
C501 C502 1.476 . S
C501 H565 0.930 . S
C502 C501 1.476 . S
C502 C503 1.400 . S
C502 C506 1.567 . S
C503 C502 1.400 . S
C503 C504 1.373 . S
C503 C525 1.432 . S
C504 C503 1.373 . S
C504 C505 1.339 . S
C504 C507 1.530 . S
C505 C500 1.304 . S
C505 C504 1.339 . S
C505 H566 0.930 . S
C506 C502 1.567 . S
C506 H567 0.961 . S
C506 H568 0.960 . S
C506 H569 0.958 . S
C507 C504 1.530 . S
C507 H570 0.961 . S
C507 H571 0.960 . S
C507 H572 0.960 . S
C508 C509 1.530 . S
C508 H574 0.961 . S
C508 H575 0.961 . S
C508 H576 0.959 . S
C509 C508 1.530 . S
C509 O537 1.412 . S
C509 H573 0.980 . S
C510 C511 1.288 . S
C510 C515 1.377 . S
C510 O537 1.393 . S
C511 C510 1.288 . S
C511 C512 1.369 . S
C511 H577 0.932 . S
C512 C511 1.369 . S
C512 C513 1.398 . S
C512 C516 1.527 . S
C513 C512 1.398 . S
C513 C514 1.380 . S
C513 C527 1.497 . S
C514 C513 1.380 . S
C514 C515 1.383 . S
C514 C517 1.603 . S
C515 C510 1.377 . S
C515 C514 1.383 . S
C515 H578 0.929 . S
C516 C512 1.527 . S
C516 H579 0.961 . S
C516 H580 0.959 . S
C516 H581 0.959 . S
C517 C514 1.603 . S
C517 H582 0.960 . S
C517 H583 0.962 . S
C517 H584 0.961 . S
C518 C485 1.587 . S
C518 C519 1.360 . S
C518 C531 1.412 . S
C519 C518 1.360 . S
C519 C520 1.365 . S
C519 H585 0.929 . S
C520 C495 1.553 . S
C520 C519 1.365 . S
C520 C521 1.404 . S
C521 C520 1.404 . S
C521 C522 1.395 . S
C521 C532 1.451 . S
C522 C521 1.395 . S
C522 C523 1.322 . S
C522 H586 0.930 . S
C523 C522 1.322 . S
C523 C524 1.459 . S
C523 H587 0.929 . S
C524 C523 1.459 . S
C524 C525 1.445 . S
C524 C533 1.395 . S
C525 C503 1.432 . S
C525 C524 1.445 . S
C525 C526 1.370 . S
C526 C525 1.370 . S
C526 C527 1.438 . S
C526 H588 0.930 . S
C527 C513 1.497 . S
C527 C526 1.438 . S
C527 C528 1.360 . S
C528 C527 1.360 . S
C528 C529 1.401 . S
C528 C533 1.446 . S
C529 C528 1.401 . S
C529 C530 1.347 . S
C529 H589 0.929 . S
C530 C529 1.347 . S
C530 C531 1.455 . S
C530 H590 0.930 . S
C531 C518 1.412 . S
C531 C530 1.455 . S
C531 C532 1.331 . S
C532 C521 1.451 . S
C532 C531 1.331 . S
C532 C533 1.497 . S
C533 C524 1.395 . S
C533 C528 1.446 . S
C533 C532 1.497 . S
C534 C535 1.582 . S
C534 H591 0.962 . S
C534 H592 0.959 . S
C534 H593 0.958 . S
C535 C534 1.582 . S
C535 O538 1.458 . S
C535 H564 0.980 . S
O536 C481 1.426 . S
O536 C482 1.334 . S
O537 C509 1.412 . S
O537 C510 1.393 . S
O538 C500 1.435 . S
O538 C535 1.458 . S
O539 C491 1.468 . S
O539 C492 1.408 . S
H540 C481 0.980 . S
H541 C480 0.959 . S
H542 C480 0.959 . S
H543 C480 0.960 . S
H544 C483 0.929 . S
H545 C487 0.929 . S
H546 C488 0.959 . S
H547 C488 0.961 . S
H548 C488 0.961 . S
H549 C489 0.960 . S
H550 C489 0.960 . S
H551 C489 0.961 . S
H552 C491 0.980 . S
H553 C490 0.961 . S
H554 C490 0.960 . S
H555 C490 0.959 . S
H556 C493 0.930 . S
H557 C497 0.931 . S
H558 C498 0.959 . S
H559 C498 0.961 . S
H560 C498 0.959 . S
H561 C499 0.960 . S
H562 C499 0.960 . S
H563 C499 0.960 . S
H564 C535 0.980 . S
H565 C501 0.930 . S
H566 C505 0.930 . S
H567 C506 0.961 . S
H568 C506 0.960 . S
H569 C506 0.958 . S
H570 C507 0.961 . S
H571 C507 0.960 . S
H572 C507 0.960 . S
H573 C509 0.980 . S
H574 C508 0.961 . S
H575 C508 0.961 . S
H576 C508 0.959 . S
H577 C511 0.932 . S
H578 C515 0.929 . S
H579 C516 0.961 . S
H580 C516 0.959 . S
H581 C516 0.959 . S
H582 C517 0.960 . S
H583 C517 0.962 . S
H584 C517 0.961 . S
H585 C519 0.929 . S
H586 C522 0.930 . S
H587 C523 0.929 . S
H588 C526 0.930 . S
H589 C529 0.929 . S
H590 C530 0.930 . S
H591 C534 0.962 . S
H592 C534 0.959 . S
H593 C534 0.958 . S
C594 C595 1.560 . S
C594 H655 0.959 . S
C594 H656 0.959 . S
C594 H657 0.960 . S
C595 C594 1.560 . S
C595 O650 1.426 . S
C595 H654 0.980 . S
C596 C597 1.407 . S
C596 C601 1.418 . S
C596 O650 1.334 . S
C597 C596 1.407 . S
C597 C598 1.360 . S
C597 H658 0.929 . S
C598 C597 1.360 . S
C598 C599 1.401 . S
C598 C602 1.527 . S
C599 C598 1.401 . S
C599 C600 1.405 . S
C599 C632 1.587 . S
C600 C599 1.405 . S
C600 C601 1.332 . S
C600 C603 1.496 . S
C601 C596 1.418 . S
C601 C600 1.332 . S
C601 H659 0.929 . S
C602 C598 1.527 . S
C602 H660 0.959 . S
C602 H661 0.961 . S
C602 H662 0.961 . S
C603 C600 1.496 . S
C603 H663 0.960 . S
C603 H664 0.960 . S
C603 H665 0.961 . S
C604 C605 1.517 . S
C604 H667 0.961 . S
C604 H668 0.960 . S
C604 H669 0.959 . S
C605 C604 1.517 . S
C605 O653 1.468 . S
C605 H666 0.980 . S
C606 C607 1.349 . S
C606 C611 1.367 . S
C606 O653 1.408 . S
C607 C606 1.349 . S
C607 C608 1.407 . S
C607 H670 0.930 . S
C608 C607 1.407 . S
C608 C609 1.449 . S
C608 C612 1.535 . S
C609 C608 1.449 . S
C609 C610 1.384 . S
C609 C634 1.553 . S
C610 C609 1.384 . S
C610 C611 1.364 . S
C610 C613 1.450 . S
C611 C606 1.367 . S
C611 C610 1.364 . S
C611 H671 0.931 . S
C612 C608 1.535 . S
C612 H672 0.959 . S
C612 H673 0.961 . S
C612 H674 0.959 . S
C613 C610 1.450 . S
C613 H675 0.960 . S
C613 H676 0.960 . S
C613 H677 0.960 . S
C614 C615 1.309 . S
C614 C619 1.304 . S
C614 O652 1.435 . S
C615 C614 1.309 . S
C615 C616 1.476 . S
C615 H679 0.930 . S
C616 C615 1.476 . S
C616 C617 1.400 . S
C616 C620 1.567 . S
C617 C616 1.400 . S
C617 C618 1.373 . S
C617 C639 1.432 . S
C618 C617 1.373 . S
C618 C619 1.339 . S
C618 C621 1.530 . S
C619 C614 1.304 . S
C619 C618 1.339 . S
C619 H680 0.930 . S
C620 C616 1.567 . S
C620 H681 0.961 . S
C620 H682 0.960 . S
C620 H683 0.958 . S
C621 C618 1.530 . S
C621 H684 0.961 . S
C621 H685 0.960 . S
C621 H686 0.960 . S
C622 C623 1.530 . S
C622 H688 0.961 . S
C622 H689 0.961 . S
C622 H690 0.959 . S
C623 C622 1.530 . S
C623 O651 1.412 . S
C623 H687 0.980 . S
C624 C625 1.288 . S
C624 C629 1.377 . S
C624 O651 1.393 . S
C625 C624 1.288 . S
C625 C626 1.369 . S
C625 H691 0.932 . S
C626 C625 1.369 . S
C626 C627 1.398 . S
C626 C630 1.527 . S
C627 C626 1.398 . S
C627 C628 1.380 . S
C627 C641 1.497 . S
C628 C627 1.380 . S
C628 C629 1.383 . S
C628 C631 1.603 . S
C629 C624 1.377 . S
C629 C628 1.383 . S
C629 H692 0.929 . S
C630 C626 1.527 . S
C630 H693 0.961 . S
C630 H694 0.959 . S
C630 H695 0.959 . S
C631 C628 1.603 . S
C631 H696 0.960 . S
C631 H697 0.962 . S
C631 H698 0.961 . S
C632 C599 1.587 . S
C632 C633 1.360 . S
C632 C645 1.412 . S
C633 C632 1.360 . S
C633 C634 1.365 . S
C633 H699 0.929 . S
C634 C609 1.553 . S
C634 C633 1.365 . S
C634 C635 1.404 . S
C635 C634 1.404 . S
C635 C636 1.395 . S
C635 C646 1.451 . S
C636 C635 1.395 . S
C636 C637 1.322 . S
C636 H700 0.930 . S
C637 C636 1.322 . S
C637 C638 1.459 . S
C637 H701 0.929 . S
C638 C637 1.459 . S
C638 C639 1.445 . S
C638 C647 1.395 . S
C639 C617 1.432 . S
C639 C638 1.445 . S
C639 C640 1.370 . S
C640 C639 1.370 . S
C640 C641 1.438 . S
C640 H702 0.930 . S
C641 C627 1.497 . S
C641 C640 1.438 . S
C641 C642 1.360 . S
C642 C641 1.360 . S
C642 C643 1.401 . S
C642 C647 1.446 . S
C643 C642 1.401 . S
C643 C644 1.347 . S
C643 H703 0.929 . S
C644 C643 1.347 . S
C644 C645 1.455 . S
C644 H704 0.930 . S
C645 C632 1.412 . S
C645 C644 1.455 . S
C645 C646 1.331 . S
C646 C635 1.451 . S
C646 C645 1.331 . S
C646 C647 1.497 . S
C647 C638 1.395 . S
C647 C642 1.446 . S
C647 C646 1.497 . S
C648 C649 1.582 . S
C648 H705 0.962 . S
C648 H706 0.959 . S
C648 H707 0.958 . S
C649 C648 1.582 . S
C649 O652 1.458 . S
C649 H678 0.980 . S
O650 C595 1.426 . S
O650 C596 1.334 . S
O651 C623 1.412 . S
O651 C624 1.393 . S
O652 C614 1.435 . S
O652 C649 1.458 . S
O653 C605 1.468 . S
O653 C606 1.408 . S
H654 C595 0.980 . S
H655 C594 0.959 . S
H656 C594 0.959 . S
H657 C594 0.960 . S
H658 C597 0.929 . S
H659 C601 0.929 . S
H660 C602 0.959 . S
H661 C602 0.961 . S
H662 C602 0.961 . S
H663 C603 0.960 . S
H664 C603 0.960 . S
H665 C603 0.961 . S
H666 C605 0.980 . S
H667 C604 0.961 . S
H668 C604 0.960 . S
H669 C604 0.959 . S
H670 C607 0.930 . S
H671 C611 0.931 . S
H672 C612 0.959 . S
H673 C612 0.961 . S
H674 C612 0.959 . S
H675 C613 0.960 . S
H676 C613 0.960 . S
H677 C613 0.960 . S
H678 C649 0.980 . S
H679 C615 0.930 . S
H680 C619 0.930 . S
H681 C620 0.961 . S
H682 C620 0.960 . S
H683 C620 0.958 . S
H684 C621 0.961 . S
H685 C621 0.960 . S
H686 C621 0.960 . S
H687 C623 0.980 . S
H688 C622 0.961 . S
H689 C622 0.961 . S
H690 C622 0.959 . S
H691 C625 0.932 . S
H692 C629 0.929 . S
H693 C630 0.961 . S
H694 C630 0.959 . S
H695 C630 0.959 . S
H696 C631 0.960 . S
H697 C631 0.962 . S
H698 C631 0.961 . S
H699 C633 0.929 . S
H700 C636 0.930 . S
H701 C637 0.929 . S
H702 C640 0.930 . S
H703 C643 0.929 . S
H704 C644 0.930 . S
H705 C648 0.962 . S
H706 C648 0.959 . S
H707 C648 0.958 . S
C708 C709 1.560 . S
C708 H769 0.959 . S
C708 H770 0.959 . S
C708 H771 0.960 . S
C709 C708 1.560 . S
C709 O764 1.426 . S
C709 H768 0.980 . S
C710 C711 1.407 . S
C710 C715 1.418 . S
C710 O764 1.334 . S
C711 C710 1.407 . S
C711 C712 1.360 . S
C711 H772 0.929 . S
C712 C711 1.360 . S
C712 C713 1.401 . S
C712 C716 1.527 . S
C713 C712 1.401 . S
C713 C714 1.405 . S
C713 C746 1.587 . S
C714 C713 1.405 . S
C714 C715 1.332 . S
C714 C717 1.496 . S
C715 C710 1.418 . S
C715 C714 1.332 . S
C715 H773 0.929 . S
C716 C712 1.527 . S
C716 H774 0.959 . S
C716 H775 0.961 . S
C716 H776 0.961 . S
C717 C714 1.496 . S
C717 H777 0.960 . S
C717 H778 0.960 . S
C717 H779 0.961 . S
C718 C719 1.517 . S
C718 H781 0.961 . S
C718 H782 0.960 . S
C718 H783 0.959 . S
C719 C718 1.517 . S
C719 O767 1.468 . S
C719 H780 0.980 . S
C720 C721 1.349 . S
C720 C725 1.367 . S
C720 O767 1.408 . S
C721 C720 1.349 . S
C721 C722 1.407 . S
C721 H784 0.930 . S
C722 C721 1.407 . S
C722 C723 1.449 . S
C722 C726 1.535 . S
C723 C722 1.449 . S
C723 C724 1.384 . S
C723 C748 1.553 . S
C724 C723 1.384 . S
C724 C725 1.364 . S
C724 C727 1.450 . S
C725 C720 1.367 . S
C725 C724 1.364 . S
C725 H785 0.931 . S
C726 C722 1.535 . S
C726 H786 0.959 . S
C726 H787 0.961 . S
C726 H788 0.959 . S
C727 C724 1.450 . S
C727 H789 0.960 . S
C727 H790 0.960 . S
C727 H791 0.960 . S
C728 C729 1.309 . S
C728 C733 1.304 . S
C728 O766 1.435 . S
C729 C728 1.309 . S
C729 C730 1.476 . S
C729 H793 0.930 . S
C730 C729 1.476 . S
C730 C731 1.400 . S
C730 C734 1.567 . S
C731 C730 1.400 . S
C731 C732 1.373 . S
C731 C753 1.432 . S
C732 C731 1.373 . S
C732 C733 1.339 . S
C732 C735 1.530 . S
C733 C728 1.304 . S
C733 C732 1.339 . S
C733 H794 0.930 . S
C734 C730 1.567 . S
C734 H795 0.961 . S
C734 H796 0.960 . S
C734 H797 0.958 . S
C735 C732 1.530 . S
C735 H798 0.961 . S
C735 H799 0.960 . S
C735 H800 0.960 . S
C736 C737 1.530 . S
C736 H802 0.961 . S
C736 H803 0.961 . S
C736 H804 0.959 . S
C737 C736 1.530 . S
C737 O765 1.412 . S
C737 H801 0.980 . S
C738 C739 1.288 . S
C738 C743 1.377 . S
C738 O765 1.393 . S
C739 C738 1.288 . S
C739 C740 1.369 . S
C739 H805 0.932 . S
C740 C739 1.369 . S
C740 C741 1.398 . S
C740 C744 1.527 . S
C741 C740 1.398 . S
C741 C742 1.380 . S
C741 C755 1.497 . S
C742 C741 1.380 . S
C742 C743 1.383 . S
C742 C745 1.603 . S
C743 C738 1.377 . S
C743 C742 1.383 . S
C743 H806 0.929 . S
C744 C740 1.527 . S
C744 H807 0.961 . S
C744 H808 0.959 . S
C744 H809 0.959 . S
C745 C742 1.603 . S
C745 H810 0.960 . S
C745 H811 0.962 . S
C745 H812 0.961 . S
C746 C713 1.587 . S
C746 C747 1.360 . S
C746 C759 1.412 . S
C747 C746 1.360 . S
C747 C748 1.365 . S
C747 H813 0.929 . S
C748 C723 1.553 . S
C748 C747 1.365 . S
C748 C749 1.404 . S
C749 C748 1.404 . S
C749 C750 1.395 . S
C749 C760 1.451 . S
C750 C749 1.395 . S
C750 C751 1.322 . S
C750 H814 0.930 . S
C751 C750 1.322 . S
C751 C752 1.459 . S
C751 H815 0.929 . S
C752 C751 1.459 . S
C752 C753 1.445 . S
C752 C761 1.395 . S
C753 C731 1.432 . S
C753 C752 1.445 . S
C753 C754 1.370 . S
C754 C753 1.370 . S
C754 C755 1.438 . S
C754 H816 0.930 . S
C755 C741 1.497 . S
C755 C754 1.438 . S
C755 C756 1.360 . S
C756 C755 1.360 . S
C756 C757 1.401 . S
C756 C761 1.446 . S
C757 C756 1.401 . S
C757 C758 1.347 . S
C757 H817 0.929 . S
C758 C757 1.347 . S
C758 C759 1.455 . S
C758 H818 0.930 . S
C759 C746 1.412 . S
C759 C758 1.455 . S
C759 C760 1.331 . S
C760 C749 1.451 . S
C760 C759 1.331 . S
C760 C761 1.497 . S
C761 C752 1.395 . S
C761 C756 1.446 . S
C761 C760 1.497 . S
C762 C763 1.582 . S
C762 H819 0.962 . S
C762 H820 0.959 . S
C762 H821 0.958 . S
C763 C762 1.582 . S
C763 O766 1.458 . S
C763 H792 0.980 . S
O764 C709 1.426 . S
O764 C710 1.334 . S
O765 C737 1.412 . S
O765 C738 1.393 . S
O766 C728 1.435 . S
O766 C763 1.458 . S
O767 C719 1.468 . S
O767 C720 1.408 . S
H768 C709 0.980 . S
H769 C708 0.959 . S
H770 C708 0.959 . S
H771 C708 0.960 . S
H772 C711 0.929 . S
H773 C715 0.929 . S
H774 C716 0.959 . S
H775 C716 0.961 . S
H776 C716 0.961 . S
H777 C717 0.960 . S
H778 C717 0.960 . S
H779 C717 0.961 . S
H780 C719 0.980 . S
H781 C718 0.961 . S
H782 C718 0.960 . S
H783 C718 0.959 . S
H784 C721 0.930 . S
H785 C725 0.931 . S
H786 C726 0.959 . S
H787 C726 0.961 . S
H788 C726 0.959 . S
H789 C727 0.960 . S
H790 C727 0.960 . S
H791 C727 0.960 . S
H792 C763 0.980 . S
H793 C729 0.930 . S
H794 C733 0.930 . S
H795 C734 0.961 . S
H796 C734 0.960 . S
H797 C734 0.958 . S
H798 C735 0.961 . S
H799 C735 0.960 . S
H800 C735 0.960 . S
H801 C737 0.980 . S
H802 C736 0.961 . S
H803 C736 0.961 . S
H804 C736 0.959 . S
H805 C739 0.932 . S
H806 C743 0.929 . S
H807 C744 0.961 . S
H808 C744 0.959 . S
H809 C744 0.959 . S
H810 C745 0.960 . S
H811 C745 0.962 . S
H812 C745 0.961 . S
H813 C747 0.929 . S
H814 C750 0.930 . S
H815 C751 0.929 . S
H816 C754 0.930 . S
H817 C757 0.929 . S
H818 C758 0.930 . S
H819 C762 0.962 . S
H820 C762 0.959 . S
H821 C762 0.958 . S
C822 C823 1.560 . S
C822 H883 0.959 . S
C822 H884 0.959 . S
C822 H885 0.960 . S
C823 C822 1.560 . S
C823 O878 1.426 . S
C823 H882 0.980 . S
C824 C825 1.407 . S
C824 C829 1.418 . S
C824 O878 1.334 . S
C825 C824 1.407 . S
C825 C826 1.360 . S
C825 H886 0.929 . S
C826 C825 1.360 . S
C826 C827 1.401 . S
C826 C830 1.527 . S
C827 C826 1.401 . S
C827 C828 1.405 . S
C827 C860 1.587 . S
C828 C827 1.405 . S
C828 C829 1.332 . S
C828 C831 1.496 . S
C829 C824 1.418 . S
C829 C828 1.332 . S
C829 H887 0.929 . S
C830 C826 1.527 . S
C830 H888 0.959 . S
C830 H889 0.961 . S
C830 H890 0.961 . S
C831 C828 1.496 . S
C831 H891 0.960 . S
C831 H892 0.960 . S
C831 H893 0.961 . S
C832 C833 1.517 . S
C832 H895 0.961 . S
C832 H896 0.960 . S
C832 H897 0.959 . S
C833 C832 1.517 . S
C833 O881 1.468 . S
C833 H894 0.980 . S
C834 C835 1.349 . S
C834 C839 1.367 . S
C834 O881 1.408 . S
C835 C834 1.349 . S
C835 C836 1.407 . S
C835 H898 0.930 . S
C836 C835 1.407 . S
C836 C837 1.449 . S
C836 C840 1.535 . S
C837 C836 1.449 . S
C837 C838 1.384 . S
C837 C862 1.553 . S
C838 C837 1.384 . S
C838 C839 1.364 . S
C838 C841 1.450 . S
C839 C834 1.367 . S
C839 C838 1.364 . S
C839 H899 0.931 . S
C840 C836 1.535 . S
C840 H900 0.959 . S
C840 H901 0.961 . S
C840 H902 0.959 . S
C841 C838 1.450 . S
C841 H903 0.960 . S
C841 H904 0.960 . S
C841 H905 0.960 . S
C842 C843 1.309 . S
C842 C847 1.304 . S
C842 O880 1.435 . S
C843 C842 1.309 . S
C843 C844 1.476 . S
C843 H907 0.930 . S
C844 C843 1.476 . S
C844 C845 1.400 . S
C844 C848 1.567 . S
C845 C844 1.400 . S
C845 C846 1.373 . S
C845 C867 1.432 . S
C846 C845 1.373 . S
C846 C847 1.339 . S
C846 C849 1.530 . S
C847 C842 1.304 . S
C847 C846 1.339 . S
C847 H908 0.930 . S
C848 C844 1.567 . S
C848 H909 0.961 . S
C848 H910 0.960 . S
C848 H911 0.958 . S
C849 C846 1.530 . S
C849 H912 0.961 . S
C849 H913 0.960 . S
C849 H914 0.960 . S
C850 C851 1.530 . S
C850 H916 0.961 . S
C850 H917 0.961 . S
C850 H918 0.959 . S
C851 C850 1.530 . S
C851 O879 1.412 . S
C851 H915 0.980 . S
C852 C853 1.288 . S
C852 C857 1.377 . S
C852 O879 1.393 . S
C853 C852 1.288 . S
C853 C854 1.369 . S
C853 H919 0.932 . S
C854 C853 1.369 . S
C854 C855 1.398 . S
C854 C858 1.527 . S
C855 C854 1.398 . S
C855 C856 1.380 . S
C855 C869 1.497 . S
C856 C855 1.380 . S
C856 C857 1.383 . S
C856 C859 1.603 . S
C857 C852 1.377 . S
C857 C856 1.383 . S
C857 H920 0.929 . S
C858 C854 1.527 . S
C858 H921 0.961 . S
C858 H922 0.959 . S
C858 H923 0.959 . S
C859 C856 1.603 . S
C859 H924 0.960 . S
C859 H925 0.962 . S
C859 H926 0.961 . S
C860 C827 1.587 . S
C860 C861 1.360 . S
C860 C873 1.412 . S
C861 C860 1.360 . S
C861 C862 1.365 . S
C861 H927 0.929 . S
C862 C837 1.553 . S
C862 C861 1.365 . S
C862 C863 1.404 . S
C863 C862 1.404 . S
C863 C864 1.395 . S
C863 C874 1.451 . S
C864 C863 1.395 . S
C864 C865 1.322 . S
C864 H928 0.930 . S
C865 C864 1.322 . S
C865 C866 1.459 . S
C865 H929 0.929 . S
C866 C865 1.459 . S
C866 C867 1.445 . S
C866 C875 1.395 . S
C867 C845 1.432 . S
C867 C866 1.445 . S
C867 C868 1.370 . S
C868 C867 1.370 . S
C868 C869 1.438 . S
C868 H930 0.930 . S
C869 C855 1.497 . S
C869 C868 1.438 . S
C869 C870 1.360 . S
C870 C869 1.360 . S
C870 C871 1.401 . S
C870 C875 1.446 . S
C871 C870 1.401 . S
C871 C872 1.347 . S
C871 H931 0.929 . S
C872 C871 1.347 . S
C872 C873 1.455 . S
C872 H932 0.930 . S
C873 C860 1.412 . S
C873 C872 1.455 . S
C873 C874 1.331 . S
C874 C863 1.451 . S
C874 C873 1.331 . S
C874 C875 1.497 . S
C875 C866 1.395 . S
C875 C870 1.446 . S
C875 C874 1.497 . S
C876 C877 1.582 . S
C876 H933 0.962 . S
C876 H934 0.959 . S
C876 H935 0.958 . S
C877 C876 1.582 . S
C877 O880 1.458 . S
C877 H906 0.980 . S
O878 C823 1.426 . S
O878 C824 1.334 . S
O879 C851 1.412 . S
O879 C852 1.393 . S
O880 C842 1.435 . S
O880 C877 1.458 . S
O881 C833 1.468 . S
O881 C834 1.408 . S
H882 C823 0.980 . S
H883 C822 0.959 . S
H884 C822 0.959 . S
H885 C822 0.960 . S
H886 C825 0.929 . S
H887 C829 0.929 . S
H888 C830 0.959 . S
H889 C830 0.961 . S
H890 C830 0.961 . S
H891 C831 0.960 . S
H892 C831 0.960 . S
H893 C831 0.961 . S
H894 C833 0.980 . S
H895 C832 0.961 . S
H896 C832 0.960 . S
H897 C832 0.959 . S
H898 C835 0.930 . S
H899 C839 0.931 . S
H900 C840 0.959 . S
H901 C840 0.961 . S
H902 C840 0.959 . S
H903 C841 0.960 . S
H904 C841 0.960 . S
H905 C841 0.960 . S
H906 C877 0.980 . S
H907 C843 0.930 . S
H908 C847 0.930 . S
H909 C848 0.961 . S
H910 C848 0.960 . S
H911 C848 0.958 . S
H912 C849 0.961 . S
H913 C849 0.960 . S
H914 C849 0.960 . S
H915 C851 0.980 . S
H916 C850 0.961 . S
H917 C850 0.961 . S
H918 C850 0.959 . S
H919 C853 0.932 . S
H920 C857 0.929 . S
H921 C858 0.961 . S
H922 C858 0.959 . S
H923 C858 0.959 . S
H924 C859 0.960 . S
H925 C859 0.962 . S
H926 C859 0.961 . S
H927 C861 0.929 . S
H928 C864 0.930 . S
H929 C865 0.929 . S
H930 C868 0.930 . S
H931 C871 0.929 . S
H932 C872 0.930 . S
H933 C876 0.962 . S
H934 C876 0.959 . S
H935 C876 0.958 . S
C936 C937 1.560 . S
C936 H997 0.959 . S
C936 H998 0.959 . S
C936 H999 0.960 . S
C937 C936 1.560 . S
C937 O992 1.426 . S
C937 H996 0.980 . S
C938 C939 1.407 . S
C938 C943 1.418 . S
C938 O992 1.334 . S
C939 C938 1.407 . S
C939 C940 1.360 . S
C939 H1000 0.929 . S
C940 C939 1.360 . S
C940 C941 1.401 . S
C940 C944 1.527 . S
C941 C940 1.401 . S
C941 C942 1.405 . S
C941 C974 1.587 . S
C942 C941 1.405 . S
C942 C943 1.332 . S
C942 C945 1.496 . S
C943 C938 1.418 . S
C943 C942 1.332 . S
C943 H1001 0.929 . S
C944 C940 1.527 . S
C944 H1002 0.959 . S
C944 H1003 0.961 . S
C944 H1004 0.961 . S
C945 C942 1.496 . S
C945 H1005 0.960 . S
C945 H1006 0.960 . S
C945 H1007 0.961 . S
C946 C947 1.517 . S
C946 H1009 0.961 . S
C946 H1010 0.960 . S
C946 H1011 0.959 . S
C947 C946 1.517 . S
C947 O995 1.468 . S
C947 H1008 0.980 . S
C948 C949 1.349 . S
C948 C953 1.367 . S
C948 O995 1.408 . S
C949 C948 1.349 . S
C949 C950 1.407 . S
C949 H1012 0.930 . S
C950 C949 1.407 . S
C950 C951 1.449 . S
C950 C954 1.535 . S
C951 C950 1.449 . S
C951 C952 1.384 . S
C951 C976 1.553 . S
C952 C951 1.384 . S
C952 C953 1.364 . S
C952 C955 1.450 . S
C953 C948 1.367 . S
C953 C952 1.364 . S
C953 H1013 0.931 . S
C954 C950 1.535 . S
C954 H1014 0.959 . S
C954 H1015 0.961 . S
C954 H1016 0.959 . S
C955 C952 1.450 . S
C955 H1017 0.960 . S
C955 H1018 0.960 . S
C955 H1019 0.960 . S
C956 C957 1.309 . S
C956 C961 1.304 . S
C956 O994 1.435 . S
C957 C956 1.309 . S
C957 C958 1.476 . S
C957 H1021 0.930 . S
C958 C957 1.476 . S
C958 C959 1.400 . S
C958 C962 1.567 . S
C959 C958 1.400 . S
C959 C960 1.373 . S
C959 C981 1.432 . S
C960 C959 1.373 . S
C960 C961 1.339 . S
C960 C963 1.530 . S
C961 C956 1.304 . S
C961 C960 1.339 . S
C961 H1022 0.930 . S
C962 C958 1.567 . S
C962 H1023 0.961 . S
C962 H1024 0.960 . S
C962 H1025 0.958 . S
C963 C960 1.530 . S
C963 H1026 0.961 . S
C963 H1027 0.960 . S
C963 H1028 0.960 . S
C964 C965 1.530 . S
C964 H1030 0.961 . S
C964 H1031 0.961 . S
C964 H1032 0.959 . S
C965 C964 1.530 . S
C965 O993 1.412 . S
C965 H1029 0.980 . S
C966 C967 1.288 . S
C966 C971 1.377 . S
C966 O993 1.393 . S
C967 C966 1.288 . S
C967 C968 1.369 . S
C967 H1033 0.932 . S
C968 C967 1.369 . S
C968 C969 1.398 . S
C968 C972 1.527 . S
C969 C968 1.398 . S
C969 C970 1.380 . S
C969 C983 1.497 . S
C970 C969 1.380 . S
C970 C971 1.383 . S
C970 C973 1.603 . S
C971 C966 1.377 . S
C971 C970 1.383 . S
C971 H1034 0.929 . S
C972 C968 1.527 . S
C972 H1035 0.961 . S
C972 H1036 0.959 . S
C972 H1037 0.959 . S
C973 C970 1.603 . S
C973 H1038 0.960 . S
C973 H1039 0.962 . S
C973 H1040 0.961 . S
C974 C941 1.587 . S
C974 C975 1.360 . S
C974 C987 1.412 . S
C975 C974 1.360 . S
C975 C976 1.365 . S
C975 H1041 0.929 . S
C976 C951 1.553 . S
C976 C975 1.365 . S
C976 C977 1.404 . S
C977 C976 1.404 . S
C977 C978 1.395 . S
C977 C988 1.451 . S
C978 C977 1.395 . S
C978 C979 1.322 . S
C978 H1042 0.930 . S
C979 C978 1.322 . S
C979 C980 1.459 . S
C979 H1043 0.929 . S
C980 C979 1.459 . S
C980 C981 1.445 . S
C980 C989 1.395 . S
C981 C959 1.432 . S
C981 C980 1.445 . S
C981 C982 1.370 . S
C982 C981 1.370 . S
C982 C983 1.438 . S
C982 H1044 0.930 . S
C983 C969 1.497 . S
C983 C982 1.438 . S
C983 C984 1.360 . S
C984 C983 1.360 . S
C984 C985 1.401 . S
C984 C989 1.446 . S
C985 C984 1.401 . S
C985 C986 1.347 . S
C985 H1045 0.929 . S
C986 C985 1.347 . S
C986 C987 1.455 . S
C986 H1046 0.930 . S
C987 C974 1.412 . S
C987 C986 1.455 . S
C987 C988 1.331 . S
C988 C977 1.451 . S
C988 C987 1.331 . S
C988 C989 1.497 . S
C989 C980 1.395 . S
C989 C984 1.446 . S
C989 C988 1.497 . S
C990 C991 1.582 . S
C990 H1047 0.962 . S
C990 H1048 0.959 . S
C990 H1049 0.958 . S
C991 C990 1.582 . S
C991 O994 1.458 . S
C991 H1020 0.980 . S
O992 C937 1.426 . S
O992 C938 1.334 . S
O993 C965 1.412 . S
O993 C966 1.393 . S
O994 C956 1.435 . S
O994 C991 1.458 . S
O995 C947 1.468 . S
O995 C948 1.408 . S
H996 C937 0.980 . S
H997 C936 0.959 . S
H998 C936 0.959 . S
H999 C936 0.960 . S
H1000 C939 0.929 . S
H1001 C943 0.929 . S
H1002 C944 0.959 . S
H1003 C944 0.961 . S
H1004 C944 0.961 . S
H1005 C945 0.960 . S
H1006 C945 0.960 . S
H1007 C945 0.961 . S
H1008 C947 0.980 . S
H1009 C946 0.961 . S
H1010 C946 0.960 . S
H1011 C946 0.959 . S
H1012 C949 0.930 . S
H1013 C953 0.931 . S
H1014 C954 0.959 . S
H1015 C954 0.961 . S
H1016 C954 0.959 . S
H1017 C955 0.960 . S
H1018 C955 0.960 . S
H1019 C955 0.960 . S
H1020 C991 0.980 . S
H1021 C957 0.930 . S
H1022 C961 0.930 . S
H1023 C962 0.961 . S
H1024 C962 0.960 . S
H1025 C962 0.958 . S
H1026 C963 0.961 . S
H1027 C963 0.960 . S
H1028 C963 0.960 . S
H1029 C965 0.980 . S
H1030 C964 0.961 . S
H1031 C964 0.961 . S
H1032 C964 0.959 . S
H1033 C967 0.932 . S
H1034 C971 0.929 . S
H1035 C972 0.961 . S
H1036 C972 0.959 . S
H1037 C972 0.959 . S
H1038 C973 0.960 . S
H1039 C973 0.962 . S
H1040 C973 0.961 . S
H1041 C975 0.929 . S
H1042 C978 0.930 . S
H1043 C979 0.929 . S
H1044 C982 0.930 . S
H1045 C985 0.929 . S
H1046 C986 0.930 . S
H1047 C990 0.962 . S
H1048 C990 0.959 . S
H1049 C990 0.958 . S
C1050 C1051 1.560 . S
C1050 H1111 0.959 . S
C1050 H1112 0.959 . S
C1050 H1113 0.960 . S
C1051 C1050 1.560 . S
C1051 O1106 1.426 . S
C1051 H1110 0.980 . S
C1052 C1053 1.407 . S
C1052 C1057 1.418 . S
C1052 O1106 1.334 . S
C1053 C1052 1.407 . S
C1053 C1054 1.360 . S
C1053 H1114 0.929 . S
C1054 C1053 1.360 . S
C1054 C1055 1.401 . S
C1054 C1058 1.527 . S
C1055 C1054 1.401 . S
C1055 C1056 1.405 . S
C1055 C1088 1.587 . S
C1056 C1055 1.405 . S
C1056 C1057 1.332 . S
C1056 C1059 1.496 . S
C1057 C1052 1.418 . S
C1057 C1056 1.332 . S
C1057 H1115 0.929 . S
C1058 C1054 1.527 . S
C1058 H1116 0.959 . S
C1058 H1117 0.961 . S
C1058 H1118 0.961 . S
C1059 C1056 1.496 . S
C1059 H1119 0.960 . S
C1059 H1120 0.960 . S
C1059 H1121 0.961 . S
C1060 C1061 1.517 . S
C1060 H1123 0.961 . S
C1060 H1124 0.960 . S
C1060 H1125 0.959 . S
C1061 C1060 1.517 . S
C1061 O1109 1.468 . S
C1061 H1122 0.980 . S
C1062 C1063 1.349 . S
C1062 C1067 1.367 . S
C1062 O1109 1.408 . S
C1063 C1062 1.349 . S
C1063 C1064 1.407 . S
C1063 H1126 0.930 . S
C1064 C1063 1.407 . S
C1064 C1065 1.449 . S
C1064 C1068 1.535 . S
C1065 C1064 1.449 . S
C1065 C1066 1.384 . S
C1065 C1090 1.553 . S
C1066 C1065 1.384 . S
C1066 C1067 1.364 . S
C1066 C1069 1.450 . S
C1067 C1062 1.367 . S
C1067 C1066 1.364 . S
C1067 H1127 0.931 . S
C1068 C1064 1.535 . S
C1068 H1128 0.959 . S
C1068 H1129 0.961 . S
C1068 H1130 0.959 . S
C1069 C1066 1.450 . S
C1069 H1131 0.960 . S
C1069 H1132 0.960 . S
C1069 H1133 0.960 . S
C1070 C1071 1.309 . S
C1070 C1075 1.304 . S
C1070 O1108 1.435 . S
C1071 C1070 1.309 . S
C1071 C1072 1.476 . S
C1071 H1135 0.930 . S
C1072 C1071 1.476 . S
C1072 C1073 1.400 . S
C1072 C1076 1.567 . S
C1073 C1072 1.400 . S
C1073 C1074 1.373 . S
C1073 C1095 1.432 . S
C1074 C1073 1.373 . S
C1074 C1075 1.339 . S
C1074 C1077 1.530 . S
C1075 C1070 1.304 . S
C1075 C1074 1.339 . S
C1075 H1136 0.930 . S
C1076 C1072 1.567 . S
C1076 H1137 0.961 . S
C1076 H1138 0.960 . S
C1076 H1139 0.958 . S
C1077 C1074 1.530 . S
C1077 H1140 0.961 . S
C1077 H1141 0.960 . S
C1077 H1142 0.960 . S
C1078 C1079 1.530 . S
C1078 H1144 0.961 . S
C1078 H1145 0.961 . S
C1078 H1146 0.959 . S
C1079 C1078 1.530 . S
C1079 O1107 1.412 . S
C1079 H1143 0.980 . S
C1080 C1081 1.288 . S
C1080 C1085 1.377 . S
C1080 O1107 1.393 . S
C1081 C1080 1.288 . S
C1081 C1082 1.369 . S
C1081 H1147 0.932 . S
C1082 C1081 1.369 . S
C1082 C1083 1.398 . S
C1082 C1086 1.527 . S
C1083 C1082 1.398 . S
C1083 C1084 1.380 . S
C1083 C1097 1.497 . S
C1084 C1083 1.380 . S
C1084 C1085 1.383 . S
C1084 C1087 1.603 . S
C1085 C1080 1.377 . S
C1085 C1084 1.383 . S
C1085 H1148 0.929 . S
C1086 C1082 1.527 . S
C1086 H1149 0.961 . S
C1086 H1150 0.959 . S
C1086 H1151 0.959 . S
C1087 C1084 1.603 . S
C1087 H1152 0.960 . S
C1087 H1153 0.962 . S
C1087 H1154 0.961 . S
C1088 C1055 1.587 . S
C1088 C1089 1.360 . S
C1088 C1101 1.412 . S
C1089 C1088 1.360 . S
C1089 C1090 1.365 . S
C1089 H1155 0.929 . S
C1090 C1065 1.553 . S
C1090 C1089 1.365 . S
C1090 C1091 1.404 . S
C1091 C1090 1.404 . S
C1091 C1092 1.395 . S
C1091 C1102 1.451 . S
C1092 C1091 1.395 . S
C1092 C1093 1.322 . S
C1092 H1156 0.930 . S
C1093 C1092 1.322 . S
C1093 C1094 1.459 . S
C1093 H1157 0.929 . S
C1094 C1093 1.459 . S
C1094 C1095 1.445 . S
C1094 C1103 1.395 . S
C1095 C1073 1.432 . S
C1095 C1094 1.445 . S
C1095 C1096 1.370 . S
C1096 C1095 1.370 . S
C1096 C1097 1.438 . S
C1096 H1158 0.930 . S
C1097 C1083 1.497 . S
C1097 C1096 1.438 . S
C1097 C1098 1.360 . S
C1098 C1097 1.360 . S
C1098 C1099 1.401 . S
C1098 C1103 1.446 . S
C1099 C1098 1.401 . S
C1099 C1100 1.347 . S
C1099 H1159 0.929 . S
C1100 C1099 1.347 . S
C1100 C1101 1.455 . S
C1100 H1160 0.930 . S
C1101 C1088 1.412 . S
C1101 C1100 1.455 . S
C1101 C1102 1.331 . S
C1102 C1091 1.451 . S
C1102 C1101 1.331 . S
C1102 C1103 1.497 . S
C1103 C1094 1.395 . S
C1103 C1098 1.446 . S
C1103 C1102 1.497 . S
C1104 C1105 1.582 . S
C1104 H1161 0.962 . S
C1104 H1162 0.959 . S
C1104 H1163 0.958 . S
C1105 C1104 1.582 . S
C1105 O1108 1.458 . S
C1105 H1134 0.980 . S
O1106 C1051 1.426 . S
O1106 C1052 1.334 . S
O1107 C1079 1.412 . S
O1107 C1080 1.393 . S
O1108 C1070 1.435 . S
O1108 C1105 1.458 . S
O1109 C1061 1.468 . S
O1109 C1062 1.408 . S
H1110 C1051 0.980 . S
H1111 C1050 0.959 . S
H1112 C1050 0.959 . S
H1113 C1050 0.960 . S
H1114 C1053 0.929 . S
H1115 C1057 0.929 . S
H1116 C1058 0.959 . S
H1117 C1058 0.961 . S
H1118 C1058 0.961 . S
H1119 C1059 0.960 . S
H1120 C1059 0.960 . S
H1121 C1059 0.961 . S
H1122 C1061 0.980 . S
H1123 C1060 0.961 . S
H1124 C1060 0.960 . S
H1125 C1060 0.959 . S
H1126 C1063 0.930 . S
H1127 C1067 0.931 . S
H1128 C1068 0.959 . S
H1129 C1068 0.961 . S
H1130 C1068 0.959 . S
H1131 C1069 0.960 . S
H1132 C1069 0.960 . S
H1133 C1069 0.960 . S
H1134 C1105 0.980 . S
H1135 C1071 0.930 . S
H1136 C1075 0.930 . S
H1137 C1076 0.961 . S
H1138 C1076 0.960 . S
H1139 C1076 0.958 . S
H1140 C1077 0.961 . S
H1141 C1077 0.960 . S
H1142 C1077 0.960 . S
H1143 C1079 0.980 . S
H1144 C1078 0.961 . S
H1145 C1078 0.961 . S
H1146 C1078 0.959 . S
H1147 C1081 0.932 . S
H1148 C1085 0.929 . S
H1149 C1086 0.961 . S
H1150 C1086 0.959 . S
H1151 C1086 0.959 . S
H1152 C1087 0.960 . S
H1153 C1087 0.962 . S
H1154 C1087 0.961 . S
H1155 C1089 0.929 . S
H1156 C1092 0.930 . S
H1157 C1093 0.929 . S
H1158 C1096 0.930 . S
H1159 C1099 0.929 . S
H1160 C1100 0.930 . S
H1161 C1104 0.962 . S
H1162 C1104 0.959 . S
H1163 C1104 0.958 . S
C1164 C1165 1.560 . S
C1164 H1225 0.959 . S
C1164 H1226 0.959 . S
C1164 H1227 0.960 . S
C1165 C1164 1.560 . S
C1165 O1220 1.426 . S
C1165 H1224 0.980 . S
C1166 C1167 1.407 . S
C1166 C1171 1.418 . S
C1166 O1220 1.334 . S
C1167 C1166 1.407 . S
C1167 C1168 1.360 . S
C1167 H1228 0.929 . S
C1168 C1167 1.360 . S
C1168 C1169 1.401 . S
C1168 C1172 1.527 . S
C1169 C1168 1.401 . S
C1169 C1170 1.405 . S
C1169 C1202 1.587 . S
C1170 C1169 1.405 . S
C1170 C1171 1.332 . S
C1170 C1173 1.496 . S
C1171 C1166 1.418 . S
C1171 C1170 1.332 . S
C1171 H1229 0.929 . S
C1172 C1168 1.527 . S
C1172 H1230 0.959 . S
C1172 H1231 0.961 . S
C1172 H1232 0.961 . S
C1173 C1170 1.496 . S
C1173 H1233 0.960 . S
C1173 H1234 0.960 . S
C1173 H1235 0.961 . S
C1174 C1175 1.517 . S
C1174 H1237 0.961 . S
C1174 H1238 0.960 . S
C1174 H1239 0.959 . S
C1175 C1174 1.517 . S
C1175 O1223 1.468 . S
C1175 H1236 0.980 . S
C1176 C1177 1.349 . S
C1176 C1181 1.367 . S
C1176 O1223 1.408 . S
C1177 C1176 1.349 . S
C1177 C1178 1.407 . S
C1177 H1240 0.930 . S
C1178 C1177 1.407 . S
C1178 C1179 1.449 . S
C1178 C1182 1.535 . S
C1179 C1178 1.449 . S
C1179 C1180 1.384 . S
C1179 C1204 1.553 . S
C1180 C1179 1.384 . S
C1180 C1181 1.364 . S
C1180 C1183 1.450 . S
C1181 C1176 1.367 . S
C1181 C1180 1.364 . S
C1181 H1241 0.931 . S
C1182 C1178 1.535 . S
C1182 H1242 0.959 . S
C1182 H1243 0.961 . S
C1182 H1244 0.959 . S
C1183 C1180 1.450 . S
C1183 H1245 0.960 . S
C1183 H1246 0.960 . S
C1183 H1247 0.960 . S
C1184 C1185 1.309 . S
C1184 C1189 1.304 . S
C1184 O1222 1.435 . S
C1185 C1184 1.309 . S
C1185 C1186 1.476 . S
C1185 H1249 0.930 . S
C1186 C1185 1.476 . S
C1186 C1187 1.400 . S
C1186 C1190 1.567 . S
C1187 C1186 1.400 . S
C1187 C1188 1.373 . S
C1187 C1209 1.432 . S
C1188 C1187 1.373 . S
C1188 C1189 1.339 . S
C1188 C1191 1.530 . S
C1189 C1184 1.304 . S
C1189 C1188 1.339 . S
C1189 H1250 0.930 . S
C1190 C1186 1.567 . S
C1190 H1251 0.961 . S
C1190 H1252 0.960 . S
C1190 H1253 0.958 . S
C1191 C1188 1.530 . S
C1191 H1254 0.961 . S
C1191 H1255 0.960 . S
C1191 H1256 0.960 . S
C1192 C1193 1.530 . S
C1192 H1258 0.961 . S
C1192 H1259 0.961 . S
C1192 H1260 0.959 . S
C1193 C1192 1.530 . S
C1193 O1221 1.412 . S
C1193 H1257 0.980 . S
C1194 C1195 1.288 . S
C1194 C1199 1.377 . S
C1194 O1221 1.393 . S
C1195 C1194 1.288 . S
C1195 C1196 1.369 . S
C1195 H1261 0.932 . S
C1196 C1195 1.369 . S
C1196 C1197 1.398 . S
C1196 C1200 1.527 . S
C1197 C1196 1.398 . S
C1197 C1198 1.380 . S
C1197 C1211 1.497 . S
C1198 C1197 1.380 . S
C1198 C1199 1.383 . S
C1198 C1201 1.603 . S
C1199 C1194 1.377 . S
C1199 C1198 1.383 . S
C1199 H1262 0.929 . S
C1200 C1196 1.527 . S
C1200 H1263 0.961 . S
C1200 H1264 0.959 . S
C1200 H1265 0.959 . S
C1201 C1198 1.603 . S
C1201 H1266 0.960 . S
C1201 H1267 0.962 . S
C1201 H1268 0.961 . S
C1202 C1169 1.587 . S
C1202 C1203 1.360 . S
C1202 C1215 1.412 . S
C1203 C1202 1.360 . S
C1203 C1204 1.365 . S
C1203 H1269 0.929 . S
C1204 C1179 1.553 . S
C1204 C1203 1.365 . S
C1204 C1205 1.404 . S
C1205 C1204 1.404 . S
C1205 C1206 1.395 . S
C1205 C1216 1.451 . S
C1206 C1205 1.395 . S
C1206 C1207 1.322 . S
C1206 H1270 0.930 . S
C1207 C1206 1.322 . S
C1207 C1208 1.459 . S
C1207 H1271 0.929 . S
C1208 C1207 1.459 . S
C1208 C1209 1.445 . S
C1208 C1217 1.395 . S
C1209 C1187 1.432 . S
C1209 C1208 1.445 . S
C1209 C1210 1.370 . S
C1210 C1209 1.370 . S
C1210 C1211 1.438 . S
C1210 H1272 0.930 . S
C1211 C1197 1.497 . S
C1211 C1210 1.438 . S
C1211 C1212 1.360 . S
C1212 C1211 1.360 . S
C1212 C1213 1.401 . S
C1212 C1217 1.446 . S
C1213 C1212 1.401 . S
C1213 C1214 1.347 . S
C1213 H1273 0.929 . S
C1214 C1213 1.347 . S
C1214 C1215 1.455 . S
C1214 H1274 0.930 . S
C1215 C1202 1.412 . S
C1215 C1214 1.455 . S
C1215 C1216 1.331 . S
C1216 C1205 1.451 . S
C1216 C1215 1.331 . S
C1216 C1217 1.497 . S
C1217 C1208 1.395 . S
C1217 C1212 1.446 . S
C1217 C1216 1.497 . S
C1218 C1219 1.582 . S
C1218 H1275 0.962 . S
C1218 H1276 0.959 . S
C1218 H1277 0.958 . S
C1219 C1218 1.582 . S
C1219 O1222 1.458 . S
C1219 H1248 0.980 . S
O1220 C1165 1.426 . S
O1220 C1166 1.334 . S
O1221 C1193 1.412 . S
O1221 C1194 1.393 . S
O1222 C1184 1.435 . S
O1222 C1219 1.458 . S
O1223 C1175 1.468 . S
O1223 C1176 1.408 . S
H1224 C1165 0.980 . S
H1225 C1164 0.959 . S
H1226 C1164 0.959 . S
H1227 C1164 0.960 . S
H1228 C1167 0.929 . S
H1229 C1171 0.929 . S
H1230 C1172 0.959 . S
H1231 C1172 0.961 . S
H1232 C1172 0.961 . S
H1233 C1173 0.960 . S
H1234 C1173 0.960 . S
H1235 C1173 0.961 . S
H1236 C1175 0.980 . S
H1237 C1174 0.961 . S
H1238 C1174 0.960 . S
H1239 C1174 0.959 . S
H1240 C1177 0.930 . S
H1241 C1181 0.931 . S
H1242 C1182 0.959 . S
H1243 C1182 0.961 . S
H1244 C1182 0.959 . S
H1245 C1183 0.960 . S
H1246 C1183 0.960 . S
H1247 C1183 0.960 . S
H1248 C1219 0.980 . S
H1249 C1185 0.930 . S
H1250 C1189 0.930 . S
H1251 C1190 0.961 . S
H1252 C1190 0.960 . S
H1253 C1190 0.958 . S
H1254 C1191 0.961 . S
H1255 C1191 0.960 . S
H1256 C1191 0.960 . S
H1257 C1193 0.980 . S
H1258 C1192 0.961 . S
H1259 C1192 0.961 . S
H1260 C1192 0.959 . S
H1261 C1195 0.932 . S
H1262 C1199 0.929 . S
H1263 C1200 0.961 . S
H1264 C1200 0.959 . S
H1265 C1200 0.959 . S
H1266 C1201 0.960 . S
H1267 C1201 0.962 . S
H1268 C1201 0.961 . S
H1269 C1203 0.929 . S
H1270 C1206 0.930 . S
H1271 C1207 0.929 . S
H1272 C1210 0.930 . S
H1273 C1213 0.929 . S
H1274 C1214 0.930 . S
H1275 C1218 0.962 . S
H1276 C1218 0.959 . S
H1277 C1218 0.958 . S
C1278 C1279 1.560 . S
C1278 H1339 0.959 . S
C1278 H1340 0.959 . S
C1278 H1341 0.960 . S
C1279 C1278 1.560 . S
C1279 O1334 1.426 . S
C1279 H1338 0.980 . S
C1280 C1281 1.407 1_455 S
C1280 C1285 1.418 . S
C1280 O1334 1.334 . S
C1281 C1280 1.407 1_655 S
C1281 C1282 1.360 . S
C1281 H1342 0.929 . S
C1282 C1281 1.360 . S
C1282 C1283 1.385 1_655 S
C1282 C1286 1.527 . S
C1283 C1282 1.385 1_455 S
C1283 C1284 1.488 . S
C1283 C1316 1.526 1_455 S
C1284 C1283 1.488 . S
C1284 C1285 1.332 . S
C1284 C1287 1.496 . S
C1285 C1280 1.418 . S
C1285 C1284 1.332 . S
C1285 H1343 0.929 . S
C1286 C1282 1.527 . S
C1286 H1344 0.959 . S
C1286 H1345 0.961 . S
C1286 H1346 0.961 . S
C1287 C1284 1.496 . S
C1287 H1347 0.960 . S
C1287 H1348 0.960 . S
C1287 H1349 0.961 . S
C1288 C1289 1.517 . S
C1288 H1351 0.961 . S
C1288 H1352 0.960 . S
C1288 H1353 0.959 . S
C1289 C1288 1.517 . S
C1289 O1337 1.468 . S
C1289 H1350 0.957 1_655 S
C1290 C1291 1.349 . S
C1290 C1295 1.367 . S
C1290 O1337 1.408 . S
C1291 C1290 1.349 . S
C1291 C1292 1.413 1_655 S
C1291 H1354 0.930 1_655 S
C1292 C1291 1.413 1_455 S
C1292 C1293 1.453 1_455 S
C1292 C1296 1.527 . S
C1293 C1292 1.453 1_655 S
C1293 C1294 1.384 . S
C1293 C1318 1.553 . S
C1294 C1293 1.384 . S
C1294 C1295 1.364 . S
C1294 C1297 1.450 . S
C1295 C1290 1.367 . S
C1295 C1294 1.364 . S
C1295 H1355 0.931 . S
C1296 C1292 1.527 . S
C1296 H1356 0.959 . S
C1296 H1357 0.961 . S
C1296 H1358 0.959 . S
C1297 C1294 1.450 . S
C1297 H1359 0.960 . S
C1297 H1360 0.960 . S
C1297 H1361 0.960 . S
C1298 C1299 1.309 . S
C1298 C1303 1.304 . S
C1298 O1336 1.435 . S
C1299 C1298 1.309 . S
C1299 C1300 1.446 1_655 S
C1299 H1363 0.930 1_655 S
C1300 C1299 1.446 1_455 S
C1300 C1301 1.382 1_455 S
C1300 C1304 1.615 . S
C1301 C1300 1.382 1_655 S
C1301 C1302 1.373 . S
C1301 C1323 1.432 . S
C1302 C1301 1.373 . S
C1302 C1303 1.339 . S
C1302 C1305 1.530 . S
C1303 C1298 1.304 . S
C1303 C1302 1.339 . S
C1303 H1364 0.930 . S
C1304 C1300 1.615 . S
C1304 H1365 0.961 . S
C1304 H1366 0.960 . S
C1304 H1367 0.958 . S
C1305 C1302 1.530 . S
C1305 H1368 0.961 . S
C1305 H1369 0.960 . S
C1305 H1370 0.960 . S
C1306 C1307 1.616 . S
C1306 H1372 0.961 . S
C1306 H1373 0.961 . S
C1306 H1374 0.959 . S
C1307 C1306 1.616 . S
C1307 O1335 1.432 . S
C1307 H1371 0.959 1_455 S
C1308 C1309 1.288 . S
C1308 C1313 1.377 1_455 S
C1308 O1335 1.393 . S
C1309 C1308 1.288 . S
C1309 C1310 1.369 . S
C1309 H1375 0.932 . S
C1310 C1309 1.369 . S
C1310 C1311 1.340 1_455 S
C1310 C1314 1.527 . S
C1311 C1310 1.340 1_655 S
C1311 C1312 1.398 . S
C1311 C1325 1.536 . S
C1312 C1311 1.398 . S
C1312 C1313 1.383 . S
C1312 C1315 1.603 . S
C1313 C1308 1.377 1_655 S
C1313 C1312 1.383 . S
C1313 H1376 0.929 . S
C1314 C1310 1.527 . S
C1314 H1377 0.961 . S
C1314 H1378 0.959 . S
C1314 H1379 0.959 . S
C1315 C1312 1.603 . S
C1315 H1380 0.960 . S
C1315 H1381 0.962 . S
C1315 H1382 0.961 . S
C1316 C1283 1.526 1_655 S
C1316 C1317 1.360 . S
C1316 C1329 1.412 . S
C1317 C1316 1.360 . S
C1317 C1318 1.365 . S
C1317 H1383 0.929 . S
C1318 C1293 1.553 . S
C1318 C1317 1.365 . S
C1318 C1319 1.404 . S
C1319 C1318 1.404 . S
C1319 C1320 1.395 . S
C1319 C1330 1.451 . S
C1320 C1319 1.395 . S
C1320 C1321 1.322 . S
C1320 H1384 0.930 . S
C1321 C1320 1.322 . S
C1321 C1322 1.459 . S
C1321 H1385 0.929 . S
C1322 C1321 1.459 . S
C1322 C1323 1.445 . S
C1322 C1331 1.395 . S
C1323 C1301 1.432 . S
C1323 C1322 1.445 . S
C1323 C1324 1.370 . S
C1324 C1323 1.370 . S
C1324 C1325 1.438 . S
C1324 H1386 0.930 . S
C1325 C1311 1.536 . S
C1325 C1324 1.438 . S
C1325 C1326 1.360 . S
C1326 C1325 1.360 . S
C1326 C1327 1.401 . S
C1326 C1331 1.446 . S
C1327 C1326 1.401 . S
C1327 C1328 1.347 . S
C1327 H1387 0.985 . S
C1328 C1327 1.347 . S
C1328 C1329 1.455 . S
C1328 H1388 0.930 . S
C1329 C1316 1.412 . S
C1329 C1328 1.455 . S
C1329 C1330 1.331 . S
C1330 C1319 1.451 . S
C1330 C1329 1.331 . S
C1330 C1331 1.497 . S
C1331 C1322 1.395 . S
C1331 C1326 1.446 . S
C1331 C1330 1.497 . S
C1332 C1333 1.582 . S
C1332 H1389 0.962 . S
C1332 H1390 0.959 . S
C1332 H1391 0.958 . S
C1333 C1332 1.582 . S
C1333 O1336 1.458 . S
C1333 H1362 0.980 . S
O1334 C1279 1.426 . S
O1334 C1280 1.334 . S
O1335 C1307 1.432 . S
O1335 C1308 1.393 . S
O1336 C1298 1.435 . S
O1336 C1333 1.458 . S
O1337 C1289 1.468 . S
O1337 C1290 1.408 . S
H1338 C1279 0.980 . S
H1339 C1278 0.959 . S
H1340 C1278 0.959 . S
H1341 C1278 0.960 . S
H1342 C1281 0.929 . S
H1343 C1285 0.929 . S
H1344 C1286 0.959 . S
H1345 C1286 0.961 . S
H1346 C1286 0.961 . S
H1347 C1287 0.960 . S
H1348 C1287 0.960 . S
H1349 C1287 0.961 . S
H1350 C1289 0.957 1_455 S
H1351 C1288 0.961 . S
H1352 C1288 0.960 . S
H1353 C1288 0.959 . S
H1354 C1291 0.930 1_455 S
H1355 C1295 0.931 . S
H1356 C1296 0.959 . S
H1357 C1296 0.961 . S
H1358 C1296 0.959 . S
H1359 C1297 0.960 . S
H1360 C1297 0.960 . S
H1361 C1297 0.960 . S
H1362 C1333 0.980 . S
H1363 C1299 0.930 1_455 S
H1364 C1303 0.930 . S
H1365 C1304 0.961 . S
H1366 C1304 0.960 . S
H1367 C1304 0.958 . S
H1368 C1305 0.961 . S
H1369 C1305 0.960 . S
H1370 C1305 0.960 . S
H1371 C1307 0.959 1_655 S
H1372 C1306 0.961 . S
H1373 C1306 0.961 . S
H1374 C1306 0.959 . S
H1375 C1309 0.932 . S
H1376 C1313 0.929 . S
H1377 C1314 0.961 . S
H1378 C1314 0.959 . S
H1379 C1314 0.959 . S
H1380 C1315 0.960 . S
H1381 C1315 0.962 . S
H1382 C1315 0.961 . S
H1383 C1317 0.929 . S
H1384 C1320 0.930 . S
H1385 C1321 0.929 . S
H1386 C1324 0.930 . S
H1387 C1327 0.985 . S
H1388 C1328 0.930 . S
H1389 C1332 0.962 . S
H1390 C1332 0.959 . S
H1391 C1332 0.958 . S
C1392 C1393 1.560 . S
C1392 H1453 0.959 . S
C1392 H1454 0.959 . S
C1392 H1455 0.960 . S
C1393 C1392 1.560 . S
C1393 O1448 1.426 . S
C1393 H1452 0.980 . S
C1394 C1395 1.407 . S
C1394 C1399 1.418 . S
C1394 O1448 1.334 . S
C1395 C1394 1.407 . S
C1395 C1396 1.360 . S
C1395 H1456 0.929 . S
C1396 C1395 1.360 . S
C1396 C1397 1.401 . S
C1396 C1400 1.527 . S
C1397 C1396 1.401 . S
C1397 C1398 1.405 . S
C1397 C1430 1.587 . S
C1398 C1397 1.405 . S
C1398 C1399 1.332 . S
C1398 C1401 1.496 . S
C1399 C1394 1.418 . S
C1399 C1398 1.332 . S
C1399 H1457 0.929 . S
C1400 C1396 1.527 . S
C1400 H1458 0.959 . S
C1400 H1459 0.961 . S
C1400 H1460 0.961 . S
C1401 C1398 1.496 . S
C1401 H1461 0.960 . S
C1401 H1462 0.960 . S
C1401 H1463 0.961 . S
C1402 C1403 1.517 . S
C1402 H1465 0.961 . S
C1402 H1466 0.960 . S
C1402 H1467 0.959 . S
C1403 C1402 1.517 . S
C1403 O1451 1.468 . S
C1403 H1464 0.980 . S
C1404 C1405 1.349 . S
C1404 C1409 1.367 . S
C1404 O1451 1.408 . S
C1405 C1404 1.349 . S
C1405 C1406 1.407 . S
C1405 H1468 0.930 . S
C1406 C1405 1.407 . S
C1406 C1407 1.449 . S
C1406 C1410 1.535 . S
C1407 C1406 1.449 . S
C1407 C1408 1.384 . S
C1407 C1432 1.553 . S
C1408 C1407 1.384 . S
C1408 C1409 1.364 . S
C1408 C1411 1.450 . S
C1409 C1404 1.367 . S
C1409 C1408 1.364 . S
C1409 H1469 0.931 . S
C1410 C1406 1.535 . S
C1410 H1470 0.959 . S
C1410 H1471 0.961 . S
C1410 H1472 0.959 . S
C1411 C1408 1.450 . S
C1411 H1473 0.960 . S
C1411 H1474 0.960 . S
C1411 H1475 0.960 . S
C1412 C1413 1.309 . S
C1412 C1417 1.304 . S
C1412 O1450 1.435 . S
C1413 C1412 1.309 . S
C1413 C1414 1.476 . S
C1413 H1477 0.930 . S
C1414 C1413 1.476 . S
C1414 C1415 1.400 . S
C1414 C1418 1.567 . S
C1415 C1414 1.400 . S
C1415 C1416 1.373 . S
C1415 C1437 1.432 . S
C1416 C1415 1.373 . S
C1416 C1417 1.339 . S
C1416 C1419 1.530 . S
C1417 C1412 1.304 . S
C1417 C1416 1.339 . S
C1417 H1478 0.930 . S
C1418 C1414 1.567 . S
C1418 H1479 0.961 . S
C1418 H1480 0.960 . S
C1418 H1481 0.958 . S
C1419 C1416 1.530 . S
C1419 H1482 0.961 . S
C1419 H1483 0.960 . S
C1419 H1484 0.960 . S
C1420 C1421 1.530 . S
C1420 H1486 0.961 . S
C1420 H1487 0.961 . S
C1420 H1488 0.959 . S
C1421 C1420 1.530 . S
C1421 O1449 1.412 . S
C1421 H1485 0.980 . S
C1422 C1423 1.288 . S
C1422 C1427 1.377 . S
C1422 O1449 1.393 . S
C1423 C1422 1.288 . S
C1423 C1424 1.369 . S
C1423 H1489 0.932 . S
C1424 C1423 1.369 . S
C1424 C1425 1.398 . S
C1424 C1428 1.527 . S
C1425 C1424 1.398 . S
C1425 C1426 1.380 . S
C1425 C1439 1.497 . S
C1426 C1425 1.380 . S
C1426 C1427 1.383 . S
C1426 C1429 1.603 . S
C1427 C1422 1.377 . S
C1427 C1426 1.383 . S
C1427 H1490 0.929 . S
C1428 C1424 1.527 . S
C1428 H1491 0.961 . S
C1428 H1492 0.959 . S
C1428 H1493 0.959 . S
C1429 C1426 1.603 . S
C1429 H1494 0.960 . S
C1429 H1495 0.962 . S
C1429 H1496 0.961 . S
C1430 C1397 1.587 . S
C1430 C1431 1.360 . S
C1430 C1443 1.412 . S
C1431 C1430 1.360 . S
C1431 C1432 1.365 . S
C1431 H1497 0.929 . S
C1432 C1407 1.553 . S
C1432 C1431 1.365 . S
C1432 C1433 1.404 . S
C1433 C1432 1.404 . S
C1433 C1434 1.395 . S
C1433 C1444 1.451 . S
C1434 C1433 1.395 . S
C1434 C1435 1.322 . S
C1434 H1498 0.930 . S
C1435 C1434 1.322 . S
C1435 C1436 1.459 . S
C1435 H1499 0.929 . S
C1436 C1435 1.459 . S
C1436 C1437 1.445 . S
C1436 C1445 1.395 . S
C1437 C1415 1.432 . S
C1437 C1436 1.445 . S
C1437 C1438 1.370 . S
C1438 C1437 1.370 . S
C1438 C1439 1.438 . S
C1438 H1500 0.930 . S
C1439 C1425 1.497 . S
C1439 C1438 1.438 . S
C1439 C1440 1.360 . S
C1440 C1439 1.360 . S
C1440 C1441 1.401 . S
C1440 C1445 1.446 . S
C1441 C1440 1.401 . S
C1441 C1442 1.347 . S
C1441 H1501 0.929 . S
C1442 C1441 1.347 . S
C1442 C1443 1.455 . S
C1442 H1502 0.930 . S
C1443 C1430 1.412 . S
C1443 C1442 1.455 . S
C1443 C1444 1.331 . S
C1444 C1433 1.451 . S
C1444 C1443 1.331 . S
C1444 C1445 1.497 . S
C1445 C1436 1.395 . S
C1445 C1440 1.446 . S
C1445 C1444 1.497 . S
C1446 C1447 1.582 . S
C1446 H1503 0.962 . S
C1446 H1504 0.959 . S
C1446 H1505 0.958 . S
C1447 C1446 1.582 . S
C1447 O1450 1.458 . S
C1447 H1476 0.980 . S
O1448 C1393 1.426 . S
O1448 C1394 1.334 . S
O1449 C1421 1.412 . S
O1449 C1422 1.393 . S
O1450 C1412 1.435 . S
O1450 C1447 1.458 . S
O1451 C1403 1.468 . S
O1451 C1404 1.408 . S
H1452 C1393 0.980 . S
H1453 C1392 0.959 . S
H1454 C1392 0.959 . S
H1455 C1392 0.960 . S
H1456 C1395 0.929 . S
H1457 C1399 0.929 . S
H1458 C1400 0.959 . S
H1459 C1400 0.961 . S
H1460 C1400 0.961 . S
H1461 C1401 0.960 . S
H1462 C1401 0.960 . S
H1463 C1401 0.961 . S
H1464 C1403 0.980 . S
H1465 C1402 0.961 . S
H1466 C1402 0.960 . S
H1467 C1402 0.959 . S
H1468 C1405 0.930 . S
H1469 C1409 0.931 . S
H1470 C1410 0.959 . S
H1471 C1410 0.961 . S
H1472 C1410 0.959 . S
H1473 C1411 0.960 . S
H1474 C1411 0.960 . S
H1475 C1411 0.960 . S
H1476 C1447 0.980 . S
H1477 C1413 0.930 . S
H1478 C1417 0.930 . S
H1479 C1418 0.961 . S
H1480 C1418 0.960 . S
H1481 C1418 0.958 . S
H1482 C1419 0.961 . S
H1483 C1419 0.960 . S
H1484 C1419 0.960 . S
H1485 C1421 0.980 . S
H1486 C1420 0.961 . S
H1487 C1420 0.961 . S
H1488 C1420 0.959 . S
H1489 C1423 0.932 . S
H1490 C1427 0.929 . S
H1491 C1428 0.961 . S
H1492 C1428 0.959 . S
H1493 C1428 0.959 . S
H1494 C1429 0.960 . S
H1495 C1429 0.962 . S
H1496 C1429 0.961 . S
H1497 C1431 0.929 . S
H1498 C1434 0.930 . S
H1499 C1435 0.929 . S
H1500 C1438 0.930 . S
H1501 C1441 0.929 . S
H1502 C1442 0.930 . S
H1503 C1446 0.962 . S
H1504 C1446 0.959 . S
H1505 C1446 0.958 . S
C1506 C1507 1.560 . S
C1506 H1567 0.959 . S
C1506 H1568 0.959 . S
C1506 H1569 0.960 . S
C1507 C1506 1.560 . S
C1507 O1562 1.426 . S
C1507 H1566 0.980 . S
C1508 C1509 1.407 1_565 S
C1508 C1513 1.418 . S
C1508 O1562 1.334 . S
C1509 C1508 1.407 1_545 S
C1509 C1510 1.360 . S
C1509 H1570 0.929 . S
C1510 C1509 1.360 . S
C1510 C1511 1.401 1_545 S
C1510 C1514 1.527 . S
C1511 C1510 1.401 1_565 S
C1511 C1512 1.405 . S
C1511 C1544 1.587 1_565 S
C1512 C1511 1.405 . S
C1512 C1513 1.332 . S
C1512 C1515 1.496 . S
C1513 C1508 1.418 . S
C1513 C1512 1.332 . S
C1513 H1571 0.929 . S
C1514 C1510 1.527 . S
C1514 H1572 0.959 . S
C1514 H1573 0.961 . S
C1514 H1574 0.961 . S
C1515 C1512 1.496 . S
C1515 H1575 0.960 . S
C1515 H1576 0.960 . S
C1515 H1577 0.961 . S
C1516 C1517 1.517 . S
C1516 H1579 0.925 1_545 S
C1516 H1580 0.960 . S
C1516 H1581 0.959 . S
C1517 C1516 1.517 . S
C1517 O1565 1.468 . S
C1517 H1578 0.980 1_545 S
C1518 C1519 1.406 . S
C1518 C1523 1.367 . S
C1518 O1565 1.408 . S
C1519 C1518 1.406 . S
C1519 C1520 1.441 1_545 S
C1519 H1582 0.842 1_545 S
C1520 C1519 1.441 1_565 S
C1520 C1521 1.449 1_565 S
C1520 C1524 1.535 . S
C1521 C1520 1.449 1_545 S
C1521 C1522 1.384 . S
C1521 C1546 1.553 . S
C1522 C1521 1.384 . S
C1522 C1523 1.364 . S
C1522 C1525 1.450 . S
C1523 C1518 1.367 . S
C1523 C1522 1.364 . S
C1523 H1583 0.931 . S
C1524 C1520 1.535 . S
C1524 H1584 0.959 . S
C1524 H1585 0.961 . S
C1524 H1586 0.959 . S
C1525 C1522 1.450 . S
C1525 H1587 0.960 . S
C1525 H1588 0.960 . S
C1525 H1589 0.960 . S
C1526 C1527 1.309 . S
C1526 C1531 1.304 . S
C1526 O1564 1.435 . S
C1527 C1526 1.309 . S
C1527 C1528 1.483 1_545 S
C1527 H1591 0.930 1_545 S
C1528 C1527 1.483 1_565 S
C1528 C1529 1.376 1_565 S
C1528 C1532 1.583 . S
C1529 C1528 1.376 1_545 S
C1529 C1530 1.373 . S
C1529 C1551 1.432 . S
C1530 C1529 1.373 . S
C1530 C1531 1.339 . S
C1530 C1533 1.530 . S
C1531 C1526 1.304 . S
C1531 C1530 1.339 . S
C1531 H1592 0.930 . S
C1532 C1528 1.583 . S
C1532 H1593 0.961 . S
C1532 H1594 0.960 . S
C1532 H1595 0.958 . S
C1533 C1530 1.530 . S
C1533 H1596 0.961 . S
C1533 H1597 0.960 . S
C1533 H1598 0.960 . S
C1534 C1535 1.522 1_565 S
C1534 H1600 0.961 . S
C1534 H1601 0.961 . S
C1534 H1602 0.959 . S
C1535 C1534 1.522 1_545 S
C1535 O1563 1.331 1_545 S
C1535 H1599 1.023 . S
C1536 C1537 1.288 . S
C1536 C1541 1.377 1_565 S
C1536 O1563 1.393 . S
C1537 C1536 1.288 . S
C1537 C1538 1.369 . S
C1537 H1603 0.932 . S
C1538 C1537 1.369 . S
C1538 C1539 1.398 1_565 S
C1538 C1542 1.527 . S
C1539 C1538 1.398 1_545 S
C1539 C1540 1.380 . S
C1539 C1553 1.497 . S
C1540 C1539 1.380 . S
C1540 C1541 1.383 . S
C1540 C1543 1.603 . S
C1541 C1536 1.377 1_545 S
C1541 C1540 1.383 . S
C1541 H1604 0.929 . S
C1542 C1538 1.527 . S
C1542 H1605 0.961 . S
C1542 H1606 0.959 . S
C1542 H1607 0.959 . S
C1543 C1540 1.603 . S
C1543 H1608 0.960 . S
C1543 H1609 0.962 . S
C1543 H1610 0.961 . S
C1544 C1511 1.587 1_545 S
C1544 C1545 1.360 . S
C1544 C1557 1.412 . S
C1545 C1544 1.360 . S
C1545 C1546 1.365 . S
C1545 H1611 0.929 . S
C1546 C1521 1.553 . S
C1546 C1545 1.365 . S
C1546 C1547 1.404 . S
C1547 C1546 1.404 . S
C1547 C1548 1.395 . S
C1547 C1558 1.451 . S
C1548 C1547 1.395 . S
C1548 C1549 1.322 . S
C1548 H1612 0.930 . S
C1549 C1548 1.322 . S
C1549 C1550 1.459 . S
C1549 H1613 0.929 . S
C1550 C1549 1.459 . S
C1550 C1551 1.445 . S
C1550 C1559 1.395 . S
C1551 C1529 1.432 . S
C1551 C1550 1.445 . S
C1551 C1552 1.370 . S
C1552 C1551 1.370 . S
C1552 C1553 1.438 . S
C1552 H1614 0.930 . S
C1553 C1539 1.497 . S
C1553 C1552 1.438 . S
C1553 C1554 1.360 . S
C1554 C1553 1.360 . S
C1554 C1555 1.401 . S
C1554 C1559 1.446 . S
C1555 C1554 1.401 . S
C1555 C1556 1.347 . S
C1555 H1615 0.929 . S
C1556 C1555 1.347 . S
C1556 C1557 1.455 . S
C1556 H1616 0.930 . S
C1557 C1544 1.412 . S
C1557 C1556 1.455 . S
C1557 C1558 1.331 . S
C1558 C1547 1.451 . S
C1558 C1557 1.331 . S
C1558 C1559 1.497 . S
C1559 C1550 1.395 . S
C1559 C1554 1.446 . S
C1559 C1558 1.497 . S
C1560 C1561 1.582 . S
C1560 H1617 0.962 . S
C1560 H1618 0.959 . S
C1560 H1619 0.958 . S
C1561 C1560 1.582 . S
C1561 O1564 1.458 . S
C1561 H1590 0.980 . S
O1562 C1507 1.426 . S
O1562 C1508 1.334 . S
O1563 C1535 1.331 1_565 S
O1563 C1536 1.393 . S
O1564 C1526 1.435 . S
O1564 C1561 1.458 . S
O1565 C1517 1.468 . S
O1565 C1518 1.408 . S
H1566 C1507 0.980 . S
H1567 C1506 0.959 . S
H1568 C1506 0.959 . S
H1569 C1506 0.960 . S
H1570 C1509 0.929 . S
H1571 C1513 0.929 . S
H1572 C1514 0.959 . S
H1573 C1514 0.961 . S
H1574 C1514 0.961 . S
H1575 C1515 0.960 . S
H1576 C1515 0.960 . S
H1577 C1515 0.961 . S
H1578 C1517 0.980 1_565 S
H1579 C1516 0.925 1_565 S
H1580 C1516 0.960 . S
H1581 C1516 0.959 . S
H1582 C1519 0.842 1_565 S
H1583 C1523 0.931 . S
H1584 C1524 0.959 . S
H1585 C1524 0.961 . S
H1586 C1524 0.959 . S
H1587 C1525 0.960 . S
H1588 C1525 0.960 . S
H1589 C1525 0.960 . S
H1590 C1561 0.980 . S
H1591 C1527 0.930 1_565 S
H1592 C1531 0.930 . S
H1593 C1532 0.961 . S
H1594 C1532 0.960 . S
H1595 C1532 0.958 . S
H1596 C1533 0.961 . S
H1597 C1533 0.960 . S
H1598 C1533 0.960 . S
H1599 C1535 1.023 . S
H1600 C1534 0.961 . S
H1601 C1534 0.961 . S
H1602 C1534 0.959 . S
H1603 C1537 0.932 . S
H1604 C1541 0.929 . S
H1605 C1542 0.961 . S
H1606 C1542 0.959 . S
H1607 C1542 0.959 . S
H1608 C1543 0.960 . S
H1609 C1543 0.962 . S
H1610 C1543 0.961 . S
H1611 C1545 0.929 . S
H1612 C1548 0.930 . S
H1613 C1549 0.929 . S
H1614 C1552 0.930 . S
H1615 C1555 0.929 . S
H1616 C1556 0.930 . S
H1617 C1560 0.962 . S
H1618 C1560 0.959 . S
H1619 C1560 0.958 . S
C1620 C1621 1.560 . S
C1620 H1681 0.959 . S
C1620 H1682 0.959 . S
C1620 H1683 0.960 . S
C1621 C1620 1.560 . S
C1621 O1676 1.426 . S
C1621 H1680 0.980 1_565 S
C1622 C1623 1.407 1_565 S
C1622 C1627 1.418 . S
C1622 O1676 1.334 . S
C1623 C1622 1.407 1_545 S
C1623 C1624 1.360 . S
C1623 H1684 0.929 . S
C1624 C1623 1.360 . S
C1624 C1625 1.401 . S
C1624 C1628 1.527 . S
C1625 C1624 1.401 . S
C1625 C1626 1.405 1_545 S
C1625 C1658 1.587 . S
C1626 C1625 1.405 1_565 S
C1626 C1627 1.332 . S
C1626 C1629 1.496 . S
C1627 C1622 1.418 . S
C1627 C1626 1.332 . S
C1627 H1685 0.929 . S
C1628 C1624 1.527 . S
C1628 H1686 0.959 . S
C1628 H1687 0.961 . S
C1628 H1688 0.961 . S
C1629 C1626 1.496 . S
C1629 H1689 0.960 . S
C1629 H1690 0.960 . S
C1629 H1691 0.961 . S
C1630 C1631 1.517 . S
C1630 H1693 0.961 . S
C1630 H1694 0.960 . S
C1630 H1695 0.959 . S
C1631 C1630 1.517 . S
C1631 O1679 1.468 . S
C1631 H1692 0.980 . S
C1632 C1633 1.349 . S
C1632 C1637 1.367 . S
C1632 O1679 1.408 . S
C1633 C1632 1.349 . S
C1633 C1634 1.407 . S
C1633 H1696 0.909 1_545 S
C1634 C1633 1.407 . S
C1634 C1635 1.449 . S
C1634 C1638 1.535 1_545 S
C1635 C1634 1.449 . S
C1635 C1636 1.384 . S
C1635 C1660 1.553 . S
C1636 C1635 1.384 . S
C1636 C1637 1.364 . S
C1636 C1639 1.450 . S
C1637 C1632 1.367 . S
C1637 C1636 1.364 . S
C1637 H1697 0.931 . S
C1638 C1634 1.535 1_565 S
C1638 H1698 0.959 . S
C1638 H1699 0.961 . S
C1638 H1700 0.959 . S
C1639 C1636 1.450 . S
C1639 H1701 0.960 . S
C1639 H1702 0.960 . S
C1639 H1703 0.960 . S
C1640 C1641 1.309 1_545 S
C1640 C1645 1.304 . S
C1640 O1678 1.435 . S
C1641 C1640 1.309 1_565 S
C1641 C1642 1.476 . S
C1641 H1705 0.930 . S
C1642 C1641 1.476 . S
C1642 C1643 1.400 1_565 S
C1642 C1646 1.567 . S
C1643 C1642 1.400 1_545 S
C1643 C1644 1.373 . S
C1643 C1665 1.432 . S
C1644 C1643 1.373 . S
C1644 C1645 1.339 . S
C1644 C1647 1.530 . S
C1645 C1640 1.304 . S
C1645 C1644 1.339 . S
C1645 H1706 0.930 . S
C1646 C1642 1.567 . S
C1646 H1707 0.961 . S
C1646 H1708 0.960 . S
C1646 H1709 0.958 . S
C1647 C1644 1.530 . S
C1647 H1710 0.961 . S
C1647 H1711 0.960 . S
C1647 H1712 0.960 . S
C1648 C1649 1.530 . S
C1648 H1714 0.961 . S
C1648 H1715 0.961 . S
C1648 H1716 0.959 . S
C1649 C1648 1.530 . S
C1649 O1677 1.412 . S
C1649 H1713 0.978 1_565 S
C1650 C1651 1.288 . S
C1650 C1655 1.377 1_565 S
C1650 O1677 1.393 . S
C1651 C1650 1.288 . S
C1651 C1652 1.369 . S
C1651 H1717 0.932 . S
C1652 C1651 1.369 . S
C1652 C1653 1.398 . S
C1652 C1656 1.527 . S
C1653 C1652 1.398 . S
C1653 C1654 1.380 1_565 S
C1653 C1667 1.497 1_565 S
C1654 C1653 1.380 1_545 S
C1654 C1655 1.383 . S
C1654 C1657 1.603 . S
C1655 C1650 1.377 1_545 S
C1655 C1654 1.383 . S
C1655 H1718 0.929 . S
C1656 C1652 1.527 . S
C1656 H1719 0.961 . S
C1656 H1720 0.959 . S
C1656 H1721 0.959 . S
C1657 C1654 1.603 . S
C1657 H1722 0.960 . S
C1657 H1723 0.962 . S
C1657 H1724 0.961 . S
C1658 C1625 1.587 . S
C1658 C1659 1.360 . S
C1658 C1671 1.412 . S
C1659 C1658 1.360 . S
C1659 C1660 1.365 . S
C1659 H1725 0.929 . S
C1660 C1635 1.553 . S
C1660 C1659 1.365 . S
C1660 C1661 1.404 . S
C1661 C1660 1.404 . S
C1661 C1662 1.395 . S
C1661 C1672 1.451 . S
C1662 C1661 1.395 . S
C1662 C1663 1.322 . S
C1662 H1726 0.930 . S
C1663 C1662 1.322 . S
C1663 C1664 1.459 . S
C1663 H1727 0.929 . S
C1664 C1663 1.459 . S
C1664 C1665 1.445 . S
C1664 C1673 1.395 . S
C1665 C1643 1.432 . S
C1665 C1664 1.445 . S
C1665 C1666 1.370 . S
C1666 C1665 1.370 . S
C1666 C1667 1.438 . S
C1666 H1728 0.930 . S
C1667 C1653 1.497 1_545 S
C1667 C1666 1.438 . S
C1667 C1668 1.360 . S
C1668 C1667 1.360 . S
C1668 C1669 1.401 . S
C1668 C1673 1.446 . S
C1669 C1668 1.401 . S
C1669 C1670 1.347 . S
C1669 H1729 0.982 . S
C1670 C1669 1.347 . S
C1670 C1671 1.455 . S
C1670 H1730 0.930 . S
C1671 C1658 1.412 . S
C1671 C1670 1.455 . S
C1671 C1672 1.331 . S
C1672 C1661 1.451 . S
C1672 C1671 1.331 . S
C1672 C1673 1.497 . S
C1673 C1664 1.395 . S
C1673 C1668 1.446 . S
C1673 C1672 1.497 . S
C1674 C1675 1.631 . S
C1674 H1731 0.962 . S
C1674 H1732 0.959 . S
C1674 H1733 0.958 . S
C1675 C1674 1.631 . S
C1675 O1678 1.478 . S
C1675 H1704 0.981 1_545 S
O1676 C1621 1.426 . S
O1676 C1622 1.334 . S
O1677 C1649 1.412 . S
O1677 C1650 1.393 . S
O1678 C1640 1.435 . S
O1678 C1675 1.478 . S
O1679 C1631 1.468 . S
O1679 C1632 1.408 . S
H1680 C1621 0.980 1_545 S
H1681 C1620 0.959 . S
H1682 C1620 0.959 . S
H1683 C1620 0.960 . S
H1684 C1623 0.929 . S
H1685 C1627 0.929 . S
H1686 C1628 0.959 . S
H1687 C1628 0.961 . S
H1688 C1628 0.961 . S
H1689 C1629 0.960 . S
H1690 C1629 0.960 . S
H1691 C1629 0.961 . S
H1692 C1631 0.980 . S
H1693 C1630 0.961 . S
H1694 C1630 0.960 . S
H1695 C1630 0.959 . S
H1696 C1633 0.909 1_565 S
H1697 C1637 0.931 . S
H1698 C1638 0.959 . S
H1699 C1638 0.961 . S
H1700 C1638 0.959 . S
H1701 C1639 0.960 . S
H1702 C1639 0.960 . S
H1703 C1639 0.960 . S
H1704 C1675 0.981 1_565 S
H1705 C1641 0.930 . S
H1706 C1645 0.930 . S
H1707 C1646 0.961 . S
H1708 C1646 0.960 . S
H1709 C1646 0.958 . S
H1710 C1647 0.961 . S
H1711 C1647 0.960 . S
H1712 C1647 0.960 . S
H1713 C1649 0.978 1_545 S
H1714 C1648 0.961 . S
H1715 C1648 0.961 . S
H1716 C1648 0.959 . S
H1717 C1651 0.932 . S
H1718 C1655 0.929 . S
H1719 C1656 0.961 . S
H1720 C1656 0.959 . S
H1721 C1656 0.959 . S
H1722 C1657 0.960 . S
H1723 C1657 0.962 . S
H1724 C1657 0.961 . S
H1725 C1659 0.929 . S
H1726 C1662 0.930 . S
H1727 C1663 0.929 . S
H1728 C1666 0.930 . S
H1729 C1669 0.982 . S
H1730 C1670 0.930 . S
H1731 C1674 0.962 . S
H1732 C1674 0.959 . S
H1733 C1674 0.958 . S
C1734 C1735 1.560 . S
C1734 H1795 0.959 . S
C1734 H1796 0.959 . S
C1734 H1797 0.960 . S
C1735 C1734 1.560 . S
C1735 O1790 1.426 . S
C1735 H1794 0.980 1_455 S
C1736 C1737 1.407 1_455 S
C1736 C1741 1.418 . S
C1736 O1790 1.334 . S
C1737 C1736 1.407 1_655 S
C1737 C1738 1.360 . S
C1737 H1798 0.929 . S
C1738 C1737 1.360 . S
C1738 C1739 1.401 . S
C1738 C1742 1.527 . S
C1739 C1738 1.401 . S
C1739 C1740 1.405 1_655 S
C1739 C1772 1.587 . S
C1740 C1739 1.405 1_455 S
C1740 C1741 1.332 . S
C1740 C1743 1.496 . S
C1741 C1736 1.418 . S
C1741 C1740 1.332 . S
C1741 H1799 0.929 . S
C1742 C1738 1.527 . S
C1742 H1800 0.959 . S
C1742 H1801 0.961 . S
C1742 H1802 0.961 . S
C1743 C1740 1.496 . S
C1743 H1803 0.960 . S
C1743 H1804 0.960 . S
C1743 H1805 0.961 . S
C1744 C1745 1.517 . S
C1744 H1807 0.961 . S
C1744 H1808 0.960 . S
C1744 H1809 0.959 . S
C1745 C1744 1.517 . S
C1745 O1793 1.468 . S
C1745 H1806 0.980 . S
C1746 C1747 1.349 . S
C1746 C1751 1.367 . S
C1746 O1793 1.408 . S
C1747 C1746 1.349 . S
C1747 C1748 1.407 . S
C1747 H1810 0.874 1_655 S
C1748 C1747 1.407 . S
C1748 C1749 1.449 . S
C1748 C1752 1.535 1_655 S
C1749 C1748 1.449 . S
C1749 C1750 1.384 . S
C1749 C1774 1.553 . S
C1750 C1749 1.384 . S
C1750 C1751 1.364 . S
C1750 C1753 1.450 . S
C1751 C1746 1.367 . S
C1751 C1750 1.364 . S
C1751 H1811 0.931 . S
C1752 C1748 1.535 1_455 S
C1752 H1812 0.959 . S
C1752 H1813 0.961 . S
C1752 H1814 0.959 . S
C1753 C1750 1.450 . S
C1753 H1815 0.960 . S
C1753 H1816 0.960 . S
C1753 H1817 0.960 . S
C1754 C1755 1.309 1_655 S
C1754 C1759 1.304 . S
C1754 O1792 1.435 . S
C1755 C1754 1.309 1_455 S
C1755 C1756 1.476 . S
C1755 H1819 0.930 . S
C1756 C1755 1.476 . S
C1756 C1757 1.400 1_455 S
C1756 C1760 1.567 . S
C1757 C1756 1.400 1_655 S
C1757 C1758 1.373 . S
C1757 C1779 1.432 . S
C1758 C1757 1.373 . S
C1758 C1759 1.339 . S
C1758 C1761 1.530 . S
C1759 C1754 1.304 . S
C1759 C1758 1.339 . S
C1759 H1820 0.930 . S
C1760 C1756 1.567 . S
C1760 H1821 0.961 . S
C1760 H1822 0.960 . S
C1760 H1823 0.958 . S
C1761 C1758 1.530 . S
C1761 H1824 0.961 . S
C1761 H1825 0.960 . S
C1761 H1826 0.960 . S
C1762 C1763 1.530 . S
C1762 H1828 0.961 . S
C1762 H1829 0.961 . S
C1762 H1830 0.959 . S
C1763 C1762 1.530 . S
C1763 O1791 1.412 . S
C1763 H1827 0.958 1_455 S
C1764 C1765 1.288 . S
C1764 C1769 1.377 1_455 S
C1764 O1791 1.393 . S
C1765 C1764 1.288 . S
C1765 C1766 1.369 . S
C1765 H1831 0.932 . S
C1766 C1765 1.369 . S
C1766 C1767 1.398 . S
C1766 C1770 1.527 . S
C1767 C1766 1.398 . S
C1767 C1768 1.380 1_455 S
C1767 C1781 1.497 1_455 S
C1768 C1767 1.380 1_655 S
C1768 C1769 1.383 . S
C1768 C1771 1.603 . S
C1769 C1764 1.377 1_655 S
C1769 C1768 1.383 . S
C1769 H1832 0.929 . S
C1770 C1766 1.527 . S
C1770 H1833 0.961 . S
C1770 H1834 0.959 . S
C1770 H1835 0.959 . S
C1771 C1768 1.603 . S
C1771 H1836 0.960 . S
C1771 H1837 0.962 . S
C1771 H1838 0.961 . S
C1772 C1739 1.587 . S
C1772 C1773 1.360 . S
C1772 C1785 1.412 . S
C1773 C1772 1.360 . S
C1773 C1774 1.365 . S
C1773 H1839 0.929 . S
C1774 C1749 1.553 . S
C1774 C1773 1.365 . S
C1774 C1775 1.404 . S
C1775 C1774 1.404 . S
C1775 C1776 1.395 . S
C1775 C1786 1.451 . S
C1776 C1775 1.395 . S
C1776 C1777 1.322 . S
C1776 H1840 0.930 . S
C1777 C1776 1.322 . S
C1777 C1778 1.459 . S
C1777 H1841 0.929 . S
C1778 C1777 1.459 . S
C1778 C1779 1.445 . S
C1778 C1787 1.395 . S
C1779 C1757 1.432 . S
C1779 C1778 1.445 . S
C1779 C1780 1.370 . S
C1780 C1779 1.370 . S
C1780 C1781 1.438 . S
C1780 H1842 0.930 . S
C1781 C1767 1.497 1_655 S
C1781 C1780 1.438 . S
C1781 C1782 1.360 . S
C1782 C1781 1.360 . S
C1782 C1783 1.401 . S
C1782 C1787 1.446 . S
C1783 C1782 1.401 . S
C1783 C1784 1.347 . S
C1783 H1843 0.929 . S
C1784 C1783 1.347 . S
C1784 C1785 1.455 . S
C1784 H1844 0.930 . S
C1785 C1772 1.412 . S
C1785 C1784 1.455 . S
C1785 C1786 1.331 . S
C1786 C1775 1.451 . S
C1786 C1785 1.331 . S
C1786 C1787 1.497 . S
C1787 C1778 1.395 . S
C1787 C1782 1.446 . S
C1787 C1786 1.497 . S
C1788 C1789 1.581 1_655 S
C1788 H1845 0.964 . S
C1788 H1846 0.959 . S
C1788 H1847 0.958 . S
C1789 C1788 1.581 1_455 S
C1789 O1792 1.407 1_455 S
C1789 H1818 1.002 . S
O1790 C1735 1.426 . S
O1790 C1736 1.334 . S
O1791 C1763 1.412 . S
O1791 C1764 1.393 . S
O1792 C1754 1.435 . S
O1792 C1789 1.407 1_655 S
O1793 C1745 1.468 . S
O1793 C1746 1.408 . S
H1794 C1735 0.980 1_655 S
H1795 C1734 0.959 . S
H1796 C1734 0.959 . S
H1797 C1734 0.960 . S
H1798 C1737 0.929 . S
H1799 C1741 0.929 . S
H1800 C1742 0.959 . S
H1801 C1742 0.961 . S
H1802 C1742 0.961 . S
H1803 C1743 0.960 . S
H1804 C1743 0.960 . S
H1805 C1743 0.961 . S
H1806 C1745 0.980 . S
H1807 C1744 0.961 . S
H1808 C1744 0.960 . S
H1809 C1744 0.959 . S
H1810 C1747 0.874 1_455 S
H1811 C1751 0.931 . S
H1812 C1752 0.959 . S
H1813 C1752 0.961 . S
H1814 C1752 0.959 . S
H1815 C1753 0.960 . S
H1816 C1753 0.960 . S
H1817 C1753 0.960 . S
H1818 C1789 1.002 . S
H1819 C1755 0.930 . S
H1820 C1759 0.930 . S
H1821 C1760 0.961 . S
H1822 C1760 0.960 . S
H1823 C1760 0.958 . S
H1824 C1761 0.961 . S
H1825 C1761 0.960 . S
H1826 C1761 0.960 . S
H1827 C1763 0.958 1_655 S
H1828 C1762 0.961 . S
H1829 C1762 0.961 . S
H1830 C1762 0.959 . S
H1831 C1765 0.932 . S
H1832 C1769 0.929 . S
H1833 C1770 0.961 . S
H1834 C1770 0.959 . S
H1835 C1770 0.959 . S
H1836 C1771 0.960 . S
H1837 C1771 0.962 . S
H1838 C1771 0.961 . S
H1839 C1773 0.929 . S
H1840 C1776 0.930 . S
H1841 C1777 0.929 . S
H1842 C1780 0.930 . S
H1843 C1783 0.929 . S
H1844 C1784 0.930 . S
H1845 C1788 0.964 . S
H1846 C1788 0.959 . S
H1847 C1788 0.958 . S
C1848 C1849 1.560 . S
C1848 H1909 0.959 . S
C1848 H1910 0.959 . S
C1848 H1911 0.960 . S
C1849 C1848 1.560 . S
C1849 O1904 1.426 . S
C1849 H1908 0.980 . S
C1850 C1851 1.407 . S
C1850 C1855 1.418 . S
C1850 O1904 1.334 . S
C1851 C1850 1.407 . S
C1851 C1852 1.360 . S
C1851 H1912 0.929 . S
C1852 C1851 1.360 . S
C1852 C1853 1.401 . S
C1852 C1856 1.527 . S
C1853 C1852 1.401 . S
C1853 C1854 1.405 . S
C1853 C1886 1.587 . S
C1854 C1853 1.405 . S
C1854 C1855 1.332 . S
C1854 C1857 1.496 . S
C1855 C1850 1.418 . S
C1855 C1854 1.332 . S
C1855 H1913 0.929 . S
C1856 C1852 1.527 . S
C1856 H1914 0.959 . S
C1856 H1915 0.961 . S
C1856 H1916 0.961 . S
C1857 C1854 1.496 . S
C1857 H1917 0.960 . S
C1857 H1918 0.960 . S
C1857 H1919 0.961 . S
C1858 C1859 1.517 . S
C1858 H1921 0.961 . S
C1858 H1922 0.960 . S
C1858 H1923 0.959 . S
C1859 C1858 1.517 . S
C1859 O1907 1.468 . S
C1859 H1920 0.980 . S
C1860 C1861 1.349 . S
C1860 C1865 1.367 . S
C1860 O1907 1.408 . S
C1861 C1860 1.349 . S
C1861 C1862 1.407 . S
C1861 H1924 0.930 . S
C1862 C1861 1.407 . S
C1862 C1863 1.449 . S
C1862 C1866 1.535 . S
C1863 C1862 1.449 . S
C1863 C1864 1.384 . S
C1863 C1888 1.553 . S
C1864 C1863 1.384 . S
C1864 C1865 1.364 . S
C1864 C1867 1.450 . S
C1865 C1860 1.367 . S
C1865 C1864 1.364 . S
C1865 H1925 0.931 . S
C1866 C1862 1.535 . S
C1866 H1926 0.959 . S
C1866 H1927 0.961 . S
C1866 H1928 0.959 . S
C1867 C1864 1.450 . S
C1867 H1929 0.960 . S
C1867 H1930 0.960 . S
C1867 H1931 0.960 . S
C1868 C1869 1.309 . S
C1868 C1873 1.304 . S
C1868 O1906 1.435 . S
C1869 C1868 1.309 . S
C1869 C1870 1.476 . S
C1869 H1933 0.930 . S
C1870 C1869 1.476 . S
C1870 C1871 1.400 . S
C1870 C1874 1.567 . S
C1871 C1870 1.400 . S
C1871 C1872 1.373 . S
C1871 C1893 1.432 . S
C1872 C1871 1.373 . S
C1872 C1873 1.339 . S
C1872 C1875 1.530 . S
C1873 C1868 1.304 . S
C1873 C1872 1.339 . S
C1873 H1934 0.930 . S
C1874 C1870 1.567 . S
C1874 H1935 0.961 . S
C1874 H1936 0.960 . S
C1874 H1937 0.958 . S
C1875 C1872 1.530 . S
C1875 H1938 0.961 . S
C1875 H1939 0.960 . S
C1875 H1940 0.960 . S
C1876 C1877 1.530 . S
C1876 H1942 0.961 . S
C1876 H1943 0.961 . S
C1876 H1944 0.959 . S
C1877 C1876 1.530 . S
C1877 O1905 1.412 . S
C1877 H1941 0.980 . S
C1878 C1879 1.288 . S
C1878 C1883 1.377 . S
C1878 O1905 1.393 . S
C1879 C1878 1.288 . S
C1879 C1880 1.369 . S
C1879 H1945 0.932 . S
C1880 C1879 1.369 . S
C1880 C1881 1.398 . S
C1880 C1884 1.527 . S
C1881 C1880 1.398 . S
C1881 C1882 1.380 . S
C1881 C1895 1.497 . S
C1882 C1881 1.380 . S
C1882 C1883 1.383 . S
C1882 C1885 1.603 . S
C1883 C1878 1.377 . S
C1883 C1882 1.383 . S
C1883 H1946 0.929 . S
C1884 C1880 1.527 . S
C1884 H1947 0.961 . S
C1884 H1948 0.959 . S
C1884 H1949 0.959 . S
C1885 C1882 1.603 . S
C1885 H1950 0.960 . S
C1885 H1951 0.962 . S
C1885 H1952 0.961 . S
C1886 C1853 1.587 . S
C1886 C1887 1.360 . S
C1886 C1899 1.412 . S
C1887 C1886 1.360 . S
C1887 C1888 1.365 . S
C1887 H1953 0.929 . S
C1888 C1863 1.553 . S
C1888 C1887 1.365 . S
C1888 C1889 1.404 . S
C1889 C1888 1.404 . S
C1889 C1890 1.395 . S
C1889 C1900 1.451 . S
C1890 C1889 1.395 . S
C1890 C1891 1.322 . S
C1890 H1954 0.930 . S
C1891 C1890 1.322 . S
C1891 C1892 1.459 . S
C1891 H1955 0.929 . S
C1892 C1891 1.459 . S
C1892 C1893 1.445 . S
C1892 C1901 1.395 . S
C1893 C1871 1.432 . S
C1893 C1892 1.445 . S
C1893 C1894 1.370 . S
C1894 C1893 1.370 . S
C1894 C1895 1.438 . S
C1894 H1956 0.930 . S
C1895 C1881 1.497 . S
C1895 C1894 1.438 . S
C1895 C1896 1.360 . S
C1896 C1895 1.360 . S
C1896 C1897 1.401 . S
C1896 C1901 1.446 . S
C1897 C1896 1.401 . S
C1897 C1898 1.347 . S
C1897 H1957 0.929 . S
C1898 C1897 1.347 . S
C1898 C1899 1.455 . S
C1898 H1958 0.930 . S
C1899 C1886 1.412 . S
C1899 C1898 1.455 . S
C1899 C1900 1.331 . S
C1900 C1889 1.451 . S
C1900 C1899 1.331 . S
C1900 C1901 1.497 . S
C1901 C1892 1.395 . S
C1901 C1896 1.446 . S
C1901 C1900 1.497 . S
C1902 C1903 1.582 . S
C1902 H1959 0.962 . S
C1902 H1960 0.959 . S
C1902 H1961 0.958 . S
C1903 C1902 1.582 . S
C1903 O1906 1.458 . S
C1903 H1932 0.980 . S
O1904 C1849 1.426 . S
O1904 C1850 1.334 . S
O1905 C1877 1.412 . S
O1905 C1878 1.393 . S
O1906 C1868 1.435 . S
O1906 C1903 1.458 . S
O1907 C1859 1.468 . S
O1907 C1860 1.408 . S
H1908 C1849 0.980 . S
H1909 C1848 0.959 . S
H1910 C1848 0.959 . S
H1911 C1848 0.960 . S
H1912 C1851 0.929 . S
H1913 C1855 0.929 . S
H1914 C1856 0.959 . S
H1915 C1856 0.961 . S
H1916 C1856 0.961 . S
H1917 C1857 0.960 . S
H1918 C1857 0.960 . S
H1919 C1857 0.961 . S
H1920 C1859 0.980 . S
H1921 C1858 0.961 . S
H1922 C1858 0.960 . S
H1923 C1858 0.959 . S
H1924 C1861 0.930 . S
H1925 C1865 0.931 . S
H1926 C1866 0.959 . S
H1927 C1866 0.961 . S
H1928 C1866 0.959 . S
H1929 C1867 0.960 . S
H1930 C1867 0.960 . S
H1931 C1867 0.960 . S
H1932 C1903 0.980 . S
H1933 C1869 0.930 . S
H1934 C1873 0.930 . S
H1935 C1874 0.961 . S
H1936 C1874 0.960 . S
H1937 C1874 0.958 . S
H1938 C1875 0.961 . S
H1939 C1875 0.960 . S
H1940 C1875 0.960 . S
H1941 C1877 0.980 . S
H1942 C1876 0.961 . S
H1943 C1876 0.961 . S
H1944 C1876 0.959 . S
H1945 C1879 0.932 . S
H1946 C1883 0.929 . S
H1947 C1884 0.961 . S
H1948 C1884 0.959 . S
H1949 C1884 0.959 . S
H1950 C1885 0.960 . S
H1951 C1885 0.962 . S
H1952 C1885 0.961 . S
H1953 C1887 0.929 . S
H1954 C1890 0.930 . S
H1955 C1891 0.929 . S
H1956 C1894 0.930 . S
H1957 C1897 0.929 . S
H1958 C1898 0.930 . S
H1959 C1902 0.962 . S
H1960 C1902 0.959 . S
H1961 C1902 0.958 . S
C1962 C1963 1.560 . S
C1962 H2023 0.959 . S
C1962 H2024 0.959 . S
C1962 H2025 0.960 . S
C1963 C1962 1.560 . S
C1963 O2018 1.426 . S
C1963 H2022 0.980 . S
C1964 C1965 1.407 . S
C1964 C1969 1.418 . S
C1964 O2018 1.334 . S
C1965 C1964 1.407 . S
C1965 C1966 1.360 . S
C1965 H2026 0.929 . S
C1966 C1965 1.360 . S
C1966 C1967 1.401 . S
C1966 C1970 1.527 . S
C1967 C1966 1.401 . S
C1967 C1968 1.405 . S
C1967 C2000 1.587 . S
C1968 C1967 1.405 . S
C1968 C1969 1.332 . S
C1968 C1971 1.496 . S
C1969 C1964 1.418 . S
C1969 C1968 1.332 . S
C1969 H2027 0.929 . S
C1970 C1966 1.527 . S
C1970 H2028 0.959 . S
C1970 H2029 0.961 . S
C1970 H2030 0.961 . S
C1971 C1968 1.496 . S
C1971 H2031 0.960 . S
C1971 H2032 0.960 . S
C1971 H2033 0.961 . S
C1972 C1973 1.517 . S
C1972 H2035 0.961 . S
C1972 H2036 0.960 . S
C1972 H2037 0.959 . S
C1973 C1972 1.517 . S
C1973 O2021 1.468 . S
C1973 H2034 0.980 . S
C1974 C1975 1.349 . S
C1974 C1979 1.367 . S
C1974 O2021 1.408 . S
C1975 C1974 1.349 . S
C1975 C1976 1.407 . S
C1975 H2038 0.930 . S
C1976 C1975 1.407 . S
C1976 C1977 1.449 . S
C1976 C1980 1.535 . S
C1977 C1976 1.449 . S
C1977 C1978 1.384 . S
C1977 C2002 1.553 . S
C1978 C1977 1.384 . S
C1978 C1979 1.364 . S
C1978 C1981 1.450 . S
C1979 C1974 1.367 . S
C1979 C1978 1.364 . S
C1979 H2039 0.931 . S
C1980 C1976 1.535 . S
C1980 H2040 0.959 . S
C1980 H2041 0.961 . S
C1980 H2042 0.959 . S
C1981 C1978 1.450 . S
C1981 H2043 0.960 . S
C1981 H2044 0.960 . S
C1981 H2045 0.960 . S
C1982 C1983 1.309 . S
C1982 C1987 1.304 . S
C1982 O2020 1.435 . S
C1983 C1982 1.309 . S
C1983 C1984 1.476 . S
C1983 H2047 0.930 . S
C1984 C1983 1.476 . S
C1984 C1985 1.400 . S
C1984 C1988 1.567 . S
C1985 C1984 1.400 . S
C1985 C1986 1.373 . S
C1985 C2007 1.432 . S
C1986 C1985 1.373 . S
C1986 C1987 1.339 . S
C1986 C1989 1.530 . S
C1987 C1982 1.304 . S
C1987 C1986 1.339 . S
C1987 H2048 0.930 . S
C1988 C1984 1.567 . S
C1988 H2049 0.961 . S
C1988 H2050 0.960 . S
C1988 H2051 0.958 . S
C1989 C1986 1.530 . S
C1989 H2052 0.961 . S
C1989 H2053 0.960 . S
C1989 H2054 0.960 . S
C1990 C1991 1.530 . S
C1990 H2056 0.961 . S
C1990 H2057 0.961 . S
C1990 H2058 0.959 . S
C1991 C1990 1.530 . S
C1991 O2019 1.412 . S
C1991 H2055 0.980 . S
C1992 C1993 1.288 . S
C1992 C1997 1.377 . S
C1992 O2019 1.393 . S
C1993 C1992 1.288 . S
C1993 C1994 1.369 . S
C1993 H2059 0.932 . S
C1994 C1993 1.369 . S
C1994 C1995 1.398 . S
C1994 C1998 1.527 . S
C1995 C1994 1.398 . S
C1995 C1996 1.380 . S
C1995 C2009 1.497 . S
C1996 C1995 1.380 . S
C1996 C1997 1.383 . S
C1996 C1999 1.603 . S
C1997 C1992 1.377 . S
C1997 C1996 1.383 . S
C1997 H2060 0.929 . S
C1998 C1994 1.527 . S
C1998 H2061 0.961 . S
C1998 H2062 0.959 . S
C1998 H2063 0.959 . S
C1999 C1996 1.603 . S
C1999 H2064 0.960 . S
C1999 H2065 0.962 . S
C1999 H2066 0.961 . S
C2000 C1967 1.587 . S
C2000 C2001 1.360 . S
C2000 C2013 1.412 . S
C2001 C2000 1.360 . S
C2001 C2002 1.365 . S
C2001 H2067 0.929 . S
C2002 C1977 1.553 . S
C2002 C2001 1.365 . S
C2002 C2003 1.404 . S
C2003 C2002 1.404 . S
C2003 C2004 1.395 . S
C2003 C2014 1.451 . S
C2004 C2003 1.395 . S
C2004 C2005 1.322 . S
C2004 H2068 0.930 . S
C2005 C2004 1.322 . S
C2005 C2006 1.459 . S
C2005 H2069 0.929 . S
C2006 C2005 1.459 . S
C2006 C2007 1.445 . S
C2006 C2015 1.395 . S
C2007 C1985 1.432 . S
C2007 C2006 1.445 . S
C2007 C2008 1.370 . S
C2008 C2007 1.370 . S
C2008 C2009 1.438 . S
C2008 H2070 0.930 . S
C2009 C1995 1.497 . S
C2009 C2008 1.438 . S
C2009 C2010 1.360 . S
C2010 C2009 1.360 . S
C2010 C2011 1.401 . S
C2010 C2015 1.446 . S
C2011 C2010 1.401 . S
C2011 C2012 1.347 . S
C2011 H2071 0.929 . S
C2012 C2011 1.347 . S
C2012 C2013 1.455 . S
C2012 H2072 0.930 . S
C2013 C2000 1.412 . S
C2013 C2012 1.455 . S
C2013 C2014 1.331 . S
C2014 C2003 1.451 . S
C2014 C2013 1.331 . S
C2014 C2015 1.497 . S
C2015 C2006 1.395 . S
C2015 C2010 1.446 . S
C2015 C2014 1.497 . S
C2016 C2017 1.582 . S
C2016 H2073 0.962 . S
C2016 H2074 0.959 . S
C2016 H2075 0.958 . S
C2017 C2016 1.582 . S
C2017 O2020 1.458 . S
C2017 H2046 0.980 . S
O2018 C1963 1.426 . S
O2018 C1964 1.334 . S
O2019 C1991 1.412 . S
O2019 C1992 1.393 . S
O2020 C1982 1.435 . S
O2020 C2017 1.458 . S
O2021 C1973 1.468 . S
O2021 C1974 1.408 . S
H2022 C1963 0.980 . S
H2023 C1962 0.959 . S
H2024 C1962 0.959 . S
H2025 C1962 0.960 . S
H2026 C1965 0.929 . S
H2027 C1969 0.929 . S
H2028 C1970 0.959 . S
H2029 C1970 0.961 . S
H2030 C1970 0.961 . S
H2031 C1971 0.960 . S
H2032 C1971 0.960 . S
H2033 C1971 0.961 . S
H2034 C1973 0.980 . S
H2035 C1972 0.961 . S
H2036 C1972 0.960 . S
H2037 C1972 0.959 . S
H2038 C1975 0.930 . S
H2039 C1979 0.931 . S
H2040 C1980 0.959 . S
H2041 C1980 0.961 . S
H2042 C1980 0.959 . S
H2043 C1981 0.960 . S
H2044 C1981 0.960 . S
H2045 C1981 0.960 . S
H2046 C2017 0.980 . S
H2047 C1983 0.930 . S
H2048 C1987 0.930 . S
H2049 C1988 0.961 . S
H2050 C1988 0.960 . S
H2051 C1988 0.958 . S
H2052 C1989 0.961 . S
H2053 C1989 0.960 . S
H2054 C1989 0.960 . S
H2055 C1991 0.980 . S
H2056 C1990 0.961 . S
H2057 C1990 0.961 . S
H2058 C1990 0.959 . S
H2059 C1993 0.932 . S
H2060 C1997 0.929 . S
H2061 C1998 0.961 . S
H2062 C1998 0.959 . S
H2063 C1998 0.959 . S
H2064 C1999 0.960 . S
H2065 C1999 0.962 . S
H2066 C1999 0.961 . S
H2067 C2001 0.929 . S
H2068 C2004 0.930 . S
H2069 C2005 0.929 . S
H2070 C2008 0.930 . S
H2071 C2011 0.929 . S
H2072 C2012 0.930 . S
H2073 C2016 0.962 . S
H2074 C2016 0.959 . S
H2075 C2016 0.958 . S
C2076 C2077 1.560 . S
C2076 H2137 0.959 . S
C2076 H2138 0.959 . S
C2076 H2139 0.960 . S
C2077 C2076 1.560 . S
C2077 O2132 1.426 . S
C2077 H2136 0.980 . S
C2078 C2079 1.407 . S
C2078 C2083 1.418 . S
C2078 O2132 1.334 . S
C2079 C2078 1.407 . S
C2079 C2080 1.360 . S
C2079 H2140 0.929 . S
C2080 C2079 1.360 . S
C2080 C2081 1.401 . S
C2080 C2084 1.527 . S
C2081 C2080 1.401 . S
C2081 C2082 1.405 . S
C2081 C2114 1.587 . S
C2082 C2081 1.405 . S
C2082 C2083 1.332 . S
C2082 C2085 1.496 . S
C2083 C2078 1.418 . S
C2083 C2082 1.332 . S
C2083 H2141 0.929 . S
C2084 C2080 1.527 . S
C2084 H2142 0.959 . S
C2084 H2143 0.961 . S
C2084 H2144 0.961 . S
C2085 C2082 1.496 . S
C2085 H2145 0.960 . S
C2085 H2146 0.960 . S
C2085 H2147 0.961 . S
C2086 C2087 1.517 . S
C2086 H2149 0.961 . S
C2086 H2150 0.960 . S
C2086 H2151 0.959 . S
C2087 C2086 1.517 . S
C2087 O2135 1.468 . S
C2087 H2148 0.980 . S
C2088 C2089 1.349 . S
C2088 C2093 1.367 . S
C2088 O2135 1.408 . S
C2089 C2088 1.349 . S
C2089 C2090 1.407 . S
C2089 H2152 0.930 . S
C2090 C2089 1.407 . S
C2090 C2091 1.449 . S
C2090 C2094 1.535 . S
C2091 C2090 1.449 . S
C2091 C2092 1.384 . S
C2091 C2116 1.553 . S
C2092 C2091 1.384 . S
C2092 C2093 1.364 . S
C2092 C2095 1.450 . S
C2093 C2088 1.367 . S
C2093 C2092 1.364 . S
C2093 H2153 0.931 . S
C2094 C2090 1.535 . S
C2094 H2154 0.959 . S
C2094 H2155 0.961 . S
C2094 H2156 0.959 . S
C2095 C2092 1.450 . S
C2095 H2157 0.960 . S
C2095 H2158 0.960 . S
C2095 H2159 0.960 . S
C2096 C2097 1.309 . S
C2096 C2101 1.304 . S
C2096 O2134 1.435 . S
C2097 C2096 1.309 . S
C2097 C2098 1.476 . S
C2097 H2161 0.930 . S
C2098 C2097 1.476 . S
C2098 C2099 1.400 . S
C2098 C2102 1.567 . S
C2099 C2098 1.400 . S
C2099 C2100 1.373 . S
C2099 C2121 1.432 . S
C2100 C2099 1.373 . S
C2100 C2101 1.339 . S
C2100 C2103 1.530 . S
C2101 C2096 1.304 . S
C2101 C2100 1.339 . S
C2101 H2162 0.930 . S
C2102 C2098 1.567 . S
C2102 H2163 0.961 . S
C2102 H2164 0.960 . S
C2102 H2165 0.958 . S
C2103 C2100 1.530 . S
C2103 H2166 0.961 . S
C2103 H2167 0.960 . S
C2103 H2168 0.960 . S
C2104 C2105 1.530 . S
C2104 H2170 0.961 . S
C2104 H2171 0.961 . S
C2104 H2172 0.959 . S
C2105 C2104 1.530 . S
C2105 O2133 1.412 . S
C2105 H2169 0.980 . S
C2106 C2107 1.288 . S
C2106 C2111 1.377 . S
C2106 O2133 1.393 . S
C2107 C2106 1.288 . S
C2107 C2108 1.369 . S
C2107 H2173 0.932 . S
C2108 C2107 1.369 . S
C2108 C2109 1.398 . S
C2108 C2112 1.527 . S
C2109 C2108 1.398 . S
C2109 C2110 1.380 . S
C2109 C2123 1.497 . S
C2110 C2109 1.380 . S
C2110 C2111 1.383 . S
C2110 C2113 1.603 . S
C2111 C2106 1.377 . S
C2111 C2110 1.383 . S
C2111 H2174 0.929 . S
C2112 C2108 1.527 . S
C2112 H2175 0.961 . S
C2112 H2176 0.959 . S
C2112 H2177 0.959 . S
C2113 C2110 1.603 . S
C2113 H2178 0.960 . S
C2113 H2179 0.962 . S
C2113 H2180 0.961 . S
C2114 C2081 1.587 . S
C2114 C2115 1.360 . S
C2114 C2127 1.412 . S
C2115 C2114 1.360 . S
C2115 C2116 1.365 . S
C2115 H2181 0.929 . S
C2116 C2091 1.553 . S
C2116 C2115 1.365 . S
C2116 C2117 1.404 . S
C2117 C2116 1.404 . S
C2117 C2118 1.395 . S
C2117 C2128 1.451 . S
C2118 C2117 1.395 . S
C2118 C2119 1.322 . S
C2118 H2182 0.930 . S
C2119 C2118 1.322 . S
C2119 C2120 1.459 . S
C2119 H2183 0.929 . S
C2120 C2119 1.459 . S
C2120 C2121 1.445 . S
C2120 C2129 1.395 . S
C2121 C2099 1.432 . S
C2121 C2120 1.445 . S
C2121 C2122 1.370 . S
C2122 C2121 1.370 . S
C2122 C2123 1.438 . S
C2122 H2184 0.930 . S
C2123 C2109 1.497 . S
C2123 C2122 1.438 . S
C2123 C2124 1.360 . S
C2124 C2123 1.360 . S
C2124 C2125 1.401 . S
C2124 C2129 1.446 . S
C2125 C2124 1.401 . S
C2125 C2126 1.347 . S
C2125 H2185 0.929 . S
C2126 C2125 1.347 . S
C2126 C2127 1.455 . S
C2126 H2186 0.930 . S
C2127 C2114 1.412 . S
C2127 C2126 1.455 . S
C2127 C2128 1.331 . S
C2128 C2117 1.451 . S
C2128 C2127 1.331 . S
C2128 C2129 1.497 . S
C2129 C2120 1.395 . S
C2129 C2124 1.446 . S
C2129 C2128 1.497 . S
C2130 C2131 1.582 . S
C2130 H2187 0.962 . S
C2130 H2188 0.959 . S
C2130 H2189 0.958 . S
C2131 C2130 1.582 . S
C2131 O2134 1.458 . S
C2131 H2160 0.980 . S
O2132 C2077 1.426 . S
O2132 C2078 1.334 . S
O2133 C2105 1.412 . S
O2133 C2106 1.393 . S
O2134 C2096 1.435 . S
O2134 C2131 1.458 . S
O2135 C2087 1.468 . S
O2135 C2088 1.408 . S
H2136 C2077 0.980 . S
H2137 C2076 0.959 . S
H2138 C2076 0.959 . S
H2139 C2076 0.960 . S
H2140 C2079 0.929 . S
H2141 C2083 0.929 . S
H2142 C2084 0.959 . S
H2143 C2084 0.961 . S
H2144 C2084 0.961 . S
H2145 C2085 0.960 . S
H2146 C2085 0.960 . S
H2147 C2085 0.961 . S
H2148 C2087 0.980 . S
H2149 C2086 0.961 . S
H2150 C2086 0.960 . S
H2151 C2086 0.959 . S
H2152 C2089 0.930 . S
H2153 C2093 0.931 . S
H2154 C2094 0.959 . S
H2155 C2094 0.961 . S
H2156 C2094 0.959 . S
H2157 C2095 0.960 . S
H2158 C2095 0.960 . S
H2159 C2095 0.960 . S
H2160 C2131 0.980 . S
H2161 C2097 0.930 . S
H2162 C2101 0.930 . S
H2163 C2102 0.961 . S
H2164 C2102 0.960 . S
H2165 C2102 0.958 . S
H2166 C2103 0.961 . S
H2167 C2103 0.960 . S
H2168 C2103 0.960 . S
H2169 C2105 0.980 . S
H2170 C2104 0.961 . S
H2171 C2104 0.961 . S
H2172 C2104 0.959 . S
H2173 C2107 0.932 . S
H2174 C2111 0.929 . S
H2175 C2112 0.961 . S
H2176 C2112 0.959 . S
H2177 C2112 0.959 . S
H2178 C2113 0.960 . S
H2179 C2113 0.962 . S
H2180 C2113 0.961 . S
H2181 C2115 0.929 . S
H2182 C2118 0.930 . S
H2183 C2119 0.929 . S
H2184 C2122 0.930 . S
H2185 C2125 0.929 . S
H2186 C2126 0.930 . S
H2187 C2130 0.962 . S
H2188 C2130 0.959 . S
H2189 C2130 0.958 . S
C2190 C2191 1.560 . S
C2190 H2251 0.959 . S
C2190 H2252 0.959 . S
C2190 H2253 0.960 . S
C2191 C2190 1.560 . S
C2191 O2246 1.426 . S
C2191 H2250 0.980 . S
C2192 C2193 1.407 . S
C2192 C2197 1.418 . S
C2192 O2246 1.334 . S
C2193 C2192 1.407 . S
C2193 C2194 1.360 . S
C2193 H2254 0.929 . S
C2194 C2193 1.360 . S
C2194 C2195 1.401 . S
C2194 C2198 1.527 . S
C2195 C2194 1.401 . S
C2195 C2196 1.405 . S
C2195 C2228 1.587 . S
C2196 C2195 1.405 . S
C2196 C2197 1.332 . S
C2196 C2199 1.496 . S
C2197 C2192 1.418 . S
C2197 C2196 1.332 . S
C2197 H2255 0.929 . S
C2198 C2194 1.527 . S
C2198 H2256 0.959 . S
C2198 H2257 0.961 . S
C2198 H2258 0.961 . S
C2199 C2196 1.496 . S
C2199 H2259 0.960 . S
C2199 H2260 0.960 . S
C2199 H2261 0.961 . S
C2200 C2201 1.517 . S
C2200 H2263 0.961 . S
C2200 H2264 0.960 . S
C2200 H2265 0.959 . S
C2201 C2200 1.517 . S
C2201 O2249 1.468 . S
C2201 H2262 0.980 . S
C2202 C2203 1.349 . S
C2202 C2207 1.367 . S
C2202 O2249 1.408 . S
C2203 C2202 1.349 . S
C2203 C2204 1.407 . S
C2203 H2266 0.930 . S
C2204 C2203 1.407 . S
C2204 C2205 1.449 . S
C2204 C2208 1.535 . S
C2205 C2204 1.449 . S
C2205 C2206 1.384 . S
C2205 C2230 1.553 . S
C2206 C2205 1.384 . S
C2206 C2207 1.364 . S
C2206 C2209 1.450 . S
C2207 C2202 1.367 . S
C2207 C2206 1.364 . S
C2207 H2267 0.931 . S
C2208 C2204 1.535 . S
C2208 H2268 0.959 . S
C2208 H2269 0.961 . S
C2208 H2270 0.959 . S
C2209 C2206 1.450 . S
C2209 H2271 0.960 . S
C2209 H2272 0.960 . S
C2209 H2273 0.960 . S
C2210 C2211 1.309 . S
C2210 C2215 1.304 . S
C2210 O2248 1.435 . S
C2211 C2210 1.309 . S
C2211 C2212 1.476 . S
C2211 H2275 0.930 . S
C2212 C2211 1.476 . S
C2212 C2213 1.400 . S
C2212 C2216 1.567 . S
C2213 C2212 1.400 . S
C2213 C2214 1.373 . S
C2213 C2235 1.432 . S
C2214 C2213 1.373 . S
C2214 C2215 1.339 . S
C2214 C2217 1.530 . S
C2215 C2210 1.304 . S
C2215 C2214 1.339 . S
C2215 H2276 0.930 . S
C2216 C2212 1.567 . S
C2216 H2277 0.961 . S
C2216 H2278 0.960 . S
C2216 H2279 0.958 . S
C2217 C2214 1.530 . S
C2217 H2280 0.961 . S
C2217 H2281 0.960 . S
C2217 H2282 0.960 . S
C2218 C2219 1.530 . S
C2218 H2284 0.961 . S
C2218 H2285 0.961 . S
C2218 H2286 0.959 . S
C2219 C2218 1.530 . S
C2219 O2247 1.412 . S
C2219 H2283 0.980 . S
C2220 C2221 1.288 . S
C2220 C2225 1.377 . S
C2220 O2247 1.393 . S
C2221 C2220 1.288 . S
C2221 C2222 1.369 . S
C2221 H2287 0.932 . S
C2222 C2221 1.369 . S
C2222 C2223 1.398 . S
C2222 C2226 1.527 . S
C2223 C2222 1.398 . S
C2223 C2224 1.380 . S
C2223 C2237 1.497 . S
C2224 C2223 1.380 . S
C2224 C2225 1.383 . S
C2224 C2227 1.603 . S
C2225 C2220 1.377 . S
C2225 C2224 1.383 . S
C2225 H2288 0.929 . S
C2226 C2222 1.527 . S
C2226 H2289 0.961 . S
C2226 H2290 0.959 . S
C2226 H2291 0.959 . S
C2227 C2224 1.603 . S
C2227 H2292 0.960 . S
C2227 H2293 0.962 . S
C2227 H2294 0.961 . S
C2228 C2195 1.587 . S
C2228 C2229 1.360 . S
C2228 C2241 1.412 . S
C2229 C2228 1.360 . S
C2229 C2230 1.365 . S
C2229 H2295 0.929 . S
C2230 C2205 1.553 . S
C2230 C2229 1.365 . S
C2230 C2231 1.404 . S
C2231 C2230 1.404 . S
C2231 C2232 1.395 . S
C2231 C2242 1.451 . S
C2232 C2231 1.395 . S
C2232 C2233 1.322 . S
C2232 H2296 0.930 . S
C2233 C2232 1.322 . S
C2233 C2234 1.459 . S
C2233 H2297 0.929 . S
C2234 C2233 1.459 . S
C2234 C2235 1.445 . S
C2234 C2243 1.395 . S
C2235 C2213 1.432 . S
C2235 C2234 1.445 . S
C2235 C2236 1.370 . S
C2236 C2235 1.370 . S
C2236 C2237 1.438 . S
C2236 H2298 0.930 . S
C2237 C2223 1.497 . S
C2237 C2236 1.438 . S
C2237 C2238 1.360 . S
C2238 C2237 1.360 . S
C2238 C2239 1.401 . S
C2238 C2243 1.446 . S
C2239 C2238 1.401 . S
C2239 C2240 1.347 . S
C2239 H2299 0.929 . S
C2240 C2239 1.347 . S
C2240 C2241 1.455 . S
C2240 H2300 0.930 . S
C2241 C2228 1.412 . S
C2241 C2240 1.455 . S
C2241 C2242 1.331 . S
C2242 C2231 1.451 . S
C2242 C2241 1.331 . S
C2242 C2243 1.497 . S
C2243 C2234 1.395 . S
C2243 C2238 1.446 . S
C2243 C2242 1.497 . S
C2244 C2245 1.582 . S
C2244 H2301 0.962 . S
C2244 H2302 0.959 . S
C2244 H2303 0.958 . S
C2245 C2244 1.582 . S
C2245 O2248 1.458 . S
C2245 H2274 0.980 . S
O2246 C2191 1.426 . S
O2246 C2192 1.334 . S
O2247 C2219 1.412 . S
O2247 C2220 1.393 . S
O2248 C2210 1.435 . S
O2248 C2245 1.458 . S
O2249 C2201 1.468 . S
O2249 C2202 1.408 . S
H2250 C2191 0.980 . S
H2251 C2190 0.959 . S
H2252 C2190 0.959 . S
H2253 C2190 0.960 . S
H2254 C2193 0.929 . S
H2255 C2197 0.929 . S
H2256 C2198 0.959 . S
H2257 C2198 0.961 . S
H2258 C2198 0.961 . S
H2259 C2199 0.960 . S
H2260 C2199 0.960 . S
H2261 C2199 0.961 . S
H2262 C2201 0.980 . S
H2263 C2200 0.961 . S
H2264 C2200 0.960 . S
H2265 C2200 0.959 . S
H2266 C2203 0.930 . S
H2267 C2207 0.931 . S
H2268 C2208 0.959 . S
H2269 C2208 0.961 . S
H2270 C2208 0.959 . S
H2271 C2209 0.960 . S
H2272 C2209 0.960 . S
H2273 C2209 0.960 . S
H2274 C2245 0.980 . S
H2275 C2211 0.930 . S
H2276 C2215 0.930 . S
H2277 C2216 0.961 . S
H2278 C2216 0.960 . S
H2279 C2216 0.958 . S
H2280 C2217 0.961 . S
H2281 C2217 0.960 . S
H2282 C2217 0.960 . S
H2283 C2219 0.980 . S
H2284 C2218 0.961 . S
H2285 C2218 0.961 . S
H2286 C2218 0.959 . S
H2287 C2221 0.932 . S
H2288 C2225 0.929 . S
H2289 C2226 0.961 . S
H2290 C2226 0.959 . S
H2291 C2226 0.959 . S
H2292 C2227 0.960 . S
H2293 C2227 0.962 . S
H2294 C2227 0.961 . S
H2295 C2229 0.929 . S
H2296 C2232 0.930 . S
H2297 C2233 0.929 . S
H2298 C2236 0.930 . S
H2299 C2239 0.929 . S
H2300 C2240 0.930 . S
H2301 C2244 0.962 . S
H2302 C2244 0.959 . S
H2303 C2244 0.958 . S
C2304 C2305 1.339 . S
C2304 C2306 1.327 . S
C2304 H2329 0.950 . S
C2305 C2304 1.339 . S
C2305 C2321 1.354 1_655 S
C2306 C2304 1.327 . S
C2306 C2325 1.429 . S
C2306 H2330 0.950 . S
C2307 C2324 1.574 . S
C2307 C2326 1.368 1_455 S
C2307 H2331 0.949 . S
H2308 C2312 0.949 . S
C2309 C2310 1.349 1_455 S
C2309 C2311 1.327 . S
C2309 H2332 0.950 . S
C2310 C2309 1.349 1_655 S
C2310 C2322 1.349 . S
C2311 C2309 1.327 . S
C2311 C2327 1.429 1_455 S
C2311 H2333 0.950 . S
C2312 H2308 0.949 . S
C2312 C2320 1.574 . S
C2312 C2328 1.368 . S
H2313 C2321 0.950 . S
H2314 C2319 0.950 . S
H2315 C2320 0.949 . S
H2316 C2322 0.950 . S
H2317 C2323 0.950 . S
H2318 C2324 0.949 . S
C2319 H2314 0.950 . S
C2319 C2321 1.327 . S
C2319 C2325 1.429 1_455 S
C2320 C2312 1.574 . S
C2320 H2315 0.949 . S
C2320 C2326 1.368 . S
C2321 C2305 1.354 1_455 S
C2321 H2313 0.950 . S
C2321 C2319 1.327 . S
C2322 C2310 1.349 . S
C2322 H2316 0.950 . S
C2322 C2323 1.327 . S
C2323 H2317 0.950 . S
C2323 C2322 1.327 . S
C2323 C2327 1.429 . S
C2324 C2307 1.574 . S
C2324 H2318 0.949 . S
C2324 C2328 1.368 1_455 S
C2325 C2306 1.429 . S
C2325 C2319 1.429 1_655 S
C2325 C2326 1.523 . S
C2326 C2307 1.368 1_655 S
C2326 C2320 1.368 . S
C2326 C2325 1.523 . S
C2327 C2311 1.429 1_655 S
C2327 C2323 1.429 . S
C2327 C2328 1.523 . S
C2328 C2312 1.368 . S
C2328 C2324 1.368 1_655 S
C2328 C2327 1.523 . S
H2329 C2304 0.950 . S
H2330 C2306 0.950 . S
H2331 C2307 0.949 . S
H2332 C2309 0.950 . S
H2333 C2311 0.950 . S
C2334 C2335 1.349 . S
C2334 C2336 1.327 . S
C2334 H2359 0.950 . S
C2335 C2334 1.349 . S
C2335 C2351 1.349 . S
C2336 C2334 1.327 . S
C2336 C2355 1.429 . S
C2336 H2360 0.950 . S
C2337 C2354 1.574 . S
C2337 C2356 1.368 . S
C2337 H2361 0.949 . S
H2338 C2342 0.949 . S
C2339 C2340 1.349 . S
C2339 C2341 1.327 . S
C2339 H2362 0.950 . S
C2340 C2339 1.349 . S
C2340 C2352 1.349 . S
C2341 C2339 1.327 . S
C2341 C2357 1.429 . S
C2341 H2363 0.950 . S
C2342 H2338 0.949 . S
C2342 C2350 1.574 . S
C2342 C2358 1.368 . S
H2343 C2351 0.950 . S
H2344 C2349 0.950 . S
H2345 C2350 0.949 . S
H2346 C2352 0.950 . S
H2347 C2353 0.950 . S
H2348 C2354 0.949 . S
C2349 H2344 0.950 . S
C2349 C2351 1.327 . S
C2349 C2355 1.429 . S
C2350 C2342 1.574 . S
C2350 H2345 0.949 . S
C2350 C2356 1.368 . S
C2351 C2335 1.349 . S
C2351 H2343 0.950 . S
C2351 C2349 1.327 . S
C2352 C2340 1.349 . S
C2352 H2346 0.950 . S
C2352 C2353 1.327 . S
C2353 H2347 0.950 . S
C2353 C2352 1.327 . S
C2353 C2357 1.429 . S
C2354 C2337 1.574 . S
C2354 H2348 0.949 . S
C2354 C2358 1.368 . S
C2355 C2336 1.429 . S
C2355 C2349 1.429 . S
C2355 C2356 1.523 . S
C2356 C2337 1.368 . S
C2356 C2350 1.368 . S
C2356 C2355 1.523 . S
C2357 C2341 1.429 . S
C2357 C2353 1.429 . S
C2357 C2358 1.523 . S
C2358 C2342 1.368 . S
C2358 C2354 1.368 . S
C2358 C2357 1.523 . S
H2359 C2334 0.950 . S
H2360 C2336 0.950 . S
H2361 C2337 0.949 . S
H2362 C2339 0.950 . S
H2363 C2341 0.950 . S
C2364 C2365 1.389 . S
C2364 C2366 1.302 1_545 S
C2364 H2389 0.929 1_545 S
C2365 C2364 1.389 . S
C2365 C2381 1.349 . S
C2366 C2364 1.302 1_565 S
C2366 C2385 1.420 1_565 S
C2366 H2390 0.966 . S
C2367 C2384 1.574 . S
C2367 C2386 1.368 . S
C2367 H2391 0.949 . S
H2368 C2372 0.949 . S
C2369 C2370 1.349 . S
C2369 C2371 1.327 . S
C2369 H2392 0.950 . S
C2370 C2369 1.349 . S
C2370 C2382 1.349 1_545 S
C2371 C2369 1.327 . S
C2371 C2387 1.429 . S
C2371 H2393 0.950 . S
C2372 H2368 0.949 . S
C2372 C2380 1.574 . S
C2372 C2388 1.368 1_565 S
H2373 C2381 0.950 . S
H2374 C2379 0.950 . S
H2375 C2380 0.949 . S
H2376 C2382 0.950 . S
H2377 C2383 0.950 . S
H2378 C2384 0.949 . S
C2379 H2374 0.950 . S
C2379 C2381 1.327 . S
C2379 C2385 1.429 . S
C2380 C2372 1.574 . S
C2380 H2375 0.949 . S
C2380 C2386 1.368 1_565 S
C2381 C2365 1.349 . S
C2381 H2373 0.950 . S
C2381 C2379 1.327 . S
C2382 C2370 1.349 1_565 S
C2382 H2376 0.950 . S
C2382 C2383 1.327 . S
C2383 H2377 0.950 . S
C2383 C2382 1.327 . S
C2383 C2387 1.429 1_565 S
C2384 C2367 1.574 . S
C2384 H2378 0.949 . S
C2384 C2388 1.368 . S
C2385 C2366 1.420 1_545 S
C2385 C2379 1.429 . S
C2385 C2386 1.523 . S
C2386 C2367 1.368 . S
C2386 C2380 1.368 1_545 S
C2386 C2385 1.523 . S
C2387 C2371 1.429 . S
C2387 C2383 1.429 1_545 S
C2387 C2388 1.523 . S
C2388 C2372 1.368 1_545 S
C2388 C2384 1.368 . S
C2388 C2387 1.523 . S
H2389 C2364 0.929 1_565 S
H2390 C2366 0.966 . S
H2391 C2367 0.949 . S
H2392 C2369 0.950 . S
H2393 C2371 0.950 . S
C2394 C2395 1.349 . S
C2394 C2396 1.327 . S
C2394 H2419 0.950 . S
C2395 C2394 1.349 . S
C2395 C2411 1.349 . S
C2396 C2394 1.327 . S
C2396 C2415 1.429 . S
C2396 H2420 0.950 . S
C2397 C2414 1.574 . S
C2397 C2416 1.368 1_545 S
C2397 H2421 0.949 . S
H2398 C2402 0.949 . S
C2399 C2400 1.349 1_545 S
C2399 C2401 1.327 . S
C2399 H2422 0.950 . S
C2400 C2399 1.349 1_565 S
C2400 C2412 1.349 . S
C2401 C2399 1.327 . S
C2401 C2417 1.429 1_545 S
C2401 H2423 0.950 . S
C2402 H2398 0.949 . S
C2402 C2410 1.574 . S
C2402 C2418 1.368 . S
H2403 C2411 0.950 1_545 S
H2404 C2409 0.949 1_545 S
H2405 C2410 0.949 . S
H2406 C2412 0.950 . S
H2407 C2413 0.950 . S
H2408 C2414 0.949 . S
C2409 H2404 0.949 1_565 S
C2409 C2411 1.326 . S
C2409 C2415 1.431 . S
C2410 C2402 1.574 . S
C2410 H2405 0.949 . S
C2410 C2416 1.368 . S
C2411 C2395 1.349 . S
C2411 H2403 0.950 1_565 S
C2411 C2409 1.326 . S
C2412 C2400 1.349 . S
C2412 H2406 0.950 . S
C2412 C2413 1.327 . S
C2413 H2407 0.950 . S
C2413 C2412 1.327 . S
C2413 C2417 1.429 . S
C2414 C2397 1.574 . S
C2414 H2408 0.949 . S
C2414 C2418 1.368 1_545 S
C2415 C2396 1.429 . S
C2415 C2409 1.431 . S
C2415 C2416 1.523 . S
C2416 C2397 1.368 1_565 S
C2416 C2410 1.368 . S
C2416 C2415 1.523 . S
C2417 C2401 1.429 1_565 S
C2417 C2413 1.429 . S
C2417 C2418 1.523 . S
C2418 C2402 1.368 . S
C2418 C2414 1.368 1_565 S
C2418 C2417 1.523 . S
H2419 C2394 0.950 . S
H2420 C2396 0.950 . S
H2421 C2397 0.949 . S
H2422 C2399 0.950 . S
H2423 C2401 0.950 . S
C2424 C2425 1.349 . S
C2424 C2426 1.327 . S
C2424 H2449 0.950 . S
C2425 C2424 1.349 . S
C2425 C2441 1.349 . S
C2426 C2424 1.327 . S
C2426 C2445 1.429 . S
C2426 H2450 0.950 . S
C2427 C2444 1.574 . S
C2427 C2446 1.368 . S
C2427 H2451 0.949 . S
H2428 C2432 0.949 . S
C2429 C2430 1.349 . S
C2429 C2431 1.327 . S
C2429 H2452 0.950 . S
C2430 C2429 1.349 . S
C2430 C2442 1.349 . S
C2431 C2429 1.327 . S
C2431 C2447 1.429 . S
C2431 H2453 0.950 . S
C2432 H2428 0.949 . S
C2432 C2440 1.574 . S
C2432 C2448 1.368 . S
H2433 C2441 0.950 . S
H2434 C2439 0.950 . S
H2435 C2440 0.949 . S
H2436 C2442 0.950 . S
H2437 C2443 0.950 . S
H2438 C2444 0.949 . S
C2439 H2434 0.950 . S
C2439 C2441 1.327 . S
C2439 C2445 1.429 . S
C2440 C2432 1.574 . S
C2440 H2435 0.949 . S
C2440 C2446 1.368 . S
C2441 C2425 1.349 . S
C2441 H2433 0.950 . S
C2441 C2439 1.327 . S
C2442 C2430 1.349 . S
C2442 H2436 0.950 . S
C2442 C2443 1.327 . S
C2443 H2437 0.950 . S
C2443 C2442 1.327 . S
C2443 C2447 1.429 . S
C2444 C2427 1.574 . S
C2444 H2438 0.949 . S
C2444 C2448 1.368 . S
C2445 C2426 1.429 . S
C2445 C2439 1.429 . S
C2445 C2446 1.523 . S
C2446 C2427 1.368 . S
C2446 C2440 1.368 . S
C2446 C2445 1.523 . S
C2447 C2431 1.429 . S
C2447 C2443 1.429 . S
C2447 C2448 1.523 . S
C2448 C2432 1.368 . S
C2448 C2444 1.368 . S
C2448 C2447 1.523 . S
H2449 C2424 0.950 . S
H2450 C2426 0.950 . S
H2451 C2427 0.949 . S
H2452 C2429 0.950 . S
H2453 C2431 0.950 . S
C2454 C2455 1.349 . S
C2454 C2456 1.327 . S
C2454 H2479 0.950 . S
C2455 C2454 1.349 . S
C2455 C2471 1.349 . S
C2456 C2454 1.327 . S
C2456 C2475 1.429 . S
C2456 H2480 0.950 . S
C2457 C2474 1.574 . S
C2457 C2476 1.368 . S
C2457 H2481 0.949 . S
H2458 C2462 0.949 . S
C2459 C2460 1.349 . S
C2459 C2461 1.327 . S
C2459 H2482 0.950 . S
C2460 C2459 1.349 . S
C2460 C2472 1.349 . S
C2461 C2459 1.327 . S
C2461 C2477 1.429 . S
C2461 H2483 0.950 . S
C2462 H2458 0.949 . S
C2462 C2470 1.574 . S
C2462 C2478 1.368 . S
H2463 C2471 0.950 1_554 S
H2464 C2469 0.950 . S
H2465 C2470 0.949 . S
H2466 C2472 0.950 . S
H2467 C2473 0.950 . S
H2468 C2474 0.949 . S
C2469 H2464 0.950 . S
C2469 C2471 1.327 . S
C2469 C2475 1.429 . S
C2470 C2462 1.574 . S
C2470 H2465 0.949 . S
C2470 C2476 1.368 . S
C2471 C2455 1.349 . S
C2471 H2463 0.950 1_556 S
C2471 C2469 1.327 . S
C2472 C2460 1.349 . S
C2472 H2466 0.950 . S
C2472 C2473 1.327 . S
C2473 H2467 0.950 . S
C2473 C2472 1.327 . S
C2473 C2477 1.429 . S
C2474 C2457 1.574 . S
C2474 H2468 0.949 . S
C2474 C2478 1.368 . S
C2475 C2456 1.429 . S
C2475 C2469 1.429 . S
C2475 C2476 1.523 . S
C2476 C2457 1.368 . S
C2476 C2470 1.368 . S
C2476 C2475 1.523 . S
C2477 C2461 1.429 . S
C2477 C2473 1.429 . S
C2477 C2478 1.523 . S
C2478 C2462 1.368 . S
C2478 C2474 1.368 . S
C2478 C2477 1.523 . S
H2479 C2454 0.950 . S
H2480 C2456 0.950 . S
H2481 C2457 0.949 . S
H2482 C2459 0.950 . S
H2483 C2461 0.950 . S
C2484 C2485 1.349 . S
C2484 C2486 1.327 . S
C2484 H2509 0.950 . S
C2485 C2484 1.349 . S
C2485 C2501 1.349 . S
C2486 C2484 1.327 . S
C2486 C2505 1.429 . S
C2486 H2510 0.950 . S
C2487 C2504 1.574 . S
C2487 C2506 1.368 . S
C2487 H2511 0.949 . S
H2488 C2492 0.949 . S
C2489 C2490 1.347 . S
C2489 C2491 1.300 . S
C2489 H2512 0.979 . S
C2490 C2489 1.347 . S
C2490 C2502 1.322 . S
C2491 C2489 1.300 . S
C2491 C2507 1.429 . S
C2491 H2513 0.950 . S
C2492 H2488 0.949 . S
C2492 C2500 1.574 . S
C2492 C2508 1.368 . S
H2493 C2501 0.950 1_554 S
H2494 C2499 0.950 . S
H2495 C2500 0.949 . S
H2496 C2502 0.950 . S
H2497 C2503 0.950 . S
H2498 C2504 0.949 . S
C2499 H2494 0.950 . S
C2499 C2501 1.327 . S
C2499 C2505 1.429 . S
C2500 C2492 1.574 . S
C2500 H2495 0.949 . S
C2500 C2506 1.368 . S
C2501 C2485 1.349 . S
C2501 H2493 0.950 1_556 S
C2501 C2499 1.327 . S
C2502 C2490 1.322 . S
C2502 H2496 0.950 . S
C2502 C2503 1.327 . S
C2503 H2497 0.950 . S
C2503 C2502 1.327 . S
C2503 C2507 1.429 . S
C2504 C2487 1.574 . S
C2504 H2498 0.949 . S
C2504 C2508 1.368 . S
C2505 C2486 1.429 . S
C2505 C2499 1.429 . S
C2505 C2506 1.523 . S
C2506 C2487 1.368 . S
C2506 C2500 1.368 . S
C2506 C2505 1.523 . S
C2507 C2491 1.429 . S
C2507 C2503 1.429 . S
C2507 C2508 1.523 . S
C2508 C2492 1.368 . S
C2508 C2504 1.368 . S
C2508 C2507 1.523 . S
H2509 C2484 0.950 . S
H2510 C2486 0.950 . S
H2511 C2487 0.949 . S
H2512 C2489 0.979 . S
H2513 C2491 0.950 . S
C2514 C2515 1.349 . S
C2514 C2516 1.327 . S
C2514 H2539 0.950 . S
C2515 C2514 1.349 . S
C2515 C2531 1.349 . S
C2516 C2514 1.327 . S
C2516 C2535 1.429 . S
C2516 H2540 0.950 . S
C2517 C2534 1.574 . S
C2517 C2536 1.368 . S
C2517 H2541 0.949 . S
H2518 C2522 0.949 . S
C2519 C2520 1.349 . S
C2519 C2521 1.327 . S
C2519 H2542 0.950 . S
C2520 C2519 1.349 . S
C2520 C2532 1.349 . S
C2521 C2519 1.327 . S
C2521 C2537 1.429 . S
C2521 H2543 0.950 . S
C2522 H2518 0.949 . S
C2522 C2530 1.574 . S
C2522 C2538 1.368 . S
H2523 C2531 0.950 . S
H2524 C2529 0.950 . S
H2525 C2530 0.949 . S
H2526 C2532 0.950 . S
H2527 C2533 0.950 . S
H2528 C2534 0.949 . S
C2529 H2524 0.950 . S
C2529 C2531 1.327 . S
C2529 C2535 1.429 . S
C2530 C2522 1.574 . S
C2530 H2525 0.949 . S
C2530 C2536 1.368 . S
C2531 C2515 1.349 . S
C2531 H2523 0.950 . S
C2531 C2529 1.327 . S
C2532 C2520 1.349 . S
C2532 H2526 0.950 . S
C2532 C2533 1.327 . S
C2533 H2527 0.950 . S
C2533 C2532 1.327 . S
C2533 C2537 1.429 . S
C2534 C2517 1.574 . S
C2534 H2528 0.949 . S
C2534 C2538 1.368 . S
C2535 C2516 1.429 . S
C2535 C2529 1.429 . S
C2535 C2536 1.523 . S
C2536 C2517 1.368 . S
C2536 C2530 1.368 . S
C2536 C2535 1.523 . S
C2537 C2521 1.429 . S
C2537 C2533 1.429 . S
C2537 C2538 1.523 . S
C2538 C2522 1.368 . S
C2538 C2534 1.368 . S
C2538 C2537 1.523 . S
H2539 C2514 0.950 . S
H2540 C2516 0.950 . S
H2541 C2517 0.949 . S
H2542 C2519 0.950 . S
H2543 C2521 0.950 . S
C2544 C2545 1.349 1_545 S
C2544 C2546 1.327 . S
C2544 H2569 0.950 . S
C2545 C2544 1.349 1_565 S
C2545 C2561 1.349 . S
C2546 C2544 1.327 . S
C2546 C2565 1.429 1_545 S
C2546 H2570 0.950 . S
C2547 C2564 1.574 . S
C2547 C2566 1.368 . S
C2547 H2571 0.949 . S
H2548 C2552 0.949 . S
C2549 C2550 1.377 . S
C2549 C2551 1.327 . S
C2549 H2572 0.950 . S
C2550 C2549 1.377 . S
C2550 C2562 1.340 1_565 S
C2551 C2549 1.327 . S
C2551 C2567 1.429 . S
C2551 H2573 0.950 . S
C2552 H2548 0.949 . S
C2552 C2560 1.574 . S
C2552 C2568 1.368 1_545 S
H2553 C2561 0.950 . S
H2554 C2559 0.950 . S
H2555 C2560 0.949 . S
H2556 C2562 0.950 . S
H2557 C2563 0.950 . S
H2558 C2564 0.949 . S
C2559 H2554 0.950 . S
C2559 C2561 1.327 . S
C2559 C2565 1.429 . S
C2560 C2552 1.574 . S
C2560 H2555 0.949 . S
C2560 C2566 1.368 1_545 S
C2561 C2545 1.349 . S
C2561 H2553 0.950 . S
C2561 C2559 1.327 . S
C2562 C2550 1.340 1_545 S
C2562 H2556 0.950 . S
C2562 C2563 1.327 . S
C2563 H2557 0.950 . S
C2563 C2562 1.327 . S
C2563 C2567 1.429 1_545 S
C2564 C2547 1.574 . S
C2564 H2558 0.949 . S
C2564 C2568 1.368 . S
C2565 C2546 1.429 1_565 S
C2565 C2559 1.429 . S
C2565 C2566 1.523 . S
C2566 C2547 1.368 . S
C2566 C2560 1.368 1_565 S
C2566 C2565 1.523 . S
C2567 C2551 1.429 . S
C2567 C2563 1.429 1_565 S
C2567 C2568 1.523 . S
C2568 C2552 1.368 1_565 S
C2568 C2564 1.368 . S
C2568 C2567 1.523 . S
H2569 C2544 0.950 . S
H2570 C2546 0.950 . S
H2571 C2547 0.949 . S
H2572 C2549 0.950 . S
H2573 C2551 0.950 . S
C2574 C2575 1.349 . S
C2574 C2576 1.327 . S
C2574 H2599 0.950 . S
C2575 C2574 1.349 . S
C2575 C2591 1.349 . S
C2576 C2574 1.327 . S
C2576 C2595 1.429 . S
C2576 H2600 0.950 . S
C2577 C2594 1.600 1_545 S
C2577 C2596 1.368 . S
C2577 H2601 0.949 1_545 S
H2578 C2582 0.949 . S
C2579 C2580 1.349 1_565 S
C2579 C2581 1.327 . S
C2579 H2602 0.950 . S
C2580 C2579 1.349 1_545 S
C2580 C2592 1.349 . S
C2581 C2579 1.327 . S
C2581 C2597 1.429 1_565 S
C2581 H2603 0.950 . S
C2582 H2578 0.949 . S
C2582 C2590 1.574 . S
C2582 C2598 1.368 . S
H2583 C2591 0.950 . S
H2584 C2589 0.950 1_565 S
H2585 C2590 0.949 . S
H2586 C2592 0.950 . S
H2587 C2593 0.950 . S
H2588 C2594 1.005 . S
C2589 H2584 0.950 1_545 S
C2589 C2591 1.327 . S
C2589 C2595 1.429 . S
C2590 C2582 1.574 . S
C2590 H2585 0.949 . S
C2590 C2596 1.368 . S
C2591 C2575 1.349 . S
C2591 H2583 0.950 . S
C2591 C2589 1.327 . S
C2592 C2580 1.349 . S
C2592 H2586 0.950 . S
C2592 C2593 1.327 . S
C2593 H2587 0.950 . S
C2593 C2592 1.327 . S
C2593 C2597 1.429 . S
C2594 C2577 1.600 1_565 S
C2594 H2588 1.005 . S
C2594 C2598 1.287 1_565 S
C2595 C2576 1.429 . S
C2595 C2589 1.429 . S
C2595 C2596 1.523 . S
C2596 C2577 1.368 . S
C2596 C2590 1.368 . S
C2596 C2595 1.523 . S
C2597 C2581 1.429 1_545 S
C2597 C2593 1.429 . S
C2597 C2598 1.523 . S
C2598 C2582 1.368 . S
C2598 C2594 1.287 1_545 S
C2598 C2597 1.523 . S
H2599 C2574 0.950 . S
H2600 C2576 0.950 . S
H2601 C2577 0.949 1_565 S
H2602 C2579 0.950 . S
H2603 C2581 0.950 . S
C2604 C2605 1.349 . S
C2604 C2606 1.327 . S
C2604 H2629 0.950 . S
C2605 C2604 1.349 . S
C2605 C2621 1.349 . S
C2606 C2604 1.327 . S
C2606 C2625 1.429 . S
C2606 H2630 0.950 . S
C2607 C2624 1.529 1_655 S
C2607 C2626 1.386 . S
C2607 H2631 0.969 1_655 S
H2608 C2612 0.949 . S
C2609 C2610 1.349 1_455 S
C2609 C2611 1.327 . S
C2609 H2632 0.950 . S
C2610 C2609 1.349 1_655 S
C2610 C2622 1.349 . S
C2611 C2609 1.327 . S
C2611 C2627 1.429 1_455 S
C2611 H2633 0.950 . S
C2612 H2608 0.949 . S
C2612 C2620 1.574 . S
C2612 C2628 1.368 . S
H2613 C2621 0.950 . S
H2614 C2619 0.937 1_455 S
H2615 C2620 0.949 . S
H2616 C2622 0.950 . S
H2617 C2623 0.950 . S
H2618 C2624 0.958 . S
C2619 H2614 0.937 1_655 S
C2619 C2621 1.327 . S
C2619 C2625 1.429 . S
C2620 C2612 1.574 . S
C2620 H2615 0.949 . S
C2620 C2626 1.368 . S
C2621 C2605 1.349 . S
C2621 H2613 0.950 . S
C2621 C2619 1.327 . S
C2622 C2610 1.349 . S
C2622 H2616 0.950 . S
C2622 C2623 1.327 . S
C2623 H2617 0.950 . S
C2623 C2622 1.327 . S
C2623 C2627 1.429 . S
C2624 C2607 1.529 1_455 S
C2624 H2618 0.958 . S
C2624 C2628 1.373 1_455 S
C2625 C2606 1.429 . S
C2625 C2619 1.429 . S
C2625 C2626 1.523 . S
C2626 C2607 1.386 . S
C2626 C2620 1.368 . S
C2626 C2625 1.523 . S
C2627 C2611 1.429 1_655 S
C2627 C2623 1.429 . S
C2627 C2628 1.523 . S
C2628 C2612 1.368 . S
C2628 C2624 1.373 1_655 S
C2628 C2627 1.523 . S
H2629 C2604 0.950 . S
H2630 C2606 0.950 . S
H2631 C2607 0.969 1_455 S
H2632 C2609 0.950 . S
H2633 C2611 0.950 . S
C2634 C2635 1.349 . S
C2634 C2636 1.327 . S
C2634 H2659 0.950 . S
C2635 C2634 1.349 . S
C2635 C2651 1.349 . S
C2636 C2634 1.327 . S
C2636 C2655 1.429 . S
C2636 H2660 0.950 . S
C2637 C2654 1.574 . S
C2637 C2656 1.368 . S
C2637 H2661 0.949 . S
H2638 C2642 0.949 . S
C2639 C2640 1.349 . S
C2639 C2641 1.327 . S
C2639 H2662 0.950 . S
C2640 C2639 1.349 . S
C2640 C2652 1.349 . S
C2641 C2639 1.327 . S
C2641 C2657 1.429 . S
C2641 H2663 0.950 . S
C2642 H2638 0.949 . S
C2642 C2650 1.574 . S
C2642 C2658 1.368 . S
H2643 C2651 0.950 . S
H2644 C2649 0.950 . S
H2645 C2650 0.949 . S
H2646 C2652 0.950 . S
H2647 C2653 0.950 . S
H2648 C2654 0.949 . S
C2649 H2644 0.950 . S
C2649 C2651 1.327 . S
C2649 C2655 1.429 . S
C2650 C2642 1.574 . S
C2650 H2645 0.949 . S
C2650 C2656 1.368 . S
C2651 C2635 1.349 . S
C2651 H2643 0.950 . S
C2651 C2649 1.327 . S
C2652 C2640 1.349 . S
C2652 H2646 0.950 . S
C2652 C2653 1.327 . S
C2653 H2647 0.950 . S
C2653 C2652 1.327 . S
C2653 C2657 1.429 . S
C2654 C2637 1.574 . S
C2654 H2648 0.949 . S
C2654 C2658 1.368 . S
C2655 C2636 1.429 . S
C2655 C2649 1.429 . S
C2655 C2656 1.523 . S
C2656 C2637 1.368 . S
C2656 C2650 1.368 . S
C2656 C2655 1.523 . S
C2657 C2641 1.429 . S
C2657 C2653 1.429 . S
C2657 C2658 1.523 . S
C2658 C2642 1.368 . S
C2658 C2654 1.368 . S
C2658 C2657 1.523 . S
H2659 C2634 0.950 . S
H2660 C2636 0.950 . S
H2661 C2637 0.949 . S
H2662 C2639 0.950 . S
H2663 C2641 0.950 . S
C2664 C2665 1.349 . S
C2664 C2666 1.327 . S
C2664 H2689 0.950 . S
C2665 C2664 1.349 . S
C2665 C2681 1.349 . S
C2666 C2664 1.327 . S
C2666 C2685 1.429 . S
C2666 H2690 0.950 . S
C2667 C2684 1.574 . S
C2667 C2686 1.368 . S
C2667 H2691 0.949 . S
H2668 C2672 0.949 . S
C2669 C2670 1.349 . S
C2669 C2671 1.327 . S
C2669 H2692 0.950 . S
C2670 C2669 1.349 . S
C2670 C2682 1.349 . S
C2671 C2669 1.327 . S
C2671 C2687 1.429 . S
C2671 H2693 0.950 . S
C2672 H2668 0.949 . S
C2672 C2680 1.574 . S
C2672 C2688 1.368 . S
H2673 C2681 0.950 . S
H2674 C2679 0.950 . S
H2675 C2680 0.949 . S
H2676 C2682 0.950 . S
H2677 C2683 0.950 . S
H2678 C2684 0.949 . S
C2679 H2674 0.950 . S
C2679 C2681 1.327 . S
C2679 C2685 1.429 . S
C2680 C2672 1.574 . S
C2680 H2675 0.949 . S
C2680 C2686 1.368 . S
C2681 C2665 1.349 . S
C2681 H2673 0.950 . S
C2681 C2679 1.327 . S
C2682 C2670 1.349 . S
C2682 H2676 0.950 . S
C2682 C2683 1.327 . S
C2683 H2677 0.950 . S
C2683 C2682 1.327 . S
C2683 C2687 1.429 . S
C2684 C2667 1.574 . S
C2684 H2678 0.949 . S
C2684 C2688 1.368 . S
C2685 C2666 1.429 . S
C2685 C2679 1.429 . S
C2685 C2686 1.523 . S
C2686 C2667 1.368 . S
C2686 C2680 1.368 . S
C2686 C2685 1.523 . S
C2687 C2671 1.429 . S
C2687 C2683 1.429 . S
C2687 C2688 1.523 . S
C2688 C2672 1.368 . S
C2688 C2684 1.368 . S
C2688 C2687 1.523 . S
H2689 C2664 0.950 . S
H2690 C2666 0.950 . S
H2691 C2667 0.949 . S
H2692 C2669 0.950 . S
H2693 C2671 0.950 . S
C2694 C2695 1.349 . S
C2694 C2696 1.327 . S
C2694 H2719 0.950 . S
C2695 C2694 1.349 . S
C2695 C2711 1.349 . S
C2696 C2694 1.327 . S
C2696 C2715 1.429 . S
C2696 H2720 0.950 . S
C2697 C2714 1.574 . S
C2697 C2716 1.368 . S
C2697 H2721 0.949 . S
H2698 C2702 0.949 . S
C2699 C2700 1.349 . S
C2699 C2701 1.327 . S
C2699 H2722 0.950 . S
C2700 C2699 1.349 . S
C2700 C2712 1.349 . S
C2701 C2699 1.327 . S
C2701 C2717 1.429 . S
C2701 H2723 0.950 . S
C2702 H2698 0.949 . S
C2702 C2710 1.574 . S
C2702 C2718 1.368 . S
H2703 C2711 0.950 . S
H2704 C2709 0.950 . S
H2705 C2710 0.949 . S
H2706 C2712 0.950 . S
H2707 C2713 0.950 . S
H2708 C2714 0.949 . S
C2709 H2704 0.950 . S
C2709 C2711 1.327 . S
C2709 C2715 1.429 . S
C2710 C2702 1.574 . S
C2710 H2705 0.949 . S
C2710 C2716 1.368 . S
C2711 C2695 1.349 . S
C2711 H2703 0.950 . S
C2711 C2709 1.327 . S
C2712 C2700 1.349 . S
C2712 H2706 0.950 . S
C2712 C2713 1.327 . S
C2713 H2707 0.950 . S
C2713 C2712 1.327 . S
C2713 C2717 1.429 . S
C2714 C2697 1.574 . S
C2714 H2708 0.949 . S
C2714 C2718 1.368 . S
C2715 C2696 1.429 . S
C2715 C2709 1.429 . S
C2715 C2716 1.523 . S
C2716 C2697 1.368 . S
C2716 C2710 1.368 . S
C2716 C2715 1.523 . S
C2717 C2701 1.429 . S
C2717 C2713 1.429 . S
C2717 C2718 1.523 . S
C2718 C2702 1.368 . S
C2718 C2714 1.368 . S
C2718 C2717 1.523 . S
H2719 C2694 0.950 . S
H2720 C2696 0.950 . S
H2721 C2697 0.949 . S
H2722 C2699 0.950 . S
H2723 C2701 0.950 . S
C2724 C2725 1.349 . S
C2724 C2726 1.327 . S
C2724 H2749 0.950 . S
C2725 C2724 1.349 . S
C2725 C2741 1.349 . S
C2726 C2724 1.327 . S
C2726 C2745 1.429 . S
C2726 H2750 0.950 . S
C2727 C2744 1.574 . S
C2727 C2746 1.368 . S
C2727 H2751 0.949 . S
H2728 C2732 0.949 . S
C2729 C2730 1.349 . S
C2729 C2731 1.327 . S
C2729 H2752 0.950 . S
C2730 C2729 1.349 . S
C2730 C2742 1.349 . S
C2731 C2729 1.327 . S
C2731 C2747 1.429 . S
C2731 H2753 0.950 . S
C2732 H2728 0.949 . S
C2732 C2740 1.574 . S
C2732 C2748 1.368 . S
H2733 C2741 0.950 . S
H2734 C2739 0.950 . S
H2735 C2740 0.949 . S
H2736 C2742 0.950 . S
H2737 C2743 0.950 . S
H2738 C2744 0.949 . S
C2739 H2734 0.950 . S
C2739 C2741 1.327 . S
C2739 C2745 1.429 . S
C2740 C2732 1.574 . S
C2740 H2735 0.949 . S
C2740 C2746 1.368 . S
C2741 C2725 1.349 . S
C2741 H2733 0.950 . S
C2741 C2739 1.327 . S
C2742 C2730 1.349 . S
C2742 H2736 0.950 . S
C2742 C2743 1.327 . S
C2743 H2737 0.950 . S
C2743 C2742 1.327 . S
C2743 C2747 1.429 . S
C2744 C2727 1.574 . S
C2744 H2738 0.949 . S
C2744 C2748 1.368 . S
C2745 C2726 1.429 . S
C2745 C2739 1.429 . S
C2745 C2746 1.523 . S
C2746 C2727 1.368 . S
C2746 C2740 1.368 . S
C2746 C2745 1.523 . S
C2747 C2731 1.429 . S
C2747 C2743 1.429 . S
C2747 C2748 1.523 . S
C2748 C2732 1.368 . S
C2748 C2744 1.368 . S
C2748 C2747 1.523 . S
H2749 C2724 0.950 . S
H2750 C2726 0.950 . S
H2751 C2727 0.949 . S
H2752 C2729 0.950 . S
H2753 C2731 0.950 . S
C2754 C2755 1.349 . S
C2754 C2756 1.327 . S
C2754 H2779 0.950 . S
C2755 C2754 1.349 . S
C2755 C2771 1.349 . S
C2756 C2754 1.327 . S
C2756 C2775 1.429 . S
C2756 H2780 0.950 . S
C2757 C2774 1.574 . S
C2757 C2776 1.368 . S
C2757 H2781 0.949 . S
H2758 C2762 0.949 . S
C2759 C2760 1.349 . S
C2759 C2761 1.327 . S
C2759 H2782 0.950 . S
C2760 C2759 1.349 . S
C2760 C2772 1.349 . S
C2761 C2759 1.327 . S
C2761 C2777 1.429 . S
C2761 H2783 0.950 . S
C2762 H2758 0.949 . S
C2762 C2770 1.574 . S
C2762 C2778 1.368 . S
H2763 C2771 0.950 . S
H2764 C2769 0.950 . S
H2765 C2770 0.949 . S
H2766 C2772 0.950 . S
H2767 C2773 0.950 . S
H2768 C2774 0.949 . S
C2769 H2764 0.950 . S
C2769 C2771 1.327 . S
C2769 C2775 1.429 . S
C2770 C2762 1.574 . S
C2770 H2765 0.949 . S
C2770 C2776 1.368 . S
C2771 C2755 1.349 . S
C2771 H2763 0.950 . S
C2771 C2769 1.327 . S
C2772 C2760 1.349 . S
C2772 H2766 0.950 . S
C2772 C2773 1.327 . S
C2773 H2767 0.950 . S
C2773 C2772 1.327 . S
C2773 C2777 1.429 . S
C2774 C2757 1.574 . S
C2774 H2768 0.949 . S
C2774 C2778 1.368 . S
C2775 C2756 1.429 . S
C2775 C2769 1.429 . S
C2775 C2776 1.523 . S
C2776 C2757 1.368 . S
C2776 C2770 1.368 . S
C2776 C2775 1.523 . S
C2777 C2761 1.429 . S
C2777 C2773 1.429 . S
C2777 C2778 1.523 . S
C2778 C2762 1.368 . S
C2778 C2774 1.368 . S
C2778 C2777 1.523 . S
H2779 C2754 0.950 . S
H2780 C2756 0.950 . S
H2781 C2757 0.949 . S
H2782 C2759 0.950 . S
H2783 C2761 0.950 . S
C2784 C2785 1.349 . S
C2784 C2786 1.327 . S
C2784 H2809 0.950 . S
C2785 C2784 1.349 . S
C2785 C2801 1.349 . S
C2786 C2784 1.327 . S
C2786 C2805 1.429 . S
C2786 H2810 0.950 . S
C2787 C2804 1.574 . S
C2787 C2806 1.368 . S
C2787 H2811 0.949 . S
H2788 C2792 0.949 . S
C2789 C2790 1.349 . S
C2789 C2791 1.327 . S
C2789 H2812 0.950 . S
C2790 C2789 1.349 . S
C2790 C2802 1.349 . S
C2791 C2789 1.327 . S
C2791 C2807 1.429 . S
C2791 H2813 0.950 . S
C2792 H2788 0.949 . S
C2792 C2800 1.574 . S
C2792 C2808 1.368 . S
H2793 C2801 0.950 . S
H2794 C2799 0.950 . S
H2795 C2800 0.949 . S
H2796 C2802 0.950 . S
H2797 C2803 0.950 . S
H2798 C2804 0.949 . S
C2799 H2794 0.950 . S
C2799 C2801 1.327 . S
C2799 C2805 1.429 . S
C2800 C2792 1.574 . S
C2800 H2795 0.949 . S
C2800 C2806 1.368 . S
C2801 C2785 1.349 . S
C2801 H2793 0.950 . S
C2801 C2799 1.327 . S
C2802 C2790 1.349 . S
C2802 H2796 0.950 . S
C2802 C2803 1.327 . S
C2803 H2797 0.950 . S
C2803 C2802 1.327 . S
C2803 C2807 1.429 . S
C2804 C2787 1.574 . S
C2804 H2798 0.949 . S
C2804 C2808 1.368 . S
C2805 C2786 1.429 . S
C2805 C2799 1.429 . S
C2805 C2806 1.523 . S
C2806 C2787 1.368 . S
C2806 C2800 1.368 . S
C2806 C2805 1.523 . S
C2807 C2791 1.429 . S
C2807 C2803 1.429 . S
C2807 C2808 1.523 . S
C2808 C2792 1.368 . S
C2808 C2804 1.368 . S
C2808 C2807 1.523 . S
H2809 C2784 0.950 . S
H2810 C2786 0.950 . S
H2811 C2787 0.949 . S
H2812 C2789 0.950 . S
H2813 C2791 0.950 . S
C2814 C2815 1.349 . S
C2814 C2816 1.327 . S
C2814 H2839 0.950 . S
C2815 C2814 1.349 . S
C2815 C2831 1.349 . S
C2816 C2814 1.327 . S
C2816 C2835 1.429 . S
C2816 H2840 0.950 . S
C2817 C2834 1.574 . S
C2817 C2836 1.368 . S
C2817 H2841 0.949 . S
H2818 C2822 0.949 . S
C2819 C2820 1.349 . S
C2819 C2821 1.327 . S
C2819 H2842 0.950 . S
C2820 C2819 1.349 . S
C2820 C2832 1.349 . S
C2821 C2819 1.327 . S
C2821 C2837 1.429 . S
C2821 H2843 0.950 . S
C2822 H2818 0.949 . S
C2822 C2830 1.574 . S
C2822 C2838 1.368 . S
H2823 C2831 0.950 . S
H2824 C2829 0.950 . S
H2825 C2830 0.949 . S
H2826 C2832 0.950 . S
H2827 C2833 0.950 . S
H2828 C2834 0.949 . S
C2829 H2824 0.950 . S
C2829 C2831 1.327 . S
C2829 C2835 1.429 . S
C2830 C2822 1.574 . S
C2830 H2825 0.949 . S
C2830 C2836 1.368 . S
C2831 C2815 1.349 . S
C2831 H2823 0.950 . S
C2831 C2829 1.327 . S
C2832 C2820 1.349 . S
C2832 H2826 0.950 . S
C2832 C2833 1.327 . S
C2833 H2827 0.950 . S
C2833 C2832 1.327 . S
C2833 C2837 1.429 . S
C2834 C2817 1.574 . S
C2834 H2828 0.949 . S
C2834 C2838 1.368 . S
C2835 C2816 1.429 . S
C2835 C2829 1.429 . S
C2835 C2836 1.523 . S
C2836 C2817 1.368 . S
C2836 C2830 1.368 . S
C2836 C2835 1.523 . S
C2837 C2821 1.429 . S
C2837 C2833 1.429 . S
C2837 C2838 1.523 . S
C2838 C2822 1.368 . S
C2838 C2834 1.368 . S
C2838 C2837 1.523 . S
H2839 C2814 0.950 . S
H2840 C2816 0.950 . S
H2841 C2817 0.949 . S
H2842 C2819 0.950 . S
H2843 C2821 0.950 . S
C2844 C2845 1.349 . S
C2844 C2846 1.327 . S
C2844 H2869 0.950 . S
C2845 C2844 1.349 . S
C2845 C2861 1.349 . S
C2846 C2844 1.327 . S
C2846 C2865 1.429 . S
C2846 H2870 0.950 . S
C2847 C2864 1.574 . S
C2847 C2866 1.368 . S
C2847 H2871 0.949 . S
H2848 C2852 0.949 . S
C2849 C2850 1.349 . S
C2849 C2851 1.327 . S
C2849 H2872 0.950 . S
C2850 C2849 1.349 . S
C2850 C2862 1.349 . S
C2851 C2849 1.327 . S
C2851 C2867 1.429 . S
C2851 H2873 0.950 . S
C2852 H2848 0.949 . S
C2852 C2860 1.574 . S
C2852 C2868 1.368 . S
H2853 C2861 0.950 . S
H2854 C2859 0.950 . S
H2855 C2860 0.949 . S
H2856 C2862 0.950 . S
H2857 C2863 0.950 . S
H2858 C2864 0.949 . S
C2859 H2854 0.950 . S
C2859 C2861 1.327 . S
C2859 C2865 1.429 . S
C2860 C2852 1.574 . S
C2860 H2855 0.949 . S
C2860 C2866 1.368 . S
C2861 C2845 1.349 . S
C2861 H2853 0.950 . S
C2861 C2859 1.327 . S
C2862 C2850 1.349 . S
C2862 H2856 0.950 . S
C2862 C2863 1.327 . S
C2863 H2857 0.950 . S
C2863 C2862 1.327 . S
C2863 C2867 1.429 . S
C2864 C2847 1.574 . S
C2864 H2858 0.949 . S
C2864 C2868 1.368 . S
C2865 C2846 1.429 . S
C2865 C2859 1.429 . S
C2865 C2866 1.523 . S
C2866 C2847 1.368 . S
C2866 C2860 1.368 . S
C2866 C2865 1.523 . S
C2867 C2851 1.429 . S
C2867 C2863 1.429 . S
C2867 C2868 1.523 . S
C2868 C2852 1.368 . S
C2868 C2864 1.368 . S
C2868 C2867 1.523 . S
H2869 C2844 0.950 . S
H2870 C2846 0.950 . S
H2871 C2847 0.949 . S
H2872 C2849 0.950 . S
H2873 C2851 0.950 . S
C2874 C2875 1.349 . S
C2874 C2876 1.327 . S
C2874 H2899 0.950 . S
C2875 C2874 1.349 . S
C2875 C2891 1.349 . S
C2876 C2874 1.327 . S
C2876 C2895 1.429 . S
C2876 H2900 0.950 . S
C2877 C2894 1.574 . S
C2877 C2896 1.368 . S
C2877 H2901 0.949 . S
H2878 C2882 0.949 . S
C2879 C2880 1.349 . S
C2879 C2881 1.327 . S
C2879 H2902 0.950 . S
C2880 C2879 1.349 . S
C2880 C2892 1.349 . S
C2881 C2879 1.327 . S
C2881 C2897 1.429 . S
C2881 H2903 0.950 . S
C2882 H2878 0.949 . S
C2882 C2890 1.574 . S
C2882 C2898 1.368 . S
H2883 C2891 0.950 . S
H2884 C2889 0.950 . S
H2885 C2890 0.949 . S
H2886 C2892 0.950 . S
H2887 C2893 0.950 . S
H2888 C2894 0.949 . S
C2889 H2884 0.950 . S
C2889 C2891 1.327 . S
C2889 C2895 1.429 . S
C2890 C2882 1.574 . S
C2890 H2885 0.949 . S
C2890 C2896 1.368 . S
C2891 C2875 1.349 . S
C2891 H2883 0.950 . S
C2891 C2889 1.327 . S
C2892 C2880 1.349 . S
C2892 H2886 0.950 . S
C2892 C2893 1.327 . S
C2893 H2887 0.950 . S
C2893 C2892 1.327 . S
C2893 C2897 1.429 . S
C2894 C2877 1.574 . S
C2894 H2888 0.949 . S
C2894 C2898 1.368 . S
C2895 C2876 1.429 . S
C2895 C2889 1.429 . S
C2895 C2896 1.523 . S
C2896 C2877 1.368 . S
C2896 C2890 1.368 . S
C2896 C2895 1.523 . S
C2897 C2881 1.429 . S
C2897 C2893 1.429 . S
C2897 C2898 1.523 . S
C2898 C2882 1.368 . S
C2898 C2894 1.368 . S
C2898 C2897 1.523 . S
H2899 C2874 0.950 . S
H2900 C2876 0.950 . S
H2901 C2877 0.949 . S
H2902 C2879 0.950 . S
H2903 C2881 0.950 . S
C2904 C2905 1.349 . S
C2904 C2906 1.327 . S
C2904 H2929 0.950 . S
C2905 C2904 1.349 . S
C2905 C2921 1.349 . S
C2906 C2904 1.327 . S
C2906 C2925 1.429 . S
C2906 H2930 0.950 . S
C2907 C2924 1.574 . S
C2907 C2926 1.368 . S
C2907 H2931 0.949 . S
H2908 C2912 0.949 . S
C2909 C2910 1.349 . S
C2909 C2911 1.327 . S
C2909 H2932 0.950 . S
C2910 C2909 1.349 . S
C2910 C2922 1.349 . S
C2911 C2909 1.327 . S
C2911 C2927 1.429 . S
C2911 H2933 0.950 . S
C2912 H2908 0.949 . S
C2912 C2920 1.574 . S
C2912 C2928 1.368 . S
H2913 C2921 0.950 . S
H2914 C2919 0.950 . S
H2915 C2920 0.949 . S
H2916 C2922 0.950 . S
H2917 C2923 0.950 . S
H2918 C2924 0.949 . S
C2919 H2914 0.950 . S
C2919 C2921 1.327 . S
C2919 C2925 1.429 . S
C2920 C2912 1.574 . S
C2920 H2915 0.949 . S
C2920 C2926 1.368 . S
C2921 C2905 1.349 . S
C2921 H2913 0.950 . S
C2921 C2919 1.327 . S
C2922 C2910 1.349 . S
C2922 H2916 0.950 . S
C2922 C2923 1.327 . S
C2923 H2917 0.950 . S
C2923 C2922 1.327 . S
C2923 C2927 1.429 . S
C2924 C2907 1.574 . S
C2924 H2918 0.949 . S
C2924 C2928 1.368 . S
C2925 C2906 1.429 . S
C2925 C2919 1.429 . S
C2925 C2926 1.523 . S
C2926 C2907 1.368 . S
C2926 C2920 1.368 . S
C2926 C2925 1.523 . S
C2927 C2911 1.429 . S
C2927 C2923 1.429 . S
C2927 C2928 1.523 . S
C2928 C2912 1.368 . S
C2928 C2924 1.368 . S
C2928 C2927 1.523 . S
H2929 C2904 0.950 . S
H2930 C2906 0.950 . S
H2931 C2907 0.949 . S
H2932 C2909 0.950 . S
H2933 C2911 0.950 . S
C2934 C2935 1.349 . S
C2934 C2936 1.327 . S
C2934 H2959 0.950 . S
C2935 C2934 1.349 . S
C2935 C2951 1.349 . S
C2936 C2934 1.327 . S
C2936 C2955 1.429 . S
C2936 H2960 0.950 . S
C2937 C2954 1.574 . S
C2937 C2956 1.368 . S
C2937 H2961 0.949 . S
H2938 C2942 0.949 . S
C2939 C2940 1.349 . S
C2939 C2941 1.327 . S
C2939 H2962 0.950 . S
C2940 C2939 1.349 . S
C2940 C2952 1.349 . S
C2941 C2939 1.327 . S
C2941 C2957 1.429 . S
C2941 H2963 0.950 . S
C2942 H2938 0.949 . S
C2942 C2950 1.574 . S
C2942 C2958 1.368 . S
H2943 C2951 0.950 . S
H2944 C2949 0.950 . S
H2945 C2950 0.949 . S
H2946 C2952 0.950 . S
H2947 C2953 0.950 . S
H2948 C2954 0.949 . S
C2949 H2944 0.950 . S
C2949 C2951 1.327 . S
C2949 C2955 1.429 . S
C2950 C2942 1.574 . S
C2950 H2945 0.949 . S
C2950 C2956 1.368 . S
C2951 C2935 1.349 . S
C2951 H2943 0.950 . S
C2951 C2949 1.327 . S
C2952 C2940 1.349 . S
C2952 H2946 0.950 . S
C2952 C2953 1.327 . S
C2953 H2947 0.950 . S
C2953 C2952 1.327 . S
C2953 C2957 1.429 . S
C2954 C2937 1.574 . S
C2954 H2948 0.949 . S
C2954 C2958 1.368 . S
C2955 C2936 1.429 . S
C2955 C2949 1.429 . S
C2955 C2956 1.523 . S
C2956 C2937 1.368 . S
C2956 C2950 1.368 . S
C2956 C2955 1.523 . S
C2957 C2941 1.429 . S
C2957 C2953 1.429 . S
C2957 C2958 1.523 . S
C2958 C2942 1.368 . S
C2958 C2954 1.368 . S
C2958 C2957 1.523 . S
H2959 C2934 0.950 . S
H2960 C2936 0.950 . S
H2961 C2937 0.949 . S
H2962 C2939 0.950 . S
H2963 C2941 0.950 . S
C2964 C2965 1.349 . S
C2964 C2966 1.327 . S
C2964 H2989 0.950 . S
C2965 C2964 1.349 . S
C2965 C2981 1.349 . S
C2966 C2964 1.327 . S
C2966 C2985 1.429 . S
C2966 H2990 0.950 . S
C2967 C2984 1.574 . S
C2967 C2986 1.368 . S
C2967 H2991 0.949 . S
H2968 C2972 0.949 . S
C2969 C2970 1.349 . S
C2969 C2971 1.327 . S
C2969 H2992 0.950 . S
C2970 C2969 1.349 . S
C2970 C2982 1.349 . S
C2971 C2969 1.327 . S
C2971 C2987 1.429 . S
C2971 H2993 0.950 . S
C2972 H2968 0.949 . S
C2972 C2980 1.574 . S
C2972 C2988 1.368 . S
H2973 C2981 0.950 . S
H2974 C2979 0.950 . S
H2975 C2980 0.949 . S
H2976 C2982 0.950 . S
H2977 C2983 0.950 . S
H2978 C2984 0.949 . S
C2979 H2974 0.950 . S
C2979 C2981 1.327 . S
C2979 C2985 1.429 . S
C2980 C2972 1.574 . S
C2980 H2975 0.949 . S
C2980 C2986 1.368 . S
C2981 C2965 1.349 . S
C2981 H2973 0.950 . S
C2981 C2979 1.327 . S
C2982 C2970 1.349 . S
C2982 H2976 0.950 . S
C2982 C2983 1.327 . S
C2983 H2977 0.950 . S
C2983 C2982 1.327 . S
C2983 C2987 1.429 . S
C2984 C2967 1.574 . S
C2984 H2978 0.949 . S
C2984 C2988 1.368 . S
C2985 C2966 1.429 . S
C2985 C2979 1.429 . S
C2985 C2986 1.523 . S
C2986 C2967 1.368 . S
C2986 C2980 1.368 . S
C2986 C2985 1.523 . S
C2987 C2971 1.429 . S
C2987 C2983 1.429 . S
C2987 C2988 1.523 . S
C2988 C2972 1.368 . S
C2988 C2984 1.368 . S
C2988 C2987 1.523 . S
H2989 C2964 0.950 . S
H2990 C2966 0.950 . S
H2991 C2967 0.949 . S
H2992 C2969 0.950 . S
H2993 C2971 0.950 . S
C2994 C2995 1.349 . S
C2994 C2996 1.327 . S
C2994 H3019 0.950 . S
C2995 C2994 1.349 . S
C2995 C3011 1.349 . S
C2996 C2994 1.327 . S
C2996 C3015 1.429 . S
C2996 H3020 0.950 . S
C2997 C3014 1.574 . S
C2997 C3016 1.368 . S
C2997 H3021 0.949 . S
H2998 C3002 0.949 . S
C2999 C3000 1.349 . S
C2999 C3001 1.327 . S
C2999 H3022 0.950 . S
C3000 C2999 1.349 . S
C3000 C3012 1.349 . S
C3001 C2999 1.327 . S
C3001 C3017 1.429 . S
C3001 H3023 0.950 . S
C3002 H2998 0.949 . S
C3002 C3010 1.574 . S
C3002 C3018 1.368 . S
H3003 C3011 0.950 . S
H3004 C3009 0.950 . S
H3005 C3010 0.949 . S
H3006 C3012 0.950 . S
H3007 C3013 0.950 . S
H3008 C3014 0.949 . S
C3009 H3004 0.950 . S
C3009 C3011 1.327 . S
C3009 C3015 1.429 . S
C3010 C3002 1.574 . S
C3010 H3005 0.949 . S
C3010 C3016 1.368 . S
C3011 C2995 1.349 . S
C3011 H3003 0.950 . S
C3011 C3009 1.327 . S
C3012 C3000 1.349 . S
C3012 H3006 0.950 . S
C3012 C3013 1.327 . S
C3013 H3007 0.950 . S
C3013 C3012 1.327 . S
C3013 C3017 1.429 . S
C3014 C2997 1.574 . S
C3014 H3008 0.949 . S
C3014 C3018 1.368 . S
C3015 C2996 1.429 . S
C3015 C3009 1.429 . S
C3015 C3016 1.523 . S
C3016 C2997 1.368 . S
C3016 C3010 1.368 . S
C3016 C3015 1.523 . S
C3017 C3001 1.429 . S
C3017 C3013 1.429 . S
C3017 C3018 1.523 . S
C3018 C3002 1.368 . S
C3018 C3014 1.368 . S
C3018 C3017 1.523 . S
H3019 C2994 0.950 . S
H3020 C2996 0.950 . S
H3021 C2997 0.949 . S
H3022 C2999 0.950 . S
H3023 C3001 0.950 . S
C3024 C3025 1.349 . S
C3024 C3026 1.327 . S
C3024 H3049 0.950 . S
C3025 C3024 1.349 . S
C3025 C3041 1.349 . S
C3026 C3024 1.327 . S
C3026 C3045 1.429 . S
C3026 H3050 0.950 . S
C3027 C3044 1.574 . S
C3027 C3046 1.368 . S
C3027 H3051 0.949 . S
H3028 C3032 0.949 . S
C3029 C3030 1.349 . S
C3029 C3031 1.327 . S
C3029 H3052 0.950 . S
C3030 C3029 1.349 . S
C3030 C3042 1.349 . S
C3031 C3029 1.327 . S
C3031 C3047 1.429 . S
C3031 H3053 0.950 . S
C3032 H3028 0.949 . S
C3032 C3040 1.574 . S
C3032 C3048 1.368 . S
H3033 C3041 0.950 . S
H3034 C3039 0.950 . S
H3035 C3040 0.949 . S
H3036 C3042 0.950 . S
H3037 C3043 0.950 . S
H3038 C3044 0.949 . S
C3039 H3034 0.950 . S
C3039 C3041 1.327 . S
C3039 C3045 1.429 . S
C3040 C3032 1.574 . S
C3040 H3035 0.949 . S
C3040 C3046 1.368 . S
C3041 C3025 1.349 . S
C3041 H3033 0.950 . S
C3041 C3039 1.327 . S
C3042 C3030 1.349 . S
C3042 H3036 0.950 . S
C3042 C3043 1.327 . S
C3043 H3037 0.950 . S
C3043 C3042 1.327 . S
C3043 C3047 1.429 . S
C3044 C3027 1.574 . S
C3044 H3038 0.949 . S
C3044 C3048 1.368 . S
C3045 C3026 1.429 . S
C3045 C3039 1.429 . S
C3045 C3046 1.523 . S
C3046 C3027 1.368 . S
C3046 C3040 1.368 . S
C3046 C3045 1.523 . S
C3047 C3031 1.429 . S
C3047 C3043 1.429 . S
C3047 C3048 1.523 . S
C3048 C3032 1.368 . S
C3048 C3044 1.368 . S
C3048 C3047 1.523 . S
H3049 C3024 0.950 . S
H3050 C3026 0.950 . S
H3051 C3027 0.949 . S
H3052 C3029 0.950 . S
H3053 C3031 0.950 . S
C3054 C3055 1.349 . S
C3054 C3056 1.327 . S
C3054 H3079 0.950 . S
C3055 C3054 1.349 . S
C3055 C3071 1.349 . S
C3056 C3054 1.327 . S
C3056 C3075 1.429 . S
C3056 H3080 0.950 . S
C3057 C3074 1.574 . S
C3057 C3076 1.368 . S
C3057 H3081 0.949 . S
H3058 C3062 0.949 . S
C3059 C3060 1.349 . S
C3059 C3061 1.327 . S
C3059 H3082 0.950 . S
C3060 C3059 1.349 . S
C3060 C3072 1.349 . S
C3061 C3059 1.327 . S
C3061 C3077 1.429 . S
C3061 H3083 0.950 . S
C3062 H3058 0.949 . S
C3062 C3070 1.574 . S
C3062 C3078 1.368 . S
H3063 C3071 0.950 . S
H3064 C3069 0.950 . S
H3065 C3070 0.949 . S
H3066 C3072 0.950 . S
H3067 C3073 0.950 . S
H3068 C3074 0.949 . S
C3069 H3064 0.950 . S
C3069 C3071 1.327 . S
C3069 C3075 1.429 . S
C3070 C3062 1.574 . S
C3070 H3065 0.949 . S
C3070 C3076 1.368 . S
C3071 C3055 1.349 . S
C3071 H3063 0.950 . S
C3071 C3069 1.327 . S
C3072 C3060 1.349 . S
C3072 H3066 0.950 . S
C3072 C3073 1.327 . S
C3073 H3067 0.950 . S
C3073 C3072 1.327 . S
C3073 C3077 1.429 . S
C3074 C3057 1.574 . S
C3074 H3068 0.949 . S
C3074 C3078 1.368 . S
C3075 C3056 1.429 . S
C3075 C3069 1.429 . S
C3075 C3076 1.523 . S
C3076 C3057 1.368 . S
C3076 C3070 1.368 . S
C3076 C3075 1.523 . S
C3077 C3061 1.429 . S
C3077 C3073 1.429 . S
C3077 C3078 1.523 . S
C3078 C3062 1.368 . S
C3078 C3074 1.368 . S
C3078 C3077 1.523 . S
H3079 C3054 0.950 . S
H3080 C3056 0.950 . S
H3081 C3057 0.949 . S
H3082 C3059 0.950 . S
H3083 C3061 0.950 . S
C3084 C3085 1.349 . S
C3084 C3086 1.327 . S
C3084 H3109 0.950 . S
C3085 C3084 1.349 . S
C3085 C3101 1.349 . S
C3086 C3084 1.327 . S
C3086 C3105 1.429 . S
C3086 H3110 0.950 . S
C3087 C3104 1.574 . S
C3087 C3106 1.368 . S
C3087 H3111 0.949 . S
H3088 C3092 0.949 . S
C3089 C3090 1.349 . S
C3089 C3091 1.327 . S
C3089 H3112 0.950 . S
C3090 C3089 1.349 . S
C3090 C3102 1.349 . S
C3091 C3089 1.327 . S
C3091 C3107 1.429 . S
C3091 H3113 0.950 . S
C3092 H3088 0.949 . S
C3092 C3100 1.574 . S
C3092 C3108 1.368 . S
H3093 C3101 0.950 . S
H3094 C3099 0.950 . S
H3095 C3100 0.949 . S
H3096 C3102 0.950 . S
H3097 C3103 0.950 . S
H3098 C3104 0.949 . S
C3099 H3094 0.950 . S
C3099 C3101 1.327 . S
C3099 C3105 1.429 . S
C3100 C3092 1.574 . S
C3100 H3095 0.949 . S
C3100 C3106 1.368 . S
C3101 C3085 1.349 . S
C3101 H3093 0.950 . S
C3101 C3099 1.327 . S
C3102 C3090 1.349 . S
C3102 H3096 0.950 . S
C3102 C3103 1.327 . S
C3103 H3097 0.950 . S
C3103 C3102 1.327 . S
C3103 C3107 1.429 . S
C3104 C3087 1.574 . S
C3104 H3098 0.949 . S
C3104 C3108 1.368 . S
C3105 C3086 1.429 . S
C3105 C3099 1.429 . S
C3105 C3106 1.523 . S
C3106 C3087 1.368 . S
C3106 C3100 1.368 . S
C3106 C3105 1.523 . S
C3107 C3091 1.429 . S
C3107 C3103 1.429 . S
C3107 C3108 1.523 . S
C3108 C3092 1.368 . S
C3108 C3104 1.368 . S
C3108 C3107 1.523 . S
H3109 C3084 0.950 . S
H3110 C3086 0.950 . S
H3111 C3087 0.949 . S
H3112 C3089 0.950 . S
H3113 C3091 0.950 . S
C3114 C3115 1.349 . S
C3114 C3116 1.327 . S
C3114 H3139 0.950 . S
C3115 C3114 1.349 . S
C3115 C3131 1.349 . S
C3116 C3114 1.327 . S
C3116 C3135 1.429 . S
C3116 H3140 0.950 . S
C3117 C3134 1.574 . S
C3117 C3136 1.368 . S
C3117 H3141 0.949 . S
H3118 C3122 0.949 . S
C3119 C3120 1.349 . S
C3119 C3121 1.327 . S
C3119 H3142 0.950 . S
C3120 C3119 1.349 . S
C3120 C3132 1.349 . S
C3121 C3119 1.327 . S
C3121 C3137 1.429 . S
C3121 H3143 0.950 . S
C3122 H3118 0.949 . S
C3122 C3130 1.574 . S
C3122 C3138 1.368 . S
H3123 C3131 0.950 . S
H3124 C3129 0.950 . S
H3125 C3130 0.949 . S
H3126 C3132 0.950 . S
H3127 C3133 0.950 . S
H3128 C3134 0.949 . S
C3129 H3124 0.950 . S
C3129 C3131 1.327 . S
C3129 C3135 1.429 . S
C3130 C3122 1.574 . S
C3130 H3125 0.949 . S
C3130 C3136 1.368 . S
C3131 C3115 1.349 . S
C3131 H3123 0.950 . S
C3131 C3129 1.327 . S
C3132 C3120 1.349 . S
C3132 H3126 0.950 . S
C3132 C3133 1.327 . S
C3133 H3127 0.950 . S
C3133 C3132 1.327 . S
C3133 C3137 1.429 . S
C3134 C3117 1.574 . S
C3134 H3128 0.949 . S
C3134 C3138 1.368 . S
C3135 C3116 1.429 . S
C3135 C3129 1.429 . S
C3135 C3136 1.523 . S
C3136 C3117 1.368 . S
C3136 C3130 1.368 . S
C3136 C3135 1.523 . S
C3137 C3121 1.429 . S
C3137 C3133 1.429 . S
C3137 C3138 1.523 . S
C3138 C3122 1.368 . S
C3138 C3134 1.368 . S
C3138 C3137 1.523 . S
H3139 C3114 0.950 . S
H3140 C3116 0.950 . S
H3141 C3117 0.949 . S
H3142 C3119 0.950 . S
H3143 C3121 0.950 . S
C3144 C3145 1.349 . S
C3144 C3146 1.327 . S
C3144 H3169 0.950 . S
C3145 C3144 1.349 . S
C3145 C3161 1.349 . S
C3146 C3144 1.327 . S
C3146 C3165 1.429 . S
C3146 H3170 0.950 . S
C3147 C3164 1.574 . S
C3147 C3166 1.368 . S
C3147 H3171 0.949 . S
H3148 C3152 0.949 . S
C3149 C3150 1.349 . S
C3149 C3151 1.327 . S
C3149 H3172 0.950 . S
C3150 C3149 1.349 . S
C3150 C3162 1.349 . S
C3151 C3149 1.327 . S
C3151 C3167 1.429 . S
C3151 H3173 0.950 . S
C3152 H3148 0.949 . S
C3152 C3160 1.574 . S
C3152 C3168 1.368 . S
H3153 C3161 0.950 . S
H3154 C3159 0.950 . S
H3155 C3160 0.949 . S
H3156 C3162 0.950 . S
H3157 C3163 0.950 . S
H3158 C3164 0.949 . S
C3159 H3154 0.950 . S
C3159 C3161 1.327 . S
C3159 C3165 1.429 . S
C3160 C3152 1.574 . S
C3160 H3155 0.949 . S
C3160 C3166 1.368 . S
C3161 C3145 1.349 . S
C3161 H3153 0.950 . S
C3161 C3159 1.327 . S
C3162 C3150 1.349 . S
C3162 H3156 0.950 . S
C3162 C3163 1.327 . S
C3163 H3157 0.950 . S
C3163 C3162 1.327 . S
C3163 C3167 1.429 . S
C3164 C3147 1.574 . S
C3164 H3158 0.949 . S
C3164 C3168 1.368 . S
C3165 C3146 1.429 . S
C3165 C3159 1.429 . S
C3165 C3166 1.523 . S
C3166 C3147 1.368 . S
C3166 C3160 1.368 . S
C3166 C3165 1.523 . S
C3167 C3151 1.429 . S
C3167 C3163 1.429 . S
C3167 C3168 1.523 . S
C3168 C3152 1.368 . S
C3168 C3164 1.368 . S
C3168 C3167 1.523 . S
H3169 C3144 0.950 . S
H3170 C3146 0.950 . S
H3171 C3147 0.949 . S
H3172 C3149 0.950 . S
H3173 C3151 0.950 . S
C3174 C3175 1.349 . S
C3174 C3176 1.327 . S
C3174 H3199 0.950 . S
C3175 C3174 1.349 . S
C3175 C3191 1.349 . S
C3176 C3174 1.327 . S
C3176 C3195 1.429 . S
C3176 H3200 0.950 . S
C3177 C3194 1.574 . S
C3177 C3196 1.368 . S
C3177 H3201 0.949 . S
H3178 C3182 0.949 . S
C3179 C3180 1.349 . S
C3179 C3181 1.327 . S
C3179 H3202 0.950 . S
C3180 C3179 1.349 . S
C3180 C3192 1.349 . S
C3181 C3179 1.327 . S
C3181 C3197 1.429 . S
C3181 H3203 0.950 . S
C3182 H3178 0.949 . S
C3182 C3190 1.574 . S
C3182 C3198 1.368 . S
H3183 C3191 0.950 . S
H3184 C3189 0.950 . S
H3185 C3190 0.949 . S
H3186 C3192 0.950 . S
H3187 C3193 0.950 . S
H3188 C3194 0.949 . S
C3189 H3184 0.950 . S
C3189 C3191 1.327 . S
C3189 C3195 1.429 . S
C3190 C3182 1.574 . S
C3190 H3185 0.949 . S
C3190 C3196 1.368 . S
C3191 C3175 1.349 . S
C3191 H3183 0.950 . S
C3191 C3189 1.327 . S
C3192 C3180 1.349 . S
C3192 H3186 0.950 . S
C3192 C3193 1.327 . S
C3193 H3187 0.950 . S
C3193 C3192 1.327 . S
C3193 C3197 1.429 . S
C3194 C3177 1.574 . S
C3194 H3188 0.949 . S
C3194 C3198 1.368 . S
C3195 C3176 1.429 . S
C3195 C3189 1.429 . S
C3195 C3196 1.523 . S
C3196 C3177 1.368 . S
C3196 C3190 1.368 . S
C3196 C3195 1.523 . S
C3197 C3181 1.429 . S
C3197 C3193 1.429 . S
C3197 C3198 1.523 . S
C3198 C3182 1.368 . S
C3198 C3194 1.368 . S
C3198 C3197 1.523 . S
H3199 C3174 0.950 . S
H3200 C3176 0.950 . S
H3201 C3177 0.949 . S
H3202 C3179 0.950 . S
H3203 C3181 0.950 . S
C3204 C3205 1.349 . S
C3204 C3206 1.327 . S
C3204 H3229 0.950 . S
C3205 C3204 1.349 . S
C3205 C3221 1.349 . S
C3206 C3204 1.327 . S
C3206 C3225 1.429 . S
C3206 H3230 0.950 . S
C3207 C3224 1.574 . S
C3207 C3226 1.368 . S
C3207 H3231 0.949 . S
H3208 C3212 0.949 . S
C3209 C3210 1.349 . S
C3209 C3211 1.327 . S
C3209 H3232 0.950 . S
C3210 C3209 1.349 . S
C3210 C3222 1.349 . S
C3211 C3209 1.327 . S
C3211 C3227 1.429 . S
C3211 H3233 0.950 . S
C3212 H3208 0.949 . S
C3212 C3220 1.574 . S
C3212 C3228 1.368 . S
H3213 C3221 0.950 . S
H3214 C3219 0.950 . S
H3215 C3220 0.949 . S
H3216 C3222 0.950 . S
H3217 C3223 0.950 . S
H3218 C3224 0.949 . S
C3219 H3214 0.950 . S
C3219 C3221 1.327 . S
C3219 C3225 1.429 . S
C3220 C3212 1.574 . S
C3220 H3215 0.949 . S
C3220 C3226 1.368 . S
C3221 C3205 1.349 . S
C3221 H3213 0.950 . S
C3221 C3219 1.327 . S
C3222 C3210 1.349 . S
C3222 H3216 0.950 . S
C3222 C3223 1.327 . S
C3223 H3217 0.950 . S
C3223 C3222 1.327 . S
C3223 C3227 1.429 . S
C3224 C3207 1.574 . S
C3224 H3218 0.949 . S
C3224 C3228 1.368 . S
C3225 C3206 1.429 . S
C3225 C3219 1.429 . S
C3225 C3226 1.523 . S
C3226 C3207 1.368 . S
C3226 C3220 1.368 . S
C3226 C3225 1.523 . S
C3227 C3211 1.429 . S
C3227 C3223 1.429 . S
C3227 C3228 1.523 . S
C3228 C3212 1.368 . S
C3228 C3224 1.368 . S
C3228 C3227 1.523 . S
H3229 C3204 0.950 . S
H3230 C3206 0.950 . S
H3231 C3207 0.949 . S
H3232 C3209 0.950 . S
H3233 C3211 0.950 . S
C3234 C3235 1.349 . S
C3234 C3236 1.327 . S
C3234 H3259 0.950 . S
C3235 C3234 1.349 . S
C3235 C3251 1.349 . S
C3236 C3234 1.327 . S
C3236 C3255 1.429 . S
C3236 H3260 0.950 . S
C3237 C3254 1.574 . S
C3237 C3256 1.368 . S
C3237 H3261 0.949 . S
H3238 C3242 0.949 . S
C3239 C3240 1.349 . S
C3239 C3241 1.327 . S
C3239 H3262 0.950 . S
C3240 C3239 1.349 . S
C3240 C3252 1.349 . S
C3241 C3239 1.327 . S
C3241 C3257 1.429 . S
C3241 H3263 0.950 . S
C3242 H3238 0.949 . S
C3242 C3250 1.574 . S
C3242 C3258 1.368 . S
H3243 C3251 0.950 . S
H3244 C3249 0.950 . S
H3245 C3250 0.949 . S
H3246 C3252 0.950 . S
H3247 C3253 0.950 . S
H3248 C3254 0.949 . S
C3249 H3244 0.950 . S
C3249 C3251 1.327 . S
C3249 C3255 1.429 . S
C3250 C3242 1.574 . S
C3250 H3245 0.949 . S
C3250 C3256 1.368 . S
C3251 C3235 1.349 . S
C3251 H3243 0.950 . S
C3251 C3249 1.327 . S
C3252 C3240 1.349 . S
C3252 H3246 0.950 . S
C3252 C3253 1.327 . S
C3253 H3247 0.950 . S
C3253 C3252 1.327 . S
C3253 C3257 1.429 . S
C3254 C3237 1.574 . S
C3254 H3248 0.949 . S
C3254 C3258 1.368 . S
C3255 C3236 1.429 . S
C3255 C3249 1.429 . S
C3255 C3256 1.523 . S
C3256 C3237 1.368 . S
C3256 C3250 1.368 . S
C3256 C3255 1.523 . S
C3257 C3241 1.429 . S
C3257 C3253 1.429 . S
C3257 C3258 1.523 . S
C3258 C3242 1.368 . S
C3258 C3254 1.368 . S
C3258 C3257 1.523 . S
H3259 C3234 0.950 . S
H3260 C3236 0.950 . S
H3261 C3237 0.949 . S
H3262 C3239 0.950 . S
H3263 C3241 0.950 . S
C3264 C3265 1.349 . S
C3264 C3266 1.327 . S
C3264 H3289 0.950 . S
C3265 C3264 1.349 . S
C3265 C3281 1.349 . S
C3266 C3264 1.327 . S
C3266 C3285 1.429 . S
C3266 H3290 0.950 . S
C3267 C3284 1.574 . S
C3267 C3286 1.368 . S
C3267 H3291 0.949 . S
H3268 C3272 0.949 . S
C3269 C3270 1.349 . S
C3269 C3271 1.327 . S
C3269 H3292 0.950 . S
C3270 C3269 1.349 . S
C3270 C3282 1.349 . S
C3271 C3269 1.327 . S
C3271 C3287 1.429 . S
C3271 H3293 0.950 . S
C3272 H3268 0.949 . S
C3272 C3280 1.574 . S
C3272 C3288 1.368 . S
H3273 C3281 0.950 . S
H3274 C3279 0.950 . S
H3275 C3280 0.949 . S
H3276 C3282 0.950 . S
H3277 C3283 0.950 . S
H3278 C3284 0.949 . S
C3279 H3274 0.950 . S
C3279 C3281 1.327 . S
C3279 C3285 1.429 . S
C3280 C3272 1.574 . S
C3280 H3275 0.949 . S
C3280 C3286 1.368 . S
C3281 C3265 1.349 . S
C3281 H3273 0.950 . S
C3281 C3279 1.327 . S
C3282 C3270 1.349 . S
C3282 H3276 0.950 . S
C3282 C3283 1.327 . S
C3283 H3277 0.950 . S
C3283 C3282 1.327 . S
C3283 C3287 1.429 . S
C3284 C3267 1.574 . S
C3284 H3278 0.949 . S
C3284 C3288 1.368 . S
C3285 C3266 1.429 . S
C3285 C3279 1.429 . S
C3285 C3286 1.523 . S
C3286 C3267 1.368 . S
C3286 C3280 1.368 . S
C3286 C3285 1.523 . S
C3287 C3271 1.429 . S
C3287 C3283 1.429 . S
C3287 C3288 1.523 . S
C3288 C3272 1.368 . S
C3288 C3284 1.368 . S
C3288 C3287 1.523 . S
H3289 C3264 0.950 . S
H3290 C3266 0.950 . S
H3291 C3267 0.949 . S
H3292 C3269 0.950 . S
H3293 C3271 0.950 . S
C3294 C3295 1.349 . S
C3294 C3296 1.327 . S
C3294 H3319 0.950 . S
C3295 C3294 1.349 . S
C3295 C3311 1.349 . S
C3296 C3294 1.327 . S
C3296 C3315 1.429 . S
C3296 H3320 0.950 . S
C3297 C3314 1.574 . S
C3297 C3316 1.368 . S
C3297 H3321 0.949 . S
H3298 C3302 0.949 . S
C3299 C3300 1.349 . S
C3299 C3301 1.327 . S
C3299 H3322 0.950 . S
C3300 C3299 1.349 . S
C3300 C3312 1.349 . S
C3301 C3299 1.327 . S
C3301 C3317 1.429 . S
C3301 H3323 0.950 . S
C3302 H3298 0.949 . S
C3302 C3310 1.574 . S
C3302 C3318 1.368 . S
H3303 C3311 0.950 . S
H3304 C3309 0.950 . S
H3305 C3310 0.949 . S
H3306 C3312 0.950 . S
H3307 C3313 0.950 . S
H3308 C3314 0.949 . S
C3309 H3304 0.950 . S
C3309 C3311 1.327 . S
C3309 C3315 1.429 . S
C3310 C3302 1.574 . S
C3310 H3305 0.949 . S
C3310 C3316 1.368 . S
C3311 C3295 1.349 . S
C3311 H3303 0.950 . S
C3311 C3309 1.327 . S
C3312 C3300 1.349 . S
C3312 H3306 0.950 . S
C3312 C3313 1.327 . S
C3313 H3307 0.950 . S
C3313 C3312 1.327 . S
C3313 C3317 1.429 . S
C3314 C3297 1.574 . S
C3314 H3308 0.949 . S
C3314 C3318 1.368 . S
C3315 C3296 1.429 . S
C3315 C3309 1.429 . S
C3315 C3316 1.523 . S
C3316 C3297 1.368 . S
C3316 C3310 1.368 . S
C3316 C3315 1.523 . S
C3317 C3301 1.429 . S
C3317 C3313 1.429 . S
C3317 C3318 1.523 . S
C3318 C3302 1.368 . S
C3318 C3314 1.368 . S
C3318 C3317 1.523 . S
H3319 C3294 0.950 . S
H3320 C3296 0.950 . S
H3321 C3297 0.949 . S
H3322 C3299 0.950 . S
H3323 C3301 0.950 . S
C3324 C3325 1.349 . S
C3324 C3326 1.327 . S
C3324 H3349 0.950 . S
C3325 C3324 1.349 . S
C3325 C3341 1.349 . S
C3326 C3324 1.327 . S
C3326 C3345 1.429 . S
C3326 H3350 0.950 . S
C3327 C3344 1.574 . S
C3327 C3346 1.368 . S
C3327 H3351 0.949 . S
H3328 C3332 0.949 . S
C3329 C3330 1.349 . S
C3329 C3331 1.327 . S
C3329 H3352 0.950 . S
C3330 C3329 1.349 . S
C3330 C3342 1.349 . S
C3331 C3329 1.327 . S
C3331 C3347 1.429 . S
C3331 H3353 0.950 . S
C3332 H3328 0.949 . S
C3332 C3340 1.574 . S
C3332 C3348 1.368 . S
H3333 C3341 0.950 . S
H3334 C3339 0.950 . S
H3335 C3340 0.949 . S
H3336 C3342 0.950 . S
H3337 C3343 0.950 . S
H3338 C3344 0.949 . S
C3339 H3334 0.950 . S
C3339 C3341 1.327 . S
C3339 C3345 1.429 . S
C3340 C3332 1.574 . S
C3340 H3335 0.949 . S
C3340 C3346 1.368 . S
C3341 C3325 1.349 . S
C3341 H3333 0.950 . S
C3341 C3339 1.327 . S
C3342 C3330 1.349 . S
C3342 H3336 0.950 . S
C3342 C3343 1.327 . S
C3343 H3337 0.950 . S
C3343 C3342 1.327 . S
C3343 C3347 1.429 . S
C3344 C3327 1.574 . S
C3344 H3338 0.949 . S
C3344 C3348 1.368 . S
C3345 C3326 1.429 . S
C3345 C3339 1.429 . S
C3345 C3346 1.523 . S
C3346 C3327 1.368 . S
C3346 C3340 1.368 . S
C3346 C3345 1.523 . S
C3347 C3331 1.429 . S
C3347 C3343 1.429 . S
C3347 C3348 1.523 . S
C3348 C3332 1.368 . S
C3348 C3344 1.368 . S
C3348 C3347 1.523 . S
H3349 C3324 0.950 . S
H3350 C3326 0.950 . S
H3351 C3327 0.949 . S
H3352 C3329 0.950 . S
H3353 C3331 0.950 . S
C3354 C3355 1.349 . S
C3354 C3356 1.327 . S
C3354 H3379 0.950 . S
C3355 C3354 1.349 . S
C3355 C3371 1.349 . S
C3356 C3354 1.327 . S
C3356 C3375 1.429 . S
C3356 H3380 0.950 . S
C3357 C3374 1.574 . S
C3357 C3376 1.368 . S
C3357 H3381 0.949 . S
H3358 C3362 0.949 . S
C3359 C3360 1.349 . S
C3359 C3361 1.327 . S
C3359 H3382 0.950 . S
C3360 C3359 1.349 . S
C3360 C3372 1.349 . S
C3361 C3359 1.327 . S
C3361 C3377 1.429 . S
C3361 H3383 0.950 . S
C3362 H3358 0.949 . S
C3362 C3370 1.574 . S
C3362 C3378 1.368 . S
H3363 C3371 0.950 . S
H3364 C3369 0.950 . S
H3365 C3370 0.949 . S
H3366 C3372 0.950 . S
H3367 C3373 0.950 . S
H3368 C3374 0.949 . S
C3369 H3364 0.950 . S
C3369 C3371 1.327 . S
C3369 C3375 1.429 . S
C3370 C3362 1.574 . S
C3370 H3365 0.949 . S
C3370 C3376 1.368 . S
C3371 C3355 1.349 . S
C3371 H3363 0.950 . S
C3371 C3369 1.327 . S
C3372 C3360 1.349 . S
C3372 H3366 0.950 . S
C3372 C3373 1.327 . S
C3373 H3367 0.950 . S
C3373 C3372 1.327 . S
C3373 C3377 1.429 . S
C3374 C3357 1.574 . S
C3374 H3368 0.949 . S
C3374 C3378 1.368 . S
C3375 C3356 1.429 . S
C3375 C3369 1.429 . S
C3375 C3376 1.523 . S
C3376 C3357 1.368 . S
C3376 C3370 1.368 . S
C3376 C3375 1.523 . S
C3377 C3361 1.429 . S
C3377 C3373 1.429 . S
C3377 C3378 1.523 . S
C3378 C3362 1.368 . S
C3378 C3374 1.368 . S
C3378 C3377 1.523 . S
H3379 C3354 0.950 . S
H3380 C3356 0.950 . S
H3381 C3357 0.949 . S
H3382 C3359 0.950 . S
H3383 C3361 0.950 . S
C3384 C3385 1.349 . S
C3384 C3386 1.327 . S
C3384 H3409 0.950 . S
C3385 C3384 1.349 . S
C3385 C3401 1.349 . S
C3386 C3384 1.327 . S
C3386 C3405 1.429 . S
C3386 H3410 0.950 . S
C3387 C3404 1.574 . S
C3387 C3406 1.368 . S
C3387 H3411 0.949 . S
H3388 C3392 0.949 . S
C3389 C3390 1.349 . S
C3389 C3391 1.327 . S
C3389 H3412 0.950 . S
C3390 C3389 1.349 . S
C3390 C3402 1.349 . S
C3391 C3389 1.327 . S
C3391 C3407 1.429 . S
C3391 H3413 0.950 . S
C3392 H3388 0.949 . S
C3392 C3400 1.574 . S
C3392 C3408 1.368 . S
H3393 C3401 0.950 . S
H3394 C3399 0.950 . S
H3395 C3400 0.949 . S
H3396 C3402 0.950 . S
H3397 C3403 0.950 . S
H3398 C3404 0.949 . S
C3399 H3394 0.950 . S
C3399 C3401 1.327 . S
C3399 C3405 1.429 . S
C3400 C3392 1.574 . S
C3400 H3395 0.949 . S
C3400 C3406 1.368 . S
C3401 C3385 1.349 . S
C3401 H3393 0.950 . S
C3401 C3399 1.327 . S
C3402 C3390 1.349 . S
C3402 H3396 0.950 . S
C3402 C3403 1.327 . S
C3403 H3397 0.950 . S
C3403 C3402 1.327 . S
C3403 C3407 1.429 . S
C3404 C3387 1.574 . S
C3404 H3398 0.949 . S
C3404 C3408 1.368 . S
C3405 C3386 1.429 . S
C3405 C3399 1.429 . S
C3405 C3406 1.523 . S
C3406 C3387 1.368 . S
C3406 C3400 1.368 . S
C3406 C3405 1.523 . S
C3407 C3391 1.429 . S
C3407 C3403 1.429 . S
C3407 C3408 1.523 . S
C3408 C3392 1.368 . S
C3408 C3404 1.368 . S
C3408 C3407 1.523 . S
H3409 C3384 0.950 . S
H3410 C3386 0.950 . S
H3411 C3387 0.949 . S
H3412 C3389 0.950 . S
H3413 C3391 0.950 . S
C3414 C3415 1.349 . S
C3414 C3416 1.327 . S
C3414 H3439 0.950 . S
C3415 C3414 1.349 . S
C3415 C3431 1.349 . S
C3416 C3414 1.327 . S
C3416 C3435 1.429 . S
C3416 H3440 0.950 . S
C3417 C3434 1.574 . S
C3417 C3436 1.368 . S
C3417 H3441 0.949 . S
H3418 C3422 0.949 . S
C3419 C3420 1.349 . S
C3419 C3421 1.327 . S
C3419 H3442 0.950 . S
C3420 C3419 1.349 . S
C3420 C3432 1.349 . S
C3421 C3419 1.327 . S
C3421 C3437 1.429 . S
C3421 H3443 0.950 . S
C3422 H3418 0.949 . S
C3422 C3430 1.574 . S
C3422 C3438 1.368 . S
H3423 C3431 0.950 . S
H3424 C3429 0.950 . S
H3425 C3430 0.949 . S
H3426 C3432 0.950 . S
H3427 C3433 0.950 . S
H3428 C3434 0.949 . S
C3429 H3424 0.950 . S
C3429 C3431 1.327 . S
C3429 C3435 1.429 . S
C3430 C3422 1.574 . S
C3430 H3425 0.949 . S
C3430 C3436 1.368 . S
C3431 C3415 1.349 . S
C3431 H3423 0.950 . S
C3431 C3429 1.327 . S
C3432 C3420 1.349 . S
C3432 H3426 0.950 . S
C3432 C3433 1.327 . S
C3433 H3427 0.950 . S
C3433 C3432 1.327 . S
C3433 C3437 1.429 . S
C3434 C3417 1.574 . S
C3434 H3428 0.949 . S
C3434 C3438 1.368 . S
C3435 C3416 1.429 . S
C3435 C3429 1.429 . S
C3435 C3436 1.523 . S
C3436 C3417 1.368 . S
C3436 C3430 1.368 . S
C3436 C3435 1.523 . S
C3437 C3421 1.429 . S
C3437 C3433 1.429 . S
C3437 C3438 1.523 . S
C3438 C3422 1.368 . S
C3438 C3434 1.368 . S
C3438 C3437 1.523 . S
H3439 C3414 0.950 . S
H3440 C3416 0.950 . S
H3441 C3417 0.949 . S
H3442 C3419 0.950 . S
H3443 C3421 0.950 . S
C3444 C3445 1.349 . S
C3444 C3446 1.327 . S
C3444 H3469 0.950 . S
C3445 C3444 1.349 . S
C3445 C3461 1.349 . S
C3446 C3444 1.327 . S
C3446 C3465 1.429 . S
C3446 H3470 0.950 . S
C3447 C3464 1.574 . S
C3447 C3466 1.368 . S
C3447 H3471 0.949 . S
H3448 C3452 0.949 . S
C3449 C3450 1.349 . S
C3449 C3451 1.327 . S
C3449 H3472 0.950 . S
C3450 C3449 1.349 . S
C3450 C3462 1.349 . S
C3451 C3449 1.327 . S
C3451 C3467 1.429 . S
C3451 H3473 0.950 . S
C3452 H3448 0.949 . S
C3452 C3460 1.574 . S
C3452 C3468 1.368 . S
H3453 C3461 0.950 . S
H3454 C3459 0.950 . S
H3455 C3460 0.949 . S
H3456 C3462 0.950 . S
H3457 C3463 0.950 . S
H3458 C3464 0.949 . S
C3459 H3454 0.950 . S
C3459 C3461 1.327 . S
C3459 C3465 1.429 . S
C3460 C3452 1.574 . S
C3460 H3455 0.949 . S
C3460 C3466 1.368 . S
C3461 C3445 1.349 . S
C3461 H3453 0.950 . S
C3461 C3459 1.327 . S
C3462 C3450 1.349 . S
C3462 H3456 0.950 . S
C3462 C3463 1.327 . S
C3463 H3457 0.950 . S
C3463 C3462 1.327 . S
C3463 C3467 1.429 . S
C3464 C3447 1.574 . S
C3464 H3458 0.949 . S
C3464 C3468 1.368 . S
C3465 C3446 1.429 . S
C3465 C3459 1.429 . S
C3465 C3466 1.523 . S
C3466 C3447 1.368 . S
C3466 C3460 1.368 . S
C3466 C3465 1.523 . S
C3467 C3451 1.429 . S
C3467 C3463 1.429 . S
C3467 C3468 1.523 . S
C3468 C3452 1.368 . S
C3468 C3464 1.368 . S
C3468 C3467 1.523 . S
H3469 C3444 0.950 . S
H3470 C3446 0.950 . S
H3471 C3447 0.949 . S
H3472 C3449 0.950 . S
H3473 C3451 0.950 . S
C3474 C3475 1.349 . S
C3474 C3476 1.327 . S
C3474 H3499 0.950 . S
C3475 C3474 1.349 . S
C3475 C3491 1.349 . S
C3476 C3474 1.327 . S
C3476 C3495 1.429 . S
C3476 H3500 0.950 . S
C3477 C3494 1.574 . S
C3477 C3496 1.368 . S
C3477 H3501 0.949 . S
H3478 C3482 0.949 . S
C3479 C3480 1.349 . S
C3479 C3481 1.327 . S
C3479 H3502 0.950 . S
C3480 C3479 1.349 . S
C3480 C3492 1.349 . S
C3481 C3479 1.327 . S
C3481 C3497 1.429 . S
C3481 H3503 0.950 . S
C3482 H3478 0.949 . S
C3482 C3490 1.574 . S
C3482 C3498 1.368 . S
H3483 C3491 0.950 . S
H3484 C3489 0.950 . S
H3485 C3490 0.949 . S
H3486 C3492 0.950 . S
H3487 C3493 0.950 . S
H3488 C3494 0.949 . S
C3489 H3484 0.950 . S
C3489 C3491 1.327 . S
C3489 C3495 1.429 . S
C3490 C3482 1.574 . S
C3490 H3485 0.949 . S
C3490 C3496 1.368 . S
C3491 C3475 1.349 . S
C3491 H3483 0.950 . S
C3491 C3489 1.327 . S
C3492 C3480 1.349 . S
C3492 H3486 0.950 . S
C3492 C3493 1.327 . S
C3493 H3487 0.950 . S
C3493 C3492 1.327 . S
C3493 C3497 1.429 . S
C3494 C3477 1.574 . S
C3494 H3488 0.949 . S
C3494 C3498 1.368 . S
C3495 C3476 1.429 . S
C3495 C3489 1.429 . S
C3495 C3496 1.523 . S
C3496 C3477 1.368 . S
C3496 C3490 1.368 . S
C3496 C3495 1.523 . S
C3497 C3481 1.429 . S
C3497 C3493 1.429 . S
C3497 C3498 1.523 . S
C3498 C3482 1.368 . S
C3498 C3494 1.368 . S
C3498 C3497 1.523 . S
H3499 C3474 0.950 . S
H3500 C3476 0.950 . S
H3501 C3477 0.949 . S
H3502 C3479 0.950 . S
H3503 C3481 0.950 . S
C3504 C3505 1.349 . S
C3504 C3506 1.327 . S
C3504 H3529 0.973 . S
C3505 C3504 1.349 . S
C3505 C3521 1.349 . S
C3506 C3504 1.327 . S
C3506 C3525 1.429 . S
C3506 H3530 0.950 . S
C3507 C3524 1.574 . S
C3507 C3526 1.368 . S
C3507 H3531 0.949 . S
H3508 C3512 0.949 . S
C3509 C3510 1.349 . S
C3509 C3511 1.327 . S
C3509 H3532 0.950 . S
C3510 C3509 1.349 . S
C3510 C3522 1.349 . S
C3511 C3509 1.327 . S
C3511 C3527 1.429 . S
C3511 H3533 0.950 . S
C3512 H3508 0.949 . S
C3512 C3520 1.574 . S
C3512 C3528 1.368 . S
H3513 C3521 0.950 . S
H3514 C3519 0.950 . S
H3515 C3520 0.949 . S
H3516 C3522 0.950 . S
H3517 C3523 0.950 . S
H3518 C3524 0.949 . S
C3519 H3514 0.950 . S
C3519 C3521 1.327 . S
C3519 C3525 1.429 . S
C3520 C3512 1.574 . S
C3520 H3515 0.949 . S
C3520 C3526 1.368 . S
C3521 C3505 1.349 . S
C3521 H3513 0.950 . S
C3521 C3519 1.327 . S
C3522 C3510 1.349 . S
C3522 H3516 0.950 . S
C3522 C3523 1.327 . S
C3523 H3517 0.950 . S
C3523 C3522 1.327 . S
C3523 C3527 1.429 . S
C3524 C3507 1.574 . S
C3524 H3518 0.949 . S
C3524 C3528 1.368 . S
C3525 C3506 1.429 . S
C3525 C3519 1.429 . S
C3525 C3526 1.523 . S
C3526 C3507 1.368 . S
C3526 C3520 1.368 . S
C3526 C3525 1.523 . S
C3527 C3511 1.429 . S
C3527 C3523 1.429 . S
C3527 C3528 1.523 . S
C3528 C3512 1.368 . S
C3528 C3524 1.368 . S
C3528 C3527 1.523 . S
H3529 C3504 0.973 . S
H3530 C3506 0.950 . S
H3531 C3507 0.949 . S
H3532 C3509 0.950 . S
H3533 C3511 0.950 . S
C3534 C3535 1.349 . S
C3534 C3536 1.327 . S
C3534 H3559 0.950 1_556 S
C3535 C3534 1.349 . S
C3535 C3551 1.349 . S
C3536 C3534 1.327 . S
C3536 C3555 1.429 . S
C3536 H3560 0.950 . S
C3537 C3554 1.574 . S
C3537 C3556 1.368 . S
C3537 H3561 0.949 . S
H3538 C3542 0.949 . S
C3539 C3540 1.349 . S
C3539 C3541 1.327 . S
C3539 H3562 0.950 . S
C3540 C3539 1.349 . S
C3540 C3552 1.349 . S
C3541 C3539 1.327 . S
C3541 C3557 1.429 . S
C3541 H3563 0.950 . S
C3542 H3538 0.949 . S
C3542 C3550 1.574 . S
C3542 C3558 1.368 . S
H3543 C3551 0.950 . S
H3544 C3549 0.950 . S
H3545 C3550 0.949 . S
H3546 C3552 0.950 . S
H3547 C3553 0.950 . S
H3548 C3554 0.949 . S
C3549 H3544 0.950 . S
C3549 C3551 1.327 . S
C3549 C3555 1.429 . S
C3550 C3542 1.574 . S
C3550 H3545 0.949 . S
C3550 C3556 1.368 . S
C3551 C3535 1.349 . S
C3551 H3543 0.950 . S
C3551 C3549 1.327 . S
C3552 C3540 1.349 . S
C3552 H3546 0.950 . S
C3552 C3553 1.327 . S
C3553 H3547 0.950 . S
C3553 C3552 1.327 . S
C3553 C3557 1.429 . S
C3554 C3537 1.574 . S
C3554 H3548 0.949 . S
C3554 C3558 1.368 . S
C3555 C3536 1.429 . S
C3555 C3549 1.429 . S
C3555 C3556 1.523 . S
C3556 C3537 1.368 . S
C3556 C3550 1.368 . S
C3556 C3555 1.523 . S
C3557 C3541 1.429 . S
C3557 C3553 1.429 . S
C3557 C3558 1.523 . S
C3558 C3542 1.368 . S
C3558 C3554 1.368 . S
C3558 C3557 1.523 . S
H3559 C3534 0.950 1_554 S
H3560 C3536 0.950 . S
H3561 C3537 0.949 . S
H3562 C3539 0.950 . S
H3563 C3541 0.950 . S
C3564 C3565 1.349 . S
C3564 C3566 1.327 . S
C3564 H3589 0.950 . S
C3565 C3564 1.349 . S
C3565 C3581 1.349 . S
C3566 C3564 1.327 . S
C3566 C3585 1.429 . S
C3566 H3590 0.950 . S
C3567 C3584 1.574 . S
C3567 C3586 1.368 . S
C3567 H3591 0.949 . S
H3568 C3572 0.949 . S
C3569 C3570 1.349 . S
C3569 C3571 1.327 . S
C3569 H3592 0.950 . S
C3570 C3569 1.349 . S
C3570 C3582 1.349 . S
C3571 C3569 1.327 . S
C3571 C3587 1.429 . S
C3571 H3593 0.950 . S
C3572 H3568 0.949 . S
C3572 C3580 1.574 . S
C3572 C3588 1.368 . S
H3573 C3581 0.950 . S
H3574 C3579 0.950 . S
H3575 C3580 0.949 . S
H3576 C3582 0.950 . S
H3577 C3583 0.950 . S
H3578 C3584 0.949 . S
C3579 H3574 0.950 . S
C3579 C3581 1.327 . S
C3579 C3585 1.429 . S
C3580 C3572 1.574 . S
C3580 H3575 0.949 . S
C3580 C3586 1.368 . S
C3581 C3565 1.349 . S
C3581 H3573 0.950 . S
C3581 C3579 1.327 . S
C3582 C3570 1.349 . S
C3582 H3576 0.950 . S
C3582 C3583 1.327 . S
C3583 H3577 0.950 . S
C3583 C3582 1.327 . S
C3583 C3587 1.429 . S
C3584 C3567 1.574 . S
C3584 H3578 0.949 . S
C3584 C3588 1.368 . S
C3585 C3566 1.429 . S
C3585 C3579 1.429 . S
C3585 C3586 1.523 . S
C3586 C3567 1.368 . S
C3586 C3580 1.368 . S
C3586 C3585 1.523 . S
C3587 C3571 1.429 . S
C3587 C3583 1.429 . S
C3587 C3588 1.523 . S
C3588 C3572 1.368 . S
C3588 C3584 1.368 . S
C3588 C3587 1.523 . S
H3589 C3564 0.950 . S
H3590 C3566 0.950 . S
H3591 C3567 0.949 . S
H3592 C3569 0.950 . S
H3593 C3571 0.950 . S
C3594 C3595 1.349 . S
C3594 C3596 1.327 . S
C3594 H3619 0.950 . S
C3595 C3594 1.349 . S
C3595 C3611 1.349 . S
C3596 C3594 1.327 . S
C3596 C3615 1.429 . S
C3596 H3620 0.950 . S
C3597 C3614 1.574 . S
C3597 C3616 1.368 . S
C3597 H3621 0.949 . S
H3598 C3602 0.949 . S
C3599 C3600 1.349 . S
C3599 C3601 1.327 . S
C3599 H3622 0.950 . S
C3600 C3599 1.349 . S
C3600 C3612 1.349 . S
C3601 C3599 1.327 . S
C3601 C3617 1.429 . S
C3601 H3623 0.950 . S
C3602 H3598 0.949 . S
C3602 C3610 1.574 . S
C3602 C3618 1.368 . S
H3603 C3611 0.950 . S
H3604 C3609 0.950 . S
H3605 C3610 0.949 . S
H3606 C3612 0.950 . S
H3607 C3613 0.950 . S
H3608 C3614 0.949 . S
C3609 H3604 0.950 . S
C3609 C3611 1.327 . S
C3609 C3615 1.429 . S
C3610 C3602 1.574 . S
C3610 H3605 0.949 . S
C3610 C3616 1.368 . S
C3611 C3595 1.349 . S
C3611 H3603 0.950 . S
C3611 C3609 1.327 . S
C3612 C3600 1.349 . S
C3612 H3606 0.950 . S
C3612 C3613 1.327 . S
C3613 H3607 0.950 . S
C3613 C3612 1.327 . S
C3613 C3617 1.429 . S
C3614 C3597 1.574 . S
C3614 H3608 0.949 . S
C3614 C3618 1.368 . S
C3615 C3596 1.429 . S
C3615 C3609 1.429 . S
C3615 C3616 1.523 . S
C3616 C3597 1.368 . S
C3616 C3610 1.368 . S
C3616 C3615 1.523 . S
C3617 C3601 1.429 . S
C3617 C3613 1.429 . S
C3617 C3618 1.523 . S
C3618 C3602 1.368 . S
C3618 C3614 1.368 . S
C3618 C3617 1.523 . S
H3619 C3594 0.950 . S
H3620 C3596 0.950 . S
H3621 C3597 0.949 . S
H3622 C3599 0.950 . S
H3623 C3601 0.950 . S
C3624 C3625 1.349 . S
C3624 C3626 1.327 . S
C3624 H3649 0.950 . S
C3625 C3624 1.349 . S
C3625 C3641 1.349 . S
C3626 C3624 1.327 . S
C3626 C3645 1.429 . S
C3626 H3650 0.950 . S
C3627 C3644 1.574 . S
C3627 C3646 1.368 . S
C3627 H3651 0.949 . S
H3628 C3632 0.949 . S
C3629 C3630 1.349 . S
C3629 C3631 1.327 . S
C3629 H3652 0.950 . S
C3630 C3629 1.349 . S
C3630 C3642 1.349 . S
C3631 C3629 1.327 . S
C3631 C3647 1.429 . S
C3631 H3653 0.950 . S
C3632 H3628 0.949 . S
C3632 C3640 1.574 . S
C3632 C3648 1.368 . S
H3633 C3641 0.950 1_554 S
H3634 C3639 0.950 . S
H3635 C3640 0.949 . S
H3636 C3642 0.950 . S
H3637 C3643 0.950 . S
H3638 C3644 0.949 . S
C3639 H3634 0.950 . S
C3639 C3641 1.327 . S
C3639 C3645 1.429 . S
C3640 C3632 1.574 . S
C3640 H3635 0.949 . S
C3640 C3646 1.368 . S
C3641 C3625 1.349 . S
C3641 H3633 0.950 1_556 S
C3641 C3639 1.327 . S
C3642 C3630 1.349 . S
C3642 H3636 0.950 . S
C3642 C3643 1.327 . S
C3643 H3637 0.950 . S
C3643 C3642 1.327 . S
C3643 C3647 1.429 . S
C3644 C3627 1.574 . S
C3644 H3638 0.949 . S
C3644 C3648 1.368 . S
C3645 C3626 1.429 . S
C3645 C3639 1.429 . S
C3645 C3646 1.523 . S
C3646 C3627 1.368 . S
C3646 C3640 1.368 . S
C3646 C3645 1.523 . S
C3647 C3631 1.429 . S
C3647 C3643 1.429 . S
C3647 C3648 1.523 . S
C3648 C3632 1.368 . S
C3648 C3644 1.368 . S
C3648 C3647 1.523 . S
H3649 C3624 0.950 . S
H3650 C3626 0.950 . S
H3651 C3627 0.949 . S
H3652 C3629 0.950 . S
H3653 C3631 0.950 . S
C3654 C3655 1.349 . S
C3654 C3656 1.327 . S
C3654 H3679 0.950 . S
C3655 C3654 1.349 . S
C3655 C3671 1.349 . S
C3656 C3654 1.327 . S
C3656 C3675 1.429 . S
C3656 H3680 0.950 . S
C3657 C3674 1.574 . S
C3657 C3676 1.368 . S
C3657 H3681 0.949 . S
H3658 C3662 0.949 . S
C3659 C3660 1.349 . S
C3659 C3661 1.327 . S
C3659 H3682 0.950 . S
C3660 C3659 1.349 . S
C3660 C3672 1.349 . S
C3661 C3659 1.327 . S
C3661 C3677 1.429 . S
C3661 H3683 0.950 . S
C3662 H3658 0.949 . S
C3662 C3670 1.574 . S
C3662 C3678 1.368 . S
H3663 C3671 0.950 . S
H3664 C3669 0.950 . S
H3665 C3670 0.949 . S
H3666 C3672 0.950 . S
H3667 C3673 0.950 . S
H3668 C3674 0.949 . S
C3669 H3664 0.950 . S
C3669 C3671 1.327 . S
C3669 C3675 1.429 . S
C3670 C3662 1.574 . S
C3670 H3665 0.949 . S
C3670 C3676 1.368 . S
C3671 C3655 1.349 . S
C3671 H3663 0.950 . S
C3671 C3669 1.327 . S
C3672 C3660 1.349 . S
C3672 H3666 0.950 . S
C3672 C3673 1.327 . S
C3673 H3667 0.950 . S
C3673 C3672 1.327 . S
C3673 C3677 1.429 . S
C3674 C3657 1.574 . S
C3674 H3668 0.949 . S
C3674 C3678 1.368 . S
C3675 C3656 1.429 . S
C3675 C3669 1.429 . S
C3675 C3676 1.523 . S
C3676 C3657 1.368 . S
C3676 C3670 1.368 . S
C3676 C3675 1.523 . S
C3677 C3661 1.429 . S
C3677 C3673 1.429 . S
C3677 C3678 1.523 . S
C3678 C3662 1.368 . S
C3678 C3674 1.368 . S
C3678 C3677 1.523 . S
H3679 C3654 0.950 . S
H3680 C3656 0.950 . S
H3681 C3657 0.949 . S
H3682 C3659 0.950 . S
H3683 C3661 0.950 . S
C3684 C3685 1.349 . S
C3684 C3686 1.327 . S
C3684 H3709 0.950 . S
C3685 C3684 1.349 . S
C3685 C3701 1.349 . S
C3686 C3684 1.327 . S
C3686 C3705 1.429 . S
C3686 H3710 0.950 . S
C3687 C3704 1.574 . S
C3687 C3706 1.368 . S
C3687 H3711 0.949 . S
H3688 C3692 0.949 . S
C3689 C3690 1.349 . S
C3689 C3691 1.327 . S
C3689 H3712 0.950 . S
C3690 C3689 1.349 . S
C3690 C3702 1.349 . S
C3691 C3689 1.327 . S
C3691 C3707 1.429 . S
C3691 H3713 0.950 . S
C3692 H3688 0.949 . S
C3692 C3700 1.574 . S
C3692 C3708 1.368 . S
H3693 C3701 0.950 . S
H3694 C3699 0.950 . S
H3695 C3700 0.949 . S
H3696 C3702 0.950 . S
H3697 C3703 0.950 . S
H3698 C3704 0.949 . S
C3699 H3694 0.950 . S
C3699 C3701 1.327 . S
C3699 C3705 1.429 . S
C3700 C3692 1.574 . S
C3700 H3695 0.949 . S
C3700 C3706 1.368 . S
C3701 C3685 1.349 . S
C3701 H3693 0.950 . S
C3701 C3699 1.327 . S
C3702 C3690 1.349 . S
C3702 H3696 0.950 . S
C3702 C3703 1.327 . S
C3703 H3697 0.950 . S
C3703 C3702 1.327 . S
C3703 C3707 1.429 . S
C3704 C3687 1.574 . S
C3704 H3698 0.949 . S
C3704 C3708 1.368 . S
C3705 C3686 1.429 . S
C3705 C3699 1.429 . S
C3705 C3706 1.523 . S
C3706 C3687 1.368 . S
C3706 C3700 1.368 . S
C3706 C3705 1.523 . S
C3707 C3691 1.429 . S
C3707 C3703 1.429 . S
C3707 C3708 1.523 . S
C3708 C3692 1.368 . S
C3708 C3704 1.368 . S
C3708 C3707 1.523 . S
H3709 C3684 0.950 . S
H3710 C3686 0.950 . S
H3711 C3687 0.949 . S
H3712 C3689 0.950 . S
H3713 C3691 0.950 . S
C3714 C3715 1.349 . S
C3714 C3716 1.327 . S
C3714 H3739 0.950 . S
C3715 C3714 1.349 . S
C3715 C3731 1.349 . S
C3716 C3714 1.327 . S
C3716 C3735 1.429 . S
C3716 H3740 0.950 . S
C3717 C3734 1.574 . S
C3717 C3736 1.368 . S
C3717 H3741 0.949 . S
H3718 C3722 0.949 . S
C3719 C3720 1.349 . S
C3719 C3721 1.327 . S
C3719 H3742 0.950 . S
C3720 C3719 1.349 . S
C3720 C3732 1.349 . S
C3721 C3719 1.327 . S
C3721 C3737 1.429 . S
C3721 H3743 0.950 . S
C3722 H3718 0.949 . S
C3722 C3730 1.574 . S
C3722 C3738 1.368 . S
H3723 C3731 0.950 . S
H3724 C3729 0.950 . S
H3725 C3730 0.949 . S
H3726 C3732 0.950 . S
H3727 C3733 0.950 . S
H3728 C3734 0.949 . S
C3729 H3724 0.950 . S
C3729 C3731 1.327 . S
C3729 C3735 1.429 . S
C3730 C3722 1.574 . S
C3730 H3725 0.949 . S
C3730 C3736 1.368 . S
C3731 C3715 1.349 . S
C3731 H3723 0.950 . S
C3731 C3729 1.327 . S
C3732 C3720 1.349 . S
C3732 H3726 0.950 . S
C3732 C3733 1.327 . S
C3733 H3727 0.950 . S
C3733 C3732 1.327 . S
C3733 C3737 1.429 . S
C3734 C3717 1.574 . S
C3734 H3728 0.949 . S
C3734 C3738 1.368 . S
C3735 C3716 1.429 . S
C3735 C3729 1.429 . S
C3735 C3736 1.523 . S
C3736 C3717 1.368 . S
C3736 C3730 1.368 . S
C3736 C3735 1.523 . S
C3737 C3721 1.429 . S
C3737 C3733 1.429 . S
C3737 C3738 1.523 . S
C3738 C3722 1.368 . S
C3738 C3734 1.368 . S
C3738 C3737 1.523 . S
H3739 C3714 0.950 . S
H3740 C3716 0.950 . S
H3741 C3717 0.949 . S
H3742 C3719 0.950 . S
H3743 C3721 0.950 . S
C3744 C3745 1.349 . S
C3744 C3746 1.327 . S
C3744 H3769 0.950 . S
C3745 C3744 1.349 . S
C3745 C3761 1.349 . S
C3746 C3744 1.327 . S
C3746 C3765 1.429 . S
C3746 H3770 0.950 . S
C3747 C3764 1.574 . S
C3747 C3766 1.368 . S
C3747 H3771 0.949 . S
H3748 C3752 0.949 . S
C3749 C3750 1.349 . S
C3749 C3751 1.327 . S
C3749 H3772 0.950 . S
C3750 C3749 1.349 . S
C3750 C3762 1.349 . S
C3751 C3749 1.327 . S
C3751 C3767 1.429 . S
C3751 H3773 0.950 . S
C3752 H3748 0.949 . S
C3752 C3760 1.574 . S
C3752 C3768 1.368 . S
H3753 C3761 0.950 . S
H3754 C3759 0.950 . S
H3755 C3760 0.949 . S
H3756 C3762 0.950 . S
H3757 C3763 0.950 . S
H3758 C3764 0.949 . S
C3759 H3754 0.950 . S
C3759 C3761 1.327 . S
C3759 C3765 1.429 . S
C3760 C3752 1.574 . S
C3760 H3755 0.949 . S
C3760 C3766 1.368 . S
C3761 C3745 1.349 . S
C3761 H3753 0.950 . S
C3761 C3759 1.327 . S
C3762 C3750 1.349 . S
C3762 H3756 0.950 . S
C3762 C3763 1.327 . S
C3763 H3757 0.950 . S
C3763 C3762 1.327 . S
C3763 C3767 1.429 . S
C3764 C3747 1.574 . S
C3764 H3758 0.949 . S
C3764 C3768 1.368 . S
C3765 C3746 1.429 . S
C3765 C3759 1.429 . S
C3765 C3766 1.523 . S
C3766 C3747 1.368 . S
C3766 C3760 1.368 . S
C3766 C3765 1.523 . S
C3767 C3751 1.429 . S
C3767 C3763 1.429 . S
C3767 C3768 1.523 . S
C3768 C3752 1.368 . S
C3768 C3764 1.368 . S
C3768 C3767 1.523 . S
H3769 C3744 0.950 . S
H3770 C3746 0.950 . S
H3771 C3747 0.949 . S
H3772 C3749 0.950 . S
H3773 C3751 0.950 . S
C3774 C3775 1.349 . S
C3774 C3776 1.327 . S
C3774 H3799 0.950 . S
C3775 C3774 1.349 . S
C3775 C3791 1.349 . S
C3776 C3774 1.327 . S
C3776 C3795 1.429 . S
C3776 H3800 0.950 . S
C3777 C3794 1.574 . S
C3777 C3796 1.368 . S
C3777 H3801 0.949 . S
H3778 C3782 0.949 . S
C3779 C3780 1.349 . S
C3779 C3781 1.327 . S
C3779 H3802 0.950 . S
C3780 C3779 1.349 . S
C3780 C3792 1.349 . S
C3781 C3779 1.327 . S
C3781 C3797 1.429 . S
C3781 H3803 0.950 . S
C3782 H3778 0.949 . S
C3782 C3790 1.574 . S
C3782 C3798 1.368 . S
H3783 C3791 0.950 . S
H3784 C3789 0.950 . S
H3785 C3790 0.949 . S
H3786 C3792 0.950 . S
H3787 C3793 0.950 . S
H3788 C3794 0.949 . S
C3789 H3784 0.950 . S
C3789 C3791 1.327 . S
C3789 C3795 1.429 . S
C3790 C3782 1.574 . S
C3790 H3785 0.949 . S
C3790 C3796 1.368 . S
C3791 C3775 1.349 . S
C3791 H3783 0.950 . S
C3791 C3789 1.327 . S
C3792 C3780 1.349 . S
C3792 H3786 0.950 . S
C3792 C3793 1.327 . S
C3793 H3787 0.950 . S
C3793 C3792 1.327 . S
C3793 C3797 1.429 . S
C3794 C3777 1.574 . S
C3794 H3788 0.949 . S
C3794 C3798 1.368 . S
C3795 C3776 1.429 . S
C3795 C3789 1.429 . S
C3795 C3796 1.523 . S
C3796 C3777 1.368 . S
C3796 C3790 1.368 . S
C3796 C3795 1.523 . S
C3797 C3781 1.429 . S
C3797 C3793 1.429 . S
C3797 C3798 1.523 . S
C3798 C3782 1.368 . S
C3798 C3794 1.368 . S
C3798 C3797 1.523 . S
H3799 C3774 0.950 . S
H3800 C3776 0.950 . S
H3801 C3777 0.949 . S
H3802 C3779 0.950 . S
H3803 C3781 0.950 . S
C3804 C3805 1.349 . S
C3804 C3806 1.327 . S
C3804 H3829 0.950 . S
C3805 C3804 1.349 . S
C3805 C3821 1.349 . S
C3806 C3804 1.327 . S
C3806 C3825 1.429 . S
C3806 H3830 0.950 . S
C3807 C3824 1.574 . S
C3807 C3826 1.368 . S
C3807 H3831 0.949 . S
H3808 C3812 0.949 . S
C3809 C3810 1.349 . S
C3809 C3811 1.327 . S
C3809 H3832 0.950 . S
C3810 C3809 1.349 . S
C3810 C3822 1.349 . S
C3811 C3809 1.327 . S
C3811 C3827 1.429 . S
C3811 H3833 0.950 . S
C3812 H3808 0.949 . S
C3812 C3820 1.574 . S
C3812 C3828 1.368 . S
H3813 C3821 0.950 . S
H3814 C3819 0.950 . S
H3815 C3820 0.949 . S
H3816 C3822 0.950 . S
H3817 C3823 0.950 . S
H3818 C3824 0.949 . S
C3819 H3814 0.950 . S
C3819 C3821 1.327 . S
C3819 C3825 1.429 . S
C3820 C3812 1.574 . S
C3820 H3815 0.949 . S
C3820 C3826 1.368 . S
C3821 C3805 1.349 . S
C3821 H3813 0.950 . S
C3821 C3819 1.327 . S
C3822 C3810 1.349 . S
C3822 H3816 0.950 . S
C3822 C3823 1.327 . S
C3823 H3817 0.950 . S
C3823 C3822 1.327 . S
C3823 C3827 1.429 . S
C3824 C3807 1.574 . S
C3824 H3818 0.949 . S
C3824 C3828 1.368 . S
C3825 C3806 1.429 . S
C3825 C3819 1.429 . S
C3825 C3826 1.523 . S
C3826 C3807 1.368 . S
C3826 C3820 1.368 . S
C3826 C3825 1.523 . S
C3827 C3811 1.429 . S
C3827 C3823 1.429 . S
C3827 C3828 1.523 . S
C3828 C3812 1.368 . S
C3828 C3824 1.368 . S
C3828 C3827 1.523 . S
H3829 C3804 0.950 . S
H3830 C3806 0.950 . S
H3831 C3807 0.949 . S
H3832 C3809 0.950 . S
H3833 C3811 0.950 . S
C3834 C3835 1.349 . S
C3834 C3836 1.327 . S
C3834 H3859 0.950 1_455 S
C3835 C3834 1.349 . S
C3835 C3851 1.349 . S
C3836 C3834 1.327 . S
C3836 C3855 1.429 . S
C3836 H3860 0.950 1_455 S
C3837 C3854 1.574 . S
C3837 C3856 1.368 . S
C3837 H3861 0.949 . S
H3838 C3842 1.008 . S
C3839 C3840 1.349 . S
C3839 C3841 1.327 . S
C3839 H3862 0.950 . S
C3840 C3839 1.349 . S
C3840 C3852 1.349 1_455 S
C3841 C3839 1.327 . S
C3841 C3857 1.429 . S
C3841 H3863 0.950 . S
C3842 H3838 1.008 . S
C3842 C3850 1.506 1_655 S
C3842 C3858 1.339 1_655 S
H3843 C3851 0.950 . S
H3844 C3849 0.950 . S
H3845 C3850 0.928 1_655 S
H3846 C3852 0.950 . S
H3847 C3853 0.950 . S
H3848 C3854 0.949 . S
C3849 H3844 0.950 . S
C3849 C3851 1.327 . S
C3849 C3855 1.429 . S
C3850 C3842 1.506 1_455 S
C3850 H3845 0.928 1_455 S
C3850 C3856 1.436 . S
C3851 C3835 1.349 . S
C3851 H3843 0.950 . S
C3851 C3849 1.327 . S
C3852 C3840 1.349 1_655 S
C3852 H3846 0.950 . S
C3852 C3853 1.327 . S
C3853 H3847 0.950 . S
C3853 C3852 1.327 . S
C3853 C3857 1.429 1_655 S
C3854 C3837 1.574 . S
C3854 H3848 0.949 . S
C3854 C3858 1.368 . S
C3855 C3836 1.429 . S
C3855 C3849 1.429 . S
C3855 C3856 1.523 . S
C3856 C3837 1.368 . S
C3856 C3850 1.436 . S
C3856 C3855 1.523 . S
C3857 C3841 1.429 . S
C3857 C3853 1.429 1_455 S
C3857 C3858 1.523 . S
C3858 C3842 1.339 1_455 S
C3858 C3854 1.368 . S
C3858 C3857 1.523 . S
H3859 C3834 0.950 1_655 S
H3860 C3836 0.950 1_655 S
H3861 C3837 0.949 . S
H3862 C3839 0.950 . S
H3863 C3841 0.950 . S
C3864 C3865 1.349 . S
C3864 C3866 1.327 . S
C3864 H3889 0.950 . S
C3865 C3864 1.349 . S
C3865 C3881 1.349 . S
C3866 C3864 1.327 . S
C3866 C3885 1.429 . S
C3866 H3890 0.950 . S
C3867 C3884 1.574 . S
C3867 C3886 1.368 . S
C3867 H3891 0.949 . S
H3868 C3872 0.949 . S
C3869 C3870 1.349 . S
C3869 C3871 1.327 . S
C3869 H3892 0.950 . S
C3870 C3869 1.349 . S
C3870 C3882 1.349 . S
C3871 C3869 1.327 . S
C3871 C3887 1.429 . S
C3871 H3893 0.950 . S
C3872 H3868 0.949 . S
C3872 C3880 1.574 . S
C3872 C3888 1.368 . S
H3873 C3881 0.950 . S
H3874 C3879 0.950 . S
H3875 C3880 0.949 . S
H3876 C3882 0.950 . S
H3877 C3883 0.950 . S
H3878 C3884 0.949 . S
C3879 H3874 0.950 . S
C3879 C3881 1.327 . S
C3879 C3885 1.429 . S
C3880 C3872 1.574 . S
C3880 H3875 0.949 . S
C3880 C3886 1.368 . S
C3881 C3865 1.349 . S
C3881 H3873 0.950 . S
C3881 C3879 1.327 . S
C3882 C3870 1.349 . S
C3882 H3876 0.950 . S
C3882 C3883 1.327 . S
C3883 H3877 0.950 . S
C3883 C3882 1.327 . S
C3883 C3887 1.429 . S
C3884 C3867 1.574 . S
C3884 H3878 0.949 . S
C3884 C3888 1.368 . S
C3885 C3866 1.429 . S
C3885 C3879 1.429 . S
C3885 C3886 1.523 . S
C3886 C3867 1.368 . S
C3886 C3880 1.368 . S
C3886 C3885 1.523 . S
C3887 C3871 1.429 . S
C3887 C3883 1.429 . S
C3887 C3888 1.523 . S
C3888 C3872 1.368 . S
C3888 C3884 1.368 . S
C3888 C3887 1.523 . S
H3889 C3864 0.950 . S
H3890 C3866 0.950 . S
H3891 C3867 0.949 . S
H3892 C3869 0.950 . S
H3893 C3871 0.950 . S
C3894 C3895 1.349 . S
C3894 C3896 1.327 . S
C3894 H3919 0.950 1_565 S
C3895 C3894 1.349 . S
C3895 C3911 1.349 . S
C3896 C3894 1.327 . S
C3896 C3915 1.429 . S
C3896 H3920 0.950 1_565 S
C3897 C3914 1.574 . S
C3897 C3916 1.368 . S
C3897 H3921 0.949 . S
H3898 C3902 0.949 . S
C3899 C3900 1.349 . S
C3899 C3901 1.327 . S
C3899 H3922 0.950 . S
C3900 C3899 1.349 . S
C3900 C3912 1.349 1_565 S
C3901 C3899 1.327 . S
C3901 C3917 1.429 . S
C3901 H3923 0.950 . S
C3902 H3898 0.949 . S
C3902 C3910 1.569 . S
C3902 C3918 1.368 1_545 S
H3903 C3911 0.950 . S
H3904 C3909 0.950 . S
H3905 C3910 0.959 . S
H3906 C3912 0.950 . S
H3907 C3913 0.950 . S
H3908 C3914 0.949 . S
C3909 H3904 0.950 . S
C3909 C3911 1.327 . S
C3909 C3915 1.429 . S
C3910 C3902 1.569 . S
C3910 H3905 0.959 . S
C3910 C3916 1.362 1_545 S
C3911 C3895 1.349 . S
C3911 H3903 0.950 . S
C3911 C3909 1.327 . S
C3912 C3900 1.349 1_545 S
C3912 H3906 0.950 . S
C3912 C3913 1.327 . S
C3913 H3907 0.950 . S
C3913 C3912 1.327 . S
C3913 C3917 1.429 1_545 S
C3914 C3897 1.574 . S
C3914 H3908 0.949 . S
C3914 C3918 1.368 . S
C3915 C3896 1.429 . S
C3915 C3909 1.429 . S
C3915 C3916 1.523 . S
C3916 C3897 1.368 . S
C3916 C3910 1.362 1_565 S
C3916 C3915 1.523 . S
C3917 C3901 1.429 . S
C3917 C3913 1.429 1_565 S
C3917 C3918 1.523 . S
C3918 C3902 1.368 1_565 S
C3918 C3914 1.368 . S
C3918 C3917 1.523 . S
H3919 C3894 0.950 1_545 S
H3920 C3896 0.950 1_545 S
H3921 C3897 0.949 . S
H3922 C3899 0.950 . S
H3923 C3901 0.950 . S
C3924 C3925 1.349 . S
C3924 C3926 1.327 . S
C3924 H3949 0.958 . S
C3925 C3924 1.349 . S
C3925 C3941 1.349 . S
C3926 C3924 1.327 . S
C3926 C3945 1.429 . S
C3926 H3950 0.950 1_565 S
C3927 C3944 1.574 . S
C3927 C3946 1.368 . S
C3927 H3951 0.949 . S
H3928 C3932 0.949 . S
C3929 C3930 1.349 . S
C3929 C3931 1.327 . S
C3929 H3952 0.950 . S
C3930 C3929 1.349 . S
C3930 C3942 1.349 1_565 S
C3931 C3929 1.327 . S
C3931 C3947 1.429 . S
C3931 H3953 0.950 . S
C3932 H3928 0.949 . S
C3932 C3940 1.575 1_545 S
C3932 C3948 1.368 1_545 S
H3933 C3941 0.950 . S
H3934 C3939 0.950 . S
H3935 C3940 0.949 1_545 S
H3936 C3942 0.950 . S
H3937 C3943 0.950 . S
H3938 C3944 0.949 . S
C3939 H3934 0.950 . S
C3939 C3941 1.327 . S
C3939 C3945 1.429 . S
C3940 C3932 1.575 1_565 S
C3940 H3935 0.949 1_565 S
C3940 C3946 1.367 . S
C3941 C3925 1.349 . S
C3941 H3933 0.950 . S
C3941 C3939 1.327 . S
C3942 C3930 1.349 1_545 S
C3942 H3936 0.950 . S
C3942 C3943 1.327 . S
C3943 H3937 0.950 . S
C3943 C3942 1.327 . S
C3943 C3947 1.429 1_545 S
C3944 C3927 1.574 . S
C3944 H3938 0.949 . S
C3944 C3948 1.368 . S
C3945 C3926 1.429 . S
C3945 C3939 1.429 . S
C3945 C3946 1.523 . S
C3946 C3927 1.368 . S
C3946 C3940 1.367 . S
C3946 C3945 1.523 . S
C3947 C3931 1.429 . S
C3947 C3943 1.429 1_565 S
C3947 C3948 1.523 . S
C3948 C3932 1.368 1_565 S
C3948 C3944 1.368 . S
C3948 C3947 1.523 . S
H3949 C3924 0.958 . S
H3950 C3926 0.950 1_545 S
H3951 C3927 0.949 . S
H3952 C3929 0.950 . S
H3953 C3931 0.950 . S
C3954 C3955 1.349 . S
C3954 C3956 1.327 . S
C3954 H3979 0.950 . S
C3955 C3954 1.349 . S
C3955 C3971 1.349 . S
C3956 C3954 1.327 . S
C3956 C3975 1.429 . S
C3956 H3980 0.950 1_455 S
C3957 C3974 1.574 . S
C3957 C3976 1.368 . S
C3957 H3981 0.949 . S
H3958 C3962 0.949 . S
C3959 C3960 1.341 1_455 S
C3959 C3961 1.327 . S
C3959 H3982 0.950 . S
C3960 C3959 1.341 1_655 S
C3960 C3972 1.365 . S
C3961 C3959 1.327 . S
C3961 C3977 1.429 . S
C3961 H3983 0.950 . S
C3962 H3958 0.949 . S
C3962 C3970 1.576 1_655 S
C3962 C3978 1.368 1_655 S
H3963 C3971 0.950 . S
H3964 C3969 0.950 . S
H3965 C3970 0.944 1_655 S
H3966 C3972 0.950 . S
H3967 C3973 0.950 . S
H3968 C3974 0.949 . S
C3969 H3964 0.950 . S
C3969 C3971 1.327 . S
C3969 C3975 1.429 . S
C3970 C3962 1.576 1_455 S
C3970 H3965 0.944 1_455 S
C3970 C3976 1.371 . S
C3971 C3955 1.349 . S
C3971 H3963 0.950 . S
C3971 C3969 1.327 . S
C3972 C3960 1.365 . S
C3972 H3966 0.950 . S
C3972 C3973 1.327 . S
C3973 H3967 0.950 . S
C3973 C3972 1.327 . S
C3973 C3977 1.429 1_655 S
C3974 C3957 1.574 . S
C3974 H3968 0.949 . S
C3974 C3978 1.368 . S
C3975 C3956 1.429 . S
C3975 C3969 1.429 . S
C3975 C3976 1.523 . S
C3976 C3957 1.368 . S
C3976 C3970 1.371 . S
C3976 C3975 1.523 . S
C3977 C3961 1.429 . S
C3977 C3973 1.429 1_455 S
C3977 C3978 1.523 . S
C3978 C3962 1.368 1_455 S
C3978 C3974 1.368 . S
C3978 C3977 1.523 . S
H3979 C3954 0.950 . S
H3980 C3956 0.950 1_655 S
H3981 C3957 0.949 . S
H3982 C3959 0.950 . S
H3983 C3961 0.950 . S
C3984 C3985 1.349 . S
C3984 C3986 1.327 . S
C3984 H4009 0.950 . S
C3985 C3984 1.349 . S
C3985 C4001 1.349 . S
C3986 C3984 1.327 . S
C3986 C4005 1.429 . S
C3986 H4010 0.950 . S
C3987 C4004 1.574 . S
C3987 C4006 1.368 . S
C3987 H4011 0.949 . S
H3988 C3992 0.949 . S
C3989 C3990 1.349 . S
C3989 C3991 1.327 . S
C3989 H4012 0.950 . S
C3990 C3989 1.349 . S
C3990 C4002 1.349 . S
C3991 C3989 1.327 . S
C3991 C4007 1.429 . S
C3991 H4013 0.950 . S
C3992 H3988 0.949 . S
C3992 C4000 1.574 . S
C3992 C4008 1.368 . S
H3993 C4001 0.950 . S
H3994 C3999 0.950 . S
H3995 C4000 0.949 . S
H3996 C4002 0.950 . S
H3997 C4003 0.950 . S
H3998 C4004 0.949 . S
C3999 H3994 0.950 . S
C3999 C4001 1.327 . S
C3999 C4005 1.429 . S
C4000 C3992 1.574 . S
C4000 H3995 0.949 . S
C4000 C4006 1.368 . S
C4001 C3985 1.349 . S
C4001 H3993 0.950 . S
C4001 C3999 1.327 . S
C4002 C3990 1.349 . S
C4002 H3996 0.950 . S
C4002 C4003 1.327 . S
C4003 H3997 0.950 . S
C4003 C4002 1.327 . S
C4003 C4007 1.429 . S
C4004 C3987 1.574 . S
C4004 H3998 0.949 . S
C4004 C4008 1.368 . S
C4005 C3986 1.429 . S
C4005 C3999 1.429 . S
C4005 C4006 1.523 . S
C4006 C3987 1.368 . S
C4006 C4000 1.368 . S
C4006 C4005 1.523 . S
C4007 C3991 1.429 . S
C4007 C4003 1.429 . S
C4007 C4008 1.523 . S
C4008 C3992 1.368 . S
C4008 C4004 1.368 . S
C4008 C4007 1.523 . S
H4009 C3984 0.950 . S
H4010 C3986 0.950 . S
H4011 C3987 0.949 . S
H4012 C3989 0.950 . S
H4013 C3991 0.950 . S
C4014 C4015 1.349 . S
C4014 C4016 1.327 . S
C4014 H4039 0.950 . S
C4015 C4014 1.349 . S
C4015 C4031 1.349 . S
C4016 C4014 1.327 . S
C4016 C4035 1.429 . S
C4016 H4040 0.950 . S
C4017 C4034 1.574 . S
C4017 C4036 1.368 . S
C4017 H4041 0.949 . S
H4018 C4022 0.949 . S
C4019 C4020 1.349 . S
C4019 C4021 1.327 . S
C4019 H4042 0.950 . S
C4020 C4019 1.349 . S
C4020 C4032 1.349 . S
C4021 C4019 1.327 . S
C4021 C4037 1.429 . S
C4021 H4043 0.950 . S
C4022 H4018 0.949 . S
C4022 C4030 1.574 . S
C4022 C4038 1.368 . S
H4023 C4031 0.950 . S
H4024 C4029 0.950 . S
H4025 C4030 0.949 . S
H4026 C4032 0.950 . S
H4027 C4033 0.950 . S
H4028 C4034 0.949 . S
C4029 H4024 0.950 . S
C4029 C4031 1.327 . S
C4029 C4035 1.429 . S
C4030 C4022 1.574 . S
C4030 H4025 0.949 . S
C4030 C4036 1.368 . S
C4031 C4015 1.349 . S
C4031 H4023 0.950 . S
C4031 C4029 1.327 . S
C4032 C4020 1.349 . S
C4032 H4026 0.950 . S
C4032 C4033 1.327 . S
C4033 H4027 0.950 . S
C4033 C4032 1.327 . S
C4033 C4037 1.429 . S
C4034 C4017 1.574 . S
C4034 H4028 0.949 . S
C4034 C4038 1.368 . S
C4035 C4016 1.429 . S
C4035 C4029 1.429 . S
C4035 C4036 1.523 . S
C4036 C4017 1.368 . S
C4036 C4030 1.368 . S
C4036 C4035 1.523 . S
C4037 C4021 1.429 . S
C4037 C4033 1.429 . S
C4037 C4038 1.523 . S
C4038 C4022 1.368 . S
C4038 C4034 1.368 . S
C4038 C4037 1.523 . S
H4039 C4014 0.950 . S
H4040 C4016 0.950 . S
H4041 C4017 0.949 . S
H4042 C4019 0.950 . S
H4043 C4021 0.950 . S
C4044 C4045 1.349 . S
C4044 C4046 1.327 . S
C4044 H4069 0.950 . S
C4045 C4044 1.349 . S
C4045 C4061 1.349 . S
C4046 C4044 1.327 . S
C4046 C4065 1.429 . S
C4046 H4070 0.950 . S
C4047 C4064 1.574 . S
C4047 C4066 1.368 . S
C4047 H4071 0.949 . S
H4048 C4052 0.949 . S
C4049 C4050 1.349 . S
C4049 C4051 1.327 . S
C4049 H4072 0.950 . S
C4050 C4049 1.349 . S
C4050 C4062 1.349 . S
C4051 C4049 1.327 . S
C4051 C4067 1.429 . S
C4051 H4073 0.950 . S
C4052 H4048 0.949 . S
C4052 C4060 1.574 . S
C4052 C4068 1.368 . S
H4053 C4061 0.950 . S
H4054 C4059 0.950 . S
H4055 C4060 0.949 . S
H4056 C4062 0.950 . S
H4057 C4063 0.950 . S
H4058 C4064 0.949 . S
C4059 H4054 0.950 . S
C4059 C4061 1.327 . S
C4059 C4065 1.429 . S
C4060 C4052 1.574 . S
C4060 H4055 0.949 . S
C4060 C4066 1.368 . S
C4061 C4045 1.349 . S
C4061 H4053 0.950 . S
C4061 C4059 1.327 . S
C4062 C4050 1.349 . S
C4062 H4056 0.950 . S
C4062 C4063 1.327 . S
C4063 H4057 0.950 . S
C4063 C4062 1.327 . S
C4063 C4067 1.429 . S
C4064 C4047 1.574 . S
C4064 H4058 0.949 . S
C4064 C4068 1.368 . S
C4065 C4046 1.429 . S
C4065 C4059 1.429 . S
C4065 C4066 1.523 . S
C4066 C4047 1.368 . S
C4066 C4060 1.368 . S
C4066 C4065 1.523 . S
C4067 C4051 1.429 . S
C4067 C4063 1.429 . S
C4067 C4068 1.523 . S
C4068 C4052 1.368 . S
C4068 C4064 1.368 . S
C4068 C4067 1.523 . S
H4069 C4044 0.950 . S
H4070 C4046 0.950 . S
H4071 C4047 0.949 . S
H4072 C4049 0.950 . S
H4073 C4051 0.950 . S
C4074 C4075 1.349 . S
C4074 C4076 1.327 . S
C4074 H4099 0.950 . S
C4075 C4074 1.349 . S
C4075 C4091 1.349 . S
C4076 C4074 1.327 . S
C4076 C4095 1.429 . S
C4076 H4100 0.950 . S
C4077 C4094 1.574 . S
C4077 C4096 1.368 . S
C4077 H4101 0.949 . S
H4078 C4082 0.949 . S
C4079 C4080 1.349 . S
C4079 C4081 1.327 . S
C4079 H4102 0.950 . S
C4080 C4079 1.349 . S
C4080 C4092 1.349 . S
C4081 C4079 1.327 . S
C4081 C4097 1.429 . S
C4081 H4103 0.950 . S
C4082 H4078 0.949 . S
C4082 C4090 1.574 . S
C4082 C4098 1.368 . S
H4083 C4091 0.950 . S
H4084 C4089 0.950 . S
H4085 C4090 0.949 . S
H4086 C4092 0.950 . S
H4087 C4093 0.950 . S
H4088 C4094 0.949 . S
C4089 H4084 0.950 . S
C4089 C4091 1.327 . S
C4089 C4095 1.429 . S
C4090 C4082 1.574 . S
C4090 H4085 0.949 . S
C4090 C4096 1.368 . S
C4091 C4075 1.349 . S
C4091 H4083 0.950 . S
C4091 C4089 1.327 . S
C4092 C4080 1.349 . S
C4092 H4086 0.950 . S
C4092 C4093 1.327 . S
C4093 H4087 0.950 . S
C4093 C4092 1.327 . S
C4093 C4097 1.429 . S
C4094 C4077 1.574 . S
C4094 H4088 0.949 . S
C4094 C4098 1.368 . S
C4095 C4076 1.429 . S
C4095 C4089 1.429 . S
C4095 C4096 1.523 . S
C4096 C4077 1.368 . S
C4096 C4090 1.368 . S
C4096 C4095 1.523 . S
C4097 C4081 1.429 . S
C4097 C4093 1.429 . S
C4097 C4098 1.523 . S
C4098 C4082 1.368 . S
C4098 C4094 1.368 . S
C4098 C4097 1.523 . S
H4099 C4074 0.950 . S
H4100 C4076 0.950 . S
H4101 C4077 0.949 . S
H4102 C4079 0.950 . S
H4103 C4081 0.950 . S
C4104 C4105 1.349 . S
C4104 C4106 1.327 . S
C4104 H4129 0.950 . S
C4105 C4104 1.349 . S
C4105 C4121 1.349 . S
C4106 C4104 1.327 . S
C4106 C4125 1.429 . S
C4106 H4130 0.950 . S
C4107 C4124 1.574 . S
C4107 C4126 1.368 . S
C4107 H4131 0.949 . S
H4108 C4112 0.949 1_565 S
C4109 C4110 1.349 . S
C4109 C4111 1.327 . S
C4109 H4132 0.950 . S
C4110 C4109 1.349 . S
C4110 C4122 1.349 1_545 S
C4111 C4109 1.327 . S
C4111 C4127 1.429 . S
C4111 H4133 0.950 . S
C4112 H4108 0.949 1_545 S
C4112 C4120 1.574 . S
C4112 C4128 1.368 . S
H4113 C4121 0.950 . S
H4114 C4119 0.950 . S
H4115 C4120 0.947 1_565 S
H4116 C4122 0.950 . S
H4117 C4123 0.953 1_565 S
H4118 C4124 0.949 . S
C4119 H4114 0.950 . S
C4119 C4121 1.327 . S
C4119 C4125 1.429 . S
C4120 C4112 1.574 . S
C4120 H4115 0.947 1_545 S
C4120 C4126 1.368 . S
C4121 C4105 1.349 . S
C4121 H4113 0.950 . S
C4121 C4119 1.327 . S
C4122 C4110 1.349 1_565 S
C4122 H4116 0.950 . S
C4122 C4123 1.331 1_565 S
C4123 H4117 0.953 1_545 S
C4123 C4122 1.331 1_545 S
C4123 C4127 1.421 . S
C4124 C4107 1.574 . S
C4124 H4118 0.949 . S
C4124 C4128 1.368 . S
C4125 C4106 1.429 . S
C4125 C4119 1.429 . S
C4125 C4126 1.523 . S
C4126 C4107 1.368 . S
C4126 C4120 1.368 . S
C4126 C4125 1.523 . S
C4127 C4111 1.429 . S
C4127 C4123 1.421 . S
C4127 C4128 1.523 . S
C4128 C4112 1.368 . S
C4128 C4124 1.368 . S
C4128 C4127 1.523 . S
H4129 C4104 0.950 . S
H4130 C4106 0.950 . S
H4131 C4107 0.949 . S
H4132 C4109 0.950 . S
H4133 C4111 0.950 . S
C4134 C4135 1.349 . S
C4134 C4136 1.327 . S
C4134 H4159 0.950 . S
C4135 C4134 1.349 . S
C4135 C4151 1.349 . S
C4136 C4134 1.327 . S
C4136 C4155 1.429 . S
C4136 H4160 0.950 . S
C4137 C4154 1.563 . S
C4137 C4156 1.368 . S
C4137 H4161 0.949 1_655 S
H4138 C4142 0.949 . S
C4139 C4140 1.349 1_455 S
C4139 C4141 1.290 . S
C4139 H4162 0.950 . S
C4140 C4139 1.349 1_655 S
C4140 C4152 1.349 . S
C4141 C4139 1.290 . S
C4141 C4157 1.388 1_455 S
C4141 H4163 1.037 . S
C4142 H4138 0.949 . S
C4142 C4150 1.574 . S
C4142 C4158 1.368 . S
H4143 C4151 0.934 1_455 S
H4144 C4149 0.950 1_455 S
H4145 C4150 0.949 . S
H4146 C4152 0.950 . S
H4147 C4153 0.950 . S
H4148 C4154 0.938 1_455 S
C4149 H4144 0.950 1_655 S
C4149 C4151 1.327 . S
C4149 C4155 1.429 . S
C4150 C4142 1.574 . S
C4150 H4145 0.949 . S
C4150 C4156 1.368 . S
C4151 C4135 1.349 . S
C4151 H4143 0.934 1_655 S
C4151 C4149 1.327 . S
C4152 C4140 1.349 . S
C4152 H4146 0.950 . S
C4152 C4153 1.327 . S
C4153 H4147 0.950 . S
C4153 C4152 1.327 . S
C4153 C4157 1.429 . S
C4154 C4137 1.563 . S
C4154 H4148 0.938 1_655 S
C4154 C4158 1.392 . S
C4155 C4136 1.429 . S
C4155 C4149 1.429 . S
C4155 C4156 1.523 . S
C4156 C4137 1.368 . S
C4156 C4150 1.368 . S
C4156 C4155 1.523 . S
C4157 C4141 1.388 1_655 S
C4157 C4153 1.429 . S
C4157 C4158 1.523 . S
C4158 C4142 1.368 . S
C4158 C4154 1.392 . S
C4158 C4157 1.523 . S
H4159 C4134 0.950 . S
H4160 C4136 0.950 . S
H4161 C4137 0.949 1_455 S
H4162 C4139 0.950 . S
H4163 C4141 1.037 . S
C4164 C4165 1.349 . S
C4164 C4166 1.327 . S
C4164 H4189 0.950 . S
C4165 C4164 1.349 . S
C4165 C4181 1.349 . S
C4166 C4164 1.327 . S
C4166 C4185 1.429 . S
C4166 H4190 0.950 . S
C4167 C4184 1.574 . S
C4167 C4186 1.368 . S
C4167 H4191 0.949 . S
H4168 C4172 0.949 . S
C4169 C4170 1.349 . S
C4169 C4171 1.327 . S
C4169 H4192 0.950 . S
C4170 C4169 1.349 . S
C4170 C4182 1.349 . S
C4171 C4169 1.327 . S
C4171 C4187 1.429 . S
C4171 H4193 0.950 . S
C4172 H4168 0.949 . S
C4172 C4180 1.574 . S
C4172 C4188 1.368 . S
H4173 C4181 0.950 . S
H4174 C4179 0.950 . S
H4175 C4180 0.949 . S
H4176 C4182 0.950 . S
H4177 C4183 0.950 . S
H4178 C4184 0.949 . S
C4179 H4174 0.950 . S
C4179 C4181 1.327 . S
C4179 C4185 1.429 . S
C4180 C4172 1.574 . S
C4180 H4175 0.949 . S
C4180 C4186 1.368 . S
C4181 C4165 1.349 . S
C4181 H4173 0.950 . S
C4181 C4179 1.327 . S
C4182 C4170 1.349 . S
C4182 H4176 0.950 . S
C4182 C4183 1.327 . S
C4183 H4177 0.950 . S
C4183 C4182 1.327 . S
C4183 C4187 1.429 . S
C4184 C4167 1.574 . S
C4184 H4178 0.949 . S
C4184 C4188 1.368 . S
C4185 C4166 1.429 . S
C4185 C4179 1.429 . S
C4185 C4186 1.523 . S
C4186 C4167 1.368 . S
C4186 C4180 1.368 . S
C4186 C4185 1.523 . S
C4187 C4171 1.429 . S
C4187 C4183 1.429 . S
C4187 C4188 1.523 . S
C4188 C4172 1.368 . S
C4188 C4184 1.368 . S
C4188 C4187 1.523 . S
H4189 C4164 0.950 . S
H4190 C4166 0.950 . S
H4191 C4167 0.949 . S
H4192 C4169 0.950 . S
H4193 C4171 0.950 . S
C4194 C4195 1.349 . S
C4194 C4196 1.327 . S
C4194 H4219 0.950 . S
C4195 C4194 1.349 . S
C4195 C4211 1.349 . S
C4196 C4194 1.327 . S
C4196 C4215 1.429 . S
C4196 H4220 0.950 . S
C4197 C4214 1.574 . S
C4197 C4216 1.368 . S
C4197 H4221 0.949 . S
H4198 C4202 0.949 . S
C4199 C4200 1.349 . S
C4199 C4201 1.327 . S
C4199 H4222 0.950 . S
C4200 C4199 1.349 . S
C4200 C4212 1.349 . S
C4201 C4199 1.327 . S
C4201 C4217 1.429 . S
C4201 H4223 0.950 . S
C4202 H4198 0.949 . S
C4202 C4210 1.574 . S
C4202 C4218 1.368 . S
H4203 C4211 0.950 . S
H4204 C4209 0.950 . S
H4205 C4210 0.949 . S
H4206 C4212 0.950 . S
H4207 C4213 0.950 . S
H4208 C4214 0.949 . S
C4209 H4204 0.950 . S
C4209 C4211 1.327 . S
C4209 C4215 1.429 . S
C4210 C4202 1.574 . S
C4210 H4205 0.949 . S
C4210 C4216 1.368 . S
C4211 C4195 1.349 . S
C4211 H4203 0.950 . S
C4211 C4209 1.327 . S
C4212 C4200 1.349 . S
C4212 H4206 0.950 . S
C4212 C4213 1.327 . S
C4213 H4207 0.950 . S
C4213 C4212 1.327 . S
C4213 C4217 1.429 . S
C4214 C4197 1.574 . S
C4214 H4208 0.949 . S
C4214 C4218 1.368 . S
C4215 C4196 1.429 . S
C4215 C4209 1.429 . S
C4215 C4216 1.523 . S
C4216 C4197 1.368 . S
C4216 C4210 1.368 . S
C4216 C4215 1.523 . S
C4217 C4201 1.429 . S
C4217 C4213 1.429 . S
C4217 C4218 1.523 . S
C4218 C4202 1.368 . S
C4218 C4214 1.368 . S
C4218 C4217 1.523 . S
H4219 C4194 0.950 . S
H4220 C4196 0.950 . S
H4221 C4197 0.949 . S
H4222 C4199 0.950 . S
H4223 C4201 0.950 . S
C4224 C4225 1.349 . S
C4224 C4226 1.327 . S
C4224 H4249 0.950 . S
C4225 C4224 1.349 . S
C4225 C4241 1.349 . S
C4226 C4224 1.327 . S
C4226 C4245 1.429 . S
C4226 H4250 0.950 . S
C4227 C4244 1.574 . S
C4227 C4246 1.368 . S
C4227 H4251 0.949 . S
H4228 C4232 0.949 . S
C4229 C4230 1.349 . S
C4229 C4231 1.327 . S
C4229 H4252 0.950 . S
C4230 C4229 1.349 . S
C4230 C4242 1.349 . S
C4231 C4229 1.327 . S
C4231 C4247 1.429 . S
C4231 H4253 0.950 . S
C4232 H4228 0.949 . S
C4232 C4240 1.574 . S
C4232 C4248 1.368 . S
H4233 C4241 0.950 . S
H4234 C4239 0.950 . S
H4235 C4240 0.949 . S
H4236 C4242 0.950 . S
H4237 C4243 0.950 . S
H4238 C4244 0.949 . S
C4239 H4234 0.950 . S
C4239 C4241 1.327 . S
C4239 C4245 1.429 . S
C4240 C4232 1.574 . S
C4240 H4235 0.949 . S
C4240 C4246 1.368 . S
C4241 C4225 1.349 . S
C4241 H4233 0.950 . S
C4241 C4239 1.327 . S
C4242 C4230 1.349 . S
C4242 H4236 0.950 . S
C4242 C4243 1.327 . S
C4243 H4237 0.950 . S
C4243 C4242 1.327 . S
C4243 C4247 1.429 . S
C4244 C4227 1.574 . S
C4244 H4238 0.949 . S
C4244 C4248 1.368 . S
C4245 C4226 1.429 . S
C4245 C4239 1.429 . S
C4245 C4246 1.523 . S
C4246 C4227 1.368 . S
C4246 C4240 1.368 . S
C4246 C4245 1.523 . S
C4247 C4231 1.429 . S
C4247 C4243 1.429 . S
C4247 C4248 1.523 . S
C4248 C4232 1.368 . S
C4248 C4244 1.368 . S
C4248 C4247 1.523 . S
H4249 C4224 0.950 . S
H4250 C4226 0.950 . S
H4251 C4227 0.949 . S
H4252 C4229 0.950 . S
H4253 C4231 0.950 . S
C4254 C4255 1.349 . S
C4254 C4256 1.327 . S
C4254 H4279 0.950 . S
C4255 C4254 1.349 . S
C4255 C4271 1.349 . S
C4256 C4254 1.327 . S
C4256 C4275 1.429 . S
C4256 H4280 0.950 . S
C4257 C4274 1.574 . S
C4257 C4276 1.368 . S
C4257 H4281 0.949 . S
H4258 C4262 0.949 . S
C4259 C4260 1.349 . S
C4259 C4261 1.327 . S
C4259 H4282 0.950 . S
C4260 C4259 1.349 . S
C4260 C4272 1.349 . S
C4261 C4259 1.327 . S
C4261 C4277 1.429 . S
C4261 H4283 0.950 . S
C4262 H4258 0.949 . S
C4262 C4270 1.574 . S
C4262 C4278 1.368 . S
H4263 C4271 0.950 . S
H4264 C4269 0.950 . S
H4265 C4270 0.949 . S
H4266 C4272 0.950 . S
H4267 C4273 0.950 . S
H4268 C4274 0.949 . S
C4269 H4264 0.950 . S
C4269 C4271 1.327 . S
C4269 C4275 1.429 . S
C4270 C4262 1.574 . S
C4270 H4265 0.949 . S
C4270 C4276 1.368 . S
C4271 C4255 1.349 . S
C4271 H4263 0.950 . S
C4271 C4269 1.327 . S
C4272 C4260 1.349 . S
C4272 H4266 0.950 . S
C4272 C4273 1.327 . S
C4273 H4267 0.950 . S
C4273 C4272 1.327 . S
C4273 C4277 1.429 . S
C4274 C4257 1.574 . S
C4274 H4268 0.949 . S
C4274 C4278 1.368 . S
C4275 C4256 1.429 . S
C4275 C4269 1.429 . S
C4275 C4276 1.523 . S
C4276 C4257 1.368 . S
C4276 C4270 1.368 . S
C4276 C4275 1.523 . S
C4277 C4261 1.429 . S
C4277 C4273 1.429 . S
C4277 C4278 1.523 . S
C4278 C4262 1.368 . S
C4278 C4274 1.368 . S
C4278 C4277 1.523 . S
H4279 C4254 0.950 . S
H4280 C4256 0.950 . S
H4281 C4257 0.949 . S
H4282 C4259 0.950 . S
H4283 C4261 0.950 . S
C4284 C4285 1.349 . S
C4284 C4286 1.327 . S
C4284 H4309 0.950 . S
C4285 C4284 1.349 . S
C4285 C4301 1.349 . S
C4286 C4284 1.327 . S
C4286 C4305 1.429 . S
C4286 H4310 0.950 . S
C4287 C4304 1.574 . S
C4287 C4306 1.368 . S
C4287 H4311 0.949 . S
H4288 C4292 0.949 . S
C4289 C4290 1.349 . S
C4289 C4291 1.327 . S
C4289 H4312 0.950 . S
C4290 C4289 1.349 . S
C4290 C4302 1.349 . S
C4291 C4289 1.327 . S
C4291 C4307 1.429 . S
C4291 H4313 0.950 . S
C4292 H4288 0.949 . S
C4292 C4300 1.574 . S
C4292 C4308 1.368 . S
H4293 C4301 0.950 . S
H4294 C4299 0.950 . S
H4295 C4300 0.949 . S
H4296 C4302 0.950 . S
H4297 C4303 0.950 . S
H4298 C4304 0.949 . S
C4299 H4294 0.950 . S
C4299 C4301 1.327 . S
C4299 C4305 1.429 . S
C4300 C4292 1.574 . S
C4300 H4295 0.949 . S
C4300 C4306 1.368 . S
C4301 C4285 1.349 . S
C4301 H4293 0.950 . S
C4301 C4299 1.327 . S
C4302 C4290 1.349 . S
C4302 H4296 0.950 . S
C4302 C4303 1.327 . S
C4303 H4297 0.950 . S
C4303 C4302 1.327 . S
C4303 C4307 1.429 . S
C4304 C4287 1.574 . S
C4304 H4298 0.949 . S
C4304 C4308 1.368 . S
C4305 C4286 1.429 . S
C4305 C4299 1.429 . S
C4305 C4306 1.523 . S
C4306 C4287 1.368 . S
C4306 C4300 1.368 . S
C4306 C4305 1.523 . S
C4307 C4291 1.429 . S
C4307 C4303 1.429 . S
C4307 C4308 1.523 . S
C4308 C4292 1.368 . S
C4308 C4304 1.368 . S
C4308 C4307 1.523 . S
H4309 C4284 0.950 . S
H4310 C4286 0.950 . S
H4311 C4287 0.949 . S
H4312 C4289 0.950 . S
H4313 C4291 0.950 . S
C4314 C4315 1.349 . S
C4314 C4316 1.327 . S
C4314 H4339 0.950 . S
C4315 C4314 1.349 . S
C4315 C4331 1.349 . S
C4316 C4314 1.327 . S
C4316 C4335 1.429 . S
C4316 H4340 0.950 . S
C4317 C4334 1.574 . S
C4317 C4336 1.368 . S
C4317 H4341 0.949 . S
H4318 C4322 0.949 . S
C4319 C4320 1.349 . S
C4319 C4321 1.327 . S
C4319 H4342 0.950 . S
C4320 C4319 1.349 . S
C4320 C4332 1.349 . S
C4321 C4319 1.327 . S
C4321 C4337 1.429 . S
C4321 H4343 0.950 . S
C4322 H4318 0.949 . S
C4322 C4330 1.574 . S
C4322 C4338 1.368 . S
H4323 C4331 0.950 . S
H4324 C4329 0.950 . S
H4325 C4330 0.949 . S
H4326 C4332 0.950 . S
H4327 C4333 0.950 . S
H4328 C4334 0.949 . S
C4329 H4324 0.950 . S
C4329 C4331 1.327 . S
C4329 C4335 1.429 . S
C4330 C4322 1.574 . S
C4330 H4325 0.949 . S
C4330 C4336 1.368 . S
C4331 C4315 1.349 . S
C4331 H4323 0.950 . S
C4331 C4329 1.327 . S
C4332 C4320 1.349 . S
C4332 H4326 0.950 . S
C4332 C4333 1.327 . S
C4333 H4327 0.950 . S
C4333 C4332 1.327 . S
C4333 C4337 1.429 . S
C4334 C4317 1.574 . S
C4334 H4328 0.949 . S
C4334 C4338 1.368 . S
C4335 C4316 1.429 . S
C4335 C4329 1.429 . S
C4335 C4336 1.523 . S
C4336 C4317 1.368 . S
C4336 C4330 1.368 . S
C4336 C4335 1.523 . S
C4337 C4321 1.429 . S
C4337 C4333 1.429 . S
C4337 C4338 1.523 . S
C4338 C4322 1.368 . S
C4338 C4334 1.368 . S
C4338 C4337 1.523 . S
H4339 C4314 0.950 . S
H4340 C4316 0.950 . S
H4341 C4317 0.949 . S
H4342 C4319 0.950 . S
H4343 C4321 0.950 . S
C4344 C4345 1.349 . S
C4344 C4346 1.327 . S
C4344 H4369 0.950 . S
C4345 C4344 1.349 . S
C4345 C4361 1.349 . S
C4346 C4344 1.327 . S
C4346 C4365 1.429 . S
C4346 H4370 0.950 . S
C4347 C4364 1.574 . S
C4347 C4366 1.368 . S
C4347 H4371 0.949 . S
H4348 C4352 0.949 . S
C4349 C4350 1.349 . S
C4349 C4351 1.327 . S
C4349 H4372 0.950 . S
C4350 C4349 1.349 . S
C4350 C4362 1.349 . S
C4351 C4349 1.327 . S
C4351 C4367 1.429 . S
C4351 H4373 0.950 . S
C4352 H4348 0.949 . S
C4352 C4360 1.574 . S
C4352 C4368 1.368 . S
H4353 C4361 0.950 . S
H4354 C4359 0.950 . S
H4355 C4360 0.949 . S
H4356 C4362 0.950 . S
H4357 C4363 0.950 . S
H4358 C4364 0.949 . S
C4359 H4354 0.950 . S
C4359 C4361 1.327 . S
C4359 C4365 1.429 . S
C4360 C4352 1.574 . S
C4360 H4355 0.949 . S
C4360 C4366 1.368 . S
C4361 C4345 1.349 . S
C4361 H4353 0.950 . S
C4361 C4359 1.327 . S
C4362 C4350 1.349 . S
C4362 H4356 0.950 . S
C4362 C4363 1.327 . S
C4363 H4357 0.950 . S
C4363 C4362 1.327 . S
C4363 C4367 1.429 . S
C4364 C4347 1.574 . S
C4364 H4358 0.949 . S
C4364 C4368 1.368 . S
C4365 C4346 1.429 . S
C4365 C4359 1.429 . S
C4365 C4366 1.523 . S
C4366 C4347 1.368 . S
C4366 C4360 1.368 . S
C4366 C4365 1.523 . S
C4367 C4351 1.429 . S
C4367 C4363 1.429 . S
C4367 C4368 1.523 . S
C4368 C4352 1.368 . S
C4368 C4364 1.368 . S
C4368 C4367 1.523 . S
H4369 C4344 0.950 . S
H4370 C4346 0.950 . S
H4371 C4347 0.949 . S
H4372 C4349 0.950 . S
H4373 C4351 0.950 . S
C4374 C4375 1.349 . S
C4374 C4376 1.327 . S
C4374 H4399 0.950 . S
C4375 C4374 1.349 . S
C4375 C4391 1.349 . S
C4376 C4374 1.327 . S
C4376 C4395 1.429 . S
C4376 H4400 0.950 . S
C4377 C4394 1.574 . S
C4377 C4396 1.368 1_455 S
C4377 H4401 0.949 . S
H4378 C4382 0.949 . S
C4379 C4380 1.349 1_455 S
C4379 C4381 1.327 . S
C4379 H4402 0.950 . S
C4380 C4379 1.349 1_655 S
C4380 C4392 1.349 . S
C4381 C4379 1.327 . S
C4381 C4397 1.429 1_455 S
C4381 H4403 0.950 . S
C4382 H4378 0.949 . S
C4382 C4390 1.574 . S
C4382 C4398 1.368 . S
H4383 C4391 0.950 1_455 S
H4384 C4389 0.985 . S
H4385 C4390 0.949 . S
H4386 C4392 0.950 . S
H4387 C4393 0.950 . S
H4388 C4394 0.949 . S
C4389 H4384 0.985 . S
C4389 C4391 1.310 1_455 S
C4389 C4395 1.412 1_455 S
C4390 C4382 1.574 . S
C4390 H4385 0.949 . S
C4390 C4396 1.368 . S
C4391 C4375 1.349 . S
C4391 H4383 0.950 1_655 S
C4391 C4389 1.310 1_655 S
C4392 C4380 1.349 . S
C4392 H4386 0.950 . S
C4392 C4393 1.327 . S
C4393 H4387 0.950 . S
C4393 C4392 1.327 . S
C4393 C4397 1.429 . S
C4394 C4377 1.574 . S
C4394 H4388 0.949 . S
C4394 C4398 1.368 1_455 S
C4395 C4376 1.429 . S
C4395 C4389 1.412 1_655 S
C4395 C4396 1.523 . S
C4396 C4377 1.368 1_655 S
C4396 C4390 1.368 . S
C4396 C4395 1.523 . S
C4397 C4381 1.429 1_655 S
C4397 C4393 1.429 . S
C4397 C4398 1.523 . S
C4398 C4382 1.368 . S
C4398 C4394 1.368 1_655 S
C4398 C4397 1.523 . S
H4399 C4374 0.950 . S
H4400 C4376 0.950 . S
H4401 C4377 0.949 . S
H4402 C4379 0.950 . S
H4403 C4381 0.950 . S
C4404 C4405 1.349 . S
C4404 C4406 1.327 . S
C4404 H4429 0.950 . S
C4405 C4404 1.349 . S
C4405 C4421 1.349 . S
C4406 C4404 1.327 . S
C4406 C4425 1.429 . S
C4406 H4430 0.950 . S
C4407 C4424 1.574 . S
C4407 C4426 1.368 . S
C4407 H4431 0.949 . S
H4408 C4412 0.949 . S
C4409 C4410 1.349 . S
C4409 C4411 1.327 . S
C4409 H4432 0.950 . S
C4410 C4409 1.349 . S
C4410 C4422 1.349 . S
C4411 C4409 1.327 . S
C4411 C4427 1.429 . S
C4411 H4433 0.950 . S
C4412 H4408 0.949 . S
C4412 C4420 1.574 . S
C4412 C4428 1.368 . S
H4413 C4421 0.950 . S
H4414 C4419 0.950 . S
H4415 C4420 0.949 . S
H4416 C4422 0.950 . S
H4417 C4423 0.950 . S
H4418 C4424 0.949 . S
C4419 H4414 0.950 . S
C4419 C4421 1.327 . S
C4419 C4425 1.429 . S
C4420 C4412 1.574 . S
C4420 H4415 0.949 . S
C4420 C4426 1.368 . S
C4421 C4405 1.349 . S
C4421 H4413 0.950 . S
C4421 C4419 1.327 . S
C4422 C4410 1.349 . S
C4422 H4416 0.950 . S
C4422 C4423 1.327 . S
C4423 H4417 0.950 . S
C4423 C4422 1.327 . S
C4423 C4427 1.429 . S
C4424 C4407 1.574 . S
C4424 H4418 0.949 . S
C4424 C4428 1.368 . S
C4425 C4406 1.429 . S
C4425 C4419 1.429 . S
C4425 C4426 1.523 . S
C4426 C4407 1.368 . S
C4426 C4420 1.368 . S
C4426 C4425 1.523 . S
C4427 C4411 1.429 . S
C4427 C4423 1.429 . S
C4427 C4428 1.523 . S
C4428 C4412 1.368 . S
C4428 C4424 1.368 . S
C4428 C4427 1.523 . S
H4429 C4404 0.950 . S
H4430 C4406 0.950 . S
H4431 C4407 0.949 . S
H4432 C4409 0.950 . S
H4433 C4411 0.950 . S
C4434 C4435 1.349 . S
C4434 C4436 1.327 . S
C4434 H4459 0.950 . S
C4435 C4434 1.349 . S
C4435 C4451 1.349 . S
C4436 C4434 1.327 . S
C4436 C4455 1.429 . S
C4436 H4460 0.950 . S
C4437 C4454 1.574 . S
C4437 C4456 1.368 1_565 S
C4437 H4461 0.949 . S
H4438 C4442 0.949 . S
C4439 C4440 1.349 1_565 S
C4439 C4441 1.327 . S
C4439 H4462 0.950 . S
C4440 C4439 1.349 1_545 S
C4440 C4452 1.349 . S
C4441 C4439 1.327 . S
C4441 C4457 1.429 1_565 S
C4441 H4463 0.950 . S
C4442 H4438 0.949 . S
C4442 C4450 1.574 . S
C4442 C4458 1.368 . S
H4443 C4451 0.950 1_565 S
H4444 C4449 0.917 1_565 S
H4445 C4450 0.949 . S
H4446 C4452 0.950 . S
H4447 C4453 0.950 . S
H4448 C4454 0.949 . S
C4449 H4444 0.917 1_545 S
C4449 C4451 1.314 . S
C4449 C4455 1.476 . S
C4450 C4442 1.574 . S
C4450 H4445 0.949 . S
C4450 C4456 1.368 . S
C4451 C4435 1.349 . S
C4451 H4443 0.950 1_545 S
C4451 C4449 1.314 . S
C4452 C4440 1.349 . S
C4452 H4446 0.950 . S
C4452 C4453 1.327 . S
C4453 H4447 0.950 . S
C4453 C4452 1.327 . S
C4453 C4457 1.429 . S
C4454 C4437 1.574 . S
C4454 H4448 0.949 . S
C4454 C4458 1.368 1_565 S
C4455 C4436 1.429 . S
C4455 C4449 1.476 . S
C4455 C4456 1.523 . S
C4456 C4437 1.368 1_545 S
C4456 C4450 1.368 . S
C4456 C4455 1.523 . S
C4457 C4441 1.429 1_545 S
C4457 C4453 1.429 . S
C4457 C4458 1.523 . S
C4458 C4442 1.368 . S
C4458 C4454 1.368 1_545 S
C4458 C4457 1.523 . S
H4459 C4434 0.950 . S
H4460 C4436 0.950 . S
H4461 C4437 0.949 . S
H4462 C4439 0.950 . S
H4463 C4441 0.950 . S
C2305 C4 1.215 1_655 S
C2310 C1307 0.997 1_655 S
C2335 C26 1.623 . S
C2340 C1447 1.040 . S
C2370 C1535 1.062 . S
C2365 C32 1.192 . S
C2395 C40 1.296 . S
C2400 C1675 0.948 1_565 S
C2425 C12 1.315 . S
C2430 C1789 1.051 . S
C2455 C18 1.521 1_556 S
C2460 C1877 1.168 . S
C2485 C46 1.184 . S
C2490 C1763 1.018 . S
C2520 C1903 1.244 . S
C2515 C68 1.533 . S
C2550 C1649 1.040 . S
C2545 C74 1.271 . S
C2575 C82 1.293 . S
C2580 C1561 0.943 . S
C2610 C1333 0.996 . S
C2605 C54 1.346 . S
C2635 C60 1.436 . S
C2640 C1421 1.296 . S
C2665 C88 1.673 . S
C2670 C1991 1.277 . S
C2695 C110 1.735 . S
C2700 C2131 1.114 . S
C2730 C2219 1.248 . S
C2725 C116 1.643 . S
C2755 C124 1.554 . S
C2760 C307 1.005 . S
C2785 C96 1.659 . S
C2790 C421 1.084 . S
C2815 C102 1.614 . S
C2820 C509 1.224 . S
C2845 C130 1.405 . S
C2850 C395 1.283 . S
C2875 C152 1.647 . S
C2880 C535 1.372 . S
C2910 C281 1.436 . S
C2905 C158 1.580 . S
C2940 C2245 1.361 . S
C2935 C166 1.647 . S
C2970 C2017 1.239 . S
C2965 C138 1.516 . S
C3000 C2105 1.443 . S
C2995 C144 1.567 . S
C3025 C172 1.509 . S
C3030 C623 1.134 . S
C3055 C194 1.738 . S
C3060 C763 1.106 . S
C3085 C200 1.675 . S
C3090 C851 1.272 . S
C3115 C208 1.710 . S
C3120 C991 1.124 . S
C3150 C1105 1.051 . S
C3145 C180 1.613 . S
C3180 C1193 1.260 . S
C3175 C186 1.637 . S
C3210 C1079 1.458 . S
C3205 C214 1.593 . S
C3240 C1219 1.365 . S
C3235 C236 1.638 . S
C3265 C242 1.523 . S
C3270 C965 1.393 . S
C3300 C877 1.206 . S
C3295 C250 1.462 . S
C3325 C222 1.589 . S
C3330 C649 1.296 . S
C3360 C737 1.408 . S
C3355 C228 1.535 . S
C3390 C263 0.932 . S
C3385 C5 1.539 . S
C3415 C25 1.507 . S
C3420 C377 0.831 . S
C3450 C481 1.187 . S
C3445 C33 1.468 . S
C3480 C595 1.022 . S
C3475 C39 1.398 . S
C3510 C719 0.893 . S
C3505 C11 1.635 . S
C3540 C823 1.071 . S
C3535 C19 1.283 1_556 S
C3565 C47 1.647 1_556 S
C3570 C833 1.414 . S
C3595 C67 1.610 . S
C3600 C605 1.222 . S
C3625 C75 1.576 1_556 S
C3630 C709 1.563 . S
C3655 C81 1.525 . S
C3660 C367 1.324 . S
C3690 C491 1.304 . S
C3685 C53 1.717 . S
C3715 C61 1.351 . S
C3720 C253 1.357 . S
C3750 C947 0.885 . S
C3745 C89 1.395 . S
C3775 C109 1.673 . S
C3780 C1061 0.961 . S
C3805 C117 1.405 . S
C3810 C1165 1.205 . S
C3840 C1279 0.840 . S
C3835 C123 0.961 . S
C3865 C95 1.467 . S
C3870 C1403 0.818 . S
C3895 C103 1.007 . S
C3900 C1507 0.917 . S
C3925 C131 1.093 . S
C3930 C1517 0.817 1_565 S
C3955 C151 1.119 . S
C3960 C1289 0.816 . S
C3990 C1393 1.363 . S
C3985 C159 1.356 . S
C4015 C165 1.446 . S
C4020 C1051 1.259 . S
C4045 C137 1.731 . S
C4050 C1175 1.317 . S
C4080 C937 1.499 . S
C4075 C145 1.492 . S
C4110 C1631 0.782 . S
C4105 C173 1.101 . S
C4135 C193 1.065 . S
C4140 C1745 0.771 . S
C4165 C201 1.263 . S
C4170 C1849 1.061 . S
C4200 C1963 0.987 . S
C4195 C207 1.327 . S
C4230 C2087 0.957 . S
C4225 C179 1.660 . S
C4255 C187 1.418 . S
C4260 C2191 1.202 . S
C4285 C215 1.507 . S
C4290 C2201 1.320 . S
C4315 C235 1.769 . S
C4320 C1973 1.351 . S
C4350 C2077 1.519 . S
C4345 C243 1.484 . S
C4380 C1735 0.842 1_655 S
C4375 C249 0.945 . S
C4410 C1859 1.165 . S
C4405 C221 1.576 . S
C4435 C229 1.017 . S
C4440 C1621 0.938 1_545 S
