# Generated by pormake.
# Topology zzz, (3,6)-cn, num edge types: 1
# Building blocks:
#     Node 0, Type 0, BuildingBlock: CUQRIR_clean_linker_1, # of connection points: 3
#     Node 1, Type 0, BuildingBlock: CUQRIR_clean_linker_1, # of connection points: 3
#     Node 2, Type 0, BuildingBlock: CUQRIR_clean_linker_1, # of connection points: 3
#     Node 3, Type 0, BuildingBlock: CUQRIR_clean_linker_1, # of connection points: 3
#     Node 4, Type 0, BuildingBlock: CUQRIR_clean_linker_1, # of connection points: 3
#     Node 5, Type 0, BuildingBlock: CUQRIR_clean_linker_1, # of connection points: 3
#     Node 6, Type 0, BuildingBlock: CUQRIR_clean_linker_1, # of connection points: 3
#     Node 7, Type 0, BuildingBlock: CUQRIR_clean_linker_1, # of connection points: 3
#     Node 8, Type 1, BuildingBlock: JUFBIX_clean_sbu_0, # of connection points: 6
#     Node 9, Type 1, BuildingBlock: JUFBIX_clean_sbu_0, # of connection points: 6
#     Node 10, Type 1, BuildingBlock: JUFBIX_clean_sbu_0, # of connection points: 6
#     Node 11, Type 1, BuildingBlock: JUFBIX_clean_sbu_0, # of connection points: 6
#     Edge 12, Type (0, 1), BuildingBlock: XUDNAN_clean_linker_2, # of connection points: 2
#     Edge 13, Type (0, 1), BuildingBlock: XUDNAN_clean_linker_2, # of connection points: 2
#     Edge 14, Type (0, 1), BuildingBlock: XUDNAN_clean_linker_2, # of connection points: 2
#     Edge 15, Type (0, 1), BuildingBlock: XUDNAN_clean_linker_2, # of connection points: 2
#     Edge 16, Type (0, 1), BuildingBlock: XUDNAN_clean_linker_2, # of connection points: 2
#     Edge 17, Type (0, 1), BuildingBlock: XUDNAN_clean_linker_2, # of connection points: 2
#     Edge 18, Type (0, 1), BuildingBlock: XUDNAN_clean_linker_2, # of connection points: 2
#     Edge 19, Type (0, 1), BuildingBlock: XUDNAN_clean_linker_2, # of connection points: 2
#     Edge 20, Type (0, 1), BuildingBlock: XUDNAN_clean_linker_2, # of connection points: 2
#     Edge 21, Type (0, 1), BuildingBlock: XUDNAN_clean_linker_2, # of connection points: 2
#     Edge 22, Type (0, 1), BuildingBlock: XUDNAN_clean_linker_2, # of connection points: 2
#     Edge 23, Type (0, 1), BuildingBlock: XUDNAN_clean_linker_2, # of connection points: 2
#     Edge 24, Type (0, 1), BuildingBlock: XUDNAN_clean_linker_2, # of connection points: 2
#     Edge 25, Type (0, 1), BuildingBlock: XUDNAN_clean_linker_2, # of connection points: 2
#     Edge 26, Type (0, 1), BuildingBlock: XUDNAN_clean_linker_2, # of connection points: 2
#     Edge 27, Type (0, 1), BuildingBlock: XUDNAN_clean_linker_2, # of connection points: 2
#     Edge 28, Type (0, 1), BuildingBlock: XUDNAN_clean_linker_2, # of connection points: 2
#     Edge 29, Type (0, 1), BuildingBlock: XUDNAN_clean_linker_2, # of connection points: 2
#     Edge 30, Type (0, 1), BuildingBlock: XUDNAN_clean_linker_2, # of connection points: 2
#     Edge 31, Type (0, 1), BuildingBlock: XUDNAN_clean_linker_2, # of connection points: 2
#     Edge 32, Type (0, 1), BuildingBlock: XUDNAN_clean_linker_2, # of connection points: 2
#     Edge 33, Type (0, 1), BuildingBlock: XUDNAN_clean_linker_2, # of connection points: 2
#     Edge 34, Type (0, 1), BuildingBlock: XUDNAN_clean_linker_2, # of connection points: 2
#     Edge 35, Type (0, 1), BuildingBlock: XUDNAN_clean_linker_2, # of connection points: 2
# Relax obj value: 0.131
# Max RMSD: 0.179
# Mean RMSD: 0.099
data_MOF--net-zzz--node1-JUFBIX_clean_sbu_0--node2-CUQRIR_clean_linker_1--edge1-XUDNAN_clean_linker_2
_symmetry_space_group_name_H-M    P1
_symmetry_Int_Tables_number       1
_symmetry_cell_setting            triclinic
loop_
_symmetry_equiv_pos_as_xyz
'x, y, z'
_cell_length_a     48.722453
_cell_length_b     48.558212
_cell_length_c     15.757096
_cell_angle_alpha  80.274989
_cell_angle_beta   90.045344
_cell_angle_gamma 91.146435
loop_
_atom_site_label
_atom_site_type_symbol
_atom_site_fract_x
_atom_site_fract_y
_atom_site_fract_z
_atom_type_partial_charge
C0 C 0.77347 0.50989 0.32801 0.0
N1 N 0.80114 0.50803 0.3361 0.0
N2 N 0.76603 0.51225 0.2438 0.0
C3 C 0.75378 0.50915 0.40166 0.0
C4 C 0.79026 0.51189 0.20166 0.0
N5 N 0.81137 0.50925 0.25767 0.0
C6 C 0.79352 0.51419 0.10568 0.0
H7 H 0.76267 0.49868 0.46317 0.0
H8 H 0.73432 0.49832 0.38884 0.0
H9 H 0.74899 0.53091 0.40849 0.0
H10 H 0.77666 0.52631 0.07092 0.0
H11 H 0.79322 0.4929 0.08886 0.0
H12 H 0.81341 0.52442 0.08372 0.0
C13 C 0.99383 0.74915 0.31136 0.0
N14 N 1.0015 0.77592 0.31542 0.0
N15 N 0.99945 0.74299 0.2322 0.0
C16 C 0.98256 0.72863 0.38582 0.0
C17 C 0.01048 0.76708 0.18836 0.0
N18 N 0.01205 0.78678 0.23914 0.0
C19 C 0.01708 0.77245 0.09344 0.0
H20 H 0.9884 0.70702 0.38049 0.0
H21 H 0.95983 0.72964 0.38542 0.0
H22 H 0.99009 0.7338 0.44784 0.0
H23 H 1.00387 0.75939 0.05802 0.0
H24 H 0.03886 0.76738 0.08425 0.0
H25 H 0.01426 0.79475 0.0653 0.0
C26 C 0.77614 0.99547 0.1985 0.0
N27 N 0.74901 1.00138 0.20075 0.0
N28 N 0.78572 1.00047 0.1162 0.0
C29 C 0.79266 0.98293 0.27529 0.0
C30 C 0.76355 0.00964 0.06888 0.0
N31 N 0.74134 0.01023 0.11985 0.0
C32 C 0.76379 0.01823 0.97254 0.0
H33 H 0.80033 0.99996 0.3085 0.0
H34 H 0.81056 0.97166 0.25578 0.0
H35 H 0.77968 0.96847 0.32138 0.0
H36 H 0.75967 0.99956 0.94218 0.0
H37 H 0.7842 0.02711 0.95006 0.0
H38 H 0.74777 0.03383 0.95147 0.0
C39 C 0.51453 0.73834 0.2218 0.0
N40 N 0.51379 0.7103 0.22477 0.0
N41 N 0.51452 0.75201 0.13902 0.0
C42 C 0.51569 0.75232 0.29989 0.0
C43 C 0.51369 0.73102 0.09192 0.0
N44 N 0.5134 0.70576 0.14407 0.0
C45 C 0.50999 0.73525 0.99582 0.0
H46 H 0.49451 0.75479 0.32285 0.0
H47 H 0.52574 0.77328 0.28438 0.0
H48 H 0.52702 0.73929 0.35267 0.0
H49 H 0.53009 0.74127 0.96437 0.0
H50 H 0.49556 0.75245 0.97476 0.0
H51 H 0.50226 0.71599 0.97395 0.0
C52 C 0.23314 0.50034 0.27594 0.0
N53 N 0.20549 0.50256 0.27071 0.0
N54 N 0.24179 0.50039 0.35809 0.0
C55 C 0.25146 0.49744 0.20156 0.0
C56 C 0.2183 0.50314 0.40182 0.0
N57 N 0.19641 0.50423 0.34886 0.0
C58 C 0.21692 0.50724 0.49436 0.0
H59 H 0.24039 0.48649 0.155 0.0
H60 H 0.27023 0.48588 0.22423 0.0
H61 H 0.25764 0.51857 0.16775 0.0
H62 H 0.23532 0.51894 0.51158 0.0
H63 H 0.2162 0.48647 0.53647 0.0
H64 H 0.19826 0.51861 0.50714 0.0
C65 C 0.04152 0.27374 0.26621 0.0
N66 N 0.03881 0.2459 0.26577 0.0
N67 N 0.04294 0.27875 0.34821 0.0
C68 C 0.04122 0.29597 0.18753 0.0
C69 C 0.04118 0.25314 0.3973 0.0
N70 N 0.03846 0.23319 0.34752 0.0
C71 C 0.04343 0.24776 0.49407 0.0
H72 H 0.06243 0.29934 0.16172 0.0
H73 H 0.03393 0.31601 0.20332 0.0
H74 H 0.02801 0.28932 0.13693 0.0
H75 H 0.0227 0.24856 0.52255 0.0
H76 H 0.05656 0.26404 0.51645 0.0
H77 H 0.05213 0.22692 0.5176 0.0
C78 C 0.253 0.02546 0.3787 0.0
N79 N 0.28066 0.02285 0.37271 0.0
N80 N 0.24546 0.02645 0.46115 0.0
C81 C 0.23338 0.02742 0.30456 0.0
C82 C 0.26945 0.0244 0.50503 0.0
N83 N 0.29072 0.02214 0.45164 0.0
C84 C 0.27225 0.02511 0.59991 0.0
H85 H 0.2307 0.04976 0.27675 0.0
H86 H 0.21298 0.01841 0.3265 0.0
H87 H 0.2414 0.01647 0.25368 0.0
H88 H 0.2541 0.03404 0.62669 0.0
H89 H 0.29089 0.03733 0.61227 0.0
H90 H 0.27446 1.00345 0.63484 0.0
C91 C 0.51256 0.26415 0.36701 0.0
N92 N 0.50908 0.29184 0.36475 0.0
N93 N 0.51139 0.25009 0.44935 0.0
C94 C 0.5174 0.25105 0.28869 0.0
C95 C 0.50751 0.27055 0.49699 0.0
N96 N 0.50626 0.29585 0.44549 0.0
C97 C 0.50559 0.26571 0.59369 0.0
H98 H 0.51022 0.2289 0.29957 0.0
H99 H 0.53971 0.25191 0.2742 0.0
H100 H 0.50669 0.26282 0.23212 0.0
H101 H 0.52123 0.25055 0.62195 0.0
H102 H 0.48506 0.2566 0.61347 0.0
H103 H 0.50821 0.28529 0.62029 0.0
Co104 Co 0.01951 0.02519 0.8409 0.0
C105 C 0.96614 1.00154 0.84147 0.0
Co106 Co 0.01349 0.99462 0.75229 0.0
C107 C 0.02883 0.07731 0.90829 0.0
C108 C 0.0135 0.04339 1.00216 0.0
N109 N 0.02221 0.0497 0.91977 0.0
N110 N 0.02412 0.08837 0.98006 0.0
C111 C 0.01463 0.06701 0.03917 0.0
H112 H 0.03562 0.08933 0.84749 0.0
H113 H 1.00566 0.02311 0.03247 0.0
C114 C 0.06685 0.01841 0.75167 0.0
N115 N 0.01075 0.97038 0.67272 0.0
C116 C 1.00152 0.94358 0.68043 0.0
C117 C 0.02162 0.9763 0.59275 0.0
N118 N 0.0067 0.93269 0.60869 0.0
C119 C 0.01926 0.95324 0.55359 0.0
C120 C 1.00465 0.04983 0.67821 0.0
O121 O 0.05716 0.03212 0.80673 0.0
O122 O 0.05146 1.00062 0.72313 0.0
O123 O 1.00482 0.02483 0.66458 0.0
O124 O 0.00928 0.05486 0.75346 0.0
O125 O 0.97539 0.9888 0.78333 0.0
H126 H 0.03166 0.99588 0.56571 0.0
H127 H 0.99247 0.9319 0.73864 0.0
O128 O 0.98202 0.01821 0.87319 0.0
O129 O 0.02996 0.99488 0.9279 0.0
O130 O 0.02257 0.96489 0.83973 0.0
C131 C 0.02946 0.96994 0.9133 0.0
H132 H 0.00852 0.06847 0.10428 0.0
H133 H 0.02668 0.95146 0.49001 0.0
Co134 Co 0.50107 0.00806 0.84382 0.0
C135 C 0.50955 0.94993 0.8664 0.0
Co136 Co 0.52779 0.99431 0.74464 0.0
C137 C 0.45096 0.02154 0.93375 0.0
C138 C 0.48565 0.0129 0.01655 0.0
N139 N 0.47834 0.01665 0.93267 0.0
N140 N 0.44118 0.02049 0.01477 0.0
C141 C 0.46305 0.01523 0.06661 0.0
H142 H 0.43806 0.0239 0.87714 0.0
H143 H 0.50578 0.00697 0.04111 0.0
C144 C 0.51925 0.05246 0.72259 0.0
N145 N 0.55072 0.98436 0.65983 0.0
C146 C 0.57585 0.99494 0.63367 0.0
C147 C 0.54622 0.96347 0.61486 0.0
N148 N 0.58732 0.98141 0.57429 0.0
C149 C 0.56851 0.9616 0.56258 0.0
C150 C 0.47269 0.99649 0.70173 0.0
O151 O 0.50349 0.04643 0.78815 0.0
O152 O 0.53206 0.03294 0.69557 0.0
O153 O 0.49643 0.99211 0.67391 0.0
O154 O 0.46994 1.00258 0.77651 0.0
O155 O 0.52313 0.95558 0.79638 0.0
H156 H 0.52811 0.95002 0.62108 0.0
H157 H 0.58552 0.01218 0.65849 0.0
O158 O 0.4989 0.96983 0.89724 0.0
O159 O 0.53332 0.01371 0.90883 0.0
O160 O 0.55854 0.99707 0.81474 0.0
C161 C 0.55667 0.00685 0.88418 0.0
H162 H 0.46254 0.01229 0.13627 0.0
H163 H 0.57083 0.9462 0.52101 0.0
Co164 Co 0.52891 0.50338 0.79124 0.0
C165 C 0.50846 0.45883 0.91586 0.0
Co166 Co 0.48374 0.49814 0.79605 0.0
C167 C 0.57998 0.51126 0.87515 0.0
C168 C 0.58709 0.50427 0.7466 0.0
N169 N 0.56683 0.50712 0.80259 0.0
N170 N 0.6075 0.51104 0.86702 0.0
C171 C 0.61215 0.50651 0.78628 0.0
H172 H 0.56956 0.51339 0.93428 0.0
H173 H 0.58388 0.50029 0.68179 0.0
C174 C 0.50492 0.54302 0.67247 0.0
N175 N 0.44585 0.49448 0.78489 0.0
C176 C 0.43213 0.49892 0.7094 0.0
C177 C 0.4263 0.48669 0.84513 0.0
N178 N 0.40482 0.49435 0.71959 0.0
C179 C 0.40105 0.48652 0.80514 0.0
C180 C 0.50083 0.53429 0.90008 0.0
O181 O 0.52843 0.53375 0.69644 0.0
O182 O 0.48356 0.53067 0.70813 0.0
O183 O 0.4795 0.52144 0.87962 0.0
O184 O 0.52389 0.52951 0.86828 0.0
O185 O 0.48479 0.46553 0.88545 0.0
H186 H 0.43015 0.48148 0.91353 0.0
H187 H 0.44215 0.50497 0.6476 0.0
O188 O 0.52925 0.47332 0.88499 0.0
O189 O 0.533 0.47709 0.71343 0.0
O190 O 0.48799 0.47514 0.71249 0.0
C191 C 0.51075 0.46771 0.68566 0.0
H192 H 0.63219 0.50497 0.75805 0.0
H193 H 0.38143 0.48146 0.83674 0.0
Co194 Co 1.00092 0.52794 0.79694 0.0
C195 C 0.04805 0.50646 0.88679 0.0
Co196 Co 1.00544 0.48211 0.81061 0.0
C197 C 0.99513 0.57653 0.87447 0.0
C198 C 0.99427 0.58758 0.73712 0.0
N199 N 0.99679 0.56557 0.80143 0.0
N200 N 0.99152 0.60425 0.85848 0.0
C201 C 0.9911 0.61156 0.77231 0.0
H202 H 0.99654 0.56448 0.93867 0.0
H203 H 0.99444 0.58626 0.66928 0.0
C204 C 0.95828 0.50346 0.72077 0.0
N205 N 0.00892 0.44406 0.80703 0.0
C206 C 0.0255 0.4325 0.75457 0.0
C207 C 0.99111 0.4233 0.83927 0.0
N208 N 0.0181 0.4059 0.74959 0.0
C209 C 0.99669 0.39989 0.80424 0.0
C210 C 0.97608 0.49482 0.9432 0.0
O211 O 0.96763 0.52719 0.73253 0.0
O212 O 0.97167 0.48164 0.7495 0.0
O213 O 0.9859 0.4739 0.91617 0.0
O214 O 0.98044 0.51904 0.90035 0.0
O215 O 0.03909 0.48286 0.87247 0.0
H216 H 0.97372 0.42562 0.87988 0.0
H217 H 0.04127 0.44402 0.71494 0.0
O218 O 0.03434 0.52829 0.86044 0.0
O219 O 0.02132 0.53654 0.69356 0.0
O220 O 0.02506 0.49123 0.70452 0.0
C221 C 0.03035 0.51569 0.66415 0.0
H222 H 0.98824 0.63253 0.73768 0.0
H223 H 0.98474 0.38059 0.81427 0.0
H224 H 0.20175 0.99046 0.4889 0.0
H225 H 0.22988 0.0739 0.51177 0.0
H226 H 0.18724 0.08108 0.59049 0.0
H227 H 0.12826 0.00807 0.45771 0.0
H228 H 0.11658 0.97504 0.51807 0.0
H229 H 0.1486 0.97734 0.45985 0.0
H230 H 0.17356 0.95629 0.60041 0.0
H231 H 0.14172 0.95436 0.6593 0.0
H232 H 0.17088 0.97304 0.69376 0.0
H233 H 0.14345 0.07735 0.67831 0.0
H234 H 0.09888 0.0655 0.75203 0.0
H235 H 0.09787 0.98519 0.66591 0.0
C236 C 0.19846 0.0104 0.50887 0.0
C237 C 0.21886 0.03175 0.4944 0.0
C238 C 0.21425 0.0575 0.52215 0.0
C239 C 0.19024 0.06163 0.5672 0.0
C240 C 0.1708 0.03989 0.58292 0.0
C241 C 0.17435 0.01498 0.55307 0.0
C242 C 0.15027 0.995 0.57886 0.0
C243 C 0.13502 0.98849 0.49886 0.0
C244 C 0.15968 0.96808 0.63651 0.0
C245 C 0.13291 0.01236 0.62899 0.0
C246 C 0.14521 0.03811 0.63118 0.0
C247 C 0.13349 0.05736 0.67621 0.0
C248 C 0.10827 0.05036 0.71853 0.0
C249 C 0.09484 0.02445 0.71487 0.0
C250 C 0.10754 1.00522 0.66977 0.0
H251 H 0.47999 0.21295 0.55972 0.0
H252 H 0.55523 0.22132 0.41059 0.0
H253 H 0.56519 0.17166 0.46397 0.0
H254 H 0.508 0.16837 0.74626 0.0
H255 H 0.47693 0.14768 0.7693 0.0
H256 H 0.47516 0.18357 0.71684 0.0
H257 H 0.44789 0.16811 0.59115 0.0
H258 H 0.44958 0.13219 0.64323 0.0
H259 H 0.46209 0.14234 0.5346 0.0
H260 H 0.56676 0.12116 0.53206 0.0
H261 H 0.56072 0.07337 0.61307 0.0
H262 H 0.48573 0.09772 0.72659 0.0
C263 C 0.49861 0.2043 0.53888 0.0
C264 C 0.51675 0.2209 0.48023 0.0
C265 C 0.54082 0.20881 0.45387 0.0
C266 C 0.54672 0.1807 0.48443 0.0
C267 C 0.52848 0.16493 0.54226 0.0
C268 C 0.50498 0.17628 0.56968 0.0
C269 C 0.48911 0.15478 0.63349 0.0
C270 C 0.48719 0.16416 0.72171 0.0
C271 C 0.46047 0.14902 0.5985 0.0
C272 C 0.50734 0.12957 0.63744 0.0
C273 C 0.52985 0.13592 0.58384 0.0
C274 C 0.54929 0.11599 0.57455 0.0
C275 C 0.54564 0.08884 0.62086 0.0
C276 C 0.52284 0.08173 0.6767 0.0
C277 C 0.50353 0.10253 0.68527 0.0
H278 H 0.26113 0.46787 0.50161 0.0
H279 H 0.28447 0.53378 0.29193 0.0
H280 H 0.33026 0.53752 0.35795 0.0
H281 H 0.2914 0.49954 0.66521 0.0
H282 H 0.30214 0.46737 0.72998 0.0
H283 H 0.27271 0.46739 0.6608 0.0
H284 H 0.29479 0.4297 0.58584 0.0
H285 H 0.32423 0.42939 0.65525 0.0
H286 H 0.3287 0.4359 0.54 0.0
H287 H 0.37224 0.53619 0.45259 0.0
H288 H 0.40717 0.53011 0.56729 0.0
H289 H 0.35558 0.4665 0.71976 0.0
C290 C 0.27606 0.48284 0.46929 0.0
C291 C 0.26944 0.50037 0.39123 0.0
C292 C 0.28939 0.51976 0.35066 0.0
C293 C 0.31533 0.52215 0.38813 0.0
C294 C 0.32093 0.50507 0.46645 0.0
C295 C 0.30185 0.48573 0.5065 0.0
C296 C 0.31224 0.47117 0.59296 0.0
C297 C 0.29351 0.47671 0.66657 0.0
C298 C 0.31517 0.43967 0.59351 0.0
C299 C 0.34004 0.48556 0.59597 0.0
C300 C 0.34475 0.50484 0.52199 0.0
C301 C 0.36884 0.52098 0.51042 0.0
C302 C 0.38863 0.51729 0.57592 0.0
C303 C 0.38425 0.49774 0.65263 0.0
C304 C 0.35952 0.48174 0.66236 0.0
H305 H 1.00107 0.29623 0.43277 0.0
H306 H 0.08366 0.31764 0.34234 0.0
H307 H 0.08594 0.35537 0.43135 0.0
H308 H 0.97914 0.36826 0.45449 0.0
H309 H 0.9598 0.35496 0.55066 0.0
H310 H 0.96356 0.33381 0.46797 0.0
H311 H 0.98312 0.29421 0.58157 0.0
H312 H 0.98024 0.31545 0.66413 0.0
H313 H 0.01295 0.30124 0.64284 0.0
H314 H 0.08069 0.38628 0.54621 0.0
H315 H 0.06749 0.40995 0.66669 0.0
H316 H 0.9883 0.36683 0.68179 0.0
C317 C 0.01911 0.30976 0.42925 0.0
C318 C 0.042 0.3047 0.38007 0.0
C319 C 0.06578 0.32189 0.37842 0.0
C320 C 0.06725 0.34308 0.42926 0.0
C321 C 0.04468 0.34664 0.48074 0.0
C322 C 0.02089 0.33069 0.47983 0.0
C323 C 1.00039 0.3367 0.54599 0.0
C324 C 0.97418 0.34919 0.50215 0.0
C325 C 0.99381 0.31034 0.61254 0.0
C326 C 0.01652 0.35809 0.58602 0.0
C327 C 0.04193 0.36376 0.54738 0.0
C328 C 0.06068 0.38223 0.57597 0.0
C329 C 0.05299 0.39556 0.64461 0.0
C330 C 0.02682 0.39034 0.68422 0.0
C331 C 0.00857 0.37114 0.6543 0.0
H332 H 0.83521 0.02644 0.12611 0.0
H333 H 0.7938 0.95935 0.0253 0.0
H334 H 0.83596 0.95116 0.9459 0.0
H335 H 0.87118 0.05429 0.93654 0.0
H336 H 0.90228 0.06309 0.98887 0.0
H337 H 0.86992 0.06187 0.04458 0.0
H338 H 0.88914 0.02618 0.17037 0.0
H339 H 0.92171 0.02759 0.11551 0.0
H340 H 0.90412 0.99449 0.14814 0.0
H341 H 0.88155 0.95292 0.86829 0.0
H342 H 0.92801 0.96254 0.80542 0.0
H343 H 0.93994 0.02866 0.95682 0.0
C344 C 0.83547 0.00956 0.08922 0.0
C345 C 0.81158 0.99316 0.08245 0.0
C346 C 0.81216 0.97175 0.03176 0.0
C347 C 0.83593 0.96709 0.98634 0.0
C348 C 0.85903 0.98405 0.99232 0.0
C349 C 0.85912 1.00467 0.04324 0.0
C350 C 0.88629 0.02074 0.03543 0.0
C351 C 0.88215 0.05184 0.99919 0.0
C352 C 0.9012 0.01702 0.12255 0.0
C353 C 0.90124 0.00624 0.97143 0.0
C354 C 0.8852 0.98511 0.94739 0.0
C355 C 0.89438 0.96928 0.88721 0.0
C356 C 0.92076 0.97499 0.85144 0.0
C357 C 0.93771 0.99635 0.87587 0.0
C358 C 0.9276 0.01213 0.93665 0.0
H359 H 0.54313 0.78688 0.01403 0.0
H360 H 0.47528 0.78346 0.19325 0.0
H361 H 0.46692 0.83352 0.14255 0.0
H362 H 0.56774 0.85661 0.02917 0.0
H363 H 0.57577 0.866 0.91621 0.0
H364 H 0.57699 0.83 0.9679 0.0
H365 H 0.54294 0.81613 0.85534 0.0
H366 H 0.5416 0.8521 0.80335 0.0
H367 H 0.51038 0.83323 0.83966 0.0
H368 H 0.46613 0.88369 0.07476 0.0
H369 H 0.47203 0.9311 0.99162 0.0
H370 H 0.53901 0.90277 0.84854 0.0
C371 C 0.52653 0.79678 0.04227 0.0
C372 C 0.51014 0.78144 0.10886 0.0
C373 C 0.48853 0.795 0.14411 0.0
C374 C 0.48349 0.82336 0.11509 0.0
C375 C 0.50004 0.83793 0.04979 0.0
C376 C 0.52104 0.82516 0.0133 0.0
C377 C 0.53542 0.84573 0.94297 0.0
C378 C 0.56578 0.84982 0.96543 0.0
C379 C 0.5324 0.83623 0.85512 0.0
C380 C 0.51927 0.87203 0.94607 0.0
C381 C 0.49904 0.86695 0.00849 0.0
C382 C 0.48182 0.88791 0.02543 0.0
C383 C 0.48538 0.91484 0.97777 0.0
C384 C 0.50591 0.92077 0.91313 0.0
C385 C 0.52296 0.8989 0.89685 0.0
H386 H 0.74552 0.48026 0.13265 0.0
H387 H 0.72556 0.54775 0.2681 0.0
H388 H 0.68091 0.5531 0.19195 0.0
H389 H 0.72075 0.51343 0.93124 0.0
H390 H 0.70835 0.48169 0.89799 0.0
H391 H 0.73667 0.48065 0.97185 0.0
H392 H 0.71039 0.44379 0.08198 0.0
H393 H 0.68203 0.44457 0.00823 0.0
H394 H 0.6764 0.45123 0.11592 0.0
H395 H 0.6392 0.55216 0.09479 0.0
H396 H 0.60505 0.54641 0.9822 0.0
H397 H 0.65489 0.48276 0.9003 0.0
C398 C 0.73166 0.49606 0.14653 0.0
C399 C 0.73889 0.51356 0.20646 0.0
C400 C 0.72016 0.53383 0.22361 0.0
C401 C 0.69488 0.53711 0.18015 0.0
C402 C 0.68881 0.52009 0.11919 0.0
C403 C 0.70677 0.50002 0.10226 0.0
C404 C 0.69652 0.48585 0.0293 0.0
C405 C 0.71678 0.4907 0.95309 0.0
C406 C 0.69101 0.4545 0.06077 0.0
C407 C 0.67006 0.50123 1.007 0.0
C408 C 0.66573 0.5206 0.06046 0.0
C409 C 0.64245 0.53707 0.05268 0.0
C410 C 0.62316 0.53365 0.98874 0.0
C411 C 0.62747 0.51429 0.93237 0.0
C412 C 0.65129 0.49796 0.9418 0.0
H413 H 0.03522 0.71715 0.14316 0.0
H414 H 0.95219 0.71197 0.24281 0.0
H415 H 0.94189 0.67249 0.16569 0.0
H416 H 0.0156 0.7104 0.93507 0.0
H417 H 0.04524 0.69121 0.91232 0.0
H418 H 0.04769 0.71486 0.9886 0.0
H419 H 0.06489 0.67495 0.10571 0.0
H420 H 0.06287 0.65119 0.02948 0.0
H421 H 0.04491 0.64295 0.13084 0.0
H422 H 0.94013 0.63563 0.06827 0.0
H423 H 0.94646 0.60622 0.95525 0.0
H424 H 0.02857 0.64051 0.90578 0.0
C425 C 0.01501 0.70737 0.1497 0.0
C426 C 0.99452 0.7174 0.19918 0.0
C427 C 0.9683 0.70417 0.20658 0.0
C428 C 0.96226 0.68192 0.16245 0.0
C429 C 0.98262 0.67348 0.11062 0.0
C430 C 0.00846 0.68591 0.10399 0.0
C431 C 0.02578 0.67541 0.03689 0.0
C432 C 0.03405 0.6994 0.96392 0.0
C433 C 0.05111 0.66021 0.07823 0.0
C434 C 1.0056 0.65529 1.00582 0.0
C435 C 0.98097 0.65402 0.05021 0.0
C436 C 0.95927 0.63661 0.03299 0.0
C437 C 0.96291 0.62015 0.96879 0.0
C438 C 0.98774 0.62178 0.92173 0.0
C439 C 0.0093 0.63946 0.94047 0.0
H440 H 1.00117 0.20929 0.46501 0.0
H441 H 0.06681 0.19089 0.29942 0.0
H442 H 0.05924 0.14024 0.35135 0.0
H443 H 0.02254 0.16003 0.64257 0.0
H444 H 0.98829 0.15141 0.68307 0.0
H445 H 0.99582 0.18543 0.62172 0.0
H446 H 0.95674 0.17796 0.51549 0.0
H447 H 0.94942 0.14363 0.57574 0.0
H448 H 0.95711 0.14789 0.46232 0.0
H449 H 0.04459 0.09206 0.42221 0.0
H450 H 0.03242 0.05056 0.52975 0.0
H451 H 0.98158 0.10132 0.66525 0.0
C452 C 0.01386 0.19453 0.43967 0.0
C453 C 0.03426 0.20374 0.3774 0.0
C454 C 0.05067 0.18402 0.34577 0.0
C455 C 0.04649 0.15534 0.37486 0.0
C456 C 0.02604 0.14692 0.43618 0.0
C457 C 0.01054 0.166 0.46997 0.0
C458 C 0.99287 0.15193 0.54432 0.0
C459 C 1.00034 0.16284 0.62784 0.0
C460 C 0.96222 0.15557 0.52316 0.0
C461 C 1.00115 0.12192 0.54807 0.0
C462 C 0.01947 0.11938 0.48291 0.0
C463 C 0.03026 0.09376 0.47342 0.0
C464 C 0.02304 0.0703 0.53432 0.0
C465 C 1.00592 0.07289 0.605 0.0
C466 C 0.99443 0.09887 0.61106 0.0
H467 H 0.31514 0.98589 0.57719 0.0
H468 H 0.33076 0.05762 0.37821 0.0
H469 H 0.38045 0.05516 0.41106 0.0
H470 H 0.36243 0.00897 0.72793 0.0
H471 H 0.37231 0.97405 0.77391 0.0
H472 H 0.33862 0.98005 0.72839 0.0
H473 H 0.34759 0.94385 0.62846 0.0
H474 H 0.38157 0.93816 0.6724 0.0
H475 H 0.37705 0.9485 0.55795 0.0
H476 H 0.42841 0.04335 0.46174 0.0
H477 H 0.47017 0.03037 0.54768 0.0
H478 H 0.42221 0.97099 0.72738 0.0
C479 C 0.32905 1.00117 0.54119 0.0
C480 C 0.31939 0.02163 0.47416 0.0
C481 C 0.33804 0.04141 0.42838 0.0
C482 C 0.36618 0.04016 0.44666 0.0
C483 C 0.37515 0.01933 0.51207 0.0
C484 C 0.35706 1.00072 0.56035 0.0
C485 C 0.3716 0.98222 0.6328 0.0
C486 C 0.36059 0.9866 0.72096 0.0
C487 C 0.36931 0.95135 0.62223 0.0
C488 C 0.40073 0.99337 0.61785 0.0
C489 C 0.40245 0.01415 0.54617 0.0
C490 C 0.42731 0.02724 0.51828 0.0
C491 C 0.4509 0.01959 0.56684 0.0
C492 C 0.44917 0.99963 0.64324 0.0
C493 C 0.4239 0.98615 0.66862 0.0
H494 H 0.54192 0.32154 0.5412 0.0
H495 H 0.46479 0.33097 0.40407 0.0
H496 H 0.46115 0.37903 0.43518 0.0
H497 H 0.52108 0.35664 0.71263 0.0
H498 H 0.55423 0.37271 0.72429 0.0
H499 H 0.55181 0.3401 0.68459 0.0
H500 H 0.57929 0.36229 0.54854 0.0
H501 H 0.58142 0.39514 0.58729 0.0
H502 H 0.56707 0.39363 0.48265 0.0
H503 H 0.46455 0.42433 0.48622 0.0
H504 H 0.47216 0.46329 0.56561 0.0
H505 H 0.5467 0.42503 0.67587 0.0
C506 C 0.52425 0.33383 0.51856 0.0
C507 C 0.50353 0.32285 0.47031 0.0
C508 C 0.48081 0.33932 0.44062 0.0
C509 C 0.47867 0.36654 0.45781 0.0
C510 C 0.49943 0.37688 0.50536 0.0
C511 C 0.52163 0.36099 0.53636 0.0
C512 C 0.54004 0.37659 0.59085 0.0
C513 C 0.54189 0.36056 0.68358 0.0
C514 C 0.56865 0.38224 0.54986 0.0
C515 C 0.52439 0.4035 0.58701 0.0
C516 C 0.50127 0.40326 0.53605 0.0
C517 C 0.48267 0.4249 0.5257 0.0
C518 C 0.48721 0.44695 0.57098 0.0
C519 C 0.51013 0.44725 0.6262 0.0
C520 C 0.52938 0.42561 0.63251 0.0
H521 H 0.15797 0.46815 0.42545 0.0
H522 H 0.17399 0.55496 0.31999 0.0
H523 H 0.12829 0.56736 0.3707 0.0
H524 H 0.08124 0.46861 0.38225 0.0
H525 H 0.07474 0.44491 0.48139 0.0
H526 H 0.10628 0.44287 0.42323 0.0
H527 H 0.13373 0.44824 0.5609 0.0
H528 H 0.10233 0.45074 0.61842 0.0
H529 H 0.12808 0.47818 0.61208 0.0
H530 H 0.08496 0.57077 0.45502 0.0
H531 H 0.047 0.56477 0.56125 0.0
H532 H 0.05819 0.4751 0.60262 0.0
C533 C 0.15127 0.48955 0.41127 0.0
C534 C 0.1689 0.51073 0.36916 0.0
C535 C 0.16025 0.53868 0.35203 0.0
C536 C 0.13444 0.54577 0.38017 0.0
C537 C 0.11753 0.52446 0.42365 0.0
C538 C 0.12543 0.49681 0.43777 0.0
C539 C 0.10473 0.47823 0.49276 0.0
C540 C 0.09094 0.45743 0.44181 0.0
C541 C 0.11801 0.46298 0.57594 0.0
C542 C 0.08473 0.4999 0.51116 0.0
C543 C 0.09219 0.52641 0.47011 0.0
C544 C 0.07847 0.55003 0.48571 0.0
C545 C 0.05698 0.54644 0.54623 0.0
C546 C 0.04952 0.51945 0.59021 0.0
C547 C 0.06307 0.49597 0.56982 0.0
H548 H 0.98162 0.83304 0.21976 0.0
H549 H 0.06373 0.80326 0.19577 0.0
H550 H 0.07959 0.85109 0.13191 0.0
H551 H 0.97993 0.87363 0.02301 0.0
H552 H 0.96037 0.90177 0.05206 0.0
H553 H 0.95695 0.86729 0.11422 0.0
H554 H 0.97044 0.8862 0.2543 0.0
H555 H 0.97253 0.92083 0.19115 0.0
H556 H 1.00138 0.90717 0.25506 0.0
H557 H 0.08442 0.899 0.0486 0.0
H558 H 0.07771 0.94372 0.94946 0.0
H559 H 0.99231 0.94275 0.02538 0.0
C560 C 1.00308 0.83709 0.20374 0.0
C561 C 0.02172 0.81504 0.21309 0.0
C562 C 0.04948 0.82031 0.18929 0.0
C563 C 0.05858 0.84731 0.15368 0.0
C564 C 0.03956 0.86868 0.14261 0.0
C565 C 0.01237 0.86393 0.16737 0.0
C566 C 0.99528 0.88941 0.13715 0.0
C567 C 0.97177 0.88261 0.0781 0.0
C568 C 0.98427 0.90161 0.21403 0.0
C569 C 0.01677 0.90866 0.0878 0.0
C570 C 0.04232 0.89656 0.0934 0.0
C571 C 0.06475 0.90907 0.0457 0.0
C572 C 0.06082 0.93435 0.9897 0.0
C573 C 0.03474 0.9466 0.9823 0.0
C574 C 0.01262 0.93396 0.03276 0.0
H575 H 0.71342 0.98445 0.00787 0.0
H576 H 0.70671 0.04727 0.171 0.0
H577 H 0.65746 0.05298 0.13187 0.0
H578 H 0.66935 0.01809 0.83648 0.0
H579 H 0.65524 0.98531 0.81551 0.0
H580 H 0.68963 0.98702 0.85652 0.0
H581 H 0.67684 0.94779 0.98442 0.0
H582 H 0.64229 0.94626 0.94466 0.0
H583 H 0.64826 0.95239 0.05291 0.0
H584 H 0.60815 0.0495 0.07877 0.0
H585 H 0.5645 0.04082 1.00559 0.0
H586 H 0.60554 0.98177 0.8732 0.0
C587 C 0.70168 0.99986 0.03354 0.0
C588 C 0.71361 0.01565 0.09151 0.0
C589 C 0.69766 0.03514 0.1261 0.0
C590 C 0.66982 0.03843 0.10435 0.0
C591 C 0.65852 0.02217 0.04759 0.0
C592 C 0.67412 1.00355 0.01187 0.0
C593 C 0.65739 0.98856 0.95246 0.0
C594 C 0.66856 0.99515 0.85976 0.0
C595 C 0.65612 0.95688 0.98563 0.0
C596 C 0.62984 1.0016 0.96005 0.0
C597 C 0.63069 0.02069 0.01593 0.0
C598 C 0.60733 0.03479 0.03429 0.0
C599 C 0.58265 0.02964 0.99289 0.0
C600 C 0.58176 0.0108 0.93339 0.0
C601 C 0.60564 0.99649 0.91776 0.0
H602 H 0.5474 0.67447 0.06591 0.0
H603 H 0.46535 0.67755 0.16766 0.0
H604 H 0.45393 0.63157 0.12635 0.0
H605 H 0.52965 0.64422 0.8835 0.0
H606 H 0.55921 0.62225 0.88876 0.0
H607 H 0.56114 0.65444 0.93092 0.0
H608 H 0.57644 0.62727 0.07904 0.0
H609 H 0.57451 0.595 0.03691 0.0
H610 H 0.55544 0.59851 0.13233 0.0
H611 H 0.45075 0.58709 0.06535 0.0
H612 H 0.45577 0.54708 0.98878 0.0
H613 H 0.54063 0.57218 0.93012 0.0
C614 C 0.52715 0.66521 0.07942 0.0
C615 C 0.5071 0.67917 0.11943 0.0
C616 C 0.48077 0.66682 0.13692 0.0
C617 C 0.47423 0.64082 0.11401 0.0
C618 C 0.49441 0.62743 0.07437 0.0
C619 C 0.52039 0.63911 0.05756 0.0
C620 C 0.53803 0.62073 0.01217 0.0
C621 C 0.54755 0.63634 0.92358 0.0
C622 C 0.56256 0.60973 0.06849 0.0
C623 C 0.51765 0.59738 1.00358 0.0
C624 C 0.4927 0.60151 0.04057 0.0
C625 C 0.47028 0.58345 0.03701 0.0
C626 C 0.47333 0.56078 0.99335 0.0
C627 C 0.49861 0.55638 0.95385 0.0
C628 C 0.52112 0.57474 0.96051 0.0
H629 H 0.85109 0.54501 0.1865 0.0
H630 H 0.83272 0.45816 0.28537 0.0
H631 H 0.87838 0.44504 0.23694 0.0
H632 H 0.88057 0.53548 0.99992 0.0
H633 H 0.90701 0.56221 0.99525 0.0
H634 H 0.87581 0.56508 0.05335 0.0
H635 H 0.90382 0.56881 0.19126 0.0
H636 H 0.93517 0.56614 0.13272 0.0
H637 H 0.92805 0.54212 0.23092 0.0
H638 H 0.92145 0.4409 0.15424 0.0
H639 H 0.95885 0.44607 0.04633 0.0
H640 H 0.94983 0.5361 1.00565 0.0
C641 C 0.85729 0.52343 0.19984 0.0
C642 C 0.83895 0.50244 0.23912 0.0
C643 C 0.84697 0.47429 0.25533 0.0
C644 C 0.87277 0.46678 0.22853 0.0
C645 C 0.89029 0.48786 0.18709 0.0
C646 C 0.88304 0.51571 0.17394 0.0
C647 C 0.90412 0.53394 0.11947 0.0
C648 C 0.89109 0.5501 0.03715 0.0
C649 C 0.91866 0.55393 0.17175 0.0
C650 C 0.9234 0.51185 0.09947 0.0
C651 C 0.91545 0.48546 0.14033 0.0
C652 C 0.92836 0.46152 0.12365 0.0
C653 C 0.94952 0.46462 0.06215 0.0
C654 C 0.95733 0.49146 0.01794 0.0
C655 C 0.94462 0.5153 0.03918 0.0
H656 H 0.99758 0.21115 0.23487 0.0
H657 H 0.07527 0.24743 0.13611 0.0
H658 H 0.07635 0.21466 0.03125 0.0
H659 H 0.01498 0.1423 0.23903 0.0
H660 H 0.98109 0.13139 0.21221 0.0
H661 H 0.98549 0.16136 0.26431 0.0
H662 H 0.95793 0.18963 0.13601 0.0
H663 H 0.9557 0.15934 0.08391 0.0
H664 H 0.97057 0.19157 0.02759 0.0
H665 H 0.07259 0.17257 0.9554 0.0
H666 H 0.06455 0.12551 0.91732 0.0
H667 H 0.9904 0.11579 0.07162 0.0
C668 C 0.01424 0.21275 0.18877 0.0
C669 C 0.03624 0.23183 0.19246 0.0
C670 C 0.05804 0.23324 0.13271 0.0
C671 C 0.05884 0.2146 0.0735 0.0
C672 C 0.03755 0.19484 0.07479 0.0
C673 C 0.01551 0.19399 0.13062 0.0
C674 C 0.99699 0.16879 0.12724 0.0
C675 C 0.99451 0.14991 0.21601 0.0
C676 C 0.96862 0.17788 0.09153 0.0
C677 C 0.01278 0.15474 0.06436 0.0
C678 C 0.03574 0.17034 0.03297 0.0
C679 C 0.05441 0.16044 0.9785 0.0
C680 C 0.04974 0.13374 0.95715 0.0
C681 C 0.02696 0.11707 0.99183 0.0
C682 C 0.00803 0.12809 0.04441 0.0
H683 H 0.31998 0.98573 0.35316 0.0
H684 H 0.2801 0.05981 0.22268 0.0
H685 H 0.31411 0.06378 0.10416 0.0
H686 H 0.38702 0.01285 0.31473 0.0
H687 H 0.4013 0.97963 0.30533 0.0
H688 H 0.37087 0.98091 0.36892 0.0
H689 H 0.34654 0.94792 0.27596 0.0
H690 H 0.37701 0.94811 0.21103 0.0
H691 H 0.34475 0.95854 0.1608 0.0
H692 H 0.35603 0.06231 1.0069 0.0
H693 H 0.40236 0.05702 0.94628 0.0
H694 H 0.4167 0.98674 0.1488 0.0
C695 C 0.31805 1.00235 0.29842 0.0
C696 C 0.29713 0.02222 0.29641 0.0
C697 C 0.29546 0.04394 0.22441 0.0
C698 C 0.31489 0.04647 0.15722 0.0
C699 C 0.33604 0.02723 0.1632 0.0
C700 C 0.33771 0.0056 0.23235 0.0
C701 C 0.364 0.98961 0.22922 0.0
C702 C 0.38181 0.99083 0.30935 0.0
C703 C 0.35769 0.95925 0.21859 0.0
C704 C 0.37727 0.00602 0.14883 0.0
C705 C 0.36062 0.02726 0.11031 0.0
C706 C 0.36909 0.04562 0.0364 0.0
C707 C 0.39536 0.04248 1.00219 0.0
C708 C 0.41308 0.0216 0.04305 0.0
C709 C 0.40361 1.00297 0.11647 0.0
H710 H 0.47148 0.31904 0.25541 0.0
H711 H 0.55797 0.31522 0.31674 0.0
H712 H 0.56706 0.35728 0.20651 0.0
H713 H 0.47866 0.34454 0.02263 0.0
H714 H 0.44984 0.36742 0.01854 0.0
H715 H 0.45055 0.33588 0.09732 0.0
H716 H 0.44377 0.36497 0.21889 0.0
H717 H 0.44335 0.39667 0.14075 0.0
H718 H 0.46754 0.39319 0.22839 0.0
H719 H 0.56641 0.40047 0.09705 0.0
H720 H 0.55711 0.44187 0.98936 0.0
H721 H 0.47021 0.41944 0.99709 0.0
C722 C 0.49232 0.3269 0.24383 0.0
C723 C 0.51424 0.31392 0.2929 0.0
C724 C 0.5412 0.32483 0.27821 0.0
C725 C 0.54642 0.3487 0.21636 0.0
C726 C 0.52435 0.36145 0.17001 0.0
C727 C 0.49783 0.35094 0.18246 0.0
C728 C 0.47778 0.3695 0.12626 0.0
C729 C 0.46336 0.35337 0.06239 0.0
C730 C 0.45688 0.38181 0.18188 0.0
C731 C 0.4972 0.39204 0.08015 0.0
C732 C 0.52392 0.38686 0.10686 0.0
C733 C 0.5456 0.40467 0.07522 0.0
C734 C 0.54001 0.42825 0.01391 0.0
C735 C 0.51288 0.43406 0.98408 0.0
C736 C 0.49115 0.41566 0.01829 0.0
H737 H 0.16402 0.46746 0.24428 0.0
H738 H 0.20709 0.54362 0.13225 0.0
H739 H 0.17227 0.55193 0.01601 0.0
H740 H 0.14151 0.44661 0.03832 0.0
H741 H 0.1089 0.43314 0.08286 0.0
H742 H 0.13865 0.4322 0.15124 0.0
H743 H 0.11232 0.45907 0.25255 0.0
H744 H 0.08256 0.46069 0.18431 0.0
H745 H 0.09779 0.4924 0.21013 0.0
H746 H 0.12971 0.55467 0.92418 0.0
H747 H 0.08518 0.54937 0.85276 0.0
H748 H 0.07071 0.46979 0.0196 0.0
C749 C 0.16637 0.48542 0.19362 0.0
C750 C 0.18827 0.50477 0.19568 0.0
C751 C 0.19068 0.52839 0.13004 0.0
C752 C 0.17092 0.5333 0.06451 0.0
C753 C 0.1491 0.51416 0.06538 0.0
C754 C 0.14699 0.4904 0.12737 0.0
C755 C 0.12103 0.47368 0.11577 0.0
C756 C 0.12795 0.44469 0.09583 0.0
C757 C 0.10231 0.47134 0.19538 0.0
C758 C 0.10858 0.49194 0.03828 0.0
C759 C 0.12502 0.5153 0.0107 0.0
C760 C 0.11695 0.53622 0.94415 0.0
C761 C 0.09158 0.5331 0.9043 0.0
C762 C 0.07472 0.50905 0.93006 0.0
C763 C 0.08346 0.48813 0.9976 0.0
H764 H 0.04099 0.80569 0.38056 0.0
H765 H 0.95507 0.78167 0.40511 0.0
H766 H 0.94841 0.81518 0.50569 0.0
H767 H 0.05249 0.82401 0.59866 0.0
H768 H 0.07369 0.85389 0.55491 0.0
H769 H 0.0728 0.82344 0.50338 0.0
H770 H 0.05931 0.85436 0.35963 0.0
H771 H 0.05968 0.88487 0.41024 0.0
H772 H 0.02923 0.87545 0.35587 0.0
H773 H 0.95033 0.85603 0.58886 0.0
H774 H 0.95981 0.9015 0.63703 0.0
H775 H 0.04323 0.90109 0.54362 0.0
C776 C 0.02097 0.80702 0.40907 0.0
C777 C 0.9986 0.79101 0.38615 0.0
C778 C 0.97257 0.79336 0.4237 0.0
C779 C 0.96863 0.81244 0.48039 0.0
C780 C 0.99094 0.82902 0.49834 0.0
C781 C 0.01663 0.82641 0.46348 0.0
C782 C 0.03628 0.84921 0.48132 0.0
C783 C 0.06023 0.83689 0.53796 0.0
C784 C 0.04672 0.86702 0.39679 0.0
C785 C 0.01755 0.86555 0.52991 0.0
C786 C 0.99166 0.8533 0.5412 0.0
C787 C 0.97064 0.86558 0.5812 0.0
C788 C 0.97614 0.89127 0.60859 0.0
C789 C 1.00219 0.90456 0.59388 0.0
C790 C 0.02318 0.8912 0.55564 0.0
H791 H 0.70177 0.97037 0.22023 0.0
H792 H 0.75427 0.02409 0.34558 0.0
H793 H 0.7193 0.02319 0.46078 0.0
H794 H 0.64007 1.00444 0.25313 0.0
H795 H 0.61916 0.97298 0.26791 0.0
H796 H 0.64974 0.97531 0.20296 0.0
H797 H 0.66767 0.93045 0.29803 0.0
H798 H 0.63713 0.92819 0.36343 0.0
H799 H 0.67046 0.92902 0.4128 0.0
H800 H 0.67656 0.01873 0.55691 0.0
H801 H 0.63109 0.01074 0.62619 0.0
H802 H 0.60537 0.96301 0.42924 0.0
C803 C 0.706 0.98162 0.27267 0.0
C804 C 0.73072 0.99728 0.27442 0.0
C805 C 0.73563 0.01169 0.34397 0.0
C806 C 0.71577 0.01145 0.40907 0.0
C807 C 0.69106 0.99676 0.4034 0.0
C808 C 0.6862 0.98205 0.33688 0.0
C809 C 0.6574 0.96944 0.342 0.0
C810 C 0.64062 0.98126 0.26173 0.0
C811 C 0.65823 0.93737 0.35486 0.0
C812 C 0.64668 0.97939 0.4217 0.0
C813 C 0.66641 0.99496 0.45662 0.0
C814 C 0.66101 0.00655 0.52994 0.0
C815 C 0.63489 1.00204 0.56861 0.0
C816 C 0.6142 0.98621 0.53381 0.0
C817 C 0.62049 0.97488 0.45897 0.0
H818 H 0.54547 0.66538 0.27839 0.0
H819 H 0.47145 0.70648 0.33605 0.0
H820 H 0.46112 0.66777 0.4563 0.0
H821 H 0.51838 0.59542 0.32226 0.0
H822 H 0.54928 0.5802 0.37083 0.0
H823 H 0.55132 0.61142 0.29079 0.0
H824 H 0.57821 0.63711 0.39677 0.0
H825 H 0.57654 0.60596 0.47711 0.0
H826 H 0.56387 0.63837 0.50147 0.0
H827 H 0.45742 0.62361 0.56331 0.0
H828 H 0.46252 0.57882 0.66143 0.0
H829 H 0.54055 0.56661 0.54165 0.0
C830 C 0.52735 0.66624 0.3175 0.0
C831 C 0.5094 0.68898 0.29946 0.0
C832 C 0.48565 0.68948 0.35058 0.0
C833 C 0.47956 0.66749 0.41822 0.0
C834 C 0.49755 0.64524 0.4342 0.0
C835 C 0.52116 0.64457 0.38615 0.0
C836 C 0.53705 0.61818 0.41741 0.0
C837 C 0.53912 0.60024 0.34609 0.0
C838 C 0.56561 0.62534 0.45015 0.0
C839 C 0.5187 0.60416 0.49075 0.0
C840 C 0.49584 0.62002 0.49819 0.0
C841 C 0.47535 0.61114 0.5587 0.0
C842 C 0.4784 0.58558 0.61394 0.0
C843 C 0.50199 0.56925 0.60962 0.0
C844 C 0.52241 0.57874 0.547 0.0
H845 H 0.84009 0.54427 0.37177 0.0
H846 H 0.80151 0.46407 0.46647 0.0
H847 H 0.83644 0.45521 0.58223 0.0
H848 H 0.90742 0.52178 0.39878 0.0
H849 H 0.92135 0.55319 0.43043 0.0
H850 H 0.89143 0.55483 0.36281 0.0
H851 H 0.86416 0.57811 0.47155 0.0
H852 H 0.89407 0.57706 0.53928 0.0
H853 H 0.8621 0.56143 0.58269 0.0
H854 H 0.87861 0.45305 0.67556 0.0
H855 H 0.92283 0.45886 0.74778 0.0
H856 H 0.93383 0.54137 0.59449 0.0
C857 C 0.83858 0.52534 0.41908 0.0
C858 C 0.81777 0.50516 0.41257 0.0
C859 C 0.8168 0.48007 0.47281 0.0
C860 C 0.83669 0.47484 0.53791 0.0
C861 C 0.85736 0.49496 0.54153 0.0
C862 C 0.85824 0.51988 0.48429 0.0
C863 C 0.88353 0.53727 0.49841 0.0
C864 C 0.90203 0.54203 0.41786 0.0
C865 C 0.87548 0.56512 0.52457 0.0
C866 C 0.8969 0.51821 0.57242 0.0
C867 C 0.88154 0.49383 0.59584 0.0
C868 C 0.89054 0.47224 0.65872 0.0
C869 C 0.91576 0.47568 0.69908 0.0
C870 C 0.93162 0.50066 0.67733 0.0
C871 C 0.92191 0.52225 0.61346 0.0
loop_
_geom_bond_atom_site_label_1
_geom_bond_atom_site_label_2
_geom_bond_distance
_geom_bond_site_symmetry_2
_ccdc_geom_bond_type
C0 N1 1.317 . S
C0 N2 1.348 . S
C0 C3 1.485 . S
N1 C0 1.317 . S
N1 N5 1.370 . S
N2 C0 1.348 . S
N2 C4 1.346 . S
C3 C0 1.485 . S
C3 H7 0.960 . S
C3 H8 0.961 . S
C3 H9 0.960 . S
C4 N2 1.346 . S
C4 N5 1.307 . S
C4 C6 1.486 . S
N5 N1 1.370 . S
N5 C4 1.307 . S
C6 C4 1.486 . S
C6 H10 0.960 1_554 S
C6 H11 0.960 . S
C6 H12 0.959 1_554 S
H7 C3 0.960 . S
H8 C3 0.961 . S
H9 C3 0.960 . S
H10 C6 0.960 1_556 S
H11 C6 0.960 . S
H12 C6 0.959 1_556 S
C13 N14 1.317 . S
C13 N15 1.348 . S
C13 C16 1.485 . S
N14 C13 1.317 . S
N14 N18 1.370 . S
N15 C13 1.348 . S
N15 C17 1.346 . S
C16 C13 1.485 . S
C16 H20 0.960 . S
C16 H21 0.961 . S
C16 H22 0.960 . S
C17 N15 1.346 . S
C17 N18 1.307 . S
C17 C19 1.486 1_554 S
N18 N14 1.370 . S
N18 C17 1.307 . S
C19 C17 1.486 1_556 S
C19 H23 0.960 . S
C19 H24 0.960 . S
C19 H25 0.959 . S
H20 C16 0.960 . S
H21 C16 0.961 . S
H22 C16 0.960 . S
H23 C19 0.960 . S
H24 C19 0.960 . S
H25 C19 0.959 . S
C26 N27 1.317 . S
C26 N28 1.344 . S
C26 C29 1.485 . S
N27 C26 1.317 . S
N27 N31 1.369 . S
N28 C26 1.344 . S
N28 C30 1.349 1_564 S
C29 C26 1.485 . S
C29 H33 0.960 1_565 S
C29 H34 0.961 . S
C29 H35 0.960 . S
C30 N28 1.349 1_546 S
C30 N31 1.308 1_546 S
C30 C32 1.492 . S
N31 N27 1.369 . S
N31 C30 1.308 1_564 S
C32 C30 1.492 . S
C32 H36 0.919 1_545 S
C32 H37 0.989 . S
C32 H38 0.966 . S
H33 C29 0.960 1_545 S
H34 C29 0.961 . S
H35 C29 0.960 . S
H36 C32 0.919 1_565 S
H37 C32 0.989 . S
H38 C32 0.966 . S
C39 N40 1.317 . S
C39 N41 1.348 . S
C39 C42 1.485 . S
N40 C39 1.317 . S
N40 N44 1.370 . S
N41 C39 1.348 . S
N41 C43 1.346 . S
C42 C39 1.485 . S
C42 H46 0.960 . S
C42 H47 0.961 . S
C42 H48 0.960 . S
C43 N41 1.346 . S
C43 N44 1.307 . S
C43 C45 1.486 1_554 S
N44 N40 1.370 . S
N44 C43 1.307 . S
C45 C43 1.486 1_556 S
C45 H49 0.960 . S
C45 H50 0.960 . S
C45 H51 0.959 . S
H46 C42 0.960 . S
H47 C42 0.961 . S
H48 C42 0.960 . S
H49 C45 0.960 . S
H50 C45 0.960 . S
H51 C45 0.959 . S
C52 N53 1.317 . S
C52 N54 1.348 . S
C52 C55 1.485 . S
N53 C52 1.317 . S
N53 N57 1.370 . S
N54 C52 1.348 . S
N54 C56 1.346 . S
C55 C52 1.485 . S
C55 H59 0.960 . S
C55 H60 0.961 . S
C55 H61 0.960 . S
C56 N54 1.346 . S
C56 N57 1.307 . S
C56 C58 1.486 . S
N57 N53 1.370 . S
N57 C56 1.307 . S
C58 C56 1.486 . S
C58 H62 0.960 . S
C58 H63 0.960 . S
C58 H64 0.959 . S
H59 C55 0.960 . S
H60 C55 0.961 . S
H61 C55 0.960 . S
H62 C58 0.960 . S
H63 C58 0.960 . S
H64 C58 0.959 . S
C65 N66 1.317 . S
C65 N67 1.348 . S
C65 C68 1.485 . S
N66 C65 1.317 . S
N66 N70 1.370 . S
N67 C65 1.348 . S
N67 C69 1.346 . S
C68 C65 1.485 . S
C68 H72 0.960 . S
C68 H73 0.961 . S
C68 H74 0.960 . S
C69 N67 1.346 . S
C69 N70 1.307 . S
C69 C71 1.486 . S
N70 N66 1.370 . S
N70 C69 1.307 . S
C71 C69 1.486 . S
C71 H75 0.960 . S
C71 H76 0.960 . S
C71 H77 0.959 . S
H72 C68 0.960 . S
H73 C68 0.961 . S
H74 C68 0.960 . S
H75 C71 0.960 . S
H76 C71 0.960 . S
H77 C71 0.959 . S
C78 N79 1.317 . S
C78 N80 1.354 . S
C78 C81 1.485 . S
N79 C78 1.317 . S
N79 N83 1.371 . S
N80 C78 1.354 . S
N80 C82 1.342 1_565 S
C81 C78 1.485 . S
C81 H85 0.960 1_565 S
C81 H86 0.961 . S
C81 H87 0.960 . S
C82 N80 1.342 1_545 S
C82 N83 1.305 1_545 S
C82 C84 1.488 . S
N83 N79 1.371 . S
N83 C82 1.305 1_565 S
C84 C82 1.488 . S
C84 H88 0.960 1_545 S
C84 H89 0.960 . S
C84 H90 0.959 . S
H85 C81 0.960 1_545 S
H86 C81 0.961 . S
H87 C81 0.960 . S
H88 C84 0.960 1_565 S
H89 C84 0.960 . S
H90 C84 0.959 . S
C91 N92 1.317 . S
C91 N93 1.348 . S
C91 C94 1.485 . S
N92 C91 1.317 . S
N92 N96 1.370 . S
N93 C91 1.348 . S
N93 C95 1.346 . S
C94 C91 1.485 . S
C94 H98 0.960 . S
C94 H99 0.961 . S
C94 H100 0.960 . S
C95 N93 1.346 . S
C95 N96 1.307 . S
C95 C97 1.486 . S
N96 N92 1.370 . S
N96 C95 1.307 . S
C97 C95 1.486 . S
C97 H101 0.960 . S
C97 H102 0.960 . S
C97 H103 0.959 . S
H98 C94 0.960 . S
H99 C94 0.961 . S
H100 C94 0.960 . S
H101 C97 0.960 . S
H102 C97 0.960 . S
H103 C97 0.959 . S
Co104 N109 2.057 . S
Co104 O121 2.021 . S
Co104 O124 2.062 . S
Co104 O128 2.117 1_455 S
Co104 O129 2.020 1_545 S
C105 O125 1.259 1_545 S
C105 O128 1.258 . S
Co106 N115 2.057 . S
Co106 O122 2.117 1_655 S
Co106 O123 2.020 1_665 S
Co106 O125 2.021 . S
Co106 O130 2.062 . S
C107 N109 1.316 . S
C107 N110 1.347 1_556 S
C107 H112 0.931 . S
C108 N109 1.375 1_654 S
C108 C111 1.353 . S
C108 H113 0.932 . S
N109 Co104 2.057 . S
N109 C107 1.316 . S
N109 C108 1.375 1_456 S
N110 C107 1.347 1_554 S
N110 C111 1.362 1_455 S
C111 C108 1.353 . S
C111 N110 1.362 1_655 S
C111 H132 0.937 . S
H112 C107 0.931 . S
H113 C108 0.932 . S
C114 O121 1.259 1_565 S
C114 O122 1.258 . S
N115 Co106 2.057 . S
N115 C116 1.316 . S
N115 C117 1.375 1_655 S
C116 N115 1.316 . S
C116 N118 1.347 . S
C116 H127 0.931 . S
C117 N115 1.375 1_455 S
C117 C119 1.350 . S
C117 H126 0.930 . S
N118 C116 1.347 . S
N118 C119 1.373 1_655 S
C119 C117 1.350 . S
C119 N118 1.373 1_455 S
C119 H133 0.931 . S
C120 O123 1.256 . S
C120 O124 1.255 . S
O121 Co104 2.021 . S
O121 C114 1.259 1_545 S
O122 Co106 2.117 1_455 S
O122 C114 1.258 . S
O123 Co106 2.020 1_445 S
O123 C120 1.256 . S
O124 Co104 2.062 . S
O124 C120 1.255 . S
O125 C105 1.259 1_565 S
O125 Co106 2.021 . S
H126 C117 0.930 . S
H127 C116 0.931 . S
O128 Co104 2.117 1_655 S
O128 C105 1.258 . S
O129 Co104 2.020 1_565 S
O129 C131 1.252 1_455 S
O130 Co106 2.062 . S
O130 C131 1.258 . S
C131 O129 1.252 1_655 S
C131 O130 1.258 . S
H132 C111 0.937 . S
H133 C119 0.931 . S
Co134 N139 2.057 1_545 S
Co134 O151 2.021 . S
Co134 O154 2.069 . S
Co134 O158 2.117 1_545 S
Co134 O159 2.020 . S
C135 O155 1.259 . S
C135 O158 1.258 . S
Co136 N145 2.057 1_565 S
Co136 O152 2.117 1_565 S
Co136 O153 2.020 . S
Co136 O155 2.021 . S
Co136 O160 2.067 . S
C137 N139 1.316 1_544 S
C137 N140 1.347 . S
C137 H142 0.931 1_554 S
C138 N139 1.375 1_554 S
C138 C141 1.350 . S
C138 H143 0.930 . S
N139 Co134 2.057 1_565 S
N139 C137 1.316 1_566 S
N139 C138 1.375 1_556 S
N140 C137 1.347 . S
N140 C141 1.373 1_545 S
C141 C138 1.350 . S
C141 N140 1.373 1_565 S
C141 H162 0.931 . S
H142 C137 0.931 1_556 S
H143 C138 0.930 . S
C144 O151 1.259 . S
C144 O152 1.258 . S
N145 Co136 2.057 1_545 S
N145 C146 1.316 1_545 S
N145 C147 1.375 . S
C146 N145 1.316 1_565 S
C146 N148 1.347 . S
C146 H157 0.931 . S
C147 N145 1.375 . S
C147 C149 1.350 . S
C147 H156 0.930 . S
N148 C146 1.347 . S
N148 C149 1.373 1_565 S
C149 C147 1.350 . S
C149 N148 1.373 1_545 S
C149 H163 0.931 . S
C150 O153 1.256 . S
C150 O154 1.241 1_565 S
O151 Co134 2.021 . S
O151 C144 1.259 . S
O152 Co136 2.117 1_545 S
O152 C144 1.258 . S
O153 Co136 2.020 . S
O153 C150 1.256 . S
O154 Co134 2.069 . S
O154 C150 1.241 1_545 S
O155 C135 1.259 . S
O155 Co136 2.021 . S
H156 C147 0.930 . S
H157 C146 0.931 . S
O158 Co134 2.117 1_565 S
O158 C135 1.258 . S
O159 Co134 2.020 . S
O159 C161 1.256 . S
O160 Co136 2.067 . S
O160 C161 1.244 1_565 S
C161 O159 1.256 . S
C161 O160 1.244 1_545 S
H162 C141 0.931 . S
H163 C149 0.931 . S
Co164 N169 2.057 . S
Co164 O181 2.021 . S
Co164 O184 2.062 . S
Co164 O188 2.117 . S
Co164 O189 2.020 . S
C165 O185 1.259 . S
C165 O188 1.258 . S
Co166 N175 2.057 . S
Co166 O182 2.117 . S
Co166 O183 2.020 . S
Co166 O185 2.021 . S
Co166 O190 2.062 . S
C167 N169 1.316 . S
C167 N170 1.347 . S
C167 H172 0.931 . S
C168 N169 1.375 . S
C168 C171 1.350 . S
C168 H173 0.930 . S
N169 Co164 2.057 . S
N169 C167 1.316 . S
N169 C168 1.375 . S
N170 C167 1.347 . S
N170 C171 1.373 . S
C171 C168 1.350 . S
C171 N170 1.373 . S
C171 H192 0.931 . S
H172 C167 0.931 . S
H173 C168 0.930 . S
C174 O181 1.259 . S
C174 O182 1.258 . S
N175 Co166 2.057 . S
N175 C176 1.316 . S
N175 C177 1.375 . S
C176 N175 1.316 . S
C176 N178 1.347 . S
C176 H187 0.931 . S
C177 N175 1.375 . S
C177 C179 1.350 . S
C177 H186 0.930 . S
N178 C176 1.347 . S
N178 C179 1.373 . S
C179 C177 1.350 . S
C179 N178 1.373 . S
C179 H193 0.931 . S
C180 O183 1.256 . S
C180 O184 1.255 . S
O181 Co164 2.021 . S
O181 C174 1.259 . S
O182 Co166 2.117 . S
O182 C174 1.258 . S
O183 Co166 2.020 . S
O183 C180 1.256 . S
O184 Co164 2.062 . S
O184 C180 1.255 . S
O185 C165 1.259 . S
O185 Co166 2.021 . S
H186 C177 0.930 . S
H187 C176 0.931 . S
O188 Co164 2.117 . S
O188 C165 1.258 . S
O189 Co164 2.020 . S
O189 C191 1.256 . S
O190 Co166 2.062 . S
O190 C191 1.255 . S
C191 O189 1.256 . S
C191 O190 1.255 . S
H192 C171 0.931 . S
H193 C179 0.931 . S
Co194 N199 2.057 . S
Co194 O211 2.021 1_455 S
Co194 O214 2.062 1_455 S
Co194 O218 2.117 . S
Co194 O219 2.020 . S
C195 O215 1.259 . S
C195 O218 1.258 . S
Co196 N205 2.057 . S
Co196 O212 2.117 1_455 S
Co196 O213 2.020 1_455 S
Co196 O215 2.021 . S
Co196 O220 2.062 . S
C197 N199 1.316 1_655 S
C197 N200 1.347 . S
C197 H202 0.931 . S
C198 N199 1.375 . S
C198 C201 1.350 . S
C198 H203 0.930 . S
N199 Co194 2.057 . S
N199 C197 1.316 1_455 S
N199 C198 1.375 . S
N200 C197 1.347 . S
N200 C201 1.373 1_655 S
C201 C198 1.350 . S
C201 N200 1.373 1_455 S
C201 H222 0.931 . S
H202 C197 0.931 . S
H203 C198 0.930 . S
C204 O211 1.259 . S
C204 O212 1.258 . S
N205 Co196 2.057 . S
N205 C206 1.316 . S
N205 C207 1.375 1_455 S
C206 N205 1.316 . S
C206 N208 1.347 . S
C206 H217 0.931 . S
C207 N205 1.375 1_655 S
C207 C209 1.350 . S
C207 H216 0.930 . S
N208 C206 1.347 . S
N208 C209 1.373 1_455 S
C209 C207 1.350 . S
C209 N208 1.373 1_655 S
C209 H223 0.931 . S
C210 O213 1.256 . S
C210 O214 1.255 . S
O211 Co194 2.021 1_655 S
O211 C204 1.259 . S
O212 Co196 2.117 1_655 S
O212 C204 1.258 . S
O213 Co196 2.020 1_655 S
O213 C210 1.256 . S
O214 Co194 2.062 1_655 S
O214 C210 1.255 . S
O215 C195 1.259 . S
O215 Co196 2.021 . S
H216 C207 0.930 . S
H217 C206 0.931 . S
O218 Co194 2.117 . S
O218 C195 1.258 . S
O219 Co194 2.020 . S
O219 C221 1.256 . S
O220 Co196 2.062 . S
O220 C221 1.255 . S
C221 O219 1.256 . S
C221 O220 1.255 . S
H222 C201 0.931 . S
H223 C209 0.931 . S
H224 C236 0.930 . S
H225 C238 0.930 . S
H226 C239 0.930 . S
H227 C243 0.959 . S
H228 C243 0.959 . S
H229 C243 0.961 . S
H230 C244 0.960 . S
H231 C244 0.961 . S
H232 C244 0.959 . S
H233 C247 0.929 . S
H234 C248 0.931 . S
H235 C250 0.930 . S
C236 H224 0.930 . S
C236 C237 1.399 1_565 S
C236 C241 1.399 . S
C237 C236 1.399 1_545 S
C237 C238 1.376 . S
C238 H225 0.930 . S
C238 C237 1.376 . S
C238 C239 1.388 . S
C239 H226 0.930 . S
C239 C238 1.388 . S
C239 C240 1.390 . S
C240 C239 1.390 . S
C240 C241 1.394 1_545 S
C240 C246 1.465 . S
C241 C236 1.399 . S
C241 C240 1.394 1_565 S
C241 C242 1.516 . S
C242 C241 1.516 . S
C242 C243 1.502 . S
C242 C244 1.561 . S
C242 C245 1.526 . S
C243 H227 0.959 . S
C243 H228 0.959 . S
C243 H229 0.961 . S
C243 C242 1.502 . S
C244 H230 0.960 . S
C244 H231 0.961 . S
C244 H232 0.959 . S
C244 C242 1.561 . S
C245 C242 1.526 . S
C245 C246 1.396 1_565 S
C245 C250 1.390 . S
C246 C240 1.465 . S
C246 C245 1.396 1_545 S
C246 C247 1.399 . S
C247 H233 0.929 . S
C247 C246 1.399 . S
C247 C248 1.385 . S
C248 H234 0.931 . S
C248 C247 1.385 . S
C248 C249 1.389 1_545 S
C249 C248 1.389 1_565 S
C249 C250 1.387 . S
C250 H235 0.930 . S
C250 C245 1.390 . S
C250 C249 1.387 . S
H251 C263 0.930 . S
H252 C265 0.930 . S
H253 C266 0.930 . S
H254 C270 0.959 . S
H255 C270 0.959 . S
H256 C270 0.961 . S
H257 C271 0.960 . S
H258 C271 0.961 . S
H259 C271 0.959 . S
H260 C274 0.929 . S
H261 C275 0.931 . S
H262 C277 0.930 . S
C263 H251 0.930 . S
C263 C264 1.399 . S
C263 C268 1.399 . S
C264 C263 1.399 . S
C264 C265 1.376 . S
C265 H252 0.930 . S
C265 C264 1.376 . S
C265 C266 1.388 . S
C266 H253 0.930 . S
C266 C265 1.388 . S
C266 C267 1.390 . S
C267 C266 1.390 . S
C267 C268 1.394 . S
C267 C273 1.465 . S
C268 C263 1.399 . S
C268 C267 1.394 . S
C268 C269 1.516 . S
C269 C268 1.516 . S
C269 C270 1.502 . S
C269 C271 1.561 . S
C269 C272 1.526 . S
C270 H254 0.959 . S
C270 H255 0.959 . S
C270 H256 0.961 . S
C270 C269 1.502 . S
C271 H257 0.960 . S
C271 H258 0.961 . S
C271 H259 0.959 . S
C271 C269 1.561 . S
C272 C269 1.526 . S
C272 C273 1.396 . S
C272 C277 1.390 . S
C273 C267 1.465 . S
C273 C272 1.396 . S
C273 C274 1.399 . S
C274 H260 0.929 . S
C274 C273 1.399 . S
C274 C275 1.385 . S
C275 H261 0.931 . S
C275 C274 1.385 . S
C275 C276 1.389 . S
C276 C275 1.389 . S
C276 C277 1.387 . S
C277 H262 0.930 . S
C277 C272 1.390 . S
C277 C276 1.387 . S
H278 C290 0.930 . S
H279 C292 0.930 . S
H280 C293 0.930 . S
H281 C297 0.959 . S
H282 C297 0.959 . S
H283 C297 0.961 . S
H284 C298 0.960 . S
H285 C298 0.961 . S
H286 C298 0.959 . S
H287 C301 0.929 . S
H288 C302 0.931 . S
H289 C304 0.930 . S
C290 H278 0.930 . S
C290 C291 1.399 . S
C290 C295 1.399 . S
C291 C290 1.399 . S
C291 C292 1.376 . S
C292 H279 0.930 . S
C292 C291 1.376 . S
C292 C293 1.388 . S
C293 H280 0.930 . S
C293 C292 1.388 . S
C293 C294 1.390 . S
C294 C293 1.390 . S
C294 C295 1.394 . S
C294 C300 1.465 . S
C295 C290 1.399 . S
C295 C294 1.394 . S
C295 C296 1.516 . S
C296 C295 1.516 . S
C296 C297 1.502 . S
C296 C298 1.561 . S
C296 C299 1.526 . S
C297 H281 0.959 . S
C297 H282 0.959 . S
C297 H283 0.961 . S
C297 C296 1.502 . S
C298 H284 0.960 . S
C298 H285 0.961 . S
C298 H286 0.959 . S
C298 C296 1.561 . S
C299 C296 1.526 . S
C299 C300 1.396 . S
C299 C304 1.390 . S
C300 C294 1.465 . S
C300 C299 1.396 . S
C300 C301 1.399 . S
C301 H287 0.929 . S
C301 C300 1.399 . S
C301 C302 1.385 . S
C302 H288 0.931 . S
C302 C301 1.385 . S
C302 C303 1.389 . S
C303 C302 1.389 . S
C303 C304 1.387 . S
C304 H289 0.930 . S
C304 C299 1.390 . S
C304 C303 1.387 . S
H305 C317 0.930 . S
H306 C319 0.930 . S
H307 C320 0.930 . S
H308 C324 0.959 . S
H309 C324 0.959 . S
H310 C324 0.961 . S
H311 C325 0.960 . S
H312 C325 0.961 1_655 S
H313 C325 0.959 1_655 S
H314 C328 0.929 . S
H315 C329 0.931 . S
H316 C331 0.930 . S
C317 H305 0.930 . S
C317 C318 1.399 . S
C317 C322 1.399 . S
C318 C317 1.399 . S
C318 C319 1.376 . S
C319 H306 0.930 . S
C319 C318 1.376 . S
C319 C320 1.388 . S
C320 H307 0.930 . S
C320 C319 1.388 . S
C320 C321 1.390 . S
C321 C320 1.390 . S
C321 C322 1.394 . S
C321 C327 1.465 . S
C322 C317 1.399 . S
C322 C321 1.394 . S
C322 C323 1.516 . S
C323 C322 1.516 . S
C323 C324 1.502 . S
C323 C325 1.561 . S
C323 C326 1.526 . S
C324 H308 0.959 . S
C324 H309 0.959 . S
C324 H310 0.961 . S
C324 C323 1.502 . S
C325 H311 0.960 . S
C325 H312 0.961 1_455 S
C325 H313 0.959 1_455 S
C325 C323 1.561 . S
C326 C323 1.526 . S
C326 C327 1.396 . S
C326 C331 1.390 . S
C327 C321 1.465 . S
C327 C326 1.396 . S
C327 C328 1.399 . S
C328 H314 0.929 . S
C328 C327 1.399 . S
C328 C329 1.385 . S
C329 H315 0.931 . S
C329 C328 1.385 . S
C329 C330 1.389 . S
C330 C329 1.389 . S
C330 C331 1.387 . S
C331 H316 0.930 . S
C331 C326 1.390 . S
C331 C330 1.387 . S
H332 C344 0.930 . S
H333 C346 0.930 . S
H334 C347 0.930 . S
H335 C351 0.959 . S
H336 C351 0.959 . S
H337 C351 0.961 . S
H338 C352 0.960 1_554 S
H339 C352 0.961 . S
H340 C352 0.959 1_554 S
H341 C355 0.929 . S
H342 C356 0.931 . S
H343 C358 0.930 . S
C344 H332 0.930 . S
C344 C345 1.399 1_546 S
C344 C349 1.399 . S
C345 C344 1.399 1_564 S
C345 C346 1.376 . S
C346 H333 0.930 . S
C346 C345 1.376 . S
C346 C347 1.388 1_554 S
C347 H334 0.930 . S
C347 C346 1.388 1_556 S
C347 C348 1.390 . S
C348 C347 1.390 . S
C348 C349 1.394 1_565 S
C348 C354 1.465 . S
C349 C344 1.399 . S
C349 C348 1.394 1_545 S
C349 C350 1.516 . S
C350 C349 1.516 . S
C350 C351 1.502 . S
C350 C352 1.561 . S
C350 C353 1.526 . S
C351 H335 0.959 . S
C351 H336 0.959 . S
C351 H337 0.961 . S
C351 C350 1.502 . S
C352 H338 0.960 1_556 S
C352 H339 0.961 . S
C352 H340 0.959 1_556 S
C352 C350 1.561 . S
C353 C350 1.526 . S
C353 C354 1.396 1_545 S
C353 C358 1.390 . S
C354 C348 1.465 . S
C354 C353 1.396 1_565 S
C354 C355 1.399 . S
C355 H341 0.929 . S
C355 C354 1.399 . S
C355 C356 1.385 . S
C356 H342 0.931 . S
C356 C355 1.385 . S
C356 C357 1.389 1_565 S
C357 C356 1.389 1_545 S
C357 C358 1.387 . S
C358 H343 0.930 . S
C358 C353 1.390 . S
C358 C357 1.387 . S
H359 C371 0.930 . S
H360 C373 0.930 . S
H361 C374 0.930 . S
H362 C378 0.959 . S
H363 C378 0.959 . S
H364 C378 0.961 . S
H365 C379 0.960 . S
H366 C379 0.961 . S
H367 C379 0.959 . S
H368 C382 0.929 1_554 S
H369 C383 0.931 . S
H370 C385 0.930 . S
C371 H359 0.930 . S
C371 C372 1.399 1_556 S
C371 C376 1.399 . S
C372 C371 1.399 1_554 S
C372 C373 1.376 . S
C373 H360 0.930 . S
C373 C372 1.376 . S
C373 C374 1.388 . S
C374 H361 0.930 . S
C374 C373 1.388 . S
C374 C375 1.390 . S
C375 C374 1.390 . S
C375 C376 1.394 1_554 S
C375 C381 1.465 1_554 S
C376 C371 1.399 . S
C376 C375 1.394 1_556 S
C376 C377 1.516 . S
C377 C376 1.516 . S
C377 C378 1.502 . S
C377 C379 1.561 . S
C377 C380 1.526 . S
C378 H362 0.959 . S
C378 H363 0.959 . S
C378 H364 0.961 . S
C378 C377 1.502 . S
C379 H365 0.960 . S
C379 H366 0.961 . S
C379 H367 0.959 . S
C379 C377 1.561 . S
C380 C377 1.526 . S
C380 C381 1.396 . S
C380 C385 1.390 . S
C381 C375 1.465 1_556 S
C381 C380 1.396 . S
C381 C382 1.399 . S
C382 H368 0.929 1_556 S
C382 C381 1.399 . S
C382 C383 1.385 . S
C383 H369 0.931 . S
C383 C382 1.385 . S
C383 C384 1.389 . S
C384 C383 1.389 . S
C384 C385 1.387 . S
C385 H370 0.930 . S
C385 C380 1.390 . S
C385 C384 1.387 . S
H386 C398 0.930 . S
H387 C400 0.930 . S
H388 C401 0.930 . S
H389 C405 0.959 1_556 S
H390 C405 0.959 1_556 S
H391 C405 0.961 . S
H392 C406 0.960 . S
H393 C406 0.961 . S
H394 C406 0.959 . S
H395 C409 0.929 . S
H396 C410 0.931 . S
H397 C412 0.930 . S
C398 H386 0.930 . S
C398 C399 1.399 . S
C398 C403 1.399 . S
C399 C398 1.399 . S
C399 C400 1.376 . S
C400 H387 0.930 . S
C400 C399 1.376 . S
C400 C401 1.388 . S
C401 H388 0.930 . S
C401 C400 1.388 . S
C401 C402 1.390 . S
C402 C401 1.390 . S
C402 C403 1.394 . S
C402 C408 1.465 1_554 S
C403 C398 1.399 . S
C403 C402 1.394 . S
C403 C404 1.516 . S
C404 C403 1.516 . S
C404 C405 1.502 . S
C404 C406 1.561 . S
C404 C407 1.526 1_554 S
C405 H389 0.959 1_554 S
C405 H390 0.959 1_554 S
C405 H391 0.961 . S
C405 C404 1.502 . S
C406 H392 0.960 . S
C406 H393 0.961 . S
C406 H394 0.959 . S
C406 C404 1.561 . S
C407 C404 1.526 1_556 S
C407 C408 1.396 . S
C407 C412 1.390 . S
C408 C402 1.465 1_556 S
C408 C407 1.396 . S
C408 C409 1.399 . S
C409 H395 0.929 . S
C409 C408 1.399 . S
C409 C410 1.385 . S
C410 H396 0.931 . S
C410 C409 1.385 . S
C410 C411 1.389 . S
C411 C410 1.389 . S
C411 C412 1.387 . S
C412 H397 0.930 . S
C412 C407 1.390 . S
C412 C411 1.387 . S
H413 C425 0.930 . S
H414 C427 0.930 . S
H415 C428 0.930 . S
H416 C432 0.959 . S
H417 C432 0.959 . S
H418 C432 0.961 . S
H419 C433 0.960 . S
H420 C433 0.961 . S
H421 C433 0.959 1_455 S
H422 C436 0.929 . S
H423 C437 0.936 . S
H424 C439 0.930 . S
C425 H413 0.930 . S
C425 C426 1.399 1_556 S
C425 C430 1.399 . S
C426 C425 1.399 1_554 S
C426 C427 1.376 . S
C427 H414 0.930 . S
C427 C426 1.376 . S
C427 C428 1.388 . S
C428 H415 0.930 . S
C428 C427 1.388 . S
C428 C429 1.390 . S
C429 C428 1.390 . S
C429 C430 1.394 1_554 S
C429 C435 1.465 1_554 S
C430 C425 1.399 . S
C430 C429 1.394 1_556 S
C430 C431 1.516 . S
C431 C430 1.516 . S
C431 C432 1.502 . S
C431 C433 1.561 . S
C431 C434 1.526 . S
C432 H416 0.959 . S
C432 H417 0.959 . S
C432 H418 0.961 . S
C432 C431 1.502 . S
C433 H419 0.960 . S
C433 H420 0.961 . S
C433 H421 0.959 1_655 S
C433 C431 1.561 . S
C434 C431 1.526 . S
C434 C435 1.396 . S
C434 C439 1.390 . S
C435 C429 1.465 1_556 S
C435 C434 1.396 . S
C435 C436 1.399 1_556 S
C436 H422 0.929 . S
C436 C435 1.399 1_554 S
C436 C437 1.385 1_554 S
C437 H423 0.936 . S
C437 C436 1.385 1_556 S
C437 C438 1.389 . S
C438 C437 1.389 . S
C438 C439 1.387 . S
C439 H424 0.930 . S
C439 C434 1.390 . S
C439 C438 1.387 . S
H440 C452 0.930 . S
H441 C454 0.930 . S
H442 C455 0.930 . S
H443 C459 0.959 . S
H444 C459 0.959 . S
H445 C459 0.961 . S
H446 C460 0.960 . S
H447 C460 0.961 . S
H448 C460 0.959 . S
H449 C463 0.929 . S
H450 C464 0.931 . S
H451 C466 0.930 1_655 S
C452 H440 0.930 . S
C452 C453 1.399 . S
C452 C457 1.399 . S
C453 C452 1.399 . S
C453 C454 1.376 . S
C454 H441 0.930 . S
C454 C453 1.376 . S
C454 C455 1.388 . S
C455 H442 0.930 . S
C455 C454 1.388 . S
C455 C456 1.390 . S
C456 C455 1.390 . S
C456 C457 1.394 . S
C456 C462 1.465 . S
C457 C452 1.399 . S
C457 C456 1.394 . S
C457 C458 1.516 . S
C458 C457 1.516 . S
C458 C459 1.502 1_455 S
C458 C460 1.561 . S
C458 C461 1.526 . S
C459 H443 0.959 . S
C459 H444 0.959 . S
C459 H445 0.961 . S
C459 C458 1.502 1_655 S
C460 H446 0.960 . S
C460 H447 0.961 . S
C460 H448 0.959 . S
C460 C458 1.561 . S
C461 C458 1.526 . S
C461 C462 1.396 . S
C461 C466 1.390 . S
C462 C456 1.465 . S
C462 C461 1.396 . S
C462 C463 1.399 . S
C463 H449 0.929 . S
C463 C462 1.399 . S
C463 C464 1.385 . S
C464 H450 0.931 . S
C464 C463 1.385 . S
C464 C465 1.389 . S
C465 C464 1.389 . S
C465 C466 1.387 . S
C466 H451 0.930 1_455 S
C466 C461 1.390 . S
C466 C465 1.387 . S
H467 C479 0.930 . S
H468 C481 0.930 . S
H469 C482 0.930 . S
H470 C486 0.959 . S
H471 C486 0.959 . S
H472 C486 0.961 . S
H473 C487 0.960 . S
H474 C487 0.961 . S
H475 C487 0.959 . S
H476 C490 0.929 . S
H477 C491 0.931 . S
H478 C493 0.930 . S
C479 H467 0.930 . S
C479 C480 1.399 1_565 S
C479 C484 1.399 . S
C480 C479 1.399 1_545 S
C480 C481 1.376 . S
C481 H468 0.930 . S
C481 C480 1.376 . S
C481 C482 1.388 . S
C482 H469 0.930 . S
C482 C481 1.388 . S
C482 C483 1.390 . S
C483 C482 1.390 . S
C483 C484 1.394 1_545 S
C483 C489 1.465 . S
C484 C479 1.399 . S
C484 C483 1.394 1_565 S
C484 C485 1.516 . S
C485 C484 1.516 . S
C485 C486 1.502 . S
C485 C487 1.561 . S
C485 C488 1.526 . S
C486 H470 0.959 . S
C486 H471 0.959 . S
C486 H472 0.961 . S
C486 C485 1.502 . S
C487 H473 0.960 . S
C487 H474 0.961 . S
C487 H475 0.959 . S
C487 C485 1.561 . S
C488 C485 1.526 . S
C488 C489 1.396 1_565 S
C488 C493 1.390 . S
C489 C483 1.465 . S
C489 C488 1.396 1_545 S
C489 C490 1.399 . S
C490 H476 0.929 . S
C490 C489 1.399 . S
C490 C491 1.385 . S
C491 H477 0.931 . S
C491 C490 1.385 . S
C491 C492 1.389 1_545 S
C492 C491 1.389 1_565 S
C492 C493 1.387 . S
C493 H478 0.930 . S
C493 C488 1.390 . S
C493 C492 1.387 . S
H494 C506 0.930 . S
H495 C508 0.930 . S
H496 C509 0.930 . S
H497 C513 0.959 . S
H498 C513 0.959 . S
H499 C513 0.961 . S
H500 C514 0.960 . S
H501 C514 0.961 . S
H502 C514 0.959 . S
H503 C517 0.929 . S
H504 C518 0.931 . S
H505 C520 0.930 . S
C506 H494 0.930 . S
C506 C507 1.399 . S
C506 C511 1.399 . S
C507 C506 1.399 . S
C507 C508 1.376 . S
C508 H495 0.930 . S
C508 C507 1.376 . S
C508 C509 1.388 . S
C509 H496 0.930 . S
C509 C508 1.388 . S
C509 C510 1.390 . S
C510 C509 1.390 . S
C510 C511 1.394 . S
C510 C516 1.465 . S
C511 C506 1.399 . S
C511 C510 1.394 . S
C511 C512 1.516 . S
C512 C511 1.516 . S
C512 C513 1.502 . S
C512 C514 1.561 . S
C512 C515 1.526 . S
C513 H497 0.959 . S
C513 H498 0.959 . S
C513 H499 0.961 . S
C513 C512 1.502 . S
C514 H500 0.960 . S
C514 H501 0.961 . S
C514 H502 0.959 . S
C514 C512 1.561 . S
C515 C512 1.526 . S
C515 C516 1.396 . S
C515 C520 1.390 . S
C516 C510 1.465 . S
C516 C515 1.396 . S
C516 C517 1.399 . S
C517 H503 0.929 . S
C517 C516 1.399 . S
C517 C518 1.385 . S
C518 H504 0.931 . S
C518 C517 1.385 . S
C518 C519 1.389 . S
C519 C518 1.389 . S
C519 C520 1.387 . S
C520 H505 0.930 . S
C520 C515 1.390 . S
C520 C519 1.387 . S
H521 C533 0.930 . S
H522 C535 0.930 . S
H523 C536 0.930 . S
H524 C540 0.959 . S
H525 C540 0.959 . S
H526 C540 0.961 . S
H527 C541 0.960 . S
H528 C541 0.961 . S
H529 C541 0.959 . S
H530 C544 0.929 . S
H531 C545 0.931 . S
H532 C547 0.930 . S
C533 H521 0.930 . S
C533 C534 1.399 . S
C533 C538 1.399 . S
C534 C533 1.399 . S
C534 C535 1.376 . S
C535 H522 0.930 . S
C535 C534 1.376 . S
C535 C536 1.388 . S
C536 H523 0.930 . S
C536 C535 1.388 . S
C536 C537 1.390 . S
C537 C536 1.390 . S
C537 C538 1.394 . S
C537 C543 1.465 . S
C538 C533 1.399 . S
C538 C537 1.394 . S
C538 C539 1.516 . S
C539 C538 1.516 . S
C539 C540 1.502 . S
C539 C541 1.561 . S
C539 C542 1.526 . S
C540 H524 0.959 . S
C540 H525 0.959 . S
C540 H526 0.961 . S
C540 C539 1.502 . S
C541 H527 0.960 . S
C541 H528 0.961 . S
C541 H529 0.959 . S
C541 C539 1.561 . S
C542 C539 1.526 . S
C542 C543 1.396 . S
C542 C547 1.390 . S
C543 C537 1.465 . S
C543 C542 1.396 . S
C543 C544 1.399 . S
C544 H530 0.929 . S
C544 C543 1.399 . S
C544 C545 1.385 . S
C545 H531 0.931 . S
C545 C544 1.385 . S
C545 C546 1.389 . S
C546 C545 1.389 . S
C546 C547 1.387 . S
C547 H532 0.930 . S
C547 C542 1.390 . S
C547 C546 1.387 . S
H548 C560 0.930 . S
H549 C562 0.930 1_556 S
H550 C563 0.930 . S
H551 C567 0.959 1_556 S
H552 C567 0.959 . S
H553 C567 0.961 . S
H554 C568 0.960 . S
H555 C568 0.961 . S
H556 C568 0.959 . S
H557 C571 0.929 . S
H558 C572 0.931 . S
H559 C574 0.930 . S
C560 H548 0.930 . S
C560 C561 1.399 . S
C560 C565 1.399 . S
C561 C560 1.399 . S
C561 C562 1.376 . S
C562 H549 0.930 1_554 S
C562 C561 1.376 . S
C562 C563 1.388 1_554 S
C563 H550 0.930 . S
C563 C562 1.388 1_556 S
C563 C564 1.390 . S
C564 C563 1.390 . S
C564 C565 1.394 1_556 S
C564 C570 1.465 . S
C565 C560 1.399 . S
C565 C564 1.394 1_554 S
C565 C566 1.516 . S
C566 C565 1.516 . S
C566 C567 1.502 . S
C566 C568 1.561 . S
C566 C569 1.526 1_554 S
C567 H551 0.959 1_554 S
C567 H552 0.959 . S
C567 H553 0.961 . S
C567 C566 1.502 . S
C568 H554 0.960 . S
C568 H555 0.961 . S
C568 H556 0.959 . S
C568 C566 1.561 . S
C569 C566 1.526 1_556 S
C569 C570 1.396 . S
C569 C574 1.390 . S
C570 C564 1.465 . S
C570 C569 1.396 . S
C570 C571 1.399 1_655 S
C571 H557 0.929 . S
C571 C570 1.399 1_455 S
C571 C572 1.385 . S
C572 H558 0.931 . S
C572 C571 1.385 . S
C572 C573 1.389 . S
C573 C572 1.389 . S
C573 C574 1.387 1_455 S
C574 H559 0.930 . S
C574 C569 1.390 . S
C574 C573 1.387 1_655 S
H575 C587 0.930 . S
H576 C589 0.930 . S
H577 C590 0.930 . S
H578 C594 0.959 . S
H579 C594 0.959 . S
H580 C594 0.961 . S
H581 C595 0.960 . S
H582 C595 0.961 . S
H583 C595 0.959 1_554 S
H584 C598 0.929 . S
H585 C599 0.931 . S
H586 C601 0.930 . S
C587 H575 0.930 . S
C587 C588 1.399 1_566 S
C587 C592 1.399 . S
C588 C587 1.399 1_544 S
C588 C589 1.376 . S
C589 H576 0.930 . S
C589 C588 1.376 . S
C589 C590 1.388 . S
C590 H577 0.930 . S
C590 C589 1.388 . S
C590 C591 1.390 1_554 S
C591 C590 1.390 1_556 S
C591 C592 1.394 1_545 S
C591 C597 1.465 . S
C592 C587 1.399 . S
C592 C591 1.394 1_565 S
C592 C593 1.516 . S
C593 C592 1.516 . S
C593 C594 1.502 . S
C593 C595 1.561 . S
C593 C596 1.526 . S
C594 H578 0.959 . S
C594 H579 0.959 . S
C594 H580 0.961 . S
C594 C593 1.502 . S
C595 H581 0.960 . S
C595 H582 0.961 . S
C595 H583 0.959 1_556 S
C595 C593 1.561 . S
C596 C593 1.526 . S
C596 C597 1.396 1_565 S
C596 C601 1.390 . S
C597 C591 1.465 . S
C597 C596 1.396 1_545 S
C597 C598 1.399 . S
C598 H584 0.929 . S
C598 C597 1.399 . S
C598 C599 1.385 . S
C599 H585 0.931 . S
C599 C598 1.385 . S
C599 C600 1.389 . S
C600 C599 1.389 . S
C600 C601 1.387 1_545 S
C601 H586 0.930 . S
C601 C596 1.390 . S
C601 C600 1.387 1_565 S
H602 C614 0.930 . S
H603 C616 0.930 1_556 S
H604 C617 0.930 . S
H605 C621 0.959 . S
H606 C621 0.959 . S
H607 C621 0.961 . S
H608 C622 0.960 . S
H609 C622 0.961 . S
H610 C622 0.959 . S
H611 C625 0.929 . S
H612 C626 0.931 . S
H613 C628 0.930 . S
C614 H602 0.930 . S
C614 C615 1.399 . S
C614 C619 1.399 . S
C615 C614 1.399 . S
C615 C616 1.382 . S
C616 H603 0.930 1_554 S
C616 C615 1.382 . S
C616 C617 1.384 1_554 S
C617 H604 0.930 . S
C617 C616 1.384 1_556 S
C617 C618 1.390 . S
C618 C617 1.390 . S
C618 C619 1.394 1_556 S
C618 C624 1.465 . S
C619 C614 1.399 . S
C619 C618 1.394 1_554 S
C619 C620 1.516 . S
C620 C619 1.516 . S
C620 C621 1.502 . S
C620 C622 1.561 . S
C620 C623 1.526 1_554 S
C621 H605 0.959 . S
C621 H606 0.959 . S
C621 H607 0.961 . S
C621 C620 1.502 . S
C622 H608 0.960 . S
C622 H609 0.961 . S
C622 H610 0.959 . S
C622 C620 1.561 . S
C623 C620 1.526 1_556 S
C623 C624 1.396 . S
C623 C628 1.390 . S
C624 C618 1.465 . S
C624 C623 1.396 . S
C624 C625 1.399 . S
C625 H611 0.929 . S
C625 C624 1.399 . S
C625 C626 1.385 . S
C626 H612 0.931 . S
C626 C625 1.385 . S
C626 C627 1.389 . S
C627 C626 1.389 . S
C627 C628 1.387 . S
C628 H613 0.930 . S
C628 C623 1.390 . S
C628 C627 1.387 . S
H629 C641 0.930 . S
H630 C643 0.930 . S
H631 C644 0.930 . S
H632 C648 0.959 . S
H633 C648 0.959 . S
H634 C648 0.961 . S
H635 C649 0.960 . S
H636 C649 0.961 1_556 S
H637 C649 0.959 . S
H638 C652 0.929 . S
H639 C653 0.931 . S
H640 C655 0.930 . S
C641 H629 0.930 . S
C641 C642 1.399 . S
C641 C646 1.399 . S
C642 C641 1.399 . S
C642 C643 1.376 . S
C643 H630 0.930 . S
C643 C642 1.376 . S
C643 C644 1.388 . S
C644 H631 0.930 . S
C644 C643 1.388 . S
C644 C645 1.390 . S
C645 C644 1.390 . S
C645 C646 1.394 . S
C645 C651 1.465 . S
C646 C641 1.399 . S
C646 C645 1.394 . S
C646 C647 1.516 1_554 S
C647 C646 1.516 1_556 S
C647 C648 1.502 . S
C647 C649 1.561 1_556 S
C647 C650 1.526 . S
C648 H632 0.959 . S
C648 H633 0.959 . S
C648 H634 0.961 . S
C648 C647 1.502 . S
C649 H635 0.960 . S
C649 H636 0.961 1_554 S
C649 H637 0.959 . S
C649 C647 1.561 1_554 S
C650 C647 1.526 . S
C650 C651 1.396 1_556 S
C650 C655 1.390 . S
C651 C645 1.465 . S
C651 C650 1.396 1_554 S
C651 C652 1.399 . S
C652 H638 0.929 . S
C652 C651 1.399 . S
C652 C653 1.385 1_554 S
C653 H639 0.931 . S
C653 C652 1.385 1_556 S
C653 C654 1.389 . S
C654 C653 1.389 . S
C654 C655 1.387 . S
C655 H640 0.930 . S
C655 C650 1.390 . S
C655 C654 1.387 . S
H656 C668 0.930 . S
H657 C670 0.930 . S
H658 C671 0.930 . S
H659 C675 0.959 . S
H660 C675 0.959 . S
H661 C675 0.961 . S
H662 C676 0.960 . S
H663 C676 0.961 . S
H664 C676 0.959 . S
H665 C679 0.929 . S
H666 C680 0.931 . S
H667 C682 0.930 . S
C668 H656 0.930 . S
C668 C669 1.399 . S
C668 C673 1.399 . S
C669 C668 1.399 . S
C669 C670 1.376 . S
C670 H657 0.930 . S
C670 C669 1.376 . S
C670 C671 1.388 . S
C671 H658 0.930 . S
C671 C670 1.388 . S
C671 C672 1.390 . S
C672 C671 1.390 . S
C672 C673 1.394 . S
C672 C678 1.465 . S
C673 C668 1.399 . S
C673 C672 1.394 . S
C673 C674 1.516 . S
C674 C673 1.516 . S
C674 C675 1.502 . S
C674 C676 1.561 . S
C674 C677 1.526 . S
C675 H659 0.959 . S
C675 H660 0.959 . S
C675 H661 0.961 . S
C675 C674 1.502 . S
C676 H662 0.960 . S
C676 H663 0.961 . S
C676 H664 0.959 . S
C676 C674 1.561 . S
C677 C674 1.526 . S
C677 C678 1.396 . S
C677 C682 1.390 . S
C678 C672 1.465 . S
C678 C677 1.396 . S
C678 C679 1.399 . S
C679 H665 0.929 . S
C679 C678 1.399 . S
C679 C680 1.385 . S
C680 H666 0.931 . S
C680 C679 1.385 . S
C680 C681 1.389 . S
C681 C680 1.389 . S
C681 C682 1.387 . S
C682 H667 0.930 . S
C682 C677 1.390 . S
C682 C681 1.387 . S
H683 C695 0.930 . S
H684 C697 0.930 . S
H685 C698 0.930 . S
H686 C702 0.959 . S
H687 C702 0.959 . S
H688 C702 0.961 . S
H689 C703 0.960 . S
H690 C703 0.961 . S
H691 C703 0.959 . S
H692 C706 0.929 . S
H693 C707 0.931 . S
H694 C709 0.930 . S
C695 H683 0.930 . S
C695 C696 1.399 1_565 S
C695 C700 1.399 . S
C696 C695 1.399 1_545 S
C696 C697 1.376 . S
C697 H684 0.930 . S
C697 C696 1.376 . S
C697 C698 1.388 . S
C698 H685 0.930 . S
C698 C697 1.388 . S
C698 C699 1.390 . S
C699 C698 1.390 . S
C699 C700 1.394 1_545 S
C699 C705 1.465 . S
C700 C695 1.399 . S
C700 C699 1.394 1_565 S
C700 C701 1.516 . S
C701 C700 1.516 . S
C701 C702 1.502 . S
C701 C703 1.561 . S
C701 C704 1.526 . S
C702 H686 0.959 . S
C702 H687 0.959 . S
C702 H688 0.961 . S
C702 C701 1.502 . S
C703 H689 0.960 . S
C703 H690 0.961 . S
C703 H691 0.959 . S
C703 C701 1.561 . S
C704 C701 1.526 . S
C704 C705 1.396 1_565 S
C704 C709 1.390 . S
C705 C699 1.465 . S
C705 C704 1.396 1_545 S
C705 C706 1.399 . S
C706 H692 0.929 . S
C706 C705 1.399 . S
C706 C707 1.385 . S
C707 H693 0.931 . S
C707 C706 1.385 . S
C707 C708 1.389 . S
C708 C707 1.389 . S
C708 C709 1.387 1_545 S
C709 H694 0.930 . S
C709 C704 1.390 . S
C709 C708 1.387 1_565 S
H710 C722 0.930 . S
H711 C724 0.930 . S
H712 C725 0.930 . S
H713 C729 0.959 . S
H714 C729 0.959 . S
H715 C729 0.961 . S
H716 C730 0.960 . S
H717 C730 0.961 . S
H718 C730 0.959 . S
H719 C733 0.929 . S
H720 C734 0.931 . S
H721 C736 0.930 . S
C722 H710 0.930 . S
C722 C723 1.399 . S
C722 C727 1.399 . S
C723 C722 1.399 . S
C723 C724 1.376 . S
C724 H711 0.930 . S
C724 C723 1.376 . S
C724 C725 1.388 . S
C725 H712 0.930 . S
C725 C724 1.388 . S
C725 C726 1.390 . S
C726 C725 1.390 . S
C726 C727 1.394 . S
C726 C732 1.465 . S
C727 C722 1.399 . S
C727 C726 1.394 . S
C727 C728 1.516 . S
C728 C727 1.516 . S
C728 C729 1.502 . S
C728 C730 1.561 . S
C728 C731 1.526 . S
C729 H713 0.959 . S
C729 H714 0.959 . S
C729 H715 0.961 . S
C729 C728 1.502 . S
C730 H716 0.960 . S
C730 H717 0.961 . S
C730 H718 0.959 . S
C730 C728 1.561 . S
C731 C728 1.526 . S
C731 C732 1.396 . S
C731 C736 1.390 . S
C732 C726 1.465 . S
C732 C731 1.396 . S
C732 C733 1.399 . S
C733 H719 0.929 . S
C733 C732 1.399 . S
C733 C734 1.385 1_554 S
C734 H720 0.931 . S
C734 C733 1.385 1_556 S
C734 C735 1.389 . S
C735 C734 1.389 . S
C735 C736 1.387 1_556 S
C736 H721 0.930 . S
C736 C731 1.390 . S
C736 C735 1.387 1_554 S
H737 C749 0.930 . S
H738 C751 0.930 . S
H739 C752 0.930 . S
H740 C756 0.959 . S
H741 C756 0.959 . S
H742 C756 0.961 . S
H743 C757 0.960 . S
H744 C757 0.961 . S
H745 C757 0.959 . S
H746 C760 0.929 . S
H747 C761 0.931 . S
H748 C763 0.930 1_556 S
C749 H737 0.930 . S
C749 C750 1.399 . S
C749 C754 1.399 . S
C750 C749 1.399 . S
C750 C751 1.376 . S
C751 H738 0.930 . S
C751 C750 1.376 . S
C751 C752 1.388 . S
C752 H739 0.930 . S
C752 C751 1.388 . S
C752 C753 1.390 . S
C753 C752 1.390 . S
C753 C754 1.394 . S
C753 C759 1.465 . S
C754 C749 1.399 . S
C754 C753 1.394 . S
C754 C755 1.516 . S
C755 C754 1.516 . S
C755 C756 1.502 . S
C755 C757 1.561 . S
C755 C758 1.526 . S
C756 H740 0.959 . S
C756 H741 0.959 . S
C756 H742 0.961 . S
C756 C755 1.502 . S
C757 H743 0.960 . S
C757 H744 0.961 . S
C757 H745 0.959 . S
C757 C755 1.561 . S
C758 C755 1.526 . S
C758 C759 1.396 . S
C758 C763 1.390 . S
C759 C753 1.465 . S
C759 C758 1.396 . S
C759 C760 1.399 . S
C760 H746 0.929 . S
C760 C759 1.399 . S
C760 C761 1.385 . S
C761 H747 0.931 . S
C761 C760 1.385 . S
C761 C762 1.389 1_554 S
C762 C761 1.389 1_556 S
C762 C763 1.387 1_556 S
C763 H748 0.930 1_554 S
C763 C758 1.390 . S
C763 C762 1.387 1_554 S
H764 C776 0.930 . S
H765 C778 0.930 . S
H766 C779 0.930 . S
H767 C783 0.959 . S
H768 C783 0.959 . S
H769 C783 0.961 . S
H770 C784 0.960 . S
H771 C784 0.961 . S
H772 C784 0.959 . S
H773 C787 0.929 . S
H774 C788 0.931 . S
H775 C790 0.930 . S
C776 H764 0.930 . S
C776 C777 1.399 . S
C776 C781 1.399 . S
C777 C776 1.399 . S
C777 C778 1.376 . S
C778 H765 0.930 . S
C778 C777 1.376 . S
C778 C779 1.388 . S
C779 H766 0.930 . S
C779 C778 1.388 . S
C779 C780 1.390 . S
C780 C779 1.390 . S
C780 C781 1.394 . S
C780 C786 1.465 . S
C781 C776 1.399 . S
C781 C780 1.394 . S
C781 C782 1.516 . S
C782 C781 1.516 . S
C782 C783 1.502 1_655 S
C782 C784 1.561 . S
C782 C785 1.526 . S
C783 H767 0.959 . S
C783 H768 0.959 . S
C783 H769 0.961 . S
C783 C782 1.502 1_455 S
C784 H770 0.960 . S
C784 H771 0.961 . S
C784 H772 0.959 . S
C784 C782 1.561 . S
C785 C782 1.526 . S
C785 C786 1.396 . S
C785 C790 1.390 . S
C786 C780 1.465 . S
C786 C785 1.396 . S
C786 C787 1.399 . S
C787 H773 0.929 . S
C787 C786 1.399 . S
C787 C788 1.385 . S
C788 H774 0.931 . S
C788 C787 1.385 . S
C788 C789 1.389 . S
C789 C788 1.389 . S
C789 C790 1.387 . S
C790 H775 0.930 . S
C790 C785 1.390 . S
C790 C789 1.387 . S
H791 C803 0.930 . S
H792 C805 0.930 . S
H793 C806 0.930 . S
H794 C810 0.959 . S
H795 C810 0.959 . S
H796 C810 0.961 . S
H797 C811 0.960 . S
H798 C811 0.961 . S
H799 C811 0.959 . S
H800 C814 0.929 . S
H801 C815 0.931 . S
H802 C817 0.930 . S
C803 H791 0.930 . S
C803 C804 1.388 1_565 S
C803 C808 1.399 . S
C804 C803 1.388 1_545 S
C804 C805 1.391 . S
C805 H792 0.930 . S
C805 C804 1.391 . S
C805 C806 1.388 . S
C806 H793 0.930 . S
C806 C805 1.388 . S
C806 C807 1.390 . S
C807 C806 1.390 . S
C807 C808 1.394 1_545 S
C807 C813 1.465 . S
C808 C803 1.399 . S
C808 C807 1.394 1_565 S
C808 C809 1.516 . S
C809 C808 1.516 . S
C809 C810 1.502 . S
C809 C811 1.561 . S
C809 C812 1.526 . S
C810 H794 0.959 . S
C810 H795 0.959 . S
C810 H796 0.961 . S
C810 C809 1.502 . S
C811 H797 0.960 . S
C811 H798 0.961 . S
C811 H799 0.959 . S
C811 C809 1.561 . S
C812 C809 1.526 . S
C812 C813 1.396 1_565 S
C812 C817 1.390 . S
C813 C807 1.465 . S
C813 C812 1.396 1_545 S
C813 C814 1.399 . S
C814 H800 0.929 . S
C814 C813 1.399 . S
C814 C815 1.385 . S
C815 H801 0.931 . S
C815 C814 1.385 . S
C815 C816 1.389 1_545 S
C816 C815 1.389 1_565 S
C816 C817 1.387 . S
C817 H802 0.930 . S
C817 C812 1.390 . S
C817 C816 1.387 . S
H818 C830 0.930 . S
H819 C832 0.930 . S
H820 C833 0.930 . S
H821 C837 0.959 . S
H822 C837 0.959 . S
H823 C837 0.961 . S
H824 C838 0.960 . S
H825 C838 0.961 . S
H826 C838 0.959 . S
H827 C841 0.929 . S
H828 C842 0.931 . S
H829 C844 0.930 . S
C830 H818 0.930 . S
C830 C831 1.399 . S
C830 C835 1.399 . S
C831 C830 1.399 . S
C831 C832 1.376 . S
C832 H819 0.930 . S
C832 C831 1.376 . S
C832 C833 1.388 . S
C833 H820 0.930 . S
C833 C832 1.388 . S
C833 C834 1.390 . S
C834 C833 1.390 . S
C834 C835 1.394 . S
C834 C840 1.465 . S
C835 C830 1.399 . S
C835 C834 1.394 . S
C835 C836 1.516 . S
C836 C835 1.516 . S
C836 C837 1.502 . S
C836 C838 1.561 . S
C836 C839 1.526 . S
C837 H821 0.959 . S
C837 H822 0.959 . S
C837 H823 0.961 . S
C837 C836 1.502 . S
C838 H824 0.960 . S
C838 H825 0.961 . S
C838 H826 0.959 . S
C838 C836 1.561 . S
C839 C836 1.526 . S
C839 C840 1.396 . S
C839 C844 1.390 . S
C840 C834 1.465 . S
C840 C839 1.396 . S
C840 C841 1.399 . S
C841 H827 0.929 . S
C841 C840 1.399 . S
C841 C842 1.385 . S
C842 H828 0.931 . S
C842 C841 1.385 . S
C842 C843 1.389 . S
C843 C842 1.389 . S
C843 C844 1.387 . S
C844 H829 0.930 . S
C844 C839 1.390 . S
C844 C843 1.387 . S
H845 C857 0.930 . S
H846 C859 0.930 . S
H847 C860 0.930 . S
H848 C864 0.959 . S
H849 C864 0.959 . S
H850 C864 0.961 . S
H851 C865 0.960 . S
H852 C865 0.961 . S
H853 C865 0.959 . S
H854 C868 0.929 . S
H855 C869 0.931 . S
H856 C871 0.930 . S
C857 H845 0.930 . S
C857 C858 1.399 . S
C857 C862 1.399 . S
C858 C857 1.399 . S
C858 C859 1.376 . S
C859 H846 0.930 . S
C859 C858 1.376 . S
C859 C860 1.388 . S
C860 H847 0.930 . S
C860 C859 1.388 . S
C860 C861 1.390 . S
C861 C860 1.390 . S
C861 C862 1.394 . S
C861 C867 1.465 . S
C862 C857 1.399 . S
C862 C861 1.394 . S
C862 C863 1.516 . S
C863 C862 1.516 . S
C863 C864 1.502 . S
C863 C865 1.561 . S
C863 C866 1.526 . S
C864 H848 0.959 . S
C864 H849 0.959 . S
C864 H850 0.961 . S
C864 C863 1.502 . S
C865 H851 0.960 . S
C865 H852 0.961 . S
C865 H853 0.959 . S
C865 C863 1.561 . S
C866 C863 1.526 . S
C866 C867 1.396 . S
C866 C871 1.390 . S
C867 C861 1.465 . S
C867 C866 1.396 . S
C867 C868 1.399 . S
C868 H854 0.929 . S
C868 C867 1.399 . S
C868 C869 1.385 . S
C869 H855 0.931 . S
C869 C868 1.385 . S
C869 C870 1.389 . S
C870 C869 1.389 . S
C870 C871 1.387 . S
C871 H856 0.930 . S
C871 C866 1.390 . S
C871 C870 1.387 . S
C237 N80 1.689 1_545 S
C249 C114 1.689 . S
C276 C144 1.815 . S
C264 N93 1.785 . S
C303 N178 1.317 . S
C291 N54 1.413 . S
C330 N208 1.409 . S
C318 N67 1.369 . S
C357 C105 1.687 . S
C345 N28 1.702 . S
C372 N41 1.802 . S
C384 C135 1.819 . S
C399 N2 1.412 . S
C411 N170 1.387 . S
C426 N15 1.419 . S
C438 N200 1.332 . S
C465 C120 0.315 . S
C453 N70 0.527 . S
C492 C150 0.780 . S
C480 N83 0.765 1_545 S
C519 C191 1.036 . S
C507 N96 1.076 . S
C534 N57 0.561 . S
C546 C221 0.653 . S
C561 N18 0.329 . S
C573 C131 0.456 1_455 S
C600 C161 0.812 . S
C588 N31 0.758 1_545 S
C627 C180 1.056 . S
C615 N44 1.037 . S
C642 N5 0.602 . S
C654 C210 0.657 . S
C669 N66 1.470 . S
C681 N110 1.444 . S
C696 N79 1.470 1_545 S
C708 N140 1.456 . S
C735 C165 1.643 . S
C723 N92 1.637 . S
C762 C195 1.593 . S
C750 N53 1.577 . S
C777 N14 1.498 . S
C789 N118 1.483 . S
C816 N148 1.403 . S
C804 N27 1.469 1_545 S
C843 C174 1.655 . S
C831 N40 1.647 . S
C858 N1 1.597 . S
C870 C204 1.590 . S
