# Generated by pormake.
# Topology pyr, (3,6)-cn, num edge types: 1
# Building blocks:
#     Node 0, Type 0, BuildingBlock: VETTIZ_charged_linker_0, # of connection points: 3
#     Node 1, Type 0, BuildingBlock: VETTIZ_charged_linker_0, # of connection points: 3
#     Node 2, Type 0, BuildingBlock: VETTIZ_charged_linker_0, # of connection points: 3
#     Node 3, Type 0, BuildingBlock: VETTIZ_charged_linker_0, # of connection points: 3
#     Node 4, Type 0, BuildingBlock: VETTIZ_charged_linker_0, # of connection points: 3
#     Node 5, Type 0, BuildingBlock: VETTIZ_charged_linker_0, # of connection points: 3
#     Node 6, Type 0, BuildingBlock: VETTIZ_charged_linker_0, # of connection points: 3
#     Node 7, Type 0, BuildingBlock: VETTIZ_charged_linker_0, # of connection points: 3
#     Node 8, Type 1, BuildingBlock: BETDAH_clean_sbu_0, # of connection points: 6
#     Node 9, Type 1, BuildingBlock: BETDAH_clean_sbu_0, # of connection points: 6
#     Node 10, Type 1, BuildingBlock: BETDAH_clean_sbu_0, # of connection points: 6
#     Node 11, Type 1, BuildingBlock: BETDAH_clean_sbu_0, # of connection points: 6
#     Edge 12, Type (0, 1), BuildingBlock: XIVTED_clean_linker_0, # of connection points: 2
#     Edge 13, Type (0, 1), BuildingBlock: XIVTED_clean_linker_0, # of connection points: 2
#     Edge 14, Type (0, 1), BuildingBlock: XIVTED_clean_linker_0, # of connection points: 2
#     Edge 15, Type (0, 1), BuildingBlock: XIVTED_clean_linker_0, # of connection points: 2
#     Edge 16, Type (0, 1), BuildingBlock: XIVTED_clean_linker_0, # of connection points: 2
#     Edge 17, Type (0, 1), BuildingBlock: XIVTED_clean_linker_0, # of connection points: 2
#     Edge 18, Type (0, 1), BuildingBlock: XIVTED_clean_linker_0, # of connection points: 2
#     Edge 19, Type (0, 1), BuildingBlock: XIVTED_clean_linker_0, # of connection points: 2
#     Edge 20, Type (0, 1), BuildingBlock: XIVTED_clean_linker_0, # of connection points: 2
#     Edge 21, Type (0, 1), BuildingBlock: XIVTED_clean_linker_0, # of connection points: 2
#     Edge 22, Type (0, 1), BuildingBlock: XIVTED_clean_linker_0, # of connection points: 2
#     Edge 23, Type (0, 1), BuildingBlock: XIVTED_clean_linker_0, # of connection points: 2
#     Edge 24, Type (0, 1), BuildingBlock: XIVTED_clean_linker_0, # of connection points: 2
#     Edge 25, Type (0, 1), BuildingBlock: XIVTED_clean_linker_0, # of connection points: 2
#     Edge 26, Type (0, 1), BuildingBlock: XIVTED_clean_linker_0, # of connection points: 2
#     Edge 27, Type (0, 1), BuildingBlock: XIVTED_clean_linker_0, # of connection points: 2
#     Edge 28, Type (0, 1), BuildingBlock: XIVTED_clean_linker_0, # of connection points: 2
#     Edge 29, Type (0, 1), BuildingBlock: XIVTED_clean_linker_0, # of connection points: 2
#     Edge 30, Type (0, 1), BuildingBlock: XIVTED_clean_linker_0, # of connection points: 2
#     Edge 31, Type (0, 1), BuildingBlock: XIVTED_clean_linker_0, # of connection points: 2
#     Edge 32, Type (0, 1), BuildingBlock: XIVTED_clean_linker_0, # of connection points: 2
#     Edge 33, Type (0, 1), BuildingBlock: XIVTED_clean_linker_0, # of connection points: 2
#     Edge 34, Type (0, 1), BuildingBlock: XIVTED_clean_linker_0, # of connection points: 2
#     Edge 35, Type (0, 1), BuildingBlock: XIVTED_clean_linker_0, # of connection points: 2
# Relax obj value: 0.096
# Max RMSD: 0.125
# Mean RMSD: 0.059
data_MOF--net-pyr--node1-BETDAH_clean_sbu_0--node2-VETTIZ_charged_linker_0--edge1-XIVTED_clean_linker_0
_symmetry_space_group_name_H-M    P1
_symmetry_Int_Tables_number       1
_symmetry_cell_setting            triclinic
loop_
_symmetry_equiv_pos_as_xyz
'x, y, z'
_cell_length_a     46.106658
_cell_length_b     49.753095
_cell_length_c     45.629798
_cell_angle_alpha  91.354112
_cell_angle_beta   88.750955
_cell_angle_gamma 99.326603
loop_
_atom_site_label
_atom_site_type_symbol
_atom_site_fract_x
_atom_site_fract_y
_atom_site_fract_z
_atom_type_partial_charge
C0 C 0.28666 0.23031 0.32437 0.0
C1 C 0.27018 0.24716 0.34074 0.0
C2 C 0.27044 0.27407 0.33152 0.0
C3 C 0.2969 0.26459 0.28713 0.0
C4 C 0.29996 0.2395 0.29776 0.0
C5 C 0.31593 0.22342 0.27622 0.0
H6 H 0.36739 0.20702 0.13792 0.0
C7 C 0.30752 0.26581 0.25641 0.0
C8 C 0.31927 0.24203 0.24999 0.0
H9 H 0.37452 0.15762 0.21323 0.0
H10 H 0.35011 0.18776 0.24373 0.0
H11 H 0.381 0.2688 0.17132 0.0
H12 H 0.3031 0.21252 0.14979 0.0
H13 H 0.29231 0.24477 0.15148 0.0
H14 H 0.31944 0.23776 0.12442 0.0
H15 H 0.36944 0.25854 0.13479 0.0
H16 H 0.35536 0.28584 0.15387 0.0
C17 C 0.34606 0.22062 0.28927 0.0
C18 C 0.29597 0.19589 0.26942 0.0
C19 C 0.27212 0.33406 0.19134 0.0
C20 C 0.2685 0.33451 0.16086 0.0
C21 C 0.28362 0.31779 0.14268 0.0
C22 C 0.30018 0.29961 0.15485 0.0
C23 C 0.30114 0.29767 0.18549 0.0
C24 C 0.28754 0.31503 0.20315 0.0
C25 C 0.28803 0.30844 0.23508 0.0
C26 C 0.30315 0.28351 0.23357 0.0
C27 C 0.3115 0.2777 0.20461 0.0
C28 C 0.30729 0.33256 0.25094 0.0
C29 C 0.25579 0.30213 0.24714 0.0
C30 C 0.3639 0.20298 0.16106 0.0
C31 C 0.37296 0.18011 0.17336 0.0
C32 C 0.36759 0.17508 0.20337 0.0
C33 C 0.35359 0.19267 0.22104 0.0
C34 C 0.34434 0.21528 0.20847 0.0
C35 C 0.34947 0.22017 0.17895 0.0
C36 C 0.33678 0.24456 0.16933 0.0
C37 C 0.32517 0.25451 0.19837 0.0
C38 C 0.3293 0.237 0.22106 0.0
C39 C 0.36187 0.26564 0.15648 0.0
C40 C 0.31173 0.23461 0.14751 0.0
H41 H 0.28193 0.30303 0.2982 0.0
H42 H 0.2873 0.20963 0.33079 0.0
H43 H 0.27295 0.19906 0.26605 0.0
H44 H 0.30252 0.18572 0.24918 0.0
H45 H 0.29581 0.18161 0.28779 0.0
H46 H 0.35332 0.23709 0.3057 0.0
H47 H 0.34507 0.20088 0.30041 0.0
H48 H 0.36392 0.22265 0.27245 0.0
H49 H 0.26147 0.34699 0.20605 0.0
H50 H 0.28139 0.31761 0.1191 0.0
H51 H 0.31058 0.28693 0.14 0.0
H52 H 0.32742 0.33998 0.23769 0.0
H53 H 0.29508 0.3499 0.25449 0.0
H54 H 0.31525 0.32683 0.27222 0.0
H55 H 0.23932 0.29977 0.22943 0.0
H56 H 0.25118 0.28255 0.2587 0.0
H57 H 0.25051 0.31861 0.26218 0.0
H58 H 0.25902 0.28792 0.34421 0.0
C59 C 0.2837 0.28285 0.30479 0.0
C60 C 0.21939 0.87758 0.56892 0.0
C61 C 0.20213 0.88922 0.58995 0.0
C62 C 0.20827 0.8874 0.61992 0.0
C63 C 0.24932 0.86427 0.60734 0.0
C64 C 0.24267 0.86519 0.57806 0.0
C65 C 0.26325 0.85209 0.55846 0.0
H66 H 0.38511 0.79332 0.54463 0.0
C67 C 0.27574 0.85127 0.60934 0.0
C68 C 0.28395 0.844 0.58079 0.0
H69 H 0.32426 0.80386 0.47683 0.0
H70 H 0.2952 0.82605 0.51206 0.0
H71 H 0.38427 0.85281 0.58084 0.0
H72 H 0.33891 0.77051 0.58783 0.0
H73 H 0.34231 0.78353 0.62385 0.0
H74 H 0.37501 0.7807 0.60222 0.0
H75 H 0.40166 0.82467 0.59092 0.0
H76 H 0.38382 0.84367 0.61791 0.0
C77 C 0.27912 0.87389 0.53739 0.0
C78 C 0.2453 0.82694 0.54286 0.0
C79 C 0.32384 0.84698 0.70775 0.0
C80 C 0.34953 0.83758 0.71628 0.0
C81 C 0.36574 0.82483 0.69508 0.0
C82 C 0.35712 0.82241 0.66577 0.0
C83 C 0.33199 0.83279 0.65747 0.0
C84 C 0.31549 0.84432 0.67843 0.0
C85 C 0.28937 0.85409 0.66565 0.0
C86 C 0.29308 0.84673 0.63348 0.0
C87 C 0.31822 0.83455 0.62883 0.0
C88 C 0.29281 0.88532 0.67097 0.0
C89 C 0.2611 0.83768 0.67942 0.0
C90 C 0.36608 0.80128 0.53714 0.0
C91 C 0.35732 0.79768 0.50786 0.0
C92 C 0.33161 0.80697 0.49923 0.0
C93 C 0.31472 0.81955 0.51975 0.0
C94 C 0.3234 0.82227 0.54923 0.0
C95 C 0.34869 0.81312 0.55741 0.0
C96 C 0.35329 0.81522 0.58991 0.0
C97 C 0.32665 0.82738 0.60001 0.0
C98 C 0.30947 0.83184 0.57612 0.0
C99 C 0.38233 0.83497 0.59543 0.0
C100 C 0.35258 0.78611 0.60175 0.0
H101 H 0.23551 0.87455 0.65179 0.0
H102 H 0.21551 0.87874 0.5457 0.0
H103 H 0.22572 0.81818 0.55623 0.0
H104 H 0.25795 0.80997 0.53964 0.0
H105 H 0.23733 0.83238 0.52133 0.0
H106 H 0.28623 0.89347 0.54945 0.0
H107 H 0.26432 0.87784 0.51965 0.0
H108 H 0.2993 0.86831 0.52725 0.0
H109 H 0.31104 0.85722 0.72328 0.0
H110 H 0.38533 0.817 0.70109 0.0
H111 H 0.37064 0.8129 0.65065 0.0
H112 H 0.31616 0.89501 0.66794 0.0
H113 H 0.28581 0.89026 0.69364 0.0
H114 H 0.28051 0.89557 0.65539 0.0
H115 H 0.26442 0.81671 0.68485 0.0
H116 H 0.24241 0.83463 0.66426 0.0
H117 H 0.25455 0.84765 0.7 0.0
H118 H 0.195 0.89569 0.63662 0.0
C119 C 0.23175 0.875 0.6287 0.0
C120 C 0.62681 0.26357 0.88611 0.0
C121 C 0.60039 0.24673 0.87755 0.0
C122 C 0.58532 0.25629 0.85401 0.0
C123 C 0.62237 0.29772 0.84873 0.0
C124 C 0.63708 0.28857 0.87178 0.0
C125 C 0.66431 0.3085 0.87935 0.0
H126 H 0.76011 0.42625 0.85865 0.0
C127 C 0.63928 0.32499 0.83884 0.0
C128 C 0.66391 0.33107 0.85729 0.0
H129 H 0.76255 0.36428 0.92311 0.0
H130 H 0.71821 0.33864 0.90433 0.0
H131 H 0.68841 0.42591 0.86533 0.0
H132 H 0.73814 0.38362 0.80356 0.0
H133 H 0.71164 0.39793 0.78465 0.0
H134 H 0.74023 0.41999 0.80386 0.0
H135 H 0.71135 0.44347 0.83719 0.0
H136 H 0.67404 0.42764 0.83016 0.0
C137 C 0.66053 0.3189 0.91129 0.0
C138 C 0.69123 0.29384 0.8742 0.0
C139 C 0.60627 0.37894 0.75169 0.0
C140 C 0.61739 0.40478 0.73917 0.0
C141 C 0.64319 0.41942 0.75184 0.0
C142 C 0.65729 0.40932 0.77551 0.0
C143 C 0.64592 0.38394 0.78779 0.0
C144 C 0.62062 0.36912 0.77602 0.0
C145 C 0.61137 0.34283 0.79295 0.0
C146 C 0.63535 0.34409 0.81619 0.0
C147 C 0.65579 0.36851 0.81292 0.0
C148 C 0.58092 0.3437 0.80725 0.0
C149 C 0.6116 0.31841 0.77158 0.0
C150 C 0.75109 0.40723 0.86887 0.0
C151 C 0.76604 0.39748 0.89246 0.0
C152 C 0.75278 0.37242 0.90461 0.0
C153 C 0.72649 0.35741 0.89372 0.0
C154 C 0.71224 0.36708 0.87009 0.0
C155 C 0.72446 0.39172 0.85808 0.0
C156 C 0.70577 0.39868 0.8331 0.0
C157 C 0.68064 0.37424 0.83208 0.0
C158 C 0.68463 0.35571 0.85398 0.0
C159 C 0.69435 0.42542 0.84158 0.0
C160 C 0.72482 0.40038 0.8047 0.0
H161 H 0.58344 0.28681 0.82197 0.0
H162 H 0.63917 0.25776 0.90415 0.0
H163 H 0.68811 0.28 0.85461 0.0
H164 H 0.71174 0.30799 0.86948 0.0
H165 H 0.69463 0.28133 0.89329 0.0
H166 H 0.63712 0.32033 0.91642 0.0
H167 H 0.66772 0.30496 0.92731 0.0
H168 H 0.67245 0.33974 0.91528 0.0
H169 H 0.58648 0.36687 0.74316 0.0
H170 H 0.65298 0.43892 0.7431 0.0
H171 H 0.67677 0.42187 0.78348 0.0
H172 H 0.5805 0.36377 0.8184 0.0
H173 H 0.56348 0.34068 0.79051 0.0
H174 H 0.57524 0.32822 0.82421 0.0
H175 H 0.63265 0.32072 0.7588 0.0
H176 H 0.6097 0.29892 0.78304 0.0
H177 H 0.59334 0.31696 0.75584 0.0
H178 H 0.5652 0.24423 0.84621 0.0
C179 C 0.59606 0.28123 0.83969 0.0
C180 C 0.91585 0.76951 0.36505 0.0
C181 C 0.90587 0.78287 0.39047 0.0
C182 C 0.87986 0.76988 0.40445 0.0
C183 C 0.8748 0.73155 0.36941 0.0
C184 C 0.90013 0.74379 0.35512 0.0
C185 C 0.90766 0.72588 0.32931 0.0
H186 H 0.87404 0.6065 0.24705 0.0
C187 C 0.86346 0.70494 0.35425 0.0
C188 C 0.88272 0.70123 0.33052 0.0
H189 H 0.94808 0.67073 0.23408 0.0
H190 H 0.93135 0.69625 0.27511 0.0
H191 H 0.87632 0.60714 0.3196 0.0
H192 H 0.82595 0.64717 0.26041 0.0
H193 H 0.80291 0.63328 0.28936 0.0
H194 H 0.81928 0.61088 0.26474 0.0
H195 H 0.8485 0.58854 0.29662 0.0
H196 H 0.83927 0.60282 0.33155 0.0
C197 C 0.93785 0.71756 0.33487 0.0
C198 C 0.90692 0.74192 0.30089 0.0
C199 C 0.76852 0.64766 0.39394 0.0
C200 C 0.75135 0.62252 0.38551 0.0
C201 C 0.76151 0.60866 0.3608 0.0
C202 C 0.78759 0.6193 0.34518 0.0
C203 C 0.80432 0.6444 0.35391 0.0
C204 C 0.7945 0.65809 0.37797 0.0
C205 C 0.81467 0.68461 0.38415 0.0
C206 C 0.83819 0.68476 0.36001 0.0
C207 C 0.83226 0.66105 0.34218 0.0
C208 C 0.8276 0.683 0.41503 0.0
C209 C 0.79673 0.70811 0.38074 0.0
C210 C 0.88699 0.6259 0.25301 0.0
C211 C 0.91276 0.63612 0.23647 0.0
C212 C 0.92808 0.662 0.2455 0.0
C213 C 0.9184 0.67691 0.26974 0.0
C214 C 0.89279 0.66634 0.28587 0.0
C215 C 0.87751 0.64117 0.27719 0.0
C216 C 0.8504 0.63308 0.29637 0.0
C217 C 0.85197 0.65709 0.31816 0.0
C218 C 0.87704 0.67689 0.31213 0.0
C219 C 0.85349 0.60639 0.31182 0.0
C220 C 0.82306 0.63074 0.27685 0.0
H221 H 0.84501 0.73654 0.4063 0.0
H222 H 0.93572 0.77852 0.35358 0.0
H223 H 0.88688 0.7517 0.30064 0.0
H224 H 0.90608 0.72877 0.28104 0.0
H225 H 0.9264 0.75822 0.29912 0.0
H226 H 0.93895 0.71083 0.35783 0.0
H227 H 0.95588 0.73497 0.33137 0.0
H228 H 0.94213 0.70027 0.32079 0.0
H229 H 0.7617 0.65936 0.4124 0.0
H230 H 0.7495 0.58917 0.35365 0.0
H231 H 0.79382 0.60745 0.32682 0.0
H232 H 0.83093 0.66186 0.41962 0.0
H233 H 0.81266 0.68923 0.43242 0.0
H234 H 0.84961 0.6954 0.41732 0.0
H235 H 0.78067 0.7034 0.36274 0.0
H236 H 0.81048 0.72749 0.37449 0.0
H237 H 0.78416 0.71148 0.40117 0.0
H238 H 0.871 0.77935 0.42351 0.0
C239 C 0.86451 0.74477 0.39422 0.0
C240 C 0.74218 0.72501 0.87555 0.0
C241 C 0.76068 0.70782 0.8629 0.0
C242 C 0.7632 0.70583 0.83213 0.0
C243 C 0.73244 0.74041 0.82725 0.0
C244 C 0.72795 0.74083 0.85725 0.0
C245 C 0.70774 0.76055 0.86663 0.0
H246 H 0.63468 0.86261 0.83076 0.0
C247 C 0.71723 0.76112 0.81459 0.0
C248 C 0.70187 0.77248 0.83733 0.0
H249 H 0.64028 0.82788 0.91593 0.0
H250 H 0.66805 0.79471 0.89478 0.0
H251 H 0.62381 0.8063 0.79245 0.0
H252 H 0.70206 0.86227 0.81453 0.0
H253 H 0.7049 0.85345 0.77731 0.0
H254 H 0.67532 0.87061 0.78973 0.0
H255 H 0.6329 0.83908 0.77597 0.0
H256 H 0.64676 0.8096 0.761 0.0
C257 C 0.6795 0.74414 0.88037 0.0
C258 C 0.72481 0.78222 0.88752 0.0
C259 C 0.74796 0.79534 0.71341 0.0
C260 C 0.74126 0.8172 0.69722 0.0
C261 C 0.7167 0.82925 0.70612 0.0
C262 C 0.70128 0.8217 0.73227 0.0
C263 C 0.71054 0.80195 0.74978 0.0
C264 C 0.7324 0.78809 0.73944 0.0
C265 C 0.73878 0.76707 0.76045 0.0
C266 C 0.71868 0.77213 0.78612 0.0
C267 C 0.70254 0.79288 0.77994 0.0
C268 C 0.72966 0.73843 0.74608 0.0
C269 C 0.77172 0.77376 0.76848 0.0
C270 C 0.64146 0.84752 0.84471 0.0
C271 C 0.63526 0.84772 0.87497 0.0
C272 C 0.64499 0.82816 0.89257 0.0
C273 C 0.66106 0.80893 0.88023 0.0
C274 C 0.66792 0.80954 0.85006 0.0
C275 C 0.65795 0.8285 0.83281 0.0
C276 C 0.66873 0.82723 0.80157 0.0
C277 C 0.68602 0.80378 0.80263 0.0
C278 C 0.68567 0.79362 0.83117 0.0
C279 C 0.64178 0.8204 0.78149 0.0
C280 C 0.68867 0.85476 0.79512 0.0
H281 H 0.75256 0.72013 0.7911 0.0
H282 H 0.73937 0.72651 0.89913 0.0
H283 H 0.7478 0.78839 0.87941 0.0
H284 H 0.71546 0.80125 0.88912 0.0
H285 H 0.72573 0.7741 0.90989 0.0
H286 H 0.6741 0.72364 0.86969 0.0
H287 H 0.68217 0.74111 0.90414 0.0
H288 H 0.65986 0.75379 0.87724 0.0
H289 H 0.76642 0.78533 0.70734 0.0
H290 H 0.71014 0.84539 0.69357 0.0
H291 H 0.6836 0.83238 0.73851 0.0
H292 H 0.71474 0.73888 0.72731 0.0
H293 H 0.74912 0.72993 0.73759 0.0
H294 H 0.71707 0.72386 0.76154 0.0
H295 H 0.77791 0.79583 0.77395 0.0
H296 H 0.77736 0.76286 0.78772 0.0
H297 H 0.78599 0.76874 0.7499 0.0
H298 H 0.77732 0.6928 0.82184 0.0
C299 C 0.74905 0.72191 0.81428 0.0
C300 C 0.82904 0.17324 0.45912 0.0
C301 C 0.84031 0.15225 0.44374 0.0
C302 C 0.82601 0.1408 0.4183 0.0
C303 C 0.78722 0.16762 0.42708 0.0
C304 C 0.80229 0.1802 0.45081 0.0
C305 C 0.78503 0.19887 0.46761 0.0
H306 H 0.6564 0.24537 0.48956 0.0
C307 C 0.75812 0.17623 0.42702 0.0
C308 C 0.75658 0.19435 0.45082 0.0
H309 H 0.73765 0.27029 0.53547 0.0
H310 H 0.76111 0.23881 0.50556 0.0
H311 H 0.66 0.17959 0.48382 0.0
H312 H 0.68494 0.24864 0.42842 0.0
H313 H 0.67139 0.22107 0.40522 0.0
H314 H 0.64737 0.23264 0.43283 0.0
H315 H 0.63375 0.19652 0.46625 0.0
H316 H 0.64922 0.16944 0.44798 0.0
C317 C 0.78046 0.18882 0.49955 0.0
C318 C 0.80156 0.22842 0.46485 0.0
C319 C 0.68391 0.13605 0.35108 0.0
C320 C 0.6545 0.13874 0.34638 0.0
C321 C 0.64055 0.15524 0.36584 0.0
C322 C 0.65576 0.16897 0.38947 0.0
C323 C 0.68524 0.16621 0.39368 0.0
C324 C 0.69875 0.14986 0.37473 0.0
C325 C 0.72996 0.14888 0.38281 0.0
C326 C 0.73322 0.16797 0.40935 0.0
C327 C 0.70699 0.17797 0.41564 0.0
C328 C 0.73226 0.11912 0.39075 0.0
C329 C 0.75037 0.16038 0.35707 0.0
C330 C 0.67898 0.2434 0.49384 0.0
C331 C 0.69508 0.25979 0.51529 0.0
C332 C 0.7248 0.25758 0.51926 0.0
C333 C 0.73835 0.23946 0.50176 0.0
C334 C 0.72204 0.22361 0.47995 0.0
C335 C 0.69287 0.22581 0.4763 0.0
C336 C 0.67948 0.2091 0.45071 0.0
C337 C 0.70537 0.19627 0.43967 0.0
C338 C 0.73012 0.20461 0.45701 0.0
C339 C 0.65412 0.18757 0.46254 0.0
C340 C 0.67004 0.22866 0.42807 0.0
H341 H 0.78921 0.13836 0.39088 0.0
H342 H 0.8398 0.18279 0.47846 0.0
H343 H 0.81344 0.23134 0.44338 0.0
H344 H 0.78658 0.24368 0.46541 0.0
H345 H 0.81805 0.23349 0.48235 0.0
H346 H 0.77587 0.16617 0.49991 0.0
H347 H 0.80038 0.19569 0.51272 0.0
H348 H 0.76145 0.19552 0.51092 0.0
H349 H 0.69545 0.12385 0.33634 0.0
H350 H 0.61783 0.15746 0.36285 0.0
H351 H 0.64397 0.18125 0.40348 0.0
H352 H 0.71068 0.10774 0.3982 0.0
H353 H 0.73984 0.10775 0.3716 0.0
H354 H 0.747 0.118 0.40932 0.0
H355 H 0.74279 0.1785 0.34785 0.0
H356 H 0.77323 0.16754 0.36378 0.0
H357 H 0.75046 0.14494 0.33909 0.0
H358 H 0.83408 0.12454 0.40605 0.0
C359 C 0.79962 0.14853 0.40979 0.0
C360 C 0.41548 0.66532 0.27514 0.0
C361 C 0.40462 0.63941 0.28768 0.0
C362 C 0.37881 0.62465 0.27515 0.0
C363 C 0.37569 0.66 0.2392 0.0
C364 C 0.40089 0.67504 0.2509 0.0
C365 C 0.40966 0.70147 0.23405 0.0
H366 H 0.37993 0.78574 0.12265 0.0
C367 C 0.36552 0.67527 0.21414 0.0
C368 C 0.38558 0.69992 0.21084 0.0
H369 H 0.45368 0.80078 0.18083 0.0
H370 H 0.43632 0.75805 0.20508 0.0
H371 H 0.33127 0.7628 0.17224 0.0
H372 H 0.38334 0.72346 0.11057 0.0
H373 H 0.34835 0.70341 0.11175 0.0
H374 H 0.35229 0.73811 0.09961 0.0
H375 H 0.32482 0.76131 0.13354 0.0
H376 H 0.30818 0.73445 0.15734 0.0
C377 C 0.40904 0.72575 0.25551 0.0
C378 C 0.44017 0.70114 0.21968 0.0
C379 C 0.27081 0.63492 0.15831 0.0
C380 C 0.25564 0.64429 0.13466 0.0
C381 C 0.26843 0.66943 0.12238 0.0
C382 C 0.29448 0.6849 0.13323 0.0
C383 C 0.30894 0.6756 0.15694 0.0
C384 C 0.29718 0.65088 0.16904 0.0
C385 C 0.31602 0.64435 0.19406 0.0
C386 C 0.34072 0.66913 0.195 0.0
C387 C 0.33638 0.68747 0.17305 0.0
C388 C 0.29692 0.64246 0.22245 0.0
C389 C 0.328 0.61784 0.18569 0.0
C390 C 0.39242 0.78025 0.14076 0.0
C391 C 0.41854 0.79754 0.14932 0.0
C392 C 0.43379 0.78837 0.17298 0.0
C393 C 0.42356 0.76334 0.18732 0.0
C394 C 0.39758 0.74637 0.17825 0.0
C395 C 0.38265 0.75518 0.15515 0.0
C396 C 0.35578 0.7348 0.14759 0.0
C397 C 0.35666 0.71237 0.16971 0.0
C398 C 0.38123 0.71889 0.18818 0.0
C399 C 0.32846 0.74893 0.15266 0.0
C400 C 0.35982 0.72442 0.11568 0.0
H401 H 0.34511 0.62192 0.24367 0.0
H402 H 0.43521 0.67754 0.28361 0.0
H403 H 0.44084 0.68128 0.20817 0.0
H404 H 0.44567 0.71695 0.20302 0.0
H405 H 0.45759 0.70409 0.23644 0.0
H406 H 0.38798 0.72311 0.26828 0.0
H407 H 0.42732 0.72738 0.27126 0.0
H408 H 0.41064 0.74526 0.24413 0.0
H409 H 0.26213 0.61585 0.16862 0.0
H410 H 0.25845 0.67728 0.10383 0.0
H411 H 0.30241 0.70371 0.12255 0.0
H412 H 0.2829 0.6587 0.22329 0.0
H413 H 0.28215 0.6225 0.22358 0.0
H414 H 0.31006 0.64565 0.24251 0.0
H415 H 0.33382 0.61731 0.16191 0.0
H416 H 0.3485 0.61607 0.19701 0.0
H417 H 0.31136 0.59958 0.19027 0.0
H418 H 0.36911 0.60515 0.28395 0.0
C419 C 0.36455 0.6346 0.25153 0.0
C420 C 0.11224 0.26746 0.6661 0.0
C421 C 0.12259 0.25406 0.64088 0.0
C422 C 0.14828 0.26746 0.62668 0.0
C423 C 0.15232 0.30623 0.66109 0.0
C424 C 0.1273 0.2936 0.67561 0.0
C425 C 0.11929 0.31161 0.70114 0.0
H426 H 0.15002 0.43247 0.78144 0.0
C427 C 0.16296 0.33322 0.67581 0.0
C428 C 0.1436 0.33676 0.69951 0.0
H429 H 0.07747 0.36702 0.79556 0.0
H430 H 0.09481 0.34138 0.75493 0.0
H431 H 0.14734 0.43074 0.709 0.0
H432 H 0.1993 0.39303 0.76874 0.0
H433 H 0.22194 0.40684 0.73947 0.0
H434 H 0.20505 0.42921 0.76368 0.0
H435 H 0.17494 0.45025 0.73154 0.0
H436 H 0.18431 0.4357 0.69678 0.0
C437 C 0.08871 0.31904 0.69547 0.0
C438 C 0.12059 0.29611 0.72983 0.0
C439 C 0.25637 0.39216 0.635 0.0
C440 C 0.27289 0.41773 0.64306 0.0
C441 C 0.2624 0.43156 0.66762 0.0
C442 C 0.23662 0.4205 0.68344 0.0
C443 C 0.22053 0.39498 0.67509 0.0
C444 C 0.23068 0.3813 0.65119 0.0
C445 C 0.2112 0.3543 0.64546 0.0
C446 C 0.18771 0.35387 0.66967 0.0
C447 C 0.19303 0.37785 0.68712 0.0
C448 C 0.19801 0.35513 0.6146 0.0
C449 C 0.22997 0.33146 0.64918 0.0
C450 C 0.13751 0.41277 0.77582 0.0
C451 C 0.11198 0.40225 0.79256 0.0
C452 C 0.09727 0.37601 0.78397 0.0
C453 C 0.1073 0.36102 0.75997 0.0
C454 C 0.13266 0.3719 0.74363 0.0
C455 C 0.14734 0.39744 0.75188 0.0
C456 C 0.17423 0.40587 0.73252 0.0
C457 C 0.17323 0.38164 0.71112 0.0
C458 C 0.14866 0.36139 0.71751 0.0
C459 C 0.17029 0.43213 0.71666 0.0
C460 C 0.2017 0.40915 0.75196 0.0
H461 H 0.18226 0.30149 0.62427 0.0
H462 H 0.09259 0.25815 0.67772 0.0
H463 H 0.14106 0.28697 0.73027 0.0
H464 H 0.121 0.3095 0.74947 0.0
H465 H 0.10157 0.27937 0.73183 0.0
H466 H 0.08735 0.32542 0.67241 0.0
H467 H 0.07114 0.30128 0.69921 0.0
H468 H 0.08393 0.33629 0.70933 0.0
H469 H 0.26348 0.38048 0.61667 0.0
H470 H 0.27392 0.45134 0.67447 0.0
H471 H 0.2301 0.43235 0.70167 0.0
H472 H 0.19388 0.37598 0.60975 0.0
H473 H 0.21317 0.34919 0.59725 0.0
H474 H 0.17633 0.34209 0.61251 0.0
H475 H 0.24611 0.33685 0.66699 0.0
H476 H 0.2168 0.31193 0.65586 0.0
H477 H 0.24251 0.32808 0.62873 0.0
H478 H 0.15739 0.25799 0.60776 0.0
C479 C 0.16296 0.29298 0.63649 0.0
Ho480 Ho 0.02404 0.02991 0.48704 0.0
Ho481 Ho 1.00984 1.00459 0.54621 0.0
C482 C 0.04192 0.06689 0.54766 0.0
C483 C 0.03241 0.062 0.44304 0.0
C484 C 0.05528 0.08563 0.43654 0.0
C485 C 0.05742 0.1101 0.45309 0.0
C486 C 0.0813 0.13096 0.44882 0.0
C487 C 0.1035 0.12758 0.42814 0.0
C488 C 0.10077 0.10356 0.41093 0.0
C489 C 0.07682 0.08289 0.41497 0.0
C490 C 0.06529 1.00329 0.50811 0.0
C491 C 0.99151 0.96793 0.48536 0.0
C492 C 1.00031 0.97151 0.58917 0.0
C493 C 0.97447 0.95043 0.59337 0.0
C494 C 0.97182 0.93317 0.61742 0.0
C495 C 0.94554 0.91523 0.62246 0.0
C496 C 0.92164 0.91467 0.60363 0.0
C497 C 0.92494 0.93126 0.57895 0.0
C498 C 0.95113 0.94892 0.57384 0.0
C499 C 0.96873 0.0316 0.52592 0.0
O500 O 0.03625 0.06627 0.5191 0.0
O501 O 0.03757 0.04393 0.56268 0.0
O502 O 0.04173 0.03857 0.44351 0.0
O503 O 0.01374 0.0649 0.46448 0.0
O504 O 0.05917 1.00363 0.48061 0.0
O505 O 0.05086 1.01844 0.52269 0.0
O506 O 0.99744 0.96845 0.51384 0.0
O507 O 0.99611 0.99088 0.47043 0.0
O508 O 0.9945 0.99636 0.59062 0.0
O509 O 0.01735 0.96753 0.56672 0.0
O510 O 0.97444 0.03017 0.55338 0.0
O511 O 0.98302 1.01656 0.51092 0.0
H512 H 0.0411 0.11291 0.46982 0.0
H513 H 0.08287 0.14935 0.46228 0.0
H514 H 0.11727 0.10071 0.39439 0.0
H515 H 0.07558 0.06437 0.40175 0.0
H516 H 0.98963 0.93415 0.6327 0.0
H517 H 0.94342 0.90275 0.64176 0.0
H518 H 0.90697 0.93104 0.56399 0.0
H519 H 0.9528 0.96215 0.55515 0.0
Ho520 Ho 0.53131 0.02715 0.02749 0.0
Ho521 Ho 0.48151 1.01722 0.99558 0.0
C522 C 0.47452 0.0517 0.0519 0.0
C523 C 0.57618 0.04693 0.059 0.0
C524 C 0.58045 0.05306 0.09029 0.0
C525 C 0.55668 0.05709 0.1087 0.0
C526 C 0.56106 0.0632 0.13843 0.0
C527 C 0.58921 0.06502 0.15023 0.0
C528 C 0.61285 0.06047 0.13179 0.0
C529 C 0.60848 0.05459 0.102 0.0
C530 C 0.49966 0.97687 0.04244 0.0
C531 C 0.53715 0.99255 0.97207 0.0
C532 C 0.43759 0.9967 0.96321 0.0
C533 C 0.43115 0.97351 0.94236 0.0
C534 C 0.40803 0.95227 0.94856 0.0
C535 C 0.40075 0.93071 0.92851 0.0
C536 C 0.41627 0.93013 0.90168 0.0
C537 C 0.4399 0.95113 0.89587 0.0
C538 C 0.44733 0.97252 0.91602 0.0
C539 C 0.51326 0.06782 0.98229 0.0
O540 O 0.50331 0.05375 0.05218 0.0
O541 O 0.45924 0.03539 0.03292 0.0
O542 O 0.56946 0.02122 0.0519 0.0
O543 O 0.56019 0.06191 0.04546 0.0
O544 O 0.52771 0.98251 0.03798 0.0
O545 O 0.48902 0.99866 0.03854 0.0
O546 O 0.50849 0.98724 0.97579 0.0
O547 O 0.55205 1.01291 0.98681 0.0
O548 O 0.45766 1.01691 0.95532 0.0
O549 O 0.43968 0.99065 0.99062 0.0
O550 O 0.48529 0.06248 0.98796 0.0
O551 O 0.52378 0.04579 0.98492 0.0
H552 H 0.53477 0.05564 0.10011 0.0
H553 H 0.54244 0.06636 0.15223 0.0
H554 H 0.63483 0.06205 0.14028 0.0
H555 H 0.627 0.05139 0.08807 0.0
H556 H 0.39534 0.95252 0.9688 0.0
H557 H 0.38273 0.91468 0.9339 0.0
H558 H 0.45206 0.95164 0.87526 0.0
H559 H 0.46538 0.98853 0.91062 0.0
Ho560 Ho 0.51083 0.49849 0.49632 0.0
Ho561 Ho 0.51117 0.54568 0.53066 0.0
C562 C 0.53584 0.49875 0.56435 0.0
C563 C 0.52783 0.45664 0.47112 0.0
C564 C 0.54668 0.43833 0.48262 0.0
C565 C 0.57063 0.44879 0.50034 0.0
C566 C 0.58716 0.43134 0.51323 0.0
C567 C 0.58024 0.40307 0.50854 0.0
C568 C 0.55634 0.39264 0.49064 0.0
C569 C 0.53964 0.41015 0.47786 0.0
C570 C 0.45809 0.49727 0.52517 0.0
C571 C 0.48634 0.54548 0.46241 0.0
C572 C 0.49447 0.58806 0.55494 0.0
C573 C 0.4807 0.60937 0.54147 0.0
C574 C 0.45798 0.60232 0.52127 0.0
C575 C 0.44679 0.62241 0.50641 0.0
C576 C 0.45778 0.65008 0.51162 0.0
C577 C 0.48027 0.65713 0.53217 0.0
C578 C 0.4917 0.63693 0.54686 0.0
C579 C 0.56397 0.54656 0.50206 0.0
O580 O 0.53443 0.4873 0.53766 0.0
O581 O 0.5261 0.52221 0.56829 0.0
O582 O 0.50221 0.45556 0.48413 0.0
O583 O 0.54068 0.48162 0.46671 0.0
O584 O 0.46126 0.49045 0.49776 0.0
O585 O 0.4834 0.50514 0.53585 0.0
O586 O 0.48955 0.55783 0.48857 0.0
O587 O 0.49416 0.52113 0.45898 0.0
O588 O 0.52169 0.58739 0.54693 0.0
O589 O 0.47861 0.5638 0.55545 0.0
O590 O 0.56075 0.55349 0.52942 0.0
O591 O 0.53867 0.53895 0.49128 0.0
H592 H 0.57644 0.47048 0.50457 0.0
H593 H 0.60519 0.44001 0.52714 0.0
H594 H 0.55076 0.37096 0.48618 0.0
H595 H 0.52113 0.40171 0.46444 0.0
H596 H 0.44908 0.58121 0.5165 0.0
H597 H 0.42977 0.61618 0.49052 0.0
H598 H 0.48882 0.67827 0.53722 0.0
H599 H 0.50928 0.64281 0.56224 0.0
Ho600 Ho 0.01571 0.49043 0.02739 0.0
Ho601 Ho 1.00734 0.54837 1.00029 0.0
C602 C 0.06623 0.54473 0.03923 0.0
C603 C 0.03535 0.44496 0.03125 0.0
C604 C 0.05804 0.43427 0.04735 0.0
C605 C 0.06965 0.41206 0.03528 0.0
C606 C 0.09363 0.40336 0.04808 0.0
C607 C 0.10638 0.4167 0.07327 0.0
C608 C 0.09427 0.43863 0.08575 0.0
C609 C 0.07037 0.44751 0.07273 0.0
C610 C 0.99199 0.5232 0.06857 0.0
C611 C 0.95667 0.49418 0.98852 0.0
C612 C 0.98884 0.59441 0.99702 0.0
C613 C 0.9671 0.60667 0.98124 0.0
C614 C 0.95604 0.62864 0.99452 0.0
C615 C 0.93305 0.63904 0.98188 0.0
C616 C 0.92071 0.62774 0.95552 0.0
C617 C 0.9323 0.60593 0.94196 0.0
C618 C 0.95523 0.59536 0.95482 0.0
C619 C 0.03116 0.51562 0.95914 0.0
O620 O 0.05846 0.51773 0.04074 0.0
O621 O 0.04969 0.56031 0.02593 0.0
O622 O 0.01222 0.45038 0.04614 0.0
O623 O 0.04562 0.46385 1.01255 0.0
O624 O 0.99637 0.49839 0.07306 0.0
O625 O 1.00032 0.52786 0.04219 0.0
O626 O 0.9645 0.5212 0.98711 0.0
O627 O 0.97323 0.47849 1.00172 0.0
O628 O 0.01189 0.58874 0.98218 0.0
O629 O 0.97761 0.57518 1.01496 0.0
O630 O 0.02652 0.54034 0.95455 0.0
O631 O 0.02298 0.51103 0.98557 0.0
H632 H 0.06057 0.40183 1.0155 0.0
H633 H 0.10226 0.3862 0.03822 0.0
H634 H 0.10379 0.44939 0.10505 0.0
H635 H 0.06198 0.46503 0.08202 0.0
H636 H 0.96467 0.63728 1.0152 0.0
H637 H 0.92438 0.65542 0.99331 0.0
H638 H 0.92359 0.59693 0.92149 0.0
H639 H 0.9633 0.57812 0.94449 0.0
H640 H 0.27671 0.20803 0.38106 0.0
H641 H 0.10517 0.18243 0.42202 0.0
H642 H 0.21503 0.25867 0.35322 0.0
H643 H 0.16108 0.12101 0.4256 0.0
H644 H 0.14836 0.2162 0.40976 0.0
H645 H 0.23743 0.18188 0.41043 0.0
C646 C 0.25513 0.21398 0.38142 0.0
C647 C 0.24918 0.23532 0.36406 0.0
C648 C 0.1512 0.1954 0.41363 0.0
C649 C 0.20429 0.20567 0.39792 0.0
C650 C 0.12662 0.17619 0.42069 0.0
C651 C 0.1296 0.14887 0.42428 0.0
C652 C 0.17888 0.1872 0.41038 0.0
C653 C 0.15784 0.1418 0.42235 0.0
C654 C 0.23276 0.19908 0.39828 0.0
C655 C 0.22091 0.24251 0.36619 0.0
N656 N 0.18138 0.1608 0.41528 0.0
N657 N 0.19946 0.22749 0.38243 0.0
H658 H 0.40655 0.85256 0.73356 0.0
H659 H 0.3599 0.90731 0.88788 0.0
H660 H 0.31761 0.83566 0.76801 0.0
H661 H 0.4504 0.90493 0.863 0.0
H662 H 0.3442 0.87756 0.84618 0.0
H663 H 0.42347 0.86804 0.7822 0.0
C664 C 0.39061 0.85153 0.75144 0.0
C665 C 0.36051 0.84312 0.74652 0.0
C666 C 0.36751 0.88321 0.85006 0.0
C667 C 0.37974 0.86153 0.80222 0.0
C668 C 0.37653 0.90012 0.87404 0.0
C669 C 0.40658 0.90901 0.87882 0.0
C670 C 0.38863 0.87541 0.83043 0.0
C671 C 0.42701 0.89922 0.85977 0.0
C672 C 0.4003 0.86055 0.77924 0.0
C673 C 0.34092 0.84264 0.77058 0.0
N674 N 0.41766 0.88327 0.83616 0.0
N675 N 0.35082 0.85211 0.79729 0.0
H676 H 0.59117 0.38004 0.68785 0.0
H677 H 0.54988 0.51891 0.62073 0.0
H678 H 0.6106 0.45874 0.73073 0.0
H679 H 0.54913 0.44583 0.56811 0.0
H680 H 0.56822 0.49606 0.66208 0.0
H681 H 0.57182 0.40186 0.6459 0.0
C682 C 0.59123 0.40181 0.68879 0.0
C683 C 0.60301 0.41723 0.71348 0.0
C684 C 0.5641 0.4849 0.64154 0.0
C685 C 0.58034 0.44285 0.66456 0.0
C686 C 0.55351 0.49806 0.61766 0.0
C687 C 0.54778 0.48469 0.59022 0.0
C688 C 0.56892 0.4576 0.63883 0.0
C689 C 0.55317 0.4574 0.5884 0.0
C690 C 0.58027 0.41439 0.66451 0.0
C691 C 0.60234 0.44561 0.71251 0.0
N692 N 0.56314 0.44494 0.61207 0.0
N693 N 0.59132 0.4572 0.68895 0.0
H694 H 0.94287 0.65531 0.18506 0.0
H695 H 0.96291 0.50677 0.11939 0.0
H696 H 0.90831 0.57978 0.22698 0.0
H697 H 0.99156 0.58013 0.07152 0.0
H698 H 0.94352 0.53367 0.15851 0.0
H699 H 0.9612 0.62931 0.1442 0.0
C700 C 0.93913 0.63331 0.18602 0.0
C701 C 0.92377 0.62014 0.2103 0.0
C702 C 0.95383 0.54406 0.13946 0.0
C703 C 0.94506 0.58966 0.16231 0.0
C704 C 0.965 0.52859 0.11685 0.0
C705 C 0.97877 0.54083 0.09146 0.0
C706 C 0.95645 0.57255 0.13749 0.0
C707 C 0.98075 0.56943 0.09012 0.0
C708 C 0.94957 0.61837 0.16229 0.0
C709 C 0.91954 0.59132 0.20912 0.0
N710 N 0.96991 0.58417 0.11267 0.0
N711 N 0.9301 0.57734 0.18595 0.0
H712 H 0.42193 0.19264 0.13845 0.0
H713 H 0.41657 0.04426 0.06897 0.0
H714 H 0.35783 0.12499 0.1671 0.0
H715 H 0.49828 0.09956 0.07892 0.0
H716 H 0.39164 0.07544 0.09899 0.0
H717 H 0.4473 0.16072 0.10975 0.0
C718 C 0.41316 0.17108 0.1385 0.0
C719 C 0.38787 0.16132 0.1551 0.0
C720 C 0.41505 0.08062 0.09468 0.0
C721 C 0.41643 0.12495 0.12237 0.0
C722 C 0.42927 0.0629 0.07756 0.0
C723 C 0.45953 0.06934 0.0715 0.0
C724 C 0.43109 0.10521 0.10522 0.0
C725 C 0.47495 0.09375 0.0832 0.0
C726 C 0.42769 0.15292 0.12235 0.0
C727 C 0.3774 0.13322 0.15466 0.0
N728 N 0.46049 0.11097 0.09925 0.0
N729 N 0.39161 0.11599 0.13836 0.0
H730 H 0.18722 0.93633 0.61388 0.0
H731 H 0.08806 0.96204 0.48084 0.0
H732 H 0.1642 0.87689 0.54419 0.0
H733 H 0.08471 1.00433 0.56418 0.0
H734 H 0.119 0.93244 0.50241 0.0
H735 H 0.15182 0.96298 0.59536 0.0
C736 C 0.17445 0.92863 0.59496 0.0
C737 C 0.17888 0.90436 0.58048 0.0
C738 C 0.1114 0.94812 0.51601 0.0
C739 C 0.13892 0.9352 0.55878 0.0
C740 C 0.09395 0.96509 0.50368 0.0
C741 C 0.08409 0.98564 0.5208 0.0
C742 C 0.11932 0.95205 0.54552 0.0
C743 C 0.09205 0.98871 0.55029 0.0
C744 C 0.15438 0.94398 0.58431 0.0
C745 C 0.16202 0.89574 0.55571 0.0
N746 N 0.10944 0.97218 0.56173 0.0
N747 N 0.14298 0.91129 0.54548 0.0
H748 H 0.81254 0.37585 0.91516 0.0
H749 H 0.91437 0.51818 0.96057 0.0
H750 H 0.78731 0.45369 0.89818 0.0
H751 H 0.9334 0.43916 0.98258 0.0
H752 H 0.86918 0.49587 0.93662 0.0
H753 H 0.8572 0.39917 0.93806 0.0
C754 C 0.81605 0.39789 0.91631 0.0
C755 C 0.79513 0.41247 0.90477 0.0
C756 C 0.88319 0.48338 0.9467 0.0
C757 C 0.84797 0.43993 0.93124 0.0
C758 C 0.9092 0.49616 0.96051 0.0
C759 C 0.92826 0.48078 0.97399 0.0
C760 C 0.87573 0.45474 0.94594 0.0
C761 C 0.91979 0.45218 0.97279 0.0
C762 C 0.84199 0.41129 0.92941 0.0
C763 C 0.80233 0.44122 0.90649 0.0
N764 N 0.89452 0.44031 0.95915 0.0
N765 N 0.82781 0.45384 0.91946 0.0
H766 H 0.69953 0.59215 0.36438 0.0
H767 H 0.61731 0.57202 0.52242 0.0
H768 H 0.73807 0.62565 0.44528 0.0
H769 H 0.57481 0.54383 0.44171 0.0
H770 H 0.66196 0.58999 0.49451 0.0
H771 H 0.65489 0.573 0.3918 0.0
C772 C 0.69889 0.59545 0.3879 0.0
C773 C 0.72323 0.61076 0.40221 0.0
C774 C 0.64298 0.57985 0.48277 0.0
C775 C 0.67114 0.58862 0.43418 0.0
C776 C 0.61731 0.56945 0.49879 0.0
C777 C 0.59189 0.55627 0.48461 0.0
C778 C 0.64379 0.57717 0.45198 0.0
C779 C 0.59366 0.55375 0.45378 0.0
C780 C 0.67308 0.58454 0.40359 0.0
C781 C 0.72017 0.61443 0.43286 0.0
N782 N 0.61897 0.56404 0.43863 0.0
N783 N 0.69493 0.60348 0.4476 0.0
H784 H 0.21572 0.34222 0.18563 0.0
H785 H 0.15578 0.4046 0.04498 0.0
H786 H 0.26987 0.36096 0.10795 0.0
H787 H 0.11589 0.40827 0.13108 0.0
H788 H 0.19707 0.3872 0.06658 0.0
H789 H 0.17853 0.3652 0.16523 0.0
C790 C 0.22018 0.3516 0.16449 0.0
C791 C 0.24639 0.34984 0.14872 0.0
C792 C 0.1794 0.39202 0.08076 0.0
C793 C 0.20289 0.37554 0.12468 0.0
C794 C 0.15576 0.40176 0.06845 0.0
C795 C 0.1323 0.40769 0.08628 0.0
C796 C 0.17938 0.38783 0.11106 0.0
C797 C 0.13357 0.40405 0.11657 0.0
C798 C 0.19866 0.36456 0.15274 0.0
C799 C 0.25003 0.36157 0.12088 0.0
N800 N 0.15657 0.39411 0.12796 0.0
N801 N 0.22844 0.37378 0.10966 0.0
H802 H 0.631 0.20874 0.9025 0.0
H803 H 0.48664 0.11012 0.9646 0.0
H804 H 0.54229 0.22202 0.88876 0.0
H805 H 0.57227 0.08615 0.96443 0.0
H806 H 0.50761 0.15203 0.93966 0.0
H807 H 0.61141 0.16601 0.92733 0.0
C808 C 0.60741 0.20298 0.90469 0.0
C809 C 0.58858 0.21976 0.89305 0.0
C810 C 0.522 0.13774 0.94496 0.0
C811 C 0.56559 0.16971 0.92217 0.0
C812 C 0.50996 0.11353 0.9594 0.0
C813 C 0.52741 0.09393 0.96688 0.0
C814 C 0.55223 0.14334 0.93779 0.0
C815 C 0.55763 0.10024 0.95925 0.0
C816 C 0.59618 0.17822 0.91887 0.0
C817 C 0.5581 0.21019 0.89672 0.0
N818 N 0.56895 0.12418 0.94538 0.0
N819 N 0.54781 0.1863 0.91086 0.0
H820 H 0.91624 0.79687 0.44864 0.0
H821 H 0.98139 0.95617 0.42597 0.0
H822 H 0.93155 0.8311 0.36278 0.0
H823 H 0.97394 0.91718 0.50974 0.0
H824 H 0.96274 0.91188 0.40227 0.0
H825 H 0.93683 0.84092 0.47057 0.0
C826 C 0.92394 0.8136 0.43421 0.0
C827 C 0.92171 0.80977 0.40352 0.0
C828 C 0.96518 0.91297 0.42583 0.0
C829 C 0.9458 0.86148 0.42915 0.0
C830 C 0.97581 0.93843 0.43952 0.0
C831 C 0.97943 0.94091 0.47019 0.0
C832 C 0.95775 0.88938 0.44272 0.0
C833 C 0.97174 0.91673 0.48615 0.0
C834 C 0.93586 0.83897 0.44691 0.0
C835 C 0.93276 0.83264 0.38643 0.0
N836 N 0.96134 0.89236 0.47238 0.0
N837 N 0.94399 0.85734 0.39938 0.0
H838 H 0.33345 0.75143 0.47862 0.0
H839 H 0.48581 0.69936 0.49117 0.0
H840 H 0.41604 0.80336 0.49492 0.0
H841 H 0.40005 0.64963 0.49795 0.0
H842 H 0.46264 0.73679 0.47389 0.0
H843 H 0.36011 0.71427 0.46477 0.0
C844 C 0.35727 0.75535 0.47799 0.0
C845 C 0.37266 0.78017 0.48852 0.0
C846 C 0.44903 0.71745 0.4786 0.0
C847 C 0.40311 0.73777 0.47367 0.0
C848 C 0.46218 0.69618 0.48877 0.0
C849 C 0.44482 0.6715 0.49681 0.0
C850 C 0.41832 0.71402 0.47646 0.0
C851 C 0.41441 0.66825 0.4922 0.0
C852 C 0.37247 0.73406 0.47042 0.0
C853 C 0.40347 0.78424 0.4874 0.0
N854 N 0.40211 0.68941 0.48278 0.0
N855 N 0.41773 0.763 0.48088 0.0
H856 H 0.77621 0.7922 0.65855 0.0
H857 H 0.86887 0.93244 0.60497 0.0
H858 H 0.75554 0.87134 0.6839 0.0
H859 H 0.90834 0.86104 0.61921 0.0
H860 H 0.82119 0.90726 0.62046 0.0
H861 H 0.8187 0.81476 0.63048 0.0
C862 C 0.78024 0.81423 0.65801 0.0
C863 C 0.76243 0.8298 0.67434 0.0
C864 C 0.84024 0.89703 0.61985 0.0
C865 C 0.81054 0.85552 0.64153 0.0
C866 C 0.86738 0.91131 0.61094 0.0
C867 C 0.89253 0.89877 0.61097 0.0
C868 C 0.83816 0.86994 0.62854 0.0
C869 C 0.88947 0.87146 0.6192 0.0
C870 C 0.80446 0.82701 0.64188 0.0
C871 C 0.76832 0.85829 0.67174 0.0
N872 N 0.86271 0.8579 0.62773 0.0
N873 N 0.792 0.8702 0.65591 0.0
H874 H 0.6175 0.15931 0.30982 0.0
H875 H 0.62107 0.0417 0.18944 0.0
H876 H 0.6565 0.08752 0.32388 0.0
H877 H 0.56881 0.10563 0.1818 0.0
H878 H 0.63237 0.057 0.2398 0.0
H879 H 0.59679 0.13865 0.26427 0.0
C880 C 0.62132 0.13902 0.30359 0.0
C881 C 0.63906 0.12525 0.32052 0.0
C882 C 0.61818 0.06753 0.22723 0.0
C883 C 0.61591 0.10173 0.26813 0.0
C884 C 0.61189 0.05889 0.19846 0.0
C885 C 0.59421 0.07258 0.18144 0.0
C886 C 0.60698 0.09022 0.23891 0.0
C887 C 0.58246 0.09447 0.19426 0.0
C888 C 0.60962 0.12729 0.27748 0.0
C889 C 0.64352 0.09912 0.31116 0.0
N890 N 0.58933 0.10281 0.22216 0.0
N891 N 0.63228 0.08833 0.28544 0.0
H892 H 0.43232 0.66435 0.33829 0.0
H893 H 0.46805 0.52407 0.40752 0.0
H894 H 0.41055 0.58529 0.29658 0.0
H895 H 0.47794 0.5997 0.45686 0.0
H896 H 0.44982 0.54694 0.36612 0.0
H897 H 0.45192 0.64257 0.3801 0.0
C898 C 0.43177 0.64251 0.33757 0.0
C899 C 0.41921 0.62699 0.31326 0.0
C900 C 0.45588 0.55867 0.38597 0.0
C901 C 0.4421 0.60139 0.36208 0.0
C902 C 0.46642 0.54548 0.40988 0.0
C903 C 0.47458 0.55957 0.43646 0.0
C904 C 0.4535 0.58663 0.38781 0.0
C905 C 0.47174 0.58755 0.43736 0.0
C906 C 0.44288 0.62995 0.36178 0.0
C907 C 0.41932 0.59852 0.31452 0.0
N908 N 0.46169 0.59996 0.41372 0.0
N909 N 0.4304 0.58695 0.33805 0.0
H910 H 0.08226 0.38328 0.84425 0.0
H911 H 0.05998 0.53189 0.90812 0.0
H912 H 0.11524 0.4586 0.80117 0.0
H913 H 0.03194 0.45876 0.95654 0.0
H914 H 0.07968 0.5049 0.86926 0.0
H915 H 0.06344 0.40941 0.88473 0.0
C916 C 0.08555 0.40526 0.84296 0.0
C917 C 0.10063 0.41833 0.81847 0.0
C918 C 0.06944 0.49458 0.88838 0.0
C919 C 0.07878 0.44896 0.86602 0.0
C920 C 0.05809 0.5101 0.91084 0.0
C921 C 0.04441 0.49796 0.93632 0.0
C922 C 0.06713 0.46613 0.89062 0.0
C923 C 0.0427 0.4694 0.93789 0.0
C924 C 0.07482 0.42027 0.86646 0.0
C925 C 0.10426 0.44714 0.81922 0.0
N926 N 0.05373 0.45461 0.91551 0.0
N927 N 0.09346 0.46118 0.84219 0.0
H928 H 0.58477 0.86432 0.85712 0.0
H929 H 0.59551 0.98841 0.97268 0.0
H930 H 0.65171 0.88025 0.92268 0.0
H931 H 0.51384 0.95322 0.93238 0.0
H932 H 0.61958 0.9536 0.94796 0.0
H933 H 0.56117 0.90117 0.87872 0.0
C934 C 0.59445 0.87559 0.87607 0.0
C935 C 0.62008 0.86919 0.8883 0.0
C936 C 0.59643 0.95361 0.94443 0.0
C937 C 0.59359 0.91143 0.91272 0.0
C938 C 0.58272 0.97359 0.95833 0.0
C939 C 0.5526 0.97363 0.95467 0.0
C940 C 0.58 0.93375 0.92643 0.0
C941 C 0.53708 0.95382 0.93593 0.0
C942 C 0.58098 0.89652 0.88838 0.0
C943 C 0.63175 0.88434 0.91284 0.0
N944 N 0.55097 0.93465 0.92248 0.0
N945 N 0.61852 0.90487 0.92416 0.0
H946 H 0.84689 0.14235 0.50139 0.0
H947 H 0.9509 0.07372 0.55572 0.0
H948 H 0.88576 0.13126 0.41585 0.0
H949 H 0.95094 0.03613 0.46955 0.0
H950 H 0.92432 0.10777 0.53687 0.0
H951 H 0.88039 0.11593 0.52243 0.0
C952 C 0.86319 0.13515 0.48709 0.0
C953 C 0.86369 0.13939 0.45678 0.0
C954 C 0.92952 0.09182 0.52211 0.0
C955 C 0.90248 0.10875 0.48097 0.0
C956 C 0.94488 0.07246 0.53284 0.0
C957 C 0.95252 0.05186 0.51422 0.0
C958 C 0.92122 0.09026 0.49262 0.0
C959 C 0.94499 0.05155 0.48462 0.0
C960 C 0.88244 0.11994 0.49922 0.0
C961 C 0.88454 0.12842 0.43931 0.0
N962 N 0.92952 0.07045 0.4747 0.0
N963 N 0.90297 0.11333 0.45165 0.0
H964 H 0.20856 0.66494 0.11198 0.0
H965 H 0.10882 0.52129 0.06751 0.0
H966 H 0.23551 0.58787 0.12922 0.0
H967 H 0.08885 0.5998 0.04478 0.0
H968 H 0.15385 0.54425 0.09138 0.0
H969 H 0.16419 0.64084 0.08928 0.0
C970 C 0.20549 0.64292 0.11092 0.0
C971 C 0.22678 0.62879 0.12246 0.0
C972 C 0.13965 0.55647 0.08115 0.0
C973 C 0.1743 0.6004 0.09626 0.0
C974 C 0.11375 0.54332 0.0674 0.0
C975 C 0.09451 0.55838 0.05374 0.0
C976 C 0.14674 0.58514 0.08166 0.0
C977 C 0.10262 0.58701 0.05471 0.0
C978 C 0.17971 0.62905 0.09795 0.0
C979 C 0.22016 0.6 0.12089 0.0
N980 N 0.12776 0.59923 0.06829 0.0
N981 N 0.19482 0.58692 0.10804 0.0
H982 H 0.32416 0.44936 0.66373 0.0
H983 H 0.40501 0.4708 0.50514 0.0
H984 H 0.28595 0.41443 0.58326 0.0
H985 H 0.44761 0.49975 0.58558 0.0
H986 H 0.36087 0.45192 0.53337 0.0
H987 H 0.36826 0.46934 0.63597 0.0
C988 C 0.32476 0.44592 0.64023 0.0
C989 C 0.30068 0.42996 0.62614 0.0
C990 C 0.37977 0.46243 0.54498 0.0
C991 C 0.35214 0.45309 0.59378 0.0
C992 C 0.40513 0.47335 0.52878 0.0
C993 C 0.43043 0.48702 0.54279 0.0
C994 C 0.37914 0.46507 0.57578 0.0
C995 C 0.42884 0.48948 0.57363 0.0
C996 C 0.35026 0.45731 0.62434 0.0
C997 C 0.30368 0.42615 0.59551 0.0
N998 N 0.40383 0.47868 0.58895 0.0
N999 N 0.3286 0.43759 0.58056 0.0
H1000 H 0.79438 0.72956 0.90866 0.0
H1001 H 0.87261 0.59902 0.92769 0.0
H1002 H 0.77105 0.65514 0.85805 0.0
H1003 H 0.91082 0.68069 0.95463 0.0
H1004 H 0.83089 0.61703 0.90803 0.0
H1005 H 0.83176 0.70908 0.93333 0.0
C1006 C 0.79672 0.7087 0.90319 0.0
C1007 C 0.77972 0.69404 0.88121 0.0
C1008 C 0.84842 0.63093 0.91832 0.0
C1009 C 0.8227 0.67068 0.90894 0.0
C1010 C 0.8724 0.62073 0.92932 0.0
C1011 C 0.89542 0.63833 0.94284 0.0
C1012 C 0.84728 0.6589 0.92108 0.0
C1013 C 0.89347 0.66622 0.94486 0.0
C1014 C 0.81826 0.69714 0.91702 0.0
C1015 C 0.78394 0.66721 0.87469 0.0
N1016 N 0.86984 0.6756 0.93415 0.0
N1017 N 0.80512 0.65641 0.8884 0.0
H1018 H 0.47635 0.82302 0.13877 0.0
H1019 H 0.44031 0.95792 0.05864 0.0
H1020 H 0.38743 0.83474 0.1232 0.0
H1021 H 0.52658 0.93576 0.06271 0.0
H1022 H 0.42006 0.91522 0.08409 0.0
H1023 H 0.49433 0.86568 0.11376 0.0
C1024 C 0.46038 0.83448 0.1304 0.0
C1025 C 0.42999 0.82451 0.13363 0.0
C1026 C 0.44344 0.91972 0.07943 0.0
C1027 C 0.45109 0.87473 0.10403 0.0
C1028 C 0.45509 0.94429 0.06485 0.0
C1029 C 0.48546 0.951 0.05826 0.0
C1030 C 0.46215 0.90145 0.08799 0.0
C1031 C 0.50313 0.93197 0.06708 0.0
C1032 C 0.47084 0.85906 0.11576 0.0
C1033 C 0.41099 0.84088 0.12136 0.0
N1034 N 0.4914 0.90858 0.08132 0.0
N1035 N 0.42172 0.86487 0.10744 0.0
H1036 H 0.11226 0.23925 0.58293 0.0
H1037 H 0.05175 0.0792 0.6071 0.0
H1038 H 0.09847 0.20565 0.66921 0.0
H1039 H 0.05831 0.11765 0.52307 0.0
H1040 H 0.0692 0.12393 0.63052 0.0
H1041 H 0.0929 0.19467 0.56153 0.0
C1042 C 0.10514 0.22254 0.59756 0.0
C1043 C 0.10742 0.22673 0.62821 0.0
C1044 C 0.06683 0.12261 0.60696 0.0
C1045 C 0.08479 0.17436 0.60319 0.0
C1046 C 0.0569 0.0969 0.59344 0.0
C1047 C 0.05341 0.09413 0.56276 0.0
C1048 C 0.07364 0.14616 0.58989 0.0
C1049 C 0.06047 0.11828 0.54664 0.0
C1050 C 0.09394 0.19685 0.58516 0.0
C1051 C 0.09717 0.20384 0.64558 0.0
N1052 N 0.07017 0.14288 0.56025 0.0
N1053 N 0.08663 0.17883 0.63292 0.0
H1054 H 0.64092 0.2556 0.54195 0.0
H1055 H 0.64015 0.41117 0.51325 0.0
H1056 H 0.71828 0.31357 0.52108 0.0
H1057 H 0.56238 0.35303 0.53281 0.0
H1058 H 0.67043 0.37843 0.52861 0.0
H1059 H 0.6139 0.29326 0.55206 0.0
C1060 C 0.65239 0.27633 0.54029 0.0
C1061 C 0.68162 0.28157 0.53007 0.0
C1062 C 0.64674 0.37295 0.52998 0.0
C1063 C 0.65084 0.32462 0.54093 0.0
C1064 C 0.62939 0.39169 0.52129 0.0
C1065 C 0.59866 0.38462 0.52117 0.0
C1066 C 0.63329 0.34682 0.53832 0.0
C1067 C 0.58601 0.35903 0.53171 0.0
C1068 C 0.63697 0.29781 0.54596 0.0
C1069 C 0.69568 0.30869 0.5287 0.0
N1070 N 0.60339 0.34089 0.53944 0.0
N1071 N 0.67994 0.32925 0.53338 0.0
loop_
_geom_bond_atom_site_label_1
_geom_bond_atom_site_label_2
_geom_bond_distance
_geom_bond_site_symmetry_2
_ccdc_geom_bond_type
C0 C1 1.391 . S
C0 C4 1.391 . S
C0 H42 0.948 . S
C1 C0 1.391 . S
C1 C2 1.391 . S
C2 C1 1.391 . S
C2 H58 0.947 . S
C2 C59 1.392 . S
C3 C4 1.391 . S
C3 C7 1.397 . S
C3 C59 1.419 . S
C4 C0 1.391 . S
C4 C3 1.391 . S
C4 C5 1.399 . S
C5 C4 1.399 . S
C5 C8 1.396 . S
C5 C17 1.453 . S
C5 C18 1.684 . S
H6 C30 0.948 . S
C7 C3 1.397 . S
C7 C8 1.394 . S
C7 C26 1.723 . S
C8 C5 1.396 . S
C8 C7 1.394 . S
C8 C38 1.723 . S
H9 C32 0.947 . S
H10 C33 0.948 . S
H11 C39 0.982 . S
H12 C40 0.979 . S
H13 C40 0.980 . S
H14 C40 0.983 . S
H15 C39 0.979 . S
H16 C39 0.977 . S
C17 C5 1.453 . S
C17 H46 0.982 . S
C17 H47 0.979 . S
C17 H48 0.977 . S
C18 C5 1.684 . S
C18 H43 0.979 . S
C18 H44 0.980 . S
C18 H45 0.983 . S
C19 C20 1.391 . S
C19 C24 1.391 . S
C19 H49 0.948 . S
C20 C19 1.391 . S
C20 C21 1.391 . S
C21 C20 1.391 . S
C21 C22 1.392 . S
C21 H50 0.947 . S
C22 C21 1.392 . S
C22 C23 1.419 . S
C22 H51 0.948 . S
C23 C22 1.419 . S
C23 C24 1.391 . S
C23 C27 1.397 . S
C24 C19 1.391 . S
C24 C23 1.391 . S
C24 C25 1.399 . S
C25 C24 1.399 . S
C25 C26 1.396 . S
C25 C28 1.453 . S
C25 C29 1.684 . S
C26 C7 1.723 . S
C26 C25 1.396 . S
C26 C27 1.394 . S
C27 C23 1.397 . S
C27 C26 1.394 . S
C27 C37 1.723 . S
C28 C25 1.453 . S
C28 H52 0.982 . S
C28 H53 0.979 . S
C28 H54 0.977 . S
C29 C25 1.684 . S
C29 H55 0.979 . S
C29 H56 0.980 . S
C29 H57 0.983 . S
C30 H6 0.948 . S
C30 C31 1.391 . S
C30 C35 1.391 . S
C31 C30 1.391 . S
C31 C32 1.391 . S
C32 H9 0.947 . S
C32 C31 1.391 . S
C32 C33 1.392 . S
C33 H10 0.948 . S
C33 C32 1.392 . S
C33 C34 1.419 . S
C34 C33 1.419 . S
C34 C35 1.391 . S
C34 C38 1.397 . S
C35 C30 1.391 . S
C35 C34 1.391 . S
C35 C36 1.399 . S
C36 C35 1.399 . S
C36 C37 1.396 . S
C36 C39 1.453 . S
C36 C40 1.684 . S
C37 C27 1.723 . S
C37 C36 1.396 . S
C37 C38 1.394 . S
C38 C8 1.723 . S
C38 C34 1.397 . S
C38 C37 1.394 . S
C39 H11 0.982 . S
C39 H15 0.979 . S
C39 H16 0.977 . S
C39 C36 1.453 . S
C40 H12 0.979 . S
C40 H13 0.980 . S
C40 H14 0.983 . S
C40 C36 1.684 . S
H41 C59 0.948 . S
H42 C0 0.948 . S
H43 C18 0.979 . S
H44 C18 0.980 . S
H45 C18 0.983 . S
H46 C17 0.982 . S
H47 C17 0.979 . S
H48 C17 0.977 . S
H49 C19 0.948 . S
H50 C21 0.947 . S
H51 C22 0.948 . S
H52 C28 0.982 . S
H53 C28 0.979 . S
H54 C28 0.977 . S
H55 C29 0.979 . S
H56 C29 0.980 . S
H57 C29 0.983 . S
H58 C2 0.947 . S
C59 C2 1.392 . S
C59 C3 1.419 . S
C59 H41 0.948 . S
C60 C61 1.391 . S
C60 C64 1.391 . S
C60 H102 0.948 . S
C61 C60 1.391 . S
C61 C62 1.391 . S
C62 C61 1.391 . S
C62 H118 0.947 . S
C62 C119 1.392 . S
C63 C64 1.391 . S
C63 C67 1.397 . S
C63 C119 1.419 . S
C64 C60 1.391 . S
C64 C63 1.391 . S
C64 C65 1.399 . S
C65 C64 1.399 . S
C65 C68 1.396 . S
C65 C77 1.453 . S
C65 C78 1.684 . S
H66 C90 0.948 . S
C67 C63 1.397 . S
C67 C68 1.394 . S
C67 C86 1.723 . S
C68 C65 1.396 . S
C68 C67 1.394 . S
C68 C98 1.723 . S
H69 C92 0.947 . S
H70 C93 0.948 . S
H71 C99 0.982 . S
H72 C100 0.979 . S
H73 C100 0.980 . S
H74 C100 0.983 . S
H75 C99 0.979 . S
H76 C99 0.977 . S
C77 C65 1.453 . S
C77 H106 0.982 . S
C77 H107 0.979 . S
C77 H108 0.977 . S
C78 C65 1.684 . S
C78 H103 0.979 . S
C78 H104 0.980 . S
C78 H105 0.983 . S
C79 C80 1.391 . S
C79 C84 1.391 . S
C79 H109 0.948 . S
C80 C79 1.391 . S
C80 C81 1.391 . S
C81 C80 1.391 . S
C81 C82 1.392 . S
C81 H110 0.947 . S
C82 C81 1.392 . S
C82 C83 1.419 . S
C82 H111 0.948 . S
C83 C82 1.419 . S
C83 C84 1.391 . S
C83 C87 1.397 . S
C84 C79 1.391 . S
C84 C83 1.391 . S
C84 C85 1.399 . S
C85 C84 1.399 . S
C85 C86 1.396 . S
C85 C88 1.453 . S
C85 C89 1.684 . S
C86 C67 1.723 . S
C86 C85 1.396 . S
C86 C87 1.394 . S
C87 C83 1.397 . S
C87 C86 1.394 . S
C87 C97 1.723 . S
C88 C85 1.453 . S
C88 H112 0.982 . S
C88 H113 0.979 . S
C88 H114 0.977 . S
C89 C85 1.684 . S
C89 H115 0.979 . S
C89 H116 0.980 . S
C89 H117 0.983 . S
C90 H66 0.948 . S
C90 C91 1.391 . S
C90 C95 1.391 . S
C91 C90 1.391 . S
C91 C92 1.391 . S
C92 H69 0.947 . S
C92 C91 1.391 . S
C92 C93 1.392 . S
C93 H70 0.948 . S
C93 C92 1.392 . S
C93 C94 1.419 . S
C94 C93 1.419 . S
C94 C95 1.391 . S
C94 C98 1.397 . S
C95 C90 1.391 . S
C95 C94 1.391 . S
C95 C96 1.399 . S
C96 C95 1.399 . S
C96 C97 1.396 . S
C96 C99 1.453 . S
C96 C100 1.684 . S
C97 C87 1.723 . S
C97 C96 1.396 . S
C97 C98 1.394 . S
C98 C68 1.723 . S
C98 C94 1.397 . S
C98 C97 1.394 . S
C99 H71 0.982 . S
C99 H75 0.979 . S
C99 H76 0.977 . S
C99 C96 1.453 . S
C100 H72 0.979 . S
C100 H73 0.980 . S
C100 H74 0.983 . S
C100 C96 1.684 . S
H101 C119 0.948 . S
H102 C60 0.948 . S
H103 C78 0.979 . S
H104 C78 0.980 . S
H105 C78 0.983 . S
H106 C77 0.982 . S
H107 C77 0.979 . S
H108 C77 0.977 . S
H109 C79 0.948 . S
H110 C81 0.947 . S
H111 C82 0.948 . S
H112 C88 0.982 . S
H113 C88 0.979 . S
H114 C88 0.977 . S
H115 C89 0.979 . S
H116 C89 0.980 . S
H117 C89 0.983 . S
H118 C62 0.947 . S
C119 C62 1.392 . S
C119 C63 1.419 . S
C119 H101 0.948 . S
C120 C121 1.391 . S
C120 C124 1.391 . S
C120 H162 0.948 . S
C121 C120 1.391 . S
C121 C122 1.391 . S
C122 C121 1.391 . S
C122 H178 0.947 . S
C122 C179 1.392 . S
C123 C124 1.391 . S
C123 C127 1.397 . S
C123 C179 1.419 . S
C124 C120 1.391 . S
C124 C123 1.391 . S
C124 C125 1.399 . S
C125 C124 1.399 . S
C125 C128 1.396 . S
C125 C137 1.453 . S
C125 C138 1.684 . S
H126 C150 0.948 . S
C127 C123 1.397 . S
C127 C128 1.394 . S
C127 C146 1.723 . S
C128 C125 1.396 . S
C128 C127 1.394 . S
C128 C158 1.723 . S
H129 C152 0.947 . S
H130 C153 0.948 . S
H131 C159 0.982 . S
H132 C160 0.979 . S
H133 C160 0.980 . S
H134 C160 0.983 . S
H135 C159 0.979 . S
H136 C159 0.977 . S
C137 C125 1.453 . S
C137 H166 0.982 . S
C137 H167 0.979 . S
C137 H168 0.977 . S
C138 C125 1.684 . S
C138 H163 0.979 . S
C138 H164 0.980 . S
C138 H165 0.983 . S
C139 C140 1.391 . S
C139 C144 1.391 . S
C139 H169 0.948 . S
C140 C139 1.391 . S
C140 C141 1.391 . S
C141 C140 1.391 . S
C141 C142 1.392 . S
C141 H170 0.947 . S
C142 C141 1.392 . S
C142 C143 1.419 . S
C142 H171 0.948 . S
C143 C142 1.419 . S
C143 C144 1.391 . S
C143 C147 1.397 . S
C144 C139 1.391 . S
C144 C143 1.391 . S
C144 C145 1.399 . S
C145 C144 1.399 . S
C145 C146 1.396 . S
C145 C148 1.453 . S
C145 C149 1.684 . S
C146 C127 1.723 . S
C146 C145 1.396 . S
C146 C147 1.394 . S
C147 C143 1.397 . S
C147 C146 1.394 . S
C147 C157 1.723 . S
C148 C145 1.453 . S
C148 H172 0.982 . S
C148 H173 0.979 . S
C148 H174 0.977 . S
C149 C145 1.684 . S
C149 H175 0.979 . S
C149 H176 0.980 . S
C149 H177 0.983 . S
C150 H126 0.948 . S
C150 C151 1.391 . S
C150 C155 1.391 . S
C151 C150 1.391 . S
C151 C152 1.391 . S
C152 H129 0.947 . S
C152 C151 1.391 . S
C152 C153 1.392 . S
C153 H130 0.948 . S
C153 C152 1.392 . S
C153 C154 1.419 . S
C154 C153 1.419 . S
C154 C155 1.391 . S
C154 C158 1.397 . S
C155 C150 1.391 . S
C155 C154 1.391 . S
C155 C156 1.399 . S
C156 C155 1.399 . S
C156 C157 1.396 . S
C156 C159 1.453 . S
C156 C160 1.684 . S
C157 C147 1.723 . S
C157 C156 1.396 . S
C157 C158 1.394 . S
C158 C128 1.723 . S
C158 C154 1.397 . S
C158 C157 1.394 . S
C159 H131 0.982 . S
C159 H135 0.979 . S
C159 H136 0.977 . S
C159 C156 1.453 . S
C160 H132 0.979 . S
C160 H133 0.980 . S
C160 H134 0.983 . S
C160 C156 1.684 . S
H161 C179 0.948 . S
H162 C120 0.948 . S
H163 C138 0.979 . S
H164 C138 0.980 . S
H165 C138 0.983 . S
H166 C137 0.982 . S
H167 C137 0.979 . S
H168 C137 0.977 . S
H169 C139 0.948 . S
H170 C141 0.947 . S
H171 C142 0.948 . S
H172 C148 0.982 . S
H173 C148 0.979 . S
H174 C148 0.977 . S
H175 C149 0.979 . S
H176 C149 0.980 . S
H177 C149 0.983 . S
H178 C122 0.947 . S
C179 C122 1.392 . S
C179 C123 1.419 . S
C179 H161 0.948 . S
C180 C181 1.391 . S
C180 C184 1.391 . S
C180 H222 0.948 . S
C181 C180 1.391 . S
C181 C182 1.391 . S
C182 C181 1.391 . S
C182 H238 0.947 . S
C182 C239 1.392 . S
C183 C184 1.391 . S
C183 C187 1.397 . S
C183 C239 1.419 . S
C184 C180 1.391 . S
C184 C183 1.391 . S
C184 C185 1.399 . S
C185 C184 1.399 . S
C185 C188 1.396 . S
C185 C197 1.453 . S
C185 C198 1.684 . S
H186 C210 0.948 . S
C187 C183 1.397 . S
C187 C188 1.394 . S
C187 C206 1.723 . S
C188 C185 1.396 . S
C188 C187 1.394 . S
C188 C218 1.723 . S
H189 C212 0.947 . S
H190 C213 0.948 . S
H191 C219 0.982 . S
H192 C220 0.979 . S
H193 C220 0.980 . S
H194 C220 0.983 . S
H195 C219 0.979 . S
H196 C219 0.977 . S
C197 C185 1.453 . S
C197 H226 0.982 . S
C197 H227 0.979 . S
C197 H228 0.977 . S
C198 C185 1.684 . S
C198 H223 0.979 . S
C198 H224 0.980 . S
C198 H225 0.983 . S
C199 C200 1.391 . S
C199 C204 1.391 . S
C199 H229 0.948 . S
C200 C199 1.391 . S
C200 C201 1.391 . S
C201 C200 1.391 . S
C201 C202 1.392 . S
C201 H230 0.947 . S
C202 C201 1.392 . S
C202 C203 1.419 . S
C202 H231 0.948 . S
C203 C202 1.419 . S
C203 C204 1.391 . S
C203 C207 1.397 . S
C204 C199 1.391 . S
C204 C203 1.391 . S
C204 C205 1.399 . S
C205 C204 1.399 . S
C205 C206 1.396 . S
C205 C208 1.453 . S
C205 C209 1.684 . S
C206 C187 1.723 . S
C206 C205 1.396 . S
C206 C207 1.394 . S
C207 C203 1.397 . S
C207 C206 1.394 . S
C207 C217 1.723 . S
C208 C205 1.453 . S
C208 H232 0.982 . S
C208 H233 0.979 . S
C208 H234 0.977 . S
C209 C205 1.684 . S
C209 H235 0.979 . S
C209 H236 0.980 . S
C209 H237 0.983 . S
C210 H186 0.948 . S
C210 C211 1.391 . S
C210 C215 1.391 . S
C211 C210 1.391 . S
C211 C212 1.391 . S
C212 H189 0.947 . S
C212 C211 1.391 . S
C212 C213 1.392 . S
C213 H190 0.948 . S
C213 C212 1.392 . S
C213 C214 1.419 . S
C214 C213 1.419 . S
C214 C215 1.391 . S
C214 C218 1.397 . S
C215 C210 1.391 . S
C215 C214 1.391 . S
C215 C216 1.399 . S
C216 C215 1.399 . S
C216 C217 1.396 . S
C216 C219 1.453 . S
C216 C220 1.684 . S
C217 C207 1.723 . S
C217 C216 1.396 . S
C217 C218 1.394 . S
C218 C188 1.723 . S
C218 C214 1.397 . S
C218 C217 1.394 . S
C219 H191 0.982 . S
C219 H195 0.979 . S
C219 H196 0.977 . S
C219 C216 1.453 . S
C220 H192 0.979 . S
C220 H193 0.980 . S
C220 H194 0.983 . S
C220 C216 1.684 . S
H221 C239 0.948 . S
H222 C180 0.948 . S
H223 C198 0.979 . S
H224 C198 0.980 . S
H225 C198 0.983 . S
H226 C197 0.982 . S
H227 C197 0.979 . S
H228 C197 0.977 . S
H229 C199 0.948 . S
H230 C201 0.947 . S
H231 C202 0.948 . S
H232 C208 0.982 . S
H233 C208 0.979 . S
H234 C208 0.977 . S
H235 C209 0.979 . S
H236 C209 0.980 . S
H237 C209 0.983 . S
H238 C182 0.947 . S
C239 C182 1.392 . S
C239 C183 1.419 . S
C239 H221 0.948 . S
C240 C241 1.391 . S
C240 C244 1.391 . S
C240 H282 0.948 . S
C241 C240 1.391 . S
C241 C242 1.391 . S
C242 C241 1.391 . S
C242 H298 0.947 . S
C242 C299 1.392 . S
C243 C244 1.391 . S
C243 C247 1.397 . S
C243 C299 1.419 . S
C244 C240 1.391 . S
C244 C243 1.391 . S
C244 C245 1.399 . S
C245 C244 1.399 . S
C245 C248 1.396 . S
C245 C257 1.453 . S
C245 C258 1.684 . S
H246 C270 0.948 . S
C247 C243 1.397 . S
C247 C248 1.394 . S
C247 C266 1.723 . S
C248 C245 1.396 . S
C248 C247 1.394 . S
C248 C278 1.723 . S
H249 C272 0.947 . S
H250 C273 0.948 . S
H251 C279 0.982 . S
H252 C280 0.979 . S
H253 C280 0.980 . S
H254 C280 0.983 . S
H255 C279 0.979 . S
H256 C279 0.977 . S
C257 C245 1.453 . S
C257 H286 0.982 . S
C257 H287 0.979 . S
C257 H288 0.977 . S
C258 C245 1.684 . S
C258 H283 0.979 . S
C258 H284 0.980 . S
C258 H285 0.983 . S
C259 C260 1.391 . S
C259 C264 1.391 . S
C259 H289 0.948 . S
C260 C259 1.391 . S
C260 C261 1.391 . S
C261 C260 1.391 . S
C261 C262 1.392 . S
C261 H290 0.947 . S
C262 C261 1.392 . S
C262 C263 1.419 . S
C262 H291 0.948 . S
C263 C262 1.419 . S
C263 C264 1.391 . S
C263 C267 1.397 . S
C264 C259 1.391 . S
C264 C263 1.391 . S
C264 C265 1.399 . S
C265 C264 1.399 . S
C265 C266 1.396 . S
C265 C268 1.453 . S
C265 C269 1.684 . S
C266 C247 1.723 . S
C266 C265 1.396 . S
C266 C267 1.394 . S
C267 C263 1.397 . S
C267 C266 1.394 . S
C267 C277 1.723 . S
C268 C265 1.453 . S
C268 H292 0.982 . S
C268 H293 0.979 . S
C268 H294 0.977 . S
C269 C265 1.684 . S
C269 H295 0.979 . S
C269 H296 0.980 . S
C269 H297 0.983 . S
C270 H246 0.948 . S
C270 C271 1.391 . S
C270 C275 1.391 . S
C271 C270 1.391 . S
C271 C272 1.391 . S
C272 H249 0.947 . S
C272 C271 1.391 . S
C272 C273 1.392 . S
C273 H250 0.948 . S
C273 C272 1.392 . S
C273 C274 1.419 . S
C274 C273 1.419 . S
C274 C275 1.391 . S
C274 C278 1.397 . S
C275 C270 1.391 . S
C275 C274 1.391 . S
C275 C276 1.399 . S
C276 C275 1.399 . S
C276 C277 1.396 . S
C276 C279 1.453 . S
C276 C280 1.684 . S
C277 C267 1.723 . S
C277 C276 1.396 . S
C277 C278 1.394 . S
C278 C248 1.723 . S
C278 C274 1.397 . S
C278 C277 1.394 . S
C279 H251 0.982 . S
C279 H255 0.979 . S
C279 H256 0.977 . S
C279 C276 1.453 . S
C280 H252 0.979 . S
C280 H253 0.980 . S
C280 H254 0.983 . S
C280 C276 1.684 . S
H281 C299 0.948 . S
H282 C240 0.948 . S
H283 C258 0.979 . S
H284 C258 0.980 . S
H285 C258 0.983 . S
H286 C257 0.982 . S
H287 C257 0.979 . S
H288 C257 0.977 . S
H289 C259 0.948 . S
H290 C261 0.947 . S
H291 C262 0.948 . S
H292 C268 0.982 . S
H293 C268 0.979 . S
H294 C268 0.977 . S
H295 C269 0.979 . S
H296 C269 0.980 . S
H297 C269 0.983 . S
H298 C242 0.947 . S
C299 C242 1.392 . S
C299 C243 1.419 . S
C299 H281 0.948 . S
C300 C301 1.391 . S
C300 C304 1.391 . S
C300 H342 0.948 . S
C301 C300 1.391 . S
C301 C302 1.391 . S
C302 C301 1.391 . S
C302 H358 0.947 . S
C302 C359 1.392 . S
C303 C304 1.391 . S
C303 C307 1.397 . S
C303 C359 1.419 . S
C304 C300 1.391 . S
C304 C303 1.391 . S
C304 C305 1.399 . S
C305 C304 1.399 . S
C305 C308 1.396 . S
C305 C317 1.453 . S
C305 C318 1.684 . S
H306 C330 0.948 . S
C307 C303 1.397 . S
C307 C308 1.394 . S
C307 C326 1.723 . S
C308 C305 1.396 . S
C308 C307 1.394 . S
C308 C338 1.723 . S
H309 C332 0.947 . S
H310 C333 0.948 . S
H311 C339 0.982 . S
H312 C340 0.979 . S
H313 C340 0.980 . S
H314 C340 0.983 . S
H315 C339 0.979 . S
H316 C339 0.977 . S
C317 C305 1.453 . S
C317 H346 0.982 . S
C317 H347 0.979 . S
C317 H348 0.977 . S
C318 C305 1.684 . S
C318 H343 0.979 . S
C318 H344 0.980 . S
C318 H345 0.983 . S
C319 C320 1.391 . S
C319 C324 1.391 . S
C319 H349 0.948 . S
C320 C319 1.391 . S
C320 C321 1.391 . S
C321 C320 1.391 . S
C321 C322 1.392 . S
C321 H350 0.947 . S
C322 C321 1.392 . S
C322 C323 1.419 . S
C322 H351 0.948 . S
C323 C322 1.419 . S
C323 C324 1.391 . S
C323 C327 1.397 . S
C324 C319 1.391 . S
C324 C323 1.391 . S
C324 C325 1.399 . S
C325 C324 1.399 . S
C325 C326 1.396 . S
C325 C328 1.453 . S
C325 C329 1.684 . S
C326 C307 1.723 . S
C326 C325 1.396 . S
C326 C327 1.394 . S
C327 C323 1.397 . S
C327 C326 1.394 . S
C327 C337 1.723 . S
C328 C325 1.453 . S
C328 H352 0.982 . S
C328 H353 0.979 . S
C328 H354 0.977 . S
C329 C325 1.684 . S
C329 H355 0.979 . S
C329 H356 0.980 . S
C329 H357 0.983 . S
C330 H306 0.948 . S
C330 C331 1.391 . S
C330 C335 1.391 . S
C331 C330 1.391 . S
C331 C332 1.391 . S
C332 H309 0.947 . S
C332 C331 1.391 . S
C332 C333 1.392 . S
C333 H310 0.948 . S
C333 C332 1.392 . S
C333 C334 1.419 . S
C334 C333 1.419 . S
C334 C335 1.391 . S
C334 C338 1.397 . S
C335 C330 1.391 . S
C335 C334 1.391 . S
C335 C336 1.399 . S
C336 C335 1.399 . S
C336 C337 1.396 . S
C336 C339 1.453 . S
C336 C340 1.684 . S
C337 C327 1.723 . S
C337 C336 1.396 . S
C337 C338 1.394 . S
C338 C308 1.723 . S
C338 C334 1.397 . S
C338 C337 1.394 . S
C339 H311 0.982 . S
C339 H315 0.979 . S
C339 H316 0.977 . S
C339 C336 1.453 . S
C340 H312 0.979 . S
C340 H313 0.980 . S
C340 H314 0.983 . S
C340 C336 1.684 . S
H341 C359 0.948 . S
H342 C300 0.948 . S
H343 C318 0.979 . S
H344 C318 0.980 . S
H345 C318 0.983 . S
H346 C317 0.982 . S
H347 C317 0.979 . S
H348 C317 0.977 . S
H349 C319 0.948 . S
H350 C321 0.947 . S
H351 C322 0.948 . S
H352 C328 0.982 . S
H353 C328 0.979 . S
H354 C328 0.977 . S
H355 C329 0.979 . S
H356 C329 0.980 . S
H357 C329 0.983 . S
H358 C302 0.947 . S
C359 C302 1.392 . S
C359 C303 1.419 . S
C359 H341 0.948 . S
C360 C361 1.391 . S
C360 C364 1.391 . S
C360 H402 0.948 . S
C361 C360 1.391 . S
C361 C362 1.391 . S
C362 C361 1.391 . S
C362 H418 0.947 . S
C362 C419 1.392 . S
C363 C364 1.391 . S
C363 C367 1.397 . S
C363 C419 1.419 . S
C364 C360 1.391 . S
C364 C363 1.391 . S
C364 C365 1.399 . S
C365 C364 1.399 . S
C365 C368 1.396 . S
C365 C377 1.453 . S
C365 C378 1.684 . S
H366 C390 0.948 . S
C367 C363 1.397 . S
C367 C368 1.394 . S
C367 C386 1.723 . S
C368 C365 1.396 . S
C368 C367 1.394 . S
C368 C398 1.723 . S
H369 C392 0.947 . S
H370 C393 0.948 . S
H371 C399 0.982 . S
H372 C400 0.979 . S
H373 C400 0.980 . S
H374 C400 0.983 . S
H375 C399 0.979 . S
H376 C399 0.977 . S
C377 C365 1.453 . S
C377 H406 0.982 . S
C377 H407 0.979 . S
C377 H408 0.977 . S
C378 C365 1.684 . S
C378 H403 0.979 . S
C378 H404 0.980 . S
C378 H405 0.983 . S
C379 C380 1.391 . S
C379 C384 1.391 . S
C379 H409 0.948 . S
C380 C379 1.391 . S
C380 C381 1.391 . S
C381 C380 1.391 . S
C381 C382 1.392 . S
C381 H410 0.947 . S
C382 C381 1.392 . S
C382 C383 1.419 . S
C382 H411 0.948 . S
C383 C382 1.419 . S
C383 C384 1.391 . S
C383 C387 1.397 . S
C384 C379 1.391 . S
C384 C383 1.391 . S
C384 C385 1.399 . S
C385 C384 1.399 . S
C385 C386 1.396 . S
C385 C388 1.453 . S
C385 C389 1.684 . S
C386 C367 1.723 . S
C386 C385 1.396 . S
C386 C387 1.394 . S
C387 C383 1.397 . S
C387 C386 1.394 . S
C387 C397 1.723 . S
C388 C385 1.453 . S
C388 H412 0.982 . S
C388 H413 0.979 . S
C388 H414 0.977 . S
C389 C385 1.684 . S
C389 H415 0.979 . S
C389 H416 0.980 . S
C389 H417 0.983 . S
C390 H366 0.948 . S
C390 C391 1.391 . S
C390 C395 1.391 . S
C391 C390 1.391 . S
C391 C392 1.391 . S
C392 H369 0.947 . S
C392 C391 1.391 . S
C392 C393 1.392 . S
C393 H370 0.948 . S
C393 C392 1.392 . S
C393 C394 1.419 . S
C394 C393 1.419 . S
C394 C395 1.391 . S
C394 C398 1.397 . S
C395 C390 1.391 . S
C395 C394 1.391 . S
C395 C396 1.399 . S
C396 C395 1.399 . S
C396 C397 1.396 . S
C396 C399 1.453 . S
C396 C400 1.684 . S
C397 C387 1.723 . S
C397 C396 1.396 . S
C397 C398 1.394 . S
C398 C368 1.723 . S
C398 C394 1.397 . S
C398 C397 1.394 . S
C399 H371 0.982 . S
C399 H375 0.979 . S
C399 H376 0.977 . S
C399 C396 1.453 . S
C400 H372 0.979 . S
C400 H373 0.980 . S
C400 H374 0.983 . S
C400 C396 1.684 . S
H401 C419 0.948 . S
H402 C360 0.948 . S
H403 C378 0.979 . S
H404 C378 0.980 . S
H405 C378 0.983 . S
H406 C377 0.982 . S
H407 C377 0.979 . S
H408 C377 0.977 . S
H409 C379 0.948 . S
H410 C381 0.947 . S
H411 C382 0.948 . S
H412 C388 0.982 . S
H413 C388 0.979 . S
H414 C388 0.977 . S
H415 C389 0.979 . S
H416 C389 0.980 . S
H417 C389 0.983 . S
H418 C362 0.947 . S
C419 C362 1.392 . S
C419 C363 1.419 . S
C419 H401 0.948 . S
C420 C421 1.391 . S
C420 C424 1.391 . S
C420 H462 0.948 . S
C421 C420 1.391 . S
C421 C422 1.391 . S
C422 C421 1.391 . S
C422 H478 0.947 . S
C422 C479 1.392 . S
C423 C424 1.391 . S
C423 C427 1.397 . S
C423 C479 1.419 . S
C424 C420 1.391 . S
C424 C423 1.391 . S
C424 C425 1.399 . S
C425 C424 1.399 . S
C425 C428 1.396 . S
C425 C437 1.453 . S
C425 C438 1.684 . S
H426 C450 0.948 . S
C427 C423 1.397 . S
C427 C428 1.394 . S
C427 C446 1.723 . S
C428 C425 1.396 . S
C428 C427 1.394 . S
C428 C458 1.723 . S
H429 C452 0.947 . S
H430 C453 0.948 . S
H431 C459 0.982 . S
H432 C460 0.979 . S
H433 C460 0.980 . S
H434 C460 0.983 . S
H435 C459 0.979 . S
H436 C459 0.977 . S
C437 C425 1.453 . S
C437 H466 0.982 . S
C437 H467 0.979 . S
C437 H468 0.977 . S
C438 C425 1.684 . S
C438 H463 0.979 . S
C438 H464 0.980 . S
C438 H465 0.983 . S
C439 C440 1.391 . S
C439 C444 1.391 . S
C439 H469 0.948 . S
C440 C439 1.391 . S
C440 C441 1.391 . S
C441 C440 1.391 . S
C441 C442 1.392 . S
C441 H470 0.947 . S
C442 C441 1.392 . S
C442 C443 1.419 . S
C442 H471 0.948 . S
C443 C442 1.419 . S
C443 C444 1.391 . S
C443 C447 1.397 . S
C444 C439 1.391 . S
C444 C443 1.391 . S
C444 C445 1.399 . S
C445 C444 1.399 . S
C445 C446 1.396 . S
C445 C448 1.453 . S
C445 C449 1.684 . S
C446 C427 1.723 . S
C446 C445 1.396 . S
C446 C447 1.394 . S
C447 C443 1.397 . S
C447 C446 1.394 . S
C447 C457 1.723 . S
C448 C445 1.453 . S
C448 H472 0.982 . S
C448 H473 0.979 . S
C448 H474 0.977 . S
C449 C445 1.684 . S
C449 H475 0.979 . S
C449 H476 0.980 . S
C449 H477 0.983 . S
C450 H426 0.948 . S
C450 C451 1.391 . S
C450 C455 1.391 . S
C451 C450 1.391 . S
C451 C452 1.391 . S
C452 H429 0.947 . S
C452 C451 1.391 . S
C452 C453 1.392 . S
C453 H430 0.948 . S
C453 C452 1.392 . S
C453 C454 1.419 . S
C454 C453 1.419 . S
C454 C455 1.391 . S
C454 C458 1.397 . S
C455 C450 1.391 . S
C455 C454 1.391 . S
C455 C456 1.399 . S
C456 C455 1.399 . S
C456 C457 1.396 . S
C456 C459 1.453 . S
C456 C460 1.684 . S
C457 C447 1.723 . S
C457 C456 1.396 . S
C457 C458 1.394 . S
C458 C428 1.723 . S
C458 C454 1.397 . S
C458 C457 1.394 . S
C459 H431 0.982 . S
C459 H435 0.979 . S
C459 H436 0.977 . S
C459 C456 1.453 . S
C460 H432 0.979 . S
C460 H433 0.980 . S
C460 H434 0.983 . S
C460 C456 1.684 . S
H461 C479 0.948 . S
H462 C420 0.948 . S
H463 C438 0.979 . S
H464 C438 0.980 . S
H465 C438 0.983 . S
H466 C437 0.982 . S
H467 C437 0.979 . S
H468 C437 0.977 . S
H469 C439 0.948 . S
H470 C441 0.947 . S
H471 C442 0.948 . S
H472 C448 0.982 . S
H473 C448 0.979 . S
H474 C448 0.977 . S
H475 C449 0.979 . S
H476 C449 0.980 . S
H477 C449 0.983 . S
H478 C422 0.947 . S
C479 C422 1.392 . S
C479 C423 1.419 . S
C479 H461 0.948 . S
Ho480 C483 2.811 . S
Ho480 O500 2.322 . S
Ho480 O502 2.378 . S
Ho480 O503 2.524 . S
Ho480 O504 2.381 1_545 S
Ho480 O505 2.669 1_545 S
Ho480 O507 2.346 1_445 S
Ho480 O511 2.305 1_455 S
Ho481 C492 2.811 . S
Ho481 O501 2.346 1_665 S
Ho481 O505 2.305 1_655 S
Ho481 O506 2.322 . S
Ho481 O508 2.378 . S
Ho481 O509 2.524 . S
Ho481 O510 2.381 1_565 S
Ho481 O511 2.669 1_565 S
C482 O500 1.259 . S
C482 O501 1.268 . S
C483 Ho480 2.811 . S
C483 C484 1.488 . S
C483 O502 1.215 . S
C483 O503 1.289 . S
C484 C483 1.488 . S
C484 C485 1.348 . S
C484 C489 1.413 . S
C485 C484 1.348 . S
C485 C486 1.442 . S
C485 H512 0.930 . S
C486 C485 1.442 . S
C486 C487 1.381 . S
C486 H513 0.931 . S
C487 C486 1.381 . S
C487 C488 1.321 . S
C488 C487 1.321 . S
C488 C489 1.403 . S
C488 H514 0.934 . S
C489 C484 1.413 . S
C489 C488 1.403 . S
C489 H515 0.930 . S
C490 O504 1.275 . S
C490 O505 1.256 . S
C491 O506 1.259 . S
C491 O507 1.268 . S
C492 Ho481 2.811 . S
C492 C493 1.488 . S
C492 O508 1.215 . S
C492 O509 1.289 . S
C493 C492 1.488 . S
C493 C494 1.348 . S
C493 C498 1.413 . S
C494 C493 1.348 . S
C494 C495 1.442 . S
C494 H516 0.930 . S
C495 C494 1.442 . S
C495 C496 1.381 . S
C495 H517 0.931 . S
C496 C495 1.381 . S
C496 C497 1.321 . S
C497 C496 1.321 . S
C497 C498 1.403 . S
C497 H518 0.934 . S
C498 C493 1.413 . S
C498 C497 1.403 . S
C498 H519 0.930 . S
C499 O510 1.275 . S
C499 O511 1.256 . S
O500 Ho480 2.322 . S
O500 C482 1.259 . S
O501 Ho481 2.346 1_445 S
O501 C482 1.268 . S
O502 Ho480 2.378 . S
O502 C483 1.215 . S
O503 Ho480 2.524 . S
O503 C483 1.289 . S
O504 Ho480 2.381 1_565 S
O504 C490 1.275 . S
O505 Ho480 2.669 1_565 S
O505 Ho481 2.305 1_455 S
O505 C490 1.256 . S
O506 Ho481 2.322 . S
O506 C491 1.259 . S
O507 Ho480 2.346 1_665 S
O507 C491 1.268 . S
O508 Ho481 2.378 . S
O508 C492 1.215 . S
O509 Ho481 2.524 . S
O509 C492 1.289 . S
O510 Ho481 2.381 1_545 S
O510 C499 1.275 . S
O511 Ho480 2.305 1_655 S
O511 Ho481 2.669 1_545 S
O511 C499 1.256 . S
H512 C485 0.930 . S
H513 C486 0.931 . S
H514 C488 0.934 . S
H515 C489 0.930 . S
H516 C494 0.930 . S
H517 C495 0.931 . S
H518 C497 0.934 . S
H519 C498 0.930 . S
Ho520 C523 2.811 1_565 S
Ho520 O540 2.322 1_565 S
Ho520 O542 2.378 1_565 S
Ho520 O543 2.524 1_565 S
Ho520 O544 2.381 . S
Ho520 O545 2.669 . S
Ho520 O547 2.346 1_554 S
Ho520 O551 2.305 1_564 S
Ho521 C532 2.811 1_545 S
Ho521 O541 2.346 1_556 S
Ho521 O545 2.305 1_546 S
Ho521 O546 2.322 1_545 S
Ho521 O548 2.378 1_545 S
Ho521 O549 2.524 1_545 S
Ho521 O550 2.381 . S
Ho521 O551 2.669 . S
C522 O540 1.259 . S
C522 O541 1.268 . S
C523 Ho520 2.811 1_545 S
C523 C524 1.488 . S
C523 O542 1.215 . S
C523 O543 1.289 . S
C524 C523 1.488 . S
C524 C525 1.348 . S
C524 C529 1.413 . S
C525 C524 1.348 . S
C525 C526 1.442 . S
C525 H552 0.930 . S
C526 C525 1.442 . S
C526 C527 1.381 . S
C526 H553 0.931 . S
C527 C526 1.381 . S
C527 C528 1.321 . S
C528 C527 1.321 . S
C528 C529 1.403 . S
C528 H554 0.934 . S
C529 C524 1.413 . S
C529 C528 1.403 . S
C529 H555 0.930 . S
C530 O544 1.275 . S
C530 O545 1.256 . S
C531 O546 1.259 . S
C531 O547 1.268 . S
C532 Ho521 2.811 1_565 S
C532 C533 1.488 . S
C532 O548 1.215 . S
C532 O549 1.289 . S
C533 C532 1.488 . S
C533 C534 1.348 . S
C533 C538 1.413 . S
C534 C533 1.348 . S
C534 C535 1.442 . S
C534 H556 0.930 . S
C535 C534 1.442 . S
C535 C536 1.381 . S
C535 H557 0.931 . S
C536 C535 1.381 . S
C536 C537 1.321 . S
C537 C536 1.321 . S
C537 C538 1.403 . S
C537 H558 0.934 . S
C538 C533 1.413 . S
C538 C537 1.403 . S
C538 H559 0.930 . S
C539 O550 1.275 . S
C539 O551 1.256 . S
O540 Ho520 2.322 1_545 S
O540 C522 1.259 . S
O541 Ho521 2.346 1_554 S
O541 C522 1.268 . S
O542 Ho520 2.378 1_545 S
O542 C523 1.215 . S
O543 Ho520 2.524 1_545 S
O543 C523 1.289 . S
O544 Ho520 2.381 . S
O544 C530 1.275 . S
O545 Ho520 2.669 . S
O545 Ho521 2.305 1_564 S
O545 C530 1.256 . S
O546 Ho521 2.322 1_565 S
O546 C531 1.259 . S
O547 Ho520 2.346 1_556 S
O547 C531 1.268 . S
O548 Ho521 2.378 1_565 S
O548 C532 1.215 . S
O549 Ho521 2.524 1_565 S
O549 C532 1.289 . S
O550 Ho521 2.381 . S
O550 C539 1.275 . S
O551 Ho520 2.305 1_546 S
O551 Ho521 2.669 . S
O551 C539 1.256 . S
H552 C525 0.930 . S
H553 C526 0.931 . S
H554 C528 0.934 . S
H555 C529 0.930 . S
H556 C534 0.930 . S
H557 C535 0.931 . S
H558 C537 0.934 . S
H559 C538 0.930 . S
Ho560 C563 2.811 . S
Ho560 O580 2.322 . S
Ho560 O582 2.378 . S
Ho560 O583 2.524 . S
Ho560 O584 2.381 . S
Ho560 O585 2.669 . S
Ho560 O587 2.346 . S
Ho560 O591 2.305 . S
Ho561 C572 2.811 . S
Ho561 O581 2.346 . S
Ho561 O585 2.305 . S
Ho561 O586 2.322 . S
Ho561 O588 2.378 . S
Ho561 O589 2.524 . S
Ho561 O590 2.381 . S
Ho561 O591 2.669 . S
C562 O580 1.259 . S
C562 O581 1.268 . S
C563 Ho560 2.811 . S
C563 C564 1.488 . S
C563 O582 1.215 . S
C563 O583 1.289 . S
C564 C563 1.488 . S
C564 C565 1.348 . S
C564 C569 1.413 . S
C565 C564 1.348 . S
C565 C566 1.442 . S
C565 H592 0.930 . S
C566 C565 1.442 . S
C566 C567 1.381 . S
C566 H593 0.931 . S
C567 C566 1.381 . S
C567 C568 1.321 . S
C568 C567 1.321 . S
C568 C569 1.403 . S
C568 H594 0.934 . S
C569 C564 1.413 . S
C569 C568 1.403 . S
C569 H595 0.930 . S
C570 O584 1.275 . S
C570 O585 1.256 . S
C571 O586 1.259 . S
C571 O587 1.268 . S
C572 Ho561 2.811 . S
C572 C573 1.488 . S
C572 O588 1.215 . S
C572 O589 1.289 . S
C573 C572 1.488 . S
C573 C574 1.348 . S
C573 C578 1.413 . S
C574 C573 1.348 . S
C574 C575 1.442 . S
C574 H596 0.930 . S
C575 C574 1.442 . S
C575 C576 1.381 . S
C575 H597 0.931 . S
C576 C575 1.381 . S
C576 C577 1.321 . S
C577 C576 1.321 . S
C577 C578 1.403 . S
C577 H598 0.934 . S
C578 C573 1.413 . S
C578 C577 1.403 . S
C578 H599 0.930 . S
C579 O590 1.275 . S
C579 O591 1.256 . S
O580 Ho560 2.322 . S
O580 C562 1.259 . S
O581 Ho561 2.346 . S
O581 C562 1.268 . S
O582 Ho560 2.378 . S
O582 C563 1.215 . S
O583 Ho560 2.524 . S
O583 C563 1.289 . S
O584 Ho560 2.381 . S
O584 C570 1.275 . S
O585 Ho560 2.669 . S
O585 Ho561 2.305 . S
O585 C570 1.256 . S
O586 Ho561 2.322 . S
O586 C571 1.259 . S
O587 Ho560 2.346 . S
O587 C571 1.268 . S
O588 Ho561 2.378 . S
O588 C572 1.215 . S
O589 Ho561 2.524 . S
O589 C572 1.289 . S
O590 Ho561 2.381 . S
O590 C579 1.275 . S
O591 Ho560 2.305 . S
O591 Ho561 2.669 . S
O591 C579 1.256 . S
H592 C565 0.930 . S
H593 C566 0.931 . S
H594 C568 0.934 . S
H595 C569 0.930 . S
H596 C574 0.930 . S
H597 C575 0.931 . S
H598 C577 0.934 . S
H599 C578 0.930 . S
Ho600 C603 2.811 . S
Ho600 O620 2.322 . S
Ho600 O622 2.378 . S
Ho600 O623 2.524 . S
Ho600 O624 2.381 1_455 S
Ho600 O625 2.669 1_455 S
Ho600 O627 2.346 1_454 S
Ho600 O631 2.305 1_554 S
Ho601 C612 2.811 . S
Ho601 O621 2.346 1_656 S
Ho601 O625 2.305 1_556 S
Ho601 O626 2.322 . S
Ho601 O628 2.378 . S
Ho601 O629 2.524 . S
Ho601 O630 2.381 1_655 S
Ho601 O631 2.669 1_655 S
C602 O620 1.259 . S
C602 O621 1.268 . S
C603 Ho600 2.811 . S
C603 C604 1.488 . S
C603 O622 1.215 . S
C603 O623 1.289 . S
C604 C603 1.488 . S
C604 C605 1.348 . S
C604 C609 1.413 . S
C605 C604 1.348 . S
C605 C606 1.442 . S
C605 H632 0.930 . S
C606 C605 1.442 . S
C606 C607 1.381 . S
C606 H633 0.931 . S
C607 C606 1.381 . S
C607 C608 1.321 . S
C608 C607 1.321 . S
C608 C609 1.403 . S
C608 H634 0.934 . S
C609 C604 1.413 . S
C609 C608 1.403 . S
C609 H635 0.930 . S
C610 O624 1.275 . S
C610 O625 1.256 . S
C611 O626 1.259 . S
C611 O627 1.268 . S
C612 Ho601 2.811 . S
C612 C613 1.488 . S
C612 O628 1.215 . S
C612 O629 1.289 . S
C613 C612 1.488 . S
C613 C614 1.348 . S
C613 C618 1.413 . S
C614 C613 1.348 . S
C614 C615 1.442 . S
C614 H636 0.930 . S
C615 C614 1.442 . S
C615 C616 1.381 . S
C615 H637 0.931 . S
C616 C615 1.381 . S
C616 C617 1.321 . S
C617 C616 1.321 . S
C617 C618 1.403 . S
C617 H638 0.934 . S
C618 C613 1.413 . S
C618 C617 1.403 . S
C618 H639 0.930 . S
C619 O630 1.275 . S
C619 O631 1.256 . S
O620 Ho600 2.322 . S
O620 C602 1.259 . S
O621 Ho601 2.346 1_454 S
O621 C602 1.268 . S
O622 Ho600 2.378 . S
O622 C603 1.215 . S
O623 Ho600 2.524 . S
O623 C603 1.289 . S
O624 Ho600 2.381 1_655 S
O624 C610 1.275 . S
O625 Ho600 2.669 1_655 S
O625 Ho601 2.305 1_554 S
O625 C610 1.256 . S
O626 Ho601 2.322 . S
O626 C611 1.259 . S
O627 Ho600 2.346 1_656 S
O627 C611 1.268 . S
O628 Ho601 2.378 . S
O628 C612 1.215 . S
O629 Ho601 2.524 . S
O629 C612 1.289 . S
O630 Ho601 2.381 1_455 S
O630 C619 1.275 . S
O631 Ho600 2.305 1_556 S
O631 Ho601 2.669 1_455 S
O631 C619 1.256 . S
H632 C605 0.930 . S
H633 C606 0.931 . S
H634 C608 0.934 . S
H635 C609 0.930 . S
H636 C614 0.930 . S
H637 C615 0.931 . S
H638 C617 0.934 . S
H639 C618 0.930 . S
H640 C646 0.930 . S
H641 C650 0.930 . S
H642 C655 0.929 . S
H643 C653 0.929 . S
H644 C648 0.929 . S
H645 C654 0.929 . S
C646 H640 0.930 . S
C646 C647 1.367 . S
C646 C654 1.378 . S
C647 C646 1.367 . S
C647 C655 1.433 . S
C648 H644 0.929 . S
C648 C650 1.378 . S
C648 C652 1.350 . S
C649 C652 1.463 . S
C649 C654 1.350 . S
C649 N657 1.427 . S
C650 H641 0.930 . S
C650 C648 1.378 . S
C650 C651 1.367 . S
C651 C650 1.367 . S
C651 C653 1.433 . S
C652 C648 1.350 . S
C652 C649 1.463 . S
C652 N656 1.427 . S
C653 H643 0.929 . S
C653 C651 1.433 . S
C653 N656 1.384 . S
C654 H645 0.929 . S
C654 C646 1.378 . S
C654 C649 1.350 . S
C655 H642 0.929 . S
C655 C647 1.433 . S
C655 N657 1.384 . S
N656 C652 1.427 . S
N656 C653 1.384 . S
N657 C649 1.427 . S
N657 C655 1.384 . S
H658 C664 0.930 . S
H659 C668 0.930 . S
H660 C673 0.929 . S
H661 C671 0.929 . S
H662 C666 0.929 . S
H663 C672 0.929 . S
C664 H658 0.930 . S
C664 C665 1.367 . S
C664 C672 1.378 . S
C665 C664 1.367 . S
C665 C673 1.433 . S
C666 H662 0.929 . S
C666 C668 1.378 . S
C666 C670 1.350 . S
C667 C670 1.463 . S
C667 C672 1.350 . S
C667 N675 1.427 . S
C668 H659 0.930 . S
C668 C666 1.378 . S
C668 C669 1.367 . S
C669 C668 1.367 . S
C669 C671 1.433 . S
C670 C666 1.350 . S
C670 C667 1.463 . S
C670 N674 1.427 . S
C671 H661 0.929 . S
C671 C669 1.433 . S
C671 N674 1.384 . S
C672 H663 0.929 . S
C672 C664 1.378 . S
C672 C667 1.350 . S
C673 H660 0.929 . S
C673 C665 1.433 . S
C673 N675 1.384 . S
N674 C670 1.427 . S
N674 C671 1.384 . S
N675 C667 1.427 . S
N675 C673 1.384 . S
H676 C682 0.930 . S
H677 C686 0.930 . S
H678 C691 0.929 . S
H679 C689 0.929 . S
H680 C684 0.929 . S
H681 C690 0.929 . S
C682 H676 0.930 . S
C682 C683 1.367 . S
C682 C690 1.378 . S
C683 C682 1.367 . S
C683 C691 1.433 . S
C684 H680 0.929 . S
C684 C686 1.378 . S
C684 C688 1.350 . S
C685 C688 1.463 . S
C685 C690 1.350 . S
C685 N693 1.427 . S
C686 H677 0.930 . S
C686 C684 1.378 . S
C686 C687 1.367 . S
C687 C686 1.367 . S
C687 C689 1.433 . S
C688 C684 1.350 . S
C688 C685 1.463 . S
C688 N692 1.427 . S
C689 H679 0.929 . S
C689 C687 1.433 . S
C689 N692 1.384 . S
C690 H681 0.929 . S
C690 C682 1.378 . S
C690 C685 1.350 . S
C691 H678 0.929 . S
C691 C683 1.433 . S
C691 N693 1.384 . S
N692 C688 1.427 . S
N692 C689 1.384 . S
N693 C685 1.427 . S
N693 C691 1.384 . S
H694 C700 0.930 . S
H695 C704 0.930 . S
H696 C709 0.929 . S
H697 C707 0.929 . S
H698 C702 0.929 . S
H699 C708 0.929 . S
C700 H694 0.930 . S
C700 C701 1.367 . S
C700 C708 1.378 . S
C701 C700 1.367 . S
C701 C709 1.433 . S
C702 H698 0.929 . S
C702 C704 1.378 . S
C702 C706 1.350 . S
C703 C706 1.463 . S
C703 C708 1.350 . S
C703 N711 1.427 . S
C704 H695 0.930 . S
C704 C702 1.378 . S
C704 C705 1.367 . S
C705 C704 1.367 . S
C705 C707 1.433 . S
C706 C702 1.350 . S
C706 C703 1.463 . S
C706 N710 1.427 . S
C707 H697 0.929 . S
C707 C705 1.433 . S
C707 N710 1.384 . S
C708 H699 0.929 . S
C708 C700 1.378 . S
C708 C703 1.350 . S
C709 H696 0.929 . S
C709 C701 1.433 . S
C709 N711 1.384 . S
N710 C706 1.427 . S
N710 C707 1.384 . S
N711 C703 1.427 . S
N711 C709 1.384 . S
H712 C718 0.930 . S
H713 C722 0.930 . S
H714 C727 0.929 . S
H715 C725 0.929 . S
H716 C720 0.929 . S
H717 C726 0.929 . S
C718 H712 0.930 . S
C718 C719 1.367 . S
C718 C726 1.378 . S
C719 C718 1.367 . S
C719 C727 1.433 . S
C720 H716 0.929 . S
C720 C722 1.378 . S
C720 C724 1.350 . S
C721 C724 1.463 . S
C721 C726 1.350 . S
C721 N729 1.427 . S
C722 H713 0.930 . S
C722 C720 1.378 . S
C722 C723 1.367 . S
C723 C722 1.367 . S
C723 C725 1.433 . S
C724 C720 1.350 . S
C724 C721 1.463 . S
C724 N728 1.427 . S
C725 H715 0.929 . S
C725 C723 1.433 . S
C725 N728 1.384 . S
C726 H717 0.929 . S
C726 C718 1.378 . S
C726 C721 1.350 . S
C727 H714 0.929 . S
C727 C719 1.433 . S
C727 N729 1.384 . S
N728 C724 1.427 . S
N728 C725 1.384 . S
N729 C721 1.427 . S
N729 C727 1.384 . S
H730 C736 0.930 . S
H731 C740 0.930 . S
H732 C745 0.929 . S
H733 C743 0.929 . S
H734 C738 0.929 . S
H735 C744 0.929 . S
C736 H730 0.930 . S
C736 C737 1.367 . S
C736 C744 1.378 . S
C737 C736 1.367 . S
C737 C745 1.433 . S
C738 H734 0.929 . S
C738 C740 1.378 . S
C738 C742 1.350 . S
C739 C742 1.463 . S
C739 C744 1.350 . S
C739 N747 1.427 . S
C740 H731 0.930 . S
C740 C738 1.378 . S
C740 C741 1.367 . S
C741 C740 1.367 . S
C741 C743 1.433 . S
C742 C738 1.350 . S
C742 C739 1.463 . S
C742 N746 1.427 . S
C743 H733 0.929 . S
C743 C741 1.433 . S
C743 N746 1.384 . S
C744 H735 0.929 . S
C744 C736 1.378 . S
C744 C739 1.350 . S
C745 H732 0.929 . S
C745 C737 1.433 . S
C745 N747 1.384 . S
N746 C742 1.427 . S
N746 C743 1.384 . S
N747 C739 1.427 . S
N747 C745 1.384 . S
H748 C754 0.930 . S
H749 C758 0.930 . S
H750 C763 0.929 . S
H751 C761 0.929 . S
H752 C756 0.929 . S
H753 C762 0.929 . S
C754 H748 0.930 . S
C754 C755 1.367 . S
C754 C762 1.378 . S
C755 C754 1.367 . S
C755 C763 1.433 . S
C756 H752 0.929 . S
C756 C758 1.378 . S
C756 C760 1.350 . S
C757 C760 1.463 . S
C757 C762 1.350 . S
C757 N765 1.427 . S
C758 H749 0.930 . S
C758 C756 1.378 . S
C758 C759 1.367 . S
C759 C758 1.367 . S
C759 C761 1.433 . S
C760 C756 1.350 . S
C760 C757 1.463 . S
C760 N764 1.427 . S
C761 H751 0.929 . S
C761 C759 1.433 . S
C761 N764 1.384 . S
C762 H753 0.929 . S
C762 C754 1.378 . S
C762 C757 1.350 . S
C763 H750 0.929 . S
C763 C755 1.433 . S
C763 N765 1.384 . S
N764 C760 1.427 . S
N764 C761 1.384 . S
N765 C757 1.427 . S
N765 C763 1.384 . S
H766 C772 0.930 . S
H767 C776 0.930 . S
H768 C781 0.929 . S
H769 C779 0.929 . S
H770 C774 0.929 . S
H771 C780 0.929 . S
C772 H766 0.930 . S
C772 C773 1.367 . S
C772 C780 1.378 . S
C773 C772 1.367 . S
C773 C781 1.433 . S
C774 H770 0.929 . S
C774 C776 1.378 . S
C774 C778 1.350 . S
C775 C778 1.463 . S
C775 C780 1.350 . S
C775 N783 1.427 . S
C776 H767 0.930 . S
C776 C774 1.378 . S
C776 C777 1.367 . S
C777 C776 1.367 . S
C777 C779 1.433 . S
C778 C774 1.350 . S
C778 C775 1.463 . S
C778 N782 1.427 . S
C779 H769 0.929 . S
C779 C777 1.433 . S
C779 N782 1.384 . S
C780 H771 0.929 . S
C780 C772 1.378 . S
C780 C775 1.350 . S
C781 H768 0.929 . S
C781 C773 1.433 . S
C781 N783 1.384 . S
N782 C778 1.427 . S
N782 C779 1.384 . S
N783 C775 1.427 . S
N783 C781 1.384 . S
H784 C790 0.930 . S
H785 C794 0.930 . S
H786 C799 0.929 . S
H787 C797 0.929 . S
H788 C792 0.929 . S
H789 C798 0.929 . S
C790 H784 0.930 . S
C790 C791 1.367 . S
C790 C798 1.378 . S
C791 C790 1.367 . S
C791 C799 1.433 . S
C792 H788 0.929 . S
C792 C794 1.378 . S
C792 C796 1.350 . S
C793 C796 1.463 . S
C793 C798 1.350 . S
C793 N801 1.427 . S
C794 H785 0.930 . S
C794 C792 1.378 . S
C794 C795 1.367 . S
C795 C794 1.367 . S
C795 C797 1.433 . S
C796 C792 1.350 . S
C796 C793 1.463 . S
C796 N800 1.427 . S
C797 H787 0.929 . S
C797 C795 1.433 . S
C797 N800 1.384 . S
C798 H789 0.929 . S
C798 C790 1.378 . S
C798 C793 1.350 . S
C799 H786 0.929 . S
C799 C791 1.433 . S
C799 N801 1.384 . S
N800 C796 1.427 . S
N800 C797 1.384 . S
N801 C793 1.427 . S
N801 C799 1.384 . S
H802 C808 0.930 . S
H803 C812 0.930 . S
H804 C817 0.929 . S
H805 C815 0.929 . S
H806 C810 0.929 . S
H807 C816 0.929 . S
C808 H802 0.930 . S
C808 C809 1.367 . S
C808 C816 1.378 . S
C809 C808 1.367 . S
C809 C817 1.433 . S
C810 H806 0.929 . S
C810 C812 1.378 . S
C810 C814 1.350 . S
C811 C814 1.463 . S
C811 C816 1.350 . S
C811 N819 1.427 . S
C812 H803 0.930 . S
C812 C810 1.378 . S
C812 C813 1.367 . S
C813 C812 1.367 . S
C813 C815 1.433 . S
C814 C810 1.350 . S
C814 C811 1.463 . S
C814 N818 1.427 . S
C815 H805 0.929 . S
C815 C813 1.433 . S
C815 N818 1.384 . S
C816 H807 0.929 . S
C816 C808 1.378 . S
C816 C811 1.350 . S
C817 H804 0.929 . S
C817 C809 1.433 . S
C817 N819 1.384 . S
N818 C814 1.427 . S
N818 C815 1.384 . S
N819 C811 1.427 . S
N819 C817 1.384 . S
H820 C826 0.930 . S
H821 C830 0.930 . S
H822 C835 0.929 . S
H823 C833 0.929 . S
H824 C828 0.929 . S
H825 C834 0.929 . S
C826 H820 0.930 . S
C826 C827 1.367 . S
C826 C834 1.378 . S
C827 C826 1.367 . S
C827 C835 1.433 . S
C828 H824 0.929 . S
C828 C830 1.378 . S
C828 C832 1.350 . S
C829 C832 1.463 . S
C829 C834 1.350 . S
C829 N837 1.427 . S
C830 H821 0.930 . S
C830 C828 1.378 . S
C830 C831 1.367 . S
C831 C830 1.367 . S
C831 C833 1.433 . S
C832 C828 1.350 . S
C832 C829 1.463 . S
C832 N836 1.427 . S
C833 H823 0.929 . S
C833 C831 1.433 . S
C833 N836 1.384 . S
C834 H825 0.929 . S
C834 C826 1.378 . S
C834 C829 1.350 . S
C835 H822 0.929 . S
C835 C827 1.433 . S
C835 N837 1.384 . S
N836 C832 1.427 . S
N836 C833 1.384 . S
N837 C829 1.427 . S
N837 C835 1.384 . S
H838 C844 0.930 . S
H839 C848 0.930 . S
H840 C853 0.929 . S
H841 C851 0.929 . S
H842 C846 0.929 . S
H843 C852 0.929 . S
C844 H838 0.930 . S
C844 C845 1.367 . S
C844 C852 1.378 . S
C845 C844 1.367 . S
C845 C853 1.433 . S
C846 H842 0.929 . S
C846 C848 1.378 . S
C846 C850 1.350 . S
C847 C850 1.463 . S
C847 C852 1.350 . S
C847 N855 1.427 . S
C848 H839 0.930 . S
C848 C846 1.378 . S
C848 C849 1.367 . S
C849 C848 1.367 . S
C849 C851 1.433 . S
C850 C846 1.350 . S
C850 C847 1.463 . S
C850 N854 1.427 . S
C851 H841 0.929 . S
C851 C849 1.433 . S
C851 N854 1.384 . S
C852 H843 0.929 . S
C852 C844 1.378 . S
C852 C847 1.350 . S
C853 H840 0.929 . S
C853 C845 1.433 . S
C853 N855 1.384 . S
N854 C850 1.427 . S
N854 C851 1.384 . S
N855 C847 1.427 . S
N855 C853 1.384 . S
H856 C862 0.930 . S
H857 C866 0.930 . S
H858 C871 0.929 . S
H859 C869 0.929 . S
H860 C864 0.929 . S
H861 C870 0.929 . S
C862 H856 0.930 . S
C862 C863 1.367 . S
C862 C870 1.378 . S
C863 C862 1.367 . S
C863 C871 1.433 . S
C864 H860 0.929 . S
C864 C866 1.378 . S
C864 C868 1.350 . S
C865 C868 1.463 . S
C865 C870 1.350 . S
C865 N873 1.427 . S
C866 H857 0.930 . S
C866 C864 1.378 . S
C866 C867 1.367 . S
C867 C866 1.367 . S
C867 C869 1.433 . S
C868 C864 1.350 . S
C868 C865 1.463 . S
C868 N872 1.427 . S
C869 H859 0.929 . S
C869 C867 1.433 . S
C869 N872 1.384 . S
C870 H861 0.929 . S
C870 C862 1.378 . S
C870 C865 1.350 . S
C871 H858 0.929 . S
C871 C863 1.433 . S
C871 N873 1.384 . S
N872 C868 1.427 . S
N872 C869 1.384 . S
N873 C865 1.427 . S
N873 C871 1.384 . S
H874 C880 0.930 . S
H875 C884 0.930 . S
H876 C889 0.929 . S
H877 C887 0.929 . S
H878 C882 0.929 . S
H879 C888 0.929 . S
C880 H874 0.930 . S
C880 C881 1.367 . S
C880 C888 1.378 . S
C881 C880 1.367 . S
C881 C889 1.433 . S
C882 H878 0.929 . S
C882 C884 1.378 . S
C882 C886 1.350 . S
C883 C886 1.463 . S
C883 C888 1.350 . S
C883 N891 1.427 . S
C884 H875 0.930 . S
C884 C882 1.378 . S
C884 C885 1.367 . S
C885 C884 1.367 . S
C885 C887 1.433 . S
C886 C882 1.350 . S
C886 C883 1.463 . S
C886 N890 1.427 . S
C887 H877 0.929 . S
C887 C885 1.433 . S
C887 N890 1.384 . S
C888 H879 0.929 . S
C888 C880 1.378 . S
C888 C883 1.350 . S
C889 H876 0.929 . S
C889 C881 1.433 . S
C889 N891 1.384 . S
N890 C886 1.427 . S
N890 C887 1.384 . S
N891 C883 1.427 . S
N891 C889 1.384 . S
H892 C898 0.930 . S
H893 C902 0.930 . S
H894 C907 0.929 . S
H895 C905 0.929 . S
H896 C900 0.929 . S
H897 C906 0.929 . S
C898 H892 0.930 . S
C898 C899 1.367 . S
C898 C906 1.378 . S
C899 C898 1.367 . S
C899 C907 1.433 . S
C900 H896 0.929 . S
C900 C902 1.378 . S
C900 C904 1.350 . S
C901 C904 1.463 . S
C901 C906 1.350 . S
C901 N909 1.427 . S
C902 H893 0.930 . S
C902 C900 1.378 . S
C902 C903 1.367 . S
C903 C902 1.367 . S
C903 C905 1.433 . S
C904 C900 1.350 . S
C904 C901 1.463 . S
C904 N908 1.427 . S
C905 H895 0.929 . S
C905 C903 1.433 . S
C905 N908 1.384 . S
C906 H897 0.929 . S
C906 C898 1.378 . S
C906 C901 1.350 . S
C907 H894 0.929 . S
C907 C899 1.433 . S
C907 N909 1.384 . S
N908 C904 1.427 . S
N908 C905 1.384 . S
N909 C901 1.427 . S
N909 C907 1.384 . S
H910 C916 0.930 . S
H911 C920 0.930 . S
H912 C925 0.929 . S
H913 C923 0.929 . S
H914 C918 0.929 . S
H915 C924 0.929 . S
C916 H910 0.930 . S
C916 C917 1.367 . S
C916 C924 1.378 . S
C917 C916 1.367 . S
C917 C925 1.433 . S
C918 H914 0.929 . S
C918 C920 1.378 . S
C918 C922 1.350 . S
C919 C922 1.463 . S
C919 C924 1.350 . S
C919 N927 1.427 . S
C920 H911 0.930 . S
C920 C918 1.378 . S
C920 C921 1.367 . S
C921 C920 1.367 . S
C921 C923 1.433 . S
C922 C918 1.350 . S
C922 C919 1.463 . S
C922 N926 1.427 . S
C923 H913 0.929 . S
C923 C921 1.433 . S
C923 N926 1.384 . S
C924 H915 0.929 . S
C924 C916 1.378 . S
C924 C919 1.350 . S
C925 H912 0.929 . S
C925 C917 1.433 . S
C925 N927 1.384 . S
N926 C922 1.427 . S
N926 C923 1.384 . S
N927 C919 1.427 . S
N927 C925 1.384 . S
H928 C934 0.930 . S
H929 C938 0.930 . S
H930 C943 0.929 . S
H931 C941 0.929 . S
H932 C936 0.929 . S
H933 C942 0.929 . S
C934 H928 0.930 . S
C934 C935 1.367 . S
C934 C942 1.378 . S
C935 C934 1.367 . S
C935 C943 1.433 . S
C936 H932 0.929 . S
C936 C938 1.378 . S
C936 C940 1.350 . S
C937 C940 1.463 . S
C937 C942 1.350 . S
C937 N945 1.427 . S
C938 H929 0.930 . S
C938 C936 1.378 . S
C938 C939 1.367 . S
C939 C938 1.367 . S
C939 C941 1.433 . S
C940 C936 1.350 . S
C940 C937 1.463 . S
C940 N944 1.427 . S
C941 H931 0.929 . S
C941 C939 1.433 . S
C941 N944 1.384 . S
C942 H933 0.929 . S
C942 C934 1.378 . S
C942 C937 1.350 . S
C943 H930 0.929 . S
C943 C935 1.433 . S
C943 N945 1.384 . S
N944 C940 1.427 . S
N944 C941 1.384 . S
N945 C937 1.427 . S
N945 C943 1.384 . S
H946 C952 0.930 . S
H947 C956 0.930 . S
H948 C961 0.929 . S
H949 C959 0.929 . S
H950 C954 0.929 . S
H951 C960 0.929 . S
C952 H946 0.930 . S
C952 C953 1.367 . S
C952 C960 1.378 . S
C953 C952 1.367 . S
C953 C961 1.433 . S
C954 H950 0.929 . S
C954 C956 1.378 . S
C954 C958 1.350 . S
C955 C958 1.463 . S
C955 C960 1.350 . S
C955 N963 1.427 . S
C956 H947 0.930 . S
C956 C954 1.378 . S
C956 C957 1.367 . S
C957 C956 1.367 . S
C957 C959 1.433 . S
C958 C954 1.350 . S
C958 C955 1.463 . S
C958 N962 1.427 . S
C959 H949 0.929 . S
C959 C957 1.433 . S
C959 N962 1.384 . S
C960 H951 0.929 . S
C960 C952 1.378 . S
C960 C955 1.350 . S
C961 H948 0.929 . S
C961 C953 1.433 . S
C961 N963 1.384 . S
N962 C958 1.427 . S
N962 C959 1.384 . S
N963 C955 1.427 . S
N963 C961 1.384 . S
H964 C970 0.930 . S
H965 C974 0.930 . S
H966 C979 0.929 . S
H967 C977 0.929 . S
H968 C972 0.929 . S
H969 C978 0.929 . S
C970 H964 0.930 . S
C970 C971 1.367 . S
C970 C978 1.378 . S
C971 C970 1.367 . S
C971 C979 1.433 . S
C972 H968 0.929 . S
C972 C974 1.378 . S
C972 C976 1.350 . S
C973 C976 1.463 . S
C973 C978 1.350 . S
C973 N981 1.427 . S
C974 H965 0.930 . S
C974 C972 1.378 . S
C974 C975 1.367 . S
C975 C974 1.367 . S
C975 C977 1.433 . S
C976 C972 1.350 . S
C976 C973 1.463 . S
C976 N980 1.427 . S
C977 H967 0.929 . S
C977 C975 1.433 . S
C977 N980 1.384 . S
C978 H969 0.929 . S
C978 C970 1.378 . S
C978 C973 1.350 . S
C979 H966 0.929 . S
C979 C971 1.433 . S
C979 N981 1.384 . S
N980 C976 1.427 . S
N980 C977 1.384 . S
N981 C973 1.427 . S
N981 C979 1.384 . S
H982 C988 0.930 . S
H983 C992 0.930 . S
H984 C997 0.929 . S
H985 C995 0.929 . S
H986 C990 0.929 . S
H987 C996 0.929 . S
C988 H982 0.930 . S
C988 C989 1.367 . S
C988 C996 1.378 . S
C989 C988 1.367 . S
C989 C997 1.433 . S
C990 H986 0.929 . S
C990 C992 1.378 . S
C990 C994 1.350 . S
C991 C994 1.463 . S
C991 C996 1.350 . S
C991 N999 1.427 . S
C992 H983 0.930 . S
C992 C990 1.378 . S
C992 C993 1.367 . S
C993 C992 1.367 . S
C993 C995 1.433 . S
C994 C990 1.350 . S
C994 C991 1.463 . S
C994 N998 1.427 . S
C995 H985 0.929 . S
C995 C993 1.433 . S
C995 N998 1.384 . S
C996 H987 0.929 . S
C996 C988 1.378 . S
C996 C991 1.350 . S
C997 H984 0.929 . S
C997 C989 1.433 . S
C997 N999 1.384 . S
N998 C994 1.427 . S
N998 C995 1.384 . S
N999 C991 1.427 . S
N999 C997 1.384 . S
H1000 C1006 0.930 . S
H1001 C1010 0.930 . S
H1002 C1015 0.929 . S
H1003 C1013 0.929 . S
H1004 C1008 0.929 . S
H1005 C1014 0.929 . S
C1006 H1000 0.930 . S
C1006 C1007 1.367 . S
C1006 C1014 1.378 . S
C1007 C1006 1.367 . S
C1007 C1015 1.433 . S
C1008 H1004 0.929 . S
C1008 C1010 1.378 . S
C1008 C1012 1.350 . S
C1009 C1012 1.463 . S
C1009 C1014 1.350 . S
C1009 N1017 1.427 . S
C1010 H1001 0.930 . S
C1010 C1008 1.378 . S
C1010 C1011 1.367 . S
C1011 C1010 1.367 . S
C1011 C1013 1.433 . S
C1012 C1008 1.350 . S
C1012 C1009 1.463 . S
C1012 N1016 1.427 . S
C1013 H1003 0.929 . S
C1013 C1011 1.433 . S
C1013 N1016 1.384 . S
C1014 H1005 0.929 . S
C1014 C1006 1.378 . S
C1014 C1009 1.350 . S
C1015 H1002 0.929 . S
C1015 C1007 1.433 . S
C1015 N1017 1.384 . S
N1016 C1012 1.427 . S
N1016 C1013 1.384 . S
N1017 C1009 1.427 . S
N1017 C1015 1.384 . S
H1018 C1024 0.930 . S
H1019 C1028 0.930 . S
H1020 C1033 0.929 . S
H1021 C1031 0.929 . S
H1022 C1026 0.929 . S
H1023 C1032 0.929 . S
C1024 H1018 0.930 . S
C1024 C1025 1.367 . S
C1024 C1032 1.378 . S
C1025 C1024 1.367 . S
C1025 C1033 1.433 . S
C1026 H1022 0.929 . S
C1026 C1028 1.378 . S
C1026 C1030 1.350 . S
C1027 C1030 1.463 . S
C1027 C1032 1.350 . S
C1027 N1035 1.427 . S
C1028 H1019 0.930 . S
C1028 C1026 1.378 . S
C1028 C1029 1.367 . S
C1029 C1028 1.367 . S
C1029 C1031 1.433 . S
C1030 C1026 1.350 . S
C1030 C1027 1.463 . S
C1030 N1034 1.427 . S
C1031 H1021 0.929 . S
C1031 C1029 1.433 . S
C1031 N1034 1.384 . S
C1032 H1023 0.929 . S
C1032 C1024 1.378 . S
C1032 C1027 1.350 . S
C1033 H1020 0.929 . S
C1033 C1025 1.433 . S
C1033 N1035 1.384 . S
N1034 C1030 1.427 . S
N1034 C1031 1.384 . S
N1035 C1027 1.427 . S
N1035 C1033 1.384 . S
H1036 C1042 0.930 . S
H1037 C1046 0.930 . S
H1038 C1051 0.929 . S
H1039 C1049 0.929 . S
H1040 C1044 0.929 . S
H1041 C1050 0.929 . S
C1042 H1036 0.930 . S
C1042 C1043 1.367 . S
C1042 C1050 1.378 . S
C1043 C1042 1.367 . S
C1043 C1051 1.433 . S
C1044 H1040 0.929 . S
C1044 C1046 1.378 . S
C1044 C1048 1.350 . S
C1045 C1048 1.463 . S
C1045 C1050 1.350 . S
C1045 N1053 1.427 . S
C1046 H1037 0.930 . S
C1046 C1044 1.378 . S
C1046 C1047 1.367 . S
C1047 C1046 1.367 . S
C1047 C1049 1.433 . S
C1048 C1044 1.350 . S
C1048 C1045 1.463 . S
C1048 N1052 1.427 . S
C1049 H1039 0.929 . S
C1049 C1047 1.433 . S
C1049 N1052 1.384 . S
C1050 H1041 0.929 . S
C1050 C1042 1.378 . S
C1050 C1045 1.350 . S
C1051 H1038 0.929 . S
C1051 C1043 1.433 . S
C1051 N1053 1.384 . S
N1052 C1048 1.427 . S
N1052 C1049 1.384 . S
N1053 C1045 1.427 . S
N1053 C1051 1.384 . S
H1054 C1060 0.930 . S
H1055 C1064 0.930 . S
H1056 C1069 0.929 . S
H1057 C1067 0.929 . S
H1058 C1062 0.929 . S
H1059 C1068 0.929 . S
C1060 H1054 0.930 . S
C1060 C1061 1.367 . S
C1060 C1068 1.378 . S
C1061 C1060 1.367 . S
C1061 C1069 1.433 . S
C1062 H1058 0.929 . S
C1062 C1064 1.378 . S
C1062 C1066 1.350 . S
C1063 C1066 1.463 . S
C1063 C1068 1.350 . S
C1063 N1071 1.427 . S
C1064 H1055 0.930 . S
C1064 C1062 1.378 . S
C1064 C1065 1.367 . S
C1065 C1064 1.367 . S
C1065 C1067 1.433 . S
C1066 C1062 1.350 . S
C1066 C1063 1.463 . S
C1066 N1070 1.427 . S
C1067 H1057 0.929 . S
C1067 C1065 1.433 . S
C1067 N1070 1.384 . S
C1068 H1059 0.929 . S
C1068 C1060 1.378 . S
C1068 C1063 1.350 . S
C1069 H1056 0.929 . S
C1069 C1061 1.433 . S
C1069 N1071 1.384 . S
N1070 C1066 1.427 . S
N1070 C1067 1.384 . S
N1071 C1063 1.427 . S
N1071 C1069 1.384 . S
C647 C1 1.181 . S
C651 C487 1.291 . S
C665 C80 0.942 . S
C669 C536 0.971 . S
C687 C562 2.468 . S
C683 C140 2.463 . S
C701 C211 2.354 . S
C705 C610 2.338 . S
C723 C522 2.508 . S
C719 C31 2.255 . S
C741 C490 0.855 . S
C737 C61 0.845 . S
C759 C611 1.899 . S
C755 C151 1.910 . S
C777 C579 1.601 . S
C773 C200 1.599 . S
C791 C20 1.653 . S
C795 C607 1.752 . S
C813 C539 2.328 . S
C809 C121 2.392 . S
C827 C181 2.300 . S
C831 C491 2.337 . S
C845 C91 0.859 . S
C849 C576 0.861 . S
C867 C496 1.284 . S
C863 C260 1.217 . S
C881 C320 0.936 . S
C885 C527 0.970 . S
C899 C361 2.463 . S
C903 C571 2.466 . S
C917 C451 2.353 . S
C921 C619 2.334 . S
C935 C271 2.326 . S
C939 C531 2.508 . S
C957 C499 0.863 . S
C953 C301 0.854 . S
C975 C602 1.899 . S
C971 C380 1.895 . S
C993 C570 1.600 . S
C989 C440 1.600 . S
C1007 C241 1.574 . S
C1011 C616 1.754 . S
C1029 C530 2.335 . S
C1025 C391 2.386 . S
C1047 C482 2.336 . S
C1043 C421 2.298 . S
C1061 C331 0.866 . S
C1065 C567 0.860 . S
