# Generated by pormake.
# Topology hwx, (6,3)-cn, num edge types: 1
# Building blocks:
#     Node 0, Type 0, BuildingBlock: OJICUG_clean_sbu_0, # of connection points: 6
#     Node 1, Type 0, BuildingBlock: OJICUG_clean_sbu_0, # of connection points: 6
#     Node 2, Type 0, BuildingBlock: OJICUG_clean_sbu_0, # of connection points: 6
#     Node 3, Type 0, BuildingBlock: OJICUG_clean_sbu_0, # of connection points: 6
#     Node 4, Type 1, BuildingBlock: MIDCAF_clean_linker_0, # of connection points: 3
#     Node 5, Type 1, BuildingBlock: MIDCAF_clean_linker_0, # of connection points: 3
#     Node 6, Type 1, BuildingBlock: MIDCAF_clean_linker_0, # of connection points: 3
#     Node 7, Type 1, BuildingBlock: MIDCAF_clean_linker_0, # of connection points: 3
#     Node 8, Type 1, BuildingBlock: MIDCAF_clean_linker_0, # of connection points: 3
#     Node 9, Type 1, BuildingBlock: MIDCAF_clean_linker_0, # of connection points: 3
#     Node 10, Type 1, BuildingBlock: MIDCAF_clean_linker_0, # of connection points: 3
#     Node 11, Type 1, BuildingBlock: MIDCAF_clean_linker_0, # of connection points: 3
#     Edge 12, Type (0, 1), BuildingBlock: KIFKEQ_clean_linker_1, # of connection points: 2
#     Edge 13, Type (0, 1), BuildingBlock: KIFKEQ_clean_linker_1, # of connection points: 2
#     Edge 14, Type (0, 1), BuildingBlock: KIFKEQ_clean_linker_1, # of connection points: 2
#     Edge 15, Type (0, 1), BuildingBlock: KIFKEQ_clean_linker_1, # of connection points: 2
#     Edge 16, Type (0, 1), BuildingBlock: KIFKEQ_clean_linker_1, # of connection points: 2
#     Edge 17, Type (0, 1), BuildingBlock: KIFKEQ_clean_linker_1, # of connection points: 2
#     Edge 18, Type (0, 1), BuildingBlock: KIFKEQ_clean_linker_1, # of connection points: 2
#     Edge 19, Type (0, 1), BuildingBlock: KIFKEQ_clean_linker_1, # of connection points: 2
#     Edge 20, Type (0, 1), BuildingBlock: KIFKEQ_clean_linker_1, # of connection points: 2
#     Edge 21, Type (0, 1), BuildingBlock: KIFKEQ_clean_linker_1, # of connection points: 2
#     Edge 22, Type (0, 1), BuildingBlock: KIFKEQ_clean_linker_1, # of connection points: 2
#     Edge 23, Type (0, 1), BuildingBlock: KIFKEQ_clean_linker_1, # of connection points: 2
#     Edge 24, Type (0, 1), BuildingBlock: KIFKEQ_clean_linker_1, # of connection points: 2
#     Edge 25, Type (0, 1), BuildingBlock: KIFKEQ_clean_linker_1, # of connection points: 2
#     Edge 26, Type (0, 1), BuildingBlock: KIFKEQ_clean_linker_1, # of connection points: 2
#     Edge 27, Type (0, 1), BuildingBlock: KIFKEQ_clean_linker_1, # of connection points: 2
#     Edge 28, Type (0, 1), BuildingBlock: KIFKEQ_clean_linker_1, # of connection points: 2
#     Edge 29, Type (0, 1), BuildingBlock: KIFKEQ_clean_linker_1, # of connection points: 2
#     Edge 30, Type (0, 1), BuildingBlock: KIFKEQ_clean_linker_1, # of connection points: 2
#     Edge 31, Type (0, 1), BuildingBlock: KIFKEQ_clean_linker_1, # of connection points: 2
#     Edge 32, Type (0, 1), BuildingBlock: KIFKEQ_clean_linker_1, # of connection points: 2
#     Edge 33, Type (0, 1), BuildingBlock: KIFKEQ_clean_linker_1, # of connection points: 2
#     Edge 34, Type (0, 1), BuildingBlock: KIFKEQ_clean_linker_1, # of connection points: 2
#     Edge 35, Type (0, 1), BuildingBlock: KIFKEQ_clean_linker_1, # of connection points: 2
# Relax obj value: 0.078
# Max RMSD: 0.103
# Mean RMSD: 0.095
data_MOF--net-hwx--node1-OJICUG_clean_sbu_0--node2-MIDCAF_clean_linker_0--edge1-KIFKEQ_clean_linker_1
_symmetry_space_group_name_H-M    P1
_symmetry_Int_Tables_number       1
_symmetry_cell_setting            triclinic
loop_
_symmetry_equiv_pos_as_xyz
'x, y, z'
_cell_length_a     61.760213
_cell_length_b     61.732881
_cell_length_c     27.928493
_cell_angle_alpha  89.915245
_cell_angle_beta   90.145324
_cell_angle_gamma 90.03207
loop_
_atom_site_label
_atom_site_type_symbol
_atom_site_fract_x
_atom_site_fract_y
_atom_site_fract_z
_atom_type_partial_charge
Sc0 Sc 0.21585 0.21917 0.05909 0.0
Sc1 Sc 0.18101 0.18281 -7e-05 0.0
Sc2 Sc 0.21805 0.21478 0.93458 0.0
O3 O 0.20492 0.20553 0.99783 0.0
C4 C 0.21524 0.2597 0.98741 0.0
C5 C 0.16511 0.21815 0.07571 0.0
C6 C 0.16803 0.20915 0.90671 0.0
C7 C 0.20842 0.17006 0.09175 0.0
C8 C 0.25962 0.21357 0.0031 0.0
C9 C 0.21401 0.16383 0.92224 0.0
O10 O 0.21769 0.25101 0.02832 0.0
O11 O 0.16192 0.2012 0.05069 0.0
O12 O 0.18737 0.21502 0.89838 0.0
O13 O 0.21532 0.18922 0.09802 0.0
O14 O 0.25053 0.2159 0.96256 0.0
O15 O 0.19759 0.16209 0.94951 0.0
O16 O 0.24914 0.21255 0.04213 0.0
O17 O 0.19664 0.16471 0.05634 0.0
O18 O 0.22375 0.18168 0.91492 0.0
O19 O 0.18355 0.22702 0.08051 0.0
O20 O 0.21351 0.24872 0.94914 0.0
O21 O 0.16274 0.19829 0.94357 0.0
Sc22 Sc 0.27296 0.72097 0.42622 0.0
Sc23 Sc 0.30916 0.68643 0.48842 0.0
Sc24 Sc 0.27415 0.7213 0.55152 0.0
O25 O 0.28546 0.7095 0.48871 0.0
C26 C 0.27647 0.76413 0.48745 0.0
C27 C 0.32327 0.71679 0.4015 0.0
C28 C 0.32467 0.71772 0.57311 0.0
C29 C 0.27737 0.6705 0.40464 0.0
C30 C 0.23074 0.71765 0.49117 0.0
C31 C 0.27991 0.67106 0.57596 0.0
O32 O 0.27624 0.75421 0.44764 0.0
O33 O 0.32784 0.70342 0.43474 0.0
O34 O 0.30604 0.72593 0.57926 0.0
O35 O 0.26869 0.68895 0.39841 0.0
O36 O 0.24096 0.71746 0.53062 0.0
O37 O 0.29322 0.66696 0.54245 0.0
O38 O 0.24 0.7196 0.45086 0.0
O39 O 0.29249 0.66718 0.43488 0.0
O40 O 0.2722 0.68982 0.58313 0.0
O41 O 0.30423 0.72378 0.39412 0.0
O42 O 0.27512 0.75439 0.52743 0.0
O43 O 0.32839 0.70302 0.54224 0.0
Sc44 Sc 0.77405 0.77427 0.93993 0.0
Sc45 Sc 0.80961 0.80808 0.00528 0.0
Sc46 Sc 0.77349 0.77293 0.06519 0.0
O47 O 0.78578 0.78511 0.00344 0.0
C48 C 0.73084 0.77633 0.00148 0.0
C49 C 0.77841 0.82521 0.92219 0.0
C50 C 0.77853 0.82278 0.09076 0.0
C51 C 0.8242 0.77934 0.91596 0.0
C52 C 0.77726 0.73064 0.00061 0.0
C53 C 0.82418 0.77608 0.08866 0.0
O54 O 0.74087 0.77617 0.96192 0.0
O55 O 0.79262 0.8285 0.95452 0.0
O56 O 0.76932 0.8045 0.09497 0.0
O57 O 0.80555 0.77126 0.90951 0.0
O58 O 0.77633 0.74003 0.04101 0.0
O59 O 0.82874 0.78977 0.05608 0.0
O60 O 0.77641 0.74084 0.96107 0.0
O61 O 0.82828 0.79297 0.94889 0.0
O62 O 0.80503 0.76944 0.09643 0.0
O63 O 0.77071 0.80657 0.91301 0.0
O64 O 0.74045 0.77506 0.04158 0.0
O65 O 0.794 0.82629 0.06178 0.0
Sc66 Sc 0.71947 0.27428 0.5611 0.0
Sc67 Sc 0.68462 0.31071 0.50071 0.0
Sc68 Sc 0.71795 0.27461 0.43605 0.0
O69 O 0.70733 0.28661 0.49932 0.0
C70 C 0.7617 0.27754 0.49548 0.0
C71 C 0.71674 0.32472 0.58501 0.0
C72 C 0.71341 0.32513 0.41204 0.0
C73 C 0.66946 0.28015 0.58678 0.0
C74 C 0.71572 0.23152 0.49887 0.0
C75 C 0.66732 0.27918 0.41827 0.0
O76 O 0.7523 0.27554 0.5357 0.0
O77 O 0.7021 0.32915 0.55434 0.0
O78 O 0.71993 0.306 0.4039 0.0
O79 O 0.68809 0.27188 0.59295 0.0
O80 O 0.7172 0.2415 0.4593 0.0
O81 O 0.66464 0.29485 0.44727 0.0
O82 O 0.71573 0.2412 0.53891 0.0
O83 O 0.66554 0.29435 0.55481 0.0
O84 O 0.68547 0.27004 0.41142 0.0
O85 O 0.72438 0.3058 0.59058 0.0
O86 O 0.75146 0.27801 0.45594 0.0
O87 O 0.70103 0.3298 0.44685 0.0
C88 C 0.21783 0.56897 0.13066 0.0
C89 C 0.22672 0.55842 0.1707 0.0
C90 C 0.23141 0.5362 0.16788 0.0
C91 C 0.22773 0.52486 0.12527 0.0
H92 H 0.21467 0.46366 0.06683 0.0
H93 H 0.21356 0.42434 0.06263 0.0
H94 H 0.2146 0.42757 0.90817 0.0
H95 H 0.2154 0.46697 0.91203 0.0
H96 H 0.23272 0.51157 0.86501 0.0
H97 H 0.24328 0.5334 0.79593 0.0
H98 H 0.22691 0.59159 0.87359 0.0
H99 H 0.21689 0.56997 0.94273 0.0
H100 H 0.20824 0.56653 0.05728 0.0
H101 H 0.21427 0.58615 0.13173 0.0
H102 H 0.23822 0.52771 0.19836 0.0
H103 H 0.23198 0.50785 0.12369 0.0
N104 N 0.21674 0.50266 0.03543 0.0
N105 N 0.21868 0.50433 0.95158 0.0
N106 N 0.22012 0.5362 0.99683 0.0
C107 C 0.21666 0.49244 0.99231 0.0
C108 C 0.22038 0.52623 0.95357 0.0
C109 C 0.21834 0.52456 0.03787 0.0
C110 C 0.21524 0.46854 0.98978 0.0
C111 C 0.21458 0.45606 0.0319 0.0
C112 C 0.21406 0.4335 0.02955 0.0
C113 C 0.21414 0.4229 0.98508 0.0
C114 C 0.21437 0.43532 0.94294 0.0
C115 C 0.21495 0.45791 0.94524 0.0
C116 C 0.22425 0.53905 0.90965 0.0
C117 C 0.23116 0.52901 0.86714 0.0
C118 C 0.23718 0.5415 0.8275 0.0
C119 C 0.23631 0.56422 0.82963 0.0
C120 C 0.22834 0.57413 0.87128 0.0
C121 C 0.22247 0.56172 0.91086 0.0
C122 C 0.21974 0.53568 0.08457 0.0
C123 C 0.21452 0.55777 0.08795 0.0
C124 C 0.91838 0.72707 0.61909 0.0
C125 C 0.92893 0.7351 0.66004 0.0
C126 C 0.95167 0.73502 0.66157 0.0
C127 C 0.96359 0.72776 0.6222 0.0
H128 H 0.02594 0.72687 0.56265 0.0
H129 H 0.06526 0.72632 0.56221 0.0
H130 H 0.06414 0.68337 0.43988 0.0
H131 H 0.02476 0.68505 0.43883 0.0
H132 H 0.98369 0.71748 0.36576 0.0
H133 H 0.96405 0.72363 0.29081 0.0
H134 H 0.90398 0.7077 0.36138 0.0
H135 H 0.92344 0.70169 0.43618 0.0
H136 H 0.92151 0.71419 0.54862 0.0
H137 H 0.90088 0.72638 0.61726 0.0
H138 H 0.96025 0.74116 0.69257 0.0
H139 H 0.9811 0.72843 0.62397 0.0
N140 N 0.98718 0.71228 0.53905 0.0
N141 N 0.98808 0.70629 0.45607 0.0
N142 N 0.95504 0.71283 0.49437 0.0
C143 C -0.00142 0.70787 0.49871 0.0
C144 C 0.96628 0.70875 0.45369 0.0
C145 C 0.96534 0.7146 0.53719 0.0
C146 C 0.02234 0.70611 0.5006 0.0
C147 C 0.03413 0.71722 0.53587 0.0
C148 C 0.0567 0.71678 0.53575 0.0
C149 C 0.06798 0.70484 0.50091 0.0
C150 C 0.05607 0.69315 0.46658 0.0
C151 C 0.03349 0.69397 0.46612 0.0
C152 C 0.95507 0.70927 0.40695 0.0
C153 C 0.96635 0.71487 0.36503 0.0
C154 C 0.95514 0.71851 0.32222 0.0
C155 C 0.93254 0.71619 0.32044 0.0
C156 C 0.92144 0.70942 0.36166 0.0
C157 C 0.93257 0.70612 0.40456 0.0
C158 C 0.95297 0.72051 0.58054 0.0
C159 C 0.93024 0.71994 0.57979 0.0
C160 C 0.78151 0.41935 0.87105 0.0
C161 C 0.77189 0.42959 0.83138 0.0
C162 C 0.77024 0.4523 0.83096 0.0
C163 C 0.7768 0.46436 0.87085 0.0
H164 H 0.79529 0.52548 0.92129 0.0
H165 H 0.7957 0.56486 0.92041 0.0
H166 H 0.79188 0.56564 0.07481 0.0
H167 H 0.79183 0.52623 0.07606 0.0
H168 H 0.77476 0.48246 0.12854 0.0
H169 H 0.7618 0.46191 0.19782 0.0
H170 H 0.77708 0.40217 0.12518 0.0
H171 H 0.78972 0.42243 0.05618 0.0
H172 H 0.79442 0.4228 0.94161 0.0
H173 H 0.7836 0.40193 0.87188 0.0
H174 H 0.76291 0.46064 0.8009 0.0
H175 H 0.77437 0.48173 0.87052 0.0
N176 N 0.79065 0.48764 0.95712 0.0
N177 N 0.78969 0.48779 0.0412 0.0
N178 N 0.78661 0.45513 -0.00072 0.0
C179 C 0.79166 0.49873 -0.0009 0.0
C180 C 0.78728 0.46594 0.0415 0.0
C181 C 0.78826 0.46581 0.95702 0.0
C182 C 0.79335 0.52263 -0.00125 0.0
C183 C 0.79468 0.53398 0.95516 0.0
C184 C 0.79482 0.55657 0.95456 0.0
C185 C 0.79366 0.5683 0.9975 0.0
C186 C 0.79298 0.55701 0.04116 0.0
C187 C 0.79283 0.5344 0.0418 0.0
C188 C 0.78291 0.45407 0.0865 0.0
C189 C 0.7757 0.46495 0.12773 0.0
C190 C 0.76827 0.45322 0.1674 0.0
C191 C 0.76798 0.43047 0.16636 0.0
C192 C 0.77657 0.4197 0.12644 0.0
C193 C 0.78391 0.43134 0.08697 0.0
C194 C 0.78495 0.45386 0.91183 0.0
C195 C 0.78785 0.43132 0.91091 0.0
C196 C 0.07236 0.27836 0.35813 0.0
C197 C 0.06123 0.27702 0.3143 0.0
C198 C 0.03859 0.27947 0.31399 0.0
C199 C 0.02731 0.2826 0.35685 0.0
H200 H 0.9664 0.29061 0.41447 0.0
H201 H 0.92702 0.29114 0.41603 0.0
H202 H 0.9283 0.28712 0.57044 0.0
H203 H 0.96765 0.28617 0.56912 0.0
H204 H 0.01124 0.26795 0.61902 0.0
H205 H 0.03204 0.25465 0.68775 0.0
H206 H 0.09146 0.26654 0.61087 0.0
H207 H 0.07097 0.27951 0.54249 0.0
H208 H 0.07037 0.28194 0.43378 0.0
H209 H 0.08974 0.27618 0.35988 0.0
H210 H 0.02958 0.27872 0.28071 0.0
H211 H 0.00984 0.28394 0.35558 0.0
N212 N 0.00491 0.28683 0.44822 0.0
N213 N 0.00537 0.28265 0.53186 0.0
N214 N 0.03764 0.28081 0.4884 0.0
C215 C 0.99414 0.28624 0.49063 0.0
C216 C 0.02718 0.28001 0.53097 0.0
C217 C 0.02672 0.2842 0.44691 0.0
C218 C 0.97025 0.28816 0.49165 0.0
C219 C 0.95834 0.28997 0.44884 0.0
C220 C 0.93575 0.29039 0.44968 0.0
C221 C 0.92457 0.28903 0.49333 0.0
C222 C 0.93646 0.28783 0.53619 0.0
C223 C 0.95904 0.2874 0.53539 0.0
C224 C 0.03942 0.27449 0.57494 0.0
C225 C 0.02875 0.26795 0.61703 0.0
C226 C 0.04063 0.26035 0.6564 0.0
C227 C 0.06332 0.25917 0.65423 0.0
C228 C 0.07395 0.26674 0.61309 0.0
C229 C 0.06217 0.27428 0.57395 0.0
C230 C 0.03848 0.28323 0.40081 0.0
C231 C 0.06116 0.28148 0.40074 0.0
C232 C 0.73264 0.91775 0.39167 0.0
C233 C 0.73175 0.92699 0.3457 0.0
C234 C 0.7263 0.949 0.34108 0.0
C235 C 0.72193 0.9615 0.38166 0.0
H236 H 0.71251 0.02445 0.42681 0.0
H237 H 0.70963 0.06375 0.42189 0.0
H238 H 0.70653 0.06741 0.57619 0.0
H239 H 0.70899 0.02824 0.58133 0.0
H240 H 0.73047 0.98643 0.63966 0.0
H241 H 0.73673 0.96805 0.71628 0.0
H242 H 0.71507 0.90781 0.65411 0.0
H243 H 0.7091 0.92594 0.57766 0.0
H244 H 0.72929 0.92244 0.46684 0.0
H245 H 0.73718 0.90095 0.39663 0.0
H246 H 0.72527 0.95653 0.3061 0.0
H247 H 0.71786 0.97843 0.3769 0.0
N248 N 0.71614 0.98718 0.46781 0.0
N249 N 0.71469 0.98967 0.55158 0.0
N250 N 0.7198 0.95598 0.51498 0.0
C251 C 0.71378 -0.00061 0.50795 0.0
C252 C 0.71756 0.96798 0.5553 0.0
C253 C 0.71918 0.96544 0.47109 0.0
C254 C 0.71109 0.02314 0.50448 0.0
C255 C 0.71108 0.0336 0.45971 0.0
C256 C 0.70952 0.05612 0.45684 0.0
C257 C 0.70791 0.06864 0.49865 0.0
C258 C 0.70748 0.05818 0.5433 0.0
C259 C 0.70905 0.0357 0.54621 0.0
C260 C 0.71941 0.95756 0.60267 0.0
C261 C 0.72677 0.96933 0.64261 0.0
C262 C 0.73043 0.95886 0.68631 0.0
C263 C 0.7263 0.9366 0.69094 0.0
C264 C 0.71815 0.92505 0.65155 0.0
C265 C 0.71489 0.93539 0.60774 0.0
C266 C 0.72291 0.95222 0.42767 0.0
C267 C 0.72821 0.93017 0.43208 0.0
C268 C 0.56971 0.21973 0.86946 0.0
C269 C 0.56038 0.23095 0.83077 0.0
C270 C 0.53799 0.23503 0.83113 0.0
C271 C 0.52551 0.22938 0.87109 0.0
H272 H 0.46411 0.1969 0.93541 0.0
H273 H 0.4245 0.19487 0.93878 0.0
H274 H 0.42521 0.22856 0.07402 0.0
H275 H 0.46471 0.23024 0.07145 0.0
H276 H 0.50978 0.22004 0.13419 0.0
H277 H 0.53084 0.2267 0.20685 0.0
H278 H 0.58891 0.23252 0.12182 0.0
H279 H 0.56825 0.22535 0.0499 0.0
H280 H 0.5653 0.2065 0.9394 0.0
H281 H 0.5868 0.21577 0.86963 0.0
H282 H 0.53035 0.24362 0.80177 0.0
H283 H 0.50853 0.23375 0.87167 0.0
N284 N 0.50172 0.21568 0.95842 0.0
N285 N 0.50281 0.21716 0.04254 0.0
N286 N 0.5349 0.21917 -0.00141 0.0
C287 C 0.49126 0.2153 0.00125 0.0
C288 C 0.52468 0.21903 0.04146 0.0
C289 C 0.52363 0.21753 0.95703 0.0
C290 C 0.46746 0.21375 0.00313 0.0
C291 C 0.4558 0.2038 0.9659 0.0
C292 C 0.43323 0.20252 0.96791 0.0
C293 C 0.42201 0.21157 0.00665 0.0
C294 C 0.43362 0.22151 0.0438 0.0
C295 C 0.45616 0.2224 0.04232 0.0
C296 C 0.53729 0.22213 0.0861 0.0
C297 C 0.52708 0.22256 0.13107 0.0
C298 C 0.5391 0.22651 0.17269 0.0
C299 C 0.56155 0.23006 0.17013 0.0
C300 C 0.57172 0.22944 0.12522 0.0
C301 C 0.55978 0.22546 0.08381 0.0
C302 C 0.53532 0.21971 0.91126 0.0
C303 C 0.55737 0.2143 0.90933 0.0
C304 C 0.25587 0.06539 0.64009 0.0
C305 C 0.26111 0.05543 0.68376 0.0
C306 C 0.27323 0.0362 0.68369 0.0
C307 C 0.27945 0.02673 0.64028 0.0
H308 H 0.29014 0.96632 0.57781 0.0
H309 H 0.2921 0.92709 0.5721 0.0
H310 H 0.29598 0.93184 0.41803 0.0
H311 H 0.29361 0.97109 0.4234 0.0
H312 H 0.27097 0.0139 0.37545 0.0
H313 H 0.25833 0.03532 0.30713 0.0
H314 H 0.26748 0.09394 0.38907 0.0
H315 H 0.27961 0.07271 0.45722 0.0
H316 H 0.25777 0.06429 0.56406 0.0
H317 H 0.24683 0.08042 0.63929 0.0
H318 H 0.27752 0.02832 0.71707 0.0
H319 H 0.28846 0.01169 0.64104 0.0
N320 N 0.28459 0.00516 0.54735 0.0
N321 N 0.28529 0.00747 0.46337 0.0
N322 N 0.27738 0.03814 0.50917 0.0
C323 C 0.28764 0.99555 0.50406 0.0
C324 C 0.28034 0.02885 0.46576 0.0
C325 C 0.27945 0.0265 0.55009 0.0
C326 C 0.29143 0.97191 0.50104 0.0
C327 C 0.29164 0.95908 0.54268 0.0
C328 C 0.29289 0.93656 0.53947 0.0
C329 C 0.294 0.92638 0.49458 0.0
C330 C 0.29476 0.93923 0.45307 0.0
C331 C 0.2935 0.96175 0.45624 0.0
C332 C 0.27595 0.0416 0.42199 0.0
C333 C 0.27057 0.03138 0.37857 0.0
C334 C 0.26335 0.04363 0.33945 0.0
C335 C 0.26147 0.06625 0.34316 0.0
C336 C 0.26815 0.07647 0.3856 0.0
C337 C 0.27523 0.0643 0.42458 0.0
C338 C 0.27399 0.03664 0.59646 0.0
C339 C 0.26233 0.05619 0.597 0.0
C340 C 0.42024 0.78219 0.12562 0.0
C341 C 0.43111 0.77512 0.167 0.0
C342 C 0.45374 0.77302 0.16613 0.0
C343 C 0.46522 0.77735 0.12413 0.0
H344 H 0.52547 0.79254 0.07106 0.0
H345 H 0.56479 0.79289 0.07215 0.0
H346 H 0.56572 0.78633 0.91822 0.0
H347 H 0.52628 0.78628 0.91672 0.0
H348 H 0.48199 0.76872 0.86602 0.0
H349 H 0.46128 0.75703 0.79598 0.0
H350 H 0.40203 0.77604 0.86628 0.0
H351 H 0.4225 0.78713 0.93635 0.0
H352 H 0.42271 0.79103 0.05181 0.0
H353 H 0.40276 0.78374 0.1252 0.0
H354 H 0.46248 0.76769 0.19768 0.0
H355 H 0.4826 0.77505 0.12418 0.0
N356 N 0.48775 0.78757 0.03562 0.0
N357 N 0.48771 0.78513 0.9518 0.0
N358 N 0.45507 0.78315 0.99421 0.0
C359 C 0.49876 0.78767 0.99359 0.0
C360 C 0.46583 0.78297 0.95188 0.0
C361 C 0.46591 0.7854 0.0362 0.0
C362 C 0.52265 0.78921 0.9938 0.0
C363 C 0.53397 0.79129 0.03731 0.0
C364 C 0.55653 0.79139 0.03805 0.0
C365 C 0.56829 0.78945 0.99534 0.0
C366 C 0.55705 0.788 0.95167 0.0
C367 C 0.53444 0.78786 0.95089 0.0
C368 C 0.45385 0.77855 0.90703 0.0
C369 C 0.46456 0.77062 0.86625 0.0
C370 C 0.45271 0.76395 0.82609 0.0
C371 C 0.42999 0.7652 0.82599 0.0
C372 C 0.41948 0.77427 0.86578 0.0
C373 C 0.43124 0.78075 0.90587 0.0
C374 C 0.45421 0.78348 0.08208 0.0
C375 C 0.43165 0.78622 0.08351 0.0
H376 H 0.15892 0.26087 0.093 0.0
H377 H 0.12992 0.19801 0.11493 0.0
H378 H 0.13066 0.27752 0.14094 0.0
H379 H 0.10222 0.21441 0.16539 0.0
H380 H 0.04941 0.24929 0.24214 0.0
H381 H 0.07165 0.237 0.17547 0.0
H382 H 0.12328 0.27939 0.2224 0.0
H383 H 0.10059 0.29263 0.2865 0.0
C384 C 0.14644 0.25063 0.1082 0.0
C385 C 0.14673 0.22814 0.10092 0.0
C386 C 0.13029 0.26014 0.13586 0.0
C387 C 0.11433 0.24731 0.15789 0.0
C388 C 0.11408 0.22487 0.14868 0.0
C389 C 0.13003 0.21541 0.12006 0.0
C390 C 0.06527 0.25643 0.23727 0.0
C391 C 0.07333 0.27176 0.26997 0.0
C392 C 0.07816 0.24915 0.19945 0.0
C393 C 0.0994 0.25696 0.19374 0.0
C394 C 0.10696 0.27311 0.22512 0.0
C395 C 0.09404 0.28052 0.26246 0.0
H396 H 0.25728 0.67568 0.65868 0.0
H397 H 0.28791 0.62716 0.57003 0.0
H398 H 0.24797 0.64811 0.71681 0.0
H399 H 0.27829 0.5993 0.62923 0.0
H400 H 0.2306 0.55824 0.73276 0.0
H401 H 0.24228 0.58248 0.66801 0.0
H402 H 0.27203 0.62481 0.77198 0.0
H403 H 0.2609 0.60064 0.8362 0.0
C404 C 0.26197 0.65911 0.65134 0.0
C405 C 0.27352 0.65369 0.6097 0.0
C406 C 0.25668 0.64334 0.68489 0.0
C407 C 0.26263 0.62169 0.67765 0.0
C408 C 0.27357 0.61595 0.63549 0.0
C409 C 0.27912 0.63188 0.60185 0.0
C410 C 0.23993 0.57256 0.74162 0.0
C411 C 0.24446 0.57778 0.78965 0.0
C412 C 0.2466 0.58636 0.70463 0.0
C413 C 0.25778 0.60558 0.71526 0.0
C414 C 0.26309 0.61026 0.763 0.0
C415 C 0.25659 0.59649 0.79973 0.0
H416 H 0.81989 0.75022 0.16712 0.0
H417 H 0.86825 0.78094 0.07812 0.0
H418 H 0.84812 0.73442 0.21603 0.0
H419 H 0.89678 0.76452 0.12709 0.0
H420 H 0.9366 0.75348 0.26899 0.0
H421 H 0.91192 0.76718 0.20767 0.0
H422 H 0.87585 0.70721 0.21363 0.0
H423 H 0.90025 0.69382 0.27579 0.0
C424 C 0.83657 0.75351 0.1577 0.0
C425 C 0.84176 0.76689 0.11858 0.0
C426 C 0.85281 0.74423 0.18559 0.0
C427 C 0.87472 0.74795 0.17509 0.0
C428 C 0.88003 0.76141 0.13615 0.0
C429 C 0.86369 0.7708 0.10813 0.0
C430 C 0.92369 0.74307 0.2563 0.0
C431 C 0.92015 0.7227 0.2774 0.0
C432 C 0.90956 0.7509 0.22117 0.0
C433 C 0.89171 0.73843 0.20638 0.0
C434 C 0.88914 0.71743 0.22515 0.0
C435 C 0.90314 0.7097 0.26052 0.0
H436 H 0.70829 0.36864 0.58257 0.0
H437 H 0.74408 0.31969 0.66067 0.0
H438 H 0.72101 0.3961 0.63974 0.0
H439 H 0.75644 0.34687 0.7168 0.0
H440 H 0.74824 0.39276 0.84103 0.0
H441 H 0.73452 0.3692 0.77831 0.0
H442 H 0.75907 0.41297 0.67071 0.0
H443 H 0.77339 0.43666 0.73397 0.0
C444 C 0.71888 0.36374 0.61159 0.0
C445 C 0.72498 0.34191 0.61722 0.0
C446 C 0.72621 0.37945 0.64404 0.0
C447 C 0.73947 0.37346 0.68277 0.0
C448 C 0.74597 0.35182 0.68756 0.0
C449 C 0.7389 0.33627 0.65519 0.0
C450 C 0.75091 0.39735 0.80406 0.0
C451 C 0.76237 0.41631 0.79245 0.0
C452 C 0.74291 0.38393 0.76821 0.0
C453 C 0.74599 0.3892 0.71985 0.0
C454 C 0.75649 0.40864 0.70786 0.0
C455 C 0.76468 0.42211 0.74398 0.0
H456 H 0.63284 0.30194 0.38254 0.0
H457 H 0.65987 0.23762 0.39263 0.0
H458 H 0.60487 0.28844 0.32807 0.0
H459 H 0.63146 0.22385 0.34056 0.0
H460 H 0.60174 0.21496 0.19271 0.0
H461 H 0.62493 0.22617 0.25812 0.0
H462 H 0.57357 0.26654 0.31348 0.0
H463 H 0.5507 0.25623 0.24574 0.0
C464 C 0.63246 0.28484 0.37392 0.0
C465 C 0.64868 0.27088 0.3909 0.0
C466 C 0.6164 0.27704 0.34297 0.0
C467 C 0.61612 0.25509 0.32924 0.0
C468 C 0.63155 0.24096 0.34915 0.0
C469 C 0.64777 0.24881 0.37917 0.0
C470 C 0.59538 0.22626 0.21874 0.0
C471 C 0.57449 0.23492 0.21364 0.0
C472 C 0.60858 0.23248 0.25679 0.0
C473 C 0.60115 0.24729 0.29123 0.0
C474 C 0.57991 0.25531 0.28727 0.0
C475 C 0.5667 0.2492 0.2488 0.0
H476 H 0.25263 0.15875 0.87631 0.0
H477 H 0.19337 0.12483 0.91073 0.0
H478 H 0.26432 0.1282 0.82807 0.0
H479 H 0.20528 0.09411 0.86246 0.0
H480 H 0.22042 0.06804 0.70689 0.0
H481 H 0.2096 0.09083 0.77388 0.0
H482 H 0.27504 0.08906 0.82882 0.0
H483 H 0.28588 0.06626 0.76117 0.0
C484 C 0.24219 0.14468 0.87405 0.0
C485 C 0.22191 0.14438 0.89681 0.0
C486 C 0.24903 0.12706 0.84682 0.0
C487 C 0.2357 0.10879 0.84148 0.0
C488 C 0.21581 0.10807 0.86578 0.0
C489 C 0.20903 0.12565 0.89342 0.0
C490 C 0.23236 0.07218 0.73387 0.0
C491 C 0.254 0.06565 0.7288 0.0
C492 C 0.22616 0.08508 0.77238 0.0
C493 C 0.24153 0.09184 0.80636 0.0
C494 C 0.26292 0.08421 0.80285 0.0
C495 C 0.26909 0.07109 0.76446 0.0
H496 H 0.31862 0.74114 0.32085 0.0
H497 H 0.36738 0.71178 0.41148 0.0
H498 H 0.34663 0.75625 0.27055 0.0
H499 H 0.3957 0.72747 0.36096 0.0
H500 H 0.43513 0.73777 0.21844 0.0
H501 H 0.41054 0.7241 0.27982 0.0
H502 H 0.37421 0.78385 0.27267 0.0
H503 H 0.39853 0.79723 0.21063 0.0
C504 C 0.33535 0.73798 0.33029 0.0
C505 C 0.34072 0.72525 0.37038 0.0
C506 C 0.35145 0.74685 0.30157 0.0
C507 C 0.3734 0.74336 0.31217 0.0
C508 C 0.3789 0.73041 0.35187 0.0
C509 C 0.36269 0.72143 0.38076 0.0
C510 C 0.42216 0.74812 0.23083 0.0
C511 C 0.41853 0.76844 0.2095 0.0
C512 C 0.40809 0.74032 0.26598 0.0
C513 C 0.39022 0.75275 0.2805 0.0
C514 C 0.38752 0.77367 0.26135 0.0
C515 C 0.40146 0.78138 0.22602 0.0
H516 H 0.78815 0.86857 0.93168 0.0
H517 H 0.74953 0.82377 0.84847 0.0
H518 H 0.77375 0.89867 0.88415 0.0
H519 H 0.73573 0.85346 0.80105 0.0
H520 H 0.70085 0.90894 0.74164 0.0
H521 H 0.71227 0.88443 0.80548 0.0
H522 H 0.77641 0.91247 0.80199 0.0
H523 H 0.76467 0.9374 0.73907 0.0
C524 C 0.77665 0.86512 0.90337 0.0
C525 C 0.77004 0.84373 0.89393 0.0
C526 C 0.76842 0.88234 0.87618 0.0
C527 C 0.75341 0.87847 0.83921 0.0
C528 C 0.74684 0.8571 0.83001 0.0
C529 C 0.75498 0.84 0.85701 0.0
C530 C 0.71723 0.91011 0.75534 0.0
C531 C 0.73197 0.92481 0.73526 0.0
C532 C 0.72383 0.89606 0.79165 0.0
C533 C 0.74538 0.89622 0.80806 0.0
C534 C 0.75968 0.91201 0.7903 0.0
C535 C 0.75299 0.92625 0.75425 0.0
H536 H 0.8681 0.78747 0.92129 0.0
H537 H 0.81916 0.75708 0.8328 0.0
H538 H 0.89565 0.77813 0.8614 0.0
H539 H 0.84642 0.74808 0.77395 0.0
H540 H 0.89329 0.76086 0.65415 0.0
H541 H 0.86972 0.77247 0.71888 0.0
H542 H 0.91194 0.74179 0.82195 0.0
H543 H 0.93553 0.72961 0.75675 0.0
C544 C 0.86322 0.7788 0.88934 0.0
C545 C 0.8414 0.77314 0.88177 0.0
C546 C 0.87897 0.77342 0.85529 0.0
C547 C 0.87302 0.76264 0.813 0.0
C548 C 0.85135 0.75668 0.80598 0.0
C549 C 0.83576 0.76177 0.83995 0.0
C550 C 0.89757 0.7565 0.69055 0.0
C551 C 0.91602 0.74392 0.70025 0.0
C552 C 0.88415 0.76328 0.72756 0.0
C553 C 0.88895 0.75779 0.77518 0.0
C554 C 0.90799 0.74625 0.78543 0.0
C555 C 0.92142 0.7393 0.74818 0.0
H556 H 0.73381 0.31974 0.32682 0.0
H557 H 0.70923 0.36945 0.42123 0.0
H558 H 0.74535 0.34723 0.27059 0.0
H559 H 0.72096 0.39726 0.3638 0.0
H560 H 0.77229 0.4353 0.26386 0.0
H561 H 0.7574 0.41153 0.32631 0.0
H562 H 0.7252 0.37357 0.21763 0.0
H563 H 0.73983 0.39713 0.15582 0.0
C564 C 0.73085 0.33655 0.33572 0.0
C565 C 0.72047 0.34235 0.37857 0.0
C566 C 0.73739 0.3523 0.30323 0.0
C567 C 0.73383 0.37432 0.31266 0.0
C568 C 0.72386 0.38034 0.3558 0.0
C569 C 0.71708 0.36445 0.38843 0.0
C570 C 0.76177 0.42205 0.25358 0.0
C571 C 0.75761 0.41773 0.20499 0.0
C572 C 0.75323 0.40853 0.28921 0.0
C573 C 0.74046 0.39056 0.27659 0.0
C574 C 0.73537 0.38705 0.22823 0.0
C575 C 0.74383 0.40048 0.19287 0.0
H576 H 0.17424 0.22575 0.81749 0.0
H577 H 0.12372 0.20662 0.91594 0.0
H578 H 0.14711 0.23616 0.75903 0.0
H579 H 0.09636 0.21709 0.85647 0.0
H580 H 0.05925 0.26573 0.75107 0.0
H581 H 0.08314 0.25193 0.81449 0.0
H582 H 0.11985 0.21661 0.70891 0.0
H583 H 0.09613 0.23019 0.64603 0.0
C584 C 0.15734 0.22372 0.82673 0.0
C585 C 0.15118 0.21527 0.87144 0.0
C586 C 0.14178 0.22958 0.79301 0.0
C587 C 0.11966 0.22725 0.8031 0.0
C588 C 0.11335 0.21906 0.84791 0.0
C589 C 0.129 0.21298 0.88173 0.0
C590 C 0.07224 0.25475 0.74168 0.0
C591 C 0.07613 0.24937 0.69358 0.0
C592 C 0.08584 0.24685 0.77789 0.0
C593 C 0.1035 0.23349 0.7664 0.0
C594 C 0.10663 0.22726 0.71862 0.0
C595 C 0.0931 0.23508 0.68265 0.0
H596 H 0.24866 0.67252 0.33051 0.0
H597 H 0.28769 0.62719 0.41142 0.0
H598 H 0.23552 0.64328 0.2808 0.0
H599 H 0.27393 0.59757 0.36186 0.0
H600 H 0.2652 0.5587 0.21868 0.0
H601 H 0.27674 0.58416 0.28053 0.0
H602 H 0.2126 0.61217 0.28168 0.0
H603 H 0.20137 0.58712 0.21889 0.0
C604 C 0.25432 0.65626 0.33808 0.0
C605 C 0.2693 0.65227 0.37503 0.0
C606 C 0.24658 0.6394 0.30972 0.0
C607 C 0.25347 0.61801 0.31761 0.0
C608 C 0.26839 0.6139 0.35467 0.0
C609 C 0.27625 0.63087 0.38311 0.0
C610 C 0.25349 0.57002 0.23298 0.0
C611 C 0.23248 0.57115 0.21374 0.0
C612 C 0.26007 0.58458 0.26845 0.0
C613 C 0.2457 0.60045 0.28552 0.0
C614 C 0.22424 0.60053 0.26844 0.0
C615 C 0.21775 0.58613 0.23271 0.0
H616 H 0.36815 0.70725 0.57086 0.0
H617 H 0.32095 0.74494 0.64912 0.0
H618 H 0.39602 0.71785 0.62937 0.0
H619 H 0.34851 0.75508 0.70667 0.0
H620 H 0.39304 0.74143 0.83207 0.0
H621 H 0.36955 0.7296 0.76718 0.0
H622 H 0.4142 0.75591 0.66372 0.0
H623 H 0.43775 0.76843 0.72912 0.0
C624 C 0.36373 0.71784 0.60013 0.0
C625 C 0.34224 0.72505 0.60547 0.0
C626 C 0.37967 0.72393 0.63337 0.0
C627 C 0.37423 0.73703 0.67259 0.0
C628 C 0.353 0.74473 0.677 0.0
C629 C 0.33724 0.73892 0.64382 0.0
C630 C 0.39787 0.74484 0.79557 0.0
C631 C 0.417 0.75633 0.78577 0.0
C632 C 0.3845 0.73791 0.75848 0.0
C633 C 0.39003 0.74208 0.71069 0.0
C634 C 0.40969 0.75249 0.70042 0.0
C635 C 0.42309 0.75964 0.73777 0.0
H636 H 0.73796 0.82775 0.12585 0.0
H637 H 0.80106 0.85795 0.12422 0.0
H638 H 0.7251 0.85504 0.18142 0.0
H639 H 0.78845 0.8849 0.18184 0.0
H640 H 0.75535 0.9383 0.26629 0.0
H641 H 0.76524 0.91521 0.19883 0.0
H642 H 0.7304 0.86195 0.2635 0.0
H643 H 0.71955 0.88523 0.32891 0.0
C644 C 0.74911 0.84024 0.13754 0.0
C645 C 0.77061 0.84056 0.12131 0.0
C646 C 0.74176 0.85585 0.16955 0.0
C647 C 0.75583 0.87195 0.18685 0.0
C648 C 0.77713 0.87282 0.16902 0.0
C649 C 0.78441 0.85733 0.13624 0.0
C650 C 0.74946 0.92177 0.26549 0.0
C651 C 0.73676 0.91356 0.30311 0.0
C652 C 0.75535 0.90847 0.22715 0.0
C653 C 0.74868 0.8867 0.22572 0.0
C654 C 0.7356 0.8787 0.26292 0.0
C655 C 0.72962 0.89198 0.30091 0.0
H656 H 0.67304 0.25298 0.66325 0.0
H657 H 0.62608 0.29082 0.58398 0.0
H658 H 0.64513 0.24199 0.71892 0.0
H659 H 0.59791 0.27962 0.64074 0.0
H660 H 0.55334 0.23131 0.73323 0.0
H661 H 0.57837 0.2441 0.67099 0.0
H662 H 0.62396 0.2633 0.78042 0.0
H663 H 0.59917 0.25096 0.84202 0.0
C664 C 0.65675 0.25896 0.6575 0.0
C665 C 0.6519 0.273 0.61925 0.0
C666 C 0.64077 0.25267 0.68962 0.0
C667 C 0.61945 0.26015 0.68438 0.0
C668 C 0.61426 0.27363 0.64545 0.0
C669 C 0.6304 0.28011 0.61322 0.0
C670 C 0.56862 0.23849 0.74382 0.0
C671 C 0.57452 0.23967 0.79244 0.0
C672 C 0.58288 0.24581 0.70831 0.0
C673 C 0.60319 0.25435 0.72102 0.0
C674 C 0.6086 0.25635 0.76962 0.0
C675 C 0.59443 0.24917 0.80486 0.0
H676 H 0.22499 0.17692 0.18072 0.0
H677 H 0.20627 0.12572 0.08347 0.0
H678 H 0.23634 0.15014 0.23925 0.0
H679 H 0.21771 0.09873 0.1429 0.0
H680 H 0.26829 0.06311 0.24617 0.0
H681 H 0.25363 0.0868 0.1834 0.0
H682 H 0.21768 0.12221 0.29006 0.0
H683 H 0.23198 0.09861 0.3523 0.0
C684 C 0.22323 0.15994 0.17181 0.0
C685 C 0.21468 0.15347 0.12741 0.0
C686 C 0.22964 0.1446 0.20553 0.0
C687 C 0.22777 0.1224 0.19564 0.0
C688 C 0.21935 0.11579 0.15124 0.0
C689 C 0.2127 0.13121 0.11747 0.0
C690 C 0.25702 0.07577 0.25598 0.0
C691 C 0.25162 0.0793 0.30422 0.0
C692 C 0.24862 0.08926 0.22013 0.0
C693 C 0.23477 0.10646 0.23209 0.0
C694 C 0.22866 0.10933 0.28001 0.0
C695 C 0.23694 0.09588 0.31563 0.0
H696 H 0.21398 0.28569 0.90737 0.0
H697 H 0.2145 0.28799 0.0622 0.0
H698 H 0.21386 0.32528 0.90475 0.0
H699 H 0.21399 0.32721 0.05937 0.0
H700 H 0.23871 0.39543 0.03869 0.0
H701 H 0.23887 0.35602 0.03698 0.0
H702 H 0.19067 0.35675 0.92456 0.0
H703 H 0.19059 0.39636 0.92615 0.0
C704 C 0.21396 0.29458 0.94077 0.0
C705 C 0.21445 0.28364 0.98497 0.0
C706 C 0.21379 0.31723 0.93924 0.0
C707 C 0.21412 0.32932 0.98186 0.0
C708 C 0.21418 0.31836 0.02591 0.0
C709 C 0.21438 0.29582 0.02747 0.0
C710 C 0.22804 0.38718 0.01383 0.0
C711 C 0.21449 0.39895 0.98288 0.0
C712 C 0.22814 0.36462 0.01282 0.0
C713 C 0.21464 0.3533 0.98091 0.0
C714 C 0.20138 0.36505 0.94924 0.0
C715 C 0.20131 0.38769 0.9502 0.0
H716 H 0.20678 0.69631 0.55783 0.0
H717 H 0.20136 0.73325 0.42693 0.0
H718 H 0.1677 0.69156 0.55929 0.0
H719 H 0.16214 0.72971 0.42968 0.0
H720 H 0.09424 0.70446 0.42185 0.0
H721 H 0.13342 0.70578 0.41934 0.0
H722 H 0.13545 0.70969 0.57391 0.0
H723 H 0.09639 0.70623 0.57662 0.0
C724 C 0.19715 0.70364 0.52968 0.0
C725 C 0.20704 0.71516 0.49229 0.0
C726 C 0.17472 0.70104 0.53061 0.0
C727 C 0.16165 0.7103 0.49469 0.0
C728 C 0.17165 0.72195 0.45743 0.0
C729 C 0.19412 0.72415 0.45598 0.0
C730 C 0.10302 0.70507 0.45542 0.0
C731 C 0.09204 0.70522 0.49947 0.0
C732 C 0.12556 0.70625 0.45392 0.0
C733 C 0.1377 0.70806 0.49638 0.0
C734 C 0.12673 0.70805 0.54044 0.0
C735 C 0.10422 0.70644 0.54198 0.0
H736 H 0.77913 0.70282 0.0769 0.0
H737 H 0.78147 0.70449 0.92209 0.0
H738 H 0.78371 0.6637 0.07522 0.0
H739 H 0.78647 0.6654 0.9207 0.0
H740 H 0.76922 0.59338 0.93792 0.0
H741 H 0.76569 0.63267 0.93816 0.0
H742 H 0.81121 0.63657 0.05561 0.0
H743 H 0.8147 0.59717 0.05543 0.0
C744 C 0.78067 0.69489 0.04251 0.0
C745 C 0.77986 0.70683 -0.00039 0.0
C746 C 0.78346 0.67247 0.04161 0.0
C747 C 0.7855 0.6615 0.99784 0.0
C748 C 0.7847 0.6734 0.95496 0.0
C749 C 0.7819 0.69582 0.95581 0.0
C750 C 0.77869 0.60265 0.96336 0.0
C751 C 0.79225 0.59223 0.99663 0.0
C752 C 0.77666 0.62514 0.96351 0.0
C753 C 0.78815 0.63768 0.99693 0.0
C754 C 0.8019 0.62728 0.0299 0.0
C755 C 0.80392 0.60477 0.02977 0.0
H756 H 0.78829 0.28199 0.41759 0.0
H757 H 0.78925 0.27798 0.57227 0.0
H758 H 0.82763 0.28522 0.41724 0.0
H759 H 0.82843 0.2816 0.57171 0.0
H760 H 0.89913 0.26253 0.54744 0.0
H761 H 0.85979 0.26016 0.54773 0.0
H762 H 0.85643 0.3107 0.44076 0.0
H763 H 0.89591 0.31309 0.44049 0.0
C764 C 0.79684 0.28186 0.4515 0.0
C765 C 0.78558 0.27962 0.49494 0.0
C766 C 0.81937 0.28386 0.45127 0.0
C767 C 0.8311 0.28363 0.49444 0.0
C768 C 0.81985 0.28152 0.53783 0.0
C769 C 0.79736 0.27954 0.5381 0.0
C770 C 0.89 0.27332 0.52442 0.0
C771 C 0.90061 0.28805 0.49407 0.0
C772 C 0.86746 0.27195 0.52454 0.0
C773 C 0.85503 0.28526 0.49432 0.0
C774 C 0.86561 0.30003 0.46399 0.0
C775 C 0.88819 0.30141 0.46387 0.0
H776 H 0.71484 0.20502 0.42051 0.0
H777 H 0.71201 0.20391 0.57529 0.0
H778 H 0.71158 0.16576 0.41902 0.0
H779 H 0.7091 0.16458 0.57357 0.0
H780 H 0.68247 0.09649 0.54963 0.0
H781 H 0.68355 0.136 0.54888 0.0
H782 H 0.73371 0.13428 0.44138 0.0
H783 H 0.73267 0.09483 0.4422 0.0
C784 C 0.71359 0.19644 0.45424 0.0
C785 C 0.71376 0.20764 0.49806 0.0
C786 C 0.7118 0.17392 0.45332 0.0
C787 C 0.71011 0.16212 0.49615 0.0
C788 C 0.71012 0.17329 0.53995 0.0
C789 C 0.71194 0.19582 0.54092 0.0
C790 C 0.69374 0.10458 0.52591 0.0
C791 C 0.70752 0.09258 0.49604 0.0
C792 C 0.69437 0.12717 0.52552 0.0
C793 C 0.70877 0.1382 0.49521 0.0
C794 C 0.72224 0.12622 0.46467 0.0
C795 C 0.72163 0.10363 0.46509 0.0
H796 H 0.28773 0.23192 0.94037 0.0
H797 H 0.28521 0.19307 0.06916 0.0
H798 H 0.32726 0.23099 0.94299 0.0
H799 H 0.32495 0.19177 0.07084 0.0
H800 H 0.39541 0.17642 0.00222 0.0
H801 H 0.35559 0.1763 0.0035 0.0
H802 H 0.35555 0.24606 0.01334 0.0
H803 H 0.39524 0.24616 0.01331 0.0
C804 C 0.29563 0.22305 0.96901 0.0
C805 C 0.28345 0.21258 0.00462 0.0
C806 C 0.31818 0.22262 0.97054 0.0
C807 C 0.32893 0.21132 0.00708 0.0
C808 C 0.31686 0.20052 0.0423 0.0
C809 C 0.29424 0.20136 0.04142 0.0
C810 C 0.38679 0.19166 0.00485 0.0
C811 C 0.39818 0.2113 0.00768 0.0
C812 C 0.36417 0.19158 0.00582 0.0
C813 C 0.35274 0.21117 0.00853 0.0
C814 C 0.36414 0.23079 0.01119 0.0
C815 C 0.38671 0.23084 0.01128 0.0
H816 H 0.27799 0.79124 0.56481 0.0
H817 H 0.28125 0.79102 0.41007 0.0
H818 H 0.28323 0.83029 0.56488 0.0
H819 H 0.28688 0.83006 0.41043 0.0
H820 H 0.27031 0.90231 0.4316 0.0
H821 H 0.26663 0.86307 0.42884 0.0
H822 H 0.31143 0.85709 0.54721 0.0
H823 H 0.31513 0.89645 0.54998 0.0
C824 C 0.27984 0.79948 0.53079 0.0
C825 C 0.27913 0.78795 0.48741 0.0
C826 C 0.28303 0.82185 0.5309 0.0
C827 C 0.28556 0.83322 0.48768 0.0
C828 C 0.28477 0.82176 0.44429 0.0
C829 C 0.2816 0.79937 0.44414 0.0
C830 C 0.27966 0.89261 0.45651 0.0
C831 C 0.29301 0.90246 0.49102 0.0
C832 C 0.27752 0.87013 0.45497 0.0
C833 C 0.28867 0.85701 0.48793 0.0
C834 C 0.30236 0.86682 0.52185 0.0
C835 C 0.3045 0.88933 0.52339 0.0
H836 H 0.70405 0.77687 0.92331 0.0
H837 H 0.70361 0.78071 0.07799 0.0
H838 H 0.66483 0.78044 0.92217 0.0
H839 H 0.66442 0.78473 0.07657 0.0
H840 H 0.59325 0.76589 0.05673 0.0
H841 H 0.63256 0.76304 0.05834 0.0
H842 H 0.63665 0.80715 0.93837 0.0
H843 H 0.5972 0.80989 0.93661 0.0
C844 C 0.69563 0.77855 0.95707 0.0
C845 C 0.70699 0.77841 0.00077 0.0
C846 C 0.67315 0.78074 0.95635 0.0
C847 C 0.66156 0.78289 -0.00073 0.0
C848 C 0.6729 0.78282 0.04294 0.0
C849 C 0.69537 0.78059 0.0437 0.0
C850 C 0.60256 0.77516 0.03105 0.0
C851 C 0.59219 0.78816 0.99662 0.0
C852 C 0.62506 0.77353 0.03197 0.0
C853 C 0.63768 0.78489 -0.00147 0.0
C854 C 0.62732 0.79797 0.96418 0.0
C855 C 0.60478 0.79956 0.9632 0.0
loop_
_geom_bond_atom_site_label_1
_geom_bond_atom_site_label_2
_geom_bond_distance
_geom_bond_site_symmetry_2
_ccdc_geom_bond_type
Sc0 O3 2.035 . S
Sc0 O10 2.105 . S
Sc0 O13 2.105 . S
Sc0 O16 2.105 . S
Sc0 O19 2.105 . S
Sc1 O3 2.025 . S
Sc1 O11 2.113 . S
Sc1 O15 2.097 1_554 S
Sc1 O17 2.113 . S
Sc1 O21 2.097 1_554 S
Sc2 O3 2.015 1_556 S
Sc2 O12 2.105 . S
Sc2 O14 2.105 . S
Sc2 O18 2.105 . S
Sc2 O20 2.105 . S
O3 Sc0 2.035 . S
O3 Sc1 2.025 . S
O3 Sc2 2.015 1_554 S
C4 O10 1.275 . S
C4 O20 1.262 1_554 S
C5 O11 1.268 . S
C5 O19 1.268 . S
C6 O12 1.268 . S
C6 O21 1.268 . S
C7 O13 1.268 . S
C7 O17 1.268 . S
C8 O14 1.254 1_554 S
C8 O16 1.282 . S
C9 O15 1.268 . S
C9 O18 1.268 . S
O10 Sc0 2.105 . S
O10 C4 1.275 . S
O11 Sc1 2.113 . S
O11 C5 1.268 . S
O12 Sc2 2.105 . S
O12 C6 1.268 . S
O13 Sc0 2.105 . S
O13 C7 1.268 . S
O14 Sc2 2.105 . S
O14 C8 1.254 1_556 S
O15 Sc1 2.097 1_556 S
O15 C9 1.268 . S
O16 Sc0 2.105 . S
O16 C8 1.282 . S
O17 Sc1 2.113 . S
O17 C7 1.268 . S
O18 Sc2 2.105 . S
O18 C9 1.268 . S
O19 Sc0 2.105 . S
O19 C5 1.268 . S
O20 Sc2 2.105 . S
O20 C4 1.262 1_556 S
O21 Sc1 2.097 1_556 S
O21 C6 1.268 . S
Sc22 O25 2.025 . S
Sc22 O32 2.105 . S
Sc22 O35 2.105 . S
Sc22 O38 2.105 . S
Sc22 O41 2.105 . S
Sc23 O25 2.025 . S
Sc23 O33 2.105 . S
Sc23 O37 2.105 . S
Sc23 O39 2.105 . S
Sc23 O43 2.105 . S
Sc24 O25 2.025 . S
Sc24 O34 2.105 . S
Sc24 O36 2.105 . S
Sc24 O40 2.105 . S
Sc24 O42 2.105 . S
O25 Sc22 2.025 . S
O25 Sc23 2.025 . S
O25 Sc24 2.025 . S
C26 O32 1.268 . S
C26 O42 1.268 . S
C27 O33 1.268 . S
C27 O41 1.268 . S
C28 O34 1.268 . S
C28 O43 1.268 . S
C29 O35 1.268 . S
C29 O39 1.268 . S
C30 O36 1.268 . S
C30 O38 1.268 . S
C31 O37 1.268 . S
C31 O40 1.268 . S
O32 Sc22 2.105 . S
O32 C26 1.268 . S
O33 Sc23 2.105 . S
O33 C27 1.268 . S
O34 Sc24 2.105 . S
O34 C28 1.268 . S
O35 Sc22 2.105 . S
O35 C29 1.268 . S
O36 Sc24 2.105 . S
O36 C30 1.268 . S
O37 Sc23 2.105 . S
O37 C31 1.268 . S
O38 Sc22 2.105 . S
O38 C30 1.268 . S
O39 Sc23 2.105 . S
O39 C29 1.268 . S
O40 Sc24 2.105 . S
O40 C31 1.268 . S
O41 Sc22 2.105 . S
O41 C27 1.268 . S
O42 Sc24 2.105 . S
O42 C26 1.268 . S
O43 Sc23 2.105 . S
O43 C28 1.268 . S
Sc44 O47 2.015 1_556 S
Sc44 O54 2.105 . S
Sc44 O57 2.105 . S
Sc44 O60 2.105 . S
Sc44 O63 2.105 . S
Sc45 O47 2.025 . S
Sc45 O55 2.097 1_554 S
Sc45 O59 2.113 . S
Sc45 O61 2.097 1_554 S
Sc45 O65 2.113 . S
Sc46 O47 2.035 . S
Sc46 O56 2.105 . S
Sc46 O58 2.105 . S
Sc46 O62 2.105 . S
Sc46 O64 2.105 . S
O47 Sc44 2.015 1_554 S
O47 Sc45 2.025 . S
O47 Sc46 2.035 . S
C48 O54 1.262 1_554 S
C48 O64 1.275 . S
C49 O55 1.268 . S
C49 O63 1.268 . S
C50 O56 1.268 . S
C50 O65 1.268 . S
C51 O57 1.268 . S
C51 O61 1.268 . S
C52 O58 1.282 . S
C52 O60 1.254 1_554 S
C53 O59 1.268 . S
C53 O62 1.268 . S
O54 Sc44 2.105 . S
O54 C48 1.262 1_556 S
O55 Sc45 2.097 1_556 S
O55 C49 1.268 . S
O56 Sc46 2.105 . S
O56 C50 1.268 . S
O57 Sc44 2.105 . S
O57 C51 1.268 . S
O58 Sc46 2.105 . S
O58 C52 1.282 . S
O59 Sc45 2.113 . S
O59 C53 1.268 . S
O60 Sc44 2.105 . S
O60 C52 1.254 1_556 S
O61 Sc45 2.097 1_556 S
O61 C51 1.268 . S
O62 Sc46 2.105 . S
O62 C53 1.268 . S
O63 Sc44 2.105 . S
O63 C49 1.268 . S
O64 Sc46 2.105 . S
O64 C48 1.275 . S
O65 Sc45 2.113 . S
O65 C50 1.268 . S
Sc66 O69 2.025 . S
Sc66 O76 2.105 . S
Sc66 O79 2.105 . S
Sc66 O82 2.105 . S
Sc66 O85 2.105 . S
Sc67 O69 2.025 . S
Sc67 O77 2.105 . S
Sc67 O81 2.105 . S
Sc67 O83 2.105 . S
Sc67 O87 2.105 . S
Sc68 O69 2.025 . S
Sc68 O78 2.105 . S
Sc68 O80 2.105 . S
Sc68 O84 2.105 . S
Sc68 O86 2.105 . S
O69 Sc66 2.025 . S
O69 Sc67 2.025 . S
O69 Sc68 2.025 . S
C70 O76 1.268 . S
C70 O86 1.268 . S
C71 O77 1.268 . S
C71 O85 1.268 . S
C72 O78 1.268 . S
C72 O87 1.268 . S
C73 O79 1.268 . S
C73 O83 1.268 . S
C74 O80 1.268 . S
C74 O82 1.268 . S
C75 O81 1.268 . S
C75 O84 1.268 . S
O76 Sc66 2.105 . S
O76 C70 1.268 . S
O77 Sc67 2.105 . S
O77 C71 1.268 . S
O78 Sc68 2.105 . S
O78 C72 1.268 . S
O79 Sc66 2.105 . S
O79 C73 1.268 . S
O80 Sc68 2.105 . S
O80 C74 1.268 . S
O81 Sc67 2.105 . S
O81 C75 1.268 . S
O82 Sc66 2.105 . S
O82 C74 1.268 . S
O83 Sc67 2.105 . S
O83 C73 1.268 . S
O84 Sc68 2.105 . S
O84 C75 1.268 . S
O85 Sc66 2.105 . S
O85 C71 1.268 . S
O86 Sc68 2.105 . S
O86 C70 1.268 . S
O87 Sc67 2.105 . S
O87 C72 1.268 . S
C88 C89 1.384 . S
C88 H101 0.947 . S
C88 C123 1.382 . S
C89 C88 1.384 . S
C89 C90 1.378 . S
C90 C89 1.378 . S
C90 C91 1.378 . S
C90 H102 0.952 . S
C91 C90 1.378 . S
C91 H103 0.950 . S
C91 C122 1.383 . S
H92 C111 0.947 . S
H93 C112 0.946 . S
H94 C114 0.953 . S
H95 C115 0.945 . S
H96 C117 0.952 . S
H97 C118 0.949 . S
H98 C120 0.950 . S
H99 C121 0.948 . S
H100 C123 0.951 . S
H101 C88 0.947 . S
H102 C90 0.952 . S
H103 C91 0.950 . S
N104 C107 1.368 1_554 S
N104 C109 1.363 . S
N105 C107 1.386 . S
N105 C108 1.372 . S
N106 C108 1.361 . S
N106 C109 1.377 1_556 S
C107 N104 1.368 1_556 S
C107 N105 1.386 . S
C107 C110 1.480 . S
C108 N105 1.372 . S
C108 N106 1.361 . S
C108 C116 1.457 . S
C109 N104 1.363 . S
C109 N106 1.377 1_554 S
C109 C122 1.479 . S
C110 C107 1.480 . S
C110 C111 1.383 1_556 S
C110 C115 1.385 . S
C111 H92 0.947 . S
C111 C110 1.383 1_554 S
C111 C112 1.388 . S
C112 H93 0.946 . S
C112 C111 1.388 . S
C112 C113 1.384 1_554 S
C113 C112 1.384 1_556 S
C113 C114 1.377 . S
C114 H94 0.953 . S
C114 C113 1.377 . S
C114 C115 1.369 . S
C115 H95 0.945 . S
C115 C110 1.385 . S
C115 C114 1.369 . S
C116 C108 1.457 . S
C116 C117 1.372 . S
C116 C121 1.364 . S
C117 H96 0.952 . S
C117 C116 1.372 . S
C117 C118 1.389 . S
C118 H97 0.949 . S
C118 C117 1.389 . S
C118 C119 1.387 . S
C119 C118 1.387 . S
C119 C120 1.372 . S
C120 H98 0.950 . S
C120 C119 1.372 . S
C120 C121 1.379 . S
C121 H99 0.948 . S
C121 C116 1.364 . S
C121 C120 1.379 . S
C122 C91 1.383 . S
C122 C109 1.479 . S
C122 C123 1.398 . S
C123 C88 1.382 . S
C123 H100 0.951 . S
C123 C122 1.398 . S
C124 C125 1.384 . S
C124 H137 0.947 . S
C124 C159 1.382 . S
C125 C124 1.384 . S
C125 C126 1.378 . S
C126 C125 1.378 . S
C126 C127 1.378 . S
C126 H138 0.952 . S
C127 C126 1.378 . S
C127 H139 0.950 . S
C127 C158 1.383 . S
H128 C147 0.947 . S
H129 C148 0.946 . S
H130 C150 0.953 . S
H131 C151 0.945 . S
H132 C153 0.952 . S
H133 C154 0.949 . S
H134 C156 0.950 . S
H135 C157 0.948 . S
H136 C159 0.951 . S
H137 C124 0.947 . S
H138 C126 0.952 . S
H139 C127 0.950 . S
N140 C143 1.382 1_655 S
N140 C145 1.363 . S
N141 C143 1.371 1_655 S
N141 C144 1.372 . S
N142 C144 1.361 . S
N142 C145 1.377 . S
C143 N140 1.382 1_455 S
C143 N141 1.371 1_455 S
C143 C146 1.480 . S
C144 N141 1.372 . S
C144 N142 1.361 . S
C144 C152 1.457 . S
C145 N140 1.363 . S
C145 N142 1.377 . S
C145 C158 1.479 . S
C146 C143 1.480 . S
C146 C147 1.383 . S
C146 C151 1.385 . S
C147 H128 0.947 . S
C147 C146 1.383 . S
C147 C148 1.388 . S
C148 H129 0.946 . S
C148 C147 1.388 . S
C148 C149 1.384 . S
C149 C148 1.384 . S
C149 C150 1.377 . S
C150 H130 0.953 . S
C150 C149 1.377 . S
C150 C151 1.369 . S
C151 H131 0.945 . S
C151 C146 1.385 . S
C151 C150 1.369 . S
C152 C144 1.457 . S
C152 C153 1.372 . S
C152 C157 1.364 . S
C153 H132 0.952 . S
C153 C152 1.372 . S
C153 C154 1.389 . S
C154 H133 0.949 . S
C154 C153 1.389 . S
C154 C155 1.387 . S
C155 C154 1.387 . S
C155 C156 1.372 . S
C156 H134 0.950 . S
C156 C155 1.372 . S
C156 C157 1.379 . S
C157 H135 0.948 . S
C157 C152 1.364 . S
C157 C156 1.379 . S
C158 C127 1.383 . S
C158 C145 1.479 . S
C158 C159 1.398 . S
C159 C124 1.382 . S
C159 H136 0.951 . S
C159 C158 1.398 . S
C160 C161 1.384 . S
C160 H173 0.947 . S
C160 C195 1.382 . S
C161 C160 1.384 . S
C161 C162 1.378 . S
C162 C161 1.378 . S
C162 C163 1.378 . S
C162 H174 0.952 . S
C163 C162 1.378 . S
C163 H175 0.950 . S
C163 C194 1.383 . S
H164 C183 0.947 . S
H165 C184 0.946 . S
H166 C186 0.953 . S
H167 C187 0.945 . S
H168 C189 0.952 . S
H169 C190 0.949 . S
H170 C192 0.950 . S
H171 C193 0.948 . S
H172 C195 0.951 . S
H173 C160 0.947 . S
H174 C162 0.952 . S
H175 C163 0.950 . S
N176 C179 1.382 1_556 S
N176 C181 1.363 . S
N177 C179 1.371 . S
N177 C180 1.372 . S
N178 C180 1.361 . S
N178 C181 1.377 1_554 S
C179 N176 1.382 1_554 S
C179 N177 1.371 . S
C179 C182 1.480 . S
C180 N177 1.372 . S
C180 N178 1.361 . S
C180 C188 1.457 . S
C181 N176 1.363 . S
C181 N178 1.377 1_556 S
C181 C194 1.479 . S
C182 C179 1.480 . S
C182 C183 1.383 1_554 S
C182 C187 1.385 . S
C183 H164 0.947 . S
C183 C182 1.383 1_556 S
C183 C184 1.388 . S
C184 H165 0.946 . S
C184 C183 1.388 . S
C184 C185 1.384 1_556 S
C185 C184 1.384 1_554 S
C185 C186 1.377 . S
C186 H166 0.953 . S
C186 C185 1.377 . S
C186 C187 1.369 . S
C187 H167 0.945 . S
C187 C182 1.385 . S
C187 C186 1.369 . S
C188 C180 1.457 . S
C188 C189 1.372 . S
C188 C193 1.364 . S
C189 H168 0.952 . S
C189 C188 1.372 . S
C189 C190 1.389 . S
C190 H169 0.949 . S
C190 C189 1.389 . S
C190 C191 1.387 . S
C191 C190 1.387 . S
C191 C192 1.372 . S
C192 H170 0.950 . S
C192 C191 1.372 . S
C192 C193 1.379 . S
C193 H171 0.948 . S
C193 C188 1.364 . S
C193 C192 1.379 . S
C194 C163 1.383 . S
C194 C181 1.479 . S
C194 C195 1.398 . S
C195 C160 1.382 . S
C195 H172 0.951 . S
C195 C194 1.398 . S
C196 C197 1.384 . S
C196 H209 0.947 . S
C196 C231 1.382 . S
C197 C196 1.384 . S
C197 C198 1.378 . S
C198 C197 1.378 . S
C198 C199 1.378 . S
C198 H210 0.952 . S
C199 C198 1.378 . S
C199 H211 0.950 . S
C199 C230 1.383 . S
H200 C219 0.947 . S
H201 C220 0.946 . S
H202 C222 0.953 . S
H203 C223 0.945 . S
H204 C225 0.952 . S
H205 C226 0.949 . S
H206 C228 0.950 . S
H207 C229 0.948 . S
H208 C231 0.951 . S
H209 C196 0.947 . S
H210 C198 0.952 . S
H211 C199 0.950 . S
N212 C215 1.382 1_455 S
N212 C217 1.363 . S
N213 C215 1.371 1_455 S
N213 C216 1.372 . S
N214 C216 1.361 . S
N214 C217 1.377 . S
C215 N212 1.382 1_655 S
C215 N213 1.371 1_655 S
C215 C218 1.480 . S
C216 N213 1.372 . S
C216 N214 1.361 . S
C216 C224 1.457 . S
C217 N212 1.363 . S
C217 N214 1.377 . S
C217 C230 1.479 . S
C218 C215 1.480 . S
C218 C219 1.383 . S
C218 C223 1.385 . S
C219 H200 0.947 . S
C219 C218 1.383 . S
C219 C220 1.388 . S
C220 H201 0.946 . S
C220 C219 1.388 . S
C220 C221 1.384 . S
C221 C220 1.384 . S
C221 C222 1.377 . S
C222 H202 0.953 . S
C222 C221 1.377 . S
C222 C223 1.369 . S
C223 H203 0.945 . S
C223 C218 1.385 . S
C223 C222 1.369 . S
C224 C216 1.457 . S
C224 C225 1.372 . S
C224 C229 1.364 . S
C225 H204 0.952 . S
C225 C224 1.372 . S
C225 C226 1.389 . S
C226 H205 0.949 . S
C226 C225 1.389 . S
C226 C227 1.387 . S
C227 C226 1.387 . S
C227 C228 1.372 . S
C228 H206 0.950 . S
C228 C227 1.372 . S
C228 C229 1.379 . S
C229 H207 0.948 . S
C229 C224 1.364 . S
C229 C228 1.379 . S
C230 C199 1.383 . S
C230 C217 1.479 . S
C230 C231 1.398 . S
C231 C196 1.382 . S
C231 H208 0.951 . S
C231 C230 1.398 . S
C232 C233 1.384 . S
C232 H245 0.947 . S
C232 C267 1.382 . S
C233 C232 1.384 . S
C233 C234 1.378 . S
C234 C233 1.378 . S
C234 C235 1.378 . S
C234 H246 0.952 . S
C235 C234 1.378 . S
C235 H247 0.950 . S
C235 C266 1.383 . S
H236 C255 0.947 . S
H237 C256 0.946 . S
H238 C258 0.953 . S
H239 C259 0.945 . S
H240 C261 0.952 . S
H241 C262 0.949 . S
H242 C264 0.950 . S
H243 C265 0.948 . S
H244 C267 0.951 . S
H245 C232 0.947 . S
H246 C234 0.952 . S
H247 C235 0.950 . S
N248 C251 1.382 1_565 S
N248 C253 1.363 . S
N249 C251 1.371 1_565 S
N249 C252 1.372 . S
N250 C252 1.361 . S
N250 C253 1.377 . S
C251 N248 1.382 1_545 S
C251 N249 1.371 1_545 S
C251 C254 1.480 . S
C252 N249 1.372 . S
C252 N250 1.361 . S
C252 C260 1.457 . S
C253 N248 1.363 . S
C253 N250 1.377 . S
C253 C266 1.479 . S
C254 C251 1.480 . S
C254 C255 1.383 . S
C254 C259 1.385 . S
C255 H236 0.947 . S
C255 C254 1.383 . S
C255 C256 1.388 . S
C256 H237 0.946 . S
C256 C255 1.388 . S
C256 C257 1.384 . S
C257 C256 1.384 . S
C257 C258 1.377 . S
C258 H238 0.953 . S
C258 C257 1.377 . S
C258 C259 1.369 . S
C259 H239 0.945 . S
C259 C254 1.385 . S
C259 C258 1.369 . S
C260 C252 1.457 . S
C260 C261 1.372 . S
C260 C265 1.364 . S
C261 H240 0.952 . S
C261 C260 1.372 . S
C261 C262 1.389 . S
C262 H241 0.949 . S
C262 C261 1.389 . S
C262 C263 1.387 . S
C263 C262 1.387 . S
C263 C264 1.372 . S
C264 H242 0.950 . S
C264 C263 1.372 . S
C264 C265 1.379 . S
C265 H243 0.948 . S
C265 C260 1.364 . S
C265 C264 1.379 . S
C266 C235 1.383 . S
C266 C253 1.479 . S
C266 C267 1.398 . S
C267 C232 1.382 . S
C267 H244 0.951 . S
C267 C266 1.398 . S
C268 C269 1.384 . S
C268 H281 0.947 . S
C268 C303 1.382 . S
C269 C268 1.384 . S
C269 C270 1.378 . S
C270 C269 1.378 . S
C270 C271 1.378 . S
C270 H282 0.952 . S
C271 C270 1.378 . S
C271 H283 0.950 . S
C271 C302 1.383 . S
H272 C291 0.947 . S
H273 C292 0.946 . S
H274 C294 0.953 . S
H275 C295 0.945 . S
H276 C297 0.952 . S
H277 C298 0.949 . S
H278 C300 0.950 . S
H279 C301 0.948 . S
H280 C303 0.951 . S
H281 C268 0.947 . S
H282 C270 0.952 . S
H283 C271 0.950 . S
N284 C287 1.382 1_556 S
N284 C289 1.363 . S
N285 C287 1.371 . S
N285 C288 1.372 . S
N286 C288 1.361 . S
N286 C289 1.377 1_554 S
C287 N284 1.382 1_554 S
C287 N285 1.371 . S
C287 C290 1.480 . S
C288 N285 1.372 . S
C288 N286 1.361 . S
C288 C296 1.457 . S
C289 N284 1.363 . S
C289 N286 1.377 1_556 S
C289 C302 1.479 . S
C290 C287 1.480 . S
C290 C291 1.383 1_554 S
C290 C295 1.385 . S
C291 H272 0.947 . S
C291 C290 1.383 1_556 S
C291 C292 1.388 . S
C292 H273 0.946 . S
C292 C291 1.388 . S
C292 C293 1.384 1_556 S
C293 C292 1.384 1_554 S
C293 C294 1.377 . S
C294 H274 0.953 . S
C294 C293 1.377 . S
C294 C295 1.369 . S
C295 H275 0.945 . S
C295 C290 1.385 . S
C295 C294 1.369 . S
C296 C288 1.457 . S
C296 C297 1.372 . S
C296 C301 1.364 . S
C297 H276 0.952 . S
C297 C296 1.372 . S
C297 C298 1.389 . S
C298 H277 0.949 . S
C298 C297 1.389 . S
C298 C299 1.387 . S
C299 C298 1.387 . S
C299 C300 1.372 . S
C300 H278 0.950 . S
C300 C299 1.372 . S
C300 C301 1.379 . S
C301 H279 0.948 . S
C301 C296 1.364 . S
C301 C300 1.379 . S
C302 C271 1.383 . S
C302 C289 1.479 . S
C302 C303 1.398 . S
C303 C268 1.382 . S
C303 H280 0.951 . S
C303 C302 1.398 . S
C304 C305 1.384 . S
C304 H317 0.947 . S
C304 C339 1.382 . S
C305 C304 1.384 . S
C305 C306 1.378 . S
C306 C305 1.378 . S
C306 C307 1.378 . S
C306 H318 0.952 . S
C307 C306 1.378 . S
C307 H319 0.950 . S
C307 C338 1.383 . S
H308 C327 0.947 . S
H309 C328 0.946 . S
H310 C330 0.953 . S
H311 C331 0.945 . S
H312 C333 0.952 . S
H313 C334 0.949 . S
H314 C336 0.950 . S
H315 C337 0.948 . S
H316 C339 0.951 . S
H317 C304 0.947 . S
H318 C306 0.952 . S
H319 C307 0.950 . S
N320 C323 1.382 1_545 S
N320 C325 1.363 . S
N321 C323 1.371 1_545 S
N321 C324 1.372 . S
N322 C324 1.361 . S
N322 C325 1.377 . S
C323 N320 1.382 1_565 S
C323 N321 1.371 1_565 S
C323 C326 1.480 . S
C324 N321 1.372 . S
C324 N322 1.361 . S
C324 C332 1.457 . S
C325 N320 1.363 . S
C325 N322 1.377 . S
C325 C338 1.479 . S
C326 C323 1.480 . S
C326 C327 1.383 . S
C326 C331 1.385 . S
C327 H308 0.947 . S
C327 C326 1.383 . S
C327 C328 1.388 . S
C328 H309 0.946 . S
C328 C327 1.388 . S
C328 C329 1.384 . S
C329 C328 1.384 . S
C329 C330 1.377 . S
C330 H310 0.953 . S
C330 C329 1.377 . S
C330 C331 1.369 . S
C331 H311 0.945 . S
C331 C326 1.385 . S
C331 C330 1.369 . S
C332 C324 1.457 . S
C332 C333 1.372 . S
C332 C337 1.364 . S
C333 H312 0.952 . S
C333 C332 1.372 . S
C333 C334 1.389 . S
C334 H313 0.949 . S
C334 C333 1.389 . S
C334 C335 1.387 . S
C335 C334 1.387 . S
C335 C336 1.372 . S
C336 H314 0.950 . S
C336 C335 1.372 . S
C336 C337 1.379 . S
C337 H315 0.948 . S
C337 C332 1.364 . S
C337 C336 1.379 . S
C338 C307 1.383 . S
C338 C325 1.479 . S
C338 C339 1.398 . S
C339 C304 1.382 . S
C339 H316 0.951 . S
C339 C338 1.398 . S
C340 C341 1.384 . S
C340 H353 0.947 . S
C340 C375 1.382 . S
C341 C340 1.384 . S
C341 C342 1.378 . S
C342 C341 1.378 . S
C342 C343 1.378 . S
C342 H354 0.952 . S
C343 C342 1.378 . S
C343 H355 0.950 . S
C343 C374 1.383 . S
H344 C363 0.947 . S
H345 C364 0.946 . S
H346 C366 0.953 . S
H347 C367 0.945 . S
H348 C369 0.952 . S
H349 C370 0.949 . S
H350 C372 0.950 . S
H351 C373 0.948 . S
H352 C375 0.951 . S
H353 C340 0.947 . S
H354 C342 0.952 . S
H355 C343 0.950 . S
N356 C359 1.366 1_554 S
N356 C361 1.363 . S
N357 C359 1.387 . S
N357 C360 1.372 . S
N358 C360 1.361 . S
N358 C361 1.377 1_556 S
C359 N356 1.366 1_556 S
C359 N357 1.387 . S
C359 C362 1.480 . S
C360 N357 1.372 . S
C360 N358 1.361 . S
C360 C368 1.457 . S
C361 N356 1.363 . S
C361 N358 1.377 1_554 S
C361 C374 1.479 . S
C362 C359 1.480 . S
C362 C363 1.383 1_556 S
C362 C367 1.385 . S
C363 H344 0.947 . S
C363 C362 1.383 1_554 S
C363 C364 1.388 . S
C364 H345 0.946 . S
C364 C363 1.388 . S
C364 C365 1.384 1_554 S
C365 C364 1.384 1_556 S
C365 C366 1.377 . S
C366 H346 0.953 . S
C366 C365 1.377 . S
C366 C367 1.369 . S
C367 H347 0.945 . S
C367 C362 1.385 . S
C367 C366 1.369 . S
C368 C360 1.457 . S
C368 C369 1.372 . S
C368 C373 1.364 . S
C369 H348 0.952 . S
C369 C368 1.372 . S
C369 C370 1.389 . S
C370 H349 0.949 . S
C370 C369 1.389 . S
C370 C371 1.387 . S
C371 C370 1.387 . S
C371 C372 1.372 . S
C372 H350 0.950 . S
C372 C371 1.372 . S
C372 C373 1.379 . S
C373 H351 0.948 . S
C373 C368 1.364 . S
C373 C372 1.379 . S
C374 C343 1.383 . S
C374 C361 1.479 . S
C374 C375 1.398 . S
C375 C340 1.382 . S
C375 H352 0.951 . S
C375 C374 1.398 . S
H376 C384 0.950 . S
H377 C389 0.950 . S
H378 C386 0.950 . S
H379 C388 0.950 . S
H380 C390 0.950 . S
H381 C392 0.950 . S
H382 C394 0.950 . S
H383 C395 0.950 . S
C384 H376 0.950 . S
C384 C385 1.386 . S
C384 C386 1.391 . S
C385 C384 1.386 . S
C385 C389 1.393 . S
C386 H378 0.950 . S
C386 C384 1.391 . S
C386 C387 1.400 . S
C387 C386 1.400 . S
C387 C388 1.398 . S
C387 C393 1.491 . S
C388 H379 0.950 . S
C388 C387 1.398 . S
C388 C389 1.391 . S
C389 H377 0.950 . S
C389 C385 1.393 . S
C389 C388 1.391 . S
C390 H380 0.950 . S
C390 C391 1.386 . S
C390 C392 1.391 . S
C391 C390 1.386 . S
C391 C395 1.393 . S
C392 H381 0.950 . S
C392 C390 1.391 . S
C392 C393 1.400 . S
C393 C387 1.491 . S
C393 C392 1.400 . S
C393 C394 1.398 . S
C394 H382 0.950 . S
C394 C393 1.398 . S
C394 C395 1.391 . S
C395 H383 0.950 . S
C395 C391 1.393 . S
C395 C394 1.391 . S
H396 C404 0.950 . S
H397 C409 0.950 . S
H398 C406 0.950 . S
H399 C408 0.950 . S
H400 C410 0.950 . S
H401 C412 0.950 . S
H402 C414 0.950 . S
H403 C415 0.950 . S
C404 H396 0.950 . S
C404 C405 1.386 . S
C404 C406 1.391 . S
C405 C404 1.386 . S
C405 C409 1.393 . S
C406 H398 0.950 . S
C406 C404 1.391 . S
C406 C407 1.400 . S
C407 C406 1.400 . S
C407 C408 1.398 . S
C407 C413 1.491 . S
C408 H399 0.950 . S
C408 C407 1.398 . S
C408 C409 1.391 . S
C409 H397 0.950 . S
C409 C405 1.393 . S
C409 C408 1.391 . S
C410 H400 0.950 . S
C410 C411 1.386 . S
C410 C412 1.391 . S
C411 C410 1.386 . S
C411 C415 1.393 . S
C412 H401 0.950 . S
C412 C410 1.391 . S
C412 C413 1.400 . S
C413 C407 1.491 . S
C413 C412 1.400 . S
C413 C414 1.398 . S
C414 H402 0.950 . S
C414 C413 1.398 . S
C414 C415 1.391 . S
C415 H403 0.950 . S
C415 C411 1.393 . S
C415 C414 1.391 . S
H416 C424 0.950 . S
H417 C429 0.950 . S
H418 C426 0.950 . S
H419 C428 0.950 . S
H420 C430 0.950 . S
H421 C432 0.950 . S
H422 C434 0.950 . S
H423 C435 0.950 . S
C424 H416 0.950 . S
C424 C425 1.386 . S
C424 C426 1.391 . S
C425 C424 1.386 . S
C425 C429 1.393 . S
C426 H418 0.950 . S
C426 C424 1.391 . S
C426 C427 1.400 . S
C427 C426 1.400 . S
C427 C428 1.398 . S
C427 C433 1.491 . S
C428 H419 0.950 . S
C428 C427 1.398 . S
C428 C429 1.391 . S
C429 H417 0.950 . S
C429 C425 1.393 . S
C429 C428 1.391 . S
C430 H420 0.950 . S
C430 C431 1.386 . S
C430 C432 1.391 . S
C431 C430 1.386 . S
C431 C435 1.393 . S
C432 H421 0.950 . S
C432 C430 1.391 . S
C432 C433 1.400 . S
C433 C427 1.491 . S
C433 C432 1.400 . S
C433 C434 1.398 . S
C434 H422 0.950 . S
C434 C433 1.398 . S
C434 C435 1.391 . S
C435 H423 0.950 . S
C435 C431 1.393 . S
C435 C434 1.391 . S
H436 C444 0.950 . S
H437 C449 0.950 . S
H438 C446 0.950 . S
H439 C448 0.950 . S
H440 C450 0.950 . S
H441 C452 0.950 . S
H442 C454 0.950 . S
H443 C455 0.950 . S
C444 H436 0.950 . S
C444 C445 1.386 . S
C444 C446 1.391 . S
C445 C444 1.386 . S
C445 C449 1.393 . S
C446 H438 0.950 . S
C446 C444 1.391 . S
C446 C447 1.400 . S
C447 C446 1.400 . S
C447 C448 1.398 . S
C447 C453 1.491 . S
C448 H439 0.950 . S
C448 C447 1.398 . S
C448 C449 1.391 . S
C449 H437 0.950 . S
C449 C445 1.393 . S
C449 C448 1.391 . S
C450 H440 0.950 . S
C450 C451 1.386 . S
C450 C452 1.391 . S
C451 C450 1.386 . S
C451 C455 1.393 . S
C452 H441 0.950 . S
C452 C450 1.391 . S
C452 C453 1.400 . S
C453 C447 1.491 . S
C453 C452 1.400 . S
C453 C454 1.398 . S
C454 H442 0.950 . S
C454 C453 1.398 . S
C454 C455 1.391 . S
C455 H443 0.950 . S
C455 C451 1.393 . S
C455 C454 1.391 . S
H456 C464 0.950 . S
H457 C469 0.950 . S
H458 C466 0.950 . S
H459 C468 0.950 . S
H460 C470 0.950 . S
H461 C472 0.950 . S
H462 C474 0.950 . S
H463 C475 0.950 . S
C464 H456 0.950 . S
C464 C465 1.386 . S
C464 C466 1.391 . S
C465 C464 1.386 . S
C465 C469 1.393 . S
C466 H458 0.950 . S
C466 C464 1.391 . S
C466 C467 1.400 . S
C467 C466 1.400 . S
C467 C468 1.398 . S
C467 C473 1.491 . S
C468 H459 0.950 . S
C468 C467 1.398 . S
C468 C469 1.391 . S
C469 H457 0.950 . S
C469 C465 1.393 . S
C469 C468 1.391 . S
C470 H460 0.950 . S
C470 C471 1.386 . S
C470 C472 1.391 . S
C471 C470 1.386 . S
C471 C475 1.393 . S
C472 H461 0.950 . S
C472 C470 1.391 . S
C472 C473 1.400 . S
C473 C467 1.491 . S
C473 C472 1.400 . S
C473 C474 1.398 . S
C474 H462 0.950 . S
C474 C473 1.398 . S
C474 C475 1.391 . S
C475 H463 0.950 . S
C475 C471 1.393 . S
C475 C474 1.391 . S
H476 C484 0.950 . S
H477 C489 0.950 . S
H478 C486 0.950 . S
H479 C488 0.950 . S
H480 C490 0.950 . S
H481 C492 0.950 . S
H482 C494 0.950 . S
H483 C495 0.950 . S
C484 H476 0.950 . S
C484 C485 1.386 . S
C484 C486 1.391 . S
C485 C484 1.386 . S
C485 C489 1.393 . S
C486 H478 0.950 . S
C486 C484 1.391 . S
C486 C487 1.400 . S
C487 C486 1.400 . S
C487 C488 1.398 . S
C487 C493 1.491 . S
C488 H479 0.950 . S
C488 C487 1.398 . S
C488 C489 1.391 . S
C489 H477 0.950 . S
C489 C485 1.393 . S
C489 C488 1.391 . S
C490 H480 0.950 . S
C490 C491 1.386 . S
C490 C492 1.391 . S
C491 C490 1.386 . S
C491 C495 1.393 . S
C492 H481 0.950 . S
C492 C490 1.391 . S
C492 C493 1.400 . S
C493 C487 1.491 . S
C493 C492 1.400 . S
C493 C494 1.398 . S
C494 H482 0.950 . S
C494 C493 1.398 . S
C494 C495 1.391 . S
C495 H483 0.950 . S
C495 C491 1.393 . S
C495 C494 1.391 . S
H496 C504 0.950 . S
H497 C509 0.950 . S
H498 C506 0.950 . S
H499 C508 0.950 . S
H500 C510 0.950 . S
H501 C512 0.950 . S
H502 C514 0.950 . S
H503 C515 0.950 . S
C504 H496 0.950 . S
C504 C505 1.386 . S
C504 C506 1.391 . S
C505 C504 1.386 . S
C505 C509 1.393 . S
C506 H498 0.950 . S
C506 C504 1.391 . S
C506 C507 1.400 . S
C507 C506 1.400 . S
C507 C508 1.398 . S
C507 C513 1.491 . S
C508 H499 0.950 . S
C508 C507 1.398 . S
C508 C509 1.391 . S
C509 H497 0.950 . S
C509 C505 1.393 . S
C509 C508 1.391 . S
C510 H500 0.950 . S
C510 C511 1.386 . S
C510 C512 1.391 . S
C511 C510 1.386 . S
C511 C515 1.393 . S
C512 H501 0.950 . S
C512 C510 1.391 . S
C512 C513 1.400 . S
C513 C507 1.491 . S
C513 C512 1.400 . S
C513 C514 1.398 . S
C514 H502 0.950 . S
C514 C513 1.398 . S
C514 C515 1.391 . S
C515 H503 0.950 . S
C515 C511 1.393 . S
C515 C514 1.391 . S
H516 C524 0.950 . S
H517 C529 0.950 . S
H518 C526 0.950 . S
H519 C528 0.950 . S
H520 C530 0.950 . S
H521 C532 0.950 . S
H522 C534 0.950 . S
H523 C535 0.950 . S
C524 H516 0.950 . S
C524 C525 1.386 . S
C524 C526 1.391 . S
C525 C524 1.386 . S
C525 C529 1.393 . S
C526 H518 0.950 . S
C526 C524 1.391 . S
C526 C527 1.400 . S
C527 C526 1.400 . S
C527 C528 1.398 . S
C527 C533 1.491 . S
C528 H519 0.950 . S
C528 C527 1.398 . S
C528 C529 1.391 . S
C529 H517 0.950 . S
C529 C525 1.393 . S
C529 C528 1.391 . S
C530 H520 0.950 . S
C530 C531 1.386 . S
C530 C532 1.391 . S
C531 C530 1.386 . S
C531 C535 1.393 . S
C532 H521 0.950 . S
C532 C530 1.391 . S
C532 C533 1.400 . S
C533 C527 1.491 . S
C533 C532 1.400 . S
C533 C534 1.398 . S
C534 H522 0.950 . S
C534 C533 1.398 . S
C534 C535 1.391 . S
C535 H523 0.950 . S
C535 C531 1.393 . S
C535 C534 1.391 . S
H536 C544 0.950 . S
H537 C549 0.950 . S
H538 C546 0.950 . S
H539 C548 0.950 . S
H540 C550 0.950 . S
H541 C552 0.950 . S
H542 C554 0.950 . S
H543 C555 0.950 . S
C544 H536 0.950 . S
C544 C545 1.386 . S
C544 C546 1.391 . S
C545 C544 1.386 . S
C545 C549 1.393 . S
C546 H538 0.950 . S
C546 C544 1.391 . S
C546 C547 1.400 . S
C547 C546 1.400 . S
C547 C548 1.398 . S
C547 C553 1.491 . S
C548 H539 0.950 . S
C548 C547 1.398 . S
C548 C549 1.391 . S
C549 H537 0.950 . S
C549 C545 1.393 . S
C549 C548 1.391 . S
C550 H540 0.950 . S
C550 C551 1.386 . S
C550 C552 1.391 . S
C551 C550 1.386 . S
C551 C555 1.393 . S
C552 H541 0.950 . S
C552 C550 1.391 . S
C552 C553 1.400 . S
C553 C547 1.491 . S
C553 C552 1.400 . S
C553 C554 1.398 . S
C554 H542 0.950 . S
C554 C553 1.398 . S
C554 C555 1.391 . S
C555 H543 0.950 . S
C555 C551 1.393 . S
C555 C554 1.391 . S
H556 C564 0.950 . S
H557 C569 0.950 . S
H558 C566 0.950 . S
H559 C568 0.950 . S
H560 C570 0.950 . S
H561 C572 0.950 . S
H562 C574 0.950 . S
H563 C575 0.950 . S
C564 H556 0.950 . S
C564 C565 1.386 . S
C564 C566 1.391 . S
C565 C564 1.386 . S
C565 C569 1.393 . S
C566 H558 0.950 . S
C566 C564 1.391 . S
C566 C567 1.400 . S
C567 C566 1.400 . S
C567 C568 1.398 . S
C567 C573 1.491 . S
C568 H559 0.950 . S
C568 C567 1.398 . S
C568 C569 1.391 . S
C569 H557 0.950 . S
C569 C565 1.393 . S
C569 C568 1.391 . S
C570 H560 0.950 . S
C570 C571 1.386 . S
C570 C572 1.391 . S
C571 C570 1.386 . S
C571 C575 1.393 . S
C572 H561 0.950 . S
C572 C570 1.391 . S
C572 C573 1.400 . S
C573 C567 1.491 . S
C573 C572 1.400 . S
C573 C574 1.398 . S
C574 H562 0.950 . S
C574 C573 1.398 . S
C574 C575 1.391 . S
C575 H563 0.950 . S
C575 C571 1.393 . S
C575 C574 1.391 . S
H576 C584 0.950 . S
H577 C589 0.950 . S
H578 C586 0.950 . S
H579 C588 0.950 . S
H580 C590 0.950 . S
H581 C592 0.950 . S
H582 C594 0.950 . S
H583 C595 0.950 . S
C584 H576 0.950 . S
C584 C585 1.386 . S
C584 C586 1.391 . S
C585 C584 1.386 . S
C585 C589 1.393 . S
C586 H578 0.950 . S
C586 C584 1.391 . S
C586 C587 1.400 . S
C587 C586 1.400 . S
C587 C588 1.398 . S
C587 C593 1.491 . S
C588 H579 0.950 . S
C588 C587 1.398 . S
C588 C589 1.391 . S
C589 H577 0.950 . S
C589 C585 1.393 . S
C589 C588 1.391 . S
C590 H580 0.950 . S
C590 C591 1.386 . S
C590 C592 1.391 . S
C591 C590 1.386 . S
C591 C595 1.393 . S
C592 H581 0.950 . S
C592 C590 1.391 . S
C592 C593 1.400 . S
C593 C587 1.491 . S
C593 C592 1.400 . S
C593 C594 1.398 . S
C594 H582 0.950 . S
C594 C593 1.398 . S
C594 C595 1.391 . S
C595 H583 0.950 . S
C595 C591 1.393 . S
C595 C594 1.391 . S
H596 C604 0.950 . S
H597 C609 0.950 . S
H598 C606 0.950 . S
H599 C608 0.950 . S
H600 C610 0.950 . S
H601 C612 0.950 . S
H602 C614 0.950 . S
H603 C615 0.950 . S
C604 H596 0.950 . S
C604 C605 1.386 . S
C604 C606 1.391 . S
C605 C604 1.386 . S
C605 C609 1.393 . S
C606 H598 0.950 . S
C606 C604 1.391 . S
C606 C607 1.400 . S
C607 C606 1.400 . S
C607 C608 1.398 . S
C607 C613 1.491 . S
C608 H599 0.950 . S
C608 C607 1.398 . S
C608 C609 1.391 . S
C609 H597 0.950 . S
C609 C605 1.393 . S
C609 C608 1.391 . S
C610 H600 0.950 . S
C610 C611 1.386 . S
C610 C612 1.391 . S
C611 C610 1.386 . S
C611 C615 1.393 . S
C612 H601 0.950 . S
C612 C610 1.391 . S
C612 C613 1.400 . S
C613 C607 1.491 . S
C613 C612 1.400 . S
C613 C614 1.398 . S
C614 H602 0.950 . S
C614 C613 1.398 . S
C614 C615 1.391 . S
C615 H603 0.950 . S
C615 C611 1.393 . S
C615 C614 1.391 . S
H616 C624 0.950 . S
H617 C629 0.950 . S
H618 C626 0.950 . S
H619 C628 0.950 . S
H620 C630 0.950 . S
H621 C632 0.950 . S
H622 C634 0.950 . S
H623 C635 0.950 . S
C624 H616 0.950 . S
C624 C625 1.386 . S
C624 C626 1.391 . S
C625 C624 1.386 . S
C625 C629 1.393 . S
C626 H618 0.950 . S
C626 C624 1.391 . S
C626 C627 1.400 . S
C627 C626 1.400 . S
C627 C628 1.398 . S
C627 C633 1.491 . S
C628 H619 0.950 . S
C628 C627 1.398 . S
C628 C629 1.391 . S
C629 H617 0.950 . S
C629 C625 1.393 . S
C629 C628 1.391 . S
C630 H620 0.950 . S
C630 C631 1.386 . S
C630 C632 1.391 . S
C631 C630 1.386 . S
C631 C635 1.393 . S
C632 H621 0.950 . S
C632 C630 1.391 . S
C632 C633 1.400 . S
C633 C627 1.491 . S
C633 C632 1.400 . S
C633 C634 1.398 . S
C634 H622 0.950 . S
C634 C633 1.398 . S
C634 C635 1.391 . S
C635 H623 0.950 . S
C635 C631 1.393 . S
C635 C634 1.391 . S
H636 C644 0.950 . S
H637 C649 0.950 . S
H638 C646 0.950 . S
H639 C648 0.950 . S
H640 C650 0.950 . S
H641 C652 0.950 . S
H642 C654 0.950 . S
H643 C655 0.950 . S
C644 H636 0.950 . S
C644 C645 1.386 . S
C644 C646 1.391 . S
C645 C644 1.386 . S
C645 C649 1.393 . S
C646 H638 0.950 . S
C646 C644 1.391 . S
C646 C647 1.400 . S
C647 C646 1.400 . S
C647 C648 1.398 . S
C647 C653 1.491 . S
C648 H639 0.950 . S
C648 C647 1.398 . S
C648 C649 1.391 . S
C649 H637 0.950 . S
C649 C645 1.393 . S
C649 C648 1.391 . S
C650 H640 0.950 . S
C650 C651 1.386 . S
C650 C652 1.391 . S
C651 C650 1.386 . S
C651 C655 1.393 . S
C652 H641 0.950 . S
C652 C650 1.391 . S
C652 C653 1.400 . S
C653 C647 1.491 . S
C653 C652 1.400 . S
C653 C654 1.398 . S
C654 H642 0.950 . S
C654 C653 1.398 . S
C654 C655 1.391 . S
C655 H643 0.950 . S
C655 C651 1.393 . S
C655 C654 1.391 . S
H656 C664 0.950 . S
H657 C669 0.950 . S
H658 C666 0.950 . S
H659 C668 0.950 . S
H660 C670 0.950 . S
H661 C672 0.950 . S
H662 C674 0.950 . S
H663 C675 0.950 . S
C664 H656 0.950 . S
C664 C665 1.386 . S
C664 C666 1.391 . S
C665 C664 1.386 . S
C665 C669 1.393 . S
C666 H658 0.950 . S
C666 C664 1.391 . S
C666 C667 1.400 . S
C667 C666 1.400 . S
C667 C668 1.398 . S
C667 C673 1.491 . S
C668 H659 0.950 . S
C668 C667 1.398 . S
C668 C669 1.391 . S
C669 H657 0.950 . S
C669 C665 1.393 . S
C669 C668 1.391 . S
C670 H660 0.950 . S
C670 C671 1.386 . S
C670 C672 1.391 . S
C671 C670 1.386 . S
C671 C675 1.393 . S
C672 H661 0.950 . S
C672 C670 1.391 . S
C672 C673 1.400 . S
C673 C667 1.491 . S
C673 C672 1.400 . S
C673 C674 1.398 . S
C674 H662 0.950 . S
C674 C673 1.398 . S
C674 C675 1.391 . S
C675 H663 0.950 . S
C675 C671 1.393 . S
C675 C674 1.391 . S
H676 C684 0.950 . S
H677 C689 0.950 . S
H678 C686 0.950 . S
H679 C688 0.950 . S
H680 C690 0.950 . S
H681 C692 0.950 . S
H682 C694 0.950 . S
H683 C695 0.950 . S
C684 H676 0.950 . S
C684 C685 1.386 . S
C684 C686 1.391 . S
C685 C684 1.386 . S
C685 C689 1.393 . S
C686 H678 0.950 . S
C686 C684 1.391 . S
C686 C687 1.400 . S
C687 C686 1.400 . S
C687 C688 1.398 . S
C687 C693 1.491 . S
C688 H679 0.950 . S
C688 C687 1.398 . S
C688 C689 1.391 . S
C689 H677 0.950 . S
C689 C685 1.393 . S
C689 C688 1.391 . S
C690 H680 0.950 . S
C690 C691 1.386 . S
C690 C692 1.391 . S
C691 C690 1.386 . S
C691 C695 1.393 . S
C692 H681 0.950 . S
C692 C690 1.391 . S
C692 C693 1.400 . S
C693 C687 1.491 . S
C693 C692 1.400 . S
C693 C694 1.398 . S
C694 H682 0.950 . S
C694 C693 1.398 . S
C694 C695 1.391 . S
C695 H683 0.950 . S
C695 C691 1.393 . S
C695 C694 1.391 . S
H696 C704 0.950 . S
H697 C709 0.950 . S
H698 C706 0.950 . S
H699 C708 0.950 . S
H700 C710 0.950 . S
H701 C712 0.950 . S
H702 C714 0.950 . S
H703 C715 0.950 . S
C704 H696 0.950 . S
C704 C705 1.376 1_556 S
C704 C706 1.391 . S
C705 C704 1.376 1_554 S
C705 C709 1.402 . S
C706 H698 0.950 . S
C706 C704 1.391 . S
C706 C707 1.396 1_556 S
C707 C706 1.396 1_554 S
C707 C708 1.403 . S
C707 C713 1.491 . S
C708 H699 0.950 . S
C708 C707 1.403 . S
C708 C709 1.391 . S
C709 H697 0.950 . S
C709 C705 1.402 . S
C709 C708 1.391 . S
C710 H700 0.950 . S
C710 C711 1.385 1_554 S
C710 C712 1.391 . S
C711 C710 1.385 1_556 S
C711 C715 1.393 . S
C712 H701 0.950 . S
C712 C710 1.391 . S
C712 C713 1.400 . S
C713 C707 1.491 . S
C713 C712 1.400 . S
C713 C714 1.399 1_554 S
C714 H702 0.950 . S
C714 C713 1.399 1_556 S
C714 C715 1.391 . S
C715 H703 0.950 . S
C715 C711 1.393 . S
C715 C714 1.391 . S
H716 C724 0.950 . S
H717 C729 0.950 . S
H718 C726 0.950 . S
H719 C728 0.950 . S
H720 C730 0.950 . S
H721 C732 0.950 . S
H722 C734 0.950 . S
H723 C735 0.950 . S
C724 H716 0.950 . S
C724 C725 1.386 . S
C724 C726 1.391 . S
C725 C724 1.386 . S
C725 C729 1.393 . S
C726 H718 0.950 . S
C726 C724 1.391 . S
C726 C727 1.400 . S
C727 C726 1.400 . S
C727 C728 1.398 . S
C727 C733 1.491 . S
C728 H719 0.950 . S
C728 C727 1.398 . S
C728 C729 1.391 . S
C729 H717 0.950 . S
C729 C725 1.393 . S
C729 C728 1.391 . S
C730 H720 0.950 . S
C730 C731 1.386 . S
C730 C732 1.391 . S
C731 C730 1.386 . S
C731 C735 1.393 . S
C732 H721 0.950 . S
C732 C730 1.391 . S
C732 C733 1.400 . S
C733 C727 1.491 . S
C733 C732 1.400 . S
C733 C734 1.398 . S
C734 H722 0.950 . S
C734 C733 1.398 . S
C734 C735 1.391 . S
C735 H723 0.950 . S
C735 C731 1.393 . S
C735 C734 1.391 . S
H736 C744 0.950 . S
H737 C749 0.950 . S
H738 C746 0.950 . S
H739 C748 0.950 . S
H740 C750 0.950 . S
H741 C752 0.950 . S
H742 C754 0.950 . S
H743 C755 0.950 . S
C744 H736 0.950 . S
C744 C745 1.386 . S
C744 C746 1.391 . S
C745 C744 1.386 . S
C745 C749 1.393 1_554 S
C746 H738 0.950 . S
C746 C744 1.391 . S
C746 C747 1.400 . S
C747 C746 1.400 . S
C747 C748 1.398 1_554 S
C747 C753 1.491 . S
C748 H739 0.950 . S
C748 C747 1.398 1_556 S
C748 C749 1.391 . S
C749 H737 0.950 . S
C749 C745 1.393 1_556 S
C749 C748 1.391 . S
C750 H740 0.950 . S
C750 C751 1.387 . S
C750 C752 1.391 . S
C751 C750 1.387 . S
C751 C755 1.391 1_556 S
C752 H741 0.950 . S
C752 C750 1.391 . S
C752 C753 1.398 1_556 S
C753 C747 1.491 . S
C753 C752 1.398 1_554 S
C753 C754 1.401 . S
C754 H742 0.950 . S
C754 C753 1.401 . S
C754 C755 1.391 . S
C755 H743 0.950 . S
C755 C751 1.391 1_554 S
C755 C754 1.391 . S
H756 C764 0.950 . S
H757 C769 0.950 . S
H758 C766 0.950 . S
H759 C768 0.950 . S
H760 C770 0.950 . S
H761 C772 0.950 . S
H762 C774 0.950 . S
H763 C775 0.950 . S
C764 H756 0.950 . S
C764 C765 1.386 . S
C764 C766 1.391 . S
C765 C764 1.386 . S
C765 C769 1.393 . S
C766 H758 0.950 . S
C766 C764 1.391 . S
C766 C767 1.400 . S
C767 C766 1.400 . S
C767 C768 1.398 . S
C767 C773 1.491 . S
C768 H759 0.950 . S
C768 C767 1.398 . S
C768 C769 1.391 . S
C769 H757 0.950 . S
C769 C765 1.393 . S
C769 C768 1.391 . S
C770 H760 0.950 . S
C770 C771 1.386 . S
C770 C772 1.391 . S
C771 C770 1.386 . S
C771 C775 1.393 . S
C772 H761 0.950 . S
C772 C770 1.391 . S
C772 C773 1.400 . S
C773 C767 1.491 . S
C773 C772 1.400 . S
C773 C774 1.398 . S
C774 H762 0.950 . S
C774 C773 1.398 . S
C774 C775 1.391 . S
C775 H763 0.950 . S
C775 C771 1.393 . S
C775 C774 1.391 . S
H776 C784 0.950 . S
H777 C789 0.950 . S
H778 C786 0.950 . S
H779 C788 0.950 . S
H780 C790 0.950 . S
H781 C792 0.950 . S
H782 C794 0.950 . S
H783 C795 0.950 . S
C784 H776 0.950 . S
C784 C785 1.386 . S
C784 C786 1.391 . S
C785 C784 1.386 . S
C785 C789 1.393 . S
C786 H778 0.950 . S
C786 C784 1.391 . S
C786 C787 1.400 . S
C787 C786 1.400 . S
C787 C788 1.398 . S
C787 C793 1.491 . S
C788 H779 0.950 . S
C788 C787 1.398 . S
C788 C789 1.391 . S
C789 H777 0.950 . S
C789 C785 1.393 . S
C789 C788 1.391 . S
C790 H780 0.950 . S
C790 C791 1.386 . S
C790 C792 1.391 . S
C791 C790 1.386 . S
C791 C795 1.393 . S
C792 H781 0.950 . S
C792 C790 1.391 . S
C792 C793 1.400 . S
C793 C787 1.491 . S
C793 C792 1.400 . S
C793 C794 1.398 . S
C794 H782 0.950 . S
C794 C793 1.398 . S
C794 C795 1.391 . S
C795 H783 0.950 . S
C795 C791 1.393 . S
C795 C794 1.391 . S
H796 C804 0.950 . S
H797 C809 0.950 . S
H798 C806 0.950 . S
H799 C808 0.950 . S
H800 C810 0.950 . S
H801 C812 0.950 . S
H802 C814 0.950 . S
H803 C815 0.950 . S
C804 H796 0.950 . S
C804 C805 1.386 1_556 S
C804 C806 1.391 . S
C805 C804 1.386 1_554 S
C805 C809 1.393 . S
C806 H798 0.950 . S
C806 C804 1.391 . S
C806 C807 1.400 1_556 S
C807 C806 1.400 1_554 S
C807 C808 1.398 . S
C807 C813 1.491 1_554 S
C808 H799 0.950 . S
C808 C807 1.398 . S
C808 C809 1.391 . S
C809 H797 0.950 . S
C809 C805 1.393 . S
C809 C808 1.391 . S
C810 H800 0.950 . S
C810 C811 1.384 1_554 S
C810 C812 1.391 . S
C811 C810 1.384 1_556 S
C811 C815 1.395 . S
C812 H801 0.950 . S
C812 C810 1.391 . S
C812 C813 1.400 1_554 S
C813 C807 1.491 1_556 S
C813 C812 1.400 1_556 S
C813 C814 1.398 . S
C814 H802 0.950 . S
C814 C813 1.398 . S
C814 C815 1.391 . S
C815 H803 0.950 . S
C815 C811 1.395 . S
C815 C814 1.391 . S
H816 C824 0.950 . S
H817 C829 0.950 . S
H818 C826 0.950 . S
H819 C828 0.950 . S
H820 C830 0.950 . S
H821 C832 0.950 . S
H822 C834 0.950 . S
H823 C835 0.950 . S
C824 H816 0.950 . S
C824 C825 1.386 . S
C824 C826 1.391 . S
C825 C824 1.386 . S
C825 C829 1.393 . S
C826 H818 0.950 . S
C826 C824 1.391 . S
C826 C827 1.400 . S
C827 C826 1.400 . S
C827 C828 1.398 . S
C827 C833 1.491 . S
C828 H819 0.950 . S
C828 C827 1.398 . S
C828 C829 1.391 . S
C829 H817 0.950 . S
C829 C825 1.393 . S
C829 C828 1.391 . S
C830 H820 0.950 . S
C830 C831 1.386 . S
C830 C832 1.391 . S
C831 C830 1.386 . S
C831 C835 1.393 . S
C832 H821 0.950 . S
C832 C830 1.391 . S
C832 C833 1.400 . S
C833 C827 1.491 . S
C833 C832 1.400 . S
C833 C834 1.398 . S
C834 H822 0.950 . S
C834 C833 1.398 . S
C834 C835 1.391 . S
C835 H823 0.950 . S
C835 C831 1.393 . S
C835 C834 1.391 . S
H836 C844 0.950 . S
H837 C849 0.950 . S
H838 C846 0.950 . S
H839 C848 0.950 . S
H840 C850 0.950 . S
H841 C852 0.950 . S
H842 C854 0.950 . S
H843 C855 0.950 . S
C844 H836 0.950 . S
C844 C845 1.386 . S
C844 C846 1.391 . S
C845 C844 1.386 . S
C845 C849 1.393 1_556 S
C846 H838 0.950 . S
C846 C844 1.391 . S
C846 C847 1.406 . S
C847 C846 1.406 . S
C847 C848 1.393 1_556 S
C847 C853 1.490 1_556 S
C848 H839 0.950 . S
C848 C847 1.393 1_554 S
C848 C849 1.391 . S
C849 H837 0.950 . S
C849 C845 1.393 1_554 S
C849 C848 1.391 . S
C850 H840 0.950 . S
C850 C851 1.386 . S
C850 C852 1.391 . S
C851 C850 1.386 . S
C851 C855 1.393 1_554 S
C852 H841 0.950 . S
C852 C850 1.391 . S
C852 C853 1.410 . S
C853 C847 1.490 1_554 S
C853 C852 1.410 . S
C853 C854 1.389 1_554 S
C854 H842 0.950 . S
C854 C853 1.389 1_556 S
C854 C855 1.391 . S
C855 H843 0.950 . S
C855 C851 1.393 1_556 S
C855 C854 1.391 . S
C385 C5 1.482 . S
C391 C197 1.477 . S
C405 C31 1.476 . S
C411 C119 1.453 . S
C431 C155 1.443 . S
C425 C53 1.481 . S
C445 C71 1.475 . S
C451 C161 1.480 . S
C471 C299 1.455 . S
C465 C75 1.475 . S
C491 C305 1.479 . S
C485 C9 1.481 . S
C511 C341 1.476 . S
C505 C27 1.480 . S
C531 C263 1.464 . S
C525 C49 1.471 . S
C545 C51 1.476 . S
C551 C125 1.459 . S
C565 C72 1.476 . S
C571 C191 1.478 . S
C585 C6 1.477 . S
C591 C227 1.473 . S
C611 C89 1.473 . S
C605 C29 1.467 . S
C625 C28 1.475 . S
C631 C371 1.482 . S
C651 C233 1.474 . S
C645 C50 1.467 . S
C671 C269 1.468 . S
C665 C73 1.475 . S
C685 C7 1.475 . S
C691 C335 1.476 . S
C711 C113 1.474 . S
C705 C4 1.505 . S
C731 C149 1.484 . S
C725 C30 1.498 . S
C745 C52 1.496 . S
C751 C185 1.508 1_556 S
C765 C70 1.501 . S
C771 C221 1.507 . S
C791 C257 1.485 . S
C785 C74 1.499 . S
C805 C8 1.500 . S
C811 C293 1.483 1_556 S
C825 C26 1.505 . S
C831 C329 1.504 . S
C845 C48 1.496 1_556 S
C851 C365 1.508 1_554 S
