# Generated by pormake.
# Topology hwx, (6,3)-cn, num edge types: 1
# Building blocks:
#     Node 0, Type 0, BuildingBlock: IZENUY_clean_sbu_0, # of connection points: 6
#     Node 1, Type 0, BuildingBlock: IZENUY_clean_sbu_0, # of connection points: 6
#     Node 2, Type 0, BuildingBlock: IZENUY_clean_sbu_0, # of connection points: 6
#     Node 3, Type 0, BuildingBlock: IZENUY_clean_sbu_0, # of connection points: 6
#     Node 4, Type 1, BuildingBlock: BETDAH_clean_linker_0, # of connection points: 3
#     Node 5, Type 1, BuildingBlock: BETDAH_clean_linker_0, # of connection points: 3
#     Node 6, Type 1, BuildingBlock: BETDAH_clean_linker_0, # of connection points: 3
#     Node 7, Type 1, BuildingBlock: BETDAH_clean_linker_0, # of connection points: 3
#     Node 8, Type 1, BuildingBlock: BETDAH_clean_linker_0, # of connection points: 3
#     Node 9, Type 1, BuildingBlock: BETDAH_clean_linker_0, # of connection points: 3
#     Node 10, Type 1, BuildingBlock: BETDAH_clean_linker_0, # of connection points: 3
#     Node 11, Type 1, BuildingBlock: BETDAH_clean_linker_0, # of connection points: 3
#     Edge 12, Type (0, 1), BuildingBlock: AJUNOK_clean_linker_0, # of connection points: 2
#     Edge 13, Type (0, 1), BuildingBlock: AJUNOK_clean_linker_0, # of connection points: 2
#     Edge 14, Type (0, 1), BuildingBlock: AJUNOK_clean_linker_0, # of connection points: 2
#     Edge 15, Type (0, 1), BuildingBlock: AJUNOK_clean_linker_0, # of connection points: 2
#     Edge 16, Type (0, 1), BuildingBlock: AJUNOK_clean_linker_0, # of connection points: 2
#     Edge 17, Type (0, 1), BuildingBlock: AJUNOK_clean_linker_0, # of connection points: 2
#     Edge 18, Type (0, 1), BuildingBlock: AJUNOK_clean_linker_0, # of connection points: 2
#     Edge 19, Type (0, 1), BuildingBlock: AJUNOK_clean_linker_0, # of connection points: 2
#     Edge 20, Type (0, 1), BuildingBlock: AJUNOK_clean_linker_0, # of connection points: 2
#     Edge 21, Type (0, 1), BuildingBlock: AJUNOK_clean_linker_0, # of connection points: 2
#     Edge 22, Type (0, 1), BuildingBlock: AJUNOK_clean_linker_0, # of connection points: 2
#     Edge 23, Type (0, 1), BuildingBlock: AJUNOK_clean_linker_0, # of connection points: 2
#     Edge 24, Type (0, 1), BuildingBlock: AJUNOK_clean_linker_0, # of connection points: 2
#     Edge 25, Type (0, 1), BuildingBlock: AJUNOK_clean_linker_0, # of connection points: 2
#     Edge 26, Type (0, 1), BuildingBlock: AJUNOK_clean_linker_0, # of connection points: 2
#     Edge 27, Type (0, 1), BuildingBlock: AJUNOK_clean_linker_0, # of connection points: 2
#     Edge 28, Type (0, 1), BuildingBlock: AJUNOK_clean_linker_0, # of connection points: 2
#     Edge 29, Type (0, 1), BuildingBlock: AJUNOK_clean_linker_0, # of connection points: 2
#     Edge 30, Type (0, 1), BuildingBlock: AJUNOK_clean_linker_0, # of connection points: 2
#     Edge 31, Type (0, 1), BuildingBlock: AJUNOK_clean_linker_0, # of connection points: 2
#     Edge 32, Type (0, 1), BuildingBlock: AJUNOK_clean_linker_0, # of connection points: 2
#     Edge 33, Type (0, 1), BuildingBlock: AJUNOK_clean_linker_0, # of connection points: 2
#     Edge 34, Type (0, 1), BuildingBlock: AJUNOK_clean_linker_0, # of connection points: 2
#     Edge 35, Type (0, 1), BuildingBlock: AJUNOK_clean_linker_0, # of connection points: 2
# Relax obj value: 0.004
# Max RMSD: 0.054
# Mean RMSD: 0.045
data_MOF--net-hwx--node1-IZENUY_clean_sbu_0--node2-BETDAH_clean_linker_0--edge1-AJUNOK_clean_linker_0
_symmetry_space_group_name_H-M    P1
_symmetry_Int_Tables_number       1
_symmetry_cell_setting            triclinic
loop_
_symmetry_equiv_pos_as_xyz
'x, y, z'
_cell_length_a     37.683337
_cell_length_b     37.692869
_cell_length_c     15.354607
_cell_angle_alpha  92.779082
_cell_angle_beta   92.510277
_cell_angle_gamma 90.234326
loop_
_atom_site_label
_atom_site_type_symbol
_atom_site_fract_x
_atom_site_fract_y
_atom_site_fract_z
_atom_type_partial_charge
Fe0 Fe 0.25908 0.26505 0.07852 0.0
Fe1 Fe 0.26113 0.25778 0.8791 0.0
O2 O 0.24297 0.24509 0.97743 0.0
Fe3 Fe 0.20872 0.21253 0.97476 0.0
O4 O 0.18664 0.23203 0.06992 0.0
O5 O 0.21541 0.28204 0.10305 0.0
O6 O 0.26884 0.30844 0.03502 0.0
C7 C 0.25625 0.32262 0.96741 0.0
C8 C 0.24782 0.19317 0.11778 0.0
O9 O 0.24809 0.30369 0.89942 0.0
C10 C 0.25447 0.18583 0.84473 0.0
O11 O 0.30382 0.24911 0.06138 0.0
O12 O 0.30627 0.26612 0.927 0.0
O13 O 0.23556 0.18369 0.04244 0.0
O14 O 0.25193 0.22565 0.14069 0.0
C15 C 0.18732 0.25106 0.83548 0.0
O16 O 0.27506 0.2125 0.85153 0.0
O17 O 0.22452 0.18715 0.87907 0.0
C18 C 0.32161 0.25569 0.99625 0.0
O19 O 0.21936 0.25201 0.81369 0.0
O20 O 0.17933 0.23903 0.90735 0.0
C21 C 0.18809 0.26276 0.10721 0.0
Fe22 Fe 0.27463 0.76107 0.61835 0.0
Fe23 Fe 0.31705 0.70532 0.51434 0.0
O24 O 0.28618 0.74079 0.51702 0.0
Fe25 Fe 0.26692 0.75599 0.41865 0.0
O26 O 0.28439 0.80071 0.44198 0.0
O27 O 0.26788 0.80556 0.57714 0.0
O28 O 0.32048 0.77393 0.6454 0.0
C29 C 0.34604 0.75242 0.64928 0.0
C30 C 0.20949 0.75748 0.53185 0.0
O31 O 0.3431 0.72177 0.61195 0.0
C32 C 0.26617 0.68451 0.37857 0.0
O33 O 0.27896 0.72029 0.678 0.0
O34 O 0.28901 0.67816 0.57825 0.0
O35 O 0.22412 0.76749 0.4645 0.0
O36 O 0.22799 0.74959 0.59852 0.0
C37 C 0.33832 0.74171 0.37659 0.0
O38 O 0.29666 0.68235 0.41604 0.0
O39 O 0.24815 0.71248 0.38812 0.0
C40 C 0.27741 0.68799 0.65135 0.0
O41 O 0.34721 0.72994 0.44987 0.0
O42 O 0.30606 0.74687 0.35482 0.0
C43 C 0.27829 0.81973 0.50966 0.0
Fe44 Fe 0.77305 0.77501 0.91259 0.0
Fe45 Fe 0.76687 0.77954 0.11156 0.0
O46 O 0.78582 0.79469 0.01673 0.0
Fe47 Fe 0.81763 0.82957 0.02602 0.0
O48 O 0.78988 0.85736 0.95801 0.0
O49 O 0.77857 0.81591 0.85449 0.0
O50 O 0.72664 0.78718 0.9247 0.0
C51 C 0.7087 0.77961 0.98896 0.0
C52 C 0.84452 0.78282 0.89434 0.0
O53 O 0.72362 0.76894 0.05819 0.0
C54 C 0.83895 0.79184 0.16578 0.0
O55 O 0.7653 0.73055 0.95194 0.0
O56 O 0.78298 0.73465 0.09015 0.0
O57 O 0.84251 0.81318 0.9327 0.0
O58 O 0.81851 0.76148 0.89296 0.0
C59 C 0.76799 0.85105 0.15195 0.0
O60 O 0.80665 0.78779 0.1824 0.0
O61 O 0.84761 0.8041 0.09469 0.0
C62 C 0.77588 0.71601 0.02097 0.0
O63 O 0.74934 0.82324 0.13969 0.0
O64 O 0.79858 0.85251 0.12125 0.0
C65 C 0.77907 0.84819 0.88135 0.0
Fe66 Fe 0.70734 0.32 0.52494 0.0
Fe67 Fe 0.76322 0.27357 0.61688 0.0
O68 O 0.74314 0.28948 0.51986 0.0
Fe69 Fe 0.75885 0.27466 0.41721 0.0
O70 O 0.77026 0.31971 0.39072 0.0
O71 O 0.71951 0.34311 0.42819 0.0
O72 O 0.7341 0.35254 0.58997 0.0
C73 C 0.75098 0.3466 0.66054 0.0
C74 C 0.68417 0.27703 0.3852 0.0
O75 O 0.7575 0.31514 0.68175 0.0
C76 C 0.75836 0.21236 0.5022 0.0
O77 O 0.68877 0.30239 0.62271 0.0
O78 O 0.72135 0.25574 0.6502 0.0
O79 O 0.71552 0.27696 0.35887 0.0
O80 O 0.67754 0.28994 0.46006 0.0
C81 C 0.8225 0.28238 0.52267 0.0
O82 O 0.77233 0.22891 0.56909 0.0
O83 O 0.74788 0.22899 0.43672 0.0
C84 C 0.69317 0.27324 0.65928 0.0
O85 O 0.80669 0.2904 0.59148 0.0
O86 O 0.80536 0.26918 0.45599 0.0
C87 C 0.74816 0.34482 0.38834 0.0
H88 H 0.25794 0.63477 0.01154 0.0
H89 H 0.22026 0.53984 0.12217 0.0
H90 H 0.22583 0.54464 0.84353 0.0
C91 C 0.24851 0.60752 0.00307 0.0
C92 C 0.24332 0.59187 0.9188 0.0
C93 C 0.24023 0.5891 0.07653 0.0
C94 C 0.22793 0.55388 0.06592 0.0
C95 C 0.22338 0.53754 0.98178 0.0
C96 C 0.23111 0.55662 0.90843 0.0
N97 N 0.20502 0.50473 0.96988 0.0
C98 C 0.22195 0.47205 0.97009 0.0
H99 H 0.89609 0.75934 0.53963 0.0
H100 H 0.98518 0.79788 0.40545 0.0
H101 H 0.99593 0.78102 0.67919 0.0
C102 C 0.92399 0.76649 0.53965 0.0
C103 C 0.94396 0.76894 0.61905 0.0
C104 C 0.93843 0.77669 0.46173 0.0
C105 C 0.97412 0.78767 0.46326 0.0
C106 C 0.99506 0.7882 0.54104 0.0
C107 C 0.98008 0.77855 0.61858 0.0
N108 N 0.02846 0.80551 0.54437 0.0
C109 C 0.06046 0.78745 0.54741 0.0
H110 H 0.77073 0.39989 0.02982 0.0
H111 H 0.751 0.49779 0.9028 0.0
H112 H 0.74531 0.49431 0.18087 0.0
C113 C 0.76632 0.42832 0.03345 0.0
C114 C 0.76001 0.44503 0.1147 0.0
C115 C 0.76378 0.447 0.95632 0.0
C116 C 0.75477 0.48329 0.96169 0.0
C117 C 0.74838 0.50031 0.04302 0.0
C118 C 0.75124 0.48118 0.11889 0.0
N119 N 0.7325 0.53424 0.048 0.0
C120 C 0.75024 0.56566 0.03395 0.0
H121 H 0.13598 0.27001 0.47279 0.0
H122 H 0.04004 0.29784 0.60236 0.0
H123 H 0.04514 0.30576 0.32431 0.0
C124 C 0.10858 0.27881 0.47009 0.0
C125 C 0.09261 0.2867 0.38953 0.0
C126 C 0.09017 0.28287 0.54745 0.0
C127 C 0.05429 0.29353 0.54304 0.0
C128 C 0.03793 0.30154 0.46189 0.0
C129 C 0.05734 0.29831 0.38596 0.0
N130 N 1.00421 0.31805 0.45595 0.0
C131 C 0.97309 0.30486 0.48812 0.0
H132 H 0.76032 0.90049 0.50862 0.0
H133 H 0.7243 0.99768 0.40011 0.0
H134 H 0.73645 0.99049 0.67865 0.0
C135 C 0.75266 0.92807 0.51808 0.0
C136 C 0.7513 0.94352 0.60277 0.0
C137 C 0.7433 0.94738 0.44496 0.0
C138 C 0.73232 0.98282 0.45627 0.0
C139 C 0.72961 0.9982 0.54107 0.0
C140 C 0.73889 0.97845 0.61366 0.0
N141 N 0.71363 0.03176 0.55523 0.0
C142 C 0.72793 0.06328 0.5287 0.0
H143 H 0.63684 0.26023 0.02279 0.0
H144 H 0.53761 0.23222 0.13115 0.0
H145 H 0.54812 0.22745 0.85261 0.0
C146 C 0.60926 0.25192 0.01379 0.0
C147 C 0.5948 0.24499 0.9292 0.0
C148 C 0.58905 0.24739 0.08708 0.0
C149 C 0.55313 0.23705 0.07512 0.0
C150 C 0.53825 0.23007 0.99011 0.0
C151 C 0.55924 0.23404 0.91772 0.0
N152 N 0.50466 0.21316 0.97639 0.0
C153 C 0.4725 0.22853 0.99784 0.0
H154 H 0.27548 0.13652 0.49193 0.0
H155 H 0.26363 0.03224 0.59131 0.0
H156 H 0.24745 0.04778 0.31693 0.0
C157 C 0.2707 0.10825 0.48088 0.0
C158 C 0.26191 0.09477 0.39606 0.0
C159 C 0.27072 0.08634 0.55236 0.0
C160 C 0.2644 0.0495 0.53702 0.0
C161 C 0.25679 0.03556 0.45117 0.0
C162 C 0.25519 0.05839 0.38191 0.0
N163 N 0.24576 0.99989 0.43249 0.0
C164 C 0.26016 0.96996 0.4695 0.0
H165 H 0.39453 0.76852 0.00913 0.0
H166 H 0.49813 0.76013 0.90225 0.0
H167 H 0.48419 0.73895 0.17129 0.0
C168 C 0.4228 0.76383 0.01765 0.0
C169 C 0.43671 0.754 0.09907 0.0
C170 C 0.44439 0.76532 0.94562 0.0
C171 C 0.48117 0.75945 0.95733 0.0
C172 C 0.49552 0.75043 0.03946 0.0
C173 C 0.47315 0.74737 0.1093 0.0
N174 N 0.5315 0.74045 0.05228 0.0
C175 C 0.56017 0.75557 0.01355 0.0
C176 C 0.16979 0.29656 0.24212 0.0
C177 C 0.1609 0.27276 0.17094 0.0
C178 C 0.14686 0.30193 0.3109 0.0
C179 C 0.11395 0.28416 0.31061 0.0
H180 H 0.19538 0.30986 0.24709 0.0
H181 H 0.15537 0.31941 0.36605 0.0
S182 S 0.07643 0.22186 0.13618 0.0
N183 N 0.11558 0.23326 0.10164 0.0
N184 N 0.07251 0.24371 0.23111 0.0
C185 C 0.10381 0.26187 0.2379 0.0
C186 C 0.12729 0.25607 0.1681 0.0
C187 C 0.28055 0.62752 0.71375 0.0
C188 C 0.26525 0.66152 0.71179 0.0
C189 C 0.27218 0.6041 0.77861 0.0
C190 C 0.24814 0.61398 0.8429 0.0
H191 H 0.30028 0.61959 0.66752 0.0
H192 H 0.28571 0.57884 0.78082 0.0
S193 S 0.19637 0.69738 0.85693 0.0
N194 N 0.22185 0.70201 0.77341 0.0
N195 N 0.20592 0.65799 0.89396 0.0
C196 C 0.23097 0.64687 0.8378 0.0
C197 C 0.23959 0.67066 0.7726 0.0
C198 C 0.85703 0.79982 0.32247 0.0
C199 C 0.86581 0.78855 0.23764 0.0
C200 C 0.88096 0.79639 0.39344 0.0
C201 C 0.91449 0.78077 0.38314 0.0
H202 H 0.83145 0.81178 0.33416 0.0
H203 H 0.87303 0.80626 0.45709 0.0
S204 S 0.95017 0.7467 0.17377 0.0
N205 N 0.91037 0.76184 0.14604 0.0
N206 N 0.95525 0.75395 0.28063 0.0
C207 C 0.92383 0.76969 0.29825 0.0
C208 C 0.8995 0.77386 0.22528 0.0
C209 C 0.7351 0.4049 0.73445 0.0
C210 C 0.75862 0.37612 0.72612 0.0
C211 C 0.73843 0.42959 0.80602 0.0
C212 C 0.76572 0.42666 0.87094 0.0
H213 H 0.71262 0.40706 0.68863 0.0
H214 H 0.71813 0.44964 0.81337 0.0
S215 S 0.8381 0.36021 0.86978 0.0
N216 N 0.81248 0.34867 0.78298 0.0
N217 N 0.81982 0.39601 0.91444 0.0
C218 C 0.79126 0.39996 0.85858 0.0
C219 C 0.78741 0.37444 0.78709 0.0
C220 C 0.66176 0.23768 0.26048 0.0
C221 C 0.65519 0.26558 0.32162 0.0
C222 C 0.6384 0.23015 0.18866 0.0
C223 C 0.60767 0.25049 0.17434 0.0
H224 H 0.68605 0.22252 0.26598 0.0
H225 H 0.64548 0.20949 0.14108 0.0
S226 S 0.57687 0.32484 0.31802 0.0
N227 N 0.61436 0.31208 0.36663 0.0
N228 N 0.57058 0.29821 0.2299 0.0
C229 C 0.5995 0.27703 0.2376 0.0
C230 C 0.62327 0.28454 0.3117 0.0
C231 C 0.2926 0.15621 0.73218 0.0
C232 C 0.2625 0.1552 0.78329 0.0
C233 C 0.29718 0.13125 0.66271 0.0
C234 C 0.2719 0.1042 0.64131 0.0
H235 H 0.31183 0.17759 0.74245 0.0
H236 H 0.31949 0.13459 0.62162 0.0
S237 S 0.19154 0.086 0.76325 0.0
N238 N 0.20958 0.12152 0.81484 0.0
N239 N 0.21791 0.07542 0.68311 0.0
C240 C 0.24346 0.10088 0.69661 0.0
C241 C 0.2388 0.12621 0.76768 0.0
C242 C 0.39708 0.76072 0.32345 0.0
C243 C 0.3645 0.74274 0.30833 0.0
C244 C 0.42072 0.76383 0.25583 0.0
C245 C 0.41262 0.74868 0.17151 0.0
H246 H 0.40376 0.77338 0.38694 0.0
H247 H 0.44505 0.77893 0.26899 0.0
S248 S 0.33312 0.69383 0.10383 0.0
N249 N 0.32684 0.70668 0.20626 0.0
N250 N 0.37158 0.71134 0.08044 0.0
C251 C 0.38091 0.72898 0.15747 0.0
C252 C 0.35677 0.72631 0.22561 0.0
C253 C 0.74529 0.8983 0.81804 0.0
C254 C 0.77445 0.8753 0.81653 0.0
C255 C 0.73857 0.92133 0.75008 0.0
C256 C 0.76105 0.92221 0.67914 0.0
H257 H 0.72682 0.89742 0.87006 0.0
H258 H 0.71487 0.93746 0.7514 0.0
S259 S 0.8438 0.87022 0.65289 0.0
N260 N 0.82748 0.85649 0.74356 0.0
N261 N 0.81592 0.90061 0.61761 0.0
C262 C 0.79147 0.90059 0.68017 0.0
C263 C 0.79789 0.8769 0.74846 0.0
C264 C 0.87386 0.74575 0.77749 0.0
C265 C 0.87465 0.7756 0.83642 0.0
C266 C 0.89842 0.74209 0.71148 0.0
C267 C 0.92473 0.7681 0.70172 0.0
H268 H 0.85304 0.72595 0.77924 0.0
H269 H 0.89561 0.71967 0.66477 0.0
S270 S 0.94107 0.84909 0.84552 0.0
N271 N 0.9068 0.82954 0.88667 0.0
N272 N 0.95177 0.82328 0.76103 0.0
C273 C 0.92742 0.7967 0.76404 0.0
C274 C 0.90268 0.80029 0.83166 0.0
C275 C 0.78323 0.37496 0.27725 0.0
C276 C 0.75266 0.37366 0.3267 0.0
C277 C 0.78611 0.39921 0.21139 0.0
C278 C 0.75867 0.42325 0.1926 0.0
H279 H 0.8047 0.35642 0.28754 0.0
H280 H 0.80965 0.39856 0.17326 0.0
S281 S 0.67361 0.43193 0.3043 0.0
N282 N 0.69492 0.40001 0.35412 0.0
N283 N 0.7003 0.44483 0.22944 0.0
C284 C 0.72856 0.42319 0.24338 0.0
C285 C 0.72559 0.39862 0.31059 0.0
C286 C 0.16744 0.28797 0.71292 0.0
C287 C 0.15923 0.26201 0.77169 0.0
C288 C 0.14361 0.29627 0.6447 0.0
C289 C 0.11066 0.27865 0.63135 0.0
H290 H 0.19297 0.30143 0.71828 0.0
H291 H 0.15172 0.31564 0.59949 0.0
S292 S 0.07499 0.2106 0.77086 0.0
N293 N 0.11456 0.22062 0.81637 0.0
N294 N 0.06994 0.23576 0.68602 0.0
C295 C 0.10111 0.2541 0.69237 0.0
C296 C 0.12539 0.24584 0.76296 0.0
C297 C 0.27623 0.62647 0.29595 0.0
C298 C 0.2549 0.65676 0.31032 0.0
C299 C 0.26984 0.60288 0.22322 0.0
C300 C 0.24189 0.60872 0.16241 0.0
H301 H 0.29909 0.62172 0.33897 0.0
H302 H 0.28804 0.58113 0.21191 0.0
S303 S 0.17583 0.68113 0.1731 0.0
N304 N 0.20249 0.68899 0.26017 0.0
N305 N 0.19104 0.6448 0.12361 0.0
C306 C 0.21911 0.63745 0.1783 0.0
C307 C 0.22541 0.66139 0.25231 0.0
C308 C 0.3752 0.78927 0.77318 0.0
C309 C 0.37656 0.76016 0.71234 0.0
C310 C 0.39969 0.79287 0.84455 0.0
C311 C 0.42658 0.76763 0.85775 0.0
H312 H 0.35377 0.80826 0.76907 0.0
H313 H 0.39612 0.81429 0.89297 0.0
S314 S 0.44574 0.69015 0.70937 0.0
N315 N 0.41045 0.70859 0.66331 0.0
N316 N 0.45581 0.71504 0.79849 0.0
C317 C 0.43035 0.74037 0.79314 0.0
C318 C 0.40547 0.73669 0.72028 0.0
C319 C 0.7804 0.90855 0.23763 0.0
C320 C 0.75717 0.87966 0.21566 0.0
C321 C 0.77414 0.93262 0.30784 0.0
C322 C 0.7443 0.92887 0.3581 0.0
H323 H 0.80467 0.91162 0.2034 0.0
H324 H 0.79387 0.95291 0.32628 0.0
S325 S 0.67278 0.86141 0.32222 0.0
N326 N 0.70094 0.85146 0.24543 0.0
N327 N 0.68967 0.89663 0.37758 0.0
C328 C 0.71961 0.90187 0.33354 0.0
C329 C 0.72585 0.87735 0.26212 0.0
C330 C 0.63361 0.27959 0.72557 0.0
C331 C 0.66667 0.26218 0.72209 0.0
C332 C 0.60958 0.2726 0.79006 0.0
C333 C 0.61782 0.24818 0.85398 0.0
H334 H 0.62653 0.2995 0.6794 0.0
H335 H 0.58507 0.28749 0.79216 0.0
S336 S 0.69874 0.19285 0.87006 0.0
N337 N 0.7048 0.2172 0.78536 0.0
N338 N 0.65971 0.20452 0.90658 0.0
C339 C 0.64988 0.22942 0.84921 0.0
C340 C 0.67424 0.23624 0.78324 0.0
C341 C 0.26888 0.13545 0.17501 0.0
C342 C 0.24993 0.16722 0.18628 0.0
C343 C 0.27252 0.11187 0.24296 0.0
C344 C 0.25697 0.11925 0.32365 0.0
H345 H 0.28171 0.1293 0.11437 0.0
H346 H 0.28815 0.08808 0.23295 0.0
S347 S 0.19996 0.19649 0.3795 0.0
N348 N 0.21279 0.20339 0.28029 0.0
N349 N 0.21849 0.15872 0.4065 0.0
C350 C 0.23652 0.15021 0.33363 0.0
C351 C 0.23329 0.17429 0.26526 0.0
C352 C 0.2383 0.37786 0.89161 0.0
C353 C 0.25113 0.36187 0.96794 0.0
C354 C 0.23016 0.4142 0.89209 0.0
C355 C 0.23463 0.43587 0.96865 0.0
H356 H 0.23362 0.36208 0.83132 0.0
H357 H 0.21938 0.42517 0.83264 0.0
S358 S 0.26821 0.40847 0.18505 0.0
N359 N 0.26877 0.3717 0.12211 0.0
N360 N 0.25326 0.43983 0.12176 0.0
C361 C 0.24819 0.42085 0.04464 0.0
C362 C 0.25655 0.38388 0.04457 0.0
C363 C 0.15439 0.766 0.61675 0.0
C364 C 0.1703 0.76006 0.53596 0.0
C365 C 0.11792 0.77323 0.62067 0.0
C366 C 0.09625 0.77414 0.54414 0.0
H367 H 0.17044 0.76673 0.67711 0.0
H368 H 0.10693 0.77944 0.68361 0.0
S369 S 0.12346 0.7562 0.31768 0.0
N370 N 0.16046 0.75253 0.37825 0.0
N371 N 0.09206 0.76597 0.38651 0.0
C372 C 0.1112 0.76634 0.46368 0.0
C373 C 0.14824 0.75927 0.45936 0.0
C374 C 0.76075 0.65636 0.94886 0.0
C375 C 0.77446 0.67651 0.02286 0.0
C376 C 0.75479 0.61967 0.95136 0.0
C377 C 0.76268 0.60171 0.02746 0.0
H378 H 0.75317 0.66916 0.88924 0.0
H379 H 0.74261 0.60558 0.89443 0.0
S380 S 0.80208 0.64032 0.23613 0.0
N381 N 0.79823 0.67441 0.17276 0.0
N382 N 0.78679 0.60542 0.17657 0.0
C383 C 0.77797 0.62075 0.10036 0.0
C384 C 0.78402 0.65817 0.09824 0.0
C385 C 0.88063 0.26764 0.45554 0.0
C386 C 0.86189 0.28633 0.52064 0.0
C387 C 0.91739 0.27235 0.44847 0.0
C388 C 0.93679 0.2959 0.50612 0.0
H389 H 0.86675 0.24958 0.40859 0.0
H390 H 0.93047 0.25834 0.39568 0.0
S391 S 0.90135 0.35138 0.6874 0.0
N392 N 0.86636 0.32928 0.64437 0.0
N393 N 0.93532 0.33804 0.63009 0.0
C394 C 0.91889 0.31422 0.57233 0.0
C395 C 0.88147 0.30941 0.57996 0.0
C396 C 0.76624 0.15447 0.57479 0.0
C397 C 0.75398 0.17302 0.50181 0.0
C398 C 0.75908 0.11814 0.58091 0.0
C399 C 0.73955 0.099 0.51435 0.0
H400 H 0.78056 0.16826 0.62907 0.0
H401 H 0.76785 0.10525 0.6396 0.0
S402 S 0.70284 0.13351 0.30787 0.0
N403 N 0.72248 0.16824 0.35939 0.0
N404 N 0.70909 0.10004 0.37229 0.0
C405 C 0.72816 0.11648 0.43988 0.0
C406 C 0.73542 0.15349 0.43322 0.0
C407 C 0.37757 0.23082 0.0644 0.0
C408 C 0.36105 0.25214 0.00153 0.0
C409 C 0.41437 0.22453 0.06576 0.0
C410 C 0.43597 0.23975 0.00522 0.0
H411 H 0.36181 0.21778 0.11093 0.0
H412 H 0.42576 0.20673 0.11263 0.0
S413 S 0.4072 0.29985 0.83243 0.0
N414 N 0.37025 0.29022 0.88057 0.0
N415 N 0.43918 0.27829 0.88404 0.0
C416 C 0.42033 0.26215 0.94454 0.0
C417 C 0.38291 0.26841 0.94249 0.0
C418 C 0.28683 0.87525 0.42837 0.0
C419 C 0.2782 0.85925 0.50589 0.0
C420 C 0.28286 0.91191 0.41929 0.0
C421 C 0.27034 0.93399 0.48734 0.0
H422 H 0.29554 0.85923 0.37294 0.0
H423 H 0.28825 0.92281 0.35714 0.0
S424 S 0.24682 0.90695 0.70591 0.0
N425 N 0.25881 0.86966 0.65464 0.0
N426 N 0.25117 0.93841 0.63586 0.0
C427 C 0.26315 0.91905 0.56632 0.0
C428 C 0.26722 0.88171 0.57608 0.0
C429 C 0.65165 0.7911 0.05907 0.0
C430 C 0.66945 0.78 0.9839 0.0
C431 C 0.61514 0.78551 0.06481 0.0
C432 C 0.59518 0.76835 0.99594 0.0
H433 H 0.6664 0.80276 0.11559 0.0
H434 H 0.60289 0.79278 0.12568 0.0
S435 S 0.62815 0.73643 0.78264 0.0
N436 N 0.66374 0.75331 0.83657 0.0
N437 N 0.59482 0.74213 0.84838 0.0
C438 C 0.61197 0.75883 0.91854 0.0
C439 C 0.64927 0.76493 0.91214 0.0
loop_
_geom_bond_atom_site_label_1
_geom_bond_atom_site_label_2
_geom_bond_distance
_geom_bond_site_symmetry_2
_ccdc_geom_bond_type
Fe0 O2 1.918 . S
Fe0 O5 1.997 . S
Fe0 O6 2.002 . S
Fe0 O11 1.976 . S
Fe0 O14 1.996 . S
Fe1 O2 1.918 1_556 S
Fe1 O9 1.997 . S
Fe1 O12 1.996 . S
Fe1 O16 1.976 . S
Fe1 O19 2.002 . S
O2 Fe0 1.918 . S
O2 Fe1 1.918 1_554 S
O2 Fe3 1.918 1_554 S
Fe3 O2 1.918 1_556 S
Fe3 O4 1.997 1_556 S
Fe3 O13 1.971 1_556 S
Fe3 O17 2.001 . S
Fe3 O20 2.002 . S
O4 Fe3 1.997 1_554 S
O4 C21 1.295 . S
O5 Fe0 1.997 . S
O5 C21 1.235 . S
O6 Fe0 2.002 . S
O6 C7 1.295 . S
C7 O6 1.295 . S
C7 O9 1.235 1_554 S
C8 O13 1.287 . S
C8 O14 1.255 . S
O9 Fe1 1.997 . S
O9 C7 1.235 1_556 S
C10 O16 1.287 . S
C10 O17 1.255 . S
O11 Fe0 1.976 . S
O11 C18 1.287 . S
O12 Fe1 1.996 . S
O12 C18 1.255 1_556 S
O13 Fe3 1.971 1_554 S
O13 C8 1.287 . S
O14 Fe0 1.996 . S
O14 C8 1.255 . S
C15 O19 1.295 . S
C15 O20 1.235 . S
O16 Fe1 1.976 . S
O16 C10 1.287 . S
O17 Fe3 2.001 . S
O17 C10 1.255 . S
C18 O11 1.287 . S
C18 O12 1.255 1_554 S
O19 Fe1 2.002 . S
O19 C15 1.295 . S
O20 Fe3 2.002 . S
O20 C15 1.235 . S
C21 O4 1.295 . S
C21 O5 1.235 . S
Fe22 O24 1.918 . S
Fe22 O27 1.997 . S
Fe22 O28 2.002 . S
Fe22 O33 1.976 . S
Fe22 O36 1.996 . S
Fe23 O24 1.918 . S
Fe23 O31 1.997 . S
Fe23 O34 1.996 . S
Fe23 O38 1.976 . S
Fe23 O41 2.002 . S
O24 Fe22 1.918 . S
O24 Fe23 1.918 . S
O24 Fe25 1.918 . S
Fe25 O24 1.918 . S
Fe25 O26 2.002 . S
Fe25 O35 1.976 . S
Fe25 O39 1.996 . S
Fe25 O42 1.997 . S
O26 Fe25 2.002 . S
O26 C43 1.295 . S
O27 Fe22 1.997 . S
O27 C43 1.235 . S
O28 Fe22 2.002 . S
O28 C29 1.295 . S
C29 O28 1.295 . S
C29 O31 1.235 . S
C30 O35 1.287 . S
C30 O36 1.255 . S
O31 Fe23 1.997 . S
O31 C29 1.235 . S
C32 O38 1.287 . S
C32 O39 1.255 . S
O33 Fe22 1.976 . S
O33 C40 1.287 . S
O34 Fe23 1.996 . S
O34 C40 1.255 . S
O35 Fe25 1.976 . S
O35 C30 1.287 . S
O36 Fe22 1.996 . S
O36 C30 1.255 . S
C37 O41 1.295 . S
C37 O42 1.235 . S
O38 Fe23 1.976 . S
O38 C32 1.287 . S
O39 Fe25 1.996 . S
O39 C32 1.255 . S
C40 O33 1.287 . S
C40 O34 1.255 . S
O41 Fe23 2.002 . S
O41 C37 1.295 . S
O42 Fe25 1.997 . S
O42 C37 1.235 . S
C43 O26 1.295 . S
C43 O27 1.235 . S
Fe44 O46 1.918 1_556 S
Fe44 O49 1.997 . S
Fe44 O50 2.002 . S
Fe44 O55 1.976 . S
Fe44 O58 1.996 . S
Fe45 O46 1.918 . S
Fe45 O53 1.997 . S
Fe45 O56 1.996 . S
Fe45 O60 1.976 . S
Fe45 O63 2.002 . S
O46 Fe44 1.918 1_554 S
O46 Fe45 1.918 . S
O46 Fe47 1.918 . S
Fe47 O46 1.918 . S
Fe47 O48 2.002 1_554 S
Fe47 O57 1.976 1_554 S
Fe47 O61 1.996 . S
Fe47 O64 1.997 . S
O48 Fe47 2.002 1_556 S
O48 C65 1.295 . S
O49 Fe44 1.997 . S
O49 C65 1.235 . S
O50 Fe44 2.002 . S
O50 C51 1.295 1_556 S
C51 O50 1.295 1_554 S
C51 O53 1.235 . S
C52 O57 1.287 . S
C52 O58 1.255 . S
O53 Fe45 1.997 . S
O53 C51 1.235 . S
C54 O60 1.287 . S
C54 O61 1.255 . S
O55 Fe44 1.976 . S
O55 C62 1.287 1_556 S
O56 Fe45 1.996 . S
O56 C62 1.255 . S
O57 Fe47 1.976 1_556 S
O57 C52 1.287 . S
O58 Fe44 1.996 . S
O58 C52 1.255 . S
C59 O63 1.295 . S
C59 O64 1.235 . S
O60 Fe45 1.976 . S
O60 C54 1.287 . S
O61 Fe47 1.996 . S
O61 C54 1.255 . S
C62 O55 1.287 1_554 S
C62 O56 1.255 . S
O63 Fe45 2.002 . S
O63 C59 1.295 . S
O64 Fe47 1.997 . S
O64 C59 1.235 . S
C65 O48 1.295 . S
C65 O49 1.235 . S
Fe66 O68 1.918 . S
Fe66 O71 1.997 . S
Fe66 O72 2.002 . S
Fe66 O77 1.976 . S
Fe66 O80 1.996 . S
Fe67 O68 1.918 . S
Fe67 O75 1.997 . S
Fe67 O78 1.996 . S
Fe67 O82 1.976 . S
Fe67 O85 2.002 . S
O68 Fe66 1.918 . S
O68 Fe67 1.918 . S
O68 Fe69 1.918 . S
Fe69 O68 1.918 . S
Fe69 O70 2.002 . S
Fe69 O79 1.976 . S
Fe69 O83 1.996 . S
Fe69 O86 1.997 . S
O70 Fe69 2.002 . S
O70 C87 1.295 . S
O71 Fe66 1.997 . S
O71 C87 1.235 . S
O72 Fe66 2.002 . S
O72 C73 1.295 . S
C73 O72 1.295 . S
C73 O75 1.235 . S
C74 O79 1.287 . S
C74 O80 1.255 . S
O75 Fe67 1.997 . S
O75 C73 1.235 . S
C76 O82 1.287 . S
C76 O83 1.255 . S
O77 Fe66 1.976 . S
O77 C84 1.287 . S
O78 Fe67 1.996 . S
O78 C84 1.255 . S
O79 Fe69 1.976 . S
O79 C74 1.287 . S
O80 Fe66 1.996 . S
O80 C74 1.255 . S
C81 O85 1.295 . S
C81 O86 1.235 . S
O82 Fe67 1.976 . S
O82 C76 1.287 . S
O83 Fe69 1.996 . S
O83 C76 1.255 . S
C84 O77 1.287 . S
C84 O78 1.255 . S
O85 Fe67 2.002 . S
O85 C81 1.295 . S
O86 Fe69 1.997 . S
O86 C81 1.235 . S
C87 O70 1.295 . S
C87 O71 1.235 . S
H88 C91 0.929 . S
H89 C94 0.929 . S
H90 C96 0.930 . S
C91 H88 0.929 . S
C91 C92 1.398 1_554 S
C91 C93 1.396 . S
C92 C91 1.398 1_556 S
C92 C96 1.407 . S
C93 C91 1.396 . S
C93 C94 1.394 . S
C94 H89 0.929 . S
C94 C93 1.394 . S
C94 C95 1.382 1_554 S
C95 C94 1.382 1_556 S
C95 C96 1.392 . S
C95 N97 1.420 . S
C96 H90 0.930 . S
C96 C92 1.407 . S
C96 C95 1.392 . S
N97 C95 1.420 . S
N97 C98 1.244 1_556 S
C98 N97 1.244 1_554 S
H99 C102 0.929 . S
H100 C105 0.930 . S
H101 C107 0.930 . S
C102 H99 0.929 . S
C102 C103 1.398 . S
C102 C104 1.396 . S
C103 C102 1.398 . S
C103 C107 1.407 . S
C104 C102 1.396 . S
C104 C105 1.394 . S
C105 H100 0.930 . S
C105 C104 1.394 . S
C105 C106 1.382 1_655 S
C106 C105 1.382 1_455 S
C106 C107 1.392 1_455 S
C106 N108 1.420 . S
C107 H101 0.930 . S
C107 C103 1.407 . S
C107 C106 1.392 1_655 S
N108 C106 1.420 . S
N108 C109 1.244 . S
C109 N108 1.244 . S
H110 C113 0.929 . S
H111 C116 0.929 . S
H112 C118 0.930 . S
C113 H110 0.929 . S
C113 C114 1.398 . S
C113 C115 1.396 1_554 S
C114 C113 1.398 . S
C114 C118 1.407 . S
C115 C113 1.396 1_556 S
C115 C116 1.394 . S
C116 H111 0.929 . S
C116 C115 1.394 . S
C116 C117 1.382 1_556 S
C117 C116 1.382 1_554 S
C117 C118 1.392 . S
C117 N119 1.420 . S
C118 H112 0.930 . S
C118 C114 1.407 . S
C118 C117 1.392 . S
N119 C117 1.420 . S
N119 C120 1.244 . S
C120 N119 1.244 . S
H121 C124 0.929 . S
H122 C127 0.943 . S
H123 C129 0.930 . S
C124 H121 0.929 . S
C124 C125 1.398 . S
C124 C126 1.396 . S
C125 C124 1.398 . S
C125 C129 1.407 . S
C126 C124 1.396 . S
C126 C127 1.394 . S
C127 H122 0.943 . S
C127 C126 1.394 . S
C127 C128 1.382 1_455 S
C128 C127 1.382 1_655 S
C128 C129 1.392 1_655 S
C128 N130 1.420 . S
C129 H123 0.930 . S
C129 C125 1.407 . S
C129 C128 1.392 1_455 S
N130 C128 1.420 . S
N130 C131 1.244 . S
C131 N130 1.244 . S
H132 C135 0.929 . S
H133 C138 0.929 1_545 S
H134 C140 0.930 . S
C135 H132 0.929 . S
C135 C136 1.398 . S
C135 C137 1.396 . S
C136 C135 1.398 . S
C136 C140 1.407 . S
C137 C135 1.396 . S
C137 C138 1.394 . S
C138 H133 0.929 1_565 S
C138 C137 1.394 . S
C138 C139 1.382 1_565 S
C139 C138 1.382 1_545 S
C139 C140 1.392 1_545 S
C139 N141 1.420 . S
C140 H134 0.930 . S
C140 C136 1.407 . S
C140 C139 1.392 1_565 S
N141 C139 1.420 . S
N141 C142 1.244 . S
C142 N141 1.244 . S
H143 C146 0.929 . S
H144 C149 0.929 . S
H145 C151 0.930 . S
C146 H143 0.929 . S
C146 C147 1.398 1_554 S
C146 C148 1.396 . S
C147 C146 1.398 1_556 S
C147 C151 1.407 . S
C148 C146 1.396 . S
C148 C149 1.394 . S
C149 H144 0.929 . S
C149 C148 1.394 . S
C149 C150 1.382 1_554 S
C150 C149 1.382 1_556 S
C150 C151 1.392 . S
C150 N152 1.420 . S
C151 H145 0.930 . S
C151 C147 1.407 . S
C151 C150 1.392 . S
N152 C150 1.420 . S
N152 C153 1.244 1_556 S
C153 N152 1.244 1_554 S
H154 C157 0.929 . S
H155 C160 0.929 1_565 S
H156 C162 0.930 . S
C157 H154 0.929 . S
C157 C158 1.398 . S
C157 C159 1.396 . S
C158 C157 1.398 . S
C158 C162 1.407 . S
C159 C157 1.396 . S
C159 C160 1.394 . S
C160 H155 0.929 1_545 S
C160 C159 1.394 . S
C160 C161 1.382 1_545 S
C161 C160 1.382 1_565 S
C161 C162 1.392 1_565 S
C161 N163 1.420 . S
C162 H156 0.930 . S
C162 C158 1.407 . S
C162 C161 1.392 1_545 S
N163 C161 1.420 . S
N163 C164 1.244 . S
C164 N163 1.244 . S
H165 C168 0.929 . S
H166 C171 0.929 . S
H167 C173 0.930 . S
C168 H165 0.929 . S
C168 C169 1.398 . S
C168 C170 1.396 1_554 S
C169 C168 1.398 . S
C169 C173 1.407 . S
C170 C168 1.396 1_556 S
C170 C171 1.394 . S
C171 H166 0.929 . S
C171 C170 1.394 . S
C171 C172 1.382 1_556 S
C172 C171 1.382 1_554 S
C172 C173 1.392 . S
C172 N174 1.420 . S
C173 H167 0.930 . S
C173 C169 1.407 . S
C173 C172 1.392 . S
N174 C172 1.420 . S
N174 C175 1.237 1_554 S
C175 N174 1.237 1_556 S
C176 C177 1.369 . S
C176 C178 1.419 . S
C176 H180 0.930 . S
C177 C176 1.369 . S
C177 C186 1.429 . S
C178 C176 1.419 . S
C178 C179 1.363 . S
C178 H181 0.929 . S
C179 C178 1.363 . S
C179 C185 1.428 . S
H180 C176 0.930 . S
H181 C178 0.929 . S
S182 N183 1.613 . S
S182 N184 1.610 . S
N183 S182 1.613 . S
N183 C186 1.350 . S
N184 S182 1.610 . S
N184 C185 1.351 . S
C185 C179 1.428 . S
C185 N184 1.351 . S
C185 C186 1.434 . S
C186 C177 1.429 . S
C186 N183 1.350 . S
C186 C185 1.434 . S
C187 C188 1.369 . S
C187 C189 1.419 . S
C187 H191 0.930 . S
C188 C187 1.369 . S
C188 C197 1.429 . S
C189 C187 1.419 . S
C189 C190 1.363 . S
C189 H192 0.929 . S
C190 C189 1.363 . S
C190 C196 1.428 . S
H191 C187 0.930 . S
H192 C189 0.929 . S
S193 N194 1.613 . S
S193 N195 1.610 . S
N194 S193 1.613 . S
N194 C197 1.350 . S
N195 S193 1.610 . S
N195 C196 1.351 . S
C196 C190 1.428 . S
C196 N195 1.351 . S
C196 C197 1.434 . S
C197 C188 1.429 . S
C197 N194 1.350 . S
C197 C196 1.434 . S
C198 C199 1.369 . S
C198 C200 1.419 . S
C198 H202 0.930 . S
C199 C198 1.369 . S
C199 C208 1.429 . S
C200 C198 1.419 . S
C200 C201 1.363 . S
C200 H203 0.929 . S
C201 C200 1.363 . S
C201 C207 1.428 . S
H202 C198 0.930 . S
H203 C200 0.929 . S
S204 N205 1.613 . S
S204 N206 1.610 . S
N205 S204 1.613 . S
N205 C208 1.350 . S
N206 S204 1.610 . S
N206 C207 1.351 . S
C207 C201 1.428 . S
C207 N206 1.351 . S
C207 C208 1.434 . S
C208 C199 1.429 . S
C208 N205 1.350 . S
C208 C207 1.434 . S
C209 C210 1.369 . S
C209 C211 1.419 . S
C209 H213 0.930 . S
C210 C209 1.369 . S
C210 C219 1.429 . S
C211 C209 1.419 . S
C211 C212 1.363 . S
C211 H214 0.929 . S
C212 C211 1.363 . S
C212 C218 1.428 . S
H213 C209 0.930 . S
H214 C211 0.929 . S
S215 N216 1.613 . S
S215 N217 1.610 . S
N216 S215 1.613 . S
N216 C219 1.350 . S
N217 S215 1.610 . S
N217 C218 1.351 . S
C218 C212 1.428 . S
C218 N217 1.351 . S
C218 C219 1.434 . S
C219 C210 1.429 . S
C219 N216 1.350 . S
C219 C218 1.434 . S
C220 C221 1.369 . S
C220 C222 1.419 . S
C220 H224 0.930 . S
C221 C220 1.369 . S
C221 C230 1.429 . S
C222 C220 1.419 . S
C222 C223 1.363 . S
C222 H225 0.929 . S
C223 C222 1.363 . S
C223 C229 1.428 . S
H224 C220 0.930 . S
H225 C222 0.929 . S
S226 N227 1.613 . S
S226 N228 1.610 . S
N227 S226 1.613 . S
N227 C230 1.350 . S
N228 S226 1.610 . S
N228 C229 1.351 . S
C229 C223 1.428 . S
C229 N228 1.351 . S
C229 C230 1.434 . S
C230 C221 1.429 . S
C230 N227 1.350 . S
C230 C229 1.434 . S
C231 C232 1.369 . S
C231 C233 1.419 . S
C231 H235 0.930 . S
C232 C231 1.369 . S
C232 C241 1.429 . S
C233 C231 1.419 . S
C233 C234 1.363 . S
C233 H236 0.929 . S
C234 C233 1.363 . S
C234 C240 1.428 . S
H235 C231 0.930 . S
H236 C233 0.929 . S
S237 N238 1.613 . S
S237 N239 1.610 . S
N238 S237 1.613 . S
N238 C241 1.350 . S
N239 S237 1.610 . S
N239 C240 1.351 . S
C240 C234 1.428 . S
C240 N239 1.351 . S
C240 C241 1.434 . S
C241 C232 1.429 . S
C241 N238 1.350 . S
C241 C240 1.434 . S
C242 C243 1.369 . S
C242 C244 1.419 . S
C242 H246 0.930 . S
C243 C242 1.369 . S
C243 C252 1.429 . S
C244 C242 1.419 . S
C244 C245 1.363 . S
C244 H247 0.929 . S
C245 C244 1.363 . S
C245 C251 1.428 . S
H246 C242 0.930 . S
H247 C244 0.929 . S
S248 N249 1.613 . S
S248 N250 1.610 . S
N249 S248 1.613 . S
N249 C252 1.350 . S
N250 S248 1.610 . S
N250 C251 1.351 . S
C251 C245 1.428 . S
C251 N250 1.351 . S
C251 C252 1.434 . S
C252 C243 1.429 . S
C252 N249 1.350 . S
C252 C251 1.434 . S
C253 C254 1.369 . S
C253 C255 1.419 . S
C253 H257 0.930 . S
C254 C253 1.369 . S
C254 C263 1.429 . S
C255 C253 1.419 . S
C255 C256 1.363 . S
C255 H258 0.929 . S
C256 C255 1.363 . S
C256 C262 1.428 . S
H257 C253 0.930 . S
H258 C255 0.929 . S
S259 N260 1.613 . S
S259 N261 1.610 . S
N260 S259 1.613 . S
N260 C263 1.350 . S
N261 S259 1.610 . S
N261 C262 1.351 . S
C262 C256 1.428 . S
C262 N261 1.351 . S
C262 C263 1.434 . S
C263 C254 1.429 . S
C263 N260 1.350 . S
C263 C262 1.434 . S
C264 C265 1.369 . S
C264 C266 1.419 . S
C264 H268 0.930 . S
C265 C264 1.369 . S
C265 C274 1.429 . S
C266 C264 1.419 . S
C266 C267 1.363 . S
C266 H269 0.929 . S
C267 C266 1.363 . S
C267 C273 1.428 . S
H268 C264 0.930 . S
H269 C266 0.929 . S
S270 N271 1.613 . S
S270 N272 1.610 . S
N271 S270 1.613 . S
N271 C274 1.350 . S
N272 S270 1.610 . S
N272 C273 1.351 . S
C273 C267 1.428 . S
C273 N272 1.351 . S
C273 C274 1.434 . S
C274 C265 1.429 . S
C274 N271 1.350 . S
C274 C273 1.434 . S
C275 C276 1.369 . S
C275 C277 1.419 . S
C275 H279 0.930 . S
C276 C275 1.369 . S
C276 C285 1.429 . S
C277 C275 1.419 . S
C277 C278 1.363 . S
C277 H280 0.929 . S
C278 C277 1.363 . S
C278 C284 1.428 . S
H279 C275 0.930 . S
H280 C277 0.929 . S
S281 N282 1.613 . S
S281 N283 1.610 . S
N282 S281 1.613 . S
N282 C285 1.350 . S
N283 S281 1.610 . S
N283 C284 1.351 . S
C284 C278 1.428 . S
C284 N283 1.351 . S
C284 C285 1.434 . S
C285 C276 1.429 . S
C285 N282 1.350 . S
C285 C284 1.434 . S
C286 C287 1.369 . S
C286 C288 1.419 . S
C286 H290 0.930 . S
C287 C286 1.369 . S
C287 C296 1.429 . S
C288 C286 1.419 . S
C288 C289 1.363 . S
C288 H291 0.929 . S
C289 C288 1.363 . S
C289 C295 1.428 . S
H290 C286 0.930 . S
H291 C288 0.929 . S
S292 N293 1.613 . S
S292 N294 1.610 . S
N293 S292 1.613 . S
N293 C296 1.350 . S
N294 S292 1.610 . S
N294 C295 1.351 . S
C295 C289 1.428 . S
C295 N294 1.351 . S
C295 C296 1.434 . S
C296 C287 1.429 . S
C296 N293 1.350 . S
C296 C295 1.434 . S
C297 C298 1.369 . S
C297 C299 1.419 . S
C297 H301 0.930 . S
C298 C297 1.369 . S
C298 C307 1.429 . S
C299 C297 1.419 . S
C299 C300 1.363 . S
C299 H302 0.929 . S
C300 C299 1.363 . S
C300 C306 1.428 . S
H301 C297 0.930 . S
H302 C299 0.929 . S
S303 N304 1.613 . S
S303 N305 1.610 . S
N304 S303 1.613 . S
N304 C307 1.350 . S
N305 S303 1.610 . S
N305 C306 1.351 . S
C306 C300 1.428 . S
C306 N305 1.351 . S
C306 C307 1.434 . S
C307 C298 1.429 . S
C307 N304 1.350 . S
C307 C306 1.434 . S
C308 C309 1.369 . S
C308 C310 1.419 . S
C308 H312 0.930 . S
C309 C308 1.369 . S
C309 C318 1.429 . S
C310 C308 1.419 . S
C310 C311 1.363 . S
C310 H313 0.929 . S
C311 C310 1.363 . S
C311 C317 1.428 . S
H312 C308 0.930 . S
H313 C310 0.929 . S
S314 N315 1.613 . S
S314 N316 1.610 . S
N315 S314 1.613 . S
N315 C318 1.350 . S
N316 S314 1.610 . S
N316 C317 1.351 . S
C317 C311 1.428 . S
C317 N316 1.351 . S
C317 C318 1.434 . S
C318 C309 1.429 . S
C318 N315 1.350 . S
C318 C317 1.434 . S
C319 C320 1.369 . S
C319 C321 1.419 . S
C319 H323 0.930 . S
C320 C319 1.369 . S
C320 C329 1.429 . S
C321 C319 1.419 . S
C321 C322 1.363 . S
C321 H324 0.929 . S
C322 C321 1.363 . S
C322 C328 1.428 . S
H323 C319 0.930 . S
H324 C321 0.929 . S
S325 N326 1.613 . S
S325 N327 1.610 . S
N326 S325 1.613 . S
N326 C329 1.350 . S
N327 S325 1.610 . S
N327 C328 1.351 . S
C328 C322 1.428 . S
C328 N327 1.351 . S
C328 C329 1.434 . S
C329 C320 1.429 . S
C329 N326 1.350 . S
C329 C328 1.434 . S
C330 C331 1.369 . S
C330 C332 1.419 . S
C330 H334 0.930 . S
C331 C330 1.369 . S
C331 C340 1.429 . S
C332 C330 1.419 . S
C332 C333 1.363 . S
C332 H335 0.929 . S
C333 C332 1.363 . S
C333 C339 1.428 . S
H334 C330 0.930 . S
H335 C332 0.929 . S
S336 N337 1.613 . S
S336 N338 1.610 . S
N337 S336 1.613 . S
N337 C340 1.350 . S
N338 S336 1.610 . S
N338 C339 1.351 . S
C339 C333 1.428 . S
C339 N338 1.351 . S
C339 C340 1.434 . S
C340 C331 1.429 . S
C340 N337 1.350 . S
C340 C339 1.434 . S
C341 C342 1.369 . S
C341 C343 1.419 . S
C341 H345 0.930 . S
C342 C341 1.369 . S
C342 C351 1.429 . S
C343 C341 1.419 . S
C343 C344 1.363 . S
C343 H346 0.929 . S
C344 C343 1.363 . S
C344 C350 1.428 . S
H345 C341 0.930 . S
H346 C343 0.929 . S
S347 N348 1.613 . S
S347 N349 1.610 . S
N348 S347 1.613 . S
N348 C351 1.350 . S
N349 S347 1.610 . S
N349 C350 1.351 . S
C350 C344 1.428 . S
C350 N349 1.351 . S
C350 C351 1.434 . S
C351 C342 1.429 . S
C351 N348 1.350 . S
C351 C350 1.434 . S
C352 C353 1.369 1_556 S
C352 C354 1.419 . S
C352 H356 0.930 . S
C353 C352 1.369 1_554 S
C353 C362 1.429 . S
C354 C352 1.419 . S
C354 C355 1.363 1_556 S
C354 H357 0.929 . S
C355 C354 1.363 1_554 S
C355 C361 1.428 . S
H356 C352 0.930 . S
H357 C354 0.929 . S
S358 N359 1.613 . S
S358 N360 1.610 . S
N359 S358 1.613 . S
N359 C362 1.350 . S
N360 S358 1.610 . S
N360 C361 1.351 . S
C361 C355 1.428 . S
C361 N360 1.351 . S
C361 C362 1.434 . S
C362 C353 1.429 . S
C362 N359 1.350 . S
C362 C361 1.434 . S
C363 C364 1.369 . S
C363 C365 1.419 . S
C363 H367 0.930 . S
C364 C363 1.369 . S
C364 C373 1.429 . S
C365 C363 1.419 . S
C365 C366 1.363 . S
C365 H368 0.929 . S
C366 C365 1.363 . S
C366 C372 1.428 . S
H367 C363 0.930 . S
H368 C365 0.929 . S
S369 N370 1.613 . S
S369 N371 1.610 . S
N370 S369 1.613 . S
N370 C373 1.350 . S
N371 S369 1.610 . S
N371 C372 1.351 . S
C372 C366 1.428 . S
C372 N371 1.351 . S
C372 C373 1.434 . S
C373 C364 1.429 . S
C373 N370 1.350 . S
C373 C372 1.434 . S
C374 C375 1.369 1_556 S
C374 C376 1.419 . S
C374 H378 0.930 . S
C375 C374 1.369 1_554 S
C375 C384 1.429 . S
C376 C374 1.419 . S
C376 C377 1.363 1_556 S
C376 H379 0.929 . S
C377 C376 1.363 1_554 S
C377 C383 1.428 . S
H378 C374 0.930 . S
H379 C376 0.929 . S
S380 N381 1.613 . S
S380 N382 1.610 . S
N381 S380 1.613 . S
N381 C384 1.350 . S
N382 S380 1.610 . S
N382 C383 1.351 . S
C383 C377 1.428 . S
C383 N382 1.351 . S
C383 C384 1.434 . S
C384 C375 1.429 . S
C384 N381 1.350 . S
C384 C383 1.434 . S
C385 C386 1.369 . S
C385 C387 1.419 . S
C385 H389 0.930 . S
C386 C385 1.369 . S
C386 C395 1.429 . S
C387 C385 1.419 . S
C387 C388 1.363 . S
C387 H390 0.929 . S
C388 C387 1.363 . S
C388 C394 1.428 . S
H389 C385 0.930 . S
H390 C387 0.929 . S
S391 N392 1.613 . S
S391 N393 1.610 . S
N392 S391 1.613 . S
N392 C395 1.350 . S
N393 S391 1.610 . S
N393 C394 1.351 . S
C394 C388 1.428 . S
C394 N393 1.351 . S
C394 C395 1.434 . S
C395 C386 1.429 . S
C395 N392 1.350 . S
C395 C394 1.434 . S
C396 C397 1.369 . S
C396 C398 1.419 . S
C396 H400 0.930 . S
C397 C396 1.369 . S
C397 C406 1.429 . S
C398 C396 1.419 . S
C398 C399 1.363 . S
C398 H401 0.929 . S
C399 C398 1.363 . S
C399 C405 1.428 . S
H400 C396 0.930 . S
H401 C398 0.929 . S
S402 N403 1.613 . S
S402 N404 1.610 . S
N403 S402 1.613 . S
N403 C406 1.350 . S
N404 S402 1.610 . S
N404 C405 1.351 . S
C405 C399 1.428 . S
C405 N404 1.351 . S
C405 C406 1.434 . S
C406 C397 1.429 . S
C406 N403 1.350 . S
C406 C405 1.434 . S
C407 C408 1.369 . S
C407 C409 1.419 . S
C407 H411 0.930 . S
C408 C407 1.369 . S
C408 C417 1.429 . S
C409 C407 1.419 . S
C409 C410 1.363 . S
C409 H412 0.929 . S
C410 C409 1.363 . S
C410 C416 1.428 . S
H411 C407 0.930 . S
H412 C409 0.929 . S
S413 N414 1.613 . S
S413 N415 1.610 . S
N414 S413 1.613 . S
N414 C417 1.350 . S
N415 S413 1.610 . S
N415 C416 1.351 . S
C416 C410 1.428 . S
C416 N415 1.351 . S
C416 C417 1.434 . S
C417 C408 1.429 . S
C417 N414 1.350 . S
C417 C416 1.434 . S
C418 C419 1.369 . S
C418 C420 1.419 . S
C418 H422 0.930 . S
C419 C418 1.369 . S
C419 C428 1.429 . S
C420 C418 1.419 . S
C420 C421 1.363 . S
C420 H423 0.929 . S
C421 C420 1.363 . S
C421 C427 1.428 . S
H422 C418 0.930 . S
H423 C420 0.929 . S
S424 N425 1.613 . S
S424 N426 1.610 . S
N425 S424 1.613 . S
N425 C428 1.350 . S
N426 S424 1.610 . S
N426 C427 1.351 . S
C427 C421 1.428 . S
C427 N426 1.351 . S
C427 C428 1.434 . S
C428 C419 1.429 . S
C428 N425 1.350 . S
C428 C427 1.434 . S
C429 C430 1.369 . S
C429 C431 1.419 . S
C429 H433 0.930 . S
C430 C429 1.369 . S
C430 C439 1.429 1_554 S
C431 C429 1.419 . S
C431 C432 1.363 . S
C431 H434 0.929 . S
C432 C431 1.363 . S
C432 C438 1.428 1_554 S
H433 C429 0.930 . S
H434 C431 0.929 . S
S435 N436 1.613 . S
S435 N437 1.610 . S
N436 S435 1.613 . S
N436 C439 1.350 . S
N437 S435 1.610 . S
N437 C438 1.351 . S
C438 C432 1.428 1_556 S
C438 N437 1.351 . S
C438 C439 1.434 . S
C439 C430 1.429 1_556 S
C439 N436 1.350 . S
C439 C438 1.434 . S
C177 C21 1.482 . S
C179 C125 1.494 . S
C188 C40 1.502 . S
C190 C92 1.491 . S
C201 C104 1.458 . S
C199 C54 1.482 . S
C210 C73 1.527 . S
C212 C115 1.503 . S
C223 C148 1.448 . S
C221 C74 1.470 . S
C234 C159 1.485 . S
C232 C10 1.523 . S
C245 C169 1.500 . S
C243 C37 1.493 . S
C256 C136 1.510 . S
C254 C65 1.507 . S
C265 C52 1.450 . S
C267 C103 1.449 . S
C276 C87 1.517 . S
C278 C114 1.508 . S
C287 C15 1.519 . S
C289 C126 1.504 . S
C300 C93 1.476 . S
C298 C32 1.507 . S
C309 C29 1.504 . S
C311 C170 1.494 . S
C322 C137 1.519 . S
C320 C59 1.541 . S
C333 C147 1.455 . S
C331 C84 1.460 . S
C342 C8 1.485 . S
C344 C158 1.467 . S
C355 C98 1.527 . S
C353 C7 1.536 . S
C366 C109 1.491 . S
C364 C30 1.490 . S
C375 C62 1.540 . S
C377 C120 1.532 . S
C386 C81 1.504 . S
C388 C131 1.513 . S
C399 C142 1.523 . S
C397 C76 1.540 . S
C408 C18 1.490 . S
C410 C153 1.491 . S
C419 C43 1.533 . S
C421 C164 1.532 . S
C430 C51 1.501 . S
C432 C175 1.513 1_554 S
