# Generated by pormake.
# Topology zzz, (3,6)-cn, num edge types: 1
# Building blocks:
#     Node 0, Type 0, BuildingBlock: QEWDON_clean_linker_0, # of connection points: 3
#     Node 1, Type 0, BuildingBlock: QEWDON_clean_linker_0, # of connection points: 3
#     Node 2, Type 0, BuildingBlock: QEWDON_clean_linker_0, # of connection points: 3
#     Node 3, Type 0, BuildingBlock: QEWDON_clean_linker_0, # of connection points: 3
#     Node 4, Type 0, BuildingBlock: QEWDON_clean_linker_0, # of connection points: 3
#     Node 5, Type 0, BuildingBlock: QEWDON_clean_linker_0, # of connection points: 3
#     Node 6, Type 0, BuildingBlock: QEWDON_clean_linker_0, # of connection points: 3
#     Node 7, Type 0, BuildingBlock: QEWDON_clean_linker_0, # of connection points: 3
#     Node 8, Type 1, BuildingBlock: BETDIP_clean_sbu_0, # of connection points: 6
#     Node 9, Type 1, BuildingBlock: BETDIP_clean_sbu_0, # of connection points: 6
#     Node 10, Type 1, BuildingBlock: BETDIP_clean_sbu_0, # of connection points: 6
#     Node 11, Type 1, BuildingBlock: BETDIP_clean_sbu_0, # of connection points: 6
#     Edge 12, Type (0, 1), BuildingBlock: XIVTED_clean_linker_0, # of connection points: 2
#     Edge 13, Type (0, 1), BuildingBlock: XIVTED_clean_linker_0, # of connection points: 2
#     Edge 14, Type (0, 1), BuildingBlock: XIVTED_clean_linker_0, # of connection points: 2
#     Edge 15, Type (0, 1), BuildingBlock: XIVTED_clean_linker_0, # of connection points: 2
#     Edge 16, Type (0, 1), BuildingBlock: XIVTED_clean_linker_0, # of connection points: 2
#     Edge 17, Type (0, 1), BuildingBlock: XIVTED_clean_linker_0, # of connection points: 2
#     Edge 18, Type (0, 1), BuildingBlock: XIVTED_clean_linker_0, # of connection points: 2
#     Edge 19, Type (0, 1), BuildingBlock: XIVTED_clean_linker_0, # of connection points: 2
#     Edge 20, Type (0, 1), BuildingBlock: XIVTED_clean_linker_0, # of connection points: 2
#     Edge 21, Type (0, 1), BuildingBlock: XIVTED_clean_linker_0, # of connection points: 2
#     Edge 22, Type (0, 1), BuildingBlock: XIVTED_clean_linker_0, # of connection points: 2
#     Edge 23, Type (0, 1), BuildingBlock: XIVTED_clean_linker_0, # of connection points: 2
#     Edge 24, Type (0, 1), BuildingBlock: XIVTED_clean_linker_0, # of connection points: 2
#     Edge 25, Type (0, 1), BuildingBlock: XIVTED_clean_linker_0, # of connection points: 2
#     Edge 26, Type (0, 1), BuildingBlock: XIVTED_clean_linker_0, # of connection points: 2
#     Edge 27, Type (0, 1), BuildingBlock: XIVTED_clean_linker_0, # of connection points: 2
#     Edge 28, Type (0, 1), BuildingBlock: XIVTED_clean_linker_0, # of connection points: 2
#     Edge 29, Type (0, 1), BuildingBlock: XIVTED_clean_linker_0, # of connection points: 2
#     Edge 30, Type (0, 1), BuildingBlock: XIVTED_clean_linker_0, # of connection points: 2
#     Edge 31, Type (0, 1), BuildingBlock: XIVTED_clean_linker_0, # of connection points: 2
#     Edge 32, Type (0, 1), BuildingBlock: XIVTED_clean_linker_0, # of connection points: 2
#     Edge 33, Type (0, 1), BuildingBlock: XIVTED_clean_linker_0, # of connection points: 2
#     Edge 34, Type (0, 1), BuildingBlock: XIVTED_clean_linker_0, # of connection points: 2
#     Edge 35, Type (0, 1), BuildingBlock: XIVTED_clean_linker_0, # of connection points: 2
# Relax obj value: 0.167
# Max RMSD: 0.151
# Mean RMSD: 0.109
data_MOF--net-zzz--node1-BETDIP_clean_sbu_0--node2-QEWDON_clean_linker_0--edge1-XIVTED_clean_linker_0
_symmetry_space_group_name_H-M    P1
_symmetry_Int_Tables_number       1
_symmetry_cell_setting            triclinic
loop_
_symmetry_equiv_pos_as_xyz
'x, y, z'
_cell_length_a     55.641375
_cell_length_b     55.614563
_cell_length_c     13.061681
_cell_angle_alpha  90.106856
_cell_angle_beta   90.054345
_cell_angle_gamma 89.6677
loop_
_atom_site_label
_atom_site_type_symbol
_atom_site_fract_x
_atom_site_fract_y
_atom_site_fract_z
_atom_type_partial_charge
H0 H 0.75195 0.48919 0.27596 0.0
C1 C 0.76628 0.49762 0.31888 0.0
C2 C 0.78935 0.48748 0.31431 0.0
C3 C 0.76172 0.51802 0.38074 0.0
H4 H 0.82612 0.49022 0.36406 0.0
C5 C 0.80813 0.49779 0.37004 0.0
C6 C 0.80453 0.51817 0.43027 0.0
C7 C 0.78127 0.52836 0.43599 0.0
C8 C 0.73646 0.52755 0.39119 0.0
H9 H 0.77859 0.54434 0.48212 0.0
C10 C 0.71945 0.52613 0.30992 0.0
C11 C 0.69519 0.53326 0.32451 0.0
C12 C 0.72873 0.53686 0.48589 0.0
H13 H 0.7408 0.53777 0.55077 0.0
C14 C 0.70502 0.54443 0.49981 0.0
H15 H 0.72488 0.51918 0.23595 0.0
C16 C 0.68839 0.54257 0.42038 0.0
H17 H 0.67013 0.54863 0.43395 0.0
H18 H 0.69941 0.55152 0.57329 0.0
H19 H 0.05521 0.74995 0.29803 0.0
C20 C 0.04877 0.76485 0.34403 0.0
C21 C 0.06065 0.78689 0.33582 0.0
C22 C 0.02892 0.76216 0.41021 0.0
H23 H 0.06193 0.82365 0.38813 0.0
C24 C 0.05323 0.80635 0.39652 0.0
C25 C 0.03341 0.80467 0.46131 0.0
C26 C 1.021 0.78264 0.46732 0.0
C27 C 1.0172 0.73791 0.42122 0.0
H28 H 1.00529 0.78162 0.51587 0.0
C29 C 1.01747 0.72051 0.34093 0.0
C30 C 1.00862 0.69696 0.35643 0.0
C31 C 1.00695 0.73133 0.51553 0.0
H32 H 1.0068 0.74359 0.57993 0.0
C33 C 0.99743 0.70844 0.52989 0.0
H34 H 0.02495 0.72496 0.26699 0.0
C35 C 0.99836 0.69138 0.45168 0.0
H36 H 0.99095 0.67374 0.46585 0.0
H37 H 0.98963 0.70374 0.60302 0.0
H38 H 0.79178 0.05664 0.26557 0.0
C39 C 0.77689 0.04899 0.30741 0.0
C40 C 0.75397 0.05889 0.29307 0.0
C41 C 0.78054 0.02991 0.37711 0.0
H42 H 0.71659 0.05725 0.33432 0.0
C43 C 0.73441 0.04977 0.34737 0.0
C44 C 0.73716 0.03078 0.41586 0.0
C45 C 0.76026 1.02078 0.43101 0.0
C46 C 0.80555 1.02046 0.39616 0.0
H47 H 0.76221 1.00581 0.48321 0.0
C48 C 0.82361 1.02082 0.3191 0.0
C49 C 0.84759 1.01392 0.34112 0.0
C50 C 0.81198 1.01225 0.49438 0.0
H51 H 0.79909 1.01218 0.55638 0.0
C52 C 0.83541 1.00474 0.51551 0.0
H53 H 0.81924 0.02686 0.24256 0.0
C54 C 0.85308 1.00566 0.44008 0.0
H55 H 0.87112 0.99978 0.4593 0.0
H56 H 0.84001 0.99849 0.59154 0.0
H57 H 0.48846 0.79718 0.21825 0.0
C58 C 0.49398 0.78216 0.26547 0.0
C59 C 0.48501 0.75947 0.24151 0.0
C60 C 0.50925 0.78544 0.35083 0.0
H61 H 0.48422 0.72217 0.2807 0.0
C62 C 0.49087 0.73975 0.30268 0.0
C63 C 0.50561 0.74201 0.38895 0.0
C64 C 0.51526 0.76493 0.41175 0.0
C65 C 0.51748 0.81046 0.37801 0.0
H66 H 0.52711 0.76668 0.47703 0.0
C67 C 0.51974 0.8287 0.30246 0.0
C68 C 0.52448 0.85292 0.32933 0.0
C69 C 0.52137 0.81687 0.48092 0.0
H70 H 0.51935 0.80389 0.54184 0.0
C71 C 0.52696 0.84049 0.50774 0.0
H72 H 0.51781 0.82415 0.22236 0.0
C73 C 0.52826 0.85839 0.43324 0.0
H74 H 0.53153 0.87667 0.45792 0.0
H75 H 0.52963 0.84512 0.58747 0.0
H76 H 0.2927 0.51148 0.25037 0.0
C77 C 0.27893 0.50897 0.19276 0.0
C78 C 0.2571 0.49938 0.22396 0.0
C79 C 0.28255 0.51647 0.09098 0.0
H80 H 0.22079 0.49155 0.18159 0.0
C81 C 0.23811 0.49768 0.15422 0.0
C82 C 0.24021 0.50595 0.05337 0.0
C83 C 0.26269 0.51531 0.02146 0.0
C84 C 0.30656 0.52716 0.06353 0.0
H85 H 0.26458 0.52149 0.94341 0.0
C86 C 0.32777 0.52056 0.11789 0.0
C87 C 0.34952 0.53338 0.10678 0.0
C88 C 0.30822 0.5456 0.99054 0.0
H89 H 0.29261 0.55157 0.94804 0.0
C90 C 0.32996 0.55749 0.97468 0.0
H91 H 0.32734 0.50555 0.17033 0.0
C92 C 0.35027 0.55178 0.03309 0.0
H93 H 0.3663 0.56239 0.02226 0.0
H94 H 0.33085 0.57188 0.91917 0.0
H95 H 0.98618 0.2995 0.21346 0.0
C96 C 0.99263 0.28479 0.16629 0.0
C97 C 0.98348 0.26187 0.18422 0.0
C98 C 1.00976 0.28872 0.08877 0.0
H99 H 0.98462 0.22454 0.1401 0.0
C100 C 0.99113 0.24249 0.12365 0.0
C101 C 1.00825 0.24544 0.04669 0.0
C102 C 1.0176 0.26868 0.02875 0.0
C103 C 1.01846 0.31393 0.07046 0.0
H104 H 0.03114 0.27096 0.97015 0.0
C105 C 1.02012 0.33093 0.15167 0.0
C106 C 0.02488 0.35557 0.13295 0.0
C107 C 0.02316 0.32179 0.97042 0.0
H108 H 1.02177 0.30961 0.906 0.0
C109 C 0.0286 0.34583 0.95133 0.0
H110 H 1.01767 0.32494 0.22966 0.0
C111 C 0.02911 0.3626 0.03103 0.0
H112 H 0.03224 0.38122 0.0116 0.0
H113 H 0.03175 0.35168 0.87351 0.0
H114 H 0.25049 0.99085 0.20767 0.0
C115 C 0.26496 0.99884 0.16428 0.0
C116 C 0.28776 0.98811 0.16861 0.0
C117 C 0.26088 1.01932 0.1026 0.0
H118 H 0.32452 0.98982 0.11834 0.0
C119 C 0.30673 0.99784 0.11247 0.0
C120 C 0.30359 1.01829 0.05255 0.0
C121 C 0.28062 0.02909 0.04716 0.0
C122 C 0.23595 0.02974 0.09334 0.0
H123 H 0.27838 0.04519 1.00162 0.0
C124 C 0.21902 0.02863 0.17481 0.0
C125 C 0.19504 0.03671 0.16137 0.0
C126 C 0.22842 0.03976 0.99967 0.0
H127 H 0.24041 0.04047 0.93455 0.0
C128 C 0.20502 0.04834 0.98709 0.0
H129 H 0.22427 1.02116 0.24802 0.0
C130 C 0.18846 0.04676 0.06669 0.0
H131 H 0.17041 0.05355 0.05413 0.0
H132 H 0.19958 0.05598 0.91446 0.0
H133 H 0.55405 0.25601 0.22304 0.0
C134 C 0.54696 0.27073 0.17779 0.0
C135 C 0.55499 0.29396 0.19892 0.0
C136 C 0.53063 0.26654 0.09698 0.0
H137 H 0.55339 0.33124 0.15766 0.0
C138 C 0.54686 0.31333 0.14024 0.0
C139 C 0.53076 0.3101 0.05937 0.0
C140 C 0.52268 0.28658 0.03734 0.0
C141 C 0.52298 0.24119 0.0731 0.0
H142 H 0.50996 0.28412 0.97551 0.0
C143 C 0.52165 0.2232 0.15032 0.0
C144 C 0.51659 0.19895 0.12548 0.0
C145 C 0.51831 0.23439 0.97123 0.0
H146 H 0.51966 0.2472 0.90929 0.0
C147 C 0.5126 0.21067 0.94678 0.0
H148 H 0.52495 0.22787 0.22952 0.0
C149 C 0.51184 0.19311 0.02272 0.0
H150 H 0.50741 0.17487 1.00079 0.0
H151 H 0.50906 0.20579 0.86794 0.0
Tb152 Tb 0.0361 1.01905 0.85017 0.0
Tb153 Tb 1.00911 0.0306 0.66488 0.0
C154 C 0.04972 0.99787 0.00977 0.0
C155 C 0.05548 0.97226 0.02591 0.0
C156 C 0.04144 0.95447 0.97951 0.0
C157 C 0.049 0.93059 0.97879 0.0
C158 C 0.0703 0.92344 0.02892 0.0
C159 C 0.08367 0.9413 0.08056 0.0
C160 C 0.07651 0.96548 0.07761 0.0
C161 C 0.06357 0.03187 0.69499 0.0
C162 C 1.02112 0.97674 0.68988 0.0
C163 C 0.99593 0.05187 0.50546 0.0
C164 C 0.99219 0.07783 0.49044 0.0
C165 C 1.00859 0.09428 0.53169 0.0
C166 C 1.00276 0.11858 0.53848 0.0
C167 C 0.98063 0.12735 0.50118 0.0
C168 C 0.96496 0.11091 0.45313 0.0
C169 C 0.97055 0.08638 0.44917 0.0
C170 C 0.98165 1.01727 0.81903 0.0
C171 C 0.02371 0.07293 0.82519 0.0
O172 O 0.02718 1.00301 0.99019 0.0
O173 O 0.06436 1.00913 0.94839 0.0
O174 O 0.04511 1.01876 0.69056 0.0
O175 O 0.0676 0.03747 0.78983 0.0
O176 O 0.02932 0.98326 0.78119 0.0
O177 O 1.01355 0.99296 0.62351 0.0
O178 O 1.01814 0.0449 0.52164 0.0
O179 O 0.98091 0.04193 0.56933 0.0
O180 O 0.99992 0.03068 0.82449 0.0
O181 O 0.97789 1.01171 0.7239 0.0
O182 O 1.01613 0.06649 0.73282 0.0
O183 O 0.03086 0.05661 0.89202 0.0
H184 H 0.02488 0.959 0.9405 0.0
H185 H 0.03813 0.91806 0.93607 0.0
H186 H 0.09967 0.93683 0.12363 0.0
H187 H 0.08759 0.97893 0.11443 0.0
H188 H 0.02556 0.0883 0.56361 0.0
H189 H 1.01544 0.13008 0.57722 0.0
H190 H 0.94823 0.11677 0.41891 0.0
H191 H 0.95766 0.07399 0.4166 0.0
Tb192 Tb 0.52634 0.04184 0.82186 0.0
Tb193 Tb 0.51229 1.01344 0.63254 0.0
C194 C 0.54698 0.05915 0.9758 0.0
C195 C 0.57168 0.06817 0.989 0.0
C196 C 0.59159 0.05309 0.97162 0.0
C197 C 0.61478 0.06241 0.97217 0.0
C198 C 0.61866 0.08702 0.99018 0.0
C199 C 0.59879 0.10202 0.0103 0.0
C200 C 0.5755 0.09267 0.00962 0.0
C201 C 0.5129 0.06778 0.66131 0.0
C202 C 0.56745 0.02321 0.66573 0.0
C203 C 0.49322 1.00213 0.46648 0.0
C204 C 0.47196 0.98692 0.45277 0.0
C205 C 0.46132 0.98397 0.35652 0.0
C206 C 0.43961 0.97151 0.34748 0.0
C207 C 0.42828 0.96188 0.43477 0.0
C208 C 0.43967 0.96405 0.53021 0.0
C209 C 0.4612 0.97655 0.53911 0.0
C210 C 0.51546 0.98314 0.79042 0.0
C211 C 0.47259 0.02892 0.79859 0.0
O212 O 0.54447 0.03599 0.96066 0.0
O213 O 0.53353 0.07185 0.91397 0.0
O214 O 0.52569 0.04893 0.65951 0.0
O215 O 0.50751 0.07263 0.75549 0.0
O216 O 0.56174 0.03334 0.75474 0.0
O217 O 0.55079 1.01549 0.6011 0.0
O218 O 0.48889 0.02264 0.51302 0.0
O219 O 0.51224 0.99106 0.50325 0.0
O220 O 0.51897 1.0055 0.78984 0.0
O221 O 0.51038 0.97711 0.69762 0.0
O222 O 0.4776 0.02415 0.70128 0.0
O223 O 0.48983 0.03304 0.86612 0.0
H224 H 0.58931 0.03413 0.95549 0.0
H225 H 0.62973 0.05021 0.95941 0.0
H226 H 0.60122 0.12102 0.02519 0.0
H227 H 0.56042 0.10467 0.02302 0.0
H228 H 0.46931 0.99198 0.2892 0.0
H229 H 0.43112 0.97052 0.27297 0.0
H230 H 0.43158 0.95671 0.59868 0.0
H231 H 0.46896 0.97882 0.61437 0.0
Tb232 Tb 0.50944 0.53079 0.78577 0.0
Tb233 Tb 0.53975 0.5194 0.62017 0.0
C234 C 0.48842 0.55195 0.93013 0.0
C235 C 0.48011 0.5772 0.93551 0.0
C236 C 0.49651 0.59615 0.92532 0.0
C237 C 0.48837 0.61979 0.91655 0.0
C238 C 0.46365 0.62513 0.91793 0.0
C239 C 0.44722 0.60624 0.9304 0.0
C240 C 0.4554 0.58248 0.93903 0.0
C241 C 0.48513 0.51776 0.61951 0.0
C242 C 0.52646 0.57269 0.63675 0.0
C243 C 0.56141 0.49938 0.47447 0.0
C244 C 0.57539 0.47697 0.47668 0.0
C245 C 0.58036 0.4645 0.38607 0.0
C246 C 0.59043 0.44144 0.39017 0.0
C247 C 0.59548 0.4305 0.48513 0.0
C248 C 0.59164 0.44366 0.57552 0.0
C249 C 0.58174 0.46674 0.57127 0.0
C250 C 0.56423 0.53193 0.78645 0.0
C251 C 0.52205 0.47715 0.77032 0.0
O252 O 0.51168 0.54834 0.92787 0.0
O253 O 0.47727 0.53871 0.86294 0.0
O254 O 0.50321 0.5314 0.62173 0.0
O255 O 0.48048 0.511 0.71193 0.0
O256 O 0.52095 0.56662 0.73153 0.0
O257 O 0.53082 0.55566 0.56879 0.0
O258 O 0.53842 0.49678 0.49148 0.0
O259 O 0.57043 0.51708 0.52747 0.0
O260 O 0.54598 0.51852 0.78387 0.0
O261 O 0.56912 0.5385 0.69422 0.0
O262 O 0.53002 0.48325 0.67845 0.0
O263 O 0.51542 0.49401 0.83574 0.0
H264 H 0.51568 0.59278 0.92232 0.0
H265 H 0.50158 0.63394 0.91026 0.0
H266 H 0.42807 0.60977 0.93227 0.0
H267 H 0.44238 0.56816 0.9461 0.0
H268 H 0.57546 0.47211 0.31259 0.0
H269 H 0.59282 0.43162 0.31919 0.0
H270 H 0.59541 0.43575 0.64958 0.0
H271 H 0.57808 0.4762 0.6422 0.0
Tb272 Tb 1.01346 0.51222 0.85246 0.0
Tb273 Tb 0.0279 0.5397 0.65826 0.0
C274 C 0.99451 0.50139 0.01891 0.0
C275 C 0.97344 0.48599 0.03288 0.0
C276 C 0.96332 0.48245 0.12966 0.0
C277 C 0.94186 0.46961 0.13918 0.0
C278 C 0.93025 0.46024 0.05184 0.0
C279 C 0.94113 0.46298 0.95574 0.0
C280 C 0.96246 0.47577 0.94641 0.0
C281 C 1.0177 0.48149 0.69493 0.0
C282 C 0.9734 0.529 0.68688 0.0
C283 C 0.05181 0.54983 0.50418 0.0
C284 C 0.07595 0.53959 0.48799 0.0
C285 C 0.0805 0.5159 0.52043 0.0
C286 C 0.10384 0.50789 0.53768 0.0
C287 C 0.12343 0.52306 0.5197 0.0
C288 C 0.11896 0.54629 0.48028 0.0
C289 C 0.09539 0.55457 0.46574 0.0
C290 C 1.01391 0.5669 0.81332 0.0
C291 C 0.06844 0.52014 0.81656 0.0
O292 O 0.99 0.5217 0.97131 0.0
O293 O 1.01364 0.49037 0.98298 0.0
O294 O 1.0208 0.50387 0.69728 0.0
O295 O 1.01219 0.4755 0.78735 0.0
O296 O 0.97874 0.52218 0.78179 0.0
O297 O 0.99022 0.53478 0.61957 0.0
O298 O 0.03403 0.53444 0.50121 0.0
O299 O 0.05039 0.56423 0.58347 0.0
O300 O 0.02628 0.54772 0.81914 0.0
O301 O 1.01018 0.57187 0.71734 0.0
O302 O 0.06254 0.52812 0.72438 0.0
O303 O 0.05191 0.51459 0.88538 0.0
H304 H 0.97153 0.49026 0.1971 0.0
H305 H 0.93373 0.46811 0.21419 0.0
H306 H 0.93276 0.45587 0.88726 0.0
H307 H 0.96994 0.47836 0.87086 0.0
H308 H 0.06599 0.50408 0.5415 0.0
H309 H 0.10628 0.49012 0.56982 0.0
H310 H 0.13359 0.5583 0.46239 0.0
H311 H 0.09235 0.57301 0.44219 0.0
H312 H 0.19913 0.04692 0.36785 0.0
H313 H 0.06148 1.01511 0.49701 0.0
H314 H 0.14838 1.02163 0.14293 0.0
H315 H 0.10872 0.05084 0.70947 0.0
H316 H 0.09369 1.01539 0.36878 0.0
H317 H 0.16721 0.04579 0.49765 0.0
C318 C 0.18137 0.04093 0.34588 0.0
C319 C 0.17648 0.03454 0.24388 0.0
C320 C 0.09702 0.02324 0.44335 0.0
C321 C 0.13971 0.03332 0.39216 0.0
C322 C 0.07858 0.02314 0.51649 0.0
C323 C 0.08236 0.03302 0.61411 0.0
C324 C 0.11954 0.03314 0.46801 0.0
C325 C 0.10497 0.04306 0.63517 0.0
C326 C 0.16308 0.04046 0.41987 0.0
C327 C 0.15297 0.02708 0.22006 0.0
N328 N 0.12268 0.04278 0.56311 0.0
N329 N 0.13557 0.0267 0.29326 0.0
H330 H 0.53491 0.15301 0.11027 0.0
H331 H 0.49143 0.11193 0.66889 0.0
H332 H 0.49829 0.20014 0.32229 0.0
H333 H 0.53223 0.06595 0.46669 0.0
H334 H 0.49237 0.14371 0.53994 0.0
H335 H 0.53312 0.12071 0.23657 0.0
C336 C 0.52638 0.15661 0.18327 0.0
C337 C 0.51658 0.17947 0.20492 0.0
C338 C 0.50107 0.12668 0.52331 0.0
C339 C 0.51461 0.14225 0.35116 0.0
C340 C 0.50046 0.10844 0.5969 0.0
C341 C 0.51181 0.08621 0.57881 0.0
C342 C 0.51309 0.1228 0.43014 0.0
C343 C 0.52323 0.08279 0.48396 0.0
C344 C 0.52547 0.1381 0.25568 0.0
C345 C 0.50624 0.18298 0.30201 0.0
N346 N 0.52363 0.10088 0.41341 0.0
N347 N 0.50544 0.16461 0.37104 0.0
H348 H 0.3984 0.53808 0.06606 0.0
H349 H 0.44073 0.49749 0.6269 0.0
H350 H 0.34958 0.51846 0.30866 0.0
H351 H 0.48677 0.53773 0.42549 0.0
H352 H 0.40867 0.49974 0.49948 0.0
H353 H 0.43202 0.53338 0.18551 0.0
C354 C 0.39458 0.53278 0.14402 0.0
C355 C 0.37074 0.52874 0.17624 0.0
C356 C 0.42578 0.50802 0.48266 0.0
C357 C 0.40965 0.52281 0.31352 0.0
C358 C 0.44419 0.50668 0.5554 0.0
C359 C 0.4665 0.51755 0.53733 0.0
C360 C 0.42959 0.52016 0.38992 0.0
C361 C 0.46985 0.52913 0.44282 0.0
C362 C 0.41393 0.53001 0.21217 0.0
C363 C 0.36741 0.52139 0.27843 0.0
N364 N 0.4516 0.53016 0.3727 0.0
N365 N 0.38653 0.51868 0.34276 0.0
H366 H 0.9983 0.3556 0.31268 0.0
H367 H 0.02865 0.48943 0.4891 0.0
H368 H 0.05001 0.39859 0.14869 0.0
H369 H 1.00895 0.43375 0.70133 0.0
H370 H 0.03131 0.45896 0.35234 0.0
H371 H 0.99693 0.38632 0.44604 0.0
C372 C 1.0096 0.37125 0.30439 0.0
C373 C 0.02438 0.37409 0.2178 0.0
C374 C 0.02653 0.45348 0.42916 0.0
C375 C 0.02205 0.41013 0.37053 0.0
C376 C 0.02514 0.47089 0.50735 0.0
C377 C 1.01909 0.46419 0.60759 0.0
C378 C 1.02117 0.4293 0.45089 0.0
C379 C 1.01392 0.43982 0.62558 0.0
C380 C 1.00858 0.38898 0.38068 0.0
C381 C 0.03793 0.39547 0.21199 0.0
N382 N 1.01495 0.42339 0.54838 0.0
N383 N 0.03631 0.41263 0.28655 0.0
H384 H 0.89349 0.03073 0.36726 0.0
H385 H 0.93767 0.99627 0.801 0.0
H386 H 0.84674 1.00087 0.13682 0.0
H387 H 0.98162 0.03515 0.01629 0.0
H388 H 0.90496 0.99602 0.92584 0.0
H389 H 0.92628 0.03115 0.24289 0.0
C390 C 0.89009 0.0242 0.29045 0.0
C391 C 0.86723 1.01558 0.263 0.0
C392 C 0.92173 1.00459 0.94611 0.0
C393 C 0.90498 1.01608 0.11929 0.0
C394 C 0.9405 1.00466 0.87491 0.0
C395 C 0.96246 1.01579 0.89805 0.0
C396 C 0.92484 1.01562 0.04201 0.0
C397 C 0.96503 0.02635 0.99516 0.0
C398 C 0.90887 0.02455 0.21925 0.0
C399 C 0.86393 1.00779 0.16156 0.0
N400 N 0.94647 0.02601 0.06345 0.0
N401 N 0.88259 1.00808 0.09381 0.0
H402 H 0.55173 0.89461 0.32214 0.0
H403 H 0.49567 0.93924 0.79146 0.0
H404 H 0.49614 0.85703 0.15674 0.0
H405 H 0.53684 0.98674 0.98392 0.0
H406 H 0.49795 0.90837 0.92239 0.0
H407 H 0.54884 0.92756 0.19837 0.0
C408 C 0.53887 0.89318 0.26027 0.0
C409 C 0.52417 0.8727 0.25074 0.0
C410 C 0.50643 0.92552 0.93693 0.0
C411 C 0.52109 0.91055 0.10728 0.0
C412 C 0.50516 0.94324 0.86188 0.0
C413 C 0.51608 0.96569 0.87653 0.0
C414 C 0.51901 0.9299 0.0281 0.0
C415 C 0.52806 0.96976 0.96965 0.0
C416 C 0.53731 0.91208 0.18939 0.0
C417 C 0.50822 0.872 0.16717 0.0
N418 N 0.52938 0.95194 0.04178 0.0
N419 N 0.50718 0.89052 0.09919 0.0
H420 H 0.69899 0.54493 0.1198 0.0
H421 H 0.56187 0.51231 0.98042 0.0
H422 H 0.6488 0.51692 0.34023 0.0
H423 H 0.60894 0.55167 0.78026 0.0
H424 H 0.59398 0.51137 0.11025 0.0
H425 H 0.6671 0.54427 0.98988 0.0
C426 C 0.68137 0.53841 0.14071 0.0
C427 C 0.67664 0.53114 0.24159 0.0
C428 C 0.59725 0.52025 0.03794 0.0
C429 C 0.63981 0.53049 0.093 0.0
C430 C 0.57888 0.52084 0.96397 0.0
C431 C 0.58267 0.5321 0.86928 0.0
C432 C 0.61965 0.53084 0.01684 0.0
C433 C 0.60516 0.54279 0.85209 0.0
C434 C 0.66307 0.53822 0.06666 0.0
C435 C 0.65327 0.52305 0.26401 0.0
N436 N 0.62273 0.54181 0.92462 0.0
N437 N 0.63582 0.52296 0.19071 0.0
H438 H 0.02185 0.64965 0.38 0.0
H439 H 0.99547 0.61227 0.79719 0.0
H440 H 0.99943 0.70026 0.14858 0.0
H441 H 0.02793 0.56406 0.01605 0.0
H442 H 0.99467 0.64393 0.9273 0.0
H443 H 0.02252 0.6178 0.25078 0.0
C444 C 1.017 0.6541 0.30196 0.0
C445 C 1.0104 0.67779 0.27571 0.0
C446 C 1.00194 0.62645 0.94724 0.0
C447 C 1.01121 0.64109 0.12628 0.0
C448 C 1.00232 0.60827 0.87297 0.0
C449 C 1.01184 0.58542 0.8955 0.0
C450 C 1.01103 0.62185 0.04569 0.0
C451 C 1.02043 0.58138 0.99519 0.0
C452 C 1.0175 0.63585 0.22799 0.0
C453 C 1.00475 0.68239 0.17263 0.0
N454 N 1.01983 0.59938 0.06645 0.0
N455 N 1.00514 0.66423 0.10209 0.0
H456 H 0.94007 0.23929 0.19757 0.0
H457 H 1.01137 0.16624 0.52056 0.0
H458 H 0.99564 0.27134 0.38144 0.0
H459 H 0.93556 0.14934 0.50307 0.0
H460 H 1.00159 0.20802 0.5072 0.0
H461 H 0.93035 0.21256 0.33895 0.0
C462 C 0.94934 0.24154 0.2699 0.0
C463 C 0.96938 0.25661 0.27689 0.0
C464 C 0.98695 0.19527 0.5086 0.0
C465 C 0.95916 0.22564 0.43637 0.0
C466 C 0.99255 0.17098 0.51629 0.0
C467 C 0.97442 0.15352 0.50889 0.0
C468 C 0.96323 0.20236 0.4879 0.0
C469 C 0.95045 0.16174 0.50265 0.0
C470 C 0.94387 0.22622 0.35077 0.0
C471 C 0.98056 0.25929 0.37229 0.0
N472 N 0.94561 0.18549 0.4884 0.0
N473 N 0.97599 0.24316 0.44746 0.0
H474 H 0.30271 0.94268 0.1225 0.0
H475 H 0.39106 0.96929 0.56849 0.0
H476 H 0.28859 0.9902 0.37601 0.0
H477 H 0.40867 0.93291 0.28589 0.0
H478 H 0.34871 0.96125 0.53782 0.0
H479 H 0.33385 0.92259 0.22317 0.0
C480 C 0.30522 0.94793 0.20171 0.0
C481 C 0.29375 0.96856 0.24031 0.0
C482 C 0.36187 0.95445 0.48383 0.0
C483 C 0.32987 0.94654 0.35372 0.0
C484 C 0.38614 0.95897 0.50135 0.0
C485 C 0.40345 0.95235 0.42804 0.0
C486 C 0.35479 0.94353 0.39176 0.0
C487 C 0.39587 0.93906 0.34265 0.0
C488 C 0.32327 0.93672 0.25869 0.0
C489 C 0.29748 0.97464 0.34309 0.0
N490 N 0.37205 0.93554 0.32575 0.0
N491 N 0.31592 0.96426 0.39532 0.0
H492 H 0.60278 0.30256 0.18625 0.0
H493 H 0.57645 0.39672 0.61287 0.0
H494 H 0.54403 0.29954 0.39976 0.0
H495 H 0.62715 0.40485 0.36585 0.0
H496 H 0.57697 0.35334 0.58563 0.0
H497 H 0.62394 0.32981 0.30184 0.0
C498 C 0.59494 0.30668 0.2602 0.0
C499 C 0.57159 0.29923 0.2835 0.0
C500 C 0.58855 0.36451 0.53934 0.0
C501 C 0.59494 0.33118 0.41308 0.0
C502 C 0.58835 0.38933 0.55512 0.0
C503 C 0.60121 0.40446 0.4892 0.0
C504 C 0.6015 0.35488 0.45646 0.0
C505 C 0.61635 0.39385 0.41605 0.0
C506 C 0.60686 0.32245 0.32568 0.0
C507 C 0.562 0.30515 0.37931 0.0
N508 N 0.61566 0.36974 0.40003 0.0
N509 N 0.5734 0.32142 0.43955 0.0
H510 H 0.26162 0.53108 0.38141 0.0
H511 H 0.14132 0.47683 0.50566 0.0
H512 H 0.24008 0.45854 0.31348 0.0
H513 H 0.1627 0.54916 0.58436 0.0
H514 H 0.18291 0.46439 0.51103 0.0
H515 H 0.23484 0.53132 0.52887 0.0
C516 C 0.25214 0.51475 0.40068 0.0
C517 C 0.25201 0.49515 0.33309 0.0
C518 C 0.17855 0.48292 0.52913 0.0
C519 C 0.2207 0.49566 0.49771 0.0
C520 C 0.15459 0.49014 0.52618 0.0
C521 C 0.14835 0.51446 0.53984 0.0
C522 C 0.19656 0.50027 0.54121 0.0
C523 C 0.16668 0.53053 0.56705 0.0
C524 C 0.23664 0.51493 0.48451 0.0
C525 C 0.23982 0.47432 0.36214 0.0
N526 N 0.19001 0.52331 0.56389 0.0
N527 N 0.22393 0.47537 0.44058 0.0
H528 H 0.05306 0.77894 0.13344 0.0
H529 H 0.11588 0.90344 0.06004 0.0
H530 H 0.10542 0.8075 0.34335 0.0
H531 H 0.04212 0.88295 1.00048 0.0
H532 H 0.12545 0.86116 0.09158 0.0
H533 H 0.06642 0.80748 0.00447 0.0
C534 C 0.06837 0.79023 0.15054 0.0
C535 C 0.07734 0.79186 0.25056 0.0
C536 C 0.10743 0.86615 0.06797 0.0
C537 C 0.09207 0.82479 0.10524 0.0
C538 C 0.10168 0.89039 0.05219 0.0
C539 C 0.0778 0.89749 0.03081 0.0
C540 C 0.08941 0.8488 0.05908 0.0
C541 C 0.06078 0.87913 0.01637 0.0
C542 C 0.07584 0.80669 0.07704 0.0
C543 C 0.09742 0.8065 0.26788 0.0
N544 N 0.0669 0.85584 0.0317 0.0
N545 N 0.10352 0.82325 0.19715 0.0
H546 H 0.73945 0.10508 0.3238 0.0
H547 H 0.65651 0.0765 0.86285 0.0
H548 H 0.75491 0.05343 0.08678 0.0
H549 H 0.63771 0.1186 0.12909 0.0
H550 H 0.699 0.08281 0.90111 0.0
H551 H 0.7114 0.1255 0.2089 0.0
C552 C 0.73788 0.09885 0.24543 0.0
C553 C 0.74889 0.07727 0.21501 0.0
C554 C 0.68558 0.09125 0.9495 0.0
C555 C 0.7161 0.09962 0.08554 0.0
C556 C 0.66132 0.08751 0.92818 0.0
C557 C 0.64359 0.09623 0.99535 0.0
C558 C 0.69209 0.10354 0.03925 0.0
C559 C 0.65077 0.11112 0.07639 0.0
C560 C 0.72164 0.1103 0.18017 0.0
C561 C 0.74637 0.06985 0.11317 0.0
N562 N 0.67449 0.1138 0.09761 0.0
N563 N 0.72953 0.08052 0.05284 0.0
H564 H 0.4377 0.74808 0.23136 0.0
H565 H 0.48083 0.66195 0.79889 0.0
H566 H 0.50046 0.75844 0.04461 0.0
H567 H 0.42798 0.64655 0.03102 0.0
H568 H 0.47556 0.70489 0.83285 0.0
H569 H 0.42133 0.72116 0.10116 0.0
C570 C 0.44741 0.74566 0.16017 0.0
C571 C 0.47062 0.75493 0.14901 0.0
C572 C 0.4646 0.69213 0.87417 0.0
C573 C 0.45273 0.72338 0.00291 0.0
C574 C 0.46773 0.66761 0.85547 0.0
C575 C 0.45558 0.65061 0.91542 0.0
C576 C 0.44935 0.69962 0.95382 0.0
C577 C 0.43812 0.65895 0.98444 0.0
C578 C 0.43823 0.73008 0.08635 0.0
C579 C 0.4826 0.7513 0.05607 0.0
N580 N 0.43597 0.68286 0.00359 0.0
N581 N 0.47389 0.7351 0.9877 0.0
H582 H 0.78913 0.48831 0.10665 0.0
H583 H 0.91198 0.42946 0.19631 0.0
H584 H 0.80583 0.44275 0.36326 0.0
H585 H 0.89215 0.46896 0.92471 0.0
H586 H 0.8695 0.42164 0.22846 0.0
H587 H 0.82011 0.46783 0.00683 0.0
C588 C 0.79842 0.47303 0.14005 0.0
C589 C 0.79565 0.46768 0.24401 0.0
C590 C 0.87444 0.43148 0.16024 0.0
C591 C 0.83189 0.44513 0.13312 0.0
C592 C 0.89871 0.43609 0.14241 0.0
C593 C 0.90557 0.45048 0.05952 0.0
C594 C 0.85691 0.44186 0.0961 0.0
C595 C 0.8877 0.45802 0.99041 0.0
C596 C 0.81644 0.46154 0.08363 0.0
C597 C 0.80798 0.44771 0.28368 0.0
N598 N 0.86418 0.45414 0.01165 0.0
N599 N 0.8263 0.43774 0.22951 0.0
H600 H 0.99117 0.22644 0.86735 0.0
H601 H 0.05023 0.09616 0.97383 0.0
H602 H 0.04156 0.2126 0.11051 0.0
H603 H 0.99612 0.10928 0.74439 0.0
H604 H 0.04986 0.13923 0.01616 0.0
H605 H 0.9964 0.18477 0.80767 0.0
C606 C 1.00401 0.21486 0.90586 0.0
C607 C 1.01645 0.22322 0.99232 0.0
C608 C 0.03821 0.13275 0.95579 0.0
C609 C 1.02174 0.175 0.92764 0.0
C610 C 0.03834 0.10809 0.9319 0.0
C611 C 0.0235 0.09904 0.85383 0.0
C612 C 0.02304 0.14865 0.90174 0.0
C613 C 1.00843 0.11549 0.80263 0.0
C614 C 1.00672 0.19092 0.87287 0.0
C615 C 0.03212 0.20709 0.04193 0.0
N616 N 1.00858 0.13935 0.82728 0.0
N617 N 0.03419 0.18382 0.00947 0.0
H618 H 0.31709 1.01311 0.8519 0.0
H619 H 0.45458 0.04274 0.98576 0.0
H620 H 0.34061 0.0424 0.13998 0.0
H621 H 0.43177 1.01809 0.68782 0.0
H622 H 0.41257 0.04477 0.0392 0.0
H623 H 0.35805 1.01796 0.78411 0.0
C624 C 0.33068 1.02143 0.89946 0.0
C625 C 0.32535 0.02788 1.00089 0.0
C626 C 0.41668 0.03901 0.96192 0.0
C627 C 0.37251 0.0325 0.92582 0.0
C628 C 0.44078 0.03775 0.93135 0.0
C629 C 0.44691 0.03017 0.832 0.0
C630 C 0.39834 0.03254 0.89313 0.0
C631 C 0.42802 0.02404 0.76516 0.0
C632 C 0.35415 0.02387 0.8614 0.0
C633 C 0.34386 0.0377 0.06067 0.0
N634 N 0.40468 0.02526 0.79701 0.0
N635 N 0.36656 0.0395 0.02272 0.0
H636 H 0.53536 0.31901 0.85249 0.0
H637 H 0.53658 0.43722 0.66022 0.0
H638 H 0.51089 0.35154 0.13331 0.0
H639 H 0.50572 0.4577 0.95057 0.0
H640 H 0.53581 0.39525 0.71341 0.0
H641 H 0.53178 0.35809 0.76756 0.0
C642 C 0.52868 0.3343 0.89556 0.0
C643 C 0.5234 0.33194 1.00012 0.0
C644 C 0.52896 0.40869 0.7657 0.0
C645 C 0.52004 0.37737 0.90469 0.0
C646 C 0.5295 0.43289 0.73512 0.0
C647 C 0.52124 0.45123 0.80086 0.0
C648 C 0.52005 0.40258 0.86323 0.0
C649 C 0.51234 0.44434 0.89705 0.0
C650 C 0.52699 0.35689 0.84748 0.0
C651 C 0.51518 0.3525 0.05258 0.0
N652 N 0.51208 0.42074 0.92508 0.0
N653 N 0.51395 0.3742 0.00478 0.0
H654 H 0.20783 0.46953 0.02817 0.0
H655 H 0.10632 0.54523 0.73525 0.0
H656 H 0.22041 0.54277 0.93618 0.0
H657 H 0.09052 0.48988 0.95541 0.0
H658 H 0.14925 0.54129 0.77718 0.0
H659 H 0.1666 0.47277 0.96496 0.0
C660 C 0.2021 0.4862 0.99268 0.0
C661 C 0.21774 0.50601 0.98895 0.0
C662 C 0.1364 0.52994 0.81578 0.0
C663 C 0.17007 0.50979 0.91576 0.0
C664 C 0.11184 0.53215 0.79208 0.0
C665 C 0.09461 0.51791 0.84219 0.0
C666 C 0.14403 0.51287 0.88804 0.0
C667 C 0.103 0.50136 0.91527 0.0
C668 C 0.17842 0.48806 0.95733 0.0
C669 C 0.20916 0.527 0.94066 0.0
N670 N 0.12702 0.49916 0.9352 0.0
N671 N 0.18588 0.5284 0.90667 0.0
H672 H 0.99585 0.83511 0.41726 0.0
H673 H 0.04994 0.94113 0.76658 0.0
H674 H 0.05589 0.82625 0.62193 0.0
H675 H 0.99321 0.95281 0.54742 0.0
H676 H 0.04951 0.89822 0.72622 0.0
H677 H 0.99114 0.87689 0.47727 0.0
C678 C 1.00747 0.84171 0.47756 0.0
C679 C 0.02594 0.82702 0.51642 0.0
C680 C 0.03701 0.91006 0.6871 0.0
C681 C 1.0213 0.8751 0.58284 0.0
C682 C 0.03712 0.93461 0.71093 0.0
C683 C 1.02131 0.95065 0.66193 0.0
C684 C 1.02103 0.9012 0.61273 0.0
C685 C 1.00572 0.94117 0.58737 0.0
C686 C 1.00503 0.86568 0.51069 0.0
C687 C 0.0411 0.83679 0.59159 0.0
N688 N 1.00595 0.91713 0.56519 0.0
N689 N 0.03853 0.86014 0.62181 0.0
H690 H 0.70172 1.00323 0.33447 0.0
H691 H 0.60681 0.04075 0.76867 0.0
H692 H 0.72131 0.04106 0.60955 0.0
H693 H 0.58766 1.00174 0.49521 0.0
H694 H 0.64908 0.03826 0.7191 0.0
H695 H 0.66075 0.99879 0.40052 0.0
C696 C 0.69755 1.00984 0.41053 0.0
C697 C 0.71507 1.02202 0.4677 0.0
C698 C 0.63568 0.0301 0.67011 0.0
C699 C 0.66781 1.018 0.54236 0.0
C700 C 0.61143 0.0315 0.69853 0.0
C701 C 0.59342 1.02144 0.6364 0.0
C702 C 0.64222 1.01858 0.57831 0.0
C703 C 0.60075 1.00986 0.54572 0.0
C704 C 0.67406 1.00761 0.44772 0.0
C705 C 0.7085 0.03103 0.56421 0.0
N706 N 0.62447 1.00882 0.51942 0.0
N707 N 0.68539 0.02904 0.59807 0.0
H708 H 0.54879 0.72464 0.46833 0.0
H709 H 0.51906 0.59175 0.44564 0.0
H710 H 0.4733 0.70792 0.44827 0.0
H711 H 0.53268 0.61267 0.75839 0.0
H712 H 0.51574 0.63451 0.3993 0.0
H713 H 0.55619 0.68383 0.5375 0.0
C714 C 0.53375 0.7127 0.48032 0.0
C715 C 0.51042 0.71973 0.45081 0.0
C716 C 0.51977 0.62961 0.47772 0.0
C717 C 0.5189 0.67311 0.52682 0.0
C718 C 0.52169 0.60528 0.50429 0.0
C719 C 0.52605 0.59855 0.60623 0.0
C720 C 0.52279 0.6474 0.55288 0.0
C721 C 0.52908 0.61701 0.67912 0.0
C722 C 0.53803 0.68942 0.51892 0.0
C723 C 0.49166 0.70324 0.46762 0.0
N724 N 0.52742 0.64062 0.65114 0.0
N725 N 0.49636 0.68065 0.50229 0.0
H726 H 0.83958 0.54594 0.34799 0.0
H727 H 0.93359 0.5151 0.79682 0.0
H728 H 0.81975 0.51001 0.62657 0.0
H729 H 0.95374 0.54604 0.50675 0.0
H730 H 0.89139 0.51699 0.74449 0.0
H731 H 0.8804 0.55115 0.41515 0.0
C732 C 0.84361 0.54 0.42511 0.0
C733 C 0.82607 0.5281 0.48288 0.0
C734 C 0.90501 0.52348 0.69242 0.0
C735 C 0.8732 0.53295 0.55892 0.0
C736 C 0.92922 0.52239 0.72222 0.0
C737 C 0.94749 0.53036 0.65614 0.0
C738 C 0.89877 0.53269 0.59572 0.0
C739 C 0.94045 0.53958 0.56038 0.0
C740 C 0.86704 0.54261 0.46288 0.0
C741 C 0.83255 0.51986 0.58071 0.0
N742 N 0.91677 0.54045 0.5332 0.0
N743 N 0.85559 0.52225 0.61527 0.0
loop_
_geom_bond_atom_site_label_1
_geom_bond_atom_site_label_2
_geom_bond_distance
_geom_bond_site_symmetry_2
_ccdc_geom_bond_type
H0 C1 0.949 . S
C1 H0 0.949 . S
C1 C2 1.395 . S
C1 C3 1.391 . S
C2 C1 1.395 . S
C2 C5 1.390 . S
C3 C1 1.391 . S
C3 C7 1.387 . S
C3 C8 1.491 . S
H4 C5 0.950 . S
C5 C2 1.390 . S
C5 H4 0.950 . S
C5 C6 1.378 . S
C6 C5 1.378 . S
C6 C7 1.409 . S
C7 C3 1.387 . S
C7 C6 1.409 . S
C7 H9 0.951 . S
C8 C3 1.491 . S
C8 C10 1.382 . S
C8 C12 1.404 . S
H9 C7 0.951 . S
C10 C8 1.382 . S
C10 C11 1.390 . S
C10 H15 0.949 . S
C11 C10 1.390 . S
C11 C16 1.399 . S
C12 C8 1.404 . S
C12 H13 0.950 . S
C12 C14 1.375 . S
H13 C12 0.950 . S
C14 C12 1.375 . S
C14 C16 1.382 . S
C14 H18 0.950 . S
H15 C10 0.949 . S
C16 C11 1.399 . S
C16 C14 1.382 . S
C16 H17 0.952 . S
H17 C16 0.952 . S
H18 C14 0.950 . S
H19 C20 0.949 . S
C20 H19 0.949 . S
C20 C21 1.395 . S
C20 C22 1.391 . S
C21 C20 1.395 . S
C21 C24 1.390 1_655 S
C22 C20 1.391 . S
C22 C26 1.387 . S
C22 C27 1.491 . S
H23 C24 0.950 . S
C24 C21 1.390 1_455 S
C24 H23 0.950 . S
C24 C25 1.377 1_455 S
C25 C24 1.377 1_655 S
C25 C26 1.413 . S
C26 C22 1.387 . S
C26 C25 1.413 . S
C26 H28 0.951 . S
C27 C22 1.491 . S
C27 C29 1.382 . S
C27 C31 1.404 . S
H28 C26 0.951 . S
C29 C27 1.382 . S
C29 C30 1.390 . S
C29 H34 0.949 1_655 S
C30 C29 1.390 . S
C30 C35 1.399 . S
C31 C27 1.404 . S
C31 H32 0.950 . S
C31 C33 1.375 . S
H32 C31 0.950 . S
C33 C31 1.375 . S
C33 C35 1.382 . S
C33 H37 0.950 . S
H34 C29 0.949 1_455 S
C35 C30 1.399 . S
C35 C33 1.382 . S
C35 H36 0.952 . S
H36 C35 0.952 . S
H37 C33 0.950 . S
H38 C39 0.949 . S
C39 H38 0.949 . S
C39 C40 1.395 . S
C39 C41 1.391 . S
C40 C39 1.395 . S
C40 C43 1.390 1_565 S
C41 C39 1.391 . S
C41 C45 1.387 . S
C41 C46 1.491 . S
H42 C43 0.950 . S
C43 C40 1.390 1_545 S
C43 H42 0.950 . S
C43 C44 1.377 1_545 S
C44 C43 1.377 1_565 S
C44 C45 1.413 . S
C45 C41 1.387 . S
C45 C44 1.413 . S
C45 H47 0.951 . S
C46 C41 1.491 . S
C46 C48 1.382 . S
C46 C50 1.404 . S
H47 C45 0.951 . S
C48 C46 1.382 . S
C48 C49 1.390 . S
C48 H53 0.949 1_565 S
C49 C48 1.390 . S
C49 C54 1.399 . S
C50 C46 1.404 . S
C50 H51 0.950 . S
C50 C52 1.375 . S
H51 C50 0.950 . S
C52 C50 1.375 . S
C52 C54 1.382 . S
C52 H56 0.950 . S
H53 C48 0.949 1_545 S
C54 C49 1.399 . S
C54 C52 1.382 . S
C54 H55 0.952 . S
H55 C54 0.952 . S
H56 C52 0.950 . S
H57 C58 0.949 . S
C58 H57 0.949 . S
C58 C59 1.395 . S
C58 C60 1.391 . S
C59 C58 1.395 . S
C59 C62 1.390 . S
C60 C58 1.391 . S
C60 C64 1.387 . S
C60 C65 1.491 . S
H61 C62 0.950 . S
C62 C59 1.390 . S
C62 H61 0.950 . S
C62 C63 1.378 . S
C63 C62 1.378 . S
C63 C64 1.409 . S
C64 C60 1.387 . S
C64 C63 1.409 . S
C64 H66 0.951 . S
C65 C60 1.491 . S
C65 C67 1.382 . S
C65 C69 1.404 . S
H66 C64 0.951 . S
C67 C65 1.382 . S
C67 C68 1.390 . S
C67 H72 0.949 . S
C68 C67 1.390 . S
C68 C73 1.399 . S
C69 C65 1.404 . S
C69 H70 0.950 . S
C69 C71 1.375 . S
H70 C69 0.950 . S
C71 C69 1.375 . S
C71 C73 1.382 . S
C71 H75 0.950 . S
H72 C67 0.949 . S
C73 C68 1.399 . S
C73 C71 1.382 . S
C73 H74 0.952 . S
H74 C73 0.952 . S
H75 C71 0.950 . S
H76 C77 0.949 . S
C77 H76 0.949 . S
C77 C78 1.395 . S
C77 C79 1.391 1_554 S
C78 C77 1.395 . S
C78 C81 1.390 1_554 S
C79 C77 1.391 1_556 S
C79 C83 1.387 . S
C79 C84 1.491 . S
H80 C81 0.950 . S
C81 C78 1.390 1_556 S
C81 H80 0.950 . S
C81 C82 1.378 . S
C82 C81 1.378 . S
C82 C83 1.409 . S
C83 C79 1.387 . S
C83 C82 1.409 . S
C83 H85 0.951 . S
C84 C79 1.491 . S
C84 C86 1.382 1_556 S
C84 C88 1.404 . S
H85 C83 0.951 . S
C86 C84 1.382 1_554 S
C86 C87 1.390 . S
C86 H91 0.949 . S
C87 C86 1.390 . S
C87 C92 1.399 . S
C88 C84 1.404 . S
C88 H89 0.950 . S
C88 C90 1.375 . S
H89 C88 0.950 . S
C90 C88 1.375 . S
C90 C92 1.382 1_556 S
C90 H94 0.950 . S
H91 C86 0.949 . S
C92 C87 1.399 . S
C92 C90 1.382 1_554 S
C92 H93 0.952 . S
H93 C92 0.952 . S
H94 C90 0.950 . S
H95 C96 0.949 . S
C96 H95 0.949 . S
C96 C97 1.395 1_655 S
C96 C98 1.391 1_554 S
C97 C96 1.395 1_455 S
C97 C100 1.390 1_554 S
C98 C96 1.391 1_556 S
C98 C102 1.387 . S
C98 C103 1.491 1_556 S
H99 C100 0.950 . S
C100 C97 1.390 1_556 S
C100 H99 0.950 . S
C100 C101 1.377 1_455 S
C101 C100 1.377 1_655 S
C101 C102 1.411 . S
C102 C98 1.387 . S
C102 C101 1.411 . S
C102 H104 0.951 . S
C103 C98 1.491 1_554 S
C103 C105 1.402 . S
C103 C107 1.404 1_554 S
H104 C102 0.951 . S
C105 C103 1.402 . S
C105 C106 1.400 . S
C105 H110 0.920 1_655 S
C106 C105 1.400 . S
C106 C111 1.399 . S
C107 C103 1.404 1_556 S
C107 H108 0.950 . S
C107 C109 1.375 . S
H108 C107 0.950 . S
C109 C107 1.375 . S
C109 C111 1.382 1_556 S
C109 H113 0.950 . S
H110 C105 0.920 1_455 S
C111 C106 1.399 . S
C111 C109 1.382 1_554 S
C111 H112 0.952 . S
H112 C111 0.952 . S
H113 C109 0.950 . S
H114 C115 0.949 . S
C115 H114 0.949 . S
C115 C116 1.395 1_565 S
C115 C117 1.391 1_554 S
C116 C115 1.395 1_545 S
C116 C119 1.390 1_554 S
C117 C115 1.391 1_556 S
C117 C121 1.387 . S
C117 C122 1.491 . S
H118 C119 0.950 . S
C119 C116 1.390 1_556 S
C119 H118 0.950 . S
C119 C120 1.377 1_545 S
C120 C119 1.377 1_565 S
C120 C121 1.411 . S
C121 C117 1.387 . S
C121 C120 1.411 . S
C121 H123 0.951 . S
C122 C117 1.491 . S
C122 C124 1.397 1_556 S
C122 C126 1.409 . S
H123 C121 0.951 . S
C124 C122 1.397 1_554 S
C124 C125 1.400 . S
C124 H129 0.920 1_565 S
C125 C124 1.400 . S
C125 C130 1.399 . S
C126 C122 1.409 . S
C126 H127 0.950 . S
C126 C128 1.375 . S
H127 C126 0.950 . S
C128 C126 1.375 . S
C128 C130 1.382 1_556 S
C128 H132 0.950 . S
H129 C124 0.920 1_545 S
C130 C125 1.399 . S
C130 C128 1.382 1_554 S
C130 H131 0.952 . S
H131 C130 0.952 . S
H132 C128 0.950 . S
H133 C134 0.949 . S
C134 H133 0.949 . S
C134 C135 1.395 . S
C134 C136 1.391 1_554 S
C135 C134 1.395 . S
C135 C138 1.390 1_554 S
C136 C134 1.391 1_556 S
C136 C140 1.387 . S
C136 C141 1.491 . S
H137 C138 0.950 . S
C138 C135 1.390 1_556 S
C138 H137 0.950 . S
C138 C139 1.378 . S
C139 C138 1.378 . S
C139 C140 1.409 . S
C140 C136 1.387 . S
C140 C139 1.409 . S
C140 H142 0.951 . S
C141 C136 1.491 . S
C141 C143 1.382 1_556 S
C141 C145 1.404 . S
H142 C140 0.951 . S
C143 C141 1.382 1_554 S
C143 C144 1.390 . S
C143 H148 0.949 . S
C144 C143 1.390 . S
C144 C149 1.399 . S
C145 C141 1.404 . S
C145 H146 0.950 . S
C145 C147 1.375 . S
H146 C145 0.950 . S
C147 C145 1.375 . S
C147 C149 1.382 1_556 S
C147 H151 0.950 . S
H148 C143 0.949 . S
C149 C144 1.399 . S
C149 C147 1.382 1_554 S
C149 H150 0.952 . S
H150 C149 0.952 . S
H151 C147 0.950 . S
Tb152 C154 2.809 . S
Tb152 O172 2.472 1_455 S
Tb152 O173 2.440 . S
Tb152 O174 2.658 1_565 S
Tb152 O175 2.409 . S
Tb152 O176 2.378 . S
Tb152 O180 2.325 1_455 S
Tb152 O183 2.341 1_565 S
Tb153 C163 2.809 . S
Tb153 O174 2.325 1_655 S
Tb153 O177 2.341 1_545 S
Tb153 O178 2.467 1_655 S
Tb153 O179 2.440 . S
Tb153 O180 2.658 1_545 S
Tb153 O181 2.409 . S
Tb153 O182 2.378 . S
C154 Tb152 2.809 . S
C154 C155 1.511 1_556 S
C154 O172 1.219 1_455 S
C154 O173 1.266 . S
C155 C154 1.511 1_554 S
C155 C156 1.361 . S
C155 C160 1.349 . S
C156 C155 1.361 . S
C156 C157 1.380 . S
C156 H184 0.929 1_455 S
C157 C156 1.380 . S
C157 C158 1.347 . S
C157 H185 0.931 1_455 S
C158 C157 1.347 . S
C158 C159 1.369 . S
C159 C158 1.369 . S
C159 C160 1.408 . S
C159 H186 0.930 . S
C160 C155 1.349 . S
C160 C159 1.408 . S
C160 H187 0.930 1_554 S
C161 O174 1.281 1_565 S
C161 O175 1.254 . S
C162 O176 1.236 1_655 S
C162 O177 1.266 . S
C163 Tb153 2.809 . S
C163 C164 1.514 . S
C163 O178 1.209 1_655 S
C163 O179 1.266 . S
C164 C163 1.514 . S
C164 C165 1.359 . S
C164 C169 1.348 . S
C165 C164 1.359 . S
C165 C166 1.380 . S
C165 H188 0.929 1_655 S
C166 C165 1.380 . S
C166 C167 1.347 . S
C166 H189 0.931 1_655 S
C167 C166 1.347 . S
C167 C168 1.369 . S
C168 C167 1.369 . S
C168 C169 1.408 . S
C168 H190 0.930 . S
C169 C164 1.348 . S
C169 C168 1.408 . S
C169 H191 0.930 . S
C170 O180 1.281 1_545 S
C170 O181 1.254 . S
C171 O182 1.236 1_455 S
C171 O183 1.266 . S
O172 Tb152 2.472 1_655 S
O172 C154 1.219 1_655 S
O173 Tb152 2.440 . S
O173 C154 1.266 . S
O174 Tb152 2.658 1_545 S
O174 Tb153 2.325 1_455 S
O174 C161 1.281 1_545 S
O175 Tb152 2.409 . S
O175 C161 1.254 . S
O176 Tb152 2.378 . S
O176 C162 1.236 1_455 S
O177 Tb153 2.341 1_565 S
O177 C162 1.266 . S
O178 Tb153 2.467 1_455 S
O178 C163 1.209 1_455 S
O179 Tb153 2.440 . S
O179 C163 1.266 . S
O180 Tb152 2.325 1_655 S
O180 Tb153 2.658 1_565 S
O180 C170 1.281 1_565 S
O181 Tb153 2.409 . S
O181 C170 1.254 . S
O182 Tb153 2.378 . S
O182 C171 1.236 1_655 S
O183 Tb152 2.341 1_545 S
O183 C171 1.266 . S
H184 C156 0.929 1_655 S
H185 C157 0.931 1_655 S
H186 C159 0.930 . S
H187 C160 0.930 1_556 S
H188 C165 0.929 1_455 S
H189 C166 0.931 1_455 S
H190 C168 0.930 . S
H191 C169 0.930 . S
Tb192 C194 2.809 . S
Tb192 O212 2.466 1_545 S
Tb192 O213 2.440 . S
Tb192 O214 2.658 . S
Tb192 O215 2.409 . S
Tb192 O216 2.378 . S
Tb192 O220 2.325 1_545 S
Tb192 O223 2.341 . S
Tb193 C203 2.809 . S
Tb193 O214 2.325 1_565 S
Tb193 O217 2.341 . S
Tb193 O218 2.484 1_565 S
Tb193 O219 2.440 . S
Tb193 O220 2.658 . S
Tb193 O221 2.409 . S
Tb193 O222 2.378 . S
C194 Tb192 2.809 . S
C194 C195 1.514 1_556 S
C194 O212 1.207 1_545 S
C194 O213 1.266 . S
C195 C194 1.514 1_554 S
C195 C196 1.359 . S
C195 C200 1.348 . S
C196 C195 1.359 . S
C196 C197 1.380 . S
C196 H224 0.929 1_545 S
C197 C196 1.380 . S
C197 C198 1.347 . S
C197 H225 0.931 1_545 S
C198 C197 1.347 . S
C198 C199 1.369 . S
C199 C198 1.369 . S
C199 C200 1.408 . S
C199 H226 0.930 . S
C200 C195 1.348 . S
C200 C199 1.408 . S
C200 H227 0.930 1_554 S
C201 O214 1.281 . S
C201 O215 1.254 . S
C202 O216 1.236 1_565 S
C202 O217 1.266 . S
C203 Tb193 2.809 . S
C203 C204 1.514 . S
C203 O218 1.248 1_565 S
C203 O219 1.266 . S
C204 C203 1.514 . S
C204 C205 1.359 . S
C204 C209 1.348 . S
C205 C204 1.359 . S
C205 C206 1.380 . S
C205 H228 0.929 1_565 S
C206 C205 1.380 . S
C206 C207 1.347 . S
C206 H229 0.931 1_565 S
C207 C206 1.347 . S
C207 C208 1.369 . S
C208 C207 1.369 . S
C208 C209 1.408 . S
C208 H230 0.930 . S
C209 C204 1.348 . S
C209 C208 1.408 . S
C209 H231 0.930 . S
C210 O220 1.281 . S
C210 O221 1.254 . S
C211 O222 1.236 1_545 S
C211 O223 1.266 . S
O212 Tb192 2.466 1_565 S
O212 C194 1.207 1_565 S
O213 Tb192 2.440 . S
O213 C194 1.266 . S
O214 Tb192 2.658 . S
O214 Tb193 2.325 1_545 S
O214 C201 1.281 . S
O215 Tb192 2.409 . S
O215 C201 1.254 . S
O216 Tb192 2.378 . S
O216 C202 1.236 1_545 S
O217 Tb193 2.341 . S
O217 C202 1.266 . S
O218 Tb193 2.484 1_545 S
O218 C203 1.248 1_545 S
O219 Tb193 2.440 . S
O219 C203 1.266 . S
O220 Tb192 2.325 1_565 S
O220 Tb193 2.658 . S
O220 C210 1.281 . S
O221 Tb193 2.409 . S
O221 C210 1.254 . S
O222 Tb193 2.378 . S
O222 C211 1.236 1_565 S
O223 Tb192 2.341 . S
O223 C211 1.266 . S
H224 C196 0.929 1_565 S
H225 C197 0.931 1_565 S
H226 C199 0.930 . S
H227 C200 0.930 1_556 S
H228 C205 0.929 1_545 S
H229 C206 0.931 1_545 S
H230 C208 0.930 . S
H231 C209 0.930 . S
Tb232 C234 2.809 . S
Tb232 O252 2.484 . S
Tb232 O253 2.440 . S
Tb232 O254 2.658 . S
Tb232 O255 2.409 . S
Tb232 O256 2.378 . S
Tb232 O260 2.325 . S
Tb232 O263 2.341 . S
Tb233 C243 2.809 . S
Tb233 O254 2.325 . S
Tb233 O257 2.341 . S
Tb233 O258 2.484 . S
Tb233 O259 2.440 . S
Tb233 O260 2.658 . S
Tb233 O261 2.409 . S
Tb233 O262 2.378 . S
C234 Tb232 2.809 . S
C234 C235 1.514 1_556 S
C234 O252 1.248 . S
C234 O253 1.266 . S
C235 C234 1.514 1_554 S
C235 C236 1.359 . S
C235 C240 1.348 . S
C236 C235 1.359 . S
C236 C237 1.380 . S
C236 H264 0.929 . S
C237 C236 1.380 . S
C237 C238 1.347 . S
C237 H265 0.931 . S
C238 C237 1.347 . S
C238 C239 1.369 . S
C239 C238 1.369 . S
C239 C240 1.408 . S
C239 H266 0.930 . S
C240 C235 1.348 . S
C240 C239 1.408 . S
C240 H267 0.930 1_554 S
C241 O254 1.281 . S
C241 O255 1.254 . S
C242 O256 1.236 . S
C242 O257 1.266 . S
C243 Tb233 2.809 . S
C243 C244 1.514 . S
C243 O258 1.248 . S
C243 O259 1.266 . S
C244 C243 1.514 . S
C244 C245 1.359 . S
C244 C249 1.348 . S
C245 C244 1.359 . S
C245 C246 1.380 . S
C245 H268 0.929 . S
C246 C245 1.380 . S
C246 C247 1.347 . S
C246 H269 0.931 . S
C247 C246 1.347 . S
C247 C248 1.369 . S
C248 C247 1.369 . S
C248 C249 1.408 . S
C248 H270 0.930 . S
C249 C244 1.348 . S
C249 C248 1.408 . S
C249 H271 0.930 . S
C250 O260 1.281 . S
C250 O261 1.254 . S
C251 O262 1.236 . S
C251 O263 1.266 . S
O252 Tb232 2.484 . S
O252 C234 1.248 . S
O253 Tb232 2.440 . S
O253 C234 1.266 . S
O254 Tb232 2.658 . S
O254 Tb233 2.325 . S
O254 C241 1.281 . S
O255 Tb232 2.409 . S
O255 C241 1.254 . S
O256 Tb232 2.378 . S
O256 C242 1.236 . S
O257 Tb233 2.341 . S
O257 C242 1.266 . S
O258 Tb233 2.484 . S
O258 C243 1.248 . S
O259 Tb233 2.440 . S
O259 C243 1.266 . S
O260 Tb232 2.325 . S
O260 Tb233 2.658 . S
O260 C250 1.281 . S
O261 Tb233 2.409 . S
O261 C250 1.254 . S
O262 Tb233 2.378 . S
O262 C251 1.236 . S
O263 Tb232 2.341 . S
O263 C251 1.266 . S
H264 C236 0.929 . S
H265 C237 0.931 . S
H266 C239 0.930 . S
H267 C240 0.930 1_556 S
H268 C245 0.929 . S
H269 C246 0.931 . S
H270 C248 0.930 . S
H271 C249 0.930 . S
Tb272 C274 2.809 . S
Tb272 O292 2.484 . S
Tb272 O293 2.440 . S
Tb272 O294 2.658 1_655 S
Tb272 O295 2.409 . S
Tb272 O296 2.378 . S
Tb272 O300 2.325 . S
Tb272 O303 2.341 1_655 S
Tb273 C283 2.809 . S
Tb273 O294 2.325 . S
Tb273 O297 2.341 1_455 S
Tb273 O298 2.484 . S
Tb273 O299 2.440 . S
Tb273 O300 2.658 1_455 S
Tb273 O301 2.409 . S
Tb273 O302 2.378 . S
C274 Tb272 2.809 . S
C274 C275 1.514 1_556 S
C274 O292 1.248 . S
C274 O293 1.266 . S
C275 C274 1.514 1_554 S
C275 C276 1.359 . S
C275 C280 1.348 . S
C276 C275 1.359 . S
C276 C277 1.380 . S
C276 H304 0.929 . S
C277 C276 1.380 . S
C277 C278 1.347 . S
C277 H305 0.931 . S
C278 C277 1.347 . S
C278 C279 1.369 . S
C279 C278 1.369 . S
C279 C280 1.408 . S
C279 H306 0.930 . S
C280 C275 1.348 . S
C280 C279 1.408 . S
C280 H307 0.930 1_554 S
C281 O294 1.271 1_655 S
C281 O295 1.268 . S
C282 O296 1.236 . S
C282 O297 1.266 . S
C283 Tb273 2.809 . S
C283 C284 1.514 . S
C283 O298 1.248 . S
C283 O299 1.266 . S
C284 C283 1.514 . S
C284 C285 1.359 . S
C284 C289 1.348 . S
C285 C284 1.359 . S
C285 C286 1.380 . S
C285 H308 0.929 . S
C286 C285 1.380 . S
C286 C287 1.347 . S
C286 H309 0.931 . S
C287 C286 1.347 . S
C287 C288 1.369 . S
C288 C287 1.369 . S
C288 C289 1.408 . S
C288 H310 0.930 . S
C289 C284 1.348 . S
C289 C288 1.408 . S
C289 H311 0.930 . S
C290 O300 1.267 1_455 S
C290 O301 1.273 . S
C291 O302 1.236 . S
C291 O303 1.266 . S
O292 Tb272 2.484 . S
O292 C274 1.248 . S
O293 Tb272 2.440 . S
O293 C274 1.266 . S
O294 Tb272 2.658 1_455 S
O294 Tb273 2.325 . S
O294 C281 1.271 1_455 S
O295 Tb272 2.409 . S
O295 C281 1.268 . S
O296 Tb272 2.378 . S
O296 C282 1.236 . S
O297 Tb273 2.341 1_655 S
O297 C282 1.266 . S
O298 Tb273 2.484 . S
O298 C283 1.248 . S
O299 Tb273 2.440 . S
O299 C283 1.266 . S
O300 Tb272 2.325 . S
O300 Tb273 2.658 1_655 S
O300 C290 1.267 1_655 S
O301 Tb273 2.409 . S
O301 C290 1.273 . S
O302 Tb273 2.378 . S
O302 C291 1.236 . S
O303 Tb272 2.341 1_455 S
O303 C291 1.266 . S
H304 C276 0.929 . S
H305 C277 0.931 . S
H306 C279 0.930 . S
H307 C280 0.930 1_556 S
H308 C285 0.929 . S
H309 C286 0.931 . S
H310 C288 0.930 . S
H311 C289 0.930 . S
H312 C318 0.930 . S
H313 C322 0.930 . S
H314 C327 0.929 . S
H315 C325 0.929 . S
H316 C320 0.929 . S
H317 C326 0.929 . S
C318 H312 0.930 . S
C318 C319 1.391 . S
C318 C326 1.378 . S
C319 C318 1.391 . S
C319 C327 1.409 1_545 S
C320 H316 0.929 . S
C320 C322 1.378 . S
C320 C324 1.368 . S
C321 C324 1.461 1_545 S
C321 C326 1.387 . S
C321 N329 1.390 1_545 S
C322 H313 0.930 . S
C322 C320 1.378 . S
C322 C323 1.371 . S
C323 C322 1.371 . S
C323 C325 1.429 1_565 S
C324 C320 1.368 . S
C324 C321 1.461 1_565 S
C324 N328 1.409 1_565 S
C325 H315 0.929 . S
C325 C323 1.429 1_545 S
C325 N328 1.384 . S
C326 H317 0.929 . S
C326 C318 1.378 . S
C326 C321 1.387 . S
C327 H314 0.929 . S
C327 C319 1.409 1_565 S
C327 N329 1.384 . S
N328 C324 1.409 1_545 S
N328 C325 1.384 . S
N329 C321 1.390 1_565 S
N329 C327 1.384 . S
H330 C336 0.930 . S
H331 C340 0.930 . S
H332 C345 0.929 . S
H333 C343 0.929 . S
H334 C338 0.929 . S
H335 C344 0.929 . S
C336 H330 0.930 . S
C336 C337 1.367 . S
C336 C344 1.378 . S
C337 C336 1.367 . S
C337 C345 1.433 . S
C338 H334 0.929 . S
C338 C340 1.378 . S
C338 C342 1.350 . S
C339 C342 1.463 . S
C339 C344 1.350 . S
C339 N347 1.427 . S
C340 H331 0.930 . S
C340 C338 1.378 . S
C340 C341 1.367 . S
C341 C340 1.367 . S
C341 C343 1.433 . S
C342 C338 1.350 . S
C342 C339 1.463 . S
C342 N346 1.427 . S
C343 H333 0.929 . S
C343 C341 1.433 . S
C343 N346 1.384 . S
C344 H335 0.929 . S
C344 C336 1.378 . S
C344 C339 1.350 . S
C345 H332 0.929 . S
C345 C337 1.433 . S
C345 N347 1.384 . S
N346 C342 1.427 . S
N346 C343 1.384 . S
N347 C339 1.427 . S
N347 C345 1.384 . S
H348 C354 0.930 . S
H349 C358 0.930 . S
H350 C363 0.929 . S
H351 C361 0.929 . S
H352 C356 0.929 . S
H353 C362 0.929 . S
C354 H348 0.930 . S
C354 C355 1.367 . S
C354 C362 1.378 . S
C355 C354 1.367 . S
C355 C363 1.433 . S
C356 H352 0.929 . S
C356 C358 1.378 . S
C356 C360 1.350 . S
C357 C360 1.463 . S
C357 C362 1.350 . S
C357 N365 1.427 . S
C358 H349 0.930 . S
C358 C356 1.378 . S
C358 C359 1.367 . S
C359 C358 1.367 . S
C359 C361 1.433 . S
C360 C356 1.350 . S
C360 C357 1.463 . S
C360 N364 1.427 . S
C361 H351 0.929 . S
C361 C359 1.433 . S
C361 N364 1.384 . S
C362 H353 0.929 . S
C362 C354 1.378 . S
C362 C357 1.350 . S
C363 H350 0.929 . S
C363 C355 1.433 . S
C363 N365 1.384 . S
N364 C360 1.427 . S
N364 C361 1.384 . S
N365 C357 1.427 . S
N365 C363 1.384 . S
H366 C372 0.930 . S
H367 C376 0.930 . S
H368 C381 0.929 . S
H369 C379 0.929 . S
H370 C374 0.929 . S
H371 C380 0.929 . S
C372 H366 0.930 . S
C372 C373 1.367 1_655 S
C372 C380 1.378 . S
C373 C372 1.367 1_455 S
C373 C381 1.433 . S
C374 H370 0.929 . S
C374 C376 1.378 . S
C374 C378 1.360 . S
C375 C378 1.462 . S
C375 C380 1.348 1_455 S
C375 N383 1.429 . S
C376 H367 0.930 . S
C376 C374 1.378 . S
C376 C377 1.379 . S
C377 C376 1.379 . S
C377 C379 1.422 1_455 S
C378 C374 1.360 . S
C378 C375 1.462 . S
C378 N382 1.419 1_455 S
C379 H369 0.929 . S
C379 C377 1.422 1_655 S
C379 N382 1.384 . S
C380 H371 0.929 . S
C380 C372 1.378 . S
C380 C375 1.348 1_655 S
C381 H368 0.929 . S
C381 C373 1.433 . S
C381 N383 1.384 . S
N382 C378 1.419 1_655 S
N382 C379 1.384 . S
N383 C375 1.429 . S
N383 C381 1.384 . S
H384 C390 0.930 . S
H385 C394 0.930 . S
H386 C399 0.929 . S
H387 C397 0.929 . S
H388 C392 0.929 . S
H389 C398 0.929 . S
C390 H384 0.930 . S
C390 C391 1.382 . S
C390 C398 1.378 . S
C391 C390 1.382 . S
C391 C399 1.418 1_545 S
C392 H388 0.929 . S
C392 C394 1.378 . S
C392 C396 1.371 1_556 S
C393 C396 1.461 1_545 S
C393 C398 1.371 . S
C393 N401 1.406 1_545 S
C394 H385 0.930 . S
C394 C392 1.378 . S
C394 C395 1.382 . S
C395 C394 1.382 . S
C395 C397 1.418 1_565 S
C396 C392 1.371 1_554 S
C396 C393 1.461 1_565 S
C396 N400 1.407 1_565 S
C397 H387 0.929 . S
C397 C395 1.418 1_545 S
C397 N400 1.384 1_556 S
C398 H389 0.929 . S
C398 C390 1.378 . S
C398 C393 1.371 . S
C399 H386 0.929 . S
C399 C391 1.418 1_565 S
C399 N401 1.384 . S
N400 C396 1.407 1_545 S
N400 C397 1.384 1_554 S
N401 C393 1.406 1_565 S
N401 C399 1.384 . S
H402 C408 0.930 . S
H403 C412 0.930 . S
H404 C417 0.929 . S
H405 C415 0.929 . S
H406 C410 0.929 . S
H407 C416 0.929 . S
C408 H402 0.930 . S
C408 C409 1.367 . S
C408 C416 1.378 . S
C409 C408 1.367 . S
C409 C417 1.433 . S
C410 H406 0.929 . S
C410 C412 1.378 . S
C410 C414 1.350 1_556 S
C411 C414 1.463 . S
C411 C416 1.350 . S
C411 N419 1.427 . S
C412 H403 0.930 . S
C412 C410 1.378 . S
C412 C413 1.367 . S
C413 C412 1.367 . S
C413 C415 1.433 . S
C414 C410 1.350 1_554 S
C414 C411 1.463 . S
C414 N418 1.427 . S
C415 H405 0.929 . S
C415 C413 1.433 . S
C415 N418 1.384 1_556 S
C416 H407 0.929 . S
C416 C408 1.378 . S
C416 C411 1.350 . S
C417 H404 0.929 . S
C417 C409 1.433 . S
C417 N419 1.384 . S
N418 C414 1.427 . S
N418 C415 1.384 1_554 S
N419 C411 1.427 . S
N419 C417 1.384 . S
H420 C426 0.930 . S
H421 C430 0.930 . S
H422 C435 0.929 . S
H423 C433 0.929 . S
H424 C428 0.929 . S
H425 C434 0.929 . S
C426 H420 0.930 . S
C426 C427 1.367 . S
C426 C434 1.378 . S
C427 C426 1.367 . S
C427 C435 1.433 . S
C428 H424 0.929 . S
C428 C430 1.378 . S
C428 C432 1.350 . S
C429 C432 1.463 . S
C429 C434 1.350 . S
C429 N437 1.427 . S
C430 H421 0.930 . S
C430 C428 1.378 . S
C430 C431 1.367 1_554 S
C431 C430 1.367 1_556 S
C431 C433 1.433 . S
C432 C428 1.350 . S
C432 C429 1.463 . S
C432 N436 1.427 1_554 S
C433 H423 0.929 . S
C433 C431 1.433 . S
C433 N436 1.384 . S
C434 H425 0.929 . S
C434 C426 1.378 . S
C434 C429 1.350 . S
C435 H422 0.929 . S
C435 C427 1.433 . S
C435 N437 1.384 . S
N436 C432 1.427 1_556 S
N436 C433 1.384 . S
N437 C429 1.427 . S
N437 C435 1.384 . S
H438 C444 0.930 . S
H439 C448 0.930 . S
H440 C453 0.929 . S
H441 C451 0.929 . S
H442 C446 0.929 . S
H443 C452 0.929 . S
C444 H438 0.930 . S
C444 C445 1.367 . S
C444 C452 1.378 . S
C445 C444 1.367 . S
C445 C453 1.433 1_655 S
C446 H442 0.929 . S
C446 C448 1.378 . S
C446 C450 1.348 1_456 S
C447 C450 1.463 . S
C447 C452 1.352 . S
C447 N455 1.426 1_655 S
C448 H439 0.930 . S
C448 C446 1.378 . S
C448 C449 1.364 1_455 S
C449 C448 1.364 1_655 S
C449 C451 1.436 1_556 S
C450 C446 1.348 1_654 S
C450 C447 1.463 . S
C450 N454 1.429 . S
C451 H441 0.929 . S
C451 C449 1.436 1_554 S
C451 N454 1.384 . S
C452 H443 0.929 . S
C452 C444 1.378 . S
C452 C447 1.352 . S
C453 H440 0.929 . S
C453 C445 1.433 1_455 S
C453 N455 1.384 . S
N454 C450 1.429 . S
N454 C451 1.384 . S
N455 C447 1.426 1_455 S
N455 C453 1.384 . S
H456 C462 0.930 . S
H457 C466 0.930 . S
H458 C471 0.929 . S
H459 C469 0.929 . S
H460 C464 0.929 1_455 S
H461 C470 0.929 . S
C462 H456 0.930 . S
C462 C463 1.337 1_655 S
C462 C470 1.378 . S
C463 C462 1.337 1_455 S
C463 C471 1.455 . S
C464 H460 0.929 1_655 S
C464 C466 1.378 . S
C464 C468 1.350 . S
C465 C468 1.463 . S
C465 C470 1.350 . S
C465 N473 1.427 1_655 S
C466 H457 0.930 . S
C466 C464 1.378 . S
C466 C467 1.367 . S
C467 C466 1.367 . S
C467 C469 1.433 . S
C468 C464 1.350 . S
C468 C465 1.463 . S
C468 N472 1.427 . S
C469 H459 0.929 . S
C469 C467 1.433 . S
C469 N472 1.384 . S
C470 H461 0.929 . S
C470 C462 1.378 . S
C470 C465 1.350 . S
C471 H458 0.929 . S
C471 C463 1.455 . S
C471 N473 1.384 . S
N472 C468 1.427 . S
N472 C469 1.384 . S
N473 C465 1.427 1_455 S
N473 C471 1.384 . S
H474 C480 0.930 . S
H475 C484 0.930 1_545 S
H476 C489 0.929 . S
H477 C487 0.929 . S
H478 C482 0.929 . S
H479 C488 0.929 . S
C480 H474 0.930 . S
C480 C481 1.339 1_565 S
C480 C488 1.378 . S
C481 C480 1.339 1_545 S
C481 C489 1.455 . S
C482 H478 0.929 . S
C482 C484 1.378 1_545 S
C482 C486 1.350 1_545 S
C483 C486 1.463 . S
C483 C488 1.350 . S
C483 N491 1.427 1_565 S
C484 H475 0.930 1_565 S
C484 C482 1.378 1_565 S
C484 C485 1.367 . S
C485 C484 1.367 . S
C485 C487 1.433 . S
C486 C482 1.350 1_565 S
C486 C483 1.463 . S
C486 N490 1.427 . S
C487 H477 0.929 . S
C487 C485 1.433 . S
C487 N490 1.384 . S
C488 H479 0.929 . S
C488 C480 1.378 . S
C488 C483 1.350 . S
C489 H476 0.929 . S
C489 C481 1.455 . S
C489 N491 1.384 . S
N490 C486 1.427 . S
N490 C487 1.384 . S
N491 C483 1.427 1_545 S
N491 C489 1.384 . S
H492 C498 0.930 1_556 S
H493 C502 0.930 . S
H494 C507 0.929 . S
H495 C505 0.929 . S
H496 C500 0.929 . S
H497 C506 0.929 . S
C498 H492 0.930 1_554 S
C498 C499 1.367 . S
C498 C506 1.378 . S
C499 C498 1.367 . S
C499 C507 1.433 . S
C500 H496 0.929 . S
C500 C502 1.378 . S
C500 C504 1.350 . S
C501 C504 1.463 . S
C501 C506 1.350 . S
C501 N509 1.427 . S
C502 H493 0.930 . S
C502 C500 1.378 . S
C502 C503 1.367 . S
C503 C502 1.367 . S
C503 C505 1.433 . S
C504 C500 1.350 . S
C504 C501 1.463 . S
C504 N508 1.427 . S
C505 H495 0.929 . S
C505 C503 1.433 . S
C505 N508 1.384 . S
C506 H497 0.929 . S
C506 C498 1.378 . S
C506 C501 1.350 . S
C507 H494 0.929 . S
C507 C499 1.433 . S
C507 N509 1.384 . S
N508 C504 1.427 . S
N508 C505 1.384 . S
N509 C501 1.427 . S
N509 C507 1.384 . S
H510 C516 0.930 . S
H511 C520 0.930 . S
H512 C525 0.929 . S
H513 C523 0.929 . S
H514 C518 0.929 . S
H515 C524 0.929 . S
C516 H510 0.930 . S
C516 C517 1.367 . S
C516 C524 1.378 . S
C517 C516 1.367 . S
C517 C525 1.433 . S
C518 H514 0.929 . S
C518 C520 1.378 . S
C518 C522 1.350 . S
C519 C522 1.463 . S
C519 C524 1.350 . S
C519 N527 1.427 . S
C520 H511 0.930 . S
C520 C518 1.378 . S
C520 C521 1.367 . S
C521 C520 1.367 . S
C521 C523 1.433 . S
C522 C518 1.350 . S
C522 C519 1.463 . S
C522 N526 1.427 . S
C523 H513 0.929 . S
C523 C521 1.433 . S
C523 N526 1.384 . S
C524 H515 0.929 . S
C524 C516 1.378 . S
C524 C519 1.350 . S
C525 H512 0.929 . S
C525 C517 1.433 . S
C525 N527 1.384 . S
N526 C522 1.427 . S
N526 C523 1.384 . S
N527 C519 1.427 . S
N527 C525 1.384 . S
H528 C534 0.931 1_655 S
H529 C538 0.930 1_556 S
H530 C543 0.929 . S
H531 C541 0.929 . S
H532 C536 0.929 . S
H533 C542 0.929 . S
C534 H528 0.931 1_455 S
C534 C535 1.367 1_455 S
C534 C542 1.377 . S
C535 C534 1.367 1_655 S
C535 C543 1.433 1_655 S
C536 H532 0.929 . S
C536 C538 1.378 . S
C536 C540 1.350 . S
C537 C540 1.463 . S
C537 C542 1.350 . S
C537 N545 1.427 . S
C538 H529 0.930 1_554 S
C538 C536 1.378 . S
C538 C539 1.367 . S
C539 C538 1.367 . S
C539 C541 1.433 . S
C540 C536 1.350 . S
C540 C537 1.463 . S
C540 N544 1.427 . S
C541 H531 0.929 . S
C541 C539 1.433 . S
C541 N544 1.384 . S
C542 H533 0.929 . S
C542 C534 1.377 . S
C542 C537 1.350 . S
C543 H530 0.929 . S
C543 C535 1.433 1_455 S
C543 N545 1.384 . S
N544 C540 1.427 . S
N544 C541 1.384 . S
N545 C537 1.427 . S
N545 C543 1.384 . S
H546 C552 0.930 . S
H547 C556 0.930 1_565 S
H548 C561 0.929 . S
H549 C559 0.929 . S
H550 C554 0.929 . S
H551 C560 0.929 . S
C552 H546 0.930 . S
C552 C553 1.350 1_545 S
C552 C560 1.378 . S
C553 C552 1.350 1_565 S
C553 C561 1.447 . S
C554 H550 0.929 . S
C554 C556 1.378 1_565 S
C554 C558 1.350 1_565 S
C555 C558 1.463 . S
C555 C560 1.350 . S
C555 N563 1.427 1_545 S
C556 H547 0.930 1_545 S
C556 C554 1.378 1_545 S
C556 C557 1.367 . S
C557 C556 1.367 . S
C557 C559 1.433 . S
C558 C554 1.350 1_545 S
C558 C555 1.463 . S
C558 N562 1.427 . S
C559 H549 0.929 . S
C559 C557 1.433 . S
C559 N562 1.384 . S
C560 H551 0.929 . S
C560 C552 1.378 . S
C560 C555 1.350 . S
C561 H548 0.929 . S
C561 C553 1.447 . S
C561 N563 1.384 . S
N562 C558 1.427 . S
N562 C559 1.384 . S
N563 C555 1.427 1_565 S
N563 C561 1.384 . S
H564 C570 0.930 . S
H565 C574 0.931 . S
H566 C579 0.929 . S
H567 C577 0.929 . S
H568 C572 0.929 . S
H569 C578 0.929 . S
C570 H564 0.930 . S
C570 C571 1.367 . S
C570 C578 1.378 . S
C571 C570 1.367 . S
C571 C579 1.433 . S
C572 H568 0.929 . S
C572 C574 1.378 . S
C572 C576 1.350 . S
C573 C576 1.463 . S
C573 C578 1.350 . S
C573 N581 1.427 . S
C574 H565 0.931 . S
C574 C572 1.378 . S
C574 C575 1.367 . S
C575 C574 1.367 . S
C575 C577 1.433 . S
C576 C572 1.350 . S
C576 C573 1.463 . S
C576 N580 1.427 . S
C577 H567 0.929 . S
C577 C575 1.433 . S
C577 N580 1.384 . S
C578 H569 0.929 . S
C578 C570 1.378 . S
C578 C573 1.350 . S
C579 H566 0.929 . S
C579 C571 1.433 . S
C579 N581 1.384 . S
N580 C576 1.427 . S
N580 C577 1.384 . S
N581 C573 1.427 . S
N581 C579 1.384 . S
H582 C588 0.930 . S
H583 C592 0.930 . S
H584 C597 0.929 . S
H585 C595 0.929 1_556 S
H586 C590 0.929 . S
H587 C596 0.929 . S
C588 H582 0.930 . S
C588 C589 1.367 . S
C588 C596 1.378 . S
C589 C588 1.367 . S
C589 C597 1.433 . S
C590 H586 0.929 . S
C590 C592 1.378 . S
C590 C594 1.350 . S
C591 C594 1.463 . S
C591 C596 1.350 . S
C591 N599 1.427 . S
C592 H583 0.930 . S
C592 C590 1.378 . S
C592 C593 1.367 . S
C593 C592 1.367 . S
C593 C595 1.433 . S
C594 C590 1.350 . S
C594 C591 1.463 . S
C594 N598 1.427 . S
C595 H585 0.929 1_554 S
C595 C593 1.433 . S
C595 N598 1.384 . S
C596 H587 0.929 . S
C596 C588 1.378 . S
C596 C591 1.350 . S
C597 H584 0.929 . S
C597 C589 1.433 . S
C597 N599 1.384 . S
N598 C594 1.427 . S
N598 C595 1.384 . S
N599 C591 1.427 . S
N599 C597 1.384 . S
H600 C606 0.930 . S
H601 C610 0.930 . S
H602 C615 0.929 . S
H603 C613 0.922 1_655 S
H604 C608 0.929 . S
H605 C614 0.929 . S
C606 H600 0.930 . S
C606 C607 1.367 1_655 S
C606 C614 1.378 . S
C607 C606 1.367 1_455 S
C607 C615 1.433 . S
C608 H604 0.929 . S
C608 C610 1.378 . S
C608 C612 1.350 . S
C609 C612 1.463 . S
C609 C614 1.350 1_455 S
C609 N617 1.427 . S
C610 H601 0.930 . S
C610 C608 1.378 . S
C610 C611 1.367 . S
C611 C610 1.367 . S
C611 C613 1.433 . S
C612 C608 1.350 . S
C612 C609 1.463 . S
C612 N616 1.435 . S
C613 H603 0.922 1_455 S
C613 C611 1.433 . S
C613 N616 1.386 . S
C614 H605 0.929 . S
C614 C606 1.378 . S
C614 C609 1.350 1_655 S
C615 H602 0.929 . S
C615 C607 1.433 . S
C615 N617 1.384 . S
N616 C612 1.435 . S
N616 C613 1.386 . S
N617 C609 1.427 . S
N617 C615 1.384 . S
H618 C624 0.930 . S
H619 C628 0.930 . S
H620 C633 0.929 . S
H621 C631 0.922 1_565 S
H622 C626 0.929 . S
H623 C632 0.929 . S
C624 H618 0.930 . S
C624 C625 1.367 1_565 S
C624 C632 1.378 . S
C625 C624 1.367 1_545 S
C625 C633 1.433 . S
C626 H622 0.929 . S
C626 C628 1.378 . S
C626 C630 1.350 . S
C627 C630 1.463 . S
C627 C632 1.350 1_545 S
C627 N635 1.427 . S
C628 H619 0.930 . S
C628 C626 1.378 . S
C628 C629 1.367 . S
C629 C628 1.367 . S
C629 C631 1.433 . S
C630 C626 1.350 . S
C630 C627 1.463 . S
C630 N634 1.436 . S
C631 H621 0.922 1_545 S
C631 C629 1.433 . S
C631 N634 1.386 . S
C632 H623 0.929 . S
C632 C624 1.378 . S
C632 C627 1.350 1_565 S
C633 H620 0.929 . S
C633 C625 1.433 . S
C633 N635 1.384 . S
N634 C630 1.436 . S
N634 C631 1.386 . S
N635 C627 1.427 . S
N635 C633 1.384 . S
H636 C642 0.930 . S
H637 C646 0.930 . S
H638 C651 0.929 . S
H639 C649 0.929 . S
H640 C644 0.929 . S
H641 C650 0.929 . S
C642 H636 0.930 . S
C642 C643 1.367 . S
C642 C650 1.378 . S
C643 C642 1.367 . S
C643 C651 1.433 . S
C644 H640 0.929 . S
C644 C646 1.378 . S
C644 C648 1.350 . S
C645 C648 1.463 . S
C645 C650 1.350 . S
C645 N653 1.427 . S
C646 H637 0.930 . S
C646 C644 1.378 . S
C646 C647 1.367 . S
C647 C646 1.367 . S
C647 C649 1.433 . S
C648 C644 1.350 . S
C648 C645 1.463 . S
C648 N652 1.427 . S
C649 H639 0.929 . S
C649 C647 1.433 . S
C649 N652 1.384 . S
C650 H641 0.929 . S
C650 C642 1.378 . S
C650 C645 1.350 . S
C651 H638 0.929 . S
C651 C643 1.433 . S
C651 N653 1.384 . S
N652 C648 1.427 . S
N652 C649 1.384 . S
N653 C645 1.427 . S
N653 C651 1.384 . S
H654 C660 0.930 . S
H655 C664 0.930 . S
H656 C669 0.929 . S
H657 C667 0.929 . S
H658 C662 0.929 . S
H659 C668 0.929 . S
C660 H654 0.930 . S
C660 C661 1.367 . S
C660 C668 1.378 . S
C661 C660 1.367 . S
C661 C669 1.433 . S
C662 H658 0.929 . S
C662 C664 1.378 . S
C662 C666 1.350 . S
C663 C666 1.463 . S
C663 C668 1.350 . S
C663 N671 1.427 . S
C664 H655 0.930 . S
C664 C662 1.378 . S
C664 C665 1.367 . S
C665 C664 1.367 . S
C665 C667 1.433 . S
C666 C662 1.350 . S
C666 C663 1.463 . S
C666 N670 1.427 . S
C667 H657 0.929 . S
C667 C665 1.433 . S
C667 N670 1.384 . S
C668 H659 0.929 . S
C668 C660 1.378 . S
C668 C663 1.350 . S
C669 H656 0.929 . S
C669 C661 1.433 . S
C669 N671 1.384 . S
N670 C666 1.427 . S
N670 C667 1.384 . S
N671 C663 1.427 . S
N671 C669 1.384 . S
H672 C678 0.930 . S
H673 C682 0.930 . S
H674 C687 0.929 . S
H675 C685 0.929 . S
H676 C680 0.929 . S
H677 C686 0.929 . S
C678 H672 0.930 . S
C678 C679 1.367 . S
C678 C686 1.378 . S
C679 C678 1.367 . S
C679 C687 1.433 1_655 S
C680 H676 0.929 . S
C680 C682 1.378 . S
C680 C684 1.350 1_455 S
C681 C684 1.463 . S
C681 C686 1.350 . S
C681 N689 1.427 1_655 S
C682 H673 0.930 . S
C682 C680 1.378 . S
C682 C683 1.367 1_455 S
C683 C682 1.367 1_655 S
C683 C685 1.433 . S
C684 C680 1.350 1_655 S
C684 C681 1.463 . S
C684 N688 1.427 . S
C685 H675 0.929 . S
C685 C683 1.433 . S
C685 N688 1.384 . S
C686 H677 0.929 . S
C686 C678 1.378 . S
C686 C681 1.350 . S
C687 H674 0.929 . S
C687 C679 1.433 1_455 S
C687 N689 1.384 . S
N688 C684 1.427 . S
N688 C685 1.384 . S
N689 C681 1.427 1_455 S
N689 C687 1.384 . S
H690 C696 0.930 . S
H691 C700 0.930 . S
H692 C705 0.929 . S
H693 C703 0.929 . S
H694 C698 0.929 . S
H695 C704 0.929 . S
C696 H690 0.930 . S
C696 C697 1.367 . S
C696 C704 1.378 . S
C697 C696 1.367 . S
C697 C705 1.433 1_565 S
C698 H694 0.929 . S
C698 C700 1.378 . S
C698 C702 1.350 1_545 S
C699 C702 1.463 . S
C699 C704 1.350 . S
C699 N707 1.427 1_565 S
C700 H691 0.930 . S
C700 C698 1.378 . S
C700 C701 1.367 1_545 S
C701 C700 1.367 1_565 S
C701 C703 1.433 . S
C702 C698 1.350 1_565 S
C702 C699 1.463 . S
C702 N706 1.427 . S
C703 H693 0.929 . S
C703 C701 1.433 . S
C703 N706 1.384 . S
C704 H695 0.929 . S
C704 C696 1.378 . S
C704 C699 1.350 . S
C705 H692 0.929 . S
C705 C697 1.433 1_545 S
C705 N707 1.384 . S
N706 C702 1.427 . S
N706 C703 1.384 . S
N707 C699 1.427 1_545 S
N707 C705 1.384 . S
H708 C714 0.930 . S
H709 C718 0.930 . S
H710 C723 0.929 . S
H711 C721 0.929 . S
H712 C716 0.929 . S
H713 C722 0.929 . S
C714 H708 0.930 . S
C714 C715 1.367 . S
C714 C722 1.378 . S
C715 C714 1.367 . S
C715 C723 1.433 . S
C716 H712 0.929 . S
C716 C718 1.378 . S
C716 C720 1.350 . S
C717 C720 1.463 . S
C717 C722 1.350 . S
C717 N725 1.427 . S
C718 H709 0.930 . S
C718 C716 1.378 . S
C718 C719 1.367 . S
C719 C718 1.367 . S
C719 C721 1.433 . S
C720 C716 1.350 . S
C720 C717 1.463 . S
C720 N724 1.427 . S
C721 H711 0.929 . S
C721 C719 1.433 . S
C721 N724 1.384 . S
C722 H713 0.929 . S
C722 C714 1.378 . S
C722 C717 1.350 . S
C723 H710 0.929 . S
C723 C715 1.433 . S
C723 N725 1.384 . S
N724 C720 1.427 . S
N724 C721 1.384 . S
N725 C717 1.427 . S
N725 C723 1.384 . S
H726 C732 0.930 . S
H727 C736 0.930 . S
H728 C741 0.929 . S
H729 C739 0.929 . S
H730 C734 0.929 . S
H731 C740 0.929 . S
C732 H726 0.930 . S
C732 C733 1.367 . S
C732 C740 1.378 . S
C733 C732 1.367 . S
C733 C741 1.433 . S
C734 H730 0.929 . S
C734 C736 1.378 . S
C734 C738 1.350 . S
C735 C738 1.463 . S
C735 C740 1.350 . S
C735 N743 1.427 . S
C736 H727 0.930 . S
C736 C734 1.378 . S
C736 C737 1.367 . S
C737 C736 1.367 . S
C737 C739 1.433 . S
C738 C734 1.350 . S
C738 C735 1.463 . S
C738 N742 1.427 . S
C739 H729 0.929 . S
C739 C737 1.433 . S
C739 N742 1.384 . S
C740 H731 0.929 . S
C740 C732 1.378 . S
C740 C735 1.350 . S
C741 H728 0.929 . S
C741 C733 1.433 . S
C741 N743 1.384 . S
N742 C738 1.427 . S
N742 C739 1.384 . S
N743 C735 1.427 . S
N743 C741 1.384 . S
C319 C125 1.904 1_545 S
C323 C161 1.943 . S
C341 C201 1.959 . S
C337 C144 1.916 . S
C359 C241 1.964 . S
C355 C87 1.930 . S
C377 C281 1.955 1_455 S
C373 C106 1.912 1_455 S
C395 C170 1.948 1_565 S
C391 C49 1.910 1_545 S
C409 C68 1.904 . S
C413 C210 1.961 . S
C427 C11 1.914 . S
C431 C250 1.967 . S
C445 C30 1.911 . S
C449 C290 1.952 1_655 S
C467 C167 0.505 . S
C463 C97 0.560 . S
C485 C207 0.512 . S
C481 C116 0.557 . S
C503 C247 0.530 . S
C499 C135 0.551 . S
C517 C78 0.571 . S
C521 C287 0.510 . S
C535 C21 0.534 . S
C539 C158 0.513 . S
C557 C198 0.512 . S
C553 C40 0.551 . S
C575 C238 0.527 . S
C571 C59 0.550 . S
C589 C2 0.580 . S
C593 C278 0.535 . S
C607 C101 2.092 1_455 S
C611 C171 2.298 . S
C625 C120 2.065 1_545 S
C629 C211 2.276 . S
C647 C251 2.261 . S
C643 C139 2.037 . S
C665 C291 2.285 . S
C661 C82 2.058 . S
C679 C25 2.076 . S
C683 C162 2.307 . S
C701 C202 2.271 . S
C697 C44 2.051 . S
C719 C242 2.259 . S
C715 C63 2.049 . S
C733 C6 2.064 . S
C737 C282 2.290 . S
