# Generated by pormake.
# Topology zzz, (3,6)-cn, num edge types: 1
# Building blocks:
#     Node 0, Type 0, BuildingBlock: MIDCAF_clean_linker_0, # of connection points: 3
#     Node 1, Type 0, BuildingBlock: MIDCAF_clean_linker_0, # of connection points: 3
#     Node 2, Type 0, BuildingBlock: MIDCAF_clean_linker_0, # of connection points: 3
#     Node 3, Type 0, BuildingBlock: MIDCAF_clean_linker_0, # of connection points: 3
#     Node 4, Type 0, BuildingBlock: MIDCAF_clean_linker_0, # of connection points: 3
#     Node 5, Type 0, BuildingBlock: MIDCAF_clean_linker_0, # of connection points: 3
#     Node 6, Type 0, BuildingBlock: MIDCAF_clean_linker_0, # of connection points: 3
#     Node 7, Type 0, BuildingBlock: MIDCAF_clean_linker_0, # of connection points: 3
#     Node 8, Type 1, BuildingBlock: VOLQOD_clean_sbu_1, # of connection points: 6
#     Node 9, Type 1, BuildingBlock: VOLQOD_clean_sbu_1, # of connection points: 6
#     Node 10, Type 1, BuildingBlock: VOLQOD_clean_sbu_1, # of connection points: 6
#     Node 11, Type 1, BuildingBlock: VOLQOD_clean_sbu_1, # of connection points: 6
#     Edge 12, Type (0, 1), BuildingBlock: CIFDUS_clean_linker_0, # of connection points: 2
#     Edge 13, Type (0, 1), BuildingBlock: CIFDUS_clean_linker_0, # of connection points: 2
#     Edge 14, Type (0, 1), BuildingBlock: CIFDUS_clean_linker_0, # of connection points: 2
#     Edge 15, Type (0, 1), BuildingBlock: CIFDUS_clean_linker_0, # of connection points: 2
#     Edge 16, Type (0, 1), BuildingBlock: CIFDUS_clean_linker_0, # of connection points: 2
#     Edge 17, Type (0, 1), BuildingBlock: CIFDUS_clean_linker_0, # of connection points: 2
#     Edge 18, Type (0, 1), BuildingBlock: CIFDUS_clean_linker_0, # of connection points: 2
#     Edge 19, Type (0, 1), BuildingBlock: CIFDUS_clean_linker_0, # of connection points: 2
#     Edge 20, Type (0, 1), BuildingBlock: CIFDUS_clean_linker_0, # of connection points: 2
#     Edge 21, Type (0, 1), BuildingBlock: CIFDUS_clean_linker_0, # of connection points: 2
#     Edge 22, Type (0, 1), BuildingBlock: CIFDUS_clean_linker_0, # of connection points: 2
#     Edge 23, Type (0, 1), BuildingBlock: CIFDUS_clean_linker_0, # of connection points: 2
#     Edge 24, Type (0, 1), BuildingBlock: CIFDUS_clean_linker_0, # of connection points: 2
#     Edge 25, Type (0, 1), BuildingBlock: CIFDUS_clean_linker_0, # of connection points: 2
#     Edge 26, Type (0, 1), BuildingBlock: CIFDUS_clean_linker_0, # of connection points: 2
#     Edge 27, Type (0, 1), BuildingBlock: CIFDUS_clean_linker_0, # of connection points: 2
#     Edge 28, Type (0, 1), BuildingBlock: CIFDUS_clean_linker_0, # of connection points: 2
#     Edge 29, Type (0, 1), BuildingBlock: CIFDUS_clean_linker_0, # of connection points: 2
#     Edge 30, Type (0, 1), BuildingBlock: CIFDUS_clean_linker_0, # of connection points: 2
#     Edge 31, Type (0, 1), BuildingBlock: CIFDUS_clean_linker_0, # of connection points: 2
#     Edge 32, Type (0, 1), BuildingBlock: CIFDUS_clean_linker_0, # of connection points: 2
#     Edge 33, Type (0, 1), BuildingBlock: CIFDUS_clean_linker_0, # of connection points: 2
#     Edge 34, Type (0, 1), BuildingBlock: CIFDUS_clean_linker_0, # of connection points: 2
#     Edge 35, Type (0, 1), BuildingBlock: CIFDUS_clean_linker_0, # of connection points: 2
# Relax obj value: 0.362
# Max RMSD: 0.258
# Mean RMSD: 0.209
data_MOF--net-zzz--node1-VOLQOD_clean_sbu_1--node2-MIDCAF_clean_linker_0--edge1-CIFDUS_clean_linker_0
_symmetry_space_group_name_H-M    P1
_symmetry_Int_Tables_number       1
_symmetry_cell_setting            triclinic
loop_
_symmetry_equiv_pos_as_xyz
'x, y, z'
_cell_length_a     51.88094
_cell_length_b     51.051424
_cell_length_c     20.478692
_cell_angle_alpha  90.101714
_cell_angle_beta   90.151832
_cell_angle_gamma 92.338304
loop_
_atom_site_label
_atom_site_type_symbol
_atom_site_fract_x
_atom_site_fract_y
_atom_site_fract_z
_atom_type_partial_charge
C0 C 0.85089 0.54611 0.28715 0.0
C1 C 0.84377 0.53919 0.35116 0.0
C2 C 0.81996 0.52554 0.36131 0.0
C3 C 0.80491 0.51673 0.30806 0.0
H4 H 0.73218 0.52226 0.15328 0.0
H5 H 0.69039 0.52638 0.0995 0.0
H6 H 0.70833 0.46356 0.96758 0.0
H7 H 0.74921 0.45885 0.02194 0.0
H8 H 0.80473 0.43633 0.0138 0.0
H9 H 0.83702 0.4164 0.94526 0.0
H10 H 0.89717 0.46096 0.04821 0.0
H11 H 0.8654 0.47952 0.11785 0.0
H12 H 0.84324 0.54065 0.18525 0.0
H13 H 0.86917 0.55637 0.27743 0.0
H14 H 0.81389 0.5201 0.41018 0.0
H15 H 0.78781 0.50434 0.31677 0.0
N16 N 0.77866 0.5046 0.17039 0.0
N17 N 0.78814 0.47431 0.08791 0.0
N18 N 0.82074 0.49004 0.15801 0.0
C19 C 0.77077 0.4893 0.11876 0.0
C20 C 0.81311 0.47448 0.10744 0.0
C21 C 0.80378 0.50492 0.18987 0.0
C22 C 0.74422 0.49033 0.09184 0.0
C23 C 0.72699 0.50905 0.11351 0.0
C24 C 0.70312 0.51156 0.08234 0.0
C25 C 0.69598 0.49536 0.02904 0.0
C26 C 0.7129 0.47612 0.00903 0.0
C27 C 0.73659 0.47358 0.04008 0.0
C28 C 0.83242 0.45982 0.07074 0.0
C29 C 0.82492 0.44143 0.02241 0.0
C30 C 0.84345 0.43005 0.983 0.0
C31 C 0.86982 0.43711 0.99057 0.0
C32 C 0.87722 0.45448 0.04131 0.0
C33 C 0.85883 0.46548 0.0811 0.0
C34 C 0.81365 0.52131 0.24422 0.0
C35 C 0.83607 0.53707 0.23424 0.0
C36 C 0.02589 0.79556 0.42429 0.0
C37 C 0.99981 0.80096 0.43361 0.0
C38 C 0.98124 0.78985 0.39045 0.0
C39 C 0.98885 0.7751 0.33651 0.0
H40 H 0.03059 0.68678 0.20504 0.0
H41 H 0.02518 0.64704 0.13875 0.0
H42 H 0.98988 0.69209 0.98623 0.0
H43 H 0.99722 0.73175 0.05079 0.0
H44 H 0.0548 0.77859 0.02962 0.0
H45 H 0.06882 0.81602 0.9634 0.0
H46 H 0.07602 0.86401 0.13684 0.0
H47 H 0.06171 0.82675 0.20332 0.0
H48 H 0.05389 0.7794 0.36065 0.0
H49 H 0.04064 0.80412 0.45624 0.0
H50 H 0.96103 0.79378 0.39649 0.0
H51 H 0.9744 0.7683 0.30142 0.0
N52 N 0.01584 0.74142 0.22958 0.0
N53 N 0.03584 0.75555 0.13196 0.0
N54 N 0.03754 0.78271 0.22387 0.0
C55 C 0.02226 0.73686 0.16614 0.0
C56 C 0.04372 0.77848 0.1606 0.0
C57 C 0.02365 0.76447 0.25851 0.0
C58 C 0.01442 0.7122 0.1327 0.0
C59 C 0.02131 0.68792 0.15772 0.0
C60 C 0.01813 0.66516 0.11957 0.0
C61 C 0.0075 0.66621 0.05614 0.0
C62 C 0.99898 0.69045 0.03358 0.0
C63 C 0.00282 0.71319 0.0709 0.0
C64 C 0.05655 0.79974 0.12175 0.0
C65 C 0.05983 0.79695 0.05396 0.0
C66 C 0.06809 0.81838 0.01593 0.0
C67 C 0.07325 0.84303 0.04488 0.0
C68 C 0.07182 0.84533 0.11311 0.0
C69 C 0.06359 0.82393 0.15116 0.0
C70 C 0.01513 0.77174 0.32437 0.0
C71 C 0.03349 0.78139 0.36971 0.0
C72 C 0.70387 0.0161 0.36591 0.0
C73 C 0.69596 0.98949 0.36247 0.0
C74 C 0.70687 0.97358 0.31454 0.0
C75 C 0.7235 0.98463 0.2673 0.0
H76 H 0.80439 1.0004 0.15055 0.0
H77 H 0.84272 0.9906 0.08727 0.0
H78 H 0.81089 0.02935 0.91984 0.0
H79 H 0.77314 0.03963 0.98281 0.0
H80 H 0.71637 0.05813 0.98578 0.0
H81 H 0.67548 0.06692 0.93323 0.0
H82 H 0.6417 0.08184 0.12141 0.0
H83 H 0.68248 0.07291 0.17427 0.0
H84 H 0.72373 0.04823 0.318 0.0
H85 H 0.69563 0.02889 0.40185 0.0
H86 H 0.70114 0.95299 0.31094 0.0
H87 H 0.72981 0.97243 0.22754 0.0
N88 N 0.75803 0.01777 0.1712 0.0
N89 N 0.74509 0.04399 0.08351 0.0
N90 N 0.72002 0.04101 0.1779 0.0
C91 C 0.76256 0.02795 0.11046 0.0
C92 C 0.7238 0.05067 0.11706 0.0
C93 C 0.73686 0.02468 0.20532 0.0
C94 C 0.78566 0.02099 0.07217 0.0
C95 C 0.80555 0.00679 0.10022 0.0
C96 C 0.82749 0.00105 0.06381 0.0
C97 C 0.83002 0.00936 0.99853 0.0
C98 C 0.80989 0.02311 0.97032 0.0
C99 C 0.7881 0.0289 0.00658 0.0
C100 C 0.70247 0.064 0.08437 0.0
C101 C 0.70055 0.06423 0.01588 0.0
C102 C 0.67709 0.06939 0.98565 0.0
C103 C 0.65525 0.07448 0.02343 0.0
C104 C 0.65811 0.07747 0.09124 0.0
C105 C 0.6815 0.07231 0.12144 0.0
C106 C 0.72903 0.01177 0.26676 0.0
C107 C 0.72003 0.02718 0.31805 0.0
C108 C 0.47862 0.64021 0.13111 0.0
C109 C 0.46534 0.64389 0.07209 0.0
C110 C 0.45944 0.66953 0.05383 0.0
C111 C 0.46902 0.69107 0.08981 0.0
H112 H 0.51002 0.75627 0.03328 0.0
H113 H 0.5159 0.79459 0.96494 0.0
H114 H 0.54885 0.83832 0.12766 0.0
H115 H 0.5433 0.79933 0.19713 0.0
H116 H 0.50482 0.72405 0.37811 0.0
H117 H 0.52154 0.6997 0.47036 0.0
H118 H 0.59327 0.69105 0.36767 0.0
H119 H 0.57652 0.71598 0.27571 0.0
H120 H 0.4995 0.65823 0.21054 0.0
H121 H 0.48364 0.62079 0.14657 0.0
H122 H 0.4487 0.67303 0.00949 0.0
H123 H 0.46548 0.71059 0.07217 0.0
N124 N 0.50417 0.73187 0.13987 0.0
N125 N 0.5317 0.74876 0.22242 0.0
N126 N 0.5103 0.7075 0.2345 0.0
C127 C 0.52032 0.75143 0.16283 0.0
C128 C 0.52635 0.72685 0.25855 0.0
C129 C 0.49906 0.70987 0.17521 0.0
C130 C 0.52578 0.77477 0.12123 0.0
C131 C 0.51856 0.77394 0.055 0.0
C132 C 0.52189 0.79598 0.0156 0.0
C133 C 0.53239 0.81962 0.04118 0.0
C134 C 0.54068 0.82034 0.10665 0.0
C135 C 0.53741 0.79806 0.14641 0.0
C136 C 0.53952 0.72198 0.32049 0.0
C137 C 0.52466 0.71821 0.37701 0.0
C138 C 0.53426 0.70425 0.4297 0.0
C139 C 0.55863 0.6933 0.42586 0.0
C140 C 0.57443 0.6993 0.37178 0.0
C141 C 0.56496 0.7137 0.31948 0.0
C142 C 0.48433 0.68742 0.14548 0.0
C143 C 0.4879 0.66176 0.16763 0.0
C144 C 0.21159 0.53647 0.98326 0.0
C145 C 0.20559 0.5095 0.98912 0.0
C146 C 0.21752 0.4952 0.0385 0.0
C147 C 0.23391 0.50802 0.08383 0.0
H148 H 0.31492 0.52271 0.18416 0.0
H149 H 0.35361 0.51055 0.24326 0.0
H150 H 0.33356 0.56124 0.40267 0.0
H151 H 0.29497 0.5732 0.34461 0.0
H152 H 0.24503 0.60728 0.33799 0.0
H153 H 0.21134 0.61839 0.41466 0.0
H154 H 0.15345 0.58894 0.27788 0.0
H155 H 0.18675 0.57937 0.20054 0.0
H156 H 0.23003 0.57048 0.02708 0.0
H157 H 0.20241 0.54798 0.9461 0.0
H158 H 0.21308 0.4744 0.04402 0.0
H159 H 0.24153 0.49696 0.1241 0.0
N160 N 0.27039 0.54386 0.16809 0.0
N161 N 0.26124 0.5724 0.25439 0.0
N162 N 0.23191 0.56652 0.16838 0.0
C163 C 0.2775 0.55565 0.22553 0.0
C164 C 0.23838 0.57791 0.22623 0.0
C165 C 0.24777 0.54971 0.13891 0.0
C166 C 0.30167 0.54888 0.25953 0.0
C167 C 0.31877 0.53131 0.23174 0.0
C168 C 0.341 0.5244 0.26549 0.0
C169 C 0.34653 0.53478 0.32787 0.0
C170 C 0.32962 0.55254 0.35522 0.0
C171 C 0.30753 0.55953 0.32152 0.0
C172 C 0.21865 0.59159 0.26404 0.0
C173 C 0.22506 0.60402 0.32351 0.0
C174 C 0.20571 0.61027 0.36762 0.0
C175 C 0.17964 0.60367 0.35368 0.0
C176 C 0.17321 0.59429 0.29086 0.0
C177 C 0.19249 0.58852 0.24636 0.0
C178 C 0.238 0.53535 0.08114 0.0
C179 C 0.22739 0.54934 0.02943 0.0
C180 C 0.10279 0.19567 0.95923 0.0
C181 C 0.08105 0.19881 0.9191 0.0
C182 C 0.06673 0.22151 0.92806 0.0
C183 C 0.07133 0.23791 0.98229 0.0
H184 H 0.06 0.31032 0.1473 0.0
H185 H 0.05658 0.35135 0.20964 0.0
H186 H 0.10536 0.32088 0.36015 0.0
H187 H 0.10807 0.27988 0.29931 0.0
H188 H 0.06386 0.21747 0.33047 0.0
H189 H 0.04896 0.17849 0.39106 0.0
H190 H 0.05693 0.13141 0.21725 0.0
H191 H 0.07246 0.1696 0.15784 0.0
H192 H 0.12266 0.20745 0.04652 0.0
H193 H 0.11452 0.17873 0.95484 0.0
H194 H 0.05053 0.22541 0.89665 0.0
H195 H 0.05788 0.25302 0.99297 0.0
N196 N 0.08719 0.26272 0.12227 0.0
N197 N 0.07815 0.24459 0.22628 0.0
N198 N 0.08183 0.21721 0.13603 0.0
C199 C 0.08327 0.26591 0.18781 0.0
C200 C 0.07712 0.22014 0.20028 0.0
C201 C 0.08697 0.23801 0.09687 0.0
C202 C 0.08431 0.29207 0.21864 0.0
C203 C 0.07034 0.3127 0.19308 0.0
C204 C 0.06826 0.33601 0.22881 0.0
C205 C 0.08074 0.33919 0.28956 0.0
C206 C 0.09573 0.31899 0.31326 0.0
C207 C 0.09723 0.29556 0.27856 0.0
C208 C 0.06941 0.19675 0.23931 0.0
C209 C 0.06263 0.19875 0.30548 0.0
C210 C 0.05387 0.17648 0.33998 0.0
C211 C 0.05171 0.15188 0.30884 0.0
C212 C 0.0587 0.14996 0.24297 0.0
C213 C 0.06753 0.17202 0.20879 0.0
C214 C 0.09069 0.23218 0.02728 0.0
C215 C 0.10765 0.21235 0.01222 0.0
C216 C 0.3168 0.9799 0.96828 0.0
C217 C 0.32505 0.0065 0.97053 0.0
C218 C 0.31565 0.02232 0.02098 0.0
C219 C 0.30046 0.01117 0.07123 0.0
H220 H 0.23583 0.00891 0.23458 0.0
H221 H 0.20025 0.01802 0.30916 0.0
H222 H 0.20518 0.94071 0.39194 0.0
H223 H 0.2406 0.93168 0.31868 0.0
H224 H 0.30938 0.92699 0.34015 0.0
H225 H 0.34993 0.91436 0.3871 0.0
H226 H 0.3819 0.9064 0.19374 0.0
H227 H 0.34135 0.91969 0.14656 0.0
H228 H 0.29774 0.94788 0.01799 0.0
H229 H 0.32378 0.96687 0.93112 0.0
H230 H 0.32131 0.04294 0.0238 0.0
H231 H 0.29542 0.02322 0.1125 0.0
N232 N 0.26758 0.97669 0.1708 0.0
N233 N 0.28059 0.94633 0.24964 0.0
N234 N 0.30465 0.9526 0.15453 0.0
C235 C 0.26346 0.96403 0.22881 0.0
C236 C 0.30128 0.94056 0.21277 0.0
C237 C 0.28807 0.97051 0.1331 0.0
C238 C 0.24107 0.9696 0.27076 0.0
C239 C 0.22918 0.99385 0.26845 0.0
C240 C 0.20898 0.99913 0.31136 0.0
C241 C 0.2 0.98005 0.35626 0.0
C242 C 0.21159 0.9557 0.35759 0.0
C243 C 0.23198 0.95061 0.31574 0.0
C244 C 0.32238 0.92515 0.23972 0.0
C245 C 0.32471 0.92171 0.30745 0.0
C246 C 0.34804 0.91429 0.33443 0.0
C247 C 0.36941 0.90995 0.29414 0.0
C248 C 0.366 0.91025 0.2261 0.0
C249 C 0.34272 0.91782 0.19913 0.0
C250 C 0.29457 0.9841 0.07165 0.0
C251 C 0.3018 0.96888 0.01825 0.0
C252 C 0.54315 0.34227 0.25936 0.0
C253 C 0.55968 0.33597 0.31115 0.0
C254 C 0.56728 0.30991 0.31706 0.0
C255 C 0.55689 0.29035 0.27575 0.0
H256 H 0.51977 0.22077 0.31122 0.0
H257 H 0.51487 0.17943 0.36728 0.0
H258 H 0.47793 0.14443 0.19735 0.0
H259 H 0.48307 0.18654 0.13946 0.0
H260 H 0.44688 0.27728 0.09461 0.0
H261 H 0.4313 0.30827 0.01381 0.0
H262 H 0.50236 0.30184 0.90611 0.0
H263 H 0.51721 0.27073 0.98571 0.0
H264 H 0.51958 0.32831 0.18014 0.0
H265 H 0.53639 0.3619 0.25347 0.0
H266 H 0.58047 0.30438 0.35521 0.0
H267 H 0.56211 0.27026 0.28353 0.0
N268 N 0.52142 0.25146 0.2163 0.0
N269 N 0.493 0.23879 0.13113 0.0
N270 N 0.51224 0.28136 0.13451 0.0
C271 C 0.50569 0.23286 0.18743 0.0
C272 C 0.4966 0.26314 0.1045 0.0
C273 C 0.52477 0.27568 0.19031 0.0
C274 C 0.50184 0.20711 0.22046 0.0
C275 C 0.51056 0.20444 0.28514 0.0
C276 C 0.50755 0.18069 0.31783 0.0
C277 C 0.49575 0.15874 0.28709 0.0
C278 C 0.48709 0.16109 0.22222 0.0
C279 C 0.48994 0.18518 0.18927 0.0
C280 C 0.48304 0.27141 0.04555 0.0
C281 C 0.45837 0.28142 0.05145 0.0
C282 C 0.4497 0.29954 0.0058 0.0
C283 C 0.46571 0.30801 0.95388 0.0
C284 C 0.48927 0.29572 0.94476 0.0
C285 C 0.49784 0.2777 0.99027 0.0
C286 C 0.53916 0.29655 0.22677 0.0
C287 C 0.53324 0.32286 0.21732 0.0
O288 O 0.07912 0.99535 0.64127 0.0
Zn289 Zn 0.05341 0.00281 0.71353 0.0
O290 O 0.01742 0.99823 0.68249 0.0
Zn291 Zn 0.99975 0.03087 0.69376 0.0
Zn292 Zn 0.01746 0.98891 0.59064 0.0
Zn293 Zn 0.99819 0.97044 0.72879 0.0
O294 O 0.96645 0.0256 0.74285 0.0
O295 O 0.96511 0.98338 0.76896 0.0
O296 O 0.06083 0.04024 0.74552 0.0
O297 O 0.02226 0.05749 0.74153 0.0
O298 O 0.99351 0.04805 0.60754 0.0
O299 O 0.00756 0.0193 0.53595 0.0
O300 O 0.99564 0.9565 0.57063 0.0
O301 O 0.0592 0.9776 0.78877 0.0
O302 O 0.9898 0.93911 0.66913 0.0
O303 O 0.0202 0.95819 0.80169 0.0
C304 C 0.07566 0.98573 0.58427 0.0
C305 C 0.95529 0.00589 0.77044 0.0
C306 C 0.99859 0.04152 0.54916 0.0
C307 C 0.04619 0.05933 0.75551 0.0
C308 C 0.98826 0.93747 0.60705 0.0
C309 C 0.04366 0.96188 0.81897 0.0
O310 O 0.05315 0.98112 0.5612 0.0
O311 O 0.49479 0.04773 0.61374 0.0
Zn312 Zn 0.49817 0.02488 0.69295 0.0
O313 O 0.50928 0.99006 0.6657 0.0
Zn314 Zn 0.48196 0.96444 0.68551 0.0
Zn315 Zn 0.51597 0.98927 0.57122 0.0
Zn316 Zn 0.5402 0.98077 0.7142 0.0
O317 O 0.49286 0.93914 0.75321 0.0
O318 O 0.53443 0.94828 0.77093 0.0
O319 O 0.46286 0.02308 0.73724 0.0
O320 O 0.45055 0.98157 0.71841 0.0
O321 O 0.47109 0.94361 0.60728 0.0
O322 O 0.49392 0.96102 0.52572 0.0
O323 O 0.55356 0.98273 0.55406 0.0
O324 O 0.52453 0.04274 0.75339 0.0
O325 O 0.5703 0.97646 0.65268 0.0
O326 O 0.55096 0.01037 0.77354 0.0
C327 C 0.49898 0.04513 0.55282 0.0
C328 C 0.51391 0.93442 0.78202 0.0
C329 C 0.47708 0.94434 0.54718 0.0
C330 C 0.44583 0.00437 0.73914 0.0
C331 C 0.5727 0.97804 0.59083 0.0
C332 C 0.54393 0.03367 0.78267 0.0
O333 O 0.50741 0.02393 0.52961 0.0
O334 O 0.45783 0.49801 0.6394 0.0
Zn335 Zn 0.48395 0.49288 0.7118 0.0
O336 O 0.51914 0.49699 0.67479 0.0
Zn337 Zn 0.53739 0.4652 0.68992 0.0
Zn338 Zn 0.51805 0.50331 0.58092 0.0
Zn339 Zn 0.53828 0.52622 0.71623 0.0
O340 O 0.56551 0.47089 0.75665 0.0
O341 O 0.56697 0.51383 0.77445 0.0
O342 O 0.47682 0.4561 0.74969 0.0
O343 O 0.51311 0.43708 0.72294 0.0
O344 O 0.55213 0.45071 0.60768 0.0
O345 O 0.53534 0.47524 0.53041 0.0
O346 O 0.53656 0.53726 0.5576 0.0
O347 O 0.47764 0.52128 0.77973 0.0
O348 O 0.5524 0.5529 0.65129 0.0
O349 O 0.51409 0.54562 0.77139 0.0
C350 C 0.4595 0.50269 0.57832 0.0
C351 C 0.57518 0.49107 0.78576 0.0
C352 C 0.5488 0.45615 0.54773 0.0
C353 C 0.4904 0.43585 0.74616 0.0
C354 C 0.54949 0.55466 0.58973 0.0
C355 C 0.49148 0.54171 0.79412 0.0
O356 O 0.48131 0.50504 0.55001 0.0
O357 O 0.9784 0.53358 0.59148 0.0
Zn358 Zn 0.01393 0.53652 0.63463 0.0
O359 O 0.02588 0.50184 0.66202 0.0
Zn360 Zn 0.0306 0.50065 0.75712 0.0
Zn361 Zn 0.00073 0.47455 0.63512 0.0
Zn362 Zn 0.0586 0.49482 0.62046 0.0
O363 O 0.06744 0.49338 0.78175 0.0
O364 O 0.08658 0.48879 0.6859 0.0
O365 O 0.01161 0.56012 0.71373 0.0
O366 O 0.02232 0.53547 0.79819 0.0
O367 O 0.00693 0.47296 0.79715 0.0
O368 O 0.9867 0.45436 0.71217 0.0
O369 O 0.01515 0.44989 0.56844 0.0
O370 O 0.03956 0.55496 0.57316 0.0
O371 O 0.05583 0.46424 0.55736 0.0
O372 O 0.07093 0.52653 0.57182 0.0
C373 C 0.96345 0.5136 0.58026 0.0
C374 C 0.08746 0.48922 0.74797 0.0
C375 C 0.99065 0.45615 0.77342 0.0
C376 C 0.01534 0.55721 0.77483 0.0
C377 C 0.03723 0.44835 0.5419 0.0
C378 C 0.062 0.54845 0.55592 0.0
O379 O 0.97012 0.4906 0.59462 0.0
H380 H 0.15703 0.94952 0.37834 0.0
H381 H 0.19542 0.02225 0.43712 0.0
H382 H 0.16123 0.0297 0.51667 0.0
H383 H 0.12003 0.01545 0.56908 0.0
H384 H 0.08058 0.94413 0.50387 0.0
H385 H 0.11568 0.93592 0.42816 0.0
C386 C 0.1579 0.96696 0.40873 0.0
C387 C 0.1787 0.98527 0.40214 0.0
C388 C 0.13808 0.97122 0.45359 0.0
C389 C 0.17947 0.00798 0.44108 0.0
C390 C 0.16002 0.01215 0.4868 0.0
C391 C 0.11937 0.99799 0.53875 0.0
C392 C 0.09796 0.98025 0.54242 0.0
C393 C 0.13924 0.99386 0.49361 0.0
C394 C 0.09695 0.95799 0.50195 0.0
C395 C 0.11696 0.95332 0.45858 0.0
H396 H 0.47898 0.15188 0.41093 0.0
H397 H 0.5073 0.10946 0.24553 0.0
H398 H 0.50948 0.06978 0.3123 0.0
H399 H 0.50697 0.04845 0.42063 0.0
H400 H 0.47989 0.09229 0.58584 0.0
H401 H 0.47394 0.13011 0.51633 0.0
C402 C 0.48551 0.13389 0.38939 0.0
C403 C 0.49326 0.13367 0.32366 0.0
C404 C 0.48728 0.11149 0.4283 0.0
C405 C 0.50114 0.1101 0.29598 0.0
C406 C 0.50263 0.0875 0.33433 0.0
C407 C 0.49964 0.06622 0.44138 0.0
C408 C 0.49419 0.0675 0.50873 0.0
C409 C 0.49635 0.08815 0.40103 0.0
C410 C 0.4845 0.09069 0.53447 0.0
C411 C 0.48102 0.1124 0.49471 0.0
H412 H 0.34992 0.52237 0.45661 0.0
H413 H 0.39555 0.5304 0.28143 0.0
H414 H 0.43431 0.52014 0.3429 0.0
H415 H 0.45546 0.5107 0.44711 0.0
H416 H 0.40977 0.50315 0.62263 0.0
H417 H 0.37086 0.51158 0.56024 0.0
C418 C 0.36838 0.52198 0.43194 0.0
C419 C 0.36986 0.52731 0.3646 0.0
C420 C 0.39058 0.51624 0.46764 0.0
C421 C 0.39383 0.5262 0.33309 0.0
C422 C 0.41603 0.52049 0.3683 0.0
C423 C 0.43701 0.51079 0.47183 0.0
C424 C 0.43567 0.50642 0.53969 0.0
C425 C 0.41466 0.51571 0.4357 0.0
C426 C 0.41148 0.50648 0.57057 0.0
C427 C 0.38918 0.51134 0.53493 0.0
H428 H 0.03533 0.35759 0.33066 0.0
H429 H 0.11757 0.3722 0.34319 0.0
H430 H 0.11142 0.40795 0.42088 0.0
H431 H 0.0827 0.4336 0.48905 0.0
H432 H 1.00043 0.41722 0.48072 0.0
H433 H 0.00654 0.38362 0.39799 0.0
C434 C 0.05183 0.36893 0.34971 0.0
C435 C 0.07684 0.36252 0.33097 0.0
C436 C 0.04815 0.38891 0.39571 0.0
C437 C 0.09815 0.37693 0.35688 0.0
C438 C 0.09463 0.39726 0.40139 0.0
C439 C 0.06608 0.42276 0.46902 0.0
C440 C 0.04114 0.42796 0.4914 0.0
C441 C 0.06973 0.40319 0.42188 0.0
C442 C 0.01987 0.41358 0.46489 0.0
C443 C 0.02332 0.39439 0.41732 0.0
H444 H 0.85557 0.04253 0.91485 0.0
H445 H 0.85774 0.96464 0.99557 0.0
H446 H 0.89629 0.95637 0.9314 0.0
H447 H 0.92949 0.97139 0.8521 0.0
H448 H 0.92647 0.04937 0.77159 0.0
H449 H 0.88788 0.05714 0.83485 0.0
C450 C 0.86424 0.0236 0.91793 0.0
C451 C 0.85364 0.00422 0.95994 0.0
C452 C 0.88625 0.01891 0.8806 0.0
C453 C 0.86559 0.98003 0.96423 0.0
C454 C 0.88756 0.97522 0.92717 0.0
C455 C 0.9203 0.99002 0.84803 0.0
C456 C 0.93099 0.00973 0.80693 0.0
C457 C 0.89807 0.99453 0.88512 0.0
C458 C 0.91882 0.03381 0.80276 0.0
C459 C 0.8967 0.03833 0.83904 0.0
H460 H 0.49442 0.83623 0.96355 0.0
H461 H 0.57206 0.85663 0.02612 0.0
H462 H 0.57344 0.89431 0.95164 0.0
H463 H 0.55268 0.92053 0.86559 0.0
H464 H 0.47494 0.8985 0.80457 0.0
H465 H 0.47376 0.86219 0.88078 0.0
C466 C 0.51175 0.8488 0.96062 0.0
C467 C 0.53321 0.84346 -0.00038 0.0
C468 C 0.51245 0.87007 0.91758 0.0
C469 C 0.55526 0.86036 0.9966 0.0
C470 C 0.55609 0.88179 0.95375 0.0
C471 C 0.53553 0.90775 0.86893 0.0
C472 C 0.51399 0.91231 0.82899 0.0
C473 C 0.53485 0.88669 0.91343 0.0
C474 C 0.49184 0.8956 0.83443 0.0
C475 C 0.49109 0.87475 0.87813 0.0
H476 H 0.66318 0.45767 0.97786 0.0
H477 H 0.6744 0.54163 0.99534 0.0
H478 H 0.63729 0.54778 0.92416 0.0
H479 H 0.60344 0.5293 0.85089 0.0
H480 H 0.59408 0.44522 0.82977 0.0
H481 H 0.62902 0.43926 0.90716 0.0
C482 C 0.65761 0.47735 0.96598 0.0
C483 C 0.67175 0.49913 0.99165 0.0
C484 C 0.63674 0.48076 0.92359 0.0
C485 C 0.66377 0.52446 0.97693 0.0
C486 C 0.64269 0.52802 0.93561 0.0
C487 C 0.60898 0.50967 0.86332 0.0
C488 C 0.59619 0.48778 0.83399 0.0
C489 C 0.62931 0.5063 0.90772 0.0
C490 C 0.60364 0.46248 0.85101 0.0
C491 C 0.62361 0.459 0.89549 0.0
H492 H 0.01367 0.66521 0.9236 0.0
H493 H 1.00009 0.61394 0.08872 0.0
H494 H 0.00167 0.57585 0.01688 0.0
H495 H 0.00745 0.55696 0.90686 0.0
H496 H 0.01759 0.60888 0.74192 0.0
H497 H 0.01594 0.6468 0.81405 0.0
C498 C 0.0104 0.64582 0.9442 0.0
C499 C 0.00679 0.64274 0.01205 0.0
C500 C 0.01066 0.62399 0.90244 0.0
C501 C 0.00338 0.61715 0.03713 0.0
C502 C 0.00409 0.59527 0.99591 0.0
C503 C 0.0092 0.57658 0.88673 0.0
C504 C 0.01277 0.58002 0.81903 0.0
C505 C 0.00789 0.59844 0.9285 0.0
C506 C 0.01475 0.6056 0.79371 0.0
C507 C 0.01391 0.62734 0.83498 0.0
H508 H 0.01204 0.14728 0.39579 0.0
H509 H 0.07058 0.10294 0.30152 0.0
H510 H 0.05559 0.06355 0.35894 0.0
H511 H 0.02869 0.04267 0.44228 0.0
H512 H 0.97296 0.08739 0.54583 0.0
H513 H 0.98366 0.12557 0.47742 0.0
C514 C 0.02157 0.12902 0.38812 0.0
C515 C 0.0424 0.12809 0.34444 0.0
C516 C 0.0132 0.10648 0.42242 0.0
C517 C 0.0543 0.10417 0.33422 0.0
C518 C 0.0458 0.08162 0.36717 0.0
C519 C 0.01834 0.06053 0.44888 0.0
C520 C 1.0 0.06219 0.49891 0.0
C521 C 0.0255 0.08264 0.41189 0.0
C522 C 0.98711 0.08563 0.50742 0.0
C523 C 0.9934 0.10752 0.4688 0.0
H524 H 0.38502 0.8861 0.40593 0.0
H525 H 0.4129 0.93541 0.24808 0.0
H526 H 0.45216 0.94633 0.30895 0.0
H527 H 0.474 0.94929 0.41506 0.0
H528 H 0.44449 0.9027 0.57615 0.0
H529 H 0.41074 0.88338 0.50617 0.0
C530 C 0.39992 0.89884 0.38441 0.0
C531 C 0.39572 0.91026 0.3231 0.0
C532 C 0.42204 0.906 0.42085 0.0
C533 C 0.41552 0.92622 0.29511 0.0
C534 C 0.43793 0.93279 0.33028 0.0
C535 C 0.46063 0.9344 0.43445 0.0
C536 C 0.46137 0.92798 0.50111 0.0
C537 C 0.44074 0.92391 0.39447 0.0
C538 C 0.44404 0.90842 0.52525 0.0
C539 C 0.42466 0.89737 0.48531 0.0
H540 H 0.56813 0.38901 0.2976 0.0
H541 H 0.5648 0.32758 0.44273 0.0
H542 H 0.56606 0.36015 0.52919 0.0
H543 H 0.56047 0.40539 0.56348 0.0
H544 H 0.55755 0.46651 0.41865 0.0
H545 H 0.56583 0.43477 0.33246 0.0
C546 C 0.56772 0.38267 0.34809 0.0
C547 C 0.56592 0.35573 0.36306 0.0
C548 C 0.56684 0.40151 0.39788 0.0
C549 C 0.56638 0.34805 0.42907 0.0
C550 C 0.56675 0.36672 0.47889 0.0
C551 C 0.56219 0.41189 0.51321 0.0
C552 C 0.55816 0.43818 0.49733 0.0
C553 C 0.56587 0.39341 0.4638 0.0
C554 C 0.56032 0.44629 0.43197 0.0
C555 C 0.56503 0.42816 0.3827 0.0
H556 H 0.12749 0.61209 0.34899 0.0
H557 H 0.18802 0.5884 0.47921 0.0
H558 H 0.15619 0.57287 0.55756 0.0
H559 H 0.11188 0.55852 0.58055 0.0
H560 H 0.05056 0.57932 0.45078 0.0
H561 H 0.08192 0.60311 0.38046 0.0
C562 C 0.13373 0.60386 0.39488 0.0
C563 C 0.16028 0.60112 0.40718 0.0
C564 C 0.11517 0.59385 0.43923 0.0
C565 C 0.16791 0.59108 0.46794 0.0
C566 C 0.14965 0.58176 0.51275 0.0
C567 C 0.10536 0.56864 0.53733 0.0
C568 C 0.0792 0.56684 0.51978 0.0
C569 C 0.12337 0.58189 0.49745 0.0
C570 C 0.07073 0.58039 0.46472 0.0
C571 C 0.08866 0.59384 0.42455 0.0
H572 H 0.04956 0.88866 0.06025 0.0
H573 H 0.10312 0.85017 0.93528 0.0
H574 H 0.10198 0.88659 0.8577 0.0
H575 H 0.08107 0.92648 0.8191 0.0
H576 H 0.02473 0.96214 0.94109 0.0
H577 H 0.03214 0.93021 0.02725 0.0
C578 C 0.0616 0.88857 0.01702 0.0
C579 C 0.07638 0.86676 0.00346 0.0
C580 C 0.06024 0.90911 0.97206 0.0
C581 C 0.09142 0.86669 0.94648 0.0
C582 C 0.09077 0.88749 0.90217 0.0
C583 C 0.0711 0.92761 0.86545 0.0
C584 C 0.0526 0.94659 0.87454 0.0
C585 C 0.0746 0.90841 0.91348 0.0
C586 C 0.03919 0.94769 0.93376 0.0
C587 C 0.0433 0.92938 0.98267 0.0
H588 H 0.63743 0.09514 0.9093 0.0
H589 H 0.61481 0.04538 0.0712 0.0
H590 H 0.57557 0.03122 0.01391 0.0
H591 H 0.55158 0.02721 0.91089 0.0
H592 H 0.57323 0.07664 0.74841 0.0
H593 H 0.60878 0.0969 0.81259 0.0
C594 C 0.62357 0.08168 0.93244 0.0
C595 C 0.62914 0.07119 0.99413 0.0
C596 C 0.60103 0.07333 0.89881 0.0
C597 C 0.61094 0.05393 0.02398 0.0
C598 C 0.58856 0.04559 0.991 0.0
C599 C 0.56363 0.04303 0.89055 0.0
C600 C 0.56005 0.05055 0.82555 0.0
C601 C 0.58396 0.05435 0.92749 0.0
C602 C 0.57567 0.07086 0.79887 0.0
C603 C 0.59609 0.08221 0.8353 0.0
H604 H 0.47354 0.6458 0.94223 0.0
H605 H 0.45054 0.59223 0.09603 0.0
H606 H 0.45336 0.55522 0.0203 0.0
H607 H 0.46773 0.53797 0.91317 0.0
H608 H 0.49284 0.59272 0.764 0.0
H609 H 0.48306 0.62945 0.83448 0.0
C610 C 0.46827 0.62617 0.95899 0.0
C611 C 0.46188 0.62186 0.02483 0.0
C612 C 0.47049 0.60513 0.91584 0.0
C613 C 0.45577 0.59609 0.0457 0.0
C614 C 0.45739 0.57493 0.00242 0.0
C615 C 0.47043 0.55797 0.89597 0.0
C616 C 0.48107 0.56279 0.8339 0.0
C617 C 0.46555 0.57914 0.93781 0.0
C618 C 0.48481 0.58869 0.81193 0.0
C619 C 0.47928 0.60967 0.85217 0.0
H620 H 0.92064 0.42688 0.01035 0.0
H621 H 0.86296 0.43084 0.85845 0.0
H622 H 0.89639 0.43039 0.77578 0.0
H623 H 0.94169 0.43906 0.7479 0.0
H624 H 0.99926 0.4426 0.90041 0.0
H625 H 0.96638 0.43024 0.98122 0.0
C626 C 0.91531 0.42747 0.95915 0.0
C627 C 0.88925 0.42964 0.94115 0.0
C628 C 0.93477 0.42907 0.91176 0.0
C629 C 0.88273 0.4292 0.87435 0.0
C630 C 0.90194 0.4293 0.82675 0.0
C631 C 0.9472 0.43634 0.79851 0.0
C632 C 0.97278 0.44204 0.81839 0.0
C633 C 0.928 0.43073 0.84507 0.0
C634 C 0.97961 0.43857 0.88414 0.0
C635 C 0.9608 0.43162 0.93034 0.0
H636 H 0.10828 0.16087 0.85576 0.0
H637 H 0.0305 0.18503 0.89034 0.0
H638 H 0.01337 0.14502 0.84022 0.0
H639 H 0.01987 0.1013 0.79623 0.0
H640 H 0.09717 0.07474 0.7712 0.0
H641 H 0.11484 0.11698 0.81091 0.0
C642 C 0.08756 0.15749 0.85289 0.0
C643 C 0.07094 0.17637 0.87766 0.0
C644 C 0.0776 0.13356 0.82712 0.0
C645 C 0.0441 0.17154 0.87098 0.0
C646 C 0.03412 0.14827 0.84319 0.0
C647 C 0.04061 0.10467 0.79933 0.0
C648 C 0.05712 0.0847 0.78108 0.0
C649 C 0.05065 0.12888 0.82272 0.0
C650 C 0.08395 0.08959 0.78548 0.0
C651 C 0.09409 0.11383 0.80783 0.0
H652 H 0.33232 0.99412 0.84228 0.0
H653 H 0.36631 0.03991 0.00013 0.0
H654 H 0.40581 0.04692 0.93723 0.0
H655 H 0.43332 0.03386 0.84502 0.0
H656 H 0.40046 0.98345 0.69466 0.0
H657 H 0.35832 0.98408 0.74708 0.0
C658 C 0.34827 0.00581 0.86288 0.0
C659 C 0.34632 0.01604 0.92647 0.0
C660 C 0.37148 0.00853 0.82804 0.0
C661 C 0.36701 0.03183 0.95128 0.0
C662 C 0.38985 0.03558 0.91562 0.0
C663 C 0.41676 0.0235 0.82323 0.0
C664 C 0.41996 0.00848 0.76641 0.0
C665 C 0.3927 0.02311 0.8551 0.0
C666 C 0.39847 0.99494 0.73878 0.0
C667 C 0.37437 0.99529 0.76869 0.0
H668 H 0.4752 0.31793 0.82496 0.0
H669 H 0.44499 0.35322 0.99889 0.0
H670 H 0.44585 0.39584 0.94541 0.0
H671 H 0.46217 0.42447 0.85583 0.0
H672 H 0.49675 0.38924 0.68765 0.0
H673 H 0.48747 0.34561 0.73212 0.0
C674 C 0.46855 0.33488 0.85105 0.0
C675 C 0.46042 0.33225 0.91627 0.0
C676 C 0.47031 0.35962 0.8212 0.0
C677 C 0.45122 0.35441 0.94853 0.0
C678 C 0.45202 0.37898 0.91823 0.0
C679 C 0.46708 0.40717 0.82846 0.0
C680 C 0.48029 0.41 0.76891 0.0
C681 C 0.46254 0.38203 0.85556 0.0
C682 C 0.48677 0.38749 0.73397 0.0
C683 C 0.4815 0.36254 0.75936 0.0
H684 H 0.19971 0.50982 0.85724 0.0
H685 H 0.16266 0.48376 0.03506 0.0
H686 H 0.1229 0.47271 0.97494 0.0
H687 H 0.0972 0.47579 0.87413 0.0
H688 H 0.13472 0.50081 0.69567 0.0
H689 H 0.17573 0.50663 0.75337 0.0
C690 C 0.18306 0.50117 0.88234 0.0
C691 C 0.18398 0.4977 0.95031 0.0
C692 C 0.16026 0.49497 0.84751 0.0
C693 C 0.16241 0.4864 0.98258 0.0
C694 C 0.13961 0.48032 0.94835 0.0
C695 C 0.11445 0.48211 0.84773 0.0
C696 C 0.11281 0.48821 0.78097 0.0
C697 C 0.13807 0.48533 0.88116 0.0
C698 C 0.1354 0.49602 0.74714 0.0
C699 C 0.15888 0.4995 0.78015 0.0
H700 H 0.97256 0.84399 0.4107 0.0
H701 H 0.01292 0.80423 0.56302 0.0
H702 H 0.00891 0.84213 0.63535 0.0
H703 H 0.99932 0.88875 0.6492 0.0
H704 H 0.96289 0.92956 0.492 0.0
H705 H 0.95943 0.88907 0.42818 0.0
C706 C 0.97979 0.84335 0.4604 0.0
C707 C 0.99294 0.82135 0.48165 0.0
C708 C 0.9783 0.86557 0.50061 0.0
C709 C 0.00273 0.82098 0.54567 0.0
C710 C 0.00052 0.84267 0.58688 0.0
C711 C 0.98997 0.88855 0.60175 0.0
C712 C 0.98132 0.91207 0.57533 0.0
C713 C 0.98911 0.86542 0.5641 0.0
C714 C 0.96969 0.91168 0.51328 0.0
C715 C 0.96783 0.88857 0.47667 0.0
H716 H 0.68732 0.99485 0.49335 0.0
H717 H 0.65296 0.96369 0.31612 0.0
H718 H 0.612 0.95559 0.37229 0.0
H719 H 0.58465 0.96188 0.46848 0.0
H720 H 0.61903 0.99169 0.64707 0.0
H721 H 0.66117 0.99567 0.59401 0.0
C722 C 0.67097 0.98583 0.46753 0.0
C723 C 0.67316 0.97994 0.40068 0.0
C724 C 0.64737 0.98128 0.50016 0.0
C725 C 0.65188 0.96814 0.36776 0.0
C726 C 0.62834 0.96374 0.39968 0.0
C727 C 0.60145 0.96892 0.49596 0.0
C728 C 0.59866 0.97677 0.56132 0.0
C729 C 0.62567 0.97093 0.46534 0.0
C730 C 0.62065 0.98552 0.59666 0.0
C731 C 0.64475 0.98792 0.56626 0.0
H732 H 0.57245 0.64517 0.39036 0.0
H733 H 0.55642 0.69198 0.55967 0.0
H734 H 0.55621 0.65273 0.62853 0.0
H735 H 0.55413 0.60445 0.63677 0.0
H736 H 0.56575 0.55794 0.46407 0.0
H737 H 0.57457 0.59767 0.4004 0.0
C738 C 0.56978 0.64691 0.4427 0.0
C739 C 0.5646 0.6714 0.47008 0.0
C740 C 0.56852 0.62419 0.48111 0.0
C741 C 0.56052 0.67329 0.53769 0.0
C742 C 0.56024 0.65085 0.57687 0.0
C743 C 0.55922 0.60307 0.58558 0.0
C744 C 0.55919 0.57836 0.55497 0.0
C745 C 0.56324 0.62607 0.54864 0.0
C746 C 0.56549 0.57678 0.48847 0.0
C747 C 0.57049 0.59947 0.45206 0.0
H748 H 0.85607 0.50209 0.43824 0.0
H749 H 0.87646 0.58139 0.38033 0.0
H750 H 0.91474 0.58136 0.45064 0.0
H751 H 0.94485 0.55681 0.51907 0.0
H752 H 0.9242 0.47684 0.57229 0.0
H753 H 0.88357 0.4793 0.51394 0.0
C754 C 0.8684 0.51969 0.4425 0.0
C755 C 0.86339 0.5417 0.4041 0.0
C756 C 0.89065 0.51926 0.48142 0.0
C757 C 0.87996 0.56414 0.40922 0.0
C758 C 0.9019 0.56408 0.44917 0.0
C759 C 0.93132 0.54005 0.5185 0.0
C760 C 0.93785 0.51656 0.54929 0.0
C761 C 0.9079 0.54142 0.48389 0.0
C762 C 0.91997 0.49506 0.54824 0.0
C763 C 0.89661 0.49643 0.51501 0.0
loop_
_geom_bond_atom_site_label_1
_geom_bond_atom_site_label_2
_geom_bond_distance
_geom_bond_site_symmetry_2
_ccdc_geom_bond_type
C0 C1 1.384 . S
C0 H13 0.947 . S
C0 C35 1.382 . S
C1 C0 1.384 . S
C1 C2 1.378 . S
C2 C1 1.378 . S
C2 C3 1.378 . S
C2 H14 0.952 . S
C3 C2 1.378 . S
C3 H15 0.950 . S
C3 C34 1.383 . S
H4 C23 0.947 . S
H5 C24 0.946 . S
H6 C26 0.953 . S
H7 C27 0.945 . S
H8 C29 0.952 . S
H9 C30 0.949 . S
H10 C32 0.950 . S
H11 C33 0.948 . S
H12 C35 0.951 . S
H13 C0 0.947 . S
H14 C2 0.952 . S
H15 C3 0.950 . S
N16 C19 1.382 . S
N16 C21 1.363 . S
N17 C19 1.371 1_556 S
N17 C20 1.372 . S
N18 C20 1.361 1_554 S
N18 C21 1.377 . S
C19 N16 1.382 . S
C19 N17 1.371 1_554 S
C19 C22 1.480 1_554 S
C20 N17 1.372 . S
C20 N18 1.361 1_556 S
C20 C28 1.457 . S
C21 N16 1.363 . S
C21 N18 1.377 . S
C21 C34 1.479 . S
C22 C19 1.480 1_556 S
C22 C23 1.383 1_556 S
C22 C27 1.385 . S
C23 H4 0.947 . S
C23 C22 1.383 1_554 S
C23 C24 1.388 . S
C24 H5 0.946 . S
C24 C23 1.388 . S
C24 C25 1.384 1_554 S
C25 C24 1.384 1_556 S
C25 C26 1.377 . S
C26 H6 0.953 . S
C26 C25 1.377 . S
C26 C27 1.369 . S
C27 H7 0.945 . S
C27 C22 1.385 . S
C27 C26 1.369 . S
C28 C20 1.457 . S
C28 C29 1.372 . S
C28 C33 1.364 . S
C29 H8 0.952 . S
C29 C28 1.372 . S
C29 C30 1.389 . S
C30 H9 0.949 . S
C30 C29 1.389 . S
C30 C31 1.387 . S
C31 C30 1.387 . S
C31 C32 1.372 . S
C32 H10 0.950 . S
C32 C31 1.372 . S
C32 C33 1.379 . S
C33 H11 0.948 . S
C33 C28 1.364 . S
C33 C32 1.379 . S
C34 C3 1.383 . S
C34 C21 1.479 . S
C34 C35 1.398 . S
C35 C0 1.382 . S
C35 H12 0.951 . S
C35 C34 1.398 . S
C36 C37 1.384 . S
C36 H49 0.947 . S
C36 C71 1.382 . S
C37 C36 1.384 . S
C37 C38 1.378 . S
C38 C37 1.378 . S
C38 C39 1.378 . S
C38 H50 0.952 . S
C39 C38 1.378 . S
C39 H51 0.945 1_655 S
C39 C70 1.383 . S
H40 C59 0.947 . S
H41 C60 0.946 . S
H42 C62 0.953 . S
H43 C63 0.954 . S
H44 C65 0.952 . S
H45 C66 0.949 . S
H46 C68 0.953 . S
H47 C69 0.948 . S
H48 C71 0.951 . S
H49 C36 0.947 . S
H50 C38 0.952 . S
H51 C39 0.945 1_455 S
N52 C55 1.382 . S
N52 C57 1.363 . S
N53 C55 1.371 . S
N53 C56 1.372 . S
N54 C56 1.361 . S
N54 C57 1.377 . S
C55 N52 1.382 . S
C55 N53 1.371 . S
C55 C58 1.480 . S
C56 N53 1.372 . S
C56 N54 1.361 . S
C56 C64 1.457 . S
C57 N52 1.363 . S
C57 N54 1.377 . S
C57 C70 1.479 . S
C58 C55 1.480 . S
C58 C59 1.383 . S
C58 C63 1.376 1_554 S
C59 H40 0.947 . S
C59 C58 1.383 . S
C59 C60 1.388 . S
C60 H41 0.946 . S
C60 C59 1.388 . S
C60 C61 1.384 . S
C61 C60 1.384 . S
C61 C62 1.377 1_554 S
C62 H42 0.953 . S
C62 C61 1.377 1_556 S
C62 C63 1.372 . S
C63 H43 0.954 . S
C63 C58 1.376 1_556 S
C63 C62 1.372 . S
C64 C56 1.457 . S
C64 C65 1.372 1_554 S
C64 C69 1.364 1_655 S
C65 H44 0.952 . S
C65 C64 1.372 1_556 S
C65 C66 1.389 . S
C66 H45 0.949 . S
C66 C65 1.389 . S
C66 C67 1.387 . S
C67 C66 1.387 . S
C67 C68 1.367 1_655 S
C68 H46 0.953 . S
C68 C67 1.367 1_455 S
C68 C69 1.381 1_556 S
C69 H47 0.948 . S
C69 C64 1.364 1_455 S
C69 C68 1.381 1_554 S
C70 C39 1.383 . S
C70 C57 1.479 . S
C70 C71 1.398 . S
C71 C36 1.382 . S
C71 H48 0.951 . S
C71 C70 1.398 . S
C72 C73 1.384 1_565 S
C72 H85 0.947 . S
C72 C107 1.382 1_565 S
C73 C72 1.384 1_545 S
C73 C74 1.378 . S
C74 C73 1.378 . S
C74 C75 1.378 . S
C74 H86 0.952 . S
C75 C74 1.378 . S
C75 H87 0.950 . S
C75 C106 1.383 . S
H76 C95 0.947 . S
H77 C96 0.957 . S
H78 C98 0.953 . S
H79 C99 0.945 . S
H80 C101 0.947 1_565 S
H81 C102 0.955 . S
H82 C104 0.950 . S
H83 C105 0.948 1_554 S
H84 C107 0.951 1_565 S
H85 C72 0.947 . S
H86 C74 0.952 . S
H87 C75 0.950 . S
N88 C91 1.382 . S
N88 C93 1.363 . S
N89 C91 1.375 . S
N89 C92 1.373 . S
N90 C92 1.361 . S
N90 C93 1.377 . S
C91 N88 1.382 . S
C91 N89 1.375 . S
C91 C94 1.480 . S
C92 N89 1.373 . S
C92 N90 1.361 . S
C92 C100 1.457 1_554 S
C93 N88 1.363 . S
C93 N90 1.377 . S
C93 C106 1.479 . S
C94 C91 1.480 . S
C94 C95 1.383 . S
C94 C99 1.385 1_554 S
C95 H76 0.947 . S
C95 C94 1.383 . S
C95 C96 1.383 1_545 S
C96 H77 0.957 . S
C96 C95 1.383 1_565 S
C96 C97 1.381 1_565 S
C97 C96 1.381 1_545 S
C97 C98 1.377 1_554 S
C98 H78 0.953 . S
C98 C97 1.377 1_556 S
C98 C99 1.369 . S
C99 H79 0.945 . S
C99 C94 1.385 1_556 S
C99 C98 1.369 . S
C100 C92 1.457 1_556 S
C100 C101 1.378 . S
C100 C105 1.364 . S
C101 H80 0.947 1_545 S
C101 C100 1.378 . S
C101 C102 1.388 1_545 S
C102 H81 0.955 . S
C102 C101 1.388 1_565 S
C102 C103 1.382 1_565 S
C103 C102 1.382 1_545 S
C103 C104 1.372 . S
C104 H82 0.950 . S
C104 C103 1.372 . S
C104 C105 1.379 . S
C105 H83 0.948 1_556 S
C105 C100 1.364 . S
C105 C104 1.379 . S
C106 C75 1.383 . S
C106 C93 1.479 . S
C106 C107 1.399 . S
C107 C72 1.382 1_545 S
C107 H84 0.951 1_545 S
C107 C106 1.399 . S
C108 C109 1.384 . S
C108 H121 0.947 . S
C108 C143 1.382 . S
C109 C108 1.384 . S
C109 C110 1.378 . S
C110 C109 1.378 . S
C110 C111 1.378 . S
C110 H122 0.952 . S
C111 C110 1.378 . S
C111 H123 0.950 . S
C111 C142 1.383 . S
H112 C131 0.947 . S
H113 C132 0.946 . S
H114 C134 0.953 . S
H115 C135 0.945 . S
H116 C137 0.952 . S
H117 C138 0.949 . S
H118 C140 0.950 . S
H119 C141 0.948 . S
H120 C143 0.951 1_554 S
H121 C108 0.947 . S
H122 C110 0.952 . S
H123 C111 0.950 . S
N124 C127 1.382 1_556 S
N124 C129 1.363 1_556 S
N125 C127 1.371 . S
N125 C128 1.372 . S
N126 C128 1.361 . S
N126 C129 1.377 . S
C127 N124 1.382 1_554 S
C127 N125 1.371 . S
C127 C130 1.480 . S
C128 N125 1.372 . S
C128 N126 1.361 . S
C128 C136 1.457 . S
C129 N124 1.363 1_554 S
C129 N126 1.377 . S
C129 C142 1.479 1_554 S
C130 C127 1.480 . S
C130 C131 1.383 1_554 S
C130 C135 1.385 . S
C131 H112 0.947 . S
C131 C130 1.383 1_556 S
C131 C132 1.388 . S
C132 H113 0.946 . S
C132 C131 1.388 . S
C132 C133 1.384 . S
C133 C132 1.384 . S
C133 C134 1.377 1_556 S
C134 H114 0.953 . S
C134 C133 1.377 1_554 S
C134 C135 1.369 . S
C135 H115 0.945 . S
C135 C130 1.385 . S
C135 C134 1.369 . S
C136 C128 1.457 . S
C136 C137 1.372 . S
C136 C141 1.364 . S
C137 H116 0.952 . S
C137 C136 1.372 . S
C137 C138 1.389 . S
C138 H117 0.949 . S
C138 C137 1.389 . S
C138 C139 1.387 . S
C139 C138 1.387 . S
C139 C140 1.372 . S
C140 H118 0.950 . S
C140 C139 1.372 . S
C140 C141 1.379 . S
C141 H119 0.948 . S
C141 C136 1.364 . S
C141 C140 1.379 . S
C142 C111 1.383 . S
C142 C129 1.479 1_556 S
C142 C143 1.398 . S
C143 C108 1.382 . S
C143 H120 0.951 1_556 S
C143 C142 1.398 . S
C144 C145 1.384 1_554 S
C144 H157 0.947 . S
C144 C179 1.382 . S
C145 C144 1.384 1_556 S
C145 C146 1.378 1_556 S
C146 C145 1.378 1_554 S
C146 C147 1.378 . S
C146 H158 0.952 1_554 S
C147 C146 1.378 . S
C147 H159 0.950 . S
C147 C178 1.383 . S
H148 C167 0.947 . S
H149 C168 0.946 . S
H150 C170 0.953 . S
H151 C171 0.945 . S
H152 C173 0.952 . S
H153 C174 0.949 . S
H154 C176 0.950 . S
H155 C177 0.948 . S
H156 C179 0.951 . S
H157 C144 0.947 . S
H158 C146 0.952 1_556 S
H159 C147 0.950 . S
N160 C163 1.382 . S
N160 C165 1.363 . S
N161 C163 1.371 . S
N161 C164 1.372 . S
N162 C164 1.361 . S
N162 C165 1.377 . S
C163 N160 1.382 . S
C163 N161 1.371 . S
C163 C166 1.480 . S
C164 N161 1.372 . S
C164 N162 1.361 . S
C164 C172 1.457 . S
C165 N160 1.363 . S
C165 N162 1.377 . S
C165 C178 1.479 . S
C166 C163 1.480 . S
C166 C167 1.383 . S
C166 C171 1.385 . S
C167 H148 0.947 . S
C167 C166 1.383 . S
C167 C168 1.388 . S
C168 H149 0.946 . S
C168 C167 1.388 . S
C168 C169 1.384 . S
C169 C168 1.384 . S
C169 C170 1.377 . S
C170 H150 0.953 . S
C170 C169 1.377 . S
C170 C171 1.369 . S
C171 H151 0.945 . S
C171 C166 1.385 . S
C171 C170 1.369 . S
C172 C164 1.457 . S
C172 C173 1.372 . S
C172 C177 1.364 . S
C173 H152 0.952 . S
C173 C172 1.372 . S
C173 C174 1.389 . S
C174 H153 0.949 . S
C174 C173 1.389 . S
C174 C175 1.387 . S
C175 C174 1.387 . S
C175 C176 1.372 . S
C176 H154 0.950 . S
C176 C175 1.372 . S
C176 C177 1.379 . S
C177 H155 0.948 . S
C177 C172 1.364 . S
C177 C176 1.379 . S
C178 C147 1.383 . S
C178 C165 1.479 . S
C178 C179 1.398 . S
C179 C144 1.382 . S
C179 H156 0.951 . S
C179 C178 1.398 . S
C180 C181 1.384 . S
C180 H193 0.947 . S
C180 C215 1.382 . S
C181 C180 1.384 . S
C181 C182 1.378 . S
C182 C181 1.378 . S
C182 C183 1.378 . S
C182 H194 0.952 . S
C183 C182 1.378 . S
C183 H195 0.950 . S
C183 C214 1.383 . S
H184 C203 0.947 . S
H185 C204 0.946 . S
H186 C206 0.953 . S
H187 C207 0.945 . S
H188 C209 0.952 . S
H189 C210 0.949 . S
H190 C212 0.950 . S
H191 C213 0.948 . S
H192 C215 0.951 . S
H193 C180 0.947 . S
H194 C182 0.952 . S
H195 C183 0.950 . S
N196 C199 1.382 . S
N196 C201 1.363 . S
N197 C199 1.371 . S
N197 C200 1.372 . S
N198 C200 1.361 . S
N198 C201 1.377 . S
C199 N196 1.382 . S
C199 N197 1.371 . S
C199 C202 1.480 . S
C200 N197 1.372 . S
C200 N198 1.361 . S
C200 C208 1.457 . S
C201 N196 1.363 . S
C201 N198 1.377 . S
C201 C214 1.479 . S
C202 C199 1.480 . S
C202 C203 1.383 . S
C202 C207 1.385 . S
C203 H184 0.947 . S
C203 C202 1.383 . S
C203 C204 1.388 . S
C204 H185 0.946 . S
C204 C203 1.388 . S
C204 C205 1.384 . S
C205 C204 1.384 . S
C205 C206 1.377 . S
C206 H186 0.953 . S
C206 C205 1.377 . S
C206 C207 1.369 . S
C207 H187 0.945 . S
C207 C202 1.385 . S
C207 C206 1.369 . S
C208 C200 1.457 . S
C208 C209 1.372 . S
C208 C213 1.364 . S
C209 H188 0.952 . S
C209 C208 1.372 . S
C209 C210 1.389 . S
C210 H189 0.949 . S
C210 C209 1.389 . S
C210 C211 1.387 . S
C211 C210 1.387 . S
C211 C212 1.372 . S
C212 H190 0.950 . S
C212 C211 1.372 . S
C212 C213 1.379 . S
C213 H191 0.948 . S
C213 C208 1.364 . S
C213 C212 1.379 . S
C214 C183 1.383 . S
C214 C201 1.479 . S
C214 C215 1.398 . S
C215 C180 1.382 . S
C215 H192 0.951 . S
C215 C214 1.398 . S
C216 C217 1.384 . S
C216 H229 0.947 1_545 S
C216 C251 1.382 . S
C217 C216 1.384 . S
C217 C218 1.378 . S
C218 C217 1.378 . S
C218 C219 1.378 . S
C218 H230 0.952 . S
C219 C218 1.378 . S
C219 H231 0.950 . S
C219 C250 1.383 . S
H220 C239 0.947 . S
H221 C240 0.952 . S
H222 C242 0.953 . S
H223 C243 0.945 . S
H224 C245 0.948 1_565 S
H225 C246 0.953 . S
H226 C248 0.950 . S
H227 C249 0.948 . S
H228 C251 0.949 1_565 S
H229 C216 0.947 1_565 S
H230 C218 0.952 . S
H231 C219 0.950 . S
N232 C235 1.382 . S
N232 C237 1.363 . S
N233 C235 1.371 . S
N233 C236 1.372 . S
N234 C236 1.361 . S
N234 C237 1.377 . S
C235 N232 1.382 . S
C235 N233 1.371 . S
C235 C238 1.480 . S
C236 N233 1.372 . S
C236 N234 1.361 . S
C236 C244 1.457 . S
C237 N232 1.363 . S
C237 N234 1.377 . S
C237 C250 1.479 . S
C238 C235 1.480 . S
C238 C239 1.383 . S
C238 C243 1.385 . S
C239 H220 0.947 . S
C239 C238 1.383 . S
C239 C240 1.386 1_545 S
C240 H221 0.952 . S
C240 C239 1.386 1_565 S
C240 C241 1.381 1_565 S
C241 C240 1.381 1_545 S
C241 C242 1.377 . S
C242 H222 0.953 . S
C242 C241 1.377 . S
C242 C243 1.369 . S
C243 H223 0.945 . S
C243 C238 1.385 . S
C243 C242 1.369 . S
C244 C236 1.457 . S
C244 C245 1.380 . S
C244 C249 1.364 . S
C245 H224 0.948 1_545 S
C245 C244 1.380 . S
C245 C246 1.385 1_545 S
C246 H225 0.953 . S
C246 C245 1.385 1_565 S
C246 C247 1.385 1_565 S
C247 C246 1.385 1_545 S
C247 C248 1.372 . S
C248 H226 0.950 . S
C248 C247 1.372 . S
C248 C249 1.379 . S
C249 H227 0.948 . S
C249 C244 1.364 . S
C249 C248 1.379 . S
C250 C219 1.383 . S
C250 C237 1.479 . S
C250 C251 1.401 . S
C251 C216 1.382 . S
C251 H228 0.949 1_545 S
C251 C250 1.401 . S
C252 C253 1.384 . S
C252 H265 0.947 . S
C252 C287 1.382 . S
C253 C252 1.384 . S
C253 C254 1.378 . S
C254 C253 1.378 . S
C254 C255 1.378 . S
C254 H266 0.952 . S
C255 C254 1.378 . S
C255 H267 0.950 . S
C255 C286 1.383 . S
H256 C275 0.947 . S
H257 C276 0.946 . S
H258 C278 0.953 . S
H259 C279 0.945 . S
H260 C281 0.952 . S
H261 C282 0.949 1_556 S
H262 C284 0.950 . S
H263 C285 0.948 . S
H264 C287 0.951 . S
H265 C252 0.947 . S
H266 C254 0.952 . S
H267 C255 0.950 . S
N268 C271 1.382 . S
N268 C273 1.363 . S
N269 C271 1.371 . S
N269 C272 1.372 . S
N270 C272 1.361 . S
N270 C273 1.377 . S
C271 N268 1.382 . S
C271 N269 1.371 . S
C271 C274 1.480 . S
C272 N269 1.372 . S
C272 N270 1.361 . S
C272 C280 1.457 . S
C273 N268 1.363 . S
C273 N270 1.377 . S
C273 C286 1.479 . S
C274 C271 1.480 . S
C274 C275 1.383 . S
C274 C279 1.385 . S
C275 H256 0.947 . S
C275 C274 1.383 . S
C275 C276 1.388 . S
C276 H257 0.946 . S
C276 C275 1.388 . S
C276 C277 1.384 . S
C277 C276 1.384 . S
C277 C278 1.377 . S
C278 H258 0.953 . S
C278 C277 1.377 . S
C278 C279 1.369 . S
C279 H259 0.945 . S
C279 C274 1.385 . S
C279 C278 1.369 . S
C280 C272 1.457 . S
C280 C281 1.372 . S
C280 C285 1.364 . S
C281 H260 0.952 . S
C281 C280 1.372 . S
C281 C282 1.389 . S
C282 H261 0.949 1_554 S
C282 C281 1.389 . S
C282 C283 1.387 1_554 S
C283 C282 1.387 1_556 S
C283 C284 1.372 1_556 S
C284 H262 0.950 . S
C284 C283 1.372 1_554 S
C284 C285 1.379 . S
C285 H263 0.948 . S
C285 C280 1.364 . S
C285 C284 1.379 . S
C286 C255 1.383 . S
C286 C273 1.479 . S
C286 C287 1.398 . S
C287 C252 1.382 . S
C287 H264 0.951 . S
C287 C286 1.398 . S
O288 Zn289 1.952 . S
O288 C304 1.236 . S
Zn289 O288 1.952 . S
Zn289 O290 1.950 . S
Zn289 O296 1.919 1_565 S
Zn289 O301 1.924 . S
O290 Zn289 1.950 . S
O290 Zn291 1.901 1_565 S
O290 Zn292 1.953 . S
O290 Zn293 1.963 . S
Zn291 O290 1.901 1_545 S
Zn291 O294 1.933 1_455 S
Zn291 O297 1.941 . S
Zn291 O298 1.965 . S
Zn292 O290 1.953 . S
Zn292 O299 1.938 1_565 S
Zn292 O300 1.906 . S
Zn292 O310 1.953 . S
Zn293 O290 1.963 . S
Zn293 O295 1.932 1_455 S
Zn293 O302 1.977 1_455 S
Zn293 O303 1.910 . S
O294 Zn291 1.933 1_655 S
O294 C305 1.226 . S
O295 Zn293 1.932 1_655 S
O295 C305 1.307 1_565 S
O296 Zn289 1.919 1_545 S
O296 C307 1.253 . S
O297 Zn291 1.941 . S
O297 C307 1.283 . S
O298 Zn291 1.965 . S
O298 C306 1.303 . S
O299 Zn292 1.938 1_545 S
O299 C306 1.247 . S
O300 Zn292 1.906 . S
O300 C308 1.304 . S
O301 Zn289 1.924 . S
O301 C309 1.311 . S
O302 Zn293 1.977 1_655 S
O302 C308 1.272 1_655 S
O303 Zn293 1.910 . S
O303 C309 1.231 . S
C304 O288 1.236 . S
C304 O310 1.298 . S
C305 O294 1.226 . S
C305 O295 1.307 1_545 S
C306 O298 1.303 . S
C306 O299 1.247 . S
C307 O296 1.253 . S
C307 O297 1.283 . S
C308 O300 1.304 . S
C308 O302 1.272 1_455 S
C309 O301 1.311 . S
C309 O303 1.231 . S
O310 Zn292 1.953 . S
O310 C304 1.298 . S
O311 Zn312 1.953 . S
O311 C327 1.225 . S
Zn312 O311 1.953 . S
Zn312 O313 1.949 . S
Zn312 O319 1.919 . S
Zn312 O324 1.924 . S
O313 Zn312 1.949 . S
O313 Zn314 1.923 1_545 S
O313 Zn315 1.950 . S
O313 Zn316 1.945 1_545 S
Zn314 O313 1.923 1_565 S
Zn314 O317 1.933 . S
Zn314 O320 1.941 . S
Zn314 O321 1.965 . S
Zn315 O313 1.950 . S
Zn315 O322 1.938 . S
Zn315 O323 1.887 1_545 S
Zn315 O333 1.953 . S
Zn316 O313 1.945 1_565 S
Zn316 O318 1.932 . S
Zn316 O325 1.977 . S
Zn316 O326 1.910 1_565 S
O317 Zn314 1.933 . S
O317 C328 1.226 . S
O318 Zn316 1.932 . S
O318 C328 1.307 . S
O319 Zn312 1.919 . S
O319 C330 1.253 . S
O320 Zn314 1.941 . S
O320 C330 1.283 1_565 S
O321 Zn314 1.965 . S
O321 C329 1.303 . S
O322 Zn315 1.938 . S
O322 C329 1.247 1_545 S
O323 Zn315 1.887 1_565 S
O323 C331 1.332 . S
O324 Zn312 1.924 . S
O324 C332 1.311 . S
O325 Zn316 1.977 . S
O325 C331 1.272 . S
O326 Zn316 1.910 1_545 S
O326 C332 1.231 . S
C327 O311 1.225 . S
C327 O333 1.298 . S
C328 O317 1.226 . S
C328 O318 1.307 . S
C329 O321 1.303 . S
C329 O322 1.247 1_565 S
C330 O319 1.253 . S
C330 O320 1.283 1_545 S
C331 O323 1.332 . S
C331 O325 1.272 . S
C332 O324 1.311 . S
C332 O326 1.231 . S
O333 Zn315 1.953 . S
O333 C327 1.298 . S
O334 Zn335 1.953 . S
O334 C350 1.225 . S
Zn335 O334 1.953 . S
Zn335 O336 1.949 . S
Zn335 O342 1.919 . S
Zn335 O347 1.924 . S
O336 Zn335 1.949 . S
O336 Zn337 1.923 . S
O336 Zn338 1.950 . S
O336 Zn339 1.945 . S
Zn337 O336 1.923 . S
Zn337 O340 1.933 . S
Zn337 O343 1.941 . S
Zn337 O344 1.965 . S
Zn338 O336 1.950 . S
Zn338 O345 1.938 . S
Zn338 O346 1.906 . S
Zn338 O356 1.953 . S
Zn339 O336 1.945 . S
Zn339 O341 1.932 . S
Zn339 O348 1.977 . S
Zn339 O349 1.910 . S
O340 Zn337 1.933 . S
O340 C351 1.226 . S
O341 Zn339 1.932 . S
O341 C351 1.307 . S
O342 Zn335 1.919 . S
O342 C353 1.253 . S
O343 Zn337 1.941 . S
O343 C353 1.283 . S
O344 Zn337 1.965 . S
O344 C352 1.303 . S
O345 Zn338 1.938 . S
O345 C352 1.247 . S
O346 Zn338 1.906 . S
O346 C354 1.304 . S
O347 Zn335 1.924 . S
O347 C355 1.311 . S
O348 Zn339 1.977 . S
O348 C354 1.272 . S
O349 Zn339 1.910 . S
O349 C355 1.231 . S
C350 O334 1.225 . S
C350 O356 1.298 . S
C351 O340 1.226 . S
C351 O341 1.307 . S
C352 O344 1.303 . S
C352 O345 1.247 . S
C353 O342 1.253 . S
C353 O343 1.283 . S
C354 O346 1.304 . S
C354 O348 1.272 . S
C355 O347 1.311 . S
C355 O349 1.231 . S
O356 Zn338 1.953 . S
O356 C350 1.298 . S
O357 Zn358 1.953 1_655 S
O357 C373 1.225 . S
Zn358 O357 1.953 1_455 S
Zn358 O359 1.949 . S
Zn358 O365 1.919 . S
Zn358 O370 1.924 . S
O359 Zn358 1.949 . S
O359 Zn360 1.923 . S
O359 Zn361 1.950 1_455 S
O359 Zn362 1.945 . S
Zn360 O359 1.923 . S
Zn360 O363 1.933 . S
Zn360 O366 1.936 1_455 S
Zn360 O367 1.965 1_455 S
Zn361 O359 1.950 1_655 S
Zn361 O368 1.938 . S
Zn361 O369 1.906 1_655 S
Zn361 O379 1.953 . S
Zn362 O359 1.945 . S
Zn362 O364 1.932 . S
Zn362 O371 1.977 . S
Zn362 O372 1.910 . S
O363 Zn360 1.933 . S
O363 C374 1.226 . S
O364 Zn362 1.932 . S
O364 C374 1.307 . S
O365 Zn358 1.919 . S
O365 C376 1.253 . S
O366 Zn360 1.936 1_655 S
O366 C376 1.278 1_655 S
O367 Zn360 1.965 1_655 S
O367 C375 1.303 . S
O368 Zn361 1.938 . S
O368 C375 1.247 . S
O369 Zn361 1.906 1_455 S
O369 C377 1.304 . S
O370 Zn358 1.924 . S
O370 C378 1.311 . S
O371 Zn362 1.977 . S
O371 C377 1.272 . S
O372 Zn362 1.910 . S
O372 C378 1.231 . S
C373 O357 1.225 . S
C373 O379 1.298 . S
C374 O363 1.226 . S
C374 O364 1.307 . S
C375 O367 1.303 . S
C375 O368 1.247 . S
C376 O365 1.253 . S
C376 O366 1.278 1_455 S
C377 O369 1.304 . S
C377 O371 1.272 . S
C378 O370 1.311 . S
C378 O372 1.231 . S
O379 Zn361 1.953 . S
O379 C373 1.298 . S
H380 C386 0.930 . S
H381 C389 0.930 . S
H382 C390 0.930 . S
H383 C391 0.927 1_545 S
H384 C394 0.930 . S
H385 C395 0.930 . S
C386 H380 0.930 . S
C386 C387 1.352 1_565 S
C386 C388 1.415 . S
C387 C386 1.352 1_545 S
C387 C389 1.422 . S
C388 C386 1.415 . S
C388 C393 1.422 1_565 S
C388 C395 1.409 . S
C389 H381 0.930 . S
C389 C387 1.422 . S
C389 C390 1.362 . S
C390 H382 0.930 . S
C390 C389 1.362 . S
C390 C393 1.413 . S
C391 H383 0.927 1_565 S
C391 C392 1.358 . S
C391 C393 1.415 1_565 S
C392 C391 1.358 . S
C392 C394 1.419 . S
C393 C388 1.422 1_545 S
C393 C390 1.413 . S
C393 C391 1.415 1_545 S
C394 H384 0.930 . S
C394 C392 1.419 . S
C394 C395 1.362 . S
C395 H385 0.930 . S
C395 C388 1.409 . S
C395 C394 1.362 . S
H396 C402 0.930 . S
H397 C405 0.930 . S
H398 C406 0.930 . S
H399 C407 0.930 . S
H400 C410 0.930 . S
H401 C411 0.930 . S
C402 H396 0.930 . S
C402 C403 1.355 . S
C402 C404 1.415 . S
C403 C402 1.355 . S
C403 C405 1.419 . S
C404 C402 1.415 . S
C404 C409 1.425 . S
C404 C411 1.409 . S
C405 H397 0.930 . S
C405 C403 1.419 . S
C405 C406 1.362 . S
C406 H398 0.930 . S
C406 C405 1.362 . S
C406 C409 1.409 . S
C407 H399 0.930 . S
C407 C408 1.355 . S
C407 C409 1.415 . S
C408 C407 1.355 . S
C408 C410 1.419 . S
C409 C404 1.425 . S
C409 C406 1.409 . S
C409 C407 1.415 . S
C410 H400 0.930 . S
C410 C408 1.419 . S
C410 C411 1.362 . S
C411 H401 0.930 . S
C411 C404 1.409 . S
C411 C410 1.362 . S
H412 C418 0.930 . S
H413 C421 0.930 . S
H414 C422 0.930 . S
H415 C423 0.930 . S
H416 C426 0.930 . S
H417 C427 0.930 . S
C418 H412 0.930 . S
C418 C419 1.355 . S
C418 C420 1.415 . S
C419 C418 1.355 . S
C419 C421 1.419 . S
C420 C418 1.415 . S
C420 C425 1.425 . S
C420 C427 1.409 . S
C421 H413 0.930 . S
C421 C419 1.419 . S
C421 C422 1.362 . S
C422 H414 0.930 . S
C422 C421 1.362 . S
C422 C425 1.409 . S
C423 H415 0.930 . S
C423 C424 1.355 . S
C423 C425 1.415 . S
C424 C423 1.355 . S
C424 C426 1.419 . S
C425 C420 1.425 . S
C425 C422 1.409 . S
C425 C423 1.415 . S
C426 H416 0.930 . S
C426 C424 1.419 . S
C426 C427 1.362 . S
C427 H417 0.930 . S
C427 C420 1.409 . S
C427 C426 1.362 . S
H428 C434 0.930 . S
H429 C437 0.930 . S
H430 C438 0.930 . S
H431 C439 0.930 . S
H432 C442 0.930 . S
H433 C443 0.930 . S
C434 H428 0.930 . S
C434 C435 1.355 . S
C434 C436 1.415 . S
C435 C434 1.355 . S
C435 C437 1.419 . S
C436 C434 1.415 . S
C436 C441 1.425 . S
C436 C443 1.409 . S
C437 H429 0.930 . S
C437 C435 1.419 . S
C437 C438 1.362 . S
C438 H430 0.930 . S
C438 C437 1.362 . S
C438 C441 1.409 . S
C439 H431 0.930 . S
C439 C440 1.355 . S
C439 C441 1.415 . S
C440 C439 1.355 . S
C440 C442 1.419 . S
C441 C436 1.425 . S
C441 C438 1.409 . S
C441 C439 1.415 . S
C442 H432 0.930 . S
C442 C440 1.419 . S
C442 C443 1.362 . S
C443 H433 0.930 . S
C443 C436 1.409 . S
C443 C442 1.362 . S
H444 C450 0.930 . S
H445 C453 0.930 . S
H446 C454 0.930 . S
H447 C455 0.930 . S
H448 C458 0.930 . S
H449 C459 0.930 . S
C450 H444 0.930 . S
C450 C451 1.331 1_545 S
C450 C452 1.415 . S
C451 C450 1.331 1_565 S
C451 C453 1.448 . S
C452 C450 1.415 . S
C452 C457 1.425 1_545 S
C452 C459 1.409 . S
C453 H445 0.930 . S
C453 C451 1.448 . S
C453 C454 1.362 . S
C454 H446 0.930 . S
C454 C453 1.362 . S
C454 C457 1.409 . S
C455 H447 0.930 . S
C455 C456 1.355 1_565 S
C455 C457 1.415 . S
C456 C455 1.355 1_545 S
C456 C458 1.419 . S
C457 C452 1.425 1_565 S
C457 C454 1.409 . S
C457 C455 1.415 . S
C458 H448 0.930 . S
C458 C456 1.419 . S
C458 C459 1.362 . S
C459 H449 0.930 . S
C459 C452 1.409 . S
C459 C458 1.362 . S
H460 C466 0.930 . S
H461 C469 0.930 1_554 S
H462 C470 0.930 . S
H463 C471 0.930 . S
H464 C474 0.930 . S
H465 C475 0.930 . S
C466 H460 0.930 . S
C466 C467 1.355 . S
C466 C468 1.415 . S
C467 C466 1.355 . S
C467 C469 1.419 . S
C468 C466 1.415 . S
C468 C473 1.425 . S
C468 C475 1.409 . S
C469 H461 0.930 1_556 S
C469 C467 1.419 . S
C469 C470 1.362 . S
C470 H462 0.930 . S
C470 C469 1.362 . S
C470 C473 1.409 . S
C471 H463 0.930 . S
C471 C472 1.355 . S
C471 C473 1.415 . S
C472 C471 1.355 . S
C472 C474 1.419 . S
C473 C468 1.425 . S
C473 C470 1.409 . S
C473 C471 1.415 . S
C474 H464 0.930 . S
C474 C472 1.419 . S
C474 C475 1.362 . S
C475 H465 0.930 . S
C475 C468 1.409 . S
C475 C474 1.362 . S
H476 C482 0.930 . S
H477 C485 0.930 . S
H478 C486 0.930 . S
H479 C487 0.930 . S
H480 C490 0.930 . S
H481 C491 0.930 . S
C482 H476 0.930 . S
C482 C483 1.355 . S
C482 C484 1.415 . S
C483 C482 1.355 . S
C483 C485 1.419 . S
C484 C482 1.415 . S
C484 C489 1.425 . S
C484 C491 1.409 . S
C485 H477 0.930 . S
C485 C483 1.419 . S
C485 C486 1.362 . S
C486 H478 0.930 . S
C486 C485 1.362 . S
C486 C489 1.409 . S
C487 H479 0.930 . S
C487 C488 1.355 . S
C487 C489 1.415 . S
C488 C487 1.355 . S
C488 C490 1.419 . S
C489 C484 1.425 . S
C489 C486 1.409 . S
C489 C487 1.415 . S
C490 H480 0.930 . S
C490 C488 1.419 . S
C490 C491 1.362 . S
C491 H481 0.930 . S
C491 C484 1.409 . S
C491 C490 1.362 . S
H492 C498 0.930 . S
H493 C501 0.930 1_554 S
H494 C502 0.930 . S
H495 C503 0.930 . S
H496 C506 0.930 . S
H497 C507 0.930 . S
C498 H492 0.930 . S
C498 C499 1.355 1_455 S
C498 C500 1.415 . S
C499 C498 1.355 1_655 S
C499 C501 1.419 . S
C500 C498 1.415 . S
C500 C505 1.425 1_455 S
C500 C507 1.409 . S
C501 H493 0.930 1_556 S
C501 C499 1.419 . S
C501 C502 1.362 . S
C502 H494 0.930 . S
C502 C501 1.362 . S
C502 C505 1.409 . S
C503 H495 0.930 . S
C503 C504 1.355 1_655 S
C503 C505 1.415 . S
C504 C503 1.355 1_455 S
C504 C506 1.419 . S
C505 C500 1.425 1_655 S
C505 C502 1.409 . S
C505 C503 1.415 . S
C506 H496 0.930 . S
C506 C504 1.419 . S
C506 C507 1.362 . S
C507 H497 0.930 . S
C507 C500 1.409 . S
C507 C506 1.362 . S
H508 C514 0.930 . S
H509 C517 0.930 . S
H510 C518 0.930 . S
H511 C519 0.930 . S
H512 C522 0.930 . S
H513 C523 0.930 . S
C514 H508 0.930 . S
C514 C515 1.355 . S
C514 C516 1.415 . S
C515 C514 1.355 . S
C515 C517 1.419 . S
C516 C514 1.415 . S
C516 C521 1.425 . S
C516 C523 1.409 . S
C517 H509 0.930 . S
C517 C515 1.419 . S
C517 C518 1.362 . S
C518 H510 0.930 . S
C518 C517 1.362 . S
C518 C521 1.409 . S
C519 H511 0.930 . S
C519 C520 1.355 . S
C519 C521 1.415 . S
C520 C519 1.355 . S
C520 C522 1.419 . S
C521 C516 1.425 . S
C521 C518 1.409 . S
C521 C519 1.415 . S
C522 H512 0.930 . S
C522 C520 1.419 . S
C522 C523 1.362 . S
C523 H513 0.930 . S
C523 C516 1.409 . S
C523 C522 1.362 . S
H524 C530 0.930 . S
H525 C533 0.930 . S
H526 C534 0.930 . S
H527 C535 0.930 . S
H528 C538 0.930 . S
H529 C539 0.930 . S
C530 H524 0.930 . S
C530 C531 1.355 1_565 S
C530 C532 1.415 . S
C531 C530 1.355 1_545 S
C531 C533 1.419 . S
C532 C530 1.415 . S
C532 C537 1.425 1_565 S
C532 C539 1.409 . S
C533 H525 0.930 . S
C533 C531 1.419 . S
C533 C534 1.362 . S
C534 H526 0.930 . S
C534 C533 1.362 . S
C534 C537 1.409 . S
C535 H527 0.930 . S
C535 C536 1.355 1_545 S
C535 C537 1.415 . S
C536 C535 1.355 1_565 S
C536 C538 1.419 . S
C537 C532 1.425 1_545 S
C537 C534 1.409 . S
C537 C535 1.415 . S
C538 H528 0.930 . S
C538 C536 1.419 . S
C538 C539 1.362 . S
C539 H529 0.930 . S
C539 C532 1.409 . S
C539 C538 1.362 . S
H540 C546 0.930 . S
H541 C549 0.930 . S
H542 C550 0.930 . S
H543 C551 0.930 . S
H544 C554 0.930 . S
H545 C555 0.930 . S
C546 H540 0.930 . S
C546 C547 1.355 . S
C546 C548 1.415 . S
C547 C546 1.355 . S
C547 C549 1.419 . S
C548 C546 1.415 . S
C548 C553 1.425 . S
C548 C555 1.409 . S
C549 H541 0.930 . S
C549 C547 1.419 . S
C549 C550 1.362 . S
C550 H542 0.930 . S
C550 C549 1.362 . S
C550 C553 1.409 . S
C551 H543 0.930 . S
C551 C552 1.355 . S
C551 C553 1.415 . S
C552 C551 1.355 . S
C552 C554 1.419 . S
C553 C548 1.425 . S
C553 C550 1.409 . S
C553 C551 1.415 . S
C554 H544 0.930 . S
C554 C552 1.419 . S
C554 C555 1.362 . S
C555 H545 0.930 . S
C555 C548 1.409 . S
C555 C554 1.362 . S
H556 C562 0.930 . S
H557 C565 0.930 . S
H558 C566 0.930 . S
H559 C567 0.930 . S
H560 C570 0.930 . S
H561 C571 0.930 . S
C562 H556 0.930 . S
C562 C563 1.355 . S
C562 C564 1.415 . S
C563 C562 1.355 . S
C563 C565 1.419 . S
C564 C562 1.415 . S
C564 C569 1.425 . S
C564 C571 1.409 . S
C565 H557 0.930 . S
C565 C563 1.419 . S
C565 C566 1.362 . S
C566 H558 0.930 . S
C566 C565 1.362 . S
C566 C569 1.409 . S
C567 H559 0.930 . S
C567 C568 1.355 . S
C567 C569 1.415 . S
C568 C567 1.355 . S
C568 C570 1.419 . S
C569 C564 1.425 . S
C569 C566 1.409 . S
C569 C567 1.415 . S
C570 H560 0.930 . S
C570 C568 1.419 . S
C570 C571 1.362 . S
C571 H561 0.930 . S
C571 C564 1.409 . S
C571 C570 1.362 . S
H572 C578 0.930 . S
H573 C581 0.930 . S
H574 C582 0.930 . S
H575 C583 0.930 . S
H576 C586 0.930 . S
H577 C587 0.903 1_655 S
C578 H572 0.930 . S
C578 C579 1.355 . S
C578 C580 1.415 1_655 S
C579 C578 1.355 . S
C579 C581 1.419 1_655 S
C580 C578 1.415 1_455 S
C580 C585 1.425 . S
C580 C587 1.409 . S
C581 H573 0.930 . S
C581 C579 1.419 1_455 S
C581 C582 1.362 . S
C582 H574 0.930 . S
C582 C581 1.362 . S
C582 C585 1.409 . S
C583 H575 0.930 . S
C583 C584 1.355 . S
C583 C585 1.415 . S
C584 C583 1.355 . S
C584 C586 1.419 . S
C585 C580 1.425 . S
C585 C582 1.409 . S
C585 C583 1.415 . S
C586 H576 0.930 . S
C586 C584 1.419 . S
C586 C587 1.362 . S
C587 H577 0.903 1_455 S
C587 C580 1.409 . S
C587 C586 1.362 . S
H588 C594 0.930 . S
H589 C597 0.930 . S
H590 C598 0.930 . S
H591 C599 0.930 . S
H592 C602 0.930 . S
H593 C603 0.930 . S
C594 H588 0.930 . S
C594 C595 1.355 1_545 S
C594 C596 1.415 . S
C595 C594 1.355 1_565 S
C595 C597 1.419 . S
C596 C594 1.415 . S
C596 C601 1.425 . S
C596 C603 1.409 . S
C597 H589 0.930 . S
C597 C595 1.419 . S
C597 C598 1.362 . S
C598 H590 0.930 . S
C598 C597 1.362 . S
C598 C601 1.409 1_565 S
C599 H591 0.930 . S
C599 C600 1.355 . S
C599 C601 1.415 . S
C600 C599 1.355 . S
C600 C602 1.419 . S
C601 C596 1.425 . S
C601 C598 1.409 1_545 S
C601 C599 1.415 . S
C602 H592 0.930 . S
C602 C600 1.419 . S
C602 C603 1.362 . S
C603 H593 0.930 . S
C603 C596 1.409 . S
C603 C602 1.362 . S
H604 C610 0.930 . S
H605 C613 0.930 . S
H606 C614 0.930 . S
H607 C615 0.930 . S
H608 C618 0.930 . S
H609 C619 0.930 . S
C610 H604 0.930 . S
C610 C611 1.355 . S
C610 C612 1.415 . S
C611 C610 1.355 . S
C611 C613 1.419 . S
C612 C610 1.415 . S
C612 C617 1.425 . S
C612 C619 1.409 . S
C613 H605 0.930 . S
C613 C611 1.419 . S
C613 C614 1.362 . S
C614 H606 0.930 . S
C614 C613 1.362 . S
C614 C617 1.409 . S
C615 H607 0.930 . S
C615 C616 1.355 . S
C615 C617 1.415 . S
C616 C615 1.355 . S
C616 C618 1.419 . S
C617 C612 1.425 . S
C617 C614 1.409 . S
C617 C615 1.415 . S
C618 H608 0.930 . S
C618 C616 1.419 . S
C618 C619 1.362 . S
C619 H609 0.930 . S
C619 C612 1.409 . S
C619 C618 1.362 . S
H620 C626 0.930 . S
H621 C629 0.930 . S
H622 C630 0.930 . S
H623 C631 0.930 . S
H624 C634 0.930 . S
H625 C635 0.930 . S
C626 H620 0.930 . S
C626 C627 1.355 . S
C626 C628 1.415 . S
C627 C626 1.355 . S
C627 C629 1.419 . S
C628 C626 1.415 . S
C628 C633 1.425 . S
C628 C635 1.409 . S
C629 H621 0.930 . S
C629 C627 1.419 . S
C629 C630 1.362 . S
C630 H622 0.930 . S
C630 C629 1.362 . S
C630 C633 1.409 . S
C631 H623 0.930 . S
C631 C632 1.355 . S
C631 C633 1.415 . S
C632 C631 1.355 . S
C632 C634 1.419 . S
C633 C628 1.425 . S
C633 C630 1.409 . S
C633 C631 1.415 . S
C634 H624 0.930 . S
C634 C632 1.419 . S
C634 C635 1.362 . S
C635 H625 0.930 . S
C635 C628 1.409 . S
C635 C634 1.362 . S
H636 C642 0.930 . S
H637 C645 0.930 . S
H638 C646 0.930 . S
H639 C647 0.930 . S
H640 C650 0.930 . S
H641 C651 0.923 1_554 S
C642 H636 0.930 . S
C642 C643 1.355 . S
C642 C644 1.415 1_554 S
C643 C642 1.355 . S
C643 C645 1.419 1_554 S
C644 C642 1.415 1_556 S
C644 C649 1.425 . S
C644 C651 1.409 . S
C645 H637 0.930 . S
C645 C643 1.419 1_556 S
C645 C646 1.362 . S
C646 H638 0.930 . S
C646 C645 1.362 . S
C646 C649 1.409 . S
C647 H639 0.930 . S
C647 C648 1.355 . S
C647 C649 1.415 . S
C648 C647 1.355 . S
C648 C650 1.419 . S
C649 C644 1.425 . S
C649 C646 1.409 . S
C649 C647 1.415 . S
C650 H640 0.930 . S
C650 C648 1.419 . S
C650 C651 1.362 . S
C651 H641 0.923 1_556 S
C651 C644 1.409 . S
C651 C650 1.362 . S
H652 C658 0.930 . S
H653 C661 0.930 1_554 S
H654 C662 0.930 . S
H655 C663 0.930 . S
H656 C666 0.930 . S
H657 C667 0.930 . S
C658 H652 0.930 . S
C658 C659 1.355 1_565 S
C658 C660 1.415 . S
C659 C658 1.355 1_545 S
C659 C661 1.419 . S
C660 C658 1.415 . S
C660 C665 1.425 1_565 S
C660 C667 1.409 . S
C661 H653 0.930 1_556 S
C661 C659 1.419 . S
C661 C662 1.362 . S
C662 H654 0.930 . S
C662 C661 1.362 . S
C662 C665 1.409 . S
C663 H655 0.930 . S
C663 C664 1.355 1_545 S
C663 C665 1.415 . S
C664 C663 1.355 1_565 S
C664 C666 1.419 . S
C665 C660 1.425 1_545 S
C665 C662 1.409 . S
C665 C663 1.415 . S
C666 H656 0.930 . S
C666 C664 1.419 . S
C666 C667 1.362 . S
C667 H657 0.930 . S
C667 C660 1.409 . S
C667 C666 1.362 . S
H668 C674 0.930 . S
H669 C677 0.930 . S
H670 C678 0.930 . S
H671 C679 0.930 . S
H672 C682 0.930 . S
H673 C683 0.930 . S
C674 H668 0.930 . S
C674 C675 1.355 . S
C674 C676 1.415 . S
C675 C674 1.355 . S
C675 C677 1.419 . S
C676 C674 1.415 . S
C676 C681 1.425 . S
C676 C683 1.409 . S
C677 H669 0.930 . S
C677 C675 1.419 . S
C677 C678 1.362 . S
C678 H670 0.930 . S
C678 C677 1.362 . S
C678 C681 1.409 . S
C679 H671 0.930 . S
C679 C680 1.355 . S
C679 C681 1.415 . S
C680 C679 1.355 . S
C680 C682 1.419 . S
C681 C676 1.425 . S
C681 C678 1.409 . S
C681 C679 1.415 . S
C682 H672 0.930 . S
C682 C680 1.419 . S
C682 C683 1.362 . S
C683 H673 0.930 . S
C683 C676 1.409 . S
C683 C682 1.362 . S
H684 C690 0.930 . S
H685 C693 0.930 1_554 S
H686 C694 0.930 1_554 S
H687 C695 0.930 . S
H688 C698 0.930 . S
H689 C699 0.930 . S
C690 H684 0.930 . S
C690 C691 1.355 . S
C690 C692 1.415 . S
C691 C690 1.355 . S
C691 C693 1.419 . S
C692 C690 1.415 . S
C692 C697 1.425 . S
C692 C699 1.409 . S
C693 H685 0.930 1_556 S
C693 C691 1.419 . S
C693 C694 1.362 . S
C694 H686 0.930 1_556 S
C694 C693 1.362 . S
C694 C697 1.409 . S
C695 H687 0.930 . S
C695 C696 1.355 . S
C695 C697 1.415 . S
C696 C695 1.355 . S
C696 C698 1.419 . S
C697 C692 1.425 . S
C697 C694 1.409 . S
C697 C695 1.415 . S
C698 H688 0.930 . S
C698 C696 1.419 . S
C698 C699 1.362 . S
C699 H689 0.930 . S
C699 C692 1.409 . S
C699 C698 1.362 . S
H700 C706 0.930 . S
H701 C709 0.930 . S
H702 C710 0.930 . S
H703 C711 0.930 1_455 S
H704 C714 0.930 . S
H705 C715 0.930 . S
C706 H700 0.930 . S
C706 C707 1.355 . S
C706 C708 1.415 . S
C707 C706 1.355 . S
C707 C709 1.419 1_655 S
C708 C706 1.415 . S
C708 C713 1.425 . S
C708 C715 1.409 . S
C709 H701 0.930 . S
C709 C707 1.419 1_455 S
C709 C710 1.362 . S
C710 H702 0.930 . S
C710 C709 1.362 . S
C710 C713 1.409 1_455 S
C711 H703 0.930 1_655 S
C711 C712 1.355 . S
C711 C713 1.415 . S
C712 C711 1.355 . S
C712 C714 1.419 . S
C713 C708 1.425 . S
C713 C710 1.409 1_655 S
C713 C711 1.415 . S
C714 H704 0.930 . S
C714 C712 1.419 . S
C714 C715 1.362 . S
C715 H705 0.930 . S
C715 C708 1.409 . S
C715 C714 1.362 . S
H716 C722 0.930 1_545 S
H717 C725 0.930 . S
H718 C726 0.930 . S
H719 C727 0.930 . S
H720 C730 0.930 . S
H721 C731 0.930 1_545 S
C722 H716 0.930 1_565 S
C722 C723 1.355 . S
C722 C724 1.415 . S
C723 C722 1.355 . S
C723 C725 1.419 . S
C724 C722 1.415 . S
C724 C729 1.425 . S
C724 C731 1.409 . S
C725 H717 0.930 . S
C725 C723 1.419 . S
C725 C726 1.362 . S
C726 H718 0.930 . S
C726 C725 1.362 . S
C726 C729 1.409 . S
C727 H719 0.930 . S
C727 C728 1.355 . S
C727 C729 1.415 . S
C728 C727 1.355 . S
C728 C730 1.419 . S
C729 C724 1.425 . S
C729 C726 1.409 . S
C729 C727 1.415 . S
C730 H720 0.930 . S
C730 C728 1.419 . S
C730 C731 1.362 . S
C731 H721 0.930 1_565 S
C731 C724 1.409 . S
C731 C730 1.362 . S
H732 C738 0.930 . S
H733 C741 0.930 . S
H734 C742 0.930 . S
H735 C743 0.930 . S
H736 C746 0.930 . S
H737 C747 0.930 . S
C738 H732 0.930 . S
C738 C739 1.355 . S
C738 C740 1.415 . S
C739 C738 1.355 . S
C739 C741 1.419 . S
C740 C738 1.415 . S
C740 C745 1.425 . S
C740 C747 1.409 . S
C741 H733 0.930 . S
C741 C739 1.419 . S
C741 C742 1.362 . S
C742 H734 0.930 . S
C742 C741 1.362 . S
C742 C745 1.409 . S
C743 H735 0.930 . S
C743 C744 1.355 . S
C743 C745 1.415 . S
C744 C743 1.355 . S
C744 C746 1.419 . S
C745 C740 1.425 . S
C745 C742 1.409 . S
C745 C743 1.415 . S
C746 H736 0.930 . S
C746 C744 1.419 . S
C746 C747 1.362 . S
C747 H737 0.930 . S
C747 C740 1.409 . S
C747 C746 1.362 . S
H748 C754 0.930 . S
H749 C757 0.930 . S
H750 C758 0.930 . S
H751 C759 0.930 . S
H752 C762 0.930 . S
H753 C763 0.930 . S
C754 H748 0.930 . S
C754 C755 1.355 . S
C754 C756 1.415 . S
C755 C754 1.355 . S
C755 C757 1.419 . S
C756 C754 1.415 . S
C756 C761 1.425 . S
C756 C763 1.409 . S
C757 H749 0.930 . S
C757 C755 1.419 . S
C757 C758 1.362 . S
C758 H750 0.930 . S
C758 C757 1.362 . S
C758 C761 1.409 . S
C759 H751 0.930 . S
C759 C760 1.355 . S
C759 C761 1.415 . S
C760 C759 1.355 . S
C760 C762 1.419 . S
C761 C756 1.425 . S
C761 C758 1.409 . S
C761 C759 1.415 . S
C762 H752 0.930 . S
C762 C760 1.419 . S
C762 C763 1.362 . S
C763 H753 0.930 . S
C763 C756 1.409 . S
C763 C762 1.362 . S
C387 C241 1.668 . S
C392 C304 1.714 . S
C408 C327 1.896 . S
C403 C277 1.860 . S
C424 C350 1.791 . S
C419 C169 1.752 . S
C440 C377 1.685 . S
C435 C205 1.780 . S
C456 C305 1.624 . S
C451 C97 1.570 1_566 S
C467 C133 1.739 . S
C472 C328 1.745 . S
C483 C25 1.524 . S
C488 C351 1.559 . S
C499 C61 1.744 1_556 S
C504 C376 1.803 . S
C520 C306 0.532 . S
C515 C211 0.718 . S
C536 C329 0.207 . S
C531 C247 0.526 . S
C552 C352 0.356 . S
C547 C253 0.587 . S
C563 C175 0.626 . S
C568 C378 0.746 . S
C579 C67 0.651 . S
C584 C309 0.619 . S
C600 C332 0.754 . S
C595 C103 0.576 1_565 S
C616 C355 0.625 . S
C611 C109 0.564 . S
C627 C31 0.465 . S
C632 C375 0.110 . S
C643 C181 2.016 . S
C648 C307 1.984 . S
C659 C217 1.865 1_556 S
C664 C330 1.904 1_565 S
C680 C353 1.965 . S
C675 C283 1.857 . S
C696 C374 1.720 . S
C691 C145 1.592 . S
C707 C37 2.039 . S
C712 C308 2.015 1_655 S
C728 C331 1.787 . S
C723 C73 1.849 1_565 S
C744 C354 1.841 . S
C739 C139 1.863 . S
C755 C1 2.025 . S
C760 C373 2.086 . S
