# Generated by pormake.
# Topology rtl, (3,6)-cn, num edge types: 1
# Building blocks:
#     Node 0, Type 0, BuildingBlock: VETTIZ_charged_linker_0, # of connection points: 3
#     Node 1, Type 0, BuildingBlock: VETTIZ_charged_linker_0, # of connection points: 3
#     Node 2, Type 0, BuildingBlock: VETTIZ_charged_linker_0, # of connection points: 3
#     Node 3, Type 0, BuildingBlock: VETTIZ_charged_linker_0, # of connection points: 3
#     Node 4, Type 1, BuildingBlock: FUNLAD_clean_sbu_0, # of connection points: 6
#     Node 5, Type 1, BuildingBlock: FUNLAD_clean_sbu_0, # of connection points: 6
#     Edge 6, Type (0, 1), BuildingBlock: XUDNAN_clean_linker_2, # of connection points: 2
#     Edge 7, Type (0, 1), BuildingBlock: XUDNAN_clean_linker_2, # of connection points: 2
#     Edge 8, Type (0, 1), BuildingBlock: XUDNAN_clean_linker_2, # of connection points: 2
#     Edge 9, Type (0, 1), BuildingBlock: XUDNAN_clean_linker_2, # of connection points: 2
#     Edge 10, Type (0, 1), BuildingBlock: XUDNAN_clean_linker_2, # of connection points: 2
#     Edge 11, Type (0, 1), BuildingBlock: XUDNAN_clean_linker_2, # of connection points: 2
#     Edge 12, Type (0, 1), BuildingBlock: XUDNAN_clean_linker_2, # of connection points: 2
#     Edge 13, Type (0, 1), BuildingBlock: XUDNAN_clean_linker_2, # of connection points: 2
#     Edge 14, Type (0, 1), BuildingBlock: XUDNAN_clean_linker_2, # of connection points: 2
#     Edge 15, Type (0, 1), BuildingBlock: XUDNAN_clean_linker_2, # of connection points: 2
#     Edge 16, Type (0, 1), BuildingBlock: XUDNAN_clean_linker_2, # of connection points: 2
#     Edge 17, Type (0, 1), BuildingBlock: XUDNAN_clean_linker_2, # of connection points: 2
# Relax obj value: 0.029
# Max RMSD: 0.096
# Mean RMSD: 0.081
data_MOF--net-rtl--node1-FUNLAD_clean_sbu_0--node2-VETTIZ_charged_linker_0--edge1-XUDNAN_clean_linker_2
_symmetry_space_group_name_H-M    P1
_symmetry_Int_Tables_number       1
_symmetry_cell_setting            triclinic
loop_
_symmetry_equiv_pos_as_xyz
'x, y, z'
_cell_length_a     48.761073
_cell_length_b     39.5727
_cell_length_c     28.265589
_cell_angle_alpha  90.030085
_cell_angle_beta   90.942423
_cell_angle_gamma 90.678452
loop_
_atom_site_label
_atom_site_type_symbol
_atom_site_fract_x
_atom_site_fract_y
_atom_site_fract_z
_atom_type_partial_charge
C0 C 0.1015 0.78999 0.85359 0.0
C1 C 0.08154 0.81438 0.84323 0.0
C2 C 0.06449 0.82562 0.8797 0.0
C3 C 0.08954 0.79166 0.93654 0.0
C4 C 0.10504 0.77892 0.90033 0.0
C5 C 0.12634 0.75461 0.91806 0.0
H6 H 0.19781 0.68945 0.10201 0.0
C7 C 0.1002 0.77778 0.98157 0.0
C8 C 0.12137 0.75545 0.971 0.0
H9 H 0.21046 0.67512 0.95212 0.0
H10 H 0.16903 0.70504 0.93433 0.0
H11 H 0.18288 0.76781 0.09265 0.0
H12 H 0.13148 0.6786 0.09996 0.0
H13 H 0.11542 0.71058 0.13221 0.0
H14 H 0.14868 0.69567 0.15143 0.0
H15 H 0.18096 0.7416 0.14438 0.0
H16 H 0.15695 0.77486 0.13385 0.0
C17 C 0.15494 0.76927 0.90541 0.0
C18 C 0.1198 0.71935 0.89652 0.0
C19 C 0.07191 0.83142 0.13563 0.0
C20 C 0.08041 0.8267 0.18274 0.0
C21 C 0.09695 0.79895 0.19452 0.0
C22 C 0.10655 0.77751 0.15899 0.0
C23 C 0.09964 0.78417 0.11138 0.0
C24 C 0.08157 0.80981 0.10066 0.0
C25 C 0.07582 0.81273 0.04846 0.0
C26 C 0.09442 0.78561 0.02935 0.0
C27 C 0.10874 0.76939 0.06625 0.0
C28 C 0.08479 0.84866 0.03261 0.0
C29 C 0.04507 0.80426 0.03905 0.0
C30 C 0.19167 0.69273 0.06533 0.0
C31 C 0.20776 0.68005 0.02853 0.0
C32 C 0.19851 0.68424 0.98135 0.0
C33 C 0.17453 0.70206 0.97096 0.0
C34 C 0.15978 0.71649 0.00797 0.0
C35 C 0.16799 0.71102 0.05428 0.0
C36 C 0.15013 0.72903 0.08892 0.0
C37 C 0.13 0.74645 0.05562 0.0
C38 C 0.13602 0.73926 0.00824 0.0
C39 C 0.1685 0.75461 0.1168 0.0
C40 C 0.13573 0.70228 0.12017 0.0
H41 H 0.05523 0.82451 0.95256 0.0
H42 H 0.11461 0.78046 0.82617 0.0
H43 H 0.09734 0.71565 0.89069 0.0
H44 H 0.12587 0.69843 0.92027 0.0
H45 H 0.12983 0.71616 0.86182 0.0
H46 H 0.15549 0.79721 0.91 0.0
H47 H 0.15994 0.76374 0.86802 0.0
H48 H 0.17168 0.76 0.92843 0.0
H49 H 0.05893 0.85246 0.12602 0.0
H50 H 0.1036 0.79498 0.23083 0.0
H51 H 0.11985 0.7574 0.1697 0.0
H52 H 0.10495 0.85573 0.04903 0.0
H53 H 0.06963 0.86778 0.04346 0.0
H54 H 0.08767 0.85098 0.9942 0.0
H55 H 0.03644 0.78804 0.06746 0.0
H56 H 0.04174 0.78944 0.00616 0.0
H57 H 0.0326 0.82754 0.03721 0.0
H58 H 0.04905 0.84452 0.87277 0.0
C59 C 0.06829 0.81424 0.92617 0.0
C60 C 0.60674 0.72418 0.68221 0.0
C61 C 0.58399 0.70302 0.69129 0.0
C62 C 0.56743 0.69183 0.65286 0.0
C63 C 0.59785 0.71947 0.59775 0.0
C64 C 0.61339 0.73182 0.63536 0.0
C65 C 0.63832 0.75119 0.61932 0.0
H66 H 0.72074 0.79894 0.44028 0.0
C67 C 0.6118 0.72893 0.55364 0.0
C68 C 0.6355 0.74762 0.56594 0.0
H69 H 0.73219 0.81812 0.59008 0.0
H70 H 0.68859 0.79144 0.60571 0.0
H71 H 0.7014 0.72446 0.45126 0.0
H72 H 0.65463 0.81548 0.43568 0.0
H73 H 0.63955 0.78441 0.3987 0.0
H74 H 0.67441 0.79796 0.38881 0.0
H75 H 0.69733 0.74521 0.39521 0.0
H76 H 0.67279 0.71418 0.41549 0.0
C77 C 0.66415 0.7332 0.6391 0.0
C78 C 0.63557 0.78838 0.63544 0.0
C79 C 0.57422 0.68497 0.39667 0.0
C80 C 0.58383 0.6866 0.35015 0.0
C81 C 0.60825 0.70466 0.34105 0.0
C82 C 0.62284 0.72096 0.37785 0.0
C83 C 0.61309 0.71881 0.42433 0.0
C84 C 0.58914 0.70103 0.43302 0.0
C85 C 0.58237 0.70019 0.48465 0.0
C86 C 0.60605 0.72074 0.5056 0.0
C87 C 0.62394 0.73163 0.47017 0.0
C88 C 0.58282 0.66279 0.50124 0.0
C89 C 0.55457 0.71803 0.49113 0.0
C90 C 0.71395 0.79732 0.47651 0.0
C91 C 0.73012 0.81056 0.51397 0.0
C92 C 0.72011 0.80846 0.56045 0.0
C93 C 0.69486 0.79266 0.56954 0.0
C94 C 0.67946 0.7785 0.53186 0.0
C95 C 0.68891 0.78138 0.48622 0.0
C96 C 0.67008 0.76443 0.45062 0.0
C97 C 0.64777 0.75084 0.48243 0.0
C98 C 0.6534 0.75903 0.53 0.0
C99 C 0.68608 0.73568 0.42644 0.0
C100 C 0.65911 0.79177 0.41626 0.0
H101 H 0.56108 0.69005 0.57869 0.0
H102 H 0.61972 0.73363 0.71084 0.0
H103 H 0.61379 0.79644 0.63355 0.0
H104 H 0.64663 0.80633 0.61248 0.0
H105 H 0.6429 0.79175 0.67258 0.0
H106 H 0.66114 0.70528 0.63868 0.0
H107 H 0.66865 0.74091 0.67624 0.0
H108 H 0.68258 0.73775 0.61781 0.0
H109 H 0.55576 0.67078 0.40485 0.0
H110 H 0.61591 0.7064 0.30536 0.0
H111 H 0.64126 0.73437 0.36872 0.0
H112 H 0.59756 0.64776 0.48047 0.0
H113 H 0.5623 0.6506 0.49689 0.0
H114 H 0.58993 0.6599 0.5383 0.0
H115 H 0.5528 0.7402 0.46711 0.0
H116 H 0.55212 0.72842 0.52707 0.0
H117 H 0.5371 0.70062 0.48288 0.0
H118 H 0.54999 0.67519 0.65844 0.0
C119 C 0.57413 0.70011 0.6063 0.0
C120 C 0.88378 0.19701 0.187 0.0
C121 C 0.90453 0.17335 0.19542 0.0
C122 C 0.91663 0.15688 0.15711 0.0
C123 C 0.8876 0.18765 0.10242 0.0
C124 C 0.87541 0.20346 0.14017 0.0
C125 C 0.85263 0.22641 0.12427 0.0
H126 H 0.77983 0.29747 0.94464 0.0
C127 C 0.87425 0.1996 0.05848 0.0
C128 C 0.85349 0.22198 0.07085 0.0
H129 H 0.76923 0.31032 0.09509 0.0
H130 H 0.8059 0.27131 0.11109 0.0
H131 H 0.84763 0.29729 0.94767 0.0
H132 H 0.7863 0.21784 0.94815 0.0
H133 H 0.81345 0.20408 0.9132 0.0
H134 H 0.79429 0.24083 0.89532 0.0
H135 H 0.82514 0.28856 0.89808 0.0
H136 H 0.85666 0.26602 0.90656 0.0
C137 C 0.86043 0.2629 0.13954 0.0
C138 C 0.82537 0.21292 0.14505 0.0
C139 C 0.91154 0.16238 0.90106 0.0
C140 C 0.90399 0.16892 0.85394 0.0
C141 C 0.88074 0.18866 0.84416 0.0
C142 C 0.86575 0.20272 0.88124 0.0
C143 C 0.87405 0.19665 0.92841 0.0
C144 C 0.8963 0.17621 0.93749 0.0
C145 C 0.90171 0.17123 0.98938 0.0
C146 C 0.87947 0.19279 0.01025 0.0
C147 C 0.86345 0.20789 0.97455 0.0
C148 C 0.9308 0.18543 0.00117 0.0
C149 C 0.89758 0.13315 0.0009 0.0
C150 C 0.78561 0.29201 0.98099 0.0
C151 C 0.77178 0.30704 0.01869 0.0
C152 C 0.7795 0.29886 0.06552 0.0
C153 C 0.80087 0.27633 0.07472 0.0
C154 C 0.81461 0.26164 0.0367 0.0
C155 C 0.80678 0.26931 0.99077 0.0
C156 C 0.8232 0.25049 0.95489 0.0
C157 C 0.84231 0.23048 0.98689 0.0
C158 C 0.83731 0.23734 0.03478 0.0
C159 C 0.83896 0.27676 0.92482 0.0
C160 C 0.80343 0.22719 0.92596 0.0
H161 H 0.91854 0.15076 0.08305 0.0
H162 H 0.87399 0.2096 0.21616 0.0
H163 H 0.82581 0.18503 0.14985 0.0
H164 H 0.80751 0.21723 0.1213 0.0
H165 H 0.82144 0.2244 0.18012 0.0
H166 H 0.88252 0.26816 0.13307 0.0
H167 H 0.85684 0.26671 0.17787 0.0
H168 H 0.84923 0.28236 0.11939 0.0
H169 H 0.92906 0.14674 0.90942 0.0
H170 H 0.87462 0.19384 0.80789 0.0
H171 H 0.84848 0.21801 0.87178 0.0
H172 H 0.93455 0.20953 0.98194 0.0
H173 H 0.94684 0.16735 0.99056 0.0
H174 H 0.9339 0.19168 0.03892 0.0
H175 H 0.88361 0.12048 0.97471 0.0
H176 H 0.88759 0.12902 0.03535 0.0
H177 H 0.91736 0.11952 0.00069 0.0
H178 H 0.93267 0.13858 0.16323 0.0
C179 C 0.90837 0.16399 0.11067 0.0
C180 C 0.41425 0.28625 0.33226 0.0
C181 C 0.43439 0.31103 0.32334 0.0
C182 C 0.45178 0.32192 0.36083 0.0
C183 C 0.42613 0.28749 0.41593 0.0
C184 C 0.41043 0.27497 0.37864 0.0
C185 C 0.38802 0.2515 0.39481 0.0
H186 H 0.30589 0.2003 0.56933 0.0
C187 C 0.41453 0.27416 0.46028 0.0
C188 C 0.39253 0.25255 0.44815 0.0
H189 H 0.29912 0.1791 0.41973 0.0
H190 H 0.34438 0.2024 0.4078 0.0
H191 H 0.37199 0.17944 0.57951 0.0
H192 H 0.33092 0.27453 0.56016 0.0
H193 H 0.35537 0.27822 0.60657 0.0
H194 H 0.32748 0.24878 0.61215 0.0
H195 H 0.3561 0.20064 0.62785 0.0
H196 H 0.39096 0.21029 0.61113 0.0
C197 C 0.39327 0.21587 0.3742 0.0
C198 C 0.36023 0.26715 0.37939 0.0
C199 C 0.44404 0.32768 0.61593 0.0
C200 C 0.43448 0.32441 0.66222 0.0
C201 C 0.41592 0.29812 0.67295 0.0
C202 C 0.40544 0.27687 0.63697 0.0
C203 C 0.4135 0.28229 0.58996 0.0
C204 C 0.43344 0.30635 0.58052 0.0
C205 C 0.43982 0.30851 0.52883 0.0
C206 C 0.41995 0.28233 0.50846 0.0
C207 C 0.40411 0.26755 0.54426 0.0
C208 C 0.47009 0.2982 0.5222 0.0
C209 C 0.43305 0.34481 0.51185 0.0
C210 C 0.31459 0.2002 0.53431 0.0
C211 C 0.29908 0.18842 0.49521 0.0
C212 C 0.31078 0.18843 0.4501 0.0
C213 C 0.33692 0.20217 0.44325 0.0
C214 C 0.35118 0.21693 0.48169 0.0
C215 C 0.34066 0.21447 0.5267 0.0
C216 C 0.3591 0.23152 0.56306 0.0
C217 C 0.38167 0.2458 0.53196 0.0
C218 C 0.37647 0.23766 0.48424 0.0
C219 C 0.37006 0.20428 0.59756 0.0
C220 C 0.3425 0.2597 0.58712 0.0
H221 H 0.46114 0.32022 0.43424 0.0
H222 H 0.40092 0.27689 0.30403 0.0
H223 H 0.36062 0.295 0.38497 0.0
H224 H 0.34264 0.25796 0.3998 0.0
H225 H 0.35582 0.26243 0.34127 0.0
H226 H 0.41543 0.21204 0.36736 0.0
H227 H 0.38195 0.21196 0.34018 0.0
H228 H 0.3877 0.19542 0.39911 0.0
H229 H 0.45846 0.34765 0.60705 0.0
H230 H 0.40837 0.29529 0.70858 0.0
H231 H 0.39057 0.25803 0.64671 0.0
H232 H 0.47674 0.27982 0.54975 0.0
H233 H 0.48411 0.32048 0.52466 0.0
H234 H 0.4733 0.28502 0.48824 0.0
H235 H 0.41395 0.35389 0.52844 0.0
H236 H 0.42905 0.34668 0.4735 0.0
H237 H 0.44985 0.36284 0.52156 0.0
H238 H 0.46745 0.34103 0.35506 0.0
C239 C 0.44789 0.31007 0.40697 0.0
C240 C 0.02967 0.97603 0.44365 0.0
N241 N 0.06613 0.05313 0.52415 0.0
C242 C 0.09051 0.03772 0.51694 0.0
C243 C 0.11484 0.05668 0.51613 0.0
C244 C 0.11403 0.09183 0.52266 0.0
C245 C 0.08864 0.10692 0.53109 0.0
C246 C 0.06485 0.08702 0.53168 0.0
Zn247 Zn 0.03063 0.0253 0.52226 0.0
C248 C 0.98747 0.05748 0.46309 0.0
N249 N 0.9566 0.96711 0.5187 0.0
C250 C 0.95849 0.93304 0.51369 0.0
C251 C 0.9318 0.98246 0.52012 0.0
C252 C 0.9076 0.9634 0.51545 0.0
C253 C 0.90897 0.92823 0.50922 0.0
C254 C 0.93487 0.91306 0.50899 0.0
Zn255 Zn 0.99197 0.99522 0.52114 0.0
O256 O 0.04344 0.00068 0.4608 0.0
C257 C 0.03497 0.96293 0.58035 0.0
O258 O 0.00734 0.9671 0.46286 0.0
H259 H 0.93079 0.00961 0.52403 0.0
H260 H 0.09106 0.01074 0.51101 0.0
H261 H 0.9784 0.92133 0.51271 0.0
O262 O 0.04919 0.98749 0.5647 0.0
O263 O 0.00973 0.96049 0.5689 0.0
H264 H 0.04528 0.09874 0.53758 0.0
O265 O 0.97728 0.02405 0.57928 0.0
O266 O 0.01736 0.04982 0.58325 0.0
O267 O 0.97472 0.03035 0.47336 0.0
O268 O 0.01148 0.06269 0.47989 0.0
C269 C 0.99339 0.04546 0.59917 0.0
H270 H 0.13393 0.04408 0.50899 0.0
H271 H 0.08715 0.13389 0.5369 0.0
H272 H 0.88808 0.97618 0.51544 0.0
H273 H 0.93689 0.88598 0.50512 0.0
C274 C 0.48309 0.47688 0.92518 0.0
N275 N 0.55515 0.47623 0.00975 0.0
C276 C 0.55629 0.44207 0.00481 0.0
C277 C 0.58159 0.42598 0.00296 0.0
C278 C 0.60589 0.44532 0.00561 0.0
C279 C 0.60412 0.48044 0.01138 0.0
C280 C 0.57842 0.49543 0.01366 0.0
Zn281 Zn 0.51802 0.49961 0.00844 0.0
C282 C 0.52062 0.5627 0.95011 0.0
N283 N 0.44094 0.54932 0.00216 0.0
C284 C 0.41723 0.53095 0.99818 0.0
C285 C 0.4406 0.58314 0.01065 0.0
C286 C 0.41583 0.59955 0.0174 0.0
C287 C 0.3911 0.581 0.01565 0.0
C288 C 0.39194 0.54638 0.00479 0.0
Zn289 Zn 0.47793 0.52566 0.00242 0.0
O290 O 0.5056 0.4708 0.94687 0.0
C291 C 0.47611 0.46251 0.0615 0.0
O292 O 0.46731 0.49941 0.94084 0.0
H293 H 0.45967 0.59727 0.01379 0.0
H294 H 0.53755 0.42731 0.0015 0.0
H295 H 0.41798 0.50406 0.99157 0.0
O296 O 0.5015 0.46217 0.05241 0.0
O297 O 0.46124 0.48588 0.04445 0.0
H298 H 0.57708 0.52252 0.01788 0.0
O299 O 0.48896 0.55206 0.06419 0.0
O300 O 0.52948 0.5288 0.06947 0.0
O301 O 0.4954 0.56485 0.96029 0.0
O302 O 0.53432 0.53767 0.96498 0.0
C303 C 0.51196 0.54931 0.08533 0.0
H304 H 0.58215 0.39884 0.99815 0.0
H305 H 0.62243 0.49614 0.0141 0.0
H306 H 0.4161 0.62642 0.02476 0.0
H307 H 0.37339 0.53108 0.00336 0.0
H308 H 0.27464 0.13584 0.54306 0.0
H309 H 0.25759 0.22336 0.45576 0.0
H310 H 0.208 0.21003 0.45769 0.0
H311 H 0.22562 0.08168 0.48693 0.0
H312 H 0.21563 0.05993 0.54007 0.0
H313 H 0.24959 0.07792 0.53585 0.0
H314 H 0.24196 0.11259 0.61221 0.0
H315 H 0.20798 0.09459 0.61677 0.0
H316 H 0.21268 0.13983 0.61567 0.0
H317 H 0.16115 0.18616 0.46535 0.0
H318 H 0.11918 0.152 0.47636 0.0
H319 H 0.16593 0.07884 0.55773 0.0
C320 C 0.2603 0.15234 0.5251 0.0
C321 C 0.26961 0.18068 0.49948 0.0
C322 C 0.25058 0.20156 0.47557 0.0
C323 C 0.22247 0.19426 0.47659 0.0
C324 C 0.21382 0.16588 0.50154 0.0
C325 C 0.23207 0.14514 0.5253 0.0
C326 C 0.21731 0.11508 0.54686 0.0
C327 C 0.22765 0.08169 0.52618 0.0
C328 C 0.22015 0.11557 0.6011 0.0
C329 C 0.18807 0.122 0.53089 0.0
C330 C 0.18656 0.15164 0.50526 0.0
C331 C 0.16196 0.16306 0.48577 0.0
C332 C 0.13821 0.14356 0.49243 0.0
C333 C 0.13922 0.11288 0.51817 0.0
C334 C 0.16453 0.10213 0.53778 0.0
H335 H 0.23296 0.62749 0.98259 0.0
H336 H 0.24527 0.70025 0.09641 0.0
H337 H 0.29231 0.67993 0.10874 0.0
H338 H 0.27537 0.55999 0.03294 0.0
H339 H 0.28883 0.54839 0.97626 0.0
H340 H 0.25495 0.56583 0.97988 0.0
H341 H 0.26852 0.61274 0.92045 0.0
H342 H 0.30244 0.59557 0.91682 0.0
H343 H 0.29809 0.6392 0.93314 0.0
H344 H 0.33899 0.6552 0.10494 0.0
H345 H 0.38217 0.62682 0.08604 0.0
H346 H 0.34058 0.57221 0.97193 0.0
C347 C 0.24543 0.63902 0.01038 0.0
C348 C 0.23516 0.66533 0.03878 0.0
C349 C 0.25226 0.67953 0.07488 0.0
C350 C 0.27916 0.66834 0.08196 0.0
C351 C 0.28875 0.64296 0.05266 0.0
C352 C 0.27242 0.62836 0.0177 0.0
C353 C 0.28829 0.60292 0.98924 0.0
C354 C 0.27613 0.56716 0.99494 0.0
C355 C 0.2894 0.61324 0.93682 0.0
C356 C 0.31624 0.60603 0.01313 0.0
C357 C 0.31596 0.62907 0.04985 0.0
C358 C 0.33946 0.63701 0.07637 0.0
C359 C 0.36395 0.62098 0.06504 0.0
C360 C 0.36484 0.59744 0.02729 0.0
C361 C 0.34053 0.5898 0.00128 0.0
H362 H 0.75513 0.86608 0.55597 0.0
H363 H 0.76811 0.78726 0.45195 0.0
H364 H 0.8144 0.81015 0.43753 0.0
H365 H 0.79242 0.9327 0.4963 0.0
H366 H 0.80683 0.95019 0.55022 0.0
H367 H 0.77407 0.92868 0.5509 0.0
H368 H 0.79219 0.88825 0.61607 0.0
H369 H 0.82498 0.90966 0.61565 0.0
H370 H 0.82297 0.86466 0.60602 0.0
H371 H 0.85957 0.84036 0.43568 0.0
H372 H 0.90103 0.8759 0.44696 0.0
H373 H 0.85965 0.9337 0.55458 0.0
C374 C 0.7677 0.85357 0.53023 0.0
C375 C 0.75781 0.82501 0.50481 0.0
C376 C 0.77492 0.80958 0.47117 0.0
C377 C 0.80135 0.82225 0.46292 0.0
C378 C 0.81045 0.85031 0.48867 0.0
C379 C 0.79421 0.86579 0.52167 0.0
C380 C 0.80927 0.89508 0.54542 0.0
C381 C 0.79478 0.92865 0.53507 0.0
C382 C 0.81255 0.88904 0.59896 0.0
C383 C 0.83659 0.89343 0.52082 0.0
C384 C 0.83676 0.8675 0.4881 0.0
C385 C 0.85973 0.86071 0.46128 0.0
C386 C 0.88325 0.88089 0.4682 0.0
C387 C 0.88369 0.90747 0.50187 0.0
C388 C 0.8599 0.91382 0.52827 0.0
H389 H 0.72117 0.30831 0.05911 0.0
H390 H 0.77212 0.36036 0.9573 0.0
H391 H 0.73518 0.40161 0.94283 0.0
H392 H 0.65724 0.31835 0.99513 0.0
H393 H 0.63745 0.32435 0.04773 0.0
H394 H 0.66795 0.29913 0.05012 0.0
H395 H 0.68772 0.33689 0.11775 0.0
H396 H 0.65729 0.36223 0.11556 0.0
H397 H 0.69053 0.38191 0.10898 0.0
H398 H 0.6933 0.43806 0.94147 0.0
H399 H 0.6483 0.46541 0.94992 0.0
H400 H 0.62435 0.38866 0.05121 0.0
C401 C 0.72455 0.3285 0.03393 0.0
C402 C 0.74947 0.33131 0.00938 0.0
C403 C 0.75307 0.35771 0.97619 0.0
C404 C 0.73229 0.38129 0.96793 0.0
C405 C 0.708 0.37789 0.99288 0.0
C406 C 0.70395 0.35202 0.02493 0.0
C407 C 0.6758 0.35371 0.04655 0.0
C408 C 0.6586 0.322 0.03412 0.0
C409 C 0.67798 0.35901 0.1004 0.0
C410 C 0.66469 0.3847 0.02185 0.0
C411 C 0.68364 0.3984 0.99126 0.0
C412 C 0.67825 0.42751 0.96519 0.0
C413 C 0.65274 0.44294 0.97039 0.0
C414 C 0.63292 0.42908 0.00114 0.0
C415 C 0.63904 0.39957 0.02709 0.0
H416 H 0.05052 0.82185 0.26431 0.0
H417 H 0.09851 0.89121 0.17952 0.0
H418 H 0.0908 0.93681 0.23737 0.0
H419 H 0.99948 0.88315 0.29735 0.0
H420 H 0.99544 0.86664 0.35628 0.0
H421 H 0.0053 0.839 0.309 0.0
H422 H 0.04838 0.82137 0.35744 0.0
H423 H 0.03864 0.84895 0.40486 0.0
H424 H 0.072 0.85347 0.37892 0.0
H425 H 0.07964 0.97389 0.30488 0.0
H426 H 0.06274 0.00225 0.37622 0.0
H427 H 0.01901 0.91055 0.41556 0.0
C428 C 0.05936 0.84668 0.25826 0.0
C429 C 0.07515 0.85328 0.21784 0.0
C430 C 0.08631 0.88595 0.21041 0.0
C431 C 0.08209 0.91188 0.24303 0.0
C432 C 0.06638 0.90475 0.28253 0.0
C433 C 0.05491 0.87313 0.29015 0.0
C434 C 0.03818 0.87275 0.33493 0.0
C435 C 0.0078 0.86493 0.3237 0.0
C436 C 0.05002 0.84765 0.37118 0.0
C437 C 0.04228 0.90898 0.35133 0.0
C438 C 0.05885 0.92682 0.32072 0.0
C439 C 0.06646 0.96034 0.32896 0.0
C440 C 0.05683 0.97617 0.36961 0.0
C441 C 0.03946 0.95863 0.40112 0.0
C442 C 0.032 0.92464 0.3917 0.0
H443 H 0.53456 0.68982 0.73429 0.0
H444 H 0.62272 0.68379 0.75673 0.0
H445 H 0.61534 0.65371 0.83152 0.0
H446 H 0.51556 0.69631 0.86183 0.0
H447 H 0.48558 0.6698 0.85306 0.0
H448 H 0.49748 0.69641 0.80568 0.0
H449 H 0.49993 0.64408 0.75084 0.0
H450 H 0.48827 0.61733 0.798 0.0
H451 H 0.52008 0.60836 0.76922 0.0
H452 H 0.59925 0.6168 0.89605 0.0
H453 H 0.57518 0.57714 0.94863 0.0
H454 H 0.49719 0.60591 0.88533 0.0
C455 C 0.55232 0.68276 0.75536 0.0
C456 C 0.57924 0.68952 0.73961 0.0
C457 C 0.60189 0.67974 0.76834 0.0
C458 C 0.59792 0.66241 0.81087 0.0
C459 C 0.57118 0.65516 0.82446 0.0
C460 C 0.54872 0.66526 0.79788 0.0
C461 C 0.52226 0.65142 0.81816 0.0
C462 C 0.50415 0.68021 0.83574 0.0
C463 C 0.50674 0.62897 0.7819 0.0
C464 C 0.5335 0.6308 0.8591 0.0
C465 C 0.56176 0.63368 0.86232 0.0
C466 C 0.5771 0.61486 0.89456 0.0
C467 C 0.56325 0.59225 0.92405 0.0
C468 C 0.53433 0.58867 0.92119 0.0
C469 C 0.51926 0.60865 0.88884 0.0
H470 H 0.89863 0.11329 0.24005 0.0
H471 H 0.93239 0.21428 0.25755 0.0
H472 H 0.95482 0.19693 0.33303 0.0
H473 H 0.88698 0.09693 0.36866 0.0
H474 H 0.89598 0.0531 0.36277 0.0
H475 H 0.88009 0.07496 0.31377 0.0
H476 H 0.92056 0.05832 0.26052 0.0
H477 H 0.93673 0.03681 0.30935 0.0
H478 H 0.9551 0.06964 0.27852 0.0
H479 H 0.97904 0.1658 0.39926 0.0
H480 H 0.99943 0.12504 0.45577 0.0
H481 H 0.94737 0.04539 0.39687 0.0
C482 C 0.9101 0.13189 0.26067 0.0
C483 C 0.91376 0.16507 0.24376 0.0
C484 C 0.92919 0.18886 0.27071 0.0
C485 C 0.942 0.17918 0.31336 0.0
C486 C 0.93865 0.14586 0.32857 0.0
C487 C 0.92259 0.12279 0.30349 0.0
C488 C 0.92337 0.08813 0.32595 0.0
C489 C 0.89491 0.07768 0.34386 0.0
C490 C 0.93462 0.06169 0.29153 0.0
C491 C 0.9432 0.09492 0.36657 0.0
C492 C 0.95181 0.12834 0.36761 0.0
C493 C 0.97197 0.13978 0.3995 0.0
C494 C 0.98354 0.11645 0.43121 0.0
C495 C 0.97471 0.08224 0.43092 0.0
C496 C 0.9541 0.07156 0.39849 0.0
H497 H 0.46106 0.31968 0.74893 0.0
H498 H 0.42151 0.38998 0.65279 0.0
H499 H 0.43056 0.43655 0.70923 0.0
H500 H 0.43771 0.35624 0.85739 0.0
H501 H 0.46949 0.35005 0.88954 0.0
H502 H 0.45981 0.3219 0.84187 0.0
H503 H 0.50583 0.33493 0.80074 0.0
H504 H 0.51562 0.36318 0.84827 0.0
H505 H 0.51518 0.37816 0.78806 0.0
H506 H 0.44131 0.47447 0.77644 0.0
H507 H 0.45613 0.50339 0.84994 0.0
H508 H 0.49215 0.41041 0.90163 0.0
C509 C 0.4544 0.34494 0.74005 0.0
C510 C 0.44061 0.3515 0.69677 0.0
C511 C 0.43223 0.38472 0.68582 0.0
C512 C 0.43722 0.41123 0.7176 0.0
C513 C 0.45094 0.40413 0.75991 0.0
C514 C 0.4597 0.37197 0.77116 0.0
C515 C 0.47447 0.37171 0.81887 0.0
C516 C 0.45947 0.34861 0.85399 0.0
C517 C 0.50456 0.36139 0.81365 0.0
C518 C 0.47227 0.40863 0.83273 0.0
C519 C 0.4584 0.42669 0.79822 0.0
C520 C 0.45248 0.46077 0.80354 0.0
C521 C 0.46089 0.47692 0.84539 0.0
C522 C 0.47544 0.45915 0.88104 0.0
C523 C 0.48144 0.42463 0.87447 0.0
H524 H 0.60413 0.64511 0.28152 0.0
H525 H 0.52878 0.68844 0.33243 0.0
H526 H 0.50242 0.65737 0.27067 0.0
H527 H 0.58589 0.64672 0.15656 0.0
H528 H 0.60191 0.60695 0.14411 0.0
H529 H 0.61497 0.63323 0.19163 0.0
H530 H 0.60922 0.58334 0.25012 0.0
H531 H 0.59596 0.55698 0.20286 0.0
H532 H 0.57615 0.56297 0.25542 0.0
H533 H 0.48434 0.62214 0.20432 0.0
H534 H 0.47515 0.5845 0.13647 0.0
H535 H 0.56205 0.56252 0.12873 0.0
C536 C 0.58212 0.64831 0.27921 0.0
C537 C 0.56842 0.66917 0.31159 0.0
C538 C 0.53958 0.67238 0.30809 0.0
C539 C 0.52448 0.65494 0.27313 0.0
C540 C 0.53854 0.63428 0.24212 0.0
C541 C 0.56668 0.63084 0.2447 0.0
C542 C 0.57659 0.60649 0.2074 0.0
C543 C 0.59598 0.62443 0.17288 0.0
C544 C 0.59028 0.57562 0.23034 0.0
C545 C 0.54959 0.59686 0.18344 0.0
C546 C 0.52797 0.61332 0.20406 0.0
C547 C 0.50107 0.60906 0.18789 0.0
C548 C 0.49609 0.58761 0.1493 0.0
C549 C 0.51788 0.57049 0.12738 0.0
C550 C 0.54497 0.57503 0.14501 0.0
H551 H 0.88813 0.1288 0.7788 0.0
H552 H 0.95864 0.17887 0.84436 0.0
H553 H 0.98886 0.15331 0.78528 0.0
H554 H 0.92147 0.05144 0.75521 0.0
H555 H 0.90438 0.04383 0.69911 0.0
H556 H 0.8877 0.06803 0.74404 0.0
H557 H 0.8817 0.11786 0.68548 0.0
H558 H 0.89813 0.09366 0.6402 0.0
H559 H 0.9113 0.13496 0.65602 0.0
H560 H 0.0115 0.1213 0.72203 0.0
H561 H 0.02575 0.08473 0.65671 0.0
H562 H 0.94098 0.05334 0.63247 0.0
C563 C 0.90987 0.13477 0.77996 0.0
C564 C 0.92119 0.15587 0.81572 0.0
C565 C 0.94973 0.16273 0.81706 0.0
C566 C 0.96699 0.14838 0.78373 0.0
C567 C 0.95536 0.12711 0.74948 0.0
C568 C 0.9275 0.1203 0.74716 0.0
C569 C 0.92062 0.09533 0.70786 0.0
C570 C 0.90779 0.06273 0.72777 0.0
C571 C 0.90183 0.11142 0.67015 0.0
C572 C 0.949 0.08907 0.68882 0.0
C573 C 0.96865 0.10786 0.71327 0.0
C574 C 0.99633 0.1065 0.70248 0.0
C575 C 0.00421 0.08559 0.66533 0.0
C576 C 0.98449 0.06611 0.63954 0.0
C577 C 0.95653 0.06777 0.65172 0.0
H578 H 0.47981 0.33063 0.27323 0.0
H579 H 0.39079 0.33172 0.26933 0.0
H580 H 0.39174 0.36638 0.197 0.0
H581 H 0.48943 0.41467 0.24156 0.0
H582 H 0.51909 0.40789 0.20569 0.0
H583 H 0.51156 0.37937 0.25339 0.0
H584 H 0.51137 0.32877 0.19511 0.0
H585 H 0.51908 0.35717 0.14716 0.0
H586 H 0.48942 0.32964 0.14319 0.0
H587 H 0.40223 0.40679 0.13156 0.0
H588 H 0.42177 0.44771 0.0749 0.0
H589 H 0.50385 0.4198 0.12066 0.0
C590 C 0.46053 0.33769 0.25669 0.0
C591 C 0.43524 0.32821 0.27673 0.0
C592 C 0.41043 0.33806 0.25411 0.0
C593 C 0.41074 0.35793 0.21313 0.0
C594 C 0.43601 0.36752 0.19494 0.0
C595 C 0.46046 0.35743 0.21565 0.0
C596 C 0.48481 0.37293 0.19077 0.0
C597 C 0.50223 0.39503 0.22489 0.0
C598 C 0.50219 0.34548 0.16768 0.0
C599 C 0.4702 0.39413 0.15386 0.0
C600 C 0.44206 0.39052 0.15666 0.0
C601 C 0.42424 0.40939 0.12841 0.0
C602 C 0.43551 0.43265 0.09651 0.0
C603 C 0.4643 0.43671 0.09315 0.0
C604 C 0.48176 0.41686 0.12188 0.0
H605 H 0.03552 0.83051 0.79115 0.0
H606 H 0.12443 0.8363 0.78997 0.0
H607 H 0.12226 0.87074 0.71731 0.0
H608 H 0.0248 0.82897 0.66022 0.0
H609 H 0.99467 0.85476 0.6636 0.0
H610 H 0.00334 0.82656 0.71148 0.0
H611 H 0.00267 0.87684 0.77023 0.0
H612 H 0.99426 0.90519 0.72261 0.0
H613 H 0.02408 0.91342 0.75954 0.0
H614 H 0.11042 0.91112 0.65218 0.0
H615 H 0.08963 0.95137 0.59562 0.0
H616 H 0.00849 0.91848 0.63833 0.0
C617 C 0.05453 0.83848 0.77503 0.0
C618 C 0.08014 0.8306 0.79602 0.0
C619 C 0.10459 0.84153 0.77401 0.0
C620 C 0.10356 0.86125 0.73287 0.0
C621 C 0.07796 0.86947 0.71392 0.0
C622 C 0.05387 0.85802 0.73386 0.0
C623 C 0.02902 0.87225 0.70842 0.0
C624 C 0.01196 0.84394 0.6845 0.0
C625 C 0.01149 0.89317 0.74222 0.0
C626 C 0.04291 0.89445 0.67219 0.0
C627 C 0.07113 0.89235 0.67574 0.0
C628 C 0.08834 0.91249 0.6484 0.0
C629 C 0.07636 0.93539 0.61661 0.0
C630 C 0.04748 0.93783 0.6124 0.0
C631 C 0.03063 0.91678 0.64023 0.0
loop_
_geom_bond_atom_site_label_1
_geom_bond_atom_site_label_2
_geom_bond_distance
_geom_bond_site_symmetry_2
_ccdc_geom_bond_type
C0 C1 1.391 . S
C0 C4 1.391 . S
C0 H42 0.948 . S
C1 C0 1.391 . S
C1 C2 1.391 . S
C2 C1 1.391 . S
C2 H58 0.947 . S
C2 C59 1.392 . S
C3 C4 1.391 . S
C3 C7 1.397 . S
C3 C59 1.419 . S
C4 C0 1.391 . S
C4 C3 1.391 . S
C4 C5 1.399 . S
C5 C4 1.399 . S
C5 C8 1.396 . S
C5 C17 1.453 . S
C5 C18 1.684 . S
H6 C30 0.948 . S
C7 C3 1.397 . S
C7 C8 1.394 . S
C7 C26 1.723 1_556 S
C8 C5 1.396 . S
C8 C7 1.394 . S
C8 C38 1.723 1_556 S
H9 C32 0.947 . S
H10 C33 0.948 . S
H11 C39 0.982 . S
H12 C40 0.979 . S
H13 C40 0.980 . S
H14 C40 0.983 . S
H15 C39 0.979 . S
H16 C39 0.977 . S
C17 C5 1.453 . S
C17 H46 0.982 . S
C17 H47 0.979 . S
C17 H48 0.977 . S
C18 C5 1.684 . S
C18 H43 0.979 . S
C18 H44 0.980 . S
C18 H45 0.983 . S
C19 C20 1.391 . S
C19 C24 1.391 . S
C19 H49 0.948 . S
C20 C19 1.391 . S
C20 C21 1.391 . S
C21 C20 1.391 . S
C21 C22 1.392 . S
C21 H50 0.947 . S
C22 C21 1.392 . S
C22 C23 1.419 . S
C22 H51 0.948 . S
C23 C22 1.419 . S
C23 C24 1.391 . S
C23 C27 1.397 . S
C24 C19 1.391 . S
C24 C23 1.391 . S
C24 C25 1.399 . S
C25 C24 1.399 . S
C25 C26 1.396 . S
C25 C28 1.453 . S
C25 C29 1.684 . S
C26 C7 1.723 1_554 S
C26 C25 1.396 . S
C26 C27 1.394 . S
C27 C23 1.397 . S
C27 C26 1.394 . S
C27 C37 1.723 . S
C28 C25 1.453 . S
C28 H52 0.982 . S
C28 H53 0.979 . S
C28 H54 0.977 . S
C29 C25 1.684 . S
C29 H55 0.979 . S
C29 H56 0.980 . S
C29 H57 0.983 . S
C30 H6 0.948 . S
C30 C31 1.391 . S
C30 C35 1.391 . S
C31 C30 1.391 . S
C31 C32 1.391 1_554 S
C32 H9 0.947 . S
C32 C31 1.391 1_556 S
C32 C33 1.392 . S
C33 H10 0.948 . S
C33 C32 1.392 . S
C33 C34 1.419 1_556 S
C34 C33 1.419 1_554 S
C34 C35 1.391 . S
C34 C38 1.397 . S
C35 C30 1.391 . S
C35 C34 1.391 . S
C35 C36 1.399 . S
C36 C35 1.399 . S
C36 C37 1.396 . S
C36 C39 1.453 . S
C36 C40 1.684 . S
C37 C27 1.723 . S
C37 C36 1.396 . S
C37 C38 1.394 . S
C38 C8 1.723 1_554 S
C38 C34 1.397 . S
C38 C37 1.394 . S
C39 H11 0.982 . S
C39 H15 0.979 . S
C39 H16 0.977 . S
C39 C36 1.453 . S
C40 H12 0.979 . S
C40 H13 0.980 . S
C40 H14 0.983 . S
C40 C36 1.684 . S
H41 C59 0.948 . S
H42 C0 0.948 . S
H43 C18 0.979 . S
H44 C18 0.980 . S
H45 C18 0.983 . S
H46 C17 0.982 . S
H47 C17 0.979 . S
H48 C17 0.977 . S
H49 C19 0.948 . S
H50 C21 0.947 . S
H51 C22 0.948 . S
H52 C28 0.982 . S
H53 C28 0.979 . S
H54 C28 0.977 . S
H55 C29 0.979 . S
H56 C29 0.980 . S
H57 C29 0.983 . S
H58 C2 0.947 . S
C59 C2 1.392 . S
C59 C3 1.419 . S
C59 H41 0.948 . S
C60 C61 1.391 . S
C60 C64 1.391 . S
C60 H102 0.948 . S
C61 C60 1.391 . S
C61 C62 1.391 . S
C62 C61 1.391 . S
C62 H118 0.947 . S
C62 C119 1.392 . S
C63 C64 1.391 . S
C63 C67 1.397 . S
C63 C119 1.419 . S
C64 C60 1.391 . S
C64 C63 1.391 . S
C64 C65 1.399 . S
C65 C64 1.399 . S
C65 C68 1.396 . S
C65 C77 1.453 . S
C65 C78 1.684 . S
H66 C90 0.948 . S
C67 C63 1.397 . S
C67 C68 1.394 . S
C67 C86 1.723 . S
C68 C65 1.396 . S
C68 C67 1.394 . S
C68 C98 1.723 . S
H69 C92 0.947 . S
H70 C93 0.948 . S
H71 C99 0.982 . S
H72 C100 0.979 . S
H73 C100 0.980 . S
H74 C100 0.983 . S
H75 C99 0.979 . S
H76 C99 0.977 . S
C77 C65 1.453 . S
C77 H106 0.982 . S
C77 H107 0.979 . S
C77 H108 0.977 . S
C78 C65 1.684 . S
C78 H103 0.979 . S
C78 H104 0.980 . S
C78 H105 0.983 . S
C79 C80 1.391 . S
C79 C84 1.391 . S
C79 H109 0.948 . S
C80 C79 1.391 . S
C80 C81 1.391 . S
C81 C80 1.391 . S
C81 C82 1.392 . S
C81 H110 0.947 . S
C82 C81 1.392 . S
C82 C83 1.419 . S
C82 H111 0.948 . S
C83 C82 1.419 . S
C83 C84 1.391 . S
C83 C87 1.397 . S
C84 C79 1.391 . S
C84 C83 1.391 . S
C84 C85 1.399 . S
C85 C84 1.399 . S
C85 C86 1.396 . S
C85 C88 1.453 . S
C85 C89 1.684 . S
C86 C67 1.723 . S
C86 C85 1.396 . S
C86 C87 1.394 . S
C87 C83 1.397 . S
C87 C86 1.394 . S
C87 C97 1.723 . S
C88 C85 1.453 . S
C88 H112 0.982 . S
C88 H113 0.979 . S
C88 H114 0.977 . S
C89 C85 1.684 . S
C89 H115 0.979 . S
C89 H116 0.980 . S
C89 H117 0.983 . S
C90 H66 0.948 . S
C90 C91 1.391 . S
C90 C95 1.391 . S
C91 C90 1.391 . S
C91 C92 1.391 . S
C92 H69 0.947 . S
C92 C91 1.391 . S
C92 C93 1.392 . S
C93 H70 0.948 . S
C93 C92 1.392 . S
C93 C94 1.419 . S
C94 C93 1.419 . S
C94 C95 1.391 . S
C94 C98 1.397 . S
C95 C90 1.391 . S
C95 C94 1.391 . S
C95 C96 1.399 . S
C96 C95 1.399 . S
C96 C97 1.396 . S
C96 C99 1.453 . S
C96 C100 1.684 . S
C97 C87 1.723 . S
C97 C96 1.396 . S
C97 C98 1.394 . S
C98 C68 1.723 . S
C98 C94 1.397 . S
C98 C97 1.394 . S
C99 H71 0.982 . S
C99 H75 0.979 . S
C99 H76 0.977 . S
C99 C96 1.453 . S
C100 H72 0.979 . S
C100 H73 0.980 . S
C100 H74 0.983 . S
C100 C96 1.684 . S
H101 C119 0.948 . S
H102 C60 0.948 . S
H103 C78 0.979 . S
H104 C78 0.980 . S
H105 C78 0.983 . S
H106 C77 0.982 . S
H107 C77 0.979 . S
H108 C77 0.977 . S
H109 C79 0.948 . S
H110 C81 0.947 . S
H111 C82 0.948 . S
H112 C88 0.982 . S
H113 C88 0.979 . S
H114 C88 0.977 . S
H115 C89 0.979 . S
H116 C89 0.980 . S
H117 C89 0.983 . S
H118 C62 0.947 . S
C119 C62 1.392 . S
C119 C63 1.419 . S
C119 H101 0.948 . S
C120 C121 1.391 . S
C120 C124 1.391 . S
C120 H162 0.948 . S
C121 C120 1.391 . S
C121 C122 1.391 . S
C122 C121 1.391 . S
C122 H178 0.947 . S
C122 C179 1.392 . S
C123 C124 1.391 . S
C123 C127 1.397 . S
C123 C179 1.419 . S
C124 C120 1.391 . S
C124 C123 1.391 . S
C124 C125 1.399 . S
C125 C124 1.399 . S
C125 C128 1.396 . S
C125 C137 1.453 . S
C125 C138 1.684 . S
H126 C150 0.948 . S
C127 C123 1.397 . S
C127 C128 1.394 . S
C127 C146 1.723 1_554 S
C128 C125 1.396 . S
C128 C127 1.394 . S
C128 C158 1.723 . S
H129 C152 0.947 . S
H130 C153 0.948 . S
H131 C159 0.982 . S
H132 C160 0.979 . S
H133 C160 0.980 . S
H134 C160 0.983 . S
H135 C159 0.979 . S
H136 C159 0.977 . S
C137 C125 1.453 . S
C137 H166 0.982 . S
C137 H167 0.979 . S
C137 H168 0.977 . S
C138 C125 1.684 . S
C138 H163 0.979 . S
C138 H164 0.980 . S
C138 H165 0.983 . S
C139 C140 1.391 . S
C139 C144 1.391 . S
C139 H169 0.948 . S
C140 C139 1.391 . S
C140 C141 1.391 . S
C141 C140 1.391 . S
C141 C142 1.392 . S
C141 H170 0.947 . S
C142 C141 1.392 . S
C142 C143 1.419 . S
C142 H171 0.948 . S
C143 C142 1.419 . S
C143 C144 1.391 . S
C143 C147 1.397 . S
C144 C139 1.391 . S
C144 C143 1.391 . S
C144 C145 1.399 . S
C145 C144 1.399 . S
C145 C146 1.396 . S
C145 C148 1.453 . S
C145 C149 1.684 . S
C146 C127 1.723 1_556 S
C146 C145 1.396 . S
C146 C147 1.394 . S
C147 C143 1.397 . S
C147 C146 1.394 . S
C147 C157 1.723 . S
C148 C145 1.453 . S
C148 H172 0.982 . S
C148 H173 0.979 . S
C148 H174 0.977 1_556 S
C149 C145 1.684 . S
C149 H175 0.979 . S
C149 H176 0.980 1_556 S
C149 H177 0.983 . S
C150 H126 0.948 . S
C150 C151 1.391 1_556 S
C150 C155 1.391 . S
C151 C150 1.391 1_554 S
C151 C152 1.391 . S
C152 H129 0.947 . S
C152 C151 1.391 . S
C152 C153 1.392 . S
C153 H130 0.948 . S
C153 C152 1.392 . S
C153 C154 1.419 . S
C154 C153 1.419 . S
C154 C155 1.391 1_554 S
C154 C158 1.397 . S
C155 C150 1.391 . S
C155 C154 1.391 1_556 S
C155 C156 1.399 . S
C156 C155 1.399 . S
C156 C157 1.396 . S
C156 C159 1.453 . S
C156 C160 1.684 . S
C157 C147 1.723 . S
C157 C156 1.396 . S
C157 C158 1.394 1_556 S
C158 C128 1.723 . S
C158 C154 1.397 . S
C158 C157 1.394 1_554 S
C159 H131 0.982 . S
C159 H135 0.979 . S
C159 H136 0.977 . S
C159 C156 1.453 . S
C160 H132 0.979 . S
C160 H133 0.980 . S
C160 H134 0.983 . S
C160 C156 1.684 . S
H161 C179 0.948 . S
H162 C120 0.948 . S
H163 C138 0.979 . S
H164 C138 0.980 . S
H165 C138 0.983 . S
H166 C137 0.982 . S
H167 C137 0.979 . S
H168 C137 0.977 . S
H169 C139 0.948 . S
H170 C141 0.947 . S
H171 C142 0.948 . S
H172 C148 0.982 . S
H173 C148 0.979 . S
H174 C148 0.977 1_554 S
H175 C149 0.979 . S
H176 C149 0.980 1_554 S
H177 C149 0.983 . S
H178 C122 0.947 . S
C179 C122 1.392 . S
C179 C123 1.419 . S
C179 H161 0.948 . S
C180 C181 1.391 . S
C180 C184 1.391 . S
C180 H222 0.948 . S
C181 C180 1.391 . S
C181 C182 1.391 . S
C182 C181 1.391 . S
C182 H238 0.947 . S
C182 C239 1.392 . S
C183 C184 1.391 . S
C183 C187 1.397 . S
C183 C239 1.419 . S
C184 C180 1.391 . S
C184 C183 1.391 . S
C184 C185 1.399 . S
C185 C184 1.399 . S
C185 C188 1.396 . S
C185 C197 1.453 . S
C185 C198 1.684 . S
H186 C210 0.948 . S
C187 C183 1.397 . S
C187 C188 1.394 . S
C187 C206 1.723 . S
C188 C185 1.396 . S
C188 C187 1.394 . S
C188 C218 1.723 . S
H189 C212 0.947 . S
H190 C213 0.948 . S
H191 C219 0.982 . S
H192 C220 0.979 . S
H193 C220 0.980 . S
H194 C220 0.983 . S
H195 C219 0.979 . S
H196 C219 0.977 . S
C197 C185 1.453 . S
C197 H226 0.982 . S
C197 H227 0.979 . S
C197 H228 0.977 . S
C198 C185 1.684 . S
C198 H223 0.979 . S
C198 H224 0.980 . S
C198 H225 0.983 . S
C199 C200 1.391 . S
C199 C204 1.391 . S
C199 H229 0.948 . S
C200 C199 1.391 . S
C200 C201 1.391 . S
C201 C200 1.391 . S
C201 C202 1.392 . S
C201 H230 0.947 . S
C202 C201 1.392 . S
C202 C203 1.419 . S
C202 H231 0.948 . S
C203 C202 1.419 . S
C203 C204 1.391 . S
C203 C207 1.397 . S
C204 C199 1.391 . S
C204 C203 1.391 . S
C204 C205 1.399 . S
C205 C204 1.399 . S
C205 C206 1.396 . S
C205 C208 1.453 . S
C205 C209 1.684 . S
C206 C187 1.723 . S
C206 C205 1.396 . S
C206 C207 1.394 . S
C207 C203 1.397 . S
C207 C206 1.394 . S
C207 C217 1.723 . S
C208 C205 1.453 . S
C208 H232 0.982 . S
C208 H233 0.979 . S
C208 H234 0.977 . S
C209 C205 1.684 . S
C209 H235 0.979 . S
C209 H236 0.980 . S
C209 H237 0.983 . S
C210 H186 0.948 . S
C210 C211 1.391 . S
C210 C215 1.391 . S
C211 C210 1.391 . S
C211 C212 1.391 . S
C212 H189 0.947 . S
C212 C211 1.391 . S
C212 C213 1.392 . S
C213 H190 0.948 . S
C213 C212 1.392 . S
C213 C214 1.419 . S
C214 C213 1.419 . S
C214 C215 1.391 . S
C214 C218 1.397 . S
C215 C210 1.391 . S
C215 C214 1.391 . S
C215 C216 1.399 . S
C216 C215 1.399 . S
C216 C217 1.396 . S
C216 C219 1.453 . S
C216 C220 1.684 . S
C217 C207 1.723 . S
C217 C216 1.396 . S
C217 C218 1.394 . S
C218 C188 1.723 . S
C218 C214 1.397 . S
C218 C217 1.394 . S
C219 H191 0.982 . S
C219 H195 0.979 . S
C219 H196 0.977 . S
C219 C216 1.453 . S
C220 H192 0.979 . S
C220 H193 0.980 . S
C220 H194 0.983 . S
C220 C216 1.684 . S
H221 C239 0.948 . S
H222 C180 0.948 . S
H223 C198 0.979 . S
H224 C198 0.980 . S
H225 C198 0.983 . S
H226 C197 0.982 . S
H227 C197 0.979 . S
H228 C197 0.977 . S
H229 C199 0.948 . S
H230 C201 0.947 . S
H231 C202 0.948 . S
H232 C208 0.982 . S
H233 C208 0.979 . S
H234 C208 0.977 . S
H235 C209 0.979 . S
H236 C209 0.980 . S
H237 C209 0.983 . S
H238 C182 0.947 . S
C239 C182 1.392 . S
C239 C183 1.419 . S
C239 H221 0.948 . S
C240 O256 1.251 . S
C240 O258 1.254 1_455 S
N241 C242 1.333 . S
N241 C246 1.307 . S
N241 Zn247 2.020 . S
C242 N241 1.333 . S
C242 C243 1.379 . S
C242 H260 0.952 . S
C243 C242 1.379 . S
C243 C244 1.390 . S
C243 H270 0.949 . S
C244 C243 1.390 . S
C244 C245 1.357 . S
C245 C244 1.357 . S
C245 C246 1.370 . S
C245 H271 0.950 . S
C246 N241 1.307 . S
C246 C245 1.370 . S
C246 H264 0.948 . S
Zn247 N241 2.020 . S
Zn247 O256 2.039 1_545 S
Zn247 O262 2.034 1_545 S
Zn247 O266 2.025 . S
Zn247 O268 2.024 . S
C248 O267 1.246 . S
C248 O268 1.249 1_655 S
N249 C250 1.307 . S
N249 C251 1.333 . S
N249 Zn255 2.020 . S
C250 N249 1.307 . S
C250 C254 1.370 . S
C250 H261 0.948 . S
C251 N249 1.333 . S
C251 C252 1.379 . S
C251 H259 0.944 1_565 S
C252 C251 1.379 . S
C252 C253 1.390 . S
C252 H272 0.949 . S
C253 C252 1.390 . S
C253 C254 1.357 . S
C254 C250 1.370 . S
C254 C253 1.357 . S
C254 H273 0.950 . S
Zn255 N249 2.020 . S
Zn255 O258 2.025 . S
Zn255 O263 2.024 . S
Zn255 O265 2.039 1_565 S
Zn255 O267 2.034 1_565 S
O256 C240 1.251 . S
O256 Zn247 2.039 1_565 S
C257 O262 1.246 . S
C257 O263 1.249 1_455 S
O258 C240 1.254 1_655 S
O258 Zn255 2.025 . S
H259 C251 0.944 1_545 S
H260 C242 0.952 . S
H261 C250 0.948 . S
O262 Zn247 2.034 1_565 S
O262 C257 1.246 . S
O263 Zn255 2.024 . S
O263 C257 1.249 1_655 S
H264 C246 0.948 . S
O265 Zn255 2.039 1_545 S
O265 C269 1.251 . S
O266 Zn247 2.025 . S
O266 C269 1.254 1_455 S
O267 C248 1.246 . S
O267 Zn255 2.034 1_545 S
O268 Zn247 2.024 . S
O268 C248 1.249 1_455 S
C269 O265 1.251 . S
C269 O266 1.254 1_655 S
H270 C243 0.949 . S
H271 C245 0.950 . S
H272 C252 0.949 . S
H273 C254 0.950 . S
C274 O290 1.251 . S
C274 O292 1.254 . S
N275 C276 1.332 1_554 S
N275 C280 1.307 . S
N275 Zn281 2.020 . S
C276 N275 1.332 1_556 S
C276 C277 1.380 . S
C276 H294 0.952 . S
C277 C276 1.380 . S
C277 C278 1.390 1_556 S
C277 H304 0.949 . S
C278 C277 1.390 1_554 S
C278 C279 1.357 . S
C279 C278 1.357 . S
C279 C280 1.370 . S
C279 H305 0.950 . S
C280 N275 1.307 . S
C280 C279 1.370 . S
C280 H298 0.948 . S
Zn281 N275 2.020 . S
Zn281 O290 2.039 1_554 S
Zn281 O296 2.034 . S
Zn281 O300 2.025 . S
Zn281 O302 2.024 1_554 S
C282 O301 1.246 . S
C282 O302 1.249 . S
N283 C284 1.312 . S
N283 C285 1.333 . S
N283 Zn289 2.020 . S
C284 N283 1.312 . S
C284 C288 1.371 . S
C284 H295 0.943 1_554 S
C285 N283 1.333 . S
C285 C286 1.379 . S
C285 H293 0.952 . S
C286 C285 1.379 . S
C286 C287 1.390 . S
C286 H306 0.949 . S
C287 C286 1.390 . S
C287 C288 1.357 . S
C288 C284 1.371 . S
C288 C287 1.357 . S
C288 H307 0.950 1_554 S
Zn289 N283 2.020 . S
Zn289 O292 2.025 1_554 S
Zn289 O297 2.024 . S
Zn289 O299 2.039 . S
Zn289 O301 2.034 1_554 S
O290 C274 1.251 . S
O290 Zn281 2.039 1_556 S
C291 O296 1.246 . S
C291 O297 1.249 . S
O292 C274 1.254 . S
O292 Zn289 2.025 1_556 S
H293 C285 0.952 . S
H294 C276 0.952 . S
H295 C284 0.943 1_556 S
O296 Zn281 2.034 . S
O296 C291 1.246 . S
O297 Zn289 2.024 . S
O297 C291 1.249 . S
H298 C280 0.948 . S
O299 Zn289 2.039 . S
O299 C303 1.251 . S
O300 Zn281 2.025 . S
O300 C303 1.254 . S
O301 C282 1.246 . S
O301 Zn289 2.034 1_556 S
O302 Zn281 2.024 1_556 S
O302 C282 1.249 . S
C303 O299 1.251 . S
C303 O300 1.254 . S
H304 C277 0.949 . S
H305 C279 0.950 . S
H306 C286 0.949 . S
H307 C288 0.950 1_556 S
H308 C320 0.930 . S
H309 C322 0.930 . S
H310 C323 0.930 . S
H311 C327 0.959 . S
H312 C327 0.959 . S
H313 C327 0.961 . S
H314 C328 0.960 . S
H315 C328 0.961 . S
H316 C328 0.959 . S
H317 C331 0.929 . S
H318 C332 0.931 . S
H319 C334 0.930 . S
C320 H308 0.930 . S
C320 C321 1.399 . S
C320 C325 1.399 . S
C321 C320 1.399 . S
C321 C322 1.376 . S
C322 H309 0.930 . S
C322 C321 1.376 . S
C322 C323 1.388 . S
C323 H310 0.930 . S
C323 C322 1.388 . S
C323 C324 1.390 . S
C324 C323 1.390 . S
C324 C325 1.394 . S
C324 C330 1.465 . S
C325 C320 1.399 . S
C325 C324 1.394 . S
C325 C326 1.516 . S
C326 C325 1.516 . S
C326 C327 1.502 . S
C326 C328 1.561 . S
C326 C329 1.526 . S
C327 H311 0.959 . S
C327 H312 0.959 . S
C327 H313 0.961 . S
C327 C326 1.502 . S
C328 H314 0.960 . S
C328 H315 0.961 . S
C328 H316 0.959 . S
C328 C326 1.561 . S
C329 C326 1.526 . S
C329 C330 1.396 . S
C329 C334 1.390 . S
C330 C324 1.465 . S
C330 C329 1.396 . S
C330 C331 1.399 . S
C331 H317 0.929 . S
C331 C330 1.399 . S
C331 C332 1.385 . S
C332 H318 0.931 . S
C332 C331 1.385 . S
C332 C333 1.389 . S
C333 C332 1.389 . S
C333 C334 1.387 . S
C334 H319 0.930 . S
C334 C329 1.390 . S
C334 C333 1.387 . S
H335 C347 0.930 . S
H336 C349 0.930 . S
H337 C350 0.930 . S
H338 C354 0.959 . S
H339 C354 0.959 . S
H340 C354 0.961 . S
H341 C355 0.960 . S
H342 C355 0.961 . S
H343 C355 0.959 . S
H344 C358 0.929 . S
H345 C359 0.931 . S
H346 C361 0.930 . S
C347 H335 0.930 . S
C347 C348 1.399 1_556 S
C347 C352 1.399 . S
C348 C347 1.399 1_554 S
C348 C349 1.376 . S
C349 H336 0.930 . S
C349 C348 1.376 . S
C349 C350 1.388 . S
C350 H337 0.930 . S
C350 C349 1.388 . S
C350 C351 1.390 . S
C351 C350 1.390 . S
C351 C352 1.394 1_554 S
C351 C357 1.465 . S
C352 C347 1.399 . S
C352 C351 1.394 1_556 S
C352 C353 1.516 . S
C353 C352 1.516 . S
C353 C354 1.502 . S
C353 C355 1.561 . S
C353 C356 1.526 . S
C354 H338 0.959 . S
C354 H339 0.959 . S
C354 H340 0.961 . S
C354 C353 1.502 . S
C355 H341 0.960 . S
C355 H342 0.961 . S
C355 H343 0.959 . S
C355 C353 1.561 . S
C356 C353 1.526 . S
C356 C357 1.396 1_556 S
C356 C361 1.390 . S
C357 C351 1.465 . S
C357 C356 1.396 1_554 S
C357 C358 1.399 . S
C358 H344 0.929 . S
C358 C357 1.399 . S
C358 C359 1.385 . S
C359 H345 0.931 . S
C359 C358 1.385 . S
C359 C360 1.389 . S
C360 C359 1.389 . S
C360 C361 1.387 1_554 S
C361 H346 0.930 . S
C361 C356 1.390 . S
C361 C360 1.387 1_556 S
H362 C374 0.930 . S
H363 C376 0.930 . S
H364 C377 0.930 . S
H365 C381 0.959 . S
H366 C381 0.959 . S
H367 C381 0.961 . S
H368 C382 0.960 . S
H369 C382 0.961 . S
H370 C382 0.959 . S
H371 C385 0.929 . S
H372 C386 0.931 . S
H373 C388 0.930 . S
C374 H362 0.930 . S
C374 C375 1.399 . S
C374 C379 1.399 . S
C375 C374 1.399 . S
C375 C376 1.376 . S
C376 H363 0.930 . S
C376 C375 1.376 . S
C376 C377 1.388 . S
C377 H364 0.930 . S
C377 C376 1.388 . S
C377 C378 1.390 . S
C378 C377 1.390 . S
C378 C379 1.394 . S
C378 C384 1.465 . S
C379 C374 1.399 . S
C379 C378 1.394 . S
C379 C380 1.516 . S
C380 C379 1.516 . S
C380 C381 1.502 . S
C380 C382 1.561 . S
C380 C383 1.526 . S
C381 H365 0.959 . S
C381 H366 0.959 . S
C381 H367 0.961 . S
C381 C380 1.502 . S
C382 H368 0.960 . S
C382 H369 0.961 . S
C382 H370 0.959 . S
C382 C380 1.561 . S
C383 C380 1.526 . S
C383 C384 1.396 . S
C383 C388 1.390 . S
C384 C378 1.465 . S
C384 C383 1.396 . S
C384 C385 1.399 . S
C385 H371 0.929 . S
C385 C384 1.399 . S
C385 C386 1.385 . S
C386 H372 0.931 . S
C386 C385 1.385 . S
C386 C387 1.389 . S
C387 C386 1.389 . S
C387 C388 1.387 . S
C388 H373 0.930 . S
C388 C383 1.390 . S
C388 C387 1.387 . S
H389 C401 0.930 . S
H390 C403 0.930 . S
H391 C404 0.930 . S
H392 C408 0.959 . S
H393 C408 0.959 . S
H394 C408 0.961 . S
H395 C409 0.960 . S
H396 C409 0.961 . S
H397 C409 0.959 . S
H398 C412 0.929 . S
H399 C413 0.931 . S
H400 C415 0.930 . S
C401 H389 0.930 . S
C401 C402 1.399 . S
C401 C406 1.399 . S
C402 C401 1.399 . S
C402 C403 1.376 1_554 S
C403 H390 0.930 . S
C403 C402 1.376 1_556 S
C403 C404 1.388 . S
C404 H391 0.930 . S
C404 C403 1.388 . S
C404 C405 1.390 . S
C405 C404 1.390 . S
C405 C406 1.394 1_556 S
C405 C411 1.465 . S
C406 C401 1.399 . S
C406 C405 1.394 1_554 S
C406 C407 1.516 . S
C407 C406 1.516 . S
C407 C408 1.502 . S
C407 C409 1.561 . S
C407 C410 1.526 . S
C408 H392 0.959 . S
C408 H393 0.959 . S
C408 H394 0.961 . S
C408 C407 1.502 . S
C409 H395 0.960 . S
C409 H396 0.961 . S
C409 H397 0.959 . S
C409 C407 1.561 . S
C410 C407 1.526 . S
C410 C411 1.396 1_554 S
C410 C415 1.390 . S
C411 C405 1.465 . S
C411 C410 1.396 1_556 S
C411 C412 1.399 . S
C412 H398 0.929 . S
C412 C411 1.399 . S
C412 C413 1.385 . S
C413 H399 0.931 . S
C413 C412 1.385 . S
C413 C414 1.389 1_556 S
C414 C413 1.389 1_554 S
C414 C415 1.387 . S
C415 H400 0.930 . S
C415 C410 1.390 . S
C415 C414 1.387 . S
H416 C428 0.930 . S
H417 C430 0.930 . S
H418 C431 0.930 . S
H419 C435 0.959 . S
H420 C435 0.959 . S
H421 C435 0.961 . S
H422 C436 0.960 . S
H423 C436 0.961 . S
H424 C436 0.959 . S
H425 C439 0.929 . S
H426 C440 0.931 . S
H427 C442 0.930 . S
C428 H416 0.930 . S
C428 C429 1.399 . S
C428 C433 1.399 . S
C429 C428 1.399 . S
C429 C430 1.376 . S
C430 H417 0.930 . S
C430 C429 1.376 . S
C430 C431 1.388 . S
C431 H418 0.930 . S
C431 C430 1.388 . S
C431 C432 1.390 . S
C432 C431 1.390 . S
C432 C433 1.394 . S
C432 C438 1.465 . S
C433 C428 1.399 . S
C433 C432 1.394 . S
C433 C434 1.516 . S
C434 C433 1.516 . S
C434 C435 1.502 . S
C434 C436 1.561 . S
C434 C437 1.526 . S
C435 H419 0.959 . S
C435 H420 0.959 . S
C435 H421 0.961 . S
C435 C434 1.502 . S
C436 H422 0.960 . S
C436 H423 0.961 . S
C436 H424 0.959 . S
C436 C434 1.561 . S
C437 C434 1.526 . S
C437 C438 1.396 . S
C437 C442 1.390 . S
C438 C432 1.465 . S
C438 C437 1.396 . S
C438 C439 1.399 . S
C439 H425 0.929 . S
C439 C438 1.399 . S
C439 C440 1.385 . S
C440 H426 0.931 . S
C440 C439 1.385 . S
C440 C441 1.389 . S
C441 C440 1.389 . S
C441 C442 1.387 . S
C442 H427 0.930 . S
C442 C437 1.390 . S
C442 C441 1.387 . S
H443 C455 0.930 . S
H444 C457 0.930 . S
H445 C458 0.930 . S
H446 C462 0.959 . S
H447 C462 0.959 . S
H448 C462 0.961 . S
H449 C463 0.960 . S
H450 C463 0.961 . S
H451 C463 0.959 . S
H452 C466 0.929 . S
H453 C467 0.931 . S
H454 C469 0.930 . S
C455 H443 0.930 . S
C455 C456 1.399 . S
C455 C460 1.399 . S
C456 C455 1.399 . S
C456 C457 1.376 . S
C457 H444 0.930 . S
C457 C456 1.376 . S
C457 C458 1.388 . S
C458 H445 0.930 . S
C458 C457 1.388 . S
C458 C459 1.390 . S
C459 C458 1.390 . S
C459 C460 1.394 . S
C459 C465 1.465 . S
C460 C455 1.399 . S
C460 C459 1.394 . S
C460 C461 1.516 . S
C461 C460 1.516 . S
C461 C462 1.502 . S
C461 C463 1.561 . S
C461 C464 1.526 . S
C462 H446 0.959 . S
C462 H447 0.959 . S
C462 H448 0.961 . S
C462 C461 1.502 . S
C463 H449 0.960 . S
C463 H450 0.961 . S
C463 H451 0.959 . S
C463 C461 1.561 . S
C464 C461 1.526 . S
C464 C465 1.396 . S
C464 C469 1.390 . S
C465 C459 1.465 . S
C465 C464 1.396 . S
C465 C466 1.399 . S
C466 H452 0.929 . S
C466 C465 1.399 . S
C466 C467 1.385 . S
C467 H453 0.931 . S
C467 C466 1.385 . S
C467 C468 1.389 . S
C468 C467 1.389 . S
C468 C469 1.387 . S
C469 H454 0.930 . S
C469 C464 1.390 . S
C469 C468 1.387 . S
H470 C482 0.930 . S
H471 C484 0.930 . S
H472 C485 0.930 1_455 S
H473 C489 0.959 . S
H474 C489 0.959 . S
H475 C489 0.961 . S
H476 C490 0.960 . S
H477 C490 0.961 . S
H478 C490 0.959 . S
H479 C493 0.929 . S
H480 C494 0.931 . S
H481 C496 0.930 . S
C482 H470 0.930 . S
C482 C483 1.399 . S
C482 C487 1.399 . S
C483 C482 1.399 . S
C483 C484 1.376 . S
C484 H471 0.930 . S
C484 C483 1.376 . S
C484 C485 1.388 . S
C485 H472 0.930 1_655 S
C485 C484 1.388 . S
C485 C486 1.390 . S
C486 C485 1.390 . S
C486 C487 1.394 . S
C486 C492 1.465 . S
C487 C482 1.399 . S
C487 C486 1.394 . S
C487 C488 1.516 . S
C488 C487 1.516 . S
C488 C489 1.502 . S
C488 C490 1.561 . S
C488 C491 1.526 . S
C489 H473 0.959 . S
C489 H474 0.959 . S
C489 H475 0.961 . S
C489 C488 1.502 . S
C490 H476 0.960 . S
C490 H477 0.961 . S
C490 H478 0.959 . S
C490 C488 1.561 . S
C491 C488 1.526 . S
C491 C492 1.396 . S
C491 C496 1.390 . S
C492 C486 1.465 . S
C492 C491 1.396 . S
C492 C493 1.399 1_655 S
C493 H479 0.929 . S
C493 C492 1.399 1_455 S
C493 C494 1.385 . S
C494 H480 0.931 . S
C494 C493 1.385 . S
C494 C495 1.389 1_455 S
C495 C494 1.389 1_655 S
C495 C496 1.387 . S
C496 H481 0.930 . S
C496 C491 1.390 . S
C496 C495 1.387 . S
H497 C509 0.930 . S
H498 C511 0.930 . S
H499 C512 0.930 . S
H500 C516 0.959 . S
H501 C516 0.959 . S
H502 C516 0.961 . S
H503 C517 0.960 . S
H504 C517 0.961 . S
H505 C517 0.959 . S
H506 C520 0.929 . S
H507 C521 0.931 . S
H508 C523 0.930 . S
C509 H497 0.930 . S
C509 C510 1.399 . S
C509 C514 1.399 . S
C510 C509 1.399 . S
C510 C511 1.376 . S
C511 H498 0.930 . S
C511 C510 1.376 . S
C511 C512 1.388 . S
C512 H499 0.930 . S
C512 C511 1.388 . S
C512 C513 1.390 . S
C513 C512 1.390 . S
C513 C514 1.394 . S
C513 C519 1.465 . S
C514 C509 1.399 . S
C514 C513 1.394 . S
C514 C515 1.516 . S
C515 C514 1.516 . S
C515 C516 1.502 . S
C515 C517 1.561 . S
C515 C518 1.526 . S
C516 H500 0.959 . S
C516 H501 0.959 . S
C516 H502 0.961 . S
C516 C515 1.502 . S
C517 H503 0.960 . S
C517 H504 0.961 . S
C517 H505 0.959 . S
C517 C515 1.561 . S
C518 C515 1.526 . S
C518 C519 1.396 . S
C518 C523 1.390 . S
C519 C513 1.465 . S
C519 C518 1.396 . S
C519 C520 1.399 . S
C520 H506 0.929 . S
C520 C519 1.399 . S
C520 C521 1.385 . S
C521 H507 0.931 . S
C521 C520 1.385 . S
C521 C522 1.389 . S
C522 C521 1.389 . S
C522 C523 1.387 . S
C523 H508 0.930 . S
C523 C518 1.390 . S
C523 C522 1.387 . S
H524 C536 0.930 . S
H525 C538 0.930 . S
H526 C539 0.930 . S
H527 C543 0.959 . S
H528 C543 0.959 . S
H529 C543 0.961 . S
H530 C544 0.960 . S
H531 C544 0.961 . S
H532 C544 0.959 . S
H533 C547 0.929 . S
H534 C548 0.931 . S
H535 C550 0.930 . S
C536 H524 0.930 . S
C536 C537 1.399 . S
C536 C541 1.399 . S
C537 C536 1.399 . S
C537 C538 1.376 . S
C538 H525 0.930 . S
C538 C537 1.376 . S
C538 C539 1.388 . S
C539 H526 0.930 . S
C539 C538 1.388 . S
C539 C540 1.390 . S
C540 C539 1.390 . S
C540 C541 1.394 . S
C540 C546 1.465 . S
C541 C536 1.399 . S
C541 C540 1.394 . S
C541 C542 1.516 . S
C542 C541 1.516 . S
C542 C543 1.502 . S
C542 C544 1.561 . S
C542 C545 1.526 . S
C543 H527 0.959 . S
C543 H528 0.959 . S
C543 H529 0.961 . S
C543 C542 1.502 . S
C544 H530 0.960 . S
C544 H531 0.961 . S
C544 H532 0.959 . S
C544 C542 1.561 . S
C545 C542 1.526 . S
C545 C546 1.396 . S
C545 C550 1.390 . S
C546 C540 1.465 . S
C546 C545 1.396 . S
C546 C547 1.399 . S
C547 H533 0.929 . S
C547 C546 1.399 . S
C547 C548 1.385 . S
C548 H534 0.931 . S
C548 C547 1.385 . S
C548 C549 1.389 . S
C549 C548 1.389 . S
C549 C550 1.387 . S
C550 H535 0.930 . S
C550 C545 1.390 . S
C550 C549 1.387 . S
H551 C563 0.930 . S
H552 C565 0.930 . S
H553 C566 0.930 1_455 S
H554 C570 0.959 . S
H555 C570 0.959 . S
H556 C570 0.961 . S
H557 C571 0.960 . S
H558 C571 0.961 . S
H559 C571 0.959 . S
H560 C574 0.947 . S
H561 C575 0.931 . S
H562 C577 0.930 . S
C563 H551 0.930 . S
C563 C564 1.399 . S
C563 C568 1.399 . S
C564 C563 1.399 . S
C564 C565 1.376 . S
C565 H552 0.930 . S
C565 C564 1.376 . S
C565 C566 1.388 . S
C566 H553 0.930 1_655 S
C566 C565 1.388 . S
C566 C567 1.390 . S
C567 C566 1.390 . S
C567 C568 1.394 . S
C567 C573 1.465 . S
C568 C563 1.399 . S
C568 C567 1.394 . S
C568 C569 1.516 . S
C569 C568 1.516 . S
C569 C570 1.502 . S
C569 C571 1.561 . S
C569 C572 1.526 . S
C570 H554 0.959 . S
C570 H555 0.959 . S
C570 H556 0.961 . S
C570 C569 1.502 . S
C571 H557 0.960 . S
C571 H558 0.961 . S
C571 H559 0.959 . S
C571 C569 1.561 . S
C572 C569 1.526 . S
C572 C573 1.396 . S
C572 C577 1.390 . S
C573 C567 1.465 . S
C573 C572 1.396 . S
C573 C574 1.380 1_655 S
C574 H560 0.947 . S
C574 C573 1.380 1_455 S
C574 C575 1.386 . S
C575 H561 0.931 . S
C575 C574 1.386 . S
C575 C576 1.389 1_455 S
C576 C575 1.389 1_655 S
C576 C577 1.387 . S
C577 H562 0.930 . S
C577 C572 1.390 . S
C577 C576 1.387 . S
H578 C590 0.930 . S
H579 C592 0.930 . S
H580 C593 0.930 . S
H581 C597 0.959 . S
H582 C597 0.959 . S
H583 C597 0.961 . S
H584 C598 0.960 . S
H585 C598 0.961 . S
H586 C598 0.959 . S
H587 C601 0.929 . S
H588 C602 0.931 . S
H589 C604 0.930 . S
C590 H578 0.930 . S
C590 C591 1.399 . S
C590 C595 1.399 . S
C591 C590 1.399 . S
C591 C592 1.376 . S
C592 H579 0.930 . S
C592 C591 1.376 . S
C592 C593 1.388 . S
C593 H580 0.930 . S
C593 C592 1.388 . S
C593 C594 1.390 . S
C594 C593 1.390 . S
C594 C595 1.394 . S
C594 C600 1.465 . S
C595 C590 1.399 . S
C595 C594 1.394 . S
C595 C596 1.516 . S
C596 C595 1.516 . S
C596 C597 1.502 . S
C596 C598 1.561 . S
C596 C599 1.526 . S
C597 H581 0.959 . S
C597 H582 0.959 . S
C597 H583 0.961 . S
C597 C596 1.502 . S
C598 H584 0.960 . S
C598 H585 0.961 . S
C598 H586 0.959 . S
C598 C596 1.561 . S
C599 C596 1.526 . S
C599 C600 1.396 . S
C599 C604 1.390 . S
C600 C594 1.465 . S
C600 C599 1.396 . S
C600 C601 1.399 . S
C601 H587 0.929 . S
C601 C600 1.399 . S
C601 C602 1.385 . S
C602 H588 0.931 . S
C602 C601 1.385 . S
C602 C603 1.389 . S
C603 C602 1.389 . S
C603 C604 1.387 . S
C604 H589 0.930 . S
C604 C599 1.390 . S
C604 C603 1.387 . S
H605 C617 0.930 . S
H606 C619 0.930 . S
H607 C620 0.930 . S
H608 C624 0.959 . S
H609 C624 0.959 . S
H610 C624 0.961 . S
H611 C625 0.960 . S
H612 C625 0.961 . S
H613 C625 0.959 . S
H614 C628 0.929 . S
H615 C629 0.931 . S
H616 C631 0.930 . S
C617 H605 0.930 . S
C617 C618 1.399 . S
C617 C622 1.399 . S
C618 C617 1.399 . S
C618 C619 1.376 . S
C619 H606 0.930 . S
C619 C618 1.376 . S
C619 C620 1.388 . S
C620 H607 0.930 . S
C620 C619 1.388 . S
C620 C621 1.390 . S
C621 C620 1.390 . S
C621 C622 1.394 . S
C621 C627 1.465 . S
C622 C617 1.399 . S
C622 C621 1.394 . S
C622 C623 1.516 . S
C623 C622 1.516 . S
C623 C624 1.502 1_455 S
C623 C625 1.561 . S
C623 C626 1.526 . S
C624 H608 0.959 . S
C624 H609 0.959 . S
C624 H610 0.961 . S
C624 C623 1.502 1_655 S
C625 H611 0.960 . S
C625 H612 0.961 . S
C625 H613 0.959 . S
C625 C623 1.561 . S
C626 C623 1.526 . S
C626 C627 1.396 . S
C626 C631 1.390 . S
C627 C621 1.465 . S
C627 C626 1.396 . S
C627 C628 1.399 . S
C628 H614 0.929 . S
C628 C627 1.399 . S
C628 C629 1.385 . S
C629 H615 0.931 . S
C629 C628 1.385 . S
C629 C630 1.389 . S
C630 C629 1.389 . S
C630 C631 1.387 . S
C631 H616 0.930 . S
C631 C626 1.390 . S
C631 C630 1.387 . S
C333 C244 1.653 . S
C321 C211 1.522 . S
C348 C31 1.556 . S
C360 C287 1.581 . S
C375 C91 1.621 . S
C387 C253 1.645 . S
C402 C151 1.544 . S
C414 C278 1.568 . S
C441 C240 1.641 . S
C429 C20 1.622 . S
C468 C282 1.738 . S
C456 C61 1.654 . S
C483 C121 1.531 . S
C495 C248 1.612 . S
C510 C200 1.640 . S
C522 C274 1.727 . S
C549 C303 1.716 . S
C537 C80 1.722 . S
C576 C269 1.624 . S
C564 C140 1.607 . S
C603 C291 1.738 . S
C591 C181 1.576 . S
C618 C1 1.602 . S
C630 C257 1.621 . S
