# Generated by pormake.
# Topology anh, (6,3)-cn, num edge types: 1
# Building blocks:
#     Node 0, Type 0, BuildingBlock: BETFAJ_clean_sbu_0, # of connection points: 6
#     Node 1, Type 0, BuildingBlock: BETFAJ_clean_sbu_0, # of connection points: 6
#     Node 2, Type 0, BuildingBlock: BETFAJ_clean_sbu_0, # of connection points: 6
#     Node 3, Type 1, BuildingBlock: MIDCAF_clean_linker_0, # of connection points: 3
#     Node 4, Type 1, BuildingBlock: MIDCAF_clean_linker_0, # of connection points: 3
#     Node 5, Type 1, BuildingBlock: MIDCAF_clean_linker_0, # of connection points: 3
#     Node 6, Type 1, BuildingBlock: MIDCAF_clean_linker_0, # of connection points: 3
#     Node 7, Type 1, BuildingBlock: MIDCAF_clean_linker_0, # of connection points: 3
#     Node 8, Type 1, BuildingBlock: MIDCAF_clean_linker_0, # of connection points: 3
#     Edge 9, Type (0, 1), BuildingBlock: KIFKEQ_clean_linker_1, # of connection points: 2
#     Edge 10, Type (0, 1), BuildingBlock: KIFKEQ_clean_linker_1, # of connection points: 2
#     Edge 11, Type (0, 1), BuildingBlock: KIFKEQ_clean_linker_1, # of connection points: 2
#     Edge 12, Type (0, 1), BuildingBlock: KIFKEQ_clean_linker_1, # of connection points: 2
#     Edge 13, Type (0, 1), BuildingBlock: KIFKEQ_clean_linker_1, # of connection points: 2
#     Edge 14, Type (0, 1), BuildingBlock: KIFKEQ_clean_linker_1, # of connection points: 2
#     Edge 15, Type (0, 1), BuildingBlock: KIFKEQ_clean_linker_1, # of connection points: 2
#     Edge 16, Type (0, 1), BuildingBlock: KIFKEQ_clean_linker_1, # of connection points: 2
#     Edge 17, Type (0, 1), BuildingBlock: KIFKEQ_clean_linker_1, # of connection points: 2
#     Edge 18, Type (0, 1), BuildingBlock: KIFKEQ_clean_linker_1, # of connection points: 2
#     Edge 19, Type (0, 1), BuildingBlock: KIFKEQ_clean_linker_1, # of connection points: 2
#     Edge 20, Type (0, 1), BuildingBlock: KIFKEQ_clean_linker_1, # of connection points: 2
#     Edge 21, Type (0, 1), BuildingBlock: KIFKEQ_clean_linker_1, # of connection points: 2
#     Edge 22, Type (0, 1), BuildingBlock: KIFKEQ_clean_linker_1, # of connection points: 2
#     Edge 23, Type (0, 1), BuildingBlock: KIFKEQ_clean_linker_1, # of connection points: 2
#     Edge 24, Type (0, 1), BuildingBlock: KIFKEQ_clean_linker_1, # of connection points: 2
#     Edge 25, Type (0, 1), BuildingBlock: KIFKEQ_clean_linker_1, # of connection points: 2
#     Edge 26, Type (0, 1), BuildingBlock: KIFKEQ_clean_linker_1, # of connection points: 2
# Relax obj value: 0.182
# Max RMSD: 0.208
# Mean RMSD: 0.156
data_MOF--net-anh--node1-BETFAJ_clean_sbu_0--node2-MIDCAF_clean_linker_0--edge1-KIFKEQ_clean_linker_1
_symmetry_space_group_name_H-M    P1
_symmetry_Int_Tables_number       1
_symmetry_cell_setting            triclinic
loop_
_symmetry_equiv_pos_as_xyz
'x, y, z'
_cell_length_a     39.12935
_cell_length_b     44.339881
_cell_length_c     67.463976
_cell_angle_alpha  92.044343
_cell_angle_beta   90.007714
_cell_angle_gamma 128.71803
loop_
_atom_site_label
_atom_site_type_symbol
_atom_site_fract_x
_atom_site_fract_y
_atom_site_fract_z
_atom_type_partial_charge
Sm0 Sm 0.06982 0.50695 0.14266 0.0
Sm1 Sm 1.02028 0.53537 0.15278 0.0
C2 C 0.12452 0.49561 0.12932 0.0
C3 C 0.16888 0.51083 0.13581 0.0
C4 C 0.20493 0.55046 0.13532 0.0
C5 C 0.24587 0.56448 0.14307 0.0
C6 C 0.25116 0.53921 0.15167 0.0
C7 C 0.21522 0.49965 0.15198 0.0
C8 C 0.1746 0.48558 0.14401 0.0
C9 C 0.0561 0.50763 0.18259 0.0
C10 C 0.12449 0.60223 0.15074 0.0
C11 C 0.96552 0.54389 0.16946 0.0
C12 C 0.92103 0.51536 0.17666 0.0
C13 C 0.90754 0.47974 0.18324 0.0
C14 C 0.86342 0.44997 0.18667 0.0
C15 C 0.83228 0.45561 0.1839 0.0
C16 C 0.84633 0.49215 0.1786 0.0
C17 C 0.8904 0.52174 0.17489 0.0
C18 C 0.03573 0.53632 0.11291 0.0
C19 C 0.96667 0.44108 0.14586 0.0
O20 O 0.12029 0.51968 0.12138 0.0
O21 O 0.0936 0.47293 0.14166 0.0
O22 O 0.06712 0.53394 0.1711 0.0
O23 O 0.05429 0.48057 0.17337 0.0
O24 O 0.12483 0.57426 0.14341 0.0
O25 O 0.088 0.59447 0.15714 0.0
O26 O 0.99679 0.54766 0.17937 0.0
O27 O 0.96925 0.54271 0.15024 0.0
O28 O 1.024 0.50908 0.124 0.0
O29 O 0.03759 0.56328 0.12252 0.0
O30 O 0.96868 0.46878 0.15528 0.0
O31 O 1.0008 0.44935 0.13627 0.0
H32 H 0.20149 0.57071 0.1292 0.0
H33 H 0.27325 0.59506 0.14254 0.0
H34 H 0.21872 0.47942 0.1581 0.0
H35 H 0.14738 0.45495 0.14454 0.0
H36 H 0.93075 0.47432 0.18494 0.0
H37 H 0.8534 0.42212 0.19078 0.0
H38 H 0.82288 0.4971 0.17611 0.0
H39 H 0.90019 0.54895 0.16976 0.0
Sm40 Sm 0.58524 0.01349 0.47584 0.0
Sm41 Sm 0.53303 0.03953 0.46748 0.0
C42 C 0.61724 0.98039 0.49014 0.0
C43 C 0.60649 0.94209 0.49172 0.0
C44 C 0.56863 0.91161 0.5011 0.0
C45 C 0.56104 0.87664 0.50361 0.0
C46 C 0.59105 0.87134 0.49677 0.0
C47 C 0.62823 0.90159 0.4869 0.0
C48 C 0.6359 0.93655 0.48449 0.0
C49 C 0.58115 0.02405 0.43622 0.0
C50 C 0.47845 0.94764 0.46644 0.0
C51 C 0.50111 0.07465 0.45652 0.0
C52 C 0.50507 0.10874 0.46368 0.0
C53 C 0.51901 0.13846 0.4508 0.0
C54 C 0.52307 0.17094 0.45736 0.0
C55 C 0.5129 0.1742 0.47693 0.0
C56 C 0.499 0.1444 0.4898 0.0
C57 C 0.49527 0.11212 0.48329 0.0
C58 C 0.54001 0.03083 0.50725 0.0
C59 C 0.64121 0.10525 0.47241 0.0
O60 O 0.59487 0.98768 0.50067 0.0
O61 O 0.62589 0.99447 0.47252 0.0
O62 O 0.54917 0.00833 0.44767 0.0
O63 O 0.61572 0.03272 0.44526 0.0
O64 O 0.51307 0.95611 0.47617 0.0
O65 O 0.48042 0.97526 0.4582 0.0
O66 O 0.53591 0.08155 0.4488 0.0
O67 O 0.48024 0.04476 0.46769 0.0
O68 O 0.57087 0.04642 0.49527 0.0
O69 O 0.50457 0.02079 0.4986 0.0
O70 O 0.60446 0.09569 0.4646 0.0
O71 O 0.64171 0.07901 0.48075 0.0
H72 H 0.54527 0.91497 0.50682 0.0
H73 H 0.53229 0.85421 0.51144 0.0
H74 H 0.65165 0.89838 0.48109 0.0
H75 H 0.66528 0.95956 0.47719 0.0
H76 H 0.52674 0.13654 0.43562 0.0
H77 H 0.53356 0.19325 0.44704 0.0
H78 H 0.49156 0.14627 0.50504 0.0
H79 H 0.48482 0.08991 0.49367 0.0
Sm80 Sm 0.59421 0.56531 0.84353 0.0
Sm81 Sm 0.53438 0.47998 0.84598 0.0
C82 C 0.6331 0.63712 0.83286 0.0
C83 C 0.62297 0.66361 0.82922 0.0
C84 C 0.5846 0.65094 0.81884 0.0
C85 C 0.57728 0.6772 0.81442 0.0
C86 C 0.60799 0.71665 0.82039 0.0
C87 C 0.64575 0.72892 0.83126 0.0
C88 C 0.65316 0.70272 0.83556 0.0
C89 C 0.58258 0.54085 0.88131 0.0
C90 C 0.48378 0.5192 0.84745 0.0
C91 C 0.49621 0.40684 0.85363 0.0
C92 C 0.5051 0.37957 0.84886 0.0
C93 C 0.47689 0.34164 0.85529 0.0
C94 C 0.48415 0.31515 0.8502 0.0
C95 C 0.51987 0.32608 0.83854 0.0
C96 C 0.54836 0.3644 0.83233 0.0
C97 C 0.541 0.39081 0.83741 0.0
C98 C 0.54707 0.50436 0.80792 0.0
C99 C 0.64564 0.52689 0.84542 0.0
O100 O 0.61654 0.60768 0.82021 0.0
O101 O 0.63265 0.62837 0.85121 0.0
O102 O 0.55246 0.52652 0.86826 0.0
O103 O 0.62018 0.57034 0.875 0.0
O104 O 0.52341 0.55079 0.84236 0.0
O105 O 0.48002 0.48798 0.85174 0.0
O106 O 0.52404 0.43609 0.86593 0.0
O107 O 0.48484 0.41694 0.83861 0.0
O108 O 0.57685 0.51856 0.82114 0.0
O109 O 0.50943 0.47558 0.8144 0.0
O110 O 0.60495 0.49445 0.84832 0.0
O111 O 0.65053 0.55888 0.84177 0.0
H112 H 0.56053 0.62086 0.8139 0.0
H113 H 0.54756 0.6666 0.80627 0.0
H114 H 0.67031 0.75908 0.83593 0.0
H115 H 0.68302 0.7132 0.84355 0.0
H116 H 0.44901 0.3324 0.86416 0.0
H117 H 0.46185 0.28613 0.85548 0.0
H118 H 0.57584 0.37381 0.82313 0.0
H119 H 0.56303 0.41989 0.83216 0.0
C120 C 0.40015 0.9029 0.18505 0.0
C121 C 0.40283 0.88205 0.16981 0.0
C122 C 0.44365 0.8998 0.16091 0.0
C123 C 0.48093 0.93717 0.16743 0.0
H124 H 0.58274 0.1067 0.17278 0.0
H125 H 0.64509 0.17054 0.1615 0.0
H126 H 0.73341 0.14858 0.1792 0.0
H127 H 0.6713 0.08551 0.19101 0.0
H128 H 0.60513 0.08962 0.24927 0.0
H129 H 0.60795 0.09009 0.28558 0.0
H130 H 0.51691 0.96528 0.28317 0.0
H131 H 0.51352 0.9646 0.24705 0.0
H132 H 0.43427 0.95405 0.20411 0.0
H133 H 0.36953 0.89013 0.19239 0.0
H134 H 0.44683 0.8846 0.14909 0.0
H135 H 0.51215 0.94961 0.16077 0.0
N136 N 0.55069 0.02391 0.18276 0.0
N137 N 0.58882 0.05694 0.21295 0.0
N138 N 0.52145 0.99467 0.21318 0.0
C139 C 0.58624 0.05611 0.1928 0.0
C140 C 0.55654 0.02631 0.22324 0.0
C141 C 0.51807 0.99294 0.19308 0.0
C142 C 0.62214 0.09091 0.18244 0.0
C143 C 0.61539 0.11523 0.17379 0.0
C144 C 0.65112 0.15189 0.16754 0.0
C145 C 0.69428 0.16468 0.16944 0.0
C146 C 0.70065 0.13954 0.17735 0.0
C147 C 0.66509 0.10337 0.18405 0.0
C148 C 0.55913 0.02708 0.24523 0.0
C149 C 0.58577 0.06229 0.25648 0.0
C150 C 0.58718 0.0626 0.27726 0.0
C151 C 0.56265 0.02772 0.28716 0.0
C152 C 0.53633 0.99258 0.27592 0.0
C153 C 0.5343 0.99226 0.25522 0.0
C154 C 0.47829 0.95709 0.18326 0.0
C155 C 0.43734 0.93961 0.19178 0.0
C156 C 0.56619 0.41851 0.55547 0.0
C157 C 0.55187 0.40811 0.53549 0.0
C158 C 0.5441 0.43047 0.52521 0.0
C159 C 0.54935 0.46176 0.53487 0.0
H160 H 0.57234 0.57063 0.52687 0.0
H161 H 0.57032 0.61841 0.51102 0.0
H162 H 0.54701 0.64998 0.56773 0.0
H163 H 0.54862 0.60256 0.58345 0.0
H164 H 0.5717 0.58322 0.62219 0.0
H165 H 0.57535 0.58621 0.6583 0.0
H166 H 0.58383 0.49363 0.65719 0.0
H167 H 0.58086 0.49087 0.62105 0.0
H168 H 0.58194 0.45619 0.58057 0.0
H169 H 0.57352 0.40261 0.56376 0.0
H170 H 0.53281 0.42317 0.50983 0.0
H171 H 0.54221 0.47784 0.52663 0.0
N172 N 0.56243 0.52751 0.55625 0.0
N173 N 0.56855 0.55806 0.58674 0.0
N174 N 0.57012 0.50621 0.58608 0.0
C175 C 0.56401 0.55534 0.56663 0.0
C176 C 0.57173 0.53375 0.5966 0.0
C177 C 0.56545 0.50275 0.56595 0.0
C178 C 0.56084 0.58277 0.55647 0.0
C179 C 0.56643 0.58756 0.53591 0.0
C180 C 0.5655 0.61506 0.52684 0.0
C181 C 0.55839 0.63794 0.5381 0.0
C182 C 0.55196 0.63252 0.55855 0.0
C183 C 0.55327 0.60544 0.5676 0.0
C184 C 0.57574 0.53664 0.61862 0.0
C185 C 0.5746 0.56359 0.62958 0.0
C186 C 0.5765 0.56524 0.65032 0.0
C187 C 0.57973 0.54008 0.66064 0.0
C188 C 0.58183 0.51372 0.6497 0.0
C189 C 0.57981 0.51197 0.62895 0.0
C190 C 0.56242 0.47133 0.55504 0.0
C191 C 0.57127 0.44953 0.5651 0.0
C192 C 0.91853 0.4926 0.85085 0.0
C193 C 0.92176 0.52648 0.85367 0.0
C194 C 0.96534 0.56051 0.85857 0.0
C195 C 1.00189 0.56046 0.86106 0.0
H196 H 0.16311 0.56247 0.84075 0.0
H197 H 0.22538 0.56208 0.83568 0.0
H198 H 0.17257 0.47387 0.87835 0.0
H199 H 0.11133 0.47395 0.88285 0.0
H200 H 0.09009 0.49761 0.92532 0.0
H201 H 0.08735 0.49916 0.9616 0.0
H202 H 1.03213 0.55804 0.95889 0.0
H203 H 0.03403 0.55595 0.92269 0.0
H204 H 0.94916 0.46523 0.85213 0.0
H205 H 0.88701 0.46515 0.84707 0.0
H206 H 0.97158 0.58773 0.8614 0.0
H207 H 1.03306 0.58727 0.86608 0.0
N208 N 0.06467 0.52278 0.85834 0.0
N209 N 0.09176 0.52229 0.88962 0.0
N210 N 0.03528 0.52693 0.88809 0.0
C211 C 0.09427 0.5214 0.86952 0.0
C212 C 0.06321 0.52531 0.89897 0.0
C213 C 0.0343 0.52533 0.86795 0.0
C214 C 0.12952 0.51732 0.8619 0.0
C215 C 0.16375 0.54195 0.8486 0.0
C216 C 0.20076 0.54214 0.84596 0.0
C217 C 0.20645 0.51785 0.85645 0.0
C218 C 0.17157 0.49302 0.8694 0.0
C219 C 0.13515 0.49296 0.87203 0.0
C220 C 0.06226 0.52664 0.92105 0.0
C221 C 0.07741 0.51093 0.93245 0.0
C222 C 0.07564 0.51162 0.95322 0.0
C223 C 0.05959 0.52877 0.96308 0.0
C224 C 0.04492 0.54484 0.95172 0.0
C225 C 0.04583 0.54345 0.93096 0.0
C226 C 0.9986 0.52669 0.85842 0.0
C227 C 0.95531 0.49267 0.85332 0.0
C228 C 0.16192 0.66436 0.43515 0.0
C229 C 0.19501 0.67004 0.44722 0.0
C230 C 0.18733 0.63707 0.45486 0.0
C231 C 0.14889 0.59948 0.44945 0.0
H232 H 1.02301 0.45472 0.45837 0.0
H233 H 0.96214 0.39155 0.47126 0.0
H234 H 0.87307 0.38254 0.42898 0.0
H235 H 0.93311 0.44441 0.41611 0.0
H236 H 1.00276 0.4578 0.37021 0.0
H237 H 1.00171 0.45638 0.33411 0.0
H238 H 0.08355 0.58125 0.33582 0.0
H239 H 0.08611 0.58266 0.37186 0.0
H240 H 0.1005 0.62406 0.41951 0.0
H241 H 0.16572 0.68879 0.42943 0.0
H242 H 0.21197 0.64017 0.46419 0.0
H243 H 0.14503 0.57465 0.45456 0.0
N244 N 0.05239 0.52349 0.4365 0.0
N245 N 1.0171 0.48947 0.40608 0.0
N246 N 0.07906 0.5545 0.40623 0.0
C247 C 1.01917 0.49005 0.42623 0.0
C248 C 0.04703 0.52138 0.39596 0.0
C249 C 0.08237 0.55602 0.42633 0.0
C250 C 0.9829 0.45463 0.43624 0.0
C251 C 0.99026 0.43939 0.45211 0.0
C252 C 0.9555 0.40311 0.45935 0.0
C253 C 0.91262 0.38194 0.45117 0.0
C254 C 0.90541 0.39805 0.43578 0.0
C255 C 0.93998 0.43357 0.42835 0.0
C256 C 0.04471 0.52034 0.37396 0.0
C257 C 1.02043 0.48495 0.36288 0.0
C258 C 1.01963 0.48415 0.34212 0.0
C259 C 0.04262 0.51872 0.3319 0.0
C260 C 0.06618 0.55406 0.34307 0.0
C261 C 0.06745 0.55487 0.3638 0.0
C262 C 0.11754 0.59422 0.43626 0.0
C263 C 0.1241 0.62714 0.42965 0.0
C264 C 0.57209 0.13875 0.76424 0.0
C265 C 0.56254 0.13524 0.78449 0.0
C266 C 0.55586 0.10446 0.79431 0.0
C267 C 0.55866 0.07789 0.78404 0.0
H268 H 0.58801 0.99581 0.78883 0.0
H269 H 0.59448 0.94906 0.80256 0.0
H270 H 0.5595 0.88953 0.74503 0.0
H271 H 0.55418 0.93617 0.73134 0.0
H272 H 0.5661 0.97844 0.69306 0.0
H273 H 0.56348 0.97933 0.65699 0.0
H274 H 0.56942 0.07991 0.66197 0.0
H275 H 0.57113 0.07867 0.69793 0.0
H276 H 0.58172 0.11613 0.73839 0.0
H277 H 0.57675 0.1616 0.75607 0.0
H278 H 0.5487 0.10102 0.80994 0.0
H279 H 0.55309 0.05444 0.79199 0.0
N280 N 0.56937 0.02573 0.76098 0.0
N281 N 0.56955 1.00087 0.72961 0.0
N282 N 0.56864 0.05303 0.73191 0.0
C283 C 0.5698 0.99969 0.74974 0.0
C284 C 0.56903 0.02741 0.72055 0.0
C285 C 0.56873 0.05258 0.75205 0.0
C286 C 0.57106 0.97021 0.7589 0.0
C287 C 0.58156 0.97264 0.77916 0.0
C288 C 0.58514 0.94572 0.78705 0.0
C289 C 0.57818 0.9157 0.77487 0.0
C290 C 0.56634 0.91275 0.7548 0.0
C291 C 0.563 0.93956 0.74694 0.0
C292 C 0.5686 0.02836 0.69852 0.0
C293 C 0.56692 1.00081 0.6865 0.0
C294 C 0.56568 1.00144 0.66577 0.0
C295 C 0.56608 0.02961 0.65653 0.0
C296 C 0.56833 0.05741 0.66855 0.0
C297 C 0.56954 0.05679 0.68924 0.0
C298 C 0.56772 0.0813 0.76369 0.0
C299 C 0.5746 0.11227 0.75402 0.0
C300 C 0.53773 0.33799 0.11888 0.0
C301 C 0.54939 0.34453 0.13924 0.0
C302 C 0.54036 0.36552 0.15101 0.0
C303 C 0.52419 0.38258 0.1424 0.0
H304 H 0.48567 0.4485 0.15595 0.0
H305 H 0.46866 0.48461 0.17568 0.0
H306 H 0.48707 0.5486 0.12443 0.0
H307 H 0.50469 0.51336 0.10489 0.0
H308 H 0.50081 0.48165 0.06371 0.0
H309 H 0.51316 0.49549 0.02888 0.0
H310 H 0.53837 0.4141 0.02027 0.0
H311 H 0.52567 0.39972 0.05544 0.0
H312 H 0.51603 0.35196 0.09429 0.0
H313 H 0.54303 0.32109 0.10942 0.0
H314 H 0.54908 0.37167 0.16668 0.0
H315 H 0.52018 0.40035 0.15189 0.0
N316 N 0.50409 0.42702 0.12408 0.0
N317 N 0.50317 0.45606 0.09609 0.0
N318 N 0.51151 0.40825 0.09241 0.0
C319 C 0.50107 0.45286 0.11603 0.0
C320 C 0.50824 0.43392 0.08414 0.0
C321 C 0.50924 0.40454 0.11242 0.0
C322 C 0.49563 0.47744 0.12871 0.0
C323 C 0.48683 0.47075 0.14899 0.0
C324 C 0.47719 0.49148 0.16032 0.0
C325 C 0.47637 0.51937 0.15162 0.0
C326 C 0.48798 0.52773 0.1317 0.0
C327 C 0.49746 0.50701 0.12039 0.0
C328 C 0.51268 0.4398 0.06251 0.0
C329 C 0.50881 0.46644 0.0545 0.0
C330 C 0.51609 0.47459 0.03451 0.0
C331 C 0.52732 0.45629 0.02194 0.0
C332 C 0.52969 0.42859 0.02966 0.0
C333 C 0.52254 0.42047 0.04979 0.0
C334 C 0.51715 0.3796 0.12176 0.0
C335 C 0.52212 0.35562 0.11019 0.0
H336 H 0.32838 0.58327 0.1327 0.0
H337 H 0.2711 0.52544 0.18723 0.0
H338 H 0.39415 0.59124 0.14085 0.0
H339 H 0.33765 0.53441 0.19585 0.0
H340 H 0.50365 0.59352 0.15214 0.0
H341 H 0.45821 0.61246 0.15974 0.0
H342 H 0.35812 0.49851 0.18103 0.0
H343 H 0.40325 0.48002 0.17366 0.0
C344 C 0.33067 0.57368 0.14683 0.0
C345 C 0.29446 0.55296 0.15912 0.0
C346 C 0.36852 0.57843 0.15162 0.0
C347 C 0.37088 0.56275 0.16886 0.0
C348 C 0.33645 0.546 0.18224 0.0
C349 C 0.29841 0.54086 0.17733 0.0
C350 C 0.47248 0.57303 0.15903 0.0
C351 C 0.45656 0.535 0.16186 0.0
C352 C 0.44646 0.58385 0.16336 0.0
C353 C 0.40407 0.55674 0.17052 0.0
C354 C 0.39061 0.52031 0.17561 0.0
C355 C 0.41661 0.50958 0.17134 0.0
H356 H 0.72408 0.13966 0.48823 0.0
H357 H 0.65173 0.16393 0.45353 0.0
H358 H 0.79054 0.20677 0.48557 0.0
H359 H 0.71764 0.22987 0.45033 0.0
H360 H 0.83011 0.35536 0.46013 0.0
H361 H 0.76649 0.28984 0.46723 0.0
H362 H 0.84589 0.25309 0.46371 0.0
H363 H 0.91007 0.3194 0.45719 0.0
C364 C 0.72227 0.15919 0.48002 0.0
C365 C 0.68224 0.14616 0.4712 0.0
C366 C 0.76053 0.19774 0.47838 0.0
C367 C 0.75984 0.2243 0.46784 0.0
C368 C 0.71971 0.21095 0.45899 0.0
C369 C 0.68166 0.17272 0.4607 0.0
C370 C 0.8341 0.33338 0.46104 0.0
C371 C 0.87522 0.3427 0.45793 0.0
C372 C 0.79743 0.29555 0.46498 0.0
C373 C 0.8004 0.26552 0.46569 0.0
C374 C 0.84204 0.27521 0.4634 0.0
C375 C 0.87898 0.31333 0.45965 0.0
H376 H 0.57855 0.72102 0.78461 0.0
H377 H 0.62343 0.77719 0.84302 0.0
H378 H 0.57093 0.76887 0.7746 0.0
H379 H 0.61666 0.82571 0.83283 0.0
H380 H 0.55552 0.88223 0.81129 0.0
H381 H 0.56194 0.83427 0.82299 0.0
H382 H 0.61979 0.83783 0.76776 0.0
H383 H 0.61409 0.88587 0.75623 0.0
C384 C 0.58646 0.74338 0.79539 0.0
C385 C 0.60164 0.74516 0.81463 0.0
C386 C 0.58255 0.77114 0.78957 0.0
C387 C 0.59347 0.80139 0.80285 0.0
C388 C 0.60776 0.80274 0.82224 0.0
C389 C 0.61201 0.77511 0.82803 0.0
C390 C 0.57007 0.87313 0.80173 0.0
C391 C 0.58375 0.88774 0.78268 0.0
C392 C 0.57367 0.84554 0.80843 0.0
C393 C 0.59087 0.83176 0.79622 0.0
C394 C 0.60541 0.84703 0.77739 0.0
C395 C 0.60207 0.87465 0.77076 0.0
H396 H 0.76775 0.45206 0.20222 0.0
H397 H 0.79014 0.38535 0.16472 0.0
H398 H 0.68937 0.40507 0.19459 0.0
H399 H 0.71159 0.33812 0.15711 0.0
H400 H 0.61336 0.34779 0.12022 0.0
H401 H 0.67506 0.35722 0.13574 0.0
H402 H 0.61602 0.33599 0.19287 0.0
H403 H 0.55226 0.32434 0.17716 0.0
C404 C 0.75564 0.42659 0.19291 0.0
C405 C 0.7849 0.42256 0.18382 0.0
C406 C 0.71074 0.39944 0.18869 0.0
C407 C 0.69448 0.3681 0.17511 0.0
C408 C 0.72332 0.36206 0.16759 0.0
C409 C 0.76822 0.38903 0.17198 0.0
C410 C 0.61193 0.34293 0.13591 0.0
C411 C 0.57822 0.33656 0.14749 0.0
C412 C 0.64769 0.34846 0.14486 0.0
C413 C 0.65076 0.3482 0.16558 0.0
C414 C 0.61469 0.33696 0.17689 0.0
C415 C 0.57841 0.33066 0.16787 0.0
H416 H 0.40196 0.91953 0.44661 0.0
H417 H 0.46113 0.88246 0.48153 0.0
H418 H 0.33488 0.85296 0.44287 0.0
H419 H 0.39388 0.81543 0.4775 0.0
H420 H 0.24811 0.70373 0.48129 0.0
H421 H 0.31658 0.77 0.48649 0.0
H422 H 0.30778 0.79301 0.42585 0.0
H423 H 0.24019 0.7274 0.42066 0.0
C424 C 0.40081 0.8972 0.45346 0.0
C425 C 0.43729 0.90662 0.4643 0.0
C426 C 0.36223 0.8588 0.45122 0.0
C427 C 0.35875 0.82846 0.45975 0.0
C428 C 0.39505 0.8379 0.47084 0.0
C429 C 0.43381 0.87642 0.47304 0.0
C430 C 0.26096 0.72285 0.46904 0.0
C431 C 0.23788 0.71008 0.45064 0.0
C432 C 0.30031 0.76094 0.47201 0.0
C433 C 0.31767 0.7873 0.45668 0.0
C434 C 0.29507 0.7741 0.4382 0.0
C435 C 0.25602 0.73624 0.43523 0.0
H436 H 0.59768 0.33804 0.83621 0.0
H437 H 0.45802 0.24921 0.82717 0.0
H438 H 0.60925 0.29213 0.8252 0.0
H439 H 0.46959 0.20334 0.81615 0.0
H440 H 0.50142 0.12058 0.8114 0.0
H441 H 0.49221 0.16616 0.82622 0.0
H442 H 0.6049 0.2589 0.79523 0.0
H443 H 0.61494 0.21377 0.78106 0.0
C444 C 0.56941 0.30877 0.8318 0.0
C445 C 0.5269 0.29752 0.83254 0.0
C446 C 0.57605 0.28237 0.82548 0.0
C447 C 0.54039 0.2439 0.8197 0.0
C448 C 0.49784 0.23247 0.82077 0.0
C449 C 0.49119 0.25888 0.82709 0.0
C450 C 0.52467 0.15082 0.80803 0.0
C451 C 0.55877 0.16337 0.79492 0.0
C452 C 0.51908 0.17692 0.81635 0.0
C453 C 0.54761 0.2163 0.81186 0.0
C454 C 0.58246 0.22896 0.79921 0.0
C455 C 0.58795 0.20292 0.79088 0.0
H456 H 0.51412 0.79636 0.49553 0.0
H457 H 0.65345 0.86417 0.50685 0.0
H458 H 0.50388 0.73778 0.50318 0.0
H459 H 0.64321 0.80574 0.51419 0.0
H460 H 0.61644 0.69057 0.51145 0.0
H461 H 0.62236 0.74485 0.4992 0.0
H462 H 0.50932 0.70956 0.53251 0.0
H463 H 0.50277 0.65484 0.54432 0.0
C464 C 0.54256 0.79885 0.49966 0.0
C465 C 0.58463 0.83513 0.50056 0.0
C466 C 0.53669 0.76523 0.50399 0.0
C467 C 0.57273 0.76702 0.50925 0.0
C468 C 0.61481 0.80317 0.50985 0.0
C469 C 0.62067 0.83675 0.50562 0.0
C470 C 0.59236 0.69398 0.51584 0.0
C471 C 0.55931 0.66852 0.52897 0.0
C472 C 0.59602 0.72532 0.50899 0.0
C473 C 0.56655 0.73178 0.51501 0.0
C474 C 0.53243 0.70536 0.52748 0.0
C475 C 0.52892 0.67419 0.5344 0.0
H476 H 0.73646 0.58709 0.84009 0.0
H477 H 0.64962 0.46672 0.85299 0.0
H478 H 0.79882 0.58702 0.84161 0.0
H479 H 0.71165 0.46634 0.85489 0.0
H480 H 0.82907 0.46437 0.85313 0.0
H481 H 0.76712 0.46437 0.85089 0.0
H482 H 0.85578 0.5886 0.8489 0.0
H483 H 0.91754 0.58842 0.85051 0.0
C484 C 0.73012 0.56028 0.84333 0.0
C485 C 0.68615 0.52694 0.84636 0.0
C486 C 0.76691 0.56015 0.84433 0.0
C487 C 0.76295 0.52666 0.84848 0.0
C488 C 0.71866 0.4933 0.85149 0.0
C489 C 0.68192 0.49346 0.85046 0.0
C490 C 0.83625 0.49208 0.85204 0.0
C491 C 0.88089 0.52638 0.85209 0.0
C492 C 0.79942 0.49214 0.85089 0.0
C493 C 0.80374 0.52652 0.84968 0.0
C494 C 0.84842 0.56079 0.84966 0.0
C495 C 0.88521 0.56072 0.8508 0.0
H496 H 0.1383 0.66468 0.16983 0.0
H497 H 0.20527 0.63285 0.13545 0.0
H498 H 0.20534 0.73102 0.17306 0.0
H499 H 0.27249 0.69998 0.13803 0.0
H500 H 0.39714 0.81719 0.16434 0.0
H501 H 0.33109 0.74998 0.15897 0.0
H502 H 0.25299 0.78803 0.15665 0.0
H503 H 0.31873 0.8547 0.16268 0.0
C504 C 0.16726 0.67186 0.16275 0.0
C505 C 0.16604 0.64314 0.15232 0.0
C506 C 0.20593 0.71027 0.16448 0.0
C507 C 0.24481 0.72153 0.15566 0.0
C508 C 0.24362 0.6927 0.14523 0.0
C509 C 0.20485 0.65407 0.14364 0.0
C510 C 0.36588 0.81116 0.16242 0.0
C511 C 0.36331 0.84143 0.1641 0.0
C512 C 0.32782 0.77249 0.15932 0.0
C513 C 0.28609 0.76299 0.15761 0.0
C514 C 0.28403 0.79365 0.15845 0.0
C515 C 0.32191 0.83212 0.16177 0.0
H516 H 0.45546 0.17523 0.49939 0.0
H517 H 0.57914 0.25074 0.47047 0.0
H518 H 0.46296 0.23121 0.51222 0.0
H519 H 0.58712 0.30698 0.48356 0.0
H520 H 0.57099 0.39926 0.49747 0.0
H521 H 0.55945 0.34265 0.4821 0.0
H522 H 0.50568 0.2828 0.53653 0.0
H523 H 0.51525 0.33834 0.55148 0.0
C524 C 0.48441 0.20384 0.49586 0.0
C525 C 0.51684 0.2085 0.48402 0.0
C526 C 0.48878 0.236 0.50324 0.0
C527 C 0.52585 0.27376 0.49909 0.0
C528 C 0.55788 0.27838 0.48689 0.0
C529 C 0.55337 0.24613 0.4794 0.0
C530 C 0.55618 0.37381 0.50605 0.0
C531 C 0.54428 0.37353 0.52577 0.0
C532 C 0.55001 0.34148 0.49731 0.0
C533 C 0.53166 0.30805 0.50805 0.0
C534 C 0.51938 0.30774 0.52768 0.0
C535 C 0.52547 0.33991 0.53638 0.0
H536 H 0.4775 0.57841 0.84052 0.0
H537 H 0.39519 0.45991 0.85684 0.0
H538 H 0.4152 0.57864 0.84235 0.0
H539 H 0.33257 0.45949 0.85837 0.0
H540 H 0.21844 0.46343 0.86794 0.0
H541 H 0.28077 0.46441 0.86622 0.0
H542 H 0.35415 0.57335 0.8379 0.0
H543 H 0.29165 0.57297 0.84029 0.0
C544 C 0.44616 0.55202 0.84449 0.0
C545 C 0.44327 0.51916 0.84853 0.0
C546 C 0.40926 0.55202 0.8455 0.0
C547 C 0.36621 0.5191 0.85061 0.0
C548 C 0.36361 0.48621 0.85457 0.0
C549 C 0.40051 0.48628 0.85359 0.0
C550 C 0.24757 0.48825 0.86146 0.0
C551 C 0.24751 0.51828 0.85448 0.0
C552 C 0.28459 0.4886 0.86023 0.0
C553 C 0.32523 0.51896 0.85184 0.0
C554 C 0.32519 0.54897 0.84471 0.0
C555 C 0.28802 0.54863 0.84596 0.0
H556 H 0.88296 0.41478 0.1513 0.0
H557 H 0.95821 0.37471 0.14355 0.0
H558 H 0.81698 0.34871 0.15509 0.0
H559 H 0.89296 0.3087 0.14874 0.0
H560 H 0.76356 0.1871 0.14619 0.0
H561 H 0.82727 0.25251 0.13866 0.0
H562 H 0.77719 0.2986 0.17517 0.0
H563 H 0.71249 0.2331 0.18142 0.0
C564 C 0.88544 0.39177 0.15053 0.0
C565 C 0.92598 0.40015 0.14707 0.0
C566 C 0.84746 0.35362 0.15295 0.0
C567 C 0.84883 0.32253 0.15252 0.0
C568 C 0.88963 0.33115 0.14886 0.0
C569 C 0.92744 0.36927 0.14596 0.0
C570 C 0.76616 0.21133 0.15243 0.0
C571 C 0.73276 0.2048 0.1643 0.0
C572 C 0.80306 0.24912 0.14828 0.0
C573 C 0.80834 0.28175 0.15628 0.0
C574 C 0.7746 0.27486 0.16822 0.0
C575 C 0.73729 0.23706 0.17197 0.0
H576 H 0.04542 0.48924 0.09077 0.0
H577 H 0.03623 0.58068 0.08585 0.0
H578 H 0.05379 0.48811 0.05494 0.0
H579 H 0.04186 0.57822 0.05005 0.0
H580 H 0.09045 0.59125 0.98804 0.0
H581 H 0.08718 0.59351 0.02405 0.0
H582 H 1.01954 0.47042 0.02391 0.0
H583 H 1.02524 0.46903 0.98792 0.0
C584 C 0.0448 0.50886 0.08196 0.0
C585 C 0.04025 0.53508 0.09112 0.0
C586 C 0.04927 0.50808 0.06134 0.0
C587 C 0.04859 0.53309 0.0493 0.0
C588 C 0.04364 0.55907 0.05864 0.0
C589 C 0.03998 0.5603 0.07924 0.0
C590 C 0.075 0.56475 0.99577 0.0
C591 C 0.05804 0.52997 0.98515 0.0
C592 C 0.07277 0.56589 0.01647 0.0
C593 C 0.05267 0.53207 0.02718 0.0
C594 C 0.03593 0.49727 0.01644 0.0
C595 C 0.03893 0.49633 0.99573 0.0
H596 H 0.63933 0.03667 0.40893 0.0
H597 H 0.51581 0.015 0.41454 0.0
H598 H 0.634 0.03775 0.37295 0.0
H599 H 0.51088 0.01678 0.37834 0.0
H600 H 0.55289 0.06883 0.31448 0.0
H601 H 0.55604 0.06809 0.3508 0.0
H602 H 0.58085 0.98605 0.34553 0.0
H603 H 0.57725 0.98647 0.30935 0.0
C604 C 0.61109 0.03227 0.40246 0.0
C605 C 0.57784 0.02553 0.4145 0.0
C606 C 0.608 0.03277 0.38187 0.0
C607 C 0.57198 0.02722 0.37287 0.0
C608 C 0.53908 0.02127 0.38492 0.0
C609 C 0.54179 0.02008 0.40558 0.0
C610 C 0.55907 0.05073 0.32113 0.0
C611 C 0.56487 0.02773 0.30913 0.0
C612 C 0.56054 0.05009 0.34186 0.0
C613 C 0.56872 0.02704 0.35094 0.0
C614 C 0.57472 1.00423 0.33891 0.0
C615 C 0.57247 1.00433 0.31824 0.0
H616 H 0.4853 0.47711 0.77883 0.0
H617 H 0.62541 0.55356 0.78952 0.0
H618 H 0.49613 0.48977 0.74365 0.0
H619 H 0.63641 0.56657 0.75408 0.0
H620 H 0.62976 0.53449 0.68631 0.0
H621 H 0.62429 0.52977 0.72234 0.0
H622 H 0.52308 0.54189 0.72081 0.0
H623 H 0.52766 0.54554 0.68485 0.0
C624 C 0.51847 0.49687 0.77365 0.0
C625 C 0.55452 0.51421 0.78686 0.0
C626 C 0.52468 0.50433 0.7535 0.0
C627 C 0.56713 0.52922 0.74607 0.0
C628 C 0.60331 0.54702 0.75935 0.0
C629 C 0.59704 0.53974 0.77961 0.0
C630 C 0.60637 0.53616 0.69369 0.0
C631 C 0.57897 0.54016 0.68269 0.0
C632 C 0.60358 0.53389 0.71434 0.0
C633 C 0.57312 0.53529 0.72442 0.0
C634 C 0.54657 0.54031 0.71346 0.0
C635 C 0.54949 0.54277 0.69286 0.0
H636 H 0.61412 0.05775 0.52898 0.0
H637 H 0.47617 1.00041 0.53433 0.0
H638 H 0.6213 0.05733 0.56504 0.0
H639 H 0.48296 0.9992 0.5701 0.0
H640 H 0.51884 0.04331 0.63438 0.0
H641 H 0.51427 0.04391 0.59847 0.0
H642 H 0.6007 0.01489 0.59254 0.0
H643 H 0.60671 0.01583 0.62866 0.0
C644 C 0.58534 0.04488 0.53786 0.0
C645 C 0.54468 0.02942 0.52889 0.0
C646 C 0.58935 0.04443 0.55849 0.0
C647 C 0.55277 0.02852 0.57053 0.0
C648 C 0.512 0.01239 0.56138 0.0
C649 C 0.50803 0.01287 0.54084 0.0
C650 C 0.53733 0.0375 0.62547 0.0
C651 C 0.56324 0.02962 0.63447 0.0
C652 C 0.53425 0.03735 0.60482 0.0
C653 C 0.55692 0.02924 0.59256 0.0
C654 C 0.58306 0.02155 0.60153 0.0
C655 C 0.58611 0.02166 0.62224 0.0
H656 H 0.50642 0.47912 0.89659 0.0
H657 H 0.64325 0.57054 0.9114 0.0
H658 H 0.49472 0.45694 0.9304 0.0
H659 H 0.63172 0.54817 0.9451 0.0
H660 H 0.57894 0.52894 0.00821 0.0
H661 H 0.59301 0.54773 0.97389 0.0
H662 H 0.51425 0.42748 0.95398 0.0
H663 H 0.49929 0.40855 0.98853 0.0
C664 C 0.53399 0.49432 0.90707 0.0
C665 C 0.57564 0.52674 0.9015 0.0
C666 C 0.52738 0.48145 0.92635 0.0
C667 C 0.56228 0.5009 0.94041 0.0
C668 C 0.6041 0.53291 0.93466 0.0
C669 C 0.61072 0.54566 0.91538 0.0
C670 C 0.56454 0.5065 0.99651 0.0
C671 C 0.53772 0.46727 0.00102 0.0
C672 C 0.57298 0.51728 0.97686 0.0
C673 C 0.55473 0.48908 0.96125 0.0
C674 C 0.52844 0.44981 0.96573 0.0
C675 C 0.52019 0.439 0.98546 0.0
H676 H 0.0789 0.56981 0.20585 0.0
H677 H 1.02292 0.44972 0.20803 0.0
H678 H 0.07393 0.57316 0.24199 0.0
H679 H 1.01757 0.45294 0.24403 0.0
H680 H 0.97536 0.4656 0.30557 0.0
H681 H 0.97688 0.46316 0.26942 0.0
H682 H 0.1109 0.56822 0.2717 0.0
H683 H 0.11026 0.5701 0.30782 0.0
C684 C 0.06533 0.54413 0.21406 0.0
C685 C 0.05154 0.50957 0.20422 0.0
C686 C 0.06264 0.54607 0.2347 0.0
C687 C 0.04541 0.51331 0.2458 0.0
C688 C 1.03067 0.47854 0.23584 0.0
C689 C 0.03397 0.47677 0.21528 0.0
C690 C 1.00536 0.48801 0.29844 0.0
C691 C 0.04274 0.51798 0.30975 0.0
C692 C 1.00609 0.48668 0.2777 0.0
C693 C 0.04397 0.51553 0.26776 0.0
C694 C 0.08104 0.54587 0.27896 0.0
C695 C 0.08055 0.54695 0.2997 0.0
loop_
_geom_bond_atom_site_label_1
_geom_bond_atom_site_label_2
_geom_bond_distance
_geom_bond_site_symmetry_2
_ccdc_geom_bond_type
Sm0 C2 2.846 . S
Sm0 O20 2.543 . S
Sm0 O21 2.450 . S
Sm0 O22 2.681 . S
Sm0 O23 2.464 . S
Sm0 O24 2.396 . S
Sm0 O28 2.386 . S
Sm0 O31 2.408 1_455 S
Sm1 C11 2.846 . S
Sm1 O22 2.386 1_655 S
Sm1 O25 2.408 1_655 S
Sm1 O26 2.543 . S
Sm1 O27 2.450 . S
Sm1 O28 2.681 1_655 S
Sm1 O29 2.464 . S
Sm1 O30 2.396 . S
C2 Sm0 2.846 . S
C2 C3 1.506 . S
C2 O20 1.261 . S
C2 O21 1.242 . S
C3 C2 1.506 . S
C3 C4 1.358 . S
C3 C8 1.382 . S
C4 C3 1.358 . S
C4 C5 1.385 . S
C4 H32 0.930 . S
C5 C4 1.385 . S
C5 C6 1.395 . S
C5 H33 0.929 . S
C6 C5 1.395 . S
C6 C7 1.335 . S
C7 C6 1.335 . S
C7 C8 1.398 . S
C7 H34 0.930 . S
C8 C3 1.382 . S
C8 C7 1.398 . S
C8 H35 0.929 . S
C9 O22 1.271 . S
C9 O23 1.251 . S
C10 O24 1.252 . S
C10 O25 1.272 . S
C11 Sm1 2.846 . S
C11 C12 1.506 . S
C11 O26 1.261 . S
C11 O27 1.242 . S
C12 C11 1.506 . S
C12 C13 1.358 . S
C12 C17 1.382 . S
C13 C12 1.358 . S
C13 C14 1.385 . S
C13 H36 0.930 . S
C14 C13 1.385 . S
C14 C15 1.395 . S
C14 H37 0.929 . S
C15 C14 1.395 . S
C15 C16 1.335 . S
C16 C15 1.335 . S
C16 C17 1.398 . S
C16 H38 0.930 . S
C17 C12 1.382 . S
C17 C16 1.398 . S
C17 H39 0.929 . S
C18 O28 1.271 . S
C18 O29 1.251 1_455 S
C19 O30 1.252 . S
C19 O31 1.272 . S
O20 Sm0 2.543 . S
O20 C2 1.261 . S
O21 Sm0 2.450 . S
O21 C2 1.242 . S
O22 Sm0 2.681 . S
O22 Sm1 2.386 1_455 S
O22 C9 1.271 . S
O23 Sm0 2.464 . S
O23 C9 1.251 . S
O24 Sm0 2.396 . S
O24 C10 1.252 . S
O25 Sm1 2.408 1_455 S
O25 C10 1.272 . S
O26 Sm1 2.543 . S
O26 C11 1.261 . S
O27 Sm1 2.450 . S
O27 C11 1.242 . S
O28 Sm0 2.386 . S
O28 Sm1 2.681 1_455 S
O28 C18 1.271 . S
O29 Sm1 2.464 . S
O29 C18 1.251 1_655 S
O30 Sm1 2.396 . S
O30 C19 1.252 . S
O31 Sm0 2.408 1_655 S
O31 C19 1.272 . S
H32 C4 0.930 . S
H33 C5 0.929 . S
H34 C7 0.930 . S
H35 C8 0.929 . S
H36 C13 0.930 . S
H37 C14 0.929 . S
H38 C16 0.930 . S
H39 C17 0.929 . S
Sm40 C42 2.846 . S
Sm40 O60 2.543 . S
Sm40 O61 2.450 . S
Sm40 O62 2.681 1_565 S
Sm40 O63 2.464 . S
Sm40 O64 2.396 . S
Sm40 O68 2.403 . S
Sm40 O71 2.408 1_565 S
Sm41 C51 2.846 . S
Sm41 O62 2.386 . S
Sm41 O65 2.408 1_545 S
Sm41 O66 2.543 . S
Sm41 O67 2.450 . S
Sm41 O68 2.656 1_545 S
Sm41 O69 2.464 . S
Sm41 O70 2.396 . S
C42 Sm40 2.846 . S
C42 C43 1.506 . S
C42 O60 1.261 . S
C42 O61 1.242 . S
C43 C42 1.506 . S
C43 C44 1.358 . S
C43 C48 1.382 . S
C44 C43 1.358 . S
C44 C45 1.385 . S
C44 H72 0.930 . S
C45 C44 1.385 . S
C45 C46 1.395 . S
C45 H73 0.929 . S
C46 C45 1.395 . S
C46 C47 1.335 . S
C47 C46 1.335 . S
C47 C48 1.398 . S
C47 H74 0.930 . S
C48 C43 1.382 . S
C48 C47 1.398 . S
C48 H75 0.929 . S
C49 O62 1.271 . S
C49 O63 1.251 1_545 S
C50 O64 1.252 . S
C50 O65 1.272 . S
C51 Sm41 2.846 . S
C51 C52 1.506 . S
C51 O66 1.261 . S
C51 O67 1.242 . S
C52 C51 1.506 . S
C52 C53 1.358 . S
C52 C57 1.382 . S
C53 C52 1.358 . S
C53 C54 1.385 . S
C53 H76 0.930 . S
C54 C53 1.385 . S
C54 C55 1.395 . S
C54 H77 0.929 . S
C55 C54 1.395 . S
C55 C56 1.335 . S
C56 C55 1.335 . S
C56 C57 1.398 . S
C56 H78 0.930 . S
C57 C52 1.382 . S
C57 C56 1.398 . S
C57 H79 0.929 . S
C58 O68 1.257 1_545 S
C58 O69 1.251 . S
C59 O70 1.252 . S
C59 O71 1.272 . S
O60 Sm40 2.543 . S
O60 C42 1.261 . S
O61 Sm40 2.450 . S
O61 C42 1.242 . S
O62 Sm40 2.681 1_545 S
O62 Sm41 2.386 . S
O62 C49 1.271 . S
O63 Sm40 2.464 . S
O63 C49 1.251 1_565 S
O64 Sm40 2.396 . S
O64 C50 1.252 . S
O65 Sm41 2.408 1_565 S
O65 C50 1.272 . S
O66 Sm41 2.543 . S
O66 C51 1.261 . S
O67 Sm41 2.450 . S
O67 C51 1.242 . S
O68 Sm40 2.403 . S
O68 Sm41 2.656 1_565 S
O68 C58 1.257 1_565 S
O69 Sm41 2.464 . S
O69 C58 1.251 . S
O70 Sm41 2.396 . S
O70 C59 1.252 . S
O71 Sm40 2.408 1_545 S
O71 C59 1.272 . S
H72 C44 0.930 . S
H73 C45 0.929 . S
H74 C47 0.930 . S
H75 C48 0.929 . S
H76 C53 0.930 . S
H77 C54 0.929 . S
H78 C56 0.930 . S
H79 C57 0.929 . S
Sm80 C82 2.846 . S
Sm80 O100 2.543 . S
Sm80 O101 2.450 . S
Sm80 O102 2.681 . S
Sm80 O103 2.464 . S
Sm80 O104 2.396 . S
Sm80 O108 2.386 . S
Sm80 O111 2.408 . S
Sm81 C91 2.846 . S
Sm81 O102 2.386 . S
Sm81 O105 2.408 . S
Sm81 O106 2.543 . S
Sm81 O107 2.450 . S
Sm81 O108 2.681 . S
Sm81 O109 2.464 . S
Sm81 O110 2.396 . S
C82 Sm80 2.846 . S
C82 C83 1.506 . S
C82 O100 1.261 . S
C82 O101 1.242 . S
C83 C82 1.506 . S
C83 C84 1.358 . S
C83 C88 1.382 . S
C84 C83 1.358 . S
C84 C85 1.385 . S
C84 H112 0.930 . S
C85 C84 1.385 . S
C85 C86 1.395 . S
C85 H113 0.929 . S
C86 C85 1.395 . S
C86 C87 1.335 . S
C87 C86 1.335 . S
C87 C88 1.398 . S
C87 H114 0.930 . S
C88 C83 1.382 . S
C88 C87 1.398 . S
C88 H115 0.929 . S
C89 O102 1.271 . S
C89 O103 1.251 . S
C90 O104 1.252 . S
C90 O105 1.272 . S
C91 Sm81 2.846 . S
C91 C92 1.506 . S
C91 O106 1.261 . S
C91 O107 1.242 . S
C92 C91 1.506 . S
C92 C93 1.358 . S
C92 C97 1.382 . S
C93 C92 1.358 . S
C93 C94 1.385 . S
C93 H116 0.930 . S
C94 C93 1.385 . S
C94 C95 1.395 . S
C94 H117 0.929 . S
C95 C94 1.395 . S
C95 C96 1.335 . S
C96 C95 1.335 . S
C96 C97 1.398 . S
C96 H118 0.930 . S
C97 C92 1.382 . S
C97 C96 1.398 . S
C97 H119 0.929 . S
C98 O108 1.271 . S
C98 O109 1.251 . S
C99 O110 1.252 . S
C99 O111 1.272 . S
O100 Sm80 2.543 . S
O100 C82 1.261 . S
O101 Sm80 2.450 . S
O101 C82 1.242 . S
O102 Sm80 2.681 . S
O102 Sm81 2.386 . S
O102 C89 1.271 . S
O103 Sm80 2.464 . S
O103 C89 1.251 . S
O104 Sm80 2.396 . S
O104 C90 1.252 . S
O105 Sm81 2.408 . S
O105 C90 1.272 . S
O106 Sm81 2.543 . S
O106 C91 1.261 . S
O107 Sm81 2.450 . S
O107 C91 1.242 . S
O108 Sm80 2.386 . S
O108 Sm81 2.681 . S
O108 C98 1.271 . S
O109 Sm81 2.464 . S
O109 C98 1.251 . S
O110 Sm81 2.396 . S
O110 C99 1.252 . S
O111 Sm80 2.408 . S
O111 C99 1.272 . S
H112 C84 0.930 . S
H113 C85 0.929 . S
H114 C87 0.930 . S
H115 C88 0.929 . S
H116 C93 0.930 . S
H117 C94 0.929 . S
H118 C96 0.930 . S
H119 C97 0.929 . S
C120 C121 1.384 . S
C120 H133 0.947 . S
C120 C155 1.382 . S
C121 C120 1.384 . S
C121 C122 1.378 . S
C122 C121 1.378 . S
C122 C123 1.378 . S
C122 H134 0.952 . S
C123 C122 1.378 . S
C123 H135 0.950 . S
C123 C154 1.383 . S
H124 C143 0.947 . S
H125 C144 0.946 . S
H126 C146 0.953 . S
H127 C147 0.945 . S
H128 C149 0.952 . S
H129 C150 0.949 . S
H130 C152 0.950 . S
H131 C153 0.948 . S
H132 C155 0.951 . S
H133 C120 0.947 . S
H134 C122 0.952 . S
H135 C123 0.950 . S
N136 C139 1.382 . S
N136 C141 1.363 1_545 S
N137 C139 1.371 . S
N137 C140 1.372 . S
N138 C140 1.361 1_565 S
N138 C141 1.377 . S
C139 N136 1.382 . S
C139 N137 1.371 . S
C139 C142 1.480 . S
C140 N137 1.372 . S
C140 N138 1.361 1_545 S
C140 C148 1.457 . S
C141 N136 1.363 1_565 S
C141 N138 1.377 . S
C141 C154 1.479 . S
C142 C139 1.480 . S
C142 C143 1.383 . S
C142 C147 1.385 . S
C143 H124 0.947 . S
C143 C142 1.383 . S
C143 C144 1.388 . S
C144 H125 0.946 . S
C144 C143 1.388 . S
C144 C145 1.384 . S
C145 C144 1.384 . S
C145 C146 1.377 . S
C146 H126 0.953 . S
C146 C145 1.377 . S
C146 C147 1.369 . S
C147 H127 0.945 . S
C147 C142 1.385 . S
C147 C146 1.369 . S
C148 C140 1.457 . S
C148 C149 1.372 . S
C148 C153 1.364 1_545 S
C149 H128 0.952 . S
C149 C148 1.372 . S
C149 C150 1.389 . S
C150 H129 0.949 . S
C150 C149 1.389 . S
C150 C151 1.387 . S
C151 C150 1.387 . S
C151 C152 1.372 1_545 S
C152 H130 0.950 . S
C152 C151 1.372 1_565 S
C152 C153 1.379 . S
C153 H131 0.948 . S
C153 C148 1.364 1_565 S
C153 C152 1.379 . S
C154 C123 1.383 . S
C154 C141 1.479 . S
C154 C155 1.398 . S
C155 C120 1.382 . S
C155 H132 0.951 . S
C155 C154 1.398 . S
C156 C157 1.384 . S
C156 H169 0.947 . S
C156 C191 1.382 . S
C157 C156 1.384 . S
C157 C158 1.378 . S
C158 C157 1.378 . S
C158 C159 1.378 . S
C158 H170 0.952 . S
C159 C158 1.378 . S
C159 H171 0.950 . S
C159 C190 1.383 . S
H160 C179 0.947 . S
H161 C180 0.946 . S
H162 C182 0.953 . S
H163 C183 0.945 . S
H164 C185 0.952 . S
H165 C186 0.949 . S
H166 C188 0.950 . S
H167 C189 0.948 . S
H168 C191 0.951 . S
H169 C156 0.947 . S
H170 C158 0.952 . S
H171 C159 0.950 . S
N172 C175 1.382 . S
N172 C177 1.363 . S
N173 C175 1.371 . S
N173 C176 1.372 . S
N174 C176 1.361 . S
N174 C177 1.377 . S
C175 N172 1.382 . S
C175 N173 1.371 . S
C175 C178 1.480 . S
C176 N173 1.372 . S
C176 N174 1.361 . S
C176 C184 1.457 . S
C177 N172 1.363 . S
C177 N174 1.377 . S
C177 C190 1.479 . S
C178 C175 1.480 . S
C178 C179 1.383 . S
C178 C183 1.385 . S
C179 H160 0.947 . S
C179 C178 1.383 . S
C179 C180 1.388 . S
C180 H161 0.946 . S
C180 C179 1.388 . S
C180 C181 1.384 . S
C181 C180 1.384 . S
C181 C182 1.377 . S
C182 H162 0.953 . S
C182 C181 1.377 . S
C182 C183 1.369 . S
C183 H163 0.945 . S
C183 C178 1.385 . S
C183 C182 1.369 . S
C184 C176 1.457 . S
C184 C185 1.372 . S
C184 C189 1.364 . S
C185 H164 0.952 . S
C185 C184 1.372 . S
C185 C186 1.389 . S
C186 H165 0.949 . S
C186 C185 1.389 . S
C186 C187 1.387 . S
C187 C186 1.387 . S
C187 C188 1.372 . S
C188 H166 0.950 . S
C188 C187 1.372 . S
C188 C189 1.379 . S
C189 H167 0.948 . S
C189 C184 1.364 . S
C189 C188 1.379 . S
C190 C159 1.383 . S
C190 C177 1.479 . S
C190 C191 1.398 . S
C191 C156 1.382 . S
C191 H168 0.951 . S
C191 C190 1.398 . S
C192 C193 1.384 . S
C192 H205 0.947 . S
C192 C227 1.382 . S
C193 C192 1.384 . S
C193 C194 1.378 . S
C194 C193 1.378 . S
C194 C195 1.378 . S
C194 H206 0.952 . S
C195 C194 1.378 . S
C195 H207 0.950 . S
C195 C226 1.383 . S
H196 C215 0.947 . S
H197 C216 0.946 . S
H198 C218 0.953 . S
H199 C219 0.945 . S
H200 C221 0.952 . S
H201 C222 0.949 . S
H202 C224 0.950 1_655 S
H203 C225 0.948 1_655 S
H204 C227 0.951 . S
H205 C192 0.947 . S
H206 C194 0.952 . S
H207 C195 0.950 . S
N208 C211 1.382 . S
N208 C213 1.363 . S
N209 C211 1.371 . S
N209 C212 1.372 . S
N210 C212 1.361 . S
N210 C213 1.377 . S
C211 N208 1.382 . S
C211 N209 1.371 . S
C211 C214 1.480 . S
C212 N209 1.372 . S
C212 N210 1.361 . S
C212 C220 1.457 . S
C213 N208 1.363 . S
C213 N210 1.377 . S
C213 C226 1.479 1_455 S
C214 C211 1.480 . S
C214 C215 1.383 . S
C214 C219 1.385 . S
C215 H196 0.947 . S
C215 C214 1.383 . S
C215 C216 1.388 . S
C216 H197 0.946 . S
C216 C215 1.388 . S
C216 C217 1.384 . S
C217 C216 1.384 . S
C217 C218 1.377 . S
C218 H198 0.953 . S
C218 C217 1.377 . S
C218 C219 1.369 . S
C219 H199 0.945 . S
C219 C214 1.385 . S
C219 C218 1.369 . S
C220 C212 1.457 . S
C220 C221 1.372 . S
C220 C225 1.364 . S
C221 H200 0.952 . S
C221 C220 1.372 . S
C221 C222 1.389 . S
C222 H201 0.949 . S
C222 C221 1.389 . S
C222 C223 1.387 . S
C223 C222 1.387 . S
C223 C224 1.372 . S
C224 H202 0.950 1_455 S
C224 C223 1.372 . S
C224 C225 1.379 . S
C225 H203 0.948 1_455 S
C225 C220 1.364 . S
C225 C224 1.379 . S
C226 C195 1.383 . S
C226 C213 1.479 1_655 S
C226 C227 1.398 . S
C227 C192 1.382 . S
C227 H204 0.951 . S
C227 C226 1.398 . S
C228 C229 1.384 . S
C228 H241 0.947 . S
C228 C263 1.382 . S
C229 C228 1.384 . S
C229 C230 1.378 . S
C230 C229 1.378 . S
C230 C231 1.378 . S
C230 H242 0.952 . S
C231 C230 1.378 . S
C231 H243 0.950 . S
C231 C262 1.383 . S
H232 C251 0.947 . S
H233 C252 0.946 . S
H234 C254 0.953 . S
H235 C255 0.945 . S
H236 C257 0.952 . S
H237 C258 0.949 . S
H238 C260 0.950 . S
H239 C261 0.948 . S
H240 C263 0.951 . S
H241 C228 0.947 . S
H242 C230 0.952 . S
H243 C231 0.950 . S
N244 C247 1.382 1_455 S
N244 C249 1.363 . S
N245 C247 1.371 . S
N245 C248 1.372 1_655 S
N246 C248 1.361 . S
N246 C249 1.377 . S
C247 N244 1.382 1_655 S
C247 N245 1.371 . S
C247 C250 1.480 . S
C248 N245 1.372 1_455 S
C248 N246 1.361 . S
C248 C256 1.457 . S
C249 N244 1.363 . S
C249 N246 1.377 . S
C249 C262 1.479 . S
C250 C247 1.480 . S
C250 C251 1.383 . S
C250 C255 1.385 . S
C251 H232 0.947 . S
C251 C250 1.383 . S
C251 C252 1.388 . S
C252 H233 0.946 . S
C252 C251 1.388 . S
C252 C253 1.384 . S
C253 C252 1.384 . S
C253 C254 1.377 . S
C254 H234 0.953 . S
C254 C253 1.377 . S
C254 C255 1.369 . S
C255 H235 0.945 . S
C255 C250 1.385 . S
C255 C254 1.369 . S
C256 C248 1.457 . S
C256 C257 1.372 1_455 S
C256 C261 1.364 . S
C257 H236 0.952 . S
C257 C256 1.372 1_655 S
C257 C258 1.389 . S
C258 H237 0.949 . S
C258 C257 1.389 . S
C258 C259 1.387 1_655 S
C259 C258 1.387 1_455 S
C259 C260 1.372 . S
C260 H238 0.950 . S
C260 C259 1.372 . S
C260 C261 1.379 . S
C261 H239 0.948 . S
C261 C256 1.364 . S
C261 C260 1.379 . S
C262 C231 1.383 . S
C262 C249 1.479 . S
C262 C263 1.398 . S
C263 C228 1.382 . S
C263 H240 0.951 . S
C263 C262 1.398 . S
C264 C265 1.384 . S
C264 H277 0.947 . S
C264 C299 1.382 . S
C265 C264 1.384 . S
C265 C266 1.378 . S
C266 C265 1.378 . S
C266 C267 1.378 . S
C266 H278 0.952 . S
C267 C266 1.378 . S
C267 H279 0.950 . S
C267 C298 1.383 . S
H268 C287 0.947 . S
H269 C288 0.946 . S
H270 C290 0.953 . S
H271 C291 0.945 . S
H272 C293 0.952 . S
H273 C294 0.949 . S
H274 C296 0.950 . S
H275 C297 0.948 . S
H276 C299 0.951 . S
H277 C264 0.947 . S
H278 C266 0.952 . S
H279 C267 0.950 . S
N280 C283 1.382 1_545 S
N280 C285 1.363 . S
N281 C283 1.371 . S
N281 C284 1.372 1_565 S
N282 C284 1.361 . S
N282 C285 1.377 . S
C283 N280 1.382 1_565 S
C283 N281 1.371 . S
C283 C286 1.480 . S
C284 N281 1.372 1_545 S
C284 N282 1.361 . S
C284 C292 1.457 . S
C285 N280 1.363 . S
C285 N282 1.377 . S
C285 C298 1.479 . S
C286 C283 1.480 . S
C286 C287 1.383 . S
C286 C291 1.385 . S
C287 H268 0.947 . S
C287 C286 1.383 . S
C287 C288 1.388 . S
C288 H269 0.946 . S
C288 C287 1.388 . S
C288 C289 1.384 . S
C289 C288 1.384 . S
C289 C290 1.377 . S
C290 H270 0.953 . S
C290 C289 1.377 . S
C290 C291 1.369 . S
C291 H271 0.945 . S
C291 C286 1.385 . S
C291 C290 1.369 . S
C292 C284 1.457 . S
C292 C293 1.372 1_545 S
C292 C297 1.364 . S
C293 H272 0.952 . S
C293 C292 1.372 1_565 S
C293 C294 1.389 . S
C294 H273 0.949 . S
C294 C293 1.389 . S
C294 C295 1.414 . S
C295 C294 1.414 . S
C295 C296 1.346 1_565 S
C296 H274 0.950 . S
C296 C295 1.346 1_545 S
C296 C297 1.379 . S
C297 H275 0.948 . S
C297 C292 1.364 . S
C297 C296 1.379 . S
C298 C267 1.383 . S
C298 C285 1.479 . S
C298 C299 1.398 . S
C299 C264 1.382 . S
C299 H276 0.951 . S
C299 C298 1.398 . S
C300 C301 1.384 . S
C300 H313 0.947 . S
C300 C335 1.382 . S
C301 C300 1.384 . S
C301 C302 1.378 . S
C302 C301 1.378 . S
C302 C303 1.378 . S
C302 H314 0.952 . S
C303 C302 1.378 . S
C303 H315 0.950 . S
C303 C334 1.383 . S
H304 C323 0.947 . S
H305 C324 0.946 . S
H306 C326 0.953 . S
H307 C327 0.945 . S
H308 C329 0.952 . S
H309 C330 0.949 . S
H310 C332 0.950 . S
H311 C333 0.948 . S
H312 C335 0.951 . S
H313 C300 0.947 . S
H314 C302 0.952 . S
H315 C303 0.950 . S
N316 C319 1.382 . S
N316 C321 1.363 . S
N317 C319 1.371 . S
N317 C320 1.372 . S
N318 C320 1.361 . S
N318 C321 1.377 . S
C319 N316 1.382 . S
C319 N317 1.371 . S
C319 C322 1.480 . S
C320 N317 1.372 . S
C320 N318 1.361 . S
C320 C328 1.457 . S
C321 N316 1.363 . S
C321 N318 1.377 . S
C321 C334 1.479 . S
C322 C319 1.480 . S
C322 C323 1.383 . S
C322 C327 1.385 . S
C323 H304 0.947 . S
C323 C322 1.383 . S
C323 C324 1.388 . S
C324 H305 0.946 . S
C324 C323 1.388 . S
C324 C325 1.384 . S
C325 C324 1.384 . S
C325 C326 1.377 . S
C326 H306 0.953 . S
C326 C325 1.377 . S
C326 C327 1.369 . S
C327 H307 0.945 . S
C327 C322 1.385 . S
C327 C326 1.369 . S
C328 C320 1.457 . S
C328 C329 1.372 . S
C328 C333 1.364 . S
C329 H308 0.952 . S
C329 C328 1.372 . S
C329 C330 1.389 . S
C330 H309 0.949 . S
C330 C329 1.389 . S
C330 C331 1.387 . S
C331 C330 1.387 . S
C331 C332 1.372 . S
C332 H310 0.950 . S
C332 C331 1.372 . S
C332 C333 1.379 . S
C333 H311 0.948 . S
C333 C328 1.364 . S
C333 C332 1.379 . S
C334 C303 1.383 . S
C334 C321 1.479 . S
C334 C335 1.398 . S
C335 C300 1.382 . S
C335 H312 0.951 . S
C335 C334 1.398 . S
H336 C344 0.950 . S
H337 C349 0.950 . S
H338 C346 0.950 . S
H339 C348 0.950 . S
H340 C350 0.950 . S
H341 C352 0.950 . S
H342 C354 0.950 . S
H343 C355 0.950 . S
C344 H336 0.950 . S
C344 C345 1.386 . S
C344 C346 1.391 . S
C345 C344 1.386 . S
C345 C349 1.393 . S
C346 H338 0.950 . S
C346 C344 1.391 . S
C346 C347 1.400 . S
C347 C346 1.400 . S
C347 C348 1.398 . S
C347 C353 1.491 . S
C348 H339 0.950 . S
C348 C347 1.398 . S
C348 C349 1.391 . S
C349 H337 0.950 . S
C349 C345 1.393 . S
C349 C348 1.391 . S
C350 H340 0.950 . S
C350 C351 1.386 . S
C350 C352 1.391 . S
C351 C350 1.386 . S
C351 C355 1.393 . S
C352 H341 0.950 . S
C352 C350 1.391 . S
C352 C353 1.400 . S
C353 C347 1.491 . S
C353 C352 1.400 . S
C353 C354 1.398 . S
C354 H342 0.950 . S
C354 C353 1.398 . S
C354 C355 1.391 . S
C355 H343 0.950 . S
C355 C351 1.393 . S
C355 C354 1.391 . S
H356 C364 0.950 . S
H357 C369 0.950 . S
H358 C366 0.950 . S
H359 C368 0.950 . S
H360 C370 0.950 . S
H361 C372 0.950 . S
H362 C374 0.950 . S
H363 C375 0.950 . S
C364 H356 0.950 . S
C364 C365 1.386 . S
C364 C366 1.391 . S
C365 C364 1.386 . S
C365 C369 1.393 . S
C366 H358 0.950 . S
C366 C364 1.391 . S
C366 C367 1.400 . S
C367 C366 1.400 . S
C367 C368 1.398 . S
C367 C373 1.491 . S
C368 H359 0.950 . S
C368 C367 1.398 . S
C368 C369 1.391 . S
C369 H357 0.950 . S
C369 C365 1.393 . S
C369 C368 1.391 . S
C370 H360 0.950 . S
C370 C371 1.386 . S
C370 C372 1.391 . S
C371 C370 1.386 . S
C371 C375 1.393 . S
C372 H361 0.950 . S
C372 C370 1.391 . S
C372 C373 1.400 . S
C373 C367 1.491 . S
C373 C372 1.400 . S
C373 C374 1.398 . S
C374 H362 0.950 . S
C374 C373 1.398 . S
C374 C375 1.391 . S
C375 H363 0.950 . S
C375 C371 1.393 . S
C375 C374 1.391 . S
H376 C384 0.950 . S
H377 C389 0.950 . S
H378 C386 0.950 . S
H379 C388 0.950 . S
H380 C390 0.950 . S
H381 C392 0.950 . S
H382 C394 0.950 . S
H383 C395 0.950 . S
C384 H376 0.950 . S
C384 C385 1.386 . S
C384 C386 1.391 . S
C385 C384 1.386 . S
C385 C389 1.393 . S
C386 H378 0.950 . S
C386 C384 1.391 . S
C386 C387 1.400 . S
C387 C386 1.400 . S
C387 C388 1.398 . S
C387 C393 1.491 . S
C388 H379 0.950 . S
C388 C387 1.398 . S
C388 C389 1.391 . S
C389 H377 0.950 . S
C389 C385 1.393 . S
C389 C388 1.391 . S
C390 H380 0.950 . S
C390 C391 1.386 . S
C390 C392 1.391 . S
C391 C390 1.386 . S
C391 C395 1.393 . S
C392 H381 0.950 . S
C392 C390 1.391 . S
C392 C393 1.400 . S
C393 C387 1.491 . S
C393 C392 1.400 . S
C393 C394 1.398 . S
C394 H382 0.950 . S
C394 C393 1.398 . S
C394 C395 1.391 . S
C395 H383 0.950 . S
C395 C391 1.393 . S
C395 C394 1.391 . S
H396 C404 0.950 . S
H397 C409 0.950 . S
H398 C406 0.950 . S
H399 C408 0.950 . S
H400 C410 0.950 . S
H401 C412 0.950 . S
H402 C414 0.950 . S
H403 C415 0.950 . S
C404 H396 0.950 . S
C404 C405 1.386 . S
C404 C406 1.391 . S
C405 C404 1.386 . S
C405 C409 1.393 . S
C406 H398 0.950 . S
C406 C404 1.391 . S
C406 C407 1.400 . S
C407 C406 1.400 . S
C407 C408 1.398 . S
C407 C413 1.491 . S
C408 H399 0.950 . S
C408 C407 1.398 . S
C408 C409 1.391 . S
C409 H397 0.950 . S
C409 C405 1.393 . S
C409 C408 1.391 . S
C410 H400 0.950 . S
C410 C411 1.386 . S
C410 C412 1.391 . S
C411 C410 1.386 . S
C411 C415 1.393 . S
C412 H401 0.950 . S
C412 C410 1.391 . S
C412 C413 1.400 . S
C413 C407 1.491 . S
C413 C412 1.400 . S
C413 C414 1.398 . S
C414 H402 0.950 . S
C414 C413 1.398 . S
C414 C415 1.391 . S
C415 H403 0.950 . S
C415 C411 1.393 . S
C415 C414 1.391 . S
H416 C424 0.950 . S
H417 C429 0.950 . S
H418 C426 0.950 . S
H419 C428 0.950 . S
H420 C430 0.950 . S
H421 C432 0.950 . S
H422 C434 0.950 . S
H423 C435 0.950 . S
C424 H416 0.950 . S
C424 C425 1.386 . S
C424 C426 1.391 . S
C425 C424 1.386 . S
C425 C429 1.393 . S
C426 H418 0.950 . S
C426 C424 1.391 . S
C426 C427 1.400 . S
C427 C426 1.400 . S
C427 C428 1.398 . S
C427 C433 1.491 . S
C428 H419 0.950 . S
C428 C427 1.398 . S
C428 C429 1.391 . S
C429 H417 0.950 . S
C429 C425 1.393 . S
C429 C428 1.391 . S
C430 H420 0.950 . S
C430 C431 1.386 . S
C430 C432 1.391 . S
C431 C430 1.386 . S
C431 C435 1.393 . S
C432 H421 0.950 . S
C432 C430 1.391 . S
C432 C433 1.400 . S
C433 C427 1.491 . S
C433 C432 1.400 . S
C433 C434 1.398 . S
C434 H422 0.950 . S
C434 C433 1.398 . S
C434 C435 1.391 . S
C435 H423 0.950 . S
C435 C431 1.393 . S
C435 C434 1.391 . S
H436 C444 0.950 . S
H437 C449 0.950 . S
H438 C446 0.950 . S
H439 C448 0.950 . S
H440 C450 0.950 . S
H441 C452 0.950 . S
H442 C454 0.950 . S
H443 C455 0.950 . S
C444 H436 0.950 . S
C444 C445 1.386 . S
C444 C446 1.391 . S
C445 C444 1.386 . S
C445 C449 1.393 . S
C446 H438 0.950 . S
C446 C444 1.391 . S
C446 C447 1.400 . S
C447 C446 1.400 . S
C447 C448 1.398 . S
C447 C453 1.491 . S
C448 H439 0.950 . S
C448 C447 1.398 . S
C448 C449 1.391 . S
C449 H437 0.950 . S
C449 C445 1.393 . S
C449 C448 1.391 . S
C450 H440 0.950 . S
C450 C451 1.386 . S
C450 C452 1.391 . S
C451 C450 1.386 . S
C451 C455 1.393 . S
C452 H441 0.950 . S
C452 C450 1.391 . S
C452 C453 1.400 . S
C453 C447 1.491 . S
C453 C452 1.400 . S
C453 C454 1.398 . S
C454 H442 0.950 . S
C454 C453 1.398 . S
C454 C455 1.391 . S
C455 H443 0.950 . S
C455 C451 1.393 . S
C455 C454 1.391 . S
H456 C464 0.950 . S
H457 C469 0.950 . S
H458 C466 0.950 . S
H459 C468 0.950 . S
H460 C470 0.950 . S
H461 C472 0.950 . S
H462 C474 0.950 . S
H463 C475 0.950 . S
C464 H456 0.950 . S
C464 C465 1.386 . S
C464 C466 1.391 . S
C465 C464 1.386 . S
C465 C469 1.393 . S
C466 H458 0.950 . S
C466 C464 1.391 . S
C466 C467 1.400 . S
C467 C466 1.400 . S
C467 C468 1.398 . S
C467 C473 1.491 . S
C468 H459 0.950 . S
C468 C467 1.398 . S
C468 C469 1.391 . S
C469 H457 0.950 . S
C469 C465 1.393 . S
C469 C468 1.391 . S
C470 H460 0.950 . S
C470 C471 1.386 . S
C470 C472 1.391 . S
C471 C470 1.386 . S
C471 C475 1.393 . S
C472 H461 0.950 . S
C472 C470 1.391 . S
C472 C473 1.400 . S
C473 C467 1.491 . S
C473 C472 1.400 . S
C473 C474 1.398 . S
C474 H462 0.950 . S
C474 C473 1.398 . S
C474 C475 1.391 . S
C475 H463 0.950 . S
C475 C471 1.393 . S
C475 C474 1.391 . S
H476 C484 0.950 . S
H477 C489 0.950 . S
H478 C486 0.950 . S
H479 C488 0.950 . S
H480 C490 0.950 . S
H481 C492 0.950 . S
H482 C494 0.950 . S
H483 C495 0.950 . S
C484 H476 0.950 . S
C484 C485 1.386 . S
C484 C486 1.391 . S
C485 C484 1.386 . S
C485 C489 1.393 . S
C486 H478 0.950 . S
C486 C484 1.391 . S
C486 C487 1.400 . S
C487 C486 1.400 . S
C487 C488 1.398 . S
C487 C493 1.491 . S
C488 H479 0.950 . S
C488 C487 1.398 . S
C488 C489 1.391 . S
C489 H477 0.950 . S
C489 C485 1.393 . S
C489 C488 1.391 . S
C490 H480 0.950 . S
C490 C491 1.386 . S
C490 C492 1.391 . S
C491 C490 1.386 . S
C491 C495 1.393 . S
C492 H481 0.950 . S
C492 C490 1.391 . S
C492 C493 1.400 . S
C493 C487 1.491 . S
C493 C492 1.400 . S
C493 C494 1.398 . S
C494 H482 0.950 . S
C494 C493 1.398 . S
C494 C495 1.391 . S
C495 H483 0.950 . S
C495 C491 1.393 . S
C495 C494 1.391 . S
H496 C504 0.950 . S
H497 C509 0.950 . S
H498 C506 0.950 . S
H499 C508 0.950 . S
H500 C510 0.950 . S
H501 C512 0.950 . S
H502 C514 0.950 . S
H503 C515 0.950 . S
C504 H496 0.950 . S
C504 C505 1.386 . S
C504 C506 1.391 . S
C505 C504 1.386 . S
C505 C509 1.393 . S
C506 H498 0.950 . S
C506 C504 1.391 . S
C506 C507 1.400 . S
C507 C506 1.400 . S
C507 C508 1.398 . S
C507 C513 1.491 . S
C508 H499 0.950 . S
C508 C507 1.398 . S
C508 C509 1.391 . S
C509 H497 0.950 . S
C509 C505 1.393 . S
C509 C508 1.391 . S
C510 H500 0.950 . S
C510 C511 1.386 . S
C510 C512 1.391 . S
C511 C510 1.386 . S
C511 C515 1.393 . S
C512 H501 0.950 . S
C512 C510 1.391 . S
C512 C513 1.400 . S
C513 C507 1.491 . S
C513 C512 1.400 . S
C513 C514 1.398 . S
C514 H502 0.950 . S
C514 C513 1.398 . S
C514 C515 1.391 . S
C515 H503 0.950 . S
C515 C511 1.393 . S
C515 C514 1.391 . S
H516 C524 0.950 . S
H517 C529 0.950 . S
H518 C526 0.950 . S
H519 C528 0.950 . S
H520 C530 0.950 . S
H521 C532 0.950 . S
H522 C534 0.950 . S
H523 C535 0.950 . S
C524 H516 0.950 . S
C524 C525 1.386 . S
C524 C526 1.391 . S
C525 C524 1.386 . S
C525 C529 1.393 . S
C526 H518 0.950 . S
C526 C524 1.391 . S
C526 C527 1.400 . S
C527 C526 1.400 . S
C527 C528 1.398 . S
C527 C533 1.491 . S
C528 H519 0.950 . S
C528 C527 1.398 . S
C528 C529 1.391 . S
C529 H517 0.950 . S
C529 C525 1.393 . S
C529 C528 1.391 . S
C530 H520 0.950 . S
C530 C531 1.386 . S
C530 C532 1.391 . S
C531 C530 1.386 . S
C531 C535 1.393 . S
C532 H521 0.950 . S
C532 C530 1.391 . S
C532 C533 1.400 . S
C533 C527 1.491 . S
C533 C532 1.400 . S
C533 C534 1.398 . S
C534 H522 0.950 . S
C534 C533 1.398 . S
C534 C535 1.391 . S
C535 H523 0.950 . S
C535 C531 1.393 . S
C535 C534 1.391 . S
H536 C544 0.950 . S
H537 C549 0.950 . S
H538 C546 0.950 . S
H539 C548 0.950 . S
H540 C550 0.950 . S
H541 C552 0.950 . S
H542 C554 0.950 . S
H543 C555 0.950 . S
C544 H536 0.950 . S
C544 C545 1.386 . S
C544 C546 1.391 . S
C545 C544 1.386 . S
C545 C549 1.393 . S
C546 H538 0.950 . S
C546 C544 1.391 . S
C546 C547 1.400 . S
C547 C546 1.400 . S
C547 C548 1.398 . S
C547 C553 1.491 . S
C548 H539 0.950 . S
C548 C547 1.398 . S
C548 C549 1.391 . S
C549 H537 0.950 . S
C549 C545 1.393 . S
C549 C548 1.391 . S
C550 H540 0.950 . S
C550 C551 1.386 . S
C550 C552 1.391 . S
C551 C550 1.386 . S
C551 C555 1.393 . S
C552 H541 0.950 . S
C552 C550 1.391 . S
C552 C553 1.400 . S
C553 C547 1.491 . S
C553 C552 1.400 . S
C553 C554 1.398 . S
C554 H542 0.950 . S
C554 C553 1.398 . S
C554 C555 1.391 . S
C555 H543 0.950 . S
C555 C551 1.393 . S
C555 C554 1.391 . S
H556 C564 0.950 . S
H557 C569 0.950 . S
H558 C566 0.950 . S
H559 C568 0.950 . S
H560 C570 0.950 . S
H561 C572 0.950 . S
H562 C574 0.950 . S
H563 C575 0.950 . S
C564 H556 0.950 . S
C564 C565 1.386 . S
C564 C566 1.391 . S
C565 C564 1.386 . S
C565 C569 1.393 . S
C566 H558 0.950 . S
C566 C564 1.391 . S
C566 C567 1.400 . S
C567 C566 1.400 . S
C567 C568 1.398 . S
C567 C573 1.491 . S
C568 H559 0.950 . S
C568 C567 1.398 . S
C568 C569 1.391 . S
C569 H557 0.950 . S
C569 C565 1.393 . S
C569 C568 1.391 . S
C570 H560 0.950 . S
C570 C571 1.386 . S
C570 C572 1.391 . S
C571 C570 1.386 . S
C571 C575 1.393 . S
C572 H561 0.950 . S
C572 C570 1.391 . S
C572 C573 1.400 . S
C573 C567 1.491 . S
C573 C572 1.400 . S
C573 C574 1.398 . S
C574 H562 0.950 . S
C574 C573 1.398 . S
C574 C575 1.391 . S
C575 H563 0.950 . S
C575 C571 1.393 . S
C575 C574 1.391 . S
H576 C584 0.950 . S
H577 C589 0.950 . S
H578 C586 0.950 . S
H579 C588 0.968 . S
H580 C590 0.950 1_655 S
H581 C592 0.950 1_655 S
H582 C594 0.950 . S
H583 C595 0.950 . S
C584 H576 0.950 . S
C584 C585 1.386 . S
C584 C586 1.391 . S
C585 C584 1.386 . S
C585 C589 1.393 1_455 S
C586 H578 0.950 . S
C586 C584 1.391 . S
C586 C587 1.400 . S
C587 C586 1.400 . S
C587 C588 1.381 1_455 S
C587 C593 1.491 . S
C588 H579 0.968 . S
C588 C587 1.381 1_655 S
C588 C589 1.391 . S
C589 H577 0.950 . S
C589 C585 1.393 1_655 S
C589 C588 1.391 . S
C590 H580 0.950 1_455 S
C590 C591 1.386 1_554 S
C590 C592 1.391 . S
C591 C590 1.386 1_556 S
C591 C595 1.393 1_556 S
C592 H581 0.950 1_455 S
C592 C590 1.391 . S
C592 C593 1.400 . S
C593 C587 1.491 . S
C593 C592 1.400 . S
C593 C594 1.398 . S
C594 H582 0.950 . S
C594 C593 1.398 . S
C594 C595 1.391 . S
C595 H583 0.950 . S
C595 C591 1.393 1_554 S
C595 C594 1.391 . S
H596 C604 0.937 1_565 S
H597 C609 0.950 . S
H598 C606 0.950 . S
H599 C608 0.950 . S
H600 C610 0.950 . S
H601 C612 0.950 . S
H602 C614 0.950 . S
H603 C615 0.950 . S
C604 H596 0.937 1_545 S
C604 C605 1.386 . S
C604 C606 1.391 . S
C605 C604 1.386 . S
C605 C609 1.393 . S
C606 H598 0.950 . S
C606 C604 1.391 . S
C606 C607 1.400 . S
C607 C606 1.400 . S
C607 C608 1.398 . S
C607 C613 1.491 . S
C608 H599 0.950 . S
C608 C607 1.398 . S
C608 C609 1.391 . S
C609 H597 0.950 . S
C609 C605 1.393 . S
C609 C608 1.391 . S
C610 H600 0.950 . S
C610 C611 1.386 . S
C610 C612 1.391 . S
C611 C610 1.386 . S
C611 C615 1.393 . S
C612 H601 0.950 . S
C612 C610 1.391 . S
C612 C613 1.400 . S
C613 C607 1.491 . S
C613 C612 1.400 . S
C613 C614 1.398 . S
C614 H602 0.950 . S
C614 C613 1.398 . S
C614 C615 1.391 . S
C615 H603 0.950 . S
C615 C611 1.393 . S
C615 C614 1.391 . S
H616 C624 0.950 . S
H617 C629 0.950 . S
H618 C626 0.950 . S
H619 C628 0.950 . S
H620 C630 0.950 . S
H621 C632 0.950 . S
H622 C634 0.950 . S
H623 C635 0.950 . S
C624 H616 0.950 . S
C624 C625 1.386 . S
C624 C626 1.391 . S
C625 C624 1.386 . S
C625 C629 1.393 . S
C626 H618 0.950 . S
C626 C624 1.391 . S
C626 C627 1.400 . S
C627 C626 1.400 . S
C627 C628 1.398 . S
C627 C633 1.491 . S
C628 H619 0.950 . S
C628 C627 1.398 . S
C628 C629 1.391 . S
C629 H617 0.950 . S
C629 C625 1.393 . S
C629 C628 1.391 . S
C630 H620 0.950 . S
C630 C631 1.386 . S
C630 C632 1.391 . S
C631 C630 1.386 . S
C631 C635 1.393 . S
C632 H621 0.950 . S
C632 C630 1.391 . S
C632 C633 1.400 . S
C633 C627 1.491 . S
C633 C632 1.400 . S
C633 C634 1.398 . S
C634 H622 0.950 . S
C634 C633 1.398 . S
C634 C635 1.391 . S
C635 H623 0.950 . S
C635 C631 1.393 . S
C635 C634 1.391 . S
H636 C644 0.950 . S
H637 C649 0.950 . S
H638 C646 0.950 1_565 S
H639 C648 0.950 . S
H640 C650 0.965 . S
H641 C652 0.966 . S
H642 C654 0.950 . S
H643 C655 0.950 . S
C644 H636 0.950 . S
C644 C645 1.386 . S
C644 C646 1.391 . S
C645 C644 1.386 . S
C645 C649 1.393 . S
C646 H638 0.950 1_545 S
C646 C644 1.391 . S
C646 C647 1.400 . S
C647 C646 1.400 . S
C647 C648 1.398 . S
C647 C653 1.488 1_545 S
C648 H639 0.950 . S
C648 C647 1.398 . S
C648 C649 1.391 . S
C649 H637 0.950 . S
C649 C645 1.393 . S
C649 C648 1.391 . S
C650 H640 0.965 . S
C650 C651 1.386 . S
C650 C652 1.389 1_565 S
C651 C650 1.386 . S
C651 C655 1.393 . S
C652 H641 0.966 . S
C652 C650 1.389 1_545 S
C652 C653 1.372 1_545 S
C653 C647 1.488 1_565 S
C653 C652 1.372 1_565 S
C653 C654 1.417 . S
C654 H642 0.950 . S
C654 C653 1.417 . S
C654 C655 1.391 . S
C655 H643 0.950 . S
C655 C651 1.393 . S
C655 C654 1.391 . S
H656 C664 0.950 . S
H657 C669 0.950 . S
H658 C666 0.950 . S
H659 C668 0.950 . S
H660 C670 0.950 . S
H661 C672 0.950 . S
H662 C674 0.950 . S
H663 C675 0.950 . S
C664 H656 0.950 . S
C664 C665 1.386 . S
C664 C666 1.391 . S
C665 C664 1.386 . S
C665 C669 1.393 . S
C666 H658 0.950 . S
C666 C664 1.391 . S
C666 C667 1.400 . S
C667 C666 1.400 . S
C667 C668 1.398 . S
C667 C673 1.491 . S
C668 H659 0.950 . S
C668 C667 1.398 . S
C668 C669 1.391 . S
C669 H657 0.950 . S
C669 C665 1.393 . S
C669 C668 1.391 . S
C670 H660 0.950 . S
C670 C671 1.386 . S
C670 C672 1.391 . S
C671 C670 1.386 . S
C671 C675 1.393 . S
C672 H661 0.950 . S
C672 C670 1.391 . S
C672 C673 1.400 . S
C673 C667 1.491 . S
C673 C672 1.400 . S
C673 C674 1.398 . S
C674 H662 0.950 . S
C674 C673 1.398 . S
C674 C675 1.391 . S
C675 H663 0.950 . S
C675 C671 1.393 . S
C675 C674 1.391 . S
H676 C684 0.950 . S
H677 C689 0.950 . S
H678 C686 0.950 . S
H679 C688 0.950 . S
H680 C690 0.950 . S
H681 C692 0.950 . S
H682 C694 0.950 . S
H683 C695 0.950 . S
C684 H676 0.950 . S
C684 C685 1.386 . S
C684 C686 1.391 . S
C685 C684 1.386 . S
C685 C689 1.393 1_455 S
C686 H678 0.950 . S
C686 C684 1.391 . S
C686 C687 1.400 . S
C687 C686 1.400 . S
C687 C688 1.398 1_455 S
C687 C693 1.491 . S
C688 H679 0.950 . S
C688 C687 1.398 1_655 S
C688 C689 1.391 . S
C689 H677 0.950 . S
C689 C685 1.393 1_655 S
C689 C688 1.391 . S
C690 H680 0.950 . S
C690 C691 1.397 . S
C690 C692 1.391 . S
C691 C690 1.397 . S
C691 C695 1.381 1_655 S
C692 H681 0.950 . S
C692 C690 1.391 . S
C692 C693 1.400 1_655 S
C693 C687 1.491 . S
C693 C692 1.400 1_455 S
C693 C694 1.398 . S
C694 H682 0.950 . S
C694 C693 1.398 . S
C694 C695 1.391 . S
C695 H683 0.950 . S
C695 C691 1.381 1_455 S
C695 C694 1.391 . S
C345 C6 0.591 . S
C351 C325 0.584 . S
C365 C59 1.924 . S
C371 C253 1.866 . S
C385 C86 1.220 . S
C391 C289 1.216 . S
C405 C15 0.415 . S
C411 C301 0.308 . S
C431 C229 1.986 . S
C425 C50 2.030 . S
C451 C265 1.312 . S
C445 C95 1.309 . S
C465 C46 1.220 . S
C471 C181 1.203 . S
C485 C99 3.103 . S
C491 C193 3.065 . S
C505 C10 2.057 . S
C511 C121 2.030 . S
C531 C157 1.308 . S
C525 C55 1.281 . S
C551 C217 2.944 . S
C545 C90 3.009 . S
C565 C19 1.916 . S
C571 C145 1.863 . S
C591 C223 1.770 . S
C585 C18 1.709 . S
C605 C49 1.333 . S
C611 C151 1.375 . S
C625 C98 1.467 . S
C631 C187 1.505 . S
C651 C295 1.486 . S
C645 C58 1.439 . S
C671 C331 1.099 1_556 S
C665 C89 1.077 . S
C685 C9 1.338 . S
C691 C259 1.359 1_655 S
