# Generated by pormake.
# Topology pyr, (3,6)-cn, num edge types: 1
# Building blocks:
#     Node 0, Type 0, BuildingBlock: VETTIZ_charged_linker_0, # of connection points: 3
#     Node 1, Type 0, BuildingBlock: VETTIZ_charged_linker_0, # of connection points: 3
#     Node 2, Type 0, BuildingBlock: VETTIZ_charged_linker_0, # of connection points: 3
#     Node 3, Type 0, BuildingBlock: VETTIZ_charged_linker_0, # of connection points: 3
#     Node 4, Type 0, BuildingBlock: VETTIZ_charged_linker_0, # of connection points: 3
#     Node 5, Type 0, BuildingBlock: VETTIZ_charged_linker_0, # of connection points: 3
#     Node 6, Type 0, BuildingBlock: VETTIZ_charged_linker_0, # of connection points: 3
#     Node 7, Type 0, BuildingBlock: VETTIZ_charged_linker_0, # of connection points: 3
#     Node 8, Type 1, BuildingBlock: BETDAH_clean_sbu_0, # of connection points: 6
#     Node 9, Type 1, BuildingBlock: BETDAH_clean_sbu_0, # of connection points: 6
#     Node 10, Type 1, BuildingBlock: BETDAH_clean_sbu_0, # of connection points: 6
#     Node 11, Type 1, BuildingBlock: BETDAH_clean_sbu_0, # of connection points: 6
#     Edge 12, Type (0, 1), BuildingBlock: EZIPEK_clean_linker_0, # of connection points: 2
#     Edge 13, Type (0, 1), BuildingBlock: EZIPEK_clean_linker_0, # of connection points: 2
#     Edge 14, Type (0, 1), BuildingBlock: EZIPEK_clean_linker_0, # of connection points: 2
#     Edge 15, Type (0, 1), BuildingBlock: EZIPEK_clean_linker_0, # of connection points: 2
#     Edge 16, Type (0, 1), BuildingBlock: EZIPEK_clean_linker_0, # of connection points: 2
#     Edge 17, Type (0, 1), BuildingBlock: EZIPEK_clean_linker_0, # of connection points: 2
#     Edge 18, Type (0, 1), BuildingBlock: EZIPEK_clean_linker_0, # of connection points: 2
#     Edge 19, Type (0, 1), BuildingBlock: EZIPEK_clean_linker_0, # of connection points: 2
#     Edge 20, Type (0, 1), BuildingBlock: EZIPEK_clean_linker_0, # of connection points: 2
#     Edge 21, Type (0, 1), BuildingBlock: EZIPEK_clean_linker_0, # of connection points: 2
#     Edge 22, Type (0, 1), BuildingBlock: EZIPEK_clean_linker_0, # of connection points: 2
#     Edge 23, Type (0, 1), BuildingBlock: EZIPEK_clean_linker_0, # of connection points: 2
#     Edge 24, Type (0, 1), BuildingBlock: EZIPEK_clean_linker_0, # of connection points: 2
#     Edge 25, Type (0, 1), BuildingBlock: EZIPEK_clean_linker_0, # of connection points: 2
#     Edge 26, Type (0, 1), BuildingBlock: EZIPEK_clean_linker_0, # of connection points: 2
#     Edge 27, Type (0, 1), BuildingBlock: EZIPEK_clean_linker_0, # of connection points: 2
#     Edge 28, Type (0, 1), BuildingBlock: EZIPEK_clean_linker_0, # of connection points: 2
#     Edge 29, Type (0, 1), BuildingBlock: EZIPEK_clean_linker_0, # of connection points: 2
#     Edge 30, Type (0, 1), BuildingBlock: EZIPEK_clean_linker_0, # of connection points: 2
#     Edge 31, Type (0, 1), BuildingBlock: EZIPEK_clean_linker_0, # of connection points: 2
#     Edge 32, Type (0, 1), BuildingBlock: EZIPEK_clean_linker_0, # of connection points: 2
#     Edge 33, Type (0, 1), BuildingBlock: EZIPEK_clean_linker_0, # of connection points: 2
#     Edge 34, Type (0, 1), BuildingBlock: EZIPEK_clean_linker_0, # of connection points: 2
#     Edge 35, Type (0, 1), BuildingBlock: EZIPEK_clean_linker_0, # of connection points: 2
# Relax obj value: 0.136
# Max RMSD: 0.135
# Mean RMSD: 0.065
data_MOF--net-pyr--node1-BETDAH_clean_sbu_0--node2-VETTIZ_charged_linker_0--edge1-EZIPEK_clean_linker_0
_symmetry_space_group_name_H-M    P1
_symmetry_Int_Tables_number       1
_symmetry_cell_setting            triclinic
loop_
_symmetry_equiv_pos_as_xyz
'x, y, z'
_cell_length_a     35.765696
_cell_length_b     37.965332
_cell_length_c     34.800613
_cell_angle_alpha  90.765946
_cell_angle_beta   88.946469
_cell_angle_gamma 101.95653
loop_
_atom_site_label
_atom_site_type_symbol
_atom_site_fract_x
_atom_site_fract_y
_atom_site_fract_z
_atom_type_partial_charge
C0 C 0.30237 0.26336 0.36163 0.0
C1 C 0.27782 0.28438 0.37764 0.0
C2 C 0.28488 0.32154 0.3701 0.0
C3 C 0.32972 0.31269 0.32015 0.0
C4 C 0.32889 0.27846 0.33318 0.0
C5 C 0.35567 0.26019 0.31015 0.0
H6 H 0.43036 0.23428 0.13708 0.0
C7 C 0.34939 0.31659 0.28258 0.0
C8 C 0.36668 0.28687 0.2773 0.0
H9 H 0.447 0.18318 0.24384 0.0
H10 H 0.4177 0.22636 0.2791 0.0
H11 H 0.4487 0.32058 0.17014 0.0
H12 H 0.34655 0.23873 0.15571 0.0
H13 H 0.33467 0.28 0.14541 0.0
H14 H 0.3699 0.26423 0.11586 0.0
H15 H 0.43108 0.3035 0.12407 0.0
H16 H 0.4135 0.33945 0.14783 0.0
C17 C 0.39026 0.25768 0.33555 0.0
C18 C 0.33354 0.22306 0.29578 0.0
C19 C 0.28819 0.38388 0.18611 0.0
C20 C 0.28617 0.38193 0.14603 0.0
C21 C 0.31231 0.36568 0.12513 0.0
C22 C 0.33793 0.34878 0.14451 0.0
C23 C 0.33683 0.34783 0.185 0.0
C24 C 0.31286 0.36605 0.20502 0.0
C25 C 0.31504 0.36249 0.24776 0.0
C26 C 0.34219 0.33654 0.25024 0.0
C27 C 0.35509 0.32823 0.21338 0.0
C28 C 0.33316 0.39998 0.26442 0.0
C29 C 0.27431 0.34679 0.26444 0.0
C30 C 0.42815 0.23283 0.16813 0.0
C31 C 0.44081 0.20542 0.18788 0.0
C32 C 0.43735 0.20405 0.22822 0.0
C33 C 0.42007 0.22869 0.24852 0.0
C34 C 0.40499 0.25406 0.22819 0.0
C35 C 0.41021 0.25678 0.18887 0.0
C36 C 0.39161 0.28539 0.17251 0.0
C37 C 0.37636 0.30058 0.2089 0.0
C38 C 0.38324 0.28107 0.24108 0.0
C39 C 0.42267 0.31378 0.15228 0.0
C40 C 0.35913 0.26646 0.14575 0.0
H41 H 0.31479 0.36395 0.33481 0.0
H42 H 0.29857 0.23517 0.36877 0.0
H43 H 0.30743 0.226 0.28032 0.0
H44 H 0.35074 0.20976 0.27589 0.0
H45 H 0.32475 0.20445 0.32017 0.0
H46 H 0.38916 0.27115 0.36402 0.0
H47 H 0.39146 0.22925 0.34144 0.0
H48 H 0.41776 0.2711 0.3219 0.0
H49 H 0.26909 0.39729 0.20255 0.0
H50 H 0.31162 0.36465 0.09403 0.0
H51 H 0.35655 0.33591 0.12734 0.0
H52 H 0.35684 0.41408 0.2455 0.0
H53 H 0.31157 0.41716 0.26712 0.0
H54 H 0.34616 0.3983 0.29269 0.0
H55 H 0.27006 0.31736 0.26926 0.0
H56 H 0.26846 0.36042 0.29154 0.0
H57 H 0.25099 0.35015 0.24514 0.0
H58 H 0.26733 0.33842 0.3836 0.0
C59 C 0.31123 0.33592 0.34127 0.0
C60 C 0.21763 0.93958 0.57286 0.0
C61 C 0.20514 0.9656 0.59596 0.0
C62 C 0.21733 0.97094 0.6342 0.0
C63 C 0.24969 0.92128 0.62765 0.0
C64 C 0.24028 0.91796 0.58921 0.0
C65 C 0.25682 0.88917 0.56909 0.0
H66 H 0.35343 0.75489 0.58373 0.0
C67 C 0.26939 0.8922 0.63694 0.0
C68 C 0.27369 0.87321 0.60288 0.0
H69 H 0.33147 0.8087 0.48079 0.0
H70 H 0.29271 0.84312 0.51791 0.0
H71 H 0.38012 0.8234 0.62629 0.0
H72 H 0.26919 0.75266 0.63125 0.0
H73 H 0.28072 0.76779 0.67839 0.0
H74 H 0.31037 0.74166 0.65301 0.0
H75 H 0.37196 0.78031 0.64915 0.0
H76 H 0.36559 0.82012 0.67468 0.0
C77 C 0.28803 0.90761 0.54001 0.0
C78 C 0.22414 0.8615 0.55047 0.0
C79 C 0.30804 0.87703 0.77396 0.0
C80 C 0.32452 0.85119 0.79175 0.0
C81 C 0.32876 0.82003 0.77128 0.0
C82 C 0.3191 0.816 0.73234 0.0
C83 C 0.30503 0.84338 0.71409 0.0
C84 C 0.2983 0.8725 0.73532 0.0
C85 C 0.2811 0.89785 0.7119 0.0
C86 C 0.28066 0.88026 0.67251 0.0
C87 C 0.29516 0.84872 0.67385 0.0
C88 C 0.30828 0.93542 0.71285 0.0
C89 C 0.24022 0.89717 0.728 0.0
C90 C 0.33892 0.77314 0.5691 0.0
C91 C 0.34464 0.77899 0.52959 0.0
C92 C 0.32686 0.80376 0.51126 0.0
C93 C 0.30515 0.82403 0.53293 0.0
C94 C 0.30262 0.82016 0.57316 0.0
C95 C 0.31903 0.79467 0.59051 0.0
C96 C 0.31904 0.7979 0.63358 0.0
C97 C 0.30069 0.83011 0.63933 0.0
C98 C 0.2904 0.84253 0.60398 0.0
C99 C 0.36118 0.80562 0.64699 0.0
C100 C 0.29379 0.76319 0.65023 0.0
H101 H 0.2467 0.9533 0.67991 0.0
H102 H 0.20909 0.93566 0.54314 0.0
H103 H 0.20039 0.85279 0.57158 0.0
H104 H 0.23344 0.8369 0.54048 0.0
H105 H 0.21248 0.87335 0.52548 0.0
H106 H 0.29668 0.93714 0.54518 0.0
H107 H 0.27788 0.90376 0.50997 0.0
H108 H 0.31483 0.89748 0.54233 0.0
H109 H 0.30386 0.90082 0.78961 0.0
H110 H 0.34095 0.79968 0.78504 0.0
H111 H 0.32404 0.79231 0.71764 0.0
H112 H 0.33869 0.93279 0.71288 0.0
H113 H 0.30312 0.95087 0.73906 0.0
H114 H 0.30592 0.95169 0.68727 0.0
H115 H 0.22702 0.87022 0.73967 0.0
H116 H 0.22022 0.90196 0.7058 0.0
H117 H 0.24064 0.91716 0.75167 0.0
H118 H 0.20822 0.99128 0.6521 0.0
C119 C 0.23931 0.9487 0.65028 0.0
C120 C 0.61566 0.25954 0.93992 0.0
C121 C 0.5842 0.23507 0.92454 0.0
C122 C 0.56806 0.24538 0.8906 0.0
C123 C 0.61382 0.3032 0.88887 0.0
C124 C 0.63019 0.29269 0.92149 0.0
C125 C 0.66511 0.3199 0.9331 0.0
H126 H 0.79325 0.47686 0.90632 0.0
C127 C 0.63634 0.33965 0.87697 0.0
C128 C 0.66678 0.34893 0.90294 0.0
H129 H 0.79342 0.39576 0.99202 0.0
H130 H 0.73468 0.36053 0.96718 0.0
H131 H 0.70111 0.47465 0.91332 0.0
H132 H 0.76574 0.42099 0.83443 0.0
H133 H 0.73221 0.43867 0.80835 0.0
H134 H 0.76901 0.46883 0.83423 0.0
H135 H 0.73081 0.49839 0.87588 0.0
H136 H 0.68207 0.47578 0.86728 0.0
C137 C 0.65762 0.33401 0.97391 0.0
C138 C 0.70003 0.30157 0.92986 0.0
C139 C 0.5956 0.41045 0.76396 0.0
C140 C 0.61112 0.44468 0.74784 0.0
C141 C 0.6447 0.46501 0.76419 0.0
C142 C 0.66238 0.45214 0.79547 0.0
C143 C 0.64674 0.41817 0.81129 0.0
C144 C 0.6138 0.39779 0.79558 0.0
C145 C 0.60187 0.36195 0.81611 0.0
C146 C 0.63227 0.36461 0.84715 0.0
C147 C 0.65883 0.39777 0.84388 0.0
C148 C 0.56158 0.3597 0.83377 0.0
C149 C 0.60409 0.33147 0.78687 0.0
C150 C 0.78048 0.45145 0.91955 0.0
C151 C 0.79823 0.43897 0.95121 0.0
C152 C 0.78052 0.4059 0.9677 0.0
C153 C 0.74634 0.38542 0.95306 0.0
C154 C 0.72909 0.3978 0.92125 0.0
C155 C 0.74601 0.43045 0.90511 0.0
C156 C 0.72302 0.43927 0.87169 0.0
C157 C 0.69018 0.40626 0.86993 0.0
C158 C 0.69398 0.38207 0.8992 0.0
C159 C 0.70858 0.47396 0.88217 0.0
C160 C 0.74869 0.4424 0.83512 0.0
H161 H 0.56839 0.28519 0.84764 0.0
H162 H 0.62918 0.25272 0.96559 0.0
H163 H 0.69585 0.28019 0.90722 0.0
H164 H 0.7266 0.32036 0.92099 0.0
H165 H 0.70485 0.28876 0.95734 0.0
H166 H 0.62758 0.33749 0.97708 0.0
H167 H 0.6624 0.31488 0.99627 0.0
H168 H 0.67534 0.36083 0.98026 0.0
H169 H 0.57007 0.39386 0.75202 0.0
H170 H 0.65745 0.49114 0.75252 0.0
H171 H 0.68786 0.46925 0.80612 0.0
H172 H 0.56017 0.38493 0.84983 0.0
H173 H 0.53969 0.35596 0.811 0.0
H174 H 0.55363 0.33759 0.85449 0.0
H175 H 0.63039 0.3386 0.76864 0.0
H176 H 0.6058 0.30596 0.80084 0.0
H177 H 0.57908 0.32668 0.7676 0.0
H178 H 0.54409 0.22723 0.87769 0.0
C179 C 0.58231 0.27913 0.87306 0.0
C180 C 0.94558 0.81891 0.39992 0.0
C181 C 0.92987 0.84007 0.42753 0.0
C182 C 0.89165 0.82738 0.43963 0.0
C183 C 0.88678 0.77269 0.40114 0.0
C184 C 0.92308 0.78574 0.38642 0.0
C185 C 0.93291 0.7607 0.35492 0.0
H186 H 0.88026 0.60163 0.25195 0.0
C187 C 0.87136 0.73675 0.38357 0.0
C188 C 0.89783 0.72948 0.3556 0.0
H189 H 0.98099 0.68464 0.23354 0.0
H190 H 0.9624 0.71935 0.28731 0.0
H191 H 0.8868 0.6037 0.34496 0.0
H192 H 0.81909 0.65484 0.27049 0.0
H193 H 0.79025 0.63245 0.30819 0.0
H194 H 0.81269 0.60679 0.27445 0.0
H195 H 0.84516 0.57857 0.32164 0.0
H196 H 0.8418 0.6016 0.36692 0.0
C197 C 0.9696 0.74818 0.36596 0.0
C198 C 0.93667 0.78124 0.31656 0.0
C199 C 0.74786 0.66228 0.44021 0.0
C200 C 0.72722 0.62696 0.43407 0.0
C201 C 0.74054 0.60577 0.40532 0.0
C202 C 0.77364 0.61966 0.38301 0.0
C203 C 0.7942 0.65511 0.38967 0.0
C204 C 0.78112 0.67556 0.41815 0.0
C205 C 0.80671 0.71214 0.42243 0.0
C206 C 0.83777 0.71038 0.39233 0.0
C207 C 0.83028 0.67711 0.37265 0.0
C208 C 0.82251 0.71514 0.46379 0.0
C209 C 0.78329 0.7409 0.41253 0.0
C210 C 0.89807 0.62746 0.25926 0.0
C211 C 0.932 0.64048 0.23792 0.0
C212 C 0.95461 0.67406 0.24906 0.0
C213 C 0.94363 0.6943 0.28023 0.0
C214 C 0.90937 0.68121 0.30091 0.0
C215 C 0.88741 0.64803 0.29035 0.0
C216 C 0.8526 0.6375 0.31623 0.0
C217 C 0.856 0.6703 0.34273 0.0
C218 C 0.88962 0.69615 0.33402 0.0
C219 C 0.85638 0.60342 0.33854 0.0
C220 C 0.81657 0.63237 0.29121 0.0
H221 H 0.84205 0.78612 0.43867 0.0
H222 H 0.97451 0.82799 0.38914 0.0
H223 H 0.9137 0.79686 0.3143 0.0
H224 H 0.93345 0.76317 0.29125 0.0
H225 H 0.9646 0.8005 0.31439 0.0
H226 H 0.96745 0.73879 0.39622 0.0
H227 H 0.99499 0.77057 0.36335 0.0
H228 H 0.97466 0.72536 0.34808 0.0
H229 H 0.73847 0.67916 0.46216 0.0
H230 H 0.72518 0.57846 0.40008 0.0
H231 H 0.78205 0.60224 0.36142 0.0
H232 H 0.83118 0.68976 0.47189 0.0
H233 H 0.80047 0.72004 0.48497 0.0
H234 H 0.84832 0.73644 0.46731 0.0
H235 H 0.7588 0.72965 0.39368 0.0
H236 H 0.80034 0.76354 0.39594 0.0
H237 H 0.77146 0.75166 0.43887 0.0
H238 H 0.87829 0.84305 0.45992 0.0
C239 C 0.87047 0.79407 0.42714 0.0
C240 C 0.73453 0.72491 0.94946 0.0
C241 C 0.75871 0.70262 0.93521 0.0
C242 C 0.75588 0.69091 0.89665 0.0
C243 C 0.71336 0.73094 0.88468 0.0
C244 C 0.71165 0.73859 0.92342 0.0
C245 C 0.68517 0.76409 0.93173 0.0
H246 H 0.59274 0.88863 0.86379 0.0
C247 C 0.69257 0.75394 0.86391 0.0
C248 C 0.67406 0.77222 0.89111 0.0
H249 H 0.59835 0.85548 0.98126 0.0
H250 H 0.63104 0.80833 0.96054 0.0
H251 H 0.57526 0.80484 0.82444 0.0
H252 H 0.66461 0.89457 0.83994 0.0
H253 H 0.68908 0.86818 0.81093 0.0
H254 H 0.64822 0.88331 0.79263 0.0
H255 H 0.58392 0.84778 0.80107 0.0
H256 H 0.60325 0.81088 0.78168 0.0
C257 C 0.65042 0.74389 0.95547 0.0
C258 C 0.70832 0.79793 0.9521 0.0
C259 C 0.74612 0.79972 0.7355 0.0
C260 C 0.74033 0.82949 0.7149 0.0
C261 C 0.70556 0.84103 0.71921 0.0
C262 C 0.67948 0.82651 0.74826 0.0
C263 C 0.68918 0.80134 0.77346 0.0
C264 C 0.72043 0.78628 0.7652 0.0
C265 C 0.72644 0.76003 0.79533 0.0
C266 C 0.69589 0.76497 0.82501 0.0
C267 C 0.67513 0.79012 0.81241 0.0
C268 C 0.71894 0.72165 0.77726 0.0
C269 C 0.76747 0.77223 0.81108 0.0
C270 C 0.60082 0.87091 0.88485 0.0
C271 C 0.59357 0.87568 0.92406 0.0
C272 C 0.60414 0.85223 0.9509 0.0
C273 C 0.62311 0.82506 0.93884 0.0
C274 C 0.63202 0.82174 0.89963 0.0
C275 C 0.62037 0.8441 0.87333 0.0
C276 C 0.63307 0.83742 0.83301 0.0
C277 C 0.6538 0.80682 0.83934 0.0
C278 C 0.65336 0.798 0.8785 0.0
C279 C 0.59706 0.82472 0.80847 0.0
C280 C 0.66001 0.87245 0.81816 0.0
H281 H 0.73144 0.69533 0.84218 0.0
H282 H 0.7353 0.73311 0.9794 0.0
H283 H 0.73586 0.80788 0.93654 0.0
H284 H 0.6935 0.82063 0.95322 0.0
H285 H 0.71494 0.79173 0.98202 0.0
H286 H 0.64516 0.71433 0.95001 0.0
H287 H 0.65496 0.74837 0.98679 0.0
H288 H 0.62347 0.75175 0.94755 0.0
H289 H 0.77248 0.79023 0.73158 0.0
H290 H 0.70047 0.8636 0.70285 0.0
H291 H 0.65417 0.8372 0.75185 0.0
H292 H 0.71149 0.72147 0.74634 0.0
H293 H 0.74458 0.7095 0.77869 0.0
H294 H 0.69459 0.70345 0.79177 0.0
H295 H 0.77245 0.80079 0.82095 0.0
H296 H 0.77325 0.75613 0.83546 0.0
H297 H 0.78929 0.76973 0.78868 0.0
H298 H 0.7733 0.67271 0.88564 0.0
C299 C 0.73252 0.70445 0.87144 0.0
C300 C 0.85078 0.16498 0.48506 0.0
C301 C 0.8696 0.14153 0.46455 0.0
C302 C 0.8716 0.143 0.42413 0.0
C303 C 0.83731 0.19176 0.42548 0.0
C304 C 0.83631 0.19071 0.46515 0.0
C305 C 0.82241 0.22197 0.48296 0.0
H306 H 0.73354 0.3595 0.46057 0.0
C307 C 0.82157 0.2228 0.41381 0.0
C308 C 0.81392 0.24124 0.44732 0.0
H309 H 0.77531 0.32486 0.56625 0.0
H310 H 0.80397 0.28136 0.53055 0.0
H311 H 0.70801 0.28083 0.42023 0.0
H312 H 0.80656 0.34381 0.36976 0.0
H313 H 0.76834 0.36577 0.38477 0.0
H314 H 0.80837 0.36539 0.41487 0.0
H315 H 0.7095 0.32502 0.40162 0.0
H316 H 0.7205 0.28974 0.37163 0.0
C317 C 0.78586 0.20688 0.50689 0.0
C318 C 0.85529 0.24505 0.50651 0.0
C319 C 0.77751 0.23054 0.27729 0.0
C320 C 0.75739 0.25407 0.26012 0.0
C321 C 0.75464 0.28652 0.2787 0.0
C322 C 0.76831 0.29363 0.31601 0.0
C323 C 0.78449 0.26787 0.33465 0.0
C324 C 0.79095 0.23799 0.31464 0.0
C325 C 0.81048 0.21466 0.33871 0.0
C326 C 0.81142 0.23394 0.37737 0.0
C327 C 0.79556 0.26464 0.37479 0.0
C328 C 0.78519 0.17629 0.34012 0.0
C329 C 0.85118 0.21596 0.32182 0.0
C330 C 0.74906 0.3426 0.47598 0.0
C331 C 0.75144 0.34458 0.51612 0.0
C332 C 0.77253 0.32297 0.53532 0.0
C333 C 0.78913 0.29798 0.51453 0.0
C334 C 0.78509 0.29539 0.47431 0.0
C335 C 0.76637 0.31838 0.45574 0.0
C336 C 0.76625 0.31347 0.41293 0.0
C337 C 0.78781 0.28325 0.40861 0.0
C338 C 0.79776 0.27211 0.44464 0.0
C339 C 0.72399 0.3018 0.4006 0.0
C340 C 0.78825 0.34888 0.39439 0.0
H341 H 0.85758 0.16806 0.37368 0.0
H342 H 0.84995 0.16504 0.51621 0.0
H343 H 0.8838 0.24098 0.49637 0.0
H344 H 0.85683 0.2743 0.50334 0.0
H345 H 0.85242 0.23812 0.53749 0.0
H346 H 0.76567 0.18666 0.48981 0.0
H347 H 0.79295 0.19344 0.53315 0.0
H348 H 0.76999 0.22767 0.51581 0.0
H349 H 0.78042 0.20578 0.26285 0.0
H350 H 0.73951 0.305 0.26541 0.0
H351 H 0.7638 0.31791 0.32964 0.0
H352 H 0.75528 0.17749 0.34836 0.0
H353 H 0.78476 0.1627 0.31163 0.0
H354 H 0.79494 0.15889 0.3612 0.0
H355 H 0.87303 0.21953 0.34452 0.0
H356 H 0.8525 0.19121 0.3049 0.0
H357 H 0.86061 0.23928 0.3024 0.0
H358 H 0.88661 0.12548 0.40797 0.0
C359 C 0.85513 0.16781 0.40443 0.0
C360 C 0.43742 0.67519 0.3376 0.0
C361 C 0.41904 0.6443 0.35871 0.0
C362 C 0.38133 0.62808 0.34808 0.0
C363 C 0.38234 0.67039 0.29556 0.0
C364 C 0.41816 0.68831 0.3071 0.0
C365 C 0.4313 0.72281 0.28439 0.0
H366 H 0.39543 0.8335 0.13948 0.0
C367 C 0.3704 0.68977 0.26217 0.0
C368 C 0.39879 0.72126 0.25586 0.0
H369 H 0.4918 0.85438 0.21493 0.0
H370 H 0.46804 0.79707 0.24712 0.0
H371 H 0.33008 0.80014 0.20284 0.0
H372 H 0.40014 0.75504 0.12262 0.0
H373 H 0.35751 0.72267 0.12619 0.0
H374 H 0.35657 0.76694 0.10823 0.0
H375 H 0.32525 0.80072 0.1516 0.0
H376 H 0.30047 0.76343 0.17983 0.0
C377 C 0.43414 0.75495 0.3126 0.0
C378 C 0.46943 0.72137 0.26368 0.0
C379 C 0.24936 0.63356 0.18663 0.0
C380 C 0.23321 0.64422 0.15294 0.0
C381 C 0.25163 0.6763 0.13503 0.0
C382 C 0.28492 0.69771 0.15024 0.0
C383 C 0.30074 0.6871 0.18388 0.0
C384 C 0.28335 0.65523 0.20131 0.0
C385 C 0.30503 0.64832 0.23656 0.0
C386 C 0.33848 0.68091 0.23688 0.0
C387 C 0.33526 0.70375 0.2062 0.0
C388 C 0.2785 0.6481 0.27226 0.0
C389 C 0.31873 0.61266 0.22986 0.0
C390 C 0.41104 0.82608 0.16342 0.0
C391 C 0.44511 0.84898 0.1751 0.0
C392 C 0.46512 0.8376 0.20574 0.0
C393 C 0.45122 0.8043 0.22442 0.0
C394 C 0.41682 0.78171 0.21245 0.0
C395 C 0.3977 0.79298 0.18212 0.0
C396 C 0.36283 0.76547 0.17135 0.0
C397 C 0.36273 0.73644 0.20108 0.0
C398 C 0.39447 0.74555 0.22547 0.0
C399 C 0.32765 0.78316 0.17633 0.0
C400 C 0.3692 0.75185 0.12993 0.0
H401 H 0.3351 0.62603 0.31005 0.0
H402 H 0.46597 0.68912 0.34504 0.0
H403 H 0.46741 0.69511 0.24846 0.0
H404 H 0.47719 0.74242 0.2417 0.0
H405 H 0.49308 0.72443 0.28452 0.0
H406 H 0.40883 0.75089 0.33236 0.0
H407 H 0.4601 0.75796 0.33041 0.0
H408 H 0.43453 0.78057 0.29793 0.0
H409 H 0.23575 0.6091 0.20118 0.0
H410 H 0.23971 0.68516 0.10936 0.0
H411 H 0.29683 0.72202 0.13525 0.0
H412 H 0.25806 0.66616 0.26824 0.0
H413 H 0.26149 0.62064 0.2779 0.0
H414 H 0.29439 0.65859 0.29837 0.0
H415 H 0.33249 0.6124 0.20096 0.0
H416 H 0.34024 0.60851 0.25065 0.0
H417 H 0.29427 0.58926 0.23132 0.0
H418 H 0.36571 0.60517 0.36394 0.0
C419 C 0.3634 0.64036 0.31665 0.0
C420 C 0.10138 0.2678 0.69503 0.0
C421 C 0.11525 0.24952 0.66368 0.0
C422 C 0.1498 0.26614 0.64568 0.0
C423 C 0.15598 0.31824 0.68859 0.0
C424 C 0.12226 0.30218 0.70698 0.0
C425 C 0.11237 0.32621 0.7394 0.0
H426 H 0.1583 0.48615 0.84156 0.0
C427 C 0.17075 0.35404 0.70696 0.0
C428 C 0.14542 0.3592 0.73704 0.0
H429 H 0.06099 0.39954 0.86049 0.0
H430 H 0.08178 0.36549 0.80744 0.0
H431 H 0.15482 0.4835 0.74703 0.0
H432 H 0.22048 0.43448 0.82579 0.0
H433 H 0.25039 0.45397 0.78764 0.0
H434 H 0.22887 0.48235 0.81927 0.0
H435 H 0.19247 0.50968 0.77516 0.0
H436 H 0.20233 0.48956 0.72989 0.0
C437 C 0.07365 0.33597 0.7305 0.0
C438 C 0.11229 0.30605 0.77764 0.0
C439 C 0.29413 0.43092 0.65292 0.0
C440 C 0.31598 0.46515 0.66209 0.0
C441 C 0.30328 0.48468 0.69275 0.0
C442 C 0.26945 0.47036 0.71377 0.0
C443 C 0.24781 0.43597 0.70424 0.0
C444 C 0.26048 0.41702 0.67414 0.0
C445 C 0.23434 0.38106 0.66762 0.0
C446 C 0.20377 0.38121 0.69861 0.0
C447 C 0.21154 0.41341 0.72025 0.0
C448 C 0.2179 0.3809 0.62664 0.0
C449 C 0.25746 0.35143 0.67459 0.0
C450 C 0.14149 0.45987 0.83424 0.0
C451 C 0.10781 0.44567 0.8555 0.0
C452 C 0.08694 0.41121 0.8448 0.0
C453 C 0.09911 0.39143 0.81391 0.0
C454 C 0.13282 0.4059 0.79296 0.0
C455 C 0.15337 0.43971 0.8034 0.0
C456 C 0.18854 0.45105 0.77815 0.0
C457 C 0.18599 0.41878 0.75099 0.0
C458 C 0.1531 0.39201 0.75956 0.0
C459 C 0.18474 0.4854 0.75646 0.0
C460 C 0.22412 0.45603 0.80385 0.0
H461 H 0.19601 0.31081 0.64237 0.0
H462 H 0.07487 0.25575 0.70953 0.0
H463 H 0.13745 0.29311 0.77879 0.0
H464 H 0.11441 0.32409 0.80295 0.0
H465 H 0.0861 0.2846 0.78071 0.0
H466 H 0.0728 0.34361 0.69982 0.0
H467 H 0.04966 0.31274 0.73588 0.0
H468 H 0.06847 0.35931 0.7474 0.0
H469 H 0.30312 0.41523 0.6296 0.0
H470 H 0.31966 0.51105 0.70044 0.0
H471 H 0.26144 0.48661 0.73673 0.0
H472 H 0.21396 0.4082 0.61875 0.0
H473 H 0.23736 0.37245 0.60476 0.0
H474 H 0.18915 0.36356 0.62403 0.0
H475 H 0.27917 0.35993 0.69722 0.0
H476 H 0.23957 0.32613 0.68546 0.0
H477 H 0.27286 0.34554 0.64805 0.0
H478 H 0.16107 0.25284 0.6217 0.0
C479 C 0.17005 0.30002 0.65781 0.0
Ho480 Ho 0.03273 0.06235 0.50716 0.0
Ho481 Ho 1.00914 1.02729 0.58229 0.0
C482 C 0.04924 0.11137 0.58672 0.0
C483 C 0.04507 0.10492 0.4494 0.0
C484 C 0.075 0.13704 0.44164 0.0
C485 C 0.08443 0.16495 0.46907 0.0
C486 C 0.11604 0.19298 0.46302 0.0
C487 C 0.13879 0.1931 0.42978 0.0
C488 C 0.12881 0.1658 0.40201 0.0
C489 C 0.0971 0.13803 0.40786 0.0
C490 C 0.0874 1.03371 0.54022 0.0
C491 C 0.99635 0.97921 0.50292 0.0
C492 C 0.99183 0.9829 0.63845 0.0
C493 C 0.95492 0.95908 0.64659 0.0
C494 C 0.95125 0.93254 0.67473 0.0
C495 C 0.91554 0.9104 0.68225 0.0
C496 C 0.88345 0.91459 0.66146 0.0
C497 C 0.88737 0.94061 0.63276 0.0
C498 C 0.9229 0.96278 0.62543 0.0
C499 C 0.95449 0.05582 0.54975 0.0
O500 O 0.04705 0.11032 0.54865 0.0
O501 O 0.04028 0.08104 0.60658 0.0
O502 O 0.05727 0.07477 0.45064 0.0
O503 O 1.02015 0.10771 0.47679 0.0
O504 O 0.08109 1.0328 0.50362 0.0
O505 O 0.06537 0.05078 0.55727 0.0
O506 O 1.00663 0.98037 0.53946 0.0
O507 O 0.99758 1.00984 0.48477 0.0
O508 O 0.99203 1.01722 0.6417 0.0
O509 O 1.00881 0.97513 0.60691 0.0
O510 O 0.95763 0.05289 0.5863 0.0
O511 O 0.97712 1.03956 0.53274 0.0
H512 H 0.068 0.16476 0.49551 0.0
H513 H 0.12318 0.21415 0.48446 0.0
H514 H 0.14593 0.16579 0.37599 0.0
H515 H 0.09045 0.11673 0.38649 0.0
H516 H 0.97576 0.92929 0.69112 0.0
H517 H 0.91268 0.89057 0.70479 0.0
H518 H 0.86278 0.94434 0.61681 0.0
H519 H 0.92537 0.98303 0.60338 0.0
Ho520 Ho 0.5506 0.04819 0.06363 0.0
Ho521 Ho 0.47572 1.03506 1.03451 0.0
C522 C 0.48978 0.09027 0.10106 0.0
C523 C 0.61731 0.07225 0.09241 0.0
C524 C 0.63986 0.10634 0.10649 0.0
C525 C 0.63212 0.13958 0.09557 0.0
C526 C 0.65137 0.17142 0.1131 0.0
C527 C 0.67779 0.1699 0.14206 0.0
C528 C 0.68651 0.13681 0.15161 0.0
C529 C 0.6677 0.10523 0.13387 0.0
C530 C 0.5083 0.98324 0.08939 0.0
C531 C 0.53562 0.99158 0.99616 0.0
C532 C 0.40788 1.00939 1.00892 0.0
C533 C 0.39168 0.97799 0.98495 0.0
C534 C 0.40207 0.94459 0.99004 0.0
C535 C 0.3907 0.91655 0.96362 0.0
C536 C 0.36887 0.92173 0.93195 0.0
C537 C 0.35693 0.9544 0.92794 0.0
C538 C 0.36829 0.98238 0.95429 0.0
C539 C 0.51933 0.09834 1.00592 0.0
O540 O 0.5256 0.09372 0.08925 0.0
O541 O 0.46428 0.06265 0.08897 0.0
O542 O 0.58695 0.05895 0.11301 0.0
O543 O 0.61115 0.0695 0.05559 0.0
O544 O 0.54434 0.99057 0.08126 0.0
O545 O 0.4968 1.01265 0.08643 0.0
O546 O 0.49953 0.99361 1.00071 0.0
O547 O 0.5627 1.01396 1.01443 0.0
O548 O 0.43257 1.03445 0.99154 0.0
O549 O 0.41889 1.00281 1.04311 0.0
O550 O 0.48495 0.09392 1.01988 0.0
O551 O 0.53016 0.06858 1.00951 0.0
H552 H 0.61043 0.14074 0.07455 0.0
H553 H 0.64436 0.19686 0.1056 0.0
H554 H 0.70686 0.13531 0.17392 0.0
H555 H 0.67386 0.07974 0.14259 0.0
H556 H 0.41996 0.94057 1.01364 0.0
H557 H 0.40019 0.89147 0.96693 0.0
H558 H 0.34012 0.9587 0.90351 0.0
H559 H 0.36007 1.00793 0.94989 0.0
Ho560 Ho 0.52021 0.5164 0.52845 0.0
Ho561 Ho 0.52496 0.58062 0.57567 0.0
C562 C 0.55402 0.51662 0.61638 0.0
C563 C 0.54166 0.46459 0.49173 0.0
C564 C 0.57602 0.45078 0.49955 0.0
C565 C 0.60622 0.47292 0.51918 0.0
C566 C 0.63778 0.45958 0.53015 0.0
C567 C 0.64031 0.42429 0.52041 0.0
C568 C 0.61047 0.4023 0.50001 0.0
C569 C 0.57828 0.41541 0.4899 0.0
C570 C 0.45437 0.51636 0.56859 0.0
C571 C 0.48672 0.57869 0.48908 0.0
C572 C 0.51002 0.63676 0.61014 0.0
C573 C 0.49613 0.66735 0.59435 0.0
C574 C 0.4609 0.67387 0.60752 0.0
C575 C 0.44248 0.69641 0.58705 0.0
C576 C 0.45908 0.71284 0.5532 0.0
C577 C 0.49557 0.70861 0.54158 0.0
C578 C 0.51409 0.68603 0.56208 0.0
C579 C 0.59053 0.581 0.53337 0.0
O580 O 0.55373 0.50361 0.58069 0.0
O581 O 0.54084 0.54626 0.62309 0.0
O582 O 0.5154 0.45908 0.51882 0.0
O583 O 0.54842 0.49761 0.47929 0.0
O584 O 0.45592 0.50409 0.53365 0.0
O585 O 0.48805 0.52658 0.58095 0.0
O586 O 0.49131 0.59412 0.52374 0.0
O587 O 0.49804 0.54807 0.48267 0.0
O588 O 0.54467 0.6338 0.60025 0.0
O589 O 0.4856 0.60603 0.60812 0.0
O590 O 0.58946 0.59278 0.56846 0.0
O591 O 0.5564 0.57045 0.52264 0.0
H592 H 0.60521 0.50054 0.52642 0.0
H593 H 0.66054 0.47691 0.54568 0.0
H594 H 0.61197 0.37487 0.49233 0.0
H595 H 0.55516 0.39796 0.47493 0.0
H596 H 0.44651 0.65975 0.63225 0.0
H597 H 0.41435 0.69967 0.59655 0.0
H598 H 0.50894 0.72168 0.5159 0.0
H599 H 0.54138 0.68163 0.55134 0.0
Ho600 Ho 1.01758 0.50932 0.07053 0.0
Ho601 Ho 1.01833 0.57249 1.02637 0.0
C602 C 0.09151 0.57537 0.07601 0.0
C603 C 0.03729 0.45547 0.10432 0.0
C604 C 0.07459 0.4447 0.10594 0.0
C605 C 0.10589 0.46283 0.08395 0.0
C606 C 0.14135 0.45311 0.08565 0.0
C607 C 0.14664 0.42597 0.1106 0.0
C608 C 0.11549 0.40795 0.13296 0.0
C609 C 0.07964 0.41714 0.13047 0.0
C610 C 0.97901 0.5557 0.1081 0.0
C611 C 0.94344 0.50738 1.02239 0.0
C612 C 1.00068 0.62829 0.99517 0.0
C613 C 0.96464 0.64124 0.99284 0.0
C614 C 0.94179 0.6436 1.02578 0.0
C615 C 0.90667 0.65399 1.0227 0.0
C616 C 0.89404 0.66222 0.98667 0.0
C617 C 0.91702 0.6604 0.95388 0.0
C618 C 0.95204 0.64992 0.95694 0.0
C619 C 0.0562 0.52615 0.98737 0.0
O620 O 0.07897 0.54015 0.07668 0.0
O621 O 0.07102 0.59587 0.05964 0.0
O622 O 0.03562 0.48574 0.12158 0.0
O623 O 1.02118 0.4529 0.07083 0.0
O624 O 0.96874 0.52087 0.10782 0.0
O625 O 1.01011 0.56395 0.08907 0.0
O626 O 0.95632 0.54262 1.02129 0.0
O627 O 0.96426 0.48643 1.03762 0.0
O628 O 1.00181 0.59866 0.97624 0.0
O629 O 1.01568 0.62884 1.0291 0.0
O630 O 0.06737 0.56088 0.98951 0.0
O631 O 0.02537 0.5176 1.00709 0.0
H632 H 0.10324 0.4847 0.0655 0.0
H633 H 0.16493 0.4673 0.06814 0.0
H634 H 0.11902 0.38686 0.15237 0.0
H635 H 0.05602 0.40303 0.14797 0.0
H636 H 0.95096 0.63727 0.05385 0.0
H637 H 0.88935 0.65552 0.04829 0.0
H638 H 0.90767 0.66689 0.92589 0.0
H639 H 0.96914 0.64826 0.93121 0.0
C640 C 0.24111 0.24732 0.43058 0.0
C641 C 0.24114 0.26621 0.39573 0.0
C642 C 0.17171 0.24604 0.39233 0.0
C643 C 0.17282 0.22205 0.42275 0.0
N644 N 0.20877 0.19779 0.47012 0.0
N645 N 0.20679 0.27846 0.3396 0.0
C646 C 0.20749 0.22242 0.44216 0.0
C647 C 0.20645 0.26468 0.37575 0.0
N648 N 0.27315 0.25331 0.45248 0.0
N649 N 0.13734 0.25062 0.37901 0.0
H650 H 0.23163 0.29068 0.32497 0.0
H651 H 0.1827 0.27444 0.3224 0.0
H652 H 0.11128 0.23725 0.39078 0.0
H653 H 0.13483 0.27033 0.35922 0.0
H654 H 0.27388 0.24282 0.4799 0.0
H655 H 0.29809 0.27151 0.44458 0.0
H656 H 0.2341 0.19408 0.48215 0.0
H657 H 0.18471 0.17931 0.47958 0.0
C658 C 0.37777 0.87619 0.83588 0.0
C659 C 0.33904 0.85872 0.83118 0.0
C660 C 0.32471 0.87176 0.8983 0.0
C661 C 0.36126 0.89471 0.90055 0.0
N662 N 0.4237 0.91839 0.87319 0.0
N663 N 0.27594 0.83684 0.8574 0.0
C664 C 0.38849 0.89614 0.87015 0.0
C665 C 0.31273 0.85502 0.86256 0.0
N666 N 0.40396 0.87429 0.80721 0.0
N667 N 0.30165 0.86642 0.93034 0.0
H668 H 0.26711 0.82282 0.83204 0.0
H669 H 0.25394 0.83643 0.87747 0.0
H670 H 0.31007 0.87855 0.95676 0.0
H671 H 0.27569 0.84803 0.93175 0.0
H672 H 0.43328 0.88343 0.81014 0.0
H673 H 0.39679 0.86087 0.78122 0.0
H674 H 0.44318 0.92436 0.85046 0.0
H675 H 0.43304 0.93249 0.89833 0.0
C676 C 0.56047 0.47445 0.71726 0.0
C677 C 0.59385 0.45967 0.71333 0.0
C678 C 0.60239 0.48353 0.647 0.0
C679 C 0.5676 0.49643 0.64974 0.0
N680 N 0.50903 0.49535 0.6859 0.0
N681 N 0.6414 0.44338 0.67084 0.0
C682 C 0.54544 0.48944 0.68451 0.0
C683 C 0.61311 0.46219 0.67706 0.0
N684 N 0.54356 0.47523 0.75268 0.0
N685 N 0.62674 0.49336 0.61665 0.0
H686 H 0.64995 0.42753 0.6919 0.0
H687 H 0.65362 0.44061 0.64385 0.0
H688 H 0.62045 0.50882 0.59429 0.0
H689 H 0.65459 0.4891 0.61556 0.0
H690 H 0.52207 0.48941 0.7586 0.0
H691 H 0.55305 0.464 0.77691 0.0
H692 H 0.49002 0.48714 0.70864 0.0
H693 H 0.49629 0.50496 0.66268 0.0
C694 C 0.97447 0.60006 0.20873 0.0
C695 C 0.94425 0.6189 0.20443 0.0
C696 C 0.93564 0.59487 0.13771 0.0
C697 C 0.9677 0.57832 0.14101 0.0
N698 N 1.01984 0.56774 0.17908 0.0
N699 N 0.8996 0.63825 0.16276 0.0
C700 C 0.98777 0.5818 0.17637 0.0
C701 C 0.92577 0.61727 0.16832 0.0
N702 N 0.98946 0.59834 0.24435 0.0
N703 N 0.91393 0.58853 0.10548 0.0
H704 H 0.89144 0.6546 0.18432 0.0
H705 H 0.88821 0.64172 0.13609 0.0
H706 H 0.92123 0.57395 0.08192 0.0
H707 H 0.88762 0.59586 0.10287 0.0
H708 H 1.00839 0.58192 0.25088 0.0
H709 H 0.98067 0.61128 0.26846 0.0
H710 H 0.03862 0.57299 0.20192 0.0
H711 H 0.0294 0.55273 0.15709 0.0
C712 C 0.49121 0.16971 0.17045 0.0
C713 C 0.45375 0.17592 0.16619 0.0
C714 C 0.44169 0.12933 0.11624 0.0
C715 C 0.47729 0.11959 0.12388 0.0
N716 N 0.53156 0.12592 0.16596 0.0
N717 N 0.38982 0.15406 0.14292 0.0
C718 C 0.50095 0.13853 0.15314 0.0
C719 C 0.4279 0.15338 0.14157 0.0
N720 N 0.51778 0.19387 0.19025 0.0
N721 N 0.42175 0.1177 0.08375 0.0
H722 H 0.37807 0.1704 0.16197 0.0
H723 H 0.36941 0.13547 0.12811 0.0
H724 H 0.43131 0.10237 0.06226 0.0
H725 H 0.39773 0.12723 0.07574 0.0
H726 H 0.54654 0.19244 0.19093 0.0
H727 H 0.5118 0.21722 0.20286 0.0
H728 H 0.54766 0.13715 0.18941 0.0
H729 H 0.53815 0.10179 0.15633 0.0
C730 C 0.14007 0.97925 0.6004 0.0
C731 C 0.1763 0.98497 0.5818 0.0
C732 C 0.15638 1.02749 0.53812 0.0
C733 C 0.12051 1.02236 0.55797 0.0
N734 N 0.08745 1.00633 0.61863 0.0
N735 N 0.22223 1.01985 0.53827 0.0
C736 C 0.11509 1.00235 0.59243 0.0
C737 C 0.18548 1.0106 0.55201 0.0
N738 N 0.12877 0.95095 0.62479 0.0
N739 N 0.16306 0.0494 0.50683 0.0
H740 H 0.24421 1.00829 0.54823 0.0
H741 H 0.23172 1.04083 0.51923 0.0
H742 H 0.1453 0.06681 0.49967 0.0
H743 H 0.18609 0.05021 0.48789 0.0
H744 H 0.10103 0.9439 0.63604 0.0
H745 H 0.14556 0.93224 0.63038 0.0
H746 H 0.08488 0.99416 0.64551 0.0
H747 H 0.07082 1.02552 0.6162 0.0
C748 C 0.83542 0.47692 1.00419 0.0
C749 C 0.83539 0.45964 0.96763 0.0
C750 C 0.90597 0.47731 0.96539 0.0
C751 C 0.90607 0.4911 1.00363 0.0
N752 N 0.87098 0.50029 0.06123 0.0
N753 N 0.8711 0.43971 0.91524 0.0
C754 C 0.87076 0.49 1.02345 0.0
C755 C 0.87084 0.45904 0.94863 0.0
N756 N 0.80155 0.48159 1.02012 0.0
N757 N 0.93947 0.48237 0.94465 0.0
H758 H 0.84619 0.42653 0.90178 0.0
H759 H 0.89589 0.43452 0.90229 0.0
H760 H 0.96572 0.49492 0.95602 0.0
H761 H 0.94094 0.47676 0.91537 0.0
H762 H 0.79962 0.49711 0.04468 0.0
H763 H 0.77536 0.47255 1.00679 0.0
H764 H 0.84657 0.49673 0.07869 0.0
H765 H 0.89617 0.50973 0.07611 0.0
C766 C 0.69568 0.60094 0.49646 0.0
C767 C 0.69204 0.6124 0.45827 0.0
C768 C 0.62258 0.60572 0.46946 0.0
C769 C 0.62541 0.59145 0.50691 0.0
N770 N 0.66537 0.5714 0.55366 0.0
N771 N 0.65109 0.61948 0.40609 0.0
C772 C 0.66223 0.58802 0.51967 0.0
C773 C 0.65515 0.61249 0.44404 0.0
N774 N 0.73136 0.60303 0.51097 0.0
N775 N 0.58983 0.61599 0.45901 0.0
H776 H 0.67421 0.62638 0.38702 0.0
H777 H 0.62465 0.61548 0.39281 0.0
H778 H 0.56651 0.61491 0.47736 0.0
H779 H 0.58742 0.62995 0.43393 0.0
H780 H 0.73647 0.59988 0.53995 0.0
H781 H 0.75631 0.61014 0.49438 0.0
H782 H 0.6901 0.56342 0.56211 0.0
H783 H 0.64244 0.56323 0.57247 0.0
C784 C 0.25231 0.43132 0.13116 0.0
C785 C 0.25414 0.3945 0.12757 0.0
C786 C 0.18901 0.38118 0.10261 0.0
C787 C 0.18478 0.4163 0.11345 0.0
N788 N 0.21174 0.47433 0.1418 0.0
N789 N 0.22235 0.3331 0.11354 0.0
C790 C 0.21642 0.44152 0.12826 0.0
C791 C 0.22219 0.36907 0.11374 0.0
N792 N 0.28496 0.45639 0.13774 0.0
N793 N 0.16152 0.35955 0.08129 0.0
H794 H 0.24578 0.32272 0.12161 0.0
H795 H 0.19809 0.31327 0.10819 0.0
H796 H 0.13712 0.36782 0.07211 0.0
H797 H 0.16484 0.33501 0.06945 0.0
H798 H 0.28618 0.48404 0.13726 0.0
H799 H 0.31162 0.44946 0.13979 0.0
H800 H 0.23286 0.4922 0.15649 0.0
H801 H 0.1857 0.48255 0.14151 0.0
C802 C 0.59177 0.17364 0.95066 0.0
C803 C 0.56823 0.19894 0.94378 0.0
C804 C 0.513 0.1531 0.96613 0.0
C805 C 0.53707 0.13069 0.98053 0.0
N806 N 0.60193 0.12207 0.98617 0.0
N807 N 0.5065 0.21409 0.95405 0.0
C808 C 0.57721 0.14166 0.97266 0.0
C809 C 0.52892 0.18905 0.95427 0.0
N810 N 0.62757 0.17901 0.93447 0.0
N811 N 0.47503 0.13944 0.96066 0.0
H812 H 0.51709 0.24105 0.94737 0.0
H813 H 0.47848 0.2088 0.96475 0.0
H814 H 0.46302 0.11207 0.96269 0.0
H815 H 0.45705 0.15414 0.9479 0.0
H816 H 0.64464 0.15988 0.93499 0.0
H817 H 0.63865 0.20087 0.91694 0.0
H818 H 0.63144 0.13153 0.98646 0.0
H819 H 0.59298 0.097 0.99846 0.0
C820 C 0.96937 0.90538 0.42386 0.0
C821 C 0.95208 0.87471 0.44582 0.0
C822 C 0.96024 0.91338 0.50391 0.0
C823 C 0.98169 0.94307 0.48298 0.0
N824 N 1.01548 0.96208 0.42343 0.0
N825 N 0.94353 0.84854 0.50905 0.0
C826 C 0.98888 0.93756 0.44302 0.0
C827 C 0.95175 0.87844 0.48657 0.0
N828 N 0.96591 0.90474 0.38486 0.0
N829 N 0.94523 0.91854 0.53938 0.0
H830 H 0.93891 0.82248 0.49758 0.0
H831 H 0.9458 0.84981 0.5389 0.0
H832 H 0.94624 0.94399 0.5513 0.0
H833 H 0.92704 0.89805 0.55433 0.0
H834 H 0.97472 0.92757 0.36804 0.0
H835 H 0.95091 0.88252 0.36979 0.0
H836 H 0.02392 0.95776 0.39522 0.0
H837 H 0.03249 0.9844 0.43663 0.0
C838 C 0.41282 0.78612 0.51613 0.0
C839 C 0.37606 0.76473 0.51137 0.0
C840 C 0.4023 0.71055 0.51246 0.0
C841 C 0.43593 0.73142 0.52876 0.0
N842 N 0.47596 0.78945 0.54244 0.0
N843 N 0.33557 0.70775 0.49744 0.0
C844 C 0.44276 0.76957 0.52819 0.0
C845 C 0.37104 0.72722 0.50582 0.0
N846 N 0.41694 0.82229 0.51169 0.0
N847 N 0.40015 0.67479 0.50497 0.0
H848 H 0.31297 0.72038 0.49173 0.0
H849 H 0.32843 0.67974 0.49699 0.0
H850 H 0.42303 0.66232 0.50992 0.0
H851 H 0.37738 0.65841 0.491 0.0
H852 H 0.44288 0.84076 0.51321 0.0
H853 H 0.44288 0.84076 0.51321 0.0
H854 H 0.48083 0.8171 0.54731 0.0
H855 H 0.49837 0.77792 0.55122 0.0
C856 C 0.79337 0.88337 0.72051 0.0
C857 C 0.77425 0.85371 0.69807 0.0
C858 C 0.82697 0.86382 0.65092 0.0
C859 C 0.84499 0.89438 0.67258 0.0
N860 N 0.84145 0.93843 0.72239 0.0
N861 N 0.76908 0.81872 0.63957 0.0
C862 C 0.82689 0.9058 0.70559 0.0
C863 C 0.78989 0.84491 0.66239 0.0
N864 N 0.78084 0.88897 0.75705 0.0
N865 N 0.84585 0.8523 0.62026 0.0
H866 H 0.74194 0.80444 0.64759 0.0
H867 H 0.7772 0.81307 0.61167 0.0
H868 H 0.87279 0.86591 0.61084 0.0
H869 H 0.83608 0.82816 0.60562 0.0
H870 H 0.79647 0.90735 0.77623 0.0
H871 H 0.75649 0.87329 0.76971 0.0
H872 H 0.82701 0.94995 0.74383 0.0
H873 H 0.8663 0.95564 0.71254 0.0
C874 C 0.75238 0.24113 0.18954 0.0
C875 C 0.7342 0.24158 0.22597 0.0
C876 C 0.67407 0.20825 0.19959 0.0
C877 C 0.69422 0.20171 0.16576 0.0
N878 N 0.75115 0.21315 0.12621 0.0
N879 N 0.67806 0.22489 0.2669 0.0
C880 C 0.73288 0.21914 0.15973 0.0
C881 C 0.69484 0.22572 0.23116 0.0
N882 N 0.78826 0.26148 0.18385 0.0
N883 N 0.63525 0.19681 0.20178 0.0
H884 H 0.692 0.23739 0.29102 0.0
H885 H 0.65102 0.2097 0.27342 0.0
H886 H 0.61932 0.1831 0.17938 0.0
H887 H 0.61843 0.20381 0.22419 0.0
H888 H 0.80223 0.26459 0.15724 0.0
H889 H 0.80292 0.27769 0.20549 0.0
H890 H 0.78043 0.22153 0.12142 0.0
H891 H 0.73678 0.19854 0.10334 0.0
C892 C 0.45653 0.64991 0.42246 0.0
C893 C 0.43808 0.62831 0.3917 0.0
C894 C 0.44577 0.57462 0.42832 0.0
C895 C 0.46909 0.59622 0.45624 0.0
N896 N 0.50512 0.65614 0.47073 0.0
N897 N 0.42698 0.56934 0.36168 0.0
C898 C 0.47685 0.63435 0.45075 0.0
C899 C 0.43625 0.59044 0.39357 0.0
N900 N 0.45345 0.68504 0.42621 0.0
N901 N 0.4309 0.53916 0.43537 0.0
H902 H 0.42271 0.57991 0.33499 0.0
H903 H 0.42831 0.54217 0.36076 0.0
H904 H 0.43401 0.52708 0.4615 0.0
H905 H 0.41134 0.52318 0.4172 0.0
H906 H 0.4641 0.701 0.44978 0.0
H907 H 0.43656 0.69689 0.40839 0.0
H908 H 0.51519 0.68303 0.46348 0.0
H909 H 0.52144 0.64675 0.4911 0.0
C910 C 0.09725 0.45522 0.92747 0.0
C911 C 0.09426 0.46643 0.88902 0.0
C912 C 0.06482 0.51616 0.91433 0.0
C913 C 0.06678 0.50419 0.95293 0.0
N914 N 0.07627 0.45661 0.99399 0.0
N915 N 0.06977 0.50441 0.84544 0.0
C916 C 0.08044 0.47199 0.95867 0.0
C917 C 0.07673 0.49621 0.88242 0.0
N918 N 0.11747 0.42918 0.93448 0.0
N919 N 0.05069 0.5463 0.90789 0.0
H920 H 0.07813 0.49072 0.82166 0.0
H921 H 0.05342 0.52292 0.83806 0.0
H922 H 0.03632 0.55832 0.92894 0.0
H923 H 0.0537 0.55988 0.88188 0.0
H924 H 0.1246 0.42255 0.96195 0.0
H925 H 0.13013 0.41633 0.91267 0.0
H926 H 0.08165 0.43129 0.99973 0.0
H927 H 0.06353 0.46793 1.01664 0.0
C928 C 0.53838 0.89875 0.95259 0.0
C929 C 0.57609 0.90598 0.93737 0.0
C930 C 0.58034 0.97033 0.94932 0.0
C931 C 0.54627 0.96235 0.97195 0.0
N932 N 0.49443 0.91663 0.99838 0.0
N933 N 0.63494 0.94863 0.92413 0.0
C934 C 0.52519 0.92602 0.97399 0.0
C935 C 0.59759 0.94182 0.93623 0.0
N936 N 0.51516 0.86579 0.94661 0.0
N937 N 0.59559 1.00509 0.93929 0.0
H938 H 0.64887 0.92854 0.91449 0.0
H939 H 0.65299 0.97386 0.92677 0.0
H940 H 0.58244 1.02645 0.94647 0.0
H941 H 0.61857 1.01206 0.9201 0.0
H942 H 0.48605 0.86024 0.95341 0.0
H943 H 0.52413 0.84517 0.93122 0.0
H944 H 0.48094 0.89003 1.00352 0.0
H945 H 0.48495 0.93442 1.01725 0.0
C946 C 0.918 0.1349 0.51327 0.0
C947 C 0.89067 0.11848 0.48604 0.0
C948 C 0.90457 0.05965 0.50098 0.0
C949 C 0.9292 0.07613 0.53063 0.0
N950 N 0.94815 0.12787 0.57294 0.0
N951 N 0.85166 0.06413 0.46 0.0
C952 C 0.93217 0.11313 0.53955 0.0
C953 C 0.88218 0.08047 0.48139 0.0
N954 N 0.93212 0.17124 0.51284 0.0
N955 N 0.90185 1.02405 0.49209 0.0
H956 H 0.83382 0.07842 0.44639 0.0
H957 H 0.84186 1.03634 0.4587 0.0
H958 H 0.91454 1.00695 0.50831 0.0
H959 H 0.88821 1.01186 0.46768 0.0
H960 H 0.95448 0.18386 0.53022 0.0
H961 H 0.92475 0.1881 0.49214 0.0
H962 H 0.94643 0.15379 0.58204 0.0
H963 H 0.96044 0.11394 0.59302 0.0
C964 C 0.16181 0.63628 0.14359 0.0
C965 C 0.19609 0.62363 0.13666 0.0
C966 C 0.16251 0.58039 0.08859 0.0
C967 C 0.12777 0.59205 0.09665 0.0
N968 N 0.09286 0.62558 0.13848 0.0
N969 N 0.22749 0.57945 0.10764 0.0
C970 C 0.12706 0.61855 0.12594 0.0
C971 C 0.19582 0.59423 0.11084 0.0
N972 N 0.16254 0.66578 0.16676 0.0
N973 N 0.16432 0.55755 0.05821 0.0
H974 H 0.25253 0.58952 0.12256 0.0
H975 H 0.22797 0.55553 0.09283 0.0
H976 H 0.14115 0.54786 1.04053 0.0
H977 H 0.18951 0.55068 0.0483 0.0
H978 H 0.14016 0.67946 0.16883 0.0
H979 H 0.18649 0.678 0.18233 0.0
H980 H 0.08989 0.64119 0.16273 0.0
H981 H 0.0667 0.61316 0.12701 0.0
C982 C 0.3853 0.4653 0.6449 0.0
C983 C 0.35231 0.48005 0.63977 0.0
C984 C 0.38823 0.52187 0.5917 0.0
C985 C 0.41979 0.50464 0.59414 0.0
N986 N 0.4456 0.45553 0.61837 0.0
N987 N 0.32069 0.51945 0.6047 0.0
C988 C 0.41763 0.47523 0.6196 0.0
C989 C 0.3534 0.5077 0.61229 0.0
N990 N 0.38614 0.44237 0.67467 0.0
N991 N 0.39182 0.55233 0.57024 0.0
H992 H 0.29487 0.50996 0.61921 0.0
H993 H 0.3183 0.53651 0.58212 0.0
H994 H 0.41653 0.56305 0.55443 0.0
H995 H 0.37166 0.56856 0.57048 0.0
H996 H 0.41073 0.43386 0.68266 0.0
H997 H 0.36313 0.43444 0.69368 0.0
H998 H 0.4436 0.43145 0.63301 0.0
H999 H 0.46952 0.46153 0.6002 0.0
C1000 C 0.82438 0.72061 0.96263 0.0
C1001 C 0.79013 0.69421 0.95838 0.0
C1002 C 0.82267 0.64711 0.97921 0.0
C1003 C 0.85699 0.67344 0.98268 0.0
N1004 N 0.88832 0.73575 0.98845 0.0
N1005 N 0.75376 0.63479 0.97137 0.0
C1006 C 0.85699 0.71043 0.9781 0.0
C1007 C 0.78835 0.65821 0.96978 0.0
N1008 N 0.82662 0.75478 0.94946 0.0
N1009 N 0.82335 0.61146 0.98308 0.0
H1010 H 0.72831 0.64255 0.96468 0.0
H1011 H 0.74978 0.60894 0.98248 0.0
H1012 H 0.84778 0.60249 0.99092 0.0
H1013 H 0.8004 0.59064 0.97654 0.0
H1014 H 0.85213 0.77377 0.94728 0.0
H1015 H 0.80347 0.76367 0.93816 0.0
H1016 H 0.88876 0.76326 0.98942 0.0
H1017 H 0.91278 0.729 0.99959 0.0
C1018 C 0.4881 0.88333 0.12313 0.0
C1019 C 0.46082 0.88335 0.15316 0.0
C1020 C 0.45705 0.94563 0.13531 0.0
C1021 C 0.48862 0.94783 0.10881 0.0
N1022 N 0.53391 0.91599 0.07797 0.0
N1023 N 0.42249 0.91613 0.19104 0.0
C1024 C 0.50398 0.91588 0.10301 0.0
C1025 C 0.44628 0.91499 0.16008 0.0
N1026 N 0.49774 0.85151 0.1124 0.0
N1027 N 0.43585 0.9717 0.13605 0.0
H1028 H 0.41346 0.89422 0.20916 0.0
H1029 H 0.41451 0.93962 0.20077 0.0
H1030 H 0.44019 0.99326 0.11738 0.0
H1031 H 0.41054 0.96958 0.15193 0.0
H1032 H 0.5131 0.84821 0.08736 0.0
H1033 H 0.48774 0.82738 0.12679 0.0
H1034 H 0.55094 0.89683 0.07845 0.0
H1035 H 0.54219 0.93494 0.05659 0.0
C1036 C 0.10654 0.18146 0.65748 0.0
C1037 C 0.0944 0.21351 0.64786 0.0
C1038 C 0.05248 0.17943 0.59815 0.0
C1039 C 0.06504 0.14704 0.60732 0.0
N1040 N 0.11219 0.12088 0.63903 0.0
N1041 N 0.05163 0.2422 0.61348 0.0
C1042 C 0.09393 0.14896 0.6356 0.0
C1043 C 0.06625 0.21217 0.61937 0.0
N1044 N 0.12977 0.18195 0.68832 0.0
N1045 N 0.02872 0.1797 0.5679 0.0
H1046 H 0.0616 0.26663 0.62764 0.0
H1047 H 0.02766 0.2425 0.59711 0.0
H1048 H 1.0159 0.1569 0.55265 0.0
H1049 H 0.02337 0.20305 0.55585 0.0
H1050 H 0.13629 0.15891 0.70004 0.0
H1051 H 0.1397 0.2052 0.70458 0.0
H1052 H 0.13605 0.12183 0.65597 0.0
H1053 H 0.10663 0.09798 0.62152 0.0
C1054 C 0.74067 0.40592 0.52464 0.0
C1055 C 0.73088 0.36964 0.53618 0.0
C1056 C 0.66736 0.37831 0.55491 0.0
C1057 C 0.6737 0.40966 0.53201 0.0
N1058 N 0.71745 0.45355 0.49388 0.0
N1059 N 0.68543 0.32136 0.56586 0.0
C1060 C 0.71098 0.42435 0.51747 0.0
C1061 C 0.69472 0.35611 0.55355 0.0
N1062 N 0.7781 0.42128 0.51762 0.0
N1063 N 0.63508 0.36971 0.57731 0.0
H1064 H 0.70511 0.30465 0.56633 0.0
H1065 H 0.6578 0.30877 0.57412 0.0
H1066 H 0.61498 0.3861 0.57913 0.0
H1067 H 0.63037 0.34862 0.59683 0.0
H1068 H 0.7875 0.44848 0.51139 0.0
H1069 H 0.7998 0.40715 0.52199 0.0
H1070 H 0.74342 0.46274 0.47958 0.0
H1071 H 0.69617 0.4668 0.48572 0.0
loop_
_geom_bond_atom_site_label_1
_geom_bond_atom_site_label_2
_geom_bond_distance
_geom_bond_site_symmetry_2
_ccdc_geom_bond_type
C0 C1 1.391 . S
C0 C4 1.391 . S
C0 H42 0.948 . S
C1 C0 1.391 . S
C1 C2 1.391 . S
C2 C1 1.391 . S
C2 H58 0.947 . S
C2 C59 1.392 . S
C3 C4 1.391 . S
C3 C7 1.397 . S
C3 C59 1.419 . S
C4 C0 1.391 . S
C4 C3 1.391 . S
C4 C5 1.399 . S
C5 C4 1.399 . S
C5 C8 1.396 . S
C5 C17 1.453 . S
C5 C18 1.684 . S
H6 C30 0.948 . S
C7 C3 1.397 . S
C7 C8 1.394 . S
C7 C26 1.723 . S
C8 C5 1.396 . S
C8 C7 1.394 . S
C8 C38 1.723 . S
H9 C32 0.947 . S
H10 C33 0.948 . S
H11 C39 0.982 . S
H12 C40 0.979 . S
H13 C40 0.980 . S
H14 C40 0.983 . S
H15 C39 0.979 . S
H16 C39 0.977 . S
C17 C5 1.453 . S
C17 H46 0.982 . S
C17 H47 0.979 . S
C17 H48 0.977 . S
C18 C5 1.684 . S
C18 H43 0.979 . S
C18 H44 0.980 . S
C18 H45 0.983 . S
C19 C20 1.391 . S
C19 C24 1.391 . S
C19 H49 0.948 . S
C20 C19 1.391 . S
C20 C21 1.391 . S
C21 C20 1.391 . S
C21 C22 1.392 . S
C21 H50 0.947 . S
C22 C21 1.392 . S
C22 C23 1.419 . S
C22 H51 0.948 . S
C23 C22 1.419 . S
C23 C24 1.391 . S
C23 C27 1.397 . S
C24 C19 1.391 . S
C24 C23 1.391 . S
C24 C25 1.399 . S
C25 C24 1.399 . S
C25 C26 1.396 . S
C25 C28 1.453 . S
C25 C29 1.684 . S
C26 C7 1.723 . S
C26 C25 1.396 . S
C26 C27 1.394 . S
C27 C23 1.397 . S
C27 C26 1.394 . S
C27 C37 1.723 . S
C28 C25 1.453 . S
C28 H52 0.982 . S
C28 H53 0.979 . S
C28 H54 0.977 . S
C29 C25 1.684 . S
C29 H55 0.979 . S
C29 H56 0.980 . S
C29 H57 0.983 . S
C30 H6 0.948 . S
C30 C31 1.391 . S
C30 C35 1.391 . S
C31 C30 1.391 . S
C31 C32 1.391 . S
C32 H9 0.947 . S
C32 C31 1.391 . S
C32 C33 1.392 . S
C33 H10 0.948 . S
C33 C32 1.392 . S
C33 C34 1.419 . S
C34 C33 1.419 . S
C34 C35 1.391 . S
C34 C38 1.397 . S
C35 C30 1.391 . S
C35 C34 1.391 . S
C35 C36 1.399 . S
C36 C35 1.399 . S
C36 C37 1.396 . S
C36 C39 1.453 . S
C36 C40 1.684 . S
C37 C27 1.723 . S
C37 C36 1.396 . S
C37 C38 1.394 . S
C38 C8 1.723 . S
C38 C34 1.397 . S
C38 C37 1.394 . S
C39 H11 0.982 . S
C39 H15 0.979 . S
C39 H16 0.977 . S
C39 C36 1.453 . S
C40 H12 0.979 . S
C40 H13 0.980 . S
C40 H14 0.983 . S
C40 C36 1.684 . S
H41 C59 0.948 . S
H42 C0 0.948 . S
H43 C18 0.979 . S
H44 C18 0.980 . S
H45 C18 0.983 . S
H46 C17 0.982 . S
H47 C17 0.979 . S
H48 C17 0.977 . S
H49 C19 0.948 . S
H50 C21 0.947 . S
H51 C22 0.948 . S
H52 C28 0.982 . S
H53 C28 0.979 . S
H54 C28 0.977 . S
H55 C29 0.979 . S
H56 C29 0.980 . S
H57 C29 0.983 . S
H58 C2 0.947 . S
C59 C2 1.392 . S
C59 C3 1.419 . S
C59 H41 0.948 . S
C60 C61 1.391 . S
C60 C64 1.391 . S
C60 H102 0.948 . S
C61 C60 1.391 . S
C61 C62 1.391 . S
C62 C61 1.391 . S
C62 H118 0.947 . S
C62 C119 1.392 . S
C63 C64 1.391 . S
C63 C67 1.397 . S
C63 C119 1.419 . S
C64 C60 1.391 . S
C64 C63 1.391 . S
C64 C65 1.399 . S
C65 C64 1.399 . S
C65 C68 1.396 . S
C65 C77 1.453 . S
C65 C78 1.684 . S
H66 C90 0.948 . S
C67 C63 1.397 . S
C67 C68 1.394 . S
C67 C86 1.723 . S
C68 C65 1.396 . S
C68 C67 1.394 . S
C68 C98 1.723 . S
H69 C92 0.947 . S
H70 C93 0.948 . S
H71 C99 0.982 . S
H72 C100 0.979 . S
H73 C100 0.980 . S
H74 C100 0.983 . S
H75 C99 0.979 . S
H76 C99 0.977 . S
C77 C65 1.453 . S
C77 H106 0.982 . S
C77 H107 0.979 . S
C77 H108 0.977 . S
C78 C65 1.684 . S
C78 H103 0.979 . S
C78 H104 0.980 . S
C78 H105 0.983 . S
C79 C80 1.391 . S
C79 C84 1.391 . S
C79 H109 0.948 . S
C80 C79 1.391 . S
C80 C81 1.391 . S
C81 C80 1.391 . S
C81 C82 1.392 . S
C81 H110 0.947 . S
C82 C81 1.392 . S
C82 C83 1.419 . S
C82 H111 0.948 . S
C83 C82 1.419 . S
C83 C84 1.391 . S
C83 C87 1.397 . S
C84 C79 1.391 . S
C84 C83 1.391 . S
C84 C85 1.399 . S
C85 C84 1.399 . S
C85 C86 1.396 . S
C85 C88 1.453 . S
C85 C89 1.684 . S
C86 C67 1.723 . S
C86 C85 1.396 . S
C86 C87 1.394 . S
C87 C83 1.397 . S
C87 C86 1.394 . S
C87 C97 1.723 . S
C88 C85 1.453 . S
C88 H112 0.982 . S
C88 H113 0.979 . S
C88 H114 0.977 . S
C89 C85 1.684 . S
C89 H115 0.979 . S
C89 H116 0.980 . S
C89 H117 0.983 . S
C90 H66 0.948 . S
C90 C91 1.391 . S
C90 C95 1.391 . S
C91 C90 1.391 . S
C91 C92 1.391 . S
C92 H69 0.947 . S
C92 C91 1.391 . S
C92 C93 1.392 . S
C93 H70 0.948 . S
C93 C92 1.392 . S
C93 C94 1.419 . S
C94 C93 1.419 . S
C94 C95 1.391 . S
C94 C98 1.397 . S
C95 C90 1.391 . S
C95 C94 1.391 . S
C95 C96 1.399 . S
C96 C95 1.399 . S
C96 C97 1.396 . S
C96 C99 1.453 . S
C96 C100 1.684 . S
C97 C87 1.723 . S
C97 C96 1.396 . S
C97 C98 1.394 . S
C98 C68 1.723 . S
C98 C94 1.397 . S
C98 C97 1.394 . S
C99 H71 0.982 . S
C99 H75 0.979 . S
C99 H76 0.977 . S
C99 C96 1.453 . S
C100 H72 0.979 . S
C100 H73 0.980 . S
C100 H74 0.983 . S
C100 C96 1.684 . S
H101 C119 0.948 . S
H102 C60 0.948 . S
H103 C78 0.979 . S
H104 C78 0.980 . S
H105 C78 0.983 . S
H106 C77 0.982 . S
H107 C77 0.979 . S
H108 C77 0.977 . S
H109 C79 0.948 . S
H110 C81 0.947 . S
H111 C82 0.948 . S
H112 C88 0.982 . S
H113 C88 0.979 . S
H114 C88 0.977 . S
H115 C89 0.979 . S
H116 C89 0.980 . S
H117 C89 0.983 . S
H118 C62 0.947 . S
C119 C62 1.392 . S
C119 C63 1.419 . S
C119 H101 0.948 . S
C120 C121 1.391 . S
C120 C124 1.391 . S
C120 H162 0.948 . S
C121 C120 1.391 . S
C121 C122 1.391 . S
C122 C121 1.391 . S
C122 H178 0.947 . S
C122 C179 1.392 . S
C123 C124 1.391 . S
C123 C127 1.397 . S
C123 C179 1.419 . S
C124 C120 1.391 . S
C124 C123 1.391 . S
C124 C125 1.399 . S
C125 C124 1.399 . S
C125 C128 1.396 . S
C125 C137 1.453 . S
C125 C138 1.684 . S
H126 C150 0.948 . S
C127 C123 1.397 . S
C127 C128 1.394 . S
C127 C146 1.723 . S
C128 C125 1.396 . S
C128 C127 1.394 . S
C128 C158 1.723 . S
H129 C152 0.947 . S
H130 C153 0.948 . S
H131 C159 0.982 . S
H132 C160 0.979 . S
H133 C160 0.980 . S
H134 C160 0.983 . S
H135 C159 0.979 . S
H136 C159 0.977 . S
C137 C125 1.453 . S
C137 H166 0.982 . S
C137 H167 0.979 . S
C137 H168 0.977 . S
C138 C125 1.684 . S
C138 H163 0.979 . S
C138 H164 0.980 . S
C138 H165 0.983 . S
C139 C140 1.391 . S
C139 C144 1.391 . S
C139 H169 0.948 . S
C140 C139 1.391 . S
C140 C141 1.391 . S
C141 C140 1.391 . S
C141 C142 1.392 . S
C141 H170 0.947 . S
C142 C141 1.392 . S
C142 C143 1.419 . S
C142 H171 0.948 . S
C143 C142 1.419 . S
C143 C144 1.391 . S
C143 C147 1.397 . S
C144 C139 1.391 . S
C144 C143 1.391 . S
C144 C145 1.399 . S
C145 C144 1.399 . S
C145 C146 1.396 . S
C145 C148 1.453 . S
C145 C149 1.684 . S
C146 C127 1.723 . S
C146 C145 1.396 . S
C146 C147 1.394 . S
C147 C143 1.397 . S
C147 C146 1.394 . S
C147 C157 1.723 . S
C148 C145 1.453 . S
C148 H172 0.982 . S
C148 H173 0.979 . S
C148 H174 0.977 . S
C149 C145 1.684 . S
C149 H175 0.979 . S
C149 H176 0.980 . S
C149 H177 0.983 . S
C150 H126 0.948 . S
C150 C151 1.391 . S
C150 C155 1.391 . S
C151 C150 1.391 . S
C151 C152 1.391 . S
C152 H129 0.947 . S
C152 C151 1.391 . S
C152 C153 1.392 . S
C153 H130 0.948 . S
C153 C152 1.392 . S
C153 C154 1.419 . S
C154 C153 1.419 . S
C154 C155 1.391 . S
C154 C158 1.397 . S
C155 C150 1.391 . S
C155 C154 1.391 . S
C155 C156 1.399 . S
C156 C155 1.399 . S
C156 C157 1.396 . S
C156 C159 1.453 . S
C156 C160 1.684 . S
C157 C147 1.723 . S
C157 C156 1.396 . S
C157 C158 1.394 . S
C158 C128 1.723 . S
C158 C154 1.397 . S
C158 C157 1.394 . S
C159 H131 0.982 . S
C159 H135 0.979 . S
C159 H136 0.977 . S
C159 C156 1.453 . S
C160 H132 0.979 . S
C160 H133 0.980 . S
C160 H134 0.983 . S
C160 C156 1.684 . S
H161 C179 0.948 . S
H162 C120 0.948 . S
H163 C138 0.979 . S
H164 C138 0.980 . S
H165 C138 0.983 . S
H166 C137 0.982 . S
H167 C137 0.979 . S
H168 C137 0.977 . S
H169 C139 0.948 . S
H170 C141 0.947 . S
H171 C142 0.948 . S
H172 C148 0.982 . S
H173 C148 0.979 . S
H174 C148 0.977 . S
H175 C149 0.979 . S
H176 C149 0.980 . S
H177 C149 0.983 . S
H178 C122 0.947 . S
C179 C122 1.392 . S
C179 C123 1.419 . S
C179 H161 0.948 . S
C180 C181 1.391 . S
C180 C184 1.391 . S
C180 H222 0.948 . S
C181 C180 1.391 . S
C181 C182 1.391 . S
C182 C181 1.391 . S
C182 H238 0.947 . S
C182 C239 1.392 . S
C183 C184 1.391 . S
C183 C187 1.397 . S
C183 C239 1.419 . S
C184 C180 1.391 . S
C184 C183 1.391 . S
C184 C185 1.399 . S
C185 C184 1.399 . S
C185 C188 1.396 . S
C185 C197 1.453 . S
C185 C198 1.684 . S
H186 C210 0.948 . S
C187 C183 1.397 . S
C187 C188 1.394 . S
C187 C206 1.723 . S
C188 C185 1.396 . S
C188 C187 1.394 . S
C188 C218 1.723 . S
H189 C212 0.947 . S
H190 C213 0.948 . S
H191 C219 0.982 . S
H192 C220 0.979 . S
H193 C220 0.980 . S
H194 C220 0.983 . S
H195 C219 0.979 . S
H196 C219 0.977 . S
C197 C185 1.453 . S
C197 H226 0.982 . S
C197 H227 0.979 . S
C197 H228 0.977 . S
C198 C185 1.684 . S
C198 H223 0.979 . S
C198 H224 0.980 . S
C198 H225 0.983 . S
C199 C200 1.391 . S
C199 C204 1.391 . S
C199 H229 0.948 . S
C200 C199 1.391 . S
C200 C201 1.391 . S
C201 C200 1.391 . S
C201 C202 1.392 . S
C201 H230 0.947 . S
C202 C201 1.392 . S
C202 C203 1.419 . S
C202 H231 0.948 . S
C203 C202 1.419 . S
C203 C204 1.391 . S
C203 C207 1.397 . S
C204 C199 1.391 . S
C204 C203 1.391 . S
C204 C205 1.399 . S
C205 C204 1.399 . S
C205 C206 1.396 . S
C205 C208 1.453 . S
C205 C209 1.684 . S
C206 C187 1.723 . S
C206 C205 1.396 . S
C206 C207 1.394 . S
C207 C203 1.397 . S
C207 C206 1.394 . S
C207 C217 1.723 . S
C208 C205 1.453 . S
C208 H232 0.982 . S
C208 H233 0.979 . S
C208 H234 0.977 . S
C209 C205 1.684 . S
C209 H235 0.979 . S
C209 H236 0.980 . S
C209 H237 0.983 . S
C210 H186 0.948 . S
C210 C211 1.391 . S
C210 C215 1.391 . S
C211 C210 1.391 . S
C211 C212 1.391 . S
C212 H189 0.947 . S
C212 C211 1.391 . S
C212 C213 1.392 . S
C213 H190 0.948 . S
C213 C212 1.392 . S
C213 C214 1.419 . S
C214 C213 1.419 . S
C214 C215 1.391 . S
C214 C218 1.397 . S
C215 C210 1.391 . S
C215 C214 1.391 . S
C215 C216 1.399 . S
C216 C215 1.399 . S
C216 C217 1.396 . S
C216 C219 1.453 . S
C216 C220 1.684 . S
C217 C207 1.723 . S
C217 C216 1.396 . S
C217 C218 1.394 . S
C218 C188 1.723 . S
C218 C214 1.397 . S
C218 C217 1.394 . S
C219 H191 0.982 . S
C219 H195 0.979 . S
C219 H196 0.977 . S
C219 C216 1.453 . S
C220 H192 0.979 . S
C220 H193 0.980 . S
C220 H194 0.983 . S
C220 C216 1.684 . S
H221 C239 0.948 . S
H222 C180 0.948 . S
H223 C198 0.979 . S
H224 C198 0.980 . S
H225 C198 0.983 . S
H226 C197 0.982 . S
H227 C197 0.979 . S
H228 C197 0.977 . S
H229 C199 0.948 . S
H230 C201 0.947 . S
H231 C202 0.948 . S
H232 C208 0.982 . S
H233 C208 0.979 . S
H234 C208 0.977 . S
H235 C209 0.979 . S
H236 C209 0.980 . S
H237 C209 0.983 . S
H238 C182 0.947 . S
C239 C182 1.392 . S
C239 C183 1.419 . S
C239 H221 0.948 . S
C240 C241 1.391 . S
C240 C244 1.391 . S
C240 H282 0.948 . S
C241 C240 1.391 . S
C241 C242 1.391 . S
C242 C241 1.391 . S
C242 H298 0.947 . S
C242 C299 1.392 . S
C243 C244 1.391 . S
C243 C247 1.397 . S
C243 C299 1.419 . S
C244 C240 1.391 . S
C244 C243 1.391 . S
C244 C245 1.399 . S
C245 C244 1.399 . S
C245 C248 1.396 . S
C245 C257 1.453 . S
C245 C258 1.684 . S
H246 C270 0.948 . S
C247 C243 1.397 . S
C247 C248 1.394 . S
C247 C266 1.723 . S
C248 C245 1.396 . S
C248 C247 1.394 . S
C248 C278 1.723 . S
H249 C272 0.947 . S
H250 C273 0.948 . S
H251 C279 0.982 . S
H252 C280 0.979 . S
H253 C280 0.980 . S
H254 C280 0.983 . S
H255 C279 0.979 . S
H256 C279 0.977 . S
C257 C245 1.453 . S
C257 H286 0.982 . S
C257 H287 0.979 . S
C257 H288 0.977 . S
C258 C245 1.684 . S
C258 H283 0.979 . S
C258 H284 0.980 . S
C258 H285 0.983 . S
C259 C260 1.391 . S
C259 C264 1.391 . S
C259 H289 0.948 . S
C260 C259 1.391 . S
C260 C261 1.391 . S
C261 C260 1.391 . S
C261 C262 1.392 . S
C261 H290 0.947 . S
C262 C261 1.392 . S
C262 C263 1.419 . S
C262 H291 0.948 . S
C263 C262 1.419 . S
C263 C264 1.391 . S
C263 C267 1.397 . S
C264 C259 1.391 . S
C264 C263 1.391 . S
C264 C265 1.399 . S
C265 C264 1.399 . S
C265 C266 1.396 . S
C265 C268 1.453 . S
C265 C269 1.684 . S
C266 C247 1.723 . S
C266 C265 1.396 . S
C266 C267 1.394 . S
C267 C263 1.397 . S
C267 C266 1.394 . S
C267 C277 1.723 . S
C268 C265 1.453 . S
C268 H292 0.982 . S
C268 H293 0.979 . S
C268 H294 0.977 . S
C269 C265 1.684 . S
C269 H295 0.979 . S
C269 H296 0.980 . S
C269 H297 0.983 . S
C270 H246 0.948 . S
C270 C271 1.391 . S
C270 C275 1.391 . S
C271 C270 1.391 . S
C271 C272 1.391 . S
C272 H249 0.947 . S
C272 C271 1.391 . S
C272 C273 1.392 . S
C273 H250 0.948 . S
C273 C272 1.392 . S
C273 C274 1.419 . S
C274 C273 1.419 . S
C274 C275 1.391 . S
C274 C278 1.397 . S
C275 C270 1.391 . S
C275 C274 1.391 . S
C275 C276 1.399 . S
C276 C275 1.399 . S
C276 C277 1.396 . S
C276 C279 1.453 . S
C276 C280 1.684 . S
C277 C267 1.723 . S
C277 C276 1.396 . S
C277 C278 1.394 . S
C278 C248 1.723 . S
C278 C274 1.397 . S
C278 C277 1.394 . S
C279 H251 0.982 . S
C279 H255 0.979 . S
C279 H256 0.977 . S
C279 C276 1.453 . S
C280 H252 0.979 . S
C280 H253 0.980 . S
C280 H254 0.983 . S
C280 C276 1.684 . S
H281 C299 0.948 . S
H282 C240 0.948 . S
H283 C258 0.979 . S
H284 C258 0.980 . S
H285 C258 0.983 . S
H286 C257 0.982 . S
H287 C257 0.979 . S
H288 C257 0.977 . S
H289 C259 0.948 . S
H290 C261 0.947 . S
H291 C262 0.948 . S
H292 C268 0.982 . S
H293 C268 0.979 . S
H294 C268 0.977 . S
H295 C269 0.979 . S
H296 C269 0.980 . S
H297 C269 0.983 . S
H298 C242 0.947 . S
C299 C242 1.392 . S
C299 C243 1.419 . S
C299 H281 0.948 . S
C300 C301 1.391 . S
C300 C304 1.391 . S
C300 H342 0.948 . S
C301 C300 1.391 . S
C301 C302 1.391 . S
C302 C301 1.391 . S
C302 H358 0.947 . S
C302 C359 1.392 . S
C303 C304 1.391 . S
C303 C307 1.397 . S
C303 C359 1.419 . S
C304 C300 1.391 . S
C304 C303 1.391 . S
C304 C305 1.399 . S
C305 C304 1.399 . S
C305 C308 1.396 . S
C305 C317 1.453 . S
C305 C318 1.684 . S
H306 C330 0.948 . S
C307 C303 1.397 . S
C307 C308 1.394 . S
C307 C326 1.723 . S
C308 C305 1.396 . S
C308 C307 1.394 . S
C308 C338 1.723 . S
H309 C332 0.947 . S
H310 C333 0.948 . S
H311 C339 0.982 . S
H312 C340 0.979 . S
H313 C340 0.980 . S
H314 C340 0.983 . S
H315 C339 0.979 . S
H316 C339 0.977 . S
C317 C305 1.453 . S
C317 H346 0.982 . S
C317 H347 0.979 . S
C317 H348 0.977 . S
C318 C305 1.684 . S
C318 H343 0.979 . S
C318 H344 0.980 . S
C318 H345 0.983 . S
C319 C320 1.391 . S
C319 C324 1.391 . S
C319 H349 0.948 . S
C320 C319 1.391 . S
C320 C321 1.391 . S
C321 C320 1.391 . S
C321 C322 1.392 . S
C321 H350 0.947 . S
C322 C321 1.392 . S
C322 C323 1.419 . S
C322 H351 0.948 . S
C323 C322 1.419 . S
C323 C324 1.391 . S
C323 C327 1.397 . S
C324 C319 1.391 . S
C324 C323 1.391 . S
C324 C325 1.399 . S
C325 C324 1.399 . S
C325 C326 1.396 . S
C325 C328 1.453 . S
C325 C329 1.684 . S
C326 C307 1.723 . S
C326 C325 1.396 . S
C326 C327 1.394 . S
C327 C323 1.397 . S
C327 C326 1.394 . S
C327 C337 1.723 . S
C328 C325 1.453 . S
C328 H352 0.982 . S
C328 H353 0.979 . S
C328 H354 0.977 . S
C329 C325 1.684 . S
C329 H355 0.979 . S
C329 H356 0.980 . S
C329 H357 0.983 . S
C330 H306 0.948 . S
C330 C331 1.391 . S
C330 C335 1.391 . S
C331 C330 1.391 . S
C331 C332 1.391 . S
C332 H309 0.947 . S
C332 C331 1.391 . S
C332 C333 1.392 . S
C333 H310 0.948 . S
C333 C332 1.392 . S
C333 C334 1.419 . S
C334 C333 1.419 . S
C334 C335 1.391 . S
C334 C338 1.397 . S
C335 C330 1.391 . S
C335 C334 1.391 . S
C335 C336 1.399 . S
C336 C335 1.399 . S
C336 C337 1.396 . S
C336 C339 1.453 . S
C336 C340 1.684 . S
C337 C327 1.723 . S
C337 C336 1.396 . S
C337 C338 1.394 . S
C338 C308 1.723 . S
C338 C334 1.397 . S
C338 C337 1.394 . S
C339 H311 0.982 . S
C339 H315 0.979 . S
C339 H316 0.977 . S
C339 C336 1.453 . S
C340 H312 0.979 . S
C340 H313 0.980 . S
C340 H314 0.983 . S
C340 C336 1.684 . S
H341 C359 0.948 . S
H342 C300 0.948 . S
H343 C318 0.979 . S
H344 C318 0.980 . S
H345 C318 0.983 . S
H346 C317 0.982 . S
H347 C317 0.979 . S
H348 C317 0.977 . S
H349 C319 0.948 . S
H350 C321 0.947 . S
H351 C322 0.948 . S
H352 C328 0.982 . S
H353 C328 0.979 . S
H354 C328 0.977 . S
H355 C329 0.979 . S
H356 C329 0.980 . S
H357 C329 0.983 . S
H358 C302 0.947 . S
C359 C302 1.392 . S
C359 C303 1.419 . S
C359 H341 0.948 . S
C360 C361 1.391 . S
C360 C364 1.391 . S
C360 H402 0.948 . S
C361 C360 1.391 . S
C361 C362 1.391 . S
C362 C361 1.391 . S
C362 H418 0.947 . S
C362 C419 1.392 . S
C363 C364 1.391 . S
C363 C367 1.397 . S
C363 C419 1.419 . S
C364 C360 1.391 . S
C364 C363 1.391 . S
C364 C365 1.399 . S
C365 C364 1.399 . S
C365 C368 1.396 . S
C365 C377 1.453 . S
C365 C378 1.684 . S
H366 C390 0.948 . S
C367 C363 1.397 . S
C367 C368 1.394 . S
C367 C386 1.723 . S
C368 C365 1.396 . S
C368 C367 1.394 . S
C368 C398 1.723 . S
H369 C392 0.947 . S
H370 C393 0.948 . S
H371 C399 0.982 . S
H372 C400 0.979 . S
H373 C400 0.980 . S
H374 C400 0.983 . S
H375 C399 0.979 . S
H376 C399 0.977 . S
C377 C365 1.453 . S
C377 H406 0.982 . S
C377 H407 0.979 . S
C377 H408 0.977 . S
C378 C365 1.684 . S
C378 H403 0.979 . S
C378 H404 0.980 . S
C378 H405 0.983 . S
C379 C380 1.391 . S
C379 C384 1.391 . S
C379 H409 0.948 . S
C380 C379 1.391 . S
C380 C381 1.391 . S
C381 C380 1.391 . S
C381 C382 1.392 . S
C381 H410 0.947 . S
C382 C381 1.392 . S
C382 C383 1.419 . S
C382 H411 0.948 . S
C383 C382 1.419 . S
C383 C384 1.391 . S
C383 C387 1.397 . S
C384 C379 1.391 . S
C384 C383 1.391 . S
C384 C385 1.399 . S
C385 C384 1.399 . S
C385 C386 1.396 . S
C385 C388 1.453 . S
C385 C389 1.684 . S
C386 C367 1.723 . S
C386 C385 1.396 . S
C386 C387 1.394 . S
C387 C383 1.397 . S
C387 C386 1.394 . S
C387 C397 1.723 . S
C388 C385 1.453 . S
C388 H412 0.982 . S
C388 H413 0.979 . S
C388 H414 0.977 . S
C389 C385 1.684 . S
C389 H415 0.979 . S
C389 H416 0.980 . S
C389 H417 0.983 . S
C390 H366 0.948 . S
C390 C391 1.391 . S
C390 C395 1.391 . S
C391 C390 1.391 . S
C391 C392 1.391 . S
C392 H369 0.947 . S
C392 C391 1.391 . S
C392 C393 1.392 . S
C393 H370 0.948 . S
C393 C392 1.392 . S
C393 C394 1.419 . S
C394 C393 1.419 . S
C394 C395 1.391 . S
C394 C398 1.397 . S
C395 C390 1.391 . S
C395 C394 1.391 . S
C395 C396 1.399 . S
C396 C395 1.399 . S
C396 C397 1.396 . S
C396 C399 1.453 . S
C396 C400 1.684 . S
C397 C387 1.723 . S
C397 C396 1.396 . S
C397 C398 1.394 . S
C398 C368 1.723 . S
C398 C394 1.397 . S
C398 C397 1.394 . S
C399 H371 0.982 . S
C399 H375 0.979 . S
C399 H376 0.977 . S
C399 C396 1.453 . S
C400 H372 0.979 . S
C400 H373 0.980 . S
C400 H374 0.983 . S
C400 C396 1.684 . S
H401 C419 0.948 . S
H402 C360 0.948 . S
H403 C378 0.979 . S
H404 C378 0.980 . S
H405 C378 0.983 . S
H406 C377 0.982 . S
H407 C377 0.979 . S
H408 C377 0.977 . S
H409 C379 0.948 . S
H410 C381 0.947 . S
H411 C382 0.948 . S
H412 C388 0.982 . S
H413 C388 0.979 . S
H414 C388 0.977 . S
H415 C389 0.979 . S
H416 C389 0.980 . S
H417 C389 0.983 . S
H418 C362 0.947 . S
C419 C362 1.392 . S
C419 C363 1.419 . S
C419 H401 0.948 . S
C420 C421 1.391 . S
C420 C424 1.391 . S
C420 H462 0.948 . S
C421 C420 1.391 . S
C421 C422 1.391 . S
C422 C421 1.391 . S
C422 H478 0.947 . S
C422 C479 1.392 . S
C423 C424 1.391 . S
C423 C427 1.397 . S
C423 C479 1.419 . S
C424 C420 1.391 . S
C424 C423 1.391 . S
C424 C425 1.399 . S
C425 C424 1.399 . S
C425 C428 1.396 . S
C425 C437 1.453 . S
C425 C438 1.684 . S
H426 C450 0.948 . S
C427 C423 1.397 . S
C427 C428 1.394 . S
C427 C446 1.723 . S
C428 C425 1.396 . S
C428 C427 1.394 . S
C428 C458 1.723 . S
H429 C452 0.947 . S
H430 C453 0.948 . S
H431 C459 0.982 . S
H432 C460 0.979 . S
H433 C460 0.980 . S
H434 C460 0.983 . S
H435 C459 0.979 . S
H436 C459 0.977 . S
C437 C425 1.453 . S
C437 H466 0.982 . S
C437 H467 0.979 . S
C437 H468 0.977 . S
C438 C425 1.684 . S
C438 H463 0.979 . S
C438 H464 0.980 . S
C438 H465 0.983 . S
C439 C440 1.391 . S
C439 C444 1.391 . S
C439 H469 0.948 . S
C440 C439 1.391 . S
C440 C441 1.391 . S
C441 C440 1.391 . S
C441 C442 1.392 . S
C441 H470 0.947 . S
C442 C441 1.392 . S
C442 C443 1.419 . S
C442 H471 0.948 . S
C443 C442 1.419 . S
C443 C444 1.391 . S
C443 C447 1.397 . S
C444 C439 1.391 . S
C444 C443 1.391 . S
C444 C445 1.399 . S
C445 C444 1.399 . S
C445 C446 1.396 . S
C445 C448 1.453 . S
C445 C449 1.684 . S
C446 C427 1.723 . S
C446 C445 1.396 . S
C446 C447 1.394 . S
C447 C443 1.397 . S
C447 C446 1.394 . S
C447 C457 1.723 . S
C448 C445 1.453 . S
C448 H472 0.982 . S
C448 H473 0.979 . S
C448 H474 0.977 . S
C449 C445 1.684 . S
C449 H475 0.979 . S
C449 H476 0.980 . S
C449 H477 0.983 . S
C450 H426 0.948 . S
C450 C451 1.391 . S
C450 C455 1.391 . S
C451 C450 1.391 . S
C451 C452 1.391 . S
C452 H429 0.947 . S
C452 C451 1.391 . S
C452 C453 1.392 . S
C453 H430 0.948 . S
C453 C452 1.392 . S
C453 C454 1.419 . S
C454 C453 1.419 . S
C454 C455 1.391 . S
C454 C458 1.397 . S
C455 C450 1.391 . S
C455 C454 1.391 . S
C455 C456 1.399 . S
C456 C455 1.399 . S
C456 C457 1.396 . S
C456 C459 1.453 . S
C456 C460 1.684 . S
C457 C447 1.723 . S
C457 C456 1.396 . S
C457 C458 1.394 . S
C458 C428 1.723 . S
C458 C454 1.397 . S
C458 C457 1.394 . S
C459 H431 0.982 . S
C459 H435 0.979 . S
C459 H436 0.977 . S
C459 C456 1.453 . S
C460 H432 0.979 . S
C460 H433 0.980 . S
C460 H434 0.983 . S
C460 C456 1.684 . S
H461 C479 0.948 . S
H462 C420 0.948 . S
H463 C438 0.979 . S
H464 C438 0.980 . S
H465 C438 0.983 . S
H466 C437 0.982 . S
H467 C437 0.979 . S
H468 C437 0.977 . S
H469 C439 0.948 . S
H470 C441 0.947 . S
H471 C442 0.948 . S
H472 C448 0.982 . S
H473 C448 0.979 . S
H474 C448 0.977 . S
H475 C449 0.979 . S
H476 C449 0.980 . S
H477 C449 0.983 . S
H478 C422 0.947 . S
C479 C422 1.392 . S
C479 C423 1.419 . S
C479 H461 0.948 . S
Ho480 C483 2.811 . S
Ho480 O500 2.322 . S
Ho480 O502 2.378 . S
Ho480 O503 2.524 . S
Ho480 O504 2.381 1_545 S
Ho480 O505 2.669 1_545 S
Ho480 O507 2.346 1_445 S
Ho480 O511 2.305 1_455 S
Ho481 C492 2.811 . S
Ho481 O501 2.346 1_665 S
Ho481 O505 2.305 1_655 S
Ho481 O506 2.322 . S
Ho481 O508 2.378 . S
Ho481 O509 2.524 . S
Ho481 O510 2.381 1_565 S
Ho481 O511 2.669 1_565 S
C482 O500 1.259 . S
C482 O501 1.268 . S
C483 Ho480 2.811 . S
C483 C484 1.488 . S
C483 O502 1.215 . S
C483 O503 1.289 . S
C484 C483 1.488 . S
C484 C485 1.348 . S
C484 C489 1.413 . S
C485 C484 1.348 . S
C485 C486 1.442 . S
C485 H512 0.930 . S
C486 C485 1.442 . S
C486 C487 1.381 . S
C486 H513 0.931 . S
C487 C486 1.381 . S
C487 C488 1.321 . S
C488 C487 1.321 . S
C488 C489 1.403 . S
C488 H514 0.934 . S
C489 C484 1.413 . S
C489 C488 1.403 . S
C489 H515 0.930 . S
C490 O504 1.275 . S
C490 O505 1.256 . S
C491 O506 1.259 . S
C491 O507 1.268 . S
C492 Ho481 2.811 . S
C492 C493 1.488 . S
C492 O508 1.215 . S
C492 O509 1.289 . S
C493 C492 1.488 . S
C493 C494 1.348 . S
C493 C498 1.413 . S
C494 C493 1.348 . S
C494 C495 1.442 . S
C494 H516 0.930 . S
C495 C494 1.442 . S
C495 C496 1.381 . S
C495 H517 0.931 . S
C496 C495 1.381 . S
C496 C497 1.321 . S
C497 C496 1.321 . S
C497 C498 1.403 . S
C497 H518 0.934 . S
C498 C493 1.413 . S
C498 C497 1.403 . S
C498 H519 0.930 . S
C499 O510 1.275 . S
C499 O511 1.256 . S
O500 Ho480 2.322 . S
O500 C482 1.259 . S
O501 Ho481 2.346 1_445 S
O501 C482 1.268 . S
O502 Ho480 2.378 . S
O502 C483 1.215 . S
O503 Ho480 2.524 . S
O503 C483 1.289 . S
O504 Ho480 2.381 1_565 S
O504 C490 1.275 . S
O505 Ho480 2.669 1_565 S
O505 Ho481 2.305 1_455 S
O505 C490 1.256 . S
O506 Ho481 2.322 . S
O506 C491 1.259 . S
O507 Ho480 2.346 1_665 S
O507 C491 1.268 . S
O508 Ho481 2.378 . S
O508 C492 1.215 . S
O509 Ho481 2.524 . S
O509 C492 1.289 . S
O510 Ho481 2.381 1_545 S
O510 C499 1.275 . S
O511 Ho480 2.305 1_655 S
O511 Ho481 2.669 1_545 S
O511 C499 1.256 . S
H512 C485 0.930 . S
H513 C486 0.931 . S
H514 C488 0.934 . S
H515 C489 0.930 . S
H516 C494 0.930 . S
H517 C495 0.931 . S
H518 C497 0.934 . S
H519 C498 0.930 . S
Ho520 C523 2.811 1_565 S
Ho520 O540 2.322 1_565 S
Ho520 O542 2.378 1_565 S
Ho520 O543 2.524 1_565 S
Ho520 O544 2.381 . S
Ho520 O545 2.669 . S
Ho520 O547 2.346 1_554 S
Ho520 O551 2.305 1_564 S
Ho521 C532 2.811 1_545 S
Ho521 O541 2.346 1_556 S
Ho521 O545 2.305 1_546 S
Ho521 O546 2.322 1_545 S
Ho521 O548 2.378 1_545 S
Ho521 O549 2.524 1_545 S
Ho521 O550 2.381 . S
Ho521 O551 2.669 . S
C522 O540 1.259 . S
C522 O541 1.268 . S
C523 Ho520 2.811 1_545 S
C523 C524 1.488 . S
C523 O542 1.215 . S
C523 O543 1.289 . S
C524 C523 1.488 . S
C524 C525 1.348 . S
C524 C529 1.413 . S
C525 C524 1.348 . S
C525 C526 1.442 . S
C525 H552 0.930 . S
C526 C525 1.442 . S
C526 C527 1.381 . S
C526 H553 0.931 . S
C527 C526 1.381 . S
C527 C528 1.321 . S
C528 C527 1.321 . S
C528 C529 1.403 . S
C528 H554 0.934 . S
C529 C524 1.413 . S
C529 C528 1.403 . S
C529 H555 0.930 . S
C530 O544 1.275 . S
C530 O545 1.256 . S
C531 O546 1.259 . S
C531 O547 1.268 . S
C532 Ho521 2.811 1_565 S
C532 C533 1.488 . S
C532 O548 1.215 . S
C532 O549 1.289 . S
C533 C532 1.488 . S
C533 C534 1.348 . S
C533 C538 1.413 . S
C534 C533 1.348 . S
C534 C535 1.442 . S
C534 H556 0.930 . S
C535 C534 1.442 . S
C535 C536 1.381 . S
C535 H557 0.931 . S
C536 C535 1.381 . S
C536 C537 1.321 . S
C537 C536 1.321 . S
C537 C538 1.403 . S
C537 H558 0.934 . S
C538 C533 1.413 . S
C538 C537 1.403 . S
C538 H559 0.930 . S
C539 O550 1.275 . S
C539 O551 1.256 . S
O540 Ho520 2.322 1_545 S
O540 C522 1.259 . S
O541 Ho521 2.346 1_554 S
O541 C522 1.268 . S
O542 Ho520 2.378 1_545 S
O542 C523 1.215 . S
O543 Ho520 2.524 1_545 S
O543 C523 1.289 . S
O544 Ho520 2.381 . S
O544 C530 1.275 . S
O545 Ho520 2.669 . S
O545 Ho521 2.305 1_564 S
O545 C530 1.256 . S
O546 Ho521 2.322 1_565 S
O546 C531 1.259 . S
O547 Ho520 2.346 1_556 S
O547 C531 1.268 . S
O548 Ho521 2.378 1_565 S
O548 C532 1.215 . S
O549 Ho521 2.524 1_565 S
O549 C532 1.289 . S
O550 Ho521 2.381 . S
O550 C539 1.275 . S
O551 Ho520 2.305 1_546 S
O551 Ho521 2.669 . S
O551 C539 1.256 . S
H552 C525 0.930 . S
H553 C526 0.931 . S
H554 C528 0.934 . S
H555 C529 0.930 . S
H556 C534 0.930 . S
H557 C535 0.931 . S
H558 C537 0.934 . S
H559 C538 0.930 . S
Ho560 C563 2.811 . S
Ho560 O580 2.322 . S
Ho560 O582 2.378 . S
Ho560 O583 2.524 . S
Ho560 O584 2.381 . S
Ho560 O585 2.669 . S
Ho560 O587 2.346 . S
Ho560 O591 2.305 . S
Ho561 C572 2.811 . S
Ho561 O581 2.346 . S
Ho561 O585 2.305 . S
Ho561 O586 2.322 . S
Ho561 O588 2.378 . S
Ho561 O589 2.524 . S
Ho561 O590 2.381 . S
Ho561 O591 2.669 . S
C562 O580 1.259 . S
C562 O581 1.268 . S
C563 Ho560 2.811 . S
C563 C564 1.488 . S
C563 O582 1.215 . S
C563 O583 1.289 . S
C564 C563 1.488 . S
C564 C565 1.348 . S
C564 C569 1.413 . S
C565 C564 1.348 . S
C565 C566 1.442 . S
C565 H592 0.930 . S
C566 C565 1.442 . S
C566 C567 1.381 . S
C566 H593 0.931 . S
C567 C566 1.381 . S
C567 C568 1.321 . S
C568 C567 1.321 . S
C568 C569 1.403 . S
C568 H594 0.934 . S
C569 C564 1.413 . S
C569 C568 1.403 . S
C569 H595 0.930 . S
C570 O584 1.275 . S
C570 O585 1.256 . S
C571 O586 1.259 . S
C571 O587 1.268 . S
C572 Ho561 2.811 . S
C572 C573 1.488 . S
C572 O588 1.215 . S
C572 O589 1.289 . S
C573 C572 1.488 . S
C573 C574 1.348 . S
C573 C578 1.413 . S
C574 C573 1.348 . S
C574 C575 1.442 . S
C574 H596 0.930 . S
C575 C574 1.442 . S
C575 C576 1.381 . S
C575 H597 0.931 . S
C576 C575 1.381 . S
C576 C577 1.321 . S
C577 C576 1.321 . S
C577 C578 1.403 . S
C577 H598 0.934 . S
C578 C573 1.413 . S
C578 C577 1.403 . S
C578 H599 0.930 . S
C579 O590 1.275 . S
C579 O591 1.256 . S
O580 Ho560 2.322 . S
O580 C562 1.259 . S
O581 Ho561 2.346 . S
O581 C562 1.268 . S
O582 Ho560 2.378 . S
O582 C563 1.215 . S
O583 Ho560 2.524 . S
O583 C563 1.289 . S
O584 Ho560 2.381 . S
O584 C570 1.275 . S
O585 Ho560 2.669 . S
O585 Ho561 2.305 . S
O585 C570 1.256 . S
O586 Ho561 2.322 . S
O586 C571 1.259 . S
O587 Ho560 2.346 . S
O587 C571 1.268 . S
O588 Ho561 2.378 . S
O588 C572 1.215 . S
O589 Ho561 2.524 . S
O589 C572 1.289 . S
O590 Ho561 2.381 . S
O590 C579 1.275 . S
O591 Ho560 2.305 . S
O591 Ho561 2.669 . S
O591 C579 1.256 . S
H592 C565 0.930 . S
H593 C566 0.931 . S
H594 C568 0.934 . S
H595 C569 0.930 . S
H596 C574 0.930 . S
H597 C575 0.931 . S
H598 C577 0.934 . S
H599 C578 0.930 . S
Ho600 C603 2.811 . S
Ho600 O620 2.322 . S
Ho600 O622 2.378 . S
Ho600 O623 2.524 . S
Ho600 O624 2.381 1_455 S
Ho600 O625 2.669 1_455 S
Ho600 O627 2.346 1_454 S
Ho600 O631 2.305 1_554 S
Ho601 C612 2.811 . S
Ho601 O621 2.346 1_656 S
Ho601 O625 2.305 1_556 S
Ho601 O626 2.322 . S
Ho601 O628 2.378 . S
Ho601 O629 2.524 . S
Ho601 O630 2.381 1_655 S
Ho601 O631 2.669 1_655 S
C602 O620 1.259 . S
C602 O621 1.268 . S
C603 Ho600 2.811 . S
C603 C604 1.488 . S
C603 O622 1.215 . S
C603 O623 1.289 . S
C604 C603 1.488 . S
C604 C605 1.348 . S
C604 C609 1.413 . S
C605 C604 1.348 . S
C605 C606 1.442 . S
C605 H632 0.930 . S
C606 C605 1.442 . S
C606 C607 1.381 . S
C606 H633 0.931 . S
C607 C606 1.381 . S
C607 C608 1.321 . S
C608 C607 1.321 . S
C608 C609 1.403 . S
C608 H634 0.934 . S
C609 C604 1.413 . S
C609 C608 1.403 . S
C609 H635 0.930 . S
C610 O624 1.275 . S
C610 O625 1.256 . S
C611 O626 1.259 . S
C611 O627 1.268 . S
C612 Ho601 2.811 . S
C612 C613 1.488 . S
C612 O628 1.215 . S
C612 O629 1.289 . S
C613 C612 1.488 . S
C613 C614 1.348 . S
C613 C618 1.413 . S
C614 C613 1.348 . S
C614 C615 1.442 . S
C614 H636 0.930 . S
C615 C614 1.442 . S
C615 C616 1.381 . S
C615 H637 0.931 . S
C616 C615 1.381 . S
C616 C617 1.321 . S
C617 C616 1.321 . S
C617 C618 1.403 . S
C617 H638 0.934 . S
C618 C613 1.413 . S
C618 C617 1.403 . S
C618 H639 0.930 . S
C619 O630 1.275 . S
C619 O631 1.256 . S
O620 Ho600 2.322 . S
O620 C602 1.259 . S
O621 Ho601 2.346 1_454 S
O621 C602 1.268 . S
O622 Ho600 2.378 . S
O622 C603 1.215 . S
O623 Ho600 2.524 . S
O623 C603 1.289 . S
O624 Ho600 2.381 1_655 S
O624 C610 1.275 . S
O625 Ho600 2.669 1_655 S
O625 Ho601 2.305 1_554 S
O625 C610 1.256 . S
O626 Ho601 2.322 . S
O626 C611 1.259 . S
O627 Ho600 2.346 1_656 S
O627 C611 1.268 . S
O628 Ho601 2.378 . S
O628 C612 1.215 . S
O629 Ho601 2.524 . S
O629 C612 1.289 . S
O630 Ho601 2.381 1_455 S
O630 C619 1.275 . S
O631 Ho600 2.305 1_556 S
O631 Ho601 2.669 1_455 S
O631 C619 1.256 . S
H632 C605 0.930 . S
H633 C606 0.931 . S
H634 C608 0.934 . S
H635 C609 0.930 . S
H636 C614 0.930 . S
H637 C615 0.931 . S
H638 C617 0.934 . S
H639 C618 0.930 . S
C640 C641 1.363 . S
C640 C646 1.379 . S
C640 N648 1.356 . S
C641 C640 1.363 . S
C641 C647 1.363 . S
C642 C643 1.363 . S
C642 C647 1.379 . S
C642 N649 1.356 . S
C643 C642 1.363 . S
C643 C646 1.363 . S
N644 C646 1.356 . S
N644 H656 0.984 . S
N644 H657 0.985 . S
N645 C647 1.356 . S
N645 H650 0.984 . S
N645 H651 0.985 . S
C646 C640 1.379 . S
C646 C643 1.363 . S
C646 N644 1.356 . S
C647 C641 1.363 . S
C647 C642 1.379 . S
C647 N645 1.356 . S
N648 C640 1.356 . S
N648 H654 0.984 . S
N648 H655 0.984 . S
N649 C642 1.356 . S
N649 H652 0.984 . S
N649 H653 0.985 . S
H650 N645 0.984 . S
H651 N645 0.985 . S
H652 N649 0.984 . S
H653 N649 0.985 . S
H654 N648 0.984 . S
H655 N648 0.984 . S
H656 N644 0.984 . S
H657 N644 0.985 . S
C658 C659 1.363 . S
C658 C664 1.379 . S
C658 N666 1.356 . S
C659 C658 1.363 . S
C659 C665 1.363 . S
C660 C661 1.363 . S
C660 C665 1.379 . S
C660 N667 1.356 . S
C661 C660 1.363 . S
C661 C664 1.363 . S
N662 C664 1.356 . S
N662 H674 0.984 . S
N662 H675 0.985 . S
N663 C665 1.356 . S
N663 H668 0.984 . S
N663 H669 0.985 . S
C664 C658 1.379 . S
C664 C661 1.363 . S
C664 N662 1.356 . S
C665 C659 1.363 . S
C665 C660 1.379 . S
C665 N663 1.356 . S
N666 C658 1.356 . S
N666 H672 0.984 . S
N666 H673 0.984 . S
N667 C660 1.356 . S
N667 H670 0.984 . S
N667 H671 0.985 . S
H668 N663 0.984 . S
H669 N663 0.985 . S
H670 N667 0.984 . S
H671 N667 0.985 . S
H672 N666 0.984 . S
H673 N666 0.984 . S
H674 N662 0.984 . S
H675 N662 0.985 . S
C676 C677 1.363 . S
C676 C682 1.379 . S
C676 N684 1.356 . S
C677 C676 1.363 . S
C677 C683 1.363 . S
C678 C679 1.363 . S
C678 C683 1.379 . S
C678 N685 1.356 . S
C679 C678 1.363 . S
C679 C682 1.363 . S
N680 C682 1.356 . S
N680 H692 0.984 . S
N680 H693 0.985 . S
N681 C683 1.356 . S
N681 H686 0.984 . S
N681 H687 0.985 . S
C682 C676 1.379 . S
C682 C679 1.363 . S
C682 N680 1.356 . S
C683 C677 1.363 . S
C683 C678 1.379 . S
C683 N681 1.356 . S
N684 C676 1.356 . S
N684 H690 0.984 . S
N684 H691 0.984 . S
N685 C678 1.356 . S
N685 H688 0.984 . S
N685 H689 0.985 . S
H686 N681 0.984 . S
H687 N681 0.985 . S
H688 N685 0.984 . S
H689 N685 0.985 . S
H690 N684 0.984 . S
H691 N684 0.984 . S
H692 N680 0.984 . S
H693 N680 0.985 . S
C694 C695 1.363 . S
C694 C700 1.379 . S
C694 N702 1.356 . S
C695 C694 1.363 . S
C695 C701 1.363 . S
C696 C697 1.363 . S
C696 C701 1.379 . S
C696 N703 1.356 . S
C697 C696 1.363 . S
C697 C700 1.363 . S
N698 C700 1.356 . S
N698 H710 0.984 1_655 S
N698 H711 0.985 . S
N699 C701 1.356 . S
N699 H704 0.984 . S
N699 H705 0.985 . S
C700 C694 1.379 . S
C700 C697 1.363 . S
C700 N698 1.356 . S
C701 C695 1.363 . S
C701 C696 1.379 . S
C701 N699 1.356 . S
N702 C694 1.356 . S
N702 H708 0.984 . S
N702 H709 0.984 . S
N703 C696 1.356 . S
N703 H706 0.984 . S
N703 H707 0.985 . S
H704 N699 0.984 . S
H705 N699 0.985 . S
H706 N703 0.984 . S
H707 N703 0.985 . S
H708 N702 0.984 . S
H709 N702 0.984 . S
H710 N698 0.984 1_455 S
H711 N698 0.985 . S
C712 C713 1.363 . S
C712 C718 1.379 . S
C712 N720 1.356 . S
C713 C712 1.363 . S
C713 C719 1.363 . S
C714 C715 1.363 . S
C714 C719 1.379 . S
C714 N721 1.356 . S
C715 C714 1.363 . S
C715 C718 1.363 . S
N716 C718 1.356 . S
N716 H728 0.984 . S
N716 H729 0.985 . S
N717 C719 1.356 . S
N717 H722 0.984 . S
N717 H723 0.985 . S
C718 C712 1.379 . S
C718 C715 1.363 . S
C718 N716 1.356 . S
C719 C713 1.363 . S
C719 C714 1.379 . S
C719 N717 1.356 . S
N720 C712 1.356 . S
N720 H726 0.984 . S
N720 H727 0.984 . S
N721 C714 1.356 . S
N721 H724 0.984 . S
N721 H725 0.985 . S
H722 N717 0.984 . S
H723 N717 0.985 . S
H724 N721 0.984 . S
H725 N721 0.985 . S
H726 N720 0.984 . S
H727 N720 0.984 . S
H728 N716 0.984 . S
H729 N716 0.985 . S
C730 C731 1.363 . S
C730 C736 1.379 . S
C730 N738 1.356 . S
C731 C730 1.363 . S
C731 C737 1.363 . S
C732 C733 1.363 . S
C732 C737 1.379 . S
C732 N739 1.356 . S
C733 C732 1.363 . S
C733 C736 1.363 . S
N734 C736 1.356 . S
N734 H746 0.984 . S
N734 H747 0.985 . S
N735 C737 1.356 . S
N735 H740 0.984 . S
N735 H741 0.985 . S
C736 C730 1.379 . S
C736 C733 1.363 . S
C736 N734 1.356 . S
C737 C731 1.363 . S
C737 C732 1.379 . S
C737 N735 1.356 . S
N738 C730 1.356 . S
N738 H744 0.984 . S
N738 H745 0.984 . S
N739 C732 1.356 . S
N739 H742 0.984 . S
N739 H743 0.985 . S
H740 N735 0.984 . S
H741 N735 0.985 . S
H742 N739 0.984 . S
H743 N739 0.985 . S
H744 N738 0.984 . S
H745 N738 0.984 . S
H746 N734 0.984 . S
H747 N734 0.985 . S
C748 C749 1.363 . S
C748 C754 1.379 . S
C748 N756 1.356 . S
C749 C748 1.363 . S
C749 C755 1.363 . S
C750 C751 1.363 . S
C750 C755 1.379 . S
C750 N757 1.356 . S
C751 C750 1.363 . S
C751 C754 1.363 . S
N752 C754 1.356 . S
N752 H764 0.984 1_556 S
N752 H765 0.985 1_556 S
N753 C755 1.356 . S
N753 H758 0.984 . S
N753 H759 0.985 . S
C754 C748 1.379 . S
C754 C751 1.363 . S
C754 N752 1.356 . S
C755 C749 1.363 . S
C755 C750 1.379 . S
C755 N753 1.356 . S
N756 C748 1.356 . S
N756 H762 0.984 . S
N756 H763 0.984 . S
N757 C750 1.356 . S
N757 H760 0.984 . S
N757 H761 0.985 . S
H758 N753 0.984 . S
H759 N753 0.985 . S
H760 N757 0.984 . S
H761 N757 0.985 . S
H762 N756 0.984 . S
H763 N756 0.984 . S
H764 N752 0.984 1_554 S
H765 N752 0.985 1_554 S
C766 C767 1.363 . S
C766 C772 1.379 . S
C766 N774 1.356 . S
C767 C766 1.363 . S
C767 C773 1.363 . S
C768 C769 1.363 . S
C768 C773 1.379 . S
C768 N775 1.356 . S
C769 C768 1.363 . S
C769 C772 1.363 . S
N770 C772 1.356 . S
N770 H782 0.984 . S
N770 H783 0.985 . S
N771 C773 1.356 . S
N771 H776 0.984 . S
N771 H777 0.985 . S
C772 C766 1.379 . S
C772 C769 1.363 . S
C772 N770 1.356 . S
C773 C767 1.363 . S
C773 C768 1.379 . S
C773 N771 1.356 . S
N774 C766 1.356 . S
N774 H780 0.984 . S
N774 H781 0.984 . S
N775 C768 1.356 . S
N775 H778 0.984 . S
N775 H779 0.985 . S
H776 N771 0.984 . S
H777 N771 0.985 . S
H778 N775 0.984 . S
H779 N775 0.985 . S
H780 N774 0.984 . S
H781 N774 0.984 . S
H782 N770 0.984 . S
H783 N770 0.985 . S
C784 C785 1.363 . S
C784 C790 1.379 . S
C784 N792 1.356 . S
C785 C784 1.363 . S
C785 C791 1.363 . S
C786 C787 1.363 . S
C786 C791 1.379 . S
C786 N793 1.356 . S
C787 C786 1.363 . S
C787 C790 1.363 . S
N788 C790 1.356 . S
N788 H800 0.984 . S
N788 H801 0.985 . S
N789 C791 1.356 . S
N789 H794 0.984 . S
N789 H795 0.985 . S
C790 C784 1.379 . S
C790 C787 1.363 . S
C790 N788 1.356 . S
C791 C785 1.363 . S
C791 C786 1.379 . S
C791 N789 1.356 . S
N792 C784 1.356 . S
N792 H798 0.984 . S
N792 H799 0.984 . S
N793 C786 1.356 . S
N793 H796 0.984 . S
N793 H797 0.985 . S
H794 N789 0.984 . S
H795 N789 0.985 . S
H796 N793 0.984 . S
H797 N793 0.985 . S
H798 N792 0.984 . S
H799 N792 0.984 . S
H800 N788 0.984 . S
H801 N788 0.985 . S
C802 C803 1.363 . S
C802 C808 1.379 . S
C802 N810 1.356 . S
C803 C802 1.363 . S
C803 C809 1.363 . S
C804 C805 1.363 . S
C804 C809 1.379 . S
C804 N811 1.356 . S
C805 C804 1.363 . S
C805 C808 1.363 . S
N806 C808 1.356 . S
N806 H818 0.984 . S
N806 H819 0.985 . S
N807 C809 1.356 . S
N807 H812 0.984 . S
N807 H813 0.985 . S
C808 C802 1.379 . S
C808 C805 1.363 . S
C808 N806 1.356 . S
C809 C803 1.363 . S
C809 C804 1.379 . S
C809 N807 1.356 . S
N810 C802 1.356 . S
N810 H816 0.984 . S
N810 H817 0.984 . S
N811 C804 1.356 . S
N811 H814 0.984 . S
N811 H815 0.985 . S
H812 N807 0.984 . S
H813 N807 0.985 . S
H814 N811 0.984 . S
H815 N811 0.985 . S
H816 N810 0.984 . S
H817 N810 0.984 . S
H818 N806 0.984 . S
H819 N806 0.985 . S
C820 C821 1.363 . S
C820 C826 1.379 . S
C820 N828 1.356 . S
C821 C820 1.363 . S
C821 C827 1.363 . S
C822 C823 1.363 . S
C822 C827 1.379 . S
C822 N829 1.356 . S
C823 C822 1.363 . S
C823 C826 1.363 . S
N824 C826 1.356 . S
N824 H836 0.984 1_655 S
N824 H837 0.985 . S
N825 C827 1.356 . S
N825 H830 0.984 . S
N825 H831 0.985 . S
C826 C820 1.379 . S
C826 C823 1.363 . S
C826 N824 1.356 . S
C827 C821 1.363 . S
C827 C822 1.379 . S
C827 N825 1.356 . S
N828 C820 1.356 . S
N828 H834 0.984 . S
N828 H835 0.984 . S
N829 C822 1.356 . S
N829 H832 0.984 . S
N829 H833 0.985 . S
H830 N825 0.984 . S
H831 N825 0.985 . S
H832 N829 0.984 . S
H833 N829 0.985 . S
H834 N828 0.984 . S
H835 N828 0.984 . S
H836 N824 0.984 1_455 S
H837 N824 0.985 . S
C838 C839 1.363 . S
C838 C844 1.379 . S
C838 N846 1.356 . S
C839 C838 1.363 . S
C839 C845 1.363 . S
C840 C841 1.363 . S
C840 C845 1.379 . S
C840 N847 1.356 . S
C841 C840 1.363 . S
C841 C844 1.363 . S
N842 C844 1.356 . S
N842 H854 0.984 . S
N842 H855 0.985 . S
N843 C845 1.356 . S
N843 H848 0.984 . S
N843 H849 0.985 . S
C844 C838 1.379 . S
C844 C841 1.363 . S
C844 N842 1.356 . S
C845 C839 1.363 . S
C845 C840 1.379 . S
C845 N843 1.356 . S
N846 C838 1.356 . S
N846 H852 0.984 . S
N846 H853 0.984 . S
N847 C840 1.356 . S
N847 H850 0.984 . S
N847 H851 0.985 . S
H848 N843 0.984 . S
H849 N843 0.985 . S
H850 N847 0.984 . S
H851 N847 0.985 . S
H852 N846 0.984 . S
H853 N846 0.984 . S
H854 N842 0.984 . S
H855 N842 0.985 . S
C856 C857 1.363 . S
C856 C862 1.379 . S
C856 N864 1.356 . S
C857 C856 1.363 . S
C857 C863 1.363 . S
C858 C859 1.363 . S
C858 C863 1.379 . S
C858 N865 1.356 . S
C859 C858 1.363 . S
C859 C862 1.363 . S
N860 C862 1.356 . S
N860 H872 0.984 . S
N860 H873 0.985 . S
N861 C863 1.356 . S
N861 H866 0.984 . S
N861 H867 0.985 . S
C862 C856 1.379 . S
C862 C859 1.363 . S
C862 N860 1.356 . S
C863 C857 1.363 . S
C863 C858 1.379 . S
C863 N861 1.356 . S
N864 C856 1.356 . S
N864 H870 0.984 . S
N864 H871 0.984 . S
N865 C858 1.356 . S
N865 H868 0.984 . S
N865 H869 0.985 . S
H866 N861 0.984 . S
H867 N861 0.985 . S
H868 N865 0.984 . S
H869 N865 0.985 . S
H870 N864 0.984 . S
H871 N864 0.984 . S
H872 N860 0.984 . S
H873 N860 0.985 . S
C874 C875 1.363 . S
C874 C880 1.379 . S
C874 N882 1.356 . S
C875 C874 1.363 . S
C875 C881 1.363 . S
C876 C877 1.363 . S
C876 C881 1.379 . S
C876 N883 1.356 . S
C877 C876 1.363 . S
C877 C880 1.363 . S
N878 C880 1.356 . S
N878 H890 0.984 . S
N878 H891 0.985 . S
N879 C881 1.356 . S
N879 H884 0.984 . S
N879 H885 0.985 . S
C880 C874 1.379 . S
C880 C877 1.363 . S
C880 N878 1.356 . S
C881 C875 1.363 . S
C881 C876 1.379 . S
C881 N879 1.356 . S
N882 C874 1.356 . S
N882 H888 0.984 . S
N882 H889 0.984 . S
N883 C876 1.356 . S
N883 H886 0.984 . S
N883 H887 0.985 . S
H884 N879 0.984 . S
H885 N879 0.985 . S
H886 N883 0.984 . S
H887 N883 0.985 . S
H888 N882 0.984 . S
H889 N882 0.984 . S
H890 N878 0.984 . S
H891 N878 0.985 . S
C892 C893 1.363 . S
C892 C898 1.379 . S
C892 N900 1.356 . S
C893 C892 1.363 . S
C893 C899 1.363 . S
C894 C895 1.363 . S
C894 C899 1.379 . S
C894 N901 1.356 . S
C895 C894 1.363 . S
C895 C898 1.363 . S
N896 C898 1.356 . S
N896 H908 0.984 . S
N896 H909 0.985 . S
N897 C899 1.356 . S
N897 H902 0.984 . S
N897 H903 0.985 . S
C898 C892 1.379 . S
C898 C895 1.363 . S
C898 N896 1.356 . S
C899 C893 1.363 . S
C899 C894 1.379 . S
C899 N897 1.356 . S
N900 C892 1.356 . S
N900 H906 0.984 . S
N900 H907 0.984 . S
N901 C894 1.356 . S
N901 H904 0.984 . S
N901 H905 0.985 . S
H902 N897 0.984 . S
H903 N897 0.985 . S
H904 N901 0.984 . S
H905 N901 0.985 . S
H906 N900 0.984 . S
H907 N900 0.984 . S
H908 N896 0.984 . S
H909 N896 0.985 . S
C910 C911 1.363 . S
C910 C916 1.379 . S
C910 N918 1.356 . S
C911 C910 1.363 . S
C911 C917 1.363 . S
C912 C913 1.363 . S
C912 C917 1.379 . S
C912 N919 1.356 . S
C913 C912 1.363 . S
C913 C916 1.363 . S
N914 C916 1.356 . S
N914 H926 0.984 . S
N914 H927 0.985 . S
N915 C917 1.356 . S
N915 H920 0.984 . S
N915 H921 0.985 . S
C916 C910 1.379 . S
C916 C913 1.363 . S
C916 N914 1.356 . S
C917 C911 1.363 . S
C917 C912 1.379 . S
C917 N915 1.356 . S
N918 C910 1.356 . S
N918 H924 0.984 . S
N918 H925 0.984 . S
N919 C912 1.356 . S
N919 H922 0.984 . S
N919 H923 0.985 . S
H920 N915 0.984 . S
H921 N915 0.985 . S
H922 N919 0.984 . S
H923 N919 0.985 . S
H924 N918 0.984 . S
H925 N918 0.984 . S
H926 N914 0.984 . S
H927 N914 0.985 . S
C928 C929 1.363 . S
C928 C934 1.379 . S
C928 N936 1.356 . S
C929 C928 1.363 . S
C929 C935 1.363 . S
C930 C931 1.363 . S
C930 C935 1.379 . S
C930 N937 1.356 . S
C931 C930 1.363 . S
C931 C934 1.363 . S
N932 C934 1.356 . S
N932 H944 0.984 . S
N932 H945 0.985 . S
N933 C935 1.356 . S
N933 H938 0.984 . S
N933 H939 0.985 . S
C934 C928 1.379 . S
C934 C931 1.363 . S
C934 N932 1.356 . S
C935 C929 1.363 . S
C935 C930 1.379 . S
C935 N933 1.356 . S
N936 C928 1.356 . S
N936 H942 0.984 . S
N936 H943 0.984 . S
N937 C930 1.356 . S
N937 H940 0.984 . S
N937 H941 0.985 . S
H938 N933 0.984 . S
H939 N933 0.985 . S
H940 N937 0.984 . S
H941 N937 0.985 . S
H942 N936 0.984 . S
H943 N936 0.984 . S
H944 N932 0.984 . S
H945 N932 0.985 . S
C946 C947 1.363 . S
C946 C952 1.379 . S
C946 N954 1.356 . S
C947 C946 1.363 . S
C947 C953 1.363 . S
C948 C949 1.363 . S
C948 C953 1.379 . S
C948 N955 1.356 . S
C949 C948 1.363 . S
C949 C952 1.363 . S
N950 C952 1.356 . S
N950 H962 0.984 . S
N950 H963 0.985 . S
N951 C953 1.356 . S
N951 H956 0.984 . S
N951 H957 0.985 . S
C952 C946 1.379 . S
C952 C949 1.363 . S
C952 N950 1.356 . S
C953 C947 1.363 . S
C953 C948 1.379 . S
C953 N951 1.356 . S
N954 C946 1.356 . S
N954 H960 0.984 . S
N954 H961 0.984 . S
N955 C948 1.356 . S
N955 H958 0.984 . S
N955 H959 0.985 . S
H956 N951 0.984 . S
H957 N951 0.985 . S
H958 N955 0.984 . S
H959 N955 0.985 . S
H960 N954 0.984 . S
H961 N954 0.984 . S
H962 N950 0.984 . S
H963 N950 0.985 . S
C964 C965 1.363 . S
C964 C970 1.379 . S
C964 N972 1.356 . S
C965 C964 1.363 . S
C965 C971 1.363 . S
C966 C967 1.363 . S
C966 C971 1.379 . S
C966 N973 1.356 . S
C967 C966 1.363 . S
C967 C970 1.363 . S
N968 C970 1.356 . S
N968 H980 0.984 . S
N968 H981 0.985 . S
N969 C971 1.356 . S
N969 H974 0.984 . S
N969 H975 0.985 . S
C970 C964 1.379 . S
C970 C967 1.363 . S
C970 N968 1.356 . S
C971 C965 1.363 . S
C971 C966 1.379 . S
C971 N969 1.356 . S
N972 C964 1.356 . S
N972 H978 0.984 . S
N972 H979 0.984 . S
N973 C966 1.356 . S
N973 H976 0.984 . S
N973 H977 0.972 1_554 S
H974 N969 0.984 . S
H975 N969 0.985 . S
H976 N973 0.984 . S
H977 N973 0.972 1_556 S
H978 N972 0.984 . S
H979 N972 0.984 . S
H980 N968 0.984 . S
H981 N968 0.985 . S
C982 C983 1.363 . S
C982 C988 1.379 . S
C982 N990 1.356 . S
C983 C982 1.363 . S
C983 C989 1.363 . S
C984 C985 1.363 . S
C984 C989 1.379 . S
C984 N991 1.356 . S
C985 C984 1.363 . S
C985 C988 1.363 . S
N986 C988 1.356 . S
N986 H998 0.984 . S
N986 H999 0.985 . S
N987 C989 1.356 . S
N987 H992 0.984 . S
N987 H993 0.985 . S
C988 C982 1.379 . S
C988 C985 1.363 . S
C988 N986 1.356 . S
C989 C983 1.363 . S
C989 C984 1.379 . S
C989 N987 1.356 . S
N990 C982 1.356 . S
N990 H996 0.984 . S
N990 H997 0.984 . S
N991 C984 1.356 . S
N991 H994 0.984 . S
N991 H995 0.985 . S
H992 N987 0.984 . S
H993 N987 0.985 . S
H994 N991 0.984 . S
H995 N991 0.985 . S
H996 N990 0.984 . S
H997 N990 0.984 . S
H998 N986 0.984 . S
H999 N986 0.985 . S
C1000 C1001 1.363 . S
C1000 C1006 1.379 . S
C1000 N1008 1.356 . S
C1001 C1000 1.363 . S
C1001 C1007 1.363 . S
C1002 C1003 1.363 . S
C1002 C1007 1.379 . S
C1002 N1009 1.356 . S
C1003 C1002 1.363 . S
C1003 C1006 1.363 . S
N1004 C1006 1.356 . S
N1004 H1016 0.984 . S
N1004 H1017 0.985 . S
N1005 C1007 1.356 . S
N1005 H1010 0.984 . S
N1005 H1011 0.985 . S
C1006 C1000 1.379 . S
C1006 C1003 1.363 . S
C1006 N1004 1.356 . S
C1007 C1001 1.363 . S
C1007 C1002 1.379 . S
C1007 N1005 1.356 . S
N1008 C1000 1.356 . S
N1008 H1014 0.984 . S
N1008 H1015 0.984 . S
N1009 C1002 1.356 . S
N1009 H1012 0.984 . S
N1009 H1013 0.985 . S
H1010 N1005 0.984 . S
H1011 N1005 0.985 . S
H1012 N1009 0.984 . S
H1013 N1009 0.985 . S
H1014 N1008 0.984 . S
H1015 N1008 0.984 . S
H1016 N1004 0.984 . S
H1017 N1004 0.985 . S
C1018 C1019 1.363 . S
C1018 C1024 1.379 . S
C1018 N1026 1.356 . S
C1019 C1018 1.363 . S
C1019 C1025 1.363 . S
C1020 C1021 1.363 . S
C1020 C1025 1.379 . S
C1020 N1027 1.356 . S
C1021 C1020 1.363 . S
C1021 C1024 1.363 . S
N1022 C1024 1.356 . S
N1022 H1034 0.984 . S
N1022 H1035 0.985 . S
N1023 C1025 1.356 . S
N1023 H1028 0.984 . S
N1023 H1029 0.985 . S
C1024 C1018 1.379 . S
C1024 C1021 1.363 . S
C1024 N1022 1.356 . S
C1025 C1019 1.363 . S
C1025 C1020 1.379 . S
C1025 N1023 1.356 . S
N1026 C1018 1.356 . S
N1026 H1032 0.984 . S
N1026 H1033 0.984 . S
N1027 C1020 1.356 . S
N1027 H1030 0.984 . S
N1027 H1031 0.985 . S
H1028 N1023 0.984 . S
H1029 N1023 0.985 . S
H1030 N1027 0.984 . S
H1031 N1027 0.985 . S
H1032 N1026 0.984 . S
H1033 N1026 0.984 . S
H1034 N1022 0.984 . S
H1035 N1022 0.985 . S
C1036 C1037 1.363 . S
C1036 C1042 1.379 . S
C1036 N1044 1.356 . S
C1037 C1036 1.363 . S
C1037 C1043 1.363 . S
C1038 C1039 1.363 . S
C1038 C1043 1.379 . S
C1038 N1045 1.356 . S
C1039 C1038 1.363 . S
C1039 C1042 1.363 . S
N1040 C1042 1.356 . S
N1040 H1052 0.984 . S
N1040 H1053 0.985 . S
N1041 C1043 1.356 . S
N1041 H1046 0.984 . S
N1041 H1047 0.985 . S
C1042 C1036 1.379 . S
C1042 C1039 1.363 . S
C1042 N1040 1.356 . S
C1043 C1037 1.363 . S
C1043 C1038 1.379 . S
C1043 N1041 1.356 . S
N1044 C1036 1.356 . S
N1044 H1050 0.984 . S
N1044 H1051 0.984 . S
N1045 C1038 1.356 . S
N1045 H1048 0.984 . S
N1045 H1049 0.985 . S
H1046 N1041 0.984 . S
H1047 N1041 0.985 . S
H1048 N1045 0.984 . S
H1049 N1045 0.985 . S
H1050 N1044 0.984 . S
H1051 N1044 0.984 . S
H1052 N1040 0.984 . S
H1053 N1040 0.985 . S
C1054 C1055 1.363 . S
C1054 C1060 1.379 . S
C1054 N1062 1.356 . S
C1055 C1054 1.363 . S
C1055 C1061 1.363 . S
C1056 C1057 1.363 . S
C1056 C1061 1.379 . S
C1056 N1063 1.356 . S
C1057 C1056 1.363 . S
C1057 C1060 1.363 . S
N1058 C1060 1.356 . S
N1058 H1070 0.984 . S
N1058 H1071 0.985 . S
N1059 C1061 1.356 . S
N1059 H1064 0.984 . S
N1059 H1065 0.985 . S
C1060 C1054 1.379 . S
C1060 C1057 1.363 . S
C1060 N1058 1.356 . S
C1061 C1055 1.363 . S
C1061 C1056 1.379 . S
C1061 N1059 1.356 . S
N1062 C1054 1.356 . S
N1062 H1068 0.984 . S
N1062 H1069 0.984 . S
N1063 C1056 1.356 . S
N1063 H1066 0.984 . S
N1063 H1067 0.985 . S
H1064 N1059 0.984 . S
H1065 N1059 0.985 . S
H1066 N1063 0.984 . S
H1067 N1063 0.985 . S
H1068 N1062 0.984 . S
H1069 N1062 0.984 . S
H1070 N1058 0.984 . S
H1071 N1058 0.985 . S
C641 C1 1.197 . S
C643 C487 1.411 . S
C659 C80 1.028 . S
C661 C536 1.098 . S
C679 C562 2.497 . S
C677 C140 2.489 . S
C695 C211 2.430 . S
C697 C610 2.406 . S
C715 C522 2.631 . S
C713 C31 2.244 . S
C733 C490 0.860 . S
C731 C61 0.847 . S
C751 C611 1.929 . S
C749 C151 1.958 . S
C769 C579 1.706 . S
C767 C200 1.704 . S
C785 C20 1.696 . S
C787 C607 1.835 . S
C805 C539 2.345 . S
C803 C121 2.429 . S
C821 C181 2.303 . S
C823 C491 2.352 . S
C839 C91 1.163 . S
C841 C576 1.143 . S
C859 C496 1.411 . S
C857 C260 1.294 . S
C875 C320 1.028 . S
C877 C527 1.095 . S
C893 C361 2.492 . S
C895 C571 2.497 . S
C911 C451 2.430 . S
C913 C619 2.409 . S
C929 C271 2.344 . S
C931 C531 2.632 . S
C949 C499 0.860 . S
C947 C301 0.847 . S
C967 C602 1.929 . S
C965 C380 1.928 . S
C985 C570 1.706 . S
C983 C440 1.704 . S
C1001 C241 1.561 . S
C1003 C616 1.836 . S
C1021 C530 2.345 . S
C1019 C391 2.425 . S
C1039 C482 2.352 . S
C1037 C421 2.302 . S
C1055 C331 1.163 . S
C1057 C567 1.143 . S
