# Generated by pormake.
# Topology pyr, (3,6)-cn, num edge types: 1
# Building blocks:
#     Node 0, Type 0, BuildingBlock: BELTOD_clean_linker_0, # of connection points: 3
#     Node 1, Type 0, BuildingBlock: BELTOD_clean_linker_0, # of connection points: 3
#     Node 2, Type 0, BuildingBlock: BELTOD_clean_linker_0, # of connection points: 3
#     Node 3, Type 0, BuildingBlock: BELTOD_clean_linker_0, # of connection points: 3
#     Node 4, Type 0, BuildingBlock: BELTOD_clean_linker_0, # of connection points: 3
#     Node 5, Type 0, BuildingBlock: BELTOD_clean_linker_0, # of connection points: 3
#     Node 6, Type 0, BuildingBlock: BELTOD_clean_linker_0, # of connection points: 3
#     Node 7, Type 0, BuildingBlock: BELTOD_clean_linker_0, # of connection points: 3
#     Node 8, Type 1, BuildingBlock: BETDIP_clean_sbu_0, # of connection points: 6
#     Node 9, Type 1, BuildingBlock: BETDIP_clean_sbu_0, # of connection points: 6
#     Node 10, Type 1, BuildingBlock: BETDIP_clean_sbu_0, # of connection points: 6
#     Node 11, Type 1, BuildingBlock: BETDIP_clean_sbu_0, # of connection points: 6
#     Edge 12, Type (0, 1), BuildingBlock: OJICUG_clean_linker_0, # of connection points: 2
#     Edge 13, Type (0, 1), BuildingBlock: OJICUG_clean_linker_0, # of connection points: 2
#     Edge 14, Type (0, 1), BuildingBlock: OJICUG_clean_linker_0, # of connection points: 2
#     Edge 15, Type (0, 1), BuildingBlock: OJICUG_clean_linker_0, # of connection points: 2
#     Edge 16, Type (0, 1), BuildingBlock: OJICUG_clean_linker_0, # of connection points: 2
#     Edge 17, Type (0, 1), BuildingBlock: OJICUG_clean_linker_0, # of connection points: 2
#     Edge 18, Type (0, 1), BuildingBlock: OJICUG_clean_linker_0, # of connection points: 2
#     Edge 19, Type (0, 1), BuildingBlock: OJICUG_clean_linker_0, # of connection points: 2
#     Edge 20, Type (0, 1), BuildingBlock: OJICUG_clean_linker_0, # of connection points: 2
#     Edge 21, Type (0, 1), BuildingBlock: OJICUG_clean_linker_0, # of connection points: 2
#     Edge 22, Type (0, 1), BuildingBlock: OJICUG_clean_linker_0, # of connection points: 2
#     Edge 23, Type (0, 1), BuildingBlock: OJICUG_clean_linker_0, # of connection points: 2
#     Edge 24, Type (0, 1), BuildingBlock: OJICUG_clean_linker_0, # of connection points: 2
#     Edge 25, Type (0, 1), BuildingBlock: OJICUG_clean_linker_0, # of connection points: 2
#     Edge 26, Type (0, 1), BuildingBlock: OJICUG_clean_linker_0, # of connection points: 2
#     Edge 27, Type (0, 1), BuildingBlock: OJICUG_clean_linker_0, # of connection points: 2
#     Edge 28, Type (0, 1), BuildingBlock: OJICUG_clean_linker_0, # of connection points: 2
#     Edge 29, Type (0, 1), BuildingBlock: OJICUG_clean_linker_0, # of connection points: 2
#     Edge 30, Type (0, 1), BuildingBlock: OJICUG_clean_linker_0, # of connection points: 2
#     Edge 31, Type (0, 1), BuildingBlock: OJICUG_clean_linker_0, # of connection points: 2
#     Edge 32, Type (0, 1), BuildingBlock: OJICUG_clean_linker_0, # of connection points: 2
#     Edge 33, Type (0, 1), BuildingBlock: OJICUG_clean_linker_0, # of connection points: 2
#     Edge 34, Type (0, 1), BuildingBlock: OJICUG_clean_linker_0, # of connection points: 2
#     Edge 35, Type (0, 1), BuildingBlock: OJICUG_clean_linker_0, # of connection points: 2
# Relax obj value: 0.175
# Max RMSD: 0.205
# Mean RMSD: 0.095
data_MOF--net-pyr--node1-BETDIP_clean_sbu_0--node2-BELTOD_clean_linker_0--edge1-OJICUG_clean_linker_0
_symmetry_space_group_name_H-M    P1
_symmetry_Int_Tables_number       1
_symmetry_cell_setting            triclinic
loop_
_symmetry_equiv_pos_as_xyz
'x, y, z'
_cell_length_a     30.77424
_cell_length_b     34.945218
_cell_length_c     33.307518
_cell_angle_alpha  88.469899
_cell_angle_beta   93.68478
_cell_angle_gamma 105.64662
loop_
_atom_site_label
_atom_site_type_symbol
_atom_site_fract_x
_atom_site_fract_y
_atom_site_fract_z
_atom_type_partial_charge
P0 P 0.44638 0.34317 0.26918 0.0
H1 H 0.50384 0.33274 0.20623 0.0
H2 H 0.51885 0.27367 0.17834 0.0
H3 H 0.43845 0.20047 0.26777 0.0
H4 H 0.42316 0.25896 0.29497 0.0
H5 H 0.4187 0.41617 0.26108 0.0
H6 H 0.35733 0.43291 0.22074 0.0
H7 H 0.33605 0.32463 0.15348 0.0
H8 H 0.39643 0.30754 0.19488 0.0
H9 H 0.46676 0.34478 0.3568 0.0
H10 H 0.34961 0.30863 0.27424 0.0
O11 O 0.49264 0.37929 0.28196 0.0
H12 H 0.41983 0.31718 0.41304 0.0
H13 H 0.30331 0.28072 0.32924 0.0
C14 C 0.46225 0.30041 0.2525 0.0
C15 C 0.49005 0.30402 0.22013 0.0
C16 C 0.49873 0.27026 0.20436 0.0
C17 C 0.47958 0.23235 0.22073 0.0
C18 C 0.45315 0.22916 0.25414 0.0
C19 C 0.44452 0.26282 0.26983 0.0
C20 C 0.41259 0.36093 0.23073 0.0
C21 C 0.40188 0.39675 0.2367 0.0
C22 C 0.36666 0.40625 0.21355 0.0
C23 C 0.34139 0.37991 0.18405 0.0
C24 C 0.35435 0.34528 0.17635 0.0
C25 C 0.38943 0.33574 0.19968 0.0
C26 C 0.41156 0.32949 0.31144 0.0
C27 C 0.43085 0.3318 0.35089 0.0
C28 C 0.40403 0.3158 0.38291 0.0
C29 C 0.35765 0.29696 0.37575 0.0
C30 C 0.33851 0.29591 0.33619 0.0
C31 C 0.36518 0.31182 0.30446 0.0
P32 P 0.18999 0.80248 0.7609 0.0
H33 H 0.23933 0.76004 0.81515 0.0
H34 H 0.24896 0.76048 0.88782 0.0
H35 H 0.13938 0.81565 0.8929 0.0
H36 H 0.12561 0.80933 0.82082 0.0
H37 H 0.21752 0.8113 0.67917 0.0
H38 H 0.25655 0.77353 0.64109 0.0
H39 H 0.22949 0.68007 0.73113 0.0
H40 H 0.18766 0.71685 0.76748 0.0
H41 H 0.16845 0.87343 0.7855 0.0
H42 H 0.12067 0.78556 0.69285 0.0
O43 O 0.23811 0.83875 0.76404 0.0
H44 H 0.12242 0.91394 0.75405 0.0
H45 H 0.07596 0.82719 0.65985 0.0
C46 C 0.18218 0.78524 0.81211 0.0
C47 C 0.21522 0.76959 0.83193 0.0
C48 C 0.22146 0.77084 0.87376 0.0
C49 C 0.19686 0.79037 0.89632 0.0
C50 C 0.15973 0.80099 0.87686 0.0
C51 C 0.15215 0.79792 0.83509 0.0
C52 C 0.20098 0.7675 0.72681 0.0
C53 C 0.2184 0.78195 0.68988 0.0
C54 C 0.24129 0.76053 0.66841 0.0
C55 C 0.24779 0.7245 0.68389 0.0
C56 C 0.22565 0.70793 0.71852 0.0
C57 C 0.20203 0.7292 0.73966 0.0
C58 C 0.14814 0.82662 0.74142 0.0
C59 C 0.14728 0.86247 0.75875 0.0
C60 C 0.12117 0.88575 0.74059 0.0
C61 C 0.09617 0.87412 0.70409 0.0
C62 C 0.09469 0.83686 0.68808 0.0
C63 C 0.12052 0.81317 0.70673 0.0
P64 P 0.65256 0.34291 0.85041 0.0
H65 H 0.6912 0.32509 0.92952 0.0
H66 H 0.75443 0.36049 0.97324 0.0
H67 H 0.7772 0.4611 0.89167 0.0
H68 H 0.71383 0.42492 0.8474 0.0
H69 H 0.61067 0.25928 0.8293 0.0
H70 H 0.5714 0.20115 0.86776 0.0
H71 H 0.56935 0.27646 0.96781 0.0
H72 H 0.60839 0.33488 0.92871 0.0
H73 H 0.6137 0.32378 0.76834 0.0
H74 H 0.63321 0.42292 0.8478 0.0
O75 O 0.68317 0.32113 0.82376 0.0
H76 H 0.59005 0.36239 0.71303 0.0
H77 H 0.60989 0.46212 0.7923 0.0
C78 C 0.69501 0.37302 0.88609 0.0
C79 C 0.7082 0.3554 0.92162 0.0
C80 C 0.74507 0.37575 0.94672 0.0
C81 C 0.77095 0.41419 0.93669 0.0
C82 C 0.75818 0.43169 0.90075 0.0
C83 C 0.72108 0.41121 0.87562 0.0
C84 C 0.61342 0.30179 0.87606 0.0
C85 C 0.60112 0.26361 0.85923 0.0
C86 C 0.57857 0.23011 0.88145 0.0
C87 C 0.56766 0.23361 0.92143 0.0
C88 C 0.57791 0.27224 0.93752 0.0
C89 C 0.5999 0.30589 0.91493 0.0
C90 C 0.6263 0.37036 0.81247 0.0
C91 C 0.6124 0.35377 0.77417 0.0
C92 C 0.59874 0.37607 0.74229 0.0
C93 C 0.59854 0.41595 0.74748 0.0
C94 C 0.61046 0.43193 0.78651 0.0
C95 C 0.62367 0.40934 0.81859 0.0
P96 P 0.86147 0.70719 0.33363 0.0
H97 H 0.8631 0.7916 0.32063 0.0
H98 H 0.90023 0.8526 0.35605 0.0
H99 H 0.97127 0.78762 0.43623 0.0
H100 H 0.93497 0.72656 0.39908 0.0
H101 H 0.91452 0.73282 0.26276 0.0
H102 H 0.94148 0.69761 0.21135 0.0
H103 H 0.89682 0.58814 0.27857 0.0
H104 H 0.87114 0.62397 0.33036 0.0
H105 H 0.84819 0.71548 0.42067 0.0
H106 H 0.79024 0.63161 0.32647 0.0
O107 O 0.82441 0.72066 0.30132 0.0
H108 H 0.79093 0.67992 0.46511 0.0
H109 H 0.73191 0.59611 0.37078 0.0
C110 C 0.89588 0.7538 0.35685 0.0
C111 C 0.88713 0.79023 0.34543 0.0
C112 C 0.90819 0.82552 0.36637 0.0
C113 C 0.93868 0.82587 0.39994 0.0
C114 C 0.94851 0.78939 0.41053 0.0
C115 C 0.92768 0.75406 0.38917 0.0
C116 C 0.89089 0.68155 0.30111 0.0
C117 C 0.91142 0.70138 0.26703 0.0
C118 C 0.92625 0.68084 0.23703 0.0
C119 C 0.92106 0.63942 0.23978 0.0
C120 C 0.90195 0.61988 0.27485 0.0
C121 C 0.88703 0.64053 0.30486 0.0
C122 C 0.82506 0.67585 0.37007 0.0
C123 C 0.82406 0.68883 0.40957 0.0
C124 C 0.79042 0.66861 0.43508 0.0
C125 C 0.75613 0.63495 0.42187 0.0
C126 C 0.75785 0.62141 0.3826 0.0
C127 C 0.79157 0.64172 0.35708 0.0
P128 P 0.6757 0.83815 0.92075 0.0
H129 H 0.61058 0.81516 0.98215 0.0
H130 H 0.54718 0.84149 0.9947 0.0
H131 H 0.54868 0.88841 0.87336 0.0
H132 H 0.61349 0.86456 0.8619 0.0
H133 H 0.68252 0.76706 0.87845 0.0
H134 H 0.72038 0.71646 0.89929 0.0
H135 H 0.73279 0.75735 1.02186 0.0
H136 H 0.69582 0.8088 1.00053 0.0
H137 H 0.75775 0.89689 0.89874 0.0
H138 H 0.64697 0.81148 0.83762 0.0
O139 O 0.70268 0.87299 0.95374 0.0
H140 H 0.78963 0.91934 0.83462 0.0
H141 H 0.67845 0.83451 0.77279 0.0
C142 C 0.61724 0.83792 0.92122 0.0
C143 C 0.59592 0.82942 0.95758 0.0
C144 C 0.55939 0.84445 0.96469 0.0
C145 C 0.54371 0.86802 0.9353 0.0
C146 C 0.56071 0.8711 0.89687 0.0
C147 C 0.5978 0.85693 0.89014 0.0
C148 C 0.68777 0.79262 0.93768 0.0
C149 C 0.69235 0.76471 0.90994 0.0
C150 C 0.71377 0.73543 0.92201 0.0
C151 C 0.73058 0.73356 0.96208 0.0
C152 C 0.72117 0.75872 0.99059 0.0
C153 C 0.69985 0.78802 0.97844 0.0
C154 C 0.69942 0.85311 0.8729 0.0
C155 C 0.74002 0.88311 0.87149 0.0
C156 C 0.75818 0.89608 0.83472 0.0
C157 C 0.73616 0.87918 0.79857 0.0
C158 C 0.69622 0.84811 0.80013 0.0
C159 C 0.67812 0.83505 0.83709 0.0
P160 P 0.91336 0.32507 0.34015 0.0
H161 H 0.90786 0.38679 0.39644 0.0
H162 H 0.84379 0.40256 0.42568 0.0
H163 H 0.75314 0.29886 0.36939 0.0
H164 H 0.81704 0.2836 0.33997 0.0
H165 H 1.00033 0.30596 0.34672 0.0
H166 H 0.02369 0.2482 0.37318 0.0
H167 H 0.88844 0.19594 0.41097 0.0
H168 H 0.86519 0.2527 0.38323 0.0
H169 H 0.84519 0.3468 0.28492 0.0
H170 H 0.94418 0.28046 0.27939 0.0
O171 O 0.95683 0.36577 0.34154 0.0
H172 H 0.81039 0.31996 0.22074 0.0
H173 H 0.91232 0.25632 0.21317 0.0
C174 C 0.86717 0.33432 0.36562 0.0
C175 C 0.87425 0.36731 0.39066 0.0
C176 C 0.83762 0.3762 0.40748 0.0
C177 C 0.79334 0.35219 0.39944 0.0
C178 C 0.78671 0.31833 0.37555 0.0
C179 C 0.82328 0.30942 0.35898 0.0
C180 C 0.93118 0.28412 0.36348 0.0
C181 C 0.97585 0.28218 0.36103 0.0
C182 C 0.98916 0.24908 0.37619 0.0
C183 C 0.95796 0.21721 0.39419 0.0
C184 C 0.91325 0.21948 0.39669 0.0
C185 C 0.89996 0.25239 0.38121 0.0
C186 C 0.89536 0.31347 0.28826 0.0
C187 C 0.85984 0.32675 0.26968 0.0
C188 C 0.84043 0.3119 0.23229 0.0
C189 C 0.85745 0.2847 0.21201 0.0
C190 C 0.89686 0.27567 0.22861 0.0
C191 C 0.91538 0.28966 0.26655 0.0
P192 P 0.39635 0.69279 0.22465 0.0
H193 H 0.37357 0.63783 0.15628 0.0
H194 H 0.30331 0.60563 0.11878 0.0
H195 H 0.22904 0.65552 0.19923 0.0
H196 H 0.30024 0.68816 0.23696 0.0
H197 H 0.46738 0.76303 0.25475 0.0
H198 H 0.49045 0.83217 0.23166 0.0
H199 H 0.37253 0.81055 0.14935 0.0
H200 H 0.34975 0.7416 0.17238 0.0
H201 H 0.33629 0.64237 0.28418 0.0
H202 H 0.47825 0.69994 0.27778 0.0
O203 O 0.43648 0.68195 0.19928 0.0
H204 H 0.35207 0.60921 0.34675 0.0
H205 H 0.49453 0.66639 0.33972 0.0
C206 C 0.34259 0.66552 0.19982 0.0
C207 C 0.34236 0.6418 0.16632 0.0
C208 C 0.30191 0.62345 0.14453 0.0
C209 C 0.26027 0.62805 0.15563 0.0
C210 C 0.26034 0.65099 0.1899 0.0
C211 C 0.30107 0.66971 0.21157 0.0
C212 C 0.40607 0.74655 0.21634 0.0
C213 C 0.44563 0.77324 0.23263 0.0
C214 C 0.45918 0.81294 0.21887 0.0
C215 C 0.43366 0.82735 0.1882 0.0
C216 C 0.39298 0.80104 0.17321 0.0
C217 C 0.37971 0.76124 0.18672 0.0
C218 C 0.40585 0.67455 0.27595 0.0
C219 C 0.37084 0.64868 0.29645 0.0
C220 C 0.38013 0.62908 0.33232 0.0
C221 C 0.42485 0.63444 0.34888 0.0
C222 C 0.45958 0.66152 0.32887 0.0
C223 C 0.45021 0.68109 0.29311 0.0
P224 P 0.16627 0.34133 0.75562 0.0
H225 H 0.17236 0.25841 0.75817 0.0
H226 H 0.138 0.20022 0.71762 0.0
H227 H 0.05546 0.2654 0.65115 0.0
H228 H 0.08902 0.32341 0.6936 0.0
H229 H 0.23984 0.41483 0.76657 0.0
H230 H 0.29844 0.45179 0.7231 0.0
H231 H 0.23491 0.37551 0.62411 0.0
H232 H 0.1772 0.33866 0.66744 0.0
H233 H 0.11194 0.31373 0.82552 0.0
H234 H 0.15738 0.42439 0.76132 0.0
O235 O 0.20266 0.32677 0.7878 0.0
H236 H 0.0853 0.34784 0.87816 0.0
H237 H 0.1319 0.45902 0.81419 0.0
C238 C 0.13324 0.29581 0.72965 0.0
C239 C 0.1462 0.26027 0.7355 0.0
C240 C 0.12681 0.22672 0.71149 0.0
C241 C 0.09399 0.22739 0.6801 0.0
C242 C 0.0801 0.26285 0.67501 0.0
C243 C 0.09927 0.29639 0.6995 0.0
C244 C 0.20306 0.37414 0.72059 0.0
C245 C 0.23772 0.4067 0.73522 0.0
C246 C 0.27148 0.42784 0.71021 0.0
C247 C 0.27193 0.41666 0.66989 0.0
C248 C 0.23632 0.38482 0.65502 0.0
C249 C 0.20258 0.36384 0.67997 0.0
C250 C 0.1364 0.36599 0.78868 0.0
C251 C 0.11544 0.34531 0.8222 0.0
C252 C 0.10082 0.3652 0.85291 0.0
C253 C 0.10665 0.40675 0.85142 0.0
C254 C 0.12622 0.42715 0.81692 0.0
C255 C 0.14095 0.40717 0.78625 0.0
Tb256 Tb 0.97373 1.02091 0.53792 0.0
Tb257 Tb 0.06833 0.04197 0.52482 0.0
C258 C 0.89246 0.98442 0.54715 0.0
C259 C 0.86759 0.96907 0.58275 0.0
C260 C 0.8256 0.94076 0.57871 0.0
C261 C 0.80218 0.92577 0.61283 0.0
C262 C 0.82047 0.93915 0.65132 0.0
C263 C 0.86274 0.96741 0.65511 0.0
C264 C 0.88619 0.98213 0.62111 0.0
C265 C 0.01783 0.08829 0.57551 0.0
C266 C 0.03939 0.98475 0.59595 0.0
C267 C 0.15032 0.07246 0.51216 0.0
C268 C 0.18121 0.10983 0.49934 0.0
C269 C 0.17107 0.14644 0.50216 0.0
C270 C 0.20144 0.18137 0.48905 0.0
C271 C 0.24221 0.18002 0.4729 0.0
C272 C 0.25203 0.1431 0.47061 0.0
C273 C 0.22187 0.10844 0.48379 0.0
C274 C 0.02191 0.973 0.49126 0.0
C275 C 1.00548 0.08362 0.4737 0.0
O276 O 0.9232 0.96685 0.53881 0.0
O277 O 0.90726 1.02306 0.54472 0.0
O278 O 0.03211 0.05777 0.5721 0.0
O279 O 0.97664 0.07991 0.56056 0.0
O280 O 0.99733 0.98209 0.58254 0.0
O281 O 0.07376 1.01029 0.58026 0.0
O282 O 0.13332 0.07233 0.54711 0.0
O283 O 0.12046 0.0535 0.48487 0.0
O284 O 1.0097 1.00484 0.49129 0.0
O285 O 0.06158 0.97986 0.50935 0.0
O286 O 0.04509 0.08913 0.49349 0.0
O287 O 0.97301 0.05123 0.48035 0.0
H288 H 0.81099 0.93028 0.54923 0.0
H289 H 0.76958 0.90413 0.6091 0.0
H290 H 0.87797 0.97775 0.68445 0.0
H291 H 0.9189 1.00367 0.62473 0.0
H292 H 0.1397 0.14796 0.51421 0.0
H293 H 0.19293 0.20931 0.49136 0.0
H294 H 0.28243 0.14067 0.45744 0.0
H295 H 0.23007 0.08035 0.48133 0.0
Tb296 Tb 0.54351 0.05358 0.07598 0.0
Tb297 Tb 0.43963 0.03344 0.06405 0.0
C298 C 0.62581 0.08375 0.06594 0.0
C299 C 0.66008 0.12184 0.07067 0.0
C300 C 0.65085 0.15373 0.08993 0.0
C301 C 0.68636 0.18602 0.10299 0.0
C302 C 0.73137 0.18646 0.09717 0.0
C303 C 0.73991 0.15608 0.07471 0.0
C304 C 0.70445 0.12397 0.06157 0.0
C305 C 0.50574 0.98496 0.11472 0.0
C306 C 0.49135 0.09732 0.13017 0.0
C307 C 0.35605 1.00636 0.07017 0.0
C308 C 0.32644 0.96658 0.06088 0.0
C309 C 0.34467 0.93383 0.06147 0.0
C310 C 0.3194 0.89754 1.04574 0.0
C311 C 0.27597 0.89366 1.02754 0.0
C312 C 0.25659 0.92573 1.02937 0.0
C313 C 0.2817 0.96195 1.04602 0.0
C314 C 0.48613 0.09065 1.01623 0.0
C315 C 0.49068 0.98877 1.01381 0.0
O316 O 0.59413 0.08111 1.03703 0.0
O317 O 0.61009 0.06701 0.09965 0.0
O318 O 0.48712 1.00781 0.09447 0.0
O319 O 0.54866 1.00142 0.11366 0.0
O320 O 0.53109 0.0947 0.11912 0.0
O321 O 0.45233 0.07583 0.11346 0.0
O322 O 0.38586 1.00832 0.10049 0.0
O323 O 0.37379 1.02663 1.03885 0.0
O324 O 0.49552 0.08419 0.05279 0.0
O325 O 0.44772 0.06567 1.00593 0.0
O326 O 0.45357 0.98461 1.03311 0.0
O327 O 0.52714 1.01854 1.02113 0.0
H328 H 0.61668 0.15238 0.0973 0.0
H329 H 0.67887 0.20888 0.1205 0.0
H330 H 0.77428 0.1559 0.06961 0.0
H331 H 0.71206 0.09952 1.04672 0.0
H332 H 0.37945 0.93687 0.07168 0.0
H333 H 0.33515 0.87333 1.04528 0.0
H334 H 0.22343 0.92393 1.01521 0.0
H335 H 0.26723 0.98702 1.04492 0.0
Tb336 Tb 0.51869 0.56302 0.5677 0.0
Tb337 Tb 0.51029 0.48858 0.52659 0.0
C338 C 0.50326 0.62573 0.5911 0.0
C339 C 0.46435 0.6365 0.60639 0.0
C340 C 0.41977 0.61656 0.59352 0.0
C341 C 0.3834 0.62901 0.60631 0.0
C342 C 0.39104 0.66171 0.63204 0.0
C343 C 0.4357 0.68074 0.64577 0.0
C344 C 0.47198 0.66827 0.63299 0.0
C345 C 0.55607 0.51334 0.61057 0.0
C346 C 0.42928 0.49048 0.57722 0.0
C347 C 0.52569 0.4258 0.50316 0.0
C348 C 0.56479 0.41585 0.48726 0.0
C349 C 0.6091 0.43783 0.49839 0.0
C350 C 0.64601 0.42768 0.48383 0.0
C351 C 0.63944 0.39508 0.4581 0.0
C352 C 0.59492 0.37322 0.44691 0.0
C353 C 0.55795 0.3836 0.46132 0.0
C354 C 0.47182 0.53804 0.48462 0.0
C355 C 0.59947 0.56149 0.51637 0.0
O356 O 0.49878 0.61467 0.55354 0.0
O357 O 0.52198 0.60326 0.61445 0.0
O358 O 0.51952 0.50449 0.58882 0.0
O359 O 0.57242 0.55171 0.60913 0.0
O360 O 0.4487 0.52922 0.57991 0.0
O361 O 0.44919 0.46705 0.5593 0.0
O362 O 0.53082 0.43719 0.54065 0.0
O363 O 0.50612 0.44788 0.48007 0.0
O364 O 0.5089 0.54691 0.50559 0.0
O365 O 0.45573 0.49963 0.48593 0.0
O366 O 0.57991 0.52279 0.51345 0.0
O367 O 0.57989 0.58475 0.53498 0.0
H368 H 0.41305 0.59196 0.57288 0.0
H369 H 0.34949 0.61387 0.59502 0.0
H370 H 0.44269 0.70553 0.66622 0.0
H371 H 0.50609 0.68388 0.64339 0.0
H372 H 0.61529 0.46272 0.51859 0.0
H373 H 0.67972 0.44558 0.49256 0.0
H374 H 0.58858 0.34765 0.42755 0.0
H375 H 0.52401 0.36617 0.45252 0.0
Tb376 Tb 0.01291 0.55537 1.01959 0.0
Tb377 Tb 0.01661 0.48865 0.0743 0.0
C378 C 0.98572 0.60587 0.97749 0.0
C379 C 0.94699 0.62269 0.97938 0.0
C380 C 0.90457 0.59883 0.98996 0.0
C381 C 0.86781 0.61503 0.99076 0.0
C382 C 0.87306 0.65542 0.98164 0.0
C383 C 0.91574 0.67932 0.9718 0.0
C384 C 0.95236 0.66302 0.97057 0.0
C385 C 0.09337 0.5628 0.05753 0.0
C386 C 0.97739 0.55406 0.10907 0.0
C387 C 0.04464 0.43916 0.11769 0.0
C388 C 0.08618 0.42602 0.11952 0.0
C389 C 0.12269 0.44571 0.09684 0.0
C390 C 0.16398 0.43616 0.10211 0.0
C391 C 0.16953 0.4069 0.13032 0.0
C392 C 0.13229 0.38647 0.15206 0.0
C393 C 0.09099 0.39599 0.14667 0.0
C394 C 0.93598 0.48118 1.03659 0.0
C395 C 0.05138 0.49017 0.98423 0.0
O396 O 0.97582 0.56815 0.96868 0.0
O397 O 0.01697 0.61545 1.00676 0.0
O398 O 0.05517 0.54907 0.07159 0.0
O399 O 0.08717 0.5751 1.02104 0.0
O400 O 0.97548 0.56678 0.07114 0.0
O401 O 0.99535 0.52434 0.11839 0.0
O402 O 0.05061 0.47628 0.1273 0.0
O403 O 0.01734 0.42928 0.08567 0.0
O404 O 0.97419 0.49499 1.02256 0.0
O405 O 0.94234 0.46806 0.07273 0.0
O406 O 0.05384 0.47758 1.02222 0.0
O407 O 0.03318 0.51974 0.9751 0.0
H408 H 0.89975 0.56764 0.99738 0.0
H409 H 0.83538 0.59608 0.99874 0.0
H410 H 0.92059 0.71046 0.96422 0.0
H411 H 0.98482 0.68186 0.96249 0.0
H412 H 0.11972 0.46929 0.07597 0.0
H413 H 0.19176 0.45215 0.08458 0.0
H414 H 0.13551 0.36423 0.17447 0.0
H415 H 0.06326 0.3808 0.16469 0.0
C416 C 0.28371 0.2716 0.40821 0.0
C417 C 0.33007 0.27403 0.40784 0.0
H418 H 0.2194 0.23971 0.42868 0.0
C419 C 0.34827 0.24975 0.4345 0.0
H420 H 0.26879 0.29052 0.38869 0.0
C421 C 0.32006 0.22119 0.45816 0.0
C422 C 0.27301 0.21597 0.45534 0.0
H423 H 0.38378 0.25074 0.43509 0.0
H424 H 0.33487 0.20174 0.47706 0.0
C425 C 0.25541 0.24272 0.43153 0.0
C426 C 0.26341 0.82213 0.94247 0.0
C427 C 0.21616 0.80798 0.93607 0.0
H428 H 0.31884 0.85999 0.97576 0.0
C429 C 0.18875 0.81741 0.96452 0.0
H430 H 0.28611 0.81665 0.92117 0.0
C431 C 0.20805 0.84334 0.99619 0.0
C432 C 0.25512 0.8598 1.00032 0.0
H433 H 0.1523 0.80647 0.9612 0.0
H434 H 0.18608 0.85183 1.01634 0.0
C435 C 0.28252 0.84749 0.97409 0.0
C436 C 0.55359 0.42443 0.68193 0.0
C437 C 0.58735 0.44084 0.7122 0.0
H438 H 0.51713 0.43393 0.62677 0.0
C439 C 0.61115 0.48119 0.70781 0.0
H440 H 0.53409 0.39371 0.68403 0.0
C441 C 0.60162 0.50417 0.67462 0.0
C442 C 0.56764 0.48786 0.64468 0.0
H443 H 0.63781 0.49505 0.72982 0.0
H444 H 0.62078 0.53503 0.67263 0.0
C445 C 0.54376 0.44758 0.6489 0.0
C446 C 0.93091 0.62852 0.16525 0.0
C447 C 0.93465 0.6169 0.20609 0.0
H448 H 0.94051 0.61832 0.10334 0.0
C449 C 0.95146 0.58344 0.21411 0.0
H450 H 0.91749 0.65346 0.1571 0.0
C451 C 0.96444 0.56294 0.1829 0.0
C452 C 0.96107 0.57484 0.14221 0.0
H453 H 0.95557 0.57338 0.24478 0.0
H454 H 0.97772 0.53786 0.19088 0.0
C455 C 0.94382 0.60795 0.13403 0.0
C456 C 0.52569 0.1944 0.18698 0.0
C457 C 0.48424 0.19604 0.20126 0.0
H458 H 0.56078 0.16152 0.15398 0.0
C459 C 0.44625 0.16336 0.19494 0.0
H460 H 0.55565 0.21895 0.19177 0.0
C461 C 0.44913 0.1305 0.17342 0.0
C462 C 0.49012 0.12943 0.15782 0.0
H463 H 0.4137 0.16383 0.2052 0.0
H464 H 0.4188 0.10644 0.16801 0.0
C465 C 0.52867 0.16132 0.16565 0.0
C466 C 0.10438 0.9426 0.67679 0.0
C467 C 0.07762 0.90325 0.68026 0.0
H468 H 0.11282 0.99912 0.64792 0.0
C469 C 0.03549 0.89192 0.6585 0.0
H470 H 0.1373 0.95223 0.69258 0.0
C471 C 0.02127 0.91919 0.63273 0.0
C472 C 0.0494 0.95785 0.62792 0.0
H473 H 0.01409 0.86184 0.66075 0.0
H474 H 0.9895 0.90945 0.61511 0.0
C475 C 0.0905 0.96948 0.65092 0.0
C476 C 0.85195 0.45722 0.9454 0.0
C477 C 0.81228 0.43458 0.9626 0.0
H478 H 0.92177 0.4896 0.955 0.0
C479 C 0.81328 0.42988 1.00483 0.0
H480 H 0.85298 0.46129 0.9131 0.0
C481 C 0.85295 0.44602 1.02883 0.0
C482 C 0.89285 0.46741 1.01142 0.0
H483 H 0.78341 0.41337 1.01946 0.0
H484 H 0.85257 0.44105 0.06106 0.0
C485 C 0.89163 0.47339 0.96946 0.0
C486 C 0.6978 0.5741 0.44753 0.0
C487 C 0.71765 0.61551 0.44802 0.0
H488 H 0.64599 0.52466 0.46863 0.0
C489 C 0.69932 0.63848 0.47295 0.0
H490 H 0.71098 0.55513 0.42927 0.0
C491 C 0.66208 0.62089 0.49584 0.0
C492 C 0.64174 0.57963 0.49475 0.0
H493 H 0.71285 0.67045 0.47394 0.0
H494 H 0.64863 0.63992 0.5138 0.0
C495 C 0.66055 0.55647 0.47052 0.0
C496 C 0.25981 0.35433 0.16036 0.0
C497 C 0.29884 0.38637 0.16495 0.0
H498 H 0.18871 0.33552 0.14511 0.0
C499 C 0.2956 0.42483 0.15467 0.0
H500 H 0.26083 0.32435 0.16842 0.0
C501 C 0.25395 0.4313 0.14196 0.0
C502 C 0.21457 0.39945 0.13914 0.0
H503 H 0.32507 0.45011 0.15743 0.0
H504 H 0.25236 0.46153 0.13602 0.0
C505 C 0.21823 0.36078 0.14753 0.0
C506 C 0.51309 0.16499 0.92888 0.0
C507 C 0.54666 0.19708 0.94616 0.0
H508 H 0.46794 0.10693 0.93713 0.0
C509 C 0.56068 0.19334 0.98697 0.0
H510 H 0.501 0.16659 0.89779 0.0
C511 C 0.54187 0.15871 1.00954 0.0
C512 C 0.50805 0.12692 0.99218 0.0
H513 H 0.58679 0.21699 1.00138 0.0
H514 H 0.55351 0.15699 1.04075 0.0
C515 C 0.49398 0.13066 0.95154 0.0
C516 C 1.00296 0.87082 0.44341 0.0
C517 C 0.95964 0.86383 0.42361 0.0
H518 H 0.05583 0.90979 0.47978 0.0
C519 C 0.93675 0.89374 0.42673 0.0
H520 H 0.02249 0.84947 0.44164 0.0
C521 C 0.95654 0.9291 0.44835 0.0
C522 C 0.99975 0.93573 0.46794 0.0
H523 H 0.90307 0.88977 0.4129 0.0
H524 H 0.93781 0.95114 0.44993 0.0
C525 C 0.02244 0.9059 0.46522 0.0
C526 C 0.27664 0.66631 0.66576 0.0
C527 C 0.28241 0.70758 0.66743 0.0
H528 H 0.30649 0.61931 0.6535 0.0
C529 C 0.32356 0.73326 0.65617 0.0
H530 H 0.24534 0.6457 0.67409 0.0
C531 C 0.35824 0.71824 0.64421 0.0
C532 C 0.35299 0.67709 0.6434 0.0
H533 H 0.32973 0.7652 0.6578 0.0
H534 H 0.38939 0.73901 0.63577 0.0
C535 C 0.31154 0.6512 0.65373 0.0
C536 C 0.75641 0.8682 0.72871 0.0
C537 C 0.75497 0.89438 0.7596 0.0
H538 H 0.77861 0.86189 0.67015 0.0
C539 C 0.77292 0.93544 0.75356 0.0
H540 H 0.74315 0.8364 0.73261 0.0
C541 C 0.7933 0.94993 0.71804 0.0
C542 C 0.79599 0.92371 0.68768 0.0
H543 H 0.77137 0.95645 0.7764 0.0
H544 H 0.80714 0.9817 0.71438 0.0
C545 C 0.7767 0.88276 0.69301 0.0
C546 C 0.80281 0.2785 0.15084 0.0
C547 C 0.83096 0.26203 0.17706 0.0
H548 H 0.74885 0.26742 0.10477 0.0
C549 C 0.82943 0.22172 0.17272 0.0
H550 H 0.80363 0.30957 0.15253 0.0
C551 C 0.79906 0.19812 0.14471 0.0
C552 C 0.76886 0.21391 0.12064 0.0
H553 H 0.84955 0.20742 0.19267 0.0
H554 H 0.79718 0.16673 0.14388 0.0
C555 C 0.77164 0.25452 0.12324 0.0
C556 C 0.40982 0.57123 0.39218 0.0
C557 C 0.43552 0.61068 0.38539 0.0
H558 H 0.40073 0.51798 0.42821 0.0
C559 C 0.47246 0.62641 0.41311 0.0
H560 H 0.38162 0.55736 0.37164 0.0
C561 C 0.48368 0.6034 0.44567 0.0
C562 C 0.45838 0.56383 0.45178 0.0
H563 H 0.49294 0.65667 0.40976 0.0
H564 H 0.51267 0.6165 0.46578 0.0
C565 C 0.42101 0.54832 0.42473 0.0
C566 C 0.07686 0.46234 0.87856 0.0
C567 C 0.09324 0.42856 0.88576 0.0
H568 H 0.05124 0.50775 0.90286 0.0
C569 C 0.0968 0.41605 0.92634 0.0
H570 H 0.07288 0.47306 0.84813 0.0
C571 C 0.08421 0.43618 0.95812 0.0
C572 C 0.06742 0.46966 0.95072 0.0
H573 H 0.10985 0.39076 0.93383 0.0
H574 H 0.08737 0.42521 0.98859 0.0
C575 C 0.06417 0.48236 0.91028 0.0
C576 C 0.48691 0.88718 0.97636 0.0
C577 C 0.51994 0.89711 0.94773 0.0
H578 H 0.45074 0.90898 1.01954 0.0
C579 C 0.53678 0.93724 0.93645 0.0
H580 H 0.47319 0.85653 0.9855 0.0
C581 C 0.52436 0.96697 0.95603 0.0
C582 C 0.49445 0.95727 0.98697 0.0
H583 H 0.56269 0.9462 0.91496 0.0
H584 H 0.54033 0.99774 0.94863 0.0
C585 C 0.47395 0.91712 0.99567 0.0
C586 C 0.01455 0.18687 0.43135 0.0
C587 C 0.97194 0.1821 0.41106 0.0
H588 H 0.05878 0.15952 0.46646 0.0
C589 C 0.94208 0.1437 0.40852 0.0
H590 H 0.03829 0.21596 0.4343 0.0
C591 C 0.95365 0.11129 0.42743 0.0
C592 C 0.99552 0.11645 0.44902 0.0
H593 H 0.90941 0.13869 0.39235 0.0
H594 H 0.92931 0.08239 0.42592 0.0
C595 C 0.02626 0.15442 0.44995 0.0
C596 C 0.17682 0.59139 0.14868 0.0
C597 C 0.21749 0.60999 0.13068 0.0
H598 H 0.10616 0.56121 0.13989 0.0
C599 C 0.217 0.61141 0.08831 0.0
H600 H 0.1759 0.58931 0.18113 0.0
C601 C 0.17701 0.59543 0.0647 0.0
C602 C 0.13637 0.57723 0.0827 0.0
H603 H 0.24742 0.62576 0.07326 0.0
H604 H 0.17782 0.59777 1.03225 0.0
C605 C 0.13688 0.57499 0.12501 0.0
C606 C 0.33131 0.47758 0.64624 0.0
C607 C 0.31052 0.43639 0.64421 0.0
H608 H 0.38411 0.52699 0.62652 0.0
C609 C 0.32798 0.41377 0.61822 0.0
H610 H 0.31873 0.49618 0.66547 0.0
C611 C 0.36548 0.43147 0.59577 0.0
C612 C 0.38678 0.47247 0.59835 0.0
H613 H 0.31355 0.38196 0.61607 0.0
H614 H 0.37831 0.41271 0.57694 0.0
C615 C 0.36873 0.49536 0.62355 0.0
C616 C 0.80404 0.72819 0.99472 0.0
C617 C 0.76361 0.71027 0.97241 0.0
H618 H 0.87019 0.72471 1.01528 0.0
C619 C 0.75792 0.67236 0.95625 0.0
H620 H 0.80982 0.75761 1.0071 0.0
C621 C 0.79279 0.65362 0.96078 0.0
C622 C 0.83407 0.67265 0.9812 0.0
H623 H 0.72707 0.65777 0.93908 0.0
H624 H 0.78825 0.62511 0.9467 0.0
C625 C 0.8389 0.70962 0.99898 0.0
C626 C 0.49733 0.88327 0.16302 0.0
C627 C 0.45114 0.86838 0.16998 0.0
H628 H 0.54989 0.93065 0.14011 0.0
C629 C 0.42235 0.89271 0.15843 0.0
H630 H 0.52068 0.86555 0.17069 0.0
C631 C 0.43946 0.93071 0.14084 0.0
C632 C 0.48557 0.94503 0.13348 0.0
H633 H 0.38666 0.8827 0.16361 0.0
H634 H 0.41683 0.9491 0.13377 0.0
C635 C 0.51413 0.92075 0.14512 0.0
C636 C 0.10067 0.16501 0.64437 0.0
C637 C 0.07491 0.19158 0.65293 0.0
H638 H 0.10349 0.11203 0.61386 0.0
C639 C 0.03052 0.18332 0.6352 0.0
H640 H 0.13525 0.1702 0.65638 0.0
C641 C 0.01274 0.15019 0.6102 0.0
C642 C 0.03828 0.12359 0.60211 0.0
H643 H 1.00888 0.20207 0.64105 0.0
H644 H 0.97843 0.14522 0.59742 0.0
C645 C 0.0826 0.13154 0.61957 0.0
C646 C 0.71496 0.36056 0.38943 0.0
C647 C 0.75397 0.36299 0.41472 0.0
H648 H 0.64877 0.36946 0.38291 0.0
C649 C 0.7551 0.37603 0.45438 0.0
H650 H 0.71335 0.35125 0.35848 0.0
C651 C 0.71793 0.38624 0.46851 0.0
C652 C 0.67888 0.3839 0.44319 0.0
H653 H 0.78449 0.37779 0.47471 0.0
H654 H 0.7196 0.39546 0.49948 0.0
C655 C 0.67791 0.37096 0.40346 0.0
loop_
_geom_bond_atom_site_label_1
_geom_bond_atom_site_label_2
_geom_bond_distance
_geom_bond_site_symmetry_2
_ccdc_geom_bond_type
P0 O11 1.490 . S
P0 C14 1.812 . S
P0 C20 1.803 . S
P0 C26 1.819 . S
H1 C15 0.941 . S
H2 C16 0.939 . S
H3 C18 0.940 . S
H4 C19 0.940 . S
H5 C21 0.939 . S
H6 C22 0.942 . S
H7 C24 0.940 . S
H8 C25 0.939 . S
H9 C27 0.941 . S
H10 C31 0.939 . S
O11 P0 1.490 . S
H12 C28 0.939 . S
H13 C30 0.940 . S
C14 P0 1.812 . S
C14 C15 1.389 . S
C14 C19 1.391 . S
C15 H1 0.941 . S
C15 C14 1.389 . S
C15 C16 1.397 . S
C16 H2 0.939 . S
C16 C15 1.397 . S
C16 C17 1.378 . S
C17 C16 1.378 . S
C17 C18 1.378 . S
C18 H3 0.940 . S
C18 C17 1.378 . S
C18 C19 1.396 . S
C19 H4 0.940 . S
C19 C14 1.391 . S
C19 C18 1.396 . S
C20 P0 1.803 . S
C20 C21 1.378 . S
C20 C25 1.400 . S
C21 H5 0.939 . S
C21 C20 1.378 . S
C21 C22 1.361 . S
C22 H6 0.942 . S
C22 C21 1.361 . S
C22 C23 1.369 . S
C23 C22 1.369 . S
C23 C24 1.404 . S
C24 H7 0.940 . S
C24 C23 1.404 . S
C24 C25 1.389 . S
C25 H8 0.939 . S
C25 C20 1.400 . S
C25 C24 1.389 . S
C26 P0 1.819 . S
C26 C27 1.391 . S
C26 C31 1.391 . S
C27 H9 0.941 . S
C27 C26 1.391 . S
C27 C28 1.396 . S
C28 H12 0.939 . S
C28 C27 1.396 . S
C28 C29 1.397 . S
C29 C28 1.397 . S
C29 C30 1.385 . S
C30 H13 0.940 . S
C30 C29 1.385 . S
C30 C31 1.388 . S
C31 H10 0.939 . S
C31 C26 1.391 . S
C31 C30 1.388 . S
P32 O43 1.490 . S
P32 C46 1.812 . S
P32 C52 1.803 . S
P32 C58 1.819 . S
H33 C47 0.941 . S
H34 C48 0.939 . S
H35 C50 0.940 . S
H36 C51 0.940 . S
H37 C53 0.939 . S
H38 C54 0.942 . S
H39 C56 0.940 . S
H40 C57 0.939 . S
H41 C59 0.941 . S
H42 C63 0.939 . S
O43 P32 1.490 . S
H44 C60 0.939 . S
H45 C62 0.940 . S
C46 P32 1.812 . S
C46 C47 1.389 . S
C46 C51 1.391 . S
C47 H33 0.941 . S
C47 C46 1.389 . S
C47 C48 1.397 . S
C48 H34 0.939 . S
C48 C47 1.397 . S
C48 C49 1.378 . S
C49 C48 1.378 . S
C49 C50 1.378 . S
C50 H35 0.940 . S
C50 C49 1.378 . S
C50 C51 1.396 . S
C51 H36 0.940 . S
C51 C46 1.391 . S
C51 C50 1.396 . S
C52 P32 1.803 . S
C52 C53 1.378 . S
C52 C57 1.400 . S
C53 H37 0.939 . S
C53 C52 1.378 . S
C53 C54 1.361 . S
C54 H38 0.942 . S
C54 C53 1.361 . S
C54 C55 1.369 . S
C55 C54 1.369 . S
C55 C56 1.404 . S
C56 H39 0.940 . S
C56 C55 1.404 . S
C56 C57 1.389 . S
C57 H40 0.939 . S
C57 C52 1.400 . S
C57 C56 1.389 . S
C58 P32 1.819 . S
C58 C59 1.391 . S
C58 C63 1.391 . S
C59 H41 0.941 . S
C59 C58 1.391 . S
C59 C60 1.396 . S
C60 H44 0.939 . S
C60 C59 1.396 . S
C60 C61 1.397 . S
C61 C60 1.397 . S
C61 C62 1.385 . S
C62 H45 0.940 . S
C62 C61 1.385 . S
C62 C63 1.388 . S
C63 H42 0.939 . S
C63 C58 1.391 . S
C63 C62 1.388 . S
P64 O75 1.490 . S
P64 C78 1.812 . S
P64 C84 1.803 . S
P64 C90 1.819 . S
H65 C79 0.941 . S
H66 C80 0.939 . S
H67 C82 0.940 . S
H68 C83 0.940 . S
H69 C85 0.939 . S
H70 C86 0.942 . S
H71 C88 0.940 . S
H72 C89 0.939 . S
H73 C91 0.941 . S
H74 C95 0.939 . S
O75 P64 1.490 . S
H76 C92 0.939 . S
H77 C94 0.940 . S
C78 P64 1.812 . S
C78 C79 1.389 . S
C78 C83 1.391 . S
C79 H65 0.941 . S
C79 C78 1.389 . S
C79 C80 1.397 . S
C80 H66 0.939 . S
C80 C79 1.397 . S
C80 C81 1.378 . S
C81 C80 1.378 . S
C81 C82 1.378 . S
C82 H67 0.940 . S
C82 C81 1.378 . S
C82 C83 1.396 . S
C83 H68 0.940 . S
C83 C78 1.391 . S
C83 C82 1.396 . S
C84 P64 1.803 . S
C84 C85 1.378 . S
C84 C89 1.400 . S
C85 H69 0.939 . S
C85 C84 1.378 . S
C85 C86 1.361 . S
C86 H70 0.942 . S
C86 C85 1.361 . S
C86 C87 1.369 . S
C87 C86 1.369 . S
C87 C88 1.404 . S
C88 H71 0.940 . S
C88 C87 1.404 . S
C88 C89 1.389 . S
C89 H72 0.939 . S
C89 C84 1.400 . S
C89 C88 1.389 . S
C90 P64 1.819 . S
C90 C91 1.391 . S
C90 C95 1.391 . S
C91 H73 0.941 . S
C91 C90 1.391 . S
C91 C92 1.396 . S
C92 H76 0.939 . S
C92 C91 1.396 . S
C92 C93 1.397 . S
C93 C92 1.397 . S
C93 C94 1.385 . S
C94 H77 0.940 . S
C94 C93 1.385 . S
C94 C95 1.388 . S
C95 H74 0.939 . S
C95 C90 1.391 . S
C95 C94 1.388 . S
P96 O107 1.490 . S
P96 C110 1.812 . S
P96 C116 1.803 . S
P96 C122 1.819 . S
H97 C111 0.941 . S
H98 C112 0.939 . S
H99 C114 0.940 . S
H100 C115 0.940 . S
H101 C117 0.939 . S
H102 C118 0.942 . S
H103 C120 0.940 . S
H104 C121 0.939 . S
H105 C123 0.941 . S
H106 C127 0.939 . S
O107 P96 1.490 . S
H108 C124 0.939 . S
H109 C126 0.940 . S
C110 P96 1.812 . S
C110 C111 1.389 . S
C110 C115 1.391 . S
C111 H97 0.941 . S
C111 C110 1.389 . S
C111 C112 1.397 . S
C112 H98 0.939 . S
C112 C111 1.397 . S
C112 C113 1.378 . S
C113 C112 1.378 . S
C113 C114 1.378 . S
C114 H99 0.940 . S
C114 C113 1.378 . S
C114 C115 1.396 . S
C115 H100 0.940 . S
C115 C110 1.391 . S
C115 C114 1.396 . S
C116 P96 1.803 . S
C116 C117 1.378 . S
C116 C121 1.400 . S
C117 H101 0.939 . S
C117 C116 1.378 . S
C117 C118 1.361 . S
C118 H102 0.942 . S
C118 C117 1.361 . S
C118 C119 1.369 . S
C119 C118 1.369 . S
C119 C120 1.404 . S
C120 H103 0.940 . S
C120 C119 1.404 . S
C120 C121 1.389 . S
C121 H104 0.939 . S
C121 C116 1.400 . S
C121 C120 1.389 . S
C122 P96 1.819 . S
C122 C123 1.391 . S
C122 C127 1.391 . S
C123 H105 0.941 . S
C123 C122 1.391 . S
C123 C124 1.396 . S
C124 H108 0.939 . S
C124 C123 1.396 . S
C124 C125 1.397 . S
C125 C124 1.397 . S
C125 C126 1.385 . S
C126 H109 0.940 . S
C126 C125 1.385 . S
C126 C127 1.388 . S
C127 H106 0.939 . S
C127 C122 1.391 . S
C127 C126 1.388 . S
P128 O139 1.490 . S
P128 C142 1.812 . S
P128 C148 1.803 . S
P128 C154 1.819 . S
H129 C143 0.941 . S
H130 C144 0.939 . S
H131 C146 0.940 . S
H132 C147 0.940 . S
H133 C149 0.939 . S
H134 C150 0.942 . S
H135 C152 0.940 . S
H136 C153 0.939 . S
H137 C155 0.941 . S
H138 C159 0.939 . S
O139 P128 1.490 . S
H140 C156 0.939 . S
H141 C158 0.940 . S
C142 P128 1.812 . S
C142 C143 1.389 . S
C142 C147 1.391 . S
C143 H129 0.941 . S
C143 C142 1.389 . S
C143 C144 1.397 . S
C144 H130 0.939 . S
C144 C143 1.397 . S
C144 C145 1.378 . S
C145 C144 1.378 . S
C145 C146 1.378 . S
C146 H131 0.940 . S
C146 C145 1.378 . S
C146 C147 1.396 . S
C147 H132 0.940 . S
C147 C142 1.391 . S
C147 C146 1.396 . S
C148 P128 1.803 . S
C148 C149 1.378 . S
C148 C153 1.400 . S
C149 H133 0.939 . S
C149 C148 1.378 . S
C149 C150 1.361 . S
C150 H134 0.942 . S
C150 C149 1.361 . S
C150 C151 1.369 . S
C151 C150 1.369 . S
C151 C152 1.404 . S
C152 H135 0.940 . S
C152 C151 1.404 . S
C152 C153 1.389 . S
C153 H136 0.939 . S
C153 C148 1.400 . S
C153 C152 1.389 . S
C154 P128 1.819 . S
C154 C155 1.391 . S
C154 C159 1.391 . S
C155 H137 0.941 . S
C155 C154 1.391 . S
C155 C156 1.396 . S
C156 H140 0.939 . S
C156 C155 1.396 . S
C156 C157 1.397 . S
C157 C156 1.397 . S
C157 C158 1.385 . S
C158 H141 0.940 . S
C158 C157 1.385 . S
C158 C159 1.388 . S
C159 H138 0.939 . S
C159 C154 1.391 . S
C159 C158 1.388 . S
P160 O171 1.490 . S
P160 C174 1.812 . S
P160 C180 1.803 . S
P160 C186 1.819 . S
H161 C175 0.941 . S
H162 C176 0.939 . S
H163 C178 0.940 . S
H164 C179 0.940 . S
H165 C181 0.939 1_455 S
H166 C182 0.942 . S
H167 C184 0.940 . S
H168 C185 0.939 . S
H169 C187 0.941 . S
H170 C191 0.939 . S
O171 P160 1.490 . S
H172 C188 0.939 . S
H173 C190 0.940 . S
C174 P160 1.812 . S
C174 C175 1.389 . S
C174 C179 1.391 . S
C175 H161 0.941 . S
C175 C174 1.389 . S
C175 C176 1.397 . S
C176 H162 0.939 . S
C176 C175 1.397 . S
C176 C177 1.378 . S
C177 C176 1.378 . S
C177 C178 1.378 . S
C178 H163 0.940 . S
C178 C177 1.378 . S
C178 C179 1.396 . S
C179 H164 0.940 . S
C179 C174 1.391 . S
C179 C178 1.396 . S
C180 P160 1.803 . S
C180 C181 1.378 . S
C180 C185 1.400 . S
C181 H165 0.939 1_655 S
C181 C180 1.378 . S
C181 C182 1.361 1_655 S
C182 H166 0.942 . S
C182 C181 1.361 1_455 S
C182 C183 1.369 1_455 S
C183 C182 1.369 1_655 S
C183 C184 1.404 . S
C184 H167 0.940 . S
C184 C183 1.404 . S
C184 C185 1.389 . S
C185 H168 0.939 . S
C185 C180 1.400 . S
C185 C184 1.389 . S
C186 P160 1.819 . S
C186 C187 1.391 . S
C186 C191 1.391 . S
C187 H169 0.941 . S
C187 C186 1.391 . S
C187 C188 1.396 . S
C188 H172 0.939 . S
C188 C187 1.396 . S
C188 C189 1.397 . S
C189 C188 1.397 . S
C189 C190 1.385 . S
C190 H173 0.940 . S
C190 C189 1.385 . S
C190 C191 1.388 . S
C191 H170 0.939 . S
C191 C186 1.391 . S
C191 C190 1.388 . S
P192 O203 1.490 . S
P192 C206 1.812 . S
P192 C212 1.803 . S
P192 C218 1.819 . S
H193 C207 0.941 . S
H194 C208 0.939 . S
H195 C210 0.940 . S
H196 C211 0.940 . S
H197 C213 0.939 . S
H198 C214 0.942 . S
H199 C216 0.940 . S
H200 C217 0.939 . S
H201 C219 0.941 . S
H202 C223 0.939 . S
O203 P192 1.490 . S
H204 C220 0.939 . S
H205 C222 0.940 . S
C206 P192 1.812 . S
C206 C207 1.389 . S
C206 C211 1.391 . S
C207 H193 0.941 . S
C207 C206 1.389 . S
C207 C208 1.397 . S
C208 H194 0.939 . S
C208 C207 1.397 . S
C208 C209 1.378 . S
C209 C208 1.378 . S
C209 C210 1.378 . S
C210 H195 0.940 . S
C210 C209 1.378 . S
C210 C211 1.396 . S
C211 H196 0.940 . S
C211 C206 1.391 . S
C211 C210 1.396 . S
C212 P192 1.803 . S
C212 C213 1.378 . S
C212 C217 1.400 . S
C213 H197 0.939 . S
C213 C212 1.378 . S
C213 C214 1.361 . S
C214 H198 0.942 . S
C214 C213 1.361 . S
C214 C215 1.369 . S
C215 C214 1.369 . S
C215 C216 1.404 . S
C216 H199 0.940 . S
C216 C215 1.404 . S
C216 C217 1.389 . S
C217 H200 0.939 . S
C217 C212 1.400 . S
C217 C216 1.389 . S
C218 P192 1.819 . S
C218 C219 1.391 . S
C218 C223 1.391 . S
C219 H201 0.941 . S
C219 C218 1.391 . S
C219 C220 1.396 . S
C220 H204 0.939 . S
C220 C219 1.396 . S
C220 C221 1.397 . S
C221 C220 1.397 . S
C221 C222 1.385 . S
C222 H205 0.940 . S
C222 C221 1.385 . S
C222 C223 1.388 . S
C223 H202 0.939 . S
C223 C218 1.391 . S
C223 C222 1.388 . S
P224 O235 1.490 . S
P224 C238 1.812 . S
P224 C244 1.803 . S
P224 C250 1.819 . S
H225 C239 0.941 . S
H226 C240 0.939 . S
H227 C242 0.940 . S
H228 C243 0.940 . S
H229 C245 0.939 . S
H230 C246 0.942 . S
H231 C248 0.940 . S
H232 C249 0.939 . S
H233 C251 0.941 . S
H234 C255 0.939 . S
O235 P224 1.490 . S
H236 C252 0.939 . S
H237 C254 0.940 . S
C238 P224 1.812 . S
C238 C239 1.389 . S
C238 C243 1.391 . S
C239 H225 0.941 . S
C239 C238 1.389 . S
C239 C240 1.397 . S
C240 H226 0.939 . S
C240 C239 1.397 . S
C240 C241 1.378 . S
C241 C240 1.378 . S
C241 C242 1.378 . S
C242 H227 0.940 . S
C242 C241 1.378 . S
C242 C243 1.396 . S
C243 H228 0.940 . S
C243 C238 1.391 . S
C243 C242 1.396 . S
C244 P224 1.803 . S
C244 C245 1.378 . S
C244 C249 1.400 . S
C245 H229 0.939 . S
C245 C244 1.378 . S
C245 C246 1.361 . S
C246 H230 0.942 . S
C246 C245 1.361 . S
C246 C247 1.369 . S
C247 C246 1.369 . S
C247 C248 1.404 . S
C248 H231 0.940 . S
C248 C247 1.404 . S
C248 C249 1.389 . S
C249 H232 0.939 . S
C249 C244 1.400 . S
C249 C248 1.389 . S
C250 P224 1.819 . S
C250 C251 1.391 . S
C250 C255 1.391 . S
C251 H233 0.941 . S
C251 C250 1.391 . S
C251 C252 1.396 . S
C252 H236 0.939 . S
C252 C251 1.396 . S
C252 C253 1.397 . S
C253 C252 1.397 . S
C253 C254 1.385 . S
C254 H237 0.940 . S
C254 C253 1.385 . S
C254 C255 1.388 . S
C255 H234 0.939 . S
C255 C250 1.391 . S
C255 C254 1.388 . S
Tb256 C258 2.817 . S
Tb256 O276 2.497 . S
Tb256 O277 2.442 . S
Tb256 O278 2.654 1_665 S
Tb256 O279 2.399 1_565 S
Tb256 O280 2.387 1_655 S
Tb256 O284 2.335 . S
Tb256 O287 2.333 1_565 S
Tb257 C267 2.809 . S
Tb257 O278 2.325 . S
Tb257 O281 2.341 1_545 S
Tb257 O282 2.484 . S
Tb257 O283 2.440 . S
Tb257 O284 2.658 1_445 S
Tb257 O285 2.409 1_545 S
Tb257 O286 2.378 . S
C258 Tb256 2.817 . S
C258 C259 1.514 . S
C258 O276 1.248 . S
C258 O277 1.266 . S
C259 C258 1.514 . S
C259 C260 1.359 . S
C259 C264 1.348 . S
C260 C259 1.359 . S
C260 C261 1.380 . S
C260 H288 0.929 . S
C261 C260 1.380 . S
C261 C262 1.347 . S
C261 H289 0.931 . S
C262 C261 1.347 . S
C262 C263 1.369 . S
C263 C262 1.369 . S
C263 C264 1.408 . S
C263 H290 0.930 . S
C264 C259 1.348 . S
C264 C263 1.408 . S
C264 H291 0.930 . S
C265 O278 1.281 . S
C265 O279 1.254 1_455 S
C266 O280 1.236 . S
C266 O281 1.266 . S
C267 Tb257 2.809 . S
C267 C268 1.514 . S
C267 O282 1.248 . S
C267 O283 1.266 . S
C268 C267 1.514 . S
C268 C269 1.359 . S
C268 C273 1.348 . S
C269 C268 1.359 . S
C269 C270 1.380 . S
C269 H292 0.929 . S
C270 C269 1.380 . S
C270 C271 1.347 . S
C270 H293 0.931 . S
C271 C270 1.347 . S
C271 C272 1.369 . S
C272 C271 1.369 . S
C272 C273 1.408 . S
C272 H294 0.930 . S
C273 C268 1.348 . S
C273 C272 1.408 . S
C273 H295 0.930 . S
C274 O284 1.281 . S
C274 O285 1.254 1_655 S
C275 O286 1.236 1_655 S
C275 O287 1.266 . S
O276 Tb256 2.497 . S
O276 C258 1.248 . S
O277 Tb256 2.442 . S
O277 C258 1.266 . S
O278 Tb256 2.654 1_445 S
O278 Tb257 2.325 . S
O278 C265 1.281 . S
O279 Tb256 2.399 1_545 S
O279 C265 1.254 1_655 S
O280 Tb256 2.387 1_455 S
O280 C266 1.236 . S
O281 Tb257 2.341 1_565 S
O281 C266 1.266 . S
O282 Tb257 2.484 . S
O282 C267 1.248 . S
O283 Tb257 2.440 . S
O283 C267 1.266 . S
O284 Tb256 2.335 . S
O284 Tb257 2.658 1_665 S
O284 C274 1.281 . S
O285 Tb257 2.409 1_565 S
O285 C274 1.254 1_455 S
O286 Tb257 2.378 . S
O286 C275 1.236 1_455 S
O287 Tb256 2.333 1_545 S
O287 C275 1.266 . S
H288 C260 0.929 . S
H289 C261 0.931 . S
H290 C263 0.930 . S
H291 C264 0.930 . S
H292 C269 0.929 . S
H293 C270 0.931 . S
H294 C272 0.930 . S
H295 C273 0.930 . S
Tb296 C298 2.809 . S
Tb296 O316 2.484 . S
Tb296 O317 2.440 . S
Tb296 O318 2.658 1_545 S
Tb296 O319 2.409 1_545 S
Tb296 O320 2.378 . S
Tb296 O324 2.325 1_554 S
Tb296 O327 2.341 1_544 S
Tb297 C307 2.800 1_545 S
Tb297 O318 2.316 1_546 S
Tb297 O321 2.350 1_556 S
Tb297 O322 2.472 1_545 S
Tb297 O323 2.438 1_545 S
Tb297 O324 2.664 . S
Tb297 O325 2.418 . S
Tb297 O326 2.370 1_545 S
C298 Tb296 2.809 . S
C298 C299 1.514 . S
C298 O316 1.248 . S
C298 O317 1.266 . S
C299 C298 1.514 . S
C299 C300 1.359 . S
C299 C304 1.348 . S
C300 C299 1.359 . S
C300 C301 1.380 . S
C300 H328 0.929 . S
C301 C300 1.380 . S
C301 C302 1.347 . S
C301 H329 0.931 . S
C302 C301 1.347 . S
C302 C303 1.369 . S
C303 C302 1.369 . S
C303 C304 1.408 . S
C303 H330 0.930 . S
C304 C299 1.348 . S
C304 C303 1.408 . S
C304 H331 0.930 . S
C305 O318 1.281 . S
C305 O319 1.254 . S
C306 O320 1.236 . S
C306 O321 1.266 . S
C307 Tb297 2.800 1_565 S
C307 C308 1.514 . S
C307 O322 1.248 . S
C307 O323 1.266 . S
C308 C307 1.514 . S
C308 C309 1.359 . S
C308 C313 1.348 . S
C309 C308 1.359 . S
C309 C310 1.380 . S
C309 H332 0.929 . S
C310 C309 1.380 . S
C310 C311 1.347 . S
C310 H333 0.931 . S
C311 C310 1.347 . S
C311 C312 1.369 . S
C312 C311 1.369 . S
C312 C313 1.408 . S
C312 H334 0.930 . S
C313 C308 1.348 . S
C313 C312 1.408 . S
C313 H335 0.930 . S
C314 O324 1.281 . S
C314 O325 1.254 . S
C315 O326 1.236 . S
C315 O327 1.266 . S
O316 Tb296 2.484 . S
O316 C298 1.248 . S
O317 Tb296 2.440 . S
O317 C298 1.266 . S
O318 Tb296 2.658 1_565 S
O318 Tb297 2.316 1_564 S
O318 C305 1.281 . S
O319 Tb296 2.409 1_565 S
O319 C305 1.254 . S
O320 Tb296 2.378 . S
O320 C306 1.236 . S
O321 Tb297 2.350 1_554 S
O321 C306 1.266 . S
O322 Tb297 2.472 1_565 S
O322 C307 1.248 . S
O323 Tb297 2.438 1_565 S
O323 C307 1.266 . S
O324 Tb296 2.325 1_556 S
O324 Tb297 2.664 . S
O324 C314 1.281 . S
O325 Tb297 2.418 . S
O325 C314 1.254 . S
O326 Tb297 2.370 1_565 S
O326 C315 1.236 . S
O327 Tb296 2.341 1_566 S
O327 C315 1.266 . S
H328 C300 0.929 . S
H329 C301 0.931 . S
H330 C303 0.930 . S
H331 C304 0.930 . S
H332 C309 0.929 . S
H333 C310 0.931 . S
H334 C312 0.930 . S
H335 C313 0.930 . S
Tb336 C338 2.809 . S
Tb336 O356 2.484 . S
Tb336 O357 2.440 . S
Tb336 O358 2.658 . S
Tb336 O359 2.409 . S
Tb336 O360 2.378 . S
Tb336 O364 2.325 . S
Tb336 O367 2.341 . S
Tb337 C347 2.809 . S
Tb337 O358 2.325 . S
Tb337 O361 2.341 . S
Tb337 O362 2.484 . S
Tb337 O363 2.440 . S
Tb337 O364 2.658 . S
Tb337 O365 2.409 . S
Tb337 O366 2.378 . S
C338 Tb336 2.809 . S
C338 C339 1.514 . S
C338 O356 1.248 . S
C338 O357 1.266 . S
C339 C338 1.514 . S
C339 C340 1.359 . S
C339 C344 1.348 . S
C340 C339 1.359 . S
C340 C341 1.380 . S
C340 H368 0.929 . S
C341 C340 1.380 . S
C341 C342 1.347 . S
C341 H369 0.931 . S
C342 C341 1.347 . S
C342 C343 1.369 . S
C343 C342 1.369 . S
C343 C344 1.408 . S
C343 H370 0.930 . S
C344 C339 1.348 . S
C344 C343 1.408 . S
C344 H371 0.930 . S
C345 O358 1.281 . S
C345 O359 1.254 . S
C346 O360 1.236 . S
C346 O361 1.266 . S
C347 Tb337 2.809 . S
C347 C348 1.514 . S
C347 O362 1.248 . S
C347 O363 1.266 . S
C348 C347 1.514 . S
C348 C349 1.359 . S
C348 C353 1.348 . S
C349 C348 1.359 . S
C349 C350 1.380 . S
C349 H372 0.929 . S
C350 C349 1.380 . S
C350 C351 1.347 . S
C350 H373 0.931 . S
C351 C350 1.347 . S
C351 C352 1.369 . S
C352 C351 1.369 . S
C352 C353 1.408 . S
C352 H374 0.930 . S
C353 C348 1.348 . S
C353 C352 1.408 . S
C353 H375 0.930 . S
C354 O364 1.281 . S
C354 O365 1.254 . S
C355 O366 1.236 . S
C355 O367 1.266 . S
O356 Tb336 2.484 . S
O356 C338 1.248 . S
O357 Tb336 2.440 . S
O357 C338 1.266 . S
O358 Tb336 2.658 . S
O358 Tb337 2.325 . S
O358 C345 1.281 . S
O359 Tb336 2.409 . S
O359 C345 1.254 . S
O360 Tb336 2.378 . S
O360 C346 1.236 . S
O361 Tb337 2.341 . S
O361 C346 1.266 . S
O362 Tb337 2.484 . S
O362 C347 1.248 . S
O363 Tb337 2.440 . S
O363 C347 1.266 . S
O364 Tb336 2.325 . S
O364 Tb337 2.658 . S
O364 C354 1.281 . S
O365 Tb337 2.409 . S
O365 C354 1.254 . S
O366 Tb337 2.378 . S
O366 C355 1.236 . S
O367 Tb336 2.341 . S
O367 C355 1.266 . S
H368 C340 0.929 . S
H369 C341 0.931 . S
H370 C343 0.930 . S
H371 C344 0.930 . S
H372 C349 0.929 . S
H373 C350 0.931 . S
H374 C352 0.930 . S
H375 C353 0.930 . S
Tb376 C378 2.809 . S
Tb376 O396 2.484 . S
Tb376 O397 2.440 . S
Tb376 O398 2.658 1_656 S
Tb376 O399 2.409 1_656 S
Tb376 O400 2.378 1_556 S
Tb376 O404 2.325 . S
Tb376 O407 2.341 1_655 S
Tb377 C387 2.809 . S
Tb377 O398 2.325 . S
Tb377 O401 2.341 1_455 S
Tb377 O402 2.484 . S
Tb377 O403 2.440 . S
Tb377 O404 2.658 1_454 S
Tb377 O405 2.417 1_455 S
Tb377 O406 2.378 1_554 S
C378 Tb376 2.809 . S
C378 C379 1.514 . S
C378 O396 1.248 . S
C378 O397 1.266 . S
C379 C378 1.514 . S
C379 C380 1.359 . S
C379 C384 1.348 . S
C380 C379 1.359 . S
C380 C381 1.380 . S
C380 H408 0.929 . S
C381 C380 1.380 . S
C381 C382 1.347 . S
C381 H409 0.931 . S
C382 C381 1.347 . S
C382 C383 1.369 . S
C383 C382 1.369 . S
C383 C384 1.408 . S
C383 H410 0.930 . S
C384 C379 1.348 . S
C384 C383 1.408 . S
C384 H411 0.930 . S
C385 O398 1.281 . S
C385 O399 1.254 . S
C386 O400 1.236 . S
C386 O401 1.266 . S
C387 Tb377 2.809 . S
C387 C388 1.514 . S
C387 O402 1.248 . S
C387 O403 1.266 . S
C388 C387 1.514 . S
C388 C389 1.359 . S
C388 C393 1.348 . S
C389 C388 1.359 . S
C389 C390 1.380 . S
C389 H412 0.929 . S
C390 C389 1.380 . S
C390 C391 1.347 . S
C390 H413 0.931 . S
C391 C390 1.347 . S
C391 C392 1.369 . S
C392 C391 1.369 . S
C392 C393 1.408 . S
C392 H414 0.930 . S
C393 C388 1.348 . S
C393 C392 1.408 . S
C393 H415 0.930 . S
C394 O404 1.281 . S
C394 O405 1.245 1_556 S
C395 O406 1.236 . S
C395 O407 1.266 . S
O396 Tb376 2.484 . S
O396 C378 1.248 . S
O397 Tb376 2.440 . S
O397 C378 1.266 . S
O398 Tb376 2.658 1_454 S
O398 Tb377 2.325 . S
O398 C385 1.281 . S
O399 Tb376 2.409 1_454 S
O399 C385 1.254 . S
O400 Tb376 2.378 1_554 S
O400 C386 1.236 . S
O401 Tb377 2.341 1_655 S
O401 C386 1.266 . S
O402 Tb377 2.484 . S
O402 C387 1.248 . S
O403 Tb377 2.440 . S
O403 C387 1.266 . S
O404 Tb376 2.325 . S
O404 Tb377 2.658 1_656 S
O404 C394 1.281 . S
O405 Tb377 2.417 1_655 S
O405 C394 1.245 1_554 S
O406 Tb377 2.378 1_556 S
O406 C395 1.236 . S
O407 Tb376 2.341 1_455 S
O407 C395 1.266 . S
H408 C380 0.929 . S
H409 C381 0.931 . S
H410 C383 0.930 . S
H411 C384 0.930 . S
H412 C389 0.929 . S
H413 C390 0.931 . S
H414 C392 0.930 . S
H415 C393 0.930 . S
C416 C417 1.387 . S
C416 H420 0.950 . S
C416 C425 1.390 . S
C417 C416 1.387 . S
C417 C419 1.387 . S
H418 C425 0.950 . S
C419 C417 1.387 . S
C419 C421 1.390 . S
C419 H423 0.950 . S
H420 C416 0.950 . S
C421 C419 1.390 . S
C421 C422 1.387 . S
C421 H424 0.950 . S
C422 C421 1.387 . S
C422 C425 1.387 . S
H423 C419 0.950 . S
H424 C421 0.950 . S
C425 C416 1.390 . S
C425 H418 0.950 . S
C425 C422 1.387 . S
C426 C427 1.387 . S
C426 H430 0.950 . S
C426 C435 1.390 . S
C427 C426 1.387 . S
C427 C429 1.387 . S
H428 C435 0.950 . S
C429 C427 1.387 . S
C429 C431 1.390 . S
C429 H433 0.950 . S
H430 C426 0.950 . S
C431 C429 1.390 . S
C431 C432 1.387 . S
C431 H434 0.950 . S
C432 C431 1.387 . S
C432 C435 1.387 . S
H433 C429 0.950 . S
H434 C431 0.950 . S
C435 C426 1.390 . S
C435 H428 0.950 . S
C435 C432 1.387 . S
C436 C437 1.387 . S
C436 H440 0.950 . S
C436 C445 1.390 . S
C437 C436 1.387 . S
C437 C439 1.387 . S
H438 C445 0.950 . S
C439 C437 1.387 . S
C439 C441 1.390 . S
C439 H443 0.950 . S
H440 C436 0.950 . S
C441 C439 1.390 . S
C441 C442 1.387 . S
C441 H444 0.950 . S
C442 C441 1.387 . S
C442 C445 1.387 . S
H443 C439 0.950 . S
H444 C441 0.950 . S
C445 C436 1.390 . S
C445 H438 0.950 . S
C445 C442 1.387 . S
C446 C447 1.387 . S
C446 H450 0.950 . S
C446 C455 1.390 . S
C447 C446 1.387 . S
C447 C449 1.387 . S
H448 C455 0.950 . S
C449 C447 1.387 . S
C449 C451 1.390 . S
C449 H453 0.950 . S
H450 C446 0.950 . S
C451 C449 1.390 . S
C451 C452 1.387 . S
C451 H454 0.950 . S
C452 C451 1.387 . S
C452 C455 1.387 . S
H453 C449 0.950 . S
H454 C451 0.950 . S
C455 C446 1.390 . S
C455 H448 0.950 . S
C455 C452 1.387 . S
C456 C457 1.387 . S
C456 H460 0.950 . S
C456 C465 1.390 . S
C457 C456 1.387 . S
C457 C459 1.387 . S
H458 C465 0.950 . S
C459 C457 1.387 . S
C459 C461 1.390 . S
C459 H463 0.950 . S
H460 C456 0.950 . S
C461 C459 1.390 . S
C461 C462 1.387 . S
C461 H464 0.950 . S
C462 C461 1.387 . S
C462 C465 1.387 . S
H463 C459 0.950 . S
H464 C461 0.950 . S
C465 C456 1.390 . S
C465 H458 0.950 . S
C465 C462 1.387 . S
C466 C467 1.387 . S
C466 H470 0.950 . S
C466 C475 1.390 . S
C467 C466 1.387 . S
C467 C469 1.387 1_455 S
H468 C475 0.950 . S
C469 C467 1.387 1_655 S
C469 C471 1.390 . S
C469 H473 0.950 . S
H470 C466 0.950 . S
C471 C469 1.390 . S
C471 C472 1.387 1_655 S
C471 H474 0.950 . S
C472 C471 1.387 1_455 S
C472 C475 1.387 . S
H473 C469 0.950 . S
H474 C471 0.950 . S
C475 C466 1.390 . S
C475 H468 0.950 . S
C475 C472 1.387 . S
C476 C477 1.387 . S
C476 H480 0.950 . S
C476 C485 1.390 . S
C477 C476 1.387 . S
C477 C479 1.387 . S
H478 C485 0.950 . S
C479 C477 1.387 . S
C479 C481 1.390 . S
C479 H483 0.950 . S
H480 C476 0.950 . S
C481 C479 1.390 . S
C481 C482 1.387 . S
C481 H484 0.950 . S
C482 C481 1.387 . S
C482 C485 1.387 . S
H483 C479 0.950 . S
H484 C481 0.950 . S
C485 C476 1.390 . S
C485 H478 0.950 . S
C485 C482 1.387 . S
C486 C487 1.387 . S
C486 H490 0.950 . S
C486 C495 1.390 . S
C487 C486 1.387 . S
C487 C489 1.387 . S
H488 C495 0.950 . S
C489 C487 1.387 . S
C489 C491 1.390 . S
C489 H493 0.950 . S
H490 C486 0.950 . S
C491 C489 1.390 . S
C491 C492 1.387 . S
C491 H494 0.950 . S
C492 C491 1.387 . S
C492 C495 1.387 . S
H493 C489 0.950 . S
H494 C491 0.950 . S
C495 C486 1.390 . S
C495 H488 0.950 . S
C495 C492 1.387 . S
C496 C497 1.387 . S
C496 H500 0.950 . S
C496 C505 1.390 . S
C497 C496 1.387 . S
C497 C499 1.387 . S
H498 C505 0.950 . S
C499 C497 1.387 . S
C499 C501 1.390 . S
C499 H503 0.950 . S
H500 C496 0.950 . S
C501 C499 1.390 . S
C501 C502 1.387 . S
C501 H504 0.950 . S
C502 C501 1.387 . S
C502 C505 1.387 . S
H503 C499 0.950 . S
H504 C501 0.950 . S
C505 C496 1.390 . S
C505 H498 0.950 . S
C505 C502 1.387 . S
C506 C507 1.387 . S
C506 H510 0.950 . S
C506 C515 1.390 . S
C507 C506 1.387 . S
C507 C509 1.387 . S
H508 C515 0.950 . S
C509 C507 1.387 . S
C509 C511 1.390 . S
C509 H513 0.950 . S
H510 C506 0.950 . S
C511 C509 1.390 . S
C511 C512 1.387 . S
C511 H514 0.950 . S
C512 C511 1.387 . S
C512 C515 1.387 . S
H513 C509 0.950 . S
H514 C511 0.950 . S
C515 C506 1.390 . S
C515 H508 0.950 . S
C515 C512 1.387 . S
C516 C517 1.387 . S
C516 H520 0.950 . S
C516 C525 1.390 . S
C517 C516 1.387 . S
C517 C519 1.387 . S
H518 C525 0.950 . S
C519 C517 1.387 . S
C519 C521 1.390 . S
C519 H523 0.950 . S
H520 C516 0.950 . S
C521 C519 1.390 . S
C521 C522 1.387 . S
C521 H524 0.950 . S
C522 C521 1.387 . S
C522 C525 1.387 . S
H523 C519 0.950 . S
H524 C521 0.950 . S
C525 C516 1.390 . S
C525 H518 0.950 . S
C525 C522 1.387 . S
C526 C527 1.387 . S
C526 H530 0.950 . S
C526 C535 1.390 . S
C527 C526 1.387 . S
C527 C529 1.387 . S
H528 C535 0.950 . S
C529 C527 1.387 . S
C529 C531 1.390 . S
C529 H533 0.950 . S
H530 C526 0.950 . S
C531 C529 1.390 . S
C531 C532 1.387 . S
C531 H534 0.950 . S
C532 C531 1.387 . S
C532 C535 1.387 . S
H533 C529 0.950 . S
H534 C531 0.950 . S
C535 C526 1.390 . S
C535 H528 0.950 . S
C535 C532 1.387 . S
C536 C537 1.387 . S
C536 H540 0.950 . S
C536 C545 1.390 . S
C537 C536 1.387 . S
C537 C539 1.387 . S
H538 C545 0.950 . S
C539 C537 1.387 . S
C539 C541 1.390 . S
C539 H543 0.950 . S
H540 C536 0.950 . S
C541 C539 1.390 . S
C541 C542 1.387 . S
C541 H544 0.950 . S
C542 C541 1.387 . S
C542 C545 1.387 . S
H543 C539 0.950 . S
H544 C541 0.950 . S
C545 C536 1.390 . S
C545 H538 0.950 . S
C545 C542 1.387 . S
C546 C547 1.387 . S
C546 H550 0.950 . S
C546 C555 1.390 . S
C547 C546 1.387 . S
C547 C549 1.387 . S
H548 C555 0.950 . S
C549 C547 1.387 . S
C549 C551 1.390 . S
C549 H553 0.950 . S
H550 C546 0.950 . S
C551 C549 1.390 . S
C551 C552 1.387 . S
C551 H554 0.950 . S
C552 C551 1.387 . S
C552 C555 1.387 . S
H553 C549 0.950 . S
H554 C551 0.950 . S
C555 C546 1.390 . S
C555 H548 0.950 . S
C555 C552 1.387 . S
C556 C557 1.387 . S
C556 H560 0.950 . S
C556 C565 1.390 . S
C557 C556 1.387 . S
C557 C559 1.387 . S
H558 C565 0.950 . S
C559 C557 1.387 . S
C559 C561 1.390 . S
C559 H563 0.950 . S
H560 C556 0.950 . S
C561 C559 1.390 . S
C561 C562 1.387 . S
C561 H564 0.950 . S
C562 C561 1.387 . S
C562 C565 1.387 . S
H563 C559 0.950 . S
H564 C561 0.950 . S
C565 C556 1.390 . S
C565 H558 0.950 . S
C565 C562 1.387 . S
C566 C567 1.387 . S
C566 H570 0.950 . S
C566 C575 1.390 . S
C567 C566 1.387 . S
C567 C569 1.387 . S
H568 C575 0.950 . S
C569 C567 1.387 . S
C569 C571 1.390 . S
C569 H573 0.950 . S
H570 C566 0.950 . S
C571 C569 1.390 . S
C571 C572 1.387 . S
C571 H574 0.950 . S
C572 C571 1.387 . S
C572 C575 1.387 . S
H573 C569 0.950 . S
H574 C571 0.950 . S
C575 C566 1.390 . S
C575 H568 0.950 . S
C575 C572 1.387 . S
C576 C577 1.387 . S
C576 H580 0.950 . S
C576 C585 1.390 . S
C577 C576 1.387 . S
C577 C579 1.387 . S
H578 C585 0.950 . S
C579 C577 1.387 . S
C579 C581 1.390 . S
C579 H583 0.950 . S
H580 C576 0.950 . S
C581 C579 1.390 . S
C581 C582 1.387 . S
C581 H584 0.950 . S
C582 C581 1.387 . S
C582 C585 1.387 . S
H583 C579 0.950 . S
H584 C581 0.950 . S
C585 C576 1.390 . S
C585 H578 0.950 . S
C585 C582 1.387 . S
C586 C587 1.387 1_455 S
C586 H590 0.950 . S
C586 C595 1.390 . S
C587 C586 1.387 1_655 S
C587 C589 1.387 . S
H588 C595 0.950 . S
C589 C587 1.387 . S
C589 C591 1.390 . S
C589 H593 0.950 . S
H590 C586 0.950 . S
C591 C589 1.390 . S
C591 C592 1.387 . S
C591 H594 0.950 . S
C592 C591 1.387 . S
C592 C595 1.387 1_655 S
H593 C589 0.950 . S
H594 C591 0.950 . S
C595 C586 1.390 . S
C595 H588 0.950 . S
C595 C592 1.387 1_455 S
C596 C597 1.387 . S
C596 H600 0.950 . S
C596 C605 1.390 . S
C597 C596 1.387 . S
C597 C599 1.387 . S
H598 C605 0.950 . S
C599 C597 1.387 . S
C599 C601 1.390 . S
C599 H603 0.950 . S
H600 C596 0.950 . S
C601 C599 1.390 . S
C601 C602 1.387 . S
C601 H604 0.950 . S
C602 C601 1.387 . S
C602 C605 1.387 . S
H603 C599 0.950 . S
H604 C601 0.950 . S
C605 C596 1.390 . S
C605 H598 0.950 . S
C605 C602 1.387 . S
C606 C607 1.387 . S
C606 H610 0.950 . S
C606 C615 1.390 . S
C607 C606 1.387 . S
C607 C609 1.387 . S
H608 C615 0.950 . S
C609 C607 1.387 . S
C609 C611 1.390 . S
C609 H613 0.950 . S
H610 C606 0.950 . S
C611 C609 1.390 . S
C611 C612 1.387 . S
C611 H614 0.950 . S
C612 C611 1.387 . S
C612 C615 1.387 . S
H613 C609 0.950 . S
H614 C611 0.950 . S
C615 C606 1.390 . S
C615 H608 0.950 . S
C615 C612 1.387 . S
C616 C617 1.387 . S
C616 H620 0.950 . S
C616 C625 1.390 . S
C617 C616 1.387 . S
C617 C619 1.387 . S
H618 C625 0.950 . S
C619 C617 1.387 . S
C619 C621 1.390 . S
C619 H623 0.950 . S
H620 C616 0.950 . S
C621 C619 1.390 . S
C621 C622 1.387 . S
C621 H624 0.950 . S
C622 C621 1.387 . S
C622 C625 1.387 . S
H623 C619 0.950 . S
H624 C621 0.950 . S
C625 C616 1.390 . S
C625 H618 0.950 . S
C625 C622 1.387 . S
C626 C627 1.387 . S
C626 H630 0.950 . S
C626 C635 1.390 . S
C627 C626 1.387 . S
C627 C629 1.387 . S
H628 C635 0.950 . S
C629 C627 1.387 . S
C629 C631 1.390 . S
C629 H633 0.950 . S
H630 C626 0.950 . S
C631 C629 1.390 . S
C631 C632 1.387 . S
C631 H634 0.950 . S
C632 C631 1.387 . S
C632 C635 1.387 . S
H633 C629 0.950 . S
H634 C631 0.950 . S
C635 C626 1.390 . S
C635 H628 0.950 . S
C635 C632 1.387 . S
C636 C637 1.387 . S
C636 H640 0.950 . S
C636 C645 1.390 . S
C637 C636 1.387 . S
C637 C639 1.387 . S
H638 C645 0.950 . S
C639 C637 1.387 . S
C639 C641 1.390 . S
C639 H643 0.950 . S
H640 C636 0.950 . S
C641 C639 1.390 . S
C641 C642 1.387 . S
C641 H644 0.950 . S
C642 C641 1.387 . S
C642 C645 1.387 . S
H643 C639 0.950 . S
H644 C641 0.950 . S
C645 C636 1.390 . S
C645 H638 0.950 . S
C645 C642 1.387 . S
C646 C647 1.387 . S
C646 H650 0.950 . S
C646 C655 1.390 . S
C647 C646 1.387 . S
C647 C649 1.387 . S
H648 C655 0.950 . S
C649 C647 1.387 . S
C649 C651 1.390 . S
C649 H653 0.950 . S
H650 C646 0.950 . S
C651 C649 1.390 . S
C651 C652 1.387 . S
C651 H654 0.950 . S
C652 C651 1.387 . S
C652 C655 1.387 . S
H653 C649 0.950 . S
H654 C651 0.950 . S
C655 C646 1.390 . S
C655 H648 0.950 . S
C655 C652 1.387 . S
C417 C29 1.355 . S
C422 C271 1.363 . S
C427 C49 1.106 . S
C432 C311 1.335 . S
C442 C345 2.420 . S
C437 C93 2.422 . S
C447 C119 2.602 . S
C452 C386 2.544 . S
C462 C306 1.491 . S
C457 C17 1.461 . S
C472 C266 2.204 . S
C467 C61 1.808 . S
C482 C394 1.750 . S
C477 C81 1.717 . S
C492 C355 1.896 . S
C487 C125 2.017 . S
C497 C23 1.731 . S
C502 C391 1.642 . S
C512 C314 2.059 . S
C507 C87 2.096 . S
C517 C113 2.467 . S
C522 C274 2.370 . S
C527 C55 1.465 . S
C532 C342 1.703 . S
C542 C262 1.366 . S
C537 C157 1.206 . S
C547 C189 1.432 . S
C552 C302 1.383 . S
C557 C221 2.337 . S
C562 C354 2.387 . S
C567 C253 2.650 . S
C572 C395 2.614 . S
C577 C145 1.353 . S
C582 C315 1.583 . S
C592 C275 2.194 . S
C587 C183 2.121 . S
C602 C385 1.766 . S
C597 C209 1.676 . S
C612 C346 1.877 . S
C607 C247 1.980 . S
C617 C151 1.415 . S
C622 C382 1.639 . S
C632 C305 2.041 . S
C627 C215 2.049 . S
C642 C265 2.367 . S
C637 C241 2.429 . S
C647 C177 1.708 . S
C652 C351 1.705 . S
