# Generated by pormake.
# Topology rtl, (3,6)-cn, num edge types: 1
# Building blocks:
#     Node 0, Type 0, BuildingBlock: BETDIP_clean_linker_0, # of connection points: 3
#     Node 1, Type 0, BuildingBlock: BETDIP_clean_linker_0, # of connection points: 3
#     Node 2, Type 0, BuildingBlock: BETDIP_clean_linker_0, # of connection points: 3
#     Node 3, Type 0, BuildingBlock: BETDIP_clean_linker_0, # of connection points: 3
#     Node 4, Type 1, BuildingBlock: VOLQOD_clean_sbu_1, # of connection points: 6
#     Node 5, Type 1, BuildingBlock: VOLQOD_clean_sbu_1, # of connection points: 6
#     Edge 6, Type (0, 1), BuildingBlock: MIFKUJ_clean_linker_0, # of connection points: 2
#     Edge 7, Type (0, 1), BuildingBlock: MIFKUJ_clean_linker_0, # of connection points: 2
#     Edge 8, Type (0, 1), BuildingBlock: MIFKUJ_clean_linker_0, # of connection points: 2
#     Edge 9, Type (0, 1), BuildingBlock: MIFKUJ_clean_linker_0, # of connection points: 2
#     Edge 10, Type (0, 1), BuildingBlock: MIFKUJ_clean_linker_0, # of connection points: 2
#     Edge 11, Type (0, 1), BuildingBlock: MIFKUJ_clean_linker_0, # of connection points: 2
#     Edge 12, Type (0, 1), BuildingBlock: MIFKUJ_clean_linker_0, # of connection points: 2
#     Edge 13, Type (0, 1), BuildingBlock: MIFKUJ_clean_linker_0, # of connection points: 2
#     Edge 14, Type (0, 1), BuildingBlock: MIFKUJ_clean_linker_0, # of connection points: 2
#     Edge 15, Type (0, 1), BuildingBlock: MIFKUJ_clean_linker_0, # of connection points: 2
#     Edge 16, Type (0, 1), BuildingBlock: MIFKUJ_clean_linker_0, # of connection points: 2
#     Edge 17, Type (0, 1), BuildingBlock: MIFKUJ_clean_linker_0, # of connection points: 2
# Relax obj value: 0.041
# Max RMSD: 0.143
# Mean RMSD: 0.098
data_MOF--net-rtl--node1-VOLQOD_clean_sbu_1--node2-BETDIP_clean_linker_0--edge1-MIFKUJ_clean_linker_0
_symmetry_space_group_name_H-M    P1
_symmetry_Int_Tables_number       1
_symmetry_cell_setting            triclinic
loop_
_symmetry_equiv_pos_as_xyz
'x, y, z'
_cell_length_a     48.633302
_cell_length_b     49.250416
_cell_length_c     28.212191
_cell_angle_alpha  90.904825
_cell_angle_beta   91.293129
_cell_angle_gamma 90.003609
loop_
_atom_site_label
_atom_site_type_symbol
_atom_site_fract_x
_atom_site_fract_y
_atom_site_fract_z
_atom_type_partial_charge
H0 H 0.21645 0.80578 0.92636 0.0
H1 H 0.21769 0.80408 0.07903 0.0
H2 H 0.16181 0.85696 0.00571 0.0
H3 H 0.26264 0.79349 0.06708 0.0
C4 C 0.26108 0.77923 0.03737 0.0
C5 C 0.20868 0.81305 0.95996 0.0
C6 C 0.18796 0.83289 0.9609 0.0
C7 C 0.22012 0.80313 0.00234 0.0
C8 C 0.20979 0.81224 0.04603 0.0
C9 C 0.18902 0.83193 0.04731 0.0
C10 C 0.17835 0.84221 0.00473 0.0
N11 N 0.24163 0.7837 -3e-05 0.0
H12 H 0.68964 0.72255 0.59143 0.0
H13 H 0.6872 0.70915 0.43996 0.0
H14 H 0.65431 0.64941 0.53194 0.0
H15 H 0.71633 0.74174 0.43646 0.0
C16 C 0.71856 0.75278 0.46983 0.0
C17 C 0.68424 0.71002 0.56067 0.0
C18 C 0.67109 0.68506 0.56657 0.0
C19 C 0.69112 0.7186 0.51529 0.0
C20 C 0.68348 0.7024 0.47544 0.0
C21 C 0.66999 0.67747 0.48109 0.0
C22 C 0.66434 0.6688 0.52692 0.0
N23 N 0.70598 0.74332 0.51149 0.0
H24 H 0.80476 0.22531 0.91743 0.0
H25 H 0.7923 0.20283 0.06196 0.0
H26 H 0.86105 0.17058 0.98619 0.0
H27 H 0.74694 0.21093 0.03836 0.0
C28 C 0.74942 0.22962 0.01897 0.0
C29 C 0.81137 0.2142 0.94854 0.0
C30 C 0.83471 0.19755 0.94684 0.0
C31 C 0.79594 0.21606 0.98971 0.0
C32 C 0.80418 0.20144 0.03006 0.0
C33 C 0.82774 0.1849 0.02915 0.0
C34 C 0.84298 0.1834 0.98749 0.0
N35 N 0.7724 0.23305 0.98946 0.0
H36 H 0.29602 0.29117 0.42605 0.0
H37 H 0.27768 0.29743 0.57445 0.0
H38 H 0.32593 0.35905 0.5102 0.0
H39 H 0.27432 0.25131 0.56551 0.0
C40 C 0.26361 0.24926 0.53144 0.0
C41 C 0.29758 0.30217 0.45958 0.0
C42 C 0.31277 0.32638 0.46325 0.0
C43 C 0.28518 0.29134 0.49947 0.0
C44 C 0.28749 0.30522 0.54341 0.0
C45 C 0.30203 0.32976 0.54717 0.0
C46 C 0.31444 0.34021 0.50703 0.0
N47 N 0.26999 0.26685 0.49386 0.0
O48 O 0.93182 0.97431 0.49971 0.0
Zn49 Zn 0.95573 0.00755 0.4984 0.0
O50 O 0.99458 -0.00211 0.49715 0.0
Zn51 Zn 0.01333 0.01352 0.55307 0.0
Zn52 Zn -0.0016 0.95834 0.49748 0.0
Zn53 Zn 0.01071 0.01233 0.43985 0.0
O54 O 0.04404 0.03799 0.53443 0.0
O55 O 0.04007 0.04008 0.45603 0.0
O56 O 0.9474 0.03138 0.55445 0.0
O57 O 0.98765 0.0363 0.59214 0.0
O58 O 0.02968 0.98448 0.59417 0.0
O59 O 0.01928 0.94605 0.55572 0.0
O60 O 0.01985 0.94498 0.44159 0.0
O61 O 0.94447 0.02844 0.44076 0.0
O62 O 0.02898 0.98261 0.40263 0.0
O63 O 0.98208 0.02995 0.39767 0.0
C64 C 0.93682 0.94895 0.49778 0.0
C65 C 0.05173 0.04733 0.49508 0.0
C66 C 0.03059 0.95869 0.59073 0.0
C67 C 0.96206 0.04147 0.58825 0.0
C68 C 0.03096 0.95701 0.4073 0.0
C69 C 0.95677 0.03539 0.40354 0.0
O70 O 0.96137 0.94002 0.49602 0.0
O71 O 0.55435 0.46312 5e-05 0.0
Zn72 Zn 0.53705 0.50007 0.00392 0.0
O73 O 0.49705 0.49734 0.00727 0.0
Zn74 Zn 0.47997 0.51674 0.95432 0.0
Zn75 Zn 0.48609 0.45921 0.00374 0.0
Zn76 Zn 0.4851 0.51322 0.06727 0.0
O77 O 0.45405 0.54535 0.97789 0.0
O78 O 0.45925 0.54457 0.05628 0.0
O79 O 0.54822 0.52155 0.94763 0.0
O80 O 0.50858 0.53562 0.91596 0.0
O81 O 0.45809 0.49137 0.91106 0.0
O82 O 0.46323 0.45133 0.94515 0.0
O83 O 0.46317 0.44922 0.05918 0.0
O84 O 0.55338 0.51901 0.06193 0.0
O85 O 0.46534 0.48582 0.10621 0.0
O86 O 0.51711 0.52711 0.1063 0.0
C87 C 0.54488 0.43904 0.00133 0.0
C88 C 0.44837 0.55454 0.01894 0.0
C89 C 0.45339 0.46594 0.91205 0.0
C90 C 0.53478 0.53513 0.91689 0.0
C91 C 0.45743 0.46157 0.09764 0.0
C92 C 0.54288 0.52831 0.09978 0.0
O93 O 0.51916 0.43454 0.00359 0.0
H94 H 0.23072 0.23885 0.45292 0.0
H95 H 0.1959 0.2033 0.44315 0.0
H96 H 0.2153 0.17483 0.58383 0.0
H97 H 0.25036 0.2104 0.59378 0.0
H98 H 0.20928 0.13293 0.51878 0.0
H99 H 0.15983 0.21275 0.5665 0.0
H100 H 0.14508 0.26056 0.56226 0.0
H101 H 0.11095 0.24603 0.42246 0.0
H102 H 0.12586 0.19818 0.42561 0.0
H103 H 0.08835 0.05895 0.56725 0.0
H104 H 0.12583 0.09193 0.56786 0.0
H105 H 0.10457 0.11346 0.42406 0.0
H106 H 0.06698 0.0803 0.42291 0.0
H107 H 0.112 0.15829 0.48597 0.0
H108 H 0.15951 0.07727 0.44085 0.0
H109 H 0.17375 0.02939 0.44692 0.0
H110 H 0.21103 0.04605 0.5837 0.0
H111 H 0.19665 0.09398 0.57878 0.0
C112 C 0.22768 0.22495 0.48171 0.0
C113 C 0.24316 0.22735 0.52425 0.0
C114 C 0.20772 0.20472 0.4761 0.0
C115 C 0.20289 0.18662 0.51293 0.0
C116 C 0.21874 0.18862 0.55502 0.0
C117 C 0.23865 0.20893 0.56071 0.0
C118 C 0.1809 0.16595 0.5079 0.0
C119 C 0.18797 0.13846 0.51209 0.0
C120 C 0.15323 0.17321 0.4981 0.0
C121 C 0.14425 0.20197 0.49607 0.0
C122 C 0.14941 0.21981 0.53467 0.0
C123 C 0.14097 0.2469 0.5325 0.0
C124 C 0.12716 0.25635 0.49205 0.0
C125 C 0.1217 0.23869 0.45373 0.0
C126 C 0.13012 0.21158 0.4557 0.0
C127 C 0.09164 0.07063 0.53566 0.0
C128 C 0.07468 0.06702 0.49501 0.0
C129 C 0.11315 0.08937 0.53603 0.0
C130 C 0.11803 0.10493 0.4959 0.0
C131 C 0.10112 0.10153 0.45531 0.0
C132 C 0.07974 0.08255 0.4547 0.0
C133 C 0.14036 0.1253 0.49708 0.0
C134 C 0.13335 0.15274 0.49227 0.0
C135 C 0.16805 0.11799 0.50652 0.0
C136 C 0.17676 0.08918 0.50963 0.0
C137 C 0.17053 0.07068 0.47242 0.0
C138 C 0.17867 0.04354 0.47562 0.0
C139 C 0.19322 0.03467 0.51572 0.0
C140 C 0.19972 0.05295 0.55268 0.0
C141 C 0.1916 0.08011 0.54969 0.0
H142 H 0.19952 0.01365 0.51812 0.0
H143 H 0.12063 0.27733 0.49045 0.0
H144 H 0.30179 0.76796 0.10083 0.0
H145 H 0.33395 0.7297 0.09936 0.0
H146 H 0.29621 0.70053 0.96835 0.0
H147 H 0.26387 0.73856 0.96989 0.0
H148 H 0.30428 0.65989 0.03029 0.0
H149 H 0.35749 0.73223 0.96765 0.0
H150 H 0.37832 0.77783 0.96604 0.0
H151 H 0.42389 0.76141 0.09454 0.0
H152 H 0.40301 0.71581 0.09728 0.0
H153 H 0.4102 0.57096 0.95317 0.0
H154 H 0.37808 0.60896 0.95968 0.0
H155 H 0.4104 0.62797 0.09987 0.0
H156 H 0.44241 0.58967 0.09404 0.0
H157 H 0.40544 0.67347 0.03602 0.0
H158 H 0.35239 0.60017 0.0965 0.0
H159 H 0.33202 0.55432 0.09549 0.0
H160 H 0.28652 0.57258 0.96774 0.0
H161 H 0.30697 0.61844 0.96758 0.0
C162 C 0.30046 0.75339 0.0717 0.0
C163 C 0.28048 0.75624 0.03544 0.0
C164 C 0.31885 0.73163 0.07081 0.0
C165 C 0.31761 0.71244 0.03351 0.0
C166 C 0.29751 0.71516 -0.0026 0.0
C167 C 0.27912 0.73694 -0.00175 0.0
C168 C 0.33707 0.68935 0.03245 0.0
C169 C 0.32639 0.66287 0.03096 0.0
C170 C 0.36591 0.69328 0.03439 0.0
C171 C 0.37844 0.72072 0.03296 0.0
C172 C 0.37175 0.73843 0.99581 0.0
C173 C 0.38361 0.76426 0.99465 0.0
C174 C 0.40236 0.77255 0.03025 0.0
C175 C 0.40933 0.75498 0.06704 0.0
C176 C 0.3975 0.72914 0.0684 0.0
C177 C 0.41047 0.5832 0.98543 0.0
C178 C 0.4288 0.57733 0.02314 0.0
C179 C 0.39207 0.60481 0.98911 0.0
C180 C 0.39189 0.62111 0.03029 0.0
C181 C 0.41029 0.61553 0.06785 0.0
C182 C 0.42844 0.59362 0.06452 0.0
C183 C 0.37259 0.64416 0.03369 0.0
C184 C 0.38331 0.67057 0.03556 0.0
C185 C 0.3438 0.64019 0.03178 0.0
C186 C 0.33145 0.61264 0.03176 0.0
C187 C 0.33825 0.59432 0.06792 0.0
C188 C 0.32665 0.56835 0.06762 0.0
C189 C 0.30804 0.56052 0.03149 0.0
C190 C 0.30096 0.57867 0.99565 0.0
C191 C 0.31254 0.60466 0.99577 0.0
H192 H 0.29907 0.54041 0.03133 0.0
H193 H 0.41153 0.79254 0.02926 0.0
H194 H 0.75192 0.76926 0.40057 0.0
H195 H 0.78771 0.80418 0.40589 0.0
H196 H 0.76506 0.82286 0.54981 0.0
H197 H 0.72973 0.78751 0.54503 0.0
H198 H 0.78871 0.85723 0.42081 0.0
H199 H 0.82254 0.83829 0.61498 0.0
H200 H 0.82245 0.80131 0.67301 0.0
H201 H 0.82382 0.74213 0.55966 0.0
H202 H 0.82428 0.77875 0.50103 0.0
H203 H 0.88175 0.9604 0.49925 0.0
H204 H 0.84349 0.92827 0.49529 0.0
H205 H 0.90079 0.86152 0.48926 0.0
H206 H 0.93923 0.89343 0.49378 0.0
H207 H 0.86003 0.85113 0.54882 0.0
H208 H 0.86816 0.88255 0.38976 0.0
H209 H 0.87078 0.91674 0.3271 0.0
H210 H 0.79032 0.94586 0.36153 0.0
H211 H 0.78738 0.91206 0.42487 0.0
C212 C 0.75452 0.78096 0.43321 0.0
C213 C 0.73834 0.77551 0.47251 0.0
C214 C 0.77487 0.80094 0.43617 0.0
C215 C 0.77932 0.81584 0.47847 0.0
C216 C 0.76232 0.81123 0.51713 0.0
C217 C 0.7421 0.79108 0.51431 0.0
C218 C 0.80245 0.83539 0.48253 0.0
C219 C 0.80423 0.85598 0.44892 0.0
C220 C 0.82297 0.83345 0.51872 0.0
C221 C 0.82315 0.81126 0.55366 0.0
C222 C 0.82293 0.81738 0.60248 0.0
C223 C 0.8228 0.79649 0.63546 0.0
C224 C 0.82304 0.76939 0.62002 0.0
C225 C 0.82353 0.76313 0.57157 0.0
C226 C 0.8237 0.78394 0.53845 0.0
C227 C 0.88627 0.93888 0.49722 0.0
C228 C 0.91359 0.9295 0.49664 0.0
C229 C 0.86435 0.92056 0.4948 0.0
C230 C 0.86932 0.89255 0.4915 0.0
C231 C 0.89653 0.88308 0.49178 0.0
C232 C 0.91847 0.90137 0.49421 0.0
C233 C 0.84618 0.87307 0.48731 0.0
C234 C 0.84439 0.85251 0.52093 0.0
C235 C 0.826 0.87467 0.45052 0.0
C236 C 0.82767 0.89496 0.41237 0.0
C237 C 0.85112 0.89639 0.38422 0.0
C238 C 0.85264 0.91567 0.34854 0.0
C239 C 0.83076 0.93351 0.34043 0.0
C240 C 0.80728 0.93205 0.36791 0.0
C241 C 0.80566 0.91282 0.40368 0.0
H242 H 0.83198 0.94842 0.31278 0.0
H243 H 0.8229 0.75325 0.64561 0.0
H244 H 0.75085 0.28135 0.98524 0.0
H245 H 0.71388 0.31492 0.98585 0.0
H246 H 0.6609 0.25773 0.0535 0.0
H247 H 0.69811 0.22393 0.05343 0.0
H248 H 0.63624 0.2854 0.97414 0.0
H249 H 0.68535 0.30513 0.11968 0.0
H250 H 0.7264 0.3145 0.17016 0.0
H251 H 0.74291 0.38615 0.09082 0.0
H252 H 0.70217 0.37698 0.03938 0.0
H253 H 0.53436 0.38608 0.02302 0.0
H254 H 0.56732 0.34873 0.02829 0.0
H255 H 0.63213 0.40229 0.98549 0.0
H256 H 0.59954 0.43985 0.98145 0.0
H257 H 0.64889 0.37397 0.0581 0.0
H258 H 0.60239 0.35334 0.90937 0.0
H259 H 0.56231 0.34406 0.85649 0.0
H260 H 0.54175 0.2746 0.93874 0.0
H261 H 0.58154 0.28369 0.9925 0.0
C262 C 0.73134 0.27587 0.0002 0.0
C263 C 0.72723 0.25004 0.01925 0.0
C264 C 0.71029 0.29509 0.00065 0.0
C265 C 0.68478 0.28878 0.0199 0.0
C266 C 0.68049 0.26291 0.0385 0.0
C267 C 0.7017 0.24374 0.03858 0.0
C268 C 0.66272 0.30939 0.02041 0.0
C269 C 0.63871 0.30462 0.99311 0.0
C270 C 0.66635 0.33458 0.04442 0.0
C271 C 0.69083 0.34022 0.07541 0.0
C272 C 0.69786 0.32275 0.11273 0.0
C273 C 0.72105 0.32805 0.14157 0.0
C274 C 0.73729 0.35087 0.13364 0.0
C275 C 0.73033 0.36847 0.0969 0.0
C276 C 0.70717 0.36324 0.06792 0.0
C277 C 0.55559 0.38986 0.0144 0.0
C278 C 0.56433 0.41595 0.00185 0.0
C279 C 0.57439 0.36846 0.0173 0.0
C280 C 0.60216 0.37265 0.00692 0.0
C281 C 0.61082 0.3986 0.99381 0.0
C282 C 0.59214 0.42004 0.99139 0.0
C283 C 0.62249 0.35032 0.01095 0.0
C284 C 0.64622 0.35473 0.0393 0.0
C285 C 0.61865 0.32489 0.98758 0.0
C286 C 0.59476 0.31937 0.95525 0.0
C287 C 0.5892 0.33622 0.9164 0.0
C288 C 0.56656 0.33097 0.88623 0.0
C289 C 0.54945 0.3088 0.89433 0.0
C290 C 0.55499 0.29179 0.93255 0.0
C291 C 0.5776 0.29697 0.96286 0.0
H292 H 0.53193 0.30477 0.87093 0.0
H293 H 0.75524 0.35494 0.15601 0.0
H294 H 0.18172 0.88428 0.07589 0.0
H295 H 0.15847 0.9007 0.14661 0.0
H296 H 0.14745 0.81818 0.19175 0.0
H297 H 0.17064 0.80158 0.12044 0.0
H298 H 0.09948 0.84763 0.19215 0.0
H299 H 0.19057 0.8579 0.2537 0.0
H300 H 0.23935 0.87148 0.25426 0.0
H301 H 0.21583 0.95522 0.24339 0.0
H302 H 0.16687 0.94213 0.24203 0.0
H303 H 0.03884 0.90188 0.40355 0.0
H304 H 0.06846 0.87633 0.34991 0.0
H305 H 0.09064 0.95065 0.28149 0.0
H306 H 0.06132 0.97637 0.33489 0.0
H307 H 0.13552 0.91916 0.30269 0.0
H308 H 0.04523 0.90798 0.22945 0.0
H309 H 0.99633 0.89466 0.22705 0.0
H310 H 0.01875 0.81255 0.25927 0.0
H311 H 0.0678 0.82549 0.26248 0.0
C312 C 0.17461 0.86967 0.1012 0.0
C313 C 0.17785 0.8417 0.09279 0.0
C314 C 0.16151 0.87906 0.14168 0.0
C315 C 0.15142 0.86064 0.17452 0.0
C316 C 0.15522 0.83268 0.16686 0.0
C317 C 0.16856 0.82326 0.1264 0.0
C318 C 0.13513 0.87084 0.21469 0.0
C319 C 0.10752 0.86279 0.21711 0.0
C320 C 0.14556 0.89096 0.24658 0.0
C321 C 0.17501 0.89899 0.24747 0.0
C322 C 0.19578 0.8792 0.25106 0.0
C323 C 0.22347 0.88682 0.25158 0.0
C324 C 0.23069 0.91419 0.24879 0.0
C325 C 0.21021 0.93402 0.24554 0.0
C326 C 0.18248 0.92651 0.24497 0.0
C327 C 0.04992 0.91279 0.37695 0.0
C328 C 0.04767 0.94119 0.37349 0.0
C329 C 0.06681 0.89814 0.34635 0.0
C330 C 0.08169 0.91163 0.31178 0.0
C331 C 0.0794 0.9399 0.30811 0.0
C332 C 0.06249 0.95454 0.33851 0.0
C333 C 0.09975 0.89647 0.27923 0.0
C334 C 0.12766 0.90361 0.27832 0.0
C335 C 0.0896 0.87555 0.2487 0.0
C336 C 0.06014 0.86777 0.24682 0.0
C337 C 0.03971 0.88714 0.23647 0.0
C338 C 0.01198 0.87965 0.23487 0.0
C339 C 0.00443 0.8528 0.24317 0.0
C340 C 0.02462 0.83336 0.25296 0.0
C341 C 0.05239 0.84075 0.25466 0.0
H342 H 0.98295 0.84703 0.24189 0.0
H343 H 0.25214 0.92005 0.24921 0.0
H344 H 0.69276 0.64259 0.61413 0.0
H345 H 0.67288 0.62016 0.68225 0.0
H346 H 0.61073 0.68254 0.69005 0.0
H347 H 0.63131 0.70548 0.6228 0.0
H348 H 0.62379 0.66401 0.77753 0.0
H349 H 0.5986 0.62624 0.62594 0.0
H350 H 0.60716 0.60739 0.54616 0.0
H351 H 0.65034 0.54002 0.6076 0.0
H352 H 0.64255 0.55881 0.68781 0.0
H353 H 0.51679 0.57992 0.8695 0.0
H354 H 0.54304 0.60818 0.81586 0.0
H355 H 0.61315 0.55541 0.83321 0.0
H356 H 0.58733 0.52738 0.8877 0.0
H357 H 0.59588 0.56962 0.73464 0.0
H358 H 0.61849 0.60946 0.88857 0.0
H359 H 0.60724 0.62982 0.96613 0.0
H360 H 0.56386 0.69443 0.89659 0.0
H361 H 0.57451 0.6742 0.81855 0.0
C362 C 0.67545 0.65192 0.63159 0.0
C363 C 0.66344 0.67562 0.61365 0.0
C364 C 0.66401 0.63908 0.67017 0.0
C365 C 0.63995 0.64936 0.6904 0.0
C366 C 0.62924 0.67424 0.67483 0.0
C367 C 0.64096 0.68733 0.63658 0.0
C368 C 0.62429 0.63258 0.72355 0.0
C369 C 0.61752 0.64346 0.76804 0.0
C370 C 0.61601 0.60577 0.71103 0.0
C371 C 0.62023 0.59408 0.66288 0.0
C372 C 0.61007 0.6075 0.62244 0.0
C373 C 0.61479 0.59683 0.57714 0.0
C374 C 0.62932 0.57255 0.57182 0.0
C375 C 0.63911 0.55885 0.6118 0.0
C376 C 0.63456 0.56951 0.65719 0.0
C377 C 0.53776 0.57428 0.86172 0.0
C378 C 0.55003 0.55145 0.88275 0.0
C379 C 0.55272 0.5905 0.83134 0.0
C380 C 0.57999 0.58388 0.82098 0.0
C381 C 0.59212 0.56081 0.84103 0.0
C382 C 0.57737 0.54489 0.87212 0.0
C383 C 0.59583 0.6009 0.78874 0.0
C384 C 0.60237 0.5901 0.74419 0.0
C385 C 0.60335 0.6279 0.80087 0.0
C386 C 0.59704 0.64014 0.84774 0.0
C387 C 0.60632 0.62786 0.88981 0.0
C388 C 0.6001 0.63941 0.93387 0.0
C389 C 0.58477 0.66336 0.93629 0.0
C390 C 0.57569 0.67585 0.89466 0.0
C391 C 0.58183 0.66436 0.85051 0.0
H392 H 0.57999 0.67228 0.97043 0.0
H393 H 0.63296 0.56431 0.53671 0.0
H394 H 0.84877 0.13334 0.02961 0.0
H395 H 0.86703 0.10843 0.09678 0.0
H396 H 0.84246 0.17328 0.19147 0.0
H397 H 0.82626 0.19955 0.12356 0.0
H398 H 0.8904 0.15863 0.21651 0.0
H399 H 0.80854 0.10905 0.18347 0.0
H400 H 0.77338 0.08432 0.13556 0.0
H401 H 0.83291 0.02361 0.09879 0.0
H402 H 0.86855 0.04817 0.14594 0.0
H403 H 0.91148 0.06715 0.41523 0.0
H404 H 0.8862 0.09266 0.35442 0.0
H405 H 0.9412 0.06245 0.24816 0.0
H406 H 0.96718 0.03747 0.30896 0.0
H407 H 0.87413 0.05998 0.23593 0.0
H408 H 0.95664 0.11662 0.26485 0.0
H409 H 0.98864 0.14173 0.31859 0.0
H410 H 0.92164 0.18954 0.37081 0.0
H411 H 0.88918 0.16437 0.31783 0.0
C412 C 0.84749 0.14255 0.0646 0.0
C413 C 0.83635 0.16869 0.07098 0.0
C414 C 0.85748 0.12797 0.10323 0.0
C415 C 0.85575 0.13871 0.14944 0.0
C416 C 0.84397 0.1645 0.15617 0.0
C417 C 0.83444 0.17939 0.11732 0.0
C418 C 0.86774 0.12361 0.19011 0.0
C419 C 0.88637 0.13717 0.22104 0.0
C420 C 0.86269 0.09553 0.1963 0.0
C421 C 0.84128 0.08058 0.16801 0.0
C422 C 0.81419 0.09052 0.16492 0.0
C423 C 0.79417 0.07652 0.13792 0.0
C424 C 0.80092 0.05244 0.11407 0.0
C425 C 0.82771 0.04227 0.11727 0.0
C426 C 0.84783 0.05621 0.14418 0.0
C427 C 0.91817 0.06591 0.3789 0.0
C428 C 0.94132 0.05038 0.36676 0.0
C429 C 0.90374 0.08048 0.34435 0.0
C430 C 0.91194 0.07932 0.29711 0.0
C431 C 0.93468 0.06349 0.28461 0.0
C432 C 0.94951 0.04938 0.31931 0.0
C433 C 0.89695 0.09497 0.26076 0.0
C434 C 0.87775 0.08149 0.23112 0.0
C435 C 0.90096 0.12317 0.25639 0.0
C436 C 0.92047 0.13839 0.2879 0.0
C437 C 0.9487 0.13228 0.28818 0.0
C438 C 0.96693 0.14657 0.31839 0.0
C439 C 0.95717 0.16716 0.34822 0.0
C440 C 0.92916 0.17355 0.34777 0.0
C441 C 0.91085 0.15929 0.31764 0.0
H442 H 0.97131 0.1782 0.37159 0.0
H443 H 0.78539 0.04163 0.09318 0.0
H444 H 0.29364 0.38328 0.56755 0.0
H445 H 0.31198 0.40856 0.6366 0.0
H446 H 0.33969 0.33362 0.69877 0.0
H447 H 0.32109 0.30821 0.62989 0.0
H448 H 0.32358 0.37282 0.76665 0.0
H449 H 0.38173 0.36513 0.63004 0.0
H450 H 0.3901 0.36931 0.54457 0.0
H451 H 0.37516 0.45513 0.55396 0.0
H452 H 0.36622 0.45136 0.63947 0.0
H453 H 0.44108 0.41208 0.9005 0.0
H454 H 0.40952 0.39117 0.84237 0.0
H455 H 0.39246 0.46965 0.78266 0.0
H456 H 0.42443 0.49082 0.84037 0.0
H457 H 0.39968 0.43176 0.71441 0.0
H458 H 0.34632 0.43989 0.85425 0.0
H459 H 0.33643 0.43481 0.93899 0.0
H460 H 0.34183 0.3481 0.92379 0.0
H461 H 0.35214 0.35267 0.83907 0.0
C462 C 0.30292 0.37218 0.59665 0.0
C463 C 0.30637 0.3439 0.59328 0.0
C464 C 0.31334 0.3866 0.63599 0.0
C465 C 0.32767 0.37296 0.67215 0.0
C466 C 0.32874 0.34448 0.67107 0.0
C467 C 0.31813 0.33 0.6318 0.0
C468 C 0.34494 0.3884 0.70691 0.0
C469 C 0.34031 0.38561 0.75541 0.0
C470 C 0.36646 0.40538 0.69191 0.0
C471 C 0.3731 0.40793 0.64104 0.0
C472 C 0.38017 0.38489 0.61385 0.0
C473 C 0.38498 0.38717 0.56541 0.0
C474 C 0.38311 0.41246 0.54384 0.0
C475 C 0.37657 0.43555 0.57074 0.0
C476 C 0.37165 0.43336 0.61921 0.0
C477 C 0.4307 0.42496 0.87498 0.0
C478 C 0.43521 0.45318 0.87527 0.0
C479 C 0.41253 0.41296 0.84193 0.0
C480 C 0.39826 0.42893 0.80879 0.0
C481 C 0.40316 0.457 0.80816 0.0
C482 C 0.42144 0.46904 0.84116 0.0
C483 C 0.37849 0.41614 0.77451 0.0
C484 C 0.38275 0.4193 0.72589 0.0
C485 C 0.35667 0.39949 0.7895 0.0
C486 C 0.35021 0.39664 0.84036 0.0
C487 C 0.34558 0.41974 0.86904 0.0
C488 C 0.33987 0.41696 0.91706 0.0
C489 C 0.33856 0.39116 0.93678 0.0
C490 C 0.34287 0.36808 0.90847 0.0
C491 C 0.34861 0.37075 0.86043 0.0
H492 H 0.33415 0.38904 0.97398 0.0
H493 H 0.38679 0.41415 0.50631 0.0
H494 H 0.69853 0.66636 0.40018 0.0
H495 H 0.68343 0.63833 0.33186 0.0
H496 H 0.60665 0.62249 0.39995 0.0
H497 H 0.62132 0.65063 0.46771 0.0
H498 H 0.62894 0.57643 0.36254 0.0
H499 H 0.61043 0.66879 0.31366 0.0
H500 H 0.62311 0.7161 0.29686 0.0
H501 H 0.68047 0.68807 0.19345 0.0
H502 H 0.66838 0.64054 0.21013 0.0
H503 H 0.52919 0.54185 0.19025 0.0
H504 H 0.558 0.56375 0.25135 0.0
H505 H 0.62578 0.56559 0.15547 0.0
H506 H 0.59696 0.54353 0.09363 0.0
H507 H 0.61696 0.61507 0.202 0.0
H508 H 0.62963 0.52264 0.24262 0.0
H509 H 0.61595 0.47558 0.259 0.0
H510 H 0.56935 0.50346 0.3777 0.0
H511 H 0.58239 0.55077 0.36162 0.0
C512 C 0.67834 0.65707 0.40035 0.0
C513 C 0.66113 0.66067 0.43937 0.0
C514 C 0.66982 0.641 0.36144 0.0
C515 C 0.64392 0.62839 0.36091 0.0
C516 C 0.62681 0.63187 0.39986 0.0
C517 C 0.63525 0.64792 0.4386 0.0
C518 C 0.63417 0.6118 0.31972 0.0
C519 C 0.62623 0.58487 0.32745 0.0
C520 C 0.63155 0.62259 0.27366 0.0
C521 C 0.63877 0.65113 0.26357 0.0
C522 C 0.62593 0.67272 0.28764 0.0
C523 C 0.63297 0.69957 0.27809 0.0
C524 C 0.65266 0.70509 0.24423 0.0
C525 C 0.66528 0.68376 0.21975 0.0
C526 C 0.65833 0.65687 0.22923 0.0
C527 C 0.55024 0.54678 0.18204 0.0
C528 C 0.56078 0.54094 0.13703 0.0
C529 C 0.56672 0.55917 0.21714 0.0
C530 C 0.59407 0.566 0.20802 0.0
C531 C 0.60474 0.56032 0.16316 0.0
C532 C 0.58827 0.54767 0.128 0.0
C533 C 0.61089 0.58 0.24525 0.0
C534 C 0.6202 0.60641 0.23682 0.0
C535 C 0.61474 0.56875 0.29073 0.0
C536 C 0.60687 0.5403 0.30069 0.0
C537 C 0.61629 0.51877 0.272 0.0
C538 C 0.60868 0.49204 0.28127 0.0
C539 C 0.59176 0.48654 0.31932 0.0
C540 C 0.58245 0.50776 0.34823 0.0
C541 C 0.58998 0.53454 0.33909 0.0
H542 H 0.58589 0.46582 0.32645 0.0
H543 H 0.65808 0.72589 0.23686 0.0
H544 H 0.81115 0.1866 0.86015 0.0
H545 H 0.83378 0.16704 0.79116 0.0
H546 H 0.91258 0.17539 0.86313 0.0
H547 H 0.89012 0.19562 0.93198 0.0
H548 H 0.91533 0.18187 0.76387 0.0
H549 H 0.87982 0.11951 0.87729 0.0
H550 H 0.84386 0.10075 0.92757 0.0
H551 H 0.79401 0.08197 0.80379 0.0
H552 H 0.8295 0.10113 0.7528 0.0
H553 H 0.98713 0.07008 0.66128 0.0
H554 H 0.96583 0.10227 0.71613 0.0
H555 H 0.88694 0.08831 0.6471 0.0
H556 H 0.9079 0.05594 0.59244 0.0
H557 H 0.88386 0.08646 0.74228 0.0
H558 H 0.92213 0.14617 0.62812 0.0
H559 H 0.9588 0.16507 0.5795 0.0
H560 H 0.00471 0.18811 0.70558 0.0
H561 H 0.96847 0.16899 0.75499 0.0
C562 C 0.83339 0.18527 0.86062 0.0
C563 C 0.84886 0.19222 0.90169 0.0
C564 C 0.84626 0.17395 0.82128 0.0
C565 C 0.87474 0.16931 0.82257 0.0
C566 C 0.89055 0.17869 0.86163 0.0
C567 C 0.87769 0.19003 0.90101 0.0
C568 C 0.88728 0.1512 0.78685 0.0
C569 C 0.90862 0.16097 0.75921 0.0
C570 C 0.87833 0.124 0.78079 0.0
C571 C 0.85717 0.11202 0.81128 0.0
C572 C 0.8611 0.11156 0.86082 0.0
C573 C 0.84082 0.10085 0.88945 0.0
C574 C 0.81664 0.09023 0.86889 0.0
C575 C 0.81273 0.09024 0.81966 0.0
C576 C 0.83293 0.10103 0.79088 0.0
C577 C 0.96524 0.0738 0.65779 0.0
C578 C 0.94923 0.06041 0.62246 0.0
C579 C 0.95315 0.09236 0.68895 0.0
C580 C 0.92489 0.09791 0.68523 0.0
C581 C 0.90882 0.08437 0.6504 0.0
C582 C 0.92086 0.06587 0.61921 0.0
C583 C 0.91182 0.11711 0.7187 0.0
C584 C 0.89045 0.10744 0.74637 0.0
C585 C 0.92093 0.14428 0.72488 0.0
C586 C 0.9427 0.15591 0.69525 0.0
C587 C 0.94015 0.15507 0.64549 0.0
C588 C 0.96083 0.16586 0.61778 0.0
C589 C 0.9841 0.17772 0.63943 0.0
C590 C 0.98669 0.17888 0.68885 0.0
C591 C 0.96607 0.1681 0.71673 0.0
H592 H 0.0001 0.18606 0.61792 0.0
H593 H 0.80095 0.08193 0.89111 0.0
H594 H 0.36434 0.3482 0.46309 0.0
H595 H 0.38715 0.36987 0.39754 0.0
H596 H 0.31831 0.35 0.30441 0.0
H597 H 0.29477 0.32885 0.37043 0.0
H598 H 0.37353 0.34066 0.26624 0.0
H599 H 0.31981 0.41037 0.34497 0.0
H600 H 0.30509 0.43552 0.4163 0.0
H601 H 0.38826 0.46135 0.44453 0.0
H602 H 0.40355 0.43598 0.37376 0.0
H603 H 0.4155 0.4258 0.08179 0.0
H604 H 0.38882 0.40226 0.141 0.0
H605 H 0.43801 0.44049 0.2527 0.0
H606 H 0.46327 0.46552 0.19352 0.0
H607 H 0.38981 0.43998 0.28017 0.0
H608 H 0.44601 0.37067 0.21093 0.0
H609 H 0.46547 0.34273 0.14659 0.0
H610 H 0.38474 0.31361 0.10753 0.0
H611 H 0.36475 0.34165 0.17131 0.0
C612 C 0.35392 0.34853 0.42876 0.0
C613 C 0.32751 0.33721 0.42213 0.0
C614 C 0.36709 0.36074 0.39133 0.0
C615 C 0.35422 0.36174 0.34647 0.0
C616 C 0.32847 0.34939 0.33894 0.0
C617 C 0.31513 0.33729 0.3766 0.0
C618 C 0.36729 0.37685 0.30824 0.0
C619 C 0.37677 0.36245 0.26867 0.0
C620 C 0.37221 0.40507 0.31262 0.0
C621 C 0.36284 0.42113 0.35421 0.0
C622 C 0.33497 0.42132 0.36649 0.0
C623 C 0.32653 0.43561 0.40683 0.0
C624 C 0.34574 0.44998 0.43497 0.0
C625 C 0.3734 0.45022 0.42267 0.0
C626 C 0.38196 0.43591 0.38243 0.0
C627 C 0.4205 0.42915 0.11905 0.0
C628 C 0.44144 0.44733 0.13326 0.0
C629 C 0.4054 0.41556 0.15287 0.0
C630 C 0.41175 0.41905 0.20146 0.0
C631 C 0.43264 0.4374 0.21553 0.0
C632 C 0.44714 0.45164 0.18175 0.0
C633 C 0.39658 0.40383 0.23773 0.0
C634 C 0.38658 0.41822 0.27715 0.0
C635 C 0.39189 0.37543 0.23382 0.0
C636 C 0.40386 0.35847 0.19557 0.0
C637 C 0.43239 0.35845 0.18841 0.0
C638 C 0.44352 0.34257 0.15208 0.0
C639 C 0.42634 0.32647 0.12291 0.0
C640 C 0.39801 0.32613 0.13011 0.0
C641 C 0.38678 0.34199 0.16636 0.0
H642 H 0.435 0.3142 0.09479 0.0
H643 H 0.33918 0.46095 0.46629 0.0
H644 H 0.16978 0.80481 0.88162 0.0
H645 H 0.14376 0.82309 0.8137 0.0
H646 H 0.15224 0.90393 0.87342 0.0
H647 H 0.1782 0.88587 0.94093 0.0
H648 H 0.09909 0.89123 0.85186 0.0
H649 H 0.18714 0.88491 0.77629 0.0
H650 H 0.2287 0.86127 0.7489 0.0
H651 H 0.17871 0.80717 0.66281 0.0
H652 H 0.1368 0.83027 0.69022 0.0
H653 H 0.056 0.97859 0.67134 0.0
H654 H 0.08256 0.95347 0.73033 0.0
H655 H 0.06672 0.87879 0.65256 0.0
H656 H 0.04023 0.90383 0.59278 0.0
H657 H 0.12068 0.88326 0.68118 0.0
H658 H 0.03299 0.89094 0.75206 0.0
H659 H 0.99106 0.91405 0.7791 0.0
H660 H 0.03964 0.96436 0.87431 0.0
H661 H 0.08193 0.94181 0.84734 0.0
C662 C 0.16657 0.82653 0.87962 0.0
C663 C 0.17573 0.84392 0.91668 0.0
C664 C 0.15167 0.83693 0.84095 0.0
C665 C 0.14596 0.86484 0.83875 0.0
C666 C 0.15621 0.8823 0.87469 0.0
C667 C 0.17101 0.87197 0.9132 0.0
C668 C 0.12782 0.87591 0.80092 0.0
C669 C 0.10396 0.88972 0.81456 0.0
C670 C 0.13365 0.87298 0.75223 0.0
C671 C 0.15882 0.85911 0.73574 0.0
C672 C 0.18499 0.86781 0.75186 0.0
C673 C 0.20862 0.85455 0.73626 0.0
C674 C 0.20635 0.83268 0.70426 0.0
C675 C 0.18044 0.82408 0.68768 0.0
C676 C 0.15675 0.83726 0.7032 0.0
C677 C 0.05801 0.95681 0.66674 0.0
C678 C 0.04587 0.94322 0.62737 0.0
C679 C 0.07317 0.94247 0.7006 0.0
C680 C 0.07637 0.91424 0.69602 0.0
C681 C 0.06443 0.90057 0.65673 0.0
C682 C 0.0492 0.91491 0.62277 0.0
C683 C 0.09242 0.89925 0.73232 0.0
C684 C 0.11573 0.88458 0.71845 0.0
C685 C 0.08606 0.90124 0.78091 0.0
C686 C 0.06066 0.91481 0.79738 0.0
C687 C 0.03476 0.90707 0.7785 0.0
C688 C 0.01092 0.92005 0.79386 0.0
C689 C 0.01269 0.9407 0.82832 0.0
C690 C 0.0383 0.94837 0.84758 0.0
C691 C 0.06221 0.93548 0.83231 0.0
H692 H 0.99421 0.95072 0.84017 0.0
H693 H 0.22466 0.82244 0.69221 0.0
loop_
_geom_bond_atom_site_label_1
_geom_bond_atom_site_label_2
_geom_bond_distance
_geom_bond_site_symmetry_2
_ccdc_geom_bond_type
H0 C5 0.930 . S
H1 C8 0.930 . S
H2 C10 0.930 . S
H3 C4 1.016 . S
C4 H3 1.016 . S
C4 N11 1.286 1_554 S
C5 H0 0.930 . S
C5 C6 1.397 . S
C5 C7 1.361 . S
C6 C5 1.397 . S
C6 C10 1.390 1_556 S
C7 C5 1.361 . S
C7 C8 1.393 1_556 S
C7 N11 1.413 . S
C8 H1 0.930 . S
C8 C7 1.393 1_554 S
C8 C9 1.399 . S
C9 C8 1.399 . S
C9 C10 1.381 . S
C10 H2 0.930 . S
C10 C6 1.390 1_554 S
C10 C9 1.381 . S
N11 C4 1.286 1_556 S
N11 C7 1.413 . S
H12 C17 0.930 . S
H13 C20 0.930 . S
H14 C22 0.930 . S
H15 C16 1.016 . S
C16 H15 1.016 . S
C16 N23 1.286 . S
C17 H12 0.930 . S
C17 C18 1.397 . S
C17 C19 1.361 . S
C18 C17 1.397 . S
C18 C22 1.390 . S
C19 C17 1.361 . S
C19 C20 1.393 . S
C19 N23 1.413 . S
C20 H13 0.930 . S
C20 C19 1.393 . S
C20 C21 1.399 . S
C21 C20 1.399 . S
C21 C22 1.381 . S
C22 H14 0.930 . S
C22 C18 1.390 . S
C22 C21 1.381 . S
N23 C16 1.286 . S
N23 C19 1.413 . S
H24 C29 0.930 . S
H25 C32 0.930 . S
H26 C34 0.930 . S
H27 C28 1.016 . S
C28 H27 1.016 . S
C28 N35 1.286 1_554 S
C29 H24 0.930 . S
C29 C30 1.397 . S
C29 C31 1.361 . S
C30 C29 1.397 . S
C30 C34 1.390 1_556 S
C31 C29 1.361 . S
C31 C32 1.393 1_556 S
C31 N35 1.413 . S
C32 H25 0.930 . S
C32 C31 1.393 1_554 S
C32 C33 1.399 . S
C33 C32 1.399 . S
C33 C34 1.381 . S
C34 H26 0.930 . S
C34 C30 1.390 1_554 S
C34 C33 1.381 . S
N35 C28 1.286 1_556 S
N35 C31 1.413 . S
H36 C41 0.930 . S
H37 C44 0.930 . S
H38 C46 0.930 . S
H39 C40 1.016 . S
C40 H39 1.016 . S
C40 N47 1.286 . S
C41 H36 0.930 . S
C41 C42 1.397 . S
C41 C43 1.361 . S
C42 C41 1.397 . S
C42 C46 1.390 . S
C43 C41 1.361 . S
C43 C44 1.393 . S
C43 N47 1.413 . S
C44 H37 0.930 . S
C44 C43 1.393 . S
C44 C45 1.399 . S
C45 C44 1.399 . S
C45 C46 1.381 . S
C46 H38 0.930 . S
C46 C42 1.390 . S
C46 C45 1.381 . S
N47 C40 1.286 . S
N47 C43 1.413 . S
O48 Zn49 1.953 1_565 S
O48 C64 1.225 . S
Zn49 O48 1.953 1_545 S
Zn49 O50 1.908 1_655 S
Zn49 O56 1.919 . S
Zn49 O61 1.924 . S
O50 Zn49 1.908 1_455 S
O50 Zn51 1.945 . S
O50 Zn52 1.957 1_545 S
O50 Zn53 1.957 . S
Zn51 O50 1.945 . S
Zn51 O54 1.933 . S
Zn51 O57 1.941 1_455 S
Zn51 O58 1.965 1_545 S
Zn52 O50 1.957 1_565 S
Zn52 O59 1.938 . S
Zn52 O60 1.906 . S
Zn52 O70 1.953 1_455 S
Zn53 O50 1.957 . S
Zn53 O55 1.932 . S
Zn53 O62 1.963 1_545 S
Zn53 O63 1.910 1_455 S
O54 Zn51 1.933 . S
O54 C65 1.226 . S
O55 Zn53 1.932 . S
O55 C65 1.307 . S
O56 Zn49 1.919 . S
O56 C67 1.253 . S
O57 Zn51 1.941 1_655 S
O57 C67 1.283 . S
O58 Zn51 1.965 1_565 S
O58 C66 1.303 . S
O59 Zn52 1.938 . S
O59 C66 1.247 . S
O60 Zn52 1.906 . S
O60 C68 1.304 . S
O61 Zn49 1.924 . S
O61 C69 1.311 . S
O62 Zn53 1.963 1_565 S
O62 C68 1.291 . S
O63 Zn53 1.910 1_655 S
O63 C69 1.231 . S
C64 O48 1.225 . S
C64 O70 1.298 . S
C65 O54 1.226 . S
C65 O55 1.307 . S
C66 O58 1.303 . S
C66 O59 1.247 . S
C67 O56 1.253 . S
C67 O57 1.283 . S
C68 O60 1.304 . S
C68 O62 1.291 . S
C69 O61 1.311 . S
C69 O63 1.231 . S
O70 Zn52 1.953 1_655 S
O70 C64 1.298 . S
O71 Zn72 1.953 . S
O71 C87 1.225 . S
Zn72 O71 1.953 . S
Zn72 O73 1.949 . S
Zn72 O79 1.919 1_554 S
Zn72 O84 1.924 . S
O73 Zn72 1.949 . S
O73 Zn74 1.923 1_554 S
O73 Zn75 1.950 . S
O73 Zn76 1.945 . S
Zn74 O73 1.923 1_556 S
Zn74 O77 1.933 . S
Zn74 O80 1.941 . S
Zn74 O81 1.965 . S
Zn75 O73 1.950 . S
Zn75 O82 1.938 1_554 S
Zn75 O83 1.906 . S
Zn75 O93 1.953 . S
Zn76 O73 1.945 . S
Zn76 O78 1.932 . S
Zn76 O85 1.977 . S
Zn76 O86 1.910 . S
O77 Zn74 1.933 . S
O77 C88 1.226 1_556 S
O78 Zn76 1.932 . S
O78 C88 1.307 . S
O79 Zn72 1.919 1_556 S
O79 C90 1.253 . S
O80 Zn74 1.941 . S
O80 C90 1.283 . S
O81 Zn74 1.965 . S
O81 C89 1.303 . S
O82 Zn75 1.938 1_556 S
O82 C89 1.247 . S
O83 Zn75 1.906 . S
O83 C91 1.304 . S
O84 Zn72 1.924 . S
O84 C92 1.311 . S
O85 Zn76 1.977 . S
O85 C91 1.272 . S
O86 Zn76 1.910 . S
O86 C92 1.231 . S
C87 O71 1.225 . S
C87 O93 1.298 . S
C88 O77 1.226 1_554 S
C88 O78 1.307 . S
C89 O81 1.303 . S
C89 O82 1.247 . S
C90 O79 1.253 . S
C90 O80 1.283 . S
C91 O83 1.304 . S
C91 O85 1.272 . S
C92 O84 1.311 . S
C92 O86 1.231 . S
O93 Zn75 1.953 . S
O93 C87 1.298 . S
H94 C112 0.951 . S
H95 C114 0.951 . S
H96 C116 0.950 . S
H97 C117 0.950 . S
H98 C119 0.950 . S
H99 C122 0.950 . S
H100 C123 0.950 . S
H101 C125 0.950 . S
H102 C126 0.950 . S
H103 C127 0.951 . S
H104 C129 0.951 . S
H105 C131 0.950 . S
H106 C132 0.950 . S
H107 C134 0.950 . S
H108 C137 0.950 . S
H109 C138 0.950 . S
H110 C140 0.950 . S
H111 C141 0.950 . S
C112 H94 0.951 . S
C112 C113 1.366 . S
C112 C114 1.388 . S
C113 C112 1.366 . S
C113 C117 1.385 . S
C114 H95 0.951 . S
C114 C112 1.388 . S
C114 C115 1.366 . S
C115 C114 1.366 . S
C115 C116 1.414 . S
C115 C118 1.499 . S
C116 H96 0.950 . S
C116 C115 1.414 . S
C116 C117 1.374 . S
C117 H97 0.950 . S
C117 C113 1.385 . S
C117 C116 1.374 . S
C118 C115 1.499 . S
C118 C119 1.373 . S
C118 C120 1.389 . S
C119 H98 0.950 . S
C119 C118 1.373 . S
C119 C135 1.377 . S
C120 C118 1.389 . S
C120 C121 1.524 . S
C120 C134 1.377 . S
C121 C120 1.524 . S
C121 C122 1.397 . S
C121 C126 1.363 . S
C122 H99 0.950 . S
C122 C121 1.397 . S
C122 C123 1.334 . S
C123 H100 0.950 . S
C123 C122 1.334 . S
C123 C124 1.287 . S
C124 C123 1.287 . S
C124 C125 1.524 . S
C124 H143 0.913 . S
C125 H101 0.950 . S
C125 C124 1.524 . S
C125 C126 1.415 . S
C126 H102 0.950 . S
C126 C121 1.363 . S
C126 C125 1.415 . S
C127 H103 0.951 . S
C127 C128 1.366 . S
C127 C129 1.388 . S
C128 C127 1.366 . S
C128 C132 1.385 . S
C129 H104 0.951 . S
C129 C127 1.388 . S
C129 C130 1.366 . S
C130 C129 1.366 . S
C130 C131 1.414 . S
C130 C133 1.499 . S
C131 H105 0.950 . S
C131 C130 1.414 . S
C131 C132 1.374 . S
C132 H106 0.950 . S
C132 C128 1.385 . S
C132 C131 1.374 . S
C133 C130 1.499 . S
C133 C134 1.373 . S
C133 C135 1.389 . S
C134 H107 0.950 . S
C134 C120 1.377 . S
C134 C133 1.373 . S
C135 C119 1.377 . S
C135 C133 1.389 . S
C135 C136 1.524 . S
C136 C135 1.524 . S
C136 C137 1.397 . S
C136 C141 1.363 . S
C137 H108 0.950 . S
C137 C136 1.397 . S
C137 C138 1.334 . S
C138 H109 0.950 . S
C138 C137 1.334 . S
C138 C139 1.287 . S
C139 C138 1.287 . S
C139 C140 1.524 . S
C139 H142 0.999 . S
C140 H110 0.950 . S
C140 C139 1.524 . S
C140 C141 1.415 . S
C141 H111 0.950 . S
C141 C136 1.363 . S
C141 C140 1.415 . S
H142 C139 0.999 . S
H143 C124 0.913 . S
H144 C162 0.951 . S
H145 C164 0.951 . S
H146 C166 0.950 . S
H147 C167 0.950 . S
H148 C169 0.950 . S
H149 C172 0.950 . S
H150 C173 0.950 . S
H151 C175 0.950 . S
H152 C176 0.950 . S
H153 C177 0.951 . S
H154 C179 0.951 . S
H155 C181 0.950 . S
H156 C182 0.950 . S
H157 C184 0.950 . S
H158 C187 0.950 . S
H159 C188 0.950 . S
H160 C190 0.950 . S
H161 C191 0.950 . S
C162 H144 0.951 . S
C162 C163 1.366 . S
C162 C164 1.388 . S
C163 C162 1.366 . S
C163 C167 1.385 . S
C164 H145 0.951 . S
C164 C162 1.388 . S
C164 C165 1.366 . S
C165 C164 1.366 . S
C165 C166 1.414 . S
C165 C168 1.499 . S
C166 H146 0.950 . S
C166 C165 1.414 . S
C166 C167 1.374 . S
C167 H147 0.950 . S
C167 C163 1.385 . S
C167 C166 1.374 . S
C168 C165 1.499 . S
C168 C169 1.373 . S
C168 C170 1.389 1_554 S
C169 H148 0.950 . S
C169 C168 1.373 . S
C169 C185 1.377 . S
C170 C168 1.389 1_556 S
C170 C171 1.524 . S
C170 C184 1.377 . S
C171 C170 1.524 . S
C171 C172 1.397 . S
C171 C176 1.363 . S
C172 H149 0.950 . S
C172 C171 1.397 . S
C172 C173 1.334 . S
C173 H150 0.950 . S
C173 C172 1.334 . S
C173 C174 1.287 . S
C174 C173 1.287 . S
C174 C175 1.524 . S
C174 H193 0.913 . S
C175 H151 0.950 . S
C175 C174 1.524 . S
C175 C176 1.415 . S
C176 H152 0.950 . S
C176 C171 1.363 . S
C176 C175 1.415 . S
C177 H153 0.951 . S
C177 C178 1.366 . S
C177 C179 1.388 . S
C178 C177 1.366 . S
C178 C182 1.385 . S
C179 H154 0.951 . S
C179 C177 1.388 . S
C179 C180 1.366 . S
C180 C179 1.366 . S
C180 C181 1.414 . S
C180 C183 1.499 . S
C181 H155 0.950 . S
C181 C180 1.414 . S
C181 C182 1.374 . S
C182 H156 0.950 . S
C182 C178 1.385 . S
C182 C181 1.374 . S
C183 C180 1.499 . S
C183 C184 1.373 1_554 S
C183 C185 1.389 . S
C184 H157 0.950 . S
C184 C170 1.377 . S
C184 C183 1.373 1_556 S
C185 C169 1.377 . S
C185 C183 1.389 . S
C185 C186 1.524 . S
C186 C185 1.524 . S
C186 C187 1.397 . S
C186 C191 1.363 . S
C187 H158 0.950 . S
C187 C186 1.397 . S
C187 C188 1.334 . S
C188 H159 0.950 . S
C188 C187 1.334 . S
C188 C189 1.287 . S
C189 C188 1.287 . S
C189 C190 1.524 . S
C189 H192 0.999 . S
C190 H160 0.950 . S
C190 C189 1.524 . S
C190 C191 1.415 . S
C191 H161 0.950 . S
C191 C186 1.363 . S
C191 C190 1.415 . S
H192 C189 0.999 . S
H193 C174 0.913 . S
H194 C212 0.951 . S
H195 C214 0.951 . S
H196 C216 0.950 . S
H197 C217 0.950 . S
H198 C219 0.950 . S
H199 C222 0.950 . S
H200 C223 0.950 . S
H201 C225 0.950 . S
H202 C226 0.950 . S
H203 C227 0.951 . S
H204 C229 0.951 . S
H205 C231 0.950 . S
H206 C232 0.950 . S
H207 C234 0.950 . S
H208 C237 0.950 . S
H209 C238 0.950 . S
H210 C240 0.950 . S
H211 C241 0.950 . S
C212 H194 0.951 . S
C212 C213 1.366 . S
C212 C214 1.388 . S
C213 C212 1.366 . S
C213 C217 1.385 . S
C214 H195 0.951 . S
C214 C212 1.388 . S
C214 C215 1.366 . S
C215 C214 1.366 . S
C215 C216 1.414 . S
C215 C218 1.499 . S
C216 H196 0.950 . S
C216 C215 1.414 . S
C216 C217 1.374 . S
C217 H197 0.950 . S
C217 C213 1.385 . S
C217 C216 1.374 . S
C218 C215 1.499 . S
C218 C219 1.373 . S
C218 C220 1.389 . S
C219 H198 0.950 . S
C219 C218 1.373 . S
C219 C235 1.377 . S
C220 C218 1.389 . S
C220 C221 1.524 . S
C220 C234 1.377 . S
C221 C220 1.524 . S
C221 C222 1.397 . S
C221 C226 1.363 . S
C222 H199 0.950 . S
C222 C221 1.397 . S
C222 C223 1.334 . S
C223 H200 0.950 . S
C223 C222 1.334 . S
C223 C224 1.287 . S
C224 C223 1.287 . S
C224 C225 1.524 . S
C224 H243 0.913 . S
C225 H201 0.950 . S
C225 C224 1.524 . S
C225 C226 1.415 . S
C226 H202 0.950 . S
C226 C221 1.363 . S
C226 C225 1.415 . S
C227 H203 0.951 . S
C227 C228 1.366 . S
C227 C229 1.388 . S
C228 C227 1.366 . S
C228 C232 1.385 . S
C229 H204 0.951 . S
C229 C227 1.388 . S
C229 C230 1.366 . S
C230 C229 1.366 . S
C230 C231 1.414 . S
C230 C233 1.499 . S
C231 H205 0.950 . S
C231 C230 1.414 . S
C231 C232 1.374 . S
C232 H206 0.950 . S
C232 C228 1.385 . S
C232 C231 1.374 . S
C233 C230 1.499 . S
C233 C234 1.373 . S
C233 C235 1.389 . S
C234 H207 0.950 . S
C234 C220 1.377 . S
C234 C233 1.373 . S
C235 C219 1.377 . S
C235 C233 1.389 . S
C235 C236 1.524 . S
C236 C235 1.524 . S
C236 C237 1.397 . S
C236 C241 1.363 . S
C237 H208 0.950 . S
C237 C236 1.397 . S
C237 C238 1.334 . S
C238 H209 0.950 . S
C238 C237 1.334 . S
C238 C239 1.287 . S
C239 C238 1.287 . S
C239 C240 1.524 . S
C239 H242 0.999 . S
C240 H210 0.950 . S
C240 C239 1.524 . S
C240 C241 1.415 . S
C241 H211 0.950 . S
C241 C236 1.363 . S
C241 C240 1.415 . S
H242 C239 0.999 . S
H243 C224 0.913 . S
H244 C262 0.953 . S
H245 C264 0.951 . S
H246 C266 0.950 . S
H247 C267 0.950 . S
H248 C269 0.950 . S
H249 C272 0.950 . S
H250 C273 0.950 . S
H251 C275 0.950 . S
H252 C276 0.950 . S
H253 C277 0.951 . S
H254 C279 0.951 . S
H255 C281 0.950 . S
H256 C282 0.950 . S
H257 C284 0.950 . S
H258 C287 0.950 . S
H259 C288 0.950 . S
H260 C290 0.950 . S
H261 C291 0.950 . S
C262 H244 0.953 . S
C262 C263 1.366 . S
C262 C264 1.388 . S
C263 C262 1.366 . S
C263 C267 1.385 . S
C264 H245 0.951 . S
C264 C262 1.388 . S
C264 C265 1.366 . S
C265 C264 1.366 . S
C265 C266 1.414 . S
C265 C268 1.499 . S
C266 H246 0.950 . S
C266 C265 1.414 . S
C266 C267 1.374 . S
C267 H247 0.950 . S
C267 C263 1.385 . S
C267 C266 1.374 . S
C268 C265 1.499 . S
C268 C269 1.373 1_554 S
C268 C270 1.389 . S
C269 H248 0.950 . S
C269 C268 1.373 1_556 S
C269 C285 1.377 . S
C270 C268 1.389 . S
C270 C271 1.524 . S
C270 C284 1.377 . S
C271 C270 1.524 . S
C271 C272 1.397 . S
C271 C276 1.363 . S
C272 H249 0.950 . S
C272 C271 1.397 . S
C272 C273 1.334 . S
C273 H250 0.950 . S
C273 C272 1.334 . S
C273 C274 1.287 . S
C274 C273 1.287 . S
C274 C275 1.524 . S
C274 H293 0.913 . S
C275 H251 0.950 . S
C275 C274 1.524 . S
C275 C276 1.415 . S
C276 H252 0.950 . S
C276 C271 1.363 . S
C276 C275 1.415 . S
C277 H253 0.951 . S
C277 C278 1.366 . S
C277 C279 1.388 . S
C278 C277 1.366 . S
C278 C282 1.385 . S
C279 H254 0.951 . S
C279 C277 1.388 . S
C279 C280 1.366 . S
C280 C279 1.366 . S
C280 C281 1.414 . S
C280 C283 1.499 . S
C281 H255 0.950 . S
C281 C280 1.414 . S
C281 C282 1.374 . S
C282 H256 0.950 . S
C282 C278 1.385 . S
C282 C281 1.374 . S
C283 C280 1.499 . S
C283 C284 1.373 . S
C283 C285 1.389 1_554 S
C284 H257 0.950 . S
C284 C270 1.377 . S
C284 C283 1.373 . S
C285 C269 1.377 . S
C285 C283 1.389 1_556 S
C285 C286 1.524 . S
C286 C285 1.524 . S
C286 C287 1.397 . S
C286 C291 1.363 . S
C287 H258 0.950 . S
C287 C286 1.397 . S
C287 C288 1.334 . S
C288 H259 0.950 . S
C288 C287 1.334 . S
C288 C289 1.287 . S
C289 C288 1.287 . S
C289 C290 1.524 . S
C289 H292 0.999 . S
C290 H260 0.950 . S
C290 C289 1.524 . S
C290 C291 1.415 . S
C291 H261 0.950 . S
C291 C286 1.363 . S
C291 C290 1.415 . S
H292 C289 0.999 . S
H293 C274 0.913 . S
H294 C312 0.951 . S
H295 C314 0.951 . S
H296 C316 0.950 . S
H297 C317 0.950 . S
H298 C319 0.950 . S
H299 C322 0.950 . S
H300 C323 0.950 . S
H301 C325 0.950 . S
H302 C326 0.950 . S
H303 C327 0.951 . S
H304 C329 0.951 . S
H305 C331 0.950 . S
H306 C332 0.950 . S
H307 C334 0.950 . S
H308 C337 0.950 . S
H309 C338 0.950 . S
H310 C340 0.950 1_655 S
H311 C341 0.950 . S
C312 H294 0.951 . S
C312 C313 1.366 . S
C312 C314 1.388 . S
C313 C312 1.366 . S
C313 C317 1.385 . S
C314 H295 0.951 . S
C314 C312 1.388 . S
C314 C315 1.366 . S
C315 C314 1.366 . S
C315 C316 1.414 . S
C315 C318 1.499 . S
C316 H296 0.950 . S
C316 C315 1.414 . S
C316 C317 1.374 . S
C317 H297 0.950 . S
C317 C313 1.385 . S
C317 C316 1.374 . S
C318 C315 1.499 . S
C318 C319 1.373 . S
C318 C320 1.389 . S
C319 H298 0.950 . S
C319 C318 1.373 . S
C319 C335 1.377 . S
C320 C318 1.389 . S
C320 C321 1.524 . S
C320 C334 1.377 . S
C321 C320 1.524 . S
C321 C322 1.397 . S
C321 C326 1.363 . S
C322 H299 0.950 . S
C322 C321 1.397 . S
C322 C323 1.334 . S
C323 H300 0.950 . S
C323 C322 1.334 . S
C323 C324 1.287 . S
C324 C323 1.287 . S
C324 C325 1.524 . S
C324 H343 0.913 . S
C325 H301 0.950 . S
C325 C324 1.524 . S
C325 C326 1.415 . S
C326 H302 0.950 . S
C326 C321 1.363 . S
C326 C325 1.415 . S
C327 H303 0.951 . S
C327 C328 1.366 . S
C327 C329 1.388 . S
C328 C327 1.366 . S
C328 C332 1.385 . S
C329 H304 0.951 . S
C329 C327 1.388 . S
C329 C330 1.366 . S
C330 C329 1.366 . S
C330 C331 1.414 . S
C330 C333 1.499 . S
C331 H305 0.950 . S
C331 C330 1.414 . S
C331 C332 1.374 . S
C332 H306 0.950 . S
C332 C328 1.385 . S
C332 C331 1.374 . S
C333 C330 1.499 . S
C333 C334 1.373 . S
C333 C335 1.389 . S
C334 H307 0.950 . S
C334 C320 1.377 . S
C334 C333 1.373 . S
C335 C319 1.377 . S
C335 C333 1.389 . S
C335 C336 1.524 . S
C336 C335 1.524 . S
C336 C337 1.397 . S
C336 C341 1.363 . S
C337 H308 0.950 . S
C337 C336 1.397 . S
C337 C338 1.334 . S
C338 H309 0.950 . S
C338 C337 1.334 . S
C338 C339 1.287 . S
C339 C338 1.287 . S
C339 C340 1.524 . S
C339 H342 0.999 1_455 S
C340 H310 0.950 1_455 S
C340 C339 1.524 . S
C340 C341 1.415 . S
C341 H311 0.950 . S
C341 C336 1.363 . S
C341 C340 1.415 . S
H342 C339 0.999 1_655 S
H343 C324 0.913 . S
H344 C362 0.951 . S
H345 C364 0.951 . S
H346 C366 0.950 . S
H347 C367 0.950 . S
H348 C369 0.950 . S
H349 C372 0.950 . S
H350 C373 0.950 . S
H351 C375 0.950 . S
H352 C376 0.950 . S
H353 C377 0.951 . S
H354 C379 0.951 . S
H355 C381 0.950 . S
H356 C382 0.950 . S
H357 C384 0.950 . S
H358 C387 0.950 . S
H359 C388 0.950 . S
H360 C390 0.950 . S
H361 C391 0.950 . S
C362 H344 0.951 . S
C362 C363 1.366 . S
C362 C364 1.388 . S
C363 C362 1.366 . S
C363 C367 1.385 . S
C364 H345 0.951 . S
C364 C362 1.388 . S
C364 C365 1.366 . S
C365 C364 1.366 . S
C365 C366 1.414 . S
C365 C368 1.499 . S
C366 H346 0.950 . S
C366 C365 1.414 . S
C366 C367 1.374 . S
C367 H347 0.950 . S
C367 C363 1.385 . S
C367 C366 1.374 . S
C368 C365 1.499 . S
C368 C369 1.373 . S
C368 C370 1.389 . S
C369 H348 0.950 . S
C369 C368 1.373 . S
C369 C385 1.377 . S
C370 C368 1.389 . S
C370 C371 1.524 . S
C370 C384 1.377 . S
C371 C370 1.524 . S
C371 C372 1.397 . S
C371 C376 1.363 . S
C372 H349 0.950 . S
C372 C371 1.397 . S
C372 C373 1.334 . S
C373 H350 0.950 . S
C373 C372 1.334 . S
C373 C374 1.287 . S
C374 C373 1.287 . S
C374 C375 1.524 . S
C374 H393 0.913 . S
C375 H351 0.950 . S
C375 C374 1.524 . S
C375 C376 1.415 . S
C376 H352 0.950 . S
C376 C371 1.363 . S
C376 C375 1.415 . S
C377 H353 0.951 . S
C377 C378 1.366 . S
C377 C379 1.388 . S
C378 C377 1.366 . S
C378 C382 1.385 . S
C379 H354 0.951 . S
C379 C377 1.388 . S
C379 C380 1.366 . S
C380 C379 1.366 . S
C380 C381 1.414 . S
C380 C383 1.499 . S
C381 H355 0.950 . S
C381 C380 1.414 . S
C381 C382 1.374 . S
C382 H356 0.950 . S
C382 C378 1.385 . S
C382 C381 1.374 . S
C383 C380 1.499 . S
C383 C384 1.373 . S
C383 C385 1.389 . S
C384 H357 0.950 . S
C384 C370 1.377 . S
C384 C383 1.373 . S
C385 C369 1.377 . S
C385 C383 1.389 . S
C385 C386 1.524 . S
C386 C385 1.524 . S
C386 C387 1.397 . S
C386 C391 1.363 . S
C387 H358 0.950 . S
C387 C386 1.397 . S
C387 C388 1.334 . S
C388 H359 0.950 . S
C388 C387 1.334 . S
C388 C389 1.287 . S
C389 C388 1.287 . S
C389 C390 1.524 . S
C389 H392 0.999 . S
C390 H360 0.950 . S
C390 C389 1.524 . S
C390 C391 1.415 . S
C391 H361 0.950 . S
C391 C386 1.363 . S
C391 C390 1.415 . S
H392 C389 0.999 . S
H393 C374 0.913 . S
H394 C412 0.951 . S
H395 C414 0.951 . S
H396 C416 0.950 . S
H397 C417 0.950 . S
H398 C419 0.950 . S
H399 C422 0.950 . S
H400 C423 0.950 . S
H401 C425 0.950 . S
H402 C426 0.950 . S
H403 C427 0.951 . S
H404 C429 0.951 . S
H405 C431 0.950 . S
H406 C432 0.950 . S
H407 C434 0.950 . S
H408 C437 0.950 . S
H409 C438 0.950 . S
H410 C440 0.950 . S
H411 C441 0.950 . S
C412 H394 0.951 . S
C412 C413 1.366 . S
C412 C414 1.388 . S
C413 C412 1.366 . S
C413 C417 1.385 . S
C414 H395 0.951 . S
C414 C412 1.388 . S
C414 C415 1.366 . S
C415 C414 1.366 . S
C415 C416 1.414 . S
C415 C418 1.499 . S
C416 H396 0.950 . S
C416 C415 1.414 . S
C416 C417 1.374 . S
C417 H397 0.950 . S
C417 C413 1.385 . S
C417 C416 1.374 . S
C418 C415 1.499 . S
C418 C419 1.373 . S
C418 C420 1.389 . S
C419 H398 0.950 . S
C419 C418 1.373 . S
C419 C435 1.377 . S
C420 C418 1.389 . S
C420 C421 1.524 . S
C420 C434 1.377 . S
C421 C420 1.524 . S
C421 C422 1.397 . S
C421 C426 1.363 . S
C422 H399 0.950 . S
C422 C421 1.397 . S
C422 C423 1.334 . S
C423 H400 0.950 . S
C423 C422 1.334 . S
C423 C424 1.287 . S
C424 C423 1.287 . S
C424 C425 1.524 . S
C424 H443 0.913 . S
C425 H401 0.950 . S
C425 C424 1.524 . S
C425 C426 1.415 . S
C426 H402 0.950 . S
C426 C421 1.363 . S
C426 C425 1.415 . S
C427 H403 0.951 . S
C427 C428 1.366 . S
C427 C429 1.388 . S
C428 C427 1.366 . S
C428 C432 1.385 . S
C429 H404 0.951 . S
C429 C427 1.388 . S
C429 C430 1.366 . S
C430 C429 1.366 . S
C430 C431 1.414 . S
C430 C433 1.499 . S
C431 H405 0.950 . S
C431 C430 1.414 . S
C431 C432 1.374 . S
C432 H406 0.950 . S
C432 C428 1.385 . S
C432 C431 1.374 . S
C433 C430 1.499 . S
C433 C434 1.373 . S
C433 C435 1.389 . S
C434 H407 0.950 . S
C434 C420 1.377 . S
C434 C433 1.373 . S
C435 C419 1.377 . S
C435 C433 1.389 . S
C435 C436 1.524 . S
C436 C435 1.524 . S
C436 C437 1.397 . S
C436 C441 1.363 . S
C437 H408 0.950 . S
C437 C436 1.397 . S
C437 C438 1.334 . S
C438 H409 0.950 . S
C438 C437 1.334 . S
C438 C439 1.287 . S
C439 C438 1.287 . S
C439 C440 1.524 . S
C439 H442 0.999 . S
C440 H410 0.950 . S
C440 C439 1.524 . S
C440 C441 1.415 . S
C441 H411 0.950 . S
C441 C436 1.363 . S
C441 C440 1.415 . S
H442 C439 0.999 . S
H443 C424 0.913 . S
H444 C462 0.951 . S
H445 C464 0.951 . S
H446 C466 0.950 . S
H447 C467 0.950 . S
H448 C469 0.950 . S
H449 C472 0.950 . S
H450 C473 0.950 . S
H451 C475 0.950 . S
H452 C476 0.950 . S
H453 C477 0.951 . S
H454 C479 0.951 . S
H455 C481 0.950 . S
H456 C482 0.950 . S
H457 C484 0.950 . S
H458 C487 0.950 . S
H459 C488 0.950 . S
H460 C490 0.950 . S
H461 C491 0.950 . S
C462 H444 0.951 . S
C462 C463 1.366 . S
C462 C464 1.388 . S
C463 C462 1.366 . S
C463 C467 1.385 . S
C464 H445 0.951 . S
C464 C462 1.388 . S
C464 C465 1.366 . S
C465 C464 1.366 . S
C465 C466 1.414 . S
C465 C468 1.499 . S
C466 H446 0.950 . S
C466 C465 1.414 . S
C466 C467 1.374 . S
C467 H447 0.950 . S
C467 C463 1.385 . S
C467 C466 1.374 . S
C468 C465 1.499 . S
C468 C469 1.373 . S
C468 C470 1.389 . S
C469 H448 0.950 . S
C469 C468 1.373 . S
C469 C485 1.377 . S
C470 C468 1.389 . S
C470 C471 1.524 . S
C470 C484 1.377 . S
C471 C470 1.524 . S
C471 C472 1.397 . S
C471 C476 1.363 . S
C472 H449 0.950 . S
C472 C471 1.397 . S
C472 C473 1.334 . S
C473 H450 0.950 . S
C473 C472 1.334 . S
C473 C474 1.287 . S
C474 C473 1.287 . S
C474 C475 1.524 . S
C474 H493 0.913 . S
C475 H451 0.950 . S
C475 C474 1.524 . S
C475 C476 1.415 . S
C476 H452 0.950 . S
C476 C471 1.363 . S
C476 C475 1.415 . S
C477 H453 0.951 . S
C477 C478 1.366 . S
C477 C479 1.388 . S
C478 C477 1.366 . S
C478 C482 1.385 . S
C479 H454 0.951 . S
C479 C477 1.388 . S
C479 C480 1.366 . S
C480 C479 1.366 . S
C480 C481 1.414 . S
C480 C483 1.499 . S
C481 H455 0.950 . S
C481 C480 1.414 . S
C481 C482 1.374 . S
C482 H456 0.950 . S
C482 C478 1.385 . S
C482 C481 1.374 . S
C483 C480 1.499 . S
C483 C484 1.373 . S
C483 C485 1.389 . S
C484 H457 0.950 . S
C484 C470 1.377 . S
C484 C483 1.373 . S
C485 C469 1.377 . S
C485 C483 1.389 . S
C485 C486 1.524 . S
C486 C485 1.524 . S
C486 C487 1.397 . S
C486 C491 1.363 . S
C487 H458 0.950 . S
C487 C486 1.397 . S
C487 C488 1.334 . S
C488 H459 0.950 . S
C488 C487 1.334 . S
C488 C489 1.287 . S
C489 C488 1.287 . S
C489 C490 1.524 . S
C489 H492 0.999 . S
C490 H460 0.950 . S
C490 C489 1.524 . S
C490 C491 1.415 . S
C491 H461 0.950 . S
C491 C486 1.363 . S
C491 C490 1.415 . S
H492 C489 0.999 . S
H493 C474 0.913 . S
H494 C512 0.951 . S
H495 C514 0.951 . S
H496 C516 0.950 . S
H497 C517 0.950 . S
H498 C519 0.950 . S
H499 C522 0.950 . S
H500 C523 0.950 . S
H501 C525 0.950 . S
H502 C526 0.950 . S
H503 C527 0.951 . S
H504 C529 0.951 . S
H505 C531 0.950 . S
H506 C532 0.950 . S
H507 C534 0.950 . S
H508 C537 0.950 . S
H509 C538 0.950 . S
H510 C540 0.950 . S
H511 C541 0.950 . S
C512 H494 0.951 . S
C512 C513 1.366 . S
C512 C514 1.388 . S
C513 C512 1.366 . S
C513 C517 1.385 . S
C514 H495 0.951 . S
C514 C512 1.388 . S
C514 C515 1.366 . S
C515 C514 1.366 . S
C515 C516 1.414 . S
C515 C518 1.499 . S
C516 H496 0.950 . S
C516 C515 1.414 . S
C516 C517 1.374 . S
C517 H497 0.950 . S
C517 C513 1.385 . S
C517 C516 1.374 . S
C518 C515 1.499 . S
C518 C519 1.373 . S
C518 C520 1.389 . S
C519 H498 0.950 . S
C519 C518 1.373 . S
C519 C535 1.377 . S
C520 C518 1.389 . S
C520 C521 1.524 . S
C520 C534 1.377 . S
C521 C520 1.524 . S
C521 C522 1.397 . S
C521 C526 1.363 . S
C522 H499 0.950 . S
C522 C521 1.397 . S
C522 C523 1.334 . S
C523 H500 0.950 . S
C523 C522 1.334 . S
C523 C524 1.287 . S
C524 C523 1.287 . S
C524 C525 1.524 . S
C524 H543 0.913 . S
C525 H501 0.950 . S
C525 C524 1.524 . S
C525 C526 1.415 . S
C526 H502 0.950 . S
C526 C521 1.363 . S
C526 C525 1.415 . S
C527 H503 0.951 . S
C527 C528 1.366 . S
C527 C529 1.388 . S
C528 C527 1.366 . S
C528 C532 1.385 . S
C529 H504 0.951 . S
C529 C527 1.388 . S
C529 C530 1.366 . S
C530 C529 1.366 . S
C530 C531 1.414 . S
C530 C533 1.499 . S
C531 H505 0.950 . S
C531 C530 1.414 . S
C531 C532 1.374 . S
C532 H506 0.950 . S
C532 C528 1.385 . S
C532 C531 1.374 . S
C533 C530 1.499 . S
C533 C534 1.373 . S
C533 C535 1.389 . S
C534 H507 0.950 . S
C534 C520 1.377 . S
C534 C533 1.373 . S
C535 C519 1.377 . S
C535 C533 1.389 . S
C535 C536 1.524 . S
C536 C535 1.524 . S
C536 C537 1.397 . S
C536 C541 1.363 . S
C537 H508 0.950 . S
C537 C536 1.397 . S
C537 C538 1.334 . S
C538 H509 0.950 . S
C538 C537 1.334 . S
C538 C539 1.287 . S
C539 C538 1.287 . S
C539 C540 1.524 . S
C539 H542 0.999 . S
C540 H510 0.950 . S
C540 C539 1.524 . S
C540 C541 1.415 . S
C541 H511 0.950 . S
C541 C536 1.363 . S
C541 C540 1.415 . S
H542 C539 0.999 . S
H543 C524 0.913 . S
H544 C562 0.951 . S
H545 C564 0.951 . S
H546 C566 0.950 . S
H547 C567 0.950 . S
H548 C569 0.950 . S
H549 C572 0.950 . S
H550 C573 0.950 . S
H551 C575 0.950 . S
H552 C576 0.950 . S
H553 C577 0.951 . S
H554 C579 0.951 . S
H555 C581 0.950 . S
H556 C582 0.950 . S
H557 C584 0.950 . S
H558 C587 0.950 . S
H559 C588 0.950 . S
H560 C590 0.965 . S
H561 C591 0.950 . S
C562 H544 0.951 . S
C562 C563 1.366 . S
C562 C564 1.388 . S
C563 C562 1.366 . S
C563 C567 1.385 . S
C564 H545 0.951 . S
C564 C562 1.388 . S
C564 C565 1.366 . S
C565 C564 1.366 . S
C565 C566 1.414 . S
C565 C568 1.499 . S
C566 H546 0.950 . S
C566 C565 1.414 . S
C566 C567 1.374 . S
C567 H547 0.950 . S
C567 C563 1.385 . S
C567 C566 1.374 . S
C568 C565 1.499 . S
C568 C569 1.373 . S
C568 C570 1.389 . S
C569 H548 0.950 . S
C569 C568 1.373 . S
C569 C585 1.377 . S
C570 C568 1.389 . S
C570 C571 1.524 . S
C570 C584 1.377 . S
C571 C570 1.524 . S
C571 C572 1.397 . S
C571 C576 1.363 . S
C572 H549 0.950 . S
C572 C571 1.397 . S
C572 C573 1.334 . S
C573 H550 0.950 . S
C573 C572 1.334 . S
C573 C574 1.287 . S
C574 C573 1.287 . S
C574 C575 1.524 . S
C574 H593 0.913 . S
C575 H551 0.950 . S
C575 C574 1.524 . S
C575 C576 1.415 . S
C576 H552 0.950 . S
C576 C571 1.363 . S
C576 C575 1.415 . S
C577 H553 0.951 . S
C577 C578 1.366 . S
C577 C579 1.388 . S
C578 C577 1.366 . S
C578 C582 1.385 . S
C579 H554 0.951 . S
C579 C577 1.388 . S
C579 C580 1.366 . S
C580 C579 1.366 . S
C580 C581 1.414 . S
C580 C583 1.499 . S
C581 H555 0.950 . S
C581 C580 1.414 . S
C581 C582 1.374 . S
C582 H556 0.950 . S
C582 C578 1.385 . S
C582 C581 1.374 . S
C583 C580 1.499 . S
C583 C584 1.373 . S
C583 C585 1.389 . S
C584 H557 0.950 . S
C584 C570 1.377 . S
C584 C583 1.373 . S
C585 C569 1.377 . S
C585 C583 1.389 . S
C585 C586 1.524 . S
C586 C585 1.524 . S
C586 C587 1.397 . S
C586 C591 1.363 . S
C587 H558 0.950 . S
C587 C586 1.397 . S
C587 C588 1.334 . S
C588 H559 0.950 . S
C588 C587 1.334 . S
C588 C589 1.287 . S
C589 C588 1.287 . S
C589 C590 1.524 . S
C589 H592 0.999 . S
C590 H560 0.965 . S
C590 C589 1.524 . S
C590 C591 1.415 . S
C591 H561 0.950 . S
C591 C586 1.363 . S
C591 C590 1.415 . S
H592 C589 0.999 . S
H593 C574 0.913 . S
H594 C612 0.951 . S
H595 C614 0.951 . S
H596 C616 0.950 . S
H597 C617 0.950 . S
H598 C619 0.950 . S
H599 C622 0.950 . S
H600 C623 0.950 . S
H601 C625 0.950 . S
H602 C626 0.950 . S
H603 C627 0.951 . S
H604 C629 0.951 . S
H605 C631 0.950 . S
H606 C632 0.950 . S
H607 C634 0.950 . S
H608 C637 0.950 . S
H609 C638 0.950 . S
H610 C640 0.950 . S
H611 C641 0.950 . S
C612 H594 0.951 . S
C612 C613 1.366 . S
C612 C614 1.388 . S
C613 C612 1.366 . S
C613 C617 1.385 . S
C614 H595 0.951 . S
C614 C612 1.388 . S
C614 C615 1.366 . S
C615 C614 1.366 . S
C615 C616 1.414 . S
C615 C618 1.499 . S
C616 H596 0.950 . S
C616 C615 1.414 . S
C616 C617 1.374 . S
C617 H597 0.950 . S
C617 C613 1.385 . S
C617 C616 1.374 . S
C618 C615 1.499 . S
C618 C619 1.373 . S
C618 C620 1.389 . S
C619 H598 0.950 . S
C619 C618 1.373 . S
C619 C635 1.377 . S
C620 C618 1.389 . S
C620 C621 1.524 . S
C620 C634 1.377 . S
C621 C620 1.524 . S
C621 C622 1.397 . S
C621 C626 1.363 . S
C622 H599 0.950 . S
C622 C621 1.397 . S
C622 C623 1.334 . S
C623 H600 0.950 . S
C623 C622 1.334 . S
C623 C624 1.287 . S
C624 C623 1.287 . S
C624 C625 1.524 . S
C624 H643 0.913 . S
C625 H601 0.950 . S
C625 C624 1.524 . S
C625 C626 1.415 . S
C626 H602 0.950 . S
C626 C621 1.363 . S
C626 C625 1.415 . S
C627 H603 0.951 . S
C627 C628 1.366 . S
C627 C629 1.388 . S
C628 C627 1.366 . S
C628 C632 1.385 . S
C629 H604 0.951 . S
C629 C627 1.388 . S
C629 C630 1.366 . S
C630 C629 1.366 . S
C630 C631 1.414 . S
C630 C633 1.499 . S
C631 H605 0.950 . S
C631 C630 1.414 . S
C631 C632 1.374 . S
C632 H606 0.950 . S
C632 C628 1.385 . S
C632 C631 1.374 . S
C633 C630 1.499 . S
C633 C634 1.373 . S
C633 C635 1.389 . S
C634 H607 0.950 . S
C634 C620 1.377 . S
C634 C633 1.373 . S
C635 C619 1.377 . S
C635 C633 1.389 . S
C635 C636 1.524 . S
C636 C635 1.524 . S
C636 C637 1.397 . S
C636 C641 1.363 . S
C637 H608 0.950 . S
C637 C636 1.397 . S
C637 C638 1.334 . S
C638 H609 0.950 . S
C638 C637 1.334 . S
C638 C639 1.287 . S
C639 C638 1.287 . S
C639 C640 1.524 . S
C639 H642 0.999 . S
C640 H610 0.950 . S
C640 C639 1.524 . S
C640 C641 1.415 . S
C641 H611 0.950 . S
C641 C636 1.363 . S
C641 C640 1.415 . S
H642 C639 0.999 . S
H643 C624 0.913 . S
H644 C662 0.951 . S
H645 C664 0.951 . S
H646 C666 0.950 . S
H647 C667 0.950 . S
H648 C669 0.950 . S
H649 C672 0.950 . S
H650 C673 0.950 . S
H651 C675 0.950 . S
H652 C676 0.950 . S
H653 C677 0.951 . S
H654 C679 0.951 . S
H655 C681 0.950 . S
H656 C682 0.950 . S
H657 C684 0.950 . S
H658 C687 0.950 . S
H659 C688 0.968 . S
H660 C690 0.950 . S
H661 C691 0.950 . S
C662 H644 0.951 . S
C662 C663 1.366 . S
C662 C664 1.388 . S
C663 C662 1.366 . S
C663 C667 1.385 . S
C664 H645 0.951 . S
C664 C662 1.388 . S
C664 C665 1.366 . S
C665 C664 1.366 . S
C665 C666 1.414 . S
C665 C668 1.499 . S
C666 H646 0.950 . S
C666 C665 1.414 . S
C666 C667 1.374 . S
C667 H647 0.950 . S
C667 C663 1.385 . S
C667 C666 1.374 . S
C668 C665 1.499 . S
C668 C669 1.373 . S
C668 C670 1.389 . S
C669 H648 0.950 . S
C669 C668 1.373 . S
C669 C685 1.377 . S
C670 C668 1.389 . S
C670 C671 1.524 . S
C670 C684 1.377 . S
C671 C670 1.524 . S
C671 C672 1.397 . S
C671 C676 1.363 . S
C672 H649 0.950 . S
C672 C671 1.397 . S
C672 C673 1.334 . S
C673 H650 0.950 . S
C673 C672 1.334 . S
C673 C674 1.287 . S
C674 C673 1.287 . S
C674 C675 1.524 . S
C674 H693 0.913 . S
C675 H651 0.950 . S
C675 C674 1.524 . S
C675 C676 1.415 . S
C676 H652 0.950 . S
C676 C671 1.363 . S
C676 C675 1.415 . S
C677 H653 0.951 . S
C677 C678 1.366 . S
C677 C679 1.388 . S
C678 C677 1.366 . S
C678 C682 1.385 . S
C679 H654 0.951 . S
C679 C677 1.388 . S
C679 C680 1.366 . S
C680 C679 1.366 . S
C680 C681 1.414 . S
C680 C683 1.499 . S
C681 H655 0.950 . S
C681 C680 1.414 . S
C681 C682 1.374 . S
C682 H656 0.950 . S
C682 C678 1.385 . S
C682 C681 1.374 . S
C683 C680 1.499 . S
C683 C684 1.373 . S
C683 C685 1.389 . S
C684 H657 0.950 . S
C684 C670 1.377 . S
C684 C683 1.373 . S
C685 C669 1.377 . S
C685 C683 1.389 . S
C685 C686 1.524 . S
C686 C685 1.524 . S
C686 C687 1.397 . S
C686 C691 1.363 . S
C687 H658 0.950 . S
C687 C686 1.397 . S
C687 C688 1.313 1_455 S
C688 H659 0.968 . S
C688 C687 1.313 1_655 S
C688 C689 1.290 . S
C689 C688 1.290 . S
C689 C690 1.524 1_655 S
C689 H692 0.999 . S
C690 H660 0.950 . S
C690 C689 1.524 1_455 S
C690 C691 1.415 . S
C691 H661 0.950 . S
C691 C686 1.363 . S
C691 C690 1.415 . S
H692 C689 0.999 . S
H693 C674 0.913 . S
C128 C65 1.484 . S
C113 C40 1.479 . S
C163 C4 1.481 . S
C178 C88 1.485 . S
C213 C16 1.519 . S
C228 C64 1.526 . S
C263 C28 1.520 . S
C278 C87 1.525 . S
C328 C68 1.460 . S
C313 C9 1.478 . S
C378 C90 1.491 . S
C363 C18 1.536 . S
C413 C33 1.495 . S
C428 C69 1.465 . S
C463 C45 1.516 . S
C478 C89 1.482 . S
C528 C92 1.389 . S
C513 C21 1.418 . S
C578 C67 1.419 . S
C563 C30 1.466 . S
C628 C91 1.387 . S
C613 C42 1.419 . S
C663 C6 1.448 . S
C678 C66 1.406 . S
