# Generated by pormake.
# Topology ptr, (4,4)-cn, num edge types: 1
# Building blocks:
#     Node 0, Type 0, BuildingBlock: QUQFOY_clean_sbu_3, # of connection points: 4
#     Node 1, Type 0, BuildingBlock: QUQFOY_clean_sbu_3, # of connection points: 4
#     Node 2, Type 0, BuildingBlock: QUQFOY_clean_sbu_3, # of connection points: 4
#     Node 3, Type 0, BuildingBlock: QUQFOY_clean_sbu_3, # of connection points: 4
#     Node 4, Type 0, BuildingBlock: QUQFOY_clean_sbu_3, # of connection points: 4
#     Node 5, Type 0, BuildingBlock: QUQFOY_clean_sbu_3, # of connection points: 4
#     Node 6, Type 0, BuildingBlock: QUQFOY_clean_sbu_3, # of connection points: 4
#     Node 7, Type 0, BuildingBlock: QUQFOY_clean_sbu_3, # of connection points: 4
#     Node 8, Type 0, BuildingBlock: QUQFOY_clean_sbu_3, # of connection points: 4
#     Node 9, Type 0, BuildingBlock: QUQFOY_clean_sbu_3, # of connection points: 4
#     Node 10, Type 0, BuildingBlock: QUQFOY_clean_sbu_3, # of connection points: 4
#     Node 11, Type 0, BuildingBlock: QUQFOY_clean_sbu_3, # of connection points: 4
#     Node 12, Type 0, BuildingBlock: QUQFOY_clean_sbu_3, # of connection points: 4
#     Node 13, Type 0, BuildingBlock: QUQFOY_clean_sbu_3, # of connection points: 4
#     Node 14, Type 0, BuildingBlock: QUQFOY_clean_sbu_3, # of connection points: 4
#     Node 15, Type 0, BuildingBlock: QUQFOY_clean_sbu_3, # of connection points: 4
#     Node 16, Type 0, BuildingBlock: QUQFOY_clean_sbu_3, # of connection points: 4
#     Node 17, Type 0, BuildingBlock: QUQFOY_clean_sbu_3, # of connection points: 4
#     Node 18, Type 1, BuildingBlock: MUDLON_clean_linker_0, # of connection points: 4
#     Node 19, Type 1, BuildingBlock: MUDLON_clean_linker_0, # of connection points: 4
#     Node 20, Type 1, BuildingBlock: MUDLON_clean_linker_0, # of connection points: 4
#     Node 21, Type 1, BuildingBlock: MUDLON_clean_linker_0, # of connection points: 4
#     Node 22, Type 1, BuildingBlock: MUDLON_clean_linker_0, # of connection points: 4
#     Node 23, Type 1, BuildingBlock: MUDLON_clean_linker_0, # of connection points: 4
#     Node 24, Type 1, BuildingBlock: MUDLON_clean_linker_0, # of connection points: 4
#     Node 25, Type 1, BuildingBlock: MUDLON_clean_linker_0, # of connection points: 4
#     Node 26, Type 1, BuildingBlock: MUDLON_clean_linker_0, # of connection points: 4
#     Node 27, Type 1, BuildingBlock: MUDLON_clean_linker_0, # of connection points: 4
#     Node 28, Type 1, BuildingBlock: MUDLON_clean_linker_0, # of connection points: 4
#     Node 29, Type 1, BuildingBlock: MUDLON_clean_linker_0, # of connection points: 4
#     Node 30, Type 1, BuildingBlock: MUDLON_clean_linker_0, # of connection points: 4
#     Node 31, Type 1, BuildingBlock: MUDLON_clean_linker_0, # of connection points: 4
#     Node 32, Type 1, BuildingBlock: MUDLON_clean_linker_0, # of connection points: 4
#     Node 33, Type 1, BuildingBlock: MUDLON_clean_linker_0, # of connection points: 4
#     Node 34, Type 1, BuildingBlock: MUDLON_clean_linker_0, # of connection points: 4
#     Node 35, Type 1, BuildingBlock: MUDLON_clean_linker_0, # of connection points: 4
#     Edge 36, Type (0, 1), BuildingBlock: OJICUG_clean_linker_0, # of connection points: 2
#     Edge 37, Type (0, 1), BuildingBlock: OJICUG_clean_linker_0, # of connection points: 2
#     Edge 38, Type (0, 1), BuildingBlock: OJICUG_clean_linker_0, # of connection points: 2
#     Edge 39, Type (0, 1), BuildingBlock: OJICUG_clean_linker_0, # of connection points: 2
#     Edge 40, Type (0, 1), BuildingBlock: OJICUG_clean_linker_0, # of connection points: 2
#     Edge 41, Type (0, 1), BuildingBlock: OJICUG_clean_linker_0, # of connection points: 2
#     Edge 42, Type (0, 1), BuildingBlock: OJICUG_clean_linker_0, # of connection points: 2
#     Edge 43, Type (0, 1), BuildingBlock: OJICUG_clean_linker_0, # of connection points: 2
#     Edge 44, Type (0, 1), BuildingBlock: OJICUG_clean_linker_0, # of connection points: 2
#     Edge 45, Type (0, 1), BuildingBlock: OJICUG_clean_linker_0, # of connection points: 2
#     Edge 46, Type (0, 1), BuildingBlock: OJICUG_clean_linker_0, # of connection points: 2
#     Edge 47, Type (0, 1), BuildingBlock: OJICUG_clean_linker_0, # of connection points: 2
#     Edge 48, Type (0, 1), BuildingBlock: OJICUG_clean_linker_0, # of connection points: 2
#     Edge 49, Type (0, 1), BuildingBlock: OJICUG_clean_linker_0, # of connection points: 2
#     Edge 50, Type (0, 1), BuildingBlock: OJICUG_clean_linker_0, # of connection points: 2
#     Edge 51, Type (0, 1), BuildingBlock: OJICUG_clean_linker_0, # of connection points: 2
#     Edge 52, Type (0, 1), BuildingBlock: OJICUG_clean_linker_0, # of connection points: 2
#     Edge 53, Type (0, 1), BuildingBlock: OJICUG_clean_linker_0, # of connection points: 2
#     Edge 54, Type (0, 1), BuildingBlock: OJICUG_clean_linker_0, # of connection points: 2
#     Edge 55, Type (0, 1), BuildingBlock: OJICUG_clean_linker_0, # of connection points: 2
#     Edge 56, Type (0, 1), BuildingBlock: OJICUG_clean_linker_0, # of connection points: 2
#     Edge 57, Type (0, 1), BuildingBlock: OJICUG_clean_linker_0, # of connection points: 2
#     Edge 58, Type (0, 1), BuildingBlock: OJICUG_clean_linker_0, # of connection points: 2
#     Edge 59, Type (0, 1), BuildingBlock: OJICUG_clean_linker_0, # of connection points: 2
#     Edge 60, Type (0, 1), BuildingBlock: OJICUG_clean_linker_0, # of connection points: 2
#     Edge 61, Type (0, 1), BuildingBlock: OJICUG_clean_linker_0, # of connection points: 2
#     Edge 62, Type (0, 1), BuildingBlock: OJICUG_clean_linker_0, # of connection points: 2
#     Edge 63, Type (0, 1), BuildingBlock: OJICUG_clean_linker_0, # of connection points: 2
#     Edge 64, Type (0, 1), BuildingBlock: OJICUG_clean_linker_0, # of connection points: 2
#     Edge 65, Type (0, 1), BuildingBlock: OJICUG_clean_linker_0, # of connection points: 2
#     Edge 66, Type (0, 1), BuildingBlock: OJICUG_clean_linker_0, # of connection points: 2
#     Edge 67, Type (0, 1), BuildingBlock: OJICUG_clean_linker_0, # of connection points: 2
#     Edge 68, Type (0, 1), BuildingBlock: OJICUG_clean_linker_0, # of connection points: 2
#     Edge 69, Type (0, 1), BuildingBlock: OJICUG_clean_linker_0, # of connection points: 2
#     Edge 70, Type (0, 1), BuildingBlock: OJICUG_clean_linker_0, # of connection points: 2
#     Edge 71, Type (0, 1), BuildingBlock: OJICUG_clean_linker_0, # of connection points: 2
#     Edge 72, Type (0, 1), BuildingBlock: OJICUG_clean_linker_0, # of connection points: 2
#     Edge 73, Type (0, 1), BuildingBlock: OJICUG_clean_linker_0, # of connection points: 2
#     Edge 74, Type (0, 1), BuildingBlock: OJICUG_clean_linker_0, # of connection points: 2
#     Edge 75, Type (0, 1), BuildingBlock: OJICUG_clean_linker_0, # of connection points: 2
#     Edge 76, Type (0, 1), BuildingBlock: OJICUG_clean_linker_0, # of connection points: 2
#     Edge 77, Type (0, 1), BuildingBlock: OJICUG_clean_linker_0, # of connection points: 2
#     Edge 78, Type (0, 1), BuildingBlock: OJICUG_clean_linker_0, # of connection points: 2
#     Edge 79, Type (0, 1), BuildingBlock: OJICUG_clean_linker_0, # of connection points: 2
#     Edge 80, Type (0, 1), BuildingBlock: OJICUG_clean_linker_0, # of connection points: 2
#     Edge 81, Type (0, 1), BuildingBlock: OJICUG_clean_linker_0, # of connection points: 2
#     Edge 82, Type (0, 1), BuildingBlock: OJICUG_clean_linker_0, # of connection points: 2
#     Edge 83, Type (0, 1), BuildingBlock: OJICUG_clean_linker_0, # of connection points: 2
#     Edge 84, Type (0, 1), BuildingBlock: OJICUG_clean_linker_0, # of connection points: 2
#     Edge 85, Type (0, 1), BuildingBlock: OJICUG_clean_linker_0, # of connection points: 2
#     Edge 86, Type (0, 1), BuildingBlock: OJICUG_clean_linker_0, # of connection points: 2
#     Edge 87, Type (0, 1), BuildingBlock: OJICUG_clean_linker_0, # of connection points: 2
#     Edge 88, Type (0, 1), BuildingBlock: OJICUG_clean_linker_0, # of connection points: 2
#     Edge 89, Type (0, 1), BuildingBlock: OJICUG_clean_linker_0, # of connection points: 2
#     Edge 90, Type (0, 1), BuildingBlock: OJICUG_clean_linker_0, # of connection points: 2
#     Edge 91, Type (0, 1), BuildingBlock: OJICUG_clean_linker_0, # of connection points: 2
#     Edge 92, Type (0, 1), BuildingBlock: OJICUG_clean_linker_0, # of connection points: 2
#     Edge 93, Type (0, 1), BuildingBlock: OJICUG_clean_linker_0, # of connection points: 2
#     Edge 94, Type (0, 1), BuildingBlock: OJICUG_clean_linker_0, # of connection points: 2
#     Edge 95, Type (0, 1), BuildingBlock: OJICUG_clean_linker_0, # of connection points: 2
#     Edge 96, Type (0, 1), BuildingBlock: OJICUG_clean_linker_0, # of connection points: 2
#     Edge 97, Type (0, 1), BuildingBlock: OJICUG_clean_linker_0, # of connection points: 2
#     Edge 98, Type (0, 1), BuildingBlock: OJICUG_clean_linker_0, # of connection points: 2
#     Edge 99, Type (0, 1), BuildingBlock: OJICUG_clean_linker_0, # of connection points: 2
#     Edge 100, Type (0, 1), BuildingBlock: OJICUG_clean_linker_0, # of connection points: 2
#     Edge 101, Type (0, 1), BuildingBlock: OJICUG_clean_linker_0, # of connection points: 2
#     Edge 102, Type (0, 1), BuildingBlock: OJICUG_clean_linker_0, # of connection points: 2
#     Edge 103, Type (0, 1), BuildingBlock: OJICUG_clean_linker_0, # of connection points: 2
#     Edge 104, Type (0, 1), BuildingBlock: OJICUG_clean_linker_0, # of connection points: 2
#     Edge 105, Type (0, 1), BuildingBlock: OJICUG_clean_linker_0, # of connection points: 2
#     Edge 106, Type (0, 1), BuildingBlock: OJICUG_clean_linker_0, # of connection points: 2
#     Edge 107, Type (0, 1), BuildingBlock: OJICUG_clean_linker_0, # of connection points: 2
# Relax obj value: 0.029
# Max RMSD: 0.100
# Mean RMSD: 0.063
data_MOF--net-ptr--node1-QUQFOY_clean_sbu_3--node2-MUDLON_clean_linker_0--edge1-OJICUG_clean_linker_0
_symmetry_space_group_name_H-M    P1
_symmetry_Int_Tables_number       1
_symmetry_cell_setting            triclinic
loop_
_symmetry_equiv_pos_as_xyz
'x, y, z'
_cell_length_a     84.836399
_cell_length_b     85.295469
_cell_length_c     51.567858
_cell_angle_alpha  90.223278
_cell_angle_beta   89.599529
_cell_angle_gamma 120.5158
loop_
_atom_site_label
_atom_site_type_symbol
_atom_site_fract_x
_atom_site_fract_y
_atom_site_fract_z
_atom_type_partial_charge
C0 C 0.96539 0.33726 0.00447 0.0
O1 O 0.95757 0.34532 0.01398 0.0
Cd2 Cd 0.97578 0.37612 0.02912 0.0
O3 O 0.98277 0.34495 0.00478 0.0
Cd4 Cd 0.01031 0.37286 0.02063 0.0
C5 C 0.00303 0.39636 0.97515 0.0
O6 O -0.0027 0.37769 0.06069 0.0
O7 O 0.02325 0.4 0.04758 0.0
O8 O 0.01821 0.35024 0.03272 0.0
C9 C 0.01099 0.39337 0.06503 0.0
O10 O 0.98996 0.39414 0.98995 0.0
C11 C 0.0352 0.36 0.028 0.0
O12 O 0.01266 0.38929 0.98083 0.0
O13 O 0.04088 0.37595 0.01944 0.0
C14 C 0.62846 0.67828 0.02889 0.0
O15 O 0.61147 0.67067 0.02422 0.0
Cd16 Cd 0.59528 0.63998 0.00818 0.0
O17 O 0.63716 0.67012 0.02363 0.0
Cd18 Cd 0.63299 0.64187 0.0037 0.0
C19 C 0.60635 0.61794 0.05419 0.0
O20 O 0.61107 0.63833 0.97016 0.0
O21 O 0.61501 0.61549 0.97611 0.0
O22 O 0.6614 0.66246 0.98165 0.0
C23 C 0.60788 0.62276 0.96286 0.0
O24 O 0.59452 0.62115 0.04438 0.0
C25 C 0.66954 0.65382 0.98672 0.0
O26 O 0.62212 0.62439 0.04386 0.0
O27 O 0.66065 0.63932 -7e-05 0.0
C28 C 0.32886 0.9512 0.02077 0.0
O29 O 0.33666 0.94219 0.01555 0.0
Cd30 Cd 0.36741 0.95657 -0.0011 0.0
O31 O 0.33698 0.96825 0.01636 0.0
Cd32 Cd 0.36563 0.99346 -0.00216 0.0
C33 C 0.39006 0.98912 0.04612 0.0
O34 O 0.36796 0.97505 0.9637 0.0
O35 O 0.39065 0.00266 0.96632 0.0
O36 O 0.34554 0.00234 0.97822 0.0
C37 C 0.3831 0.98748 0.95461 0.0
O38 O 0.38661 0.97428 0.03524 0.0
C39 C 0.35416 0.01877 0.98579 0.0
O40 O 0.38366 -0.0014 0.03704 0.0
O41 O 0.36843 0.02367 -0.00076 0.0
C42 C 0.94636 0.62512 0.00985 0.0
O43 O 0.93658 0.60896 0.01813 0.0
Cd44 Cd 0.95131 0.59308 0.03403 0.0
O45 O 0.96373 0.63305 0.01105 0.0
Cd46 Cd 0.98886 0.62876 0.02612 0.0
C47 C 0.97751 0.59676 0.98046 0.0
O48 O 0.97398 0.61162 0.06576 0.0
O49 O -0.00186 0.61137 0.05292 0.0
O50 O 0.00022 0.66015 0.03814 0.0
C51 C 0.98596 0.60726 0.07019 0.0
O52 O 0.96418 0.5867 0.99551 0.0
C53 C 0.01696 0.66582 0.03349 0.0
O54 O 0.98837 0.61345 0.98587 0.0
O55 O 0.02099 0.65423 0.02521 0.0
C56 C 0.33493 0.37209 0.02772 0.0
O57 O 0.3433 0.38888 0.02192 0.0
Cd58 Cd 0.37434 0.40401 0.00597 0.0
O59 O 0.34272 0.36282 0.0245 0.0
Cd60 Cd 0.3721 0.36725 0.00817 0.0
C61 C 0.39569 0.39662 0.05611 0.0
O62 O 0.37639 0.38659 0.97055 0.0
O63 O 0.39984 0.38484 0.98222 0.0
O64 O 0.35411 0.33741 0.98819 0.0
C65 C 0.39242 0.38982 0.96546 0.0
O66 O 0.39436 0.40842 0.04275 0.0
C67 C 0.36392 0.33115 -0.00372 0.0
O68 O 0.38759 0.38003 0.04907 0.0
O69 O 0.37738 0.34156 0.01059 0.0
C70 C 0.66885 0.04048 -0.00196 0.0
O71 O 0.66073 0.04839 0.00703 0.0
Cd72 Cd 0.62917 0.02964 0.0197 0.0
O73 O 0.66113 0.02322 -0.00102 0.0
Cd74 Cd 0.63369 0.99619 0.01678 0.0
C75 C 0.61053 0.00029 0.96765 0.0
O76 O 0.62616 0.0092 0.05416 0.0
O77 O 0.60506 0.98271 0.04076 0.0
O78 O 0.65591 0.99101 0.03804 0.0
C79 C 0.61051 0.99515 0.05775 0.0
O80 O 0.61267 0.01418 0.98006 0.0
C81 C 0.64916 0.97453 0.03124 0.0
O82 O 0.61726 0.99093 0.9761 0.0
O83 O 0.63491 0.96778 0.01719 0.0
C84 C 0.62976 0.66483 0.33269 0.0
O85 O 0.62106 0.67281 0.33873 0.0
Cd86 Cd 0.63751 0.70404 0.35267 0.0
O87 O 0.64704 0.673 0.33548 0.0
Cd88 Cd 0.67257 0.70222 0.35164 0.0
C89 C 0.66802 0.72548 0.30272 0.0
O90 O 0.65776 0.70828 0.38806 0.0
O91 O 0.68341 0.73097 0.37435 0.0
O92 O 0.68407 0.68786 0.37997 0.0
C93 C 0.67092 0.72443 0.39154 0.0
O94 O 0.65347 0.72234 0.31453 0.0
C95 C 0.6986 0.69231 0.36732 0.0
O96 O 0.67773 0.71918 0.31135 0.0
O97 O 0.70131 0.70151 0.34675 0.0
C98 C 0.29331 0.00426 0.36115 0.0
O99 O 0.27642 0.99621 0.35566 0.0
Cd100 Cd 0.26168 0.96626 0.33697 0.0
O101 O 0.30267 0.99678 0.3559 0.0
Cd102 Cd 0.299 0.9689 0.33514 0.0
C103 C 0.27098 0.94308 0.38278 0.0
O104 O 0.2792 0.96705 0.29951 0.0
O105 O 0.28029 0.94274 0.30685 0.0
O106 O 0.32961 0.99035 0.3192 0.0
C107 C 0.27527 0.95128 0.29222 0.0
O108 O 0.25883 0.94497 0.3712 0.0
C109 C 0.33574 0.97958 0.32101 0.0
O110 O 0.28752 0.95156 0.37497 0.0
O111 O 0.3248 0.9637 0.32953 0.0
C112 C 0.98939 0.28316 0.35069 0.0
O113 O 0.99515 0.27292 0.34236 0.0
Cd114 Cd 0.02609 0.28516 0.32729 0.0
O115 O -0.00039 0.30041 0.34971 0.0
Cd116 Cd 0.03019 0.32407 0.334 0.0
C117 C 0.0495 0.31138 0.38015 0.0
O118 O 0.03179 0.308 0.29584 0.0
O119 O 0.05706 0.33202 0.30686 0.0
O120 O 0.01521 0.33881 0.3144 0.0
C121 C 0.04841 0.31932 0.29061 0.0
O122 O 0.04527 0.29761 0.3658 0.0
C123 C 0.02547 0.35441 0.32422 0.0
O124 O 0.04481 0.32289 0.37403 0.0
O125 O 0.03793 0.35599 0.33943 0.0
C126 C 0.6157 0.94357 0.33244 0.0
O127 O 0.61024 0.92689 0.33635 0.0
Cd128 Cd 0.62938 0.91663 0.35445 0.0
O129 O 0.63209 0.95579 0.33769 0.0
Cd130 Cd 0.66019 0.95751 0.35482 0.0
C131 C 0.66153 0.93116 0.30641 0.0
O132 O 0.64445 0.93641 0.39068 0.0
O133 O 0.67283 0.94468 0.38526 0.0
O134 O 0.66591 0.98728 0.3691 0.0
C135 C 0.65846 0.93642 0.39901 0.0
O136 O 0.64898 0.91759 0.3187 0.0
C137 C 0.6831 0.99548 0.3656 0.0
O138 O 0.66726 0.9473 0.3144 0.0
O139 O 0.68973 0.98608 0.35691 0.0
C140 C 0.99558 0.7068 0.36634 0.0
O141 O 0.00291 0.72356 0.36075 0.0
Cd142 Cd 0.03325 0.74002 0.34291 0.0
O143 O 0.00393 0.69822 0.36141 0.0
Cd144 Cd 0.03248 0.70277 0.34102 0.0
C145 C 0.05728 0.73177 0.38898 0.0
O146 O 0.0337 0.72268 0.30617 0.0
O147 O 0.05753 0.72001 0.31034 0.0
O148 O 0.01244 0.6726 0.32318 0.0
C149 C 0.04913 0.72609 0.29742 0.0
O150 O 0.05344 0.74296 0.37871 0.0
C151 C 0.02276 0.66629 0.32835 0.0
O152 O 0.05094 0.71586 0.37966 0.0
O153 O 0.03774 0.67696 0.33963 0.0
C154 C 0.34286 0.37875 0.33326 0.0
O155 O 0.33496 0.38756 0.33914 0.0
Cd156 Cd 0.30398 0.37191 0.35577 0.0
O157 O 0.33479 0.36167 0.33715 0.0
Cd158 Cd 0.30624 0.33646 0.35535 0.0
C159 C 0.28175 0.34067 0.30741 0.0
O160 O 0.30218 0.35296 0.39141 0.0
O161 O 0.27936 0.32615 0.38314 0.0
O162 O 0.32682 0.32825 0.37513 0.0
C163 C 0.28644 0.34001 0.39781 0.0
O164 O 0.28388 0.35457 0.31978 0.0
C165 C 0.31821 0.31163 0.36845 0.0
O166 O 0.28951 0.33205 0.31496 0.0
O167 O 0.3037 0.30628 0.35536 0.0
C168 C 0.29284 0.99465 0.66174 0.0
O169 O 0.28401 0.00244 0.66813 0.0
Cd170 Cd 0.2993 0.03254 0.68673 0.0
O171 O 0.30995 0.00238 0.66598 0.0
Cd172 Cd 0.33533 0.03007 0.68567 0.0
C173 C 0.33182 0.05614 0.63965 0.0
O174 O 0.31772 0.03245 0.72168 0.0
O175 O 0.3449 0.05547 0.71585 0.0
O176 O 0.34316 0.00859 0.70298 0.0
C177 C 0.33042 0.0478 0.7295 0.0
O178 O 0.31763 0.05355 0.652 0.0
C179 C 0.36008 0.01765 0.69745 0.0
O180 O 0.3404 0.04818 0.6465 0.0
O181 O 0.36581 0.03285 0.68617 0.0
C182 C 0.95753 0.34267 0.68626 0.0
O183 O 0.94069 0.3356 0.68087 0.0
Cd184 Cd 0.92265 0.30466 0.66621 0.0
O185 O 0.9657 0.33377 0.68264 0.0
Cd186 Cd 0.9589 0.30393 0.66519 0.0
C187 C 0.93024 0.28273 0.71565 0.0
O188 O 0.93858 0.30131 0.62986 0.0
O189 O 0.93904 0.2769 0.63909 0.0
O190 O 0.98851 0.31972 0.64312 0.0
C191 C 0.93386 0.28507 0.62397 0.0
O192 O 0.91861 0.28528 0.70378 0.0
C193 C 0.99413 0.30949 0.65167 0.0
O194 O 0.94634 0.28907 0.7066 0.0
O195 O 0.98343 0.29675 0.66687 0.0
C196 C 0.66411 0.62085 0.69226 0.0
O197 O 0.67202 0.61166 0.68977 0.0
Cd198 Cd 0.7023 0.62382 0.67252 0.0
O199 O 0.67223 0.63758 0.68578 0.0
Cd200 Cd 0.70238 0.66088 0.66789 0.0
C201 C 0.72611 0.65649 0.71784 0.0
O202 O 0.70341 0.64088 0.63468 0.0
O203 O 0.72711 0.66786 0.63693 0.0
O204 O 0.68586 0.67405 0.64729 0.0
C205 C 0.71872 0.65271 0.62525 0.0
O206 O 0.72229 0.64118 0.70834 0.0
C207 C 0.69669 0.69021 0.6549 0.0
O208 O 0.72012 0.66594 0.70742 0.0
O209 O 0.71005 0.69267 0.66882 0.0
C210 C 0.28562 0.28782 0.66778 0.0
O211 O 0.27816 0.2708 0.67137 0.0
Cd212 Cd 0.29577 0.25756 0.68597 0.0
O213 O 0.3027 0.29819 0.67138 0.0
Cd214 Cd 0.32899 0.29512 0.68403 0.0
C215 C 0.32421 0.26719 0.63447 0.0
O216 O 0.31556 0.27481 0.72153 0.0
O217 O 0.34104 0.27835 0.70663 0.0
O218 O 0.34042 0.32396 0.70653 0.0
C219 C 0.32913 0.27259 0.72459 0.0
O220 O 0.3116 0.25464 0.64813 0.0
C221 C 0.3562 0.33179 0.69615 0.0
O222 O 0.33194 0.2837 0.64186 0.0
O223 O 0.35936 0.32262 0.67961 0.0
C224 C 0.66467 0.04143 0.69677 0.0
O225 O 0.67268 0.05848 0.69303 0.0
Cd226 Cd 0.70242 0.0748 0.67295 0.0
O227 O 0.67244 0.03246 0.69077 0.0
Cd228 Cd 0.70155 0.03716 0.67251 0.0
C229 C 0.72689 0.06769 0.7192 0.0
O230 O 0.7025 0.05654 0.6374 0.0
O231 O 0.72639 0.0539 0.64103 0.0
O232 O 0.68194 0.00762 0.65328 0.0
C233 C 0.7178 0.05985 0.62826 0.0
O234 O 0.72359 0.07875 0.70732 0.0
C235 C 0.6912 0.00045 0.66011 0.0
O236 O 0.71973 0.05122 0.71171 0.0
O237 O 0.70557 0.01038 0.67319 0.0
C238 C 0.00661 0.71251 0.66602 0.0
O239 O -0.0006 0.72216 0.67037 0.0
Cd240 Cd 0.9688 0.70938 0.68712 0.0
O241 O -0.00208 0.69559 0.6714 0.0
Cd242 Cd 0.96836 0.67259 0.69092 0.0
C243 C 0.94417 0.67653 0.64188 0.0
O244 O 0.96678 0.69197 0.72497 0.0
O245 O 0.94296 0.66521 0.7205 0.0
O246 O 0.98514 0.66028 0.7128 0.0
C247 C 0.95116 0.67991 0.7333 0.0
O248 O 0.94828 0.69188 0.65161 0.0
C249 C 0.97492 0.64405 0.70501 0.0
O250 O 0.95026 0.66702 0.65179 0.0
O251 O 0.96177 0.64113 0.69027 0.0
H252 H 0.22708 0.34247 0.16759 0.0
N253 N 0.2204 0.31469 0.13424 0.0
H254 H 0.24077 0.34752 0.2103 0.0
H255 H 0.227 0.29208 0.16084 0.0
H256 H 0.23954 0.29628 0.20453 0.0
H257 H 0.22675 0.29876 0.09445 0.0
H258 H 0.25282 0.31238 0.06434 0.0
H259 H 0.24708 0.35086 0.13163 0.0
H260 H 0.27321 0.36432 0.10248 0.0
H261 H 0.21669 0.34406 0.12198 0.0
H262 H 0.18678 0.28629 0.13647 0.0
H263 H 0.1881 0.34355 0.11478 0.0
H264 H 0.15798 0.28573 0.13039 0.0
H265 H 0.10538 0.33996 0.14394 0.0
H266 H 0.09388 0.34222 0.18646 0.0
H267 H 0.07174 0.28462 0.19833 0.0
H268 H 0.08315 0.28246 0.15543 0.0
H269 H 0.06678 0.29206 0.10227 0.0
H270 H 0.05275 0.30458 0.07492 0.0
H271 H 0.10533 0.3539 0.06559 0.0
H272 H 0.11887 0.34159 0.09473 0.0
H273 H 0.13271 0.33828 0.13692 0.0
H274 H 0.16231 0.34022 0.13809 0.0
H275 H 0.13907 0.28826 0.09901 0.0
N276 N 0.10036 0.30886 0.12072 0.0
H277 H 0.10918 0.28608 0.09913 0.0
C278 C 0.22628 0.31698 0.16084 0.0
C279 C 0.22976 0.33233 0.17548 0.0
C280 C 0.23744 0.33509 0.20016 0.0
C281 C 0.24147 0.32239 0.21099 0.0
C282 C 0.2371 0.30661 0.19669 0.0
C283 C 0.22973 0.30404 0.17183 0.0
C284 C 0.23495 0.32363 0.11542 0.0
C285 C 0.23674 0.31314 0.09596 0.0
C286 C 0.25168 0.32092 0.07893 0.0
C287 C 0.26519 0.33942 0.08112 0.0
C288 C 0.26298 0.35009 0.10002 0.0
C289 C 0.24802 0.34231 0.11695 0.0
C290 C 0.20388 0.31509 0.12955 0.0
C291 C 0.204 0.33123 0.12358 0.0
C292 C 0.18756 0.33095 0.11964 0.0
C293 C 0.17068 0.31459 0.12187 0.0
C294 C 0.17068 0.29852 0.12792 0.0
C295 C 0.18711 0.2988 0.13164 0.0
C296 C 0.09504 0.31096 0.14653 0.0
C297 C 0.09825 0.32786 0.15579 0.0
C298 C 0.09172 0.32915 0.18017 0.0
C299 C 0.08184 0.31358 0.19571 0.0
C300 C 0.0791 0.29681 0.18666 0.0
C301 C 0.08568 0.29555 0.1623 0.0
C302 C 0.0938 0.31574 0.10054 0.0
C303 C 0.07531 0.30543 0.09388 0.0
C304 C 0.06735 0.31266 0.078 0.0
C305 C 0.07782 0.33038 0.06783 0.0
C306 C 0.09669 0.34036 0.07338 0.0
C307 C 0.10457 0.33322 0.08983 0.0
C308 C 0.11861 0.31182 0.11826 0.0
C309 C 0.13395 0.32735 0.12847 0.0
C310 C 0.15099 0.32851 0.12893 0.0
C311 C 0.15307 0.31428 0.11895 0.0
C312 C 0.13789 0.29927 0.10743 0.0
C313 C 0.12084 0.29806 0.10721 0.0
H314 H 0.7124 0.77424 0.15199 0.0
N315 N 0.69694 0.79211 0.13315 0.0
H316 H 0.70656 0.75885 0.1938 0.0
H317 H 0.67722 0.79495 0.1742 0.0
H318 H 0.67224 0.78064 0.21611 0.0
H319 H 0.66048 0.76647 0.13681 0.0
H320 H 0.64365 0.74025 0.10849 0.0
H321 H 0.70862 0.78534 0.08893 0.0
H322 H 0.69169 0.75927 0.05993 0.0
H323 H 0.72646 0.82474 0.12692 0.0
H324 H 0.66761 0.79735 0.1303 0.0
H325 H 0.72791 0.85391 0.1217 0.0
H326 H 0.66884 0.82631 0.12698 0.0
H327 H 0.71903 0.93911 0.16106 0.0
H328 H 0.71148 0.94413 0.20504 0.0
H329 H 0.66114 0.89208 0.20206 0.0
H330 H 0.66937 0.88687 0.15884 0.0
H331 H 0.66336 0.89909 0.1215 0.0
H332 H 0.65184 0.91335 0.09251 0.0
H333 H 0.70692 0.95023 0.06562 0.0
H334 H 0.71845 0.936 0.09527 0.0
H335 H 0.72493 0.90373 0.14697 0.0
H336 H 0.72457 0.87503 0.14553 0.0
H337 H 0.67417 0.85096 0.10199 0.0
N338 N 0.69955 0.91054 0.13055 0.0
H339 H 0.67402 0.87924 0.10513 0.0
C340 C 0.69536 0.7858 0.1596 0.0
C341 C 0.70383 0.77588 0.16609 0.0
C342 C 0.7005 0.76713 0.19008 0.0
C343 C 0.68874 0.7683 0.20832 0.0
C344 C 0.681 0.77903 0.20232 0.0
C345 C 0.68408 0.7875 0.1782 0.0
C346 C 0.68592 0.77781 0.11503 0.0
C347 C 0.66733 0.76519 0.11986 0.0
C348 C 0.65767 0.7502 0.10355 0.0
C349 C 0.66637 0.74757 0.08206 0.0
C350 C 0.68469 0.76073 0.07658 0.0
C351 C 0.69434 0.77568 0.09295 0.0
C352 C 0.69704 0.80891 0.12932 0.0
C353 C 0.71387 0.82507 0.12667 0.0
C354 C 0.71463 0.84173 0.12391 0.0
C355 C 0.69849 0.84262 0.12419 0.0
C356 C 0.68157 0.82627 0.12625 0.0
C357 C 0.68083 0.8096 0.12843 0.0
C358 C 0.69475 0.91277 0.15664 0.0
C359 C 0.70645 0.92879 0.17008 0.0
C360 C 0.70201 0.93166 0.19512 0.0
C361 C 0.68562 0.91857 0.20714 0.0
C362 C 0.67399 0.90237 0.19364 0.0
C363 C 0.67856 0.89945 0.16873 0.0
C364 C 0.69191 0.91659 0.11073 0.0
C365 C 0.67299 0.91002 0.10914 0.0
C366 C 0.66636 0.91813 0.09234 0.0
C367 C 0.67847 0.93302 0.07689 0.0
C368 C 0.69726 0.93892 0.07752 0.0
C369 C 0.70387 0.93076 0.09429 0.0
C370 C 0.69963 0.89384 0.12623 0.0
C371 C 0.71391 0.89227 0.13692 0.0
C372 C 0.71371 0.87583 0.13589 0.0
C373 C 0.69931 0.86051 0.12365 0.0
C374 C 0.6853 0.86229 0.11206 0.0
C375 C 0.68532 0.87867 0.1136 0.0
H376 H 0.09649 0.75712 0.14441 0.0
N377 N 0.09166 0.78351 0.12235 0.0
H378 H 0.08718 0.74464 0.18793 0.0
H379 H 0.07748 0.79455 0.15929 0.0
H380 H 0.06849 0.78243 0.20337 0.0
H381 H 0.05759 0.76788 0.10603 0.0
H382 H 0.04136 0.7408 0.07942 0.0
H383 H 0.1076 0.7671 0.09559 0.0
H384 H 0.09176 0.7405 0.0674 0.0
H385 H 0.12433 0.78691 0.13711 0.0
H386 H 0.10026 0.81398 0.09744 0.0
H387 H 0.15414 0.81456 0.13523 0.0
H388 H 0.13035 0.8415 0.09385 0.0
H389 H 0.22104 0.8809 0.16043 0.0
H390 H 0.2355 0.89356 0.20185 0.0
H391 H 0.22999 0.94061 0.188 0.0
H392 H 0.21726 0.92849 0.14537 0.0
H393 H 0.22028 0.91959 0.082 0.0
H394 H 0.24697 0.93103 0.05316 0.0
H395 H 0.26514 0.89946 0.09539 0.0
H396 H 0.23849 0.88784 0.12332 0.0
H397 H 0.20842 0.86438 0.1158 0.0
H398 H 0.17956 0.83588 0.11122 0.0
H399 H 0.1503 0.86479 0.12166 0.0
N400 N 0.21273 0.89837 0.12327 0.0
H401 H 0.17936 0.89337 0.1247 0.0
C402 C 0.08754 0.77673 0.14857 0.0
C403 C 0.09049 0.7628 0.15716 0.0
C404 C 0.08527 0.75575 0.18217 0.0
C405 C 0.07704 0.7625 0.19912 0.0
C406 C 0.07455 0.77675 0.19067 0.0
C407 C 0.07976 0.78378 0.16562 0.0
C408 C 0.08373 0.76958 0.10272 0.0
C409 C 0.06517 0.76216 0.09718 0.0
C410 C 0.05595 0.74667 0.08176 0.0
C411 C 0.06518 0.73831 0.07105 0.0
C412 C 0.0841 0.74634 0.07558 0.0
C413 C 0.09327 0.76174 0.09146 0.0
C414 C 0.10993 0.79853 0.1179 0.0
C415 C 0.12549 0.79871 0.12758 0.0
C416 C 0.14265 0.81457 0.12625 0.0
C417 C 0.14469 0.83046 0.11477 0.0
C418 C 0.12926 0.82974 0.10353 0.0
C419 C 0.11208 0.81398 0.10526 0.0
C420 C 0.21858 0.90406 0.14951 0.0
C421 C 0.22313 0.89401 0.16622 0.0
C422 C 0.23117 0.90122 0.19022 0.0
C423 C 0.23429 0.91836 0.19839 0.0
C424 C 0.22849 0.92771 0.1822 0.0
C425 C 0.22095 0.92072 0.15793 0.0
C426 C 0.22731 0.90293 0.10487 0.0
C427 C 0.22988 0.91491 0.08462 0.0
C428 C 0.24519 0.92152 0.06835 0.0
C429 C 0.25827 0.91626 0.07211 0.0
C430 C 0.25526 0.90364 0.09173 0.0
C431 C 0.23996 0.89704 0.10793 0.0
C432 C 0.19606 0.88114 0.12027 0.0
C433 C 0.19586 0.86468 0.11674 0.0
C434 C 0.17925 0.84828 0.11434 0.0
C435 C 0.1625 0.84794 0.1159 0.0
C436 C 0.16285 0.86447 0.11966 0.0
C437 C 0.17943 0.88084 0.12167 0.0
H438 H 0.37704 0.24408 0.85028 0.0
N439 N 0.35545 0.23028 0.89148 0.0
H440 H 0.37008 0.25333 0.80921 0.0
H441 H 0.3223 0.22598 0.8775 0.0
H442 H 0.3147 0.23371 0.83607 0.0
H443 H 0.32709 0.22541 0.92279 0.0
H444 H 0.32795 0.24755 0.95401 0.0
H445 H 0.38469 0.26041 0.90757 0.0
H446 H 0.38576 0.28257 0.93877 0.0
H447 H 0.37764 0.21817 0.90376 0.0
H448 H 0.3207 0.20032 0.89228 0.0
H449 H 0.36975 0.18663 0.91048 0.0
H450 H 0.31279 0.16891 0.8973 0.0
H451 H 0.34959 0.10035 0.87762 0.0
H452 H 0.35148 0.08869 0.83559 0.0
H453 H 0.29566 0.07395 0.81982 0.0
H454 H 0.29372 0.08555 0.86269 0.0
H455 H 0.29575 0.06889 0.92266 0.0
H456 H 0.30282 0.05005 0.95022 0.0
H457 H 0.3601 0.09165 0.94789 0.0
H458 H 0.35269 0.11074 0.92179 0.0
H459 H 0.35237 0.12894 0.88366 0.0
H460 H 0.36079 0.16061 0.88522 0.0
H461 H 0.3099 0.14563 0.92471 0.0
N462 N 0.31941 0.09958 0.8991 0.0
H463 H 0.30108 0.11355 0.92165 0.0
C464 C 0.35022 0.23409 0.86683 0.0
C465 C 0.36338 0.2417 0.84711 0.0
C466 C 0.35929 0.24685 0.82357 0.0
C467 C 0.34174 0.24424 0.81909 0.0
C468 C 0.32843 0.23622 0.83881 0.0
C469 C 0.33268 0.23144 0.86253 0.0
C470 C 0.35586 0.24144 0.91271 0.0
C471 C 0.33997 0.23773 0.92643 0.0
C472 C 0.34048 0.25039 0.94426 0.0
C473 C 0.35691 0.26683 0.94878 0.0
C474 C 0.37294 0.26995 0.93601 0.0
C475 C 0.37237 0.25738 0.91811 0.0
C476 C 0.34991 0.21165 0.89705 0.0
C477 C 0.36345 0.20743 0.90267 0.0
C478 C 0.3589 0.18939 0.90629 0.0
C479 C 0.34064 0.17512 0.90406 0.0
C480 C 0.32698 0.17948 0.8994 0.0
C481 C 0.33153 0.19756 0.89616 0.0
C482 C 0.3214 0.09386 0.87347 0.0
C483 C 0.33773 0.09479 0.86526 0.0
C484 C 0.33886 0.08818 0.84099 0.0
C485 C 0.32374 0.08044 0.82431 0.0
C486 C 0.3075 0.07971 0.83234 0.0
C487 C 0.3064 0.08641 0.85669 0.0
C488 C 0.32365 0.09101 0.91976 0.0
C489 C 0.30973 0.07413 0.92886 0.0
C490 C 0.31386 0.06333 0.94432 0.0
C491 C 0.33212 0.06909 0.95065 0.0
C492 C 0.34589 0.08673 0.94341 0.0
C493 C 0.34168 0.09766 0.92827 0.0
C494 C 0.32582 0.11871 0.90212 0.0
C495 C 0.34295 0.13232 0.89266 0.0
C496 C 0.34789 0.15061 0.89386 0.0
C497 C 0.33599 0.15577 0.90494 0.0
C498 C 0.31925 0.14217 0.91552 0.0
C499 C 0.31423 0.12385 0.914 0.0
H500 H 0.76102 0.11426 0.8692 0.0
N501 N 0.78441 0.10614 0.89443 0.0
H502 H 0.74933 0.10532 0.82562 0.0
H503 H 0.79216 0.08731 0.86059 0.0
H504 H 0.78033 0.07818 0.81632 0.0
H505 H 0.7729 0.07548 0.92042 0.0
H506 H 0.74659 0.06048 0.94965 0.0
H507 H 0.76458 0.12107 0.91334 0.0
H508 H 0.73746 0.10569 0.94082 0.0
H509 H 0.78846 0.13932 0.88164 0.0
H510 H 0.81559 0.11351 0.91633 0.0
H511 H 0.81639 0.16873 0.88467 0.0
H512 H 0.84357 0.14317 0.92058 0.0
H513 H 0.87937 0.23602 0.86413 0.0
H514 H 0.88664 0.2491 0.8208 0.0
H515 H 0.93426 0.24299 0.81869 0.0
H516 H 0.92747 0.23114 0.86295 0.0
H517 H 0.92445 0.23158 0.92913 0.0
H518 H 0.93903 0.25672 0.96019 0.0
H519 H 0.9054 0.27774 0.93234 0.0
H520 H 0.89063 0.25243 0.90221 0.0
H521 H 0.86657 0.22168 0.90748 0.0
H522 H 0.83798 0.19266 0.91181 0.0
H523 H 0.86657 0.16427 0.892 0.0
N524 N 0.9 0.22637 0.89327 0.0
H525 H 0.89516 0.19336 0.88864 0.0
C526 C 0.77768 0.10158 0.86824 0.0
C527 C 0.76556 0.10659 0.85793 0.0
C528 C 0.75887 0.10148 0.83282 0.0
C529 C 0.76401 0.09115 0.81746 0.0
C530 C 0.77609 0.08609 0.82775 0.0
C531 C 0.7829 0.09135 0.8529 0.0
C532 C 0.77051 0.09916 0.91433 0.0
C533 C 0.76541 0.08227 0.92533 0.0
C534 C 0.75022 0.07364 0.94176 0.0
C535 C 0.73952 0.08161 0.94713 0.0
C536 C 0.74531 0.09909 0.93723 0.0
C537 C 0.76077 0.10787 0.92119 0.0
C538 C 0.80001 0.12406 0.89839 0.0
C539 C 0.80032 0.13994 0.89024 0.0
C540 C 0.81636 0.15689 0.89223 0.0
C541 C 0.83235 0.15836 0.90264 0.0
C542 C 0.83166 0.14253 0.91193 0.0
C543 C 0.81567 0.12559 0.90972 0.0
C544 C 0.90315 0.23296 0.86697 0.0
C545 C 0.89148 0.23769 0.85448 0.0
C546 C 0.89554 0.24494 0.82943 0.0
C547 C 0.91115 0.24727 0.81611 0.0
C548 C 0.92239 0.24187 0.82845 0.0
C549 C 0.91848 0.23494 0.85366 0.0
C550 C 0.90658 0.24012 0.91322 0.0
C551 C 0.92004 0.24146 0.93014 0.0
C552 C 0.92844 0.25591 0.94769 0.0
C553 C 0.92354 0.26939 0.94858 0.0
C554 C 0.90942 0.26754 0.93238 0.0
C555 C 0.90099 0.25305 0.91492 0.0
C556 C 0.88307 0.20964 0.8979 0.0
C557 C 0.86676 0.20923 0.90447 0.0
C558 C 0.85035 0.19258 0.90674 0.0
C559 C 0.84992 0.17607 0.90227 0.0
C560 C 0.86637 0.17663 0.89609 0.0
C561 C 0.88273 0.19323 0.894 0.0
H562 H 0.77277 0.71271 0.86226 0.0
N563 N 0.78682 0.69728 0.89139 0.0
H564 H 0.759 0.70326 0.8195 0.0
H565 H 0.78553 0.66982 0.86175 0.0
H566 H 0.77308 0.66108 0.81827 0.0
H567 H 0.75973 0.66186 0.8988 0.0
H568 H 0.73262 0.65141 0.92618 0.0
H569 H 0.78094 0.71667 0.92645 0.0
H570 H 0.75396 0.70627 0.9544 0.0
H571 H 0.82052 0.72183 0.87706 0.0
H572 H 0.79006 0.67126 0.91887 0.0
H573 H 0.84846 0.7208 0.88268 0.0
H574 H 0.818 0.67073 0.92613 0.0
H575 H 0.93584 0.71213 0.88709 0.0
H576 H 0.94779 0.70978 0.84489 0.0
H577 H 0.89304 0.66938 0.82141 0.0
H578 H 0.88153 0.67104 0.86379 0.0
H579 H 0.89022 0.65624 0.90192 0.0
H580 H 0.89917 0.63954 0.93081 0.0
H581 H 0.92883 0.68763 0.97828 0.0
H582 H 0.91999 0.70434 0.94893 0.0
H583 H 0.89899 0.72206 0.90956 0.0
H584 H 0.87112 0.7238 0.91058 0.0
H585 H 0.83875 0.66512 0.90468 0.0
N586 N 0.90178 0.69261 0.90478 0.0
H587 H 0.86655 0.66358 0.90554 0.0
C588 C 0.78034 0.69218 0.86514 0.0
C589 C 0.77295 0.70151 0.8526 0.0
C590 C 0.76521 0.69613 0.82802 0.0
C591 C 0.76492 0.68139 0.81517 0.0
C592 C 0.77273 0.67228 0.82761 0.0
C593 C 0.78013 0.67744 0.85245 0.0
C594 C 0.77231 0.69014 0.91049 0.0
C595 C 0.75875 0.67157 0.91124 0.0
C596 C 0.74328 0.6656 0.92702 0.0
C597 C 0.74105 0.67805 0.94226 0.0
C598 C 0.75515 0.6964 0.94258 0.0
C599 C 0.77061 0.70235 0.92681 0.0
C600 C 0.80317 0.6968 0.89757 0.0
C601 C 0.81995 0.71072 0.88796 0.0
C602 C 0.83595 0.71015 0.89141 0.0
C603 C 0.83562 0.69569 0.90497 0.0
C604 C 0.81881 0.68193 0.91521 0.0
C605 C 0.80273 0.68235 0.91131 0.0
C606 C 0.90782 0.69197 0.87874 0.0
C607 C 0.92645 0.7029 0.87268 0.0
C608 C 0.93321 0.70159 0.84848 0.0
C609 C 0.9214 0.68935 0.82964 0.0
C610 C 0.90262 0.67872 0.83553 0.0
C611 C 0.89593 0.67986 0.85986 0.0
C612 C 0.90455 0.68163 0.92327 0.0
C613 C 0.89833 0.6631 0.91881 0.0
C614 C 0.90342 0.65354 0.93542 0.0
C615 C 0.91485 0.66231 0.95672 0.0
C616 C 0.92025 0.68057 0.96182 0.0
C617 C 0.91513 0.6901 0.94523 0.0
C618 C 0.88493 0.6928 0.90718 0.0
C619 C 0.88582 0.70961 0.90887 0.0
C620 C 0.86986 0.71054 0.90917 0.0
C621 C 0.85257 0.69462 0.90731 0.0
C622 C 0.85172 0.67769 0.90645 0.0
C623 C 0.8677 0.67678 0.90668 0.0
H624 H 0.72666 0.61611 0.47146 0.0
N625 N 0.76004 0.63438 0.45069 0.0
H626 H 0.71699 0.61991 0.51465 0.0
H627 H 0.78242 0.6565 0.48939 0.0
H628 H 0.77312 0.65972 0.53291 0.0
H629 H 0.77298 0.67105 0.45402 0.0
H630 H 0.76121 0.68759 0.43013 0.0
H631 H 0.7394 0.62307 0.40831 0.0
H632 H 0.72801 0.63989 0.38367 0.0
H633 H 0.76645 0.60887 0.46764 0.0
H634 H 0.79279 0.6607 0.42822 0.0
H635 H 0.79559 0.61006 0.47037 0.0
H636 H 0.82157 0.66127 0.42891 0.0
H637 H 0.89752 0.62621 0.49412 0.0
H638 H 0.91168 0.6337 0.53686 0.0
H639 H 0.88904 0.66835 0.55103 0.0
H640 H 0.87588 0.66165 0.50821 0.0
H641 H 0.90534 0.6771 0.47194 0.0
H642 H 0.93224 0.69318 0.4441 0.0
H643 H 0.91522 0.64365 0.40082 0.0
H644 H 0.8885 0.62753 0.42937 0.0
H645 H 0.84825 0.61064 0.46212 0.0
H646 H 0.81902 0.60818 0.45188 0.0
H647 H 0.84487 0.66685 0.45624 0.0
N648 N 0.88013 0.64063 0.47065 0.0
H649 H 0.87407 0.66905 0.46406 0.0
C650 C 0.75519 0.63584 0.47719 0.0
C651 C 0.73684 0.62551 0.48493 0.0
C652 C 0.73139 0.62766 0.50968 0.0
C653 C 0.74427 0.64014 0.52734 0.0
C654 C 0.76277 0.6502 0.51973 0.0
C655 C 0.76816 0.6482 0.49488 0.0
C656 C 0.75677 0.64563 0.43322 0.0
C657 C 0.76344 0.66419 0.43842 0.0
C658 C 0.75679 0.67367 0.4247 0.0
C659 C 0.74368 0.66494 0.40523 0.0
C660 C 0.73823 0.64692 0.3985 0.0
C661 C 0.74467 0.63732 0.41254 0.0
C662 C 0.77721 0.63467 0.4481 0.0
C663 C 0.77844 0.62029 0.45898 0.0
C664 C 0.79518 0.62096 0.46032 0.0
C665 C 0.81118 0.63587 0.45007 0.0
C666 C 0.80974 0.64981 0.43775 0.0
C667 C 0.79305 0.64937 0.43708 0.0
C668 C 0.8856 0.64325 0.49759 0.0
C669 C 0.8954 0.63521 0.50665 0.0
C670 C 0.90344 0.63948 0.53117 0.0
C671 C 0.90168 0.6518 0.54741 0.0
C672 C 0.89107 0.65915 0.53886 0.0
C673 C 0.88328 0.6551 0.51419 0.0
C674 C 0.89499 0.65102 0.45279 0.0
C675 C 0.90725 0.66975 0.45626 0.0
C676 C 0.92261 0.67896 0.44022 0.0
C677 C 0.92597 0.66966 0.42036 0.0
C678 C 0.91321 0.65113 0.41624 0.0
C679 C 0.89789 0.64192 0.43235 0.0
C680 C 0.86323 0.63991 0.46441 0.0
C681 C 0.84752 0.62291 0.46063 0.0
C682 C 0.83079 0.62158 0.45498 0.0
C683 C 0.82934 0.6373 0.45355 0.0
C684 C 0.84531 0.6544 0.45675 0.0
C685 C 0.86211 0.65571 0.46166 0.0
H686 H 0.37802 0.11302 0.49259 0.0
N687 N 0.3536 0.11803 0.46777 0.0
H688 H 0.37545 0.10067 0.53623 0.0
H689 H 0.32603 0.10984 0.50308 0.0
H690 H 0.3228 0.09664 0.54554 0.0
H691 H 0.31682 0.09293 0.46512 0.0
H692 H 0.30245 0.06654 0.43689 0.0
H693 H 0.36904 0.11034 0.42871 0.0
H694 H 0.35456 0.08413 0.39943 0.0
H695 H 0.38295 0.15014 0.45849 0.0
H696 H 0.32432 0.12349 0.46611 0.0
H697 H 0.38459 0.17933 0.45271 0.0
H698 H 0.32584 0.1526 0.46253 0.0
H699 H 0.3796 0.26623 0.49181 0.0
H700 H 0.37213 0.2732 0.53463 0.0
H701 H 0.3197 0.22321 0.53218 0.0
H702 H 0.32781 0.21601 0.49014 0.0
H703 H 0.3234 0.22806 0.45122 0.0
H704 H 0.31401 0.24462 0.42308 0.0
H705 H 0.37014 0.27931 0.3985 0.0
H706 H 0.37952 0.26283 0.42741 0.0
H707 H 0.3839 0.2302 0.4777 0.0
H708 H 0.38253 0.20101 0.47706 0.0
H709 H 0.33073 0.1771 0.43703 0.0
N710 N 0.35886 0.23765 0.46205 0.0
H711 H 0.33173 0.20606 0.43932 0.0
C712 C 0.35227 0.1123 0.49437 0.0
C713 C 0.36611 0.10973 0.50435 0.0
C714 C 0.3645 0.1025 0.52918 0.0
C715 C 0.34883 0.09748 0.54447 0.0
C716 C 0.3352 0.10056 0.53463 0.0
C717 C 0.33695 0.108 0.50999 0.0
C718 C 0.34415 0.1036 0.44921 0.0
C719 C 0.32519 0.09132 0.45074 0.0
C720 C 0.31691 0.07619 0.43437 0.0
C721 C 0.32736 0.07308 0.41599 0.0
C722 C 0.34616 0.0859 0.41369 0.0
C723 C 0.35444 0.10096 0.4302 0.0
C724 C 0.35365 0.13471 0.46327 0.0
C725 C 0.37045 0.15065 0.45911 0.0
C726 C 0.37134 0.16734 0.45606 0.0
C727 C 0.35538 0.1685 0.45759 0.0
C728 C 0.33843 0.15233 0.46102 0.0
C729 C 0.33755 0.13559 0.46353 0.0
C730 C 0.35428 0.24074 0.48778 0.0
C731 C 0.3666 0.25675 0.50075 0.0
C732 C 0.3622 0.26076 0.52508 0.0
C733 C 0.34521 0.24886 0.53683 0.0
C734 C 0.33298 0.23261 0.52392 0.0
C735 C 0.33751 0.22853 0.49971 0.0
C736 C 0.35229 0.24432 0.4416 0.0
C737 C 0.33368 0.23892 0.43938 0.0
C738 C 0.32828 0.24838 0.42311 0.0
C739 C 0.34136 0.26345 0.40878 0.0
C740 C 0.35977 0.26795 0.40962 0.0
C741 C 0.36514 0.25848 0.42592 0.0
C742 C 0.35809 0.22049 0.45848 0.0
C743 C 0.37235 0.21866 0.46858 0.0
C744 C 0.37156 0.20193 0.46801 0.0
C745 C 0.35653 0.18655 0.45689 0.0
C746 C 0.3424 0.18851 0.44614 0.0
C747 C 0.34305 0.20523 0.44716 0.0
H748 H 0.76135 0.09068 0.47265 0.0
N749 N 0.7544 0.11598 0.45187 0.0
H750 H 0.75401 0.07855 0.51673 0.0
H751 H 0.74176 0.12726 0.49049 0.0
H752 H 0.73485 0.11563 0.53495 0.0
H753 H 0.71888 0.0968 0.44322 0.0
H754 H 0.7022 0.0688 0.41858 0.0
H755 H 0.76996 0.10199 0.41838 0.0
H756 H 0.7535 0.07474 0.39222 0.0
H757 H 0.78774 0.11818 0.4547 0.0
H758 H 0.76125 0.14871 0.43821 0.0
H759 H 0.81757 0.14573 0.45059 0.0
H760 H 0.79092 0.17664 0.43588 0.0
H761 H 0.89665 0.2253 0.48103 0.0
H762 H 0.90953 0.23722 0.52335 0.0
H763 H 0.87781 0.26388 0.52836 0.0
H764 H 0.86534 0.25228 0.48515 0.0
H765 H 0.88861 0.26312 0.42619 0.0
H766 H 0.91513 0.27477 0.39724 0.0
H767 H 0.91745 0.22589 0.41021 0.0
H768 H 0.89024 0.21398 0.43769 0.0
H769 H 0.86461 0.20049 0.47827 0.0
H770 H 0.83626 0.17172 0.47415 0.0
H771 H 0.81843 0.19492 0.41479 0.0
N772 N 0.87345 0.23261 0.45355 0.0
H773 H 0.84646 0.22423 0.42061 0.0
C774 C 0.75188 0.10976 0.47832 0.0
C775 C 0.75574 0.0963 0.48622 0.0
C776 C 0.75162 0.08946 0.51149 0.0
C777 C 0.74369 0.09601 0.52931 0.0
C778 C 0.74062 0.11003 0.52157 0.0
C779 C 0.74465 0.11679 0.4963 0.0
C780 C 0.74564 0.10158 0.43294 0.0
C781 C 0.7265 0.09219 0.43175 0.0
C782 C 0.71698 0.07617 0.41744 0.0
C783 C 0.72641 0.06925 0.40337 0.0
C784 C 0.74569 0.07931 0.40328 0.0
C785 C 0.75522 0.09517 0.41813 0.0
C786 C 0.77223 0.13137 0.44627 0.0
C787 C 0.78835 0.13078 0.44975 0.0
C788 C 0.80545 0.14668 0.44781 0.0
C789 C 0.80681 0.16358 0.44311 0.0
C790 C 0.79059 0.16394 0.43901 0.0
C791 C 0.77355 0.14799 0.44043 0.0
C792 C 0.88007 0.23804 0.47969 0.0
C793 C 0.89236 0.23365 0.4911 0.0
C794 C 0.89963 0.24036 0.51557 0.0
C795 C 0.89476 0.25156 0.52929 0.0
C796 C 0.88206 0.2555 0.51817 0.0
C797 C 0.87481 0.2488 0.4936 0.0
C798 C 0.88765 0.23789 0.43431 0.0
C799 C 0.89469 0.25484 0.4223 0.0
C800 C 0.90996 0.26152 0.40602 0.0
C801 C 0.91872 0.25145 0.40175 0.0
C802 C 0.91106 0.23401 0.41287 0.0
C803 C 0.89557 0.22722 0.42883 0.0
C804 C 0.8575 0.21479 0.45019 0.0
C805 C 0.85463 0.19954 0.46449 0.0
C806 C 0.83838 0.18286 0.46179 0.0
C807 C 0.82482 0.18089 0.44427 0.0
C808 C 0.82825 0.19596 0.429 0.0
C809 C 0.84432 0.21271 0.43212 0.0
H810 H 0.01566 0.56439 0.20123 0.0
N811 N 0.98888 0.55041 0.23857 0.0
H812 H 0.01422 0.57722 0.15983 0.0
H813 H 0.95954 0.54838 0.21713 0.0
H814 H 0.95748 0.56009 0.17487 0.0
H815 H 0.97025 0.55249 0.27875 0.0
H816 H 0.97847 0.57925 0.30591 0.0
H817 H 0.02211 0.58235 0.23888 0.0
H818 H 0.03036 0.60875 0.26584 0.0
H819 H 0.02374 0.55698 0.24873 0.0
H820 H 0.96823 0.5147 0.23324 0.0
H821 H 0.03308 0.5345 0.25088 0.0
H822 H 0.9777 0.49203 0.23408 0.0
H823 H 0.05341 0.45728 0.20432 0.0
H824 H 0.04871 0.44211 0.16236 0.0
H825 H 0.99147 0.42589 0.16544 0.0
H826 H 0.99633 0.44093 0.20761 0.0
H827 H 0.99661 0.42711 0.24873 0.0
H828 H 0.99405 0.40319 0.27686 0.0
H829 H 0.05217 0.43486 0.29167 0.0
H830 H 0.05426 0.45939 0.26488 0.0
H831 H 0.04757 0.49267 0.22118 0.0
H832 H 0.03834 0.51547 0.22354 0.0
H833 H 0.98754 0.47606 0.26032 0.0
N834 N 0.02845 0.45801 0.23463 0.0
H835 H 0.99649 0.45326 0.25677 0.0
C836 C 0.98772 0.55563 0.21242 0.0
C837 C 0.00291 0.56336 0.19559 0.0
C838 C 0.00199 0.57056 0.17172 0.0
C839 C 0.98577 0.56991 0.16397 0.0
C840 C 0.97034 0.56129 0.18038 0.0
C841 C 0.97138 0.55437 0.2044 0.0
C842 C 0.99552 0.56522 0.25694 0.0
C843 C 0.98357 0.5646 0.27634 0.0
C844 C 0.98823 0.5799 0.29167 0.0
C845 C 0.00506 0.59608 0.28796 0.0
C846 C 0.01742 0.5964 0.26942 0.0
C847 C 0.01266 0.58121 0.25392 0.0
C848 C 0.99509 0.53755 0.24104 0.0
C849 C 0.01346 0.54289 0.24583 0.0
C850 C 0.01889 0.52993 0.24682 0.0
C851 C 0.00619 0.51137 0.24261 0.0
C852 C 0.98783 0.5061 0.23792 0.0
C853 C 0.98239 0.51905 0.23724 0.0
C854 C 0.02531 0.45029 0.20898 0.0
C855 C 0.03992 0.45062 0.19572 0.0
C856 C 0.0372 0.442 0.17176 0.0
C857 C 0.01971 0.43279 0.16054 0.0
C858 C 0.00506 0.43269 0.1737 0.0
C859 C 0.00783 0.44137 0.19772 0.0
C860 C 0.02566 0.44529 0.25498 0.0
C861 C 0.00866 0.42935 0.25893 0.0
C862 C 0.00729 0.41543 0.27471 0.0
C863 C 0.02296 0.41685 0.28623 0.0
C864 C 0.03974 0.43327 0.28343 0.0
C865 C 0.04101 0.44733 0.26805 0.0
C866 C 0.02291 0.47127 0.23886 0.0
C867 C 0.03452 0.48905 0.22997 0.0
C868 C 0.02923 0.50209 0.23148 0.0
C869 C 0.01216 0.49767 0.24217 0.0
C870 C 0.00066 0.4799 0.2516 0.0
C871 C 0.00589 0.46679 0.24979 0.0
H872 H 0.60874 0.5702 0.20213 0.0
N873 N 0.57606 0.55217 0.22487 0.0
H874 H 0.61641 0.58545 0.16002 0.0
H875 H 0.5515 0.55005 0.18786 0.0
H876 H 0.55889 0.5641 0.14563 0.0
H877 H 0.56592 0.57796 0.22628 0.0
H878 H 0.57735 0.60366 0.25605 0.0
H879 H 0.59653 0.55797 0.26658 0.0
H880 H 0.60771 0.58346 0.29708 0.0
H881 H 0.57245 0.51941 0.22643 0.0
H882 H 0.54169 0.54676 0.23378 0.0
H883 H 0.54429 0.49003 0.23128 0.0
H884 H 0.51342 0.51766 0.23669 0.0
H885 H 0.44896 0.40215 0.20298 0.0
H886 H 0.4356 0.39361 0.15973 0.0
H887 H 0.43797 0.44536 0.15339 0.0
H888 H 0.45257 0.45416 0.19566 0.0
H889 H 0.43454 0.44542 0.23327 0.0
H890 H 0.40783 0.43331 0.26137 0.0
H891 H 0.42341 0.3973 0.29668 0.0
H892 H 0.44982 0.40901 0.26732 0.0
H893 H 0.49017 0.44116 0.20702 0.0
H894 H 0.51882 0.47006 0.20804 0.0
H895 H 0.49415 0.4917 0.25982 0.0
N896 N 0.45839 0.43267 0.22881 0.0
H897 H 0.46534 0.46335 0.25723 0.0
C898 C 0.57961 0.55888 0.19847 0.0
C899 C 0.5978 0.56869 0.18971 0.0
C900 C 0.60214 0.57733 0.16555 0.0
C901 C 0.58829 0.57618 0.1494 0.0
C902 C 0.56999 0.56569 0.15774 0.0
C903 C 0.5657 0.55735 0.18204 0.0
C904 C 0.58055 0.56611 0.24412 0.0
C905 C 0.5748 0.57889 0.2419 0.0
C906 C 0.5813 0.59357 0.25907 0.0
C907 C 0.59359 0.59573 0.27884 0.0
C908 C 0.59853 0.58238 0.28179 0.0
C909 C 0.59207 0.56775 0.26455 0.0
C910 C 0.55923 0.53525 0.22944 0.0
C911 C 0.55958 0.51903 0.22904 0.0
C912 C 0.54341 0.50225 0.23154 0.0
C913 C 0.52639 0.50131 0.23398 0.0
C914 C 0.52618 0.5177 0.23519 0.0
C915 C 0.54241 0.53447 0.2333 0.0
C916 C 0.4515 0.4286 0.20265 0.0
C917 C 0.44676 0.41167 0.192 0.0
C918 C 0.43895 0.40678 0.16739 0.0
C919 C 0.43541 0.41867 0.15304 0.0
C920 C 0.44062 0.43588 0.1636 0.0
C921 C 0.44875 0.44087 0.188 0.0
C922 C 0.44411 0.4279 0.24791 0.0
C923 C 0.43231 0.43497 0.24704 0.0
C924 C 0.41708 0.42815 0.26344 0.0
C925 C 0.41332 0.41418 0.28117 0.0
C926 C 0.42568 0.40781 0.28291 0.0
C927 C 0.44087 0.41458 0.26636 0.0
C928 C 0.47534 0.44987 0.23161 0.0
C929 C 0.49094 0.45217 0.21854 0.0
C930 C 0.50742 0.46872 0.21942 0.0
C931 C 0.50895 0.48339 0.23403 0.0
C932 C 0.49348 0.48092 0.24786 0.0
C933 C 0.47683 0.46446 0.24649 0.0
H934 H 0.5373 0.94921 0.18934 0.0
N935 N 0.5391 0.97376 0.22285 0.0
H936 H 0.55413 0.95472 0.1485 0.0
H937 H 0.56176 0.00703 0.2006 0.0
H938 H 0.57787 0.01269 0.15945 0.0
H939 H 0.57378 0.99776 0.23901 0.0
H940 H 0.59149 0.99101 0.26926 0.0
H941 H 0.52597 0.94573 0.25517 0.0
H942 H 0.54309 0.93933 0.28708 0.0
H943 H 0.50307 0.95305 0.22209 0.0
H944 H 0.54654 0.00789 0.23626 0.0
H945 H 0.48058 0.96259 0.22663 0.0
H946 H 0.52446 0.01821 0.23769 0.0
H947 H 0.41804 0.98714 0.20423 0.0
H948 H 0.405 0.98187 0.16103 0.0
H949 H 0.44907 0.03442 0.13645 0.0
H950 H 0.46231 0.03971 0.1802 0.0
H951 H 0.43588 0.03742 0.23562 0.0
H952 H 0.40973 0.02875 0.26394 0.0
H953 H 0.40828 0.97856 0.28239 0.0
H954 H 0.43342 0.9867 0.25234 0.0
H955 H 0.44762 0.98638 0.19867 0.0
H956 H 0.4694 0.97662 0.20239 0.0
H957 H 0.50096 0.02047 0.25628 0.0
N958 N 0.44973 0.01708 0.22078 0.0
H959 H 0.47953 0.03138 0.2504 0.0
C960 C 0.54805 0.97761 0.19791 0.0
C961 C 0.54602 0.96307 0.18271 0.0
C962 C 0.55559 0.96628 0.15933 0.0
C963 C 0.56737 0.98418 0.1506 0.0
C964 C 0.56912 -0.00126 0.1657 0.0
C965 C 0.55966 0.9955 0.18919 0.0
C966 C 0.54868 0.97198 0.24443 0.0
C967 C 0.56698 0.98506 0.24961 0.0
C968 C 0.57706 0.98121 0.26716 0.0
C969 C 0.56887 0.96439 0.28027 0.0
C970 C 0.55005 0.95213 0.27672 0.0
C971 C 0.54015 0.95584 0.25877 0.0
C972 C 0.5264 0.97985 0.2278 0.0
C973 C 0.50771 0.96724 0.22587 0.0
C974 C 0.49492 0.97283 0.22813 0.0
C975 C 0.50061 0.99136 0.23153 0.0
C976 C 0.51943 0.00386 0.23494 0.0
C977 C 0.53219 0.99807 0.23357 0.0
C978 C 0.44128 0.0139 0.19551 0.0
C979 C 0.4249 0.99766 0.18974 0.0
C980 C 0.4175 0.99457 0.16495 0.0
C981 C 0.42613 0.00767 0.14541 0.0
C982 C 0.44217 0.02412 0.15125 0.0
C983 C 0.44974 0.02713 0.1761 0.0
C984 C 0.43672 0.01286 0.2417 0.0
C985 C 0.4301 0.0247 0.24617 0.0
C986 C 0.41514 0.0197 0.26257 0.0
C987 C 0.40662 0.00281 0.27548 0.0
C988 C 0.41409 0.99146 0.27235 0.0
C989 C 0.42878 0.99628 0.25538 0.0
C990 C 0.46204 0.01009 0.2238 0.0
C991 C 0.45922 0.99421 0.21109 0.0
C992 C 0.47171 0.98832 0.21367 0.0
C993 C 0.48707 0.99761 0.2298 0.0
C994 C 0.48955 0.0131 0.24326 0.0
C995 C 0.47724 0.01931 0.2401 0.0
H996 H 0.39555 0.94794 0.80599 0.0
N997 N 0.42826 0.96786 0.78427 0.0
H998 H 0.38523 0.95245 0.84817 0.0
H999 H 0.44963 0.99319 0.8208 0.0
H1000 H 0.43979 0.99723 0.86352 0.0
H1001 H 0.43863 0.00394 0.78153 0.0
H1002 H 0.42419 0.0166 0.7548 0.0
H1003 H 0.40676 0.95198 0.74386 0.0
H1004 H 0.39245 0.96465 0.71654 0.0
H1005 H 0.43268 0.93953 0.78989 0.0
H1006 H 0.46247 0.99705 0.77355 0.0
H1007 H 0.46142 0.93932 0.79053 0.0
H1008 H 0.49122 0.99701 0.7744 0.0
H1009 H 0.56119 0.95221 0.81918 0.0
H1010 H 0.57621 0.95919 0.86123 0.0
H1011 H 0.56245 0.00114 0.87294 0.0
H1012 H 0.54877 0.99491 0.83001 0.0
H1013 H 0.56466 0.00651 0.7871 0.0
H1014 H 0.5917 0.02433 0.76017 0.0
H1015 H 0.59176 0.975 0.74004 0.0
H1016 H 0.56379 0.95734 0.76512 0.0
H1017 H 0.5166 0.95201 0.82439 0.0
H1018 H 0.48779 0.95142 0.81966 0.0
H1019 H 0.50874 0.98487 0.75117 0.0
N1020 N 0.54702 0.96971 0.79517 0.0
H1021 H 0.53738 0.98548 0.75555 0.0
C1022 C 0.42332 0.97001 0.8103 0.0
C1023 C 0.40527 0.95859 0.81863 0.0
C1024 C 0.39946 0.96116 0.84283 0.0
C1025 C 0.41169 0.97519 0.8594 0.0
C1026 C 0.42993 0.98645 0.85118 0.0
C1027 C 0.43566 0.984 0.8268 0.0
C1028 C 0.42363 0.9769 0.76478 0.0
C1029 C 0.42901 0.99542 0.76686 0.0
C1030 C 0.42073 0.00267 0.75149 0.0
C1031 C 0.40695 0.99154 0.73384 0.0
C1032 C 0.40278 0.97348 0.7303 0.0
C1033 C 0.41105 0.96625 0.74568 0.0
C1034 C 0.44535 0.96819 0.78158 0.0
C1035 C 0.44542 0.95205 0.78611 0.0
C1036 C 0.46183 0.952 0.78669 0.0
C1037 C 0.47859 0.96818 0.78272 0.0
C1038 C 0.47851 0.9843 0.77732 0.0
C1039 C 0.46204 0.98434 0.77684 0.0
C1040 C 0.55372 0.97286 0.82151 0.0
C1041 C 0.56131 0.96279 0.83101 0.0
C1042 C 0.5698 0.96677 0.85519 0.0
C1043 C 0.57064 0.98078 0.87072 0.0
C1044 C 0.56249 0.99052 0.86143 0.0
C1045 C 0.55439 0.98681 0.83696 0.0
C1046 C 0.56198 0.9805 0.77757 0.0
C1047 C 0.5703 -0.00044 0.77631 0.0
C1048 C 0.58597 0.00976 0.76114 0.0
C1049 C 0.59417 0.00125 0.7478 0.0
C1050 C 0.58574 0.98215 0.74928 0.0
C1051 C 0.56976 0.97195 0.76377 0.0
C1052 C 0.53 0.96975 0.79153 0.0
C1053 C 0.51521 0.95951 0.80855 0.0
C1054 C 0.49861 0.95899 0.80565 0.0
C1055 C 0.49611 0.96837 0.78527 0.0
C1056 C 0.51046 0.97794 0.76751 0.0
C1057 C 0.52707 0.9784 0.77029 0.0
H1058 H 0.95027 0.53412 0.83955 0.0
N1059 N 0.97687 0.54622 0.80454 0.0
H1060 H 0.95153 0.54605 0.88313 0.0
H1061 H 0.00723 0.57391 0.82783 0.0
H1062 H 0.00893 0.58543 0.87167 0.0
H1063 H 0.00769 0.57358 0.78124 0.0
H1064 H 0.0088 0.59655 0.75183 0.0
H1065 H 0.94883 0.54628 0.78273 0.0
H1066 H 0.94973 0.56924 0.75364 0.0
H1067 H 0.95604 0.51149 0.79228 0.0
H1068 H 0.01209 0.55289 0.80615 0.0
H1069 H 0.96518 0.48858 0.78865 0.0
H1070 H 0.02131 0.5301 0.8032 0.0
H1071 H 0.98404 0.42352 0.82392 0.0
H1072 H 0.98303 0.41151 0.86675 0.0
H1073 H 0.0403 0.45095 0.87713 0.0
H1074 H 0.0413 0.46324 0.83365 0.0
H1075 H 0.03271 0.44195 0.77068 0.0
H1076 H 0.0208 0.41762 0.73825 0.0
H1077 H 0.96626 0.40815 0.75187 0.0
H1078 H 0.97836 0.43291 0.78273 0.0
H1079 H 0.98347 0.45115 0.82205 0.0
H1080 H 0.97549 0.47459 0.82008 0.0
H1081 H 0.02409 0.50832 0.77452 0.0
N1082 N 0.01385 0.45235 0.8002 0.0
H1083 H 0.03232 0.4846 0.777 0.0
C1084 C 0.97859 0.55299 0.83056 0.0
C1085 C 0.96311 0.54524 0.84662 0.0
C1086 C 0.96393 0.55202 0.87155 0.0
C1087 C 0.98038 0.56668 0.88102 0.0
C1088 C 0.996 0.57427 0.86494 0.0
C1089 C 0.9951 0.56755 0.83989 0.0
C1090 C 0.97811 0.55826 0.7842 0.0
C1091 C 0.995 0.57235 0.77492 0.0
C1092 C 0.99561 0.58553 0.75819 0.0
C1093 C 0.97936 0.5848 0.7505 0.0
C1094 C 0.96249 0.57011 0.75885 0.0
C1095 C 0.96192 0.55701 0.77554 0.0
C1096 C 0.98328 0.5338 0.7996 0.0
C1097 C 0.97034 0.51564 0.79424 0.0
C1098 C 0.97558 0.50259 0.7924 0.0
C1099 C 0.99394 0.5075 0.796 0.0
C1100 C 0.00707 0.52591 0.8002 0.0
C1101 C 0.00179 0.53898 0.80201 0.0
C1102 C 0.01283 0.44449 0.8254 0.0
C1103 C 0.99647 0.42972 0.83513 0.0
C1104 C 0.99584 0.42285 0.85982 0.0
C1105 C 0.01154 0.4304 0.87533 0.0
C1106 C 0.028 0.44487 0.86552 0.0
C1107 C 0.02858 0.45191 0.8408 0.0
C1108 C 0.00654 0.43925 0.77934 0.0
C1109 C 0.01825 0.4348 0.7662 0.0
C1110 C 0.01136 0.42078 0.74787 0.0
C1111 C 0.99249 0.41071 0.74257 0.0
C1112 C 0.98089 0.41569 0.75506 0.0
C1113 C 0.98783 0.42987 0.77305 0.0
C1114 C 0.00869 0.4661 0.79974 0.0
C1115 C 0.99256 0.46351 0.8117 0.0
C1116 C 0.98786 0.47694 0.81033 0.0
C1117 C -0.00093 0.49327 0.79696 0.0
C1118 C 0.01522 0.49592 0.7851 0.0
C1119 C 0.01992 0.48241 0.78644 0.0
H1120 H 0.45678 0.41611 0.82454 0.0
N1121 N 0.45162 0.43701 0.79194 0.0
H1122 H 0.44295 0.40555 0.86742 0.0
H1123 H 0.42899 0.44636 0.81707 0.0
H1124 H 0.41574 0.43658 0.86013 0.0
H1125 H 0.42135 0.43661 0.77298 0.0
H1126 H 0.39889 0.41384 0.74364 0.0
H1127 H 0.45501 0.41239 0.76517 0.0
H1128 H 0.4324 0.38918 0.73639 0.0
H1129 H 0.48744 0.45124 0.78966 0.0
H1130 H 0.44545 0.46527 0.78365 0.0
H1131 H 0.51093 0.48343 0.7872 0.0
H1132 H 0.46868 0.49747 0.78276 0.0
H1133 H 0.57604 0.56853 0.81589 0.0
H1134 H 0.58909 0.5809 0.85805 0.0
H1135 H 0.54838 0.59638 0.87048 0.0
H1136 H 0.53549 0.58418 0.82757 0.0
H1137 H 0.56657 0.6023 0.77348 0.0
H1138 H 0.59398 0.61453 0.74645 0.0
H1139 H 0.58647 0.56059 0.73961 0.0
H1140 H 0.56013 0.54882 0.76802 0.0
H1141 H 0.54573 0.53995 0.81891 0.0
H1142 H 0.52213 0.50838 0.81579 0.0
H1143 H 0.49341 0.52232 0.76001 0.0
N1144 N 0.54717 0.56892 0.79294 0.0
H1145 H 0.51697 0.55453 0.76431 0.0
C1146 C 0.44406 0.43208 0.81768 0.0
C1147 C 0.44791 0.42068 0.83237 0.0
C1148 C 0.44007 0.41477 0.8569 0.0
C1149 C 0.42824 0.42025 0.8673 0.0
C1150 C 0.42459 0.43191 0.85261 0.0
C1151 C 0.43235 0.43769 0.82799 0.0
C1152 C 0.43988 0.42616 0.77122 0.0
C1153 C 0.42415 0.42668 0.76448 0.0
C1154 C 0.41121 0.4135 0.74786 0.0
C1155 C 0.41372 0.39954 0.73787 0.0
C1156 C 0.43007 0.39982 0.74343 0.0
C1157 C 0.443 0.41302 0.75994 0.0
C1158 C 0.46476 0.45585 0.78726 0.0
C1159 C 0.48333 0.46131 0.78769 0.0
C1160 C 0.49668 0.4797 0.78658 0.0
C1161 C 0.4917 0.49311 0.78538 0.0
C1162 C 0.47303 0.48755 0.78365 0.0
C1163 C 0.45966 0.46906 0.78443 0.0
C1164 C 0.55474 0.57549 0.81844 0.0
C1165 C 0.56985 0.57455 0.82759 0.0
C1166 C 0.57723 0.5815 0.85188 0.0
C1167 C 0.56973 0.58956 0.86768 0.0
C1168 C 0.55455 0.59038 0.85866 0.0
C1169 C 0.54712 0.58335 0.83427 0.0
C1170 C 0.56116 0.57471 0.77302 0.0
C1171 C 0.57071 0.5931 0.76578 0.0
C1172 C 0.58637 0.60004 0.7502 0.0
C1173 C 0.59267 0.58861 0.74102 0.0
C1174 C 0.58238 0.56993 0.74687 0.0
C1175 C 0.567 0.56308 0.76296 0.0
C1176 C 0.53305 0.54989 0.79211 0.0
C1177 C 0.53432 0.53648 0.80629 0.0
C1178 C 0.52085 0.5182 0.80414 0.0
C1179 C 0.50591 0.51271 0.78745 0.0
C1180 C 0.50463 0.52607 0.77325 0.0
C1181 C 0.51808 0.54446 0.77562 0.0
H1182 H 0.68595 0.91299 0.54858 0.0
N1183 N 0.65732 0.88377 0.57329 0.0
H1184 H 0.68566 0.92425 0.50566 0.0
H1185 H 0.6303 0.8692 0.53893 0.0
H1186 H 0.63006 0.88019 0.49511 0.0
H1187 H 0.63405 0.89053 0.59827 0.0
H1188 H 0.64137 0.91696 0.62523 0.0
H1189 H 0.69132 0.90792 0.59269 0.0
H1190 H 0.69893 0.93492 0.61827 0.0
H1191 H 0.68996 0.88763 0.55651 0.0
H1192 H 0.63982 0.85191 0.59737 0.0
H1193 H 0.69848 0.86448 0.55762 0.0
H1194 H 0.64872 0.8288 0.5999 0.0
H1195 H 0.71544 0.7979 0.52172 0.0
H1196 H 0.70939 0.78296 0.47948 0.0
H1197 H 0.65267 0.74795 0.50159 0.0
H1198 H 0.65925 0.762 0.54412 0.0
H1199 H 0.66334 0.76362 0.58982 0.0
H1200 H 0.66331 0.74037 0.61751 0.0
H1201 H 0.72153 0.76469 0.60501 0.0
H1202 H 0.72136 0.78781 0.57739 0.0
H1203 H 0.71536 0.82369 0.57375 0.0
H1204 H 0.70798 0.84754 0.58187 0.0
H1205 H 0.65056 0.80804 0.57172 0.0
N1206 N 0.69256 0.78921 0.56153 0.0
H1207 H 0.658 0.78437 0.56522 0.0
C1208 C 0.65801 0.89021 0.54719 0.0
C1209 C 0.67367 0.90564 0.53721 0.0
C1210 C 0.67355 0.91202 0.5124 0.0
C1211 C 0.65784 0.90313 0.49688 0.0
C1212 C 0.64232 0.8875 0.50668 0.0
C1213 C 0.64244 0.88113 0.5316 0.0
C1214 C 0.66207 0.89738 0.59312 0.0
C1215 C 0.64818 0.89992 0.60325 0.0
C1216 C 0.65245 0.91515 0.61838 0.0
C1217 C 0.67079 0.92837 0.62335 0.0
C1218 C 0.68465 0.92506 0.61487 0.0
C1219 C 0.68032 0.90963 0.60003 0.0
C1220 C 0.664 0.87137 0.5765 0.0
C1221 C 0.68087 0.87491 0.56612 0.0
C1222 C 0.68585 0.86163 0.56702 0.0
C1223 C 0.67423 0.84462 0.57866 0.0
C1224 C 0.65783 0.84155 0.59026 0.0
C1225 C 0.65278 0.85478 0.58906 0.0
C1226 C 0.68785 0.78134 0.53598 0.0
C1227 C 0.70168 0.78713 0.51723 0.0
C1228 C 0.69812 0.77861 0.49303 0.0
C1229 C 0.68049 0.76418 0.48695 0.0
C1230 C 0.66648 0.75879 0.50561 0.0
C1231 C 0.67016 0.7671 0.52996 0.0
C1232 C 0.69241 0.77739 0.58143 0.0
C1233 C 0.67612 0.76413 0.59339 0.0
C1234 C 0.67612 0.7508 0.60914 0.0
C1235 C 0.6924 0.75061 0.61332 0.0
C1236 C 0.7088 0.76454 0.60246 0.0
C1237 C 0.70875 0.77774 0.58665 0.0
C1238 C 0.68736 0.80233 0.56848 0.0
C1239 C 0.70117 0.82021 0.5737 0.0
C1240 C 0.69692 0.83383 0.5781 0.0
C1241 C 0.67867 0.82982 0.5771 0.0
C1242 C 0.66475 0.81167 0.5729 0.0
C1243 C 0.66903 0.79804 0.56883 0.0
H1244 H 0.26716 0.8879 0.52758 0.0
N1245 N 0.23778 0.88083 0.55533 0.0
H1246 H 0.2751 0.90035 0.48362 0.0
H1247 H 0.21603 0.88705 0.5226 0.0
H1248 H 0.22422 0.90046 0.47992 0.0
H1249 H 0.22598 0.90546 0.55922 0.0
H1250 H 0.23828 0.93171 0.58761 0.0
H1251 H 0.26136 0.88884 0.59366 0.0
H1252 H 0.27339 0.91495 0.62313 0.0
H1253 H 0.23519 0.84873 0.56055 0.0
H1254 H 0.20292 0.87469 0.56214 0.0
H1255 H 0.20747 0.81909 0.56638 0.0
H1256 H 0.17516 0.8453 0.56572 0.0
H1257 H 0.10463 0.72898 0.53594 0.0
H1258 H 0.09021 0.72228 0.49337 0.0
H1259 H 0.10948 0.77952 0.48259 0.0
H1260 H 0.12271 0.78583 0.52573 0.0
H1261 H 0.09717 0.77313 0.56199 0.0
H1262 H 0.07061 0.76221 0.59031 0.0
H1263 H 0.08631 0.72767 0.62991 0.0
H1264 H 0.11267 0.73827 0.60059 0.0
H1265 H 0.15388 0.76865 0.54217 0.0
H1266 H 0.18245 0.79772 0.54331 0.0
H1267 H 0.15629 0.82016 0.5905 0.0
N1268 N 0.12137 0.76082 0.56047 0.0
H1269 H 0.12768 0.79171 0.58772 0.0
C1270 C 0.24115 0.88666 0.52862 0.0
C1271 C 0.25765 0.89036 0.51698 0.0
C1272 C 0.26221 0.89764 0.49197 0.0
C1273 C 0.2504 0.90164 0.47817 0.0
C1274 C 0.23359 0.89737 0.48964 0.0
C1275 C 0.22894 0.88983 0.51443 0.0
C1276 C 0.24292 0.89518 0.57408 0.0
C1277 C 0.23615 0.9072 0.57319 0.0
C1278 C 0.24315 0.92226 0.58968 0.0
C1279 C 0.25696 0.92558 0.60754 0.0
C1280 C 0.26302 0.91301 0.60926 0.0
C1281 C 0.25608 0.89801 0.59263 0.0
C1282 C 0.22118 0.86388 0.56047 0.0
C1283 C 0.22209 0.84799 0.56205 0.0
C1284 C 0.20619 0.83105 0.5651 0.0
C1285 C 0.18892 0.82963 0.56616 0.0
C1286 C 0.18813 0.84573 0.5653 0.0
C1287 C 0.20409 0.86268 0.56282 0.0
C1288 C 0.11486 0.75783 0.53403 0.0
C1289 C 0.10586 0.74006 0.52421 0.0
C1290 C 0.09772 0.7363 0.49977 0.0
C1291 C 0.09861 0.75035 0.48441 0.0
C1292 C 0.10818 0.76829 0.49398 0.0
C1293 C 0.11602 0.77197 0.5186 0.0
C1294 C 0.10685 0.75633 0.57904 0.0
C1295 C 0.09498 0.76328 0.57682 0.0
C1296 C 0.07986 0.75713 0.59325 0.0
C1297 C 0.07625 0.74398 0.61233 0.0
C1298 C 0.08853 0.7376 0.61516 0.0
C1299 C 0.10366 0.74372 0.59862 0.0
C1300 C 0.13843 0.77775 0.56453 0.0
C1301 C 0.15437 0.77984 0.55288 0.0
C1302 C 0.17077 0.79649 0.55376 0.0
C1303 C 0.17178 0.81148 0.56689 0.0
C1304 C 0.156 0.80914 0.57961 0.0
C1305 C 0.13948 0.7926 0.57822 0.0
H1306 H 0.22679 0.31418 0.5424 0.0
N1307 N 0.22732 0.34346 0.56545 0.0
H1308 H 0.24041 0.31391 0.50085 0.0
H1309 H 0.24354 0.37064 0.53145 0.0
H1310 H 0.25702 0.37041 0.48928 0.0
H1311 H 0.26052 0.35962 0.58582 0.0
H1312 H 0.27347 0.34629 0.61402 0.0
H1313 H 0.20797 0.31017 0.59041 0.0
H1314 H 0.22041 0.29727 0.61996 0.0
H1315 H 0.1978 0.31333 0.54409 0.0
H1316 H 0.21371 0.36204 0.58851 0.0
H1317 H 0.16619 0.30599 0.54507 0.0
H1318 H 0.18166 0.35442 0.59024 0.0
H1319 H 0.08065 0.28312 0.52312 0.0
H1320 H 0.07088 0.28457 0.47917 0.0
H1321 H 0.09292 0.34245 0.48832 0.0
H1322 H 0.10184 0.34061 0.53254 0.0
H1323 H 0.09965 0.34078 0.57893 0.0
H1324 H 0.07701 0.3422 0.60693 0.0
H1325 H 0.04463 0.28343 0.60706 0.0
H1326 H 0.06748 0.28224 0.57941 0.0
H1327 H 0.10879 0.28807 0.56961 0.0
H1328 H 0.14071 0.29611 0.57451 0.0
H1329 H 0.15804 0.35265 0.56146 0.0
N1330 N 0.09637 0.3099 0.55732 0.0
H1331 H 0.12613 0.34451 0.55741 0.0
C1332 C 0.23417 0.34252 0.54009 0.0
C1333 C 0.23321 0.32649 0.5309 0.0
C1334 C 0.24094 0.32633 0.50701 0.0
C1335 C 0.24981 0.34215 0.49173 0.0
C1336 C 0.25047 0.35806 0.50073 0.0
C1337 C 0.24269 0.3582 0.52467 0.0
C1338 C 0.23332 0.33608 0.58581 0.0
C1339 C 0.25164 0.34611 0.59357 0.0
C1340 C 0.25899 0.33844 0.60987 0.0
C1341 C 0.24805 0.32056 0.61927 0.0
C1342 C 0.22939 0.31089 0.61268 0.0
C1343 C 0.22215 0.31843 0.5959 0.0
C1344 C 0.20829 0.33843 0.56608 0.0
C1345 C 0.19456 0.3225 0.55409 0.0
C1346 C 0.17634 0.31816 0.55495 0.0
C1347 C 0.17135 0.32956 0.56785 0.0
C1348 C 0.18506 0.34543 0.57995 0.0
C1349 C 0.20334 0.34977 0.57908 0.0
C1350 C 0.09205 0.31169 0.53099 0.0
C1351 C 0.08347 0.29611 0.51546 0.0
C1352 C 0.07802 0.29703 0.49031 0.0
C1353 C 0.08117 0.31367 0.48009 0.0
C1354 C 0.09009 0.32938 0.49563 0.0
C1355 C 0.0954 0.32839 0.5209 0.0
C1356 C 0.08515 0.31134 0.57707 0.0
C1357 C 0.08789 0.32823 0.58542 0.0
C1358 C 0.07486 0.32901 0.60131 0.0
C1359 C 0.05893 0.31293 0.6091 0.0
C1360 C 0.05681 0.29608 0.60176 0.0
C1361 C 0.06981 0.29534 0.5859 0.0
C1362 C 0.11508 0.31559 0.56301 0.0
C1363 C 0.11951 0.30222 0.56826 0.0
C1364 C 0.13774 0.30683 0.57081 0.0
C1365 C 0.15195 0.325 0.568 0.0
C1366 C 0.14743 0.33855 0.56386 0.0
C1367 C 0.12914 0.33389 0.56141 0.0
C1368 C -0.00063 0.396 0.10879 0.0
C1369 C 0.01264 0.40364 0.08903 0.0
H1370 H 0.99125 0.39916 0.14699 0.0
C1371 C 0.02779 0.42121 0.09253 0.0
H1372 H 0.98753 0.38249 0.10666 0.0
C1373 C 0.02985 0.43078 0.11547 0.0
C1374 C 0.01682 0.42302 0.13551 0.0
H1375 H 0.0382 0.42755 0.0776 0.0
H1376 H 0.0417 0.44428 0.11753 0.0
C1377 C 0.00144 0.40559 0.13181 0.0
C1378 C 0.61214 0.5993 0.08617 0.0
C1379 C 0.60173 0.607 0.07821 0.0
H1380 H 0.61577 0.58307 0.11437 0.0
C1381 C 0.58686 0.60435 0.09362 0.0
H1382 H 0.62363 0.60103 0.07462 0.0
C1383 C 0.58258 0.5944 0.11659 0.0
C1384 C 0.59286 0.58655 0.12461 0.0
H1385 H 0.57868 0.61026 0.08819 0.0
H1386 H 0.57137 0.59319 0.12831 0.0
C1387 C 0.60768 0.58908 0.10904 0.0
C1388 C 0.40622 0.01172 0.08192 0.0
C1389 C 0.40071 0.99471 0.07046 0.0
H1390 H 0.4188 0.02926 0.11466 0.0
C1391 C 0.40472 0.9826 0.08316 0.0
H1392 H 0.40341 0.02139 0.07258 0.0
C1393 C 0.41336 0.98707 0.10718 0.0
C1394 C 0.41838 0.00381 0.11897 0.0
H1395 H 0.40074 0.96941 0.0749 0.0
H1396 H 0.41595 0.97731 0.11673 0.0
C1397 C 0.41509 0.01628 0.10591 0.0
C1398 C 0.40489 -0.00086 0.91701 0.0
C1399 C 0.39122 0.98441 0.93114 0.0
H1400 H 0.42173 0.00787 0.88299 0.0
C1401 C 0.38493 0.96664 0.92223 0.0
H1402 H 0.40994 0.013 0.92339 0.0
C1403 C 0.39194 0.96364 0.89939 0.0
C1404 C 0.40521 0.97837 0.8847 0.0
H1405 H 0.37454 0.955 0.93289 0.0
H1406 H 0.38688 0.94974 0.89323 0.0
C1407 C 0.41173 0.99617 0.89393 0.0
C1408 C 0.99386 0.41174 0.94238 0.0
C1409 C 0.00624 0.4064 0.95046 0.0
H1410 H 0.98597 0.4236 0.91243 0.0
C1411 C 0.02113 0.41007 0.93421 0.0
H1412 H 0.98229 0.40921 0.95441 0.0
C1413 C 0.02327 0.41845 0.9101 0.0
C1414 C 0.01045 0.42311 0.90173 0.0
H1415 H 0.03095 0.4062 0.93989 0.0
H1416 H 0.03457 0.42071 0.89764 0.0
C1417 C 0.99591 0.41993 0.91828 0.0
C1418 C 0.59363 0.59649 0.93211 0.0
C1419 C 0.59696 0.61378 0.9395 0.0
H1420 H 0.58209 0.57514 0.90395 0.0
C1421 C 0.59029 0.62259 0.9239 0.0
H1422 H 0.59845 0.58928 0.94382 0.0
C1423 C 0.58098 0.61452 0.90093 0.0
C1424 C 0.57816 0.59747 0.89312 0.0
H1425 H 0.59262 0.63592 0.92911 0.0
H1426 H 0.57654 0.6219 0.88886 0.0
C1427 C 0.58432 0.58842 0.9092 0.0
C1428 C 0.97003 0.57016 0.95181 0.0
C1429 C 0.97962 0.58908 0.95579 0.0
H1430 H 0.96319 0.54825 0.92547 0.0
C1431 C 0.99041 0.60055 0.93551 0.0
H1432 H 0.96175 0.56093 0.96714 0.0
C1433 C 0.99099 0.59328 0.91142 0.0
C1434 C 0.98095 0.57436 0.90718 0.0
H1435 H -0.00209 0.61519 0.93793 0.0
H1436 H -0.00119 0.60255 0.89588 0.0
C1437 C 0.97077 0.56289 0.92785 0.0
C1438 C 0.42027 0.40372 0.93704 0.0
C1439 C 0.40185 0.39856 0.94094 0.0
H1440 H 0.44317 0.41502 0.91106 0.0
C1441 C 0.39237 0.40123 0.92086 0.0
H1442 H 0.42798 0.40194 0.95223 0.0
C1443 C 0.40099 0.40849 0.8971 0.0
C1444 C 0.41934 0.41337 0.89299 0.0
H1445 H 0.37813 0.39732 0.92325 0.0
H1446 H 0.39309 0.4098 0.88174 0.0
C1447 C 0.42894 0.41111 0.91338 0.0
C1448 C 0.5995 0.00848 0.92806 0.0
C1449 C 0.60024 0.99518 0.94308 0.0
H1450 H 0.59033 0.01461 0.89322 0.0
C1451 C 0.59101 0.97706 0.93448 0.0
H1452 H 0.60663 0.0226 0.93411 0.0
C1453 C 0.58109 0.97231 0.91136 0.0
C1454 C 0.58054 0.98565 0.89598 0.0
H1455 H 0.59119 0.9665 0.94584 0.0
H1456 H 0.57375 0.95812 0.90573 0.0
C1457 C 0.58997 0.00382 0.90467 0.0
C1458 C 0.60676 0.00489 0.10214 0.0
C1459 C 0.59927 0.99302 0.08095 0.0
H1460 H 0.60276 0.0112 0.14091 0.0
C1461 C 0.58104 0.97865 0.08241 0.0
H1462 H 0.6208 0.01604 0.10162 0.0
C1463 C 0.57059 0.97602 0.10474 0.0
C1464 C 0.57818 0.9876 0.12627 0.0
H1465 H 0.57483 0.96935 0.0663 0.0
H1466 H 0.55654 0.96489 0.10512 0.0
C1467 C 0.59636 0.00216 0.12461 0.0
C1468 C 0.99552 0.58836 0.09504 0.0
C1469 C 0.9854 0.59722 0.09381 0.0
H1470 H 0.00305 0.57224 0.11759 0.0
C1471 C 0.97496 0.5966 0.11542 0.0
H1472 H 0.00356 0.58845 0.07856 0.0
C1473 C 0.97498 0.58765 0.13806 0.0
C1474 C 0.98519 0.57882 0.13946 0.0
H1475 H 0.96711 0.6034 0.11508 0.0
H1476 H 0.9673 0.58804 0.15466 0.0
C1477 C 0.9953 0.57914 0.11751 0.0
C1478 C 0.41999 0.42037 0.08447 0.0
C1479 C 0.40633 0.40217 0.08039 0.0
H1480 H 0.44039 0.43974 0.10996 0.0
C1481 C 0.40265 0.38933 0.09995 0.0
H1482 H 0.42326 0.43053 0.06961 0.0
C1483 C 0.41212 0.39467 0.12338 0.0
C1484 C 0.42578 0.41292 0.12765 0.0
H1485 H 0.39208 0.37522 0.09745 0.0
H1486 H 0.40835 0.3845 0.13836 0.0
C1487 C 0.42973 0.42565 0.10771 0.0
C1488 C 0.66233 0.72573 0.4376 0.0
C1489 C 0.67225 0.73479 0.41524 0.0
H1490 H 0.65756 0.72767 0.47784 0.0
C1491 C 0.68416 0.75371 0.41613 0.0
H1492 H 0.65315 0.71112 0.43752 0.0
C1493 C 0.68638 0.76334 0.43911 0.0
C1494 C 0.67699 0.75422 0.46187 0.0
H1495 H 0.69186 0.76107 0.39908 0.0
H1496 H 0.69557 0.77794 0.43902 0.0
C1497 C 0.6648 0.73529 0.46071 0.0
C1498 C 0.27925 0.93446 0.42466 0.0
C1499 C 0.26595 0.93152 0.40617 0.0
H1500 H 0.28478 0.9278 0.46207 0.0
C1501 C 0.2477 0.9179 0.41069 0.0
H1502 H 0.29342 0.94494 0.42176 0.0
C1503 C 0.24278 0.90769 0.43353 0.0
C1504 C 0.25593 0.91112 0.45264 0.0
H1505 H 0.23719 0.91517 0.39661 0.0
H1506 H 0.22861 0.89722 0.43626 0.0
C1507 C 0.27428 0.9245 0.44773 0.0
C1508 C 0.0673 0.30286 0.40953 0.0
C1509 C 0.05908 0.31331 0.40488 0.0
H1510 H 0.08122 0.2952 0.4365 0.0
C1511 C 0.05924 0.32481 0.42459 0.0
H1512 H 0.0676 0.29401 0.39465 0.0
C1513 C 0.06679 0.32527 0.4488 0.0
C1514 C 0.07451 0.31437 0.45374 0.0
H1515 H 0.05296 0.33299 0.42165 0.0
H1516 H 0.06597 0.33368 0.4639 0.0
C1517 C 0.07502 0.30346 0.43361 0.0
C1518 C 0.0754 0.33077 0.26064 0.0
C1519 C 0.05727 0.31757 0.2669 0.0
H1520 H 0.09748 0.33976 0.23334 0.0
C1521 C 0.04752 0.3028 0.25002 0.0
H1522 H 0.08329 0.3423 0.2733 0.0
C1523 C 0.05562 0.30136 0.22718 0.0
C1524 C 0.07366 0.3147 0.22067 0.0
H1525 H 0.03352 0.2924 0.25429 0.0
H1526 H 0.04759 0.29003 0.21428 0.0
C1527 C 0.0835 0.32937 0.23772 0.0
C1528 C 0.66081 0.7394 0.26552 0.0
C1529 C 0.67352 0.73648 0.2787 0.0
H1530 H 0.65542 0.75115 0.23282 0.0
C1531 C 0.6914 0.74421 0.26875 0.0
H1532 H 0.64687 0.7335 0.27252 0.0
C1533 C 0.69647 0.75475 0.24615 0.0
C1534 C 0.6837 0.7576 0.23285 0.0
H1535 H 0.70155 0.7423 0.27858 0.0
H1536 H 0.71045 0.76078 0.23927 0.0
C1537 C 0.66578 0.7497 0.2428 0.0
C1538 C 0.25327 0.92389 0.26675 0.0
C1539 C 0.26442 0.94286 0.26869 0.0
H1540 H 0.2343 0.90131 0.24384 0.0
C1541 C 0.26528 0.95377 0.24784 0.0
H1542 H 0.25223 0.91519 0.28272 0.0
C1543 C 0.25554 0.94584 0.22515 0.0
C1544 C 0.24424 0.92679 0.22302 0.0
H1545 H 0.27392 0.96844 0.2488 0.0
H1546 H 0.25726 0.95472 0.2091 0.0
C1547 C 0.2431 0.91595 0.24433 0.0
C1548 C 0.67861 0.9426 0.26444 0.0
C1549 C 0.66876 0.92816 0.28185 0.0
H1550 H 0.6912 0.95085 0.2271 0.0
C1551 C 0.66516 0.91069 0.27501 0.0
H1552 H 0.68151 0.95621 0.26903 0.0
C1553 C 0.67101 0.90765 0.25109 0.0
C1554 C 0.68039 0.92198 0.23329 0.0
H1555 H 0.65773 0.89929 0.28809 0.0
H1556 H 0.66811 0.89404 0.24655 0.0
C1557 C 0.68426 0.93953 0.24039 0.0
C1558 C 0.04663 0.74192 0.2583 0.0
C1559 C 0.05673 0.73627 0.273 0.0
H1560 H 0.04502 0.75444 0.22335 0.0
C1561 C 0.07391 0.73999 0.2638 0.0
H1562 H 0.03332 0.73924 0.26486 0.0
C1563 C 0.0807 0.74885 0.2401 0.0
C1564 C 0.07042 0.75416 0.22508 0.0
H1565 H 0.08207 0.7359 0.27477 0.0
H1566 H 0.09398 0.7515 0.2335 0.0
C1567 C 0.05339 0.75075 0.23458 0.0
C1568 C 0.27346 0.3249 0.26436 0.0
C1569 C 0.27063 0.33496 0.28354 0.0
H1570 H 0.26702 0.31359 0.22625 0.0
C1571 C 0.25754 0.3401 0.2793 0.0
H1572 H 0.28355 0.32086 0.267 0.0
C1573 C 0.24767 0.33553 0.25618 0.0
C1574 C 0.25091 0.32601 0.2365 0.0
H1575 H 0.25491 0.34769 0.29387 0.0
H1576 H 0.23755 0.33956 0.25377 0.0
C1577 C 0.26385 0.32063 0.24102 0.0
C1578 C 0.28507 0.3562 0.43767 0.0
C1579 C 0.27679 0.34096 0.42121 0.0
H1580 H 0.28312 0.36847 0.47292 0.0
C1581 C 0.25928 0.32645 0.42757 0.0
H1582 H 0.29855 0.36759 0.4333 0.0
C1583 C 0.25039 0.32701 0.45015 0.0
C1584 C 0.2588 0.34208 0.46691 0.0
H1585 H 0.25247 0.31457 0.41521 0.0
H1586 H 0.2369 0.3156 0.4545 0.0
C1587 C 0.27617 0.35675 0.46028 0.0
C1588 C 0.67335 0.92626 0.43128 0.0
C1589 C 0.65798 0.92708 0.42336 0.0
H1590 H 0.6852 0.91766 0.46034 0.0
C1591 C 0.64226 0.91923 0.43918 0.0
H1592 H 0.68562 0.93206 0.41941 0.0
C1593 C 0.64207 0.91111 0.46277 0.0
C1594 C 0.65758 0.91061 0.47099 0.0
H1595 H 0.63019 0.91965 0.43361 0.0
H1596 H 0.62995 0.9057 0.47489 0.0
C1597 C 0.67313 0.91808 0.4548 0.0
C1598 C 0.07056 0.7515 0.4281 0.0
C1599 C 0.06865 0.73708 0.41258 0.0
H1600 H 0.0809 0.7666 0.46314 0.0
C1601 C 0.07723 0.72746 0.42027 0.0
H1602 H 0.06398 0.75908 0.4228 0.0
C1603 C 0.08735 0.73205 0.44317 0.0
C1604 C 0.08887 0.74618 0.45914 0.0
H1605 H 0.07614 0.71637 0.40858 0.0
H1606 H 0.09396 0.72449 0.44833 0.0
C1607 C 0.0804 0.75589 0.45119 0.0
C1608 C 0.34253 0.07365 0.76103 0.0
C1609 C 0.32831 0.05652 0.75305 0.0
H1610 H 0.35209 0.0948 0.78948 0.0
C1611 C 0.31217 0.0477 0.76798 0.0
H1612 H 0.35508 0.08085 0.74984 0.0
C1613 C 0.31048 0.05568 0.79076 0.0
C1614 C 0.32489 0.07262 0.79908 0.0
H1615 H 0.30095 0.0345 0.76229 0.0
H1616 H 0.2981 0.04832 0.80225 0.0
C1617 C 0.34084 0.08161 0.78378 0.0
C1618 C 0.90685 0.26161 0.74787 0.0
C1619 C 0.92527 0.273 0.74076 0.0
H1620 H 0.88792 0.24403 0.77666 0.0
C1621 C 0.93898 0.2755 0.75823 0.0
H1622 H 0.89598 0.25932 0.73473 0.0
C1623 C 0.93439 0.26712 0.78253 0.0
C1624 C 0.91596 0.25575 0.78983 0.0
H1625 H 0.95331 0.28434 0.75342 0.0
H1626 H 0.94537 0.26996 0.79579 0.0
C1627 C 0.90225 0.25295 0.77203 0.0
C1628 C 0.74649 0.6816 0.74814 0.0
C1629 C 0.73694 0.66301 0.7419 0.0
H1630 H 0.76346 0.7021 0.77542 0.0
C1631 C 0.73725 0.65057 0.75933 0.0
H1632 H 0.74664 0.69153 0.73493 0.0
C1633 C 0.74644 0.65653 0.78292 0.0
C1634 C 0.75588 0.67514 0.78943 0.0
H1635 H 0.72987 0.63612 0.75515 0.0
H1636 H 0.74565 0.64641 0.79631 0.0
C1637 C 0.75603 0.68763 0.77148 0.0
C1638 C 0.71786 0.6317 0.59058 0.0
C1639 C 0.72589 0.64932 0.60101 0.0
H1640 H 0.71767 0.61486 0.55961 0.0
C1641 C 0.74043 0.66379 0.58761 0.0
H1642 H 0.70671 0.62025 0.60059 0.0
C1643 C 0.7465 0.66077 0.56389 0.0
C1644 C 0.73833 0.64317 0.55318 0.0
H1645 H 0.74683 0.67755 0.5951 0.0
H1646 H 0.75729 0.67236 0.55365 0.0
C1647 C 0.72407 0.62864 0.567 0.0
C1648 C 0.34798 0.06568 0.59672 0.0
C1649 C 0.33777 0.06792 0.61641 0.0
H1650 H 0.35908 0.07284 0.55839 0.0
C1651 C 0.33242 0.08089 0.6131 0.0
H1652 H 0.35223 0.05572 0.59869 0.0
C1653 C 0.33671 0.09104 0.59027 0.0
C1654 C 0.34615 0.08821 0.56995 0.0
H1655 H 0.32475 0.08311 0.6281 0.0
H1656 H 0.33239 0.10094 0.58847 0.0
C1657 C 0.352 0.07561 0.57366 0.0
C1658 C 0.91871 0.28606 0.58303 0.0
C1659 C 0.92289 0.27616 0.60059 0.0
H1660 H 0.90677 0.28617 0.54669 0.0
C1661 C 0.91693 0.25782 0.59521 0.0
H1662 H 0.92313 0.30023 0.58662 0.0
C1663 C 0.90735 0.24969 0.57245 0.0
C1664 C 0.9036 0.25973 0.5545 0.0
H1665 H 0.91982 0.24979 0.60846 0.0
H1666 H 0.90298 0.23554 0.56886 0.0
C1667 C 0.9092 0.27796 0.56022 0.0
C1668 C 0.32461 0.24442 0.60403 0.0
C1669 C 0.32982 0.26254 0.60973 0.0
H1670 H 0.32579 0.22595 0.57704 0.0
C1671 C 0.34034 0.27616 0.5915 0.0
H1672 H 0.31663 0.23363 0.61776 0.0
C1673 C 0.34532 0.27172 0.56793 0.0
C1674 C 0.34012 0.25359 0.56215 0.0
H1675 H 0.34447 0.29024 0.59523 0.0
H1676 H 0.35298 0.28251 0.55405 0.0
C1677 C 0.32978 0.24001 0.58058 0.0
C1678 C 0.74192 0.07345 0.59354 0.0
C1679 C 0.72495 0.06982 0.60359 0.0
H1680 H 0.76133 0.08486 0.56237 0.0
C1681 C 0.71454 0.07539 0.58949 0.0
H1682 H 0.75028 0.06937 0.60402 0.0
C1683 C 0.72078 0.08411 0.56563 0.0
C1684 C 0.73763 0.08755 0.55533 0.0
H1685 H 0.70138 0.07275 0.59666 0.0
H1686 H 0.71214 0.08772 0.55495 0.0
C1687 C 0.7482 0.08223 0.56964 0.0
C1688 C 0.92472 0.65171 0.61043 0.0
C1689 C 0.93262 0.66993 0.61842 0.0
H1690 H 0.9083 0.63152 0.58234 0.0
C1691 C 0.92972 0.68194 0.60343 0.0
H1692 H 0.92658 0.64207 0.62168 0.0
C1693 C 0.91953 0.67599 0.58064 0.0
C1694 C 0.91174 0.6578 0.57243 0.0
H1695 H 0.93571 0.6961 0.60893 0.0
H1696 H 0.9182 0.68584 0.56913 0.0
C1697 C 0.91431 0.64568 0.58779 0.0
C1698 C 0.95068 0.69983 0.76875 0.0
C1699 C 0.94321 0.68254 0.75735 0.0
H1700 H 0.94935 0.71569 0.8 0.0
C1701 C 0.9283 0.66762 0.76947 0.0
H1702 H 0.96211 0.71161 0.75974 0.0
C1703 C 0.92122 0.66987 0.79279 0.0
C1704 C 0.92869 0.68715 0.80438 0.0
H1705 H 0.92234 0.65409 0.76125 0.0
H1706 H 0.91013 0.65793 0.80199 0.0
C1707 C 0.94343 0.70214 0.79192 0.0
C1708 C 0.32249 0.26411 0.77137 0.0
C1709 C 0.33134 0.26421 0.74824 0.0
H1710 H 0.31931 0.25842 0.81195 0.0
C1711 C 0.34299 0.25702 0.74817 0.0
H1712 H 0.31355 0.26971 0.77201 0.0
C1713 C 0.34594 0.25005 0.77092 0.0
C1714 C 0.33761 0.25048 0.79442 0.0
H1715 H 0.34987 0.25679 0.73052 0.0
H1716 H 0.35481 0.24438 0.77003 0.0
C1717 C 0.32573 0.2575 0.79426 0.0
C1718 C 0.74608 0.09218 0.75095 0.0
C1719 C 0.73816 0.07394 0.74299 0.0
H1720 H 0.76067 0.11193 0.78043 0.0
C1721 C 0.7402 0.06169 0.75882 0.0
H1722 H 0.74496 0.10205 0.73916 0.0
C1723 C 0.74924 0.06741 0.78263 0.0
C1724 C 0.75635 0.08546 0.79105 0.0
H1725 H 0.73431 0.04756 0.75325 0.0
H1726 H 0.74998 0.05754 0.79491 0.0
C1727 C 0.75504 0.09785 0.77467 0.0
C1728 C 0.04202 0.33492 0.03017 0.0
C1729 C 0.04769 0.35331 0.03403 0.0
H1730 H 0.04767 0.31353 0.03604 0.0
C1731 C 0.06446 0.36469 0.0462 0.0
H1732 H 0.02921 0.32594 0.02052 0.0
C1733 C 0.07472 0.35745 0.0562 0.0
C1734 C 0.06862 0.33875 0.05359 0.0
H1735 H 0.06903 0.37892 0.04952 0.0
H1736 H 0.08686 0.36638 0.0672 0.0
C1737 C 0.05254 0.3278 0.03937 0.0
C1738 C 0.62897 0.70571 0.04792 0.0
C1739 C 0.63825 0.69653 0.04105 0.0
H1740 H 0.63064 0.7292 0.06585 0.0
C1741 C 0.657 0.70474 0.0466 0.0
H1742 H 0.61455 0.69981 0.04382 0.0
C1743 C 0.66616 0.72149 0.05928 0.0
C1744 C 0.65683 0.73049 0.0667 0.0
H1745 H 0.66459 0.69807 0.04159 0.0
H1746 H 0.68045 0.72709 0.06402 0.0
C1747 C 0.63817 0.72251 0.06063 0.0
C1748 C 0.30211 0.9521 0.03983 0.0
C1749 C 0.3103 0.94198 0.03245 0.0
H1750 H 0.27941 0.95198 0.05827 0.0
C1751 C 0.30075 0.9231 0.03685 0.0
H1752 H 0.30906 0.96667 0.03672 0.0
C1753 C 0.2836 0.91463 0.04898 0.0
C1754 C 0.27564 0.92485 0.05701 0.0
H1755 H 0.3066 0.91488 0.03122 0.0
H1756 H 0.27663 0.90008 0.05226 0.0
C1757 C 0.285 0.94365 0.052 0.0
C1758 C 0.33314 0.02575 0.9616 0.0
C1759 C 0.348 0.03154 0.97848 0.0
H1760 H 0.31675 0.03301 0.93936 0.0
C1761 C 0.35703 0.04958 0.98752 0.0
H1762 H 0.32591 0.01195 0.95421 0.0
C1763 C 0.35153 0.06171 0.9793 0.0
C1764 C 0.33695 0.05602 0.96181 0.0
H1765 H 0.36846 0.0544 0.00069 0.0
H1766 H 0.35882 0.07557 0.98644 0.0
C1767 C 0.32775 0.03783 0.95329 0.0
C1768 C 0.93526 0.31049 0.99088 0.0
C1769 C 0.95445 0.31919 0.99197 0.0
H1770 H 0.91039 0.28777 0.97683 0.0
C1771 C 0.96322 0.31081 0.97999 0.0
H1772 H 0.92805 0.31651 2e-05 0.0
C1773 C 0.95312 0.29443 0.96657 0.0
C1774 C 0.93398 0.28596 0.96484 0.0
H1775 H 0.97797 0.31711 0.98041 0.0
H1776 H 0.96044 0.28876 0.95677 0.0
C1777 C 0.92514 0.29405 0.97748 0.0
C1778 C 0.69649 0.6496 0.9794 0.0
C1779 C 0.68831 0.66032 0.97704 0.0
H1780 H 0.71972 0.64688 0.97047 0.0
C1781 C 0.69804 0.67724 0.96448 0.0
H1782 H 0.68934 0.63652 0.98903 0.0
C1783 C 0.71535 0.68315 0.95397 0.0
C1784 C 0.72338 0.67228 0.95567 0.0
H1785 H 0.69215 0.68584 0.96236 0.0
H1786 H 0.72218 0.69601 0.9437 0.0
C1787 C 0.71384 0.6555 0.96871 0.0
C1788 C 0.94867 0.65324 0.99124 0.0
C1789 C 0.93782 0.63477 -0.00205 0.0
H1790 H 0.94995 0.6763 0.97297 0.0
C1791 C 0.91903 0.6256 0.99222 0.0
H1792 H 0.96318 0.66076 0.99539 0.0
C1793 C 0.9114 0.63459 0.97934 0.0
C1794 C 0.92238 0.65297 0.97216 0.0
H1795 H 0.91028 0.61137 -0.00285 0.0
H1796 H 0.89695 0.62714 0.97484 0.0
C1797 C 0.94105 0.66222 0.97855 0.0
C1798 C 0.37354 0.30789 0.99269 0.0
C1799 C 0.36068 0.31322 0.98757 0.0
H1800 H 0.38228 0.2888 0.98469 0.0
C1801 C 0.34546 0.30197 0.97208 0.0
H1802 H 0.38536 0.31623 0.00466 0.0
C1803 C 0.3437 0.28627 0.96072 0.0
C1804 C 0.35715 0.28155 0.96451 0.0
H1805 H 0.33527 0.30566 0.96787 0.0
H1806 H 0.33232 0.27842 0.94778 0.0
C1807 C 0.37182 0.29223 0.98119 0.0
C1808 C 0.69806 0.07002 0.98969 0.0
C1809 C 0.68718 0.05113 0.98591 0.0
H1810 H 0.72337 0.0944 0.98123 0.0
C1811 C 0.69382 0.04236 0.96997 0.0
H1812 H 0.69335 0.07715 0.00201 0.0
C1813 C 0.71079 0.05224 0.95769 0.0
C1814 C 0.72178 0.07116 0.96134 0.0
H1815 H 0.68572 0.02784 0.96644 0.0
H1816 H 0.71504 0.04502 0.94477 0.0
C1817 C 0.71524 0.07991 0.97767 0.0
C1818 C 0.67426 0.9726 0.05301 0.0
C1819 C 0.65729 0.96378 0.04036 0.0
H1820 H 0.69418 0.96982 0.07436 0.0
C1821 C 0.64792 0.94474 0.03795 0.0
H1822 H 0.68187 0.98726 0.05513 0.0
C1823 C 0.65505 0.93467 0.04901 0.0
C1824 C 0.67176 0.9435 0.06244 0.0
H1825 H 0.63483 0.93757 0.02825 0.0
H1826 H 0.64736 0.91998 0.04744 0.0
C1827 C 0.68142 0.96259 0.06386 0.0
C1828 C 0.02684 0.69867 0.03472 0.0
C1829 C 0.03092 0.68488 0.03887 0.0
H1830 H 0.03501 0.72659 0.03995 0.0
C1831 C 0.0475 0.68922 0.05066 0.0
H1832 H 0.01422 0.69566 0.02532 0.0
C1833 C 0.05915 0.70684 0.06005 0.0
C1834 C 0.05461 0.72052 0.05725 0.0
H1835 H 0.05086 0.67875 0.05416 0.0
H1836 H 0.07113 0.70936 0.07079 0.0
C1837 C 0.03871 0.71635 0.04336 0.0
C1838 C 0.30778 0.3452 0.04783 0.0
C1839 C 0.31637 0.36336 0.03935 0.0
H1840 H 0.28508 0.32352 0.06783 0.0
C1841 C 0.30738 0.37322 0.04312 0.0
H1842 H 0.3143 0.33718 0.04525 0.0
C1843 C 0.29045 0.36527 0.05586 0.0
C1844 C 0.28218 0.34731 0.06517 0.0
H1845 H 0.31355 0.3872 0.03665 0.0
H1846 H 0.28395 0.37328 0.05871 0.0
C1847 C 0.29091 0.33729 0.06063 0.0
C1848 C 0.72166 0.68267 0.35907 0.0
C1849 C 0.71153 0.68685 0.37652 0.0
H1850 H 0.7397 0.672 0.35453 0.0
C1851 C 0.71295 0.68478 0.40323 0.0
H1852 H 0.72068 0.68406 0.33836 0.0
C1853 C 0.72407 0.67838 0.41239 0.0
C1854 C 0.73366 0.67353 0.395 0.0
H1855 H 0.70531 0.68796 0.41709 0.0
H1856 H 0.72464 0.67659 0.43309 0.0
C1857 C 0.73246 0.67576 0.36825 0.0
C1858 C 0.32027 0.03015 0.38301 0.0
C1859 C 0.30219 0.02226 0.37409 0.0
H1860 H 0.34222 0.05211 0.40348 0.0
C1861 C 0.29266 0.03158 0.3781 0.0
H1862 H 0.328 0.02333 0.38032 0.0
C1863 C 0.30095 0.04828 0.39112 0.0
C1864 C 0.31891 0.05599 0.40052 0.0
H1865 H 0.27876 0.02594 0.37132 0.0
H1866 H 0.29325 0.05513 0.39385 0.0
C1867 C 0.32849 0.04677 0.39613 0.0
C1868 C 0.95803 0.25649 0.35954 0.0
C1869 C 0.97095 0.27509 0.36249 0.0
H1870 H 0.9312 0.23453 0.36884 0.0
C1871 C 0.96631 0.28592 0.37756 0.0
H1872 H 0.96115 0.24781 0.34789 0.0
C1873 C 0.94933 0.27827 0.38994 0.0
C1874 C 0.9364 0.25963 0.38727 0.0
H1875 H 0.976 0.30027 0.38041 0.0
H1876 H 0.94659 0.28695 0.40223 0.0
C1877 C 0.94089 0.24886 0.37167 0.0
C1878 C 0.01164 0.36822 0.29671 0.0
C1879 C 0.02362 0.37013 0.31674 0.0
H1880 H 0.00233 0.3813 0.27111 0.0
C1881 C 0.03443 0.38732 0.32819 0.0
H1882 H 0.00316 0.35518 0.28738 0.0
C1883 C 0.03369 0.40241 0.31915 0.0
C1884 C 0.02224 0.40063 0.29831 0.0
H1885 H 0.04372 0.3892 0.34378 0.0
H1886 H 0.04232 0.41551 0.32821 0.0
C1887 C 0.01104 0.38326 0.28751 0.0
C1888 C 0.60113 0.63742 0.31638 0.0
C1889 C 0.62005 0.64638 0.32106 0.0
H1890 H 0.57782 0.61422 0.29982 0.0
C1891 C 0.62988 0.63794 0.3133 0.0
H1892 H 0.59312 0.64349 0.32222 0.0
C1893 C 0.62114 0.62126 0.30035 0.0
C1894 C 0.60234 0.61255 0.29489 0.0
H1895 H 0.64447 0.64444 0.31658 0.0
H1896 H 0.62932 0.61555 0.29375 0.0
C1897 C 0.59237 0.62068 0.30342 0.0
C1898 C 0.35832 0.97234 0.30157 0.0
C1899 C 0.35443 0.98514 0.3123 0.0
H1900 H 0.37747 0.96783 0.28077 0.0
C1901 C 0.36825 0.00352 0.31306 0.0
H1902 H 0.34784 0.95808 0.30064 0.0
C1903 C 0.38553 0.00911 0.30252 0.0
C1904 C 0.3892 0.99652 0.29022 0.0
H1905 H 0.36564 0.01362 0.32157 0.0
H1906 H 0.39585 0.0234 0.30359 0.0
C1907 C 0.37543 0.97798 0.29036 0.0
C1908 C 0.60703 0.96687 0.32173 0.0
C1909 C 0.60316 0.94879 0.32072 0.0
H1910 H 0.59892 0.9859 0.31072 0.0
C1911 C 0.58747 0.93576 0.30759 0.0
H1912 H 0.61895 0.97719 0.33192 0.0
C1913 C 0.57622 0.9408 0.295 0.0
C1914 C 0.58016 0.95895 0.29558 0.0
H1915 H 0.58418 0.92174 0.30629 0.0
H1916 H 0.56477 0.93049 0.28405 0.0
C1917 C 0.59558 0.97188 0.30946 0.0
C1918 C 0.03082 0.64211 0.32105 0.0
C1919 C 0.0178 0.64764 0.32056 0.0
H1920 H 0.03695 0.62131 0.31125 0.0
C1921 C 0.00015 0.63548 0.31131 0.0
H1922 H 0.04453 0.65117 0.32813 0.0
C1923 C 0.99579 0.61838 0.30189 0.0
C1924 C 0.00904 0.61314 0.30129 0.0
H1925 H 0.98979 0.63931 0.31079 0.0
H1926 H 0.98228 0.60958 0.29399 0.0
C1927 C 0.02652 0.62505 0.31135 0.0
C1928 C 0.37131 0.40712 0.3184 0.0
C1929 C 0.36135 0.3881 0.3213 0.0
H1930 H 0.39576 0.43036 0.30414 0.0
C1931 C 0.36905 0.37791 0.31212 0.0
H1932 H 0.36584 0.41539 0.32544 0.0
C1933 C 0.38607 0.38644 0.29971 0.0
C1934 C 0.39592 0.40542 0.29631 0.0
H1935 H 0.36176 0.36322 0.31396 0.0
H1936 H 0.3912 0.37804 0.29204 0.0
C1937 C 0.38844 0.41569 0.30611 0.0
C1938 C 0.31385 0.2803 0.37265 0.0
C1939 C 0.32465 0.2992 0.37645 0.0
H1940 H 0.31076 0.25409 0.37958 0.0
C1941 C 0.34152 0.30621 0.38912 0.0
H1942 H 0.30081 0.2745 0.36287 0.0
C1943 C 0.3472 0.2946 0.3986 0.0
C1944 C 0.33615 0.27565 0.3957 0.0
H1945 H 0.3502 0.32071 0.3923 0.0
H1946 H 0.35994 0.30048 0.4092 0.0
C1947 C 0.31952 0.26863 0.38228 0.0
C1948 C 0.68774 0.02653 0.37243 0.0
C1949 C 0.69483 0.01484 0.37252 0.0
H1950 H 0.69241 0.05311 0.3805 0.0
C1951 C 0.7129 0.02154 0.38063 0.0
H1952 H 0.67391 0.02175 0.3659 0.0
C1953 C 0.72335 0.03935 0.3899 0.0
C1954 C 0.71611 0.05101 0.39067 0.0
H1955 H 0.71866 0.01275 0.38098 0.0
H1956 H 0.7368 0.04363 0.39748 0.0
C1957 C 0.69834 0.04448 0.38102 0.0
C1958 C 0.96969 0.67888 0.38661 0.0
C1959 C 0.97737 0.69716 0.37906 0.0
H1960 H 0.94764 0.65601 0.40576 0.0
C1961 C 0.96766 0.70615 0.38427 0.0
H1962 H 0.9768 0.67154 0.38295 0.0
C1963 C 0.95078 0.69714 0.39716 0.0
C1964 C 0.94328 0.67897 0.40514 0.0
H1965 H 0.97314 0.7202 0.37859 0.0
H1966 H 0.94363 0.70444 0.40093 0.0
C1967 C 0.95287 0.66991 0.39952 0.0
C1968 C 0.39152 0.0221 0.70346 0.0
C1969 C 0.37238 0.01081 0.70456 0.0
H1970 H 0.41758 0.02484 0.71169 0.0
C1971 C 0.36489 0.9929 0.71364 0.0
H1972 H 0.39768 0.03597 0.69651 0.0
C1973 C 0.3762 0.98655 0.72214 0.0
C1974 C 0.39533 0.99795 0.72189 0.0
H1975 H 0.35021 0.98383 0.71468 0.0
H1976 H 0.36989 0.97287 0.72989 0.0
C1977 C 0.40289 0.01576 0.7122 0.0
C1978 C 0.98353 0.36625 0.71243 0.0
C1979 C 0.96746 0.3609 0.69835 0.0
H1980 H 0.00372 0.38581 0.73786 0.0
C1981 C 0.9605 0.3727 0.69716 0.0
H1982 H 0.9892 0.35742 0.71381 0.0
C1983 C 0.96911 0.38927 0.71048 0.0
C1984 C 0.98468 0.39426 0.72568 0.0
H1985 H 0.94826 0.36904 0.6862 0.0
H1986 H 0.96334 0.39802 0.70917 0.0
C1987 C 0.99195 0.38266 0.7261 0.0
C1988 C 0.63909 0.59671 0.71928 0.0
C1989 C 0.64551 0.61217 0.70354 0.0
H1990 H 0.61786 0.57759 0.74406 0.0
C1991 C 0.63418 0.61948 0.69926 0.0
H1992 H 0.64759 0.59087 0.72313 0.0
C1993 C 0.6168 0.61153 0.7107 0.0
C1994 C 0.61053 0.59631 0.72708 0.0
H1995 H 0.63871 0.63131 0.68699 0.0
H1996 H 0.60835 0.61738 0.70672 0.0
C1997 C 0.62192 0.58899 0.73112 0.0
C1998 C 0.7075 0.72352 0.65357 0.0
C1999 C 0.69444 0.70556 0.64674 0.0
H2000 H 0.71692 0.75187 0.64876 0.0
C2001 C 0.67977 0.70252 0.63082 0.0
H2002 H 0.7189 0.72631 0.66596 0.0
C2003 C 0.67864 0.71716 0.62098 0.0
C2004 C 0.69218 0.73515 0.62681 0.0
H2005 H 0.66945 0.68884 0.62527 0.0
H2006 H 0.66763 0.71438 0.60782 0.0
C2007 C 0.7064 0.73816 0.64367 0.0
C2008 C 0.29356 0.9689 0.63947 0.0
C2009 C 0.28341 0.97659 0.64897 0.0
H2010 H 0.29328 0.94705 0.61874 0.0
C2011 C 0.26432 0.96698 0.64576 0.0
H2012 H 0.30829 0.97593 0.64154 0.0
C2013 C 0.25564 0.95019 0.63294 0.0
C2014 C 0.26586 0.9427 0.62295 0.0
H2015 H 0.25608 0.97245 0.65302 0.0
H2016 H 0.24091 0.94312 0.63079 0.0
C2017 C 0.28491 0.95221 0.62656 0.0
C2018 C 0.01752 0.2998 0.65201 0.0
C2019 C 0.01183 0.3117 0.64313 0.0
H2020 H 0.03713 0.29114 0.64871 0.0
C2021 C 0.02272 0.32509 0.62482 0.0
H2022 H 0.0095 0.28943 0.66627 0.0
C2023 C 0.03849 0.32601 0.61467 0.0
C2024 C 0.04374 0.31358 0.62264 0.0
H2025 H 0.01875 0.33449 0.61762 0.0
H2026 H 0.04606 0.33593 0.59967 0.0
C2027 C 0.03331 0.30074 0.64188 0.0
C2028 C 0.28069 0.31409 0.66195 0.0
C2029 C 0.27481 0.29564 0.65784 0.0
H2030 H 0.2764 0.33622 0.65419 0.0
C2031 C 0.25921 0.28508 0.64272 0.0
H2032 H 0.29256 0.32251 0.6738 0.0
C2033 C 0.25023 0.29304 0.63081 0.0
C2034 C 0.25642 0.31168 0.63419 0.0
H2035 H 0.25444 0.27084 0.63909 0.0
H2036 H 0.23892 0.28467 0.61807 0.0
C2037 C 0.27148 0.32197 0.65053 0.0
C2038 C 0.69552 0.97335 0.66008 0.0
C2039 C 0.6856 0.98162 0.65232 0.0
H2040 H 0.69842 0.94983 0.65755 0.0
C2041 C 0.67037 0.97192 0.63618 0.0
H2042 H 0.70728 0.98047 0.67261 0.0
C2043 C 0.66542 0.95455 0.62741 0.0
C2044 C 0.67545 0.94629 0.63471 0.0
H2045 H 0.66245 0.97789 0.62975 0.0
H2046 H 0.65403 0.94787 0.61414 0.0
C2047 C 0.69048 0.95583 0.65137 0.0
C2048 C 0.03541 0.73964 0.64949 0.0
C2049 C 0.025 0.72078 0.65392 0.0
H2050 H 0.05995 0.76182 0.63354 0.0
C2051 C 0.03211 0.7098 0.64594 0.0
H2052 H 0.03042 0.74851 0.65559 0.0
C2053 C 0.04895 0.71741 0.63309 0.0
C2054 C 0.05915 0.7362 0.62804 0.0
H2055 H 0.02445 0.69522 0.64901 0.0
H2056 H 0.05366 0.70844 0.62634 0.0
C2057 C 0.05231 0.74726 0.63676 0.0
C2058 C 0.99125 0.63252 0.73208 0.0
C2059 C 0.97752 0.62909 0.71406 0.0
H2060 H 0.00256 0.62123 0.75777 0.0
C2061 C 0.96556 0.61108 0.70612 0.0
H2062 H 0.00071 0.64626 0.73855 0.0
C2063 C 0.96673 0.59672 0.71697 0.0
C2064 C 0.97986 0.60007 0.73601 0.0
H2065 H 0.95492 0.60801 0.69209 0.0
H2066 H 0.95704 0.58295 0.71093 0.0
C2067 C 0.99241 0.61817 0.74296 0.0
C2068 C 0.3883 0.35836 0.69399 0.0
C2069 C 0.37049 0.35024 0.70428 0.0
H2070 H 0.41592 0.38061 0.69605 0.0
C2071 C 0.36668 0.3594 0.72379 0.0
H2072 H 0.39163 0.35168 0.6788 0.0
C2073 C 0.38057 0.37586 0.73375 0.0
C2074 C 0.39861 0.38359 0.72439 0.0
H2075 H 0.35308 0.35353 0.7321 0.0
H2076 H 0.3773 0.38202 0.74973 0.0
C2077 C 0.40222 0.37488 0.70393 0.0
C2078 C 0.63333 0.01433 0.70002 0.0
C2079 C 0.64631 0.03181 0.70859 0.0
H2080 H 0.60641 0.99148 0.70439 0.0
C2081 C 0.64184 0.03967 0.72914 0.0
H2082 H 0.63642 0.00809 0.68395 0.0
C2083 C 0.62491 0.02987 0.7417 0.0
C2084 C 0.61183 0.01219 0.73343 0.0
H2085 H 0.65173 0.05311 0.73619 0.0
H2086 H 0.6224 0.03604 0.7584 0.0
C2087 C 0.61617 0.00476 0.71198 0.0
loop_
_geom_bond_atom_site_label_1
_geom_bond_atom_site_label_2
_geom_bond_distance
_geom_bond_site_symmetry_2
_ccdc_geom_bond_type
C0 O1 1.306 1_556 S
C0 O3 1.160 . S
O1 C0 1.306 1_554 S
O1 Cd2 2.228 . S
Cd2 O1 2.228 . S
Cd2 O6 2.273 . S
Cd2 O10 2.277 1_554 S
O3 C0 1.160 . S
O3 Cd4 2.203 1_656 S
Cd4 O3 2.203 1_454 S
Cd4 O6 2.411 1_455 S
Cd4 O7 2.333 . S
Cd4 O8 2.352 . S
Cd4 O12 2.277 1_554 S
Cd4 O13 2.356 . S
C5 O10 1.209 1_455 S
C5 O12 1.226 . S
O6 Cd2 2.273 . S
O6 Cd4 2.411 1_655 S
O6 C9 1.320 1_655 S
O7 Cd4 2.333 . S
O7 C9 1.214 . S
O8 Cd4 2.352 . S
O8 C11 1.258 . S
C9 O6 1.320 1_455 S
C9 O7 1.214 . S
O10 Cd2 2.277 1_556 S
O10 C5 1.209 1_655 S
C11 O8 1.258 . S
C11 O13 1.282 . S
O12 Cd4 2.277 1_556 S
O12 C5 1.226 . S
O13 Cd4 2.356 . S
O13 C11 1.282 . S
C14 O15 1.306 . S
C14 O17 1.160 . S
O15 C14 1.306 . S
O15 Cd16 2.228 . S
Cd16 O15 2.228 . S
Cd16 O20 2.273 1_554 S
Cd16 O24 2.277 . S
O17 C14 1.160 . S
O17 Cd18 2.203 . S
Cd18 O17 2.203 . S
Cd18 O20 2.411 1_554 S
Cd18 O21 2.333 1_554 S
Cd18 O22 2.352 1_554 S
Cd18 O26 2.277 . S
Cd18 O27 2.356 . S
C19 O24 1.209 . S
C19 O26 1.226 . S
O20 Cd16 2.273 1_556 S
O20 Cd18 2.411 1_556 S
O20 C23 1.320 . S
O21 Cd18 2.333 1_556 S
O21 C23 1.214 . S
O22 Cd18 2.352 1_556 S
O22 C25 1.258 . S
C23 O20 1.320 . S
C23 O21 1.214 . S
O24 Cd16 2.277 . S
O24 C19 1.209 . S
C25 O22 1.258 . S
C25 O27 1.282 1_556 S
O26 Cd18 2.277 . S
O26 C19 1.226 . S
O27 Cd18 2.356 . S
O27 C25 1.282 1_554 S
C28 O29 1.306 . S
C28 O31 1.160 . S
O29 C28 1.306 . S
O29 Cd30 2.228 . S
Cd30 O29 2.228 . S
Cd30 O34 2.273 1_554 S
Cd30 O38 2.277 . S
O31 C28 1.160 . S
O31 Cd32 2.203 1_565 S
Cd32 O31 2.203 1_545 S
Cd32 O34 2.411 1_544 S
Cd32 O35 2.333 1_554 S
Cd32 O36 2.352 1_554 S
Cd32 O40 2.277 . S
Cd32 O41 2.356 . S
C33 O38 1.209 1_545 S
C33 O40 1.226 . S
O34 Cd30 2.273 1_556 S
O34 Cd32 2.411 1_566 S
O34 C37 1.320 1_565 S
O35 Cd32 2.333 1_556 S
O35 C37 1.214 . S
O36 Cd32 2.352 1_556 S
O36 C39 1.258 . S
C37 O34 1.320 1_545 S
C37 O35 1.214 . S
O38 Cd30 2.277 . S
O38 C33 1.209 1_565 S
C39 O36 1.258 . S
C39 O41 1.282 1_556 S
O40 Cd32 2.277 . S
O40 C33 1.226 . S
O41 Cd32 2.356 . S
O41 C39 1.282 1_554 S
C42 O43 1.306 1_556 S
C42 O45 1.160 . S
O43 C42 1.306 1_554 S
O43 Cd44 2.228 . S
Cd44 O43 2.228 . S
Cd44 O48 2.273 . S
Cd44 O52 2.277 1_554 S
O45 C42 1.160 . S
O45 Cd46 2.203 1_656 S
Cd46 O45 2.203 1_454 S
Cd46 O48 2.411 1_455 S
Cd46 O49 2.333 . S
Cd46 O50 2.352 . S
Cd46 O54 2.277 1_554 S
Cd46 O55 2.356 . S
C47 O52 1.209 1_455 S
C47 O54 1.226 . S
O48 Cd44 2.273 . S
O48 Cd46 2.411 1_655 S
O48 C51 1.320 1_655 S
O49 Cd46 2.333 . S
O49 C51 1.214 . S
O50 Cd46 2.352 . S
O50 C53 1.258 . S
C51 O48 1.320 1_455 S
C51 O49 1.214 . S
O52 Cd44 2.277 1_556 S
O52 C47 1.209 1_655 S
C53 O50 1.258 . S
C53 O55 1.282 . S
O54 Cd46 2.277 1_556 S
O54 C47 1.226 . S
O55 Cd46 2.356 . S
O55 C53 1.282 . S
C56 O57 1.306 . S
C56 O59 1.160 . S
O57 C56 1.306 . S
O57 Cd58 2.228 . S
Cd58 O57 2.228 . S
Cd58 O62 2.273 1_554 S
Cd58 O66 2.277 . S
O59 C56 1.160 . S
O59 Cd60 2.203 . S
Cd60 O59 2.203 . S
Cd60 O62 2.411 1_554 S
Cd60 O63 2.333 1_554 S
Cd60 O64 2.352 1_554 S
Cd60 O68 2.277 . S
Cd60 O69 2.356 . S
C61 O66 1.209 . S
C61 O68 1.226 . S
O62 Cd58 2.273 1_556 S
O62 Cd60 2.411 1_556 S
O62 C65 1.320 . S
O63 Cd60 2.333 1_556 S
O63 C65 1.214 . S
O64 Cd60 2.352 1_556 S
O64 C67 1.258 . S
C65 O62 1.320 . S
C65 O63 1.214 . S
O66 Cd58 2.277 . S
O66 C61 1.209 . S
C67 O64 1.258 . S
C67 O69 1.282 1_556 S
O68 Cd60 2.277 . S
O68 C61 1.226 . S
O69 Cd60 2.356 . S
O69 C67 1.282 1_554 S
C70 O71 1.306 1_556 S
C70 O73 1.160 . S
O71 C70 1.306 1_554 S
O71 Cd72 2.228 . S
Cd72 O71 2.228 . S
Cd72 O76 2.273 . S
Cd72 O80 2.277 1_554 S
O73 C70 1.160 . S
O73 Cd74 2.203 1_546 S
Cd74 O73 2.203 1_564 S
Cd74 O76 2.411 1_565 S
Cd74 O77 2.333 . S
Cd74 O78 2.352 . S
Cd74 O82 2.277 1_554 S
Cd74 O83 2.356 . S
C75 O80 1.192 1_565 S
C75 O82 1.250 . S
O76 Cd72 2.273 . S
O76 Cd74 2.411 1_545 S
O76 C79 1.332 . S
O77 Cd74 2.333 . S
O77 C79 1.188 1_565 S
O78 Cd74 2.352 . S
O78 C81 1.258 . S
C79 O76 1.332 . S
C79 O77 1.188 1_545 S
O80 Cd72 2.277 1_556 S
O80 C75 1.192 1_545 S
C81 O78 1.258 . S
C81 O83 1.282 . S
O82 Cd74 2.277 1_556 S
O82 C75 1.250 . S
O83 Cd74 2.356 . S
O83 C81 1.282 . S
C84 O85 1.306 . S
C84 O87 1.160 . S
O85 C84 1.306 . S
O85 Cd86 2.228 . S
Cd86 O85 2.228 . S
Cd86 O90 2.273 . S
Cd86 O94 2.277 . S
O87 C84 1.160 . S
O87 Cd88 2.203 . S
Cd88 O87 2.203 . S
Cd88 O90 2.411 . S
Cd88 O91 2.333 . S
Cd88 O92 2.352 . S
Cd88 O96 2.277 . S
Cd88 O97 2.356 . S
C89 O94 1.209 . S
C89 O96 1.226 . S
O90 Cd86 2.273 . S
O90 Cd88 2.411 . S
O90 C93 1.320 . S
O91 Cd88 2.333 . S
O91 C93 1.214 . S
O92 Cd88 2.352 . S
O92 C95 1.258 . S
C93 O90 1.320 . S
C93 O91 1.214 . S
O94 Cd86 2.277 . S
O94 C89 1.209 . S
C95 O92 1.258 . S
C95 O97 1.282 . S
O96 Cd88 2.277 . S
O96 C89 1.226 . S
O97 Cd88 2.356 . S
O97 C95 1.282 . S
C98 O99 1.303 . S
C98 O101 1.160 1_545 S
O99 C98 1.303 . S
O99 Cd100 2.218 1_545 S
Cd100 O99 2.218 1_565 S
Cd100 O104 2.273 . S
Cd100 O108 2.277 . S
O101 C98 1.160 1_565 S
O101 Cd102 2.203 . S
Cd102 O101 2.203 . S
Cd102 O104 2.411 . S
Cd102 O105 2.333 . S
Cd102 O106 2.352 . S
Cd102 O110 2.277 . S
Cd102 O111 2.356 . S
C103 O108 1.209 . S
C103 O110 1.226 . S
O104 Cd100 2.273 . S
O104 Cd102 2.411 . S
O104 C107 1.320 . S
O105 Cd102 2.333 . S
O105 C107 1.214 . S
O106 Cd102 2.352 . S
O106 C109 1.258 . S
C107 O104 1.320 . S
C107 O105 1.214 . S
O108 Cd100 2.277 . S
O108 C103 1.209 . S
C109 O106 1.258 . S
C109 O111 1.282 . S
O110 Cd102 2.277 . S
O110 C103 1.226 . S
O111 Cd102 2.356 . S
O111 C109 1.282 . S
C112 O113 1.274 1_655 S
C112 O115 1.161 1_655 S
O113 C112 1.274 1_455 S
O113 Cd114 2.228 . S
Cd114 O113 2.228 . S
Cd114 O118 2.273 . S
Cd114 O122 2.277 . S
O115 C112 1.161 1_455 S
O115 Cd116 2.203 . S
Cd116 O115 2.203 . S
Cd116 O118 2.411 . S
Cd116 O119 2.333 . S
Cd116 O120 2.352 . S
Cd116 O124 2.277 . S
Cd116 O125 2.356 . S
C117 O122 1.209 . S
C117 O124 1.226 . S
O118 Cd114 2.273 . S
O118 Cd116 2.411 . S
O118 C121 1.320 . S
O119 Cd116 2.333 . S
O119 C121 1.214 . S
O120 Cd116 2.352 . S
O120 C123 1.258 . S
C121 O118 1.320 . S
C121 O119 1.214 . S
O122 Cd114 2.277 . S
O122 C117 1.209 . S
C123 O120 1.258 . S
C123 O125 1.282 . S
O124 Cd116 2.277 . S
O124 C117 1.226 . S
O125 Cd116 2.356 . S
O125 C123 1.282 . S
C126 O127 1.306 . S
C126 O129 1.160 . S
O127 C126 1.306 . S
O127 Cd128 2.228 . S
Cd128 O127 2.228 . S
Cd128 O132 2.273 . S
Cd128 O136 2.277 . S
O129 C126 1.160 . S
O129 Cd130 2.203 . S
Cd130 O129 2.203 . S
Cd130 O132 2.411 . S
Cd130 O133 2.333 . S
Cd130 O134 2.352 1_565 S
Cd130 O138 2.277 . S
Cd130 O139 2.356 1_565 S
C131 O136 1.209 . S
C131 O138 1.226 . S
O132 Cd128 2.273 . S
O132 Cd130 2.411 . S
O132 C135 1.320 . S
O133 Cd130 2.333 . S
O133 C135 1.214 . S
O134 Cd130 2.352 1_545 S
O134 C137 1.258 . S
C135 O132 1.320 . S
C135 O133 1.214 . S
O136 Cd128 2.277 . S
O136 C131 1.209 . S
C137 O134 1.258 . S
C137 O139 1.282 . S
O138 Cd130 2.277 . S
O138 C131 1.226 . S
O139 Cd130 2.356 1_545 S
O139 C137 1.282 . S
C140 O141 1.306 1_655 S
C140 O143 1.160 1_655 S
O141 C140 1.306 1_455 S
O141 Cd142 2.228 . S
Cd142 O141 2.228 . S
Cd142 O146 2.273 . S
Cd142 O150 2.277 . S
O143 C140 1.160 1_455 S
O143 Cd144 2.203 . S
Cd144 O143 2.203 . S
Cd144 O146 2.411 . S
Cd144 O147 2.333 . S
Cd144 O148 2.352 . S
Cd144 O152 2.277 . S
Cd144 O153 2.356 . S
C145 O150 1.209 . S
C145 O152 1.226 . S
O146 Cd142 2.273 . S
O146 Cd144 2.411 . S
O146 C149 1.320 . S
O147 Cd144 2.333 . S
O147 C149 1.214 . S
O148 Cd144 2.352 . S
O148 C151 1.258 . S
C149 O146 1.320 . S
C149 O147 1.214 . S
O150 Cd142 2.277 . S
O150 C145 1.209 . S
C151 O148 1.258 . S
C151 O153 1.282 . S
O152 Cd144 2.277 . S
O152 C145 1.226 . S
O153 Cd144 2.356 . S
O153 C151 1.282 . S
C154 O155 1.306 . S
C154 O157 1.160 . S
O155 C154 1.306 . S
O155 Cd156 2.228 . S
Cd156 O155 2.228 . S
Cd156 O160 2.273 . S
Cd156 O164 2.277 . S
O157 C154 1.160 . S
O157 Cd158 2.203 . S
Cd158 O157 2.203 . S
Cd158 O160 2.411 . S
Cd158 O161 2.333 . S
Cd158 O162 2.352 . S
Cd158 O166 2.277 . S
Cd158 O167 2.356 . S
C159 O164 1.209 . S
C159 O166 1.226 . S
O160 Cd156 2.273 . S
O160 Cd158 2.411 . S
O160 C163 1.320 . S
O161 Cd158 2.333 . S
O161 C163 1.214 . S
O162 Cd158 2.352 . S
O162 C165 1.258 . S
C163 O160 1.320 . S
C163 O161 1.214 . S
O164 Cd156 2.277 . S
O164 C159 1.209 . S
C165 O162 1.258 . S
C165 O167 1.282 . S
O166 Cd158 2.277 . S
O166 C159 1.226 . S
O167 Cd158 2.356 . S
O167 C165 1.282 . S
C168 O169 1.306 1_565 S
C168 O171 1.160 1_565 S
O169 C168 1.306 1_545 S
O169 Cd170 2.228 . S
Cd170 O169 2.228 . S
Cd170 O174 2.273 . S
Cd170 O178 2.277 . S
O171 C168 1.160 1_545 S
O171 Cd172 2.203 . S
Cd172 O171 2.203 . S
Cd172 O174 2.411 . S
Cd172 O175 2.333 . S
Cd172 O176 2.352 . S
Cd172 O180 2.277 . S
Cd172 O181 2.356 . S
C173 O178 1.209 . S
C173 O180 1.226 . S
O174 Cd170 2.273 . S
O174 Cd172 2.411 . S
O174 C177 1.320 . S
O175 Cd172 2.333 . S
O175 C177 1.214 . S
O176 Cd172 2.352 . S
O176 C179 1.258 . S
C177 O174 1.320 . S
C177 O175 1.214 . S
O178 Cd170 2.277 . S
O178 C173 1.209 . S
C179 O176 1.258 . S
C179 O181 1.282 . S
O180 Cd172 2.277 . S
O180 C173 1.226 . S
O181 Cd172 2.356 . S
O181 C179 1.282 . S
C182 O183 1.306 . S
C182 O185 1.160 . S
O183 C182 1.306 . S
O183 Cd184 2.228 . S
Cd184 O183 2.228 . S
Cd184 O188 2.273 . S
Cd184 O192 2.277 . S
O185 C182 1.160 . S
O185 Cd186 2.203 . S
Cd186 O185 2.203 . S
Cd186 O188 2.411 . S
Cd186 O189 2.333 . S
Cd186 O190 2.352 1_655 S
Cd186 O194 2.277 . S
Cd186 O195 2.356 1_655 S
C187 O192 1.209 . S
C187 O194 1.226 . S
O188 Cd184 2.273 . S
O188 Cd186 2.411 . S
O188 C191 1.320 . S
O189 Cd186 2.333 . S
O189 C191 1.214 . S
O190 Cd186 2.352 1_455 S
O190 C193 1.258 . S
C191 O188 1.320 . S
C191 O189 1.214 . S
O192 Cd184 2.277 . S
O192 C187 1.209 . S
C193 O190 1.258 . S
C193 O195 1.282 . S
O194 Cd186 2.277 . S
O194 C187 1.226 . S
O195 Cd186 2.356 1_455 S
O195 C193 1.282 . S
C196 O197 1.306 . S
C196 O199 1.160 . S
O197 C196 1.306 . S
O197 Cd198 2.228 . S
Cd198 O197 2.228 . S
Cd198 O202 2.273 . S
Cd198 O206 2.277 . S
O199 C196 1.160 . S
O199 Cd200 2.203 . S
Cd200 O199 2.203 . S
Cd200 O202 2.411 . S
Cd200 O203 2.333 . S
Cd200 O204 2.352 . S
Cd200 O208 2.277 . S
Cd200 O209 2.356 . S
C201 O206 1.209 . S
C201 O208 1.226 . S
O202 Cd198 2.273 . S
O202 Cd200 2.411 . S
O202 C205 1.320 . S
O203 Cd200 2.333 . S
O203 C205 1.214 . S
O204 Cd200 2.352 . S
O204 C207 1.258 . S
C205 O202 1.320 . S
C205 O203 1.214 . S
O206 Cd198 2.277 . S
O206 C201 1.209 . S
C207 O204 1.258 . S
C207 O209 1.282 . S
O208 Cd200 2.277 . S
O208 C201 1.226 . S
O209 Cd200 2.356 . S
O209 C207 1.282 . S
C210 O211 1.306 . S
C210 O213 1.160 . S
O211 C210 1.306 . S
O211 Cd212 2.228 . S
Cd212 O211 2.228 . S
Cd212 O216 2.273 . S
Cd212 O220 2.277 . S
O213 C210 1.160 . S
O213 Cd214 2.203 . S
Cd214 O213 2.203 . S
Cd214 O216 2.411 . S
Cd214 O217 2.333 . S
Cd214 O218 2.352 . S
Cd214 O222 2.277 . S
Cd214 O223 2.356 . S
C215 O220 1.209 . S
C215 O222 1.226 . S
O216 Cd212 2.273 . S
O216 Cd214 2.411 . S
O216 C219 1.320 . S
O217 Cd214 2.333 . S
O217 C219 1.214 . S
O218 Cd214 2.352 . S
O218 C221 1.258 . S
C219 O216 1.320 . S
C219 O217 1.214 . S
O220 Cd212 2.277 . S
O220 C215 1.209 . S
C221 O218 1.258 . S
C221 O223 1.282 . S
O222 Cd214 2.277 . S
O222 C215 1.226 . S
O223 Cd214 2.356 . S
O223 C221 1.282 . S
C224 O225 1.306 . S
C224 O227 1.160 . S
O225 C224 1.306 . S
O225 Cd226 2.228 . S
Cd226 O225 2.228 . S
Cd226 O230 2.273 . S
Cd226 O234 2.277 . S
O227 C224 1.160 . S
O227 Cd228 2.203 . S
Cd228 O227 2.203 . S
Cd228 O230 2.411 . S
Cd228 O231 2.333 . S
Cd228 O232 2.352 . S
Cd228 O236 2.277 . S
Cd228 O237 2.356 1_545 S
C229 O234 1.209 . S
C229 O236 1.226 . S
O230 Cd226 2.273 . S
O230 Cd228 2.411 . S
O230 C233 1.320 . S
O231 Cd228 2.333 . S
O231 C233 1.214 . S
O232 Cd228 2.352 . S
O232 C235 1.258 1_545 S
C233 O230 1.320 . S
C233 O231 1.214 . S
O234 Cd226 2.277 . S
O234 C229 1.209 . S
C235 O232 1.258 1_565 S
C235 O237 1.282 . S
O236 Cd228 2.277 . S
O236 C229 1.226 . S
O237 Cd228 2.356 1_565 S
O237 C235 1.282 . S
C238 O239 1.336 . S
C238 O241 1.160 1_455 S
O239 C238 1.336 . S
O239 Cd240 2.187 1_455 S
Cd240 O239 2.187 1_655 S
Cd240 O244 2.273 . S
Cd240 O248 2.277 . S
O241 C238 1.160 1_655 S
O241 Cd242 2.203 . S
Cd242 O241 2.203 . S
Cd242 O244 2.411 . S
Cd242 O245 2.333 . S
Cd242 O246 2.352 . S
Cd242 O250 2.277 . S
Cd242 O251 2.356 . S
C243 O248 1.209 . S
C243 O250 1.226 . S
O244 Cd240 2.273 . S
O244 Cd242 2.411 . S
O244 C247 1.320 . S
O245 Cd242 2.333 . S
O245 C247 1.214 . S
O246 Cd242 2.352 . S
O246 C249 1.258 . S
C247 O244 1.320 . S
C247 O245 1.214 . S
O248 Cd240 2.277 . S
O248 C243 1.209 . S
C249 O246 1.258 . S
C249 O251 1.282 . S
O250 Cd242 2.277 . S
O250 C243 1.226 . S
O251 Cd242 2.356 . S
O251 C249 1.282 . S
H252 C279 0.929 . S
N253 C278 1.433 . S
N253 C284 1.435 . S
N253 C290 1.423 . S
H254 C280 0.930 . S
H255 C283 0.931 . S
H256 C282 0.929 . S
H257 C285 0.930 . S
H258 C286 0.932 . S
H259 C289 0.929 . S
H260 C288 0.931 . S
H261 C291 0.929 . S
H262 C295 0.932 . S
H263 C292 0.931 . S
H264 C294 0.929 . S
H265 C297 0.929 . S
H266 C298 0.930 . S
H267 C300 0.929 . S
H268 C301 0.931 . S
H269 C303 0.930 . S
H270 C304 0.932 . S
H271 C306 0.931 . S
H272 C307 0.929 . S
H273 C309 0.929 . S
H274 C310 0.931 . S
H275 C312 0.929 . S
N276 C296 1.433 . S
N276 C302 1.435 . S
N276 C308 1.423 . S
H277 C313 0.932 . S
C278 N253 1.433 . S
C278 C279 1.363 . S
C278 C283 1.370 . S
C279 H252 0.929 . S
C279 C278 1.363 . S
C279 C280 1.385 . S
C280 H254 0.930 . S
C280 C279 1.385 . S
C280 C281 1.357 . S
C281 C280 1.357 . S
C281 C282 1.406 . S
C282 H256 0.929 . S
C282 C281 1.406 . S
C282 C283 1.391 . S
C283 H255 0.931 . S
C283 C278 1.370 . S
C283 C282 1.391 . S
C284 N253 1.435 . S
C284 C285 1.358 . S
C284 C289 1.371 . S
C285 H257 0.930 . S
C285 C284 1.358 . S
C285 C286 1.405 . S
C286 H258 0.932 . S
C286 C285 1.405 . S
C286 C287 1.383 . S
C287 C286 1.383 . S
C287 C288 1.393 . S
C288 H260 0.931 . S
C288 C287 1.393 . S
C288 C289 1.382 . S
C289 H259 0.929 . S
C289 C284 1.371 . S
C289 C288 1.382 . S
C290 N253 1.423 . S
C290 C291 1.362 . S
C290 C295 1.388 . S
C291 H261 0.929 . S
C291 C290 1.362 . S
C291 C292 1.376 . S
C292 H263 0.931 . S
C292 C291 1.376 . S
C292 C293 1.396 . S
C293 C292 1.396 . S
C293 C294 1.348 . S
C293 C311 1.472 . S
C294 H264 0.929 . S
C294 C293 1.348 . S
C294 C295 1.443 . S
C295 H262 0.932 . S
C295 C290 1.388 . S
C295 C294 1.443 . S
C296 N276 1.433 . S
C296 C297 1.363 . S
C296 C301 1.370 . S
C297 H265 0.929 . S
C297 C296 1.363 . S
C297 C298 1.385 . S
C298 H266 0.930 . S
C298 C297 1.385 . S
C298 C299 1.357 . S
C299 C298 1.357 . S
C299 C300 1.406 . S
C300 H267 0.929 . S
C300 C299 1.406 . S
C300 C301 1.391 . S
C301 H268 0.931 . S
C301 C296 1.370 . S
C301 C300 1.391 . S
C302 N276 1.435 . S
C302 C303 1.358 . S
C302 C307 1.371 . S
C303 H269 0.930 . S
C303 C302 1.358 . S
C303 C304 1.405 . S
C304 H270 0.932 . S
C304 C303 1.405 . S
C304 C305 1.383 . S
C305 C304 1.383 . S
C305 C306 1.393 . S
C306 H271 0.931 . S
C306 C305 1.393 . S
C306 C307 1.382 . S
C307 H272 0.929 . S
C307 C302 1.371 . S
C307 C306 1.382 . S
C308 N276 1.423 . S
C308 C309 1.362 . S
C308 C313 1.388 . S
C309 H273 0.929 . S
C309 C308 1.362 . S
C309 C310 1.376 . S
C310 H274 0.931 . S
C310 C309 1.376 . S
C310 C311 1.396 . S
C311 C293 1.472 . S
C311 C310 1.396 . S
C311 C312 1.348 . S
C312 H275 0.929 . S
C312 C311 1.348 . S
C312 C313 1.443 . S
C313 H277 0.932 . S
C313 C308 1.388 . S
C313 C312 1.443 . S
H314 C341 0.929 . S
N315 C340 1.433 . S
N315 C346 1.435 . S
N315 C352 1.423 . S
H316 C342 0.930 . S
H317 C345 0.931 . S
H318 C344 0.929 . S
H319 C347 0.930 . S
H320 C348 0.932 . S
H321 C351 0.929 . S
H322 C350 0.931 . S
H323 C353 0.929 . S
H324 C357 0.932 . S
H325 C354 0.931 . S
H326 C356 0.929 . S
H327 C359 0.929 . S
H328 C360 0.930 . S
H329 C362 0.929 . S
H330 C363 0.931 . S
H331 C365 0.930 . S
H332 C366 0.932 . S
H333 C368 0.931 . S
H334 C369 0.929 . S
H335 C371 0.929 . S
H336 C372 0.931 . S
H337 C374 0.929 . S
N338 C358 1.433 . S
N338 C364 1.435 . S
N338 C370 1.423 . S
H339 C375 0.932 . S
C340 N315 1.433 . S
C340 C341 1.363 . S
C340 C345 1.370 . S
C341 H314 0.929 . S
C341 C340 1.363 . S
C341 C342 1.385 . S
C342 H316 0.930 . S
C342 C341 1.385 . S
C342 C343 1.357 . S
C343 C342 1.357 . S
C343 C344 1.406 . S
C344 H318 0.929 . S
C344 C343 1.406 . S
C344 C345 1.391 . S
C345 H317 0.931 . S
C345 C340 1.370 . S
C345 C344 1.391 . S
C346 N315 1.435 . S
C346 C347 1.358 . S
C346 C351 1.371 . S
C347 H319 0.930 . S
C347 C346 1.358 . S
C347 C348 1.405 . S
C348 H320 0.932 . S
C348 C347 1.405 . S
C348 C349 1.383 . S
C349 C348 1.383 . S
C349 C350 1.393 . S
C350 H322 0.931 . S
C350 C349 1.393 . S
C350 C351 1.382 . S
C351 H321 0.929 . S
C351 C346 1.371 . S
C351 C350 1.382 . S
C352 N315 1.423 . S
C352 C353 1.362 . S
C352 C357 1.388 . S
C353 H323 0.929 . S
C353 C352 1.362 . S
C353 C354 1.376 . S
C354 H325 0.931 . S
C354 C353 1.376 . S
C354 C355 1.396 . S
C355 C354 1.396 . S
C355 C356 1.348 . S
C355 C373 1.472 . S
C356 H326 0.929 . S
C356 C355 1.348 . S
C356 C357 1.443 . S
C357 H324 0.932 . S
C357 C352 1.388 . S
C357 C356 1.443 . S
C358 N338 1.433 . S
C358 C359 1.363 . S
C358 C363 1.370 . S
C359 H327 0.929 . S
C359 C358 1.363 . S
C359 C360 1.385 . S
C360 H328 0.930 . S
C360 C359 1.385 . S
C360 C361 1.357 . S
C361 C360 1.357 . S
C361 C362 1.406 . S
C362 H329 0.929 . S
C362 C361 1.406 . S
C362 C363 1.391 . S
C363 H330 0.931 . S
C363 C358 1.370 . S
C363 C362 1.391 . S
C364 N338 1.435 . S
C364 C365 1.358 . S
C364 C369 1.371 . S
C365 H331 0.930 . S
C365 C364 1.358 . S
C365 C366 1.405 . S
C366 H332 0.932 . S
C366 C365 1.405 . S
C366 C367 1.383 . S
C367 C366 1.383 . S
C367 C368 1.393 . S
C368 H333 0.931 . S
C368 C367 1.393 . S
C368 C369 1.382 . S
C369 H334 0.929 . S
C369 C364 1.371 . S
C369 C368 1.382 . S
C370 N338 1.423 . S
C370 C371 1.362 . S
C370 C375 1.388 . S
C371 H335 0.929 . S
C371 C370 1.362 . S
C371 C372 1.376 . S
C372 H336 0.931 . S
C372 C371 1.376 . S
C372 C373 1.396 . S
C373 C355 1.472 . S
C373 C372 1.396 . S
C373 C374 1.348 . S
C374 H337 0.929 . S
C374 C373 1.348 . S
C374 C375 1.443 . S
C375 H339 0.932 . S
C375 C370 1.388 . S
C375 C374 1.443 . S
H376 C403 0.929 . S
N377 C402 1.433 . S
N377 C408 1.435 . S
N377 C414 1.423 . S
H378 C404 0.930 . S
H379 C407 0.931 . S
H380 C406 0.929 . S
H381 C409 0.930 . S
H382 C410 0.932 . S
H383 C413 0.929 . S
H384 C412 0.931 . S
H385 C415 0.929 . S
H386 C419 0.932 . S
H387 C416 0.931 . S
H388 C418 0.929 . S
H389 C421 0.929 . S
H390 C422 0.930 . S
H391 C424 0.929 . S
H392 C425 0.931 . S
H393 C427 0.930 . S
H394 C428 0.932 . S
H395 C430 0.931 . S
H396 C431 0.929 . S
H397 C433 0.929 . S
H398 C434 0.931 . S
H399 C436 0.929 . S
N400 C420 1.433 . S
N400 C426 1.435 . S
N400 C432 1.423 . S
H401 C437 0.932 . S
C402 N377 1.433 . S
C402 C403 1.363 . S
C402 C407 1.370 . S
C403 H376 0.929 . S
C403 C402 1.363 . S
C403 C404 1.385 . S
C404 H378 0.930 . S
C404 C403 1.385 . S
C404 C405 1.357 . S
C405 C404 1.357 . S
C405 C406 1.406 . S
C406 H380 0.929 . S
C406 C405 1.406 . S
C406 C407 1.391 . S
C407 H379 0.931 . S
C407 C402 1.370 . S
C407 C406 1.391 . S
C408 N377 1.435 . S
C408 C409 1.358 . S
C408 C413 1.371 . S
C409 H381 0.930 . S
C409 C408 1.358 . S
C409 C410 1.405 . S
C410 H382 0.932 . S
C410 C409 1.405 . S
C410 C411 1.383 . S
C411 C410 1.383 . S
C411 C412 1.393 . S
C412 H384 0.931 . S
C412 C411 1.393 . S
C412 C413 1.382 . S
C413 H383 0.929 . S
C413 C408 1.371 . S
C413 C412 1.382 . S
C414 N377 1.423 . S
C414 C415 1.362 . S
C414 C419 1.388 . S
C415 H385 0.929 . S
C415 C414 1.362 . S
C415 C416 1.376 . S
C416 H387 0.931 . S
C416 C415 1.376 . S
C416 C417 1.396 . S
C417 C416 1.396 . S
C417 C418 1.348 . S
C417 C435 1.472 . S
C418 H388 0.929 . S
C418 C417 1.348 . S
C418 C419 1.443 . S
C419 H386 0.932 . S
C419 C414 1.388 . S
C419 C418 1.443 . S
C420 N400 1.433 . S
C420 C421 1.363 . S
C420 C425 1.370 . S
C421 H389 0.929 . S
C421 C420 1.363 . S
C421 C422 1.385 . S
C422 H390 0.930 . S
C422 C421 1.385 . S
C422 C423 1.357 . S
C423 C422 1.357 . S
C423 C424 1.406 . S
C424 H391 0.929 . S
C424 C423 1.406 . S
C424 C425 1.391 . S
C425 H392 0.931 . S
C425 C420 1.370 . S
C425 C424 1.391 . S
C426 N400 1.435 . S
C426 C427 1.358 . S
C426 C431 1.371 . S
C427 H393 0.930 . S
C427 C426 1.358 . S
C427 C428 1.405 . S
C428 H394 0.932 . S
C428 C427 1.405 . S
C428 C429 1.383 . S
C429 C428 1.383 . S
C429 C430 1.393 . S
C430 H395 0.931 . S
C430 C429 1.393 . S
C430 C431 1.382 . S
C431 H396 0.929 . S
C431 C426 1.371 . S
C431 C430 1.382 . S
C432 N400 1.423 . S
C432 C433 1.362 . S
C432 C437 1.388 . S
C433 H397 0.929 . S
C433 C432 1.362 . S
C433 C434 1.376 . S
C434 H398 0.931 . S
C434 C433 1.376 . S
C434 C435 1.396 . S
C435 C417 1.472 . S
C435 C434 1.396 . S
C435 C436 1.348 . S
C436 H399 0.929 . S
C436 C435 1.348 . S
C436 C437 1.443 . S
C437 H401 0.932 . S
C437 C432 1.388 . S
C437 C436 1.443 . S
H438 C465 0.929 . S
N439 C464 1.433 . S
N439 C470 1.435 . S
N439 C476 1.423 . S
H440 C466 0.930 . S
H441 C469 0.931 . S
H442 C468 0.929 . S
H443 C471 0.930 . S
H444 C472 0.932 . S
H445 C475 0.929 . S
H446 C474 0.931 . S
H447 C477 0.929 . S
H448 C481 0.932 . S
H449 C478 0.931 . S
H450 C480 0.929 . S
H451 C483 0.929 . S
H452 C484 0.930 . S
H453 C486 0.929 . S
H454 C487 0.931 . S
H455 C489 0.930 . S
H456 C490 0.932 . S
H457 C492 0.931 . S
H458 C493 0.929 . S
H459 C495 0.929 . S
H460 C496 0.931 . S
H461 C498 0.929 . S
N462 C482 1.433 . S
N462 C488 1.435 . S
N462 C494 1.423 . S
H463 C499 0.932 . S
C464 N439 1.433 . S
C464 C465 1.363 . S
C464 C469 1.370 . S
C465 H438 0.929 . S
C465 C464 1.363 . S
C465 C466 1.385 . S
C466 H440 0.930 . S
C466 C465 1.385 . S
C466 C467 1.357 . S
C467 C466 1.357 . S
C467 C468 1.406 . S
C468 H442 0.929 . S
C468 C467 1.406 . S
C468 C469 1.391 . S
C469 H441 0.931 . S
C469 C464 1.370 . S
C469 C468 1.391 . S
C470 N439 1.435 . S
C470 C471 1.358 . S
C470 C475 1.371 . S
C471 H443 0.930 . S
C471 C470 1.358 . S
C471 C472 1.405 . S
C472 H444 0.932 . S
C472 C471 1.405 . S
C472 C473 1.383 . S
C473 C472 1.383 . S
C473 C474 1.393 . S
C474 H446 0.931 . S
C474 C473 1.393 . S
C474 C475 1.382 . S
C475 H445 0.929 . S
C475 C470 1.371 . S
C475 C474 1.382 . S
C476 N439 1.423 . S
C476 C477 1.362 . S
C476 C481 1.388 . S
C477 H447 0.929 . S
C477 C476 1.362 . S
C477 C478 1.376 . S
C478 H449 0.931 . S
C478 C477 1.376 . S
C478 C479 1.396 . S
C479 C478 1.396 . S
C479 C480 1.348 . S
C479 C497 1.472 . S
C480 H450 0.929 . S
C480 C479 1.348 . S
C480 C481 1.443 . S
C481 H448 0.932 . S
C481 C476 1.388 . S
C481 C480 1.443 . S
C482 N462 1.433 . S
C482 C483 1.363 . S
C482 C487 1.370 . S
C483 H451 0.929 . S
C483 C482 1.363 . S
C483 C484 1.385 . S
C484 H452 0.930 . S
C484 C483 1.385 . S
C484 C485 1.357 . S
C485 C484 1.357 . S
C485 C486 1.406 . S
C486 H453 0.929 . S
C486 C485 1.406 . S
C486 C487 1.391 . S
C487 H454 0.931 . S
C487 C482 1.370 . S
C487 C486 1.391 . S
C488 N462 1.435 . S
C488 C489 1.358 . S
C488 C493 1.371 . S
C489 H455 0.930 . S
C489 C488 1.358 . S
C489 C490 1.405 . S
C490 H456 0.932 . S
C490 C489 1.405 . S
C490 C491 1.383 . S
C491 C490 1.383 . S
C491 C492 1.393 . S
C492 H457 0.931 . S
C492 C491 1.393 . S
C492 C493 1.382 . S
C493 H458 0.929 . S
C493 C488 1.371 . S
C493 C492 1.382 . S
C494 N462 1.423 . S
C494 C495 1.362 . S
C494 C499 1.388 . S
C495 H459 0.929 . S
C495 C494 1.362 . S
C495 C496 1.376 . S
C496 H460 0.931 . S
C496 C495 1.376 . S
C496 C497 1.396 . S
C497 C479 1.472 . S
C497 C496 1.396 . S
C497 C498 1.348 . S
C498 H461 0.929 . S
C498 C497 1.348 . S
C498 C499 1.443 . S
C499 H463 0.932 . S
C499 C494 1.388 . S
C499 C498 1.443 . S
H500 C527 0.929 . S
N501 C526 1.433 . S
N501 C532 1.435 . S
N501 C538 1.423 . S
H502 C528 0.930 . S
H503 C531 0.931 . S
H504 C530 0.929 . S
H505 C533 0.930 . S
H506 C534 0.932 . S
H507 C537 0.929 . S
H508 C536 0.931 . S
H509 C539 0.929 . S
H510 C543 0.932 . S
H511 C540 0.931 . S
H512 C542 0.929 . S
H513 C545 0.929 . S
H514 C546 0.930 . S
H515 C548 0.929 . S
H516 C549 0.931 . S
H517 C551 0.930 . S
H518 C552 0.932 . S
H519 C554 0.931 . S
H520 C555 0.929 . S
H521 C557 0.929 . S
H522 C558 0.931 . S
H523 C560 0.929 . S
N524 C544 1.433 . S
N524 C550 1.435 . S
N524 C556 1.423 . S
H525 C561 0.932 . S
C526 N501 1.433 . S
C526 C527 1.363 . S
C526 C531 1.370 . S
C527 H500 0.929 . S
C527 C526 1.363 . S
C527 C528 1.385 . S
C528 H502 0.930 . S
C528 C527 1.385 . S
C528 C529 1.357 . S
C529 C528 1.357 . S
C529 C530 1.406 . S
C530 H504 0.929 . S
C530 C529 1.406 . S
C530 C531 1.391 . S
C531 H503 0.931 . S
C531 C526 1.370 . S
C531 C530 1.391 . S
C532 N501 1.435 . S
C532 C533 1.358 . S
C532 C537 1.371 . S
C533 H505 0.930 . S
C533 C532 1.358 . S
C533 C534 1.405 . S
C534 H506 0.932 . S
C534 C533 1.405 . S
C534 C535 1.383 . S
C535 C534 1.383 . S
C535 C536 1.393 . S
C536 H508 0.931 . S
C536 C535 1.393 . S
C536 C537 1.382 . S
C537 H507 0.929 . S
C537 C532 1.371 . S
C537 C536 1.382 . S
C538 N501 1.423 . S
C538 C539 1.362 . S
C538 C543 1.388 . S
C539 H509 0.929 . S
C539 C538 1.362 . S
C539 C540 1.376 . S
C540 H511 0.931 . S
C540 C539 1.376 . S
C540 C541 1.396 . S
C541 C540 1.396 . S
C541 C542 1.348 . S
C541 C559 1.472 . S
C542 H512 0.929 . S
C542 C541 1.348 . S
C542 C543 1.443 . S
C543 H510 0.932 . S
C543 C538 1.388 . S
C543 C542 1.443 . S
C544 N524 1.433 . S
C544 C545 1.363 . S
C544 C549 1.370 . S
C545 H513 0.929 . S
C545 C544 1.363 . S
C545 C546 1.385 . S
C546 H514 0.930 . S
C546 C545 1.385 . S
C546 C547 1.357 . S
C547 C546 1.357 . S
C547 C548 1.406 . S
C548 H515 0.929 . S
C548 C547 1.406 . S
C548 C549 1.391 . S
C549 H516 0.931 . S
C549 C544 1.370 . S
C549 C548 1.391 . S
C550 N524 1.435 . S
C550 C551 1.358 . S
C550 C555 1.371 . S
C551 H517 0.930 . S
C551 C550 1.358 . S
C551 C552 1.405 . S
C552 H518 0.932 . S
C552 C551 1.405 . S
C552 C553 1.383 . S
C553 C552 1.383 . S
C553 C554 1.393 . S
C554 H519 0.931 . S
C554 C553 1.393 . S
C554 C555 1.382 . S
C555 H520 0.929 . S
C555 C550 1.371 . S
C555 C554 1.382 . S
C556 N524 1.423 . S
C556 C557 1.362 . S
C556 C561 1.388 . S
C557 H521 0.929 . S
C557 C556 1.362 . S
C557 C558 1.376 . S
C558 H522 0.931 . S
C558 C557 1.376 . S
C558 C559 1.396 . S
C559 C541 1.472 . S
C559 C558 1.396 . S
C559 C560 1.348 . S
C560 H523 0.929 . S
C560 C559 1.348 . S
C560 C561 1.443 . S
C561 H525 0.932 . S
C561 C556 1.388 . S
C561 C560 1.443 . S
H562 C589 0.929 . S
N563 C588 1.433 . S
N563 C594 1.435 . S
N563 C600 1.423 . S
H564 C590 0.930 . S
H565 C593 0.931 . S
H566 C592 0.929 . S
H567 C595 0.930 . S
H568 C596 0.932 . S
H569 C599 0.929 . S
H570 C598 0.931 . S
H571 C601 0.929 . S
H572 C605 0.932 . S
H573 C602 0.931 . S
H574 C604 0.929 . S
H575 C607 0.929 . S
H576 C608 0.930 . S
H577 C610 0.929 . S
H578 C611 0.931 . S
H579 C613 0.930 . S
H580 C614 0.932 . S
H581 C616 0.931 . S
H582 C617 0.929 . S
H583 C619 0.929 . S
H584 C620 0.931 . S
H585 C622 0.929 . S
N586 C606 1.433 . S
N586 C612 1.435 . S
N586 C618 1.423 . S
H587 C623 0.932 . S
C588 N563 1.433 . S
C588 C589 1.363 . S
C588 C593 1.370 . S
C589 H562 0.929 . S
C589 C588 1.363 . S
C589 C590 1.385 . S
C590 H564 0.930 . S
C590 C589 1.385 . S
C590 C591 1.357 . S
C591 C590 1.357 . S
C591 C592 1.406 . S
C592 H566 0.929 . S
C592 C591 1.406 . S
C592 C593 1.391 . S
C593 H565 0.931 . S
C593 C588 1.370 . S
C593 C592 1.391 . S
C594 N563 1.435 . S
C594 C595 1.358 . S
C594 C599 1.371 . S
C595 H567 0.930 . S
C595 C594 1.358 . S
C595 C596 1.405 . S
C596 H568 0.932 . S
C596 C595 1.405 . S
C596 C597 1.383 . S
C597 C596 1.383 . S
C597 C598 1.393 . S
C598 H570 0.931 . S
C598 C597 1.393 . S
C598 C599 1.382 . S
C599 H569 0.929 . S
C599 C594 1.371 . S
C599 C598 1.382 . S
C600 N563 1.423 . S
C600 C601 1.362 . S
C600 C605 1.388 . S
C601 H571 0.929 . S
C601 C600 1.362 . S
C601 C602 1.376 . S
C602 H573 0.931 . S
C602 C601 1.376 . S
C602 C603 1.396 . S
C603 C602 1.396 . S
C603 C604 1.348 . S
C603 C621 1.472 . S
C604 H574 0.929 . S
C604 C603 1.348 . S
C604 C605 1.443 . S
C605 H572 0.932 . S
C605 C600 1.388 . S
C605 C604 1.443 . S
C606 N586 1.433 . S
C606 C607 1.363 . S
C606 C611 1.370 . S
C607 H575 0.929 . S
C607 C606 1.363 . S
C607 C608 1.385 . S
C608 H576 0.930 . S
C608 C607 1.385 . S
C608 C609 1.357 . S
C609 C608 1.357 . S
C609 C610 1.406 . S
C610 H577 0.929 . S
C610 C609 1.406 . S
C610 C611 1.391 . S
C611 H578 0.931 . S
C611 C606 1.370 . S
C611 C610 1.391 . S
C612 N586 1.435 . S
C612 C613 1.358 . S
C612 C617 1.371 . S
C613 H579 0.930 . S
C613 C612 1.358 . S
C613 C614 1.405 . S
C614 H580 0.932 . S
C614 C613 1.405 . S
C614 C615 1.383 . S
C615 C614 1.383 . S
C615 C616 1.393 . S
C616 H581 0.931 . S
C616 C615 1.393 . S
C616 C617 1.382 . S
C617 H582 0.929 . S
C617 C612 1.371 . S
C617 C616 1.382 . S
C618 N586 1.423 . S
C618 C619 1.362 . S
C618 C623 1.388 . S
C619 H583 0.929 . S
C619 C618 1.362 . S
C619 C620 1.376 . S
C620 H584 0.931 . S
C620 C619 1.376 . S
C620 C621 1.396 . S
C621 C603 1.472 . S
C621 C620 1.396 . S
C621 C622 1.348 . S
C622 H585 0.929 . S
C622 C621 1.348 . S
C622 C623 1.443 . S
C623 H587 0.932 . S
C623 C618 1.388 . S
C623 C622 1.443 . S
H624 C651 0.929 . S
N625 C650 1.433 . S
N625 C656 1.435 . S
N625 C662 1.423 . S
H626 C652 0.930 . S
H627 C655 0.931 . S
H628 C654 0.929 . S
H629 C657 0.930 . S
H630 C658 0.932 . S
H631 C661 0.929 . S
H632 C660 0.931 . S
H633 C663 0.929 . S
H634 C667 0.932 . S
H635 C664 0.931 . S
H636 C666 0.929 . S
H637 C669 0.929 . S
H638 C670 0.930 . S
H639 C672 0.929 . S
H640 C673 0.931 . S
H641 C675 0.930 . S
H642 C676 0.932 . S
H643 C678 0.931 . S
H644 C679 0.929 . S
H645 C681 0.929 . S
H646 C682 0.931 . S
H647 C684 0.929 . S
N648 C668 1.433 . S
N648 C674 1.435 . S
N648 C680 1.423 . S
H649 C685 0.932 . S
C650 N625 1.433 . S
C650 C651 1.363 . S
C650 C655 1.370 . S
C651 H624 0.929 . S
C651 C650 1.363 . S
C651 C652 1.385 . S
C652 H626 0.930 . S
C652 C651 1.385 . S
C652 C653 1.357 . S
C653 C652 1.357 . S
C653 C654 1.406 . S
C654 H628 0.929 . S
C654 C653 1.406 . S
C654 C655 1.391 . S
C655 H627 0.931 . S
C655 C650 1.370 . S
C655 C654 1.391 . S
C656 N625 1.435 . S
C656 C657 1.358 . S
C656 C661 1.371 . S
C657 H629 0.930 . S
C657 C656 1.358 . S
C657 C658 1.405 . S
C658 H630 0.932 . S
C658 C657 1.405 . S
C658 C659 1.383 . S
C659 C658 1.383 . S
C659 C660 1.393 . S
C660 H632 0.931 . S
C660 C659 1.393 . S
C660 C661 1.382 . S
C661 H631 0.929 . S
C661 C656 1.371 . S
C661 C660 1.382 . S
C662 N625 1.423 . S
C662 C663 1.362 . S
C662 C667 1.388 . S
C663 H633 0.929 . S
C663 C662 1.362 . S
C663 C664 1.376 . S
C664 H635 0.931 . S
C664 C663 1.376 . S
C664 C665 1.396 . S
C665 C664 1.396 . S
C665 C666 1.348 . S
C665 C683 1.472 . S
C666 H636 0.929 . S
C666 C665 1.348 . S
C666 C667 1.443 . S
C667 H634 0.932 . S
C667 C662 1.388 . S
C667 C666 1.443 . S
C668 N648 1.433 . S
C668 C669 1.363 . S
C668 C673 1.370 . S
C669 H637 0.929 . S
C669 C668 1.363 . S
C669 C670 1.385 . S
C670 H638 0.930 . S
C670 C669 1.385 . S
C670 C671 1.357 . S
C671 C670 1.357 . S
C671 C672 1.406 . S
C672 H639 0.929 . S
C672 C671 1.406 . S
C672 C673 1.391 . S
C673 H640 0.931 . S
C673 C668 1.370 . S
C673 C672 1.391 . S
C674 N648 1.435 . S
C674 C675 1.358 . S
C674 C679 1.371 . S
C675 H641 0.930 . S
C675 C674 1.358 . S
C675 C676 1.405 . S
C676 H642 0.932 . S
C676 C675 1.405 . S
C676 C677 1.383 . S
C677 C676 1.383 . S
C677 C678 1.393 . S
C678 H643 0.931 . S
C678 C677 1.393 . S
C678 C679 1.382 . S
C679 H644 0.929 . S
C679 C674 1.371 . S
C679 C678 1.382 . S
C680 N648 1.423 . S
C680 C681 1.362 . S
C680 C685 1.388 . S
C681 H645 0.929 . S
C681 C680 1.362 . S
C681 C682 1.376 . S
C682 H646 0.931 . S
C682 C681 1.376 . S
C682 C683 1.396 . S
C683 C665 1.472 . S
C683 C682 1.396 . S
C683 C684 1.348 . S
C684 H647 0.929 . S
C684 C683 1.348 . S
C684 C685 1.443 . S
C685 H649 0.932 . S
C685 C680 1.388 . S
C685 C684 1.443 . S
H686 C713 0.929 . S
N687 C712 1.433 . S
N687 C718 1.435 . S
N687 C724 1.423 . S
H688 C714 0.930 . S
H689 C717 0.931 . S
H690 C716 0.929 . S
H691 C719 0.930 . S
H692 C720 0.932 . S
H693 C723 0.929 . S
H694 C722 0.931 . S
H695 C725 0.929 . S
H696 C729 0.932 . S
H697 C726 0.931 . S
H698 C728 0.929 . S
H699 C731 0.929 . S
H700 C732 0.930 . S
H701 C734 0.929 . S
H702 C735 0.931 . S
H703 C737 0.930 . S
H704 C738 0.932 . S
H705 C740 0.931 . S
H706 C741 0.929 . S
H707 C743 0.929 . S
H708 C744 0.931 . S
H709 C746 0.929 . S
N710 C730 1.433 . S
N710 C736 1.435 . S
N710 C742 1.423 . S
H711 C747 0.932 . S
C712 N687 1.433 . S
C712 C713 1.363 . S
C712 C717 1.370 . S
C713 H686 0.929 . S
C713 C712 1.363 . S
C713 C714 1.385 . S
C714 H688 0.930 . S
C714 C713 1.385 . S
C714 C715 1.357 . S
C715 C714 1.357 . S
C715 C716 1.406 . S
C716 H690 0.929 . S
C716 C715 1.406 . S
C716 C717 1.391 . S
C717 H689 0.931 . S
C717 C712 1.370 . S
C717 C716 1.391 . S
C718 N687 1.435 . S
C718 C719 1.358 . S
C718 C723 1.371 . S
C719 H691 0.930 . S
C719 C718 1.358 . S
C719 C720 1.405 . S
C720 H692 0.932 . S
C720 C719 1.405 . S
C720 C721 1.383 . S
C721 C720 1.383 . S
C721 C722 1.393 . S
C722 H694 0.931 . S
C722 C721 1.393 . S
C722 C723 1.382 . S
C723 H693 0.929 . S
C723 C718 1.371 . S
C723 C722 1.382 . S
C724 N687 1.423 . S
C724 C725 1.362 . S
C724 C729 1.388 . S
C725 H695 0.929 . S
C725 C724 1.362 . S
C725 C726 1.376 . S
C726 H697 0.931 . S
C726 C725 1.376 . S
C726 C727 1.396 . S
C727 C726 1.396 . S
C727 C728 1.348 . S
C727 C745 1.472 . S
C728 H698 0.929 . S
C728 C727 1.348 . S
C728 C729 1.443 . S
C729 H696 0.932 . S
C729 C724 1.388 . S
C729 C728 1.443 . S
C730 N710 1.433 . S
C730 C731 1.363 . S
C730 C735 1.370 . S
C731 H699 0.929 . S
C731 C730 1.363 . S
C731 C732 1.385 . S
C732 H700 0.930 . S
C732 C731 1.385 . S
C732 C733 1.357 . S
C733 C732 1.357 . S
C733 C734 1.406 . S
C734 H701 0.929 . S
C734 C733 1.406 . S
C734 C735 1.391 . S
C735 H702 0.931 . S
C735 C730 1.370 . S
C735 C734 1.391 . S
C736 N710 1.435 . S
C736 C737 1.358 . S
C736 C741 1.371 . S
C737 H703 0.930 . S
C737 C736 1.358 . S
C737 C738 1.405 . S
C738 H704 0.932 . S
C738 C737 1.405 . S
C738 C739 1.383 . S
C739 C738 1.383 . S
C739 C740 1.393 . S
C740 H705 0.931 . S
C740 C739 1.393 . S
C740 C741 1.382 . S
C741 H706 0.929 . S
C741 C736 1.371 . S
C741 C740 1.382 . S
C742 N710 1.423 . S
C742 C743 1.362 . S
C742 C747 1.388 . S
C743 H707 0.929 . S
C743 C742 1.362 . S
C743 C744 1.376 . S
C744 H708 0.931 . S
C744 C743 1.376 . S
C744 C745 1.396 . S
C745 C727 1.472 . S
C745 C744 1.396 . S
C745 C746 1.348 . S
C746 H709 0.929 . S
C746 C745 1.348 . S
C746 C747 1.443 . S
C747 H711 0.932 . S
C747 C742 1.388 . S
C747 C746 1.443 . S
H748 C775 0.929 . S
N749 C774 1.433 . S
N749 C780 1.435 . S
N749 C786 1.423 . S
H750 C776 0.930 . S
H751 C779 0.931 . S
H752 C778 0.929 . S
H753 C781 0.930 . S
H754 C782 0.932 . S
H755 C785 0.929 . S
H756 C784 0.931 . S
H757 C787 0.929 . S
H758 C791 0.932 . S
H759 C788 0.931 . S
H760 C790 0.929 . S
H761 C793 0.929 . S
H762 C794 0.930 . S
H763 C796 0.929 . S
H764 C797 0.931 . S
H765 C799 0.930 . S
H766 C800 0.932 . S
H767 C802 0.931 . S
H768 C803 0.929 . S
H769 C805 0.929 . S
H770 C806 0.931 . S
H771 C808 0.929 . S
N772 C792 1.433 . S
N772 C798 1.435 . S
N772 C804 1.423 . S
H773 C809 0.932 . S
C774 N749 1.433 . S
C774 C775 1.363 . S
C774 C779 1.370 . S
C775 H748 0.929 . S
C775 C774 1.363 . S
C775 C776 1.385 . S
C776 H750 0.930 . S
C776 C775 1.385 . S
C776 C777 1.357 . S
C777 C776 1.357 . S
C777 C778 1.406 . S
C778 H752 0.929 . S
C778 C777 1.406 . S
C778 C779 1.391 . S
C779 H751 0.931 . S
C779 C774 1.370 . S
C779 C778 1.391 . S
C780 N749 1.435 . S
C780 C781 1.358 . S
C780 C785 1.371 . S
C781 H753 0.930 . S
C781 C780 1.358 . S
C781 C782 1.405 . S
C782 H754 0.932 . S
C782 C781 1.405 . S
C782 C783 1.383 . S
C783 C782 1.383 . S
C783 C784 1.393 . S
C784 H756 0.931 . S
C784 C783 1.393 . S
C784 C785 1.382 . S
C785 H755 0.929 . S
C785 C780 1.371 . S
C785 C784 1.382 . S
C786 N749 1.423 . S
C786 C787 1.362 . S
C786 C791 1.388 . S
C787 H757 0.929 . S
C787 C786 1.362 . S
C787 C788 1.376 . S
C788 H759 0.931 . S
C788 C787 1.376 . S
C788 C789 1.396 . S
C789 C788 1.396 . S
C789 C790 1.348 . S
C789 C807 1.472 . S
C790 H760 0.929 . S
C790 C789 1.348 . S
C790 C791 1.443 . S
C791 H758 0.932 . S
C791 C786 1.388 . S
C791 C790 1.443 . S
C792 N772 1.433 . S
C792 C793 1.363 . S
C792 C797 1.370 . S
C793 H761 0.929 . S
C793 C792 1.363 . S
C793 C794 1.385 . S
C794 H762 0.930 . S
C794 C793 1.385 . S
C794 C795 1.357 . S
C795 C794 1.357 . S
C795 C796 1.406 . S
C796 H763 0.929 . S
C796 C795 1.406 . S
C796 C797 1.391 . S
C797 H764 0.931 . S
C797 C792 1.370 . S
C797 C796 1.391 . S
C798 N772 1.435 . S
C798 C799 1.358 . S
C798 C803 1.371 . S
C799 H765 0.930 . S
C799 C798 1.358 . S
C799 C800 1.405 . S
C800 H766 0.932 . S
C800 C799 1.405 . S
C800 C801 1.383 . S
C801 C800 1.383 . S
C801 C802 1.393 . S
C802 H767 0.931 . S
C802 C801 1.393 . S
C802 C803 1.382 . S
C803 H768 0.929 . S
C803 C798 1.371 . S
C803 C802 1.382 . S
C804 N772 1.423 . S
C804 C805 1.362 . S
C804 C809 1.388 . S
C805 H769 0.929 . S
C805 C804 1.362 . S
C805 C806 1.376 . S
C806 H770 0.931 . S
C806 C805 1.376 . S
C806 C807 1.396 . S
C807 C789 1.472 . S
C807 C806 1.396 . S
C807 C808 1.348 . S
C808 H771 0.929 . S
C808 C807 1.348 . S
C808 C809 1.443 . S
C809 H773 0.932 . S
C809 C804 1.388 . S
C809 C808 1.443 . S
H810 C837 0.929 . S
N811 C836 1.433 . S
N811 C842 1.435 . S
N811 C848 1.423 . S
H812 C838 0.930 . S
H813 C841 0.931 . S
H814 C840 0.929 . S
H815 C843 0.930 . S
H816 C844 0.932 . S
H817 C847 0.929 . S
H818 C846 0.931 . S
H819 C849 0.929 . S
H820 C853 0.932 1_655 S
H821 C850 0.931 . S
H822 C852 0.929 . S
H823 C855 0.929 . S
H824 C856 0.930 . S
H825 C858 0.929 . S
H826 C859 0.931 . S
H827 C861 0.930 . S
H828 C862 0.932 . S
H829 C864 0.931 . S
H830 C865 0.929 . S
H831 C867 0.929 . S
H832 C868 0.931 . S
H833 C870 0.929 . S
N834 C854 1.433 . S
N834 C860 1.435 . S
N834 C866 1.423 . S
H835 C871 0.932 1_655 S
C836 N811 1.433 . S
C836 C837 1.363 . S
C836 C841 1.370 1_455 S
C837 H810 0.929 . S
C837 C836 1.363 . S
C837 C838 1.385 . S
C838 H812 0.930 . S
C838 C837 1.385 . S
C838 C839 1.357 1_455 S
C839 C838 1.357 1_655 S
C839 C840 1.406 . S
C840 H814 0.929 . S
C840 C839 1.406 . S
C840 C841 1.391 . S
C841 H813 0.931 . S
C841 C836 1.370 1_655 S
C841 C840 1.391 . S
C842 N811 1.435 . S
C842 C843 1.358 1_455 S
C842 C847 1.371 . S
C843 H815 0.930 . S
C843 C842 1.358 1_655 S
C843 C844 1.405 . S
C844 H816 0.932 . S
C844 C843 1.405 . S
C844 C845 1.383 1_655 S
C845 C844 1.383 1_455 S
C845 C846 1.393 . S
C846 H818 0.931 . S
C846 C845 1.393 . S
C846 C847 1.382 . S
C847 H817 0.929 . S
C847 C842 1.371 . S
C847 C846 1.382 . S
C848 N811 1.423 . S
C848 C849 1.362 . S
C848 C853 1.388 . S
C849 H819 0.929 . S
C849 C848 1.362 . S
C849 C850 1.376 . S
C850 H821 0.931 . S
C850 C849 1.376 . S
C850 C851 1.396 . S
C851 C850 1.396 . S
C851 C852 1.348 . S
C851 C869 1.472 . S
C852 H822 0.929 . S
C852 C851 1.348 . S
C852 C853 1.443 . S
C853 H820 0.932 1_455 S
C853 C848 1.388 . S
C853 C852 1.443 . S
C854 N834 1.433 . S
C854 C855 1.363 . S
C854 C859 1.370 1_455 S
C855 H823 0.929 . S
C855 C854 1.363 . S
C855 C856 1.385 . S
C856 H824 0.930 . S
C856 C855 1.385 . S
C856 C857 1.357 1_455 S
C857 C856 1.357 1_655 S
C857 C858 1.406 . S
C858 H825 0.929 . S
C858 C857 1.406 . S
C858 C859 1.391 . S
C859 H826 0.931 . S
C859 C854 1.370 1_655 S
C859 C858 1.391 . S
C860 N834 1.435 . S
C860 C861 1.358 1_455 S
C860 C865 1.371 . S
C861 H827 0.930 . S
C861 C860 1.358 1_655 S
C861 C862 1.405 . S
C862 H828 0.932 . S
C862 C861 1.405 . S
C862 C863 1.383 1_655 S
C863 C862 1.383 1_455 S
C863 C864 1.393 . S
C864 H829 0.931 . S
C864 C863 1.393 . S
C864 C865 1.382 . S
C865 H830 0.929 . S
C865 C860 1.371 . S
C865 C864 1.382 . S
C866 N834 1.423 . S
C866 C867 1.362 . S
C866 C871 1.388 . S
C867 H831 0.929 . S
C867 C866 1.362 . S
C867 C868 1.376 . S
C868 H832 0.931 . S
C868 C867 1.376 . S
C868 C869 1.396 . S
C869 C851 1.472 . S
C869 C868 1.396 . S
C869 C870 1.348 . S
C870 H833 0.929 . S
C870 C869 1.348 . S
C870 C871 1.443 . S
C871 H835 0.932 1_455 S
C871 C866 1.388 . S
C871 C870 1.443 . S
H872 C899 0.929 . S
N873 C898 1.433 . S
N873 C904 1.435 . S
N873 C910 1.423 . S
H874 C900 0.930 . S
H875 C903 0.931 . S
H876 C902 0.929 . S
H877 C905 0.930 . S
H878 C906 0.932 . S
H879 C909 0.929 . S
H880 C908 0.931 . S
H881 C911 0.929 . S
H882 C915 0.932 . S
H883 C912 0.931 . S
H884 C914 0.929 . S
H885 C917 0.929 . S
H886 C918 0.930 . S
H887 C920 0.929 . S
H888 C921 0.931 . S
H889 C923 0.930 . S
H890 C924 0.932 . S
H891 C926 0.931 . S
H892 C927 0.929 . S
H893 C929 0.929 . S
H894 C930 0.931 . S
H895 C932 0.929 . S
N896 C916 1.433 . S
N896 C922 1.435 . S
N896 C928 1.423 . S
H897 C933 0.932 . S
C898 N873 1.433 . S
C898 C899 1.363 . S
C898 C903 1.370 . S
C899 H872 0.929 . S
C899 C898 1.363 . S
C899 C900 1.385 . S
C900 H874 0.930 . S
C900 C899 1.385 . S
C900 C901 1.357 . S
C901 C900 1.357 . S
C901 C902 1.406 . S
C902 H876 0.929 . S
C902 C901 1.406 . S
C902 C903 1.391 . S
C903 H875 0.931 . S
C903 C898 1.370 . S
C903 C902 1.391 . S
C904 N873 1.435 . S
C904 C905 1.358 . S
C904 C909 1.371 . S
C905 H877 0.930 . S
C905 C904 1.358 . S
C905 C906 1.405 . S
C906 H878 0.932 . S
C906 C905 1.405 . S
C906 C907 1.383 . S
C907 C906 1.383 . S
C907 C908 1.393 . S
C908 H880 0.931 . S
C908 C907 1.393 . S
C908 C909 1.382 . S
C909 H879 0.929 . S
C909 C904 1.371 . S
C909 C908 1.382 . S
C910 N873 1.423 . S
C910 C911 1.362 . S
C910 C915 1.388 . S
C911 H881 0.929 . S
C911 C910 1.362 . S
C911 C912 1.376 . S
C912 H883 0.931 . S
C912 C911 1.376 . S
C912 C913 1.396 . S
C913 C912 1.396 . S
C913 C914 1.348 . S
C913 C931 1.472 . S
C914 H884 0.929 . S
C914 C913 1.348 . S
C914 C915 1.443 . S
C915 H882 0.932 . S
C915 C910 1.388 . S
C915 C914 1.443 . S
C916 N896 1.433 . S
C916 C917 1.363 . S
C916 C921 1.370 . S
C917 H885 0.929 . S
C917 C916 1.363 . S
C917 C918 1.385 . S
C918 H886 0.930 . S
C918 C917 1.385 . S
C918 C919 1.357 . S
C919 C918 1.357 . S
C919 C920 1.406 . S
C920 H887 0.929 . S
C920 C919 1.406 . S
C920 C921 1.391 . S
C921 H888 0.931 . S
C921 C916 1.370 . S
C921 C920 1.391 . S
C922 N896 1.435 . S
C922 C923 1.358 . S
C922 C927 1.371 . S
C923 H889 0.930 . S
C923 C922 1.358 . S
C923 C924 1.405 . S
C924 H890 0.932 . S
C924 C923 1.405 . S
C924 C925 1.383 . S
C925 C924 1.383 . S
C925 C926 1.393 . S
C926 H891 0.931 . S
C926 C925 1.393 . S
C926 C927 1.382 . S
C927 H892 0.929 . S
C927 C922 1.371 . S
C927 C926 1.382 . S
C928 N896 1.423 . S
C928 C929 1.362 . S
C928 C933 1.388 . S
C929 H893 0.929 . S
C929 C928 1.362 . S
C929 C930 1.376 . S
C930 H894 0.931 . S
C930 C929 1.376 . S
C930 C931 1.396 . S
C931 C913 1.472 . S
C931 C930 1.396 . S
C931 C932 1.348 . S
C932 H895 0.929 . S
C932 C931 1.348 . S
C932 C933 1.443 . S
C933 H897 0.932 . S
C933 C928 1.388 . S
C933 C932 1.443 . S
H934 C961 0.929 . S
N935 C960 1.433 . S
N935 C966 1.435 . S
N935 C972 1.423 . S
H936 C962 0.930 . S
H937 C965 0.931 . S
H938 C964 0.929 . S
H939 C967 0.930 . S
H940 C968 0.932 . S
H941 C971 0.929 . S
H942 C970 0.931 . S
H943 C973 0.929 . S
H944 C977 0.932 1_545 S
H945 C974 0.931 . S
H946 C976 0.929 . S
H947 C979 0.929 . S
H948 C980 0.930 . S
H949 C982 0.929 . S
H950 C983 0.931 . S
H951 C985 0.930 . S
H952 C986 0.932 . S
H953 C988 0.931 . S
H954 C989 0.929 . S
H955 C991 0.929 . S
H956 C992 0.931 . S
H957 C994 0.929 . S
N958 C978 1.433 . S
N958 C984 1.435 . S
N958 C990 1.423 . S
H959 C995 0.932 1_545 S
C960 N935 1.433 . S
C960 C961 1.363 . S
C960 C965 1.370 1_565 S
C961 H934 0.929 . S
C961 C960 1.363 . S
C961 C962 1.385 . S
C962 H936 0.930 . S
C962 C961 1.385 . S
C962 C963 1.357 1_565 S
C963 C962 1.357 1_545 S
C963 C964 1.406 . S
C964 H938 0.929 . S
C964 C963 1.406 . S
C964 C965 1.391 . S
C965 H937 0.931 . S
C965 C960 1.370 1_545 S
C965 C964 1.391 . S
C966 N935 1.435 . S
C966 C967 1.358 1_565 S
C966 C971 1.371 . S
C967 H939 0.930 . S
C967 C966 1.358 1_545 S
C967 C968 1.405 . S
C968 H940 0.932 . S
C968 C967 1.405 . S
C968 C969 1.383 1_545 S
C969 C968 1.383 1_565 S
C969 C970 1.393 . S
C970 H942 0.931 . S
C970 C969 1.393 . S
C970 C971 1.382 . S
C971 H941 0.929 . S
C971 C966 1.371 . S
C971 C970 1.382 . S
C972 N935 1.423 . S
C972 C973 1.362 . S
C972 C977 1.388 . S
C973 H943 0.929 . S
C973 C972 1.362 . S
C973 C974 1.376 . S
C974 H945 0.931 . S
C974 C973 1.376 . S
C974 C975 1.396 . S
C975 C974 1.396 . S
C975 C976 1.348 . S
C975 C993 1.472 . S
C976 H946 0.929 . S
C976 C975 1.348 . S
C976 C977 1.443 . S
C977 H944 0.932 1_565 S
C977 C972 1.388 . S
C977 C976 1.443 . S
C978 N958 1.433 . S
C978 C979 1.363 . S
C978 C983 1.370 1_565 S
C979 H947 0.929 . S
C979 C978 1.363 . S
C979 C980 1.385 . S
C980 H948 0.930 . S
C980 C979 1.385 . S
C980 C981 1.357 1_565 S
C981 C980 1.357 1_545 S
C981 C982 1.406 . S
C982 H949 0.929 . S
C982 C981 1.406 . S
C982 C983 1.391 . S
C983 H950 0.931 . S
C983 C978 1.370 1_545 S
C983 C982 1.391 . S
C984 N958 1.435 . S
C984 C985 1.358 1_565 S
C984 C989 1.371 . S
C985 H951 0.930 . S
C985 C984 1.358 1_545 S
C985 C986 1.405 . S
C986 H952 0.932 . S
C986 C985 1.405 . S
C986 C987 1.383 1_545 S
C987 C986 1.383 1_565 S
C987 C988 1.393 . S
C988 H953 0.931 . S
C988 C987 1.393 . S
C988 C989 1.382 . S
C989 H954 0.929 . S
C989 C984 1.371 . S
C989 C988 1.382 . S
C990 N958 1.423 . S
C990 C991 1.362 . S
C990 C995 1.388 . S
C991 H955 0.929 . S
C991 C990 1.362 . S
C991 C992 1.376 . S
C992 H956 0.931 . S
C992 C991 1.376 . S
C992 C993 1.396 . S
C993 C975 1.472 . S
C993 C992 1.396 . S
C993 C994 1.348 . S
C994 H957 0.929 . S
C994 C993 1.348 . S
C994 C995 1.443 . S
C995 H959 0.932 1_565 S
C995 C990 1.388 . S
C995 C994 1.443 . S
H996 C1023 0.929 . S
N997 C1022 1.433 . S
N997 C1028 1.435 . S
N997 C1034 1.423 . S
H998 C1024 0.930 . S
H999 C1027 0.931 . S
H1000 C1026 0.929 . S
H1001 C1029 0.930 . S
H1002 C1030 0.932 . S
H1003 C1033 0.929 . S
H1004 C1032 0.931 . S
H1005 C1035 0.929 . S
H1006 C1039 0.932 . S
H1007 C1036 0.931 . S
H1008 C1038 0.919 1_545 S
H1009 C1041 0.929 . S
H1010 C1042 0.930 . S
H1011 C1044 0.929 . S
H1012 C1045 0.985 . S
H1013 C1047 0.930 . S
H1014 C1048 0.932 . S
H1015 C1050 0.931 . S
H1016 C1051 0.929 . S
H1017 C1053 0.929 . S
H1018 C1054 0.931 . S
H1019 C1056 0.884 1_545 S
N1020 C1040 1.433 . S
N1020 C1046 1.435 . S
N1020 C1052 1.423 . S
H1021 C1057 0.932 . S
C1022 N997 1.433 . S
C1022 C1023 1.363 . S
C1022 C1027 1.370 1_565 S
C1023 H996 0.929 . S
C1023 C1022 1.363 . S
C1023 C1024 1.385 . S
C1024 H998 0.930 . S
C1024 C1023 1.385 . S
C1024 C1025 1.357 . S
C1025 C1024 1.357 . S
C1025 C1026 1.406 1_565 S
C1026 H1000 0.929 . S
C1026 C1025 1.406 1_545 S
C1026 C1027 1.391 . S
C1027 H999 0.931 . S
C1027 C1022 1.370 1_545 S
C1027 C1026 1.391 . S
C1028 N997 1.435 . S
C1028 C1029 1.358 1_565 S
C1028 C1033 1.371 . S
C1029 H1001 0.930 . S
C1029 C1028 1.358 1_545 S
C1029 C1030 1.405 . S
C1030 H1002 0.932 . S
C1030 C1029 1.405 . S
C1030 C1031 1.383 . S
C1031 C1030 1.383 . S
C1031 C1032 1.393 1_545 S
C1032 H1004 0.931 . S
C1032 C1031 1.393 1_565 S
C1032 C1033 1.382 . S
C1033 H1003 0.929 . S
C1033 C1028 1.371 . S
C1033 C1032 1.382 . S
C1034 N997 1.423 . S
C1034 C1035 1.362 . S
C1034 C1039 1.388 1_565 S
C1035 H1005 0.929 . S
C1035 C1034 1.362 . S
C1035 C1036 1.376 . S
C1036 H1007 0.931 . S
C1036 C1035 1.376 . S
C1036 C1037 1.396 . S
C1037 C1036 1.396 . S
C1037 C1038 1.392 . S
C1037 C1055 1.472 . S
C1038 H1008 0.919 1_565 S
C1038 C1037 1.392 . S
C1038 C1039 1.411 1_565 S
C1039 H1006 0.932 . S
C1039 C1034 1.388 1_545 S
C1039 C1038 1.411 1_545 S
C1040 N1020 1.433 . S
C1040 C1041 1.363 . S
C1040 C1045 1.328 1_565 S
C1041 H1009 0.929 . S
C1041 C1040 1.363 . S
C1041 C1042 1.385 . S
C1042 H1010 0.930 . S
C1042 C1041 1.385 . S
C1042 C1043 1.357 . S
C1043 C1042 1.357 . S
C1043 C1044 1.406 1_565 S
C1044 H1011 0.929 . S
C1044 C1043 1.406 1_545 S
C1044 C1045 1.382 . S
C1045 H1012 0.985 . S
C1045 C1040 1.328 1_545 S
C1045 C1044 1.382 . S
C1046 N1020 1.435 . S
C1046 C1047 1.358 1_565 S
C1046 C1051 1.371 . S
C1047 H1013 0.930 . S
C1047 C1046 1.358 1_545 S
C1047 C1048 1.405 . S
C1048 H1014 0.932 . S
C1048 C1047 1.405 . S
C1048 C1049 1.383 . S
C1049 C1048 1.383 . S
C1049 C1050 1.393 1_545 S
C1050 H1015 0.931 . S
C1050 C1049 1.393 1_565 S
C1050 C1051 1.382 . S
C1051 H1016 0.929 . S
C1051 C1046 1.371 . S
C1051 C1050 1.382 . S
C1052 N1020 1.423 . S
C1052 C1053 1.362 . S
C1052 C1057 1.388 1_565 S
C1053 H1017 0.929 . S
C1053 C1052 1.362 . S
C1053 C1054 1.376 . S
C1054 H1018 0.931 . S
C1054 C1053 1.376 . S
C1054 C1055 1.396 . S
C1055 C1037 1.472 . S
C1055 C1054 1.396 . S
C1055 C1056 1.366 . S
C1056 H1019 0.884 1_565 S
C1056 C1055 1.366 . S
C1056 C1057 1.471 1_565 S
C1057 H1021 0.932 . S
C1057 C1052 1.388 1_545 S
C1057 C1056 1.471 1_545 S
H1058 C1085 0.929 . S
N1059 C1084 1.433 . S
N1059 C1090 1.435 . S
N1059 C1096 1.423 . S
H1060 C1086 0.930 . S
H1061 C1089 0.931 . S
H1062 C1088 0.929 . S
H1063 C1091 0.930 . S
H1064 C1092 0.932 . S
H1065 C1095 0.929 . S
H1066 C1094 0.931 . S
H1067 C1097 0.929 . S
H1068 C1101 0.932 1_455 S
H1069 C1098 0.931 . S
H1070 C1100 0.929 . S
H1071 C1103 0.929 . S
H1072 C1104 0.930 . S
H1073 C1106 0.929 . S
H1074 C1107 0.931 . S
H1075 C1109 0.930 . S
H1076 C1110 0.932 . S
H1077 C1112 0.931 . S
H1078 C1113 0.929 . S
H1079 C1115 0.929 . S
H1080 C1116 0.931 . S
H1081 C1118 0.929 . S
N1082 C1102 1.433 . S
N1082 C1108 1.435 . S
N1082 C1114 1.423 . S
H1083 C1119 0.932 1_455 S
C1084 N1059 1.433 . S
C1084 C1085 1.363 . S
C1084 C1089 1.370 1_655 S
C1085 H1058 0.929 . S
C1085 C1084 1.363 . S
C1085 C1086 1.385 . S
C1086 H1060 0.930 . S
C1086 C1085 1.385 . S
C1086 C1087 1.357 1_655 S
C1087 C1086 1.357 1_455 S
C1087 C1088 1.406 . S
C1088 H1062 0.929 . S
C1088 C1087 1.406 . S
C1088 C1089 1.391 . S
C1089 H1061 0.931 . S
C1089 C1084 1.370 1_455 S
C1089 C1088 1.391 . S
C1090 N1059 1.435 . S
C1090 C1091 1.358 1_655 S
C1090 C1095 1.371 . S
C1091 H1063 0.930 . S
C1091 C1090 1.358 1_455 S
C1091 C1092 1.405 . S
C1092 H1064 0.932 . S
C1092 C1091 1.405 . S
C1092 C1093 1.383 1_455 S
C1093 C1092 1.383 1_655 S
C1093 C1094 1.393 . S
C1094 H1066 0.931 . S
C1094 C1093 1.393 . S
C1094 C1095 1.382 . S
C1095 H1065 0.929 . S
C1095 C1090 1.371 . S
C1095 C1094 1.382 . S
C1096 N1059 1.423 . S
C1096 C1097 1.362 . S
C1096 C1101 1.388 . S
C1097 H1067 0.929 . S
C1097 C1096 1.362 . S
C1097 C1098 1.376 . S
C1098 H1069 0.931 . S
C1098 C1097 1.376 . S
C1098 C1099 1.396 . S
C1099 C1098 1.396 . S
C1099 C1100 1.348 . S
C1099 C1117 1.472 . S
C1100 H1070 0.929 . S
C1100 C1099 1.348 . S
C1100 C1101 1.443 . S
C1101 H1068 0.932 1_655 S
C1101 C1096 1.388 . S
C1101 C1100 1.443 . S
C1102 N1082 1.433 . S
C1102 C1103 1.363 . S
C1102 C1107 1.370 1_655 S
C1103 H1071 0.929 . S
C1103 C1102 1.363 . S
C1103 C1104 1.385 . S
C1104 H1072 0.930 . S
C1104 C1103 1.385 . S
C1104 C1105 1.357 1_655 S
C1105 C1104 1.357 1_455 S
C1105 C1106 1.406 . S
C1106 H1073 0.929 . S
C1106 C1105 1.406 . S
C1106 C1107 1.391 . S
C1107 H1074 0.931 . S
C1107 C1102 1.370 1_455 S
C1107 C1106 1.391 . S
C1108 N1082 1.435 . S
C1108 C1109 1.358 1_655 S
C1108 C1113 1.371 . S
C1109 H1075 0.930 . S
C1109 C1108 1.358 1_455 S
C1109 C1110 1.405 . S
C1110 H1076 0.932 . S
C1110 C1109 1.405 . S
C1110 C1111 1.383 1_455 S
C1111 C1110 1.383 1_655 S
C1111 C1112 1.393 . S
C1112 H1077 0.931 . S
C1112 C1111 1.393 . S
C1112 C1113 1.382 . S
C1113 H1078 0.929 . S
C1113 C1108 1.371 . S
C1113 C1112 1.382 . S
C1114 N1082 1.423 . S
C1114 C1115 1.362 . S
C1114 C1119 1.388 . S
C1115 H1079 0.929 . S
C1115 C1114 1.362 . S
C1115 C1116 1.376 . S
C1116 H1080 0.931 . S
C1116 C1115 1.376 . S
C1116 C1117 1.396 . S
C1117 C1099 1.472 . S
C1117 C1116 1.396 . S
C1117 C1118 1.348 . S
C1118 H1081 0.929 . S
C1118 C1117 1.348 . S
C1118 C1119 1.443 . S
C1119 H1083 0.932 1_655 S
C1119 C1114 1.388 . S
C1119 C1118 1.443 . S
H1120 C1147 0.929 . S
N1121 C1146 1.433 . S
N1121 C1152 1.435 . S
N1121 C1158 1.423 . S
H1122 C1148 0.930 . S
H1123 C1151 0.931 . S
H1124 C1150 0.929 . S
H1125 C1153 0.930 . S
H1126 C1154 0.932 . S
H1127 C1157 0.929 . S
H1128 C1156 0.931 . S
H1129 C1159 0.929 . S
H1130 C1163 0.932 . S
H1131 C1160 0.931 . S
H1132 C1162 0.929 . S
H1133 C1165 0.929 . S
H1134 C1166 0.930 . S
H1135 C1168 0.929 . S
H1136 C1169 0.931 . S
H1137 C1171 0.930 . S
H1138 C1172 0.932 . S
H1139 C1174 0.931 . S
H1140 C1175 0.929 . S
H1141 C1177 0.929 . S
H1142 C1178 0.931 . S
H1143 C1180 0.929 . S
N1144 C1164 1.433 . S
N1144 C1170 1.435 . S
N1144 C1176 1.423 . S
H1145 C1181 0.932 . S
C1146 N1121 1.433 . S
C1146 C1147 1.363 . S
C1146 C1151 1.370 . S
C1147 H1120 0.929 . S
C1147 C1146 1.363 . S
C1147 C1148 1.385 . S
C1148 H1122 0.930 . S
C1148 C1147 1.385 . S
C1148 C1149 1.357 . S
C1149 C1148 1.357 . S
C1149 C1150 1.406 . S
C1150 H1124 0.929 . S
C1150 C1149 1.406 . S
C1150 C1151 1.391 . S
C1151 H1123 0.931 . S
C1151 C1146 1.370 . S
C1151 C1150 1.391 . S
C1152 N1121 1.435 . S
C1152 C1153 1.358 . S
C1152 C1157 1.371 . S
C1153 H1125 0.930 . S
C1153 C1152 1.358 . S
C1153 C1154 1.405 . S
C1154 H1126 0.932 . S
C1154 C1153 1.405 . S
C1154 C1155 1.383 . S
C1155 C1154 1.383 . S
C1155 C1156 1.393 . S
C1156 H1128 0.931 . S
C1156 C1155 1.393 . S
C1156 C1157 1.382 . S
C1157 H1127 0.929 . S
C1157 C1152 1.371 . S
C1157 C1156 1.382 . S
C1158 N1121 1.423 . S
C1158 C1159 1.362 . S
C1158 C1163 1.388 . S
C1159 H1129 0.929 . S
C1159 C1158 1.362 . S
C1159 C1160 1.376 . S
C1160 H1131 0.931 . S
C1160 C1159 1.376 . S
C1160 C1161 1.396 . S
C1161 C1160 1.396 . S
C1161 C1162 1.348 . S
C1161 C1179 1.472 . S
C1162 H1132 0.929 . S
C1162 C1161 1.348 . S
C1162 C1163 1.443 . S
C1163 H1130 0.932 . S
C1163 C1158 1.388 . S
C1163 C1162 1.443 . S
C1164 N1144 1.433 . S
C1164 C1165 1.363 . S
C1164 C1169 1.370 . S
C1165 H1133 0.929 . S
C1165 C1164 1.363 . S
C1165 C1166 1.385 . S
C1166 H1134 0.930 . S
C1166 C1165 1.385 . S
C1166 C1167 1.357 . S
C1167 C1166 1.357 . S
C1167 C1168 1.406 . S
C1168 H1135 0.929 . S
C1168 C1167 1.406 . S
C1168 C1169 1.391 . S
C1169 H1136 0.931 . S
C1169 C1164 1.370 . S
C1169 C1168 1.391 . S
C1170 N1144 1.435 . S
C1170 C1171 1.358 . S
C1170 C1175 1.371 . S
C1171 H1137 0.930 . S
C1171 C1170 1.358 . S
C1171 C1172 1.405 . S
C1172 H1138 0.932 . S
C1172 C1171 1.405 . S
C1172 C1173 1.383 . S
C1173 C1172 1.383 . S
C1173 C1174 1.393 . S
C1174 H1139 0.931 . S
C1174 C1173 1.393 . S
C1174 C1175 1.382 . S
C1175 H1140 0.929 . S
C1175 C1170 1.371 . S
C1175 C1174 1.382 . S
C1176 N1144 1.423 . S
C1176 C1177 1.362 . S
C1176 C1181 1.388 . S
C1177 H1141 0.929 . S
C1177 C1176 1.362 . S
C1177 C1178 1.376 . S
C1178 H1142 0.931 . S
C1178 C1177 1.376 . S
C1178 C1179 1.396 . S
C1179 C1161 1.472 . S
C1179 C1178 1.396 . S
C1179 C1180 1.348 . S
C1180 H1143 0.929 . S
C1180 C1179 1.348 . S
C1180 C1181 1.443 . S
C1181 H1145 0.932 . S
C1181 C1176 1.388 . S
C1181 C1180 1.443 . S
H1182 C1209 0.929 . S
N1183 C1208 1.433 . S
N1183 C1214 1.435 . S
N1183 C1220 1.423 . S
H1184 C1210 0.930 . S
H1185 C1213 0.931 . S
H1186 C1212 0.929 . S
H1187 C1215 0.930 . S
H1188 C1216 0.932 . S
H1189 C1219 0.929 . S
H1190 C1218 0.931 . S
H1191 C1221 0.929 . S
H1192 C1225 0.932 . S
H1193 C1222 0.931 . S
H1194 C1224 0.929 . S
H1195 C1227 0.929 . S
H1196 C1228 0.930 . S
H1197 C1230 0.929 . S
H1198 C1231 0.931 . S
H1199 C1233 0.930 . S
H1200 C1234 0.932 . S
H1201 C1236 0.931 . S
H1202 C1237 0.929 . S
H1203 C1239 0.929 . S
H1204 C1240 0.931 . S
H1205 C1242 0.929 . S
N1206 C1226 1.433 . S
N1206 C1232 1.435 . S
N1206 C1238 1.423 . S
H1207 C1243 0.932 . S
C1208 N1183 1.433 . S
C1208 C1209 1.363 . S
C1208 C1213 1.370 . S
C1209 H1182 0.929 . S
C1209 C1208 1.363 . S
C1209 C1210 1.385 . S
C1210 H1184 0.930 . S
C1210 C1209 1.385 . S
C1210 C1211 1.357 . S
C1211 C1210 1.357 . S
C1211 C1212 1.406 . S
C1212 H1186 0.929 . S
C1212 C1211 1.406 . S
C1212 C1213 1.391 . S
C1213 H1185 0.931 . S
C1213 C1208 1.370 . S
C1213 C1212 1.391 . S
C1214 N1183 1.435 . S
C1214 C1215 1.358 . S
C1214 C1219 1.371 . S
C1215 H1187 0.930 . S
C1215 C1214 1.358 . S
C1215 C1216 1.405 . S
C1216 H1188 0.932 . S
C1216 C1215 1.405 . S
C1216 C1217 1.383 . S
C1217 C1216 1.383 . S
C1217 C1218 1.393 . S
C1218 H1190 0.931 . S
C1218 C1217 1.393 . S
C1218 C1219 1.382 . S
C1219 H1189 0.929 . S
C1219 C1214 1.371 . S
C1219 C1218 1.382 . S
C1220 N1183 1.423 . S
C1220 C1221 1.362 . S
C1220 C1225 1.388 . S
C1221 H1191 0.929 . S
C1221 C1220 1.362 . S
C1221 C1222 1.376 . S
C1222 H1193 0.931 . S
C1222 C1221 1.376 . S
C1222 C1223 1.396 . S
C1223 C1222 1.396 . S
C1223 C1224 1.348 . S
C1223 C1241 1.472 . S
C1224 H1194 0.929 . S
C1224 C1223 1.348 . S
C1224 C1225 1.443 . S
C1225 H1192 0.932 . S
C1225 C1220 1.388 . S
C1225 C1224 1.443 . S
C1226 N1206 1.433 . S
C1226 C1227 1.363 . S
C1226 C1231 1.370 . S
C1227 H1195 0.929 . S
C1227 C1226 1.363 . S
C1227 C1228 1.385 . S
C1228 H1196 0.930 . S
C1228 C1227 1.385 . S
C1228 C1229 1.357 . S
C1229 C1228 1.357 . S
C1229 C1230 1.406 . S
C1230 H1197 0.929 . S
C1230 C1229 1.406 . S
C1230 C1231 1.391 . S
C1231 H1198 0.931 . S
C1231 C1226 1.370 . S
C1231 C1230 1.391 . S
C1232 N1206 1.435 . S
C1232 C1233 1.358 . S
C1232 C1237 1.371 . S
C1233 H1199 0.930 . S
C1233 C1232 1.358 . S
C1233 C1234 1.405 . S
C1234 H1200 0.932 . S
C1234 C1233 1.405 . S
C1234 C1235 1.383 . S
C1235 C1234 1.383 . S
C1235 C1236 1.393 . S
C1236 H1201 0.931 . S
C1236 C1235 1.393 . S
C1236 C1237 1.382 . S
C1237 H1202 0.929 . S
C1237 C1232 1.371 . S
C1237 C1236 1.382 . S
C1238 N1206 1.423 . S
C1238 C1239 1.362 . S
C1238 C1243 1.388 . S
C1239 H1203 0.929 . S
C1239 C1238 1.362 . S
C1239 C1240 1.376 . S
C1240 H1204 0.931 . S
C1240 C1239 1.376 . S
C1240 C1241 1.396 . S
C1241 C1223 1.472 . S
C1241 C1240 1.396 . S
C1241 C1242 1.348 . S
C1242 H1205 0.929 . S
C1242 C1241 1.348 . S
C1242 C1243 1.443 . S
C1243 H1207 0.932 . S
C1243 C1238 1.388 . S
C1243 C1242 1.443 . S
H1244 C1271 0.929 . S
N1245 C1270 1.433 . S
N1245 C1276 1.435 . S
N1245 C1282 1.423 . S
H1246 C1272 0.930 . S
H1247 C1275 0.931 . S
H1248 C1274 0.929 . S
H1249 C1277 0.930 . S
H1250 C1278 0.932 . S
H1251 C1281 0.929 . S
H1252 C1280 0.931 . S
H1253 C1283 0.929 . S
H1254 C1287 0.932 . S
H1255 C1284 0.931 . S
H1256 C1286 0.929 . S
H1257 C1289 0.929 . S
H1258 C1290 0.930 . S
H1259 C1292 0.929 . S
H1260 C1293 0.931 . S
H1261 C1295 0.930 . S
H1262 C1296 0.932 . S
H1263 C1298 0.931 . S
H1264 C1299 0.929 . S
H1265 C1301 0.929 . S
H1266 C1302 0.931 . S
H1267 C1304 0.929 . S
N1268 C1288 1.433 . S
N1268 C1294 1.435 . S
N1268 C1300 1.423 . S
H1269 C1305 0.932 . S
C1270 N1245 1.433 . S
C1270 C1271 1.363 . S
C1270 C1275 1.370 . S
C1271 H1244 0.929 . S
C1271 C1270 1.363 . S
C1271 C1272 1.385 . S
C1272 H1246 0.930 . S
C1272 C1271 1.385 . S
C1272 C1273 1.357 . S
C1273 C1272 1.357 . S
C1273 C1274 1.406 . S
C1274 H1248 0.929 . S
C1274 C1273 1.406 . S
C1274 C1275 1.391 . S
C1275 H1247 0.931 . S
C1275 C1270 1.370 . S
C1275 C1274 1.391 . S
C1276 N1245 1.435 . S
C1276 C1277 1.358 . S
C1276 C1281 1.371 . S
C1277 H1249 0.930 . S
C1277 C1276 1.358 . S
C1277 C1278 1.405 . S
C1278 H1250 0.932 . S
C1278 C1277 1.405 . S
C1278 C1279 1.383 . S
C1279 C1278 1.383 . S
C1279 C1280 1.393 . S
C1280 H1252 0.931 . S
C1280 C1279 1.393 . S
C1280 C1281 1.382 . S
C1281 H1251 0.929 . S
C1281 C1276 1.371 . S
C1281 C1280 1.382 . S
C1282 N1245 1.423 . S
C1282 C1283 1.362 . S
C1282 C1287 1.388 . S
C1283 H1253 0.929 . S
C1283 C1282 1.362 . S
C1283 C1284 1.376 . S
C1284 H1255 0.931 . S
C1284 C1283 1.376 . S
C1284 C1285 1.396 . S
C1285 C1284 1.396 . S
C1285 C1286 1.348 . S
C1285 C1303 1.472 . S
C1286 H1256 0.929 . S
C1286 C1285 1.348 . S
C1286 C1287 1.443 . S
C1287 H1254 0.932 . S
C1287 C1282 1.388 . S
C1287 C1286 1.443 . S
C1288 N1268 1.433 . S
C1288 C1289 1.363 . S
C1288 C1293 1.370 . S
C1289 H1257 0.929 . S
C1289 C1288 1.363 . S
C1289 C1290 1.385 . S
C1290 H1258 0.930 . S
C1290 C1289 1.385 . S
C1290 C1291 1.357 . S
C1291 C1290 1.357 . S
C1291 C1292 1.406 . S
C1292 H1259 0.929 . S
C1292 C1291 1.406 . S
C1292 C1293 1.391 . S
C1293 H1260 0.931 . S
C1293 C1288 1.370 . S
C1293 C1292 1.391 . S
C1294 N1268 1.435 . S
C1294 C1295 1.358 . S
C1294 C1299 1.371 . S
C1295 H1261 0.930 . S
C1295 C1294 1.358 . S
C1295 C1296 1.405 . S
C1296 H1262 0.932 . S
C1296 C1295 1.405 . S
C1296 C1297 1.383 . S
C1297 C1296 1.383 . S
C1297 C1298 1.393 . S
C1298 H1263 0.931 . S
C1298 C1297 1.393 . S
C1298 C1299 1.382 . S
C1299 H1264 0.929 . S
C1299 C1294 1.371 . S
C1299 C1298 1.382 . S
C1300 N1268 1.423 . S
C1300 C1301 1.362 . S
C1300 C1305 1.388 . S
C1301 H1265 0.929 . S
C1301 C1300 1.362 . S
C1301 C1302 1.376 . S
C1302 H1266 0.931 . S
C1302 C1301 1.376 . S
C1302 C1303 1.396 . S
C1303 C1285 1.472 . S
C1303 C1302 1.396 . S
C1303 C1304 1.348 . S
C1304 H1267 0.929 . S
C1304 C1303 1.348 . S
C1304 C1305 1.443 . S
C1305 H1269 0.932 . S
C1305 C1300 1.388 . S
C1305 C1304 1.443 . S
H1306 C1333 0.929 . S
N1307 C1332 1.433 . S
N1307 C1338 1.435 . S
N1307 C1344 1.423 . S
H1308 C1334 0.930 . S
H1309 C1337 0.931 . S
H1310 C1336 0.929 . S
H1311 C1339 0.930 . S
H1312 C1340 0.932 . S
H1313 C1343 0.929 . S
H1314 C1342 0.931 . S
H1315 C1345 0.929 . S
H1316 C1349 0.932 . S
H1317 C1346 0.931 . S
H1318 C1348 0.929 . S
H1319 C1351 0.929 . S
H1320 C1352 0.930 . S
H1321 C1354 0.929 . S
H1322 C1355 0.931 . S
H1323 C1357 0.930 . S
H1324 C1358 0.932 . S
H1325 C1360 0.931 . S
H1326 C1361 0.929 . S
H1327 C1363 0.929 . S
H1328 C1364 0.931 . S
H1329 C1366 0.929 . S
N1330 C1350 1.433 . S
N1330 C1356 1.435 . S
N1330 C1362 1.423 . S
H1331 C1367 0.932 . S
C1332 N1307 1.433 . S
C1332 C1333 1.363 . S
C1332 C1337 1.370 . S
C1333 H1306 0.929 . S
C1333 C1332 1.363 . S
C1333 C1334 1.385 . S
C1334 H1308 0.930 . S
C1334 C1333 1.385 . S
C1334 C1335 1.357 . S
C1335 C1334 1.357 . S
C1335 C1336 1.406 . S
C1336 H1310 0.929 . S
C1336 C1335 1.406 . S
C1336 C1337 1.391 . S
C1337 H1309 0.931 . S
C1337 C1332 1.370 . S
C1337 C1336 1.391 . S
C1338 N1307 1.435 . S
C1338 C1339 1.358 . S
C1338 C1343 1.371 . S
C1339 H1311 0.930 . S
C1339 C1338 1.358 . S
C1339 C1340 1.405 . S
C1340 H1312 0.932 . S
C1340 C1339 1.405 . S
C1340 C1341 1.383 . S
C1341 C1340 1.383 . S
C1341 C1342 1.393 . S
C1342 H1314 0.931 . S
C1342 C1341 1.393 . S
C1342 C1343 1.382 . S
C1343 H1313 0.929 . S
C1343 C1338 1.371 . S
C1343 C1342 1.382 . S
C1344 N1307 1.423 . S
C1344 C1345 1.362 . S
C1344 C1349 1.388 . S
C1345 H1315 0.929 . S
C1345 C1344 1.362 . S
C1345 C1346 1.376 . S
C1346 H1317 0.931 . S
C1346 C1345 1.376 . S
C1346 C1347 1.396 . S
C1347 C1346 1.396 . S
C1347 C1348 1.348 . S
C1347 C1365 1.472 . S
C1348 H1318 0.929 . S
C1348 C1347 1.348 . S
C1348 C1349 1.443 . S
C1349 H1316 0.932 . S
C1349 C1344 1.388 . S
C1349 C1348 1.443 . S
C1350 N1330 1.433 . S
C1350 C1351 1.363 . S
C1350 C1355 1.370 . S
C1351 H1319 0.929 . S
C1351 C1350 1.363 . S
C1351 C1352 1.385 . S
C1352 H1320 0.930 . S
C1352 C1351 1.385 . S
C1352 C1353 1.357 . S
C1353 C1352 1.357 . S
C1353 C1354 1.406 . S
C1354 H1321 0.929 . S
C1354 C1353 1.406 . S
C1354 C1355 1.391 . S
C1355 H1322 0.931 . S
C1355 C1350 1.370 . S
C1355 C1354 1.391 . S
C1356 N1330 1.435 . S
C1356 C1357 1.358 . S
C1356 C1361 1.371 . S
C1357 H1323 0.930 . S
C1357 C1356 1.358 . S
C1357 C1358 1.405 . S
C1358 H1324 0.932 . S
C1358 C1357 1.405 . S
C1358 C1359 1.383 . S
C1359 C1358 1.383 . S
C1359 C1360 1.393 . S
C1360 H1325 0.931 . S
C1360 C1359 1.393 . S
C1360 C1361 1.382 . S
C1361 H1326 0.929 . S
C1361 C1356 1.371 . S
C1361 C1360 1.382 . S
C1362 N1330 1.423 . S
C1362 C1363 1.362 . S
C1362 C1367 1.388 . S
C1363 H1327 0.929 . S
C1363 C1362 1.362 . S
C1363 C1364 1.376 . S
C1364 H1328 0.931 . S
C1364 C1363 1.376 . S
C1364 C1365 1.396 . S
C1365 C1347 1.472 . S
C1365 C1364 1.396 . S
C1365 C1366 1.348 . S
C1366 H1329 0.929 . S
C1366 C1365 1.348 . S
C1366 C1367 1.443 . S
C1367 H1331 0.932 . S
C1367 C1362 1.388 . S
C1367 C1366 1.443 . S
C1368 C1369 1.387 . S
C1368 H1372 0.930 1_655 S
C1368 C1377 1.390 . S
C1369 C1368 1.387 . S
C1369 C1371 1.387 . S
H1370 C1377 0.950 . S
C1371 C1369 1.387 . S
C1371 C1373 1.390 . S
C1371 H1375 0.950 . S
H1372 C1368 0.930 1_455 S
C1373 C1371 1.390 . S
C1373 C1374 1.387 . S
C1373 H1376 0.950 . S
C1374 C1373 1.387 . S
C1374 C1377 1.387 . S
H1375 C1371 0.950 . S
H1376 C1373 0.950 . S
C1377 C1368 1.390 . S
C1377 H1370 0.950 . S
C1377 C1374 1.387 . S
C1378 C1379 1.387 . S
C1378 H1382 0.950 . S
C1378 C1387 1.390 . S
C1379 C1378 1.387 . S
C1379 C1381 1.387 . S
H1380 C1387 0.950 . S
C1381 C1379 1.387 . S
C1381 C1383 1.390 . S
C1381 H1385 0.950 . S
H1382 C1378 0.950 . S
C1383 C1381 1.390 . S
C1383 C1384 1.387 . S
C1383 H1386 0.950 . S
C1384 C1383 1.387 . S
C1384 C1387 1.387 . S
H1385 C1381 0.950 . S
H1386 C1383 0.950 . S
C1387 C1378 1.390 . S
C1387 H1380 0.950 . S
C1387 C1384 1.387 . S
C1388 C1389 1.387 1_565 S
C1388 H1392 0.950 . S
C1388 C1397 1.375 . S
C1389 C1388 1.387 1_545 S
C1389 C1391 1.387 . S
H1390 C1397 0.961 . S
C1391 C1389 1.387 . S
C1391 C1393 1.390 . S
C1391 H1395 0.950 . S
H1392 C1388 0.950 . S
C1393 C1391 1.390 . S
C1393 C1394 1.387 . S
C1393 H1396 0.950 . S
C1394 C1393 1.387 . S
C1394 C1397 1.395 1_545 S
H1395 C1391 0.950 . S
H1396 C1393 0.950 . S
C1397 C1388 1.375 . S
C1397 H1390 0.961 . S
C1397 C1394 1.395 1_565 S
C1398 C1399 1.387 1_545 S
C1398 H1402 0.950 . S
C1398 C1407 1.390 . S
C1399 C1398 1.387 1_565 S
C1399 C1401 1.387 . S
H1400 C1407 0.950 . S
C1401 C1399 1.387 . S
C1401 C1403 1.390 . S
C1401 H1405 0.950 . S
H1402 C1398 0.950 . S
C1403 C1401 1.390 . S
C1403 C1404 1.387 . S
C1403 H1406 0.950 . S
C1404 C1403 1.387 . S
C1404 C1407 1.387 1_565 S
H1405 C1401 0.950 . S
H1406 C1403 0.950 . S
C1407 C1398 1.390 . S
C1407 H1400 0.950 . S
C1407 C1404 1.387 1_545 S
C1408 C1409 1.387 1_655 S
C1408 H1412 0.950 . S
C1408 C1417 1.390 . S
C1409 C1408 1.387 1_455 S
C1409 C1411 1.387 . S
H1410 C1417 0.950 . S
C1411 C1409 1.387 . S
C1411 C1413 1.390 . S
C1411 H1415 0.950 . S
H1412 C1408 0.950 . S
C1413 C1411 1.390 . S
C1413 C1414 1.387 . S
C1413 H1416 0.950 . S
C1414 C1413 1.387 . S
C1414 C1417 1.387 1_455 S
H1415 C1411 0.950 . S
H1416 C1413 0.950 . S
C1417 C1408 1.390 . S
C1417 H1410 0.950 . S
C1417 C1414 1.387 1_655 S
C1418 C1419 1.387 . S
C1418 H1422 0.950 . S
C1418 C1427 1.390 . S
C1419 C1418 1.387 . S
C1419 C1421 1.387 . S
H1420 C1427 0.950 . S
C1421 C1419 1.387 . S
C1421 C1423 1.390 . S
C1421 H1425 0.950 . S
H1422 C1418 0.950 . S
C1423 C1421 1.390 . S
C1423 C1424 1.387 . S
C1423 H1426 0.950 . S
C1424 C1423 1.387 . S
C1424 C1427 1.387 . S
H1425 C1421 0.950 . S
H1426 C1423 0.950 . S
C1427 C1418 1.390 . S
C1427 H1420 0.950 . S
C1427 C1424 1.387 . S
C1428 C1429 1.387 1_655 S
C1428 H1432 0.950 . S
C1428 C1437 1.390 . S
C1429 C1428 1.387 1_455 S
C1429 C1431 1.387 . S
H1430 C1437 0.950 . S
C1431 C1429 1.387 . S
C1431 C1433 1.390 . S
C1431 H1435 0.950 . S
H1432 C1428 0.950 . S
C1433 C1431 1.390 . S
C1433 C1434 1.387 . S
C1433 H1436 0.950 . S
C1434 C1433 1.387 . S
C1434 C1437 1.387 1_455 S
H1435 C1431 0.950 . S
H1436 C1433 0.950 . S
C1437 C1428 1.390 . S
C1437 H1430 0.950 . S
C1437 C1434 1.387 1_655 S
C1438 C1439 1.387 . S
C1438 H1442 0.950 . S
C1438 C1447 1.390 . S
C1439 C1438 1.387 . S
C1439 C1441 1.387 . S
H1440 C1447 0.950 . S
C1441 C1439 1.387 . S
C1441 C1443 1.390 . S
C1441 H1445 0.950 . S
H1442 C1438 0.950 . S
C1443 C1441 1.390 . S
C1443 C1444 1.387 . S
C1443 H1446 0.950 . S
C1444 C1443 1.387 . S
C1444 C1447 1.387 . S
H1445 C1441 0.950 . S
H1446 C1443 0.950 . S
C1447 C1438 1.390 . S
C1447 H1440 0.950 . S
C1447 C1444 1.387 . S
C1448 C1449 1.387 1_545 S
C1448 H1452 0.950 . S
C1448 C1457 1.390 . S
C1449 C1448 1.387 1_565 S
C1449 C1451 1.387 . S
H1450 C1457 0.950 . S
C1451 C1449 1.387 . S
C1451 C1453 1.390 . S
C1451 H1455 0.950 . S
H1452 C1448 0.950 . S
C1453 C1451 1.390 . S
C1453 C1454 1.387 . S
C1453 H1456 0.950 . S
C1454 C1453 1.387 . S
C1454 C1457 1.387 1_565 S
H1455 C1451 0.950 . S
H1456 C1453 0.950 . S
C1457 C1448 1.390 . S
C1457 H1450 0.950 . S
C1457 C1454 1.387 1_545 S
C1458 C1459 1.387 . S
C1458 H1462 0.950 . S
C1458 C1467 1.390 . S
C1459 C1458 1.387 . S
C1459 C1461 1.387 1_545 S
H1460 C1467 0.950 . S
C1461 C1459 1.387 1_565 S
C1461 C1463 1.390 . S
C1461 H1465 0.950 . S
H1462 C1458 0.950 . S
C1463 C1461 1.390 . S
C1463 C1464 1.387 1_565 S
C1463 H1466 0.950 . S
C1464 C1463 1.387 1_545 S
C1464 C1467 1.387 . S
H1465 C1461 0.950 . S
H1466 C1463 0.950 . S
C1467 C1458 1.390 . S
C1467 H1460 0.950 . S
C1467 C1464 1.387 . S
C1468 C1469 1.387 1_455 S
C1468 H1472 0.950 . S
C1468 C1477 1.390 . S
C1469 C1468 1.387 1_655 S
C1469 C1471 1.387 . S
H1470 C1477 0.950 . S
C1471 C1469 1.387 . S
C1471 C1473 1.390 . S
C1471 H1475 0.950 . S
H1472 C1468 0.950 . S
C1473 C1471 1.390 . S
C1473 C1474 1.387 . S
C1473 H1476 0.950 . S
C1474 C1473 1.387 . S
C1474 C1477 1.387 1_655 S
H1475 C1471 0.950 . S
H1476 C1473 0.950 . S
C1477 C1468 1.390 . S
C1477 H1470 0.950 . S
C1477 C1474 1.387 1_455 S
C1478 C1479 1.387 . S
C1478 H1482 0.950 . S
C1478 C1487 1.390 . S
C1479 C1478 1.387 . S
C1479 C1481 1.387 . S
H1480 C1487 0.950 . S
C1481 C1479 1.387 . S
C1481 C1483 1.390 . S
C1481 H1485 0.950 . S
H1482 C1478 0.950 . S
C1483 C1481 1.390 . S
C1483 C1484 1.387 . S
C1483 H1486 0.950 . S
C1484 C1483 1.387 . S
C1484 C1487 1.387 . S
H1485 C1481 0.950 . S
H1486 C1483 0.950 . S
C1487 C1478 1.390 . S
C1487 H1480 0.950 . S
C1487 C1484 1.387 . S
C1488 C1489 1.387 . S
C1488 H1492 0.950 . S
C1488 C1497 1.390 . S
C1489 C1488 1.387 . S
C1489 C1491 1.387 . S
H1490 C1497 0.950 . S
C1491 C1489 1.387 . S
C1491 C1493 1.390 . S
C1491 H1495 0.950 . S
H1492 C1488 0.950 . S
C1493 C1491 1.390 . S
C1493 C1494 1.387 . S
C1493 H1496 0.950 . S
C1494 C1493 1.387 . S
C1494 C1497 1.387 . S
H1495 C1491 0.950 . S
H1496 C1493 0.950 . S
C1497 C1488 1.390 . S
C1497 H1490 0.950 . S
C1497 C1494 1.387 . S
C1498 C1499 1.387 . S
C1498 H1502 0.950 . S
C1498 C1507 1.390 . S
C1499 C1498 1.387 . S
C1499 C1501 1.387 . S
H1500 C1507 0.950 . S
C1501 C1499 1.387 . S
C1501 C1503 1.390 . S
C1501 H1505 0.950 . S
H1502 C1498 0.950 . S
C1503 C1501 1.390 . S
C1503 C1504 1.387 . S
C1503 H1506 0.950 . S
C1504 C1503 1.387 . S
C1504 C1507 1.387 . S
H1505 C1501 0.950 . S
H1506 C1503 0.950 . S
C1507 C1498 1.390 . S
C1507 H1500 0.950 . S
C1507 C1504 1.387 . S
C1508 C1509 1.387 . S
C1508 H1512 0.950 . S
C1508 C1517 1.390 . S
C1509 C1508 1.387 . S
C1509 C1511 1.387 . S
H1510 C1517 0.950 . S
C1511 C1509 1.387 . S
C1511 C1513 1.390 . S
C1511 H1515 0.950 . S
H1512 C1508 0.950 . S
C1513 C1511 1.390 . S
C1513 C1514 1.387 . S
C1513 H1516 0.950 . S
C1514 C1513 1.387 . S
C1514 C1517 1.387 . S
H1515 C1511 0.950 . S
H1516 C1513 0.950 . S
C1517 C1508 1.390 . S
C1517 H1510 0.950 . S
C1517 C1514 1.387 . S
C1518 C1519 1.387 . S
C1518 H1522 0.950 . S
C1518 C1527 1.390 . S
C1519 C1518 1.387 . S
C1519 C1521 1.387 . S
H1520 C1527 0.950 . S
C1521 C1519 1.387 . S
C1521 C1523 1.390 . S
C1521 H1525 0.950 . S
H1522 C1518 0.950 . S
C1523 C1521 1.390 . S
C1523 C1524 1.387 . S
C1523 H1526 0.950 . S
C1524 C1523 1.387 . S
C1524 C1527 1.387 . S
H1525 C1521 0.950 . S
H1526 C1523 0.950 . S
C1527 C1518 1.390 . S
C1527 H1520 0.950 . S
C1527 C1524 1.387 . S
C1528 C1529 1.387 . S
C1528 H1532 0.950 . S
C1528 C1537 1.390 . S
C1529 C1528 1.387 . S
C1529 C1531 1.387 . S
H1530 C1537 0.950 . S
C1531 C1529 1.387 . S
C1531 C1533 1.390 . S
C1531 H1535 0.950 . S
H1532 C1528 0.950 . S
C1533 C1531 1.390 . S
C1533 C1534 1.387 . S
C1533 H1536 0.950 . S
C1534 C1533 1.387 . S
C1534 C1537 1.387 . S
H1535 C1531 0.950 . S
H1536 C1533 0.950 . S
C1537 C1528 1.390 . S
C1537 H1530 0.950 . S
C1537 C1534 1.387 . S
C1538 C1539 1.387 . S
C1538 H1542 0.950 . S
C1538 C1547 1.390 . S
C1539 C1538 1.387 . S
C1539 C1541 1.387 . S
H1540 C1547 0.950 . S
C1541 C1539 1.387 . S
C1541 C1543 1.390 . S
C1541 H1545 0.950 . S
H1542 C1538 0.950 . S
C1543 C1541 1.390 . S
C1543 C1544 1.387 . S
C1543 H1546 0.950 . S
C1544 C1543 1.387 . S
C1544 C1547 1.387 . S
H1545 C1541 0.950 . S
H1546 C1543 0.950 . S
C1547 C1538 1.390 . S
C1547 H1540 0.950 . S
C1547 C1544 1.387 . S
C1548 C1549 1.387 . S
C1548 H1552 0.950 . S
C1548 C1557 1.390 . S
C1549 C1548 1.387 . S
C1549 C1551 1.387 . S
H1550 C1557 0.950 . S
C1551 C1549 1.387 . S
C1551 C1553 1.390 . S
C1551 H1555 0.950 . S
H1552 C1548 0.950 . S
C1553 C1551 1.390 . S
C1553 C1554 1.387 . S
C1553 H1556 0.950 . S
C1554 C1553 1.387 . S
C1554 C1557 1.387 . S
H1555 C1551 0.950 . S
H1556 C1553 0.950 . S
C1557 C1548 1.390 . S
C1557 H1550 0.950 . S
C1557 C1554 1.387 . S
C1558 C1559 1.387 . S
C1558 H1562 0.950 . S
C1558 C1567 1.390 . S
C1559 C1558 1.387 . S
C1559 C1561 1.387 . S
H1560 C1567 0.950 . S
C1561 C1559 1.387 . S
C1561 C1563 1.390 . S
C1561 H1565 0.950 . S
H1562 C1558 0.950 . S
C1563 C1561 1.390 . S
C1563 C1564 1.387 . S
C1563 H1566 0.950 . S
C1564 C1563 1.387 . S
C1564 C1567 1.387 . S
H1565 C1561 0.950 . S
H1566 C1563 0.950 . S
C1567 C1558 1.390 . S
C1567 H1560 0.950 . S
C1567 C1564 1.387 . S
C1568 C1569 1.387 . S
C1568 H1572 0.950 . S
C1568 C1577 1.390 . S
C1569 C1568 1.387 . S
C1569 C1571 1.387 . S
H1570 C1577 0.950 . S
C1571 C1569 1.387 . S
C1571 C1573 1.390 . S
C1571 H1575 0.950 . S
H1572 C1568 0.950 . S
C1573 C1571 1.390 . S
C1573 C1574 1.387 . S
C1573 H1576 0.950 . S
C1574 C1573 1.387 . S
C1574 C1577 1.387 . S
H1575 C1571 0.950 . S
H1576 C1573 0.950 . S
C1577 C1568 1.390 . S
C1577 H1570 0.950 . S
C1577 C1574 1.387 . S
C1578 C1579 1.387 . S
C1578 H1582 0.950 . S
C1578 C1587 1.390 . S
C1579 C1578 1.387 . S
C1579 C1581 1.387 . S
H1580 C1587 0.950 . S
C1581 C1579 1.387 . S
C1581 C1583 1.390 . S
C1581 H1585 0.950 . S
H1582 C1578 0.950 . S
C1583 C1581 1.390 . S
C1583 C1584 1.387 . S
C1583 H1586 0.950 . S
C1584 C1583 1.387 . S
C1584 C1587 1.387 . S
H1585 C1581 0.950 . S
H1586 C1583 0.950 . S
C1587 C1578 1.390 . S
C1587 H1580 0.950 . S
C1587 C1584 1.387 . S
C1588 C1589 1.387 . S
C1588 H1592 0.950 . S
C1588 C1597 1.390 . S
C1589 C1588 1.387 . S
C1589 C1591 1.387 . S
H1590 C1597 0.950 . S
C1591 C1589 1.387 . S
C1591 C1593 1.390 . S
C1591 H1595 0.950 . S
H1592 C1588 0.950 . S
C1593 C1591 1.390 . S
C1593 C1594 1.387 . S
C1593 H1596 0.950 . S
C1594 C1593 1.387 . S
C1594 C1597 1.387 . S
H1595 C1591 0.950 . S
H1596 C1593 0.950 . S
C1597 C1588 1.390 . S
C1597 H1590 0.950 . S
C1597 C1594 1.387 . S
C1598 C1599 1.387 . S
C1598 H1602 0.950 . S
C1598 C1607 1.390 . S
C1599 C1598 1.387 . S
C1599 C1601 1.387 . S
H1600 C1607 0.950 . S
C1601 C1599 1.387 . S
C1601 C1603 1.390 . S
C1601 H1605 0.950 . S
H1602 C1598 0.950 . S
C1603 C1601 1.390 . S
C1603 C1604 1.387 . S
C1603 H1606 0.950 . S
C1604 C1603 1.387 . S
C1604 C1607 1.387 . S
H1605 C1601 0.950 . S
H1606 C1603 0.950 . S
C1607 C1598 1.390 . S
C1607 H1600 0.950 . S
C1607 C1604 1.387 . S
C1608 C1609 1.387 . S
C1608 H1612 0.950 . S
C1608 C1617 1.390 . S
C1609 C1608 1.387 . S
C1609 C1611 1.387 . S
H1610 C1617 0.950 . S
C1611 C1609 1.387 . S
C1611 C1613 1.390 . S
C1611 H1615 0.950 . S
H1612 C1608 0.950 . S
C1613 C1611 1.390 . S
C1613 C1614 1.387 . S
C1613 H1616 0.950 . S
C1614 C1613 1.387 . S
C1614 C1617 1.387 . S
H1615 C1611 0.950 . S
H1616 C1613 0.950 . S
C1617 C1608 1.390 . S
C1617 H1610 0.950 . S
C1617 C1614 1.387 . S
C1618 C1619 1.387 . S
C1618 H1622 0.950 . S
C1618 C1627 1.390 . S
C1619 C1618 1.387 . S
C1619 C1621 1.387 . S
H1620 C1627 0.950 . S
C1621 C1619 1.387 . S
C1621 C1623 1.390 . S
C1621 H1625 0.950 . S
H1622 C1618 0.950 . S
C1623 C1621 1.390 . S
C1623 C1624 1.387 . S
C1623 H1626 0.950 . S
C1624 C1623 1.387 . S
C1624 C1627 1.387 . S
H1625 C1621 0.950 . S
H1626 C1623 0.950 . S
C1627 C1618 1.390 . S
C1627 H1620 0.950 . S
C1627 C1624 1.387 . S
C1628 C1629 1.387 . S
C1628 H1632 0.950 . S
C1628 C1637 1.390 . S
C1629 C1628 1.387 . S
C1629 C1631 1.387 . S
H1630 C1637 0.950 . S
C1631 C1629 1.387 . S
C1631 C1633 1.390 . S
C1631 H1635 0.950 . S
H1632 C1628 0.950 . S
C1633 C1631 1.390 . S
C1633 C1634 1.387 . S
C1633 H1636 0.950 . S
C1634 C1633 1.387 . S
C1634 C1637 1.387 . S
H1635 C1631 0.950 . S
H1636 C1633 0.950 . S
C1637 C1628 1.390 . S
C1637 H1630 0.950 . S
C1637 C1634 1.387 . S
C1638 C1639 1.387 . S
C1638 H1642 0.950 . S
C1638 C1647 1.390 . S
C1639 C1638 1.387 . S
C1639 C1641 1.387 . S
H1640 C1647 0.950 . S
C1641 C1639 1.387 . S
C1641 C1643 1.390 . S
C1641 H1645 0.950 . S
H1642 C1638 0.950 . S
C1643 C1641 1.390 . S
C1643 C1644 1.387 . S
C1643 H1646 0.950 . S
C1644 C1643 1.387 . S
C1644 C1647 1.387 . S
H1645 C1641 0.950 . S
H1646 C1643 0.950 . S
C1647 C1638 1.390 . S
C1647 H1640 0.950 . S
C1647 C1644 1.387 . S
C1648 C1649 1.387 . S
C1648 H1652 0.950 . S
C1648 C1657 1.390 . S
C1649 C1648 1.387 . S
C1649 C1651 1.387 . S
H1650 C1657 0.950 . S
C1651 C1649 1.387 . S
C1651 C1653 1.390 . S
C1651 H1655 0.950 . S
H1652 C1648 0.950 . S
C1653 C1651 1.390 . S
C1653 C1654 1.387 . S
C1653 H1656 0.950 . S
C1654 C1653 1.387 . S
C1654 C1657 1.387 . S
H1655 C1651 0.950 . S
H1656 C1653 0.950 . S
C1657 C1648 1.390 . S
C1657 H1650 0.950 . S
C1657 C1654 1.387 . S
C1658 C1659 1.387 . S
C1658 H1662 0.950 . S
C1658 C1667 1.390 . S
C1659 C1658 1.387 . S
C1659 C1661 1.387 . S
H1660 C1667 0.950 . S
C1661 C1659 1.387 . S
C1661 C1663 1.390 . S
C1661 H1665 0.950 . S
H1662 C1658 0.950 . S
C1663 C1661 1.390 . S
C1663 C1664 1.387 . S
C1663 H1666 0.950 . S
C1664 C1663 1.387 . S
C1664 C1667 1.387 . S
H1665 C1661 0.950 . S
H1666 C1663 0.950 . S
C1667 C1658 1.390 . S
C1667 H1660 0.950 . S
C1667 C1664 1.387 . S
C1668 C1669 1.387 . S
C1668 H1672 0.950 . S
C1668 C1677 1.390 . S
C1669 C1668 1.387 . S
C1669 C1671 1.387 . S
H1670 C1677 0.950 . S
C1671 C1669 1.387 . S
C1671 C1673 1.390 . S
C1671 H1675 0.950 . S
H1672 C1668 0.950 . S
C1673 C1671 1.390 . S
C1673 C1674 1.387 . S
C1673 H1676 0.950 . S
C1674 C1673 1.387 . S
C1674 C1677 1.387 . S
H1675 C1671 0.950 . S
H1676 C1673 0.950 . S
C1677 C1668 1.390 . S
C1677 H1670 0.950 . S
C1677 C1674 1.387 . S
C1678 C1679 1.387 . S
C1678 H1682 0.950 . S
C1678 C1687 1.390 . S
C1679 C1678 1.387 . S
C1679 C1681 1.387 . S
H1680 C1687 0.950 . S
C1681 C1679 1.387 . S
C1681 C1683 1.390 . S
C1681 H1685 0.950 . S
H1682 C1678 0.950 . S
C1683 C1681 1.390 . S
C1683 C1684 1.387 . S
C1683 H1686 0.950 . S
C1684 C1683 1.387 . S
C1684 C1687 1.387 . S
H1685 C1681 0.950 . S
H1686 C1683 0.950 . S
C1687 C1678 1.390 . S
C1687 H1680 0.950 . S
C1687 C1684 1.387 . S
C1688 C1689 1.387 . S
C1688 H1692 0.950 . S
C1688 C1697 1.390 . S
C1689 C1688 1.387 . S
C1689 C1691 1.387 . S
H1690 C1697 0.950 . S
C1691 C1689 1.387 . S
C1691 C1693 1.390 . S
C1691 H1695 0.950 . S
H1692 C1688 0.950 . S
C1693 C1691 1.390 . S
C1693 C1694 1.387 . S
C1693 H1696 0.950 . S
C1694 C1693 1.387 . S
C1694 C1697 1.387 . S
H1695 C1691 0.950 . S
H1696 C1693 0.950 . S
C1697 C1688 1.390 . S
C1697 H1690 0.950 . S
C1697 C1694 1.387 . S
C1698 C1699 1.387 . S
C1698 H1702 0.950 . S
C1698 C1707 1.390 . S
C1699 C1698 1.387 . S
C1699 C1701 1.387 . S
H1700 C1707 0.950 . S
C1701 C1699 1.387 . S
C1701 C1703 1.390 . S
C1701 H1705 0.950 . S
H1702 C1698 0.950 . S
C1703 C1701 1.390 . S
C1703 C1704 1.387 . S
C1703 H1706 0.950 . S
C1704 C1703 1.387 . S
C1704 C1707 1.387 . S
H1705 C1701 0.950 . S
H1706 C1703 0.950 . S
C1707 C1698 1.390 . S
C1707 H1700 0.950 . S
C1707 C1704 1.387 . S
C1708 C1709 1.387 . S
C1708 H1712 0.950 . S
C1708 C1717 1.390 . S
C1709 C1708 1.387 . S
C1709 C1711 1.387 . S
H1710 C1717 0.950 . S
C1711 C1709 1.387 . S
C1711 C1713 1.390 . S
C1711 H1715 0.950 . S
H1712 C1708 0.950 . S
C1713 C1711 1.390 . S
C1713 C1714 1.387 . S
C1713 H1716 0.950 . S
C1714 C1713 1.387 . S
C1714 C1717 1.387 . S
H1715 C1711 0.950 . S
H1716 C1713 0.950 . S
C1717 C1708 1.390 . S
C1717 H1710 0.950 . S
C1717 C1714 1.387 . S
C1718 C1719 1.387 . S
C1718 H1722 0.950 . S
C1718 C1727 1.390 . S
C1719 C1718 1.387 . S
C1719 C1721 1.387 . S
H1720 C1727 0.950 . S
C1721 C1719 1.387 . S
C1721 C1723 1.390 . S
C1721 H1725 0.950 . S
H1722 C1718 0.950 . S
C1723 C1721 1.390 . S
C1723 C1724 1.387 . S
C1723 H1726 0.950 . S
C1724 C1723 1.387 . S
C1724 C1727 1.387 . S
H1725 C1721 0.950 . S
H1726 C1723 0.950 . S
C1727 C1718 1.390 . S
C1727 H1720 0.950 . S
C1727 C1724 1.387 . S
C1728 C1729 1.387 . S
C1728 H1732 0.950 . S
C1728 C1737 1.390 . S
C1729 C1728 1.387 . S
C1729 C1731 1.387 . S
H1730 C1737 0.950 . S
C1731 C1729 1.387 . S
C1731 C1733 1.390 . S
C1731 H1735 0.950 . S
H1732 C1728 0.950 . S
C1733 C1731 1.390 . S
C1733 C1734 1.387 . S
C1733 H1736 0.950 . S
C1734 C1733 1.387 . S
C1734 C1737 1.387 . S
H1735 C1731 0.950 . S
H1736 C1733 0.950 . S
C1737 C1728 1.390 . S
C1737 H1730 0.950 . S
C1737 C1734 1.387 . S
C1738 C1739 1.387 . S
C1738 H1742 0.950 . S
C1738 C1747 1.390 . S
C1739 C1738 1.387 . S
C1739 C1741 1.387 . S
H1740 C1747 0.950 . S
C1741 C1739 1.387 . S
C1741 C1743 1.390 . S
C1741 H1745 0.950 . S
H1742 C1738 0.950 . S
C1743 C1741 1.390 . S
C1743 C1744 1.387 . S
C1743 H1746 0.950 . S
C1744 C1743 1.387 . S
C1744 C1747 1.387 . S
H1745 C1741 0.950 . S
H1746 C1743 0.950 . S
C1747 C1738 1.390 . S
C1747 H1740 0.950 . S
C1747 C1744 1.387 . S
C1748 C1749 1.387 . S
C1748 H1752 0.950 . S
C1748 C1757 1.390 . S
C1749 C1748 1.387 . S
C1749 C1751 1.387 . S
H1750 C1757 0.950 . S
C1751 C1749 1.387 . S
C1751 C1753 1.390 . S
C1751 H1755 0.950 . S
H1752 C1748 0.950 . S
C1753 C1751 1.390 . S
C1753 C1754 1.387 . S
C1753 H1756 0.950 . S
C1754 C1753 1.387 . S
C1754 C1757 1.387 . S
H1755 C1751 0.950 . S
H1756 C1753 0.950 . S
C1757 C1748 1.390 . S
C1757 H1750 0.950 . S
C1757 C1754 1.387 . S
C1758 C1759 1.387 . S
C1758 H1762 0.950 . S
C1758 C1767 1.390 . S
C1759 C1758 1.387 . S
C1759 C1761 1.387 1_556 S
H1760 C1767 0.950 . S
C1761 C1759 1.387 1_554 S
C1761 C1763 1.390 1_554 S
C1761 H1765 0.950 . S
H1762 C1758 0.950 . S
C1763 C1761 1.390 1_556 S
C1763 C1764 1.387 . S
C1763 H1766 0.950 1_556 S
C1764 C1763 1.387 . S
C1764 C1767 1.387 . S
H1765 C1761 0.950 . S
H1766 C1763 0.950 1_554 S
C1767 C1758 1.390 . S
C1767 H1760 0.950 . S
C1767 C1764 1.387 . S
C1768 C1769 1.387 1_554 S
C1768 H1772 0.950 . S
C1768 C1777 1.390 1_554 S
C1769 C1768 1.387 1_556 S
C1769 C1771 1.387 . S
H1770 C1777 0.950 1_554 S
C1771 C1769 1.387 . S
C1771 C1773 1.390 . S
C1771 H1775 0.950 . S
H1772 C1768 0.950 . S
C1773 C1771 1.390 . S
C1773 C1774 1.387 . S
C1773 H1776 0.950 . S
C1774 C1773 1.387 . S
C1774 C1777 1.387 . S
H1775 C1771 0.950 . S
H1776 C1773 0.950 . S
C1777 C1768 1.390 1_556 S
C1777 H1770 0.950 1_556 S
C1777 C1774 1.387 . S
C1778 C1779 1.387 . S
C1778 H1782 0.950 . S
C1778 C1787 1.390 . S
C1779 C1778 1.387 . S
C1779 C1781 1.403 . S
H1780 C1787 0.950 . S
C1781 C1779 1.403 . S
C1781 C1783 1.398 . S
C1781 H1785 0.927 1_556 S
H1782 C1778 0.950 . S
C1783 C1781 1.398 . S
C1783 C1784 1.387 . S
C1783 H1786 0.950 1_556 S
C1784 C1783 1.387 . S
C1784 C1787 1.387 . S
H1785 C1781 0.927 1_554 S
H1786 C1783 0.950 1_554 S
C1787 C1778 1.390 . S
C1787 H1780 0.950 . S
C1787 C1784 1.387 . S
C1788 C1789 1.387 . S
C1788 H1792 0.950 1_556 S
C1788 C1797 1.390 . S
C1789 C1788 1.387 . S
C1789 C1791 1.387 . S
H1790 C1797 0.958 . S
C1791 C1789 1.387 . S
C1791 C1793 1.390 . S
C1791 H1795 0.950 . S
H1792 C1788 0.950 1_554 S
C1793 C1791 1.390 . S
C1793 C1794 1.387 . S
C1793 H1796 0.950 . S
C1794 C1793 1.387 . S
C1794 C1797 1.387 . S
H1795 C1791 0.950 . S
H1796 C1793 0.950 . S
C1797 C1788 1.390 . S
C1797 H1790 0.958 . S
C1797 C1794 1.387 . S
C1798 C1799 1.387 . S
C1798 H1802 0.950 1_556 S
C1798 C1807 1.390 . S
C1799 C1798 1.387 . S
C1799 C1801 1.387 . S
H1800 C1807 0.950 . S
C1801 C1799 1.387 . S
C1801 C1803 1.390 . S
C1801 H1805 0.950 . S
H1802 C1798 0.950 1_554 S
C1803 C1801 1.390 . S
C1803 C1804 1.387 . S
C1803 H1806 0.950 . S
C1804 C1803 1.387 . S
C1804 C1807 1.387 . S
H1805 C1801 0.950 . S
H1806 C1803 0.950 . S
C1807 C1798 1.390 . S
C1807 H1800 0.950 . S
C1807 C1804 1.387 . S
C1808 C1809 1.387 1_554 S
C1808 H1812 0.950 . S
C1808 C1817 1.390 1_554 S
C1809 C1808 1.387 1_556 S
C1809 C1811 1.387 . S
H1810 C1817 0.950 1_554 S
C1811 C1809 1.387 . S
C1811 C1813 1.390 . S
C1811 H1815 0.950 . S
H1812 C1808 0.950 . S
C1813 C1811 1.390 . S
C1813 C1814 1.387 . S
C1813 H1816 0.950 . S
C1814 C1813 1.387 . S
C1814 C1817 1.387 . S
H1815 C1811 0.950 . S
H1816 C1813 0.950 . S
C1817 C1808 1.390 1_556 S
C1817 H1810 0.950 1_556 S
C1817 C1814 1.387 . S
C1818 C1819 1.387 . S
C1818 H1822 0.950 . S
C1818 C1827 1.390 . S
C1819 C1818 1.387 . S
C1819 C1821 1.387 . S
H1820 C1827 0.950 . S
C1821 C1819 1.387 . S
C1821 C1823 1.390 . S
C1821 H1825 0.950 . S
H1822 C1818 0.950 . S
C1823 C1821 1.390 . S
C1823 C1824 1.387 . S
C1823 H1826 0.950 . S
C1824 C1823 1.387 . S
C1824 C1827 1.387 . S
H1825 C1821 0.950 . S
H1826 C1823 0.950 . S
C1827 C1818 1.390 . S
C1827 H1820 0.950 . S
C1827 C1824 1.387 . S
C1828 C1829 1.387 . S
C1828 H1832 0.950 . S
C1828 C1837 1.390 . S
C1829 C1828 1.387 . S
C1829 C1831 1.387 . S
H1830 C1837 0.950 . S
C1831 C1829 1.387 . S
C1831 C1833 1.390 . S
C1831 H1835 0.950 . S
H1832 C1828 0.950 . S
C1833 C1831 1.390 . S
C1833 C1834 1.387 . S
C1833 H1836 0.950 . S
C1834 C1833 1.387 . S
C1834 C1837 1.387 . S
H1835 C1831 0.950 . S
H1836 C1833 0.950 . S
C1837 C1828 1.390 . S
C1837 H1830 0.950 . S
C1837 C1834 1.387 . S
C1838 C1839 1.387 . S
C1838 H1842 0.950 . S
C1838 C1847 1.390 . S
C1839 C1838 1.387 . S
C1839 C1841 1.387 . S
H1840 C1847 0.950 . S
C1841 C1839 1.387 . S
C1841 C1843 1.390 . S
C1841 H1845 0.950 . S
H1842 C1838 0.950 . S
C1843 C1841 1.390 . S
C1843 C1844 1.387 . S
C1843 H1846 0.950 . S
C1844 C1843 1.387 . S
C1844 C1847 1.387 . S
H1845 C1841 0.950 . S
H1846 C1843 0.950 . S
C1847 C1838 1.390 . S
C1847 H1840 0.950 . S
C1847 C1844 1.387 . S
C1848 C1849 1.387 . S
C1848 H1852 0.950 . S
C1848 C1857 1.390 . S
C1849 C1848 1.387 . S
C1849 C1851 1.387 . S
H1850 C1857 0.950 . S
C1851 C1849 1.387 . S
C1851 C1853 1.390 . S
C1851 H1855 0.950 . S
H1852 C1848 0.950 . S
C1853 C1851 1.390 . S
C1853 C1854 1.387 . S
C1853 H1856 0.950 . S
C1854 C1853 1.387 . S
C1854 C1857 1.387 . S
H1855 C1851 0.950 . S
H1856 C1853 0.950 . S
C1857 C1848 1.390 . S
C1857 H1850 0.950 . S
C1857 C1854 1.387 . S
C1858 C1859 1.387 . S
C1858 H1862 0.950 . S
C1858 C1867 1.390 . S
C1859 C1858 1.387 . S
C1859 C1861 1.387 . S
H1860 C1867 0.950 . S
C1861 C1859 1.387 . S
C1861 C1863 1.390 . S
C1861 H1865 0.950 . S
H1862 C1858 0.950 . S
C1863 C1861 1.390 . S
C1863 C1864 1.387 . S
C1863 H1866 0.950 . S
C1864 C1863 1.387 . S
C1864 C1867 1.387 . S
H1865 C1861 0.950 . S
H1866 C1863 0.950 . S
C1867 C1858 1.390 . S
C1867 H1860 0.950 . S
C1867 C1864 1.387 . S
C1868 C1869 1.387 . S
C1868 H1872 0.950 . S
C1868 C1877 1.390 . S
C1869 C1868 1.387 . S
C1869 C1871 1.387 . S
H1870 C1877 0.950 . S
C1871 C1869 1.387 . S
C1871 C1873 1.390 . S
C1871 H1875 0.950 . S
H1872 C1868 0.950 . S
C1873 C1871 1.390 . S
C1873 C1874 1.387 . S
C1873 H1876 0.950 . S
C1874 C1873 1.387 . S
C1874 C1877 1.387 . S
H1875 C1871 0.950 . S
H1876 C1873 0.950 . S
C1877 C1868 1.390 . S
C1877 H1870 0.950 . S
C1877 C1874 1.387 . S
C1878 C1879 1.387 . S
C1878 H1882 0.950 . S
C1878 C1887 1.390 . S
C1879 C1878 1.387 . S
C1879 C1881 1.387 . S
H1880 C1887 0.950 . S
C1881 C1879 1.387 . S
C1881 C1883 1.390 . S
C1881 H1885 0.950 . S
H1882 C1878 0.950 . S
C1883 C1881 1.390 . S
C1883 C1884 1.387 . S
C1883 H1886 0.950 . S
C1884 C1883 1.387 . S
C1884 C1887 1.387 . S
H1885 C1881 0.950 . S
H1886 C1883 0.950 . S
C1887 C1878 1.390 . S
C1887 H1880 0.950 . S
C1887 C1884 1.387 . S
C1888 C1889 1.387 . S
C1888 H1892 0.950 . S
C1888 C1897 1.390 . S
C1889 C1888 1.387 . S
C1889 C1891 1.387 . S
H1890 C1897 0.950 . S
C1891 C1889 1.387 . S
C1891 C1893 1.390 . S
C1891 H1895 0.950 . S
H1892 C1888 0.950 . S
C1893 C1891 1.390 . S
C1893 C1894 1.387 . S
C1893 H1896 0.950 . S
C1894 C1893 1.387 . S
C1894 C1897 1.387 . S
H1895 C1891 0.950 . S
H1896 C1893 0.950 . S
C1897 C1888 1.390 . S
C1897 H1890 0.950 . S
C1897 C1894 1.387 . S
C1898 C1899 1.387 . S
C1898 H1902 0.950 . S
C1898 C1907 1.390 . S
C1899 C1898 1.387 . S
C1899 C1901 1.387 1_565 S
H1900 C1907 0.950 . S
C1901 C1899 1.387 1_545 S
C1901 C1903 1.390 . S
C1901 H1905 0.950 . S
H1902 C1898 0.950 . S
C1903 C1901 1.390 . S
C1903 C1904 1.387 1_545 S
C1903 H1906 0.950 . S
C1904 C1903 1.387 1_565 S
C1904 C1907 1.387 . S
H1905 C1901 0.950 . S
H1906 C1903 0.950 . S
C1907 C1898 1.390 . S
C1907 H1900 0.950 . S
C1907 C1904 1.387 . S
C1908 C1909 1.387 . S
C1908 H1912 0.950 1_565 S
C1908 C1917 1.390 1_565 S
C1909 C1908 1.387 . S
C1909 C1911 1.387 . S
H1910 C1917 0.950 . S
C1911 C1909 1.387 . S
C1911 C1913 1.390 . S
C1911 H1915 0.950 . S
H1912 C1908 0.950 1_545 S
C1913 C1911 1.390 . S
C1913 C1914 1.387 . S
C1913 H1916 0.950 . S
C1914 C1913 1.387 . S
C1914 C1917 1.387 1_565 S
H1915 C1911 0.950 . S
H1916 C1913 0.950 . S
C1917 C1908 1.390 1_545 S
C1917 H1910 0.950 . S
C1917 C1914 1.387 1_545 S
C1918 C1919 1.387 . S
C1918 H1922 0.950 . S
C1918 C1927 1.390 . S
C1919 C1918 1.387 . S
C1919 C1921 1.387 . S
H1920 C1927 0.950 1_655 S
C1921 C1919 1.387 . S
C1921 C1923 1.390 . S
C1921 H1925 0.950 . S
H1922 C1918 0.950 . S
C1923 C1921 1.390 . S
C1923 C1924 1.387 . S
C1923 H1926 0.950 . S
C1924 C1923 1.387 . S
C1924 C1927 1.387 . S
H1925 C1921 0.950 . S
H1926 C1923 0.950 . S
C1927 C1918 1.390 . S
C1927 H1920 0.950 1_455 S
C1927 C1924 1.387 . S
C1928 C1929 1.387 . S
C1928 H1932 0.950 . S
C1928 C1937 1.390 . S
C1929 C1928 1.387 . S
C1929 C1931 1.387 . S
H1930 C1937 0.950 . S
C1931 C1929 1.387 . S
C1931 C1933 1.390 . S
C1931 H1935 0.950 . S
H1932 C1928 0.950 . S
C1933 C1931 1.390 . S
C1933 C1934 1.387 . S
C1933 H1936 0.950 . S
C1934 C1933 1.387 . S
C1934 C1937 1.387 . S
H1935 C1931 0.950 . S
H1936 C1933 0.950 . S
C1937 C1928 1.390 . S
C1937 H1930 0.950 . S
C1937 C1934 1.387 . S
C1938 C1939 1.387 . S
C1938 H1942 0.950 . S
C1938 C1947 1.390 . S
C1939 C1938 1.387 . S
C1939 C1941 1.387 . S
H1940 C1947 0.950 . S
C1941 C1939 1.387 . S
C1941 C1943 1.390 . S
C1941 H1945 0.950 . S
H1942 C1938 0.950 . S
C1943 C1941 1.390 . S
C1943 C1944 1.387 . S
C1943 H1946 0.950 . S
C1944 C1943 1.387 . S
C1944 C1947 1.387 . S
H1945 C1941 0.950 . S
H1946 C1943 0.950 . S
C1947 C1938 1.390 . S
C1947 H1940 0.950 . S
C1947 C1944 1.387 . S
C1948 C1949 1.387 . S
C1948 H1952 0.950 . S
C1948 C1957 1.390 . S
C1949 C1948 1.387 . S
C1949 C1951 1.387 . S
H1950 C1957 0.950 . S
C1951 C1949 1.387 . S
C1951 C1953 1.390 . S
C1951 H1955 0.950 . S
H1952 C1948 0.950 . S
C1953 C1951 1.390 . S
C1953 C1954 1.387 . S
C1953 H1956 0.950 . S
C1954 C1953 1.387 . S
C1954 C1957 1.387 . S
H1955 C1951 0.950 . S
H1956 C1953 0.950 . S
C1957 C1948 1.390 . S
C1957 H1950 0.950 . S
C1957 C1954 1.387 . S
C1958 C1959 1.387 . S
C1958 H1962 0.950 . S
C1958 C1967 1.390 . S
C1959 C1958 1.387 . S
C1959 C1961 1.387 . S
H1960 C1967 0.950 . S
C1961 C1959 1.387 . S
C1961 C1963 1.390 . S
C1961 H1965 0.950 . S
H1962 C1958 0.950 . S
C1963 C1961 1.390 . S
C1963 C1964 1.387 . S
C1963 H1966 0.950 . S
C1964 C1963 1.387 . S
C1964 C1967 1.387 . S
H1965 C1961 0.950 . S
H1966 C1963 0.950 . S
C1967 C1958 1.390 . S
C1967 H1960 0.950 . S
C1967 C1964 1.387 . S
C1968 C1969 1.387 . S
C1968 H1972 0.950 . S
C1968 C1977 1.390 . S
C1969 C1968 1.387 . S
C1969 C1971 1.387 . S
H1970 C1977 0.950 . S
C1971 C1969 1.387 . S
C1971 C1973 1.390 . S
C1971 H1975 0.950 . S
H1972 C1968 0.950 . S
C1973 C1971 1.390 . S
C1973 C1974 1.387 . S
C1973 H1976 0.950 1_545 S
C1974 C1973 1.387 . S
C1974 C1977 1.387 . S
H1975 C1971 0.950 . S
H1976 C1973 0.950 1_565 S
C1977 C1968 1.390 . S
C1977 H1970 0.950 . S
C1977 C1974 1.387 . S
C1978 C1979 1.387 . S
C1978 H1982 0.950 . S
C1978 C1987 1.390 . S
C1979 C1978 1.387 . S
C1979 C1981 1.387 . S
H1980 C1987 0.950 . S
C1981 C1979 1.387 . S
C1981 C1983 1.390 . S
C1981 H1985 0.950 . S
H1982 C1978 0.950 . S
C1983 C1981 1.390 . S
C1983 C1984 1.387 . S
C1983 H1986 0.950 . S
C1984 C1983 1.387 . S
C1984 C1987 1.387 . S
H1985 C1981 0.950 . S
H1986 C1983 0.950 . S
C1987 C1978 1.390 . S
C1987 H1980 0.950 . S
C1987 C1984 1.387 . S
C1988 C1989 1.387 . S
C1988 H1992 0.950 . S
C1988 C1997 1.390 . S
C1989 C1988 1.387 . S
C1989 C1991 1.387 . S
H1990 C1997 0.950 . S
C1991 C1989 1.387 . S
C1991 C1993 1.390 . S
C1991 H1995 0.950 . S
H1992 C1988 0.950 . S
C1993 C1991 1.390 . S
C1993 C1994 1.387 . S
C1993 H1996 0.950 . S
C1994 C1993 1.387 . S
C1994 C1997 1.387 . S
H1995 C1991 0.950 . S
H1996 C1993 0.950 . S
C1997 C1988 1.390 . S
C1997 H1990 0.950 . S
C1997 C1994 1.387 . S
C1998 C1999 1.387 . S
C1998 H2002 0.950 . S
C1998 C2007 1.390 . S
C1999 C1998 1.387 . S
C1999 C2001 1.387 . S
H2000 C2007 0.950 . S
C2001 C1999 1.387 . S
C2001 C2003 1.390 . S
C2001 H2005 0.950 . S
H2002 C1998 0.950 . S
C2003 C2001 1.390 . S
C2003 C2004 1.387 . S
C2003 H2006 0.950 . S
C2004 C2003 1.387 . S
C2004 C2007 1.387 . S
H2005 C2001 0.950 . S
H2006 C2003 0.950 . S
C2007 C1998 1.390 . S
C2007 H2000 0.950 . S
C2007 C2004 1.387 . S
C2008 C2009 1.387 . S
C2008 H2012 0.950 . S
C2008 C2017 1.390 . S
C2009 C2008 1.387 . S
C2009 C2011 1.387 . S
H2010 C2017 0.950 . S
C2011 C2009 1.387 . S
C2011 C2013 1.390 . S
C2011 H2015 0.950 . S
H2012 C2008 0.950 . S
C2013 C2011 1.390 . S
C2013 C2014 1.387 . S
C2013 H2016 0.950 . S
C2014 C2013 1.387 . S
C2014 C2017 1.387 . S
H2015 C2011 0.950 . S
H2016 C2013 0.950 . S
C2017 C2008 1.390 . S
C2017 H2010 0.950 . S
C2017 C2014 1.387 . S
C2018 C2019 1.387 . S
C2018 H2022 0.950 . S
C2018 C2027 1.390 . S
C2019 C2018 1.387 . S
C2019 C2021 1.387 . S
H2020 C2027 0.950 . S
C2021 C2019 1.387 . S
C2021 C2023 1.390 . S
C2021 H2025 0.950 . S
H2022 C2018 0.950 . S
C2023 C2021 1.390 . S
C2023 C2024 1.387 . S
C2023 H2026 0.950 . S
C2024 C2023 1.387 . S
C2024 C2027 1.387 . S
H2025 C2021 0.950 . S
H2026 C2023 0.950 . S
C2027 C2018 1.390 . S
C2027 H2020 0.950 . S
C2027 C2024 1.387 . S
C2028 C2029 1.387 . S
C2028 H2032 0.950 . S
C2028 C2037 1.390 . S
C2029 C2028 1.387 . S
C2029 C2031 1.387 . S
H2030 C2037 0.950 . S
C2031 C2029 1.387 . S
C2031 C2033 1.390 . S
C2031 H2035 0.950 . S
H2032 C2028 0.950 . S
C2033 C2031 1.390 . S
C2033 C2034 1.387 . S
C2033 H2036 0.950 . S
C2034 C2033 1.387 . S
C2034 C2037 1.387 . S
H2035 C2031 0.950 . S
H2036 C2033 0.950 . S
C2037 C2028 1.390 . S
C2037 H2030 0.950 . S
C2037 C2034 1.387 . S
C2038 C2039 1.387 . S
C2038 H2042 0.950 . S
C2038 C2047 1.390 . S
C2039 C2038 1.387 . S
C2039 C2041 1.387 . S
H2040 C2047 0.950 . S
C2041 C2039 1.387 . S
C2041 C2043 1.390 . S
C2041 H2045 0.950 . S
H2042 C2038 0.950 . S
C2043 C2041 1.390 . S
C2043 C2044 1.387 . S
C2043 H2046 0.950 . S
C2044 C2043 1.387 . S
C2044 C2047 1.387 . S
H2045 C2041 0.950 . S
H2046 C2043 0.950 . S
C2047 C2038 1.390 . S
C2047 H2040 0.950 . S
C2047 C2044 1.387 . S
C2048 C2049 1.387 . S
C2048 H2052 0.950 . S
C2048 C2057 1.390 . S
C2049 C2048 1.387 . S
C2049 C2051 1.387 . S
H2050 C2057 0.950 . S
C2051 C2049 1.387 . S
C2051 C2053 1.390 . S
C2051 H2055 0.950 . S
H2052 C2048 0.950 . S
C2053 C2051 1.390 . S
C2053 C2054 1.387 . S
C2053 H2056 0.950 . S
C2054 C2053 1.387 . S
C2054 C2057 1.387 . S
H2055 C2051 0.950 . S
H2056 C2053 0.950 . S
C2057 C2048 1.390 . S
C2057 H2050 0.950 . S
C2057 C2054 1.387 . S
C2058 C2059 1.387 . S
C2058 H2062 0.950 . S
C2058 C2067 1.390 . S
C2059 C2058 1.387 . S
C2059 C2061 1.387 . S
H2060 C2067 0.950 . S
C2061 C2059 1.387 . S
C2061 C2063 1.390 . S
C2061 H2065 0.950 . S
H2062 C2058 0.950 . S
C2063 C2061 1.390 . S
C2063 C2064 1.387 . S
C2063 H2066 0.950 . S
C2064 C2063 1.387 . S
C2064 C2067 1.387 . S
H2065 C2061 0.950 . S
H2066 C2063 0.950 . S
C2067 C2058 1.390 . S
C2067 H2060 0.950 . S
C2067 C2064 1.387 . S
C2068 C2069 1.387 . S
C2068 H2072 0.950 . S
C2068 C2077 1.390 . S
C2069 C2068 1.387 . S
C2069 C2071 1.387 . S
H2070 C2077 0.950 . S
C2071 C2069 1.387 . S
C2071 C2073 1.390 . S
C2071 H2075 0.950 . S
H2072 C2068 0.950 . S
C2073 C2071 1.390 . S
C2073 C2074 1.387 . S
C2073 H2076 0.950 . S
C2074 C2073 1.387 . S
C2074 C2077 1.387 . S
H2075 C2071 0.950 . S
H2076 C2073 0.950 . S
C2077 C2068 1.390 . S
C2077 H2070 0.950 . S
C2077 C2074 1.387 . S
C2078 C2079 1.387 . S
C2078 H2082 0.950 . S
C2078 C2087 1.390 . S
C2079 C2078 1.387 . S
C2079 C2081 1.387 . S
H2080 C2087 0.950 1_565 S
C2081 C2079 1.387 . S
C2081 C2083 1.390 . S
C2081 H2085 0.950 . S
H2082 C2078 0.950 . S
C2083 C2081 1.390 . S
C2083 C2084 1.387 . S
C2083 H2086 0.950 . S
C2084 C2083 1.387 . S
C2084 C2087 1.387 . S
H2085 C2081 0.950 . S
H2086 C2083 0.950 . S
C2087 C2078 1.390 . S
C2087 H2080 0.950 1_545 S
C2087 C2084 1.387 . S
C1369 C9 1.597 1_655 S
C1374 C857 1.530 . S
C1379 C19 1.625 . S
C1384 C901 1.591 . S
C1394 C981 1.555 . S
C1389 C33 1.619 . S
C1399 C37 1.615 1_565 S
C1404 C1025 1.577 . S
C1409 C5 1.587 . S
C1414 C1105 1.535 . S
C1419 C23 1.667 . S
C1424 C1167 1.581 . S
C1429 C47 1.597 . S
C1434 C1087 1.535 . S
C1444 C1149 1.584 . S
C1439 C65 1.674 . S
C1454 C1043 1.559 . S
C1449 C75 1.593 . S
C1459 C79 1.575 . S
C1464 C963 1.508 . S
C1474 C839 1.558 . S
C1469 C51 1.626 1_655 S
C1479 C61 1.648 . S
C1484 C919 1.614 . S
C1489 C93 1.718 . S
C1494 C1229 1.617 . S
C1499 C103 1.664 . S
C1504 C1273 1.635 . S
C1514 C1353 1.613 . S
C1509 C117 1.699 . S
C1519 C121 1.692 . S
C1524 C299 1.604 . S
C1529 C89 1.685 . S
C1534 C343 1.651 . S
C1539 C107 1.701 . S
C1544 C423 1.614 . S
C1549 C131 1.671 . S
C1554 C361 1.633 . S
C1559 C149 1.701 . S
C1564 C405 1.614 . S
C1574 C281 1.585 . S
C1569 C159 1.668 . S
C1584 C1335 1.604 . S
C1579 C163 1.691 . S
C1594 C1211 1.630 . S
C1589 C135 1.734 . S
C1604 C1291 1.658 . S
C1599 C145 1.689 . S
C1609 C177 1.688 . S
C1614 C485 1.593 . S
C1619 C187 1.649 . S
C1624 C547 1.578 . S
C1629 C201 1.697 . S
C1634 C591 1.655 . S
C1639 C205 1.723 . S
C1644 C653 1.681 . S
C1654 C715 1.654 . S
C1649 C173 1.687 . S
C1664 C795 1.623 . S
C1659 C191 1.715 . S
C1674 C733 1.666 . S
C1669 C215 1.705 . S
C1684 C777 1.628 . S
C1679 C233 1.720 . S
C1689 C243 1.667 . S
C1694 C671 1.632 . S
C1704 C609 1.621 . S
C1699 C247 1.655 . S
C1709 C219 1.731 . S
C1714 C467 1.632 . S
C1724 C529 1.606 . S
C1719 C229 1.682 . S
C1734 C305 1.473 . S
C1729 C11 1.565 . S
C1739 C14 1.571 . S
C1744 C349 1.488 . S
C1754 C429 1.538 . S
C1749 C28 1.641 . S
C1764 C491 1.534 . S
C1759 C39 1.634 . S
C1774 C553 1.486 . S
C1769 C0 1.589 . S
C1784 C597 1.452 . S
C1779 C25 1.529 . S
C1789 C42 1.632 . S
C1794 C615 1.556 . S
C1799 C67 1.576 . S
C1804 C473 1.479 . S
C1809 C70 1.542 . S
C1814 C535 1.442 . S
C1819 C81 1.564 . S
C1824 C367 1.492 . S
C1834 C411 1.508 . S
C1829 C53 1.609 . S
C1839 C56 1.603 . S
C1844 C287 1.495 . S
C1854 C659 1.486 . S
C1849 C95 1.560 . S
C1859 C98 1.610 . S
C1864 C721 1.528 . S
C1869 C112 1.705 . S
C1874 C801 1.562 . S
C1884 C863 1.440 . S
C1879 C123 1.510 . S
C1889 C84 1.575 . S
C1894 C907 1.494 . S
C1899 C109 1.450 . S
C1904 C987 1.381 . S
C1909 C126 1.529 . S
C1914 C969 1.450 . S
C1919 C151 1.487 . S
C1924 C845 1.419 . S
C1934 C925 1.468 . S
C1929 C154 1.545 . S
C1939 C165 1.555 . S
C1944 C739 1.474 . S
C1949 C137 1.627 . S
C1954 C783 1.523 . S
C1964 C677 1.563 . S
C1959 C140 1.645 . S
C1974 C1031 1.421 . S
C1969 C179 1.479 . S
C1979 C182 1.482 . S
C1984 C1111 1.413 . S
C1989 C196 1.624 . S
C1994 C1173 1.523 . S
C2004 C1235 1.522 . S
C1999 C207 1.627 . S
C2014 C1279 1.528 . S
C2009 C168 1.612 . S
C2019 C193 1.575 . S
C2024 C1359 1.474 . S
C2029 C210 1.632 . S
C2034 C1341 1.526 . S
C2039 C235 1.617 . S
C2044 C1217 1.519 . S
C2054 C1297 1.498 . S
C2049 C238 1.580 . S
C2064 C1093 1.379 . S
C2059 C249 1.447 . S
C2074 C1155 1.493 . S
C2069 C221 1.589 . S
C2079 C224 1.524 . S
C2084 C1049 1.460 . S
