# Generated by pormake.
# Topology dag, (6,3)-cn, num edge types: 1
# Building blocks:
#     Node 0, Type 0, BuildingBlock: IZENUY_clean_sbu_0, # of connection points: 6
#     Node 1, Type 0, BuildingBlock: IZENUY_clean_sbu_0, # of connection points: 6
#     Node 2, Type 0, BuildingBlock: IZENUY_clean_sbu_0, # of connection points: 6
#     Node 3, Type 0, BuildingBlock: IZENUY_clean_sbu_0, # of connection points: 6
#     Node 4, Type 1, BuildingBlock: BETDIP_clean_linker_0, # of connection points: 3
#     Node 5, Type 1, BuildingBlock: BETDIP_clean_linker_0, # of connection points: 3
#     Node 6, Type 1, BuildingBlock: BETDIP_clean_linker_0, # of connection points: 3
#     Node 7, Type 1, BuildingBlock: BETDIP_clean_linker_0, # of connection points: 3
#     Node 8, Type 1, BuildingBlock: BETDIP_clean_linker_0, # of connection points: 3
#     Node 9, Type 1, BuildingBlock: BETDIP_clean_linker_0, # of connection points: 3
#     Node 10, Type 1, BuildingBlock: BETDIP_clean_linker_0, # of connection points: 3
#     Node 11, Type 1, BuildingBlock: BETDIP_clean_linker_0, # of connection points: 3
#     Edge 12, Type (0, 1), BuildingBlock: KIFKEQ_clean_linker_1, # of connection points: 2
#     Edge 13, Type (0, 1), BuildingBlock: KIFKEQ_clean_linker_1, # of connection points: 2
#     Edge 14, Type (0, 1), BuildingBlock: KIFKEQ_clean_linker_1, # of connection points: 2
#     Edge 15, Type (0, 1), BuildingBlock: KIFKEQ_clean_linker_1, # of connection points: 2
#     Edge 16, Type (0, 1), BuildingBlock: KIFKEQ_clean_linker_1, # of connection points: 2
#     Edge 17, Type (0, 1), BuildingBlock: KIFKEQ_clean_linker_1, # of connection points: 2
#     Edge 18, Type (0, 1), BuildingBlock: KIFKEQ_clean_linker_1, # of connection points: 2
#     Edge 19, Type (0, 1), BuildingBlock: KIFKEQ_clean_linker_1, # of connection points: 2
#     Edge 20, Type (0, 1), BuildingBlock: KIFKEQ_clean_linker_1, # of connection points: 2
#     Edge 21, Type (0, 1), BuildingBlock: KIFKEQ_clean_linker_1, # of connection points: 2
#     Edge 22, Type (0, 1), BuildingBlock: KIFKEQ_clean_linker_1, # of connection points: 2
#     Edge 23, Type (0, 1), BuildingBlock: KIFKEQ_clean_linker_1, # of connection points: 2
#     Edge 24, Type (0, 1), BuildingBlock: KIFKEQ_clean_linker_1, # of connection points: 2
#     Edge 25, Type (0, 1), BuildingBlock: KIFKEQ_clean_linker_1, # of connection points: 2
#     Edge 26, Type (0, 1), BuildingBlock: KIFKEQ_clean_linker_1, # of connection points: 2
#     Edge 27, Type (0, 1), BuildingBlock: KIFKEQ_clean_linker_1, # of connection points: 2
#     Edge 28, Type (0, 1), BuildingBlock: KIFKEQ_clean_linker_1, # of connection points: 2
#     Edge 29, Type (0, 1), BuildingBlock: KIFKEQ_clean_linker_1, # of connection points: 2
#     Edge 30, Type (0, 1), BuildingBlock: KIFKEQ_clean_linker_1, # of connection points: 2
#     Edge 31, Type (0, 1), BuildingBlock: KIFKEQ_clean_linker_1, # of connection points: 2
#     Edge 32, Type (0, 1), BuildingBlock: KIFKEQ_clean_linker_1, # of connection points: 2
#     Edge 33, Type (0, 1), BuildingBlock: KIFKEQ_clean_linker_1, # of connection points: 2
#     Edge 34, Type (0, 1), BuildingBlock: KIFKEQ_clean_linker_1, # of connection points: 2
#     Edge 35, Type (0, 1), BuildingBlock: KIFKEQ_clean_linker_1, # of connection points: 2
# Relax obj value: 0.090
# Max RMSD: 0.101
# Mean RMSD: 0.084
data_MOF--net-dag--node1-IZENUY_clean_sbu_0--node2-BETDIP_clean_linker_0--edge1-KIFKEQ_clean_linker_1
_symmetry_space_group_name_H-M    P1
_symmetry_Int_Tables_number       1
_symmetry_cell_setting            triclinic
loop_
_symmetry_equiv_pos_as_xyz
'x, y, z'
_cell_length_a     41.107673
_cell_length_b     40.293941
_cell_length_c     36.572066
_cell_angle_alpha  85.874303
_cell_angle_beta   89.827238
_cell_angle_gamma 90.147836
loop_
_atom_site_label
_atom_site_type_symbol
_atom_site_fract_x
_atom_site_fract_y
_atom_site_fract_z
_atom_type_partial_charge
Fe0 Fe 0.19121 0.87327 0.99104 0.0
Fe1 Fe 0.12041 0.89213 0.00473 0.0
O2 O 0.15033 0.86125 0.00019 0.0
Fe3 Fe 0.13922 0.81854 0.005 0.0
O4 O 0.17794 0.80464 0.0253 0.0
O5 O 0.20541 0.8506 0.03271 0.0
O6 O 0.18957 0.91053 0.0171 0.0
C7 C 0.1704 0.91836 0.04224 0.0
C8 C 0.18179 0.81904 0.9471 0.0
O9 O 0.14143 0.90788 0.04344 0.0
C10 C 0.08672 0.8488 0.96492 0.0
O11 O 0.17999 0.89672 0.94845 0.0
O12 O 0.13968 0.92326 0.97275 0.0
O13 O 0.15357 0.81173 0.95897 0.0
O14 O 0.20007 0.83833 0.9636 0.0
C15 C 0.10346 0.84322 0.06021 0.0
O16 O 0.09754 0.87807 0.96629 0.0
O17 O 0.09841 0.82505 0.9854 0.0
C18 C 0.15974 0.92021 0.94701 0.0
O19 O 0.0956 0.8671 0.03775 0.0
O20 O 0.12432 0.82219 0.05161 0.0
C21 C 0.20017 0.82009 0.04099 0.0
Fe22 Fe 0.68694 0.62683 0.55335 0.0
Fe23 Fe 0.63935 0.68278 0.52792 0.0
O24 O 0.64776 0.64009 0.53854 0.0
Fe25 Fe 0.61663 0.61044 0.53426 0.0
O26 O 0.61837 0.59798 0.58264 0.0
O27 O 0.67158 0.59212 0.58467 0.0
O28 O 0.68532 0.65224 0.59217 0.0
C29 C 0.68074 0.68322 0.59012 0.0
C30 C 0.67217 0.57676 0.5101 0.0
O31 O 0.66747 0.69782 0.56218 0.0
C32 C 0.60635 0.65031 0.47226 0.0
O33 O 0.70894 0.65936 0.52487 0.0
O34 O 0.67038 0.68564 0.49286 0.0
O35 O 0.64374 0.57664 0.52328 0.0
O36 O 0.69158 0.60015 0.51549 0.0
C37 C 0.58266 0.66421 0.56201 0.0
O38 O 0.6101 0.67533 0.4911 0.0
O39 O 0.61335 0.62145 0.48559 0.0
C40 C 0.69994 0.67832 0.49754 0.0
O41 O 0.60731 0.68287 0.56255 0.0
O42 O 0.58332 0.63831 0.5445 0.0
C43 C 0.64355 0.58658 0.59867 0.0
Fe44 Fe 0.85426 0.18174 0.03131 0.0
Fe45 Fe 0.87179 0.10785 0.03587 0.0
O46 O 0.8427 0.1395 0.0401 0.0
Fe47 Fe 0.80221 0.12871 0.05292 0.0
O48 O 0.78637 0.14894 0.01071 0.0
O49 O 0.81468 0.19514 0.01284 0.0
O50 O 0.86647 0.17511 0.98443 0.0
C51 C 0.88686 0.15349 0.97624 0.0
C52 C 0.81521 0.18586 0.09158 0.0
O53 O 0.89531 0.1306 -0.0003 0.0
C54 C 0.83538 0.08385 0.09783 0.0
O55 O 0.89594 0.1757 0.04843 0.0
O56 O 0.89675 0.12379 0.07156 0.0
O57 O 0.79543 0.16583 0.07821 0.0
O58 O 0.84286 0.19135 0.07729 0.0
C59 C 0.81951 0.08036 0.00377 0.0
O60 O 0.85368 0.07883 0.07101 0.0
O61 O 0.8154 0.10761 0.09613 0.0
C62 C 0.90796 0.15307 0.07016 0.0
O63 O 0.84848 0.09043 -4e-05 0.0
O64 O 0.80186 0.08957 0.02967 0.0
C65 C 0.79185 0.17877 -0.00059 0.0
Fe66 Fe 0.37889 0.38597 0.50701 0.0
Fe67 Fe 0.30828 0.37048 0.48854 0.0
O68 O 0.34774 0.35662 0.50162 0.0
Fe69 Fe 0.35604 0.31349 0.50945 0.0
O70 O 0.36771 0.31816 0.55675 0.0
O71 O 0.39957 0.36127 0.54374 0.0
O72 O 0.35628 0.40497 0.54248 0.0
C73 C 0.32828 0.41726 0.53818 0.0
C74 C 0.41273 0.33895 0.47283 0.0
O75 O 0.31044 0.4094 0.51194 0.0
C76 C 0.31774 0.31353 0.44861 0.0
O77 O 0.36389 0.41603 0.47123 0.0
O78 O 0.32329 0.39083 0.44572 0.0
O79 O 0.39866 0.31665 0.49348 0.0
O80 O 0.40337 0.36874 0.4719 0.0
C81 C 0.29361 0.32061 0.54062 0.0
O82 O 0.29908 0.33414 0.46275 0.0
O83 O 0.34489 0.30602 0.46287 0.0
C84 C 0.34602 0.412 0.44381 0.0
O85 O 0.29095 0.35108 0.5305 0.0
O86 O 0.315 0.30269 0.52671 0.0
C87 C 0.38895 0.33845 0.56623 0.0
H88 H 0.13542 0.19856 0.21144 0.0
H89 H 0.21634 0.13131 0.20475 0.0
H90 H 0.1339 0.12297 0.13437 0.0
H91 H 0.24465 0.17542 0.22454 0.0
C92 C 0.22813 0.18619 0.24363 0.0
C93 C 0.14718 0.17818 0.19884 0.0
C94 C 0.13126 0.16227 0.17111 0.0
C95 C 0.17849 0.16823 0.21007 0.0
C96 C 0.19309 0.14071 0.19489 0.0
C97 C 0.1771 0.12463 0.16732 0.0
C98 C 0.14661 0.13598 0.15506 0.0
N99 N 0.19402 0.18569 0.23751 0.0
H100 H 0.28279 0.62706 0.70227 0.0
H101 H 0.3559 0.70345 0.70876 0.0
H102 H 0.36357 0.63263 0.62715 0.0
H103 H 0.338 0.70194 0.76751 0.0
C104 C 0.31184 0.69895 0.7651 0.0
C105 C 0.305 0.63907 0.69212 0.0
C106 C 0.32158 0.62675 0.66241 0.0
C107 C 0.31708 0.6666 0.70917 0.0
C108 C 0.34626 0.68195 0.69631 0.0
C109 C 0.36279 0.66997 0.66637 0.0
C110 C 0.35017 0.64262 0.64946 0.0
N111 N 0.29888 0.67862 0.73852 0.0
H112 H 0.93714 0.80534 0.29249 0.0
H113 H 0.85902 0.87591 0.29868 0.0
H114 H 0.94084 0.89905 0.22837 0.0
H115 H 0.85582 0.85243 0.35681 0.0
C116 C 0.85862 0.82616 0.35266 0.0
C117 C 0.92657 0.82938 0.2845 0.0
C118 C 0.94278 0.85144 0.25911 0.0
C119 C 0.897 0.83852 0.30017 0.0
C120 C 0.88268 0.86924 0.28848 0.0
C121 C 0.89853 0.89134 0.26286 0.0
C122 C 0.92883 0.88248 0.24889 0.0
N123 N 0.88158 0.816 0.32658 0.0
H124 H 0.56155 0.29367 0.78425 0.0
H125 H 0.63874 0.36628 0.78453 0.0
H126 H 0.54737 0.39253 0.73438 0.0
H127 H 0.66935 0.3186 0.785 0.0
C128 C 0.6564 0.30272 0.80549 0.0
C129 C 0.57046 0.31872 0.77754 0.0
C130 C 0.55038 0.34231 0.75877 0.0
C131 C 0.60239 0.327 0.78679 0.0
C132 C 0.61424 0.35935 0.77733 0.0
C133 C 0.59427 0.3832 0.75888 0.0
C134 C 0.56233 0.37458 0.75011 0.0
N135 N 0.62185 0.30243 0.80593 0.0
H136 H 0.64168 0.30369 0.33169 0.0
H137 H 0.72413 0.36821 0.34433 0.0
H138 H 0.64261 0.37107 0.41756 0.0
H139 H 0.75105 0.3275 0.31674 0.0
C140 C 0.73381 0.31774 0.29778 0.0
C141 C 0.65393 0.32252 0.34636 0.0
C142 C 0.63859 0.33573 0.37637 0.0
C143 C 0.68526 0.33305 0.33541 0.0
C144 C 0.70073 0.35844 0.35357 0.0
C145 C 0.68549 0.37186 0.38353 0.0
C146 C 0.65478 0.35998 0.39508 0.0
N147 N 0.69991 0.31811 0.30546 0.0
H148 H 0.0581 0.19813 0.75304 0.0
H149 H 0.14317 0.13601 0.75407 0.0
H150 H 0.05699 0.10176 0.81197 0.0
H151 H 0.16399 0.19515 0.75858 0.0
C152 C 0.15194 0.20273 0.73291 0.0
C153 C 0.07001 0.17482 0.76128 0.0
C154 C 0.05348 0.15037 0.78351 0.0
C155 C 0.10234 0.16982 0.75074 0.0
C156 C 0.11818 0.13997 0.76218 0.0
C157 C 0.10167 0.11498 0.7836 0.0
C158 C 0.06929 0.12031 0.79389 0.0
N159 N 0.11854 0.195 0.72844 0.0
H160 H 0.43173 0.6925 0.24963 0.0
H161 H 0.3582 0.61752 0.2379 0.0
H162 H 0.4429 0.59472 0.30314 0.0
H163 H 0.35594 0.6453 0.17996 0.0
C164 C 0.35551 0.67086 0.18763 0.0
C165 C 0.42292 0.66726 0.25524 0.0
C166 C 0.44108 0.64443 0.27755 0.0
C167 C 0.39368 0.65736 0.23948 0.0
C168 C 0.3816 0.62494 0.24817 0.0
C169 C 0.39941 0.60214 0.27085 0.0
C170 C 0.4294 0.61193 0.28477 0.0
N171 N 0.37642 0.68061 0.21583 0.0
H172 H 0.7741 0.86892 0.84044 0.0
H173 H 0.85823 0.80871 0.82133 0.0
H174 H 0.86029 0.87776 0.90534 0.0
H175 H 0.83488 0.81323 0.76208 0.0
C176 C 0.80963 0.80803 0.76932 0.0
C177 C 0.79869 0.86121 0.8474 0.0
C178 C 0.81534 0.87608 0.87538 0.0
C179 C 0.81386 0.83691 0.82774 0.0
C180 C 0.84618 0.82752 0.83613 0.0
C181 C 0.8627 0.84188 0.86463 0.0
C182 C 0.84705 0.86583 0.88423 0.0
N183 N 0.79571 0.82194 0.80031 0.0
H184 H 0.22276 0.96019 0.03417 0.0
H185 H 0.14016 0.93591 0.10463 0.0
H186 H 0.23453 0.00834 0.06882 0.0
H187 H 0.15214 0.984 0.13927 0.0
H188 H 0.18752 0.06543 0.20553 0.0
H189 H 0.19415 0.0114 0.1795 0.0
H190 H 0.20031 0.06105 0.07101 0.0
H191 H 0.19331 0.11474 0.09707 0.0
C192 C 0.2075 0.96471 0.05748 0.0
C193 C 0.18023 0.94451 0.06637 0.0
C194 C 0.21427 0.99229 0.07724 0.0
C195 C 0.19422 -0.00011 0.1066 0.0
C196 C 0.1682 0.97851 0.11696 0.0
C197 C 0.16117 0.95116 0.09693 0.0
C198 C 0.19152 0.0647 0.1763 0.0
C199 C 0.19001 0.09397 0.15316 0.0
C200 C 0.19502 0.0339 0.16142 0.0
C201 C 0.19751 0.03211 0.12328 0.0
C202 C 0.19873 0.06172 0.10053 0.0
C203 C 0.19472 0.0924 0.11534 0.0
H204 H 0.5707 0.70511 0.61801 0.0
H205 H 0.52306 0.64593 0.53991 0.0
H206 H 0.51727 0.71763 0.64445 0.0
H207 H 0.47072 0.65819 0.56585 0.0
H208 H 0.37798 0.69539 0.59779 0.0
H209 H 0.43252 0.70432 0.57233 0.0
H210 H 0.47367 0.68281 0.67993 0.0
H211 H 0.41877 0.67476 0.7055 0.0
C212 C 0.5489 0.69518 0.60626 0.0
C213 C 0.55107 0.67437 0.57708 0.0
C214 C 0.51844 0.70224 0.62139 0.0
C215 C 0.48978 0.68918 0.60698 0.0
C216 C 0.49218 0.66921 0.57718 0.0
C217 C 0.52233 0.66185 0.56255 0.0
C218 C 0.39867 0.69373 0.61612 0.0
C219 C 0.39437 0.68407 0.65343 0.0
C220 C 0.42985 0.69869 0.6016 0.0
C221 C 0.45738 0.69355 0.62402 0.0
C222 C 0.45293 0.68703 0.66201 0.0
C223 C 0.42157 0.68238 0.67664 0.0
H224 H 0.84605 0.09159 0.17043 0.0
H225 H 0.82445 0.01845 0.09345 0.0
H226 H 0.8557 0.04667 0.21843 0.0
H227 H 0.83335 0.97387 0.14105 0.0
H228 H 0.83678 0.89902 0.23658 0.0
H229 H 0.81385 0.94825 0.2031 0.0
H230 H 0.90194 0.00299 0.22182 0.0
H231 H 0.92483 0.95379 0.25529 0.0
C232 C 0.84235 0.06596 0.16423 0.0
C233 C 0.83444 0.05825 0.12853 0.0
C234 C 0.84805 0.04035 0.19148 0.0
C235 C 0.84523 0.00681 0.18344 0.0
C236 C 0.83531 0.99942 0.14821 0.0
C237 C 0.83031 0.02488 0.12095 0.0
C238 C 0.85086 0.92185 0.23438 0.0
C239 C 0.88267 0.92256 0.24826 0.0
C240 C 0.83781 0.94994 0.21511 0.0
C241 C 0.85616 0.97938 0.20977 0.0
C242 C 0.88712 0.98075 0.2258 0.0
C243 C 0.90033 0.95254 0.24465 0.0
H244 H 0.41393 0.3875 0.6039 0.0
H245 H 0.39802 0.28126 0.61097 0.0
H246 H 0.4452 0.38241 0.66002 0.0
H247 H 0.42971 0.276 0.66802 0.0
H248 H 0.53671 0.2897 0.71856 0.0
H249 H 0.48921 0.28385 0.67965 0.0
H250 H 0.44468 0.36829 0.72612 0.0
H251 H 0.49253 0.37446 0.76447 0.0
C252 C 0.41677 0.36303 0.61787 0.0
C253 C 0.40397 0.33472 0.60286 0.0
C254 C 0.43438 0.36014 0.65034 0.0
C255 C 0.4399 0.32878 0.66859 0.0
C256 C 0.42589 0.30047 0.65448 0.0
C257 C 0.40773 0.30346 0.62198 0.0
C258 C 0.51622 0.30618 0.72144 0.0
C259 C 0.51844 0.33289 0.74398 0.0
C260 C 0.48897 0.30281 0.69919 0.0
C261 C 0.46351 0.32605 0.69928 0.0
C262 C 0.46425 0.35044 0.72492 0.0
C263 C 0.49154 0.35394 0.74692 0.0
H264 H 0.6477 0.51466 0.52187 0.0
H265 H 0.72182 0.57061 0.46002 0.0
H266 H 0.66246 0.4651 0.49229 0.0
H267 H 0.7368 0.52007 0.4298 0.0
H268 H 0.70073 0.43339 0.35234 0.0
H269 H 0.70717 0.48403 0.38493 0.0
H270 H 0.70733 0.42468 0.48809 0.0
H271 H 0.7001 0.37439 0.45551 0.0
C272 C 0.66739 0.51632 0.50204 0.0
C273 C 0.68344 0.54664 0.49306 0.0
C274 C 0.67614 0.48771 0.48538 0.0
C275 C 0.70105 0.48855 0.45899 0.0
C276 C 0.71758 0.51873 0.45018 0.0
C277 C 0.70907 0.54754 0.46745 0.0
C278 C 0.70346 0.4312 0.38187 0.0
C279 C 0.69957 0.40021 0.40157 0.0
C280 C 0.70716 0.46014 0.40053 0.0
C281 C 0.70709 0.45832 0.43907 0.0
C282 C 0.70687 0.42686 0.45839 0.0
C283 C 0.7029 0.39809 0.43982 0.0
H284 H 0.91666 0.10357 0.94394 0.0
H285 H 0.89547 0.20852 0.92764 0.0
H286 H 0.95011 0.10694 0.88929 0.0
H287 H 0.92909 0.21191 0.8718 0.0
H288 H 0.99934 0.11109 0.78454 0.0
H289 H 0.95144 0.1154 0.82351 0.0
H290 H 0.98811 0.20806 0.85983 0.0
H291 H 0.03551 0.20407 0.82001 0.0
C292 C 0.91884 0.12738 0.92832 0.0
C293 C 0.9038 0.15589 0.94039 0.0
C294 C 0.93775 0.12923 0.89662 0.0
C295 C 0.94226 0.15969 0.876 0.0
C296 C 0.9262 0.18811 0.88721 0.0
C297 C 0.90688 0.18617 0.91904 0.0
C298 C 0.99661 0.13282 0.80008 0.0
C299 C 0.02125 0.15703 0.79966 0.0
C300 C 0.96931 0.13526 0.82252 0.0
C301 C 0.9663 0.1617 0.84542 0.0
C302 C 0.98955 0.18744 0.84247 0.0
C303 C 0.01677 0.18515 0.81969 0.0
H304 H 0.30157 0.43275 0.39068 0.0
H305 H 0.40233 0.44157 0.42178 0.0
H306 H 0.31073 0.47423 0.33892 0.0
H307 H 0.41137 0.48243 0.37088 0.0
H308 H 0.42956 0.54215 0.26986 0.0
H309 H 0.41326 0.49029 0.30363 0.0
H310 H 0.32343 0.53599 0.33498 0.0
H311 H 0.33961 0.58776 0.30063 0.0
C312 C 0.32568 0.44316 0.38614 0.0
C313 C 0.35116 0.43427 0.41043 0.0
C314 C 0.33089 0.4669 0.35667 0.0
C315 C 0.3618 0.48146 0.35072 0.0
C316 C 0.38741 0.47135 0.37426 0.0
C317 C 0.38213 0.44818 0.40374 0.0
C318 C 0.40594 0.54076 0.28314 0.0
C319 C 0.38605 0.56902 0.28315 0.0
C320 C 0.39664 0.51115 0.30251 0.0
C321 C 0.36737 0.5093 0.32255 0.0
C322 C 0.34607 0.53661 0.31971 0.0
C323 C 0.35534 0.56626 0.30009 0.0
H324 H 0.05612 0.89193 0.91479 0.0
H325 H 0.04945 0.79242 0.96706 0.0
H326 H 0.00366 0.88408 0.88531 0.0
H327 H 0.99712 0.78478 0.93763 0.0
H328 H 0.88619 0.81519 0.92927 0.0
H329 H 0.94303 0.81232 0.9485 0.0
H330 H 0.97312 0.84973 0.83997 0.0
H331 H 0.91591 0.8522 0.8207 0.0
C332 C 0.04372 0.86826 0.91963 0.0
C333 C 0.05683 0.84298 0.94366 0.0
C334 C 0.0138 0.86368 0.90252 0.0
C335 C 0.99627 0.83386 0.90934 0.0
C336 C 0.00999 0.80811 0.93212 0.0
C337 C 0.04002 0.81253 0.94891 0.0
C338 C 0.90507 0.82184 0.90932 0.0
C339 C 0.8969 0.8337 0.87354 0.0
C340 C 0.93756 0.82021 0.92025 0.0
C341 C 0.96248 0.83095 0.89575 0.0
C342 C 0.95436 0.84146 0.85942 0.0
C343 C 0.92178 0.84258 0.84831 0.0
H344 H 0.84102 0.06656 0.93618 0.0
H345 H 0.77332 0.03289 0.02162 0.0
H346 H 0.82863 0.0176 0.90327 0.0
H347 H 0.76117 0.98353 0.98868 0.0
H348 H 0.80878 0.88305 0.94849 0.0
H349 H 0.79971 0.93496 0.97759 0.0
H350 H 0.78384 0.98611 0.87133 0.0
H351 H 0.79275 0.93397 0.84225 0.0
C352 C 0.82306 0.04896 0.94758 0.0
C353 C 0.80836 0.05336 0.98159 0.0
C354 C 0.81575 0.02109 0.92859 0.0
C355 C 0.79393 0.9968 0.94347 0.0
C356 C 0.77808 0.00191 0.97667 0.0
C357 C 0.78499 0.03015 0.99542 0.0
C358 C 0.80226 0.90519 0.93155 0.0
C359 C 0.8016 0.90469 0.89322 0.0
C360 C 0.79695 0.93484 0.94815 0.0
C361 C 0.79137 0.96457 0.92663 0.0
C362 C 0.78828 0.96353 0.88847 0.0
C363 C 0.79314 0.93373 0.87189 0.0
H364 H 0.45339 0.28575 0.48674 0.0
H365 H 0.44136 0.37536 0.41585 0.0
H366 H 0.50712 0.27748 0.45986 0.0
H367 H 0.4948 0.367 0.38908 0.0
H368 H 0.58515 0.33471 0.33241 0.0
H369 H 0.52824 0.32883 0.35195 0.0
H370 H 0.55926 0.31073 0.46431 0.0
H371 H 0.61598 0.31657 0.44475 0.0
C372 C 0.46195 0.30333 0.46501 0.0
C373 C 0.4433 0.33139 0.45367 0.0
C374 C 0.49272 0.29865 0.44975 0.0
C375 C 0.50516 0.32162 0.42245 0.0
C376 C 0.48575 0.34869 0.4098 0.0
C377 C 0.45525 0.35362 0.42537 0.0
C378 C 0.57975 0.32861 0.36113 0.0
C379 C 0.60486 0.32628 0.38714 0.0
C380 C 0.54724 0.32549 0.37233 0.0
C381 C 0.53933 0.31953 0.40967 0.0
C382 C 0.56459 0.31507 0.43534 0.0
C383 C 0.59702 0.3186 0.4242 0.0
H384 H 0.16076 0.91558 0.87272 0.0
H385 H 0.16196 0.9858 0.95635 0.0
H386 H 0.15383 0.96179 0.82552 0.0
H387 H 0.15588 0.03165 0.90968 0.0
H388 H 0.16008 0.11056 0.81867 0.0
H389 H 0.18285 0.06155 0.85276 0.0
H390 H 0.10373 0.00167 0.81624 0.0
H391 H 0.08092 0.05068 0.78229 0.0
C392 C 0.16051 0.94093 0.88077 0.0
C393 C 0.16179 0.94733 0.91795 0.0
C394 C 0.15642 0.96725 0.85394 0.0
C395 C 0.15441 0.00026 0.86399 0.0
C396 C 0.15776 0.00655 0.90106 0.0
C397 C 0.16106 0.98034 0.92777 0.0
C398 C 0.14811 0.08673 0.81708 0.0
C399 C 0.11861 0.0844 0.79815 0.0
C400 C 0.16106 0.05876 0.83667 0.0
C401 C 0.14497 0.02789 0.83722 0.0
C402 C 0.11679 0.02507 0.81603 0.0
C403 C 0.1036 0.05313 0.79687 0.0
H404 H 0.58274 0.70754 0.4366 0.0
H405 H 0.58931 0.60131 0.42815 0.0
H406 H 0.54831 0.71221 0.38217 0.0
H407 H 0.55433 0.60579 0.37492 0.0
H408 H 0.50116 0.6175 0.27189 0.0
H409 H 0.54725 0.62414 0.31268 0.0
H410 H 0.49339 0.69797 0.36792 0.0
H411 H 0.44802 0.69216 0.32588 0.0
C412 C 0.5771 0.68523 0.42298 0.0
C413 C 0.58853 0.65399 0.43701 0.0
C414 C 0.55723 0.6879 0.39188 0.0
C415 C 0.54836 0.6594 0.37414 0.0
C416 C 0.561 0.62842 0.38736 0.0
C417 C 0.5809 0.62577 0.41825 0.0
C418 C 0.49975 0.63589 0.29205 0.0
C419 C 0.47117 0.65426 0.29597 0.0
C420 C 0.52594 0.63948 0.31567 0.0
C421 C 0.52381 0.66105 0.34418 0.0
C422 C 0.49605 0.68128 0.3462 0.0
C423 C 0.47 0.67799 0.32217 0.0
H424 H 0.35415 0.43318 0.60322 0.0
H425 H 0.28091 0.46391 0.52334 0.0
H426 H 0.34349 0.48268 0.63583 0.0
H427 H 0.27032 0.51358 0.55612 0.0
H428 H 0.30803 0.56675 0.69843 0.0
H429 H 0.30159 0.51333 0.67122 0.0
H430 H 0.30634 0.56375 0.56304 0.0
H431 H 0.3127 0.61697 0.59025 0.0
C432 C 0.33543 0.45025 0.59294 0.0
C433 C 0.31866 0.44485 0.56045 0.0
C434 C 0.32913 0.47846 0.61181 0.0
C435 C 0.30615 0.50202 0.59842 0.0
C436 C 0.2883 0.49589 0.56689 0.0
C437 C 0.29432 0.46742 0.54822 0.0
C438 C 0.30672 0.56642 0.66887 0.0
C439 C 0.31104 0.59584 0.64636 0.0
C440 C 0.30328 0.5359 0.65333 0.0
C441 C 0.3037 0.5344 0.61505 0.0
C442 C 0.30568 0.56415 0.59262 0.0
C443 C 0.3095 0.59457 0.60814 0.0
H444 H 0.07673 0.89292 0.09537 0.0
H445 H 0.09125 0.78654 0.1055 0.0
H446 H 0.04401 0.8893 0.15053 0.0
H447 H 0.05807 0.78282 0.16186 0.0
H448 H 0.95335 0.79822 0.21855 0.0
H449 H 0.99869 0.79152 0.17607 0.0
H450 H 0.04608 0.87735 0.21653 0.0
H451 H 0.00037 0.88448 0.25794 0.0
C452 C 0.07314 0.86869 0.10968 0.0
C453 C 0.08626 0.83996 0.09587 0.0
C454 C 0.05465 0.86665 0.14165 0.0
C455 C 0.04857 0.83578 0.16081 0.0
C456 C 0.06234 0.80695 0.14763 0.0
C457 C 0.08137 0.80907 0.11554 0.0
C458 C 0.97401 0.81492 0.21907 0.0
C459 C 0.97332 0.8421 0.24104 0.0
C460 C -1e-05 0.81108 0.19484 0.0
C461 C 0.02566 0.83431 0.19245 0.0
C462 C 0.02632 0.85948 0.21717 0.0
C463 C 0.00029 0.8635 0.24099 0.0
H464 H 0.69088 0.5512 0.63739 0.0
H465 H 0.58678 0.56538 0.63151 0.0
H466 H 0.68298 0.50555 0.68426 0.0
H467 H 0.57888 0.51938 0.67688 0.0
H468 H 0.56798 0.44394 0.7687 0.0
H469 H 0.58364 0.49732 0.7378 0.0
H470 H 0.66394 0.44963 0.68594 0.0
H471 H 0.64891 0.39672 0.7182 0.0
C472 C 0.66636 0.54483 0.64631 0.0
C473 C 0.63947 0.56177 0.63035 0.0
C474 C 0.66181 0.51851 0.67302 0.0
C475 C 0.63028 0.5085 0.68428 0.0
C476 C 0.60357 0.52654 0.66946 0.0
C477 C 0.60811 0.55287 0.64303 0.0
C478 C 0.5894 0.44518 0.75131 0.0
C479 C 0.60712 0.41628 0.74558 0.0
C480 C 0.59827 0.47566 0.73338 0.0
C481 C 0.62471 0.47778 0.70875 0.0
C482 C 0.64363 0.44914 0.70489 0.0
C483 C 0.635 0.41873 0.72329 0.0
H484 H 0.93717 0.11426 0.1251 0.0
H485 H 0.94744 0.20758 0.05991 0.0
H486 H 0.98982 0.12359 0.15351 0.0
H487 H 3e-05 0.21666 0.08826 0.0
H488 H 0.10978 0.18163 0.10288 0.0
H489 H 0.05329 0.18484 0.08231 0.0
H490 H 0.02053 0.16329 0.19384 0.0
H491 H 0.07731 0.16046 0.21441 0.0
C492 C 0.95046 0.13689 0.11712 0.0
C493 C 0.93829 0.15997 0.08995 0.0
C494 C 0.98045 0.14236 0.13361 0.0
C495 C 0.99895 0.17082 0.12297 0.0
C496 C 0.98629 0.19445 0.09678 0.0
C497 C 0.95616 0.1892 0.08063 0.0
C498 C 0.09043 0.17853 0.12303 0.0
C499 C 0.09766 0.17091 0.16014 0.0
C500 C 0.05817 0.18039 0.11135 0.0
C501 C 0.03261 0.17412 0.13651 0.0
C502 C 0.03985 0.16805 0.17392 0.0
C503 C 0.07219 0.16672 0.18571 0.0
H504 H 0.19084 0.75738 0.07184 0.0
H505 H 0.25961 0.83892 0.06731 0.0
H506 H 0.2285 0.72323 0.10894 0.0
H507 H 0.29784 0.80418 0.10411 0.0
H508 H 0.31673 0.65835 0.1311 0.0
H509 H 0.27949 0.6961 0.09742 0.0
H510 H 0.30749 0.77503 0.16499 0.0
H511 H 0.34544 0.73716 0.1983 0.0
C512 C 0.21403 0.76806 0.07877 0.0
C513 C 0.22237 0.80077 0.06619 0.0
C514 C 0.23571 0.74838 0.09993 0.0
C515 C 0.2664 0.76077 0.10895 0.0
C516 C 0.27434 0.79394 0.09767 0.0
C517 C 0.25248 0.81379 0.07651 0.0
C518 C 0.31498 0.6838 0.13866 0.0
C519 C 0.33384 0.6948 0.16729 0.0
C520 C 0.2935 0.70538 0.11958 0.0
C521 C 0.29025 0.7385 0.1288 0.0
C522 C 0.30957 0.74972 0.15713 0.0
C523 C 0.33118 0.72802 0.17628 0.0
H524 H 0.70039 0.7481 0.58218 0.0
H525 H 0.6955 0.66302 0.661 0.0
H526 H 0.73038 0.77908 0.62636 0.0
H527 H 0.72498 0.69439 0.70537 0.0
H528 H 0.75003 0.779 0.783 0.0
H529 H 0.71645 0.74962 0.7404 0.0
H530 H 0.78894 0.76843 0.65578 0.0
H531 H 0.82289 0.79718 0.6986 0.0
C532 C 0.70523 0.73622 0.60913 0.0
C533 C 0.69566 0.70311 0.61813 0.0
C534 C 0.72256 0.75388 0.63425 0.0
C535 C 0.73005 0.73901 0.6691 0.0
C536 C 0.71938 0.7064 0.67868 0.0
C537 C 0.70262 0.68848 0.65329 0.0
C538 C 0.75874 0.7769 0.75528 0.0
C539 C 0.78898 0.79043 0.74392 0.0
C540 C 0.73959 0.76003 0.73103 0.0
C541 C 0.75008 0.757 0.69485 0.0
C542 C 0.7802 0.77074 0.68346 0.0
C543 C 0.79963 0.78701 0.70792 0.0
H544 H 0.76053 0.17613 0.13344 0.0
H545 H 0.84556 0.23916 0.11967 0.0
H546 H 0.74184 0.20826 0.18311 0.0
H547 H 0.8263 0.27203 0.16884 0.0
H548 H 0.79661 0.30238 0.28344 0.0
H549 H 0.81735 0.27033 0.2341 0.0
H550 H 0.71964 0.26173 0.19236 0.0
H551 H 0.69902 0.29275 0.24211 0.0
C552 C 0.77517 0.19697 0.14087 0.0
C553 C 0.80446 0.20516 0.1224 0.0
C554 C 0.76434 0.21556 0.16926 0.0
C555 C 0.78238 0.24297 0.17979 0.0
C556 C 0.81193 0.25091 0.16167 0.0
C557 C 0.82289 0.23215 0.13335 0.0
C558 C 0.77968 0.29362 0.2636 0.0
C559 C 0.74625 0.29979 0.26677 0.0
C560 C 0.79153 0.27543 0.23524 0.0
C561 C 0.77014 0.26321 0.20937 0.0
C562 C 0.73673 0.27011 0.21223 0.0
C563 C 0.72491 0.2881 0.24065 0.0
H564 H 0.26241 0.34972 0.59589 0.0
H565 H 0.27243 0.25632 0.5459 0.0
H566 H 0.22606 0.32282 0.6425 0.0
H567 H 0.23538 0.22988 0.59183 0.0
H568 H 0.13809 0.21146 0.65965 0.0
H569 H 0.17083 0.24167 0.61189 0.0
H570 H 0.2392 0.26921 0.69377 0.0
H571 H 0.20706 0.23813 0.74146 0.0
C572 C 0.2565 0.32361 0.59461 0.0
C573 C 0.27024 0.30505 0.56739 0.0
C574 C 0.23586 0.30828 0.62126 0.0
C575 C 0.228 0.27442 0.62049 0.0
C576 C 0.24101 0.25609 0.59274 0.0
C577 C 0.26227 0.27117 0.56667 0.0
C578 C 0.15996 0.2242 0.66745 0.0
C579 C 0.17013 0.22262 0.70417 0.0
C580 C 0.17866 0.24133 0.64017 0.0
C581 C 0.20733 0.25775 0.64937 0.0
C582 C 0.21701 0.25691 0.68618 0.0
C583 C 0.19875 0.23911 0.71332 0.0
H584 H 0.7665 0.67062 0.49764 0.0
H585 H 0.68882 0.72646 0.44277 0.0
H586 H 0.8065 0.70434 0.46144 0.0
H587 H 0.72862 0.75987 0.40728 0.0
H588 H 0.80752 0.84069 0.39464 0.0
H589 H 0.7702 0.80232 0.42821 0.0
H590 H 0.82441 0.71892 0.39234 0.0
H591 H 0.8618 0.75753 0.35822 0.0
C592 C 0.75793 0.68977 0.47771 0.0
C593 C 0.72443 0.69603 0.47344 0.0
C594 C 0.78082 0.70895 0.45695 0.0
C595 C 0.77058 0.73491 0.43195 0.0
C596 C 0.73716 0.74031 0.42676 0.0
C597 C 0.71437 0.72103 0.44708 0.0
C598 C 0.8115 0.81417 0.39398 0.0
C599 C 0.83735 0.80208 0.37372 0.0
C600 C 0.7901 0.79224 0.41303 0.0
C601 C 0.79432 0.7577 0.4126 0.0
C602 C 0.8207 0.74547 0.39311 0.0
C603 C 0.84195 0.76752 0.37353 0.0
H604 H 0.7973 0.24245 0.96946 0.0
H605 H 0.7388 0.15347 0.96507 0.0
H606 H 0.76394 0.27034 0.92208 0.0
H607 H 0.70551 0.18157 0.91696 0.0
H608 H 0.72177 0.299 0.81043 0.0
H609 H 0.75409 0.26723 0.85652 0.0
H610 H 0.66597 0.22808 0.90809 0.0
H611 H 0.63367 0.25952 0.86157 0.0
C612 C 0.7773 0.22877 0.9584 0.0
C613 C 0.77073 0.19567 0.97114 0.0
C614 C 0.75833 0.24475 0.931 0.0
C615 C 0.73227 0.22808 0.91556 0.0
C616 C 0.72534 0.19511 0.92851 0.0
C617 C 0.74446 0.17899 0.95597 0.0
C618 C 0.70937 0.28342 0.8315 0.0
C619 C 0.67531 0.28184 0.83256 0.0
C620 C 0.72782 0.26538 0.85798 0.0
C621 C 0.71255 0.24538 0.88612 0.0
C622 C 0.67842 0.2431 0.8866 0.0
C623 C 0.65993 0.26123 0.86008 0.0
H624 H 0.345 0.25937 0.4192 0.0
H625 H 0.2639 0.32731 0.40694 0.0
H626 H 0.32378 0.22847 0.3695 0.0
H627 H 0.24327 0.29705 0.35669 0.0
H628 H 0.19519 0.2139 0.29904 0.0
H629 H 0.21794 0.24463 0.34783 0.0
H630 H 0.31454 0.23157 0.30417 0.0
H631 H 0.29164 0.19986 0.25576 0.0
C632 C 0.32281 0.26789 0.40571 0.0
C633 C 0.30597 0.29563 0.41727 0.0
C634 C 0.31074 0.25028 0.37708 0.0
C635 C 0.28169 0.26014 0.35928 0.0
C636 C 0.26533 0.28836 0.37031 0.0
C637 C 0.27727 0.30582 0.39902 0.0
C638 C 0.22128 0.21758 0.29982 0.0
C639 C 0.24171 0.20463 0.27355 0.0
C640 C 0.23432 0.23538 0.32769 0.0
C641 C 0.26806 0.24079 0.32978 0.0
C642 C 0.28849 0.22758 0.30357 0.0
C643 C 0.27542 0.2096 0.27577 0.0
H644 H 0.23085 0.84194 0.90282 0.0
H645 H 0.16489 0.75876 0.92137 0.0
H646 H 0.25986 0.81264 0.85713 0.0
H647 H 0.19464 0.72883 0.87572 0.0
H648 H 0.24483 0.69844 0.76842 0.0
H649 H 0.21032 0.7279 0.81001 0.0
H650 H 0.2962 0.76523 0.8614 0.0
H651 H 0.33047 0.73641 0.81949 0.0
C652 C 0.22246 0.81737 0.89698 0.0
C653 C 0.1959 0.80243 0.91606 0.0
C654 C 0.23922 0.8005 0.87092 0.0
C655 C 0.23003 0.76812 0.86342 0.0
C656 C 0.20231 0.75377 0.88097 0.0
C657 C 0.18529 0.77086 0.90707 0.0
C658 C 0.25627 0.71291 0.78867 0.0
C659 C 0.29035 0.71535 0.79071 0.0
C660 C 0.23651 0.72964 0.81256 0.0
C661 C 0.25051 0.74917 0.83873 0.0
C662 C 0.28462 0.75096 0.84104 0.0
C663 C 0.30428 0.7343 0.81725 0.0
loop_
_geom_bond_atom_site_label_1
_geom_bond_atom_site_label_2
_geom_bond_distance
_geom_bond_site_symmetry_2
_ccdc_geom_bond_type
Fe0 O2 1.918 . S
Fe0 O5 1.997 1_556 S
Fe0 O6 2.002 1_556 S
Fe0 O11 1.976 . S
Fe0 O14 1.996 . S
Fe1 O2 1.918 1_554 S
Fe1 O9 1.997 . S
Fe1 O12 1.996 1_554 S
Fe1 O16 1.976 1_554 S
Fe1 O19 2.002 . S
O2 Fe0 1.918 . S
O2 Fe1 1.918 1_556 S
O2 Fe3 1.918 1_556 S
Fe3 O2 1.918 1_554 S
Fe3 O4 2.002 . S
Fe3 O13 1.976 1_554 S
Fe3 O17 1.996 1_554 S
Fe3 O20 1.997 . S
O4 Fe3 2.002 . S
O4 C21 1.295 . S
O5 Fe0 1.997 1_554 S
O5 C21 1.235 . S
O6 Fe0 2.002 1_554 S
O6 C7 1.295 . S
C7 O6 1.295 . S
C7 O9 1.235 . S
C8 O13 1.287 . S
C8 O14 1.255 . S
O9 Fe1 1.997 . S
O9 C7 1.235 . S
C10 O16 1.287 . S
C10 O17 1.255 . S
O11 Fe0 1.976 . S
O11 C18 1.287 . S
O12 Fe1 1.996 1_556 S
O12 C18 1.255 . S
O13 Fe3 1.976 1_556 S
O13 C8 1.287 . S
O14 Fe0 1.996 . S
O14 C8 1.255 . S
C15 O19 1.295 . S
C15 O20 1.235 . S
O16 Fe1 1.976 1_556 S
O16 C10 1.287 . S
O17 Fe3 1.996 1_556 S
O17 C10 1.255 . S
C18 O11 1.287 . S
C18 O12 1.255 . S
O19 Fe1 2.002 . S
O19 C15 1.295 . S
O20 Fe3 1.997 . S
O20 C15 1.235 . S
C21 O4 1.295 . S
C21 O5 1.235 . S
Fe22 O24 1.918 . S
Fe22 O27 1.997 . S
Fe22 O28 2.002 . S
Fe22 O33 1.976 . S
Fe22 O36 1.996 . S
Fe23 O24 1.918 . S
Fe23 O31 1.997 . S
Fe23 O34 1.996 . S
Fe23 O38 1.976 . S
Fe23 O41 2.002 . S
O24 Fe22 1.918 . S
O24 Fe23 1.918 . S
O24 Fe25 1.918 . S
Fe25 O24 1.918 . S
Fe25 O26 2.002 . S
Fe25 O35 1.976 . S
Fe25 O39 1.996 . S
Fe25 O42 1.997 . S
O26 Fe25 2.002 . S
O26 C43 1.295 . S
O27 Fe22 1.997 . S
O27 C43 1.235 . S
O28 Fe22 2.002 . S
O28 C29 1.295 . S
C29 O28 1.295 . S
C29 O31 1.235 . S
C30 O35 1.287 . S
C30 O36 1.255 . S
O31 Fe23 1.997 . S
O31 C29 1.235 . S
C32 O38 1.287 . S
C32 O39 1.255 . S
O33 Fe22 1.976 . S
O33 C40 1.287 . S
O34 Fe23 1.996 . S
O34 C40 1.255 . S
O35 Fe25 1.976 . S
O35 C30 1.287 . S
O36 Fe22 1.996 . S
O36 C30 1.255 . S
C37 O41 1.295 . S
C37 O42 1.235 . S
O38 Fe23 1.976 . S
O38 C32 1.287 . S
O39 Fe25 1.996 . S
O39 C32 1.255 . S
C40 O33 1.287 . S
C40 O34 1.255 . S
O41 Fe23 2.002 . S
O41 C37 1.295 . S
O42 Fe25 1.997 . S
O42 C37 1.235 . S
C43 O26 1.295 . S
C43 O27 1.235 . S
Fe44 O46 1.918 . S
Fe44 O49 1.997 . S
Fe44 O50 2.002 1_554 S
Fe44 O55 1.976 . S
Fe44 O58 1.996 . S
Fe45 O46 1.918 . S
Fe45 O53 1.997 1_554 S
Fe45 O56 1.996 . S
Fe45 O60 1.976 . S
Fe45 O63 2.002 . S
O46 Fe44 1.918 . S
O46 Fe45 1.918 . S
O46 Fe47 1.918 . S
Fe47 O46 1.918 . S
Fe47 O48 2.002 . S
Fe47 O57 1.976 . S
Fe47 O61 1.996 . S
Fe47 O64 1.997 . S
O48 Fe47 2.002 . S
O48 C65 1.287 1_554 S
O49 Fe44 1.997 . S
O49 C65 1.232 1_554 S
O50 Fe44 2.002 1_556 S
O50 C51 1.295 . S
C51 O50 1.295 . S
C51 O53 1.235 . S
C52 O57 1.287 . S
C52 O58 1.255 . S
O53 Fe45 1.997 1_556 S
O53 C51 1.235 . S
C54 O60 1.287 . S
C54 O61 1.255 . S
O55 Fe44 1.976 . S
O55 C62 1.287 . S
O56 Fe45 1.996 . S
O56 C62 1.255 . S
O57 Fe47 1.976 . S
O57 C52 1.287 . S
O58 Fe44 1.996 . S
O58 C52 1.255 . S
C59 O63 1.295 . S
C59 O64 1.235 . S
O60 Fe45 1.976 . S
O60 C54 1.287 . S
O61 Fe47 1.996 . S
O61 C54 1.255 . S
C62 O55 1.287 . S
C62 O56 1.255 . S
O63 Fe45 2.002 . S
O63 C59 1.295 . S
O64 Fe47 1.997 . S
O64 C59 1.235 . S
C65 O48 1.287 1_556 S
C65 O49 1.232 1_556 S
Fe66 O68 1.918 . S
Fe66 O71 1.997 . S
Fe66 O72 2.002 . S
Fe66 O77 1.976 . S
Fe66 O80 1.996 . S
Fe67 O68 1.918 . S
Fe67 O75 1.997 . S
Fe67 O78 1.996 . S
Fe67 O82 1.976 . S
Fe67 O85 2.002 . S
O68 Fe66 1.918 . S
O68 Fe67 1.918 . S
O68 Fe69 1.918 . S
Fe69 O68 1.918 . S
Fe69 O70 2.002 . S
Fe69 O79 1.976 . S
Fe69 O83 1.996 . S
Fe69 O86 1.997 . S
O70 Fe69 2.002 . S
O70 C87 1.295 . S
O71 Fe66 1.997 . S
O71 C87 1.235 . S
O72 Fe66 2.002 . S
O72 C73 1.295 . S
C73 O72 1.295 . S
C73 O75 1.235 . S
C74 O79 1.287 . S
C74 O80 1.255 . S
O75 Fe67 1.997 . S
O75 C73 1.235 . S
C76 O82 1.287 . S
C76 O83 1.255 . S
O77 Fe66 1.976 . S
O77 C84 1.287 . S
O78 Fe67 1.996 . S
O78 C84 1.255 . S
O79 Fe69 1.976 . S
O79 C74 1.287 . S
O80 Fe66 1.996 . S
O80 C74 1.255 . S
C81 O85 1.295 . S
C81 O86 1.235 . S
O82 Fe67 1.976 . S
O82 C76 1.287 . S
O83 Fe69 1.996 . S
O83 C76 1.255 . S
C84 O77 1.287 . S
C84 O78 1.255 . S
O85 Fe67 2.002 . S
O85 C81 1.295 . S
O86 Fe69 1.997 . S
O86 C81 1.235 . S
C87 O70 1.295 . S
C87 O71 1.235 . S
H88 C93 0.930 . S
H89 C96 0.930 . S
H90 C98 0.930 . S
H91 C92 1.016 . S
C92 H91 1.016 . S
C92 N99 1.286 . S
C93 H88 0.930 . S
C93 C94 1.397 . S
C93 C95 1.361 . S
C94 C93 1.397 . S
C94 C98 1.390 . S
C95 C93 1.361 . S
C95 C96 1.393 . S
C95 N99 1.413 . S
C96 H89 0.930 . S
C96 C95 1.393 . S
C96 C97 1.399 . S
C97 C96 1.399 . S
C97 C98 1.381 . S
C98 H90 0.930 . S
C98 C94 1.390 . S
C98 C97 1.381 . S
N99 C92 1.286 . S
N99 C95 1.413 . S
H100 C105 0.930 . S
H101 C108 0.930 . S
H102 C110 0.930 . S
H103 C104 1.016 . S
C104 H103 1.016 . S
C104 N111 1.286 . S
C105 H100 0.930 . S
C105 C106 1.397 . S
C105 C107 1.361 . S
C106 C105 1.397 . S
C106 C110 1.390 . S
C107 C105 1.361 . S
C107 C108 1.393 . S
C107 N111 1.413 . S
C108 H101 0.930 . S
C108 C107 1.393 . S
C108 C109 1.399 . S
C109 C108 1.399 . S
C109 C110 1.381 . S
C110 H102 0.930 . S
C110 C106 1.390 . S
C110 C109 1.381 . S
N111 C104 1.286 . S
N111 C107 1.413 . S
H112 C117 0.930 . S
H113 C120 0.930 . S
H114 C122 0.930 . S
H115 C116 1.016 . S
C116 H115 1.016 . S
C116 N123 1.286 . S
C117 H112 0.930 . S
C117 C118 1.397 . S
C117 C119 1.361 . S
C118 C117 1.397 . S
C118 C122 1.390 . S
C119 C117 1.361 . S
C119 C120 1.393 . S
C119 N123 1.413 . S
C120 H113 0.930 . S
C120 C119 1.393 . S
C120 C121 1.399 . S
C121 C120 1.399 . S
C121 C122 1.381 . S
C122 H114 0.930 . S
C122 C118 1.390 . S
C122 C121 1.381 . S
N123 C116 1.286 . S
N123 C119 1.413 . S
H124 C129 0.930 . S
H125 C132 0.930 . S
H126 C134 0.930 . S
H127 C128 1.016 . S
C128 H127 1.016 . S
C128 N135 1.286 . S
C129 H124 0.930 . S
C129 C130 1.397 . S
C129 C131 1.361 . S
C130 C129 1.397 . S
C130 C134 1.390 . S
C131 C129 1.361 . S
C131 C132 1.393 . S
C131 N135 1.413 . S
C132 H125 0.930 . S
C132 C131 1.393 . S
C132 C133 1.399 . S
C133 C132 1.399 . S
C133 C134 1.381 . S
C134 H126 0.930 . S
C134 C130 1.390 . S
C134 C133 1.381 . S
N135 C128 1.286 . S
N135 C131 1.413 . S
H136 C141 0.930 . S
H137 C144 0.930 . S
H138 C146 0.930 . S
H139 C140 1.016 . S
C140 H139 1.016 . S
C140 N147 1.286 . S
C141 H136 0.930 . S
C141 C142 1.397 . S
C141 C143 1.361 . S
C142 C141 1.397 . S
C142 C146 1.390 . S
C143 C141 1.361 . S
C143 C144 1.393 . S
C143 N147 1.413 . S
C144 H137 0.930 . S
C144 C143 1.393 . S
C144 C145 1.399 . S
C145 C144 1.399 . S
C145 C146 1.381 . S
C146 H138 0.930 . S
C146 C142 1.390 . S
C146 C145 1.381 . S
N147 C140 1.286 . S
N147 C143 1.413 . S
H148 C153 0.930 . S
H149 C156 0.930 . S
H150 C158 0.930 . S
H151 C152 1.016 . S
C152 H151 1.016 . S
C152 N159 1.286 . S
C153 H148 0.930 . S
C153 C154 1.397 . S
C153 C155 1.361 . S
C154 C153 1.397 . S
C154 C158 1.390 . S
C155 C153 1.361 . S
C155 C156 1.393 . S
C155 N159 1.413 . S
C156 H149 0.930 . S
C156 C155 1.393 . S
C156 C157 1.399 . S
C157 C156 1.399 . S
C157 C158 1.381 . S
C158 H150 0.930 . S
C158 C154 1.390 . S
C158 C157 1.381 . S
N159 C152 1.286 . S
N159 C155 1.413 . S
H160 C165 0.930 . S
H161 C168 0.930 . S
H162 C170 0.930 . S
H163 C164 1.016 . S
C164 H163 1.016 . S
C164 N171 1.286 . S
C165 H160 0.930 . S
C165 C166 1.397 . S
C165 C167 1.361 . S
C166 C165 1.397 . S
C166 C170 1.390 . S
C167 C165 1.361 . S
C167 C168 1.393 . S
C167 N171 1.413 . S
C168 H161 0.930 . S
C168 C167 1.393 . S
C168 C169 1.399 . S
C169 C168 1.399 . S
C169 C170 1.381 . S
C170 H162 0.930 . S
C170 C166 1.390 . S
C170 C169 1.381 . S
N171 C164 1.286 . S
N171 C167 1.413 . S
H172 C177 0.930 . S
H173 C180 0.930 . S
H174 C182 0.930 . S
H175 C176 1.016 . S
C176 H175 1.016 . S
C176 N183 1.286 . S
C177 H172 0.930 . S
C177 C178 1.397 . S
C177 C179 1.361 . S
C178 C177 1.397 . S
C178 C182 1.390 . S
C179 C177 1.361 . S
C179 C180 1.393 . S
C179 N183 1.413 . S
C180 H173 0.930 . S
C180 C179 1.393 . S
C180 C181 1.399 . S
C181 C180 1.399 . S
C181 C182 1.381 . S
C182 H174 0.930 . S
C182 C178 1.390 . S
C182 C181 1.381 . S
N183 C176 1.286 . S
N183 C179 1.413 . S
H184 C192 0.950 . S
H185 C197 0.950 . S
H186 C194 0.950 . S
H187 C196 0.955 . S
H188 C198 0.950 . S
H189 C200 0.950 . S
H190 C202 0.950 . S
H191 C203 0.950 . S
C192 H184 0.950 . S
C192 C193 1.386 . S
C192 C194 1.391 1_565 S
C193 C192 1.386 . S
C193 C197 1.393 . S
C194 H186 0.950 . S
C194 C192 1.391 1_545 S
C194 C195 1.400 . S
C195 C194 1.400 . S
C195 C196 1.409 . S
C195 C201 1.491 . S
C196 H187 0.955 . S
C196 C195 1.409 . S
C196 C197 1.375 1_545 S
C197 H185 0.950 . S
C197 C193 1.393 . S
C197 C196 1.375 1_565 S
C198 H188 0.950 . S
C198 C199 1.386 . S
C198 C200 1.391 . S
C199 C198 1.386 . S
C199 C203 1.393 . S
C200 H189 0.950 . S
C200 C198 1.391 . S
C200 C201 1.400 . S
C201 C195 1.491 . S
C201 C200 1.400 . S
C201 C202 1.398 . S
C202 H190 0.950 . S
C202 C201 1.398 . S
C202 C203 1.391 . S
C203 H191 0.950 . S
C203 C199 1.393 . S
C203 C202 1.391 . S
H204 C212 0.950 . S
H205 C217 0.950 . S
H206 C214 0.950 . S
H207 C216 0.950 . S
H208 C218 0.950 . S
H209 C220 0.950 . S
H210 C222 0.950 . S
H211 C223 0.950 . S
C212 H204 0.950 . S
C212 C213 1.386 . S
C212 C214 1.391 . S
C213 C212 1.386 . S
C213 C217 1.393 . S
C214 H206 0.950 . S
C214 C212 1.391 . S
C214 C215 1.400 . S
C215 C214 1.400 . S
C215 C216 1.398 . S
C215 C221 1.491 . S
C216 H207 0.950 . S
C216 C215 1.398 . S
C216 C217 1.391 . S
C217 H205 0.950 . S
C217 C213 1.393 . S
C217 C216 1.391 . S
C218 H208 0.950 . S
C218 C219 1.386 . S
C218 C220 1.391 . S
C219 C218 1.386 . S
C219 C223 1.393 . S
C220 H209 0.950 . S
C220 C218 1.391 . S
C220 C221 1.400 . S
C221 C215 1.491 . S
C221 C220 1.400 . S
C221 C222 1.398 . S
C222 H210 0.950 . S
C222 C221 1.398 . S
C222 C223 1.391 . S
C223 H211 0.950 . S
C223 C219 1.393 . S
C223 C222 1.391 . S
H224 C232 0.950 . S
H225 C237 0.950 . S
H226 C234 0.950 . S
H227 C236 0.950 . S
H228 C238 0.950 . S
H229 C240 0.950 . S
H230 C242 0.950 . S
H231 C243 0.950 . S
C232 H224 0.950 . S
C232 C233 1.386 . S
C232 C234 1.391 . S
C233 C232 1.386 . S
C233 C237 1.393 . S
C234 H226 0.950 . S
C234 C232 1.391 . S
C234 C235 1.400 1_545 S
C235 C234 1.400 1_565 S
C235 C236 1.398 . S
C235 C241 1.491 . S
C236 H227 0.950 . S
C236 C235 1.398 . S
C236 C237 1.391 1_565 S
C237 H225 0.950 . S
C237 C233 1.393 . S
C237 C236 1.391 1_545 S
C238 H228 0.950 . S
C238 C239 1.386 . S
C238 C240 1.391 . S
C239 C238 1.386 . S
C239 C243 1.393 . S
C240 H229 0.950 . S
C240 C238 1.391 . S
C240 C241 1.400 . S
C241 C235 1.491 . S
C241 C240 1.400 . S
C241 C242 1.398 . S
C242 H230 0.950 . S
C242 C241 1.398 . S
C242 C243 1.391 . S
C243 H231 0.950 . S
C243 C239 1.393 . S
C243 C242 1.391 . S
H244 C252 0.950 . S
H245 C257 0.950 . S
H246 C254 0.950 . S
H247 C256 0.950 . S
H248 C258 0.950 . S
H249 C260 0.950 . S
H250 C262 0.950 . S
H251 C263 0.950 . S
C252 H244 0.950 . S
C252 C253 1.386 . S
C252 C254 1.391 . S
C253 C252 1.386 . S
C253 C257 1.393 . S
C254 H246 0.950 . S
C254 C252 1.391 . S
C254 C255 1.400 . S
C255 C254 1.400 . S
C255 C256 1.398 . S
C255 C261 1.491 . S
C256 H247 0.950 . S
C256 C255 1.398 . S
C256 C257 1.391 . S
C257 H245 0.950 . S
C257 C253 1.393 . S
C257 C256 1.391 . S
C258 H248 0.950 . S
C258 C259 1.386 . S
C258 C260 1.391 . S
C259 C258 1.386 . S
C259 C263 1.393 . S
C260 H249 0.950 . S
C260 C258 1.391 . S
C260 C261 1.400 . S
C261 C255 1.491 . S
C261 C260 1.400 . S
C261 C262 1.398 . S
C262 H250 0.950 . S
C262 C261 1.398 . S
C262 C263 1.391 . S
C263 H251 0.950 . S
C263 C259 1.393 . S
C263 C262 1.391 . S
H264 C272 0.950 . S
H265 C277 0.950 . S
H266 C274 0.950 . S
H267 C276 0.950 . S
H268 C278 0.950 . S
H269 C280 0.950 . S
H270 C282 0.950 . S
H271 C283 0.950 . S
C272 H264 0.950 . S
C272 C273 1.386 . S
C272 C274 1.391 . S
C273 C272 1.386 . S
C273 C277 1.393 . S
C274 H266 0.950 . S
C274 C272 1.391 . S
C274 C275 1.400 . S
C275 C274 1.400 . S
C275 C276 1.398 . S
C275 C281 1.491 . S
C276 H267 0.950 . S
C276 C275 1.398 . S
C276 C277 1.391 . S
C277 H265 0.950 . S
C277 C273 1.393 . S
C277 C276 1.391 . S
C278 H268 0.950 . S
C278 C279 1.386 . S
C278 C280 1.391 . S
C279 C278 1.386 . S
C279 C283 1.393 . S
C280 H269 0.950 . S
C280 C278 1.391 . S
C280 C281 1.400 . S
C281 C275 1.491 . S
C281 C280 1.400 . S
C281 C282 1.398 . S
C282 H270 0.950 . S
C282 C281 1.398 . S
C282 C283 1.391 . S
C283 H271 0.950 . S
C283 C279 1.393 . S
C283 C282 1.391 . S
H284 C292 0.950 . S
H285 C297 0.950 . S
H286 C294 0.930 1_455 S
H287 C296 0.950 . S
H288 C298 0.950 . S
H289 C300 0.950 . S
H290 C302 0.950 . S
H291 C303 0.950 . S
C292 H284 0.950 . S
C292 C293 1.386 . S
C292 C294 1.391 . S
C293 C292 1.386 . S
C293 C297 1.393 . S
C294 H286 0.930 1_655 S
C294 C292 1.391 . S
C294 C295 1.400 . S
C295 C294 1.400 . S
C295 C296 1.398 . S
C295 C301 1.491 . S
C296 H287 0.950 . S
C296 C295 1.398 . S
C296 C297 1.391 . S
C297 H285 0.950 . S
C297 C293 1.393 . S
C297 C296 1.391 . S
C298 H288 0.950 . S
C298 C299 1.386 . S
C298 C300 1.391 1_455 S
C299 C298 1.386 . S
C299 C303 1.393 . S
C300 H289 0.950 . S
C300 C298 1.391 1_655 S
C300 C301 1.400 . S
C301 C295 1.491 . S
C301 C300 1.400 . S
C301 C302 1.398 1_655 S
C302 H290 0.950 . S
C302 C301 1.398 1_455 S
C302 C303 1.391 . S
C303 H291 0.950 . S
C303 C299 1.393 . S
C303 C302 1.391 . S
H304 C312 0.950 . S
H305 C317 0.950 . S
H306 C314 0.950 . S
H307 C316 0.950 . S
H308 C318 0.950 . S
H309 C320 0.950 . S
H310 C322 0.950 . S
H311 C323 0.950 . S
C312 H304 0.950 . S
C312 C313 1.386 . S
C312 C314 1.391 . S
C313 C312 1.386 . S
C313 C317 1.393 . S
C314 H306 0.950 . S
C314 C312 1.391 . S
C314 C315 1.400 . S
C315 C314 1.400 . S
C315 C316 1.398 . S
C315 C321 1.491 . S
C316 H307 0.950 . S
C316 C315 1.398 . S
C316 C317 1.391 . S
C317 H305 0.950 . S
C317 C313 1.393 . S
C317 C316 1.391 . S
C318 H308 0.950 . S
C318 C319 1.386 . S
C318 C320 1.391 . S
C319 C318 1.386 . S
C319 C323 1.393 . S
C320 H309 0.950 . S
C320 C318 1.391 . S
C320 C321 1.400 . S
C321 C315 1.491 . S
C321 C320 1.400 . S
C321 C322 1.398 . S
C322 H310 0.950 . S
C322 C321 1.398 . S
C322 C323 1.391 . S
C323 H311 0.950 . S
C323 C319 1.393 . S
C323 C322 1.391 . S
H324 C332 0.950 . S
H325 C337 0.950 . S
H326 C334 0.950 . S
H327 C336 0.950 . S
H328 C338 0.950 . S
H329 C340 0.950 . S
H330 C342 0.950 . S
H331 C343 0.950 . S
C332 H324 0.950 . S
C332 C333 1.386 . S
C332 C334 1.391 1_455 S
C333 C332 1.386 . S
C333 C337 1.393 . S
C334 H326 0.950 . S
C334 C332 1.391 1_655 S
C334 C335 1.400 . S
C335 C334 1.400 . S
C335 C336 1.398 . S
C335 C341 1.491 . S
C336 H327 0.950 . S
C336 C335 1.398 . S
C336 C337 1.391 1_655 S
C337 H325 0.950 . S
C337 C333 1.393 . S
C337 C336 1.391 1_455 S
C338 H328 0.950 . S
C338 C339 1.386 . S
C338 C340 1.391 . S
C339 C338 1.386 . S
C339 C343 1.393 . S
C340 H329 0.950 . S
C340 C338 1.391 . S
C340 C341 1.400 . S
C341 C335 1.491 . S
C341 C340 1.400 . S
C341 C342 1.398 . S
C342 H330 0.950 . S
C342 C341 1.398 . S
C342 C343 1.391 . S
C343 H331 0.950 . S
C343 C339 1.393 . S
C343 C342 1.391 . S
H344 C352 0.950 . S
H345 C357 0.950 . S
H346 C354 0.950 . S
H347 C356 0.946 1_554 S
H348 C358 0.950 . S
H349 C360 0.950 . S
H350 C362 0.950 . S
H351 C363 0.950 . S
C352 H344 0.950 . S
C352 C353 1.386 . S
C352 C354 1.391 . S
C353 C352 1.386 . S
C353 C357 1.393 1_556 S
C354 H346 0.950 . S
C354 C352 1.391 . S
C354 C355 1.400 1_545 S
C355 C354 1.400 1_565 S
C355 C356 1.398 . S
C355 C361 1.491 . S
C356 H347 0.946 1_556 S
C356 C355 1.398 . S
C356 C357 1.391 1_566 S
C357 H345 0.950 . S
C357 C353 1.393 1_554 S
C357 C356 1.391 1_544 S
C358 H348 0.950 . S
C358 C359 1.386 . S
C358 C360 1.391 . S
C359 C358 1.386 . S
C359 C363 1.393 . S
C360 H349 0.950 . S
C360 C358 1.391 . S
C360 C361 1.400 . S
C361 C355 1.491 . S
C361 C360 1.400 . S
C361 C362 1.398 . S
C362 H350 0.950 . S
C362 C361 1.398 . S
C362 C363 1.391 . S
C363 H351 0.950 . S
C363 C359 1.393 . S
C363 C362 1.391 . S
H364 C372 0.950 . S
H365 C377 0.950 . S
H366 C374 0.950 . S
H367 C376 0.950 . S
H368 C378 0.950 . S
H369 C380 0.950 . S
H370 C382 0.950 . S
H371 C383 0.950 . S
C372 H364 0.950 . S
C372 C373 1.386 . S
C372 C374 1.391 . S
C373 C372 1.386 . S
C373 C377 1.393 . S
C374 H366 0.950 . S
C374 C372 1.391 . S
C374 C375 1.400 . S
C375 C374 1.400 . S
C375 C376 1.398 . S
C375 C381 1.491 . S
C376 H367 0.950 . S
C376 C375 1.398 . S
C376 C377 1.391 . S
C377 H365 0.950 . S
C377 C373 1.393 . S
C377 C376 1.391 . S
C378 H368 0.950 . S
C378 C379 1.386 . S
C378 C380 1.391 . S
C379 C378 1.386 . S
C379 C383 1.393 . S
C380 H369 0.950 . S
C380 C378 1.391 . S
C380 C381 1.400 . S
C381 C375 1.491 . S
C381 C380 1.400 . S
C381 C382 1.398 . S
C382 H370 0.950 . S
C382 C381 1.398 . S
C382 C383 1.391 . S
C383 H371 0.950 . S
C383 C379 1.393 . S
C383 C382 1.391 . S
H384 C392 0.950 . S
H385 C397 0.950 . S
H386 C394 0.950 . S
H387 C396 0.950 . S
H388 C398 0.950 . S
H389 C400 0.950 . S
H390 C402 0.950 . S
H391 C403 0.950 . S
C392 H384 0.950 . S
C392 C393 1.386 . S
C392 C394 1.391 . S
C393 C392 1.386 . S
C393 C397 1.393 . S
C394 H386 0.950 . S
C394 C392 1.391 . S
C394 C395 1.400 1_565 S
C395 C394 1.400 1_545 S
C395 C396 1.398 . S
C395 C401 1.491 . S
C396 H387 0.950 . S
C396 C395 1.398 . S
C396 C397 1.391 1_545 S
C397 H385 0.950 . S
C397 C393 1.393 . S
C397 C396 1.391 1_565 S
C398 H388 0.950 . S
C398 C399 1.386 . S
C398 C400 1.391 . S
C399 C398 1.386 . S
C399 C403 1.393 . S
C400 H389 0.950 . S
C400 C398 1.391 . S
C400 C401 1.400 . S
C401 C395 1.491 . S
C401 C400 1.400 . S
C401 C402 1.398 . S
C402 H390 0.950 . S
C402 C401 1.398 . S
C402 C403 1.391 . S
C403 H391 0.950 . S
C403 C399 1.393 . S
C403 C402 1.391 . S
H404 C412 0.950 . S
H405 C417 0.950 . S
H406 C414 0.950 . S
H407 C416 0.950 . S
H408 C418 0.950 . S
H409 C420 0.950 . S
H410 C422 0.950 . S
H411 C423 0.950 . S
C412 H404 0.950 . S
C412 C413 1.386 . S
C412 C414 1.391 . S
C413 C412 1.386 . S
C413 C417 1.393 . S
C414 H406 0.950 . S
C414 C412 1.391 . S
C414 C415 1.400 . S
C415 C414 1.400 . S
C415 C416 1.398 . S
C415 C421 1.491 . S
C416 H407 0.950 . S
C416 C415 1.398 . S
C416 C417 1.391 . S
C417 H405 0.950 . S
C417 C413 1.393 . S
C417 C416 1.391 . S
C418 H408 0.950 . S
C418 C419 1.386 . S
C418 C420 1.391 . S
C419 C418 1.386 . S
C419 C423 1.393 . S
C420 H409 0.950 . S
C420 C418 1.391 . S
C420 C421 1.400 . S
C421 C415 1.491 . S
C421 C420 1.400 . S
C421 C422 1.398 . S
C422 H410 0.950 . S
C422 C421 1.398 . S
C422 C423 1.391 . S
C423 H411 0.950 . S
C423 C419 1.393 . S
C423 C422 1.391 . S
H424 C432 0.950 . S
H425 C437 0.950 . S
H426 C434 0.950 . S
H427 C436 0.950 . S
H428 C438 0.950 . S
H429 C440 0.950 . S
H430 C442 0.950 . S
H431 C443 0.950 . S
C432 H424 0.950 . S
C432 C433 1.386 . S
C432 C434 1.391 . S
C433 C432 1.386 . S
C433 C437 1.393 . S
C434 H426 0.950 . S
C434 C432 1.391 . S
C434 C435 1.400 . S
C435 C434 1.400 . S
C435 C436 1.398 . S
C435 C441 1.491 . S
C436 H427 0.950 . S
C436 C435 1.398 . S
C436 C437 1.391 . S
C437 H425 0.950 . S
C437 C433 1.393 . S
C437 C436 1.391 . S
C438 H428 0.950 . S
C438 C439 1.386 . S
C438 C440 1.391 . S
C439 C438 1.386 . S
C439 C443 1.393 . S
C440 H429 0.950 . S
C440 C438 1.391 . S
C440 C441 1.400 . S
C441 C435 1.491 . S
C441 C440 1.400 . S
C441 C442 1.398 . S
C442 H430 0.950 . S
C442 C441 1.398 . S
C442 C443 1.391 . S
C443 H431 0.950 . S
C443 C439 1.393 . S
C443 C442 1.391 . S
H444 C452 0.950 . S
H445 C457 0.950 . S
H446 C454 0.950 . S
H447 C456 0.950 . S
H448 C458 0.950 . S
H449 C460 0.950 . S
H450 C462 0.950 . S
H451 C463 0.950 . S
C452 H444 0.950 . S
C452 C453 1.386 . S
C452 C454 1.391 . S
C453 C452 1.386 . S
C453 C457 1.393 . S
C454 H446 0.950 . S
C454 C452 1.391 . S
C454 C455 1.400 . S
C455 C454 1.400 . S
C455 C456 1.398 . S
C455 C461 1.491 . S
C456 H447 0.950 . S
C456 C455 1.398 . S
C456 C457 1.391 . S
C457 H445 0.950 . S
C457 C453 1.393 . S
C457 C456 1.391 . S
C458 H448 0.950 . S
C458 C459 1.386 . S
C458 C460 1.391 . S
C459 C458 1.386 . S
C459 C463 1.393 . S
C460 H449 0.950 . S
C460 C458 1.391 . S
C460 C461 1.400 1_655 S
C461 C455 1.491 . S
C461 C460 1.400 1_455 S
C461 C462 1.398 . S
C462 H450 0.950 . S
C462 C461 1.398 . S
C462 C463 1.391 1_455 S
C463 H451 0.950 . S
C463 C459 1.393 . S
C463 C462 1.391 1_655 S
H464 C472 0.950 . S
H465 C477 0.950 . S
H466 C474 0.950 . S
H467 C476 0.950 . S
H468 C478 0.950 . S
H469 C480 0.950 . S
H470 C482 0.950 . S
H471 C483 0.950 . S
C472 H464 0.950 . S
C472 C473 1.386 . S
C472 C474 1.391 . S
C473 C472 1.386 . S
C473 C477 1.393 . S
C474 H466 0.950 . S
C474 C472 1.391 . S
C474 C475 1.400 . S
C475 C474 1.400 . S
C475 C476 1.398 . S
C475 C481 1.491 . S
C476 H467 0.950 . S
C476 C475 1.398 . S
C476 C477 1.391 . S
C477 H465 0.950 . S
C477 C473 1.393 . S
C477 C476 1.391 . S
C478 H468 0.950 . S
C478 C479 1.386 . S
C478 C480 1.391 . S
C479 C478 1.386 . S
C479 C483 1.393 . S
C480 H469 0.950 . S
C480 C478 1.391 . S
C480 C481 1.400 . S
C481 C475 1.491 . S
C481 C480 1.400 . S
C481 C482 1.398 . S
C482 H470 0.950 . S
C482 C481 1.398 . S
C482 C483 1.391 . S
C483 H471 0.950 . S
C483 C479 1.393 . S
C483 C482 1.391 . S
H484 C492 0.950 . S
H485 C497 0.950 . S
H486 C494 0.950 . S
H487 C496 0.950 . S
H488 C498 0.950 . S
H489 C500 0.950 . S
H490 C502 0.950 . S
H491 C503 0.950 . S
C492 H484 0.950 . S
C492 C493 1.386 . S
C492 C494 1.391 1_655 S
C493 C492 1.386 . S
C493 C497 1.393 . S
C494 H486 0.950 . S
C494 C492 1.391 1_455 S
C494 C495 1.400 . S
C495 C494 1.400 . S
C495 C496 1.398 . S
C495 C501 1.491 . S
C496 H487 0.950 . S
C496 C495 1.398 . S
C496 C497 1.391 1_455 S
C497 H485 0.950 . S
C497 C493 1.393 . S
C497 C496 1.391 1_655 S
C498 H488 0.950 . S
C498 C499 1.386 . S
C498 C500 1.391 . S
C499 C498 1.386 . S
C499 C503 1.393 . S
C500 H489 0.950 . S
C500 C498 1.391 . S
C500 C501 1.400 . S
C501 C495 1.491 . S
C501 C500 1.400 . S
C501 C502 1.398 . S
C502 H490 0.950 . S
C502 C501 1.398 . S
C502 C503 1.391 . S
C503 H491 0.950 . S
C503 C499 1.393 . S
C503 C502 1.391 . S
H504 C512 0.950 . S
H505 C517 0.950 . S
H506 C514 0.950 . S
H507 C516 0.950 . S
H508 C518 0.950 . S
H509 C520 0.950 . S
H510 C522 0.950 . S
H511 C523 0.950 . S
C512 H504 0.950 . S
C512 C513 1.386 . S
C512 C514 1.391 . S
C513 C512 1.386 . S
C513 C517 1.393 . S
C514 H506 0.950 . S
C514 C512 1.391 . S
C514 C515 1.400 . S
C515 C514 1.400 . S
C515 C516 1.398 . S
C515 C521 1.491 . S
C516 H507 0.950 . S
C516 C515 1.398 . S
C516 C517 1.391 . S
C517 H505 0.950 . S
C517 C513 1.393 . S
C517 C516 1.391 . S
C518 H508 0.950 . S
C518 C519 1.386 . S
C518 C520 1.391 . S
C519 C518 1.386 . S
C519 C523 1.393 . S
C520 H509 0.950 . S
C520 C518 1.391 . S
C520 C521 1.400 . S
C521 C515 1.491 . S
C521 C520 1.400 . S
C521 C522 1.398 . S
C522 H510 0.950 . S
C522 C521 1.398 . S
C522 C523 1.391 . S
C523 H511 0.950 . S
C523 C519 1.393 . S
C523 C522 1.391 . S
H524 C532 0.950 . S
H525 C537 0.950 . S
H526 C534 0.950 . S
H527 C536 0.950 . S
H528 C538 0.950 . S
H529 C540 0.950 . S
H530 C542 0.950 . S
H531 C543 0.950 . S
C532 H524 0.950 . S
C532 C533 1.386 . S
C532 C534 1.391 . S
C533 C532 1.386 . S
C533 C537 1.393 . S
C534 H526 0.950 . S
C534 C532 1.391 . S
C534 C535 1.400 . S
C535 C534 1.400 . S
C535 C536 1.398 . S
C535 C541 1.491 . S
C536 H527 0.950 . S
C536 C535 1.398 . S
C536 C537 1.391 . S
C537 H525 0.950 . S
C537 C533 1.393 . S
C537 C536 1.391 . S
C538 H528 0.950 . S
C538 C539 1.386 . S
C538 C540 1.391 . S
C539 C538 1.386 . S
C539 C543 1.393 . S
C540 H529 0.950 . S
C540 C538 1.391 . S
C540 C541 1.400 . S
C541 C535 1.491 . S
C541 C540 1.400 . S
C541 C542 1.398 . S
C542 H530 0.950 . S
C542 C541 1.398 . S
C542 C543 1.391 . S
C543 H531 0.950 . S
C543 C539 1.393 . S
C543 C542 1.391 . S
H544 C552 0.950 . S
H545 C557 0.950 . S
H546 C554 0.950 . S
H547 C556 0.950 . S
H548 C558 0.950 . S
H549 C560 0.950 . S
H550 C562 0.950 . S
H551 C563 0.950 . S
C552 H544 0.950 . S
C552 C553 1.386 . S
C552 C554 1.391 . S
C553 C552 1.386 . S
C553 C557 1.393 . S
C554 H546 0.950 . S
C554 C552 1.391 . S
C554 C555 1.400 . S
C555 C554 1.400 . S
C555 C556 1.398 . S
C555 C561 1.491 . S
C556 H547 0.950 . S
C556 C555 1.398 . S
C556 C557 1.391 . S
C557 H545 0.950 . S
C557 C553 1.393 . S
C557 C556 1.391 . S
C558 H548 0.950 . S
C558 C559 1.386 . S
C558 C560 1.391 . S
C559 C558 1.386 . S
C559 C563 1.393 . S
C560 H549 0.950 . S
C560 C558 1.391 . S
C560 C561 1.400 . S
C561 C555 1.491 . S
C561 C560 1.400 . S
C561 C562 1.398 . S
C562 H550 0.950 . S
C562 C561 1.398 . S
C562 C563 1.391 . S
C563 H551 0.950 . S
C563 C559 1.393 . S
C563 C562 1.391 . S
H564 C572 0.950 . S
H565 C577 0.950 . S
H566 C574 0.950 . S
H567 C576 0.950 . S
H568 C578 0.950 . S
H569 C580 0.950 . S
H570 C582 0.950 . S
H571 C583 0.950 . S
C572 H564 0.950 . S
C572 C573 1.386 . S
C572 C574 1.391 . S
C573 C572 1.386 . S
C573 C577 1.393 . S
C574 H566 0.950 . S
C574 C572 1.391 . S
C574 C575 1.400 . S
C575 C574 1.400 . S
C575 C576 1.398 . S
C575 C581 1.491 . S
C576 H567 0.950 . S
C576 C575 1.398 . S
C576 C577 1.391 . S
C577 H565 0.950 . S
C577 C573 1.393 . S
C577 C576 1.391 . S
C578 H568 0.950 . S
C578 C579 1.386 . S
C578 C580 1.391 . S
C579 C578 1.386 . S
C579 C583 1.393 . S
C580 H569 0.950 . S
C580 C578 1.391 . S
C580 C581 1.400 . S
C581 C575 1.491 . S
C581 C580 1.400 . S
C581 C582 1.398 . S
C582 H570 0.950 . S
C582 C581 1.398 . S
C582 C583 1.391 . S
C583 H571 0.950 . S
C583 C579 1.393 . S
C583 C582 1.391 . S
H584 C592 0.950 . S
H585 C597 0.950 . S
H586 C594 0.950 . S
H587 C596 0.950 . S
H588 C598 0.950 . S
H589 C600 0.950 . S
H590 C602 0.950 . S
H591 C603 0.950 . S
C592 H584 0.950 . S
C592 C593 1.386 . S
C592 C594 1.391 . S
C593 C592 1.386 . S
C593 C597 1.393 . S
C594 H586 0.950 . S
C594 C592 1.391 . S
C594 C595 1.400 . S
C595 C594 1.400 . S
C595 C596 1.398 . S
C595 C601 1.491 . S
C596 H587 0.950 . S
C596 C595 1.398 . S
C596 C597 1.391 . S
C597 H585 0.950 . S
C597 C593 1.393 . S
C597 C596 1.391 . S
C598 H588 0.950 . S
C598 C599 1.386 . S
C598 C600 1.391 . S
C599 C598 1.386 . S
C599 C603 1.393 . S
C600 H589 0.950 . S
C600 C598 1.391 . S
C600 C601 1.400 . S
C601 C595 1.491 . S
C601 C600 1.400 . S
C601 C602 1.398 . S
C602 H590 0.950 . S
C602 C601 1.398 . S
C602 C603 1.391 . S
C603 H591 0.950 . S
C603 C599 1.393 . S
C603 C602 1.391 . S
H604 C612 0.950 1_554 S
H605 C617 0.950 . S
H606 C614 0.950 . S
H607 C616 0.950 . S
H608 C618 0.950 . S
H609 C620 0.950 . S
H610 C622 0.950 . S
H611 C623 0.950 . S
C612 H604 0.950 1_556 S
C612 C613 1.386 . S
C612 C614 1.391 . S
C613 C612 1.386 . S
C613 C617 1.393 . S
C614 H606 0.950 . S
C614 C612 1.391 . S
C614 C615 1.400 . S
C615 C614 1.400 . S
C615 C616 1.398 . S
C615 C621 1.491 . S
C616 H607 0.950 . S
C616 C615 1.398 . S
C616 C617 1.391 . S
C617 H605 0.950 . S
C617 C613 1.393 . S
C617 C616 1.391 . S
C618 H608 0.950 . S
C618 C619 1.386 . S
C618 C620 1.391 . S
C619 C618 1.386 . S
C619 C623 1.393 . S
C620 H609 0.950 . S
C620 C618 1.391 . S
C620 C621 1.400 . S
C621 C615 1.491 . S
C621 C620 1.400 . S
C621 C622 1.398 . S
C622 H610 0.950 . S
C622 C621 1.398 . S
C622 C623 1.391 . S
C623 H611 0.950 . S
C623 C619 1.393 . S
C623 C622 1.391 . S
H624 C632 0.950 . S
H625 C637 0.950 . S
H626 C634 0.950 . S
H627 C636 0.950 . S
H628 C638 0.950 . S
H629 C640 0.950 . S
H630 C642 0.950 . S
H631 C643 0.950 . S
C632 H624 0.950 . S
C632 C633 1.386 . S
C632 C634 1.391 . S
C633 C632 1.386 . S
C633 C637 1.393 . S
C634 H626 0.950 . S
C634 C632 1.391 . S
C634 C635 1.400 . S
C635 C634 1.400 . S
C635 C636 1.398 . S
C635 C641 1.491 . S
C636 H627 0.950 . S
C636 C635 1.398 . S
C636 C637 1.391 . S
C637 H625 0.950 . S
C637 C633 1.393 . S
C637 C636 1.391 . S
C638 H628 0.950 . S
C638 C639 1.386 . S
C638 C640 1.391 . S
C639 C638 1.386 . S
C639 C643 1.393 . S
C640 H629 0.950 . S
C640 C638 1.391 . S
C640 C641 1.400 . S
C641 C635 1.491 . S
C641 C640 1.400 . S
C641 C642 1.398 . S
C642 H630 0.950 . S
C642 C641 1.398 . S
C642 C643 1.391 . S
C643 H631 0.950 . S
C643 C639 1.393 . S
C643 C642 1.391 . S
H644 C652 0.950 . S
H645 C657 0.950 . S
H646 C654 0.950 . S
H647 C656 0.950 . S
H648 C658 0.950 . S
H649 C660 0.950 . S
H650 C662 0.950 . S
H651 C663 0.950 . S
C652 H644 0.950 . S
C652 C653 1.386 . S
C652 C654 1.391 . S
C653 C652 1.386 . S
C653 C657 1.393 . S
C654 H646 0.950 . S
C654 C652 1.391 . S
C654 C655 1.400 . S
C655 C654 1.400 . S
C655 C656 1.398 . S
C655 C661 1.491 . S
C656 H647 0.950 . S
C656 C655 1.398 . S
C656 C657 1.391 . S
C657 H645 0.950 . S
C657 C653 1.393 . S
C657 C656 1.391 . S
C658 H648 0.950 . S
C658 C659 1.386 . S
C658 C660 1.391 . S
C659 C658 1.386 . S
C659 C663 1.393 . S
C660 H649 0.950 . S
C660 C658 1.391 . S
C660 C661 1.400 . S
C661 C655 1.491 . S
C661 C660 1.400 . S
C661 C662 1.398 . S
C662 H650 0.950 . S
C662 C661 1.398 . S
C662 C663 1.391 . S
C663 H651 0.950 . S
C663 C659 1.393 . S
C663 C662 1.391 . S
C193 C7 1.385 . S
C199 C97 1.348 . S
C213 C37 1.423 . S
C219 C109 1.390 . S
C233 C54 1.359 . S
C239 C121 1.309 . S
C259 C130 1.264 . S
C253 C87 1.308 . S
C279 C145 1.295 . S
C273 C30 1.367 . S
C293 C51 1.311 . S
C299 C154 1.277 . S
C313 C84 1.361 . S
C319 C169 1.335 . S
C333 C10 1.435 . S
C339 C181 1.383 . S
C353 C59 1.294 1_556 S
C359 C178 1.299 . S
C379 C142 1.255 . S
C373 C74 1.277 . S
C399 C157 1.336 . S
C393 C18 1.355 . S
C413 C32 1.290 . S
C419 C166 1.221 . S
C439 C106 1.246 . S
C433 C73 1.254 . S
C453 C15 1.309 . S
C459 C118 1.288 . S
C479 C133 1.356 . S
C473 C43 1.394 . S
C499 C94 1.265 . S
C493 C62 1.256 . S
C519 C164 1.370 . S
C513 C21 1.369 . S
C539 C176 1.402 . S
C533 C29 1.428 . S
C553 C52 1.378 . S
C559 C140 1.360 . S
C579 C152 1.357 . S
C573 C81 1.385 . S
C599 C116 1.375 . S
C593 C40 1.392 . S
C613 C65 1.398 . S
C619 C128 1.377 . S
C639 C92 1.384 . S
C633 C76 1.391 . S
C659 C104 1.375 . S
C653 C8 1.397 . S
