# Generated by pormake.
# Topology ctn, (3,4)-cn, num edge types: 1
# Building blocks:
#     Node 0, Type 0, BuildingBlock: BELTOD_clean_linker_0, # of connection points: 3
#     Node 1, Type 0, BuildingBlock: BELTOD_clean_linker_0, # of connection points: 3
#     Node 2, Type 0, BuildingBlock: BELTOD_clean_linker_0, # of connection points: 3
#     Node 3, Type 0, BuildingBlock: BELTOD_clean_linker_0, # of connection points: 3
#     Node 4, Type 0, BuildingBlock: BELTOD_clean_linker_0, # of connection points: 3
#     Node 5, Type 0, BuildingBlock: BELTOD_clean_linker_0, # of connection points: 3
#     Node 6, Type 0, BuildingBlock: BELTOD_clean_linker_0, # of connection points: 3
#     Node 7, Type 0, BuildingBlock: BELTOD_clean_linker_0, # of connection points: 3
#     Node 8, Type 0, BuildingBlock: BELTOD_clean_linker_0, # of connection points: 3
#     Node 9, Type 0, BuildingBlock: BELTOD_clean_linker_0, # of connection points: 3
#     Node 10, Type 0, BuildingBlock: BELTOD_clean_linker_0, # of connection points: 3
#     Node 11, Type 0, BuildingBlock: BELTOD_clean_linker_0, # of connection points: 3
#     Node 12, Type 0, BuildingBlock: BELTOD_clean_linker_0, # of connection points: 3
#     Node 13, Type 0, BuildingBlock: BELTOD_clean_linker_0, # of connection points: 3
#     Node 14, Type 0, BuildingBlock: BELTOD_clean_linker_0, # of connection points: 3
#     Node 15, Type 0, BuildingBlock: BELTOD_clean_linker_0, # of connection points: 3
#     Node 16, Type 1, BuildingBlock: TATPOV_clean_sbu_0, # of connection points: 4
#     Node 17, Type 1, BuildingBlock: TATPOV_clean_sbu_0, # of connection points: 4
#     Node 18, Type 1, BuildingBlock: TATPOV_clean_sbu_0, # of connection points: 4
#     Node 19, Type 1, BuildingBlock: TATPOV_clean_sbu_0, # of connection points: 4
#     Node 20, Type 1, BuildingBlock: TATPOV_clean_sbu_0, # of connection points: 4
#     Node 21, Type 1, BuildingBlock: TATPOV_clean_sbu_0, # of connection points: 4
#     Node 22, Type 1, BuildingBlock: TATPOV_clean_sbu_0, # of connection points: 4
#     Node 23, Type 1, BuildingBlock: TATPOV_clean_sbu_0, # of connection points: 4
#     Node 24, Type 1, BuildingBlock: TATPOV_clean_sbu_0, # of connection points: 4
#     Node 25, Type 1, BuildingBlock: TATPOV_clean_sbu_0, # of connection points: 4
#     Node 26, Type 1, BuildingBlock: TATPOV_clean_sbu_0, # of connection points: 4
#     Node 27, Type 1, BuildingBlock: TATPOV_clean_sbu_0, # of connection points: 4
#     Edge 28, Type (0, 1), BuildingBlock: EZIPEK_clean_linker_0, # of connection points: 2
#     Edge 29, Type (0, 1), BuildingBlock: EZIPEK_clean_linker_0, # of connection points: 2
#     Edge 30, Type (0, 1), BuildingBlock: EZIPEK_clean_linker_0, # of connection points: 2
#     Edge 31, Type (0, 1), BuildingBlock: EZIPEK_clean_linker_0, # of connection points: 2
#     Edge 32, Type (0, 1), BuildingBlock: EZIPEK_clean_linker_0, # of connection points: 2
#     Edge 33, Type (0, 1), BuildingBlock: EZIPEK_clean_linker_0, # of connection points: 2
#     Edge 34, Type (0, 1), BuildingBlock: EZIPEK_clean_linker_0, # of connection points: 2
#     Edge 35, Type (0, 1), BuildingBlock: EZIPEK_clean_linker_0, # of connection points: 2
#     Edge 36, Type (0, 1), BuildingBlock: EZIPEK_clean_linker_0, # of connection points: 2
#     Edge 37, Type (0, 1), BuildingBlock: EZIPEK_clean_linker_0, # of connection points: 2
#     Edge 38, Type (0, 1), BuildingBlock: EZIPEK_clean_linker_0, # of connection points: 2
#     Edge 39, Type (0, 1), BuildingBlock: EZIPEK_clean_linker_0, # of connection points: 2
#     Edge 40, Type (0, 1), BuildingBlock: EZIPEK_clean_linker_0, # of connection points: 2
#     Edge 41, Type (0, 1), BuildingBlock: EZIPEK_clean_linker_0, # of connection points: 2
#     Edge 42, Type (0, 1), BuildingBlock: EZIPEK_clean_linker_0, # of connection points: 2
#     Edge 43, Type (0, 1), BuildingBlock: EZIPEK_clean_linker_0, # of connection points: 2
#     Edge 44, Type (0, 1), BuildingBlock: EZIPEK_clean_linker_0, # of connection points: 2
#     Edge 45, Type (0, 1), BuildingBlock: EZIPEK_clean_linker_0, # of connection points: 2
#     Edge 46, Type (0, 1), BuildingBlock: EZIPEK_clean_linker_0, # of connection points: 2
#     Edge 47, Type (0, 1), BuildingBlock: EZIPEK_clean_linker_0, # of connection points: 2
#     Edge 48, Type (0, 1), BuildingBlock: EZIPEK_clean_linker_0, # of connection points: 2
#     Edge 49, Type (0, 1), BuildingBlock: EZIPEK_clean_linker_0, # of connection points: 2
#     Edge 50, Type (0, 1), BuildingBlock: EZIPEK_clean_linker_0, # of connection points: 2
#     Edge 51, Type (0, 1), BuildingBlock: EZIPEK_clean_linker_0, # of connection points: 2
#     Edge 52, Type (0, 1), BuildingBlock: EZIPEK_clean_linker_0, # of connection points: 2
#     Edge 53, Type (0, 1), BuildingBlock: EZIPEK_clean_linker_0, # of connection points: 2
#     Edge 54, Type (0, 1), BuildingBlock: EZIPEK_clean_linker_0, # of connection points: 2
#     Edge 55, Type (0, 1), BuildingBlock: EZIPEK_clean_linker_0, # of connection points: 2
#     Edge 56, Type (0, 1), BuildingBlock: EZIPEK_clean_linker_0, # of connection points: 2
#     Edge 57, Type (0, 1), BuildingBlock: EZIPEK_clean_linker_0, # of connection points: 2
#     Edge 58, Type (0, 1), BuildingBlock: EZIPEK_clean_linker_0, # of connection points: 2
#     Edge 59, Type (0, 1), BuildingBlock: EZIPEK_clean_linker_0, # of connection points: 2
#     Edge 60, Type (0, 1), BuildingBlock: EZIPEK_clean_linker_0, # of connection points: 2
#     Edge 61, Type (0, 1), BuildingBlock: EZIPEK_clean_linker_0, # of connection points: 2
#     Edge 62, Type (0, 1), BuildingBlock: EZIPEK_clean_linker_0, # of connection points: 2
#     Edge 63, Type (0, 1), BuildingBlock: EZIPEK_clean_linker_0, # of connection points: 2
#     Edge 64, Type (0, 1), BuildingBlock: EZIPEK_clean_linker_0, # of connection points: 2
#     Edge 65, Type (0, 1), BuildingBlock: EZIPEK_clean_linker_0, # of connection points: 2
#     Edge 66, Type (0, 1), BuildingBlock: EZIPEK_clean_linker_0, # of connection points: 2
#     Edge 67, Type (0, 1), BuildingBlock: EZIPEK_clean_linker_0, # of connection points: 2
#     Edge 68, Type (0, 1), BuildingBlock: EZIPEK_clean_linker_0, # of connection points: 2
#     Edge 69, Type (0, 1), BuildingBlock: EZIPEK_clean_linker_0, # of connection points: 2
#     Edge 70, Type (0, 1), BuildingBlock: EZIPEK_clean_linker_0, # of connection points: 2
#     Edge 71, Type (0, 1), BuildingBlock: EZIPEK_clean_linker_0, # of connection points: 2
#     Edge 72, Type (0, 1), BuildingBlock: EZIPEK_clean_linker_0, # of connection points: 2
#     Edge 73, Type (0, 1), BuildingBlock: EZIPEK_clean_linker_0, # of connection points: 2
#     Edge 74, Type (0, 1), BuildingBlock: EZIPEK_clean_linker_0, # of connection points: 2
#     Edge 75, Type (0, 1), BuildingBlock: EZIPEK_clean_linker_0, # of connection points: 2
# Relax obj value: 0.003
# Max RMSD: 0.049
# Mean RMSD: 0.025
data_MOF--net-ctn--node1-TATPOV_clean_sbu_0--node2-BELTOD_clean_linker_0--edge1-EZIPEK_clean_linker_0
_symmetry_space_group_name_H-M    P1
_symmetry_Int_Tables_number       1
_symmetry_cell_setting            triclinic
loop_
_symmetry_equiv_pos_as_xyz
'x, y, z'
_cell_length_a     46.995388
_cell_length_b     47.377691
_cell_length_c     46.899118
_cell_angle_alpha  90.477538
_cell_angle_beta   91.404596
_cell_angle_gamma 92.113713
loop_
_atom_site_label
_atom_site_type_symbol
_atom_site_fract_x
_atom_site_fract_y
_atom_site_fract_z
_atom_type_partial_charge
P0 P 0.05988 0.05074 0.05753 0.0
H1 H 0.05094 0.02914 0.11453 0.0
H2 H 0.0079 0.01906 0.14189 0.0
H3 H 0.95564 0.04117 0.0692 0.0
H4 H 0.99867 0.05121 0.04173 0.0
H5 H 0.11988 0.04059 0.04952 0.0
H6 H 0.14561 0.99803 0.03786 0.0
H7 H 0.06594 0.95022 0.02971 0.0
H8 H 0.04006 0.99288 0.04156 0.0
H9 H 0.04784 0.11029 0.05485 0.0
H10 H 0.05393 0.04098 0.99532 0.0
O11 O 0.08142 0.0691 0.08027 0.0
H12 H 0.03714 0.14203 0.01524 0.0
H13 H 0.04317 0.07288 0.95562 0.0
C14 C 0.02799 0.04137 0.07632 0.0
C15 C 0.03023 0.03172 0.10443 0.0
C16 C 0.00576 0.02595 0.12 0.0
C17 C 0.97871 0.02964 0.10759 0.0
C18 C 0.97639 0.0384 0.07913 0.0
C19 C 0.00093 0.04416 0.06353 0.0
C20 C 0.07814 0.01973 0.04691 0.0
C21 C 0.1079 0.021 0.04519 0.0
C22 C 0.12257 0.99679 0.03852 0.0
C23 C 0.10764 0.97105 0.03316 0.0
C24 C 0.07776 0.96993 0.03393 0.0
C25 C 0.06307 0.9942 0.04071 0.0
C26 C 0.05221 0.07346 0.02794 0.0
C27 C 0.04704 0.10196 0.03326 0.0
C28 C 0.04088 0.12003 0.01074 0.0
C29 C 0.0396 0.10978 0.98259 0.0
C30 C 0.04428 0.08113 0.97724 0.0
C31 C 0.05046 0.06301 -0.00016 0.0
P32 P 0.28018 0.66192 0.20785 0.0
H33 H 0.26572 0.72157 0.2164 0.0
H34 H 0.25392 0.75904 0.18277 0.0
H35 H 0.25991 0.70034 0.11262 0.0
H36 H 0.27103 0.66276 0.14608 0.0
H37 H 0.34118 0.65249 0.21133 0.0
H38 H 0.3796 0.67125 0.24287 0.0
H39 H 0.3192 0.71851 0.28977 0.0
H40 H 0.28025 0.69843 0.259 0.0
H41 H 0.26998 0.60666 0.23219 0.0
H42 H 0.22484 0.68409 0.22472 0.0
O43 O 0.29317 0.63597 0.18829 0.0
H44 H 0.22804 0.58358 0.25312 0.0
H45 H 0.18292 0.6609 0.24603 0.0
C46 C 0.26987 0.68945 0.18376 0.0
C47 C 0.26439 0.71665 0.19385 0.0
C48 C 0.25747 0.738 0.17472 0.0
C49 C 0.25632 0.73244 0.14525 0.0
C50 C 0.26082 0.70503 0.13529 0.0
C51 C 0.26736 0.68366 0.15441 0.0
C52 C 0.30785 0.67428 0.23264 0.0
C53 C 0.33598 0.66649 0.22864 0.0
C54 C 0.35795 0.67715 0.24665 0.0
C55 C 0.35225 0.69634 0.26855 0.0
C56 C 0.324 0.7037 0.27299 0.0
C57 C 0.30188 0.69247 0.2553 0.0
C58 C 0.2503 0.64686 0.22632 0.0
C59 C 0.25117 0.61876 0.23526 0.0
C60 C 0.22734 0.60561 0.24723 0.0
C61 C 0.20246 0.62053 0.25078 0.0
C62 C 0.20199 0.64912 0.24326 0.0
C63 C 0.22587 0.66226 0.23106 0.0
P64 P 0.01572 0.48012 0.04303 0.0
H65 H 0.0344 0.46714 0.98581 0.0
H66 H 0.03024 0.42432 0.95602 0.0
H67 H 0.98833 0.37986 0.02398 0.0
H68 H 0.99247 0.42281 0.05393 0.0
H69 H 0.00438 0.54013 0.04577 0.0
H70 H 0.96146 0.56681 0.03588 0.0
H71 H 0.91438 0.48906 0.01567 0.0
H72 H 0.95693 0.46233 0.02628 0.0
H73 H 0.04997 0.4399 0.07412 0.0
H74 H 0.99409 0.50712 0.09452 0.0
O75 O 0.04367 0.49993 0.0328 0.0
H76 H 0.06121 0.4342 0.12507 0.0
H77 H 0.00583 0.50173 0.14525 0.0
C78 C 0.01431 0.44793 0.02226 0.0
C79 C 0.02467 0.44811 0.99449 0.0
C80 C 0.02225 0.42377 0.97749 0.0
C81 C 0.00913 0.39903 0.98794 0.0
C82 C 0.99869 0.39878 0.01572 0.0
C83 C 0.00116 0.42318 0.03276 0.0
C84 C 0.98399 0.49933 0.03619 0.0
C85 C 0.98482 0.52882 0.03926 0.0
C86 C 0.96039 0.54401 0.03377 0.0
C87 C 0.93491 0.52986 0.02486 0.0
C88 C 0.93392 0.5003 0.02243 0.0
C89 C 0.95825 0.4851 0.02832 0.0
C90 C 0.02072 0.4735 0.08051 0.0
C91 C 0.03968 0.45302 0.08951 0.0
C92 C 0.04618 0.44983 0.1185 0.0
C93 C 0.0342 0.46746 0.1388 0.0
C94 C 0.01504 0.48779 0.12985 0.0
C95 C 0.00837 0.4908 0.10087 0.0
P96 P 0.69068 0.79694 0.17235 0.0
H97 H 0.7099 0.84757 0.14204 0.0
H98 H 0.74075 0.88839 0.15641 0.0
H99 H 0.75793 0.84947 0.2375 0.0
H100 H 0.72711 0.80849 0.22313 0.0
H101 H 0.67164 0.73772 0.16821 0.0
H102 H 0.69079 0.69706 0.14348 0.0
H103 H 0.76461 0.74794 0.12081 0.0
H104 H 0.74574 0.78857 0.14598 0.0
H105 H 0.6377 0.82023 0.19061 0.0
H106 H 0.69587 0.75814 0.22089 0.0
O107 O 0.66961 0.80768 0.14573 0.0
H108 H 0.60681 0.81011 0.23089 0.0
H109 H 0.66467 0.74788 0.2613 0.0
C110 C 0.7158 0.82528 0.18177 0.0
C111 C 0.72043 0.84766 0.16283 0.0
C112 C 0.73805 0.8709 0.17095 0.0
C113 C 0.75135 0.87193 0.19805 0.0
C114 C 0.74771 0.849 0.21653 0.0
C115 C 0.73011 0.82572 0.20837 0.0
C116 C 0.7076 0.76599 0.15956 0.0
C117 C 0.6924 0.73993 0.15881 0.0
C118 C 0.70323 0.71676 0.14462 0.0
C119 C 0.72911 0.71956 0.13046 0.0
C120 C 0.74473 0.74538 0.13187 0.0
C121 C 0.73398 0.7685 0.14627 0.0
C122 C 0.66863 0.78939 0.20239 0.0
C123 C 0.64374 0.80432 0.20582 0.0
C124 C 0.62619 0.79864 0.22879 0.0
C125 C 0.63341 0.7781 0.24877 0.0
C126 C 0.65874 0.76365 0.24588 0.0
C127 C 0.67638 0.76942 0.22285 0.0
P128 P 0.06089 0.94359 0.42018 0.0
H129 H 0.09956 0.9464 0.4701 0.0
H130 H 0.13864 0.97972 0.48423 0.0
H131 H 0.11942 0.03107 0.41126 0.0
H132 H 0.07978 0.99827 0.39757 0.0
H133 H 0.04028 0.88517 0.42392 0.0
H134 H 0.01419 0.85938 0.45936 0.0
H135 H 0.01996 0.93322 0.51455 0.0
H136 H 0.04516 0.95864 0.47853 0.0
H137 H 0.05141 0.94785 0.35841 0.0
H138 H 0.00935 0.97287 0.4349 0.0
O139 O 0.0785 0.92114 0.40015 0.0
H140 H 0.01119 0.9644 0.32943 0.0
H141 H 0.969 0.98888 0.40589 0.0
C142 C 0.08625 0.97027 0.43323 0.0
C143 C 0.10309 0.9653 0.45766 0.0
C144 C 0.12544 0.9842 0.46567 0.0
C145 C 0.13179 0.00783 0.4488 0.0
C146 C 0.11465 0.01307 0.42465 0.0
C147 C 0.09204 0.99437 0.41689 0.0
C148 C 0.0441 0.92402 0.44828 0.0
C149 C 0.03513 0.89596 0.44348 0.0
C150 C 0.01914 0.88146 0.46372 0.0
C151 C 0.01009 0.89503 0.48879 0.0
C152 C 0.02202 0.92249 0.49448 0.0
C153 C 0.03788 0.93707 0.47408 0.0
C154 C 0.03304 0.95858 0.39881 0.0
C155 C 0.03366 0.95701 0.36896 0.0
C156 C 0.01083 0.96649 0.35243 0.0
C157 C 0.98718 0.97759 0.36564 0.0
C158 C 0.98709 0.98024 0.39543 0.0
C159 C 0.01003 0.971 0.41192 0.0
P160 P 0.24358 0.76238 0.74365 0.0
H161 H 0.28199 0.78651 0.78762 0.0
H162 H 0.27504 0.80134 0.83714 0.0
H163 H 0.18562 0.77823 0.82855 0.0
H164 H 0.19254 0.76318 0.77897 0.0
H165 H 0.28041 0.73342 0.70455 0.0
H166 H 0.30139 0.68662 0.70552 0.0
H167 H 0.2591 0.66816 0.78412 0.0
H168 H 0.23805 0.71481 0.78317 0.0
H169 H 0.21229 0.80862 0.71963 0.0
H170 H 0.20272 0.71776 0.72273 0.0
O171 O 0.26724 0.78471 0.72907 0.0
H172 H 0.1669 0.81049 0.6927 0.0
H173 H 0.15746 0.71969 0.69565 0.0
C174 C 0.23773 0.77425 0.77951 0.0
C175 C 0.26084 0.78486 0.79627 0.0
C176 C 0.2569 0.79327 0.82446 0.0
C177 C 0.22982 0.79094 0.83633 0.0
C178 C 0.20662 0.78027 0.81962 0.0
C179 C 0.2106 0.77178 0.79138 0.0
C180 C 0.25817 0.72776 0.74408 0.0
C181 C 0.27568 0.71933 0.722 0.0
C182 C 0.28757 0.6927 0.7225 0.0
C183 C 0.28187 0.67414 0.74498 0.0
C184 C 0.26381 0.68232 0.7667 0.0
C185 C 0.2519 0.70893 0.76618 0.0
C186 C 0.21104 0.76306 0.72273 0.0
C187 C 0.20059 0.7891 0.71425 0.0
C188 C 0.17476 0.79019 0.69898 0.0
C189 C 0.15905 0.76522 0.69211 0.0
C190 C 0.16947 0.73913 0.70065 0.0
C191 C 0.19528 0.73806 0.71602 0.0
P192 P 0.99051 0.51486 0.55397 0.0
H193 H 0.04813 0.51768 0.53206 0.0
H194 H 0.06693 0.5093 0.48438 0.0
H195 H 0.98134 0.49506 0.45071 0.0
H196 H 0.96251 0.50391 0.49806 0.0
H197 H 0.99894 0.54708 0.60703 0.0
H198 H 0.9935 0.59716 0.6189 0.0
H199 H 0.96879 0.61326 0.53154 0.0
H200 H 0.97444 0.56326 0.51958 0.0
H201 H 0.97539 0.45509 0.55311 0.0
H202 H 0.9312 0.53328 0.5566 0.0
O203 O 0.01303 0.50056 0.57731 0.0
H204 H 0.92956 0.42876 0.5482 0.0
H205 H 0.88542 0.50683 0.55186 0.0
C206 C 0.00404 0.51069 0.51871 0.0
C207 C 0.03343 0.51291 0.51439 0.0
C208 C 0.04412 0.50824 0.48727 0.0
C209 C 0.02546 0.50136 0.46421 0.0
C210 C 0.996 0.50023 0.46833 0.0
C211 C 0.98533 0.5051 0.49538 0.0
C212 C 0.98761 0.55167 0.56234 0.0
C213 C 0.99264 0.56142 0.59037 0.0
C214 C 0.98947 0.58988 0.59717 0.0
C215 C 0.98087 0.60876 0.57603 0.0
C216 C 0.97559 0.59894 0.54803 0.0
C217 C 0.97891 0.57052 0.54123 0.0
C218 C 0.95669 0.49605 0.55556 0.0
C219 C 0.95586 0.46651 0.55349 0.0
C220 C 0.92982 0.45154 0.55058 0.0
C221 C 0.90431 0.46596 0.54972 0.0
C222 C 0.905 0.49546 0.55264 0.0
C223 C 0.93111 0.51047 0.55541 0.0
P224 P 0.84688 0.85393 0.85145 0.0
H225 H 0.89066 0.88446 0.81949 0.0
H226 H 0.91576 0.87278 0.77573 0.0
H227 H 0.87087 0.79176 0.77156 0.0
H228 H 0.84612 0.80314 0.8151 0.0
H229 H 0.81319 0.89569 0.87992 0.0
H230 H 0.7669 0.91548 0.86787 0.0
H231 H 0.76419 0.86962 0.78797 0.0
H232 H 0.81064 0.85036 0.79963 0.0
H233 H 0.87333 0.82323 0.89836 0.0
H234 H 0.79739 0.81471 0.84485 0.0
O235 O 0.8671 0.87499 0.873 0.0
H236 H 0.86083 0.77789 0.92083 0.0
H237 H 0.78537 0.76939 0.86679 0.0
C238 C 0.86691 0.84451 0.82084 0.0
C239 C 0.88655 0.86404 0.80938 0.0
C240 C 0.90077 0.85745 0.78447 0.0
C241 C 0.89511 0.83141 0.7706 0.0
C242 C 0.87555 0.81188 0.78212 0.0
C243 C 0.8615 0.8184 0.80704 0.0
C244 C 0.81555 0.87198 0.84047 0.0
C245 C 0.80299 0.89047 0.8595 0.0
C246 C 0.7766 0.90162 0.85273 0.0
C247 C 0.76226 0.89394 0.82706 0.0
C248 C 0.77508 0.87587 0.80778 0.0
C249 C 0.80161 0.86501 0.81442 0.0
C250 C 0.83609 0.82256 0.87027 0.0
C251 C 0.85381 0.8119 0.89178 0.0
C252 C 0.84676 0.78608 0.9045 0.0
C253 C 0.82218 0.77043 0.89541 0.0
C254 C 0.80431 0.78129 0.87415 0.0
C255 C 0.81117 0.80721 0.86173 0.0
P256 P 0.34409 0.34826 0.34477 0.0
H257 H 0.39159 0.37533 0.3148 0.0
H258 H 0.41615 0.36271 0.27104 0.0
H259 H 0.36053 0.28871 0.26056 0.0
H260 H 0.33627 0.30102 0.30437 0.0
H261 H 0.31883 0.3992 0.36725 0.0
H262 H 0.27218 0.41971 0.35871 0.0
H263 H 0.25196 0.35633 0.29415 0.0
H264 H 0.29842 0.33579 0.30261 0.0
H265 H 0.37399 0.29656 0.35669 0.0
H266 H 0.29312 0.33138 0.37671 0.0
O267 O 0.36547 0.36896 0.36555 0.0
H268 H 0.35963 0.25248 0.38044 0.0
H269 H 0.27901 0.28743 0.40049 0.0
C270 C 0.36238 0.33892 0.31298 0.0
C271 C 0.38482 0.3563 0.30321 0.0
C272 C 0.39877 0.34916 0.27831 0.0
C273 C 0.39013 0.32477 0.26275 0.0
C274 C 0.36751 0.30755 0.2724 0.0
C275 C 0.35371 0.3146 0.29734 0.0
C276 C 0.31232 0.36632 0.33516 0.0
C277 C 0.30468 0.39011 0.35079 0.0
C278 C 0.27809 0.40172 0.34605 0.0
C279 C 0.25883 0.38948 0.32579 0.0
C280 C 0.26671 0.36609 0.30972 0.0
C281 C 0.29327 0.35452 0.31446 0.0
C282 C 0.33434 0.31693 0.3642 0.0
C283 C 0.35322 0.29476 0.36616 0.0
C284 C 0.34509 0.26969 0.37969 0.0
C285 C 0.31815 0.26673 0.39178 0.0
C286 C 0.29974 0.28934 0.39095 0.0
C287 C 0.30784 0.31435 0.37731 0.0
P288 P 0.51298 0.9815 0.53469 0.0
H289 H 0.52886 0.96648 0.477 0.0
H290 H 0.52301 0.92274 0.4488 0.0
H291 H 0.48351 0.88111 0.51987 0.0
H292 H 0.48938 0.92498 0.54825 0.0
H293 H 0.50183 0.04151 0.53837 0.0
H294 H 0.45855 0.06827 0.53074 0.0
H295 H 0.41065 0.99066 0.51196 0.0
H296 H 0.45352 0.96385 0.52044 0.0
H297 H 0.54849 0.94136 0.56437 0.0
H298 H 0.49504 0.00987 0.58701 0.0
O299 O 0.54028 0.00086 0.52229 0.0
H300 H 0.56197 0.93579 0.61483 0.0
H301 H 0.50909 0.00467 0.63718 0.0
C302 C 0.51012 0.94875 0.51488 0.0
C303 C 0.51927 0.94789 0.48669 0.0
C304 C 0.51588 0.92303 0.47059 0.0
C305 C 0.50298 0.89881 0.48238 0.0
C306 C 0.49367 0.89962 0.51057 0.0
C307 C 0.49713 0.92454 0.52671 0.0
C308 C 0.48101 0.00077 0.52944 0.0
C309 C 0.482 0.03025 0.53269 0.0
C310 C 0.45737 0.04548 0.52849 0.0
C311 C 0.43155 0.03139 0.52059 0.0
C312 C 0.43044 0.00185 0.51795 0.0
C313 C 0.45497 0.9866 0.52262 0.0
C314 C 0.52025 0.97558 0.57194 0.0
C315 C 0.53928 0.95486 0.58016 0.0
C316 C 0.54707 0.95175 0.60886 0.0
C317 C 0.53638 0.96975 0.62961 0.0
C318 C 0.51734 0.99047 0.62143 0.0
C319 C 0.50933 0.99337 0.59276 0.0
P320 P 0.19119 0.29635 0.67397 0.0
H321 H 0.21771 0.34193 0.64139 0.0
H322 H 0.2497 0.38219 0.65518 0.0
H323 H 0.25352 0.35181 0.74155 0.0
H324 H 0.2215 0.31152 0.72782 0.0
H325 H 0.16847 0.24971 0.6389 0.0
H326 H 0.19097 0.21099 0.61394 0.0
H327 H 0.27249 0.23754 0.65121 0.0
H328 H 0.25001 0.27644 0.67616 0.0
H329 H 0.14529 0.32475 0.70087 0.0
H330 H 0.19071 0.2482 0.7137 0.0
O331 O 0.16941 0.30892 0.64887 0.0
H332 H 0.11491 0.31272 0.74107 0.0
H333 H 0.16016 0.23617 0.75415 0.0
C334 C 0.21679 0.32415 0.68374 0.0
C335 C 0.22554 0.34383 0.66326 0.0
C336 C 0.2438 0.3667 0.67105 0.0
C337 C 0.2537 0.36996 0.69938 0.0
C338 C 0.24594 0.3496 0.71961 0.0
C339 C 0.22764 0.32674 0.7118 0.0
C340 C 0.20768 0.2662 0.65887 0.0
C341 C 0.19114 0.24706 0.64192 0.0
C342 C 0.2039 0.22497 0.62779 0.0
C343 C 0.23336 0.22163 0.63061 0.0
C344 C 0.24973 0.23992 0.64875 0.0
C345 C 0.23692 0.26212 0.66286 0.0
C346 C 0.16978 0.28709 0.70399 0.0
C347 C 0.14865 0.30533 0.71229 0.0
C348 C 0.13141 0.29854 0.73522 0.0
C349 C 0.13519 0.27348 0.7503 0.0
C350 C 0.15687 0.2555 0.74255 0.0
C351 C 0.17417 0.26233 0.71949 0.0
P352 P 0.78191 0.17437 0.71582 0.0
H353 H 0.80457 0.19376 0.66201 0.0
H354 H 0.79014 0.23007 0.62832 0.0
H355 H 0.7212 0.25133 0.68258 0.0
H356 H 0.7357 0.21485 0.71657 0.0
H357 H 0.80514 0.14948 0.7675 0.0
H358 H 0.8438 0.16488 0.801 0.0
H359 H 0.85338 0.24347 0.75595 0.0
H360 H 0.81483 0.22823 0.72252 0.0
H361 H 0.74668 0.12525 0.69838 0.0
H362 H 0.7495 0.18647 0.76711 0.0
O363 O 0.79868 0.15007 0.69729 0.0
H364 H 0.70651 0.10013 0.72039 0.0
H365 H 0.70885 0.16134 0.78907 0.0
C366 C 0.77089 0.20127 0.69149 0.0
C367 C 0.78625 0.20606 0.66666 0.0
C368 C 0.77808 0.22676 0.64748 0.0
C369 C 0.75456 0.24316 0.65297 0.0
C370 C 0.73932 0.23871 0.67801 0.0
C371 C 0.74758 0.21793 0.69729 0.0
C372 C 0.80686 0.18785 0.74277 0.0
C373 C 0.81515 0.17027 0.76519 0.0
C374 C 0.83718 0.17896 0.78422 0.0
C375 C 0.85131 0.20526 0.78085 0.0
C376 C 0.84256 0.22315 0.75888 0.0
C377 C 0.82054 0.21445 0.73986 0.0
C378 C 0.75142 0.15726 0.73152 0.0
C379 C 0.73864 0.13329 0.71818 0.0
C380 C 0.71569 0.11904 0.73064 0.0
C381 C 0.70503 0.12876 0.75645 0.0
C382 C 0.71703 0.15347 0.76925 0.0
C383 C 0.74017 0.16767 0.75681 0.0
P384 P 0.56019 0.55847 0.55425 0.0
H385 H 0.55171 0.54746 0.61449 0.0
H386 H 0.509 0.5371 0.64221 0.0
H387 H 0.45724 0.53717 0.56504 0.0
H388 H 0.50002 0.54761 0.53718 0.0
H389 H 0.61979 0.55201 0.54135 0.0
H390 H 0.64825 0.51053 0.53257 0.0
H391 H 0.57281 0.45643 0.53785 0.0
H392 H 0.54422 0.49796 0.54673 0.0
H393 H 0.54065 0.61553 0.54916 0.0
H394 H 0.55834 0.54678 0.49215 0.0
O395 O 0.58119 0.57911 0.57548 0.0
H396 H 0.5288 0.64509 0.50815 0.0
H397 H 0.54643 0.57648 0.45103 0.0
C398 C 0.5289 0.54886 0.5739 0.0
C399 C 0.53121 0.54519 0.60349 0.0
C400 C 0.50693 0.53922 0.61928 0.0
C401 C 0.48007 0.53656 0.60562 0.0
C402 C 0.47783 0.53926 0.57588 0.0
C403 C 0.50218 0.54528 0.56006 0.0
C404 C 0.58003 0.52799 0.54517 0.0
C405 C 0.60931 0.53126 0.54047 0.0
C406 C 0.62553 0.50768 0.53544 0.0
C407 C 0.6126 0.48052 0.53476 0.0
C408 C 0.58309 0.47727 0.5384 0.0
C409 C 0.56686 0.50093 0.54351 0.0
C410 C 0.55079 0.57917 0.52365 0.0
C411 C 0.542 0.60682 0.52783 0.0
C412 C 0.5352 0.62365 0.50451 0.0
C413 C 0.53695 0.61298 0.47666 0.0
C414 C 0.54512 0.58506 0.47242 0.0
C415 C 0.55195 0.56819 0.49584 0.0
P416 P 0.56759 0.44784 0.92051 0.0
H417 H 0.59978 0.45571 0.97464 0.0
H418 H 0.63791 0.48978 0.98928 0.0
H419 H 0.62578 0.53502 0.91079 0.0
H420 H 0.58712 0.5013 0.89633 0.0
H421 H 0.56862 0.38682 0.9291 0.0
H422 H 0.54929 0.35584 0.96597 0.0
H423 H 0.51639 0.42794 0.00923 0.0
H424 H 0.53699 0.45919 0.97308 0.0
H425 H 0.55027 0.44027 0.86045 0.0
H426 H 0.52037 0.48417 0.93431 0.0
O427 O 0.58776 0.42882 0.89939 0.0
H428 H 0.50875 0.45524 0.83266 0.0
H429 H 0.47821 0.49811 0.9067 0.0
C430 C 0.59021 0.47629 0.93461 0.0
C431 C 0.60448 0.47352 0.96102 0.0
C432 C 0.62631 0.49288 0.96938 0.0
C433 C 0.63459 0.51481 0.95108 0.0
C434 C 0.61951 0.51832 0.92524 0.0
C435 C 0.59747 0.49912 0.91705 0.0
C436 C 0.55406 0.42533 0.94821 0.0
C437 C 0.55751 0.39609 0.9466 0.0
C438 C 0.54648 0.37839 0.9676 0.0
C439 C 0.53136 0.38963 0.99022 0.0
C440 C 0.52796 0.41891 0.99189 0.0
C441 C 0.53947 0.43666 0.97114 0.0
C442 C 0.53823 0.46076 0.89962 0.0
C443 C 0.53488 0.45314 0.87073 0.0
C444 C 0.51124 0.46166 0.85483 0.0
C445 C 0.49045 0.47759 0.86774 0.0
C446 C 0.49404 0.48571 0.89647 0.0
C447 C 0.51797 0.47758 0.91224 0.0
P448 P 0.74021 0.2665 0.25331 0.0
H449 H 0.73291 0.32259 0.27702 0.0
H450 H 0.73326 0.34115 0.32615 0.0
H451 H 0.74621 0.25744 0.35819 0.0
H452 H 0.74564 0.23881 0.30924 0.0
H453 H 0.79824 0.24743 0.24936 0.0
H454 H 0.81844 0.20036 0.24958 0.0
H455 H 0.73408 0.16223 0.25545 0.0
H456 H 0.71379 0.20936 0.25511 0.0
H457 H 0.6829 0.26959 0.27705 0.0
H458 H 0.72017 0.26346 0.19413 0.0
O459 O 0.76124 0.28846 0.23491 0.0
H460 H 0.63567 0.27354 0.25436 0.0
H461 H 0.67272 0.267 0.17146 0.0
C462 C 0.73982 0.27947 0.28949 0.0
C463 C 0.73579 0.30824 0.29462 0.0
C464 C 0.73581 0.31879 0.32255 0.0
C465 C 0.73986 0.30063 0.34566 0.0
C466 C 0.74309 0.27171 0.34056 0.0
C467 C 0.74294 0.26116 0.31262 0.0
C468 C 0.7545 0.2318 0.25166 0.0
C469 C 0.78404 0.22895 0.2503 0.0
C470 C 0.79557 0.20218 0.25048 0.0
C471 C 0.7777 0.17793 0.25235 0.0
C472 C 0.74813 0.18075 0.25376 0.0
C473 C 0.7366 0.20757 0.25352 0.0
C474 C 0.70509 0.26678 0.23719 0.0
C475 C 0.68097 0.269 0.25402 0.0
C476 C 0.65402 0.27117 0.24112 0.0
C477 C 0.65086 0.27079 0.21129 0.0
C478 C 0.67485 0.26749 0.19451 0.0
C479 C 0.70181 0.26548 0.20742 0.0
P480 P 0.47837 0.01015 0.038 0.0
H481 H 0.5372 0.01614 0.02001 0.0
H482 H 0.55956 0.0094 0.97371 0.0
H483 H 0.47692 0.99125 0.9344 0.0
H484 H 0.45452 0.99848 0.98038 0.0
H485 H 0.48192 0.04076 0.09226 0.0
H486 H 0.47653 0.09069 0.10477 0.0
H487 H 0.45948 0.1094 0.01628 0.0
H488 H 0.46502 0.0595 0.00369 0.0
H489 H 0.4641 0.95026 0.03482 0.0
H490 H 0.41867 0.02773 0.03802 0.0
O491 O 0.49962 0.99561 0.06236 0.0
H492 H 0.41871 0.92331 0.02885 0.0
H493 H 0.37331 0.00065 0.03228 0.0
C494 C 0.49435 0.00708 0.00373 0.0
C495 C 0.5239 0.01087 0.0014 0.0
C496 C 0.53662 0.00714 0.97507 0.0
C497 C 0.51983 -0.00038 0.95083 0.0
C498 C 0.49015 0.99693 0.95296 0.0
C499 C 0.47745 0.00086 0.97923 0.0
C500 C 0.47449 0.04667 0.04701 0.0
C501 C 0.47719 0.05562 0.07553 0.0
C502 C 0.47401 0.08397 0.08269 0.0
C503 C 0.46777 0.10357 0.06139 0.0
C504 C 0.46444 0.0945 0.03291 0.0
C505 C 0.46772 0.06615 0.02577 0.0
C506 C 0.44472 0.99088 0.03725 0.0
C507 C 0.44438 0.96139 0.03473 0.0
C508 C 0.4186 0.94607 0.0312 0.0
C509 C 0.39287 0.96011 0.03015 0.0
C510 C 0.39307 0.98959 0.03313 0.0
C511 C 0.41893 0.00495 0.0365 0.0
Zn512 Zn 0.28254 0.82295 0.00035 0.0
Zn513 Zn 0.23795 0.85607 0.01026 0.0
O514 O 0.23629 0.82806 0.0439 0.0
O515 O 0.27258 0.80112 0.03542 0.0
O516 O 0.20624 0.88286 0.01708 0.0
O517 O 0.30959 0.85667 0.00468 0.0
O518 O 0.27305 0.88324 0.01308 0.0
C519 C 0.25192 0.80759 0.05068 0.0
C520 C 0.24224 0.82292 0.95363 0.0
O521 O 0.2291 0.83959 0.96978 0.0
O522 O 0.26536 0.81247 0.96194 0.0
C523 C 0.17991 0.87734 0.01208 0.0
O524 O 0.1714 0.85229 0.00234 0.0
C525 C 0.29973 0.88043 0.01061 0.0
Zn526 Zn 0.08393 0.43053 0.30971 0.0
Zn527 Zn 0.10939 0.48361 0.30591 0.0
O528 O 0.08692 0.48752 0.34214 0.0
O529 O 0.06471 0.44575 0.34497 0.0
O530 O 0.12934 0.52113 0.30028 0.0
O531 O 0.12358 0.41483 0.314 0.0
O532 O 0.14277 0.45783 0.31032 0.0
C533 C 0.07008 0.47045 0.35484 0.0
C534 C 0.07171 0.45822 0.25675 0.0
O535 O 0.08665 0.47817 0.26859 0.0
O536 O 0.06708 0.4352 0.26969 0.0
C537 C 0.11695 0.54215 0.28976 0.0
O538 O 0.08942 0.5405 0.28414 0.0
C539 C 0.14535 0.4314 0.31337 0.0
Zn540 Zn 0.79357 0.59898 0.94133 0.0
Zn541 Zn 0.783 0.62323 0.99262 0.0
O542 O 0.81877 0.60186 0.00304 0.0
O543 O 0.82739 0.58186 0.96154 0.0
O544 O 0.7727 0.6449 0.02761 0.0
O545 O 0.79839 0.63734 0.92315 0.0
O546 O 0.79124 0.6559 0.96548 0.0
C547 C 0.83383 0.58622 0.98766 0.0
C548 C 0.73918 0.58193 0.96321 0.0
O549 O 0.74721 0.59783 0.98416 0.0
O550 O 0.75499 0.57902 0.942 0.0
C551 C 0.76848 0.63534 0.05242 0.0
O552 O 0.77136 0.60838 0.05758 0.0
C553 C 0.79684 0.65877 0.93925 0.0
Zn554 Zn 0.8273 0.01172 0.28747 0.0
Zn555 Zn 0.86024 0.01816 0.24016 0.0
O556 O 0.84067 0.05627 0.24345 0.0
O557 O 0.81386 0.0514 0.28125 0.0
O558 O 0.88693 0.02349 0.20724 0.0
O559 O 0.86295 0.00539 0.31147 0.0
O560 O 0.88839 0.00948 0.27269 0.0
C561 C 0.82289 0.06612 0.2607 0.0
C562 C 0.81394 0.97093 0.2421 0.0
O563 O 0.83356 0.98433 0.22897 0.0
O564 O 0.80722 0.9784 0.26698 0.0
C565 C 0.88404 0.0118 0.18278 0.0
O566 O 0.86154 0.9954 0.17671 0.0
C567 C 0.88673 0.00513 0.29936 0.0
Zn568 Zn 0.28813 0.09785 0.44046 0.0
Zn569 Zn 0.27612 0.12094 0.492 0.0
O570 O 0.31313 0.10105 0.50167 0.0
O571 O 0.32208 0.08097 0.46031 0.0
O572 O 0.26569 0.14192 0.52757 0.0
O573 O 0.29295 0.13654 0.4232 0.0
O574 O 0.28248 0.15426 0.4651 0.0
C575 C 0.32855 0.08574 0.48634 0.0
C576 C 0.23403 0.0786 0.46183 0.0
O577 O 0.24146 0.09406 0.4833 0.0
O578 O 0.24988 0.07716 0.44045 0.0
C579 C 0.275 0.13858 0.55293 0.0
O580 O 0.29318 0.11887 0.55859 0.0
C581 C 0.28937 0.15764 0.43925 0.0
Zn582 Zn 0.33113 0.51039 0.78598 0.0
Zn583 Zn 0.36571 0.51442 0.7398 0.0
O584 O 0.34637 0.55273 0.74076 0.0
O585 O 0.31834 0.54995 0.77784 0.0
O586 O 0.39326 0.5186 0.70766 0.0
O587 O 0.36586 0.50455 0.81157 0.0
O588 O 0.39263 0.50653 0.77359 0.0
C589 C 0.32819 0.56354 0.75692 0.0
C590 C 0.31874 0.46819 0.74138 0.0
O591 O 0.33916 0.48059 0.72849 0.0
O592 O 0.31129 0.47676 0.76566 0.0
C593 C 0.38613 0.51851 0.68135 0.0
O594 O 0.35917 0.51556 0.67349 0.0
C595 C 0.39002 0.50332 0.80034 0.0
Zn596 Zn 0.79063 0.33213 0.51453 0.0
Zn597 Zn 0.74694 0.36774 0.51908 0.0
O598 O 0.73968 0.33935 0.55161 0.0
O599 O 0.77495 0.31014 0.54743 0.0
O600 O 0.71555 0.39553 0.52245 0.0
O601 O 0.81854 0.36463 0.52253 0.0
O602 O 0.7828 0.39334 0.52602 0.0
C603 C 0.75303 0.31788 0.56005 0.0
C604 C 0.75639 0.33489 0.46325 0.0
O605 O 0.74231 0.35219 0.47778 0.0
O606 O 0.77791 0.32333 0.4741 0.0
C607 C 0.68915 0.38869 0.52115 0.0
O608 O 0.68087 0.36209 0.51753 0.0
C609 C 0.8094 0.38902 0.5269 0.0
Zn610 Zn 0.58756 0.93178 0.79954 0.0
Zn611 Zn 0.61255 0.98514 0.79681 0.0
O612 O 0.58851 0.98888 0.83203 0.0
O613 O 0.56742 0.94652 0.83439 0.0
O614 O 0.63294 0.02265 0.79219 0.0
O615 O 0.6271 0.91614 0.80452 0.0
O616 O 0.64579 0.95948 0.80305 0.0
C617 C 0.57173 0.97138 0.84425 0.0
C618 C 0.57607 0.95983 0.74671 0.0
O619 O 0.59093 0.97977 0.75873 0.0
O620 O 0.57124 0.93679 0.75954 0.0
C621 C 0.62228 0.0468 0.79431 0.0
O622 O 0.59556 0.04897 0.80132 0.0
C623 C 0.64865 0.93303 0.80562 0.0
Zn624 Zn 0.9943 0.29464 0.84402 0.0
Zn625 Zn 0.0062 0.25036 0.87843 0.0
O626 O 0.04006 0.25134 0.85129 0.0
O627 O 0.0308 0.2876 0.82366 0.0
O628 O 0.01433 0.21817 0.90503 0.0
O629 O 0.99479 0.32049 0.87845 0.0
O630 O 0.00528 0.28453 0.90592 0.0
C631 C 0.04654 0.26756 0.83071 0.0
C632 C 0.95164 0.24974 0.84052 0.0
O633 O 0.96778 0.23822 0.85894 0.0
O634 O 0.95799 0.27396 0.83086 0.0
C635 C 0.01625 0.19288 0.89625 0.0
O636 O 0.01288 0.18693 0.86895 0.0
C637 C 0.00053 0.31066 0.90284 0.0
Zn638 Zn 0.48883 0.79656 0.33913 0.0
Zn639 Zn 0.50019 0.7511 0.3713 0.0
O640 O 0.53564 0.75413 0.34655 0.0
O641 O 0.52604 0.79066 0.31944 0.0
O642 O 0.50771 0.71832 0.39734 0.0
O643 O 0.48828 0.82149 0.37391 0.0
O644 O 0.49724 0.78419 0.40004 0.0
C645 C 0.54227 0.77103 0.32658 0.0
C646 C 0.44751 0.7511 0.33067 0.0
O647 O 0.46379 0.73846 0.34816 0.0
O648 O 0.45291 0.77659 0.32417 0.0
C649 C 0.51244 0.6936 0.38834 0.0
O650 O 0.51227 0.68827 0.36081 0.0
C651 C 0.49287 0.81051 0.39799 0.0
Zn652 Zn 0.93551 0.77826 0.60477 0.0
Zn653 Zn 0.99093 0.78336 0.62506 0.0
O654 O 0.99139 0.81091 0.59164 0.0
O655 O 0.94673 0.80775 0.57565 0.0
O656 O 0.03087 0.78504 0.64178 0.0
O657 O 0.9227 0.79066 0.64371 0.0
O658 O 0.96748 0.79601 0.65867 0.0
C659 C 0.97184 0.81826 0.57424 0.0
C660 C 0.96486 0.72646 0.60239 0.0
O661 O 0.98509 0.74175 0.61352 0.0
O662 O 0.94106 0.73686 0.59627 0.0
C663 C 0.05046 0.77039 0.63169 0.0
O664 O 0.04529 0.7548 0.60874 0.0
C665 C 0.94097 0.79746 0.6631 0.0
Zn666 Zn 0.4378 0.27691 0.09699 0.0
Zn667 Zn 0.49082 0.27223 0.12223 0.0
O668 O 0.49825 0.30052 0.09047 0.0
O669 O 0.45556 0.30698 0.07155 0.0
O670 O 0.52941 0.26795 0.14089 0.0
O671 O 0.42301 0.28811 0.13556 0.0
O672 O 0.46627 0.28606 0.15466 0.0
C673 C 0.48216 0.31259 0.07245 0.0
C674 C 0.4601 0.2211 0.09316 0.0
O675 O 0.48087 0.2325 0.10747 0.0
O676 O 0.43897 0.23537 0.08557 0.0
C677 C 0.54008 0.28647 0.15816 0.0
O678 O 0.52588 0.30912 0.16388 0.0
C679 C 0.43996 0.29096 0.1569 0.0
C680 C 0.22677 0.82845 0.87395 0.0
C681 C 0.22632 0.79935 0.86658 0.0
C682 C 0.22568 0.78708 0.91719 0.0
C683 C 0.23146 0.81587 0.9244 0.0
N684 N 0.23867 0.86433 0.90984 0.0
N685 N 0.22622 0.75052 0.88078 0.0
C686 C 0.23176 0.8368 0.9029 0.0
C687 C 0.22555 0.77848 0.88809 0.0
N688 N 0.22244 0.84802 0.85319 0.0
N689 N 0.22017 0.76808 0.9383 0.0
H690 H 0.22569 0.74334 0.85968 0.0
H691 H 0.22914 0.73453 0.89553 0.0
H692 H 0.21982 0.77401 0.95978 0.0
H693 H 0.21327 0.74724 0.93442 0.0
H694 H 0.21979 0.86935 0.85745 0.0
H695 H 0.21887 0.84245 0.83178 0.0
H696 H 0.24273 0.87988 0.89476 0.0
H697 H 0.24217 0.87143 0.93076 0.0
C698 C 0.05057 0.46775 0.43288 0.0
C699 C 0.03685 0.49371 0.43607 0.0
C700 C 0.0423 0.50316 0.38514 0.0
C701 C 0.05853 0.47861 0.38269 0.0
N702 N 0.08373 0.44118 0.40583 0.0
N703 N 0.02363 0.53847 0.41664 0.0
C704 C 0.06421 0.46186 0.40699 0.0
C705 C 0.03384 0.51213 0.41258 0.0
N706 N 0.04985 0.4483 0.45425 0.0
N707 N 0.03403 0.51726 0.36119 0.0
H708 H 0.01725 0.54574 0.43646 0.0
H709 H 0.02377 0.55393 0.40098 0.0
H710 H 0.0394 0.51105 0.34069 0.0
H711 H 0.01973 0.53353 0.36141 0.0
H712 H 0.05681 0.42781 0.4518 0.0
H713 H 0.03984 0.45164 0.47353 0.0
H714 H 0.09083 0.4304 0.42376 0.0
H715 H 0.09511 0.43677 0.38762 0.0
C716 C 0.79148 0.73715 0.92389 0.0
C717 C 0.81582 0.74194 0.90703 0.0
C718 C 0.82919 0.69303 0.91398 0.0
C719 C 0.80315 0.68734 0.92793 0.0
N720 N 0.75692 0.70279 0.94146 0.0
N721 N 0.85457 0.72297 0.88091 0.0
C722 C 0.78354 0.70909 0.93165 0.0
C723 C 0.83375 0.71945 0.90057 0.0
N724 N 0.77642 0.75945 0.93312 0.0
N725 N 0.85021 0.67381 0.91469 0.0
H726 H 0.85836 0.74187 0.87017 0.0
H727 H 0.8662 0.70634 0.87325 0.0
H728 H 0.84835 0.65461 0.92531 0.0
H729 H 0.87063 0.67822 0.90735 0.0
H730 H 0.76028 0.75746 0.94789 0.0
H731 H 0.78179 0.78036 0.9281 0.0
H732 H 0.74083 0.71732 0.94184 0.0
H733 H 0.74994 0.68234 0.94656 0.0
C734 C 0.94082 0.96319 0.34133 0.0
C735 C 0.96163 0.98477 0.34837 0.0
C736 C 0.93416 0.01943 0.32181 0.0
C737 C 0.9126 0.99819 0.31609 0.0
N738 N 0.89386 0.95047 0.32146 0.0
N739 N 0.97768 0.03362 0.34807 0.0
C740 C 0.91549 0.97023 0.32621 0.0
C741 C 0.95821 0.01297 0.33931 0.0
N742 N 0.94568 0.93582 0.34859 0.0
N743 N 0.93165 0.04569 0.31032 0.0
H744 H 0.99602 0.02944 0.36005 0.0
H745 H 0.97507 0.05509 0.345 0.0
H746 H 0.91363 0.05168 0.29879 0.0
H747 H 0.94788 0.06124 0.31083 0.0
H748 H 0.9332 0.91852 0.34135 0.0
H749 H 0.96338 0.92997 0.3607 0.0
H750 H 0.89284 0.93081 0.33116 0.0
H751 H 0.87591 0.9541 0.3087 0.0
C752 C 0.26192 0.20889 0.58818 0.0
C753 C 0.24709 0.2002 0.6128 0.0
C754 C 0.25188 0.1505 0.59922 0.0
C755 C 0.26758 0.15926 0.57517 0.0
N756 N 0.29388 0.1961 0.55086 0.0
N757 N 0.2329 0.1633 0.64507 0.0
C758 C 0.27455 0.18828 0.57093 0.0
C759 C 0.24367 0.17112 0.61938 0.0
N760 N 0.26282 0.23669 0.58049 0.0
N761 N 0.24358 0.12272 0.60203 0.0
H762 H 0.22662 0.17794 0.6602 0.0
H763 H 0.23246 0.14261 0.65239 0.0
H764 H 0.24928 0.10702 0.58778 0.0
H765 H 0.22937 0.1155 0.61726 0.0
H766 H 0.27036 0.24373 0.561 0.0
H767 H 0.25393 0.25258 0.59251 0.0
H768 H 0.302 0.21671 0.54874 0.0
H769 H 0.30404 0.18153 0.5382 0.0
C770 C 0.44248 0.55562 0.63666 0.0
C771 C 0.45423 0.53211 0.62289 0.0
C772 C 0.418 0.5004 0.64373 0.0
C773 C 0.40828 0.52346 0.65986 0.0
N774 N 0.41171 0.57272 0.67333 0.0
N775 N 0.45514 0.48193 0.61448 0.0
C776 C 0.42061 0.55103 0.65672 0.0
C777 C 0.44237 0.50443 0.62655 0.0
N778 N 0.45185 0.58239 0.62999 0.0
N779 N 0.40386 0.4747 0.64484 0.0
H780 H 0.47261 0.48417 0.60128 0.0
H781 H 0.44969 0.46095 0.61888 0.0
H782 H 0.38658 0.47076 0.65796 0.0
H783 H 0.40788 0.45779 0.63141 0.0
H784 H 0.44223 0.60058 0.63689 0.0
H785 H 0.46802 0.58652 0.61559 0.0
H786 H 0.42212 0.59247 0.67477 0.0
H787 H 0.39463 0.57058 0.68705 0.0
C788 C 0.75727 0.2932 0.63573 0.0
C789 C 0.74647 0.265 0.63208 0.0
C790 C 0.73199 0.2747 0.5827 0.0
C791 C 0.74449 0.30226 0.58579 0.0
N792 N 0.76195 0.3405 0.61628 0.0
N793 N 0.71712 0.23087 0.60553 0.0
C794 C 0.75453 0.31248 0.61282 0.0
C795 C 0.73153 0.25647 0.60664 0.0
N796 N 0.77161 0.30096 0.66045 0.0
N797 N 0.7217 0.26574 0.55652 0.0
H798 H 0.71655 0.21721 0.62286 0.0
H799 H 0.70392 0.22411 0.5885 0.0
H800 H 0.7204 0.27925 0.5391 0.0
H801 H 0.71535 0.24493 0.55173 0.0
H802 H 0.78302 0.32005 0.6633 0.0
H803 H 0.7733 0.28759 0.67792 0.0
H804 H 0.76718 0.34993 0.63593 0.0
H805 H 0.76051 0.35494 0.59969 0.0
C806 C 0.52718 0.95788 0.6808 0.0
C807 C 0.54623 0.96777 0.65979 0.0
C808 C 0.58525 0.97017 0.69533 0.0
C809 C 0.56564 0.96303 0.71691 0.0
N810 N 0.5169 0.95566 0.73109 0.0
N811 N 0.59182 0.98925 0.64817 0.0
C812 C 0.53627 0.95841 0.70992 0.0
C813 C 0.57482 0.97571 0.66739 0.0
N814 N 0.50073 0.94717 0.67287 0.0
N815 N 0.61394 0.97026 0.70104 0.0
H816 H 0.58487 0.99403 0.62753 0.0
H817 H 0.61185 0.99816 0.65358 0.0
H818 H 0.62269 0.96522 0.72091 0.0
H819 H 0.6291 0.97244 0.68529 0.0
H820 H 0.4871 0.9369 0.68693 0.0
H821 H 0.49335 0.94628 0.65171 0.0
H822 H 0.49496 0.95514 0.72727 0.0
H823 H 0.52263 0.9567 0.75271 0.0
C824 C 0.90367 0.20348 0.79223 0.0
C825 C 0.87656 0.21354 0.7991 0.0
C826 C 0.89848 0.2447 0.83611 0.0
C827 C 0.92558 0.23468 0.82919 0.0
N828 N 0.95387 0.20091 0.80499 0.0
N829 N 0.847 0.23906 0.83076 0.0
C830 C 0.92809 0.21272 0.80876 0.0
C831 C 0.87362 0.23271 0.82211 0.0
N832 N 0.90625 0.18625 0.76894 0.0
N833 N 0.89668 0.26614 0.85562 0.0
H834 H 0.82843 0.23072 0.82077 0.0
H835 H 0.84315 0.25074 0.84906 0.0
H836 H 0.91424 0.27414 0.86755 0.0
H837 H 0.87815 0.27686 0.85919 0.0
H838 H 0.92568 0.18092 0.76063 0.0
H839 H 0.88885 0.17861 0.75656 0.0
H840 H 0.95655 0.18282 0.79275 0.0
H841 H 0.97247 0.20786 0.81586 0.0
C842 C 0.47247 0.86727 0.44992 0.0
C843 C 0.49884 0.87286 0.46463 0.0
C844 C 0.52063 0.83479 0.43817 0.0
C845 C 0.49419 0.82907 0.42355 0.0
N846 N 0.44355 0.83477 0.42009 0.0
N847 N 0.54581 0.85829 0.47803 0.0
C848 C 0.46963 0.84373 0.43095 0.0
C849 C 0.5222 0.85531 0.4605 0.0
N850 N 0.45058 0.88516 0.45315 0.0
N851 N 0.54461 0.82196 0.42957 0.0
H852 H 0.54766 0.87334 0.4944 0.0
H853 H 0.56241 0.84433 0.47803 0.0
H854 H 0.54445 0.80673 0.41339 0.0
H855 H 0.56504 0.82779 0.43704 0.0
H856 H 0.43206 0.88421 0.44049 0.0
H857 H 0.45162 0.90224 0.46736 0.0
H858 H 0.42443 0.8428 0.42667 0.0
H859 H 0.44083 0.81738 0.40636 0.0
C860 C 0.09154 0.24815 0.76869 0.0
C861 C 0.11581 0.26636 0.77394 0.0
C862 C 0.09717 0.28059 0.82003 0.0
C863 C 0.07244 0.26326 0.81423 0.0
N864 N 0.04878 0.22541 0.78738 0.0
N865 N 0.14539 0.29433 0.8068 0.0
C866 C 0.07064 0.24518 0.79001 0.0
C867 C 0.11984 0.2807 0.80046 0.0
N868 N 0.08772 0.235 0.74274 0.0
N869 N 0.09841 0.29769 0.84369 0.0
H870 H 0.1623 0.29467 0.79277 0.0
H871 H 0.15074 0.30323 0.82666 0.0
H872 H 0.08276 0.29697 0.85911 0.0
H873 H 0.11419 0.31334 0.84755 0.0
H874 H 0.06896 0.22419 0.73624 0.0
H875 H 0.10286 0.23616 0.72686 0.0
H876 H 0.04751 0.20981 0.7716 0.0
H877 H 0.03303 0.22307 0.80258 0.0
C878 C 0.50182 0.63721 0.44495 0.0
C879 C 0.53055 0.6315 0.45205 0.0
C880 C 0.54693 0.663 0.41399 0.0
C881 C 0.51844 0.67102 0.40906 0.0
N882 N 0.46873 0.66753 0.42056 0.0
N883 N 0.58079 0.64072 0.44568 0.0
C884 C 0.49584 0.65857 0.42472 0.0
C885 C 0.55323 0.64468 0.43703 0.0
N886 N 0.4803 0.62166 0.4571 0.0
N887 N 0.56795 0.67292 0.39665 0.0
H888 H 0.5863 0.62723 0.46222 0.0
H889 H 0.59819 0.65224 0.43793 0.0
H890 H 0.56438 0.68729 0.38034 0.0
H891 H 0.58851 0.66546 0.39701 0.0
H892 H 0.45897 0.62267 0.45084 0.0
H893 H 0.48398 0.60588 0.472 0.0
H894 H 0.45187 0.66188 0.43359 0.0
H895 H 0.46329 0.68203 0.40491 0.0
C896 C 0.9 0.83777 0.71785 0.0
C897 C 0.90892 0.82461 0.74344 0.0
C898 C 0.93872 0.79318 0.71639 0.0
C899 C 0.93122 0.80758 0.69101 0.0
N900 N 0.91037 0.84785 0.66859 0.0
N901 N 0.9411 0.79414 0.76808 0.0
C902 C 0.91351 0.83117 0.69203 0.0
C903 C 0.9297 0.80367 0.74301 0.0
N904 N 0.87785 0.85569 0.71795 0.0
N905 N 0.9531 0.76865 0.71498 0.0
H906 H 0.93498 0.80144 0.78798 0.0
H907 H 0.9584 0.78104 0.76911 0.0
H908 H 0.95961 0.75985 0.69588 0.0
H909 H 0.95637 0.75566 0.73247 0.0
H910 H 0.86836 0.86332 0.69939 0.0
H911 H 0.86731 0.86111 0.7364 0.0
H912 H 0.90007 0.86694 0.66899 0.0
H913 H 0.92052 0.84412 0.64946 0.0
C914 C 0.97769 0.85278 0.5018 0.0
C915 C 0.99103 0.87913 0.50956 0.0
C916 C 0.98429 0.86801 0.5598 0.0
C917 C 0.97805 0.83938 0.55203 0.0
N918 N 0.96842 0.80423 0.51498 0.0
N919 N 0.98101 0.91576 0.54321 0.0
C920 C 0.97417 0.83172 0.52283 0.0
C921 C 0.98743 0.88841 0.538 0.0
N922 N 0.96532 0.84926 0.47534 0.0
N923 N 0.98666 0.87599 0.58783 0.0
H924 H 0.97617 0.92937 0.52653 0.0
H925 H 0.97576 0.92327 0.56329 0.0
H926 H 0.98287 0.86211 0.60458 0.0
H927 H 0.99401 0.89616 0.59423 0.0
H928 H 0.95293 0.8314 0.4693 0.0
H929 H 0.96461 0.8659 0.46089 0.0
H930 H 0.96827 0.79739 0.49379 0.0
H931 H 0.96627 0.78791 0.52966 0.0
C932 C 0.13049 0.77262 0.64696 0.0
C933 C 0.13126 0.76648 0.67652 0.0
C934 C 0.07929 0.76018 0.6759 0.0
C935 C 0.0783 0.76915 0.64707 0.0
N936 N 0.10253 0.78844 0.60644 0.0
N937 N 0.10641 0.75934 0.72044 0.0
C938 C 0.1038 0.77656 0.63289 0.0
C939 C 0.10564 0.76169 0.69139 0.0
N940 N 0.15521 0.77392 0.63217 0.0
N941 N 0.05534 0.74894 0.6881 0.0
H942 H 0.12532 0.76027 0.73259 0.0
H943 H 0.08822 0.75898 0.7327 0.0
H944 H 0.03572 0.74662 0.67729 0.0
H945 H 0.05551 0.73931 0.70799 0.0
H946 H 0.15576 0.77527 0.61004 0.0
H947 H 0.17517 0.77124 0.64178 0.0
H948 H 0.12028 0.79704 0.59633 0.0
H949 H 0.08338 0.79207 0.59561 0.0
C950 C 0.99705 0.65971 0.57382 0.0
C951 C 0.97708 0.63888 0.58328 0.0
C952 C 0.95122 0.67521 0.6082 0.0
C953 C 0.96933 0.69631 0.59613 0.0
N954 N 0.00627 0.70904 0.56317 0.0
N955 N 0.93248 0.62693 0.60544 0.0
C956 C 0.99147 0.6887 0.57782 0.0
C957 C 0.95338 0.64665 0.59936 0.0
N958 N 0.0217 0.65178 0.56166 0.0
N959 N 0.93278 0.68226 0.62898 0.0
H960 H 0.93326 0.60577 0.59929 0.0
H961 H 0.91323 0.63201 0.61437 0.0
H962 H 0.93101 0.70287 0.63654 0.0
H963 H 0.92123 0.66736 0.64065 0.0
H964 H 0.03843 0.66595 0.55718 0.0
H965 H 0.02655 0.63071 0.55836 0.0
H966 H 0.02055 0.70448 0.54728 0.0
H967 H 0.00236 0.73051 0.56485 0.0
C968 C 0.79792 0.89819 0.20868 0.0
C969 C 0.76772 0.8978 0.20775 0.0
C970 C 0.76856 0.94708 0.22416 0.0
C971 C 0.79851 0.94637 0.2284 0.0
N972 N 0.84163 0.92018 0.22821 0.0
N973 N 0.72388 0.92032 0.21818 0.0
C974 C 0.81327 0.9217 0.2214 0.0
C975 C 0.7529 0.92186 0.2164 0.0
N976 N 0.8119 0.8763 0.19694 0.0
N977 N 0.7552 0.97211 0.22665 0.0
H978 H 0.71155 0.90228 0.21258 0.0
H979 H 0.7122 0.93609 0.22745 0.0
H980 H 0.76607 0.99115 0.23177 0.0
H981 H 0.73388 0.97456 0.22094 0.0
H982 H 0.83383 0.87669 0.19418 0.0
H983 H 0.8013 0.85862 0.18774 0.0
H984 H 0.85279 0.90168 0.22659 0.0
H985 H 0.85364 0.93681 0.23771 0.0
C986 C 0.78815 0.13115 0.22986 0.0
C987 C 0.79012 0.14956 0.2539 0.0
C988 C 0.81781 0.11499 0.28017 0.0
C989 C 0.81297 0.09531 0.25743 0.0
N990 N 0.79012 0.08307 0.21212 0.0
N991 N 0.80303 0.15765 0.30349 0.0
C992 C 0.79735 0.10298 0.23255 0.0
C993 C 0.80395 0.14113 0.2795 0.0
N994 N 0.77805 0.14078 0.20429 0.0
N995 N 0.83649 0.10911 0.30196 0.0
H996 H 0.79309 0.17697 0.30391 0.0
H997 H 0.80994 0.15111 0.32356 0.0
H998 H 0.84757 0.09045 0.30288 0.0
H999 H 0.84314 0.12382 0.31759 0.0
H1000 H 0.77896 0.12939 0.18526 0.0
H1001 H 0.77091 0.1612 0.20159 0.0
H1002 H 0.77608 0.0866 0.19511 0.0
H1003 H 0.79623 0.06217 0.21335 0.0
C1004 C 0.35646 0.93736 0.99675 0.0
C1005 C 0.36582 0.94359 0.02516 0.0
C1006 C 0.32681 0.91385 0.04366 0.0
C1007 C 0.31983 0.90478 0.01534 0.0
N1008 N 0.32707 0.90734 0.96475 0.0
N1009 N 0.36101 0.93814 0.07585 0.0
C1010 C 0.33423 0.91661 0.99178 0.0
C1011 C 0.35105 0.93224 0.04871 0.0
N1012 N 0.36878 0.95149 0.97463 0.0
N1013 N 0.31039 0.90465 0.06566 0.0
H1014 H 0.37805 0.95236 0.08031 0.0
H1015 H 0.35349 0.92803 0.09392 0.0
H1016 H 0.29311 0.89036 0.06287 0.0
H1017 H 0.31249 0.91253 0.0864 0.0
H1018 H 0.36131 0.95004 0.95359 0.0
H1019 H 0.38546 0.96646 0.97756 0.0
H1020 H 0.33882 0.91237 0.94686 0.0
H1021 H 0.30975 0.89347 0.96026 0.0
C1022 C 0.2225 0.41659 0.29845 0.0
C1023 C 0.22971 0.40014 0.32249 0.0
C1024 C 0.18215 0.40574 0.3415 0.0
C1025 C 0.17415 0.42009 0.31628 0.0
N1026 N 0.18482 0.43474 0.26841 0.0
N1027 N 0.21527 0.37456 0.36434 0.0
C1028 C 0.19382 0.42435 0.29408 0.0
C1029 C 0.20919 0.39339 0.34329 0.0
N1030 N 0.24321 0.42539 0.28021 0.0
N1031 N 0.16449 0.40502 0.36426 0.0
H1032 H 0.23491 0.36513 0.36648 0.0
H1033 H 0.20009 0.36644 0.37817 0.0
H1034 H 0.14467 0.41421 0.36403 0.0
H1035 H 0.17054 0.39759 0.38426 0.0
H1036 H 0.23988 0.43999 0.2641 0.0
H1037 H 0.26442 0.41991 0.28263 0.0
H1038 H 0.19744 0.43554 0.25047 0.0
H1039 H 0.16384 0.44016 0.26417 0.0
C1040 C 0.15575 0.05417 0.4638 0.0
C1041 C 0.15793 0.02567 0.45481 0.0
C1042 C 0.20991 0.03097 0.4575 0.0
C1043 C 0.20773 0.06041 0.46218 0.0
N1044 N 0.17843 0.10094 0.46672 0.0
N1045 N 0.18712 0.98813 0.43838 0.0
C1046 C 0.18061 0.0723 0.46478 0.0
C1047 C 0.18503 0.01431 0.45049 0.0
N1048 N 0.13004 0.06374 0.47184 0.0
N1049 N 0.23571 0.01875 0.46053 0.0
H1050 H 0.16947 0.97534 0.43223 0.0
H1051 H 0.20635 0.98022 0.43192 0.0
H1052 H 0.25435 0.03016 0.46654 0.0
H1053 H 0.23806 0.99697 0.46013 0.0
H1054 H 0.12762 0.08345 0.48129 0.0
H1055 H 0.11147 0.05095 0.47143 0.0
H1056 H 0.15908 0.11094 0.46546 0.0
H1057 H 0.19606 0.11495 0.46728 0.0
C1058 C 0.65411 0.11153 0.75752 0.0
C1059 C 0.68184 0.11214 0.77014 0.0
C1060 C 0.66639 0.07633 0.80435 0.0
C1061 C 0.64052 0.07212 0.78847 0.0
N1062 N 0.61014 0.08433 0.74847 0.0
N1063 N 0.71543 0.09385 0.80446 0.0
C1064 C 0.63418 0.08967 0.76492 0.0
C1065 C 0.68821 0.09448 0.79356 0.0
N1066 N 0.64693 0.1319 0.73846 0.0
N1067 N 0.66991 0.06313 0.82994 0.0
H1068 H 0.73206 0.10691 0.79731 0.0
H1069 H 0.72202 0.07895 0.81918 0.0
H1070 H 0.65406 0.05003 0.83859 0.0
H1071 H 0.6872 0.06738 0.84384 0.0
H1072 H 0.62626 0.13423 0.73052 0.0
H1073 H 0.66117 0.14816 0.73267 0.0
H1074 H 0.60618 0.09425 0.72912 0.0
H1075 H 0.59501 0.06847 0.75299 0.0
C1076 C 0.3817 0.04507 0.53129 0.0
C1077 C 0.40584 0.04758 0.51375 0.0
C1078 C 0.38097 0.08084 0.48333 0.0
C1079 C 0.35547 0.07471 0.49797 0.0
N1080 N 0.33055 0.0485 0.53426 0.0
N1081 N 0.427 0.06448 0.47032 0.0
C1082 C 0.35554 0.05636 0.52174 0.0
C1083 C 0.40518 0.06468 0.48908 0.0
N1084 N 0.38393 0.03234 0.55725 0.0
N1085 N 0.38228 0.10263 0.46441 0.0
H1086 H 0.44493 0.05242 0.47326 0.0
H1087 H 0.42605 0.0742 0.45049 0.0
H1088 H 0.3652 0.1156 0.46035 0.0
H1089 H 0.40115 0.10974 0.45519 0.0
H1090 H 0.36787 0.03236 0.57216 0.0
H1091 H 0.40286 0.02407 0.56497 0.0
H1092 H 0.32898 0.03274 0.54955 0.0
H1093 H 0.31088 0.05605 0.52777 0.0
C1094 C 0.63376 0.44325 0.5041 0.0
C1095 C 0.63042 0.45546 0.53148 0.0
C1096 C 0.66512 0.42347 0.5522 0.0
C1097 C 0.66789 0.41069 0.52495 0.0
N1098 N 0.65234 0.40523 0.47577 0.0
N1099 N 0.63877 0.45463 0.58236 0.0
C1100 C 0.65129 0.41953 0.50116 0.0
C1101 C 0.64492 0.4448 0.55578 0.0
N1102 N 0.62101 0.45506 0.48078 0.0
N1103 N 0.6821 0.41543 0.57458 0.0
H1104 H 0.62435 0.47048 0.58575 0.0
H1105 H 0.64618 0.44577 0.60122 0.0
H1106 H 0.69577 0.39863 0.57336 0.0
H1107 H 0.68384 0.42622 0.594 0.0
H1108 H 0.62508 0.44939 0.45983 0.0
H1109 H 0.60751 0.47197 0.48224 0.0
H1110 H 0.63853 0.40847 0.45852 0.0
H1111 H 0.66592 0.38868 0.47241 0.0
C1112 C 0.76805 0.32662 0.38434 0.0
C1113 C 0.74246 0.31209 0.37522 0.0
C1114 C 0.72433 0.31453 0.4238 0.0
C1115 C 0.74961 0.32979 0.43261 0.0
N1116 N 0.79196 0.3567 0.42018 0.0
N1117 N 0.69399 0.29713 0.3843 0.0
C1118 C 0.77036 0.33782 0.41248 0.0
C1119 C 0.71984 0.30761 0.39437 0.0
N1120 N 0.79067 0.32863 0.36656 0.0
N1121 N 0.70531 0.30553 0.44367 0.0
H1122 H 0.69012 0.29173 0.3629 0.0
H1123 H 0.67581 0.29598 0.39654 0.0
H1124 H 0.70771 0.31058 0.4653 0.0
H1125 H 0.68815 0.29157 0.43907 0.0
H1126 H 0.81092 0.33604 0.37319 0.0
H1127 H 0.78995 0.32074 0.34572 0.0
H1128 H 0.80611 0.36558 0.40572 0.0
H1129 H 0.79401 0.3657 0.44054 0.0
C1130 C 0.53102 0.01139 0.90002 0.0
C1131 C 0.53346 0.9929 0.92353 0.0
C1132 C 0.56397 0.96265 0.89604 0.0
C1133 C 0.55882 0.97925 0.87152 0.0
N1134 N 0.53391 0.01701 0.84884 0.0
N1135 N 0.54762 0.94809 0.94232 0.0
C1136 C 0.54144 0.00307 0.87312 0.0
C1137 C 0.54862 0.9677 0.92109 0.0
N1138 N 0.51941 0.03717 0.9036 0.0
N1139 N 0.58448 0.94291 0.89588 0.0
H1140 H 0.53639 0.9508 0.96099 0.0
H1141 H 0.55571 0.92802 0.94023 0.0
H1142 H 0.59704 0.93918 0.87831 0.0
H1143 H 0.59112 0.93232 0.91411 0.0
H1144 H 0.51978 0.05276 0.88807 0.0
H1145 H 0.51157 0.04395 0.92301 0.0
H1146 H 0.5189 0.03264 0.8483 0.0
H1147 H 0.54073 0.01128 0.82867 0.0
C1148 C 0.2892 0.22112 0.39042 0.0
C1149 C 0.30915 0.23965 0.40498 0.0
C1150 C 0.3166 0.20419 0.44177 0.0
C1151 C 0.29514 0.18643 0.42832 0.0
N1152 N 0.25679 0.18034 0.39344 0.0
N1153 N 0.33725 0.25158 0.44735 0.0
C1154 C 0.28017 0.19558 0.40366 0.0
C1155 C 0.3214 0.23204 0.43159 0.0
N1156 N 0.27969 0.22739 0.3635 0.0
N1157 N 0.33354 0.194 0.46317 0.0
H1158 H 0.34126 0.27221 0.4405 0.0
H1159 H 0.34417 0.24815 0.46826 0.0
H1160 H 0.33148 0.17345 0.4708 0.0
H1161 H 0.35146 0.20505 0.47154 0.0
H1162 H 0.26765 0.2132 0.35063 0.0
H1163 H 0.28574 0.24592 0.35305 0.0
H1164 H 0.2433 0.18745 0.3773 0.0
H1165 H 0.24924 0.16178 0.40294 0.0
C1166 C 0.46188 0.51202 0.83961 0.0
C1167 C 0.46426 0.48466 0.85134 0.0
C1168 C 0.41722 0.47012 0.83109 0.0
C1169 C 0.41537 0.49711 0.8183 0.0
N1170 N 0.43555 0.54353 0.80892 0.0
N1171 N 0.44558 0.43717 0.85801 0.0
C1172 C 0.43762 0.51802 0.82217 0.0
C1173 C 0.44221 0.4636 0.84711 0.0
N1174 N 0.48271 0.53232 0.84556 0.0
N1175 N 0.39499 0.45075 0.82783 0.0
H1176 H 0.46272 0.43208 0.8713 0.0
H1177 H 0.43218 0.41974 0.85321 0.0
H1178 H 0.37735 0.45377 0.81444 0.0
H1179 H 0.3932 0.43197 0.83906 0.0
H1180 H 0.48126 0.55351 0.84036 0.0
H1181 H 0.50134 0.52831 0.85713 0.0
H1182 H 0.45208 0.55868 0.80801 0.0
H1183 H 0.41734 0.54941 0.79766 0.0
C1184 C 0.76188 0.68013 0.11983 0.0
C1185 C 0.73835 0.69643 0.11164 0.0
C1186 C 0.7314 0.66808 0.06798 0.0
C1187 C 0.75711 0.65438 0.07424 0.0
N1188 N 0.79866 0.64907 0.10468 0.0
N1189 N 0.70327 0.70899 0.07588 0.0
C1190 C 0.77278 0.66065 0.09992 0.0
C1191 C 0.72372 0.69119 0.08519 0.0
N1192 N 0.77345 0.68295 0.14677 0.0
N1193 N 0.71386 0.65842 0.04603 0.0
H1194 H 0.69708 0.7264 0.08766 0.0
H1195 H 0.69424 0.70802 0.05538 0.0
H1196 H 0.7184 0.64102 0.03337 0.0
H1197 H 0.69349 0.66574 0.04226 0.0
H1198 H 0.7887 0.66966 0.15504 0.0
H1199 H 0.76606 0.69716 0.16175 0.0
H1200 H 0.81254 0.65527 0.1214 0.0
H1201 H 0.80727 0.63466 0.09067 0.0
C1202 C 0.93904 0.0485 0.13635 0.0
C1203 C 0.9529 0.025 0.12488 0.0
C1204 C 0.92173 0.99266 0.15153 0.0
C1205 C 0.90671 0.01608 0.16161 0.0
N1206 N 0.89709 0.06565 0.15895 0.0
N1207 N 0.95418 0.97478 0.11683 0.0
C1208 C 0.91421 0.04385 0.15265 0.0
C1209 C 0.94318 0.99707 0.13099 0.0
N1210 N 0.95018 0.07524 0.13256 0.0
N1211 N 0.91666 0.96643 0.16271 0.0
H1212 H 0.97006 0.97727 0.10178 0.0
H1213 H 0.94588 0.95416 0.11809 0.0
H1214 H 0.90154 0.96229 0.17817 0.0
H1215 H 0.92915 0.94924 0.15855 0.0
H1216 H 0.94298 0.09291 0.14316 0.0
H1217 H 0.96816 0.07959 0.12051 0.0
H1218 H 0.89979 0.08581 0.15053 0.0
H1219 H 0.87848 0.06297 0.17047 0.0
C1220 C 0.27489 0.77562 0.11998 0.0
C1221 C 0.25233 0.7555 0.12439 0.0
C1222 C 0.22623 0.77314 0.08259 0.0
C1223 C 0.24887 0.7931 0.0783 0.0
N1224 N 0.29011 0.81919 0.09726 0.0
N1225 N 0.20382 0.73942 0.11459 0.0
C1226 C 0.27164 0.79627 0.09856 0.0
C1227 C 0.22703 0.75573 0.1072 0.0
N1228 N 0.30013 0.77395 0.1349 0.0
N1229 N 0.20478 0.76989 0.06251 0.0
H1230 H 0.20384 0.72661 0.13258 0.0
H1231 H 0.18392 0.74045 0.10447 0.0
H1232 H 0.20326 0.78285 0.04469 0.0
H1233 H 0.18941 0.7535 0.06265 0.0
H1234 H 0.31837 0.78598 0.13012 0.0
H1235 H 0.30375 0.75895 0.15056 0.0
H1236 H 0.30553 0.82415 0.11301 0.0
H1237 H 0.28805 0.83484 0.08188 0.0
C1238 C 0.02404 0.45523 0.18979 0.0
C1239 C 0.04325 0.46587 0.16926 0.0
C1240 C 0.08148 0.46917 0.2056 0.0
C1241 C 0.06166 0.46119 0.22675 0.0
N1242 N 0.01281 0.45221 0.23984 0.0
N1243 N 0.08831 0.4892 0.15891 0.0
C1244 C 0.03254 0.45574 0.21911 0.0
C1245 C 0.07139 0.47476 0.17757 0.0
N1246 N 0.99804 0.44389 0.18123 0.0
N1247 N 0.11011 0.4699 0.21174 0.0
H1248 H 0.08161 0.49402 0.1382 0.0
H1249 H 0.10787 0.49881 0.16491 0.0
H1250 H 0.11874 0.46454 0.23157 0.0
H1251 H 0.12546 0.47285 0.19628 0.0
H1252 H 0.9844 0.4331 0.19491 0.0
H1253 H 0.99108 0.44312 0.15993 0.0
H1254 H 0.99094 0.45103 0.23557 0.0
H1255 H 0.01807 0.45325 0.26156 0.0
C1256 C 0.39628 0.72781 0.27076 0.0
C1257 C 0.37632 0.71027 0.28518 0.0
C1258 C 0.40212 0.72053 0.33048 0.0
C1259 C 0.42363 0.73555 0.31539 0.0
N1260 N 0.44478 0.74629 0.27007 0.0
N1261 N 0.36304 0.68562 0.32794 0.0
C1262 C 0.42176 0.73711 0.28519 0.0
C1263 C 0.38002 0.70535 0.31485 0.0
N1264 N 0.39054 0.73642 0.24354 0.0
N1265 N 0.40203 0.7217 0.35959 0.0
H1266 H 0.34683 0.67395 0.31715 0.0
H1267 H 0.36667 0.67907 0.34882 0.0
H1268 H 0.41749 0.73299 0.37179 0.0
H1269 H 0.38525 0.71359 0.37151 0.0
H1270 H 0.4032 0.75147 0.23319 0.0
H1271 H 0.37164 0.7309 0.23241 0.0
H1272 H 0.44526 0.74525 0.24788 0.0
H1273 H 0.4645 0.7518 0.27964 0.0
C1274 C 0.02951 0.35669 0.96474 0.0
C1275 C 0.00578 0.37369 0.96917 0.0
C1276 C 0.97709 0.34445 0.93513 0.0
C1277 C 0.00188 0.33014 0.92773 0.0
N1278 N 0.05248 0.32408 0.93341 0.0
N1279 N 0.95748 0.3856 0.95728 0.0
C1280 C 0.02828 0.33636 0.94221 0.0
C1281 C 0.97958 0.36794 0.95419 0.0
N1282 N 0.05311 0.35988 0.98226 0.0
N1283 N 0.95108 0.33514 0.92436 0.0
H1284 H 0.95827 0.40273 0.97143 0.0
H1285 H 0.93907 0.38451 0.94444 0.0
H1286 H 0.94851 0.31775 0.9106 0.0
H1287 H 0.93187 0.34285 0.93108 0.0
H1288 H 0.06997 0.34624 0.98206 0.0
H1289 H 0.05473 0.37477 0.9988 0.0
H1290 H 0.07284 0.33025 0.94086 0.0
H1291 H 0.05256 0.30909 0.91701 0.0
C1292 C 0.61476 0.78973 0.29679 0.0
C1293 C 0.61382 0.77182 0.27241 0.0
C1294 C 0.57065 0.74741 0.28949 0.0
C1295 C 0.56912 0.76825 0.31121 0.0
N1296 N 0.58959 0.80853 0.33698 0.0
N1297 N 0.59163 0.73345 0.24495 0.0
C1298 C 0.59138 0.78901 0.31551 0.0
C1299 C 0.59225 0.75023 0.26885 0.0
N1300 N 0.6381 0.8073 0.30194 0.0
N1301 N 0.55122 0.72519 0.28845 0.0
H1302 H 0.60761 0.73433 0.2299 0.0
H1303 H 0.57472 0.71963 0.23917 0.0
H1304 H 0.53471 0.72295 0.30281 0.0
H1305 H 0.55263 0.70783 0.27489 0.0
H1306 H 0.64144 0.81925 0.32051 0.0
H1307 H 0.65543 0.80827 0.28844 0.0
H1308 H 0.60315 0.8263 0.33937 0.0
H1309 H 0.57365 0.80746 0.35209 0.0
C1310 C 0.05582 0.1406 0.94224 0.0
C1311 C 0.03329 0.12935 0.95883 0.0
C1312 C 0.99952 0.15976 0.93428 0.0
C1313 C 0.02182 0.17016 0.91692 0.0
N1314 N 0.07003 0.16773 0.90092 0.0
N1315 N 0.98309 0.12412 0.96762 0.0
C1316 C 0.04961 0.15961 0.91977 0.0
C1317 C 0.00492 0.13776 0.95396 0.0
N1318 N 0.0833 0.13405 0.94882 0.0
N1319 N 0.97327 0.17125 0.93224 0.0
H1320 H 0.98632 0.10796 0.98219 0.0
H1321 H 0.96166 0.12711 0.96294 0.0
H1322 H 0.96809 0.18635 0.9171 0.0
H1323 H 0.95709 0.16711 0.94654 0.0
H1324 H 0.101 0.144 0.93983 0.0
H1325 H 0.08867 0.11995 0.96486 0.0
H1326 H 0.08972 0.15847 0.89977 0.0
H1327 H 0.06661 0.18248 0.88492 0.0
C1328 C 0.3997 0.33298 0.21098 0.0
C1329 C 0.40451 0.3172 0.23609 0.0
C1330 C 0.43201 0.28355 0.20918 0.0
C1331 C 0.42895 0.3005 0.18453 0.0
N1332 N 0.41569 0.34471 0.16372 0.0
N1333 N 0.42995 0.28101 0.26068 0.0
C1334 C 0.41446 0.32622 0.18593 0.0
C1335 C 0.42216 0.29356 0.23568 0.0
N1336 N 0.38024 0.35373 0.21072 0.0
N1337 N 0.44296 0.2573 0.20705 0.0
H1338 H 0.42317 0.28783 0.28052 0.0
H1339 H 0.44516 0.2656 0.26201 0.0
H1340 H 0.44988 0.24884 0.18795 0.0
H1341 H 0.4428 0.24284 0.22366 0.0
H1342 H 0.37354 0.36373 0.19216 0.0
H1343 H 0.3689 0.35933 0.22862 0.0
H1344 H 0.40798 0.36501 0.16475 0.0
H1345 H 0.42697 0.34089 0.14529 0.0
C1346 C 0.49658 0.35057 0.0029 0.0
C1347 C 0.51839 0.37049 0.01164 0.0
C1348 C 0.51382 0.35487 0.06105 0.0
C1349 C 0.4947 0.33259 0.05163 0.0
N1350 N 0.47357 0.3053 0.01217 0.0
N1351 N 0.55176 0.38795 0.04819 0.0
C1352 C 0.48759 0.32933 0.02215 0.0
C1353 C 0.52819 0.37163 0.04051 0.0
N1354 N 0.48387 0.35233 0.97648 0.0
N1355 N 0.5174 0.36087 0.0895 0.0
H1356 H 0.56317 0.40019 0.03369 0.0
H1357 H 0.56152 0.38725 0.06835 0.0
H1358 H 0.50642 0.34991 0.10525 0.0
H1359 H 0.52898 0.37859 0.09727 0.0
H1360 H 0.46594 0.34001 0.9702 0.0
H1361 H 0.48936 0.36803 0.96193 0.0
H1362 H 0.4704 0.30085 0.9905 0.0
H1363 H 0.46799 0.28836 0.02519 0.0
C1364 C 0.60116 0.25277 0.19854 0.0
C1365 C 0.62247 0.27471 0.1976 0.0
C1366 C 0.59063 0.30317 0.16842 0.0
C1367 C 0.5684 0.28246 0.1718 0.0
N1368 N 0.55084 0.24003 0.1947 0.0
N1369 N 0.63597 0.32289 0.18623 0.0
C1370 C 0.5732 0.25787 0.18809 0.0
C1371 C 0.61677 0.30054 0.18384 0.0
N1372 N 0.60784 0.22682 0.20871 0.0
N1373 N 0.58727 0.32469 0.14952 0.0
H1374 H 0.65534 0.32187 0.19745 0.0
H1375 H 0.6316 0.34314 0.1793 0.0
H1376 H 0.5687 0.32703 0.13726 0.0
H1377 H 0.60382 0.33864 0.14394 0.0
H1378 H 0.59403 0.20914 0.20707 0.0
H1379 H 0.62812 0.22228 0.21654 0.0
H1380 H 0.5526 0.22343 0.20899 0.0
H1381 H 0.52988 0.24336 0.18812 0.0
C1382 C 0.44086 0.14283 0.08305 0.0
C1383 C 0.46531 0.1338 0.06891 0.0
C1384 C 0.4842 0.18258 0.06739 0.0
C1385 C 0.46136 0.19115 0.08431 0.0
N1386 N 0.42025 0.17891 0.11215 0.0
N1387 N 0.5125 0.14401 0.05164 0.0
C1388 C 0.4402 0.17116 0.09314 0.0
C1389 C 0.48763 0.15338 0.06218 0.0
N1390 N 0.41802 0.12451 0.08623 0.0
N1391 N 0.50193 0.2024 0.05532 0.0
H1392 H 0.51587 0.12275 0.04747 0.0
H1393 H 0.53067 0.15698 0.04937 0.0
H1394 H 0.49974 0.22408 0.05803 0.0
H1395 H 0.51706 0.19747 0.04038 0.0
H1396 H 0.39845 0.13068 0.09361 0.0
H1397 H 0.41779 0.10356 0.07917 0.0
H1398 H 0.40624 0.16455 0.12173 0.0
H1399 H 0.41928 0.19937 0.12036 0.0
C1400 C 0.30087 0.3942 0.71194 0.0
C1401 C 0.27091 0.39558 0.70827 0.0
C1402 C 0.27362 0.44591 0.72102 0.0
C1403 C 0.30299 0.4437 0.72796 0.0
N1404 N 0.34431 0.41525 0.73314 0.0
N1405 N 0.22795 0.42155 0.71236 0.0
C1406 C 0.31666 0.41776 0.72404 0.0
C1407 C 0.25705 0.42115 0.71354 0.0
N1408 N 0.31423 0.37052 0.70342 0.0
N1409 N 0.26179 0.47185 0.72076 0.0
H1410 H 0.21501 0.40396 0.70661 0.0
H1411 H 0.21651 0.43864 0.71921 0.0
H1412 H 0.27341 0.49051 0.72577 0.0
H1413 H 0.24125 0.47526 0.71303 0.0
H1414 H 0.33627 0.36928 0.70267 0.0
H1415 H 0.30323 0.35276 0.69486 0.0
H1416 H 0.35445 0.39609 0.73389 0.0
H1417 H 0.35663 0.43201 0.74201 0.0
C1418 C 0.31933 0.64273 0.76449 0.0
C1419 C 0.29525 0.64624 0.74619 0.0
C1420 C 0.29644 0.59659 0.73102 0.0
C1421 C 0.31845 0.59241 0.75162 0.0
N1422 N 0.35004 0.61041 0.78931 0.0
N1423 N 0.25904 0.62657 0.71375 0.0
C1424 C 0.32975 0.61522 0.76869 0.0
C1425 C 0.28342 0.62322 0.72971 0.0
N1426 N 0.33261 0.66586 0.7773 0.0
N1427 N 0.2881 0.57509 0.71268 0.0
H1428 H 0.24914 0.64585 0.71198 0.0
H1429 H 0.24746 0.60997 0.70381 0.0
H1430 H 0.29661 0.55508 0.71359 0.0
H1431 H 0.27433 0.57755 0.69522 0.0
H1432 H 0.35197 0.66526 0.7885 0.0
H1433 H 0.32543 0.68629 0.77486 0.0
H1434 H 0.35668 0.62524 0.8048 0.0
H1435 H 0.35925 0.59087 0.792 0.0
C1436 C 0.86109 0.43911 0.56686 0.0
C1437 C 0.87708 0.44998 0.54388 0.0
C1438 C 0.84597 0.42382 0.50943 0.0
C1439 C 0.83023 0.41261 0.53242 0.0
N1440 N 0.81869 0.4131 0.58218 0.0
N1441 N 0.88205 0.45773 0.49349 0.0
C1442 C 0.8364 0.42155 0.56091 0.0
C1443 C 0.86858 0.44396 0.51517 0.0
N1444 N 0.87024 0.44469 0.5943 0.0
N1445 N 0.83976 0.41451 0.48221 0.0
H1446 H 0.89904 0.47225 0.49695 0.0
H1447 H 0.87519 0.45651 0.47224 0.0
H1448 H 0.82229 0.40103 0.47706 0.0
H1449 H 0.85248 0.41901 0.46486 0.0
H1450 H 0.86162 0.4349 0.61207 0.0
H1451 H 0.88767 0.45823 0.59936 0.0
H1452 H 0.82032 0.42089 0.60298 0.0
H1453 H 0.80085 0.39967 0.57857 0.0
C1454 C 0.71026 0.89326 0.83789 0.0
C1455 C 0.73305 0.90354 0.8211 0.0
C1456 C 0.69954 0.92955 0.79149 0.0
C1457 C 0.67747 0.92216 0.8105 0.0
N1458 N 0.66331 0.90165 0.85526 0.0
N1459 N 0.75036 0.93516 0.78482 0.0
C1460 C 0.68317 0.90521 0.83464 0.0
C1461 C 0.72798 0.92275 0.79867 0.0
N1462 N 0.71426 0.8715 0.85637 0.0
N1463 N 0.69321 0.94205 0.76606 0.0
H1464 H 0.77155 0.93087 0.78964 0.0
H1465 H 0.74806 0.95155 0.77038 0.0
H1466 H 0.6725 0.94654 0.75955 0.0
H1467 H 0.70807 0.94532 0.75018 0.0
H1468 H 0.69761 0.86127 0.86689 0.0
H1469 H 0.7337 0.86181 0.85907 0.0
H1470 H 0.66759 0.89196 0.87468 0.0
H1471 H 0.64349 0.91085 0.85435 0.0
C1472 C 0.68788 0.51914 0.9544 0.0
C1473 C 0.66121 0.53189 0.95715 0.0
C1474 C 0.68556 0.57804 0.96543 0.0
C1475 C 0.71217 0.56489 0.96411 0.0
N1476 N 0.73844 0.52211 0.96542 0.0
N1477 N 0.63443 0.572 0.97083 0.0
C1478 C 0.71324 0.53515 0.96111 0.0
C1479 C 0.65998 0.56093 0.96446 0.0
N1480 N 0.68914 0.49216 0.94403 0.0
N1481 N 0.68463 0.60684 0.96615 0.0
H1482 H 0.61535 0.56 0.9702 0.0
H1483 H 0.63247 0.59229 0.97908 0.0
H1484 H 0.70285 0.62009 0.96684 0.0
H1485 H 0.66584 0.61768 0.96393 0.0
H1486 H 0.70813 0.48306 0.93859 0.0
H1487 H 0.67114 0.47966 0.93832 0.0
H1488 H 0.73993 0.50025 0.96632 0.0
H1489 H 0.75739 0.53311 0.97117 0.0
C1490 C 0.15831 0.59094 0.2406 0.0
C1491 C 0.17661 0.60524 0.26087 0.0
C1492 C 0.14995 0.58374 0.29988 0.0
C1493 C 0.13461 0.5663 0.27967 0.0
N1494 N 0.12547 0.55126 0.23083 0.0
N1495 N 0.19072 0.61565 0.30964 0.0
C1496 C 0.13873 0.56965 0.24998 0.0
C1497 C 0.17247 0.60201 0.29053 0.0
N1498 N 0.15985 0.5976 0.21235 0.0
N1499 N 0.14265 0.58296 0.32791 0.0
H1500 H 0.20663 0.63012 0.30345 0.0
H1501 H 0.19109 0.6117 0.33144 0.0
H1502 H 0.12614 0.56981 0.33524 0.0
H1503 H 0.15119 0.59686 0.34343 0.0
H1504 H 0.14512 0.59011 0.19689 0.0
H1505 H 0.17444 0.61263 0.20466 0.0
H1506 H 0.13035 0.55039 0.20932 0.0
H1507 H 0.11096 0.53529 0.23666 0.0
C1508 C 0.90982 0.56283 0.99197 0.0
C1509 C 0.9095 0.54603 0.01687 0.0
C1510 C 0.85917 0.55579 0.02331 0.0
C1511 C 0.86014 0.5741 0.99951 0.0
N1512 N 0.88838 0.60094 0.9662 0.0
N1513 N 0.88602 0.53142 0.05974 0.0
C1514 C 0.8861 0.57942 0.98537 0.0
C1515 C 0.88481 0.54404 0.03367 0.0
N1516 N 0.93217 0.56202 0.9739 0.0
N1517 N 0.83367 0.54843 0.0351 0.0
H1518 H 0.90452 0.52277 0.06806 0.0
H1519 H 0.86954 0.53185 0.07418 0.0
H1520 H 0.81433 0.55621 0.02793 0.0
H1521 H 0.83136 0.53276 0.0504 0.0
H1522 H 0.93198 0.57147 0.95392 0.0
H1523 H 0.94981 0.54971 0.97756 0.0
H1524 H 0.90761 0.6075 0.95736 0.0
H1525 H 0.87172 0.61424 0.9615 0.0
C1526 C 0.12958 0.93736 0.99908 0.0
C1527 C 0.12365 0.94518 0.02754 0.0
C1528 C 0.15347 0.90756 0.04585 0.0
C1529 C 0.15902 0.89939 0.01738 0.0
N1530 N 0.14949 0.90333 0.96683 0.0
N1531 N 0.1255 0.93536 0.07784 0.0
C1532 C 0.14602 0.91323 0.99396 0.0
C1533 C 0.13428 0.92952 0.05089 0.0
N1534 N 0.12038 0.95372 0.97704 0.0
N1535 N 0.16696 0.89458 0.06806 0.0
H1536 H 0.1118 0.95156 0.08233 0.0
H1537 H 0.12996 0.92298 0.0955 0.0
H1538 H 0.1797 0.87723 0.06533 0.0
H1539 H 0.16677 0.90173 0.08909 0.0
H1540 H 0.12667 0.95134 0.95607 0.0
H1541 H 0.10761 0.97101 0.97995 0.0
H1542 H 0.13815 0.91036 0.94909 0.0
H1543 H 0.1625 0.88665 0.9621 0.0
loop_
_geom_bond_atom_site_label_1
_geom_bond_atom_site_label_2
_geom_bond_distance
_geom_bond_site_symmetry_2
_ccdc_geom_bond_type
P0 O11 1.490 . S
P0 C14 1.812 . S
P0 C20 1.803 . S
P0 C26 1.819 . S
H1 C15 0.941 . S
H2 C16 0.939 . S
H3 C18 0.940 . S
H4 C19 0.940 . S
H5 C21 0.939 . S
H6 C22 0.942 . S
H7 C24 0.940 . S
H8 C25 0.939 . S
H9 C27 0.941 . S
H10 C31 0.939 . S
O11 P0 1.490 . S
H12 C28 0.939 . S
H13 C30 0.940 . S
C14 P0 1.812 . S
C14 C15 1.389 . S
C14 C19 1.391 . S
C15 H1 0.941 . S
C15 C14 1.389 . S
C15 C16 1.397 . S
C16 H2 0.939 . S
C16 C15 1.397 . S
C16 C17 1.378 1_455 S
C17 C16 1.378 1_655 S
C17 C18 1.378 . S
C18 H3 0.940 . S
C18 C17 1.378 . S
C18 C19 1.396 1_655 S
C19 H4 0.940 . S
C19 C14 1.391 . S
C19 C18 1.396 1_455 S
C20 P0 1.803 . S
C20 C21 1.378 . S
C20 C25 1.400 . S
C21 H5 0.939 . S
C21 C20 1.378 . S
C21 C22 1.361 . S
C22 H6 0.942 . S
C22 C21 1.361 . S
C22 C23 1.369 1_545 S
C23 C22 1.369 1_565 S
C23 C24 1.404 . S
C24 H7 0.940 . S
C24 C23 1.404 . S
C24 C25 1.389 1_565 S
C25 H8 0.939 . S
C25 C20 1.400 . S
C25 C24 1.389 1_545 S
C26 P0 1.819 . S
C26 C27 1.391 . S
C26 C31 1.391 . S
C27 H9 0.941 . S
C27 C26 1.391 . S
C27 C28 1.396 . S
C28 H12 0.939 . S
C28 C27 1.396 . S
C28 C29 1.397 1_554 S
C29 C28 1.397 1_556 S
C29 C30 1.385 . S
C30 H13 0.940 . S
C30 C29 1.385 . S
C30 C31 1.388 1_556 S
C31 H10 0.939 . S
C31 C26 1.391 . S
C31 C30 1.388 1_554 S
P32 O43 1.490 . S
P32 C46 1.812 . S
P32 C52 1.803 . S
P32 C58 1.819 . S
H33 C47 0.941 . S
H34 C48 0.939 . S
H35 C50 0.940 . S
H36 C51 0.940 . S
H37 C53 0.939 . S
H38 C54 0.942 . S
H39 C56 0.940 . S
H40 C57 0.939 . S
H41 C59 0.941 . S
H42 C63 0.939 . S
O43 P32 1.490 . S
H44 C60 0.939 . S
H45 C62 0.940 . S
C46 P32 1.812 . S
C46 C47 1.389 . S
C46 C51 1.391 . S
C47 H33 0.941 . S
C47 C46 1.389 . S
C47 C48 1.397 . S
C48 H34 0.939 . S
C48 C47 1.397 . S
C48 C49 1.378 . S
C49 C48 1.378 . S
C49 C50 1.378 . S
C50 H35 0.940 . S
C50 C49 1.378 . S
C50 C51 1.396 . S
C51 H36 0.940 . S
C51 C46 1.391 . S
C51 C50 1.396 . S
C52 P32 1.803 . S
C52 C53 1.378 . S
C52 C57 1.400 . S
C53 H37 0.939 . S
C53 C52 1.378 . S
C53 C54 1.361 . S
C54 H38 0.942 . S
C54 C53 1.361 . S
C54 C55 1.369 . S
C55 C54 1.369 . S
C55 C56 1.404 . S
C56 H39 0.940 . S
C56 C55 1.404 . S
C56 C57 1.389 . S
C57 H40 0.939 . S
C57 C52 1.400 . S
C57 C56 1.389 . S
C58 P32 1.819 . S
C58 C59 1.391 . S
C58 C63 1.391 . S
C59 H41 0.941 . S
C59 C58 1.391 . S
C59 C60 1.396 . S
C60 H44 0.939 . S
C60 C59 1.396 . S
C60 C61 1.397 . S
C61 C60 1.397 . S
C61 C62 1.385 . S
C62 H45 0.940 . S
C62 C61 1.385 . S
C62 C63 1.388 . S
C63 H42 0.939 . S
C63 C58 1.391 . S
C63 C62 1.388 . S
P64 O75 1.490 . S
P64 C78 1.812 . S
P64 C84 1.803 . S
P64 C90 1.819 . S
H65 C79 0.941 . S
H66 C80 0.939 . S
H67 C82 0.940 . S
H68 C83 0.940 . S
H69 C85 0.939 . S
H70 C86 0.942 . S
H71 C88 0.940 . S
H72 C89 0.939 . S
H73 C91 0.941 . S
H74 C95 0.939 . S
O75 P64 1.490 . S
H76 C92 0.939 . S
H77 C94 0.940 . S
C78 P64 1.812 . S
C78 C79 1.389 1_554 S
C78 C83 1.391 . S
C79 H65 0.941 . S
C79 C78 1.389 1_556 S
C79 C80 1.397 . S
C80 H66 0.939 . S
C80 C79 1.397 . S
C80 C81 1.398 . S
C81 C80 1.398 . S
C81 C82 1.347 1_556 S
C82 H67 0.940 . S
C82 C81 1.347 1_554 S
C82 C83 1.396 . S
C83 H68 0.940 . S
C83 C78 1.391 . S
C83 C82 1.396 . S
C84 P64 1.803 . S
C84 C85 1.378 . S
C84 C89 1.400 . S
C85 H69 0.939 . S
C85 C84 1.378 . S
C85 C86 1.361 . S
C86 H70 0.942 . S
C86 C85 1.361 . S
C86 C87 1.369 . S
C87 C86 1.369 . S
C87 C88 1.404 . S
C88 H71 0.940 . S
C88 C87 1.404 . S
C88 C89 1.389 . S
C89 H72 0.939 . S
C89 C84 1.400 . S
C89 C88 1.389 . S
C90 P64 1.819 . S
C90 C91 1.391 1_655 S
C90 C95 1.391 . S
C91 H73 0.941 . S
C91 C90 1.391 1_455 S
C91 C92 1.396 . S
C92 H76 0.939 . S
C92 C91 1.396 . S
C92 C93 1.397 . S
C93 C92 1.397 . S
C93 C94 1.385 1_455 S
C94 H77 0.940 . S
C94 C93 1.385 1_655 S
C94 C95 1.388 . S
C95 H74 0.939 . S
C95 C90 1.391 . S
C95 C94 1.388 . S
P96 O107 1.490 . S
P96 C110 1.812 . S
P96 C116 1.803 . S
P96 C122 1.819 . S
H97 C111 0.941 . S
H98 C112 0.939 . S
H99 C114 0.940 . S
H100 C115 0.940 . S
H101 C117 0.939 . S
H102 C118 0.942 . S
H103 C120 0.940 . S
H104 C121 0.939 . S
H105 C123 0.941 . S
H106 C127 0.939 . S
O107 P96 1.490 . S
H108 C124 0.939 . S
H109 C126 0.940 . S
C110 P96 1.812 . S
C110 C111 1.389 . S
C110 C115 1.391 . S
C111 H97 0.941 . S
C111 C110 1.389 . S
C111 C112 1.397 . S
C112 H98 0.939 . S
C112 C111 1.397 . S
C112 C113 1.378 . S
C113 C112 1.378 . S
C113 C114 1.378 . S
C114 H99 0.940 . S
C114 C113 1.378 . S
C114 C115 1.396 . S
C115 H100 0.940 . S
C115 C110 1.391 . S
C115 C114 1.396 . S
C116 P96 1.803 . S
C116 C117 1.378 . S
C116 C121 1.400 . S
C117 H101 0.939 . S
C117 C116 1.378 . S
C117 C118 1.361 . S
C118 H102 0.942 . S
C118 C117 1.361 . S
C118 C119 1.369 . S
C119 C118 1.369 . S
C119 C120 1.404 . S
C120 H103 0.940 . S
C120 C119 1.404 . S
C120 C121 1.389 . S
C121 H104 0.939 . S
C121 C116 1.400 . S
C121 C120 1.389 . S
C122 P96 1.819 . S
C122 C123 1.391 . S
C122 C127 1.391 . S
C123 H105 0.941 . S
C123 C122 1.391 . S
C123 C124 1.396 . S
C124 H108 0.939 . S
C124 C123 1.396 . S
C124 C125 1.397 . S
C125 C124 1.397 . S
C125 C126 1.385 . S
C126 H109 0.940 . S
C126 C125 1.385 . S
C126 C127 1.388 . S
C127 H106 0.939 . S
C127 C122 1.391 . S
C127 C126 1.388 . S
P128 O139 1.490 . S
P128 C142 1.812 . S
P128 C148 1.803 . S
P128 C154 1.819 . S
H129 C143 0.941 . S
H130 C144 0.939 . S
H131 C146 0.940 . S
H132 C147 0.940 . S
H133 C149 0.939 . S
H134 C150 0.942 . S
H135 C152 0.940 . S
H136 C153 0.939 . S
H137 C155 0.941 . S
H138 C159 0.939 . S
O139 P128 1.490 . S
H140 C156 0.939 . S
H141 C158 0.940 . S
C142 P128 1.812 . S
C142 C143 1.389 . S
C142 C147 1.391 . S
C143 H129 0.941 . S
C143 C142 1.389 . S
C143 C144 1.397 . S
C144 H130 0.939 . S
C144 C143 1.397 . S
C144 C145 1.378 1_565 S
C145 C144 1.378 1_545 S
C145 C146 1.378 . S
C146 H131 0.940 . S
C146 C145 1.378 . S
C146 C147 1.396 1_545 S
C147 H132 0.940 . S
C147 C142 1.391 . S
C147 C146 1.396 1_565 S
C148 P128 1.803 . S
C148 C149 1.378 . S
C148 C153 1.400 . S
C149 H133 0.939 . S
C149 C148 1.378 . S
C149 C150 1.361 . S
C150 H134 0.942 . S
C150 C149 1.361 . S
C150 C151 1.369 . S
C151 C150 1.369 . S
C151 C152 1.404 . S
C152 H135 0.940 . S
C152 C151 1.404 . S
C152 C153 1.389 . S
C153 H136 0.939 . S
C153 C148 1.400 . S
C153 C152 1.389 . S
C154 P128 1.819 . S
C154 C155 1.391 . S
C154 C159 1.391 . S
C155 H137 0.941 . S
C155 C154 1.391 . S
C155 C156 1.396 . S
C156 H140 0.939 . S
C156 C155 1.396 . S
C156 C157 1.397 . S
C157 C156 1.397 . S
C157 C158 1.385 1_455 S
C158 H141 0.940 . S
C158 C157 1.385 1_655 S
C158 C159 1.388 1_655 S
C159 H138 0.939 . S
C159 C154 1.391 . S
C159 C158 1.388 1_455 S
P160 O171 1.490 . S
P160 C174 1.812 . S
P160 C180 1.803 . S
P160 C186 1.819 . S
H161 C175 0.941 . S
H162 C176 0.939 . S
H163 C178 0.940 . S
H164 C179 0.940 . S
H165 C181 0.939 . S
H166 C182 0.942 . S
H167 C184 0.940 . S
H168 C185 0.939 . S
H169 C187 0.941 . S
H170 C191 0.939 . S
O171 P160 1.490 . S
H172 C188 0.939 . S
H173 C190 0.940 . S
C174 P160 1.812 . S
C174 C175 1.389 . S
C174 C179 1.391 . S
C175 H161 0.941 . S
C175 C174 1.389 . S
C175 C176 1.397 . S
C176 H162 0.939 . S
C176 C175 1.397 . S
C176 C177 1.378 . S
C177 C176 1.378 . S
C177 C178 1.378 . S
C178 H163 0.940 . S
C178 C177 1.378 . S
C178 C179 1.396 . S
C179 H164 0.940 . S
C179 C174 1.391 . S
C179 C178 1.396 . S
C180 P160 1.803 . S
C180 C181 1.378 . S
C180 C185 1.400 . S
C181 H165 0.939 . S
C181 C180 1.378 . S
C181 C182 1.361 . S
C182 H166 0.942 . S
C182 C181 1.361 . S
C182 C183 1.369 . S
C183 C182 1.369 . S
C183 C184 1.404 . S
C184 H167 0.940 . S
C184 C183 1.404 . S
C184 C185 1.389 . S
C185 H168 0.939 . S
C185 C180 1.400 . S
C185 C184 1.389 . S
C186 P160 1.819 . S
C186 C187 1.391 . S
C186 C191 1.391 . S
C187 H169 0.941 . S
C187 C186 1.391 . S
C187 C188 1.396 . S
C188 H172 0.939 . S
C188 C187 1.396 . S
C188 C189 1.397 . S
C189 C188 1.397 . S
C189 C190 1.385 . S
C190 H173 0.940 . S
C190 C189 1.385 . S
C190 C191 1.388 . S
C191 H170 0.939 . S
C191 C186 1.391 . S
C191 C190 1.388 . S
P192 O203 1.490 1_655 S
P192 C206 1.812 . S
P192 C212 1.803 . S
P192 C218 1.819 . S
H193 C207 0.941 . S
H194 C208 0.939 . S
H195 C210 0.940 . S
H196 C211 0.940 . S
H197 C213 0.939 . S
H198 C214 0.942 . S
H199 C216 0.940 . S
H200 C217 0.939 . S
H201 C219 0.941 . S
H202 C223 0.939 . S
O203 P192 1.490 1_455 S
H204 C220 0.939 . S
H205 C222 0.940 . S
C206 P192 1.812 . S
C206 C207 1.389 1_655 S
C206 C211 1.391 . S
C207 H193 0.941 . S
C207 C206 1.389 1_455 S
C207 C208 1.397 . S
C208 H194 0.939 . S
C208 C207 1.397 . S
C208 C209 1.378 . S
C209 C208 1.378 . S
C209 C210 1.378 1_455 S
C210 H195 0.940 . S
C210 C209 1.378 1_655 S
C210 C211 1.396 . S
C211 H196 0.940 . S
C211 C206 1.391 . S
C211 C210 1.396 . S
C212 P192 1.803 . S
C212 C213 1.378 . S
C212 C217 1.400 . S
C213 H197 0.939 . S
C213 C212 1.378 . S
C213 C214 1.361 . S
C214 H198 0.942 . S
C214 C213 1.361 . S
C214 C215 1.369 . S
C215 C214 1.369 . S
C215 C216 1.404 . S
C216 H199 0.940 . S
C216 C215 1.404 . S
C216 C217 1.389 . S
C217 H200 0.939 . S
C217 C212 1.400 . S
C217 C216 1.389 . S
C218 P192 1.819 . S
C218 C219 1.391 . S
C218 C223 1.391 . S
C219 H201 0.941 . S
C219 C218 1.391 . S
C219 C220 1.396 . S
C220 H204 0.939 . S
C220 C219 1.396 . S
C220 C221 1.397 . S
C221 C220 1.397 . S
C221 C222 1.385 . S
C222 H205 0.940 . S
C222 C221 1.385 . S
C222 C223 1.388 . S
C223 H202 0.939 . S
C223 C218 1.391 . S
C223 C222 1.388 . S
P224 O235 1.490 . S
P224 C238 1.812 . S
P224 C244 1.803 . S
P224 C250 1.819 . S
H225 C239 0.941 . S
H226 C240 0.939 . S
H227 C242 0.940 . S
H228 C243 0.940 . S
H229 C245 0.939 . S
H230 C246 0.942 . S
H231 C248 0.940 . S
H232 C249 0.939 . S
H233 C251 0.941 . S
H234 C255 0.939 . S
O235 P224 1.490 . S
H236 C252 0.939 . S
H237 C254 0.940 . S
C238 P224 1.812 . S
C238 C239 1.389 . S
C238 C243 1.391 . S
C239 H225 0.941 . S
C239 C238 1.389 . S
C239 C240 1.397 . S
C240 H226 0.939 . S
C240 C239 1.397 . S
C240 C241 1.378 . S
C241 C240 1.378 . S
C241 C242 1.378 . S
C242 H227 0.940 . S
C242 C241 1.378 . S
C242 C243 1.396 . S
C243 H228 0.940 . S
C243 C238 1.391 . S
C243 C242 1.396 . S
C244 P224 1.803 . S
C244 C245 1.378 . S
C244 C249 1.400 . S
C245 H229 0.939 . S
C245 C244 1.378 . S
C245 C246 1.361 . S
C246 H230 0.942 . S
C246 C245 1.361 . S
C246 C247 1.369 . S
C247 C246 1.369 . S
C247 C248 1.404 . S
C248 H231 0.940 . S
C248 C247 1.404 . S
C248 C249 1.389 . S
C249 H232 0.939 . S
C249 C244 1.400 . S
C249 C248 1.389 . S
C250 P224 1.819 . S
C250 C251 1.391 . S
C250 C255 1.391 . S
C251 H233 0.941 . S
C251 C250 1.391 . S
C251 C252 1.396 . S
C252 H236 0.939 . S
C252 C251 1.396 . S
C252 C253 1.397 . S
C253 C252 1.397 . S
C253 C254 1.385 . S
C254 H237 0.940 . S
C254 C253 1.385 . S
C254 C255 1.388 . S
C255 H234 0.939 . S
C255 C250 1.391 . S
C255 C254 1.388 . S
P256 O267 1.490 . S
P256 C270 1.812 . S
P256 C276 1.803 . S
P256 C282 1.819 . S
H257 C271 0.941 . S
H258 C272 0.939 . S
H259 C274 0.940 . S
H260 C275 0.940 . S
H261 C277 0.939 . S
H262 C278 0.942 . S
H263 C280 0.940 . S
H264 C281 0.939 . S
H265 C283 0.941 . S
H266 C287 0.939 . S
O267 P256 1.490 . S
H268 C284 0.939 . S
H269 C286 0.940 . S
C270 P256 1.812 . S
C270 C271 1.389 . S
C270 C275 1.391 . S
C271 H257 0.941 . S
C271 C270 1.389 . S
C271 C272 1.397 . S
C272 H258 0.939 . S
C272 C271 1.397 . S
C272 C273 1.378 . S
C273 C272 1.378 . S
C273 C274 1.378 . S
C274 H259 0.940 . S
C274 C273 1.378 . S
C274 C275 1.396 . S
C275 H260 0.940 . S
C275 C270 1.391 . S
C275 C274 1.396 . S
C276 P256 1.803 . S
C276 C277 1.378 . S
C276 C281 1.400 . S
C277 H261 0.939 . S
C277 C276 1.378 . S
C277 C278 1.361 . S
C278 H262 0.942 . S
C278 C277 1.361 . S
C278 C279 1.369 . S
C279 C278 1.369 . S
C279 C280 1.404 . S
C280 H263 0.940 . S
C280 C279 1.404 . S
C280 C281 1.389 . S
C281 H264 0.939 . S
C281 C276 1.400 . S
C281 C280 1.389 . S
C282 P256 1.819 . S
C282 C283 1.391 . S
C282 C287 1.391 . S
C283 H265 0.941 . S
C283 C282 1.391 . S
C283 C284 1.396 . S
C284 H268 0.939 . S
C284 C283 1.396 . S
C284 C285 1.397 . S
C285 C284 1.397 . S
C285 C286 1.385 . S
C286 H269 0.940 . S
C286 C285 1.385 . S
C286 C287 1.388 . S
C287 H266 0.939 . S
C287 C282 1.391 . S
C287 C286 1.388 . S
P288 O299 1.490 1_565 S
P288 C302 1.812 . S
P288 C308 1.803 . S
P288 C314 1.819 . S
H289 C303 0.941 . S
H290 C304 0.939 . S
H291 C306 0.940 . S
H292 C307 0.940 . S
H293 C309 0.939 . S
H294 C310 0.942 . S
H295 C312 0.940 . S
H296 C313 0.939 . S
H297 C315 0.941 . S
H298 C319 0.939 . S
O299 P288 1.490 1_545 S
H300 C316 0.939 . S
H301 C318 0.940 . S
C302 P288 1.812 . S
C302 C303 1.389 . S
C302 C307 1.391 . S
C303 H289 0.941 . S
C303 C302 1.389 . S
C303 C304 1.397 . S
C304 H290 0.939 . S
C304 C303 1.397 . S
C304 C305 1.378 . S
C305 C304 1.378 . S
C305 C306 1.378 . S
C306 H291 0.940 . S
C306 C305 1.378 . S
C306 C307 1.396 . S
C307 H292 0.940 . S
C307 C302 1.391 . S
C307 C306 1.396 . S
C308 P288 1.803 . S
C308 C309 1.378 1_565 S
C308 C313 1.400 . S
C309 H293 0.939 . S
C309 C308 1.378 1_545 S
C309 C310 1.361 . S
C310 H294 0.942 . S
C310 C309 1.361 . S
C310 C311 1.369 . S
C311 C310 1.369 . S
C311 C312 1.404 1_545 S
C312 H295 0.940 . S
C312 C311 1.404 1_565 S
C312 C313 1.389 . S
C313 H296 0.939 . S
C313 C308 1.400 . S
C313 C312 1.389 . S
C314 P288 1.819 . S
C314 C315 1.391 . S
C314 C319 1.391 . S
C315 H297 0.941 . S
C315 C314 1.391 . S
C315 C316 1.396 . S
C316 H300 0.939 . S
C316 C315 1.396 . S
C316 C317 1.397 . S
C317 C316 1.397 . S
C317 C318 1.385 . S
C318 H301 0.940 . S
C318 C317 1.385 . S
C318 C319 1.388 . S
C319 H298 0.939 . S
C319 C314 1.391 . S
C319 C318 1.388 . S
P320 O331 1.490 . S
P320 C334 1.812 . S
P320 C340 1.803 . S
P320 C346 1.819 . S
H321 C335 0.941 . S
H322 C336 0.939 . S
H323 C338 0.940 . S
H324 C339 0.940 . S
H325 C341 0.939 . S
H326 C342 0.942 . S
H327 C344 0.940 . S
H328 C345 0.939 . S
H329 C347 0.941 . S
H330 C351 0.939 . S
O331 P320 1.490 . S
H332 C348 0.939 . S
H333 C350 0.940 . S
C334 P320 1.812 . S
C334 C335 1.389 . S
C334 C339 1.391 . S
C335 H321 0.941 . S
C335 C334 1.389 . S
C335 C336 1.397 . S
C336 H322 0.939 . S
C336 C335 1.397 . S
C336 C337 1.378 . S
C337 C336 1.378 . S
C337 C338 1.378 . S
C338 H323 0.940 . S
C338 C337 1.378 . S
C338 C339 1.396 . S
C339 H324 0.940 . S
C339 C334 1.391 . S
C339 C338 1.396 . S
C340 P320 1.803 . S
C340 C341 1.378 . S
C340 C345 1.400 . S
C341 H325 0.939 . S
C341 C340 1.378 . S
C341 C342 1.361 . S
C342 H326 0.942 . S
C342 C341 1.361 . S
C342 C343 1.369 . S
C343 C342 1.369 . S
C343 C344 1.404 . S
C344 H327 0.940 . S
C344 C343 1.404 . S
C344 C345 1.389 . S
C345 H328 0.939 . S
C345 C340 1.400 . S
C345 C344 1.389 . S
C346 P320 1.819 . S
C346 C347 1.391 . S
C346 C351 1.391 . S
C347 H329 0.941 . S
C347 C346 1.391 . S
C347 C348 1.396 . S
C348 H332 0.939 . S
C348 C347 1.396 . S
C348 C349 1.397 . S
C349 C348 1.397 . S
C349 C350 1.385 . S
C350 H333 0.940 . S
C350 C349 1.385 . S
C350 C351 1.388 . S
C351 H330 0.939 . S
C351 C346 1.391 . S
C351 C350 1.388 . S
P352 O363 1.490 . S
P352 C366 1.812 . S
P352 C372 1.803 . S
P352 C378 1.819 . S
H353 C367 0.941 . S
H354 C368 0.939 . S
H355 C370 0.940 . S
H356 C371 0.940 . S
H357 C373 0.939 . S
H358 C374 0.942 . S
H359 C376 0.940 . S
H360 C377 0.939 . S
H361 C379 0.941 . S
H362 C383 0.939 . S
O363 P352 1.490 . S
H364 C380 0.939 . S
H365 C382 0.940 . S
C366 P352 1.812 . S
C366 C367 1.389 . S
C366 C371 1.391 . S
C367 H353 0.941 . S
C367 C366 1.389 . S
C367 C368 1.397 . S
C368 H354 0.939 . S
C368 C367 1.397 . S
C368 C369 1.378 . S
C369 C368 1.378 . S
C369 C370 1.378 . S
C370 H355 0.940 . S
C370 C369 1.378 . S
C370 C371 1.396 . S
C371 H356 0.940 . S
C371 C366 1.391 . S
C371 C370 1.396 . S
C372 P352 1.803 . S
C372 C373 1.378 . S
C372 C377 1.400 . S
C373 H357 0.939 . S
C373 C372 1.378 . S
C373 C374 1.361 . S
C374 H358 0.942 . S
C374 C373 1.361 . S
C374 C375 1.369 . S
C375 C374 1.369 . S
C375 C376 1.404 . S
C376 H359 0.940 . S
C376 C375 1.404 . S
C376 C377 1.389 . S
C377 H360 0.939 . S
C377 C372 1.400 . S
C377 C376 1.389 . S
C378 P352 1.819 . S
C378 C379 1.391 . S
C378 C383 1.391 . S
C379 H361 0.941 . S
C379 C378 1.391 . S
C379 C380 1.396 . S
C380 H364 0.939 . S
C380 C379 1.396 . S
C380 C381 1.397 . S
C381 C380 1.397 . S
C381 C382 1.385 . S
C382 H365 0.940 . S
C382 C381 1.385 . S
C382 C383 1.388 . S
C383 H362 0.939 . S
C383 C378 1.391 . S
C383 C382 1.388 . S
P384 O395 1.490 . S
P384 C398 1.812 . S
P384 C404 1.803 . S
P384 C410 1.819 . S
H385 C399 0.941 . S
H386 C400 0.939 . S
H387 C402 0.940 . S
H388 C403 0.940 . S
H389 C405 0.939 . S
H390 C406 0.942 . S
H391 C408 0.940 . S
H392 C409 0.939 . S
H393 C411 0.941 . S
H394 C415 0.939 . S
O395 P384 1.490 . S
H396 C412 0.939 . S
H397 C414 0.940 . S
C398 P384 1.812 . S
C398 C399 1.389 . S
C398 C403 1.391 . S
C399 H385 0.941 . S
C399 C398 1.389 . S
C399 C400 1.397 . S
C400 H386 0.939 . S
C400 C399 1.397 . S
C400 C401 1.378 . S
C401 C400 1.378 . S
C401 C402 1.378 . S
C402 H387 0.940 . S
C402 C401 1.378 . S
C402 C403 1.396 . S
C403 H388 0.940 . S
C403 C398 1.391 . S
C403 C402 1.396 . S
C404 P384 1.803 . S
C404 C405 1.378 . S
C404 C409 1.400 . S
C405 H389 0.939 . S
C405 C404 1.378 . S
C405 C406 1.361 . S
C406 H390 0.942 . S
C406 C405 1.361 . S
C406 C407 1.369 . S
C407 C406 1.369 . S
C407 C408 1.404 . S
C408 H391 0.940 . S
C408 C407 1.404 . S
C408 C409 1.389 . S
C409 H392 0.939 . S
C409 C404 1.400 . S
C409 C408 1.389 . S
C410 P384 1.819 . S
C410 C411 1.391 . S
C410 C415 1.391 . S
C411 H393 0.941 . S
C411 C410 1.391 . S
C411 C412 1.396 . S
C412 H396 0.939 . S
C412 C411 1.396 . S
C412 C413 1.397 . S
C413 C412 1.397 . S
C413 C414 1.385 . S
C414 H397 0.940 . S
C414 C413 1.385 . S
C414 C415 1.388 . S
C415 H394 0.939 . S
C415 C410 1.391 . S
C415 C414 1.388 . S
P416 O427 1.490 . S
P416 C430 1.812 . S
P416 C436 1.803 . S
P416 C442 1.819 . S
H417 C431 0.941 . S
H418 C432 0.939 . S
H419 C434 0.940 . S
H420 C435 0.940 . S
H421 C437 0.939 . S
H422 C438 0.942 . S
H423 C440 0.940 . S
H424 C441 0.937 1_554 S
H425 C443 0.941 . S
H426 C447 0.939 . S
O427 P416 1.490 . S
H428 C444 0.939 . S
H429 C446 0.940 . S
C430 P416 1.812 . S
C430 C431 1.389 . S
C430 C435 1.391 . S
C431 H417 0.941 . S
C431 C430 1.389 . S
C431 C432 1.397 . S
C432 H418 0.939 . S
C432 C431 1.397 . S
C432 C433 1.378 . S
C433 C432 1.378 . S
C433 C434 1.378 . S
C434 H419 0.940 . S
C434 C433 1.378 . S
C434 C435 1.396 . S
C435 H420 0.940 . S
C435 C430 1.391 . S
C435 C434 1.396 . S
C436 P416 1.803 . S
C436 C437 1.378 . S
C436 C441 1.400 . S
C437 H421 0.939 . S
C437 C436 1.378 . S
C437 C438 1.361 . S
C438 H422 0.942 . S
C438 C437 1.361 . S
C438 C439 1.369 1_556 S
C439 C438 1.369 1_554 S
C439 C440 1.404 . S
C440 H423 0.940 . S
C440 C439 1.404 . S
C440 C441 1.389 1_554 S
C441 H424 0.937 1_556 S
C441 C436 1.400 . S
C441 C440 1.389 1_556 S
C442 P416 1.819 . S
C442 C443 1.391 . S
C442 C447 1.391 . S
C443 H425 0.941 . S
C443 C442 1.391 . S
C443 C444 1.396 . S
C444 H428 0.939 . S
C444 C443 1.396 . S
C444 C445 1.397 . S
C445 C444 1.397 . S
C445 C446 1.385 . S
C446 H429 0.940 . S
C446 C445 1.385 . S
C446 C447 1.388 . S
C447 H426 0.939 . S
C447 C442 1.391 . S
C447 C446 1.388 . S
P448 O459 1.490 . S
P448 C462 1.812 . S
P448 C468 1.803 . S
P448 C474 1.819 . S
H449 C463 0.941 . S
H450 C464 0.939 . S
H451 C466 0.940 . S
H452 C467 0.940 . S
H453 C469 0.939 . S
H454 C470 0.942 . S
H455 C472 0.940 . S
H456 C473 0.939 . S
H457 C475 0.941 . S
H458 C479 0.939 . S
O459 P448 1.490 . S
H460 C476 0.939 . S
H461 C478 0.940 . S
C462 P448 1.812 . S
C462 C463 1.389 . S
C462 C467 1.391 . S
C463 H449 0.941 . S
C463 C462 1.389 . S
C463 C464 1.397 . S
C464 H450 0.939 . S
C464 C463 1.397 . S
C464 C465 1.378 . S
C465 C464 1.378 . S
C465 C466 1.378 . S
C466 H451 0.940 . S
C466 C465 1.378 . S
C466 C467 1.396 . S
C467 H452 0.940 . S
C467 C462 1.391 . S
C467 C466 1.396 . S
C468 P448 1.803 . S
C468 C469 1.378 . S
C468 C473 1.400 . S
C469 H453 0.939 . S
C469 C468 1.378 . S
C469 C470 1.361 . S
C470 H454 0.942 . S
C470 C469 1.361 . S
C470 C471 1.369 . S
C471 C470 1.369 . S
C471 C472 1.404 . S
C472 H455 0.940 . S
C472 C471 1.404 . S
C472 C473 1.389 . S
C473 H456 0.939 . S
C473 C468 1.400 . S
C473 C472 1.389 . S
C474 P448 1.819 . S
C474 C475 1.391 . S
C474 C479 1.391 . S
C475 H457 0.941 . S
C475 C474 1.391 . S
C475 C476 1.396 . S
C476 H460 0.939 . S
C476 C475 1.396 . S
C476 C477 1.397 . S
C477 C476 1.397 . S
C477 C478 1.385 . S
C478 H461 0.940 . S
C478 C477 1.385 . S
C478 C479 1.388 . S
C479 H458 0.939 . S
C479 C474 1.391 . S
C479 C478 1.388 . S
P480 O491 1.490 . S
P480 C494 1.812 . S
P480 C500 1.803 . S
P480 C506 1.819 . S
H481 C495 0.941 . S
H482 C496 0.939 . S
H483 C498 0.940 . S
H484 C499 0.940 . S
H485 C501 0.939 . S
H486 C502 0.942 . S
H487 C504 0.940 . S
H488 C505 0.939 . S
H489 C507 0.941 . S
H490 C511 0.939 . S
O491 P480 1.490 . S
H492 C508 0.939 . S
H493 C510 0.940 . S
C494 P480 1.812 . S
C494 C495 1.389 . S
C494 C499 1.391 . S
C495 H481 0.941 . S
C495 C494 1.389 . S
C495 C496 1.397 . S
C496 H482 0.939 . S
C496 C495 1.397 . S
C496 C497 1.378 . S
C497 C496 1.378 . S
C497 C498 1.378 . S
C498 H483 0.940 . S
C498 C497 1.378 . S
C498 C499 1.396 . S
C499 H484 0.940 . S
C499 C494 1.391 . S
C499 C498 1.396 . S
C500 P480 1.803 . S
C500 C501 1.378 1_556 S
C500 C505 1.400 . S
C501 H485 0.939 . S
C501 C500 1.378 1_554 S
C501 C502 1.361 . S
C502 H486 0.942 . S
C502 C501 1.361 . S
C502 C503 1.369 . S
C503 C502 1.369 . S
C503 C504 1.404 1_554 S
C504 H487 0.940 . S
C504 C503 1.404 1_556 S
C504 C505 1.389 . S
C505 H488 0.939 . S
C505 C500 1.400 . S
C505 C504 1.389 . S
C506 P480 1.819 . S
C506 C507 1.391 1_545 S
C506 C511 1.391 . S
C507 H489 0.941 . S
C507 C506 1.391 1_565 S
C507 C508 1.396 . S
C508 H492 0.939 . S
C508 C507 1.396 . S
C508 C509 1.397 . S
C509 C508 1.397 . S
C509 C510 1.385 1_565 S
C510 H493 0.940 . S
C510 C509 1.385 1_545 S
C510 C511 1.388 . S
C511 H490 0.939 . S
C511 C506 1.391 . S
C511 C510 1.388 . S
Zn512 O515 2.031 . S
Zn512 O517 2.049 1_554 S
Zn512 O522 2.067 1_554 S
Zn513 O514 1.962 . S
Zn513 O516 1.986 . S
Zn513 O518 1.996 . S
Zn513 O521 1.943 1_554 S
O514 Zn513 1.962 . S
O514 C519 1.254 . S
O515 Zn512 2.031 . S
O515 C519 1.269 . S
O516 Zn513 1.986 . S
O516 C523 1.262 . S
O517 Zn512 2.049 1_556 S
O517 C525 1.260 . S
O518 Zn513 1.996 . S
O518 C525 1.257 1_554 S
C519 O514 1.254 . S
C519 O515 1.269 . S
C520 O521 1.249 . S
C520 O522 1.270 . S
O521 Zn513 1.943 1_556 S
O521 C520 1.249 . S
O522 Zn512 2.067 1_556 S
O522 C520 1.270 . S
C523 O516 1.262 . S
C523 O524 1.232 . S
O524 C523 1.232 . S
C525 O517 1.260 . S
C525 O518 1.257 1_556 S
Zn526 O529 2.031 . S
Zn526 O531 2.049 . S
Zn526 O536 2.067 . S
Zn527 O528 1.962 . S
Zn527 O530 1.986 . S
Zn527 O532 1.996 . S
Zn527 O535 1.943 . S
O528 Zn527 1.962 . S
O528 C533 1.254 . S
O529 Zn526 2.031 . S
O529 C533 1.269 . S
O530 Zn527 1.986 . S
O530 C537 1.262 . S
O531 Zn526 2.049 . S
O531 C539 1.260 . S
O532 Zn527 1.996 . S
O532 C539 1.257 . S
C533 O528 1.254 . S
C533 O529 1.269 . S
C534 O535 1.249 . S
C534 O536 1.270 . S
O535 Zn527 1.943 . S
O535 C534 1.249 . S
O536 Zn526 2.067 . S
O536 C534 1.270 . S
C537 O530 1.262 . S
C537 O538 1.232 . S
O538 C537 1.232 . S
C539 O531 1.260 . S
C539 O532 1.257 . S
Zn540 O543 2.031 . S
Zn540 O545 2.049 . S
Zn540 O550 2.067 . S
Zn541 O542 1.962 . S
Zn541 O544 1.986 . S
Zn541 O546 1.996 1_554 S
Zn541 O549 1.943 . S
O542 Zn541 1.962 . S
O542 C547 1.254 . S
O543 Zn540 2.031 . S
O543 C547 1.269 1_556 S
O544 Zn541 1.986 . S
O544 C551 1.262 . S
O545 Zn540 2.049 . S
O545 C553 1.260 . S
O546 Zn541 1.996 1_556 S
O546 C553 1.257 . S
C547 O542 1.254 . S
C547 O543 1.269 1_554 S
C548 O549 1.249 1_556 S
C548 O550 1.270 . S
O549 Zn541 1.943 . S
O549 C548 1.249 1_554 S
O550 Zn540 2.067 . S
O550 C548 1.270 . S
C551 O544 1.262 . S
C551 O552 1.232 . S
O552 C551 1.232 . S
C553 O545 1.260 . S
C553 O546 1.257 . S
Zn554 O557 2.030 . S
Zn554 O559 2.050 1_545 S
Zn554 O564 2.070 1_545 S
Zn555 O556 1.962 . S
Zn555 O558 1.986 . S
Zn555 O560 1.996 . S
Zn555 O563 1.943 1_545 S
O556 Zn555 1.962 . S
O556 C561 1.254 . S
O557 Zn554 2.030 . S
O557 C561 1.269 . S
O558 Zn555 1.986 . S
O558 C565 1.262 . S
O559 Zn554 2.050 1_565 S
O559 C567 1.260 . S
O560 Zn555 1.996 . S
O560 C567 1.257 1_545 S
C561 O556 1.254 . S
C561 O557 1.269 . S
C562 O563 1.249 . S
C562 O564 1.270 . S
O563 Zn555 1.943 1_565 S
O563 C562 1.249 . S
O564 Zn554 2.070 1_565 S
O564 C562 1.270 . S
C565 O558 1.262 . S
C565 O566 1.232 . S
O566 C565 1.232 . S
C567 O559 1.260 . S
C567 O560 1.257 1_565 S
Zn568 O571 2.031 . S
Zn568 O573 2.049 . S
Zn568 O578 2.067 . S
Zn569 O570 1.962 . S
Zn569 O572 1.986 . S
Zn569 O574 1.996 . S
Zn569 O577 1.943 . S
O570 Zn569 1.962 . S
O570 C575 1.254 . S
O571 Zn568 2.031 . S
O571 C575 1.269 . S
O572 Zn569 1.986 . S
O572 C579 1.262 . S
O573 Zn568 2.049 . S
O573 C581 1.260 . S
O574 Zn569 1.996 . S
O574 C581 1.257 . S
C575 O570 1.254 . S
C575 O571 1.269 . S
C576 O577 1.249 . S
C576 O578 1.270 . S
O577 Zn569 1.943 . S
O577 C576 1.249 . S
O578 Zn568 2.067 . S
O578 C576 1.270 . S
C579 O572 1.262 . S
C579 O580 1.232 . S
O580 C579 1.232 . S
C581 O573 1.260 . S
C581 O574 1.257 . S
Zn582 O585 2.031 . S
Zn582 O587 2.049 . S
Zn582 O592 2.067 . S
Zn583 O584 1.962 . S
Zn583 O586 1.986 . S
Zn583 O588 1.996 . S
Zn583 O591 1.943 . S
O584 Zn583 1.962 . S
O584 C589 1.254 . S
O585 Zn582 2.031 . S
O585 C589 1.269 . S
O586 Zn583 1.986 . S
O586 C593 1.262 . S
O587 Zn582 2.049 . S
O587 C595 1.260 . S
O588 Zn583 1.996 . S
O588 C595 1.257 . S
C589 O584 1.254 . S
C589 O585 1.269 . S
C590 O591 1.249 . S
C590 O592 1.270 . S
O591 Zn583 1.943 . S
O591 C590 1.249 . S
O592 Zn582 2.067 . S
O592 C590 1.270 . S
C593 O586 1.262 . S
C593 O594 1.232 . S
O594 C593 1.232 . S
C595 O587 1.260 . S
C595 O588 1.257 . S
Zn596 O599 2.031 . S
Zn596 O601 2.049 . S
Zn596 O606 2.067 . S
Zn597 O598 1.962 . S
Zn597 O600 1.986 . S
Zn597 O602 1.996 . S
Zn597 O605 1.943 . S
O598 Zn597 1.962 . S
O598 C603 1.254 . S
O599 Zn596 2.031 . S
O599 C603 1.269 . S
O600 Zn597 1.986 . S
O600 C607 1.262 . S
O601 Zn596 2.049 . S
O601 C609 1.260 . S
O602 Zn597 1.996 . S
O602 C609 1.257 . S
C603 O598 1.254 . S
C603 O599 1.269 . S
C604 O605 1.249 . S
C604 O606 1.270 . S
O605 Zn597 1.943 . S
O605 C604 1.249 . S
O606 Zn596 2.067 . S
O606 C604 1.270 . S
C607 O600 1.262 . S
C607 O608 1.232 . S
O608 C607 1.232 . S
C609 O601 1.260 . S
C609 O602 1.257 . S
Zn610 O613 2.031 . S
Zn610 O615 2.049 . S
Zn610 O620 2.067 . S
Zn611 O612 1.962 . S
Zn611 O614 1.986 . S
Zn611 O616 1.996 1_545 S
Zn611 O619 1.943 . S
O612 Zn611 1.962 . S
O612 C617 1.254 . S
O613 Zn610 2.031 . S
O613 C617 1.269 1_565 S
O614 Zn611 1.986 . S
O614 C621 1.262 . S
O615 Zn610 2.049 . S
O615 C623 1.260 . S
O616 Zn611 1.996 1_565 S
O616 C623 1.257 . S
C617 O612 1.254 . S
C617 O613 1.269 1_545 S
C618 O619 1.249 1_565 S
C618 O620 1.270 . S
O619 Zn611 1.943 . S
O619 C618 1.249 1_545 S
O620 Zn610 2.067 . S
O620 C618 1.270 . S
C621 O614 1.262 . S
C621 O622 1.232 . S
O622 C621 1.232 . S
C623 O615 1.260 . S
C623 O616 1.257 . S
Zn624 O627 2.031 . S
Zn624 O629 2.049 1_455 S
Zn624 O634 2.067 1_455 S
Zn625 O626 1.962 . S
Zn625 O628 1.986 . S
Zn625 O630 1.996 . S
Zn625 O633 1.943 1_455 S
O626 Zn625 1.962 . S
O626 C631 1.254 . S
O627 Zn624 2.031 . S
O627 C631 1.269 . S
O628 Zn625 1.986 . S
O628 C635 1.262 . S
O629 Zn624 2.049 1_655 S
O629 C637 1.260 . S
O630 Zn625 1.996 . S
O630 C637 1.257 1_455 S
C631 O626 1.254 . S
C631 O627 1.269 . S
C632 O633 1.249 . S
C632 O634 1.270 . S
O633 Zn625 1.943 1_655 S
O633 C632 1.249 . S
O634 Zn624 2.067 1_655 S
O634 C632 1.270 . S
C635 O628 1.262 . S
C635 O636 1.232 . S
O636 C635 1.232 . S
C637 O629 1.260 . S
C637 O630 1.257 1_655 S
Zn638 O641 2.031 . S
Zn638 O643 2.049 . S
Zn638 O648 2.067 . S
Zn639 O640 1.962 . S
Zn639 O642 1.986 . S
Zn639 O644 1.996 . S
Zn639 O647 1.943 . S
O640 Zn639 1.962 . S
O640 C645 1.254 . S
O641 Zn638 2.031 . S
O641 C645 1.269 . S
O642 Zn639 1.986 . S
O642 C649 1.262 . S
O643 Zn638 2.049 . S
O643 C651 1.260 . S
O644 Zn639 1.996 . S
O644 C651 1.257 . S
C645 O640 1.254 . S
C645 O641 1.269 . S
C646 O647 1.249 . S
C646 O648 1.270 . S
O647 Zn639 1.943 . S
O647 C646 1.249 . S
O648 Zn638 2.067 . S
O648 C646 1.270 . S
C649 O642 1.262 . S
C649 O650 1.232 . S
O650 C649 1.232 . S
C651 O643 1.260 . S
C651 O644 1.257 . S
Zn652 O655 2.031 . S
Zn652 O657 2.049 . S
Zn652 O662 2.067 . S
Zn653 O654 1.962 . S
Zn653 O656 1.986 . S
Zn653 O658 1.996 1_455 S
Zn653 O661 1.943 . S
O654 Zn653 1.962 . S
O654 C659 1.254 . S
O655 Zn652 2.031 . S
O655 C659 1.269 1_655 S
O656 Zn653 1.986 . S
O656 C663 1.262 . S
O657 Zn652 2.049 . S
O657 C665 1.260 . S
O658 Zn653 1.996 1_655 S
O658 C665 1.257 . S
C659 O654 1.254 . S
C659 O655 1.269 1_455 S
C660 O661 1.249 1_655 S
C660 O662 1.270 . S
O661 Zn653 1.943 . S
O661 C660 1.249 1_455 S
O662 Zn652 2.067 . S
O662 C660 1.270 . S
C663 O656 1.262 . S
C663 O664 1.232 . S
O664 C663 1.232 . S
C665 O657 1.260 . S
C665 O658 1.257 . S
Zn666 O669 2.031 . S
Zn666 O671 2.049 . S
Zn666 O676 2.067 . S
Zn667 O668 1.962 . S
Zn667 O670 1.986 . S
Zn667 O672 1.996 . S
Zn667 O675 1.943 . S
O668 Zn667 1.962 . S
O668 C673 1.254 . S
O669 Zn666 2.031 . S
O669 C673 1.269 . S
O670 Zn667 1.986 . S
O670 C677 1.262 . S
O671 Zn666 2.049 . S
O671 C679 1.260 . S
O672 Zn667 1.996 . S
O672 C679 1.257 . S
C673 O668 1.254 . S
C673 O669 1.269 . S
C674 O675 1.249 . S
C674 O676 1.270 . S
O675 Zn667 1.943 . S
O675 C674 1.249 . S
O676 Zn666 2.067 . S
O676 C674 1.270 . S
C677 O670 1.262 . S
C677 O678 1.232 . S
O678 C677 1.232 . S
C679 O671 1.260 . S
C679 O672 1.257 . S
C680 C681 1.363 . S
C680 C686 1.379 . S
C680 N688 1.356 . S
C681 C680 1.363 . S
C681 C687 1.363 . S
C682 C683 1.363 . S
C682 C687 1.379 . S
C682 N689 1.356 . S
C683 C682 1.363 . S
C683 C686 1.363 . S
N684 C686 1.356 . S
N684 H696 0.984 . S
N684 H697 0.985 . S
N685 C687 1.356 . S
N685 H690 0.984 . S
N685 H691 0.985 . S
C686 C680 1.379 . S
C686 C683 1.363 . S
C686 N684 1.356 . S
C687 C681 1.363 . S
C687 C682 1.379 . S
C687 N685 1.356 . S
N688 C680 1.356 . S
N688 H694 0.984 . S
N688 H695 0.984 . S
N689 C682 1.356 . S
N689 H692 0.984 . S
N689 H693 0.985 . S
H690 N685 0.984 . S
H691 N685 0.985 . S
H692 N689 0.984 . S
H693 N689 0.985 . S
H694 N688 0.984 . S
H695 N688 0.984 . S
H696 N684 0.984 . S
H697 N684 0.985 . S
C698 C699 1.363 . S
C698 C704 1.379 . S
C698 N706 1.356 . S
C699 C698 1.363 . S
C699 C705 1.363 . S
C700 C701 1.363 . S
C700 C705 1.379 . S
C700 N707 1.356 . S
C701 C700 1.363 . S
C701 C704 1.363 . S
N702 C704 1.356 . S
N702 H714 0.984 . S
N702 H715 0.985 . S
N703 C705 1.356 . S
N703 H708 0.984 . S
N703 H709 0.985 . S
C704 C698 1.379 . S
C704 C701 1.363 . S
C704 N702 1.356 . S
C705 C699 1.363 . S
C705 C700 1.379 . S
C705 N703 1.356 . S
N706 C698 1.356 . S
N706 H712 0.984 . S
N706 H713 0.984 . S
N707 C700 1.356 . S
N707 H710 0.984 . S
N707 H711 0.985 . S
H708 N703 0.984 . S
H709 N703 0.985 . S
H710 N707 0.984 . S
H711 N707 0.985 . S
H712 N706 0.984 . S
H713 N706 0.984 . S
H714 N702 0.984 . S
H715 N702 0.985 . S
C716 C717 1.363 . S
C716 C722 1.379 . S
C716 N724 1.356 . S
C717 C716 1.363 . S
C717 C723 1.363 . S
C718 C719 1.363 . S
C718 C723 1.379 . S
C718 N725 1.356 . S
C719 C718 1.363 . S
C719 C722 1.363 . S
N720 C722 1.356 . S
N720 H732 0.984 . S
N720 H733 0.985 . S
N721 C723 1.356 . S
N721 H726 0.984 . S
N721 H727 0.985 . S
C722 C716 1.379 . S
C722 C719 1.363 . S
C722 N720 1.356 . S
C723 C717 1.363 . S
C723 C718 1.379 . S
C723 N721 1.356 . S
N724 C716 1.356 . S
N724 H730 0.984 . S
N724 H731 0.984 . S
N725 C718 1.356 . S
N725 H728 0.984 . S
N725 H729 0.985 . S
H726 N721 0.984 . S
H727 N721 0.985 . S
H728 N725 0.984 . S
H729 N725 0.985 . S
H730 N724 0.984 . S
H731 N724 0.984 . S
H732 N720 0.984 . S
H733 N720 0.985 . S
C734 C735 1.363 . S
C734 C740 1.379 . S
C734 N742 1.356 1_655 S
C735 C734 1.363 . S
C735 C741 1.363 . S
C736 C737 1.363 . S
C736 C741 1.379 . S
C736 N743 1.356 1_565 S
C737 C736 1.363 . S
C737 C740 1.363 . S
N738 C740 1.356 . S
N738 H750 0.984 . S
N738 H751 0.985 . S
N739 C741 1.356 . S
N739 H744 0.984 . S
N739 H745 0.985 1_565 S
C740 C734 1.379 . S
C740 C737 1.363 . S
C740 N738 1.356 . S
C741 C735 1.363 . S
C741 C736 1.379 . S
C741 N739 1.356 . S
N742 C734 1.356 1_455 S
N742 H748 0.984 . S
N742 H749 0.984 . S
N743 C736 1.356 1_545 S
N743 H746 0.984 . S
N743 H747 0.985 . S
H744 N739 0.984 . S
H745 N739 0.985 1_545 S
H746 N743 0.984 . S
H747 N743 0.985 . S
H748 N742 0.984 . S
H749 N742 0.984 . S
H750 N738 0.984 . S
H751 N738 0.985 . S
C752 C753 1.363 . S
C752 C758 1.379 . S
C752 N760 1.356 . S
C753 C752 1.363 . S
C753 C759 1.363 . S
C754 C755 1.363 . S
C754 C759 1.379 . S
C754 N761 1.356 . S
C755 C754 1.363 . S
C755 C758 1.363 . S
N756 C758 1.356 . S
N756 H768 0.984 . S
N756 H769 0.985 . S
N757 C759 1.356 . S
N757 H762 0.984 . S
N757 H763 0.985 . S
C758 C752 1.379 . S
C758 C755 1.363 . S
C758 N756 1.356 . S
C759 C753 1.363 . S
C759 C754 1.379 . S
C759 N757 1.356 . S
N760 C752 1.356 . S
N760 H766 0.984 . S
N760 H767 0.984 . S
N761 C754 1.356 . S
N761 H764 0.984 . S
N761 H765 0.985 . S
H762 N757 0.984 . S
H763 N757 0.985 . S
H764 N761 0.984 . S
H765 N761 0.985 . S
H766 N760 0.984 . S
H767 N760 0.984 . S
H768 N756 0.984 . S
H769 N756 0.985 . S
C770 C771 1.363 . S
C770 C776 1.379 . S
C770 N778 1.356 . S
C771 C770 1.363 . S
C771 C777 1.363 . S
C772 C773 1.363 . S
C772 C777 1.379 . S
C772 N779 1.356 . S
C773 C772 1.363 . S
C773 C776 1.363 . S
N774 C776 1.356 . S
N774 H786 0.984 . S
N774 H787 0.985 . S
N775 C777 1.356 . S
N775 H780 0.984 . S
N775 H781 0.985 . S
C776 C770 1.379 . S
C776 C773 1.363 . S
C776 N774 1.356 . S
C777 C771 1.363 . S
C777 C772 1.379 . S
C777 N775 1.356 . S
N778 C770 1.356 . S
N778 H784 0.984 . S
N778 H785 0.984 . S
N779 C772 1.356 . S
N779 H782 0.984 . S
N779 H783 0.985 . S
H780 N775 0.984 . S
H781 N775 0.985 . S
H782 N779 0.984 . S
H783 N779 0.985 . S
H784 N778 0.984 . S
H785 N778 0.984 . S
H786 N774 0.984 . S
H787 N774 0.985 . S
C788 C789 1.363 . S
C788 C794 1.379 . S
C788 N796 1.356 . S
C789 C788 1.363 . S
C789 C795 1.363 . S
C790 C791 1.363 . S
C790 C795 1.379 . S
C790 N797 1.356 . S
C791 C790 1.363 . S
C791 C794 1.363 . S
N792 C794 1.356 . S
N792 H804 0.984 . S
N792 H805 0.985 . S
N793 C795 1.356 . S
N793 H798 0.984 . S
N793 H799 0.985 . S
C794 C788 1.379 . S
C794 C791 1.363 . S
C794 N792 1.356 . S
C795 C789 1.363 . S
C795 C790 1.379 . S
C795 N793 1.356 . S
N796 C788 1.356 . S
N796 H802 0.984 . S
N796 H803 0.984 . S
N797 C790 1.356 . S
N797 H800 0.984 . S
N797 H801 0.985 . S
H798 N793 0.984 . S
H799 N793 0.985 . S
H800 N797 0.984 . S
H801 N797 0.985 . S
H802 N796 0.984 . S
H803 N796 0.984 . S
H804 N792 0.984 . S
H805 N792 0.985 . S
C806 C807 1.363 . S
C806 C812 1.379 . S
C806 N814 1.356 . S
C807 C806 1.363 . S
C807 C813 1.363 1_565 S
C808 C809 1.363 1_545 S
C808 C813 1.379 . S
C808 N815 1.356 . S
C809 C808 1.363 1_565 S
C809 C812 1.363 . S
N810 C812 1.356 . S
N810 H822 0.984 . S
N810 H823 0.985 . S
N811 C813 1.356 . S
N811 H816 0.984 . S
N811 H817 0.985 . S
C812 C806 1.379 . S
C812 C809 1.363 . S
C812 N810 1.356 . S
C813 C807 1.363 1_545 S
C813 C808 1.379 . S
C813 N811 1.356 . S
N814 C806 1.356 . S
N814 H820 0.984 . S
N814 H821 0.984 . S
N815 C808 1.356 . S
N815 H818 0.984 . S
N815 H819 0.985 . S
H816 N811 0.984 . S
H817 N811 0.985 . S
H818 N815 0.984 . S
H819 N815 0.985 . S
H820 N814 0.984 . S
H821 N814 0.984 . S
H822 N810 0.984 . S
H823 N810 0.985 . S
C824 C825 1.363 . S
C824 C830 1.379 . S
C824 N832 1.356 . S
C825 C824 1.363 . S
C825 C831 1.363 . S
C826 C827 1.363 . S
C826 C831 1.379 . S
C826 N833 1.356 . S
C827 C826 1.363 . S
C827 C830 1.363 . S
N828 C830 1.356 . S
N828 H840 0.984 . S
N828 H841 0.985 . S
N829 C831 1.356 . S
N829 H834 0.984 . S
N829 H835 0.985 . S
C830 C824 1.379 . S
C830 C827 1.363 . S
C830 N828 1.356 . S
C831 C825 1.363 . S
C831 C826 1.379 . S
C831 N829 1.356 . S
N832 C824 1.356 . S
N832 H838 0.984 . S
N832 H839 0.984 . S
N833 C826 1.356 . S
N833 H836 0.984 . S
N833 H837 0.985 . S
H834 N829 0.984 . S
H835 N829 0.985 . S
H836 N833 0.984 . S
H837 N833 0.985 . S
H838 N832 0.984 . S
H839 N832 0.984 . S
H840 N828 0.984 . S
H841 N828 0.985 . S
C842 C843 1.363 . S
C842 C848 1.379 . S
C842 N850 1.356 . S
C843 C842 1.363 . S
C843 C849 1.363 . S
C844 C845 1.363 . S
C844 C849 1.379 . S
C844 N851 1.356 . S
C845 C844 1.363 . S
C845 C848 1.363 . S
N846 C848 1.356 . S
N846 H858 0.984 . S
N846 H859 0.985 . S
N847 C849 1.356 . S
N847 H852 0.984 . S
N847 H853 0.985 . S
C848 C842 1.379 . S
C848 C845 1.363 . S
C848 N846 1.356 . S
C849 C843 1.363 . S
C849 C844 1.379 . S
C849 N847 1.356 . S
N850 C842 1.356 . S
N850 H856 0.984 . S
N850 H857 0.984 . S
N851 C844 1.356 . S
N851 H854 0.984 . S
N851 H855 0.985 . S
H852 N847 0.984 . S
H853 N847 0.985 . S
H854 N851 0.984 . S
H855 N851 0.985 . S
H856 N850 0.984 . S
H857 N850 0.984 . S
H858 N846 0.984 . S
H859 N846 0.985 . S
C860 C861 1.363 . S
C860 C866 1.379 . S
C860 N868 1.356 . S
C861 C860 1.363 . S
C861 C867 1.363 . S
C862 C863 1.363 . S
C862 C867 1.379 . S
C862 N869 1.356 . S
C863 C862 1.363 . S
C863 C866 1.363 . S
N864 C866 1.356 . S
N864 H876 0.984 . S
N864 H877 0.985 . S
N865 C867 1.356 . S
N865 H870 0.984 . S
N865 H871 0.985 . S
C866 C860 1.379 . S
C866 C863 1.363 . S
C866 N864 1.356 . S
C867 C861 1.363 . S
C867 C862 1.379 . S
C867 N865 1.356 . S
N868 C860 1.356 . S
N868 H874 0.984 . S
N868 H875 0.984 . S
N869 C862 1.356 . S
N869 H872 0.984 . S
N869 H873 0.985 . S
H870 N865 0.984 . S
H871 N865 0.985 . S
H872 N869 0.984 . S
H873 N869 0.985 . S
H874 N868 0.984 . S
H875 N868 0.984 . S
H876 N864 0.984 . S
H877 N864 0.985 . S
C878 C879 1.363 . S
C878 C884 1.379 . S
C878 N886 1.356 . S
C879 C878 1.363 . S
C879 C885 1.363 . S
C880 C881 1.363 . S
C880 C885 1.379 . S
C880 N887 1.356 . S
C881 C880 1.363 . S
C881 C884 1.363 . S
N882 C884 1.356 . S
N882 H894 0.984 . S
N882 H895 0.985 . S
N883 C885 1.356 . S
N883 H888 0.984 . S
N883 H889 0.985 . S
C884 C878 1.379 . S
C884 C881 1.363 . S
C884 N882 1.356 . S
C885 C879 1.363 . S
C885 C880 1.379 . S
C885 N883 1.356 . S
N886 C878 1.356 . S
N886 H892 0.984 . S
N886 H893 0.984 . S
N887 C880 1.356 . S
N887 H890 0.984 . S
N887 H891 0.985 . S
H888 N883 0.984 . S
H889 N883 0.985 . S
H890 N887 0.984 . S
H891 N887 0.985 . S
H892 N886 0.984 . S
H893 N886 0.984 . S
H894 N882 0.984 . S
H895 N882 0.985 . S
C896 C897 1.363 . S
C896 C902 1.379 . S
C896 N904 1.356 . S
C897 C896 1.363 . S
C897 C903 1.363 . S
C898 C899 1.363 . S
C898 C903 1.379 . S
C898 N905 1.356 . S
C899 C898 1.363 . S
C899 C902 1.363 . S
N900 C902 1.356 . S
N900 H912 0.984 . S
N900 H913 0.985 . S
N901 C903 1.356 . S
N901 H906 0.984 . S
N901 H907 0.985 . S
C902 C896 1.379 . S
C902 C899 1.363 . S
C902 N900 1.356 . S
C903 C897 1.363 . S
C903 C898 1.379 . S
C903 N901 1.356 . S
N904 C896 1.356 . S
N904 H910 0.984 . S
N904 H911 0.984 . S
N905 C898 1.356 . S
N905 H908 0.984 . S
N905 H909 0.985 . S
H906 N901 0.984 . S
H907 N901 0.985 . S
H908 N905 0.984 . S
H909 N905 0.985 . S
H910 N904 0.984 . S
H911 N904 0.984 . S
H912 N900 0.984 . S
H913 N900 0.985 . S
C914 C915 1.363 . S
C914 C920 1.379 . S
C914 N922 1.356 . S
C915 C914 1.363 . S
C915 C921 1.363 . S
C916 C917 1.363 . S
C916 C921 1.379 . S
C916 N923 1.356 . S
C917 C916 1.363 . S
C917 C920 1.363 . S
N918 C920 1.356 . S
N918 H930 0.984 . S
N918 H931 0.985 . S
N919 C921 1.356 . S
N919 H924 0.984 . S
N919 H925 0.985 . S
C920 C914 1.379 . S
C920 C917 1.363 . S
C920 N918 1.356 . S
C921 C915 1.363 . S
C921 C916 1.379 . S
C921 N919 1.356 . S
N922 C914 1.356 . S
N922 H928 0.984 . S
N922 H929 0.984 . S
N923 C916 1.356 . S
N923 H926 0.984 . S
N923 H927 0.985 . S
H924 N919 0.984 . S
H925 N919 0.985 . S
H926 N923 0.984 . S
H927 N923 0.985 . S
H928 N922 0.984 . S
H929 N922 0.984 . S
H930 N918 0.984 . S
H931 N918 0.985 . S
C932 C933 1.363 . S
C932 C938 1.379 . S
C932 N940 1.356 . S
C933 C932 1.363 . S
C933 C939 1.363 . S
C934 C935 1.363 . S
C934 C939 1.379 . S
C934 N941 1.356 . S
C935 C934 1.363 . S
C935 C938 1.363 . S
N936 C938 1.356 . S
N936 H948 0.984 . S
N936 H949 0.985 . S
N937 C939 1.356 . S
N937 H942 0.984 . S
N937 H943 0.985 . S
C938 C932 1.379 . S
C938 C935 1.363 . S
C938 N936 1.356 . S
C939 C933 1.363 . S
C939 C934 1.379 . S
C939 N937 1.356 . S
N940 C932 1.356 . S
N940 H946 0.984 . S
N940 H947 0.984 . S
N941 C934 1.356 . S
N941 H944 0.984 . S
N941 H945 0.985 . S
H942 N937 0.984 . S
H943 N937 0.985 . S
H944 N941 0.984 . S
H945 N941 0.985 . S
H946 N940 0.984 . S
H947 N940 0.984 . S
H948 N936 0.984 . S
H949 N936 0.985 . S
C950 C951 1.363 1_455 S
C950 C956 1.379 . S
C950 N958 1.356 . S
C951 C950 1.363 1_655 S
C951 C957 1.363 . S
C952 C953 1.363 . S
C952 C957 1.379 . S
C952 N959 1.356 . S
C953 C952 1.363 . S
C953 C956 1.363 1_655 S
N954 C956 1.356 . S
N954 H966 0.984 . S
N954 H967 0.985 . S
N955 C957 1.356 . S
N955 H960 0.984 . S
N955 H961 0.985 . S
C956 C950 1.379 . S
C956 C953 1.363 1_455 S
C956 N954 1.356 . S
C957 C951 1.363 . S
C957 C952 1.379 . S
C957 N955 1.356 . S
N958 C950 1.356 . S
N958 H964 0.984 . S
N958 H965 0.984 . S
N959 C952 1.356 . S
N959 H962 0.984 . S
N959 H963 0.985 . S
H960 N955 0.984 . S
H961 N955 0.985 . S
H962 N959 0.984 . S
H963 N959 0.985 . S
H964 N958 0.984 . S
H965 N958 0.984 . S
H966 N954 0.984 . S
H967 N954 0.985 . S
C968 C969 1.363 . S
C968 C974 1.379 . S
C968 N976 1.356 . S
C969 C968 1.363 . S
C969 C975 1.363 . S
C970 C971 1.363 . S
C970 C975 1.379 . S
C970 N977 1.356 . S
C971 C970 1.363 . S
C971 C974 1.363 . S
N972 C974 1.356 . S
N972 H984 0.984 . S
N972 H985 0.985 . S
N973 C975 1.356 . S
N973 H978 0.984 . S
N973 H979 0.985 . S
C974 C968 1.379 . S
C974 C971 1.363 . S
C974 N972 1.356 . S
C975 C969 1.363 . S
C975 C970 1.379 . S
C975 N973 1.356 . S
N976 C968 1.356 . S
N976 H982 0.984 . S
N976 H983 0.984 . S
N977 C970 1.356 . S
N977 H980 0.984 . S
N977 H981 0.985 . S
H978 N973 0.984 . S
H979 N973 0.985 . S
H980 N977 0.984 . S
H981 N977 0.985 . S
H982 N976 0.984 . S
H983 N976 0.984 . S
H984 N972 0.984 . S
H985 N972 0.985 . S
C986 C987 1.363 . S
C986 C992 1.379 . S
C986 N994 1.356 . S
C987 C986 1.363 . S
C987 C993 1.363 . S
C988 C989 1.363 . S
C988 C993 1.379 . S
C988 N995 1.356 . S
C989 C988 1.363 . S
C989 C992 1.363 . S
N990 C992 1.356 . S
N990 H1002 0.984 . S
N990 H1003 0.985 . S
N991 C993 1.356 . S
N991 H996 0.984 . S
N991 H997 0.985 . S
C992 C986 1.379 . S
C992 C989 1.363 . S
C992 N990 1.356 . S
C993 C987 1.363 . S
C993 C988 1.379 . S
C993 N991 1.356 . S
N994 C986 1.356 . S
N994 H1000 0.984 . S
N994 H1001 0.984 . S
N995 C988 1.356 . S
N995 H998 0.984 . S
N995 H999 0.985 . S
H996 N991 0.984 . S
H997 N991 0.985 . S
H998 N995 0.984 . S
H999 N995 0.985 . S
H1000 N994 0.984 . S
H1001 N994 0.984 . S
H1002 N990 0.984 . S
H1003 N990 0.985 . S
C1004 C1005 1.363 . S
C1004 C1010 1.379 . S
C1004 N1012 1.356 . S
C1005 C1004 1.363 . S
C1005 C1011 1.363 . S
C1006 C1007 1.363 1_554 S
C1006 C1011 1.379 1_554 S
C1006 N1013 1.356 . S
C1007 C1006 1.363 1_556 S
C1007 C1010 1.363 . S
N1008 C1010 1.356 . S
N1008 H1020 0.984 . S
N1008 H1021 0.985 . S
N1009 C1011 1.356 1_554 S
N1009 H1014 0.984 1_554 S
N1009 H1015 0.985 . S
C1010 C1004 1.379 . S
C1010 C1007 1.363 . S
C1010 N1008 1.356 . S
C1011 C1005 1.363 . S
C1011 C1006 1.379 1_556 S
C1011 N1009 1.356 1_556 S
N1012 C1004 1.356 . S
N1012 H1018 0.984 . S
N1012 H1019 0.984 1_565 S
N1013 C1006 1.356 . S
N1013 H1016 0.984 . S
N1013 H1017 0.985 . S
H1014 N1009 0.984 1_556 S
H1015 N1009 0.985 . S
H1016 N1013 0.984 . S
H1017 N1013 0.985 . S
H1018 N1012 0.984 . S
H1019 N1012 0.984 1_545 S
H1020 N1008 0.984 . S
H1021 N1008 0.985 . S
C1022 C1023 1.363 . S
C1022 C1028 1.379 . S
C1022 N1030 1.356 . S
C1023 C1022 1.363 . S
C1023 C1029 1.363 . S
C1024 C1025 1.363 . S
C1024 C1029 1.379 . S
C1024 N1031 1.356 . S
C1025 C1024 1.363 . S
C1025 C1028 1.363 . S
N1026 C1028 1.356 . S
N1026 H1038 0.984 . S
N1026 H1039 0.985 . S
N1027 C1029 1.356 . S
N1027 H1032 0.984 . S
N1027 H1033 0.985 . S
C1028 C1022 1.379 . S
C1028 C1025 1.363 . S
C1028 N1026 1.356 . S
C1029 C1023 1.363 . S
C1029 C1024 1.379 . S
C1029 N1027 1.356 . S
N1030 C1022 1.356 . S
N1030 H1036 0.984 . S
N1030 H1037 0.984 . S
N1031 C1024 1.356 . S
N1031 H1034 0.984 . S
N1031 H1035 0.985 . S
H1032 N1027 0.984 . S
H1033 N1027 0.985 . S
H1034 N1031 0.984 . S
H1035 N1031 0.985 . S
H1036 N1030 0.984 . S
H1037 N1030 0.984 . S
H1038 N1026 0.984 . S
H1039 N1026 0.985 . S
C1040 C1041 1.363 . S
C1040 C1046 1.379 . S
C1040 N1048 1.356 . S
C1041 C1040 1.363 . S
C1041 C1047 1.363 . S
C1042 C1043 1.363 . S
C1042 C1047 1.379 . S
C1042 N1049 1.356 . S
C1043 C1042 1.363 . S
C1043 C1046 1.363 . S
N1044 C1046 1.356 . S
N1044 H1056 0.984 . S
N1044 H1057 0.985 . S
N1045 C1047 1.356 . S
N1045 H1050 0.984 . S
N1045 H1051 0.985 . S
C1046 C1040 1.379 . S
C1046 C1043 1.363 . S
C1046 N1044 1.356 . S
C1047 C1041 1.363 . S
C1047 C1042 1.379 . S
C1047 N1045 1.356 . S
N1048 C1040 1.356 . S
N1048 H1054 0.984 . S
N1048 H1055 0.984 . S
N1049 C1042 1.356 . S
N1049 H1052 0.984 . S
N1049 H1053 0.985 . S
H1050 N1045 0.984 . S
H1051 N1045 0.985 . S
H1052 N1049 0.984 . S
H1053 N1049 0.985 . S
H1054 N1048 0.984 . S
H1055 N1048 0.984 . S
H1056 N1044 0.984 . S
H1057 N1044 0.985 . S
C1058 C1059 1.363 . S
C1058 C1064 1.379 . S
C1058 N1066 1.356 . S
C1059 C1058 1.363 . S
C1059 C1065 1.363 . S
C1060 C1061 1.363 . S
C1060 C1065 1.379 . S
C1060 N1067 1.356 . S
C1061 C1060 1.363 . S
C1061 C1064 1.363 . S
N1062 C1064 1.356 . S
N1062 H1074 0.984 . S
N1062 H1075 0.985 . S
N1063 C1065 1.356 . S
N1063 H1068 0.984 . S
N1063 H1069 0.985 . S
C1064 C1058 1.379 . S
C1064 C1061 1.363 . S
C1064 N1062 1.356 . S
C1065 C1059 1.363 . S
C1065 C1060 1.379 . S
C1065 N1063 1.356 . S
N1066 C1058 1.356 . S
N1066 H1072 0.984 . S
N1066 H1073 0.984 . S
N1067 C1060 1.356 . S
N1067 H1070 0.984 . S
N1067 H1071 0.985 . S
H1068 N1063 0.984 . S
H1069 N1063 0.985 . S
H1070 N1067 0.984 . S
H1071 N1067 0.985 . S
H1072 N1066 0.984 . S
H1073 N1066 0.984 . S
H1074 N1062 0.984 . S
H1075 N1062 0.985 . S
C1076 C1077 1.363 . S
C1076 C1082 1.379 . S
C1076 N1084 1.356 . S
C1077 C1076 1.363 . S
C1077 C1083 1.363 . S
C1078 C1079 1.363 . S
C1078 C1083 1.379 . S
C1078 N1085 1.356 . S
C1079 C1078 1.363 . S
C1079 C1082 1.363 . S
N1080 C1082 1.356 . S
N1080 H1092 0.984 . S
N1080 H1093 0.985 . S
N1081 C1083 1.356 . S
N1081 H1086 0.984 . S
N1081 H1087 0.985 . S
C1082 C1076 1.379 . S
C1082 C1079 1.363 . S
C1082 N1080 1.356 . S
C1083 C1077 1.363 . S
C1083 C1078 1.379 . S
C1083 N1081 1.356 . S
N1084 C1076 1.356 . S
N1084 H1090 0.984 . S
N1084 H1091 0.984 . S
N1085 C1078 1.356 . S
N1085 H1088 0.984 . S
N1085 H1089 0.985 . S
H1086 N1081 0.984 . S
H1087 N1081 0.985 . S
H1088 N1085 0.984 . S
H1089 N1085 0.985 . S
H1090 N1084 0.984 . S
H1091 N1084 0.984 . S
H1092 N1080 0.984 . S
H1093 N1080 0.985 . S
C1094 C1095 1.363 . S
C1094 C1100 1.379 . S
C1094 N1102 1.356 . S
C1095 C1094 1.363 . S
C1095 C1101 1.363 . S
C1096 C1097 1.363 . S
C1096 C1101 1.379 . S
C1096 N1103 1.356 . S
C1097 C1096 1.363 . S
C1097 C1100 1.363 . S
N1098 C1100 1.356 . S
N1098 H1110 0.984 . S
N1098 H1111 0.985 . S
N1099 C1101 1.356 . S
N1099 H1104 0.984 . S
N1099 H1105 0.985 . S
C1100 C1094 1.379 . S
C1100 C1097 1.363 . S
C1100 N1098 1.356 . S
C1101 C1095 1.363 . S
C1101 C1096 1.379 . S
C1101 N1099 1.356 . S
N1102 C1094 1.356 . S
N1102 H1108 0.984 . S
N1102 H1109 0.984 . S
N1103 C1096 1.356 . S
N1103 H1106 0.984 . S
N1103 H1107 0.985 . S
H1104 N1099 0.984 . S
H1105 N1099 0.985 . S
H1106 N1103 0.984 . S
H1107 N1103 0.985 . S
H1108 N1102 0.984 . S
H1109 N1102 0.984 . S
H1110 N1098 0.984 . S
H1111 N1098 0.985 . S
C1112 C1113 1.363 . S
C1112 C1118 1.379 . S
C1112 N1120 1.356 . S
C1113 C1112 1.363 . S
C1113 C1119 1.363 . S
C1114 C1115 1.363 . S
C1114 C1119 1.379 . S
C1114 N1121 1.356 . S
C1115 C1114 1.363 . S
C1115 C1118 1.363 . S
N1116 C1118 1.356 . S
N1116 H1128 0.984 . S
N1116 H1129 0.985 . S
N1117 C1119 1.356 . S
N1117 H1122 0.984 . S
N1117 H1123 0.985 . S
C1118 C1112 1.379 . S
C1118 C1115 1.363 . S
C1118 N1116 1.356 . S
C1119 C1113 1.363 . S
C1119 C1114 1.379 . S
C1119 N1117 1.356 . S
N1120 C1112 1.356 . S
N1120 H1126 0.984 . S
N1120 H1127 0.984 . S
N1121 C1114 1.356 . S
N1121 H1124 0.984 . S
N1121 H1125 0.985 . S
H1122 N1117 0.984 . S
H1123 N1117 0.985 . S
H1124 N1121 0.984 . S
H1125 N1121 0.985 . S
H1126 N1120 0.984 . S
H1127 N1120 0.984 . S
H1128 N1116 0.984 . S
H1129 N1116 0.985 . S
C1130 C1131 1.363 . S
C1130 C1136 1.379 . S
C1130 N1138 1.356 . S
C1131 C1130 1.363 . S
C1131 C1137 1.363 . S
C1132 C1133 1.363 . S
C1132 C1137 1.379 . S
C1132 N1139 1.356 . S
C1133 C1132 1.363 . S
C1133 C1136 1.363 . S
N1134 C1136 1.356 . S
N1134 H1146 0.984 . S
N1134 H1147 0.985 . S
N1135 C1137 1.356 . S
N1135 H1140 0.984 . S
N1135 H1141 0.985 . S
C1136 C1130 1.379 . S
C1136 C1133 1.363 . S
C1136 N1134 1.356 . S
C1137 C1131 1.363 . S
C1137 C1132 1.379 . S
C1137 N1135 1.356 . S
N1138 C1130 1.356 . S
N1138 H1144 0.984 . S
N1138 H1145 0.984 . S
N1139 C1132 1.356 . S
N1139 H1142 0.987 . S
N1139 H1143 0.985 1_545 S
H1140 N1135 0.984 . S
H1141 N1135 0.985 . S
H1142 N1139 0.987 . S
H1143 N1139 0.985 1_565 S
H1144 N1138 0.984 . S
H1145 N1138 0.984 . S
H1146 N1134 0.984 . S
H1147 N1134 0.985 . S
C1148 C1149 1.363 . S
C1148 C1154 1.379 . S
C1148 N1156 1.356 . S
C1149 C1148 1.363 . S
C1149 C1155 1.363 . S
C1150 C1151 1.363 . S
C1150 C1155 1.379 . S
C1150 N1157 1.356 . S
C1151 C1150 1.363 . S
C1151 C1154 1.363 . S
N1152 C1154 1.356 . S
N1152 H1164 0.984 . S
N1152 H1165 0.985 . S
N1153 C1155 1.356 . S
N1153 H1158 0.984 . S
N1153 H1159 0.985 . S
C1154 C1148 1.379 . S
C1154 C1151 1.363 . S
C1154 N1152 1.356 . S
C1155 C1149 1.363 . S
C1155 C1150 1.379 . S
C1155 N1153 1.356 . S
N1156 C1148 1.356 . S
N1156 H1162 0.984 . S
N1156 H1163 0.984 . S
N1157 C1150 1.356 . S
N1157 H1160 0.984 . S
N1157 H1161 0.985 . S
H1158 N1153 0.984 . S
H1159 N1153 0.985 . S
H1160 N1157 0.984 . S
H1161 N1157 0.985 . S
H1162 N1156 0.984 . S
H1163 N1156 0.984 . S
H1164 N1152 0.984 . S
H1165 N1152 0.985 . S
C1166 C1167 1.363 . S
C1166 C1172 1.379 . S
C1166 N1174 1.356 . S
C1167 C1166 1.363 . S
C1167 C1173 1.363 . S
C1168 C1169 1.363 . S
C1168 C1173 1.379 . S
C1168 N1175 1.356 . S
C1169 C1168 1.363 . S
C1169 C1172 1.363 . S
N1170 C1172 1.356 . S
N1170 H1182 0.984 . S
N1170 H1183 0.985 . S
N1171 C1173 1.356 . S
N1171 H1176 0.984 . S
N1171 H1177 0.985 . S
C1172 C1166 1.379 . S
C1172 C1169 1.363 . S
C1172 N1170 1.356 . S
C1173 C1167 1.363 . S
C1173 C1168 1.379 . S
C1173 N1171 1.356 . S
N1174 C1166 1.356 . S
N1174 H1180 0.984 . S
N1174 H1181 0.984 . S
N1175 C1168 1.356 . S
N1175 H1178 0.984 . S
N1175 H1179 0.985 . S
H1176 N1171 0.984 . S
H1177 N1171 0.985 . S
H1178 N1175 0.984 . S
H1179 N1175 0.985 . S
H1180 N1174 0.984 . S
H1181 N1174 0.984 . S
H1182 N1170 0.984 . S
H1183 N1170 0.985 . S
C1184 C1185 1.363 . S
C1184 C1190 1.379 . S
C1184 N1192 1.356 . S
C1185 C1184 1.363 . S
C1185 C1191 1.363 . S
C1186 C1187 1.363 . S
C1186 C1191 1.379 . S
C1186 N1193 1.356 . S
C1187 C1186 1.363 . S
C1187 C1190 1.363 . S
N1188 C1190 1.356 . S
N1188 H1200 0.984 . S
N1188 H1201 0.985 . S
N1189 C1191 1.356 . S
N1189 H1194 0.984 . S
N1189 H1195 0.985 . S
C1190 C1184 1.379 . S
C1190 C1187 1.363 . S
C1190 N1188 1.356 . S
C1191 C1185 1.363 . S
C1191 C1186 1.379 . S
C1191 N1189 1.356 . S
N1192 C1184 1.356 . S
N1192 H1198 0.984 . S
N1192 H1199 0.984 . S
N1193 C1186 1.356 . S
N1193 H1196 0.984 . S
N1193 H1197 0.985 . S
H1194 N1189 0.984 . S
H1195 N1189 0.985 . S
H1196 N1193 0.984 . S
H1197 N1193 0.985 . S
H1198 N1192 0.984 . S
H1199 N1192 0.984 . S
H1200 N1188 0.984 . S
H1201 N1188 0.985 . S
C1202 C1203 1.363 . S
C1202 C1208 1.379 . S
C1202 N1210 1.356 . S
C1203 C1202 1.363 . S
C1203 C1209 1.363 . S
C1204 C1205 1.363 1_565 S
C1204 C1209 1.379 1_565 S
C1204 N1211 1.356 . S
C1205 C1204 1.363 1_545 S
C1205 C1208 1.363 . S
N1206 C1208 1.356 . S
N1206 H1218 0.984 . S
N1206 H1219 0.985 . S
N1207 C1209 1.356 1_565 S
N1207 H1212 0.984 . S
N1207 H1213 0.985 . S
C1208 C1202 1.379 . S
C1208 C1205 1.363 . S
C1208 N1206 1.356 . S
C1209 C1203 1.363 . S
C1209 C1204 1.379 1_545 S
C1209 N1207 1.356 1_545 S
N1210 C1202 1.356 . S
N1210 H1216 0.984 . S
N1210 H1217 0.984 . S
N1211 C1204 1.356 . S
N1211 H1214 0.984 . S
N1211 H1215 0.985 . S
H1212 N1207 0.984 . S
H1213 N1207 0.985 . S
H1214 N1211 0.984 . S
H1215 N1211 0.985 . S
H1216 N1210 0.984 . S
H1217 N1210 0.984 . S
H1218 N1206 0.984 . S
H1219 N1206 0.985 . S
C1220 C1221 1.363 . S
C1220 C1226 1.379 . S
C1220 N1228 1.356 . S
C1221 C1220 1.363 . S
C1221 C1227 1.363 . S
C1222 C1223 1.363 . S
C1222 C1227 1.379 . S
C1222 N1229 1.356 . S
C1223 C1222 1.363 . S
C1223 C1226 1.363 . S
N1224 C1226 1.356 . S
N1224 H1236 0.984 . S
N1224 H1237 0.985 . S
N1225 C1227 1.356 . S
N1225 H1230 0.984 . S
N1225 H1231 0.985 . S
C1226 C1220 1.379 . S
C1226 C1223 1.363 . S
C1226 N1224 1.356 . S
C1227 C1221 1.363 . S
C1227 C1222 1.379 . S
C1227 N1225 1.356 . S
N1228 C1220 1.356 . S
N1228 H1234 0.984 . S
N1228 H1235 0.984 . S
N1229 C1222 1.356 . S
N1229 H1232 0.984 . S
N1229 H1233 0.985 . S
H1230 N1225 0.984 . S
H1231 N1225 0.985 . S
H1232 N1229 0.984 . S
H1233 N1229 0.985 . S
H1234 N1228 0.984 . S
H1235 N1228 0.984 . S
H1236 N1224 0.984 . S
H1237 N1224 0.985 . S
C1238 C1239 1.363 . S
C1238 C1244 1.379 . S
C1238 N1246 1.326 1_455 S
C1239 C1238 1.363 . S
C1239 C1245 1.363 . S
C1240 C1241 1.363 . S
C1240 C1245 1.379 . S
C1240 N1247 1.356 . S
C1241 C1240 1.363 . S
C1241 C1244 1.363 . S
N1242 C1244 1.356 . S
N1242 H1254 0.984 . S
N1242 H1255 0.985 . S
N1243 C1245 1.356 . S
N1243 H1248 0.984 . S
N1243 H1249 0.985 . S
C1244 C1238 1.379 . S
C1244 C1241 1.363 . S
C1244 N1242 1.356 . S
C1245 C1239 1.363 . S
C1245 C1240 1.379 . S
C1245 N1243 1.356 . S
N1246 C1238 1.326 1_655 S
N1246 H1252 0.999 . S
N1246 H1253 1.002 . S
N1247 C1240 1.356 . S
N1247 H1250 0.984 . S
N1247 H1251 0.985 . S
H1248 N1243 0.984 . S
H1249 N1243 0.985 . S
H1250 N1247 0.984 . S
H1251 N1247 0.985 . S
H1252 N1246 0.999 . S
H1253 N1246 1.002 . S
H1254 N1242 0.984 . S
H1255 N1242 0.985 . S
C1256 C1257 1.363 . S
C1256 C1262 1.379 . S
C1256 N1264 1.356 . S
C1257 C1256 1.363 . S
C1257 C1263 1.363 . S
C1258 C1259 1.363 . S
C1258 C1263 1.379 . S
C1258 N1265 1.356 . S
C1259 C1258 1.363 . S
C1259 C1262 1.363 . S
N1260 C1262 1.356 . S
N1260 H1272 0.984 . S
N1260 H1273 0.985 . S
N1261 C1263 1.356 . S
N1261 H1266 0.984 . S
N1261 H1267 0.985 . S
C1262 C1256 1.379 . S
C1262 C1259 1.363 . S
C1262 N1260 1.356 . S
C1263 C1257 1.363 . S
C1263 C1258 1.379 . S
C1263 N1261 1.356 . S
N1264 C1256 1.356 . S
N1264 H1270 0.984 . S
N1264 H1271 0.984 . S
N1265 C1258 1.356 . S
N1265 H1268 0.984 . S
N1265 H1269 0.985 . S
H1266 N1261 0.984 . S
H1267 N1261 0.985 . S
H1268 N1265 0.984 . S
H1269 N1265 0.985 . S
H1270 N1264 0.984 . S
H1271 N1264 0.984 . S
H1272 N1260 0.984 . S
H1273 N1260 0.985 . S
C1274 C1275 1.363 . S
C1274 C1280 1.379 1_655 S
C1274 N1282 1.356 1_655 S
C1275 C1274 1.363 . S
C1275 C1281 1.363 . S
C1276 C1277 1.363 . S
C1276 C1281 1.379 . S
C1276 N1283 1.356 . S
C1277 C1276 1.363 . S
C1277 C1280 1.363 1_655 S
N1278 C1280 1.356 . S
N1278 H1290 0.984 . S
N1278 H1291 0.985 . S
N1279 C1281 1.356 . S
N1279 H1284 0.984 1_556 S
N1279 H1285 0.985 . S
C1280 C1274 1.379 1_455 S
C1280 C1277 1.363 1_455 S
C1280 N1278 1.356 . S
C1281 C1275 1.363 . S
C1281 C1276 1.379 . S
C1281 N1279 1.356 . S
N1282 C1274 1.356 1_455 S
N1282 H1288 0.984 . S
N1282 H1289 0.984 1_455 S
N1283 C1276 1.356 . S
N1283 H1286 0.984 . S
N1283 H1287 0.985 . S
H1284 N1279 0.984 1_554 S
H1285 N1279 0.985 . S
H1286 N1283 0.984 . S
H1287 N1283 0.985 . S
H1288 N1282 0.984 . S
H1289 N1282 0.984 1_655 S
H1290 N1278 0.984 . S
H1291 N1278 0.985 . S
C1292 C1293 1.363 . S
C1292 C1298 1.379 . S
C1292 N1300 1.356 . S
C1293 C1292 1.363 . S
C1293 C1299 1.363 . S
C1294 C1295 1.363 . S
C1294 C1299 1.379 . S
C1294 N1301 1.356 . S
C1295 C1294 1.363 . S
C1295 C1298 1.363 . S
N1296 C1298 1.356 . S
N1296 H1308 0.984 . S
N1296 H1309 0.985 . S
N1297 C1299 1.356 . S
N1297 H1302 0.984 . S
N1297 H1303 0.985 . S
C1298 C1292 1.379 . S
C1298 C1295 1.363 . S
C1298 N1296 1.356 . S
C1299 C1293 1.363 . S
C1299 C1294 1.379 . S
C1299 N1297 1.356 . S
N1300 C1292 1.356 . S
N1300 H1306 0.984 . S
N1300 H1307 0.984 . S
N1301 C1294 1.356 . S
N1301 H1304 0.984 . S
N1301 H1305 0.985 . S
H1302 N1297 0.984 . S
H1303 N1297 0.985 . S
H1304 N1301 0.984 . S
H1305 N1301 0.985 . S
H1306 N1300 0.984 . S
H1307 N1300 0.984 . S
H1308 N1296 0.984 . S
H1309 N1296 0.985 . S
C1310 C1311 1.363 . S
C1310 C1316 1.379 . S
C1310 N1318 1.356 . S
C1311 C1310 1.363 . S
C1311 C1317 1.363 . S
C1312 C1313 1.363 . S
C1312 C1317 1.379 . S
C1312 N1319 1.356 1_455 S
C1313 C1312 1.363 . S
C1313 C1316 1.363 . S
N1314 C1316 1.356 . S
N1314 H1326 0.984 . S
N1314 H1327 0.985 . S
N1315 C1317 1.356 1_654 S
N1315 H1320 0.984 1_655 S
N1315 H1321 0.985 . S
C1316 C1310 1.379 . S
C1316 C1313 1.363 . S
C1316 N1314 1.356 . S
C1317 C1311 1.363 . S
C1317 C1312 1.379 . S
C1317 N1315 1.356 1_456 S
N1318 C1310 1.356 . S
N1318 H1324 0.984 . S
N1318 H1325 0.984 . S
N1319 C1312 1.356 1_655 S
N1319 H1322 0.984 . S
N1319 H1323 0.985 . S
H1320 N1315 0.984 1_455 S
H1321 N1315 0.985 . S
H1322 N1319 0.984 . S
H1323 N1319 0.985 . S
H1324 N1318 0.984 . S
H1325 N1318 0.984 . S
H1326 N1314 0.984 . S
H1327 N1314 0.985 . S
C1328 C1329 1.363 . S
C1328 C1334 1.379 . S
C1328 N1336 1.356 . S
C1329 C1328 1.363 . S
C1329 C1335 1.363 . S
C1330 C1331 1.363 . S
C1330 C1335 1.379 . S
C1330 N1337 1.356 . S
C1331 C1330 1.363 . S
C1331 C1334 1.363 . S
N1332 C1334 1.356 . S
N1332 H1344 0.984 . S
N1332 H1345 0.985 . S
N1333 C1335 1.356 . S
N1333 H1338 0.984 . S
N1333 H1339 0.985 . S
C1334 C1328 1.379 . S
C1334 C1331 1.363 . S
C1334 N1332 1.356 . S
C1335 C1329 1.363 . S
C1335 C1330 1.379 . S
C1335 N1333 1.356 . S
N1336 C1328 1.356 . S
N1336 H1342 0.984 . S
N1336 H1343 0.984 . S
N1337 C1330 1.356 . S
N1337 H1340 0.984 . S
N1337 H1341 0.985 . S
H1338 N1333 0.984 . S
H1339 N1333 0.985 . S
H1340 N1337 0.984 . S
H1341 N1337 0.985 . S
H1342 N1336 0.984 . S
H1343 N1336 0.984 . S
H1344 N1332 0.984 . S
H1345 N1332 0.985 . S
C1346 C1347 1.363 . S
C1346 C1352 1.379 . S
C1346 N1354 1.356 . S
C1347 C1346 1.363 . S
C1347 C1353 1.363 . S
C1348 C1349 1.363 . S
C1348 C1353 1.379 . S
C1348 N1355 1.356 . S
C1349 C1348 1.363 . S
C1349 C1352 1.363 . S
N1350 C1352 1.356 . S
N1350 H1362 0.984 . S
N1350 H1363 0.985 . S
N1351 C1353 1.356 . S
N1351 H1356 0.984 . S
N1351 H1357 0.985 . S
C1352 C1346 1.379 . S
C1352 C1349 1.363 . S
C1352 N1350 1.356 . S
C1353 C1347 1.363 . S
C1353 C1348 1.379 . S
C1353 N1351 1.356 . S
N1354 C1346 1.356 . S
N1354 H1360 0.984 1_554 S
N1354 H1361 0.984 1_554 S
N1355 C1348 1.356 . S
N1355 H1358 0.984 . S
N1355 H1359 0.985 . S
H1356 N1351 0.984 . S
H1357 N1351 0.985 . S
H1358 N1355 0.984 . S
H1359 N1355 0.985 . S
H1360 N1354 0.984 1_556 S
H1361 N1354 0.984 1_556 S
H1362 N1350 0.984 . S
H1363 N1350 0.985 . S
C1364 C1365 1.363 . S
C1364 C1370 1.379 . S
C1364 N1372 1.356 . S
C1365 C1364 1.363 . S
C1365 C1371 1.363 . S
C1366 C1367 1.363 . S
C1366 C1371 1.379 . S
C1366 N1373 1.356 . S
C1367 C1366 1.363 . S
C1367 C1370 1.363 . S
N1368 C1370 1.356 . S
N1368 H1380 0.984 . S
N1368 H1381 0.985 . S
N1369 C1371 1.356 . S
N1369 H1374 0.984 . S
N1369 H1375 0.985 . S
C1370 C1364 1.379 . S
C1370 C1367 1.363 . S
C1370 N1368 1.356 . S
C1371 C1365 1.363 . S
C1371 C1366 1.379 . S
C1371 N1369 1.356 . S
N1372 C1364 1.356 . S
N1372 H1378 0.984 . S
N1372 H1379 0.984 . S
N1373 C1366 1.356 . S
N1373 H1376 0.984 . S
N1373 H1377 0.985 . S
H1374 N1369 0.984 . S
H1375 N1369 0.985 . S
H1376 N1373 0.984 . S
H1377 N1373 0.985 . S
H1378 N1372 0.984 . S
H1379 N1372 0.984 . S
H1380 N1368 0.984 . S
H1381 N1368 0.985 . S
C1382 C1383 1.363 . S
C1382 C1388 1.379 . S
C1382 N1390 1.356 . S
C1383 C1382 1.363 . S
C1383 C1389 1.363 . S
C1384 C1385 1.363 . S
C1384 C1389 1.379 . S
C1384 N1391 1.356 . S
C1385 C1384 1.363 . S
C1385 C1388 1.363 . S
N1386 C1388 1.356 . S
N1386 H1398 0.984 . S
N1386 H1399 0.985 . S
N1387 C1389 1.356 . S
N1387 H1392 0.984 . S
N1387 H1393 0.985 . S
C1388 C1382 1.379 . S
C1388 C1385 1.363 . S
C1388 N1386 1.356 . S
C1389 C1383 1.363 . S
C1389 C1384 1.379 . S
C1389 N1387 1.356 . S
N1390 C1382 1.356 . S
N1390 H1396 0.984 . S
N1390 H1397 0.984 . S
N1391 C1384 1.356 . S
N1391 H1394 0.984 . S
N1391 H1395 0.985 . S
H1392 N1387 0.984 . S
H1393 N1387 0.985 . S
H1394 N1391 0.984 . S
H1395 N1391 0.985 . S
H1396 N1390 0.984 . S
H1397 N1390 0.984 . S
H1398 N1386 0.984 . S
H1399 N1386 0.985 . S
C1400 C1401 1.363 . S
C1400 C1406 1.379 . S
C1400 N1408 1.356 . S
C1401 C1400 1.363 . S
C1401 C1407 1.363 . S
C1402 C1403 1.363 . S
C1402 C1407 1.379 . S
C1402 N1409 1.356 . S
C1403 C1402 1.363 . S
C1403 C1406 1.363 . S
N1404 C1406 1.356 . S
N1404 H1416 0.984 . S
N1404 H1417 0.985 . S
N1405 C1407 1.356 . S
N1405 H1410 0.984 . S
N1405 H1411 0.985 . S
C1406 C1400 1.379 . S
C1406 C1403 1.363 . S
C1406 N1404 1.356 . S
C1407 C1401 1.363 . S
C1407 C1402 1.379 . S
C1407 N1405 1.356 . S
N1408 C1400 1.356 . S
N1408 H1414 0.984 . S
N1408 H1415 0.984 . S
N1409 C1402 1.356 . S
N1409 H1412 0.984 . S
N1409 H1413 0.985 . S
H1410 N1405 0.984 . S
H1411 N1405 0.985 . S
H1412 N1409 0.984 . S
H1413 N1409 0.985 . S
H1414 N1408 0.984 . S
H1415 N1408 0.984 . S
H1416 N1404 0.984 . S
H1417 N1404 0.985 . S
C1418 C1419 1.363 . S
C1418 C1424 1.379 . S
C1418 N1426 1.356 . S
C1419 C1418 1.363 . S
C1419 C1425 1.363 . S
C1420 C1421 1.363 . S
C1420 C1425 1.379 . S
C1420 N1427 1.356 . S
C1421 C1420 1.363 . S
C1421 C1424 1.363 . S
N1422 C1424 1.356 . S
N1422 H1434 0.984 . S
N1422 H1435 0.985 . S
N1423 C1425 1.356 . S
N1423 H1428 0.984 . S
N1423 H1429 0.985 . S
C1424 C1418 1.379 . S
C1424 C1421 1.363 . S
C1424 N1422 1.356 . S
C1425 C1419 1.363 . S
C1425 C1420 1.379 . S
C1425 N1423 1.356 . S
N1426 C1418 1.356 . S
N1426 H1432 0.984 . S
N1426 H1433 0.984 . S
N1427 C1420 1.356 . S
N1427 H1430 0.984 . S
N1427 H1431 0.985 . S
H1428 N1423 0.984 . S
H1429 N1423 0.985 . S
H1430 N1427 0.984 . S
H1431 N1427 0.985 . S
H1432 N1426 0.984 . S
H1433 N1426 0.984 . S
H1434 N1422 0.984 . S
H1435 N1422 0.985 . S
C1436 C1437 1.363 . S
C1436 C1442 1.379 . S
C1436 N1444 1.356 . S
C1437 C1436 1.363 . S
C1437 C1443 1.363 . S
C1438 C1439 1.363 . S
C1438 C1443 1.379 . S
C1438 N1445 1.356 . S
C1439 C1438 1.363 . S
C1439 C1442 1.363 . S
N1440 C1442 1.356 . S
N1440 H1452 0.984 . S
N1440 H1453 0.985 . S
N1441 C1443 1.356 . S
N1441 H1446 0.984 . S
N1441 H1447 0.985 . S
C1442 C1436 1.379 . S
C1442 C1439 1.363 . S
C1442 N1440 1.356 . S
C1443 C1437 1.363 . S
C1443 C1438 1.379 . S
C1443 N1441 1.356 . S
N1444 C1436 1.356 . S
N1444 H1450 0.984 . S
N1444 H1451 0.984 . S
N1445 C1438 1.356 . S
N1445 H1448 0.984 . S
N1445 H1449 0.985 . S
H1446 N1441 0.984 . S
H1447 N1441 0.985 . S
H1448 N1445 0.984 . S
H1449 N1445 0.985 . S
H1450 N1444 0.984 . S
H1451 N1444 0.984 . S
H1452 N1440 0.984 . S
H1453 N1440 0.985 . S
C1454 C1455 1.363 . S
C1454 C1460 1.379 . S
C1454 N1462 1.356 . S
C1455 C1454 1.363 . S
C1455 C1461 1.363 . S
C1456 C1457 1.363 . S
C1456 C1461 1.379 . S
C1456 N1463 1.356 . S
C1457 C1456 1.363 . S
C1457 C1460 1.363 . S
N1458 C1460 1.356 . S
N1458 H1470 0.984 . S
N1458 H1471 0.985 . S
N1459 C1461 1.356 . S
N1459 H1464 0.984 . S
N1459 H1465 0.985 . S
C1460 C1454 1.379 . S
C1460 C1457 1.363 . S
C1460 N1458 1.356 . S
C1461 C1455 1.363 . S
C1461 C1456 1.379 . S
C1461 N1459 1.356 . S
N1462 C1454 1.356 . S
N1462 H1468 0.984 . S
N1462 H1469 0.984 . S
N1463 C1456 1.356 . S
N1463 H1466 0.984 . S
N1463 H1467 0.985 . S
H1464 N1459 0.984 . S
H1465 N1459 0.985 . S
H1466 N1463 0.984 . S
H1467 N1463 0.985 . S
H1468 N1462 0.984 . S
H1469 N1462 0.984 . S
H1470 N1458 0.984 . S
H1471 N1458 0.985 . S
C1472 C1473 1.363 . S
C1472 C1478 1.379 . S
C1472 N1480 1.356 . S
C1473 C1472 1.363 . S
C1473 C1479 1.363 1_556 S
C1474 C1475 1.363 1_554 S
C1474 C1479 1.379 . S
C1474 N1481 1.356 . S
C1475 C1474 1.363 1_556 S
C1475 C1478 1.363 . S
N1476 C1478 1.356 . S
N1476 H1488 0.984 . S
N1476 H1489 0.985 . S
N1477 C1479 1.356 . S
N1477 H1482 0.984 . S
N1477 H1483 0.985 . S
C1478 C1472 1.379 . S
C1478 C1475 1.363 . S
C1478 N1476 1.356 . S
C1479 C1473 1.363 1_554 S
C1479 C1474 1.379 . S
C1479 N1477 1.356 . S
N1480 C1472 1.356 . S
N1480 H1486 0.984 . S
N1480 H1487 0.984 . S
N1481 C1474 1.356 . S
N1481 H1484 0.984 . S
N1481 H1485 0.985 . S
H1482 N1477 0.984 . S
H1483 N1477 0.985 . S
H1484 N1481 0.984 . S
H1485 N1481 0.985 . S
H1486 N1480 0.984 . S
H1487 N1480 0.984 . S
H1488 N1476 0.984 . S
H1489 N1476 0.985 . S
C1490 C1491 1.363 . S
C1490 C1496 1.379 . S
C1490 N1498 1.356 . S
C1491 C1490 1.363 . S
C1491 C1497 1.363 . S
C1492 C1493 1.363 . S
C1492 C1497 1.379 . S
C1492 N1499 1.356 . S
C1493 C1492 1.363 . S
C1493 C1496 1.363 . S
N1494 C1496 1.356 . S
N1494 H1506 0.984 . S
N1494 H1507 0.985 . S
N1495 C1497 1.356 . S
N1495 H1500 0.984 . S
N1495 H1501 0.985 . S
C1496 C1490 1.379 . S
C1496 C1493 1.363 . S
C1496 N1494 1.356 . S
C1497 C1491 1.363 . S
C1497 C1492 1.379 . S
C1497 N1495 1.356 . S
N1498 C1490 1.356 . S
N1498 H1504 0.984 . S
N1498 H1505 0.984 . S
N1499 C1492 1.356 . S
N1499 H1502 0.984 . S
N1499 H1503 0.985 . S
H1500 N1495 0.984 . S
H1501 N1495 0.985 . S
H1502 N1499 0.984 . S
H1503 N1499 0.985 . S
H1504 N1498 0.984 . S
H1505 N1498 0.984 . S
H1506 N1494 0.984 . S
H1507 N1494 0.985 . S
C1508 C1509 1.363 . S
C1508 C1514 1.379 . S
C1508 N1516 1.356 1_554 S
C1509 C1508 1.363 . S
C1509 C1515 1.363 . S
C1510 C1511 1.363 . S
C1510 C1515 1.379 . S
C1510 N1517 1.356 . S
C1511 C1510 1.363 . S
C1511 C1514 1.363 . S
N1512 C1514 1.356 1_556 S
N1512 H1524 0.984 . S
N1512 H1525 0.985 . S
N1513 C1515 1.356 . S
N1513 H1518 0.984 . S
N1513 H1519 0.985 . S
C1514 C1508 1.379 . S
C1514 C1511 1.363 . S
C1514 N1512 1.356 1_554 S
C1515 C1509 1.363 . S
C1515 C1510 1.379 . S
C1515 N1513 1.356 . S
N1516 C1508 1.356 1_556 S
N1516 H1522 0.984 . S
N1516 H1523 0.984 1_556 S
N1517 C1510 1.356 . S
N1517 H1520 0.984 . S
N1517 H1521 0.985 . S
H1518 N1513 0.984 . S
H1519 N1513 0.985 . S
H1520 N1517 0.984 . S
H1521 N1517 0.985 . S
H1522 N1516 0.984 . S
H1523 N1516 0.984 1_554 S
H1524 N1512 0.984 . S
H1525 N1512 0.985 . S
C1526 C1527 1.363 . S
C1526 C1532 1.379 . S
C1526 N1534 1.356 1_554 S
C1527 C1526 1.363 . S
C1527 C1533 1.363 . S
C1528 C1529 1.363 . S
C1528 C1533 1.379 . S
C1528 N1535 1.356 . S
C1529 C1528 1.363 . S
C1529 C1532 1.363 . S
N1530 C1532 1.356 1_556 S
N1530 H1542 0.984 . S
N1530 H1543 0.985 . S
N1531 C1533 1.356 . S
N1531 H1536 0.984 1_565 S
N1531 H1537 0.986 . S
C1532 C1526 1.379 . S
C1532 C1529 1.363 . S
C1532 N1530 1.356 1_554 S
C1533 C1527 1.363 . S
C1533 C1528 1.379 . S
C1533 N1531 1.356 . S
N1534 C1526 1.356 1_556 S
N1534 H1540 0.984 . S
N1534 H1541 0.984 1_556 S
N1535 C1528 1.356 . S
N1535 H1538 0.984 . S
N1535 H1539 0.985 . S
H1536 N1531 0.984 1_545 S
H1537 N1531 0.986 . S
H1538 N1535 0.984 . S
H1539 N1535 0.985 . S
H1540 N1534 0.984 . S
H1541 N1534 0.984 1_554 S
H1542 N1530 0.984 . S
H1543 N1530 0.985 . S
C683 C520 1.463 . S
C681 C177 1.453 . S
C701 C533 1.506 . S
C699 C209 1.471 . S
C717 C253 1.524 . S
C719 C553 1.482 . S
C737 C567 1.411 . S
C735 C157 1.460 1_655 S
C755 C579 1.516 . S
C753 C343 1.495 . S
C773 C593 1.437 . S
C771 C401 1.406 . S
C789 C369 1.487 . S
C791 C603 1.498 . S
C809 C618 1.500 . S
C807 C317 1.488 . S
C825 C375 1.503 . S
C827 C632 1.498 . S
C845 C651 1.414 . S
C843 C305 1.447 . S
C861 C349 1.483 . S
C863 C631 1.504 . S
C881 C649 1.449 . S
C879 C413 1.407 . S
C897 C241 1.550 . S
C899 C665 1.488 . S
C915 C151 1.460 . S
C917 C659 1.465 . S
C933 C189 1.478 . S
C935 C663 1.509 . S
C951 C215 1.499 . S
C953 C660 1.510 . S
C969 C113 1.487 . S
C971 C562 1.482 . S
C987 C471 1.448 . S
C989 C561 1.467 . S
C1007 C525 1.399 . S
C1005 C509 1.412 . S
C1025 C539 1.503 . S
C1023 C279 1.556 . S
C1041 C145 1.498 . S
C1043 C576 1.472 . S
C1061 C621 1.540 . S
C1059 C381 1.516 . S
C1079 C575 1.500 . S
C1077 C311 1.464 . S
C1097 C607 1.434 . S
C1095 C407 1.403 . S
C1115 C604 1.463 . S
C1113 C465 1.453 . S
C1131 C497 1.471 . S
C1133 C617 1.506 . S
C1149 C285 1.524 . S
C1151 C581 1.481 . S
C1169 C595 1.410 . S
C1167 C445 1.460 . S
C1185 C119 1.496 . S
C1187 C551 1.516 . S
C1205 C565 1.437 . S
C1203 C17 1.406 . S
C1223 C519 1.498 . S
C1221 C49 1.487 . S
C1241 C534 1.500 . S
C1239 C93 1.488 . S
C1257 C55 1.503 . S
C1259 C646 1.498 . S
C1275 C81 1.463 . S
C1277 C637 1.414 . S
C1293 C125 1.483 . S
C1295 C645 1.504 . S
C1311 C29 1.407 . S
C1313 C635 1.449 . S
C1331 C679 1.488 . S
C1329 C273 1.550 . S
C1349 C673 1.465 . S
C1347 C439 1.460 . S
C1367 C677 1.509 . S
C1365 C477 1.478 . S
C1383 C503 1.499 . S
C1385 C674 1.510 . S
C1401 C337 1.488 . S
C1403 C590 1.482 . S
C1421 C589 1.467 . S
C1419 C183 1.448 . S
C1439 C609 1.399 . S
C1437 C221 1.412 . S
C1457 C623 1.503 . S
C1455 C247 1.556 . S
C1473 C433 1.498 . S
C1475 C548 1.472 . S
C1493 C537 1.540 . S
C1491 C61 1.516 . S
C1509 C87 1.464 . S
C1511 C547 1.500 . S
C1529 C523 1.434 . S
C1527 C23 1.403 . S
