# Generated by pormake.
# Topology anh, (6,3)-cn, num edge types: 1
# Building blocks:
#     Node 0, Type 0, BuildingBlock: BETFEN_clean_sbu_0, # of connection points: 6
#     Node 1, Type 0, BuildingBlock: BETFEN_clean_sbu_0, # of connection points: 6
#     Node 2, Type 0, BuildingBlock: BETFEN_clean_sbu_0, # of connection points: 6
#     Node 3, Type 1, BuildingBlock: VETTIZ_charged_linker_0, # of connection points: 3
#     Node 4, Type 1, BuildingBlock: VETTIZ_charged_linker_0, # of connection points: 3
#     Node 5, Type 1, BuildingBlock: VETTIZ_charged_linker_0, # of connection points: 3
#     Node 6, Type 1, BuildingBlock: VETTIZ_charged_linker_0, # of connection points: 3
#     Node 7, Type 1, BuildingBlock: VETTIZ_charged_linker_0, # of connection points: 3
#     Node 8, Type 1, BuildingBlock: VETTIZ_charged_linker_0, # of connection points: 3
#     Edge 9, Type (0, 1), BuildingBlock: TEMPAE_clean_linker_10, # of connection points: 2
#     Edge 10, Type (0, 1), BuildingBlock: TEMPAE_clean_linker_10, # of connection points: 2
#     Edge 11, Type (0, 1), BuildingBlock: TEMPAE_clean_linker_10, # of connection points: 2
#     Edge 12, Type (0, 1), BuildingBlock: TEMPAE_clean_linker_10, # of connection points: 2
#     Edge 13, Type (0, 1), BuildingBlock: TEMPAE_clean_linker_10, # of connection points: 2
#     Edge 14, Type (0, 1), BuildingBlock: TEMPAE_clean_linker_10, # of connection points: 2
#     Edge 15, Type (0, 1), BuildingBlock: TEMPAE_clean_linker_10, # of connection points: 2
#     Edge 16, Type (0, 1), BuildingBlock: TEMPAE_clean_linker_10, # of connection points: 2
#     Edge 17, Type (0, 1), BuildingBlock: TEMPAE_clean_linker_10, # of connection points: 2
#     Edge 18, Type (0, 1), BuildingBlock: TEMPAE_clean_linker_10, # of connection points: 2
#     Edge 19, Type (0, 1), BuildingBlock: TEMPAE_clean_linker_10, # of connection points: 2
#     Edge 20, Type (0, 1), BuildingBlock: TEMPAE_clean_linker_10, # of connection points: 2
#     Edge 21, Type (0, 1), BuildingBlock: TEMPAE_clean_linker_10, # of connection points: 2
#     Edge 22, Type (0, 1), BuildingBlock: TEMPAE_clean_linker_10, # of connection points: 2
#     Edge 23, Type (0, 1), BuildingBlock: TEMPAE_clean_linker_10, # of connection points: 2
#     Edge 24, Type (0, 1), BuildingBlock: TEMPAE_clean_linker_10, # of connection points: 2
#     Edge 25, Type (0, 1), BuildingBlock: TEMPAE_clean_linker_10, # of connection points: 2
#     Edge 26, Type (0, 1), BuildingBlock: TEMPAE_clean_linker_10, # of connection points: 2
# Relax obj value: 0.186
# Max RMSD: 0.209
# Mean RMSD: 0.158
data_MOF--net-anh--node1-BETFEN_clean_sbu_0--node2-VETTIZ_charged_linker_0--edge1-TEMPAE_clean_linker_10
_symmetry_space_group_name_H-M    P1
_symmetry_Int_Tables_number       1
_symmetry_cell_setting            triclinic
loop_
_symmetry_equiv_pos_as_xyz
'x, y, z'
_cell_length_a     35.245283
_cell_length_b     36.248587
_cell_length_c     67.546855
_cell_angle_alpha  91.163339
_cell_angle_beta   91.434149
_cell_angle_gamma 104.59045
loop_
_atom_site_label
_atom_site_type_symbol
_atom_site_fract_x
_atom_site_fract_y
_atom_site_fract_z
_atom_type_partial_charge
Pr0 Pr 0.07357 0.54671 0.16391 0.0
Pr1 Pr 0.0923 0.62799 0.15084 0.0
C2 C 0.04421 0.47991 0.18148 0.0
C3 C 1.00617 0.45168 0.18289 0.0
C4 C 0.98129 0.43952 0.16616 0.0
C5 C 0.94544 0.41246 0.16792 0.0
C6 C 0.93371 0.39725 0.18645 0.0
C7 C 0.95851 0.41013 0.20318 0.0
C8 C 0.99438 0.43693 0.20139 0.0
C9 C 0.08048 0.55411 0.12306 0.0
C10 C 1.00036 0.58726 0.15361 0.0
C11 C 0.12246 0.6967 0.13532 0.0
C12 C 0.15787 0.72755 0.13984 0.0
C13 C 0.17574 0.73139 0.15883 0.0
C14 C 0.20938 0.76057 0.16318 0.0
C15 C 0.22606 0.78627 0.14857 0.0
C16 C 0.20846 0.78196 0.12945 0.0
C17 C 0.17452 0.75285 0.12515 0.0
C18 C 0.08654 0.61978 0.19168 0.0
C19 C 0.16564 0.58608 0.15953 0.0
O20 O 0.0474 0.51301 0.19035 0.0
O21 O 0.06112 0.48247 0.16436 0.0
O22 O 0.06279 0.57261 0.13391 0.0
O23 O 0.09381 0.52958 0.13304 0.0
O24 O 1.0253 0.61217 0.1432 0.0
O25 O 1.01268 0.56286 0.16479 0.0
O26 O 0.12836 0.66508 0.1279 0.0
O27 O 0.09576 0.69087 0.1488 0.0
O28 O 0.10441 0.60217 0.18052 0.0
O29 O 0.07156 0.64347 0.18199 0.0
O30 O 0.14117 0.55993 0.16949 0.0
O31 O 0.15303 0.61183 0.1495 0.0
H32 H 0.98958 0.45076 0.15172 0.0
H33 H 0.92724 0.40304 0.15471 0.0
H34 H 0.95008 0.39974 0.21776 0.0
H35 H 1.01295 0.44623 0.2145 0.0
H36 H 0.16367 0.71176 0.17031 0.0
H37 H 0.22265 0.76278 0.17794 0.0
H38 H 0.22061 0.80141 0.11793 0.0
H39 H 0.16125 0.75012 0.11037 0.0
Pr40 Pr 0.58623 0.08585 0.51361 0.0
Pr41 Pr 0.49136 0.06208 0.51709 0.0
C42 C 0.66163 0.11741 0.5054 0.0
C43 C 0.68676 0.15498 0.50005 0.0
C44 C 0.70661 0.18098 0.51491 0.0
C45 C 0.73096 0.21613 0.50996 0.0
C46 C 0.73631 0.226 0.49003 0.0
C47 C 0.7165 0.20001 0.47516 0.0
C48 C 0.69205 0.16487 0.48011 0.0
C49 C 0.55585 0.0716 0.55108 0.0
C50 C 0.53585 0.15473 0.51453 0.0
C51 C 0.42038 1.0352 0.5323 0.0
C52 C 0.38766 1.0015 0.52824 0.0
C53 C 0.38187 0.98399 0.50931 0.0
C54 C 0.35274 0.95024 0.50587 0.0
C55 C 0.32906 0.93318 0.52133 0.0
C56 C 0.3349 0.95089 0.54027 0.0
C57 C 0.36399 0.98483 0.54369 0.0
C58 C 0.51119 0.0601 0.4773 0.0
C59 C 0.54224 0.99369 0.51283 0.0
O60 O 0.63579 0.09882 0.49206 0.0
O61 O 0.64854 0.11443 0.52342 0.0
O62 O 0.54326 0.08949 0.53771 0.0
O63 O 0.58681 0.06114 0.54561 0.0
O64 O 0.50336 0.12915 0.5192 0.0
O65 O 0.5687 0.14477 0.51041 0.0
O66 O 0.45232 1.02792 0.53976 0.0
O67 O 0.42715 0.06113 0.51863 0.0
O68 O 0.53416 0.06846 0.49216 0.0
O69 O 0.47505 1.0525 0.48289 0.0
O70 O 0.57439 1.01964 0.50815 0.0
O71 O 0.50987 1.00326 0.51827 0.0
H72 H 0.70362 0.1741 0.53042 0.0
H73 H 0.74626 0.23526 0.52174 0.0
H74 H 0.71974 0.20693 0.45967 0.0
H75 H 0.67743 0.14541 0.46829 0.0
H76 H 0.4004 0.99599 0.49728 0.0
H77 H 0.34946 0.93693 0.49121 0.0
H78 H 0.31701 0.9385 0.55244 0.0
H79 H 0.36846 0.99774 0.55845 0.0
Pr80 Pr 0.59981 0.55491 0.81745 0.0
Pr81 Pr 0.62287 0.64344 0.8355 0.0
C82 C 0.58813 0.48688 0.79887 0.0
C83 C 0.55885 0.45034 0.80079 0.0
C84 C 0.5439 0.43864 0.81936 0.0
C85 C 0.51522 0.40447 0.82104 0.0
C86 C 0.50064 0.38152 0.80414 0.0
C87 C 0.51547 0.3936 0.78553 0.0
C88 C 0.54438 0.42767 0.78389 0.0
C89 C 0.59225 0.56455 0.85783 0.0
C90 C 0.6951 0.60548 0.82409 0.0
C91 C 0.62283 0.70099 0.86071 0.0
C92 C 0.58986 0.71863 0.86353 0.0
C93 C 0.5518 0.69535 0.86596 0.0
C94 C 0.51909 0.70986 0.86316 0.0
C95 C 0.5237 0.748 0.85805 0.0
C96 C 0.56184 0.77213 0.85746 0.0
C97 C 0.59467 0.7575 0.86008 0.0
C98 C 0.61585 0.63994 0.79392 0.0
C99 C 0.52862 0.5982 0.82374 0.0
O100 O 0.61307 0.49757 0.81391 0.0
O101 O 0.57489 0.51469 0.79158 0.0
O102 O 0.61941 0.58387 0.84768 0.0
O103 O 0.5694 0.53694 0.84736 0.0
O104 O 0.68513 0.63265 0.83464 0.0
O105 O 0.66892 0.57695 0.81484 0.0
O106 O 0.61688 0.6657 0.86636 0.0
O107 O 0.63959 0.70668 0.8435 0.0
O108 O 0.61125 0.61348 0.80586 0.0
O109 O 0.62522 0.67239 0.80378 0.0
O110 O 0.53869 0.56948 0.81466 0.0
O111 O 0.55403 0.62606 0.83356 0.0
H112 H 0.55433 0.45595 0.83261 0.0
H113 H 0.50481 0.39586 0.8356 0.0
H114 H 0.50439 0.37696 0.77217 0.0
H115 H 0.55519 0.43651 0.76941 0.0
H116 H 0.54693 0.66518 0.86863 0.0
H117 H 0.49026 0.69045 0.86358 0.0
H118 H 0.56627 0.80191 0.85394 0.0
H119 H 0.62364 0.77597 0.85815 0.0
C120 C 0.6609 0.17768 0.21215 0.0
C121 C 0.68989 0.20481 0.22315 0.0
C122 C 0.69146 0.20248 0.24395 0.0
C123 C 0.63616 0.14715 0.24259 0.0
C124 C 0.63433 0.14917 0.22219 0.0
C125 C 0.60153 0.1179 0.21305 0.0
H126 H 0.45293 0.96018 0.22608 0.0
C127 C 0.6052 0.11404 0.24854 0.0
C128 C 0.58474 0.09653 0.23132 0.0
H129 H 0.48831 1.01569 0.17111 0.0
H130 H 0.53976 0.063 0.18871 0.0
H131 H 0.53983 0.96705 0.24451 0.0
H132 H 0.45735 1.03583 0.25061 0.0
H133 H 0.47901 1.03451 0.27416 0.0
H134 H 0.45104 0.99075 0.26228 0.0
H135 H 0.49608 0.95233 0.2584 0.0
H136 H 0.54113 0.98114 0.26961 0.0
C137 C 0.6197 0.09306 0.19911 0.0
C138 C 0.57175 0.13661 0.20264 0.0
C139 C 0.58858 0.08553 0.3216 0.0
C140 C 0.56258 0.05688 0.33182 0.0
C141 C 0.53568 1.02776 0.32086 0.0
C142 C 0.53406 1.0277 0.30011 0.0
C143 C 0.55958 0.05708 0.29012 0.0
C144 C 0.58658 0.08504 0.30086 0.0
C145 C 0.61167 0.11372 0.28777 0.0
C146 C 0.59468 0.09885 0.26741 0.0
C147 C 0.56414 0.0658 0.26888 0.0
C148 C 0.65479 0.11131 0.29068 0.0
C149 C 0.60468 0.15335 0.29287 0.0
C150 C 0.47212 0.9822 0.21778 0.0
C151 C 0.4669 0.98401 0.19718 0.0
C152 C 0.4918 1.01376 0.187 0.0
C153 C 0.52164 1.04112 0.19724 0.0
C154 C 0.52636 1.03892 0.2179 0.0
C155 C 0.50162 1.00984 0.22778 0.0
C156 C 0.50955 1.01258 0.24977 0.0
C157 C 0.54337 1.04794 0.25155 0.0
C158 C 0.55337 0.06326 0.23286 0.0
C159 C 0.52206 0.97639 0.25609 0.0
C160 C 0.4724 1.01847 0.2599 0.0
H161 H 0.66792 0.17388 0.2695 0.0
H162 H 0.65882 0.17874 0.19616 0.0
H163 H 0.56932 0.16262 0.21103 0.0
H164 H 0.54166 0.11796 0.20189 0.0
H165 H 0.58089 0.14521 0.18745 0.0
H166 H 0.64677 0.08788 0.20606 0.0
H167 H 0.62778 0.1074 0.18488 0.0
H168 H 0.60014 0.06453 0.19591 0.0
H169 H 0.60992 0.10802 0.32957 0.0
H170 H 0.51506 1.00556 0.32838 0.0
H171 H 0.51259 1.00504 0.29267 0.0
H172 H 0.65631 0.0821 0.29474 0.0
H173 H 0.67028 0.13129 0.30267 0.0
H174 H 0.6716 0.11691 0.27699 0.0
H175 H 0.57337 0.15075 0.29621 0.0
H176 H 0.61068 0.17321 0.28049 0.0
H177 H 0.62268 0.16677 0.30608 0.0
H178 H 0.71393 0.22237 0.25278 0.0
C179 C 0.66487 0.17397 0.25368 0.0
C180 C 0.54908 0.6857 0.52378 0.0
C181 C 0.56677 0.72278 0.5321 0.0
C182 C 0.59632 0.72607 0.54699 0.0
C183 C 0.58261 0.65774 0.54901 0.0
C184 C 0.55843 0.65324 0.53232 0.0
C185 C 0.54413 0.61082 0.52649 0.0
H186 H 0.52143 0.42719 0.55811 0.0
C187 C 0.58065 0.6204 0.55746 0.0
C188 C 0.56191 0.59192 0.54345 0.0
H189 H 0.55721 0.45984 0.49899 0.0
H190 H 0.56384 0.52716 0.50855 0.0
H191 H 0.59231 0.48449 0.575 0.0
H192 H 0.47238 0.49113 0.56974 0.0
H193 H 0.49132 0.5151 0.5921 0.0
H194 H 0.48895 0.4649 0.58893 0.0
H195 H 0.55384 0.45671 0.58946 0.0
H196 H 0.58103 0.50357 0.59749 0.0
C197 C 0.55973 0.6037 0.50607 0.0
C198 C 0.49903 0.59834 0.5263 0.0
C199 C 0.59242 0.62028 0.63273 0.0
C200 C 0.57724 0.59242 0.64658 0.0
C201 C 0.55617 0.55585 0.63978 0.0
C202 C 0.55104 0.54691 0.61946 0.0
C203 C 0.56703 0.57486 0.60575 0.0
C204 C 0.58611 0.61119 0.61245 0.0
C205 C 0.59842 0.63804 0.59574 0.0
C206 C 0.58298 0.61159 0.57781 0.0
C207 C 0.56612 0.57449 0.58387 0.0
C208 C 0.64375 0.65099 0.59635 0.0
C209 C 0.57851 0.67162 0.59787 0.0
C210 C 0.52922 0.44826 0.54678 0.0
C211 C 0.53822 0.43753 0.5277 0.0
C212 C 0.54884 0.46671 0.51365 0.0
C213 C 0.55176 0.50556 0.51894 0.0
C214 C 0.54297 0.51541 0.53825 0.0
C215 C 0.53355 0.48681 0.55194 0.0
C216 C 0.53696 0.50242 0.57286 0.0
C217 C 0.55205 0.54475 0.56956 0.0
C218 C 0.55229 0.55287 0.54929 0.0
C219 C 0.56735 0.48599 0.58448 0.0
C220 C 0.49542 0.49279 0.58153 0.0
H221 H 0.62734 0.69809 0.56644 0.0
H222 H 0.52772 0.68207 0.51164 0.0
H223 H 0.48788 0.60484 0.54088 0.0
H224 H 0.48852 0.56714 0.5232 0.0
H225 H 0.4863 0.61334 0.51468 0.0
H226 H 0.59145 0.60452 0.50717 0.0
H227 H 0.55584 0.62574 0.49555 0.0
H228 H 0.54315 0.57596 0.49945 0.0
H229 H 0.60815 0.64881 0.63761 0.0
H230 H 0.54421 0.53397 0.65023 0.0
H231 H 0.53518 0.51843 0.61522 0.0
H232 H 0.65667 0.62669 0.59966 0.0
H233 H 0.65454 0.67355 0.608 0.0
H234 H 0.65565 0.66168 0.58199 0.0
H235 H 0.56814 0.67471 0.61306 0.0
H236 H 0.55233 0.66755 0.58777 0.0
H237 H 0.599 0.69952 0.59508 0.0
H238 H 0.61255 0.75386 0.55272 0.0
C239 C 0.60447 0.69391 0.55527 0.0
C240 C 0.22223 0.60421 0.85257 0.0
C241 C 0.25662 0.60039 0.86278 0.0
C242 C 0.2539 0.59043 0.88289 0.0
C243 C 0.18582 0.59209 0.88291 0.0
C244 C 0.18703 0.5996 0.86293 0.0
C245 C 0.14701 0.60122 0.85475 0.0
H246 H 0.95483 0.59038 0.87453 0.0
C247 C 0.14602 0.59017 0.88976 0.0
C248 C 0.12255 0.59504 0.87333 0.0
H249 H 1.00647 0.60408 0.817 0.0
H250 H 0.07037 0.60489 0.83212 0.0
H251 H 0.99498 0.52802 0.88914 0.0
H252 H 1.02264 0.64972 0.89699 0.0
H253 H 1.0361 0.63285 0.91956 0.0
H254 H 0.98553 0.61868 0.91084 0.0
H255 H 0.96832 0.55192 0.90511 0.0
H256 H 1.01111 0.53773 0.91392 0.0
C257 C 0.13294 0.56823 0.83933 0.0
C258 C 0.15023 0.64102 0.84622 0.0
C259 C 0.11949 0.57618 0.9634 0.0
C260 C 0.0858 0.57461 0.97443 0.0
C261 C 0.05087 0.57675 0.96444 0.0
C262 C 0.04943 0.58034 0.94387 0.0
C263 C 0.08329 0.58184 0.93302 0.0
C264 C 0.11752 0.57978 0.94279 0.0
C265 C 0.15048 0.58173 0.92879 0.0
C266 C 0.13042 0.5859 0.90903 0.0
C267 C 0.0912 0.58582 0.91166 0.0
C268 C 0.16296 0.54362 0.92973 0.0
C269 C 0.18347 0.61772 0.93463 0.0
C270 C 0.97965 0.59301 0.86503 0.0
C271 C 0.97531 0.59626 0.84451 0.0
C272 C 1.00892 0.60114 0.83287 0.0
C273 C 0.04587 0.60133 0.84165 0.0
C274 C 0.04919 0.59676 0.86226 0.0
C275 C 1.01618 0.59313 0.87346 0.0
C276 C 1.02399 0.58896 0.89504 0.0
C277 C 0.06699 0.5896 0.89517 0.0
C278 C 0.08221 0.5943 0.87602 0.0
C279 C 0.99821 0.54984 0.90133 0.0
C280 C 1.01651 0.62408 0.90634 0.0
H281 H 0.21971 0.57954 0.90822 0.0
H282 H 0.22276 0.61105 0.83704 0.0
H283 H 0.16682 0.66366 0.85677 0.0
H284 H 0.12135 0.64699 0.84365 0.0
H285 H 0.16587 0.64406 0.83203 0.0
H286 H 0.13907 0.54155 0.84487 0.0
H287 H 0.1483 0.575 0.82519 0.0
H288 H 0.10104 0.56138 0.83625 0.0
H289 H 0.14668 0.57419 0.9706 0.0
H290 H 1.02465 0.57614 0.97259 0.0
H291 H 1.02191 0.58183 0.93726 0.0
H292 H 0.13901 0.52005 0.93509 0.0
H293 H 0.18883 0.54627 0.93989 0.0
H294 H 0.16953 0.53338 0.91495 0.0
H295 H 0.17088 0.64223 0.93817 0.0
H296 H 0.20401 0.62755 0.92266 0.0
H297 H 0.20046 0.6127 0.94794 0.0
H298 H 0.27882 0.58526 0.89103 0.0
C299 C 0.21914 0.58661 0.89293 0.0
C300 C 0.95096 0.49359 0.45723 0.0
C301 C 0.92343 0.46621 0.44564 0.0
C302 C 0.92481 0.46775 0.42482 0.0
C303 C 0.98104 0.52222 0.42739 0.0
C304 C 0.9794 0.52134 0.4478 0.0
C305 C 1.01102 0.55268 0.45771 0.0
H306 H 0.17064 0.7012 0.44823 0.0
C307 C 1.01498 0.55319 0.42219 0.0
C308 C 1.03288 0.57116 0.43987 0.0
H309 H 0.11121 0.66241 0.50201 0.0
H310 H 0.06522 0.61174 0.48339 0.0
H311 H 0.16953 0.62058 0.42985 0.0
H312 H 0.09232 0.69424 0.4218 0.0
H313 H 0.10188 0.67757 0.39828 0.0
H314 H 0.14188 0.70506 0.41359 0.0
H315 H 0.181 0.66005 0.41357 0.0
H316 H 0.15246 0.61346 0.40509 0.0
C317 C 1.03698 0.53423 0.47109 0.0
C318 C 0.99106 0.58008 0.4689 0.0
C319 C 0.04666 0.57697 0.3498 0.0
C320 C 0.07838 0.6011 0.34036 0.0
C321 C 0.10924 0.62415 0.35223 0.0
C322 C 0.1079 0.6242 0.37292 0.0
C323 C 0.07561 0.60065 0.38204 0.0
C324 C 0.04621 0.57684 0.37053 0.0
C325 C 1.01581 0.55154 0.38286 0.0
C326 C 1.03115 0.5652 0.40365 0.0
C327 C 0.06579 0.59434 0.40303 0.0
C328 C 1.01672 0.50953 0.37857 0.0
C329 C 0.97576 0.56026 0.37818 0.0
C330 C 0.14812 0.68143 0.45607 0.0
C331 C 0.14471 0.68555 0.47661 0.0
C332 C 0.11434 0.65981 0.48617 0.0
C333 C 0.08771 0.63049 0.47533 0.0
C334 C 0.09123 0.62719 0.4547 0.0
C335 C 0.12114 0.65249 0.44547 0.0
C336 C 0.11976 0.64601 0.42342 0.0
C337 C 0.08372 0.61294 0.42081 0.0
C338 C 0.06721 0.60171 0.43915 0.0
C339 C 0.15765 0.63468 0.41751 0.0
C340 C 0.11388 0.68255 0.4136 0.0
H341 H 0.95291 0.4949 0.3998 0.0
H342 H 0.95038 0.49342 0.47325 0.0
H343 H 0.96312 0.58137 0.46124 0.0
H344 H 1.00899 0.60988 0.46946 0.0
H345 H 0.98407 0.57061 0.48422 0.0
H346 H 0.04372 0.50945 0.46325 0.0
H347 H 1.02182 0.5238 0.48489 0.0
H348 H 0.06564 0.5538 0.47516 0.0
H349 H 1.02234 0.55878 0.34135 0.0
H350 H 0.13475 0.6421 0.34557 0.0
H351 H 0.13212 0.64266 0.38102 0.0
H352 H 0.04596 0.50753 0.3735 0.0
H353 H 0.99471 0.49597 0.36683 0.0
H354 H 1.01188 0.492 0.39193 0.0
H355 H 0.97933 0.59148 0.37682 0.0
H356 H 0.95447 0.55156 0.38997 0.0
H357 H 0.9626 0.54619 0.36397 0.0
H358 H 0.90433 0.44677 0.41555 0.0
C359 C 0.95334 0.49554 0.41567 0.0
C360 C 0.32155 0.89481 0.79619 0.0
C361 C 0.33428 0.86268 0.79008 0.0
C362 C 0.34145 0.85802 0.76982 0.0
C363 C 0.33083 0.92008 0.76317 0.0
C364 C 0.32067 0.92332 0.78264 0.0
C365 C 0.31462 0.96202 0.78761 0.0
H366 H 0.33821 0.14474 0.76193 0.0
C367 C 0.33293 0.95691 0.75372 0.0
C368 C 0.32298 0.98147 0.76794 0.0
H369 H 0.30839 0.09624 0.81911 0.0
H370 H 0.30224 1.03287 0.80502 0.0
H371 H 0.39804 0.10445 0.75439 0.0
H372 H 0.27751 0.07567 0.73437 0.0
H373 H 0.30425 0.06495 0.71439 0.0
H374 H 0.31422 0.1134 0.72409 0.0
H375 H 0.38113 0.12753 0.73397 0.0
H376 H 0.398 0.08494 0.73054 0.0
C377 C 0.34511 0.9811 0.80416 0.0
C378 C 0.27139 0.95695 0.79325 0.0
C379 C 0.39264 0.98273 0.68584 0.0
C380 C 0.40246 1.0161 0.67478 0.0
C381 C 0.38984 1.04822 0.681 0.0
C382 C 0.36952 1.04796 0.6985 0.0
C383 C 0.36227 1.01546 0.71017 0.0
C384 C 0.37264 0.98312 0.70354 0.0
C385 C 0.36271 0.95153 0.71818 0.0
C386 C 0.34563 0.97072 0.73481 0.0
C387 C 0.34607 1.0083 0.73006 0.0
C388 C 0.40144 0.94181 0.72477 0.0
C389 C 0.33168 0.91772 0.70832 0.0
C390 C 0.32885 0.12041 0.7713 0.0
C391 C 0.32352 0.12544 0.79162 0.0
C392 C 0.3127 0.09304 0.80341 0.0
C393 C 0.30945 0.05638 0.79522 0.0
C394 C 0.31811 1.05228 0.77518 0.0
C395 C 0.32658 0.08397 0.7635 0.0
C396 C 0.33821 0.07522 0.74305 0.0
C397 C 0.33577 1.03301 0.74435 0.0
C398 C 0.32401 1.01966 0.76316 0.0
C399 C 0.38086 0.09927 0.74011 0.0
C400 C 0.30727 0.08289 0.72806 0.0
H401 H 0.34673 0.88181 0.74132 0.0
H402 H 0.31517 0.89912 0.81154 0.0
H403 H 0.25146 0.93577 0.78307 0.0
H404 H 0.26159 0.98346 0.79198 0.0
H405 H 0.26664 0.94651 0.80857 0.0
H406 H 0.37211 0.97055 0.80352 0.0
H407 H 0.33297 0.97504 0.8191 0.0
H408 H 0.35582 1.01225 0.8027 0.0
H409 H 0.40195 0.95763 0.68131 0.0
H410 H 0.3965 0.07394 0.67247 0.0
H411 H 0.36159 0.07366 0.70264 0.0
H412 H 0.42556 0.96824 0.72683 0.0
H413 H 0.41058 0.92334 0.71348 0.0
H414 H 0.39981 0.92779 0.73915 0.0
H415 H 0.31181 0.92802 0.69795 0.0
H416 H 0.31203 0.90074 0.71914 0.0
H417 H 0.3458 0.89869 0.6997 0.0
H418 H 0.35152 0.83382 0.76456 0.0
C419 C 0.33936 0.88634 0.75633 0.0
C420 C 0.68558 0.57747 0.13062 0.0
C421 C 0.7203 0.57615 0.12096 0.0
C422 C 0.72158 0.5795 0.10027 0.0
C423 C 0.65434 0.58389 0.09881 0.0
C424 C 0.65272 0.58106 0.11916 0.0
C425 C 0.61251 0.58157 0.12638 0.0
H426 H 0.42456 0.58645 0.10209 0.0
C427 C 0.61581 0.58667 0.091 0.0
C428 C 0.59079 0.58537 0.10698 0.0
H429 H 0.47263 0.57762 0.16075 0.0
H430 H 0.53664 0.58147 0.14705 0.0
H431 H 0.49566 0.65089 0.08779 0.0
H432 H 0.46611 0.52867 0.08058 0.0
H433 H 0.48218 0.5477 0.05767 0.0
H434 H 0.43941 0.55803 0.06818 0.0
H435 H 0.458 0.62582 0.07053 0.0
H436 H 0.50869 0.64093 0.06372 0.0
C437 C 0.61686 0.61682 0.14031 0.0
C438 C 0.59486 0.54321 0.13626 0.0
C439 C 0.5956 0.59275 0.01671 0.0
C440 C 0.56324 0.59438 0.00454 0.0
C441 C 0.52822 0.59715 0.01335 0.0
C442 C 0.52516 0.59699 0.03404 0.0
C443 C 0.5575 0.59409 0.04601 0.0
C444 C 0.59209 0.59267 0.03726 0.0
C445 C 0.62358 0.59005 0.05212 0.0
C446 C 0.60208 0.58959 0.07132 0.0
C447 C 0.56344 0.59171 0.06768 0.0
C448 C 0.65772 0.62648 0.05066 0.0
C449 C 0.6349 0.55193 0.048 0.0
C450 C 0.44868 0.58488 0.11203 0.0
C451 C 0.44333 0.58106 0.13247 0.0
C452 C 0.47595 0.58039 0.14491 0.0
C453 C 0.51299 0.58243 0.13692 0.0
C454 C 0.51746 0.5853 0.1163 0.0
C455 C 0.4855 0.58685 0.10433 0.0
C456 C 0.49495 0.59023 0.08284 0.0
C457 C 0.53781 0.59008 0.08366 0.0
C458 C 0.5512 0.58707 0.10326 0.0
C459 C 0.48884 0.62876 0.07566 0.0
C460 C 0.4693 0.55456 0.07156 0.0
H461 H 0.69229 0.58574 0.07354 0.0
H462 H 0.68388 0.57506 0.14655 0.0
H463 H 0.6006 0.51912 0.12738 0.0
H464 H 0.56272 0.53687 0.13733 0.0
H465 H 0.60804 0.54272 0.15134 0.0
H466 H 0.63751 0.64215 0.13419 0.0
H467 H 0.62853 0.61179 0.15517 0.0
H468 H 0.58903 0.62504 0.14207 0.0
H469 H 0.62311 0.59123 0.01036 0.0
H470 H 0.50286 0.59836 0.00423 0.0
H471 H 0.49753 0.5985 0.03987 0.0
H472 H 0.64669 0.65133 0.04611 0.0
H473 H 0.67915 0.6224 0.03957 0.0
H474 H 0.67331 0.63568 0.06503 0.0
H475 H 0.60919 0.52944 0.04215 0.0
H476 H 0.6446 0.53971 0.06149 0.0
H477 H 0.65812 0.55543 0.03688 0.0
H478 H 0.74815 0.5793 0.09257 0.0
C479 C 0.68904 0.58345 0.08921 0.0
C480 C 0.23328 0.61221 0.14721 0.0
C481 C 0.20779 0.58617 0.15898 0.0
C482 C 0.27253 0.61107 0.14528 0.0
C483 C 0.28689 0.58333 0.15544 0.0
C484 C 0.26179 0.55792 0.16798 0.0
C485 C 0.2225 0.55954 0.16955 0.0
C486 C 0.2982 0.63865 0.1317 0.0
C487 C 0.27608 0.52818 0.17921 0.0
C488 C 0.37054 0.55495 0.13015 0.0
C489 C 0.40358 0.57792 0.14033 0.0
C490 C 0.33244 0.55534 0.13546 0.0
C491 C 0.32704 0.57905 0.1515 0.0
C492 C 0.36018 0.60068 0.16258 0.0
C493 C 0.39813 0.5999 0.15685 0.0
C494 C 0.29801 0.53171 0.12326 0.0
C495 C 0.35562 0.62602 0.17989 0.0
H496 H 0.22237 0.63304 0.13904 0.0
H497 H 0.20317 0.53944 0.17879 0.0
H498 H 0.32577 0.65396 0.13964 0.0
H499 H 0.30638 0.62269 0.11898 0.0
H500 H 0.28338 0.66001 0.12585 0.0
H501 H 0.2543 0.51323 0.18985 0.0
H502 H 0.28211 0.50671 0.16862 0.0
H503 H 0.30398 0.54147 0.18743 0.0
H504 H 0.37453 0.53731 0.11762 0.0
H505 H 0.42351 0.61778 0.16475 0.0
H506 H 0.28287 0.55081 0.11542 0.0
H507 H 0.27642 0.51368 0.133 0.0
H508 H 0.30706 0.51296 0.11208 0.0
H509 H 0.345 0.65041 0.17443 0.0
H510 H 0.3837 0.6374 0.18837 0.0
H511 H 0.33344 0.61014 0.19006 0.0
C512 C 0.78923 0.26437 0.46931 0.0
C513 C 0.76313 0.26294 0.48477 0.0
C514 C 0.81494 0.29889 0.46421 0.0
C515 C 0.81458 0.33289 0.47483 0.0
C516 C 0.78844 0.33167 0.49052 0.0
C517 C 0.76301 0.29669 0.49531 0.0
C518 C 0.84246 0.29899 0.44742 0.0
C519 C 0.78712 0.36734 0.50212 0.0
C520 C 0.90576 0.41432 0.47029 0.0
C521 C 0.89425 0.43496 0.45491 0.0
C522 C 0.87962 0.3818 0.47749 0.0
C523 C 0.8411 0.36972 0.46912 0.0
C524 C 0.8288 0.39149 0.45424 0.0
C525 C 0.85551 0.42383 0.44733 0.0
C526 C 0.89379 0.3594 0.49342 0.0
C527 C 0.7879 0.37974 0.44504 0.0
H528 H 0.78992 0.23832 0.46132 0.0
H529 H 0.74263 0.29584 0.50714 0.0
H530 H 0.83668 0.31792 0.43563 0.0
H531 H 0.87328 0.31047 0.45279 0.0
H532 H 0.83939 0.27004 0.4408 0.0
H533 H 0.7657 0.36143 0.51417 0.0
H534 H 0.81656 0.38105 0.50874 0.0
H535 H 0.77906 0.38816 0.49207 0.0
H536 H 0.93573 0.42261 0.4761 0.0
H537 H 0.84629 0.44006 0.43566 0.0
H538 H 0.89524 0.33124 0.4872 0.0
H539 H 0.87289 0.35401 0.50568 0.0
H540 H 0.92329 0.37437 0.4996 0.0
H541 H 0.78387 0.35225 0.43671 0.0
H542 H 0.78203 0.40128 0.43472 0.0
H543 H 0.76576 0.37524 0.45672 0.0
C544 C 0.4921 0.78263 0.83383 0.0
C545 C 0.48927 0.76116 0.85098 0.0
C546 C 0.45979 0.79394 0.82608 0.0
C547 C 0.42348 0.7834 0.83564 0.0
C548 C 0.42007 0.76115 0.8528 0.0
C549 C 0.45311 0.75026 0.86028 0.0
C550 C 0.46473 0.81751 0.80766 0.0
C551 C 0.38164 0.74837 0.86309 0.0
C552 C 0.36768 0.85519 0.8223 0.0
C553 C 0.34715 0.83823 0.80498 0.0
C554 C 0.38906 0.83558 0.83398 0.0
C555 C 0.39051 0.79835 0.82806 0.0
C556 C 0.3663 0.77946 0.812 0.0
C557 C 0.34473 0.79963 0.80065 0.0
C558 C 0.41365 0.85637 0.85136 0.0
C559 C 0.36608 0.73924 0.8057 0.0
H560 H 0.51956 0.79009 0.82619 0.0
H561 H 0.45067 0.73333 0.87345 0.0
H562 H 0.44327 0.80307 0.7959 0.0
H563 H 0.45891 0.84565 0.81099 0.0
H564 H 0.49469 0.82239 0.80176 0.0
H565 H 0.38561 0.73755 0.87808 0.0
H566 H 0.36697 0.77198 0.86448 0.0
H567 H 0.36176 0.725 0.85418 0.0
H568 H 0.37004 0.88496 0.82589 0.0
H569 H 0.32794 0.78586 0.78768 0.0
H570 H 0.44481 0.86536 0.84714 0.0
H571 H 0.41196 0.83738 0.86416 0.0
H572 H 0.40428 0.88218 0.85607 0.0
H573 H 0.39451 0.73906 0.79904 0.0
H574 H 0.34213 0.72692 0.79465 0.0
H575 H 0.36271 0.72067 0.81872 0.0
C576 C 0.93148 0.56269 0.16499 0.0
C577 C 0.95785 0.58563 0.15226 0.0
C578 C 0.89098 0.55988 0.16335 0.0
C579 C 0.87642 0.58011 0.14848 0.0
C580 C 0.903 0.60392 0.13588 0.0
C581 C 0.94333 0.60653 0.13799 0.0
C582 C 0.8637 0.53453 0.1772 0.0
C583 C 0.88871 0.6257 0.11968 0.0
C584 C 0.77501 0.54461 0.12473 0.0
C585 C 0.75605 0.57177 0.13172 0.0
C586 C 0.81342 0.54555 0.13105 0.0
C587 C 0.83336 0.57425 0.14484 0.0
C588 C 0.81317 0.59974 0.15324 0.0
C589 C 0.77462 0.59825 0.14653 0.0
C590 C 0.83362 0.51767 0.12175 0.0
C591 C 0.83317 0.63029 0.16824 0.0
H592 H 0.94242 0.54664 0.17618 0.0
H593 H 0.9634 0.62434 0.12809 0.0
H594 H 0.84379 0.5502 0.18398 0.0
H595 H 0.84509 0.50966 0.16876 0.0
H596 H 0.87988 0.52384 0.18921 0.0
H597 H 0.91322 0.64418 0.11167 0.0
H598 H 0.86977 0.60539 0.10882 0.0
H599 H 0.87065 0.64381 0.126 0.0
H600 H 0.76048 0.52389 0.11339 0.0
H601 H 0.76007 0.61935 0.1519 0.0
H602 H 0.84817 0.50424 0.13329 0.0
H603 H 0.85673 0.53311 0.1119 0.0
H604 H 0.81289 0.49482 0.11284 0.0
H605 H 0.84943 0.61837 0.1797 0.0
H606 H 0.81193 0.64364 0.17562 0.0
H607 H 0.85481 0.65286 0.16072 0.0
C608 C 0.29575 0.86655 0.5309 0.0
C609 C 0.29922 0.89647 0.51765 0.0
C610 C 0.2697 0.83078 0.52676 0.0
C611 C 0.24662 0.82489 0.50897 0.0
C612 C 0.24912 0.85537 0.49588 0.0
C613 C 0.27537 0.89074 0.50038 0.0
C614 C 0.26788 0.79897 0.54106 0.0
C615 C 0.22485 0.85032 0.4768 0.0
C616 C 0.21189 0.72752 0.48369 0.0
C617 C 0.17172 0.71806 0.48753 0.0
C618 C 0.23699 0.76136 0.49143 0.0
C619 C 0.22155 0.7864 0.5033 0.0
C620 C 0.18146 0.77598 0.50816 0.0
C621 C 0.15698 0.74185 0.50022 0.0
C622 C 0.27963 0.77124 0.48602 0.0
C623 C 0.16396 0.80187 0.52083 0.0
H624 H 0.31437 0.87071 0.5442 0.0
H625 H 0.27752 0.91394 0.49024 0.0
H626 H 0.23704 0.78587 0.54483 0.0
H627 H 0.27942 0.77628 0.53401 0.0
H628 H 0.28523 0.80901 0.55497 0.0
H629 H 0.22881 0.87736 0.46873 0.0
H630 H 0.23319 0.82894 0.46697 0.0
H631 H 0.19329 0.83936 0.47988 0.0
H632 H 0.22347 0.70891 0.47411 0.0
H633 H 0.1259 0.73478 0.50312 0.0
H634 H 0.29881 0.77924 0.4995 0.0
H635 H 0.28568 0.79624 0.4763 0.0
H636 H 0.28772 0.74726 0.47814 0.0
H637 H 0.18232 0.81129 0.53447 0.0
H638 H 0.13362 0.78777 0.52511 0.0
H639 H 0.16322 0.82781 0.51254 0.0
C640 C 0.4726 0.31287 0.79452 0.0
C641 C 0.47034 0.34496 0.80589 0.0
C642 C 0.44391 0.27838 0.79552 0.0
C643 C 0.4123 0.27566 0.80842 0.0
C644 C 0.41022 0.30759 0.82033 0.0
C645 C 0.43917 0.34199 0.81884 0.0
C646 C 0.44729 0.24491 0.78258 0.0
C647 C 0.37719 0.3056 0.83439 0.0
C648 C 0.32762 0.19513 0.79063 0.0
C649 C 0.33635 0.16448 0.80051 0.0
C650 C 0.34983 0.23258 0.7945 0.0
C651 C 0.38117 0.23939 0.80872 0.0
C652 C 0.38672 0.20921 0.8205 0.0
C653 C 0.36424 0.17195 0.81621 0.0
C654 C 0.34262 0.26399 0.78175 0.0
C655 C 0.41924 0.21543 0.83612 0.0
H656 H 0.49701 0.31464 0.78483 0.0
H657 H 0.43698 0.36675 0.82756 0.0
H658 H 0.44867 0.2204 0.7919 0.0
H659 H 0.42096 0.23567 0.77259 0.0
H660 H 0.47371 0.25178 0.77337 0.0
H661 H 0.38179 0.33178 0.84392 0.0
H662 H 0.34911 0.30172 0.82585 0.0
H663 H 0.37412 0.28064 0.84401 0.0
H664 H 0.30561 0.18944 0.77869 0.0
H665 H 0.37117 0.14841 0.82391 0.0
H666 H 0.36547 0.27071 0.77042 0.0
H667 H 0.34462 0.29039 0.79073 0.0
H668 H 0.31344 0.25562 0.77398 0.0
H669 H 0.44755 0.21743 0.82885 0.0
H670 H 0.41452 0.19157 0.8466 0.0
H671 H 0.42181 0.24249 0.84463 0.0
C672 C 0.50773 0.92324 0.51312 0.0
C673 C 0.54276 0.95228 0.51268 0.0
C674 C 0.50796 0.88432 0.51393 0.0
C675 C 0.54409 0.87372 0.51474 0.0
C676 C 0.57949 0.90286 0.51389 0.0
C677 C 0.57838 0.94148 0.5127 0.0
C678 C 0.46941 0.85455 0.51443 0.0
C679 C 0.61879 0.89339 0.51506 0.0
C680 C 0.55069 0.78409 0.54212 0.0
C681 C 0.55494 0.75865 0.52679 0.0
C682 C 0.54631 0.82086 0.53833 0.0
C683 C 0.54523 0.83299 0.51858 0.0
C684 C 0.54709 0.80673 0.50289 0.0
C685 C 0.55206 0.76997 0.50715 0.0
C686 C 0.54458 0.84736 0.55565 0.0
C687 C 0.54519 0.81794 0.48159 0.0
H688 H 0.47993 0.93093 0.51294 0.0
H689 H 0.6057 0.96339 0.51242 0.0
H690 H 0.46872 0.83132 0.50336 0.0
H691 H 0.46611 0.84156 0.52922 0.0
H692 H 0.44395 0.86671 0.5114 0.0
H693 H 0.64356 0.91881 0.5131 0.0
H694 H 0.62272 0.88121 0.52969 0.0
H695 H 0.6201 0.87149 0.50357 0.0
H696 H 0.55208 0.77556 0.55736 0.0
H697 H 0.5553 0.75078 0.49516 0.0
H698 H 0.51773 0.85792 0.55438 0.0
H699 H 0.57011 0.87258 0.55557 0.0
H700 H 0.54475 0.83334 0.57012 0.0
H701 H 0.51987 0.83042 0.47896 0.0
H702 H 0.54258 0.79331 0.47113 0.0
H703 H 0.57212 0.84012 0.47829 0.0
C704 C 0.75099 0.58402 0.80908 0.0
C705 C 0.73749 0.60623 0.82323 0.0
C706 C 0.79063 0.58279 0.80906 0.0
C707 C 0.81729 0.60362 0.82378 0.0
C708 C 0.80404 0.62695 0.83772 0.0
C709 C 0.76451 0.6282 0.83717 0.0
C710 C 0.80367 0.55822 0.79367 0.0
C711 C 0.83123 0.64926 0.85386 0.0
C712 C 0.90294 0.56737 0.84297 0.0
C713 C 0.93538 0.59441 0.83597 0.0
C714 C 0.86443 0.56909 0.83836 0.0
C715 C 0.85785 0.59818 0.82608 0.0
C716 C 0.89035 0.62382 0.81769 0.0
C717 C 0.92882 0.62175 0.82281 0.0
C718 C 0.83087 0.54114 0.8477 0.0
C719 C 0.8846 0.65469 0.80416 0.0
H720 H 0.7305 0.56726 0.79809 0.0
H721 H 0.7545 0.64543 0.8482 0.0
H722 H 0.83104 0.57433 0.78687 0.0
H723 H 0.81019 0.53312 0.8008 0.0
H724 H 0.78092 0.54788 0.78176 0.0
H725 H 0.81701 0.66765 0.86288 0.0
H726 H 0.84098 0.62925 0.86384 0.0
H727 H 0.85783 0.66749 0.84734 0.0
H728 H 0.90776 0.54562 0.85282 0.0
H729 H 0.95368 0.64273 0.81732 0.0
H730 H 0.80861 0.52703 0.83622 0.0
H731 H 0.81623 0.55663 0.85819 0.0
H732 H 0.84075 0.5188 0.8559 0.0
H733 H 0.86098 0.64294 0.79288 0.0
H734 H 0.91189 0.66835 0.79649 0.0
H735 H 0.87543 0.67699 0.81294 0.0
C736 C 0.29369 0.82461 0.14088 0.0
C737 C 0.26169 0.81737 0.15343 0.0
C738 C 0.32835 0.85252 0.14599 0.0
C739 C 0.33087 0.87384 0.164 0.0
C740 C 0.29821 0.86735 0.17643 0.0
C741 C 0.26411 0.83913 0.17103 0.0
C742 C 0.36264 0.85842 0.13243 0.0
C743 C 0.29953 0.88969 0.19567 0.0
C744 C 0.4284 0.91662 0.19081 0.0
C745 C 0.43465 0.95542 0.18669 0.0
C746 C 0.3956 0.88956 0.1828 0.0
C747 C 0.36817 0.90159 0.17048 0.0
C748 C 0.37512 0.94053 0.16563 0.0
C749 C 0.40842 0.96699 0.17374 0.0
C750 C 0.38954 0.84827 0.18817 0.0
C751 C 0.34647 0.95449 0.15263 0.0
H752 H 0.29204 0.80766 0.12733 0.0
H753 H 0.23923 0.83399 0.18063 0.0
H754 H 0.37279 0.88893 0.12873 0.0
H755 H 0.38754 0.85048 0.14009 0.0
H756 H 0.35523 0.84113 0.11845 0.0
H757 H 0.27098 0.88254 0.20314 0.0
H758 H 0.32227 0.88374 0.20589 0.0
H759 H 0.30778 0.92073 0.19293 0.0
H760 H 0.4489 0.90753 0.20063 0.0
H761 H 0.41301 0.997 0.17065 0.0
H762 H 0.38418 0.82972 0.17459 0.0
H763 H 0.36323 0.83953 0.19732 0.0
H764 H 0.41511 0.84313 0.1966 0.0
H765 H 0.33981 0.93709 0.13869 0.0
H766 H 0.35776 0.98492 0.14888 0.0
H767 H 0.31846 0.95126 0.16036 0.0
C768 C 0.56888 0.2241 0.50823 0.0
C769 C 0.53595 0.19637 0.51438 0.0
C770 C 0.5699 0.26339 0.50866 0.0
C771 C 0.53733 0.27585 0.51552 0.0
C772 C 0.50379 0.24797 0.52145 0.0
C773 C 0.50345 0.20885 0.52075 0.0
C774 C 0.60628 0.29169 0.50208 0.0
C775 C 0.46847 0.25957 0.52906 0.0
C776 C 0.55451 0.3766 0.53842 0.0
C777 C 0.53998 0.39676 0.52363 0.0
C778 C 0.55407 0.33779 0.53587 0.0
C779 C 0.53931 0.31795 0.51789 0.0
C780 C 0.52587 0.33831 0.50256 0.0
C781 C 0.52634 0.3773 0.50559 0.0
C782 C 0.56891 0.31782 0.55268 0.0
C783 C 0.51031 0.31868 0.48305 0.0
H784 H 0.59422 0.21518 0.50319 0.0
H785 H 0.47778 0.18805 0.52557 0.0
H786 H 0.59841 0.31027 0.49065 0.0
H787 H 0.62026 0.31043 0.51482 0.0
H788 H 0.62811 0.27751 0.49594 0.0
H789 H 0.44396 0.23459 0.53221 0.0
H790 H 0.47677 0.27717 0.54287 0.0
H791 H 0.4579 0.27735 0.51808 0.0
H792 H 0.56634 0.39124 0.55223 0.0
H793 H 0.5151 0.39224 0.49399 0.0
H794 H 0.59306 0.30571 0.54763 0.0
H795 H 0.54505 0.29371 0.55749 0.0
H796 H 0.57979 0.33721 0.56568 0.0
H797 H 0.53233 0.30527 0.47652 0.0
H798 H 0.50285 0.33865 0.47224 0.0
H799 H 0.48363 0.29553 0.48547 0.0
C800 C 0.45848 0.56636 0.8297 0.0
C801 C 0.4868 0.59874 0.82419 0.0
C802 C 0.41993 0.56829 0.8335 0.0
C803 C 0.40904 0.60309 0.83097 0.0
C804 C 0.4371 0.63525 0.8242 0.0
C805 C 0.47583 0.63289 0.82129 0.0
C806 C 0.39174 0.53385 0.84165 0.0
C807 C 0.42636 0.67227 0.82027 0.0
C808 C 0.2987 0.59402 0.8335 0.0
C809 C 0.29552 0.60601 0.85317 0.0
C810 C 0.33567 0.59501 0.82559 0.0
C811 C 0.37009 0.60692 0.83783 0.0
C812 C 0.36711 0.62066 0.85734 0.0
C813 C 0.33023 0.62114 0.86447 0.0
C814 C 0.33775 0.58229 0.80434 0.0
C815 C 0.40276 0.63395 0.87103 0.0
H816 H 0.46715 0.54016 0.83227 0.0
H817 H 0.49776 0.65794 0.81697 0.0
H818 H 0.38418 0.54059 0.85693 0.0
H819 H 0.36407 0.52632 0.83259 0.0
H820 H 0.40418 0.50858 0.84206 0.0
H821 H 0.45195 0.69515 0.81591 0.0
H822 H 0.40355 0.66751 0.80821 0.0
H823 H 0.41362 0.68234 0.83354 0.0
H824 H 0.27235 0.58264 0.82447 0.0
H825 H 0.32859 0.6324 0.87932 0.0
H826 H 0.34464 0.55409 0.80384 0.0
H827 H 0.36156 0.60267 0.79682 0.0
H828 H 0.30967 0.57983 0.79595 0.0
H829 H 0.42061 0.61272 0.87112 0.0
H830 H 0.39481 0.63891 0.8865 0.0
H831 H 0.42136 0.66104 0.86572 0.0
C832 C 0.86181 0.37065 0.17798 0.0
C833 C 0.8959 0.36801 0.18847 0.0
C834 C 0.82569 0.34415 0.18064 0.0
C835 C 0.82353 0.31464 0.1943 0.0
C836 C 0.85801 0.31124 0.20451 0.0
C837 C 0.89372 0.33774 0.20137 0.0
C838 C 0.78966 0.34842 0.1693 0.0
C839 C 0.85701 0.28024 0.21926 0.0
C840 C 0.73127 0.27176 0.22183 0.0
C841 C 0.71968 0.23482 0.21336 0.0
C842 C 0.76381 0.29875 0.21502 0.0
C843 C 0.78508 0.28878 0.19915 0.0
C844 C 0.77176 0.25254 0.18953 0.0
C845 C 0.73926 0.22587 0.19681 0.0
C846 C 0.77691 0.33707 0.22569 0.0
C847 C 0.79322 0.2411 0.17232 0.0
H848 H 0.86307 0.39406 0.16808 0.0
H849 H 0.92002 0.33487 0.20918 0.0
H850 H 0.77385 0.32079 0.16218 0.0
H851 H 0.76928 0.35698 0.17965 0.0
H852 H 0.79696 0.37018 0.1577 0.0
H853 H 0.88662 0.28079 0.22549 0.0
H854 H 0.83796 0.28362 0.23165 0.0
H855 H 0.84425 0.25183 0.21213 0.0
H856 H 0.71567 0.27915 0.23433 0.0
H857 H 0.73052 0.19738 0.19019 0.0
H858 H 0.78171 0.36041 0.21496 0.0
H859 H 0.80529 0.33917 0.23371 0.0
H860 H 0.75528 0.3416 0.23657 0.0
H861 H 0.80009 0.26421 0.16145 0.0
H862 H 0.77596 0.21456 0.16463 0.0
H863 H 0.82148 0.23623 0.17777 0.0
C864 C 0.10095 0.53424 0.09028 0.0
C865 C 0.08292 0.55774 0.10139 0.0
C866 C 0.10293 0.53691 0.06962 0.0
C867 C 0.08656 0.5638 0.05989 0.0
C868 C 0.06879 0.58797 0.0711 0.0
C869 C 0.06716 0.58462 0.09174 0.0
C870 C 0.12211 0.51067 0.05817 0.0
C871 C 0.05111 0.61705 0.06126 0.0
C872 C 0.11832 0.5929 0.00791 0.0
C873 C 0.08681 0.57097 -0.00371 0.0
C874 C 0.11879 0.59071 0.02864 0.0
C875 C 0.08703 0.56594 0.03794 0.0
C876 C 0.05541 0.54337 0.02627 0.0
C877 C 0.0557 0.54616 0.00559 0.0
C878 C 0.15297 0.61527 0.04061 0.0
C879 C 1.02113 0.51645 0.03563 0.0
H880 H 0.1133 0.51352 0.09773 0.0
H881 H 0.05338 0.60297 0.10032 0.0
H882 H 0.10042 0.49241 0.04759 0.0
H883 H 0.14619 0.52761 0.04933 0.0
H884 H 0.13427 0.49198 0.068 0.0
H885 H 0.03937 0.63439 0.07215 0.0
H886 H 0.07347 0.6365 0.05248 0.0
H887 H 1.02692 0.60245 0.05083 0.0
H888 H 0.14224 0.61242 0.0008 0.0
H889 H 1.03155 0.52873 -0.00334 0.0
H890 H 0.16667 0.59717 0.05005 0.0
H891 H 0.14248 0.63494 0.05066 0.0
H892 H 0.17574 0.63244 0.03111 0.0
H893 H 1.03163 0.49558 0.04468 0.0
H894 H 0.99909 0.50055 0.02444 0.0
H895 H 1.00648 0.53263 0.04574 0.0
C896 C 0.49357 1.05289 0.44138 0.0
C897 C 0.52268 0.06002 0.45647 0.0
C898 C 0.50334 1.05279 0.42142 0.0
C899 C 0.54324 0.05986 0.41641 0.0
C900 C 0.57284 0.06696 0.4316 0.0
C901 C 0.56215 0.06695 0.45151 0.0
C902 C 0.47089 1.04526 0.40567 0.0
C903 C 0.61567 0.07452 0.42681 0.0
C904 C 0.55822 1.025 0.36458 0.0
C905 C 0.56199 0.0583 0.35378 0.0
C906 C 0.55411 1.02547 0.38519 0.0
C907 C 0.55352 0.06002 0.39519 0.0
C908 C 0.55892 0.09402 0.38448 0.0
C909 C 0.56314 0.09276 0.3639 0.0
C910 C 0.54878 0.98869 0.39613 0.0
C911 C 0.55827 0.13139 0.3946 0.0
H912 H 0.46299 1.0475 0.44518 0.0
H913 H 0.58461 0.07224 0.46317 0.0
H914 H 0.47507 0.06984 0.39571 0.0
H915 H 0.47186 1.01988 0.39643 0.0
H916 H 0.44136 1.04035 0.41207 0.0
H917 H 0.63506 0.07982 0.44035 0.0
H918 H 0.62096 1.0498 0.41838 0.0
H919 H 0.62403 0.09964 0.41726 0.0
H920 H 0.55791 0.99842 0.35685 0.0
H921 H 0.56569 0.11853 0.35562 0.0
H922 H 0.51853 0.97998 0.40167 0.0
H923 H 0.56923 0.99275 0.40921 0.0
H924 H 0.55375 0.96516 0.38656 0.0
H925 H 0.52837 0.1298 0.3999 0.0
H926 H 0.56656 0.1558 0.38454 0.0
H927 H 0.57858 0.13702 0.40775 0.0
C928 C 0.61188 0.59955 0.76342 0.0
C929 C 0.61159 0.63474 0.77225 0.0
C930 C 0.60702 0.59356 0.74286 0.0
C931 C 0.60118 0.6234 0.73089 0.0
C932 C 0.60096 0.6591 0.73976 0.0
C933 C 0.60655 0.66447 0.76039 0.0
C934 C 0.60808 0.55529 0.73394 0.0
C935 C 0.59419 0.69136 0.72751 0.0
C936 C 0.6209 0.61789 0.67604 0.0
C937 C 0.5832 0.60144 0.66807 0.0
C938 C 0.62718 0.62544 0.69648 0.0
C939 C 0.59486 0.61695 0.70913 0.0
C940 C 0.5566 0.60111 0.70106 0.0
C941 C 0.55129 0.59321 0.68062 0.0
C942 C 0.66847 0.64172 0.70459 0.0
C943 C 0.52134 0.59226 0.71404 0.0
H944 H 0.61627 0.57673 0.77262 0.0
H945 H 0.6062 0.69166 0.76727 0.0
H946 H 0.57968 0.54189 0.72619 0.0
H947 H 0.63117 0.55907 0.72276 0.0
H948 H 0.6139 0.53545 0.74528 0.0
H949 H 0.59488 0.71733 0.73668 0.0
H950 H 0.61688 0.69879 0.71616 0.0
H951 H 0.56532 0.68229 0.71953 0.0
H952 H 0.6456 0.62398 0.66632 0.0
H953 H 0.52208 0.58085 0.67438 0.0
H954 H 0.67651 0.62159 0.7151 0.0
H955 H 0.67035 0.6688 0.71296 0.0
H956 H 0.6903 0.64727 0.69272 0.0
H957 H 0.52411 0.57028 0.72479 0.0
H958 H 0.49341 0.58172 0.70532 0.0
H959 H 0.51986 0.61815 0.72272 0.0
C960 C 0.50204 0.07384 0.57376 0.0
C961 C 0.53496 0.06039 0.56952 0.0
C962 C 0.48084 0.06296 0.59085 0.0
C963 C 0.49336 1.03864 0.60427 0.0
C964 C 0.52669 1.02498 0.60011 0.0
C965 C 0.5471 1.03597 0.5827 0.0
C966 C 0.44527 0.07791 0.59463 0.0
C967 C 0.54104 0.99926 0.61418 0.0
C968 C 0.46112 1.04949 0.65658 0.0
C969 C 0.42779 1.0189 0.65746 0.0
C970 C 0.48387 0.05507 0.63969 0.0
C971 C 0.47275 1.02964 0.62317 0.0
C972 C 0.43995 0.99779 0.62425 0.0
C973 C 0.41793 0.99262 0.64152 0.0
C974 C 0.51882 0.08916 0.63921 0.0
C975 C 0.42704 0.97028 0.60686 0.0
H976 H 0.49264 0.09283 0.56361 0.0
H977 H 0.57255 1.02552 0.57942 0.0
H978 H 0.41935 0.05386 0.59696 0.0
H979 H 0.45036 0.09611 0.60833 0.0
H980 H 0.43829 0.09494 0.5822 0.0
H981 H 0.56643 0.98987 0.6084 0.0
H982 H 0.54992 1.01444 0.62865 0.0
H983 H 0.51706 0.97368 0.61698 0.0
H984 H 0.46903 0.06948 0.66907 0.0
H985 H 0.3921 0.969 0.64224 0.0
H986 H 0.51297 0.10965 0.62828 0.0
H987 H 0.54513 0.08023 0.63443 0.0
H988 H 0.52557 0.10417 0.65387 0.0
H989 H 0.41628 0.98506 0.5945 0.0
H990 H 0.40325 0.94517 0.61068 0.0
H991 H 0.45218 0.96017 0.60138 0.0
C992 C 0.55167 0.5537 0.88771 0.0
C993 C 0.58686 0.57182 0.87896 0.0
C994 C 0.54625 0.5591 0.90795 0.0
C995 C 0.57679 0.58326 0.91963 0.0
C996 C 0.61208 0.60232 0.91074 0.0
C997 C 0.61681 0.59611 0.89048 0.0
C998 C 0.5083 0.53813 0.91692 0.0
C999 C 0.64519 0.62847 0.92272 0.0
C1000 C 0.55278 0.61674 0.97041 0.0
C1001 C 0.56586 0.59154 0.98274 0.0
C1002 C 0.55631 0.61459 0.94977 0.0
C1003 C 0.57291 0.58634 0.94139 0.0
C1004 C 0.58568 0.56058 0.95379 0.0
C1005 C 0.58208 0.56356 0.97431 0.0
C1006 C 0.54263 0.64266 0.93695 0.0
C1007 C 0.60309 0.52977 0.94539 0.0
H1008 H 0.52842 0.53497 0.87877 0.0
H1009 H 0.64418 0.60982 0.88374 0.0
H1010 H 0.51425 0.51775 0.92789 0.0
H1011 H 0.49495 0.55848 0.92493 0.0
H1012 H 0.4867 0.52205 0.90558 0.0
H1013 H 0.66938 0.6434 0.91329 0.0
H1014 H 0.6342 0.65011 0.93109 0.0
H1015 H 0.65722 0.61174 0.93371 0.0
H1016 H 0.54047 0.63854 0.97693 0.0
H1017 H 0.59166 0.54369 0.98382 0.0
H1018 H 0.51968 0.62721 0.9261 0.0
H1019 H 0.56741 0.65908 0.92835 0.0
H1020 H 0.53057 0.66302 0.94578 0.0
H1021 H 0.58174 0.511 0.93486 0.0
H1022 H 0.61138 0.51189 0.95709 0.0
H1023 H 0.62958 0.54278 0.93701 0.0
C1024 C 0.11321 0.60209 0.22356 0.0
C1025 C 0.08452 0.61529 0.21323 0.0
C1026 C 0.11235 0.5989 0.24421 0.0
C1027 C 0.08132 0.60795 0.2546 0.0
C1028 C 0.05159 0.62014 0.24409 0.0
C1029 C 0.05392 0.62427 0.22353 0.0
C1030 C 0.14514 0.58682 0.25496 0.0
C1031 C 1.0174 0.6289 0.25458 0.0
C1032 C 0.06304 0.56986 0.30641 0.0
C1033 C 0.07927 0.60258 0.3183 0.0
C1034 C 0.06295 0.57129 0.28565 0.0
C1035 C 0.08066 0.60593 0.27654 0.0
C1036 C 0.09768 0.63886 0.28837 0.0
C1037 C 0.09617 0.63696 0.30905 0.0
C1038 C 0.0437 0.53579 0.27348 0.0
C1039 C 0.11753 0.67617 0.27919 0.0
H1040 H 0.13692 0.59523 0.21553 0.0
H1041 H 1.0315 0.63405 0.21544 0.0
H1042 H 0.16035 0.60966 0.2657 0.0
H1043 H 0.13311 0.56093 0.26353 0.0
H1044 H 0.16705 0.58073 0.24467 0.0
H1045 H 0.99546 0.63561 0.24408 0.0
H1046 H 1.00262 0.60423 0.26344 0.0
H1047 H 1.02804 0.65357 0.26502 0.0
H1048 H 0.05054 0.54294 0.31326 0.0
H1049 H 0.10798 0.66269 0.31794 0.0
H1050 H 0.06571 0.52713 0.26423 0.0
H1051 H 1.02093 0.54168 0.26325 0.0
H1052 H 1.02982 0.51152 0.28284 0.0
H1053 H 0.1406 0.67193 0.26914 0.0
H1054 H 0.13119 0.69859 0.29049 0.0
H1055 H 0.09591 0.68659 0.27012 0.0
loop_
_geom_bond_atom_site_label_1
_geom_bond_atom_site_label_2
_geom_bond_distance
_geom_bond_site_symmetry_2
_ccdc_geom_bond_type
Pr0 C2 2.880 . S
Pr0 O20 2.562 . S
Pr0 O21 2.490 . S
Pr0 O22 2.695 1_655 S
Pr0 O23 2.512 . S
Pr0 O25 2.437 . S
Pr0 O28 2.436 . S
Pr0 O30 2.438 1_655 S
Pr1 C11 2.880 . S
Pr1 O22 2.436 . S
Pr1 O24 2.438 1_455 S
Pr1 O26 2.562 . S
Pr1 O27 2.490 . S
Pr1 O28 2.695 1_455 S
Pr1 O29 2.512 . S
Pr1 O31 2.437 . S
C2 Pr0 2.880 . S
C2 C3 1.491 . S
C2 O20 1.254 . S
C2 O21 1.225 . S
C3 C2 1.491 . S
C3 C4 1.392 . S
C3 C8 1.356 . S
C4 C3 1.392 . S
C4 C5 1.368 . S
C4 H32 0.929 . S
C5 C4 1.368 . S
C5 C6 1.386 . S
C5 H33 0.929 . S
C6 C5 1.386 . S
C6 C7 1.373 . S
C7 C6 1.373 . S
C7 C8 1.409 . S
C7 H34 0.931 . S
C8 C3 1.356 . S
C8 C7 1.409 . S
C8 H35 0.930 . S
C9 O22 1.270 . S
C9 O23 1.248 1_455 S
C10 O24 1.267 . S
C10 O25 1.278 . S
C11 Pr1 2.880 . S
C11 C12 1.491 . S
C11 O26 1.254 . S
C11 O27 1.225 . S
C12 C11 1.491 . S
C12 C13 1.392 . S
C12 C17 1.356 . S
C13 C12 1.392 . S
C13 C14 1.368 . S
C13 H36 0.929 . S
C14 C13 1.368 . S
C14 C15 1.386 . S
C14 H37 0.929 . S
C15 C14 1.386 . S
C15 C16 1.373 . S
C16 C15 1.373 . S
C16 C17 1.409 . S
C16 H38 0.931 . S
C17 C12 1.356 . S
C17 C16 1.409 . S
C17 H39 0.930 . S
C18 O28 1.270 1_455 S
C18 O29 1.248 . S
C19 O30 1.267 . S
C19 O31 1.278 . S
O20 Pr0 2.562 . S
O20 C2 1.254 . S
O21 Pr0 2.490 . S
O21 C2 1.225 . S
O22 Pr0 2.695 1_455 S
O22 Pr1 2.436 . S
O22 C9 1.270 . S
O23 Pr0 2.512 . S
O23 C9 1.248 1_655 S
O24 Pr1 2.438 1_655 S
O24 C10 1.267 . S
O25 Pr0 2.437 . S
O25 C10 1.278 . S
O26 Pr1 2.562 . S
O26 C11 1.254 . S
O27 Pr1 2.490 . S
O27 C11 1.225 . S
O28 Pr0 2.436 . S
O28 Pr1 2.695 1_655 S
O28 C18 1.270 1_655 S
O29 Pr1 2.512 . S
O29 C18 1.248 . S
O30 Pr0 2.438 1_455 S
O30 C19 1.267 . S
O31 Pr1 2.437 . S
O31 C19 1.278 . S
H32 C4 0.929 . S
H33 C5 0.929 . S
H34 C7 0.931 . S
H35 C8 0.930 . S
H36 C13 0.929 . S
H37 C14 0.929 . S
H38 C16 0.931 . S
H39 C17 0.930 . S
Pr40 C42 2.880 . S
Pr40 O60 2.562 . S
Pr40 O61 2.490 . S
Pr40 O62 2.695 . S
Pr40 O63 2.512 . S
Pr40 O65 2.437 . S
Pr40 O68 2.436 . S
Pr40 O70 2.438 1_545 S
Pr41 C51 2.880 . S
Pr41 O62 2.436 1_565 S
Pr41 O64 2.438 1_565 S
Pr41 O66 2.562 . S
Pr41 O67 2.490 . S
Pr41 O68 2.695 1_565 S
Pr41 O69 2.512 . S
Pr41 O71 2.437 . S
C42 Pr40 2.880 . S
C42 C43 1.491 . S
C42 O60 1.254 . S
C42 O61 1.225 . S
C43 C42 1.491 . S
C43 C44 1.392 . S
C43 C48 1.356 . S
C44 C43 1.392 . S
C44 C45 1.368 . S
C44 H72 0.929 . S
C45 C44 1.368 . S
C45 C46 1.386 . S
C45 H73 0.929 . S
C46 C45 1.386 . S
C46 C47 1.373 . S
C47 C46 1.373 . S
C47 C48 1.409 . S
C47 H74 0.931 . S
C48 C43 1.356 . S
C48 C47 1.409 . S
C48 H75 0.930 . S
C49 O62 1.270 . S
C49 O63 1.248 . S
C50 O64 1.267 . S
C50 O65 1.278 . S
C51 Pr41 2.880 . S
C51 C52 1.491 . S
C51 O66 1.254 . S
C51 O67 1.225 . S
C52 C51 1.491 . S
C52 C53 1.392 . S
C52 C57 1.356 . S
C53 C52 1.392 . S
C53 C54 1.368 . S
C53 H76 0.929 . S
C54 C53 1.368 . S
C54 C55 1.386 . S
C54 H77 0.929 . S
C55 C54 1.386 . S
C55 C56 1.373 . S
C56 C55 1.373 . S
C56 C57 1.409 . S
C56 H78 0.931 . S
C57 C52 1.356 . S
C57 C56 1.409 . S
C57 H79 0.930 . S
C58 O68 1.270 . S
C58 O69 1.248 1_545 S
C59 O70 1.267 . S
C59 O71 1.278 . S
O60 Pr40 2.562 . S
O60 C42 1.254 . S
O61 Pr40 2.490 . S
O61 C42 1.225 . S
O62 Pr40 2.695 . S
O62 Pr41 2.436 1_545 S
O62 C49 1.270 . S
O63 Pr40 2.512 . S
O63 C49 1.248 . S
O64 Pr41 2.438 1_545 S
O64 C50 1.267 . S
O65 Pr40 2.437 . S
O65 C50 1.278 . S
O66 Pr41 2.562 . S
O66 C51 1.254 . S
O67 Pr41 2.490 . S
O67 C51 1.225 . S
O68 Pr40 2.436 . S
O68 Pr41 2.695 1_545 S
O68 C58 1.270 . S
O69 Pr41 2.512 . S
O69 C58 1.248 1_565 S
O70 Pr40 2.438 1_565 S
O70 C59 1.267 . S
O71 Pr41 2.437 . S
O71 C59 1.278 . S
H72 C44 0.929 . S
H73 C45 0.929 . S
H74 C47 0.931 . S
H75 C48 0.930 . S
H76 C53 0.929 . S
H77 C54 0.929 . S
H78 C56 0.931 . S
H79 C57 0.930 . S
Pr80 C82 2.880 . S
Pr80 O100 2.562 . S
Pr80 O101 2.490 . S
Pr80 O102 2.695 . S
Pr80 O103 2.512 . S
Pr80 O105 2.437 . S
Pr80 O108 2.436 . S
Pr80 O110 2.438 . S
Pr81 C91 2.880 . S
Pr81 O102 2.436 . S
Pr81 O104 2.438 . S
Pr81 O106 2.562 . S
Pr81 O107 2.490 . S
Pr81 O108 2.695 . S
Pr81 O109 2.512 . S
Pr81 O111 2.437 . S
C82 Pr80 2.880 . S
C82 C83 1.491 . S
C82 O100 1.254 . S
C82 O101 1.225 . S
C83 C82 1.491 . S
C83 C84 1.392 . S
C83 C88 1.356 . S
C84 C83 1.392 . S
C84 C85 1.368 . S
C84 H112 0.929 . S
C85 C84 1.368 . S
C85 C86 1.386 . S
C85 H113 0.929 . S
C86 C85 1.386 . S
C86 C87 1.373 . S
C87 C86 1.373 . S
C87 C88 1.409 . S
C87 H114 0.931 . S
C88 C83 1.356 . S
C88 C87 1.409 . S
C88 H115 0.930 . S
C89 O102 1.270 . S
C89 O103 1.248 . S
C90 O104 1.267 . S
C90 O105 1.278 . S
C91 Pr81 2.880 . S
C91 C92 1.491 . S
C91 O106 1.254 . S
C91 O107 1.225 . S
C92 C91 1.491 . S
C92 C93 1.392 . S
C92 C97 1.356 . S
C93 C92 1.392 . S
C93 C94 1.368 . S
C93 H116 0.929 . S
C94 C93 1.368 . S
C94 C95 1.386 . S
C94 H117 0.929 . S
C95 C94 1.386 . S
C95 C96 1.373 . S
C96 C95 1.373 . S
C96 C97 1.409 . S
C96 H118 0.931 . S
C97 C92 1.356 . S
C97 C96 1.409 . S
C97 H119 0.930 . S
C98 O108 1.270 . S
C98 O109 1.248 . S
C99 O110 1.267 . S
C99 O111 1.278 . S
O100 Pr80 2.562 . S
O100 C82 1.254 . S
O101 Pr80 2.490 . S
O101 C82 1.225 . S
O102 Pr80 2.695 . S
O102 Pr81 2.436 . S
O102 C89 1.270 . S
O103 Pr80 2.512 . S
O103 C89 1.248 . S
O104 Pr81 2.438 . S
O104 C90 1.267 . S
O105 Pr80 2.437 . S
O105 C90 1.278 . S
O106 Pr81 2.562 . S
O106 C91 1.254 . S
O107 Pr81 2.490 . S
O107 C91 1.225 . S
O108 Pr80 2.436 . S
O108 Pr81 2.695 . S
O108 C98 1.270 . S
O109 Pr81 2.512 . S
O109 C98 1.248 . S
O110 Pr80 2.438 . S
O110 C99 1.267 . S
O111 Pr81 2.437 . S
O111 C99 1.278 . S
H112 C84 0.929 . S
H113 C85 0.929 . S
H114 C87 0.931 . S
H115 C88 0.930 . S
H116 C93 0.929 . S
H117 C94 0.929 . S
H118 C96 0.931 . S
H119 C97 0.930 . S
C120 C121 1.391 . S
C120 C124 1.391 . S
C120 H162 0.948 . S
C121 C120 1.391 . S
C121 C122 1.391 . S
C122 C121 1.391 . S
C122 H178 0.947 . S
C122 C179 1.392 . S
C123 C124 1.391 . S
C123 C127 1.397 . S
C123 C179 1.419 . S
C124 C120 1.391 . S
C124 C123 1.391 . S
C124 C125 1.399 . S
C125 C124 1.399 . S
C125 C128 1.396 . S
C125 C137 1.453 . S
C125 C138 1.684 . S
H126 C150 0.948 . S
C127 C123 1.397 . S
C127 C128 1.394 . S
C127 C146 1.723 . S
C128 C125 1.396 . S
C128 C127 1.394 . S
C128 C158 1.723 . S
H129 C152 0.947 . S
H130 C153 0.948 . S
H131 C159 0.982 . S
H132 C160 0.979 . S
H133 C160 0.980 . S
H134 C160 0.983 . S
H135 C159 0.979 . S
H136 C159 0.977 . S
C137 C125 1.453 . S
C137 H166 0.982 . S
C137 H167 0.979 . S
C137 H168 0.977 . S
C138 C125 1.684 . S
C138 H163 0.979 . S
C138 H164 0.980 . S
C138 H165 0.983 . S
C139 C140 1.391 . S
C139 C144 1.391 . S
C139 H169 0.948 . S
C140 C139 1.391 . S
C140 C141 1.391 1_545 S
C141 C140 1.391 1_565 S
C141 C142 1.392 . S
C141 H170 0.947 . S
C142 C141 1.392 . S
C142 C143 1.419 1_565 S
C142 H171 0.948 . S
C143 C142 1.419 1_545 S
C143 C144 1.391 . S
C143 C147 1.397 . S
C144 C139 1.391 . S
C144 C143 1.391 . S
C144 C145 1.399 . S
C145 C144 1.399 . S
C145 C146 1.396 . S
C145 C148 1.453 . S
C145 C149 1.684 . S
C146 C127 1.723 . S
C146 C145 1.396 . S
C146 C147 1.394 . S
C147 C143 1.397 . S
C147 C146 1.394 . S
C147 C157 1.723 1_545 S
C148 C145 1.453 . S
C148 H172 0.982 . S
C148 H173 0.979 . S
C148 H174 0.977 . S
C149 C145 1.684 . S
C149 H175 0.979 . S
C149 H176 0.980 . S
C149 H177 0.983 . S
C150 H126 0.948 . S
C150 C151 1.391 . S
C150 C155 1.391 . S
C151 C150 1.391 . S
C151 C152 1.391 . S
C152 H129 0.947 . S
C152 C151 1.391 . S
C152 C153 1.392 . S
C153 H130 0.948 . S
C153 C152 1.392 . S
C153 C154 1.419 . S
C154 C153 1.419 . S
C154 C155 1.391 . S
C154 C158 1.397 1_565 S
C155 C150 1.391 . S
C155 C154 1.391 . S
C155 C156 1.399 . S
C156 C155 1.399 . S
C156 C157 1.396 . S
C156 C159 1.453 . S
C156 C160 1.684 . S
C157 C147 1.723 1_565 S
C157 C156 1.396 . S
C157 C158 1.394 1_565 S
C158 C128 1.723 . S
C158 C154 1.397 1_545 S
C158 C157 1.394 1_545 S
C159 H131 0.982 . S
C159 H135 0.979 . S
C159 H136 0.977 . S
C159 C156 1.453 . S
C160 H132 0.979 . S
C160 H133 0.980 . S
C160 H134 0.983 . S
C160 C156 1.684 . S
H161 C179 0.948 . S
H162 C120 0.948 . S
H163 C138 0.979 . S
H164 C138 0.980 . S
H165 C138 0.983 . S
H166 C137 0.982 . S
H167 C137 0.979 . S
H168 C137 0.977 . S
H169 C139 0.948 . S
H170 C141 0.947 . S
H171 C142 0.948 . S
H172 C148 0.982 . S
H173 C148 0.979 . S
H174 C148 0.977 . S
H175 C149 0.979 . S
H176 C149 0.980 . S
H177 C149 0.983 . S
H178 C122 0.947 . S
C179 C122 1.392 . S
C179 C123 1.419 . S
C179 H161 0.948 . S
C180 C181 1.391 . S
C180 C184 1.391 . S
C180 H222 0.948 . S
C181 C180 1.391 . S
C181 C182 1.391 . S
C182 C181 1.391 . S
C182 H238 0.947 . S
C182 C239 1.392 . S
C183 C184 1.391 . S
C183 C187 1.397 . S
C183 C239 1.419 . S
C184 C180 1.391 . S
C184 C183 1.391 . S
C184 C185 1.399 . S
C185 C184 1.399 . S
C185 C188 1.396 . S
C185 C197 1.453 . S
C185 C198 1.684 . S
H186 C210 0.948 . S
C187 C183 1.397 . S
C187 C188 1.394 . S
C187 C206 1.723 . S
C188 C185 1.396 . S
C188 C187 1.394 . S
C188 C218 1.723 . S
H189 C212 0.947 . S
H190 C213 0.948 . S
H191 C219 0.982 . S
H192 C220 0.979 . S
H193 C220 0.980 . S
H194 C220 0.983 . S
H195 C219 0.979 . S
H196 C219 0.977 . S
C197 C185 1.453 . S
C197 H226 0.982 . S
C197 H227 0.979 . S
C197 H228 0.977 . S
C198 C185 1.684 . S
C198 H223 0.979 . S
C198 H224 0.980 . S
C198 H225 0.983 . S
C199 C200 1.391 . S
C199 C204 1.391 . S
C199 H229 0.948 . S
C200 C199 1.391 . S
C200 C201 1.391 . S
C201 C200 1.391 . S
C201 C202 1.392 . S
C201 H230 0.947 . S
C202 C201 1.392 . S
C202 C203 1.419 . S
C202 H231 0.948 . S
C203 C202 1.419 . S
C203 C204 1.391 . S
C203 C207 1.397 . S
C204 C199 1.391 . S
C204 C203 1.391 . S
C204 C205 1.399 . S
C205 C204 1.399 . S
C205 C206 1.396 . S
C205 C208 1.453 . S
C205 C209 1.684 . S
C206 C187 1.723 . S
C206 C205 1.396 . S
C206 C207 1.394 . S
C207 C203 1.397 . S
C207 C206 1.394 . S
C207 C217 1.723 . S
C208 C205 1.453 . S
C208 H232 0.982 . S
C208 H233 0.979 . S
C208 H234 0.977 . S
C209 C205 1.684 . S
C209 H235 0.979 . S
C209 H236 0.980 . S
C209 H237 0.983 . S
C210 H186 0.948 . S
C210 C211 1.391 . S
C210 C215 1.391 . S
C211 C210 1.391 . S
C211 C212 1.391 . S
C212 H189 0.947 . S
C212 C211 1.391 . S
C212 C213 1.392 . S
C213 H190 0.948 . S
C213 C212 1.392 . S
C213 C214 1.419 . S
C214 C213 1.419 . S
C214 C215 1.391 . S
C214 C218 1.397 . S
C215 C210 1.391 . S
C215 C214 1.391 . S
C215 C216 1.399 . S
C216 C215 1.399 . S
C216 C217 1.396 . S
C216 C219 1.453 . S
C216 C220 1.684 . S
C217 C207 1.723 . S
C217 C216 1.396 . S
C217 C218 1.394 . S
C218 C188 1.723 . S
C218 C214 1.397 . S
C218 C217 1.394 . S
C219 H191 0.982 . S
C219 H195 0.979 . S
C219 H196 0.977 . S
C219 C216 1.453 . S
C220 H192 0.979 . S
C220 H193 0.980 . S
C220 H194 0.983 . S
C220 C216 1.684 . S
H221 C239 0.948 . S
H222 C180 0.948 . S
H223 C198 0.979 . S
H224 C198 0.980 . S
H225 C198 0.983 . S
H226 C197 0.982 . S
H227 C197 0.979 . S
H228 C197 0.977 . S
H229 C199 0.948 . S
H230 C201 0.947 . S
H231 C202 0.948 . S
H232 C208 0.982 . S
H233 C208 0.979 . S
H234 C208 0.977 . S
H235 C209 0.979 . S
H236 C209 0.980 . S
H237 C209 0.983 . S
H238 C182 0.947 . S
C239 C182 1.392 . S
C239 C183 1.419 . S
C239 H221 0.948 . S
C240 C241 1.391 . S
C240 C244 1.391 . S
C240 H282 0.948 . S
C241 C240 1.391 . S
C241 C242 1.391 . S
C242 C241 1.391 . S
C242 H298 0.947 . S
C242 C299 1.392 . S
C243 C244 1.391 . S
C243 C247 1.397 . S
C243 C299 1.419 . S
C244 C240 1.391 . S
C244 C243 1.391 . S
C244 C245 1.399 . S
C245 C244 1.399 . S
C245 C248 1.396 . S
C245 C257 1.453 . S
C245 C258 1.684 . S
H246 C270 0.948 . S
C247 C243 1.397 . S
C247 C248 1.394 . S
C247 C266 1.723 . S
C248 C245 1.396 . S
C248 C247 1.394 . S
C248 C278 1.723 1_455 S
H249 C272 0.947 . S
H250 C273 0.948 . S
H251 C279 0.982 . S
H252 C280 0.979 . S
H253 C280 0.980 . S
H254 C280 0.983 . S
H255 C279 0.979 . S
H256 C279 0.977 . S
C257 C245 1.453 . S
C257 H286 0.982 . S
C257 H287 0.979 . S
C257 H288 0.977 1_455 S
C258 C245 1.684 . S
C258 H283 0.979 . S
C258 H284 0.980 . S
C258 H285 0.983 . S
C259 C260 1.391 . S
C259 C264 1.391 . S
C259 H289 0.948 . S
C260 C259 1.391 . S
C260 C261 1.391 1_455 S
C261 C260 1.391 1_655 S
C261 C262 1.392 . S
C261 H290 0.947 . S
C262 C261 1.392 . S
C262 C263 1.419 1_655 S
C262 H291 0.948 . S
C263 C262 1.419 1_455 S
C263 C264 1.391 . S
C263 C267 1.397 . S
C264 C259 1.391 . S
C264 C263 1.391 . S
C264 C265 1.399 . S
C265 C264 1.399 . S
C265 C266 1.396 . S
C265 C268 1.453 . S
C265 C269 1.684 . S
C266 C247 1.723 . S
C266 C265 1.396 . S
C266 C267 1.394 . S
C267 C263 1.397 . S
C267 C266 1.394 . S
C267 C277 1.723 1_455 S
C268 C265 1.453 . S
C268 H292 0.982 . S
C268 H293 0.979 . S
C268 H294 0.977 . S
C269 C265 1.684 . S
C269 H295 0.979 . S
C269 H296 0.980 . S
C269 H297 0.983 . S
C270 H246 0.948 . S
C270 C271 1.391 . S
C270 C275 1.391 . S
C271 C270 1.391 . S
C271 C272 1.391 . S
C272 H249 0.947 . S
C272 C271 1.391 . S
C272 C273 1.392 . S
C273 H250 0.948 . S
C273 C272 1.392 . S
C273 C274 1.419 . S
C274 C273 1.419 . S
C274 C275 1.391 . S
C274 C278 1.397 . S
C275 C270 1.391 . S
C275 C274 1.391 . S
C275 C276 1.399 . S
C276 C275 1.399 . S
C276 C277 1.396 . S
C276 C279 1.453 . S
C276 C280 1.684 . S
C277 C267 1.723 1_655 S
C277 C276 1.396 . S
C277 C278 1.394 . S
C278 C248 1.723 1_655 S
C278 C274 1.397 . S
C278 C277 1.394 . S
C279 H251 0.982 . S
C279 H255 0.979 . S
C279 H256 0.977 . S
C279 C276 1.453 . S
C280 H252 0.979 . S
C280 H253 0.980 . S
C280 H254 0.983 . S
C280 C276 1.684 . S
H281 C299 0.948 . S
H282 C240 0.948 . S
H283 C258 0.979 . S
H284 C258 0.980 . S
H285 C258 0.983 . S
H286 C257 0.982 . S
H287 C257 0.979 . S
H288 C257 0.977 1_655 S
H289 C259 0.948 . S
H290 C261 0.947 . S
H291 C262 0.948 . S
H292 C268 0.982 . S
H293 C268 0.979 . S
H294 C268 0.977 . S
H295 C269 0.979 . S
H296 C269 0.980 . S
H297 C269 0.983 . S
H298 C242 0.947 . S
C299 C242 1.392 . S
C299 C243 1.419 . S
C299 H281 0.948 . S
C300 C301 1.391 . S
C300 C304 1.391 . S
C300 H342 0.948 . S
C301 C300 1.391 . S
C301 C302 1.391 . S
C302 C301 1.391 . S
C302 H358 0.947 . S
C302 C359 1.392 . S
C303 C304 1.391 . S
C303 C307 1.397 . S
C303 C359 1.419 . S
C304 C300 1.391 . S
C304 C303 1.391 . S
C304 C305 1.399 . S
C305 C304 1.399 . S
C305 C308 1.396 . S
C305 C317 1.453 1_655 S
C305 C318 1.684 . S
H306 C330 0.948 . S
C307 C303 1.397 . S
C307 C308 1.394 . S
C307 C326 1.723 . S
C308 C305 1.396 . S
C308 C307 1.394 . S
C308 C338 1.723 1_655 S
H309 C332 0.947 . S
H310 C333 0.948 . S
H311 C339 0.982 . S
H312 C340 0.979 . S
H313 C340 0.980 . S
H314 C340 0.983 . S
H315 C339 0.979 . S
H316 C339 0.977 . S
C317 C305 1.453 1_455 S
C317 H346 0.982 . S
C317 H347 0.979 1_455 S
C317 H348 0.977 . S
C318 C305 1.684 . S
C318 H343 0.979 . S
C318 H344 0.980 . S
C318 H345 0.983 . S
C319 C320 1.391 . S
C319 C324 1.391 . S
C319 H349 0.948 . S
C320 C319 1.391 . S
C320 C321 1.391 1_655 S
C321 C320 1.391 1_455 S
C321 C322 1.392 . S
C321 H350 0.947 . S
C322 C321 1.392 . S
C322 C323 1.419 . S
C322 H351 0.948 . S
C323 C322 1.419 . S
C323 C324 1.391 1_455 S
C323 C327 1.397 . S
C324 C319 1.391 . S
C324 C323 1.391 1_655 S
C324 C325 1.399 . S
C325 C324 1.399 . S
C325 C326 1.396 . S
C325 C328 1.453 . S
C325 C329 1.684 . S
C326 C307 1.723 . S
C326 C325 1.396 . S
C326 C327 1.394 1_655 S
C327 C323 1.397 . S
C327 C326 1.394 1_455 S
C327 C337 1.723 . S
C328 C325 1.453 . S
C328 H352 0.982 . S
C328 H353 0.979 . S
C328 H354 0.977 . S
C329 C325 1.684 . S
C329 H355 0.979 . S
C329 H356 0.980 . S
C329 H357 0.983 . S
C330 H306 0.948 . S
C330 C331 1.391 . S
C330 C335 1.391 . S
C331 C330 1.391 . S
C331 C332 1.391 . S
C332 H309 0.947 . S
C332 C331 1.391 . S
C332 C333 1.392 . S
C333 H310 0.948 . S
C333 C332 1.392 . S
C333 C334 1.419 . S
C334 C333 1.419 . S
C334 C335 1.391 . S
C334 C338 1.397 . S
C335 C330 1.391 . S
C335 C334 1.391 . S
C335 C336 1.399 . S
C336 C335 1.399 . S
C336 C337 1.396 . S
C336 C339 1.453 . S
C336 C340 1.684 . S
C337 C327 1.723 . S
C337 C336 1.396 . S
C337 C338 1.394 . S
C338 C308 1.723 1_455 S
C338 C334 1.397 . S
C338 C337 1.394 . S
C339 H311 0.982 . S
C339 H315 0.979 . S
C339 H316 0.977 . S
C339 C336 1.453 . S
C340 H312 0.979 . S
C340 H313 0.980 . S
C340 H314 0.983 . S
C340 C336 1.684 . S
H341 C359 0.948 . S
H342 C300 0.948 . S
H343 C318 0.979 . S
H344 C318 0.980 . S
H345 C318 0.983 . S
H346 C317 0.982 . S
H347 C317 0.979 1_655 S
H348 C317 0.977 . S
H349 C319 0.948 . S
H350 C321 0.947 . S
H351 C322 0.948 . S
H352 C328 0.982 . S
H353 C328 0.979 . S
H354 C328 0.977 . S
H355 C329 0.979 . S
H356 C329 0.980 . S
H357 C329 0.983 . S
H358 C302 0.947 . S
C359 C302 1.392 . S
C359 C303 1.419 . S
C359 H341 0.948 . S
C360 C361 1.391 . S
C360 C364 1.391 . S
C360 H402 0.948 . S
C361 C360 1.391 . S
C361 C362 1.391 . S
C362 C361 1.391 . S
C362 H418 0.947 . S
C362 C419 1.392 . S
C363 C364 1.391 . S
C363 C367 1.397 . S
C363 C419 1.419 . S
C364 C360 1.391 . S
C364 C363 1.391 . S
C364 C365 1.399 . S
C365 C364 1.399 . S
C365 C368 1.396 . S
C365 C377 1.453 . S
C365 C378 1.684 . S
H366 C390 0.948 . S
C367 C363 1.397 . S
C367 C368 1.394 . S
C367 C386 1.723 . S
C368 C365 1.396 . S
C368 C367 1.394 . S
C368 C398 1.723 1_565 S
H369 C392 0.947 . S
H370 C393 0.948 . S
H371 C399 0.982 . S
H372 C400 0.979 . S
H373 C400 0.980 . S
H374 C400 0.983 . S
H375 C399 0.979 . S
H376 C399 0.977 . S
C377 C365 1.453 . S
C377 H406 0.982 . S
C377 H407 0.979 . S
C377 H408 0.977 1_565 S
C378 C365 1.684 . S
C378 H403 0.979 . S
C378 H404 0.980 1_565 S
C378 H405 0.983 . S
C379 C380 1.391 1_565 S
C379 C384 1.391 . S
C379 H409 0.948 . S
C380 C379 1.391 1_545 S
C380 C381 1.391 . S
C381 C380 1.391 . S
C381 C382 1.392 . S
C381 H410 0.947 . S
C382 C381 1.392 . S
C382 C383 1.419 . S
C382 H411 0.948 . S
C383 C382 1.419 . S
C383 C384 1.391 1_545 S
C383 C387 1.397 . S
C384 C379 1.391 . S
C384 C383 1.391 1_565 S
C384 C385 1.399 . S
C385 C384 1.399 . S
C385 C386 1.396 . S
C385 C388 1.453 . S
C385 C389 1.684 . S
C386 C367 1.723 . S
C386 C385 1.396 . S
C386 C387 1.394 1_565 S
C387 C383 1.397 . S
C387 C386 1.394 1_545 S
C387 C397 1.723 . S
C388 C385 1.453 . S
C388 H412 0.982 . S
C388 H413 0.979 . S
C388 H414 0.977 . S
C389 C385 1.684 . S
C389 H415 0.979 . S
C389 H416 0.980 . S
C389 H417 0.983 . S
C390 H366 0.948 . S
C390 C391 1.391 . S
C390 C395 1.391 . S
C391 C390 1.391 . S
C391 C392 1.391 . S
C392 H369 0.947 . S
C392 C391 1.391 . S
C392 C393 1.392 . S
C393 H370 0.948 . S
C393 C392 1.392 . S
C393 C394 1.419 . S
C394 C393 1.419 . S
C394 C395 1.391 . S
C394 C398 1.397 . S
C395 C390 1.391 . S
C395 C394 1.391 . S
C395 C396 1.399 . S
C396 C395 1.399 . S
C396 C397 1.396 . S
C396 C399 1.453 . S
C396 C400 1.684 . S
C397 C387 1.723 . S
C397 C396 1.396 . S
C397 C398 1.394 . S
C398 C368 1.723 1_545 S
C398 C394 1.397 . S
C398 C397 1.394 . S
C399 H371 0.982 . S
C399 H375 0.979 . S
C399 H376 0.977 . S
C399 C396 1.453 . S
C400 H372 0.979 . S
C400 H373 0.980 . S
C400 H374 0.983 . S
C400 C396 1.684 . S
H401 C419 0.948 . S
H402 C360 0.948 . S
H403 C378 0.979 . S
H404 C378 0.980 1_545 S
H405 C378 0.983 . S
H406 C377 0.982 . S
H407 C377 0.979 . S
H408 C377 0.977 1_545 S
H409 C379 0.948 . S
H410 C381 0.947 . S
H411 C382 0.948 . S
H412 C388 0.982 . S
H413 C388 0.979 . S
H414 C388 0.977 . S
H415 C389 0.979 . S
H416 C389 0.980 . S
H417 C389 0.983 . S
H418 C362 0.947 . S
C419 C362 1.392 . S
C419 C363 1.419 . S
C419 H401 0.948 . S
C420 C421 1.391 . S
C420 C424 1.391 . S
C420 H462 0.948 . S
C421 C420 1.391 . S
C421 C422 1.391 . S
C422 C421 1.391 . S
C422 H478 0.947 . S
C422 C479 1.392 . S
C423 C424 1.391 . S
C423 C427 1.397 . S
C423 C479 1.419 . S
C424 C420 1.391 . S
C424 C423 1.391 . S
C424 C425 1.399 . S
C425 C424 1.399 . S
C425 C428 1.396 . S
C425 C437 1.453 . S
C425 C438 1.684 . S
H426 C450 0.948 . S
C427 C423 1.397 . S
C427 C428 1.394 . S
C427 C446 1.723 . S
C428 C425 1.396 . S
C428 C427 1.394 . S
C428 C458 1.723 . S
H429 C452 0.947 . S
H430 C453 0.948 . S
H431 C459 0.982 . S
H432 C460 0.979 . S
H433 C460 0.980 . S
H434 C460 0.983 . S
H435 C459 0.979 . S
H436 C459 0.977 . S
C437 C425 1.453 . S
C437 H466 0.982 . S
C437 H467 0.979 . S
C437 H468 0.977 . S
C438 C425 1.684 . S
C438 H463 0.979 . S
C438 H464 0.980 . S
C438 H465 0.983 . S
C439 C440 1.391 . S
C439 C444 1.391 . S
C439 H469 0.948 . S
C440 C439 1.391 . S
C440 C441 1.391 . S
C441 C440 1.391 . S
C441 C442 1.392 . S
C441 H470 0.947 . S
C442 C441 1.392 . S
C442 C443 1.419 . S
C442 H471 0.948 . S
C443 C442 1.419 . S
C443 C444 1.391 . S
C443 C447 1.397 . S
C444 C439 1.391 . S
C444 C443 1.391 . S
C444 C445 1.399 . S
C445 C444 1.399 . S
C445 C446 1.396 . S
C445 C448 1.453 . S
C445 C449 1.684 . S
C446 C427 1.723 . S
C446 C445 1.396 . S
C446 C447 1.394 . S
C447 C443 1.397 . S
C447 C446 1.394 . S
C447 C457 1.723 . S
C448 C445 1.453 . S
C448 H472 0.982 . S
C448 H473 0.979 . S
C448 H474 0.977 . S
C449 C445 1.684 . S
C449 H475 0.979 . S
C449 H476 0.980 . S
C449 H477 0.983 . S
C450 H426 0.948 . S
C450 C451 1.391 . S
C450 C455 1.391 . S
C451 C450 1.391 . S
C451 C452 1.391 . S
C452 H429 0.947 . S
C452 C451 1.391 . S
C452 C453 1.392 . S
C453 H430 0.948 . S
C453 C452 1.392 . S
C453 C454 1.419 . S
C454 C453 1.419 . S
C454 C455 1.391 . S
C454 C458 1.397 . S
C455 C450 1.391 . S
C455 C454 1.391 . S
C455 C456 1.399 . S
C456 C455 1.399 . S
C456 C457 1.396 . S
C456 C459 1.453 . S
C456 C460 1.684 . S
C457 C447 1.723 . S
C457 C456 1.396 . S
C457 C458 1.394 . S
C458 C428 1.723 . S
C458 C454 1.397 . S
C458 C457 1.394 . S
C459 H431 0.982 . S
C459 H435 0.979 . S
C459 H436 0.977 . S
C459 C456 1.453 . S
C460 H432 0.979 . S
C460 H433 0.980 . S
C460 H434 0.983 . S
C460 C456 1.684 . S
H461 C479 0.948 . S
H462 C420 0.948 . S
H463 C438 0.979 . S
H464 C438 0.980 . S
H465 C438 0.983 . S
H466 C437 0.982 . S
H467 C437 0.979 . S
H468 C437 0.977 . S
H469 C439 0.948 . S
H470 C441 0.947 . S
H471 C442 0.948 . S
H472 C448 0.982 . S
H473 C448 0.979 . S
H474 C448 0.977 . S
H475 C449 0.979 . S
H476 C449 0.980 . S
H477 C449 0.983 . S
H478 C422 0.947 . S
C479 C422 1.392 . S
C479 C423 1.419 . S
C479 H461 0.948 . S
C480 C481 1.391 . S
C480 C482 1.394 . S
C480 H496 0.931 . S
C481 C480 1.391 . S
C481 C485 1.376 . S
C482 C480 1.394 . S
C482 C483 1.369 . S
C482 C486 1.531 . S
C483 C482 1.369 . S
C483 C484 1.410 . S
C483 C491 1.503 . S
C484 C483 1.410 . S
C484 C485 1.392 . S
C484 C487 1.511 . S
C485 C481 1.376 . S
C485 C484 1.392 . S
C485 H497 0.929 . S
C486 C482 1.531 . S
C486 H498 0.960 . S
C486 H499 0.962 . S
C486 H500 0.960 . S
C487 C484 1.511 . S
C487 H501 0.961 . S
C487 H502 0.961 . S
C487 H503 0.961 . S
C488 C489 1.370 . S
C488 C490 1.363 . S
C488 H504 0.931 . S
C489 C488 1.370 . S
C489 C493 1.408 . S
C490 C488 1.363 . S
C490 C491 1.370 . S
C490 C494 1.524 . S
C491 C483 1.503 . S
C491 C490 1.370 . S
C491 C492 1.403 . S
C492 C491 1.403 . S
C492 C493 1.404 . S
C492 C495 1.539 . S
C493 C489 1.408 . S
C493 C492 1.404 . S
C493 H505 0.930 . S
C494 C490 1.524 . S
C494 H506 0.956 . S
C494 H507 0.961 . S
C494 H508 0.961 . S
C495 C492 1.539 . S
C495 H509 0.958 . S
C495 H510 0.961 . S
C495 H511 0.960 . S
H496 C480 0.931 . S
H497 C485 0.929 . S
H498 C486 0.960 . S
H499 C486 0.962 . S
H500 C486 0.960 . S
H501 C487 0.961 . S
H502 C487 0.961 . S
H503 C487 0.961 . S
H504 C488 0.931 . S
H505 C493 0.930 . S
H506 C494 0.956 . S
H507 C494 0.961 . S
H508 C494 0.961 . S
H509 C495 0.958 . S
H510 C495 0.961 . S
H511 C495 0.960 . S
C512 C513 1.391 . S
C512 C514 1.394 . S
C512 H528 0.931 . S
C513 C512 1.391 . S
C513 C517 1.376 . S
C514 C512 1.394 . S
C514 C515 1.369 . S
C514 C518 1.531 . S
C515 C514 1.369 . S
C515 C516 1.410 . S
C515 C523 1.503 . S
C516 C515 1.410 . S
C516 C517 1.392 . S
C516 C519 1.511 . S
C517 C513 1.376 . S
C517 C516 1.392 . S
C517 H529 0.929 . S
C518 C514 1.531 . S
C518 H530 0.960 . S
C518 H531 0.962 . S
C518 H532 0.960 . S
C519 C516 1.511 . S
C519 H533 0.961 . S
C519 H534 0.961 . S
C519 H535 0.961 . S
C520 C521 1.370 . S
C520 C522 1.363 . S
C520 H536 0.931 . S
C521 C520 1.370 . S
C521 C525 1.408 . S
C522 C520 1.363 . S
C522 C523 1.370 . S
C522 C526 1.524 . S
C523 C515 1.503 . S
C523 C522 1.370 . S
C523 C524 1.403 . S
C524 C523 1.403 . S
C524 C525 1.404 . S
C524 C527 1.539 . S
C525 C521 1.408 . S
C525 C524 1.404 . S
C525 H537 0.930 . S
C526 C522 1.524 . S
C526 H538 0.956 . S
C526 H539 0.961 . S
C526 H540 0.961 . S
C527 C524 1.539 . S
C527 H541 0.958 . S
C527 H542 0.961 . S
C527 H543 0.960 . S
H528 C512 0.931 . S
H529 C517 0.929 . S
H530 C518 0.960 . S
H531 C518 0.962 . S
H532 C518 0.960 . S
H533 C519 0.961 . S
H534 C519 0.961 . S
H535 C519 0.961 . S
H536 C520 0.931 . S
H537 C525 0.930 . S
H538 C526 0.956 . S
H539 C526 0.961 . S
H540 C526 0.961 . S
H541 C527 0.958 . S
H542 C527 0.961 . S
H543 C527 0.960 . S
C544 C545 1.391 . S
C544 C546 1.394 . S
C544 H560 0.931 . S
C545 C544 1.391 . S
C545 C549 1.376 . S
C546 C544 1.394 . S
C546 C547 1.369 . S
C546 C550 1.531 . S
C547 C546 1.369 . S
C547 C548 1.410 . S
C547 C555 1.503 . S
C548 C547 1.410 . S
C548 C549 1.392 . S
C548 C551 1.511 . S
C549 C545 1.376 . S
C549 C548 1.392 . S
C549 H561 0.929 . S
C550 C546 1.531 . S
C550 H562 0.960 . S
C550 H563 0.962 . S
C550 H564 0.960 . S
C551 C548 1.511 . S
C551 H565 0.961 . S
C551 H566 0.961 . S
C551 H567 0.961 . S
C552 C553 1.370 . S
C552 C554 1.363 . S
C552 H568 0.931 . S
C553 C552 1.370 . S
C553 C557 1.408 . S
C554 C552 1.363 . S
C554 C555 1.370 . S
C554 C558 1.524 . S
C555 C547 1.503 . S
C555 C554 1.370 . S
C555 C556 1.403 . S
C556 C555 1.403 . S
C556 C557 1.404 . S
C556 C559 1.539 . S
C557 C553 1.408 . S
C557 C556 1.404 . S
C557 H569 0.930 . S
C558 C554 1.524 . S
C558 H570 0.956 . S
C558 H571 0.961 . S
C558 H572 0.961 . S
C559 C556 1.539 . S
C559 H573 0.958 . S
C559 H574 0.961 . S
C559 H575 0.960 . S
H560 C544 0.931 . S
H561 C549 0.929 . S
H562 C550 0.960 . S
H563 C550 0.962 . S
H564 C550 0.960 . S
H565 C551 0.961 . S
H566 C551 0.961 . S
H567 C551 0.961 . S
H568 C552 0.931 . S
H569 C557 0.930 . S
H570 C558 0.956 . S
H571 C558 0.961 . S
H572 C558 0.961 . S
H573 C559 0.958 . S
H574 C559 0.961 . S
H575 C559 0.960 . S
C576 C577 1.391 . S
C576 C578 1.394 . S
C576 H592 0.931 . S
C577 C576 1.391 . S
C577 C581 1.376 . S
C578 C576 1.394 . S
C578 C579 1.369 . S
C578 C582 1.531 . S
C579 C578 1.369 . S
C579 C580 1.410 . S
C579 C587 1.503 . S
C580 C579 1.410 . S
C580 C581 1.392 . S
C580 C583 1.511 . S
C581 C577 1.376 . S
C581 C580 1.392 . S
C581 H593 0.929 . S
C582 C578 1.531 . S
C582 H594 0.960 . S
C582 H595 0.962 . S
C582 H596 0.960 . S
C583 C580 1.511 . S
C583 H597 0.961 . S
C583 H598 0.961 . S
C583 H599 0.961 . S
C584 C585 1.370 . S
C584 C586 1.363 . S
C584 H600 0.931 . S
C585 C584 1.370 . S
C585 C589 1.408 . S
C586 C584 1.363 . S
C586 C587 1.370 . S
C586 C590 1.524 . S
C587 C579 1.503 . S
C587 C586 1.370 . S
C587 C588 1.403 . S
C588 C587 1.403 . S
C588 C589 1.404 . S
C588 C591 1.539 . S
C589 C585 1.408 . S
C589 C588 1.404 . S
C589 H601 0.930 . S
C590 C586 1.524 . S
C590 H602 0.956 . S
C590 H603 0.961 . S
C590 H604 0.961 . S
C591 C588 1.539 . S
C591 H605 0.958 . S
C591 H606 0.961 . S
C591 H607 0.960 . S
H592 C576 0.931 . S
H593 C581 0.929 . S
H594 C582 0.960 . S
H595 C582 0.962 . S
H596 C582 0.960 . S
H597 C583 0.961 . S
H598 C583 0.961 . S
H599 C583 0.961 . S
H600 C584 0.931 . S
H601 C589 0.930 . S
H602 C590 0.956 . S
H603 C590 0.961 . S
H604 C590 0.961 . S
H605 C591 0.958 . S
H606 C591 0.961 . S
H607 C591 0.960 . S
C608 C609 1.391 . S
C608 C610 1.394 . S
C608 H624 0.931 . S
C609 C608 1.391 . S
C609 C613 1.376 . S
C610 C608 1.394 . S
C610 C611 1.369 . S
C610 C614 1.531 . S
C611 C610 1.369 . S
C611 C612 1.410 . S
C611 C619 1.503 . S
C612 C611 1.410 . S
C612 C613 1.392 . S
C612 C615 1.511 . S
C613 C609 1.376 . S
C613 C612 1.392 . S
C613 H625 0.929 . S
C614 C610 1.531 . S
C614 H626 0.960 . S
C614 H627 0.962 . S
C614 H628 0.960 . S
C615 C612 1.511 . S
C615 H629 0.961 . S
C615 H630 0.961 . S
C615 H631 0.961 . S
C616 C617 1.370 . S
C616 C618 1.363 . S
C616 H632 0.931 . S
C617 C616 1.370 . S
C617 C621 1.408 . S
C618 C616 1.363 . S
C618 C619 1.370 . S
C618 C622 1.524 . S
C619 C611 1.503 . S
C619 C618 1.370 . S
C619 C620 1.403 . S
C620 C619 1.403 . S
C620 C621 1.404 . S
C620 C623 1.539 . S
C621 C617 1.408 . S
C621 C620 1.404 . S
C621 H633 0.930 . S
C622 C618 1.524 . S
C622 H634 0.956 . S
C622 H635 0.961 . S
C622 H636 0.961 . S
C623 C620 1.539 . S
C623 H637 0.958 . S
C623 H638 0.961 . S
C623 H639 0.960 . S
H624 C608 0.931 . S
H625 C613 0.929 . S
H626 C614 0.960 . S
H627 C614 0.962 . S
H628 C614 0.960 . S
H629 C615 0.961 . S
H630 C615 0.961 . S
H631 C615 0.961 . S
H632 C616 0.931 . S
H633 C621 0.930 . S
H634 C622 0.956 . S
H635 C622 0.961 . S
H636 C622 0.961 . S
H637 C623 0.958 . S
H638 C623 0.961 . S
H639 C623 0.960 . S
C640 C641 1.391 . S
C640 C642 1.394 . S
C640 H656 0.931 . S
C641 C640 1.391 . S
C641 C645 1.376 . S
C642 C640 1.394 . S
C642 C643 1.369 . S
C642 C646 1.531 . S
C643 C642 1.369 . S
C643 C644 1.410 . S
C643 C651 1.503 . S
C644 C643 1.410 . S
C644 C645 1.392 . S
C644 C647 1.511 . S
C645 C641 1.376 . S
C645 C644 1.392 . S
C645 H657 0.929 . S
C646 C642 1.531 . S
C646 H658 0.960 . S
C646 H659 0.962 . S
C646 H660 0.960 . S
C647 C644 1.511 . S
C647 H661 0.961 . S
C647 H662 0.961 . S
C647 H663 0.961 . S
C648 C649 1.370 . S
C648 C650 1.363 . S
C648 H664 0.931 . S
C649 C648 1.370 . S
C649 C653 1.408 . S
C650 C648 1.363 . S
C650 C651 1.370 . S
C650 C654 1.524 . S
C651 C643 1.503 . S
C651 C650 1.370 . S
C651 C652 1.403 . S
C652 C651 1.403 . S
C652 C653 1.404 . S
C652 C655 1.539 . S
C653 C649 1.408 . S
C653 C652 1.404 . S
C653 H665 0.930 . S
C654 C650 1.524 . S
C654 H666 0.956 . S
C654 H667 0.961 . S
C654 H668 0.961 . S
C655 C652 1.539 . S
C655 H669 0.958 . S
C655 H670 0.961 . S
C655 H671 0.960 . S
H656 C640 0.931 . S
H657 C645 0.929 . S
H658 C646 0.960 . S
H659 C646 0.962 . S
H660 C646 0.960 . S
H661 C647 0.961 . S
H662 C647 0.961 . S
H663 C647 0.961 . S
H664 C648 0.931 . S
H665 C653 0.930 . S
H666 C654 0.956 . S
H667 C654 0.961 . S
H668 C654 0.961 . S
H669 C655 0.958 . S
H670 C655 0.961 . S
H671 C655 0.960 . S
C672 C673 1.391 . S
C672 C674 1.394 . S
C672 H688 0.931 . S
C673 C672 1.391 . S
C673 C677 1.376 . S
C674 C672 1.394 . S
C674 C675 1.369 . S
C674 C678 1.531 . S
C675 C674 1.369 . S
C675 C676 1.410 . S
C675 C683 1.503 . S
C676 C675 1.410 . S
C676 C677 1.392 . S
C676 C679 1.511 . S
C677 C673 1.376 . S
C677 C676 1.392 . S
C677 H689 0.929 . S
C678 C674 1.531 . S
C678 H690 0.960 . S
C678 H691 0.962 . S
C678 H692 0.960 . S
C679 C676 1.511 . S
C679 H693 0.961 . S
C679 H694 0.961 . S
C679 H695 0.961 . S
C680 C681 1.370 . S
C680 C682 1.363 . S
C680 H696 0.931 . S
C681 C680 1.370 . S
C681 C685 1.408 . S
C682 C680 1.363 . S
C682 C683 1.370 . S
C682 C686 1.524 . S
C683 C675 1.503 . S
C683 C682 1.370 . S
C683 C684 1.403 . S
C684 C683 1.403 . S
C684 C685 1.404 . S
C684 C687 1.539 . S
C685 C681 1.408 . S
C685 C684 1.404 . S
C685 H697 0.930 . S
C686 C682 1.524 . S
C686 H698 0.956 . S
C686 H699 0.961 . S
C686 H700 0.961 . S
C687 C684 1.539 . S
C687 H701 0.958 . S
C687 H702 0.961 . S
C687 H703 0.960 . S
H688 C672 0.931 . S
H689 C677 0.929 . S
H690 C678 0.960 . S
H691 C678 0.962 . S
H692 C678 0.960 . S
H693 C679 0.961 . S
H694 C679 0.961 . S
H695 C679 0.961 . S
H696 C680 0.931 . S
H697 C685 0.930 . S
H698 C686 0.956 . S
H699 C686 0.961 . S
H700 C686 0.961 . S
H701 C687 0.958 . S
H702 C687 0.961 . S
H703 C687 0.960 . S
C704 C705 1.391 . S
C704 C706 1.394 . S
C704 H720 0.931 . S
C705 C704 1.391 . S
C705 C709 1.376 . S
C706 C704 1.394 . S
C706 C707 1.369 . S
C706 C710 1.531 . S
C707 C706 1.369 . S
C707 C708 1.410 . S
C707 C715 1.503 . S
C708 C707 1.410 . S
C708 C709 1.392 . S
C708 C711 1.511 . S
C709 C705 1.376 . S
C709 C708 1.392 . S
C709 H721 0.929 . S
C710 C706 1.531 . S
C710 H722 0.960 . S
C710 H723 0.962 . S
C710 H724 0.960 . S
C711 C708 1.511 . S
C711 H725 0.961 . S
C711 H726 0.961 . S
C711 H727 0.961 . S
C712 C713 1.370 . S
C712 C714 1.363 . S
C712 H728 0.931 . S
C713 C712 1.370 . S
C713 C717 1.408 . S
C714 C712 1.363 . S
C714 C715 1.370 . S
C714 C718 1.524 . S
C715 C707 1.503 . S
C715 C714 1.370 . S
C715 C716 1.403 . S
C716 C715 1.403 . S
C716 C717 1.404 . S
C716 C719 1.539 . S
C717 C713 1.408 . S
C717 C716 1.404 . S
C717 H729 0.930 . S
C718 C714 1.524 . S
C718 H730 0.956 . S
C718 H731 0.961 . S
C718 H732 0.961 . S
C719 C716 1.539 . S
C719 H733 0.958 . S
C719 H734 0.961 . S
C719 H735 0.960 . S
H720 C704 0.931 . S
H721 C709 0.929 . S
H722 C710 0.960 . S
H723 C710 0.962 . S
H724 C710 0.960 . S
H725 C711 0.961 . S
H726 C711 0.961 . S
H727 C711 0.961 . S
H728 C712 0.931 . S
H729 C717 0.930 . S
H730 C718 0.956 . S
H731 C718 0.961 . S
H732 C718 0.961 . S
H733 C719 0.958 . S
H734 C719 0.961 . S
H735 C719 0.960 . S
C736 C737 1.391 . S
C736 C738 1.394 . S
C736 H752 0.931 . S
C737 C736 1.391 . S
C737 C741 1.376 . S
C738 C736 1.394 . S
C738 C739 1.369 . S
C738 C742 1.531 . S
C739 C738 1.369 . S
C739 C740 1.410 . S
C739 C747 1.503 . S
C740 C739 1.410 . S
C740 C741 1.392 . S
C740 C743 1.511 . S
C741 C737 1.376 . S
C741 C740 1.392 . S
C741 H753 0.929 . S
C742 C738 1.531 . S
C742 H754 0.960 . S
C742 H755 0.962 . S
C742 H756 0.960 . S
C743 C740 1.511 . S
C743 H757 0.961 . S
C743 H758 0.961 . S
C743 H759 0.961 . S
C744 C745 1.370 . S
C744 C746 1.363 . S
C744 H760 0.931 . S
C745 C744 1.370 . S
C745 C749 1.408 . S
C746 C744 1.363 . S
C746 C747 1.370 . S
C746 C750 1.524 . S
C747 C739 1.503 . S
C747 C746 1.370 . S
C747 C748 1.403 . S
C748 C747 1.403 . S
C748 C749 1.404 . S
C748 C751 1.539 . S
C749 C745 1.408 . S
C749 C748 1.404 . S
C749 H761 0.930 . S
C750 C746 1.524 . S
C750 H762 0.956 . S
C750 H763 0.961 . S
C750 H764 0.961 . S
C751 C748 1.539 . S
C751 H765 0.958 . S
C751 H766 0.961 . S
C751 H767 0.960 . S
H752 C736 0.931 . S
H753 C741 0.929 . S
H754 C742 0.960 . S
H755 C742 0.962 . S
H756 C742 0.960 . S
H757 C743 0.961 . S
H758 C743 0.961 . S
H759 C743 0.961 . S
H760 C744 0.931 . S
H761 C749 0.930 . S
H762 C750 0.956 . S
H763 C750 0.961 . S
H764 C750 0.961 . S
H765 C751 0.958 . S
H766 C751 0.961 . S
H767 C751 0.960 . S
C768 C769 1.391 . S
C768 C770 1.394 . S
C768 H784 0.931 . S
C769 C768 1.391 . S
C769 C773 1.376 . S
C770 C768 1.394 . S
C770 C771 1.369 . S
C770 C774 1.531 . S
C771 C770 1.369 . S
C771 C772 1.410 . S
C771 C779 1.503 . S
C772 C771 1.410 . S
C772 C773 1.392 . S
C772 C775 1.511 . S
C773 C769 1.376 . S
C773 C772 1.392 . S
C773 H785 0.929 . S
C774 C770 1.531 . S
C774 H786 0.960 . S
C774 H787 0.962 . S
C774 H788 0.960 . S
C775 C772 1.511 . S
C775 H789 0.961 . S
C775 H790 0.961 . S
C775 H791 0.961 . S
C776 C777 1.370 . S
C776 C778 1.363 . S
C776 H792 0.931 . S
C777 C776 1.370 . S
C777 C781 1.408 . S
C778 C776 1.363 . S
C778 C779 1.370 . S
C778 C782 1.524 . S
C779 C771 1.503 . S
C779 C778 1.370 . S
C779 C780 1.403 . S
C780 C779 1.403 . S
C780 C781 1.404 . S
C780 C783 1.539 . S
C781 C777 1.408 . S
C781 C780 1.404 . S
C781 H793 0.930 . S
C782 C778 1.524 . S
C782 H794 0.956 . S
C782 H795 0.961 . S
C782 H796 0.961 . S
C783 C780 1.539 . S
C783 H797 0.958 . S
C783 H798 0.961 . S
C783 H799 0.960 . S
H784 C768 0.931 . S
H785 C773 0.929 . S
H786 C774 0.960 . S
H787 C774 0.962 . S
H788 C774 0.960 . S
H789 C775 0.961 . S
H790 C775 0.961 . S
H791 C775 0.961 . S
H792 C776 0.931 . S
H793 C781 0.930 . S
H794 C782 0.956 . S
H795 C782 0.961 . S
H796 C782 0.961 . S
H797 C783 0.958 . S
H798 C783 0.961 . S
H799 C783 0.960 . S
C800 C801 1.391 . S
C800 C802 1.394 . S
C800 H816 0.931 . S
C801 C800 1.391 . S
C801 C805 1.376 . S
C802 C800 1.394 . S
C802 C803 1.369 . S
C802 C806 1.531 . S
C803 C802 1.369 . S
C803 C804 1.410 . S
C803 C811 1.503 . S
C804 C803 1.410 . S
C804 C805 1.392 . S
C804 C807 1.511 . S
C805 C801 1.376 . S
C805 C804 1.392 . S
C805 H817 0.929 . S
C806 C802 1.531 . S
C806 H818 0.960 . S
C806 H819 0.962 . S
C806 H820 0.960 . S
C807 C804 1.511 . S
C807 H821 0.961 . S
C807 H822 0.961 . S
C807 H823 0.961 . S
C808 C809 1.370 . S
C808 C810 1.363 . S
C808 H824 0.931 . S
C809 C808 1.370 . S
C809 C813 1.408 . S
C810 C808 1.363 . S
C810 C811 1.370 . S
C810 C814 1.524 . S
C811 C803 1.503 . S
C811 C810 1.370 . S
C811 C812 1.403 . S
C812 C811 1.403 . S
C812 C813 1.404 . S
C812 C815 1.539 . S
C813 C809 1.408 . S
C813 C812 1.404 . S
C813 H825 0.930 . S
C814 C810 1.524 . S
C814 H826 0.956 . S
C814 H827 0.961 . S
C814 H828 0.961 . S
C815 C812 1.539 . S
C815 H829 0.958 . S
C815 H830 0.961 . S
C815 H831 0.960 . S
H816 C800 0.931 . S
H817 C805 0.929 . S
H818 C806 0.960 . S
H819 C806 0.962 . S
H820 C806 0.960 . S
H821 C807 0.961 . S
H822 C807 0.961 . S
H823 C807 0.961 . S
H824 C808 0.931 . S
H825 C813 0.930 . S
H826 C814 0.956 . S
H827 C814 0.961 . S
H828 C814 0.961 . S
H829 C815 0.958 . S
H830 C815 0.961 . S
H831 C815 0.960 . S
C832 C833 1.391 . S
C832 C834 1.394 . S
C832 H848 0.931 . S
C833 C832 1.391 . S
C833 C837 1.376 . S
C834 C832 1.394 . S
C834 C835 1.369 . S
C834 C838 1.531 . S
C835 C834 1.369 . S
C835 C836 1.410 . S
C835 C843 1.503 . S
C836 C835 1.410 . S
C836 C837 1.392 . S
C836 C839 1.511 . S
C837 C833 1.376 . S
C837 C836 1.392 . S
C837 H849 0.929 . S
C838 C834 1.531 . S
C838 H850 0.960 . S
C838 H851 0.962 . S
C838 H852 0.960 . S
C839 C836 1.511 . S
C839 H853 0.961 . S
C839 H854 0.961 . S
C839 H855 0.961 . S
C840 C841 1.370 . S
C840 C842 1.363 . S
C840 H856 0.931 . S
C841 C840 1.370 . S
C841 C845 1.408 . S
C842 C840 1.363 . S
C842 C843 1.370 . S
C842 C846 1.524 . S
C843 C835 1.503 . S
C843 C842 1.370 . S
C843 C844 1.403 . S
C844 C843 1.403 . S
C844 C845 1.404 . S
C844 C847 1.539 . S
C845 C841 1.408 . S
C845 C844 1.404 . S
C845 H857 0.930 . S
C846 C842 1.524 . S
C846 H858 0.956 . S
C846 H859 0.961 . S
C846 H860 0.961 . S
C847 C844 1.539 . S
C847 H861 0.958 . S
C847 H862 0.961 . S
C847 H863 0.960 . S
H848 C832 0.931 . S
H849 C837 0.929 . S
H850 C838 0.960 . S
H851 C838 0.962 . S
H852 C838 0.960 . S
H853 C839 0.961 . S
H854 C839 0.961 . S
H855 C839 0.961 . S
H856 C840 0.931 . S
H857 C845 0.930 . S
H858 C846 0.956 . S
H859 C846 0.961 . S
H860 C846 0.961 . S
H861 C847 0.958 . S
H862 C847 0.961 . S
H863 C847 0.960 . S
C864 C865 1.391 . S
C864 C866 1.394 . S
C864 H880 0.931 . S
C865 C864 1.391 . S
C865 C869 1.376 1_455 S
C866 C864 1.394 . S
C866 C867 1.369 . S
C866 C870 1.531 . S
C867 C866 1.369 . S
C867 C868 1.410 1_455 S
C867 C875 1.503 . S
C868 C867 1.410 1_655 S
C868 C869 1.392 . S
C868 C871 1.511 . S
C869 C865 1.376 1_655 S
C869 C868 1.392 . S
C869 H881 0.929 . S
C870 C866 1.531 . S
C870 H882 0.960 . S
C870 H883 0.962 . S
C870 H884 0.960 . S
C871 C868 1.511 . S
C871 H885 0.961 . S
C871 H886 0.961 . S
C871 H887 0.961 . S
C872 C873 1.370 1_554 S
C872 C874 1.363 . S
C872 H888 0.931 . S
C873 C872 1.370 1_556 S
C873 C877 1.408 1_456 S
C874 C872 1.363 . S
C874 C875 1.370 . S
C874 C878 1.524 . S
C875 C867 1.503 . S
C875 C874 1.370 . S
C875 C876 1.403 1_455 S
C876 C875 1.403 1_655 S
C876 C877 1.404 . S
C876 C879 1.539 . S
C877 C873 1.408 1_654 S
C877 C876 1.404 . S
C877 H889 0.930 1_554 S
C878 C874 1.524 . S
C878 H890 0.956 . S
C878 H891 0.961 . S
C878 H892 0.961 . S
C879 C876 1.539 . S
C879 H893 0.958 . S
C879 H894 0.961 . S
C879 H895 0.960 . S
H880 C864 0.931 . S
H881 C869 0.929 . S
H882 C870 0.960 . S
H883 C870 0.962 . S
H884 C870 0.960 . S
H885 C871 0.961 . S
H886 C871 0.961 . S
H887 C871 0.961 . S
H888 C872 0.931 . S
H889 C877 0.930 1_556 S
H890 C878 0.956 . S
H891 C878 0.961 . S
H892 C878 0.961 . S
H893 C879 0.958 . S
H894 C879 0.961 . S
H895 C879 0.960 . S
C896 C897 1.391 . S
C896 C898 1.394 . S
C896 H912 0.931 . S
C897 C896 1.391 . S
C897 C901 1.376 . S
C898 C896 1.394 . S
C898 C899 1.369 . S
C898 C902 1.531 . S
C899 C898 1.369 . S
C899 C900 1.410 . S
C899 C907 1.503 . S
C900 C899 1.410 . S
C900 C901 1.392 . S
C900 C903 1.511 . S
C901 C897 1.376 . S
C901 C900 1.392 . S
C901 H913 0.929 . S
C902 C898 1.531 . S
C902 H914 0.960 . S
C902 H915 0.962 1_545 S
C902 H916 0.960 . S
C903 C900 1.511 . S
C903 H917 0.961 . S
C903 H918 0.961 . S
C903 H919 0.961 . S
C904 C905 1.394 . S
C904 C906 1.364 . S
C904 H920 0.906 1_545 S
C905 C904 1.394 . S
C905 C909 1.408 . S
C906 C904 1.364 . S
C906 C907 1.370 . S
C906 C910 1.524 1_545 S
C907 C899 1.503 . S
C907 C906 1.370 . S
C907 C908 1.403 . S
C908 C907 1.403 . S
C908 C909 1.404 . S
C908 C911 1.539 . S
C909 C905 1.408 . S
C909 C908 1.404 . S
C909 H921 0.930 . S
C910 C906 1.524 1_565 S
C910 H922 0.956 . S
C910 H923 0.961 . S
C910 H924 0.961 . S
C911 C908 1.539 . S
C911 H925 0.958 . S
C911 H926 0.961 . S
C911 H927 0.960 . S
H912 C896 0.931 . S
H913 C901 0.929 . S
H914 C902 0.960 . S
H915 C902 0.962 1_565 S
H916 C902 0.960 . S
H917 C903 0.961 . S
H918 C903 0.961 . S
H919 C903 0.961 . S
H920 C904 0.906 1_565 S
H921 C909 0.930 . S
H922 C910 0.956 . S
H923 C910 0.961 . S
H924 C910 0.961 . S
H925 C911 0.958 . S
H926 C911 0.961 . S
H927 C911 0.960 . S
C928 C929 1.391 . S
C928 C930 1.394 . S
C928 H944 0.931 . S
C929 C928 1.391 . S
C929 C933 1.376 . S
C930 C928 1.394 . S
C930 C931 1.369 . S
C930 C934 1.531 . S
C931 C930 1.369 . S
C931 C932 1.410 . S
C931 C939 1.503 . S
C932 C931 1.410 . S
C932 C933 1.392 . S
C932 C935 1.511 . S
C933 C929 1.376 . S
C933 C932 1.392 . S
C933 H945 0.929 . S
C934 C930 1.531 . S
C934 H946 0.960 . S
C934 H947 0.962 . S
C934 H948 0.960 . S
C935 C932 1.511 . S
C935 H949 0.961 . S
C935 H950 0.961 . S
C935 H951 0.961 . S
C936 C937 1.370 . S
C936 C938 1.363 . S
C936 H952 0.931 . S
C937 C936 1.370 . S
C937 C941 1.408 . S
C938 C936 1.363 . S
C938 C939 1.370 . S
C938 C942 1.524 . S
C939 C931 1.503 . S
C939 C938 1.370 . S
C939 C940 1.403 . S
C940 C939 1.403 . S
C940 C941 1.404 . S
C940 C943 1.539 . S
C941 C937 1.408 . S
C941 C940 1.404 . S
C941 H953 0.930 . S
C942 C938 1.524 . S
C942 H954 0.956 . S
C942 H955 0.961 . S
C942 H956 0.961 . S
C943 C940 1.539 . S
C943 H957 0.958 . S
C943 H958 0.961 . S
C943 H959 0.960 . S
H944 C928 0.931 . S
H945 C933 0.929 . S
H946 C934 0.960 . S
H947 C934 0.962 . S
H948 C934 0.960 . S
H949 C935 0.961 . S
H950 C935 0.961 . S
H951 C935 0.961 . S
H952 C936 0.931 . S
H953 C941 0.930 . S
H954 C942 0.956 . S
H955 C942 0.961 . S
H956 C942 0.961 . S
H957 C943 0.958 . S
H958 C943 0.961 . S
H959 C943 0.960 . S
C960 C961 1.391 1_565 S
C960 C962 1.394 . S
C960 H976 0.931 . S
C961 C960 1.391 1_545 S
C961 C965 1.376 . S
C962 C960 1.394 . S
C962 C963 1.369 1_565 S
C962 C966 1.531 . S
C963 C962 1.369 1_545 S
C963 C964 1.410 . S
C963 C971 1.503 . S
C964 C963 1.410 . S
C964 C965 1.392 . S
C964 C967 1.511 . S
C965 C961 1.376 . S
C965 C964 1.392 . S
C965 H977 0.929 . S
C966 C962 1.531 . S
C966 H978 0.960 . S
C966 H979 0.962 . S
C966 H980 0.960 . S
C967 C964 1.511 . S
C967 H981 0.961 . S
C967 H982 0.961 . S
C967 H983 0.961 . S
C968 C969 1.370 . S
C968 C970 1.363 . S
C968 H984 0.931 . S
C969 C968 1.370 . S
C969 C973 1.408 1_545 S
C970 C968 1.363 . S
C970 C971 1.370 . S
C970 C974 1.524 . S
C971 C963 1.503 . S
C971 C970 1.370 . S
C971 C972 1.403 1_545 S
C972 C971 1.403 1_565 S
C972 C973 1.404 . S
C972 C975 1.539 . S
C973 C969 1.408 1_565 S
C973 C972 1.404 . S
C973 H985 0.930 . S
C974 C970 1.524 . S
C974 H986 0.956 . S
C974 H987 0.961 . S
C974 H988 0.961 . S
C975 C972 1.539 . S
C975 H989 0.958 . S
C975 H990 0.961 . S
C975 H991 0.960 . S
H976 C960 0.931 . S
H977 C965 0.929 . S
H978 C966 0.960 . S
H979 C966 0.962 . S
H980 C966 0.960 . S
H981 C967 0.961 . S
H982 C967 0.961 . S
H983 C967 0.961 . S
H984 C968 0.931 . S
H985 C973 0.930 . S
H986 C974 0.956 . S
H987 C974 0.961 . S
H988 C974 0.961 . S
H989 C975 0.958 . S
H990 C975 0.961 . S
H991 C975 0.960 . S
C992 C993 1.391 . S
C992 C994 1.394 . S
C992 H1008 0.931 . S
C993 C992 1.391 . S
C993 C997 1.376 . S
C994 C992 1.394 . S
C994 C995 1.369 . S
C994 C998 1.531 . S
C995 C994 1.369 . S
C995 C996 1.410 . S
C995 C1003 1.503 . S
C996 C995 1.410 . S
C996 C997 1.392 . S
C996 C999 1.511 . S
C997 C993 1.376 . S
C997 C996 1.392 . S
C997 H1009 0.929 . S
C998 C994 1.531 . S
C998 H1010 0.960 . S
C998 H1011 0.962 . S
C998 H1012 0.960 . S
C999 C996 1.511 . S
C999 H1013 0.961 . S
C999 H1014 0.961 . S
C999 H1015 0.961 . S
C1000 C1001 1.370 1_556 S
C1000 C1002 1.363 . S
C1000 H1016 0.931 . S
C1001 C1000 1.370 1_554 S
C1001 C1005 1.408 1_554 S
C1002 C1000 1.363 . S
C1002 C1003 1.370 . S
C1002 C1006 1.524 . S
C1003 C995 1.503 . S
C1003 C1002 1.370 . S
C1003 C1004 1.403 . S
C1004 C1003 1.403 . S
C1004 C1005 1.404 . S
C1004 C1007 1.539 . S
C1005 C1001 1.408 1_556 S
C1005 C1004 1.404 . S
C1005 H1017 0.930 1_556 S
C1006 C1002 1.524 . S
C1006 H1018 0.956 . S
C1006 H1019 0.961 . S
C1006 H1020 0.961 . S
C1007 C1004 1.539 . S
C1007 H1021 0.958 . S
C1007 H1022 0.961 . S
C1007 H1023 0.960 . S
H1008 C992 0.931 . S
H1009 C997 0.929 . S
H1010 C998 0.960 . S
H1011 C998 0.962 . S
H1012 C998 0.960 . S
H1013 C999 0.961 . S
H1014 C999 0.961 . S
H1015 C999 0.961 . S
H1016 C1000 0.931 . S
H1017 C1005 0.930 1_554 S
H1018 C1006 0.956 . S
H1019 C1006 0.961 . S
H1020 C1006 0.961 . S
H1021 C1007 0.958 . S
H1022 C1007 0.961 . S
H1023 C1007 0.960 . S
C1024 C1025 1.391 . S
C1024 C1026 1.394 . S
C1024 H1040 0.931 . S
C1025 C1024 1.391 . S
C1025 C1029 1.376 1_455 S
C1026 C1024 1.394 . S
C1026 C1027 1.369 . S
C1026 C1030 1.531 . S
C1027 C1026 1.369 . S
C1027 C1028 1.410 1_455 S
C1027 C1035 1.503 1_455 S
C1028 C1027 1.410 1_655 S
C1028 C1029 1.392 . S
C1028 C1031 1.511 . S
C1029 C1025 1.376 1_655 S
C1029 C1028 1.392 . S
C1029 H1041 0.929 . S
C1030 C1026 1.531 . S
C1030 H1042 0.960 . S
C1030 H1043 0.962 . S
C1030 H1044 0.960 . S
C1031 C1028 1.511 . S
C1031 H1045 0.961 . S
C1031 H1046 0.961 . S
C1031 H1047 0.961 . S
C1032 C1033 1.370 . S
C1032 C1034 1.363 . S
C1032 H1048 0.931 . S
C1033 C1032 1.370 . S
C1033 C1037 1.408 . S
C1034 C1032 1.363 . S
C1034 C1035 1.367 . S
C1034 C1038 1.533 . S
C1035 C1027 1.503 1_655 S
C1035 C1034 1.367 . S
C1035 C1036 1.397 . S
C1036 C1035 1.397 . S
C1036 C1037 1.406 . S
C1036 C1039 1.549 . S
C1037 C1033 1.408 . S
C1037 C1036 1.406 . S
C1037 H1049 0.930 . S
C1038 C1034 1.533 . S
C1038 H1050 0.932 1_655 S
C1038 H1051 0.979 . S
C1038 H1052 0.958 . S
C1039 C1036 1.549 . S
C1039 H1053 0.958 1_655 S
C1039 H1054 0.961 . S
C1039 H1055 0.960 . S
H1040 C1024 0.931 . S
H1041 C1029 0.929 . S
H1042 C1030 0.960 . S
H1043 C1030 0.962 . S
H1044 C1030 0.960 . S
H1045 C1031 0.961 . S
H1046 C1031 0.961 . S
H1047 C1031 0.961 . S
H1048 C1032 0.931 . S
H1049 C1037 0.930 . S
H1050 C1038 0.932 1_455 S
H1051 C1038 0.979 . S
H1052 C1038 0.958 . S
H1053 C1039 0.958 1_455 S
H1054 C1039 0.961 . S
H1055 C1039 0.960 . S
C481 C19 1.925 . S
C489 C451 1.923 . S
C513 C46 1.206 . S
C521 C301 1.197 . S
C545 C95 0.389 . S
C553 C361 0.384 . S
C577 C10 2.013 . S
C585 C421 1.866 . S
C617 C331 1.314 . S
C609 C55 1.322 . S
C649 C391 0.538 . S
C641 C86 0.600 . S
C673 C59 3.091 . S
C681 C181 2.939 . S
C705 C90 2.038 . S
C713 C271 2.070 . S
C737 C15 1.302 . S
C745 C151 1.302 . S
C777 C211 3.012 . S
C769 C50 3.008 . S
C809 C241 1.773 . S
C801 C99 1.925 . S
C833 C6 1.204 . S
C841 C121 1.187 . S
C873 C260 1.343 . S
C865 C9 1.305 . S
C897 C58 1.447 . S
C905 C140 1.480 . S
C929 C98 1.728 . S
C937 C200 1.739 . S
C969 C380 1.089 . S
C961 C49 1.074 . S
C1001 C440 1.343 . S
C993 C89 1.289 . S
C1025 C18 1.406 . S
C1033 C320 1.453 . S
