# Generated by pormake.
# Topology eea, (3,6)-cn, num edge types: 1
# Building blocks:
#     Node 0, Type 0, BuildingBlock: BETDIP_clean_linker_0, # of connection points: 3
#     Node 1, Type 0, BuildingBlock: BETDIP_clean_linker_0, # of connection points: 3
#     Node 2, Type 0, BuildingBlock: BETDIP_clean_linker_0, # of connection points: 3
#     Node 3, Type 0, BuildingBlock: BETDIP_clean_linker_0, # of connection points: 3
#     Node 4, Type 0, BuildingBlock: BETDIP_clean_linker_0, # of connection points: 3
#     Node 5, Type 0, BuildingBlock: BETDIP_clean_linker_0, # of connection points: 3
#     Node 6, Type 0, BuildingBlock: BETDIP_clean_linker_0, # of connection points: 3
#     Node 7, Type 0, BuildingBlock: BETDIP_clean_linker_0, # of connection points: 3
#     Node 8, Type 0, BuildingBlock: BETDIP_clean_linker_0, # of connection points: 3
#     Node 9, Type 0, BuildingBlock: BETDIP_clean_linker_0, # of connection points: 3
#     Node 10, Type 0, BuildingBlock: BETDIP_clean_linker_0, # of connection points: 3
#     Node 11, Type 0, BuildingBlock: BETDIP_clean_linker_0, # of connection points: 3
#     Node 12, Type 0, BuildingBlock: BETDIP_clean_linker_0, # of connection points: 3
#     Node 13, Type 0, BuildingBlock: BETDIP_clean_linker_0, # of connection points: 3
#     Node 14, Type 0, BuildingBlock: BETDIP_clean_linker_0, # of connection points: 3
#     Node 15, Type 0, BuildingBlock: BETDIP_clean_linker_0, # of connection points: 3
#     Node 16, Type 0, BuildingBlock: BETDIP_clean_linker_0, # of connection points: 3
#     Node 17, Type 0, BuildingBlock: BETDIP_clean_linker_0, # of connection points: 3
#     Node 18, Type 1, BuildingBlock: CUKXOW_clean_sbu_0, # of connection points: 6
#     Node 19, Type 1, BuildingBlock: CUKXOW_clean_sbu_0, # of connection points: 6
#     Node 20, Type 1, BuildingBlock: CUKXOW_clean_sbu_0, # of connection points: 6
#     Node 21, Type 1, BuildingBlock: CUKXOW_clean_sbu_0, # of connection points: 6
#     Node 22, Type 1, BuildingBlock: CUKXOW_clean_sbu_0, # of connection points: 6
#     Node 23, Type 1, BuildingBlock: CUKXOW_clean_sbu_0, # of connection points: 6
#     Node 24, Type 1, BuildingBlock: CUKXOW_clean_sbu_0, # of connection points: 6
#     Node 25, Type 1, BuildingBlock: CUKXOW_clean_sbu_0, # of connection points: 6
#     Node 26, Type 1, BuildingBlock: CUKXOW_clean_sbu_0, # of connection points: 6
#     Edge 27, Type (0, 1), BuildingBlock: OJICUG_clean_linker_0, # of connection points: 2
#     Edge 28, Type (0, 1), BuildingBlock: OJICUG_clean_linker_0, # of connection points: 2
#     Edge 29, Type (0, 1), BuildingBlock: OJICUG_clean_linker_0, # of connection points: 2
#     Edge 30, Type (0, 1), BuildingBlock: OJICUG_clean_linker_0, # of connection points: 2
#     Edge 31, Type (0, 1), BuildingBlock: OJICUG_clean_linker_0, # of connection points: 2
#     Edge 32, Type (0, 1), BuildingBlock: OJICUG_clean_linker_0, # of connection points: 2
#     Edge 33, Type (0, 1), BuildingBlock: OJICUG_clean_linker_0, # of connection points: 2
#     Edge 34, Type (0, 1), BuildingBlock: OJICUG_clean_linker_0, # of connection points: 2
#     Edge 35, Type (0, 1), BuildingBlock: OJICUG_clean_linker_0, # of connection points: 2
#     Edge 36, Type (0, 1), BuildingBlock: OJICUG_clean_linker_0, # of connection points: 2
#     Edge 37, Type (0, 1), BuildingBlock: OJICUG_clean_linker_0, # of connection points: 2
#     Edge 38, Type (0, 1), BuildingBlock: OJICUG_clean_linker_0, # of connection points: 2
#     Edge 39, Type (0, 1), BuildingBlock: OJICUG_clean_linker_0, # of connection points: 2
#     Edge 40, Type (0, 1), BuildingBlock: OJICUG_clean_linker_0, # of connection points: 2
#     Edge 41, Type (0, 1), BuildingBlock: OJICUG_clean_linker_0, # of connection points: 2
#     Edge 42, Type (0, 1), BuildingBlock: OJICUG_clean_linker_0, # of connection points: 2
#     Edge 43, Type (0, 1), BuildingBlock: OJICUG_clean_linker_0, # of connection points: 2
#     Edge 44, Type (0, 1), BuildingBlock: OJICUG_clean_linker_0, # of connection points: 2
#     Edge 45, Type (0, 1), BuildingBlock: OJICUG_clean_linker_0, # of connection points: 2
#     Edge 46, Type (0, 1), BuildingBlock: OJICUG_clean_linker_0, # of connection points: 2
#     Edge 47, Type (0, 1), BuildingBlock: OJICUG_clean_linker_0, # of connection points: 2
#     Edge 48, Type (0, 1), BuildingBlock: OJICUG_clean_linker_0, # of connection points: 2
#     Edge 49, Type (0, 1), BuildingBlock: OJICUG_clean_linker_0, # of connection points: 2
#     Edge 50, Type (0, 1), BuildingBlock: OJICUG_clean_linker_0, # of connection points: 2
#     Edge 51, Type (0, 1), BuildingBlock: OJICUG_clean_linker_0, # of connection points: 2
#     Edge 52, Type (0, 1), BuildingBlock: OJICUG_clean_linker_0, # of connection points: 2
#     Edge 53, Type (0, 1), BuildingBlock: OJICUG_clean_linker_0, # of connection points: 2
#     Edge 54, Type (0, 1), BuildingBlock: OJICUG_clean_linker_0, # of connection points: 2
#     Edge 55, Type (0, 1), BuildingBlock: OJICUG_clean_linker_0, # of connection points: 2
#     Edge 56, Type (0, 1), BuildingBlock: OJICUG_clean_linker_0, # of connection points: 2
#     Edge 57, Type (0, 1), BuildingBlock: OJICUG_clean_linker_0, # of connection points: 2
#     Edge 58, Type (0, 1), BuildingBlock: OJICUG_clean_linker_0, # of connection points: 2
#     Edge 59, Type (0, 1), BuildingBlock: OJICUG_clean_linker_0, # of connection points: 2
#     Edge 60, Type (0, 1), BuildingBlock: OJICUG_clean_linker_0, # of connection points: 2
#     Edge 61, Type (0, 1), BuildingBlock: OJICUG_clean_linker_0, # of connection points: 2
#     Edge 62, Type (0, 1), BuildingBlock: OJICUG_clean_linker_0, # of connection points: 2
#     Edge 63, Type (0, 1), BuildingBlock: OJICUG_clean_linker_0, # of connection points: 2
#     Edge 64, Type (0, 1), BuildingBlock: OJICUG_clean_linker_0, # of connection points: 2
#     Edge 65, Type (0, 1), BuildingBlock: OJICUG_clean_linker_0, # of connection points: 2
#     Edge 66, Type (0, 1), BuildingBlock: OJICUG_clean_linker_0, # of connection points: 2
#     Edge 67, Type (0, 1), BuildingBlock: OJICUG_clean_linker_0, # of connection points: 2
#     Edge 68, Type (0, 1), BuildingBlock: OJICUG_clean_linker_0, # of connection points: 2
#     Edge 69, Type (0, 1), BuildingBlock: OJICUG_clean_linker_0, # of connection points: 2
#     Edge 70, Type (0, 1), BuildingBlock: OJICUG_clean_linker_0, # of connection points: 2
#     Edge 71, Type (0, 1), BuildingBlock: OJICUG_clean_linker_0, # of connection points: 2
#     Edge 72, Type (0, 1), BuildingBlock: OJICUG_clean_linker_0, # of connection points: 2
#     Edge 73, Type (0, 1), BuildingBlock: OJICUG_clean_linker_0, # of connection points: 2
#     Edge 74, Type (0, 1), BuildingBlock: OJICUG_clean_linker_0, # of connection points: 2
#     Edge 75, Type (0, 1), BuildingBlock: OJICUG_clean_linker_0, # of connection points: 2
#     Edge 76, Type (0, 1), BuildingBlock: OJICUG_clean_linker_0, # of connection points: 2
#     Edge 77, Type (0, 1), BuildingBlock: OJICUG_clean_linker_0, # of connection points: 2
#     Edge 78, Type (0, 1), BuildingBlock: OJICUG_clean_linker_0, # of connection points: 2
#     Edge 79, Type (0, 1), BuildingBlock: OJICUG_clean_linker_0, # of connection points: 2
#     Edge 80, Type (0, 1), BuildingBlock: OJICUG_clean_linker_0, # of connection points: 2
# Relax obj value: 0.036
# Max RMSD: 0.166
# Mean RMSD: 0.090
data_MOF--net-eea--node1-CUKXOW_clean_sbu_0--node2-BETDIP_clean_linker_0--edge1-OJICUG_clean_linker_0
_symmetry_space_group_name_H-M    P1
_symmetry_Int_Tables_number       1
_symmetry_cell_setting            triclinic
loop_
_symmetry_equiv_pos_as_xyz
'x, y, z'
_cell_length_a     44.838569
_cell_length_b     41.107112
_cell_length_c     35.639107
_cell_angle_alpha  93.415265
_cell_angle_beta   93.411488
_cell_angle_gamma 119.86307
loop_
_atom_site_label
_atom_site_type_symbol
_atom_site_fract_x
_atom_site_fract_y
_atom_site_fract_z
_atom_type_partial_charge
H0 H 0.19292 0.08502 0.3819 0.0
H1 H 0.24461 0.15956 0.48378 0.0
H2 H 0.25528 0.06217 0.45972 0.0
H3 H 0.25233 0.20321 0.43943 0.0
C4 C 0.22606 0.19003 0.42582 0.0
C5 C 0.2094 0.09247 0.40817 0.0
C6 C 0.223 0.06969 0.41857 0.0
C7 C 0.21846 0.12592 0.43069 0.0
C8 C 0.23924 0.13497 0.46534 0.0
C9 C 0.25213 0.11166 0.47666 0.0
C10 C 0.24458 0.07975 0.45234 0.0
N11 N 0.20663 0.1501 0.41784 0.0
H12 H 0.92061 0.13498 0.38162 0.0
H13 H 0.84477 0.09825 0.46002 0.0
H14 H 0.93923 0.20551 0.48491 0.0
H15 H 0.86744 0.04515 0.43798 0.0
C16 C 0.85253 0.04403 0.4122 0.0
C17 C 0.91229 0.14058 0.40795 0.0
C18 C 0.93367 0.17414 0.43163 0.0
C19 C 0.88093 0.11308 0.41893 0.0
C20 C 0.8699 0.11944 0.45301 0.0
C21 C 0.89049 0.15272 0.47729 0.0
C22 C 0.9227 0.1799 0.46645 0.0
N23 N 0.86098 0.07811 0.39644 0.0
H24 H 0.88389 0.77447 0.3984 0.0
H25 H 0.90582 0.71539 0.48169 0.0
H26 H 0.80915 0.71333 0.47491 0.0
H27 H 0.96055 0.75615 0.4736 0.0
C28 C 0.96105 0.76197 0.44426 0.0
C29 C 0.87589 0.75653 0.42119 0.0
C30 C 0.84363 0.7451 0.43463 0.0
C31 C 0.89882 0.74653 0.4382 0.0
C32 C 0.88883 0.72395 0.46849 0.0
C33 C 0.85638 0.71182 0.48175 0.0
C34 C 0.83398 0.72222 0.46438 0.0
N35 N 0.93164 0.75992 0.42425 0.0
H36 H 0.09347 0.23073 0.62541 0.0
H37 H 0.17368 0.28368 0.554 0.0
H38 H 0.08268 0.29407 0.53893 0.0
H39 H 0.16778 0.22293 0.55403 0.0
C40 C 0.17032 0.22363 0.58465 0.0
C41 C 0.10356 0.2481 0.60247 0.0
C42 C 0.08509 0.26341 0.58486 0.0
C43 C 0.13445 0.2538 0.58986 0.0
C44 C 0.14813 0.27673 0.56074 0.0
C45 C 0.12949 0.29069 0.54088 0.0
C46 C 0.09768 0.2837 0.55335 0.0
N47 N 0.15138 0.23584 0.60624 0.0
H48 H 0.81794 0.88165 0.65074 0.0
H49 H 0.77226 0.9187 0.56748 0.0
H50 H 0.76012 0.80764 0.55023 0.0
H51 H 0.84002 0.97198 0.5868 0.0
C52 C 0.83053 0.97362 0.61383 0.0
C53 C 0.8027 0.87603 0.62389 0.0
C54 C 0.78915 0.841 0.60226 0.0
C55 C 0.7973 0.90419 0.61067 0.0
C56 C 0.77739 0.89703 0.57617 0.0
C57 C 0.76369 0.86239 0.55363 0.0
C58 C 0.76965 0.8343 0.5672 0.0
N59 N 0.81235 0.94011 0.63177 0.0
H60 H 0.14059 0.92107 0.64536 0.0
H61 H 0.11207 0.8491 0.54112 0.0
H62 H 0.21594 0.94205 0.56731 0.0
H63 H 0.07169 0.80616 0.57487 0.0
C64 C 0.06474 0.82212 0.59423 0.0
C65 C 0.14757 0.9134 0.61904 0.0
C66 C 0.18126 0.93511 0.6091 0.0
C67 C 0.12283 0.88143 0.59555 0.0
C68 C 0.1315 0.87228 0.56056 0.0
C69 C 0.16503 0.89451 0.54979 0.0
C70 C 0.18987 0.92505 0.57492 0.0
N71 N 0.0893 0.86016 0.60761 0.0
H72 H 0.86587 0.42399 0.71216 0.0
H73 H 0.91272 0.49393 0.81761 0.0
H74 H 0.92095 0.39498 0.79324 0.0
H75 H 0.86737 0.50639 0.80352 0.0
C76 C 0.87144 0.51159 0.77421 0.0
C77 C 0.88055 0.42987 0.73944 0.0
C78 C 0.89205 0.40551 0.75058 0.0
C79 C 0.88805 0.46194 0.76339 0.0
C80 C 0.90693 0.46928 0.79901 0.0
C81 C 0.91874 0.44505 0.81039 0.0
C82 C 0.91148 0.41358 0.78554 0.0
N83 N 0.87765 0.48715 0.75025 0.0
H84 H 0.59012 0.45787 0.72572 0.0
H85 H 0.50919 0.43377 0.79587 0.0
H86 H 0.60355 0.53996 0.81667 0.0
H87 H 0.49888 0.37569 0.78559 0.0
C88 C 0.50246 0.3734 0.7559 0.0
C89 C 0.58055 0.46688 0.74898 0.0
C90 C 0.6005 0.50339 0.76833 0.0
C91 C 0.54829 0.44116 0.75971 0.0
C92 C 0.53541 0.45219 0.78973 0.0
C93 C 0.55578 0.48673 0.81201 0.0
C94 C 0.58815 0.51268 0.80057 0.0
N95 N 0.529 0.40439 0.73991 0.0
H96 H 0.55982 0.12241 0.7332 0.0
H97 H 0.58066 0.07101 0.82558 0.0
H98 H 0.4807 0.06006 0.80403 0.0
H99 H 0.63475 0.10362 0.81335 0.0
C100 C 0.63532 0.10942 0.78402 0.0
C101 C 0.55118 0.10552 0.75672 0.0
C102 C 0.51808 0.09354 0.76762 0.0
C103 C 0.57384 0.09703 0.77698 0.0
C104 C 0.56323 0.07679 0.80895 0.0
C105 C 0.52984 0.06432 0.81976 0.0
C106 C 0.50716 0.07125 0.79753 0.0
N107 N 0.60689 0.10945 0.76417 0.0
H108 H 0.75168 0.55237 0.95438 0.0
H109 H 0.82876 0.59944 0.87771 0.0
H110 H 0.7568 0.63923 0.88878 0.0
H111 H 0.82553 0.54253 0.87943 0.0
C112 C 0.82675 0.54192 0.90991 0.0
C113 C 0.7637 0.57226 0.93384 0.0
C114 C 0.75013 0.59492 0.92259 0.0
C115 C 0.79205 0.57394 0.91785 0.0
C116 C 0.80727 0.59885 0.89045 0.0
C117 C 0.79514 0.62296 0.87957 0.0
C118 C 0.76639 0.62067 0.89601 0.0
N119 N 0.80577 0.55154 0.93091 0.0
H120 H 0.47632 0.21638 0.98596 0.0
H121 H 0.43241 0.25109 0.89846 0.0
H122 H 0.42109 0.14017 0.88591 0.0
H123 H 0.49779 0.30537 0.9178 0.0
C124 C 0.48897 0.30745 0.94515 0.0
C125 C 0.4617 0.21005 0.95856 0.0
C126 C 0.44871 0.17454 0.93797 0.0
C127 C 0.45669 0.23786 0.9436 0.0
C128 C 0.43746 0.22976 0.90843 0.0
C129 C 0.42425 0.19465 0.88686 0.0
C130 C 0.43004 0.16706 0.90215 0.0
N131 N 0.47135 0.27425 0.96378 0.0
H132 H 0.80184 0.25211 0.97485 0.0
H133 H 0.77625 0.1829 0.86893 0.0
H134 H 0.87958 0.2753 0.89953 0.0
H135 H 0.72404 0.15009 0.88685 0.0
C136 C 0.72217 0.16072 0.91467 0.0
C137 C 0.80948 0.24518 0.94863 0.0
C138 C 0.8436 0.26711 0.94007 0.0
C139 C 0.78501 0.21423 0.92376 0.0
C140 C 0.79483 0.20586 0.8891 0.0
C141 C 0.82896 0.22829 0.87987 0.0
C142 C 0.85316 0.25812 0.90607 0.0
N143 N 0.75107 0.19296 0.935 0.0
H144 H 0.52663 0.75675 0.05489 0.0
H145 H 0.57967 0.83042 0.15705 0.0
H146 H 0.5906 0.73365 0.13 0.0
H147 H 0.58441 0.87451 0.11549 0.0
C148 C 0.55837 0.86084 0.10117 0.0
C149 C 0.54358 0.76407 0.08076 0.0
C150 C 0.55761 0.7414 0.09002 0.0
C151 C 0.5527 0.7972 0.1039 0.0
C152 C 0.57415 0.8061 0.13805 0.0
C153 C 0.58739 0.7828 0.1483 0.0
C154 C 0.57969 0.75122 0.12335 0.0
N155 N 0.54004 0.82102 0.0921 0.0
H156 H 0.25413 0.78719 0.05619 0.0
H157 H 0.17492 0.7624 0.12888 0.0
H158 H 0.26816 0.86971 0.1471 0.0
H159 H 0.16591 0.70459 0.11863 0.0
C160 C 0.16827 0.70233 0.08858 0.0
C161 C 0.24493 0.79628 0.07974 0.0
C162 C 0.2648 0.83305 0.09859 0.0
C163 C 0.21318 0.77031 0.09134 0.0
C164 C 0.20079 0.78117 0.12193 0.0
C165 C 0.2212 0.81592 0.14379 0.0
C166 C 0.25292 0.84225 0.13133 0.0
N167 N 0.19385 0.73344 0.0718 0.0
H168 H 0.21919 0.44829 0.06495 0.0
H169 H 0.23533 0.38056 0.14192 0.0
H170 H 0.14542 0.39249 0.14363 0.0
H171 H 0.29146 0.42142 0.13677 0.0
C172 C 0.29264 0.42879 0.10793 0.0
C173 C 0.2106 0.43012 0.08752 0.0
C174 C 0.1794 0.42127 0.1022 0.0
C175 C 0.23162 0.41689 0.10275 0.0
C176 C 0.22023 0.39265 0.13162 0.0
C177 C 0.18885 0.3833 0.14657 0.0
C178 C 0.16914 0.39845 0.13192 0.0
N179 N 0.26396 0.42855 0.08831 0.0
H180 H 0.43433 0.90536 0.3019 0.0
H181 H 0.51262 0.96311 0.22812 0.0
H182 H 0.42131 0.97211 0.2203 0.0
H183 H 0.5121 0.9066 0.22868 0.0
C184 C 0.51413 0.90564 0.2591 0.0
C185 C 0.44392 0.92422 0.28003 0.0
C186 C 0.42391 0.93846 0.2636 0.0
C187 C 0.47544 0.93224 0.26681 0.0
C188 C 0.48807 0.95633 0.23825 0.0
C189 C 0.46846 0.9703 0.22117 0.0
C190 C 0.43639 0.96128 0.2338 0.0
N191 N 0.49351 0.91473 0.28143 0.0
H192 H 0.1411 0.54211 0.31591 0.0
H193 H 0.09779 0.58069 0.23159 0.0
H194 H 0.08884 0.47126 0.21218 0.0
H195 H 0.16623 0.63337 0.25281 0.0
C196 C 0.15621 0.63508 0.27947 0.0
C197 C 0.12677 0.53706 0.28856 0.0
C198 C 0.11501 0.50296 0.26577 0.0
C199 C 0.12188 0.56559 0.27523 0.0
C200 C 0.10303 0.55904 0.24009 0.0
C201 C 0.09034 0.52495 0.21686 0.0
C202 C 0.09729 0.49732 0.2298 0.0
N203 N 0.13662 0.60135 0.2967 0.0
H204 H 0.46935 0.59886 0.30635 0.0
H205 H 0.4435 0.52677 0.20261 0.0
H206 H 0.54738 0.61854 0.23227 0.0
H207 H 0.40306 0.48395 0.23531 0.0
C208 C 0.39513 0.49937 0.25411 0.0
C209 C 0.47699 0.5911 0.28057 0.0
C210 C 0.51119 0.6123 0.27197 0.0
C211 C 0.45274 0.55919 0.25664 0.0
C212 C 0.46247 0.54985 0.22247 0.0
C213 C 0.49656 0.57154 0.21307 0.0
C214 C 0.52084 0.60201 0.23865 0.0
N215 N 0.4188 0.53764 0.26764 0.0
Tb216 Tb 0.53487 0.03834 0.01301 0.0
C217 C 0.51365 0.95875 0.03956 0.0
Tb218 Tb 0.45616 0.98197 0.01951 0.0
O219 O 0.54823 0.04515 0.07436 0.0
O220 O 0.49819 0.02905 0.05173 0.0
O221 O 0.53752 0.98858 0.02467 0.0
C222 C 0.39362 0.93749 0.04152 0.0
O223 O 0.4816 0.95212 0.04261 0.0
C224 C 0.476 0.98749 0.95126 0.0
C225 C 0.47892 0.06382 0.99619 0.0
O226 O 0.40854 0.92715 0.01721 0.0
O227 O 0.41364 0.97293 0.05321 0.0
O228 O 0.44464 0.97743 0.95833 0.0
O229 O 0.49311 0.99033 0.98176 0.0
O230 O 0.45413 0.03277 0.00867 0.0
O231 O 0.51089 0.0703 0.99365 0.0
C232 C 0.59393 0.07859 0.98212 0.0
O233 O 0.58656 0.08839 0.01411 0.0
O234 O 0.56819 0.04622 0.96788 0.0
C235 C 0.51646 0.0327 0.08182 0.0
Tb236 Tb 0.97859 0.50142 0.01073 0.0
C237 C 0.05754 0.5603 0.02189 0.0
Tb238 Tb 0.0293 0.47127 0.0172 0.0
O239 O 0.99415 0.52605 0.06967 0.0
O240 O 0.99552 0.47747 0.05168 0.0
O241 O 0.02628 0.55475 0.01154 0.0
C242 C 0.07879 0.45798 0.04288 0.0
O243 O 0.06391 0.53247 0.02706 0.0
C244 C 1.00438 0.47042 0.94895 0.0
C245 C 0.95036 0.41241 0.00687 0.0
O246 O 0.0709 0.45938 0.0076 0.0
O247 O 0.05845 0.46338 0.06348 0.0
O248 O 0.01336 0.44623 0.95858 0.0
O249 O 0.01234 0.49506 0.97631 0.0
O250 O 0.98148 0.41837 0.01901 0.0
O251 O 0.94437 0.44018 0.99975 0.0
C252 C 0.93082 0.51586 0.98126 0.0
O253 O 0.93399 0.50937 0.01613 0.0
O254 O 0.95474 0.51474 0.96351 0.0
C255 C 1.00332 0.50193 0.07918 0.0
Tb256 Tb 0.4833 0.50788 0.01593 0.0
C257 C 0.51368 0.4553 0.9987 0.0
Tb258 Tb 0.5612 0.54541 0.00529 0.0
O259 O 0.47014 0.4842 0.95667 0.0
O260 O 0.51562 0.53483 0.97347 0.0
O261 O 0.48851 0.45786 0.01396 0.0
C262 C 0.62263 0.56727 0.98015 0.0
O263 O 0.54229 0.4853 0.99025 0.0
C264 C 0.54599 0.54436 0.07515 0.0
C265 C 0.53061 0.598 0.02165 0.0
O266 O 0.5965 0.56634 0.96121 0.0
O267 O 0.61416 0.55612 0.01317 0.0
O268 O 0.57474 0.57004 0.06403 0.0
O269 O 0.52908 0.51921 0.04806 0.0
O270 O 0.55589 0.59524 0.00672 0.0
O271 O 0.50175 0.56812 0.02995 0.0
C272 C 0.42285 0.48374 0.04444 0.0
O273 O 0.42963 0.49581 0.01138 0.0
O274 O 0.45004 0.4853 0.06125 0.0
C275 C 0.49886 0.51041 0.94591 0.0
Tb276 Tb 0.20354 0.37068 0.34159 0.0
C277 C 0.18257 0.29034 0.36804 0.0
Tb278 Tb 0.12658 0.31583 0.3524 0.0
O279 O 0.21714 0.38049 0.40284 0.0
O280 O 0.16811 0.3662 0.38058 0.0
O281 O 0.20645 0.32105 0.35429 0.0
C282 C 0.0661 0.27454 0.38027 0.0
O283 O 0.15039 0.28316 0.37095 0.0
C284 C 0.14263 0.3138 0.28286 0.0
C285 C 0.14705 0.39287 0.32103 0.0
O286 O 0.07031 0.28027 0.34512 0.0
O287 O 0.09611 0.29192 0.40001 0.0
O288 O 0.11155 0.30315 0.29138 0.0
O289 O 0.16174 0.32056 0.31308 0.0
O290 O 0.12671 0.36816 0.34361 0.0
O291 O 0.17602 0.39459 0.31165 0.0
C292 C 0.26494 0.41355 0.31606 0.0
O293 O 0.24775 0.42627 0.33383 0.0
O294 O 0.2478 0.37708 0.31327 0.0
C295 C 0.18621 0.37112 0.41098 0.0
Tb296 Tb 0.65625 0.84487 0.34639 0.0
C297 C 0.73625 0.89781 0.35844 0.0
Tb298 Tb 0.70127 0.80788 0.35237 0.0
O299 O 0.67355 0.86954 0.40512 0.0
O300 O 0.67005 0.81826 0.38743 0.0
O301 O 0.70659 0.89524 0.34579 0.0
C302 C 0.74641 0.78767 0.37663 0.0
O303 O 0.73898 0.86791 0.36518 0.0
C304 C 0.67717 0.80867 0.28395 0.0
C305 C 0.62147 0.75477 0.34113 0.0
O306 O 0.72516 0.79161 0.39699 0.0
O307 O 0.74197 0.79459 0.34232 0.0
O308 O 0.68396 0.78291 0.29384 0.0
O309 O 0.68705 0.83397 0.31119 0.0
O310 O 0.65129 0.75782 0.35389 0.0
O311 O 0.61837 0.78445 0.334 0.0
C312 C 0.61198 0.86593 0.32096 0.0
O313 O 0.63454 0.86343 0.30176 0.0
O314 O 0.61449 0.85692 0.35485 0.0
C315 C 0.67974 0.84329 0.41484 0.0
Tb316 Tb 0.14995 0.83541 0.34929 0.0
C317 C 0.18044 0.7828 0.33258 0.0
Tb318 Tb 0.22799 0.87299 0.33899 0.0
O319 O 0.13703 0.81193 0.29001 0.0
O320 O 0.18251 0.86262 0.30709 0.0
O321 O 0.15505 0.78533 0.34735 0.0
C322 C 0.28996 0.89552 0.31464 0.0
O323 O 0.20927 0.81281 0.32453 0.0
C324 C 0.21221 0.87135 0.40866 0.0
C325 C 0.19717 0.92553 0.35421 0.0
O326 O 0.26313 0.89182 0.29448 0.0
O327 O 0.28185 0.88664 0.34837 0.0
O328 O 0.2409 0.89742 0.39781 0.0
O329 O 0.19556 0.84635 0.38144 0.0
O330 O 0.22248 0.92267 0.33952 0.0
O331 O 0.16837 0.89573 0.36276 0.0
C332 C 0.08972 0.81213 0.37824 0.0
O333 O 0.11722 0.81461 0.39537 0.0
O334 O 0.09603 0.82268 0.34456 0.0
C335 C 0.16581 0.83826 0.27946 0.0
Tb336 Tb 0.87239 0.7035 0.68332 0.0
C337 C 0.84695 0.62446 0.71357 0.0
Tb338 Tb 0.79354 0.65131 0.69137 0.0
O339 O 0.88592 0.71337 0.7445 0.0
O340 O 0.83678 0.69936 0.72175 0.0
O341 O 0.87083 0.65124 0.6955 0.0
C342 C 0.73135 0.60701 0.71444 0.0
O343 O 0.81678 0.62186 0.71862 0.0
C344 C 0.81164 0.65199 0.62245 0.0
C345 C 0.81772 0.72965 0.66086 0.0
O346 O 0.74352 0.59864 0.68562 0.0
O347 O 0.75398 0.64043 0.73 0.0
O348 O 0.78058 0.6428 0.6299 0.0
O349 O 0.82941 0.65597 0.65297 0.0
O350 O 0.79353 0.70236 0.67832 0.0
O351 O 0.84832 0.73272 0.65629 0.0
C352 C 0.93483 0.74214 0.65846 0.0
O353 O 0.91888 0.75697 0.67538 0.0
O354 O 0.91576 0.70571 0.65581 0.0
C355 C 0.85485 0.70392 0.75224 0.0
Tb356 Tb 0.31602 0.17055 0.67726 0.0
C357 C 0.39474 0.23031 0.68716 0.0
Tb358 Tb 0.36734 0.14156 0.6814 0.0
O359 O 0.33244 0.1951 0.7361 0.0
O360 O 0.33402 0.14676 0.71748 0.0
O361 O 0.36322 0.22414 0.67721 0.0
C362 C 0.41709 0.12834 0.70596 0.0
O363 O 0.40167 0.20281 0.69177 0.0
C364 C 0.34104 0.14046 0.61375 0.0
C365 C 0.28847 0.08185 0.67256 0.0
O366 O 0.39672 0.13331 0.7269 0.0
O367 O 0.40917 0.1302 0.67083 0.0
O368 O 0.35066 0.11665 0.62284 0.0
O369 O 0.34923 0.16507 0.64128 0.0
O370 O 0.31996 0.08823 0.68348 0.0
O371 O 0.28185 0.10937 0.66646 0.0
C372 C 0.2683 0.18597 0.65016 0.0
O373 O 0.27277 0.18035 0.68505 0.0
O374 O 0.29067 0.18309 0.631 0.0
C375 C 0.34199 0.17118 0.74511 0.0
Tb376 Tb 0.81891 0.171 0.68267 0.0
C377 C 0.85056 0.11952 0.66617 0.0
Tb378 Tb 0.89658 0.20972 0.67125 0.0
O379 O 0.8053 0.14621 0.62381 0.0
O380 O 0.85039 0.19778 0.63975 0.0
O381 O 0.82481 0.12141 0.68085 0.0
C382 C 0.9572 0.23216 0.64385 0.0
O383 O 0.87908 0.14981 0.65805 0.0
C384 C 0.88143 0.20815 0.7413 0.0
C385 C 0.86525 0.26134 0.68608 0.0
O386 O 0.92922 0.22635 0.62458 0.0
O387 O 0.9511 0.22557 0.67856 0.0
O388 O 0.90968 0.2347 0.73009 0.0
O389 O 0.86503 0.18298 0.71421 0.0
O390 O 0.89037 0.2587 0.67081 0.0
O391 O 0.83698 0.23145 0.69552 0.0
C392 C 0.7596 0.14867 0.713 0.0
O393 O 0.78696 0.15023 0.72928 0.0
O394 O 0.76541 0.15927 0.67927 0.0
C395 C 0.83369 0.17267 0.61266 0.0
C396 C 0.30212 0.85875 0.04516 0.0
C397 C 0.2978 0.86113 0.08399 0.0
H398 H 0.33606 0.88034 1.00168 0.0
C399 C 0.32543 0.89027 0.10831 0.0
H400 H 0.2814 0.83792 0.02496 0.0
C401 C 0.35618 0.91592 0.09423 0.0
C402 C 0.3605 0.9122 0.05586 0.0
H403 H 0.32386 0.89302 0.1384 0.0
H404 H 0.37705 0.93787 0.11359 0.0
C405 C 0.33334 0.88341 0.03149 0.0
C406 C 0.14895 0.43239 0.04734 0.0
C407 C 0.15671 0.43496 0.08658 0.0
H408 H 0.11786 0.43761 0.00262 0.0
C409 C 0.14025 0.44761 0.11102 0.0
H410 H 0.16106 0.4225 0.02785 0.0
C411 C 0.11524 0.45556 0.09666 0.0
C412 C 0.10651 0.4515 0.05756 0.0
H413 H 0.14618 0.45063 0.14138 0.0
H414 H 0.10242 0.46442 0.11622 0.0
C415 C 0.12407 0.4407 0.03293 0.0
C416 C 0.57616 0.70269 0.05237 0.0
C417 C 0.54932 0.70681 0.06586 0.0
H418 H 0.59124 0.66531 0.02715 0.0
C419 C 0.5155 0.67591 0.06086 0.0
H420 H 0.60249 0.72617 0.05611 0.0
C421 C 0.50901 0.64077 0.04477 0.0
C422 C 0.53621 0.63611 0.03297 0.0
H423 H 0.49448 0.67838 0.07143 0.0
H424 H 0.48293 0.61697 0.04291 0.0
C425 C 0.56965 0.6678 0.0358 0.0
C426 C 0.86138 0.33001 0.97388 0.0
C427 C 0.86903 0.3015 0.96458 0.0
H428 H 0.88125 0.38767 0.99479 0.0
C429 C 0.90263 0.30827 0.97418 0.0
H430 H 0.83573 0.32555 0.96652 0.0
C431 C 0.92869 0.34372 0.99057 0.0
C432 C 0.9217 0.3732 0.99716 0.0
H433 H 0.90908 0.28661 0.96738 0.0
H434 H 0.95471 0.3486 0.99585 0.0
C435 C 0.88753 0.36562 0.98983 0.0
C436 C 0.69184 0.58993 0.91394 0.0
C437 C 0.71839 0.59075 0.9379 0.0
H438 H 0.64057 0.5818 0.90859 0.0
C439 C 0.71362 0.58562 0.97619 0.0
H440 H 0.69451 0.59331 0.88419 0.0
C441 C 0.6827 0.57874 0.98998 0.0
C442 C 0.65596 0.57702 0.96584 0.0
H443 H 0.73372 0.58665 0.99551 0.0
H444 H 0.67959 0.5743 0.01948 0.0
C445 C 0.66091 0.58316 0.92781 0.0
C446 C 0.48991 0.15621 0.96693 0.0
C447 C 0.456 0.14602 0.95339 0.0
H448 H 0.52369 0.13838 0.99083 0.0
C449 C 0.42937 0.10865 0.95485 0.0
H450 H 0.511 0.1847 0.96592 0.0
C451 C 0.43653 0.08214 0.96981 0.0
C452 C 0.47059 0.09226 0.98286 0.0
H453 H 0.40297 0.10004 0.94473 0.0
H454 H 0.41553 0.05351 0.97033 0.0
C455 C 0.49716 0.12961 0.98114 0.0
C456 C 0.66107 0.10783 0.91222 0.0
C457 C 0.68909 0.14049 0.9318 0.0
H458 H 0.60895 0.06263 0.91285 0.0
C459 C 0.68527 0.15315 0.9678 0.0
H460 H 0.66325 0.09755 0.88439 0.0
C461 C 0.65421 0.13326 0.98402 0.0
C462 C 0.62643 0.10029 0.96467 0.0
H463 H 0.7063 0.17829 0.98364 0.0
H464 H 0.65206 0.14349 0.01188 0.0
C465 C 0.63006 0.08787 0.92851 0.0
C466 C 0.85487 0.532 0.96801 0.0
C467 C 0.85232 0.53391 0.92877 0.0
H468 H 0.88191 0.52462 0.01555 0.0
C469 C 0.8754 0.52942 0.90714 0.0
H470 H 0.83741 0.53537 0.9854 0.0
C471 C 0.90091 0.52363 0.92438 0.0
C472 C 0.90369 0.52198 0.96359 0.0
H473 H 0.87398 0.53086 0.87687 0.0
H474 H 0.91847 0.52044 0.90695 0.0
C475 C 0.88033 0.52591 0.98527 0.0
C476 C 0.52164 0.37724 0.94698 0.0
C477 C 0.49664 0.34501 0.96183 0.0
H478 H 0.54707 0.43715 0.94743 0.0
C479 C 0.47819 0.34922 0.99043 0.0
H480 H 0.53611 0.37473 0.9248 0.0
C481 C 0.48399 0.38512 0.00303 0.0
C482 C 0.50881 0.41741 0.98777 0.0
H483 H 0.45857 0.32477 0.00217 0.0
H484 H 0.46883 0.38755 0.02441 0.0
C485 C 0.52795 0.41303 0.96006 0.0
C486 C 0.14761 0.64415 0.04461 0.0
C487 C 0.14054 0.669 0.06558 0.0
H488 H 0.12628 0.58927 0.0143 0.0
C489 C 0.10622 0.65965 0.0685 0.0
H490 H 0.17405 0.65088 0.04255 0.0
C491 C 0.07908 0.62525 0.05152 0.0
C492 C 0.08595 0.59917 0.03256 0.0
H493 H 0.10045 0.6785 0.08494 0.0
H494 H 0.05279 0.61807 0.05544 0.0
C495 C 0.1204 0.60908 0.02863 0.0
C496 C 0.35442 0.44551 0.11241 0.0
C497 C 0.32577 0.44285 0.09115 0.0
H498 H 0.40771 0.46073 0.11427 0.0
C499 C 0.3293 0.45395 0.05434 0.0
H500 H 0.35239 0.43726 0.14089 0.0
C501 C 0.36095 0.46743 0.03914 0.0
C502 C 0.38953 0.46996 0.06043 0.0
H503 H 0.30769 0.45225 0.03724 0.0
H504 H 0.36302 0.47575 0.0107 0.0
C505 C 0.38602 0.45895 0.09721 0.0
C506 C 0.51092 0.87097 0.07286 0.0
C507 C 0.54593 0.88502 0.08534 0.0
H508 H 0.47297 0.88348 0.04905 0.0
C509 C 0.56981 0.92313 0.0828 0.0
H510 H 0.4919 0.84172 0.07473 0.0
C511 C 0.5592 0.94667 0.0675 0.0
C512 C 0.52425 0.9329 0.0551 0.0
H513 H 0.59692 0.9347 0.09231 0.0
H514 H 0.57844 0.97591 0.06591 0.0
C515 C 0.50009 0.89486 0.05828 0.0
C516 C 0.97009 0.21072 0.382 0.0
C517 C 0.96756 0.20245 0.41978 0.0
H518 H 1.00316 0.2399 0.34014 0.0
C519 C 0.99779 0.21983 0.44525 0.0
H520 H 0.94727 0.19835 0.36183 0.0
C521 C 0.02999 0.24393 0.43275 0.0
C522 C 0.03239 0.25102 0.39465 0.0
H523 H 0.99673 0.21384 0.47448 0.0
H524 H 0.053 0.25637 0.45267 0.0
C525 C 1.00211 0.23464 0.36959 0.0
C526 C 0.80254 0.76873 0.44394 0.0
C527 C 0.82026 0.75808 0.41924 0.0
H528 H 0.7651 0.78597 0.44966 0.0
C529 C 0.81445 0.75874 0.38016 0.0
H530 H 0.80707 0.76954 0.47427 0.0
C531 C 0.79066 0.7688 0.3661 0.0
C532 C 0.77221 0.77809 0.39091 0.0
H533 H 0.82761 0.75058 0.36044 0.0
H534 H 0.78622 0.76864 0.33586 0.0
C535 C 0.77859 0.77832 0.42991 0.0
C536 C 0.18125 1.00364 0.39078 0.0
C537 C 0.21492 0.03481 0.39514 0.0
H538 H 0.14911 0.94434 0.37438 0.0
C539 C 0.24192 0.03069 0.38213 0.0
H540 H 0.16014 0.00613 0.40104 0.0
C541 C 0.23571 0.99557 0.36667 0.0
C542 C 0.20244 0.96367 0.36451 0.0
H543 H 0.26814 0.05437 0.38547 0.0
H544 H 0.25741 0.99311 0.35836 0.0
C545 C 0.17508 0.96829 0.37578 0.0
C546 C 0.56929 0.65069 0.30844 0.0
C547 C 0.53705 0.64643 0.29638 0.0
H548 H 0.6211 0.68811 0.33285 0.0
C549 C 0.53142 0.67678 0.30354 0.0
H550 H 0.57414 0.62758 0.30322 0.0
C551 C 0.55842 0.71168 0.32011 0.0
C552 C 0.59135 0.71661 0.33023 0.0
H553 H 0.50681 0.67416 0.29422 0.0
H554 H 0.55387 0.73516 0.3235 0.0
C555 C 0.59611 0.68535 0.32547 0.0
C556 C 0.38454 0.92536 0.31515 0.0
C557 C 0.38956 0.92828 0.27662 0.0
H558 H 0.34915 0.91265 0.35721 0.0
C559 C 0.36135 0.92079 0.25069 0.0
H560 H 0.4057 0.93146 0.33601 0.0
C561 C 0.32902 0.91056 0.26302 0.0
C562 C 0.32415 0.90728 0.30145 0.0
H563 H 0.36399 0.92208 0.22073 0.0
H564 H 0.30773 0.90466 0.24242 0.0
C565 C 0.35218 0.9148 0.32737 0.0
C566 C 0.13976 0.46028 0.25784 0.0
C567 C 0.12205 0.47368 0.27928 0.0
H568 H 0.16196 0.42459 0.25455 0.0
C569 C 0.11185 0.45961 0.31412 0.0
H570 H 0.14799 0.47075 0.23094 0.0
C571 C 0.11919 0.43264 0.3273 0.0
C572 C 0.13771 0.41998 0.30635 0.0
H573 H 0.09806 0.4694 0.3311 0.0
H574 H 0.11111 0.42239 0.35431 0.0
C575 C 0.14788 0.43405 0.27146 0.0
C576 C 0.34179 0.43894 0.2612 0.0
C577 C 0.36143 0.47822 0.26957 0.0
H578 H 0.29602 0.38778 0.26968 0.0
C579 C 0.34886 0.49645 0.29303 0.0
H580 H 0.35087 0.42424 0.24315 0.0
C581 C 0.31725 0.47557 0.30804 0.0
C582 C 0.29799 0.43619 0.30011 0.0
H583 H 0.36338 0.52676 0.29983 0.0
H584 H 0.30808 0.49014 0.32609 0.0
C585 C 0.31049 0.41811 0.27647 0.0
C586 C 0.56001 0.88943 0.2523 0.0
C587 C 0.5386 0.89504 0.27579 0.0
H588 H 0.60018 0.87602 0.24835 0.0
C589 C 0.5413 0.8909 0.31448 0.0
H590 H 0.55837 0.89244 0.22236 0.0
C591 C 0.56518 0.8813 0.32937 0.0
C592 C 0.58677 0.87604 0.30581 0.0
H593 H 0.52506 0.89503 0.33321 0.0
H594 H 0.56686 0.87818 0.35926 0.0
C595 C 0.58396 0.88015 0.26717 0.0
C596 C 0.18948 0.70489 0.28227 0.0
C597 C 0.16372 0.67255 0.29622 0.0
H598 H 0.21532 0.76485 0.28318 0.0
C599 C 0.1444 0.67662 0.32386 0.0
H600 H 0.20463 0.70249 0.26083 0.0
C601 C 0.15012 0.71251 0.33636 0.0
C602 C 0.17566 0.74491 0.32191 0.0
H603 H 0.12419 0.65208 0.3349 0.0
H604 H 0.1343 0.71483 0.35697 0.0
C605 C 0.19563 0.74064 0.29519 0.0
C606 C 0.8223 0.97436 0.40696 0.0
C607 C 0.82403 0.00707 0.39511 0.0
H608 H 0.79366 0.91439 0.40423 0.0
C609 C 0.79755 1.00385 0.36924 0.0
H610 H 0.84236 0.97619 0.42699 0.0
C611 C 0.76913 0.96826 0.35646 0.0
C612 C 0.76717 0.93546 0.36888 0.0
H613 H 0.79821 0.02876 0.35988 0.0
H614 H 0.74854 0.96646 0.33734 0.0
C615 C 0.79439 0.93896 0.39375 0.0
C616 C 0.99662 0.78405 0.38927 0.0
C617 C 0.99379 0.77493 0.4268 0.0
H618 H 0.02941 0.80308 0.34444 0.0
C619 C 0.02272 0.77827 0.4481 0.0
H620 H 0.97478 0.78177 0.37211 0.0
C621 C 0.05389 0.79041 0.43225 0.0
C622 C 0.05672 0.79945 0.39476 0.0
H623 H 0.02123 0.7715 0.47711 0.0
H624 H 0.07579 0.79275 0.4494 0.0
C625 C 0.02787 0.79625 0.37341 0.0
C626 C 0.17896 0.20146 0.39916 0.0
C627 C 0.21404 0.21472 0.41043 0.0
H628 H 0.14127 0.21515 0.3773 0.0
C629 C 0.23836 0.25258 0.40739 0.0
H630 H 0.15962 0.17242 0.40146 0.0
C631 C 0.22806 0.2767 0.39295 0.0
C632 C 0.19301 0.26377 0.38194 0.0
H633 H 0.26554 0.26353 0.41598 0.0
H634 H 0.2476 0.30577 0.39112 0.0
C635 C 0.16848 0.22592 0.38543 0.0
C636 C 0.66192 0.55882 0.7799 0.0
C637 C 0.63407 0.53118 0.75469 0.0
H638 H 0.71429 0.60493 0.78671 0.0
C639 C 0.63867 0.52999 0.71589 0.0
H640 H 0.65997 0.56052 0.80999 0.0
C641 C 0.67032 0.55452 0.70296 0.0
C642 C 0.69781 0.58182 0.72819 0.0
H643 H 0.61779 0.51019 0.69519 0.0
H644 H 0.67314 0.55243 0.67307 0.0
C645 C 0.69326 0.5842 0.76667 0.0
C646 C 0.48763 0.10303 0.71119 0.0
C647 C 0.4951 0.10607 0.75051 0.0
H648 H 0.45647 0.10764 0.66591 0.0
C649 C 0.47854 0.11901 0.77444 0.0
H650 H 0.50008 0.09315 0.69221 0.0
C651 C 0.45359 0.12668 0.75965 0.0
C652 C 0.44496 0.1221 0.72054 0.0
H653 H 0.48436 0.12242 0.80486 0.0
H654 H 0.44074 0.13575 0.77895 0.0
C655 C 0.46263 0.11106 0.69626 0.0
C656 C 0.84993 0.33948 0.72378 0.0
C657 C 0.88351 0.37075 0.72683 0.0
H658 H 0.81767 0.28001 0.70842 0.0
C659 C 0.9101 0.36666 0.71268 0.0
H660 H 0.82919 0.34201 0.73508 0.0
C661 C 0.9036 0.33144 0.6972 0.0
C662 C 0.87048 0.29945 0.69628 0.0
H663 H 0.93627 0.39042 0.71521 0.0
H664 H 0.92504 0.32901 0.68795 0.0
C665 C 0.84348 0.30403 0.70879 0.0
C666 C 0.19937 0.99852 0.64191 0.0
C667 C 0.20716 0.97016 0.6324 0.0
H668 H 0.2191 0.05629 0.66229 0.0
C669 C 0.24107 0.97747 0.64086 0.0
H670 H 0.17346 0.99365 0.63543 0.0
C671 C 0.26721 0.01323 0.65642 0.0
C672 C 0.25996 0.04247 0.66334 0.0
H673 H 0.24764 0.95594 0.63391 0.0
H674 H 0.2934 0.01845 0.66091 0.0
C675 C 0.22557 0.03443 0.65705 0.0
C676 C 0.05042 0.25953 0.63876 0.0
C677 C 0.05259 0.2576 0.59954 0.0
H678 H 0.01853 0.25292 0.68336 0.0
C679 C 0.02331 0.24897 0.57493 0.0
H680 H 0.07264 0.26686 0.65855 0.0
C681 C 0.99237 0.24152 0.5893 0.0
C682 C 0.99017 0.24239 0.62847 0.0
H683 H 0.02398 0.2469 0.54459 0.0
H684 H 0.96997 0.23418 0.56976 0.0
C685 C 0.01951 0.25179 0.65303 0.0
C686 C 0.76913 0.7757 0.62049 0.0
C687 C 0.79631 0.81195 0.6161 0.0
H688 H 0.75454 0.7214 0.63878 0.0
C689 C 0.8305 0.82078 0.62604 0.0
H690 H 0.74255 0.76827 0.61313 0.0
C691 C 0.83743 0.79389 0.64009 0.0
C692 C 0.81027 0.75785 0.64534 0.0
H693 H 0.85191 0.84851 0.62277 0.0
H694 H 0.86408 0.80158 0.64747 0.0
C695 C 0.77602 0.74903 0.63539 0.0
C696 C 0.0105 0.7629 0.6028 0.0
C697 C 0.03126 0.80218 0.61044 0.0
H698 H 0.96384 0.71309 0.61242 0.0
C699 C 0.01998 0.82177 0.63392 0.0
H700 H 0.01858 0.74718 0.58475 0.0
C701 C 0.98853 0.8023 0.64953 0.0
C702 C 0.96806 0.76294 0.64226 0.0
H703 H 0.03535 0.8521 0.64019 0.0
H704 H 0.98035 0.818 0.66745 0.0
C705 C 0.97929 0.74343 0.61872 0.0
C706 C 0.21431 0.20448 0.57924 0.0
C707 C 0.19426 0.21283 0.60234 0.0
H708 H 0.25353 0.18954 0.57643 0.0
C709 C 0.198 0.21145 0.64155 0.0
H710 H 0.21184 0.20533 0.54892 0.0
C711 C 0.22182 0.20216 0.65736 0.0
C712 C 0.24227 0.19449 0.63415 0.0
H713 H 0.18277 0.2177 0.65999 0.0
H714 H 0.22455 0.20148 0.68766 0.0
C715 C 0.23818 0.19553 0.59498 0.0
C716 C 0.86163 0.04327 0.6157 0.0
C717 C 0.83695 0.01069 0.63028 0.0
H718 H 0.88561 0.103 0.61597 0.0
C719 C 0.81755 0.01403 0.65827 0.0
H720 H 0.87677 0.04139 0.59397 0.0
C721 C 0.82217 0.04948 0.67058 0.0
C722 C 0.8467 0.0821 0.65558 0.0
H723 H 0.79812 0.98924 0.66975 0.0
H724 H 0.80636 0.05128 0.6915 0.0
C725 C 0.86671 0.07858 0.62844 0.0
C726 C 0.44097 0.32942 0.73439 0.0
C727 C 0.47563 0.33979 0.73234 0.0
H728 H 0.38804 0.2869 0.72023 0.0
C729 C 0.48383 0.31567 0.71177 0.0
H730 H 0.43431 0.34769 0.7505 0.0
C731 C 0.45736 0.28031 0.69533 0.0
C732 C 0.42256 0.26941 0.69838 0.0
H733 H 0.51054 0.32317 0.71038 0.0
H734 H 0.46409 0.26108 0.68132 0.0
C735 C 0.41461 0.29479 0.71696 0.0
C736 C 0.66908 0.12729 0.72759 0.0
C737 C 0.66701 0.11938 0.76551 0.0
H738 H 0.70016 0.14273 0.68122 0.0
C739 C 0.69551 0.12091 0.78589 0.0
H740 H 0.64752 0.12631 0.71109 0.0
C741 C 0.7256 0.13022 0.76869 0.0
C742 C 0.72764 0.13815 0.73082 0.0
H743 H 0.69455 0.11498 0.81516 0.0
H744 H 0.74733 0.13142 0.7851 0.0
C745 C 0.69917 0.13664 0.71042 0.0
C746 C 0.84707 0.55443 0.77777 0.0
C747 C 0.86577 0.54086 0.75861 0.0
H748 H 0.82599 0.59117 0.7781 0.0
C749 C 0.87903 0.55561 0.72491 0.0
H750 H 0.83679 0.54366 0.80393 0.0
C751 C 0.87361 0.58346 0.71061 0.0
C752 C 0.85407 0.59627 0.72925 0.0
H753 H 0.89385 0.5459 0.70978 0.0
H754 H 0.88405 0.59439 0.68458 0.0
C755 C 0.84085 0.5815 0.76296 0.0
C756 C 0.45856 0.97327 0.15267 0.0
C757 C 0.47962 0.98973 0.18679 0.0
H758 H 0.45543 0.97197 0.09307 0.0
C759 C 0.51286 0.02122 0.18652 0.0
H760 H 0.43351 0.94795 0.15191 0.0
C761 C 0.52466 0.03595 0.15242 0.0
C762 C 0.50351 0.01914 0.11821 0.0
H763 H 0.52985 0.03388 0.21251 0.0
H764 H 0.55044 0.06001 0.15271 0.0
C765 C 0.47072 0.98748 0.11884 0.0
C766 C 0.04288 0.48189 0.16521 0.0
C767 C 0.06934 0.51839 0.17987 0.0
H768 H 1.00157 0.4481 0.12149 0.0
C769 C 0.07439 0.54897 0.15967 0.0
H770 H 0.03764 0.45754 0.17981 0.0
C771 C 0.05258 0.54356 0.12734 0.0
C772 C 0.02607 0.5073 0.11337 0.0
H773 H 0.09516 0.57736 0.16873 0.0
H774 H 0.05681 0.56775 0.11291 0.0
C775 C 0.02183 0.4764 0.13201 0.0
C776 C 0.49559 0.52654 0.16073 0.0
C777 C 0.50717 0.56366 0.17635 0.0
H778 H 0.49913 0.4912 0.11627 0.0
C779 C 0.53029 0.59384 0.15724 0.0
H780 H 0.47792 0.50265 0.17475 0.0
C781 C 0.54275 0.58725 0.12449 0.0
C782 C 0.53182 0.55032 0.10942 0.0
H783 H 0.53898 0.62277 0.16768 0.0
H784 H 0.56083 0.61118 0.11077 0.0
C785 C 0.50779 0.51994 0.12741 0.0
C786 C 0.93519 0.42187 0.86727 0.0
C787 C 0.9391 0.45231 0.84766 0.0
H788 H 0.95329 0.4039 0.9142 0.0
C789 C 0.96378 0.48922 0.86306 0.0
H790 H 0.91576 0.39312 0.85711 0.0
C791 C 0.98468 0.49532 0.89655 0.0
C792 C 0.98159 0.46465 0.9148 0.0
H793 H 0.96777 0.51335 0.84872 0.0
H794 H 1.00388 0.5239 0.9076 0.0
C795 C 0.95655 0.42796 0.90011 0.0
C796 C 0.52132 0.46373 0.8675 0.0
C797 C 0.54275 0.49416 0.8474 0.0
H798 H 0.48967 0.44497 0.91294 0.0
C799 C 0.55056 0.5307 0.86118 0.0
H800 H 0.51581 0.43536 0.85923 0.0
C801 C 0.53663 0.53627 0.89358 0.0
C802 C 0.51402 0.50539 0.91208 0.0
H803 H 0.56679 0.55488 0.84667 0.0
H804 H 0.54292 0.56457 0.90369 0.0
C805 C 0.50649 0.46917 0.89871 0.0
C806 C 0.49501 0.05178 0.87495 0.0
C807 C 0.51827 0.04569 0.85493 0.0
H808 H 0.46195 0.03624 0.91908 0.0
C809 C 0.52885 0.02104 0.86824 0.0
H810 H 0.48732 0.07176 0.86699 0.0
C811 C 0.51561 1.00228 0.90015 0.0
C812 C 0.4911 0.00728 0.91845 0.0
H813 H 0.54662 0.01555 0.85365 0.0
H814 H 0.52383 0.98327 0.90997 0.0
C815 C 0.48079 0.03189 0.9054 0.0
C816 C 0.13411 0.33774 0.49468 0.0
C817 C 0.14345 0.31172 0.50714 0.0
H818 H 0.13976 0.37639 0.45369 0.0
C819 C 0.1669 0.306 0.48697 0.0
H820 H 0.11662 0.34369 0.50924 0.0
C821 C 0.18185 0.32681 0.45715 0.0
C822 C 0.172 0.35196 0.44455 0.0
H823 H 0.17382 0.28514 0.49361 0.0
H824 H 0.20046 0.32229 0.4432 0.0
C825 C 0.14772 0.35705 0.46314 0.0
C826 C 0.75051 0.88716 0.49556 0.0
C827 C 0.74341 0.85632 0.51629 0.0
H828 H 0.73528 0.90723 0.44821 0.0
C829 C 0.71601 0.82036 0.50161 0.0
H830 H 0.77217 0.91504 0.50457 0.0
C831 C 0.69579 0.81578 0.46795 0.0
C832 C 0.70195 0.84714 0.44894 0.0
H833 H 0.70942 0.79587 0.51655 0.0
H834 H 0.67461 0.78797 0.45748 0.0
C835 C 0.72958 0.88274 0.46286 0.0
C836 C 0.19627 0.91829 0.49267 0.0
C837 C 0.17446 0.88751 0.51197 0.0
H838 H 0.22548 0.93709 0.44534 0.0
C839 C 0.16334 0.85075 0.49557 0.0
H840 H 0.20446 0.94694 0.50368 0.0
C841 C 0.175 0.84516 0.46141 0.0
C842 C 0.19805 0.8762 0.4434 0.0
H843 H 0.14658 0.82645 0.50966 0.0
H844 H 0.16683 0.81671 0.44967 0.0
C845 C 0.20825 0.91271 0.45911 0.0
C846 C 0.60578 0.76019 0.20423 0.0
C847 C 0.60899 0.79049 0.18487 0.0
H848 H 0.62514 0.74235 0.25011 0.0
C849 C 0.63388 0.82747 0.19991 0.0
H850 H 0.58622 0.7314 0.19441 0.0
C851 C 0.65579 0.83372 0.23269 0.0
C852 C 0.65337 0.80313 0.25066 0.0
H853 H 0.6372 0.85148 0.18578 0.0
H854 H 0.67523 0.86232 0.24335 0.0
C855 C 0.62799 0.76641 0.23634 0.0
C856 C 0.1887 0.79267 0.20051 0.0
C857 C 0.20891 0.82314 0.17982 0.0
H858 H 0.15823 0.77349 0.24685 0.0
C859 C 0.21607 0.85944 0.19359 0.0
H860 H 0.18379 0.76452 0.19224 0.0
C861 C 0.20255 0.86469 0.22648 0.0
C862 C 0.18095 0.83368 0.24545 0.0
H863 H 0.2314 0.88364 0.17866 0.0
H864 H 0.20824 0.89279 0.23653 0.0
C865 C 0.17423 0.79773 0.23222 0.0
C866 C 0.20068 0.36039 0.20691 0.0
C867 C 0.17691 0.3594 0.17855 0.0
H868 H 0.20767 0.3433 0.26063 0.0
C869 C 0.14133 0.3376 0.18268 0.0
H870 H 0.22823 0.37621 0.20488 0.0
C871 C 0.13017 0.32141 0.21608 0.0
C872 C 0.15418 0.32523 0.24551 0.0
H873 H 0.12192 0.33408 0.16072 0.0
H874 H 0.10277 0.30696 0.21928 0.0
C875 C 0.18917 0.34257 0.23958 0.0
C876 C 0.79321 0.66006 0.82593 0.0
C877 C 0.81202 0.64927 0.85025 0.0
H878 H 0.79359 0.68945 0.77796 0.0
C879 C 0.847 0.66243 0.84493 0.0
H880 H 0.76655 0.65152 0.8291 0.0
C881 C 0.86128 0.6816 0.81386 0.0
C882 C 0.84144 0.68942 0.78807 0.0
H883 H 0.86338 0.65716 0.8641 0.0
H884 H 0.88754 0.68912 0.80938 0.0
C885 C 0.8082 0.68081 0.79576 0.0
C886 C 0.41141 0.21774 0.82712 0.0
C887 C 0.40461 0.18751 0.84873 0.0
H888 H 0.3963 0.23628 0.77835 0.0
C889 C 0.37807 0.15105 0.83403 0.0
H890 H 0.43246 0.24601 0.83603 0.0
C891 C 0.3584 0.14538 0.79958 0.0
C892 C 0.36413 0.17613 0.77975 0.0
H893 H 0.37164 0.12694 0.84954 0.0
H894 H 0.33785 0.1172 0.78919 0.0
C895 C 0.39093 0.21223 0.79362 0.0
C896 C 0.83032 0.18574 0.82658 0.0
C897 C 0.83996 0.22212 0.84275 0.0
H898 H 0.83645 0.15278 0.78175 0.0
C899 C 0.8622 0.25339 0.82424 0.0
H900 H 0.81339 0.16111 0.84016 0.0
C901 C 0.87572 0.24864 0.79149 0.0
C902 C 0.86676 0.21247 0.7759 0.0
H903 H 0.86947 0.28177 0.83527 0.0
H904 H 0.893 0.27334 0.77817 0.0
C905 C 0.84365 0.18098 0.79336 0.0
C906 C 0.29764 0.15719 0.52856 0.0
C907 C 0.27342 0.11994 0.51357 0.0
H908 H 0.33809 0.19296 0.57244 0.0
C909 C 0.27064 0.09006 0.53343 0.0
H910 H 0.3007 0.18092 0.51409 0.0
C911 C 0.29267 0.097 0.56593 0.0
C912 C 0.3173 0.13401 0.58017 0.0
H913 H 0.25156 0.06106 0.52373 0.0
H914 H 0.29026 0.07332 0.5801 0.0
C915 C 0.31923 0.16414 0.56177 0.0
C916 C 0.85657 0.12759 0.53289 0.0
C917 C 0.87768 0.15863 0.51339 0.0
H918 H 0.8253 0.10769 0.57864 0.0
C919 C 0.88482 0.19475 0.52775 0.0
H920 H 0.85135 0.09949 0.52375 0.0
C921 C 0.87068 0.19945 0.56025 0.0
C922 C 0.84864 0.16812 0.57848 0.0
H923 H 0.9006 0.21931 0.51348 0.0
H924 H 0.87645 0.22747 0.57073 0.0
C925 C 0.84171 0.13221 0.56457 0.0
C926 C 0.86993 0.70521 0.5489 0.0
C927 C 0.84666 0.69158 0.51605 0.0
H928 H 0.87628 0.70432 0.6083 0.0
C929 C 0.81261 0.66211 0.51791 0.0
H930 H 0.89604 0.72851 0.54867 0.0
C931 C 0.80164 0.64814 0.55238 0.0
C932 C 0.82457 0.66308 0.58549 0.0
H933 H 0.79411 0.6509 0.49297 0.0
H934 H 0.77495 0.62646 0.55333 0.0
C935 C 0.85881 0.69116 0.58321 0.0
loop_
_geom_bond_atom_site_label_1
_geom_bond_atom_site_label_2
_geom_bond_distance
_geom_bond_site_symmetry_2
_ccdc_geom_bond_type
H0 C5 0.930 . S
H1 C8 0.930 . S
H2 C10 0.930 . S
H3 C4 1.016 . S
C4 H3 1.016 . S
C4 N11 1.286 . S
C5 H0 0.930 . S
C5 C6 1.397 . S
C5 C7 1.361 . S
C6 C5 1.397 . S
C6 C10 1.390 . S
C7 C5 1.361 . S
C7 C8 1.393 . S
C7 N11 1.413 . S
C8 H1 0.930 . S
C8 C7 1.393 . S
C8 C9 1.399 . S
C9 C8 1.399 . S
C9 C10 1.381 . S
C10 H2 0.930 . S
C10 C6 1.390 . S
C10 C9 1.381 . S
N11 C4 1.286 . S
N11 C7 1.413 . S
H12 C17 0.930 . S
H13 C20 0.930 . S
H14 C22 0.930 . S
H15 C16 1.016 . S
C16 H15 1.016 . S
C16 N23 1.286 . S
C17 H12 0.930 . S
C17 C18 1.397 . S
C17 C19 1.361 . S
C18 C17 1.397 . S
C18 C22 1.390 . S
C19 C17 1.361 . S
C19 C20 1.393 . S
C19 N23 1.413 . S
C20 H13 0.930 . S
C20 C19 1.393 . S
C20 C21 1.399 . S
C21 C20 1.399 . S
C21 C22 1.381 . S
C22 H14 0.930 . S
C22 C18 1.390 . S
C22 C21 1.381 . S
N23 C16 1.286 . S
N23 C19 1.413 . S
H24 C29 0.930 . S
H25 C32 0.930 . S
H26 C34 0.930 . S
H27 C28 1.016 . S
C28 H27 1.016 . S
C28 N35 1.286 . S
C29 H24 0.930 . S
C29 C30 1.397 . S
C29 C31 1.361 . S
C30 C29 1.397 . S
C30 C34 1.390 . S
C31 C29 1.361 . S
C31 C32 1.393 . S
C31 N35 1.413 . S
C32 H25 0.930 . S
C32 C31 1.393 . S
C32 C33 1.399 . S
C33 C32 1.399 . S
C33 C34 1.381 . S
C34 H26 0.930 . S
C34 C30 1.390 . S
C34 C33 1.381 . S
N35 C28 1.286 . S
N35 C31 1.413 . S
H36 C41 0.930 . S
H37 C44 0.930 . S
H38 C46 0.930 . S
H39 C40 1.016 . S
C40 H39 1.016 . S
C40 N47 1.286 . S
C41 H36 0.930 . S
C41 C42 1.397 . S
C41 C43 1.361 . S
C42 C41 1.397 . S
C42 C46 1.390 . S
C43 C41 1.361 . S
C43 C44 1.393 . S
C43 N47 1.413 . S
C44 H37 0.930 . S
C44 C43 1.393 . S
C44 C45 1.399 . S
C45 C44 1.399 . S
C45 C46 1.381 . S
C46 H38 0.930 . S
C46 C42 1.390 . S
C46 C45 1.381 . S
N47 C40 1.286 . S
N47 C43 1.413 . S
H48 C53 0.930 . S
H49 C56 0.930 . S
H50 C58 0.930 . S
H51 C52 1.016 . S
C52 H51 1.016 . S
C52 N59 1.286 . S
C53 H48 0.930 . S
C53 C54 1.397 . S
C53 C55 1.361 . S
C54 C53 1.397 . S
C54 C58 1.390 . S
C55 C53 1.361 . S
C55 C56 1.393 . S
C55 N59 1.413 . S
C56 H49 0.930 . S
C56 C55 1.393 . S
C56 C57 1.399 . S
C57 C56 1.399 . S
C57 C58 1.381 . S
C58 H50 0.930 . S
C58 C54 1.390 . S
C58 C57 1.381 . S
N59 C52 1.286 . S
N59 C55 1.413 . S
H60 C65 0.930 . S
H61 C68 0.930 . S
H62 C70 0.930 . S
H63 C64 1.016 . S
C64 H63 1.016 . S
C64 N71 1.286 . S
C65 H60 0.930 . S
C65 C66 1.397 . S
C65 C67 1.361 . S
C66 C65 1.397 . S
C66 C70 1.390 . S
C67 C65 1.361 . S
C67 C68 1.393 . S
C67 N71 1.413 . S
C68 H61 0.930 . S
C68 C67 1.393 . S
C68 C69 1.399 . S
C69 C68 1.399 . S
C69 C70 1.381 . S
C70 H62 0.930 . S
C70 C66 1.390 . S
C70 C69 1.381 . S
N71 C64 1.286 . S
N71 C67 1.413 . S
H72 C77 0.930 . S
H73 C80 0.930 . S
H74 C82 0.930 . S
H75 C76 1.016 . S
C76 H75 1.016 . S
C76 N83 1.286 . S
C77 H72 0.930 . S
C77 C78 1.397 . S
C77 C79 1.361 . S
C78 C77 1.397 . S
C78 C82 1.390 . S
C79 C77 1.361 . S
C79 C80 1.393 . S
C79 N83 1.413 . S
C80 H73 0.930 . S
C80 C79 1.393 . S
C80 C81 1.399 . S
C81 C80 1.399 . S
C81 C82 1.381 . S
C82 H74 0.930 . S
C82 C78 1.390 . S
C82 C81 1.381 . S
N83 C76 1.286 . S
N83 C79 1.413 . S
H84 C89 0.930 . S
H85 C92 0.930 . S
H86 C94 0.930 . S
H87 C88 1.016 . S
C88 H87 1.016 . S
C88 N95 1.286 . S
C89 H84 0.930 . S
C89 C90 1.397 . S
C89 C91 1.361 . S
C90 C89 1.397 . S
C90 C94 1.390 . S
C91 C89 1.361 . S
C91 C92 1.393 . S
C91 N95 1.413 . S
C92 H85 0.930 . S
C92 C91 1.393 . S
C92 C93 1.399 . S
C93 C92 1.399 . S
C93 C94 1.381 . S
C94 H86 0.930 . S
C94 C90 1.390 . S
C94 C93 1.381 . S
N95 C88 1.286 . S
N95 C91 1.413 . S
H96 C101 0.930 . S
H97 C104 0.930 . S
H98 C106 0.930 . S
H99 C100 1.016 . S
C100 H99 1.016 . S
C100 N107 1.286 . S
C101 H96 0.930 . S
C101 C102 1.397 . S
C101 C103 1.361 . S
C102 C101 1.397 . S
C102 C106 1.390 . S
C103 C101 1.361 . S
C103 C104 1.393 . S
C103 N107 1.413 . S
C104 H97 0.930 . S
C104 C103 1.393 . S
C104 C105 1.399 . S
C105 C104 1.399 . S
C105 C106 1.381 . S
C106 H98 0.930 . S
C106 C102 1.390 . S
C106 C105 1.381 . S
N107 C100 1.286 . S
N107 C103 1.413 . S
H108 C113 0.930 . S
H109 C116 0.930 . S
H110 C118 0.930 . S
H111 C112 1.016 . S
C112 H111 1.016 . S
C112 N119 1.286 . S
C113 H108 0.930 . S
C113 C114 1.397 . S
C113 C115 1.361 . S
C114 C113 1.397 . S
C114 C118 1.390 . S
C115 C113 1.361 . S
C115 C116 1.393 . S
C115 N119 1.413 . S
C116 H109 0.930 . S
C116 C115 1.393 . S
C116 C117 1.399 . S
C117 C116 1.399 . S
C117 C118 1.381 . S
C118 H110 0.930 . S
C118 C114 1.390 . S
C118 C117 1.381 . S
N119 C112 1.286 . S
N119 C115 1.413 . S
H120 C125 0.930 1_554 S
H121 C128 0.930 . S
H122 C130 0.930 . S
H123 C124 1.016 . S
C124 H123 1.016 . S
C124 N131 1.286 . S
C125 H120 0.930 1_556 S
C125 C126 1.397 . S
C125 C127 1.361 . S
C126 C125 1.397 . S
C126 C130 1.390 . S
C127 C125 1.361 . S
C127 C128 1.393 . S
C127 N131 1.413 . S
C128 H121 0.930 . S
C128 C127 1.393 . S
C128 C129 1.399 . S
C129 C128 1.399 . S
C129 C130 1.381 . S
C130 H122 0.930 . S
C130 C126 1.390 . S
C130 C129 1.381 . S
N131 C124 1.286 . S
N131 C127 1.413 . S
H132 C137 0.930 . S
H133 C140 0.930 . S
H134 C142 0.930 . S
H135 C136 1.016 . S
C136 H135 1.016 . S
C136 N143 1.286 . S
C137 H132 0.930 . S
C137 C138 1.397 . S
C137 C139 1.361 . S
C138 C137 1.397 . S
C138 C142 1.390 . S
C139 C137 1.361 . S
C139 C140 1.393 . S
C139 N143 1.413 . S
C140 H133 0.930 . S
C140 C139 1.393 . S
C140 C141 1.399 . S
C141 C140 1.399 . S
C141 C142 1.381 . S
C142 H134 0.930 . S
C142 C138 1.390 . S
C142 C141 1.381 . S
N143 C136 1.286 . S
N143 C139 1.413 . S
H144 C149 0.930 . S
H145 C152 0.930 . S
H146 C154 0.930 . S
H147 C148 1.016 . S
C148 H147 1.016 . S
C148 N155 1.286 . S
C149 H144 0.930 . S
C149 C150 1.397 . S
C149 C151 1.361 . S
C150 C149 1.397 . S
C150 C154 1.390 . S
C151 C149 1.361 . S
C151 C152 1.393 . S
C151 N155 1.413 . S
C152 H145 0.930 . S
C152 C151 1.393 . S
C152 C153 1.399 . S
C153 C152 1.399 . S
C153 C154 1.381 . S
C154 H146 0.930 . S
C154 C150 1.390 . S
C154 C153 1.381 . S
N155 C148 1.286 . S
N155 C151 1.413 . S
H156 C161 0.930 . S
H157 C164 0.930 . S
H158 C166 0.930 . S
H159 C160 1.016 . S
C160 H159 1.016 . S
C160 N167 1.286 . S
C161 H156 0.930 . S
C161 C162 1.397 . S
C161 C163 1.361 . S
C162 C161 1.397 . S
C162 C166 1.390 . S
C163 C161 1.361 . S
C163 C164 1.393 . S
C163 N167 1.413 . S
C164 H157 0.930 . S
C164 C163 1.393 . S
C164 C165 1.399 . S
C165 C164 1.399 . S
C165 C166 1.381 . S
C166 H158 0.930 . S
C166 C162 1.390 . S
C166 C165 1.381 . S
N167 C160 1.286 . S
N167 C163 1.413 . S
H168 C173 0.930 . S
H169 C176 0.930 . S
H170 C178 0.930 . S
H171 C172 1.016 . S
C172 H171 1.016 . S
C172 N179 1.286 . S
C173 H168 0.930 . S
C173 C174 1.397 . S
C173 C175 1.361 . S
C174 C173 1.397 . S
C174 C178 1.390 . S
C175 C173 1.361 . S
C175 C176 1.393 . S
C175 N179 1.413 . S
C176 H169 0.930 . S
C176 C175 1.393 . S
C176 C177 1.399 . S
C177 C176 1.399 . S
C177 C178 1.381 . S
C178 H170 0.930 . S
C178 C174 1.390 . S
C178 C177 1.381 . S
N179 C172 1.286 . S
N179 C175 1.413 . S
H180 C185 0.930 . S
H181 C188 0.930 . S
H182 C190 0.930 . S
H183 C184 1.016 . S
C184 H183 1.016 . S
C184 N191 1.286 . S
C185 H180 0.930 . S
C185 C186 1.397 . S
C185 C187 1.361 . S
C186 C185 1.397 . S
C186 C190 1.390 . S
C187 C185 1.361 . S
C187 C188 1.393 . S
C187 N191 1.413 . S
C188 H181 0.930 . S
C188 C187 1.393 . S
C188 C189 1.399 . S
C189 C188 1.399 . S
C189 C190 1.381 . S
C190 H182 0.930 . S
C190 C186 1.390 . S
C190 C189 1.381 . S
N191 C184 1.286 . S
N191 C187 1.413 . S
H192 C197 0.930 . S
H193 C200 0.930 . S
H194 C202 0.930 . S
H195 C196 1.016 . S
C196 H195 1.016 . S
C196 N203 1.286 . S
C197 H192 0.930 . S
C197 C198 1.397 . S
C197 C199 1.361 . S
C198 C197 1.397 . S
C198 C202 1.390 . S
C199 C197 1.361 . S
C199 C200 1.393 . S
C199 N203 1.413 . S
C200 H193 0.930 . S
C200 C199 1.393 . S
C200 C201 1.399 . S
C201 C200 1.399 . S
C201 C202 1.381 . S
C202 H194 0.930 . S
C202 C198 1.390 . S
C202 C201 1.381 . S
N203 C196 1.286 . S
N203 C199 1.413 . S
H204 C209 0.930 . S
H205 C212 0.930 . S
H206 C214 0.930 . S
H207 C208 1.016 . S
C208 H207 1.016 . S
C208 N215 1.286 . S
C209 H204 0.930 . S
C209 C210 1.397 . S
C209 C211 1.361 . S
C210 C209 1.397 . S
C210 C214 1.390 . S
C211 C209 1.361 . S
C211 C212 1.393 . S
C211 N215 1.413 . S
C212 H205 0.930 . S
C212 C211 1.393 . S
C212 C213 1.399 . S
C213 C212 1.399 . S
C213 C214 1.381 . S
C214 H206 0.930 . S
C214 C210 1.390 . S
C214 C213 1.381 . S
N215 C208 1.286 . S
N215 C211 1.413 . S
Tb216 O219 2.453 . S
Tb216 O220 2.596 1_545 S
Tb216 O221 2.374 1_545 S
Tb216 O229 2.343 1_554 S
Tb216 O231 2.353 . S
Tb216 O233 2.427 . S
Tb216 O234 2.513 1_554 S
C217 O221 1.251 . S
C217 O223 1.263 1_554 S
Tb218 O220 2.343 1_556 S
Tb218 O223 2.353 . S
Tb218 O226 2.427 1_556 S
Tb218 O227 2.513 1_556 S
Tb218 O228 2.453 . S
Tb218 O229 2.596 1_565 S
Tb218 O230 2.374 1_565 S
O219 Tb216 2.453 . S
O219 C235 1.245 1_545 S
O220 Tb216 2.596 1_565 S
O220 Tb218 2.343 1_554 S
O220 C235 1.259 . S
O221 Tb216 2.374 1_565 S
O221 C217 1.251 . S
C222 O226 1.275 . S
C222 O227 1.246 . S
O223 C217 1.263 1_556 S
O223 Tb218 2.353 . S
C224 O228 1.245 1_545 S
C224 O229 1.259 . S
C225 O230 1.250 1_554 S
C225 O231 1.263 . S
O226 Tb218 2.427 1_554 S
O226 C222 1.275 . S
O227 Tb218 2.513 1_554 S
O227 C222 1.246 . S
O228 Tb218 2.453 . S
O228 C224 1.245 1_565 S
O229 Tb216 2.343 1_556 S
O229 Tb218 2.596 1_545 S
O229 C224 1.259 . S
O230 Tb218 2.374 1_545 S
O230 C225 1.250 1_556 S
O231 Tb216 2.353 . S
O231 C225 1.263 . S
C232 O233 1.275 1_556 S
C232 O234 1.246 . S
O233 Tb216 2.427 . S
O233 C232 1.275 1_554 S
O234 Tb216 2.513 1_556 S
O234 C232 1.246 . S
C235 O219 1.245 1_565 S
C235 O220 1.259 . S
Tb236 O239 2.453 . S
Tb236 O240 2.596 1_655 S
Tb236 O241 2.374 1_655 S
Tb236 O249 2.343 1_554 S
Tb236 O251 2.353 . S
Tb236 O253 2.427 1_554 S
Tb236 O254 2.513 1_554 S
C237 O241 1.251 . S
C237 O243 1.263 . S
Tb238 O240 2.343 1_556 S
Tb238 O243 2.353 1_556 S
Tb238 O246 2.427 1_556 S
Tb238 O247 2.513 1_556 S
Tb238 O248 2.453 . S
Tb238 O249 2.596 1_455 S
Tb238 O250 2.374 1_455 S
O239 Tb236 2.453 . S
O239 C255 1.245 1_655 S
O240 Tb236 2.596 1_455 S
O240 Tb238 2.343 1_554 S
O240 C255 1.259 . S
O241 Tb236 2.374 1_455 S
O241 C237 1.251 . S
C242 O246 1.275 . S
C242 O247 1.246 . S
O243 C237 1.263 . S
O243 Tb238 2.353 1_554 S
C244 O248 1.245 1_655 S
C244 O249 1.259 . S
C245 O250 1.251 1_554 S
C245 O251 1.262 . S
O246 Tb238 2.427 1_554 S
O246 C242 1.275 . S
O247 Tb238 2.513 1_554 S
O247 C242 1.246 . S
O248 Tb238 2.453 . S
O248 C244 1.245 1_455 S
O249 Tb236 2.343 1_556 S
O249 Tb238 2.596 1_655 S
O249 C244 1.259 . S
O250 Tb238 2.374 1_655 S
O250 C245 1.251 1_556 S
O251 Tb236 2.353 . S
O251 C245 1.262 . S
C252 O253 1.275 . S
C252 O254 1.246 . S
O253 Tb236 2.427 1_556 S
O253 C252 1.275 . S
O254 Tb236 2.513 1_556 S
O254 C252 1.246 . S
C255 O239 1.245 1_455 S
C255 O240 1.259 . S
Tb256 O259 2.453 . S
Tb256 O260 2.596 . S
Tb256 O261 2.379 . S
Tb256 O269 2.343 1_556 S
Tb256 O271 2.353 1_556 S
Tb256 O273 2.427 1_556 S
Tb256 O274 2.513 1_556 S
C257 O261 1.245 1_554 S
C257 O263 1.263 . S
Tb258 O260 2.343 1_554 S
Tb258 O263 2.353 . S
Tb258 O266 2.427 . S
Tb258 O267 2.513 1_554 S
Tb258 O268 2.453 . S
Tb258 O269 2.596 . S
Tb258 O270 2.374 . S
O259 Tb256 2.453 . S
O259 C275 1.245 . S
O260 Tb256 2.596 . S
O260 Tb258 2.343 1_556 S
O260 C275 1.259 . S
O261 Tb256 2.379 . S
O261 C257 1.245 1_556 S
C262 O266 1.275 1_556 S
C262 O267 1.246 . S
O263 C257 1.263 . S
O263 Tb258 2.353 . S
C264 O268 1.245 . S
C264 O269 1.259 . S
C265 O270 1.250 . S
C265 O271 1.263 . S
O266 Tb258 2.427 . S
O266 C262 1.275 1_554 S
O267 Tb258 2.513 1_556 S
O267 C262 1.246 . S
O268 Tb258 2.453 . S
O268 C264 1.245 . S
O269 Tb256 2.343 1_554 S
O269 Tb258 2.596 . S
O269 C264 1.259 . S
O270 Tb258 2.374 . S
O270 C265 1.250 . S
O271 Tb256 2.353 1_554 S
O271 C265 1.263 . S
C272 O273 1.275 . S
C272 O274 1.246 . S
O273 Tb256 2.427 1_554 S
O273 C272 1.275 . S
O274 Tb256 2.513 1_554 S
O274 C272 1.246 . S
C275 O259 1.245 . S
C275 O260 1.259 . S
Tb276 O279 2.453 . S
Tb276 O280 2.596 . S
Tb276 O281 2.374 . S
Tb276 O289 2.343 . S
Tb276 O291 2.353 . S
Tb276 O293 2.427 . S
Tb276 O294 2.513 . S
C277 O281 1.251 . S
C277 O283 1.263 . S
Tb278 O280 2.343 . S
Tb278 O283 2.353 . S
Tb278 O286 2.427 . S
Tb278 O287 2.513 . S
Tb278 O288 2.453 . S
Tb278 O289 2.596 . S
Tb278 O290 2.374 . S
O279 Tb276 2.453 . S
O279 C295 1.245 . S
O280 Tb276 2.596 . S
O280 Tb278 2.343 . S
O280 C295 1.259 . S
O281 Tb276 2.374 . S
O281 C277 1.251 . S
C282 O286 1.275 . S
C282 O287 1.246 . S
O283 C277 1.263 . S
O283 Tb278 2.353 . S
C284 O288 1.245 . S
C284 O289 1.259 . S
C285 O290 1.250 . S
C285 O291 1.263 . S
O286 Tb278 2.427 . S
O286 C282 1.275 . S
O287 Tb278 2.513 . S
O287 C282 1.246 . S
O288 Tb278 2.453 . S
O288 C284 1.245 . S
O289 Tb276 2.343 . S
O289 Tb278 2.596 . S
O289 C284 1.259 . S
O290 Tb278 2.374 . S
O290 C285 1.250 . S
O291 Tb276 2.353 . S
O291 C285 1.263 . S
C292 O293 1.275 . S
C292 O294 1.246 . S
O293 Tb276 2.427 . S
O293 C292 1.275 . S
O294 Tb276 2.513 . S
O294 C292 1.246 . S
C295 O279 1.245 . S
C295 O280 1.259 . S
Tb296 O299 2.453 . S
Tb296 O300 2.596 . S
Tb296 O301 2.374 . S
Tb296 O309 2.343 . S
Tb296 O311 2.353 . S
Tb296 O313 2.427 . S
Tb296 O314 2.513 . S
C297 O301 1.251 . S
C297 O303 1.263 . S
Tb298 O300 2.343 . S
Tb298 O303 2.353 . S
Tb298 O306 2.427 . S
Tb298 O307 2.513 . S
Tb298 O308 2.453 . S
Tb298 O309 2.596 . S
Tb298 O310 2.374 . S
O299 Tb296 2.453 . S
O299 C315 1.245 . S
O300 Tb296 2.596 . S
O300 Tb298 2.343 . S
O300 C315 1.259 . S
O301 Tb296 2.374 . S
O301 C297 1.251 . S
C302 O306 1.275 . S
C302 O307 1.246 . S
O303 C297 1.263 . S
O303 Tb298 2.353 . S
C304 O308 1.245 . S
C304 O309 1.259 . S
C305 O310 1.250 . S
C305 O311 1.263 . S
O306 Tb298 2.427 . S
O306 C302 1.275 . S
O307 Tb298 2.513 . S
O307 C302 1.246 . S
O308 Tb298 2.453 . S
O308 C304 1.245 . S
O309 Tb296 2.343 . S
O309 Tb298 2.596 . S
O309 C304 1.259 . S
O310 Tb298 2.374 . S
O310 C305 1.250 . S
O311 Tb296 2.353 . S
O311 C305 1.263 . S
C312 O313 1.275 . S
C312 O314 1.246 . S
O313 Tb296 2.427 . S
O313 C312 1.275 . S
O314 Tb296 2.513 . S
O314 C312 1.246 . S
C315 O299 1.245 . S
C315 O300 1.259 . S
Tb316 O319 2.453 . S
Tb316 O320 2.596 . S
Tb316 O321 2.374 . S
Tb316 O329 2.343 . S
Tb316 O331 2.353 . S
Tb316 O333 2.427 . S
Tb316 O334 2.513 . S
C317 O321 1.251 . S
C317 O323 1.263 . S
Tb318 O320 2.343 . S
Tb318 O323 2.353 . S
Tb318 O326 2.427 . S
Tb318 O327 2.513 . S
Tb318 O328 2.453 . S
Tb318 O329 2.596 . S
Tb318 O330 2.374 . S
O319 Tb316 2.453 . S
O319 C335 1.245 . S
O320 Tb316 2.596 . S
O320 Tb318 2.343 . S
O320 C335 1.259 . S
O321 Tb316 2.374 . S
O321 C317 1.251 . S
C322 O326 1.275 . S
C322 O327 1.246 . S
O323 C317 1.263 . S
O323 Tb318 2.353 . S
C324 O328 1.245 . S
C324 O329 1.259 . S
C325 O330 1.250 . S
C325 O331 1.263 . S
O326 Tb318 2.427 . S
O326 C322 1.275 . S
O327 Tb318 2.513 . S
O327 C322 1.246 . S
O328 Tb318 2.453 . S
O328 C324 1.245 . S
O329 Tb316 2.343 . S
O329 Tb318 2.596 . S
O329 C324 1.259 . S
O330 Tb318 2.374 . S
O330 C325 1.250 . S
O331 Tb316 2.353 . S
O331 C325 1.263 . S
C332 O333 1.275 . S
C332 O334 1.246 . S
O333 Tb316 2.427 . S
O333 C332 1.275 . S
O334 Tb316 2.513 . S
O334 C332 1.246 . S
C335 O319 1.245 . S
C335 O320 1.259 . S
Tb336 O339 2.453 . S
Tb336 O340 2.596 . S
Tb336 O341 2.374 . S
Tb336 O349 2.343 . S
Tb336 O351 2.353 . S
Tb336 O353 2.427 . S
Tb336 O354 2.513 . S
C337 O341 1.251 . S
C337 O343 1.263 . S
Tb338 O340 2.343 . S
Tb338 O343 2.353 . S
Tb338 O346 2.427 . S
Tb338 O347 2.513 . S
Tb338 O348 2.453 . S
Tb338 O349 2.596 . S
Tb338 O350 2.374 . S
O339 Tb336 2.453 . S
O339 C355 1.245 . S
O340 Tb336 2.596 . S
O340 Tb338 2.343 . S
O340 C355 1.259 . S
O341 Tb336 2.374 . S
O341 C337 1.251 . S
C342 O346 1.275 . S
C342 O347 1.246 . S
O343 C337 1.263 . S
O343 Tb338 2.353 . S
C344 O348 1.245 . S
C344 O349 1.259 . S
C345 O350 1.250 . S
C345 O351 1.263 . S
O346 Tb338 2.427 . S
O346 C342 1.275 . S
O347 Tb338 2.513 . S
O347 C342 1.246 . S
O348 Tb338 2.453 . S
O348 C344 1.245 . S
O349 Tb336 2.343 . S
O349 Tb338 2.596 . S
O349 C344 1.259 . S
O350 Tb338 2.374 . S
O350 C345 1.250 . S
O351 Tb336 2.353 . S
O351 C345 1.263 . S
C352 O353 1.275 . S
C352 O354 1.246 . S
O353 Tb336 2.427 . S
O353 C352 1.275 . S
O354 Tb336 2.513 . S
O354 C352 1.246 . S
C355 O339 1.245 . S
C355 O340 1.259 . S
Tb356 O359 2.453 . S
Tb356 O360 2.596 . S
Tb356 O361 2.374 . S
Tb356 O369 2.343 . S
Tb356 O371 2.353 . S
Tb356 O373 2.427 . S
Tb356 O374 2.513 . S
C357 O361 1.251 . S
C357 O363 1.263 . S
Tb358 O360 2.343 . S
Tb358 O363 2.353 . S
Tb358 O366 2.427 . S
Tb358 O367 2.513 . S
Tb358 O368 2.453 . S
Tb358 O369 2.596 . S
Tb358 O370 2.374 . S
O359 Tb356 2.453 . S
O359 C375 1.245 . S
O360 Tb356 2.596 . S
O360 Tb358 2.343 . S
O360 C375 1.259 . S
O361 Tb356 2.374 . S
O361 C357 1.251 . S
C362 O366 1.275 . S
C362 O367 1.246 . S
O363 C357 1.263 . S
O363 Tb358 2.353 . S
C364 O368 1.245 . S
C364 O369 1.259 . S
C365 O370 1.250 . S
C365 O371 1.263 . S
O366 Tb358 2.427 . S
O366 C362 1.275 . S
O367 Tb358 2.513 . S
O367 C362 1.246 . S
O368 Tb358 2.453 . S
O368 C364 1.245 . S
O369 Tb356 2.343 . S
O369 Tb358 2.596 . S
O369 C364 1.259 . S
O370 Tb358 2.374 . S
O370 C365 1.250 . S
O371 Tb356 2.353 . S
O371 C365 1.263 . S
C372 O373 1.275 . S
C372 O374 1.246 . S
O373 Tb356 2.427 . S
O373 C372 1.275 . S
O374 Tb356 2.513 . S
O374 C372 1.246 . S
C375 O359 1.245 . S
C375 O360 1.259 . S
Tb376 O379 2.453 . S
Tb376 O380 2.596 . S
Tb376 O381 2.374 . S
Tb376 O389 2.343 . S
Tb376 O391 2.353 . S
Tb376 O393 2.427 . S
Tb376 O394 2.513 . S
C377 O381 1.251 . S
C377 O383 1.263 . S
Tb378 O380 2.343 . S
Tb378 O383 2.353 . S
Tb378 O386 2.427 . S
Tb378 O387 2.513 . S
Tb378 O388 2.453 . S
Tb378 O389 2.596 . S
Tb378 O390 2.374 . S
O379 Tb376 2.453 . S
O379 C395 1.245 . S
O380 Tb376 2.596 . S
O380 Tb378 2.343 . S
O380 C395 1.259 . S
O381 Tb376 2.374 . S
O381 C377 1.251 . S
C382 O386 1.275 . S
C382 O387 1.246 . S
O383 C377 1.263 . S
O383 Tb378 2.353 . S
C384 O388 1.245 . S
C384 O389 1.259 . S
C385 O390 1.250 . S
C385 O391 1.263 . S
O386 Tb378 2.427 . S
O386 C382 1.275 . S
O387 Tb378 2.513 . S
O387 C382 1.246 . S
O388 Tb378 2.453 . S
O388 C384 1.245 . S
O389 Tb376 2.343 . S
O389 Tb378 2.596 . S
O389 C384 1.259 . S
O390 Tb378 2.374 . S
O390 C385 1.250 . S
O391 Tb376 2.353 . S
O391 C385 1.263 . S
C392 O393 1.275 . S
C392 O394 1.246 . S
O393 Tb376 2.427 . S
O393 C392 1.275 . S
O394 Tb376 2.513 . S
O394 C392 1.246 . S
C395 O379 1.245 . S
C395 O380 1.259 . S
C396 C397 1.387 . S
C396 H400 0.950 . S
C396 C405 1.390 . S
C397 C396 1.387 . S
C397 C399 1.387 . S
H398 C405 0.950 1_556 S
C399 C397 1.387 . S
C399 C401 1.390 . S
C399 H403 0.950 . S
H400 C396 0.950 . S
C401 C399 1.390 . S
C401 C402 1.387 . S
C401 H404 0.950 . S
C402 C401 1.387 . S
C402 C405 1.387 . S
H403 C399 0.950 . S
H404 C401 0.950 . S
C405 C396 1.390 . S
C405 H398 0.950 1_554 S
C405 C402 1.387 . S
C406 C407 1.387 . S
C406 H410 0.950 . S
C406 C415 1.390 . S
C407 C406 1.387 . S
C407 C409 1.387 . S
H408 C415 0.950 . S
C409 C407 1.387 . S
C409 C411 1.390 . S
C409 H413 0.950 . S
H410 C406 0.950 . S
C411 C409 1.390 . S
C411 C412 1.387 . S
C411 H414 0.950 . S
C412 C411 1.387 . S
C412 C415 1.387 . S
H413 C409 0.950 . S
H414 C411 0.950 . S
C415 C406 1.390 . S
C415 H408 0.950 . S
C415 C412 1.387 . S
C416 C417 1.387 . S
C416 H420 0.950 . S
C416 C425 1.390 . S
C417 C416 1.387 . S
C417 C419 1.387 . S
H418 C425 0.950 1_556 S
C419 C417 1.387 . S
C419 C421 1.390 . S
C419 H423 0.950 . S
H420 C416 0.950 . S
C421 C419 1.390 . S
C421 C422 1.387 . S
C421 H424 0.950 . S
C422 C421 1.387 . S
C422 C425 1.387 . S
H423 C419 0.950 . S
H424 C421 0.950 . S
C425 C416 1.390 . S
C425 H418 0.950 1_554 S
C425 C422 1.387 . S
C426 C427 1.387 . S
C426 H430 0.950 . S
C426 C435 1.390 . S
C427 C426 1.387 . S
C427 C429 1.387 1_556 S
H428 C435 0.950 . S
C429 C427 1.387 1_554 S
C429 C431 1.390 . S
C429 H433 0.950 . S
H430 C426 0.950 . S
C431 C429 1.390 . S
C431 C432 1.387 1_554 S
C431 H434 0.950 . S
C432 C431 1.387 1_556 S
C432 C435 1.387 . S
H433 C429 0.950 . S
H434 C431 0.950 . S
C435 C426 1.390 . S
C435 H428 0.950 . S
C435 C432 1.387 . S
C436 C437 1.387 . S
C436 H440 0.950 . S
C436 C445 1.390 . S
C437 C436 1.387 . S
C437 C439 1.387 . S
H438 C445 0.950 . S
C439 C437 1.387 . S
C439 C441 1.390 . S
C439 H443 0.950 . S
H440 C436 0.950 . S
C441 C439 1.390 . S
C441 C442 1.387 . S
C441 H444 0.950 1_556 S
C442 C441 1.387 . S
C442 C445 1.387 . S
H443 C439 0.950 . S
H444 C441 0.950 1_554 S
C445 C436 1.390 . S
C445 H438 0.950 . S
C445 C442 1.387 . S
C446 C447 1.387 1_554 S
C446 H450 0.950 . S
C446 C455 1.390 . S
C447 C446 1.387 1_556 S
C447 C449 1.387 . S
H448 C455 0.950 . S
C449 C447 1.387 . S
C449 C451 1.390 . S
C449 H453 0.950 . S
H450 C446 0.950 . S
C451 C449 1.390 . S
C451 C452 1.387 . S
C451 H454 0.950 . S
C452 C451 1.387 . S
C452 C455 1.387 1_556 S
H453 C449 0.950 . S
H454 C451 0.950 . S
C455 C446 1.390 . S
C455 H448 0.950 . S
C455 C452 1.387 1_554 S
C456 C457 1.387 . S
C456 H460 0.950 . S
C456 C465 1.390 . S
C457 C456 1.387 . S
C457 C459 1.387 1_556 S
H458 C465 0.950 . S
C459 C457 1.387 1_554 S
C459 C461 1.390 . S
C459 H463 0.950 . S
H460 C456 0.950 . S
C461 C459 1.390 . S
C461 C462 1.387 1_554 S
C461 H464 0.950 . S
C462 C461 1.387 1_556 S
C462 C465 1.387 . S
H463 C459 0.950 . S
H464 C461 0.950 . S
C465 C456 1.390 . S
C465 H458 0.950 . S
C465 C462 1.387 . S
C466 C467 1.387 . S
C466 H470 0.950 1_556 S
C466 C475 1.390 . S
C467 C466 1.387 . S
C467 C469 1.387 . S
H468 C475 0.950 1_554 S
C469 C467 1.387 . S
C469 C471 1.390 . S
C469 H473 0.950 . S
H470 C466 0.950 1_554 S
C471 C469 1.390 . S
C471 C472 1.387 . S
C471 H474 0.950 . S
C472 C471 1.387 . S
C472 C475 1.387 . S
H473 C469 0.950 . S
H474 C471 0.950 . S
C475 C466 1.390 . S
C475 H468 0.950 1_556 S
C475 C472 1.387 . S
C476 C477 1.387 . S
C476 H480 0.950 . S
C476 C485 1.390 . S
C477 C476 1.387 . S
C477 C479 1.387 1_556 S
H478 C485 0.950 . S
C479 C477 1.387 1_554 S
C479 C481 1.390 . S
C479 H483 0.950 . S
H480 C476 0.950 . S
C481 C479 1.390 . S
C481 C482 1.387 1_554 S
C481 H484 0.950 . S
C482 C481 1.387 1_556 S
C482 C485 1.387 . S
H483 C479 0.950 . S
H484 C481 0.950 . S
C485 C476 1.390 . S
C485 H478 0.950 . S
C485 C482 1.387 . S
C486 C487 1.387 . S
C486 H490 0.950 1_554 S
C486 C495 1.390 . S
C487 C486 1.387 . S
C487 C489 1.387 . S
H488 C495 0.950 1_556 S
C489 C487 1.387 . S
C489 C491 1.390 . S
C489 H493 0.950 . S
H490 C486 0.950 1_556 S
C491 C489 1.390 . S
C491 C492 1.387 . S
C491 H494 0.950 . S
C492 C491 1.387 . S
C492 C495 1.387 . S
H493 C489 0.950 . S
H494 C491 0.950 . S
C495 C486 1.390 . S
C495 H488 0.950 1_554 S
C495 C492 1.387 . S
C496 C497 1.387 . S
C496 H500 0.950 . S
C496 C505 1.390 . S
C497 C496 1.387 . S
C497 C499 1.387 . S
H498 C505 0.950 . S
C499 C497 1.387 . S
C499 C501 1.390 . S
C499 H503 0.950 . S
H500 C496 0.950 . S
C501 C499 1.390 . S
C501 C502 1.387 . S
C501 H504 0.950 . S
C502 C501 1.387 . S
C502 C505 1.387 . S
H503 C499 0.950 . S
H504 C501 0.950 . S
C505 C496 1.390 . S
C505 H498 0.950 . S
C505 C502 1.387 . S
C506 C507 1.387 . S
C506 H510 0.950 1_554 S
C506 C515 1.388 1_554 S
C507 C506 1.387 . S
C507 C509 1.387 . S
H508 C515 0.960 . S
C509 C507 1.387 . S
C509 C511 1.390 . S
C509 H513 0.950 . S
H510 C506 0.950 1_556 S
C511 C509 1.390 . S
C511 C512 1.387 . S
C511 H514 0.950 . S
C512 C511 1.387 . S
C512 C515 1.379 1_554 S
H513 C509 0.950 . S
H514 C511 0.950 . S
C515 C506 1.388 1_556 S
C515 H508 0.960 . S
C515 C512 1.379 1_556 S
C516 C517 1.387 . S
C516 H520 0.950 . S
C516 C525 1.390 . S
C517 C516 1.387 . S
C517 C519 1.387 . S
H518 C525 0.950 . S
C519 C517 1.387 . S
C519 C521 1.390 1_655 S
C519 H523 0.950 . S
H520 C516 0.950 . S
C521 C519 1.390 1_455 S
C521 C522 1.387 . S
C521 H524 0.950 . S
C522 C521 1.387 . S
C522 C525 1.387 1_455 S
H523 C519 0.950 . S
H524 C521 0.950 . S
C525 C516 1.390 . S
C525 H518 0.950 . S
C525 C522 1.387 1_655 S
C526 C527 1.387 . S
C526 H530 0.950 . S
C526 C535 1.390 . S
C527 C526 1.387 . S
C527 C529 1.387 . S
H528 C535 0.950 . S
C529 C527 1.387 . S
C529 C531 1.390 . S
C529 H533 0.950 . S
H530 C526 0.950 . S
C531 C529 1.390 . S
C531 C532 1.387 . S
C531 H534 0.950 . S
C532 C531 1.387 . S
C532 C535 1.387 . S
H533 C529 0.950 . S
H534 C531 0.950 . S
C535 C526 1.390 . S
C535 H528 0.950 . S
C535 C532 1.387 . S
C536 C537 1.387 . S
C536 H540 0.950 . S
C536 C545 1.390 1_545 S
C537 C536 1.387 . S
C537 C539 1.387 . S
H538 C545 0.950 . S
C539 C537 1.387 . S
C539 C541 1.390 1_545 S
C539 H543 0.950 . S
H540 C536 0.950 . S
C541 C539 1.390 1_565 S
C541 C542 1.387 . S
C541 H544 0.950 . S
C542 C541 1.387 . S
C542 C545 1.387 . S
H543 C539 0.950 . S
H544 C541 0.950 . S
C545 C536 1.390 1_565 S
C545 H538 0.950 . S
C545 C542 1.387 . S
C546 C547 1.387 . S
C546 H550 0.950 . S
C546 C555 1.390 . S
C547 C546 1.387 . S
C547 C549 1.387 . S
H548 C555 0.950 . S
C549 C547 1.387 . S
C549 C551 1.390 . S
C549 H553 0.950 . S
H550 C546 0.950 . S
C551 C549 1.390 . S
C551 C552 1.387 . S
C551 H554 0.950 . S
C552 C551 1.387 . S
C552 C555 1.387 . S
H553 C549 0.950 . S
H554 C551 0.950 . S
C555 C546 1.390 . S
C555 H548 0.950 . S
C555 C552 1.387 . S
C556 C557 1.387 . S
C556 H560 0.950 . S
C556 C565 1.390 . S
C557 C556 1.387 . S
C557 C559 1.387 . S
H558 C565 0.950 . S
C559 C557 1.387 . S
C559 C561 1.390 . S
C559 H563 0.950 . S
H560 C556 0.950 . S
C561 C559 1.390 . S
C561 C562 1.387 . S
C561 H564 0.950 . S
C562 C561 1.387 . S
C562 C565 1.387 . S
H563 C559 0.950 . S
H564 C561 0.950 . S
C565 C556 1.390 . S
C565 H558 0.950 . S
C565 C562 1.387 . S
C566 C567 1.387 . S
C566 H570 0.950 . S
C566 C575 1.390 . S
C567 C566 1.387 . S
C567 C569 1.387 . S
H568 C575 0.950 . S
C569 C567 1.387 . S
C569 C571 1.390 . S
C569 H573 0.950 . S
H570 C566 0.950 . S
C571 C569 1.390 . S
C571 C572 1.387 . S
C571 H574 0.950 . S
C572 C571 1.387 . S
C572 C575 1.387 . S
H573 C569 0.950 . S
H574 C571 0.950 . S
C575 C566 1.390 . S
C575 H568 0.950 . S
C575 C572 1.387 . S
C576 C577 1.387 . S
C576 H580 0.950 . S
C576 C585 1.390 . S
C577 C576 1.387 . S
C577 C579 1.387 . S
H578 C585 0.950 . S
C579 C577 1.387 . S
C579 C581 1.390 . S
C579 H583 0.950 . S
H580 C576 0.950 . S
C581 C579 1.390 . S
C581 C582 1.387 . S
C581 H584 0.950 . S
C582 C581 1.387 . S
C582 C585 1.387 . S
H583 C579 0.950 . S
H584 C581 0.950 . S
C585 C576 1.390 . S
C585 H578 0.950 . S
C585 C582 1.387 . S
C586 C587 1.387 . S
C586 H590 0.950 . S
C586 C595 1.390 . S
C587 C586 1.387 . S
C587 C589 1.387 . S
H588 C595 0.950 . S
C589 C587 1.387 . S
C589 C591 1.390 . S
C589 H593 0.950 . S
H590 C586 0.950 . S
C591 C589 1.390 . S
C591 C592 1.387 . S
C591 H594 0.950 . S
C592 C591 1.387 . S
C592 C595 1.387 . S
H593 C589 0.950 . S
H594 C591 0.950 . S
C595 C586 1.390 . S
C595 H588 0.950 . S
C595 C592 1.387 . S
C596 C597 1.387 . S
C596 H600 0.950 . S
C596 C605 1.390 . S
C597 C596 1.387 . S
C597 C599 1.387 . S
H598 C605 0.950 . S
C599 C597 1.387 . S
C599 C601 1.390 . S
C599 H603 0.950 . S
H600 C596 0.950 . S
C601 C599 1.390 . S
C601 C602 1.387 . S
C601 H604 0.950 . S
C602 C601 1.387 . S
C602 C605 1.387 . S
H603 C599 0.950 . S
H604 C601 0.950 . S
C605 C596 1.390 . S
C605 H598 0.950 . S
C605 C602 1.387 . S
C606 C607 1.394 . S
C606 H610 0.950 . S
C606 C615 1.390 . S
C607 C606 1.394 . S
C607 C609 1.400 . S
H608 C615 0.950 . S
C609 C607 1.400 . S
C609 C611 1.390 . S
C609 H613 0.950 . S
H610 C606 0.950 . S
C611 C609 1.390 . S
C611 C612 1.387 . S
C611 H614 0.950 . S
C612 C611 1.387 . S
C612 C615 1.387 . S
H613 C609 0.950 . S
H614 C611 0.950 . S
C615 C606 1.390 . S
C615 H608 0.950 . S
C615 C612 1.387 . S
C616 C617 1.387 1_455 S
C616 H620 0.950 1_455 S
C616 C625 1.390 . S
C617 C616 1.387 1_655 S
C617 C619 1.387 1_655 S
H618 C625 0.950 . S
C619 C617 1.387 1_455 S
C619 C621 1.390 . S
C619 H623 0.950 . S
H620 C616 0.950 1_655 S
C621 C619 1.390 . S
C621 C622 1.387 . S
C621 H624 0.950 . S
C622 C621 1.387 . S
C622 C625 1.387 . S
H623 C619 0.950 . S
H624 C621 0.950 . S
C625 C616 1.390 . S
C625 H618 0.950 . S
C625 C622 1.387 . S
C626 C627 1.387 . S
C626 H630 0.950 . S
C626 C635 1.390 . S
C627 C626 1.387 . S
C627 C629 1.387 . S
H628 C635 0.950 . S
C629 C627 1.387 . S
C629 C631 1.390 . S
C629 H633 0.950 . S
H630 C626 0.950 . S
C631 C629 1.390 . S
C631 C632 1.387 . S
C631 H634 0.950 . S
C632 C631 1.387 . S
C632 C635 1.387 . S
H633 C629 0.950 . S
H634 C631 0.950 . S
C635 C626 1.390 . S
C635 H628 0.950 . S
C635 C632 1.387 . S
C636 C637 1.387 . S
C636 H640 0.950 . S
C636 C645 1.390 . S
C637 C636 1.387 . S
C637 C639 1.387 . S
H638 C645 0.950 . S
C639 C637 1.387 . S
C639 C641 1.390 . S
C639 H643 0.950 . S
H640 C636 0.950 . S
C641 C639 1.390 . S
C641 C642 1.387 . S
C641 H644 0.950 . S
C642 C641 1.387 . S
C642 C645 1.387 . S
H643 C639 0.950 . S
H644 C641 0.950 . S
C645 C636 1.390 . S
C645 H638 0.950 . S
C645 C642 1.387 . S
C646 C647 1.387 . S
C646 H650 0.950 . S
C646 C655 1.390 . S
C647 C646 1.387 . S
C647 C649 1.387 . S
H648 C655 0.950 . S
C649 C647 1.387 . S
C649 C651 1.390 . S
C649 H653 0.950 . S
H650 C646 0.950 . S
C651 C649 1.390 . S
C651 C652 1.387 . S
C651 H654 0.950 . S
C652 C651 1.387 . S
C652 C655 1.387 . S
H653 C649 0.950 . S
H654 C651 0.950 . S
C655 C646 1.390 . S
C655 H648 0.950 . S
C655 C652 1.387 . S
C656 C657 1.387 . S
C656 H660 0.950 . S
C656 C665 1.390 . S
C657 C656 1.387 . S
C657 C659 1.387 . S
H658 C665 0.950 . S
C659 C657 1.387 . S
C659 C661 1.390 . S
C659 H663 0.950 . S
H660 C656 0.950 . S
C661 C659 1.390 . S
C661 C662 1.387 . S
C661 H664 0.950 . S
C662 C661 1.387 . S
C662 C665 1.387 . S
H663 C659 0.950 . S
H664 C661 0.950 . S
C665 C656 1.390 . S
C665 H658 0.950 . S
C665 C662 1.387 . S
C666 C667 1.387 . S
C666 H670 0.950 . S
C666 C675 1.390 1_565 S
C667 C666 1.387 . S
C667 C669 1.387 . S
H668 C675 0.950 . S
C669 C667 1.387 . S
C669 C671 1.390 1_565 S
C669 H673 0.950 . S
H670 C666 0.950 . S
C671 C669 1.390 1_545 S
C671 C672 1.387 . S
C671 H674 0.950 . S
C672 C671 1.387 . S
C672 C675 1.387 . S
H673 C669 0.950 . S
H674 C671 0.950 . S
C675 C666 1.390 1_545 S
C675 H668 0.950 . S
C675 C672 1.387 . S
C676 C677 1.387 . S
C676 H680 0.950 . S
C676 C685 1.390 . S
C677 C676 1.387 . S
C677 C679 1.387 . S
H678 C685 0.950 . S
C679 C677 1.387 . S
C679 C681 1.390 1_455 S
C679 H683 0.950 . S
H680 C676 0.950 . S
C681 C679 1.390 1_655 S
C681 C682 1.387 . S
C681 H684 0.950 . S
C682 C681 1.387 . S
C682 C685 1.387 1_655 S
H683 C679 0.950 . S
H684 C681 0.950 . S
C685 C676 1.390 . S
C685 H678 0.950 . S
C685 C682 1.387 1_455 S
C686 C687 1.387 . S
C686 H690 0.950 . S
C686 C695 1.390 . S
C687 C686 1.387 . S
C687 C689 1.387 . S
H688 C695 0.950 . S
C689 C687 1.387 . S
C689 C691 1.390 . S
C689 H693 0.950 . S
H690 C686 0.950 . S
C691 C689 1.390 . S
C691 C692 1.387 . S
C691 H694 0.950 . S
C692 C691 1.387 . S
C692 C695 1.387 . S
H693 C689 0.950 . S
H694 C691 0.950 . S
C695 C686 1.390 . S
C695 H688 0.950 . S
C695 C692 1.387 . S
C696 C697 1.387 1_655 S
C696 H700 0.950 1_655 S
C696 C705 1.390 . S
C697 C696 1.387 1_455 S
C697 C699 1.387 . S
H698 C705 0.950 . S
C699 C697 1.387 . S
C699 C701 1.390 1_455 S
C699 H703 0.950 . S
H700 C696 0.950 1_455 S
C701 C699 1.390 1_655 S
C701 C702 1.387 . S
C701 H704 0.950 . S
C702 C701 1.387 . S
C702 C705 1.387 . S
H703 C699 0.950 . S
H704 C701 0.950 . S
C705 C696 1.390 . S
C705 H698 0.950 . S
C705 C702 1.387 . S
C706 C707 1.387 . S
C706 H710 0.950 . S
C706 C715 1.390 . S
C707 C706 1.387 . S
C707 C709 1.387 . S
H708 C715 0.950 . S
C709 C707 1.387 . S
C709 C711 1.390 . S
C709 H713 0.950 . S
H710 C706 0.950 . S
C711 C709 1.390 . S
C711 C712 1.387 . S
C711 H714 0.950 . S
C712 C711 1.387 . S
C712 C715 1.387 . S
H713 C709 0.950 . S
H714 C711 0.950 . S
C715 C706 1.390 . S
C715 H708 0.950 . S
C715 C712 1.387 . S
C716 C717 1.387 . S
C716 H720 0.950 . S
C716 C725 1.390 . S
C717 C716 1.387 . S
C717 C719 1.387 . S
H718 C725 0.950 . S
C719 C717 1.387 . S
C719 C721 1.390 . S
C719 H723 0.950 . S
H720 C716 0.950 . S
C721 C719 1.390 . S
C721 C722 1.387 . S
C721 H724 0.950 . S
C722 C721 1.387 . S
C722 C725 1.387 . S
H723 C719 0.950 . S
H724 C721 0.950 . S
C725 C716 1.390 . S
C725 H718 0.950 . S
C725 C722 1.387 . S
C726 C727 1.387 . S
C726 H730 0.950 . S
C726 C735 1.390 . S
C727 C726 1.387 . S
C727 C729 1.387 . S
H728 C735 0.950 . S
C729 C727 1.387 . S
C729 C731 1.390 . S
C729 H733 0.950 . S
H730 C726 0.950 . S
C731 C729 1.390 . S
C731 C732 1.387 . S
C731 H734 0.950 . S
C732 C731 1.387 . S
C732 C735 1.387 . S
H733 C729 0.950 . S
H734 C731 0.950 . S
C735 C726 1.390 . S
C735 H728 0.950 . S
C735 C732 1.387 . S
C736 C737 1.387 . S
C736 H740 0.950 . S
C736 C745 1.390 . S
C737 C736 1.387 . S
C737 C739 1.387 . S
H738 C745 0.950 . S
C739 C737 1.387 . S
C739 C741 1.390 . S
C739 H743 0.950 . S
H740 C736 0.950 . S
C741 C739 1.390 . S
C741 C742 1.387 . S
C741 H744 0.950 . S
C742 C741 1.387 . S
C742 C745 1.387 . S
H743 C739 0.950 . S
H744 C741 0.950 . S
C745 C736 1.390 . S
C745 H738 0.950 . S
C745 C742 1.387 . S
C746 C747 1.387 . S
C746 H750 0.950 . S
C746 C755 1.390 . S
C747 C746 1.387 . S
C747 C749 1.387 . S
H748 C755 0.950 . S
C749 C747 1.387 . S
C749 C751 1.390 . S
C749 H753 0.950 . S
H750 C746 0.950 . S
C751 C749 1.390 . S
C751 C752 1.387 . S
C751 H754 0.950 . S
C752 C751 1.387 . S
C752 C755 1.387 . S
H753 C749 0.950 . S
H754 C751 0.950 . S
C755 C746 1.390 . S
C755 H748 0.950 . S
C755 C752 1.387 . S
C756 C757 1.387 . S
C756 H760 0.950 . S
C756 C765 1.390 . S
C757 C756 1.387 . S
C757 C759 1.387 . S
H758 C765 0.950 . S
C759 C757 1.387 . S
C759 C761 1.390 . S
C759 H763 0.949 . S
H760 C756 0.950 . S
C761 C759 1.390 . S
C761 C762 1.387 . S
C761 H764 0.950 1_565 S
C762 C761 1.387 . S
C762 C765 1.387 . S
H763 C759 0.949 . S
H764 C761 0.950 1_545 S
C765 C756 1.390 . S
C765 H758 0.950 . S
C765 C762 1.387 . S
C766 C767 1.387 . S
C766 H770 0.950 . S
C766 C775 1.390 . S
C767 C766 1.387 . S
C767 C769 1.387 . S
H768 C775 0.950 . S
C769 C767 1.387 . S
C769 C771 1.390 . S
C769 H773 0.950 . S
H770 C766 0.950 . S
C771 C769 1.390 . S
C771 C772 1.387 . S
C771 H774 0.950 . S
C772 C771 1.387 . S
C772 C775 1.387 . S
H773 C769 0.950 . S
H774 C771 0.950 . S
C775 C766 1.390 . S
C775 H768 0.950 . S
C775 C772 1.387 . S
C776 C777 1.387 . S
C776 H780 0.950 . S
C776 C785 1.390 . S
C777 C776 1.387 . S
C777 C779 1.387 . S
H778 C785 0.950 . S
C779 C777 1.387 . S
C779 C781 1.390 . S
C779 H783 0.950 . S
H780 C776 0.950 . S
C781 C779 1.390 . S
C781 C782 1.387 . S
C781 H784 0.950 . S
C782 C781 1.387 . S
C782 C785 1.387 . S
H783 C779 0.950 . S
H784 C781 0.950 . S
C785 C776 1.390 . S
C785 H778 0.950 . S
C785 C782 1.387 . S
C786 C787 1.387 . S
C786 H790 0.950 . S
C786 C795 1.390 . S
C787 C786 1.387 . S
C787 C789 1.387 . S
H788 C795 0.950 . S
C789 C787 1.387 . S
C789 C791 1.390 . S
C789 H793 0.950 . S
H790 C786 0.950 . S
C791 C789 1.390 . S
C791 C792 1.387 . S
C791 H794 0.950 . S
C792 C791 1.387 . S
C792 C795 1.387 . S
H793 C789 0.950 . S
H794 C791 0.950 . S
C795 C786 1.390 . S
C795 H788 0.950 . S
C795 C792 1.387 . S
C796 C797 1.387 . S
C796 H800 0.950 . S
C796 C805 1.390 . S
C797 C796 1.387 . S
C797 C799 1.387 . S
H798 C805 0.950 . S
C799 C797 1.387 . S
C799 C801 1.390 . S
C799 H803 0.950 . S
H800 C796 0.950 . S
C801 C799 1.390 . S
C801 C802 1.387 . S
C801 H804 0.950 . S
C802 C801 1.387 . S
C802 C805 1.387 . S
H803 C799 0.950 . S
H804 C801 0.950 . S
C805 C796 1.390 . S
C805 H798 0.950 . S
C805 C802 1.387 . S
C806 C807 1.387 . S
C806 H810 0.950 . S
C806 C815 1.390 . S
C807 C806 1.387 . S
C807 C809 1.387 . S
H808 C815 0.950 . S
C809 C807 1.387 . S
C809 C811 1.390 . S
C809 H813 0.950 . S
H810 C806 0.950 . S
C811 C809 1.390 . S
C811 C812 1.387 . S
C811 H814 0.950 . S
C812 C811 1.387 . S
C812 C815 1.387 . S
H813 C809 0.950 . S
H814 C811 0.950 . S
C815 C806 1.390 . S
C815 H808 0.950 . S
C815 C812 1.387 . S
C816 C817 1.387 . S
C816 H820 0.950 . S
C816 C825 1.390 . S
C817 C816 1.387 . S
C817 C819 1.387 . S
H818 C825 0.950 . S
C819 C817 1.387 . S
C819 C821 1.390 . S
C819 H823 0.950 . S
H820 C816 0.950 . S
C821 C819 1.390 . S
C821 C822 1.387 . S
C821 H824 0.950 . S
C822 C821 1.387 . S
C822 C825 1.387 . S
H823 C819 0.950 . S
H824 C821 0.950 . S
C825 C816 1.390 . S
C825 H818 0.950 . S
C825 C822 1.387 . S
C826 C827 1.387 . S
C826 H830 0.950 . S
C826 C835 1.390 . S
C827 C826 1.387 . S
C827 C829 1.387 . S
H828 C835 0.950 . S
C829 C827 1.387 . S
C829 C831 1.390 . S
C829 H833 0.950 . S
H830 C826 0.950 . S
C831 C829 1.390 . S
C831 C832 1.387 . S
C831 H834 0.950 . S
C832 C831 1.387 . S
C832 C835 1.387 . S
H833 C829 0.950 . S
H834 C831 0.950 . S
C835 C826 1.390 . S
C835 H828 0.950 . S
C835 C832 1.387 . S
C836 C837 1.387 . S
C836 H840 0.950 . S
C836 C845 1.390 . S
C837 C836 1.387 . S
C837 C839 1.387 . S
H838 C845 0.950 . S
C839 C837 1.387 . S
C839 C841 1.390 . S
C839 H843 0.950 . S
H840 C836 0.950 . S
C841 C839 1.390 . S
C841 C842 1.387 . S
C841 H844 0.950 . S
C842 C841 1.387 . S
C842 C845 1.387 . S
H843 C839 0.950 . S
H844 C841 0.950 . S
C845 C836 1.390 . S
C845 H838 0.950 . S
C845 C842 1.387 . S
C846 C847 1.387 . S
C846 H850 0.950 . S
C846 C855 1.390 . S
C847 C846 1.387 . S
C847 C849 1.387 . S
H848 C855 0.950 . S
C849 C847 1.387 . S
C849 C851 1.390 . S
C849 H853 0.950 . S
H850 C846 0.950 . S
C851 C849 1.390 . S
C851 C852 1.387 . S
C851 H854 0.950 . S
C852 C851 1.387 . S
C852 C855 1.387 . S
H853 C849 0.950 . S
H854 C851 0.950 . S
C855 C846 1.390 . S
C855 H848 0.950 . S
C855 C852 1.387 . S
C856 C857 1.387 . S
C856 H860 0.950 . S
C856 C865 1.390 . S
C857 C856 1.387 . S
C857 C859 1.387 . S
H858 C865 0.950 . S
C859 C857 1.387 . S
C859 C861 1.390 . S
C859 H863 0.950 . S
H860 C856 0.950 . S
C861 C859 1.390 . S
C861 C862 1.387 . S
C861 H864 0.950 . S
C862 C861 1.387 . S
C862 C865 1.387 . S
H863 C859 0.950 . S
H864 C861 0.950 . S
C865 C856 1.390 . S
C865 H858 0.950 . S
C865 C862 1.387 . S
C866 C867 1.387 . S
C866 H870 0.950 . S
C866 C875 1.390 . S
C867 C866 1.387 . S
C867 C869 1.387 . S
H868 C875 0.950 . S
C869 C867 1.387 . S
C869 C871 1.390 . S
C869 H873 0.950 . S
H870 C866 0.950 . S
C871 C869 1.390 . S
C871 C872 1.387 . S
C871 H874 0.950 . S
C872 C871 1.387 . S
C872 C875 1.387 . S
H873 C869 0.950 . S
H874 C871 0.950 . S
C875 C866 1.390 . S
C875 H868 0.950 . S
C875 C872 1.387 . S
C876 C877 1.387 . S
C876 H880 0.950 . S
C876 C885 1.390 . S
C877 C876 1.387 . S
C877 C879 1.387 . S
H878 C885 0.950 . S
C879 C877 1.387 . S
C879 C881 1.390 . S
C879 H883 0.950 . S
H880 C876 0.950 . S
C881 C879 1.390 . S
C881 C882 1.387 . S
C881 H884 0.950 . S
C882 C881 1.387 . S
C882 C885 1.387 . S
H883 C879 0.950 . S
H884 C881 0.950 . S
C885 C876 1.390 . S
C885 H878 0.950 . S
C885 C882 1.387 . S
C886 C887 1.387 . S
C886 H890 0.950 . S
C886 C895 1.390 . S
C887 C886 1.387 . S
C887 C889 1.387 . S
H888 C895 0.950 . S
C889 C887 1.387 . S
C889 C891 1.390 . S
C889 H893 0.950 . S
H890 C886 0.950 . S
C891 C889 1.390 . S
C891 C892 1.387 . S
C891 H894 0.950 . S
C892 C891 1.387 . S
C892 C895 1.387 . S
H893 C889 0.950 . S
H894 C891 0.950 . S
C895 C886 1.390 . S
C895 H888 0.950 . S
C895 C892 1.387 . S
C896 C897 1.387 . S
C896 H900 0.950 . S
C896 C905 1.390 . S
C897 C896 1.387 . S
C897 C899 1.387 . S
H898 C905 0.950 . S
C899 C897 1.387 . S
C899 C901 1.390 . S
C899 H903 0.950 . S
H900 C896 0.950 . S
C901 C899 1.390 . S
C901 C902 1.387 . S
C901 H904 0.950 . S
C902 C901 1.387 . S
C902 C905 1.387 . S
H903 C899 0.950 . S
H904 C901 0.950 . S
C905 C896 1.390 . S
C905 H898 0.950 . S
C905 C902 1.387 . S
C906 C907 1.387 . S
C906 H910 0.950 . S
C906 C915 1.390 . S
C907 C906 1.387 . S
C907 C909 1.387 . S
H908 C915 0.950 . S
C909 C907 1.387 . S
C909 C911 1.390 . S
C909 H913 0.950 . S
H910 C906 0.950 . S
C911 C909 1.390 . S
C911 C912 1.387 . S
C911 H914 0.950 . S
C912 C911 1.387 . S
C912 C915 1.387 . S
H913 C909 0.950 . S
H914 C911 0.950 . S
C915 C906 1.390 . S
C915 H908 0.950 . S
C915 C912 1.387 . S
C916 C917 1.387 . S
C916 H920 0.950 . S
C916 C925 1.390 . S
C917 C916 1.387 . S
C917 C919 1.387 . S
H918 C925 0.950 . S
C919 C917 1.387 . S
C919 C921 1.390 . S
C919 H923 0.950 . S
H920 C916 0.950 . S
C921 C919 1.390 . S
C921 C922 1.387 . S
C921 H924 0.950 . S
C922 C921 1.387 . S
C922 C925 1.387 . S
H923 C919 0.950 . S
H924 C921 0.950 . S
C925 C916 1.390 . S
C925 H918 0.950 . S
C925 C922 1.387 . S
C926 C927 1.387 . S
C926 H930 0.950 . S
C926 C935 1.390 . S
C927 C926 1.387 . S
C927 C929 1.387 . S
H928 C935 0.950 . S
C929 C927 1.387 . S
C929 C931 1.390 . S
C929 H933 0.950 . S
H930 C926 0.950 . S
C931 C929 1.390 . S
C931 C932 1.387 . S
C931 H934 0.950 . S
C932 C931 1.387 . S
C932 C935 1.387 . S
H933 C929 0.950 . S
H934 C931 0.950 . S
C935 C926 1.390 . S
C935 H928 0.950 . S
C935 C932 1.387 . S
C397 C162 1.552 . S
C402 C222 1.530 . S
C407 C174 1.493 . S
C412 C242 1.470 . S
C417 C150 1.508 . S
C422 C265 1.513 . S
C427 C138 1.444 . S
C432 C245 1.447 1_556 S
C442 C262 1.452 . S
C437 C114 1.468 . S
C447 C126 1.505 . S
C452 C225 1.503 1_556 S
C462 C232 1.539 . S
C457 C136 1.563 . S
C472 C252 1.423 . S
C467 C112 1.442 . S
C477 C124 1.520 . S
C482 C257 1.547 1_556 S
C487 C160 1.454 . S
C492 C237 1.477 . S
C497 C172 1.471 . S
C502 C272 1.446 . S
C512 C217 1.559 . S
C507 C148 1.551 . S
C522 C282 1.530 . S
C517 C18 1.552 . S
C527 C30 1.492 . S
C532 C302 1.469 . S
C537 C6 1.507 . S
C542 C325 1.512 . S
C547 C210 1.444 . S
C552 C305 1.447 . S
C557 C186 1.468 . S
C562 C322 1.453 . S
C567 C198 1.505 . S
C572 C285 1.504 . S
C577 C208 1.563 . S
C582 C292 1.540 . S
C587 C184 1.443 . S
C592 C312 1.424 . S
C602 C317 1.547 . S
C597 C196 1.520 . S
C607 C16 1.437 1_565 S
C612 C297 1.477 . S
C622 C332 1.447 . S
C617 C28 1.472 . S
C627 C4 1.551 . S
C632 C277 1.559 . S
C642 C342 1.531 . S
C637 C90 1.552 . S
C647 C102 1.493 . S
C652 C362 1.471 . S
C662 C385 1.513 . S
C657 C78 1.507 . S
C672 C365 1.447 . S
C667 C66 1.444 . S
C682 C382 1.453 . S
C677 C42 1.468 . S
C687 C54 1.506 . S
C692 C345 1.504 . S
C697 C64 1.563 . S
C702 C352 1.539 . S
C707 C40 1.442 . S
C712 C372 1.423 . S
C722 C377 1.549 . S
C717 C52 1.520 1_545 S
C727 C88 1.454 . S
C732 C357 1.476 . S
C737 C100 1.472 . S
C742 C392 1.447 . S
C747 C76 1.550 . S
C752 C337 1.557 . S
C757 C189 1.412 . S
C762 C235 1.357 . S
C772 C255 1.588 . S
C767 C201 1.673 . S
C777 C213 1.516 . S
C782 C264 1.483 . S
C787 C81 1.635 . S
C792 C244 1.584 . S
C797 C93 1.579 . S
C802 C275 1.509 . S
C812 C224 1.356 . S
C807 C105 1.381 . S
C817 C45 1.411 . S
C822 C295 1.355 . S
C827 C57 1.674 . S
C832 C315 1.592 . S
C837 C69 1.516 . S
C842 C324 1.480 . S
C847 C153 1.635 . S
C852 C304 1.585 . S
C862 C335 1.509 . S
C857 C165 1.579 . S
C867 C177 1.382 . S
C872 C284 1.358 . S
C877 C117 1.412 . S
C882 C355 1.357 . S
C887 C129 1.674 . S
C892 C375 1.592 . S
C902 C384 1.483 . S
C897 C141 1.516 . S
C907 C9 1.635 . S
C912 C364 1.587 . S
C917 C21 1.579 . S
C922 C395 1.510 . S
C927 C33 1.381 . S
C932 C344 1.359 . S
