# Generated by pormake.
# Topology ptr, (4,4)-cn, num edge types: 1
# Building blocks:
#     Node 0, Type 0, BuildingBlock: QUQFOY_clean_sbu_1, # of connection points: 4
#     Node 1, Type 0, BuildingBlock: QUQFOY_clean_sbu_1, # of connection points: 4
#     Node 2, Type 0, BuildingBlock: QUQFOY_clean_sbu_1, # of connection points: 4
#     Node 3, Type 0, BuildingBlock: QUQFOY_clean_sbu_1, # of connection points: 4
#     Node 4, Type 0, BuildingBlock: QUQFOY_clean_sbu_1, # of connection points: 4
#     Node 5, Type 0, BuildingBlock: QUQFOY_clean_sbu_1, # of connection points: 4
#     Node 6, Type 0, BuildingBlock: QUQFOY_clean_sbu_1, # of connection points: 4
#     Node 7, Type 0, BuildingBlock: QUQFOY_clean_sbu_1, # of connection points: 4
#     Node 8, Type 0, BuildingBlock: QUQFOY_clean_sbu_1, # of connection points: 4
#     Node 9, Type 0, BuildingBlock: QUQFOY_clean_sbu_1, # of connection points: 4
#     Node 10, Type 0, BuildingBlock: QUQFOY_clean_sbu_1, # of connection points: 4
#     Node 11, Type 0, BuildingBlock: QUQFOY_clean_sbu_1, # of connection points: 4
#     Node 12, Type 0, BuildingBlock: QUQFOY_clean_sbu_1, # of connection points: 4
#     Node 13, Type 0, BuildingBlock: QUQFOY_clean_sbu_1, # of connection points: 4
#     Node 14, Type 0, BuildingBlock: QUQFOY_clean_sbu_1, # of connection points: 4
#     Node 15, Type 0, BuildingBlock: QUQFOY_clean_sbu_1, # of connection points: 4
#     Node 16, Type 0, BuildingBlock: QUQFOY_clean_sbu_1, # of connection points: 4
#     Node 17, Type 0, BuildingBlock: QUQFOY_clean_sbu_1, # of connection points: 4
#     Node 18, Type 1, BuildingBlock: MUDLON_clean_linker_0, # of connection points: 4
#     Node 19, Type 1, BuildingBlock: MUDLON_clean_linker_0, # of connection points: 4
#     Node 20, Type 1, BuildingBlock: MUDLON_clean_linker_0, # of connection points: 4
#     Node 21, Type 1, BuildingBlock: MUDLON_clean_linker_0, # of connection points: 4
#     Node 22, Type 1, BuildingBlock: MUDLON_clean_linker_0, # of connection points: 4
#     Node 23, Type 1, BuildingBlock: MUDLON_clean_linker_0, # of connection points: 4
#     Node 24, Type 1, BuildingBlock: MUDLON_clean_linker_0, # of connection points: 4
#     Node 25, Type 1, BuildingBlock: MUDLON_clean_linker_0, # of connection points: 4
#     Node 26, Type 1, BuildingBlock: MUDLON_clean_linker_0, # of connection points: 4
#     Node 27, Type 1, BuildingBlock: MUDLON_clean_linker_0, # of connection points: 4
#     Node 28, Type 1, BuildingBlock: MUDLON_clean_linker_0, # of connection points: 4
#     Node 29, Type 1, BuildingBlock: MUDLON_clean_linker_0, # of connection points: 4
#     Node 30, Type 1, BuildingBlock: MUDLON_clean_linker_0, # of connection points: 4
#     Node 31, Type 1, BuildingBlock: MUDLON_clean_linker_0, # of connection points: 4
#     Node 32, Type 1, BuildingBlock: MUDLON_clean_linker_0, # of connection points: 4
#     Node 33, Type 1, BuildingBlock: MUDLON_clean_linker_0, # of connection points: 4
#     Node 34, Type 1, BuildingBlock: MUDLON_clean_linker_0, # of connection points: 4
#     Node 35, Type 1, BuildingBlock: MUDLON_clean_linker_0, # of connection points: 4
#     Edge 36, Type (0, 1), BuildingBlock: XUDNAN_clean_linker_2, # of connection points: 2
#     Edge 37, Type (0, 1), BuildingBlock: XUDNAN_clean_linker_2, # of connection points: 2
#     Edge 38, Type (0, 1), BuildingBlock: XUDNAN_clean_linker_2, # of connection points: 2
#     Edge 39, Type (0, 1), BuildingBlock: XUDNAN_clean_linker_2, # of connection points: 2
#     Edge 40, Type (0, 1), BuildingBlock: XUDNAN_clean_linker_2, # of connection points: 2
#     Edge 41, Type (0, 1), BuildingBlock: XUDNAN_clean_linker_2, # of connection points: 2
#     Edge 42, Type (0, 1), BuildingBlock: XUDNAN_clean_linker_2, # of connection points: 2
#     Edge 43, Type (0, 1), BuildingBlock: XUDNAN_clean_linker_2, # of connection points: 2
#     Edge 44, Type (0, 1), BuildingBlock: XUDNAN_clean_linker_2, # of connection points: 2
#     Edge 45, Type (0, 1), BuildingBlock: XUDNAN_clean_linker_2, # of connection points: 2
#     Edge 46, Type (0, 1), BuildingBlock: XUDNAN_clean_linker_2, # of connection points: 2
#     Edge 47, Type (0, 1), BuildingBlock: XUDNAN_clean_linker_2, # of connection points: 2
#     Edge 48, Type (0, 1), BuildingBlock: XUDNAN_clean_linker_2, # of connection points: 2
#     Edge 49, Type (0, 1), BuildingBlock: XUDNAN_clean_linker_2, # of connection points: 2
#     Edge 50, Type (0, 1), BuildingBlock: XUDNAN_clean_linker_2, # of connection points: 2
#     Edge 51, Type (0, 1), BuildingBlock: XUDNAN_clean_linker_2, # of connection points: 2
#     Edge 52, Type (0, 1), BuildingBlock: XUDNAN_clean_linker_2, # of connection points: 2
#     Edge 53, Type (0, 1), BuildingBlock: XUDNAN_clean_linker_2, # of connection points: 2
#     Edge 54, Type (0, 1), BuildingBlock: XUDNAN_clean_linker_2, # of connection points: 2
#     Edge 55, Type (0, 1), BuildingBlock: XUDNAN_clean_linker_2, # of connection points: 2
#     Edge 56, Type (0, 1), BuildingBlock: XUDNAN_clean_linker_2, # of connection points: 2
#     Edge 57, Type (0, 1), BuildingBlock: XUDNAN_clean_linker_2, # of connection points: 2
#     Edge 58, Type (0, 1), BuildingBlock: XUDNAN_clean_linker_2, # of connection points: 2
#     Edge 59, Type (0, 1), BuildingBlock: XUDNAN_clean_linker_2, # of connection points: 2
#     Edge 60, Type (0, 1), BuildingBlock: XUDNAN_clean_linker_2, # of connection points: 2
#     Edge 61, Type (0, 1), BuildingBlock: XUDNAN_clean_linker_2, # of connection points: 2
#     Edge 62, Type (0, 1), BuildingBlock: XUDNAN_clean_linker_2, # of connection points: 2
#     Edge 63, Type (0, 1), BuildingBlock: XUDNAN_clean_linker_2, # of connection points: 2
#     Edge 64, Type (0, 1), BuildingBlock: XUDNAN_clean_linker_2, # of connection points: 2
#     Edge 65, Type (0, 1), BuildingBlock: XUDNAN_clean_linker_2, # of connection points: 2
#     Edge 66, Type (0, 1), BuildingBlock: XUDNAN_clean_linker_2, # of connection points: 2
#     Edge 67, Type (0, 1), BuildingBlock: XUDNAN_clean_linker_2, # of connection points: 2
#     Edge 68, Type (0, 1), BuildingBlock: XUDNAN_clean_linker_2, # of connection points: 2
#     Edge 69, Type (0, 1), BuildingBlock: XUDNAN_clean_linker_2, # of connection points: 2
#     Edge 70, Type (0, 1), BuildingBlock: XUDNAN_clean_linker_2, # of connection points: 2
#     Edge 71, Type (0, 1), BuildingBlock: XUDNAN_clean_linker_2, # of connection points: 2
#     Edge 72, Type (0, 1), BuildingBlock: XUDNAN_clean_linker_2, # of connection points: 2
#     Edge 73, Type (0, 1), BuildingBlock: XUDNAN_clean_linker_2, # of connection points: 2
#     Edge 74, Type (0, 1), BuildingBlock: XUDNAN_clean_linker_2, # of connection points: 2
#     Edge 75, Type (0, 1), BuildingBlock: XUDNAN_clean_linker_2, # of connection points: 2
#     Edge 76, Type (0, 1), BuildingBlock: XUDNAN_clean_linker_2, # of connection points: 2
#     Edge 77, Type (0, 1), BuildingBlock: XUDNAN_clean_linker_2, # of connection points: 2
#     Edge 78, Type (0, 1), BuildingBlock: XUDNAN_clean_linker_2, # of connection points: 2
#     Edge 79, Type (0, 1), BuildingBlock: XUDNAN_clean_linker_2, # of connection points: 2
#     Edge 80, Type (0, 1), BuildingBlock: XUDNAN_clean_linker_2, # of connection points: 2
#     Edge 81, Type (0, 1), BuildingBlock: XUDNAN_clean_linker_2, # of connection points: 2
#     Edge 82, Type (0, 1), BuildingBlock: XUDNAN_clean_linker_2, # of connection points: 2
#     Edge 83, Type (0, 1), BuildingBlock: XUDNAN_clean_linker_2, # of connection points: 2
#     Edge 84, Type (0, 1), BuildingBlock: XUDNAN_clean_linker_2, # of connection points: 2
#     Edge 85, Type (0, 1), BuildingBlock: XUDNAN_clean_linker_2, # of connection points: 2
#     Edge 86, Type (0, 1), BuildingBlock: XUDNAN_clean_linker_2, # of connection points: 2
#     Edge 87, Type (0, 1), BuildingBlock: XUDNAN_clean_linker_2, # of connection points: 2
#     Edge 88, Type (0, 1), BuildingBlock: XUDNAN_clean_linker_2, # of connection points: 2
#     Edge 89, Type (0, 1), BuildingBlock: XUDNAN_clean_linker_2, # of connection points: 2
#     Edge 90, Type (0, 1), BuildingBlock: XUDNAN_clean_linker_2, # of connection points: 2
#     Edge 91, Type (0, 1), BuildingBlock: XUDNAN_clean_linker_2, # of connection points: 2
#     Edge 92, Type (0, 1), BuildingBlock: XUDNAN_clean_linker_2, # of connection points: 2
#     Edge 93, Type (0, 1), BuildingBlock: XUDNAN_clean_linker_2, # of connection points: 2
#     Edge 94, Type (0, 1), BuildingBlock: XUDNAN_clean_linker_2, # of connection points: 2
#     Edge 95, Type (0, 1), BuildingBlock: XUDNAN_clean_linker_2, # of connection points: 2
#     Edge 96, Type (0, 1), BuildingBlock: XUDNAN_clean_linker_2, # of connection points: 2
#     Edge 97, Type (0, 1), BuildingBlock: XUDNAN_clean_linker_2, # of connection points: 2
#     Edge 98, Type (0, 1), BuildingBlock: XUDNAN_clean_linker_2, # of connection points: 2
#     Edge 99, Type (0, 1), BuildingBlock: XUDNAN_clean_linker_2, # of connection points: 2
#     Edge 100, Type (0, 1), BuildingBlock: XUDNAN_clean_linker_2, # of connection points: 2
#     Edge 101, Type (0, 1), BuildingBlock: XUDNAN_clean_linker_2, # of connection points: 2
#     Edge 102, Type (0, 1), BuildingBlock: XUDNAN_clean_linker_2, # of connection points: 2
#     Edge 103, Type (0, 1), BuildingBlock: XUDNAN_clean_linker_2, # of connection points: 2
#     Edge 104, Type (0, 1), BuildingBlock: XUDNAN_clean_linker_2, # of connection points: 2
#     Edge 105, Type (0, 1), BuildingBlock: XUDNAN_clean_linker_2, # of connection points: 2
#     Edge 106, Type (0, 1), BuildingBlock: XUDNAN_clean_linker_2, # of connection points: 2
#     Edge 107, Type (0, 1), BuildingBlock: XUDNAN_clean_linker_2, # of connection points: 2
# Relax obj value: 0.012
# Max RMSD: 0.036
# Mean RMSD: 0.035
data_MOF--net-ptr--node1-QUQFOY_clean_sbu_1--node2-MUDLON_clean_linker_0--edge1-XUDNAN_clean_linker_2
_symmetry_space_group_name_H-M    P1
_symmetry_Int_Tables_number       1
_symmetry_cell_setting            triclinic
loop_
_symmetry_equiv_pos_as_xyz
'x, y, z'
_cell_length_a     107.22561
_cell_length_b     107.21697
_cell_length_c     64.573479
_cell_angle_alpha  89.97723
_cell_angle_beta   89.995773
_cell_angle_gamma 119.97981
loop_
_atom_site_label
_atom_site_type_symbol
_atom_site_fract_x
_atom_site_fract_y
_atom_site_fract_z
_atom_type_partial_charge
O0 O 0.02457 0.38805 0.03962 0.0
Cd1 Cd 0.02686 0.37695 0.01518 0.0
Cd2 Cd 0.99854 0.36805 0.01252 0.0
O3 O 1.00096 0.37821 0.04082 0.0
O4 O 0.04665 0.38012 0.02 0.0
O5 O 0.02729 0.35852 0.02016 0.0
C6 C 0.04103 0.36644 0.02254 0.0
C7 C 0.9836 0.34337 0.00719 0.0
C8 C 0.01335 0.38686 0.04817 0.0
C9 C 0.01729 0.38645 0.97775 0.0
O10 O 1.00504 0.38108 0.98647 0.0
O11 O 0.02729 0.38499 0.98593 0.0
O12 O 0.97839 0.35192 0.00818 0.0
O13 O 0.99729 0.34882 0.0101 0.0
O14 O 0.62214 0.63761 0.03473 0.0
Cd15 Cd 0.63424 0.65157 0.01134 0.0
Cd16 Cd 0.64593 0.63367 0.01224 0.0
O17 O 0.6349 0.62695 0.04017 0.0
O18 O 0.62857 0.66669 0.01256 0.0
O19 O 0.65062 0.67127 0.01943 0.0
C20 C 0.6415 0.67577 0.01829 0.0
C21 C 0.66982 0.63875 0.00891 0.0
C22 C 0.62463 0.62905 0.04522 0.0
C23 C 0.62876 0.63251 0.9746 0.0
O24 O 0.63387 0.62618 0.98537 0.0
O25 O 0.62922 0.64388 0.98134 0.0
O26 O 0.65932 0.62578 0.01137 0.0
O27 O 0.66687 0.64906 0.0092 0.0
O28 O 0.39267 0.01783 0.99121 0.0
Cd29 Cd 0.38506 0.02462 0.01576 0.0
Cd30 Cd 0.37231 0.99602 0.02569 0.0
O31 O 0.38124 0.99455 0.99811 0.0
O32 O 0.38843 0.04407 0.00773 0.0
O33 O 0.36669 0.02527 0.01218 0.0
C34 C 0.37466 0.0387 0.00739 0.0
C35 C 0.34799 0.98009 0.03265 0.0
C36 C 0.38965 0.00508 0.98663 0.0
C37 C 0.39409 0.01721 0.05583 0.0
O38 O 0.38596 0.0041 0.05084 0.0
O39 O 0.39483 0.02722 0.04439 0.0
O40 O 0.35753 0.97618 0.03438 0.0
O41 O 0.3522 0.99307 0.0265 0.0
O42 O 1.00078 0.62882 0.98869 0.0
Cd43 Cd 0.9941 0.63641 0.01338 0.0
Cd44 Cd 0.02374 0.64971 0.02241 0.0
O45 O 0.02427 0.64154 0.99373 0.0
O46 O 0.97457 0.63287 0.0055 0.0
O47 O 0.99327 0.65469 0.00986 0.0
C48 C 0.97985 0.64662 0.00503 0.0
C49 C 0.0433 0.67205 0.03249 0.0
C50 C 0.01355 0.63255 0.98307 0.0
C51 C 1.00223 0.62699 0.0521 0.0
O52 O 0.01517 0.635 0.04624 0.0
O53 O 0.99189 0.62662 0.04193 0.0
O54 O 0.04442 0.6607 0.03071 0.0
O55 O 0.03107 0.67094 0.02784 0.0
O56 O 0.39448 0.3773 0.99574 0.0
Cd57 Cd 0.38322 0.36555 0.02137 0.0
Cd58 Cd 0.36936 0.38027 0.01441 0.0
O59 O 0.37971 0.38491 0.98598 0.0
O60 O 0.38743 0.34944 0.02351 0.0
O61 O 0.36585 0.34606 0.01585 0.0
C62 C 0.37425 0.34076 0.01833 0.0
C63 C 0.34534 0.37466 0.01824 0.0
C64 C 0.39081 0.38377 0.9827 0.0
C65 C 0.38853 0.38791 0.05226 0.0
O66 O 0.38205 0.39159 0.03928 0.0
O67 O 0.38902 0.37642 0.04944 0.0
O68 O 0.35537 0.38736 0.01303 0.0
O69 O 0.34876 0.36474 0.02004 0.0
O70 O 0.62652 1.00023 0.0436 0.0
Cd71 Cd 0.63296 0.99306 0.01845 0.0
Cd72 Cd 0.65238 0.02245 0.01456 0.0
O73 O 0.64281 0.02334 0.04215 0.0
O74 O 0.62712 0.97266 0.02488 0.0
O75 O 0.64985 0.98981 0.02067 0.0
C76 C 0.64062 0.97654 0.02492 0.0
C77 C 0.67723 0.03739 0.01002 0.0
C78 C 0.63204 0.01288 0.05097 0.0
C79 C 0.63056 0.00636 0.97971 0.0
O80 O 0.6409 0.01788 0.98714 0.0
O81 O 0.62533 0.9946 0.98973 0.0
O82 O 0.66853 0.04238 0.00902 0.0
O83 O 0.67192 0.02393 0.01448 0.0
O84 O 0.68291 0.72158 0.37982 0.0
Cd85 Cd 0.69204 0.7161 0.35586 0.0
Cd86 Cd 0.66454 0.7025 0.34092 0.0
O87 O 0.66081 0.7113 0.36723 0.0
O88 O 0.71046 0.71784 0.36625 0.0
O89 O 0.69162 0.69718 0.35673 0.0
C90 C 0.70459 0.70408 0.36396 0.0
C91 C 0.65039 0.67782 0.33392 0.0
C92 C 0.66992 0.71877 0.38115 0.0
C93 C 0.68734 0.72608 0.31452 0.0
O94 O 0.67423 0.71625 0.31618 0.0
O95 O 0.69634 0.72788 0.3287 0.0
O96 O 0.64567 0.68657 0.33036 0.0
O97 O 0.6631 0.68305 0.34181 0.0
O98 O 0.29658 0.97335 0.37562 0.0
Cd99 Cd 0.30802 0.98677 0.35149 0.0
Cd100 Cd 0.31714 0.96699 0.34863 0.0
O101 O 0.30649 0.95961 0.3768 0.0
O102 O 0.30633 0.00428 0.35622 0.0
O103 O 0.32709 0.00464 0.35746 0.0
C104 C 0.32 0.0114 0.35953 0.0
C105 C 0.33986 0.96953 0.34252 0.0
C106 C 0.29777 0.96329 0.38409 0.0
C107 C 0.29859 0.96822 0.31398 0.0
O108 O 0.30438 0.96163 0.32239 0.0
O109 O 0.2996 0.9794 0.32239 0.0
O110 O 0.32843 0.95706 0.344 0.0
O111 O 0.33856 0.98073 0.34563 0.0
O112 O 0.06001 0.35025 0.32108 0.0
Cd113 Cd 0.05271 0.35688 0.34612 0.0
Cd114 Cd 0.03678 0.32767 0.35204 0.0
O115 O 0.04466 0.32693 0.3231 0.0
O116 O 0.06032 0.37777 0.34063 0.0
O117 O 0.03706 0.36198 0.3416 0.0
C118 C 0.04725 0.37509 0.33873 0.0
C119 C 0.01213 0.31396 0.3594 0.0
C120 C 0.0549 0.3376 0.31382 0.0
C121 C 0.05911 0.34497 0.38424 0.0
O122 O 0.0506 0.33254 0.37694 0.0
O123 O 0.06069 0.35618 0.37507 0.0
O124 O 0.02006 0.3081 0.35774 0.0
O125 O 0.01815 0.32768 0.35628 0.0
O126 O 0.66812 0.9602 0.3188 0.0
Cd127 Cd 0.66292 0.96679 0.34611 0.0
Cd128 Cd 0.69126 0.98525 0.34609 0.0
O129 O 0.69042 0.97828 0.31616 0.0
O130 O 0.64167 0.959 0.34548 0.0
O131 O 0.65753 0.9823 0.34375 0.0
C132 C 0.64426 0.97205 0.34354 0.0
C133 C 0.70337 0.00963 0.35522 0.0
C134 C 0.6799 0.96685 0.3088 0.0
C135 C 0.67984 0.96198 0.37837 0.0
O136 O 0.69074 0.97131 0.36839 0.0
O137 O 0.66728 0.95945 0.37358 0.0
O138 O 0.71027 1.00319 0.34975 0.0
O139 O 0.68946 1.00234 0.35468 0.0
O140 O 0.05722 0.71319 0.32088 0.0
Cd141 Cd 0.05221 0.69871 0.34506 0.0
Cd142 Cd 0.03595 0.71127 0.35803 0.0
O143 O 0.04488 0.72343 0.33164 0.0
O144 O 0.06 0.68593 0.33711 0.0
O145 O 0.03673 0.67783 0.34124 0.0
C146 C 0.047 0.67527 0.33697 0.0
C147 C 0.01159 0.70279 0.3654 0.0
C148 C 0.05332 0.72253 0.31863 0.0
C149 C 0.05958 0.71413 0.38642 0.0
O150 O 0.04934 0.71664 0.38334 0.0
O151 O 0.06232 0.70703 0.37322 0.0
O152 O 0.02122 0.71611 0.36782 0.0
O153 O 0.01569 0.69415 0.35826 0.0
O154 O 0.29696 0.33578 0.38178 0.0
Cd155 Cd 0.30279 0.32887 0.35547 0.0
Cd156 Cd 0.32286 0.3572 0.35345 0.0
O157 O 0.31599 0.35756 0.38324 0.0
O158 O 0.29367 0.30756 0.35864 0.0
O159 O 0.31725 0.32217 0.35868 0.0
C160 C 0.30641 0.30927 0.3605 0.0
C161 C 0.34729 0.36787 0.34496 0.0
C162 C 0.30431 0.34772 0.39112 0.0
C163 C 0.29989 0.34527 0.32041 0.0
O164 O 0.30965 0.35635 0.3296 0.0
O165 O 0.29621 0.33274 0.32713 0.0
O166 O 0.34143 0.37556 0.34903 0.0
O167 O 0.33938 0.35404 0.34658 0.0
O168 O 0.35138 0.05657 0.71319 0.0
Cd169 Cd 0.35555 0.04854 0.68654 0.0
Cd170 Cd 0.32688 0.03174 0.68748 0.0
O171 O 0.32945 0.0383 0.71805 0.0
O172 O 0.37564 0.0521 0.68915 0.0
O173 O 0.35639 0.03029 0.68911 0.0
C174 C 0.3702 0.03835 0.69098 0.0
C175 C 0.30899 0.00818 0.67871 0.0
C176 C 0.34019 0.04994 0.72441 0.0
C177 C 0.34057 0.05549 0.65503 0.0
O178 O 0.32958 0.0471 0.66575 0.0
O179 O 0.3527 0.05655 0.65882 0.0
O180 O 0.30586 0.0177 0.68488 0.0
O181 O 0.32243 0.01182 0.67818 0.0
O182 O 0.96155 0.29938 0.71157 0.0
Cd183 Cd 0.96852 0.31435 0.6878 0.0
Cd184 Cd 0.98498 0.30075 0.68028 0.0
O185 O 0.9774 0.29199 0.70925 0.0
O186 O 0.95903 0.3257 0.69512 0.0
O187 O 0.98264 0.33538 0.6939 0.0
C188 C 0.97159 0.33683 0.69759 0.0
C189 C 0.00921 0.30933 0.67197 0.0
C190 C 0.96695 0.29202 0.71852 0.0
C191 C 0.96263 0.29745 0.64858 0.0
O192 O 0.97075 0.29295 0.65559 0.0
O193 O 0.96124 0.30701 0.65824 0.0
O194 O 1.0 0.29574 0.67263 0.0
O195 O 1.00476 0.31817 0.67658 0.0
O196 O 0.72597 0.68838 0.65879 0.0
Cd197 Cd 0.71651 0.69143 0.68458 0.0
Cd198 Cd 0.70013 0.66103 0.6807 0.0
O199 O 0.71144 0.6652 0.65311 0.0
O200 O 0.72447 0.71269 0.68414 0.0
O201 O 0.70137 0.69715 0.67962 0.0
C202 C 0.71175 0.71036 0.67986 0.0
C203 C 0.67579 0.64315 0.68202 0.0
C204 C 0.72214 0.67722 0.64779 0.0
C205 C 0.71885 0.67398 0.71906 0.0
O206 O 0.71109 0.66303 0.70786 0.0
O207 O 0.72176 0.6865 0.71324 0.0
O208 O 0.68579 0.64003 0.67903 0.0
O209 O 0.67949 0.65658 0.68356 0.0
O210 O 0.34286 0.29578 0.65138 0.0
Cd211 Cd 0.33464 0.30027 0.67765 0.0
Cd212 Cd 0.36288 0.32087 0.68188 0.0
O213 O 0.36493 0.31438 0.65263 0.0
O214 O 0.31343 0.29012 0.6727 0.0
O215 O 0.32666 0.31379 0.675 0.0
C216 C 0.31424 0.30251 0.67173 0.0
C217 C 0.3728 0.34521 0.69041 0.0
C218 C 0.35537 0.30312 0.64353 0.0
C219 C 0.35023 0.29715 0.71388 0.0
O220 O 0.36144 0.30757 0.70589 0.0
O221 O 0.3379 0.29301 0.70596 0.0
O222 O 0.38083 0.33959 0.68733 0.0
O223 O 0.35908 0.3371 0.68785 0.0
O224 O 0.72166 0.04742 0.65741 0.0
Cd225 Cd 0.71402 0.03271 0.6813 0.0
Cd226 Cd 0.70136 0.04827 0.69252 0.0
O227 O 0.71013 0.05911 0.66486 0.0
O228 O 0.71713 0.01658 0.6724 0.0
O229 O 0.69553 0.01386 0.67743 0.0
C230 C 0.70334 0.00835 0.67199 0.0
C231 C 0.67666 0.03778 0.69884 0.0
C232 C 0.71864 0.05721 0.65326 0.0
C233 C 0.72378 0.04889 0.72147 0.0
O234 O 0.71514 0.0535 0.71771 0.0
O235 O 0.72457 0.04002 0.70923 0.0
O236 O 0.68523 0.05142 0.70128 0.0
O237 O 0.68211 0.03009 0.69253 0.0
O238 O 0.9643 0.66955 0.71507 0.0
Cd239 Cd 0.97105 0.66231 0.6902 0.0
Cd240 Cd 0.98543 0.69086 0.6806 0.0
O241 O 0.97701 0.69283 0.7085 0.0
O242 O 0.96653 0.64241 0.69783 0.0
O243 O 0.98872 0.66035 0.693 0.0
C244 C 0.98017 0.64702 0.69784 0.0
C245 C 0.01006 0.70477 0.6733 0.0
C246 C 0.9681 0.68247 0.71983 0.0
C247 C 0.96254 0.67098 0.65072 0.0
O248 O 0.97165 0.6839 0.65548 0.0
O249 O 0.96099 0.66063 0.66214 0.0
O250 O 1.00176 0.71027 0.673 0.0
O251 O 1.00442 0.69135 0.67836 0.0
H252 H 0.24612 0.35672 0.14914 0.0
N253 N 0.22238 0.33142 0.13773 0.0
H254 H 0.25939 0.36165 0.18147 0.0
H255 H 0.21576 0.31401 0.17052 0.0
H256 H 0.22868 0.31906 0.20358 0.0
H257 H 0.23833 0.31988 0.12683 0.0
H258 H 0.25761 0.32876 0.10154 0.0
H259 H 0.22871 0.35291 0.10891 0.0
H260 H 0.24675 0.36083 0.08195 0.0
H261 H 0.22086 0.35424 0.15485 0.0
H262 H 0.19752 0.31602 0.11761 0.0
H263 H 0.20042 0.35785 0.15467 0.0
H264 H 0.17722 0.32033 0.11559 0.0
H265 H 0.13298 0.36742 0.15902 0.0
H266 H 0.11749 0.36259 0.18923 0.0
H267 H 0.11211 0.31994 0.1938 0.0
H268 H 0.12699 0.32465 0.16319 0.0
H269 H 0.1131 0.3251 0.12924 0.0
H270 H 0.09605 0.32384 0.10322 0.0
H271 H 0.12757 0.36624 0.08132 0.0
H272 H 0.14407 0.36775 0.10856 0.0
H273 H 0.16629 0.36876 0.1404 0.0
H274 H 0.1869 0.36512 0.13763 0.0
H275 H 0.15785 0.31918 0.13197 0.0
N276 N 0.1386 0.34912 0.13915 0.0
H277 H 0.13744 0.32332 0.13257 0.0
C278 C 0.22995 0.3349 0.15733 0.0
C279 C 0.24224 0.34842 0.1609 0.0
C280 C 0.24976 0.35127 0.17955 0.0
C281 C 0.24512 0.34077 0.19524 0.0
C282 C 0.2327 0.32733 0.19176 0.0
C283 C 0.22522 0.32445 0.17298 0.0
C284 C 0.232 0.33563 0.12002 0.0
C285 C 0.24008 0.32877 0.11693 0.0
C286 C 0.2511 0.33386 0.1022 0.0
C287 C 0.25408 0.34573 0.0895 0.0
C288 C 0.2453 0.35201 0.09174 0.0
C289 C 0.23464 0.34727 0.10706 0.0
C290 C 0.21069 0.33456 0.13662 0.0
C291 C 0.21138 0.34662 0.14643 0.0
C292 C 0.19959 0.34883 0.14601 0.0
C293 C 0.18693 0.33941 0.13512 0.0
C294 C 0.18652 0.32767 0.12463 0.0
C295 C 0.19821 0.32524 0.12555 0.0
C296 C 0.13131 0.34653 0.15883 0.0
C297 C 0.12864 0.35713 0.16681 0.0
C298 C 0.11979 0.35434 0.18413 0.0
C299 C 0.11343 0.34082 0.19397 0.0
C300 C 0.11659 0.33038 0.18643 0.0
C301 C 0.12533 0.33315 0.16898 0.0
C302 C 0.12975 0.3467 0.12112 0.0
C303 C 0.11638 0.33405 0.11869 0.0
C304 C 0.10665 0.33332 0.10361 0.0
C305 C 0.11022 0.34508 0.09035 0.0
C306 C 0.12418 0.35716 0.09167 0.0
C307 C 0.13375 0.35799 0.10702 0.0
C308 C 0.15038 0.34632 0.13729 0.0
C309 C 0.16445 0.35793 0.13846 0.0
C310 C 0.17623 0.35575 0.1371 0.0
C311 C 0.17424 0.34177 0.13505 0.0
C312 C 0.16 0.33013 0.13342 0.0
C313 C 0.14821 0.33242 0.13417 0.0
H314 H 0.71262 0.80823 0.15446 0.0
N315 N 0.68798 0.80081 0.13529 0.0
H316 H 0.7162 0.79804 0.18621 0.0
H317 H 0.66672 0.78089 0.1605 0.0
H318 H 0.67001 0.77152 0.19299 0.0
H319 H 0.65964 0.78294 0.12508 0.0
H320 H 0.65039 0.7631 0.10032 0.0
H321 H 0.70309 0.79389 0.11002 0.0
H322 H 0.69394 0.77417 0.08484 0.0
H323 H 0.70222 0.82617 0.11637 0.0
H324 H 0.6644 0.80032 0.15329 0.0
H325 H 0.69617 0.84538 0.11509 0.0
H326 H 0.65861 0.81948 0.15281 0.0
H327 H 0.68736 0.9037 0.14369 0.0
H328 H 0.69366 0.91992 0.17273 0.0
H329 H 0.65415 0.88955 0.20359 0.0
H330 H 0.6474 0.87376 0.17331 0.0
H331 H 0.63766 0.87688 0.12392 0.0
H332 H 0.63523 0.89138 0.09689 0.0
H333 H 0.68101 0.91164 0.08486 0.0
H334 H 0.68279 0.89582 0.11017 0.0
H335 H 0.68904 0.88242 0.13675 0.0
H336 H 0.6953 0.86342 0.13563 0.0
H337 H 0.65013 0.83147 0.13128 0.0
N338 N 0.66175 0.87859 0.13781 0.0
H339 H 0.64402 0.85057 0.13328 0.0
C340 C 0.68946 0.79561 0.15524 0.0
C341 C 0.7033 0.80031 0.16298 0.0
C342 C 0.70529 0.79449 0.18123 0.0
C343 C 0.6934 0.7839 0.1924 0.0
C344 C 0.67948 0.77944 0.18477 0.0
C345 C 0.67754 0.78506 0.16629 0.0
C346 C 0.68212 0.78998 0.11931 0.0
C347 C 0.66721 0.78124 0.11622 0.0
C348 C 0.66193 0.76988 0.10197 0.0
C349 C 0.67142 0.767 0.0906 0.0
C350 C 0.68632 0.77596 0.0935 0.0
C351 C 0.69158 0.78731 0.10771 0.0
C352 C 0.6839 0.8118 0.13498 0.0
C353 C 0.69266 0.82467 0.12429 0.0
C354 C 0.68923 0.83567 0.1237 0.0
C355 C 0.67689 0.83406 0.13387 0.0
C356 C 0.66807 0.82108 0.14451 0.0
C357 C 0.67148 0.81007 0.14498 0.0
C358 C 0.66672 0.88752 0.15609 0.0
C359 C 0.67998 0.90046 0.15657 0.0
C360 C 0.68369 0.90974 0.1735 0.0
C361 C 0.67441 0.9062 0.19067 0.0
C362 C 0.66144 0.89289 0.19053 0.0
C363 C 0.65763 0.88373 0.17335 0.0
C364 C 0.66042 0.88551 0.11945 0.0
C365 C 0.64705 0.8842 0.11498 0.0
C366 C 0.64578 0.89275 0.09973 0.0
C367 C 0.65801 0.90322 0.08898 0.0
C368 C 0.67128 0.90382 0.09263 0.0
C369 C 0.6724 0.89487 0.10742 0.0
C370 C 0.666 0.86787 0.13531 0.0
C371 C 0.6805 0.87135 0.1355 0.0
C372 C 0.68406 0.86043 0.13472 0.0
C373 C 0.67323 0.84582 0.13357 0.0
C374 C 0.65877 0.84251 0.13265 0.0
C375 C 0.65524 0.85341 0.13358 0.0
H376 H 0.12746 0.7811 0.1637 0.0
N377 N 0.12491 0.80105 0.14039 0.0
H378 H 0.11609 0.77129 0.19693 0.0
H379 H 0.1086 0.80835 0.16238 0.0
H380 H 0.09602 0.79768 0.19474 0.0
H381 H 0.09868 0.78722 0.12429 0.0
H382 H 0.08808 0.76562 0.1031 0.0
H383 H 0.13964 0.78884 0.1224 0.0
H384 H 0.12958 0.76808 0.09963 0.0
H385 H 0.14879 0.802 0.15804 0.0
H386 H 0.13484 0.82598 0.12044 0.0
H387 H 0.17329 0.82198 0.15716 0.0
H388 H 0.15971 0.84602 0.1187 0.0
H389 H 0.23788 0.87739 0.17671 0.0
H390 H 0.2468 0.89269 0.20746 0.0
H391 H 0.2348 0.92196 0.1798 0.0
H392 H 0.22505 0.90613 0.15018 0.0
H393 H 0.22418 0.90049 0.11601 0.0
H394 H 0.24209 0.91658 0.09117 0.0
H395 H 0.26644 0.89484 0.10124 0.0
H396 H 0.24921 0.87998 0.12776 0.0
H397 H 0.2183 0.8544 0.13779 0.0
H398 H 0.19351 0.83449 0.13545 0.0
H399 H 0.17816 0.86483 0.13912 0.0
N400 N 0.22725 0.88217 0.14232 0.0
H401 H 0.20307 0.88468 0.14054 0.0
C402 C 0.11921 0.79581 0.16083 0.0
C403 C 0.12105 0.78516 0.17076 0.0
C404 C 0.11421 0.77929 0.18963 0.0
C405 C 0.10498 0.78357 0.19871 0.0
C406 C 0.10324 0.79428 0.18866 0.0
C407 C 0.11038 0.80038 0.17006 0.0
C408 C 0.11993 0.78976 0.125 0.0
C409 C 0.1055 0.78316 0.11872 0.0
C410 C 0.09948 0.77079 0.10641 0.0
C411 C 0.10786 0.76484 0.09956 0.0
C412 C 0.12259 0.77198 0.10497 0.0
C413 C 0.12849 0.78412 0.11783 0.0
C414 C 0.1398 0.81248 0.13943 0.0
C415 C 0.15093 0.81152 0.1495 0.0
C416 C 0.1651 0.823 0.14877 0.0
C417 C 0.16859 0.83569 0.13781 0.0
C418 C 0.15745 0.83654 0.12753 0.0
C419 C 0.14324 0.82505 0.12837 0.0
C420 C 0.23095 0.89062 0.16103 0.0
C421 C 0.23696 0.88698 0.17757 0.0
C422 C 0.24223 0.89588 0.195 0.0
C423 C 0.24178 0.90878 0.19612 0.0
C424 C 0.23525 0.9121 0.17975 0.0
C425 C 0.22976 0.90306 0.16253 0.0
C426 C 0.23567 0.88938 0.12426 0.0
C427 C 0.23343 0.89928 0.11295 0.0
C428 C 0.24366 0.90838 0.09843 0.0
C429 C 0.25609 0.90741 0.09441 0.0
C430 C 0.25744 0.89645 0.10442 0.0
C431 C 0.24746 0.88772 0.11937 0.0
C432 C 0.21253 0.87096 0.13953 0.0
C433 C 0.20955 0.85672 0.13786 0.0
C434 C 0.19536 0.84535 0.13672 0.0
C435 C 0.18374 0.84797 0.13741 0.0
C436 C 0.18679 0.86237 0.13842 0.0
C437 C 0.20106 0.87377 0.13938 0.0
H438 H 0.36186 0.24422 0.8855 0.0
N439 N 0.33671 0.22025 0.89747 0.0
H440 H 0.36637 0.25719 0.85311 0.0
H441 H 0.319 0.21346 0.86512 0.0
H442 H 0.32368 0.22615 0.83188 0.0
H443 H 0.31911 0.22786 0.91513 0.0
H444 H 0.32466 0.24541 0.9429 0.0
H445 H 0.36178 0.23371 0.91994 0.0
H446 H 0.36763 0.25158 0.94706 0.0
H447 H 0.36161 0.22077 0.88542 0.0
H448 H 0.31995 0.1941 0.91314 0.0
H449 H 0.36613 0.20072 0.88606 0.0
H450 H 0.32469 0.17406 0.915 0.0
H451 H 0.37388 0.14066 0.86336 0.0
H452 H 0.36823 0.12363 0.835 0.0
H453 H 0.32407 0.09975 0.8562 0.0
H454 H 0.33022 0.11608 0.88533 0.0
H455 H 0.33534 0.12345 0.92291 0.0
H456 H 0.33466 0.10642 0.94879 0.0
H457 H 0.37797 0.11741 0.9315 0.0
H458 H 0.37865 0.13475 0.90661 0.0
H459 H 0.37583 0.16569 0.90317 0.0
H460 H 0.37139 0.18587 0.90609 0.0
H461 H 0.32612 0.15683 0.89462 0.0
N462 N 0.35703 0.13835 0.89497 0.0
H463 H 0.33058 0.13677 0.89301 0.0
C464 C 0.33998 0.22783 0.8779 0.0
C465 C 0.3534 0.24016 0.87402 0.0
C466 C 0.35603 0.24754 0.85527 0.0
C467 C 0.34542 0.24272 0.83973 0.0
C468 C 0.33205 0.23029 0.84355 0.0
C469 C 0.32938 0.22295 0.86245 0.0
C470 C 0.33994 0.22941 0.91545 0.0
C471 C 0.32962 0.23283 0.92235 0.0
C472 C 0.33288 0.24298 0.93807 0.0
C473 C 0.34664 0.25005 0.94719 0.0
C474 C 0.35686 0.24626 0.94066 0.0
C475 C 0.35354 0.23603 0.92503 0.0
C476 C 0.34026 0.2089 0.89894 0.0
C477 C 0.35344 0.21063 0.89182 0.0
C478 C 0.35609 0.1991 0.89243 0.0
C479 C 0.34577 0.18561 0.9005 0.0
C480 C 0.3328 0.18411 0.90824 0.0
C481 C 0.33009 0.1956 0.90737 0.0
C482 C 0.35248 0.1299 0.87625 0.0
C483 C 0.36292 0.13191 0.86154 0.0
C484 C 0.35962 0.12213 0.84529 0.0
C485 C 0.34567 0.11014 0.84324 0.0
C486 C 0.33501 0.10862 0.85742 0.0
C487 C 0.33842 0.11823 0.87392 0.0
C488 C 0.35713 0.13045 0.91295 0.0
C489 C 0.34481 0.12248 0.92521 0.0
C490 C 0.3444 0.11259 0.93982 0.0
C491 C 0.35622 0.11036 0.94224 0.0
C492 C 0.36873 0.11891 0.93052 0.0
C493 C 0.36917 0.12886 0.91618 0.0
C494 C 0.35366 0.14973 0.89759 0.0
C495 C 0.36494 0.16371 0.90149 0.0
C496 C 0.36237 0.17526 0.90295 0.0
C497 C 0.34839 0.17313 0.90032 0.0
C498 C 0.33701 0.15897 0.89694 0.0
C499 C 0.33959 0.1474 0.89576 0.0
H500 H 0.78229 0.12592 0.87489 0.0
N501 N 0.80222 0.12358 0.89841 0.0
H502 H 0.77213 0.11384 0.84212 0.0
H503 H 0.80895 0.10646 0.87759 0.0
H504 H 0.79793 0.09316 0.84596 0.0
H505 H 0.79807 0.10069 0.91957 0.0
H506 H 0.77936 0.08705 0.94499 0.0
H507 H 0.78368 0.13152 0.91454 0.0
H508 H 0.76524 0.11839 0.94095 0.0
H509 H 0.80163 0.14748 0.88447 0.0
H510 H 0.82781 0.13343 0.91608 0.0
H511 H 0.82149 0.17219 0.88501 0.0
H512 H 0.84756 0.15832 0.91799 0.0
H513 H 0.88178 0.24041 0.8634 0.0
H514 H 0.8979 0.25011 0.83378 0.0
H515 H 0.92042 0.22828 0.85461 0.0
H516 H 0.90532 0.22018 0.8852 0.0
H517 H 0.89866 0.21927 0.92353 0.0
H518 H 0.91543 0.23571 0.94947 0.0
H519 H 0.90492 0.26812 0.93067 0.0
H520 H 0.88771 0.25132 0.90579 0.0
H521 H 0.85617 0.21745 0.901 0.0
H522 H 0.83588 0.19289 0.90411 0.0
H523 H 0.86524 0.17647 0.89799 0.0
N524 N 0.88376 0.22578 0.89514 0.0
H525 H 0.88532 0.20089 0.89631 0.0
C526 C 0.79676 0.11746 0.87831 0.0
C527 C 0.78614 0.11922 0.86822 0.0
C528 C 0.78008 0.11198 0.84963 0.0
C529 C 0.78413 0.10241 0.84108 0.0
C530 C 0.79473 0.10068 0.85147 0.0
C531 C 0.80104 0.10822 0.8697 0.0
C532 C 0.79232 0.11712 0.91535 0.0
C533 C 0.79105 0.1047 0.92446 0.0
C534 C 0.78036 0.09697 0.93911 0.0
C535 C 0.77071 0.10158 0.94524 0.0
C536 C 0.7723 0.11436 0.93647 0.0
C537 C 0.78295 0.122 0.92153 0.0
C538 C 0.81332 0.13851 0.8999 0.0
C539 C 0.81161 0.1497 0.89169 0.0
C540 C 0.82302 0.16396 0.89226 0.0
C541 C 0.83632 0.16741 0.90141 0.0
C542 C 0.8377 0.15616 0.91033 0.0
C543 C 0.82637 0.14191 0.90945 0.0
C544 C 0.89202 0.22924 0.87625 0.0
C545 C 0.89009 0.23758 0.86131 0.0
C546 C 0.89934 0.24306 0.84427 0.0
C547 C 0.91062 0.24006 0.84151 0.0
C548 C 0.91213 0.23116 0.8562 0.0
C549 C 0.90316 0.22609 0.87358 0.0
C550 C 0.89181 0.23405 0.91285 0.0
C551 C 0.89967 0.22976 0.92547 0.0
C552 C 0.90943 0.23929 0.94014 0.0
C553 C 0.91173 0.25339 0.9422 0.0
C554 C 0.90337 0.25735 0.93 0.0
C555 C 0.89351 0.24776 0.91564 0.0
C556 C 0.87228 0.21113 0.89815 0.0
C557 C 0.85819 0.20851 0.90058 0.0
C558 C 0.84658 0.19442 0.90213 0.0
C559 C 0.84877 0.18253 0.90107 0.0
C560 C 0.86302 0.18524 0.89913 0.0
C561 C 0.87463 0.19935 0.89788 0.0
H562 H 0.78911 0.69935 0.88318 0.0
N563 N 0.79599 0.68085 0.89965 0.0
H564 H 0.7751 0.69623 0.85169 0.0
H565 H 0.78828 0.65946 0.87049 0.0
H566 H 0.77486 0.65655 0.83892 0.0
H567 H 0.77414 0.65292 0.90416 0.0
H568 H 0.7546 0.64406 0.92923 0.0
H569 H 0.79317 0.6953 0.93109 0.0
H570 H 0.77336 0.68649 0.95624 0.0
H571 H 0.82343 0.70156 0.90054 0.0
H572 H 0.79652 0.6554 0.902 0.0
H573 H 0.84487 0.69907 0.90137 0.0
H574 H 0.81761 0.65272 0.90127 0.0
H575 H 0.90488 0.69187 0.88376 0.0
H576 H 0.92067 0.69877 0.85361 0.0
H577 H 0.89134 0.65819 0.82444 0.0
H578 H 0.8759 0.65118 0.85518 0.0
H579 H 0.88634 0.64455 0.89867 0.0
H580 H 0.90359 0.64472 0.92336 0.0
H581 H 0.91187 0.68611 0.94618 0.0
H582 H 0.89489 0.68599 0.92061 0.0
H583 H 0.87956 0.68956 0.87798 0.0
H584 H 0.85913 0.69323 0.88174 0.0
H585 H 0.8371 0.65423 0.91817 0.0
N586 N 0.88097 0.66563 0.8906 0.0
H587 H 0.85725 0.65008 0.9129 0.0
C588 C 0.78985 0.67974 0.87933 0.0
C589 C 0.78624 0.69012 0.87334 0.0
C590 C 0.77826 0.68833 0.85531 0.0
C591 C 0.77369 0.67604 0.84286 0.0
C592 C 0.77792 0.66599 0.84836 0.0
C593 C 0.78581 0.66775 0.86643 0.0
C594 C 0.78538 0.67479 0.91598 0.0
C595 C 0.7744 0.66025 0.91584 0.0
C596 C 0.76312 0.6552 0.93017 0.0
C597 C 0.76242 0.66457 0.94474 0.0
C598 C 0.77355 0.67902 0.94513 0.0
C599 C 0.78493 0.68403 0.93093 0.0
C600 C 0.80831 0.67876 0.90101 0.0
C601 C 0.82215 0.69088 0.90094 0.0
C602 C 0.83441 0.6894 0.9012 0.0
C603 C 0.83315 0.67567 0.90121 0.0
C604 C 0.81919 0.66351 0.90162 0.0
C605 C 0.80696 0.66503 0.90177 0.0
C606 C 0.88923 0.67093 0.87174 0.0
C607 C 0.90178 0.68452 0.8708 0.0
C608 C 0.91077 0.68849 0.85344 0.0
C609 C 0.90739 0.67898 0.83661 0.0
C610 C 0.89445 0.66567 0.83726 0.0
C611 C 0.88552 0.6617 0.85468 0.0
C612 C 0.88928 0.66516 0.90787 0.0
C613 C 0.89167 0.6535 0.90933 0.0
C614 C 0.90153 0.65363 0.92355 0.0
C615 C 0.90922 0.66545 0.93687 0.0
C616 C 0.90633 0.67691 0.936 0.0
C617 C 0.8965 0.67681 0.92156 0.0
C618 C 0.86995 0.66934 0.89492 0.0
C619 C 0.8704 0.68176 0.88681 0.0
C620 C 0.85863 0.68394 0.88917 0.0
C621 C 0.84621 0.67396 0.90008 0.0
C622 C 0.84619 0.66198 0.90913 0.0
C623 C 0.85782 0.65966 0.90639 0.0
H624 H 0.76351 0.64339 0.48835 0.0
N625 N 0.78899 0.66021 0.47081 0.0
H626 H 0.75376 0.64831 0.51955 0.0
H627 H 0.80434 0.68182 0.49923 0.0
H628 H 0.79498 0.68637 0.53067 0.0
H629 H 0.78951 0.68596 0.46719 0.0
H630 H 0.77507 0.69107 0.44345 0.0
H631 H 0.77555 0.64524 0.43711 0.0
H632 H 0.76186 0.6507 0.41206 0.0
H633 H 0.79767 0.64099 0.47261 0.0
H634 H 0.81333 0.68621 0.46358 0.0
H635 H 0.82225 0.64526 0.47063 0.0
H636 H 0.83801 0.69086 0.46307 0.0
H637 H 0.8901 0.65738 0.48515 0.0
H638 H 0.89979 0.65209 0.51574 0.0
H639 H 0.91215 0.69421 0.54033 0.0
H640 H 0.903 0.69968 0.50885 0.0
H641 H 0.91426 0.70663 0.46059 0.0
H642 H 0.93137 0.70809 0.43452 0.0
H643 H 0.90612 0.66191 0.42601 0.0
H644 H 0.88834 0.66098 0.45051 0.0
H645 H 0.86776 0.65959 0.49254 0.0
H646 H 0.84312 0.65413 0.4895 0.0
H647 H 0.85626 0.68941 0.4464 0.0
N648 N 0.89177 0.68309 0.47554 0.0
H649 H 0.88127 0.69551 0.45074 0.0
C650 C 0.78464 0.66212 0.49126 0.0
C651 C 0.7705 0.65264 0.49778 0.0
C652 C 0.76496 0.65547 0.51565 0.0
C653 C 0.77352 0.66786 0.52753 0.0
C654 C 0.78796 0.67691 0.52165 0.0
C655 C 0.79342 0.67418 0.50365 0.0
C656 C 0.78335 0.66501 0.45421 0.0
C657 C 0.78365 0.67827 0.45506 0.0
C658 C 0.7754 0.68123 0.44126 0.0
C659 C 0.76694 0.67117 0.42595 0.0
C660 C 0.76778 0.65851 0.42403 0.0
C661 C 0.77578 0.65543 0.43813 0.0
C662 C 0.80364 0.66323 0.46849 0.0
C663 C 0.80647 0.65186 0.47028 0.0
C664 C 0.82058 0.65439 0.46935 0.0
C665 C 0.83231 0.66847 0.46696 0.0
C666 C 0.82937 0.67984 0.46464 0.0
C667 C 0.8152 0.67723 0.46514 0.0
C668 C 0.89593 0.67904 0.49458 0.0
C669 C 0.89494 0.66553 0.497 0.0
C670 C 0.90035 0.66244 0.51473 0.0
C671 C 0.90682 0.67273 0.53057 0.0
C672 C 0.90746 0.6861 0.52833 0.0
C673 C 0.90211 0.68921 0.51048 0.0
C674 C 0.90028 0.6837 0.45786 0.0
C675 C 0.9123 0.69691 0.45267 0.0
C676 C 0.9222 0.69764 0.43798 0.0
C677 C 0.92053 0.68504 0.42851 0.0
C678 C 0.90792 0.67188 0.43286 0.0
C679 C 0.89778 0.67126 0.44715 0.0
C680 C 0.87665 0.67813 0.47191 0.0
C681 C 0.86552 0.66619 0.4823 0.0
C682 C 0.8512 0.66295 0.48039 0.0
C683 C 0.8475 0.67134 0.46777 0.0
C684 C 0.85859 0.68286 0.45667 0.0
C685 C 0.87294 0.68626 0.4589 0.0
H686 H 0.35817 0.12818 0.49447 0.0
N687 N 0.33422 0.1259 0.47595 0.0
H688 H 0.35938 0.11922 0.5289 0.0
H689 H 0.3132 0.11372 0.50356 0.0
H690 H 0.31403 0.10417 0.53752 0.0
H691 H 0.31346 0.10132 0.46086 0.0
H692 H 0.31578 0.0851 0.43684 0.0
H693 H 0.35869 0.13183 0.45495 0.0
H694 H 0.36116 0.11592 0.42999 0.0
H695 H 0.35968 0.15053 0.48404 0.0
H696 H 0.31706 0.13441 0.45933 0.0
H697 H 0.36434 0.17518 0.48074 0.0
H698 H 0.3218 0.15904 0.45482 0.0
H699 H 0.37562 0.25356 0.47277 0.0
H700 H 0.37957 0.26826 0.50355 0.0
H701 H 0.34196 0.23296 0.53203 0.0
H702 H 0.33771 0.21873 0.50078 0.0
H703 H 0.32646 0.22343 0.46842 0.0
H704 H 0.31528 0.23311 0.44546 0.0
H705 H 0.35282 0.25099 0.40601 0.0
H706 H 0.36389 0.241 0.42903 0.0
H707 H 0.37265 0.2189 0.4581 0.0
H708 H 0.3686 0.19433 0.45874 0.0
H709 H 0.32388 0.17842 0.47403 0.0
N710 N 0.35371 0.22753 0.46488 0.0
H711 H 0.32791 0.20279 0.47226 0.0
C712 C 0.3356 0.12179 0.49667 0.0
C713 C 0.3486 0.12323 0.50401 0.0
C714 C 0.34921 0.11792 0.5236 0.0
C715 C 0.33682 0.11099 0.53612 0.0
C716 C 0.32389 0.10971 0.52862 0.0
C717 C 0.32334 0.1151 0.50918 0.0
C718 C 0.33583 0.11775 0.45953 0.0
C719 C 0.32384 0.10465 0.45386 0.0
C720 C 0.32521 0.09543 0.44001 0.0
C721 C 0.33867 0.09916 0.43129 0.0
C722 C 0.35066 0.11258 0.43654 0.0
C723 C 0.34927 0.12178 0.45064 0.0
C724 C 0.33791 0.14061 0.47217 0.0
C725 C 0.35138 0.1523 0.47765 0.0
C726 C 0.35405 0.16645 0.47557 0.0
C727 C 0.3434 0.16922 0.46769 0.0
C728 C 0.33016 0.15742 0.46144 0.0
C729 C 0.32746 0.14332 0.46377 0.0
C730 C 0.35653 0.235 0.48443 0.0
C731 C 0.36836 0.24896 0.4858 0.0
C732 C 0.37061 0.25732 0.50349 0.0
C733 C 0.3611 0.25185 0.52044 0.0
C734 C 0.3494 0.23767 0.51923 0.0
C735 C 0.34705 0.22938 0.50137 0.0
C736 C 0.34596 0.23126 0.45021 0.0
C737 C 0.33211 0.22899 0.45451 0.0
C738 C 0.32575 0.23463 0.4414 0.0
C739 C 0.33319 0.24284 0.42394 0.0
C740 C 0.34687 0.24479 0.41942 0.0
C741 C 0.35314 0.239 0.43241 0.0
C742 C 0.35068 0.21279 0.46519 0.0
C743 C 0.36197 0.21006 0.46146 0.0
C744 C 0.35963 0.19599 0.462 0.0
C745 C 0.34589 0.18426 0.4665 0.0
C746 C 0.33456 0.18706 0.47016 0.0
C747 C 0.33689 0.20112 0.46936 0.0
H748 H 0.79424 0.09793 0.49883 0.0
N749 N 0.80173 0.1212 0.47619 0.0
H750 H 0.77901 0.09 0.5295 0.0
H751 H 0.79138 0.13652 0.49634 0.0
H752 H 0.7767 0.12916 0.52796 0.0
H753 H 0.78187 0.1266 0.4583 0.0
H754 H 0.76429 0.11185 0.43197 0.0
H755 H 0.80116 0.09982 0.45484 0.0
H756 H 0.78312 0.08436 0.42969 0.0
H757 H 0.82704 0.12748 0.49182 0.0
H758 H 0.80599 0.1459 0.45686 0.0
H759 H 0.84969 0.15021 0.48994 0.0
H760 H 0.82879 0.16848 0.45372 0.0
H761 H 0.91483 0.21491 0.49971 0.0
H762 H 0.92454 0.23082 0.52956 0.0
H763 H 0.89485 0.24633 0.51808 0.0
H764 H 0.88626 0.23133 0.48726 0.0
H765 H 0.88933 0.2304 0.44749 0.0
H766 H 0.90523 0.24779 0.42152 0.0
H767 H 0.93654 0.23431 0.43278 0.0
H768 H 0.92025 0.21663 0.45765 0.0
H769 H 0.8915 0.18738 0.46914 0.0
H770 H 0.86848 0.16491 0.46819 0.0
H771 H 0.8462 0.18917 0.47075 0.0
N772 N 0.89598 0.21396 0.47223 0.0
H773 H 0.86932 0.21153 0.47017 0.0
C774 C 0.79403 0.11782 0.49551 0.0
C775 C 0.79055 0.10484 0.5053 0.0
C776 C 0.7819 0.10039 0.52295 0.0
C777 C 0.77664 0.10896 0.53148 0.0
C778 C 0.78038 0.12217 0.52177 0.0
C779 C 0.78891 0.12651 0.50383 0.0
C780 C 0.793 0.11444 0.4582 0.0
C781 C 0.78255 0.11775 0.45144 0.0
C782 C 0.7723 0.10909 0.43665 0.0
C783 C 0.77207 0.09672 0.4287 0.0
C784 C 0.78299 0.09386 0.43499 0.0
C785 C 0.79335 0.10268 0.44946 0.0
C786 C 0.81486 0.13487 0.47432 0.0
C787 C 0.82738 0.13642 0.4835 0.0
C788 C 0.84038 0.14943 0.48219 0.0
C789 C 0.84126 0.16126 0.47137 0.0
C790 C 0.82859 0.15971 0.46231 0.0
C791 C 0.8155 0.1467 0.46392 0.0
C792 C 0.89967 0.22172 0.4915 0.0
C793 C 0.91031 0.22161 0.50391 0.0
C794 C 0.91579 0.2307 0.52107 0.0
C795 C 0.91054 0.23999 0.52644 0.0
C796 C 0.89941 0.2396 0.51434 0.0
C797 C 0.8942 0.23074 0.49687 0.0
C798 C 0.90361 0.22216 0.45429 0.0
C799 C 0.89942 0.23093 0.44377 0.0
C800 C 0.90865 0.24101 0.42914 0.0
C801 C 0.92232 0.24264 0.42503 0.0
C802 C 0.92608 0.23331 0.43505 0.0
C803 C 0.91679 0.22317 0.44938 0.0
C804 C 0.88217 0.20109 0.47007 0.0
C805 C 0.88162 0.18779 0.46923 0.0
C806 C 0.8684 0.17495 0.46895 0.0
C807 C 0.85533 0.17508 0.46986 0.0
C808 C 0.85595 0.18854 0.46997 0.0
C809 C 0.86923 0.20141 0.46989 0.0
H810 H 0.03627 0.57832 0.19811 0.0
N811 N 0.01959 0.55617 0.22214 0.0
H812 H 0.02902 0.58817 0.16962 0.0
H813 H 0.99236 0.54466 0.20666 0.0
H814 H 0.98492 0.5539 0.17718 0.0
H815 H 0.99889 0.55831 0.24374 0.0
H816 H 1.00309 0.57554 0.27161 0.0
H817 H 0.0442 0.57269 0.24166 0.0
H818 H 0.04865 0.59014 0.26898 0.0
H819 H 0.0324 0.54436 0.20137 0.0
H820 H 0.99853 0.53444 0.24537 0.0
H821 H 0.02718 0.51948 0.20251 0.0
H822 H 0.9937 0.50963 0.24769 0.0
H823 H 0.02458 0.45621 0.21502 0.0
H824 H 0.02964 0.44767 0.18301 0.0
H825 H 0.98673 0.43458 0.16101 0.0
H826 H 0.98159 0.44273 0.19374 0.0
H827 H 0.98874 0.42597 0.23453 0.0
H828 H 0.99808 0.41538 0.25891 0.0
H829 H 0.02669 0.45764 0.28406 0.0
H830 H 0.01805 0.46822 0.25897 0.0
H831 H 0.02513 0.47845 0.22257 0.0
H832 H 0.02974 0.50306 0.22265 0.0
H833 H 0.98424 0.48728 0.23103 0.0
N834 N 0.9989 0.45377 0.22652 0.0
H835 H 0.9799 0.4626 0.232 0.0
C836 C 0.01491 0.56072 0.20425 0.0
C837 C 0.02507 0.57289 0.19344 0.0
C838 C 0.02087 0.57843 0.17704 0.0
C839 C 0.00636 0.57177 0.17081 0.0
C840 C 0.99616 0.55941 0.18161 0.0
C841 C 1.00039 0.55399 0.19831 0.0
C842 C 0.02127 0.56419 0.24082 0.0
C843 C 0.0097 0.56497 0.24965 0.0
C844 C 0.01216 0.57495 0.26538 0.0
C845 C 0.02623 0.58432 0.27254 0.0
C846 C 0.03765 0.58299 0.2642 0.0
C847 C 0.03516 0.57302 0.24855 0.0
C848 C 0.01601 0.54131 0.22341 0.0
C849 C 0.02391 0.53679 0.21146 0.0
C850 C 0.02098 0.52255 0.21232 0.0
C851 C 0.01013 0.51245 0.22545 0.0
C852 C 1.00206 0.517 0.23727 0.0
C853 C 1.00488 0.53126 0.23613 0.0
C854 C 1.00264 0.45009 0.2068 0.0
C855 C 0.0163 0.45167 0.20324 0.0
C856 C 0.0192 0.44679 0.18481 0.0
C857 C 0.0086 0.4404 0.16931 0.0
C858 C 0.99508 0.43922 0.17269 0.0
C859 C 0.99215 0.444 0.19127 0.0
C860 C 1.00288 0.44796 0.24409 0.0
C861 C 0.99695 0.43296 0.24544 0.0
C862 C 1.00228 0.42688 0.25958 0.0
C863 C 0.01345 0.43564 0.2733 0.0
C864 C 0.0185 0.45056 0.27323 0.0
C865 C 0.01342 0.45668 0.25874 0.0
C866 C 1.00212 0.46859 0.22748 0.0
C867 C 0.01615 0.48025 0.22459 0.0
C868 C 0.01875 0.4944 0.22446 0.0
C869 C 0.00736 0.49731 0.22667 0.0
C870 C 0.99334 0.48559 0.2296 0.0
C871 C 0.9908 0.47143 0.23007 0.0
H872 H 0.57638 0.54694 0.19677 0.0
N873 N 0.56206 0.551 0.22715 0.0
H874 H 0.58346 0.55934 0.16335 0.0
H875 H 0.55424 0.5699 0.21222 0.0
H876 H 0.56182 0.58291 0.17947 0.0
H877 H 0.55366 0.56734 0.24945 0.0
H878 H 0.56837 0.58615 0.27431 0.0
H879 H 0.58734 0.55689 0.24249 0.0
H880 H 0.60232 0.57591 0.26698 0.0
H881 H 0.55772 0.52447 0.22922 0.0
H882 H 0.53545 0.54851 0.23144 0.0
H883 H 0.53487 0.50201 0.23179 0.0
H884 H 0.51252 0.52618 0.23554 0.0
H885 H 0.47369 0.44165 0.20064 0.0
H886 H 0.4605 0.4328 0.16791 0.0
H887 H 0.43589 0.45356 0.18264 0.0
H888 H 0.44941 0.46271 0.21451 0.0
H889 H 0.44974 0.46147 0.2496 0.0
H890 H 0.43102 0.44462 0.27291 0.0
H891 H 0.45202 0.41907 0.27517 0.0
H892 H 0.46961 0.43517 0.24993 0.0
H893 H 0.49391 0.4631 0.24948 0.0
H894 H 0.51588 0.48642 0.25212 0.0
H895 H 0.49522 0.50598 0.21828 0.0
N896 N 0.46963 0.45682 0.22993 0.0
H897 H 0.47307 0.48287 0.21721 0.0
C898 C 0.56485 0.55751 0.20694 0.0
C899 C 0.573 0.55462 0.19284 0.0
C900 C 0.57718 0.56187 0.17387 0.0
C901 C 0.57337 0.57229 0.16869 0.0
C902 C 0.56484 0.57486 0.18272 0.0
C903 C 0.56054 0.56748 0.20159 0.0
C904 C 0.56937 0.56059 0.24418 0.0
C905 C 0.5641 0.56889 0.25351 0.0
C906 C 0.57263 0.57979 0.26761 0.0
C907 C 0.58661 0.58266 0.27262 0.0
C908 C 0.59157 0.57393 0.2638 0.0
C909 C 0.58304 0.56305 0.24976 0.0
C910 C 0.54836 0.53816 0.23049 0.0
C911 C 0.54787 0.52488 0.2308 0.0
C912 C 0.53473 0.51202 0.23245 0.0
C913 C 0.52167 0.51211 0.23412 0.0
C914 C 0.52224 0.52555 0.23409 0.0
C915 C 0.53543 0.53843 0.23208 0.0
C916 C 0.46263 0.45289 0.21 0.0
C917 C 0.4656 0.44445 0.19654 0.0
C918 C 0.45793 0.43928 0.17799 0.0
C919 C 0.44708 0.44243 0.17259 0.0
C920 C 0.4443 0.45108 0.18605 0.0
C921 C 0.452 0.45627 0.20448 0.0
C922 C 0.46076 0.44925 0.24747 0.0
C923 C 0.45021 0.45218 0.25504 0.0
C924 C 0.43959 0.44256 0.26871 0.0
C925 C 0.4396 0.43008 0.27566 0.0
C926 C 0.45113 0.42811 0.26958 0.0
C927 C 0.46142 0.43746 0.25541 0.0
C928 C 0.48185 0.47107 0.23294 0.0
C929 C 0.49407 0.47249 0.24298 0.0
C930 C 0.50672 0.48586 0.24421 0.0
C931 C 0.5076 0.4982 0.23499 0.0
C932 C 0.49508 0.49685 0.22569 0.0
C933 C 0.48232 0.48349 0.22487 0.0
H934 H 0.55261 0.97671 0.20295 0.0
N935 N 0.54878 0.99381 0.22861 0.0
H936 H 0.56866 0.98363 0.17309 0.0
H937 H 0.56462 0.02107 0.21263 0.0
H938 H 0.58001 0.02806 0.18211 0.0
H939 H 0.57179 0.01551 0.24876 0.0
H940 H 0.58575 0.0126 0.27657 0.0
H941 H 0.54233 0.96981 0.24877 0.0
H942 H 0.55619 0.96668 0.27622 0.0
H943 H 0.52102 0.97568 0.22213 0.0
H944 H 0.55069 0.01906 0.24132 0.0
H945 H 0.50101 0.98032 0.22536 0.0
H946 H 0.53105 0.02432 0.24297 0.0
H947 H 0.44536 0.99601 0.21433 0.0
H948 H 0.43459 0.99928 0.18311 0.0
H949 H 0.46971 0.04319 0.17841 0.0
H950 H 0.47988 0.03999 0.21054 0.0
H951 H 0.45488 0.02925 0.25157 0.0
H952 H 0.43354 0.01824 0.27323 0.0
H953 H 0.43655 0.97949 0.27696 0.0
H954 H 0.45695 0.99015 0.25348 0.0
H955 H 0.47017 0.99647 0.21105 0.0
H956 H 0.48969 0.9912 0.21009 0.0
H957 H 0.51096 0.02151 0.25995 0.0
N958 N 0.46873 0.01692 0.23511 0.0
H959 H 0.49178 0.02751 0.25958 0.0
C960 C 0.55723 0.99827 0.20988 0.0
C961 C 0.55847 0.98792 0.19829 0.0
C962 C 0.56762 0.99192 0.18114 0.0
C963 C 0.57567 0.00645 0.17499 0.0
C964 C 0.57418 0.01681 0.18647 0.0
C965 C 0.56518 0.01279 0.20385 0.0
C966 C 0.55598 0.99283 0.24683 0.0
C967 C 0.56819 0.00489 0.25503 0.0
C968 C 0.57622 1.00318 0.27078 0.0
C969 C 0.57213 0.98939 0.27865 0.0
C970 C 0.55957 0.97747 0.27084 0.0
C971 C 0.55162 0.97921 0.25512 0.0
C972 C 0.53734 0.99705 0.2311 0.0
C973 C 0.5232 0.98628 0.22681 0.0
C974 C 0.51179 0.98904 0.22847 0.0
C975 C 0.51428 1.0028 0.23414 0.0
C976 C 0.52855 0.01354 0.23876 0.0
C977 C 0.53991 0.01064 0.2375 0.0
C978 C 0.46334 0.01788 0.21498 0.0
C979 C 0.45077 0.00632 0.20652 0.0
C980 C 0.44468 0.00819 0.18848 0.0
C981 C 0.45113 0.02159 0.17823 0.0
C982 C 0.46418 0.03285 0.18611 0.0
C983 C 0.47014 0.03102 0.20434 0.0
C984 C 0.45763 0.01066 0.25084 0.0
C985 C 0.45098 0.01842 0.25728 0.0
C986 C 0.43876 0.01207 0.26989 0.0
C987 C 0.43302 0.99781 0.277 0.0
C988 C 0.44023 0.99031 0.27144 0.0
C989 C 0.45219 0.99652 0.25821 0.0
C990 C 0.47962 0.01268 0.23515 0.0
C991 C 0.47907 1.0021 0.22167 0.0
C992 C 0.49026 0.99894 0.22134 0.0
C993 C 0.50212 0.00595 0.23488 0.0
C994 C 0.5023 0.01612 0.24888 0.0
C995 C 0.49125 0.01949 0.24888 0.0
H996 H 0.44491 0.99584 0.81461 0.0
N997 N 0.46945 0.02141 0.80661 0.0
H998 H 0.43065 0.98936 0.84629 0.0
H999 H 0.47608 0.03624 0.84183 0.0
H1000 H 0.46207 0.02969 0.87399 0.0
H1001 H 0.46401 0.04225 0.79726 0.0
H1002 H 0.44683 0.04163 0.77201 0.0
H1003 H 0.45529 1.00031 0.77749 0.0
H1004 H 0.43843 0.99974 0.75142 0.0
H1005 H 0.46717 0.99479 0.81012 0.0
H1006 H 0.49637 0.03919 0.79474 0.0
H1007 H 0.48682 0.98962 0.8079 0.0
H1008 H 0.51603 0.034 0.79124 0.0
H1009 H 0.5457 0.97909 0.83158 0.0
H1010 H 0.56115 0.98194 0.86121 0.0
H1011 H 0.58616 0.02762 0.84871 0.0
H1012 H 0.57148 0.02445 0.81852 0.0
H1013 H 0.5655 0.02392 0.78148 0.0
H1014 H 0.58419 0.02845 0.75596 0.0
H1015 H 0.57386 0.98409 0.76121 0.0
H1016 H 0.55505 0.97968 0.7862 0.0
H1017 H 0.52311 0.98174 0.7898 0.0
H1018 H 0.50327 0.98677 0.78752 0.0
H1019 H 0.53119 0.02949 0.81177 0.0
N1020 N 0.5497 0.9989 0.80344 0.0
H1021 H 0.55094 0.02464 0.81284 0.0
C1022 C 0.46158 0.0166 0.82584 0.0
C1023 C 0.44882 1.00324 0.82753 0.0
C1024 C 0.44068 0.99951 0.84576 0.0
C1025 C 0.44515 0.00904 0.8627 0.0
C1026 C 0.45817 0.0222 0.86114 0.0
C1027 C 0.46627 0.02592 0.84288 0.0
C1028 C 0.46102 0.02143 0.78921 0.0
C1029 C 0.45866 0.03308 0.78699 0.0
C1030 C 0.44884 0.03269 0.77244 0.0
C1031 C 0.44115 0.02062 0.75955 0.0
C1032 C 0.44397 0.00914 0.76123 0.0
C1033 C 0.45375 0.0095 0.77599 0.0
C1034 C 0.48035 0.0175 0.80293 0.0
C1035 C 0.47778 1.00341 0.80597 0.0
C1036 C 0.48908 1.00044 0.8045 0.0
C1037 C 0.50317 0.01142 0.79962 0.0
C1038 C 0.50547 0.02532 0.79557 0.0
C1039 C 0.49421 0.0283 0.79732 0.0
C1040 C 0.55719 1.00152 0.82296 0.0
C1041 C 0.55435 0.98974 0.83558 0.0
C1042 C 0.56321 0.99142 0.85253 0.0
C1043 C 0.57508 0.00499 0.85729 0.0
C1044 C 0.57736 0.01693 0.8453 0.0
C1045 C 0.56869 0.01519 0.82817 0.0
C1046 C 0.55881 1.00139 0.78568 0.0
C1047 C 0.56703 0.0151 0.77673 0.0
C1048 C 0.57783 0.01771 0.76228 0.0
C1049 C 0.58066 0.00667 0.75657 0.0
C1050 C 0.57192 0.99282 0.7649 0.0
C1051 C 0.56114 0.99025 0.77923 0.0
C1052 C 0.53852 1.00265 0.80171 0.0
C1053 C 0.52493 0.99222 0.79444 0.0
C1054 C 0.51356 0.9951 0.79333 0.0
C1055 C 0.51549 0.00853 0.79961 0.0
C1056 C 0.52925 0.01909 0.80651 0.0
C1057 C 0.54064 0.01624 0.80738 0.0
H1058 H 0.98101 0.54006 0.84736 0.0
N1059 N 0.99485 0.54544 0.81139 0.0
H1060 H 0.98822 0.55546 0.87814 0.0
H1061 H 0.02074 0.57005 0.81729 0.0
H1062 H 0.02781 0.58572 0.84748 0.0
H1063 H 0.01504 0.55841 0.78057 0.0
H1064 H 0.0155 0.57528 0.75475 0.0
H1065 H 0.97421 0.55137 0.8031 0.0
H1066 H 0.97482 0.56867 0.77811 0.0
H1067 H 0.97651 0.51776 0.80456 0.0
H1068 H 0.02177 0.54828 0.81086 0.0
H1069 H 0.98186 0.49816 0.8012 0.0
H1070 H 0.02722 0.52879 0.80812 0.0
H1071 H 0.9968 0.44351 0.82427 0.0
H1072 H 0.99925 0.43156 0.85488 0.0
H1073 H 0.0442 0.46418 0.85925 0.0
H1074 H 0.0417 0.47576 0.82807 0.0
H1075 H 0.03136 0.4525 0.78777 0.0
H1076 H 0.02059 0.43106 0.76628 0.0
H1077 H 0.98199 0.43418 0.76081 0.0
H1078 H 0.99237 0.45472 0.78391 0.0
H1079 H 0.99527 0.46559 0.82188 0.0
H1080 H 0.98977 0.48508 0.82246 0.0
H1081 H 0.02749 0.51124 0.78515 0.0
N1082 N 0.01873 0.4662 0.80368 0.0
H1083 H 0.03312 0.49172 0.78522 0.0
C1084 C 1.00026 0.55386 0.83006 0.0
C1085 C 0.99136 0.54989 0.84753 0.0
C1086 C 0.99543 0.55879 0.86497 0.0
C1087 C 0.00853 0.57195 0.86523 0.0
C1088 C 0.01772 0.57563 0.84796 0.0
C1089 C 0.01366 0.56667 0.83058 0.0
C1090 C 0.99447 0.5535 0.79372 0.0
C1091 C 1.00602 0.56027 0.77973 0.0
C1092 C 0.00636 0.57009 0.7651 0.0
C1093 C 0.99525 0.5735 0.76433 0.0
C1094 C 0.98346 0.56622 0.77784 0.0
C1095 C 0.98308 0.55632 0.79224 0.0
C1096 C 0.99866 0.53445 0.80802 0.0
C1097 C 0.98761 0.52022 0.80512 0.0
C1098 C 0.99069 0.50903 0.80339 0.0
C1099 C 1.00497 0.51184 0.80457 0.0
C1100 C 0.01611 0.52621 0.80695 0.0
C1101 C 0.013 0.53741 0.80864 0.0
C1102 C 0.01916 0.46051 0.82379 0.0
C1103 C 0.00711 0.44825 0.83205 0.0
C1104 C 0.00853 0.44143 0.84963 0.0
C1105 C 0.02199 0.44677 0.8594 0.0
C1106 C 0.03376 0.45957 0.85185 0.0
C1107 C 0.03234 0.46631 0.83419 0.0
C1108 C 0.01279 0.45531 0.78765 0.0
C1109 C 0.02064 0.44864 0.78168 0.0
C1110 C 0.01442 0.43636 0.7692 0.0
C1111 C 1.00024 0.43058 0.7618 0.0
C1112 C 0.99274 0.4379 0.76666 0.0
C1113 C 0.99881 0.44993 0.77972 0.0
C1114 C 0.01473 0.47724 0.8036 0.0
C1115 C 1.00239 0.4755 0.81387 0.0
C1116 C 0.99918 0.48666 0.81402 0.0
C1117 C 0.00819 0.4998 0.80387 0.0
C1118 C 0.02041 0.50139 0.79339 0.0
C1119 C 0.02361 0.49022 0.79327 0.0
H1120 H 0.46438 0.44492 0.8187 0.0
N1121 N 0.46015 0.46701 0.80629 0.0
H1122 H 0.45437 0.42991 0.84915 0.0
H1123 H 0.44519 0.47027 0.83673 0.0
H1124 H 0.43576 0.45575 0.86826 0.0
H1125 H 0.43749 0.46631 0.78842 0.0
H1126 H 0.4213 0.44903 0.76295 0.0
H1127 H 0.46542 0.44836 0.78392 0.0
H1128 H 0.44856 0.42989 0.76048 0.0
H1129 H 0.48288 0.47192 0.83233 0.0
H1130 H 0.47267 0.48572 0.77498 0.0
H1131 H 0.50763 0.49051 0.82896 0.0
H1132 H 0.4979 0.50435 0.77142 0.0
H1133 H 0.58594 0.55028 0.82363 0.0
H1134 H 0.59598 0.56702 0.85271 0.0
H1135 H 0.56175 0.577 0.8467 0.0
H1136 H 0.55213 0.56062 0.81725 0.0
H1137 H 0.56353 0.56846 0.78202 0.0
H1138 H 0.57871 0.58294 0.75318 0.0
H1139 H 0.59545 0.55388 0.74714 0.0
H1140 H 0.58015 0.53946 0.77581 0.0
H1141 H 0.55417 0.51823 0.81049 0.0
H1142 H 0.52934 0.49824 0.81015 0.0
H1143 H 0.51516 0.52691 0.78686 0.0
N1144 N 0.56377 0.5454 0.79987 0.0
H1145 H 0.54012 0.54666 0.78659 0.0
C1146 C 0.45543 0.45871 0.82526 0.0
C1147 C 0.458 0.44728 0.82921 0.0
C1148 C 0.45243 0.43881 0.84693 0.0
C1149 C 0.44425 0.44159 0.8613 0.0
C1150 C 0.44183 0.45314 0.85743 0.0
C1151 C 0.44733 0.46156 0.83956 0.0
C1152 C 0.45241 0.45839 0.78854 0.0
C1153 C 0.44011 0.45861 0.78186 0.0
C1154 C 0.43072 0.44849 0.76754 0.0
C1155 C 0.43316 0.43753 0.76004 0.0
C1156 C 0.44611 0.43801 0.76574 0.0
C1157 C 0.45574 0.44848 0.77952 0.0
C1158 C 0.47554 0.47681 0.80348 0.0
C1159 C 0.48583 0.47853 0.81858 0.0
C1160 C 0.50023 0.48936 0.8167 0.0
C1161 C 0.50488 0.49895 0.79985 0.0
C1162 C 0.49472 0.49724 0.7847 0.0
C1163 C 0.48028 0.48641 0.78658 0.0
C1164 C 0.56828 0.55411 0.81835 0.0
C1165 C 0.58053 0.55596 0.82882 0.0
C1166 C 0.58621 0.5655 0.84548 0.0
C1167 C 0.57971 0.57342 0.85208 0.0
C1168 C 0.56717 0.57126 0.84186 0.0
C1169 C 0.56154 0.56175 0.82511 0.0
C1170 C 0.57072 0.55283 0.78103 0.0
C1171 C 0.57023 0.56504 0.77419 0.0
C1172 C 0.57901 0.57339 0.75781 0.0
C1173 C 0.58835 0.56962 0.74788 0.0
C1174 C 0.58827 0.55701 0.7542 0.0
C1175 C 0.57955 0.54875 0.7706 0.0
C1176 C 0.54901 0.53392 0.79873 0.0
C1177 C 0.54568 0.52013 0.8052 0.0
C1178 C 0.53146 0.50875 0.8051 0.0
C1179 C 0.52016 0.51093 0.79862 0.0
C1180 C 0.52356 0.52476 0.79175 0.0
C1181 C 0.53785 0.53614 0.79176 0.0
H1182 H 0.70883 0.90524 0.5307 0.0
N1183 N 0.6873 0.89176 0.55721 0.0
H1184 H 0.70829 0.91522 0.49702 0.0
H1185 H 0.66334 0.88875 0.53787 0.0
H1186 H 0.66238 0.89796 0.50352 0.0
H1187 H 0.6635 0.88655 0.57947 0.0
H1188 H 0.66195 0.90299 0.6043 0.0
H1189 H 0.7087 0.91637 0.57119 0.0
H1190 H 0.70723 0.93329 0.59469 0.0
H1191 H 0.70538 0.88269 0.56769 0.0
H1192 H 0.66078 0.86761 0.55418 0.0
H1193 H 0.70024 0.8578 0.57075 0.0
H1194 H 0.65553 0.84267 0.55651 0.0
H1195 H 0.68763 0.79137 0.53897 0.0
H1196 H 0.6859 0.78041 0.50522 0.0
H1197 H 0.63961 0.76184 0.50683 0.0
H1198 H 0.64172 0.77387 0.53977 0.0
H1199 H 0.65542 0.76167 0.57191 0.0
H1200 H 0.66573 0.75158 0.5953 0.0
H1201 H 0.69838 0.79464 0.61307 0.0
H1202 H 0.68883 0.80458 0.58822 0.0
H1203 H 0.68982 0.81318 0.54848 0.0
H1204 H 0.69459 0.83787 0.54864 0.0
H1205 H 0.65376 0.82391 0.57891 0.0
N1206 N 0.66531 0.7892 0.56226 0.0
H1207 H 0.64885 0.79899 0.57797 0.0
C1208 C 0.68614 0.89609 0.53655 0.0
C1209 C 0.69865 0.90348 0.52467 0.0
C1210 C 0.69826 0.90911 0.50535 0.0
C1211 C 0.68525 0.90731 0.4973 0.0
C1212 C 0.67262 0.89967 0.50921 0.0
C1213 C 0.67308 0.89419 0.52874 0.0
C1214 C 0.68629 0.9002 0.57375 0.0
C1215 C 0.67313 0.89657 0.58324 0.0
C1216 C 0.67225 0.90612 0.59723 0.0
C1217 C 0.68445 0.91961 0.60164 0.0
C1218 C 0.69764 0.92296 0.59228 0.0
C1219 C 0.69853 0.91332 0.57868 0.0
C1220 C 0.68352 0.87701 0.56069 0.0
C1221 C 0.69445 0.87396 0.56553 0.0
C1222 C 0.69149 0.85972 0.56705 0.0
C1223 C 0.67748 0.84815 0.56364 0.0
C1224 C 0.66642 0.85126 0.5594 0.0
C1225 C 0.6694 0.86555 0.55796 0.0
C1226 C 0.66479 0.7837 0.54166 0.0
C1227 C 0.67718 0.78534 0.53169 0.0
C1228 C 0.67611 0.77877 0.51253 0.0
C1229 C 0.66259 0.77011 0.50311 0.0
C1230 C 0.65025 0.76863 0.51319 0.0
C1231 C 0.65139 0.77543 0.53212 0.0
C1232 C 0.67135 0.78389 0.57774 0.0
C1233 C 0.66487 0.76895 0.58076 0.0
C1234 C 0.67073 0.76317 0.59448 0.0
C1235 C 0.68303 0.77219 0.60629 0.0
C1236 C 0.68917 0.78722 0.60393 0.0
C1237 C 0.68356 0.793 0.58968 0.0
C1238 C 0.66887 0.80412 0.5631 0.0
C1239 C 0.68184 0.81534 0.55505 0.0
C1240 C 0.68463 0.82957 0.55538 0.0
C1241 C 0.67457 0.83297 0.56381 0.0
C1242 C 0.66168 0.82172 0.57205 0.0
C1243 C 0.65889 0.80748 0.57168 0.0
H1244 H 0.2418 0.87584 0.53027 0.0
N1245 N 0.23068 0.88235 0.56278 0.0
H1246 H 0.25005 0.88894 0.49736 0.0
H1247 H 0.22849 0.90566 0.55078 0.0
H1248 H 0.23712 0.91904 0.51862 0.0
H1249 H 0.21566 0.88868 0.59204 0.0
H1250 H 0.22597 0.90771 0.6175 0.0
H1251 H 0.25827 0.89882 0.57285 0.0
H1252 H 0.26874 0.91888 0.59691 0.0
H1253 H 0.22189 0.85596 0.57737 0.0
H1254 H 0.20592 0.88232 0.55137 0.0
H1255 H 0.19725 0.83553 0.5791 0.0
H1256 H 0.1816 0.86199 0.55191 0.0
H1257 H 0.13085 0.77573 0.55196 0.0
H1258 H 0.12219 0.75998 0.52171 0.0
H1259 H 0.11155 0.78957 0.49189 0.0
H1260 H 0.11997 0.8051 0.52253 0.0
H1261 H 0.10287 0.79549 0.56613 0.0
H1262 H 0.08568 0.77896 0.59135 0.0
H1263 H 0.11812 0.76993 0.61492 0.0
H1264 H 0.13507 0.78615 0.5888 0.0
H1265 H 0.15369 0.79825 0.55601 0.0
H1266 H 0.17832 0.81832 0.55849 0.0
H1267 H 0.162 0.84697 0.57268 0.0
N1268 N 0.12899 0.79998 0.55817 0.0
H1269 H 0.13742 0.82691 0.56895 0.0
C1270 C 0.23452 0.8897 0.54298 0.0
C1271 C 0.2406 0.88515 0.52761 0.0
C1272 C 0.24543 0.89274 0.50893 0.0
C1273 C 0.24428 0.90508 0.50528 0.0
C1274 C 0.23797 0.90946 0.52064 0.0
C1275 C 0.23307 0.90184 0.53918 0.0
C1276 C 0.23618 0.89221 0.58021 0.0
C1277 C 0.22726 0.89491 0.59324 0.0
C1278 C 0.23324 0.90609 0.60775 0.0
C1279 C 0.24829 0.91527 0.60915 0.0
C1280 C 0.25715 0.91212 0.59671 0.0
C1281 C 0.25116 0.90063 0.58274 0.0
C1282 C 0.2159 0.87066 0.56404 0.0
C1283 C 0.21308 0.85732 0.57194 0.0
C1284 C 0.19898 0.84562 0.57276 0.0
C1285 C 0.18732 0.84699 0.56557 0.0
C1286 C 0.19018 0.86048 0.55791 0.0
C1287 C 0.20423 0.87217 0.5573 0.0
C1288 C 0.12603 0.79162 0.53946 0.0
C1289 C 0.12689 0.77895 0.53879 0.0
C1290 C 0.12194 0.76995 0.52143 0.0
C1291 C 0.11603 0.77343 0.50443 0.0
C1292 C 0.11579 0.78643 0.50485 0.0
C1293 C 0.12073 0.7954 0.52221 0.0
C1294 C 0.12022 0.79212 0.57566 0.0
C1295 C 0.10633 0.79016 0.57706 0.0
C1296 C 0.09653 0.78071 0.59159 0.0
C1297 C 0.10043 0.77302 0.6053 0.0
C1298 C 0.11464 0.77548 0.60446 0.0
C1299 C 0.12443 0.78489 0.58969 0.0
C1300 C 0.14366 0.81114 0.56192 0.0
C1301 C 0.1554 0.80883 0.55966 0.0
C1302 C 0.16955 0.82037 0.56128 0.0
C1303 C 0.17228 0.83442 0.56551 0.0
C1304 C 0.16043 0.83645 0.56883 0.0
C1305 C 0.14633 0.82497 0.56693 0.0
H1306 H 0.2289 0.32474 0.54833 0.0
N1307 N 0.22813 0.34641 0.56949 0.0
H1308 H 0.24309 0.3275 0.51723 0.0
H1309 H 0.2414 0.36963 0.54558 0.0
H1310 H 0.25526 0.37246 0.51407 0.0
H1311 H 0.25506 0.3592 0.58314 0.0
H1312 H 0.26633 0.34909 0.60469 0.0
H1313 H 0.21373 0.32101 0.59225 0.0
H1314 H 0.22465 0.31134 0.61517 0.0
H1315 H 0.20489 0.32082 0.55741 0.0
H1316 H 0.21759 0.36324 0.58017 0.0
H1317 H 0.1799 0.31515 0.55589 0.0
H1318 H 0.19281 0.3582 0.57723 0.0
H1319 H 0.10145 0.30655 0.53588 0.0
H1320 H 0.09238 0.31356 0.50606 0.0
H1321 H 0.13061 0.35571 0.50692 0.0
H1322 H 0.13917 0.34873 0.53746 0.0
H1323 H 0.1247 0.34721 0.57092 0.0
H1324 H 0.1083 0.34812 0.59614 0.0
H1325 H 0.09244 0.30336 0.61121 0.0
H1326 H 0.10833 0.3024 0.58485 0.0
H1327 H 0.13864 0.31297 0.5353 0.0
H1328 H 0.16357 0.31863 0.53795 0.0
H1329 H 0.16977 0.34678 0.58971 0.0
N1330 N 0.12489 0.32298 0.55806 0.0
H1331 H 0.14526 0.34195 0.58582 0.0
C1332 C 0.23421 0.34706 0.54931 0.0
C1333 C 0.23439 0.3351 0.54067 0.0
C1334 C 0.24251 0.33672 0.52286 0.0
C1335 C 0.25052 0.35027 0.5133 0.0
C1336 C 0.24952 0.36195 0.5213 0.0
C1337 C 0.24148 0.36034 0.53914 0.0
C1338 C 0.23358 0.34093 0.58558 0.0
C1339 C 0.24833 0.34879 0.59027 0.0
C1340 C 0.25477 0.34297 0.60282 0.0
C1341 C 0.24653 0.3292 0.61165 0.0
C1342 C 0.23153 0.32175 0.60815 0.0
C1343 C 0.22516 0.32741 0.59506 0.0
C1344 C 0.21309 0.34239 0.56938 0.0
C1345 C 0.20227 0.32892 0.56216 0.0
C1346 C 0.18794 0.32579 0.561 0.0
C1347 C 0.18411 0.3362 0.56635 0.0
C1348 C 0.19509 0.34972 0.5734 0.0
C1349 C 0.20934 0.35269 0.57501 0.0
C1350 C 0.12099 0.32702 0.53879 0.0
C1351 C 0.10794 0.31722 0.52939 0.0
C1352 C 0.10281 0.32127 0.51226 0.0
C1353 C 0.11072 0.33525 0.50396 0.0
C1354 C 0.12409 0.34494 0.51304 0.0
C1355 C 0.12912 0.34091 0.53037 0.0
C1356 C 0.11757 0.32463 0.57577 0.0
C1357 C 0.1178 0.33764 0.5798 0.0
C1358 C 0.10844 0.33815 0.59443 0.0
C1359 C 0.09879 0.32574 0.60561 0.0
C1360 C 0.09939 0.31304 0.60255 0.0
C1361 C 0.10861 0.31249 0.5877 0.0
C1362 C 0.13989 0.32692 0.56026 0.0
C1363 C 0.14544 0.32047 0.54709 0.0
C1364 C 0.15973 0.32361 0.54885 0.0
C1365 C 0.16887 0.33309 0.56423 0.0
C1366 C 0.16327 0.33959 0.57744 0.0
C1367 C 0.14905 0.3367 0.57535 0.0
H1368 H 0.99279 0.38453 0.07639 0.0
H1369 H 0.03791 0.411 0.05988 0.0
H1370 H 0.0412 0.42775 0.08809 0.0
H1371 H 0.98658 0.41352 0.09068 0.0
H1372 H 0.97517 0.40413 0.11242 0.0
H1373 H 0.97605 0.39413 0.0906 0.0
H1374 H 0.98319 0.37951 0.11495 0.0
H1375 H 0.98222 0.38939 0.13685 0.0
H1376 H 0.99851 0.38891 0.13184 0.0
H1377 H 0.0397 0.44209 0.11715 0.0
H1378 H 0.03394 0.45215 0.14749 0.0
H1379 H 0.99021 0.41587 0.14716 0.0
C1380 C 1.00334 0.39385 0.07873 0.0
C1381 C 0.01508 0.39643 0.06584 0.0
C1382 C 0.02875 0.40871 0.06954 0.0
C1383 C 0.03074 0.41837 0.08549 0.0
C1384 C 0.01899 0.41557 0.09781 0.0
C1385 C 1.00559 0.40356 0.09485 0.0
C1386 C 0.99494 0.40294 0.11089 0.0
C1387 C 0.98245 0.40373 0.10052 0.0
C1388 C 0.98939 0.38938 0.12443 0.0
C1389 C 1.00447 0.4165 0.12319 0.0
C1390 C 0.01825 0.42366 0.11522 0.0
C1391 C 0.02898 0.4365 0.12371 0.0
C1392 C 0.02561 0.44209 0.14106 0.0
C1393 C 0.01166 0.43477 0.15 0.0
C1394 C 1.00094 0.42185 0.1407 0.0
H1395 H 0.62939 0.61474 0.0771 0.0
H1396 H 0.59798 0.62533 0.05304 0.0
H1397 H 0.58141 0.61165 0.08145 0.0
H1398 H 0.60431 0.57878 0.09411 0.0
H1399 H 0.61411 0.57994 0.11739 0.0
H1400 H 0.62357 0.59042 0.09498 0.0
H1401 H 0.6344 0.61376 0.11691 0.0
H1402 H 0.62504 0.60334 0.1394 0.0
H1403 H 0.62255 0.61801 0.13116 0.0
H1404 H 0.5679 0.59629 0.11178 0.0
H1405 H 0.55895 0.58154 0.1434 0.0
H1406 H 0.59961 0.5821 0.14922 0.0
C1407 C 0.61902 0.61416 0.07781 0.0
C1408 C 0.61499 0.62109 0.06278 0.0
C1409 C 0.60136 0.62017 0.06438 0.0
C1410 C 0.59183 0.61237 0.08043 0.0
C1411 C 0.5961 0.60564 0.09493 0.0
C1412 C 0.60941 0.60656 0.09393 0.0
C1413 C 0.61145 0.59864 0.11189 0.0
C1414 C 0.61348 0.58621 0.10412 0.0
C1415 C 0.62411 0.60906 0.12566 0.0
C1416 C 0.59717 0.59304 0.12299 0.0
C1417 C 0.58845 0.59714 0.11287 0.0
C1418 C 0.57469 0.59313 0.11999 0.0
C1419 C 0.56973 0.58481 0.13807 0.0
C1420 C 0.57856 0.58067 0.14903 0.0
C1421 C 0.59246 0.58487 0.1412 0.0
H1422 H 0.40066 0.99939 0.07788 0.0
H1423 H 0.40824 0.04311 0.07619 0.0
H1424 H 0.42381 0.04908 0.10711 0.0
H1425 H 0.3996 0.99542 0.13325 0.0
H1426 H 0.40888 0.9853 0.13315 0.0
H1427 H 0.39811 0.98444 0.11121 0.0
H1428 H 0.42011 0.99239 0.08705 0.0
H1429 H 0.43096 0.9933 0.10891 0.0
H1430 H 0.43663 0.00884 0.09253 0.0
H1431 H 0.43816 0.05006 0.13869 0.0
H1432 H 0.4506 0.04625 0.16795 0.0
H1433 H 0.43492 1.00228 0.14744 0.0
C1434 C 0.4055 0.0102 0.08407 0.0
C1435 C 0.40315 0.02077 0.07468 0.0
C1436 C 0.40986 0.03484 0.08313 0.0
C1437 C 0.41872 0.03832 0.10069 0.0
C1438 C 0.42087 0.02766 0.10949 0.0
C1439 C 0.4145 0.01391 0.1014 0.0
C1440 C 0.4188 0.00451 0.11347 0.0
C1441 C 0.40555 0.99166 0.12335 0.0
C1442 C 0.42712 0.99947 0.09966 0.0
C1443 C 0.42849 0.0151 0.12973 0.0
C1444 C 0.42951 0.02837 0.12721 0.0
C1445 C 0.43757 0.03975 0.14067 0.0
C1446 C 0.44473 0.0375 0.15718 0.0
C1447 C 0.44393 0.02399 0.16007 0.0
C1448 C 0.43572 0.01271 0.14594 0.0
H1449 H 0.40742 0.02492 0.95785 0.0
H1450 H 0.38727 0.97957 0.97374 0.0
H1451 H 0.39927 0.97561 0.94389 0.0
H1452 H 0.4048 0.02006 0.90228 0.0
H1453 H 0.42194 0.03594 0.89743 0.0
H1454 H 0.41157 0.0351 0.91988 0.0
H1455 H 0.43332 0.0407 0.94345 0.0
H1456 H 0.44372 0.04146 0.92109 0.0
H1457 H 0.44132 0.02939 0.94211 0.0
H1458 H 0.41402 0.97674 0.9127 0.0
H1459 H 0.42978 0.98275 0.88203 0.0
H1460 H 0.43976 0.02723 0.8862 0.0
C1461 C 0.40546 0.01413 0.95504 0.0
C1462 C 0.39638 1.00256 0.96821 0.0
C1463 C 0.39414 0.98862 0.96391 0.0
C1464 C 0.40093 0.98626 0.94699 0.0
C1465 C 0.4099 0.99793 0.93447 0.0
C1466 C 0.41211 0.01158 0.93822 0.0
C1467 C 0.42227 0.02229 0.92243 0.0
C1468 C 0.41469 0.02872 0.90975 0.0
C1469 C 0.43597 0.03416 0.9329 0.0
C1470 C 0.42551 0.01257 0.90927 0.0
C1471 C 0.41828 0.99856 0.91646 0.0
C1472 C 0.41966 0.98767 0.90686 0.0
C1473 C 0.42859 0.99118 0.88938 0.0
C1474 C 0.43603 0.00546 0.88162 0.0
C1475 C 0.43442 0.01625 0.89184 0.0
H1476 H 1.00014 0.39559 0.95918 0.0
H1477 H 0.04123 0.39713 0.95303 0.0
H1478 H 0.04681 0.41268 0.92226 0.0
H1479 H 0.99271 0.3949 0.90423 0.0
H1480 H 0.9848 0.40622 0.90681 0.0
H1481 H 0.9838 0.39479 0.92796 0.0
H1482 H 0.99573 0.41698 0.95223 0.0
H1483 H 0.99684 0.42849 0.93114 0.0
H1484 H 0.01287 0.43221 0.94518 0.0
H1485 H 0.04815 0.42834 0.89256 0.0
H1486 H 0.045 0.4427 0.86546 0.0
H1487 H 1.00336 0.43169 0.89145 0.0
C1488 C 0.01025 0.39907 0.95126 0.0
C1489 C 0.02022 0.39508 0.95854 0.0
C1490 C 0.0334 0.40001 0.94779 0.0
C1491 C 0.03668 0.40886 0.93029 0.0
C1492 C 0.0267 0.41273 0.92372 0.0
C1493 C 0.01374 0.40797 0.93381 0.0
C1494 C 1.00503 0.41394 0.92376 0.0
C1495 C 0.99074 0.40173 0.91518 0.0
C1496 C 1.00247 0.42347 0.93899 0.0
C1497 C 0.01514 0.42281 0.90645 0.0
C1498 C 0.02756 0.42194 0.90672 0.0
C1499 C 0.0385 0.42916 0.89226 0.0
C1500 C 0.03665 0.43741 0.87702 0.0
C1501 C 0.02399 0.43848 0.87635 0.0
C1502 C 0.01313 0.43106 0.89139 0.0
H1503 H 0.62215 0.60628 0.95814 0.0
H1504 H 0.61901 0.64443 0.94574 0.0
H1505 H 0.60618 0.63352 0.9131 0.0
H1506 H 0.62772 0.5992 0.90517 0.0
H1507 H 0.61699 0.57993 0.90798 0.0
H1508 H 0.62631 0.59095 0.93004 0.0
H1509 H 0.60224 0.57998 0.95028 0.0
H1510 H 0.59284 0.56897 0.92826 0.0
H1511 H 0.58722 0.58082 0.93929 0.0
H1512 H 0.59342 0.61829 0.88194 0.0
H1513 H 0.58196 0.60006 0.85446 0.0
H1514 H 0.59268 0.57151 0.8879 0.0
C1515 C 0.61889 0.61242 0.9485 0.0
C1516 C 0.62165 0.62626 0.95452 0.0
C1517 C 0.61705 0.63383 0.94149 0.0
C1518 C 0.60974 0.62772 0.92291 0.0
C1519 C 0.60707 0.614 0.91758 0.0
C1520 C 0.61151 0.60645 0.92998 0.0
C1521 C 0.60705 0.59177 0.92091 0.0
C1522 C 0.62031 0.59039 0.91572 0.0
C1523 C 0.59672 0.57968 0.93556 0.0
C1524 C 0.5994 0.59224 0.90146 0.0
C1525 C 0.59955 0.60516 0.89981 0.0
C1526 C 0.59319 0.60811 0.88312 0.0
C1527 C 0.58659 0.59761 0.86766 0.0
C1528 C 0.58632 0.58427 0.86898 0.0
C1529 C 0.5928 0.58162 0.88624 0.0
H1530 H 0.99332 0.61343 0.9558 0.0
H1531 H 0.03917 0.63581 0.96905 0.0
H1532 H 0.04292 0.62289 0.9403 0.0
H1533 H 0.98978 0.57959 0.9437 0.0
H1534 H 0.97703 0.57555 0.92303 0.0
H1535 H 0.97795 0.58701 0.94405 0.0
H1536 H 0.98217 0.60716 0.91801 0.0
H1537 H 0.9811 0.5957 0.89688 0.0
H1538 H 0.99673 0.61334 0.89963 0.0
H1539 H 0.04151 0.60655 0.91123 0.0
H1540 H 0.03519 0.58902 0.8828 0.0
H1541 H 0.99042 0.57794 0.88789 0.0
C1542 C 1.00418 0.61574 0.95256 0.0
C1543 C 0.01595 0.62566 0.96474 0.0
C1544 C 0.02997 0.62831 0.95995 0.0
C1545 C 0.03222 0.62099 0.94366 0.0
C1546 C 0.02036 0.61112 0.93222 0.0
C1547 C 0.00664 0.60859 0.93632 0.0
C1548 C 0.99571 0.59734 0.9218 0.0
C1549 C 0.98445 0.58409 0.93387 0.0
C1550 C 0.98851 0.60377 0.90828 0.0
C1551 C 1.0054 0.59381 0.90907 0.0
C1552 C 0.01958 0.60186 0.91532 0.0
C1553 C 0.03046 0.60029 0.90606 0.0
C1554 C 0.02676 0.59033 0.88986 0.0
C1555 C 0.01231 0.58208 0.88299 0.0
C1556 C 1.00154 0.5839 0.89287 0.0
H1557 H 0.38666 0.39859 0.9509 0.0
H1558 H 0.41629 0.38511 0.97336 0.0
H1559 H 0.43293 0.39828 0.94483 0.0
H1560 H 0.39306 0.39608 0.89581 0.0
H1561 H 0.39173 0.41168 0.889 0.0
H1562 H 0.38184 0.40077 0.91086 0.0
H1563 H 0.39373 0.42334 0.93441 0.0
H1564 H 0.40376 0.43429 0.91267 0.0
H1565 H 0.41309 0.43396 0.9357 0.0
H1566 H 0.44706 0.41402 0.91537 0.0
H1567 H 0.45712 0.43 0.88516 0.0
H1568 H 0.418 0.43251 0.88042 0.0
C1569 C 0.39657 0.39828 0.94971 0.0
C1570 C 0.40014 0.3908 0.96446 0.0
C1571 C 0.41326 0.39072 0.9623 0.0
C1572 C 0.42283 0.39821 0.94615 0.0
C1573 C 0.41911 0.40566 0.93212 0.0
C1574 C 0.40624 0.40564 0.93355 0.0
C1575 C 0.40495 0.41461 0.9164 0.0
C1576 C 0.39213 0.40522 0.90217 0.0
C1577 C 0.40382 0.4273 0.92533 0.0
C1578 C 0.41918 0.41978 0.90531 0.0
C1579 C 0.42717 0.41451 0.9147 0.0
C1580 C 0.44082 0.41805 0.90767 0.0
C1581 C 0.44641 0.42709 0.89039 0.0
C1582 C 0.43832 0.43244 0.88014 0.0
C1583 C 0.42454 0.42874 0.88789 0.0
H1584 H 0.60264 0.99035 0.96558 0.0
H1585 H 0.64538 0.02411 0.94785 0.0
H1586 H 0.6359 0.02662 0.91428 0.0
H1587 H 0.59063 0.97435 0.91407 0.0
H1588 H 0.57258 0.97115 0.91761 0.0
H1589 H 0.58285 0.97106 0.93964 0.0
H1590 H 0.57899 0.99054 0.95737 0.0
H1591 H 0.56876 0.99073 0.93537 0.0
H1592 H 0.58421 0.0072 0.94397 0.0
H1593 H 0.62203 0.02588 0.88313 0.0
H1594 H 0.60438 0.0227 0.85644 0.0
H1595 H 0.56997 0.99071 0.89496 0.0
C1596 C 0.61 0.99808 0.95445 0.0
C1597 C 0.62477 0.00696 0.9592 0.0
C1598 C 0.63404 0.0172 0.94449 0.0
C1599 C 0.62877 0.01868 0.92536 0.0
C1600 C 0.61416 0.00995 0.92125 0.0
C1601 C 0.60485 0.9999 0.93535 0.0
C1602 C 0.58947 0.99255 0.92743 0.0
C1603 C 0.58354 0.97631 0.92451 0.0
C1604 C 0.57979 0.99543 0.9419 0.0
C1605 C 0.59161 1.00011 0.90676 0.0
C1606 C 0.60597 0.00999 0.90348 0.0
C1607 C 0.61072 0.01827 0.88557 0.0
C1608 C 0.60054 0.01648 0.87057 0.0
C1609 C 0.58566 0.00663 0.87362 0.0
C1610 C 0.58122 0.99829 0.89201 0.0
H1611 H 0.60575 0.99465 0.06808 0.0
H1612 H 0.64395 0.03645 0.07678 0.0
H1613 H 0.63346 0.03981 0.10901 0.0
H1614 H 0.58021 0.00492 0.08653 0.0
H1615 H 0.56881 0.98774 0.09866 0.0
H1616 H 0.5793 0.98887 0.07621 0.0
H1617 H 0.59093 0.97646 0.09661 0.0
H1618 H 0.58052 0.97533 0.11913 0.0
H1619 H 0.59986 0.98408 0.12083 0.0
H1620 H 0.61915 0.03782 0.14145 0.0
H1621 H 0.60204 0.03118 0.17048 0.0
H1622 H 0.57264 0.99135 0.13894 0.0
C1623 C 0.61193 0.00454 0.07671 0.0
C1624 C 0.62572 0.01527 0.06994 0.0
C1625 C 0.63337 0.02809 0.08164 0.0
C1626 C 0.6275 0.03008 0.09997 0.0
C1627 C 0.61391 0.01922 0.10624 0.0
C1628 C 0.60618 0.00676 0.09484 0.0
C1629 C 0.59182 0.99672 0.10484 0.0
C1630 C 0.5793 0.99444 0.09072 0.0
C1631 C 0.59073 0.9823 0.1107 0.0
C1632 C 0.59273 0.00536 0.12388 0.0
C1633 C 0.60554 0.01829 0.12446 0.0
C1634 C 0.60899 0.0278 0.141 0.0
C1635 C 0.59912 0.02397 0.15738 0.0
C1636 C 0.58586 0.01075 0.15711 0.0
C1637 C 0.58268 1.00145 0.13991 0.0
H1638 H 0.02004 0.61835 0.0686 0.0
H1639 H 0.97798 0.61425 0.07674 0.0
H1640 H 0.97381 0.59877 0.10752 0.0
H1641 H 0.00924 0.5817 0.08277 0.0
H1642 H 0.02611 0.58674 0.09537 0.0
H1643 H 0.02556 0.59733 0.07412 0.0
H1644 H 0.03748 0.62018 0.09717 0.0
H1645 H 0.03808 0.60966 0.11848 0.0
H1646 H 0.0293 0.62015 0.12158 0.0
H1647 H 0.97511 0.58474 0.13878 0.0
H1648 H 0.98132 0.57299 0.16664 0.0
H1649 H 0.02171 0.585 0.13555 0.0
C1650 C 0.00994 0.61424 0.07685 0.0
C1651 C 0.99938 0.61761 0.0704 0.0
C1652 C 0.98623 0.61182 0.08145 0.0
C1653 C 0.98378 0.60303 0.09893 0.0
C1654 C 0.99449 0.59997 0.10488 0.0
C1655 C 0.00724 0.60532 0.094 0.0
C1656 C 0.01702 0.60043 0.1033 0.0
C1657 C 0.01963 0.59099 0.08798 0.0
C1658 C 0.03131 0.61338 0.11057 0.0
C1659 C 0.00793 0.5917 0.12143 0.0
C1660 C 0.99498 0.59155 0.12217 0.0
C1661 C 0.98515 0.58465 0.13816 0.0
C1662 C 0.98874 0.5779 0.15387 0.0
C1663 C 1.00203 0.57801 0.15343 0.0
C1664 C 0.01156 0.58483 0.13668 0.0
H1665 H 0.40256 0.38352 0.08506 0.0
H1666 H 0.39224 0.41466 0.05905 0.0
H1667 H 0.4063 0.43185 0.0865 0.0
H1668 H 0.40049 0.39225 0.13905 0.0
H1669 H 0.41522 0.38981 0.14714 0.0
H1670 H 0.40417 0.37974 0.12549 0.0
H1671 H 0.42695 0.38949 0.10248 0.0
H1672 H 0.43804 0.39969 0.12401 0.0
H1673 H 0.43873 0.40867 0.10007 0.0
H1674 H 0.42223 0.44615 0.11556 0.0
H1675 H 0.4377 0.4561 0.14629 0.0
H1676 H 0.437 0.41557 0.15494 0.0
C1677 C 0.40319 0.39391 0.08522 0.0
C1678 C 0.39628 0.3977 0.0698 0.0
C1679 C 0.39737 0.41143 0.07063 0.0
C1680 C 0.40539 0.42133 0.08615 0.0
C1681 C 0.4122 0.41735 0.1009 0.0
C1682 C 0.41108 0.40394 0.10077 0.0
C1683 C 0.41938 0.40242 0.1187 0.0
C1684 C 0.40921 0.39034 0.13347 0.0
C1685 C 0.43149 0.39992 0.11084 0.0
C1686 C 0.42541 0.41712 0.12875 0.0
C1687 C 0.42117 0.42555 0.11813 0.0
C1688 C 0.4255 0.4396 0.12417 0.0
C1689 C 0.43423 0.44513 0.14174 0.0
C1690 C 0.43849 0.43661 0.15326 0.0
C1691 C 0.43407 0.42243 0.14646 0.0
H1692 H 0.68372 0.7292 0.41833 0.0
H1693 H 0.64668 0.72283 0.38266 0.0
H1694 H 0.64076 0.73524 0.40986 0.0
H1695 H 0.66639 0.72333 0.46894 0.0
H1696 H 0.68263 0.73667 0.48151 0.0
H1697 H 0.68371 0.72703 0.45939 0.0
H1698 H 0.70025 0.75126 0.4409 0.0
H1699 H 0.69909 0.76098 0.46286 0.0
H1700 H 0.69413 0.76403 0.43748 0.0
H1701 H 0.64001 0.75001 0.43972 0.0
H1702 H 0.64294 0.76382 0.47156 0.0
H1703 H 0.67931 0.75877 0.48919 0.0
C1704 C 0.6743 0.73031 0.41631 0.0
C1705 C 0.66568 0.72507 0.39832 0.0
C1706 C 0.6534 0.72668 0.39633 0.0
C1707 C 0.64999 0.73378 0.41166 0.0
C1708 C 0.65884 0.73902 0.42904 0.0
C1709 C 0.6706 0.73716 0.43161 0.0
C1710 C 0.67826 0.74366 0.45186 0.0
C1711 C 0.67771 0.73197 0.46628 0.0
C1712 C 0.69386 0.75569 0.44803 0.0
C1713 C 0.6691 0.74967 0.46011 0.0
C1714 C 0.65802 0.74697 0.44666 0.0
C1715 C 0.64849 0.75196 0.45056 0.0
C1716 C 0.65021 0.75974 0.46884 0.0
C1717 C 0.66126 0.76234 0.48325 0.0
C1718 C 0.67082 0.7572 0.4786 0.0
H1719 H 0.30021 0.9452 0.41243 0.0
H1720 H 0.27334 0.96332 0.39537 0.0
H1721 H 0.2565 0.94968 0.42342 0.0
H1722 H 0.27143 0.90981 0.42668 0.0
H1723 H 0.28083 0.90798 0.44857 0.0
H1724 H 0.29083 0.91888 0.42675 0.0
H1725 H 0.30514 0.94074 0.45102 0.0
H1726 H 0.29526 0.92987 0.47292 0.0
H1727 H 0.29551 0.94651 0.46771 0.0
H1728 H 0.24219 0.93384 0.45247 0.0
H1729 H 0.23225 0.91819 0.48301 0.0
H1730 H 0.26885 0.91123 0.48322 0.0
C1731 C 0.29078 0.94628 0.41461 0.0
C1732 C 0.28811 0.95533 0.40163 0.0
C1733 C 0.27569 0.95652 0.40512 0.0
C1734 C 0.26598 0.94875 0.42096 0.0
C1735 C 0.26887 0.9399 0.43339 0.0
C1736 C 0.28101 0.93872 0.43063 0.0
C1737 C 0.28173 0.9288 0.4468 0.0
C1738 C 0.28117 0.91558 0.43658 0.0
C1739 C 0.29521 0.93697 0.46042 0.0
C1740 C 0.26808 0.92463 0.45897 0.0
C1741 C 0.26079 0.93107 0.4508 0.0
C1742 C 0.24787 0.92884 0.45917 0.0
C1743 C 0.24235 0.91999 0.47663 0.0
C1744 C 0.24981 0.91357 0.48579 0.0
C1745 C 0.26279 0.91584 0.47658 0.0
H1746 H 0.06322 0.32424 0.40275 0.0
H1747 H 0.07447 0.36902 0.40829 0.0
H1748 H 0.08916 0.37156 0.43918 0.0
H1749 H 0.0606 0.31629 0.4572 0.0
H1750 H 0.06846 0.3049 0.45493 0.0
H1751 H 0.05866 0.3066 0.4335 0.0
H1752 H 0.08084 0.3145 0.40973 0.0
H1753 H 0.09073 0.31287 0.4311 0.0
H1754 H 0.09794 0.32963 0.41714 0.0
H1755 H 0.10233 0.36903 0.46991 0.0
H1756 H 0.11308 0.36177 0.49779 0.0
H1757 H 0.09436 0.31903 0.4708 0.0
C1758 C 0.06869 0.33457 0.41051 0.0
C1759 C 0.06762 0.34642 0.40313 0.0
C1760 C 0.0751 0.35978 0.41364 0.0
C1761 C 0.08348 0.36133 0.43121 0.0
C1762 C 0.08437 0.34945 0.43798 0.0
C1763 C 0.07722 0.33634 0.42792 0.0
C1764 C 0.08013 0.32533 0.43812 0.0
C1765 C 0.06613 0.31252 0.44643 0.0
C1766 C 0.08787 0.32029 0.42313 0.0
C1767 C 0.08996 0.33425 0.4556 0.0
C1768 C 0.09225 0.34812 0.45529 0.0
C1769 C 0.10071 0.35823 0.47019 0.0
C1770 C 0.1069 0.35402 0.48589 0.0
C1771 C 0.10471 0.33982 0.48657 0.0
C1772 C 0.09618 0.32991 0.471 0.0
H1773 H 0.07971 0.35712 0.2939 0.0
H1774 H 0.04479 0.31279 0.29103 0.0
H1775 H 0.05598 0.30877 0.26021 0.0
H1776 H 0.08427 0.3634 0.23882 0.0
H1777 H 0.1036 0.37422 0.24036 0.0
H1778 H 0.09266 0.37367 0.26189 0.0
H1779 H 0.10665 0.36568 0.28611 0.0
H1780 H 0.11761 0.36616 0.26465 0.0
H1781 H 0.10778 0.34991 0.27966 0.0
H1782 H 0.07098 0.30963 0.22959 0.0
H1783 H 0.08861 0.31521 0.20158 0.0
H1784 H 0.11431 0.3587 0.22545 0.0
C1785 C 0.07434 0.34658 0.28673 0.0
C1786 C 0.06132 0.33528 0.29488 0.0
C1787 C 0.05475 0.32162 0.2851 0.0
C1788 C 0.06102 0.31923 0.26757 0.0
C1789 C 0.07391 0.33058 0.26006 0.0
C1790 C 0.0805 0.34397 0.26934 0.0
C1791 C 0.09443 0.35428 0.25844 0.0
C1792 C 0.09369 0.36715 0.24934 0.0
C1793 C 0.10738 0.3593 0.27309 0.0
C1794 C 0.09463 0.3446 0.24153 0.0
C1795 C 0.08269 0.33098 0.24271 0.0
C1796 C 0.08043 0.32023 0.22861 0.0
C1797 C 0.0906 0.32349 0.21284 0.0
C1798 C 0.10298 0.33738 0.21129 0.0
C1799 C 0.10496 0.34801 0.22599 0.0
H1800 H 0.673 0.72256 0.27783 0.0
H1801 H 0.71166 0.75258 0.31114 0.0
H1802 H 0.71781 0.77044 0.28316 0.0
H1803 H 0.689 0.73243 0.22583 0.0
H1804 H 0.67266 0.73016 0.2144 0.0
H1805 H 0.67178 0.71954 0.23657 0.0
H1806 H 0.65673 0.7286 0.25618 0.0
H1807 H 0.65771 0.73937 0.23418 0.0
H1808 H 0.6638 0.74769 0.25919 0.0
H1809 H 0.71846 0.78584 0.2531 0.0
H1810 H 0.7148 0.79682 0.22188 0.0
H1811 H 0.6767 0.75603 0.20688 0.0
C1812 C 0.68286 0.73282 0.27913 0.0
C1813 C 0.69183 0.73617 0.29672 0.0
C1814 C 0.70465 0.74972 0.29779 0.0
C1815 C 0.70821 0.75997 0.282 0.0
C1816 C 0.69896 0.75642 0.26509 0.0
C1817 C 0.68668 0.74308 0.26339 0.0
C1818 C 0.6785 0.74201 0.24371 0.0
C1819 C 0.67796 0.73034 0.22927 0.0
C1820 C 0.66329 0.73926 0.24862 0.0
C1821 C 0.68793 0.75693 0.23484 0.0
C1822 C 0.69965 0.7651 0.24741 0.0
C1823 C 0.70947 0.77945 0.24291 0.0
C1824 C 0.70732 0.78557 0.22501 0.0
C1825 C 0.69551 0.77734 0.21159 0.0
C1826 C 0.68576 0.76278 0.21673 0.0
H1827 H 0.29909 0.94891 0.28662 0.0
H1828 H 0.27757 0.97328 0.29923 0.0
H1829 H 0.26077 0.96089 0.27032 0.0
H1830 H 0.29592 0.94922 0.23004 0.0
H1831 H 0.29323 0.93131 0.22734 0.0
H1832 H 0.30386 0.94258 0.24846 0.0
H1833 H 0.28745 0.92269 0.27448 0.0
H1834 H 0.27664 0.91144 0.25348 0.0
H1835 H 0.26831 0.91595 0.27416 0.0
H1836 H 0.24496 0.94417 0.24209 0.0
H1837 H 0.23296 0.92641 0.21426 0.0
H1838 H 0.26604 0.91437 0.21838 0.0
C1839 C 0.29096 0.95177 0.28315 0.0
C1840 C 0.28962 0.96205 0.29522 0.0
C1841 C 0.27885 0.96551 0.29013 0.0
C1842 C 0.26921 0.95847 0.2738 0.0
C1843 C 0.27063 0.94817 0.26252 0.0
C1844 C 0.2814 0.94502 0.26673 0.0
C1845 C 0.28061 0.93355 0.25224 0.0
C1846 C 0.29421 0.93952 0.23872 0.0
C1847 C 0.2781 0.92011 0.26432 0.0
C1848 C 0.26753 0.9305 0.2395 0.0
C1849 C 0.26189 0.93899 0.24573 0.0
C1850 C 0.24946 0.93767 0.23681 0.0
C1851 C 0.24275 0.92757 0.22088 0.0
C1852 C 0.24856 0.91898 0.2138 0.0
C1853 C 0.26113 0.92055 0.22341 0.0
H1854 H 0.65903 0.94611 0.28385 0.0
H1855 H 0.70535 0.97286 0.29073 0.0
H1856 H 0.70894 0.96031 0.26135 0.0
H1857 H 0.65817 0.91371 0.2712 0.0
H1858 H 0.64411 0.90798 0.25208 0.0
H1859 H 0.64501 0.91944 0.27309 0.0
H1860 H 0.64584 0.93819 0.24697 0.0
H1861 H 0.64472 0.92669 0.22587 0.0
H1862 H 0.65935 0.94503 0.22692 0.0
H1863 H 0.70753 0.94332 0.23356 0.0
H1864 H 0.70132 0.92514 0.20631 0.0
H1865 H 0.65592 0.9108 0.21528 0.0
C1866 C 0.66993 0.94945 0.279 0.0
C1867 C 0.68191 0.96046 0.28963 0.0
C1868 C 0.69599 0.96453 0.28277 0.0
C1869 C 0.69816 0.9574 0.26616 0.0
C1870 C 0.68613 0.94639 0.25633 0.0
C1871 C 0.67229 0.94262 0.2622 0.0
C1872 C 0.66124 0.93046 0.2489 0.0
C1873 C 0.65157 0.91711 0.26211 0.0
C1874 C 0.65226 0.93539 0.23642 0.0
C1875 C 0.67104 0.9278 0.23493 0.0
C1876 C 0.68534 0.93704 0.23959 0.0
C1877 C 0.69637 0.93623 0.22945 0.0
C1878 C 0.6927 0.92588 0.21385 0.0
C1879 C 0.67811 0.91656 0.20822 0.0
C1880 C 0.66718 0.91758 0.21913 0.0
H1881 H 0.06511 0.72019 0.28201 0.0
H1882 H 0.05572 0.7491 0.31698 0.0
H1883 H 0.06784 0.7678 0.2902 0.0
H1884 H 0.09973 0.74619 0.26401 0.0
H1885 H 0.09758 0.73846 0.23856 0.0
H1886 H 0.08788 0.72715 0.26019 0.0
H1887 H 0.06374 0.71829 0.24079 0.0
H1888 H 0.07338 0.72946 0.219 0.0
H1889 H 0.0592 0.73128 0.23103 0.0
H1890 H 0.08272 0.78401 0.26111 0.0
H1891 H 0.09696 0.79575 0.22992 0.0
H1892 H 0.09463 0.75552 0.21211 0.0
C1893 C 0.06551 0.73041 0.28394 0.0
C1894 C 0.0595 0.7332 0.30162 0.0
C1895 C 0.06018 0.74669 0.30353 0.0
C1896 C 0.0671 0.75741 0.28845 0.0
C1897 C 0.0731 0.7544 0.27137 0.0
C1898 C 0.07214 0.74116 0.26884 0.0
C1899 C 0.07929 0.74064 0.24886 0.0
C1900 C 0.09186 0.73795 0.25317 0.0
C1901 C 0.06824 0.72924 0.23404 0.0
C1902 C 0.08463 0.75575 0.24077 0.0
C1903 C 0.08105 0.76354 0.25407 0.0
C1904 C 0.08535 0.77793 0.25036 0.0
C1905 C 0.09338 0.78448 0.23244 0.0
C1906 C 0.09688 0.77662 0.21817 0.0
C1907 C 0.09238 0.76202 0.2226 0.0
H1908 H 0.28245 0.32493 0.29162 0.0
H1909 H 0.30051 0.36995 0.30831 0.0
H1910 H 0.28788 0.37336 0.27892 0.0
H1911 H 0.28547 0.33079 0.23638 0.0
H1912 H 0.26888 0.3145 0.23059 0.0
H1913 H 0.27903 0.31542 0.25333 0.0
H1914 H 0.25655 0.30823 0.27613 0.0
H1915 H 0.24635 0.30737 0.25346 0.0
H1916 H 0.24768 0.31874 0.2749 0.0
H1917 H 0.27306 0.37194 0.24833 0.0
H1918 H 0.2582 0.36619 0.21689 0.0
H1919 H 0.25066 0.32243 0.21855 0.0
C1920 C 0.28372 0.33549 0.28911 0.0
C1921 C 0.29246 0.34716 0.30234 0.0
C1922 C 0.29393 0.36084 0.29839 0.0
C1923 C 0.28674 0.36289 0.28177 0.0
C1924 C 0.2782 0.35119 0.26909 0.0
C1925 C 0.27674 0.33779 0.27239 0.0
C1926 C 0.26724 0.32716 0.25597 0.0
C1927 C 0.27566 0.32165 0.24332 0.0
C1928 C 0.25365 0.31464 0.2657 0.0
C1929 C 0.26358 0.3367 0.24299 0.0
C1930 C 0.26994 0.35048 0.25096 0.0
C1931 C 0.26812 0.36122 0.24181 0.0
C1932 C 0.25972 0.35785 0.22385 0.0
C1933 C 0.25334 0.34389 0.21501 0.0
C1934 C 0.25524 0.33317 0.22493 0.0
H1935 H 0.27829 0.33034 0.41016 0.0
H1936 H 0.31797 0.37126 0.41655 0.0
H1937 H 0.30853 0.37624 0.44845 0.0
H1938 H 0.25466 0.34276 0.42692 0.0
H1939 H 0.24262 0.32643 0.44057 0.0
H1940 H 0.25265 0.3258 0.41863 0.0
H1941 H 0.26331 0.31337 0.44112 0.0
H1942 H 0.25327 0.31391 0.46313 0.0
H1943 H 0.27253 0.32178 0.46486 0.0
H1944 H 0.29469 0.37696 0.47929 0.0
H1945 H 0.27758 0.37329 0.50729 0.0
H1946 H 0.24658 0.33216 0.4804 0.0
C1947 C 0.28507 0.3403 0.41833 0.0
C1948 C 0.29892 0.3504 0.41083 0.0
C1949 C 0.30735 0.36335 0.42196 0.0
C1950 C 0.30208 0.36628 0.44011 0.0
C1951 C 0.28835 0.35617 0.44692 0.0
C1952 C 0.27996 0.34343 0.43642 0.0
C1953 C 0.26546 0.3345 0.44687 0.0
C1954 C 0.25312 0.33225 0.43238 0.0
C1955 C 0.26354 0.32003 0.45445 0.0
C1956 C 0.267 0.34423 0.46487 0.0
C1957 C 0.28029 0.35666 0.4646 0.0
C1958 C 0.28423 0.36729 0.47961 0.0
C1959 C 0.27436 0.36515 0.49537 0.0
C1960 C 0.26064 0.35249 0.49601 0.0
C1961 C 0.25698 0.34192 0.48047 0.0
H1962 H 0.66517 0.95102 0.41522 0.0
H1963 H 0.69927 0.95297 0.3767 0.0
H1964 H 0.70304 0.93786 0.40179 0.0
H1965 H 0.68344 0.95427 0.46339 0.0
H1966 H 0.6673 0.94238 0.47755 0.0
H1967 H 0.66642 0.95247 0.45584 0.0
H1968 H 0.64711 0.92876 0.43872 0.0
H1969 H 0.64801 0.9186 0.46033 0.0
H1970 H 0.65097 0.91441 0.4344 0.0
H1971 H 0.703 0.92236 0.43029 0.0
H1972 H 0.70124 0.90966 0.4628 0.0
H1973 H 0.66887 0.9195 0.48512 0.0
C1974 C 0.67334 0.94815 0.41208 0.0
C1975 C 0.68188 0.95308 0.39398 0.0
C1976 C 0.69264 0.94934 0.39051 0.0
C1977 C 0.69481 0.94068 0.40459 0.0
C1978 C 0.68627 0.93601 0.42228 0.0
C1979 C 0.6759 0.93976 0.4263 0.0
C1980 C 0.66899 0.93409 0.44731 0.0
C1981 C 0.67171 0.94655 0.46188 0.0
C1982 C 0.65281 0.92332 0.44505 0.0
C1983 C 0.67713 0.92662 0.45436 0.0
C1984 C 0.68685 0.92768 0.43948 0.0
C1985 C 0.69555 0.9216 0.4422 0.0
C1986 C 0.69454 0.91449 0.46085 0.0
C1987 C 0.6851 0.91373 0.47683 0.0
C1988 C 0.67613 0.91974 0.47328 0.0
H1989 H 0.05781 0.73139 0.41625 0.0
H1990 H 0.08298 0.71168 0.39786 0.0
H1991 H 0.09991 0.72418 0.42661 0.0
H1992 H 0.0871 0.76543 0.42864 0.0
H1993 H 0.07847 0.76842 0.4505 0.0
H1994 H 0.06776 0.75711 0.42948 0.0
H1995 H 0.05327 0.73613 0.45512 0.0
H1996 H 0.06383 0.74742 0.47627 0.0
H1997 H 0.06271 0.73028 0.47205 0.0
H1998 H 0.11486 0.74002 0.45643 0.0
H1999 H 0.12615 0.75729 0.48524 0.0
H2000 H 0.09096 0.76633 0.48387 0.0
C2001 C 0.06676 0.7295 0.41838 0.0
C2002 C 0.06902 0.72049 0.40477 0.0
C2003 C 0.08097 0.71847 0.4081 0.0
C2004 C 0.09066 0.72555 0.42438 0.0
C2005 C 0.08825 0.73458 0.43724 0.0
C2006 C 0.07653 0.73649 0.43449 0.0
C2007 C 0.07657 0.7471 0.44998 0.0
C2008 C 0.07754 0.7603 0.43899 0.0
C2009 C 0.06331 0.73979 0.4642 0.0
C2010 C 0.09026 0.75104 0.46172 0.0
C2011 C 0.09683 0.74368 0.45424 0.0
C2012 C 0.10975 0.74576 0.46251 0.0
C2013 C 0.11606 0.75556 0.4789 0.0
C2014 C 0.10948 0.76322 0.48682 0.0
C2015 C 0.0964 0.76084 0.47802 0.0
H2016 H 0.35545 0.07823 0.73619 0.0
H2017 H 0.32271 0.03598 0.75746 0.0
H2018 H 0.32059 0.04674 0.79021 0.0
H2019 H 0.37264 0.09227 0.78555 0.0
H2020 H 0.37557 0.11009 0.78066 0.0
H2021 H 0.37497 0.09895 0.75938 0.0
H2022 H 0.35474 0.10189 0.7422 0.0
H2023 H 0.35525 0.11301 0.76346 0.0
H2024 H 0.33856 0.09716 0.75659 0.0
H2025 H 0.3224 0.06211 0.82081 0.0
H2026 H 0.32722 0.08088 0.84654 0.0
H2027 H 0.35726 0.11345 0.80388 0.0
C2028 C 0.34796 0.07121 0.74785 0.0
C2029 C 0.33934 0.05623 0.7444 0.0
C2030 C 0.32945 0.04746 0.75983 0.0
C2031 C 0.32818 0.05348 0.77847 0.0
C2032 C 0.33675 0.0683 0.78129 0.0
C2033 C 0.34638 0.07706 0.76636 0.0
C2034 C 0.35389 0.09273 0.77287 0.0
C2035 C 0.37024 0.09887 0.77473 0.0
C2036 C 0.3504 0.10172 0.75789 0.0
C2037 C 0.34706 0.09141 0.79389 0.0
C2038 C 0.33728 0.07723 0.7985 0.0
C2039 C 0.3299 0.07328 0.81725 0.0
C2040 C 0.33263 0.08411 0.83172 0.0
C2041 C 0.34251 0.09881 0.82731 0.0
C2042 C 0.34973 0.1024 0.80798 0.0
H2043 H 0.93925 0.27977 0.73248 0.0
H2044 H 0.98098 0.28486 0.74747 0.0
H2045 H 0.971 0.27146 0.7802 0.0
H2046 H 0.92898 0.28366 0.78306 0.0
H2047 H 0.91035 0.27002 0.7801 0.0
H2048 H 0.92072 0.27978 0.7578 0.0
H2049 H 0.91444 0.25575 0.73974 0.0
H2050 H 0.90398 0.24591 0.76195 0.0
H2051 H 0.91829 0.24316 0.75271 0.0
H2052 H 0.95686 0.25941 0.81262 0.0
H2053 H 0.93943 0.24786 0.84081 0.0
H2054 H 0.90614 0.2481 0.80256 0.0
C2055 C 0.94628 0.27803 0.74264 0.0
C2056 C 0.96091 0.28344 0.73758 0.0
C2057 C 0.96973 0.28078 0.75109 0.0
C2058 C 0.96416 0.27322 0.7697 0.0
C2059 C 0.9497 0.26814 0.77431 0.0
C2060 C 0.94082 0.27023 0.761 0.0
C2061 C 0.92562 0.26348 0.76939 0.0
C2062 C 0.92116 0.27492 0.77279 0.0
C2063 C 0.91496 0.25135 0.7551 0.0
C2064 C 0.9274 0.25755 0.78978 0.0
C2065 C 0.94137 0.26043 0.79238 0.0
C2066 C 0.9458 0.2568 0.81054 0.0
C2067 C 0.9357 0.25007 0.82646 0.0
C2068 C 0.92117 0.24675 0.82408 0.0
C2069 C 0.91707 0.25049 0.80525 0.0
H2070 H 0.74135 0.69438 0.74262 0.0
H2071 H 0.70975 0.64877 0.73988 0.0
H2072 H 0.72007 0.64463 0.77139 0.0
H2073 H 0.7707 0.68997 0.75895 0.0
H2074 H 0.77843 0.70534 0.77598 0.0
H2075 H 0.76812 0.70506 0.75379 0.0
H2076 H 0.7513 0.70956 0.77754 0.0
H2077 H 0.7616 0.70991 0.79982 0.0
H2078 H 0.74246 0.69761 0.79904 0.0
H2079 H 0.73396 0.64511 0.80244 0.0
H2080 H 0.75063 0.6502 0.83155 0.0
H2081 H 0.774 0.69537 0.81407 0.0
C2082 C 0.7365 0.68357 0.74881 0.0
C2083 C 0.7247 0.67191 0.73876 0.0
C2084 C 0.71879 0.65788 0.74723 0.0
C2085 C 0.72456 0.6554 0.76517 0.0
C2086 C 0.73629 0.66705 0.7745 0.0
C2087 C 0.74222 0.68086 0.7667 0.0
C2088 C 0.75513 0.69134 0.77947 0.0
C2089 C 0.76891 0.69834 0.76625 0.0
C2090 C 0.75246 0.70278 0.78957 0.0
C2091 C 0.75554 0.68123 0.79555 0.0
C2092 C 0.74453 0.66728 0.79238 0.0
C2093 C 0.74266 0.65598 0.80506 0.0
C2094 C 0.7523 0.65897 0.82146 0.0
C2095 C 0.76377 0.67317 0.82505 0.0
C2096 C 0.76532 0.68443 0.81187 0.0
H2097 H 0.72248 0.65539 0.62559 0.0
H2098 H 0.74086 0.70181 0.62736 0.0
H2099 H 0.75567 0.70428 0.59681 0.0
H2100 H 0.75511 0.65604 0.61154 0.0
H2101 H 0.74648 0.64058 0.59473 0.0
H2102 H 0.73673 0.64225 0.61626 0.0
H2103 H 0.71667 0.63975 0.59135 0.0
H2104 H 0.72634 0.63803 0.56975 0.0
H2105 H 0.72134 0.65177 0.56953 0.0
H2106 H 0.76857 0.70192 0.56643 0.0
H2107 H 0.77905 0.69491 0.538 0.0
H2108 H 0.75335 0.65006 0.55648 0.0
C2109 C 0.72952 0.66605 0.61941 0.0
C2110 C 0.73047 0.67841 0.62886 0.0
C2111 C 0.73995 0.69219 0.62045 0.0
C2112 C 0.7484 0.69371 0.60306 0.0
C2113 C 0.74733 0.68136 0.59428 0.0
C2114 C 0.73817 0.6678 0.60213 0.0
C2115 C 0.73945 0.65636 0.59001 0.0
C2116 C 0.74476 0.64834 0.60397 0.0
C2117 C 0.72509 0.64586 0.57954 0.0
C2118 C 0.75077 0.66565 0.57418 0.0
C2119 C 0.7551 0.68003 0.57692 0.0
C2120 C 0.76536 0.6907 0.5642 0.0
C2121 C 0.77136 0.6866 0.54818 0.0
C2122 C 0.76721 0.67193 0.54505 0.0
C2123 C 0.75674 0.66135 0.55832 0.0
H2124 H 0.35453 0.06509 0.61737 0.0
H2125 H 0.32345 0.06722 0.6581 0.0
H2126 H 0.32063 0.08305 0.63323 0.0
H2127 H 0.37104 0.10181 0.597 0.0
H2128 H 0.37255 0.09665 0.57097 0.0
H2129 H 0.37316 0.08637 0.59263 0.0
H2130 H 0.35202 0.06315 0.57704 0.0
H2131 H 0.3514 0.07335 0.5553 0.0
H2132 H 0.33546 0.06276 0.57062 0.0
H2133 H 0.32095 0.09845 0.60441 0.0
H2134 H 0.32251 0.11069 0.57148 0.0
H2135 H 0.3518 0.0972 0.5475 0.0
C2136 C 0.34726 0.06904 0.62106 0.0
C2137 C 0.33926 0.06501 0.6397 0.0
C2138 C 0.32964 0.07014 0.64388 0.0
C2139 C 0.32803 0.07922 0.62993 0.0
C2140 C 0.33597 0.08294 0.61166 0.0
C2141 C 0.34526 0.0779 0.607 0.0
C2142 C 0.35163 0.08275 0.58551 0.0
C2143 C 0.36807 0.09248 0.5866 0.0
C2144 C 0.34737 0.06973 0.57128 0.0
C2145 C 0.3444 0.0912 0.57889 0.0
C2146 C 0.3356 0.09133 0.59439 0.0
C2147 C 0.32772 0.09834 0.59206 0.0
C2148 C 0.3286 0.10518 0.5732 0.0
C2149 C 0.33712 0.10479 0.55668 0.0
C2150 C 0.34529 0.09785 0.5598 0.0
H2151 H 0.95428 0.2709 0.63213 0.0
H2152 H 0.95225 0.30982 0.62166 0.0
H2153 H 0.9384 0.29929 0.58949 0.0
H2154 H 0.95797 0.26327 0.57923 0.0
H2155 H 0.94659 0.24406 0.58199 0.0
H2156 H 0.95655 0.25479 0.60392 0.0
H2157 H 0.93287 0.24477 0.62497 0.0
H2158 H 0.92284 0.23401 0.60309 0.0
H2159 H 0.91811 0.24639 0.61466 0.0
H2160 H 0.92576 0.28485 0.55766 0.0
H2161 H 0.9142 0.2673 0.52956 0.0
H2162 H 0.92243 0.23685 0.56279 0.0
C2163 C 0.95099 0.27724 0.623 0.0
C2164 C 0.95444 0.29123 0.62926 0.0
C2165 C 0.94973 0.29909 0.61711 0.0
C2166 C 0.94189 0.29321 0.59882 0.0
C2167 C 0.93865 0.27937 0.59311 0.0
C2168 C 0.94293 0.27143 0.60495 0.0
C2169 C 0.93771 0.25666 0.5957 0.0
C2170 C 0.95047 0.25458 0.58986 0.0
C2171 C 0.92726 0.24476 0.61049 0.0
C2172 C 0.93 0.25759 0.57663 0.0
C2173 C 0.93074 0.2708 0.57535 0.0
C2174 C 0.92491 0.27438 0.55867 0.0
C2175 C 0.91821 0.26422 0.54283 0.0
C2176 C 0.91716 0.25049 0.54385 0.0
C2177 C 0.92309 0.24721 0.56121 0.0
H2178 H 0.33692 0.2823 0.61634 0.0
H2179 H 0.38224 0.31215 0.62768 0.0
H2180 H 0.38862 0.30231 0.59755 0.0
H2181 H 0.34042 0.25242 0.60101 0.0
H2182 H 0.32693 0.24648 0.58099 0.0
H2183 H 0.32581 0.25613 0.60307 0.0
H2184 H 0.32528 0.27512 0.57882 0.0
H2185 H 0.32624 0.26545 0.55664 0.0
H2186 H 0.33939 0.28422 0.55994 0.0
H2187 H 0.39013 0.28814 0.56758 0.0
H2188 H 0.38666 0.27211 0.53815 0.0
H2189 H 0.34029 0.2525 0.54495 0.0
C2190 C 0.34818 0.28685 0.6124 0.0
C2191 C 0.35908 0.298 0.62443 0.0
C2192 C 0.37369 0.30367 0.61868 0.0
C2193 C 0.37743 0.2981 0.60163 0.0
C2194 C 0.36644 0.28697 0.59032 0.0
C2195 C 0.35211 0.28154 0.59529 0.0
C2196 C 0.34239 0.26964 0.58051 0.0
C2197 C 0.33336 0.25532 0.59209 0.0
C2198 C 0.33276 0.27386 0.56825 0.0
C2199 C 0.35351 0.26909 0.56664 0.0
C2200 C 0.36731 0.27913 0.57263 0.0
C2201 C 0.37936 0.28038 0.56255 0.0
C2202 C 0.37726 0.27125 0.54573 0.0
C2203 C 0.36319 0.26106 0.53894 0.0
C2204 C 0.3512 0.26001 0.54973 0.0
H2205 H 0.74301 0.06183 0.63325 0.0
H2206 H 0.71011 0.07412 0.63244 0.0
H2207 H 0.72183 0.08961 0.60186 0.0
H2208 H 0.77265 0.09688 0.61912 0.0
H2209 H 0.78142 0.08945 0.60378 0.0
H2210 H 0.77045 0.07953 0.62558 0.0
H2211 H 0.75509 0.05767 0.60174 0.0
H2212 H 0.76601 0.06751 0.57989 0.0
H2213 H 0.74677 0.06009 0.57898 0.0
H2214 H 0.73669 0.10273 0.56991 0.0
H2215 H 0.75352 0.11273 0.54043 0.0
H2216 H 0.77754 0.09313 0.56448 0.0
C2217 C 0.73822 0.06776 0.62666 0.0
C2218 C 0.72557 0.06668 0.63513 0.0
C2219 C 0.71979 0.07477 0.62619 0.0
C2220 C 0.72637 0.08359 0.60883 0.0
C2221 C 0.73884 0.08436 0.60084 0.0
C2222 C 0.74475 0.07674 0.60963 0.0
C2223 C 0.75822 0.07941 0.59831 0.0
C2224 C 0.77147 0.08676 0.61255 0.0
C2225 C 0.7564 0.06533 0.58919 0.0
C2226 C 0.75884 0.08951 0.58147 0.0
C2227 C 0.74759 0.09225 0.58312 0.0
C2228 C 0.74565 0.1008 0.56867 0.0
C2229 C 0.75537 0.10654 0.55202 0.0
C2230 C 0.76696 0.10379 0.54998 0.0
C2231 C 0.76874 0.09533 0.56524 0.0
H2232 H 0.96425 0.69015 0.621 0.0
H2233 H 0.93917 0.64525 0.63932 0.0
H2234 H 0.92226 0.6408 0.61059 0.0
H2235 H 0.93489 0.6949 0.60729 0.0
H2236 H 0.94373 0.70631 0.58531 0.0
H2237 H 0.95423 0.70592 0.6068 0.0
H2238 H 0.96899 0.69921 0.58203 0.0
H2239 H 0.95864 0.69973 0.56043 0.0
H2240 H 0.95973 0.68376 0.56535 0.0
H2241 H 0.90732 0.64156 0.58107 0.0
H2242 H 0.8963 0.64707 0.55153 0.0
H2243 H 0.93169 0.69124 0.55159 0.0
C2244 C 0.95528 0.67935 0.61889 0.0
C2245 C 0.95305 0.66806 0.63248 0.0
C2246 C 0.94116 0.65408 0.62912 0.0
C2247 C 0.93146 0.65145 0.61286 0.0
C2248 C 0.93385 0.66287 0.6 0.0
C2249 C 0.94555 0.6765 0.60268 0.0
C2250 C 0.94564 0.68692 0.58672 0.0
C2251 C 0.94455 0.69924 0.59716 0.0
C2252 C 0.95904 0.69274 0.57281 0.0
C2253 C 0.93205 0.67705 0.57481 0.0
C2254 C 0.9254 0.66323 0.58274 0.0
C2255 C 0.91253 0.6523 0.57457 0.0
C2256 C 0.90639 0.65553 0.55771 0.0
C2257 C 0.91313 0.66957 0.54905 0.0
C2258 C 0.92613 0.68044 0.55789 0.0
H2259 H 0.94966 0.66296 0.74831 0.0
H2260 H 0.97091 0.70831 0.73207 0.0
H2261 H 0.95795 0.71251 0.76041 0.0
H2262 H 0.91561 0.65882 0.75989 0.0
H2263 H 0.912 0.64672 0.78135 0.0
H2264 H 0.9235 0.64741 0.76054 0.0
H2265 H 0.94395 0.6529 0.7867 0.0
H2266 H 0.93245 0.65208 0.80763 0.0
H2267 H 0.94986 0.66792 0.80418 0.0
H2268 H 0.94153 0.71141 0.78947 0.0
H2269 H 0.92396 0.70536 0.81785 0.0
H2270 H 0.91411 0.66087 0.81544 0.0
C2271 C 0.95173 0.67382 0.75081 0.0
C2272 C 0.96133 0.68531 0.73792 0.0
C2273 C 0.96367 0.69934 0.74175 0.0
C2274 C 0.95632 0.70183 0.75779 0.0
C2275 C 0.94674 0.6902 0.76994 0.0
C2276 C 0.94455 0.6765 0.76675 0.0
C2277 C 0.93355 0.6658 0.78175 0.0
C2278 C 0.92039 0.65399 0.77019 0.0
C2279 C 0.94036 0.6593 0.79591 0.0
C2280 C 0.92973 0.67557 0.79372 0.0
C2281 C 0.93745 0.6896 0.78671 0.0
C2282 C 0.93553 0.70048 0.79521 0.0
C2283 C 0.92556 0.69694 0.81139 0.0
C2284 C 0.91761 0.68263 0.81897 0.0
C2285 C 0.91981 0.67187 0.80989 0.0
H2286 H 0.32959 0.27948 0.74233 0.0
H2287 H 0.3747 0.29756 0.72619 0.0
H2288 H 0.37792 0.28485 0.75559 0.0
H2289 H 0.33525 0.28256 0.79754 0.0
H2290 H 0.31896 0.266 0.80344 0.0
H2291 H 0.31991 0.27603 0.78054 0.0
H2292 H 0.31278 0.25345 0.75804 0.0
H2293 H 0.31188 0.24337 0.78087 0.0
H2294 H 0.3233 0.2446 0.75955 0.0
H2295 H 0.37643 0.27011 0.78616 0.0
H2296 H 0.37073 0.25553 0.81786 0.0
H2297 H 0.32695 0.24794 0.81606 0.0
C2298 C 0.34011 0.28069 0.74495 0.0
C2299 C 0.35188 0.2895 0.73188 0.0
C2300 C 0.36553 0.29094 0.73599 0.0
C2301 C 0.36747 0.2837 0.75261 0.0
C2302 C 0.3557 0.27513 0.76517 0.0
C2303 C 0.34232 0.27368 0.76174 0.0
C2304 C 0.33167 0.26424 0.77823 0.0
C2305 C 0.32612 0.27272 0.79068 0.0
C2306 C 0.31917 0.2506 0.76859 0.0
C2307 C 0.34119 0.26065 0.79139 0.0
C2308 C 0.35496 0.26696 0.78341 0.0
C2309 C 0.36571 0.26522 0.79269 0.0
C2310 C 0.36237 0.25698 0.81082 0.0
C2311 C 0.34843 0.25069 0.81973 0.0
C2312 C 0.33768 0.25247 0.80965 0.0
H2313 H 0.72127 0.06182 0.75691 0.0
H2314 H 0.74967 0.05008 0.72534 0.0
H2315 H 0.76808 0.06248 0.75233 0.0
H2316 H 0.74781 0.09654 0.77355 0.0
H2317 H 0.73991 0.09544 0.79861 0.0
H2318 H 0.72866 0.0853 0.77718 0.0
H2319 H 0.71888 0.06168 0.7983 0.0
H2320 H 0.72996 0.07178 0.8199 0.0
H2321 H 0.73135 0.05693 0.80947 0.0
H2322 H 0.78426 0.07814 0.78067 0.0
H2323 H 0.79606 0.09319 0.81108 0.0
H2324 H 0.7563 0.09261 0.82668 0.0
C2325 C 0.7313 0.06173 0.75582 0.0
C2326 C 0.73404 0.055 0.73898 0.0
C2327 C 0.74728 0.05508 0.73814 0.0
C2328 C 0.75785 0.06217 0.75334 0.0
C2329 C 0.75493 0.06892 0.76951 0.0
C2330 C 0.74188 0.06852 0.77112 0.0
C2331 C 0.74145 0.07644 0.79033 0.0
C2332 C 0.73934 0.08918 0.78456 0.0
C2333 C 0.72971 0.06609 0.80539 0.0
C2334 C 0.7564 0.08159 0.79899 0.0
C2335 C 0.76402 0.07726 0.78661 0.0
C2336 C 0.77828 0.08131 0.79078 0.0
C2337 C 0.78487 0.08981 0.80829 0.0
C2338 C 0.77715 0.094 0.82181 0.0
C2339 C 0.76268 0.0898 0.81684 0.0
H2340 H 0.06766 0.3808 0.0401 0.0
H2341 H 0.03464 0.3382 0.02071 0.0
H2342 H 0.04956 0.32812 0.03363 0.0
H2343 H 0.09895 0.37713 0.02899 0.0
H2344 H 0.10848 0.38705 0.05175 0.0
H2345 H 0.09578 0.39094 0.03923 0.0
H2346 H 0.08188 0.3865 0.07381 0.0
H2347 H 0.09454 0.38265 0.08641 0.0
H2348 H 0.07557 0.36964 0.08721 0.0
H2349 H 0.06817 0.32279 0.0498 0.0
H2350 H 0.08771 0.32238 0.06952 0.0
H2351 H 0.10721 0.36838 0.08033 0.0
C2352 C 0.06365 0.36938 0.03822 0.0
C2353 C 0.05007 0.3603 0.02916 0.0
C2354 C 0.04506 0.34536 0.02749 0.0
C2355 C 0.05348 0.33956 0.03473 0.0
C2356 C 0.06679 0.34884 0.04377 0.0
C2357 C 0.07177 0.36342 0.04564 0.0
C2358 C 0.08588 0.37097 0.05729 0.0
C2359 C 0.09799 0.38219 0.04349 0.0
C2360 C 0.08437 0.37784 0.07737 0.0
C2361 C 0.08809 0.35836 0.06182 0.0
C2362 C 0.0771 0.34571 0.0537 0.0
C2363 C 0.07681 0.33265 0.05626 0.0
C2364 C 0.08793 0.33252 0.06763 0.0
C2365 C 0.09912 0.34534 0.0766 0.0
C2366 C 0.09912 0.3584 0.07339 0.0
H2367 H 0.66442 0.69507 0.04202 0.0
H2368 H 0.62673 0.68965 0.00915 0.0
H2369 H 0.63124 0.71314 0.02225 0.0
H2370 H 0.65881 0.71002 0.08701 0.0
H2371 H 0.67757 0.72255 0.09186 0.0
H2372 H 0.67241 0.70607 0.07813 0.0
H2373 H 0.68887 0.72058 0.04744 0.0
H2374 H 0.69414 0.73712 0.06115 0.0
H2375 H 0.68664 0.73454 0.03549 0.0
H2376 H 0.63868 0.7363 0.04087 0.0
H2377 H 0.64874 0.75767 0.06356 0.0
H2378 H 0.68123 0.74787 0.08522 0.0
C2379 C 0.65732 0.69899 0.03721 0.0
C2380 C 0.64528 0.69057 0.02442 0.0
C2381 C 0.63604 0.69593 0.01886 0.0
C2382 C 0.63853 0.70928 0.0262 0.0
C2383 C 0.65028 0.71717 0.03915 0.0
C2384 C 0.65957 0.71228 0.04457 0.0
C2385 C 0.67085 0.72246 0.05978 0.0
C2386 C 0.66984 0.71482 0.08041 0.0
C2387 C 0.68603 0.72907 0.0504 0.0
C2388 C 0.6663 0.73368 0.0623 0.0
C2389 C 0.65448 0.73048 0.05013 0.0
C2390 C 0.648 0.73897 0.05037 0.0
C2391 C 0.65373 0.75104 0.06343 0.0
C2392 C 0.66579 0.7545 0.07618 0.0
C2393 C 0.67216 0.74569 0.07542 0.0
H2394 H 0.33816 0.95861 0.06125 0.0
H2395 H 0.32369 0.97914 0.0171 0.0
H2396 H 0.29833 0.96199 0.02669 0.0
H2397 H 0.30932 0.92212 0.05503 0.0
H2398 H 0.30838 0.91797 0.08224 0.0
H2399 H 0.3252 0.93128 0.07096 0.0
H2400 H 0.3271 0.95013 0.09781 0.0
H2401 H 0.31037 0.93685 0.10926 0.0
H2402 H 0.31245 0.95373 0.10038 0.0
H2403 H 0.27439 0.94184 0.04085 0.0
H2404 H 0.25435 0.92251 0.06058 0.0
H2405 H 0.28526 0.91744 0.09798 0.0
C2406 C 0.32965 0.95941 0.05345 0.0
C2407 C 0.33282 0.97004 0.03824 0.0
C2408 C 0.32144 0.971 0.02874 0.0
C2409 C 0.30703 0.96128 0.03403 0.0
C2410 C 0.30425 0.95088 0.04911 0.0
C2411 C 0.31529 0.95006 0.0589 0.0
C2412 C 0.3096 0.93858 0.07552 0.0
C2413 C 0.31335 0.92679 0.07063 0.0
C2414 C 0.31521 0.94522 0.09701 0.0
C2415 C 0.29361 0.93294 0.0735 0.0
C2416 C 0.29068 0.93999 0.05803 0.0
C2417 C 0.2766 0.93637 0.05318 0.0
C2418 C 0.26526 0.92541 0.06464 0.0
C2419 C 0.26803 0.91832 0.08109 0.0
C2420 C 0.2825 0.92225 0.08535 0.0
H2421 H 0.38877 0.06784 1.00105 0.0
H2422 H 0.34637 0.02974 0.99845 0.0
H2423 H 0.3364 0.04445 0.98454 0.0
H2424 H 0.37651 0.09334 0.0155 0.0
H2425 H 0.39015 0.10756 0.99991 0.0
H2426 H 0.39357 0.09424 0.01142 0.0
H2427 H 0.39966 0.08827 0.97523 0.0
H2428 H 0.39622 0.1015 0.96361 0.0
H2429 H 0.38667 0.08314 0.9546 0.0
H2430 H 0.33171 0.06296 0.9673 0.0
H2431 H 0.33257 0.08352 0.94896 0.0
H2432 H 0.37779 0.10983 0.96496 0.0
C2433 C 0.37734 0.0626 0.99788 0.0
C2434 C 0.36834 0.04762 1.00085 0.0
C2435 C 0.35346 0.0412 0.99639 0.0
C2436 C 0.3477 0.04948 0.9885 0.0
C2437 C 0.35693 0.0642 0.98542 0.0
C2438 C 0.37141 0.07072 0.99019 0.0
C2439 C 0.37919 0.08655 0.98457 0.0
C2440 C 0.38521 0.09598 0.00401 0.0
C2441 C 0.39113 0.09006 0.96855 0.0
C2442 C 0.36693 0.08785 0.97526 0.0
C2443 C 0.35415 0.07488 0.976 0.0
C2444 C 0.3416 0.07324 0.96702 0.0
C2445 C 0.34218 0.08507 0.95673 0.0
C2446 C 0.35523 0.09845 0.95549 0.0
C2447 C 0.36764 0.09981 0.96539 0.0
H2448 H 0.95439 0.32875 1.00058 0.0
H2449 H 0.99189 0.32334 1.00009 0.0
H2450 H 0.97694 0.29862 0.98665 0.0
H2451 H 0.92784 0.29103 0.01505 0.0
H2452 H 0.91413 0.29078 0.99863 0.0
H2453 H 0.92743 0.3074 0.01039 0.0
H2454 H 0.93437 0.31939 0.97418 0.0
H2455 H 0.92118 0.30282 0.96231 0.0
H2456 H 0.93971 0.3113 0.95415 0.0
H2457 H 0.95856 0.27566 0.96929 0.0
H2458 H 0.93825 0.25619 0.95035 0.0
H2459 H 0.91228 0.27591 0.96399 0.0
C2460 C 0.95941 0.32228 0.99807 0.0
C2461 C 0.97433 0.328 0.00146 0.0
C2462 C 0.98048 0.31919 0.99774 0.0
C2463 C 0.97207 0.30512 0.9901 0.0
C2464 C 0.95747 0.29993 0.98649 0.0
C2465 C 0.95115 0.30819 0.99057 0.0
C2466 C 0.93544 0.30039 0.98425 0.0
C2467 C 0.92563 0.29721 0.00321 0.0
C2468 C 0.93251 0.30899 0.96774 0.0
C2469 C 0.93402 0.28668 0.97531 0.0
C2470 C 0.9468 0.28656 0.97689 0.0
C2471 C 0.94839 0.27549 0.96837 0.0
C2472 C 0.9367 0.26438 0.95773 0.0
C2473 C 0.92349 0.26432 0.95566 0.0
C2474 C 0.92216 0.27556 0.96505 0.0
H2475 H 0.69266 0.66293 0.99176 0.0
H2476 H 0.68001 0.62029 0.0152 0.0
H2477 H 0.70335 0.62325 0.00414 0.0
H2478 H 0.70919 0.66025 0.94677 0.0
H2479 H 0.72366 0.67869 0.94659 0.0
H2480 H 0.70679 0.67411 0.9587 0.0
H2481 H 0.72005 0.68568 0.99302 0.0
H2482 H 0.737 0.69036 0.98096 0.0
H2483 H 0.73164 0.67986 0.00444 0.0
H2484 H 0.7269 0.62972 0.98756 0.0
H2485 H 0.7492 0.63941 0.96684 0.0
H2486 H 0.74669 0.67777 0.95368 0.0
C2487 C 0.69496 0.65438 0.99505 0.0
C2488 C 0.68454 0.64142 0.00451 0.0
C2489 C 0.68783 0.63034 0.00806 0.0
C2490 C 0.70109 0.63193 0.00187 0.0
C2491 C 0.71099 0.64468 0.99213 0.0
C2492 C 0.70814 0.65576 0.98881 0.0
C2493 C 0.72021 0.66789 0.97661 0.0
C2494 C 0.71462 0.67037 0.95595 0.0
C2495 C 0.72767 0.68177 0.98953 0.0
C2496 C 0.73008 0.66174 0.97318 0.0
C2497 C 0.72461 0.6484 0.98243 0.0
C2498 C 0.73138 0.64023 0.98046 0.0
C2499 C 0.744 0.64579 0.96856 0.0
C2500 C 0.74974 0.65937 0.95873 0.0
C2501 C 0.74274 0.66749 0.96135 0.0
H2502 H 0.95107 0.63211 0.99582 0.0
H2503 H 0.98836 0.67509 0.99818 0.0
H2504 H 0.97373 0.685 0.98378 0.0
H2505 H 0.93778 0.63585 0.94834 0.0
H2506 H 0.91905 0.62542 0.95541 0.0
H2507 H 0.93205 0.62195 0.96775 0.0
H2508 H 0.92396 0.62596 0.00376 0.0
H2509 H 0.91087 0.6294 0.99152 0.0
H2510 H 0.92402 0.64252 0.00891 0.0
H2511 H 0.95549 0.68981 0.9659 0.0
H2512 H 0.93536 0.68918 0.94654 0.0
H2513 H 0.90973 0.64313 0.95745 0.0
C2514 C 0.95613 0.64364 0.99364 0.0
C2515 C 0.97088 0.65283 0.99818 0.0
C2516 C 0.97708 0.66784 0.99492 0.0
C2517 C 0.96884 0.67357 0.98676 0.0
C2518 C 0.95438 0.66416 0.98213 0.0
C2519 C 0.94806 0.64953 0.98563 0.0
C2520 C 0.93255 0.64162 0.97841 0.0
C2521 C 0.93023 0.63056 0.96147 0.0
C2522 C 0.92224 0.63445 0.99675 0.0
C2523 C 0.93121 0.65403 0.96977 0.0
C2524 C 0.94387 0.66696 0.97217 0.0
C2525 C 0.94544 0.67977 0.96427 0.0
C2526 C 0.93387 0.67931 0.95339 0.0
C2527 C 0.92083 0.66612 0.95046 0.0
C2528 C 0.91951 0.6534 0.95921 0.0
H2529 H 0.35361 0.3231 0.99058 0.0
H2530 H 0.38474 0.32438 0.03465 0.0
H2531 H 0.37921 0.30009 0.02356 0.0
H2532 H 0.32752 0.28374 0.9935 0.0
H2533 H 0.32403 0.28248 0.96605 0.0
H2534 H 0.32874 0.29893 0.97968 0.0
H2535 H 0.34986 0.31312 0.95415 0.0
H2536 H 0.34527 0.29674 0.94054 0.0
H2537 H 0.36319 0.30773 0.95071 0.0
H2538 H 0.37185 0.27661 0.00567 0.0
H2539 H 0.36377 0.25606 0.98175 0.0
H2540 H 0.33862 0.27081 0.9477 0.0
C2541 C 0.35891 0.31805 0.99834 0.0
C2542 C 0.36942 0.3255 0.01373 0.0
C2543 C 0.37654 0.31879 0.02299 0.0
C2544 C 0.37345 0.30499 0.01681 0.0
C2545 C 0.36331 0.29807 1.0012 0.0
C2546 C 0.35614 0.30437 0.99207 0.0
C2547 C 0.34684 0.2953 0.97422 0.0
C2548 C 0.33083 0.28979 0.97863 0.0
C2549 C 0.35158 0.30373 0.9537 0.0
C2550 C 0.35012 0.28309 0.97449 0.0
C2551 C 0.35947 0.28478 0.99036 0.0
C2552 C 0.36447 0.27514 0.99324 0.0
C2553 C 0.35991 0.26356 0.97944 0.0
C2554 C 0.35056 0.26175 0.96273 0.0
C2555 C 0.34553 0.27164 0.96048 0.0
H2556 H 0.68894 0.06037 0.98381 0.0
H2557 H 0.70014 0.03507 0.02405 0.0
H2558 H 0.72579 0.0503 0.01419 0.0
H2559 H 0.71225 0.06314 0.94314 0.0
H2560 H 0.71666 0.08108 0.93562 0.0
H2561 H 0.6996 0.06928 0.94767 0.0
H2562 H 0.70507 0.08843 0.97606 0.0
H2563 H 0.7222 0.10027 0.96413 0.0
H2564 H 0.72141 0.09533 0.99098 0.0
H2565 H 0.75017 0.06818 0.99939 0.0
H2566 H 0.77083 0.08532 0.97832 0.0
H2567 H 0.74302 0.09721 0.94519 0.0
C2568 C 0.69684 0.05821 0.99085 0.0
C2569 C 0.69264 0.04671 0.00496 0.0
C2570 C 0.70319 0.04391 0.01334 0.0
C2571 C 0.71776 0.05253 0.00789 0.0
C2572 C 0.72154 0.06375 0.99381 0.0
C2573 C 0.71134 0.06648 0.98521 0.0
C2574 C 0.71795 0.07828 0.96904 0.0
C2575 C 0.71121 0.0726 0.9476 0.0
C2576 C 0.71657 0.09135 0.97544 0.0
C2577 C 0.73347 0.08174 0.96976 0.0
C2578 C 0.73537 0.07343 0.9844 0.0
C2579 C 0.74876 0.07466 0.98777 0.0
C2580 C 0.76043 0.08437 0.97556 0.0
C2581 C 0.75864 0.09258 0.95978 0.0
C2582 C 0.74494 0.09133 0.9572 0.0
H2583 H 0.6284 0.95522 0.05366 0.0
H2584 H 0.66356 0.97478 0.00964 0.0
H2585 H 0.67117 0.95722 0.01967 0.0
H2586 H 0.64897 0.95028 0.09314 0.0
H2587 H 0.634 0.93368 0.10245 0.0
H2588 H 0.63084 0.94702 0.09051 0.0
H2589 H 0.61359 0.92796 0.06413 0.0
H2590 H 0.6168 0.91459 0.07592 0.0
H2591 H 0.61997 0.91832 0.0486 0.0
H2592 H 0.67431 0.93677 0.03423 0.0
H2593 H 0.67467 0.91751 0.05456 0.0
H2594 H 0.63925 0.91383 0.09199 0.0
C2595 C 0.6376 0.95568 0.04596 0.0
C2596 C 0.64528 0.96615 0.03064 0.0
C2597 C 0.6575 0.96674 0.02132 0.0
C2598 C 0.66185 0.95679 0.02687 0.0
C2599 C 0.65402 0.94656 0.04207 0.0
C2600 C 0.64231 0.94613 0.05172 0.0
C2601 C 0.63639 0.93489 0.06868 0.0
C2602 C 0.63763 0.94189 0.08995 0.0
C2603 C 0.62076 0.92325 0.06404 0.0
C2604 C 0.6465 0.92892 0.06698 0.0
C2605 C 0.65646 0.9356 0.05136 0.0
C2606 C 0.66668 0.93161 0.0467 0.0
C2607 C 0.66686 0.92069 0.05853 0.0
C2608 C 0.65708 0.91402 0.07521 0.0
C2609 C 0.64676 0.9183 0.07924 0.0
H2610 H 0.0458 0.69896 0.03546 0.0
H2611 H 0.0683 0.67561 0.04872 0.0
H2612 H 0.08789 0.69721 0.06521 0.0
H2613 H 0.0786 0.73386 0.02444 0.0
H2614 H 0.0714 0.74416 0.03626 0.0
H2615 H 0.05946 0.72709 0.02424 0.0
H2616 H 0.04501 0.71811 0.05845 0.0
H2617 H 0.05694 0.73509 0.07059 0.0
H2618 H 0.05426 0.71859 0.08201 0.0
H2619 H 0.10369 0.72026 0.08349 0.0
H2620 H 0.11552 0.74381 0.10059 0.0
H2621 H 0.08426 0.75345 0.07297 0.0
C2622 C 0.05495 0.69847 0.04158 0.0
C2623 C 0.05548 0.68556 0.04078 0.0
C2624 C 0.06763 0.68535 0.04905 0.0
C2625 C 0.07884 0.69758 0.05848 0.0
C2626 C 0.07789 0.71005 0.0593 0.0
C2627 C 0.06638 0.71069 0.05086 0.0
C2628 C 0.06795 0.72541 0.05431 0.0
C2629 C 0.06944 0.73308 0.03358 0.0
C2630 C 0.05529 0.72422 0.0671 0.0
C2631 C 0.08191 0.73274 0.06652 0.0
C2632 C 0.08744 0.72368 0.06919 0.0
C2633 C 0.09967 0.72762 0.08109 0.0
C2634 C 0.10642 0.74117 0.09063 0.0
C2635 C 0.10108 0.75082 0.08807 0.0
C2636 C 0.08871 0.74648 0.07553 0.0
H2637 H 0.32134 0.34916 0.03015 0.0
H2638 H 0.3367 0.3946 0.02002 0.0
H2639 H 0.3141 0.39161 0.03432 0.0
H2640 H 0.28264 0.33678 0.01809 0.0
H2641 H 0.27625 0.32298 0.03771 0.0
H2642 H 0.293 0.32828 0.02456 0.0
H2643 H 0.30607 0.33367 0.05994 0.0
H2644 H 0.28942 0.32855 0.07318 0.0
H2645 H 0.30487 0.3461 0.07752 0.0
H2646 H 0.29186 0.38473 0.05455 0.0
H2647 H 0.27033 0.374 0.07636 0.0
H2648 H 0.26754 0.33222 0.0703 0.0
C2649 C 0.3198 0.35839 0.03047 0.0
C2650 C 0.33084 0.37212 0.02393 0.0
C2651 C 0.32843 0.38396 0.02483 0.0
C2652 C 0.31561 0.38239 0.03296 0.0
C2653 C 0.30513 0.36884 0.03983 0.0
C2654 C 0.30692 0.35697 0.03831 0.0
C2655 C 0.29415 0.34376 0.04766 0.0
C2656 C 0.28603 0.33227 0.03101 0.0
C2657 C 0.29892 0.33767 0.06564 0.0
C2658 C 0.28524 0.35024 0.05538 0.0
C2659 C 0.29179 0.3647 0.05066 0.0
C2660 C 0.28636 0.37329 0.05778 0.0
C2661 C 0.27394 0.36698 0.07011 0.0
C2662 C 0.26679 0.35206 0.07506 0.0
C2663 C 0.27255 0.34363 0.06716 0.0
H2664 H 0.7326 0.71585 0.37718 0.0
H2665 H 0.69399 0.67495 0.36496 0.0
H2666 H 0.70633 0.66211 0.37727 0.0
H2667 H 0.75841 0.70442 0.36187 0.0
H2668 H 0.77103 0.71485 0.38193 0.0
H2669 H 0.75946 0.72083 0.37092 0.0
H2670 H 0.75001 0.72159 0.40756 0.0
H2671 H 0.76149 0.71558 0.41866 0.0
H2672 H 0.74239 0.70565 0.4235 0.0
H2673 H 0.7221 0.65378 0.39371 0.0
H2674 H 0.74024 0.65042 0.41215 0.0
H2675 H 0.7693 0.69673 0.41178 0.0
C2676 C 0.72678 0.70419 0.37686 0.0
C2677 C 0.71231 0.69641 0.37009 0.0
C2678 C 0.70508 0.68116 0.37 0.0
C2679 C 0.71201 0.67376 0.37697 0.0
C2680 C 0.72621 0.68176 0.38377 0.0
C2681 C 0.73357 0.69664 0.38361 0.0
C2682 C 0.74863 0.70265 0.39235 0.0
C2683 C 0.76006 0.71119 0.37577 0.0
C2684 C 0.75074 0.71191 0.41166 0.0
C2685 C 0.74847 0.68883 0.3979 0.0
C2686 C 0.73546 0.67692 0.39276 0.0
C2687 C 0.73244 0.66302 0.39744 0.0
C2688 C 0.74294 0.66123 0.4078 0.0
C2689 C 0.75642 0.67327 0.41332 0.0
C2690 C 0.75917 0.68725 0.40797 0.0
H2691 H 0.30802 0.02865 0.36219 0.0
H2692 H 0.34752 0.02808 0.37444 0.0
H2693 H 0.35781 0.05202 0.39103 0.0
H2694 H 0.32508 0.06801 0.35238 0.0
H2695 H 0.31053 0.06895 0.36485 0.0
H2696 H 0.3071 0.0527 0.35171 0.0
H2697 H 0.29585 0.03809 0.38529 0.0
H2698 H 0.29932 0.05426 0.39854 0.0
H2699 H 0.30624 0.0433 0.40886 0.0
H2700 H 0.36246 0.07457 0.41029 0.0
H2701 H 0.3613 0.09384 0.42954 0.0
H2702 H 0.31918 0.08014 0.40301 0.0
C2703 C 0.31897 0.03368 0.36793 0.0
C2704 C 0.32698 0.0265 0.36696 0.0
C2705 C 0.34121 0.03342 0.37486 0.0
C2706 C 0.34714 0.04702 0.38433 0.0
C2707 C 0.33878 0.05363 0.38551 0.0
C2708 C 0.32506 0.04725 0.37727 0.0
C2709 C 0.31792 0.0561 0.38166 0.0
C2710 C 0.31499 0.06178 0.36144 0.0
C2711 C 0.30402 0.04742 0.39434 0.0
C2712 C 0.32955 0.06821 0.3943 0.0
C2713 C 0.34156 0.0667 0.39622 0.0
C2714 C 0.35323 0.07603 0.40851 0.0
C2715 C 0.3525 0.08702 0.41932 0.0
C2716 C 0.34017 0.08863 0.41783 0.0
C2717 C 0.32874 0.07923 0.4047 0.0
H2718 H 0.99607 0.28462 0.36303 0.0
H2719 H 0.99377 0.32361 0.37102 0.0
H2720 H 0.96922 0.30918 0.38544 0.0
H2721 H 0.95759 0.26077 0.34942 0.0
H2722 H 0.9567 0.24574 0.36322 0.0
H2723 H 0.97338 0.25897 0.35149 0.0
H2724 H 0.98625 0.26322 0.38691 0.0
H2725 H 0.96964 0.25009 0.39875 0.0
H2726 H 0.97934 0.26811 0.40902 0.0
H2727 H 0.94618 0.29077 0.40297 0.0
H2728 H 0.92653 0.27011 0.42118 0.0
H2729 H 0.94321 0.24289 0.39962 0.0
C2730 C 0.99031 0.29012 0.36743 0.0
C2731 C 0.99685 0.30526 0.36587 0.0
C2732 C 0.98897 0.31202 0.37195 0.0
C2733 C 0.97501 0.3039 0.38016 0.0
C2734 C 0.969 0.28902 0.3819 0.0
C2735 C 0.97635 0.28218 0.37546 0.0
C2736 C 0.96786 0.26618 0.38 0.0
C2737 C 0.96363 0.2574 0.35983 0.0
C2738 C 0.97628 0.26164 0.39453 0.0
C2739 C 0.9548 0.26515 0.39068 0.0
C2740 C 0.95559 0.2784 0.3915 0.0
C2741 C 0.9453 0.28028 0.40201 0.0
C2742 C 0.93407 0.26839 0.41222 0.0
C2743 C 0.93314 0.25471 0.41187 0.0
C2744 C 0.94354 0.25313 0.40044 0.0
H2745 H 0.02112 0.3728 0.32857 0.0
H2746 H 0.0668 0.4036 0.33409 0.0
H2747 H 0.06268 0.42272 0.32064 0.0
H2748 H 0.01579 0.38569 0.28139 0.0
H2749 H 0.99825 0.38306 0.28763 0.0
H2750 H 1.00439 0.37194 0.29962 0.0
H2751 H 1.00011 0.37939 0.33592 0.0
H2752 H 0.99387 0.3905 0.32402 0.0
H2753 H 0.00844 0.39823 0.34244 0.0
H2754 H 0.05427 0.43791 0.30341 0.0
H2755 H 0.042 0.44844 0.28427 0.0
H2756 H 1.00134 0.40844 0.29129 0.0
C2757 C 0.03021 0.38362 0.32731 0.0
C2758 C 0.04429 0.38668 0.33245 0.0
C2759 C 0.05591 0.40096 0.33031 0.0
C2760 C 0.05369 0.41193 0.3227 0.0
C2761 C 0.03975 0.40853 0.31741 0.0
C2762 C 0.02817 0.39477 0.31976 0.0
C2763 C 0.01442 0.39392 0.3119 0.0
C2764 C 0.00783 0.38301 0.29408 0.0
C2765 C 1.00357 0.3903 0.32963 0.0
C2766 C 0.02019 0.40924 0.30428 0.0
C2767 C 0.03481 0.41747 0.30776 0.0
C2768 C 0.04275 0.43167 0.30099 0.0
C2769 C 0.0356 0.43761 0.29024 0.0
C2770 C 0.02057 0.42943 0.28637 0.0
C2771 C 0.01281 0.41507 0.29382 0.0
H2772 H 0.62645 0.66491 0.30911 0.0
H2773 H 0.65468 0.65577 0.34625 0.0
H2774 H 0.64048 0.63009 0.33639 0.0
H2775 H 0.5931 0.63145 0.31918 0.0
H2776 H 0.58658 0.63007 0.29308 0.0
H2777 H 0.59835 0.64751 0.30418 0.0
H2778 H 0.61607 0.65362 0.27349 0.0
H2779 H 0.60433 0.63624 0.26228 0.0
H2780 H 0.62288 0.64171 0.26749 0.0
H2781 H 0.62351 0.60545 0.32165 0.0
H2782 H 0.60593 0.58412 0.30195 0.0
H2783 H 0.58954 0.60969 0.27324 0.0
C2784 C 0.62955 0.65748 0.31539 0.0
C2785 C 0.64162 0.66233 0.3286 0.0
C2786 C 0.64545 0.6523 0.33617 0.0
C2787 C 0.63743 0.63768 0.3307 0.0
C2788 C 0.62564 0.63327 0.31755 0.0
C2789 C 0.62176 0.6429 0.30991 0.0
C2790 C 0.60915 0.63557 0.29511 0.0
C2791 C 0.59602 0.63619 0.30339 0.0
C2792 C 0.61336 0.64218 0.2733 0.0
C2793 C 0.60657 0.62034 0.29552 0.0
C2794 C 0.61611 0.6192 0.30868 0.0
C2795 C 0.61599 0.60624 0.31129 0.0
C2796 C 0.60601 0.59418 0.29993 0.0
C2797 C 0.59631 0.59516 0.28596 0.0
C2798 C 0.59658 0.60844 0.284 0.0
H2799 H 0.36667 0.99404 0.33963 0.0
H2800 H 0.34419 0.94784 0.32931 0.0
H2801 H 0.36611 0.94985 0.31391 0.0
H2802 H 0.3862 0.00414 0.29348 0.0
H2803 H 0.4026 0.01853 0.30428 0.0
H2804 H 0.38559 0.01347 0.31634 0.0
H2805 H 0.39493 0.00929 0.35117 0.0
H2806 H 0.41205 0.01447 0.33924 0.0
H2807 H 0.40215 0.9973 0.35208 0.0
H2808 H 0.38917 0.95714 0.29545 0.0
H2809 H 0.41246 0.96888 0.27769 0.0
H2810 H 0.42135 0.01016 0.30295 0.0
C2811 C 0.36645 0.98432 0.33451 0.0
C2812 C 0.35367 0.97078 0.33571 0.0
C2813 C 0.35382 0.95833 0.32868 0.0
C2814 C 0.36624 0.95935 0.31986 0.0
C2815 C 0.37854 0.97287 0.31847 0.0
C2816 C 0.37886 0.98511 0.3259 0.0
C2817 C 0.3934 0.99836 0.32185 0.0
C2818 C 0.39184 0.00926 0.30817 0.0
C2819 C 0.40109 0.00526 0.34231 0.0
C2820 C 0.40098 0.99169 0.31036 0.0
C2821 C 0.3922 0.97698 0.3086 0.0
C2822 C 0.39632 0.96861 0.29722 0.0
C2823 C 0.40975 0.97544 0.28729 0.0
C2824 C 0.41914 0.99055 0.28895 0.0
C2825 C 0.41461 0.99865 0.30102 0.0
H2826 H 0.64424 0.99289 0.31894 0.0
H2827 H 0.61708 0.95701 0.35907 0.0
H2828 H 0.59616 0.95971 0.35 0.0
H2829 H 0.62566 0.01415 0.32655 0.0
H2830 H 0.62758 0.01932 0.29966 0.0
H2831 H 0.6409 0.01622 0.31191 0.0
H2832 H 0.63711 0.99753 0.2836 0.0
H2833 H 0.62379 1.00055 0.27132 0.0
H2834 H 0.61926 0.9826 0.279 0.0
H2835 H 0.57786 0.96483 0.3344 0.0
H2836 H 0.56313 0.97095 0.31188 0.0
H2837 H 0.60176 1.0025 0.27993 0.0
C2838 C 0.63397 0.98593 0.32629 0.0
C2839 C 0.63229 0.97491 0.34001 0.0
C2840 C 0.6186 0.96561 0.34871 0.0
C2841 C 0.60668 0.9671 0.3437 0.0
C2842 C 0.60858 0.97785 0.32976 0.0
C2843 C 0.62187 0.98708 0.32109 0.0
C2844 C 0.62064 0.99659 0.30474 0.0
C2845 C 0.6292 0.01252 0.3111 0.0
C2846 C 0.62548 0.99416 0.28341 0.0
C2847 C 0.60456 0.99103 0.30525 0.0
C2848 C 0.59787 0.98041 0.32006 0.0
C2849 C 0.58299 0.97318 0.32283 0.0
C2850 C 0.5747 0.97668 0.30984 0.0
C2851 C 0.58123 0.98718 0.29404 0.0
C2852 C 0.59642 0.99461 0.29206 0.0
H2853 H 0.02538 0.65442 0.31312 0.0
H2854 H 0.06286 0.66346 0.34972 0.0
H2855 H 0.05969 0.6397 0.34042 0.0
H2856 H 1.00434 0.61496 0.32206 0.0
H2857 H 0.99802 0.61118 0.29568 0.0
H2858 H 1.00185 0.62794 0.30757 0.0
H2859 H 0.01942 0.64206 0.27768 0.0
H2860 H 0.01561 0.62538 0.26571 0.0
H2861 H 0.03393 0.63874 0.27173 0.0
H2862 H 0.05343 0.61576 0.32579 0.0
H2863 H 0.04593 0.5942 0.30426 0.0
H2864 H 0.01369 0.60138 0.27461 0.0
C2865 C 0.03267 0.65119 0.31954 0.0
C2866 C 0.04423 0.66061 0.3324 0.0
C2867 C 0.05388 0.6563 0.33997 0.0
C2868 C 0.05212 0.64282 0.33486 0.0
C2869 C 0.04076 0.63382 0.3219 0.0
C2870 C 0.03127 0.63785 0.31415 0.0
C2871 C 0.02099 0.62684 0.2987 0.0
C2872 C 1.00537 0.61981 0.30648 0.0
C2873 C 0.02259 0.63366 0.27719 0.0
C2874 C 0.02637 0.61616 0.29874 0.0
C2875 C 0.03759 0.62027 0.31256 0.0
C2876 C 0.04464 0.61242 0.31492 0.0
C2877 C 0.04036 0.60023 0.30249 0.0
C2878 C 0.02928 0.59608 0.28757 0.0
C2879 C 0.02203 0.60406 0.28605 0.0
H2880 H 0.36712 0.39674 0.3426 0.0
H2881 H 0.36125 0.35449 0.32903 0.0
H2882 H 0.38512 0.36592 0.31217 0.0
H2883 H 0.38342 0.41312 0.29599 0.0
H2884 H 0.39605 0.43036 0.30694 0.0
H2885 H 0.3792 0.419 0.3198 0.0
H2886 H 0.39278 0.41977 0.35339 0.0
H2887 H 0.4097 0.43126 0.34068 0.0
H2888 H 0.40645 0.41467 0.3525 0.0
H2889 H 0.40801 0.38178 0.29301 0.0
H2890 H 0.42902 0.40075 0.27493 0.0
H2891 H 0.42123 0.43306 0.3032 0.0
C2892 C 0.37096 0.38988 0.33645 0.0
C2893 C 0.3623 0.3747 0.33717 0.0
C2894 C 0.3677 0.36613 0.32878 0.0
C2895 C 0.38125 0.37253 0.31914 0.0
C2896 C 0.38935 0.38751 0.31826 0.0
C2897 C 0.38452 0.3961 0.32695 0.0
C2898 C 0.39509 0.41193 0.32313 0.0
C2899 C 0.38801 0.41901 0.31073 0.0
C2900 C 0.40138 0.41987 0.34365 0.0
C2901 C 0.40641 0.41088 0.31039 0.0
C2902 C 0.40289 0.39671 0.30782 0.0
C2903 C 0.41109 0.39294 0.29539 0.0
C2904 C 0.42317 0.40392 0.28528 0.0
C2905 C 0.42718 0.41864 0.28776 0.0
C2906 C 0.41864 0.42204 0.30077 0.0
H2907 H 0.33124 0.30969 0.37275 0.0
H2908 H 0.28575 0.28082 0.3612 0.0
H2909 H 0.2881 0.26036 0.3737 0.0
H2910 H 0.34349 0.28403 0.35877 0.0
H2911 H 0.35679 0.29034 0.37907 0.0
H2912 H 0.3519 0.30251 0.36722 0.0
H2913 H 0.34561 0.3084 0.40331 0.0
H2914 H 0.35042 0.29622 0.41525 0.0
H2915 H 0.33279 0.29395 0.41947 0.0
H2916 H 0.29477 0.24341 0.39046 0.0
H2917 H 0.30555 0.2311 0.40949 0.0
H2918 H 0.34669 0.27081 0.41017 0.0
C2919 C 0.32185 0.29902 0.37243 0.0
C2920 C 0.30832 0.29687 0.36588 0.0
C2921 C 0.29623 0.28276 0.36606 0.0
C2922 C 0.29746 0.27104 0.37312 0.0
C2923 C 0.31086 0.27357 0.37989 0.0
C2924 C 0.32287 0.28718 0.37948 0.0
C2925 C 0.33581 0.28709 0.38878 0.0
C2926 C 0.3477 0.29124 0.37248 0.0
C2927 C 0.34148 0.297 0.40783 0.0
C2928 C 0.32912 0.27137 0.39487 0.0
C2929 C 0.31473 0.26374 0.38949 0.0
C2930 C 0.30607 0.24923 0.39452 0.0
C2931 C 0.31226 0.24234 0.40542 0.0
C2932 C 0.32697 0.24996 0.41118 0.0
C2933 C 0.33549 0.26463 0.4056 0.0
H2934 H 0.73253 0.02803 0.35571 0.0
H2935 H 0.69204 0.02476 0.37391 0.0
H2936 H 0.70538 0.04827 0.39163 0.0
H2937 H 0.7506 0.04199 0.40159 0.0
H2938 H 0.76786 0.05404 0.39016 0.0
H2939 H 0.75524 0.038 0.37659 0.0
H2940 H 0.75637 0.05328 0.34479 0.0
H2941 H 0.76911 0.06941 0.35822 0.0
H2942 H 0.75273 0.06786 0.34807 0.0
H2943 H 0.72309 0.07035 0.41139 0.0
H2944 H 0.74355 0.08954 0.43041 0.0
H2945 H 0.77267 0.07931 0.39749 0.0
C2946 C 0.72645 0.0324 0.363 0.0
C2947 C 0.71122 0.02455 0.36337 0.0
C2948 C 0.70369 0.0306 0.37329 0.0
C2949 C 0.71118 0.04396 0.38341 0.0
C2950 C 0.7262 0.05123 0.38321 0.0
C2951 C 0.73375 0.04575 0.37301 0.0
C2952 C 0.74983 0.05521 0.3762 0.0
C2953 C 0.75625 0.04681 0.38676 0.0
C2954 C 0.75746 0.06183 0.35559 0.0
C2955 C 0.75014 0.06658 0.39045 0.0
C2956 C 0.73642 0.06417 0.39418 0.0
C2957 C 0.73392 0.07256 0.40818 0.0
C2958 C 0.74569 0.08355 0.41884 0.0
C2959 C 0.75989 0.08617 0.41546 0.0
C2960 C 0.76204 0.07767 0.40065 0.0
H2961 H 1.00216 0.7144 0.39459 0.0
H2962 H 0.98702 0.67952 0.35016 0.0
H2963 H 0.96179 0.67147 0.36038 0.0
H2964 H 0.97661 0.6937 0.43413 0.0
H2965 H 0.97484 0.70865 0.44317 0.0
H2966 H 0.99142 0.71185 0.43146 0.0
H2967 H 0.98965 0.72899 0.40477 0.0
H2968 H 0.973 0.72574 0.41632 0.0
H2969 H 0.97369 0.72249 0.38907 0.0
H2970 H 0.93802 0.66794 0.37517 0.0
H2971 H 0.91827 0.66773 0.39507 0.0
H2972 H 0.94979 0.70354 0.43205 0.0
C2973 C 0.99353 0.70512 0.38689 0.0
C2974 C 0.99648 0.69767 0.3714 0.0
C2975 C 0.98494 0.6854 0.36201 0.0
C2976 C 0.97061 0.6808 0.36767 0.0
C2977 C 0.96806 0.68845 0.383 0.0
C2978 C 0.97926 0.70023 0.39266 0.0
C2979 C 0.97383 0.70617 0.40942 0.0
C2980 C 0.97951 0.70502 0.43081 0.0
C2981 C 0.97778 0.72177 0.4046 0.0
C2982 C 0.95779 0.696 0.4076 0.0
C2983 C 0.95461 0.68595 0.39215 0.0
C2984 C 0.94043 0.67567 0.38746 0.0
C2985 C 0.92926 0.67559 0.39901 0.0
C2986 C 0.9323 0.68559 0.41533 0.0
C2987 C 0.94686 0.69589 0.4195 0.0
H2988 H 0.39929 0.05292 0.69817 0.0
H2989 H 0.36188 0.00998 0.69797 0.0
H2990 H 0.37671 1.00027 0.71221 0.0
H2991 H 0.42638 0.04205 0.68549 0.0
H2992 H 0.43963 0.05554 0.70239 0.0
H2993 H 0.42651 0.05874 0.68971 0.0
H2994 H 0.41865 0.06361 0.72533 0.0
H2995 H 0.43164 0.06033 0.73811 0.0
H2996 H 0.41292 0.05014 0.74538 0.0
H2997 H 0.39496 0.99576 0.7304 0.0
H2998 H 0.41501 0.99675 0.7504 0.0
H2999 H 0.44078 0.04254 0.73757 0.0
C3000 C 0.39427 0.04142 0.70062 0.0
C3001 C 0.37942 0.0322 0.69683 0.0
C3002 C 0.37325 0.01725 0.70061 0.0
C3003 C 0.3816 0.01163 0.70869 0.0
C3004 C 0.39613 0.02108 0.71277 0.0
C3005 C 0.40245 0.03564 0.70866 0.0
C3006 C 0.418 0.04366 0.71575 0.0
C3007 C 0.42823 0.05039 0.69723 0.0
C3008 C 0.42043 0.0551 0.73211 0.0
C3009 C 0.41933 0.03142 0.7251 0.0
C3010 C 0.40666 0.01846 0.72305 0.0
C3011 C 0.40503 0.00581 0.73172 0.0
C3012 C 0.41656 0.00648 0.74298 0.0
C3013 C 0.42961 0.01971 0.74557 0.0
C3014 C 0.43099 0.03225 0.73607 0.0
H3015 H 0.99623 0.36351 0.70081 0.0
H3016 H 0.95018 0.34096 0.71252 0.0
H3017 H 0.95234 0.3629 0.72804 0.0
H3018 H 0.00692 0.38366 0.74702 0.0
H3019 H 0.0211 0.39991 0.73553 0.0
H3020 H 0.01596 0.38271 0.72404 0.0
H3021 H 0.01128 0.39147 0.68903 0.0
H3022 H 0.01648 0.40874 0.70041 0.0
H3023 H 0.99915 0.39852 0.6881 0.0
H3024 H 0.95966 0.38623 0.7455 0.0
H3025 H 0.97143 0.40994 0.7621 0.0
H3026 H 0.01253 0.41862 0.73639 0.0
C3027 C 0.98659 0.36326 0.70641 0.0
C3028 C 0.97304 0.35048 0.70544 0.0
C3029 C 0.96068 0.3506 0.713 0.0
C3030 C 0.96178 0.36302 0.72187 0.0
C3031 C 0.97528 0.37536 0.72284 0.0
C3032 C 0.98745 0.37567 0.7151 0.0
C3033 C 1.00069 0.39032 0.71854 0.0
C3034 C 0.01182 0.38907 0.73209 0.0
C3035 C 0.00729 0.3977 0.69778 0.0
C3036 C 0.99408 0.398 0.72993 0.0
C3037 C 0.97942 0.38915 0.7322 0.0
C3038 C 0.97109 0.39341 0.74339 0.0
C3039 C 0.97793 0.40706 0.75263 0.0
C3040 C 0.99299 0.41649 0.75047 0.0
C3041 C 1.00106 0.41183 0.73862 0.0
H3042 H 0.65577 0.64271 0.7088 0.0
H3043 H 0.66247 0.617 0.66318 0.0
H3044 H 0.6388 0.59606 0.6719 0.0
H3045 H 0.64195 0.61628 0.74621 0.0
H3046 H 0.62901 0.62065 0.75665 0.0
H3047 H 0.64497 0.63435 0.74411 0.0
H3048 H 0.62933 0.63954 0.71885 0.0
H3049 H 0.61327 0.62585 0.73142 0.0
H3050 H 0.61552 0.62502 0.70388 0.0
H3051 H 0.61598 0.5773 0.68819 0.0
H3052 H 0.59615 0.56175 0.71185 0.0
H3053 H 0.60481 0.59918 0.74844 0.0
C3054 C 0.65196 0.63281 0.70014 0.0
C3055 C 0.66077 0.6315 0.68502 0.0
C3056 C 0.65577 0.61823 0.67461 0.0
C3057 C 0.64233 0.60631 0.67943 0.0
C3058 C 0.63406 0.60779 0.69484 0.0
C3059 C 0.63867 0.6207 0.70508 0.0
C3060 C 0.6286 0.6189 0.7228 0.0
C3061 C 0.63661 0.62277 0.74367 0.0
C3062 C 0.62124 0.62786 0.719 0.0
C3063 C 0.61789 0.60291 0.7213 0.0
C3064 C 0.62109 0.59677 0.70482 0.0
C3065 C 0.61328 0.58201 0.70102 0.0
C3066 C 0.60209 0.57325 0.71463 0.0
C3067 C 0.59889 0.57921 0.73202 0.0
C3068 C 0.60676 0.5943 0.73507 0.0
H3069 H 0.68635 0.70948 0.66918 0.0
H3070 H 0.7324 0.73852 0.67497 0.0
H3071 H 0.72975 0.75799 0.65925 0.0
H3072 H 0.68205 0.7211 0.62094 0.0
H3073 H 0.66499 0.71994 0.62623 0.0
H3074 H 0.67006 0.70857 0.64004 0.0
H3075 H 0.66653 0.71823 0.67502 0.0
H3076 H 0.66128 0.72952 0.66131 0.0
H3077 H 0.67586 0.73736 0.67969 0.0
H3078 H 0.72279 0.77318 0.63846 0.0
H3079 H 0.7117 0.78381 0.61684 0.0
H3080 H 0.66969 0.74597 0.62726 0.0
C3081 C 0.69581 0.72003 0.66761 0.0
C3082 C 0.70958 0.72244 0.67336 0.0
C3083 C 0.72172 0.73638 0.6708 0.0
C3084 C 0.72034 0.74754 0.66184 0.0
C3085 C 0.70672 0.74471 0.65579 0.0
C3086 C 0.69461 0.73139 0.6589 0.0
C3087 C 0.68131 0.7311 0.65021 0.0
C3088 C 0.67419 0.71949 0.63335 0.0
C3089 C 0.67062 0.72893 0.6676 0.0
C3090 C 0.68795 0.74613 0.64109 0.0
C3091 C 0.7026 0.75379 0.64452 0.0
C3092 C 0.71125 0.76745 0.63616 0.0
C3093 C 0.70476 0.77347 0.62396 0.0
C3094 C 0.68968 0.76594 0.62032 0.0
C3095 C 0.68123 0.75212 0.62938 0.0
H3096 H 0.31118 0.98448 0.66702 0.0
H3097 H 0.28069 0.99974 0.67324 0.0
H3098 H 0.26166 0.9771 0.65825 0.0
H3099 H 0.29879 0.96711 0.61897 0.0
H3100 H 0.30097 0.95188 0.62493 0.0
H3101 H 0.31216 0.9689 0.63751 0.0
H3102 H 0.30399 0.95665 0.6734 0.0
H3103 H 0.29283 0.93956 0.66092 0.0
H3104 H 0.28505 0.94636 0.67933 0.0
H3105 H 0.24666 0.95424 0.63923 0.0
H3106 H 0.23607 0.9318 0.61941 0.0
H3107 H 0.27526 0.92973 0.62815 0.0
C3108 C 0.30044 0.98296 0.6655 0.0
C3109 C 0.29746 0.99393 0.67133 0.0
C3110 C 0.28328 0.99152 0.66898 0.0
C3111 C 0.27236 0.97868 0.66045 0.0
C3112 C 0.27568 0.96819 0.65458 0.0
C3113 C 0.2893 0.97006 0.65722 0.0
C3114 C 0.28998 0.95712 0.64911 0.0
C3115 C 0.30113 0.96152 0.63159 0.0
C3116 C 0.29315 0.94947 0.66674 0.0
C3117 C 0.27474 0.94793 0.64099 0.0
C3118 C 0.26672 0.95456 0.64433 0.0
C3119 C 0.25271 0.94874 0.63698 0.0
C3120 C 0.24672 0.93581 0.62585 0.0
C3121 C 0.2546 0.92859 0.62231 0.0
C3122 C 0.26881 0.9348 0.63032 0.0
H3123 H 0.0193 0.29418 0.65072 0.0
H3124 H 0.03297 0.33612 0.67765 0.0
H3125 H 0.05787 0.34459 0.66551 0.0
H3126 H 0.05173 0.29262 0.66117 0.0
H3127 H 0.05103 0.2841 0.63679 0.0
H3128 H 0.03463 0.28115 0.64888 0.0
H3129 H 0.02784 0.28993 0.61558 0.0
H3130 H 0.04417 0.29284 0.60338 0.0
H3131 H 0.04035 0.30738 0.60507 0.0
H3132 H 0.08135 0.3484 0.64983 0.0
H3133 H 0.1008 0.34783 0.63015 0.0
H3134 H 0.07092 0.3038 0.61161 0.0
C3135 C 0.02756 0.3051 0.65432 0.0
C3136 C 0.02424 0.31446 0.66533 0.0
C3137 C 0.03529 0.32875 0.66932 0.0
C3138 C 0.04947 0.33363 0.66254 0.0
C3139 C 0.05235 0.32412 0.65163 0.0
C3140 C 0.04165 0.31018 0.64742 0.0
C3141 C 0.04728 0.30234 0.63433 0.0
C3142 C 0.0461 0.28928 0.646 0.0
C3143 C 0.03945 0.29786 0.61335 0.0
C3144 C 0.06283 0.31403 0.63176 0.0
C3145 C 0.06561 0.32646 0.64202 0.0
C3146 C 0.07924 0.33872 0.64167 0.0
C3147 C 0.09021 0.33831 0.63031 0.0
C3148 C 0.0875 0.32578 0.61918 0.0
C3149 C 0.07357 0.31348 0.62018 0.0
H3150 H 0.31189 0.32698 0.66842 0.0
H3151 H 0.28776 0.28055 0.66066 0.0
H3152 H 0.2672 0.28221 0.64704 0.0
H3153 H 0.2805 0.33079 0.68359 0.0
H3154 H 0.28716 0.34757 0.66985 0.0
H3155 H 0.29962 0.34269 0.68068 0.0
H3156 H 0.31139 0.34575 0.64461 0.0
H3157 H 0.29892 0.35054 0.63365 0.0
H3158 H 0.30033 0.33579 0.62288 0.0
H3159 H 0.25043 0.28901 0.63049 0.0
H3160 H 0.23799 0.30031 0.61389 0.0
H3161 H 0.27182 0.34228 0.63487 0.0
C3162 C 0.30218 0.31714 0.66422 0.0
C3163 C 0.30147 0.30362 0.66565 0.0
C3164 C 0.28859 0.29103 0.6598 0.0
C3165 C 0.27682 0.29185 0.65203 0.0
C3166 C 0.27797 0.30533 0.65042 0.0
C3167 C 0.29022 0.31775 0.65659 0.0
C3168 C 0.28878 0.33091 0.65249 0.0
C3169 C 0.28903 0.33843 0.67287 0.0
C3170 C 0.30055 0.34136 0.63752 0.0
C3171 C 0.274 0.32397 0.64247 0.0
C3172 C 0.26796 0.30921 0.6415 0.0
C3173 C 0.25488 0.30054 0.63161 0.0
C3174 C 0.2478 0.30712 0.62235 0.0
C3175 C 0.25368 0.32228 0.62313 0.0
C3176 C 0.26692 0.33071 0.63371 0.0
H3177 H 0.71664 0.99244 0.66643 0.0
H3178 H 0.6754 0.99042 0.6599 0.0
H3179 H 0.66528 0.96635 0.64378 0.0
H3180 H 0.71645 0.97679 0.61921 0.0
H3181 H 0.72465 0.96675 0.62867 0.0
H3182 H 0.72821 0.98312 0.64141 0.0
H3183 H 0.71946 0.96946 0.67627 0.0
H3184 H 0.71596 0.95303 0.66365 0.0
H3185 H 0.70182 0.95369 0.67785 0.0
H3186 H 0.66066 0.94383 0.62454 0.0
H3187 H 0.66149 0.92437 0.60548 0.0
H3188 H 0.70522 0.94022 0.62726 0.0
C3189 C 0.70541 0.98684 0.66193 0.0
C3190 C 0.6968 0.99331 0.66442 0.0
C3191 C 0.68217 0.98564 0.65826 0.0
C3192 C 0.67634 0.97197 0.64907 0.0
C3193 C 0.68521 0.96602 0.64647 0.0
C3194 C 0.69938 0.97313 0.65301 0.0
C3195 C 0.7068 0.96467 0.64778 0.0
C3196 C 0.71979 0.97335 0.63342 0.0
C3197 C 0.71127 0.95993 0.66757 0.0
C3198 C 0.69476 0.9519 0.63663 0.0
C3199 C 0.68238 0.95283 0.63608 0.0
C3200 C 0.6702 0.94282 0.62528 0.0
C3201 C 0.67076 0.9317 0.61459 0.0
C3202 C 0.6834 0.93056 0.6148 0.0
C3203 C 0.6954 0.94072 0.62645 0.0
H3204 H 0.025 0.7335 0.66374 0.0
H3205 H 0.02962 0.69561 0.66784 0.0
H3206 H 0.05435 0.70965 0.65391 0.0
H3207 H 0.04248 0.74601 0.61652 0.0
H3208 H 0.05115 0.76485 0.62309 0.0
H3209 H 0.03449 0.75228 0.63542 0.0
H3210 H 0.04644 0.76056 0.67148 0.0
H3211 H 0.06316 0.77323 0.65925 0.0
H3212 H 0.06267 0.7601 0.67717 0.0
H3213 H 0.07761 0.72724 0.63598 0.0
H3214 H 0.09738 0.74678 0.61618 0.0
H3215 H 0.07797 0.77351 0.62547 0.0
C3216 C 0.03129 0.7282 0.66207 0.0
C3217 C 0.02536 0.71345 0.66693 0.0
C3218 C 0.03394 0.70691 0.66433 0.0
C3219 C 0.04801 0.71481 0.65644 0.0
C3220 C 0.05341 0.72927 0.65143 0.0
C3221 C 0.04534 0.73593 0.65434 0.0
C3222 C 0.05331 0.75136 0.64673 0.0
C3223 C 0.04485 0.75375 0.62942 0.0
C3224 C 0.05659 0.76193 0.66474 0.0
C3225 C 0.06694 0.75223 0.63849 0.0
C3226 C 0.06687 0.73943 0.64147 0.0
C3227 C 0.0779 0.7374 0.63392 0.0
C3228 C 0.08917 0.74864 0.62278 0.0
C3229 C 0.08937 0.76181 0.61924 0.0
C3230 C 0.07819 0.76361 0.62768 0.0
H3231 H 0.96456 0.61823 0.70683 0.0
H3232 H 0.00833 0.65414 0.70382 0.0
H3233 H 0.01729 0.63852 0.71754 0.0
H3234 H 0.96788 0.60425 0.75383 0.0
H3235 H 0.95668 0.5856 0.74675 0.0
H3236 H 0.9539 0.59915 0.73472 0.0
H3237 H 0.95705 0.59072 0.69847 0.0
H3238 H 0.95979 0.57707 0.71041 0.0
H3239 H 0.9731 0.5899 0.69286 0.0
H3240 H 0.02112 0.61959 0.73504 0.0
H3241 H 0.01961 0.59903 0.75429 0.0
H3242 H 0.97338 0.57514 0.74421 0.0
C3243 C 0.97606 0.62277 0.70871 0.0
C3244 C 0.98575 0.63742 0.70421 0.0
C3245 C 1.00071 0.64294 0.70706 0.0
C3246 C 1.00589 0.63414 0.71484 0.0
C3247 C 0.996 0.61981 0.71947 0.0
C3248 C 0.98141 0.61414 0.71633 0.0
C3249 C 0.97295 0.59863 0.72352 0.0
C3250 C 0.96222 0.59681 0.74072 0.0
C3251 C 0.96527 0.58848 0.70522 0.0
C3252 C 0.98501 0.59658 0.73179 0.0
C3253 C 0.99824 0.60886 0.72918 0.0
C3254 C 0.01084 0.60981 0.7368 0.0
C3255 C 0.00987 0.59799 0.74762 0.0
C3256 C 0.99638 0.58532 0.75076 0.0
C3257 C 0.98387 0.58462 0.74228 0.0
H3258 H 0.40135 0.36603 0.69154 0.0
H3259 H 0.35864 0.35806 0.7074 0.0
H3260 H 0.36944 0.38185 0.72443 0.0
H3261 H 0.4183 0.38258 0.73744 0.0
H3262 H 0.43504 0.39586 0.72591 0.0
H3263 H 0.42401 0.37895 0.71303 0.0
H3264 H 0.42331 0.39237 0.68007 0.0
H3265 H 0.43447 0.40937 0.69279 0.0
H3266 H 0.41737 0.40537 0.68198 0.0
H3267 H 0.38493 0.40475 0.74387 0.0
H3268 H 0.40366 0.42588 0.76202 0.0
H3269 H 0.43653 0.42031 0.73081 0.0
C3270 C 0.39425 0.36941 0.69823 0.0
C3271 C 0.37914 0.36018 0.69814 0.0
C3272 C 0.37023 0.36497 0.70716 0.0
C3273 C 0.37627 0.37846 0.7169 0.0
C3274 C 0.39122 0.38714 0.71716 0.0
C3275 C 0.40009 0.38292 0.70775 0.0
C3276 C 0.41583 0.39402 0.71097 0.0
C3277 C 0.42375 0.38745 0.72252 0.0
C3278 C 0.42318 0.40068 0.69022 0.0
C3279 C 0.41444 0.40489 0.72431 0.0
C3280 C 0.40016 0.40072 0.72765 0.0
C3281 C 0.39616 0.40835 0.74087 0.0
C3282 C 0.407 0.42051 0.75102 0.0
C3283 C 0.42181 0.42517 0.74777 0.0
C3284 C 0.42544 0.41723 0.73389 0.0
H3285 H 0.66344 0.04894 0.7227 0.0
H3286 H 0.65477 0.01155 0.68603 0.0
H3287 H 0.62888 1.00031 0.69459 0.0
H3288 H 0.63931 0.0293 0.76342 0.0
H3289 H 0.63391 0.0425 0.76815 0.0
H3290 H 0.65148 0.04803 0.7577 0.0
H3291 H 0.64612 0.05989 0.72657 0.0
H3292 H 0.62848 0.05431 0.73689 0.0
H3293 H 0.63035 0.04926 0.71094 0.0
H3294 H 0.60397 0.99296 0.70785 0.0
H3295 H 0.58237 0.98921 0.72677 0.0
H3296 H 0.60766 0.03084 0.75644 0.0
C3297 C 0.65607 0.03847 0.71624 0.0
C3298 C 0.66109 0.03117 0.70352 0.0
C3299 C 0.65115 0.01735 0.69574 0.0
C3300 C 0.63642 0.01092 0.70045 0.0
C3301 C 0.63182 0.01838 0.71311 0.0
C3302 C 0.64138 0.03181 0.72103 0.0
C3303 C 0.63385 0.03713 0.73539 0.0
C3304 C 0.64 0.03936 0.75747 0.0
C3305 C 0.63475 0.05097 0.72693 0.0
C3306 C 0.61857 0.02457 0.73443 0.0
C3307 C 0.6176 0.01394 0.7213 0.0
C3308 C 0.60463 1.0012 0.71821 0.0
C3309 C 0.59242 0.99914 0.72914 0.0
C3310 C 0.59325 0.00968 0.74323 0.0
C3311 C 0.60652 0.02265 0.74558 0.0
loop_
_geom_bond_atom_site_label_1
_geom_bond_atom_site_label_2
_geom_bond_distance
_geom_bond_site_symmetry_2
_ccdc_geom_bond_type
O0 Cd1 2.223 . S
O0 C8 1.315 . S
Cd1 O0 2.223 . S
Cd1 O4 2.297 . S
Cd1 O5 2.439 . S
Cd1 O11 2.240 1_554 S
Cd2 O3 2.219 1_655 S
Cd2 O10 2.223 1_554 S
Cd2 O12 2.297 1_554 S
Cd2 O13 2.439 . S
O3 Cd2 2.219 1_455 S
O3 C8 1.280 . S
O4 Cd1 2.297 . S
O4 C6 1.247 . S
O5 Cd1 2.439 . S
O5 C6 1.208 . S
C6 O4 1.247 . S
C6 O5 1.208 . S
C7 O12 1.247 . S
C7 O13 1.208 1_556 S
C8 O0 1.315 . S
C8 O3 1.280 . S
C9 O10 1.324 . S
C9 O11 1.270 1_655 S
O10 Cd2 2.223 1_556 S
O10 C9 1.324 . S
O11 Cd1 2.240 1_556 S
O11 C9 1.270 1_455 S
O12 Cd2 2.297 1_556 S
O12 C7 1.247 . S
O13 Cd2 2.439 . S
O13 C7 1.208 1_554 S
O14 Cd15 2.223 . S
O14 C22 1.315 . S
Cd15 O14 2.223 . S
Cd15 O18 2.297 . S
Cd15 O19 2.439 . S
Cd15 O25 2.240 1_554 S
Cd16 O17 2.240 . S
Cd16 O24 2.223 1_554 S
Cd16 O26 2.297 1_554 S
Cd16 O27 2.439 . S
O17 Cd16 2.240 . S
O17 C22 1.279 . S
O18 Cd15 2.297 . S
O18 C20 1.247 . S
O19 Cd15 2.439 . S
O19 C20 1.208 . S
C20 O18 1.247 . S
C20 O19 1.208 . S
C21 O26 1.247 . S
C21 O27 1.208 1_556 S
C22 O14 1.315 . S
C22 O17 1.279 . S
C23 O24 1.315 . S
C23 O25 1.279 . S
O24 Cd16 2.223 1_556 S
O24 C23 1.315 . S
O25 Cd15 2.240 1_556 S
O25 C23 1.279 . S
O26 Cd16 2.297 1_556 S
O26 C21 1.247 . S
O27 Cd16 2.439 . S
O27 C21 1.208 1_554 S
O28 Cd29 2.223 1_556 S
O28 C36 1.315 . S
Cd29 O28 2.223 1_554 S
Cd29 O32 2.297 1_554 S
Cd29 O33 2.439 . S
Cd29 O39 2.240 . S
Cd30 O31 2.225 1_564 S
Cd30 O38 2.223 . S
Cd30 O40 2.297 . S
Cd30 O41 2.439 . S
O31 Cd30 2.225 1_546 S
O31 C36 1.280 . S
O32 Cd29 2.297 1_556 S
O32 C34 1.247 . S
O33 Cd29 2.439 . S
O33 C34 1.208 1_554 S
C34 O32 1.247 . S
C34 O33 1.208 1_556 S
C35 O40 1.247 . S
C35 O41 1.208 . S
C36 O28 1.315 . S
C36 O31 1.280 . S
C37 O38 1.333 . S
C37 O39 1.261 1_565 S
O38 Cd30 2.223 . S
O38 C37 1.333 . S
O39 Cd29 2.240 . S
O39 C37 1.261 1_545 S
O40 Cd30 2.297 . S
O40 C35 1.247 . S
O41 Cd30 2.439 . S
O41 C35 1.208 . S
O42 Cd43 2.223 1_556 S
O42 C50 1.321 . S
Cd43 O42 2.223 1_554 S
Cd43 O46 2.297 1_554 S
Cd43 O47 2.439 . S
Cd43 O53 2.210 1_655 S
Cd44 O45 2.240 1_554 S
Cd44 O52 2.223 . S
Cd44 O54 2.297 . S
Cd44 O55 2.439 . S
O45 Cd44 2.240 1_556 S
O45 C50 1.279 1_455 S
O46 Cd43 2.297 1_556 S
O46 C48 1.247 . S
O47 Cd43 2.439 . S
O47 C48 1.208 1_554 S
C48 O46 1.247 . S
C48 O47 1.208 1_556 S
C49 O54 1.247 . S
C49 O55 1.208 . S
C50 O42 1.321 . S
C50 O45 1.279 1_655 S
C51 O52 1.315 . S
C51 O53 1.314 . S
O52 Cd44 2.223 . S
O52 C51 1.315 . S
O53 Cd43 2.210 1_455 S
O53 C51 1.314 . S
O54 Cd44 2.297 . S
O54 C49 1.247 . S
O55 Cd44 2.439 . S
O55 C49 1.208 . S
O56 Cd57 2.223 1_556 S
O56 C64 1.315 . S
Cd57 O56 2.223 1_554 S
Cd57 O60 2.297 1_554 S
Cd57 O61 2.439 . S
Cd57 O67 2.240 . S
Cd58 O59 2.240 1_554 S
Cd58 O66 2.223 . S
Cd58 O68 2.297 . S
Cd58 O69 2.439 . S
O59 Cd58 2.240 1_556 S
O59 C64 1.279 . S
O60 Cd57 2.297 1_556 S
O60 C62 1.247 . S
O61 Cd57 2.439 . S
O61 C62 1.208 1_554 S
C62 O60 1.247 . S
C62 O61 1.208 1_556 S
C63 O68 1.247 . S
C63 O69 1.208 . S
C64 O56 1.315 . S
C64 O59 1.279 . S
C65 O66 1.315 . S
C65 O67 1.279 . S
O66 Cd58 2.223 . S
O66 C65 1.315 . S
O67 Cd57 2.240 . S
O67 C65 1.279 . S
O68 Cd58 2.297 . S
O68 C63 1.247 . S
O69 Cd58 2.439 . S
O69 C63 1.208 . S
O70 Cd71 2.223 . S
O70 C78 1.330 . S
Cd71 O70 2.223 . S
Cd71 O74 2.297 . S
Cd71 O75 2.439 . S
Cd71 O81 2.221 1_564 S
Cd72 O73 2.240 . S
Cd72 O80 2.223 1_554 S
Cd72 O82 2.297 1_554 S
Cd72 O83 2.439 . S
O73 Cd72 2.240 . S
O73 C78 1.279 1_545 S
O74 Cd71 2.297 . S
O74 C76 1.247 . S
O75 Cd71 2.439 . S
O75 C76 1.208 . S
C76 O74 1.247 . S
C76 O75 1.208 . S
C77 O82 1.247 . S
C77 O83 1.208 1_556 S
C78 O70 1.330 . S
C78 O73 1.279 1_565 S
C79 O80 1.315 . S
C79 O81 1.301 . S
O80 Cd72 2.223 1_556 S
O80 C79 1.315 . S
O81 Cd71 2.221 1_546 S
O81 C79 1.301 . S
O82 Cd72 2.297 1_556 S
O82 C77 1.247 . S
O83 Cd72 2.439 . S
O83 C77 1.208 1_554 S
O84 Cd85 2.223 . S
O84 C92 1.315 . S
Cd85 O84 2.223 . S
Cd85 O88 2.297 . S
Cd85 O89 2.439 . S
Cd85 O95 2.240 . S
Cd86 O87 2.240 . S
Cd86 O94 2.223 . S
Cd86 O96 2.297 . S
Cd86 O97 2.439 . S
O87 Cd86 2.240 . S
O87 C92 1.279 . S
O88 Cd85 2.297 . S
O88 C90 1.247 . S
O89 Cd85 2.439 . S
O89 C90 1.208 . S
C90 O88 1.247 . S
C90 O89 1.208 . S
C91 O96 1.247 . S
C91 O97 1.208 . S
C92 O84 1.315 . S
C92 O87 1.279 . S
C93 O94 1.315 . S
C93 O95 1.279 . S
O94 Cd86 2.223 . S
O94 C93 1.315 . S
O95 Cd85 2.240 . S
O95 C93 1.279 . S
O96 Cd86 2.297 . S
O96 C91 1.247 . S
O97 Cd86 2.439 . S
O97 C91 1.208 . S
O98 Cd99 2.223 . S
O98 C106 1.315 . S
Cd99 O98 2.223 . S
Cd99 O102 2.297 1_565 S
Cd99 O103 2.439 1_565 S
Cd99 O109 2.240 . S
Cd100 O101 2.240 . S
Cd100 O108 2.223 . S
Cd100 O110 2.297 . S
Cd100 O111 2.439 . S
O101 Cd100 2.240 . S
O101 C106 1.279 . S
O102 Cd99 2.297 1_545 S
O102 C104 1.247 . S
O103 Cd99 2.439 1_545 S
O103 C104 1.208 . S
C104 O102 1.247 . S
C104 O103 1.208 . S
C105 O110 1.247 . S
C105 O111 1.208 . S
C106 O98 1.315 . S
C106 O101 1.279 . S
C107 O108 1.315 . S
C107 O109 1.279 . S
O108 Cd100 2.223 . S
O108 C107 1.315 . S
O109 Cd99 2.240 . S
O109 C107 1.279 . S
O110 Cd100 2.297 . S
O110 C105 1.247 . S
O111 Cd100 2.439 . S
O111 C105 1.208 . S
O112 Cd113 2.223 . S
O112 C120 1.315 . S
Cd113 O112 2.223 . S
Cd113 O116 2.297 . S
Cd113 O117 2.439 . S
Cd113 O123 2.240 . S
Cd114 O115 2.240 . S
Cd114 O122 2.223 . S
Cd114 O124 2.297 . S
Cd114 O125 2.439 . S
O115 Cd114 2.240 . S
O115 C120 1.279 . S
O116 Cd113 2.297 . S
O116 C118 1.247 . S
O117 Cd113 2.439 . S
O117 C118 1.208 . S
C118 O116 1.247 . S
C118 O117 1.208 . S
C119 O124 1.247 1_655 S
C119 O125 1.208 1_655 S
C120 O112 1.315 . S
C120 O115 1.279 . S
C121 O122 1.315 . S
C121 O123 1.279 . S
O122 Cd114 2.223 . S
O122 C121 1.315 . S
O123 Cd113 2.240 . S
O123 C121 1.279 . S
O124 Cd114 2.297 . S
O124 C119 1.247 1_455 S
O125 Cd114 2.439 . S
O125 C119 1.208 1_455 S
O126 Cd127 2.223 . S
O126 C134 1.315 . S
Cd127 O126 2.223 . S
Cd127 O130 2.297 . S
Cd127 O131 2.439 . S
Cd127 O137 2.240 . S
Cd128 O129 2.240 . S
Cd128 O136 2.223 . S
Cd128 O138 2.297 1_565 S
Cd128 O139 2.439 1_565 S
O129 Cd128 2.240 . S
O129 C134 1.279 . S
O130 Cd127 2.297 . S
O130 C132 1.247 . S
O131 Cd127 2.439 . S
O131 C132 1.208 . S
C132 O130 1.247 . S
C132 O131 1.208 . S
C133 O138 1.247 . S
C133 O139 1.208 . S
C134 O126 1.315 . S
C134 O129 1.279 . S
C135 O136 1.315 . S
C135 O137 1.279 . S
O136 Cd128 2.223 . S
O136 C135 1.315 . S
O137 Cd127 2.240 . S
O137 C135 1.279 . S
O138 Cd128 2.297 1_545 S
O138 C133 1.247 . S
O139 Cd128 2.439 1_545 S
O139 C133 1.208 . S
O140 Cd141 2.223 . S
O140 C148 1.315 . S
Cd141 O140 2.223 . S
Cd141 O144 2.297 . S
Cd141 O145 2.439 . S
Cd141 O151 2.240 . S
Cd142 O143 2.240 . S
Cd142 O150 2.223 . S
Cd142 O152 2.297 . S
Cd142 O153 2.439 . S
O143 Cd142 2.240 . S
O143 C148 1.279 . S
O144 Cd141 2.297 . S
O144 C146 1.247 . S
O145 Cd141 2.439 . S
O145 C146 1.208 . S
C146 O144 1.247 . S
C146 O145 1.208 . S
C147 O152 1.247 1_655 S
C147 O153 1.208 1_655 S
C148 O140 1.315 . S
C148 O143 1.279 . S
C149 O150 1.315 . S
C149 O151 1.279 . S
O150 Cd142 2.223 . S
O150 C149 1.315 . S
O151 Cd141 2.240 . S
O151 C149 1.279 . S
O152 Cd142 2.297 . S
O152 C147 1.247 1_455 S
O153 Cd142 2.439 . S
O153 C147 1.208 1_455 S
O154 Cd155 2.223 . S
O154 C162 1.315 . S
Cd155 O154 2.223 . S
Cd155 O158 2.297 . S
Cd155 O159 2.439 . S
Cd155 O165 2.240 . S
Cd156 O157 2.240 . S
Cd156 O164 2.223 . S
Cd156 O166 2.297 . S
Cd156 O167 2.439 . S
O157 Cd156 2.240 . S
O157 C162 1.279 . S
O158 Cd155 2.297 . S
O158 C160 1.247 . S
O159 Cd155 2.439 . S
O159 C160 1.208 . S
C160 O158 1.247 . S
C160 O159 1.208 . S
C161 O166 1.247 . S
C161 O167 1.208 . S
C162 O154 1.315 . S
C162 O157 1.279 . S
C163 O164 1.315 . S
C163 O165 1.279 . S
O164 Cd156 2.223 . S
O164 C163 1.315 . S
O165 Cd155 2.240 . S
O165 C163 1.279 . S
O166 Cd156 2.297 . S
O166 C161 1.247 . S
O167 Cd156 2.439 . S
O167 C161 1.208 . S
O168 Cd169 2.223 . S
O168 C176 1.315 . S
Cd169 O168 2.223 . S
Cd169 O172 2.297 . S
Cd169 O173 2.439 . S
Cd169 O179 2.240 . S
Cd170 O171 2.240 . S
Cd170 O178 2.223 . S
Cd170 O180 2.297 . S
Cd170 O181 2.439 . S
O171 Cd170 2.240 . S
O171 C176 1.279 . S
O172 Cd169 2.297 . S
O172 C174 1.247 . S
O173 Cd169 2.439 . S
O173 C174 1.208 . S
C174 O172 1.247 . S
C174 O173 1.208 . S
C175 O180 1.247 1_565 S
C175 O181 1.208 1_565 S
C176 O168 1.315 . S
C176 O171 1.279 . S
C177 O178 1.315 . S
C177 O179 1.279 . S
O178 Cd170 2.223 . S
O178 C177 1.315 . S
O179 Cd169 2.240 . S
O179 C177 1.279 . S
O180 Cd170 2.297 . S
O180 C175 1.247 1_545 S
O181 Cd170 2.439 . S
O181 C175 1.208 1_545 S
O182 Cd183 2.223 . S
O182 C190 1.315 . S
Cd183 O182 2.223 . S
Cd183 O186 2.297 . S
Cd183 O187 2.439 . S
Cd183 O193 2.240 . S
Cd184 O185 2.240 . S
Cd184 O192 2.223 . S
Cd184 O194 2.297 1_655 S
Cd184 O195 2.439 1_655 S
O185 Cd184 2.240 . S
O185 C190 1.279 . S
O186 Cd183 2.297 . S
O186 C188 1.247 . S
O187 Cd183 2.439 . S
O187 C188 1.208 . S
C188 O186 1.247 . S
C188 O187 1.208 . S
C189 O194 1.247 . S
C189 O195 1.208 . S
C190 O182 1.315 . S
C190 O185 1.279 . S
C191 O192 1.315 . S
C191 O193 1.279 . S
O192 Cd184 2.223 . S
O192 C191 1.315 . S
O193 Cd183 2.240 . S
O193 C191 1.279 . S
O194 Cd184 2.297 1_455 S
O194 C189 1.247 . S
O195 Cd184 2.439 1_455 S
O195 C189 1.208 . S
O196 Cd197 2.223 . S
O196 C204 1.315 . S
Cd197 O196 2.223 . S
Cd197 O200 2.297 . S
Cd197 O201 2.439 . S
Cd197 O207 2.240 . S
Cd198 O199 2.240 . S
Cd198 O206 2.223 . S
Cd198 O208 2.297 . S
Cd198 O209 2.439 . S
O199 Cd198 2.240 . S
O199 C204 1.279 . S
O200 Cd197 2.297 . S
O200 C202 1.247 . S
O201 Cd197 2.439 . S
O201 C202 1.208 . S
C202 O200 1.247 . S
C202 O201 1.208 . S
C203 O208 1.247 . S
C203 O209 1.208 . S
C204 O196 1.315 . S
C204 O199 1.279 . S
C205 O206 1.315 . S
C205 O207 1.279 . S
O206 Cd198 2.223 . S
O206 C205 1.315 . S
O207 Cd197 2.240 . S
O207 C205 1.279 . S
O208 Cd198 2.297 . S
O208 C203 1.247 . S
O209 Cd198 2.439 . S
O209 C203 1.208 . S
O210 Cd211 2.223 . S
O210 C218 1.315 . S
Cd211 O210 2.223 . S
Cd211 O214 2.297 . S
Cd211 O215 2.439 . S
Cd211 O221 2.240 . S
Cd212 O213 2.240 . S
Cd212 O220 2.223 . S
Cd212 O222 2.297 . S
Cd212 O223 2.439 . S
O213 Cd212 2.240 . S
O213 C218 1.279 . S
O214 Cd211 2.297 . S
O214 C216 1.247 . S
O215 Cd211 2.439 . S
O215 C216 1.208 . S
C216 O214 1.247 . S
C216 O215 1.208 . S
C217 O222 1.247 . S
C217 O223 1.208 . S
C218 O210 1.315 . S
C218 O213 1.279 . S
C219 O220 1.315 . S
C219 O221 1.279 . S
O220 Cd212 2.223 . S
O220 C219 1.315 . S
O221 Cd211 2.240 . S
O221 C219 1.279 . S
O222 Cd212 2.297 . S
O222 C217 1.247 . S
O223 Cd212 2.439 . S
O223 C217 1.208 . S
O224 Cd225 2.223 . S
O224 C232 1.315 . S
Cd225 O224 2.223 . S
Cd225 O228 2.297 . S
Cd225 O229 2.439 . S
Cd225 O235 2.240 . S
Cd226 O227 2.240 . S
Cd226 O234 2.223 . S
Cd226 O236 2.297 . S
Cd226 O237 2.439 . S
O227 Cd226 2.240 . S
O227 C232 1.279 . S
O228 Cd225 2.297 . S
O228 C230 1.247 1_545 S
O229 Cd225 2.439 . S
O229 C230 1.208 1_545 S
C230 O228 1.247 1_565 S
C230 O229 1.208 1_565 S
C231 O236 1.247 . S
C231 O237 1.208 . S
C232 O224 1.315 . S
C232 O227 1.279 . S
C233 O234 1.315 . S
C233 O235 1.279 . S
O234 Cd226 2.223 . S
O234 C233 1.315 . S
O235 Cd225 2.240 . S
O235 C233 1.279 . S
O236 Cd226 2.297 . S
O236 C231 1.247 . S
O237 Cd226 2.439 . S
O237 C231 1.208 . S
O238 Cd239 2.223 . S
O238 C246 1.315 . S
Cd239 O238 2.223 . S
Cd239 O242 2.297 . S
Cd239 O243 2.439 . S
Cd239 O249 2.240 . S
Cd240 O241 2.240 . S
Cd240 O248 2.223 . S
Cd240 O250 2.297 1_655 S
Cd240 O251 2.439 1_655 S
O241 Cd240 2.240 . S
O241 C246 1.279 . S
O242 Cd239 2.297 . S
O242 C244 1.247 . S
O243 Cd239 2.439 . S
O243 C244 1.208 . S
C244 O242 1.247 . S
C244 O243 1.208 . S
C245 O250 1.247 . S
C245 O251 1.208 . S
C246 O238 1.315 . S
C246 O241 1.279 . S
C247 O248 1.315 . S
C247 O249 1.279 . S
O248 Cd240 2.223 . S
O248 C247 1.315 . S
O249 Cd239 2.240 . S
O249 C247 1.279 . S
O250 Cd240 2.297 1_455 S
O250 C245 1.247 . S
O251 Cd240 2.439 1_455 S
O251 C245 1.208 . S
H252 C279 0.929 . S
N253 C278 1.433 . S
N253 C284 1.435 . S
N253 C290 1.423 . S
H254 C280 0.930 . S
H255 C283 0.931 . S
H256 C282 0.929 . S
H257 C285 0.930 . S
H258 C286 0.932 . S
H259 C289 0.929 . S
H260 C288 0.931 . S
H261 C291 0.929 . S
H262 C295 0.932 . S
H263 C292 0.931 . S
H264 C294 0.929 . S
H265 C297 0.929 . S
H266 C298 0.930 . S
H267 C300 0.929 . S
H268 C301 0.931 . S
H269 C303 0.930 . S
H270 C304 0.932 . S
H271 C306 0.931 . S
H272 C307 0.929 . S
H273 C309 0.929 . S
H274 C310 0.931 . S
H275 C312 0.929 . S
N276 C296 1.433 . S
N276 C302 1.435 . S
N276 C308 1.423 . S
H277 C313 0.932 . S
C278 N253 1.433 . S
C278 C279 1.363 . S
C278 C283 1.370 . S
C279 H252 0.929 . S
C279 C278 1.363 . S
C279 C280 1.385 . S
C280 H254 0.930 . S
C280 C279 1.385 . S
C280 C281 1.357 . S
C281 C280 1.357 . S
C281 C282 1.406 . S
C282 H256 0.929 . S
C282 C281 1.406 . S
C282 C283 1.391 . S
C283 H255 0.931 . S
C283 C278 1.370 . S
C283 C282 1.391 . S
C284 N253 1.435 . S
C284 C285 1.358 . S
C284 C289 1.371 . S
C285 H257 0.930 . S
C285 C284 1.358 . S
C285 C286 1.405 . S
C286 H258 0.932 . S
C286 C285 1.405 . S
C286 C287 1.383 . S
C287 C286 1.383 . S
C287 C288 1.393 . S
C288 H260 0.931 . S
C288 C287 1.393 . S
C288 C289 1.382 . S
C289 H259 0.929 . S
C289 C284 1.371 . S
C289 C288 1.382 . S
C290 N253 1.423 . S
C290 C291 1.362 . S
C290 C295 1.388 . S
C291 H261 0.929 . S
C291 C290 1.362 . S
C291 C292 1.376 . S
C292 H263 0.931 . S
C292 C291 1.376 . S
C292 C293 1.396 . S
C293 C292 1.396 . S
C293 C294 1.348 . S
C293 C311 1.472 . S
C294 H264 0.929 . S
C294 C293 1.348 . S
C294 C295 1.443 . S
C295 H262 0.932 . S
C295 C290 1.388 . S
C295 C294 1.443 . S
C296 N276 1.433 . S
C296 C297 1.363 . S
C296 C301 1.370 . S
C297 H265 0.929 . S
C297 C296 1.363 . S
C297 C298 1.385 . S
C298 H266 0.930 . S
C298 C297 1.385 . S
C298 C299 1.357 . S
C299 C298 1.357 . S
C299 C300 1.406 . S
C300 H267 0.929 . S
C300 C299 1.406 . S
C300 C301 1.391 . S
C301 H268 0.931 . S
C301 C296 1.370 . S
C301 C300 1.391 . S
C302 N276 1.435 . S
C302 C303 1.358 . S
C302 C307 1.371 . S
C303 H269 0.930 . S
C303 C302 1.358 . S
C303 C304 1.405 . S
C304 H270 0.932 . S
C304 C303 1.405 . S
C304 C305 1.383 . S
C305 C304 1.383 . S
C305 C306 1.393 . S
C306 H271 0.931 . S
C306 C305 1.393 . S
C306 C307 1.382 . S
C307 H272 0.929 . S
C307 C302 1.371 . S
C307 C306 1.382 . S
C308 N276 1.423 . S
C308 C309 1.362 . S
C308 C313 1.388 . S
C309 H273 0.929 . S
C309 C308 1.362 . S
C309 C310 1.376 . S
C310 H274 0.931 . S
C310 C309 1.376 . S
C310 C311 1.396 . S
C311 C293 1.472 . S
C311 C310 1.396 . S
C311 C312 1.348 . S
C312 H275 0.929 . S
C312 C311 1.348 . S
C312 C313 1.443 . S
C313 H277 0.932 . S
C313 C308 1.388 . S
C313 C312 1.443 . S
H314 C341 0.929 . S
N315 C340 1.433 . S
N315 C346 1.435 . S
N315 C352 1.423 . S
H316 C342 0.930 . S
H317 C345 0.931 . S
H318 C344 0.929 . S
H319 C347 0.930 . S
H320 C348 0.932 . S
H321 C351 0.929 . S
H322 C350 0.931 . S
H323 C353 0.929 . S
H324 C357 0.932 . S
H325 C354 0.931 . S
H326 C356 0.929 . S
H327 C359 0.929 . S
H328 C360 0.930 . S
H329 C362 0.929 . S
H330 C363 0.931 . S
H331 C365 0.930 . S
H332 C366 0.932 . S
H333 C368 0.931 . S
H334 C369 0.929 . S
H335 C371 0.929 . S
H336 C372 0.931 . S
H337 C374 0.929 . S
N338 C358 1.433 . S
N338 C364 1.435 . S
N338 C370 1.423 . S
H339 C375 0.932 . S
C340 N315 1.433 . S
C340 C341 1.363 . S
C340 C345 1.370 . S
C341 H314 0.929 . S
C341 C340 1.363 . S
C341 C342 1.385 . S
C342 H316 0.930 . S
C342 C341 1.385 . S
C342 C343 1.357 . S
C343 C342 1.357 . S
C343 C344 1.406 . S
C344 H318 0.929 . S
C344 C343 1.406 . S
C344 C345 1.391 . S
C345 H317 0.931 . S
C345 C340 1.370 . S
C345 C344 1.391 . S
C346 N315 1.435 . S
C346 C347 1.358 . S
C346 C351 1.371 . S
C347 H319 0.930 . S
C347 C346 1.358 . S
C347 C348 1.405 . S
C348 H320 0.932 . S
C348 C347 1.405 . S
C348 C349 1.383 . S
C349 C348 1.383 . S
C349 C350 1.393 . S
C350 H322 0.931 . S
C350 C349 1.393 . S
C350 C351 1.382 . S
C351 H321 0.929 . S
C351 C346 1.371 . S
C351 C350 1.382 . S
C352 N315 1.423 . S
C352 C353 1.362 . S
C352 C357 1.388 . S
C353 H323 0.929 . S
C353 C352 1.362 . S
C353 C354 1.376 . S
C354 H325 0.931 . S
C354 C353 1.376 . S
C354 C355 1.396 . S
C355 C354 1.396 . S
C355 C356 1.348 . S
C355 C373 1.472 . S
C356 H326 0.929 . S
C356 C355 1.348 . S
C356 C357 1.443 . S
C357 H324 0.932 . S
C357 C352 1.388 . S
C357 C356 1.443 . S
C358 N338 1.433 . S
C358 C359 1.363 . S
C358 C363 1.370 . S
C359 H327 0.929 . S
C359 C358 1.363 . S
C359 C360 1.385 . S
C360 H328 0.930 . S
C360 C359 1.385 . S
C360 C361 1.357 . S
C361 C360 1.357 . S
C361 C362 1.406 . S
C362 H329 0.929 . S
C362 C361 1.406 . S
C362 C363 1.391 . S
C363 H330 0.931 . S
C363 C358 1.370 . S
C363 C362 1.391 . S
C364 N338 1.435 . S
C364 C365 1.358 . S
C364 C369 1.371 . S
C365 H331 0.930 . S
C365 C364 1.358 . S
C365 C366 1.405 . S
C366 H332 0.932 . S
C366 C365 1.405 . S
C366 C367 1.383 . S
C367 C366 1.383 . S
C367 C368 1.393 . S
C368 H333 0.931 . S
C368 C367 1.393 . S
C368 C369 1.382 . S
C369 H334 0.929 . S
C369 C364 1.371 . S
C369 C368 1.382 . S
C370 N338 1.423 . S
C370 C371 1.362 . S
C370 C375 1.388 . S
C371 H335 0.929 . S
C371 C370 1.362 . S
C371 C372 1.376 . S
C372 H336 0.931 . S
C372 C371 1.376 . S
C372 C373 1.396 . S
C373 C355 1.472 . S
C373 C372 1.396 . S
C373 C374 1.348 . S
C374 H337 0.929 . S
C374 C373 1.348 . S
C374 C375 1.443 . S
C375 H339 0.932 . S
C375 C370 1.388 . S
C375 C374 1.443 . S
H376 C403 0.929 . S
N377 C402 1.433 . S
N377 C408 1.435 . S
N377 C414 1.423 . S
H378 C404 0.930 . S
H379 C407 0.931 . S
H380 C406 0.929 . S
H381 C409 0.930 . S
H382 C410 0.932 . S
H383 C413 0.929 . S
H384 C412 0.931 . S
H385 C415 0.929 . S
H386 C419 0.932 . S
H387 C416 0.931 . S
H388 C418 0.929 . S
H389 C421 0.929 . S
H390 C422 0.930 . S
H391 C424 0.929 . S
H392 C425 0.931 . S
H393 C427 0.930 . S
H394 C428 0.932 . S
H395 C430 0.931 . S
H396 C431 0.929 . S
H397 C433 0.929 . S
H398 C434 0.931 . S
H399 C436 0.929 . S
N400 C420 1.433 . S
N400 C426 1.435 . S
N400 C432 1.423 . S
H401 C437 0.932 . S
C402 N377 1.433 . S
C402 C403 1.363 . S
C402 C407 1.370 . S
C403 H376 0.929 . S
C403 C402 1.363 . S
C403 C404 1.385 . S
C404 H378 0.930 . S
C404 C403 1.385 . S
C404 C405 1.357 . S
C405 C404 1.357 . S
C405 C406 1.406 . S
C406 H380 0.929 . S
C406 C405 1.406 . S
C406 C407 1.391 . S
C407 H379 0.931 . S
C407 C402 1.370 . S
C407 C406 1.391 . S
C408 N377 1.435 . S
C408 C409 1.358 . S
C408 C413 1.371 . S
C409 H381 0.930 . S
C409 C408 1.358 . S
C409 C410 1.405 . S
C410 H382 0.932 . S
C410 C409 1.405 . S
C410 C411 1.383 . S
C411 C410 1.383 . S
C411 C412 1.393 . S
C412 H384 0.931 . S
C412 C411 1.393 . S
C412 C413 1.382 . S
C413 H383 0.929 . S
C413 C408 1.371 . S
C413 C412 1.382 . S
C414 N377 1.423 . S
C414 C415 1.362 . S
C414 C419 1.388 . S
C415 H385 0.929 . S
C415 C414 1.362 . S
C415 C416 1.376 . S
C416 H387 0.931 . S
C416 C415 1.376 . S
C416 C417 1.396 . S
C417 C416 1.396 . S
C417 C418 1.348 . S
C417 C435 1.472 . S
C418 H388 0.929 . S
C418 C417 1.348 . S
C418 C419 1.443 . S
C419 H386 0.932 . S
C419 C414 1.388 . S
C419 C418 1.443 . S
C420 N400 1.433 . S
C420 C421 1.363 . S
C420 C425 1.370 . S
C421 H389 0.929 . S
C421 C420 1.363 . S
C421 C422 1.385 . S
C422 H390 0.930 . S
C422 C421 1.385 . S
C422 C423 1.357 . S
C423 C422 1.357 . S
C423 C424 1.406 . S
C424 H391 0.929 . S
C424 C423 1.406 . S
C424 C425 1.391 . S
C425 H392 0.931 . S
C425 C420 1.370 . S
C425 C424 1.391 . S
C426 N400 1.435 . S
C426 C427 1.358 . S
C426 C431 1.371 . S
C427 H393 0.930 . S
C427 C426 1.358 . S
C427 C428 1.405 . S
C428 H394 0.932 . S
C428 C427 1.405 . S
C428 C429 1.383 . S
C429 C428 1.383 . S
C429 C430 1.393 . S
C430 H395 0.931 . S
C430 C429 1.393 . S
C430 C431 1.382 . S
C431 H396 0.929 . S
C431 C426 1.371 . S
C431 C430 1.382 . S
C432 N400 1.423 . S
C432 C433 1.362 . S
C432 C437 1.388 . S
C433 H397 0.929 . S
C433 C432 1.362 . S
C433 C434 1.376 . S
C434 H398 0.931 . S
C434 C433 1.376 . S
C434 C435 1.396 . S
C435 C417 1.472 . S
C435 C434 1.396 . S
C435 C436 1.348 . S
C436 H399 0.929 . S
C436 C435 1.348 . S
C436 C437 1.443 . S
C437 H401 0.932 . S
C437 C432 1.388 . S
C437 C436 1.443 . S
H438 C465 0.929 . S
N439 C464 1.433 . S
N439 C470 1.435 . S
N439 C476 1.423 . S
H440 C466 0.930 . S
H441 C469 0.931 . S
H442 C468 0.929 . S
H443 C471 0.930 . S
H444 C472 0.932 . S
H445 C475 0.929 . S
H446 C474 0.931 . S
H447 C477 0.929 . S
H448 C481 0.932 . S
H449 C478 0.931 . S
H450 C480 0.929 . S
H451 C483 0.929 . S
H452 C484 0.930 . S
H453 C486 0.929 . S
H454 C487 0.931 . S
H455 C489 0.930 . S
H456 C490 0.932 . S
H457 C492 0.931 . S
H458 C493 0.929 . S
H459 C495 0.929 . S
H460 C496 0.931 . S
H461 C498 0.929 . S
N462 C482 1.433 . S
N462 C488 1.435 . S
N462 C494 1.423 . S
H463 C499 0.932 . S
C464 N439 1.433 . S
C464 C465 1.363 . S
C464 C469 1.370 . S
C465 H438 0.929 . S
C465 C464 1.363 . S
C465 C466 1.385 . S
C466 H440 0.930 . S
C466 C465 1.385 . S
C466 C467 1.357 . S
C467 C466 1.357 . S
C467 C468 1.406 . S
C468 H442 0.929 . S
C468 C467 1.406 . S
C468 C469 1.391 . S
C469 H441 0.931 . S
C469 C464 1.370 . S
C469 C468 1.391 . S
C470 N439 1.435 . S
C470 C471 1.358 . S
C470 C475 1.371 . S
C471 H443 0.930 . S
C471 C470 1.358 . S
C471 C472 1.405 . S
C472 H444 0.932 . S
C472 C471 1.405 . S
C472 C473 1.383 . S
C473 C472 1.383 . S
C473 C474 1.393 . S
C474 H446 0.931 . S
C474 C473 1.393 . S
C474 C475 1.382 . S
C475 H445 0.929 . S
C475 C470 1.371 . S
C475 C474 1.382 . S
C476 N439 1.423 . S
C476 C477 1.362 . S
C476 C481 1.388 . S
C477 H447 0.929 . S
C477 C476 1.362 . S
C477 C478 1.376 . S
C478 H449 0.931 . S
C478 C477 1.376 . S
C478 C479 1.396 . S
C479 C478 1.396 . S
C479 C480 1.348 . S
C479 C497 1.472 . S
C480 H450 0.929 . S
C480 C479 1.348 . S
C480 C481 1.443 . S
C481 H448 0.932 . S
C481 C476 1.388 . S
C481 C480 1.443 . S
C482 N462 1.433 . S
C482 C483 1.363 . S
C482 C487 1.370 . S
C483 H451 0.929 . S
C483 C482 1.363 . S
C483 C484 1.385 . S
C484 H452 0.930 . S
C484 C483 1.385 . S
C484 C485 1.357 . S
C485 C484 1.357 . S
C485 C486 1.406 . S
C486 H453 0.929 . S
C486 C485 1.406 . S
C486 C487 1.391 . S
C487 H454 0.931 . S
C487 C482 1.370 . S
C487 C486 1.391 . S
C488 N462 1.435 . S
C488 C489 1.358 . S
C488 C493 1.371 . S
C489 H455 0.930 . S
C489 C488 1.358 . S
C489 C490 1.405 . S
C490 H456 0.932 . S
C490 C489 1.405 . S
C490 C491 1.383 . S
C491 C490 1.383 . S
C491 C492 1.393 . S
C492 H457 0.931 . S
C492 C491 1.393 . S
C492 C493 1.382 . S
C493 H458 0.929 . S
C493 C488 1.371 . S
C493 C492 1.382 . S
C494 N462 1.423 . S
C494 C495 1.362 . S
C494 C499 1.388 . S
C495 H459 0.929 . S
C495 C494 1.362 . S
C495 C496 1.376 . S
C496 H460 0.931 . S
C496 C495 1.376 . S
C496 C497 1.396 . S
C497 C479 1.472 . S
C497 C496 1.396 . S
C497 C498 1.348 . S
C498 H461 0.929 . S
C498 C497 1.348 . S
C498 C499 1.443 . S
C499 H463 0.932 . S
C499 C494 1.388 . S
C499 C498 1.443 . S
H500 C527 0.929 . S
N501 C526 1.433 . S
N501 C532 1.435 . S
N501 C538 1.423 . S
H502 C528 0.930 . S
H503 C531 0.931 . S
H504 C530 0.929 . S
H505 C533 0.930 . S
H506 C534 0.932 . S
H507 C537 0.929 . S
H508 C536 0.931 . S
H509 C539 0.929 . S
H510 C543 0.932 . S
H511 C540 0.931 . S
H512 C542 0.929 . S
H513 C545 0.929 . S
H514 C546 0.930 . S
H515 C548 0.929 . S
H516 C549 0.931 . S
H517 C551 0.930 . S
H518 C552 0.932 . S
H519 C554 0.931 . S
H520 C555 0.929 . S
H521 C557 0.929 . S
H522 C558 0.931 . S
H523 C560 0.929 . S
N524 C544 1.433 . S
N524 C550 1.435 . S
N524 C556 1.423 . S
H525 C561 0.932 . S
C526 N501 1.433 . S
C526 C527 1.363 . S
C526 C531 1.370 . S
C527 H500 0.929 . S
C527 C526 1.363 . S
C527 C528 1.385 . S
C528 H502 0.930 . S
C528 C527 1.385 . S
C528 C529 1.357 . S
C529 C528 1.357 . S
C529 C530 1.406 . S
C530 H504 0.929 . S
C530 C529 1.406 . S
C530 C531 1.391 . S
C531 H503 0.931 . S
C531 C526 1.370 . S
C531 C530 1.391 . S
C532 N501 1.435 . S
C532 C533 1.358 . S
C532 C537 1.371 . S
C533 H505 0.930 . S
C533 C532 1.358 . S
C533 C534 1.405 . S
C534 H506 0.932 . S
C534 C533 1.405 . S
C534 C535 1.383 . S
C535 C534 1.383 . S
C535 C536 1.393 . S
C536 H508 0.931 . S
C536 C535 1.393 . S
C536 C537 1.382 . S
C537 H507 0.929 . S
C537 C532 1.371 . S
C537 C536 1.382 . S
C538 N501 1.423 . S
C538 C539 1.362 . S
C538 C543 1.388 . S
C539 H509 0.929 . S
C539 C538 1.362 . S
C539 C540 1.376 . S
C540 H511 0.931 . S
C540 C539 1.376 . S
C540 C541 1.396 . S
C541 C540 1.396 . S
C541 C542 1.348 . S
C541 C559 1.472 . S
C542 H512 0.929 . S
C542 C541 1.348 . S
C542 C543 1.443 . S
C543 H510 0.932 . S
C543 C538 1.388 . S
C543 C542 1.443 . S
C544 N524 1.433 . S
C544 C545 1.363 . S
C544 C549 1.370 . S
C545 H513 0.929 . S
C545 C544 1.363 . S
C545 C546 1.385 . S
C546 H514 0.930 . S
C546 C545 1.385 . S
C546 C547 1.357 . S
C547 C546 1.357 . S
C547 C548 1.406 . S
C548 H515 0.929 . S
C548 C547 1.406 . S
C548 C549 1.391 . S
C549 H516 0.931 . S
C549 C544 1.370 . S
C549 C548 1.391 . S
C550 N524 1.435 . S
C550 C551 1.358 . S
C550 C555 1.371 . S
C551 H517 0.930 . S
C551 C550 1.358 . S
C551 C552 1.405 . S
C552 H518 0.932 . S
C552 C551 1.405 . S
C552 C553 1.383 . S
C553 C552 1.383 . S
C553 C554 1.393 . S
C554 H519 0.931 . S
C554 C553 1.393 . S
C554 C555 1.382 . S
C555 H520 0.929 . S
C555 C550 1.371 . S
C555 C554 1.382 . S
C556 N524 1.423 . S
C556 C557 1.362 . S
C556 C561 1.388 . S
C557 H521 0.929 . S
C557 C556 1.362 . S
C557 C558 1.376 . S
C558 H522 0.931 . S
C558 C557 1.376 . S
C558 C559 1.396 . S
C559 C541 1.472 . S
C559 C558 1.396 . S
C559 C560 1.348 . S
C560 H523 0.929 . S
C560 C559 1.348 . S
C560 C561 1.443 . S
C561 H525 0.932 . S
C561 C556 1.388 . S
C561 C560 1.443 . S
H562 C589 0.929 . S
N563 C588 1.433 . S
N563 C594 1.435 . S
N563 C600 1.423 . S
H564 C590 0.930 . S
H565 C593 0.931 . S
H566 C592 0.929 . S
H567 C595 0.930 . S
H568 C596 0.932 . S
H569 C599 0.929 . S
H570 C598 0.931 . S
H571 C601 0.929 . S
H572 C605 0.932 . S
H573 C602 0.931 . S
H574 C604 0.929 . S
H575 C607 0.929 . S
H576 C608 0.930 . S
H577 C610 0.929 . S
H578 C611 0.931 . S
H579 C613 0.930 . S
H580 C614 0.932 . S
H581 C616 0.931 . S
H582 C617 0.929 . S
H583 C619 0.929 . S
H584 C620 0.931 . S
H585 C622 0.929 . S
N586 C606 1.433 . S
N586 C612 1.435 . S
N586 C618 1.423 . S
H587 C623 0.932 . S
C588 N563 1.433 . S
C588 C589 1.363 . S
C588 C593 1.370 . S
C589 H562 0.929 . S
C589 C588 1.363 . S
C589 C590 1.385 . S
C590 H564 0.930 . S
C590 C589 1.385 . S
C590 C591 1.357 . S
C591 C590 1.357 . S
C591 C592 1.406 . S
C592 H566 0.929 . S
C592 C591 1.406 . S
C592 C593 1.391 . S
C593 H565 0.931 . S
C593 C588 1.370 . S
C593 C592 1.391 . S
C594 N563 1.435 . S
C594 C595 1.358 . S
C594 C599 1.371 . S
C595 H567 0.930 . S
C595 C594 1.358 . S
C595 C596 1.405 . S
C596 H568 0.932 . S
C596 C595 1.405 . S
C596 C597 1.383 . S
C597 C596 1.383 . S
C597 C598 1.393 . S
C598 H570 0.931 . S
C598 C597 1.393 . S
C598 C599 1.382 . S
C599 H569 0.929 . S
C599 C594 1.371 . S
C599 C598 1.382 . S
C600 N563 1.423 . S
C600 C601 1.362 . S
C600 C605 1.388 . S
C601 H571 0.929 . S
C601 C600 1.362 . S
C601 C602 1.376 . S
C602 H573 0.931 . S
C602 C601 1.376 . S
C602 C603 1.396 . S
C603 C602 1.396 . S
C603 C604 1.348 . S
C603 C621 1.472 . S
C604 H574 0.929 . S
C604 C603 1.348 . S
C604 C605 1.443 . S
C605 H572 0.932 . S
C605 C600 1.388 . S
C605 C604 1.443 . S
C606 N586 1.433 . S
C606 C607 1.363 . S
C606 C611 1.370 . S
C607 H575 0.929 . S
C607 C606 1.363 . S
C607 C608 1.385 . S
C608 H576 0.930 . S
C608 C607 1.385 . S
C608 C609 1.357 . S
C609 C608 1.357 . S
C609 C610 1.406 . S
C610 H577 0.929 . S
C610 C609 1.406 . S
C610 C611 1.391 . S
C611 H578 0.931 . S
C611 C606 1.370 . S
C611 C610 1.391 . S
C612 N586 1.435 . S
C612 C613 1.358 . S
C612 C617 1.371 . S
C613 H579 0.930 . S
C613 C612 1.358 . S
C613 C614 1.405 . S
C614 H580 0.932 . S
C614 C613 1.405 . S
C614 C615 1.383 . S
C615 C614 1.383 . S
C615 C616 1.393 . S
C616 H581 0.931 . S
C616 C615 1.393 . S
C616 C617 1.382 . S
C617 H582 0.929 . S
C617 C612 1.371 . S
C617 C616 1.382 . S
C618 N586 1.423 . S
C618 C619 1.362 . S
C618 C623 1.388 . S
C619 H583 0.929 . S
C619 C618 1.362 . S
C619 C620 1.376 . S
C620 H584 0.931 . S
C620 C619 1.376 . S
C620 C621 1.396 . S
C621 C603 1.472 . S
C621 C620 1.396 . S
C621 C622 1.348 . S
C622 H585 0.929 . S
C622 C621 1.348 . S
C622 C623 1.443 . S
C623 H587 0.932 . S
C623 C618 1.388 . S
C623 C622 1.443 . S
H624 C651 0.929 . S
N625 C650 1.433 . S
N625 C656 1.435 . S
N625 C662 1.423 . S
H626 C652 0.930 . S
H627 C655 0.931 . S
H628 C654 0.929 . S
H629 C657 0.930 . S
H630 C658 0.932 . S
H631 C661 0.929 . S
H632 C660 0.931 . S
H633 C663 0.929 . S
H634 C667 0.932 . S
H635 C664 0.931 . S
H636 C666 0.929 . S
H637 C669 0.929 . S
H638 C670 0.930 . S
H639 C672 0.929 . S
H640 C673 0.931 . S
H641 C675 0.930 . S
H642 C676 0.932 . S
H643 C678 0.931 . S
H644 C679 0.929 . S
H645 C681 0.929 . S
H646 C682 0.931 . S
H647 C684 0.929 . S
N648 C668 1.433 . S
N648 C674 1.435 . S
N648 C680 1.423 . S
H649 C685 0.932 . S
C650 N625 1.433 . S
C650 C651 1.363 . S
C650 C655 1.370 . S
C651 H624 0.929 . S
C651 C650 1.363 . S
C651 C652 1.385 . S
C652 H626 0.930 . S
C652 C651 1.385 . S
C652 C653 1.357 . S
C653 C652 1.357 . S
C653 C654 1.406 . S
C654 H628 0.929 . S
C654 C653 1.406 . S
C654 C655 1.391 . S
C655 H627 0.931 . S
C655 C650 1.370 . S
C655 C654 1.391 . S
C656 N625 1.435 . S
C656 C657 1.358 . S
C656 C661 1.371 . S
C657 H629 0.930 . S
C657 C656 1.358 . S
C657 C658 1.405 . S
C658 H630 0.932 . S
C658 C657 1.405 . S
C658 C659 1.383 . S
C659 C658 1.383 . S
C659 C660 1.393 . S
C660 H632 0.931 . S
C660 C659 1.393 . S
C660 C661 1.382 . S
C661 H631 0.929 . S
C661 C656 1.371 . S
C661 C660 1.382 . S
C662 N625 1.423 . S
C662 C663 1.362 . S
C662 C667 1.388 . S
C663 H633 0.929 . S
C663 C662 1.362 . S
C663 C664 1.376 . S
C664 H635 0.931 . S
C664 C663 1.376 . S
C664 C665 1.396 . S
C665 C664 1.396 . S
C665 C666 1.348 . S
C665 C683 1.472 . S
C666 H636 0.929 . S
C666 C665 1.348 . S
C666 C667 1.443 . S
C667 H634 0.932 . S
C667 C662 1.388 . S
C667 C666 1.443 . S
C668 N648 1.433 . S
C668 C669 1.363 . S
C668 C673 1.370 . S
C669 H637 0.929 . S
C669 C668 1.363 . S
C669 C670 1.385 . S
C670 H638 0.930 . S
C670 C669 1.385 . S
C670 C671 1.357 . S
C671 C670 1.357 . S
C671 C672 1.406 . S
C672 H639 0.929 . S
C672 C671 1.406 . S
C672 C673 1.391 . S
C673 H640 0.931 . S
C673 C668 1.370 . S
C673 C672 1.391 . S
C674 N648 1.435 . S
C674 C675 1.358 . S
C674 C679 1.371 . S
C675 H641 0.930 . S
C675 C674 1.358 . S
C675 C676 1.405 . S
C676 H642 0.932 . S
C676 C675 1.405 . S
C676 C677 1.383 . S
C677 C676 1.383 . S
C677 C678 1.393 . S
C678 H643 0.931 . S
C678 C677 1.393 . S
C678 C679 1.382 . S
C679 H644 0.929 . S
C679 C674 1.371 . S
C679 C678 1.382 . S
C680 N648 1.423 . S
C680 C681 1.362 . S
C680 C685 1.388 . S
C681 H645 0.929 . S
C681 C680 1.362 . S
C681 C682 1.376 . S
C682 H646 0.931 . S
C682 C681 1.376 . S
C682 C683 1.396 . S
C683 C665 1.472 . S
C683 C682 1.396 . S
C683 C684 1.348 . S
C684 H647 0.929 . S
C684 C683 1.348 . S
C684 C685 1.443 . S
C685 H649 0.932 . S
C685 C680 1.388 . S
C685 C684 1.443 . S
H686 C713 0.929 . S
N687 C712 1.433 . S
N687 C718 1.435 . S
N687 C724 1.423 . S
H688 C714 0.930 . S
H689 C717 0.931 . S
H690 C716 0.929 . S
H691 C719 0.930 . S
H692 C720 0.932 . S
H693 C723 0.929 . S
H694 C722 0.931 . S
H695 C725 0.929 . S
H696 C729 0.932 . S
H697 C726 0.931 . S
H698 C728 0.929 . S
H699 C731 0.929 . S
H700 C732 0.930 . S
H701 C734 0.929 . S
H702 C735 0.931 . S
H703 C737 0.930 . S
H704 C738 0.932 . S
H705 C740 0.931 . S
H706 C741 0.929 . S
H707 C743 0.929 . S
H708 C744 0.931 . S
H709 C746 0.929 . S
N710 C730 1.433 . S
N710 C736 1.435 . S
N710 C742 1.423 . S
H711 C747 0.932 . S
C712 N687 1.433 . S
C712 C713 1.363 . S
C712 C717 1.370 . S
C713 H686 0.929 . S
C713 C712 1.363 . S
C713 C714 1.385 . S
C714 H688 0.930 . S
C714 C713 1.385 . S
C714 C715 1.357 . S
C715 C714 1.357 . S
C715 C716 1.406 . S
C716 H690 0.929 . S
C716 C715 1.406 . S
C716 C717 1.391 . S
C717 H689 0.931 . S
C717 C712 1.370 . S
C717 C716 1.391 . S
C718 N687 1.435 . S
C718 C719 1.358 . S
C718 C723 1.371 . S
C719 H691 0.930 . S
C719 C718 1.358 . S
C719 C720 1.405 . S
C720 H692 0.932 . S
C720 C719 1.405 . S
C720 C721 1.383 . S
C721 C720 1.383 . S
C721 C722 1.393 . S
C722 H694 0.931 . S
C722 C721 1.393 . S
C722 C723 1.382 . S
C723 H693 0.929 . S
C723 C718 1.371 . S
C723 C722 1.382 . S
C724 N687 1.423 . S
C724 C725 1.362 . S
C724 C729 1.388 . S
C725 H695 0.929 . S
C725 C724 1.362 . S
C725 C726 1.376 . S
C726 H697 0.931 . S
C726 C725 1.376 . S
C726 C727 1.396 . S
C727 C726 1.396 . S
C727 C728 1.348 . S
C727 C745 1.472 . S
C728 H698 0.929 . S
C728 C727 1.348 . S
C728 C729 1.443 . S
C729 H696 0.932 . S
C729 C724 1.388 . S
C729 C728 1.443 . S
C730 N710 1.433 . S
C730 C731 1.363 . S
C730 C735 1.370 . S
C731 H699 0.929 . S
C731 C730 1.363 . S
C731 C732 1.385 . S
C732 H700 0.930 . S
C732 C731 1.385 . S
C732 C733 1.357 . S
C733 C732 1.357 . S
C733 C734 1.406 . S
C734 H701 0.929 . S
C734 C733 1.406 . S
C734 C735 1.391 . S
C735 H702 0.931 . S
C735 C730 1.370 . S
C735 C734 1.391 . S
C736 N710 1.435 . S
C736 C737 1.358 . S
C736 C741 1.371 . S
C737 H703 0.930 . S
C737 C736 1.358 . S
C737 C738 1.405 . S
C738 H704 0.932 . S
C738 C737 1.405 . S
C738 C739 1.383 . S
C739 C738 1.383 . S
C739 C740 1.393 . S
C740 H705 0.931 . S
C740 C739 1.393 . S
C740 C741 1.382 . S
C741 H706 0.929 . S
C741 C736 1.371 . S
C741 C740 1.382 . S
C742 N710 1.423 . S
C742 C743 1.362 . S
C742 C747 1.388 . S
C743 H707 0.929 . S
C743 C742 1.362 . S
C743 C744 1.376 . S
C744 H708 0.931 . S
C744 C743 1.376 . S
C744 C745 1.396 . S
C745 C727 1.472 . S
C745 C744 1.396 . S
C745 C746 1.348 . S
C746 H709 0.929 . S
C746 C745 1.348 . S
C746 C747 1.443 . S
C747 H711 0.932 . S
C747 C742 1.388 . S
C747 C746 1.443 . S
H748 C775 0.929 . S
N749 C774 1.433 . S
N749 C780 1.435 . S
N749 C786 1.423 . S
H750 C776 0.930 . S
H751 C779 0.931 . S
H752 C778 0.929 . S
H753 C781 0.930 . S
H754 C782 0.932 . S
H755 C785 0.929 . S
H756 C784 0.931 . S
H757 C787 0.929 . S
H758 C791 0.932 . S
H759 C788 0.931 . S
H760 C790 0.929 . S
H761 C793 0.929 . S
H762 C794 0.930 . S
H763 C796 0.929 . S
H764 C797 0.931 . S
H765 C799 0.930 . S
H766 C800 0.932 . S
H767 C802 0.931 . S
H768 C803 0.929 . S
H769 C805 0.929 . S
H770 C806 0.931 . S
H771 C808 0.929 . S
N772 C792 1.433 . S
N772 C798 1.435 . S
N772 C804 1.423 . S
H773 C809 0.932 . S
C774 N749 1.433 . S
C774 C775 1.363 . S
C774 C779 1.370 . S
C775 H748 0.929 . S
C775 C774 1.363 . S
C775 C776 1.385 . S
C776 H750 0.930 . S
C776 C775 1.385 . S
C776 C777 1.357 . S
C777 C776 1.357 . S
C777 C778 1.406 . S
C778 H752 0.929 . S
C778 C777 1.406 . S
C778 C779 1.391 . S
C779 H751 0.931 . S
C779 C774 1.370 . S
C779 C778 1.391 . S
C780 N749 1.435 . S
C780 C781 1.358 . S
C780 C785 1.371 . S
C781 H753 0.930 . S
C781 C780 1.358 . S
C781 C782 1.405 . S
C782 H754 0.932 . S
C782 C781 1.405 . S
C782 C783 1.383 . S
C783 C782 1.383 . S
C783 C784 1.393 . S
C784 H756 0.931 . S
C784 C783 1.393 . S
C784 C785 1.382 . S
C785 H755 0.929 . S
C785 C780 1.371 . S
C785 C784 1.382 . S
C786 N749 1.423 . S
C786 C787 1.362 . S
C786 C791 1.388 . S
C787 H757 0.929 . S
C787 C786 1.362 . S
C787 C788 1.376 . S
C788 H759 0.931 . S
C788 C787 1.376 . S
C788 C789 1.396 . S
C789 C788 1.396 . S
C789 C790 1.348 . S
C789 C807 1.472 . S
C790 H760 0.929 . S
C790 C789 1.348 . S
C790 C791 1.443 . S
C791 H758 0.932 . S
C791 C786 1.388 . S
C791 C790 1.443 . S
C792 N772 1.433 . S
C792 C793 1.363 . S
C792 C797 1.370 . S
C793 H761 0.929 . S
C793 C792 1.363 . S
C793 C794 1.385 . S
C794 H762 0.930 . S
C794 C793 1.385 . S
C794 C795 1.357 . S
C795 C794 1.357 . S
C795 C796 1.406 . S
C796 H763 0.929 . S
C796 C795 1.406 . S
C796 C797 1.391 . S
C797 H764 0.931 . S
C797 C792 1.370 . S
C797 C796 1.391 . S
C798 N772 1.435 . S
C798 C799 1.358 . S
C798 C803 1.371 . S
C799 H765 0.930 . S
C799 C798 1.358 . S
C799 C800 1.405 . S
C800 H766 0.932 . S
C800 C799 1.405 . S
C800 C801 1.383 . S
C801 C800 1.383 . S
C801 C802 1.393 . S
C802 H767 0.931 . S
C802 C801 1.393 . S
C802 C803 1.382 . S
C803 H768 0.929 . S
C803 C798 1.371 . S
C803 C802 1.382 . S
C804 N772 1.423 . S
C804 C805 1.362 . S
C804 C809 1.388 . S
C805 H769 0.929 . S
C805 C804 1.362 . S
C805 C806 1.376 . S
C806 H770 0.931 . S
C806 C805 1.376 . S
C806 C807 1.396 . S
C807 C789 1.472 . S
C807 C806 1.396 . S
C807 C808 1.348 . S
C808 H771 0.929 . S
C808 C807 1.348 . S
C808 C809 1.443 . S
C809 H773 0.932 . S
C809 C804 1.388 . S
C809 C808 1.443 . S
H810 C837 0.929 . S
N811 C836 1.433 . S
N811 C842 1.435 . S
N811 C848 1.423 . S
H812 C838 0.930 . S
H813 C841 0.931 1_655 S
H814 C840 0.929 . S
H815 C843 0.930 1_655 S
H816 C844 0.932 1_655 S
H817 C847 0.929 . S
H818 C846 0.931 . S
H819 C849 0.929 . S
H820 C853 0.932 . S
H821 C850 0.931 . S
H822 C852 0.929 . S
H823 C855 0.929 . S
H824 C856 0.930 . S
H825 C858 0.929 . S
H826 C859 0.931 1_655 S
H827 C861 0.930 1_655 S
H828 C862 0.932 1_655 S
H829 C864 0.931 . S
H830 C865 0.929 . S
H831 C867 0.929 . S
H832 C868 0.931 . S
H833 C870 0.929 . S
N834 C854 1.433 . S
N834 C860 1.435 . S
N834 C866 1.423 . S
H835 C871 0.932 . S
C836 N811 1.433 . S
C836 C837 1.363 . S
C836 C841 1.370 . S
C837 H810 0.929 . S
C837 C836 1.363 . S
C837 C838 1.385 . S
C838 H812 0.930 . S
C838 C837 1.385 . S
C838 C839 1.357 . S
C839 C838 1.357 . S
C839 C840 1.406 1_455 S
C840 H814 0.929 . S
C840 C839 1.406 1_655 S
C840 C841 1.391 1_655 S
C841 H813 0.931 1_455 S
C841 C836 1.370 . S
C841 C840 1.391 1_455 S
C842 N811 1.435 . S
C842 C843 1.358 . S
C842 C847 1.371 . S
C843 H815 0.930 1_455 S
C843 C842 1.358 . S
C843 C844 1.405 . S
C844 H816 0.932 1_455 S
C844 C843 1.405 . S
C844 C845 1.383 . S
C845 C844 1.383 . S
C845 C846 1.393 . S
C846 H818 0.931 . S
C846 C845 1.393 . S
C846 C847 1.382 . S
C847 H817 0.929 . S
C847 C842 1.371 . S
C847 C846 1.382 . S
C848 N811 1.423 . S
C848 C849 1.362 . S
C848 C853 1.388 . S
C849 H819 0.929 . S
C849 C848 1.362 . S
C849 C850 1.376 . S
C850 H821 0.931 . S
C850 C849 1.376 . S
C850 C851 1.396 . S
C851 C850 1.396 . S
C851 C852 1.348 . S
C851 C869 1.472 . S
C852 H822 0.929 . S
C852 C851 1.348 . S
C852 C853 1.443 . S
C853 H820 0.932 . S
C853 C848 1.388 . S
C853 C852 1.443 . S
C854 N834 1.433 . S
C854 C855 1.363 . S
C854 C859 1.370 . S
C855 H823 0.929 . S
C855 C854 1.363 . S
C855 C856 1.385 . S
C856 H824 0.930 . S
C856 C855 1.385 . S
C856 C857 1.357 . S
C857 C856 1.357 . S
C857 C858 1.406 1_455 S
C858 H825 0.929 . S
C858 C857 1.406 1_655 S
C858 C859 1.391 1_655 S
C859 H826 0.931 1_455 S
C859 C854 1.370 . S
C859 C858 1.391 1_455 S
C860 N834 1.435 . S
C860 C861 1.358 . S
C860 C865 1.371 . S
C861 H827 0.930 1_455 S
C861 C860 1.358 . S
C861 C862 1.405 . S
C862 H828 0.932 1_455 S
C862 C861 1.405 . S
C862 C863 1.383 . S
C863 C862 1.383 . S
C863 C864 1.393 . S
C864 H829 0.931 . S
C864 C863 1.393 . S
C864 C865 1.382 . S
C865 H830 0.929 . S
C865 C860 1.371 . S
C865 C864 1.382 . S
C866 N834 1.423 . S
C866 C867 1.362 . S
C866 C871 1.388 . S
C867 H831 0.929 . S
C867 C866 1.362 . S
C867 C868 1.376 . S
C868 H832 0.931 . S
C868 C867 1.376 . S
C868 C869 1.396 . S
C869 C851 1.472 . S
C869 C868 1.396 . S
C869 C870 1.348 . S
C870 H833 0.929 . S
C870 C869 1.348 . S
C870 C871 1.443 . S
C871 H835 0.932 . S
C871 C866 1.388 . S
C871 C870 1.443 . S
H872 C899 0.929 . S
N873 C898 1.433 . S
N873 C904 1.435 . S
N873 C910 1.423 . S
H874 C900 0.930 . S
H875 C903 0.931 . S
H876 C902 0.929 . S
H877 C905 0.930 . S
H878 C906 0.932 . S
H879 C909 0.929 . S
H880 C908 0.931 . S
H881 C911 0.929 . S
H882 C915 0.932 . S
H883 C912 0.931 . S
H884 C914 0.929 . S
H885 C917 0.929 . S
H886 C918 0.930 . S
H887 C920 0.929 . S
H888 C921 0.931 . S
H889 C923 0.930 . S
H890 C924 0.932 . S
H891 C926 0.931 . S
H892 C927 0.929 . S
H893 C929 0.929 . S
H894 C930 0.931 . S
H895 C932 0.929 . S
N896 C916 1.433 . S
N896 C922 1.435 . S
N896 C928 1.423 . S
H897 C933 0.932 . S
C898 N873 1.433 . S
C898 C899 1.363 . S
C898 C903 1.370 . S
C899 H872 0.929 . S
C899 C898 1.363 . S
C899 C900 1.385 . S
C900 H874 0.930 . S
C900 C899 1.385 . S
C900 C901 1.357 . S
C901 C900 1.357 . S
C901 C902 1.406 . S
C902 H876 0.929 . S
C902 C901 1.406 . S
C902 C903 1.391 . S
C903 H875 0.931 . S
C903 C898 1.370 . S
C903 C902 1.391 . S
C904 N873 1.435 . S
C904 C905 1.358 . S
C904 C909 1.371 . S
C905 H877 0.930 . S
C905 C904 1.358 . S
C905 C906 1.405 . S
C906 H878 0.932 . S
C906 C905 1.405 . S
C906 C907 1.383 . S
C907 C906 1.383 . S
C907 C908 1.393 . S
C908 H880 0.931 . S
C908 C907 1.393 . S
C908 C909 1.382 . S
C909 H879 0.929 . S
C909 C904 1.371 . S
C909 C908 1.382 . S
C910 N873 1.423 . S
C910 C911 1.362 . S
C910 C915 1.388 . S
C911 H881 0.929 . S
C911 C910 1.362 . S
C911 C912 1.376 . S
C912 H883 0.931 . S
C912 C911 1.376 . S
C912 C913 1.396 . S
C913 C912 1.396 . S
C913 C914 1.348 . S
C913 C931 1.472 . S
C914 H884 0.929 . S
C914 C913 1.348 . S
C914 C915 1.443 . S
C915 H882 0.932 . S
C915 C910 1.388 . S
C915 C914 1.443 . S
C916 N896 1.433 . S
C916 C917 1.363 . S
C916 C921 1.370 . S
C917 H885 0.929 . S
C917 C916 1.363 . S
C917 C918 1.385 . S
C918 H886 0.930 . S
C918 C917 1.385 . S
C918 C919 1.357 . S
C919 C918 1.357 . S
C919 C920 1.406 . S
C920 H887 0.929 . S
C920 C919 1.406 . S
C920 C921 1.391 . S
C921 H888 0.931 . S
C921 C916 1.370 . S
C921 C920 1.391 . S
C922 N896 1.435 . S
C922 C923 1.358 . S
C922 C927 1.371 . S
C923 H889 0.930 . S
C923 C922 1.358 . S
C923 C924 1.405 . S
C924 H890 0.932 . S
C924 C923 1.405 . S
C924 C925 1.383 . S
C925 C924 1.383 . S
C925 C926 1.393 . S
C926 H891 0.931 . S
C926 C925 1.393 . S
C926 C927 1.382 . S
C927 H892 0.929 . S
C927 C922 1.371 . S
C927 C926 1.382 . S
C928 N896 1.423 . S
C928 C929 1.362 . S
C928 C933 1.388 . S
C929 H893 0.929 . S
C929 C928 1.362 . S
C929 C930 1.376 . S
C930 H894 0.931 . S
C930 C929 1.376 . S
C930 C931 1.396 . S
C931 C913 1.472 . S
C931 C930 1.396 . S
C931 C932 1.348 . S
C932 H895 0.929 . S
C932 C931 1.348 . S
C932 C933 1.443 . S
C933 H897 0.932 . S
C933 C928 1.388 . S
C933 C932 1.443 . S
H934 C961 0.929 . S
N935 C960 1.433 . S
N935 C966 1.435 . S
N935 C972 1.423 . S
H936 C962 0.930 . S
H937 C965 0.931 . S
H938 C964 0.929 . S
H939 C967 0.930 . S
H940 C968 0.932 . S
H941 C971 0.929 . S
H942 C970 0.931 . S
H943 C973 0.929 . S
H944 C977 0.932 1_545 S
H945 C974 0.931 . S
H946 C976 0.969 . S
H947 C979 0.929 . S
H948 C980 0.930 . S
H949 C982 0.929 . S
H950 C983 0.931 . S
H951 C985 0.930 . S
H952 C986 0.932 . S
H953 C988 0.931 . S
H954 C989 0.929 . S
H955 C991 0.929 . S
H956 C992 0.931 . S
H957 C994 0.938 . S
N958 C978 1.433 . S
N958 C984 1.435 . S
N958 C990 1.423 . S
H959 C995 0.932 1_545 S
C960 N935 1.433 . S
C960 C961 1.363 . S
C960 C965 1.370 1_565 S
C961 H934 0.929 . S
C961 C960 1.363 . S
C961 C962 1.385 . S
C962 H936 0.930 . S
C962 C961 1.385 . S
C962 C963 1.357 1_565 S
C963 C962 1.357 1_545 S
C963 C964 1.406 . S
C964 H938 0.929 . S
C964 C963 1.406 . S
C964 C965 1.391 . S
C965 H937 0.931 . S
C965 C960 1.370 1_545 S
C965 C964 1.391 . S
C966 N935 1.435 . S
C966 C967 1.358 1_565 S
C966 C971 1.371 . S
C967 H939 0.930 . S
C967 C966 1.358 1_545 S
C967 C968 1.405 . S
C968 H940 0.932 . S
C968 C967 1.405 . S
C968 C969 1.383 1_545 S
C969 C968 1.383 1_565 S
C969 C970 1.393 . S
C970 H942 0.931 . S
C970 C969 1.393 . S
C970 C971 1.382 . S
C971 H941 0.929 . S
C971 C966 1.371 . S
C971 C970 1.382 . S
C972 N935 1.423 . S
C972 C973 1.362 . S
C972 C977 1.388 . S
C973 H943 0.929 . S
C973 C972 1.362 . S
C973 C974 1.376 . S
C974 H945 0.931 . S
C974 C973 1.376 . S
C974 C975 1.396 . S
C975 C974 1.396 . S
C975 C976 1.348 . S
C975 C993 1.472 . S
C976 H946 0.969 . S
C976 C975 1.348 . S
C976 C977 1.443 . S
C977 H944 0.932 1_565 S
C977 C972 1.388 . S
C977 C976 1.443 . S
C978 N958 1.433 . S
C978 C979 1.363 . S
C978 C983 1.370 1_565 S
C979 H947 0.929 . S
C979 C978 1.363 . S
C979 C980 1.385 . S
C980 H948 0.930 . S
C980 C979 1.385 . S
C980 C981 1.357 1_565 S
C981 C980 1.357 1_545 S
C981 C982 1.406 . S
C982 H949 0.929 . S
C982 C981 1.406 . S
C982 C983 1.391 . S
C983 H950 0.931 . S
C983 C978 1.370 1_545 S
C983 C982 1.391 . S
C984 N958 1.435 . S
C984 C985 1.358 1_565 S
C984 C989 1.371 . S
C985 H951 0.930 . S
C985 C984 1.358 1_545 S
C985 C986 1.405 . S
C986 H952 0.932 . S
C986 C985 1.405 . S
C986 C987 1.383 1_545 S
C987 C986 1.383 1_565 S
C987 C988 1.393 . S
C988 H953 0.931 . S
C988 C987 1.393 . S
C988 C989 1.382 . S
C989 H954 0.929 . S
C989 C984 1.371 . S
C989 C988 1.382 . S
C990 N958 1.423 . S
C990 C991 1.362 . S
C990 C995 1.388 . S
C991 H955 0.929 . S
C991 C990 1.362 . S
C991 C992 1.376 . S
C992 H956 0.931 . S
C992 C991 1.376 . S
C992 C993 1.396 . S
C993 C975 1.472 . S
C993 C992 1.396 . S
C993 C994 1.348 . S
C994 H957 0.938 . S
C994 C993 1.348 . S
C994 C995 1.443 . S
C995 H959 0.932 1_565 S
C995 C990 1.388 . S
C995 C994 1.443 . S
H996 C1023 0.929 . S
N997 C1022 1.452 . S
N997 C1028 1.478 . S
N997 C1034 1.321 1_545 S
H998 C1024 0.930 . S
H999 C1027 0.931 . S
H1000 C1026 0.929 . S
H1001 C1029 0.930 . S
H1002 C1030 0.932 . S
H1003 C1033 0.929 . S
H1004 C1032 0.917 1_565 S
H1005 C1035 0.929 . S
H1006 C1039 0.932 . S
H1007 C1036 0.931 . S
H1008 C1038 0.929 . S
H1009 C1041 0.929 . S
H1010 C1042 0.930 . S
H1011 C1044 0.929 . S
H1012 C1045 0.931 . S
H1013 C1047 0.930 . S
H1014 C1048 0.932 . S
H1015 C1050 0.921 1_565 S
H1016 C1051 0.929 . S
H1017 C1053 0.929 . S
H1018 C1054 0.931 . S
H1019 C1056 0.929 . S
N1020 C1040 1.421 . S
N1020 C1046 1.425 . S
N1020 C1052 1.504 1_545 S
H1021 C1057 0.932 . S
C1022 N997 1.452 . S
C1022 C1023 1.363 1_545 S
C1022 C1027 1.370 . S
C1023 H996 0.929 . S
C1023 C1022 1.363 1_565 S
C1023 C1024 1.385 . S
C1024 H998 0.930 . S
C1024 C1023 1.385 . S
C1024 C1025 1.357 1_565 S
C1025 C1024 1.357 1_545 S
C1025 C1026 1.406 . S
C1026 H1000 0.929 . S
C1026 C1025 1.406 . S
C1026 C1027 1.391 . S
C1027 H999 0.931 . S
C1027 C1022 1.370 . S
C1027 C1026 1.391 . S
C1028 N997 1.478 . S
C1028 C1029 1.358 . S
C1028 C1033 1.371 1_545 S
C1029 H1001 0.930 . S
C1029 C1028 1.358 . S
C1029 C1030 1.405 . S
C1030 H1002 0.932 . S
C1030 C1029 1.405 . S
C1030 C1031 1.383 . S
C1031 C1030 1.383 . S
C1031 C1032 1.422 . S
C1032 H1004 0.917 1_545 S
C1032 C1031 1.422 . S
C1032 C1033 1.367 1_545 S
C1033 H1003 0.929 . S
C1033 C1028 1.371 1_565 S
C1033 C1032 1.367 1_565 S
C1034 N997 1.321 1_565 S
C1034 C1035 1.443 . S
C1034 C1039 1.366 1_565 S
C1035 H1005 0.929 . S
C1035 C1034 1.443 . S
C1035 C1036 1.376 . S
C1036 H1007 0.931 . S
C1036 C1035 1.376 . S
C1036 C1037 1.396 . S
C1037 C1036 1.396 . S
C1037 C1038 1.348 1_565 S
C1037 C1055 1.472 . S
C1038 H1008 0.929 . S
C1038 C1037 1.348 1_545 S
C1038 C1039 1.443 . S
C1039 H1006 0.932 . S
C1039 C1034 1.366 1_545 S
C1039 C1038 1.443 . S
C1040 N1020 1.421 . S
C1040 C1041 1.363 1_545 S
C1040 C1045 1.370 . S
C1041 H1009 0.929 . S
C1041 C1040 1.363 1_565 S
C1041 C1042 1.385 . S
C1042 H1010 0.930 . S
C1042 C1041 1.385 . S
C1042 C1043 1.357 1_565 S
C1043 C1042 1.357 1_545 S
C1043 C1044 1.406 . S
C1044 H1011 0.929 . S
C1044 C1043 1.406 . S
C1044 C1045 1.391 . S
C1045 H1012 0.931 . S
C1045 C1040 1.370 . S
C1045 C1044 1.391 . S
C1046 N1020 1.425 . S
C1046 C1047 1.358 . S
C1046 C1051 1.371 1_545 S
C1047 H1013 0.930 . S
C1047 C1046 1.358 . S
C1047 C1048 1.405 . S
C1048 H1014 0.932 . S
C1048 C1047 1.405 . S
C1048 C1049 1.383 . S
C1049 C1048 1.383 . S
C1049 C1050 1.400 . S
C1050 H1015 0.921 1_545 S
C1050 C1049 1.400 . S
C1050 C1051 1.387 1_545 S
C1051 H1016 0.929 . S
C1051 C1046 1.371 1_565 S
C1051 C1050 1.387 1_565 S
C1052 N1020 1.504 1_565 S
C1052 C1053 1.395 . S
C1052 C1057 1.317 1_565 S
C1053 H1017 0.929 . S
C1053 C1052 1.395 . S
C1053 C1054 1.376 . S
C1054 H1018 0.931 . S
C1054 C1053 1.376 . S
C1054 C1055 1.396 . S
C1055 C1037 1.472 . S
C1055 C1054 1.396 . S
C1055 C1056 1.348 1_565 S
C1056 H1019 0.929 . S
C1056 C1055 1.348 1_545 S
C1056 C1057 1.443 . S
C1057 H1021 0.932 . S
C1057 C1052 1.317 1_545 S
C1057 C1056 1.443 . S
H1058 C1085 0.929 . S
N1059 C1084 1.433 . S
N1059 C1090 1.435 . S
N1059 C1096 1.423 . S
H1060 C1086 0.930 . S
H1061 C1089 0.931 . S
H1062 C1088 0.929 . S
H1063 C1091 0.930 . S
H1064 C1092 0.932 . S
H1065 C1095 0.929 . S
H1066 C1094 0.931 . S
H1067 C1097 0.929 . S
H1068 C1101 0.932 1_455 S
H1069 C1098 0.931 . S
H1070 C1100 0.968 . S
H1071 C1103 0.929 . S
H1072 C1104 0.930 . S
H1073 C1106 0.929 . S
H1074 C1107 0.931 . S
H1075 C1109 0.930 . S
H1076 C1110 0.932 . S
H1077 C1112 0.931 . S
H1078 C1113 0.929 . S
H1079 C1115 0.929 . S
H1080 C1116 0.931 . S
H1081 C1118 0.937 . S
N1082 C1102 1.433 . S
N1082 C1108 1.435 . S
N1082 C1114 1.423 . S
H1083 C1119 0.932 1_455 S
C1084 N1059 1.433 . S
C1084 C1085 1.363 . S
C1084 C1089 1.370 1_655 S
C1085 H1058 0.929 . S
C1085 C1084 1.363 . S
C1085 C1086 1.385 . S
C1086 H1060 0.930 . S
C1086 C1085 1.385 . S
C1086 C1087 1.357 1_655 S
C1087 C1086 1.357 1_455 S
C1087 C1088 1.406 . S
C1088 H1062 0.929 . S
C1088 C1087 1.406 . S
C1088 C1089 1.391 . S
C1089 H1061 0.931 . S
C1089 C1084 1.370 1_455 S
C1089 C1088 1.391 . S
C1090 N1059 1.435 . S
C1090 C1091 1.358 1_655 S
C1090 C1095 1.371 . S
C1091 H1063 0.930 . S
C1091 C1090 1.358 1_455 S
C1091 C1092 1.405 . S
C1092 H1064 0.932 . S
C1092 C1091 1.405 . S
C1092 C1093 1.383 1_455 S
C1093 C1092 1.383 1_655 S
C1093 C1094 1.393 . S
C1094 H1066 0.931 . S
C1094 C1093 1.393 . S
C1094 C1095 1.382 . S
C1095 H1065 0.929 . S
C1095 C1090 1.371 . S
C1095 C1094 1.382 . S
C1096 N1059 1.423 . S
C1096 C1097 1.362 . S
C1096 C1101 1.388 . S
C1097 H1067 0.929 . S
C1097 C1096 1.362 . S
C1097 C1098 1.376 . S
C1098 H1069 0.931 . S
C1098 C1097 1.376 . S
C1098 C1099 1.396 . S
C1099 C1098 1.396 . S
C1099 C1100 1.348 . S
C1099 C1117 1.472 . S
C1100 H1070 0.968 . S
C1100 C1099 1.348 . S
C1100 C1101 1.443 . S
C1101 H1068 0.932 1_655 S
C1101 C1096 1.388 . S
C1101 C1100 1.443 . S
C1102 N1082 1.433 . S
C1102 C1103 1.363 . S
C1102 C1107 1.370 1_655 S
C1103 H1071 0.929 . S
C1103 C1102 1.363 . S
C1103 C1104 1.385 . S
C1104 H1072 0.930 . S
C1104 C1103 1.385 . S
C1104 C1105 1.357 1_655 S
C1105 C1104 1.357 1_455 S
C1105 C1106 1.406 . S
C1106 H1073 0.929 . S
C1106 C1105 1.406 . S
C1106 C1107 1.391 . S
C1107 H1074 0.931 . S
C1107 C1102 1.370 1_455 S
C1107 C1106 1.391 . S
C1108 N1082 1.435 . S
C1108 C1109 1.358 1_655 S
C1108 C1113 1.371 . S
C1109 H1075 0.930 . S
C1109 C1108 1.358 1_455 S
C1109 C1110 1.405 . S
C1110 H1076 0.932 . S
C1110 C1109 1.405 . S
C1110 C1111 1.383 1_455 S
C1111 C1110 1.383 1_655 S
C1111 C1112 1.393 . S
C1112 H1077 0.931 . S
C1112 C1111 1.393 . S
C1112 C1113 1.382 . S
C1113 H1078 0.929 . S
C1113 C1108 1.371 . S
C1113 C1112 1.382 . S
C1114 N1082 1.423 . S
C1114 C1115 1.362 . S
C1114 C1119 1.388 . S
C1115 H1079 0.929 . S
C1115 C1114 1.362 . S
C1115 C1116 1.376 . S
C1116 H1080 0.931 . S
C1116 C1115 1.376 . S
C1116 C1117 1.396 . S
C1117 C1099 1.472 . S
C1117 C1116 1.396 . S
C1117 C1118 1.348 . S
C1118 H1081 0.937 . S
C1118 C1117 1.348 . S
C1118 C1119 1.443 . S
C1119 H1083 0.932 1_655 S
C1119 C1114 1.388 . S
C1119 C1118 1.443 . S
H1120 C1147 0.929 . S
N1121 C1146 1.433 . S
N1121 C1152 1.435 . S
N1121 C1158 1.423 . S
H1122 C1148 0.930 . S
H1123 C1151 0.931 . S
H1124 C1150 0.929 . S
H1125 C1153 0.930 . S
H1126 C1154 0.932 . S
H1127 C1157 0.929 . S
H1128 C1156 0.931 . S
H1129 C1159 0.929 . S
H1130 C1163 0.932 . S
H1131 C1160 0.931 . S
H1132 C1162 0.929 . S
H1133 C1165 0.929 . S
H1134 C1166 0.930 . S
H1135 C1168 0.929 . S
H1136 C1169 0.931 . S
H1137 C1171 0.930 . S
H1138 C1172 0.932 . S
H1139 C1174 0.931 . S
H1140 C1175 0.929 . S
H1141 C1177 0.929 . S
H1142 C1178 0.931 . S
H1143 C1180 0.929 . S
N1144 C1164 1.433 . S
N1144 C1170 1.435 . S
N1144 C1176 1.423 . S
H1145 C1181 0.932 . S
C1146 N1121 1.433 . S
C1146 C1147 1.363 . S
C1146 C1151 1.370 . S
C1147 H1120 0.929 . S
C1147 C1146 1.363 . S
C1147 C1148 1.385 . S
C1148 H1122 0.930 . S
C1148 C1147 1.385 . S
C1148 C1149 1.357 . S
C1149 C1148 1.357 . S
C1149 C1150 1.406 . S
C1150 H1124 0.929 . S
C1150 C1149 1.406 . S
C1150 C1151 1.391 . S
C1151 H1123 0.931 . S
C1151 C1146 1.370 . S
C1151 C1150 1.391 . S
C1152 N1121 1.435 . S
C1152 C1153 1.358 . S
C1152 C1157 1.371 . S
C1153 H1125 0.930 . S
C1153 C1152 1.358 . S
C1153 C1154 1.405 . S
C1154 H1126 0.932 . S
C1154 C1153 1.405 . S
C1154 C1155 1.383 . S
C1155 C1154 1.383 . S
C1155 C1156 1.393 . S
C1156 H1128 0.931 . S
C1156 C1155 1.393 . S
C1156 C1157 1.382 . S
C1157 H1127 0.929 . S
C1157 C1152 1.371 . S
C1157 C1156 1.382 . S
C1158 N1121 1.423 . S
C1158 C1159 1.362 . S
C1158 C1163 1.388 . S
C1159 H1129 0.929 . S
C1159 C1158 1.362 . S
C1159 C1160 1.376 . S
C1160 H1131 0.931 . S
C1160 C1159 1.376 . S
C1160 C1161 1.396 . S
C1161 C1160 1.396 . S
C1161 C1162 1.348 . S
C1161 C1179 1.472 . S
C1162 H1132 0.929 . S
C1162 C1161 1.348 . S
C1162 C1163 1.443 . S
C1163 H1130 0.932 . S
C1163 C1158 1.388 . S
C1163 C1162 1.443 . S
C1164 N1144 1.433 . S
C1164 C1165 1.363 . S
C1164 C1169 1.370 . S
C1165 H1133 0.929 . S
C1165 C1164 1.363 . S
C1165 C1166 1.385 . S
C1166 H1134 0.930 . S
C1166 C1165 1.385 . S
C1166 C1167 1.357 . S
C1167 C1166 1.357 . S
C1167 C1168 1.406 . S
C1168 H1135 0.929 . S
C1168 C1167 1.406 . S
C1168 C1169 1.391 . S
C1169 H1136 0.931 . S
C1169 C1164 1.370 . S
C1169 C1168 1.391 . S
C1170 N1144 1.435 . S
C1170 C1171 1.358 . S
C1170 C1175 1.371 . S
C1171 H1137 0.930 . S
C1171 C1170 1.358 . S
C1171 C1172 1.405 . S
C1172 H1138 0.932 . S
C1172 C1171 1.405 . S
C1172 C1173 1.383 . S
C1173 C1172 1.383 . S
C1173 C1174 1.393 . S
C1174 H1139 0.931 . S
C1174 C1173 1.393 . S
C1174 C1175 1.382 . S
C1175 H1140 0.929 . S
C1175 C1170 1.371 . S
C1175 C1174 1.382 . S
C1176 N1144 1.423 . S
C1176 C1177 1.362 . S
C1176 C1181 1.388 . S
C1177 H1141 0.929 . S
C1177 C1176 1.362 . S
C1177 C1178 1.376 . S
C1178 H1142 0.931 . S
C1178 C1177 1.376 . S
C1178 C1179 1.396 . S
C1179 C1161 1.472 . S
C1179 C1178 1.396 . S
C1179 C1180 1.348 . S
C1180 H1143 0.929 . S
C1180 C1179 1.348 . S
C1180 C1181 1.443 . S
C1181 H1145 0.932 . S
C1181 C1176 1.388 . S
C1181 C1180 1.443 . S
H1182 C1209 0.929 . S
N1183 C1208 1.433 . S
N1183 C1214 1.435 . S
N1183 C1220 1.423 . S
H1184 C1210 0.930 . S
H1185 C1213 0.931 . S
H1186 C1212 0.929 . S
H1187 C1215 0.930 . S
H1188 C1216 0.932 . S
H1189 C1219 0.929 . S
H1190 C1218 0.931 . S
H1191 C1221 0.929 . S
H1192 C1225 0.932 . S
H1193 C1222 0.931 . S
H1194 C1224 0.929 . S
H1195 C1227 0.929 . S
H1196 C1228 0.930 . S
H1197 C1230 0.929 . S
H1198 C1231 0.931 . S
H1199 C1233 0.930 . S
H1200 C1234 0.932 . S
H1201 C1236 0.931 . S
H1202 C1237 0.929 . S
H1203 C1239 0.929 . S
H1204 C1240 0.931 . S
H1205 C1242 0.929 . S
N1206 C1226 1.433 . S
N1206 C1232 1.435 . S
N1206 C1238 1.423 . S
H1207 C1243 0.932 . S
C1208 N1183 1.433 . S
C1208 C1209 1.363 . S
C1208 C1213 1.370 . S
C1209 H1182 0.929 . S
C1209 C1208 1.363 . S
C1209 C1210 1.385 . S
C1210 H1184 0.930 . S
C1210 C1209 1.385 . S
C1210 C1211 1.357 . S
C1211 C1210 1.357 . S
C1211 C1212 1.406 . S
C1212 H1186 0.929 . S
C1212 C1211 1.406 . S
C1212 C1213 1.391 . S
C1213 H1185 0.931 . S
C1213 C1208 1.370 . S
C1213 C1212 1.391 . S
C1214 N1183 1.435 . S
C1214 C1215 1.358 . S
C1214 C1219 1.371 . S
C1215 H1187 0.930 . S
C1215 C1214 1.358 . S
C1215 C1216 1.405 . S
C1216 H1188 0.932 . S
C1216 C1215 1.405 . S
C1216 C1217 1.383 . S
C1217 C1216 1.383 . S
C1217 C1218 1.393 . S
C1218 H1190 0.931 . S
C1218 C1217 1.393 . S
C1218 C1219 1.382 . S
C1219 H1189 0.929 . S
C1219 C1214 1.371 . S
C1219 C1218 1.382 . S
C1220 N1183 1.423 . S
C1220 C1221 1.362 . S
C1220 C1225 1.388 . S
C1221 H1191 0.929 . S
C1221 C1220 1.362 . S
C1221 C1222 1.376 . S
C1222 H1193 0.931 . S
C1222 C1221 1.376 . S
C1222 C1223 1.396 . S
C1223 C1222 1.396 . S
C1223 C1224 1.348 . S
C1223 C1241 1.472 . S
C1224 H1194 0.929 . S
C1224 C1223 1.348 . S
C1224 C1225 1.443 . S
C1225 H1192 0.932 . S
C1225 C1220 1.388 . S
C1225 C1224 1.443 . S
C1226 N1206 1.433 . S
C1226 C1227 1.363 . S
C1226 C1231 1.370 . S
C1227 H1195 0.929 . S
C1227 C1226 1.363 . S
C1227 C1228 1.385 . S
C1228 H1196 0.930 . S
C1228 C1227 1.385 . S
C1228 C1229 1.357 . S
C1229 C1228 1.357 . S
C1229 C1230 1.406 . S
C1230 H1197 0.929 . S
C1230 C1229 1.406 . S
C1230 C1231 1.391 . S
C1231 H1198 0.931 . S
C1231 C1226 1.370 . S
C1231 C1230 1.391 . S
C1232 N1206 1.435 . S
C1232 C1233 1.358 . S
C1232 C1237 1.371 . S
C1233 H1199 0.930 . S
C1233 C1232 1.358 . S
C1233 C1234 1.405 . S
C1234 H1200 0.932 . S
C1234 C1233 1.405 . S
C1234 C1235 1.383 . S
C1235 C1234 1.383 . S
C1235 C1236 1.393 . S
C1236 H1201 0.931 . S
C1236 C1235 1.393 . S
C1236 C1237 1.382 . S
C1237 H1202 0.929 . S
C1237 C1232 1.371 . S
C1237 C1236 1.382 . S
C1238 N1206 1.423 . S
C1238 C1239 1.362 . S
C1238 C1243 1.388 . S
C1239 H1203 0.929 . S
C1239 C1238 1.362 . S
C1239 C1240 1.376 . S
C1240 H1204 0.931 . S
C1240 C1239 1.376 . S
C1240 C1241 1.396 . S
C1241 C1223 1.472 . S
C1241 C1240 1.396 . S
C1241 C1242 1.348 . S
C1242 H1205 0.929 . S
C1242 C1241 1.348 . S
C1242 C1243 1.443 . S
C1243 H1207 0.932 . S
C1243 C1238 1.388 . S
C1243 C1242 1.443 . S
H1244 C1271 0.929 . S
N1245 C1270 1.433 . S
N1245 C1276 1.435 . S
N1245 C1282 1.423 . S
H1246 C1272 0.930 . S
H1247 C1275 0.931 . S
H1248 C1274 0.929 . S
H1249 C1277 0.930 . S
H1250 C1278 0.932 . S
H1251 C1281 0.929 . S
H1252 C1280 0.931 . S
H1253 C1283 0.929 . S
H1254 C1287 0.932 . S
H1255 C1284 0.931 . S
H1256 C1286 0.929 . S
H1257 C1289 0.929 . S
H1258 C1290 0.930 . S
H1259 C1292 0.929 . S
H1260 C1293 0.931 . S
H1261 C1295 0.930 . S
H1262 C1296 0.932 . S
H1263 C1298 0.931 . S
H1264 C1299 0.929 . S
H1265 C1301 0.929 . S
H1266 C1302 0.931 . S
H1267 C1304 0.929 . S
N1268 C1288 1.433 . S
N1268 C1294 1.435 . S
N1268 C1300 1.423 . S
H1269 C1305 0.932 . S
C1270 N1245 1.433 . S
C1270 C1271 1.363 . S
C1270 C1275 1.370 . S
C1271 H1244 0.929 . S
C1271 C1270 1.363 . S
C1271 C1272 1.385 . S
C1272 H1246 0.930 . S
C1272 C1271 1.385 . S
C1272 C1273 1.357 . S
C1273 C1272 1.357 . S
C1273 C1274 1.406 . S
C1274 H1248 0.929 . S
C1274 C1273 1.406 . S
C1274 C1275 1.391 . S
C1275 H1247 0.931 . S
C1275 C1270 1.370 . S
C1275 C1274 1.391 . S
C1276 N1245 1.435 . S
C1276 C1277 1.358 . S
C1276 C1281 1.371 . S
C1277 H1249 0.930 . S
C1277 C1276 1.358 . S
C1277 C1278 1.405 . S
C1278 H1250 0.932 . S
C1278 C1277 1.405 . S
C1278 C1279 1.383 . S
C1279 C1278 1.383 . S
C1279 C1280 1.393 . S
C1280 H1252 0.931 . S
C1280 C1279 1.393 . S
C1280 C1281 1.382 . S
C1281 H1251 0.929 . S
C1281 C1276 1.371 . S
C1281 C1280 1.382 . S
C1282 N1245 1.423 . S
C1282 C1283 1.362 . S
C1282 C1287 1.388 . S
C1283 H1253 0.929 . S
C1283 C1282 1.362 . S
C1283 C1284 1.376 . S
C1284 H1255 0.931 . S
C1284 C1283 1.376 . S
C1284 C1285 1.396 . S
C1285 C1284 1.396 . S
C1285 C1286 1.348 . S
C1285 C1303 1.472 . S
C1286 H1256 0.929 . S
C1286 C1285 1.348 . S
C1286 C1287 1.443 . S
C1287 H1254 0.932 . S
C1287 C1282 1.388 . S
C1287 C1286 1.443 . S
C1288 N1268 1.433 . S
C1288 C1289 1.363 . S
C1288 C1293 1.370 . S
C1289 H1257 0.929 . S
C1289 C1288 1.363 . S
C1289 C1290 1.385 . S
C1290 H1258 0.930 . S
C1290 C1289 1.385 . S
C1290 C1291 1.357 . S
C1291 C1290 1.357 . S
C1291 C1292 1.406 . S
C1292 H1259 0.929 . S
C1292 C1291 1.406 . S
C1292 C1293 1.391 . S
C1293 H1260 0.931 . S
C1293 C1288 1.370 . S
C1293 C1292 1.391 . S
C1294 N1268 1.435 . S
C1294 C1295 1.358 . S
C1294 C1299 1.371 . S
C1295 H1261 0.930 . S
C1295 C1294 1.358 . S
C1295 C1296 1.405 . S
C1296 H1262 0.932 . S
C1296 C1295 1.405 . S
C1296 C1297 1.383 . S
C1297 C1296 1.383 . S
C1297 C1298 1.393 . S
C1298 H1263 0.931 . S
C1298 C1297 1.393 . S
C1298 C1299 1.382 . S
C1299 H1264 0.929 . S
C1299 C1294 1.371 . S
C1299 C1298 1.382 . S
C1300 N1268 1.423 . S
C1300 C1301 1.362 . S
C1300 C1305 1.388 . S
C1301 H1265 0.929 . S
C1301 C1300 1.362 . S
C1301 C1302 1.376 . S
C1302 H1266 0.931 . S
C1302 C1301 1.376 . S
C1302 C1303 1.396 . S
C1303 C1285 1.472 . S
C1303 C1302 1.396 . S
C1303 C1304 1.348 . S
C1304 H1267 0.929 . S
C1304 C1303 1.348 . S
C1304 C1305 1.443 . S
C1305 H1269 0.932 . S
C1305 C1300 1.388 . S
C1305 C1304 1.443 . S
H1306 C1333 0.929 . S
N1307 C1332 1.433 . S
N1307 C1338 1.435 . S
N1307 C1344 1.423 . S
H1308 C1334 0.930 . S
H1309 C1337 0.931 . S
H1310 C1336 0.929 . S
H1311 C1339 0.930 . S
H1312 C1340 0.932 . S
H1313 C1343 0.929 . S
H1314 C1342 0.931 . S
H1315 C1345 0.929 . S
H1316 C1349 0.932 . S
H1317 C1346 0.931 . S
H1318 C1348 0.929 . S
H1319 C1351 0.929 . S
H1320 C1352 0.930 . S
H1321 C1354 0.929 . S
H1322 C1355 0.931 . S
H1323 C1357 0.930 . S
H1324 C1358 0.932 . S
H1325 C1360 0.931 . S
H1326 C1361 0.929 . S
H1327 C1363 0.929 . S
H1328 C1364 0.931 . S
H1329 C1366 0.929 . S
N1330 C1350 1.433 . S
N1330 C1356 1.435 . S
N1330 C1362 1.423 . S
H1331 C1367 0.932 . S
C1332 N1307 1.433 . S
C1332 C1333 1.363 . S
C1332 C1337 1.370 . S
C1333 H1306 0.929 . S
C1333 C1332 1.363 . S
C1333 C1334 1.385 . S
C1334 H1308 0.930 . S
C1334 C1333 1.385 . S
C1334 C1335 1.357 . S
C1335 C1334 1.357 . S
C1335 C1336 1.406 . S
C1336 H1310 0.929 . S
C1336 C1335 1.406 . S
C1336 C1337 1.391 . S
C1337 H1309 0.931 . S
C1337 C1332 1.370 . S
C1337 C1336 1.391 . S
C1338 N1307 1.435 . S
C1338 C1339 1.358 . S
C1338 C1343 1.371 . S
C1339 H1311 0.930 . S
C1339 C1338 1.358 . S
C1339 C1340 1.405 . S
C1340 H1312 0.932 . S
C1340 C1339 1.405 . S
C1340 C1341 1.383 . S
C1341 C1340 1.383 . S
C1341 C1342 1.393 . S
C1342 H1314 0.931 . S
C1342 C1341 1.393 . S
C1342 C1343 1.382 . S
C1343 H1313 0.929 . S
C1343 C1338 1.371 . S
C1343 C1342 1.382 . S
C1344 N1307 1.423 . S
C1344 C1345 1.362 . S
C1344 C1349 1.388 . S
C1345 H1315 0.929 . S
C1345 C1344 1.362 . S
C1345 C1346 1.376 . S
C1346 H1317 0.931 . S
C1346 C1345 1.376 . S
C1346 C1347 1.396 . S
C1347 C1346 1.396 . S
C1347 C1348 1.348 . S
C1347 C1365 1.472 . S
C1348 H1318 0.929 . S
C1348 C1347 1.348 . S
C1348 C1349 1.443 . S
C1349 H1316 0.932 . S
C1349 C1344 1.388 . S
C1349 C1348 1.443 . S
C1350 N1330 1.433 . S
C1350 C1351 1.363 . S
C1350 C1355 1.370 . S
C1351 H1319 0.929 . S
C1351 C1350 1.363 . S
C1351 C1352 1.385 . S
C1352 H1320 0.930 . S
C1352 C1351 1.385 . S
C1352 C1353 1.357 . S
C1353 C1352 1.357 . S
C1353 C1354 1.406 . S
C1354 H1321 0.929 . S
C1354 C1353 1.406 . S
C1354 C1355 1.391 . S
C1355 H1322 0.931 . S
C1355 C1350 1.370 . S
C1355 C1354 1.391 . S
C1356 N1330 1.435 . S
C1356 C1357 1.358 . S
C1356 C1361 1.371 . S
C1357 H1323 0.930 . S
C1357 C1356 1.358 . S
C1357 C1358 1.405 . S
C1358 H1324 0.932 . S
C1358 C1357 1.405 . S
C1358 C1359 1.383 . S
C1359 C1358 1.383 . S
C1359 C1360 1.393 . S
C1360 H1325 0.931 . S
C1360 C1359 1.393 . S
C1360 C1361 1.382 . S
C1361 H1326 0.929 . S
C1361 C1356 1.371 . S
C1361 C1360 1.382 . S
C1362 N1330 1.423 . S
C1362 C1363 1.362 . S
C1362 C1367 1.388 . S
C1363 H1327 0.929 . S
C1363 C1362 1.362 . S
C1363 C1364 1.376 . S
C1364 H1328 0.931 . S
C1364 C1363 1.376 . S
C1364 C1365 1.396 . S
C1365 C1347 1.472 . S
C1365 C1364 1.396 . S
C1365 C1366 1.348 . S
C1366 H1329 0.929 . S
C1366 C1365 1.348 . S
C1366 C1367 1.443 . S
C1367 H1331 0.932 . S
C1367 C1362 1.388 . S
C1367 C1366 1.443 . S
H1368 C1380 0.944 . S
H1369 C1382 0.930 . S
H1370 C1383 0.930 . S
H1371 C1387 0.959 . S
H1372 C1387 0.959 . S
H1373 C1387 0.961 . S
H1374 C1388 0.960 . S
H1375 C1388 0.951 1_655 S
H1376 C1388 0.959 . S
H1377 C1391 0.929 . S
H1378 C1392 0.931 . S
H1379 C1394 0.930 . S
C1380 H1368 0.944 . S
C1380 C1381 1.366 1_655 S
C1380 C1385 1.426 1_655 S
C1381 C1380 1.366 1_455 S
C1381 C1382 1.376 . S
C1382 H1369 0.930 . S
C1382 C1381 1.376 . S
C1382 C1383 1.388 . S
C1383 H1370 0.930 . S
C1383 C1382 1.388 . S
C1383 C1384 1.390 . S
C1384 C1383 1.390 . S
C1384 C1385 1.394 . S
C1384 C1390 1.465 . S
C1385 C1380 1.426 1_455 S
C1385 C1384 1.394 . S
C1385 C1386 1.516 1_455 S
C1386 C1385 1.516 1_655 S
C1386 C1387 1.502 . S
C1386 C1388 1.561 1_655 S
C1386 C1389 1.534 1_655 S
C1387 H1371 0.959 . S
C1387 H1372 0.959 . S
C1387 H1373 0.961 . S
C1387 C1386 1.502 . S
C1388 H1374 0.960 . S
C1388 H1375 0.951 1_455 S
C1388 H1376 0.959 . S
C1388 C1386 1.561 1_455 S
C1389 C1386 1.534 1_455 S
C1389 C1390 1.409 . S
C1389 C1394 1.373 1_455 S
C1390 C1384 1.465 . S
C1390 C1389 1.409 . S
C1390 C1391 1.399 . S
C1391 H1377 0.929 . S
C1391 C1390 1.399 . S
C1391 C1392 1.385 . S
C1392 H1378 0.931 . S
C1392 C1391 1.385 . S
C1392 C1393 1.389 . S
C1393 C1392 1.389 . S
C1393 C1394 1.387 1_455 S
C1394 H1379 0.930 . S
C1394 C1389 1.373 1_655 S
C1394 C1393 1.387 1_655 S
H1395 C1407 0.930 . S
H1396 C1409 0.930 . S
H1397 C1410 0.930 . S
H1398 C1414 0.959 . S
H1399 C1414 0.959 . S
H1400 C1414 0.961 . S
H1401 C1415 0.960 . S
H1402 C1415 0.961 . S
H1403 C1415 0.959 . S
H1404 C1418 0.929 . S
H1405 C1419 0.931 . S
H1406 C1421 0.930 . S
C1407 H1395 0.930 . S
C1407 C1408 1.399 . S
C1407 C1412 1.399 . S
C1408 C1407 1.399 . S
C1408 C1409 1.376 . S
C1409 H1396 0.930 . S
C1409 C1408 1.376 . S
C1409 C1410 1.388 . S
C1410 H1397 0.930 . S
C1410 C1409 1.388 . S
C1410 C1411 1.390 . S
C1411 C1410 1.390 . S
C1411 C1412 1.394 . S
C1411 C1417 1.465 . S
C1412 C1407 1.399 . S
C1412 C1411 1.394 . S
C1412 C1413 1.516 . S
C1413 C1412 1.516 . S
C1413 C1414 1.502 . S
C1413 C1415 1.561 . S
C1413 C1416 1.526 . S
C1414 H1398 0.959 . S
C1414 H1399 0.959 . S
C1414 H1400 0.961 . S
C1414 C1413 1.502 . S
C1415 H1401 0.960 . S
C1415 H1402 0.961 . S
C1415 H1403 0.959 . S
C1415 C1413 1.561 . S
C1416 C1413 1.526 . S
C1416 C1417 1.396 . S
C1416 C1421 1.390 . S
C1417 C1411 1.465 . S
C1417 C1416 1.396 . S
C1417 C1418 1.399 . S
C1418 H1404 0.929 . S
C1418 C1417 1.399 . S
C1418 C1419 1.385 . S
C1419 H1405 0.931 . S
C1419 C1418 1.385 . S
C1419 C1420 1.389 . S
C1420 C1419 1.389 . S
C1420 C1421 1.387 . S
C1421 H1406 0.930 . S
C1421 C1416 1.390 . S
C1421 C1420 1.387 . S
H1422 C1434 0.930 . S
H1423 C1436 0.930 . S
H1424 C1437 0.930 . S
H1425 C1441 0.959 . S
H1426 C1441 0.959 . S
H1427 C1441 0.961 . S
H1428 C1442 0.960 . S
H1429 C1442 0.961 . S
H1430 C1442 0.959 . S
H1431 C1445 0.929 . S
H1432 C1446 0.931 . S
H1433 C1448 0.930 . S
C1434 H1422 0.930 . S
C1434 C1435 1.399 1_565 S
C1434 C1439 1.399 . S
C1435 C1434 1.399 1_545 S
C1435 C1436 1.376 . S
C1436 H1423 0.930 . S
C1436 C1435 1.376 . S
C1436 C1437 1.388 . S
C1437 H1424 0.930 . S
C1437 C1436 1.388 . S
C1437 C1438 1.390 . S
C1438 C1437 1.390 . S
C1438 C1439 1.394 1_545 S
C1438 C1444 1.465 . S
C1439 C1434 1.399 . S
C1439 C1438 1.394 1_565 S
C1439 C1440 1.516 . S
C1440 C1439 1.516 . S
C1440 C1441 1.502 . S
C1440 C1442 1.561 . S
C1440 C1443 1.526 . S
C1441 H1425 0.959 . S
C1441 H1426 0.959 . S
C1441 H1427 0.961 . S
C1441 C1440 1.502 . S
C1442 H1428 0.960 . S
C1442 H1429 0.961 . S
C1442 H1430 0.959 . S
C1442 C1440 1.561 . S
C1443 C1440 1.526 . S
C1443 C1444 1.396 1_565 S
C1443 C1448 1.390 . S
C1444 C1438 1.465 . S
C1444 C1443 1.396 1_545 S
C1444 C1445 1.399 . S
C1445 H1431 0.929 . S
C1445 C1444 1.399 . S
C1445 C1446 1.385 . S
C1446 H1432 0.931 . S
C1446 C1445 1.385 . S
C1446 C1447 1.389 . S
C1447 C1446 1.389 . S
C1447 C1448 1.387 1_545 S
C1448 H1433 0.930 . S
C1448 C1443 1.390 . S
C1448 C1447 1.387 1_565 S
H1449 C1461 0.930 . S
H1450 C1463 0.930 . S
H1451 C1464 0.930 . S
H1452 C1468 0.959 . S
H1453 C1468 0.959 . S
H1454 C1468 0.961 . S
H1455 C1469 0.960 . S
H1456 C1469 0.961 . S
H1457 C1469 0.959 . S
H1458 C1472 0.929 . S
H1459 C1473 0.931 . S
H1460 C1475 0.930 . S
C1461 H1449 0.930 . S
C1461 C1462 1.399 . S
C1461 C1466 1.399 . S
C1462 C1461 1.399 . S
C1462 C1463 1.376 1_545 S
C1463 H1450 0.930 . S
C1463 C1462 1.376 1_565 S
C1463 C1464 1.388 . S
C1464 H1451 0.930 . S
C1464 C1463 1.388 . S
C1464 C1465 1.390 . S
C1465 C1464 1.390 . S
C1465 C1466 1.394 1_565 S
C1465 C1471 1.465 . S
C1466 C1461 1.399 . S
C1466 C1465 1.394 1_545 S
C1466 C1467 1.516 . S
C1467 C1466 1.516 . S
C1467 C1468 1.502 . S
C1467 C1469 1.561 . S
C1467 C1470 1.526 . S
C1468 H1452 0.959 . S
C1468 H1453 0.959 . S
C1468 H1454 0.961 . S
C1468 C1467 1.502 . S
C1469 H1455 0.960 . S
C1469 H1456 0.961 . S
C1469 H1457 0.959 . S
C1469 C1467 1.561 . S
C1470 C1467 1.526 . S
C1470 C1471 1.396 1_545 S
C1470 C1475 1.390 . S
C1471 C1465 1.465 . S
C1471 C1470 1.396 1_565 S
C1471 C1472 1.399 . S
C1472 H1458 0.929 . S
C1472 C1471 1.399 . S
C1472 C1473 1.385 . S
C1473 H1459 0.931 . S
C1473 C1472 1.385 . S
C1473 C1474 1.389 1_565 S
C1474 C1473 1.389 1_545 S
C1474 C1475 1.387 . S
C1475 H1460 0.930 . S
C1475 C1470 1.390 . S
C1475 C1474 1.387 . S
H1476 C1488 0.930 . S
H1477 C1490 0.930 . S
H1478 C1491 0.930 . S
H1479 C1495 0.959 . S
H1480 C1495 0.951 . S
H1481 C1495 0.961 . S
H1482 C1496 0.960 . S
H1483 C1496 0.961 . S
H1484 C1496 0.959 . S
H1485 C1499 0.929 . S
H1486 C1500 0.931 . S
H1487 C1502 0.930 . S
C1488 H1476 0.930 . S
C1488 C1489 1.399 . S
C1488 C1493 1.399 . S
C1489 C1488 1.399 . S
C1489 C1490 1.376 . S
C1490 H1477 0.930 . S
C1490 C1489 1.376 . S
C1490 C1491 1.388 . S
C1491 H1478 0.930 . S
C1491 C1490 1.388 . S
C1491 C1492 1.390 . S
C1492 C1491 1.390 . S
C1492 C1493 1.394 . S
C1492 C1498 1.465 . S
C1493 C1488 1.399 . S
C1493 C1492 1.394 . S
C1493 C1494 1.516 . S
C1494 C1493 1.516 . S
C1494 C1495 1.502 1_455 S
C1494 C1496 1.561 . S
C1494 C1497 1.526 . S
C1495 H1479 0.959 . S
C1495 H1480 0.951 . S
C1495 H1481 0.961 . S
C1495 C1494 1.502 1_655 S
C1496 H1482 0.960 . S
C1496 H1483 0.961 . S
C1496 H1484 0.959 . S
C1496 C1494 1.561 . S
C1497 C1494 1.526 . S
C1497 C1498 1.396 . S
C1497 C1502 1.390 . S
C1498 C1492 1.465 . S
C1498 C1497 1.396 . S
C1498 C1499 1.399 . S
C1499 H1485 0.929 . S
C1499 C1498 1.399 . S
C1499 C1500 1.385 . S
C1500 H1486 0.931 . S
C1500 C1499 1.385 . S
C1500 C1501 1.389 . S
C1501 C1500 1.389 . S
C1501 C1502 1.387 . S
C1502 H1487 0.930 . S
C1502 C1497 1.390 . S
C1502 C1501 1.387 . S
H1503 C1515 0.930 . S
H1504 C1517 0.930 . S
H1505 C1518 0.930 . S
H1506 C1522 0.959 . S
H1507 C1522 0.959 . S
H1508 C1522 0.961 . S
H1509 C1523 0.960 . S
H1510 C1523 0.961 . S
H1511 C1523 0.959 . S
H1512 C1526 0.929 . S
H1513 C1527 0.931 . S
H1514 C1529 0.930 . S
C1515 H1503 0.930 . S
C1515 C1516 1.399 . S
C1515 C1520 1.399 . S
C1516 C1515 1.399 . S
C1516 C1517 1.376 . S
C1517 H1504 0.930 . S
C1517 C1516 1.376 . S
C1517 C1518 1.388 . S
C1518 H1505 0.930 . S
C1518 C1517 1.388 . S
C1518 C1519 1.390 . S
C1519 C1518 1.390 . S
C1519 C1520 1.394 . S
C1519 C1525 1.465 . S
C1520 C1515 1.399 . S
C1520 C1519 1.394 . S
C1520 C1521 1.516 . S
C1521 C1520 1.516 . S
C1521 C1522 1.502 . S
C1521 C1523 1.561 . S
C1521 C1524 1.526 . S
C1522 H1506 0.959 . S
C1522 H1507 0.959 . S
C1522 H1508 0.961 . S
C1522 C1521 1.502 . S
C1523 H1509 0.960 . S
C1523 H1510 0.961 . S
C1523 H1511 0.959 . S
C1523 C1521 1.561 . S
C1524 C1521 1.526 . S
C1524 C1525 1.396 . S
C1524 C1529 1.390 . S
C1525 C1519 1.465 . S
C1525 C1524 1.396 . S
C1525 C1526 1.399 . S
C1526 H1512 0.929 . S
C1526 C1525 1.399 . S
C1526 C1527 1.385 . S
C1527 H1513 0.931 . S
C1527 C1526 1.385 . S
C1527 C1528 1.389 . S
C1528 C1527 1.389 . S
C1528 C1529 1.387 . S
C1529 H1514 0.930 . S
C1529 C1524 1.390 . S
C1529 C1528 1.387 . S
H1530 C1542 0.907 1_655 S
H1531 C1544 0.930 . S
H1532 C1545 0.930 . S
H1533 C1549 0.959 . S
H1534 C1549 0.959 . S
H1535 C1549 0.961 . S
H1536 C1550 0.960 . S
H1537 C1550 0.961 . S
H1538 C1550 0.959 . S
H1539 C1553 0.929 . S
H1540 C1554 0.931 . S
H1541 C1556 0.894 1_655 S
C1542 H1530 0.907 1_455 S
C1542 C1543 1.405 . S
C1542 C1547 1.417 . S
C1543 C1542 1.405 . S
C1543 C1544 1.376 . S
C1544 H1531 0.930 . S
C1544 C1543 1.376 . S
C1544 C1545 1.388 . S
C1545 H1532 0.930 . S
C1545 C1544 1.388 . S
C1545 C1546 1.390 . S
C1546 C1545 1.390 . S
C1546 C1547 1.394 . S
C1546 C1552 1.465 . S
C1547 C1542 1.417 . S
C1547 C1546 1.394 . S
C1547 C1548 1.516 . S
C1548 C1547 1.516 . S
C1548 C1549 1.496 1_455 S
C1548 C1550 1.564 . S
C1548 C1551 1.530 . S
C1549 H1533 0.959 . S
C1549 H1534 0.959 . S
C1549 H1535 0.961 . S
C1549 C1548 1.496 1_655 S
C1550 H1536 0.960 . S
C1550 H1537 0.961 . S
C1550 H1538 0.959 . S
C1550 C1548 1.564 . S
C1551 C1548 1.530 . S
C1551 C1552 1.396 . S
C1551 C1556 1.390 . S
C1552 C1546 1.465 . S
C1552 C1551 1.396 . S
C1552 C1553 1.399 . S
C1553 H1539 0.929 . S
C1553 C1552 1.399 . S
C1553 C1554 1.385 . S
C1554 H1540 0.931 . S
C1554 C1553 1.385 . S
C1554 C1555 1.389 . S
C1555 C1554 1.389 . S
C1555 C1556 1.387 . S
C1556 H1541 0.894 1_455 S
C1556 C1551 1.390 . S
C1556 C1555 1.387 . S
H1557 C1569 0.930 . S
H1558 C1571 0.930 . S
H1559 C1572 0.930 . S
H1560 C1576 0.959 . S
H1561 C1576 0.959 . S
H1562 C1576 0.961 . S
H1563 C1577 0.960 . S
H1564 C1577 0.961 . S
H1565 C1577 0.959 . S
H1566 C1580 0.929 . S
H1567 C1581 0.931 . S
H1568 C1583 0.930 . S
C1569 H1557 0.930 . S
C1569 C1570 1.399 . S
C1569 C1574 1.399 . S
C1570 C1569 1.399 . S
C1570 C1571 1.376 . S
C1571 H1558 0.930 . S
C1571 C1570 1.376 . S
C1571 C1572 1.388 . S
C1572 H1559 0.930 . S
C1572 C1571 1.388 . S
C1572 C1573 1.390 . S
C1573 C1572 1.390 . S
C1573 C1574 1.394 . S
C1573 C1579 1.465 . S
C1574 C1569 1.399 . S
C1574 C1573 1.394 . S
C1574 C1575 1.516 . S
C1575 C1574 1.516 . S
C1575 C1576 1.502 . S
C1575 C1577 1.561 . S
C1575 C1578 1.526 . S
C1576 H1560 0.959 . S
C1576 H1561 0.959 . S
C1576 H1562 0.961 . S
C1576 C1575 1.502 . S
C1577 H1563 0.960 . S
C1577 H1564 0.961 . S
C1577 H1565 0.959 . S
C1577 C1575 1.561 . S
C1578 C1575 1.526 . S
C1578 C1579 1.396 . S
C1578 C1583 1.390 . S
C1579 C1573 1.465 . S
C1579 C1578 1.396 . S
C1579 C1580 1.399 . S
C1580 H1566 0.929 . S
C1580 C1579 1.399 . S
C1580 C1581 1.385 . S
C1581 H1567 0.931 . S
C1581 C1580 1.385 . S
C1581 C1582 1.389 . S
C1582 C1581 1.389 . S
C1582 C1583 1.387 . S
C1583 H1568 0.930 . S
C1583 C1578 1.390 . S
C1583 C1582 1.387 . S
H1584 C1596 0.930 . S
H1585 C1598 0.930 . S
H1586 C1599 0.930 . S
H1587 C1603 0.959 . S
H1588 C1603 0.959 . S
H1589 C1603 0.961 . S
H1590 C1604 0.960 . S
H1591 C1604 0.961 . S
H1592 C1604 0.959 . S
H1593 C1607 0.929 . S
H1594 C1608 0.931 . S
H1595 C1610 0.930 . S
C1596 H1584 0.930 . S
C1596 C1597 1.399 1_565 S
C1596 C1601 1.399 . S
C1597 C1596 1.399 1_545 S
C1597 C1598 1.376 . S
C1598 H1585 0.930 . S
C1598 C1597 1.376 . S
C1598 C1599 1.388 . S
C1599 H1586 0.930 . S
C1599 C1598 1.388 . S
C1599 C1600 1.390 . S
C1600 C1599 1.390 . S
C1600 C1601 1.394 1_545 S
C1600 C1606 1.465 . S
C1601 C1596 1.399 . S
C1601 C1600 1.394 1_565 S
C1601 C1602 1.516 . S
C1602 C1601 1.516 . S
C1602 C1603 1.502 . S
C1602 C1604 1.561 . S
C1602 C1605 1.526 . S
C1603 H1587 0.959 . S
C1603 H1588 0.959 . S
C1603 H1589 0.961 . S
C1603 C1602 1.502 . S
C1604 H1590 0.960 . S
C1604 H1591 0.961 . S
C1604 H1592 0.959 . S
C1604 C1602 1.561 . S
C1605 C1602 1.526 . S
C1605 C1606 1.396 1_565 S
C1605 C1610 1.390 . S
C1606 C1600 1.465 . S
C1606 C1605 1.396 1_545 S
C1606 C1607 1.399 . S
C1607 H1593 0.929 . S
C1607 C1606 1.399 . S
C1607 C1608 1.385 . S
C1608 H1594 0.931 . S
C1608 C1607 1.385 . S
C1608 C1609 1.389 . S
C1609 C1608 1.389 . S
C1609 C1610 1.387 1_545 S
C1610 H1595 0.930 . S
C1610 C1605 1.390 . S
C1610 C1609 1.387 1_565 S
H1611 C1623 0.930 . S
H1612 C1625 0.930 . S
H1613 C1626 0.930 . S
H1614 C1630 0.959 . S
H1615 C1630 0.959 . S
H1616 C1630 0.961 . S
H1617 C1631 0.960 . S
H1618 C1631 0.961 . S
H1619 C1631 0.959 . S
H1620 C1634 0.929 . S
H1621 C1635 0.931 . S
H1622 C1637 0.930 . S
C1623 H1611 0.930 . S
C1623 C1624 1.399 1_565 S
C1623 C1628 1.399 . S
C1624 C1623 1.399 1_545 S
C1624 C1625 1.376 . S
C1625 H1612 0.930 . S
C1625 C1624 1.376 . S
C1625 C1626 1.388 . S
C1626 H1613 0.930 . S
C1626 C1625 1.388 . S
C1626 C1627 1.390 . S
C1627 C1626 1.390 . S
C1627 C1628 1.394 1_545 S
C1627 C1633 1.465 . S
C1628 C1623 1.399 . S
C1628 C1627 1.394 1_565 S
C1628 C1629 1.516 . S
C1629 C1628 1.516 . S
C1629 C1630 1.502 . S
C1629 C1631 1.561 . S
C1629 C1632 1.526 . S
C1630 H1614 0.959 . S
C1630 H1615 0.959 . S
C1630 H1616 0.961 . S
C1630 C1629 1.502 . S
C1631 H1617 0.960 . S
C1631 H1618 0.961 . S
C1631 H1619 0.959 . S
C1631 C1629 1.561 . S
C1632 C1629 1.526 . S
C1632 C1633 1.396 1_565 S
C1632 C1637 1.390 . S
C1633 C1627 1.465 . S
C1633 C1632 1.396 1_545 S
C1633 C1634 1.399 . S
C1634 H1620 0.929 . S
C1634 C1633 1.399 . S
C1634 C1635 1.385 . S
C1635 H1621 0.931 . S
C1635 C1634 1.385 . S
C1635 C1636 1.389 . S
C1636 C1635 1.389 . S
C1636 C1637 1.387 1_545 S
C1637 H1622 0.930 . S
C1637 C1632 1.390 . S
C1637 C1636 1.387 1_565 S
H1638 C1650 0.930 . S
H1639 C1652 0.930 . S
H1640 C1653 0.930 . S
H1641 C1657 0.959 . S
H1642 C1657 0.959 . S
H1643 C1657 0.961 . S
H1644 C1658 0.960 . S
H1645 C1658 0.961 . S
H1646 C1658 0.959 . S
H1647 C1661 0.929 . S
H1648 C1662 0.931 . S
H1649 C1664 0.930 . S
C1650 H1638 0.930 . S
C1650 C1651 1.399 . S
C1650 C1655 1.399 . S
C1651 C1650 1.399 . S
C1651 C1652 1.376 1_455 S
C1652 H1639 0.930 . S
C1652 C1651 1.376 1_655 S
C1652 C1653 1.388 . S
C1653 H1640 0.930 . S
C1653 C1652 1.388 . S
C1653 C1654 1.390 . S
C1654 C1653 1.390 . S
C1654 C1655 1.394 1_655 S
C1654 C1660 1.465 . S
C1655 C1650 1.399 . S
C1655 C1654 1.394 1_455 S
C1655 C1656 1.516 . S
C1656 C1655 1.516 . S
C1656 C1657 1.502 . S
C1656 C1658 1.561 . S
C1656 C1659 1.526 . S
C1657 H1641 0.959 . S
C1657 H1642 0.959 . S
C1657 H1643 0.961 . S
C1657 C1656 1.502 . S
C1658 H1644 0.960 . S
C1658 H1645 0.961 . S
C1658 H1646 0.959 . S
C1658 C1656 1.561 . S
C1659 C1656 1.526 . S
C1659 C1660 1.396 1_455 S
C1659 C1664 1.390 . S
C1660 C1654 1.465 . S
C1660 C1659 1.396 1_655 S
C1660 C1661 1.399 . S
C1661 H1647 0.929 . S
C1661 C1660 1.399 . S
C1661 C1662 1.385 . S
C1662 H1648 0.931 . S
C1662 C1661 1.385 . S
C1662 C1663 1.389 1_655 S
C1663 C1662 1.389 1_455 S
C1663 C1664 1.387 . S
C1664 H1649 0.930 . S
C1664 C1659 1.390 . S
C1664 C1663 1.387 . S
H1665 C1677 0.930 . S
H1666 C1679 0.930 . S
H1667 C1680 0.930 . S
H1668 C1684 0.959 . S
H1669 C1684 0.959 . S
H1670 C1684 0.961 . S
H1671 C1685 0.960 . S
H1672 C1685 0.961 . S
H1673 C1685 0.959 . S
H1674 C1688 0.929 . S
H1675 C1689 0.931 . S
H1676 C1691 0.930 . S
C1677 H1665 0.930 . S
C1677 C1678 1.399 . S
C1677 C1682 1.399 . S
C1678 C1677 1.399 . S
C1678 C1679 1.376 . S
C1679 H1666 0.930 . S
C1679 C1678 1.376 . S
C1679 C1680 1.388 . S
C1680 H1667 0.930 . S
C1680 C1679 1.388 . S
C1680 C1681 1.390 . S
C1681 C1680 1.390 . S
C1681 C1682 1.394 . S
C1681 C1687 1.465 . S
C1682 C1677 1.399 . S
C1682 C1681 1.394 . S
C1682 C1683 1.516 . S
C1683 C1682 1.516 . S
C1683 C1684 1.502 . S
C1683 C1685 1.561 . S
C1683 C1686 1.526 . S
C1684 H1668 0.959 . S
C1684 H1669 0.959 . S
C1684 H1670 0.961 . S
C1684 C1683 1.502 . S
C1685 H1671 0.960 . S
C1685 H1672 0.961 . S
C1685 H1673 0.959 . S
C1685 C1683 1.561 . S
C1686 C1683 1.526 . S
C1686 C1687 1.396 . S
C1686 C1691 1.390 . S
C1687 C1681 1.465 . S
C1687 C1686 1.396 . S
C1687 C1688 1.399 . S
C1688 H1674 0.929 . S
C1688 C1687 1.399 . S
C1688 C1689 1.385 . S
C1689 H1675 0.931 . S
C1689 C1688 1.385 . S
C1689 C1690 1.389 . S
C1690 C1689 1.389 . S
C1690 C1691 1.387 . S
C1691 H1676 0.930 . S
C1691 C1686 1.390 . S
C1691 C1690 1.387 . S
H1692 C1704 0.930 . S
H1693 C1706 0.930 . S
H1694 C1707 0.930 . S
H1695 C1711 0.959 . S
H1696 C1711 0.959 . S
H1697 C1711 0.961 . S
H1698 C1712 0.960 . S
H1699 C1712 0.961 . S
H1700 C1712 0.959 . S
H1701 C1715 0.929 . S
H1702 C1716 0.931 . S
H1703 C1718 0.930 . S
C1704 H1692 0.930 . S
C1704 C1705 1.399 . S
C1704 C1709 1.399 . S
C1705 C1704 1.399 . S
C1705 C1706 1.376 . S
C1706 H1693 0.930 . S
C1706 C1705 1.376 . S
C1706 C1707 1.388 . S
C1707 H1694 0.930 . S
C1707 C1706 1.388 . S
C1707 C1708 1.390 . S
C1708 C1707 1.390 . S
C1708 C1709 1.394 . S
C1708 C1714 1.465 . S
C1709 C1704 1.399 . S
C1709 C1708 1.394 . S
C1709 C1710 1.516 . S
C1710 C1709 1.516 . S
C1710 C1711 1.502 . S
C1710 C1712 1.561 . S
C1710 C1713 1.526 . S
C1711 H1695 0.959 . S
C1711 H1696 0.959 . S
C1711 H1697 0.961 . S
C1711 C1710 1.502 . S
C1712 H1698 0.960 . S
C1712 H1699 0.961 . S
C1712 H1700 0.959 . S
C1712 C1710 1.561 . S
C1713 C1710 1.526 . S
C1713 C1714 1.396 . S
C1713 C1718 1.390 . S
C1714 C1708 1.465 . S
C1714 C1713 1.396 . S
C1714 C1715 1.399 . S
C1715 H1701 0.929 . S
C1715 C1714 1.399 . S
C1715 C1716 1.385 . S
C1716 H1702 0.931 . S
C1716 C1715 1.385 . S
C1716 C1717 1.389 . S
C1717 C1716 1.389 . S
C1717 C1718 1.387 . S
C1718 H1703 0.930 . S
C1718 C1713 1.390 . S
C1718 C1717 1.387 . S
H1719 C1731 0.930 . S
H1720 C1733 0.930 . S
H1721 C1734 0.930 . S
H1722 C1738 0.959 . S
H1723 C1738 0.959 . S
H1724 C1738 0.961 . S
H1725 C1739 0.960 . S
H1726 C1739 0.961 . S
H1727 C1739 0.959 . S
H1728 C1742 0.929 . S
H1729 C1743 0.931 . S
H1730 C1745 0.930 . S
C1731 H1719 0.930 . S
C1731 C1732 1.399 . S
C1731 C1736 1.399 . S
C1732 C1731 1.399 . S
C1732 C1733 1.376 . S
C1733 H1720 0.930 . S
C1733 C1732 1.376 . S
C1733 C1734 1.388 . S
C1734 H1721 0.930 . S
C1734 C1733 1.388 . S
C1734 C1735 1.390 . S
C1735 C1734 1.390 . S
C1735 C1736 1.394 . S
C1735 C1741 1.465 . S
C1736 C1731 1.399 . S
C1736 C1735 1.394 . S
C1736 C1737 1.516 . S
C1737 C1736 1.516 . S
C1737 C1738 1.502 . S
C1737 C1739 1.561 . S
C1737 C1740 1.526 . S
C1738 H1722 0.959 . S
C1738 H1723 0.959 . S
C1738 H1724 0.961 . S
C1738 C1737 1.502 . S
C1739 H1725 0.960 . S
C1739 H1726 0.961 . S
C1739 H1727 0.959 . S
C1739 C1737 1.561 . S
C1740 C1737 1.526 . S
C1740 C1741 1.396 . S
C1740 C1745 1.390 . S
C1741 C1735 1.465 . S
C1741 C1740 1.396 . S
C1741 C1742 1.399 . S
C1742 H1728 0.929 . S
C1742 C1741 1.399 . S
C1742 C1743 1.385 . S
C1743 H1729 0.931 . S
C1743 C1742 1.385 . S
C1743 C1744 1.389 . S
C1744 C1743 1.389 . S
C1744 C1745 1.387 . S
C1745 H1730 0.930 . S
C1745 C1740 1.390 . S
C1745 C1744 1.387 . S
H1746 C1758 0.930 . S
H1747 C1760 0.930 . S
H1748 C1761 0.930 . S
H1749 C1765 0.959 . S
H1750 C1765 0.959 . S
H1751 C1765 0.961 . S
H1752 C1766 0.960 . S
H1753 C1766 0.961 . S
H1754 C1766 0.959 . S
H1755 C1769 0.929 . S
H1756 C1770 0.931 . S
H1757 C1772 0.930 . S
C1758 H1746 0.930 . S
C1758 C1759 1.399 . S
C1758 C1763 1.399 . S
C1759 C1758 1.399 . S
C1759 C1760 1.376 . S
C1760 H1747 0.930 . S
C1760 C1759 1.376 . S
C1760 C1761 1.388 . S
C1761 H1748 0.930 . S
C1761 C1760 1.388 . S
C1761 C1762 1.390 . S
C1762 C1761 1.390 . S
C1762 C1763 1.394 . S
C1762 C1768 1.465 . S
C1763 C1758 1.399 . S
C1763 C1762 1.394 . S
C1763 C1764 1.516 . S
C1764 C1763 1.516 . S
C1764 C1765 1.502 . S
C1764 C1766 1.561 . S
C1764 C1767 1.526 . S
C1765 H1749 0.959 . S
C1765 H1750 0.959 . S
C1765 H1751 0.961 . S
C1765 C1764 1.502 . S
C1766 H1752 0.960 . S
C1766 H1753 0.961 . S
C1766 H1754 0.959 . S
C1766 C1764 1.561 . S
C1767 C1764 1.526 . S
C1767 C1768 1.396 . S
C1767 C1772 1.390 . S
C1768 C1762 1.465 . S
C1768 C1767 1.396 . S
C1768 C1769 1.399 . S
C1769 H1755 0.929 . S
C1769 C1768 1.399 . S
C1769 C1770 1.385 . S
C1770 H1756 0.931 . S
C1770 C1769 1.385 . S
C1770 C1771 1.389 . S
C1771 C1770 1.389 . S
C1771 C1772 1.387 . S
C1772 H1757 0.930 . S
C1772 C1767 1.390 . S
C1772 C1771 1.387 . S
H1773 C1785 0.930 . S
H1774 C1787 0.930 . S
H1775 C1788 0.930 . S
H1776 C1792 0.959 . S
H1777 C1792 0.959 . S
H1778 C1792 0.961 . S
H1779 C1793 0.960 . S
H1780 C1793 0.961 . S
H1781 C1793 0.959 . S
H1782 C1796 0.929 . S
H1783 C1797 0.931 . S
H1784 C1799 0.930 . S
C1785 H1773 0.930 . S
C1785 C1786 1.399 . S
C1785 C1790 1.399 . S
C1786 C1785 1.399 . S
C1786 C1787 1.376 . S
C1787 H1774 0.930 . S
C1787 C1786 1.376 . S
C1787 C1788 1.388 . S
C1788 H1775 0.930 . S
C1788 C1787 1.388 . S
C1788 C1789 1.390 . S
C1789 C1788 1.390 . S
C1789 C1790 1.394 . S
C1789 C1795 1.465 . S
C1790 C1785 1.399 . S
C1790 C1789 1.394 . S
C1790 C1791 1.516 . S
C1791 C1790 1.516 . S
C1791 C1792 1.502 . S
C1791 C1793 1.561 . S
C1791 C1794 1.526 . S
C1792 H1776 0.959 . S
C1792 H1777 0.959 . S
C1792 H1778 0.961 . S
C1792 C1791 1.502 . S
C1793 H1779 0.960 . S
C1793 H1780 0.961 . S
C1793 H1781 0.959 . S
C1793 C1791 1.561 . S
C1794 C1791 1.526 . S
C1794 C1795 1.396 . S
C1794 C1799 1.390 . S
C1795 C1789 1.465 . S
C1795 C1794 1.396 . S
C1795 C1796 1.399 . S
C1796 H1782 0.929 . S
C1796 C1795 1.399 . S
C1796 C1797 1.385 . S
C1797 H1783 0.931 . S
C1797 C1796 1.385 . S
C1797 C1798 1.389 . S
C1798 C1797 1.389 . S
C1798 C1799 1.387 . S
C1799 H1784 0.930 . S
C1799 C1794 1.390 . S
C1799 C1798 1.387 . S
H1800 C1812 0.930 . S
H1801 C1814 0.930 . S
H1802 C1815 0.930 . S
H1803 C1819 0.959 . S
H1804 C1819 0.959 . S
H1805 C1819 0.961 . S
H1806 C1820 0.960 . S
H1807 C1820 0.961 . S
H1808 C1820 0.959 . S
H1809 C1823 0.929 . S
H1810 C1824 0.931 . S
H1811 C1826 0.930 . S
C1812 H1800 0.930 . S
C1812 C1813 1.399 . S
C1812 C1817 1.399 . S
C1813 C1812 1.399 . S
C1813 C1814 1.376 . S
C1814 H1801 0.930 . S
C1814 C1813 1.376 . S
C1814 C1815 1.388 . S
C1815 H1802 0.930 . S
C1815 C1814 1.388 . S
C1815 C1816 1.390 . S
C1816 C1815 1.390 . S
C1816 C1817 1.394 . S
C1816 C1822 1.465 . S
C1817 C1812 1.399 . S
C1817 C1816 1.394 . S
C1817 C1818 1.516 . S
C1818 C1817 1.516 . S
C1818 C1819 1.502 . S
C1818 C1820 1.561 . S
C1818 C1821 1.526 . S
C1819 H1803 0.959 . S
C1819 H1804 0.959 . S
C1819 H1805 0.961 . S
C1819 C1818 1.502 . S
C1820 H1806 0.960 . S
C1820 H1807 0.961 . S
C1820 H1808 0.959 . S
C1820 C1818 1.561 . S
C1821 C1818 1.526 . S
C1821 C1822 1.396 . S
C1821 C1826 1.390 . S
C1822 C1816 1.465 . S
C1822 C1821 1.396 . S
C1822 C1823 1.399 . S
C1823 H1809 0.929 . S
C1823 C1822 1.399 . S
C1823 C1824 1.385 . S
C1824 H1810 0.931 . S
C1824 C1823 1.385 . S
C1824 C1825 1.389 . S
C1825 C1824 1.389 . S
C1825 C1826 1.387 . S
C1826 H1811 0.930 . S
C1826 C1821 1.390 . S
C1826 C1825 1.387 . S
H1827 C1839 0.930 . S
H1828 C1841 0.930 . S
H1829 C1842 0.930 . S
H1830 C1846 0.959 . S
H1831 C1846 0.959 . S
H1832 C1846 0.961 . S
H1833 C1847 0.960 . S
H1834 C1847 0.961 . S
H1835 C1847 0.959 . S
H1836 C1850 0.929 . S
H1837 C1851 0.931 . S
H1838 C1853 0.930 . S
C1839 H1827 0.930 . S
C1839 C1840 1.399 . S
C1839 C1844 1.399 . S
C1840 C1839 1.399 . S
C1840 C1841 1.376 . S
C1841 H1828 0.930 . S
C1841 C1840 1.376 . S
C1841 C1842 1.388 . S
C1842 H1829 0.930 . S
C1842 C1841 1.388 . S
C1842 C1843 1.390 . S
C1843 C1842 1.390 . S
C1843 C1844 1.394 . S
C1843 C1849 1.465 . S
C1844 C1839 1.399 . S
C1844 C1843 1.394 . S
C1844 C1845 1.516 . S
C1845 C1844 1.516 . S
C1845 C1846 1.502 . S
C1845 C1847 1.561 . S
C1845 C1848 1.526 . S
C1846 H1830 0.959 . S
C1846 H1831 0.959 . S
C1846 H1832 0.961 . S
C1846 C1845 1.502 . S
C1847 H1833 0.960 . S
C1847 H1834 0.961 . S
C1847 H1835 0.959 . S
C1847 C1845 1.561 . S
C1848 C1845 1.526 . S
C1848 C1849 1.396 . S
C1848 C1853 1.390 . S
C1849 C1843 1.465 . S
C1849 C1848 1.396 . S
C1849 C1850 1.399 . S
C1850 H1836 0.929 . S
C1850 C1849 1.399 . S
C1850 C1851 1.385 . S
C1851 H1837 0.931 . S
C1851 C1850 1.385 . S
C1851 C1852 1.389 . S
C1852 C1851 1.389 . S
C1852 C1853 1.387 . S
C1853 H1838 0.930 . S
C1853 C1848 1.390 . S
C1853 C1852 1.387 . S
H1854 C1866 0.930 . S
H1855 C1868 0.930 . S
H1856 C1869 0.930 . S
H1857 C1873 0.959 . S
H1858 C1873 0.959 . S
H1859 C1873 0.961 . S
H1860 C1874 0.960 . S
H1861 C1874 0.961 . S
H1862 C1874 0.959 . S
H1863 C1877 0.929 . S
H1864 C1878 0.931 . S
H1865 C1880 0.930 . S
C1866 H1854 0.930 . S
C1866 C1867 1.399 . S
C1866 C1871 1.399 . S
C1867 C1866 1.399 . S
C1867 C1868 1.376 . S
C1868 H1855 0.930 . S
C1868 C1867 1.376 . S
C1868 C1869 1.388 . S
C1869 H1856 0.930 . S
C1869 C1868 1.388 . S
C1869 C1870 1.390 . S
C1870 C1869 1.390 . S
C1870 C1871 1.394 . S
C1870 C1876 1.465 . S
C1871 C1866 1.399 . S
C1871 C1870 1.394 . S
C1871 C1872 1.516 . S
C1872 C1871 1.516 . S
C1872 C1873 1.502 . S
C1872 C1874 1.561 . S
C1872 C1875 1.526 . S
C1873 H1857 0.959 . S
C1873 H1858 0.959 . S
C1873 H1859 0.961 . S
C1873 C1872 1.502 . S
C1874 H1860 0.960 . S
C1874 H1861 0.961 . S
C1874 H1862 0.959 . S
C1874 C1872 1.561 . S
C1875 C1872 1.526 . S
C1875 C1876 1.396 . S
C1875 C1880 1.390 . S
C1876 C1870 1.465 . S
C1876 C1875 1.396 . S
C1876 C1877 1.399 . S
C1877 H1863 0.929 . S
C1877 C1876 1.399 . S
C1877 C1878 1.385 . S
C1878 H1864 0.931 . S
C1878 C1877 1.385 . S
C1878 C1879 1.389 . S
C1879 C1878 1.389 . S
C1879 C1880 1.387 . S
C1880 H1865 0.930 . S
C1880 C1875 1.390 . S
C1880 C1879 1.387 . S
H1881 C1893 0.930 . S
H1882 C1895 0.930 . S
H1883 C1896 0.930 . S
H1884 C1900 0.959 . S
H1885 C1900 0.959 . S
H1886 C1900 0.961 . S
H1887 C1901 0.960 . S
H1888 C1901 0.961 . S
H1889 C1901 0.959 . S
H1890 C1904 0.929 . S
H1891 C1905 0.931 . S
H1892 C1907 0.930 . S
C1893 H1881 0.930 . S
C1893 C1894 1.399 . S
C1893 C1898 1.399 . S
C1894 C1893 1.399 . S
C1894 C1895 1.376 . S
C1895 H1882 0.930 . S
C1895 C1894 1.376 . S
C1895 C1896 1.388 . S
C1896 H1883 0.930 . S
C1896 C1895 1.388 . S
C1896 C1897 1.390 . S
C1897 C1896 1.390 . S
C1897 C1898 1.394 . S
C1897 C1903 1.465 . S
C1898 C1893 1.399 . S
C1898 C1897 1.394 . S
C1898 C1899 1.516 . S
C1899 C1898 1.516 . S
C1899 C1900 1.502 . S
C1899 C1901 1.561 . S
C1899 C1902 1.526 . S
C1900 H1884 0.959 . S
C1900 H1885 0.959 . S
C1900 H1886 0.961 . S
C1900 C1899 1.502 . S
C1901 H1887 0.960 . S
C1901 H1888 0.961 . S
C1901 H1889 0.959 . S
C1901 C1899 1.561 . S
C1902 C1899 1.526 . S
C1902 C1903 1.396 . S
C1902 C1907 1.390 . S
C1903 C1897 1.465 . S
C1903 C1902 1.396 . S
C1903 C1904 1.399 . S
C1904 H1890 0.929 . S
C1904 C1903 1.399 . S
C1904 C1905 1.385 . S
C1905 H1891 0.931 . S
C1905 C1904 1.385 . S
C1905 C1906 1.389 . S
C1906 C1905 1.389 . S
C1906 C1907 1.387 . S
C1907 H1892 0.930 . S
C1907 C1902 1.390 . S
C1907 C1906 1.387 . S
H1908 C1920 0.930 . S
H1909 C1922 0.930 . S
H1910 C1923 0.930 . S
H1911 C1927 0.959 . S
H1912 C1927 0.959 . S
H1913 C1927 0.961 . S
H1914 C1928 0.960 . S
H1915 C1928 0.961 . S
H1916 C1928 0.959 . S
H1917 C1931 0.929 . S
H1918 C1932 0.931 . S
H1919 C1934 0.930 . S
C1920 H1908 0.930 . S
C1920 C1921 1.399 . S
C1920 C1925 1.399 . S
C1921 C1920 1.399 . S
C1921 C1922 1.376 . S
C1922 H1909 0.930 . S
C1922 C1921 1.376 . S
C1922 C1923 1.388 . S
C1923 H1910 0.930 . S
C1923 C1922 1.388 . S
C1923 C1924 1.390 . S
C1924 C1923 1.390 . S
C1924 C1925 1.394 . S
C1924 C1930 1.465 . S
C1925 C1920 1.399 . S
C1925 C1924 1.394 . S
C1925 C1926 1.516 . S
C1926 C1925 1.516 . S
C1926 C1927 1.502 . S
C1926 C1928 1.561 . S
C1926 C1929 1.526 . S
C1927 H1911 0.959 . S
C1927 H1912 0.959 . S
C1927 H1913 0.961 . S
C1927 C1926 1.502 . S
C1928 H1914 0.960 . S
C1928 H1915 0.961 . S
C1928 H1916 0.959 . S
C1928 C1926 1.561 . S
C1929 C1926 1.526 . S
C1929 C1930 1.396 . S
C1929 C1934 1.390 . S
C1930 C1924 1.465 . S
C1930 C1929 1.396 . S
C1930 C1931 1.399 . S
C1931 H1917 0.929 . S
C1931 C1930 1.399 . S
C1931 C1932 1.385 . S
C1932 H1918 0.931 . S
C1932 C1931 1.385 . S
C1932 C1933 1.389 . S
C1933 C1932 1.389 . S
C1933 C1934 1.387 . S
C1934 H1919 0.930 . S
C1934 C1929 1.390 . S
C1934 C1933 1.387 . S
H1935 C1947 0.930 . S
H1936 C1949 0.930 . S
H1937 C1950 0.930 . S
H1938 C1954 0.959 . S
H1939 C1954 0.959 . S
H1940 C1954 0.961 . S
H1941 C1955 0.960 . S
H1942 C1955 0.961 . S
H1943 C1955 0.959 . S
H1944 C1958 0.929 . S
H1945 C1959 0.931 . S
H1946 C1961 0.930 . S
C1947 H1935 0.930 . S
C1947 C1948 1.399 . S
C1947 C1952 1.399 . S
C1948 C1947 1.399 . S
C1948 C1949 1.376 . S
C1949 H1936 0.930 . S
C1949 C1948 1.376 . S
C1949 C1950 1.388 . S
C1950 H1937 0.930 . S
C1950 C1949 1.388 . S
C1950 C1951 1.390 . S
C1951 C1950 1.390 . S
C1951 C1952 1.394 . S
C1951 C1957 1.465 . S
C1952 C1947 1.399 . S
C1952 C1951 1.394 . S
C1952 C1953 1.516 . S
C1953 C1952 1.516 . S
C1953 C1954 1.502 . S
C1953 C1955 1.561 . S
C1953 C1956 1.526 . S
C1954 H1938 0.959 . S
C1954 H1939 0.959 . S
C1954 H1940 0.961 . S
C1954 C1953 1.502 . S
C1955 H1941 0.960 . S
C1955 H1942 0.961 . S
C1955 H1943 0.959 . S
C1955 C1953 1.561 . S
C1956 C1953 1.526 . S
C1956 C1957 1.396 . S
C1956 C1961 1.390 . S
C1957 C1951 1.465 . S
C1957 C1956 1.396 . S
C1957 C1958 1.399 . S
C1958 H1944 0.929 . S
C1958 C1957 1.399 . S
C1958 C1959 1.385 . S
C1959 H1945 0.931 . S
C1959 C1958 1.385 . S
C1959 C1960 1.389 . S
C1960 C1959 1.389 . S
C1960 C1961 1.387 . S
C1961 H1946 0.930 . S
C1961 C1956 1.390 . S
C1961 C1960 1.387 . S
H1962 C1974 0.930 . S
H1963 C1976 0.930 . S
H1964 C1977 0.930 . S
H1965 C1981 0.959 . S
H1966 C1981 0.959 . S
H1967 C1981 0.961 . S
H1968 C1982 0.960 . S
H1969 C1982 0.961 . S
H1970 C1982 0.959 . S
H1971 C1985 0.929 . S
H1972 C1986 0.931 . S
H1973 C1988 0.930 . S
C1974 H1962 0.930 . S
C1974 C1975 1.399 . S
C1974 C1979 1.399 . S
C1975 C1974 1.399 . S
C1975 C1976 1.376 . S
C1976 H1963 0.930 . S
C1976 C1975 1.376 . S
C1976 C1977 1.388 . S
C1977 H1964 0.930 . S
C1977 C1976 1.388 . S
C1977 C1978 1.390 . S
C1978 C1977 1.390 . S
C1978 C1979 1.394 . S
C1978 C1984 1.465 . S
C1979 C1974 1.399 . S
C1979 C1978 1.394 . S
C1979 C1980 1.516 . S
C1980 C1979 1.516 . S
C1980 C1981 1.502 . S
C1980 C1982 1.561 . S
C1980 C1983 1.526 . S
C1981 H1965 0.959 . S
C1981 H1966 0.959 . S
C1981 H1967 0.961 . S
C1981 C1980 1.502 . S
C1982 H1968 0.960 . S
C1982 H1969 0.961 . S
C1982 H1970 0.959 . S
C1982 C1980 1.561 . S
C1983 C1980 1.526 . S
C1983 C1984 1.396 . S
C1983 C1988 1.390 . S
C1984 C1978 1.465 . S
C1984 C1983 1.396 . S
C1984 C1985 1.399 . S
C1985 H1971 0.929 . S
C1985 C1984 1.399 . S
C1985 C1986 1.385 . S
C1986 H1972 0.931 . S
C1986 C1985 1.385 . S
C1986 C1987 1.389 . S
C1987 C1986 1.389 . S
C1987 C1988 1.387 . S
C1988 H1973 0.930 . S
C1988 C1983 1.390 . S
C1988 C1987 1.387 . S
H1989 C2001 0.930 . S
H1990 C2003 0.930 . S
H1991 C2004 0.930 . S
H1992 C2008 0.959 . S
H1993 C2008 0.959 . S
H1994 C2008 0.961 . S
H1995 C2009 0.960 . S
H1996 C2009 0.961 . S
H1997 C2009 0.959 . S
H1998 C2012 0.929 . S
H1999 C2013 0.931 . S
H2000 C2015 0.930 . S
C2001 H1989 0.930 . S
C2001 C2002 1.399 . S
C2001 C2006 1.399 . S
C2002 C2001 1.399 . S
C2002 C2003 1.376 . S
C2003 H1990 0.930 . S
C2003 C2002 1.376 . S
C2003 C2004 1.388 . S
C2004 H1991 0.930 . S
C2004 C2003 1.388 . S
C2004 C2005 1.390 . S
C2005 C2004 1.390 . S
C2005 C2006 1.394 . S
C2005 C2011 1.465 . S
C2006 C2001 1.399 . S
C2006 C2005 1.394 . S
C2006 C2007 1.516 . S
C2007 C2006 1.516 . S
C2007 C2008 1.502 . S
C2007 C2009 1.561 . S
C2007 C2010 1.526 . S
C2008 H1992 0.959 . S
C2008 H1993 0.959 . S
C2008 H1994 0.961 . S
C2008 C2007 1.502 . S
C2009 H1995 0.960 . S
C2009 H1996 0.961 . S
C2009 H1997 0.959 . S
C2009 C2007 1.561 . S
C2010 C2007 1.526 . S
C2010 C2011 1.396 . S
C2010 C2015 1.390 . S
C2011 C2005 1.465 . S
C2011 C2010 1.396 . S
C2011 C2012 1.399 . S
C2012 H1998 0.929 . S
C2012 C2011 1.399 . S
C2012 C2013 1.385 . S
C2013 H1999 0.931 . S
C2013 C2012 1.385 . S
C2013 C2014 1.389 . S
C2014 C2013 1.389 . S
C2014 C2015 1.387 . S
C2015 H2000 0.930 . S
C2015 C2010 1.390 . S
C2015 C2014 1.387 . S
H2016 C2028 0.930 . S
H2017 C2030 0.930 . S
H2018 C2031 0.930 . S
H2019 C2035 0.959 . S
H2020 C2035 0.959 . S
H2021 C2035 0.961 . S
H2022 C2036 0.960 . S
H2023 C2036 0.961 . S
H2024 C2036 0.959 . S
H2025 C2039 0.929 . S
H2026 C2040 0.931 . S
H2027 C2042 0.930 . S
C2028 H2016 0.930 . S
C2028 C2029 1.399 . S
C2028 C2033 1.399 . S
C2029 C2028 1.399 . S
C2029 C2030 1.376 . S
C2030 H2017 0.930 . S
C2030 C2029 1.376 . S
C2030 C2031 1.388 . S
C2031 H2018 0.930 . S
C2031 C2030 1.388 . S
C2031 C2032 1.390 . S
C2032 C2031 1.390 . S
C2032 C2033 1.394 . S
C2032 C2038 1.465 . S
C2033 C2028 1.399 . S
C2033 C2032 1.394 . S
C2033 C2034 1.516 . S
C2034 C2033 1.516 . S
C2034 C2035 1.502 . S
C2034 C2036 1.561 . S
C2034 C2037 1.526 . S
C2035 H2019 0.959 . S
C2035 H2020 0.959 . S
C2035 H2021 0.961 . S
C2035 C2034 1.502 . S
C2036 H2022 0.960 . S
C2036 H2023 0.961 . S
C2036 H2024 0.959 . S
C2036 C2034 1.561 . S
C2037 C2034 1.526 . S
C2037 C2038 1.396 . S
C2037 C2042 1.390 . S
C2038 C2032 1.465 . S
C2038 C2037 1.396 . S
C2038 C2039 1.399 . S
C2039 H2025 0.929 . S
C2039 C2038 1.399 . S
C2039 C2040 1.385 . S
C2040 H2026 0.931 . S
C2040 C2039 1.385 . S
C2040 C2041 1.389 . S
C2041 C2040 1.389 . S
C2041 C2042 1.387 . S
C2042 H2027 0.930 . S
C2042 C2037 1.390 . S
C2042 C2041 1.387 . S
H2043 C2055 0.930 . S
H2044 C2057 0.930 . S
H2045 C2058 0.930 . S
H2046 C2062 0.959 . S
H2047 C2062 0.959 . S
H2048 C2062 0.961 . S
H2049 C2063 0.960 . S
H2050 C2063 0.961 . S
H2051 C2063 0.959 . S
H2052 C2066 0.929 . S
H2053 C2067 0.931 . S
H2054 C2069 0.930 . S
C2055 H2043 0.930 . S
C2055 C2056 1.399 . S
C2055 C2060 1.399 . S
C2056 C2055 1.399 . S
C2056 C2057 1.376 . S
C2057 H2044 0.930 . S
C2057 C2056 1.376 . S
C2057 C2058 1.388 . S
C2058 H2045 0.930 . S
C2058 C2057 1.388 . S
C2058 C2059 1.390 . S
C2059 C2058 1.390 . S
C2059 C2060 1.394 . S
C2059 C2065 1.465 . S
C2060 C2055 1.399 . S
C2060 C2059 1.394 . S
C2060 C2061 1.516 . S
C2061 C2060 1.516 . S
C2061 C2062 1.502 . S
C2061 C2063 1.561 . S
C2061 C2064 1.526 . S
C2062 H2046 0.959 . S
C2062 H2047 0.959 . S
C2062 H2048 0.961 . S
C2062 C2061 1.502 . S
C2063 H2049 0.960 . S
C2063 H2050 0.961 . S
C2063 H2051 0.959 . S
C2063 C2061 1.561 . S
C2064 C2061 1.526 . S
C2064 C2065 1.396 . S
C2064 C2069 1.390 . S
C2065 C2059 1.465 . S
C2065 C2064 1.396 . S
C2065 C2066 1.399 . S
C2066 H2052 0.929 . S
C2066 C2065 1.399 . S
C2066 C2067 1.385 . S
C2067 H2053 0.931 . S
C2067 C2066 1.385 . S
C2067 C2068 1.389 . S
C2068 C2067 1.389 . S
C2068 C2069 1.387 . S
C2069 H2054 0.930 . S
C2069 C2064 1.390 . S
C2069 C2068 1.387 . S
H2070 C2082 0.930 . S
H2071 C2084 0.930 . S
H2072 C2085 0.930 . S
H2073 C2089 0.959 . S
H2074 C2089 0.959 . S
H2075 C2089 0.961 . S
H2076 C2090 0.960 . S
H2077 C2090 0.961 . S
H2078 C2090 0.959 . S
H2079 C2093 0.929 . S
H2080 C2094 0.931 . S
H2081 C2096 0.930 . S
C2082 H2070 0.930 . S
C2082 C2083 1.399 . S
C2082 C2087 1.399 . S
C2083 C2082 1.399 . S
C2083 C2084 1.376 . S
C2084 H2071 0.930 . S
C2084 C2083 1.376 . S
C2084 C2085 1.388 . S
C2085 H2072 0.930 . S
C2085 C2084 1.388 . S
C2085 C2086 1.390 . S
C2086 C2085 1.390 . S
C2086 C2087 1.394 . S
C2086 C2092 1.465 . S
C2087 C2082 1.399 . S
C2087 C2086 1.394 . S
C2087 C2088 1.516 . S
C2088 C2087 1.516 . S
C2088 C2089 1.502 . S
C2088 C2090 1.561 . S
C2088 C2091 1.526 . S
C2089 H2073 0.959 . S
C2089 H2074 0.959 . S
C2089 H2075 0.961 . S
C2089 C2088 1.502 . S
C2090 H2076 0.960 . S
C2090 H2077 0.961 . S
C2090 H2078 0.959 . S
C2090 C2088 1.561 . S
C2091 C2088 1.526 . S
C2091 C2092 1.396 . S
C2091 C2096 1.390 . S
C2092 C2086 1.465 . S
C2092 C2091 1.396 . S
C2092 C2093 1.399 . S
C2093 H2079 0.929 . S
C2093 C2092 1.399 . S
C2093 C2094 1.385 . S
C2094 H2080 0.931 . S
C2094 C2093 1.385 . S
C2094 C2095 1.389 . S
C2095 C2094 1.389 . S
C2095 C2096 1.387 . S
C2096 H2081 0.930 . S
C2096 C2091 1.390 . S
C2096 C2095 1.387 . S
H2097 C2109 0.930 . S
H2098 C2111 0.930 . S
H2099 C2112 0.930 . S
H2100 C2116 0.959 . S
H2101 C2116 0.959 . S
H2102 C2116 0.961 . S
H2103 C2117 0.960 . S
H2104 C2117 0.961 . S
H2105 C2117 0.959 . S
H2106 C2120 0.929 . S
H2107 C2121 0.931 . S
H2108 C2123 0.930 . S
C2109 H2097 0.930 . S
C2109 C2110 1.399 . S
C2109 C2114 1.399 . S
C2110 C2109 1.399 . S
C2110 C2111 1.376 . S
C2111 H2098 0.930 . S
C2111 C2110 1.376 . S
C2111 C2112 1.388 . S
C2112 H2099 0.930 . S
C2112 C2111 1.388 . S
C2112 C2113 1.390 . S
C2113 C2112 1.390 . S
C2113 C2114 1.394 . S
C2113 C2119 1.465 . S
C2114 C2109 1.399 . S
C2114 C2113 1.394 . S
C2114 C2115 1.516 . S
C2115 C2114 1.516 . S
C2115 C2116 1.502 . S
C2115 C2117 1.561 . S
C2115 C2118 1.526 . S
C2116 H2100 0.959 . S
C2116 H2101 0.959 . S
C2116 H2102 0.961 . S
C2116 C2115 1.502 . S
C2117 H2103 0.960 . S
C2117 H2104 0.961 . S
C2117 H2105 0.959 . S
C2117 C2115 1.561 . S
C2118 C2115 1.526 . S
C2118 C2119 1.396 . S
C2118 C2123 1.390 . S
C2119 C2113 1.465 . S
C2119 C2118 1.396 . S
C2119 C2120 1.399 . S
C2120 H2106 0.929 . S
C2120 C2119 1.399 . S
C2120 C2121 1.385 . S
C2121 H2107 0.931 . S
C2121 C2120 1.385 . S
C2121 C2122 1.389 . S
C2122 C2121 1.389 . S
C2122 C2123 1.387 . S
C2123 H2108 0.930 . S
C2123 C2118 1.390 . S
C2123 C2122 1.387 . S
H2124 C2136 0.930 . S
H2125 C2138 0.930 . S
H2126 C2139 0.930 . S
H2127 C2143 0.959 . S
H2128 C2143 0.959 . S
H2129 C2143 0.961 . S
H2130 C2144 0.960 . S
H2131 C2144 0.961 . S
H2132 C2144 0.959 . S
H2133 C2147 0.929 . S
H2134 C2148 0.931 . S
H2135 C2150 0.930 . S
C2136 H2124 0.930 . S
C2136 C2137 1.399 . S
C2136 C2141 1.399 . S
C2137 C2136 1.399 . S
C2137 C2138 1.376 . S
C2138 H2125 0.930 . S
C2138 C2137 1.376 . S
C2138 C2139 1.388 . S
C2139 H2126 0.930 . S
C2139 C2138 1.388 . S
C2139 C2140 1.390 . S
C2140 C2139 1.390 . S
C2140 C2141 1.394 . S
C2140 C2146 1.465 . S
C2141 C2136 1.399 . S
C2141 C2140 1.394 . S
C2141 C2142 1.516 . S
C2142 C2141 1.516 . S
C2142 C2143 1.502 . S
C2142 C2144 1.561 . S
C2142 C2145 1.526 . S
C2143 H2127 0.959 . S
C2143 H2128 0.959 . S
C2143 H2129 0.961 . S
C2143 C2142 1.502 . S
C2144 H2130 0.960 . S
C2144 H2131 0.961 . S
C2144 H2132 0.959 . S
C2144 C2142 1.561 . S
C2145 C2142 1.526 . S
C2145 C2146 1.396 . S
C2145 C2150 1.390 . S
C2146 C2140 1.465 . S
C2146 C2145 1.396 . S
C2146 C2147 1.399 . S
C2147 H2133 0.929 . S
C2147 C2146 1.399 . S
C2147 C2148 1.385 . S
C2148 H2134 0.931 . S
C2148 C2147 1.385 . S
C2148 C2149 1.389 . S
C2149 C2148 1.389 . S
C2149 C2150 1.387 . S
C2150 H2135 0.930 . S
C2150 C2145 1.390 . S
C2150 C2149 1.387 . S
H2151 C2163 0.930 . S
H2152 C2165 0.930 . S
H2153 C2166 0.930 . S
H2154 C2170 0.959 . S
H2155 C2170 0.959 . S
H2156 C2170 0.961 . S
H2157 C2171 0.960 . S
H2158 C2171 0.961 . S
H2159 C2171 0.959 . S
H2160 C2174 0.929 . S
H2161 C2175 0.931 . S
H2162 C2177 0.930 . S
C2163 H2151 0.930 . S
C2163 C2164 1.399 . S
C2163 C2168 1.399 . S
C2164 C2163 1.399 . S
C2164 C2165 1.376 . S
C2165 H2152 0.930 . S
C2165 C2164 1.376 . S
C2165 C2166 1.388 . S
C2166 H2153 0.930 . S
C2166 C2165 1.388 . S
C2166 C2167 1.390 . S
C2167 C2166 1.390 . S
C2167 C2168 1.394 . S
C2167 C2173 1.465 . S
C2168 C2163 1.399 . S
C2168 C2167 1.394 . S
C2168 C2169 1.516 . S
C2169 C2168 1.516 . S
C2169 C2170 1.502 . S
C2169 C2171 1.561 . S
C2169 C2172 1.526 . S
C2170 H2154 0.959 . S
C2170 H2155 0.959 . S
C2170 H2156 0.961 . S
C2170 C2169 1.502 . S
C2171 H2157 0.960 . S
C2171 H2158 0.961 . S
C2171 H2159 0.959 . S
C2171 C2169 1.561 . S
C2172 C2169 1.526 . S
C2172 C2173 1.396 . S
C2172 C2177 1.390 . S
C2173 C2167 1.465 . S
C2173 C2172 1.396 . S
C2173 C2174 1.399 . S
C2174 H2160 0.929 . S
C2174 C2173 1.399 . S
C2174 C2175 1.385 . S
C2175 H2161 0.931 . S
C2175 C2174 1.385 . S
C2175 C2176 1.389 . S
C2176 C2175 1.389 . S
C2176 C2177 1.387 . S
C2177 H2162 0.930 . S
C2177 C2172 1.390 . S
C2177 C2176 1.387 . S
H2178 C2190 0.930 . S
H2179 C2192 0.930 . S
H2180 C2193 0.930 . S
H2181 C2197 0.959 . S
H2182 C2197 0.959 . S
H2183 C2197 0.961 . S
H2184 C2198 0.960 . S
H2185 C2198 0.961 . S
H2186 C2198 0.959 . S
H2187 C2201 0.929 . S
H2188 C2202 0.931 . S
H2189 C2204 0.930 . S
C2190 H2178 0.930 . S
C2190 C2191 1.399 . S
C2190 C2195 1.399 . S
C2191 C2190 1.399 . S
C2191 C2192 1.376 . S
C2192 H2179 0.930 . S
C2192 C2191 1.376 . S
C2192 C2193 1.388 . S
C2193 H2180 0.930 . S
C2193 C2192 1.388 . S
C2193 C2194 1.390 . S
C2194 C2193 1.390 . S
C2194 C2195 1.394 . S
C2194 C2200 1.465 . S
C2195 C2190 1.399 . S
C2195 C2194 1.394 . S
C2195 C2196 1.516 . S
C2196 C2195 1.516 . S
C2196 C2197 1.502 . S
C2196 C2198 1.561 . S
C2196 C2199 1.526 . S
C2197 H2181 0.959 . S
C2197 H2182 0.959 . S
C2197 H2183 0.961 . S
C2197 C2196 1.502 . S
C2198 H2184 0.960 . S
C2198 H2185 0.961 . S
C2198 H2186 0.959 . S
C2198 C2196 1.561 . S
C2199 C2196 1.526 . S
C2199 C2200 1.396 . S
C2199 C2204 1.390 . S
C2200 C2194 1.465 . S
C2200 C2199 1.396 . S
C2200 C2201 1.399 . S
C2201 H2187 0.929 . S
C2201 C2200 1.399 . S
C2201 C2202 1.385 . S
C2202 H2188 0.931 . S
C2202 C2201 1.385 . S
C2202 C2203 1.389 . S
C2203 C2202 1.389 . S
C2203 C2204 1.387 . S
C2204 H2189 0.930 . S
C2204 C2199 1.390 . S
C2204 C2203 1.387 . S
H2205 C2217 0.930 . S
H2206 C2219 0.930 . S
H2207 C2220 0.930 . S
H2208 C2224 0.959 . S
H2209 C2224 0.959 . S
H2210 C2224 0.961 . S
H2211 C2225 0.960 . S
H2212 C2225 0.961 . S
H2213 C2225 0.959 . S
H2214 C2228 0.929 . S
H2215 C2229 0.931 . S
H2216 C2231 0.930 . S
C2217 H2205 0.930 . S
C2217 C2218 1.399 . S
C2217 C2222 1.399 . S
C2218 C2217 1.399 . S
C2218 C2219 1.376 . S
C2219 H2206 0.930 . S
C2219 C2218 1.376 . S
C2219 C2220 1.388 . S
C2220 H2207 0.930 . S
C2220 C2219 1.388 . S
C2220 C2221 1.390 . S
C2221 C2220 1.390 . S
C2221 C2222 1.394 . S
C2221 C2227 1.465 . S
C2222 C2217 1.399 . S
C2222 C2221 1.394 . S
C2222 C2223 1.516 . S
C2223 C2222 1.516 . S
C2223 C2224 1.502 . S
C2223 C2225 1.561 . S
C2223 C2226 1.526 . S
C2224 H2208 0.959 . S
C2224 H2209 0.959 . S
C2224 H2210 0.961 . S
C2224 C2223 1.502 . S
C2225 H2211 0.960 . S
C2225 H2212 0.961 . S
C2225 H2213 0.959 . S
C2225 C2223 1.561 . S
C2226 C2223 1.526 . S
C2226 C2227 1.396 . S
C2226 C2231 1.390 . S
C2227 C2221 1.465 . S
C2227 C2226 1.396 . S
C2227 C2228 1.399 . S
C2228 H2214 0.929 . S
C2228 C2227 1.399 . S
C2228 C2229 1.385 . S
C2229 H2215 0.931 . S
C2229 C2228 1.385 . S
C2229 C2230 1.389 . S
C2230 C2229 1.389 . S
C2230 C2231 1.387 . S
C2231 H2216 0.930 . S
C2231 C2226 1.390 . S
C2231 C2230 1.387 . S
H2232 C2244 0.930 . S
H2233 C2246 0.930 . S
H2234 C2247 0.930 . S
H2235 C2251 0.959 . S
H2236 C2251 0.959 . S
H2237 C2251 0.961 . S
H2238 C2252 0.960 . S
H2239 C2252 0.961 . S
H2240 C2252 0.959 . S
H2241 C2255 0.929 . S
H2242 C2256 0.931 . S
H2243 C2258 0.930 . S
C2244 H2232 0.930 . S
C2244 C2245 1.399 . S
C2244 C2249 1.399 . S
C2245 C2244 1.399 . S
C2245 C2246 1.376 . S
C2246 H2233 0.930 . S
C2246 C2245 1.376 . S
C2246 C2247 1.388 . S
C2247 H2234 0.930 . S
C2247 C2246 1.388 . S
C2247 C2248 1.390 . S
C2248 C2247 1.390 . S
C2248 C2249 1.394 . S
C2248 C2254 1.465 . S
C2249 C2244 1.399 . S
C2249 C2248 1.394 . S
C2249 C2250 1.516 . S
C2250 C2249 1.516 . S
C2250 C2251 1.502 . S
C2250 C2252 1.561 . S
C2250 C2253 1.526 . S
C2251 H2235 0.959 . S
C2251 H2236 0.959 . S
C2251 H2237 0.961 . S
C2251 C2250 1.502 . S
C2252 H2238 0.960 . S
C2252 H2239 0.961 . S
C2252 H2240 0.959 . S
C2252 C2250 1.561 . S
C2253 C2250 1.526 . S
C2253 C2254 1.396 . S
C2253 C2258 1.390 . S
C2254 C2248 1.465 . S
C2254 C2253 1.396 . S
C2254 C2255 1.399 . S
C2255 H2241 0.929 . S
C2255 C2254 1.399 . S
C2255 C2256 1.385 . S
C2256 H2242 0.931 . S
C2256 C2255 1.385 . S
C2256 C2257 1.389 . S
C2257 C2256 1.389 . S
C2257 C2258 1.387 . S
C2258 H2243 0.930 . S
C2258 C2253 1.390 . S
C2258 C2257 1.387 . S
H2259 C2271 0.930 . S
H2260 C2273 0.930 . S
H2261 C2274 0.930 . S
H2262 C2278 0.959 . S
H2263 C2278 0.959 . S
H2264 C2278 0.961 . S
H2265 C2279 0.960 . S
H2266 C2279 0.961 . S
H2267 C2279 0.959 . S
H2268 C2282 0.929 . S
H2269 C2283 0.931 . S
H2270 C2285 0.930 . S
C2271 H2259 0.930 . S
C2271 C2272 1.399 . S
C2271 C2276 1.399 . S
C2272 C2271 1.399 . S
C2272 C2273 1.376 . S
C2273 H2260 0.930 . S
C2273 C2272 1.376 . S
C2273 C2274 1.388 . S
C2274 H2261 0.930 . S
C2274 C2273 1.388 . S
C2274 C2275 1.390 . S
C2275 C2274 1.390 . S
C2275 C2276 1.394 . S
C2275 C2281 1.465 . S
C2276 C2271 1.399 . S
C2276 C2275 1.394 . S
C2276 C2277 1.516 . S
C2277 C2276 1.516 . S
C2277 C2278 1.502 . S
C2277 C2279 1.561 . S
C2277 C2280 1.526 . S
C2278 H2262 0.959 . S
C2278 H2263 0.959 . S
C2278 H2264 0.961 . S
C2278 C2277 1.502 . S
C2279 H2265 0.960 . S
C2279 H2266 0.961 . S
C2279 H2267 0.959 . S
C2279 C2277 1.561 . S
C2280 C2277 1.526 . S
C2280 C2281 1.396 . S
C2280 C2285 1.390 . S
C2281 C2275 1.465 . S
C2281 C2280 1.396 . S
C2281 C2282 1.399 . S
C2282 H2268 0.929 . S
C2282 C2281 1.399 . S
C2282 C2283 1.385 . S
C2283 H2269 0.931 . S
C2283 C2282 1.385 . S
C2283 C2284 1.389 . S
C2284 C2283 1.389 . S
C2284 C2285 1.387 . S
C2285 H2270 0.930 . S
C2285 C2280 1.390 . S
C2285 C2284 1.387 . S
H2286 C2298 0.930 . S
H2287 C2300 0.930 . S
H2288 C2301 0.930 . S
H2289 C2305 0.959 . S
H2290 C2305 0.959 . S
H2291 C2305 0.961 . S
H2292 C2306 0.960 . S
H2293 C2306 0.961 . S
H2294 C2306 0.959 . S
H2295 C2309 0.929 . S
H2296 C2310 0.931 . S
H2297 C2312 0.930 . S
C2298 H2286 0.930 . S
C2298 C2299 1.399 . S
C2298 C2303 1.399 . S
C2299 C2298 1.399 . S
C2299 C2300 1.376 . S
C2300 H2287 0.930 . S
C2300 C2299 1.376 . S
C2300 C2301 1.388 . S
C2301 H2288 0.930 . S
C2301 C2300 1.388 . S
C2301 C2302 1.390 . S
C2302 C2301 1.390 . S
C2302 C2303 1.394 . S
C2302 C2308 1.465 . S
C2303 C2298 1.399 . S
C2303 C2302 1.394 . S
C2303 C2304 1.516 . S
C2304 C2303 1.516 . S
C2304 C2305 1.502 . S
C2304 C2306 1.561 . S
C2304 C2307 1.526 . S
C2305 H2289 0.959 . S
C2305 H2290 0.959 . S
C2305 H2291 0.961 . S
C2305 C2304 1.502 . S
C2306 H2292 0.960 . S
C2306 H2293 0.961 . S
C2306 H2294 0.959 . S
C2306 C2304 1.561 . S
C2307 C2304 1.526 . S
C2307 C2308 1.396 . S
C2307 C2312 1.390 . S
C2308 C2302 1.465 . S
C2308 C2307 1.396 . S
C2308 C2309 1.399 . S
C2309 H2295 0.929 . S
C2309 C2308 1.399 . S
C2309 C2310 1.385 . S
C2310 H2296 0.931 . S
C2310 C2309 1.385 . S
C2310 C2311 1.389 . S
C2311 C2310 1.389 . S
C2311 C2312 1.387 . S
C2312 H2297 0.930 . S
C2312 C2307 1.390 . S
C2312 C2311 1.387 . S
H2313 C2325 0.930 . S
H2314 C2327 0.930 . S
H2315 C2328 0.930 . S
H2316 C2332 0.959 . S
H2317 C2332 0.959 . S
H2318 C2332 0.961 . S
H2319 C2333 0.960 . S
H2320 C2333 0.961 . S
H2321 C2333 0.959 . S
H2322 C2336 0.929 . S
H2323 C2337 0.931 . S
H2324 C2339 0.930 . S
C2325 H2313 0.930 . S
C2325 C2326 1.399 . S
C2325 C2330 1.399 . S
C2326 C2325 1.399 . S
C2326 C2327 1.376 . S
C2327 H2314 0.930 . S
C2327 C2326 1.376 . S
C2327 C2328 1.388 . S
C2328 H2315 0.930 . S
C2328 C2327 1.388 . S
C2328 C2329 1.390 . S
C2329 C2328 1.390 . S
C2329 C2330 1.394 . S
C2329 C2335 1.465 . S
C2330 C2325 1.399 . S
C2330 C2329 1.394 . S
C2330 C2331 1.516 . S
C2331 C2330 1.516 . S
C2331 C2332 1.502 . S
C2331 C2333 1.561 . S
C2331 C2334 1.526 . S
C2332 H2316 0.959 . S
C2332 H2317 0.959 . S
C2332 H2318 0.961 . S
C2332 C2331 1.502 . S
C2333 H2319 0.960 . S
C2333 H2320 0.961 . S
C2333 H2321 0.959 . S
C2333 C2331 1.561 . S
C2334 C2331 1.526 . S
C2334 C2335 1.396 . S
C2334 C2339 1.390 . S
C2335 C2329 1.465 . S
C2335 C2334 1.396 . S
C2335 C2336 1.399 . S
C2336 H2322 0.929 . S
C2336 C2335 1.399 . S
C2336 C2337 1.385 . S
C2337 H2323 0.931 . S
C2337 C2336 1.385 . S
C2337 C2338 1.389 . S
C2338 C2337 1.389 . S
C2338 C2339 1.387 . S
C2339 H2324 0.930 . S
C2339 C2334 1.390 . S
C2339 C2338 1.387 . S
H2340 C2352 0.930 . S
H2341 C2354 0.930 . S
H2342 C2355 0.930 . S
H2343 C2359 0.959 . S
H2344 C2359 0.959 . S
H2345 C2359 0.961 . S
H2346 C2360 0.960 . S
H2347 C2360 0.961 . S
H2348 C2360 0.959 . S
H2349 C2363 0.929 . S
H2350 C2364 0.931 . S
H2351 C2366 0.930 . S
C2352 H2340 0.930 . S
C2352 C2353 1.399 . S
C2352 C2357 1.399 . S
C2353 C2352 1.399 . S
C2353 C2354 1.376 . S
C2354 H2341 0.930 . S
C2354 C2353 1.376 . S
C2354 C2355 1.388 . S
C2355 H2342 0.930 . S
C2355 C2354 1.388 . S
C2355 C2356 1.390 . S
C2356 C2355 1.390 . S
C2356 C2357 1.394 . S
C2356 C2362 1.465 . S
C2357 C2352 1.399 . S
C2357 C2356 1.394 . S
C2357 C2358 1.516 . S
C2358 C2357 1.516 . S
C2358 C2359 1.502 . S
C2358 C2360 1.561 . S
C2358 C2361 1.526 . S
C2359 H2343 0.959 . S
C2359 H2344 0.959 . S
C2359 H2345 0.961 . S
C2359 C2358 1.502 . S
C2360 H2346 0.960 . S
C2360 H2347 0.961 . S
C2360 H2348 0.959 . S
C2360 C2358 1.561 . S
C2361 C2358 1.526 . S
C2361 C2362 1.396 . S
C2361 C2366 1.390 . S
C2362 C2356 1.465 . S
C2362 C2361 1.396 . S
C2362 C2363 1.399 . S
C2363 H2349 0.929 . S
C2363 C2362 1.399 . S
C2363 C2364 1.385 . S
C2364 H2350 0.931 . S
C2364 C2363 1.385 . S
C2364 C2365 1.389 . S
C2365 C2364 1.389 . S
C2365 C2366 1.387 . S
C2366 H2351 0.930 . S
C2366 C2361 1.390 . S
C2366 C2365 1.387 . S
H2367 C2379 0.930 . S
H2368 C2381 0.930 . S
H2369 C2382 0.930 . S
H2370 C2386 0.959 . S
H2371 C2386 0.959 . S
H2372 C2386 0.961 . S
H2373 C2387 0.960 . S
H2374 C2387 0.961 . S
H2375 C2387 0.959 . S
H2376 C2390 0.929 . S
H2377 C2391 0.931 . S
H2378 C2393 0.930 . S
C2379 H2367 0.930 . S
C2379 C2380 1.399 . S
C2379 C2384 1.399 . S
C2380 C2379 1.399 . S
C2380 C2381 1.376 . S
C2381 H2368 0.930 . S
C2381 C2380 1.376 . S
C2381 C2382 1.388 . S
C2382 H2369 0.930 . S
C2382 C2381 1.388 . S
C2382 C2383 1.390 . S
C2383 C2382 1.390 . S
C2383 C2384 1.394 . S
C2383 C2389 1.465 . S
C2384 C2379 1.399 . S
C2384 C2383 1.394 . S
C2384 C2385 1.516 . S
C2385 C2384 1.516 . S
C2385 C2386 1.502 . S
C2385 C2387 1.561 . S
C2385 C2388 1.526 . S
C2386 H2370 0.959 . S
C2386 H2371 0.959 . S
C2386 H2372 0.961 . S
C2386 C2385 1.502 . S
C2387 H2373 0.960 . S
C2387 H2374 0.961 . S
C2387 H2375 0.959 . S
C2387 C2385 1.561 . S
C2388 C2385 1.526 . S
C2388 C2389 1.396 . S
C2388 C2393 1.390 . S
C2389 C2383 1.465 . S
C2389 C2388 1.396 . S
C2389 C2390 1.399 . S
C2390 H2376 0.929 . S
C2390 C2389 1.399 . S
C2390 C2391 1.385 . S
C2391 H2377 0.931 . S
C2391 C2390 1.385 . S
C2391 C2392 1.389 . S
C2392 C2391 1.389 . S
C2392 C2393 1.387 . S
C2393 H2378 0.930 . S
C2393 C2388 1.390 . S
C2393 C2392 1.387 . S
H2394 C2406 0.930 . S
H2395 C2408 0.930 . S
H2396 C2409 0.930 . S
H2397 C2413 0.959 . S
H2398 C2413 0.959 . S
H2399 C2413 0.961 . S
H2400 C2414 0.960 . S
H2401 C2414 0.961 . S
H2402 C2414 0.959 . S
H2403 C2417 0.929 . S
H2404 C2418 0.931 . S
H2405 C2420 0.930 . S
C2406 H2394 0.930 . S
C2406 C2407 1.399 . S
C2406 C2411 1.399 . S
C2407 C2406 1.399 . S
C2407 C2408 1.376 . S
C2408 H2395 0.930 . S
C2408 C2407 1.376 . S
C2408 C2409 1.388 . S
C2409 H2396 0.930 . S
C2409 C2408 1.388 . S
C2409 C2410 1.390 . S
C2410 C2409 1.390 . S
C2410 C2411 1.394 . S
C2410 C2416 1.465 . S
C2411 C2406 1.399 . S
C2411 C2410 1.394 . S
C2411 C2412 1.516 . S
C2412 C2411 1.516 . S
C2412 C2413 1.502 . S
C2412 C2414 1.561 . S
C2412 C2415 1.526 . S
C2413 H2397 0.959 . S
C2413 H2398 0.959 . S
C2413 H2399 0.961 . S
C2413 C2412 1.502 . S
C2414 H2400 0.960 . S
C2414 H2401 0.961 . S
C2414 H2402 0.959 . S
C2414 C2412 1.561 . S
C2415 C2412 1.526 . S
C2415 C2416 1.396 . S
C2415 C2420 1.390 . S
C2416 C2410 1.465 . S
C2416 C2415 1.396 . S
C2416 C2417 1.399 . S
C2417 H2403 0.929 . S
C2417 C2416 1.399 . S
C2417 C2418 1.385 . S
C2418 H2404 0.931 . S
C2418 C2417 1.385 . S
C2418 C2419 1.389 . S
C2419 C2418 1.389 . S
C2419 C2420 1.387 . S
C2420 H2405 0.930 . S
C2420 C2415 1.390 . S
C2420 C2419 1.387 . S
H2421 C2433 0.930 1_554 S
H2422 C2435 0.930 . S
H2423 C2436 0.930 . S
H2424 C2440 0.959 . S
H2425 C2440 0.959 . S
H2426 C2440 0.961 1_554 S
H2427 C2441 0.960 1_554 S
H2428 C2441 0.961 1_554 S
H2429 C2441 0.959 . S
H2430 C2444 0.929 . S
H2431 C2445 0.931 . S
H2432 C2447 0.930 . S
C2433 H2421 0.930 1_556 S
C2433 C2434 1.399 . S
C2433 C2438 1.399 . S
C2434 C2433 1.399 . S
C2434 C2435 1.376 . S
C2435 H2422 0.930 . S
C2435 C2434 1.376 . S
C2435 C2436 1.388 . S
C2436 H2423 0.930 . S
C2436 C2435 1.388 . S
C2436 C2437 1.390 . S
C2437 C2436 1.390 . S
C2437 C2438 1.394 . S
C2437 C2443 1.465 . S
C2438 C2433 1.399 . S
C2438 C2437 1.394 . S
C2438 C2439 1.516 . S
C2439 C2438 1.516 . S
C2439 C2440 1.502 . S
C2439 C2441 1.561 . S
C2439 C2442 1.526 . S
C2440 H2424 0.959 . S
C2440 H2425 0.959 . S
C2440 H2426 0.961 1_556 S
C2440 C2439 1.502 . S
C2441 H2427 0.960 1_556 S
C2441 H2428 0.961 1_556 S
C2441 H2429 0.959 . S
C2441 C2439 1.561 . S
C2442 C2439 1.526 . S
C2442 C2443 1.396 . S
C2442 C2447 1.390 . S
C2443 C2437 1.465 . S
C2443 C2442 1.396 . S
C2443 C2444 1.399 . S
C2444 H2430 0.929 . S
C2444 C2443 1.399 . S
C2444 C2445 1.385 . S
C2445 H2431 0.931 . S
C2445 C2444 1.385 . S
C2445 C2446 1.389 . S
C2446 C2445 1.389 . S
C2446 C2447 1.387 . S
C2447 H2432 0.930 . S
C2447 C2442 1.390 . S
C2447 C2446 1.387 . S
H2448 C2460 0.930 1_554 S
H2449 C2462 0.930 . S
H2450 C2463 0.930 . S
H2451 C2467 0.967 . S
H2452 C2467 0.953 1_554 S
H2453 C2467 0.932 1_554 S
H2454 C2468 0.960 . S
H2455 C2468 0.961 . S
H2456 C2468 0.959 . S
H2457 C2471 0.929 . S
H2458 C2472 0.931 . S
H2459 C2474 0.930 . S
C2460 H2448 0.930 1_556 S
C2460 C2461 1.399 . S
C2460 C2465 1.399 . S
C2461 C2460 1.399 . S
C2461 C2462 1.376 . S
C2462 H2449 0.930 . S
C2462 C2461 1.376 . S
C2462 C2463 1.388 . S
C2463 H2450 0.930 . S
C2463 C2462 1.388 . S
C2463 C2464 1.390 . S
C2464 C2463 1.390 . S
C2464 C2465 1.394 . S
C2464 C2470 1.465 . S
C2465 C2460 1.399 . S
C2465 C2464 1.394 . S
C2465 C2466 1.516 . S
C2466 C2465 1.516 . S
C2466 C2467 1.531 . S
C2466 C2468 1.561 . S
C2466 C2469 1.526 . S
C2467 H2451 0.967 . S
C2467 H2452 0.953 1_556 S
C2467 H2453 0.932 1_556 S
C2467 C2466 1.531 . S
C2468 H2454 0.960 . S
C2468 H2455 0.961 . S
C2468 H2456 0.959 . S
C2468 C2466 1.561 . S
C2469 C2466 1.526 . S
C2469 C2470 1.396 . S
C2469 C2474 1.390 . S
C2470 C2464 1.465 . S
C2470 C2469 1.396 . S
C2470 C2471 1.399 . S
C2471 H2457 0.929 . S
C2471 C2470 1.399 . S
C2471 C2472 1.385 . S
C2472 H2458 0.931 . S
C2472 C2471 1.385 . S
C2472 C2473 1.389 . S
C2473 C2472 1.389 . S
C2473 C2474 1.387 . S
C2474 H2459 0.930 . S
C2474 C2469 1.390 . S
C2474 C2473 1.387 . S
H2475 C2487 0.930 . S
H2476 C2489 0.917 1_554 S
H2477 C2490 0.930 . S
H2478 C2494 0.959 . S
H2479 C2494 0.959 . S
H2480 C2494 0.961 . S
H2481 C2495 0.960 . S
H2482 C2495 0.961 . S
H2483 C2495 0.959 . S
H2484 C2498 0.929 . S
H2485 C2499 0.931 . S
H2486 C2501 0.930 . S
C2487 H2475 0.930 . S
C2487 C2488 1.399 . S
C2487 C2492 1.399 . S
C2488 C2487 1.399 . S
C2488 C2489 1.376 . S
C2489 H2476 0.917 1_556 S
C2489 C2488 1.376 . S
C2489 C2490 1.388 . S
C2490 H2477 0.930 . S
C2490 C2489 1.388 . S
C2490 C2491 1.390 . S
C2491 C2490 1.390 . S
C2491 C2492 1.394 . S
C2491 C2497 1.465 . S
C2492 C2487 1.399 . S
C2492 C2491 1.394 . S
C2492 C2493 1.516 . S
C2493 C2492 1.516 . S
C2493 C2494 1.502 . S
C2493 C2495 1.561 . S
C2493 C2496 1.526 . S
C2494 H2478 0.959 . S
C2494 H2479 0.959 . S
C2494 H2480 0.961 . S
C2494 C2493 1.502 . S
C2495 H2481 0.960 . S
C2495 H2482 0.961 . S
C2495 H2483 0.959 . S
C2495 C2493 1.561 . S
C2496 C2493 1.526 . S
C2496 C2497 1.396 . S
C2496 C2501 1.390 . S
C2497 C2491 1.465 . S
C2497 C2496 1.396 . S
C2497 C2498 1.399 . S
C2498 H2484 0.929 . S
C2498 C2497 1.399 . S
C2498 C2499 1.385 . S
C2499 H2485 0.931 . S
C2499 C2498 1.385 . S
C2499 C2500 1.389 . S
C2500 C2499 1.389 . S
C2500 C2501 1.387 . S
C2501 H2486 0.930 . S
C2501 C2496 1.390 . S
C2501 C2500 1.387 . S
H2502 C2514 0.930 . S
H2503 C2516 0.930 . S
H2504 C2517 0.930 . S
H2505 C2521 0.959 . S
H2506 C2521 0.959 . S
H2507 C2521 0.961 . S
H2508 C2522 0.960 . S
H2509 C2522 0.961 . S
H2510 C2522 0.959 . S
H2511 C2525 0.929 . S
H2512 C2526 0.931 . S
H2513 C2528 0.930 . S
C2514 H2502 0.930 . S
C2514 C2515 1.399 . S
C2514 C2519 1.399 . S
C2515 C2514 1.399 . S
C2515 C2516 1.376 . S
C2516 H2503 0.930 . S
C2516 C2515 1.376 . S
C2516 C2517 1.388 . S
C2517 H2504 0.930 . S
C2517 C2516 1.388 . S
C2517 C2518 1.390 . S
C2518 C2517 1.390 . S
C2518 C2519 1.394 . S
C2518 C2524 1.465 . S
C2519 C2514 1.399 . S
C2519 C2518 1.394 . S
C2519 C2520 1.516 . S
C2520 C2519 1.516 . S
C2520 C2521 1.502 . S
C2520 C2522 1.561 . S
C2520 C2523 1.526 . S
C2521 H2505 0.959 . S
C2521 H2506 0.959 . S
C2521 H2507 0.961 . S
C2521 C2520 1.502 . S
C2522 H2508 0.960 . S
C2522 H2509 0.961 . S
C2522 H2510 0.959 . S
C2522 C2520 1.561 . S
C2523 C2520 1.526 . S
C2523 C2524 1.396 . S
C2523 C2528 1.390 . S
C2524 C2518 1.465 . S
C2524 C2523 1.396 . S
C2524 C2525 1.399 . S
C2525 H2511 0.929 . S
C2525 C2524 1.399 . S
C2525 C2526 1.385 . S
C2526 H2512 0.931 . S
C2526 C2525 1.385 . S
C2526 C2527 1.389 . S
C2527 C2526 1.389 . S
C2527 C2528 1.387 . S
C2528 H2513 0.930 . S
C2528 C2523 1.390 . S
C2528 C2527 1.387 . S
H2529 C2541 0.930 . S
H2530 C2543 0.930 1_554 S
H2531 C2544 0.930 1_554 S
H2532 C2548 0.959 . S
H2533 C2548 0.959 . S
H2534 C2548 0.961 . S
H2535 C2549 0.960 . S
H2536 C2549 0.961 . S
H2537 C2549 0.959 . S
H2538 C2552 0.929 . S
H2539 C2553 0.931 . S
H2540 C2555 0.930 . S
C2541 H2529 0.930 . S
C2541 C2542 1.399 . S
C2541 C2546 1.399 . S
C2542 C2541 1.399 . S
C2542 C2543 1.376 . S
C2543 H2530 0.930 1_556 S
C2543 C2542 1.376 . S
C2543 C2544 1.388 . S
C2544 H2531 0.930 1_556 S
C2544 C2543 1.388 . S
C2544 C2545 1.390 . S
C2545 C2544 1.390 . S
C2545 C2546 1.394 . S
C2545 C2551 1.465 . S
C2546 C2541 1.399 . S
C2546 C2545 1.394 . S
C2546 C2547 1.516 . S
C2547 C2546 1.516 . S
C2547 C2548 1.502 . S
C2547 C2549 1.561 . S
C2547 C2550 1.526 . S
C2548 H2532 0.959 . S
C2548 H2533 0.959 . S
C2548 H2534 0.961 . S
C2548 C2547 1.502 . S
C2549 H2535 0.960 . S
C2549 H2536 0.961 . S
C2549 H2537 0.959 . S
C2549 C2547 1.561 . S
C2550 C2547 1.526 . S
C2550 C2551 1.396 . S
C2550 C2555 1.390 . S
C2551 C2545 1.465 . S
C2551 C2550 1.396 . S
C2551 C2552 1.399 . S
C2552 H2538 0.929 . S
C2552 C2551 1.399 . S
C2552 C2553 1.385 . S
C2553 H2539 0.931 . S
C2553 C2552 1.385 . S
C2553 C2554 1.389 . S
C2554 C2553 1.389 . S
C2554 C2555 1.387 . S
C2555 H2540 0.930 . S
C2555 C2550 1.390 . S
C2555 C2554 1.387 . S
H2556 C2568 0.930 . S
H2557 C2570 0.930 1_554 S
H2558 C2571 0.930 1_554 S
H2559 C2575 0.959 . S
H2560 C2575 0.959 . S
H2561 C2575 0.961 . S
H2562 C2576 0.960 . S
H2563 C2576 0.961 . S
H2564 C2576 0.959 . S
H2565 C2579 0.929 . S
H2566 C2580 0.931 . S
H2567 C2582 0.930 . S
C2568 H2556 0.930 . S
C2568 C2569 1.399 . S
C2568 C2573 1.399 . S
C2569 C2568 1.399 . S
C2569 C2570 1.376 . S
C2570 H2557 0.930 1_556 S
C2570 C2569 1.376 . S
C2570 C2571 1.388 . S
C2571 H2558 0.930 1_556 S
C2571 C2570 1.388 . S
C2571 C2572 1.390 . S
C2572 C2571 1.390 . S
C2572 C2573 1.394 . S
C2572 C2578 1.465 . S
C2573 C2568 1.399 . S
C2573 C2572 1.394 . S
C2573 C2574 1.516 . S
C2574 C2573 1.516 . S
C2574 C2575 1.502 . S
C2574 C2576 1.561 . S
C2574 C2577 1.526 . S
C2575 H2559 0.959 . S
C2575 H2560 0.959 . S
C2575 H2561 0.961 . S
C2575 C2574 1.502 . S
C2576 H2562 0.960 . S
C2576 H2563 0.961 . S
C2576 H2564 0.959 . S
C2576 C2574 1.561 . S
C2577 C2574 1.526 . S
C2577 C2578 1.396 . S
C2577 C2582 1.390 . S
C2578 C2572 1.465 . S
C2578 C2577 1.396 . S
C2578 C2579 1.399 . S
C2579 H2565 0.929 . S
C2579 C2578 1.399 . S
C2579 C2580 1.385 . S
C2580 H2566 0.931 . S
C2580 C2579 1.385 . S
C2580 C2581 1.389 . S
C2581 C2580 1.389 . S
C2581 C2582 1.387 . S
C2582 H2567 0.930 . S
C2582 C2577 1.390 . S
C2582 C2581 1.387 . S
H2583 C2595 0.930 . S
H2584 C2597 0.930 . S
H2585 C2598 0.930 . S
H2586 C2602 0.959 . S
H2587 C2602 0.959 . S
H2588 C2602 0.961 . S
H2589 C2603 0.960 . S
H2590 C2603 0.961 . S
H2591 C2603 0.959 . S
H2592 C2606 0.929 . S
H2593 C2607 0.931 . S
H2594 C2609 0.930 . S
C2595 H2583 0.930 . S
C2595 C2596 1.399 . S
C2595 C2600 1.399 . S
C2596 C2595 1.399 . S
C2596 C2597 1.376 . S
C2597 H2584 0.930 . S
C2597 C2596 1.376 . S
C2597 C2598 1.388 . S
C2598 H2585 0.930 . S
C2598 C2597 1.388 . S
C2598 C2599 1.390 . S
C2599 C2598 1.390 . S
C2599 C2600 1.394 . S
C2599 C2605 1.465 . S
C2600 C2595 1.399 . S
C2600 C2599 1.394 . S
C2600 C2601 1.516 . S
C2601 C2600 1.516 . S
C2601 C2602 1.502 . S
C2601 C2603 1.561 . S
C2601 C2604 1.526 . S
C2602 H2586 0.959 . S
C2602 H2587 0.959 . S
C2602 H2588 0.961 . S
C2602 C2601 1.502 . S
C2603 H2589 0.960 . S
C2603 H2590 0.961 . S
C2603 H2591 0.959 . S
C2603 C2601 1.561 . S
C2604 C2601 1.526 . S
C2604 C2605 1.396 . S
C2604 C2609 1.390 . S
C2605 C2599 1.465 . S
C2605 C2604 1.396 . S
C2605 C2606 1.399 . S
C2606 H2592 0.929 . S
C2606 C2605 1.399 . S
C2606 C2607 1.385 . S
C2607 H2593 0.931 . S
C2607 C2606 1.385 . S
C2607 C2608 1.389 . S
C2608 C2607 1.389 . S
C2608 C2609 1.387 . S
C2609 H2594 0.930 . S
C2609 C2604 1.390 . S
C2609 C2608 1.387 . S
H2610 C2622 0.930 . S
H2611 C2624 0.930 . S
H2612 C2625 0.930 . S
H2613 C2629 0.959 . S
H2614 C2629 0.959 . S
H2615 C2629 0.961 . S
H2616 C2630 0.960 . S
H2617 C2630 0.961 . S
H2618 C2630 0.959 . S
H2619 C2633 0.929 . S
H2620 C2634 0.931 . S
H2621 C2636 0.930 . S
C2622 H2610 0.930 . S
C2622 C2623 1.399 . S
C2622 C2627 1.399 . S
C2623 C2622 1.399 . S
C2623 C2624 1.376 . S
C2624 H2611 0.930 . S
C2624 C2623 1.376 . S
C2624 C2625 1.388 . S
C2625 H2612 0.930 . S
C2625 C2624 1.388 . S
C2625 C2626 1.390 . S
C2626 C2625 1.390 . S
C2626 C2627 1.394 . S
C2626 C2632 1.465 . S
C2627 C2622 1.399 . S
C2627 C2626 1.394 . S
C2627 C2628 1.516 . S
C2628 C2627 1.516 . S
C2628 C2629 1.502 . S
C2628 C2630 1.561 . S
C2628 C2631 1.526 . S
C2629 H2613 0.959 . S
C2629 H2614 0.959 . S
C2629 H2615 0.961 . S
C2629 C2628 1.502 . S
C2630 H2616 0.960 . S
C2630 H2617 0.961 . S
C2630 H2618 0.959 . S
C2630 C2628 1.561 . S
C2631 C2628 1.526 . S
C2631 C2632 1.396 . S
C2631 C2636 1.390 . S
C2632 C2626 1.465 . S
C2632 C2631 1.396 . S
C2632 C2633 1.399 . S
C2633 H2619 0.929 . S
C2633 C2632 1.399 . S
C2633 C2634 1.385 . S
C2634 H2620 0.931 . S
C2634 C2633 1.385 . S
C2634 C2635 1.389 . S
C2635 C2634 1.389 . S
C2635 C2636 1.387 . S
C2636 H2621 0.930 . S
C2636 C2631 1.390 . S
C2636 C2635 1.387 . S
H2637 C2649 0.930 . S
H2638 C2651 0.930 . S
H2639 C2652 0.930 . S
H2640 C2656 0.959 . S
H2641 C2656 0.959 . S
H2642 C2656 0.961 . S
H2643 C2657 0.960 . S
H2644 C2657 0.961 . S
H2645 C2657 0.959 . S
H2646 C2660 0.929 . S
H2647 C2661 0.931 . S
H2648 C2663 0.930 . S
C2649 H2637 0.930 . S
C2649 C2650 1.399 . S
C2649 C2654 1.399 . S
C2650 C2649 1.399 . S
C2650 C2651 1.376 . S
C2651 H2638 0.930 . S
C2651 C2650 1.376 . S
C2651 C2652 1.388 . S
C2652 H2639 0.930 . S
C2652 C2651 1.388 . S
C2652 C2653 1.390 . S
C2653 C2652 1.390 . S
C2653 C2654 1.394 . S
C2653 C2659 1.465 . S
C2654 C2649 1.399 . S
C2654 C2653 1.394 . S
C2654 C2655 1.516 . S
C2655 C2654 1.516 . S
C2655 C2656 1.502 . S
C2655 C2657 1.561 . S
C2655 C2658 1.526 . S
C2656 H2640 0.959 . S
C2656 H2641 0.959 . S
C2656 H2642 0.961 . S
C2656 C2655 1.502 . S
C2657 H2643 0.960 . S
C2657 H2644 0.961 . S
C2657 H2645 0.959 . S
C2657 C2655 1.561 . S
C2658 C2655 1.526 . S
C2658 C2659 1.396 . S
C2658 C2663 1.390 . S
C2659 C2653 1.465 . S
C2659 C2658 1.396 . S
C2659 C2660 1.399 . S
C2660 H2646 0.929 . S
C2660 C2659 1.399 . S
C2660 C2661 1.385 . S
C2661 H2647 0.931 . S
C2661 C2660 1.385 . S
C2661 C2662 1.389 . S
C2662 C2661 1.389 . S
C2662 C2663 1.387 . S
C2663 H2648 0.930 . S
C2663 C2658 1.390 . S
C2663 C2662 1.387 . S
H2664 C2676 0.930 . S
H2665 C2678 0.930 . S
H2666 C2679 0.930 . S
H2667 C2683 0.959 . S
H2668 C2683 0.959 . S
H2669 C2683 0.961 . S
H2670 C2684 0.960 . S
H2671 C2684 0.961 . S
H2672 C2684 0.959 . S
H2673 C2687 0.929 . S
H2674 C2688 0.931 . S
H2675 C2690 0.930 . S
C2676 H2664 0.930 . S
C2676 C2677 1.399 . S
C2676 C2681 1.399 . S
C2677 C2676 1.399 . S
C2677 C2678 1.376 . S
C2678 H2665 0.930 . S
C2678 C2677 1.376 . S
C2678 C2679 1.388 . S
C2679 H2666 0.930 . S
C2679 C2678 1.388 . S
C2679 C2680 1.390 . S
C2680 C2679 1.390 . S
C2680 C2681 1.394 . S
C2680 C2686 1.465 . S
C2681 C2676 1.399 . S
C2681 C2680 1.394 . S
C2681 C2682 1.516 . S
C2682 C2681 1.516 . S
C2682 C2683 1.502 . S
C2682 C2684 1.561 . S
C2682 C2685 1.526 . S
C2683 H2667 0.959 . S
C2683 H2668 0.959 . S
C2683 H2669 0.961 . S
C2683 C2682 1.502 . S
C2684 H2670 0.960 . S
C2684 H2671 0.961 . S
C2684 H2672 0.959 . S
C2684 C2682 1.561 . S
C2685 C2682 1.526 . S
C2685 C2686 1.396 . S
C2685 C2690 1.390 . S
C2686 C2680 1.465 . S
C2686 C2685 1.396 . S
C2686 C2687 1.399 . S
C2687 H2673 0.929 . S
C2687 C2686 1.399 . S
C2687 C2688 1.385 . S
C2688 H2674 0.931 . S
C2688 C2687 1.385 . S
C2688 C2689 1.389 . S
C2689 C2688 1.389 . S
C2689 C2690 1.387 . S
C2690 H2675 0.930 . S
C2690 C2685 1.390 . S
C2690 C2689 1.387 . S
H2691 C2703 0.930 . S
H2692 C2705 0.930 . S
H2693 C2706 0.930 . S
H2694 C2710 0.959 . S
H2695 C2710 0.959 . S
H2696 C2710 0.961 . S
H2697 C2711 0.960 . S
H2698 C2711 0.961 . S
H2699 C2711 0.959 . S
H2700 C2714 0.929 . S
H2701 C2715 0.931 . S
H2702 C2717 0.930 . S
C2703 H2691 0.930 . S
C2703 C2704 1.399 . S
C2703 C2708 1.399 . S
C2704 C2703 1.399 . S
C2704 C2705 1.376 . S
C2705 H2692 0.930 . S
C2705 C2704 1.376 . S
C2705 C2706 1.388 . S
C2706 H2693 0.930 . S
C2706 C2705 1.388 . S
C2706 C2707 1.390 . S
C2707 C2706 1.390 . S
C2707 C2708 1.394 . S
C2707 C2713 1.465 . S
C2708 C2703 1.399 . S
C2708 C2707 1.394 . S
C2708 C2709 1.516 . S
C2709 C2708 1.516 . S
C2709 C2710 1.502 . S
C2709 C2711 1.561 . S
C2709 C2712 1.526 . S
C2710 H2694 0.959 . S
C2710 H2695 0.959 . S
C2710 H2696 0.961 . S
C2710 C2709 1.502 . S
C2711 H2697 0.960 . S
C2711 H2698 0.961 . S
C2711 H2699 0.959 . S
C2711 C2709 1.561 . S
C2712 C2709 1.526 . S
C2712 C2713 1.396 . S
C2712 C2717 1.390 . S
C2713 C2707 1.465 . S
C2713 C2712 1.396 . S
C2713 C2714 1.399 . S
C2714 H2700 0.929 . S
C2714 C2713 1.399 . S
C2714 C2715 1.385 . S
C2715 H2701 0.931 . S
C2715 C2714 1.385 . S
C2715 C2716 1.389 . S
C2716 C2715 1.389 . S
C2716 C2717 1.387 . S
C2717 H2702 0.930 . S
C2717 C2712 1.390 . S
C2717 C2716 1.387 . S
H2718 C2730 0.930 . S
H2719 C2732 0.930 . S
H2720 C2733 0.930 . S
H2721 C2737 0.959 . S
H2722 C2737 0.959 . S
H2723 C2737 0.961 . S
H2724 C2738 0.960 . S
H2725 C2738 0.961 . S
H2726 C2738 0.959 . S
H2727 C2741 0.929 . S
H2728 C2742 0.931 . S
H2729 C2744 0.930 . S
C2730 H2718 0.930 . S
C2730 C2731 1.399 . S
C2730 C2735 1.399 . S
C2731 C2730 1.399 . S
C2731 C2732 1.376 . S
C2732 H2719 0.930 . S
C2732 C2731 1.376 . S
C2732 C2733 1.388 . S
C2733 H2720 0.930 . S
C2733 C2732 1.388 . S
C2733 C2734 1.390 . S
C2734 C2733 1.390 . S
C2734 C2735 1.394 . S
C2734 C2740 1.465 . S
C2735 C2730 1.399 . S
C2735 C2734 1.394 . S
C2735 C2736 1.516 . S
C2736 C2735 1.516 . S
C2736 C2737 1.502 . S
C2736 C2738 1.561 . S
C2736 C2739 1.526 . S
C2737 H2721 0.959 . S
C2737 H2722 0.959 . S
C2737 H2723 0.961 . S
C2737 C2736 1.502 . S
C2738 H2724 0.960 . S
C2738 H2725 0.961 . S
C2738 H2726 0.959 . S
C2738 C2736 1.561 . S
C2739 C2736 1.526 . S
C2739 C2740 1.396 . S
C2739 C2744 1.390 . S
C2740 C2734 1.465 . S
C2740 C2739 1.396 . S
C2740 C2741 1.399 . S
C2741 H2727 0.929 . S
C2741 C2740 1.399 . S
C2741 C2742 1.385 . S
C2742 H2728 0.931 . S
C2742 C2741 1.385 . S
C2742 C2743 1.389 . S
C2743 C2742 1.389 . S
C2743 C2744 1.387 . S
C2744 H2729 0.930 . S
C2744 C2739 1.390 . S
C2744 C2743 1.387 . S
H2745 C2757 0.930 . S
H2746 C2759 0.930 . S
H2747 C2760 0.930 . S
H2748 C2764 0.959 . S
H2749 C2764 0.959 . S
H2750 C2764 0.961 . S
H2751 C2765 0.961 1_655 S
H2752 C2765 0.955 1_655 S
H2753 C2765 0.963 . S
H2754 C2768 0.929 . S
H2755 C2769 0.931 . S
H2756 C2771 0.930 1_655 S
C2757 H2745 0.930 . S
C2757 C2758 1.399 . S
C2757 C2762 1.399 . S
C2758 C2757 1.399 . S
C2758 C2759 1.376 . S
C2759 H2746 0.930 . S
C2759 C2758 1.376 . S
C2759 C2760 1.388 . S
C2760 H2747 0.930 . S
C2760 C2759 1.388 . S
C2760 C2761 1.390 . S
C2761 C2760 1.390 . S
C2761 C2762 1.394 . S
C2761 C2767 1.465 . S
C2762 C2757 1.399 . S
C2762 C2761 1.394 . S
C2762 C2763 1.516 . S
C2763 C2762 1.516 . S
C2763 C2764 1.502 1_455 S
C2763 C2765 1.563 . S
C2763 C2766 1.526 . S
C2764 H2748 0.959 . S
C2764 H2749 0.959 . S
C2764 H2750 0.961 . S
C2764 C2763 1.502 1_655 S
C2765 H2751 0.961 1_455 S
C2765 H2752 0.955 1_455 S
C2765 H2753 0.963 . S
C2765 C2763 1.563 . S
C2766 C2763 1.526 . S
C2766 C2767 1.396 . S
C2766 C2771 1.390 . S
C2767 C2761 1.465 . S
C2767 C2766 1.396 . S
C2767 C2768 1.399 . S
C2768 H2754 0.929 . S
C2768 C2767 1.399 . S
C2768 C2769 1.385 . S
C2769 H2755 0.931 . S
C2769 C2768 1.385 . S
C2769 C2770 1.389 . S
C2770 C2769 1.389 . S
C2770 C2771 1.387 . S
C2771 H2756 0.930 1_455 S
C2771 C2766 1.390 . S
C2771 C2770 1.387 . S
H2772 C2784 0.930 . S
H2773 C2786 0.930 . S
H2774 C2787 0.930 . S
H2775 C2791 0.959 . S
H2776 C2791 0.959 . S
H2777 C2791 0.961 . S
H2778 C2792 0.960 . S
H2779 C2792 0.961 . S
H2780 C2792 0.959 . S
H2781 C2795 0.929 . S
H2782 C2796 0.931 . S
H2783 C2798 0.930 . S
C2784 H2772 0.930 . S
C2784 C2785 1.399 . S
C2784 C2789 1.399 . S
C2785 C2784 1.399 . S
C2785 C2786 1.376 . S
C2786 H2773 0.930 . S
C2786 C2785 1.376 . S
C2786 C2787 1.388 . S
C2787 H2774 0.930 . S
C2787 C2786 1.388 . S
C2787 C2788 1.390 . S
C2788 C2787 1.390 . S
C2788 C2789 1.394 . S
C2788 C2794 1.465 . S
C2789 C2784 1.399 . S
C2789 C2788 1.394 . S
C2789 C2790 1.516 . S
C2790 C2789 1.516 . S
C2790 C2791 1.502 . S
C2790 C2792 1.561 . S
C2790 C2793 1.526 . S
C2791 H2775 0.959 . S
C2791 H2776 0.959 . S
C2791 H2777 0.961 . S
C2791 C2790 1.502 . S
C2792 H2778 0.960 . S
C2792 H2779 0.961 . S
C2792 H2780 0.959 . S
C2792 C2790 1.561 . S
C2793 C2790 1.526 . S
C2793 C2794 1.396 . S
C2793 C2798 1.390 . S
C2794 C2788 1.465 . S
C2794 C2793 1.396 . S
C2794 C2795 1.399 . S
C2795 H2781 0.929 . S
C2795 C2794 1.399 . S
C2795 C2796 1.385 . S
C2796 H2782 0.931 . S
C2796 C2795 1.385 . S
C2796 C2797 1.389 . S
C2797 C2796 1.389 . S
C2797 C2798 1.387 . S
C2798 H2783 0.930 . S
C2798 C2793 1.390 . S
C2798 C2797 1.387 . S
H2799 C2811 0.930 1_545 S
H2800 C2813 0.930 . S
H2801 C2814 0.930 . S
H2802 C2818 0.959 . S
H2803 C2818 0.959 . S
H2804 C2818 0.961 . S
H2805 C2819 0.960 . S
H2806 C2819 0.961 . S
H2807 C2819 0.959 . S
H2808 C2822 0.929 . S
H2809 C2823 0.931 . S
H2810 C2825 0.930 . S
C2811 H2799 0.930 1_565 S
C2811 C2812 1.399 . S
C2811 C2816 1.399 . S
C2812 C2811 1.399 . S
C2812 C2813 1.376 . S
C2813 H2800 0.930 . S
C2813 C2812 1.376 . S
C2813 C2814 1.388 . S
C2814 H2801 0.930 . S
C2814 C2813 1.388 . S
C2814 C2815 1.390 . S
C2815 C2814 1.390 . S
C2815 C2816 1.394 . S
C2815 C2821 1.465 . S
C2816 C2811 1.399 . S
C2816 C2815 1.394 . S
C2816 C2817 1.516 1_565 S
C2817 C2816 1.516 1_545 S
C2817 C2818 1.502 . S
C2817 C2819 1.561 . S
C2817 C2820 1.526 1_545 S
C2818 H2802 0.959 . S
C2818 H2803 0.959 . S
C2818 H2804 0.961 . S
C2818 C2817 1.502 . S
C2819 H2805 0.960 . S
C2819 H2806 0.961 . S
C2819 H2807 0.959 . S
C2819 C2817 1.561 . S
C2820 C2817 1.526 1_565 S
C2820 C2821 1.396 . S
C2820 C2825 1.390 1_565 S
C2821 C2815 1.465 . S
C2821 C2820 1.396 . S
C2821 C2822 1.399 . S
C2822 H2808 0.929 . S
C2822 C2821 1.399 . S
C2822 C2823 1.385 . S
C2823 H2809 0.931 . S
C2823 C2822 1.385 . S
C2823 C2824 1.389 . S
C2824 C2823 1.389 . S
C2824 C2825 1.387 1_565 S
C2825 H2810 0.930 . S
C2825 C2820 1.390 1_545 S
C2825 C2824 1.387 1_545 S
H2826 C2838 0.930 . S
H2827 C2840 0.930 . S
H2828 C2841 0.930 . S
H2829 C2845 0.980 . S
H2830 C2845 0.963 . S
H2831 C2845 0.917 1_565 S
H2832 C2846 0.960 . S
H2833 C2846 0.961 . S
H2834 C2846 0.959 . S
H2835 C2849 0.929 . S
H2836 C2850 0.931 . S
H2837 C2852 0.930 . S
C2838 H2826 0.930 . S
C2838 C2839 1.399 . S
C2838 C2843 1.399 . S
C2839 C2838 1.399 . S
C2839 C2840 1.376 . S
C2840 H2827 0.930 . S
C2840 C2839 1.376 . S
C2840 C2841 1.388 . S
C2841 H2828 0.930 . S
C2841 C2840 1.388 . S
C2841 C2842 1.390 . S
C2842 C2841 1.390 . S
C2842 C2843 1.394 . S
C2842 C2848 1.465 . S
C2843 C2838 1.399 . S
C2843 C2842 1.394 . S
C2843 C2844 1.516 . S
C2844 C2843 1.516 . S
C2844 C2845 1.491 1_565 S
C2844 C2846 1.561 . S
C2844 C2847 1.526 . S
C2845 H2829 0.980 . S
C2845 H2830 0.963 . S
C2845 H2831 0.917 1_545 S
C2845 C2844 1.491 1_545 S
C2846 H2832 0.960 . S
C2846 H2833 0.961 . S
C2846 H2834 0.959 . S
C2846 C2844 1.561 . S
C2847 C2844 1.526 . S
C2847 C2848 1.396 . S
C2847 C2852 1.390 . S
C2848 C2842 1.465 . S
C2848 C2847 1.396 . S
C2848 C2849 1.399 . S
C2849 H2835 0.929 . S
C2849 C2848 1.399 . S
C2849 C2850 1.385 . S
C2850 H2836 0.931 . S
C2850 C2849 1.385 . S
C2850 C2851 1.389 . S
C2851 C2850 1.389 . S
C2851 C2852 1.387 . S
C2852 H2837 0.930 . S
C2852 C2847 1.390 . S
C2852 C2851 1.387 . S
H2853 C2865 0.930 . S
H2854 C2867 0.930 . S
H2855 C2868 0.930 . S
H2856 C2872 0.959 . S
H2857 C2872 0.959 . S
H2858 C2872 0.961 . S
H2859 C2873 0.960 . S
H2860 C2873 0.961 . S
H2861 C2873 0.959 . S
H2862 C2876 0.929 . S
H2863 C2877 0.931 . S
H2864 C2879 0.930 . S
C2865 H2853 0.930 . S
C2865 C2866 1.399 . S
C2865 C2870 1.399 . S
C2866 C2865 1.399 . S
C2866 C2867 1.376 . S
C2867 H2854 0.930 . S
C2867 C2866 1.376 . S
C2867 C2868 1.388 . S
C2868 H2855 0.930 . S
C2868 C2867 1.388 . S
C2868 C2869 1.390 . S
C2869 C2868 1.390 . S
C2869 C2870 1.394 . S
C2869 C2875 1.465 . S
C2870 C2865 1.399 . S
C2870 C2869 1.394 . S
C2870 C2871 1.516 . S
C2871 C2870 1.516 . S
C2871 C2872 1.502 1_455 S
C2871 C2873 1.561 . S
C2871 C2874 1.526 . S
C2872 H2856 0.959 . S
C2872 H2857 0.959 . S
C2872 H2858 0.961 . S
C2872 C2871 1.502 1_655 S
C2873 H2859 0.960 . S
C2873 H2860 0.961 . S
C2873 H2861 0.959 . S
C2873 C2871 1.561 . S
C2874 C2871 1.526 . S
C2874 C2875 1.396 . S
C2874 C2879 1.390 . S
C2875 C2869 1.465 . S
C2875 C2874 1.396 . S
C2875 C2876 1.399 . S
C2876 H2862 0.929 . S
C2876 C2875 1.399 . S
C2876 C2877 1.385 . S
C2877 H2863 0.931 . S
C2877 C2876 1.385 . S
C2877 C2878 1.389 . S
C2878 C2877 1.389 . S
C2878 C2879 1.387 . S
C2879 H2864 0.930 . S
C2879 C2874 1.390 . S
C2879 C2878 1.387 . S
H2880 C2892 0.930 . S
H2881 C2894 0.930 . S
H2882 C2895 0.930 . S
H2883 C2899 0.959 . S
H2884 C2899 0.959 . S
H2885 C2899 0.961 . S
H2886 C2900 0.960 . S
H2887 C2900 0.961 . S
H2888 C2900 0.959 . S
H2889 C2903 0.929 . S
H2890 C2904 0.931 . S
H2891 C2906 0.930 . S
C2892 H2880 0.930 . S
C2892 C2893 1.399 . S
C2892 C2897 1.399 . S
C2893 C2892 1.399 . S
C2893 C2894 1.376 . S
C2894 H2881 0.930 . S
C2894 C2893 1.376 . S
C2894 C2895 1.388 . S
C2895 H2882 0.930 . S
C2895 C2894 1.388 . S
C2895 C2896 1.390 . S
C2896 C2895 1.390 . S
C2896 C2897 1.394 . S
C2896 C2902 1.465 . S
C2897 C2892 1.399 . S
C2897 C2896 1.394 . S
C2897 C2898 1.516 . S
C2898 C2897 1.516 . S
C2898 C2899 1.502 . S
C2898 C2900 1.561 . S
C2898 C2901 1.526 . S
C2899 H2883 0.959 . S
C2899 H2884 0.959 . S
C2899 H2885 0.961 . S
C2899 C2898 1.502 . S
C2900 H2886 0.960 . S
C2900 H2887 0.961 . S
C2900 H2888 0.959 . S
C2900 C2898 1.561 . S
C2901 C2898 1.526 . S
C2901 C2902 1.396 . S
C2901 C2906 1.390 . S
C2902 C2896 1.465 . S
C2902 C2901 1.396 . S
C2902 C2903 1.399 . S
C2903 H2889 0.929 . S
C2903 C2902 1.399 . S
C2903 C2904 1.385 . S
C2904 H2890 0.931 . S
C2904 C2903 1.385 . S
C2904 C2905 1.389 . S
C2905 C2904 1.389 . S
C2905 C2906 1.387 . S
C2906 H2891 0.930 . S
C2906 C2901 1.390 . S
C2906 C2905 1.387 . S
H2907 C2919 0.930 . S
H2908 C2921 0.930 . S
H2909 C2922 0.930 . S
H2910 C2926 0.959 . S
H2911 C2926 0.959 . S
H2912 C2926 0.961 . S
H2913 C2927 0.960 . S
H2914 C2927 0.961 . S
H2915 C2927 0.959 . S
H2916 C2930 0.929 . S
H2917 C2931 0.931 . S
H2918 C2933 0.930 . S
C2919 H2907 0.930 . S
C2919 C2920 1.399 . S
C2919 C2924 1.399 . S
C2920 C2919 1.399 . S
C2920 C2921 1.376 . S
C2921 H2908 0.930 . S
C2921 C2920 1.376 . S
C2921 C2922 1.388 . S
C2922 H2909 0.930 . S
C2922 C2921 1.388 . S
C2922 C2923 1.390 . S
C2923 C2922 1.390 . S
C2923 C2924 1.394 . S
C2923 C2929 1.465 . S
C2924 C2919 1.399 . S
C2924 C2923 1.394 . S
C2924 C2925 1.516 . S
C2925 C2924 1.516 . S
C2925 C2926 1.502 . S
C2925 C2927 1.561 . S
C2925 C2928 1.526 . S
C2926 H2910 0.959 . S
C2926 H2911 0.959 . S
C2926 H2912 0.961 . S
C2926 C2925 1.502 . S
C2927 H2913 0.960 . S
C2927 H2914 0.961 . S
C2927 H2915 0.959 . S
C2927 C2925 1.561 . S
C2928 C2925 1.526 . S
C2928 C2929 1.396 . S
C2928 C2933 1.390 . S
C2929 C2923 1.465 . S
C2929 C2928 1.396 . S
C2929 C2930 1.399 . S
C2930 H2916 0.929 . S
C2930 C2929 1.399 . S
C2930 C2931 1.385 . S
C2931 H2917 0.931 . S
C2931 C2930 1.385 . S
C2931 C2932 1.389 . S
C2932 C2931 1.389 . S
C2932 C2933 1.387 . S
C2933 H2918 0.930 . S
C2933 C2928 1.390 . S
C2933 C2932 1.387 . S
H2934 C2946 0.930 . S
H2935 C2948 0.930 . S
H2936 C2949 0.930 . S
H2937 C2953 0.959 . S
H2938 C2953 0.959 . S
H2939 C2953 0.961 . S
H2940 C2954 0.960 . S
H2941 C2954 0.961 . S
H2942 C2954 0.959 . S
H2943 C2957 0.929 . S
H2944 C2958 0.931 . S
H2945 C2960 0.930 . S
C2946 H2934 0.930 . S
C2946 C2947 1.399 . S
C2946 C2951 1.399 . S
C2947 C2946 1.399 . S
C2947 C2948 1.376 . S
C2948 H2935 0.930 . S
C2948 C2947 1.376 . S
C2948 C2949 1.388 . S
C2949 H2936 0.930 . S
C2949 C2948 1.388 . S
C2949 C2950 1.390 . S
C2950 C2949 1.390 . S
C2950 C2951 1.394 . S
C2950 C2956 1.465 . S
C2951 C2946 1.399 . S
C2951 C2950 1.394 . S
C2951 C2952 1.516 . S
C2952 C2951 1.516 . S
C2952 C2953 1.502 . S
C2952 C2954 1.561 . S
C2952 C2955 1.526 . S
C2953 H2937 0.959 . S
C2953 H2938 0.959 . S
C2953 H2939 0.961 . S
C2953 C2952 1.502 . S
C2954 H2940 0.960 . S
C2954 H2941 0.961 . S
C2954 H2942 0.959 . S
C2954 C2952 1.561 . S
C2955 C2952 1.526 . S
C2955 C2956 1.396 . S
C2955 C2960 1.390 . S
C2956 C2950 1.465 . S
C2956 C2955 1.396 . S
C2956 C2957 1.399 . S
C2957 H2943 0.929 . S
C2957 C2956 1.399 . S
C2957 C2958 1.385 . S
C2958 H2944 0.931 . S
C2958 C2957 1.385 . S
C2958 C2959 1.389 . S
C2959 C2958 1.389 . S
C2959 C2960 1.387 . S
C2960 H2945 0.930 . S
C2960 C2955 1.390 . S
C2960 C2959 1.387 . S
H2961 C2973 0.930 . S
H2962 C2975 0.930 . S
H2963 C2976 0.930 . S
H2964 C2980 0.959 . S
H2965 C2980 0.959 . S
H2966 C2980 0.961 . S
H2967 C2981 0.960 . S
H2968 C2981 0.961 . S
H2969 C2981 0.959 . S
H2970 C2984 0.929 . S
H2971 C2985 0.931 . S
H2972 C2987 0.930 . S
C2973 H2961 0.930 . S
C2973 C2974 1.399 . S
C2973 C2978 1.399 . S
C2974 C2973 1.399 . S
C2974 C2975 1.376 . S
C2975 H2962 0.930 . S
C2975 C2974 1.376 . S
C2975 C2976 1.388 . S
C2976 H2963 0.930 . S
C2976 C2975 1.388 . S
C2976 C2977 1.390 . S
C2977 C2976 1.390 . S
C2977 C2978 1.394 . S
C2977 C2983 1.465 . S
C2978 C2973 1.399 . S
C2978 C2977 1.394 . S
C2978 C2979 1.516 . S
C2979 C2978 1.516 . S
C2979 C2980 1.502 . S
C2979 C2981 1.561 . S
C2979 C2982 1.526 . S
C2980 H2964 0.959 . S
C2980 H2965 0.959 . S
C2980 H2966 0.961 . S
C2980 C2979 1.502 . S
C2981 H2967 0.960 . S
C2981 H2968 0.961 . S
C2981 H2969 0.959 . S
C2981 C2979 1.561 . S
C2982 C2979 1.526 . S
C2982 C2983 1.396 . S
C2982 C2987 1.390 . S
C2983 C2977 1.465 . S
C2983 C2982 1.396 . S
C2983 C2984 1.399 . S
C2984 H2970 0.929 . S
C2984 C2983 1.399 . S
C2984 C2985 1.385 . S
C2985 H2971 0.931 . S
C2985 C2984 1.385 . S
C2985 C2986 1.389 . S
C2986 C2985 1.389 . S
C2986 C2987 1.387 . S
C2987 H2972 0.930 . S
C2987 C2982 1.390 . S
C2987 C2986 1.387 . S
H2988 C3000 0.930 . S
H2989 C3002 0.930 1_565 S
H2990 C3003 0.904 1_565 S
H2991 C3007 0.959 . S
H2992 C3007 0.959 . S
H2993 C3007 0.961 . S
H2994 C3008 0.960 . S
H2995 C3008 0.961 . S
H2996 C3008 0.959 . S
H2997 C3011 0.929 . S
H2998 C3012 0.931 . S
H2999 C3014 0.930 . S
C3000 H2988 0.930 . S
C3000 C3001 1.399 . S
C3000 C3005 1.399 . S
C3001 C3000 1.399 . S
C3001 C3002 1.376 . S
C3002 H2989 0.930 1_545 S
C3002 C3001 1.376 . S
C3002 C3003 1.407 . S
C3003 H2990 0.904 1_545 S
C3003 C3002 1.407 . S
C3003 C3004 1.397 . S
C3004 C3003 1.397 . S
C3004 C3005 1.394 . S
C3004 C3010 1.465 . S
C3005 C3000 1.399 . S
C3005 C3004 1.394 . S
C3005 C3006 1.516 . S
C3006 C3005 1.516 . S
C3006 C3007 1.502 . S
C3006 C3008 1.561 . S
C3006 C3009 1.526 . S
C3007 H2991 0.959 . S
C3007 H2992 0.959 . S
C3007 H2993 0.961 . S
C3007 C3006 1.502 . S
C3008 H2994 0.960 . S
C3008 H2995 0.961 . S
C3008 H2996 0.959 . S
C3008 C3006 1.561 . S
C3009 C3006 1.526 . S
C3009 C3010 1.396 . S
C3009 C3014 1.390 . S
C3010 C3004 1.465 . S
C3010 C3009 1.396 . S
C3010 C3011 1.399 1_545 S
C3011 H2997 0.929 . S
C3011 C3010 1.399 1_565 S
C3011 C3012 1.385 . S
C3012 H2998 0.931 . S
C3012 C3011 1.385 . S
C3012 C3013 1.389 1_565 S
C3013 C3012 1.389 1_545 S
C3013 C3014 1.387 . S
C3014 H2999 0.930 . S
C3014 C3009 1.390 . S
C3014 C3013 1.387 . S
H3015 C3027 0.930 . S
H3016 C3029 0.930 . S
H3017 C3030 0.930 . S
H3018 C3034 0.959 . S
H3019 C3034 0.959 . S
H3020 C3034 0.961 . S
H3021 C3035 0.960 . S
H3022 C3035 0.961 . S
H3023 C3035 0.959 . S
H3024 C3038 0.929 . S
H3025 C3039 0.931 . S
H3026 C3041 0.928 1_455 S
C3027 H3015 0.930 . S
C3027 C3028 1.399 . S
C3027 C3032 1.399 . S
C3028 C3027 1.399 . S
C3028 C3029 1.376 . S
C3029 H3016 0.930 . S
C3029 C3028 1.376 . S
C3029 C3030 1.388 . S
C3030 H3017 0.930 . S
C3030 C3029 1.388 . S
C3030 C3031 1.390 . S
C3031 C3030 1.390 . S
C3031 C3032 1.394 . S
C3031 C3037 1.465 . S
C3032 C3027 1.399 . S
C3032 C3031 1.394 . S
C3032 C3033 1.516 . S
C3033 C3032 1.516 . S
C3033 C3034 1.502 1_655 S
C3033 C3035 1.561 . S
C3033 C3036 1.526 . S
C3034 H3018 0.959 . S
C3034 H3019 0.959 . S
C3034 H3020 0.961 . S
C3034 C3033 1.502 1_455 S
C3035 H3021 0.960 . S
C3035 H3022 0.961 . S
C3035 H3023 0.959 . S
C3035 C3033 1.561 . S
C3036 C3033 1.526 . S
C3036 C3037 1.396 . S
C3036 C3041 1.390 . S
C3037 C3031 1.465 . S
C3037 C3036 1.396 . S
C3037 C3038 1.399 . S
C3038 H3024 0.929 . S
C3038 C3037 1.399 . S
C3038 C3039 1.385 . S
C3039 H3025 0.931 . S
C3039 C3038 1.385 . S
C3039 C3040 1.389 . S
C3040 C3039 1.389 . S
C3040 C3041 1.387 . S
C3041 H3026 0.928 1_655 S
C3041 C3036 1.390 . S
C3041 C3040 1.387 . S
H3042 C3054 0.930 . S
H3043 C3056 0.930 . S
H3044 C3057 0.930 . S
H3045 C3061 0.959 . S
H3046 C3061 0.959 . S
H3047 C3061 0.961 . S
H3048 C3062 0.960 . S
H3049 C3062 0.961 . S
H3050 C3062 0.959 . S
H3051 C3065 0.929 . S
H3052 C3066 0.931 . S
H3053 C3068 0.930 . S
C3054 H3042 0.930 . S
C3054 C3055 1.399 . S
C3054 C3059 1.399 . S
C3055 C3054 1.399 . S
C3055 C3056 1.376 . S
C3056 H3043 0.930 . S
C3056 C3055 1.376 . S
C3056 C3057 1.388 . S
C3057 H3044 0.930 . S
C3057 C3056 1.388 . S
C3057 C3058 1.390 . S
C3058 C3057 1.390 . S
C3058 C3059 1.394 . S
C3058 C3064 1.465 . S
C3059 C3054 1.399 . S
C3059 C3058 1.394 . S
C3059 C3060 1.516 . S
C3060 C3059 1.516 . S
C3060 C3061 1.502 . S
C3060 C3062 1.561 . S
C3060 C3063 1.526 . S
C3061 H3045 0.959 . S
C3061 H3046 0.959 . S
C3061 H3047 0.961 . S
C3061 C3060 1.502 . S
C3062 H3048 0.960 . S
C3062 H3049 0.961 . S
C3062 H3050 0.959 . S
C3062 C3060 1.561 . S
C3063 C3060 1.526 . S
C3063 C3064 1.396 . S
C3063 C3068 1.390 . S
C3064 C3058 1.465 . S
C3064 C3063 1.396 . S
C3064 C3065 1.399 . S
C3065 H3051 0.929 . S
C3065 C3064 1.399 . S
C3065 C3066 1.385 . S
C3066 H3052 0.931 . S
C3066 C3065 1.385 . S
C3066 C3067 1.389 . S
C3067 C3066 1.389 . S
C3067 C3068 1.387 . S
C3068 H3053 0.930 . S
C3068 C3063 1.390 . S
C3068 C3067 1.387 . S
H3069 C3081 0.930 . S
H3070 C3083 0.930 . S
H3071 C3084 0.930 . S
H3072 C3088 0.959 . S
H3073 C3088 0.959 . S
H3074 C3088 0.961 . S
H3075 C3089 0.960 . S
H3076 C3089 0.961 . S
H3077 C3089 0.959 . S
H3078 C3092 0.929 . S
H3079 C3093 0.931 . S
H3080 C3095 0.930 . S
C3081 H3069 0.930 . S
C3081 C3082 1.399 . S
C3081 C3086 1.399 . S
C3082 C3081 1.399 . S
C3082 C3083 1.376 . S
C3083 H3070 0.930 . S
C3083 C3082 1.376 . S
C3083 C3084 1.388 . S
C3084 H3071 0.930 . S
C3084 C3083 1.388 . S
C3084 C3085 1.390 . S
C3085 C3084 1.390 . S
C3085 C3086 1.394 . S
C3085 C3091 1.465 . S
C3086 C3081 1.399 . S
C3086 C3085 1.394 . S
C3086 C3087 1.516 . S
C3087 C3086 1.516 . S
C3087 C3088 1.502 . S
C3087 C3089 1.561 . S
C3087 C3090 1.526 . S
C3088 H3072 0.959 . S
C3088 H3073 0.959 . S
C3088 H3074 0.961 . S
C3088 C3087 1.502 . S
C3089 H3075 0.960 . S
C3089 H3076 0.961 . S
C3089 H3077 0.959 . S
C3089 C3087 1.561 . S
C3090 C3087 1.526 . S
C3090 C3091 1.396 . S
C3090 C3095 1.390 . S
C3091 C3085 1.465 . S
C3091 C3090 1.396 . S
C3091 C3092 1.399 . S
C3092 H3078 0.929 . S
C3092 C3091 1.399 . S
C3092 C3093 1.385 . S
C3093 H3079 0.931 . S
C3093 C3092 1.385 . S
C3093 C3094 1.389 . S
C3094 C3093 1.389 . S
C3094 C3095 1.387 . S
C3095 H3080 0.930 . S
C3095 C3090 1.390 . S
C3095 C3094 1.387 . S
H3096 C3108 0.930 . S
H3097 C3110 0.930 . S
H3098 C3111 0.930 . S
H3099 C3115 0.959 . S
H3100 C3115 0.959 . S
H3101 C3115 0.961 . S
H3102 C3116 0.960 . S
H3103 C3116 0.961 . S
H3104 C3116 0.959 . S
H3105 C3119 0.929 . S
H3106 C3120 0.931 . S
H3107 C3122 0.930 . S
C3108 H3096 0.930 . S
C3108 C3109 1.399 . S
C3108 C3113 1.399 . S
C3109 C3108 1.399 . S
C3109 C3110 1.376 . S
C3110 H3097 0.930 . S
C3110 C3109 1.376 . S
C3110 C3111 1.388 . S
C3111 H3098 0.930 . S
C3111 C3110 1.388 . S
C3111 C3112 1.390 . S
C3112 C3111 1.390 . S
C3112 C3113 1.394 . S
C3112 C3118 1.465 . S
C3113 C3108 1.399 . S
C3113 C3112 1.394 . S
C3113 C3114 1.516 . S
C3114 C3113 1.516 . S
C3114 C3115 1.502 . S
C3114 C3116 1.561 . S
C3114 C3117 1.526 . S
C3115 H3099 0.959 . S
C3115 H3100 0.959 . S
C3115 H3101 0.961 . S
C3115 C3114 1.502 . S
C3116 H3102 0.960 . S
C3116 H3103 0.961 . S
C3116 H3104 0.959 . S
C3116 C3114 1.561 . S
C3117 C3114 1.526 . S
C3117 C3118 1.396 . S
C3117 C3122 1.390 . S
C3118 C3112 1.465 . S
C3118 C3117 1.396 . S
C3118 C3119 1.399 . S
C3119 H3105 0.929 . S
C3119 C3118 1.399 . S
C3119 C3120 1.385 . S
C3120 H3106 0.931 . S
C3120 C3119 1.385 . S
C3120 C3121 1.389 . S
C3121 C3120 1.389 . S
C3121 C3122 1.387 . S
C3122 H3107 0.930 . S
C3122 C3117 1.390 . S
C3122 C3121 1.387 . S
H3123 C3135 0.930 . S
H3124 C3137 0.930 . S
H3125 C3138 0.930 . S
H3126 C3142 0.959 . S
H3127 C3142 0.959 . S
H3128 C3142 0.961 . S
H3129 C3143 0.960 . S
H3130 C3143 0.961 . S
H3131 C3143 0.959 . S
H3132 C3146 0.929 . S
H3133 C3147 0.931 . S
H3134 C3149 0.930 . S
C3135 H3123 0.930 . S
C3135 C3136 1.399 . S
C3135 C3140 1.399 . S
C3136 C3135 1.399 . S
C3136 C3137 1.376 . S
C3137 H3124 0.930 . S
C3137 C3136 1.376 . S
C3137 C3138 1.388 . S
C3138 H3125 0.930 . S
C3138 C3137 1.388 . S
C3138 C3139 1.390 . S
C3139 C3138 1.390 . S
C3139 C3140 1.394 . S
C3139 C3145 1.465 . S
C3140 C3135 1.399 . S
C3140 C3139 1.394 . S
C3140 C3141 1.516 . S
C3141 C3140 1.516 . S
C3141 C3142 1.502 . S
C3141 C3143 1.561 . S
C3141 C3144 1.526 . S
C3142 H3126 0.959 . S
C3142 H3127 0.959 . S
C3142 H3128 0.961 . S
C3142 C3141 1.502 . S
C3143 H3129 0.960 . S
C3143 H3130 0.961 . S
C3143 H3131 0.959 . S
C3143 C3141 1.561 . S
C3144 C3141 1.526 . S
C3144 C3145 1.396 . S
C3144 C3149 1.390 . S
C3145 C3139 1.465 . S
C3145 C3144 1.396 . S
C3145 C3146 1.399 . S
C3146 H3132 0.929 . S
C3146 C3145 1.399 . S
C3146 C3147 1.385 . S
C3147 H3133 0.931 . S
C3147 C3146 1.385 . S
C3147 C3148 1.389 . S
C3148 C3147 1.389 . S
C3148 C3149 1.387 . S
C3149 H3134 0.930 . S
C3149 C3144 1.390 . S
C3149 C3148 1.387 . S
H3150 C3162 0.930 . S
H3151 C3164 0.930 . S
H3152 C3165 0.930 . S
H3153 C3169 0.959 . S
H3154 C3169 0.959 . S
H3155 C3169 0.961 . S
H3156 C3170 0.960 . S
H3157 C3170 0.961 . S
H3158 C3170 0.959 . S
H3159 C3173 0.929 . S
H3160 C3174 0.931 . S
H3161 C3176 0.930 . S
C3162 H3150 0.930 . S
C3162 C3163 1.399 . S
C3162 C3167 1.399 . S
C3163 C3162 1.399 . S
C3163 C3164 1.376 . S
C3164 H3151 0.930 . S
C3164 C3163 1.376 . S
C3164 C3165 1.388 . S
C3165 H3152 0.930 . S
C3165 C3164 1.388 . S
C3165 C3166 1.390 . S
C3166 C3165 1.390 . S
C3166 C3167 1.394 . S
C3166 C3172 1.465 . S
C3167 C3162 1.399 . S
C3167 C3166 1.394 . S
C3167 C3168 1.516 . S
C3168 C3167 1.516 . S
C3168 C3169 1.502 . S
C3168 C3170 1.561 . S
C3168 C3171 1.526 . S
C3169 H3153 0.959 . S
C3169 H3154 0.959 . S
C3169 H3155 0.961 . S
C3169 C3168 1.502 . S
C3170 H3156 0.960 . S
C3170 H3157 0.961 . S
C3170 H3158 0.959 . S
C3170 C3168 1.561 . S
C3171 C3168 1.526 . S
C3171 C3172 1.396 . S
C3171 C3176 1.390 . S
C3172 C3166 1.465 . S
C3172 C3171 1.396 . S
C3172 C3173 1.399 . S
C3173 H3159 0.929 . S
C3173 C3172 1.399 . S
C3173 C3174 1.385 . S
C3174 H3160 0.931 . S
C3174 C3173 1.385 . S
C3174 C3175 1.389 . S
C3175 C3174 1.389 . S
C3175 C3176 1.387 . S
C3176 H3161 0.930 . S
C3176 C3171 1.390 . S
C3176 C3175 1.387 . S
H3177 C3189 0.930 . S
H3178 C3191 0.930 . S
H3179 C3192 0.930 . S
H3180 C3196 0.959 . S
H3181 C3196 0.959 . S
H3182 C3196 0.961 . S
H3183 C3197 0.960 . S
H3184 C3197 0.961 . S
H3185 C3197 0.959 . S
H3186 C3200 0.929 . S
H3187 C3201 0.931 . S
H3188 C3203 0.930 . S
C3189 H3177 0.930 . S
C3189 C3190 1.399 . S
C3189 C3194 1.399 . S
C3190 C3189 1.399 . S
C3190 C3191 1.376 . S
C3191 H3178 0.930 . S
C3191 C3190 1.376 . S
C3191 C3192 1.388 . S
C3192 H3179 0.930 . S
C3192 C3191 1.388 . S
C3192 C3193 1.390 . S
C3193 C3192 1.390 . S
C3193 C3194 1.394 . S
C3193 C3199 1.465 . S
C3194 C3189 1.399 . S
C3194 C3193 1.394 . S
C3194 C3195 1.516 . S
C3195 C3194 1.516 . S
C3195 C3196 1.502 . S
C3195 C3197 1.561 . S
C3195 C3198 1.526 . S
C3196 H3180 0.959 . S
C3196 H3181 0.959 . S
C3196 H3182 0.961 . S
C3196 C3195 1.502 . S
C3197 H3183 0.960 . S
C3197 H3184 0.961 . S
C3197 H3185 0.959 . S
C3197 C3195 1.561 . S
C3198 C3195 1.526 . S
C3198 C3199 1.396 . S
C3198 C3203 1.390 . S
C3199 C3193 1.465 . S
C3199 C3198 1.396 . S
C3199 C3200 1.399 . S
C3200 H3186 0.929 . S
C3200 C3199 1.399 . S
C3200 C3201 1.385 . S
C3201 H3187 0.931 . S
C3201 C3200 1.385 . S
C3201 C3202 1.389 . S
C3202 C3201 1.389 . S
C3202 C3203 1.387 . S
C3203 H3188 0.930 . S
C3203 C3198 1.390 . S
C3203 C3202 1.387 . S
H3204 C3216 0.930 . S
H3205 C3218 0.930 . S
H3206 C3219 0.930 . S
H3207 C3223 0.959 . S
H3208 C3223 0.959 . S
H3209 C3223 0.961 . S
H3210 C3224 0.960 . S
H3211 C3224 0.961 . S
H3212 C3224 0.959 . S
H3213 C3227 0.929 . S
H3214 C3228 0.931 . S
H3215 C3230 0.930 . S
C3216 H3204 0.930 . S
C3216 C3217 1.399 . S
C3216 C3221 1.399 . S
C3217 C3216 1.399 . S
C3217 C3218 1.376 . S
C3218 H3205 0.930 . S
C3218 C3217 1.376 . S
C3218 C3219 1.388 . S
C3219 H3206 0.930 . S
C3219 C3218 1.388 . S
C3219 C3220 1.390 . S
C3220 C3219 1.390 . S
C3220 C3221 1.394 . S
C3220 C3226 1.465 . S
C3221 C3216 1.399 . S
C3221 C3220 1.394 . S
C3221 C3222 1.516 . S
C3222 C3221 1.516 . S
C3222 C3223 1.502 . S
C3222 C3224 1.561 . S
C3222 C3225 1.526 . S
C3223 H3207 0.959 . S
C3223 H3208 0.959 . S
C3223 H3209 0.961 . S
C3223 C3222 1.502 . S
C3224 H3210 0.960 . S
C3224 H3211 0.961 . S
C3224 H3212 0.959 . S
C3224 C3222 1.561 . S
C3225 C3222 1.526 . S
C3225 C3226 1.396 . S
C3225 C3230 1.390 . S
C3226 C3220 1.465 . S
C3226 C3225 1.396 . S
C3226 C3227 1.399 . S
C3227 H3213 0.929 . S
C3227 C3226 1.399 . S
C3227 C3228 1.385 . S
C3228 H3214 0.931 . S
C3228 C3227 1.385 . S
C3228 C3229 1.389 . S
C3229 C3228 1.389 . S
C3229 C3230 1.387 . S
C3230 H3215 0.930 . S
C3230 C3225 1.390 . S
C3230 C3229 1.387 . S
H3231 C3243 0.930 . S
H3232 C3245 0.930 . S
H3233 C3246 0.930 . S
H3234 C3250 0.959 . S
H3235 C3250 0.959 . S
H3236 C3250 0.961 . S
H3237 C3251 0.960 . S
H3238 C3251 0.961 . S
H3239 C3251 0.959 . S
H3240 C3254 0.929 . S
H3241 C3255 0.931 . S
H3242 C3257 0.930 . S
C3243 H3231 0.930 . S
C3243 C3244 1.399 . S
C3243 C3248 1.399 . S
C3244 C3243 1.399 . S
C3244 C3245 1.376 . S
C3245 H3232 0.930 . S
C3245 C3244 1.376 . S
C3245 C3246 1.388 . S
C3246 H3233 0.930 . S
C3246 C3245 1.388 . S
C3246 C3247 1.390 . S
C3247 C3246 1.390 . S
C3247 C3248 1.394 . S
C3247 C3253 1.465 . S
C3248 C3243 1.399 . S
C3248 C3247 1.394 . S
C3248 C3249 1.516 . S
C3249 C3248 1.516 . S
C3249 C3250 1.502 . S
C3249 C3251 1.561 1_655 S
C3249 C3252 1.526 . S
C3250 H3234 0.959 . S
C3250 H3235 0.959 . S
C3250 H3236 0.961 . S
C3250 C3249 1.502 . S
C3251 H3237 0.960 . S
C3251 H3238 0.961 . S
C3251 H3239 0.959 . S
C3251 C3249 1.561 1_455 S
C3252 C3249 1.526 . S
C3252 C3253 1.396 . S
C3252 C3257 1.390 . S
C3253 C3247 1.465 . S
C3253 C3252 1.396 . S
C3253 C3254 1.399 . S
C3254 H3240 0.929 . S
C3254 C3253 1.399 . S
C3254 C3255 1.385 . S
C3255 H3241 0.931 . S
C3255 C3254 1.385 . S
C3255 C3256 1.389 . S
C3256 C3255 1.389 . S
C3256 C3257 1.387 . S
C3257 H3242 0.930 . S
C3257 C3252 1.390 . S
C3257 C3256 1.387 . S
H3258 C3270 0.930 . S
H3259 C3272 0.930 . S
H3260 C3273 0.930 . S
H3261 C3277 0.959 . S
H3262 C3277 0.959 . S
H3263 C3277 0.961 . S
H3264 C3278 0.960 . S
H3265 C3278 0.961 . S
H3266 C3278 0.959 . S
H3267 C3281 0.929 . S
H3268 C3282 0.931 . S
H3269 C3284 0.930 . S
C3270 H3258 0.930 . S
C3270 C3271 1.399 . S
C3270 C3275 1.399 . S
C3271 C3270 1.399 . S
C3271 C3272 1.376 . S
C3272 H3259 0.930 . S
C3272 C3271 1.376 . S
C3272 C3273 1.388 . S
C3273 H3260 0.930 . S
C3273 C3272 1.388 . S
C3273 C3274 1.390 . S
C3274 C3273 1.390 . S
C3274 C3275 1.394 . S
C3274 C3280 1.465 . S
C3275 C3270 1.399 . S
C3275 C3274 1.394 . S
C3275 C3276 1.516 . S
C3276 C3275 1.516 . S
C3276 C3277 1.502 . S
C3276 C3278 1.561 . S
C3276 C3279 1.526 . S
C3277 H3261 0.959 . S
C3277 H3262 0.959 . S
C3277 H3263 0.961 . S
C3277 C3276 1.502 . S
C3278 H3264 0.960 . S
C3278 H3265 0.961 . S
C3278 H3266 0.959 . S
C3278 C3276 1.561 . S
C3279 C3276 1.526 . S
C3279 C3280 1.396 . S
C3279 C3284 1.390 . S
C3280 C3274 1.465 . S
C3280 C3279 1.396 . S
C3280 C3281 1.399 . S
C3281 H3267 0.929 . S
C3281 C3280 1.399 . S
C3281 C3282 1.385 . S
C3282 H3268 0.931 . S
C3282 C3281 1.385 . S
C3282 C3283 1.389 . S
C3283 C3282 1.389 . S
C3283 C3284 1.387 . S
C3284 H3269 0.930 . S
C3284 C3279 1.390 . S
C3284 C3283 1.387 . S
H3285 C3297 0.930 . S
H3286 C3299 0.930 . S
H3287 C3300 0.930 . S
H3288 C3304 0.959 . S
H3289 C3304 0.959 . S
H3290 C3304 0.961 . S
H3291 C3305 0.960 . S
H3292 C3305 0.961 . S
H3293 C3305 0.959 . S
H3294 C3308 0.890 1_565 S
H3295 C3309 0.931 1_565 S
H3296 C3311 0.930 . S
C3297 H3285 0.930 . S
C3297 C3298 1.399 . S
C3297 C3302 1.399 . S
C3298 C3297 1.399 . S
C3298 C3299 1.376 . S
C3299 H3286 0.930 . S
C3299 C3298 1.376 . S
C3299 C3300 1.388 . S
C3300 H3287 0.930 . S
C3300 C3299 1.388 . S
C3300 C3301 1.390 . S
C3301 C3300 1.390 . S
C3301 C3302 1.394 . S
C3301 C3307 1.465 . S
C3302 C3297 1.399 . S
C3302 C3301 1.394 . S
C3302 C3303 1.516 . S
C3303 C3302 1.516 . S
C3303 C3304 1.502 . S
C3303 C3305 1.561 . S
C3303 C3306 1.526 . S
C3304 H3288 0.959 . S
C3304 H3289 0.959 . S
C3304 H3290 0.961 . S
C3304 C3303 1.502 . S
C3305 H3291 0.960 . S
C3305 H3292 0.961 . S
C3305 H3293 0.959 . S
C3305 C3303 1.561 . S
C3306 C3303 1.526 . S
C3306 C3307 1.396 . S
C3306 C3311 1.390 . S
C3307 C3301 1.465 . S
C3307 C3306 1.396 . S
C3307 C3308 1.399 . S
C3308 H3294 0.890 1_545 S
C3308 C3307 1.399 . S
C3308 C3309 1.385 . S
C3309 H3295 0.931 1_545 S
C3309 C3308 1.385 . S
C3309 C3310 1.389 . S
C3310 C3309 1.389 . S
C3310 C3311 1.387 . S
C3311 H3296 0.930 . S
C3311 C3306 1.390 . S
C3311 C3310 1.387 . S
C1381 C8 1.536 . S
C1393 C857 1.515 . S
C1408 C22 1.536 . S
C1420 C901 1.545 . S
C1447 C981 1.538 . S
C1435 C37 1.572 1_545 S
C1462 C36 1.573 . S
C1474 C1025 1.522 . S
C1489 C9 1.566 1_455 S
C1501 C1105 1.471 . S
C1516 C23 1.571 . S
C1528 C1167 1.535 . S
C1543 C50 1.564 1_455 S
C1555 C1087 1.542 . S
C1582 C1149 1.464 . S
C1570 C64 1.536 . S
C1609 C1043 1.534 . S
C1597 C79 1.538 . S
C1624 C78 1.560 1_545 S
C1636 C963 1.504 . S
C1663 C839 1.519 . S
C1651 C51 1.576 . S
C1678 C65 1.557 . S
C1690 C919 1.553 . S
C1705 C92 1.552 . S
C1717 C1229 1.542 . S
C1732 C106 1.543 . S
C1744 C1273 1.552 . S
C1771 C1353 1.541 . S
C1759 C121 1.565 . S
C1786 C120 1.565 . S
C1798 C299 1.541 . S
C1813 C93 1.577 . S
C1825 C343 1.502 . S
C1840 C107 1.541 . S
C1852 C423 1.528 . S
C1867 C134 1.572 . S
C1879 C361 1.494 . S
C1894 C148 1.567 . S
C1906 C405 1.542 . S
C1933 C281 1.491 . S
C1921 C163 1.536 . S
C1960 C1335 1.510 . S
C1948 C162 1.574 . S
C1987 C1211 1.515 . S
C1975 C135 1.545 . S
C2014 C1291 1.539 . S
C2002 C149 1.574 . S
C2029 C176 1.577 . S
C2041 C485 1.508 . S
C2056 C190 1.571 . S
C2068 C547 1.476 . S
C2083 C205 1.545 . S
C2095 C591 1.497 . S
C2110 C204 1.542 . S
C2122 C653 1.505 . S
C2149 C715 1.550 . S
C2137 C177 1.539 . S
C2176 C795 1.542 . S
C2164 C191 1.563 . S
C2203 C733 1.545 . S
C2191 C218 1.571 . S
C2230 C777 1.464 . S
C2218 C232 1.549 . S
C2245 C247 1.574 . S
C2257 C671 1.499 . S
C2284 C609 1.496 . S
C2272 C246 1.573 . S
C2299 C219 1.535 . S
C2311 C467 1.466 . S
C2338 C529 1.543 . S
C2326 C233 1.571 . S
C2365 C305 1.455 . S
C2353 C6 1.513 . S
C2380 C20 1.461 . S
C2392 C349 1.455 . S
C2419 C429 1.490 . S
C2407 C35 1.506 . S
C2446 C491 1.429 . S
C2434 C34 1.472 . S
C2473 C553 1.428 . S
C2461 C7 1.492 . S
C2500 C597 1.496 . S
C2488 C21 1.460 . S
C2515 C48 1.493 . S
C2527 C615 1.482 . S
C2542 C62 1.460 . S
C2554 C473 1.498 . S
C2569 C77 1.471 . S
C2581 C535 1.500 . S
C2596 C76 1.457 . S
C2608 C367 1.503 . S
C2635 C411 1.429 . S
C2623 C49 1.487 . S
C2650 C63 1.461 . S
C2662 C287 1.459 . S
C2689 C659 1.432 . S
C2677 C90 1.494 . S
C2704 C104 1.513 . S
C2716 C721 1.469 . S
C2731 C119 1.472 . S
C2743 C801 1.428 . S
C2770 C863 1.447 . S
C2758 C118 1.456 . S
C2785 C91 1.485 . S
C2797 C907 1.502 . S
C2812 C105 1.455 . S
C2824 C987 1.461 . S
C2839 C132 1.461 . S
C2851 C969 1.498 . S
C2866 C146 1.455 . S
C2878 C845 1.488 . S
C2905 C925 1.438 . S
C2893 C161 1.514 . S
C2920 C160 1.462 . S
C2932 C739 1.474 . S
C2947 C133 1.500 . S
C2959 C783 1.426 . S
C2986 C677 1.504 . S
C2974 C147 1.462 . S
C3013 C1031 1.461 . S
C3001 C174 1.514 . S
C3028 C188 1.473 . S
C3040 C1111 1.431 . S
C3055 C203 1.491 . S
C3067 C1173 1.500 . S
C3094 C1235 1.472 . S
C3082 C202 1.456 . S
C3121 C1279 1.449 . S
C3109 C175 1.464 . S
C3136 C189 1.510 . S
C3148 C1359 1.485 . S
C3163 C216 1.486 . S
C3175 C1341 1.430 . S
C3190 C230 1.501 . S
C3202 C1217 1.426 . S
C3229 C1297 1.433 . S
C3217 C245 1.511 . S
C3256 C1093 1.430 . S
C3244 C244 1.502 . S
C3283 C1155 1.429 . S
C3271 C217 1.509 . S
C3298 C231 1.479 . S
C3310 C1049 1.495 . S
