# Generated by pormake.
# Topology rtl, (3,6)-cn, num edge types: 1
# Building blocks:
#     Node 0, Type 0, BuildingBlock: MIDCAF_clean_linker_0, # of connection points: 3
#     Node 1, Type 0, BuildingBlock: MIDCAF_clean_linker_0, # of connection points: 3
#     Node 2, Type 0, BuildingBlock: MIDCAF_clean_linker_0, # of connection points: 3
#     Node 3, Type 0, BuildingBlock: MIDCAF_clean_linker_0, # of connection points: 3
#     Node 4, Type 1, BuildingBlock: KUMJIN_clean_sbu_1, # of connection points: 6
#     Node 5, Type 1, BuildingBlock: KUMJIN_clean_sbu_1, # of connection points: 6
#     Edge 6, Type (0, 1), BuildingBlock: CIFDUS_clean_linker_0, # of connection points: 2
#     Edge 7, Type (0, 1), BuildingBlock: CIFDUS_clean_linker_0, # of connection points: 2
#     Edge 8, Type (0, 1), BuildingBlock: CIFDUS_clean_linker_0, # of connection points: 2
#     Edge 9, Type (0, 1), BuildingBlock: CIFDUS_clean_linker_0, # of connection points: 2
#     Edge 10, Type (0, 1), BuildingBlock: CIFDUS_clean_linker_0, # of connection points: 2
#     Edge 11, Type (0, 1), BuildingBlock: CIFDUS_clean_linker_0, # of connection points: 2
#     Edge 12, Type (0, 1), BuildingBlock: CIFDUS_clean_linker_0, # of connection points: 2
#     Edge 13, Type (0, 1), BuildingBlock: CIFDUS_clean_linker_0, # of connection points: 2
#     Edge 14, Type (0, 1), BuildingBlock: CIFDUS_clean_linker_0, # of connection points: 2
#     Edge 15, Type (0, 1), BuildingBlock: CIFDUS_clean_linker_0, # of connection points: 2
#     Edge 16, Type (0, 1), BuildingBlock: CIFDUS_clean_linker_0, # of connection points: 2
#     Edge 17, Type (0, 1), BuildingBlock: CIFDUS_clean_linker_0, # of connection points: 2
# Relax obj value: 0.018
# Max RMSD: 0.103
# Mean RMSD: 0.061
data_MOF--net-rtl--node1-KUMJIN_clean_sbu_1--node2-MIDCAF_clean_linker_0--edge1-CIFDUS_clean_linker_0
_symmetry_space_group_name_H-M    P1
_symmetry_Int_Tables_number       1
_symmetry_cell_setting            triclinic
loop_
_symmetry_equiv_pos_as_xyz
'x, y, z'
_cell_length_a     35.656924
_cell_length_b     36.403071
_cell_length_c     32.018576
_cell_angle_alpha  78.607879
_cell_angle_beta   99.658003
_cell_angle_gamma 90.376594
loop_
_atom_site_label
_atom_site_type_symbol
_atom_site_fract_x
_atom_site_fract_y
_atom_site_fract_z
_atom_type_partial_charge
C0 C 0.16329 0.90984 0.13125 0.0
C1 C 0.1874 0.89655 0.17083 0.0
C2 C 0.21885 0.87328 0.17157 0.0
C3 C 0.22587 0.86313 0.13376 0.0
H4 H 0.2657 0.7702 0.09274 0.0
H5 H 0.30951 0.71774 0.09957 0.0
H6 H 0.32647 0.75749 0.96773 0.0
H7 H 0.28098 0.80894 0.96033 0.0
H8 H 0.20893 0.85964 0.8993 0.0
H9 H 0.17191 0.88583 0.82876 0.0
H10 H 0.09892 0.94563 0.88897 0.0
H11 H 0.13564 0.91914 0.95986 0.0
H12 H 0.15128 0.91042 0.06327 0.0
H13 H 0.13894 0.92799 0.12971 0.0
H14 H 0.23765 0.86216 0.20165 0.0
H15 H 0.25025 0.84487 0.13581 0.0
N16 N 0.23492 0.83629 0.05751 0.0
N17 N 0.22316 0.8419 0.98231 0.0
N18 N 0.18984 0.88075 0.01483 0.0
C19 C 0.24218 0.82495 0.02172 0.0
C20 C 0.19683 0.86976 0.97856 0.0
C21 C 0.20901 0.86427 0.05443 0.0
C22 C 0.26979 0.79371 0.02595 0.0
C23 C 0.27882 0.76778 0.06521 0.0
C24 C 0.30421 0.73775 0.0692 0.0
C25 C 0.32174 0.7332 0.03425 0.0
C26 C 0.31302 0.75953 0.99511 0.0
C27 C 0.28709 0.78923 0.9909 0.0
C28 C 0.17525 0.88711 0.93543 0.0
C29 C 0.18509 0.87845 0.89766 0.0
C30 C 0.16401 0.89366 0.85711 0.0
C31 C 0.13249 0.91777 0.85331 0.0
C32 C 0.12285 0.92682 0.89093 0.0
C33 C 0.14406 0.91177 0.93154 0.0
C34 C 0.2017 0.87612 0.09413 0.0
C35 C 0.17048 0.89989 0.09321 0.0
C36 C 0.61794 0.61479 0.51273 0.0
C37 C 0.62619 0.62916 0.47134 0.0
C38 C 0.64426 0.66368 0.46393 0.0
C39 C 0.65491 0.68289 0.49764 0.0
H40 H 0.69931 0.78455 0.53238 0.0
H41 H 0.74616 0.83201 0.51823 0.0
H42 H 0.80694 0.79616 0.64874 0.0
H43 H 0.75847 0.7497 0.66344 0.0
H44 H 0.6962 0.70038 0.73071 0.0
H45 H 0.67531 0.67393 0.79943 0.0
H46 H 0.5822 0.6214 0.73077 0.0
H47 H 0.60254 0.64757 0.66283 0.0
H48 H 0.62191 0.62184 0.57794 0.0
H49 H 0.60359 0.58846 0.5192 0.0
H50 H 0.65113 0.6753 0.43237 0.0
H51 H 0.66946 0.70907 0.49105 0.0
N52 N 0.68468 0.7161 0.57123 0.0
N53 N 0.68854 0.71903 0.64456 0.0
N54 N 0.65038 0.67457 0.61493 0.0
C55 C 0.69872 0.7322 0.60526 0.0
C56 C 0.66384 0.69037 0.64934 0.0
C57 C 0.66072 0.68708 0.57586 0.0
C58 C 0.72545 0.76321 0.59889 0.0
C59 C 0.72249 0.78705 0.5582 0.0
C60 C 0.74959 0.81409 0.55001 0.0
C61 C 0.78094 0.81752 0.582 0.0
C62 C 0.78313 0.79455 0.62335 0.0
C63 C 0.75544 0.76783 0.63181 0.0
C64 C 0.65116 0.67602 0.69124 0.0
C65 C 0.67112 0.68341 0.73036 0.0
C66 C 0.65931 0.66815 0.76967 0.0
C67 C 0.62701 0.64577 0.77041 0.0
C68 C 0.60686 0.63896 0.73124 0.0
C69 C 0.6188 0.65376 0.69225 0.0
C70 C 0.6474 0.6681 0.53937 0.0
C71 C 0.62828 0.63408 0.54632 0.0
C72 C 0.88339 0.12476 0.94658 0.0
C73 C 0.86652 0.13919 0.90351 0.0
C74 C 0.83302 0.16143 0.89571 0.0
C75 C 0.81709 0.16945 0.93008 0.0
H76 H 0.75013 0.25349 0.96322 0.0
H77 H 0.70219 0.30324 0.95468 0.0
H78 H 0.67612 0.25548 0.08093 0.0
H79 H 0.72478 0.20691 0.09003 0.0
H80 H 0.80738 0.18417 0.15645 0.0
H81 H 0.83808 0.16274 0.23089 0.0
H82 H 0.90378 0.08016 0.19202 0.0
H83 H 0.87303 0.10169 0.11668 0.0
H84 H 0.88155 0.12137 0.01361 0.0
H85 H 0.90951 0.10799 0.95384 0.0
H86 H 0.81897 0.17259 0.86298 0.0
H87 H 0.79139 0.18684 0.92274 0.0
N88 N 0.78791 0.18954 1.00191 0.0
N89 N 0.78947 0.1835 0.07637 0.0
N90 N 0.83383 0.14986 0.05136 0.0
C91 C 0.77337 0.19875 0.03521 0.0
C92 C 0.81966 0.15916 0.08487 0.0
C93 C 0.81802 0.16486 0.00971 0.0
C94 C 0.74157 0.22652 0.02749 0.0
C95 C 0.73388 0.25349 0.98893 0.0
C96 C 0.70631 0.28196 0.98402 0.0
C97 C 0.68561 0.28375 0.01739 0.0
C98 C 0.69221 0.25567 0.05506 0.0
C99 C 0.71999 0.2276 0.06016 0.0
C100 C 0.83778 0.14474 0.13037 0.0
C101 C 0.82823 0.16133 0.16348 0.0
C102 C 0.84597 0.14923 0.20623 0.0
C103 C 0.87345 0.11999 0.21714 0.0
C104 C 0.88256 0.10272 0.18441 0.0
C105 C 0.86508 0.11516 0.14133 0.0
C106 C 0.83423 0.15536 0.97317 0.0
C107 C 0.86743 0.13267 0.98094 0.0
C108 C 0.40823 0.36166 0.57487 0.0
C109 C 0.40676 0.33516 0.61307 0.0
C110 C 0.39143 0.30001 0.60983 0.0
C111 C 0.37647 0.292 0.56969 0.0
H112 H 0.28383 0.24309 0.5288 0.0
H113 H 0.22912 0.20488 0.53739 0.0
H114 H 0.19631 0.22147 0.39885 0.0
H115 H 0.25204 0.26059 0.38965 0.0
H116 H 0.30555 0.32129 0.33187 0.0
H117 H 0.32458 0.34994 0.26307 0.0
H118 H 0.42741 0.38787 0.3319 0.0
H119 H 0.4088 0.35933 0.40034 0.0
H120 H 0.39386 0.37466 0.5055 0.0
H121 H 0.42007 0.38893 0.57639 0.0
H122 H 0.38936 0.27913 0.63852 0.0
H123 H 0.36384 0.26497 0.56868 0.0
N124 N 0.32618 0.28788 0.49126 0.0
N125 N 0.31453 0.29698 0.41574 0.0
N126 N 0.3648 0.32774 0.45148 0.0
C127 C 0.30527 0.28054 0.4546 0.0
C128 C 0.34453 0.32051 0.414 0.0
C129 C 0.35574 0.31126 0.49025 0.0
C130 C 0.27237 0.25547 0.45838 0.0
C131 C 0.26522 0.23892 0.49981 0.0
C132 C 0.2336 0.217 0.50492 0.0
C133 C 0.20809 0.21069 0.46886 0.0
C134 C 0.21554 0.22604 0.42723 0.0
C135 C 0.24737 0.24843 0.422 0.0
C136 C 0.35558 0.33793 0.37183 0.0
C137 C 0.33225 0.33568 0.33237 0.0
C138 C 0.34305 0.35222 0.2929 0.0
C139 C 0.3776 0.371 0.29202 0.0
C140 C 0.40089 0.37315 0.33142 0.0
C141 C 0.38999 0.35696 0.37075 0.0
C142 C 0.37656 0.31882 0.53157 0.0
C143 C 0.39351 0.35342 0.53436 0.0
Eu144 Eu 0.02574 0.96913 0.51427 0.0
C145 C 0.91081 0.1034 0.4869 0.0
N146 N 0.94877 0.10246 0.50179 0.0
C147 C 0.95539 0.16076 0.45387 0.0
C148 C 0.89375 0.13245 0.45328 0.0
C149 C 0.97101 0.13116 0.48706 0.0
C150 C 0.91667 0.16113 0.43643 0.0
C151 C 0.84914 0.07687 0.49336 0.0
C152 C 0.88896 0.07594 0.50663 0.0
C153 C 0.83213 0.10462 0.45838 0.0
C154 C 0.8544 0.13239 0.4384 0.0
Eu155 Eu 0.97375 0.05093 0.5563 0.0
N156 N 0.90628 0.05 0.54084 0.0
C157 C 0.82752 0.05082 0.51675 0.0
C158 C 0.88497 0.02692 0.56601 0.0
C159 C 0.84546 0.02623 0.55378 0.0
H160 H 1.00093 0.13069 0.50043 0.0
H161 H 0.82884 0.00717 0.57332 0.0
H162 H 0.97275 0.89339 0.54356 0.0
H163 H 0.17887 0.98214 0.55679 0.0
H164 H 0.89824 0.00945 0.596 0.0
H165 H 0.79686 0.05057 0.50763 0.0
H166 H 0.11425 0.99854 0.51455 0.0
H167 H 0.97321 0.18311 0.44159 0.0
H168 H 0.80164 0.10553 0.44742 0.0
H169 H 0.84079 0.15421 0.41224 0.0
H170 H 0.97648 0.83788 0.60224 0.0
H171 H 0.90466 0.18399 0.4106 0.0
H172 H 0.1882 0.92861 0.61904 0.0
N173 N 0.02738 0.91258 0.56642 0.0
C174 C 0.06123 0.90311 0.59316 0.0
C175 C 1.00032 0.85637 0.6006 0.0
C176 C 0.06534 0.87064 0.62612 0.0
C177 C 0.99791 0.8885 0.56798 0.0
C178 C 0.03396 0.84777 0.63036 0.0
N179 N 0.08783 0.95533 0.55332 0.0
C180 C 0.11831 0.97525 0.54178 0.0
C181 C 0.12869 0.91437 0.61093 0.0
C182 C 0.09255 0.92466 0.58584 0.0
C183 C 0.15994 0.93567 0.60059 0.0
C184 C 0.15479 0.96595 0.56551 0.0
H185 H 0.03592 0.82259 0.65527 0.0
H186 H 0.10445 0.83665 0.67842 0.0
H187 H 0.15995 0.87495 0.66505 0.0
O188 O 0.04692 0.9759 0.45291 0.0
O189 O 0.05335 0.99262 0.57254 0.0
O190 O 1.00152 0.99997 0.60279 0.0
O191 O 0.02917 0.9217 0.48264 0.0
O192 O 0.04307 0.02831 0.48877 0.0
O193 O 0.03294 0.06338 0.53965 0.0
O194 O 0.95029 0.07552 0.60404 0.0
O195 O 0.97107 0.05479 0.48399 0.0
O196 O 0.96809 0.99309 0.47927 0.0
O197 O 0.00715 0.08831 0.59244 0.0
O198 O 0.95821 0.99015 0.57956 0.0
O199 O 0.96389 0.96069 0.52325 0.0
C200 C 0.03778 0.9921 0.60687 0.0
C201 C 0.07959 0.92295 0.44327 0.0
C202 C 0.11806 0.90926 0.39165 0.0
C203 C 0.14499 0.89031 0.42636 0.0
C204 C 0.10658 0.90353 0.47738 0.0
C205 C 0.1392 0.88752 0.4689 0.0
C206 C 0.0854 0.92573 0.40049 0.0
C207 C 0.04968 0.05743 0.50757 0.0
C208 C 0.04529 0.9404 0.45177 0.0
C209 C 0.10088 0.86128 0.65267 0.0
C210 C 0.13252 0.88303 0.64499 0.0
C211 C 0.9618 0.02858 0.46155 0.0
C212 C 0.99678 0.08014 0.66485 0.0
C213 C 0.98593 0.074 0.73935 0.0
C214 C 0.0227 0.05795 0.75417 0.0
C215 C 0.03364 0.06444 0.68063 0.0
C216 C 0.97319 0.08523 0.69449 0.0
C217 C 0.04639 0.05346 0.72496 0.0
C218 C 0.94776 0.96449 0.5564 0.0
C219 C 0.98243 0.08988 0.61774 0.0
H220 H 0.17013 0.87689 0.42062 0.0
H221 H 0.10237 0.90043 0.51051 0.0
H222 H 0.15988 0.87256 0.49536 0.0
H223 H 0.06456 0.9408 0.37418 0.0
H224 H 0.03338 0.04937 0.78845 0.0
H225 H 0.05262 0.06027 0.65879 0.0
H226 H 0.94472 0.0972 0.68266 0.0
H227 H 0.07473 0.04126 0.73673 0.0
Eu228 Eu 0.46245 0.48177 0.99 0.0
C229 C 0.61311 0.56683 0.03048 0.0
N230 N 0.6034 0.53341 0.05292 0.0
C231 C 0.66587 0.50785 0.05644 0.0
C232 C 0.64972 0.57172 0.01934 0.0
C233 C 0.6292 0.50425 0.06654 0.0
C234 C 0.67613 0.54166 0.03255 0.0
C235 C 0.59505 0.63063 0.99338 0.0
C236 C 0.58592 0.59588 0.0174 0.0
C237 C 0.6314 0.63549 0.98204 0.0
C238 C 0.65865 0.60614 0.995 0.0
Eu239 Eu 0.54061 0.52946 0.06734 0.0
N240 N 0.55052 0.59008 0.0278 0.0
C241 C 0.56744 0.65961 0.98168 0.0
C242 C 0.52456 0.61909 0.01903 0.0
C243 C 0.53226 0.65397 0.99516 0.0
H244 H 0.62171 0.47842 0.08585 0.0
H245 H 0.51124 0.67666 0.98775 0.0
H246 H 0.38086 0.53219 0.96611 0.0
H247 H 0.4908 0.3354 0.07365 0.0
H248 H 0.49836 0.61607 0.03138 0.0
H249 H 0.57334 0.6867 0.96324 0.0
H250 H 0.50421 0.395 0.02832 0.0
H251 H 0.68622 0.48458 0.0672 0.0
H252 H 0.63877 0.6619 0.96334 0.0
H253 H 0.68654 0.61032 0.98593 0.0
H254 H 0.31583 0.52697 0.98354 0.0
H255 H 0.70452 0.54431 0.0246 0.0
H256 H 0.4285 0.32663 0.09794 0.0
N257 N 0.39894 0.478 1.00182 0.0
C258 C 0.38919 0.44537 0.02587 0.0
C259 C 0.33623 0.50389 0.99582 0.0
C260 C 0.3524 0.44107 0.03656 0.0
C261 C 0.37312 0.50694 0.9863 0.0
C262 C 0.32588 0.47089 0.02127 0.0
N263 N 0.4519 0.42163 0.03033 0.0
C264 C 0.4778 0.3925 0.04032 0.0
C265 C 0.40705 0.38231 0.06574 0.0
C266 C 0.41639 0.41643 0.04062 0.0
C267 C 0.43456 0.35327 0.07864 0.0
C268 C 0.46985 0.35819 0.06524 0.0
H269 H 0.29732 0.46868 0.02878 0.0
H270 H 0.31532 0.40371 0.07111 0.0
H271 H 0.36305 0.35222 0.09645 0.0
O272 O 0.4761 0.45482 0.93918 0.0
O273 O 0.45388 0.48088 0.05916 0.0
O274 O 0.51446 0.47586 0.09754 0.0
O275 O 0.42075 0.48137 0.9315 0.0
O276 O 0.52389 0.45967 0.00285 0.0
O277 O 0.5507 0.46753 0.07137 0.0
O278 O 0.5322 0.56065 0.11699 0.0
O279 O 0.54867 0.53041 0.99801 0.0
O280 O 0.48775 0.53588 0.96048 0.0
O281 O 0.58366 0.52742 0.12501 0.0
O282 O 0.47884 0.55115 0.05541 0.0
O283 O 0.45224 0.54353 0.98664 0.0
C284 C 0.47806 0.46903 0.09487 0.0
C285 C 0.42538 0.42933 0.89842 0.0
C286 C 0.41277 0.39533 0.83936 0.0
C287 C 0.39787 0.36601 0.8669 0.0
C288 C 0.41009 0.4 0.92533 0.0
C289 C 0.39635 0.36851 0.90955 0.0
C290 C 0.42633 0.4271 0.85534 0.0
C291 C 0.54962 0.45091 0.03821 0.0
C292 C 0.44253 0.46131 0.91539 0.0
C293 C 0.34335 0.40741 0.06233 0.0
C294 C 0.37058 0.37812 0.07685 0.0
C295 C 0.52421 0.54206 0.96241 0.0
C296 C 0.55952 0.53186 0.18784 0.0
C297 C 0.56342 0.53921 0.26258 0.0
C298 C 0.55043 0.50246 0.27315 0.0
C299 C 0.54751 0.49508 0.19935 0.0
C300 C 0.56759 0.55382 0.21948 0.0
C301 C 0.5427 0.48057 0.24171 0.0
C302 C 0.45321 0.5601 0.01985 0.0
C303 C 0.56343 0.54745 0.14287 0.0
H304 H 0.38702 0.34135 0.85525 0.0
H305 H 0.40909 0.40124 0.95852 0.0
H306 H 0.38469 0.34589 0.9305 0.0
H307 H 0.43844 0.44962 0.83459 0.0
H308 H 0.54609 0.49062 0.30571 0.0
H309 H 0.54206 0.47763 0.17557 0.0
H310 H 0.57773 0.58196 0.21059 0.0
H311 H 0.53305 0.45224 0.25023 0.0
H312 H 0.18113 0.15231 0.43146 0.0
H313 H 0.15867 0.21884 0.5225 0.0
H314 H 0.10717 0.17795 0.54173 0.0
H315 H 0.07116 0.12138 0.53608 0.0
H316 H 0.09291 0.05433 0.44501 0.0
H317 H 0.14185 0.09727 0.42252 0.0
C318 C 0.16449 0.15813 0.45494 0.0
C319 C 0.1739 0.18834 0.47579 0.0
C320 C 0.13505 0.1342 0.46625 0.0
C321 C 0.15228 0.19545 0.50641 0.0
C322 C 0.12283 0.1721 0.51744 0.0
C323 C 0.08635 0.11616 0.51111 0.0
C324 C 0.07837 0.08441 0.4926 0.0
C325 C 0.11445 0.14098 0.49819 0.0
C326 C 0.09846 0.07838 0.46013 0.0
C327 C 0.12651 0.10298 0.44713 0.0
H328 H 0.33093 0.69285 0.97303 0.0
H329 H 0.37353 0.70076 0.10539 0.0
H330 H 0.41612 0.64689 0.1132 0.0
H331 H 0.44197 0.59795 0.08237 0.0
H332 H 0.40385 0.59432 0.94791 0.0
H333 H 0.35915 0.64626 0.94113 0.0
C334 C 0.34988 0.68328 0.00345 0.0
C335 C 0.34866 0.70096 0.03858 0.0
C336 C 0.37509 0.65284 0.00749 0.0
C337 C 0.3731 0.68742 0.07795 0.0
C338 C 0.39777 0.65671 0.08242 0.0
C339 C 0.42386 0.60844 0.05156 0.0
C340 C 0.42588 0.59164 0.01597 0.0
C341 C 0.39897 0.63918 0.04742 0.0
C342 C 0.40242 0.606 0.97621 0.0
C343 C 0.37698 0.63597 0.97214 0.0
H344 H 0.82328 0.86007 0.63359 0.0
H345 H 0.8089 0.83365 0.50617 0.0
H346 H 0.85772 0.87755 0.48689 0.0
H347 H 0.90461 0.92342 0.50564 0.0
H348 H 0.92358 0.94632 0.63456 0.0
H349 H 0.87309 0.90373 0.65376 0.0
C350 C 0.83105 0.86357 0.60176 0.0
C351 C 0.81178 0.84383 0.57128 0.0
C352 C 0.85998 0.88835 0.59101 0.0
C353 C 0.82227 0.84911 0.53004 0.0
C354 C 0.85053 0.87402 0.51899 0.0
C355 C 0.89784 0.91899 0.53803 0.0
C356 C 0.91753 0.93836 0.56843 0.0
C357 C 0.86946 0.89386 0.54913 0.0
C358 C 0.90842 0.93223 0.61027 0.0
C359 C 0.87969 0.90771 0.62136 0.0
H360 H 0.67379 0.32017 0.0808 0.0
H361 H 0.63575 0.31871 0.9458 0.0
H362 H 0.59132 0.37095 0.94016 0.0
H363 H 0.56283 0.41647 0.97373 0.0
H364 H 0.59818 0.41493 0.10989 0.0
H365 H 0.64385 0.36404 0.11488 0.0
C366 C 0.65544 0.33083 0.05022 0.0
C367 C 0.65815 0.31533 0.01381 0.0
C368 C 0.62952 0.3604 0.04737 0.0
C369 C 0.63469 0.33029 0.97425 0.0
C370 C 0.60908 0.36004 0.97105 0.0
C371 C 0.58049 0.40504 0.00455 0.0
C372 C 0.57736 0.41993 0.04125 0.0
C373 C 0.60625 0.37528 0.00741 0.0
C374 C 0.60036 0.40452 0.08093 0.0
C375 C 0.62639 0.37525 0.08389 0.0
H376 H 0.11924 0.89493 0.19858 0.0
H377 H 0.23777 0.91797 0.23507 0.0
H378 H 0.22626 0.92613 0.30579 0.0
H379 H 0.18339 0.92301 0.35872 0.0
H380 H 0.06516 0.89843 0.32308 0.0
H381 H 0.07545 0.89558 0.25023 0.0
C382 C 0.14238 0.90239 0.22175 0.0
C383 C 0.17935 0.90554 0.21174 0.0
C384 C 0.13563 0.9067 0.26252 0.0
C385 C 0.20916 0.91485 0.24226 0.0
C386 C 0.20259 0.9196 0.28265 0.0
C387 C 0.15988 0.91701 0.335 0.0
C388 C 0.12366 0.91065 0.34643 0.0
C389 C 0.16612 0.91485 0.29342 0.0
C390 C 0.09329 0.90369 0.31506 0.0
C391 C 0.0992 0.9018 0.27347 0.0
H392 H 0.5552 0.64337 0.78823 0.0
H393 H 0.67102 0.60853 0.84486 0.0
H394 H 0.64947 0.57352 0.90964 0.0
H395 H 0.59717 0.54916 0.94749 0.0
H396 H 0.48152 0.58549 0.89138 0.0
H397 H 0.50345 0.62253 0.82829 0.0
C398 C 0.57573 0.6282 0.81485 0.0
C399 C 0.61459 0.62827 0.81164 0.0
C400 C 0.56312 0.60793 0.85168 0.0
C401 C 0.64097 0.60907 0.84665 0.0
C402 C 0.62863 0.5888 0.88351 0.0
C403 C 0.57682 0.56574 0.9219 0.0
C404 C 0.53778 0.56468 0.92438 0.0
C405 C 0.5897 0.58752 0.88602 0.0
C406 C 0.51171 0.58558 0.89028 0.0
C407 C 0.52424 0.60696 0.85426 0.0
H408 H 0.88407 0.04916 0.26532 0.0
H409 H 0.90583 0.16495 0.27078 0.0
H410 H 0.93549 0.14681 0.34662 0.0
H411 H 0.95511 0.09824 0.41107 0.0
H412 H 0.93126 0.98253 0.40739 0.0
H413 H 0.90328 0.00028 0.33091 0.0
C414 C 0.89563 0.07029 0.28312 0.0
C415 C 0.8928 0.1083 0.26259 0.0
C416 C 0.91225 0.0597 0.32692 0.0
C417 C 0.90745 0.13553 0.28605 0.0
C418 C 0.92446 0.1252 0.32934 0.0
C419 C 0.94328 0.07695 0.39385 0.0
C420 C 0.94482 0.03925 0.41521 0.0
C421 C 0.9268 0.08741 0.35014 0.0
C422 C 0.93034 0.01185 0.39185 0.0
C423 C 0.91429 0.02197 0.34809 0.0
H424 H 0.39073 0.39944 0.63895 0.0
H425 H 0.44774 0.29126 0.68508 0.0
H426 H 0.4562 0.30118 0.75923 0.0
H427 H 0.44224 0.33804 0.81155 0.0
H428 H 0.38622 0.44654 0.766 0.0
H429 H 0.383 0.43938 0.69098 0.0
C430 C 0.40584 0.37845 0.6651 0.0
C431 C 0.41814 0.34445 0.65653 0.0
C432 C 0.4104 0.38423 0.7078 0.0
C433 C 0.43742 0.31741 0.69089 0.0
C434 C 0.44227 0.32304 0.7333 0.0
C435 C 0.42955 0.36015 0.7851 0.0
C436 C 0.41405 0.39252 0.7941 0.0
C437 C 0.42789 0.35585 0.74224 0.0
C438 C 0.39828 0.42135 0.75971 0.0
C439 C 0.39634 0.4172 0.71689 0.0
H440 H 0.59221 0.6548 0.38791 0.0
H441 H 0.64005 0.55485 0.47683 0.0
H442 H 0.6253 0.51848 0.42003 0.0
H443 H 0.59941 0.51512 0.34528 0.0
H444 H 0.54931 0.61429 0.25647 0.0
H445 H 0.56525 0.65112 0.31276 0.0
C446 C 0.59955 0.6251 0.39469 0.0
C447 C 0.61707 0.60749 0.43648 0.0
C448 C 0.59082 0.60429 0.3619 0.0
C449 C 0.62611 0.56892 0.44502 0.0
C450 C 0.61787 0.54816 0.41254 0.0
C451 C 0.5915 0.54469 0.33829 0.0
C452 C 0.57308 0.56181 0.29667 0.0
C453 C 0.60015 0.56553 0.37093 0.0
C454 C 0.5639 0.60041 0.28803 0.0
C455 C 0.57277 0.62146 0.3203 0.0
H456 H 0.89963 0.07394 0.89611 0.0
H457 H 0.87388 0.18815 0.82867 0.0
H458 H 0.90588 0.17724 0.77038 0.0
H459 H 0.94477 0.1364 0.74059 0.0
H460 H 0.97246 0.02304 0.80953 0.0
H461 H 0.93662 0.03263 0.86536 0.0
C462 C 0.90116 0.09653 0.86878 0.0
C463 C 0.88445 0.13186 0.86701 0.0
C464 C 0.92019 0.09028 0.83568 0.0
C465 C 0.88609 0.16054 0.8308 0.0
C466 C 0.90464 0.15442 0.79753 0.0
C467 C 0.94247 0.11368 0.76754 0.0
C468 C 0.96139 0.07914 0.77105 0.0
C469 C 0.92218 0.11953 0.79984 0.0
C470 C 0.95851 0.05004 0.80639 0.0
C471 C 0.93797 0.05547 0.83827 0.0
H472 H 0.44748 0.36775 0.26932 0.0
H473 H 0.33399 0.41438 0.22107 0.0
H474 H 0.35455 0.44759 0.15484 0.0
H475 H 0.40598 0.46685 0.11303 0.0
H476 H 0.51886 0.41833 0.1606 0.0
H477 H 0.49755 0.38311 0.2251 0.0
C478 C 0.42725 0.38525 0.24434 0.0
C479 C 0.38936 0.3889 0.25038 0.0
C480 C 0.4393 0.40437 0.20651 0.0
C481 C 0.36329 0.41099 0.21723 0.0
C482 C 0.37509 0.43019 0.17947 0.0
C483 C 0.42581 0.4483 0.13733 0.0
C484 C 0.4642 0.44597 0.13252 0.0
C485 C 0.41319 0.42758 0.17409 0.0
C486 C 0.48944 0.42155 0.16412 0.0
C487 C 0.47721 0.40114 0.20087 0.0
H488 H 0.15771 0.94667 0.77829 0.0
H489 H 0.05499 0.92207 0.83184 0.0
H490 H 0.01658 0.94363 0.76046 0.0
H491 H 0.01229 0.96705 0.68239 0.0
H492 H 0.11483 0.99386 0.6293 0.0
H493 H 0.15329 0.97295 0.70072 0.0
C494 C 0.12692 0.94587 0.77427 0.0
C495 C 0.10926 0.93257 0.81026 0.0
C496 C 0.10503 0.95819 0.73315 0.0
C497 C 0.0693 0.93242 0.80472 0.0
C498 C 0.04732 0.94449 0.76387 0.0
C499 C 0.04305 0.96842 0.68649 0.0
C500 C 0.0608 0.98109 0.65045 0.0
C501 C 0.0649 0.95708 0.72781 0.0
C502 C 0.10061 0.98317 0.65635 0.0
C503 C 0.12258 0.97152 0.69724 0.0
loop_
_geom_bond_atom_site_label_1
_geom_bond_atom_site_label_2
_geom_bond_distance
_geom_bond_site_symmetry_2
_ccdc_geom_bond_type
C0 C1 1.384 . S
C0 H13 0.947 . S
C0 C35 1.382 . S
C1 C0 1.384 . S
C1 C2 1.378 . S
C2 C1 1.378 . S
C2 C3 1.378 . S
C2 H14 0.952 . S
C3 C2 1.378 . S
C3 H15 0.950 . S
C3 C34 1.383 . S
H4 C23 0.947 . S
H5 C24 0.946 . S
H6 C26 0.953 . S
H7 C27 0.945 . S
H8 C29 0.952 . S
H9 C30 0.949 . S
H10 C32 0.950 . S
H11 C33 0.948 . S
H12 C35 0.951 . S
H13 C0 0.947 . S
H14 C2 0.952 . S
H15 C3 0.950 . S
N16 C19 1.382 . S
N16 C21 1.363 . S
N17 C19 1.371 1_556 S
N17 C20 1.372 . S
N18 C20 1.361 1_554 S
N18 C21 1.377 . S
C19 N16 1.382 . S
C19 N17 1.371 1_554 S
C19 C22 1.480 . S
C20 N17 1.372 . S
C20 N18 1.361 1_556 S
C20 C28 1.457 . S
C21 N16 1.363 . S
C21 N18 1.377 . S
C21 C34 1.479 . S
C22 C19 1.480 . S
C22 C23 1.383 . S
C22 C27 1.385 1_554 S
C23 H4 0.947 . S
C23 C22 1.383 . S
C23 C24 1.388 . S
C24 H5 0.946 . S
C24 C23 1.388 . S
C24 C25 1.384 . S
C25 C24 1.384 . S
C25 C26 1.377 1_554 S
C26 H6 0.953 . S
C26 C25 1.377 1_556 S
C26 C27 1.369 . S
C27 H7 0.945 . S
C27 C22 1.385 1_556 S
C27 C26 1.369 . S
C28 C20 1.457 . S
C28 C29 1.372 . S
C28 C33 1.364 . S
C29 H8 0.952 . S
C29 C28 1.372 . S
C29 C30 1.389 . S
C30 H9 0.949 . S
C30 C29 1.389 . S
C30 C31 1.387 . S
C31 C30 1.387 . S
C31 C32 1.372 . S
C32 H10 0.950 . S
C32 C31 1.372 . S
C32 C33 1.379 . S
C33 H11 0.948 . S
C33 C28 1.364 . S
C33 C32 1.379 . S
C34 C3 1.383 . S
C34 C21 1.479 . S
C34 C35 1.398 . S
C35 C0 1.382 . S
C35 H12 0.951 . S
C35 C34 1.398 . S
C36 C37 1.384 . S
C36 H49 0.947 . S
C36 C71 1.382 . S
C37 C36 1.384 . S
C37 C38 1.378 . S
C38 C37 1.378 . S
C38 C39 1.378 . S
C38 H50 0.952 . S
C39 C38 1.378 . S
C39 H51 0.950 . S
C39 C70 1.383 . S
H40 C59 0.947 . S
H41 C60 0.946 . S
H42 C62 0.953 . S
H43 C63 0.945 . S
H44 C65 0.952 . S
H45 C66 0.949 . S
H46 C68 0.950 . S
H47 C69 0.948 . S
H48 C71 0.951 . S
H49 C36 0.947 . S
H50 C38 0.952 . S
H51 C39 0.950 . S
N52 C55 1.382 . S
N52 C57 1.363 . S
N53 C55 1.371 . S
N53 C56 1.372 . S
N54 C56 1.361 . S
N54 C57 1.377 . S
C55 N52 1.382 . S
C55 N53 1.371 . S
C55 C58 1.480 . S
C56 N53 1.372 . S
C56 N54 1.361 . S
C56 C64 1.457 . S
C57 N52 1.363 . S
C57 N54 1.377 . S
C57 C70 1.479 . S
C58 C55 1.480 . S
C58 C59 1.383 . S
C58 C63 1.385 . S
C59 H40 0.947 . S
C59 C58 1.383 . S
C59 C60 1.388 . S
C60 H41 0.946 . S
C60 C59 1.388 . S
C60 C61 1.384 . S
C61 C60 1.384 . S
C61 C62 1.377 . S
C62 H42 0.953 . S
C62 C61 1.377 . S
C62 C63 1.369 . S
C63 H43 0.945 . S
C63 C58 1.385 . S
C63 C62 1.369 . S
C64 C56 1.457 . S
C64 C65 1.372 . S
C64 C69 1.364 . S
C65 H44 0.952 . S
C65 C64 1.372 . S
C65 C66 1.389 . S
C66 H45 0.949 . S
C66 C65 1.389 . S
C66 C67 1.387 . S
C67 C66 1.387 . S
C67 C68 1.372 . S
C68 H46 0.950 . S
C68 C67 1.372 . S
C68 C69 1.379 . S
C69 H47 0.948 . S
C69 C64 1.364 . S
C69 C68 1.379 . S
C70 C39 1.383 . S
C70 C57 1.479 . S
C70 C71 1.398 . S
C71 C36 1.382 . S
C71 H48 0.951 . S
C71 C70 1.398 . S
C72 C73 1.384 . S
C72 H85 0.947 . S
C72 C107 1.382 . S
C73 C72 1.384 . S
C73 C74 1.378 . S
C74 C73 1.378 . S
C74 C75 1.378 . S
C74 H86 0.952 . S
C75 C74 1.378 . S
C75 H87 0.950 . S
C75 C106 1.383 . S
H76 C95 0.947 1_556 S
H77 C96 0.946 . S
H78 C98 0.953 . S
H79 C99 0.945 . S
H80 C101 0.952 . S
H81 C102 0.949 . S
H82 C104 0.950 . S
H83 C105 0.948 . S
H84 C107 0.951 1_554 S
H85 C72 0.947 . S
H86 C74 0.952 . S
H87 C75 0.950 . S
N88 C91 1.382 . S
N88 C93 1.363 . S
N89 C91 1.371 . S
N89 C92 1.372 . S
N90 C92 1.361 . S
N90 C93 1.377 . S
C91 N88 1.382 . S
C91 N89 1.371 . S
C91 C94 1.480 . S
C92 N89 1.372 . S
C92 N90 1.361 . S
C92 C100 1.457 . S
C93 N88 1.363 . S
C93 N90 1.377 . S
C93 C106 1.479 1_554 S
C94 C91 1.480 . S
C94 C95 1.383 . S
C94 C99 1.385 . S
C95 H76 0.947 1_554 S
C95 C94 1.383 . S
C95 C96 1.388 1_554 S
C96 H77 0.946 . S
C96 C95 1.388 1_556 S
C96 C97 1.384 1_556 S
C97 C96 1.384 1_554 S
C97 C98 1.377 . S
C98 H78 0.953 . S
C98 C97 1.377 . S
C98 C99 1.369 . S
C99 H79 0.945 . S
C99 C94 1.385 . S
C99 C98 1.369 . S
C100 C92 1.457 . S
C100 C101 1.372 . S
C100 C105 1.364 . S
C101 H80 0.952 . S
C101 C100 1.372 . S
C101 C102 1.389 . S
C102 H81 0.949 . S
C102 C101 1.389 . S
C102 C103 1.387 . S
C103 C102 1.387 . S
C103 C104 1.372 . S
C104 H82 0.950 . S
C104 C103 1.372 . S
C104 C105 1.379 . S
C105 H83 0.948 . S
C105 C100 1.364 . S
C105 C104 1.379 . S
C106 C75 1.383 . S
C106 C93 1.479 1_556 S
C106 C107 1.398 . S
C107 C72 1.382 . S
C107 H84 0.951 1_556 S
C107 C106 1.398 . S
C108 C109 1.384 . S
C108 H121 0.947 . S
C108 C143 1.382 . S
C109 C108 1.384 . S
C109 C110 1.378 . S
C110 C109 1.378 . S
C110 C111 1.378 . S
C110 H122 0.952 . S
C111 C110 1.378 . S
C111 H123 0.950 . S
C111 C142 1.383 . S
H112 C131 0.947 . S
H113 C132 0.946 . S
H114 C134 0.953 . S
H115 C135 0.945 . S
H116 C137 0.952 . S
H117 C138 0.949 . S
H118 C140 0.950 . S
H119 C141 0.948 . S
H120 C143 0.951 . S
H121 C108 0.947 . S
H122 C110 0.952 . S
H123 C111 0.950 . S
N124 C127 1.382 . S
N124 C129 1.363 . S
N125 C127 1.371 . S
N125 C128 1.372 . S
N126 C128 1.361 . S
N126 C129 1.377 . S
C127 N124 1.382 . S
C127 N125 1.371 . S
C127 C130 1.480 . S
C128 N125 1.372 . S
C128 N126 1.361 . S
C128 C136 1.457 . S
C129 N124 1.363 . S
C129 N126 1.377 . S
C129 C142 1.479 . S
C130 C127 1.480 . S
C130 C131 1.383 . S
C130 C135 1.385 . S
C131 H112 0.947 . S
C131 C130 1.383 . S
C131 C132 1.388 . S
C132 H113 0.946 . S
C132 C131 1.388 . S
C132 C133 1.384 . S
C133 C132 1.384 . S
C133 C134 1.377 . S
C134 H114 0.953 . S
C134 C133 1.377 . S
C134 C135 1.369 . S
C135 H115 0.945 . S
C135 C130 1.385 . S
C135 C134 1.369 . S
C136 C128 1.457 . S
C136 C137 1.372 . S
C136 C141 1.364 . S
C137 H116 0.952 . S
C137 C136 1.372 . S
C137 C138 1.389 . S
C138 H117 0.949 . S
C138 C137 1.389 . S
C138 C139 1.387 . S
C139 C138 1.387 . S
C139 C140 1.372 . S
C140 H118 0.950 . S
C140 C139 1.372 . S
C140 C141 1.379 . S
C141 H119 0.948 . S
C141 C136 1.364 . S
C141 C140 1.379 . S
C142 C111 1.383 . S
C142 C129 1.479 . S
C142 C143 1.398 . S
C143 C108 1.382 . S
C143 H120 0.951 . S
C143 C142 1.398 . S
Eu144 N173 2.600 . S
Eu144 N179 2.562 . S
Eu144 O188 2.462 . S
Eu144 O189 2.373 . S
Eu144 O191 2.432 . S
Eu144 O192 2.291 1_565 S
Eu144 O196 2.344 1_455 S
Eu144 O199 2.372 1_455 S
Eu144 C208 2.787 . S
C145 N146 1.365 . S
C145 C148 1.405 . S
C145 C152 1.448 . S
N146 C145 1.365 . S
N146 C149 1.331 . S
N146 Eu155 2.600 . S
C147 C149 1.397 . S
C147 C150 1.367 . S
C147 H167 0.931 1_655 S
C148 C145 1.405 . S
C148 C150 1.403 . S
C148 C154 1.439 . S
C149 N146 1.331 . S
C149 C147 1.397 . S
C149 H160 0.917 1_655 S
C150 C147 1.367 . S
C150 C148 1.403 . S
C150 H171 0.929 . S
C151 C152 1.430 . S
C151 C153 1.387 . S
C151 C157 1.404 . S
C152 C145 1.448 . S
C152 C151 1.430 . S
C152 N156 1.351 . S
C153 C151 1.387 . S
C153 C154 1.374 . S
C153 H168 0.931 . S
C154 C148 1.439 . S
C154 C153 1.374 . S
C154 H169 0.931 . S
Eu155 N146 2.600 . S
Eu155 N156 2.562 . S
Eu155 O190 2.335 1_655 S
Eu155 O193 2.372 1_655 S
Eu155 O194 2.462 . S
Eu155 O195 2.373 . S
Eu155 O197 2.432 . S
Eu155 O198 2.291 1_545 S
Eu155 C219 2.787 . S
N156 C152 1.351 . S
N156 Eu155 2.562 . S
N156 C158 1.325 . S
C157 C151 1.404 . S
C157 C159 1.366 . S
C157 H165 0.930 . S
C158 N156 1.325 . S
C158 C159 1.416 . S
C158 H164 0.929 . S
C159 C157 1.366 . S
C159 C158 1.416 . S
C159 H161 0.930 . S
H160 C149 0.917 1_455 S
H161 C159 0.930 . S
H162 C177 0.930 1_655 S
H163 C184 0.930 . S
H164 C158 0.929 . S
H165 C157 0.930 . S
H166 C180 0.929 . S
H167 C147 0.931 1_455 S
H168 C153 0.931 . S
H169 C154 0.931 . S
H170 C175 0.931 1_655 S
H171 C150 0.929 . S
H172 C183 0.930 . S
N173 Eu144 2.600 . S
N173 C174 1.365 . S
N173 C177 1.319 . S
C174 N173 1.365 . S
C174 C176 1.405 . S
C174 C182 1.448 . S
C175 H170 0.931 1_455 S
C175 C177 1.397 . S
C175 C178 1.367 . S
C176 C174 1.405 . S
C176 C178 1.403 . S
C176 C209 1.439 . S
C177 H162 0.930 1_455 S
C177 N173 1.319 . S
C177 C175 1.397 . S
C178 C175 1.367 . S
C178 C176 1.403 . S
C178 H185 0.929 . S
N179 Eu144 2.562 . S
N179 C180 1.325 . S
N179 C182 1.351 . S
C180 H166 0.929 . S
C180 N179 1.325 . S
C180 C184 1.416 . S
C181 C182 1.430 . S
C181 C183 1.404 . S
C181 C210 1.387 . S
C182 C174 1.448 . S
C182 N179 1.351 . S
C182 C181 1.430 . S
C183 H172 0.930 . S
C183 C181 1.404 . S
C183 C184 1.366 . S
C184 H163 0.930 . S
C184 C180 1.416 . S
C184 C183 1.366 . S
H185 C178 0.929 . S
H186 C209 0.931 . S
H187 C210 0.931 . S
O188 Eu144 2.462 . S
O188 C208 1.252 . S
O189 Eu144 2.373 . S
O189 C200 1.249 . S
O190 Eu155 2.335 1_455 S
O190 C200 1.264 1_545 S
O191 Eu144 2.432 . S
O191 C208 1.268 . S
O192 Eu144 2.291 1_545 S
O192 C207 1.255 . S
O193 Eu155 2.372 1_455 S
O193 C207 1.257 . S
O194 Eu155 2.462 . S
O194 C219 1.252 . S
O195 Eu155 2.373 . S
O195 C211 1.249 . S
O196 Eu144 2.344 1_655 S
O196 C211 1.249 1_565 S
O197 Eu155 2.432 . S
O197 C219 1.268 . S
O198 Eu155 2.291 1_565 S
O198 C218 1.255 . S
O199 Eu144 2.372 1_655 S
O199 C218 1.257 . S
C200 O189 1.249 . S
C200 O190 1.264 1_565 S
C201 C204 1.382 . S
C201 C206 1.390 . S
C201 C208 1.506 . S
C202 C203 1.398 . S
C202 C206 1.392 . S
C203 C202 1.398 . S
C203 C205 1.372 . S
C203 H220 0.931 . S
C204 C201 1.382 . S
C204 C205 1.390 . S
C204 H221 0.931 . S
C205 C203 1.372 . S
C205 C204 1.390 . S
C205 H222 0.929 . S
C206 C201 1.390 . S
C206 C202 1.392 . S
C206 H223 0.930 . S
C207 O192 1.255 . S
C207 O193 1.257 . S
C208 Eu144 2.787 . S
C208 O188 1.252 . S
C208 O191 1.268 . S
C208 C201 1.506 . S
C209 C176 1.439 . S
C209 H186 0.931 . S
C209 C210 1.374 . S
C210 C181 1.387 . S
C210 H187 0.931 . S
C210 C209 1.374 . S
C211 O195 1.249 . S
C211 O196 1.249 1_545 S
C212 C215 1.382 . S
C212 C216 1.390 . S
C212 C219 1.506 . S
C213 C214 1.398 . S
C213 C216 1.392 . S
C214 C213 1.398 . S
C214 C217 1.372 . S
C214 H224 0.931 . S
C215 C212 1.382 . S
C215 C217 1.390 . S
C215 H225 0.931 . S
C216 C212 1.390 . S
C216 C213 1.392 . S
C216 H226 0.930 . S
C217 C214 1.372 . S
C217 C215 1.390 . S
C217 H227 0.929 . S
C218 O198 1.255 . S
C218 O199 1.257 . S
C219 Eu155 2.787 . S
C219 O194 1.252 . S
C219 O197 1.268 . S
C219 C212 1.506 . S
H220 C203 0.931 . S
H221 C204 0.931 . S
H222 C205 0.929 . S
H223 C206 0.930 . S
H224 C214 0.931 . S
H225 C215 0.931 . S
H226 C216 0.930 . S
H227 C217 0.929 . S
Eu228 N257 2.600 . S
Eu228 N263 2.562 1_556 S
Eu228 O272 2.462 . S
Eu228 O273 2.373 1_556 S
Eu228 O275 2.432 . S
Eu228 O276 2.291 1_556 S
Eu228 O280 2.335 . S
Eu228 O283 2.368 1_556 S
Eu228 C292 2.787 . S
C229 N230 1.365 . S
C229 C232 1.405 . S
C229 C236 1.448 . S
N230 C229 1.365 . S
N230 C233 1.319 . S
N230 Eu239 2.600 . S
C231 C233 1.397 . S
C231 C234 1.367 . S
C231 H251 0.931 . S
C232 C229 1.405 . S
C232 C234 1.403 . S
C232 C238 1.439 . S
C233 N230 1.319 . S
C233 C231 1.397 . S
C233 H244 0.930 . S
C234 C231 1.367 . S
C234 C232 1.403 . S
C234 H255 0.929 . S
C235 C236 1.430 . S
C235 C237 1.387 . S
C235 C241 1.404 . S
C236 C229 1.448 . S
C236 C235 1.430 . S
C236 N240 1.351 . S
C237 C235 1.387 . S
C237 C238 1.374 . S
C237 H252 0.931 . S
C238 C232 1.439 . S
C238 C237 1.374 . S
C238 H253 0.931 . S
Eu239 N230 2.600 . S
Eu239 N240 2.562 . S
Eu239 O274 2.335 . S
Eu239 O277 2.372 . S
Eu239 O278 2.462 . S
Eu239 O279 2.366 1_554 S
Eu239 O281 2.432 . S
Eu239 O282 2.291 . S
Eu239 C303 2.787 . S
N240 C236 1.351 . S
N240 Eu239 2.562 . S
N240 C242 1.325 . S
C241 C235 1.404 . S
C241 C243 1.366 . S
C241 H249 0.930 . S
C242 N240 1.325 . S
C242 C243 1.416 . S
C242 H248 0.929 . S
C243 C241 1.366 . S
C243 C242 1.416 . S
C243 H245 0.930 . S
H244 C233 0.930 . S
H245 C243 0.930 . S
H246 C261 0.930 . S
H247 C268 0.930 . S
H248 C242 0.929 . S
H249 C241 0.930 . S
H250 C264 0.929 . S
H251 C231 0.931 . S
H252 C237 0.931 . S
H253 C238 0.931 . S
H254 C259 0.931 . S
H255 C234 0.929 . S
H256 C267 0.930 . S
N257 Eu228 2.600 . S
N257 C258 1.365 1_556 S
N257 C261 1.319 . S
C258 N257 1.365 1_554 S
C258 C260 1.405 . S
C258 C266 1.448 . S
C259 H254 0.931 . S
C259 C261 1.397 . S
C259 C262 1.367 1_556 S
C260 C258 1.405 . S
C260 C262 1.403 . S
C260 C293 1.439 . S
C261 H246 0.930 . S
C261 N257 1.319 . S
C261 C259 1.397 . S
C262 C259 1.367 1_554 S
C262 C260 1.403 . S
C262 H269 0.929 . S
N263 Eu228 2.562 1_554 S
N263 C264 1.325 . S
N263 C266 1.351 . S
C264 H250 0.929 . S
C264 N263 1.325 . S
C264 C268 1.416 . S
C265 C266 1.430 . S
C265 C267 1.404 . S
C265 C294 1.387 . S
C266 C258 1.448 . S
C266 N263 1.351 . S
C266 C265 1.430 . S
C267 H256 0.930 . S
C267 C265 1.404 . S
C267 C268 1.366 . S
C268 H247 0.930 . S
C268 C264 1.416 . S
C268 C267 1.366 . S
H269 C262 0.929 . S
H270 C293 0.931 . S
H271 C294 0.931 . S
O272 Eu228 2.462 . S
O272 C292 1.252 . S
O273 Eu228 2.373 1_554 S
O273 C284 1.249 . S
O274 Eu239 2.335 . S
O274 C284 1.264 . S
O275 Eu228 2.432 . S
O275 C292 1.268 . S
O276 Eu228 2.291 1_554 S
O276 C291 1.255 . S
O277 Eu239 2.372 . S
O277 C291 1.257 . S
O278 Eu239 2.462 . S
O278 C303 1.252 . S
O279 Eu239 2.366 1_556 S
O279 C295 1.254 . S
O280 Eu228 2.335 . S
O280 C295 1.264 . S
O281 Eu239 2.432 . S
O281 C303 1.268 . S
O282 Eu239 2.291 . S
O282 C302 1.255 . S
O283 Eu228 2.368 1_554 S
O283 C302 1.266 . S
C284 O273 1.249 . S
C284 O274 1.264 . S
C285 C288 1.382 . S
C285 C290 1.390 . S
C285 C292 1.506 . S
C286 C287 1.398 . S
C286 C290 1.392 . S
C287 C286 1.398 . S
C287 C289 1.372 . S
C287 H304 0.931 . S
C288 C285 1.382 . S
C288 C289 1.390 . S
C288 H305 0.931 . S
C289 C287 1.372 . S
C289 C288 1.390 . S
C289 H306 0.929 . S
C290 C285 1.390 . S
C290 C286 1.392 . S
C290 H307 0.930 . S
C291 O276 1.255 . S
C291 O277 1.257 . S
C292 Eu228 2.787 . S
C292 O272 1.252 . S
C292 O275 1.268 . S
C292 C285 1.506 . S
C293 C260 1.439 . S
C293 H270 0.931 . S
C293 C294 1.374 . S
C294 C265 1.387 . S
C294 H271 0.931 . S
C294 C293 1.374 . S
C295 O279 1.254 . S
C295 O280 1.264 . S
C296 C299 1.382 . S
C296 C300 1.390 . S
C296 C303 1.506 . S
C297 C298 1.398 . S
C297 C300 1.392 . S
C298 C297 1.398 . S
C298 C301 1.372 . S
C298 H308 0.931 . S
C299 C296 1.382 . S
C299 C301 1.390 . S
C299 H309 0.931 . S
C300 C296 1.390 . S
C300 C297 1.392 . S
C300 H310 0.930 . S
C301 C298 1.372 . S
C301 C299 1.390 . S
C301 H311 0.929 . S
C302 O282 1.255 . S
C302 O283 1.266 . S
C303 Eu239 2.787 . S
C303 O278 1.252 . S
C303 O281 1.268 . S
C303 C296 1.506 . S
H304 C287 0.931 . S
H305 C288 0.931 . S
H306 C289 0.929 . S
H307 C290 0.930 . S
H308 C298 0.931 . S
H309 C299 0.931 . S
H310 C300 0.930 . S
H311 C301 0.929 . S
H312 C318 0.930 . S
H313 C321 0.930 . S
H314 C322 0.930 . S
H315 C323 0.930 . S
H316 C326 0.930 . S
H317 C327 0.930 . S
C318 H312 0.930 . S
C318 C319 1.355 . S
C318 C320 1.415 . S
C319 C318 1.355 . S
C319 C321 1.419 . S
C320 C318 1.415 . S
C320 C325 1.425 . S
C320 C327 1.409 . S
C321 H313 0.930 . S
C321 C319 1.419 . S
C321 C322 1.362 . S
C322 H314 0.930 . S
C322 C321 1.362 . S
C322 C325 1.409 . S
C323 H315 0.930 . S
C323 C324 1.355 . S
C323 C325 1.415 . S
C324 C323 1.355 . S
C324 C326 1.419 . S
C325 C320 1.425 . S
C325 C322 1.409 . S
C325 C323 1.415 . S
C326 H316 0.930 . S
C326 C324 1.419 . S
C326 C327 1.362 . S
C327 H317 0.930 . S
C327 C320 1.409 . S
C327 C326 1.362 . S
H328 C334 0.930 1_556 S
H329 C337 0.930 . S
H330 C338 0.930 . S
H331 C339 0.930 . S
H332 C342 0.930 . S
H333 C343 0.930 . S
C334 H328 0.930 1_554 S
C334 C335 1.355 . S
C334 C336 1.415 . S
C335 C334 1.355 . S
C335 C337 1.419 . S
C336 C334 1.415 . S
C336 C341 1.425 . S
C336 C343 1.409 1_554 S
C337 H329 0.930 . S
C337 C335 1.419 . S
C337 C338 1.362 . S
C338 H330 0.930 . S
C338 C337 1.362 . S
C338 C341 1.409 . S
C339 H331 0.930 . S
C339 C340 1.355 . S
C339 C341 1.415 . S
C340 C339 1.355 . S
C340 C342 1.419 1_554 S
C341 C336 1.425 . S
C341 C338 1.409 . S
C341 C339 1.415 . S
C342 H332 0.930 . S
C342 C340 1.419 1_556 S
C342 C343 1.362 . S
C343 H333 0.930 . S
C343 C336 1.409 1_556 S
C343 C342 1.362 . S
H344 C350 0.930 . S
H345 C353 0.930 . S
H346 C354 0.930 . S
H347 C355 0.930 . S
H348 C358 0.930 . S
H349 C359 0.930 . S
C350 H344 0.930 . S
C350 C351 1.355 . S
C350 C352 1.415 . S
C351 C350 1.355 . S
C351 C353 1.419 . S
C352 C350 1.415 . S
C352 C357 1.425 . S
C352 C359 1.409 . S
C353 H345 0.930 . S
C353 C351 1.419 . S
C353 C354 1.362 . S
C354 H346 0.930 . S
C354 C353 1.362 . S
C354 C357 1.409 . S
C355 H347 0.930 . S
C355 C356 1.355 . S
C355 C357 1.415 . S
C356 C355 1.355 . S
C356 C358 1.419 . S
C357 C352 1.425 . S
C357 C354 1.409 . S
C357 C355 1.415 . S
C358 H348 0.930 . S
C358 C356 1.419 . S
C358 C359 1.362 . S
C359 H349 0.930 . S
C359 C352 1.409 . S
C359 C358 1.362 . S
H360 C366 0.930 . S
H361 C369 0.930 . S
H362 C370 0.930 . S
H363 C371 0.930 1_556 S
H364 C374 0.930 . S
H365 C375 0.930 . S
C366 H360 0.930 . S
C366 C367 1.355 . S
C366 C368 1.415 . S
C367 C366 1.355 . S
C367 C369 1.419 1_554 S
C368 C366 1.415 . S
C368 C373 1.425 . S
C368 C375 1.409 . S
C369 H361 0.930 . S
C369 C367 1.419 1_556 S
C369 C370 1.362 . S
C370 H362 0.930 . S
C370 C369 1.362 . S
C370 C373 1.409 1_556 S
C371 H363 0.930 1_554 S
C371 C372 1.355 . S
C371 C373 1.415 . S
C372 C371 1.355 . S
C372 C374 1.419 . S
C373 C368 1.425 . S
C373 C370 1.409 1_554 S
C373 C371 1.415 . S
C374 H364 0.930 . S
C374 C372 1.419 . S
C374 C375 1.362 . S
C375 H365 0.930 . S
C375 C368 1.409 . S
C375 C374 1.362 . S
H376 C382 0.930 . S
H377 C385 0.930 . S
H378 C386 0.930 . S
H379 C387 0.930 . S
H380 C390 0.930 . S
H381 C391 0.930 . S
C382 H376 0.930 . S
C382 C383 1.355 . S
C382 C384 1.415 . S
C383 C382 1.355 . S
C383 C385 1.419 . S
C384 C382 1.415 . S
C384 C389 1.425 . S
C384 C391 1.409 . S
C385 H377 0.930 . S
C385 C383 1.419 . S
C385 C386 1.362 . S
C386 H378 0.930 . S
C386 C385 1.362 . S
C386 C389 1.409 . S
C387 H379 0.930 . S
C387 C388 1.355 . S
C387 C389 1.415 . S
C388 C387 1.355 . S
C388 C390 1.419 . S
C389 C384 1.425 . S
C389 C386 1.409 . S
C389 C387 1.415 . S
C390 H380 0.930 . S
C390 C388 1.419 . S
C390 C391 1.362 . S
C391 H381 0.930 . S
C391 C384 1.409 . S
C391 C390 1.362 . S
H392 C398 0.930 . S
H393 C401 0.930 . S
H394 C402 0.930 . S
H395 C403 0.930 . S
H396 C406 0.930 . S
H397 C407 0.930 . S
C398 H392 0.930 . S
C398 C399 1.355 . S
C398 C400 1.415 . S
C399 C398 1.355 . S
C399 C401 1.419 . S
C400 C398 1.415 . S
C400 C405 1.425 . S
C400 C407 1.409 . S
C401 H393 0.930 . S
C401 C399 1.419 . S
C401 C402 1.362 . S
C402 H394 0.930 . S
C402 C401 1.362 . S
C402 C405 1.409 . S
C403 H395 0.930 . S
C403 C404 1.355 . S
C403 C405 1.415 . S
C404 C403 1.355 . S
C404 C406 1.419 . S
C405 C400 1.425 . S
C405 C402 1.409 . S
C405 C403 1.415 . S
C406 H396 0.930 . S
C406 C404 1.419 . S
C406 C407 1.362 . S
C407 H397 0.930 . S
C407 C400 1.409 . S
C407 C406 1.362 . S
H408 C414 0.930 . S
H409 C417 0.930 . S
H410 C418 0.930 . S
H411 C419 0.930 . S
H412 C422 0.930 1_565 S
H413 C423 0.930 1_565 S
C414 H408 0.930 . S
C414 C415 1.355 . S
C414 C416 1.415 . S
C415 C414 1.355 . S
C415 C417 1.419 . S
C416 C414 1.415 . S
C416 C421 1.425 . S
C416 C423 1.409 . S
C417 H409 0.930 . S
C417 C415 1.419 . S
C417 C418 1.362 . S
C418 H410 0.930 . S
C418 C417 1.362 . S
C418 C421 1.409 . S
C419 H411 0.930 . S
C419 C420 1.355 . S
C419 C421 1.415 . S
C420 C419 1.355 . S
C420 C422 1.419 . S
C421 C416 1.425 . S
C421 C418 1.409 . S
C421 C419 1.415 . S
C422 H412 0.930 1_545 S
C422 C420 1.419 . S
C422 C423 1.362 . S
C423 H413 0.930 1_545 S
C423 C416 1.409 . S
C423 C422 1.362 . S
H424 C430 0.930 . S
H425 C433 0.930 . S
H426 C434 0.930 . S
H427 C435 0.930 . S
H428 C438 0.930 . S
H429 C439 0.930 . S
C430 H424 0.930 . S
C430 C431 1.355 . S
C430 C432 1.415 . S
C431 C430 1.355 . S
C431 C433 1.419 . S
C432 C430 1.415 . S
C432 C437 1.425 . S
C432 C439 1.409 . S
C433 H425 0.930 . S
C433 C431 1.419 . S
C433 C434 1.362 . S
C434 H426 0.930 . S
C434 C433 1.362 . S
C434 C437 1.409 . S
C435 H427 0.930 . S
C435 C436 1.355 . S
C435 C437 1.415 . S
C436 C435 1.355 . S
C436 C438 1.419 . S
C437 C432 1.425 . S
C437 C434 1.409 . S
C437 C435 1.415 . S
C438 H428 0.930 . S
C438 C436 1.419 . S
C438 C439 1.362 . S
C439 H429 0.930 . S
C439 C432 1.409 . S
C439 C438 1.362 . S
H440 C446 0.930 . S
H441 C449 0.930 . S
H442 C450 0.930 . S
H443 C451 0.930 . S
H444 C454 0.930 . S
H445 C455 0.930 . S
C446 H440 0.930 . S
C446 C447 1.355 . S
C446 C448 1.415 . S
C447 C446 1.355 . S
C447 C449 1.419 . S
C448 C446 1.415 . S
C448 C453 1.425 . S
C448 C455 1.409 . S
C449 H441 0.930 . S
C449 C447 1.419 . S
C449 C450 1.362 . S
C450 H442 0.930 . S
C450 C449 1.362 . S
C450 C453 1.409 . S
C451 H443 0.930 . S
C451 C452 1.355 . S
C451 C453 1.415 . S
C452 C451 1.355 . S
C452 C454 1.419 . S
C453 C448 1.425 . S
C453 C450 1.409 . S
C453 C451 1.415 . S
C454 H444 0.930 . S
C454 C452 1.419 . S
C454 C455 1.362 . S
C455 H445 0.930 . S
C455 C448 1.409 . S
C455 C454 1.362 . S
H456 C462 0.930 . S
H457 C465 0.930 . S
H458 C466 0.930 . S
H459 C467 0.930 . S
H460 C470 0.930 1_565 S
H461 C471 0.930 1_565 S
C462 H456 0.930 . S
C462 C463 1.355 . S
C462 C464 1.415 . S
C463 C462 1.355 . S
C463 C465 1.419 . S
C464 C462 1.415 . S
C464 C469 1.425 . S
C464 C471 1.409 . S
C465 H457 0.930 . S
C465 C463 1.419 . S
C465 C466 1.362 . S
C466 H458 0.930 . S
C466 C465 1.362 . S
C466 C469 1.409 . S
C467 H459 0.930 . S
C467 C468 1.355 . S
C467 C469 1.415 . S
C468 C467 1.355 . S
C468 C470 1.419 . S
C469 C464 1.425 . S
C469 C466 1.409 . S
C469 C467 1.415 . S
C470 H460 0.930 1_545 S
C470 C468 1.419 . S
C470 C471 1.362 . S
C471 H461 0.930 1_545 S
C471 C464 1.409 . S
C471 C470 1.362 . S
H472 C478 0.930 . S
H473 C481 0.930 . S
H474 C482 0.930 . S
H475 C483 0.930 . S
H476 C486 0.930 . S
H477 C487 0.930 . S
C478 H472 0.930 . S
C478 C479 1.355 . S
C478 C480 1.415 . S
C479 C478 1.355 . S
C479 C481 1.419 . S
C480 C478 1.415 . S
C480 C485 1.425 . S
C480 C487 1.409 . S
C481 H473 0.930 . S
C481 C479 1.419 . S
C481 C482 1.362 . S
C482 H474 0.930 . S
C482 C481 1.362 . S
C482 C485 1.409 . S
C483 H475 0.930 . S
C483 C484 1.355 . S
C483 C485 1.415 . S
C484 C483 1.355 . S
C484 C486 1.419 . S
C485 C480 1.425 . S
C485 C482 1.409 . S
C485 C483 1.415 . S
C486 H476 0.930 . S
C486 C484 1.419 . S
C486 C487 1.362 . S
C487 H477 0.930 . S
C487 C480 1.409 . S
C487 C486 1.362 . S
H488 C494 0.930 . S
H489 C497 0.930 . S
H490 C498 0.930 . S
H491 C499 0.930 . S
H492 C502 0.930 . S
H493 C503 0.930 . S
C494 H488 0.930 . S
C494 C495 1.355 . S
C494 C496 1.415 . S
C495 C494 1.355 . S
C495 C497 1.419 . S
C496 C494 1.415 . S
C496 C501 1.425 . S
C496 C503 1.409 . S
C497 H489 0.930 . S
C497 C495 1.419 . S
C497 C498 1.362 . S
C498 H490 0.930 . S
C498 C497 1.362 . S
C498 C501 1.409 . S
C499 H491 0.930 . S
C499 C500 1.355 . S
C499 C501 1.415 . S
C500 C499 1.355 . S
C500 C502 1.419 . S
C501 C496 1.425 . S
C501 C498 1.409 . S
C501 C499 1.415 . S
C502 H492 0.930 . S
C502 C500 1.419 . S
C502 C503 1.362 . S
C503 H493 0.930 . S
C503 C496 1.409 . S
C503 C502 1.362 . S
C324 C207 1.643 . S
C319 C133 1.638 . S
C335 C25 1.640 . S
C340 C302 1.610 . S
C351 C61 1.600 . S
C356 C218 1.654 . S
C367 C97 1.618 . S
C372 C291 1.619 . S
C388 C202 1.361 . S
C383 C1 1.559 . S
C404 C295 1.614 . S
C399 C67 1.553 . S
C415 C103 1.581 . S
C420 C211 1.627 . S
C431 C109 1.535 . S
C436 C286 1.348 . S
C452 C297 1.452 . S
C447 C37 1.509 . S
C468 C213 1.469 . S
C463 C73 1.516 . S
C484 C284 1.616 . S
C479 C139 1.609 . S
C495 C31 1.618 . S
C500 C200 1.633 . S
