# Generated by pormake.
# Topology cml, (3,6)-cn, num edge types: 1
# Building blocks:
#     Node 0, Type 0, BuildingBlock: BELTOD_clean_linker_0, # of connection points: 3
#     Node 1, Type 0, BuildingBlock: BELTOD_clean_linker_0, # of connection points: 3
#     Node 2, Type 0, BuildingBlock: BELTOD_clean_linker_0, # of connection points: 3
#     Node 3, Type 0, BuildingBlock: BELTOD_clean_linker_0, # of connection points: 3
#     Node 4, Type 0, BuildingBlock: BELTOD_clean_linker_0, # of connection points: 3
#     Node 5, Type 0, BuildingBlock: BELTOD_clean_linker_0, # of connection points: 3
#     Node 6, Type 0, BuildingBlock: BELTOD_clean_linker_0, # of connection points: 3
#     Node 7, Type 0, BuildingBlock: BELTOD_clean_linker_0, # of connection points: 3
#     Node 8, Type 1, BuildingBlock: OJICUG_clean_sbu_0, # of connection points: 6
#     Node 9, Type 1, BuildingBlock: OJICUG_clean_sbu_0, # of connection points: 6
#     Node 10, Type 1, BuildingBlock: OJICUG_clean_sbu_0, # of connection points: 6
#     Node 11, Type 1, BuildingBlock: OJICUG_clean_sbu_0, # of connection points: 6
#     Edge 12, Type (0, 1), BuildingBlock: XIVTED_clean_linker_0, # of connection points: 2
#     Edge 13, Type (0, 1), BuildingBlock: XIVTED_clean_linker_0, # of connection points: 2
#     Edge 14, Type (0, 1), BuildingBlock: XIVTED_clean_linker_0, # of connection points: 2
#     Edge 15, Type (0, 1), BuildingBlock: XIVTED_clean_linker_0, # of connection points: 2
#     Edge 16, Type (0, 1), BuildingBlock: XIVTED_clean_linker_0, # of connection points: 2
#     Edge 17, Type (0, 1), BuildingBlock: XIVTED_clean_linker_0, # of connection points: 2
#     Edge 18, Type (0, 1), BuildingBlock: XIVTED_clean_linker_0, # of connection points: 2
#     Edge 19, Type (0, 1), BuildingBlock: XIVTED_clean_linker_0, # of connection points: 2
#     Edge 20, Type (0, 1), BuildingBlock: XIVTED_clean_linker_0, # of connection points: 2
#     Edge 21, Type (0, 1), BuildingBlock: XIVTED_clean_linker_0, # of connection points: 2
#     Edge 22, Type (0, 1), BuildingBlock: XIVTED_clean_linker_0, # of connection points: 2
#     Edge 23, Type (0, 1), BuildingBlock: XIVTED_clean_linker_0, # of connection points: 2
#     Edge 24, Type (0, 1), BuildingBlock: XIVTED_clean_linker_0, # of connection points: 2
#     Edge 25, Type (0, 1), BuildingBlock: XIVTED_clean_linker_0, # of connection points: 2
#     Edge 26, Type (0, 1), BuildingBlock: XIVTED_clean_linker_0, # of connection points: 2
#     Edge 27, Type (0, 1), BuildingBlock: XIVTED_clean_linker_0, # of connection points: 2
#     Edge 28, Type (0, 1), BuildingBlock: XIVTED_clean_linker_0, # of connection points: 2
#     Edge 29, Type (0, 1), BuildingBlock: XIVTED_clean_linker_0, # of connection points: 2
#     Edge 30, Type (0, 1), BuildingBlock: XIVTED_clean_linker_0, # of connection points: 2
#     Edge 31, Type (0, 1), BuildingBlock: XIVTED_clean_linker_0, # of connection points: 2
#     Edge 32, Type (0, 1), BuildingBlock: XIVTED_clean_linker_0, # of connection points: 2
#     Edge 33, Type (0, 1), BuildingBlock: XIVTED_clean_linker_0, # of connection points: 2
#     Edge 34, Type (0, 1), BuildingBlock: XIVTED_clean_linker_0, # of connection points: 2
#     Edge 35, Type (0, 1), BuildingBlock: XIVTED_clean_linker_0, # of connection points: 2
# Relax obj value: 0.065
# Max RMSD: 0.077
# Mean RMSD: 0.074
data_MOF--net-cml--node1-OJICUG_clean_sbu_0--node2-BELTOD_clean_linker_0--edge1-XIVTED_clean_linker_0
_symmetry_space_group_name_H-M    P1
_symmetry_Int_Tables_number       1
_symmetry_cell_setting            triclinic
loop_
_symmetry_equiv_pos_as_xyz
'x, y, z'
_cell_length_a     44.315343
_cell_length_b     44.775478
_cell_length_c     41.783084
_cell_angle_alpha  89.584848
_cell_angle_beta   89.613069
_cell_angle_gamma 89.8201
loop_
_atom_site_label
_atom_site_type_symbol
_atom_site_fract_x
_atom_site_fract_y
_atom_site_fract_z
_atom_type_partial_charge
P0 P 0.3647 0.30339 0.93336 0.0
H1 H 0.3765 0.25108 0.97335 0.0
H2 H 0.37686 0.24344 0.03128 0.0
H3 H 0.35764 0.33743 0.0445 0.0
H4 H 0.35512 0.34412 0.9869 0.0
H5 H 0.33448 0.25155 0.9059 0.0
H6 H 0.28108 0.24051 0.89674 0.0
H7 H 0.25666 0.32743 0.93307 0.0
H8 H 0.30989 0.33812 0.9427 0.0
H9 H 0.41077 0.3449 0.95566 0.0
H10 H 0.34124 0.34391 0.88392 0.0
O11 O 0.38759 0.27945 0.91466 0.0
H12 H 0.4206 0.3975 0.94356 0.0
H13 H 0.35016 0.39654 0.87247 0.0
C14 C 0.36716 0.29841 0.97592 0.0
C15 C 0.3726 0.27 0.98886 0.0
C16 C 0.37279 0.26572 0.02201 0.0
C17 C 0.36764 0.28987 0.0428 0.0
C18 C 0.3614 0.31817 0.02948 0.0
C19 C 0.36063 0.32223 0.99638 0.0
C20 C 0.32605 0.29594 0.9241 0.0
C21 C 0.31765 0.26833 0.9115 0.0
C22 C 0.28722 0.262 0.90647 0.0
C23 C 0.26493 0.28328 0.91394 0.0
C24 C 0.27349 0.3109 0.9266 0.0
C25 C 0.30383 0.317 0.93206 0.0
C26 C 0.37443 0.3409 0.92165 0.0
C27 C 0.39751 0.35606 0.93744 0.0
C28 C 0.40294 0.38615 0.93067 0.0
C29 C 0.38566 0.40139 0.90759 0.0
C30 C 0.36378 0.38553 0.89048 0.0
C31 C 0.35847 0.35545 0.89723 0.0
P32 P 0.73558 0.55845 0.51331 0.0
H33 H 0.72172 0.49484 0.51225 0.0
H34 H 0.68235 0.46621 0.48598 0.0
H35 H 0.64852 0.54708 0.44181 0.0
H36 H 0.68831 0.57568 0.46814 0.0
H37 H 0.7689 0.6122 0.52792 0.0
H38 H 0.79558 0.64866 0.49486 0.0
H39 H 0.77395 0.59822 0.4103 0.0
H40 H 0.74743 0.56142 0.44378 0.0
H41 H 0.72523 0.54492 0.58101 0.0
H42 H 0.70184 0.61469 0.51392 0.0
O43 O 0.76112 0.53548 0.52943 0.0
H44 H 0.69852 0.57147 0.62348 0.0
H45 H 0.67606 0.64208 0.55647 0.0
C46 C 0.70814 0.53727 0.49175 0.0
C47 C 0.70609 0.50639 0.49662 0.0
C48 C 0.68345 0.49008 0.48176 0.0
C49 C 0.66232 0.50443 0.46189 0.0
C50 C 0.66469 0.53539 0.4567 0.0
C51 C 0.68731 0.55173 0.47177 0.0
C52 C 0.75529 0.58473 0.48819 0.0
C53 C 0.76958 0.60913 0.50224 0.0
C54 C 0.78474 0.63001 0.48329 0.0
C55 C 0.7863 0.62662 0.44991 0.0
C56 C 0.77291 0.6015 0.43594 0.0
C57 C 0.75758 0.5806 0.45501 0.0
C58 C 0.71603 0.57817 0.54456 0.0
C59 C 0.71465 0.56617 0.57554 0.0
C60 C 0.69954 0.58153 0.59985 0.0
C61 C 0.68546 0.60919 0.59356 0.0
C62 C 0.6865 0.62082 0.5622 0.0
C63 C 0.70143 0.60529 0.53788 0.0
P64 P 0.74812 0.42995 0.05489 0.0
H65 H 0.75083 0.4055 0.11991 0.0
H66 H 0.71446 0.37778 0.15272 0.0
H67 H 0.65475 0.37242 0.07162 0.0
H68 H 0.69092 0.4006 0.03923 0.0
H69 H 0.8087 0.4432 0.03226 0.0
H70 H 0.84424 0.41642 0.99784 0.0
H71 H 0.77932 0.34551 0.98687 0.0
H72 H 0.74377 0.37252 0.02135 0.0
H73 H 0.7269 0.49102 0.06482 0.0
H74 H 0.72108 0.42417 0.9914 0.0
O75 O 0.76819 0.44997 0.08068 0.0
H76 H 0.69666 0.52512 0.03235 0.0
H77 H 0.6897 0.45753 0.95934 0.0
C78 C 0.72321 0.40585 0.0774 0.0
C79 C 0.73001 0.39815 0.10913 0.0
C80 C 0.7093 0.38204 0.1278 0.0
C81 C 0.6815 0.37323 0.11491 0.0
C82 C 0.67568 0.37942 0.08246 0.0
C83 C 0.69638 0.39554 0.06388 0.0
C84 C 0.77398 0.40944 0.03004 0.0
C85 C 0.8022 0.42179 0.02265 0.0
C86 C 0.82244 0.40652 0.00292 0.0
C87 C 0.81461 0.3788 0.98984 0.0
C88 C 0.78589 0.36691 0.99648 0.0
C89 C 0.76571 0.38215 0.01647 0.0
C90 C 0.72656 0.45524 0.03034 0.0
C91 C 0.71915 0.4837 0.04165 0.0
C92 C 0.70158 0.50309 0.02314 0.0
C93 C 0.69065 0.49414 0.99314 0.0
C94 C 0.69815 0.46545 0.98198 0.0
C95 C 0.71599 0.44623 0.0004 0.0
P96 P 0.30294 0.63761 0.45113 0.0
H97 H 0.31828 0.60646 0.39199 0.0
H98 H 0.32189 0.55361 0.37878 0.0
H99 H 0.29192 0.53047 0.47451 0.0
H100 H 0.28935 0.58351 0.48775 0.0
H101 H 0.27824 0.69757 0.45575 0.0
H102 H 0.22706 0.71761 0.45013 0.0
H103 H 0.19305 0.62805 0.43821 0.0
H104 H 0.24399 0.6083 0.44329 0.0
H105 H 0.36438 0.63304 0.47352 0.0
H106 H 0.27633 0.64898 0.51473 0.0
O107 O 0.32398 0.65703 0.42512 0.0
H108 H 0.38675 0.63466 0.52678 0.0
H109 H 0.29857 0.65061 0.56813 0.0
C110 C 0.30429 0.59875 0.44102 0.0
C111 C 0.31254 0.58999 0.41011 0.0
C112 C 0.31418 0.55974 0.4025 0.0
C113 C 0.30724 0.53775 0.42563 0.0
C114 C 0.29788 0.54678 0.45631 0.0
C115 C 0.29643 0.57706 0.46392 0.0
C116 C 0.26497 0.65158 0.4495 0.0
C117 C 0.25968 0.68231 0.45211 0.0
C118 C 0.23044 0.69367 0.44917 0.0
C119 C 0.20611 0.67437 0.44354 0.0
C120 C 0.21144 0.64347 0.44207 0.0
C121 C 0.24063 0.63216 0.44507 0.0
C122 C 0.31888 0.64149 0.49019 0.0
C123 C 0.34994 0.63722 0.49404 0.0
C124 C 0.36263 0.63786 0.52447 0.0
C125 C 0.34437 0.64271 0.55158 0.0
C126 C 0.3132 0.64716 0.54761 0.0
C127 C 0.30049 0.64629 0.51711 0.0
P128 P 0.79137 0.88242 0.96604 0.0
H129 H 0.827 0.83357 0.99351 0.0
H130 H 0.84306 0.82289 0.04816 0.0
H131 H 0.787 0.89533 0.08242 0.0
H132 H 0.77218 0.90665 0.02754 0.0
H133 H 0.76947 0.858 0.90621 0.0
H134 H 0.72035 0.83928 0.88984 0.0
H135 H 0.68311 0.86262 0.98224 0.0
H136 H 0.73244 0.881 -0.00141 0.0
H137 H 0.83688 0.92214 0.99021 0.0
H138 H 0.7547 0.93009 0.936 0.0
O139 O 0.8175 0.86745 0.94202 0.0
H140 H 0.84534 0.97551 0.98452 0.0
H141 H 0.76285 0.98398 0.93047 0.0
C142 C 0.79877 0.87112 0.00653 0.0
C143 C 0.81791 0.8469 0.01284 0.0
C144 C 0.82687 0.84067 0.04417 0.0
C145 C 0.81655 0.85848 0.06964 0.0
C146 C 0.79581 0.88156 0.06329 0.0
C147 C 0.78711 0.88789 0.03196 0.0
C148 C 0.75475 0.87013 0.95388 0.0
C149 C 0.75075 0.85908 0.92295 0.0
C150 C 0.72258 0.84867 0.91352 0.0
C151 C 0.69793 0.84934 0.93485 0.0
C152 C 0.70183 0.86141 0.9655 0.0
C153 C 0.73003 0.8719 0.97486 0.0
C154 C 0.79512 0.92225 0.96374 0.0
C155 C 0.82033 0.93555 0.9776 0.0
C156 C 0.82496 0.96617 0.9746 0.0
C157 C 0.80458 0.98409 0.95732 0.0
C158 C 0.77892 0.97074 0.94393 0.0
C159 C 0.77425 0.93997 0.94708 0.0
P160 P 0.25011 0.04414 0.55546 0.0
H161 H 0.24008 0.98034 0.54443 0.0
H162 H 0.20218 0.95351 0.51376 0.0
H163 H 0.16132 0.03756 0.48622 0.0
H164 H 0.19967 0.06424 0.51657 0.0
H165 H 0.28782 0.09575 0.5685 0.0
H166 H 0.31661 0.1296 0.53388 0.0
H167 H 0.29044 0.07851 0.45129 0.0
H168 H 0.26196 0.04455 0.48608 0.0
H169 H 0.228 0.02755 0.6187 0.0
H170 H 0.22546 0.10524 0.55726 0.0
O171 O 0.27365 0.0202 0.57329 0.0
H172 H 0.1971 0.05342 0.65823 0.0
H173 H 0.19588 0.13202 0.59739 0.0
C174 C 0.22257 0.02422 0.53273 0.0
C175 C 0.22301 0.99298 0.53175 0.0
C176 C 0.20124 0.97767 0.51433 0.0
C177 C 0.17873 0.99342 0.4976 0.0
C178 C 0.17857 0.02481 0.49853 0.0
C179 C 0.2003 0.04006 0.51603 0.0
C180 C 0.27193 0.06831 0.52976 0.0
C181 C 0.28815 0.09195 0.54293 0.0
C182 C 0.30453 0.11128 0.52311 0.0
C183 C 0.30537 0.10696 0.48981 0.0
C184 C 0.29015 0.08242 0.47684 0.0
C185 C 0.27362 0.06318 0.49671 0.0
C186 C 0.2298 0.06476 0.58553 0.0
C187 C 0.22139 0.05049 0.6141 0.0
C188 C 0.2038 0.06544 0.63678 0.0
C189 C 0.19424 0.09507 0.63132 0.0
C190 C 0.20266 0.10923 0.60243 0.0
C191 C 0.21997 0.09406 0.57959 0.0
P192 P 0.2498 0.9128 0.03209 0.0
H193 H 0.25879 0.86977 0.0842 0.0
H194 H 0.22485 0.85064 0.12642 0.0
H195 H 0.15066 0.89875 0.0836 0.0
H196 H 0.18404 0.91751 0.04189 0.0
H197 H 0.30467 0.91489 0.99405 0.0
H198 H 0.32868 0.87951 0.95766 0.0
H199 H 0.25521 0.8177 0.97349 0.0
H200 H 0.23159 0.85318 0.01038 0.0
H201 H 0.2403 0.97659 0.04175 0.0
H202 H 0.21407 0.9098 0.97362 0.0
O203 O 0.27711 0.92921 0.05283 0.0
H204 H 0.20724 0.01292 0.01568 0.0
H205 H 0.18024 0.94564 0.94798 0.0
C206 C 0.22415 0.89541 0.06015 0.0
C207 C 0.23511 0.8758 0.08371 0.0
C208 C 0.21575 0.8648 0.10767 0.0
C209 C 0.18529 0.87356 0.10837 0.0
C210 C 0.17416 0.89201 0.08381 0.0
C211 C 0.19336 0.90275 0.05988 0.0
C212 C 0.26683 0.88628 0.00545 0.0
C213 C 0.29383 0.89365 0.98977 0.0
C214 C 0.30732 0.87354 0.96868 0.0
C215 C 0.29387 0.84574 0.96269 0.0
C216 C 0.26635 0.83875 0.97795 0.0
C217 C 0.25285 0.85897 -0.00095 0.0
C218 C 0.23006 0.94072 0.00922 0.0
C219 C 0.22787 0.96993 0.02076 0.0
C220 C 0.20865 0.99056 0.00607 0.0
C221 C 0.1909 0.98216 0.97984 0.0
C222 C 0.19388 0.95302 0.96779 0.0
C223 C 0.21325 0.93247 0.98243 0.0
P224 P 0.81862 0.16519 0.4733 0.0
H225 H 0.79881 0.13303 0.41726 0.0
H226 H 0.80313 0.081 0.4009 0.0
H227 H 0.84944 0.06024 0.48916 0.0
H228 H 0.84329 0.11164 0.50609 0.0
H229 H 0.79322 0.223 0.45515 0.0
H230 H 0.74139 0.23985 0.4458 0.0
H231 H 0.70852 0.15221 0.47204 0.0
H232 H 0.76033 0.13558 0.48147 0.0
H233 H 0.87774 0.16323 0.50254 0.0
H234 H 0.78609 0.18076 0.53284 0.0
O235 O 0.84114 0.18427 0.44845 0.0
H236 H 0.89465 0.16811 0.55798 0.0
H237 H 0.80317 0.18657 0.58805 0.0
C238 C 0.8209 0.12633 0.46274 0.0
C239 C 0.80956 0.11713 0.43322 0.0
C240 C 0.81222 0.08738 0.42383 0.0
C241 C 0.82689 0.06634 0.44355 0.0
C242 C 0.83764 0.07561 0.4735 0.0
C243 C 0.83452 0.10529 0.48306 0.0
C244 C 0.78053 0.17785 0.46798 0.0
C245 C 0.77482 0.20747 0.45889 0.0
C246 C 0.74524 0.21712 0.45385 0.0
C247 C 0.72103 0.19721 0.45791 0.0
C248 C 0.72683 0.16784 0.46823 0.0
C249 C 0.75639 0.15832 0.47352 0.0
C250 C 0.83074 0.17161 0.51359 0.0
C251 C 0.86136 0.16854 0.52102 0.0
C252 C 0.87096 0.17125 0.55258 0.0
C253 C 0.85011 0.17771 0.57701 0.0
C254 C 0.81958 0.18176 0.56944 0.0
C255 C 0.80988 0.17839 0.53793 0.0
Sc256 Sc 0.98067 0.79437 0.31059 0.0
Sc257 Sc 0.98005 0.87277 0.31743 0.0
Sc258 Sc 0.96961 0.82823 0.38606 0.0
O259 O 0.97677 0.83175 0.33802 0.0
C260 C 0.92795 0.77635 0.3597 0.0
C261 C 0.94052 0.83694 0.26682 0.0
C262 C 0.9277 0.88396 0.36859 0.0
C263 C 0.03027 0.83698 0.27836 0.0
C264 C 0.0174 0.77589 0.37268 0.0
C265 C 0.01711 0.88139 0.38204 0.0
O266 O 0.94315 0.77244 0.33413 0.0
O267 O 0.94997 0.86095 0.27934 0.0
O268 O 0.93528 0.86267 0.38719 0.0
O269 O 0.0189 0.81128 0.28332 0.0
O270 O 0.00339 0.79376 0.39111 0.0
O271 O 0.01058 0.8889 0.35348 0.0
O272 O 0.01209 0.77403 0.34292 0.0
O273 O 0.01878 0.86067 0.28966 0.0
O274 O 0.00425 0.85993 0.39672 0.0
O275 O 0.94941 0.81118 0.27568 0.0
O276 O 0.93434 0.79617 0.38014 0.0
O277 O 0.94162 0.88976 0.34267 0.0
Sc278 Sc 0.00164 0.21617 0.82633 0.0
Sc279 Sc 0.99088 0.1385 0.83401 0.0
Sc280 Sc -0.00332 0.18209 0.90299 0.0
O281 O 0.99629 0.17902 0.85441 0.0
C282 C 0.05029 0.22498 0.88178 0.0
C283 C 0.04201 0.16724 0.79003 0.0
C284 C 0.03158 0.12042 0.89368 0.0
C285 C 0.95274 0.18049 0.78681 0.0
C286 C 0.96163 0.24194 0.88337 0.0
C287 C 0.942 0.13789 0.89053 0.0
O288 O 0.03925 0.23122 0.85447 0.0
O289 O 0.02883 0.145 0.80287 0.0
O290 O 0.0241 0.143 0.91007 0.0
O291 O 0.96504 0.20487 0.79493 0.0
O292 O 0.9702 0.22206 0.90311 0.0
O293 O 0.95241 0.12901 0.86377 0.0
O294 O 0.9698 0.24239 0.85413 0.0
O295 O 0.96025 0.15541 0.79872 0.0
O296 O 0.95545 0.1568 0.90798 0.0
O297 O 0.03418 0.19423 0.79509 0.0
O298 O 0.03774 0.20723 0.90164 0.0
O299 O 0.02141 0.11588 0.86586 0.0
Sc300 Sc 0.4806 0.27229 0.3148 0.0
Sc301 Sc 0.46446 0.34949 0.30932 0.0
Sc302 Sc 0.46671 0.31428 0.38457 0.0
O303 O 0.47057 0.31198 0.33618 0.0
C304 C 0.43375 0.25281 0.36953 0.0
C305 C 0.43186 0.30053 0.26707 0.0
C306 C 0.41413 0.35851 0.3634 0.0
C307 C 0.51899 0.31771 0.27201 0.0
C308 C 0.52226 0.26945 0.37655 0.0
C309 C 0.50277 0.37401 0.36797 0.0
O310 O 0.44693 0.24825 0.3428 0.0
O311 O 0.43439 0.32725 0.2769 0.0
O312 O 0.42605 0.34065 0.38341 0.0
O313 O 0.51536 0.29181 0.28422 0.0
O314 O 0.50713 0.2886 0.39222 0.0
O315 O 0.4946 0.37554 0.33882 0.0
O316 O 0.51518 0.26116 0.34861 0.0
O317 O 0.50204 0.33972 0.27876 0.0
O318 O 0.49395 0.35351 0.38695 0.0
O319 O 0.44741 0.27898 0.27819 0.0
O320 O 0.43902 0.2754 0.38679 0.0
O321 O 0.42568 0.36393 0.33611 0.0
Sc322 Sc 0.49128 0.70264 0.80027 0.0
Sc323 Sc 0.50536 0.6258 0.80499 0.0
Sc324 Sc 0.48871 0.66542 0.87487 0.0
O325 O 0.49509 0.66465 0.82679 0.0
C326 C 0.52688 0.72502 0.8606 0.0
C327 C 0.5472 0.66953 0.76634 0.0
C328 C 0.54299 0.61965 0.87005 0.0
C329 C 0.45933 0.65672 0.75557 0.0
C330 C 0.43869 0.7113 0.85266 0.0
C331 C 0.45598 0.60474 0.85494 0.0
O332 O 0.5221 0.72554 0.83063 0.0
O333 O 0.54335 0.64493 0.78099 0.0
O334 O 0.52914 0.64058 0.88434 0.0
O335 O 0.46004 0.68243 0.7682 0.0
O336 O 0.44754 0.69025 0.87083 0.0
O337 O 0.46832 0.60349 0.82747 0.0
O338 O 0.45318 0.71936 0.82767 0.0
O339 O 0.47613 0.63522 0.76478 0.0
O340 O 0.46229 0.6247 0.87541 0.0
O341 O 0.52887 0.69139 0.76864 0.0
O342 O 0.51491 0.70591 0.87952 0.0
O343 O 0.53593 0.61108 0.84213 0.0
H344 H 0.22197 0.31748 0.88457 0.0
H345 H 0.08771 0.20649 0.92974 0.0
H346 H 0.23486 0.23363 0.93416 0.0
H347 H 0.08166 0.27003 0.85168 0.0
H348 H 0.13947 0.22231 0.93892 0.0
H349 H 0.16823 0.30573 0.87881 0.0
C350 C 0.2134 0.29664 0.89426 0.0
C351 C 0.23271 0.27637 0.90969 0.0
C352 C 0.12673 0.23288 0.9199 0.0
C353 C 0.17167 0.26304 0.90357 0.0
C354 C 0.09709 0.22404 0.91476 0.0
C355 C 0.08035 0.23683 0.88973 0.0
C356 C 0.13966 0.25485 0.90011 0.0
C357 C 0.09382 0.25941 0.87108 0.0
C358 C 0.18288 0.28994 0.89092 0.0
C359 C 0.22069 0.24964 0.92178 0.0
N360 N 0.12277 0.26769 0.87661 0.0
N361 N 0.19086 0.24379 0.91858 0.0
H362 H 0.82596 0.61736 0.40012 0.0
H363 H 0.88109 0.78614 0.40092 0.0
H364 H 0.78324 0.68725 0.4549 0.0
H365 H 0.91685 0.72065 0.33536 0.0
H366 H 0.84234 0.7508 0.41747 0.0
H367 H 0.85649 0.65515 0.37237 0.0
C368 C 0.82268 0.64069 0.40595 0.0
C369 C 0.80241 0.64918 0.4302 0.0
C370 C 0.85844 0.74417 0.39923 0.0
C371 C 0.83737 0.69236 0.3989 0.0
C372 C 0.88066 0.76435 0.38983 0.0
C373 C 0.90248 0.75619 0.36703 0.0
C374 C 0.85821 0.7154 0.3861 0.0
C375 C 0.90054 0.7278 0.35314 0.0
C376 C 0.84018 0.66222 0.3902 0.0
C377 C 0.79913 0.67967 0.43689 0.0
N378 N 0.87902 0.70822 0.36324 0.0
N379 N 0.81664 0.7001 0.42158 0.0
H380 H 0.80611 0.34904 0.93324 0.0
H381 H 0.96392 0.26637 0.94221 0.0
H382 H 0.87395 0.3695 0.00328 0.0
H383 H 0.91464 0.27132 0.85364 0.0
H384 H 0.92928 0.30251 0.96563 0.0
H385 H 0.84343 0.31867 0.90413 0.0
C386 C 0.82886 0.34723 0.94238 0.0
C387 C 0.83697 0.36172 0.97074 0.0
C388 C 0.9261 0.29597 0.94097 0.0
C389 C 0.87947 0.32716 0.93779 0.0
C390 C 0.9458 0.27524 0.92764 0.0
C391 C 0.94198 0.26578 0.89602 0.0
C392 C 0.90194 0.30699 0.92284 0.0
C393 C 0.91832 0.27816 0.8781 0.0
C394 C 0.85013 0.33013 0.92567 0.0
C395 C 0.86679 0.35891 0.98141 0.0
N396 N 0.89882 0.29791 0.89193 0.0
N397 N 0.88683 0.34174 0.96511 0.0
H398 H 0.17613 0.71937 0.4749 0.0
H399 H 0.04531 0.72786 0.34523 0.0
H400 H 0.16707 0.65733 0.39698 0.0
H401 H 0.04582 0.78198 0.43039 0.0
H402 H 0.08883 0.70043 0.36536 0.0
H403 H 0.12748 0.74158 0.46046 0.0
C404 C 0.16382 0.71034 0.45488 0.0
C405 C 0.17567 0.68656 0.43704 0.0
C406 C 0.07929 0.71813 0.3798 0.0
C407 C 0.12017 0.71175 0.42043 0.0
C408 C 0.05446 0.73387 0.36828 0.0
C409 C 0.04203 0.75743 0.38603 0.0
C410 C 0.09207 0.72618 0.40915 0.0
C411 C 0.05469 0.76402 0.41587 0.0
C412 C 0.13602 0.7229 0.44676 0.0
C413 C 0.15865 0.67546 0.41158 0.0
N414 N 0.07924 0.74866 0.42636 0.0
N415 N 0.1319 0.68831 0.40388 0.0
H416 H 0.66853 0.85479 0.87769 0.0
H417 H 0.54663 0.73001 0.92251 0.0
H418 H 0.66129 0.81322 0.97093 0.0
H419 H 0.55584 0.77033 0.82868 0.0
H420 H 0.58478 0.76427 0.94245 0.0
H421 H 0.62344 0.82798 0.86106 0.0
C422 C 0.65732 0.84014 0.89471 0.0
C423 C 0.6688 0.83598 0.92562 0.0
C424 C 0.57827 0.76573 0.91755 0.0
C425 C 0.61724 0.80526 0.90683 0.0
C426 C 0.55647 0.74617 0.90613 0.0
C427 C 0.54821 0.74702 0.87376 0.0
C428 C 0.59193 0.78625 0.89645 0.0
C429 C 0.56166 0.7686 0.85374 0.0
C430 C 0.63154 0.82492 0.88526 0.0
C431 C 0.65311 0.81717 0.94692 0.0
N432 N 0.58299 0.78718 0.86537 0.0
N433 N 0.62828 0.80226 0.93702 0.0
H434 H 0.30429 0.16767 0.49296 0.0
H435 H 0.42684 0.19342 0.35379 0.0
H436 H 0.34284 0.09522 0.4386 0.0
H437 H 0.39009 0.26264 0.41415 0.0
H438 H 0.39283 0.15734 0.37998 0.0
H439 H 0.33247 0.20305 0.46005 0.0
C440 C 0.31882 0.15922 0.47412 0.0
C441 C 0.32155 0.12846 0.46879 0.0
C442 C 0.39214 0.1805 0.38724 0.0
C443 C 0.35385 0.16893 0.43067 0.0
C444 C 0.41143 0.20108 0.37223 0.0
C445 C 0.41159 0.23099 0.38209 0.0
C446 C 0.37286 0.19006 0.41203 0.0
C447 C 0.39114 0.23973 0.40609 0.0
C448 C 0.33479 0.17944 0.45516 0.0
C449 C 0.34011 0.11879 0.44349 0.0
N450 N 0.37281 0.21938 0.42028 0.0
N451 N 0.35579 0.13897 0.42548 0.0
H452 H 0.29951 0.78538 0.97203 0.0
H453 H 0.41818 0.76506 0.82897 0.0
H454 H 0.32377 0.85595 0.90587 0.0
H455 H 0.39785 0.69713 0.89974 0.0
H456 H 0.37794 0.79614 0.85144 0.0
H457 H 0.32947 0.75043 0.94043 0.0
C458 C 0.31075 0.79345 0.95057 0.0
C459 C 0.30937 0.82373 0.9418 0.0
C460 C 0.3821 0.77429 0.86181 0.0
C461 C 0.34418 0.78387 0.90573 0.0
C462 C 0.40501 0.75647 0.84891 0.0
C463 C 0.41175 0.72859 0.86276 0.0
C464 C 0.36579 0.76414 0.88869 0.0
C465 C 0.39381 0.71863 0.88853 0.0
C466 C 0.32804 0.7735 0.93263 0.0
C467 C 0.32471 0.83293 0.9139 0.0
N468 N 0.37189 0.73649 0.90082 0.0
N469 N 0.34168 0.81313 0.89702 0.0
H470 H 0.69194 0.24904 0.4742 0.0
H471 H 0.55381 0.21985 0.35799 0.0
H472 H 0.67991 0.16684 0.42261 0.0
H473 H 0.55355 0.29029 0.42811 0.0
H474 H 0.60072 0.20076 0.38058 0.0
H475 H 0.64182 0.26542 0.45686 0.0
C476 C 0.67866 0.23443 0.45934 0.0
C477 C 0.69002 0.20661 0.44973 0.0
C478 C 0.59029 0.22027 0.39117 0.0
C479 C 0.63296 0.22514 0.42977 0.0
C480 C 0.56356 0.23126 0.37821 0.0
C481 C 0.5498 0.2568 0.39108 0.0
C482 C 0.60358 0.23512 0.41694 0.0
C483 C 0.56337 0.27052 0.41743 0.0
C484 C 0.65006 0.24369 0.44959 0.0
C485 C 0.67186 0.18836 0.43075 0.0
N486 N 0.58968 0.25965 0.42933 0.0
N487 N 0.64432 0.19806 0.42115 0.0
H488 H 0.39617 0.44568 0.95116 0.0
H489 H 0.42397 0.56884 0.81544 0.0
H490 H 0.38572 0.43076 0.84985 0.0
H491 H 0.44339 0.58325 0.91523 0.0
H492 H 0.40058 0.52136 0.82945 0.0
H493 H 0.40593 0.49848 0.93995 0.0
C494 C 0.39595 0.45349 0.92656 0.0
C495 C 0.39044 0.43368 0.90136 0.0
C496 C 0.40959 0.53502 0.84839 0.0
C497 C 0.40104 0.4941 0.88849 0.0
C498 C 0.42287 0.5622 0.84041 0.0
C499 C 0.43611 0.57973 0.86416 0.0
C500 C 0.40983 0.5251 0.88032 0.0
C501 C 0.43361 0.57029 0.89616 0.0
C502 C 0.40125 0.48367 0.92024 0.0
C503 C 0.38968 0.44518 0.87006 0.0
N504 N 0.42121 0.54329 0.90328 0.0
N505 N 0.39513 0.47456 0.86452 0.0
H506 H 0.62703 0.46295 0.4917 0.0
H507 H 0.53477 0.41774 0.33537 0.0
H508 H 0.6403 0.5069 0.40047 0.0
H509 H 0.51968 0.38101 0.43003 0.0
H510 H 0.57242 0.45168 0.35788 0.0
H511 H 0.58682 0.43341 0.46861 0.0
C512 C 0.62153 0.46627 0.4667 0.0
C513 C 0.63723 0.48718 0.44789 0.0
C514 C 0.56067 0.43626 0.37363 0.0
C515 C 0.59085 0.45351 0.42117 0.0
C516 C 0.53916 0.41692 0.36083 0.0
C517 C 0.52414 0.39628 0.38074 0.0
C518 C 0.56713 0.43485 0.40651 0.0
C519 C 0.53078 0.39626 0.41357 0.0
C520 C 0.5984 0.44952 0.45353 0.0
C521 C 0.62868 0.49102 0.4158 0.0
N522 N 0.55179 0.41508 0.4253 0.0
N523 N 0.60615 0.47418 0.40334 0.0
H524 H 0.6891 0.50167 0.92767 0.0
H525 H 0.55897 0.62554 0.93288 0.0
H526 H 0.64682 0.53262 0.01484 0.0
H527 H 0.58237 0.57711 0.84711 0.0
H528 H 0.59654 0.59667 0.9622 0.0
H529 H 0.65492 0.53364 0.89691 0.0
C530 C 0.67264 0.51508 0.94039 0.0
C531 C 0.67087 0.5143 0.974 0.0
C532 C 0.59351 0.59242 0.93694 0.0
C533 C 0.63208 0.55136 0.93885 0.0
C534 C 0.57212 0.60899 0.92009 0.0
C535 C 0.56728 0.60365 0.88744 0.0
C536 C 0.61043 0.57043 0.92109 0.0
C537 C 0.58514 0.58188 0.87228 0.0
C538 C 0.65325 0.53344 0.92278 0.0
C539 C 0.64943 0.53272 0.98908 0.0
N540 N 0.6059 0.56602 0.88925 0.0
N541 N 0.63092 0.55045 0.97141 0.0
H542 H 0.29525 0.50802 0.36982 0.0
H543 H 0.39194 0.36649 0.42419 0.0
H544 H 0.33062 0.49433 0.46488 0.0
H545 H 0.37651 0.39202 0.32575 0.0
H546 H 0.356 0.4048 0.44115 0.0
H547 H 0.31195 0.45771 0.35565 0.0
C548 C 0.30621 0.49435 0.38782 0.0
C549 C 0.31213 0.50569 0.41838 0.0
C550 C 0.3601 0.40161 0.41582 0.0
C551 C 0.33093 0.44806 0.40241 0.0
C552 C 0.38052 0.37966 0.40608 0.0
C553 C 0.38782 0.37656 0.37352 0.0
C554 C 0.34686 0.42045 0.39282 0.0
C555 C 0.37208 0.3941 0.35116 0.0
C556 C 0.31556 0.46559 0.37976 0.0
C557 C 0.3256 0.48662 0.44102 0.0
N558 N 0.35268 0.41562 0.36125 0.0
N559 N 0.33493 0.4589 0.43243 0.0
H560 H 0.79911 0.01397 0.90036 0.0
H561 H 0.92039 0.13394 0.95222 0.0
H562 H 0.82869 0.02578 0.99766 0.0
H563 H 0.89846 0.11169 0.85475 0.0
H564 H 0.87679 0.10483 0.97063 0.0
H565 H 0.82385 0.06056 0.88546 0.0
C566 C 0.81007 0.02677 0.91883 0.0
C567 C 0.8125 0.01558 0.95015 0.0
C568 C 0.88127 0.10677 0.94519 0.0
C569 C 0.84166 0.06849 0.93301 0.0
C570 C 0.90613 0.12337 0.93469 0.0
C571 C 0.91348 0.12454 0.90199 0.0
C572 C 0.8637 0.09146 0.92279 0.0
C573 C 0.89408 0.11071 0.88027 0.0
C574 C 0.82447 0.05328 0.91022 0.0
C575 C 0.82708 0.03318 0.973 0.0
N576 N 0.87032 0.09445 0.89108 0.0
N577 N 0.84168 0.05848 0.96385 0.0
H578 H 0.15566 0.00667 0.43836 0.0
H579 H 0.03948 0.87024 0.44186 0.0
H580 H 0.14808 0.94322 0.51624 0.0
H581 H 0.04922 0.93039 0.36113 0.0
H582 H 0.07879 0.89741 0.46955 0.0
H583 H 0.11619 0.97979 0.40988 0.0
C584 C 0.14562 0.98714 0.44951 0.0
C585 C 0.15519 0.97716 0.47972 0.0
C586 C 0.07236 0.9047 0.44578 0.0
C587 C 0.1102 0.94621 0.44721 0.0
C588 C 0.04982 0.8892 0.42991 0.0
C589 C 0.04091 0.89802 0.39905 0.0
C590 C 0.08618 0.92931 0.43081 0.0
C591 C 0.0553 0.92275 0.38487 0.0
C592 C 0.12321 0.97173 0.43317 0.0
C593 C 0.14169 0.9515 0.49283 0.0
N594 N 0.07722 0.93755 0.40089 0.0
N595 N 0.11986 0.93697 0.47653 0.0
H596 H 0.17522 0.99063 0.91681 0.0
H597 H 0.05326 0.11772 0.95491 0.0
H598 H 0.15411 0.02107 0.01224 0.0
H599 H 0.06168 0.07528 0.86275 0.0
H600 H 0.09225 0.08439 0.97568 0.0
H601 H 0.13583 0.02358 0.89582 0.0
C602 C 0.16231 0.00419 0.93336 0.0
C603 C 0.16809 0.00307 0.96636 0.0
C604 C 0.08548 0.08229 0.95094 0.0
C605 C 0.12313 0.04101 0.94244 0.0
C606 C 0.0632 0.10133 0.93904 0.0
C607 C 0.05409 0.09931 0.90701 0.0
C608 C 0.099 0.06119 0.93065 0.0
C609 C 0.06784 0.07758 0.88763 0.0
C610 C 0.13987 0.02305 0.92135 0.0
C611 C 0.15089 0.02151 0.98659 0.0
N612 N 0.0897 0.05946 0.89972 0.0
N613 N 0.12923 0.03969 0.9743 0.0
H614 H 0.82779 0.01345 0.47803 0.0
H615 H 0.89647 0.92284 0.33069 0.0
H616 H 0.84074 0.04888 0.38246 0.0
H617 H 0.90397 0.89296 0.42881 0.0
H618 H 0.86401 0.96359 0.34815 0.0
H619 H 0.84486 0.96456 0.45914 0.0
C620 C 0.83396 0.01099 0.45307 0.0
C621 C 0.83315 0.03558 0.43194 0.0
C622 C 0.87245 0.94794 0.36586 0.0
C623 C 0.85211 0.97956 0.41016 0.0
C624 C 0.89098 0.92462 0.35591 0.0
C625 C 0.90351 0.90483 0.37842 0.0
C626 C 0.86652 0.95175 0.39861 0.0
C627 C 0.89506 0.9079 0.41069 0.0
C628 C 0.84351 0.98301 0.44231 0.0
C629 C 0.84068 0.03073 0.39969 0.0
N630 N 0.87746 0.9313 0.41993 0.0
N631 N 0.85005 0.0034 0.38991 0.0
H632 H 0.40586 0.25269 0.07603 0.0
H633 H 0.39212 0.33869 0.23704 0.0
H634 H 0.3355 0.31841 0.09053 0.0
H635 H 0.42901 0.24939 0.23183 0.0
H636 H 0.36958 0.33174 0.18434 0.0
H637 H 0.41357 0.2506 0.13349 0.0
C638 C 0.39158 0.26631 0.0912 0.0
C639 C 0.3702 0.28605 0.0781 0.0
C640 C 0.38213 0.3135 0.19509 0.0
C641 C 0.37969 0.28433 0.14418 0.0
C642 C 0.39505 0.31746 0.22514 0.0
C643 C 0.41301 0.29482 0.23867 0.0
C644 C 0.38766 0.28696 0.17832 0.0
C645 C 0.41572 0.26766 0.22224 0.0
C646 C 0.39614 0.26518 0.12412 0.0
C647 C 0.35288 0.3035 0.0993 0.0
N648 N 0.40373 0.26472 0.19266 0.0
N649 N 0.35835 0.30261 0.13125 0.0
H650 H 0.70137 0.61428 0.65668 0.0
H651 H 0.54886 0.69772 0.70796 0.0
H652 H 0.63244 0.64116 0.5897 0.0
H653 H 0.60232 0.64328 0.77172 0.0
H654 H 0.58657 0.68961 0.66551 0.0
H655 H 0.67181 0.63663 0.69988 0.0
C656 C 0.68007 0.62492 0.65099 0.0
C657 C 0.66917 0.62531 0.6195 0.0
C658 C 0.59026 0.67995 0.68901 0.0
C659 C 0.63555 0.65152 0.66885 0.0
C660 C 0.56894 0.6848 0.71327 0.0
C661 C 0.57243 0.67089 0.7432 0.0
C662 C 0.61528 0.66142 0.69502 0.0
C663 C 0.59868 0.65412 0.74881 0.0
C664 C 0.66335 0.63788 0.67565 0.0
C665 C 0.64184 0.64032 0.61352 0.0
N666 N 0.61899 0.64966 0.72486 0.0
N667 N 0.62584 0.6526 0.63801 0.0
H668 H 0.6868 0.33101 0.16317 0.0
H669 H 0.52013 0.36142 0.22682 0.0
H670 H 0.62155 0.38696 0.11508 0.0
H671 H 0.57193 0.28605 0.26118 0.0
H672 H 0.559 0.37169 0.18731 0.0
H673 H 0.64697 0.31448 0.20049 0.0
C674 C 0.66411 0.33963 0.1603 0.0
C675 C 0.65753 0.36043 0.13592 0.0
C676 C 0.56197 0.35279 0.20331 0.0
C677 C 0.61212 0.34176 0.17848 0.0
C678 C 0.53979 0.34699 0.22613 0.0
C679 C 0.54283 0.32293 0.24759 0.0
C680 C 0.58781 0.3347 0.20191 0.0
C681 C 0.5687 0.30484 0.2451 0.0
C682 C 0.64142 0.33008 0.18148 0.0
C683 C 0.6277 0.37065 0.13316 0.0
N684 N 0.59043 0.31126 0.22281 0.0
N685 N 0.60627 0.36142 0.15429 0.0
H686 H 0.33382 0.68228 0.60007 0.0
H687 H 0.45632 0.60808 0.71619 0.0
H688 H 0.38574 0.60371 0.57639 0.0
H689 H 0.41617 0.69483 0.73206 0.0
H690 H 0.42541 0.60269 0.66847 0.0
H691 H 0.35867 0.68371 0.65217 0.0
C692 C 0.35025 0.66519 0.60598 0.0
C693 C 0.35796 0.643 0.58383 0.0
C694 C 0.42328 0.62283 0.6825 0.0
C695 C 0.38651 0.64455 0.64318 0.0
C696 C 0.44087 0.62591 0.70982 0.0
C697 C 0.4391 0.65208 0.72804 0.0
C698 C 0.40368 0.64603 0.67338 0.0
C699 C 0.41855 0.67437 0.71861 0.0
C700 C 0.36453 0.66609 0.63561 0.0
C701 C 0.37953 0.62149 0.59259 0.0
N702 N 0.40175 0.67088 0.69185 0.0
N703 N 0.39312 0.62285 0.62155 0.0
H704 H 0.83274 0.90248 0.11106 0.0
H705 H 0.91576 0.79142 0.2321 0.0
H706 H 0.83092 0.80649 0.10174 0.0
H707 H 0.91502 0.88749 0.24129 0.0
H708 H 0.88142 0.79598 0.18689 0.0
H709 H 0.85885 0.89681 0.1617 0.0
C710 C 0.83733 0.88014 0.11991 0.0
C711 C 0.82964 0.8549 0.10201 0.0
C712 C 0.88866 0.81603 0.19894 0.0
C713 C 0.86039 0.8483 0.1598 0.0
C714 C 0.90831 0.81347 0.22475 0.0
C715 C 0.91859 0.83914 0.24038 0.0
C716 C 0.87923 0.84445 0.18865 0.0
C717 C 0.90797 0.86708 0.22986 0.0
C718 C 0.85253 0.87694 0.14877 0.0
C719 C 0.83682 0.82658 0.1145 0.0
N720 N 0.88902 0.86897 0.20456 0.0
N721 N 0.852 0.82405 0.14253 0.0
H722 H 0.14745 0.13465 0.62061 0.0
H723 H 0.08285 0.12242 0.79606 0.0
H724 H 0.19639 0.09098 0.69693 0.0
H725 H 0.0594 0.19705 0.73516 0.0
H726 H 0.1228 0.10868 0.75847 0.0
H727 H 0.11352 0.1566 0.66045 0.0
C728 C 0.15141 0.12995 0.64569 0.0
C729 C 0.17476 0.11056 0.65528 0.0
C730 C 0.10916 0.12825 0.75343 0.0
C731 C 0.13545 0.13516 0.70085 0.0
C732 C 0.08627 0.13602 0.77479 0.0
C733 C 0.06775 0.16082 0.76857 0.0
C734 C 0.11319 0.14496 0.72522 0.0
C735 C 0.07329 0.17781 0.7408 0.0
C736 C 0.13191 0.14245 0.66839 0.0
C737 C 0.17831 0.10508 0.6882 0.0
N738 N 0.09528 0.16929 0.7198 0.0
N739 N 0.15867 0.11699 0.70971 0.0
H740 H 0.17424 0.81837 0.13561 0.0
H741 H 0.06308 0.88742 0.26727 0.0
H742 H 0.15173 0.91179 0.14374 0.0
H743 H 0.05893 0.79428 0.24132 0.0
H744 H 0.10357 0.89463 0.22874 0.0
H745 H 0.1392 0.80735 0.1803 0.0
C746 C 0.16206 0.83649 0.14694 0.0
C747 C 0.16552 0.86597 0.13588 0.0
C748 C 0.09392 0.87255 0.2315 0.0
C749 C 0.1261 0.85371 0.18675 0.0
C750 C 0.07075 0.86835 0.2536 0.0
C751 C 0.05713 0.84025 0.25727 0.0
C752 C 0.10382 0.84855 0.21275 0.0
C753 C 0.06857 0.81638 0.2391 0.0
C754 C 0.14209 0.83021 0.17224 0.0
C755 C 0.14935 0.88871 0.15126 0.0
N756 N 0.09117 0.82112 0.21737 0.0
N757 N 0.13041 0.88211 0.17586 0.0
H758 H 0.84465 0.22371 0.61944 0.0
H759 H 0.92542 0.1324 0.75959 0.0
H760 H 0.87821 0.1337 0.61019 0.0
H761 H 0.92995 0.22869 0.75327 0.0
H762 H 0.89545 0.13197 0.71105 0.0
H763 H 0.86447 0.22504 0.6744 0.0
C764 C 0.85594 0.20421 0.62919 0.0
C765 C 0.86017 0.17865 0.61048 0.0
C766 C 0.90279 0.1532 0.72048 0.0
C767 C 0.88217 0.1798 0.67276 0.0
C768 C 0.91984 0.15353 0.74829 0.0
C769 C 0.93076 0.18063 0.7603 0.0
C770 C 0.89634 0.18011 0.7046 0.0
C771 C 0.92237 0.20726 0.74466 0.0
C772 C 0.86724 0.20499 0.66032 0.0
C773 C 0.87487 0.15389 0.6239 0.0
N774 N 0.90583 0.20633 0.71738 0.0
N775 N 0.88533 0.15506 0.65427 0.0
loop_
_geom_bond_atom_site_label_1
_geom_bond_atom_site_label_2
_geom_bond_distance
_geom_bond_site_symmetry_2
_ccdc_geom_bond_type
P0 O11 1.490 . S
P0 C14 1.812 1_556 S
P0 C20 1.803 . S
P0 C26 1.819 . S
H1 C15 0.941 . S
H2 C16 0.939 . S
H3 C18 0.940 . S
H4 C19 0.940 . S
H5 C21 0.939 . S
H6 C22 0.942 . S
H7 C24 0.940 1_554 S
H8 C25 0.939 . S
H9 C27 0.941 . S
H10 C31 0.939 . S
O11 P0 1.490 . S
H12 C28 0.939 . S
H13 C30 0.940 . S
C14 P0 1.812 1_554 S
C14 C15 1.389 . S
C14 C19 1.391 . S
C15 H1 0.941 . S
C15 C14 1.389 . S
C15 C16 1.397 . S
C16 H2 0.939 . S
C16 C15 1.397 . S
C16 C17 1.378 . S
C17 C16 1.378 . S
C17 C18 1.378 . S
C18 H3 0.940 . S
C18 C17 1.378 . S
C18 C19 1.396 . S
C19 H4 0.940 . S
C19 C14 1.391 . S
C19 C18 1.396 . S
C20 P0 1.803 . S
C20 C21 1.378 . S
C20 C25 1.400 1_556 S
C21 H5 0.939 . S
C21 C20 1.378 . S
C21 C22 1.361 . S
C22 H6 0.942 . S
C22 C21 1.361 . S
C22 C23 1.369 . S
C23 C22 1.369 . S
C23 C24 1.404 . S
C24 H7 0.940 1_556 S
C24 C23 1.404 . S
C24 C25 1.389 1_556 S
C25 H8 0.939 . S
C25 C20 1.400 1_554 S
C25 C24 1.389 1_554 S
C26 P0 1.819 . S
C26 C27 1.391 . S
C26 C31 1.391 . S
C27 H9 0.941 . S
C27 C26 1.391 . S
C27 C28 1.396 . S
C28 H12 0.939 . S
C28 C27 1.396 . S
C28 C29 1.397 . S
C29 C28 1.397 . S
C29 C30 1.385 . S
C30 H13 0.940 . S
C30 C29 1.385 . S
C30 C31 1.388 . S
C31 H10 0.939 . S
C31 C26 1.391 . S
C31 C30 1.388 . S
P32 O43 1.490 . S
P32 C46 1.812 . S
P32 C52 1.803 . S
P32 C58 1.819 . S
H33 C47 0.941 . S
H34 C48 0.939 . S
H35 C50 0.940 . S
H36 C51 0.940 . S
H37 C53 0.939 . S
H38 C54 0.942 . S
H39 C56 0.940 . S
H40 C57 0.939 . S
H41 C59 0.941 . S
H42 C63 0.939 . S
O43 P32 1.490 . S
H44 C60 0.939 . S
H45 C62 0.940 . S
C46 P32 1.812 . S
C46 C47 1.389 . S
C46 C51 1.391 . S
C47 H33 0.941 . S
C47 C46 1.389 . S
C47 C48 1.397 . S
C48 H34 0.939 . S
C48 C47 1.397 . S
C48 C49 1.378 . S
C49 C48 1.378 . S
C49 C50 1.378 . S
C50 H35 0.940 . S
C50 C49 1.378 . S
C50 C51 1.396 . S
C51 H36 0.940 . S
C51 C46 1.391 . S
C51 C50 1.396 . S
C52 P32 1.803 . S
C52 C53 1.378 . S
C52 C57 1.400 . S
C53 H37 0.939 . S
C53 C52 1.378 . S
C53 C54 1.361 . S
C54 H38 0.942 . S
C54 C53 1.361 . S
C54 C55 1.369 . S
C55 C54 1.369 . S
C55 C56 1.404 . S
C56 H39 0.940 . S
C56 C55 1.404 . S
C56 C57 1.389 . S
C57 H40 0.939 . S
C57 C52 1.400 . S
C57 C56 1.389 . S
C58 P32 1.819 . S
C58 C59 1.391 . S
C58 C63 1.391 . S
C59 H41 0.941 . S
C59 C58 1.391 . S
C59 C60 1.396 . S
C60 H44 0.939 . S
C60 C59 1.396 . S
C60 C61 1.397 . S
C61 C60 1.397 . S
C61 C62 1.385 . S
C62 H45 0.940 . S
C62 C61 1.385 . S
C62 C63 1.388 . S
C63 H42 0.939 . S
C63 C58 1.391 . S
C63 C62 1.388 . S
P64 O75 1.490 . S
P64 C78 1.812 . S
P64 C84 1.803 . S
P64 C90 1.819 . S
H65 C79 0.941 . S
H66 C80 0.939 . S
H67 C82 0.940 . S
H68 C83 0.940 . S
H69 C85 0.937 1_554 S
H70 C86 0.942 . S
H71 C88 0.940 . S
H72 C89 0.939 . S
H73 C91 0.941 . S
H74 C95 0.939 . S
O75 P64 1.490 . S
H76 C92 0.939 . S
H77 C94 0.940 . S
C78 P64 1.812 . S
C78 C79 1.389 . S
C78 C83 1.391 . S
C79 H65 0.941 . S
C79 C78 1.389 . S
C79 C80 1.397 . S
C80 H66 0.939 . S
C80 C79 1.397 . S
C80 C81 1.378 . S
C81 C80 1.378 . S
C81 C82 1.378 . S
C82 H67 0.940 . S
C82 C81 1.378 . S
C82 C83 1.396 . S
C83 H68 0.940 . S
C83 C78 1.391 . S
C83 C82 1.396 . S
C84 P64 1.803 . S
C84 C85 1.378 1_554 S
C84 C89 1.400 . S
C85 H69 0.937 1_556 S
C85 C84 1.378 1_556 S
C85 C86 1.361 . S
C86 H70 0.942 . S
C86 C85 1.361 . S
C86 C87 1.369 . S
C87 C86 1.369 . S
C87 C88 1.404 . S
C88 H71 0.940 . S
C88 C87 1.404 . S
C88 C89 1.389 1_556 S
C89 H72 0.939 . S
C89 C84 1.400 . S
C89 C88 1.389 1_554 S
C90 P64 1.819 . S
C90 C91 1.391 . S
C90 C95 1.391 1_554 S
C91 H73 0.941 . S
C91 C90 1.391 . S
C91 C92 1.396 1_554 S
C92 H76 0.939 . S
C92 C91 1.396 1_556 S
C92 C93 1.397 . S
C93 C92 1.397 . S
C93 C94 1.385 . S
C94 H77 0.940 . S
C94 C93 1.385 . S
C94 C95 1.388 . S
C95 H74 0.939 . S
C95 C90 1.391 1_556 S
C95 C94 1.388 . S
P96 O107 1.490 . S
P96 C110 1.812 . S
P96 C116 1.803 . S
P96 C122 1.819 . S
H97 C111 0.941 . S
H98 C112 0.939 . S
H99 C114 0.940 . S
H100 C115 0.940 . S
H101 C117 0.939 . S
H102 C118 0.942 . S
H103 C120 0.940 . S
H104 C121 0.939 . S
H105 C123 0.941 . S
H106 C127 0.939 . S
O107 P96 1.490 . S
H108 C124 0.939 . S
H109 C126 0.940 . S
C110 P96 1.812 . S
C110 C111 1.389 . S
C110 C115 1.391 . S
C111 H97 0.941 . S
C111 C110 1.389 . S
C111 C112 1.397 . S
C112 H98 0.939 . S
C112 C111 1.397 . S
C112 C113 1.378 . S
C113 C112 1.378 . S
C113 C114 1.378 . S
C114 H99 0.940 . S
C114 C113 1.378 . S
C114 C115 1.396 . S
C115 H100 0.940 . S
C115 C110 1.391 . S
C115 C114 1.396 . S
C116 P96 1.803 . S
C116 C117 1.378 . S
C116 C121 1.400 . S
C117 H101 0.939 . S
C117 C116 1.378 . S
C117 C118 1.361 . S
C118 H102 0.942 . S
C118 C117 1.361 . S
C118 C119 1.369 . S
C119 C118 1.369 . S
C119 C120 1.404 . S
C120 H103 0.940 . S
C120 C119 1.404 . S
C120 C121 1.389 . S
C121 H104 0.939 . S
C121 C116 1.400 . S
C121 C120 1.389 . S
C122 P96 1.819 . S
C122 C123 1.391 . S
C122 C127 1.391 . S
C123 H105 0.941 . S
C123 C122 1.391 . S
C123 C124 1.396 . S
C124 H108 0.939 . S
C124 C123 1.396 . S
C124 C125 1.397 . S
C125 C124 1.397 . S
C125 C126 1.385 . S
C126 H109 0.940 . S
C126 C125 1.385 . S
C126 C127 1.388 . S
C127 H106 0.939 . S
C127 C122 1.391 . S
C127 C126 1.388 . S
P128 O139 1.490 . S
P128 C142 1.812 1_556 S
P128 C148 1.803 . S
P128 C154 1.819 . S
H129 C143 0.941 . S
H130 C144 0.939 . S
H131 C146 0.940 . S
H132 C147 0.940 . S
H133 C149 0.939 . S
H134 C150 0.942 . S
H135 C152 0.940 1_554 S
H136 C153 0.939 . S
H137 C155 0.941 . S
H138 C159 0.939 . S
O139 P128 1.490 . S
H140 C156 0.939 . S
H141 C158 0.940 . S
C142 P128 1.812 1_554 S
C142 C143 1.389 . S
C142 C147 1.391 . S
C143 H129 0.941 . S
C143 C142 1.389 . S
C143 C144 1.397 . S
C144 H130 0.939 . S
C144 C143 1.397 . S
C144 C145 1.378 . S
C145 C144 1.378 . S
C145 C146 1.378 . S
C146 H131 0.940 . S
C146 C145 1.378 . S
C146 C147 1.396 . S
C147 H132 0.940 . S
C147 C142 1.391 . S
C147 C146 1.396 . S
C148 P128 1.803 . S
C148 C149 1.378 . S
C148 C153 1.400 1_556 S
C149 H133 0.939 . S
C149 C148 1.378 . S
C149 C150 1.361 . S
C150 H134 0.942 . S
C150 C149 1.361 . S
C150 C151 1.369 . S
C151 C150 1.369 . S
C151 C152 1.404 . S
C152 H135 0.940 1_556 S
C152 C151 1.404 . S
C152 C153 1.389 1_556 S
C153 H136 0.939 . S
C153 C148 1.400 1_554 S
C153 C152 1.389 1_554 S
C154 P128 1.819 . S
C154 C155 1.391 . S
C154 C159 1.391 . S
C155 H137 0.941 . S
C155 C154 1.391 . S
C155 C156 1.396 . S
C156 H140 0.939 . S
C156 C155 1.396 . S
C156 C157 1.397 . S
C157 C156 1.397 . S
C157 C158 1.385 . S
C158 H141 0.940 . S
C158 C157 1.385 . S
C158 C159 1.388 . S
C159 H138 0.939 . S
C159 C154 1.391 . S
C159 C158 1.388 . S
P160 O171 1.490 . S
P160 C174 1.812 . S
P160 C180 1.803 . S
P160 C186 1.819 . S
H161 C175 0.941 . S
H162 C176 0.939 1_565 S
H163 C178 0.940 . S
H164 C179 0.940 . S
H165 C181 0.939 . S
H166 C182 0.942 . S
H167 C184 0.940 . S
H168 C185 0.939 . S
H169 C187 0.941 . S
H170 C191 0.939 . S
O171 P160 1.490 . S
H172 C188 0.939 . S
H173 C190 0.940 . S
C174 P160 1.812 . S
C174 C175 1.389 . S
C174 C179 1.391 . S
C175 H161 0.941 . S
C175 C174 1.389 . S
C175 C176 1.397 . S
C176 H162 0.939 1_545 S
C176 C175 1.397 . S
C176 C177 1.378 . S
C177 C176 1.378 . S
C177 C178 1.378 . S
C178 H163 0.940 . S
C178 C177 1.378 . S
C178 C179 1.396 . S
C179 H164 0.940 . S
C179 C174 1.391 . S
C179 C178 1.396 . S
C180 P160 1.803 . S
C180 C181 1.378 . S
C180 C185 1.400 . S
C181 H165 0.939 . S
C181 C180 1.378 . S
C181 C182 1.361 . S
C182 H166 0.942 . S
C182 C181 1.361 . S
C182 C183 1.369 . S
C183 C182 1.369 . S
C183 C184 1.404 . S
C184 H167 0.940 . S
C184 C183 1.404 . S
C184 C185 1.389 . S
C185 H168 0.939 . S
C185 C180 1.400 . S
C185 C184 1.389 . S
C186 P160 1.819 . S
C186 C187 1.391 . S
C186 C191 1.391 . S
C187 H169 0.941 . S
C187 C186 1.391 . S
C187 C188 1.396 . S
C188 H172 0.939 . S
C188 C187 1.396 . S
C188 C189 1.397 . S
C189 C188 1.397 . S
C189 C190 1.385 . S
C190 H173 0.940 . S
C190 C189 1.385 . S
C190 C191 1.388 . S
C191 H170 0.939 . S
C191 C186 1.391 . S
C191 C190 1.388 . S
P192 O203 1.490 . S
P192 C206 1.812 . S
P192 C212 1.803 . S
P192 C218 1.819 . S
H193 C207 0.941 . S
H194 C208 0.939 . S
H195 C210 0.940 . S
H196 C211 0.940 . S
H197 C213 0.937 1_554 S
H198 C214 0.942 . S
H199 C216 0.940 . S
H200 C217 0.939 . S
H201 C219 0.941 . S
H202 C223 0.939 . S
O203 P192 1.490 . S
H204 C220 0.939 1_545 S
H205 C222 0.940 . S
C206 P192 1.812 . S
C206 C207 1.389 . S
C206 C211 1.391 . S
C207 H193 0.941 . S
C207 C206 1.389 . S
C207 C208 1.397 . S
C208 H194 0.939 . S
C208 C207 1.397 . S
C208 C209 1.378 . S
C209 C208 1.378 . S
C209 C210 1.378 . S
C210 H195 0.940 . S
C210 C209 1.378 . S
C210 C211 1.396 . S
C211 H196 0.940 . S
C211 C206 1.391 . S
C211 C210 1.396 . S
C212 P192 1.803 . S
C212 C213 1.378 1_554 S
C212 C217 1.400 . S
C213 H197 0.937 1_556 S
C213 C212 1.378 1_556 S
C213 C214 1.361 . S
C214 H198 0.942 . S
C214 C213 1.361 . S
C214 C215 1.369 . S
C215 C214 1.369 . S
C215 C216 1.404 . S
C216 H199 0.940 . S
C216 C215 1.404 . S
C216 C217 1.389 1_556 S
C217 H200 0.939 . S
C217 C212 1.400 . S
C217 C216 1.389 1_554 S
C218 P192 1.819 . S
C218 C219 1.391 . S
C218 C223 1.391 1_554 S
C219 H201 0.941 . S
C219 C218 1.391 . S
C219 C220 1.396 1_554 S
C220 H204 0.939 1_565 S
C220 C219 1.396 1_556 S
C220 C221 1.397 . S
C221 C220 1.397 . S
C221 C222 1.385 . S
C222 H205 0.940 . S
C222 C221 1.385 . S
C222 C223 1.388 . S
C223 H202 0.939 . S
C223 C218 1.391 1_556 S
C223 C222 1.388 . S
P224 O235 1.490 . S
P224 C238 1.812 . S
P224 C244 1.803 . S
P224 C250 1.819 . S
H225 C239 0.941 . S
H226 C240 0.939 . S
H227 C242 0.940 . S
H228 C243 0.940 . S
H229 C245 0.939 . S
H230 C246 0.942 . S
H231 C248 0.940 . S
H232 C249 0.939 . S
H233 C251 0.941 . S
H234 C255 0.939 . S
O235 P224 1.490 . S
H236 C252 0.939 . S
H237 C254 0.940 . S
C238 P224 1.812 . S
C238 C239 1.389 . S
C238 C243 1.391 . S
C239 H225 0.941 . S
C239 C238 1.389 . S
C239 C240 1.397 . S
C240 H226 0.939 . S
C240 C239 1.397 . S
C240 C241 1.378 . S
C241 C240 1.378 . S
C241 C242 1.378 . S
C242 H227 0.940 . S
C242 C241 1.378 . S
C242 C243 1.396 . S
C243 H228 0.940 . S
C243 C238 1.391 . S
C243 C242 1.396 . S
C244 P224 1.803 . S
C244 C245 1.378 . S
C244 C249 1.400 . S
C245 H229 0.939 . S
C245 C244 1.378 . S
C245 C246 1.361 . S
C246 H230 0.942 . S
C246 C245 1.361 . S
C246 C247 1.369 . S
C247 C246 1.369 . S
C247 C248 1.404 . S
C248 H231 0.940 . S
C248 C247 1.404 . S
C248 C249 1.389 . S
C249 H232 0.939 . S
C249 C244 1.400 . S
C249 C248 1.389 . S
C250 P224 1.819 . S
C250 C251 1.391 . S
C250 C255 1.391 . S
C251 H233 0.941 . S
C251 C250 1.391 . S
C251 C252 1.396 . S
C252 H236 0.939 . S
C252 C251 1.396 . S
C252 C253 1.397 . S
C253 C252 1.397 . S
C253 C254 1.385 . S
C254 H237 0.940 . S
C254 C253 1.385 . S
C254 C255 1.388 . S
C255 H234 0.939 . S
C255 C250 1.391 . S
C255 C254 1.388 . S
Sc256 O259 2.025 . S
Sc256 O266 2.105 1_455 S
Sc256 O269 2.105 . S
Sc256 O272 2.105 . S
Sc256 O275 2.105 1_455 S
Sc257 O259 2.025 . S
Sc257 O267 2.105 1_455 S
Sc257 O271 2.105 . S
Sc257 O273 2.105 . S
Sc257 O277 2.105 1_455 S
Sc258 O259 2.025 . S
Sc258 O268 2.105 1_455 S
Sc258 O270 2.105 . S
Sc258 O274 2.105 . S
Sc258 O276 2.105 1_455 S
O259 Sc256 2.025 . S
O259 Sc257 2.025 . S
O259 Sc258 2.025 . S
C260 O266 1.268 . S
C260 O276 1.268 . S
C261 O267 1.268 . S
C261 O275 1.268 . S
C262 O268 1.268 . S
C262 O277 1.268 . S
C263 O269 1.268 . S
C263 O273 1.268 . S
C264 O270 1.268 . S
C264 O272 1.268 . S
C265 O271 1.268 . S
C265 O274 1.268 . S
O266 Sc256 2.105 1_655 S
O266 C260 1.268 . S
O267 Sc257 2.105 1_655 S
O267 C261 1.268 . S
O268 Sc258 2.105 1_655 S
O268 C262 1.268 . S
O269 Sc256 2.105 . S
O269 C263 1.268 . S
O270 Sc258 2.105 . S
O270 C264 1.268 . S
O271 Sc257 2.105 . S
O271 C265 1.268 . S
O272 Sc256 2.105 . S
O272 C264 1.268 . S
O273 Sc257 2.105 . S
O273 C263 1.268 . S
O274 Sc258 2.105 . S
O274 C265 1.268 . S
O275 Sc256 2.105 1_655 S
O275 C261 1.268 . S
O276 Sc258 2.105 1_655 S
O276 C260 1.268 . S
O277 Sc257 2.105 1_655 S
O277 C262 1.268 . S
Sc278 O281 2.025 . S
Sc278 O288 2.105 . S
Sc278 O291 2.105 1_455 S
Sc278 O294 2.105 1_455 S
Sc278 O297 2.105 . S
Sc279 O281 2.025 . S
Sc279 O289 2.105 . S
Sc279 O293 2.105 1_455 S
Sc279 O295 2.105 1_455 S
Sc279 O299 2.105 . S
Sc280 O281 2.025 . S
Sc280 O290 2.105 . S
Sc280 O292 2.105 1_455 S
Sc280 O296 2.105 1_455 S
Sc280 O298 2.105 . S
O281 Sc278 2.025 . S
O281 Sc279 2.025 . S
O281 Sc280 2.025 . S
C282 O288 1.268 . S
C282 O298 1.268 . S
C283 O289 1.268 . S
C283 O297 1.268 . S
C284 O290 1.268 . S
C284 O299 1.268 . S
C285 O291 1.268 . S
C285 O295 1.268 . S
C286 O292 1.268 . S
C286 O294 1.268 . S
C287 O293 1.268 . S
C287 O296 1.268 . S
O288 Sc278 2.105 . S
O288 C282 1.268 . S
O289 Sc279 2.105 . S
O289 C283 1.268 . S
O290 Sc280 2.105 . S
O290 C284 1.268 . S
O291 Sc278 2.105 1_655 S
O291 C285 1.268 . S
O292 Sc280 2.105 1_655 S
O292 C286 1.268 . S
O293 Sc279 2.105 1_655 S
O293 C287 1.268 . S
O294 Sc278 2.105 1_655 S
O294 C286 1.268 . S
O295 Sc279 2.105 1_655 S
O295 C285 1.268 . S
O296 Sc280 2.105 1_655 S
O296 C287 1.268 . S
O297 Sc278 2.105 . S
O297 C283 1.268 . S
O298 Sc280 2.105 . S
O298 C282 1.268 . S
O299 Sc279 2.105 . S
O299 C284 1.268 . S
Sc300 O303 2.025 . S
Sc300 O310 2.105 . S
Sc300 O313 2.105 . S
Sc300 O316 2.105 . S
Sc300 O319 2.105 . S
Sc301 O303 2.025 . S
Sc301 O311 2.105 . S
Sc301 O315 2.105 . S
Sc301 O317 2.105 . S
Sc301 O321 2.105 . S
Sc302 O303 2.025 . S
Sc302 O312 2.105 . S
Sc302 O314 2.105 . S
Sc302 O318 2.105 . S
Sc302 O320 2.105 . S
O303 Sc300 2.025 . S
O303 Sc301 2.025 . S
O303 Sc302 2.025 . S
C304 O310 1.268 . S
C304 O320 1.268 . S
C305 O311 1.268 . S
C305 O319 1.268 . S
C306 O312 1.268 . S
C306 O321 1.268 . S
C307 O313 1.268 . S
C307 O317 1.268 . S
C308 O314 1.268 . S
C308 O316 1.268 . S
C309 O315 1.268 . S
C309 O318 1.268 . S
O310 Sc300 2.105 . S
O310 C304 1.268 . S
O311 Sc301 2.105 . S
O311 C305 1.268 . S
O312 Sc302 2.105 . S
O312 C306 1.268 . S
O313 Sc300 2.105 . S
O313 C307 1.268 . S
O314 Sc302 2.105 . S
O314 C308 1.268 . S
O315 Sc301 2.105 . S
O315 C309 1.268 . S
O316 Sc300 2.105 . S
O316 C308 1.268 . S
O317 Sc301 2.105 . S
O317 C307 1.268 . S
O318 Sc302 2.105 . S
O318 C309 1.268 . S
O319 Sc300 2.105 . S
O319 C305 1.268 . S
O320 Sc302 2.105 . S
O320 C304 1.268 . S
O321 Sc301 2.105 . S
O321 C306 1.268 . S
Sc322 O325 2.025 . S
Sc322 O332 2.105 . S
Sc322 O335 2.105 . S
Sc322 O338 2.105 . S
Sc322 O341 2.105 . S
Sc323 O325 2.025 . S
Sc323 O333 2.105 . S
Sc323 O337 2.105 . S
Sc323 O339 2.105 . S
Sc323 O343 2.105 . S
Sc324 O325 2.025 . S
Sc324 O334 2.105 . S
Sc324 O336 2.105 . S
Sc324 O340 2.105 . S
Sc324 O342 2.105 . S
O325 Sc322 2.025 . S
O325 Sc323 2.025 . S
O325 Sc324 2.025 . S
C326 O332 1.268 . S
C326 O342 1.268 . S
C327 O333 1.268 . S
C327 O341 1.268 . S
C328 O334 1.268 . S
C328 O343 1.268 . S
C329 O335 1.268 . S
C329 O339 1.268 . S
C330 O336 1.268 . S
C330 O338 1.268 . S
C331 O337 1.268 . S
C331 O340 1.268 . S
O332 Sc322 2.105 . S
O332 C326 1.268 . S
O333 Sc323 2.105 . S
O333 C327 1.268 . S
O334 Sc324 2.105 . S
O334 C328 1.268 . S
O335 Sc322 2.105 . S
O335 C329 1.268 . S
O336 Sc324 2.105 . S
O336 C330 1.268 . S
O337 Sc323 2.105 . S
O337 C331 1.268 . S
O338 Sc322 2.105 . S
O338 C330 1.268 . S
O339 Sc323 2.105 . S
O339 C329 1.268 . S
O340 Sc324 2.105 . S
O340 C331 1.268 . S
O341 Sc322 2.105 . S
O341 C327 1.268 . S
O342 Sc324 2.105 . S
O342 C326 1.268 . S
O343 Sc323 2.105 . S
O343 C328 1.268 . S
H344 C350 0.930 . S
H345 C354 0.930 . S
H346 C359 0.929 . S
H347 C357 0.929 . S
H348 C352 0.929 . S
H349 C358 0.929 . S
C350 H344 0.930 . S
C350 C351 1.367 . S
C350 C358 1.378 . S
C351 C350 1.367 . S
C351 C359 1.433 . S
C352 H348 0.929 . S
C352 C354 1.378 . S
C352 C356 1.350 . S
C353 C356 1.463 . S
C353 C358 1.350 . S
C353 N361 1.427 . S
C354 H345 0.930 . S
C354 C352 1.378 . S
C354 C355 1.367 . S
C355 C354 1.367 . S
C355 C357 1.433 . S
C356 C352 1.350 . S
C356 C353 1.463 . S
C356 N360 1.427 . S
C357 H347 0.929 . S
C357 C355 1.433 . S
C357 N360 1.384 . S
C358 H349 0.929 . S
C358 C350 1.378 . S
C358 C353 1.350 . S
C359 H346 0.929 . S
C359 C351 1.433 . S
C359 N361 1.384 . S
N360 C356 1.427 . S
N360 C357 1.384 . S
N361 C353 1.427 . S
N361 C359 1.384 . S
H362 C368 0.930 . S
H363 C372 0.930 . S
H364 C377 0.929 . S
H365 C375 0.929 . S
H366 C370 0.929 . S
H367 C376 0.929 . S
C368 H362 0.930 . S
C368 C369 1.367 . S
C368 C376 1.378 . S
C369 C368 1.367 . S
C369 C377 1.433 . S
C370 H366 0.929 . S
C370 C372 1.378 . S
C370 C374 1.350 . S
C371 C374 1.463 . S
C371 C376 1.350 . S
C371 N379 1.427 . S
C372 H363 0.930 . S
C372 C370 1.378 . S
C372 C373 1.367 . S
C373 C372 1.367 . S
C373 C375 1.433 . S
C374 C370 1.350 . S
C374 C371 1.463 . S
C374 N378 1.427 . S
C375 H365 0.929 . S
C375 C373 1.433 . S
C375 N378 1.384 . S
C376 H367 0.929 . S
C376 C368 1.378 . S
C376 C371 1.350 . S
C377 H364 0.929 . S
C377 C369 1.433 . S
C377 N379 1.384 . S
N378 C374 1.427 . S
N378 C375 1.384 . S
N379 C371 1.427 . S
N379 C377 1.384 . S
H380 C386 0.930 . S
H381 C390 0.930 . S
H382 C395 0.929 . S
H383 C393 0.929 . S
H384 C388 0.929 . S
H385 C394 0.929 . S
C386 H380 0.930 . S
C386 C387 1.367 . S
C386 C394 1.378 . S
C387 C386 1.367 . S
C387 C395 1.433 . S
C388 H384 0.929 . S
C388 C390 1.378 . S
C388 C392 1.350 . S
C389 C392 1.463 . S
C389 C394 1.350 . S
C389 N397 1.427 . S
C390 H381 0.930 . S
C390 C388 1.378 . S
C390 C391 1.367 . S
C391 C390 1.367 . S
C391 C393 1.433 . S
C392 C388 1.350 . S
C392 C389 1.463 . S
C392 N396 1.427 . S
C393 H383 0.929 . S
C393 C391 1.433 . S
C393 N396 1.384 . S
C394 H385 0.929 . S
C394 C386 1.378 . S
C394 C389 1.350 . S
C395 H382 0.929 . S
C395 C387 1.433 . S
C395 N397 1.384 . S
N396 C392 1.427 . S
N396 C393 1.384 . S
N397 C389 1.427 . S
N397 C395 1.384 . S
H398 C404 0.930 . S
H399 C408 0.930 . S
H400 C413 0.929 . S
H401 C411 0.929 . S
H402 C406 0.929 . S
H403 C412 0.929 . S
C404 H398 0.930 . S
C404 C405 1.367 . S
C404 C412 1.378 . S
C405 C404 1.367 . S
C405 C413 1.433 . S
C406 H402 0.929 . S
C406 C408 1.378 . S
C406 C410 1.350 . S
C407 C410 1.463 . S
C407 C412 1.350 . S
C407 N415 1.427 . S
C408 H399 0.930 . S
C408 C406 1.378 . S
C408 C409 1.367 . S
C409 C408 1.367 . S
C409 C411 1.433 . S
C410 C406 1.350 . S
C410 C407 1.463 . S
C410 N414 1.427 . S
C411 H401 0.929 . S
C411 C409 1.433 . S
C411 N414 1.384 . S
C412 H403 0.929 . S
C412 C404 1.378 . S
C412 C407 1.350 . S
C413 H400 0.929 . S
C413 C405 1.433 . S
C413 N415 1.384 . S
N414 C410 1.427 . S
N414 C411 1.384 . S
N415 C407 1.427 . S
N415 C413 1.384 . S
H416 C422 0.930 . S
H417 C426 0.930 . S
H418 C431 0.929 . S
H419 C429 0.929 . S
H420 C424 0.929 . S
H421 C430 0.929 . S
C422 H416 0.930 . S
C422 C423 1.367 . S
C422 C430 1.378 . S
C423 C422 1.367 . S
C423 C431 1.433 . S
C424 H420 0.929 . S
C424 C426 1.378 . S
C424 C428 1.350 . S
C425 C428 1.463 . S
C425 C430 1.350 . S
C425 N433 1.427 . S
C426 H417 0.930 . S
C426 C424 1.378 . S
C426 C427 1.367 . S
C427 C426 1.367 . S
C427 C429 1.433 . S
C428 C424 1.350 . S
C428 C425 1.463 . S
C428 N432 1.427 . S
C429 H419 0.929 . S
C429 C427 1.433 . S
C429 N432 1.384 . S
C430 H421 0.929 . S
C430 C422 1.378 . S
C430 C425 1.350 . S
C431 H418 0.929 . S
C431 C423 1.433 . S
C431 N433 1.384 . S
N432 C428 1.427 . S
N432 C429 1.384 . S
N433 C425 1.427 . S
N433 C431 1.384 . S
H434 C440 0.930 . S
H435 C444 0.930 . S
H436 C449 0.929 . S
H437 C447 0.929 . S
H438 C442 0.929 . S
H439 C448 0.929 . S
C440 H434 0.930 . S
C440 C441 1.367 . S
C440 C448 1.378 . S
C441 C440 1.367 . S
C441 C449 1.433 . S
C442 H438 0.929 . S
C442 C444 1.378 . S
C442 C446 1.350 . S
C443 C446 1.463 . S
C443 C448 1.350 . S
C443 N451 1.427 . S
C444 H435 0.930 . S
C444 C442 1.378 . S
C444 C445 1.367 . S
C445 C444 1.367 . S
C445 C447 1.433 . S
C446 C442 1.350 . S
C446 C443 1.463 . S
C446 N450 1.427 . S
C447 H437 0.929 . S
C447 C445 1.433 . S
C447 N450 1.384 . S
C448 H439 0.929 . S
C448 C440 1.378 . S
C448 C443 1.350 . S
C449 H436 0.929 . S
C449 C441 1.433 . S
C449 N451 1.384 . S
N450 C446 1.427 . S
N450 C447 1.384 . S
N451 C443 1.427 . S
N451 C449 1.384 . S
H452 C458 0.930 . S
H453 C462 0.930 . S
H454 C467 0.929 . S
H455 C465 0.929 . S
H456 C460 0.929 . S
H457 C466 0.929 . S
C458 H452 0.930 . S
C458 C459 1.367 . S
C458 C466 1.378 . S
C459 C458 1.367 . S
C459 C467 1.433 . S
C460 H456 0.929 . S
C460 C462 1.378 . S
C460 C464 1.350 . S
C461 C464 1.463 . S
C461 C466 1.350 . S
C461 N469 1.427 . S
C462 H453 0.930 . S
C462 C460 1.378 . S
C462 C463 1.367 . S
C463 C462 1.367 . S
C463 C465 1.433 . S
C464 C460 1.350 . S
C464 C461 1.463 . S
C464 N468 1.427 . S
C465 H455 0.929 . S
C465 C463 1.433 . S
C465 N468 1.384 . S
C466 H457 0.929 . S
C466 C458 1.378 . S
C466 C461 1.350 . S
C467 H454 0.929 . S
C467 C459 1.433 . S
C467 N469 1.384 . S
N468 C464 1.427 . S
N468 C465 1.384 . S
N469 C461 1.427 . S
N469 C467 1.384 . S
H470 C476 0.930 . S
H471 C480 0.930 . S
H472 C485 0.929 . S
H473 C483 0.929 . S
H474 C478 0.929 . S
H475 C484 0.929 . S
C476 H470 0.930 . S
C476 C477 1.367 . S
C476 C484 1.378 . S
C477 C476 1.367 . S
C477 C485 1.433 . S
C478 H474 0.929 . S
C478 C480 1.378 . S
C478 C482 1.350 . S
C479 C482 1.463 . S
C479 C484 1.350 . S
C479 N487 1.427 . S
C480 H471 0.930 . S
C480 C478 1.378 . S
C480 C481 1.367 . S
C481 C480 1.367 . S
C481 C483 1.433 . S
C482 C478 1.350 . S
C482 C479 1.463 . S
C482 N486 1.427 . S
C483 H473 0.929 . S
C483 C481 1.433 . S
C483 N486 1.384 . S
C484 H475 0.929 . S
C484 C476 1.378 . S
C484 C479 1.350 . S
C485 H472 0.929 . S
C485 C477 1.433 . S
C485 N487 1.384 . S
N486 C482 1.427 . S
N486 C483 1.384 . S
N487 C479 1.427 . S
N487 C485 1.384 . S
H488 C494 0.930 . S
H489 C498 0.930 . S
H490 C503 0.929 . S
H491 C501 0.929 . S
H492 C496 0.929 . S
H493 C502 0.929 . S
C494 H488 0.930 . S
C494 C495 1.367 . S
C494 C502 1.378 . S
C495 C494 1.367 . S
C495 C503 1.433 . S
C496 H492 0.929 . S
C496 C498 1.378 . S
C496 C500 1.350 . S
C497 C500 1.463 . S
C497 C502 1.350 . S
C497 N505 1.427 . S
C498 H489 0.930 . S
C498 C496 1.378 . S
C498 C499 1.367 . S
C499 C498 1.367 . S
C499 C501 1.433 . S
C500 C496 1.350 . S
C500 C497 1.463 . S
C500 N504 1.427 . S
C501 H491 0.929 . S
C501 C499 1.433 . S
C501 N504 1.384 . S
C502 H493 0.929 . S
C502 C494 1.378 . S
C502 C497 1.350 . S
C503 H490 0.929 . S
C503 C495 1.433 . S
C503 N505 1.384 . S
N504 C500 1.427 . S
N504 C501 1.384 . S
N505 C497 1.427 . S
N505 C503 1.384 . S
H506 C512 0.930 . S
H507 C516 0.930 . S
H508 C521 0.929 . S
H509 C519 0.929 . S
H510 C514 0.929 . S
H511 C520 0.929 . S
C512 H506 0.930 . S
C512 C513 1.367 . S
C512 C520 1.378 . S
C513 C512 1.367 . S
C513 C521 1.433 . S
C514 H510 0.929 . S
C514 C516 1.378 . S
C514 C518 1.350 . S
C515 C518 1.463 . S
C515 C520 1.350 . S
C515 N523 1.427 . S
C516 H507 0.930 . S
C516 C514 1.378 . S
C516 C517 1.367 . S
C517 C516 1.367 . S
C517 C519 1.433 . S
C518 C514 1.350 . S
C518 C515 1.463 . S
C518 N522 1.427 . S
C519 H509 0.929 . S
C519 C517 1.433 . S
C519 N522 1.384 . S
C520 H511 0.929 . S
C520 C512 1.378 . S
C520 C515 1.350 . S
C521 H508 0.929 . S
C521 C513 1.433 . S
C521 N523 1.384 . S
N522 C518 1.427 . S
N522 C519 1.384 . S
N523 C515 1.427 . S
N523 C521 1.384 . S
H524 C530 0.930 . S
H525 C534 0.930 . S
H526 C539 0.929 . S
H527 C537 0.929 . S
H528 C532 0.929 . S
H529 C538 0.929 . S
C530 H524 0.930 . S
C530 C531 1.367 . S
C530 C538 1.378 . S
C531 C530 1.367 . S
C531 C539 1.433 . S
C532 H528 0.929 . S
C532 C534 1.378 . S
C532 C536 1.350 . S
C533 C536 1.463 . S
C533 C538 1.350 . S
C533 N541 1.427 . S
C534 H525 0.930 . S
C534 C532 1.378 . S
C534 C535 1.367 . S
C535 C534 1.367 . S
C535 C537 1.433 . S
C536 C532 1.350 . S
C536 C533 1.463 . S
C536 N540 1.427 . S
C537 H527 0.929 . S
C537 C535 1.433 . S
C537 N540 1.384 . S
C538 H529 0.929 . S
C538 C530 1.378 . S
C538 C533 1.350 . S
C539 H526 0.929 . S
C539 C531 1.433 . S
C539 N541 1.384 . S
N540 C536 1.427 . S
N540 C537 1.384 . S
N541 C533 1.427 . S
N541 C539 1.384 . S
H542 C548 0.930 . S
H543 C552 0.930 . S
H544 C557 0.929 . S
H545 C555 0.929 . S
H546 C550 0.929 . S
H547 C556 0.929 . S
C548 H542 0.930 . S
C548 C549 1.367 . S
C548 C556 1.378 . S
C549 C548 1.367 . S
C549 C557 1.433 . S
C550 H546 0.929 . S
C550 C552 1.378 . S
C550 C554 1.350 . S
C551 C554 1.463 . S
C551 C556 1.350 . S
C551 N559 1.427 . S
C552 H543 0.930 . S
C552 C550 1.378 . S
C552 C553 1.367 . S
C553 C552 1.367 . S
C553 C555 1.433 . S
C554 C550 1.350 . S
C554 C551 1.463 . S
C554 N558 1.427 . S
C555 H545 0.929 . S
C555 C553 1.433 . S
C555 N558 1.384 . S
C556 H547 0.929 . S
C556 C548 1.378 . S
C556 C551 1.350 . S
C557 H544 0.929 . S
C557 C549 1.433 . S
C557 N559 1.384 . S
N558 C554 1.427 . S
N558 C555 1.384 . S
N559 C551 1.427 . S
N559 C557 1.384 . S
H560 C566 0.930 . S
H561 C570 0.930 . S
H562 C575 0.929 . S
H563 C573 0.929 . S
H564 C568 0.929 . S
H565 C574 0.929 . S
C566 H560 0.930 . S
C566 C567 1.363 1_565 S
C566 C574 1.378 1_565 S
C567 C566 1.363 1_545 S
C567 C575 1.451 . S
C568 H564 0.929 . S
C568 C570 1.378 . S
C568 C572 1.350 . S
C569 C572 1.463 . S
C569 C574 1.350 . S
C569 N577 1.427 . S
C570 H561 0.930 . S
C570 C568 1.378 . S
C570 C571 1.367 . S
C571 C570 1.367 . S
C571 C573 1.433 . S
C572 C568 1.350 . S
C572 C569 1.463 . S
C572 N576 1.427 . S
C573 H563 0.929 . S
C573 C571 1.433 . S
C573 N576 1.384 . S
C574 H565 0.929 . S
C574 C566 1.378 1_545 S
C574 C569 1.350 . S
C575 H562 0.929 . S
C575 C567 1.451 . S
C575 N577 1.384 . S
N576 C572 1.427 . S
N576 C573 1.384 . S
N577 C569 1.427 . S
N577 C575 1.384 . S
H578 C584 0.930 1_545 S
H579 C588 0.930 . S
H580 C593 0.929 . S
H581 C591 0.929 . S
H582 C586 0.929 . S
H583 C592 0.929 . S
C584 H578 0.930 1_565 S
C584 C585 1.367 . S
C584 C592 1.378 . S
C585 C584 1.367 . S
C585 C593 1.433 . S
C586 H582 0.929 . S
C586 C588 1.378 . S
C586 C590 1.350 . S
C587 C590 1.463 . S
C587 C592 1.350 . S
C587 N595 1.427 . S
C588 H579 0.930 . S
C588 C586 1.378 . S
C588 C589 1.367 . S
C589 C588 1.367 . S
C589 C591 1.433 . S
C590 C586 1.350 . S
C590 C587 1.463 . S
C590 N594 1.427 . S
C591 H581 0.929 . S
C591 C589 1.433 . S
C591 N594 1.384 . S
C592 H583 0.929 . S
C592 C584 1.378 . S
C592 C587 1.350 . S
C593 H580 0.929 . S
C593 C585 1.433 . S
C593 N595 1.384 . S
N594 C590 1.427 . S
N594 C591 1.384 . S
N595 C587 1.427 . S
N595 C593 1.384 . S
H596 C602 0.930 . S
H597 C606 0.930 . S
H598 C611 0.929 . S
H599 C609 0.929 . S
H600 C604 0.929 . S
H601 C610 0.929 . S
C602 H596 0.930 . S
C602 C603 1.367 . S
C602 C610 1.378 . S
C603 C602 1.367 . S
C603 C611 1.433 1_545 S
C604 H600 0.929 . S
C604 C606 1.378 . S
C604 C608 1.350 . S
C605 C608 1.463 . S
C605 C610 1.350 . S
C605 N613 1.427 . S
C606 H597 0.930 . S
C606 C604 1.378 . S
C606 C607 1.367 . S
C607 C606 1.367 . S
C607 C609 1.433 . S
C608 C604 1.350 . S
C608 C605 1.463 . S
C608 N612 1.427 . S
C609 H599 0.929 . S
C609 C607 1.433 . S
C609 N612 1.384 . S
C610 H601 0.929 . S
C610 C602 1.378 . S
C610 C605 1.350 . S
C611 H598 0.929 . S
C611 C603 1.433 1_565 S
C611 N613 1.384 1_565 S
N612 C608 1.427 . S
N612 C609 1.384 . S
N613 C605 1.427 . S
N613 C611 1.384 1_545 S
H614 C620 0.930 . S
H615 C624 0.930 . S
H616 C629 0.929 . S
H617 C627 0.929 . S
H618 C622 0.929 . S
H619 C628 0.929 . S
C620 H614 0.930 . S
C620 C621 1.367 . S
C620 C628 1.378 . S
C621 C620 1.367 . S
C621 C629 1.433 1_565 S
C622 H618 0.929 . S
C622 C624 1.378 . S
C622 C626 1.350 . S
C623 C626 1.463 . S
C623 C628 1.350 . S
C623 N631 1.427 . S
C624 H615 0.930 . S
C624 C622 1.378 . S
C624 C625 1.367 . S
C625 C624 1.367 . S
C625 C627 1.433 . S
C626 C622 1.350 . S
C626 C623 1.463 . S
C626 N630 1.427 . S
C627 H617 0.929 . S
C627 C625 1.433 . S
C627 N630 1.384 . S
C628 H619 0.929 . S
C628 C620 1.378 . S
C628 C623 1.350 . S
C629 H616 0.929 . S
C629 C621 1.433 1_545 S
C629 N631 1.384 1_545 S
N630 C626 1.427 . S
N630 C627 1.384 . S
N631 C623 1.427 . S
N631 C629 1.384 1_565 S
H632 C638 0.930 . S
H633 C642 0.930 . S
H634 C647 0.929 . S
H635 C645 0.929 . S
H636 C640 0.929 . S
H637 C646 0.929 . S
C638 H632 0.930 . S
C638 C639 1.367 . S
C638 C646 1.378 . S
C639 C638 1.367 . S
C639 C647 1.433 . S
C640 H636 0.929 . S
C640 C642 1.378 . S
C640 C644 1.350 . S
C641 C644 1.463 . S
C641 C646 1.350 . S
C641 N649 1.427 . S
C642 H633 0.930 . S
C642 C640 1.378 . S
C642 C643 1.367 . S
C643 C642 1.367 . S
C643 C645 1.433 . S
C644 C640 1.350 . S
C644 C641 1.463 . S
C644 N648 1.427 . S
C645 H635 0.929 . S
C645 C643 1.433 . S
C645 N648 1.384 . S
C646 H637 0.929 . S
C646 C638 1.378 . S
C646 C641 1.350 . S
C647 H634 0.929 . S
C647 C639 1.433 . S
C647 N649 1.384 . S
N648 C644 1.427 . S
N648 C645 1.384 . S
N649 C641 1.427 . S
N649 C647 1.384 . S
H650 C656 0.930 . S
H651 C660 0.930 . S
H652 C665 0.929 . S
H653 C663 0.929 . S
H654 C658 0.929 . S
H655 C664 0.929 . S
C656 H650 0.930 . S
C656 C657 1.367 . S
C656 C664 1.378 . S
C657 C656 1.367 . S
C657 C665 1.433 . S
C658 H654 0.929 . S
C658 C660 1.378 . S
C658 C662 1.350 . S
C659 C662 1.463 . S
C659 C664 1.350 . S
C659 N667 1.427 . S
C660 H651 0.930 . S
C660 C658 1.378 . S
C660 C661 1.367 . S
C661 C660 1.367 . S
C661 C663 1.433 . S
C662 C658 1.350 . S
C662 C659 1.463 . S
C662 N666 1.427 . S
C663 H653 0.929 . S
C663 C661 1.433 . S
C663 N666 1.384 . S
C664 H655 0.929 . S
C664 C656 1.378 . S
C664 C659 1.350 . S
C665 H652 0.929 . S
C665 C657 1.433 . S
C665 N667 1.384 . S
N666 C662 1.427 . S
N666 C663 1.384 . S
N667 C659 1.427 . S
N667 C665 1.384 . S
H668 C674 0.930 . S
H669 C678 0.930 . S
H670 C683 0.929 . S
H671 C681 0.929 . S
H672 C676 0.929 . S
H673 C682 0.929 . S
C674 H668 0.930 . S
C674 C675 1.367 . S
C674 C682 1.378 . S
C675 C674 1.367 . S
C675 C683 1.433 . S
C676 H672 0.929 . S
C676 C678 1.378 . S
C676 C680 1.350 . S
C677 C680 1.463 . S
C677 C682 1.350 . S
C677 N685 1.427 . S
C678 H669 0.930 . S
C678 C676 1.378 . S
C678 C679 1.367 . S
C679 C678 1.367 . S
C679 C681 1.433 . S
C680 C676 1.350 . S
C680 C677 1.463 . S
C680 N684 1.427 . S
C681 H671 0.929 . S
C681 C679 1.433 . S
C681 N684 1.384 . S
C682 H673 0.929 . S
C682 C674 1.378 . S
C682 C677 1.350 . S
C683 H670 0.929 . S
C683 C675 1.433 . S
C683 N685 1.384 . S
N684 C680 1.427 . S
N684 C681 1.384 . S
N685 C677 1.427 . S
N685 C683 1.384 . S
H686 C692 0.930 . S
H687 C696 0.930 . S
H688 C701 0.929 . S
H689 C699 0.929 . S
H690 C694 0.929 . S
H691 C700 0.929 . S
C692 H686 0.930 . S
C692 C693 1.367 . S
C692 C700 1.378 . S
C693 C692 1.367 . S
C693 C701 1.433 . S
C694 H690 0.929 . S
C694 C696 1.378 . S
C694 C698 1.350 . S
C695 C698 1.463 . S
C695 C700 1.350 . S
C695 N703 1.427 . S
C696 H687 0.930 . S
C696 C694 1.378 . S
C696 C697 1.367 . S
C697 C696 1.367 . S
C697 C699 1.433 . S
C698 C694 1.350 . S
C698 C695 1.463 . S
C698 N702 1.427 . S
C699 H689 0.929 . S
C699 C697 1.433 . S
C699 N702 1.384 . S
C700 H691 0.929 . S
C700 C692 1.378 . S
C700 C695 1.350 . S
C701 H688 0.929 . S
C701 C693 1.433 . S
C701 N703 1.384 . S
N702 C698 1.427 . S
N702 C699 1.384 . S
N703 C695 1.427 . S
N703 C701 1.384 . S
H704 C710 0.930 . S
H705 C714 0.930 . S
H706 C719 0.929 . S
H707 C717 0.929 . S
H708 C712 0.929 . S
H709 C718 0.929 . S
C710 H704 0.930 . S
C710 C711 1.367 . S
C710 C718 1.378 . S
C711 C710 1.367 . S
C711 C719 1.433 . S
C712 H708 0.929 . S
C712 C714 1.378 . S
C712 C716 1.350 . S
C713 C716 1.463 . S
C713 C718 1.350 . S
C713 N721 1.427 . S
C714 H705 0.930 . S
C714 C712 1.378 . S
C714 C715 1.367 . S
C715 C714 1.367 . S
C715 C717 1.433 . S
C716 C712 1.350 . S
C716 C713 1.463 . S
C716 N720 1.427 . S
C717 H707 0.929 . S
C717 C715 1.433 . S
C717 N720 1.384 . S
C718 H709 0.929 . S
C718 C710 1.378 . S
C718 C713 1.350 . S
C719 H706 0.929 . S
C719 C711 1.433 . S
C719 N721 1.384 . S
N720 C716 1.427 . S
N720 C717 1.384 . S
N721 C713 1.427 . S
N721 C719 1.384 . S
H722 C728 0.930 . S
H723 C732 0.930 . S
H724 C737 0.929 . S
H725 C735 0.929 . S
H726 C730 0.929 . S
H727 C736 0.929 . S
C728 H722 0.930 . S
C728 C729 1.367 . S
C728 C736 1.378 . S
C729 C728 1.367 . S
C729 C737 1.433 . S
C730 H726 0.929 . S
C730 C732 1.378 . S
C730 C734 1.350 . S
C731 C734 1.463 . S
C731 C736 1.350 . S
C731 N739 1.427 . S
C732 H723 0.930 . S
C732 C730 1.378 . S
C732 C733 1.367 . S
C733 C732 1.367 . S
C733 C735 1.433 . S
C734 C730 1.350 . S
C734 C731 1.463 . S
C734 N738 1.427 . S
C735 H725 0.929 . S
C735 C733 1.433 . S
C735 N738 1.384 . S
C736 H727 0.929 . S
C736 C728 1.378 . S
C736 C731 1.350 . S
C737 H724 0.929 . S
C737 C729 1.433 . S
C737 N739 1.384 . S
N738 C734 1.427 . S
N738 C735 1.384 . S
N739 C731 1.427 . S
N739 C737 1.384 . S
H740 C746 0.930 . S
H741 C750 0.930 . S
H742 C755 0.929 . S
H743 C753 0.929 . S
H744 C748 0.929 . S
H745 C754 0.929 . S
C746 H740 0.930 . S
C746 C747 1.367 . S
C746 C754 1.378 . S
C747 C746 1.367 . S
C747 C755 1.433 . S
C748 H744 0.929 . S
C748 C750 1.378 . S
C748 C752 1.350 . S
C749 C752 1.463 . S
C749 C754 1.350 . S
C749 N757 1.427 . S
C750 H741 0.930 . S
C750 C748 1.378 . S
C750 C751 1.367 . S
C751 C750 1.367 . S
C751 C753 1.433 . S
C752 C748 1.350 . S
C752 C749 1.463 . S
C752 N756 1.427 . S
C753 H743 0.929 . S
C753 C751 1.433 . S
C753 N756 1.384 . S
C754 H745 0.929 . S
C754 C746 1.378 . S
C754 C749 1.350 . S
C755 H742 0.929 . S
C755 C747 1.433 . S
C755 N757 1.384 . S
N756 C752 1.427 . S
N756 C753 1.384 . S
N757 C749 1.427 . S
N757 C755 1.384 . S
H758 C764 0.930 . S
H759 C768 0.930 . S
H760 C773 0.929 . S
H761 C771 0.929 . S
H762 C766 0.929 . S
H763 C772 0.929 . S
C764 H758 0.930 . S
C764 C765 1.367 . S
C764 C772 1.378 . S
C765 C764 1.367 . S
C765 C773 1.433 . S
C766 H762 0.929 . S
C766 C768 1.378 . S
C766 C770 1.350 . S
C767 C770 1.463 . S
C767 C772 1.350 . S
C767 N775 1.427 . S
C768 H759 0.930 . S
C768 C766 1.378 . S
C768 C769 1.367 . S
C769 C768 1.367 . S
C769 C771 1.433 . S
C770 C766 1.350 . S
C770 C767 1.463 . S
C770 N774 1.427 . S
C771 H761 0.929 . S
C771 C769 1.433 . S
C771 N774 1.384 . S
C772 H763 0.929 . S
C772 C764 1.378 . S
C772 C767 1.350 . S
C773 H760 0.929 . S
C773 C765 1.433 . S
C773 N775 1.384 . S
N774 C770 1.427 . S
N774 C771 1.384 . S
N775 C767 1.427 . S
N775 C773 1.384 . S
C351 C23 1.505 . S
C355 C282 1.536 . S
C373 C260 1.485 . S
C369 C55 1.519 . S
C391 C286 1.527 . S
C387 C87 1.573 . S
C409 C264 1.489 . S
C405 C119 1.447 . S
C427 C326 1.533 . S
C423 C151 1.500 . S
C445 C304 1.490 . S
C441 C183 1.520 . S
C459 C215 1.570 . S
C463 C330 1.533 . S
C481 C308 1.487 . S
C477 C247 1.447 . S
C495 C29 1.491 . S
C499 C331 1.560 . S
C517 C309 1.481 . S
C513 C49 1.495 . S
C531 C93 1.565 . S
C535 C328 1.554 . S
C549 C113 1.441 . S
C553 C306 1.481 . S
C571 C287 1.557 . S
C567 C157 1.473 1_545 S
C585 C177 1.498 1_565 S
C589 C265 1.481 . S
C607 C284 1.553 . S
C603 C221 1.561 1_545 S
C625 C262 1.483 . S
C621 C241 1.446 1_565 S
C643 C305 1.499 . S
C639 C17 1.437 . S
C661 C327 1.494 . S
C657 C61 1.511 . S
C675 C81 1.516 . S
C679 C307 1.493 . S
C697 C329 1.496 . S
C693 C125 1.424 . S
C715 C261 1.500 . S
C711 C145 1.446 . S
C729 C189 1.514 . S
C733 C283 1.493 . S
C747 C209 1.516 . S
C751 C263 1.490 . S
C765 C253 1.431 . S
C769 C285 1.496 . S
