# Generated by pormake.
# Topology zzz, (3,6)-cn, num edge types: 1
# Building blocks:
#     Node 0, Type 0, BuildingBlock: ESEHIV_clean_linker_0, # of connection points: 3
#     Node 1, Type 0, BuildingBlock: ESEHIV_clean_linker_0, # of connection points: 3
#     Node 2, Type 0, BuildingBlock: ESEHIV_clean_linker_0, # of connection points: 3
#     Node 3, Type 0, BuildingBlock: ESEHIV_clean_linker_0, # of connection points: 3
#     Node 4, Type 0, BuildingBlock: ESEHIV_clean_linker_0, # of connection points: 3
#     Node 5, Type 0, BuildingBlock: ESEHIV_clean_linker_0, # of connection points: 3
#     Node 6, Type 0, BuildingBlock: ESEHIV_clean_linker_0, # of connection points: 3
#     Node 7, Type 0, BuildingBlock: ESEHIV_clean_linker_0, # of connection points: 3
#     Node 8, Type 1, BuildingBlock: KUMBUR_clean_sbu_0, # of connection points: 6
#     Node 9, Type 1, BuildingBlock: KUMBUR_clean_sbu_0, # of connection points: 6
#     Node 10, Type 1, BuildingBlock: KUMBUR_clean_sbu_0, # of connection points: 6
#     Node 11, Type 1, BuildingBlock: KUMBUR_clean_sbu_0, # of connection points: 6
#     Edge 12, Type (0, 1), BuildingBlock: KIFKEQ_clean_linker_1, # of connection points: 2
#     Edge 13, Type (0, 1), BuildingBlock: KIFKEQ_clean_linker_1, # of connection points: 2
#     Edge 14, Type (0, 1), BuildingBlock: KIFKEQ_clean_linker_1, # of connection points: 2
#     Edge 15, Type (0, 1), BuildingBlock: KIFKEQ_clean_linker_1, # of connection points: 2
#     Edge 16, Type (0, 1), BuildingBlock: KIFKEQ_clean_linker_1, # of connection points: 2
#     Edge 17, Type (0, 1), BuildingBlock: KIFKEQ_clean_linker_1, # of connection points: 2
#     Edge 18, Type (0, 1), BuildingBlock: KIFKEQ_clean_linker_1, # of connection points: 2
#     Edge 19, Type (0, 1), BuildingBlock: KIFKEQ_clean_linker_1, # of connection points: 2
#     Edge 20, Type (0, 1), BuildingBlock: KIFKEQ_clean_linker_1, # of connection points: 2
#     Edge 21, Type (0, 1), BuildingBlock: KIFKEQ_clean_linker_1, # of connection points: 2
#     Edge 22, Type (0, 1), BuildingBlock: KIFKEQ_clean_linker_1, # of connection points: 2
#     Edge 23, Type (0, 1), BuildingBlock: KIFKEQ_clean_linker_1, # of connection points: 2
#     Edge 24, Type (0, 1), BuildingBlock: KIFKEQ_clean_linker_1, # of connection points: 2
#     Edge 25, Type (0, 1), BuildingBlock: KIFKEQ_clean_linker_1, # of connection points: 2
#     Edge 26, Type (0, 1), BuildingBlock: KIFKEQ_clean_linker_1, # of connection points: 2
#     Edge 27, Type (0, 1), BuildingBlock: KIFKEQ_clean_linker_1, # of connection points: 2
#     Edge 28, Type (0, 1), BuildingBlock: KIFKEQ_clean_linker_1, # of connection points: 2
#     Edge 29, Type (0, 1), BuildingBlock: KIFKEQ_clean_linker_1, # of connection points: 2
#     Edge 30, Type (0, 1), BuildingBlock: KIFKEQ_clean_linker_1, # of connection points: 2
#     Edge 31, Type (0, 1), BuildingBlock: KIFKEQ_clean_linker_1, # of connection points: 2
#     Edge 32, Type (0, 1), BuildingBlock: KIFKEQ_clean_linker_1, # of connection points: 2
#     Edge 33, Type (0, 1), BuildingBlock: KIFKEQ_clean_linker_1, # of connection points: 2
#     Edge 34, Type (0, 1), BuildingBlock: KIFKEQ_clean_linker_1, # of connection points: 2
#     Edge 35, Type (0, 1), BuildingBlock: KIFKEQ_clean_linker_1, # of connection points: 2
# Relax obj value: 0.335
# Max RMSD: 0.221
# Mean RMSD: 0.214
data_MOF--net-zzz--node1-KUMBUR_clean_sbu_0--node2-ESEHIV_clean_linker_0--edge1-KIFKEQ_clean_linker_1
_symmetry_space_group_name_H-M    P1
_symmetry_Int_Tables_number       1
_symmetry_cell_setting            triclinic
loop_
_symmetry_equiv_pos_as_xyz
'x, y, z'
_cell_length_a     44.521298
_cell_length_b     44.468868
_cell_length_c     15.606507
_cell_angle_alpha  90.992208
_cell_angle_beta   90.072062
_cell_angle_gamma 90.055776
loop_
_atom_site_label
_atom_site_type_symbol
_atom_site_fract_x
_atom_site_fract_y
_atom_site_fract_z
_atom_type_partial_charge
H0 H 0.80941 0.59117 0.24324 0.0
H1 H 0.73765 0.59575 0.06094 0.0
H2 H 0.73773 0.52628 0.25158 0.0
C3 C 0.78768 0.58334 0.22051 0.0
C4 C 0.77493 0.5581 0.25868 0.0
C5 C 0.7748 0.59654 0.14838 0.0
C6 C 0.74749 0.58536 0.11672 0.0
C7 C 0.73356 0.56007 0.15251 0.0
C8 C 0.74753 0.54625 0.2244 0.0
H9 H 0.94452 0.82212 0.22487 0.0
H10 H 0.93444 0.74293 0.06752 0.0
H11 H 1.00858 0.75023 0.24616 0.0
C12 C 0.95152 0.79949 0.2074 0.0
C13 C 0.97726 0.788 0.24654 0.0
C14 C 0.93633 0.78375 0.14195 0.0
C15 C 0.94634 0.75491 0.11812 0.0
C16 C 0.97231 0.74198 0.15394 0.0
C17 C 0.98828 0.75918 0.21818 0.0
H18 H 0.71104 0.93463 0.22441 0.0
H19 H 0.79163 0.92708 0.07364 0.0
H20 H 0.78067 1.00083 0.25363 0.0
C21 C 0.73363 0.94193 0.20946 0.0
C22 C 0.74453 0.96777 0.2517 0.0
C23 C 0.74969 0.92769 0.14268 0.0
C24 C 0.77866 0.9382 0.12361 0.0
C25 C 0.79009 0.96471 0.16142 0.0
C26 C 0.7727 0.97985 0.22563 0.0
H27 H 0.59237 0.72325 0.2557 0.0
H28 H 0.53208 0.79742 0.29551 0.0
H29 H 0.6031 0.80376 0.10973 0.0
C30 C 0.58646 0.74635 0.24266 0.0
C31 C 0.60049 0.76154 0.17522 0.0
C32 C 0.56257 0.75925 0.28887 0.0
C33 C 0.55191 0.78807 0.26511 0.0
C34 C 0.56687 0.80428 0.19996 0.0
C35 C 0.59198 0.79135 0.15977 0.0
H36 H 0.21882 0.45398 0.1386 0.0
H37 H 0.29335 0.44692 0.3107 0.0
H38 H 0.29467 0.51342 0.11166 0.0
C39 C 0.24125 0.46094 0.1578 0.0
C40 C 0.25491 0.48476 0.11509 0.0
C41 C 0.25477 0.44751 0.22851 0.0
C42 C 0.28321 0.45723 0.25521 0.0
C43 C 0.29836 0.48065 0.2137 0.0
C44 C 0.28373 0.49501 0.14373 0.0
H45 H 0.09196 0.22119 0.11981 0.0
H46 H 0.09953 0.29972 0.28201 0.0
H47 H 0.02205 0.28777 0.11784 0.0
C48 C 0.08382 0.24309 0.14049 0.0
C49 C 0.05661 0.25309 0.10613 0.0
C50 C 0.0989 0.25899 0.20603 0.0
C51 C 0.08734 0.28686 0.23368 0.0
C52 C 0.05932 0.29753 0.20542 0.0
C53 C 0.04382 0.28041 0.14015 0.0
H54 H 0.32038 0.09724 0.10337 0.0
H55 H 0.24014 0.10762 0.25455 0.0
H56 H 0.25077 0.03065 0.08581 0.0
C57 C 0.29785 0.09027 0.12004 0.0
C58 C 0.28681 0.06375 0.08171 0.0
C59 C 0.28202 0.10563 0.18533 0.0
C60 C 0.25304 0.09558 0.20616 0.0
C61 C 0.24159 0.06838 0.17283 0.0
C62 C 0.2588 0.0521 0.1105 0.0
H63 H 0.4427 0.31069 0.10771 0.0
H64 H 0.48667 0.22796 0.03555 0.0
H65 H 0.43761 0.23542 0.27416 0.0
C66 C 0.44712 0.28714 0.11972 0.0
C67 C 0.43781 0.27469 0.19708 0.0
C68 C 0.46452 0.27095 0.06045 0.0
C69 C 0.47266 0.24075 0.07955 0.0
C70 C 0.46192 0.2273 0.15629 0.0
C71 C 0.4446 0.24476 0.21358 0.0
Tb72 Tb 0.04427 1.00886 0.75299 0.0
C73 C 0.93016 1.00239 0.52945 0.0
C74 C 0.94273 0.96925 0.4107 0.0
C75 C 0.89083 0.97367 0.45694 0.0
C76 C 0.95138 0.98974 0.47638 0.0
C77 C 0.89949 0.99507 0.51945 0.0
C78 C 0.91245 0.96075 0.40258 0.0
C79 C 0.88807 0.03255 0.62815 0.0
N80 N 0.93946 0.02318 0.58801 0.0
C81 C 0.91872 0.03905 0.6354 0.0
C82 C 0.87842 1.01017 0.57071 0.0
Tb83 Tb 0.99033 0.03188 0.59851 0.0
N84 N 0.98027 0.99891 0.48592 0.0
C85 C 1.00125 0.98998 0.42654 0.0
C86 C 0.96457 0.95872 0.3535 0.0
C87 C 0.99387 0.9695 0.36074 0.0
H88 H 0.92578 0.05619 0.68087 0.0
H89 H 1.01089 0.96194 0.31586 0.0
H90 H 0.90542 0.94488 0.35303 0.0
H91 H 0.87193 0.04473 0.66721 0.0
H92 H 0.02414 0.99749 0.43027 0.0
H93 H 0.0224 0.07787 0.03661 0.0
H94 H 0.95891 0.94291 0.30236 0.0
H95 H 0.10918 0.98503 0.6726 0.0
H96 H 1.00978 0.04242 0.92129 0.0
H97 H 0.16296 0.99676 0.68797 0.0
H98 H 0.86742 0.96755 0.44864 0.0
H99 H 0.07413 0.09749 0.0513 0.0
H100 H 0.12777 0.09615 1.0017 0.0
H101 H 0.85465 1.00521 0.56504 0.0
H102 H 0.16622 0.07394 0.90674 0.0
N103 N 0.05374 0.04178 0.86611 0.0
C104 C 0.03256 0.05026 0.92543 0.0
C105 C 0.06874 0.08178 0.99969 0.0
C106 C 0.09081 0.07163 0.94263 0.0
C107 C 0.03958 0.07066 0.99177 0.0
C108 C 0.0825 0.05125 0.87632 0.0
H109 H 0.17963 0.03643 0.79052 0.0
N110 N 0.09501 0.01808 0.76464 0.0
C111 C 0.14661 1.0089 0.72639 0.0
C112 C 0.10397 0.0389 0.82354 0.0
C113 C 0.11601 1.00225 0.71816 0.0
C114 C 0.15592 0.03138 0.78401 0.0
C115 C 0.13456 0.04636 0.83458 0.0
O116 O 0.0649 0.96753 0.77932 0.0
O117 O 0.0137 0.99404 0.65135 0.0
O118 O 0.96536 1.00526 0.69291 0.0
O119 O 0.99807 1.00999 0.80854 0.0
O120 O 0.05517 0.97507 0.65331 0.0
O121 O 0.03032 0.98524 0.86174 0.0
O122 O 0.97001 0.07327 0.57119 0.0
O123 O 0.02086 0.04669 0.70034 0.0
O124 O 0.06936 0.03477 0.65679 0.0
O125 O 0.03623 0.03013 0.5421 0.0
O126 O 0.97942 0.06559 0.69855 0.0
O127 O 1.00477 0.05528 0.48982 0.0
C128 C 0.02984 0.97414 0.61423 0.0
C129 C 0.02631 0.93419 0.81719 0.0
C130 C 0.9772 0.90937 0.81613 0.0
C131 C 0.99628 0.9327 0.84472 0.0
C132 C 0.98876 0.88736 0.75912 0.0
C133 C 0.0374 0.91151 0.76187 0.0
C134 C 0.01863 0.88844 0.73263 0.0
C135 C 0.9709 1.00414 0.77642 0.0
C136 C 0.04475 0.96119 0.83645 0.0
C137 C 0.14288 0.06772 0.89763 0.0
C138 C 0.121 0.08036 0.95163 0.0
C139 C 1.00471 0.0665 0.73779 0.0
C140 C 1.00886 0.10643 0.5334 0.0
C141 C 0.03858 0.10834 0.50322 0.0
C142 C 0.05767 0.13182 0.53087 0.0
C143 C 0.04652 0.15344 0.58969 0.0
C144 C 0.99817 0.12878 0.59045 0.0
C145 C 0.01699 0.15192 0.61882 0.0
C146 C 0.06354 0.03573 0.57334 0.0
C147 C 0.99036 0.07943 0.51441 0.0
H148 H 0.98764 0.94992 0.88775 0.0
H149 H 0.97514 0.86855 0.73731 0.0
H150 H 0.06035 0.91208 0.73903 0.0
H151 H 0.02727 0.87129 0.68922 0.0
H152 H 0.04696 0.09138 0.45887 0.0
H153 H 0.06018 0.17231 0.61089 0.0
H154 H 0.97547 0.12793 0.61525 0.0
H155 H 1.00865 0.1688 0.66356 0.0
Tb156 Tb 0.52396 0.04385 0.73845 0.0
C157 C 0.53841 0.92162 0.54597 0.0
C158 C 0.57121 0.93082 0.42621 0.0
C159 C 0.56914 0.88102 0.48734 0.0
C160 C 0.55016 0.9411 0.48769 0.0
C161 C 0.54713 0.89111 0.54544 0.0
C162 C 0.5812 0.90088 0.42776 0.0
C163 C 0.50957 0.88229 0.65341 0.0
N164 N 0.51693 0.93221 0.59977 0.0
C165 C 0.5017 0.91272 0.65129 0.0
C166 C 0.5327 0.8715 0.60114 0.0
Tb167 Tb 0.50561 0.98266 0.59439 0.0
N168 N 0.53944 0.96963 0.4877 0.0
C169 C 0.5473 0.98829 0.42244 0.0
C170 C 0.58073 0.9506 0.36319 0.0
C171 C 0.56835 0.97932 0.36059 0.0
H172 H 0.484 0.92072 0.69293 0.0
H173 H 0.57497 0.99463 0.31084 0.0
H174 H 0.59753 0.89266 0.38158 0.0
H175 H 0.49787 0.86723 0.69574 0.0
H176 H 0.53813 1.01046 0.41766 0.0
H177 H 0.45607 0.03032 0.02409 0.0
H178 H 0.59689 0.94364 0.31491 0.0
H179 H 0.54167 0.10559 0.6329 0.0
H180 H 0.49238 0.01496 0.91512 0.0
H181 H 0.52468 0.15819 0.62573 0.0
H182 H 0.57633 0.85774 0.48631 0.0
H183 H 0.43302 0.08081 0.02049 0.0
H184 H 0.43014 0.13139 0.95184 0.0
H185 H 0.53871 0.84791 0.6027 0.0
H186 H 0.44873 0.16625 0.84303 0.0
N187 N 0.49036 0.05604 0.84619 0.0
C188 C 0.48308 0.03715 0.91146 0.0
C189 C 0.44919 0.07421 0.97186 0.0
C190 C 0.45776 0.09406 0.90792 0.0
C191 C 0.46221 0.04576 0.97418 0.0
C192 C 0.47882 0.08426 0.84591 0.0
H193 H 0.48417 0.17652 0.72155 0.0
N194 N 0.51052 0.09368 0.73036 0.0
C195 C 0.51443 0.14311 0.67089 0.0
C196 C 0.48921 0.10377 0.78549 0.0
C197 C 0.52408 0.11326 0.6755 0.0
C198 C 0.4915 0.15334 0.72484 0.0
C199 C 0.47893 0.13376 0.78413 0.0
O200 O 0.56295 0.06926 0.76282 0.0
O201 O 0.541 1.01044 0.64711 0.0
O202 O 0.53231 0.9635 0.69924 0.0
O203 O 0.52439 1.00005 0.80553 0.0
O204 O 0.55869 0.05258 0.64181 0.0
O205 O 0.54812 0.03589 0.85182 0.0
O206 O 0.46586 0.9588 0.56726 0.0
O207 O 0.48894 0.01573 0.68687 0.0
O208 O 0.49597 0.06171 0.6346 0.0
O209 O 0.50724 0.02657 0.52775 0.0
O210 O 0.47085 0.97396 0.69148 0.0
O211 O 0.48163 0.99281 0.48209 0.0
C212 C 0.56084 0.02594 0.60967 0.0
C213 C 0.59946 0.03549 0.81116 0.0
C214 C 0.62718 0.98799 0.80832 0.0
C215 C 0.60239 1.00526 0.83514 0.0
C216 C 0.64938 1.00156 0.7577 0.0
C217 C 0.62231 0.04865 0.76226 0.0
C218 C 0.64698 0.03169 0.7354 0.0
C219 C 0.532 0.97223 0.7811 0.0
C220 C 0.57082 0.05173 0.82487 0.0
C221 C 0.45707 0.14337 0.84333 0.0
C222 C 0.44651 0.12354 0.90524 0.0
C223 C 0.46914 1.00043 0.72483 0.0
C224 C 0.43027 0.99415 0.52219 0.0
C225 C 0.42731 0.02391 0.49426 0.0
C226 C 0.40293 0.0418 0.52084 0.0
C227 C 0.38124 0.02945 0.57554 0.0
C228 C 0.40784 0.9821 0.575 0.0
C229 C 0.38365 0.99975 0.60186 0.0
C230 C 0.49851 0.05397 0.55255 0.0
C231 C 0.45848 0.97729 0.50718 0.0
H232 H 0.58509 0.99494 0.87331 0.0
H233 H 0.66917 0.98922 0.7375 0.0
H234 H 0.62058 0.07178 0.7422 0.0
H235 H 0.66427 0.04191 0.69679 0.0
H236 H 0.44427 0.03342 0.45304 0.0
H237 H 0.36185 0.04241 0.59583 0.0
H238 H 0.40952 0.95932 0.598 0.0
H239 H 0.36675 0.99042 0.64355 0.0
Tb240 Tb 0.54253 0.50923 0.63738 0.0
C241 C 0.42136 0.49733 0.8142 0.0
C242 C 0.38382 0.5065 0.70585 0.0
C243 C 0.37217 0.47377 0.82427 0.0
C244 C 0.41312 0.51051 0.73884 0.0
C245 C 0.4008 0.47927 0.85904 0.0
C246 C 0.36367 0.48739 0.74769 0.0
C247 C 0.43742 0.4755 0.97227 0.0
N248 N 0.44922 0.50339 0.84552 0.0
C249 C 0.45695 0.49363 0.9256 0.0
C250 C 0.40935 0.46797 0.93844 0.0
Tb251 Tb 0.48001 0.53316 0.76287 0.0
N252 N 0.43311 0.52909 0.70134 0.0
C253 C 0.42404 0.54665 0.63491 0.0
C254 C 0.37524 0.52287 0.6342 0.0
C255 C 0.39524 0.54356 0.59983 0.0
H256 H 0.47836 0.49908 0.95392 0.0
H257 H 0.38855 0.55707 0.54603 0.0
H258 H 0.34119 0.48376 0.72286 0.0
H259 H 0.44403 0.4674 0.03452 0.0
H260 H 0.4391 0.56291 0.60768 0.0
H261 H 0.58469 0.43525 0.89189 0.0
H262 H 0.35296 0.52049 0.60689 0.0
H263 H 0.57921 0.56551 0.54446 0.0
H264 H 0.54695 0.46453 0.8214 0.0
H265 H 0.63073 0.58273 0.52671 0.0
H266 H 0.35616 0.45973 0.85729 0.0
H267 H 0.63816 0.4422 0.85704 0.0
H268 H 0.67707 0.47198 0.7818 0.0
H269 H 0.39423 0.45402 0.97491 0.0
H270 H 0.68964 0.51374 0.68744 0.0
N271 N 0.5764 0.48403 0.72815 0.0
C272 C 0.56921 0.46583 0.79582 0.0
C273 C 0.62119 0.45402 0.82096 0.0
C274 C 0.62905 0.47533 0.76059 0.0
C275 C 0.5911 0.44989 0.84028 0.0
C276 C 0.60598 0.49026 0.71538 0.0
H277 H 0.67254 0.55571 0.59518 0.0
N278 N 0.59026 0.52944 0.62814 0.0
C279 C 0.62616 0.56348 0.56618 0.0
C280 C 0.6131 0.51405 0.66423 0.0
C281 C 0.59667 0.55367 0.57784 0.0
C282 C 0.64966 0.54809 0.60437 0.0
C283 C 0.64335 0.52308 0.6541 0.0
O284 O 0.5409 0.5283 0.5157 0.0
O285 O 0.49507 0.5215 0.63557 0.0
O286 O 0.48047 0.48291 0.76587 0.0
O287 O 0.52358 0.46698 0.68908 0.0
O288 O 0.50689 0.48235 0.57445 0.0
O289 O 0.56472 0.48682 0.53544 0.0
O290 O 0.48498 0.56188 0.87112 0.0
O291 O 0.52874 0.53205 0.7511 0.0
O292 O 0.54137 0.559 0.65489 0.0
O293 O 0.49049 0.56553 0.65994 0.0
O294 O 0.5116 0.52579 0.86953 0.0
O295 O 0.4544 0.57293 0.77152 0.0
C296 C 0.48469 0.50021 0.58909 0.0
C297 C 0.53994 0.49401 0.40188 0.0
C298 C 0.50503 0.45786 0.33914 0.0
C299 C 0.52591 0.46583 0.40263 0.0
C300 C 0.50013 0.47715 0.27022 0.0
C301 C 0.53531 0.51295 0.33204 0.0
C302 C 0.51579 0.50431 0.26587 0.0
C303 C 0.49945 0.46153 0.738 0.0
C304 C 0.55502 0.50598 0.4791 0.0
C305 C 0.66634 0.50723 0.6949 0.0
C306 C 0.6592 0.48336 0.74813 0.0
C307 C 0.53627 0.52739 0.82779 0.0
C308 C 0.48551 0.61183 0.82178 0.0
C309 C 0.51634 0.61471 0.8404 0.0
C310 C 0.53223 0.64076 0.81848 0.0
C311 C 0.51699 0.66375 0.77536 0.0
C312 C 0.47071 0.63526 0.77996 0.0
C313 C 0.48647 0.66094 0.75635 0.0
C314 C 0.51754 0.57617 0.64199 0.0
C315 C 0.46967 0.58319 0.83619 0.0
H316 H 0.52941 0.45098 0.45603 0.0
H317 H 0.48416 0.47126 0.22023 0.0
H318 H 0.54588 0.5349 0.33044 0.0
H319 H 0.51197 0.51918 0.21276 0.0
H320 H 0.52817 0.59659 0.87137 0.0
H321 H 0.52835 0.68438 0.7588 0.0
H322 H 0.44711 0.63335 0.76362 0.0
H323 H 0.47495 0.67881 0.72349 0.0
Tb324 Tb 0.0254 0.55012 0.61358 0.0
C325 C 0.04198 0.42923 0.77547 0.0
C326 C 0.02288 0.39222 0.67384 0.0
C327 C 0.06392 0.37916 0.76881 0.0
C328 C 0.0226 0.42167 0.70939 0.0
C329 C 0.06225 0.40781 0.8077 0.0
C330 C 0.04426 0.37138 0.70193 0.0
C331 C 0.07522 0.44329 0.92064 0.0
N332 N 0.03946 0.45696 0.81216 0.0
C333 C 0.05474 0.46371 0.88665 0.0
C334 C 0.0794 0.41541 0.88009 0.0
Tb335 Tb 1.00631 0.48939 0.74828 0.0
N336 N 1.00213 0.44242 0.68412 0.0
C337 C 0.97926 0.43371 0.63027 0.0
C338 C 1.001 0.38424 0.6134 0.0
C339 C 0.97876 0.4049 0.59285 0.0
H340 H 0.05188 0.4853 0.9183 0.0
H341 H 0.96107 0.39863 0.54836 0.0
H342 H 0.04509 0.34886 0.67436 0.0
H343 H 0.08783 0.44913 0.9779 0.0
H344 H 0.9612 0.44851 0.61439 0.0
H345 H 0.0725 0.64082 0.80963 0.0
H346 H 1.00048 0.36191 0.58449 0.0
H347 H 0.97914 0.55504 0.44549 0.0
H348 H 0.07236 0.59142 0.73997 0.0
H349 H 0.94238 0.59118 0.38951 0.0
H350 H 0.07961 0.36253 0.79191 0.0
H351 H 0.03167 0.67691 0.78146 0.0
H352 H 0.98572 0.68988 0.69654 0.0
H353 H 0.09521 0.39958 0.90673 0.0
H354 H 0.95038 0.67651 0.58061 0.0
N355 N 0.03001 0.59709 0.67746 0.0
C356 C 0.05365 0.60592 0.72827 0.0
C357 C 0.03113 0.65478 0.75131 0.0
C358 C 1.00857 0.64684 0.6929 0.0
C359 C 0.05418 0.63447 0.76739 0.0
C360 C 1.00888 0.61765 0.65576 0.0
H361 H 0.93464 0.64009 0.46406 0.0
N362 N 0.99185 0.58287 0.55238 0.0
C363 C 0.95525 0.59679 0.44646 0.0
C364 C 0.98912 0.61028 0.59075 0.0
C365 C 0.97621 0.57642 0.4783 0.0
C366 C 0.95085 0.6243 0.48894 0.0
C367 C 0.96831 0.63162 0.56095 0.0
O368 O 0.03853 0.5682 0.49586 0.0
O369 O 0.0249 0.50114 0.62528 0.0
O370 O 0.05571 0.49196 0.73874 0.0
O371 O 0.06264 0.54213 0.70663 0.0
O372 O 0.01389 0.5176 0.50945 0.0
O373 O 0.07136 0.55032 0.5817 0.0
O374 O 0.99211 0.4685 0.86117 0.0
O375 O 1.00729 0.53814 0.73646 0.0
O376 O 0.97606 0.54764 0.62548 0.0
O377 O 0.96927 0.49726 0.65468 0.0
O378 O 0.01755 0.52198 0.85298 0.0
O379 O 0.96062 0.49173 0.78228 0.0
C380 C 0.01785 0.49301 0.54953 0.0
C381 C 0.07722 0.54033 0.43309 0.0
C382 C 0.09401 0.4916 0.37597 0.0
C383 C 0.08447 0.50991 0.44518 0.0
C384 C 0.09523 0.5043 0.29371 0.0
C385 C 0.07865 0.55232 0.35082 0.0
C386 C 0.08741 0.53429 0.28145 0.0
C387 C 0.07258 0.51649 0.73909 0.0
C388 C 0.06603 0.55927 0.50425 0.0
C389 C 0.96649 0.65995 0.60173 0.0
C390 C 0.98659 0.66755 0.66774 0.0
C391 C 0.01419 0.54649 0.812 0.0
C392 C 0.95475 0.49586 0.93288 0.0
C393 C 0.94762 0.52665 0.93043 0.0
C394 C 0.93692 0.54197 1.00402 0.0
C395 C 0.93483 0.52589 0.08114 0.0
C396 C 0.95258 0.48058 1.01031 0.0
C397 C 0.94294 0.49564 0.08418 0.0
C398 C 0.95922 0.52308 0.6237 0.0
C399 C 0.96525 0.47943 0.85605 0.0
H400 H 0.08267 0.50062 0.50858 0.0
H401 H 0.10334 0.49159 0.23876 0.0
H402 H 0.07269 0.57559 0.34019 0.0
H403 H 0.08861 0.54372 0.21805 0.0
H404 H 0.95012 0.53841 0.87082 0.0
H405 H 0.9258 0.53608 0.13899 0.0
H406 H 0.95834 0.45695 1.01354 0.0
H407 H 0.94106 0.48364 0.14371 0.0
H408 H 0.23812 0.03163 0.3102 0.0
H409 H 0.18262 0.08231 0.13909 0.0
H410 H 0.19505 0.02429 0.40526 0.0
H411 H 0.13928 0.07494 0.23364 0.0
H412 H 0.06198 0.0336 0.39623 0.0
H413 H 0.10327 0.03866 0.29495 0.0
H414 H 0.16439 0.05555 0.50488 0.0
H415 H 0.12286 0.05125 0.60628 0.0
C416 C 0.21639 0.04022 0.29117 0.0
C417 C 0.21371 0.05665 0.21523 0.0
C418 C 0.19174 0.03656 0.34668 0.0
C419 C 0.16344 0.04918 0.3282 0.0
C420 C 0.16047 0.06459 0.25023 0.0
C421 C 0.18529 0.06857 0.19523 0.0
C422 C 0.08416 0.03834 0.42141 0.0
C423 C 0.08888 0.04101 0.51076 0.0
C424 C 0.10799 0.0414 0.36272 0.0
C425 C 0.13758 0.04696 0.39097 0.0
C426 C 0.14219 0.05046 0.48015 0.0
C427 C 0.11825 0.04787 0.53879 0.0
H428 H 0.42228 0.18347 0.1978 0.0
H429 H 0.5173 0.20161 0.18799 0.0
H430 H 0.43149 0.14074 0.28995 0.0
H431 H 0.52667 0.15778 0.27865 0.0
H432 H 0.52752 0.06048 0.39871 0.0
H433 H 0.51995 0.09898 0.29058 0.0
H434 H 0.45062 0.13937 0.44706 0.0
H435 H 0.45871 0.10116 0.55626 0.0
C436 C 0.4453 0.17759 0.21259 0.0
C437 C 0.46905 0.19601 0.18476 0.0
C438 C 0.45052 0.15327 0.26658 0.0
C439 C 0.47974 0.14601 0.29327 0.0
C440 C 0.50384 0.16274 0.25959 0.0
C441 C 0.49854 0.18764 0.20654 0.0
C442 C 0.51043 0.07733 0.40984 0.0
C443 C 0.49342 0.07733 0.48595 0.0
C444 C 0.50632 0.09964 0.34801 0.0
C445 C 0.48458 0.12227 0.35951 0.0
C446 C 0.46743 0.12218 0.43553 0.0
C447 C 0.47209 0.10031 0.49834 0.0
H448 H 0.34602 0.44327 0.22881 0.0
H449 H 0.31983 0.53489 0.2826 0.0
H450 H 0.39052 0.45007 0.31707 0.0
H451 H 0.36558 0.54192 0.37078 0.0
H452 H 0.46996 0.54089 0.46464 0.0
H453 H 0.42664 0.53951 0.36583 0.0
H454 H 0.39639 0.45741 0.48093 0.0
H455 H 0.43943 0.45899 0.57925 0.0
C456 C 0.35024 0.46523 0.25756 0.0
C457 C 0.32919 0.48853 0.24769 0.0
C458 C 0.37578 0.469 0.30934 0.0
C459 C 0.38174 0.49632 0.35274 0.0
C460 C 0.36184 0.52049 0.33851 0.0
C461 C 0.33574 0.51658 0.28715 0.0
C462 C 0.45376 0.52281 0.46941 0.0
C463 C 0.45764 0.50053 0.53173 0.0
C464 C 0.42892 0.52202 0.4128 0.0
C465 C 0.40768 0.49848 0.4154 0.0
C466 C 0.41207 0.47596 0.47688 0.0
C467 C 0.43674 0.47685 0.53354 0.0
H468 H 0.03816 0.35221 0.14216 0.0
H469 H 0.05411 0.3062 0.37854 0.0
H470 H 0.02803 0.39895 0.22432 0.0
H471 H 0.0444 0.35239 0.4599 0.0
H472 H 0.05971 0.44761 0.57728 0.0
H473 H 0.06727 0.40104 0.493 0.0
H474 H 0.99476 0.42591 0.32495 0.0
H475 H 0.98722 0.47209 0.40982 0.0
C476 C 0.03883 0.35177 0.21149 0.0
C477 C 0.04695 0.32505 0.25297 0.0
C478 C 0.03325 0.37875 0.25904 0.0
C479 C 0.03582 0.38001 0.34967 0.0
C480 C 0.0428 0.35294 0.39069 0.0
C481 C 0.04807 0.32615 0.34359 0.0
C482 C 0.04493 0.44277 0.52362 0.0
C483 C 0.02204 0.46323 0.50284 0.0
C484 C 0.04936 0.41605 0.47448 0.0
C485 C 0.03145 0.40907 0.40163 0.0
C486 C 1.00915 0.4301 0.37984 0.0
C487 C 1.00463 0.45662 0.42926 0.0
H488 H 0.7942 1.00216 0.02594 0.0
H489 H 0.84907 0.95189 0.19963 0.0
H490 H 0.83806 1.01119 0.93529 0.0
H491 H 0.89327 0.96101 0.1094 0.0
H492 H 0.97095 1.0063 0.95386 0.0
H493 H 0.92895 0.99933 0.05221 0.0
H494 H 0.87038 0.98062 0.83759 0.0
H495 H 0.91254 0.98674 0.73938 0.0
C496 C 0.81591 0.994 0.04652 0.0
C497 C 0.81817 0.97718 0.12187 0.0
C498 C 0.84105 0.99865 0.99355 0.0
C499 C 0.86946 0.98669 1.01402 0.0
C500 C 0.87199 0.97087 0.09144 0.0
C501 C 0.84667 0.96589 0.14392 0.0
C502 C 0.94918 1.00072 0.92715 0.0
C503 C 0.94532 0.998 0.83748 0.0
C504 C 0.92496 0.99658 0.98406 0.0
C505 C 0.89585 0.98994 0.95351 0.0
C506 C 0.89215 0.98647 0.86403 0.0
C507 C 0.91647 0.99011 0.80726 0.0
H508 H 0.52659 0.80703 0.07054 0.0
H509 H 0.58323 0.86324 0.22974 0.0
H510 H 0.51917 0.84868 0.97215 0.0
H511 H 0.5753 0.90541 0.13214 0.0
H512 H 0.52841 0.97905 0.95737 0.0
H513 H 0.53429 0.94072 0.06662 0.0
H514 H 0.55634 0.87516 0.87009 0.0
H515 H 0.5518 0.9137 0.76122 0.0
C516 C 0.53636 0.82874 0.08656 0.0
C517 C 0.55472 0.83202 0.15956 0.0
C518 C 0.5326 0.85248 0.02924 0.0
C519 C 0.54687 0.8804 0.04346 0.0
C520 C 0.56385 0.88431 0.11922 0.0
C521 C 0.56809 0.86028 0.17587 0.0
C522 C 0.5345 0.95652 0.93696 0.0
C523 C 0.53832 0.94942 0.8491 0.0
C524 C 0.538 0.9345 1.00007 0.0
C525 C 0.54503 0.90458 0.9773 0.0
C526 C 0.55005 0.89775 0.88997 0.0
C527 C 0.54721 0.91989 0.82718 0.0
H528 H 0.72606 0.54655 0.98237 0.0
H529 H 0.67723 0.5489 0.22058 0.0
H530 H 0.67945 0.53788 0.90342 0.0
H531 H 0.63017 0.54036 0.14147 0.0
H532 H 0.55261 0.50234 0.97737 0.0
H533 H 0.59978 0.50673 0.05614 0.0
H534 H 0.63471 0.56452 0.86025 0.0
H535 H 0.587 0.56019 0.78195 0.0
C536 C 0.70533 0.54477 0.01821 0.0
C537 C 0.70559 0.54842 0.1083 0.0
C538 C 0.67842 0.54016 0.97256 0.0
C539 C 0.65061 0.5389 1.01515 0.0
C540 C 0.65099 0.54105 0.1058 0.0
C541 C 0.67806 0.54576 0.15165 0.0
C542 C 0.57044 0.51588 0.95074 0.0
C543 C 0.56628 0.53 0.87146 0.0
C544 C 0.59757 0.51855 0.99641 0.0
C545 C 0.62154 0.53583 0.96511 0.0
C546 C 0.6172 0.55043 0.8861 0.0
C547 C 0.58985 0.54783 0.84049 0.0
H548 H 0.02923 0.72065 0.10499 0.0
H549 H 0.93641 0.69317 0.11619 0.0
H550 H 0.04087 0.67462 0.02086 0.0
H551 H 0.94769 0.64897 0.02873 0.0
H552 H 0.96946 0.58927 0.79335 0.0
H553 H 0.9614 0.63528 0.87973 0.0
H554 H 0.04207 0.61721 0.02305 0.0
H555 H 0.04966 0.57098 0.93755 0.0
C556 C 1.01138 0.70475 0.09112 0.0
C557 C 0.98174 0.7113 0.11762 0.0
C558 C 0.01799 0.67836 0.04181 0.0
C559 C 0.99511 0.65793 1.01605 0.0
C560 C 0.96589 0.66404 0.04554 0.0
C561 C 0.95946 0.68969 0.09623 0.0
C562 C 0.98574 0.59537 0.8423 0.0
C563 C 1.01063 0.57663 0.85678 0.0
C564 C 0.98099 0.62169 0.89278 0.0
C565 C 1.00112 0.63042 0.95909 0.0
C566 C 0.02622 0.61176 0.97245 0.0
C567 C 0.03057 0.58513 0.92328 0.0
H568 H 0.1096 0.26437 0.37932 0.0
H569 H 0.14172 0.21704 0.15296 0.0
H570 H 0.12652 0.22434 0.46657 0.0
H571 H 0.15714 0.1753 0.24208 0.0
H572 H 0.07398 0.12072 0.36399 0.0
H573 H 0.11279 0.14706 0.28927 0.0
H574 H 0.14892 0.18001 0.53013 0.0
H575 H 0.10997 0.15268 0.6062 0.0
C576 C 0.12156 0.24617 0.3477 0.0
C577 C 0.12213 0.2431 0.25781 0.0
C578 C 0.1315 0.2228 0.39873 0.0
C579 C 0.14136 0.19564 0.36074 0.0
C580 C 0.14835 0.19545 0.27291 0.0
C581 C 0.13903 0.21925 0.22172 0.0
C582 C 0.091 0.13219 0.40191 0.0
C583 C 0.08765 0.1363 0.49086 0.0
C584 C 0.11368 0.14731 0.35863 0.0
C585 C 0.13284 0.16726 0.40362 0.0
C586 C 0.13362 0.16583 0.49354 0.0
C587 C 0.111 0.15052 0.53702 0.0
H588 H 0.27346 0.11455 0.3591 0.0
H589 H 0.32924 0.14491 0.15076 0.0
H590 H 0.31352 0.1234 0.4574 0.0
H591 H 0.37071 0.15198 0.2511 0.0
H592 H 0.41212 0.05897 0.3563 0.0
H593 H 0.3891 0.10111 0.28759 0.0
H594 H 0.35978 0.13617 0.53356 0.0
H595 H 0.38315 0.09327 0.60324 0.0
C596 C 0.29369 0.12451 0.33383 0.0
C597 C 0.29879 0.1264 0.245 0.0
C598 C 0.31707 0.12976 0.39149 0.0
C599 C 0.34601 0.13619 0.36099 0.0
C600 C 0.34894 0.14551 0.27577 0.0
C601 C 0.32523 0.14093 0.21802 0.0
C602 C 0.40202 0.07627 0.39653 0.0
C603 C 0.39819 0.07208 0.48475 0.0
C604 C 0.38895 0.10085 0.35697 0.0
C605 C 0.37167 0.12162 0.40483 0.0
C606 C 0.37236 0.12016 0.49477 0.0
C607 C 0.38537 0.0954 0.53449 0.0
H608 H 0.39645 0.32011 0.18693 0.0
H609 H 0.45563 0.27629 0.36488 0.0
H610 H 0.40428 0.36738 0.26162 0.0
H611 H 0.46141 0.32309 0.44483 0.0
H612 H 0.5252 0.40165 0.37213 0.0
H613 H 0.49581 0.35611 0.38444 0.0
H614 H 0.41421 0.40725 0.35216 0.0
H615 H 0.44446 0.45275 0.33195 0.0
C616 C 0.40967 0.32024 0.24529 0.0
C617 C 0.42721 0.29522 0.26633 0.0
C618 C 0.41413 0.34747 0.28888 0.0
C619 C 0.43546 0.34942 0.3555 0.0
C620 C 0.44638 0.32258 0.39019 0.0
C621 C 0.44264 0.29553 0.34496 0.0
C622 C 0.50095 0.40311 0.3679 0.0
C623 C 0.48696 0.43042 0.34938 0.0
C624 C 0.48391 0.3771 0.37679 0.0
C625 C 0.45236 0.37794 0.36898 0.0
C626 C 0.43838 0.40582 0.35648 0.0
C627 C 0.45556 0.4317 0.34489 0.0
H628 H 0.2208 0.39838 0.17937 0.0
H629 H 0.24713 0.4514 0.40078 0.0
H630 H 0.17617 0.38166 0.25458 0.0
H631 H 0.20271 0.43644 0.4743 0.0
H632 H 0.12116 0.46895 0.5219 0.0
H633 H 0.15735 0.42888 0.52263 0.0
H634 H 0.13284 0.40501 0.26202 0.0
H635 H 0.09378 0.44214 0.26606 0.0
C636 C 0.2174 0.40578 0.24516 0.0
C637 C 0.23642 0.42753 0.28261 0.0
C638 C 0.19157 0.39651 0.28832 0.0
C639 C 0.1837 0.41016 0.36747 0.0
C640 C 0.20638 0.42649 0.4116 0.0
C641 C 0.2324 0.43526 0.36919 0.0
C642 C 0.12246 0.45448 0.46564 0.0
C643 C 0.10656 0.46093 0.39011 0.0
C644 C 0.14385 0.43152 0.46559 0.0
C645 C 0.15131 0.4165 0.38825 0.0
C646 C 0.13009 0.41775 0.32104 0.0
C647 C 0.10773 0.43972 0.3224 0.0
H648 H 0.92752 0.77868 0.96822 0.0
H649 H 0.89383 0.82607 0.19247 0.0
H650 H 0.90963 0.8179 0.8792 0.0
H651 H 0.87711 0.8669 0.10168 0.0
H652 H 0.95889 0.92262 0.98042 0.0
H653 H 0.91959 0.89684 0.05402 0.0
H654 H 0.88614 0.86103 0.81323 0.0
H655 H 0.92556 0.88795 0.73795 0.0
C656 C 0.915 0.79672 0.99883 0.0
C657 C 0.91394 0.80001 0.08853 0.0
C658 C 0.90447 0.81958 0.9469 0.0
C659 C 0.89358 0.84654 0.9838 0.0
C660 C 0.88657 0.84692 0.07164 0.0
C661 C 0.89661 0.82368 0.12377 0.0
C662 C 0.94238 0.91064 0.94196 0.0
C663 C 0.94675 0.90548 0.85373 0.0
C664 C 0.91938 0.89582 0.98464 0.0
C665 C 0.90108 0.87501 0.93989 0.0
C666 C 0.90094 0.87575 0.84983 0.0
C667 C 0.92387 0.89077 0.80685 0.0
H668 H 0.7578 0.92217 0.96826 0.0
H669 H 0.70362 0.88681 0.17333 0.0
H670 H 0.71847 0.91185 0.86867 0.0
H671 H 0.66279 0.87793 0.07181 0.0
H672 H 0.61396 0.96646 0.96722 0.0
H673 H 0.63804 0.9245 0.03369 0.0
H674 H 0.67483 0.89626 0.78917 0.0
H675 H 0.65008 0.93867 0.72158 0.0
C676 C 0.73812 0.91083 0.99233 0.0
C677 C 0.73321 0.90754 0.08077 0.0
C678 C 0.71513 0.90475 0.93399 0.0
C679 C 0.68661 0.89599 0.96322 0.0
C680 C 0.68409 0.88609 0.04801 0.0
C681 C 0.70743 0.8916 0.10643 0.0
C682 C 0.62596 0.95064 0.92638 0.0
C683 C 0.63171 0.95698 0.84005 0.0
C684 C 0.63973 0.92614 0.96471 0.0
C685 C 0.65991 0.90796 0.91757 0.0
C686 C 0.66045 0.91067 0.8279 0.0
C687 C 0.64662 0.93521 0.7894 0.0
H688 H 0.60312 0.77101 1.00147 0.0
H689 H 0.63774 0.71182 0.19546 0.0
H690 H 0.61017 0.73292 0.89515 0.0
H691 H 0.64366 0.67237 0.08644 0.0
H692 H 0.55579 0.62501 0.97285 0.0
H693 H 0.59786 0.64859 0.04306 0.0
H694 H 0.6226 0.69128 0.80654 0.0
H695 H 0.57965 0.6675 0.73556 0.0
C696 C 0.61362 0.75041 0.02181 0.0
C697 C 0.61785 0.74405 0.10912 0.0
C698 C 0.61779 0.72812 0.95937 0.0
C699 C 0.62563 0.69878 0.98292 0.0
C700 C 0.63612 0.69437 0.06688 0.0
C701 C 0.63235 0.71694 0.12964 0.0
C702 C 0.57085 0.63829 0.93431 0.0
C703 C 0.56341 0.64572 0.84977 0.0
C704 C 0.59542 0.6518 0.9748 0.0
C705 C 0.61276 0.67327 0.93169 0.0
C706 C 0.60885 0.67588 0.84257 0.0
C707 C 0.58408 0.66248 0.80205 0.0
H708 H 0.78375 0.59286 0.97637 0.0
H709 H 0.80948 0.64512 0.20009 0.0
H710 H 0.83074 0.60374 0.91041 0.0
H711 H 0.85708 0.65734 0.13218 0.0
H712 H 0.93312 0.58583 0.13139 0.0
H713 H 0.89479 0.62364 0.1393 0.0
H714 H 0.87789 0.61209 0.86773 0.0
H715 H 0.91289 0.57094 0.86279 0.0
C716 C 0.79882 0.60821 1.00976 0.0
C717 C 0.7938 0.61648 0.09568 0.0
C718 C 0.82631 0.6146 0.97159 0.0
C719 C 0.84921 0.62913 0.0193 0.0
C720 C 0.84092 0.644 0.09617 0.0
C721 C 0.81348 0.63726 0.13501 0.0
C722 C 0.92103 0.591 0.07327 0.0
C723 C 0.92419 0.57304 0.99881 0.0
C724 C 0.8993 0.61355 0.07712 0.0
C725 C 0.88105 0.61935 1.00536 0.0
C726 C 0.88978 0.60667 0.92599 0.0
C727 C 0.91041 0.58302 0.92305 0.0
H728 H 0.07438 0.24108 0.94118 0.0
H729 H 1.00988 0.21342 0.12889 0.0
H730 H 0.06275 0.19661 0.85272 0.0
H731 H 0.99859 0.16843 0.0424 0.0
H732 H 0.05944 0.09782 0.75259 0.0
H733 H 0.06945 0.14421 0.83612 0.0
H734 H 0.97747 0.14467 0.92362 0.0
H735 H 0.96819 0.09828 0.8433 0.0
C736 C 0.05681 0.22604 0.96216 0.0
C737 C 0.04224 0.23181 0.04112 0.0
C738 C 0.05063 0.1999 0.91219 0.0
C739 C 0.0298 0.17807 0.93941 0.0
C740 C 0.01444 0.18446 1.01719 0.0
C741 C 0.02061 0.2107 0.06701 0.0
C742 C 0.04161 0.10754 0.7912 0.0
C743 C 0.01318 0.0936 0.79269 0.0
C744 C 0.04714 0.13461 0.83841 0.0
C745 C 0.02436 0.14885 0.88822 0.0
C746 C 0.99599 0.13469 0.88853 0.0
C747 C 0.99056 0.10787 0.84167 0.0
H748 H 0.3271 0.01909 0.1143 0.0
H749 H 0.29674 0.07648 0.91297 0.0
H750 H 0.37084 1.00486 0.02893 0.0
H751 H 0.33983 0.06147 0.82478 0.0
H752 H 0.43704 0.05432 0.72175 0.0
H753 H 0.39141 0.06722 0.80265 0.0
H754 H 0.3927 0.9793 0.9164 0.0
H755 H 0.43865 0.96746 0.83917 0.0
C756 C 0.32903 0.02755 0.04986 0.0
C757 C 0.30763 0.04806 0.01957 0.0
C758 C 0.35444 0.01961 1.00053 0.0
C759 C 0.35953 0.03189 0.9187 0.0
C760 C 0.33742 0.05168 0.88741 0.0
C761 C 0.31213 0.0598 0.93725 0.0
C762 C 0.42788 0.03813 0.76574 0.0
C763 C 0.44227 1.01026 0.77631 0.0
C764 C 0.40125 0.04524 0.81129 0.0
C765 C 0.38788 0.02451 0.8679 0.0
C766 C 0.4022 0.99642 0.87613 0.0
C767 C 0.4287 0.98947 0.83115 0.0
H768 H 0.5196 0.29641 0.02855 0.0
H769 H 0.42991 0.28888 0.92724 0.0
H770 H 0.52853 0.34045 0.93926 0.0
H771 H 0.43853 0.33284 0.83863 0.0
H772 H 0.44892 0.43663 0.8113 0.0
H773 H 0.44293 0.38698 0.87318 0.0
H774 H 0.5328 0.36356 0.79394 0.0
H775 H 0.53872 0.41325 0.73149 0.0
C776 C 0.50232 0.30315 0.98389 0.0
C777 C 0.4743 0.28841 0.98366 0.0
C778 C 0.50724 0.32879 0.93343 0.0
C779 C 0.48409 0.3408 0.88232 0.0
C780 C 0.4568 0.32476 0.87786 0.0
C781 C 0.45205 0.29903 0.92739 0.0
C782 C 0.46745 0.42103 0.8068 0.0
C783 C 0.49451 0.42967 0.76748 0.0
C784 C 0.46393 0.39223 0.84181 0.0
C785 C 0.48744 0.37094 0.83945 0.0
C786 C 0.51426 0.37926 0.79823 0.0
C787 C 0.51759 0.40793 0.76196 0.0
H788 H 0.24913 0.46392 0.95037 0.0
H789 H 0.21607 0.53245 0.1236 0.0
H790 H 0.2076 0.47365 0.85197 0.0
H791 H 0.17404 0.54202 0.0266 0.0
H792 H 0.10533 0.56246 0.81694 0.0
H793 H 0.1526 0.5592 0.89594 0.0
H794 H 0.1555 0.46365 0.84285 0.0
H795 H 0.10889 0.46727 0.76154 0.0
C796 C 0.23366 0.48201 0.96577 0.0
C797 C 0.23673 0.49809 0.04384 0.0
C798 C 0.20927 0.48717 0.91013 0.0
C799 C 0.18674 0.50843 0.93086 0.0
C800 C 0.19079 0.52569 1.00695 0.0
C801 C 0.21523 0.52047 0.06261 0.0
C802 C 0.11631 0.54085 0.8204 0.0
C803 C 0.10299 0.51519 0.78196 0.0
C804 C 0.14344 0.53886 0.86709 0.0
C805 C 0.15842 0.51113 0.87675 0.0
C806 C 0.14531 0.48559 0.83653 0.0
C807 C 0.1182 0.4876 0.79015 0.0
H808 H 0.02432 0.82706 0.22502 0.0
H809 H 0.95929 0.79972 0.41159 0.0
H810 H 0.03574 0.8719 0.31165 0.0
H811 H 0.97109 0.84409 0.50047 0.0
H812 H 0.97496 0.94312 0.59972 0.0
H813 H 0.96476 0.89659 0.51694 0.0
H814 H 0.05686 0.89544 0.4303 0.0
H815 H 0.06629 0.94196 0.50967 0.0
C816 C 0.01353 0.8298 0.28683 0.0
C817 C 0.99175 0.8088 0.31238 0.0
C818 C 0.01977 0.85596 0.33671 0.0
C819 C 1.00434 0.86241 0.41426 0.0
C820 C 0.98331 0.84071 0.4412 0.0
C821 C 0.97704 0.81462 0.39107 0.0
C822 C 0.99276 0.93321 0.56141 0.0
C823 C 0.02127 0.947 0.5598 0.0
C824 C 0.98713 0.90607 0.51466 0.0
C825 C 1.00988 0.89162 0.4653 0.0
C826 C 0.03834 0.9056 0.465 0.0
C827 C 0.04387 0.9325 0.51131 0.0
H828 H 0.73429 0.95313 0.41906 0.0
H829 H 0.70383 1.0122 0.22186 0.0
H830 H 0.69069 0.96666 0.50719 0.0
H831 H 0.6596 0.02489 0.30684 0.0
H832 H 0.5908 0.05972 0.49658 0.0
H833 H 0.637 0.04901 0.41971 0.0
H834 H 0.63916 0.96029 0.52845 0.0
H835 H 0.59323 0.97211 0.60944 0.0
C836 C 0.71875 0.96986 0.39577 0.0
C837 C 0.72338 0.98253 0.31467 0.0
C838 C 0.69318 0.97712 0.4455 0.0
C839 C 0.67091 0.99693 0.41519 0.0
C840 C 0.67611 1.0101 0.33459 0.0
C841 C 0.7018 1.00304 0.28548 0.0
C842 C 0.60098 0.03777 0.50358 0.0
C843 C 0.58762 0.0165 0.55732 0.0
C844 C 0.62764 0.03146 0.45874 0.0
C845 C 0.64231 1.00351 0.46574 0.0
C846 C 0.62906 0.9822 0.52087 0.0
C847 C 0.60227 0.98869 0.56646 0.0
H848 H 0.5803 0.75159 0.4544 0.0
H849 H 0.51517 0.7206 0.26907 0.0
H850 H 0.56702 0.71013 0.54826 0.0
H851 H 0.50222 0.67854 0.36111 0.0
H852 H 0.47467 0.61019 0.56109 0.0
H853 H 0.4812 0.65782 0.48723 0.0
H854 H 0.57527 0.65796 0.5552 0.0
H855 H 0.56834 0.61114 0.6314 0.0
C856 C 0.56235 0.73647 0.4351 0.0
C857 C 0.54819 0.74 0.35528 0.0
C858 C 0.55509 0.71221 0.48817 0.0
C859 C 0.53372 0.69034 0.46259 0.0
C860 C 0.51851 0.69483 0.38432 0.0
C861 C 0.52575 0.71918 0.33142 0.0
C862 C 0.49671 0.62051 0.56079 0.0
C863 C 0.52109 0.60631 0.60106 0.0
C864 C 0.50055 0.64786 0.51772 0.0
C865 C 0.52888 0.66208 0.51383 0.0
C866 C 0.553 0.6482 0.55663 0.0
C867 C 0.54915 0.62089 0.59953 0.0
H868 H 0.78205 0.57801 0.4238 0.0
H869 H 0.81304 0.50984 0.24627 0.0
H870 H 0.82402 0.56727 0.51953 0.0
H871 H 0.85563 0.49933 0.34051 0.0
H872 H 0.92584 0.4776 0.54554 0.0
H873 H 0.87812 0.4815 0.4689 0.0
H874 H 0.876 0.5768 0.52629 0.0
H875 H 0.92298 0.57251 0.60529 0.0
C876 C 0.79719 0.55981 0.40684 0.0
C877 C 0.79342 0.54415 0.32832 0.0
C878 C 0.82183 0.55406 0.46094 0.0
C879 C 0.84398 0.53266 0.43812 0.0
C880 C 0.83921 0.51577 0.36168 0.0
C881 C 0.81445 0.52153 0.30762 0.0
C882 C 0.91496 0.49928 0.54336 0.0
C883 C 0.92861 0.5247 0.5822 0.0
C884 C 0.88756 0.50164 0.49812 0.0
C885 C 0.87264 0.52951 0.49045 0.0
C886 C 0.88611 0.55477 0.53112 0.0
C887 C 0.91345 0.55238 0.5761 0.0
loop_
_geom_bond_atom_site_label_1
_geom_bond_atom_site_label_2
_geom_bond_distance
_geom_bond_site_symmetry_2
_ccdc_geom_bond_type
H0 C3 0.931 . S
H1 C6 0.928 . S
H2 C8 0.930 . S
C3 H0 0.931 . S
C3 C4 1.413 . S
C3 C5 1.360 . S
C4 C3 1.413 . S
C4 C8 1.429 . S
C5 C3 1.360 . S
C5 C6 1.372 . S
C6 H1 0.928 . S
C6 C5 1.372 . S
C6 C7 1.404 . S
C7 C6 1.404 . S
C7 C8 1.391 . S
C8 H2 0.930 . S
C8 C4 1.429 . S
C8 C7 1.391 . S
H9 C12 0.931 . S
H10 C15 0.928 . S
H11 C17 0.930 . S
C12 H9 0.931 . S
C12 C13 1.413 . S
C12 C14 1.360 . S
C13 C12 1.413 . S
C13 C17 1.429 . S
C14 C12 1.360 . S
C14 C15 1.372 . S
C15 H10 0.928 . S
C15 C14 1.372 . S
C15 C16 1.404 . S
C16 C15 1.404 . S
C16 C17 1.391 . S
C17 H11 0.930 . S
C17 C13 1.429 . S
C17 C16 1.391 . S
H18 C21 0.931 . S
H19 C24 0.928 . S
H20 C26 0.930 . S
C21 H18 0.931 . S
C21 C22 1.413 . S
C21 C23 1.360 . S
C22 C21 1.413 . S
C22 C26 1.429 . S
C23 C21 1.360 . S
C23 C24 1.372 . S
C24 H19 0.928 . S
C24 C23 1.372 . S
C24 C25 1.404 . S
C25 C24 1.404 . S
C25 C26 1.391 . S
C26 H20 0.930 . S
C26 C22 1.429 . S
C26 C25 1.391 . S
H27 C30 0.931 . S
H28 C33 0.928 . S
H29 C35 0.930 . S
C30 H27 0.931 . S
C30 C31 1.413 . S
C30 C32 1.360 . S
C31 C30 1.413 . S
C31 C35 1.429 . S
C32 C30 1.360 . S
C32 C33 1.372 . S
C33 H28 0.928 . S
C33 C32 1.372 . S
C33 C34 1.404 . S
C34 C33 1.404 . S
C34 C35 1.391 . S
C35 H29 0.930 . S
C35 C31 1.429 . S
C35 C34 1.391 . S
H36 C39 0.931 1_556 S
H37 C42 0.928 . S
H38 C44 0.930 . S
C39 H36 0.931 1_554 S
C39 C40 1.413 1_554 S
C39 C41 1.360 . S
C40 C39 1.413 1_556 S
C40 C44 1.429 . S
C41 C39 1.360 . S
C41 C42 1.372 . S
C42 H37 0.928 . S
C42 C41 1.372 . S
C42 C43 1.404 . S
C43 C42 1.404 . S
C43 C44 1.391 1_554 S
C44 H38 0.930 . S
C44 C40 1.429 . S
C44 C43 1.391 1_556 S
H45 C48 0.931 1_556 S
H46 C51 0.928 . S
H47 C53 0.930 . S
C48 H45 0.931 1_554 S
C48 C49 1.413 1_554 S
C48 C50 1.360 . S
C49 C48 1.413 1_556 S
C49 C53 1.429 . S
C50 C48 1.360 . S
C50 C51 1.372 . S
C51 H46 0.928 . S
C51 C50 1.372 . S
C51 C52 1.404 . S
C52 C51 1.404 . S
C52 C53 1.391 1_554 S
C53 H47 0.930 . S
C53 C49 1.429 . S
C53 C52 1.391 1_556 S
H54 C57 0.931 1_556 S
H55 C60 0.928 . S
H56 C62 0.930 . S
C57 H54 0.931 1_554 S
C57 C58 1.413 1_554 S
C57 C59 1.360 . S
C58 C57 1.413 1_556 S
C58 C62 1.429 . S
C59 C57 1.360 . S
C59 C60 1.372 . S
C60 H55 0.928 . S
C60 C59 1.372 . S
C60 C61 1.404 . S
C61 C60 1.404 . S
C61 C62 1.391 1_554 S
C62 H56 0.930 . S
C62 C58 1.429 . S
C62 C61 1.391 1_556 S
H63 C66 0.931 1_556 S
H64 C69 0.928 . S
H65 C71 0.930 . S
C66 H63 0.931 1_554 S
C66 C67 1.413 . S
C66 C68 1.360 1_554 S
C67 C66 1.413 . S
C67 C71 1.429 . S
C68 C66 1.360 1_556 S
C68 C69 1.372 . S
C69 H64 0.928 . S
C69 C68 1.372 . S
C69 C70 1.404 1_556 S
C70 C69 1.404 1_554 S
C70 C71 1.391 . S
C71 H65 0.930 . S
C71 C67 1.429 . S
C71 C70 1.391 . S
Tb72 N103 2.660 1_565 S
Tb72 N110 2.600 . S
Tb72 O116 2.546 . S
Tb72 O117 2.610 1_455 S
Tb72 O119 2.320 1_455 S
Tb72 O120 2.552 . S
Tb72 O121 2.413 . S
Tb72 O123 2.362 1_565 S
Tb72 O124 2.421 . S
Tb72 C136 2.833 . S
C73 C76 1.432 1_545 S
C73 C77 1.414 1_545 S
C73 N80 1.359 . S
C74 C76 1.417 . S
C74 C78 1.432 . S
C74 C86 1.410 . S
C75 C77 1.444 . S
C75 C78 1.317 . S
C75 H98 0.929 . S
C76 C73 1.432 1_565 S
C76 C74 1.417 . S
C76 N84 1.360 . S
C77 C73 1.414 1_565 S
C77 C75 1.444 . S
C77 C82 1.385 1_565 S
C78 C74 1.432 . S
C78 C75 1.317 . S
C78 H90 0.930 . S
C79 C81 1.392 . S
C79 C82 1.370 . S
C79 H91 0.931 . S
N80 C73 1.359 . S
N80 C81 1.327 . S
N80 Tb83 2.600 . S
C81 C79 1.392 . S
C81 N80 1.327 . S
C81 H88 0.930 . S
C82 C77 1.385 1_545 S
C82 C79 1.370 . S
C82 H101 0.930 . S
Tb83 N80 2.600 . S
Tb83 N84 2.660 1_545 S
Tb83 O117 2.362 1_545 S
Tb83 O118 2.421 . S
Tb83 O122 2.546 . S
Tb83 O123 2.610 1_655 S
Tb83 O125 2.320 1_655 S
Tb83 O126 2.543 1_655 S
Tb83 O127 2.413 . S
Tb83 C147 2.833 . S
N84 C76 1.360 . S
N84 Tb83 2.660 1_565 S
N84 C85 1.305 . S
C85 N84 1.305 . S
C85 C87 1.407 . S
C85 H92 0.930 1_655 S
C86 C74 1.410 . S
C86 C87 1.345 . S
C86 H94 0.930 . S
C87 C85 1.407 . S
C87 C86 1.345 . S
C87 H89 0.930 1_655 S
H88 C81 0.930 . S
H89 C87 0.930 1_455 S
H90 C78 0.930 . S
H91 C79 0.931 . S
H92 C85 0.930 1_455 S
H93 C107 0.930 1_654 S
H94 C86 0.930 . S
H95 C113 0.930 . S
H96 C104 0.930 1_655 S
H97 C111 0.931 . S
H98 C75 0.929 . S
H99 C105 0.930 . S
H100 C138 0.930 . S
H101 C82 0.930 . S
H102 C137 0.929 . S
N103 Tb72 2.660 1_545 S
N103 C104 1.305 . S
N103 C108 1.360 . S
C104 H96 0.930 1_455 S
C104 N103 1.305 . S
C104 C107 1.407 . S
C105 H99 0.930 . S
C105 C106 1.410 1_554 S
C105 C107 1.345 1_554 S
C106 C105 1.410 1_556 S
C106 C108 1.417 . S
C106 C138 1.432 1_556 S
C107 H93 0.930 1_456 S
C107 C104 1.407 . S
C107 C105 1.345 1_556 S
C108 N103 1.360 . S
C108 C106 1.417 . S
C108 C112 1.432 . S
H109 C114 0.930 . S
N110 Tb72 2.600 . S
N110 C112 1.359 1_565 S
N110 C113 1.327 . S
C111 H97 0.931 . S
C111 C113 1.392 . S
C111 C114 1.370 1_565 S
C112 C108 1.432 . S
C112 N110 1.359 1_545 S
C112 C115 1.414 . S
C113 H95 0.930 . S
C113 N110 1.327 . S
C113 C111 1.392 . S
C114 H109 0.930 . S
C114 C111 1.370 1_545 S
C114 C115 1.385 . S
C115 C112 1.414 . S
C115 C114 1.385 . S
C115 C137 1.444 . S
O116 Tb72 2.546 . S
O116 C136 1.251 . S
O117 Tb72 2.610 1_655 S
O117 Tb83 2.362 1_565 S
O117 C128 1.283 . S
O118 Tb83 2.421 . S
O118 C135 1.262 . S
O119 Tb72 2.320 1_655 S
O119 C135 1.260 1_565 S
O120 Tb72 2.552 . S
O120 C128 1.243 1_455 S
O121 Tb72 2.413 . S
O121 C136 1.256 . S
O122 Tb83 2.546 . S
O122 C147 1.251 . S
O123 Tb72 2.362 1_545 S
O123 Tb83 2.610 1_455 S
O123 C139 1.283 . S
O124 Tb72 2.421 . S
O124 C146 1.262 1_565 S
O125 Tb83 2.320 1_455 S
O125 C146 1.260 . S
O126 Tb83 2.543 1_455 S
O126 C139 1.258 . S
O127 Tb83 2.413 . S
O127 C147 1.256 . S
C128 O117 1.283 . S
C128 O120 1.243 1_655 S
C129 C131 1.382 . S
C129 C133 1.393 . S
C129 C136 1.500 . S
C130 C131 1.400 . S
C130 C132 1.384 . S
C131 C129 1.382 . S
C131 C130 1.400 . S
C131 H148 0.930 . S
C132 C130 1.384 . S
C132 C134 1.392 . S
C132 H149 0.932 . S
C133 C129 1.393 . S
C133 C134 1.401 . S
C133 H150 0.930 . S
C134 C132 1.392 . S
C134 C133 1.401 . S
C134 H151 0.930 . S
C135 O118 1.262 . S
C135 O119 1.260 1_545 S
C136 Tb72 2.833 . S
C136 O116 1.251 . S
C136 O121 1.256 . S
C136 C129 1.500 . S
C137 H102 0.929 . S
C137 C115 1.444 . S
C137 C138 1.317 1_556 S
C138 H100 0.930 . S
C138 C106 1.432 1_554 S
C138 C137 1.317 1_554 S
C139 O123 1.283 . S
C139 O126 1.258 . S
C140 C141 1.382 . S
C140 C144 1.393 . S
C140 C147 1.500 . S
C141 C140 1.382 . S
C141 C142 1.400 . S
C141 H152 0.930 1_655 S
C142 C141 1.400 . S
C142 C143 1.384 . S
C143 C142 1.384 . S
C143 C145 1.392 . S
C143 H153 0.931 . S
C144 C140 1.393 . S
C144 C145 1.401 . S
C144 H154 0.930 . S
C145 C143 1.392 . S
C145 C144 1.401 . S
C145 H155 0.930 . S
C146 O124 1.262 1_545 S
C146 O125 1.260 . S
C147 Tb83 2.833 . S
C147 O122 1.251 . S
C147 O127 1.256 . S
C147 C140 1.500 . S
H148 C131 0.930 . S
H149 C132 0.932 . S
H150 C133 0.930 . S
H151 C134 0.930 . S
H152 C141 0.930 1_455 S
H153 C143 0.931 . S
H154 C144 0.930 . S
H155 C145 0.930 . S
Tb156 N187 2.660 . S
Tb156 N194 2.600 . S
Tb156 O200 2.546 . S
Tb156 O201 2.610 1_545 S
Tb156 O203 2.320 1_545 S
Tb156 O204 2.552 . S
Tb156 O205 2.413 . S
Tb156 O207 2.362 . S
Tb156 O208 2.421 . S
Tb156 C220 2.833 . S
C157 C160 1.432 . S
C157 C161 1.414 . S
C157 N164 1.359 . S
C158 C160 1.417 . S
C158 C162 1.432 . S
C158 C170 1.410 . S
C159 C161 1.444 . S
C159 C162 1.317 . S
C159 H182 0.929 . S
C160 C157 1.432 . S
C160 C158 1.417 . S
C160 N168 1.360 . S
C161 C157 1.414 . S
C161 C159 1.444 . S
C161 C166 1.385 . S
C162 C158 1.432 . S
C162 C159 1.317 . S
C162 H174 0.930 . S
C163 C165 1.392 . S
C163 C166 1.370 . S
C163 H175 0.931 . S
N164 C157 1.359 . S
N164 C165 1.327 . S
N164 Tb167 2.600 . S
C165 C163 1.392 . S
C165 N164 1.327 . S
C165 H172 0.930 . S
C166 C161 1.385 . S
C166 C163 1.370 . S
C166 H185 0.930 . S
Tb167 N164 2.600 . S
Tb167 N168 2.660 . S
Tb167 O201 2.362 . S
Tb167 O202 2.421 . S
Tb167 O206 2.546 . S
Tb167 O207 2.610 1_565 S
Tb167 O209 2.320 1_565 S
Tb167 O210 2.552 1_565 S
Tb167 O211 2.413 . S
Tb167 C231 2.833 . S
N168 C160 1.360 . S
N168 Tb167 2.660 . S
N168 C169 1.276 1_565 S
C169 N168 1.276 1_545 S
C169 C171 1.406 1_545 S
C169 H176 0.963 . S
C170 C158 1.410 . S
C170 C171 1.362 . S
C170 H178 0.930 . S
C171 C169 1.406 1_565 S
C171 C170 1.362 . S
C171 H173 0.914 1_565 S
H172 C165 0.930 . S
H173 C171 0.914 1_545 S
H174 C162 0.930 . S
H175 C163 0.931 . S
H176 C169 0.963 . S
H177 C191 0.930 1_564 S
H178 C170 0.930 . S
H179 C197 0.930 . S
H180 C188 0.930 1_565 S
H181 C195 0.931 . S
H182 C159 0.929 . S
H183 C189 0.930 . S
H184 C222 0.930 . S
H185 C166 0.930 . S
H186 C221 0.929 . S
N187 Tb156 2.660 . S
N187 C188 1.305 . S
N187 C192 1.360 . S
C188 H180 0.930 1_545 S
C188 N187 1.305 . S
C188 C191 1.407 . S
C189 H183 0.930 . S
C189 C190 1.410 1_554 S
C189 C191 1.345 1_554 S
C190 C189 1.410 1_556 S
C190 C192 1.417 . S
C190 C222 1.432 1_556 S
C191 H177 0.930 1_546 S
C191 C188 1.407 . S
C191 C189 1.345 1_556 S
C192 N187 1.360 . S
C192 C190 1.417 . S
C192 C196 1.432 . S
H193 C198 0.930 . S
N194 Tb156 2.600 . S
N194 C196 1.359 . S
N194 C197 1.327 . S
C195 H181 0.931 . S
C195 C197 1.392 . S
C195 C198 1.370 . S
C196 C192 1.432 . S
C196 N194 1.359 . S
C196 C199 1.414 . S
C197 H179 0.930 . S
C197 N194 1.327 . S
C197 C195 1.392 . S
C198 H193 0.930 . S
C198 C195 1.370 . S
C198 C199 1.385 . S
C199 C196 1.414 . S
C199 C198 1.385 . S
C199 C221 1.444 . S
O200 Tb156 2.546 . S
O200 C220 1.251 . S
O201 Tb156 2.610 1_565 S
O201 Tb167 2.362 . S
O201 C212 1.283 . S
O202 Tb167 2.421 . S
O202 C219 1.262 . S
O203 Tb156 2.320 1_565 S
O203 C219 1.260 . S
O204 Tb156 2.552 . S
O204 C212 1.243 1_545 S
O205 Tb156 2.413 . S
O205 C220 1.256 . S
O206 Tb167 2.546 . S
O206 C231 1.251 . S
O207 Tb156 2.362 . S
O207 Tb167 2.610 1_545 S
O207 C223 1.283 . S
O208 Tb156 2.421 . S
O208 C230 1.262 . S
O209 Tb167 2.320 1_545 S
O209 C230 1.260 . S
O210 Tb167 2.552 1_545 S
O210 C223 1.243 . S
O211 Tb167 2.413 . S
O211 C231 1.256 . S
C212 O201 1.283 . S
C212 O204 1.243 1_565 S
C213 C215 1.382 . S
C213 C217 1.393 . S
C213 C220 1.500 . S
C214 C215 1.400 . S
C214 C216 1.384 . S
C215 C213 1.382 . S
C215 C214 1.400 . S
C215 H232 0.930 . S
C216 C214 1.384 . S
C216 C218 1.392 . S
C216 H233 0.931 1_556 S
C217 C213 1.393 . S
C217 C218 1.401 . S
C217 H234 0.930 . S
C218 C216 1.392 . S
C218 C217 1.401 . S
C218 H235 0.930 . S
C219 O202 1.262 . S
C219 O203 1.260 . S
C220 Tb156 2.833 . S
C220 O200 1.251 . S
C220 O205 1.256 . S
C220 C213 1.500 . S
C221 H186 0.929 . S
C221 C199 1.444 . S
C221 C222 1.317 1_556 S
C222 H184 0.930 . S
C222 C190 1.432 1_554 S
C222 C221 1.317 1_554 S
C223 O207 1.283 . S
C223 O210 1.243 . S
C224 C225 1.382 . S
C224 C228 1.393 . S
C224 C231 1.500 . S
C225 C224 1.382 . S
C225 C226 1.400 . S
C225 H236 0.930 1_565 S
C226 C225 1.400 . S
C226 C227 1.384 . S
C227 C226 1.384 . S
C227 C229 1.392 . S
C227 H237 0.931 . S
C228 C224 1.393 . S
C228 C229 1.401 . S
C228 H238 0.930 . S
C229 C227 1.392 . S
C229 C228 1.401 . S
C229 H239 0.930 . S
C230 O208 1.262 . S
C230 O209 1.260 . S
C231 Tb167 2.833 . S
C231 O206 1.251 . S
C231 O211 1.256 . S
C231 C224 1.500 . S
H232 C215 0.930 . S
H233 C216 0.931 1_554 S
H234 C217 0.930 . S
H235 C218 0.930 . S
H236 C225 0.930 1_545 S
H237 C227 0.931 . S
H238 C228 0.930 . S
H239 C229 0.930 . S
Tb240 N271 2.660 . S
Tb240 N278 2.600 . S
Tb240 O284 2.546 . S
Tb240 O285 2.610 . S
Tb240 O287 2.320 . S
Tb240 O288 2.552 . S
Tb240 O289 2.413 . S
Tb240 O291 2.362 . S
Tb240 O292 2.421 . S
Tb240 C304 2.833 . S
C241 C244 1.432 . S
C241 C245 1.414 . S
C241 N248 1.359 . S
C242 C244 1.417 . S
C242 C246 1.432 . S
C242 C254 1.410 . S
C243 C245 1.444 . S
C243 C246 1.317 . S
C243 H266 0.929 . S
C244 C241 1.432 . S
C244 C242 1.417 . S
C244 N252 1.360 . S
C245 C241 1.414 . S
C245 C243 1.444 . S
C245 C250 1.385 . S
C246 C242 1.432 . S
C246 C243 1.317 . S
C246 H258 0.930 . S
C247 C249 1.392 . S
C247 C250 1.370 . S
C247 H259 0.931 . S
N248 C241 1.359 . S
N248 C249 1.327 . S
N248 Tb251 2.600 . S
C249 C247 1.392 . S
C249 N248 1.327 . S
C249 H256 0.930 . S
C250 C245 1.385 . S
C250 C247 1.370 . S
C250 H269 0.930 . S
Tb251 N248 2.600 . S
Tb251 N252 2.660 . S
Tb251 O285 2.362 . S
Tb251 O286 2.421 . S
Tb251 O290 2.546 . S
Tb251 O291 2.610 . S
Tb251 O293 2.320 . S
Tb251 O294 2.552 . S
Tb251 O295 2.413 . S
Tb251 C315 2.833 . S
N252 C244 1.360 . S
N252 Tb251 2.660 . S
N252 C253 1.305 . S
C253 N252 1.305 . S
C253 C255 1.407 . S
C253 H260 0.930 . S
C254 C242 1.410 . S
C254 C255 1.345 . S
C254 H262 0.930 . S
C255 C253 1.407 . S
C255 C254 1.345 . S
C255 H257 0.930 . S
H256 C249 0.930 . S
H257 C255 0.930 . S
H258 C246 0.930 . S
H259 C247 0.931 . S
H260 C253 0.930 . S
H261 C275 0.930 . S
H262 C254 0.930 . S
H263 C281 0.930 . S
H264 C272 0.930 . S
H265 C279 0.931 . S
H266 C243 0.929 . S
H267 C273 0.930 . S
H268 C306 0.930 . S
H269 C250 0.930 . S
H270 C305 0.929 . S
N271 Tb240 2.660 . S
N271 C272 1.305 . S
N271 C276 1.360 . S
C272 H264 0.930 . S
C272 N271 1.305 . S
C272 C275 1.407 . S
C273 H267 0.930 . S
C273 C274 1.410 . S
C273 C275 1.345 . S
C274 C273 1.410 . S
C274 C276 1.417 . S
C274 C306 1.432 . S
C275 H261 0.930 . S
C275 C272 1.407 . S
C275 C273 1.345 . S
C276 N271 1.360 . S
C276 C274 1.417 . S
C276 C280 1.432 . S
H277 C282 0.930 . S
N278 Tb240 2.600 . S
N278 C280 1.359 . S
N278 C281 1.327 . S
C279 H265 0.931 . S
C279 C281 1.392 . S
C279 C282 1.370 . S
C280 C276 1.432 . S
C280 N278 1.359 . S
C280 C283 1.414 . S
C281 H263 0.930 . S
C281 N278 1.327 . S
C281 C279 1.392 . S
C282 H277 0.930 . S
C282 C279 1.370 . S
C282 C283 1.385 . S
C283 C280 1.414 . S
C283 C282 1.385 . S
C283 C305 1.444 . S
O284 Tb240 2.546 . S
O284 C304 1.251 . S
O285 Tb240 2.610 . S
O285 Tb251 2.362 . S
O285 C296 1.283 . S
O286 Tb251 2.421 . S
O286 C303 1.262 . S
O287 Tb240 2.320 . S
O287 C303 1.260 . S
O288 Tb240 2.552 . S
O288 C296 1.243 . S
O289 Tb240 2.413 . S
O289 C304 1.256 . S
O290 Tb251 2.546 . S
O290 C315 1.251 . S
O291 Tb240 2.362 . S
O291 Tb251 2.610 . S
O291 C307 1.283 . S
O292 Tb240 2.421 . S
O292 C314 1.262 . S
O293 Tb251 2.320 . S
O293 C314 1.260 . S
O294 Tb251 2.552 . S
O294 C307 1.243 . S
O295 Tb251 2.413 . S
O295 C315 1.256 . S
C296 O285 1.283 . S
C296 O288 1.243 . S
C297 C299 1.382 . S
C297 C301 1.393 . S
C297 C304 1.500 . S
C298 C299 1.400 . S
C298 C300 1.384 . S
C299 C297 1.382 . S
C299 C298 1.400 . S
C299 H316 0.930 . S
C300 C298 1.384 . S
C300 C302 1.392 . S
C300 H317 0.931 . S
C301 C297 1.393 . S
C301 C302 1.401 . S
C301 H318 0.930 . S
C302 C300 1.392 . S
C302 C301 1.401 . S
C302 H319 0.930 . S
C303 O286 1.262 . S
C303 O287 1.260 . S
C304 Tb240 2.833 . S
C304 O284 1.251 . S
C304 O289 1.256 . S
C304 C297 1.500 . S
C305 H270 0.929 . S
C305 C283 1.444 . S
C305 C306 1.317 . S
C306 H268 0.930 . S
C306 C274 1.432 . S
C306 C305 1.317 . S
C307 O291 1.283 . S
C307 O294 1.243 . S
C308 C309 1.382 . S
C308 C312 1.393 1_556 S
C308 C315 1.500 . S
C309 C308 1.382 . S
C309 C310 1.400 . S
C309 H320 0.930 . S
C310 C309 1.400 . S
C310 C311 1.384 1_556 S
C311 C310 1.384 1_554 S
C311 C313 1.392 . S
C311 H321 0.931 . S
C312 C308 1.393 1_554 S
C312 C313 1.401 . S
C312 H322 0.930 . S
C313 C311 1.392 . S
C313 C312 1.401 . S
C313 H323 0.930 . S
C314 O292 1.262 . S
C314 O293 1.260 . S
C315 Tb251 2.833 . S
C315 O290 1.251 . S
C315 O295 1.256 . S
C315 C308 1.500 . S
H316 C299 0.930 . S
H317 C300 0.931 . S
H318 C301 0.930 . S
H319 C302 0.930 . S
H320 C309 0.930 . S
H321 C311 0.931 . S
H322 C312 0.930 . S
H323 C313 0.930 . S
Tb324 N355 2.660 . S
Tb324 N362 2.600 . S
Tb324 O368 2.546 . S
Tb324 O369 2.610 . S
Tb324 O371 2.320 . S
Tb324 O372 2.552 . S
Tb324 O373 2.413 . S
Tb324 O375 2.348 1_455 S
Tb324 O376 2.421 1_455 S
Tb324 C388 2.833 . S
C325 C328 1.432 . S
C325 C329 1.414 . S
C325 N332 1.359 . S
C326 C328 1.417 . S
C326 C330 1.432 . S
C326 C338 1.410 . S
C327 C329 1.444 . S
C327 C330 1.317 . S
C327 H350 0.929 . S
C328 C325 1.432 . S
C328 C326 1.417 . S
C328 N336 1.360 . S
C329 C325 1.414 . S
C329 C327 1.444 . S
C329 C334 1.365 1_655 S
C330 C326 1.432 . S
C330 C327 1.317 . S
C330 H342 0.930 . S
C331 C333 1.392 . S
C331 C334 1.386 . S
C331 H343 0.931 . S
N332 C325 1.359 . S
N332 C333 1.327 1_655 S
N332 Tb335 2.600 . S
C333 C331 1.392 . S
C333 N332 1.327 1_455 S
C333 H340 0.930 . S
C334 C329 1.365 1_455 S
C334 C331 1.386 . S
C334 H353 0.935 . S
Tb335 N332 2.600 . S
Tb335 N336 2.660 . S
Tb335 O369 2.362 1_655 S
Tb335 O370 2.421 1_655 S
Tb335 O374 2.546 . S
Tb335 O375 2.618 . S
Tb335 O377 2.320 . S
Tb335 O378 2.552 . S
Tb335 O379 2.413 . S
Tb335 C399 2.833 . S
N336 C328 1.360 . S
N336 Tb335 2.660 . S
N336 C337 1.305 . S
C337 N336 1.305 . S
C337 C339 1.407 . S
C337 H344 0.930 . S
C338 C326 1.410 . S
C338 C339 1.345 . S
C338 H346 0.930 . S
C339 C337 1.407 . S
C339 C338 1.345 . S
C339 H341 0.930 . S
H340 C333 0.930 . S
H341 C339 0.930 . S
H342 C330 0.930 . S
H343 C331 0.931 . S
H344 C337 0.930 . S
H345 C359 0.930 . S
H346 C338 0.930 . S
H347 C365 0.930 . S
H348 C356 0.930 . S
H349 C363 0.931 . S
H350 C327 0.929 . S
H351 C357 0.930 . S
H352 C390 0.930 . S
H353 C334 0.935 . S
H354 C389 0.929 . S
N355 Tb324 2.660 . S
N355 C356 1.305 . S
N355 C360 1.360 . S
C356 H348 0.930 . S
C356 N355 1.305 . S
C356 C359 1.407 . S
C357 H351 0.930 . S
C357 C358 1.410 . S
C357 C359 1.345 . S
C358 C357 1.410 . S
C358 C360 1.417 . S
C358 C390 1.432 . S
C359 H345 0.930 . S
C359 C356 1.407 . S
C359 C357 1.345 . S
C360 N355 1.360 . S
C360 C358 1.417 . S
C360 C364 1.432 . S
H361 C366 0.930 . S
N362 Tb324 2.600 . S
N362 C364 1.359 . S
N362 C365 1.327 1_455 S
C363 H349 0.931 . S
C363 C365 1.392 . S
C363 C366 1.370 1_655 S
C364 C360 1.432 . S
C364 N362 1.359 . S
C364 C367 1.414 . S
C365 H347 0.930 . S
C365 N362 1.327 1_655 S
C365 C363 1.392 . S
C366 H361 0.930 . S
C366 C363 1.370 1_455 S
C366 C367 1.385 . S
C367 C364 1.414 . S
C367 C366 1.385 . S
C367 C389 1.444 . S
O368 Tb324 2.546 . S
O368 C388 1.251 . S
O369 Tb324 2.610 . S
O369 Tb335 2.362 1_455 S
O369 C380 1.283 . S
O370 Tb335 2.421 1_455 S
O370 C387 1.262 . S
O371 Tb324 2.320 . S
O371 C387 1.260 . S
O372 Tb324 2.552 . S
O372 C380 1.243 . S
O373 Tb324 2.413 . S
O373 C388 1.256 . S
O374 Tb335 2.546 . S
O374 C399 1.251 . S
O375 Tb324 2.348 1_655 S
O375 Tb335 2.618 . S
O375 C391 1.293 . S
O376 Tb324 2.421 1_655 S
O376 C398 1.262 . S
O377 Tb335 2.320 . S
O377 C398 1.260 . S
O378 Tb335 2.552 . S
O378 C391 1.243 . S
O379 Tb335 2.413 . S
O379 C399 1.256 . S
C380 O369 1.283 . S
C380 O372 1.243 . S
C381 C383 1.382 . S
C381 C385 1.393 . S
C381 C388 1.500 . S
C382 C383 1.400 . S
C382 C384 1.384 . S
C383 C381 1.382 . S
C383 C382 1.400 . S
C383 H400 0.930 . S
C384 C382 1.384 . S
C384 C386 1.392 . S
C384 H401 0.931 . S
C385 C381 1.393 . S
C385 C386 1.401 . S
C385 H402 0.930 . S
C386 C384 1.392 . S
C386 C385 1.401 . S
C386 H403 0.930 . S
C387 O370 1.262 . S
C387 O371 1.260 . S
C388 Tb324 2.833 . S
C388 O368 1.251 . S
C388 O373 1.256 . S
C388 C381 1.500 . S
C389 H354 0.929 . S
C389 C367 1.444 . S
C389 C390 1.317 . S
C390 H352 0.930 . S
C390 C358 1.432 . S
C390 C389 1.317 . S
C391 O375 1.293 . S
C391 O378 1.243 . S
C392 C393 1.382 . S
C392 C396 1.393 1_556 S
C392 C399 1.500 . S
C393 C392 1.382 . S
C393 C394 1.400 . S
C393 H404 0.930 . S
C394 C393 1.400 . S
C394 C395 1.384 1_556 S
C395 C394 1.384 1_554 S
C395 C397 1.392 . S
C395 H405 0.931 . S
C396 C392 1.393 1_554 S
C396 C397 1.401 . S
C396 H406 0.930 . S
C397 C395 1.392 . S
C397 C396 1.401 . S
C397 H407 0.930 . S
C398 O376 1.262 . S
C398 O377 1.260 . S
C399 Tb335 2.833 . S
C399 O374 1.251 . S
C399 O379 1.256 . S
C399 C392 1.500 . S
H400 C383 0.930 . S
H401 C384 0.931 . S
H402 C385 0.930 . S
H403 C386 0.930 . S
H404 C393 0.930 . S
H405 C395 0.931 . S
H406 C396 0.930 . S
H407 C397 0.930 . S
H408 C416 0.950 . S
H409 C421 0.950 . S
H410 C418 0.950 . S
H411 C420 0.950 . S
H412 C422 0.950 . S
H413 C424 0.950 . S
H414 C426 0.950 . S
H415 C427 0.950 . S
C416 H408 0.950 . S
C416 C417 1.386 . S
C416 C418 1.391 . S
C417 C416 1.386 . S
C417 C421 1.393 . S
C418 H410 0.950 . S
C418 C416 1.391 . S
C418 C419 1.400 . S
C419 C418 1.400 . S
C419 C420 1.398 . S
C419 C425 1.491 . S
C420 H411 0.950 . S
C420 C419 1.398 . S
C420 C421 1.391 . S
C421 H409 0.950 . S
C421 C417 1.393 . S
C421 C420 1.391 . S
C422 H412 0.950 . S
C422 C423 1.386 . S
C422 C424 1.391 . S
C423 C422 1.386 . S
C423 C427 1.393 . S
C424 H413 0.950 . S
C424 C422 1.391 . S
C424 C425 1.400 . S
C425 C419 1.491 . S
C425 C424 1.400 . S
C425 C426 1.398 . S
C426 H414 0.950 . S
C426 C425 1.398 . S
C426 C427 1.391 . S
C427 H415 0.950 . S
C427 C423 1.393 . S
C427 C426 1.391 . S
H428 C436 0.950 . S
H429 C441 0.950 . S
H430 C438 0.950 . S
H431 C440 0.950 . S
H432 C442 0.950 . S
H433 C444 0.950 . S
H434 C446 0.950 . S
H435 C447 0.950 . S
C436 H428 0.950 . S
C436 C437 1.386 . S
C436 C438 1.391 . S
C437 C436 1.386 . S
C437 C441 1.393 . S
C438 H430 0.950 . S
C438 C436 1.391 . S
C438 C439 1.400 . S
C439 C438 1.400 . S
C439 C440 1.398 . S
C439 C445 1.491 . S
C440 H431 0.950 . S
C440 C439 1.398 . S
C440 C441 1.391 . S
C441 H429 0.950 . S
C441 C437 1.393 . S
C441 C440 1.391 . S
C442 H432 0.950 . S
C442 C443 1.386 . S
C442 C444 1.391 . S
C443 C442 1.386 . S
C443 C447 1.393 . S
C444 H433 0.950 . S
C444 C442 1.391 . S
C444 C445 1.400 . S
C445 C439 1.491 . S
C445 C444 1.400 . S
C445 C446 1.398 . S
C446 H434 0.950 . S
C446 C445 1.398 . S
C446 C447 1.391 . S
C447 H435 0.950 . S
C447 C443 1.393 . S
C447 C446 1.391 . S
H448 C456 0.950 . S
H449 C461 0.950 . S
H450 C458 0.950 . S
H451 C460 0.950 . S
H452 C462 0.950 . S
H453 C464 0.950 . S
H454 C466 0.950 . S
H455 C467 0.950 . S
C456 H448 0.950 . S
C456 C457 1.386 . S
C456 C458 1.391 . S
C457 C456 1.386 . S
C457 C461 1.393 . S
C458 H450 0.950 . S
C458 C456 1.391 . S
C458 C459 1.400 . S
C459 C458 1.400 . S
C459 C460 1.398 . S
C459 C465 1.491 . S
C460 H451 0.950 . S
C460 C459 1.398 . S
C460 C461 1.391 . S
C461 H449 0.950 . S
C461 C457 1.393 . S
C461 C460 1.391 . S
C462 H452 0.950 . S
C462 C463 1.386 . S
C462 C464 1.391 . S
C463 C462 1.386 . S
C463 C467 1.393 . S
C464 H453 0.950 . S
C464 C462 1.391 . S
C464 C465 1.400 . S
C465 C459 1.491 . S
C465 C464 1.400 . S
C465 C466 1.398 . S
C466 H454 0.950 . S
C466 C465 1.398 . S
C466 C467 1.391 . S
C467 H455 0.950 . S
C467 C463 1.393 . S
C467 C466 1.391 . S
H468 C476 0.950 . S
H469 C481 0.950 . S
H470 C478 0.950 . S
H471 C480 0.950 . S
H472 C482 0.950 . S
H473 C484 0.950 . S
H474 C486 0.950 . S
H475 C487 0.950 . S
C476 H468 0.950 . S
C476 C477 1.386 . S
C476 C478 1.391 . S
C477 C476 1.386 . S
C477 C481 1.393 . S
C478 H470 0.950 . S
C478 C476 1.391 . S
C478 C479 1.400 . S
C479 C478 1.400 . S
C479 C480 1.398 . S
C479 C485 1.491 . S
C480 H471 0.950 . S
C480 C479 1.398 . S
C480 C481 1.391 . S
C481 H469 0.950 . S
C481 C477 1.393 . S
C481 C480 1.391 . S
C482 H472 0.950 . S
C482 C483 1.386 . S
C482 C484 1.391 . S
C483 C482 1.386 . S
C483 C487 1.393 . S
C484 H473 0.950 . S
C484 C482 1.391 . S
C484 C485 1.400 . S
C485 C479 1.491 . S
C485 C484 1.400 . S
C485 C486 1.398 . S
C486 H474 0.950 . S
C486 C485 1.398 . S
C486 C487 1.391 . S
C487 H475 0.950 . S
C487 C483 1.393 . S
C487 C486 1.391 . S
H488 C496 0.950 . S
H489 C501 0.950 . S
H490 C498 0.950 . S
H491 C500 0.950 . S
H492 C502 0.950 . S
H493 C504 0.947 1_554 S
H494 C506 0.950 1_545 S
H495 C507 0.950 . S
C496 H488 0.950 . S
C496 C497 1.386 . S
C496 C498 1.391 . S
C497 C496 1.386 . S
C497 C501 1.393 . S
C498 H490 0.950 . S
C498 C496 1.391 . S
C498 C499 1.400 . S
C499 C498 1.400 . S
C499 C500 1.398 . S
C499 C505 1.491 1_554 S
C500 H491 0.950 . S
C500 C499 1.398 . S
C500 C501 1.391 . S
C501 H489 0.950 . S
C501 C497 1.393 . S
C501 C500 1.391 . S
C502 H492 0.950 . S
C502 C503 1.386 . S
C502 C504 1.391 . S
C503 C502 1.386 . S
C503 C507 1.393 1_565 S
C504 H493 0.947 1_556 S
C504 C502 1.391 . S
C504 C505 1.400 . S
C505 C499 1.491 1_556 S
C505 C504 1.400 . S
C505 C506 1.398 . S
C506 H494 0.950 1_565 S
C506 C505 1.398 . S
C506 C507 1.391 1_565 S
C507 H495 0.950 . S
C507 C503 1.393 1_545 S
C507 C506 1.391 1_545 S
H508 C516 0.950 . S
H509 C521 0.950 . S
H510 C518 0.950 . S
H511 C520 0.950 . S
H512 C522 0.950 . S
H513 C524 0.950 1_554 S
H514 C526 0.950 . S
H515 C527 0.950 . S
C516 H508 0.950 . S
C516 C517 1.386 . S
C516 C518 1.391 . S
C517 C516 1.386 . S
C517 C521 1.393 . S
C518 H510 0.950 . S
C518 C516 1.391 . S
C518 C519 1.400 . S
C519 C518 1.400 . S
C519 C520 1.398 . S
C519 C525 1.491 1_554 S
C520 H511 0.950 . S
C520 C519 1.398 . S
C520 C521 1.391 . S
C521 H509 0.950 . S
C521 C517 1.393 . S
C521 C520 1.391 . S
C522 H512 0.950 . S
C522 C523 1.386 . S
C522 C524 1.391 . S
C523 C522 1.386 . S
C523 C527 1.393 . S
C524 H513 0.950 1_556 S
C524 C522 1.391 . S
C524 C525 1.400 . S
C525 C519 1.491 1_556 S
C525 C524 1.400 . S
C525 C526 1.398 . S
C526 H514 0.950 . S
C526 C525 1.398 . S
C526 C527 1.391 . S
C527 H515 0.950 . S
C527 C523 1.393 . S
C527 C526 1.391 . S
H528 C536 0.950 . S
H529 C541 0.950 . S
H530 C538 0.950 . S
H531 C540 0.950 . S
H532 C542 0.950 . S
H533 C544 0.950 1_554 S
H534 C546 0.950 . S
H535 C547 0.950 . S
C536 H528 0.950 . S
C536 C537 1.386 . S
C536 C538 1.391 . S
C537 C536 1.386 . S
C537 C541 1.393 . S
C538 H530 0.950 . S
C538 C536 1.391 . S
C538 C539 1.400 . S
C539 C538 1.400 . S
C539 C540 1.398 . S
C539 C545 1.491 1_554 S
C540 H531 0.950 . S
C540 C539 1.398 . S
C540 C541 1.391 . S
C541 H529 0.950 . S
C541 C537 1.393 . S
C541 C540 1.391 . S
C542 H532 0.950 . S
C542 C543 1.386 . S
C542 C544 1.391 . S
C543 C542 1.386 . S
C543 C547 1.393 . S
C544 H533 0.950 1_556 S
C544 C542 1.391 . S
C544 C545 1.400 . S
C545 C539 1.491 1_556 S
C545 C544 1.400 . S
C545 C546 1.398 . S
C546 H534 0.950 . S
C546 C545 1.398 . S
C546 C547 1.391 . S
C547 H535 0.950 . S
C547 C543 1.393 . S
C547 C546 1.391 . S
H548 C556 0.950 . S
H549 C561 0.950 . S
H550 C558 0.950 1_455 S
H551 C560 0.950 . S
H552 C562 0.950 . S
H553 C564 0.950 . S
H554 C566 0.950 1_455 S
H555 C567 0.950 . S
C556 H548 0.950 . S
C556 C557 1.386 . S
C556 C558 1.391 . S
C557 C556 1.386 . S
C557 C561 1.393 . S
C558 H550 0.950 1_655 S
C558 C556 1.391 . S
C558 C559 1.400 . S
C559 C558 1.400 . S
C559 C560 1.398 . S
C559 C565 1.491 1_554 S
C560 H551 0.950 . S
C560 C559 1.398 . S
C560 C561 1.391 . S
C561 H549 0.950 . S
C561 C557 1.393 . S
C561 C560 1.391 . S
C562 H552 0.950 . S
C562 C563 1.386 . S
C562 C564 1.391 . S
C563 C562 1.386 . S
C563 C567 1.393 1_655 S
C564 H553 0.950 . S
C564 C562 1.391 . S
C564 C565 1.400 . S
C565 C559 1.491 1_556 S
C565 C564 1.400 . S
C565 C566 1.398 . S
C566 H554 0.950 1_655 S
C566 C565 1.398 . S
C566 C567 1.391 1_655 S
C567 H555 0.950 . S
C567 C563 1.393 1_455 S
C567 C566 1.391 1_455 S
H568 C576 0.950 . S
H569 C581 0.950 . S
H570 C578 0.950 . S
H571 C580 0.950 . S
H572 C582 0.950 . S
H573 C584 0.950 . S
H574 C586 0.950 . S
H575 C587 0.950 . S
C576 H568 0.950 . S
C576 C577 1.386 . S
C576 C578 1.391 . S
C577 C576 1.386 . S
C577 C581 1.393 . S
C578 H570 0.950 . S
C578 C576 1.391 . S
C578 C579 1.400 . S
C579 C578 1.400 . S
C579 C580 1.398 . S
C579 C585 1.491 . S
C580 H571 0.950 . S
C580 C579 1.398 . S
C580 C581 1.391 . S
C581 H569 0.950 . S
C581 C577 1.393 . S
C581 C580 1.391 . S
C582 H572 0.950 . S
C582 C583 1.386 . S
C582 C584 1.391 1_655 S
C583 C582 1.386 . S
C583 C587 1.393 1_655 S
C584 H573 0.950 . S
C584 C582 1.391 1_455 S
C584 C585 1.400 . S
C585 C579 1.491 . S
C585 C584 1.400 . S
C585 C586 1.398 . S
C586 H574 0.950 . S
C586 C585 1.398 . S
C586 C587 1.391 . S
C587 H575 0.950 . S
C587 C583 1.393 1_455 S
C587 C586 1.391 . S
H588 C596 0.950 . S
H589 C601 0.950 . S
H590 C598 0.950 . S
H591 C600 0.950 . S
H592 C602 0.950 . S
H593 C604 0.950 . S
H594 C606 0.950 . S
H595 C607 0.950 . S
C596 H588 0.950 . S
C596 C597 1.386 . S
C596 C598 1.391 . S
C597 C596 1.386 . S
C597 C601 1.393 . S
C598 H590 0.950 . S
C598 C596 1.391 . S
C598 C599 1.400 . S
C599 C598 1.400 . S
C599 C600 1.398 . S
C599 C605 1.491 . S
C600 H591 0.950 . S
C600 C599 1.398 . S
C600 C601 1.391 . S
C601 H589 0.950 . S
C601 C597 1.393 . S
C601 C600 1.391 . S
C602 H592 0.950 . S
C602 C603 1.386 1_545 S
C602 C604 1.391 . S
C603 C602 1.386 1_565 S
C603 C607 1.393 . S
C604 H593 0.950 . S
C604 C602 1.391 . S
C604 C605 1.400 . S
C605 C599 1.491 . S
C605 C604 1.400 . S
C605 C606 1.398 . S
C606 H594 0.950 . S
C606 C605 1.398 . S
C606 C607 1.391 1_545 S
C607 H595 0.950 . S
C607 C603 1.393 . S
C607 C606 1.391 1_565 S
H608 C616 0.950 . S
H609 C621 0.950 . S
H610 C618 0.950 . S
H611 C620 0.950 . S
H612 C622 0.950 . S
H613 C624 0.950 . S
H614 C626 0.950 . S
H615 C627 0.950 . S
C616 H608 0.950 . S
C616 C617 1.386 . S
C616 C618 1.391 . S
C617 C616 1.386 . S
C617 C621 1.393 . S
C618 H610 0.950 . S
C618 C616 1.391 . S
C618 C619 1.400 . S
C619 C618 1.400 . S
C619 C620 1.398 . S
C619 C625 1.491 . S
C620 H611 0.950 . S
C620 C619 1.398 . S
C620 C621 1.391 . S
C621 H609 0.950 . S
C621 C617 1.393 . S
C621 C620 1.391 . S
C622 H612 0.950 . S
C622 C623 1.386 . S
C622 C624 1.391 . S
C623 C622 1.386 . S
C623 C627 1.393 . S
C624 H613 0.950 . S
C624 C622 1.391 . S
C624 C625 1.400 . S
C625 C619 1.491 . S
C625 C624 1.400 . S
C625 C626 1.398 . S
C626 H614 0.950 . S
C626 C625 1.398 . S
C626 C627 1.391 . S
C627 H615 0.950 . S
C627 C623 1.393 . S
C627 C626 1.391 . S
H628 C636 0.950 . S
H629 C641 0.950 . S
H630 C638 0.950 . S
H631 C640 0.950 . S
H632 C642 0.950 . S
H633 C644 0.950 . S
H634 C646 0.950 . S
H635 C647 0.950 . S
C636 H628 0.950 . S
C636 C637 1.386 . S
C636 C638 1.391 . S
C637 C636 1.386 . S
C637 C641 1.393 . S
C638 H630 0.950 . S
C638 C636 1.391 . S
C638 C639 1.400 . S
C639 C638 1.400 . S
C639 C640 1.398 . S
C639 C645 1.491 . S
C640 H631 0.950 . S
C640 C639 1.398 . S
C640 C641 1.391 . S
C641 H629 0.950 . S
C641 C637 1.393 . S
C641 C640 1.391 . S
C642 H632 0.950 . S
C642 C643 1.386 . S
C642 C644 1.391 . S
C643 C642 1.386 . S
C643 C647 1.393 . S
C644 H633 0.950 . S
C644 C642 1.391 . S
C644 C645 1.400 . S
C645 C639 1.491 . S
C645 C644 1.400 . S
C645 C646 1.398 . S
C646 H634 0.950 . S
C646 C645 1.398 . S
C646 C647 1.391 . S
C647 H635 0.950 . S
C647 C643 1.393 . S
C647 C646 1.391 . S
H648 C656 0.950 . S
H649 C661 0.950 . S
H650 C658 0.950 . S
H651 C660 0.950 . S
H652 C662 0.950 . S
H653 C664 0.950 . S
H654 C666 0.950 . S
H655 C667 0.950 . S
C656 H648 0.950 . S
C656 C657 1.386 . S
C656 C658 1.391 . S
C657 C656 1.386 . S
C657 C661 1.393 . S
C658 H650 0.950 . S
C658 C656 1.391 . S
C658 C659 1.400 . S
C659 C658 1.400 . S
C659 C660 1.398 . S
C659 C665 1.491 . S
C660 H651 0.950 . S
C660 C659 1.398 . S
C660 C661 1.391 . S
C661 H649 0.950 . S
C661 C657 1.393 . S
C661 C660 1.391 . S
C662 H652 0.950 . S
C662 C663 1.386 1_554 S
C662 C664 1.391 1_455 S
C663 C662 1.386 1_556 S
C663 C667 1.393 . S
C664 H653 0.950 . S
C664 C662 1.391 1_655 S
C664 C665 1.400 . S
C665 C659 1.491 . S
C665 C664 1.400 . S
C665 C666 1.389 1_654 S
C666 H654 0.950 . S
C666 C665 1.389 1_456 S
C666 C667 1.401 . S
C667 H655 0.950 . S
C667 C663 1.393 . S
C667 C666 1.401 . S
H668 C676 0.950 . S
H669 C681 0.950 . S
H670 C678 0.950 . S
H671 C680 0.950 . S
H672 C682 0.950 1_565 S
H673 C684 0.950 . S
H674 C686 0.950 1_556 S
H675 C687 0.950 . S
C676 H668 0.950 . S
C676 C677 1.386 . S
C676 C678 1.391 . S
C677 C676 1.386 . S
C677 C681 1.393 . S
C678 H670 0.950 . S
C678 C676 1.391 . S
C678 C679 1.400 . S
C679 C678 1.400 . S
C679 C680 1.398 . S
C679 C685 1.491 . S
C680 H671 0.950 . S
C680 C679 1.398 . S
C680 C681 1.391 . S
C681 H669 0.950 . S
C681 C677 1.393 . S
C681 C680 1.391 . S
C682 H672 0.950 1_545 S
C682 C683 1.386 1_554 S
C682 C684 1.391 1_545 S
C683 C682 1.386 1_556 S
C683 C687 1.393 . S
C684 H673 0.950 . S
C684 C682 1.391 1_565 S
C684 C685 1.400 . S
C685 C679 1.491 . S
C685 C684 1.400 . S
C685 C686 1.398 1_565 S
C686 H674 0.950 1_554 S
C686 C685 1.398 1_545 S
C686 C687 1.391 1_554 S
C687 H675 0.950 . S
C687 C683 1.393 . S
C687 C686 1.391 1_556 S
H688 C696 0.950 . S
H689 C701 0.950 . S
H690 C698 0.950 . S
H691 C700 0.950 . S
H692 C702 0.950 . S
H693 C704 0.950 . S
H694 C706 0.950 1_556 S
H695 C707 0.950 . S
C696 H688 0.950 . S
C696 C697 1.386 . S
C696 C698 1.391 . S
C697 C696 1.386 . S
C697 C701 1.393 . S
C698 H690 0.950 . S
C698 C696 1.391 . S
C698 C699 1.400 . S
C699 C698 1.400 . S
C699 C700 1.398 . S
C699 C705 1.491 . S
C700 H691 0.950 . S
C700 C699 1.398 . S
C700 C701 1.391 . S
C701 H689 0.950 . S
C701 C697 1.393 . S
C701 C700 1.391 . S
C702 H692 0.950 . S
C702 C703 1.386 1_554 S
C702 C704 1.391 . S
C703 C702 1.386 1_556 S
C703 C707 1.393 . S
C704 H693 0.950 . S
C704 C702 1.391 . S
C704 C705 1.400 . S
C705 C699 1.491 . S
C705 C704 1.400 . S
C705 C706 1.398 . S
C706 H694 0.950 1_554 S
C706 C705 1.398 . S
C706 C707 1.391 1_554 S
C707 H695 0.950 . S
C707 C703 1.393 . S
C707 C706 1.391 1_556 S
H708 C716 0.950 . S
H709 C721 0.950 . S
H710 C718 0.950 . S
H711 C720 0.950 . S
H712 C722 0.950 . S
H713 C724 0.950 . S
H714 C726 0.950 . S
H715 C727 0.950 . S
C716 H708 0.950 . S
C716 C717 1.386 . S
C716 C718 1.391 . S
C717 C716 1.386 . S
C717 C721 1.393 . S
C718 H710 0.950 . S
C718 C716 1.391 . S
C718 C719 1.400 . S
C719 C718 1.400 . S
C719 C720 1.398 . S
C719 C725 1.491 . S
C720 H711 0.950 . S
C720 C719 1.398 . S
C720 C721 1.391 . S
C721 H709 0.950 . S
C721 C717 1.393 . S
C721 C720 1.391 . S
C722 H712 0.950 . S
C722 C723 1.386 1_554 S
C722 C724 1.391 . S
C723 C722 1.386 1_556 S
C723 C727 1.393 . S
C724 H713 0.950 . S
C724 C722 1.391 . S
C724 C725 1.400 . S
C725 C719 1.491 . S
C725 C724 1.400 . S
C725 C726 1.398 . S
C726 H714 0.950 . S
C726 C725 1.398 . S
C726 C727 1.391 1_554 S
C727 H715 0.950 . S
C727 C723 1.393 . S
C727 C726 1.391 1_556 S
H728 C736 0.950 . S
H729 C741 0.950 . S
H730 C738 0.950 . S
H731 C740 0.950 . S
H732 C742 0.950 . S
H733 C744 0.950 . S
H734 C746 0.950 . S
H735 C747 0.950 . S
C736 H728 0.950 . S
C736 C737 1.386 . S
C736 C738 1.391 . S
C737 C736 1.386 . S
C737 C741 1.393 . S
C738 H730 0.950 . S
C738 C736 1.391 . S
C738 C739 1.400 . S
C739 C738 1.400 . S
C739 C740 1.398 . S
C739 C745 1.491 . S
C740 H731 0.950 . S
C740 C739 1.398 . S
C740 C741 1.391 . S
C741 H729 0.950 . S
C741 C737 1.393 . S
C741 C740 1.391 . S
C742 H732 0.950 . S
C742 C743 1.386 . S
C742 C744 1.391 . S
C743 C742 1.386 . S
C743 C747 1.393 . S
C744 H733 0.950 . S
C744 C742 1.391 . S
C744 C745 1.400 . S
C745 C739 1.491 . S
C745 C744 1.400 . S
C745 C746 1.398 . S
C746 H734 0.950 . S
C746 C745 1.398 . S
C746 C747 1.391 . S
C747 H735 0.950 . S
C747 C743 1.393 . S
C747 C746 1.391 . S
H748 C756 0.950 . S
H749 C761 0.950 . S
H750 C758 0.950 . S
H751 C760 0.950 . S
H752 C762 0.950 . S
H753 C764 0.950 . S
H754 C766 0.950 . S
H755 C767 0.950 . S
C756 H748 0.950 . S
C756 C757 1.386 . S
C756 C758 1.391 . S
C757 C756 1.386 . S
C757 C761 1.393 . S
C758 H750 0.950 . S
C758 C756 1.391 . S
C758 C759 1.400 . S
C759 C758 1.400 . S
C759 C760 1.398 . S
C759 C765 1.491 . S
C760 H751 0.950 . S
C760 C759 1.398 . S
C760 C761 1.391 . S
C761 H749 0.950 . S
C761 C757 1.393 . S
C761 C760 1.391 . S
C762 H752 0.950 . S
C762 C763 1.386 . S
C762 C764 1.391 . S
C763 C762 1.386 . S
C763 C767 1.393 . S
C764 H753 0.950 . S
C764 C762 1.391 . S
C764 C765 1.400 . S
C765 C759 1.491 . S
C765 C764 1.400 . S
C765 C766 1.398 . S
C766 H754 0.950 . S
C766 C765 1.398 . S
C766 C767 1.391 . S
C767 H755 0.950 . S
C767 C763 1.393 . S
C767 C766 1.391 . S
H768 C776 0.950 . S
H769 C781 0.950 . S
H770 C778 0.950 . S
H771 C780 0.950 . S
H772 C782 0.950 . S
H773 C784 0.950 . S
H774 C786 0.950 . S
H775 C787 0.950 . S
C776 H768 0.950 . S
C776 C777 1.386 . S
C776 C778 1.391 . S
C777 C776 1.386 . S
C777 C781 1.393 . S
C778 H770 0.950 . S
C778 C776 1.391 . S
C778 C779 1.400 . S
C779 C778 1.400 . S
C779 C780 1.398 . S
C779 C785 1.491 . S
C780 H771 0.950 . S
C780 C779 1.398 . S
C780 C781 1.391 . S
C781 H769 0.950 . S
C781 C777 1.393 . S
C781 C780 1.391 . S
C782 H772 0.950 . S
C782 C783 1.386 . S
C782 C784 1.391 . S
C783 C782 1.386 . S
C783 C787 1.393 . S
C784 H773 0.950 . S
C784 C782 1.391 . S
C784 C785 1.400 . S
C785 C779 1.491 . S
C785 C784 1.400 . S
C785 C786 1.398 . S
C786 H774 0.950 . S
C786 C785 1.398 . S
C786 C787 1.391 . S
C787 H775 0.950 . S
C787 C783 1.393 . S
C787 C786 1.391 . S
H788 C796 0.950 . S
H789 C801 0.950 . S
H790 C798 0.950 . S
H791 C800 0.950 . S
H792 C802 0.950 . S
H793 C804 0.950 . S
H794 C806 0.950 . S
H795 C807 0.950 . S
C796 H788 0.950 . S
C796 C797 1.386 . S
C796 C798 1.391 . S
C797 C796 1.386 . S
C797 C801 1.393 . S
C798 H790 0.950 . S
C798 C796 1.391 . S
C798 C799 1.400 . S
C799 C798 1.400 . S
C799 C800 1.398 . S
C799 C805 1.491 . S
C800 H791 0.950 . S
C800 C799 1.398 . S
C800 C801 1.391 . S
C801 H789 0.950 . S
C801 C797 1.393 . S
C801 C800 1.391 . S
C802 H792 0.950 . S
C802 C803 1.386 . S
C802 C804 1.391 . S
C803 C802 1.386 . S
C803 C807 1.393 . S
C804 H793 0.950 . S
C804 C802 1.391 . S
C804 C805 1.400 . S
C805 C799 1.491 . S
C805 C804 1.400 . S
C805 C806 1.398 . S
C806 H794 0.950 . S
C806 C805 1.398 . S
C806 C807 1.391 . S
C807 H795 0.950 . S
C807 C803 1.393 . S
C807 C806 1.391 . S
H808 C816 0.950 . S
H809 C821 0.950 . S
H810 C818 0.933 1_455 S
H811 C820 0.950 . S
H812 C822 0.950 . S
H813 C824 0.950 . S
H814 C826 0.950 1_455 S
H815 C827 0.950 1_455 S
C816 H808 0.950 . S
C816 C817 1.386 . S
C816 C818 1.391 . S
C817 C816 1.386 . S
C817 C821 1.393 . S
C818 H810 0.933 1_655 S
C818 C816 1.391 . S
C818 C819 1.400 . S
C819 C818 1.400 . S
C819 C820 1.398 . S
C819 C825 1.491 . S
C820 H811 0.950 . S
C820 C819 1.398 . S
C820 C821 1.391 . S
C821 H809 0.950 . S
C821 C817 1.393 . S
C821 C820 1.391 . S
C822 H812 0.950 . S
C822 C823 1.386 . S
C822 C824 1.391 . S
C823 C822 1.386 . S
C823 C827 1.393 . S
C824 H813 0.950 . S
C824 C822 1.391 . S
C824 C825 1.400 . S
C825 C819 1.491 . S
C825 C824 1.400 . S
C825 C826 1.398 . S
C826 H814 0.950 1_655 S
C826 C825 1.398 . S
C826 C827 1.391 . S
C827 H815 0.950 1_655 S
C827 C823 1.393 . S
C827 C826 1.391 . S
H828 C836 0.950 . S
H829 C841 0.950 . S
H830 C838 0.950 . S
H831 C840 0.950 . S
H832 C842 0.950 1_545 S
H833 C844 0.950 1_545 S
H834 C846 0.950 . S
H835 C847 0.950 . S
C836 H828 0.950 . S
C836 C837 1.386 . S
C836 C838 1.391 . S
C837 C836 1.386 . S
C837 C841 1.393 . S
C838 H830 0.950 . S
C838 C836 1.391 . S
C838 C839 1.400 . S
C839 C838 1.400 . S
C839 C840 1.398 . S
C839 C845 1.491 . S
C840 H831 0.950 . S
C840 C839 1.398 . S
C840 C841 1.391 . S
C841 H829 0.950 . S
C841 C837 1.393 . S
C841 C840 1.391 . S
C842 H832 0.950 1_565 S
C842 C843 1.386 . S
C842 C844 1.391 . S
C843 C842 1.386 . S
C843 C847 1.393 . S
C844 H833 0.950 1_565 S
C844 C842 1.391 . S
C844 C845 1.400 . S
C845 C839 1.491 . S
C845 C844 1.400 . S
C845 C846 1.398 . S
C846 H834 0.950 . S
C846 C845 1.398 . S
C846 C847 1.391 . S
C847 H835 0.950 . S
C847 C843 1.393 . S
C847 C846 1.391 . S
H848 C856 0.950 . S
H849 C861 0.950 . S
H850 C858 0.950 . S
H851 C860 0.950 . S
H852 C862 0.950 . S
H853 C864 0.950 . S
H854 C866 0.950 . S
H855 C867 0.950 . S
C856 H848 0.950 . S
C856 C857 1.386 . S
C856 C858 1.391 . S
C857 C856 1.386 . S
C857 C861 1.393 . S
C858 H850 0.950 . S
C858 C856 1.391 . S
C858 C859 1.400 . S
C859 C858 1.400 . S
C859 C860 1.398 . S
C859 C865 1.491 . S
C860 H851 0.950 . S
C860 C859 1.398 . S
C860 C861 1.391 . S
C861 H849 0.950 . S
C861 C857 1.393 . S
C861 C860 1.391 . S
C862 H852 0.950 . S
C862 C863 1.386 . S
C862 C864 1.391 . S
C863 C862 1.386 . S
C863 C867 1.393 . S
C864 H853 0.950 . S
C864 C862 1.391 . S
C864 C865 1.400 . S
C865 C859 1.491 . S
C865 C864 1.400 . S
C865 C866 1.398 . S
C866 H854 0.950 . S
C866 C865 1.398 . S
C866 C867 1.391 . S
C867 H855 0.950 . S
C867 C863 1.393 . S
C867 C866 1.391 . S
H868 C876 0.950 . S
H869 C881 0.950 . S
H870 C878 0.950 . S
H871 C880 0.950 . S
H872 C882 0.950 . S
H873 C884 0.950 . S
H874 C886 0.950 . S
H875 C887 0.950 . S
C876 H868 0.950 . S
C876 C877 1.386 . S
C876 C878 1.391 . S
C877 C876 1.386 . S
C877 C881 1.393 . S
C878 H870 0.950 . S
C878 C876 1.391 . S
C878 C879 1.400 . S
C879 C878 1.400 . S
C879 C880 1.398 . S
C879 C885 1.491 . S
C880 H871 0.950 . S
C880 C879 1.398 . S
C880 C881 1.391 . S
C881 H869 0.950 . S
C881 C877 1.393 . S
C881 C880 1.391 . S
C882 H872 0.950 . S
C882 C883 1.386 . S
C882 C884 1.391 . S
C883 C882 1.386 . S
C883 C887 1.393 . S
C884 H873 0.950 . S
C884 C882 1.391 . S
C884 C885 1.400 . S
C885 C879 1.491 . S
C885 C884 1.400 . S
C885 C886 1.398 . S
C886 H874 0.950 . S
C886 C885 1.398 . S
C886 C887 1.391 . S
C887 H875 0.950 . S
C887 C883 1.393 . S
C887 C886 1.391 . S
C417 C61 1.827 . S
C423 C146 1.883 . S
C443 C230 1.915 . S
C437 C70 1.874 . S
C463 C296 1.882 . S
C457 C43 1.946 . S
C483 C380 1.866 . S
C477 C52 1.928 . S
C503 C135 1.904 1_565 S
C497 C25 1.843 . S
C517 C34 1.860 . S
C523 C219 1.919 . S
C537 C7 1.944 . S
C543 C307 1.877 . S
C557 C16 1.944 . S
C563 C391 1.879 . S
C583 C142 0.613 . S
C577 C50 0.568 . S
C603 C226 0.588 . S
C597 C59 0.537 . S
C623 C298 0.499 . S
C617 C67 0.541 . S
C637 C41 0.563 . S
C643 C382 0.530 . S
C657 C14 0.620 . S
C663 C130 0.560 . S
C683 C214 0.532 . S
C677 C23 0.590 . S
C703 C310 0.514 . S
C697 C31 0.556 . S
C717 C5 0.575 . S
C723 C394 0.524 . S
C737 C49 1.992 . S
C743 C139 2.057 . S
C757 C58 1.958 . S
C763 C223 2.048 . S
C783 C303 2.017 . S
C777 C68 1.869 . S
C803 C387 2.053 . S
C797 C40 1.863 . S
C817 C13 1.970 . S
C823 C128 2.055 . S
C843 C212 2.037 . S
C837 C22 1.970 . S
C863 C314 2.015 . S
C857 C32 1.863 . S
C877 C4 1.891 . S
C883 C398 2.039 . S
