# Generated by pormake.
# Topology pth, (4,4)-cn, num edge types: 1
# Building blocks:
#     Node 0, Type 0, BuildingBlock: TATPOV_clean_sbu_0, # of connection points: 4
#     Node 1, Type 0, BuildingBlock: TATPOV_clean_sbu_0, # of connection points: 4
#     Node 2, Type 0, BuildingBlock: TATPOV_clean_sbu_0, # of connection points: 4
#     Node 3, Type 1, BuildingBlock: MIFKUJ_clean_linker_1, # of connection points: 4
#     Node 4, Type 1, BuildingBlock: MIFKUJ_clean_linker_1, # of connection points: 4
#     Node 5, Type 1, BuildingBlock: MIFKUJ_clean_linker_1, # of connection points: 4
#     Edge 6, Type (0, 1), BuildingBlock: OJICUG_clean_linker_0, # of connection points: 2
#     Edge 7, Type (0, 1), BuildingBlock: OJICUG_clean_linker_0, # of connection points: 2
#     Edge 8, Type (0, 1), BuildingBlock: OJICUG_clean_linker_0, # of connection points: 2
#     Edge 9, Type (0, 1), BuildingBlock: OJICUG_clean_linker_0, # of connection points: 2
#     Edge 10, Type (0, 1), BuildingBlock: OJICUG_clean_linker_0, # of connection points: 2
#     Edge 11, Type (0, 1), BuildingBlock: OJICUG_clean_linker_0, # of connection points: 2
#     Edge 12, Type (0, 1), BuildingBlock: OJICUG_clean_linker_0, # of connection points: 2
#     Edge 13, Type (0, 1), BuildingBlock: OJICUG_clean_linker_0, # of connection points: 2
#     Edge 14, Type (0, 1), BuildingBlock: OJICUG_clean_linker_0, # of connection points: 2
#     Edge 15, Type (0, 1), BuildingBlock: OJICUG_clean_linker_0, # of connection points: 2
#     Edge 16, Type (0, 1), BuildingBlock: OJICUG_clean_linker_0, # of connection points: 2
#     Edge 17, Type (0, 1), BuildingBlock: OJICUG_clean_linker_0, # of connection points: 2
# Relax obj value: 0.039
# Max RMSD: 0.162
# Mean RMSD: 0.089
data_MOF--net-pth--node1-TATPOV_clean_sbu_0--node2-MIFKUJ_clean_linker_1--edge1-OJICUG_clean_linker_0
_symmetry_space_group_name_H-M    P1
_symmetry_Int_Tables_number       1
_symmetry_cell_setting            triclinic
loop_
_symmetry_equiv_pos_as_xyz
'x, y, z'
_cell_length_a     23.18367
_cell_length_b     22.945087
_cell_length_c     48.270249
_cell_angle_alpha  92.77792
_cell_angle_beta   92.084489
_cell_angle_gamma 120.79031
loop_
_atom_site_label
_atom_site_type_symbol
_atom_site_fract_x
_atom_site_fract_y
_atom_site_fract_z
_atom_type_partial_charge
Zn0 Zn 0.12253 -0.00292 0.01093 0.0
Zn1 Zn 0.06335 0.04977 0.04081 0.0
O2 O 0.07388 0.98758 0.06764 0.0
O3 O 0.11884 0.94104 0.0422 0.0
O4 O 0.02811 0.09981 0.06342 0.0
O5 O 0.2042 0.08833 0.00677 0.0
O6 O 0.14763 0.13053 0.02617 0.0
C7 C 0.09498 0.94623 0.06473 0.0
C8 C 0.99064 0.96252 0.98764 0.0
O9 O 0.98964 -0.00603 0.00994 0.0
O10 O 0.04236 0.95937 0.98272 0.0
C11 C 0.0113 0.09106 0.08835 0.0
O12 O 0.01329 0.04313 0.10139 0.0
C13 C 0.19899 0.13904 0.01402 0.0
Zn14 Zn 0.19096 0.14539 0.34566 0.0
Zn15 Zn 0.08647 0.09201 0.37708 0.0
O16 O 0.16768 0.11115 0.40312 0.0
O17 O 0.25469 0.15602 0.37754 0.0
O18 O 0.01524 0.07162 0.4039 0.0
O19 O 0.17859 0.22239 0.33572 0.0
O20 O 0.0853 0.16888 0.3572 0.0
C21 C 0.23027 0.13539 0.40055 0.0
C22 C 0.08365 0.004 0.32876 0.0
O23 O 0.05563 0.00784 0.35045 0.0
O24 O 0.13842 0.05491 0.32254 0.0
C25 C 0.95446 0.02285 0.40224 0.0
O26 O 0.93256 0.97568 0.38151 0.0
C27 C 0.12372 0.21647 0.34241 0.0
Zn28 Zn 0.09799 0.89882 0.73304 0.0
Zn29 Zn 0.04135 0.96205 0.70767 0.0
O30 O 0.10224 0.95542 0.67926 0.0
O31 O 0.13909 0.89316 0.69742 0.0
O32 O 0.98709 -0.00581 0.68688 0.0
O33 O 0.00834 0.82241 0.74311 0.0
O34 O 0.96521 0.87691 0.72309 0.0
C35 C 0.13616 0.92603 0.67764 0.0
C36 C 0.13674 0.03556 0.75774 0.0
O37 O 0.09679 0.03472 0.7387 0.0
O38 O 0.14588 0.9857 0.75911 0.0
C39 C -0.00352 0.01538 0.66266 0.0
O40 O 0.04851 0.02236 0.64991 0.0
C41 C 0.95784 0.82751 0.73658 0.0
H42 H 0.05882 0.46796 0.15371 0.0
H43 H 0.06127 0.375 0.12839 0.0
H44 H 0.89466 0.22969 0.17245 0.0
H45 H 0.89194 0.32345 0.19779 0.0
H46 H 0.97872 0.50891 0.15495 0.0
H47 H 0.07814 0.44451 0.21868 0.0
H48 H 0.1113 0.38545 0.24985 0.0
H49 H 0.94552 0.34504 0.29988 0.0
H50 H 0.90947 0.40038 0.26715 0.0
H51 H 0.884 0.58777 0.24826 0.0
H52 H 0.90097 0.69154 0.27355 0.0
H53 H 0.10712 0.80024 0.25087 0.0
H54 H 0.08937 0.69732 0.22552 0.0
H55 H 0.9723 0.52696 0.25743 0.0
H56 H 0.90844 0.63184 0.17991 0.0
H57 H 0.94067 0.72903 0.15185 0.0
H58 H 0.1293 0.73996 0.1383 0.0
H59 H 0.09541 0.64171 0.16515 0.0
C60 C 0.97492 0.40289 0.17759 0.0
C61 C 0.0222 0.41615 0.15777 0.0
C62 C 0.02357 0.36288 0.14326 0.0
C63 C 0.97776 0.29496 0.14824 0.0
C64 C 0.93081 0.28154 0.16829 0.0
C65 C 0.92921 0.33505 0.18275 0.0
C66 C 0.97387 0.46037 0.1927 0.0
C67 C 0.97662 0.51206 0.17735 0.0
C68 C 0.97415 0.46669 0.22209 0.0
C69 C 0.99019 0.42548 0.24009 0.0
C70 C 0.04749 0.42114 0.23582 0.0
C71 C 0.06743 0.38864 0.25414 0.0
C72 C 0.03172 0.36126 0.27768 0.0
C73 C 0.97393 0.36508 0.28187 0.0
C74 C 0.95337 0.3969 0.26322 0.0
C75 C 0.98513 0.63551 0.2347 0.0
C76 C 0.93261 0.63426 0.24872 0.0
C77 C 0.94245 0.69335 0.26319 0.0
C78 C 0.00512 0.7543 0.26391 0.0
C79 C 0.05773 0.75468 0.25013 0.0
C80 C 0.04783 0.69587 0.23572 0.0
C81 C 0.97563 0.57347 0.21953 0.0
C82 C 0.9711 0.52126 0.23493 0.0
C83 C 0.98076 0.56991 0.19055 0.0
C84 C -0.00091 0.62906 0.17414 0.0
C85 C 0.95654 0.65528 0.17075 0.0
C86 C 0.9754 0.71121 0.15496 0.0
C87 C 0.03739 0.74203 0.14257 0.0
C88 C 0.08054 0.71661 0.1469 0.0
C89 C 0.06132 0.66045 0.16228 0.0
H90 H 0.71744 0.14338 0.49618 0.0
H91 H 0.79755 0.13586 0.4667 0.0
H92 H 0.72966 0.93333 0.49124 0.0
H93 H 0.64941 0.94096 0.52059 0.0
H94 H 0.58317 0.06887 0.49318 0.0
H95 H 0.75821 0.12909 0.55901 0.0
H96 H 0.84991 0.12793 0.58501 0.0
H97 H 0.70671 0.9361 0.61597 0.0
H98 H 0.61502 0.93716 0.58968 0.0
H99 H 0.44383 0.9227 0.58553 0.0
H100 H 0.34832 0.89665 0.61209 0.0
H101 H 0.35484 0.07833 0.58665 0.0
H102 H 0.45647 0.10871 0.56342 0.0
H103 H 0.56565 0.0153 0.59189 0.0
H104 H 0.39188 0.966 0.51281 0.0
H105 H 0.31873 0.99232 0.48485 0.0
H106 H 0.48256 0.20041 0.48394 0.0
H107 H 0.55527 0.17336 0.51128 0.0
C108 C 0.67786 0.04297 0.51071 0.0
C109 C 0.71999 0.09749 0.49526 0.0
C110 C 0.7659 0.09324 0.47857 0.0
C111 C 0.76981 0.03399 0.47672 0.0
C112 C 0.7274 0.97938 0.49214 0.0
C113 C 0.682 0.98393 0.50906 0.0
C114 C 0.62759 0.04628 0.52781 0.0
C115 C 0.57958 0.05764 0.51486 0.0
C116 C 0.62426 0.034 0.55626 0.0
C117 C 0.67971 0.03276 0.5721 0.0
C118 C 0.74655 0.08632 0.57112 0.0
C119 C 0.79897 0.08571 0.58602 0.0
C120 C 0.78554 0.03192 0.6025 0.0
C121 C 0.71853 0.97865 0.60369 0.0
C122 C 0.66612 0.97909 0.58864 0.0
C123 C 0.45737 0.01726 0.57195 0.0
C124 C 0.42525 0.95748 0.58592 0.0
C125 C 0.36919 0.94183 0.60075 0.0
C126 C 0.34203 0.9845 0.60144 0.0
C127 C 0.374 0.04417 0.58712 0.0
C128 C 0.43179 0.06109 0.57314 0.0
C129 C 0.51787 0.03281 0.55671 0.0
C130 C 0.56874 0.02591 0.57016 0.0
C131 C 0.52542 0.05215 0.52902 0.0
C132 C 0.47885 0.06775 0.51399 0.0
C133 C 0.41156 0.01735 0.50677 0.0
C134 C 0.36984 0.03262 0.49097 0.0
C135 C 0.39501 0.09843 0.48207 0.0
C136 C 0.46195 0.14904 0.49009 0.0
C137 C 0.50349 0.13373 0.50576 0.0
H138 H 0.47771 0.38386 0.83652 0.0
H139 H 0.39235 0.27174 0.81578 0.0
H140 H 0.23603 0.30755 0.84186 0.0
H141 H 0.32258 0.42082 0.86282 0.0
H142 H 0.49672 0.50286 0.8209 0.0
H143 H 0.46089 0.38325 0.89819 0.0
H144 H 0.40115 0.30468 0.93278 0.0
H145 H 0.34311 0.44304 0.96752 0.0
H146 H 0.39999 0.52007 0.93119 0.0
H147 H 0.58488 0.725 0.90458 0.0
H148 H 0.68794 0.82246 0.92727 0.0
H149 H 0.79834 0.72394 0.9049 0.0
H150 H 0.69602 0.62826 0.88189 0.0
H151 H 0.53227 0.58635 0.92031 0.0
H152 H 0.62425 0.71618 0.83708 0.0
H153 H 0.71574 0.77011 0.80598 0.0
H154 H 0.70673 0.57863 0.78964 0.0
H155 H 0.61778 0.52602 0.82141 0.0
C156 C 0.40629 0.41057 0.851 0.0
C157 C 0.42506 0.36741 0.83798 0.0
C158 C 0.37627 0.30318 0.82637 0.0
C159 C 0.30766 0.28102 0.82731 0.0
C160 C 0.28868 0.32371 0.84083 0.0
C161 C 0.33783 0.38804 0.85282 0.0
C162 C 0.45925 0.48014 0.86147 0.0
C163 C 0.50422 0.52152 0.84261 0.0
C164 C 0.46957 0.50333 0.88989 0.0
C165 C 0.43299 0.45649 0.91146 0.0
C166 C 0.43415 0.39619 0.91284 0.0
C167 C 0.40114 0.35189 0.93317 0.0
C168 C 0.36752 0.36754 0.9532 0.0
C169 C 0.36781 0.42895 0.95225 0.0
C170 C 0.40042 0.47313 0.93157 0.0
C171 C 0.63324 0.67008 0.8913 0.0
C172 C 0.63171 0.72524 0.90426 0.0
C173 C 0.69047 0.7806 0.91731 0.0
C174 C 0.7515 0.78117 0.91784 0.0
C175 C 0.75272 0.72606 0.90438 0.0
C176 C 0.69417 0.67108 0.89128 0.0
C177 C 0.57043 0.60875 0.87973 0.0
C178 C 0.52316 0.56899 0.89841 0.0
C179 C 0.56157 0.58395 0.85155 0.0
C180 C 0.61445 0.61722 0.83173 0.0
C181 C 0.64215 0.686 0.82682 0.0
C182 C 0.69387 0.71648 0.80882 0.0
C183 C 0.71851 0.67856 0.79539 0.0
C184 C 0.68948 0.6094 0.7999 0.0
C185 C 0.63818 0.57915 0.81789 0.0
C186 C 0.98421 0.13496 0.13165 0.0
C187 C -0.0039 0.1391 0.10324 0.0
H188 H 0.96933 0.1812 0.16823 0.0
C189 C -0.00282 0.19218 0.08945 0.0
H190 H 0.98297 0.09465 0.14289 0.0
C191 C 0.98925 0.24147 0.10393 0.0
C192 C 0.97997 0.23892 0.13255 0.0
H193 H 0.00567 0.19668 0.06754 0.0
H194 H 0.99122 0.2822 0.09275 0.0
C195 C 0.97612 0.18436 0.14616 0.0
C196 C 0.92907 0.08051 0.44113 0.0
C197 C 0.90786 0.02329 0.42233 0.0
H198 H 0.90211 0.12856 0.473 0.0
C199 C 0.84135 0.96838 0.42227 0.0
H200 H 0.97996 0.12375 0.44179 0.0
C201 C 0.79678 0.97118 0.44033 0.0
C202 C 0.81769 0.02922 0.45856 0.0
H203 H 0.82347 0.92359 0.40806 0.0
H204 H 0.74545 0.92868 0.43952 0.0
C205 C 0.88441 0.08356 0.45893 0.0
C206 C 0.83916 0.79449 0.74477 0.0
C207 C 0.89255 0.78232 0.74814 0.0
H208 H 0.74205 0.77099 0.75697 0.0
C209 C 0.88575 0.73199 0.76545 0.0
H210 H 0.84268 0.83285 0.73155 0.0
C211 C 0.82842 0.6971 0.78016 0.0
C212 C 0.77648 0.7116 0.77785 0.0
H213 H 0.92593 0.72143 0.76858 0.0
H214 H 0.82614 0.66079 0.79427 0.0
C215 C 0.78178 0.75959 0.75954 0.0
C216 C 0.1034 0.84936 0.08125 0.0
C217 C 0.0858 0.89892 0.08629 0.0
H218 H 0.10028 0.76056 0.09435 0.0
C219 C 0.0546 0.89858 0.11079 0.0
H220 H 0.12712 0.84765 0.06255 0.0
C221 C 0.03981 0.84853 0.12942 0.0
C222 C 0.05579 0.79781 0.12387 0.0
H223 H 0.04034 0.93602 0.11529 0.0
H224 H 0.01556 0.84937 0.14807 0.0
C225 C 0.08827 0.79936 0.09966 0.0
C226 C 0.34255 0.16118 0.42051 0.0
C227 C 0.27332 0.1329 0.42332 0.0
H228 H 0.43468 0.17167 0.43655 0.0
C229 C 0.24503 0.0969 0.44673 0.0
H230 H 0.36602 0.18914 0.40274 0.0
C231 C 0.28469 0.08695 0.46626 0.0
C232 C 0.35344 0.11318 0.46284 0.0
H233 H 0.19182 0.07442 0.4495 0.0
H234 H 0.26139 0.05798 0.48383 0.0
C235 C 0.38208 0.15141 0.44001 0.0
C236 C 0.22204 0.09852 0.79769 0.0
C237 C 0.17487 0.09586 0.77774 0.0
H238 H 0.30022 0.15908 0.82943 0.0
C239 C 0.16683 0.15241 0.77637 0.0
H240 H 0.22904 0.05564 0.79952 0.0
C241 C 0.20756 0.21162 0.79366 0.0
C242 C 0.25714 0.21532 0.81249 0.0
H243 H 0.13059 0.1518 0.76137 0.0
H244 H 0.20253 0.25556 0.79131 0.0
C245 C 0.26282 0.15769 0.81484 0.0
C246 C 0.95271 0.04508 0.62067 0.0
C247 C 0.94494 0.02469 0.64794 0.0
H248 H 0.9082 0.06277 0.58483 0.0
C249 C 0.88542 0.0093 0.6605 0.0
H250 H -0.00214 0.05717 0.61037 0.0
C251 C 0.83411 0.01239 0.64585 0.0
C252 C 0.84122 0.03125 0.61837 0.0
H253 H 0.87778 0.99357 0.68151 0.0
H254 H 0.78875 -0.00011 0.65606 0.0
C255 C 0.90143 0.04846 0.60605 0.0
C256 C 0.93472 0.90219 0.94142 0.0
C257 C 0.92992 0.92484 0.96832 0.0
H258 H 0.88217 0.84106 0.90396 0.0
C259 C 0.86615 0.90617 0.97728 0.0
H260 H 0.98327 0.91658 0.93378 0.0
C261 C 0.80805 0.86189 0.96034 0.0
C262 C 0.81272 0.83607 0.93402 0.0
H263 H 0.8609 0.92282 0.99792 0.0
H264 H 0.75955 0.84516 0.96852 0.0
C265 C 0.87677 0.85865 0.92439 0.0
C266 C 0.07543 0.94084 0.28401 0.0
C267 C 0.05519 0.93965 0.31115 0.0
H268 H 0.07363 0.8833 0.24755 0.0
C269 C 0.01227 0.87666 0.32169 0.0
H270 H 0.10756 0.98863 0.27512 0.0
C271 C 0.99353 0.81593 0.30595 0.0
C272 C 0.01703 0.81741 0.27936 0.0
H273 H -0.00412 0.87429 0.34256 0.0
H274 H 0.96336 0.7681 0.3151 0.0
C275 C 0.05625 0.88048 0.26825 0.0
C276 C 0.18683 0.88619 0.64228 0.0
C277 C 0.18062 0.93881 0.65484 0.0
H278 H 0.2387 0.85819 0.61408 0.0
C279 C 0.22344 0.00571 0.64798 0.0
H280 H 0.15399 0.83411 0.64722 0.0
C281 C 0.27471 0.02046 0.63022 0.0
C282 C 0.28299 0.96822 0.61814 0.0
H283 H 0.22008 0.04729 0.65778 0.0
H284 H 0.30952 0.07336 0.62717 0.0
C285 C 0.23637 0.90048 0.62363 0.0
C286 C 0.22587 0.25023 0.9965 0.0
C287 C 0.24745 0.20593 0.00441 0.0
H288 H 0.24623 0.33533 0.9735 0.0
C289 C 0.31261 0.22127 0.99904 0.0
H290 H 0.17565 0.23936 0.00028 0.0
C291 C 0.35368 0.27708 0.98425 0.0
C292 C 0.32979 0.31772 0.97386 0.0
H293 H 0.33077 0.18838 0.00523 0.0
H294 H 0.4031 0.28646 0.97988 0.0
C295 C 0.26646 0.30535 0.98115 0.0
C296 C 0.14691 0.32015 0.31898 0.0
C297 C 0.10061 0.25915 0.32996 0.0
H298 H 0.16162 0.40158 0.29482 0.0
C299 C 0.03147 0.23542 0.32604 0.0
H300 H 0.20053 0.34004 0.32194 0.0
C301 C 0.00893 0.26968 0.30982 0.0
C302 C 0.05518 0.32884 0.29753 0.0
H303 H 0.99456 0.18827 0.33415 0.0
H304 H 0.95525 0.24791 0.30584 0.0
C305 C 0.12448 0.35496 0.30318 0.0
loop_
_geom_bond_atom_site_label_1
_geom_bond_atom_site_label_2
_geom_bond_distance
_geom_bond_site_symmetry_2
_ccdc_geom_bond_type
Zn0 O3 2.031 . S
Zn0 O5 2.049 1_564 S
Zn0 O10 2.067 1_554 S
Zn1 O2 1.962 . S
Zn1 O4 1.986 . S
Zn1 O6 1.996 . S
Zn1 O9 1.943 . S
O2 Zn1 1.962 . S
O2 C7 1.254 1_545 S
O3 Zn0 2.031 . S
O3 C7 1.269 . S
O4 Zn1 1.986 . S
O4 C11 1.262 . S
O5 Zn0 2.049 1_546 S
O5 C13 1.260 1_556 S
O6 Zn1 1.996 . S
O6 C13 1.257 . S
C7 O2 1.254 1_565 S
C7 O3 1.269 . S
C8 O9 1.249 1_665 S
C8 O10 1.270 1_654 S
O9 Zn1 1.943 . S
O9 C8 1.249 1_445 S
O10 Zn0 2.067 1_556 S
O10 C8 1.270 1_456 S
C11 O4 1.262 . S
C11 O12 1.232 . S
O12 C11 1.232 . S
C13 O5 1.260 1_554 S
C13 O6 1.257 . S
Zn14 O17 2.031 . S
Zn14 O19 2.049 . S
Zn14 O24 2.067 . S
Zn15 O16 1.962 . S
Zn15 O18 1.986 1_455 S
Zn15 O20 1.996 . S
Zn15 O23 1.943 1_445 S
O16 Zn15 1.962 . S
O16 C21 1.254 . S
O17 Zn14 2.031 . S
O17 C21 1.269 . S
O18 Zn15 1.986 1_655 S
O18 C25 1.262 . S
O19 Zn14 2.049 . S
O19 C27 1.260 . S
O20 Zn15 1.996 . S
O20 C27 1.257 . S
C21 O16 1.254 . S
C21 O17 1.269 . S
C22 O23 1.249 1_455 S
C22 O24 1.270 1_565 S
O23 Zn15 1.943 1_665 S
O23 C22 1.249 1_655 S
O24 Zn14 2.067 . S
O24 C22 1.270 1_545 S
C25 O18 1.262 . S
C25 O26 1.232 1_545 S
O26 C25 1.232 1_565 S
C27 O19 1.260 . S
C27 O20 1.257 . S
Zn28 O31 2.031 1_565 S
Zn28 O33 2.049 . S
Zn28 O38 2.067 1_565 S
Zn29 O30 1.962 1_545 S
Zn29 O32 1.986 1_445 S
Zn29 O34 1.996 1_445 S
Zn29 O37 1.943 . S
O30 Zn29 1.962 1_565 S
O30 C35 1.254 . S
O31 Zn28 2.031 1_545 S
O31 C35 1.269 1_545 S
O32 Zn29 1.986 1_665 S
O32 C39 1.262 1_565 S
O33 Zn28 2.049 . S
O33 C41 1.260 1_455 S
O34 Zn29 1.996 1_665 S
O34 C41 1.257 . S
C35 O30 1.254 . S
C35 O31 1.269 1_565 S
C36 O37 1.249 . S
C36 O38 1.270 . S
O37 Zn29 1.943 . S
O37 C36 1.249 . S
O38 Zn28 2.067 1_545 S
O38 C36 1.270 . S
C39 O32 1.262 1_545 S
C39 O40 1.232 1_655 S
O40 C39 1.232 1_455 S
C41 O33 1.260 1_655 S
C41 O34 1.257 . S
H42 C61 0.949 . S
H43 C62 0.950 . S
H44 C64 0.950 1_655 S
H45 C65 0.950 1_655 S
H46 C67 0.950 . S
H47 C70 0.950 . S
H48 C71 0.950 . S
H49 C73 0.951 . S
H50 C74 0.949 . S
H51 C76 0.949 . S
H52 C77 0.950 . S
H53 C79 0.950 . S
H54 C80 0.950 . S
H55 C82 0.950 . S
H56 C85 0.950 1_655 S
H57 C86 0.950 1_655 S
H58 C88 0.951 . S
H59 C89 0.949 . S
C60 C61 1.376 . S
C60 C65 1.386 . S
C60 C66 1.483 . S
C61 H42 0.949 . S
C61 C60 1.376 . S
C61 C62 1.397 . S
C62 H43 0.950 . S
C62 C61 1.397 . S
C62 C63 1.391 . S
C63 C62 1.391 . S
C63 C64 1.405 . S
C64 H44 0.950 1_455 S
C64 C63 1.405 . S
C64 C65 1.367 . S
C65 H45 0.950 1_455 S
C65 C60 1.386 . S
C65 C64 1.367 . S
C66 C60 1.483 . S
C66 C67 1.382 . S
C66 C68 1.403 . S
C67 H46 0.950 . S
C67 C66 1.382 . S
C67 C83 1.411 . S
C68 C66 1.403 . S
C68 C69 1.489 . S
C68 C82 1.411 . S
C69 C68 1.489 . S
C69 C70 1.383 . S
C69 C74 1.382 1_455 S
C70 H47 0.950 . S
C70 C69 1.383 . S
C70 C71 1.395 . S
C71 H48 0.950 . S
C71 C70 1.395 . S
C71 C72 1.288 . S
C72 C71 1.288 . S
C72 C73 1.392 1_455 S
C73 H49 0.951 . S
C73 C72 1.392 1_655 S
C73 C74 1.392 . S
C74 H50 0.949 . S
C74 C69 1.382 1_655 S
C74 C73 1.392 . S
C75 C76 1.376 1_455 S
C75 C80 1.386 . S
C75 C81 1.483 . S
C76 H51 0.949 . S
C76 C75 1.376 1_655 S
C76 C77 1.397 . S
C77 H52 0.950 . S
C77 C76 1.397 . S
C77 C78 1.391 1_655 S
C78 C77 1.391 1_455 S
C78 C79 1.405 . S
C79 H53 0.950 . S
C79 C78 1.405 . S
C79 C80 1.367 . S
C80 H54 0.950 . S
C80 C75 1.386 . S
C80 C79 1.367 . S
C81 C75 1.483 . S
C81 C82 1.382 . S
C81 C83 1.403 . S
C82 H55 0.950 . S
C82 C68 1.411 . S
C82 C81 1.382 . S
C83 C67 1.411 . S
C83 C81 1.403 . S
C83 C84 1.489 . S
C84 C83 1.489 . S
C84 C85 1.383 . S
C84 C89 1.382 . S
C85 H56 0.950 1_455 S
C85 C84 1.383 . S
C85 C86 1.395 . S
C86 H57 0.950 1_455 S
C86 C85 1.395 . S
C86 C87 1.288 . S
C87 C86 1.288 . S
C87 C88 1.392 . S
C88 H58 0.951 . S
C88 C87 1.392 . S
C88 C89 1.392 . S
C89 H59 0.949 . S
C89 C84 1.382 . S
C89 C88 1.392 . S
H90 C109 0.949 . S
H91 C110 0.950 . S
H92 C112 0.950 . S
H93 C113 0.950 . S
H94 C115 0.950 . S
H95 C118 0.950 . S
H96 C119 0.950 . S
H97 C121 0.951 . S
H98 C122 0.949 . S
H99 C124 0.949 . S
H100 C125 0.950 . S
H101 C127 0.950 . S
H102 C128 0.950 . S
H103 C130 0.950 . S
H104 C133 0.951 . S
H105 C134 0.950 1_565 S
H106 C136 0.951 . S
H107 C137 0.949 . S
C108 C109 1.376 . S
C108 C113 1.386 1_545 S
C108 C114 1.483 . S
C109 H90 0.949 . S
C109 C108 1.376 . S
C109 C110 1.397 . S
C110 H91 0.950 . S
C110 C109 1.397 . S
C110 C111 1.391 . S
C111 C110 1.391 . S
C111 C112 1.405 1_545 S
C112 H92 0.950 . S
C112 C111 1.405 1_565 S
C112 C113 1.367 . S
C113 H93 0.950 . S
C113 C108 1.386 1_565 S
C113 C112 1.367 . S
C114 C108 1.483 . S
C114 C115 1.382 . S
C114 C116 1.403 . S
C115 H94 0.950 . S
C115 C114 1.382 . S
C115 C131 1.411 . S
C116 C114 1.403 . S
C116 C117 1.489 . S
C116 C130 1.411 . S
C117 C116 1.489 . S
C117 C118 1.383 . S
C117 C122 1.382 1_545 S
C118 H95 0.950 . S
C118 C117 1.383 . S
C118 C119 1.395 . S
C119 H96 0.950 . S
C119 C118 1.395 . S
C119 C120 1.288 . S
C120 C119 1.288 . S
C120 C121 1.392 1_545 S
C121 H97 0.951 . S
C121 C120 1.392 1_565 S
C121 C122 1.392 . S
C122 H98 0.949 . S
C122 C117 1.382 1_565 S
C122 C121 1.392 . S
C123 C124 1.376 1_545 S
C123 C128 1.386 . S
C123 C129 1.483 . S
C124 H99 0.949 . S
C124 C123 1.376 1_565 S
C124 C125 1.397 . S
C125 H100 0.950 . S
C125 C124 1.397 . S
C125 C126 1.391 1_565 S
C126 C125 1.391 1_545 S
C126 C127 1.405 . S
C127 H101 0.950 . S
C127 C126 1.405 . S
C127 C128 1.367 . S
C128 H102 0.950 . S
C128 C123 1.386 . S
C128 C127 1.367 . S
C129 C123 1.483 . S
C129 C130 1.382 . S
C129 C131 1.403 . S
C130 H103 0.950 . S
C130 C116 1.411 . S
C130 C129 1.382 . S
C131 C115 1.411 . S
C131 C129 1.403 . S
C131 C132 1.489 . S
C132 C131 1.489 . S
C132 C133 1.382 1_545 S
C132 C137 1.382 . S
C133 H104 0.951 . S
C133 C132 1.382 1_565 S
C133 C134 1.394 1_565 S
C134 H105 0.950 1_545 S
C134 C133 1.394 1_545 S
C134 C135 1.288 . S
C135 C134 1.288 . S
C135 C136 1.392 . S
C136 H106 0.951 . S
C136 C135 1.392 . S
C136 C137 1.392 . S
C137 H107 0.949 . S
C137 C132 1.382 . S
C137 C136 1.392 . S
H138 C157 0.949 . S
H139 C158 0.950 . S
H140 C160 0.950 . S
H141 C161 0.950 . S
H142 C163 0.950 . S
H143 C166 0.950 . S
H144 C167 0.950 . S
H145 C169 0.951 . S
H146 C170 0.949 . S
H147 C172 0.949 . S
H148 C173 0.950 . S
H149 C175 0.950 . S
H150 C176 0.950 . S
H151 C178 0.950 . S
H152 C181 0.950 . S
H153 C182 0.950 . S
H154 C184 0.951 . S
H155 C185 0.949 . S
C156 C157 1.376 . S
C156 C161 1.386 . S
C156 C162 1.483 . S
C157 H138 0.949 . S
C157 C156 1.376 . S
C157 C158 1.397 . S
C158 H139 0.950 . S
C158 C157 1.397 . S
C158 C159 1.391 . S
C159 C158 1.391 . S
C159 C160 1.405 . S
C160 H140 0.950 . S
C160 C159 1.405 . S
C160 C161 1.367 . S
C161 H141 0.950 . S
C161 C156 1.386 . S
C161 C160 1.367 . S
C162 C156 1.483 . S
C162 C163 1.382 . S
C162 C164 1.403 . S
C163 H142 0.950 . S
C163 C162 1.382 . S
C163 C179 1.411 . S
C164 C162 1.403 . S
C164 C165 1.489 . S
C164 C178 1.411 . S
C165 C164 1.489 . S
C165 C166 1.383 . S
C165 C170 1.382 . S
C166 H143 0.950 . S
C166 C165 1.383 . S
C166 C167 1.395 . S
C167 H144 0.950 . S
C167 C166 1.395 . S
C167 C168 1.288 . S
C168 C167 1.288 . S
C168 C169 1.392 . S
C169 H145 0.951 . S
C169 C168 1.392 . S
C169 C170 1.392 . S
C170 H146 0.949 . S
C170 C165 1.382 . S
C170 C169 1.392 . S
C171 C172 1.376 . S
C171 C176 1.386 . S
C171 C177 1.483 . S
C172 H147 0.949 . S
C172 C171 1.376 . S
C172 C173 1.397 . S
C173 H148 0.950 . S
C173 C172 1.397 . S
C173 C174 1.391 . S
C174 C173 1.391 . S
C174 C175 1.405 . S
C175 H149 0.950 . S
C175 C174 1.405 . S
C175 C176 1.367 . S
C176 H150 0.950 . S
C176 C171 1.386 . S
C176 C175 1.367 . S
C177 C171 1.483 . S
C177 C178 1.382 . S
C177 C179 1.403 . S
C178 H151 0.950 . S
C178 C164 1.411 . S
C178 C177 1.382 . S
C179 C163 1.411 . S
C179 C177 1.403 . S
C179 C180 1.489 . S
C180 C179 1.489 . S
C180 C181 1.383 . S
C180 C185 1.382 . S
C181 H152 0.950 . S
C181 C180 1.383 . S
C181 C182 1.395 . S
C182 H153 0.950 . S
C182 C181 1.395 . S
C182 C183 1.288 . S
C183 C182 1.288 . S
C183 C184 1.392 . S
C184 H154 0.951 . S
C184 C183 1.392 . S
C184 C185 1.392 . S
C185 H155 0.949 . S
C185 C180 1.382 . S
C185 C184 1.392 . S
C186 C187 1.387 . S
C186 H190 0.950 . S
C186 C195 1.390 . S
C187 C186 1.387 . S
C187 C189 1.387 . S
H188 C195 0.950 . S
C189 C187 1.387 . S
C189 C191 1.390 . S
C189 H193 0.950 . S
H190 C186 0.950 . S
C191 C189 1.390 . S
C191 C192 1.387 . S
C191 H194 0.950 . S
C192 C191 1.387 . S
C192 C195 1.387 . S
H193 C189 0.950 . S
H194 C191 0.950 . S
C195 C186 1.390 . S
C195 H188 0.950 . S
C195 C192 1.387 . S
C196 C197 1.387 . S
C196 H200 0.950 . S
C196 C205 1.390 . S
C197 C196 1.387 . S
C197 C199 1.387 1_545 S
H198 C205 0.950 . S
C199 C197 1.387 1_565 S
C199 C201 1.390 . S
C199 H203 0.950 . S
H200 C196 0.950 . S
C201 C199 1.390 . S
C201 C202 1.387 1_565 S
C201 H204 0.950 . S
C202 C201 1.387 1_545 S
C202 C205 1.387 . S
H203 C199 0.950 . S
H204 C201 0.950 . S
C205 C196 1.390 . S
C205 H198 0.950 . S
C205 C202 1.387 . S
C206 C207 1.387 . S
C206 H210 0.950 . S
C206 C215 1.390 . S
C207 C206 1.387 . S
C207 C209 1.387 . S
H208 C215 0.950 . S
C209 C207 1.387 . S
C209 C211 1.390 . S
C209 H213 0.950 . S
H210 C206 0.950 . S
C211 C209 1.390 . S
C211 C212 1.387 . S
C211 H214 0.950 . S
C212 C211 1.387 . S
C212 C215 1.387 . S
H213 C209 0.950 . S
H214 C211 0.950 . S
C215 C206 1.390 . S
C215 H208 0.950 . S
C215 C212 1.387 . S
C216 C217 1.387 . S
C216 H220 0.950 . S
C216 C225 1.390 . S
C217 C216 1.387 . S
C217 C219 1.387 . S
H218 C225 0.950 . S
C219 C217 1.387 . S
C219 C221 1.390 . S
C219 H223 0.950 . S
H220 C216 0.950 . S
C221 C219 1.390 . S
C221 C222 1.387 . S
C221 H224 0.950 . S
C222 C221 1.387 . S
C222 C225 1.387 . S
H223 C219 0.950 . S
H224 C221 0.950 . S
C225 C216 1.390 . S
C225 H218 0.950 . S
C225 C222 1.387 . S
C226 C227 1.387 . S
C226 H230 0.950 1_545 S
C226 C235 1.390 . S
C227 C226 1.387 . S
C227 C229 1.387 . S
H228 C235 0.950 1_565 S
C229 C227 1.387 . S
C229 C231 1.390 . S
C229 H233 0.950 . S
H230 C226 0.950 1_565 S
C231 C229 1.390 . S
C231 C232 1.387 . S
C231 H234 0.950 . S
C232 C231 1.387 . S
C232 C235 1.387 . S
H233 C229 0.950 . S
H234 C231 0.950 . S
C235 C226 1.390 . S
C235 H228 0.950 1_545 S
C235 C232 1.387 . S
C236 C237 1.387 . S
C236 H240 0.950 . S
C236 C245 1.390 . S
C237 C236 1.387 . S
C237 C239 1.387 . S
H238 C245 0.950 . S
C239 C237 1.387 . S
C239 C241 1.390 . S
C239 H243 0.950 . S
H240 C236 0.950 . S
C241 C239 1.390 . S
C241 C242 1.387 . S
C241 H244 0.950 . S
C242 C241 1.387 . S
C242 C245 1.387 . S
H243 C239 0.950 . S
H244 C241 0.950 . S
C245 C236 1.390 . S
C245 H238 0.950 . S
C245 C242 1.387 . S
C246 C247 1.387 . S
C246 H250 0.950 . S
C246 C255 1.390 . S
C247 C246 1.387 . S
C247 C249 1.387 . S
H248 C255 0.950 . S
C249 C247 1.387 . S
C249 C251 1.390 . S
C249 H253 0.950 . S
H250 C246 0.950 . S
C251 C249 1.390 . S
C251 C252 1.387 . S
C251 H254 0.950 . S
C252 C251 1.387 . S
C252 C255 1.387 . S
H253 C249 0.950 . S
H254 C251 0.950 . S
C255 C246 1.390 . S
C255 H248 0.950 . S
C255 C252 1.387 . S
C256 C257 1.387 . S
C256 H260 0.950 . S
C256 C265 1.390 . S
C257 C256 1.387 . S
C257 C259 1.387 1_556 S
H258 C265 0.950 . S
C259 C257 1.387 1_554 S
C259 C261 1.390 1_554 S
C259 H263 0.950 . S
H260 C256 0.950 . S
C261 C259 1.390 1_556 S
C261 C262 1.387 . S
C261 H264 0.950 . S
C262 C261 1.387 . S
C262 C265 1.387 . S
H263 C259 0.950 . S
H264 C261 0.950 . S
C265 C256 1.390 . S
C265 H258 0.950 . S
C265 C262 1.387 . S
C266 C267 1.387 . S
C266 H270 0.950 . S
C266 C275 1.390 . S
C267 C266 1.387 . S
C267 C269 1.387 1_455 S
H268 C275 0.950 . S
C269 C267 1.387 1_655 S
C269 C271 1.390 . S
C269 H273 0.950 . S
H270 C266 0.950 . S
C271 C269 1.390 . S
C271 C272 1.387 1_655 S
C271 H274 0.950 . S
C272 C271 1.387 1_455 S
C272 C275 1.387 . S
H273 C269 0.950 . S
H274 C271 0.950 . S
C275 C266 1.390 . S
C275 H268 0.950 . S
C275 C272 1.387 . S
C276 C277 1.393 . S
C276 H280 0.950 . S
C276 C285 1.390 . S
C277 C276 1.393 . S
C277 C279 1.383 1_565 S
H278 C285 0.950 . S
C279 C277 1.383 1_545 S
C279 C281 1.390 . S
C279 H283 0.950 . S
H280 C276 0.950 . S
C281 C279 1.390 . S
C281 C282 1.387 . S
C281 H284 0.950 . S
C282 C281 1.387 . S
C282 C285 1.387 1_545 S
H283 C279 0.950 . S
H284 C281 0.950 . S
C285 C276 1.390 . S
C285 H278 0.950 . S
C285 C282 1.387 1_565 S
C286 C287 1.387 . S
C286 H290 0.950 . S
C286 C295 1.390 . S
C287 C286 1.387 . S
C287 C289 1.387 . S
H288 C295 0.950 . S
C289 C287 1.387 . S
C289 C291 1.390 . S
C289 H293 0.950 1_556 S
H290 C286 0.950 . S
C291 C289 1.390 . S
C291 C292 1.387 . S
C291 H294 0.950 . S
C292 C291 1.387 . S
C292 C295 1.387 . S
H293 C289 0.950 1_554 S
H294 C291 0.950 . S
C295 C286 1.390 . S
C295 H288 0.950 . S
C295 C292 1.387 . S
C296 C297 1.387 . S
C296 H300 0.950 . S
C296 C305 1.390 . S
C297 C296 1.387 . S
C297 C299 1.379 1_455 S
H298 C305 0.950 . S
C299 C297 1.379 1_655 S
C299 C301 1.395 . S
C299 H303 0.953 . S
H300 C296 0.950 . S
C301 C299 1.395 . S
C301 C302 1.387 1_655 S
C301 H304 0.950 . S
C302 C301 1.387 1_455 S
C302 C305 1.387 . S
H303 C299 0.953 . S
H304 C301 0.950 . S
C305 C296 1.390 . S
C305 H298 0.950 . S
C305 C302 1.387 . S
C192 C63 1.390 . S
C187 C11 1.369 . S
C197 C25 1.427 . S
C202 C111 1.450 . S
C207 C41 1.414 . S
C212 C183 1.477 . S
C217 C7 1.405 . S
C222 C87 1.392 . S
C232 C135 1.449 . S
C227 C21 1.459 . S
C237 C36 1.436 . S
C242 C159 1.521 . S
C252 C120 1.443 . S
C247 C39 1.423 . S
C257 C8 1.435 1_556 S
C262 C174 1.502 . S
C272 C78 1.533 . S
C267 C22 1.466 . S
C282 C126 1.454 . S
C277 C35 1.450 . S
C292 C168 1.463 . S
C287 C13 1.404 1_556 S
C297 C27 1.479 . S
C302 C72 1.518 . S
