# Generated by pormake.
# Topology anh, (6,3)-cn, num edge types: 1
# Building blocks:
#     Node 0, Type 0, BuildingBlock: NUHQIS_clean_sbu_0, # of connection points: 6
#     Node 1, Type 0, BuildingBlock: NUHQIS_clean_sbu_0, # of connection points: 6
#     Node 2, Type 0, BuildingBlock: NUHQIS_clean_sbu_0, # of connection points: 6
#     Node 3, Type 1, BuildingBlock: MIDCAF_clean_linker_0, # of connection points: 3
#     Node 4, Type 1, BuildingBlock: MIDCAF_clean_linker_0, # of connection points: 3
#     Node 5, Type 1, BuildingBlock: MIDCAF_clean_linker_0, # of connection points: 3
#     Node 6, Type 1, BuildingBlock: MIDCAF_clean_linker_0, # of connection points: 3
#     Node 7, Type 1, BuildingBlock: MIDCAF_clean_linker_0, # of connection points: 3
#     Node 8, Type 1, BuildingBlock: MIDCAF_clean_linker_0, # of connection points: 3
#     Edge 9, Type (0, 1), BuildingBlock: MIFKUJ_clean_linker_0, # of connection points: 2
#     Edge 10, Type (0, 1), BuildingBlock: MIFKUJ_clean_linker_0, # of connection points: 2
#     Edge 11, Type (0, 1), BuildingBlock: MIFKUJ_clean_linker_0, # of connection points: 2
#     Edge 12, Type (0, 1), BuildingBlock: MIFKUJ_clean_linker_0, # of connection points: 2
#     Edge 13, Type (0, 1), BuildingBlock: MIFKUJ_clean_linker_0, # of connection points: 2
#     Edge 14, Type (0, 1), BuildingBlock: MIFKUJ_clean_linker_0, # of connection points: 2
#     Edge 15, Type (0, 1), BuildingBlock: MIFKUJ_clean_linker_0, # of connection points: 2
#     Edge 16, Type (0, 1), BuildingBlock: MIFKUJ_clean_linker_0, # of connection points: 2
#     Edge 17, Type (0, 1), BuildingBlock: MIFKUJ_clean_linker_0, # of connection points: 2
#     Edge 18, Type (0, 1), BuildingBlock: MIFKUJ_clean_linker_0, # of connection points: 2
#     Edge 19, Type (0, 1), BuildingBlock: MIFKUJ_clean_linker_0, # of connection points: 2
#     Edge 20, Type (0, 1), BuildingBlock: MIFKUJ_clean_linker_0, # of connection points: 2
#     Edge 21, Type (0, 1), BuildingBlock: MIFKUJ_clean_linker_0, # of connection points: 2
#     Edge 22, Type (0, 1), BuildingBlock: MIFKUJ_clean_linker_0, # of connection points: 2
#     Edge 23, Type (0, 1), BuildingBlock: MIFKUJ_clean_linker_0, # of connection points: 2
#     Edge 24, Type (0, 1), BuildingBlock: MIFKUJ_clean_linker_0, # of connection points: 2
#     Edge 25, Type (0, 1), BuildingBlock: MIFKUJ_clean_linker_0, # of connection points: 2
#     Edge 26, Type (0, 1), BuildingBlock: MIFKUJ_clean_linker_0, # of connection points: 2
# Relax obj value: 0.203
# Max RMSD: 0.184
# Mean RMSD: 0.150
data_MOF--net-anh--node1-NUHQIS_clean_sbu_0--node2-MIDCAF_clean_linker_0--edge1-MIFKUJ_clean_linker_0
_symmetry_space_group_name_H-M    P1
_symmetry_Int_Tables_number       1
_symmetry_cell_setting            triclinic
loop_
_symmetry_equiv_pos_as_xyz
'x, y, z'
_cell_length_a     45.682457
_cell_length_b     45.64993
_cell_length_c     82.083202
_cell_angle_alpha  90.938623
_cell_angle_beta   92.321711
_cell_angle_gamma 119.61506
loop_
_atom_site_label
_atom_site_type_symbol
_atom_site_fract_x
_atom_site_fract_y
_atom_site_fract_z
_atom_type_partial_charge
Tb0 Tb 0.11137 0.56064 0.16297 0.0
Eu1 Eu 0.07085 0.60151 0.16077 0.0
C2 C 0.09143 0.58302 0.19447 0.0
C3 C 1.02988 0.51883 0.1635 0.0
C4 C 0.17842 0.54082 0.17383 0.0
C5 C 0.21497 0.52399 0.18795 0.0
C6 C 0.18365 0.51574 0.18059 0.0
C7 C 0.20444 0.57461 0.17517 0.0
C8 C 0.23596 0.58287 0.1824 0.0
C9 C 0.24171 0.55751 0.18857 0.0
C10 C 0.14562 0.53137 0.16564 0.0
O11 O 0.09012 0.55304 0.13788 0.0
O12 O 0.09277 0.60385 0.1364 0.0
O13 O 0.12507 0.64305 0.16725 0.0
O14 O 0.15224 0.61373 0.16089 0.0
C15 C 0.09175 0.57758 0.12916 0.0
O16 O 1.03661 0.61342 0.14696 0.0
O17 O 1.05649 0.63668 0.1711 0.0
O18 O 0.06631 0.58243 0.186 0.0
O19 O 0.11646 0.58331 0.18714 0.0
O20 O 1.05915 0.52031 0.16695 0.0
O21 O 1.02897 0.54596 0.15881 0.0
C22 C 0.15322 0.64249 0.16486 0.0
O23 O 0.12189 0.52669 0.1753 0.0
O24 O 0.14601 0.54873 0.15309 0.0
C25 C 0.99851 0.61477 0.16448 0.0
C26 C 0.92957 0.57068 0.1682 0.0
C27 C 0.93996 0.59511 0.15626 0.0
C28 C 0.97426 0.61697 0.15439 0.0
C29 C 0.98807 0.5924 0.17733 0.0
C30 C 0.95388 0.57063 0.17921 0.0
C31 C 1.03329 0.62944 0.15944 0.0
H32 H 0.21872 0.50382 0.1924 0.0
H33 H 0.16371 0.48963 0.17985 0.0
H34 H 0.20067 0.59448 0.17031 0.0
H35 H 0.25607 0.60889 0.18277 0.0
H36 H 0.92179 0.59551 0.1475 0.0
H37 H 0.98184 0.63369 0.14428 0.0
H38 H 1.00629 0.5899 0.18518 0.0
H39 H 0.94654 0.5523 0.18862 0.0
Tb40 Tb 0.62567 0.08969 0.49747 0.0
Eu41 Eu 0.54471 0.04926 0.49046 0.0
C42 C 0.57772 0.06395 0.52602 0.0
C43 C 0.5863 1.0081 0.49491 0.0
C44 C 0.70891 0.15437 0.51384 0.0
C45 C 0.76114 0.19439 0.52859 0.0
C46 C 0.74097 0.16296 0.52052 0.0
C47 C 0.69649 0.17664 0.51601 0.0
C48 C 0.71662 0.20806 0.52382 0.0
C49 C 0.74953 0.21772 0.52993 0.0
C50 C 0.68822 0.12235 0.5046 0.0
O51 O 0.61721 0.0749 0.47135 0.0
O52 O 0.56611 0.0719 0.46679 0.0
O53 O 0.55698 0.10307 0.49715 0.0
O54 O 0.61435 0.13142 0.49499 0.0
C55 C 0.59386 0.07467 0.4613 0.0
O56 O 0.49867 1.01068 0.47734 0.0
O57 O 0.49583 0.04193 0.49673 0.0
O58 O 0.55557 1.04003 0.51603 0.0
O59 O 0.60324 0.09057 0.52032 0.0
O60 O 0.61315 1.03667 0.50011 0.0
O61 O 0.55896 1.00782 0.48884 0.0
C62 C 0.58582 0.13162 0.49688 0.0
O63 O 0.66683 0.09776 0.51306 0.0
O64 O 0.67432 0.12437 0.49077 0.0
C65 C 0.45597 0.98396 0.4958 0.0
C66 C 0.41599 0.92326 0.5112 0.0
C67 C 0.41231 0.92519 0.49422 0.0
C68 C 0.43212 0.95534 0.48658 0.0
C69 C 0.45928 0.98218 0.51283 0.0
C70 C 0.4393 0.95214 0.52047 0.0
C71 C 0.47937 1.01446 0.4875 0.0
H72 H 0.78615 0.20079 0.53333 0.0
H73 H 0.75065 0.1457 0.5192 0.0
H74 H 0.67156 0.17019 0.51118 0.0
H75 H 0.70685 0.22537 0.52422 0.0
H76 H 0.39409 0.90335 0.48683 0.0
H77 H 0.42932 0.95612 0.47345 0.0
H78 H 0.47779 1.00378 0.52025 0.0
H79 H 0.44268 0.95125 0.53356 0.0
Tb80 Tb 0.61021 0.60908 0.82997 0.0
Eu81 Eu 0.57049 0.52813 0.82509 0.0
C82 C 0.59115 0.56331 0.85964 0.0
C83 C 0.6531 0.5699 0.82874 0.0
C84 C 0.62752 0.69237 0.84447 0.0
C85 C 0.63456 0.74699 0.85227 0.0
C86 C 0.64729 0.72755 0.84549 0.0
C87 C 0.59577 0.67669 0.8511 0.0
C88 C 0.58299 0.69604 0.85779 0.0
C89 C 0.60172 0.73148 0.85796 0.0
C90 C 0.63896 0.67188 0.83581 0.0
O91 O 0.61517 0.59869 0.80438 0.0
O92 O 0.56625 0.54847 0.80094 0.0
O93 O 0.5297 0.5408 0.83168 0.0
O94 O 0.55689 0.59677 0.82581 0.0
C95 C 0.59102 0.575 0.79477 0.0
O96 O 0.55766 0.48198 0.81111 0.0
O97 O 0.53504 0.47919 0.83419 0.0
O98 O 0.59423 0.54163 0.85037 0.0
O99 O 0.58847 0.58785 0.85302 0.0
O100 O 0.65155 0.5971 0.83317 0.0
O101 O 0.62567 0.54208 0.82334 0.0
C102 C 0.52907 0.569 0.82928 0.0
O103 O 0.64388 0.6513 0.8448 0.0
O104 O 0.62183 0.65703 0.82219 0.0
C105 C 0.55124 0.43849 0.8286 0.0
C106 C 0.57362 0.39517 0.84096 0.0
C107 C 0.58717 0.41335 0.82695 0.0
C108 C 0.57616 0.43478 0.82084 0.0
C109 C 0.53745 0.42013 0.84253 0.0
C110 C 0.54861 0.39878 0.84869 0.0
C111 C 0.54088 0.46268 0.82283 0.0
H112 H 0.64994 0.77421 0.85249 0.0
H113 H 0.67205 0.73997 0.84059 0.0
H114 H 0.58028 0.64946 0.85051 0.0
H115 H 0.55765 0.68306 0.86194 0.0
H116 H 0.60587 0.41053 0.82046 0.0
H117 H 0.58731 0.44849 0.81007 0.0
H118 H 0.51826 0.42255 0.84877 0.0
H119 H 0.53775 0.38522 0.85954 0.0
C120 C 0.47896 0.98717 0.20324 0.0
C121 C 0.47667 0.96579 0.19004 0.0
C122 C 0.50626 0.97692 0.1812 0.0
C123 C 0.53672 1.00754 0.18567 0.0
H124 H 0.63025 0.14814 0.18114 0.0
H125 H 0.68035 0.20007 0.17311 0.0
H126 H 0.74192 0.1837 0.20894 0.0
H127 H 0.69273 0.13258 0.21663 0.0
H128 H 0.65704 0.12288 0.25324 0.0
H129 H 0.66039 0.12253 0.28297 0.0
H130 H 0.55687 0.04202 0.28198 0.0
H131 H 0.55379 0.04171 0.25237 0.0
H132 H 0.50925 1.03183 0.21829 0.0
H133 H 0.45774 0.98013 0.21075 0.0
H134 H 0.5061 0.96183 0.17086 0.0
H135 H 0.55894 1.01423 0.17895 0.0
N136 N 0.59787 0.08169 0.19855 0.0
N137 N 0.6283 0.10608 0.22372 0.0
N138 N 0.57506 0.05805 0.22351 0.0
C139 C 0.62651 0.10671 0.20712 0.0
C140 C 0.60288 0.08215 0.23202 0.0
C141 C 0.57182 0.0569 0.20693 0.0
C142 C 0.65695 0.13531 0.19946 0.0
C143 C 0.65463 0.15517 0.18699 0.0
C144 C 0.68356 0.18548 0.18256 0.0
C145 C 0.71604 0.19693 0.19027 0.0
C146 C 0.71812 0.17629 0.20236 0.0
C147 C 0.68946 0.14654 0.20686 0.0
C148 C 0.60517 0.08228 0.25026 0.0
C149 C 0.63498 0.10504 0.25934 0.0
C150 C 0.63685 0.10496 0.27646 0.0
C151 C 0.60894 0.08219 0.28502 0.0
C152 C 0.57914 0.05953 0.27591 0.0
C153 C 0.57731 0.05952 0.25883 0.0
C154 C 0.53884 1.02813 0.19922 0.0
C155 C 0.50907 1.01731 0.20767 0.0
C156 C 0.55886 0.45133 0.53407 0.0
C157 C 0.58098 0.45115 0.52262 0.0
C158 C 0.60238 0.48235 0.51558 0.0
C159 C 0.60208 0.51244 0.52012 0.0
H160 H 0.56335 0.60815 0.51012 0.0
H161 H 0.56332 0.65942 0.50101 0.0
H162 H 0.62222 0.7135 0.54482 0.0
H163 H 0.62307 0.66368 0.55341 0.0
H164 H 0.60112 0.62635 0.58588 0.0
H165 H 0.60284 0.62842 0.61553 0.0
H166 H 0.57721 0.52378 0.61555 0.0
H167 H 0.57641 0.52194 0.58583 0.0
H168 H 0.54229 0.47995 0.54807 0.0
H169 H 0.54224 0.42848 0.54007 0.0
H170 H 0.6197 0.48365 0.50662 0.0
H171 H 0.61974 0.53591 0.51489 0.0
N172 N 0.58712 0.5718 0.53163 0.0
N173 N 0.59071 0.59954 0.55678 0.0
N174 N 0.58452 0.54565 0.5566 0.0
C175 C 0.59024 0.59971 0.5402 0.0
C176 C 0.58787 0.57295 0.5651 0.0
C177 C 0.5843 0.54446 0.54 0.0
C178 C 0.59333 0.63123 0.53255 0.0
C179 C 0.57693 0.63122 0.51759 0.0
C180 C 0.57655 0.66075 0.51248 0.0
C181 C 0.59281 0.69143 0.52207 0.0
C182 C 0.60982 0.69125 0.53675 0.0
C183 C 0.61009 0.66209 0.5418 0.0
C184 C 0.5886 0.57396 0.58333 0.0
C185 C 0.59581 0.6037 0.59215 0.0
C186 C 0.59661 0.60485 0.60924 0.0
C187 C 0.59007 0.57625 0.61808 0.0
C188 C 0.58286 0.54648 0.60925 0.0
C189 C 0.5822 0.54537 0.59214 0.0
C190 C 0.58066 0.51248 0.53203 0.0
C191 C 0.5589 0.48121 0.53872 0.0
C192 C 0.99939 0.59555 0.86917 0.0
C193 C 0.9788 0.57541 0.85565 0.0
C194 C 0.99048 0.55616 0.84711 0.0
C195 C 1.02094 0.55657 0.85219 0.0
H196 H 0.145 0.58092 0.84342 0.0
H197 H 0.19562 0.58046 0.83414 0.0
H198 H 0.21557 0.5574 0.88268 0.0
H199 H 0.166 0.55676 0.89156 0.0
H200 H 0.14763 0.58902 0.922 0.0
H201 H 0.14709 0.58868 0.95181 0.0
H202 H 1.0395 0.54924 0.94866 0.0
H203 H 1.03999 0.55021 0.91885 0.0
H204 H 1.04335 0.61106 0.88502 0.0
H205 H 0.99181 0.61038 0.87645 0.0
H206 H 0.97594 0.54042 0.83654 0.0
H207 H 1.02815 0.54049 0.84569 0.0
N208 N 0.095 0.57155 0.8664 0.0
N209 N 0.1194 0.5696 0.892 0.0
N210 N 0.06945 0.57177 0.89088 0.0
C211 C 0.12055 0.57001 0.87543 0.0
C212 C 0.09419 0.57026 0.89981 0.0
C213 C 0.06919 0.5726 0.87431 0.0
C214 C 0.1505 0.5688 0.86834 0.0
C215 C 0.16 0.57539 0.85204 0.0
C216 C 0.18944 0.57538 0.84675 0.0
C217 C 0.2103 0.56852 0.85751 0.0
C218 C 0.20047 0.56199 0.87369 0.0
C219 C 0.17155 0.56201 0.8789 0.0
C220 C 0.09385 0.56968 0.91798 0.0
C221 C 0.12382 0.58025 0.92764 0.0
C222 C 0.12357 0.58022 0.94473 0.0
C223 C 0.09325 0.5689 0.95258 0.0
C224 C 0.06322 0.55792 0.94295 0.0
C225 C 0.06356 0.55864 0.92588 0.0
C226 C 1.04069 0.57609 0.86606 0.0
C227 C 1.02937 0.59585 0.8742 0.0
C228 C 0.15841 0.65259 0.46766 0.0
C229 C 0.15174 0.64273 0.48388 0.0
C230 C 0.11869 0.6191 0.48751 0.0
C231 C 0.09277 0.60639 0.47534 0.0
H232 H 0.99003 0.59203 0.46656 0.0
H233 H 0.94069 0.55366 0.48097 0.0
H234 H 0.9097 0.47959 0.44118 0.0
H235 H 0.95921 0.51813 0.42667 0.0
H236 H 1.00719 0.5487 0.39432 0.0
H237 H 1.01823 0.54705 0.36559 0.0
H238 H 0.12091 0.62684 0.37544 0.0
H239 H 0.11009 0.62857 0.40424 0.0
H240 H 0.13835 0.64801 0.44312 0.0
H241 H 0.18344 0.6713 0.46446 0.0
H242 H 0.11275 0.6106 0.4998 0.0
H243 H 0.06752 0.58841 0.47862 0.0
N244 N 1.03933 0.58983 0.45109 0.0
N245 N 1.01896 0.57516 0.42385 0.0
N246 N 0.07735 0.60389 0.43046 0.0
C247 C 1.01302 0.57578 0.43989 0.0
C248 C 1.05119 0.58967 0.41903 0.0
C249 C 0.07147 0.60373 0.44655 0.0
C250 C 0.97868 0.55766 0.44569 0.0
C251 C 0.97199 0.56803 0.46062 0.0
C252 C 0.94364 0.5462 0.46882 0.0
C253 C 0.92182 0.51356 0.46227 0.0
C254 C 0.92644 0.50462 0.4465 0.0
C255 C 0.95464 0.52668 0.43818 0.0
C256 C 1.05775 0.58882 0.40157 0.0
C257 C 1.03213 0.56595 0.39039 0.0
C258 C 1.03848 0.56478 0.37396 0.0
C259 C 0.07044 0.58674 0.36835 0.0
C260 C 0.09602 0.60973 0.37947 0.0
C261 C 0.08982 0.6106 0.39595 0.0
C262 C 0.09935 0.61674 0.45921 0.0
C263 C 0.13252 0.63952 0.45542 0.0
C264 C 0.55688 0.10521 0.79182 0.0
C265 C 0.54818 0.1015 0.80818 0.0
C266 C 0.52307 0.07005 0.81308 0.0
C267 C 0.5068 0.04281 0.80181 0.0
H268 H 0.43502 0.94238 0.79756 0.0
H269 H 0.42331 0.89301 0.81263 0.0
H270 H 0.44104 0.84822 0.77005 0.0
H271 H 0.45404 0.8986 0.75503 0.0
H272 H 0.47604 0.94644 0.72231 0.0
H273 H 0.49017 0.95587 0.6938 0.0
H274 H 0.53295 0.06317 0.70287 0.0
H275 H 0.51972 0.05399 0.73128 0.0
H276 H 0.54764 0.08179 0.76798 0.0
H277 H 0.57575 0.12939 0.78766 0.0
H278 H 0.51591 0.06656 0.82562 0.0
H279 H 0.4875 1.01891 0.80601 0.0
N280 N 0.47835 0.98611 0.77887 0.0
N281 N 0.47032 0.96284 0.75228 0.0
N282 N 0.50363 1.02136 0.7574 0.0
C283 C 0.46426 0.95871 0.76842 0.0
C284 C 0.48966 0.99432 0.74666 0.0
C285 C 0.49814 1.01744 0.77352 0.0
C286 C 0.44667 0.92489 0.77529 0.0
C287 C 0.43556 0.92164 0.79123 0.0
C288 C 0.4284 0.89302 0.79986 0.0
C289 C 0.43214 0.86699 0.7927 0.0
C290 C 0.43877 0.86828 0.77603 0.0
C291 C 0.44605 0.89707 0.76738 0.0
C292 C 0.49685 0.99943 0.72915 0.0
C293 C 0.4884 0.97203 0.71821 0.0
C294 C 0.49641 0.97743 0.70184 0.0
C295 C 0.51293 1.01031 0.69606 0.0
C296 C 0.5209 1.03758 0.70697 0.0
C297 C 0.51307 1.03224 0.72329 0.0
C298 C 0.51513 0.04654 0.78537 0.0
C299 C 0.54045 0.07803 0.78051 0.0
C300 C 0.60379 0.38078 0.10163 0.0
C301 C 0.60048 0.37105 0.11794 0.0
C302 C 0.57242 0.3674 0.12606 0.0
C303 C 0.55022 0.37657 0.11865 0.0
H304 H 0.50088 0.42491 0.13428 0.0
H305 H 0.47583 0.4467 0.15327 0.0
H306 H 0.45086 0.49289 0.1136 0.0
H307 H 0.47525 0.47081 0.09456 0.0
H308 H 0.49292 0.46246 0.059 0.0
H309 H 0.50025 0.48204 0.03129 0.0
H310 H 0.57169 0.44738 0.02461 0.0
H311 H 0.56375 0.42696 0.05216 0.0
H312 H 0.58603 0.39894 0.08195 0.0
H313 H 0.62519 0.38424 0.09498 0.0
H314 H 0.56864 0.35923 0.13849 0.0
H315 H 0.52998 0.37529 0.12559 0.0
N316 N 0.52019 0.41529 0.10666 0.0
N317 N 0.5078 0.44171 0.0854 0.0
N318 N 0.53868 0.4143 0.08053 0.0
C319 C 0.50574 0.4334 0.10128 0.0
C320 C 0.52411 0.43219 0.07492 0.0
C321 C 0.53656 0.40549 0.09636 0.0
C322 C 0.48993 0.44591 0.11284 0.0
C323 C 0.48995 0.43962 0.12957 0.0
C324 C 0.47588 0.45233 0.1405 0.0
C325 C 0.46138 0.47145 0.13491 0.0
C326 C 0.46149 0.47786 0.11823 0.0
C327 C 0.47557 0.46524 0.10731 0.0
C328 C 0.52772 0.44308 0.05785 0.0
C329 C 0.51013 0.45888 0.05163 0.0
C330 C 0.5145 0.47034 0.03576 0.0
C331 C 0.53666 0.46643 0.02574 0.0
C332 C 0.55408 0.45042 0.03192 0.0
C333 C 0.54959 0.4388 0.04776 0.0
C334 C 0.55541 0.3892 0.10288 0.0
C335 C 0.5814 0.38957 0.09416 0.0
H336 H 0.29857 0.59503 0.17247 0.0
H337 H 0.34899 0.5898 0.17415 0.0
H338 H 0.31383 0.5302 0.21666 0.0
H339 H 0.26271 0.53491 0.21487 0.0
H340 H 0.40186 0.5937 0.19246 0.0
H341 H 0.3139 0.45926 0.20909 0.0
H342 H 0.25308 0.41886 0.21061 0.0
H343 H 0.23058 0.4651 0.1705 0.0
H344 H 0.29123 0.50559 0.16875 0.0
H345 H 0.48468 0.50118 0.16558 0.0
H346 H 0.45718 0.52192 0.18401 0.0
H347 H 0.37462 0.49078 0.14804 0.0
H348 H 0.40129 0.46943 0.12991 0.0
H349 H 0.35245 0.47179 0.17794 0.0
H350 H 0.43773 0.57253 0.15258 0.0
H351 H 0.49618 0.61422 0.14679 0.0
H352 H 0.5215 0.63702 0.19812 0.0
H353 H 0.46324 0.59512 0.2042 0.0
C354 C 0.30221 0.58213 0.18264 0.0
C355 C 0.27628 0.5645 0.19325 0.0
C356 C 0.33121 0.57924 0.18362 0.0
C357 C 0.33466 0.55878 0.19524 0.0
C358 C 0.31129 0.54558 0.20742 0.0
C359 C 0.28205 0.54814 0.20633 0.0
C360 C 0.35709 0.54484 0.19191 0.0
C361 C 0.39136 0.56694 0.18968 0.0
C362 C 0.34329 0.50997 0.18807 0.0
C363 C 0.30691 0.48556 0.18893 0.0
C364 C 0.29591 0.4607 0.20061 0.0
C365 C 0.26151 0.43784 0.20151 0.0
C366 C 0.23797 0.4395 0.1907 0.0
C367 C 0.24881 0.4639 0.1789 0.0
C368 C 0.28316 0.48682 0.17796 0.0
C369 C 0.46051 0.49854 0.16172 0.0
C370 C 0.44517 0.48385 0.14628 0.0
C371 C 0.44499 0.51055 0.1722 0.0
C372 C 0.41393 0.5079 0.16736 0.0
C373 C 0.39855 0.49295 0.15203 0.0
C374 C 0.41396 0.48106 0.14161 0.0
C375 C 0.39692 0.52078 0.17789 0.0
C376 C 0.36356 0.49833 0.18148 0.0
C377 C 0.4114 0.55537 0.18252 0.0
C378 C 0.44634 0.5804 0.17885 0.0
C379 C 0.45586 0.58622 0.16263 0.0
C380 C 0.48892 0.60993 0.1593 0.0
C381 C 0.51258 0.62817 0.17208 0.0
C382 C 0.50318 0.6228 0.18823 0.0
C383 C 0.47016 0.59909 0.19162 0.0
H384 H 0.53815 0.64653 0.16948 0.0
H385 H 0.21135 0.42182 0.19143 0.0
H386 H 0.73511 0.26101 0.54698 0.0
H387 H 0.76589 0.32235 0.54534 0.0
H388 H 0.84777 0.31712 0.52391 0.0
H389 H 0.81675 0.25609 0.52457 0.0
H390 H 0.8666 0.38074 0.54185 0.0
H391 H 0.79179 0.30209 0.49943 0.0
H392 H 0.73878 0.25517 0.48726 0.0
H393 H 0.68711 0.30957 0.49809 0.0
H394 H 0.73954 0.35607 0.51129 0.0
H395 H 0.91949 0.45431 0.46738 0.0
H396 H 0.88959 0.41413 0.48811 0.0
H397 H 0.84496 0.47355 0.50312 0.0
H398 H 0.87568 0.51473 0.48239 0.0
H399 H 0.80195 0.39299 0.49489 0.0
H400 H 0.89029 0.4807 0.52927 0.0
H401 H 0.949 0.52493 0.53616 0.0
H402 H 0.981 0.45097 0.53442 0.0
H403 H 0.92257 0.40637 0.52723 0.0
C404 C 0.76004 0.27296 0.5423 0.0
C405 C 0.77273 0.25351 0.53519 0.0
C406 C 0.77769 0.30801 0.54156 0.0
C407 C 0.8085 0.32391 0.53408 0.0
C408 C 0.82386 0.30513 0.52965 0.0
C409 C 0.80594 0.27005 0.53004 0.0
C410 C 0.82021 0.35709 0.52701 0.0
C411 C 0.85229 0.38379 0.5318 0.0
C412 C 0.80141 0.36076 0.51382 0.0
C413 C 0.76936 0.33212 0.50679 0.0
C414 C 0.76892 0.30362 0.4997 0.0
C415 C 0.739 0.27713 0.49258 0.0
C416 C 0.70953 0.27924 0.49205 0.0
C417 C 0.70987 0.30777 0.49874 0.0
C418 C 0.73963 0.3341 0.50616 0.0
C419 C 0.90282 0.45855 0.47486 0.0
C420 C 0.89947 0.48732 0.47317 0.0
C421 C 0.88617 0.43587 0.48682 0.0
C422 C 0.86564 0.44134 0.49721 0.0
C423 C 0.8611 0.46931 0.49526 0.0
C424 C 0.87836 0.49253 0.48341 0.0
C425 C 0.84841 0.41657 0.50964 0.0
C426 C 0.81542 0.39094 0.50562 0.0
C427 C 0.86684 0.41354 0.52313 0.0
C428 C 0.90201 0.4402 0.52764 0.0
C429 C 0.90988 0.4739 0.53023 0.0
C430 C 0.94311 0.49904 0.53421 0.0
C431 C 0.96872 0.49077 0.53571 0.0
C432 C 0.96113 0.45734 0.53326 0.0
C433 C 0.92794 0.4321 0.52926 0.0
H434 H 0.99444 0.51028 0.53879 0.0
H435 H 0.68656 0.25894 0.48626 0.0
H436 H 0.60833 0.7863 0.84226 0.0
H437 H 0.57227 0.81087 0.84341 0.0
H438 H 0.51891 0.74582 0.88207 0.0
H439 H 0.5562 0.72148 0.88138 0.0
H440 H 0.47654 0.73817 0.85706 0.0
H441 H 0.55338 0.83095 0.88912 0.0
H442 H 0.60795 0.87701 0.90047 0.0
H443 H 0.62545 0.926 0.85482 0.0
H444 H 0.5713 0.88004 0.84307 0.0
H445 H 0.39674 0.83461 0.81946 0.0
H446 H 0.41538 0.80912 0.84074 0.0
H447 H 0.49719 0.82216 0.81172 0.0
H448 H 0.47944 0.84775 0.79073 0.0
H449 H 0.51109 0.8571 0.84638 0.0
H450 H 0.44397 0.75192 0.81296 0.0
H451 H 0.39089 0.70375 0.80162 0.0
H452 H 0.35711 0.67679 0.84997 0.0
H453 H 0.40984 0.72537 0.86161 0.0
C454 C 0.59011 0.77816 0.85159 0.0
C455 C 0.58505 0.75159 0.86161 0.0
C456 C 0.56932 0.79234 0.85223 0.0
C457 C 0.54291 0.78036 0.86291 0.0
C458 C 0.53921 0.75554 0.8738 0.0
C459 C 0.56041 0.74153 0.87329 0.0
C460 C 0.51643 0.78985 0.86023 0.0
C461 C 0.48387 0.76423 0.85504 0.0
C462 C 0.52533 0.82391 0.85829 0.0
C463 C 0.55804 0.85198 0.86523 0.0
C464 C 0.56889 0.85146 0.88146 0.0
C465 C 0.59978 0.87759 0.88797 0.0
C466 C 0.62012 0.90444 0.87838 0.0
C467 C 0.60961 0.90524 0.86226 0.0
C468 C 0.57873 0.87918 0.85568 0.0
C469 C 0.4182 0.83125 0.81746 0.0
C470 C 0.43668 0.84342 0.8034 0.0
C471 C 0.42873 0.81669 0.82961 0.0
C472 C 0.45778 0.81419 0.82778 0.0
C473 C 0.4747 0.82401 0.8133 0.0
C474 C 0.46421 0.83829 0.8012 0.0
C475 C 0.47354 0.80515 0.84134 0.0
C476 C 0.50362 0.83112 0.84882 0.0
C477 C 0.46251 0.77139 0.84521 0.0
C478 C 0.43046 0.74289 0.83814 0.0
C479 C 0.42492 0.73628 0.82117 0.0
C480 C 0.39498 0.70874 0.81469 0.0
C481 C 0.37051 0.68741 0.82506 0.0
C482 C 0.37599 0.6935 0.84195 0.0
C483 C 0.40589 0.72104 0.84849 0.0
H484 H 0.3474 0.66608 0.82001 0.0
H485 H 0.64405 0.92463 0.88344 0.0
H486 H 0.90922 0.50407 0.17011 0.0
H487 H 0.85269 0.45649 0.16382 0.0
H488 H 0.81411 0.52508 0.1582 0.0
H489 H 0.87097 0.57309 0.16394 0.0
H490 H 0.78745 0.43481 0.17788 0.0
H491 H 0.76786 0.49928 0.12186 0.0
H492 H 0.80237 0.54109 0.10211 0.0
H493 H 0.87916 0.51344 0.10878 0.0
H494 H 0.84487 0.47111 0.12834 0.0
H495 H 0.62443 0.3945 0.14925 0.0
H496 H 0.67996 0.41009 0.16103 0.0
H497 H 0.6988 0.36517 0.11902 0.0
H498 H 0.64238 0.34826 0.10724 0.0
H499 H 0.74015 0.43254 0.12207 0.0
H500 H 0.70958 0.34041 0.1559 0.0
H501 H 0.67713 0.29754 0.17562 0.0
H502 H 0.70151 0.37544 0.21234 0.0
H503 H 0.73387 0.41883 0.19282 0.0
C504 C 0.88857 0.50901 0.16796 0.0
C505 C 0.89448 0.54228 0.16746 0.0
C506 C 0.85631 0.48177 0.16448 0.0
C507 C 0.82938 0.48735 0.16074 0.0
C508 C 0.83476 0.52041 0.16109 0.0
C509 C 0.86714 0.54773 0.16434 0.0
C510 C 0.79636 0.45899 0.15489 0.0
C511 C 0.77695 0.43406 0.16569 0.0
C512 C 0.78354 0.4575 0.13878 0.0
C513 C 0.8039 0.48222 0.12666 0.0
C514 C 0.79201 0.50198 0.11903 0.0
C515 C 0.81155 0.52579 0.10788 0.0
C516 C 0.84298 0.52998 0.10423 0.0
C517 C 0.85486 0.51025 0.11166 0.0
C518 C 0.8354 0.48637 0.12278 0.0
C519 C 0.6395 0.38627 0.14281 0.0
C520 C 0.62914 0.37077 0.12707 0.0
C521 C 0.67144 0.39529 0.14962 0.0
C522 C 0.69362 0.3891 0.14083 0.0
C523 C 0.68205 0.37032 0.12596 0.0
C524 C 0.64991 0.36096 0.11919 0.0
C525 C 0.73018 0.40886 0.14528 0.0
C526 C 0.75055 0.43255 0.1342 0.0
C527 C 0.74383 0.40884 0.16106 0.0
C528 C 0.72401 0.38291 0.17284 0.0
C529 C 0.70779 0.34844 0.16814 0.0
C530 C 0.68948 0.32402 0.1793 0.0
C531 C 0.6872 0.33376 0.19521 0.0
C532 C 0.7033 0.36793 0.2 0.0
C533 C 0.72171 0.39245 0.18891 0.0
H534 H 0.67301 0.31482 0.20383 0.0
H535 H 0.85809 0.54847 0.09562 0.0
H536 H 0.38061 0.91307 0.53859 0.0
H537 H 0.33957 0.85872 0.54903 0.0
H538 H 0.36358 0.80713 0.51188 0.0
H539 H 0.40475 0.86111 0.50166 0.0
H540 H 0.2863 0.81863 0.53002 0.0
H541 H 0.34423 0.72941 0.52148 0.0
H542 H 0.39698 0.72977 0.52918 0.0
H543 H 0.41933 0.80426 0.56744 0.0
H544 H 0.3661 0.80362 0.56034 0.0
H545 H 0.21835 0.66068 0.48283 0.0
H546 H 0.2642 0.69994 0.50166 0.0
H547 H 0.19221 0.69968 0.53417 0.0
H548 H 0.14621 0.66214 0.5149 0.0
H549 H 0.28987 0.71198 0.53283 0.0
H550 H 0.21759 0.78002 0.54509 0.0
H551 H 0.16683 0.78189 0.53505 0.0
H552 H 0.17936 0.75489 0.4865 0.0
H553 H 0.23035 0.75326 0.49625 0.0
C554 C 0.3778 0.89009 0.53301 0.0
C555 C 0.39529 0.89112 0.51914 0.0
C556 C 0.35449 0.85912 0.53902 0.0
C557 C 0.34868 0.82887 0.53133 0.0
C558 C 0.36803 0.83008 0.51823 0.0
C559 C 0.39114 0.86092 0.5122 0.0
C560 C 0.31806 0.79663 0.53432 0.0
C561 C 0.28702 0.79536 0.53134 0.0
C562 C 0.319 0.76627 0.53589 0.0
C563 C 0.35101 0.76648 0.54034 0.0
C564 C 0.36014 0.74565 0.53165 0.0
C565 C 0.39025 0.74597 0.53588 0.0
C566 C 0.41161 0.76714 0.54874 0.0
C567 C 0.40282 0.78793 0.55744 0.0
C568 C 0.37264 0.78759 0.55332 0.0
C569 C 0.21222 0.66864 0.49407 0.0
C570 C 0.17869 0.65921 0.49707 0.0
C571 C 0.23846 0.69062 0.50499 0.0
C572 C 0.2316 0.70331 0.51914 0.0
C573 C 0.19802 0.69054 0.52319 0.0
C574 C 0.17172 0.66896 0.51214 0.0
C575 C 0.25909 0.73447 0.52734 0.0
C576 C 0.28924 0.7354 0.53244 0.0
C577 C 0.25769 0.76477 0.52746 0.0
C578 C 0.22738 0.76607 0.52144 0.0
C579 C 0.20947 0.77454 0.53228 0.0
C580 C 0.1807 0.77556 0.52664 0.0
C581 C 0.1698 0.76838 0.51017 0.0
C582 C 0.18776 0.76035 0.49927 0.0
C583 C 0.21659 0.75939 0.50484 0.0
H584 H 0.14749 0.76912 0.50583 0.0
H585 H 0.43494 0.7674 0.55198 0.0
H586 H 0.53347 0.33217 0.85192 0.0
H587 H 0.54846 0.28866 0.8565 0.0
H588 H 0.65194 0.35878 0.84708 0.0
H589 H 0.6372 0.40294 0.84276 0.0
H590 H 0.62494 0.30518 0.8264 0.0
H591 H 0.63477 0.32109 0.8835 0.0
H592 H 0.62029 0.33094 0.91089 0.0
H593 H 0.52801 0.23612 0.90634 0.0
H594 H 0.54161 0.22588 0.87882 0.0
H595 H 0.61487 0.14898 0.81329 0.0
H596 H 0.63797 0.2031 0.8286 0.0
H597 H 0.53844 0.17516 0.84376 0.0
H598 H 0.51552 0.12107 0.82886 0.0
H599 H 0.58552 0.21569 0.86683 0.0
H600 H 0.56657 0.21357 0.80743 0.0
H601 H 0.57653 0.20348 0.77909 0.0
H602 H 0.68237 0.27322 0.78768 0.0
H603 H 0.67302 0.28333 0.81616 0.0
C604 C 0.55968 0.3388 0.85143 0.0
C605 C 0.58403 0.37088 0.84672 0.0
C606 C 0.56827 0.31386 0.85412 0.0
C607 C 0.60137 0.32051 0.8522 0.0
C608 C 0.62628 0.35319 0.84866 0.0
C609 C 0.61772 0.37824 0.84603 0.0
C610 C 0.60781 0.29188 0.85067 0.0
C611 C 0.61756 0.28616 0.8355 0.0
C612 C 0.59765 0.26688 0.86244 0.0
C613 C 0.58925 0.27274 0.87904 0.0
C614 C 0.61128 0.3024 0.88829 0.0
C615 C 0.60323 0.30805 0.90385 0.0
C616 C 0.57325 0.28417 0.91035 0.0
C617 C 0.55126 0.25457 0.9013 0.0
C618 C 0.55917 0.2488 0.88573 0.0
C619 C 0.59815 0.15418 0.82023 0.0
C620 C 0.56335 0.13117 0.8197 0.0
C621 C 0.61138 0.18495 0.82902 0.0
C622 C 0.58981 0.19336 0.83707 0.0
C623 C 0.55557 0.16918 0.83768 0.0
C624 C 0.54244 0.13831 0.82908 0.0
C625 C 0.60097 0.22865 0.84233 0.0
C626 C 0.59445 0.23548 0.8581 0.0
C627 C 0.61361 0.25469 0.83105 0.0
C628 C 0.61919 0.24884 0.81393 0.0
C629 C 0.59198 0.22659 0.80328 0.0
C630 C 0.59751 0.22087 0.7872 0.0
C631 C 0.63008 0.23762 0.7816 0.0
C632 C 0.65717 0.26019 0.79205 0.0
C633 C 0.65178 0.2659 0.80816 0.0
H634 H 0.63432 0.23317 0.76915 0.0
H635 H 0.56707 0.2886 0.9224 0.0
H636 H 0.63595 0.99727 0.5092 0.0
H637 H 0.63601 0.94424 0.51267 0.0
H638 H 0.53765 0.88991 0.48787 0.0
H639 H 0.53709 0.94301 0.48477 0.0
H640 H 0.53766 0.85323 0.51133 0.0
H641 H 0.6163 0.9062 0.47025 0.0
H642 H 0.6658 0.95165 0.4578 0.0
H643 H 0.73073 0.94997 0.49665 0.0
H644 H 0.68154 0.90478 0.50945 0.0
H645 H 0.54223 0.69791 0.50486 0.0
H646 H 0.54021 0.74927 0.49878 0.0
H647 H 0.63845 0.80953 0.52299 0.0
H648 H 0.64143 0.75873 0.52829 0.0
H649 H 0.63694 0.84221 0.49849 0.0
H650 H 0.55632 0.79002 0.54001 0.0
H651 H 0.50604 0.74378 0.55162 0.0
H652 H 0.44421 0.74298 0.5106 0.0
H653 H 0.49411 0.78913 0.49875 0.0
C654 C 0.61429 0.97416 0.50436 0.0
C655 C 0.58662 0.97506 0.49655 0.0
C656 C 0.61443 0.94348 0.50629 0.0
C657 C 0.58711 0.9123 0.50031 0.0
C658 C 0.55928 0.91312 0.49263 0.0
C659 C 0.55905 0.94383 0.49078 0.0
C660 C 0.58742 0.87913 0.50222 0.0
C661 C 0.55932 0.85091 0.50828 0.0
C662 C 0.61556 0.87525 0.49856 0.0
C663 C 0.6452 0.90232 0.49088 0.0
C664 C 0.64111 0.91568 0.47619 0.0
C665 C 0.66911 0.94137 0.46907 0.0
C666 C 0.70138 0.95375 0.47645 0.0
C667 C 0.70572 0.94039 0.49096 0.0
C668 C 0.67779 0.91471 0.49814 0.0
C669 C 0.56369 0.72201 0.50876 0.0
C670 C 0.59183 0.72332 0.51734 0.0
C671 C 0.56229 0.75173 0.50546 0.0
C672 C 0.58881 0.78408 0.51071 0.0
C673 C 0.61728 0.78541 0.51883 0.0
C674 C 0.61878 0.75585 0.52205 0.0
C675 C 0.58737 0.81643 0.50781 0.0
C676 C 0.61528 0.84453 0.50155 0.0
C677 C 0.55899 0.82012 0.51119 0.0
C678 C 0.52896 0.79276 0.51843 0.0
C679 C 0.532 0.77988 0.53346 0.0
C680 C 0.50357 0.75372 0.54009 0.0
C681 C 0.47196 0.74037 0.53184 0.0
C682 C 0.46868 0.75331 0.51699 0.0
C683 C 0.49701 0.77951 0.51033 0.0
H684 H 0.44999 0.72008 0.53697 0.0
H685 H 0.72303 0.97364 0.47092 0.0
H686 H 0.7156 0.6214 0.84071 0.0
H687 H 0.76904 0.62143 0.84432 0.0
H688 H 0.72128 0.51932 0.82444 0.0
H689 H 0.66749 0.51893 0.82116 0.0
H690 H 0.76197 0.52337 0.84837 0.0
H691 H 0.77937 0.59354 0.80295 0.0
H692 H 0.78104 0.64075 0.78802 0.0
H693 H 0.85453 0.71151 0.82365 0.0
H694 H 0.85299 0.66469 0.83891 0.0
H695 H 0.91827 0.52238 0.84168 0.0
H696 H 0.8643 0.52045 0.83589 0.0
H697 H 0.90781 0.62338 0.85405 0.0
H698 H 0.96201 0.62608 0.859 0.0
H699 H 0.86852 0.61749 0.83003 0.0
H700 H 0.84993 0.547 0.87584 0.0
H701 H 0.84783 0.49962 0.8908 0.0
H702 H 0.77638 0.42929 0.85437 0.0
H703 H 0.77838 0.4763 0.83909 0.0
C704 C 0.7163 0.5989 0.83699 0.0
C705 C 0.68665 0.57026 0.83048 0.0
C706 C 0.74729 0.59899 0.839 0.0
C707 C 0.75019 0.57056 0.83444 0.0
C708 C 0.72048 0.54181 0.82809 0.0
C709 C 0.68943 0.54167 0.82611 0.0
C710 C 0.78375 0.57067 0.83646 0.0
C711 C 0.78508 0.54383 0.8441 0.0
C712 C 0.81474 0.5974 0.83132 0.0
C713 C 0.81582 0.62559 0.82215 0.0
C714 C 0.79572 0.61916 0.80765 0.0
C715 C 0.79667 0.64585 0.79912 0.0
C716 C 0.81781 0.6791 0.8049 0.0
C717 C 0.83813 0.68574 0.8192 0.0
C718 C 0.83726 0.65914 0.82778 0.0
C719 C 0.9167 0.54486 0.84429 0.0
C720 C 0.94529 0.57427 0.85109 0.0
C721 C 0.88527 0.54357 0.84117 0.0
C722 C 0.88087 0.57151 0.84482 0.0
C723 C 0.90963 0.60113 0.85115 0.0
C724 C 0.94099 0.6025 0.85419 0.0
C725 C 0.84686 0.57033 0.84208 0.0
C726 C 0.84543 0.59699 0.83429 0.0
C727 C 0.8158 0.54343 0.84709 0.0
C728 C 0.8146 0.51518 0.85624 0.0
C729 C 0.83397 0.52144 0.87097 0.0
C730 C 0.83276 0.49466 0.87951 0.0
C731 C 0.81207 0.46148 0.87351 0.0
C732 C 0.79245 0.45501 0.85898 0.0
C733 C 0.7936 0.48171 0.85038 0.0
H734 H 0.81116 0.44077 0.88015 0.0
H735 H 0.81851 0.69973 0.79828 0.0
H736 H 0.21738 0.65432 0.15815 0.0
H737 H 0.27143 0.70696 0.1612 0.0
H738 H 0.22105 0.75841 0.17944 0.0
H739 H 0.16684 0.70607 0.17588 0.0
H740 H 0.26623 0.79997 0.16149 0.0
H741 H 0.27444 0.73256 0.20417 0.0
H742 H 0.27223 0.68133 0.21483 0.0
H743 H 0.3518 0.6943 0.18445 0.0
H744 H 0.35425 0.74545 0.17348 0.0
H745 H 0.41003 0.9494 0.19429 0.0
H746 H 0.35828 0.89565 0.18995 0.0
H747 H 0.41454 0.85057 0.17165 0.0
H748 H 0.46715 0.90434 0.17679 0.0
H749 H 0.36759 0.80503 0.18868 0.0
H750 H 0.36073 0.87241 0.14644 0.0
H751 H 0.36172 0.92201 0.13439 0.0
H752 H 0.27908 0.9079 0.16274 0.0
H753 H 0.27787 0.85844 0.17511 0.0
C754 C 0.21762 0.67675 0.16284 0.0
C755 C 0.18706 0.67525 0.16676 0.0
C756 C 0.24898 0.7072 0.16473 0.0
C757 C 0.25139 0.73749 0.17092 0.0
C758 C 0.22076 0.73601 0.17468 0.0
C759 C 0.18939 0.70566 0.17266 0.0
C760 C 0.28526 0.77057 0.17331 0.0
C761 C 0.2881 0.80088 0.16768 0.0
C762 C 0.31493 0.77269 0.18091 0.0
C763 C 0.31433 0.74267 0.18791 0.0
C764 C 0.29143 0.72445 0.19975 0.0
C765 C 0.29011 0.69541 0.20583 0.0
C766 C 0.31179 0.68451 0.20028 0.0
C767 C 0.335 0.70276 0.18872 0.0
C768 C 0.3364 0.73181 0.18259 0.0
C769 C 0.41194 0.92824 0.18949 0.0
C770 C 0.44383 0.9322 0.18606 0.0
C771 C 0.38169 0.89708 0.18674 0.0
C772 C 0.38145 0.86818 0.18015 0.0
C773 C 0.4132 0.87192 0.17668 0.0
C774 C 0.44363 0.9032 0.17949 0.0
C775 C 0.34837 0.83452 0.17704 0.0
C776 C 0.34569 0.80412 0.18252 0.0
C777 C 0.3188 0.83223 0.16923 0.0
C778 C 0.31943 0.86191 0.16181 0.0
C779 C 0.34292 0.88002 0.15018 0.0
C780 C 0.3435 0.90809 0.14329 0.0
C781 C 0.32054 0.91815 0.14783 0.0
C782 C 0.29688 0.9001 0.15925 0.0
C783 C 0.29622 0.87203 0.1662 0.0
H784 H 0.32103 0.93988 0.14247 0.0
H785 H 0.31064 0.66194 0.20495 0.0
H786 H 0.64027 0.19715 0.49884 0.0
H787 H 0.64015 0.25039 0.50291 0.0
H788 H 0.53199 0.19608 0.504 0.0
H789 H 0.53183 0.14275 0.49992 0.0
H790 H 0.54714 0.24879 0.4877 0.0
H791 H 0.59217 0.23447 0.53847 0.0
H792 H 0.63098 0.22696 0.5574 0.0
H793 H 0.71309 0.32192 0.54427 0.0
H794 H 0.67505 0.32963 0.52499 0.0
H795 H 0.52823 0.38493 0.52013 0.0
H796 H 0.52995 0.33281 0.51561 0.0
H797 H 0.6374 0.39023 0.51132 0.0
H798 H 0.63597 0.44271 0.51624 0.0
H799 H 0.62345 0.33678 0.52904 0.0
H800 H 0.57903 0.3494 0.47744 0.0
H801 H 0.54016 0.35741 0.45874 0.0
H802 H 0.45656 0.26635 0.47455 0.0
H803 H 0.49489 0.25802 0.49351 0.0
C804 C 0.61634 0.19631 0.49995 0.0
C805 C 0.58605 0.16498 0.49905 0.0
C806 C 0.61634 0.22712 0.50234 0.0
C807 C 0.58615 0.22808 0.50396 0.0
C808 C 0.55586 0.1968 0.50284 0.0
C809 C 0.55581 0.16597 0.50052 0.0
C810 C 0.58597 0.2613 0.50664 0.0
C811 C 0.56364 0.26767 0.49694 0.0
C812 C 0.60784 0.28708 0.51839 0.0
C813 C 0.63082 0.28229 0.52998 0.0
C814 C 0.6186 0.25353 0.53942 0.0
C815 C 0.64049 0.24924 0.55025 0.0
C816 C 0.67456 0.2738 0.55195 0.0
C817 C 0.68679 0.30273 0.54285 0.0
C818 C 0.66506 0.30706 0.53196 0.0
C819 C 0.55241 0.38678 0.51828 0.0
C820 C 0.58197 0.41877 0.51863 0.0
C821 C 0.5533 0.35658 0.51551 0.0
C822 C 0.58378 0.35684 0.51291 0.0
C823 C 0.61337 0.38871 0.51323 0.0
C824 C 0.61247 0.41903 0.51591 0.0
C825 C 0.58473 0.3241 0.51011 0.0
C826 C 0.6071 0.31784 0.51979 0.0
C827 C 0.56288 0.29837 0.4984 0.0
C828 C 0.53979 0.30327 0.48701 0.0
C829 C 0.55232 0.33122 0.47702 0.0
C830 C 0.53039 0.33579 0.46636 0.0
C831 C 0.4959 0.31245 0.46549 0.0
C832 C 0.48328 0.28443 0.47525 0.0
C833 C 0.5051 0.27976 0.48595 0.0
H834 H 0.47896 0.31603 0.45723 0.0
H835 H 0.69141 0.27054 0.56042 0.0
H836 H 0.50864 0.61133 0.81517 0.0
H837 H 0.45515 0.61092 0.81714 0.0
H838 H 0.42147 0.52866 0.84977 0.0
H839 H 0.47391 0.52738 0.84669 0.0
H840 H 0.36979 0.51685 0.83359 0.0
H841 H 0.45096 0.62477 0.86134 0.0
H842 H 0.50421 0.67864 0.86148 0.0
H843 H 0.46947 0.70571 0.81797 0.0
H844 H 0.41545 0.6521 0.81781 0.0
H845 H 0.23674 0.52879 0.86869 0.0
H846 H 0.28911 0.53047 0.86265 0.0
H847 H 0.30933 0.60715 0.82801 0.0
H848 H 0.25729 0.60701 0.83475 0.0
H849 H 0.36697 0.62297 0.84283 0.0
H850 H 0.28291 0.51969 0.81708 0.0
H851 H 0.2312 0.4641 0.81453 0.0
H852 H 0.27183 0.42696 0.85167 0.0
H853 H 0.32363 0.48247 0.8546 0.0
C854 C 0.48989 0.59312 0.82279 0.0
C855 C 0.49617 0.56947 0.83078 0.0
C856 C 0.45905 0.59315 0.82413 0.0
C857 C 0.43358 0.57046 0.8341 0.0
C858 C 0.43997 0.54672 0.84201 0.0
C859 C 0.47037 0.54604 0.84028 0.0
C860 C 0.40043 0.57087 0.83621 0.0
C861 C 0.36957 0.54019 0.83589 0.0
C862 C 0.39865 0.60099 0.83853 0.0
C863 C 0.42947 0.63441 0.83947 0.0
C864 C 0.45463 0.64236 0.85188 0.0
C865 C 0.48499 0.67278 0.85191 0.0
C866 C 0.49056 0.69534 0.83955 0.0
C867 C 0.46523 0.68805 0.82744 0.0
C868 C 0.43462 0.6578 0.82745 0.0
C869 C 0.25221 0.54645 0.85988 0.0
C870 C 0.24205 0.56801 0.85242 0.0
C871 C 0.28241 0.547 0.85619 0.0
C872 C 0.30385 0.56862 0.8446 0.0
C873 C 0.29379 0.59009 0.837 0.0
C874 C 0.26349 0.5897 0.84076 0.0
C875 C 0.33656 0.56886 0.84073 0.0
C876 C 0.36723 0.59964 0.84063 0.0
C877 C 0.3381 0.53878 0.83788 0.0
C878 C 0.30703 0.50534 0.83616 0.0
C879 C 0.28072 0.49974 0.82478 0.0
C880 C 0.25141 0.46823 0.82326 0.0
C881 C 0.2482 0.44204 0.83296 0.0
C882 C 0.27434 0.44728 0.84418 0.0
C883 C 0.3037 0.47875 0.84577 0.0
H884 H 0.22549 0.41767 0.83176 0.0
H885 H 0.51431 0.71866 0.83944 0.0
H886 H 0.96338 0.50564 0.16002 0.0
H887 H 0.9108 0.45276 0.16382 0.0
H888 H 0.96796 0.40341 0.17555 0.0
H889 H 1.0205 0.45593 0.17159 0.0
H890 H 0.91408 0.36094 0.15701 0.0
H891 H 0.93078 0.43155 0.20373 0.0
H892 H 0.93842 0.48152 0.2194 0.0
H893 H 0.84007 0.46148 0.20205 0.0
H894 H 0.83216 0.41194 0.18586 0.0
H895 H 0.78311 0.21212 0.19033 0.0
H896 H 0.83368 0.26535 0.18567 0.0
H897 H 0.77291 0.3118 0.17595 0.0
H898 H 0.72191 0.25851 0.18113 0.0
H899 H 0.82778 0.35617 0.19323 0.0
H900 H 0.81309 0.28921 0.14497 0.0
H901 H 0.80508 0.23942 0.12889 0.0
H902 H 0.89857 0.25235 0.14989 0.0
H903 H 0.90693 0.30199 0.16626 0.0
C904 C 0.96498 0.48361 0.16338 0.0
C905 C 0.99692 0.48577 0.16546 0.0
C906 C 0.93456 0.45314 0.1657 0.0
C907 C 0.93459 0.42343 0.17029 0.0
C908 C 0.96645 0.42544 0.17209 0.0
C909 C 0.99686 0.45588 0.16983 0.0
C910 C 0.90185 0.39048 0.17311 0.0
C911 C 0.89556 0.36013 0.16511 0.0
C912 C 0.87649 0.38852 0.18339 0.0
C913 C 0.88122 0.41837 0.1932 0.0
C914 C 0.91097 0.43805 0.203 0.0
C915 C 0.91532 0.46631 0.21203 0.0
C916 C 0.88985 0.47483 0.21162 0.0
C917 C 0.85985 0.45494 0.20231 0.0
C918 C 0.85546 0.4268 0.19317 0.0
C919 C 0.78011 0.2335 0.1873 0.0
C920 C 0.74753 0.23011 0.18623 0.0
C921 C 0.80951 0.26431 0.18441 0.0
C922 C 0.80801 0.29343 0.18017 0.0
C923 C 0.77555 0.29025 0.17911 0.0
C924 C 0.74599 0.25928 0.18195 0.0
C925 C 0.84008 0.32683 0.17707 0.0
C926 C 0.84628 0.35716 0.18506 0.0
C927 C 0.86538 0.32891 0.16678 0.0
C928 C 0.86046 0.29912 0.15695 0.0
C929 C 0.83182 0.28129 0.14624 0.0
C930 C 0.82723 0.25312 0.13707 0.0
C931 C 0.85125 0.24268 0.1384 0.0
C932 C 0.87996 0.26044 0.14889 0.0
C933 C 0.88465 0.28861 0.15811 0.0
H934 H 0.84766 0.22086 0.13129 0.0
H935 H 0.89328 0.49673 0.21861 0.0
H936 H 0.06927 0.52127 0.10892 0.0
H937 H 0.06849 0.51836 0.0791 0.0
H938 H 0.11564 0.62684 0.07864 0.0
H939 H 0.11464 0.62956 0.10834 0.0
H940 H 0.07226 0.6044 0.05546 0.0
H941 H 0.15811 0.5781 0.07166 0.0
H942 H 0.18309 0.54786 0.08593 0.0
H943 H 0.11084 0.45526 0.06064 0.0
H944 H 0.08514 0.48488 0.04636 0.0
H945 H 0.13304 0.62054 0.97461 0.0
H946 H 0.13188 0.6206 0.00451 0.0
H947 H 1.05232 0.51687 0.00154 0.0
H948 H 1.0528 0.51693 0.97161 0.0
H949 H 0.11133 0.53565 0.02579 0.0
H950 H 1.02752 0.56638 0.00919 0.0
H951 H 1.00744 0.60034 0.99448 0.0
H952 H 0.0834 0.68999 0.02054 0.0
H953 H 0.10427 0.65659 0.03522 0.0
C954 C 0.07953 0.54449 0.10245 0.0
C955 C 0.09207 0.57565 0.11104 0.0
C956 C 0.07931 0.54285 0.08534 0.0
C957 C 0.09259 0.57243 0.07642 0.0
C958 C 0.10516 0.60356 0.08507 0.0
C959 C 0.10469 0.60512 0.10212 0.0
C960 C 0.09288 0.57108 0.05813 0.0
C961 C 0.08128 0.58966 0.04909 0.0
C962 C 0.10409 0.55153 0.04952 0.0
C963 C 0.11949 0.53365 0.05807 0.0
C964 C 0.1474 0.55124 0.06923 0.0
C965 C 0.16171 0.53422 0.0773 0.0
C966 C 0.1485 0.49964 0.07423 0.0
C967 C 0.12101 0.48203 0.06303 0.0
C968 C 0.10658 0.49893 0.05493 0.0
C969 C 0.11537 0.59773 0.98034 0.0
C970 C 0.09297 0.56875 0.97076 0.0
C971 C 0.11468 0.59782 0.99741 0.0
C972 C 0.09202 0.56874 0.00527 0.0
C973 C 0.07004 0.53957 0.99575 0.0
C974 C 0.07022 0.53969 0.97866 0.0
C975 C 0.09096 0.56903 0.0234 0.0
C976 C 0.10238 0.5503 0.03232 0.0
C977 C 0.08032 0.58897 0.03192 0.0
C978 C 0.06768 0.60904 0.02317 0.0
C979 C 1.04015 0.59338 0.01167 0.0
C980 C 1.02858 0.61252 0.00336 0.0
C981 C 1.04419 0.64732 0.00654 0.0
C982 C 0.07136 0.66304 0.01807 0.0
C983 C 0.08305 0.64401 0.02639 0.0
H984 H 1.0352 0.6621 1.0001 0.0
H985 H 0.15962 0.48651 0.08049 0.0
H986 H 0.54775 0.0683 0.43718 0.0
H987 H 0.55338 0.07023 0.4078 0.0
H988 H 0.65494 0.08776 0.41491 0.0
H989 H 0.64917 0.08503 0.44451 0.0
H990 H 0.59092 0.11651 0.38859 0.0
H991 H 0.67443 0.05516 0.38178 0.0
H992 H 0.68635 1.01435 0.39569 0.0
H993 H 0.58782 0.96707 0.41473 0.0
H994 H 0.57518 1.00731 0.40077 0.0
H995 H 0.64162 0.13641 0.30707 0.0
H996 H 0.64291 0.13612 0.33685 0.0
H997 H 0.58037 1.02787 0.33446 0.0
H998 H 0.58028 1.02776 0.30471 0.0
H999 H 0.62602 0.04496 0.35844 0.0
H1000 H 0.54798 0.08173 0.34171 0.0
H1001 H 0.52924 0.11737 0.32757 0.0
H1002 H 0.6049 0.20468 0.35523 0.0
H1003 H 0.62438 0.1696 0.36939 0.0
C1004 C 0.57136 0.07254 0.43258 0.0
C1005 C 0.59797 0.07639 0.44332 0.0
C1006 C 0.57457 0.07375 0.41568 0.0
C1007 C 0.60449 0.0789 0.40898 0.0
C1008 C 0.63135 0.08321 0.41968 0.0
C1009 C 0.62807 0.08178 0.43664 0.0
C1010 C 0.60717 0.0797 0.39084 0.0
C1011 C 0.59879 0.10097 0.38205 0.0
C1012 C 0.61688 0.05909 0.38211 0.0
C1013 C 0.62404 1.0345 0.39039 0.0
C1014 C 0.65529 1.03599 0.3889 0.0
C1015 C 0.66217 1.01297 0.39679 0.0
C1016 C 0.63791 0.98822 0.40614 0.0
C1017 C 0.60665 0.98634 0.40755 0.0
C1018 C 0.59963 1.00927 0.39966 0.0
C1019 C 0.62853 0.11243 0.31283 0.0
C1020 C 0.61063 0.08212 0.30333 0.0
C1021 C 0.629 0.11235 0.32993 0.0
C1022 C 0.6113 0.08201 0.33802 0.0
C1023 C 0.59414 0.05167 0.3286 0.0
C1024 C 0.59379 0.0517 0.31151 0.0
C1025 C 0.60989 0.08187 0.35623 0.0
C1026 C 0.6185 0.06075 0.36501 0.0
C1027 C 0.59955 0.10198 0.36493 0.0
C1028 C 0.58786 0.12311 0.35648 0.0
C1029 C 0.56077 0.10857 0.34469 0.0
C1030 C 0.55 0.12866 0.33668 0.0
C1031 C 0.56593 0.16328 0.34047 0.0
C1032 C 0.59262 0.17787 0.35229 0.0
C1033 C 0.60353 0.15789 0.36032 0.0
H1034 H 0.55755 0.17879 0.33426 0.0
H1035 H 0.6433 0.97045 0.41225 0.0
H1036 H 0.63507 0.62785 0.77682 0.0
H1037 H 0.63571 0.63105 0.74703 0.0
H1038 H 0.55047 0.53028 0.742 0.0
H1039 H 0.54915 0.52722 0.77158 0.0
H1040 H 0.6455 0.59765 0.72355 0.0
H1041 H 0.5009 0.5207 0.7087 0.0
H1042 H 0.44831 0.50975 0.7211 0.0
H1043 H 0.50181 0.60404 0.74862 0.0
H1044 H 0.55461 0.61577 0.73621 0.0
H1045 H 0.61321 0.54567 0.63969 0.0
H1046 H 0.61398 0.54774 0.66946 0.0
H1047 H 0.57063 0.61289 0.66792 0.0
H1048 H 0.56826 0.60963 0.63814 0.0
H1049 H 0.54155 0.56893 0.68978 0.0
H1050 H 0.6562 0.64299 0.67833 0.0
H1051 H 0.71045 0.66028 0.66602 0.0
H1052 H 0.71977 0.58334 0.69121 0.0
H1053 H 0.66533 0.56529 0.70351 0.0
C1054 C 0.61637 0.60643 0.76937 0.0
C1055 C 0.59191 0.57739 0.77667 0.0
C1056 C 0.61684 0.60824 0.75231 0.0
C1057 C 0.59285 0.58109 0.74216 0.0
C1058 C 0.56881 0.55189 0.74946 0.0
C1059 C 0.56819 0.55015 0.76646 0.0
C1060 C 0.59292 0.58302 0.72398 0.0
C1061 C 0.62275 0.59139 0.71619 0.0
C1062 C 0.56349 0.57556 0.71425 0.0
C1063 C 0.53177 0.56894 0.72163 0.0
C1064 C 0.50141 0.53916 0.71734 0.0
C1065 C 0.47157 0.53281 0.72438 0.0
C1066 C 0.47174 0.55614 0.73568 0.0
C1067 C 0.50174 0.58593 0.73991 0.0
C1068 C 0.53163 0.59243 0.73289 0.0
C1069 C 0.60347 0.56016 0.64563 0.0
C1070 C 0.59076 0.57756 0.63637 0.0
C1071 C 0.60433 0.56167 0.66273 0.0
C1072 C 0.59283 0.5809 0.67107 0.0
C1073 C 0.57981 0.59799 0.66186 0.0
C1074 C 0.57879 0.59637 0.64477 0.0
C1075 C 0.59395 0.58286 0.68932 0.0
C1076 C 0.56432 0.57521 0.69713 0.0
C1077 C 0.62376 0.59178 0.69906 0.0
C1078 C 0.65654 0.6026 0.69172 0.0
C1079 C 0.6697 0.6296 0.68115 0.0
C1080 C 0.7005 0.63956 0.67419 0.0
C1081 C 0.7185 0.62286 0.6778 0.0
C1082 C 0.70578 0.59622 0.68841 0.0
C1083 C 0.67497 0.58614 0.6954 0.0
H1084 H 0.74235 0.63061 0.6724 0.0
H1085 H 0.44862 0.55115 0.74113 0.0
H1086 H 0.61906 0.1071 0.55109 0.0
H1087 H 0.61053 0.10081 0.58042 0.0
H1088 H 0.51759 1.0074 0.57026 0.0
H1089 H 0.52573 1.01343 0.54113 0.0
H1090 H 0.51049 0.04801 0.5925 0.0
H1091 H 0.58808 1.00687 0.58334 0.0
H1092 H 0.64085 1.01138 0.57416 0.0
H1093 H 0.69852 0.0957 0.60784 0.0
H1094 H 0.64607 0.09196 0.61707 0.0
H1095 H 0.47519 0.97353 0.66874 0.0
H1096 H 0.48894 0.98491 0.64027 0.0
H1097 H 0.58349 0.07289 0.65556 0.0
H1098 H 0.57064 0.06081 0.68409 0.0
H1099 H 0.59228 1.03984 0.63114 0.0
H1100 H 0.51579 0.08011 0.64136 0.0
H1101 H 0.46368 0.07713 0.65053 0.0
H1102 H 0.40482 0.99704 0.61492 0.0
H1103 H 0.45656 0.99922 0.60568 0.0
C1104 C 0.59681 0.08525 0.55512 0.0
C1105 C 0.57309 0.06079 0.54377 0.0
C1106 C 0.59203 0.08165 0.57187 0.0
C1107 C 0.56349 0.05354 0.57749 0.0
C1108 C 0.53972 1.02931 0.56617 0.0
C1109 C 0.54451 1.0328 0.5495 0.0
C1110 C 0.55807 0.04902 0.59516 0.0
C1111 C 0.52822 0.04592 0.60094 0.0
C1112 C 0.58168 0.04727 0.60622 0.0
C1113 C 0.61318 0.04936 0.60077 0.0
C1114 C 0.61203 1.02653 0.5887 0.0
C1115 C 0.64187 1.02892 0.5835 0.0
C1116 C 0.67302 0.05387 0.59038 0.0
C1117 C 0.67438 0.07642 0.60251 0.0
C1118 C 0.6446 0.07417 0.60773 0.0
C1119 C 0.49913 0.99502 0.66607 0.0
C1120 C 0.52168 1.01639 0.67872 0.0
C1121 C 0.5068 1.00172 0.64977 0.0
C1122 C 0.53698 1.03013 0.64577 0.0
C1123 C 0.55995 0.05098 0.65835 0.0
C1124 C 0.5524 0.0442 0.67465 0.0
C1125 C 0.54437 1.03824 0.62845 0.0
C1126 C 0.57462 0.04211 0.62275 0.0
C1127 C 0.52122 0.04094 0.61745 0.0
C1128 C 0.49004 1.03963 0.62293 0.0
C1129 C 0.49171 0.06169 0.63557 0.0
C1130 C 0.46224 0.06018 0.64076 0.0
C1131 C 0.43095 1.03686 0.63333 0.0
C1132 C 0.42907 1.01507 0.62067 0.0
C1133 C 0.45847 1.01645 0.61544 0.0
H1134 H 0.40816 1.03573 0.63737 0.0
H1135 H 0.6961 0.05568 0.58633 0.0
H1136 H 0.58224 0.60146 0.88306 0.0
H1137 H 0.57222 0.58913 0.91195 0.0
H1138 H 0.58092 0.49998 0.90477 0.0
H1139 H 0.59083 0.51192 0.87611 0.0
H1140 H 0.52435 0.48753 0.92063 0.0
H1141 H 0.64396 0.56911 0.92382 0.0
H1142 H 0.69354 0.62447 0.91946 0.0
H1143 H 0.65228 0.67334 0.9482 0.0
H1144 H 0.60221 0.61826 0.95255 0.0
H1145 H 0.54312 0.43598 0.99819 0.0
H1146 H 0.55172 0.45671 0.97063 0.0
H1147 H 0.54868 0.54522 0.98735 0.0
H1148 H 0.5416 0.52535 0.01519 0.0
H1149 H 0.59806 0.56197 0.96702 0.0
H1150 H 0.48103 0.4812 0.96594 0.0
H1151 H 0.43059 0.42652 0.9703 0.0
H1152 H 0.46482 0.37706 0.93746 0.0
H1153 H 0.51573 0.43139 0.93308 0.0
C1154 C 0.58226 0.57939 0.88769 0.0
C1155 C 0.58726 0.55764 0.87729 0.0
C1156 C 0.57658 0.57242 0.90418 0.0
C1157 C 0.57581 0.54363 0.91046 0.0
C1158 C 0.58126 0.52223 0.90014 0.0
C1159 C 0.58705 0.52921 0.88375 0.0
C1160 C 0.56851 0.53492 0.92767 0.0
C1161 C 0.54058 0.50367 0.93078 0.0
C1162 C 0.58902 0.55657 0.94089 0.0
C1163 C 0.61918 0.58963 0.93834 0.0
C1164 C 0.64533 0.59169 0.92909 0.0
C1165 C 0.67354 0.62301 0.92664 0.0
C1166 C 0.67601 0.65242 0.9335 0.0
C1167 C 0.65031 0.65055 0.94287 0.0
C1168 C 0.62202 0.61929 0.94533 0.0
C1169 C 0.54464 0.46003 0.99608 0.0
C1170 C 0.54158 0.47895 0.00891 0.0
C1171 C 0.54917 0.47168 0.98026 0.0
C1172 C 0.55029 0.50226 0.97688 0.0
C1173 C 0.54768 0.52145 0.98967 0.0
C1174 C 0.54331 0.50989 0.00554 0.0
C1175 C 0.55439 0.51408 0.95996 0.0
C1176 C 0.58158 0.54594 0.9569 0.0
C1177 C 0.53302 0.49311 0.94675 0.0
C1178 C 0.50233 0.46036 0.94928 0.0
C1179 C 0.47793 0.45863 0.95974 0.0
C1180 C 0.44923 0.4277 0.9622 0.0
C1181 C 0.44454 0.39833 0.95418 0.0
C1182 C 0.4685 0.39984 0.94367 0.0
C1183 C 0.49726 0.4307 0.94118 0.0
H1184 H 0.4223 0.3744 0.95611 0.0
H1185 H 0.69787 0.67664 0.9316 0.0
H1186 H 1.04966 0.59335 0.21357 0.0
H1187 H 1.04935 0.59397 0.24327 0.0
H1188 H 0.13183 0.57313 0.24577 0.0
H1189 H 0.13297 0.57348 0.21601 0.0
H1190 H 1.0371 0.54746 0.26401 0.0
H1191 H 0.17978 0.60861 0.28093 0.0
H1192 H 0.23395 0.64785 0.26941 0.0
H1193 H 0.18626 0.69447 0.24268 0.0
H1194 H 0.13194 0.65583 0.25421 0.0
H1195 H 1.05531 0.53188 0.34861 0.0
H1196 H 0.06273 0.53061 0.31928 0.0
H1197 H 0.10627 0.63879 0.31931 0.0
H1198 H 0.09974 0.6402 0.34871 0.0
H1199 H 0.13887 0.62033 0.29985 0.0
H1200 H 1.02209 0.5841 0.30764 0.0
H1201 H 0.96635 0.54881 0.3187 0.0
H1202 H 0.95948 0.46057 0.29538 0.0
H1203 H 1.01542 0.4953 0.28436 0.0
C1204 C 0.06784 0.58903 0.22043 0.0
C1205 C 0.09146 0.58354 0.21245 0.0
C1206 C 0.06755 0.58928 0.23741 0.0
C1207 C 0.09072 0.58387 0.24676 0.0
C1208 C 0.1141 0.57796 0.23882 0.0
C1209 C 0.11466 0.57807 0.22181 0.0
C1210 C 0.09005 0.58421 0.2648 0.0
C1211 C 1.05939 0.56333 0.27184 0.0
C1212 C 0.11904 0.60518 0.27501 0.0
C1213 C 0.15174 0.62908 0.2683 0.0
C1214 C 0.18091 0.62734 0.27265 0.0
C1215 C 0.21163 0.64946 0.26611 0.0
C1216 C 0.21352 0.67355 0.25527 0.0
C1217 C 0.18474 0.67571 0.25102 0.0
C1218 C 0.15397 0.65369 0.25755 0.0
C1219 C 0.0666 0.55536 0.34233 0.0
C1220 C 0.07672 0.58611 0.35085 0.0
C1221 C 0.07083 0.55463 0.32561 0.0
C1222 C 0.08454 0.58455 0.31705 0.0
C1223 C 0.09566 0.6154 0.32566 0.0
C1224 C 0.09188 0.61619 0.34243 0.0
C1225 C 0.08587 0.58366 0.29904 0.0
C1226 C 0.11665 0.60431 0.29201 0.0
C1227 C 1.05678 0.56313 0.28878 0.0
C1228 C 1.02307 0.54224 0.29532 0.0
C1229 C 1.00879 0.55714 0.30496 0.0
C1230 C 0.97715 0.53725 0.31121 0.0
C1231 C 0.95943 0.50246 0.30778 0.0
C1232 C 0.97327 0.48751 0.29805 0.0
C1233 C 1.00492 0.50728 0.29179 0.0
H1234 H 0.93494 0.4871 0.31263 0.0
H1235 H 0.23731 0.69059 0.25019 0.0
loop_
_geom_bond_atom_site_label_1
_geom_bond_atom_site_label_2
_geom_bond_distance
_geom_bond_site_symmetry_2
_ccdc_geom_bond_type
Tb0 C10 2.825 . S
Tb0 O11 2.347 . S
Tb0 O14 2.366 . S
Tb0 O19 2.418 . S
Tb0 O20 2.384 1_455 S
Tb0 O23 2.479 . S
Tb0 O24 2.471 . S
Eu1 O12 2.422 . S
Eu1 O13 2.399 . S
Eu1 O16 2.461 1_455 S
Eu1 O17 2.455 1_455 S
Eu1 O18 2.356 . S
Eu1 O21 2.364 1_455 S
Eu1 C31 2.806 1_455 S
C2 O18 1.259 . S
C2 O19 1.265 . S
C3 O20 1.255 . S
C3 O21 1.265 . S
C4 C6 1.380 . S
C4 C7 1.374 . S
C4 C10 1.507 . S
C5 C6 1.384 . S
C5 C9 1.387 . S
C5 H32 0.930 . S
C6 C4 1.380 . S
C6 C5 1.384 . S
C6 H33 0.931 . S
C7 C4 1.374 . S
C7 C8 1.390 . S
C7 H34 0.930 . S
C8 C7 1.390 . S
C8 C9 1.391 . S
C8 H35 0.930 . S
C9 C5 1.387 . S
C9 C8 1.391 . S
C10 Tb0 2.825 . S
C10 C4 1.507 . S
C10 O23 1.238 . S
C10 O24 1.247 . S
O11 Tb0 2.347 . S
O11 C15 1.259 . S
O12 Eu1 2.422 . S
O12 C15 1.265 . S
O13 Eu1 2.399 . S
O13 C22 1.255 . S
O14 Tb0 2.366 . S
O14 C22 1.265 . S
C15 O11 1.259 . S
C15 O12 1.265 . S
O16 Eu1 2.461 1_655 S
O16 C31 1.238 . S
O17 Eu1 2.455 1_655 S
O17 C31 1.247 . S
O18 Eu1 2.356 . S
O18 C2 1.259 . S
O19 Tb0 2.418 . S
O19 C2 1.265 . S
O20 Tb0 2.384 1_655 S
O20 C3 1.255 . S
O21 Eu1 2.364 1_655 S
O21 C3 1.265 . S
C22 O13 1.255 . S
C22 O14 1.265 . S
O23 Tb0 2.479 . S
O23 C10 1.238 . S
O24 Tb0 2.471 . S
O24 C10 1.247 . S
C25 C28 1.380 . S
C25 C29 1.374 . S
C25 C31 1.507 . S
C26 C27 1.387 . S
C26 C30 1.391 . S
C27 C26 1.387 . S
C27 C28 1.384 . S
C27 H36 0.930 . S
C28 C25 1.380 . S
C28 C27 1.384 . S
C28 H37 0.931 . S
C29 C25 1.374 . S
C29 C30 1.390 . S
C29 H38 0.930 . S
C30 C26 1.391 . S
C30 C29 1.390 . S
C30 H39 0.930 . S
C31 Eu1 2.806 1_655 S
C31 O16 1.238 . S
C31 O17 1.247 . S
C31 C25 1.507 . S
H32 C5 0.930 . S
H33 C6 0.931 . S
H34 C7 0.930 . S
H35 C8 0.930 . S
H36 C27 0.930 . S
H37 C28 0.931 . S
H38 C29 0.930 . S
H39 C30 0.930 . S
Tb40 C50 2.825 . S
Tb40 O51 2.347 . S
Tb40 O54 2.366 . S
Tb40 O59 2.418 . S
Tb40 O60 2.418 . S
Tb40 O63 2.479 . S
Tb40 O64 2.471 . S
Eu41 O52 2.418 . S
Eu41 O53 2.384 . S
Eu41 O56 2.479 1_545 S
Eu41 O57 2.471 1_545 S
Eu41 O58 2.347 . S
Eu41 O61 2.366 1_545 S
Eu41 C71 2.825 1_545 S
C42 O58 1.259 . S
C42 O59 1.265 . S
C43 O60 1.241 1_565 S
C43 O61 1.265 . S
C44 C46 1.380 . S
C44 C47 1.374 . S
C44 C50 1.507 . S
C45 C46 1.384 . S
C45 C49 1.387 . S
C45 H72 0.930 . S
C46 C44 1.380 . S
C46 C45 1.384 . S
C46 H73 0.931 . S
C47 C44 1.374 . S
C47 C48 1.390 . S
C47 H74 0.930 . S
C48 C47 1.390 . S
C48 C49 1.391 . S
C48 H75 0.930 . S
C49 C45 1.387 . S
C49 C48 1.391 . S
C50 Tb40 2.825 . S
C50 C44 1.507 . S
C50 O63 1.238 . S
C50 O64 1.247 . S
O51 Tb40 2.347 . S
O51 C55 1.259 . S
O52 Eu41 2.418 . S
O52 C55 1.265 . S
O53 Eu41 2.384 . S
O53 C62 1.255 . S
O54 Tb40 2.366 . S
O54 C62 1.265 . S
C55 O51 1.259 . S
C55 O52 1.265 . S
O56 Eu41 2.479 1_565 S
O56 C71 1.238 . S
O57 Eu41 2.471 1_565 S
O57 C71 1.247 . S
O58 Eu41 2.347 . S
O58 C42 1.259 . S
O59 Tb40 2.418 . S
O59 C42 1.265 . S
O60 Tb40 2.418 . S
O60 C43 1.241 1_545 S
O61 Eu41 2.366 1_565 S
O61 C43 1.265 . S
C62 O53 1.255 . S
C62 O54 1.265 . S
O63 Tb40 2.479 . S
O63 C50 1.238 . S
O64 Tb40 2.471 . S
O64 C50 1.247 . S
C65 C68 1.380 . S
C65 C69 1.374 . S
C65 C71 1.507 . S
C66 C67 1.387 . S
C66 C70 1.391 . S
C67 C66 1.387 . S
C67 C68 1.384 . S
C67 H76 0.930 . S
C68 C65 1.380 . S
C68 C67 1.384 . S
C68 H77 0.931 . S
C69 C65 1.374 . S
C69 C70 1.390 . S
C69 H78 0.930 . S
C70 C66 1.391 . S
C70 C69 1.390 . S
C70 H79 0.930 . S
C71 Eu41 2.825 1_565 S
C71 O56 1.238 . S
C71 O57 1.247 . S
C71 C65 1.507 . S
H72 C45 0.930 . S
H73 C46 0.931 . S
H74 C47 0.930 . S
H75 C48 0.930 . S
H76 C67 0.930 . S
H77 C68 0.931 . S
H78 C69 0.930 . S
H79 C70 0.930 . S
Tb80 C90 2.825 . S
Tb80 O91 2.347 . S
Tb80 O94 2.366 . S
Tb80 O99 2.418 . S
Tb80 O100 2.384 . S
Tb80 O103 2.479 . S
Tb80 O104 2.471 . S
Eu81 O92 2.418 . S
Eu81 O93 2.384 . S
Eu81 O96 2.479 . S
Eu81 O97 2.471 . S
Eu81 O98 2.347 . S
Eu81 O101 2.366 . S
Eu81 C111 2.825 . S
C82 O98 1.259 . S
C82 O99 1.265 . S
C83 O100 1.255 . S
C83 O101 1.265 . S
C84 C86 1.380 . S
C84 C87 1.374 . S
C84 C90 1.507 . S
C85 C86 1.384 . S
C85 C89 1.387 . S
C85 H112 0.930 . S
C86 C84 1.380 . S
C86 C85 1.384 . S
C86 H113 0.931 . S
C87 C84 1.374 . S
C87 C88 1.390 . S
C87 H114 0.930 . S
C88 C87 1.390 . S
C88 C89 1.391 . S
C88 H115 0.930 . S
C89 C85 1.387 . S
C89 C88 1.391 . S
C90 Tb80 2.825 . S
C90 C84 1.507 . S
C90 O103 1.238 . S
C90 O104 1.247 . S
O91 Tb80 2.347 . S
O91 C95 1.259 . S
O92 Eu81 2.418 . S
O92 C95 1.265 . S
O93 Eu81 2.384 . S
O93 C102 1.255 . S
O94 Tb80 2.366 . S
O94 C102 1.265 . S
C95 O91 1.259 . S
C95 O92 1.265 . S
O96 Eu81 2.479 . S
O96 C111 1.238 . S
O97 Eu81 2.471 . S
O97 C111 1.247 . S
O98 Eu81 2.347 . S
O98 C82 1.259 . S
O99 Tb80 2.418 . S
O99 C82 1.265 . S
O100 Tb80 2.384 . S
O100 C83 1.255 . S
O101 Eu81 2.366 . S
O101 C83 1.265 . S
C102 O93 1.255 . S
C102 O94 1.265 . S
O103 Tb80 2.479 . S
O103 C90 1.238 . S
O104 Tb80 2.471 . S
O104 C90 1.247 . S
C105 C108 1.380 . S
C105 C109 1.374 . S
C105 C111 1.507 . S
C106 C107 1.387 . S
C106 C110 1.391 . S
C107 C106 1.387 . S
C107 C108 1.384 . S
C107 H116 0.930 . S
C108 C105 1.380 . S
C108 C107 1.384 . S
C108 H117 0.931 . S
C109 C105 1.374 . S
C109 C110 1.390 . S
C109 H118 0.930 . S
C110 C106 1.391 . S
C110 C109 1.390 . S
C110 H119 0.930 . S
C111 Eu81 2.825 . S
C111 O96 1.238 . S
C111 O97 1.247 . S
C111 C105 1.507 . S
H112 C85 0.930 . S
H113 C86 0.931 . S
H114 C87 0.930 . S
H115 C88 0.930 . S
H116 C107 0.930 . S
H117 C108 0.931 . S
H118 C109 0.930 . S
H119 C110 0.930 . S
C120 C121 1.384 . S
C120 H133 0.947 . S
C120 C155 1.382 . S
C121 C120 1.384 . S
C121 C122 1.378 . S
C122 C121 1.378 . S
C122 C123 1.378 . S
C122 H134 0.952 . S
C123 C122 1.378 . S
C123 H135 0.950 . S
C123 C154 1.383 . S
H124 C143 0.947 . S
H125 C144 0.946 . S
H126 C146 0.953 . S
H127 C147 0.945 . S
H128 C149 0.952 . S
H129 C150 0.949 . S
H130 C152 0.950 . S
H131 C153 0.948 . S
H132 C155 0.951 . S
H133 C120 0.947 . S
H134 C122 0.952 . S
H135 C123 0.950 . S
N136 C139 1.382 . S
N136 C141 1.363 1_545 S
N137 C139 1.371 . S
N137 C140 1.372 . S
N138 C140 1.361 1_565 S
N138 C141 1.377 . S
C139 N136 1.382 . S
C139 N137 1.371 . S
C139 C142 1.480 . S
C140 N137 1.372 . S
C140 N138 1.361 1_545 S
C140 C148 1.457 . S
C141 N136 1.363 1_565 S
C141 N138 1.377 . S
C141 C154 1.479 . S
C142 C139 1.480 . S
C142 C143 1.383 . S
C142 C147 1.385 . S
C143 H124 0.947 . S
C143 C142 1.383 . S
C143 C144 1.388 . S
C144 H125 0.946 . S
C144 C143 1.388 . S
C144 C145 1.384 . S
C145 C144 1.384 . S
C145 C146 1.377 . S
C146 H126 0.953 . S
C146 C145 1.377 . S
C146 C147 1.369 . S
C147 H127 0.945 . S
C147 C142 1.385 . S
C147 C146 1.369 . S
C148 C140 1.457 . S
C148 C149 1.372 . S
C148 C153 1.364 1_545 S
C149 H128 0.952 . S
C149 C148 1.372 . S
C149 C150 1.389 . S
C150 H129 0.949 . S
C150 C149 1.389 . S
C150 C151 1.387 . S
C151 C150 1.387 . S
C151 C152 1.372 1_545 S
C152 H130 0.950 . S
C152 C151 1.372 1_565 S
C152 C153 1.379 . S
C153 H131 0.948 . S
C153 C148 1.364 1_565 S
C153 C152 1.379 . S
C154 C123 1.383 . S
C154 C141 1.479 . S
C154 C155 1.398 . S
C155 C120 1.382 . S
C155 H132 0.951 . S
C155 C154 1.398 . S
C156 C157 1.384 . S
C156 H169 0.947 . S
C156 C191 1.382 . S
C157 C156 1.384 . S
C157 C158 1.378 . S
C158 C157 1.378 . S
C158 C159 1.378 . S
C158 H170 0.952 . S
C159 C158 1.378 . S
C159 H171 0.950 . S
C159 C190 1.383 . S
H160 C179 0.947 . S
H161 C180 0.946 . S
H162 C182 0.953 . S
H163 C183 0.945 . S
H164 C185 0.952 . S
H165 C186 0.949 . S
H166 C188 0.950 . S
H167 C189 0.948 . S
H168 C191 0.951 . S
H169 C156 0.947 . S
H170 C158 0.952 . S
H171 C159 0.950 . S
N172 C175 1.382 . S
N172 C177 1.363 . S
N173 C175 1.371 . S
N173 C176 1.372 . S
N174 C176 1.361 . S
N174 C177 1.377 . S
C175 N172 1.382 . S
C175 N173 1.371 . S
C175 C178 1.480 . S
C176 N173 1.372 . S
C176 N174 1.361 . S
C176 C184 1.457 . S
C177 N172 1.363 . S
C177 N174 1.377 . S
C177 C190 1.479 . S
C178 C175 1.480 . S
C178 C179 1.383 . S
C178 C183 1.385 . S
C179 H160 0.947 . S
C179 C178 1.383 . S
C179 C180 1.388 . S
C180 H161 0.946 . S
C180 C179 1.388 . S
C180 C181 1.384 . S
C181 C180 1.384 . S
C181 C182 1.377 . S
C182 H162 0.953 . S
C182 C181 1.377 . S
C182 C183 1.369 . S
C183 H163 0.945 . S
C183 C178 1.385 . S
C183 C182 1.369 . S
C184 C176 1.457 . S
C184 C185 1.372 . S
C184 C189 1.364 . S
C185 H164 0.952 . S
C185 C184 1.372 . S
C185 C186 1.389 . S
C186 H165 0.949 . S
C186 C185 1.389 . S
C186 C187 1.387 . S
C187 C186 1.387 . S
C187 C188 1.372 . S
C188 H166 0.950 . S
C188 C187 1.372 . S
C188 C189 1.379 . S
C189 H167 0.948 . S
C189 C184 1.364 . S
C189 C188 1.379 . S
C190 C159 1.383 . S
C190 C177 1.479 . S
C190 C191 1.398 . S
C191 C156 1.382 . S
C191 H168 0.951 . S
C191 C190 1.398 . S
C192 C193 1.384 . S
C192 H205 0.947 . S
C192 C227 1.382 . S
C193 C192 1.384 . S
C193 C194 1.378 . S
C194 C193 1.378 . S
C194 C195 1.378 . S
C194 H206 0.952 . S
C195 C194 1.378 . S
C195 H207 0.950 . S
C195 C226 1.383 . S
H196 C215 0.947 . S
H197 C216 0.946 . S
H198 C218 0.953 . S
H199 C219 0.945 . S
H200 C221 0.952 . S
H201 C222 0.949 . S
H202 C224 0.950 . S
H203 C225 0.948 . S
H204 C227 0.951 . S
H205 C192 0.947 . S
H206 C194 0.952 . S
H207 C195 0.950 . S
N208 C211 1.382 . S
N208 C213 1.363 1_455 S
N209 C211 1.371 . S
N209 C212 1.372 . S
N210 C212 1.361 1_655 S
N210 C213 1.377 . S
C211 N208 1.382 . S
C211 N209 1.371 . S
C211 C214 1.480 . S
C212 N209 1.372 . S
C212 N210 1.361 1_455 S
C212 C220 1.457 . S
C213 N208 1.363 1_655 S
C213 N210 1.377 . S
C213 C226 1.479 . S
C214 C211 1.480 . S
C214 C215 1.383 . S
C214 C219 1.385 . S
C215 H196 0.947 . S
C215 C214 1.383 . S
C215 C216 1.388 . S
C216 H197 0.946 . S
C216 C215 1.388 . S
C216 C217 1.384 . S
C217 C216 1.384 . S
C217 C218 1.377 . S
C218 H198 0.953 . S
C218 C217 1.377 . S
C218 C219 1.369 . S
C219 H199 0.945 . S
C219 C214 1.385 . S
C219 C218 1.369 . S
C220 C212 1.457 . S
C220 C221 1.372 . S
C220 C225 1.364 1_455 S
C221 H200 0.952 . S
C221 C220 1.372 . S
C221 C222 1.389 . S
C222 H201 0.949 . S
C222 C221 1.389 . S
C222 C223 1.387 . S
C223 C222 1.387 . S
C223 C224 1.372 1_455 S
C224 H202 0.950 . S
C224 C223 1.372 1_655 S
C224 C225 1.379 . S
C225 H203 0.948 . S
C225 C220 1.364 1_655 S
C225 C224 1.379 . S
C226 C195 1.383 . S
C226 C213 1.479 . S
C226 C227 1.398 . S
C227 C192 1.382 . S
C227 H204 0.951 . S
C227 C226 1.398 . S
C228 C229 1.384 . S
C228 H241 0.947 . S
C228 C263 1.382 . S
C229 C228 1.384 . S
C229 C230 1.378 . S
C230 C229 1.378 . S
C230 C231 1.378 . S
C230 H242 0.952 . S
C231 C230 1.378 . S
C231 H243 0.950 . S
C231 C262 1.383 . S
H232 C251 0.947 . S
H233 C252 0.946 . S
H234 C254 0.953 . S
H235 C255 0.945 . S
H236 C257 0.952 . S
H237 C258 0.949 . S
H238 C260 0.950 . S
H239 C261 0.948 . S
H240 C263 0.951 . S
H241 C228 0.947 . S
H242 C230 0.952 . S
H243 C231 0.950 . S
N244 C247 1.382 1_455 S
N244 C249 1.363 . S
N245 C247 1.371 . S
N245 C248 1.372 1_655 S
N246 C248 1.361 . S
N246 C249 1.377 . S
C247 N244 1.382 1_655 S
C247 N245 1.371 . S
C247 C250 1.480 . S
C248 N245 1.372 1_455 S
C248 N246 1.361 . S
C248 C256 1.457 . S
C249 N244 1.363 . S
C249 N246 1.377 . S
C249 C262 1.479 . S
C250 C247 1.480 . S
C250 C251 1.383 . S
C250 C255 1.385 . S
C251 H232 0.947 . S
C251 C250 1.383 . S
C251 C252 1.388 . S
C252 H233 0.946 . S
C252 C251 1.388 . S
C252 C253 1.384 . S
C253 C252 1.384 . S
C253 C254 1.377 . S
C254 H234 0.953 . S
C254 C253 1.377 . S
C254 C255 1.369 . S
C255 H235 0.945 . S
C255 C250 1.385 . S
C255 C254 1.369 . S
C256 C248 1.457 . S
C256 C257 1.372 1_455 S
C256 C261 1.364 . S
C257 H236 0.952 . S
C257 C256 1.372 1_655 S
C257 C258 1.389 . S
C258 H237 0.949 . S
C258 C257 1.389 . S
C258 C259 1.387 1_655 S
C259 C258 1.387 1_455 S
C259 C260 1.372 . S
C260 H238 0.950 . S
C260 C259 1.372 . S
C260 C261 1.379 . S
C261 H239 0.948 . S
C261 C256 1.364 . S
C261 C260 1.379 . S
C262 C231 1.383 . S
C262 C249 1.479 . S
C262 C263 1.398 . S
C263 C228 1.382 . S
C263 H240 0.951 . S
C263 C262 1.398 . S
C264 C265 1.384 . S
C264 H277 0.947 . S
C264 C299 1.382 . S
C265 C264 1.384 . S
C265 C266 1.378 . S
C266 C265 1.378 . S
C266 C267 1.378 . S
C266 H278 0.952 . S
C267 C266 1.378 . S
C267 H279 0.950 . S
C267 C298 1.383 . S
H268 C287 0.947 . S
H269 C288 0.946 . S
H270 C290 0.953 . S
H271 C291 0.945 . S
H272 C293 0.952 . S
H273 C294 0.949 . S
H274 C296 0.950 . S
H275 C297 0.948 . S
H276 C299 0.951 . S
H277 C264 0.947 . S
H278 C266 0.952 . S
H279 C267 0.950 . S
N280 C283 1.382 1_545 S
N280 C285 1.363 . S
N281 C283 1.371 . S
N281 C284 1.372 1_565 S
N282 C284 1.361 . S
N282 C285 1.377 . S
C283 N280 1.382 1_565 S
C283 N281 1.371 . S
C283 C286 1.480 . S
C284 N281 1.372 1_545 S
C284 N282 1.361 . S
C284 C292 1.457 . S
C285 N280 1.363 . S
C285 N282 1.377 . S
C285 C298 1.479 . S
C286 C283 1.480 . S
C286 C287 1.383 . S
C286 C291 1.385 . S
C287 H268 0.947 . S
C287 C286 1.383 . S
C287 C288 1.388 . S
C288 H269 0.946 . S
C288 C287 1.388 . S
C288 C289 1.384 . S
C289 C288 1.384 . S
C289 C290 1.377 . S
C290 H270 0.953 . S
C290 C289 1.377 . S
C290 C291 1.369 . S
C291 H271 0.945 . S
C291 C286 1.385 . S
C291 C290 1.369 . S
C292 C284 1.457 . S
C292 C293 1.372 1_545 S
C292 C297 1.364 . S
C293 H272 0.952 . S
C293 C292 1.372 1_565 S
C293 C294 1.389 . S
C294 H273 0.949 . S
C294 C293 1.389 . S
C294 C295 1.387 1_565 S
C295 C294 1.387 1_545 S
C295 C296 1.372 . S
C296 H274 0.950 . S
C296 C295 1.372 . S
C296 C297 1.379 . S
C297 H275 0.948 . S
C297 C292 1.364 . S
C297 C296 1.379 . S
C298 C267 1.383 . S
C298 C285 1.479 . S
C298 C299 1.398 . S
C299 C264 1.382 . S
C299 H276 0.951 . S
C299 C298 1.398 . S
C300 C301 1.384 . S
C300 H313 0.947 . S
C300 C335 1.382 . S
C301 C300 1.384 . S
C301 C302 1.378 . S
C302 C301 1.378 . S
C302 C303 1.378 . S
C302 H314 0.952 . S
C303 C302 1.378 . S
C303 H315 0.950 . S
C303 C334 1.383 . S
H304 C323 0.947 . S
H305 C324 0.946 . S
H306 C326 0.953 . S
H307 C327 0.945 . S
H308 C329 0.952 . S
H309 C330 0.949 . S
H310 C332 0.950 . S
H311 C333 0.948 . S
H312 C335 0.951 . S
H313 C300 0.947 . S
H314 C302 0.952 . S
H315 C303 0.950 . S
N316 C319 1.382 . S
N316 C321 1.363 . S
N317 C319 1.371 . S
N317 C320 1.372 . S
N318 C320 1.361 . S
N318 C321 1.377 . S
C319 N316 1.382 . S
C319 N317 1.371 . S
C319 C322 1.480 . S
C320 N317 1.372 . S
C320 N318 1.361 . S
C320 C328 1.457 . S
C321 N316 1.363 . S
C321 N318 1.377 . S
C321 C334 1.479 . S
C322 C319 1.480 . S
C322 C323 1.383 . S
C322 C327 1.385 . S
C323 H304 0.947 . S
C323 C322 1.383 . S
C323 C324 1.388 . S
C324 H305 0.946 . S
C324 C323 1.388 . S
C324 C325 1.384 . S
C325 C324 1.384 . S
C325 C326 1.377 . S
C326 H306 0.953 . S
C326 C325 1.377 . S
C326 C327 1.369 . S
C327 H307 0.945 . S
C327 C322 1.385 . S
C327 C326 1.369 . S
C328 C320 1.457 . S
C328 C329 1.372 . S
C328 C333 1.364 . S
C329 H308 0.952 . S
C329 C328 1.372 . S
C329 C330 1.389 . S
C330 H309 0.949 . S
C330 C329 1.389 . S
C330 C331 1.387 . S
C331 C330 1.387 . S
C331 C332 1.372 . S
C332 H310 0.950 . S
C332 C331 1.372 . S
C332 C333 1.379 . S
C333 H311 0.948 . S
C333 C328 1.364 . S
C333 C332 1.379 . S
C334 C303 1.383 . S
C334 C321 1.479 . S
C334 C335 1.398 . S
C335 C300 1.382 . S
C335 H312 0.951 . S
C335 C334 1.398 . S
H336 C354 0.951 . S
H337 C356 0.951 . S
H338 C358 0.950 . S
H339 C359 0.950 . S
H340 C361 0.950 . S
H341 C364 0.950 . S
H342 C365 0.950 . S
H343 C367 0.950 . S
H344 C368 0.950 . S
H345 C369 0.951 . S
H346 C371 0.951 . S
H347 C373 0.950 . S
H348 C374 0.950 . S
H349 C376 0.950 . S
H350 C379 0.950 . S
H351 C380 0.950 . S
H352 C382 0.950 . S
H353 C383 0.950 . S
C354 H336 0.951 . S
C354 C355 1.366 . S
C354 C356 1.388 . S
C355 C354 1.366 . S
C355 C359 1.385 . S
C356 H337 0.951 . S
C356 C354 1.388 . S
C356 C357 1.366 . S
C357 C356 1.366 . S
C357 C358 1.414 . S
C357 C360 1.499 . S
C358 H338 0.950 . S
C358 C357 1.414 . S
C358 C359 1.374 . S
C359 H339 0.950 . S
C359 C355 1.385 . S
C359 C358 1.374 . S
C360 C357 1.499 . S
C360 C361 1.373 . S
C360 C362 1.389 . S
C361 H340 0.950 . S
C361 C360 1.373 . S
C361 C377 1.377 . S
C362 C360 1.389 . S
C362 C363 1.524 . S
C362 C376 1.377 . S
C363 C362 1.524 . S
C363 C364 1.397 . S
C363 C368 1.363 . S
C364 H341 0.950 . S
C364 C363 1.397 . S
C364 C365 1.334 . S
C365 H342 0.950 . S
C365 C364 1.334 . S
C365 C366 1.287 . S
C366 C365 1.287 . S
C366 C367 1.524 . S
C366 H385 0.913 . S
C367 H343 0.950 . S
C367 C366 1.524 . S
C367 C368 1.415 . S
C368 H344 0.950 . S
C368 C363 1.363 . S
C368 C367 1.415 . S
C369 H345 0.951 . S
C369 C370 1.366 . S
C369 C371 1.388 . S
C370 C369 1.366 . S
C370 C374 1.385 . S
C371 H346 0.951 . S
C371 C369 1.388 . S
C371 C372 1.366 . S
C372 C371 1.366 . S
C372 C373 1.414 . S
C372 C375 1.499 . S
C373 H347 0.950 . S
C373 C372 1.414 . S
C373 C374 1.374 . S
C374 H348 0.950 . S
C374 C370 1.385 . S
C374 C373 1.374 . S
C375 C372 1.499 . S
C375 C376 1.373 . S
C375 C377 1.389 . S
C376 H349 0.950 . S
C376 C362 1.377 . S
C376 C375 1.373 . S
C377 C361 1.377 . S
C377 C375 1.389 . S
C377 C378 1.524 . S
C378 C377 1.524 . S
C378 C379 1.397 . S
C378 C383 1.363 . S
C379 H350 0.950 . S
C379 C378 1.397 . S
C379 C380 1.334 . S
C380 H351 0.950 . S
C380 C379 1.334 . S
C380 C381 1.287 . S
C381 C380 1.287 . S
C381 C382 1.524 . S
C381 H384 0.999 . S
C382 H352 0.950 . S
C382 C381 1.524 . S
C382 C383 1.415 . S
C383 H353 0.950 . S
C383 C378 1.363 . S
C383 C382 1.415 . S
H384 C381 0.999 . S
H385 C366 0.913 . S
H386 C404 0.951 . S
H387 C406 0.951 . S
H388 C408 0.950 . S
H389 C409 0.950 . S
H390 C411 0.950 . S
H391 C414 0.950 . S
H392 C415 0.950 . S
H393 C417 0.950 . S
H394 C418 0.950 . S
H395 C419 0.951 . S
H396 C421 0.951 . S
H397 C423 0.950 . S
H398 C424 0.950 . S
H399 C426 0.950 . S
H400 C429 0.950 . S
H401 C430 0.950 . S
H402 C432 0.950 . S
H403 C433 0.950 . S
C404 H386 0.951 . S
C404 C405 1.366 . S
C404 C406 1.388 . S
C405 C404 1.366 . S
C405 C409 1.385 . S
C406 H387 0.951 . S
C406 C404 1.388 . S
C406 C407 1.366 . S
C407 C406 1.366 . S
C407 C408 1.414 . S
C407 C410 1.499 . S
C408 H388 0.950 . S
C408 C407 1.414 . S
C408 C409 1.374 . S
C409 H389 0.950 . S
C409 C405 1.385 . S
C409 C408 1.374 . S
C410 C407 1.499 . S
C410 C411 1.373 . S
C410 C412 1.389 . S
C411 H390 0.950 . S
C411 C410 1.373 . S
C411 C427 1.377 . S
C412 C410 1.389 . S
C412 C413 1.524 . S
C412 C426 1.377 . S
C413 C412 1.524 . S
C413 C414 1.397 . S
C413 C418 1.363 . S
C414 H391 0.950 . S
C414 C413 1.397 . S
C414 C415 1.334 . S
C415 H392 0.950 . S
C415 C414 1.334 . S
C415 C416 1.287 . S
C416 C415 1.287 . S
C416 C417 1.524 . S
C416 H435 0.913 . S
C417 H393 0.950 . S
C417 C416 1.524 . S
C417 C418 1.415 . S
C418 H394 0.950 . S
C418 C413 1.363 . S
C418 C417 1.415 . S
C419 H395 0.951 . S
C419 C420 1.366 . S
C419 C421 1.388 . S
C420 C419 1.366 . S
C420 C424 1.385 . S
C421 H396 0.951 . S
C421 C419 1.388 . S
C421 C422 1.366 . S
C422 C421 1.366 . S
C422 C423 1.414 . S
C422 C425 1.499 . S
C423 H397 0.950 . S
C423 C422 1.414 . S
C423 C424 1.374 . S
C424 H398 0.950 . S
C424 C420 1.385 . S
C424 C423 1.374 . S
C425 C422 1.499 . S
C425 C426 1.373 . S
C425 C427 1.389 . S
C426 H399 0.950 . S
C426 C412 1.377 . S
C426 C425 1.373 . S
C427 C411 1.377 . S
C427 C425 1.389 . S
C427 C428 1.524 . S
C428 C427 1.524 . S
C428 C429 1.397 . S
C428 C433 1.363 . S
C429 H400 0.950 . S
C429 C428 1.397 . S
C429 C430 1.334 . S
C430 H401 0.950 . S
C430 C429 1.334 . S
C430 C431 1.287 . S
C431 C430 1.287 . S
C431 C432 1.524 . S
C431 H434 0.999 . S
C432 H402 0.950 . S
C432 C431 1.524 . S
C432 C433 1.415 . S
C433 H403 0.950 . S
C433 C428 1.363 . S
C433 C432 1.415 . S
H434 C431 0.999 . S
H435 C416 0.913 . S
H436 C454 0.951 . S
H437 C456 0.951 . S
H438 C458 0.950 . S
H439 C459 0.950 . S
H440 C461 0.950 . S
H441 C464 0.950 . S
H442 C465 0.950 . S
H443 C467 0.950 . S
H444 C468 0.950 . S
H445 C469 0.951 . S
H446 C471 0.951 . S
H447 C473 0.950 . S
H448 C474 0.950 . S
H449 C476 0.950 . S
H450 C479 0.950 . S
H451 C480 0.950 . S
H452 C482 0.950 . S
H453 C483 0.950 . S
C454 H436 0.951 . S
C454 C455 1.366 . S
C454 C456 1.388 . S
C455 C454 1.366 . S
C455 C459 1.385 . S
C456 H437 0.951 . S
C456 C454 1.388 . S
C456 C457 1.366 . S
C457 C456 1.366 . S
C457 C458 1.414 . S
C457 C460 1.499 . S
C458 H438 0.950 . S
C458 C457 1.414 . S
C458 C459 1.374 . S
C459 H439 0.950 . S
C459 C455 1.385 . S
C459 C458 1.374 . S
C460 C457 1.499 . S
C460 C461 1.373 . S
C460 C462 1.389 . S
C461 H440 0.950 . S
C461 C460 1.373 . S
C461 C477 1.377 . S
C462 C460 1.389 . S
C462 C463 1.524 . S
C462 C476 1.377 . S
C463 C462 1.524 . S
C463 C464 1.397 . S
C463 C468 1.363 . S
C464 H441 0.950 . S
C464 C463 1.397 . S
C464 C465 1.334 . S
C465 H442 0.950 . S
C465 C464 1.334 . S
C465 C466 1.287 . S
C466 C465 1.287 . S
C466 C467 1.524 . S
C466 H485 0.913 . S
C467 H443 0.950 . S
C467 C466 1.524 . S
C467 C468 1.415 . S
C468 H444 0.950 . S
C468 C463 1.363 . S
C468 C467 1.415 . S
C469 H445 0.951 . S
C469 C470 1.366 . S
C469 C471 1.388 . S
C470 C469 1.366 . S
C470 C474 1.385 . S
C471 H446 0.951 . S
C471 C469 1.388 . S
C471 C472 1.366 . S
C472 C471 1.366 . S
C472 C473 1.414 . S
C472 C475 1.499 . S
C473 H447 0.950 . S
C473 C472 1.414 . S
C473 C474 1.374 . S
C474 H448 0.950 . S
C474 C470 1.385 . S
C474 C473 1.374 . S
C475 C472 1.499 . S
C475 C476 1.373 . S
C475 C477 1.389 . S
C476 H449 0.950 . S
C476 C462 1.377 . S
C476 C475 1.373 . S
C477 C461 1.377 . S
C477 C475 1.389 . S
C477 C478 1.524 . S
C478 C477 1.524 . S
C478 C479 1.397 . S
C478 C483 1.363 . S
C479 H450 0.950 . S
C479 C478 1.397 . S
C479 C480 1.334 . S
C480 H451 0.950 . S
C480 C479 1.334 . S
C480 C481 1.287 . S
C481 C480 1.287 . S
C481 C482 1.524 . S
C481 H484 0.999 . S
C482 H452 0.950 . S
C482 C481 1.524 . S
C482 C483 1.415 . S
C483 H453 0.950 . S
C483 C478 1.363 . S
C483 C482 1.415 . S
H484 C481 0.999 . S
H485 C466 0.913 . S
H486 C504 0.951 . S
H487 C506 0.951 . S
H488 C508 0.950 . S
H489 C509 0.950 . S
H490 C511 0.950 . S
H491 C514 0.950 . S
H492 C515 0.950 . S
H493 C517 0.950 . S
H494 C518 0.950 . S
H495 C519 0.951 . S
H496 C521 0.951 . S
H497 C523 0.950 . S
H498 C524 0.950 . S
H499 C526 0.950 . S
H500 C529 0.950 . S
H501 C530 0.950 . S
H502 C532 0.950 . S
H503 C533 0.950 . S
C504 H486 0.951 . S
C504 C505 1.366 . S
C504 C506 1.388 . S
C505 C504 1.366 . S
C505 C509 1.385 . S
C506 H487 0.951 . S
C506 C504 1.388 . S
C506 C507 1.366 . S
C507 C506 1.366 . S
C507 C508 1.414 . S
C507 C510 1.499 . S
C508 H488 0.950 . S
C508 C507 1.414 . S
C508 C509 1.374 . S
C509 H489 0.950 . S
C509 C505 1.385 . S
C509 C508 1.374 . S
C510 C507 1.499 . S
C510 C511 1.373 . S
C510 C512 1.389 . S
C511 H490 0.950 . S
C511 C510 1.373 . S
C511 C527 1.377 . S
C512 C510 1.389 . S
C512 C513 1.524 . S
C512 C526 1.377 . S
C513 C512 1.524 . S
C513 C514 1.397 . S
C513 C518 1.363 . S
C514 H491 0.950 . S
C514 C513 1.397 . S
C514 C515 1.334 . S
C515 H492 0.950 . S
C515 C514 1.334 . S
C515 C516 1.287 . S
C516 C515 1.287 . S
C516 C517 1.524 . S
C516 H535 0.913 . S
C517 H493 0.950 . S
C517 C516 1.524 . S
C517 C518 1.415 . S
C518 H494 0.950 . S
C518 C513 1.363 . S
C518 C517 1.415 . S
C519 H495 0.951 . S
C519 C520 1.366 . S
C519 C521 1.388 . S
C520 C519 1.366 . S
C520 C524 1.385 . S
C521 H496 0.951 . S
C521 C519 1.388 . S
C521 C522 1.366 . S
C522 C521 1.366 . S
C522 C523 1.414 . S
C522 C525 1.499 . S
C523 H497 0.950 . S
C523 C522 1.414 . S
C523 C524 1.374 . S
C524 H498 0.950 . S
C524 C520 1.385 . S
C524 C523 1.374 . S
C525 C522 1.499 . S
C525 C526 1.373 . S
C525 C527 1.389 . S
C526 H499 0.950 . S
C526 C512 1.377 . S
C526 C525 1.373 . S
C527 C511 1.377 . S
C527 C525 1.389 . S
C527 C528 1.524 . S
C528 C527 1.524 . S
C528 C529 1.397 . S
C528 C533 1.363 . S
C529 H500 0.950 . S
C529 C528 1.397 . S
C529 C530 1.334 . S
C530 H501 0.950 . S
C530 C529 1.334 . S
C530 C531 1.287 . S
C531 C530 1.287 . S
C531 C532 1.524 . S
C531 H534 0.999 . S
C532 H502 0.950 . S
C532 C531 1.524 . S
C532 C533 1.415 . S
C533 H503 0.950 . S
C533 C528 1.363 . S
C533 C532 1.415 . S
H534 C531 0.999 . S
H535 C516 0.913 . S
H536 C554 0.951 . S
H537 C556 0.951 . S
H538 C558 0.950 . S
H539 C559 0.950 . S
H540 C561 0.950 . S
H541 C564 0.950 . S
H542 C565 0.950 . S
H543 C567 0.950 . S
H544 C568 0.950 . S
H545 C569 0.951 . S
H546 C571 0.951 . S
H547 C573 0.950 . S
H548 C574 0.950 . S
H549 C576 0.950 . S
H550 C579 0.950 . S
H551 C580 0.950 . S
H552 C582 0.950 . S
H553 C583 0.950 . S
C554 H536 0.951 . S
C554 C555 1.366 . S
C554 C556 1.388 . S
C555 C554 1.366 . S
C555 C559 1.385 . S
C556 H537 0.951 . S
C556 C554 1.388 . S
C556 C557 1.366 . S
C557 C556 1.366 . S
C557 C558 1.414 . S
C557 C560 1.499 . S
C558 H538 0.950 . S
C558 C557 1.414 . S
C558 C559 1.374 . S
C559 H539 0.950 . S
C559 C555 1.385 . S
C559 C558 1.374 . S
C560 C557 1.499 . S
C560 C561 1.373 . S
C560 C562 1.389 . S
C561 H540 0.950 . S
C561 C560 1.373 . S
C561 C577 1.377 . S
C562 C560 1.389 . S
C562 C563 1.524 . S
C562 C576 1.377 . S
C563 C562 1.524 . S
C563 C564 1.397 . S
C563 C568 1.363 . S
C564 H541 0.950 . S
C564 C563 1.397 . S
C564 C565 1.334 . S
C565 H542 0.950 . S
C565 C564 1.334 . S
C565 C566 1.287 . S
C566 C565 1.287 . S
C566 C567 1.524 . S
C566 H585 0.913 . S
C567 H543 0.950 . S
C567 C566 1.524 . S
C567 C568 1.415 . S
C568 H544 0.950 . S
C568 C563 1.363 . S
C568 C567 1.415 . S
C569 H545 0.951 . S
C569 C570 1.366 . S
C569 C571 1.388 . S
C570 C569 1.366 . S
C570 C574 1.385 . S
C571 H546 0.951 . S
C571 C569 1.388 . S
C571 C572 1.366 . S
C572 C571 1.366 . S
C572 C573 1.414 . S
C572 C575 1.499 . S
C573 H547 0.950 . S
C573 C572 1.414 . S
C573 C574 1.374 . S
C574 H548 0.950 . S
C574 C570 1.385 . S
C574 C573 1.374 . S
C575 C572 1.499 . S
C575 C576 1.373 . S
C575 C577 1.389 . S
C576 H549 0.950 . S
C576 C562 1.377 . S
C576 C575 1.373 . S
C577 C561 1.377 . S
C577 C575 1.389 . S
C577 C578 1.524 . S
C578 C577 1.524 . S
C578 C579 1.397 . S
C578 C583 1.363 . S
C579 H550 0.950 . S
C579 C578 1.397 . S
C579 C580 1.334 . S
C580 H551 0.950 . S
C580 C579 1.334 . S
C580 C581 1.287 . S
C581 C580 1.287 . S
C581 C582 1.524 . S
C581 H584 0.999 . S
C582 H552 0.950 . S
C582 C581 1.524 . S
C582 C583 1.415 . S
C583 H553 0.950 . S
C583 C578 1.363 . S
C583 C582 1.415 . S
H584 C581 0.999 . S
H585 C566 0.913 . S
H586 C604 0.951 . S
H587 C606 0.951 . S
H588 C608 0.950 . S
H589 C609 0.950 . S
H590 C611 0.950 . S
H591 C614 0.950 . S
H592 C615 0.950 . S
H593 C617 0.950 . S
H594 C618 0.950 . S
H595 C619 0.951 . S
H596 C621 0.951 . S
H597 C623 0.950 . S
H598 C624 0.950 . S
H599 C626 0.950 . S
H600 C629 0.950 . S
H601 C630 0.950 . S
H602 C632 0.950 . S
H603 C633 0.950 . S
C604 H586 0.951 . S
C604 C605 1.366 . S
C604 C606 1.388 . S
C605 C604 1.366 . S
C605 C609 1.385 . S
C606 H587 0.951 . S
C606 C604 1.388 . S
C606 C607 1.366 . S
C607 C606 1.366 . S
C607 C608 1.414 . S
C607 C610 1.499 . S
C608 H588 0.950 . S
C608 C607 1.414 . S
C608 C609 1.374 . S
C609 H589 0.950 . S
C609 C605 1.385 . S
C609 C608 1.374 . S
C610 C607 1.499 . S
C610 C611 1.373 . S
C610 C612 1.389 . S
C611 H590 0.950 . S
C611 C610 1.373 . S
C611 C627 1.377 . S
C612 C610 1.389 . S
C612 C613 1.524 . S
C612 C626 1.377 . S
C613 C612 1.524 . S
C613 C614 1.397 . S
C613 C618 1.363 . S
C614 H591 0.950 . S
C614 C613 1.397 . S
C614 C615 1.334 . S
C615 H592 0.950 . S
C615 C614 1.334 . S
C615 C616 1.287 . S
C616 C615 1.287 . S
C616 C617 1.524 . S
C616 H635 0.913 . S
C617 H593 0.950 . S
C617 C616 1.524 . S
C617 C618 1.415 . S
C618 H594 0.950 . S
C618 C613 1.363 . S
C618 C617 1.415 . S
C619 H595 0.951 . S
C619 C620 1.366 . S
C619 C621 1.388 . S
C620 C619 1.366 . S
C620 C624 1.385 . S
C621 H596 0.951 . S
C621 C619 1.388 . S
C621 C622 1.366 . S
C622 C621 1.366 . S
C622 C623 1.414 . S
C622 C625 1.499 . S
C623 H597 0.950 . S
C623 C622 1.414 . S
C623 C624 1.374 . S
C624 H598 0.950 . S
C624 C620 1.385 . S
C624 C623 1.374 . S
C625 C622 1.499 . S
C625 C626 1.373 . S
C625 C627 1.389 . S
C626 H599 0.950 . S
C626 C612 1.377 . S
C626 C625 1.373 . S
C627 C611 1.377 . S
C627 C625 1.389 . S
C627 C628 1.524 . S
C628 C627 1.524 . S
C628 C629 1.397 . S
C628 C633 1.363 . S
C629 H600 0.950 . S
C629 C628 1.397 . S
C629 C630 1.334 . S
C630 H601 0.950 . S
C630 C629 1.334 . S
C630 C631 1.287 . S
C631 C630 1.287 . S
C631 C632 1.524 . S
C631 H634 0.999 . S
C632 H602 0.950 . S
C632 C631 1.524 . S
C632 C633 1.415 . S
C633 H603 0.950 . S
C633 C628 1.363 . S
C633 C632 1.415 . S
H634 C631 0.999 . S
H635 C616 0.913 . S
H636 C654 0.951 . S
H637 C656 0.951 . S
H638 C658 0.950 . S
H639 C659 0.950 . S
H640 C661 0.950 . S
H641 C664 0.950 . S
H642 C665 0.950 . S
H643 C667 0.950 . S
H644 C668 0.950 . S
H645 C669 0.951 . S
H646 C671 0.951 . S
H647 C673 0.950 . S
H648 C674 0.950 . S
H649 C676 0.950 . S
H650 C679 0.950 . S
H651 C680 0.950 . S
H652 C682 0.950 . S
H653 C683 0.950 . S
C654 H636 0.951 . S
C654 C655 1.366 . S
C654 C656 1.388 . S
C655 C654 1.366 . S
C655 C659 1.385 . S
C656 H637 0.951 . S
C656 C654 1.388 . S
C656 C657 1.366 . S
C657 C656 1.366 . S
C657 C658 1.414 . S
C657 C660 1.499 . S
C658 H638 0.950 . S
C658 C657 1.414 . S
C658 C659 1.374 . S
C659 H639 0.950 . S
C659 C655 1.385 . S
C659 C658 1.374 . S
C660 C657 1.499 . S
C660 C661 1.373 . S
C660 C662 1.389 . S
C661 H640 0.950 . S
C661 C660 1.373 . S
C661 C677 1.377 . S
C662 C660 1.389 . S
C662 C663 1.524 . S
C662 C676 1.377 . S
C663 C662 1.524 . S
C663 C664 1.397 . S
C663 C668 1.363 . S
C664 H641 0.950 . S
C664 C663 1.397 . S
C664 C665 1.334 . S
C665 H642 0.950 . S
C665 C664 1.334 . S
C665 C666 1.287 . S
C666 C665 1.287 . S
C666 C667 1.524 . S
C666 H685 0.913 . S
C667 H643 0.950 . S
C667 C666 1.524 . S
C667 C668 1.415 . S
C668 H644 0.950 . S
C668 C663 1.363 . S
C668 C667 1.415 . S
C669 H645 0.951 . S
C669 C670 1.366 . S
C669 C671 1.388 . S
C670 C669 1.366 . S
C670 C674 1.385 . S
C671 H646 0.951 . S
C671 C669 1.388 . S
C671 C672 1.366 . S
C672 C671 1.366 . S
C672 C673 1.414 . S
C672 C675 1.499 . S
C673 H647 0.950 . S
C673 C672 1.414 . S
C673 C674 1.374 . S
C674 H648 0.950 . S
C674 C670 1.385 . S
C674 C673 1.374 . S
C675 C672 1.499 . S
C675 C676 1.373 . S
C675 C677 1.389 . S
C676 H649 0.950 . S
C676 C662 1.377 . S
C676 C675 1.373 . S
C677 C661 1.377 . S
C677 C675 1.389 . S
C677 C678 1.524 . S
C678 C677 1.524 . S
C678 C679 1.397 . S
C678 C683 1.363 . S
C679 H650 0.950 . S
C679 C678 1.397 . S
C679 C680 1.334 . S
C680 H651 0.950 . S
C680 C679 1.334 . S
C680 C681 1.287 . S
C681 C680 1.287 . S
C681 C682 1.524 . S
C681 H684 0.999 . S
C682 H652 0.950 . S
C682 C681 1.524 . S
C682 C683 1.415 . S
C683 H653 0.950 . S
C683 C678 1.363 . S
C683 C682 1.415 . S
H684 C681 0.999 . S
H685 C666 0.913 . S
H686 C704 0.951 . S
H687 C706 0.951 . S
H688 C708 0.950 . S
H689 C709 0.950 . S
H690 C711 0.950 . S
H691 C714 0.950 . S
H692 C715 0.950 . S
H693 C717 0.950 . S
H694 C718 0.950 . S
H695 C719 0.951 . S
H696 C721 0.951 . S
H697 C723 0.950 . S
H698 C724 0.950 . S
H699 C726 0.950 . S
H700 C729 0.950 . S
H701 C730 0.950 . S
H702 C732 0.950 . S
H703 C733 0.950 . S
C704 H686 0.951 . S
C704 C705 1.366 . S
C704 C706 1.388 . S
C705 C704 1.366 . S
C705 C709 1.385 . S
C706 H687 0.951 . S
C706 C704 1.388 . S
C706 C707 1.366 . S
C707 C706 1.366 . S
C707 C708 1.414 . S
C707 C710 1.499 . S
C708 H688 0.950 . S
C708 C707 1.414 . S
C708 C709 1.374 . S
C709 H689 0.950 . S
C709 C705 1.385 . S
C709 C708 1.374 . S
C710 C707 1.499 . S
C710 C711 1.373 . S
C710 C712 1.389 . S
C711 H690 0.950 . S
C711 C710 1.373 . S
C711 C727 1.377 . S
C712 C710 1.389 . S
C712 C713 1.524 . S
C712 C726 1.377 . S
C713 C712 1.524 . S
C713 C714 1.397 . S
C713 C718 1.363 . S
C714 H691 0.950 . S
C714 C713 1.397 . S
C714 C715 1.334 . S
C715 H692 0.950 . S
C715 C714 1.334 . S
C715 C716 1.287 . S
C716 C715 1.287 . S
C716 C717 1.524 . S
C716 H735 0.913 . S
C717 H693 0.950 . S
C717 C716 1.524 . S
C717 C718 1.415 . S
C718 H694 0.950 . S
C718 C713 1.363 . S
C718 C717 1.415 . S
C719 H695 0.951 . S
C719 C720 1.366 . S
C719 C721 1.388 . S
C720 C719 1.366 . S
C720 C724 1.385 . S
C721 H696 0.951 . S
C721 C719 1.388 . S
C721 C722 1.366 . S
C722 C721 1.366 . S
C722 C723 1.414 . S
C722 C725 1.499 . S
C723 H697 0.950 . S
C723 C722 1.414 . S
C723 C724 1.374 . S
C724 H698 0.950 . S
C724 C720 1.385 . S
C724 C723 1.374 . S
C725 C722 1.499 . S
C725 C726 1.373 . S
C725 C727 1.389 . S
C726 H699 0.950 . S
C726 C712 1.377 . S
C726 C725 1.373 . S
C727 C711 1.377 . S
C727 C725 1.389 . S
C727 C728 1.524 . S
C728 C727 1.524 . S
C728 C729 1.397 . S
C728 C733 1.363 . S
C729 H700 0.950 . S
C729 C728 1.397 . S
C729 C730 1.334 . S
C730 H701 0.950 . S
C730 C729 1.334 . S
C730 C731 1.287 . S
C731 C730 1.287 . S
C731 C732 1.524 . S
C731 H734 0.999 . S
C732 H702 0.950 . S
C732 C731 1.524 . S
C732 C733 1.415 . S
C733 H703 0.950 . S
C733 C728 1.363 . S
C733 C732 1.415 . S
H734 C731 0.999 . S
H735 C716 0.913 . S
H736 C754 0.951 . S
H737 C756 0.951 . S
H738 C758 0.950 . S
H739 C759 0.950 . S
H740 C761 0.950 . S
H741 C764 0.950 . S
H742 C765 0.950 . S
H743 C767 0.950 . S
H744 C768 0.950 . S
H745 C769 0.951 . S
H746 C771 0.951 . S
H747 C773 0.950 . S
H748 C774 0.950 . S
H749 C776 0.950 . S
H750 C779 0.950 . S
H751 C780 0.950 . S
H752 C782 0.950 . S
H753 C783 0.950 . S
C754 H736 0.951 . S
C754 C755 1.366 . S
C754 C756 1.388 . S
C755 C754 1.366 . S
C755 C759 1.385 . S
C756 H737 0.951 . S
C756 C754 1.388 . S
C756 C757 1.366 . S
C757 C756 1.366 . S
C757 C758 1.414 . S
C757 C760 1.499 . S
C758 H738 0.950 . S
C758 C757 1.414 . S
C758 C759 1.374 . S
C759 H739 0.950 . S
C759 C755 1.385 . S
C759 C758 1.374 . S
C760 C757 1.499 . S
C760 C761 1.373 . S
C760 C762 1.389 . S
C761 H740 0.950 . S
C761 C760 1.373 . S
C761 C777 1.377 . S
C762 C760 1.389 . S
C762 C763 1.524 . S
C762 C776 1.377 . S
C763 C762 1.524 . S
C763 C764 1.397 . S
C763 C768 1.363 . S
C764 H741 0.950 . S
C764 C763 1.397 . S
C764 C765 1.334 . S
C765 H742 0.950 . S
C765 C764 1.334 . S
C765 C766 1.287 . S
C766 C765 1.287 . S
C766 C767 1.524 . S
C766 H785 0.913 . S
C767 H743 0.950 . S
C767 C766 1.524 . S
C767 C768 1.415 . S
C768 H744 0.950 . S
C768 C763 1.363 . S
C768 C767 1.415 . S
C769 H745 0.951 . S
C769 C770 1.366 . S
C769 C771 1.388 . S
C770 C769 1.366 . S
C770 C774 1.385 . S
C771 H746 0.951 . S
C771 C769 1.388 . S
C771 C772 1.366 . S
C772 C771 1.366 . S
C772 C773 1.414 . S
C772 C775 1.499 . S
C773 H747 0.950 . S
C773 C772 1.414 . S
C773 C774 1.374 . S
C774 H748 0.950 . S
C774 C770 1.385 . S
C774 C773 1.374 . S
C775 C772 1.499 . S
C775 C776 1.373 . S
C775 C777 1.389 . S
C776 H749 0.950 . S
C776 C762 1.377 . S
C776 C775 1.373 . S
C777 C761 1.377 . S
C777 C775 1.389 . S
C777 C778 1.524 . S
C778 C777 1.524 . S
C778 C779 1.397 . S
C778 C783 1.363 . S
C779 H750 0.950 . S
C779 C778 1.397 . S
C779 C780 1.334 . S
C780 H751 0.950 . S
C780 C779 1.334 . S
C780 C781 1.287 . S
C781 C780 1.287 . S
C781 C782 1.524 . S
C781 H784 0.999 . S
C782 H752 0.950 . S
C782 C781 1.524 . S
C782 C783 1.415 . S
C783 H753 0.950 . S
C783 C778 1.363 . S
C783 C782 1.415 . S
H784 C781 0.999 . S
H785 C766 0.913 . S
H786 C804 0.951 . S
H787 C806 0.951 . S
H788 C808 0.950 . S
H789 C809 0.950 . S
H790 C811 0.950 . S
H791 C814 0.950 . S
H792 C815 0.950 . S
H793 C817 0.950 . S
H794 C818 0.950 . S
H795 C819 0.951 . S
H796 C821 0.951 . S
H797 C823 0.950 . S
H798 C824 0.950 . S
H799 C826 0.950 . S
H800 C829 0.950 . S
H801 C830 0.950 . S
H802 C832 0.950 . S
H803 C833 0.950 . S
C804 H786 0.951 . S
C804 C805 1.366 . S
C804 C806 1.388 . S
C805 C804 1.366 . S
C805 C809 1.385 . S
C806 H787 0.951 . S
C806 C804 1.388 . S
C806 C807 1.366 . S
C807 C806 1.366 . S
C807 C808 1.414 . S
C807 C810 1.499 . S
C808 H788 0.950 . S
C808 C807 1.414 . S
C808 C809 1.374 . S
C809 H789 0.950 . S
C809 C805 1.385 . S
C809 C808 1.374 . S
C810 C807 1.499 . S
C810 C811 1.373 . S
C810 C812 1.389 . S
C811 H790 0.950 . S
C811 C810 1.373 . S
C811 C827 1.377 . S
C812 C810 1.389 . S
C812 C813 1.524 . S
C812 C826 1.377 . S
C813 C812 1.524 . S
C813 C814 1.397 . S
C813 C818 1.363 . S
C814 H791 0.950 . S
C814 C813 1.397 . S
C814 C815 1.334 . S
C815 H792 0.950 . S
C815 C814 1.334 . S
C815 C816 1.287 . S
C816 C815 1.287 . S
C816 C817 1.524 . S
C816 H835 0.913 . S
C817 H793 0.950 . S
C817 C816 1.524 . S
C817 C818 1.415 . S
C818 H794 0.950 . S
C818 C813 1.363 . S
C818 C817 1.415 . S
C819 H795 0.951 . S
C819 C820 1.366 . S
C819 C821 1.388 . S
C820 C819 1.366 . S
C820 C824 1.385 . S
C821 H796 0.951 . S
C821 C819 1.388 . S
C821 C822 1.366 . S
C822 C821 1.366 . S
C822 C823 1.414 . S
C822 C825 1.499 . S
C823 H797 0.950 . S
C823 C822 1.414 . S
C823 C824 1.374 . S
C824 H798 0.950 . S
C824 C820 1.385 . S
C824 C823 1.374 . S
C825 C822 1.499 . S
C825 C826 1.373 . S
C825 C827 1.389 . S
C826 H799 0.950 . S
C826 C812 1.377 . S
C826 C825 1.373 . S
C827 C811 1.377 . S
C827 C825 1.389 . S
C827 C828 1.524 . S
C828 C827 1.524 . S
C828 C829 1.397 . S
C828 C833 1.363 . S
C829 H800 0.950 . S
C829 C828 1.397 . S
C829 C830 1.334 . S
C830 H801 0.950 . S
C830 C829 1.334 . S
C830 C831 1.287 . S
C831 C830 1.287 . S
C831 C832 1.524 . S
C831 H834 0.999 . S
C832 H802 0.950 . S
C832 C831 1.524 . S
C832 C833 1.415 . S
C833 H803 0.950 . S
C833 C828 1.363 . S
C833 C832 1.415 . S
H834 C831 0.999 . S
H835 C816 0.913 . S
H836 C854 0.951 . S
H837 C856 0.951 . S
H838 C858 0.950 . S
H839 C859 0.950 . S
H840 C861 0.950 . S
H841 C864 0.950 . S
H842 C865 0.950 . S
H843 C867 0.950 . S
H844 C868 0.950 . S
H845 C869 0.951 . S
H846 C871 0.951 . S
H847 C873 0.950 . S
H848 C874 0.950 . S
H849 C876 0.950 . S
H850 C879 0.950 . S
H851 C880 0.950 . S
H852 C882 0.950 . S
H853 C883 0.950 . S
C854 H836 0.951 . S
C854 C855 1.366 . S
C854 C856 1.388 . S
C855 C854 1.366 . S
C855 C859 1.385 . S
C856 H837 0.951 . S
C856 C854 1.388 . S
C856 C857 1.366 . S
C857 C856 1.366 . S
C857 C858 1.414 . S
C857 C860 1.499 . S
C858 H838 0.950 . S
C858 C857 1.414 . S
C858 C859 1.374 . S
C859 H839 0.950 . S
C859 C855 1.385 . S
C859 C858 1.374 . S
C860 C857 1.499 . S
C860 C861 1.373 . S
C860 C862 1.389 . S
C861 H840 0.950 . S
C861 C860 1.373 . S
C861 C877 1.377 . S
C862 C860 1.389 . S
C862 C863 1.524 . S
C862 C876 1.377 . S
C863 C862 1.524 . S
C863 C864 1.397 . S
C863 C868 1.363 . S
C864 H841 0.950 . S
C864 C863 1.397 . S
C864 C865 1.334 . S
C865 H842 0.950 . S
C865 C864 1.334 . S
C865 C866 1.287 . S
C866 C865 1.287 . S
C866 C867 1.524 . S
C866 H885 0.913 . S
C867 H843 0.950 . S
C867 C866 1.524 . S
C867 C868 1.415 . S
C868 H844 0.950 . S
C868 C863 1.363 . S
C868 C867 1.415 . S
C869 H845 0.951 . S
C869 C870 1.366 . S
C869 C871 1.388 . S
C870 C869 1.366 . S
C870 C874 1.385 . S
C871 H846 0.951 . S
C871 C869 1.388 . S
C871 C872 1.366 . S
C872 C871 1.366 . S
C872 C873 1.414 . S
C872 C875 1.499 . S
C873 H847 0.950 . S
C873 C872 1.414 . S
C873 C874 1.374 . S
C874 H848 0.950 . S
C874 C870 1.385 . S
C874 C873 1.374 . S
C875 C872 1.499 . S
C875 C876 1.373 . S
C875 C877 1.389 . S
C876 H849 0.950 . S
C876 C862 1.377 . S
C876 C875 1.373 . S
C877 C861 1.377 . S
C877 C875 1.389 . S
C877 C878 1.524 . S
C878 C877 1.524 . S
C878 C879 1.397 . S
C878 C883 1.363 . S
C879 H850 0.950 . S
C879 C878 1.397 . S
C879 C880 1.334 . S
C880 H851 0.950 . S
C880 C879 1.334 . S
C880 C881 1.287 . S
C881 C880 1.287 . S
C881 C882 1.524 . S
C881 H884 0.999 . S
C882 H852 0.950 . S
C882 C881 1.524 . S
C882 C883 1.415 . S
C883 H853 0.950 . S
C883 C878 1.363 . S
C883 C882 1.415 . S
H884 C881 0.999 . S
H885 C866 0.913 . S
H886 C904 0.951 . S
H887 C906 0.951 . S
H888 C908 0.950 . S
H889 C909 0.950 . S
H890 C911 0.950 . S
H891 C914 0.950 . S
H892 C915 0.950 . S
H893 C917 0.950 . S
H894 C918 0.950 . S
H895 C919 0.951 . S
H896 C921 0.951 . S
H897 C923 0.950 . S
H898 C924 0.950 . S
H899 C926 0.950 . S
H900 C929 0.950 . S
H901 C930 0.950 . S
H902 C932 0.950 . S
H903 C933 0.950 . S
C904 H886 0.951 . S
C904 C905 1.366 . S
C904 C906 1.388 . S
C905 C904 1.366 . S
C905 C909 1.385 . S
C906 H887 0.951 . S
C906 C904 1.388 . S
C906 C907 1.366 . S
C907 C906 1.366 . S
C907 C908 1.414 . S
C907 C910 1.499 . S
C908 H888 0.950 . S
C908 C907 1.414 . S
C908 C909 1.374 . S
C909 H889 0.950 . S
C909 C905 1.385 . S
C909 C908 1.374 . S
C910 C907 1.499 . S
C910 C911 1.373 . S
C910 C912 1.389 . S
C911 H890 0.950 . S
C911 C910 1.373 . S
C911 C927 1.377 . S
C912 C910 1.389 . S
C912 C913 1.524 . S
C912 C926 1.377 . S
C913 C912 1.524 . S
C913 C914 1.397 . S
C913 C918 1.363 . S
C914 H891 0.950 . S
C914 C913 1.397 . S
C914 C915 1.334 . S
C915 H892 0.950 . S
C915 C914 1.334 . S
C915 C916 1.287 . S
C916 C915 1.287 . S
C916 C917 1.524 . S
C916 H935 0.913 . S
C917 H893 0.950 . S
C917 C916 1.524 . S
C917 C918 1.415 . S
C918 H894 0.950 . S
C918 C913 1.363 . S
C918 C917 1.415 . S
C919 H895 0.951 . S
C919 C920 1.366 . S
C919 C921 1.388 . S
C920 C919 1.366 . S
C920 C924 1.385 . S
C921 H896 0.951 . S
C921 C919 1.388 . S
C921 C922 1.366 . S
C922 C921 1.366 . S
C922 C923 1.414 . S
C922 C925 1.499 . S
C923 H897 0.950 . S
C923 C922 1.414 . S
C923 C924 1.374 . S
C924 H898 0.950 . S
C924 C920 1.385 . S
C924 C923 1.374 . S
C925 C922 1.499 . S
C925 C926 1.373 . S
C925 C927 1.389 . S
C926 H899 0.950 . S
C926 C912 1.377 . S
C926 C925 1.373 . S
C927 C911 1.377 . S
C927 C925 1.389 . S
C927 C928 1.524 . S
C928 C927 1.524 . S
C928 C929 1.397 . S
C928 C933 1.363 . S
C929 H900 0.950 . S
C929 C928 1.397 . S
C929 C930 1.334 . S
C930 H901 0.950 . S
C930 C929 1.334 . S
C930 C931 1.287 . S
C931 C930 1.287 . S
C931 C932 1.524 . S
C931 H934 0.999 . S
C932 H902 0.950 . S
C932 C931 1.524 . S
C932 C933 1.415 . S
C933 H903 0.950 . S
C933 C928 1.363 . S
C933 C932 1.415 . S
H934 C931 0.999 . S
H935 C916 0.913 . S
H936 C954 0.951 1_655 S
H937 C956 0.951 1_655 S
H938 C958 0.950 . S
H939 C959 0.950 . S
H940 C961 0.950 . S
H941 C964 0.950 . S
H942 C965 0.950 . S
H943 C967 0.950 . S
H944 C968 0.950 . S
H945 C969 0.951 . S
H946 C971 0.951 . S
H947 C973 0.950 1_655 S
H948 C974 0.950 1_655 S
H949 C976 0.950 . S
H950 C979 0.950 . S
H951 C980 0.950 . S
H952 C982 0.950 1_455 S
H953 C983 0.950 . S
C954 H936 0.951 1_455 S
C954 C955 1.366 . S
C954 C956 1.388 . S
C955 C954 1.366 . S
C955 C959 1.385 . S
C956 H937 0.951 1_455 S
C956 C954 1.388 . S
C956 C957 1.366 . S
C957 C956 1.366 . S
C957 C958 1.414 . S
C957 C960 1.499 . S
C958 H938 0.950 . S
C958 C957 1.414 . S
C958 C959 1.374 . S
C959 H939 0.950 . S
C959 C955 1.385 . S
C959 C958 1.374 . S
C960 C957 1.499 . S
C960 C961 1.373 . S
C960 C962 1.389 . S
C961 H940 0.950 . S
C961 C960 1.373 . S
C961 C977 1.377 . S
C962 C960 1.389 . S
C962 C963 1.524 . S
C962 C976 1.377 . S
C963 C962 1.524 . S
C963 C964 1.397 . S
C963 C968 1.363 . S
C964 H941 0.950 . S
C964 C963 1.397 . S
C964 C965 1.334 . S
C965 H942 0.950 . S
C965 C964 1.334 . S
C965 C966 1.287 . S
C966 C965 1.287 . S
C966 C967 1.524 . S
C966 H985 0.913 . S
C967 H943 0.950 . S
C967 C966 1.524 . S
C967 C968 1.415 . S
C968 H944 0.950 . S
C968 C963 1.363 . S
C968 C967 1.415 . S
C969 H945 0.951 . S
C969 C970 1.366 . S
C969 C971 1.388 1_556 S
C970 C969 1.366 . S
C970 C974 1.385 . S
C971 H946 0.951 . S
C971 C969 1.388 1_554 S
C971 C972 1.366 . S
C972 C971 1.366 . S
C972 C973 1.414 . S
C972 C975 1.499 . S
C973 H947 0.950 1_455 S
C973 C972 1.414 . S
C973 C974 1.374 1_554 S
C974 H948 0.950 1_455 S
C974 C970 1.385 . S
C974 C973 1.374 1_556 S
C975 C972 1.499 . S
C975 C976 1.373 . S
C975 C977 1.389 . S
C976 H949 0.950 . S
C976 C962 1.377 . S
C976 C975 1.373 . S
C977 C961 1.377 . S
C977 C975 1.389 . S
C977 C978 1.524 1_455 S
C978 C977 1.524 1_655 S
C978 C979 1.397 . S
C978 C983 1.363 1_655 S
C979 H950 0.950 . S
C979 C978 1.397 . S
C979 C980 1.334 . S
C980 H951 0.950 . S
C980 C979 1.334 . S
C980 C981 1.287 . S
C981 C980 1.287 . S
C981 C982 1.524 . S
C981 H984 0.999 . S
C982 H952 0.950 1_655 S
C982 C981 1.524 . S
C982 C983 1.415 1_655 S
C983 H953 0.950 . S
C983 C978 1.363 1_455 S
C983 C982 1.415 1_455 S
H984 C981 0.999 . S
H985 C966 0.913 . S
H986 C1004 0.951 1_565 S
H987 C1006 0.951 1_565 S
H988 C1008 0.950 . S
H989 C1009 0.950 . S
H990 C1011 0.950 . S
H991 C1014 0.978 . S
H992 C1015 0.950 . S
H993 C1017 0.950 . S
H994 C1018 0.950 . S
H995 C1019 0.951 . S
H996 C1021 0.951 . S
H997 C1023 0.947 1_565 S
H998 C1024 0.970 . S
H999 C1026 0.950 1_565 S
H1000 C1029 0.950 . S
H1001 C1030 0.950 . S
H1002 C1032 0.950 . S
H1003 C1033 0.950 . S
C1004 H986 0.951 1_545 S
C1004 C1005 1.366 . S
C1004 C1006 1.388 . S
C1005 C1004 1.366 . S
C1005 C1009 1.385 . S
C1006 H987 0.951 1_545 S
C1006 C1004 1.388 . S
C1006 C1007 1.366 . S
C1007 C1006 1.366 . S
C1007 C1008 1.414 . S
C1007 C1010 1.499 . S
C1008 H988 0.950 . S
C1008 C1007 1.414 . S
C1008 C1009 1.374 . S
C1009 H989 0.950 . S
C1009 C1005 1.385 . S
C1009 C1008 1.374 . S
C1010 C1007 1.499 . S
C1010 C1011 1.373 . S
C1010 C1012 1.389 . S
C1011 H990 0.950 . S
C1011 C1010 1.373 . S
C1011 C1027 1.377 . S
C1012 C1010 1.389 . S
C1012 C1013 1.524 1_545 S
C1012 C1026 1.377 . S
C1013 C1012 1.524 1_565 S
C1013 C1014 1.397 1_565 S
C1013 C1018 1.363 . S
C1014 H991 0.978 . S
C1014 C1013 1.397 1_545 S
C1014 C1015 1.306 1_545 S
C1015 H992 0.950 . S
C1015 C1014 1.306 1_565 S
C1015 C1016 1.287 . S
C1016 C1015 1.287 . S
C1016 C1017 1.524 . S
C1016 H1035 0.913 . S
C1017 H993 0.950 . S
C1017 C1016 1.524 . S
C1017 C1018 1.415 . S
C1018 H994 0.950 . S
C1018 C1013 1.363 . S
C1018 C1017 1.415 . S
C1019 H995 0.951 . S
C1019 C1020 1.366 . S
C1019 C1021 1.388 . S
C1020 C1019 1.366 . S
C1020 C1024 1.366 1_545 S
C1021 H996 0.951 . S
C1021 C1019 1.388 . S
C1021 C1022 1.366 . S
C1022 C1021 1.366 . S
C1022 C1023 1.417 . S
C1022 C1025 1.499 . S
C1023 H997 0.947 1_545 S
C1023 C1022 1.417 . S
C1023 C1024 1.373 1_545 S
C1024 H998 0.970 . S
C1024 C1020 1.366 1_565 S
C1024 C1023 1.373 1_565 S
C1025 C1022 1.499 . S
C1025 C1026 1.373 . S
C1025 C1027 1.389 . S
C1026 H999 0.950 1_545 S
C1026 C1012 1.377 . S
C1026 C1025 1.373 . S
C1027 C1011 1.377 . S
C1027 C1025 1.389 . S
C1027 C1028 1.524 . S
C1028 C1027 1.524 . S
C1028 C1029 1.397 . S
C1028 C1033 1.363 . S
C1029 H1000 0.950 . S
C1029 C1028 1.397 . S
C1029 C1030 1.334 . S
C1030 H1001 0.950 . S
C1030 C1029 1.334 . S
C1030 C1031 1.287 . S
C1031 C1030 1.287 . S
C1031 C1032 1.524 . S
C1031 H1034 0.999 . S
C1032 H1002 0.950 . S
C1032 C1031 1.524 . S
C1032 C1033 1.415 . S
C1033 H1003 0.950 . S
C1033 C1028 1.363 . S
C1033 C1032 1.415 . S
H1034 C1031 0.999 . S
H1035 C1016 0.913 . S
H1036 C1054 0.951 . S
H1037 C1056 0.951 . S
H1038 C1058 0.950 . S
H1039 C1059 0.950 . S
H1040 C1061 0.950 . S
H1041 C1064 0.950 . S
H1042 C1065 0.950 . S
H1043 C1067 0.950 . S
H1044 C1068 0.950 . S
H1045 C1069 0.951 . S
H1046 C1071 0.951 . S
H1047 C1073 0.950 . S
H1048 C1074 0.950 . S
H1049 C1076 0.950 . S
H1050 C1079 0.950 . S
H1051 C1080 0.950 . S
H1052 C1082 0.950 . S
H1053 C1083 0.950 . S
C1054 H1036 0.951 . S
C1054 C1055 1.366 . S
C1054 C1056 1.388 . S
C1055 C1054 1.366 . S
C1055 C1059 1.385 . S
C1056 H1037 0.951 . S
C1056 C1054 1.388 . S
C1056 C1057 1.366 . S
C1057 C1056 1.366 . S
C1057 C1058 1.414 . S
C1057 C1060 1.499 . S
C1058 H1038 0.950 . S
C1058 C1057 1.414 . S
C1058 C1059 1.374 . S
C1059 H1039 0.950 . S
C1059 C1055 1.385 . S
C1059 C1058 1.374 . S
C1060 C1057 1.499 . S
C1060 C1061 1.373 . S
C1060 C1062 1.389 . S
C1061 H1040 0.950 . S
C1061 C1060 1.373 . S
C1061 C1077 1.377 . S
C1062 C1060 1.389 . S
C1062 C1063 1.524 . S
C1062 C1076 1.377 . S
C1063 C1062 1.524 . S
C1063 C1064 1.397 . S
C1063 C1068 1.363 . S
C1064 H1041 0.950 . S
C1064 C1063 1.397 . S
C1064 C1065 1.334 . S
C1065 H1042 0.950 . S
C1065 C1064 1.334 . S
C1065 C1066 1.287 . S
C1066 C1065 1.287 . S
C1066 C1067 1.524 . S
C1066 H1085 0.913 . S
C1067 H1043 0.950 . S
C1067 C1066 1.524 . S
C1067 C1068 1.415 . S
C1068 H1044 0.950 . S
C1068 C1063 1.363 . S
C1068 C1067 1.415 . S
C1069 H1045 0.951 . S
C1069 C1070 1.366 . S
C1069 C1071 1.388 . S
C1070 C1069 1.366 . S
C1070 C1074 1.385 . S
C1071 H1046 0.951 . S
C1071 C1069 1.388 . S
C1071 C1072 1.366 . S
C1072 C1071 1.366 . S
C1072 C1073 1.414 . S
C1072 C1075 1.499 . S
C1073 H1047 0.950 . S
C1073 C1072 1.414 . S
C1073 C1074 1.374 . S
C1074 H1048 0.950 . S
C1074 C1070 1.385 . S
C1074 C1073 1.374 . S
C1075 C1072 1.499 . S
C1075 C1076 1.373 . S
C1075 C1077 1.389 . S
C1076 H1049 0.950 . S
C1076 C1062 1.377 . S
C1076 C1075 1.373 . S
C1077 C1061 1.377 . S
C1077 C1075 1.389 . S
C1077 C1078 1.524 . S
C1078 C1077 1.524 . S
C1078 C1079 1.397 . S
C1078 C1083 1.363 . S
C1079 H1050 0.950 . S
C1079 C1078 1.397 . S
C1079 C1080 1.334 . S
C1080 H1051 0.950 . S
C1080 C1079 1.334 . S
C1080 C1081 1.287 . S
C1081 C1080 1.287 . S
C1081 C1082 1.524 . S
C1081 H1084 0.999 . S
C1082 H1052 0.950 . S
C1082 C1081 1.524 . S
C1082 C1083 1.415 . S
C1083 H1053 0.950 . S
C1083 C1078 1.363 . S
C1083 C1082 1.415 . S
H1084 C1081 0.999 . S
H1085 C1066 0.913 . S
H1086 C1104 0.951 . S
H1087 C1106 0.951 . S
H1088 C1108 0.974 . S
H1089 C1109 0.950 1_565 S
H1090 C1111 0.950 1_565 S
H1091 C1114 0.950 . S
H1092 C1115 0.950 . S
H1093 C1117 0.950 . S
H1094 C1118 0.950 . S
H1095 C1119 0.951 . S
H1096 C1121 0.951 . S
H1097 C1123 0.950 . S
H1098 C1124 0.950 . S
H1099 C1126 0.950 . S
H1100 C1129 0.950 . S
H1101 C1130 0.950 1_545 S
H1102 C1132 0.950 . S
H1103 C1133 0.950 . S
C1104 H1086 0.951 . S
C1104 C1105 1.366 . S
C1104 C1106 1.388 . S
C1105 C1104 1.366 . S
C1105 C1109 1.385 . S
C1106 H1087 0.951 . S
C1106 C1104 1.388 . S
C1106 C1107 1.366 . S
C1107 C1106 1.366 . S
C1107 C1108 1.394 1_545 S
C1107 C1110 1.499 . S
C1108 H1088 0.974 . S
C1108 C1107 1.394 1_565 S
C1108 C1109 1.371 1_565 S
C1109 H1089 0.950 1_545 S
C1109 C1105 1.385 . S
C1109 C1108 1.371 1_545 S
C1110 C1107 1.499 . S
C1110 C1111 1.373 . S
C1110 C1112 1.389 . S
C1111 H1090 0.950 1_545 S
C1111 C1110 1.373 . S
C1111 C1127 1.377 . S
C1112 C1110 1.389 . S
C1112 C1113 1.524 . S
C1112 C1126 1.377 . S
C1113 C1112 1.524 . S
C1113 C1114 1.397 . S
C1113 C1118 1.363 . S
C1114 H1091 0.950 . S
C1114 C1113 1.397 . S
C1114 C1115 1.334 . S
C1115 H1092 0.950 . S
C1115 C1114 1.334 . S
C1115 C1116 1.287 . S
C1116 C1115 1.287 . S
C1116 C1117 1.524 . S
C1116 H1135 0.913 . S
C1117 H1093 0.950 . S
C1117 C1116 1.524 . S
C1117 C1118 1.415 . S
C1118 H1094 0.950 . S
C1118 C1113 1.363 . S
C1118 C1117 1.415 . S
C1119 H1095 0.951 . S
C1119 C1120 1.366 1_565 S
C1119 C1121 1.388 . S
C1120 C1119 1.366 1_545 S
C1120 C1124 1.385 . S
C1121 H1096 0.951 . S
C1121 C1119 1.388 . S
C1121 C1122 1.366 1_565 S
C1122 C1121 1.366 1_545 S
C1122 C1123 1.414 . S
C1122 C1125 1.499 . S
C1123 H1097 0.950 . S
C1123 C1122 1.414 . S
C1123 C1124 1.374 . S
C1124 H1098 0.950 . S
C1124 C1120 1.385 . S
C1124 C1123 1.374 . S
C1125 C1122 1.499 . S
C1125 C1126 1.373 . S
C1125 C1127 1.389 . S
C1126 H1099 0.950 . S
C1126 C1112 1.377 . S
C1126 C1125 1.373 . S
C1127 C1111 1.377 . S
C1127 C1125 1.389 . S
C1127 C1128 1.524 1_545 S
C1128 C1127 1.524 1_565 S
C1128 C1129 1.397 1_565 S
C1128 C1133 1.363 . S
C1129 H1100 0.950 . S
C1129 C1128 1.397 1_545 S
C1129 C1130 1.334 1_545 S
C1130 H1101 0.950 1_565 S
C1130 C1129 1.334 1_565 S
C1130 C1131 1.287 . S
C1131 C1130 1.287 . S
C1131 C1132 1.524 . S
C1131 H1134 0.999 . S
C1132 H1102 0.950 . S
C1132 C1131 1.524 . S
C1132 C1133 1.415 . S
C1133 H1103 0.950 . S
C1133 C1128 1.363 . S
C1133 C1132 1.415 . S
H1134 C1131 0.999 . S
H1135 C1116 0.913 . S
H1136 C1154 0.951 . S
H1137 C1156 0.951 . S
H1138 C1158 0.950 . S
H1139 C1159 0.950 . S
H1140 C1161 0.950 . S
H1141 C1164 0.950 . S
H1142 C1165 0.950 . S
H1143 C1167 0.950 . S
H1144 C1168 0.950 . S
H1145 C1169 0.951 . S
H1146 C1171 0.951 . S
H1147 C1173 0.950 . S
H1148 C1174 0.950 . S
H1149 C1176 0.950 . S
H1150 C1179 0.950 . S
H1151 C1180 0.950 . S
H1152 C1182 0.950 . S
H1153 C1183 0.950 . S
C1154 H1136 0.951 . S
C1154 C1155 1.366 . S
C1154 C1156 1.388 . S
C1155 C1154 1.366 . S
C1155 C1159 1.385 . S
C1156 H1137 0.951 . S
C1156 C1154 1.388 . S
C1156 C1157 1.366 . S
C1157 C1156 1.366 . S
C1157 C1158 1.414 . S
C1157 C1160 1.499 . S
C1158 H1138 0.950 . S
C1158 C1157 1.414 . S
C1158 C1159 1.374 . S
C1159 H1139 0.950 . S
C1159 C1155 1.385 . S
C1159 C1158 1.374 . S
C1160 C1157 1.499 . S
C1160 C1161 1.373 . S
C1160 C1162 1.389 . S
C1161 H1140 0.950 . S
C1161 C1160 1.373 . S
C1161 C1177 1.377 . S
C1162 C1160 1.389 . S
C1162 C1163 1.524 . S
C1162 C1176 1.377 . S
C1163 C1162 1.524 . S
C1163 C1164 1.397 . S
C1163 C1168 1.363 . S
C1164 H1141 0.950 . S
C1164 C1163 1.397 . S
C1164 C1165 1.334 . S
C1165 H1142 0.950 . S
C1165 C1164 1.334 . S
C1165 C1166 1.287 . S
C1166 C1165 1.287 . S
C1166 C1167 1.524 . S
C1166 H1185 0.913 . S
C1167 H1143 0.950 . S
C1167 C1166 1.524 . S
C1167 C1168 1.415 . S
C1168 H1144 0.950 . S
C1168 C1163 1.363 . S
C1168 C1167 1.415 . S
C1169 H1145 0.951 . S
C1169 C1170 1.366 . S
C1169 C1171 1.388 1_554 S
C1170 C1169 1.366 . S
C1170 C1174 1.385 . S
C1171 H1146 0.951 . S
C1171 C1169 1.388 1_556 S
C1171 C1172 1.366 . S
C1172 C1171 1.366 . S
C1172 C1173 1.414 . S
C1172 C1175 1.499 . S
C1173 H1147 0.950 . S
C1173 C1172 1.414 . S
C1173 C1174 1.374 1_556 S
C1174 H1148 0.950 . S
C1174 C1170 1.385 . S
C1174 C1173 1.374 1_554 S
C1175 C1172 1.499 . S
C1175 C1176 1.373 . S
C1175 C1177 1.389 . S
C1176 H1149 0.950 . S
C1176 C1162 1.377 . S
C1176 C1175 1.373 . S
C1177 C1161 1.377 . S
C1177 C1175 1.389 . S
C1177 C1178 1.524 . S
C1178 C1177 1.524 . S
C1178 C1179 1.397 . S
C1178 C1183 1.363 . S
C1179 H1150 0.950 . S
C1179 C1178 1.397 . S
C1179 C1180 1.334 . S
C1180 H1151 0.950 . S
C1180 C1179 1.334 . S
C1180 C1181 1.287 . S
C1181 C1180 1.287 . S
C1181 C1182 1.524 . S
C1181 H1184 0.999 . S
C1182 H1152 0.950 . S
C1182 C1181 1.524 . S
C1182 C1183 1.415 . S
C1183 H1153 0.950 . S
C1183 C1178 1.363 . S
C1183 C1182 1.415 . S
H1184 C1181 0.999 . S
H1185 C1166 0.913 . S
H1186 C1204 0.951 . S
H1187 C1206 0.951 . S
H1188 C1208 0.950 . S
H1189 C1209 0.950 . S
H1190 C1211 0.950 . S
H1191 C1214 0.950 . S
H1192 C1215 0.950 . S
H1193 C1217 0.950 . S
H1194 C1218 0.950 . S
H1195 C1219 0.951 . S
H1196 C1221 0.951 . S
H1197 C1223 0.950 . S
H1198 C1224 0.950 . S
H1199 C1226 0.950 . S
H1200 C1229 0.950 . S
H1201 C1230 0.950 . S
H1202 C1232 0.950 . S
H1203 C1233 0.950 . S
C1204 H1186 0.951 . S
C1204 C1205 1.366 . S
C1204 C1206 1.388 . S
C1205 C1204 1.366 . S
C1205 C1209 1.385 . S
C1206 H1187 0.951 . S
C1206 C1204 1.388 . S
C1206 C1207 1.366 . S
C1207 C1206 1.366 . S
C1207 C1208 1.414 . S
C1207 C1210 1.499 . S
C1208 H1188 0.950 . S
C1208 C1207 1.414 . S
C1208 C1209 1.374 . S
C1209 H1189 0.950 . S
C1209 C1205 1.385 . S
C1209 C1208 1.374 . S
C1210 C1207 1.499 . S
C1210 C1211 1.373 1_455 S
C1210 C1212 1.389 . S
C1211 H1190 0.950 . S
C1211 C1210 1.373 1_655 S
C1211 C1227 1.377 . S
C1212 C1210 1.389 . S
C1212 C1213 1.524 . S
C1212 C1226 1.377 . S
C1213 C1212 1.524 . S
C1213 C1214 1.397 . S
C1213 C1218 1.363 . S
C1214 H1191 0.950 . S
C1214 C1213 1.397 . S
C1214 C1215 1.334 . S
C1215 H1192 0.950 . S
C1215 C1214 1.334 . S
C1215 C1216 1.287 . S
C1216 C1215 1.287 . S
C1216 C1217 1.524 . S
C1216 H1235 0.913 . S
C1217 H1193 0.950 . S
C1217 C1216 1.524 . S
C1217 C1218 1.415 . S
C1218 H1194 0.950 . S
C1218 C1213 1.363 . S
C1218 C1217 1.415 . S
C1219 H1195 0.951 . S
C1219 C1220 1.366 . S
C1219 C1221 1.388 . S
C1220 C1219 1.366 . S
C1220 C1224 1.385 . S
C1221 H1196 0.951 . S
C1221 C1219 1.388 . S
C1221 C1222 1.366 . S
C1222 C1221 1.366 . S
C1222 C1223 1.414 . S
C1222 C1225 1.499 . S
C1223 H1197 0.950 . S
C1223 C1222 1.414 . S
C1223 C1224 1.374 . S
C1224 H1198 0.950 . S
C1224 C1220 1.385 . S
C1224 C1223 1.374 . S
C1225 C1222 1.499 . S
C1225 C1226 1.373 . S
C1225 C1227 1.389 1_455 S
C1226 H1199 0.950 . S
C1226 C1212 1.377 . S
C1226 C1225 1.373 . S
C1227 C1211 1.377 . S
C1227 C1225 1.389 1_655 S
C1227 C1228 1.524 . S
C1228 C1227 1.524 . S
C1228 C1229 1.397 . S
C1228 C1233 1.363 . S
C1229 H1200 0.950 . S
C1229 C1228 1.397 . S
C1229 C1230 1.334 . S
C1230 H1201 0.950 . S
C1230 C1229 1.334 . S
C1230 C1231 1.287 . S
C1231 C1230 1.287 . S
C1231 C1232 1.524 . S
C1231 H1234 0.999 . S
C1232 H1202 0.950 . S
C1232 C1231 1.524 . S
C1232 C1233 1.415 . S
C1233 H1203 0.950 . S
C1233 C1228 1.363 . S
C1233 C1232 1.415 . S
H1234 C1231 0.999 . S
H1235 C1216 0.913 . S
C355 C9 0.401 . S
C370 C325 0.380 . S
C405 C49 0.250 . S
C420 C253 0.308 . S
C455 C89 0.245 . S
C470 C289 0.326 . S
C505 C26 0.342 . S
C520 C301 0.223 . S
C570 C229 0.319 . S
C555 C66 0.402 . S
C620 C265 0.345 . S
C605 C106 0.426 . S
C655 C43 2.872 . S
C670 C181 2.809 . S
C705 C83 3.032 . S
C720 C193 2.993 . S
C755 C22 3.104 . S
C770 C121 3.060 . S
C820 C157 3.051 . S
C805 C62 3.092 . S
C870 C217 2.862 . S
C855 C102 2.927 . S
C905 C3 2.861 . S
C920 C145 2.802 . S
C970 C223 1.771 . S
C955 C15 1.718 . S
C1005 C55 1.731 . S
C1020 C151 1.771 . S
C1055 C95 1.727 . S
C1070 C187 1.767 . S
C1120 C295 1.093 . S
C1105 C42 1.085 . S
C1170 C331 1.106 . S
C1155 C82 1.089 . S
C1205 C2 1.084 . S
C1220 C259 1.092 . S
