# Generated by pormake.
# Topology anh, (6,3)-cn, num edge types: 1
# Building blocks:
#     Node 0, Type 0, BuildingBlock: BETGAK_clean_sbu_0, # of connection points: 6
#     Node 1, Type 0, BuildingBlock: BETGAK_clean_sbu_0, # of connection points: 6
#     Node 2, Type 0, BuildingBlock: BETGAK_clean_sbu_0, # of connection points: 6
#     Node 3, Type 1, BuildingBlock: QEWDON_clean_linker_0, # of connection points: 3
#     Node 4, Type 1, BuildingBlock: QEWDON_clean_linker_0, # of connection points: 3
#     Node 5, Type 1, BuildingBlock: QEWDON_clean_linker_0, # of connection points: 3
#     Node 6, Type 1, BuildingBlock: QEWDON_clean_linker_0, # of connection points: 3
#     Node 7, Type 1, BuildingBlock: QEWDON_clean_linker_0, # of connection points: 3
#     Node 8, Type 1, BuildingBlock: QEWDON_clean_linker_0, # of connection points: 3
#     Edge 9, Type (0, 1), BuildingBlock: CIFDUS_clean_linker_0, # of connection points: 2
#     Edge 10, Type (0, 1), BuildingBlock: CIFDUS_clean_linker_0, # of connection points: 2
#     Edge 11, Type (0, 1), BuildingBlock: CIFDUS_clean_linker_0, # of connection points: 2
#     Edge 12, Type (0, 1), BuildingBlock: CIFDUS_clean_linker_0, # of connection points: 2
#     Edge 13, Type (0, 1), BuildingBlock: CIFDUS_clean_linker_0, # of connection points: 2
#     Edge 14, Type (0, 1), BuildingBlock: CIFDUS_clean_linker_0, # of connection points: 2
#     Edge 15, Type (0, 1), BuildingBlock: CIFDUS_clean_linker_0, # of connection points: 2
#     Edge 16, Type (0, 1), BuildingBlock: CIFDUS_clean_linker_0, # of connection points: 2
#     Edge 17, Type (0, 1), BuildingBlock: CIFDUS_clean_linker_0, # of connection points: 2
#     Edge 18, Type (0, 1), BuildingBlock: CIFDUS_clean_linker_0, # of connection points: 2
#     Edge 19, Type (0, 1), BuildingBlock: CIFDUS_clean_linker_0, # of connection points: 2
#     Edge 20, Type (0, 1), BuildingBlock: CIFDUS_clean_linker_0, # of connection points: 2
#     Edge 21, Type (0, 1), BuildingBlock: CIFDUS_clean_linker_0, # of connection points: 2
#     Edge 22, Type (0, 1), BuildingBlock: CIFDUS_clean_linker_0, # of connection points: 2
#     Edge 23, Type (0, 1), BuildingBlock: CIFDUS_clean_linker_0, # of connection points: 2
#     Edge 24, Type (0, 1), BuildingBlock: CIFDUS_clean_linker_0, # of connection points: 2
#     Edge 25, Type (0, 1), BuildingBlock: CIFDUS_clean_linker_0, # of connection points: 2
#     Edge 26, Type (0, 1), BuildingBlock: CIFDUS_clean_linker_0, # of connection points: 2
# Relax obj value: 0.158
# Max RMSD: 0.182
# Mean RMSD: 0.127
data_MOF--net-anh--node1-BETGAK_clean_sbu_0--node2-QEWDON_clean_linker_0--edge1-CIFDUS_clean_linker_0
_symmetry_space_group_name_H-M    P1
_symmetry_Int_Tables_number       1
_symmetry_cell_setting            triclinic
loop_
_symmetry_equiv_pos_as_xyz
'x, y, z'
_cell_length_a     29.969403
_cell_length_b     35.524893
_cell_length_c     42.544126
_cell_angle_alpha  95.61805
_cell_angle_beta   92.456666
_cell_angle_gamma 130.9962
loop_
_atom_site_label
_atom_site_type_symbol
_atom_site_fract_x
_atom_site_fract_y
_atom_site_fract_z
_atom_type_partial_charge
La0 La 0.13041 0.55796 0.13648 0.0
La1 La 1.0774 0.59936 0.16477 0.0
C2 C 0.16543 0.52279 0.10239 0.0
C3 C 0.22569 0.54106 0.10096 0.0
C4 C 0.27203 0.58944 0.09374 0.0
C5 C 0.33083 0.6094 0.0975 0.0
C6 C 0.34405 0.5816 0.10895 0.0
C7 C 0.29763 0.53255 0.11482 0.0
C8 C 0.23881 0.51227 0.11061 0.0
C9 C 0.15436 0.58424 0.19891 0.0
C10 C 0.21325 0.67706 0.15622 0.0
C11 C 1.0249 0.61396 0.20145 0.0
C12 C 0.97082 0.57759 0.21575 0.0
C13 C 0.94874 0.52835 0.21557 0.0
C14 C 0.88842 0.48871 0.21736 0.0
C15 C 0.8501 0.49831 0.22016 0.0
C16 C 0.87453 0.54872 0.22543 0.0
C17 C 0.93451 0.58814 0.2228 0.0
C18 C 0.08961 0.60575 0.10406 0.0
C19 C 0.99305 0.47923 0.14476 0.0
O20 O 0.14434 0.50737 0.1291 0.0
O21 O 0.15544 0.55088 0.09262 0.0
O22 O 0.19152 0.5893 0.18116 0.0
O23 O 0.10588 0.56307 0.18175 0.0
O24 O 0.2036 0.63962 0.13733 0.0
O25 O 0.17198 0.66888 0.17288 0.0
O26 O 1.01554 0.60828 0.17029 0.0
O27 O 1.07187 0.62041 0.21135 0.0
O28 O 0.09479 0.63876 0.12425 0.0
O29 O 1.07412 0.56952 0.11767 0.0
O30 O 0.9976 0.5185 0.15401 0.0
O31 O 1.03963 0.48538 0.13705 0.0
H32 H 0.26338 0.6127 0.08636 0.0
H33 H 0.36621 0.64728 0.0928 0.0
H34 H 0.30712 0.51035 0.12331 0.0
H35 H 0.20388 0.47495 0.11626 0.0
H36 H 0.97639 0.51952 0.21082 0.0
H37 H 0.87053 0.45018 0.21304 0.0
H38 H 0.84573 0.55705 0.22727 0.0
H39 H 0.95077 0.62588 0.22308 0.0
La40 La 0.66907 0.07833 0.47662 0.0
La41 La 0.59084 0.09927 0.46275 0.0
C42 C 0.71812 0.04845 0.49991 0.0
C43 C 0.70335 0.99981 0.49898 0.0
C44 C 0.65524 0.95686 0.4776 0.0
C45 C 0.64087 0.91058 0.4773 0.0
C46 C 0.67462 0.90641 0.49828 0.0
C47 C 0.72283 0.94972 0.51971 0.0
C48 C 0.73697 0.99597 0.52005 0.0
C49 C 0.6466 0.07775 0.41558 0.0
C50 C 0.52645 0.98561 0.46213 0.0
C51 C 0.54337 0.13215 0.44304 0.0
C52 C 0.55371 0.1785 0.45373 0.0
C53 C 0.50558 0.17379 0.46191 0.0
C54 C 0.5151 0.21596 0.47645 0.0
C55 C 0.57297 0.2639 0.48288 0.0
C56 C 0.62088 0.26913 0.47333 0.0
C57 C 0.61144 0.22673 0.45907 0.0
C58 C 0.6098 0.09882 0.52398 0.0
C59 C 0.7338 0.19089 0.47477 0.0
O60 O 0.72857 0.06611 0.47306 0.0
O61 O 0.68391 0.05269 0.51469 0.0
O62 O 0.69704 0.09341 0.42892 0.0
O63 O 0.61073 0.06035 0.43553 0.0
O64 O 0.57925 1.00289 0.47491 0.0
O65 O 0.52153 1.01641 0.45081 0.0
O66 O 0.52221 0.10094 0.46351 0.0
O67 O 0.58538 0.1372 0.42986 0.0
O68 O 0.56139 0.08456 0.50904 0.0
O69 O 0.64827 0.11704 0.50511 0.0
O70 O 0.68118 0.17347 0.46156 0.0
O71 O 0.73822 0.16062 0.48725 0.0
H72 H 0.62879 0.95916 0.4612 0.0
H73 H 0.60287 0.87792 0.46082 0.0
H74 H 0.75017 0.94809 0.53592 0.0
H75 H 0.77427 0.02881 0.53675 0.0
H76 H 0.46075 0.13703 0.4581 0.0
H77 H 0.47725 0.21094 0.48321 0.0
H78 H 0.66597 0.30559 0.47813 0.0
H79 H 0.64957 0.23156 0.45323 0.0
La80 La 0.6867 0.62328 0.8459 0.0
La81 La 0.6011 0.51532 0.84641 0.0
C82 C 0.73917 0.70971 0.83143 0.0
C83 C 0.7234 0.74077 0.82786 0.0
C84 C 0.67667 0.73166 0.84238 0.0
C85 C 0.66261 0.76176 0.83938 0.0
C86 C 0.69555 0.80224 0.82215 0.0
C87 C 0.74207 0.81094 0.80736 0.0
C88 C 0.75576 0.78039 0.81017 0.0
C89 C 0.67949 0.59875 0.90259 0.0
C90 C 0.54303 0.56726 0.84901 0.0
C91 C 0.55179 0.42787 0.85713 0.0
C92 C 0.56716 0.39608 0.85082 0.0
C93 C 0.52412 0.3469 0.83352 0.0
C94 C 0.53944 0.31827 0.82397 0.0
C95 C 0.59833 0.33829 0.83142 0.0
C96 C 0.64102 0.38705 0.84956 0.0
C97 C 0.62558 0.41555 0.85927 0.0
C98 C 0.60901 0.54007 0.78955 0.0
C99 C 0.74648 0.57304 0.8463 0.0
O100 O 0.74316 0.70174 0.86036 0.0
O101 O 0.71047 0.66847 0.81036 0.0
O102 O 0.72874 0.63634 0.89345 0.0
O103 O 0.6361 0.57843 0.88106 0.0
O104 O 0.59816 0.60675 0.84308 0.0
O105 O 0.53462 0.5264 0.85463 0.0
O106 O 0.53584 0.43657 0.83172 0.0
O107 O 0.58799 0.46872 0.87875 0.0
O108 O 0.5596 0.50357 0.79901 0.0
O109 O 0.65231 0.55987 0.81106 0.0
O110 O 0.68981 0.53081 0.84805 0.0
O111 O 0.75525 0.61473 0.8434 0.0
H112 H 0.65129 0.70154 0.85632 0.0
H113 H 0.62571 0.75315 0.85056 0.0
H114 H 0.76871 0.84197 0.79416 0.0
H115 H 0.79211 0.78809 0.79883 0.0
H116 H 0.47892 0.33114 0.82656 0.0
H117 H 0.50557 0.28108 0.80975 0.0
H118 H 0.68654 0.40334 0.8561 0.0
H119 H 0.65981 0.4532 0.87281 0.0
H120 H 0.64913 0.11435 0.21534 0.0
C121 C 0.61148 0.07526 0.20526 0.0
C122 C 0.58601 0.03874 0.22549 0.0
C123 C 0.58591 0.06223 0.17311 0.0
H124 H 0.51495 0.96027 0.22917 0.0
C125 C 0.53509 0.98819 0.21341 0.0
C126 C 0.508 0.97357 0.18177 0.0
C127 C 0.53388 1.01056 0.16166 0.0
C128 C 0.60982 0.10299 0.15265 0.0
H129 H 0.51279 0.99858 0.13718 0.0
C130 C 0.67054 0.14995 0.15764 0.0
C131 C 0.68982 0.18843 0.13917 0.0
C132 C 0.57004 0.09597 0.12859 0.0
H133 H 0.52309 0.06244 0.12449 0.0
C134 C 0.5893 0.13271 0.10974 0.0
H135 H 0.70251 0.15705 0.17597 0.0
C136 C 0.64825 0.1782 0.11485 0.0
H137 H 0.66129 0.20565 0.09955 0.0
H138 H 0.55791 0.12613 0.09123 0.0
H139 H 0.62108 0.604 0.60161 0.0
C140 C 0.62808 0.58036 0.58938 0.0
C141 C 0.64837 0.56153 0.60718 0.0
C142 C 0.61361 0.56638 0.556 0.0
H143 H 0.66802 0.51281 0.60488 0.0
C144 C 0.65453 0.5289 0.59122 0.0
C145 C 0.64009 0.51452 0.55793 0.0
C146 C 0.62072 0.53412 0.54049 0.0
C147 C 0.58452 0.58028 0.53748 0.0
H148 H 0.60821 0.52219 0.51485 0.0
C149 C 0.60906 0.63074 0.54017 0.0
C150 C 0.58136 0.64295 0.52143 0.0
C151 C 0.5313 0.54215 0.51659 0.0
H152 H 0.51099 0.50298 0.51444 0.0
C153 C 0.50323 0.5539 0.49857 0.0
H154 H 0.6504 0.66044 0.55596 0.0
C155 C 0.528 0.60384 0.50087 0.0
H156 H 0.50497 0.6118 0.4867 0.0
H157 H 0.46207 0.52416 0.48273 0.0
H158 H 0.15249 0.56886 0.90967 0.0
C159 C 0.11978 0.56791 0.89677 0.0
C160 C 0.08348 0.57151 0.91452 0.0
C161 C 0.11596 0.56455 0.86339 0.0
H162 H 1.01396 0.57432 0.91442 0.0
C163 C 1.04093 0.57207 0.89958 0.0
C164 C 1.02925 0.56669 0.86639 0.0
C165 C 1.06782 0.56254 0.84824 0.0
C166 C 0.16415 0.56558 0.84622 0.0
H167 H 1.06028 0.55814 0.82258 0.0
C168 C 0.20817 0.56143 0.85965 0.0
C169 C 0.25345 0.56666 0.84144 0.0
C170 C 0.16823 0.57388 0.81452 0.0
H171 H 0.1396 0.5781 0.80252 0.0
C172 C 0.20964 0.57821 0.79722 0.0
H173 H 0.20784 0.55478 0.88392 0.0
C174 C 0.25054 0.57492 0.81008 0.0
H175 H 0.27999 0.57802 0.79442 0.0
H176 H 0.21022 0.58457 0.7728 0.0
H177 H 1.07613 0.55568 0.39679 0.0
C178 C 0.1161 0.59353 0.40738 0.0
C179 C 0.15677 0.62616 0.38727 0.0
C180 C 0.12614 0.60977 0.4406 0.0
H181 H 0.23801 0.70192 0.385 0.0
C182 C 0.20797 0.67599 0.40051 0.0
C183 C 0.21954 0.69402 0.43318 0.0
C184 C 0.17895 0.66069 0.45315 0.0
C185 C 1.08065 0.57469 0.46177 0.0
H186 H 0.18956 0.6749 0.47845 0.0
C187 C 1.03897 0.52061 0.45359 0.0
C188 C 0.99719 0.48942 0.47419 0.0
C189 C 1.0775 0.5957 0.49058 0.0
H190 H 0.10527 0.63608 0.49751 0.0
C191 C 1.03725 0.56513 0.51095 0.0
H192 H 1.03921 0.50241 0.43177 0.0
C193 C 0.99783 0.5127 0.50301 0.0
H194 H 0.96636 0.49014 0.51914 0.0
H195 H 1.036 0.58233 0.53296 0.0
H196 H 0.6294 0.04162 0.711 0.0
C197 C 0.63223 0.07023 0.72538 0.0
C198 C 0.6473 0.11158 0.71219 0.0
C199 C 0.61484 0.0629 0.75593 0.0
H200 H 0.65715 0.17789 0.72046 0.0
C201 C 0.64691 0.1466 0.73061 0.0
C202 C 0.62907 0.13951 0.76106 0.0
C203 C 0.61454 0.0982 0.77372 0.0
C204 C 0.58833 1.01497 0.76771 0.0
H205 H 0.60063 0.0923 0.79717 0.0
C206 C 0.61795 0.99645 0.76899 0.0
C207 C 0.59248 0.95214 0.78197 0.0
C208 C 0.53228 0.98768 0.77831 0.0
H209 H 0.5081 1.00058 0.77708 0.0
C210 C 0.50653 0.94339 0.79042 0.0
H211 H 0.6613 1.01728 0.76106 0.0
C212 C 0.53643 0.92582 0.79241 0.0
H213 H 0.51542 0.89127 0.80196 0.0
H214 H 0.46331 0.92268 0.79842 0.0
H215 H 0.63191 0.56347 0.08018 0.0
C216 C 0.63053 0.53498 0.08875 0.0
C217 C 0.61977 0.49697 0.06675 0.0
C218 C 0.6434 0.53852 0.12146 0.0
H219 H 0.61404 0.43299 0.06021 0.0
C220 C 0.62048 0.4612 0.07751 0.0
C221 C 0.63317 0.46406 0.11041 0.0
C222 C 0.64421 0.50294 0.13205 0.0
C223 C 0.65737 0.58013 0.14457 0.0
H224 H 0.65628 0.50732 0.15733 0.0
C225 C 0.62111 0.59182 0.14208 0.0
C226 C 0.63119 0.62915 0.16455 0.0
C227 C 0.70525 0.60717 0.16964 0.0
H228 H 0.73449 0.59933 0.17194 0.0
C229 C 0.71579 0.64473 0.19199 0.0
H230 H 0.58303 0.57008 0.12338 0.0
C231 C 0.67853 0.65542 0.18971 0.0
H232 H 0.68647 0.68393 0.2075 0.0
H233 H 0.75252 0.66522 0.21131 0.0
H234 H 0.39982 0.59532 0.16569 0.0
H235 H 0.42653 0.618 0.06825 0.0
H236 H 0.5252 0.64405 0.07871 0.0
H237 H 0.59636 0.64833 0.11366 0.0
H238 H 0.56817 0.62357 0.21074 0.0
H239 H 0.47813 0.61183 0.20282 0.0
C240 C 0.42784 0.60667 0.14697 0.0
C241 C 0.40624 0.60402 0.11617 0.0
C242 C 0.48395 0.62129 0.15317 0.0
C243 C 0.44265 0.61955 0.09205 0.0
C244 C 0.49875 0.63428 0.09803 0.0
C245 C 0.57117 0.64167 0.13324 0.0
C246 C 0.58804 0.63626 0.16259 0.0
C247 C 0.51888 0.63366 0.12821 0.0
C248 C 0.55584 0.62805 0.18801 0.0
C249 C 0.50411 0.62075 0.18335 0.0
H250 H 0.76071 0.25787 0.4345 0.0
H251 H 0.83061 0.24785 0.5209 0.0
H252 H 0.91947 0.33756 0.52708 0.0
H253 H 0.97607 0.42039 0.50953 0.0
H254 H 0.91072 0.43107 0.4218 0.0
H255 H 0.8227 0.34015 0.41418 0.0
C256 C 0.79547 0.27536 0.45464 0.0
C257 C 0.78834 0.24586 0.4774 0.0
C258 C 0.84782 0.32726 0.45766 0.0
C259 C 0.83449 0.26925 0.50305 0.0
C260 C 0.88553 0.32075 0.50661 0.0
C261 C 0.9431 0.40261 0.48841 0.0
C262 C 0.95035 0.43271 0.46618 0.0
C263 C 0.89262 0.35026 0.48423 0.0
C264 C 0.90693 0.40891 0.43904 0.0
C265 C 0.85614 0.35691 0.43489 0.0
H266 H 0.69529 0.84373 0.77097 0.0
H267 H 0.66538 0.83631 0.86947 0.0
H268 H 0.63498 0.88482 0.86611 0.0
H269 H 0.61138 0.92525 0.8347 0.0
H270 H 0.64195 0.93469 0.73661 0.0
H271 H 0.67962 0.89111 0.74062 0.0
C272 C 0.68301 0.85335 0.79185 0.0
C273 C 0.68162 0.83538 0.82027 0.0
C274 C 0.66595 0.88186 0.78988 0.0
C275 C 0.66532 0.84825 0.84701 0.0
C276 C 0.64836 0.87642 0.84523 0.0
C277 C 0.62672 0.91807 0.81426 0.0
C278 C 0.62335 0.93262 0.78531 0.0
C279 C 0.64751 0.89263 0.81668 0.0
C280 C 0.64428 0.92392 0.75917 0.0
C281 C 0.66534 0.89867 0.76141 0.0
H282 H 0.80835 0.44744 0.16114 0.0
H283 H 0.75149 0.46553 0.24805 0.0
H284 H 0.658 0.43327 0.21793 0.0
H285 H 0.61158 0.42763 0.16684 0.0
H286 H 0.68696 0.43307 0.08132 0.0
H287 H 0.74966 0.42331 0.10993 0.0
C288 C 0.7738 0.44124 0.17363 0.0
C289 C 0.78647 0.45878 0.20659 0.0
C290 C 0.72334 0.42742 0.15587 0.0
C291 C 0.74238 0.45214 0.22263 0.0
C292 C 0.68937 0.43432 0.20531 0.0
C293 C 0.64093 0.42565 0.15431 0.0
C294 C 0.64705 0.43425 0.12247 0.0
C295 C 0.68211 0.4262 0.17179 0.0
C296 C 0.68211 0.42805 0.106 0.0
C297 C 0.71898 0.4233 0.12256 0.0
H298 H 0.4108 0.93366 0.47391 0.0
H299 H 0.52601 0.91199 0.43795 0.0
H300 H 0.44308 0.82046 0.42748 0.0
H301 H 0.33635 0.74602 0.42647 0.0
H302 H 0.22147 0.76571 0.46561 0.0
H303 H 0.30502 0.85766 0.47734 0.0
C304 C 0.41756 0.90877 0.46381 0.0
C305 C 0.47466 0.92984 0.45652 0.0
C306 C 0.36957 0.85555 0.45861 0.0
C307 C 0.48283 0.89696 0.4439 0.0
C308 C 0.43526 0.84448 0.43783 0.0
C309 C 0.32987 0.77042 0.43804 0.0
C310 C 0.27259 0.74884 0.44522 0.0
C311 C 0.37833 0.82327 0.44493 0.0
C312 C 0.26508 0.78111 0.46018 0.0
C313 C 0.31282 0.83383 0.4666 0.0
H314 H 0.53587 0.23778 0.82958 0.0
H315 H 0.69935 0.37316 0.80585 0.0
H316 H 0.72494 0.32448 0.78333 0.0
H317 H 0.69873 0.24244 0.76827 0.0
H318 H 0.5335 0.10723 0.79097 0.0
H319 H 0.51108 0.15678 0.81593 0.0
C320 C 0.57702 0.25665 0.81938 0.0
C321 C 0.6154 0.30903 0.81931 0.0
C322 C 0.59127 0.22839 0.80625 0.0
C323 C 0.66914 0.33297 0.80652 0.0
C324 C 0.68366 0.30508 0.79342 0.0
C325 C 0.65788 0.22388 0.77872 0.0
C326 C 0.61816 0.17115 0.77786 0.0
C327 C 0.64476 0.25263 0.79285 0.0
C328 C 0.56556 0.14782 0.79176 0.0
C329 C 0.55235 0.17608 0.80583 0.0
H330 H 0.67545 0.86446 0.54881 0.0
H331 H 0.64055 0.83747 0.4459 0.0
H332 H 0.61145 0.75508 0.44415 0.0
H333 H 0.59317 0.68964 0.4716 0.0
H334 H 0.62762 0.71543 0.57433 0.0
H335 H 0.66169 0.80007 0.57632 0.0
C336 C 0.66223 0.84087 0.52597 0.0
C337 C 0.65964 0.85713 0.49754 0.0
C338 C 0.64581 0.79342 0.52508 0.0
C339 C 0.6418 0.82566 0.4682 0.0
C340 C 0.62554 0.77861 0.46713 0.0
C341 C 0.60803 0.71374 0.49446 0.0
C342 C 0.60727 0.69603 0.52279 0.0
C343 C 0.62674 0.7619 0.4954 0.0
C344 C 0.62799 0.7282 0.55216 0.0
C345 C 0.64705 0.77644 0.55331 0.0
H346 H 0.76789 0.50443 0.82299 0.0
H347 H 0.85943 0.65066 0.87944 0.0
H348 H 0.9491 0.66241 0.88922 0.0
H349 H 1.00596 0.63247 0.88397 0.0
H350 H 0.9209 0.49067 0.82381 0.0
H351 H 0.82952 0.4775 0.81373 0.0
C352 C 0.80714 0.53923 0.83746 0.0
C353 C 0.80311 0.57643 0.8505 0.0
C354 C 0.86237 0.54723 0.84239 0.0
C355 C 0.8576 0.62067 0.8687 0.0
C356 C 0.91034 0.62763 0.87445 0.0
C357 C 0.96835 0.59885 0.86788 0.0
C358 C 0.97458 0.56345 0.85433 0.0
C359 C 0.91418 0.59153 0.86159 0.0
C360 C 0.92176 0.52018 0.83432 0.0
C361 C 0.86785 0.51221 0.82876 0.0
H362 H 0.23775 0.7663 0.15593 0.0
H363 H 0.32281 0.70544 0.16303 0.0
H364 H 0.42131 0.7909 0.17045 0.0
H365 H 0.48401 0.88409 0.1772 0.0
H366 H 0.39938 0.94445 0.16506 0.0
H367 H 0.30076 0.85884 0.15695 0.0
C368 C 0.27792 0.77184 0.15904 0.0
C369 C 0.27279 0.72943 0.15937 0.0
C370 C 0.33474 0.82126 0.16219 0.0
C371 C 0.32536 0.73727 0.16281 0.0
C372 C 0.38179 0.78625 0.16707 0.0
C373 C 0.44394 0.87831 0.17218 0.0
C374 C 0.44919 0.92074 0.17155 0.0
C375 C 0.38718 0.82866 0.16702 0.0
C376 C 0.39674 0.91256 0.16524 0.0
C377 C 0.34024 0.86354 0.16088 0.0
H378 H 0.63803 0.35943 0.46913 0.0
H379 H 0.53126 0.26578 0.53788 0.0
H380 H 0.5458 0.33594 0.56813 0.0
H381 H 0.58573 0.42288 0.57416 0.0
H382 H 0.68887 0.51621 0.50458 0.0
H383 H 0.67933 0.44755 0.47563 0.0
C384 C 0.61835 0.35464 0.49085 0.0
C385 C 0.58334 0.30743 0.50116 0.0
C386 C 0.62629 0.39509 0.50797 0.0
C387 C 0.5577 0.30154 0.52922 0.0
C388 C 0.56623 0.3417 0.54662 0.0
C389 C 0.60689 0.4284 0.55293 0.0
C390 C 0.63843 0.4746 0.54165 0.0
C391 C 0.60005 0.38849 0.53611 0.0
C392 C 0.66446 0.48092 0.5137 0.0
C393 C 0.65895 0.4417 0.49717 0.0
H394 H 0.42306 0.50901 0.87198 0.0
H395 H 0.54227 0.63532 0.82328 0.0
H396 H 0.47141 0.64745 0.81875 0.0
H397 H 0.37346 0.62372 0.82657 0.0
H398 H 0.25185 0.49991 0.87615 0.0
H399 H 0.3234 0.48731 0.88233 0.0
C400 C 0.43436 0.53945 0.86026 0.0
C401 C 0.49169 0.57096 0.8479 0.0
C402 C 0.39144 0.54741 0.85787 0.0
C403 C 0.50137 0.60977 0.83335 0.0
C404 C 0.45965 0.61697 0.83062 0.0
C405 C 0.36146 0.59373 0.83909 0.0
C406 C 0.30386 0.56327 0.85086 0.0
C407 C 0.40414 0.5863 0.84258 0.0
C408 C 0.29376 0.52541 0.86693 0.0
C409 C 0.33562 0.5177 0.87021 0.0
H410 H 0.96561 0.38857 0.14928 0.0
H411 H 0.8848 0.45249 0.13717 0.0
H412 H 0.7861 0.37002 0.13641 0.0
H413 H 0.72193 0.28021 0.13926 0.0
H414 H 0.79886 0.21313 0.15075 0.0
H415 H 0.8993 0.29623 0.15293 0.0
C416 C 0.92636 0.38438 0.14635 0.0
C417 C 0.93314 0.4272 0.14319 0.0
C418 C 0.86887 0.33634 0.14642 0.0
C419 C 0.88148 0.42074 0.13981 0.0
C420 C 0.82479 0.37347 0.13945 0.0
C421 C 0.76051 0.28344 0.14213 0.0
C422 C 0.75217 0.23981 0.14448 0.0
C423 C 0.81788 0.33109 0.14282 0.0
C424 C 0.80338 0.24568 0.14903 0.0
C425 C 0.86097 0.2933 0.14996 0.0
H426 H 1.0715 0.53602 0.05792 0.0
H427 H 0.1142 0.67894 0.07238 0.0
H428 H 0.11725 0.6817 0.01528 0.0
H429 H 0.10582 0.64262 0.96083 0.0
H430 H 1.07033 0.50291 0.94677 0.0
H431 H 1.06826 0.50042 0.0041 0.0
C432 C 0.08268 0.56824 0.04868 0.0
C433 C 0.09304 0.60739 0.06947 0.0
C434 C 0.08586 0.57021 0.01585 0.0
C435 C 0.10605 0.6483 0.05693 0.0
C436 C 0.10789 0.64996 0.02426 0.0
C437 C 0.09812 0.6119 0.97045 0.0
C438 C 0.08811 0.57293 0.94966 0.0
C439 C 0.09763 0.61104 0.00346 0.0
C440 C 1.07852 0.53346 0.96236 0.0
C441 C 1.07697 0.53189 -0.00491 0.0
H442 H 0.71587 0.10731 0.36752 0.0
H443 H 0.53637 0.03169 0.38633 0.0
H444 H 0.5025 1.01406 0.32952 0.0
H445 H 0.52246 1.01743 0.27435 0.0
H446 H 0.70119 0.09414 0.25414 0.0
H447 H 0.73701 0.11456 0.31147 0.0
C448 C 0.66948 0.08718 0.35908 0.0
C449 C 0.62859 0.07039 0.38108 0.0
C450 C 0.65015 0.07731 0.32614 0.0
C451 C 0.56868 0.04474 0.36991 0.0
C452 C 0.54919 0.03459 0.33739 0.0
C453 C 0.56925 0.0385 0.28252 0.0
C454 C 0.60902 0.05367 0.26013 0.0
C455 C 0.58931 0.05018 0.3153 0.0
C456 C 0.66976 0.08197 0.271 0.0
C457 C 0.69014 0.09347 0.30374 0.0
H458 H 0.70236 0.57935 0.75568 0.0
H459 H 0.52339 0.52343 0.74974 0.0
H460 H 0.52268 0.53126 0.69339 0.0
H461 H 0.56879 0.5459 0.64462 0.0
H462 H 0.74416 0.59476 0.64876 0.0
H463 H 0.75081 0.59807 0.70677 0.0
C464 C 0.66372 0.56967 0.74205 0.0
C465 C 0.61292 0.5507 0.75666 0.0
C466 C 0.66286 0.57264 0.70926 0.0
C467 C 0.56282 0.5378 0.73883 0.0
C468 C 0.56237 0.54224 0.70663 0.0
C469 C 0.60896 0.55834 0.65836 0.0
C470 C 0.65605 0.57037 0.64258 0.0
C471 C 0.61153 0.55847 0.69142 0.0
C472 C 0.70738 0.58538 0.66051 0.0
C473 C 0.7111 0.58714 0.69362 0.0
H474 H 0.67793 0.09412 0.56602 0.0
H475 H 0.56879 0.13312 0.56082 0.0
H476 H 0.57463 0.14402 0.61856 0.0
H477 H 0.60146 0.13428 0.66972 0.0
H478 H 0.70798 0.09292 0.67689 0.0
H479 H 0.71147 0.09013 0.61925 0.0
C480 C 0.65637 0.10577 0.57764 0.0
C481 C 0.62271 0.11251 0.55914 0.0
C482 C 0.65852 0.11069 0.61116 0.0
C483 C 0.59463 0.12733 0.57451 0.0
C484 C 0.59779 0.13349 0.60756 0.0
C485 C 0.62689 0.12594 0.65899 0.0
C486 C 0.65476 0.11419 0.67778 0.0
C487 C 0.6283 0.12407 0.62603 0.0
C488 C 0.6858 0.10188 0.663 0.0
C489 C 0.68797 0.10043 0.63004 0.0
H490 H 0.58007 0.52667 0.92828 0.0
H491 H 0.7726 0.62948 0.94401 0.0
H492 H 0.77022 0.60185 -0.00537 0.0
H493 H 0.71412 0.55304 0.03618 0.0
H494 H 0.52235 0.45297 0.02268 0.0
H495 H 0.52316 0.47388 0.96915 0.0
C496 C 0.62133 0.54267 0.94278 0.0
C497 C 0.67644 0.58031 0.93265 0.0
C498 C 0.61964 0.52679 0.97207 0.0
C499 C 0.72967 0.60082 0.95151 0.0
C500 C 0.72838 0.58491 0.98038 0.0
C501 C 0.67258 0.53503 0.02107 0.0
C502 C 0.61826 0.50109 0.03274 0.0
C503 C 0.67376 0.54847 0.99106 0.0
C504 C 0.5645 0.47857 0.01364 0.0
C505 C 0.56511 0.49093 0.98329 0.0
H506 H 1.07148 0.55431 0.23837 0.0
H507 H 0.25883 0.63592 0.23836 0.0
H508 H 0.27535 0.65324 0.29676 0.0
H509 H 0.2369 0.64682 0.3476 0.0
H510 H 1.05026 0.56903 0.34749 0.0
H511 H 1.03286 0.54789 0.28934 0.0
C512 C 0.11595 0.57629 0.25117 0.0
C513 C 0.16401 0.5944 0.23414 0.0
C514 C 0.12511 0.58637 0.28469 0.0
C515 C 0.22122 0.62181 0.25099 0.0
C516 C 0.23066 0.63169 0.28435 0.0
C517 C 0.19242 0.62542 0.3349 0.0
C518 C 0.14504 0.6097 0.35204 0.0
C519 C 0.18298 0.61443 0.30142 0.0
C520 C 0.08746 0.58109 0.33509 0.0
C521 C 1.07754 0.56937 0.30176 0.0
loop_
_geom_bond_atom_site_label_1
_geom_bond_atom_site_label_2
_geom_bond_distance
_geom_bond_site_symmetry_2
_ccdc_geom_bond_type
La0 C2 2.928 . S
La0 O20 2.521 . S
La0 O21 2.628 . S
La0 O22 2.554 . S
La0 O23 2.757 . S
La0 O24 2.470 . S
La0 O29 2.482 . S
La0 O31 2.503 1_455 S
La1 C11 2.928 1_455 S
La1 O23 2.482 . S
La1 O25 2.503 . S
La1 O26 2.521 1_455 S
La1 O27 2.628 1_455 S
La1 O28 2.554 . S
La1 O29 2.757 . S
La1 O30 2.470 1_455 S
C2 La0 2.928 . S
C2 C3 1.503 . S
C2 O20 1.261 . S
C2 O21 1.243 . S
C3 C2 1.503 . S
C3 C4 1.394 . S
C3 C8 1.373 . S
C4 C3 1.394 . S
C4 C5 1.380 . S
C4 H32 0.930 . S
C5 C4 1.380 . S
C5 C6 1.376 . S
C5 H33 0.930 . S
C6 C5 1.376 . S
C6 C7 1.370 . S
C7 C6 1.370 . S
C7 C8 1.396 . S
C7 H34 0.929 . S
C8 C3 1.373 . S
C8 C7 1.396 . S
C8 H35 0.929 . S
C9 O22 1.240 . S
C9 O23 1.289 . S
C10 O24 1.258 . S
C10 O25 1.256 . S
C11 La1 2.928 1_655 S
C11 C12 1.503 . S
C11 O26 1.261 . S
C11 O27 1.243 . S
C12 C11 1.503 . S
C12 C13 1.394 . S
C12 C17 1.373 . S
C13 C12 1.394 . S
C13 C14 1.380 . S
C13 H36 0.930 . S
C14 C13 1.380 . S
C14 C15 1.376 . S
C14 H37 0.930 . S
C15 C14 1.376 . S
C15 C16 1.370 . S
C16 C15 1.370 . S
C16 C17 1.396 . S
C16 H38 0.929 . S
C17 C12 1.373 . S
C17 C16 1.396 . S
C17 H39 0.929 . S
C18 O28 1.240 . S
C18 O29 1.289 . S
C19 O30 1.258 . S
C19 O31 1.256 . S
O20 La0 2.521 . S
O20 C2 1.261 . S
O21 La0 2.628 . S
O21 C2 1.243 . S
O22 La0 2.554 . S
O22 C9 1.240 . S
O23 La0 2.757 . S
O23 La1 2.482 . S
O23 C9 1.289 . S
O24 La0 2.470 . S
O24 C10 1.258 . S
O25 La1 2.503 . S
O25 C10 1.256 . S
O26 La1 2.521 1_655 S
O26 C11 1.261 . S
O27 La1 2.628 1_655 S
O27 C11 1.243 . S
O28 La1 2.554 . S
O28 C18 1.240 . S
O29 La0 2.482 . S
O29 La1 2.757 . S
O29 C18 1.289 . S
O30 La1 2.470 1_655 S
O30 C19 1.258 . S
O31 La0 2.503 1_655 S
O31 C19 1.256 . S
H32 C4 0.930 . S
H33 C5 0.930 . S
H34 C7 0.929 . S
H35 C8 0.929 . S
H36 C13 0.930 . S
H37 C14 0.930 . S
H38 C16 0.929 . S
H39 C17 0.929 . S
La40 C42 2.928 1_545 S
La40 O60 2.521 1_545 S
La40 O61 2.628 1_545 S
La40 O62 2.554 . S
La40 O63 2.757 . S
La40 O64 2.470 1_545 S
La40 O69 2.482 . S
La40 O71 2.503 . S
La41 C51 2.928 . S
La41 O63 2.482 . S
La41 O65 2.503 1_545 S
La41 O66 2.521 . S
La41 O67 2.628 . S
La41 O68 2.554 . S
La41 O69 2.757 . S
La41 O70 2.470 . S
C42 La40 2.928 1_565 S
C42 C43 1.503 . S
C42 O60 1.261 . S
C42 O61 1.243 . S
C43 C42 1.503 . S
C43 C44 1.394 . S
C43 C48 1.373 . S
C44 C43 1.394 . S
C44 C45 1.380 . S
C44 H72 0.930 . S
C45 C44 1.380 . S
C45 C46 1.376 . S
C45 H73 0.930 . S
C46 C45 1.376 . S
C46 C47 1.370 . S
C47 C46 1.370 . S
C47 C48 1.396 . S
C47 H74 0.929 . S
C48 C43 1.373 . S
C48 C47 1.396 . S
C48 H75 0.929 . S
C49 O62 1.240 . S
C49 O63 1.289 . S
C50 O64 1.258 . S
C50 O65 1.256 . S
C51 La41 2.928 . S
C51 C52 1.503 . S
C51 O66 1.261 . S
C51 O67 1.243 . S
C52 C51 1.503 . S
C52 C53 1.394 . S
C52 C57 1.373 . S
C53 C52 1.394 . S
C53 C54 1.380 . S
C53 H76 0.930 . S
C54 C53 1.380 . S
C54 C55 1.376 . S
C54 H77 0.930 . S
C55 C54 1.376 . S
C55 C56 1.370 . S
C56 C55 1.370 . S
C56 C57 1.396 . S
C56 H78 0.929 . S
C57 C52 1.373 . S
C57 C56 1.396 . S
C57 H79 0.929 . S
C58 O68 1.240 . S
C58 O69 1.289 . S
C59 O70 1.258 . S
C59 O71 1.256 . S
O60 La40 2.521 1_565 S
O60 C42 1.261 . S
O61 La40 2.628 1_565 S
O61 C42 1.243 . S
O62 La40 2.554 . S
O62 C49 1.240 . S
O63 La40 2.757 . S
O63 La41 2.482 . S
O63 C49 1.289 . S
O64 La40 2.470 1_565 S
O64 C50 1.258 . S
O65 La41 2.503 1_565 S
O65 C50 1.256 . S
O66 La41 2.521 . S
O66 C51 1.261 . S
O67 La41 2.628 . S
O67 C51 1.243 . S
O68 La41 2.554 . S
O68 C58 1.240 . S
O69 La40 2.482 . S
O69 La41 2.757 . S
O69 C58 1.289 . S
O70 La41 2.470 . S
O70 C59 1.258 . S
O71 La40 2.503 . S
O71 C59 1.256 . S
H72 C44 0.930 . S
H73 C45 0.930 . S
H74 C47 0.929 . S
H75 C48 0.929 . S
H76 C53 0.930 . S
H77 C54 0.930 . S
H78 C56 0.929 . S
H79 C57 0.929 . S
La80 C82 2.928 . S
La80 O100 2.521 . S
La80 O101 2.628 . S
La80 O102 2.554 . S
La80 O103 2.757 . S
La80 O104 2.470 . S
La80 O109 2.482 . S
La80 O111 2.503 . S
La81 C91 2.928 . S
La81 O103 2.482 . S
La81 O105 2.503 . S
La81 O106 2.521 . S
La81 O107 2.628 . S
La81 O108 2.554 . S
La81 O109 2.757 . S
La81 O110 2.470 . S
C82 La80 2.928 . S
C82 C83 1.503 . S
C82 O100 1.261 . S
C82 O101 1.243 . S
C83 C82 1.503 . S
C83 C84 1.394 . S
C83 C88 1.373 . S
C84 C83 1.394 . S
C84 C85 1.380 . S
C84 H112 0.930 . S
C85 C84 1.380 . S
C85 C86 1.376 . S
C85 H113 0.930 . S
C86 C85 1.376 . S
C86 C87 1.370 . S
C87 C86 1.370 . S
C87 C88 1.396 . S
C87 H114 0.929 . S
C88 C83 1.373 . S
C88 C87 1.396 . S
C88 H115 0.929 . S
C89 O102 1.240 . S
C89 O103 1.289 . S
C90 O104 1.258 . S
C90 O105 1.256 . S
C91 La81 2.928 . S
C91 C92 1.503 . S
C91 O106 1.261 . S
C91 O107 1.243 . S
C92 C91 1.503 . S
C92 C93 1.394 . S
C92 C97 1.373 . S
C93 C92 1.394 . S
C93 C94 1.380 . S
C93 H116 0.930 . S
C94 C93 1.380 . S
C94 C95 1.376 . S
C94 H117 0.930 . S
C95 C94 1.376 . S
C95 C96 1.370 . S
C96 C95 1.370 . S
C96 C97 1.396 . S
C96 H118 0.929 . S
C97 C92 1.373 . S
C97 C96 1.396 . S
C97 H119 0.929 . S
C98 O108 1.240 . S
C98 O109 1.289 . S
C99 O110 1.258 . S
C99 O111 1.256 . S
O100 La80 2.521 . S
O100 C82 1.261 . S
O101 La80 2.628 . S
O101 C82 1.243 . S
O102 La80 2.554 . S
O102 C89 1.240 . S
O103 La80 2.757 . S
O103 La81 2.482 . S
O103 C89 1.289 . S
O104 La80 2.470 . S
O104 C90 1.258 . S
O105 La81 2.503 . S
O105 C90 1.256 . S
O106 La81 2.521 . S
O106 C91 1.261 . S
O107 La81 2.628 . S
O107 C91 1.243 . S
O108 La81 2.554 . S
O108 C98 1.240 . S
O109 La80 2.482 . S
O109 La81 2.757 . S
O109 C98 1.289 . S
O110 La81 2.470 . S
O110 C99 1.258 . S
O111 La80 2.503 . S
O111 C99 1.256 . S
H112 C84 0.930 . S
H113 C85 0.930 . S
H114 C87 0.929 . S
H115 C88 0.929 . S
H116 C93 0.930 . S
H117 C94 0.930 . S
H118 C96 0.929 . S
H119 C97 0.929 . S
H120 C121 0.949 . S
C121 H120 0.949 . S
C121 C122 1.395 . S
C121 C123 1.391 . S
C122 C121 1.395 . S
C122 C125 1.390 1_545 S
C123 C121 1.391 . S
C123 C127 1.387 . S
C123 C128 1.491 . S
H124 C125 0.950 . S
C125 C122 1.390 1_565 S
C125 H124 0.950 . S
C125 C126 1.378 . S
C126 C125 1.378 . S
C126 C127 1.409 1_565 S
C127 C123 1.387 . S
C127 C126 1.409 1_545 S
C127 H129 0.951 . S
C128 C123 1.491 . S
C128 C130 1.382 . S
C128 C132 1.404 . S
H129 C127 0.951 . S
C130 C128 1.382 . S
C130 C131 1.390 . S
C130 H135 0.949 . S
C131 C130 1.390 . S
C131 C136 1.399 . S
C132 C128 1.404 . S
C132 H133 0.950 . S
C132 C134 1.375 . S
H133 C132 0.950 . S
C134 C132 1.375 . S
C134 C136 1.382 . S
C134 H138 0.950 . S
H135 C130 0.949 . S
C136 C131 1.399 . S
C136 C134 1.382 . S
C136 H137 0.952 . S
H137 C136 0.952 . S
H138 C134 0.950 . S
H139 C140 0.949 . S
C140 H139 0.949 . S
C140 C141 1.395 . S
C140 C142 1.391 . S
C141 C140 1.395 . S
C141 C144 1.390 . S
C142 C140 1.391 . S
C142 C146 1.387 . S
C142 C147 1.491 . S
H143 C144 0.950 . S
C144 C141 1.390 . S
C144 H143 0.950 . S
C144 C145 1.378 . S
C145 C144 1.378 . S
C145 C146 1.409 . S
C146 C142 1.387 . S
C146 C145 1.409 . S
C146 H148 0.951 . S
C147 C142 1.491 . S
C147 C149 1.382 . S
C147 C151 1.404 . S
H148 C146 0.951 . S
C149 C147 1.382 . S
C149 C150 1.390 . S
C149 H154 0.949 . S
C150 C149 1.390 . S
C150 C155 1.399 . S
C151 C147 1.404 . S
C151 H152 0.950 . S
C151 C153 1.375 . S
H152 C151 0.950 . S
C153 C151 1.375 . S
C153 C155 1.382 . S
C153 H157 0.950 . S
H154 C149 0.949 . S
C155 C150 1.399 . S
C155 C153 1.382 . S
C155 H156 0.952 . S
H156 C155 0.952 . S
H157 C153 0.950 . S
H158 C159 0.949 . S
C159 H158 0.949 . S
C159 C160 1.395 . S
C159 C161 1.391 . S
C160 C159 1.395 . S
C160 C163 1.390 . S
C161 C159 1.391 . S
C161 C165 1.387 . S
C161 C166 1.491 . S
H162 C163 0.950 1_655 S
C163 C160 1.390 . S
C163 H162 0.950 1_455 S
C163 C164 1.378 . S
C164 C163 1.378 . S
C164 C165 1.410 . S
C165 C161 1.387 . S
C165 C164 1.410 . S
C165 H167 0.951 . S
C166 C161 1.491 . S
C166 C168 1.382 . S
C166 C170 1.404 . S
H167 C165 0.951 . S
C168 C166 1.382 . S
C168 C169 1.390 . S
C168 H173 0.949 . S
C169 C168 1.390 . S
C169 C174 1.399 . S
C170 C166 1.404 . S
C170 H171 0.950 . S
C170 C172 1.375 . S
H171 C170 0.950 . S
C172 C170 1.375 . S
C172 C174 1.382 . S
C172 H176 0.950 . S
H173 C168 0.949 . S
C174 C169 1.399 . S
C174 C172 1.382 . S
C174 H175 0.952 . S
H175 C174 0.952 . S
H176 C172 0.950 . S
H177 C178 0.952 . S
C178 H177 0.952 . S
C178 C179 1.391 1_655 S
C178 C180 1.392 1_655 S
C179 C178 1.391 1_455 S
C179 C182 1.390 . S
C180 C178 1.392 1_455 S
C180 C184 1.387 . S
C180 C185 1.491 1_455 S
H181 C182 0.950 . S
C182 C179 1.390 . S
C182 H181 0.950 . S
C182 C183 1.378 . S
C183 C182 1.378 . S
C183 C184 1.409 . S
C184 C180 1.387 . S
C184 C183 1.409 . S
C184 H186 0.951 . S
C185 C180 1.491 1_655 S
C185 C187 1.382 . S
C185 C189 1.404 . S
H186 C184 0.951 . S
C187 C185 1.382 . S
C187 C188 1.390 . S
C187 H192 0.949 . S
C188 C187 1.390 . S
C188 C193 1.399 . S
C189 C185 1.404 . S
C189 H190 0.950 . S
C189 C191 1.375 . S
H190 C189 0.950 . S
C191 C189 1.375 . S
C191 C193 1.382 . S
C191 H195 0.950 . S
H192 C187 0.949 . S
C193 C188 1.399 . S
C193 C191 1.382 . S
C193 H194 0.952 . S
H194 C193 0.952 . S
H195 C191 0.950 . S
H196 C197 0.949 . S
C197 H196 0.949 . S
C197 C198 1.395 . S
C197 C199 1.391 . S
C198 C197 1.395 . S
C198 C201 1.390 . S
C199 C197 1.391 . S
C199 C203 1.387 . S
C199 C204 1.491 . S
H200 C201 0.950 . S
C201 C198 1.390 . S
C201 H200 0.950 . S
C201 C202 1.378 . S
C202 C201 1.378 . S
C202 C203 1.409 . S
C203 C199 1.387 . S
C203 C202 1.409 . S
C203 H205 0.951 . S
C204 C199 1.491 . S
C204 C206 1.382 1_545 S
C204 C208 1.404 1_545 S
H205 C203 0.951 . S
C206 C204 1.382 1_565 S
C206 C207 1.390 . S
C206 H211 0.949 . S
C207 C206 1.390 . S
C207 C212 1.399 . S
C208 C204 1.404 1_565 S
C208 H209 0.950 1_565 S
C208 C210 1.375 . S
H209 C208 0.950 1_545 S
C210 C208 1.375 . S
C210 C212 1.382 . S
C210 H214 0.950 . S
H211 C206 0.949 . S
C212 C207 1.399 . S
C212 C210 1.382 . S
C212 H213 0.952 . S
H213 C212 0.952 . S
H214 C210 0.950 . S
H215 C216 0.949 . S
C216 H215 0.949 . S
C216 C217 1.395 . S
C216 C218 1.391 . S
C217 C216 1.395 . S
C217 C220 1.390 . S
C218 C216 1.391 . S
C218 C222 1.387 . S
C218 C223 1.491 . S
H219 C220 0.950 . S
C220 C217 1.390 . S
C220 H219 0.950 . S
C220 C221 1.378 . S
C221 C220 1.378 . S
C221 C222 1.409 . S
C222 C218 1.387 . S
C222 C221 1.409 . S
C222 H224 0.951 . S
C223 C218 1.491 . S
C223 C225 1.382 . S
C223 C227 1.404 . S
H224 C222 0.951 . S
C225 C223 1.382 . S
C225 C226 1.390 . S
C225 H230 0.949 . S
C226 C225 1.390 . S
C226 C231 1.399 . S
C227 C223 1.404 . S
C227 H228 0.950 . S
C227 C229 1.375 . S
H228 C227 0.950 . S
C229 C227 1.375 . S
C229 C231 1.382 . S
C229 H233 0.950 . S
H230 C225 0.949 . S
C231 C226 1.399 . S
C231 C229 1.382 . S
C231 H232 0.952 . S
H232 C231 0.952 . S
H233 C229 0.950 . S
H234 C240 0.930 . S
H235 C243 0.930 . S
H236 C244 0.930 . S
H237 C245 0.930 . S
H238 C248 0.930 . S
H239 C249 0.930 . S
C240 H234 0.930 . S
C240 C241 1.355 . S
C240 C242 1.415 . S
C241 C240 1.355 . S
C241 C243 1.419 . S
C242 C240 1.415 . S
C242 C247 1.425 . S
C242 C249 1.409 . S
C243 H235 0.930 . S
C243 C241 1.419 . S
C243 C244 1.362 . S
C244 H236 0.930 . S
C244 C243 1.362 . S
C244 C247 1.409 . S
C245 H237 0.930 . S
C245 C246 1.355 . S
C245 C247 1.415 . S
C246 C245 1.355 . S
C246 C248 1.419 . S
C247 C242 1.425 . S
C247 C244 1.409 . S
C247 C245 1.415 . S
C248 H238 0.930 . S
C248 C246 1.419 . S
C248 C249 1.362 . S
C249 H239 0.930 . S
C249 C242 1.409 . S
C249 C248 1.362 . S
H250 C256 0.930 . S
H251 C259 0.930 . S
H252 C260 0.930 . S
H253 C261 0.930 . S
H254 C264 0.930 . S
H255 C265 0.930 . S
C256 H250 0.930 . S
C256 C257 1.355 . S
C256 C258 1.415 . S
C257 C256 1.355 . S
C257 C259 1.419 . S
C258 C256 1.415 . S
C258 C263 1.425 . S
C258 C265 1.409 . S
C259 H251 0.930 . S
C259 C257 1.419 . S
C259 C260 1.362 . S
C260 H252 0.930 . S
C260 C259 1.362 . S
C260 C263 1.409 . S
C261 H253 0.930 . S
C261 C262 1.355 . S
C261 C263 1.415 . S
C262 C261 1.355 . S
C262 C264 1.419 . S
C263 C258 1.425 . S
C263 C260 1.409 . S
C263 C261 1.415 . S
C264 H254 0.930 . S
C264 C262 1.419 . S
C264 C265 1.362 . S
C265 H255 0.930 . S
C265 C258 1.409 . S
C265 C264 1.362 . S
H266 C272 0.930 . S
H267 C275 0.930 . S
H268 C276 0.930 . S
H269 C277 0.930 . S
H270 C280 0.930 . S
H271 C281 0.930 . S
C272 H266 0.930 . S
C272 C273 1.355 . S
C272 C274 1.415 . S
C273 C272 1.355 . S
C273 C275 1.419 . S
C274 C272 1.415 . S
C274 C279 1.425 . S
C274 C281 1.409 . S
C275 H267 0.930 . S
C275 C273 1.419 . S
C275 C276 1.362 . S
C276 H268 0.930 . S
C276 C275 1.362 . S
C276 C279 1.409 . S
C277 H269 0.930 . S
C277 C278 1.355 . S
C277 C279 1.415 . S
C278 C277 1.355 . S
C278 C280 1.419 . S
C279 C274 1.425 . S
C279 C276 1.409 . S
C279 C277 1.415 . S
C280 H270 0.930 . S
C280 C278 1.419 . S
C280 C281 1.362 . S
C281 H271 0.930 . S
C281 C274 1.409 . S
C281 C280 1.362 . S
H282 C288 0.930 . S
H283 C291 0.930 . S
H284 C292 0.930 . S
H285 C293 0.930 . S
H286 C296 0.930 . S
H287 C297 0.930 . S
C288 H282 0.930 . S
C288 C289 1.355 . S
C288 C290 1.415 . S
C289 C288 1.355 . S
C289 C291 1.419 . S
C290 C288 1.415 . S
C290 C295 1.425 . S
C290 C297 1.409 . S
C291 H283 0.930 . S
C291 C289 1.419 . S
C291 C292 1.362 . S
C292 H284 0.930 . S
C292 C291 1.362 . S
C292 C295 1.409 . S
C293 H285 0.930 . S
C293 C294 1.355 . S
C293 C295 1.415 . S
C294 C293 1.355 . S
C294 C296 1.419 . S
C295 C290 1.425 . S
C295 C292 1.409 . S
C295 C293 1.415 . S
C296 H286 0.930 . S
C296 C294 1.419 . S
C296 C297 1.362 . S
C297 H287 0.930 . S
C297 C290 1.409 . S
C297 C296 1.362 . S
H298 C304 0.930 . S
H299 C307 0.930 . S
H300 C308 0.930 . S
H301 C309 0.930 . S
H302 C312 0.930 . S
H303 C313 0.930 . S
C304 H298 0.930 . S
C304 C305 1.355 . S
C304 C306 1.415 . S
C305 C304 1.355 . S
C305 C307 1.419 . S
C306 C304 1.415 . S
C306 C311 1.425 . S
C306 C313 1.409 . S
C307 H299 0.930 . S
C307 C305 1.419 . S
C307 C308 1.362 . S
C308 H300 0.930 . S
C308 C307 1.362 . S
C308 C311 1.409 . S
C309 H301 0.930 . S
C309 C310 1.355 . S
C309 C311 1.415 . S
C310 C309 1.355 . S
C310 C312 1.419 . S
C311 C306 1.425 . S
C311 C308 1.409 . S
C311 C309 1.415 . S
C312 H302 0.930 . S
C312 C310 1.419 . S
C312 C313 1.362 . S
C313 H303 0.930 . S
C313 C306 1.409 . S
C313 C312 1.362 . S
H314 C320 0.930 . S
H315 C323 0.930 . S
H316 C324 0.930 . S
H317 C325 0.930 . S
H318 C328 0.930 . S
H319 C329 0.930 . S
C320 H314 0.930 . S
C320 C321 1.355 . S
C320 C322 1.415 . S
C321 C320 1.355 . S
C321 C323 1.419 . S
C322 C320 1.415 . S
C322 C327 1.425 . S
C322 C329 1.409 . S
C323 H315 0.930 . S
C323 C321 1.419 . S
C323 C324 1.362 . S
C324 H316 0.930 . S
C324 C323 1.362 . S
C324 C327 1.409 . S
C325 H317 0.930 . S
C325 C326 1.355 . S
C325 C327 1.415 . S
C326 C325 1.355 . S
C326 C328 1.419 . S
C327 C322 1.425 . S
C327 C324 1.409 . S
C327 C325 1.415 . S
C328 H318 0.930 . S
C328 C326 1.419 . S
C328 C329 1.362 . S
C329 H319 0.930 . S
C329 C322 1.409 . S
C329 C328 1.362 . S
H330 C336 0.930 . S
H331 C339 0.930 . S
H332 C340 0.930 . S
H333 C341 0.930 . S
H334 C344 0.930 . S
H335 C345 0.930 . S
C336 H330 0.930 . S
C336 C337 1.355 . S
C336 C338 1.415 . S
C337 C336 1.355 . S
C337 C339 1.419 . S
C338 C336 1.415 . S
C338 C343 1.425 . S
C338 C345 1.409 . S
C339 H331 0.930 . S
C339 C337 1.419 . S
C339 C340 1.362 . S
C340 H332 0.930 . S
C340 C339 1.362 . S
C340 C343 1.409 . S
C341 H333 0.930 . S
C341 C342 1.355 . S
C341 C343 1.415 . S
C342 C341 1.355 . S
C342 C344 1.419 . S
C343 C338 1.425 . S
C343 C340 1.409 . S
C343 C341 1.415 . S
C344 H334 0.930 . S
C344 C342 1.419 . S
C344 C345 1.362 . S
C345 H335 0.930 . S
C345 C338 1.409 . S
C345 C344 1.362 . S
H346 C352 0.930 . S
H347 C355 0.930 . S
H348 C356 0.930 . S
H349 C357 0.930 . S
H350 C360 0.930 . S
H351 C361 0.930 . S
C352 H346 0.930 . S
C352 C353 1.355 . S
C352 C354 1.415 . S
C353 C352 1.355 . S
C353 C355 1.419 . S
C354 C352 1.415 . S
C354 C359 1.425 . S
C354 C361 1.409 . S
C355 H347 0.930 . S
C355 C353 1.419 . S
C355 C356 1.362 . S
C356 H348 0.930 . S
C356 C355 1.362 . S
C356 C359 1.409 . S
C357 H349 0.930 . S
C357 C358 1.355 . S
C357 C359 1.415 . S
C358 C357 1.355 . S
C358 C360 1.419 . S
C359 C354 1.425 . S
C359 C356 1.409 . S
C359 C357 1.415 . S
C360 H350 0.930 . S
C360 C358 1.419 . S
C360 C361 1.362 . S
C361 H351 0.930 . S
C361 C354 1.409 . S
C361 C360 1.362 . S
H362 C368 0.930 . S
H363 C371 0.930 . S
H364 C372 0.930 . S
H365 C373 0.930 . S
H366 C376 0.930 . S
H367 C377 0.930 . S
C368 H362 0.930 . S
C368 C369 1.355 . S
C368 C370 1.415 . S
C369 C368 1.355 . S
C369 C371 1.419 . S
C370 C368 1.415 . S
C370 C375 1.425 . S
C370 C377 1.409 . S
C371 H363 0.930 . S
C371 C369 1.419 . S
C371 C372 1.362 . S
C372 H364 0.930 . S
C372 C371 1.362 . S
C372 C375 1.409 . S
C373 H365 0.930 . S
C373 C374 1.355 . S
C373 C375 1.415 . S
C374 C373 1.355 . S
C374 C376 1.419 . S
C375 C370 1.425 . S
C375 C372 1.409 . S
C375 C373 1.415 . S
C376 H366 0.930 . S
C376 C374 1.419 . S
C376 C377 1.362 . S
C377 H367 0.930 . S
C377 C370 1.409 . S
C377 C376 1.362 . S
H378 C384 0.930 . S
H379 C387 0.930 . S
H380 C388 0.930 . S
H381 C389 0.930 . S
H382 C392 0.930 . S
H383 C393 0.930 . S
C384 H378 0.930 . S
C384 C385 1.355 . S
C384 C386 1.415 . S
C385 C384 1.355 . S
C385 C387 1.419 . S
C386 C384 1.415 . S
C386 C391 1.425 . S
C386 C393 1.409 . S
C387 H379 0.930 . S
C387 C385 1.419 . S
C387 C388 1.362 . S
C388 H380 0.930 . S
C388 C387 1.362 . S
C388 C391 1.409 . S
C389 H381 0.930 . S
C389 C390 1.355 . S
C389 C391 1.415 . S
C390 C389 1.355 . S
C390 C392 1.419 . S
C391 C386 1.425 . S
C391 C388 1.409 . S
C391 C389 1.415 . S
C392 H382 0.930 . S
C392 C390 1.419 . S
C392 C393 1.362 . S
C393 H383 0.930 . S
C393 C386 1.409 . S
C393 C392 1.362 . S
H394 C400 0.930 . S
H395 C403 0.930 . S
H396 C404 0.930 . S
H397 C405 0.930 . S
H398 C408 0.930 . S
H399 C409 0.930 . S
C400 H394 0.930 . S
C400 C401 1.355 . S
C400 C402 1.415 . S
C401 C400 1.355 . S
C401 C403 1.419 . S
C402 C400 1.415 . S
C402 C407 1.425 . S
C402 C409 1.409 . S
C403 H395 0.930 . S
C403 C401 1.419 . S
C403 C404 1.362 . S
C404 H396 0.930 . S
C404 C403 1.362 . S
C404 C407 1.409 . S
C405 H397 0.930 . S
C405 C406 1.355 . S
C405 C407 1.415 . S
C406 C405 1.355 . S
C406 C408 1.419 . S
C407 C402 1.425 . S
C407 C404 1.409 . S
C407 C405 1.415 . S
C408 H398 0.930 . S
C408 C406 1.419 . S
C408 C409 1.362 . S
C409 H399 0.930 . S
C409 C402 1.409 . S
C409 C408 1.362 . S
H410 C416 0.930 . S
H411 C419 0.930 . S
H412 C420 0.930 . S
H413 C421 0.930 . S
H414 C424 0.930 . S
H415 C425 0.930 . S
C416 H410 0.930 . S
C416 C417 1.355 . S
C416 C418 1.415 . S
C417 C416 1.355 . S
C417 C419 1.419 . S
C418 C416 1.415 . S
C418 C423 1.425 . S
C418 C425 1.409 . S
C419 H411 0.930 . S
C419 C417 1.419 . S
C419 C420 1.362 . S
C420 H412 0.930 . S
C420 C419 1.362 . S
C420 C423 1.409 . S
C421 H413 0.930 . S
C421 C422 1.355 . S
C421 C423 1.415 . S
C422 C421 1.355 . S
C422 C424 1.419 . S
C423 C418 1.425 . S
C423 C420 1.409 . S
C423 C421 1.415 . S
C424 H414 0.930 . S
C424 C422 1.419 . S
C424 C425 1.362 . S
C425 H415 0.930 . S
C425 C418 1.409 . S
C425 C424 1.362 . S
H426 C432 0.930 1_655 S
H427 C435 0.930 . S
H428 C436 0.930 . S
H429 C437 0.930 . S
H430 C440 0.930 . S
H431 C441 0.930 . S
C432 H426 0.930 1_455 S
C432 C433 1.355 . S
C432 C434 1.415 . S
C433 C432 1.355 . S
C433 C435 1.419 . S
C434 C432 1.415 . S
C434 C439 1.425 . S
C434 C441 1.409 1_454 S
C435 H427 0.930 . S
C435 C433 1.419 . S
C435 C436 1.362 . S
C436 H428 0.930 . S
C436 C435 1.362 . S
C436 C439 1.409 . S
C437 H429 0.930 . S
C437 C438 1.355 . S
C437 C439 1.415 1_556 S
C438 C437 1.355 . S
C438 C440 1.419 1_455 S
C439 C434 1.425 . S
C439 C436 1.409 . S
C439 C437 1.415 1_554 S
C440 H430 0.930 . S
C440 C438 1.419 1_655 S
C440 C441 1.362 . S
C441 H431 0.930 . S
C441 C434 1.409 1_656 S
C441 C440 1.362 . S
H442 C448 0.930 1_565 S
H443 C451 0.930 . S
H444 C452 0.930 . S
H445 C453 0.930 . S
H446 C456 0.930 . S
H447 C457 0.930 . S
C448 H442 0.930 1_545 S
C448 C449 1.355 . S
C448 C450 1.415 . S
C449 C448 1.355 . S
C449 C451 1.419 . S
C450 C448 1.415 . S
C450 C455 1.425 . S
C450 C457 1.409 1_545 S
C451 H443 0.930 . S
C451 C449 1.419 . S
C451 C452 1.362 . S
C452 H444 0.930 . S
C452 C451 1.362 . S
C452 C455 1.409 . S
C453 H445 0.930 . S
C453 C454 1.355 . S
C453 C455 1.415 . S
C454 C453 1.355 . S
C454 C456 1.419 1_545 S
C455 C450 1.425 . S
C455 C452 1.409 . S
C455 C453 1.415 . S
C456 H446 0.930 . S
C456 C454 1.419 1_565 S
C456 C457 1.362 . S
C457 H447 0.930 . S
C457 C450 1.409 1_565 S
C457 C456 1.362 . S
H458 C464 0.930 . S
H459 C467 0.930 . S
H460 C468 0.930 . S
H461 C469 0.930 . S
H462 C472 0.930 . S
H463 C473 0.930 . S
C464 H458 0.930 . S
C464 C465 1.355 . S
C464 C466 1.415 . S
C465 C464 1.355 . S
C465 C467 1.419 . S
C466 C464 1.415 . S
C466 C471 1.425 . S
C466 C473 1.409 . S
C467 H459 0.930 . S
C467 C465 1.419 . S
C467 C468 1.362 . S
C468 H460 0.930 . S
C468 C467 1.362 . S
C468 C471 1.409 . S
C469 H461 0.930 . S
C469 C470 1.355 . S
C469 C471 1.415 . S
C470 C469 1.355 . S
C470 C472 1.419 . S
C471 C466 1.425 . S
C471 C468 1.409 . S
C471 C469 1.415 . S
C472 H462 0.930 . S
C472 C470 1.419 . S
C472 C473 1.362 . S
C473 H463 0.930 . S
C473 C466 1.409 . S
C473 C472 1.362 . S
H474 C480 0.930 . S
H475 C483 0.930 . S
H476 C484 0.930 . S
H477 C485 0.930 . S
H478 C488 0.930 . S
H479 C489 0.930 . S
C480 H474 0.930 . S
C480 C481 1.355 . S
C480 C482 1.415 . S
C481 C480 1.355 . S
C481 C483 1.419 . S
C482 C480 1.415 . S
C482 C487 1.425 . S
C482 C489 1.409 . S
C483 H475 0.930 . S
C483 C481 1.419 . S
C483 C484 1.362 . S
C484 H476 0.930 . S
C484 C483 1.362 . S
C484 C487 1.409 . S
C485 H477 0.930 . S
C485 C486 1.355 . S
C485 C487 1.415 . S
C486 C485 1.355 . S
C486 C488 1.419 . S
C487 C482 1.425 . S
C487 C484 1.409 . S
C487 C485 1.415 . S
C488 H478 0.930 . S
C488 C486 1.419 . S
C488 C489 1.362 . S
C489 H479 0.930 . S
C489 C482 1.409 . S
C489 C488 1.362 . S
H490 C496 0.930 . S
H491 C499 0.930 . S
H492 C500 0.933 . S
H493 C501 0.930 . S
H494 C504 0.930 . S
H495 C505 0.930 . S
C496 H490 0.930 . S
C496 C497 1.355 . S
C496 C498 1.415 . S
C497 C496 1.355 . S
C497 C499 1.419 . S
C498 C496 1.415 . S
C498 C503 1.425 . S
C498 C505 1.409 . S
C499 H491 0.930 . S
C499 C497 1.419 . S
C499 C500 1.362 . S
C500 H492 0.933 . S
C500 C499 1.362 . S
C500 C503 1.409 . S
C501 H493 0.930 . S
C501 C502 1.355 . S
C501 C503 1.415 1_554 S
C502 C501 1.355 . S
C502 C504 1.419 . S
C503 C498 1.425 . S
C503 C500 1.409 . S
C503 C501 1.415 1_556 S
C504 H494 0.930 . S
C504 C502 1.419 . S
C504 C505 1.362 1_554 S
C505 H495 0.930 . S
C505 C498 1.409 . S
C505 C504 1.362 1_556 S
H506 C512 0.930 . S
H507 C515 0.930 . S
H508 C516 0.930 . S
H509 C517 0.930 . S
H510 C520 0.909 1_655 S
H511 C521 0.930 . S
C512 H506 0.930 . S
C512 C513 1.355 . S
C512 C514 1.415 . S
C513 C512 1.355 . S
C513 C515 1.419 . S
C514 C512 1.415 . S
C514 C519 1.425 . S
C514 C521 1.409 1_455 S
C515 H507 0.930 . S
C515 C513 1.419 . S
C515 C516 1.362 . S
C516 H508 0.930 . S
C516 C515 1.362 . S
C516 C519 1.409 . S
C517 H509 0.930 . S
C517 C518 1.355 . S
C517 C519 1.415 . S
C518 C517 1.355 . S
C518 C520 1.443 . S
C519 C514 1.425 . S
C519 C516 1.409 . S
C519 C517 1.415 . S
C520 H510 0.909 1_455 S
C520 C518 1.443 . S
C520 C521 1.360 1_455 S
C521 H511 0.930 . S
C521 C514 1.409 1_655 S
C521 C520 1.360 1_655 S
C241 C6 0.960 . S
C246 C226 0.943 . S
C257 C59 1.972 . S
C262 C188 1.921 . S
C273 C86 1.322 . S
C278 C207 1.241 . S
C289 C15 0.465 . S
C294 C221 0.172 . S
C310 C183 1.858 . S
C305 C50 1.910 . S
C326 C202 1.105 . S
C321 C95 1.144 . S
C337 C46 1.326 . S
C342 C150 1.218 . S
C353 C99 3.073 . S
C358 C164 3.043 1_655 S
C369 C10 1.923 . S
C374 C126 1.878 . S
C390 C145 1.136 . S
C385 C55 1.099 . S
C406 C169 3.088 . S
C401 C90 3.121 . S
C417 C19 2.007 . S
C422 C131 1.984 . S
C438 C160 1.710 . S
C433 C18 1.717 . S
C449 C49 1.443 . S
C454 C122 1.498 . S
C465 C98 1.523 . S
C470 C141 1.554 . S
C486 C198 1.564 . S
C481 C58 1.529 . S
C502 C217 1.351 . S
C497 C89 1.288 . S
C513 C9 1.387 . S
C518 C179 1.477 . S
