# Generated by pormake.
# Topology pyr, (3,6)-cn, num edge types: 1
# Building blocks:
#     Node 0, Type 0, BuildingBlock: MIDCAF_clean_linker_0, # of connection points: 3
#     Node 1, Type 0, BuildingBlock: MIDCAF_clean_linker_0, # of connection points: 3
#     Node 2, Type 0, BuildingBlock: MIDCAF_clean_linker_0, # of connection points: 3
#     Node 3, Type 0, BuildingBlock: MIDCAF_clean_linker_0, # of connection points: 3
#     Node 4, Type 0, BuildingBlock: MIDCAF_clean_linker_0, # of connection points: 3
#     Node 5, Type 0, BuildingBlock: MIDCAF_clean_linker_0, # of connection points: 3
#     Node 6, Type 0, BuildingBlock: MIDCAF_clean_linker_0, # of connection points: 3
#     Node 7, Type 0, BuildingBlock: MIDCAF_clean_linker_0, # of connection points: 3
#     Node 8, Type 1, BuildingBlock: BETFEN_clean_sbu_0, # of connection points: 6
#     Node 9, Type 1, BuildingBlock: BETFEN_clean_sbu_0, # of connection points: 6
#     Node 10, Type 1, BuildingBlock: BETFEN_clean_sbu_0, # of connection points: 6
#     Node 11, Type 1, BuildingBlock: BETFEN_clean_sbu_0, # of connection points: 6
#     Edge 12, Type (0, 1), BuildingBlock: MIFKUJ_clean_linker_0, # of connection points: 2
#     Edge 13, Type (0, 1), BuildingBlock: MIFKUJ_clean_linker_0, # of connection points: 2
#     Edge 14, Type (0, 1), BuildingBlock: MIFKUJ_clean_linker_0, # of connection points: 2
#     Edge 15, Type (0, 1), BuildingBlock: MIFKUJ_clean_linker_0, # of connection points: 2
#     Edge 16, Type (0, 1), BuildingBlock: MIFKUJ_clean_linker_0, # of connection points: 2
#     Edge 17, Type (0, 1), BuildingBlock: MIFKUJ_clean_linker_0, # of connection points: 2
#     Edge 18, Type (0, 1), BuildingBlock: MIFKUJ_clean_linker_0, # of connection points: 2
#     Edge 19, Type (0, 1), BuildingBlock: MIFKUJ_clean_linker_0, # of connection points: 2
#     Edge 20, Type (0, 1), BuildingBlock: MIFKUJ_clean_linker_0, # of connection points: 2
#     Edge 21, Type (0, 1), BuildingBlock: MIFKUJ_clean_linker_0, # of connection points: 2
#     Edge 22, Type (0, 1), BuildingBlock: MIFKUJ_clean_linker_0, # of connection points: 2
#     Edge 23, Type (0, 1), BuildingBlock: MIFKUJ_clean_linker_0, # of connection points: 2
#     Edge 24, Type (0, 1), BuildingBlock: MIFKUJ_clean_linker_0, # of connection points: 2
#     Edge 25, Type (0, 1), BuildingBlock: MIFKUJ_clean_linker_0, # of connection points: 2
#     Edge 26, Type (0, 1), BuildingBlock: MIFKUJ_clean_linker_0, # of connection points: 2
#     Edge 27, Type (0, 1), BuildingBlock: MIFKUJ_clean_linker_0, # of connection points: 2
#     Edge 28, Type (0, 1), BuildingBlock: MIFKUJ_clean_linker_0, # of connection points: 2
#     Edge 29, Type (0, 1), BuildingBlock: MIFKUJ_clean_linker_0, # of connection points: 2
#     Edge 30, Type (0, 1), BuildingBlock: MIFKUJ_clean_linker_0, # of connection points: 2
#     Edge 31, Type (0, 1), BuildingBlock: MIFKUJ_clean_linker_0, # of connection points: 2
#     Edge 32, Type (0, 1), BuildingBlock: MIFKUJ_clean_linker_0, # of connection points: 2
#     Edge 33, Type (0, 1), BuildingBlock: MIFKUJ_clean_linker_0, # of connection points: 2
#     Edge 34, Type (0, 1), BuildingBlock: MIFKUJ_clean_linker_0, # of connection points: 2
#     Edge 35, Type (0, 1), BuildingBlock: MIFKUJ_clean_linker_0, # of connection points: 2
# Relax obj value: 0.110
# Max RMSD: 0.216
# Mean RMSD: 0.104
data_MOF--net-pyr--node1-BETFEN_clean_sbu_0--node2-MIDCAF_clean_linker_0--edge1-MIFKUJ_clean_linker_0
_symmetry_space_group_name_H-M    P1
_symmetry_Int_Tables_number       1
_symmetry_cell_setting            triclinic
loop_
_symmetry_equiv_pos_as_xyz
'x, y, z'
_cell_length_a     55.865666
_cell_length_b     60.507697
_cell_length_c     58.262523
_cell_angle_alpha  90.844466
_cell_angle_beta   98.480603
_cell_angle_gamma 105.46876
loop_
_atom_site_label
_atom_site_type_symbol
_atom_site_fract_x
_atom_site_fract_y
_atom_site_fract_z
_atom_type_partial_charge
C0 C 0.27254 0.28162 0.32171 0.0
C1 C 0.27729 0.2621 0.33215 0.0
C2 C 0.29721 0.25417 0.32632 0.0
C3 C 0.31127 0.26481 0.30964 0.0
H4 H 0.35861 0.25225 0.26867 0.0
H5 H 0.37966 0.2283 0.25011 0.0
H6 H 0.39116 0.27574 0.19548 0.0
H7 H 0.36945 0.29948 0.21369 0.0
H8 H 0.33329 0.33158 0.20424 0.0
H9 H 0.3108 0.3513 0.17605 0.0
H10 H 0.25848 0.35307 0.22322 0.0
H11 H 0.28066 0.33325 0.25137 0.0
H12 H 0.28184 0.30681 0.29678 0.0
H13 H 0.25759 0.28838 0.32611 0.0
H14 H 0.30122 0.23902 0.33381 0.0
H15 H 0.32585 0.25766 0.30503 0.0
N16 N 0.33559 0.2834 0.27121 0.0
N17 N 0.33714 0.30587 0.23877 0.0
N18 N 0.31018 0.30861 0.26527 0.0
C19 C 0.34531 0.28996 0.25156 0.0
C20 C 0.31966 0.31537 0.24554 0.0
C21 C 0.31815 0.29274 0.2783 0.0
C22 C 0.36191 0.27763 0.24248 0.0
C23 C 0.36595 0.25784 0.2529 0.0
C24 C 0.3782 0.24412 0.24231 0.0
C25 C 0.38682 0.24994 0.22113 0.0
C26 C 0.38426 0.27052 0.21153 0.0
C27 C 0.37191 0.2842 0.22206 0.0
C28 C 0.30859 0.33047 0.22999 0.0
C29 C 0.31721 0.33645 0.20879 0.0
C30 C 0.30442 0.34785 0.19265 0.0
C31 C 0.2827 0.35341 0.19733 0.0
C32 C 0.27492 0.34861 0.219 0.0
C33 C 0.28775 0.33734 0.23518 0.0
C34 C 0.30566 0.28359 0.29828 0.0
C35 C 0.28656 0.29225 0.30497 0.0
C36 C 0.21685 0.85154 0.66831 0.0
C37 C 0.21198 0.85037 0.64392 0.0
C38 C 0.22474 0.83846 0.63139 0.0
C39 C 0.2422 0.82802 0.64306 0.0
H40 H 0.28844 0.78359 0.63412 0.0
H41 H 0.30927 0.75858 0.61605 0.0
H42 H 0.34101 0.74308 0.68408 0.0
H43 H 0.32075 0.76802 0.70202 0.0
H44 H 0.33342 0.80619 0.74082 0.0
H45 H 0.35684 0.82342 0.77801 0.0
H46 H 0.30936 0.86923 0.77868 0.0
H47 H 0.28614 0.85236 0.74091 0.0
H48 H 0.238 0.84289 0.69878 0.0
H49 H 0.20745 0.8608 0.6784 0.0
H50 H 0.22121 0.83722 0.61256 0.0
H51 H 0.25192 0.81914 0.63293 0.0
N52 N 0.27522 0.80376 0.66921 0.0
N53 N 0.30318 0.8027 0.70309 0.0
N54 N 0.27716 0.82725 0.70235 0.0
C55 C 0.29326 0.795 0.68085 0.0
C56 C 0.29539 0.8188 0.71398 0.0
C57 C 0.26692 0.81977 0.68 0.0
C58 C 0.30323 0.77808 0.6695 0.0
C59 C 0.29965 0.77463 0.64517 0.0
C60 C 0.31154 0.76031 0.63483 0.0
C61 C 0.32712 0.74922 0.64867 0.0
C62 C 0.32965 0.75186 0.67295 0.0
C63 C 0.31791 0.76611 0.68322 0.0
C64 C 0.30796 0.82799 0.7377 0.0
C65 C 0.32775 0.81981 0.74888 0.0
C66 C 0.34113 0.8296 0.77036 0.0
C67 C 0.33503 0.84774 0.7813 0.0
C68 C 0.31475 0.85549 0.77052 0.0
C69 C 0.30135 0.84572 0.74894 0.0
C70 C 0.24748 0.82963 0.66748 0.0
C71 C 0.23449 0.84139 0.67996 0.0
C72 C 0.61843 0.24732 0.8569 0.0
C73 C 0.59226 0.23856 0.85557 0.0
C74 C 0.57653 0.24976 0.84191 0.0
C75 C 0.58683 0.26967 0.83062 0.0
H76 H 0.57571 0.32737 0.7806 0.0
H77 H 0.55872 0.34543 0.74667 0.0
H78 H 0.63283 0.36799 0.72771 0.0
H79 H 0.64987 0.35072 0.76173 0.0
H80 H 0.68728 0.3767 0.81638 0.0
H81 H 0.72679 0.39997 0.83839 0.0
H82 H 0.72726 0.34577 0.88574 0.0
H83 H 0.68769 0.32273 0.86417 0.0
H84 H 0.64891 0.27355 0.84781 0.0
H85 H 0.63121 0.23887 0.86655 0.0
H86 H 0.55628 0.2436 0.84051 0.0
H87 H 0.57432 0.27828 0.82078 0.0
N88 N 0.6133 0.30895 0.80403 0.0
N89 N 0.6483 0.34135 0.80638 0.0
N90 N 0.64764 0.31375 0.83406 0.0
C91 C 0.6253 0.32905 0.79534 0.0
C92 C 0.65951 0.33394 0.82589 0.0
C93 C 0.6247 0.3011 0.82335 0.0
C94 C 0.61411 0.3377 0.77383 0.0
C95 C 0.58825 0.33598 0.76901 0.0
C96 C 0.57858 0.34639 0.74972 0.0
C97 C 0.59449 0.35805 0.73459 0.0
C98 C 0.62013 0.35899 0.73899 0.0
C99 C 0.62987 0.34918 0.75851 0.0
C100 C 0.68414 0.34783 0.83851 0.0
C101 C 0.69582 0.3697 0.83145 0.0
C102 C 0.71855 0.38303 0.84401 0.0
C103 C 0.73012 0.37481 0.86393 0.0
C104 C 0.71864 0.35282 0.87075 0.0
C105 C 0.69596 0.33952 0.85824 0.0
C106 C 0.61304 0.27889 0.83299 0.0
C107 C 0.62863 0.26722 0.84596 0.0
C108 C 0.78703 0.62925 0.37137 0.0
C109 C 0.76979 0.60849 0.36207 0.0
C110 C 0.7747 0.59836 0.34182 0.0
C111 C 0.7958 0.60899 0.33108 0.0
H112 H 0.83734 0.61218 0.26797 0.0
H113 H 0.85241 0.5971 0.23512 0.0
H114 H 0.92639 0.64256 0.25717 0.0
H115 H 0.91128 0.65799 0.28957 0.0
H116 H 0.90315 0.71362 0.31484 0.0
H117 H 0.92235 0.75199 0.3343 0.0
H118 H 0.88429 0.73054 0.39279 0.0
H119 H 0.86553 0.69274 0.37375 0.0
H120 H 0.82025 0.65573 0.36893 0.0
H121 H 0.78467 0.63749 0.38718 0.0
H122 H 0.76197 0.5824 0.33396 0.0
H123 H 0.79869 0.60083 0.31545 0.0
N124 N 0.84285 0.63393 0.31074 0.0
N125 N 0.87675 0.66755 0.31221 0.0
N126 N 0.84865 0.66377 0.33895 0.0
C127 C 0.86379 0.64623 0.30202 0.0
C128 C 0.86919 0.67647 0.33073 0.0
C129 C 0.83522 0.64267 0.32944 0.0
C130 C 0.87292 0.63649 0.28174 0.0
C131 C 0.85683 0.61904 0.26588 0.0
C132 C 0.8655 0.61041 0.24685 0.0
C133 C 0.89077 0.61845 0.24321 0.0
C134 C 0.9069 0.63568 0.25925 0.0
C135 C 0.89811 0.64467 0.27792 0.0
C136 C 0.88264 0.6998 0.34253 0.0
C137 C 0.89907 0.71705 0.33193 0.0
C138 C 0.90995 0.73917 0.34307 0.0
C139 C 0.90503 0.74461 0.3653 0.0
C140 C 0.88895 0.72718 0.37592 0.0
C141 C 0.87795 0.70534 0.36478 0.0
C142 C 0.8127 0.63005 0.34032 0.0
C143 C 0.80785 0.63975 0.36078 0.0
C144 C 0.64116 0.78911 0.77913 0.0
C145 C 0.63561 0.78613 0.80179 0.0
C146 C 0.64172 0.7681 0.81415 0.0
C147 C 0.65443 0.75415 0.80451 0.0
H148 H 0.70419 0.71581 0.82597 0.0
H149 H 0.72877 0.69566 0.85167 0.0
H150 H 0.75543 0.6719 0.79254 0.0
H151 H 0.7315 0.69241 0.76699 0.0
H152 H 0.74289 0.73182 0.72929 0.0
H153 H 0.76369 0.74916 0.69761 0.0
H154 H 0.70564 0.78368 0.67939 0.0
H155 H 0.68516 0.76689 0.71157 0.0
H156 H 0.65836 0.77844 0.75218 0.0
H157 H 0.63636 0.8027 0.7691 0.0
H158 H 0.6378 0.7655 0.83172 0.0
H159 H 0.65974 0.741 0.81486 0.0
N160 N 0.68725 0.73058 0.78663 0.0
N161 N 0.71143 0.7258 0.75823 0.0
N162 N 0.68529 0.75032 0.75236 0.0
C163 C 0.70401 0.72059 0.77913 0.0
C164 C 0.70213 0.7406 0.74469 0.0
C165 C 0.67763 0.74535 0.77322 0.0
C166 C 0.71613 0.706 0.79444 0.0
C167 C 0.71505 0.70606 0.81841 0.0
C168 C 0.72909 0.69445 0.83316 0.0
C169 C 0.74437 0.68247 0.8242 0.0
C170 C 0.74435 0.68145 0.80008 0.0
C171 C 0.7305 0.69313 0.7854 0.0
C172 C 0.71252 0.74822 0.72325 0.0
C173 C 0.73429 0.74283 0.71835 0.0
C174 C 0.7462 0.75269 0.70004 0.0
C175 C 0.7365 0.76803 0.68609 0.0
C176 C 0.7139 0.77232 0.69012 0.0
C177 C 0.70208 0.76259 0.70852 0.0
C178 C 0.6612 0.75792 0.78227 0.0
C179 C 0.65373 0.77513 0.76944 0.0
C180 C 0.71362 0.16034 0.2763 0.0
C181 C 0.69234 0.16717 0.26657 0.0
C182 C 0.68571 0.18457 0.27826 0.0
C183 C 0.69976 0.19465 0.29943 0.0
H184 H 0.69641 0.23525 0.35276 0.0
H185 H 0.68183 0.26387 0.37177 0.0
H186 H 0.74804 0.27831 0.42429 0.0
H187 H 0.76255 0.24898 0.40547 0.0
H188 H 0.78725 0.20251 0.41025 0.0
H189 H 0.82033 0.18608 0.42861 0.0
H190 H 0.82773 0.15994 0.36143 0.0
H191 H 0.79474 0.17622 0.34302 0.0
H192 H 0.74375 0.16449 0.3047 0.0
H193 H 0.71906 0.14682 0.26777 0.0
H194 H 0.66964 0.19044 0.27103 0.0
H195 H 0.69391 0.20788 0.30799 0.0
N196 N 0.72743 0.21356 0.34399 0.0
N197 N 0.7594 0.21517 0.37543 0.0
N198 N 0.7548 0.19048 0.34261 0.0
C199 C 0.73954 0.22249 0.36539 0.0
C200 C 0.76716 0.19917 0.36407 0.0
C201 C 0.73488 0.19759 0.33246 0.0
C202 C 0.73077 0.23986 0.37749 0.0
C203 C 0.70799 0.24448 0.36833 0.0
C204 C 0.69966 0.26105 0.37917 0.0
C205 C 0.71392 0.27361 0.39938 0.0
C206 C 0.73656 0.26884 0.40879 0.0
C207 C 0.7449 0.2521 0.39796 0.0
C208 C 0.78827 0.19058 0.37518 0.0
C209 C 0.79608 0.19345 0.39937 0.0
C210 C 0.81491 0.18396 0.40991 0.0
C211 C 0.82653 0.17174 0.39643 0.0
C212 C 0.81923 0.16944 0.37221 0.0
C213 C 0.80021 0.17865 0.36171 0.0
C214 C 0.72078 0.18754 0.30945 0.0
C215 C 0.72769 0.1704 0.29753 0.0
C216 C 0.31258 0.63139 0.17338 0.0
C217 C 0.29833 0.64216 0.15769 0.0
C218 C 0.30775 0.66572 0.15465 0.0
C219 C 0.33089 0.67826 0.16702 0.0
H220 H 0.37795 0.7448 0.1831 0.0
H221 H 0.39541 0.78123 0.16693 0.0
H222 H 0.47048 0.77499 0.18938 0.0
H223 H 0.45277 0.73868 0.20653 0.0
H224 H 0.43412 0.70419 0.2667 0.0
H225 H 0.44742 0.68495 0.30107 0.0
H226 H 0.4133 0.61908 0.2639 0.0
H227 H 0.39939 0.63817 0.23024 0.0
H228 H 0.34609 0.63512 0.19792 0.0
H229 H 0.30572 0.61329 0.17621 0.0
H230 H 0.29734 0.67444 0.14245 0.0
H231 H 0.33752 0.69638 0.1642 0.0
N232 N 0.38025 0.7028 0.19102 0.0
N233 N 0.41451 0.70559 0.22076 0.0
N234 N 0.38155 0.67153 0.21371 0.0
C235 C 0.40269 0.71522 0.20303 0.0
C236 C 0.40385 0.68364 0.22618 0.0
C237 C 0.36958 0.68095 0.19617 0.0
C238 C 0.41396 0.73871 0.19592 0.0
C239 C 0.39821 0.75129 0.18483 0.0
C240 C 0.40826 0.77216 0.17535 0.0
C241 C 0.4344 0.78095 0.17631 0.0
C242 C 0.45027 0.76886 0.18835 0.0
C243 C 0.44015 0.74802 0.19818 0.0
C244 C 0.41544 0.67271 0.24586 0.0
C245 C 0.42981 0.68562 0.26586 0.0
C246 C 0.43742 0.67456 0.28554 0.0
C247 C 0.43101 0.65038 0.2855 0.0
C248 C 0.41791 0.63766 0.26493 0.0
C249 C 0.41009 0.64864 0.2455 0.0
C250 C 0.34511 0.66757 0.18287 0.0
C251 C 0.33566 0.64397 0.18591 0.0
C252 C 0.14577 0.29116 0.65652 0.0
C253 C 0.12702 0.27479 0.66554 0.0
C254 C 0.11951 0.2813 0.6862 0.0
C255 C 0.13032 0.30348 0.69725 0.0
H256 H 0.12992 0.35209 0.75348 0.0
H257 H 0.11407 0.36757 0.78524 0.0
H258 H 0.16202 0.43495 0.77748 0.0
H259 H 0.17797 0.41942 0.74563 0.0
H260 H 0.2179 0.42496 0.6991 0.0
H261 H 0.25334 0.44326 0.67901 0.0
H262 H 0.26071 0.37633 0.66037 0.0
H263 H 0.22546 0.35844 0.67943 0.0
H264 H 0.17104 0.3248 0.65974 0.0
H265 H 0.15253 0.28694 0.64098 0.0
H266 H 0.10504 0.26932 0.69373 0.0
H267 H 0.12403 0.30779 0.71302 0.0
N268 N 0.15334 0.35261 0.7173 0.0
N269 N 0.18609 0.387 0.71812 0.0
N270 N 0.18266 0.3562 0.69173 0.0
C271 C 0.16522 0.37446 0.72677 0.0
C272 C 0.19506 0.37777 0.70062 0.0
C273 C 0.16189 0.34341 0.69956 0.0
C274 C 0.15543 0.38432 0.74659 0.0
C275 C 0.13721 0.37024 0.75842 0.0
C276 C 0.12813 0.37918 0.77694 0.0
C277 C 0.13659 0.40269 0.78435 0.0
C278 C 0.15468 0.41683 0.77241 0.0
C279 C 0.16403 0.40782 0.75406 0.0
C280 C 0.21834 0.3901 0.69079 0.0
C281 C 0.22723 0.41422 0.69081 0.0
C282 C 0.24768 0.42472 0.67922 0.0
C283 C 0.25996 0.41144 0.66738 0.0
C284 C 0.25155 0.3874 0.66836 0.0
C285 C 0.2312 0.37703 0.67962 0.0
C286 C 0.14921 0.31974 0.68813 0.0
C287 C 0.15663 0.31306 0.66755 0.0
Pr288 Pr 1.00253 1.0027 0.53114 0.0
Pr289 Pr 0.03529 0.01581 0.50049 0.0
C290 C 0.96261 0.98738 0.5533 0.0
C291 C 0.94621 0.96636 0.56079 0.0
C292 C 0.93836 0.96695 0.58247 0.0
C293 C 0.92122 0.94791 0.58937 0.0
C294 C 0.91146 0.92791 0.57463 0.0
C295 C 0.92 0.92709 0.55317 0.0
C296 C 0.93727 0.94618 0.54629 0.0
C297 C 0.03715 0.04526 0.54806 0.0
C298 C 0.05012 0.9833 0.5415 0.0
C299 C 0.07445 0.0304 0.47716 0.0
C300 C 0.08827 0.05087 0.46678 0.0
C301 C 0.10395 0.04834 0.45086 0.0
C302 C 0.11729 0.06748 0.4406 0.0
C303 C 0.11516 0.08952 0.44609 0.0
C304 C 0.09941 0.092 0.46215 0.0
C305 C 0.08597 0.07277 0.47237 0.0
C306 C 0.99995 0.97346 0.48395 0.0
C307 C 0.9882 0.03569 0.49024 0.0
O308 O 0.96068 0.99028 0.53101 0.0
O309 O 0.9857 0.99423 0.56418 0.0
O310 O 0.02658 0.0405 0.52712 0.0
O311 O 0.03096 0.02753 0.56028 0.0
O312 O 0.0594 1.00096 0.5296 0.0
O313 O 0.02588 0.97699 0.54202 0.0
O314 O 0.07681 0.03098 0.4998 0.0
O315 O 0.05154 0.02072 0.46695 0.0
O316 O 1.01128 0.97812 0.50464 0.0
O317 O 1.0056 0.99129 0.47177 0.0
O318 O 0.97873 0.01795 0.50199 0.0
O319 O 1.01241 0.04181 0.48969 0.0
H320 H 0.94516 0.98234 0.59392 0.0
H321 H 0.91544 0.94893 0.60621 0.0
H322 H 0.91274 0.91201 0.54138 0.0
H323 H 0.94318 0.94531 0.52948 0.0
H324 H 0.10592 0.03154 0.44641 0.0
H325 H 0.12955 0.06504 0.42859 0.0
H326 H 0.09725 0.10874 0.46656 0.0
H327 H 0.07379 0.07495 0.48458 0.0
Pr328 Pr 0.48981 0.01405 0.02699 0.0
Pr329 Pr 0.53813 0.01186 1.01335 0.0
C330 C 0.45192 0.01627 0.04977 0.0
C331 C 0.44659 0.03445 0.06351 0.0
C332 C 0.453 0.0573 0.05706 0.0
C333 C 0.44877 0.07462 0.07067 0.0
C334 C 0.43836 0.06946 0.09112 0.0
C335 C 0.43215 0.0466 0.09765 0.0
C336 C 0.43618 0.02921 0.08389 0.0
C337 C 0.5064 0.0463 0.99483 0.0
C338 C 0.54368 0.04495 0.05825 0.0
C339 C 0.57555 0.01002 0.98985 0.0
C340 C 0.57948 0.99253 0.97412 0.0
C341 C 0.57266 0.96921 0.97892 0.0
C342 C 0.57509 0.95258 0.96324 0.0
C343 C 0.58405 0.95888 0.94229 0.0
C344 C 0.59081 0.9823 0.93754 0.0
C345 C 0.58858 0.99896 0.95336 0.0
C346 C 0.52134 0.97955 0.04541 0.0
C347 C 0.48456 0.97994 0.98276 0.0
O348 O 0.47083 1.00876 0.05903 0.0
O349 O 0.45122 0.01899 0.02747 0.0
O350 O 0.52013 0.04184 1.01236 0.0
O351 O 0.48319 0.03443 0.99378 0.0
O352 O 0.55487 0.04246 0.04044 0.0
O353 O 0.51993 0.03381 0.05836 0.0
O354 O 0.55768 0.01939 0.98183 0.0
O355 O 0.57582 1.00531 1.01172 0.0
O356 O 0.50773 0.98409 0.02787 0.0
O357 O 0.54462 0.99138 0.04659 0.0
O358 O 0.47333 0.98287 1.00043 0.0
O359 O 0.50823 0.99115 0.9824 0.0
H360 H 0.46151 0.06183 0.04162 0.0
H361 H 0.45404 0.09214 0.06541 0.0
H362 H 0.42397 0.04216 0.11327 0.0
H363 H 0.43134 0.0117 0.08923 0.0
H364 H 0.56526 0.96376 0.9947 0.0
H365 H 0.5701 0.93479 0.96767 0.0
H366 H 0.59741 0.98775 0.92143 0.0
H367 H 0.59359 0.01686 0.94921 0.0
Pr368 Pr 0.51998 0.53557 0.52438 0.0
Pr369 Pr 0.50772 0.48343 0.50182 0.0
C370 C 0.51627 0.57872 0.52783 0.0
C371 C 0.50405 0.59282 0.54018 0.0
C372 C 0.5014 0.59017 0.56366 0.0
C373 C 0.487 0.60202 0.57399 0.0
C374 C 0.47476 0.61624 0.5608 0.0
C375 C 0.47796 0.61918 0.5375 0.0
C376 C 0.49256 0.60764 0.52732 0.0
C377 C 0.53728 0.50719 0.55673 0.0
C378 C 0.46876 0.49476 0.53611 0.0
C379 C 0.50919 0.44104 0.48905 0.0
C380 C 0.52875 0.43011 0.48481 0.0
C381 C 0.52301 0.41206 0.46784 0.0
C382 C 0.54159 0.40189 0.46316 0.0
C383 C 0.56618 0.40957 0.47547 0.0
C384 C 0.57185 0.42762 0.49256 0.0
C385 C 0.55331 0.43792 0.49709 0.0
C386 C 0.48656 0.51392 0.47617 0.0
C387 C 0.56111 0.52352 0.49288 0.0
O388 O 0.50078 0.56271 0.5133 0.0
O389 O 0.53512 0.57231 0.53938 0.0
O390 O 0.52674 0.5021 0.53604 0.0
O391 O 0.53993 0.5289 0.56164 0.0
O392 O 0.47609 0.47862 0.5256 0.0
O393 O 0.48064 0.51698 0.53592 0.0
O394 O 0.50964 0.44772 0.51064 0.0
O395 O 0.50449 0.4558 0.47403 0.0
O396 O 0.50826 0.51824 0.48784 0.0
O397 O 0.4747 0.49224 0.47659 0.0
O398 O 0.55381 0.5397 0.50337 0.0
O399 O 0.54839 0.5014 0.49214 0.0
H400 H 0.50985 0.57854 0.57378 0.0
H401 H 0.48471 0.59948 0.59198 0.0
H402 H 0.46895 0.63028 0.52708 0.0
H403 H 0.49427 0.60975 0.50914 0.0
H404 H 0.50417 0.40589 0.45816 0.0
H405 H 0.53667 0.38786 0.45005 0.0
H406 H 0.59072 0.43401 0.50213 0.0
H407 H 0.5582 0.45207 0.51006 0.0
Pr408 Pr 1.0086 0.53077 0.99715 0.0
Pr409 Pr 0.01643 0.49322 0.02737 0.0
C410 C 0.99213 0.56189 0.97135 0.0
C411 C 0.97106 0.57235 0.96736 0.0
C412 C 0.97598 0.59566 0.96282 0.0
C413 C 0.9562 0.60549 0.95646 0.0
C414 C 0.93109 0.59211 0.95438 0.0
C415 C 0.92623 0.56897 0.96005 0.0
C416 C 0.94606 0.55917 0.96652 0.0
C417 C 0.0577 0.53915 0.02056 0.0
C418 C 0.99028 0.52922 0.05021 0.0
C419 C 0.03301 0.46256 0.05389 0.0
C420 C 0.0536 0.4516 0.05713 0.0
C421 C 0.05791 0.44081 0.07778 0.0
C422 C 0.0781 0.43121 0.08196 0.0
C423 C 0.09437 0.43218 0.06549 0.0
C424 C 0.08988 0.44294 0.04466 0.0
C425 C 0.06963 0.45264 0.04052 0.0
C426 C 0.96738 0.48489 1.00349 0.0
C427 C 0.03499 0.49466 0.97436 0.0
O428 O 0.98735 0.54024 0.96459 0.0
O429 O 1.00752 0.56749 0.991 0.0
O430 O 0.03813 0.53116 0.02938 0.0
O431 O 0.05236 0.54392 0.99911 0.0
O432 O 1.00405 0.51474 0.05527 0.0
O433 O 0.98627 0.5354 0.02847 0.0
O434 O 0.03918 0.48453 0.0596 0.0
O435 O 0.0166 0.45666 0.03488 0.0
O436 O 0.98714 0.49285 0.99497 0.0
O437 O 0.97247 0.48004 0.02498 0.0
O438 O 0.02227 0.51001 0.96942 0.0
O439 O 0.03784 0.48756 0.99582 0.0
H440 H 0.99516 0.60613 0.96354 0.0
H441 H 0.96057 0.62345 0.95262 0.0
H442 H 0.90712 0.55815 0.95846 0.0
H443 H 0.94184 0.54113 0.9701 0.0
H444 H 0.04587 0.44012 0.09088 0.0
H445 H 0.08135 0.42355 0.09841 0.0
H446 H 0.10204 0.44393 0.03163 0.0
H447 H 0.06662 0.46112 0.02453 0.0
H448 H 0.2901 0.24158 0.37207 0.0
H449 H 0.26164 0.21525 0.3939 0.0
H450 H 0.1978 0.22624 0.34889 0.0
H451 H 0.22602 0.25225 0.32677 0.0
H452 H 0.18988 0.22294 0.39451 0.0
H453 H 0.21765 0.18145 0.33728 0.0
H454 H 0.24913 0.17036 0.31748 0.0
H455 H 0.27971 0.14607 0.38107 0.0
H456 H 0.24862 0.15735 0.40134 0.0
H457 H 0.12159 0.09296 0.40063 0.0
H458 H 0.14785 0.12511 0.38307 0.0
H459 H 0.16774 0.16388 0.44908 0.0
H460 H 0.14149 0.13166 0.46683 0.0
H461 H 0.1973 0.14302 0.39311 0.0
H462 H 0.17939 0.22156 0.43832 0.0
H463 H 0.14543 0.2319 0.45497 0.0
H464 H 0.09019 0.1802 0.40984 0.0
H465 H 0.12378 0.16978 0.39271 0.0
C466 C 0.27001 0.23853 0.36693 0.0
C467 C 0.26034 0.24885 0.34753 0.0
C468 C 0.25379 0.22358 0.37948 0.0
C469 C 0.22764 0.21863 0.37282 0.0
C470 C 0.21793 0.2299 0.35434 0.0
C471 C 0.23412 0.24482 0.34176 0.0
C472 C 0.21047 0.20023 0.38372 0.0
C473 C 0.19156 0.20549 0.39437 0.0
C474 C 0.21238 0.17739 0.38306 0.0
C475 C 0.231 0.17048 0.37088 0.0
C476 C 0.23122 0.17392 0.34708 0.0
C477 C 0.24897 0.16757 0.33577 0.0
C478 C 0.26646 0.15758 0.34802 0.0
C479 C 0.26619 0.15385 0.37161 0.0
C480 C 0.2485 0.16021 0.38302 0.0
C481 C 0.13155 0.10834 0.41142 0.0
C482 C 0.12961 0.10973 0.43515 0.0
C483 C 0.14649 0.1267 0.40135 0.0
C484 C 0.15973 0.14689 0.41475 0.0
C485 C 0.15745 0.14856 0.43835 0.0
C486 C 0.14242 0.13017 0.44845 0.0
C487 C 0.17674 0.16569 0.40414 0.0
C488 C 0.1957 0.1605 0.39351 0.0
C489 C 0.17451 0.18845 0.40445 0.0
C490 C 0.15413 0.19473 0.41444 0.0
C491 C 0.15999 0.21246 0.43191 0.0
C492 C 0.14081 0.21832 0.44143 0.0
C493 C 0.11567 0.20666 0.43353 0.0
C494 C 0.10967 0.18916 0.41602 0.0
C495 C 0.12878 0.18324 0.40642 0.0
H496 H 0.10085 0.21122 0.44093 0.0
H497 H 0.28018 0.15267 0.33923 0.0
H498 H 0.35089 0.89372 0.79356 0.0
H499 H 0.37834 0.91267 0.82882 0.0
H500 H 0.38304 0.84684 0.85352 0.0
H501 H 0.35463 0.82766 0.81871 0.0
H502 H 0.37828 0.87257 0.88782 0.0
H503 H 0.43204 0.88152 0.83133 0.0
H504 H 0.44696 0.89098 0.79397 0.0
H505 H 0.44865 0.96154 0.8064 0.0
H506 H 0.43344 0.95245 0.84372 0.0
H507 H 0.50405 0.95927 0.95092 0.0
H508 H 0.48089 0.93251 0.91828 0.0
H509 H 0.41077 0.93804 0.93729 0.0
H510 H 0.4338 0.96392 0.97048 0.0
H511 H 0.45284 0.93735 0.88166 0.0
H512 H 0.36398 0.89104 0.92199 0.0
H513 H 0.35372 0.87768 0.96006 0.0
H514 H 0.42966 0.87456 0.98107 0.0
H515 H 0.4403 0.88758 0.94302 0.0
C516 C 0.35741 0.88323 0.80665 0.0
C517 C 0.35061 0.85917 0.80329 0.0
C518 C 0.37339 0.89411 0.82666 0.0
C519 C 0.38311 0.88119 0.84359 0.0
C520 C 0.37589 0.85715 0.84059 0.0
C521 C 0.3598 0.84623 0.82062 0.0
C522 C 0.40061 0.89286 0.86451 0.0
C523 C 0.39463 0.88669 0.88651 0.0
C524 C 0.42248 0.91068 0.8628 0.0
C525 C 0.43137 0.91625 0.84024 0.0
C526 C 0.43535 0.89901 0.82599 0.0
C527 C 0.44392 0.90432 0.80485 0.0
C528 C 0.44868 0.92684 0.79779 0.0
C529 C 0.44493 0.9441 0.81188 0.0
C530 C 0.43636 0.93889 0.83305 0.0
C531 C 0.48368 0.95461 0.94821 0.0
C532 C 0.47068 0.96359 0.96325 0.0
C533 C 0.47048 0.93934 0.92955 0.0
C534 C 0.44407 0.93299 0.92547 0.0
C535 C 0.43111 0.94216 0.94041 0.0
C536 C 0.44429 0.95707 0.9593 0.0
C537 C 0.42999 0.91767 0.90501 0.0
C538 C 0.43662 0.92313 0.88305 0.0
C539 C 0.40932 0.89859 0.90684 0.0
C540 C 0.40297 0.89047 0.92969 0.0
C541 C 0.37846 0.88738 0.93468 0.0
C542 C 0.37258 0.8799 0.95627 0.0
C543 C 0.39104 0.87533 0.97299 0.0
C544 C 0.4154 0.87818 0.96813 0.0
C545 C 0.42137 0.88564 0.94656 0.0
H546 H 0.38646 0.86956 0.98971 0.0
H547 H 0.45534 0.93092 0.78141 0.0
H548 H 0.5697 0.39109 0.73606 0.0
H549 H 0.55827 0.41429 0.70443 0.0
H550 H 0.58595 0.37538 0.65679 0.0
H551 H 0.59871 0.35312 0.68883 0.0
H552 H 0.60103 0.41635 0.64776 0.0
H553 H 0.51989 0.37113 0.6575 0.0
H554 H 0.48454 0.35323 0.67793 0.0
H555 H 0.4792 0.4199 0.69876 0.0
H556 H 0.51476 0.43822 0.67872 0.0
H557 H 0.54357 0.46464 0.54826 0.0
H558 H 0.55152 0.43702 0.57697 0.0
H559 H 0.55088 0.48481 0.63236 0.0
H560 H 0.54337 0.51252 0.6038 0.0
H561 H 0.52027 0.43728 0.63479 0.0
H562 H 0.60454 0.48089 0.62458 0.0
H563 H 0.63766 0.49621 0.60078 0.0
H564 H 0.63333 0.42771 0.57644 0.0
H565 H 0.59995 0.412 0.5999 0.0
C566 C 0.57299 0.38732 0.71875 0.0
C567 C 0.58493 0.37024 0.71484 0.0
C568 C 0.56635 0.40053 0.70059 0.0
C569 C 0.57081 0.39648 0.67793 0.0
C570 C 0.58228 0.37899 0.674 0.0
C571 C 0.58946 0.36617 0.69228 0.0
C572 C 0.56472 0.41119 0.65868 0.0
C573 C 0.58313 0.4205 0.64477 0.0
C574 C 0.5415 0.41698 0.65461 0.0
C575 C 0.52016 0.40605 0.66677 0.0
C576 C 0.51131 0.38198 0.66659 0.0
C577 C 0.49121 0.37176 0.67807 0.0
C578 C 0.47968 0.38542 0.68968 0.0
C579 C 0.48818 0.40934 0.68978 0.0
C580 C 0.50829 0.41965 0.67834 0.0
C581 C 0.54509 0.46918 0.56655 0.0
C582 C 0.5428 0.49066 0.57382 0.0
C583 C 0.54968 0.45345 0.58292 0.0
C584 C 0.55171 0.45885 0.6068 0.0
C585 C 0.54929 0.48027 0.61403 0.0
C586 C 0.54515 0.49612 0.59771 0.0
C587 C 0.5566 0.44235 0.62435 0.0
C588 C 0.53799 0.43281 0.63785 0.0
C589 C 0.57931 0.43587 0.62764 0.0
C590 C 0.5996 0.4453 0.61381 0.0
C591 C 0.61053 0.46911 0.61402 0.0
C592 C 0.62937 0.47786 0.60062 0.0
C593 C 0.63755 0.46295 0.58706 0.0
C594 C 0.62696 0.43924 0.58694 0.0
C595 C 0.6081 0.43041 0.6003 0.0
H596 H 0.65212 0.46976 0.57669 0.0
H597 H 0.46411 0.37747 0.69855 0.0
H598 H 0.86854 0.60964 0.19698 0.0
H599 H 0.88448 0.59568 0.16429 0.0
H600 H 0.95039 0.59081 0.21059 0.0
H601 H 0.93508 0.60608 0.24297 0.0
H602 H 0.96657 0.60304 0.17473 0.0
H603 H 0.89459 0.54166 0.18289 0.0
H604 H 0.85017 0.52293 0.18555 0.0
H605 H 0.82754 0.54372 0.11745 0.0
H606 H 0.87182 0.56281 0.1145 0.0
H607 H 1.00305 0.52815 0.09771 0.0
H608 H 0.98605 0.54334 0.12901 0.0
H609 H 0.9352 0.56661 0.07839 0.0
H610 H 0.95252 0.55173 0.04685 0.0
H611 H 0.91121 0.54512 0.11523 0.0
H612 H 0.98599 0.60482 0.10809 0.0
H613 H 0.03123 0.62052 0.10664 0.0
H614 H 0.04928 0.5986 0.17526 0.0
H615 H 1.00414 0.58248 0.17698 0.0
C616 C 0.88639 0.60549 0.20029 0.0
C617 C 0.90031 0.60904 0.22295 0.0
C618 C 0.89554 0.59723 0.18141 0.0
C619 C 0.91867 0.59138 0.18446 0.0
C620 C 0.93258 0.595 0.20717 0.0
C621 C 0.9237 0.60377 0.22593 0.0
C622 C 0.9286 0.582 0.16422 0.0
C623 C 0.9543 0.59011 0.16205 0.0
C624 C 0.9131 0.56529 0.14687 0.0
C625 C 0.88648 0.55387 0.14858 0.0
C626 C 0.88012 0.54236 0.16855 0.0
C627 C 0.85497 0.53167 0.1701 0.0
C628 C 0.83604 0.53219 0.15171 0.0
C629 C 0.84222 0.54337 0.1317 0.0
C630 C 0.86734 0.55411 0.13007 0.0
C631 C 0.98825 0.53649 0.09308 0.0
C632 C 0.97935 0.5386 0.06943 0.0
C633 C 0.97851 0.54531 0.11117 0.0
C634 C 0.95923 0.5564 0.10644 0.0
C635 C 0.95 0.55823 0.08284 0.0
C636 C 0.96005 0.54972 0.06468 0.0
C637 C 0.94897 0.56608 0.12606 0.0
C638 C 0.9233 0.55803 0.12803 0.0
C639 C 0.96456 0.58242 0.14351 0.0
C640 C 0.99169 0.59226 0.14257 0.0
C641 C 0.99961 0.6032 0.1228 0.0
C642 C 0.02524 0.6122 0.12194 0.0
C643 C 0.04312 0.61051 0.14082 0.0
C644 C 0.03541 0.59988 0.16063 0.0
C645 C 1.00981 0.59082 0.16157 0.0
H646 H 0.06295 0.61749 0.14013 0.0
H647 H 0.81659 0.5239 0.15294 0.0
H648 H 0.4176 0.22337 0.23832 0.0
H649 H 0.42852 0.19315 0.21716 0.0
H650 H 0.38839 0.20936 0.15339 0.0
H651 H 0.37658 0.23886 0.17448 0.0
H652 H 0.37481 0.16462 0.15898 0.0
H653 H 0.45291 0.22328 0.16407 0.0
H654 H 0.49053 0.25234 0.18374 0.0
H655 H 0.51377 0.20033 0.2234 0.0
H656 H 0.47608 0.17099 0.20419 0.0
H657 H 0.41658 0.10308 0.0764 0.0
H658 H 0.40985 0.13398 0.10003 0.0
H659 H 0.44362 0.10856 0.16186 0.0
H660 H 0.45056 0.0776 0.13823 0.0
H661 H 0.46095 0.15668 0.15904 0.0
H662 H 0.38303 0.09795 0.15282 0.0
H663 H 0.34572 0.06911 0.13236 0.0
H664 H 0.32238 0.12187 0.09409 0.0
H665 H 0.35978 0.15101 0.11409 0.0
C666 C 0.41119 0.22055 0.21977 0.0
C667 C 0.3962 0.23354 0.20811 0.0
C668 C 0.41763 0.20341 0.20767 0.0
C669 C 0.40934 0.19906 0.18367 0.0
C670 C 0.39499 0.21243 0.1719 0.0
C671 C 0.38849 0.22948 0.18397 0.0
C672 C 0.41432 0.17977 0.17097 0.0
C673 C 0.39368 0.16308 0.15876 0.0
C674 C 0.43888 0.17737 0.17127 0.0
C675 C 0.46152 0.19498 0.18288 0.0
C676 C 0.46592 0.21807 0.17714 0.0
C677 C 0.48728 0.23458 0.18817 0.0
C678 C 0.50449 0.22819 0.20486 0.0
C679 C 0.5004 0.20526 0.2105 0.0
C680 C 0.47905 0.18868 0.19954 0.0
C681 C 0.42266 0.10414 0.09502 0.0
C682 C 0.43404 0.08795 0.10552 0.0
C683 C 0.41871 0.12171 0.10848 0.0
C684 C 0.42612 0.12342 0.13267 0.0
C685 C 0.43775 0.10746 0.14321 0.0
C686 C 0.44152 0.08973 0.12975 0.0
C687 C 0.42148 0.14186 0.14685 0.0
C688 C 0.44211 0.15828 0.15937 0.0
C689 C 0.39692 0.1441 0.1468 0.0
C690 C 0.37434 0.12663 0.1348 0.0
C691 C 0.37006 0.10338 0.1399 0.0
C692 C 0.34887 0.08698 0.12842 0.0
C693 C 0.33172 0.09364 0.1119 0.0
C694 C 0.3357 0.11673 0.10687 0.0
C695 C 0.35688 0.1332 0.1183 0.0
H696 H 0.31532 0.08092 0.10303 0.0
H697 H 0.52102 0.241 0.21337 0.0
H698 H 0.16495 0.84916 0.65258 0.0
H699 H 0.13686 0.871 0.63428 0.0
H700 H 0.191 0.90054 0.58985 0.0
H701 H 0.21921 0.87875 0.60814 0.0
H702 H 0.1733 0.93296 0.61239 0.0
H703 H 0.14008 0.86152 0.56685 0.0
H704 H 0.12293 0.81953 0.56059 0.0
H705 H 0.06073 0.82213 0.59494 0.0
H706 H 0.07772 0.86413 0.60171 0.0
H707 H 0.09865 0.98668 0.53633 0.0
H708 H 0.12547 0.96346 0.55349 0.0
H709 H 0.06621 0.92665 0.58968 0.0
H710 H 0.03889 0.94938 0.57188 0.0
H711 H 0.08655 0.89765 0.57166 0.0
H712 H 0.11897 0.96832 0.61783 0.0
H713 H 0.13581 0.01023 0.62533 0.0
H714 H 0.19906 1.00919 0.59185 0.0
H715 H 0.18241 0.9673 0.58388 0.0
C716 C 0.17078 0.86023 0.63883 0.0
C717 C 0.19423 0.86228 0.63175 0.0
C718 C 0.1547 0.87259 0.62833 0.0
C719 C 0.16186 0.8873 0.61068 0.0
C720 C 0.18516 0.88923 0.60343 0.0
C721 C 0.20114 0.87668 0.61375 0.0
C722 C 0.14541 0.9013 0.6004 0.0
C723 C 0.15445 0.92529 0.60318 0.0
C724 C 0.12058 0.8912 0.58907 0.0
C725 C 0.11031 0.86595 0.585 0.0
C726 C 0.12287 0.85312 0.57326 0.0
C727 C 0.11315 0.82932 0.56958 0.0
C728 C 0.09079 0.81816 0.57742 0.0
C729 C 0.07807 0.83079 0.58891 0.0
C730 C 0.08772 0.8546 0.59265 0.0
C731 C 0.09135 0.97375 0.54806 0.0
C732 C 0.06668 0.96993 0.55285 0.0
C733 C 0.10676 0.96053 0.55794 0.0
C734 C 0.09801 0.94353 0.57317 0.0
C735 C 0.07338 0.9397 0.57801 0.0
C736 C 0.05782 0.95275 0.5679 0.0
C737 C 0.11441 0.92943 0.5836 0.0
C738 C 0.10538 0.90539 0.58088 0.0
C739 C 0.13919 0.9395 0.59521 0.0
C740 C 0.14932 0.96469 0.60007 0.0
C741 C 0.13638 0.97705 0.61192 0.0
C742 C 0.1459 1.0008 0.61628 0.0
C743 C 0.16846 0.01237 0.60902 0.0
C744 C 0.18157 1.00021 0.59744 0.0
C745 C 0.17212 0.97645 0.59302 0.0
H746 H 0.1758 0.03076 0.61241 0.0
H747 H 0.08329 0.79973 0.57455 0.0
H748 H 0.74293 0.38001 0.91127 0.0
H749 H 0.78268 0.402 0.93393 0.0
H750 H 0.81085 0.42454 0.87073 0.0
H751 H 0.77136 0.40184 0.84784 0.0
H752 H 0.845 0.41074 0.89927 0.0
H753 H 0.79365 0.46127 0.90648 0.0
H754 H 0.75639 0.47259 0.91472 0.0
H755 H 0.77021 0.45457 0.98551 0.0
H756 H 0.80737 0.44283 0.97761 0.0
H757 H 0.95466 0.49082 0.95752 0.0
H758 H 0.91364 0.47564 0.93319 0.0
H759 H 0.88221 0.44672 0.99295 0.0
H760 H 0.92322 0.46208 0.01746 0.0
H761 H 0.85002 0.46607 0.9647 0.0
H762 H 0.89989 0.41335 0.95623 0.0
H763 H 0.9374 0.40257 0.94779 0.0
H764 H 0.92626 0.42558 0.87865 0.0
H765 H 0.88886 0.4368 0.88681 0.0
C766 C 0.75761 0.38954 0.90215 0.0
C767 C 0.75397 0.38908 0.87771 0.0
C768 C 0.78024 0.40234 0.91516 0.0
C769 C 0.79967 0.41516 0.90406 0.0
C770 C 0.79608 0.41486 0.87967 0.0
C771 C 0.77343 0.40201 0.86662 0.0
C772 C 0.82406 0.42806 0.91793 0.0
C773 C 0.84612 0.42315 0.91329 0.0
C774 C 0.82552 0.44392 0.93656 0.0
C775 C 0.80318 0.45098 0.94139 0.0
C776 C 0.78863 0.45954 0.92376 0.0
C777 C 0.76755 0.46607 0.92838 0.0
C778 C 0.7609 0.46425 0.95061 0.0
C779 C 0.77536 0.45595 0.96829 0.0
C780 C 0.79646 0.44938 0.96376 0.0
C781 C 0.93895 0.48138 0.9655 0.0
C782 C 0.94216 0.47736 0.98931 0.0
C783 C 0.91555 0.47269 0.95158 0.0
C784 C 0.89498 0.45975 0.9612 0.0
C785 C 0.89787 0.45659 0.98517 0.0
C786 C 0.9213 0.46529 0.99913 0.0
C787 C 0.87079 0.44861 0.94608 0.0
C788 C 0.84883 0.4538 0.95053 0.0
C789 C 0.8694 0.43307 0.92721 0.0
C790 C 0.89174 0.42613 0.92221 0.0
C791 C 0.90555 0.41626 0.93929 0.0
C792 C 0.92677 0.41005 0.93455 0.0
C793 C 0.93425 0.41345 0.91272 0.0
C794 C 0.92047 0.423 0.89556 0.0
C795 C 0.89925 0.42927 0.90023 0.0
H796 H 0.9507 0.40864 0.90908 0.0
H797 H 0.74457 0.46931 0.95415 0.0
H798 H 0.74645 0.56242 0.3675 0.0
H799 H 0.71152 0.54631 0.38878 0.0
H800 H 0.70654 0.61453 0.40478 0.0
H801 H 0.741 0.63063 0.3835 0.0
H802 H 0.70402 0.59184 0.44265 0.0
H803 H 0.66195 0.57465 0.36364 0.0
H804 H 0.65484 0.55797 0.32352 0.0
H805 H 0.64615 0.49057 0.34916 0.0
H806 H 0.65353 0.50689 0.38947 0.0
H807 H 0.58776 0.56739 0.48523 0.0
H808 H 0.6221 0.57964 0.46284 0.0
H809 H 0.6199 0.50898 0.44852 0.0
H810 H 0.58481 0.49651 0.47052 0.0
H811 H 0.6271 0.53077 0.41055 0.0
H812 H 0.66795 0.54738 0.48931 0.0
H813 H 0.67521 0.5637 0.52958 0.0
H814 H 0.68695 0.63165 0.50477 0.0
H815 H 0.67944 0.61571 0.46432 0.0
C816 C 0.73774 0.57403 0.37524 0.0
C817 C 0.74707 0.598 0.37375 0.0
C818 C 0.71764 0.56474 0.38754 0.0
C819 C 0.70602 0.57907 0.39861 0.0
C820 C 0.71506 0.60291 0.39676 0.0
C821 C 0.73503 0.61217 0.38452 0.0
C822 C 0.68499 0.56959 0.41257 0.0
C823 C 0.68711 0.57867 0.43542 0.0
C824 C 0.66299 0.55185 0.40377 0.0
C825 C 0.65857 0.54202 0.37958 0.0
C826 C 0.65873 0.55629 0.36073 0.0
C827 C 0.65461 0.5469 0.33796 0.0
C828 C 0.65013 0.52324 0.3338 0.0
C829 C 0.64968 0.5089 0.35241 0.0
C830 C 0.65381 0.51821 0.37522 0.0
C831 C 0.59461 0.55433 0.47756 0.0
C832 C 0.58339 0.53084 0.4801 0.0
C833 C 0.6145 0.56144 0.46468 0.0
C834 C 0.6243 0.5454 0.45409 0.0
C835 C 0.61302 0.5219 0.45644 0.0
C836 C 0.59292 0.51473 0.46923 0.0
C837 C 0.64603 0.55324 0.44053 0.0
C838 C 0.64406 0.54387 0.4178 0.0
C839 C 0.66828 0.57067 0.44947 0.0
C840 C 0.67292 0.58033 0.47377 0.0
C841 C 0.67192 0.56579 0.49243 0.0
C842 C 0.6761 0.57498 0.51529 0.0
C843 C 0.68148 0.59869 0.51973 0.0
C844 C 0.68275 0.61328 0.50131 0.0
C845 C 0.67856 0.60418 0.47841 0.0
H846 H 0.6847 0.60577 0.53744 0.0
H847 H 0.64694 0.516 0.31616 0.0
H848 H 0.232 0.33887 0.18484 0.0
H849 H 0.20573 0.35319 0.15475 0.0
H850 H 0.27147 0.40234 0.13796 0.0
H851 H 0.29806 0.38812 0.16845 0.0
H852 H 0.23197 0.42136 0.14254 0.0
H853 H 0.24429 0.35866 0.10053 0.0
H854 H 0.24669 0.31911 0.09338 0.0
H855 H 0.16832 0.29304 0.09826 0.0
H856 H 0.16552 0.3324 0.10581 0.0
H857 H 0.14264 0.45086 0.05716 0.0
H858 H 0.17986 0.43805 0.07135 0.0
H859 H 0.13334 0.37974 0.10024 0.0
H860 H 0.09608 0.39212 0.08573 0.0
H861 H 0.17074 0.36837 0.08211 0.0
H862 H 0.16236 0.42911 0.13419 0.0
H863 H 0.15906 0.46812 0.14284 0.0
H864 H 0.22939 0.49723 0.11907 0.0
H865 H 0.23309 0.45831 0.11031 0.0
C866 C 0.24088 0.35283 0.17487 0.0
C867 C 0.26705 0.3625 0.17909 0.0
C868 C 0.22588 0.36082 0.15751 0.0
C869 C 0.23671 0.37861 0.14394 0.0
C870 C 0.26282 0.38848 0.14816 0.0
C871 C 0.27794 0.38033 0.16549 0.0
C872 C 0.22025 0.38725 0.12609 0.0
C873 C 0.21905 0.40997 0.12889 0.0
C874 C 0.20322 0.37228 0.10848 0.0
C875 C 0.20474 0.34852 0.10384 0.0
C876 C 0.2276 0.34449 0.10024 0.0
C877 C 0.22903 0.3221 0.09609 0.0
C878 C 0.20768 0.30357 0.09539 0.0
C879 C 0.18484 0.30741 0.0988 0.0
C880 C 0.18332 0.32977 0.10298 0.0
C881 C 0.14025 0.4351 0.06616 0.0
C882 C 0.11645 0.4228 0.07082 0.0
C883 C 0.16158 0.42785 0.07432 0.0
C884 C 0.15939 0.40818 0.08721 0.0
C885 C 0.13547 0.39504 0.09045 0.0
C886 C 0.11421 0.40228 0.08235 0.0
C887 C 0.18191 0.40216 0.09915 0.0
C888 C 0.1842 0.37994 0.09527 0.0
C889 C 0.19988 0.41753 0.11583 0.0
C890 C 0.19787 0.44087 0.12139 0.0
C891 C 0.17706 0.44385 0.13073 0.0
C892 C 0.17514 0.46593 0.13567 0.0
C893 C 0.19395 0.48515 0.13139 0.0
C894 C 0.21481 0.48232 0.12232 0.0
C895 C 0.21687 0.46026 0.11743 0.0
H896 H 0.1924 0.50224 0.13517 0.0
H897 H 0.20882 0.28625 0.09217 0.0
H898 H 0.54936 0.20276 0.84293 0.0
H899 H 0.53345 0.16921 0.86501 0.0
H900 H 0.59588 0.19447 0.92031 0.0
H901 H 0.6114 0.22825 0.89892 0.0
H902 H 0.58801 0.14809 0.90779 0.0
H903 H 0.53978 0.19954 0.92683 0.0
H904 H 0.51113 0.22404 0.91762 0.0
H905 H 0.45388 0.1661 0.88331 0.0
H906 H 0.48234 0.14132 0.89205 0.0
H907 H 0.55139 0.07929 1.00033 0.0
H908 H 0.56467 0.11093 0.97529 0.0
H909 H 0.49401 0.08693 0.92908 0.0
H910 H 0.48033 0.0558 0.9546 0.0
H911 H 0.5049 0.13111 0.93426 0.0
H912 H 0.55076 0.07883 0.91613 0.0
H913 H 0.57843 0.05334 0.92455 0.0
H914 H 0.63905 0.11086 0.95463 0.0
H915 H 0.61161 0.13666 0.94676 0.0
C916 C 0.55955 0.20135 0.85991 0.0
C917 C 0.58184 0.21824 0.86897 0.0
C918 C 0.5505 0.18207 0.87246 0.0
C919 C 0.56354 0.17928 0.89429 0.0
C920 C 0.58564 0.19612 0.9034 0.0
C921 C 0.59456 0.21542 0.89103 0.0
C922 C 0.5543 0.15891 0.90784 0.0
C923 C 0.56993 0.14446 0.91375 0.0
C924 C 0.53041 0.15377 0.91504 0.0
C925 C 0.51328 0.16864 0.90986 0.0
C926 C 0.52116 0.19207 0.91715 0.0
C927 C 0.50494 0.206 0.91205 0.0
C928 C 0.48073 0.19665 0.89982 0.0
C929 C 0.47266 0.17333 0.89274 0.0
C930 C 0.48882 0.15933 0.89777 0.0
C931 C 0.53873 0.08076 0.9848 0.0
C932 C 0.51484 0.06507 0.97939 0.0
C933 C 0.54638 0.09879 0.9704 0.0
C934 C 0.53052 0.10121 0.95001 0.0
C935 C 0.50662 0.0855 0.94465 0.0
C936 C 0.49884 0.06765 0.95922 0.0
C937 C 0.53871 0.12029 0.93449 0.0
C938 C 0.52291 0.13454 0.92818 0.0
C939 C 0.56232 0.12504 0.92665 0.0
C940 C 0.57905 0.10966 0.93102 0.0
C941 C 0.56995 0.08603 0.92466 0.0
C942 C 0.5856 0.07152 0.92933 0.0
C943 C 0.61047 0.08046 0.94016 0.0
C944 C 0.61977 0.10395 0.94626 0.0
C945 C 0.60418 0.11853 0.94169 0.0
H946 H 0.62254 0.0692 0.94378 0.0
H947 H 0.4682 0.20746 0.8959 0.0
H948 H 0.91173 0.78728 0.34663 0.0
H949 H 0.92728 0.82532 0.36691 0.0
H950 H 0.93907 0.79387 0.43201 0.0
H951 H 0.9232 0.75589 0.41189 0.0
H952 H 0.92025 0.82705 0.43989 0.0
H953 H 0.9888 0.82289 0.40113 0.0
H954 H 1.00977 0.81724 0.36797 0.0
H955 H 0.98765 0.87309 0.33461 0.0
H956 H 0.96627 0.87889 0.36746 0.0
H957 H 0.99507 0.93169 0.50421 0.0
H958 H 0.97915 0.89299 0.48504 0.0
H959 H 0.9633 0.92245 0.4195 0.0
H960 H 0.97951 0.96097 0.43848 0.0
H961 H 0.98464 0.89003 0.41255 0.0
H962 H 0.91654 0.89417 0.45296 0.0
H963 H 0.89654 0.89927 0.48697 0.0
H964 H 0.91938 0.84293 0.51846 0.0
H965 H 0.93989 0.83773 0.48483 0.0
C966 C 0.91791 0.7884 0.36523 0.0
C967 C 0.91609 0.76823 0.37745 0.0
C968 C 0.92687 0.81032 0.37692 0.0
C969 C 0.93476 0.81287 0.4012 0.0
C970 C 0.93309 0.79272 0.41338 0.0
C971 C 0.92395 0.77084 0.40175 0.0
C972 C 0.9444 0.83633 0.41397 0.0
C973 C 0.93459 0.84067 0.43401 0.0
C974 C 0.96287 0.85458 0.4064 0.0
C975 C 0.97572 0.85116 0.38664 0.0
C976 C 0.98826 0.83385 0.38664 0.0
C977 C 1.00024 0.83065 0.36792 0.0
C978 C 0.99998 0.84476 0.34917 0.0
C979 C 0.9878 0.86215 0.34913 0.0
C980 C 0.97576 0.86542 0.36781 0.0
C981 C 0.98799 0.92991 0.48575 0.0
C982 C 0.98862 0.94959 0.47296 0.0
C983 C 0.97877 0.90767 0.47474 0.0
C984 C 0.96971 0.90444 0.45064 0.0
C985 C 0.97015 0.92417 0.438 0.0
C986 C 0.97937 0.94632 0.44896 0.0
C987 C 0.96038 0.88078 0.43837 0.0
C988 C 0.97029 0.87641 0.41843 0.0
C989 C 0.94217 0.86247 0.44617 0.0
C990 C 0.92996 0.8657 0.46646 0.0
C991 C 0.9175 0.883 0.46723 0.0
C992 C 0.90604 0.88589 0.48643 0.0
C993 C 0.90671 0.87144 0.50486 0.0
C994 C 0.91889 0.85411 0.50417 0.0
C995 C 0.93043 0.85119 0.48505 0.0
H996 H 0.8977 0.8736 0.51964 0.0
H997 H 1.00927 0.84225 0.33469 0.0
H998 H 0.31105 0.71779 0.61137 0.0
H999 H 0.33516 0.69441 0.59546 0.0
H1000 H 0.39976 0.72642 0.64673 0.0
H1001 H 0.37615 0.7502 0.66215 0.0
H1002 H 0.41338 0.72285 0.60534 0.0
H1003 H 0.3623 0.67328 0.65356 0.0
H1004 H 0.32279 0.65313 0.66704 0.0
H1005 H 0.29523 0.61755 0.60008 0.0
H1006 H 0.33447 0.63776 0.58609 0.0
H1007 H 0.48556 0.64307 0.60104 0.0
H1008 H 0.459 0.66474 0.61573 0.0
H1009 H 0.40017 0.63672 0.55793 0.0
H1010 H 0.42666 0.61517 0.54316 0.0
H1011 H 0.38283 0.63776 0.60129 0.0
H1012 H 0.43507 0.68739 0.55374 0.0
H1013 H 0.47528 0.70721 0.5413 0.0
H1014 H 0.50133 0.74247 0.60855 0.0
H1015 H 0.46138 0.72257 0.62152 0.0
C1016 C 0.33047 0.71998 0.61904 0.0
C1017 C 0.34163 0.73562 0.63816 0.0
C1018 C 0.34414 0.7065 0.61009 0.0
C1019 C 0.36913 0.70847 0.62015 0.0
C1020 C 0.38047 0.72455 0.63878 0.0
C1021 C 0.36688 0.73797 0.6477 0.0
C1022 C 0.38358 0.69369 0.61155 0.0
C1023 C 0.40679 0.70425 0.60468 0.0
C1024 C 0.37479 0.66942 0.61033 0.0
C1025 C 0.3512 0.65723 0.6187 0.0
C1026 C 0.34773 0.66131 0.64165 0.0
C1027 C 0.3254 0.64986 0.64939 0.0
C1028 C 0.30648 0.63413 0.6344 0.0
C1029 C 0.30988 0.62978 0.61165 0.0
C1030 C 0.33216 0.64122 0.60381 0.0
C1031 C 0.46684 0.64136 0.59169 0.0
C1032 C 0.45816 0.62769 0.57091 0.0
C1033 C 0.45177 0.65376 0.60001 0.0
C1034 C 0.42777 0.65243 0.58775 0.0
C1035 C 0.41866 0.63798 0.56756 0.0
C1036 C 0.43382 0.62582 0.5591 0.0
C1037 C 0.41262 0.66697 0.59533 0.0
C1038 C 0.38931 0.65637 0.60194 0.0
C1039 C 0.42137 0.6912 0.59647 0.0
C1040 C 0.44534 0.70331 0.58867 0.0
C1041 C 0.44945 0.69922 0.56594 0.0
C1042 C 0.47218 0.71049 0.55878 0.0
C1043 C 0.49087 0.72604 0.57414 0.0
C1044 C 0.48684 0.73039 0.59668 0.0
C1045 C 0.46416 0.71913 0.60394 0.0
H1046 H 0.50846 0.73476 0.56857 0.0
H1047 H 0.28921 0.62526 0.64044 0.0
H1048 H 0.76318 0.75237 0.65642 0.0
H1049 H 0.79077 0.77515 0.63133 0.0
H1050 H 0.77043 0.83566 0.65177 0.0
H1051 H 0.74329 0.81326 0.67706 0.0
H1052 H 0.77275 0.83342 0.60535 0.0
H1053 H 0.82365 0.82502 0.67798 0.0
H1054 H 0.8406 0.80298 0.70849 0.0
H1055 H 0.87165 0.77112 0.65816 0.0
H1056 H 0.85456 0.79276 0.62727 0.0
H1057 H 0.87127 0.93004 0.59513 0.0
H1058 H 0.83976 0.89845 0.60778 0.0
H1059 H 0.87472 0.8499 0.58142 0.0
H1060 H 0.90705 0.8817 0.56933 0.0
H1061 H 0.86414 0.84058 0.62461 0.0
H1062 H 0.81886 0.85465 0.55312 0.0
H1063 H 0.80263 0.87792 0.52348 0.0
H1064 H 0.76133 0.89987 0.57176 0.0
H1065 H 0.7776 0.87701 0.60181 0.0
C1066 C 0.76452 0.77051 0.6555 0.0
C1067 C 0.75107 0.78099 0.66883 0.0
C1068 C 0.78022 0.78347 0.6411 0.0
C1069 C 0.78278 0.80712 0.63986 0.0
C1070 C 0.76862 0.8174 0.65239 0.0
C1071 C 0.75301 0.80452 0.66679 0.0
C1072 C 0.80124 0.82163 0.62667 0.0
C1073 C 0.79274 0.83503 0.60955 0.0
C1074 C 0.82724 0.82323 0.63173 0.0
C1075 C 0.83755 0.81026 0.65028 0.0
C1076 C 0.8339 0.81316 0.67339 0.0
C1077 C 0.84357 0.80077 0.69075 0.0
C1078 C 0.85712 0.7856 0.68525 0.0
C1079 C 0.8611 0.78283 0.66238 0.0
C1080 C 0.85143 0.79516 0.64494 0.0
C1081 C 0.8724 0.91267 0.59213 0.0
C1082 C 0.8918 0.9084 0.58139 0.0
C1083 C 0.85416 0.89459 0.5991 0.0
C1084 C 0.85468 0.87179 0.59526 0.0
C1085 C 0.8739 0.86737 0.58442 0.0
C1086 C 0.89225 0.88553 0.57742 0.0
C1087 C 0.83572 0.85285 0.60368 0.0
C1088 C 0.84412 0.83862 0.61995 0.0
C1089 C 0.80962 0.85055 0.59788 0.0
C1090 C 0.79957 0.86418 0.57977 0.0
C1091 C 0.80644 0.86454 0.55747 0.0
C1092 C 0.79721 0.87765 0.54059 0.0
C1093 C 0.78098 0.89038 0.54574 0.0
C1094 C 0.7739 0.88999 0.56778 0.0
C1095 C 0.78309 0.87693 0.58474 0.0
H1096 H 0.77387 0.90053 0.53265 0.0
H1097 H 0.8646 0.77603 0.69872 0.0
H1098 H 0.6411 0.15301 0.2566 0.0
H1099 H 0.61524 0.13409 0.22051 0.0
H1100 H 0.68219 0.13627 0.19098 0.0
H1101 H 0.70825 0.15575 0.22691 0.0
H1102 H 0.64625 0.14877 0.16039 0.0
H1103 H 0.65065 0.08737 0.21112 0.0
H1104 H 0.64643 0.06699 0.24727 0.0
H1105 H 0.56759 0.06269 0.23763 0.0
H1106 H 0.57141 0.08335 0.20157 0.0
H1107 H 0.59411 0.06599 0.06657 0.0
H1108 H 0.61828 0.08869 0.1014 0.0
H1109 H 0.5502 0.08075 0.13087 0.0
H1110 H 0.52589 0.05755 0.09626 0.0
H1111 H 0.5858 0.07217 0.16161 0.0
H1112 H 0.58055 0.13228 0.1104 0.0
H1113 H 0.58427 0.1527 0.07424 0.0
H1114 H 0.66373 0.15983 0.08463 0.0
H1115 H 0.66044 0.13916 0.12071 0.0
C1116 C 0.65033 0.14968 0.24234 0.0
C1117 C 0.67671 0.15584 0.24458 0.0
C1118 C 0.63553 0.13872 0.22181 0.0
C1119 C 0.64683 0.13361 0.20319 0.0
C1120 C 0.67314 0.14003 0.20521 0.0
C1121 C 0.68798 0.15097 0.22577 0.0
C1122 C 0.63116 0.12131 0.18171 0.0
C1123 C 0.63323 0.1319 0.16056 0.0
C1124 C 0.61371 0.0996 0.18213 0.0
C1125 C 0.61138 0.08712 0.20378 0.0
C1126 C 0.63246 0.08225 0.21681 0.0
C1127 C 0.63013 0.07062 0.23727 0.0
C1128 C 0.60677 0.06361 0.24478 0.0
C1129 C 0.58568 0.06817 0.23181 0.0
C1130 C 0.58791 0.07982 0.21136 0.0
C1131 C 0.58421 0.06923 0.08036 0.0
C1132 C 0.55808 0.05994 0.07867 0.0
C1133 C 0.59807 0.08231 0.10023 0.0
C1134 C 0.58601 0.08662 0.11864 0.0
C1135 C 0.55987 0.07763 0.11686 0.0
C1136 C 0.54601 0.06441 0.09705 0.0
C1137 C 0.60087 0.09958 0.14018 0.0
C1138 C 0.5987 0.08909 0.16138 0.0
C1139 C 0.61812 0.12143 0.1398 0.0
C1140 C 0.6202 0.13399 0.11817 0.0
C1141 C 0.59879 0.13805 0.10489 0.0
C1142 C 0.60083 0.14969 0.08442 0.0
C1143 C 0.62421 0.15751 0.07711 0.0
C1144 C 0.64563 0.15375 0.0903 0.0
C1145 C 0.64369 0.14209 0.11078 0.0
H1146 H 0.62575 0.16652 0.06125 0.0
H1147 H 0.60501 0.05459 0.26061 0.0
H1148 H 0.40162 0.61127 0.30073 0.0
H1149 H 0.41126 0.59043 0.33464 0.0
H1150 H 0.48239 0.64142 0.35384 0.0
H1151 H 0.47343 0.66186 0.31899 0.0
H1152 H 0.48881 0.6003 0.35931 0.0
H1153 H 0.43135 0.6384 0.38308 0.0
H1154 H 0.39245 0.65079 0.38016 0.0
H1155 H 0.34873 0.5805 0.37846 0.0
H1156 H 0.38736 0.56766 0.38104 0.0
H1157 H 0.51295 0.55756 0.46982 0.0
H1158 H 0.50285 0.58289 0.43994 0.0
H1159 H 0.43371 0.53158 0.41379 0.0
H1160 H 0.44345 0.50626 0.44426 0.0
H1161 H 0.42738 0.57488 0.4135 0.0
H1162 H 0.48617 0.53747 0.38814 0.0
H1163 H 0.52584 0.5262 0.39294 0.0
H1164 H 0.56802 0.59719 0.39939 0.0
H1165 H 0.52858 0.60888 0.39494 0.0
C1166 C 0.4195 0.618 0.31194 0.0
C1167 C 0.43683 0.63824 0.3069 0.0
C1168 C 0.42482 0.60618 0.33161 0.0
C1169 C 0.4474 0.61447 0.3471 0.0
C1170 C 0.46477 0.6347 0.34223 0.0
C1171 C 0.45953 0.64649 0.32238 0.0
C1172 C 0.45299 0.6016 0.36795 0.0
C1173 C 0.47554 0.5951 0.37135 0.0
C1174 C 0.43554 0.59441 0.38355 0.0
C1175 C 0.41225 0.60206 0.38206 0.0
C1176 C 0.41343 0.62557 0.38191 0.0
C1177 C 0.39143 0.63268 0.38034 0.0
C1178 C 0.36813 0.61644 0.37907 0.0
C1179 C 0.36679 0.59306 0.37942 0.0
C1180 C 0.38874 0.58586 0.38096 0.0
C1181 C 0.49537 0.55177 0.45797 0.0
C1182 C 0.47898 0.52987 0.45937 0.0
C1183 C 0.48972 0.56624 0.44077 0.0
C1184 C 0.46776 0.559 0.42432 0.0
C1185 C 0.45084 0.53749 0.42623 0.0
C1186 C 0.45642 0.52302 0.4436 0.0
C1187 C 0.46301 0.57347 0.40464 0.0
C1188 C 0.44065 0.58022 0.40147 0.0
C1189 C 0.48072 0.58107 0.38938 0.0
C1190 C 0.50442 0.57405 0.3914 0.0
C1191 C 0.50391 0.55067 0.39068 0.0
C1192 C 0.52635 0.54421 0.39334 0.0
C1193 C 0.54944 0.56097 0.39654 0.0
C1194 C 0.55012 0.58423 0.39695 0.0
C1195 C 0.52773 0.59078 0.39433 0.0
H1196 H 0.5668 0.55594 0.39866 0.0
H1197 H 0.35111 0.62198 0.37786 0.0
H1198 H 0.12482 0.38281 0.82539 0.0
H1199 H 0.10878 0.39794 0.85726 0.0
H1200 H 0.10886 0.45949 0.82095 0.0
H1201 H 0.12567 0.44464 0.78931 0.0
H1202 H 0.12202 0.47283 0.86312 0.0
H1203 H 0.05237 0.41186 0.82733 0.0
H1204 H 0.02965 0.37246 0.81199 0.0
H1205 H 0.04443 0.34714 0.8796 0.0
H1206 H 0.06753 0.38637 0.89529 0.0
H1207 H 0.04061 0.51056 0.93064 0.0
H1208 H 0.0581 0.4953 0.89971 0.0
H1209 H 0.07206 0.44171 0.94315 0.0
H1210 H 0.05483 0.45712 0.97437 0.0
H1211 H 0.05166 0.42432 0.89799 0.0
H1212 H 0.1203 0.48704 0.93331 0.0
H1213 H 0.14099 0.52714 0.94761 0.0
H1214 H 0.12534 0.54991 0.87896 0.0
H1215 H 0.10421 0.50995 0.8643 0.0
C1216 C 0.12129 0.39952 0.82397 0.0
C1217 C 0.12659 0.41225 0.8043 0.0
C1218 C 0.11188 0.40824 0.84239 0.0
C1219 C 0.10678 0.42991 0.84182 0.0
C1220 C 0.11238 0.44277 0.8223 0.0
C1221 C 0.12212 0.43418 0.804 0.0
C1222 C 0.09597 0.4392 0.86144 0.0
C1223 C 0.10638 0.46215 0.87037 0.0
C1224 C 0.07574 0.42561 0.87177 0.0
C1225 C 0.06191 0.40202 0.86242 0.0
C1226 C 0.05093 0.39787 0.83889 0.0
C1227 C 0.03796 0.37557 0.83014 0.0
C1228 C 0.03566 0.3573 0.8448 0.0
C1229 C 0.04627 0.3613 0.86826 0.0
C1230 C 0.05928 0.38357 0.87709 0.0
C1231 C 0.04745 0.49556 0.93378 0.0
C1232 C 0.0462 0.48526 0.95535 0.0
C1233 C 0.0576 0.48681 0.91593 0.0
C1234 C 0.06675 0.46725 0.91876 0.0
C1235 C 0.06527 0.45677 0.94019 0.0
C1236 C 0.05543 0.46572 0.95822 0.0
C1237 C 0.07769 0.45783 0.89946 0.0
C1238 C 0.0673 0.4349 0.89065 0.0
C1239 C 0.09766 0.47151 0.88902 0.0
C1240 C 0.11046 0.49552 0.89775 0.0
C1241 C 0.12109 0.50061 0.92129 0.0
C1242 C 0.13293 0.52332 0.92946 0.0
C1243 C 0.13442 0.54107 0.91422 0.0
C1244 C 0.12414 0.53615 0.89075 0.0
C1245 C 0.11225 0.51347 0.8825 0.0
H1246 H 0.1436 0.55864 0.92057 0.0
H1247 H 0.02561 0.34005 0.83799 0.0
H1248 H 0.65187 0.83265 0.80181 0.0
H1249 H 0.63891 0.86094 0.82377 0.0
H1250 H 0.58468 0.80656 0.85023 0.0
H1251 H 0.5976 0.77795 0.82816 0.0
H1252 H 0.56803 0.84817 0.8358 0.0
H1253 H 0.63382 0.82496 0.88434 0.0
H1254 H 0.67515 0.81697 0.89301 0.0
H1255 H 0.71192 0.88699 0.88169 0.0
H1256 H 0.67074 0.89529 0.87258 0.0
H1257 H 0.55231 0.91574 0.93088 0.0
H1258 H 0.55792 0.88574 0.90546 0.0
H1259 H 0.62605 0.93197 0.88947 0.0
H1260 H 0.62144 0.96158 0.91598 0.0
H1261 H 0.63382 0.89256 0.89874 0.0
H1262 H 0.56924 0.91661 0.85024 0.0
H1263 H 0.52842 0.92542 0.84053 0.0
H1264 H 0.48975 0.85555 0.85035 0.0
H1265 H 0.53037 0.84638 0.86043 0.0
C1266 C 0.63681 0.82669 0.8119 0.0
C1267 C 0.62574 0.80309 0.8133 0.0
C1268 C 0.62951 0.84287 0.82449 0.0
C1269 C 0.61094 0.83577 0.83863 0.0
C1270 C 0.59902 0.8123 0.83933 0.0
C1271 C 0.60652 0.79603 0.82689 0.0
C1272 C 0.60562 0.85291 0.85402 0.0
C1273 C 0.5822 0.85771 0.8498 0.0
C1274 C 0.62439 0.86558 0.87188 0.0
C1275 C 0.64919 0.86068 0.87755 0.0
C1276 C 0.6507 0.8386 0.8835 0.0
C1277 C 0.6741 0.83403 0.88853 0.0
C1278 C 0.69614 0.85145 0.88784 0.0
C1279 C 0.69483 0.8735 0.88219 0.0
C1280 C 0.67147 0.87816 0.8771 0.0
C1281 C 0.56861 0.91949 0.92211 0.0
C1282 C 0.5865 0.94108 0.92561 0.0
C1283 C 0.57158 0.9024 0.90729 0.0
C1284 C 0.59225 0.90666 0.89533 0.0
C1285 C 0.60991 0.9283 0.89848 0.0
C1286 C 0.60711 0.94531 0.91349 0.0
C1287 C 0.59625 0.88827 0.88043 0.0
C1288 C 0.6195 0.88311 0.8848 0.0
C1289 C 0.57734 0.87546 0.86261 0.0
C1290 C 0.55287 0.88087 0.85632 0.0
C1291 C 0.55204 0.90316 0.85049 0.0
C1292 C 0.52894 0.90821 0.84489 0.0
C1293 C 0.50651 0.89107 0.84489 0.0
C1294 C 0.50714 0.86882 0.85039 0.0
C1295 C 0.5302 0.86367 0.85603 0.0
H1296 H 0.48866 0.89503 0.8406 0.0
H1297 H 0.71425 0.84787 0.89175 0.0
H1298 H 0.82329 0.14488 0.43358 0.0
H1299 H 0.85285 0.12377 0.45 0.0
H1300 H 0.90202 0.15219 0.40087 0.0
H1301 H 0.87208 0.17287 0.384 0.0
H1302 H 0.8971 0.10854 0.40189 0.0
H1303 H 0.91609 0.16945 0.46024 0.0
H1304 H 0.90761 0.1954 0.48914 0.0
H1305 H 0.87716 0.13781 0.52823 0.0
H1306 H 0.88513 0.11147 0.49938 0.0
H1307 H 0.99976 0.06958 0.45996 0.0
H1308 H 0.97365 0.09417 0.44403 0.0
H1309 H 0.91456 0.05858 0.48093 0.0
H1310 H 0.94035 0.03377 0.49674 0.0
H1311 H 0.92702 0.1075 0.48628 0.0
H1312 H 0.907 0.04688 0.42589 0.0
H1313 H 0.91717 0.02191 0.39712 0.0
H1314 H 0.95208 0.08108 0.36214 0.0
H1315 H 0.94243 0.10644 0.39093 0.0
C1316 C 0.84059 0.14688 0.42654 0.0
C1317 C 0.84545 0.16052 0.40756 0.0
C1318 C 0.85751 0.13486 0.43595 0.0
C1319 C 0.87984 0.13659 0.42686 0.0
C1320 C 0.88491 0.15056 0.40816 0.0
C1321 C 0.86784 0.16236 0.39855 0.0
C1322 C 0.8972 0.12288 0.43605 0.0
C1323 C 0.90397 0.10867 0.42032 0.0
C1324 C 0.90587 0.12267 0.46013 0.0
C1325 C 0.901 0.13846 0.47752 0.0
C1326 C 0.9074 0.1623 0.47489 0.0
C1327 C 0.90272 0.17708 0.49129 0.0
C1328 C 0.8918 0.16826 0.51048 0.0
C1329 C 0.88559 0.14463 0.51334 0.0
C1330 C 0.89021 0.12976 0.49698 0.0
C1331 C 0.98113 0.06688 0.46454 0.0
C1332 C 0.97206 0.0497 0.47953 0.0
C1333 C 0.96628 0.08093 0.45544 0.0
C1334 C 0.94223 0.07813 0.46134 0.0
C1335 C 0.93311 0.06099 0.47624 0.0
C1336 C 0.94781 0.04676 0.48512 0.0
C1337 C 0.92659 0.09321 0.45214 0.0
C1338 C 0.9202 0.10761 0.46786 0.0
C1339 C 0.91851 0.0938 0.42807 0.0
C1340 C 0.92425 0.07857 0.41071 0.0
C1341 C 0.91706 0.05458 0.41219 0.0
C1342 C 0.92268 0.04036 0.39585 0.0
C1343 C 0.93533 0.04991 0.37785 0.0
C1344 C 0.94232 0.07371 0.37611 0.0
C1345 C 0.93676 0.08802 0.39243 0.0
H1346 H 0.93966 0.03886 0.36521 0.0
H1347 H 0.8882 0.17973 0.52316 0.0
H1348 H 0.28651 0.59963 0.13524 0.0
H1349 H 0.24651 0.57902 0.11153 0.0
H1350 H 0.21464 0.63407 0.12693 0.0
H1351 H 0.25454 0.65478 0.15039 0.0
H1352 H 0.19902 0.562 0.11886 0.0
H1353 H 0.17756 0.64373 0.07984 0.0
H1354 H 0.20075 0.68225 0.07001 0.0
H1355 H 0.26456 0.65744 0.06258 0.0
H1356 H 0.24162 0.61871 0.07203 0.0
H1357 H 0.07098 0.53957 0.06756 0.0
H1358 H 0.11306 0.55404 0.09015 0.0
H1359 H 0.14412 0.56881 0.0267 0.0
H1360 H 0.10192 0.55507 1.00411 0.0
H1361 H 0.16283 0.60356 0.05598 0.0
H1362 H 0.15167 0.5233 0.05969 0.0
H1363 H 0.12904 0.48369 0.0663 0.0
H1364 H 0.13413 0.50202 0.13865 0.0
H1365 H 0.15613 0.54206 0.13235 0.0
C1366 C 0.27087 0.60721 0.13373 0.0
C1367 C 0.27374 0.62895 0.14444 0.0
C1368 C 0.24805 0.59542 0.1202 0.0
C1369 C 0.22771 0.60516 0.11715 0.0
C1370 C 0.23024 0.62644 0.12862 0.0
C1371 C 0.25306 0.63828 0.14198 0.0
C1372 C 0.20412 0.59364 0.10132 0.0
C1373 C 0.19109 0.57104 0.10509 0.0
C1374 C 0.19413 0.6052 0.08293 0.0
C1375 C 0.20793 0.62837 0.07685 0.0
C1376 C 0.19649 0.64647 0.076 0.0
C1377 C 0.2096 0.66835 0.07051 0.0
C1378 C 0.23414 0.67231 0.06574 0.0
C1379 C 0.24558 0.65437 0.06636 0.0
C1380 C 0.23254 0.63246 0.0718 0.0
C1381 C 0.08683 0.54578 0.05845 0.0
C1382 C 0.08323 0.54634 0.03411 0.0
C1383 C 0.11089 0.55393 0.07136 0.0
C1384 C 0.13184 0.56236 0.06014 0.0
C1385 C 0.12826 0.56246 0.03576 0.0
C1386 C 0.10417 0.55456 0.02287 0.0
C1387 C 0.15729 0.57209 0.07384 0.0
C1388 C 0.17073 0.59441 0.06967 0.0
C1389 C 0.16791 0.55999 0.0914 0.0
C1390 C 0.15539 0.53577 0.09549 0.0
C1391 C 0.14786 0.51894 0.077 0.0
C1392 C 0.13514 0.49638 0.0807 0.0
C1393 C 0.13019 0.49027 0.10289 0.0
C1394 C 0.13794 0.50677 0.12145 0.0
C1395 C 0.15055 0.52942 0.11783 0.0
H1396 H 0.1204 0.47276 0.10572 0.0
H1397 H 0.24426 0.68926 0.06153 0.0
H1398 H 0.27095 0.39421 0.62711 0.0
H1399 H 0.306 0.40958 0.60636 0.0
H1400 H 0.33216 0.46878 0.65451 0.0
H1401 H 0.29724 0.45315 0.67598 0.0
H1402 H 0.33605 0.48128 0.60943 0.0
H1403 H 0.36186 0.42606 0.65809 0.0
H1404 H 0.35786 0.38829 0.67481 0.0
H1405 H 0.35216 0.35693 0.60691 0.0
H1406 H 0.35578 0.39448 0.58973 0.0
H1407 H 0.45504 0.51987 0.56942 0.0
H1408 H 0.4208 0.50756 0.59213 0.0
H1409 H 0.39766 0.44119 0.55513 0.0
H1410 H 0.43267 0.4531 0.53323 0.0
H1411 H 0.39295 0.43347 0.59654 0.0
H1412 H 0.36529 0.4879 0.54725 0.0
H1413 H 0.36885 0.52542 0.53002 0.0
H1414 H 0.3772 0.55794 0.59783 0.0
H1415 H 0.37397 0.52064 0.6155 0.0
C1416 C 0.28422 0.41036 0.6337 0.0
C1417 C 0.28109 0.42204 0.65378 0.0
C1418 C 0.30439 0.41926 0.62158 0.0
C1419 C 0.32228 0.44029 0.62888 0.0
C1420 C 0.31884 0.45249 0.64839 0.0
C1421 C 0.29865 0.44349 0.66069 0.0
C1422 C 0.34454 0.44914 0.61626 0.0
C1423 C 0.34868 0.47092 0.60691 0.0
C1424 C 0.36097 0.43565 0.61232 0.0
C1425 C 0.35886 0.41306 0.6226 0.0
C1426 C 0.35956 0.41108 0.6467 0.0
C1427 C 0.3574 0.38972 0.65627 0.0
C1428 C 0.3547 0.37021 0.64193 0.0
C1429 C 0.35422 0.37205 0.61799 0.0
C1430 C 0.35635 0.39337 0.60834 0.0
C1431 C 0.44258 0.50268 0.56596 0.0
C1432 C 0.44678 0.4876 0.54924 0.0
C1433 C 0.42272 0.49562 0.57896 0.0
C1434 C 0.40586 0.47342 0.57533 0.0
C1435 C 0.41007 0.4584 0.55855 0.0
C1436 C 0.4302 0.46531 0.54585 0.0
C1437 C 0.38437 0.46556 0.58923 0.0
C1438 C 0.38037 0.44391 0.59893 0.0
C1439 C 0.36798 0.47914 0.59331 0.0
C1440 C 0.36963 0.50152 0.58271 0.0
C1441 C 0.36802 0.50307 0.5585 0.0
C1442 C 0.36997 0.5243 0.54865 0.0
C1443 C 0.37333 0.54406 0.56283 0.0
C1444 C 0.37463 0.54262 0.58688 0.0
C1445 C 0.37272 0.52144 0.59681 0.0
H1446 H 0.37487 0.56048 0.55518 0.0
H1447 H 0.35303 0.35369 0.64937 0.0
H1448 H 0.73464 0.65841 0.86307 0.0
H1449 H 0.76326 0.64146 0.88851 0.0
H1450 H 0.82097 0.66639 0.8462 0.0
H1451 H 0.79284 0.68354 0.82106 0.0
H1452 H 0.81541 0.6216 0.85494 0.0
H1453 H 0.82307 0.69277 0.89822 0.0
H1454 H 0.80717 0.7206 0.91858 0.0
H1455 H 0.77953 0.66978 0.96598 0.0
H1456 H 0.79499 0.64155 0.94568 0.0
H1457 H 0.93007 0.61954 0.91782 0.0
H1458 H 0.8951 0.6332 0.89935 0.0
H1459 H 0.84937 0.59943 0.9489 0.0
H1460 H 0.88477 0.58608 0.96804 0.0
H1461 H 0.84367 0.64362 0.93895 0.0
H1462 H 0.84005 0.57367 0.89791 0.0
H1463 H 0.85701 0.5464 0.87794 0.0
H1464 H 0.87709 0.59497 0.82632 0.0
H1465 H 0.86059 0.62269 0.84619 0.0
C1466 C 0.7535 0.66041 0.85932 0.0
C1467 C 0.76137 0.67213 0.8399 0.0
C1468 C 0.76979 0.6507 0.87384 0.0
C1469 C 0.79422 0.65268 0.86921 0.0
C1470 C 0.80212 0.6645 0.84996 0.0
C1471 C 0.78595 0.67419 0.83553 0.0
C1472 C 0.8117 0.6422 0.88399 0.0
C1473 C 0.82166 0.6265 0.87328 0.0
C1474 C 0.81921 0.64802 0.90809 0.0
C1475 C 0.80989 0.66497 0.92025 0.0
C1476 C 0.81339 0.68747 0.91285 0.0
C1477 C 0.8045 0.70333 0.9244 0.0
C1478 C 0.79227 0.69694 0.94351 0.0
C1479 C 0.78896 0.67469 0.95114 0.0
C1480 C 0.79779 0.65876 0.93963 0.0
C1481 C 0.91279 0.61537 0.92515 0.0
C1482 C 0.91021 0.6017 0.94442 0.0
C1483 C 0.89273 0.62302 0.91442 0.0
C1484 C 0.86958 0.61705 0.92258 0.0
C1485 C 0.86709 0.60412 0.9423 0.0
C1486 C 0.88723 0.59638 0.95309 0.0
C1487 C 0.84789 0.62365 0.90967 0.0
C1488 C 0.83709 0.63847 0.9207 0.0
C1489 C 0.83953 0.61704 0.88583 0.0
C1490 C 0.84921 0.60031 0.87364 0.0
C1491 C 0.84823 0.5786 0.88239 0.0
C1492 C 0.85774 0.56305 0.87107 0.0
C1493 C 0.86816 0.56896 0.85089 0.0
C1494 C 0.86902 0.59042 0.84195 0.0
C1495 C 0.85956 0.60604 0.85322 0.0
H1496 H 0.87553 0.55691 0.84216 0.0
H1497 H 0.78541 0.70924 0.95245 0.0
H1498 H 0.41427 0.79371 0.13446 0.0
H1499 H 0.43024 0.82797 0.11408 0.0
H1500 H 0.49464 0.84975 0.16811 0.0
H1501 H 0.47795 0.81592 0.18948 0.0
H1502 H 0.47821 0.8855 0.15535 0.0
H1503 H 0.49841 0.82567 0.11447 0.0
H1504 H 0.49064 0.78795 0.09385 0.0
H1505 H 0.43728 0.80539 0.04136 0.0
H1506 H 0.44446 0.84311 0.06184 0.0
H1507 H 0.54734 0.9682 0.08488 0.0
H1508 H 0.53368 0.9352 0.10838 0.0
H1509 H 0.46274 0.91381 0.06235 0.0
H1510 H 0.4762 0.94685 0.03893 0.0
H1511 H 0.48509 0.87815 0.0718 0.0
H1512 H 0.46481 0.93795 0.11396 0.0
H1513 H 0.4739 0.97589 0.13451 0.0
H1514 H 0.52953 0.95853 0.18461 0.0
H1515 H 0.52103 0.92058 0.16413 0.0
C1516 C 0.43165 0.80589 0.14232 0.0
C1517 C 0.4447 0.80196 0.16379 0.0
C1518 C 0.44098 0.82539 0.13039 0.0
C1519 C 0.46391 0.84134 0.13929 0.0
C1520 C 0.47697 0.83766 0.16079 0.0
C1521 C 0.4675 0.81816 0.1729 0.0
C1522 C 0.47399 0.86183 0.12608 0.0
C1523 C 0.48011 0.88384 0.13719 0.0
C1524 C 0.47613 0.85981 0.10223 0.0
C1525 C 0.47182 0.83716 0.08981 0.0
C1526 C 0.48488 0.8214 0.09862 0.0
C1527 C 0.48061 0.80003 0.08694 0.0
C1528 C 0.46344 0.79426 0.06633 0.0
C1529 C 0.45056 0.80988 0.05733 0.0
C1530 C 0.45474 0.83127 0.06896 0.0
C1531 C 0.52879 0.95651 0.07985 0.0
C1532 C 0.51285 0.96008 0.06006 0.0
C1533 C 0.52099 0.9377 0.09331 0.0
C1534 C 0.49716 0.92206 0.08716 0.0
C1535 C 0.48121 0.92564 0.06741 0.0
C1536 C 0.48889 0.94456 0.05409 0.0
C1537 C 0.489 0.9017 0.10101 0.0
C1538 C 0.48329 0.87974 0.09 0.0
C1539 C 0.48746 0.90378 0.12495 0.0
C1540 C 0.49248 0.92652 0.13737 0.0
C1541 C 0.47914 0.94229 0.12924 0.0
C1542 C 0.48415 0.96379 0.1409 0.0
C1543 C 0.50234 0.96964 0.16082 0.0
C1544 C 0.51548 0.95398 0.16916 0.0
C1545 C 0.51056 0.93248 0.15754 0.0
H1546 H 0.50619 0.98629 0.16982 0.0
H1547 H 0.46016 0.7777 0.05732 0.0
H1548 H 0.11364 0.23237 0.68469 0.0
H1549 H 0.09806 0.19419 0.66457 0.0
H1550 H 0.09994 0.22514 0.59849 0.0
H1551 H 0.1149 0.26327 0.61842 0.0
H1552 H 0.05866 0.19014 0.59541 0.0
H1553 H 0.14633 0.19986 0.62303 0.0
H1554 H 0.18473 0.20782 0.65227 0.0
H1555 H 0.15048 0.15051 0.68998 0.0
H1556 H 0.11173 0.14239 0.66111 0.0
H1557 H 0.04633 0.08684 0.52706 0.0
H1558 H 0.06146 0.1257 0.54594 0.0
H1559 H 0.06587 0.09671 0.61311 0.0
H1560 H 0.05162 0.05811 0.59432 0.0
H1561 H 0.10424 0.13127 0.61504 0.0
H1562 H 0.01633 0.12156 0.58785 0.0
H1563 H 0.97786 0.11338 0.55867 0.0
H1564 H 1.01196 0.17031 0.52044 0.0
H1565 H 0.05078 0.17865 0.54924 0.0
C1566 C 0.11048 0.23114 0.66587 0.0
C1567 C 0.11587 0.25119 0.65335 0.0
C1568 C 0.10175 0.20916 0.6543 0.0
C1569 C 0.09809 0.20645 0.62982 0.0
C1570 C 0.10265 0.22647 0.61731 0.0
C1571 C 0.11147 0.2484 0.62884 0.0
C1572 C 0.08996 0.18294 0.61726 0.0
C1573 C 0.06885 0.17739 0.59958 0.0
C1574 C 0.10277 0.16587 0.6227 0.0
C1575 C 0.12605 0.17067 0.64004 0.0
C1576 C 0.14692 0.18906 0.63765 0.0
C1577 C 0.16876 0.19359 0.65414 0.0
C1578 C 0.17002 0.17972 0.673 0.0
C1579 C 0.14946 0.16126 0.67538 0.0
C1580 C 0.12757 0.15668 0.65895 0.0
C1581 C 0.05067 0.08877 0.54585 0.0
C1582 C 0.04761 0.0692 0.55909 0.0
C1583 C 0.05916 0.11109 0.55672 0.0
C1584 C 0.06451 0.11452 0.58119 0.0
C1585 C 0.06194 0.09489 0.5943 0.0
C1586 C 0.05368 0.07267 0.58347 0.0
C1587 C 0.07275 0.1383 0.59328 0.0
C1588 C 0.09396 0.14395 0.61087 0.0
C1589 C 0.05995 0.15541 0.58779 0.0
C1590 C 0.03655 0.15058 0.57058 0.0
C1591 C 0.01568 0.13225 0.57314 0.0
C1592 C 0.99381 0.12759 0.55668 0.0
C1593 C 0.99249 0.14128 0.53768 0.0
C1594 C 0.01302 0.1597 0.53515 0.0
C1595 C 0.03496 0.16441 0.55154 0.0
H1596 H 0.97554 0.13763 0.52494 0.0
H1597 H 0.18694 0.18325 0.68575 0.0
H1598 H 0.69216 0.30473 0.3778 0.0
H1599 H 0.67324 0.33129 0.39529 0.0
H1600 H 0.69707 0.31045 0.46348 0.0
H1601 H 0.71501 0.28281 0.44588 0.0
H1602 H 0.64979 0.31052 0.45898 0.0
H1603 H 0.72441 0.36468 0.44504 0.0
H1604 H 0.75758 0.38397 0.42278 0.0
H1605 H 0.70293 0.40436 0.37415 0.0
H1606 H 0.66935 0.38492 0.39591 0.0
H1607 H 0.59985 0.39525 0.5065 0.0
H1608 H 0.63109 0.37586 0.49778 0.0
H1609 H 0.60788 0.38017 0.4244 0.0
H1610 H 0.57679 0.39966 0.43298 0.0
H1611 H 0.66027 0.3912 0.43744 0.0
H1612 H 0.58565 0.33194 0.44854 0.0
H1613 H 0.5524 0.31244 0.47064 0.0
H1614 H 0.60831 0.30207 0.52524 0.0
H1615 H 0.64192 0.32181 0.50357 0.0
C1616 C 0.69339 0.30575 0.39653 0.0
C1617 C 0.70489 0.29148 0.41042 0.0
C1618 C 0.68287 0.32122 0.40655 0.0
C1619 C 0.68401 0.32312 0.43074 0.0
C1620 C 0.69608 0.30935 0.44477 0.0
C1621 C 0.70649 0.29369 0.43471 0.0
C1622 C 0.67086 0.3382 0.441 0.0
C1623 C 0.65257 0.32833 0.45474 0.0
C1624 C 0.67415 0.36135 0.43517 0.0
C1625 C 0.69432 0.37322 0.42207 0.0
C1626 C 0.71943 0.37315 0.42952 0.0
C1627 C 0.73831 0.38413 0.417 0.0
C1628 C 0.73236 0.39535 0.39705 0.0
C1629 C 0.70751 0.39566 0.38961 0.0
C1630 C 0.68855 0.3847 0.40206 0.0
C1631 C 0.60164 0.39227 0.48853 0.0
C1632 C 0.58582 0.39879 0.47039 0.0
C1633 C 0.61939 0.38114 0.48359 0.0
C1634 C 0.62165 0.37651 0.46046 0.0
C1635 C 0.6064 0.38362 0.44236 0.0
C1636 C 0.58854 0.39455 0.44727 0.0
C1637 C 0.63904 0.36331 0.45491 0.0
C1638 C 0.65801 0.37353 0.44205 0.0
C1639 C 0.63648 0.34054 0.46161 0.0
C1640 C 0.61629 0.3286 0.47458 0.0
C1641 C 0.59086 0.32568 0.46535 0.0
C1642 C 0.57195 0.31455 0.47778 0.0
C1643 C 0.57824 0.30609 0.49937 0.0
C1644 C 0.60346 0.30868 0.50854 0.0
C1645 C 0.62245 0.31983 0.49619 0.0
H1646 H 0.56358 0.29747 0.50896 0.0
H1647 H 0.74701 0.40384 0.38737 0.0
loop_
_geom_bond_atom_site_label_1
_geom_bond_atom_site_label_2
_geom_bond_distance
_geom_bond_site_symmetry_2
_ccdc_geom_bond_type
C0 C1 1.384 . S
C0 H13 0.947 . S
C0 C35 1.382 . S
C1 C0 1.384 . S
C1 C2 1.378 . S
C2 C1 1.378 . S
C2 C3 1.378 . S
C2 H14 0.952 . S
C3 C2 1.378 . S
C3 H15 0.950 . S
C3 C34 1.383 . S
H4 C23 0.947 . S
H5 C24 0.946 . S
H6 C26 0.953 . S
H7 C27 0.945 . S
H8 C29 0.952 . S
H9 C30 0.949 . S
H10 C32 0.950 . S
H11 C33 0.948 . S
H12 C35 0.951 . S
H13 C0 0.947 . S
H14 C2 0.952 . S
H15 C3 0.950 . S
N16 C19 1.382 . S
N16 C21 1.363 . S
N17 C19 1.371 . S
N17 C20 1.372 . S
N18 C20 1.361 . S
N18 C21 1.377 . S
C19 N16 1.382 . S
C19 N17 1.371 . S
C19 C22 1.480 . S
C20 N17 1.372 . S
C20 N18 1.361 . S
C20 C28 1.457 . S
C21 N16 1.363 . S
C21 N18 1.377 . S
C21 C34 1.479 . S
C22 C19 1.480 . S
C22 C23 1.383 . S
C22 C27 1.385 . S
C23 H4 0.947 . S
C23 C22 1.383 . S
C23 C24 1.388 . S
C24 H5 0.946 . S
C24 C23 1.388 . S
C24 C25 1.384 . S
C25 C24 1.384 . S
C25 C26 1.377 . S
C26 H6 0.953 . S
C26 C25 1.377 . S
C26 C27 1.369 . S
C27 H7 0.945 . S
C27 C22 1.385 . S
C27 C26 1.369 . S
C28 C20 1.457 . S
C28 C29 1.372 . S
C28 C33 1.364 . S
C29 H8 0.952 . S
C29 C28 1.372 . S
C29 C30 1.389 . S
C30 H9 0.949 . S
C30 C29 1.389 . S
C30 C31 1.387 . S
C31 C30 1.387 . S
C31 C32 1.372 . S
C32 H10 0.950 . S
C32 C31 1.372 . S
C32 C33 1.379 . S
C33 H11 0.948 . S
C33 C28 1.364 . S
C33 C32 1.379 . S
C34 C3 1.383 . S
C34 C21 1.479 . S
C34 C35 1.398 . S
C35 C0 1.382 . S
C35 H12 0.951 . S
C35 C34 1.398 . S
C36 C37 1.384 . S
C36 H49 0.947 . S
C36 C71 1.382 . S
C37 C36 1.384 . S
C37 C38 1.378 . S
C38 C37 1.378 . S
C38 C39 1.378 . S
C38 H50 0.952 . S
C39 C38 1.378 . S
C39 H51 0.950 . S
C39 C70 1.383 . S
H40 C59 0.947 . S
H41 C60 0.946 . S
H42 C62 0.953 . S
H43 C63 0.945 . S
H44 C65 0.952 . S
H45 C66 0.949 . S
H46 C68 0.950 . S
H47 C69 0.948 . S
H48 C71 0.951 . S
H49 C36 0.947 . S
H50 C38 0.952 . S
H51 C39 0.950 . S
N52 C55 1.382 . S
N52 C57 1.363 . S
N53 C55 1.371 . S
N53 C56 1.372 . S
N54 C56 1.361 . S
N54 C57 1.377 . S
C55 N52 1.382 . S
C55 N53 1.371 . S
C55 C58 1.480 . S
C56 N53 1.372 . S
C56 N54 1.361 . S
C56 C64 1.457 . S
C57 N52 1.363 . S
C57 N54 1.377 . S
C57 C70 1.479 . S
C58 C55 1.480 . S
C58 C59 1.383 . S
C58 C63 1.385 . S
C59 H40 0.947 . S
C59 C58 1.383 . S
C59 C60 1.388 . S
C60 H41 0.946 . S
C60 C59 1.388 . S
C60 C61 1.384 . S
C61 C60 1.384 . S
C61 C62 1.377 . S
C62 H42 0.953 . S
C62 C61 1.377 . S
C62 C63 1.369 . S
C63 H43 0.945 . S
C63 C58 1.385 . S
C63 C62 1.369 . S
C64 C56 1.457 . S
C64 C65 1.372 . S
C64 C69 1.364 . S
C65 H44 0.952 . S
C65 C64 1.372 . S
C65 C66 1.389 . S
C66 H45 0.949 . S
C66 C65 1.389 . S
C66 C67 1.387 . S
C67 C66 1.387 . S
C67 C68 1.372 . S
C68 H46 0.950 . S
C68 C67 1.372 . S
C68 C69 1.379 . S
C69 H47 0.948 . S
C69 C64 1.364 . S
C69 C68 1.379 . S
C70 C39 1.383 . S
C70 C57 1.479 . S
C70 C71 1.398 . S
C71 C36 1.382 . S
C71 H48 0.951 . S
C71 C70 1.398 . S
C72 C73 1.384 . S
C72 H85 0.947 . S
C72 C107 1.382 . S
C73 C72 1.384 . S
C73 C74 1.378 . S
C74 C73 1.378 . S
C74 C75 1.378 . S
C74 H86 0.952 . S
C75 C74 1.378 . S
C75 H87 0.950 . S
C75 C106 1.383 . S
H76 C95 0.947 . S
H77 C96 0.946 . S
H78 C98 0.953 . S
H79 C99 0.945 . S
H80 C101 0.952 . S
H81 C102 0.949 . S
H82 C104 0.950 . S
H83 C105 0.948 . S
H84 C107 0.951 . S
H85 C72 0.947 . S
H86 C74 0.952 . S
H87 C75 0.950 . S
N88 C91 1.382 . S
N88 C93 1.363 . S
N89 C91 1.371 . S
N89 C92 1.372 . S
N90 C92 1.361 . S
N90 C93 1.377 . S
C91 N88 1.382 . S
C91 N89 1.371 . S
C91 C94 1.480 . S
C92 N89 1.372 . S
C92 N90 1.361 . S
C92 C100 1.457 . S
C93 N88 1.363 . S
C93 N90 1.377 . S
C93 C106 1.479 . S
C94 C91 1.480 . S
C94 C95 1.383 . S
C94 C99 1.385 . S
C95 H76 0.947 . S
C95 C94 1.383 . S
C95 C96 1.388 . S
C96 H77 0.946 . S
C96 C95 1.388 . S
C96 C97 1.384 . S
C97 C96 1.384 . S
C97 C98 1.377 . S
C98 H78 0.953 . S
C98 C97 1.377 . S
C98 C99 1.369 . S
C99 H79 0.945 . S
C99 C94 1.385 . S
C99 C98 1.369 . S
C100 C92 1.457 . S
C100 C101 1.372 . S
C100 C105 1.364 . S
C101 H80 0.952 . S
C101 C100 1.372 . S
C101 C102 1.389 . S
C102 H81 0.949 . S
C102 C101 1.389 . S
C102 C103 1.387 . S
C103 C102 1.387 . S
C103 C104 1.372 . S
C104 H82 0.950 . S
C104 C103 1.372 . S
C104 C105 1.379 . S
C105 H83 0.948 . S
C105 C100 1.364 . S
C105 C104 1.379 . S
C106 C75 1.383 . S
C106 C93 1.479 . S
C106 C107 1.398 . S
C107 C72 1.382 . S
C107 H84 0.951 . S
C107 C106 1.398 . S
C108 C109 1.384 . S
C108 H121 0.947 . S
C108 C143 1.382 . S
C109 C108 1.384 . S
C109 C110 1.378 . S
C110 C109 1.378 . S
C110 C111 1.378 . S
C110 H122 0.952 . S
C111 C110 1.378 . S
C111 H123 0.950 . S
C111 C142 1.383 . S
H112 C131 0.947 . S
H113 C132 0.946 . S
H114 C134 0.953 . S
H115 C135 0.945 . S
H116 C137 0.952 . S
H117 C138 0.949 . S
H118 C140 0.950 . S
H119 C141 0.948 . S
H120 C143 0.951 . S
H121 C108 0.947 . S
H122 C110 0.952 . S
H123 C111 0.950 . S
N124 C127 1.382 . S
N124 C129 1.363 . S
N125 C127 1.371 . S
N125 C128 1.372 . S
N126 C128 1.361 . S
N126 C129 1.377 . S
C127 N124 1.382 . S
C127 N125 1.371 . S
C127 C130 1.480 . S
C128 N125 1.372 . S
C128 N126 1.361 . S
C128 C136 1.457 . S
C129 N124 1.363 . S
C129 N126 1.377 . S
C129 C142 1.479 . S
C130 C127 1.480 . S
C130 C131 1.383 . S
C130 C135 1.385 . S
C131 H112 0.947 . S
C131 C130 1.383 . S
C131 C132 1.388 . S
C132 H113 0.946 . S
C132 C131 1.388 . S
C132 C133 1.384 . S
C133 C132 1.384 . S
C133 C134 1.377 . S
C134 H114 0.953 . S
C134 C133 1.377 . S
C134 C135 1.369 . S
C135 H115 0.945 . S
C135 C130 1.385 . S
C135 C134 1.369 . S
C136 C128 1.457 . S
C136 C137 1.372 . S
C136 C141 1.364 . S
C137 H116 0.952 . S
C137 C136 1.372 . S
C137 C138 1.389 . S
C138 H117 0.949 . S
C138 C137 1.389 . S
C138 C139 1.387 . S
C139 C138 1.387 . S
C139 C140 1.372 . S
C140 H118 0.950 . S
C140 C139 1.372 . S
C140 C141 1.379 . S
C141 H119 0.948 . S
C141 C136 1.364 . S
C141 C140 1.379 . S
C142 C111 1.383 . S
C142 C129 1.479 . S
C142 C143 1.398 . S
C143 C108 1.382 . S
C143 H120 0.951 . S
C143 C142 1.398 . S
C144 C145 1.384 . S
C144 H157 0.947 . S
C144 C179 1.382 . S
C145 C144 1.384 . S
C145 C146 1.378 . S
C146 C145 1.378 . S
C146 C147 1.378 . S
C146 H158 0.952 . S
C147 C146 1.378 . S
C147 H159 0.950 . S
C147 C178 1.383 . S
H148 C167 0.947 . S
H149 C168 0.946 . S
H150 C170 0.953 . S
H151 C171 0.945 . S
H152 C173 0.952 . S
H153 C174 0.949 . S
H154 C176 0.950 . S
H155 C177 0.948 . S
H156 C179 0.951 . S
H157 C144 0.947 . S
H158 C146 0.952 . S
H159 C147 0.950 . S
N160 C163 1.382 . S
N160 C165 1.363 . S
N161 C163 1.371 . S
N161 C164 1.372 . S
N162 C164 1.361 . S
N162 C165 1.377 . S
C163 N160 1.382 . S
C163 N161 1.371 . S
C163 C166 1.480 . S
C164 N161 1.372 . S
C164 N162 1.361 . S
C164 C172 1.457 . S
C165 N160 1.363 . S
C165 N162 1.377 . S
C165 C178 1.479 . S
C166 C163 1.480 . S
C166 C167 1.383 . S
C166 C171 1.385 . S
C167 H148 0.947 . S
C167 C166 1.383 . S
C167 C168 1.388 . S
C168 H149 0.946 . S
C168 C167 1.388 . S
C168 C169 1.384 . S
C169 C168 1.384 . S
C169 C170 1.377 . S
C170 H150 0.953 . S
C170 C169 1.377 . S
C170 C171 1.369 . S
C171 H151 0.945 . S
C171 C166 1.385 . S
C171 C170 1.369 . S
C172 C164 1.457 . S
C172 C173 1.372 . S
C172 C177 1.364 . S
C173 H152 0.952 . S
C173 C172 1.372 . S
C173 C174 1.389 . S
C174 H153 0.949 . S
C174 C173 1.389 . S
C174 C175 1.387 . S
C175 C174 1.387 . S
C175 C176 1.372 . S
C176 H154 0.950 . S
C176 C175 1.372 . S
C176 C177 1.379 . S
C177 H155 0.948 . S
C177 C172 1.364 . S
C177 C176 1.379 . S
C178 C147 1.383 . S
C178 C165 1.479 . S
C178 C179 1.398 . S
C179 C144 1.382 . S
C179 H156 0.951 . S
C179 C178 1.398 . S
C180 C181 1.384 . S
C180 H193 0.947 . S
C180 C215 1.382 . S
C181 C180 1.384 . S
C181 C182 1.378 . S
C182 C181 1.378 . S
C182 C183 1.378 . S
C182 H194 0.952 . S
C183 C182 1.378 . S
C183 H195 0.950 . S
C183 C214 1.383 . S
H184 C203 0.947 . S
H185 C204 0.946 . S
H186 C206 0.953 . S
H187 C207 0.945 . S
H188 C209 0.952 . S
H189 C210 0.949 . S
H190 C212 0.950 . S
H191 C213 0.948 . S
H192 C215 0.951 . S
H193 C180 0.947 . S
H194 C182 0.952 . S
H195 C183 0.950 . S
N196 C199 1.382 . S
N196 C201 1.363 . S
N197 C199 1.371 . S
N197 C200 1.372 . S
N198 C200 1.361 . S
N198 C201 1.377 . S
C199 N196 1.382 . S
C199 N197 1.371 . S
C199 C202 1.480 . S
C200 N197 1.372 . S
C200 N198 1.361 . S
C200 C208 1.457 . S
C201 N196 1.363 . S
C201 N198 1.377 . S
C201 C214 1.479 . S
C202 C199 1.480 . S
C202 C203 1.383 . S
C202 C207 1.385 . S
C203 H184 0.947 . S
C203 C202 1.383 . S
C203 C204 1.388 . S
C204 H185 0.946 . S
C204 C203 1.388 . S
C204 C205 1.384 . S
C205 C204 1.384 . S
C205 C206 1.377 . S
C206 H186 0.953 . S
C206 C205 1.377 . S
C206 C207 1.369 . S
C207 H187 0.945 . S
C207 C202 1.385 . S
C207 C206 1.369 . S
C208 C200 1.457 . S
C208 C209 1.372 . S
C208 C213 1.364 . S
C209 H188 0.952 . S
C209 C208 1.372 . S
C209 C210 1.389 . S
C210 H189 0.949 . S
C210 C209 1.389 . S
C210 C211 1.387 . S
C211 C210 1.387 . S
C211 C212 1.372 . S
C212 H190 0.950 . S
C212 C211 1.372 . S
C212 C213 1.379 . S
C213 H191 0.948 . S
C213 C208 1.364 . S
C213 C212 1.379 . S
C214 C183 1.383 . S
C214 C201 1.479 . S
C214 C215 1.398 . S
C215 C180 1.382 . S
C215 H192 0.951 . S
C215 C214 1.398 . S
C216 C217 1.384 . S
C216 H229 0.947 . S
C216 C251 1.382 . S
C217 C216 1.384 . S
C217 C218 1.378 . S
C218 C217 1.378 . S
C218 C219 1.378 . S
C218 H230 0.952 . S
C219 C218 1.378 . S
C219 H231 0.950 . S
C219 C250 1.383 . S
H220 C239 0.947 . S
H221 C240 0.946 . S
H222 C242 0.953 . S
H223 C243 0.945 . S
H224 C245 0.952 . S
H225 C246 0.949 . S
H226 C248 0.950 . S
H227 C249 0.948 . S
H228 C251 0.951 . S
H229 C216 0.947 . S
H230 C218 0.952 . S
H231 C219 0.950 . S
N232 C235 1.382 . S
N232 C237 1.363 . S
N233 C235 1.371 . S
N233 C236 1.372 . S
N234 C236 1.361 . S
N234 C237 1.377 . S
C235 N232 1.382 . S
C235 N233 1.371 . S
C235 C238 1.480 . S
C236 N233 1.372 . S
C236 N234 1.361 . S
C236 C244 1.457 . S
C237 N232 1.363 . S
C237 N234 1.377 . S
C237 C250 1.479 . S
C238 C235 1.480 . S
C238 C239 1.383 . S
C238 C243 1.385 . S
C239 H220 0.947 . S
C239 C238 1.383 . S
C239 C240 1.388 . S
C240 H221 0.946 . S
C240 C239 1.388 . S
C240 C241 1.384 . S
C241 C240 1.384 . S
C241 C242 1.377 . S
C242 H222 0.953 . S
C242 C241 1.377 . S
C242 C243 1.369 . S
C243 H223 0.945 . S
C243 C238 1.385 . S
C243 C242 1.369 . S
C244 C236 1.457 . S
C244 C245 1.372 . S
C244 C249 1.364 . S
C245 H224 0.952 . S
C245 C244 1.372 . S
C245 C246 1.389 . S
C246 H225 0.949 . S
C246 C245 1.389 . S
C246 C247 1.387 . S
C247 C246 1.387 . S
C247 C248 1.372 . S
C248 H226 0.950 . S
C248 C247 1.372 . S
C248 C249 1.379 . S
C249 H227 0.948 . S
C249 C244 1.364 . S
C249 C248 1.379 . S
C250 C219 1.383 . S
C250 C237 1.479 . S
C250 C251 1.398 . S
C251 C216 1.382 . S
C251 H228 0.951 . S
C251 C250 1.398 . S
C252 C253 1.384 . S
C252 H265 0.947 . S
C252 C287 1.382 . S
C253 C252 1.384 . S
C253 C254 1.378 . S
C254 C253 1.378 . S
C254 C255 1.378 . S
C254 H266 0.952 . S
C255 C254 1.378 . S
C255 H267 0.950 . S
C255 C286 1.383 . S
H256 C275 0.947 . S
H257 C276 0.946 . S
H258 C278 0.953 . S
H259 C279 0.945 . S
H260 C281 0.952 . S
H261 C282 0.949 . S
H262 C284 0.950 . S
H263 C285 0.948 . S
H264 C287 0.951 . S
H265 C252 0.947 . S
H266 C254 0.952 . S
H267 C255 0.950 . S
N268 C271 1.382 . S
N268 C273 1.363 . S
N269 C271 1.371 . S
N269 C272 1.372 . S
N270 C272 1.361 . S
N270 C273 1.377 . S
C271 N268 1.382 . S
C271 N269 1.371 . S
C271 C274 1.480 . S
C272 N269 1.372 . S
C272 N270 1.361 . S
C272 C280 1.457 . S
C273 N268 1.363 . S
C273 N270 1.377 . S
C273 C286 1.479 . S
C274 C271 1.480 . S
C274 C275 1.383 . S
C274 C279 1.385 . S
C275 H256 0.947 . S
C275 C274 1.383 . S
C275 C276 1.388 . S
C276 H257 0.946 . S
C276 C275 1.388 . S
C276 C277 1.384 . S
C277 C276 1.384 . S
C277 C278 1.377 . S
C278 H258 0.953 . S
C278 C277 1.377 . S
C278 C279 1.369 . S
C279 H259 0.945 . S
C279 C274 1.385 . S
C279 C278 1.369 . S
C280 C272 1.457 . S
C280 C281 1.372 . S
C280 C285 1.364 . S
C281 H260 0.952 . S
C281 C280 1.372 . S
C281 C282 1.389 . S
C282 H261 0.949 . S
C282 C281 1.389 . S
C282 C283 1.387 . S
C283 C282 1.387 . S
C283 C284 1.372 . S
C284 H262 0.950 . S
C284 C283 1.372 . S
C284 C285 1.379 . S
C285 H263 0.948 . S
C285 C280 1.364 . S
C285 C284 1.379 . S
C286 C255 1.383 . S
C286 C273 1.479 . S
C286 C287 1.398 . S
C287 C252 1.382 . S
C287 H264 0.951 . S
C287 C286 1.398 . S
Pr288 C290 2.880 . S
Pr288 O308 2.562 . S
Pr288 O309 2.490 . S
Pr288 O310 2.695 1_665 S
Pr288 O311 2.512 1_665 S
Pr288 O313 2.437 1_655 S
Pr288 O316 2.436 . S
Pr288 O318 2.438 1_565 S
Pr289 C299 2.880 . S
Pr289 O310 2.436 . S
Pr289 O312 2.438 1_545 S
Pr289 O314 2.562 . S
Pr289 O315 2.490 . S
Pr289 O316 2.695 1_445 S
Pr289 O317 2.504 1_445 S
Pr289 O319 2.437 1_455 S
C290 Pr288 2.880 . S
C290 C291 1.491 . S
C290 O308 1.254 . S
C290 O309 1.225 . S
C291 C290 1.491 . S
C291 C292 1.392 . S
C291 C296 1.356 . S
C292 C291 1.392 . S
C292 C293 1.368 . S
C292 H320 0.929 . S
C293 C292 1.368 . S
C293 C294 1.386 . S
C293 H321 0.929 . S
C294 C293 1.386 . S
C294 C295 1.373 . S
C295 C294 1.373 . S
C295 C296 1.409 . S
C295 H322 0.931 . S
C296 C291 1.356 . S
C296 C295 1.409 . S
C296 H323 0.930 . S
C297 O310 1.270 . S
C297 O311 1.248 . S
C298 O312 1.267 . S
C298 O313 1.278 . S
C299 Pr289 2.880 . S
C299 C300 1.491 . S
C299 O314 1.254 . S
C299 O315 1.225 . S
C300 C299 1.491 . S
C300 C301 1.392 . S
C300 C305 1.356 . S
C301 C300 1.392 . S
C301 C302 1.368 . S
C301 H324 0.929 . S
C302 C301 1.368 . S
C302 C303 1.386 . S
C302 H325 0.929 . S
C303 C302 1.386 . S
C303 C304 1.373 . S
C304 C303 1.373 . S
C304 C305 1.409 . S
C304 H326 0.931 . S
C305 C300 1.356 . S
C305 C304 1.409 . S
C305 H327 0.930 . S
C306 O316 1.270 . S
C306 O317 1.267 . S
C307 O318 1.267 . S
C307 O319 1.278 . S
O308 Pr288 2.562 . S
O308 C290 1.254 . S
O309 Pr288 2.490 . S
O309 C290 1.225 . S
O310 Pr288 2.695 1_445 S
O310 Pr289 2.436 . S
O310 C297 1.270 . S
O311 Pr288 2.512 1_445 S
O311 C297 1.248 . S
O312 Pr289 2.438 1_565 S
O312 C298 1.267 . S
O313 Pr288 2.437 1_455 S
O313 C298 1.278 . S
O314 Pr289 2.562 . S
O314 C299 1.254 . S
O315 Pr289 2.490 . S
O315 C299 1.225 . S
O316 Pr288 2.436 . S
O316 Pr289 2.695 1_665 S
O316 C306 1.270 . S
O317 Pr289 2.504 1_665 S
O317 C306 1.267 . S
O318 Pr288 2.438 1_545 S
O318 C307 1.267 . S
O319 Pr289 2.437 1_655 S
O319 C307 1.278 . S
H320 C292 0.929 . S
H321 C293 0.929 . S
H322 C295 0.931 . S
H323 C296 0.930 . S
H324 C301 0.929 . S
H325 C302 0.929 . S
H326 C304 0.931 . S
H327 C305 0.930 . S
Pr328 C330 2.875 1_556 S
Pr328 O348 2.556 1_556 S
Pr328 O349 2.487 1_556 S
Pr328 O350 2.699 . S
Pr328 O351 2.517 . S
Pr328 O353 2.433 1_556 S
Pr328 O356 2.433 1_546 S
Pr328 O358 2.443 1_545 S
Pr329 C339 2.880 1_554 S
Pr329 O350 2.436 1_564 S
Pr329 O352 2.438 1_565 S
Pr329 O354 2.562 1_554 S
Pr329 O355 2.490 1_554 S
Pr329 O356 2.695 . S
Pr329 O357 2.512 . S
Pr329 O359 2.437 1_554 S
C330 Pr328 2.875 1_554 S
C330 C331 1.491 . S
C330 O348 1.254 . S
C330 O349 1.225 . S
C331 C330 1.491 . S
C331 C332 1.392 . S
C331 C336 1.356 . S
C332 C331 1.392 . S
C332 C333 1.368 . S
C332 H360 0.929 . S
C333 C332 1.368 . S
C333 C334 1.386 . S
C333 H361 0.929 . S
C334 C333 1.386 . S
C334 C335 1.373 . S
C335 C334 1.373 . S
C335 C336 1.409 . S
C335 H362 0.931 . S
C336 C331 1.356 . S
C336 C335 1.409 . S
C336 H363 0.930 . S
C337 O350 1.270 . S
C337 O351 1.248 . S
C338 O352 1.267 . S
C338 O353 1.278 . S
C339 Pr329 2.880 1_556 S
C339 C340 1.491 . S
C339 O354 1.254 . S
C339 O355 1.225 . S
C340 C339 1.491 . S
C340 C341 1.392 . S
C340 C345 1.356 . S
C341 C340 1.392 . S
C341 C342 1.368 . S
C341 H364 0.929 . S
C342 C341 1.368 . S
C342 C343 1.386 . S
C342 H365 0.929 . S
C343 C342 1.386 . S
C343 C344 1.373 . S
C344 C343 1.373 . S
C344 C345 1.409 . S
C344 H366 0.931 . S
C345 C340 1.356 . S
C345 C344 1.409 . S
C345 H367 0.930 . S
C346 O356 1.270 . S
C346 O357 1.248 . S
C347 O358 1.267 . S
C347 O359 1.278 . S
O348 Pr328 2.556 1_554 S
O348 C330 1.254 . S
O349 Pr328 2.487 1_554 S
O349 C330 1.225 . S
O350 Pr328 2.699 . S
O350 Pr329 2.436 1_546 S
O350 C337 1.270 . S
O351 Pr328 2.517 . S
O351 C337 1.248 . S
O352 Pr329 2.438 1_545 S
O352 C338 1.267 . S
O353 Pr328 2.433 1_554 S
O353 C338 1.278 . S
O354 Pr329 2.562 1_556 S
O354 C339 1.254 . S
O355 Pr329 2.490 1_556 S
O355 C339 1.225 . S
O356 Pr328 2.433 1_564 S
O356 Pr329 2.695 . S
O356 C346 1.270 . S
O357 Pr329 2.512 . S
O357 C346 1.248 . S
O358 Pr328 2.443 1_565 S
O358 C347 1.267 . S
O359 Pr329 2.437 1_556 S
O359 C347 1.278 . S
H360 C332 0.929 . S
H361 C333 0.929 . S
H362 C335 0.931 . S
H363 C336 0.930 . S
H364 C341 0.929 . S
H365 C342 0.929 . S
H366 C344 0.931 . S
H367 C345 0.930 . S
Pr368 C370 2.880 . S
Pr368 O388 2.562 . S
Pr368 O389 2.490 . S
Pr368 O390 2.695 . S
Pr368 O391 2.512 . S
Pr368 O393 2.437 . S
Pr368 O396 2.436 . S
Pr368 O398 2.438 . S
Pr369 C379 2.880 . S
Pr369 O390 2.436 . S
Pr369 O392 2.438 . S
Pr369 O394 2.562 . S
Pr369 O395 2.490 . S
Pr369 O396 2.695 . S
Pr369 O397 2.512 . S
Pr369 O399 2.437 . S
C370 Pr368 2.880 . S
C370 C371 1.491 . S
C370 O388 1.254 . S
C370 O389 1.225 . S
C371 C370 1.491 . S
C371 C372 1.392 . S
C371 C376 1.356 . S
C372 C371 1.392 . S
C372 C373 1.368 . S
C372 H400 0.929 . S
C373 C372 1.368 . S
C373 C374 1.386 . S
C373 H401 0.929 . S
C374 C373 1.386 . S
C374 C375 1.373 . S
C375 C374 1.373 . S
C375 C376 1.409 . S
C375 H402 0.931 . S
C376 C371 1.356 . S
C376 C375 1.409 . S
C376 H403 0.930 . S
C377 O390 1.270 . S
C377 O391 1.248 . S
C378 O392 1.267 . S
C378 O393 1.278 . S
C379 Pr369 2.880 . S
C379 C380 1.491 . S
C379 O394 1.254 . S
C379 O395 1.225 . S
C380 C379 1.491 . S
C380 C381 1.392 . S
C380 C385 1.356 . S
C381 C380 1.392 . S
C381 C382 1.368 . S
C381 H404 0.929 . S
C382 C381 1.368 . S
C382 C383 1.386 . S
C382 H405 0.929 . S
C383 C382 1.386 . S
C383 C384 1.373 . S
C384 C383 1.373 . S
C384 C385 1.409 . S
C384 H406 0.931 . S
C385 C380 1.356 . S
C385 C384 1.409 . S
C385 H407 0.930 . S
C386 O396 1.270 . S
C386 O397 1.248 . S
C387 O398 1.267 . S
C387 O399 1.278 . S
O388 Pr368 2.562 . S
O388 C370 1.254 . S
O389 Pr368 2.490 . S
O389 C370 1.225 . S
O390 Pr368 2.695 . S
O390 Pr369 2.436 . S
O390 C377 1.270 . S
O391 Pr368 2.512 . S
O391 C377 1.248 . S
O392 Pr369 2.438 . S
O392 C378 1.267 . S
O393 Pr368 2.437 . S
O393 C378 1.278 . S
O394 Pr369 2.562 . S
O394 C379 1.254 . S
O395 Pr369 2.490 . S
O395 C379 1.225 . S
O396 Pr368 2.436 . S
O396 Pr369 2.695 . S
O396 C386 1.270 . S
O397 Pr369 2.512 . S
O397 C386 1.248 . S
O398 Pr368 2.438 . S
O398 C387 1.267 . S
O399 Pr369 2.437 . S
O399 C387 1.278 . S
H400 C372 0.929 . S
H401 C373 0.929 . S
H402 C375 0.931 . S
H403 C376 0.930 . S
H404 C381 0.929 . S
H405 C382 0.929 . S
H406 C384 0.931 . S
H407 C385 0.930 . S
Pr408 C410 2.866 1_455 S
Pr408 O428 2.544 1_455 S
Pr408 O429 2.483 1_455 S
Pr408 O430 2.706 1_556 S
Pr408 O431 2.524 1_556 S
Pr408 O433 2.427 1_456 S
Pr408 O436 2.428 1_455 S
Pr408 O438 2.453 . S
Pr409 C419 2.880 . S
Pr409 O430 2.436 . S
Pr409 O432 2.438 1_455 S
Pr409 O434 2.562 . S
Pr409 O435 2.490 . S
Pr409 O436 2.695 1_454 S
Pr409 O437 2.512 1_454 S
Pr409 O439 2.437 1_554 S
C410 Pr408 2.866 1_655 S
C410 C411 1.491 . S
C410 O428 1.254 . S
C410 O429 1.225 . S
C411 C410 1.491 . S
C411 C412 1.392 . S
C411 C416 1.356 . S
C412 C411 1.392 . S
C412 C413 1.368 . S
C412 H440 0.929 . S
C413 C412 1.368 . S
C413 C414 1.386 . S
C413 H441 0.929 . S
C414 C413 1.386 . S
C414 C415 1.373 . S
C415 C414 1.373 . S
C415 C416 1.409 . S
C415 H442 0.931 . S
C416 C411 1.356 . S
C416 C415 1.409 . S
C416 H443 0.930 . S
C417 O430 1.270 . S
C417 O431 1.248 . S
C418 O432 1.267 . S
C418 O433 1.278 . S
C419 Pr409 2.880 . S
C419 C420 1.491 . S
C419 O434 1.254 . S
C419 O435 1.225 . S
C420 C419 1.491 . S
C420 C421 1.392 . S
C420 C425 1.356 . S
C421 C420 1.392 . S
C421 C422 1.368 . S
C421 H444 0.929 . S
C422 C421 1.368 . S
C422 C423 1.386 . S
C422 H445 0.929 . S
C423 C422 1.386 . S
C423 C424 1.373 . S
C424 C423 1.373 . S
C424 C425 1.409 . S
C424 H446 0.931 . S
C425 C420 1.356 . S
C425 C424 1.409 . S
C425 H447 0.930 . S
C426 O436 1.270 . S
C426 O437 1.248 . S
C427 O438 1.267 . S
C427 O439 1.278 . S
O428 Pr408 2.544 1_655 S
O428 C410 1.254 . S
O429 Pr408 2.483 1_655 S
O429 C410 1.225 . S
O430 Pr408 2.706 1_554 S
O430 Pr409 2.436 . S
O430 C417 1.270 . S
O431 Pr408 2.524 1_554 S
O431 C417 1.248 . S
O432 Pr409 2.438 1_655 S
O432 C418 1.267 . S
O433 Pr408 2.427 1_654 S
O433 C418 1.278 . S
O434 Pr409 2.562 . S
O434 C419 1.254 . S
O435 Pr409 2.490 . S
O435 C419 1.225 . S
O436 Pr408 2.428 1_655 S
O436 Pr409 2.695 1_656 S
O436 C426 1.270 . S
O437 Pr409 2.512 1_656 S
O437 C426 1.248 . S
O438 Pr408 2.453 . S
O438 C427 1.267 . S
O439 Pr409 2.437 1_556 S
O439 C427 1.278 . S
H440 C412 0.929 . S
H441 C413 0.929 . S
H442 C415 0.931 . S
H443 C416 0.930 . S
H444 C421 0.929 . S
H445 C422 0.929 . S
H446 C424 0.931 . S
H447 C425 0.930 . S
H448 C466 0.951 . S
H449 C468 0.951 . S
H450 C470 0.950 . S
H451 C471 0.950 . S
H452 C473 0.950 . S
H453 C476 0.950 . S
H454 C477 0.950 . S
H455 C479 0.950 . S
H456 C480 0.950 . S
H457 C481 0.951 . S
H458 C483 0.951 . S
H459 C485 0.950 . S
H460 C486 0.950 . S
H461 C488 0.950 . S
H462 C491 0.950 . S
H463 C492 0.950 . S
H464 C494 0.950 . S
H465 C495 0.950 . S
C466 H448 0.951 . S
C466 C467 1.366 . S
C466 C468 1.388 . S
C467 C466 1.366 . S
C467 C471 1.385 . S
C468 H449 0.951 . S
C468 C466 1.388 . S
C468 C469 1.366 . S
C469 C468 1.366 . S
C469 C470 1.414 . S
C469 C472 1.499 . S
C470 H450 0.950 . S
C470 C469 1.414 . S
C470 C471 1.374 . S
C471 H451 0.950 . S
C471 C467 1.385 . S
C471 C470 1.374 . S
C472 C469 1.499 . S
C472 C473 1.373 . S
C472 C474 1.389 . S
C473 H452 0.950 . S
C473 C472 1.373 . S
C473 C489 1.377 . S
C474 C472 1.389 . S
C474 C475 1.524 . S
C474 C488 1.377 . S
C475 C474 1.524 . S
C475 C476 1.397 . S
C475 C480 1.363 . S
C476 H453 0.950 . S
C476 C475 1.397 . S
C476 C477 1.334 . S
C477 H454 0.950 . S
C477 C476 1.334 . S
C477 C478 1.287 . S
C478 C477 1.287 . S
C478 C479 1.524 . S
C478 H497 0.913 . S
C479 H455 0.950 . S
C479 C478 1.524 . S
C479 C480 1.415 . S
C480 H456 0.950 . S
C480 C475 1.363 . S
C480 C479 1.415 . S
C481 H457 0.951 . S
C481 C482 1.366 . S
C481 C483 1.388 . S
C482 C481 1.366 . S
C482 C486 1.385 . S
C483 H458 0.951 . S
C483 C481 1.388 . S
C483 C484 1.366 . S
C484 C483 1.366 . S
C484 C485 1.414 . S
C484 C487 1.499 . S
C485 H459 0.950 . S
C485 C484 1.414 . S
C485 C486 1.374 . S
C486 H460 0.950 . S
C486 C482 1.385 . S
C486 C485 1.374 . S
C487 C484 1.499 . S
C487 C488 1.373 . S
C487 C489 1.389 . S
C488 H461 0.950 . S
C488 C474 1.377 . S
C488 C487 1.373 . S
C489 C473 1.377 . S
C489 C487 1.389 . S
C489 C490 1.524 . S
C490 C489 1.524 . S
C490 C491 1.397 . S
C490 C495 1.363 . S
C491 H462 0.950 . S
C491 C490 1.397 . S
C491 C492 1.334 . S
C492 H463 0.950 . S
C492 C491 1.334 . S
C492 C493 1.287 . S
C493 C492 1.287 . S
C493 C494 1.524 . S
C493 H496 0.999 . S
C494 H464 0.950 . S
C494 C493 1.524 . S
C494 C495 1.415 . S
C495 H465 0.950 . S
C495 C490 1.363 . S
C495 C494 1.415 . S
H496 C493 0.999 . S
H497 C478 0.913 . S
H498 C516 0.951 . S
H499 C518 0.951 . S
H500 C520 0.950 . S
H501 C521 0.950 . S
H502 C523 0.950 . S
H503 C526 0.950 . S
H504 C527 0.950 . S
H505 C529 0.950 . S
H506 C530 0.950 . S
H507 C531 0.951 . S
H508 C533 0.951 . S
H509 C535 0.950 . S
H510 C536 0.950 . S
H511 C538 0.950 . S
H512 C541 0.950 . S
H513 C542 0.950 . S
H514 C544 0.950 . S
H515 C545 0.950 . S
C516 H498 0.951 . S
C516 C517 1.366 . S
C516 C518 1.388 . S
C517 C516 1.366 . S
C517 C521 1.385 . S
C518 H499 0.951 . S
C518 C516 1.388 . S
C518 C519 1.366 . S
C519 C518 1.366 . S
C519 C520 1.414 . S
C519 C522 1.499 . S
C520 H500 0.950 . S
C520 C519 1.414 . S
C520 C521 1.374 . S
C521 H501 0.950 . S
C521 C517 1.385 . S
C521 C520 1.374 . S
C522 C519 1.499 . S
C522 C523 1.373 . S
C522 C524 1.389 . S
C523 H502 0.950 . S
C523 C522 1.373 . S
C523 C539 1.377 . S
C524 C522 1.389 . S
C524 C525 1.524 . S
C524 C538 1.377 . S
C525 C524 1.524 . S
C525 C526 1.397 . S
C525 C530 1.363 . S
C526 H503 0.950 . S
C526 C525 1.397 . S
C526 C527 1.334 . S
C527 H504 0.950 . S
C527 C526 1.334 . S
C527 C528 1.287 . S
C528 C527 1.287 . S
C528 C529 1.524 . S
C528 H547 0.913 . S
C529 H505 0.950 . S
C529 C528 1.524 . S
C529 C530 1.415 . S
C530 H506 0.950 . S
C530 C525 1.363 . S
C530 C529 1.415 . S
C531 H507 0.951 . S
C531 C532 1.366 . S
C531 C533 1.388 . S
C532 C531 1.366 . S
C532 C536 1.385 . S
C533 H508 0.951 . S
C533 C531 1.388 . S
C533 C534 1.366 . S
C534 C533 1.366 . S
C534 C535 1.414 . S
C534 C537 1.499 . S
C535 H509 0.950 . S
C535 C534 1.414 . S
C535 C536 1.374 . S
C536 H510 0.950 . S
C536 C532 1.385 . S
C536 C535 1.374 . S
C537 C534 1.499 . S
C537 C538 1.373 . S
C537 C539 1.389 . S
C538 H511 0.950 . S
C538 C524 1.377 . S
C538 C537 1.373 . S
C539 C523 1.377 . S
C539 C537 1.389 . S
C539 C540 1.524 . S
C540 C539 1.524 . S
C540 C541 1.397 . S
C540 C545 1.363 . S
C541 H512 0.950 . S
C541 C540 1.397 . S
C541 C542 1.334 . S
C542 H513 0.950 . S
C542 C541 1.334 . S
C542 C543 1.287 . S
C543 C542 1.287 . S
C543 C544 1.524 . S
C543 H546 0.999 . S
C544 H514 0.950 . S
C544 C543 1.524 . S
C544 C545 1.415 . S
C545 H515 0.950 . S
C545 C540 1.363 . S
C545 C544 1.415 . S
H546 C543 0.999 . S
H547 C528 0.913 . S
H548 C566 0.951 . S
H549 C568 0.951 . S
H550 C570 0.950 . S
H551 C571 0.950 . S
H552 C573 0.950 . S
H553 C576 0.950 . S
H554 C577 0.950 . S
H555 C579 0.950 . S
H556 C580 0.950 . S
H557 C581 0.951 . S
H558 C583 0.951 . S
H559 C585 0.950 . S
H560 C586 0.950 . S
H561 C588 0.950 . S
H562 C591 0.950 . S
H563 C592 0.950 . S
H564 C594 0.950 . S
H565 C595 0.950 . S
C566 H548 0.951 . S
C566 C567 1.366 . S
C566 C568 1.388 . S
C567 C566 1.366 . S
C567 C571 1.385 . S
C568 H549 0.951 . S
C568 C566 1.388 . S
C568 C569 1.366 . S
C569 C568 1.366 . S
C569 C570 1.414 . S
C569 C572 1.499 . S
C570 H550 0.950 . S
C570 C569 1.414 . S
C570 C571 1.374 . S
C571 H551 0.950 . S
C571 C567 1.385 . S
C571 C570 1.374 . S
C572 C569 1.499 . S
C572 C573 1.373 . S
C572 C574 1.389 . S
C573 H552 0.950 . S
C573 C572 1.373 . S
C573 C589 1.377 . S
C574 C572 1.389 . S
C574 C575 1.524 . S
C574 C588 1.377 . S
C575 C574 1.524 . S
C575 C576 1.397 . S
C575 C580 1.363 . S
C576 H553 0.950 . S
C576 C575 1.397 . S
C576 C577 1.334 . S
C577 H554 0.950 . S
C577 C576 1.334 . S
C577 C578 1.287 . S
C578 C577 1.287 . S
C578 C579 1.524 . S
C578 H597 0.913 . S
C579 H555 0.950 . S
C579 C578 1.524 . S
C579 C580 1.415 . S
C580 H556 0.950 . S
C580 C575 1.363 . S
C580 C579 1.415 . S
C581 H557 0.951 . S
C581 C582 1.366 . S
C581 C583 1.388 . S
C582 C581 1.366 . S
C582 C586 1.385 . S
C583 H558 0.951 . S
C583 C581 1.388 . S
C583 C584 1.366 . S
C584 C583 1.366 . S
C584 C585 1.414 . S
C584 C587 1.499 . S
C585 H559 0.950 . S
C585 C584 1.414 . S
C585 C586 1.374 . S
C586 H560 0.950 . S
C586 C582 1.385 . S
C586 C585 1.374 . S
C587 C584 1.499 . S
C587 C588 1.373 . S
C587 C589 1.389 . S
C588 H561 0.950 . S
C588 C574 1.377 . S
C588 C587 1.373 . S
C589 C573 1.377 . S
C589 C587 1.389 . S
C589 C590 1.524 . S
C590 C589 1.524 . S
C590 C591 1.397 . S
C590 C595 1.363 . S
C591 H562 0.950 . S
C591 C590 1.397 . S
C591 C592 1.334 . S
C592 H563 0.950 . S
C592 C591 1.334 . S
C592 C593 1.287 . S
C593 C592 1.287 . S
C593 C594 1.524 . S
C593 H596 0.999 . S
C594 H564 0.950 . S
C594 C593 1.524 . S
C594 C595 1.415 . S
C595 H565 0.950 . S
C595 C590 1.363 . S
C595 C594 1.415 . S
H596 C593 0.999 . S
H597 C578 0.913 . S
H598 C616 0.951 . S
H599 C618 0.951 . S
H600 C620 0.950 . S
H601 C621 0.950 . S
H602 C623 0.950 . S
H603 C626 0.950 . S
H604 C627 0.950 . S
H605 C629 0.950 . S
H606 C630 0.950 . S
H607 C631 0.951 . S
H608 C633 0.951 . S
H609 C635 0.950 . S
H610 C636 0.950 . S
H611 C638 0.950 . S
H612 C641 0.950 . S
H613 C642 0.950 . S
H614 C644 0.932 1_455 S
H615 C645 0.950 . S
C616 H598 0.951 . S
C616 C617 1.366 . S
C616 C618 1.388 . S
C617 C616 1.366 . S
C617 C621 1.385 . S
C618 H599 0.951 . S
C618 C616 1.388 . S
C618 C619 1.366 . S
C619 C618 1.366 . S
C619 C620 1.414 . S
C619 C622 1.499 . S
C620 H600 0.950 . S
C620 C619 1.414 . S
C620 C621 1.374 . S
C621 H601 0.950 . S
C621 C617 1.385 . S
C621 C620 1.374 . S
C622 C619 1.499 . S
C622 C623 1.373 . S
C622 C624 1.389 . S
C623 H602 0.950 . S
C623 C622 1.373 . S
C623 C639 1.377 . S
C624 C622 1.389 . S
C624 C625 1.524 . S
C624 C638 1.377 . S
C625 C624 1.524 . S
C625 C626 1.397 . S
C625 C630 1.363 . S
C626 H603 0.950 . S
C626 C625 1.397 . S
C626 C627 1.334 . S
C627 H604 0.950 . S
C627 C626 1.334 . S
C627 C628 1.287 . S
C628 C627 1.287 . S
C628 C629 1.524 . S
C628 H647 0.913 . S
C629 H605 0.950 . S
C629 C628 1.524 . S
C629 C630 1.415 . S
C630 H606 0.950 . S
C630 C625 1.363 . S
C630 C629 1.415 . S
C631 H607 0.951 . S
C631 C632 1.366 . S
C631 C633 1.388 . S
C632 C631 1.366 . S
C632 C636 1.385 . S
C633 H608 0.951 . S
C633 C631 1.388 . S
C633 C634 1.366 . S
C634 C633 1.366 . S
C634 C635 1.414 . S
C634 C637 1.499 . S
C635 H609 0.950 . S
C635 C634 1.414 . S
C635 C636 1.374 . S
C636 H610 0.950 . S
C636 C632 1.385 . S
C636 C635 1.374 . S
C637 C634 1.499 . S
C637 C638 1.373 . S
C637 C639 1.389 . S
C638 H611 0.950 . S
C638 C624 1.377 . S
C638 C637 1.373 . S
C639 C623 1.377 . S
C639 C637 1.389 . S
C639 C640 1.524 . S
C640 C639 1.524 . S
C640 C641 1.397 . S
C640 C645 1.363 . S
C641 H612 0.950 . S
C641 C640 1.397 . S
C641 C642 1.334 . S
C642 H613 0.950 . S
C642 C641 1.334 . S
C642 C643 1.287 1_655 S
C643 C642 1.287 1_455 S
C643 C644 1.517 1_455 S
C643 H646 0.999 . S
C644 H614 0.932 1_655 S
C644 C643 1.517 1_655 S
C644 C645 1.443 . S
C645 H615 0.950 . S
C645 C640 1.363 . S
C645 C644 1.443 . S
H646 C643 0.999 . S
H647 C628 0.913 . S
H648 C666 0.951 . S
H649 C668 0.951 . S
H650 C670 0.950 . S
H651 C671 0.950 . S
H652 C673 0.950 . S
H653 C676 0.950 . S
H654 C677 0.950 . S
H655 C679 0.950 . S
H656 C680 0.950 . S
H657 C681 0.951 . S
H658 C683 0.951 . S
H659 C685 0.950 . S
H660 C686 0.950 . S
H661 C688 0.950 . S
H662 C691 0.950 . S
H663 C692 0.950 . S
H664 C694 0.950 . S
H665 C695 0.950 . S
C666 H648 0.951 . S
C666 C667 1.366 . S
C666 C668 1.388 . S
C667 C666 1.366 . S
C667 C671 1.385 . S
C668 H649 0.951 . S
C668 C666 1.388 . S
C668 C669 1.366 . S
C669 C668 1.366 . S
C669 C670 1.414 . S
C669 C672 1.499 . S
C670 H650 0.950 . S
C670 C669 1.414 . S
C670 C671 1.374 . S
C671 H651 0.950 . S
C671 C667 1.385 . S
C671 C670 1.374 . S
C672 C669 1.499 . S
C672 C673 1.373 . S
C672 C674 1.389 . S
C673 H652 0.950 . S
C673 C672 1.373 . S
C673 C689 1.377 . S
C674 C672 1.389 . S
C674 C675 1.524 . S
C674 C688 1.377 . S
C675 C674 1.524 . S
C675 C676 1.397 . S
C675 C680 1.363 . S
C676 H653 0.950 . S
C676 C675 1.397 . S
C676 C677 1.334 . S
C677 H654 0.950 . S
C677 C676 1.334 . S
C677 C678 1.287 . S
C678 C677 1.287 . S
C678 C679 1.524 . S
C678 H697 0.913 . S
C679 H655 0.950 . S
C679 C678 1.524 . S
C679 C680 1.415 . S
C680 H656 0.950 . S
C680 C675 1.363 . S
C680 C679 1.415 . S
C681 H657 0.951 . S
C681 C682 1.366 . S
C681 C683 1.388 . S
C682 C681 1.366 . S
C682 C686 1.385 . S
C683 H658 0.951 . S
C683 C681 1.388 . S
C683 C684 1.366 . S
C684 C683 1.366 . S
C684 C685 1.414 . S
C684 C687 1.499 . S
C685 H659 0.950 . S
C685 C684 1.414 . S
C685 C686 1.374 . S
C686 H660 0.950 . S
C686 C682 1.385 . S
C686 C685 1.374 . S
C687 C684 1.499 . S
C687 C688 1.373 . S
C687 C689 1.389 . S
C688 H661 0.950 . S
C688 C674 1.377 . S
C688 C687 1.373 . S
C689 C673 1.377 . S
C689 C687 1.389 . S
C689 C690 1.524 . S
C690 C689 1.524 . S
C690 C691 1.397 . S
C690 C695 1.363 . S
C691 H662 0.950 . S
C691 C690 1.397 . S
C691 C692 1.334 . S
C692 H663 0.950 . S
C692 C691 1.334 . S
C692 C693 1.287 . S
C693 C692 1.287 . S
C693 C694 1.524 . S
C693 H696 0.999 . S
C694 H664 0.950 . S
C694 C693 1.524 . S
C694 C695 1.415 . S
C695 H665 0.950 . S
C695 C690 1.363 . S
C695 C694 1.415 . S
H696 C693 0.999 . S
H697 C678 0.913 . S
H698 C716 0.951 . S
H699 C718 0.951 . S
H700 C720 0.950 . S
H701 C721 0.950 . S
H702 C723 0.950 . S
H703 C726 0.950 . S
H704 C727 0.950 . S
H705 C729 0.950 . S
H706 C730 0.950 . S
H707 C731 0.951 . S
H708 C733 0.951 . S
H709 C735 0.950 . S
H710 C736 0.950 . S
H711 C738 0.950 . S
H712 C741 0.950 . S
H713 C742 0.950 . S
H714 C744 0.950 . S
H715 C745 0.950 . S
C716 H698 0.951 . S
C716 C717 1.366 . S
C716 C718 1.388 . S
C717 C716 1.366 . S
C717 C721 1.385 . S
C718 H699 0.951 . S
C718 C716 1.388 . S
C718 C719 1.366 . S
C719 C718 1.366 . S
C719 C720 1.414 . S
C719 C722 1.499 . S
C720 H700 0.950 . S
C720 C719 1.414 . S
C720 C721 1.374 . S
C721 H701 0.950 . S
C721 C717 1.385 . S
C721 C720 1.374 . S
C722 C719 1.499 . S
C722 C723 1.373 . S
C722 C724 1.389 . S
C723 H702 0.950 . S
C723 C722 1.373 . S
C723 C739 1.377 . S
C724 C722 1.389 . S
C724 C725 1.524 . S
C724 C738 1.377 . S
C725 C724 1.524 . S
C725 C726 1.397 . S
C725 C730 1.363 . S
C726 H703 0.950 . S
C726 C725 1.397 . S
C726 C727 1.334 . S
C727 H704 0.950 . S
C727 C726 1.334 . S
C727 C728 1.287 . S
C728 C727 1.287 . S
C728 C729 1.524 . S
C728 H747 0.913 . S
C729 H705 0.950 . S
C729 C728 1.524 . S
C729 C730 1.415 . S
C730 H706 0.950 . S
C730 C725 1.363 . S
C730 C729 1.415 . S
C731 H707 0.951 . S
C731 C732 1.366 . S
C731 C733 1.388 . S
C732 C731 1.366 . S
C732 C736 1.385 . S
C733 H708 0.951 . S
C733 C731 1.388 . S
C733 C734 1.366 . S
C734 C733 1.366 . S
C734 C735 1.414 . S
C734 C737 1.499 . S
C735 H709 0.950 . S
C735 C734 1.414 . S
C735 C736 1.374 . S
C736 H710 0.950 . S
C736 C732 1.385 . S
C736 C735 1.374 . S
C737 C734 1.499 . S
C737 C738 1.373 . S
C737 C739 1.389 . S
C738 H711 0.950 . S
C738 C724 1.377 . S
C738 C737 1.373 . S
C739 C723 1.377 . S
C739 C737 1.389 . S
C739 C740 1.524 . S
C740 C739 1.524 . S
C740 C741 1.397 . S
C740 C745 1.363 . S
C741 H712 0.950 . S
C741 C740 1.397 . S
C741 C742 1.334 . S
C742 H713 0.950 . S
C742 C741 1.334 . S
C742 C743 1.287 . S
C743 C742 1.287 . S
C743 C744 1.524 . S
C743 H746 0.999 . S
C744 H714 0.950 . S
C744 C743 1.524 . S
C744 C745 1.415 . S
C745 H715 0.950 . S
C745 C740 1.363 . S
C745 C744 1.415 . S
H746 C743 0.999 . S
H747 C728 0.913 . S
H748 C766 0.951 . S
H749 C768 0.951 . S
H750 C770 0.950 . S
H751 C771 0.950 . S
H752 C773 0.950 . S
H753 C776 0.950 . S
H754 C777 0.950 . S
H755 C779 0.950 . S
H756 C780 0.950 . S
H757 C781 0.951 . S
H758 C783 0.951 . S
H759 C785 0.950 . S
H760 C786 0.950 . S
H761 C788 0.950 . S
H762 C791 0.950 . S
H763 C792 0.950 . S
H764 C794 0.950 . S
H765 C795 0.950 . S
C766 H748 0.951 . S
C766 C767 1.366 . S
C766 C768 1.388 . S
C767 C766 1.366 . S
C767 C771 1.385 . S
C768 H749 0.951 . S
C768 C766 1.388 . S
C768 C769 1.366 . S
C769 C768 1.366 . S
C769 C770 1.414 . S
C769 C772 1.499 . S
C770 H750 0.950 . S
C770 C769 1.414 . S
C770 C771 1.374 . S
C771 H751 0.950 . S
C771 C767 1.385 . S
C771 C770 1.374 . S
C772 C769 1.499 . S
C772 C773 1.373 . S
C772 C774 1.389 . S
C773 H752 0.950 . S
C773 C772 1.373 . S
C773 C789 1.377 . S
C774 C772 1.389 . S
C774 C775 1.524 . S
C774 C788 1.377 . S
C775 C774 1.524 . S
C775 C776 1.397 . S
C775 C780 1.363 . S
C776 H753 0.950 . S
C776 C775 1.397 . S
C776 C777 1.334 . S
C777 H754 0.950 . S
C777 C776 1.334 . S
C777 C778 1.287 . S
C778 C777 1.287 . S
C778 C779 1.524 . S
C778 H797 0.913 . S
C779 H755 0.950 . S
C779 C778 1.524 . S
C779 C780 1.415 . S
C780 H756 0.950 . S
C780 C775 1.363 . S
C780 C779 1.415 . S
C781 H757 0.951 . S
C781 C782 1.366 . S
C781 C783 1.388 . S
C782 C781 1.366 . S
C782 C786 1.385 . S
C783 H758 0.951 . S
C783 C781 1.388 . S
C783 C784 1.366 . S
C784 C783 1.366 . S
C784 C785 1.414 . S
C784 C787 1.499 . S
C785 H759 0.950 . S
C785 C784 1.414 . S
C785 C786 1.374 . S
C786 H760 0.950 . S
C786 C782 1.385 . S
C786 C785 1.374 . S
C787 C784 1.499 . S
C787 C788 1.373 . S
C787 C789 1.389 . S
C788 H761 0.950 . S
C788 C774 1.377 . S
C788 C787 1.373 . S
C789 C773 1.377 . S
C789 C787 1.389 . S
C789 C790 1.524 . S
C790 C789 1.524 . S
C790 C791 1.397 . S
C790 C795 1.363 . S
C791 H762 0.950 . S
C791 C790 1.397 . S
C791 C792 1.334 . S
C792 H763 0.950 . S
C792 C791 1.334 . S
C792 C793 1.287 . S
C793 C792 1.287 . S
C793 C794 1.524 . S
C793 H796 0.999 . S
C794 H764 0.950 . S
C794 C793 1.524 . S
C794 C795 1.415 . S
C795 H765 0.950 . S
C795 C790 1.363 . S
C795 C794 1.415 . S
H796 C793 0.999 . S
H797 C778 0.913 . S
H798 C816 0.951 . S
H799 C818 0.951 . S
H800 C820 0.950 . S
H801 C821 0.950 . S
H802 C823 0.950 . S
H803 C826 0.950 . S
H804 C827 0.950 . S
H805 C829 0.950 . S
H806 C830 0.950 . S
H807 C831 0.951 . S
H808 C833 0.951 . S
H809 C835 0.950 . S
H810 C836 0.950 . S
H811 C838 0.950 . S
H812 C841 0.950 . S
H813 C842 0.950 . S
H814 C844 0.950 . S
H815 C845 0.950 . S
C816 H798 0.951 . S
C816 C817 1.366 . S
C816 C818 1.388 . S
C817 C816 1.366 . S
C817 C821 1.385 . S
C818 H799 0.951 . S
C818 C816 1.388 . S
C818 C819 1.366 . S
C819 C818 1.366 . S
C819 C820 1.414 . S
C819 C822 1.499 . S
C820 H800 0.950 . S
C820 C819 1.414 . S
C820 C821 1.374 . S
C821 H801 0.950 . S
C821 C817 1.385 . S
C821 C820 1.374 . S
C822 C819 1.499 . S
C822 C823 1.373 . S
C822 C824 1.389 . S
C823 H802 0.950 . S
C823 C822 1.373 . S
C823 C839 1.377 . S
C824 C822 1.389 . S
C824 C825 1.524 . S
C824 C838 1.377 . S
C825 C824 1.524 . S
C825 C826 1.397 . S
C825 C830 1.363 . S
C826 H803 0.950 . S
C826 C825 1.397 . S
C826 C827 1.334 . S
C827 H804 0.950 . S
C827 C826 1.334 . S
C827 C828 1.287 . S
C828 C827 1.287 . S
C828 C829 1.524 . S
C828 H847 0.913 . S
C829 H805 0.950 . S
C829 C828 1.524 . S
C829 C830 1.415 . S
C830 H806 0.950 . S
C830 C825 1.363 . S
C830 C829 1.415 . S
C831 H807 0.951 . S
C831 C832 1.366 . S
C831 C833 1.388 . S
C832 C831 1.366 . S
C832 C836 1.385 . S
C833 H808 0.951 . S
C833 C831 1.388 . S
C833 C834 1.366 . S
C834 C833 1.366 . S
C834 C835 1.414 . S
C834 C837 1.499 . S
C835 H809 0.950 . S
C835 C834 1.414 . S
C835 C836 1.374 . S
C836 H810 0.950 . S
C836 C832 1.385 . S
C836 C835 1.374 . S
C837 C834 1.499 . S
C837 C838 1.373 . S
C837 C839 1.389 . S
C838 H811 0.950 . S
C838 C824 1.377 . S
C838 C837 1.373 . S
C839 C823 1.377 . S
C839 C837 1.389 . S
C839 C840 1.524 . S
C840 C839 1.524 . S
C840 C841 1.397 . S
C840 C845 1.363 . S
C841 H812 0.950 . S
C841 C840 1.397 . S
C841 C842 1.334 . S
C842 H813 0.950 . S
C842 C841 1.334 . S
C842 C843 1.287 . S
C843 C842 1.287 . S
C843 C844 1.524 . S
C843 H846 0.999 . S
C844 H814 0.950 . S
C844 C843 1.524 . S
C844 C845 1.415 . S
C845 H815 0.950 . S
C845 C840 1.363 . S
C845 C844 1.415 . S
H846 C843 0.999 . S
H847 C828 0.913 . S
H848 C866 0.951 . S
H849 C868 0.951 . S
H850 C870 0.950 . S
H851 C871 0.950 . S
H852 C873 0.950 . S
H853 C876 0.950 . S
H854 C877 0.950 . S
H855 C879 0.950 . S
H856 C880 0.950 . S
H857 C881 0.951 . S
H858 C883 0.951 . S
H859 C885 0.950 . S
H860 C886 0.950 . S
H861 C888 0.950 . S
H862 C891 0.950 . S
H863 C892 0.950 . S
H864 C894 0.950 . S
H865 C895 0.950 . S
C866 H848 0.951 . S
C866 C867 1.366 . S
C866 C868 1.388 . S
C867 C866 1.366 . S
C867 C871 1.385 . S
C868 H849 0.951 . S
C868 C866 1.388 . S
C868 C869 1.366 . S
C869 C868 1.366 . S
C869 C870 1.414 . S
C869 C872 1.499 . S
C870 H850 0.950 . S
C870 C869 1.414 . S
C870 C871 1.374 . S
C871 H851 0.950 . S
C871 C867 1.385 . S
C871 C870 1.374 . S
C872 C869 1.499 . S
C872 C873 1.373 . S
C872 C874 1.389 . S
C873 H852 0.950 . S
C873 C872 1.373 . S
C873 C889 1.377 . S
C874 C872 1.389 . S
C874 C875 1.524 . S
C874 C888 1.377 . S
C875 C874 1.524 . S
C875 C876 1.397 . S
C875 C880 1.363 . S
C876 H853 0.950 . S
C876 C875 1.397 . S
C876 C877 1.334 . S
C877 H854 0.950 . S
C877 C876 1.334 . S
C877 C878 1.287 . S
C878 C877 1.287 . S
C878 C879 1.524 . S
C878 H897 0.913 . S
C879 H855 0.950 . S
C879 C878 1.524 . S
C879 C880 1.415 . S
C880 H856 0.950 . S
C880 C875 1.363 . S
C880 C879 1.415 . S
C881 H857 0.951 . S
C881 C882 1.366 . S
C881 C883 1.388 . S
C882 C881 1.366 . S
C882 C886 1.385 . S
C883 H858 0.951 . S
C883 C881 1.388 . S
C883 C884 1.366 . S
C884 C883 1.366 . S
C884 C885 1.414 . S
C884 C887 1.499 . S
C885 H859 0.950 . S
C885 C884 1.414 . S
C885 C886 1.374 . S
C886 H860 0.950 . S
C886 C882 1.385 . S
C886 C885 1.374 . S
C887 C884 1.499 . S
C887 C888 1.373 . S
C887 C889 1.389 . S
C888 H861 0.950 . S
C888 C874 1.377 . S
C888 C887 1.373 . S
C889 C873 1.377 . S
C889 C887 1.389 . S
C889 C890 1.524 . S
C890 C889 1.524 . S
C890 C891 1.397 . S
C890 C895 1.363 . S
C891 H862 0.950 . S
C891 C890 1.397 . S
C891 C892 1.334 . S
C892 H863 0.950 . S
C892 C891 1.334 . S
C892 C893 1.287 . S
C893 C892 1.287 . S
C893 C894 1.524 . S
C893 H896 0.999 . S
C894 H864 0.950 . S
C894 C893 1.524 . S
C894 C895 1.415 . S
C895 H865 0.950 . S
C895 C890 1.363 . S
C895 C894 1.415 . S
H896 C893 0.999 . S
H897 C878 0.913 . S
H898 C916 0.951 . S
H899 C918 0.951 . S
H900 C920 0.950 . S
H901 C921 0.950 . S
H902 C923 0.950 . S
H903 C926 0.950 . S
H904 C927 0.950 . S
H905 C929 0.950 . S
H906 C930 0.950 . S
H907 C931 0.951 . S
H908 C933 0.951 . S
H909 C935 0.950 . S
H910 C936 0.950 . S
H911 C938 0.950 . S
H912 C941 0.950 . S
H913 C942 0.950 . S
H914 C944 0.950 . S
H915 C945 0.950 . S
C916 H898 0.951 . S
C916 C917 1.366 . S
C916 C918 1.388 . S
C917 C916 1.366 . S
C917 C921 1.385 . S
C918 H899 0.951 . S
C918 C916 1.388 . S
C918 C919 1.366 . S
C919 C918 1.366 . S
C919 C920 1.414 . S
C919 C922 1.499 . S
C920 H900 0.950 . S
C920 C919 1.414 . S
C920 C921 1.374 . S
C921 H901 0.950 . S
C921 C917 1.385 . S
C921 C920 1.374 . S
C922 C919 1.499 . S
C922 C923 1.373 . S
C922 C924 1.389 . S
C923 H902 0.950 . S
C923 C922 1.373 . S
C923 C939 1.377 . S
C924 C922 1.389 . S
C924 C925 1.524 . S
C924 C938 1.377 . S
C925 C924 1.524 . S
C925 C926 1.397 . S
C925 C930 1.363 . S
C926 H903 0.950 . S
C926 C925 1.397 . S
C926 C927 1.334 . S
C927 H904 0.950 . S
C927 C926 1.334 . S
C927 C928 1.287 . S
C928 C927 1.287 . S
C928 C929 1.524 . S
C928 H947 0.913 . S
C929 H905 0.950 . S
C929 C928 1.524 . S
C929 C930 1.415 . S
C930 H906 0.950 . S
C930 C925 1.363 . S
C930 C929 1.415 . S
C931 H907 0.951 . S
C931 C932 1.366 . S
C931 C933 1.388 . S
C932 C931 1.366 . S
C932 C936 1.385 . S
C933 H908 0.951 . S
C933 C931 1.388 . S
C933 C934 1.366 . S
C934 C933 1.366 . S
C934 C935 1.414 . S
C934 C937 1.499 . S
C935 H909 0.950 . S
C935 C934 1.414 . S
C935 C936 1.374 . S
C936 H910 0.950 . S
C936 C932 1.385 . S
C936 C935 1.374 . S
C937 C934 1.499 . S
C937 C938 1.373 . S
C937 C939 1.389 . S
C938 H911 0.950 . S
C938 C924 1.377 . S
C938 C937 1.373 . S
C939 C923 1.377 . S
C939 C937 1.389 . S
C939 C940 1.524 . S
C940 C939 1.524 . S
C940 C941 1.397 . S
C940 C945 1.363 . S
C941 H912 0.950 . S
C941 C940 1.397 . S
C941 C942 1.334 . S
C942 H913 0.950 . S
C942 C941 1.334 . S
C942 C943 1.287 . S
C943 C942 1.287 . S
C943 C944 1.524 . S
C943 H946 0.999 . S
C944 H914 0.950 . S
C944 C943 1.524 . S
C944 C945 1.415 . S
C945 H915 0.950 . S
C945 C940 1.363 . S
C945 C944 1.415 . S
H946 C943 0.999 . S
H947 C928 0.913 . S
H948 C966 0.951 . S
H949 C968 0.951 . S
H950 C970 0.950 . S
H951 C971 0.950 . S
H952 C973 0.950 . S
H953 C976 0.950 . S
H954 C977 0.950 . S
H955 C979 0.950 . S
H956 C980 0.950 . S
H957 C981 0.951 . S
H958 C983 0.951 . S
H959 C985 0.950 . S
H960 C986 0.950 . S
H961 C988 0.950 . S
H962 C991 0.950 . S
H963 C992 0.950 . S
H964 C994 0.950 . S
H965 C995 0.950 . S
C966 H948 0.951 . S
C966 C967 1.366 . S
C966 C968 1.388 . S
C967 C966 1.366 . S
C967 C971 1.385 . S
C968 H949 0.951 . S
C968 C966 1.388 . S
C968 C969 1.366 . S
C969 C968 1.366 . S
C969 C970 1.414 . S
C969 C972 1.499 . S
C970 H950 0.950 . S
C970 C969 1.414 . S
C970 C971 1.374 . S
C971 H951 0.950 . S
C971 C967 1.385 . S
C971 C970 1.374 . S
C972 C969 1.499 . S
C972 C973 1.373 . S
C972 C974 1.389 . S
C973 H952 0.950 . S
C973 C972 1.373 . S
C973 C989 1.377 . S
C974 C972 1.389 . S
C974 C975 1.524 . S
C974 C988 1.377 . S
C975 C974 1.524 . S
C975 C976 1.397 . S
C975 C980 1.363 . S
C976 H953 0.950 . S
C976 C975 1.397 . S
C976 C977 1.334 . S
C977 H954 0.950 . S
C977 C976 1.334 . S
C977 C978 1.287 . S
C978 C977 1.287 . S
C978 C979 1.524 . S
C978 H997 0.913 . S
C979 H955 0.950 . S
C979 C978 1.524 . S
C979 C980 1.415 . S
C980 H956 0.950 . S
C980 C975 1.363 . S
C980 C979 1.415 . S
C981 H957 0.951 . S
C981 C982 1.366 . S
C981 C983 1.388 . S
C982 C981 1.366 . S
C982 C986 1.385 . S
C983 H958 0.951 . S
C983 C981 1.388 . S
C983 C984 1.366 . S
C984 C983 1.366 . S
C984 C985 1.414 . S
C984 C987 1.499 . S
C985 H959 0.950 . S
C985 C984 1.414 . S
C985 C986 1.374 . S
C986 H960 0.950 . S
C986 C982 1.385 . S
C986 C985 1.374 . S
C987 C984 1.499 . S
C987 C988 1.373 . S
C987 C989 1.389 . S
C988 H961 0.950 . S
C988 C974 1.377 . S
C988 C987 1.373 . S
C989 C973 1.377 . S
C989 C987 1.389 . S
C989 C990 1.524 . S
C990 C989 1.524 . S
C990 C991 1.397 . S
C990 C995 1.363 . S
C991 H962 0.950 . S
C991 C990 1.397 . S
C991 C992 1.334 . S
C992 H963 0.950 . S
C992 C991 1.334 . S
C992 C993 1.287 . S
C993 C992 1.287 . S
C993 C994 1.524 . S
C993 H996 0.999 . S
C994 H964 0.950 . S
C994 C993 1.524 . S
C994 C995 1.415 . S
C995 H965 0.950 . S
C995 C990 1.363 . S
C995 C994 1.415 . S
H996 C993 0.999 . S
H997 C978 0.913 . S
H998 C1016 0.951 . S
H999 C1018 0.951 . S
H1000 C1020 0.950 . S
H1001 C1021 0.950 . S
H1002 C1023 0.950 . S
H1003 C1026 0.950 . S
H1004 C1027 0.950 . S
H1005 C1029 0.950 . S
H1006 C1030 0.950 . S
H1007 C1031 0.951 . S
H1008 C1033 0.951 . S
H1009 C1035 0.950 . S
H1010 C1036 0.950 . S
H1011 C1038 0.950 . S
H1012 C1041 0.950 . S
H1013 C1042 0.950 . S
H1014 C1044 0.950 . S
H1015 C1045 0.950 . S
C1016 H998 0.951 . S
C1016 C1017 1.366 . S
C1016 C1018 1.388 . S
C1017 C1016 1.366 . S
C1017 C1021 1.385 . S
C1018 H999 0.951 . S
C1018 C1016 1.388 . S
C1018 C1019 1.366 . S
C1019 C1018 1.366 . S
C1019 C1020 1.414 . S
C1019 C1022 1.499 . S
C1020 H1000 0.950 . S
C1020 C1019 1.414 . S
C1020 C1021 1.374 . S
C1021 H1001 0.950 . S
C1021 C1017 1.385 . S
C1021 C1020 1.374 . S
C1022 C1019 1.499 . S
C1022 C1023 1.373 . S
C1022 C1024 1.389 . S
C1023 H1002 0.950 . S
C1023 C1022 1.373 . S
C1023 C1039 1.377 . S
C1024 C1022 1.389 . S
C1024 C1025 1.524 . S
C1024 C1038 1.377 . S
C1025 C1024 1.524 . S
C1025 C1026 1.397 . S
C1025 C1030 1.363 . S
C1026 H1003 0.950 . S
C1026 C1025 1.397 . S
C1026 C1027 1.334 . S
C1027 H1004 0.950 . S
C1027 C1026 1.334 . S
C1027 C1028 1.287 . S
C1028 C1027 1.287 . S
C1028 C1029 1.524 . S
C1028 H1047 0.913 . S
C1029 H1005 0.950 . S
C1029 C1028 1.524 . S
C1029 C1030 1.415 . S
C1030 H1006 0.950 . S
C1030 C1025 1.363 . S
C1030 C1029 1.415 . S
C1031 H1007 0.951 . S
C1031 C1032 1.366 . S
C1031 C1033 1.388 . S
C1032 C1031 1.366 . S
C1032 C1036 1.385 . S
C1033 H1008 0.951 . S
C1033 C1031 1.388 . S
C1033 C1034 1.366 . S
C1034 C1033 1.366 . S
C1034 C1035 1.414 . S
C1034 C1037 1.499 . S
C1035 H1009 0.950 . S
C1035 C1034 1.414 . S
C1035 C1036 1.374 . S
C1036 H1010 0.950 . S
C1036 C1032 1.385 . S
C1036 C1035 1.374 . S
C1037 C1034 1.499 . S
C1037 C1038 1.373 . S
C1037 C1039 1.389 . S
C1038 H1011 0.950 . S
C1038 C1024 1.377 . S
C1038 C1037 1.373 . S
C1039 C1023 1.377 . S
C1039 C1037 1.389 . S
C1039 C1040 1.524 . S
C1040 C1039 1.524 . S
C1040 C1041 1.397 . S
C1040 C1045 1.363 . S
C1041 H1012 0.950 . S
C1041 C1040 1.397 . S
C1041 C1042 1.334 . S
C1042 H1013 0.950 . S
C1042 C1041 1.334 . S
C1042 C1043 1.287 . S
C1043 C1042 1.287 . S
C1043 C1044 1.524 . S
C1043 H1046 0.999 . S
C1044 H1014 0.950 . S
C1044 C1043 1.524 . S
C1044 C1045 1.415 . S
C1045 H1015 0.950 . S
C1045 C1040 1.363 . S
C1045 C1044 1.415 . S
H1046 C1043 0.999 . S
H1047 C1028 0.913 . S
H1048 C1066 0.951 . S
H1049 C1068 0.951 . S
H1050 C1070 0.950 . S
H1051 C1071 0.950 . S
H1052 C1073 0.950 . S
H1053 C1076 0.950 . S
H1054 C1077 0.950 . S
H1055 C1079 0.950 . S
H1056 C1080 0.950 . S
H1057 C1081 0.951 . S
H1058 C1083 0.951 . S
H1059 C1085 0.950 . S
H1060 C1086 0.950 . S
H1061 C1088 0.950 . S
H1062 C1091 0.950 . S
H1063 C1092 0.950 . S
H1064 C1094 0.950 . S
H1065 C1095 0.950 . S
C1066 H1048 0.951 . S
C1066 C1067 1.366 . S
C1066 C1068 1.388 . S
C1067 C1066 1.366 . S
C1067 C1071 1.385 . S
C1068 H1049 0.951 . S
C1068 C1066 1.388 . S
C1068 C1069 1.366 . S
C1069 C1068 1.366 . S
C1069 C1070 1.414 . S
C1069 C1072 1.499 . S
C1070 H1050 0.950 . S
C1070 C1069 1.414 . S
C1070 C1071 1.374 . S
C1071 H1051 0.950 . S
C1071 C1067 1.385 . S
C1071 C1070 1.374 . S
C1072 C1069 1.499 . S
C1072 C1073 1.373 . S
C1072 C1074 1.389 . S
C1073 H1052 0.950 . S
C1073 C1072 1.373 . S
C1073 C1089 1.377 . S
C1074 C1072 1.389 . S
C1074 C1075 1.524 . S
C1074 C1088 1.377 . S
C1075 C1074 1.524 . S
C1075 C1076 1.397 . S
C1075 C1080 1.363 . S
C1076 H1053 0.950 . S
C1076 C1075 1.397 . S
C1076 C1077 1.334 . S
C1077 H1054 0.950 . S
C1077 C1076 1.334 . S
C1077 C1078 1.287 . S
C1078 C1077 1.287 . S
C1078 C1079 1.524 . S
C1078 H1097 0.913 . S
C1079 H1055 0.950 . S
C1079 C1078 1.524 . S
C1079 C1080 1.415 . S
C1080 H1056 0.950 . S
C1080 C1075 1.363 . S
C1080 C1079 1.415 . S
C1081 H1057 0.951 . S
C1081 C1082 1.366 . S
C1081 C1083 1.388 . S
C1082 C1081 1.366 . S
C1082 C1086 1.385 . S
C1083 H1058 0.951 . S
C1083 C1081 1.388 . S
C1083 C1084 1.366 . S
C1084 C1083 1.366 . S
C1084 C1085 1.414 . S
C1084 C1087 1.499 . S
C1085 H1059 0.950 . S
C1085 C1084 1.414 . S
C1085 C1086 1.374 . S
C1086 H1060 0.950 . S
C1086 C1082 1.385 . S
C1086 C1085 1.374 . S
C1087 C1084 1.499 . S
C1087 C1088 1.373 . S
C1087 C1089 1.389 . S
C1088 H1061 0.950 . S
C1088 C1074 1.377 . S
C1088 C1087 1.373 . S
C1089 C1073 1.377 . S
C1089 C1087 1.389 . S
C1089 C1090 1.524 . S
C1090 C1089 1.524 . S
C1090 C1091 1.397 . S
C1090 C1095 1.363 . S
C1091 H1062 0.950 . S
C1091 C1090 1.397 . S
C1091 C1092 1.334 . S
C1092 H1063 0.950 . S
C1092 C1091 1.334 . S
C1092 C1093 1.287 . S
C1093 C1092 1.287 . S
C1093 C1094 1.524 . S
C1093 H1096 0.999 . S
C1094 H1064 0.950 . S
C1094 C1093 1.524 . S
C1094 C1095 1.415 . S
C1095 H1065 0.950 . S
C1095 C1090 1.363 . S
C1095 C1094 1.415 . S
H1096 C1093 0.999 . S
H1097 C1078 0.913 . S
H1098 C1116 0.951 . S
H1099 C1118 0.951 . S
H1100 C1120 0.950 . S
H1101 C1121 0.950 . S
H1102 C1123 0.950 . S
H1103 C1126 0.950 . S
H1104 C1127 0.950 . S
H1105 C1129 0.950 . S
H1106 C1130 0.950 . S
H1107 C1131 0.951 . S
H1108 C1133 0.951 . S
H1109 C1135 0.950 . S
H1110 C1136 0.950 . S
H1111 C1138 0.950 . S
H1112 C1141 0.950 . S
H1113 C1142 0.950 . S
H1114 C1144 0.950 . S
H1115 C1145 0.950 . S
C1116 H1098 0.951 . S
C1116 C1117 1.366 . S
C1116 C1118 1.388 . S
C1117 C1116 1.366 . S
C1117 C1121 1.385 . S
C1118 H1099 0.951 . S
C1118 C1116 1.388 . S
C1118 C1119 1.366 . S
C1119 C1118 1.366 . S
C1119 C1120 1.414 . S
C1119 C1122 1.499 . S
C1120 H1100 0.950 . S
C1120 C1119 1.414 . S
C1120 C1121 1.374 . S
C1121 H1101 0.950 . S
C1121 C1117 1.385 . S
C1121 C1120 1.374 . S
C1122 C1119 1.499 . S
C1122 C1123 1.373 . S
C1122 C1124 1.389 . S
C1123 H1102 0.950 . S
C1123 C1122 1.373 . S
C1123 C1139 1.377 . S
C1124 C1122 1.389 . S
C1124 C1125 1.524 . S
C1124 C1138 1.377 . S
C1125 C1124 1.524 . S
C1125 C1126 1.397 . S
C1125 C1130 1.363 . S
C1126 H1103 0.950 . S
C1126 C1125 1.397 . S
C1126 C1127 1.334 . S
C1127 H1104 0.950 . S
C1127 C1126 1.334 . S
C1127 C1128 1.287 . S
C1128 C1127 1.287 . S
C1128 C1129 1.524 . S
C1128 H1147 0.913 . S
C1129 H1105 0.950 . S
C1129 C1128 1.524 . S
C1129 C1130 1.415 . S
C1130 H1106 0.950 . S
C1130 C1125 1.363 . S
C1130 C1129 1.415 . S
C1131 H1107 0.951 . S
C1131 C1132 1.366 . S
C1131 C1133 1.388 . S
C1132 C1131 1.366 . S
C1132 C1136 1.385 . S
C1133 H1108 0.951 . S
C1133 C1131 1.388 . S
C1133 C1134 1.366 . S
C1134 C1133 1.366 . S
C1134 C1135 1.414 . S
C1134 C1137 1.499 . S
C1135 H1109 0.950 . S
C1135 C1134 1.414 . S
C1135 C1136 1.374 . S
C1136 H1110 0.950 . S
C1136 C1132 1.385 . S
C1136 C1135 1.374 . S
C1137 C1134 1.499 . S
C1137 C1138 1.373 . S
C1137 C1139 1.389 . S
C1138 H1111 0.950 . S
C1138 C1124 1.377 . S
C1138 C1137 1.373 . S
C1139 C1123 1.377 . S
C1139 C1137 1.389 . S
C1139 C1140 1.524 . S
C1140 C1139 1.524 . S
C1140 C1141 1.397 . S
C1140 C1145 1.363 . S
C1141 H1112 0.950 . S
C1141 C1140 1.397 . S
C1141 C1142 1.334 . S
C1142 H1113 0.950 . S
C1142 C1141 1.334 . S
C1142 C1143 1.287 . S
C1143 C1142 1.287 . S
C1143 C1144 1.524 . S
C1143 H1146 0.999 . S
C1144 H1114 0.950 . S
C1144 C1143 1.524 . S
C1144 C1145 1.415 . S
C1145 H1115 0.950 . S
C1145 C1140 1.363 . S
C1145 C1144 1.415 . S
H1146 C1143 0.999 . S
H1147 C1128 0.913 . S
H1148 C1166 0.951 . S
H1149 C1168 0.951 . S
H1150 C1170 0.950 . S
H1151 C1171 0.950 . S
H1152 C1173 0.950 . S
H1153 C1176 0.950 . S
H1154 C1177 0.950 . S
H1155 C1179 0.950 . S
H1156 C1180 0.950 . S
H1157 C1181 0.951 . S
H1158 C1183 0.951 . S
H1159 C1185 0.950 . S
H1160 C1186 0.950 . S
H1161 C1188 0.950 . S
H1162 C1191 0.950 . S
H1163 C1192 0.950 . S
H1164 C1194 0.950 . S
H1165 C1195 0.950 . S
C1166 H1148 0.951 . S
C1166 C1167 1.366 . S
C1166 C1168 1.388 . S
C1167 C1166 1.366 . S
C1167 C1171 1.385 . S
C1168 H1149 0.951 . S
C1168 C1166 1.388 . S
C1168 C1169 1.366 . S
C1169 C1168 1.366 . S
C1169 C1170 1.414 . S
C1169 C1172 1.499 . S
C1170 H1150 0.950 . S
C1170 C1169 1.414 . S
C1170 C1171 1.374 . S
C1171 H1151 0.950 . S
C1171 C1167 1.385 . S
C1171 C1170 1.374 . S
C1172 C1169 1.499 . S
C1172 C1173 1.373 . S
C1172 C1174 1.389 . S
C1173 H1152 0.950 . S
C1173 C1172 1.373 . S
C1173 C1189 1.377 . S
C1174 C1172 1.389 . S
C1174 C1175 1.524 . S
C1174 C1188 1.377 . S
C1175 C1174 1.524 . S
C1175 C1176 1.397 . S
C1175 C1180 1.363 . S
C1176 H1153 0.950 . S
C1176 C1175 1.397 . S
C1176 C1177 1.334 . S
C1177 H1154 0.950 . S
C1177 C1176 1.334 . S
C1177 C1178 1.287 . S
C1178 C1177 1.287 . S
C1178 C1179 1.524 . S
C1178 H1197 0.913 . S
C1179 H1155 0.950 . S
C1179 C1178 1.524 . S
C1179 C1180 1.415 . S
C1180 H1156 0.950 . S
C1180 C1175 1.363 . S
C1180 C1179 1.415 . S
C1181 H1157 0.951 . S
C1181 C1182 1.366 . S
C1181 C1183 1.388 . S
C1182 C1181 1.366 . S
C1182 C1186 1.385 . S
C1183 H1158 0.951 . S
C1183 C1181 1.388 . S
C1183 C1184 1.366 . S
C1184 C1183 1.366 . S
C1184 C1185 1.414 . S
C1184 C1187 1.499 . S
C1185 H1159 0.950 . S
C1185 C1184 1.414 . S
C1185 C1186 1.374 . S
C1186 H1160 0.950 . S
C1186 C1182 1.385 . S
C1186 C1185 1.374 . S
C1187 C1184 1.499 . S
C1187 C1188 1.373 . S
C1187 C1189 1.389 . S
C1188 H1161 0.950 . S
C1188 C1174 1.377 . S
C1188 C1187 1.373 . S
C1189 C1173 1.377 . S
C1189 C1187 1.389 . S
C1189 C1190 1.524 . S
C1190 C1189 1.524 . S
C1190 C1191 1.397 . S
C1190 C1195 1.363 . S
C1191 H1162 0.950 . S
C1191 C1190 1.397 . S
C1191 C1192 1.334 . S
C1192 H1163 0.950 . S
C1192 C1191 1.334 . S
C1192 C1193 1.287 . S
C1193 C1192 1.287 . S
C1193 C1194 1.524 . S
C1193 H1196 0.999 . S
C1194 H1164 0.950 . S
C1194 C1193 1.524 . S
C1194 C1195 1.415 . S
C1195 H1165 0.950 . S
C1195 C1190 1.363 . S
C1195 C1194 1.415 . S
H1196 C1193 0.999 . S
H1197 C1178 0.913 . S
H1198 C1216 0.951 . S
H1199 C1218 0.951 . S
H1200 C1220 0.950 . S
H1201 C1221 0.950 . S
H1202 C1223 0.950 . S
H1203 C1226 0.950 . S
H1204 C1227 0.950 . S
H1205 C1229 0.950 . S
H1206 C1230 0.950 . S
H1207 C1231 0.951 . S
H1208 C1233 0.951 . S
H1209 C1235 0.950 . S
H1210 C1236 0.950 . S
H1211 C1238 0.950 . S
H1212 C1241 0.950 . S
H1213 C1242 0.950 . S
H1214 C1244 0.950 . S
H1215 C1245 0.950 . S
C1216 H1198 0.951 . S
C1216 C1217 1.366 . S
C1216 C1218 1.388 . S
C1217 C1216 1.366 . S
C1217 C1221 1.385 . S
C1218 H1199 0.951 . S
C1218 C1216 1.388 . S
C1218 C1219 1.366 . S
C1219 C1218 1.366 . S
C1219 C1220 1.414 . S
C1219 C1222 1.499 . S
C1220 H1200 0.950 . S
C1220 C1219 1.414 . S
C1220 C1221 1.374 . S
C1221 H1201 0.950 . S
C1221 C1217 1.385 . S
C1221 C1220 1.374 . S
C1222 C1219 1.499 . S
C1222 C1223 1.373 . S
C1222 C1224 1.389 . S
C1223 H1202 0.950 . S
C1223 C1222 1.373 . S
C1223 C1239 1.377 . S
C1224 C1222 1.389 . S
C1224 C1225 1.524 . S
C1224 C1238 1.377 . S
C1225 C1224 1.524 . S
C1225 C1226 1.397 . S
C1225 C1230 1.363 . S
C1226 H1203 0.950 . S
C1226 C1225 1.397 . S
C1226 C1227 1.334 . S
C1227 H1204 0.950 . S
C1227 C1226 1.334 . S
C1227 C1228 1.287 . S
C1228 C1227 1.287 . S
C1228 C1229 1.524 . S
C1228 H1247 0.913 . S
C1229 H1205 0.950 . S
C1229 C1228 1.524 . S
C1229 C1230 1.415 . S
C1230 H1206 0.950 . S
C1230 C1225 1.363 . S
C1230 C1229 1.415 . S
C1231 H1207 0.951 . S
C1231 C1232 1.366 . S
C1231 C1233 1.388 . S
C1232 C1231 1.366 . S
C1232 C1236 1.385 . S
C1233 H1208 0.951 . S
C1233 C1231 1.388 . S
C1233 C1234 1.366 . S
C1234 C1233 1.366 . S
C1234 C1235 1.414 . S
C1234 C1237 1.499 . S
C1235 H1209 0.950 . S
C1235 C1234 1.414 . S
C1235 C1236 1.374 . S
C1236 H1210 0.950 . S
C1236 C1232 1.385 . S
C1236 C1235 1.374 . S
C1237 C1234 1.499 . S
C1237 C1238 1.373 . S
C1237 C1239 1.389 . S
C1238 H1211 0.950 . S
C1238 C1224 1.377 . S
C1238 C1237 1.373 . S
C1239 C1223 1.377 . S
C1239 C1237 1.389 . S
C1239 C1240 1.524 . S
C1240 C1239 1.524 . S
C1240 C1241 1.397 . S
C1240 C1245 1.363 . S
C1241 H1212 0.950 . S
C1241 C1240 1.397 . S
C1241 C1242 1.334 . S
C1242 H1213 0.950 . S
C1242 C1241 1.334 . S
C1242 C1243 1.287 . S
C1243 C1242 1.287 . S
C1243 C1244 1.524 . S
C1243 H1246 0.999 . S
C1244 H1214 0.950 . S
C1244 C1243 1.524 . S
C1244 C1245 1.415 . S
C1245 H1215 0.950 . S
C1245 C1240 1.363 . S
C1245 C1244 1.415 . S
H1246 C1243 0.999 . S
H1247 C1228 0.913 . S
H1248 C1266 0.951 . S
H1249 C1268 0.951 . S
H1250 C1270 0.950 . S
H1251 C1271 0.950 . S
H1252 C1273 0.950 . S
H1253 C1276 0.950 . S
H1254 C1277 0.950 . S
H1255 C1279 0.950 . S
H1256 C1280 0.950 . S
H1257 C1281 0.951 . S
H1258 C1283 0.951 . S
H1259 C1285 0.950 . S
H1260 C1286 0.950 . S
H1261 C1288 0.950 . S
H1262 C1291 0.950 . S
H1263 C1292 0.950 . S
H1264 C1294 0.950 . S
H1265 C1295 0.950 . S
C1266 H1248 0.951 . S
C1266 C1267 1.366 . S
C1266 C1268 1.388 . S
C1267 C1266 1.366 . S
C1267 C1271 1.385 . S
C1268 H1249 0.951 . S
C1268 C1266 1.388 . S
C1268 C1269 1.366 . S
C1269 C1268 1.366 . S
C1269 C1270 1.414 . S
C1269 C1272 1.499 . S
C1270 H1250 0.950 . S
C1270 C1269 1.414 . S
C1270 C1271 1.374 . S
C1271 H1251 0.950 . S
C1271 C1267 1.385 . S
C1271 C1270 1.374 . S
C1272 C1269 1.499 . S
C1272 C1273 1.373 . S
C1272 C1274 1.389 . S
C1273 H1252 0.950 . S
C1273 C1272 1.373 . S
C1273 C1289 1.377 . S
C1274 C1272 1.389 . S
C1274 C1275 1.524 . S
C1274 C1288 1.377 . S
C1275 C1274 1.524 . S
C1275 C1276 1.397 . S
C1275 C1280 1.363 . S
C1276 H1253 0.950 . S
C1276 C1275 1.397 . S
C1276 C1277 1.334 . S
C1277 H1254 0.950 . S
C1277 C1276 1.334 . S
C1277 C1278 1.287 . S
C1278 C1277 1.287 . S
C1278 C1279 1.524 . S
C1278 H1297 0.913 . S
C1279 H1255 0.950 . S
C1279 C1278 1.524 . S
C1279 C1280 1.415 . S
C1280 H1256 0.950 . S
C1280 C1275 1.363 . S
C1280 C1279 1.415 . S
C1281 H1257 0.951 . S
C1281 C1282 1.366 . S
C1281 C1283 1.388 . S
C1282 C1281 1.366 . S
C1282 C1286 1.385 . S
C1283 H1258 0.951 . S
C1283 C1281 1.388 . S
C1283 C1284 1.366 . S
C1284 C1283 1.366 . S
C1284 C1285 1.414 . S
C1284 C1287 1.499 . S
C1285 H1259 0.950 . S
C1285 C1284 1.414 . S
C1285 C1286 1.374 . S
C1286 H1260 0.950 . S
C1286 C1282 1.385 . S
C1286 C1285 1.374 . S
C1287 C1284 1.499 . S
C1287 C1288 1.373 . S
C1287 C1289 1.389 . S
C1288 H1261 0.950 . S
C1288 C1274 1.377 . S
C1288 C1287 1.373 . S
C1289 C1273 1.377 . S
C1289 C1287 1.389 . S
C1289 C1290 1.524 . S
C1290 C1289 1.524 . S
C1290 C1291 1.397 . S
C1290 C1295 1.363 . S
C1291 H1262 0.950 . S
C1291 C1290 1.397 . S
C1291 C1292 1.334 . S
C1292 H1263 0.950 . S
C1292 C1291 1.334 . S
C1292 C1293 1.287 . S
C1293 C1292 1.287 . S
C1293 C1294 1.524 . S
C1293 H1296 0.999 . S
C1294 H1264 0.950 . S
C1294 C1293 1.524 . S
C1294 C1295 1.415 . S
C1295 H1265 0.950 . S
C1295 C1290 1.363 . S
C1295 C1294 1.415 . S
H1296 C1293 0.999 . S
H1297 C1278 0.913 . S
H1298 C1316 0.951 . S
H1299 C1318 0.951 . S
H1300 C1320 0.950 . S
H1301 C1321 0.950 . S
H1302 C1323 0.950 . S
H1303 C1326 0.950 . S
H1304 C1327 0.950 . S
H1305 C1329 0.950 . S
H1306 C1330 0.950 . S
H1307 C1331 0.951 . S
H1308 C1333 0.951 . S
H1309 C1335 0.950 . S
H1310 C1336 0.950 . S
H1311 C1338 0.950 . S
H1312 C1341 0.950 . S
H1313 C1342 0.950 . S
H1314 C1344 0.950 . S
H1315 C1345 0.950 . S
C1316 H1298 0.951 . S
C1316 C1317 1.366 . S
C1316 C1318 1.388 . S
C1317 C1316 1.366 . S
C1317 C1321 1.385 . S
C1318 H1299 0.951 . S
C1318 C1316 1.388 . S
C1318 C1319 1.366 . S
C1319 C1318 1.366 . S
C1319 C1320 1.414 . S
C1319 C1322 1.499 . S
C1320 H1300 0.950 . S
C1320 C1319 1.414 . S
C1320 C1321 1.374 . S
C1321 H1301 0.950 . S
C1321 C1317 1.385 . S
C1321 C1320 1.374 . S
C1322 C1319 1.499 . S
C1322 C1323 1.373 . S
C1322 C1324 1.389 . S
C1323 H1302 0.950 . S
C1323 C1322 1.373 . S
C1323 C1339 1.377 . S
C1324 C1322 1.389 . S
C1324 C1325 1.524 . S
C1324 C1338 1.377 . S
C1325 C1324 1.524 . S
C1325 C1326 1.397 . S
C1325 C1330 1.363 . S
C1326 H1303 0.950 . S
C1326 C1325 1.397 . S
C1326 C1327 1.334 . S
C1327 H1304 0.950 . S
C1327 C1326 1.334 . S
C1327 C1328 1.287 . S
C1328 C1327 1.287 . S
C1328 C1329 1.524 . S
C1328 H1347 0.913 . S
C1329 H1305 0.950 . S
C1329 C1328 1.524 . S
C1329 C1330 1.415 . S
C1330 H1306 0.950 . S
C1330 C1325 1.363 . S
C1330 C1329 1.415 . S
C1331 H1307 0.951 . S
C1331 C1332 1.366 . S
C1331 C1333 1.388 . S
C1332 C1331 1.366 . S
C1332 C1336 1.385 . S
C1333 H1308 0.951 . S
C1333 C1331 1.388 . S
C1333 C1334 1.366 . S
C1334 C1333 1.366 . S
C1334 C1335 1.414 . S
C1334 C1337 1.499 . S
C1335 H1309 0.950 . S
C1335 C1334 1.414 . S
C1335 C1336 1.374 . S
C1336 H1310 0.950 . S
C1336 C1332 1.385 . S
C1336 C1335 1.374 . S
C1337 C1334 1.499 . S
C1337 C1338 1.373 . S
C1337 C1339 1.389 . S
C1338 H1311 0.950 . S
C1338 C1324 1.377 . S
C1338 C1337 1.373 . S
C1339 C1323 1.377 . S
C1339 C1337 1.389 . S
C1339 C1340 1.524 . S
C1340 C1339 1.524 . S
C1340 C1341 1.397 . S
C1340 C1345 1.363 . S
C1341 H1312 0.950 . S
C1341 C1340 1.397 . S
C1341 C1342 1.334 . S
C1342 H1313 0.950 . S
C1342 C1341 1.334 . S
C1342 C1343 1.287 . S
C1343 C1342 1.287 . S
C1343 C1344 1.524 . S
C1343 H1346 0.999 . S
C1344 H1314 0.950 . S
C1344 C1343 1.524 . S
C1344 C1345 1.415 . S
C1345 H1315 0.950 . S
C1345 C1340 1.363 . S
C1345 C1344 1.415 . S
H1346 C1343 0.999 . S
H1347 C1328 0.913 . S
H1348 C1366 0.951 . S
H1349 C1368 0.951 . S
H1350 C1370 0.950 . S
H1351 C1371 0.950 . S
H1352 C1373 0.950 . S
H1353 C1376 0.950 . S
H1354 C1377 0.950 . S
H1355 C1379 0.950 . S
H1356 C1380 0.950 . S
H1357 C1381 0.951 . S
H1358 C1383 0.951 . S
H1359 C1385 0.950 . S
H1360 C1386 0.950 . S
H1361 C1388 0.950 . S
H1362 C1391 0.950 . S
H1363 C1392 0.950 . S
H1364 C1394 0.950 . S
H1365 C1395 0.950 . S
C1366 H1348 0.951 . S
C1366 C1367 1.366 . S
C1366 C1368 1.388 . S
C1367 C1366 1.366 . S
C1367 C1371 1.385 . S
C1368 H1349 0.951 . S
C1368 C1366 1.388 . S
C1368 C1369 1.366 . S
C1369 C1368 1.366 . S
C1369 C1370 1.414 . S
C1369 C1372 1.499 . S
C1370 H1350 0.950 . S
C1370 C1369 1.414 . S
C1370 C1371 1.374 . S
C1371 H1351 0.950 . S
C1371 C1367 1.385 . S
C1371 C1370 1.374 . S
C1372 C1369 1.499 . S
C1372 C1373 1.373 . S
C1372 C1374 1.389 . S
C1373 H1352 0.950 . S
C1373 C1372 1.373 . S
C1373 C1389 1.377 . S
C1374 C1372 1.389 . S
C1374 C1375 1.524 . S
C1374 C1388 1.377 . S
C1375 C1374 1.524 . S
C1375 C1376 1.397 . S
C1375 C1380 1.363 . S
C1376 H1353 0.950 . S
C1376 C1375 1.397 . S
C1376 C1377 1.334 . S
C1377 H1354 0.950 . S
C1377 C1376 1.334 . S
C1377 C1378 1.287 . S
C1378 C1377 1.287 . S
C1378 C1379 1.524 . S
C1378 H1397 0.913 . S
C1379 H1355 0.950 . S
C1379 C1378 1.524 . S
C1379 C1380 1.415 . S
C1380 H1356 0.950 . S
C1380 C1375 1.363 . S
C1380 C1379 1.415 . S
C1381 H1357 0.951 . S
C1381 C1382 1.366 . S
C1381 C1383 1.388 . S
C1382 C1381 1.366 . S
C1382 C1386 1.385 . S
C1383 H1358 0.951 . S
C1383 C1381 1.388 . S
C1383 C1384 1.366 . S
C1384 C1383 1.366 . S
C1384 C1385 1.414 . S
C1384 C1387 1.499 . S
C1385 H1359 0.950 . S
C1385 C1384 1.414 . S
C1385 C1386 1.374 . S
C1386 H1360 0.950 . S
C1386 C1382 1.385 . S
C1386 C1385 1.374 . S
C1387 C1384 1.499 . S
C1387 C1388 1.373 . S
C1387 C1389 1.389 . S
C1388 H1361 0.950 . S
C1388 C1374 1.377 . S
C1388 C1387 1.373 . S
C1389 C1373 1.377 . S
C1389 C1387 1.389 . S
C1389 C1390 1.524 . S
C1390 C1389 1.524 . S
C1390 C1391 1.397 . S
C1390 C1395 1.363 . S
C1391 H1362 0.950 . S
C1391 C1390 1.397 . S
C1391 C1392 1.334 . S
C1392 H1363 0.950 . S
C1392 C1391 1.334 . S
C1392 C1393 1.287 . S
C1393 C1392 1.287 . S
C1393 C1394 1.524 . S
C1393 H1396 0.999 . S
C1394 H1364 0.950 . S
C1394 C1393 1.524 . S
C1394 C1395 1.415 . S
C1395 H1365 0.950 . S
C1395 C1390 1.363 . S
C1395 C1394 1.415 . S
H1396 C1393 0.999 . S
H1397 C1378 0.913 . S
H1398 C1416 0.951 . S
H1399 C1418 0.951 . S
H1400 C1420 0.950 . S
H1401 C1421 0.950 . S
H1402 C1423 0.950 . S
H1403 C1426 0.950 . S
H1404 C1427 0.950 . S
H1405 C1429 0.950 . S
H1406 C1430 0.950 . S
H1407 C1431 0.951 . S
H1408 C1433 0.951 . S
H1409 C1435 0.950 . S
H1410 C1436 0.950 . S
H1411 C1438 0.950 . S
H1412 C1441 0.950 . S
H1413 C1442 0.950 . S
H1414 C1444 0.950 . S
H1415 C1445 0.950 . S
C1416 H1398 0.951 . S
C1416 C1417 1.366 . S
C1416 C1418 1.388 . S
C1417 C1416 1.366 . S
C1417 C1421 1.385 . S
C1418 H1399 0.951 . S
C1418 C1416 1.388 . S
C1418 C1419 1.366 . S
C1419 C1418 1.366 . S
C1419 C1420 1.414 . S
C1419 C1422 1.499 . S
C1420 H1400 0.950 . S
C1420 C1419 1.414 . S
C1420 C1421 1.374 . S
C1421 H1401 0.950 . S
C1421 C1417 1.385 . S
C1421 C1420 1.374 . S
C1422 C1419 1.499 . S
C1422 C1423 1.373 . S
C1422 C1424 1.389 . S
C1423 H1402 0.950 . S
C1423 C1422 1.373 . S
C1423 C1439 1.377 . S
C1424 C1422 1.389 . S
C1424 C1425 1.524 . S
C1424 C1438 1.377 . S
C1425 C1424 1.524 . S
C1425 C1426 1.397 . S
C1425 C1430 1.363 . S
C1426 H1403 0.950 . S
C1426 C1425 1.397 . S
C1426 C1427 1.334 . S
C1427 H1404 0.950 . S
C1427 C1426 1.334 . S
C1427 C1428 1.287 . S
C1428 C1427 1.287 . S
C1428 C1429 1.524 . S
C1428 H1447 0.913 . S
C1429 H1405 0.950 . S
C1429 C1428 1.524 . S
C1429 C1430 1.415 . S
C1430 H1406 0.950 . S
C1430 C1425 1.363 . S
C1430 C1429 1.415 . S
C1431 H1407 0.951 . S
C1431 C1432 1.366 . S
C1431 C1433 1.388 . S
C1432 C1431 1.366 . S
C1432 C1436 1.385 . S
C1433 H1408 0.951 . S
C1433 C1431 1.388 . S
C1433 C1434 1.366 . S
C1434 C1433 1.366 . S
C1434 C1435 1.414 . S
C1434 C1437 1.499 . S
C1435 H1409 0.950 . S
C1435 C1434 1.414 . S
C1435 C1436 1.374 . S
C1436 H1410 0.950 . S
C1436 C1432 1.385 . S
C1436 C1435 1.374 . S
C1437 C1434 1.499 . S
C1437 C1438 1.373 . S
C1437 C1439 1.389 . S
C1438 H1411 0.950 . S
C1438 C1424 1.377 . S
C1438 C1437 1.373 . S
C1439 C1423 1.377 . S
C1439 C1437 1.389 . S
C1439 C1440 1.524 . S
C1440 C1439 1.524 . S
C1440 C1441 1.397 . S
C1440 C1445 1.363 . S
C1441 H1412 0.950 . S
C1441 C1440 1.397 . S
C1441 C1442 1.334 . S
C1442 H1413 0.950 . S
C1442 C1441 1.334 . S
C1442 C1443 1.287 . S
C1443 C1442 1.287 . S
C1443 C1444 1.524 . S
C1443 H1446 0.999 . S
C1444 H1414 0.950 . S
C1444 C1443 1.524 . S
C1444 C1445 1.415 . S
C1445 H1415 0.950 . S
C1445 C1440 1.363 . S
C1445 C1444 1.415 . S
H1446 C1443 0.999 . S
H1447 C1428 0.913 . S
H1448 C1466 0.951 . S
H1449 C1468 0.951 . S
H1450 C1470 0.950 . S
H1451 C1471 0.950 . S
H1452 C1473 0.950 . S
H1453 C1476 0.950 . S
H1454 C1477 0.950 . S
H1455 C1479 0.950 . S
H1456 C1480 0.950 . S
H1457 C1481 0.951 . S
H1458 C1483 0.951 . S
H1459 C1485 0.950 . S
H1460 C1486 0.950 . S
H1461 C1488 0.950 . S
H1462 C1491 0.950 . S
H1463 C1492 0.950 . S
H1464 C1494 0.950 . S
H1465 C1495 0.950 . S
C1466 H1448 0.951 . S
C1466 C1467 1.366 . S
C1466 C1468 1.388 . S
C1467 C1466 1.366 . S
C1467 C1471 1.385 . S
C1468 H1449 0.951 . S
C1468 C1466 1.388 . S
C1468 C1469 1.366 . S
C1469 C1468 1.366 . S
C1469 C1470 1.414 . S
C1469 C1472 1.499 . S
C1470 H1450 0.950 . S
C1470 C1469 1.414 . S
C1470 C1471 1.374 . S
C1471 H1451 0.950 . S
C1471 C1467 1.385 . S
C1471 C1470 1.374 . S
C1472 C1469 1.499 . S
C1472 C1473 1.373 . S
C1472 C1474 1.389 . S
C1473 H1452 0.950 . S
C1473 C1472 1.373 . S
C1473 C1489 1.377 . S
C1474 C1472 1.389 . S
C1474 C1475 1.524 . S
C1474 C1488 1.377 . S
C1475 C1474 1.524 . S
C1475 C1476 1.397 . S
C1475 C1480 1.363 . S
C1476 H1453 0.950 . S
C1476 C1475 1.397 . S
C1476 C1477 1.334 . S
C1477 H1454 0.950 . S
C1477 C1476 1.334 . S
C1477 C1478 1.287 . S
C1478 C1477 1.287 . S
C1478 C1479 1.524 . S
C1478 H1497 0.913 . S
C1479 H1455 0.950 . S
C1479 C1478 1.524 . S
C1479 C1480 1.415 . S
C1480 H1456 0.950 . S
C1480 C1475 1.363 . S
C1480 C1479 1.415 . S
C1481 H1457 0.951 . S
C1481 C1482 1.366 . S
C1481 C1483 1.388 . S
C1482 C1481 1.366 . S
C1482 C1486 1.385 . S
C1483 H1458 0.951 . S
C1483 C1481 1.388 . S
C1483 C1484 1.366 . S
C1484 C1483 1.366 . S
C1484 C1485 1.414 . S
C1484 C1487 1.499 . S
C1485 H1459 0.950 . S
C1485 C1484 1.414 . S
C1485 C1486 1.374 . S
C1486 H1460 0.950 . S
C1486 C1482 1.385 . S
C1486 C1485 1.374 . S
C1487 C1484 1.499 . S
C1487 C1488 1.373 . S
C1487 C1489 1.389 . S
C1488 H1461 0.950 . S
C1488 C1474 1.377 . S
C1488 C1487 1.373 . S
C1489 C1473 1.377 . S
C1489 C1487 1.389 . S
C1489 C1490 1.524 . S
C1490 C1489 1.524 . S
C1490 C1491 1.397 . S
C1490 C1495 1.363 . S
C1491 H1462 0.950 . S
C1491 C1490 1.397 . S
C1491 C1492 1.334 . S
C1492 H1463 0.950 . S
C1492 C1491 1.334 . S
C1492 C1493 1.287 . S
C1493 C1492 1.287 . S
C1493 C1494 1.524 . S
C1493 H1496 0.999 . S
C1494 H1464 0.950 . S
C1494 C1493 1.524 . S
C1494 C1495 1.415 . S
C1495 H1465 0.950 . S
C1495 C1490 1.363 . S
C1495 C1494 1.415 . S
H1496 C1493 0.999 . S
H1497 C1478 0.913 . S
H1498 C1516 0.951 . S
H1499 C1518 0.951 . S
H1500 C1520 0.950 . S
H1501 C1521 0.950 . S
H1502 C1523 0.950 . S
H1503 C1526 0.950 . S
H1504 C1527 0.950 . S
H1505 C1529 0.950 . S
H1506 C1530 0.950 . S
H1507 C1531 0.951 . S
H1508 C1533 0.951 . S
H1509 C1535 0.950 . S
H1510 C1536 0.950 . S
H1511 C1538 0.950 . S
H1512 C1541 0.950 . S
H1513 C1542 0.950 . S
H1514 C1544 0.950 . S
H1515 C1545 0.950 . S
C1516 H1498 0.951 . S
C1516 C1517 1.366 . S
C1516 C1518 1.388 . S
C1517 C1516 1.366 . S
C1517 C1521 1.385 . S
C1518 H1499 0.951 . S
C1518 C1516 1.388 . S
C1518 C1519 1.366 . S
C1519 C1518 1.366 . S
C1519 C1520 1.414 . S
C1519 C1522 1.499 . S
C1520 H1500 0.950 . S
C1520 C1519 1.414 . S
C1520 C1521 1.374 . S
C1521 H1501 0.950 . S
C1521 C1517 1.385 . S
C1521 C1520 1.374 . S
C1522 C1519 1.499 . S
C1522 C1523 1.373 . S
C1522 C1524 1.389 . S
C1523 H1502 0.950 . S
C1523 C1522 1.373 . S
C1523 C1539 1.377 . S
C1524 C1522 1.389 . S
C1524 C1525 1.524 . S
C1524 C1538 1.377 . S
C1525 C1524 1.524 . S
C1525 C1526 1.397 . S
C1525 C1530 1.363 . S
C1526 H1503 0.950 . S
C1526 C1525 1.397 . S
C1526 C1527 1.334 . S
C1527 H1504 0.950 . S
C1527 C1526 1.334 . S
C1527 C1528 1.287 . S
C1528 C1527 1.287 . S
C1528 C1529 1.524 . S
C1528 H1547 0.913 . S
C1529 H1505 0.950 . S
C1529 C1528 1.524 . S
C1529 C1530 1.415 . S
C1530 H1506 0.950 . S
C1530 C1525 1.363 . S
C1530 C1529 1.415 . S
C1531 H1507 0.951 . S
C1531 C1532 1.366 . S
C1531 C1533 1.388 . S
C1532 C1531 1.366 . S
C1532 C1536 1.385 . S
C1533 H1508 0.951 . S
C1533 C1531 1.388 . S
C1533 C1534 1.366 . S
C1534 C1533 1.366 . S
C1534 C1535 1.414 . S
C1534 C1537 1.499 . S
C1535 H1509 0.950 . S
C1535 C1534 1.414 . S
C1535 C1536 1.374 . S
C1536 H1510 0.950 . S
C1536 C1532 1.385 . S
C1536 C1535 1.374 . S
C1537 C1534 1.499 . S
C1537 C1538 1.373 . S
C1537 C1539 1.389 . S
C1538 H1511 0.950 . S
C1538 C1524 1.377 . S
C1538 C1537 1.373 . S
C1539 C1523 1.377 . S
C1539 C1537 1.389 . S
C1539 C1540 1.524 . S
C1540 C1539 1.524 . S
C1540 C1541 1.397 . S
C1540 C1545 1.363 . S
C1541 H1512 0.950 . S
C1541 C1540 1.397 . S
C1541 C1542 1.334 . S
C1542 H1513 0.950 . S
C1542 C1541 1.334 . S
C1542 C1543 1.287 . S
C1543 C1542 1.287 . S
C1543 C1544 1.524 . S
C1543 H1546 0.999 . S
C1544 H1514 0.950 . S
C1544 C1543 1.524 . S
C1544 C1545 1.415 . S
C1545 H1515 0.950 . S
C1545 C1540 1.363 . S
C1545 C1544 1.415 . S
H1546 C1543 0.999 . S
H1547 C1528 0.913 . S
H1548 C1566 0.951 . S
H1549 C1568 0.951 . S
H1550 C1570 0.950 . S
H1551 C1571 0.950 . S
H1552 C1573 0.950 . S
H1553 C1576 0.950 . S
H1554 C1577 0.950 . S
H1555 C1579 0.950 . S
H1556 C1580 0.950 . S
H1557 C1581 0.951 . S
H1558 C1583 0.951 . S
H1559 C1585 0.950 . S
H1560 C1586 0.950 . S
H1561 C1588 0.950 . S
H1562 C1591 0.950 . S
H1563 C1592 0.950 . S
H1564 C1594 0.950 . S
H1565 C1595 0.950 . S
C1566 H1548 0.951 . S
C1566 C1567 1.366 . S
C1566 C1568 1.388 . S
C1567 C1566 1.366 . S
C1567 C1571 1.385 . S
C1568 H1549 0.951 . S
C1568 C1566 1.388 . S
C1568 C1569 1.366 . S
C1569 C1568 1.366 . S
C1569 C1570 1.414 . S
C1569 C1572 1.499 . S
C1570 H1550 0.950 . S
C1570 C1569 1.414 . S
C1570 C1571 1.374 . S
C1571 H1551 0.950 . S
C1571 C1567 1.385 . S
C1571 C1570 1.374 . S
C1572 C1569 1.499 . S
C1572 C1573 1.373 . S
C1572 C1574 1.389 . S
C1573 H1552 0.950 . S
C1573 C1572 1.373 . S
C1573 C1589 1.377 . S
C1574 C1572 1.389 . S
C1574 C1575 1.524 . S
C1574 C1588 1.377 . S
C1575 C1574 1.524 . S
C1575 C1576 1.397 . S
C1575 C1580 1.363 . S
C1576 H1553 0.950 . S
C1576 C1575 1.397 . S
C1576 C1577 1.334 . S
C1577 H1554 0.950 . S
C1577 C1576 1.334 . S
C1577 C1578 1.287 . S
C1578 C1577 1.287 . S
C1578 C1579 1.524 . S
C1578 H1597 0.913 . S
C1579 H1555 0.950 . S
C1579 C1578 1.524 . S
C1579 C1580 1.415 . S
C1580 H1556 0.950 . S
C1580 C1575 1.363 . S
C1580 C1579 1.415 . S
C1581 H1557 0.951 . S
C1581 C1582 1.366 . S
C1581 C1583 1.388 . S
C1582 C1581 1.366 . S
C1582 C1586 1.385 . S
C1583 H1558 0.951 . S
C1583 C1581 1.388 . S
C1583 C1584 1.366 . S
C1584 C1583 1.366 . S
C1584 C1585 1.414 . S
C1584 C1587 1.499 . S
C1585 H1559 0.950 . S
C1585 C1584 1.414 . S
C1585 C1586 1.374 . S
C1586 H1560 0.950 . S
C1586 C1582 1.385 . S
C1586 C1585 1.374 . S
C1587 C1584 1.499 . S
C1587 C1588 1.373 . S
C1587 C1589 1.389 . S
C1588 H1561 0.950 . S
C1588 C1574 1.377 . S
C1588 C1587 1.373 . S
C1589 C1573 1.377 . S
C1589 C1587 1.389 . S
C1589 C1590 1.524 . S
C1590 C1589 1.524 . S
C1590 C1591 1.397 . S
C1590 C1595 1.363 . S
C1591 H1562 0.950 . S
C1591 C1590 1.397 . S
C1591 C1592 1.334 1_455 S
C1592 H1563 0.950 . S
C1592 C1591 1.334 1_655 S
C1592 C1593 1.287 . S
C1593 C1592 1.287 . S
C1593 C1594 1.524 1_655 S
C1593 H1596 0.999 . S
C1594 H1564 0.950 . S
C1594 C1593 1.524 1_455 S
C1594 C1595 1.415 . S
C1595 H1565 0.950 . S
C1595 C1590 1.363 . S
C1595 C1594 1.415 . S
H1596 C1593 0.999 . S
H1597 C1578 0.913 . S
H1598 C1616 0.951 . S
H1599 C1618 0.951 . S
H1600 C1620 0.950 . S
H1601 C1621 0.950 . S
H1602 C1623 0.950 . S
H1603 C1626 0.950 . S
H1604 C1627 0.950 . S
H1605 C1629 0.950 . S
H1606 C1630 0.950 . S
H1607 C1631 0.951 . S
H1608 C1633 0.951 . S
H1609 C1635 0.950 . S
H1610 C1636 0.950 . S
H1611 C1638 0.950 . S
H1612 C1641 0.950 . S
H1613 C1642 0.950 . S
H1614 C1644 0.950 . S
H1615 C1645 0.950 . S
C1616 H1598 0.951 . S
C1616 C1617 1.366 . S
C1616 C1618 1.388 . S
C1617 C1616 1.366 . S
C1617 C1621 1.385 . S
C1618 H1599 0.951 . S
C1618 C1616 1.388 . S
C1618 C1619 1.366 . S
C1619 C1618 1.366 . S
C1619 C1620 1.414 . S
C1619 C1622 1.499 . S
C1620 H1600 0.950 . S
C1620 C1619 1.414 . S
C1620 C1621 1.374 . S
C1621 H1601 0.950 . S
C1621 C1617 1.385 . S
C1621 C1620 1.374 . S
C1622 C1619 1.499 . S
C1622 C1623 1.373 . S
C1622 C1624 1.389 . S
C1623 H1602 0.950 . S
C1623 C1622 1.373 . S
C1623 C1639 1.377 . S
C1624 C1622 1.389 . S
C1624 C1625 1.524 . S
C1624 C1638 1.377 . S
C1625 C1624 1.524 . S
C1625 C1626 1.397 . S
C1625 C1630 1.363 . S
C1626 H1603 0.950 . S
C1626 C1625 1.397 . S
C1626 C1627 1.334 . S
C1627 H1604 0.950 . S
C1627 C1626 1.334 . S
C1627 C1628 1.287 . S
C1628 C1627 1.287 . S
C1628 C1629 1.524 . S
C1628 H1647 0.913 . S
C1629 H1605 0.950 . S
C1629 C1628 1.524 . S
C1629 C1630 1.415 . S
C1630 H1606 0.950 . S
C1630 C1625 1.363 . S
C1630 C1629 1.415 . S
C1631 H1607 0.951 . S
C1631 C1632 1.366 . S
C1631 C1633 1.388 . S
C1632 C1631 1.366 . S
C1632 C1636 1.385 . S
C1633 H1608 0.951 . S
C1633 C1631 1.388 . S
C1633 C1634 1.366 . S
C1634 C1633 1.366 . S
C1634 C1635 1.414 . S
C1634 C1637 1.499 . S
C1635 H1609 0.950 . S
C1635 C1634 1.414 . S
C1635 C1636 1.374 . S
C1636 H1610 0.950 . S
C1636 C1632 1.385 . S
C1636 C1635 1.374 . S
C1637 C1634 1.499 . S
C1637 C1638 1.373 . S
C1637 C1639 1.389 . S
C1638 H1611 0.950 . S
C1638 C1624 1.377 . S
C1638 C1637 1.373 . S
C1639 C1623 1.377 . S
C1639 C1637 1.389 . S
C1639 C1640 1.524 . S
C1640 C1639 1.524 . S
C1640 C1641 1.397 . S
C1640 C1645 1.363 . S
C1641 H1612 0.950 . S
C1641 C1640 1.397 . S
C1641 C1642 1.334 . S
C1642 H1613 0.950 . S
C1642 C1641 1.334 . S
C1642 C1643 1.287 . S
C1643 C1642 1.287 . S
C1643 C1644 1.524 . S
C1643 H1646 0.999 . S
C1644 H1614 0.950 . S
C1644 C1643 1.524 . S
C1644 C1645 1.415 . S
C1645 H1615 0.950 . S
C1645 C1640 1.363 . S
C1645 C1644 1.415 . S
H1646 C1643 0.999 . S
H1647 C1628 0.913 . S
C467 C1 0.932 . S
C482 C303 0.925 . S
C517 C67 1.615 . S
C532 C347 1.578 . S
C582 C377 1.997 . S
C567 C97 2.000 . S
C617 C133 2.802 . S
C632 C418 2.779 . S
C682 C334 0.700 . S
C667 C25 0.699 . S
C732 C298 2.620 . S
C717 C37 2.617 . S
C782 C426 1.096 . S
C767 C103 1.107 . S
C832 C387 2.137 . S
C817 C109 2.179 . S
C867 C31 0.689 . S
C882 C423 0.692 . S
C932 C337 1.959 . S
C917 C73 2.013 . S
C967 C139 2.137 . S
C982 C306 2.099 . S
C1017 C61 1.885 . S
C1032 C374 1.891 . S
C1082 C294 0.927 . S
C1067 C175 0.919 . S
C1117 C181 1.592 . S
C1132 C338 1.559 . S
C1167 C247 2.002 . S
C1182 C386 2.020 . S
C1217 C277 2.798 . S
C1232 C427 2.770 . S
C1267 C145 0.695 . S
C1282 C343 0.692 . S
C1332 C307 2.627 . S
C1317 C211 2.617 . S
C1382 C417 1.082 . S
C1367 C217 1.082 . S
C1432 C378 2.161 . S
C1417 C283 2.181 . S
C1467 C169 0.696 . S
C1482 C414 0.689 . S
C1532 C346 1.976 . S
C1517 C241 2.009 . S
C1582 C297 2.080 . S
C1567 C253 2.131 . S
C1617 C205 1.902 . S
C1632 C383 1.895 . S
