# Generated by pormake.
# Topology pyr, (3,6)-cn, num edge types: 1
# Building blocks:
#     Node 0, Type 0, BuildingBlock: BELTOD_clean_linker_0, # of connection points: 3
#     Node 1, Type 0, BuildingBlock: BELTOD_clean_linker_0, # of connection points: 3
#     Node 2, Type 0, BuildingBlock: BELTOD_clean_linker_0, # of connection points: 3
#     Node 3, Type 0, BuildingBlock: BELTOD_clean_linker_0, # of connection points: 3
#     Node 4, Type 0, BuildingBlock: BELTOD_clean_linker_0, # of connection points: 3
#     Node 5, Type 0, BuildingBlock: BELTOD_clean_linker_0, # of connection points: 3
#     Node 6, Type 0, BuildingBlock: BELTOD_clean_linker_0, # of connection points: 3
#     Node 7, Type 0, BuildingBlock: BELTOD_clean_linker_0, # of connection points: 3
#     Node 8, Type 1, BuildingBlock: INOVEN_clean_sbu_0, # of connection points: 6
#     Node 9, Type 1, BuildingBlock: INOVEN_clean_sbu_0, # of connection points: 6
#     Node 10, Type 1, BuildingBlock: INOVEN_clean_sbu_0, # of connection points: 6
#     Node 11, Type 1, BuildingBlock: INOVEN_clean_sbu_0, # of connection points: 6
#     Edge 12, Type (0, 1), BuildingBlock: OJICUG_clean_linker_0, # of connection points: 2
#     Edge 13, Type (0, 1), BuildingBlock: OJICUG_clean_linker_0, # of connection points: 2
#     Edge 14, Type (0, 1), BuildingBlock: OJICUG_clean_linker_0, # of connection points: 2
#     Edge 15, Type (0, 1), BuildingBlock: OJICUG_clean_linker_0, # of connection points: 2
#     Edge 16, Type (0, 1), BuildingBlock: OJICUG_clean_linker_0, # of connection points: 2
#     Edge 17, Type (0, 1), BuildingBlock: OJICUG_clean_linker_0, # of connection points: 2
#     Edge 18, Type (0, 1), BuildingBlock: OJICUG_clean_linker_0, # of connection points: 2
#     Edge 19, Type (0, 1), BuildingBlock: OJICUG_clean_linker_0, # of connection points: 2
#     Edge 20, Type (0, 1), BuildingBlock: OJICUG_clean_linker_0, # of connection points: 2
#     Edge 21, Type (0, 1), BuildingBlock: OJICUG_clean_linker_0, # of connection points: 2
#     Edge 22, Type (0, 1), BuildingBlock: OJICUG_clean_linker_0, # of connection points: 2
#     Edge 23, Type (0, 1), BuildingBlock: OJICUG_clean_linker_0, # of connection points: 2
#     Edge 24, Type (0, 1), BuildingBlock: OJICUG_clean_linker_0, # of connection points: 2
#     Edge 25, Type (0, 1), BuildingBlock: OJICUG_clean_linker_0, # of connection points: 2
#     Edge 26, Type (0, 1), BuildingBlock: OJICUG_clean_linker_0, # of connection points: 2
#     Edge 27, Type (0, 1), BuildingBlock: OJICUG_clean_linker_0, # of connection points: 2
#     Edge 28, Type (0, 1), BuildingBlock: OJICUG_clean_linker_0, # of connection points: 2
#     Edge 29, Type (0, 1), BuildingBlock: OJICUG_clean_linker_0, # of connection points: 2
#     Edge 30, Type (0, 1), BuildingBlock: OJICUG_clean_linker_0, # of connection points: 2
#     Edge 31, Type (0, 1), BuildingBlock: OJICUG_clean_linker_0, # of connection points: 2
#     Edge 32, Type (0, 1), BuildingBlock: OJICUG_clean_linker_0, # of connection points: 2
#     Edge 33, Type (0, 1), BuildingBlock: OJICUG_clean_linker_0, # of connection points: 2
#     Edge 34, Type (0, 1), BuildingBlock: OJICUG_clean_linker_0, # of connection points: 2
#     Edge 35, Type (0, 1), BuildingBlock: OJICUG_clean_linker_0, # of connection points: 2
# Relax obj value: 0.150
# Max RMSD: 0.144
# Mean RMSD: 0.068
data_MOF--net-pyr--node1-INOVEN_clean_sbu_0--node2-BELTOD_clean_linker_0--edge1-OJICUG_clean_linker_0
_symmetry_space_group_name_H-M    P1
_symmetry_Int_Tables_number       1
_symmetry_cell_setting            triclinic
loop_
_symmetry_equiv_pos_as_xyz
'x, y, z'
_cell_length_a     33.95814
_cell_length_b     35.016286
_cell_length_c     30.087447
_cell_angle_alpha  90.217958
_cell_angle_beta   87.913785
_cell_angle_gamma 104.85827
loop_
_atom_site_label
_atom_site_type_symbol
_atom_site_fract_x
_atom_site_fract_y
_atom_site_fract_z
_atom_type_partial_charge
P0 P 0.39451 0.36513 0.26743 0.0
H1 H 0.46388 0.3539 0.21245 0.0
H2 H 0.48559 0.29481 0.19045 0.0
H3 H 0.38345 0.22238 0.26691 0.0
H4 H 0.36103 0.28093 0.28659 0.0
H5 H 0.37331 0.43576 0.2351 0.0
H6 H 0.31193 0.44389 0.20032 0.0
H7 H 0.27107 0.31751 0.18327 0.0
H8 H 0.33182 0.30957 0.21843 0.0
H9 H 0.41745 0.33428 0.3502 0.0
H10 H 0.31692 0.37667 0.30534 0.0
O11 O 0.43402 0.40487 0.26845 0.0
H12 H 0.37456 0.30074 0.41282 0.0
H13 H 0.27429 0.34311 0.36662 0.0
C14 C 0.41143 0.32196 0.25196 0.0
C15 C 0.44635 0.32526 0.22452 0.0
C16 C 0.45882 0.29145 0.21224 0.0
C17 C 0.43644 0.25375 0.22717 0.0
C18 C 0.40127 0.25076 0.25442 0.0
C19 C 0.3887 0.28442 0.26625 0.0
C20 C 0.35751 0.37213 0.22894 0.0
C21 C 0.35189 0.40997 0.22235 0.0
C22 C 0.31669 0.41455 0.20259 0.0
C23 C 0.28644 0.38126 0.18953 0.0
C24 C 0.29355 0.34366 0.19356 0.0
C25 C 0.32865 0.33914 0.21325 0.0
C26 C 0.36987 0.35635 0.3219 0.0
C27 C 0.3867 0.33757 0.35461 0.0
C28 C 0.36211 0.31827 0.39026 0.0
C29 C 0.32067 0.31822 0.39384 0.0
C30 C 0.30595 0.34221 0.36475 0.0
C31 C 0.33042 0.36121 0.32909 0.0
P32 P 0.24462 0.87727 0.63524 0.0
H33 H 0.32703 0.90325 0.66875 0.0
H34 H 0.35237 0.9238 0.74255 0.0
H35 H 0.22827 0.90326 0.79443 0.0
H36 H 0.20336 0.88364 0.72077 0.0
H37 H 0.27624 0.82762 0.57292 0.0
H38 H 0.28755 0.76277 0.58261 0.0
H39 H 0.21057 0.74555 0.70243 0.0
H40 H 0.20068 0.81172 0.69317 0.0
H41 H 0.23671 0.95469 0.61551 0.0
H42 H 0.15536 0.8401 0.64338 0.0
O43 O 0.27961 0.89925 0.59667 0.0
H44 H 0.17935 0.98425 0.61787 0.0
H45 H 0.09701 0.86998 0.64604 0.0
C46 C 0.26341 0.8929 0.68912 0.0
C47 C 0.30537 0.90356 0.69599 0.0
C48 C 0.31977 0.91494 0.73822 0.0
C49 C 0.2923 0.91547 0.77424 0.0
C50 C 0.25022 0.90399 0.76721 0.0
C51 C 0.23594 0.89269 0.72507 0.0
C52 C 0.23819 0.82478 0.63269 0.0
C53 C 0.26062 0.80948 0.60049 0.0
C54 C 0.26688 0.77199 0.60602 0.0
C55 C 0.25066 0.74904 0.64391 0.0
C56 C 0.2243 0.76279 0.67344 0.0
C57 C 0.21828 0.80051 0.66796 0.0
C58 C 0.20022 0.89521 0.6286 0.0
C59 C 0.2063 0.93574 0.62138 0.0
C60 C 0.17354 0.95271 0.62347 0.0
C61 C 0.13386 0.9295 0.63316 0.0
C62 C 0.12739 0.88849 0.63886 0.0
C63 C 0.16058 0.87143 0.63704 0.0
P64 P 0.68167 0.35697 0.87462 0.0
H65 H 0.75641 0.34035 0.90264 0.0
H66 H 0.8122 0.37587 0.94751 0.0
H67 H 0.74932 0.46716 0.97215 0.0
H68 H 0.69379 0.43153 0.92573 0.0
H69 H 0.67089 0.27157 0.86584 0.0
H70 H 0.63299 0.21477 0.90942 0.0
H71 H 0.58594 0.2922 0.99665 0.0
H72 H 0.62412 0.34945 0.95222 0.0
H73 H 0.71192 0.42658 0.81929 0.0
H74 H 0.59426 0.35665 0.86642 0.0
O75 O 0.70555 0.33895 0.83326 0.0
H76 H 0.67901 0.46381 0.77053 0.0
H77 H 0.561 0.3946 0.81816 0.0
C78 C 0.72127 0.38357 0.91016 0.0
C79 C 0.7546 0.36804 0.91764 0.0
C80 C 0.78642 0.38832 0.94378 0.0
C81 C 0.78555 0.42457 0.9637 0.0
C82 C 0.75147 0.43968 0.95689 0.0
C83 C 0.71954 0.41926 0.9305 0.0
C84 C 0.64995 0.31496 0.90523 0.0
C85 C 0.65218 0.27657 0.89404 0.0
C86 C 0.63076 0.24391 0.91942 0.0
C87 C 0.60646 0.24869 0.95682 0.0
C88 C 0.60402 0.28727 0.96785 0.0
C89 C 0.62577 0.32008 0.94246 0.0
C90 C 0.65569 0.38905 0.847 0.0
C91 C 0.67894 0.41984 0.81998 0.0
C92 C 0.66009 0.44093 0.79178 0.0
C93 C 0.61737 0.43205 0.79019 0.0
C94 C 0.59396 0.40232 0.81877 0.0
C95 C 0.61297 0.38067 0.84655 0.0
P96 P 0.81957 0.72017 0.36747 0.0
H97 H 0.85493 0.79877 0.32861 0.0
H98 H 0.88921 0.86231 0.36073 0.0
H99 H 0.89136 0.80466 0.48697 0.0
H100 H 0.85651 0.74124 0.4546 0.0
H101 H 0.79457 0.65913 0.30087 0.0
H102 H 0.83087 0.62041 0.25532 0.0
H103 H 0.94189 0.6743 0.32193 0.0
H104 H 0.90489 0.71269 0.36802 0.0
H105 H 0.77247 0.7487 0.43662 0.0
H106 H 0.78364 0.63525 0.39012 0.0
O107 O 0.79139 0.73449 0.32975 0.0
H108 H 0.71763 0.71632 0.48861 0.0
H109 H 0.72838 0.60232 0.44254 0.0
C110 C 0.85234 0.76525 0.38938 0.0
C111 C 0.86324 0.79966 0.36307 0.0
C112 C 0.88306 0.83611 0.3815 0.0
C113 C 0.89255 0.83899 0.42677 0.0
C114 C 0.88373 0.80388 0.45229 0.0
C115 C 0.86404 0.76742 0.43374 0.0
C116 C 0.84695 0.68903 0.33777 0.0
C117 C 0.82668 0.66247 0.30594 0.0
C118 C 0.84765 0.64052 0.27955 0.0
C119 C 0.88959 0.64444 0.28431 0.0
C120 C 0.90961 0.67029 0.31732 0.0
C121 C 0.8885 0.69239 0.34373 0.0
C122 C 0.78316 0.6946 0.41012 0.0
C123 C 0.76382 0.71672 0.43833 0.0
C124 C 0.73225 0.69805 0.46815 0.0
C125 C 0.7186 0.65655 0.47027 0.0
C126 C 0.73795 0.6343 0.44183 0.0
C127 C 0.76989 0.65315 0.41204 0.0
P128 P 0.67398 0.82547 0.90736 0.0
H129 H 0.66142 0.82538 1.0031 0.0
H130 H 0.61815 0.85889 1.04579 0.0
H131 H 0.54789 0.86204 0.92977 0.0
H132 H 0.58997 0.82676 0.88783 0.0
H133 H 0.76148 0.8423 0.8995 0.0
H134 H 0.81088 0.80873 0.92466 0.0
H135 H 0.71341 0.71713 0.98492 0.0
H136 H 0.66357 0.75199 0.96012 0.0
H137 H 0.64268 0.8642 0.83715 0.0
H138 H 0.68678 0.75997 0.85092 0.0
O139 O 0.69908 0.87319 0.90642 0.0
H140 H 0.65896 0.86616 0.75859 0.0
H141 H 0.70358 0.76173 0.77131 0.0
C142 C 0.62956 0.82427 0.94199 0.0
C143 C 0.63514 0.8309 0.98752 0.0
C144 C 0.6107 0.85065 1.01177 0.0
C145 C 0.58076 0.86443 0.99052 0.0
C146 C 0.57107 0.8522 0.94689 0.0
C147 C 0.59535 0.83205 0.92278 0.0
C148 C 0.70902 0.80008 0.92889 0.0
C149 C 0.75063 0.81526 0.91862 0.0
C150 C 0.77887 0.79572 0.93254 0.0
C151 C 0.76609 0.76009 0.95655 0.0
C152 C 0.72419 0.74472 0.9668 0.0
C153 C 0.69574 0.76451 0.95272 0.0
C154 C 0.66463 0.81273 0.85013 0.0
C155 C 0.65367 0.84027 0.82283 0.0
C156 C 0.66309 0.84126 0.77738 0.0
C157 C 0.68435 0.81504 0.75876 0.0
C158 C 0.68846 0.78314 0.78493 0.0
C159 C 0.67885 0.78213 0.83059 0.0
P160 P 0.90988 0.35573 0.37188 0.0
H161 H 0.90483 0.42605 0.42404 0.0
H162 H 0.84561 0.44841 0.45215 0.0
H163 H 0.76578 0.33753 0.41294 0.0
H164 H 0.82441 0.31523 0.38558 0.0
H165 H 0.96795 0.33843 0.43333 0.0
H166 H 0.97602 0.27705 0.46533 0.0
H167 H 0.87362 0.21106 0.39193 0.0
H168 H 0.86472 0.27255 0.36188 0.0
H169 H 0.86408 0.39779 0.31822 0.0
H170 H 0.92206 0.30255 0.29918 0.0
O171 O 0.95305 0.39141 0.37442 0.0
H172 H 0.82363 0.3765 0.25308 0.0
H173 H 0.88084 0.2803 0.23495 0.0
C174 C 0.86905 0.36884 0.40301 0.0
C175 C 0.8747 0.40613 0.42279 0.0
C176 C 0.84095 0.41891 0.43871 0.0
C177 C 0.80134 0.39473 0.43421 0.0
C178 C 0.79607 0.35672 0.41653 0.0
C179 C 0.82965 0.34383 0.4013 0.0
C180 C 0.9164 0.31011 0.39436 0.0
C181 C 0.94739 0.31072 0.42398 0.0
C182 C 0.95209 0.27547 0.44205 0.0
C183 C 0.92579 0.23885 0.43081 0.0
C184 C 0.89429 0.23857 0.40165 0.0
C185 C 0.8894 0.27385 0.38405 0.0
C186 C 0.89403 0.3501 0.31515 0.0
C187 C 0.86878 0.37276 0.2995 0.0
C188 C 0.84561 0.36057 0.26222 0.0
C189 C 0.84779 0.3258 0.23993 0.0
C190 C 0.87794 0.30694 0.25166 0.0
C191 C 0.90128 0.31936 0.28883 0.0
P192 P 0.36811 0.716 0.25883 0.0
H193 H 0.33261 0.63965 0.21948 0.0
H194 H 0.26587 0.6088 0.191 0.0
H195 H 0.22137 0.707 0.23934 0.0
H196 H 0.28921 0.73829 0.26688 0.0
H197 H 0.42106 0.77888 0.31108 0.0
H198 H 0.44933 0.84935 0.29638 0.0
H199 H 0.37226 0.8418 0.18405 0.0
H200 H 0.34429 0.77115 0.19869 0.0
H201 H 0.44686 0.70813 0.28641 0.0
H202 H 0.32436 0.68135 0.34284 0.0
O203 O 0.3973 0.70435 0.21782 0.0
H204 H 0.469 0.67731 0.35012 0.0
H205 H 0.34651 0.65015 0.40743 0.0
C206 C 0.31622 0.69159 0.24471 0.0
C207 C 0.30845 0.65448 0.22432 0.0
C208 C 0.26997 0.6367 0.20817 0.0
C209 C 0.23789 0.65536 0.21243 0.0
C210 C 0.24539 0.692 0.23459 0.0
C211 C 0.28414 0.70984 0.25074 0.0
C212 C 0.37979 0.76956 0.25663 0.0
C213 C 0.40922 0.79245 0.28411 0.0
C214 C 0.42567 0.83284 0.27542 0.0
C215 C 0.41323 0.85132 0.23887 0.0
C216 C 0.38218 0.82876 0.21279 0.0
C217 C 0.36601 0.78826 0.2213 0.0
C218 C 0.38378 0.69656 0.30933 0.0
C219 C 0.42464 0.69568 0.31264 0.0
C220 C 0.43729 0.67785 0.34915 0.0
C221 C 0.40947 0.6606 0.38374 0.0
C222 C 0.36877 0.66309 0.38142 0.0
C223 C 0.35602 0.68082 0.34445 0.0
P224 P 0.17745 0.37187 0.80113 0.0
H225 H 0.20103 0.32455 0.73083 0.0
H226 H 0.16405 0.26953 0.68675 0.0
H227 H 0.05073 0.27837 0.75066 0.0
H228 H 0.08855 0.33375 0.79547 0.0
H229 H 0.26224 0.41096 0.81983 0.0
H230 H 0.32063 0.44427 0.77241 0.0
H231 H 0.24145 0.43793 0.6619 0.0
H232 H 0.18309 0.40395 0.70972 0.0
H233 H 0.13956 0.35667 0.89028 0.0
H234 H 0.15256 0.44637 0.78926 0.0
O235 O 0.19978 0.34745 0.83572 0.0
H236 H 0.10701 0.39483 0.94114 0.0
H237 H 0.11975 0.48491 0.84013 0.0
C238 C 0.14758 0.33415 0.76565 0.0
C239 C 0.16812 0.31527 0.73485 0.0
C240 C 0.14681 0.28363 0.70953 0.0
C241 C 0.10418 0.26951 0.71458 0.0
C242 C 0.08353 0.2883 0.74587 0.0
C243 C 0.10506 0.32027 0.77124 0.0
C244 C 0.21836 0.4042 0.76819 0.0
C245 C 0.25727 0.41725 0.78559 0.0
C246 C 0.29075 0.43654 0.75833 0.0
C247 C 0.28607 0.44341 0.71296 0.0
C248 C 0.24645 0.43244 0.69637 0.0
C249 C 0.21293 0.41324 0.72379 0.0
C250 C 0.14898 0.39877 0.83598 0.0
C251 C 0.13527 0.38457 0.87889 0.0
C252 C 0.11686 0.40662 0.90819 0.0
C253 C 0.11112 0.4433 0.89514 0.0
C254 C 0.12355 0.45679 0.85141 0.0
C255 C 0.14237 0.43478 0.82219 0.0
Gd256 Gd 0.02505 0.07268 0.52957 0.0
Gd257 Gd 0.95321 1.05348 0.58896 0.0
C258 C 0.02556 0.13153 0.6106 0.0
C259 C 0.08162 0.09373 0.46845 0.0
C260 C 0.11809 0.12751 0.46384 0.0
C261 C 0.15601 0.12392 0.47796 0.0
C262 C 0.11532 0.16382 0.44629 0.0
C263 C 0.18767 0.19218 0.45693 0.0
C264 C 0.14972 0.1958 0.4429 0.0
C265 C 0.19035 0.15594 0.47473 0.0
C266 C 0.03407 1.03059 0.60171 0.0
C267 C 0.95437 0.99235 0.51131 0.0
C268 C 0.89646 1.03127 0.64947 0.0
C269 C 0.86547 0.9936 0.65536 0.0
C270 C 0.82582 0.99374 0.66955 0.0
C271 C 0.8742 0.95771 0.6434 0.0
C272 C 0.80418 0.92224 0.66193 0.0
C273 C 0.84384 0.92225 0.64694 0.0
C274 C 0.79541 0.95839 0.67279 0.0
C275 C 0.94699 0.09924 0.5182 0.0
O276 O 0.04023 0.12834 0.56988 0.0
O277 O 0.99422 0.10385 0.62717 0.0
O278 O 0.08237 0.06798 0.49954 0.0
O279 O 0.04601 0.10152 0.46629 0.0
O280 O 0.06059 0.06193 0.58707 0.0
O281 O 1.00296 1.02386 0.57829 0.0
O282 O 0.94048 0.99643 0.55196 0.0
O283 O 0.98392 1.02084 0.49294 0.0
O284 O 0.8923 1.05148 0.61439 0.0
O285 O 0.93432 1.03065 0.65534 0.0
O286 O 0.91775 0.07003 0.53281 0.0
O287 O 0.9772 0.10287 0.542 0.0
H288 H 0.15921 0.09633 0.49159 0.0
H289 H 0.08663 0.16756 0.43489 0.0
H290 H 0.14677 0.22304 0.42812 0.0
H291 H 0.21908 0.15224 0.48603 0.0
H292 H 0.81841 1.02121 0.67824 0.0
H293 H 0.90449 0.95703 0.63142 0.0
H294 H 0.85142 0.89483 0.63846 0.0
H295 H 0.76535 0.95923 0.68538 0.0
Gd296 Gd 0.551 0.07085 0.12956 0.0
Gd297 Gd 0.46625 1.04545 0.09941 0.0
C298 C 0.48536 0.11551 0.16537 0.0
C299 C 0.62532 0.10467 0.14895 0.0
C300 C 0.65596 0.14238 0.15255 0.0
C301 C 0.69683 0.14156 0.1542 0.0
C302 C 0.64561 0.17865 0.15426 0.0
C303 C 0.71724 0.21294 0.16211 0.0
C304 C 0.67613 0.21379 0.15914 0.0
C305 C 0.72718 0.17642 0.15896 0.0
C306 C 0.50512 1.00558 0.17272 0.0
C307 C 0.53246 0.99957 1.06224 0.0
C308 C 0.39399 1.00874 0.07562 0.0
C309 C 0.37879 0.99218 1.03292 0.0
C310 C 0.40635 0.99125 0.99731 0.0
C311 C 0.33684 0.97881 1.02687 0.0
C312 C 0.34999 0.96434 0.94932 0.0
C313 C 0.32249 0.96497 0.98531 0.0
C314 C 0.39208 0.97734 0.95587 0.0
C315 C 0.51282 0.1093 1.05417 0.0
O316 O 0.52338 0.12038 0.15053 0.0
O317 O 0.45771 0.08224 0.15802 0.0
O318 O 0.59519 0.09649 0.17869 0.0
O319 O 0.61419 0.09366 0.10881 0.0
O320 O 0.54362 1.01201 0.16295 0.0
O321 O 0.4928 1.03544 0.16247 0.0
O322 O 0.49368 0.99936 1.06716 0.0
O323 O 0.56133 1.02784 0.07892 0.0
O324 O 0.40709 1.04717 0.07627 0.0
O325 O 0.41852 0.99116 0.09481 0.0
O326 O 0.47435 0.10361 1.06369 0.0
O327 O 0.52441 0.07943 1.06575 0.0
H328 H 0.70524 0.11373 0.15272 0.0
H329 H 0.61409 0.1797 0.1525 0.0
H330 H 0.66754 0.24148 0.16128 0.0
H331 H 0.75828 0.17447 0.16209 0.0
H332 H 0.43889 1.00189 1.00139 0.0
H333 H 0.31524 0.97946 1.05408 0.0
H334 H 0.2899 0.95476 0.98133 0.0
H335 H 0.41398 0.97774 0.92867 0.0
Gd336 Gd 0.50884 0.5095 0.55753 0.0
Gd337 Gd 0.49984 0.57863 0.62847 0.0
C338 C 0.54175 0.51013 0.65892 0.0
C339 C 0.53784 0.46791 0.50049 0.0
C340 C 0.57762 0.4602 0.4904 0.0
C341 C 0.58013 0.42961 0.46135 0.0
C342 C 0.61285 0.48216 0.51057 0.0
C343 C 0.65323 0.44313 0.47189 0.0
C344 C 0.65045 0.47389 0.50115 0.0
C345 C 0.61751 0.42099 0.45232 0.0
C346 C 0.43375 0.49324 0.60104 0.0
C347 C 0.46953 0.57952 0.52592 0.0
C348 C 0.46833 0.61926 0.68427 0.0
C349 C 0.42787 0.62683 0.68816 0.0
C350 C 0.42221 0.65858 0.71364 0.0
C351 C 0.39613 0.60544 0.66234 0.0
C352 C 0.35449 0.64996 0.68432 0.0
C353 C 0.35958 0.61667 0.66074 0.0
C354 C 0.38588 0.67012 0.71173 0.0
C355 C 0.5747 0.59576 0.58482 0.0
O356 O 0.54517 0.50006 0.61652 0.0
O357 O 0.52199 0.53664 0.67211 0.0
O358 O 0.52031 0.45368 0.5386 0.0
O359 O 0.53489 0.50379 0.49198 0.0
O360 O 0.44368 0.47063 0.57064 0.0
O361 O 0.46387 0.52241 0.60435 0.0
O362 O 0.46559 0.59 0.56814 0.0
O363 O 0.48857 0.55222 0.51379 0.0
O364 O 0.49002 0.63475 0.6488 0.0
O365 O 0.47005 0.58298 0.69246 0.0
O366 O 0.56444 0.61787 0.61561 0.0
O367 O 0.54505 0.56603 0.58129 0.0
H368 H 0.55307 0.41207 0.446 0.0
H369 H 0.61122 0.50552 0.53371 0.0
H370 H 0.67728 0.49174 0.51656 0.0
H371 H 0.61819 0.39649 0.43051 0.0
H372 H 0.44663 0.67567 0.7333 0.0
H373 H 0.40028 0.58115 0.64189 0.0
H374 H 0.33598 0.60019 0.63972 0.0
H375 H 0.38353 0.69633 0.72971 0.0
Gd376 Gd 0.00881 0.5079 0.11566 0.0
Gd377 Gd 1.00384 0.58228 0.07325 0.0
C378 C 0.08349 0.58145 0.13066 0.0
C379 C 0.01733 0.43837 0.13307 0.0
C380 C 0.05382 0.42321 0.13809 0.0
C381 C 0.06374 0.41257 0.18039 0.0
C382 C 0.08061 0.42192 0.10162 0.0
C383 C 0.12819 0.40331 0.1504 0.0
C384 C 0.11755 0.41239 0.10778 0.0
C385 C 0.10053 0.4027 0.1865 0.0
C386 C 0.97424 0.55419 0.16903 0.0
C387 C 0.9295 0.50792 1.05736 0.0
C388 C 0.99624 0.65204 1.05521 0.0
C389 C 0.96155 0.66689 1.04246 0.0
C390 C 0.96843 0.70259 1.01905 0.0
C391 C 0.92138 0.6449 1.05218 0.0
C392 C 0.89522 0.69419 1.01482 0.0
C393 C 0.88846 0.65857 1.03872 0.0
C394 C 0.93554 0.71613 1.00526 0.0
C395 C 0.03628 0.5355 1.01872 0.0
O396 O 0.07258 0.54262 0.12778 0.0
O397 O 0.06008 0.60293 0.1151 0.0
O398 O 0.01077 0.46265 0.16394 0.0
O399 O 0.01097 0.44966 0.09312 0.0
O400 O 0.99813 0.53363 0.18292 0.0
O401 O 0.96802 0.54759 0.12833 0.0
O402 O 0.94069 0.5469 1.05794 0.0
O403 O 0.95235 0.48687 0.07494 0.0
O404 O 0.00882 0.62986 1.02577 0.0
O405 O 0.99423 0.63806 0.09572 0.0
O406 O 0.01208 0.55623 1.00605 0.0
O407 O 0.04403 0.542 1.05931 0.0
H408 H 0.04357 0.41306 0.20902 0.0
H409 H 0.07355 0.42909 1.0684 0.0
H410 H 0.13794 0.4124 0.07924 0.0
H411 H 0.10797 0.39598 0.21979 0.0
H412 H 0.99924 0.71983 1.01115 0.0
H413 H 0.91547 0.61698 1.06978 0.0
H414 H 0.85775 0.64088 1.04615 0.0
H415 H 0.94163 0.7439 0.98729 0.0
C416 C 0.29373 0.24811 0.41805 0.0
C417 C 0.2911 0.28749 0.42044 0.0
H418 H 0.26297 0.18722 0.42702 0.0
C419 C 0.25627 0.29553 0.44097 0.0
H420 H 0.31978 0.24074 0.40177 0.0
C421 C 0.2234 0.26461 0.45537 0.0
C422 C 0.22479 0.2251 0.4495 0.0
H423 H 0.25356 0.32561 0.44373 0.0
H424 H 0.19628 0.27158 0.46943 0.0
C425 C 0.26094 0.21727 0.43237 0.0
C426 C 0.28854 0.95208 0.84532 0.0
C427 C 0.30725 0.92795 0.81906 0.0
H428 H 0.2876 0.98274 0.90681 0.0
C429 C 0.34 0.91563 0.83607 0.0
H430 H 0.26367 0.96261 0.83286 0.0
C431 C 0.35371 0.92719 0.87847 0.0
C432 C 0.33493 0.95127 0.90473 0.0
H433 H 0.35466 0.89657 0.81689 0.0
H434 H 0.37874 0.9169 0.89092 0.0
C435 C 0.30219 0.96358 0.8877 0.0
C436 C 0.61155 0.45518 0.71213 0.0
C437 C 0.59777 0.45232 0.75698 0.0
H438 H 0.60464 0.47508 0.64627 0.0
C439 C 0.56543 0.46891 0.76946 0.0
H440 H 0.63616 0.44244 0.70131 0.0
C441 C 0.54771 0.48832 0.73792 0.0
C442 C 0.56128 0.49079 0.69294 0.0
H443 H 0.55419 0.46732 0.80373 0.0
H444 H 0.52294 0.50084 0.74867 0.0
C445 C 0.59333 0.47378 0.68051 0.0
C446 C 0.90335 0.61672 0.20911 0.0
C447 C 0.91209 0.62196 0.25455 0.0
H448 H 0.91597 0.59146 0.14672 0.0
C449 C 0.94208 0.6051 0.27119 0.0
H450 H 0.88098 0.6297 0.19477 0.0
C451 C 0.96227 0.58328 0.24341 0.0
C452 C 0.95318 0.57785 0.19821 0.0
H453 H 0.94946 0.60811 0.30595 0.0
H454 H 0.98492 0.57046 0.25745 0.0
C455 C 0.92364 0.59501 0.18136 0.0
C456 C 0.49053 0.2178 0.21009 0.0
C457 C 0.44907 0.21757 0.2137 0.0
H458 H 0.53451 0.18562 0.19255 0.0
C459 C 0.41965 0.18252 0.20385 0.0
H460 H 0.51398 0.24399 0.21819 0.0
C461 C 0.43139 0.14883 0.18997 0.0
C462 C 0.47284 0.14949 0.18515 0.0
H463 H 0.38746 0.18136 0.20559 0.0
H464 H 0.40794 0.12272 0.18157 0.0
C465 C 0.50228 0.18419 0.19582 0.0
C466 C 0.10561 0.9849 0.65939 0.0
C467 C 0.1001 0.9491 0.63621 0.0
H468 H 0.0878 1.03896 0.66684 0.0
C469 C 0.06569 0.93623 0.61024 0.0
H470 H 0.13146 0.99507 0.68038 0.0
C471 C 0.04016 0.96116 0.60316 0.0
C472 C 0.04914 0.99917 0.62182 0.0
H473 H 0.06073 0.90869 0.59215 0.0
H474 H 0.01619 0.95237 0.57954 0.0
C475 C 0.08048 1.00985 0.652 0.0
C476 C 0.84157 0.42588 1.01714 0.0
C477 C 0.82054 0.44651 0.99051 0.0
H478 H 0.89194 0.42877 1.05892 0.0
C479 C 0.8345 0.488 0.98824 0.0
H480 H 0.83137 0.39407 1.02065 0.0
C481 C 0.86917 0.50807 1.01083 0.0
C482 C 0.89092 0.48717 1.03611 0.0
H483 H 0.81946 0.50497 0.96784 0.0
H484 H 0.87951 0.5399 1.00746 0.0
C485 C 0.87631 0.44587 1.03942 0.0
C486 C 0.67985 0.65305 0.54383 0.0
C487 C 0.68358 0.63727 0.50126 0.0
H488 H 0.64297 0.65199 0.60326 0.0
C489 C 0.65229 0.60482 0.48789 0.0
H490 H 0.70354 0.67747 0.55576 0.0
C491 C 0.61739 0.58997 0.51555 0.0
C492 C 0.61318 0.60703 0.55722 0.0
H493 H 0.65386 0.59203 0.45526 0.0
H494 H 0.59303 0.56639 0.50351 0.0
C495 C 0.64515 0.63825 0.57126 0.0
C496 C 0.21023 0.35967 0.19469 0.0
C497 C 0.24598 0.38527 0.17636 0.0
H498 H 0.14506 0.34512 0.20061 0.0
C499 C 0.2426 0.41581 0.14778 0.0
H500 H 0.21181 0.33619 0.21735 0.0
C501 C 0.20426 0.42099 0.13833 0.0
C502 C 0.16861 0.39597 0.15764 0.0
H503 H 0.2696 0.43591 0.13309 0.0
H504 H 0.20258 0.44534 0.117 0.0
C505 C 0.172 0.36502 0.18552 0.0
C506 C 0.60079 0.18191 0.99265 0.0
C507 C 0.58334 0.21342 0.98347 0.0
H508 H 0.59252 0.12442 1.02239 0.0
C509 C 0.54306 0.21039 0.99883 0.0
H510 H 0.63192 0.18337 0.98189 0.0
C511 C 0.52063 0.17666 1.02186 0.0
C512 C 0.53782 0.14501 1.03044 0.0
H513 H 0.52841 0.23372 0.99211 0.0
H514 H 0.48953 0.17529 1.03273 0.0
C515 C 0.57833 0.14815 1.01602 0.0
C516 C 0.89479 0.8863 0.49054 0.0
C517 C 0.90914 0.87851 0.4479 0.0
H518 H 0.89712 0.92769 0.54329 0.0
C519 C 0.93824 0.90913 0.42556 0.0
H520 H 0.87183 0.86395 0.50854 0.0
C521 C 0.95283 0.94626 0.4456 0.0
C522 C 0.93844 0.9538 0.48836 0.0
H523 H 0.95019 0.90426 0.39276 0.0
H524 H 0.97551 0.96892 0.4277 0.0
C525 C 0.90912 0.92325 0.51037 0.0
C526 C 0.27794 0.71093 0.70029 0.0
C527 C 0.26732 0.71525 0.65615 0.0
H528 H 0.31269 0.68575 0.74418 0.0
C529 C 0.27941 0.6917 0.62307 0.0
H530 H 0.26935 0.72853 0.72679 0.0
C531 C 0.30541 0.66802 0.6329 0.0
C532 C 0.3194 0.66689 0.67622 0.0
H533 H 0.27101 0.69355 0.58891 0.0
H534 H 0.31689 0.65306 0.60574 0.0
C535 C 0.30346 0.68682 0.71023 0.0
C536 C 0.75351 0.82844 0.72226 0.0
C537 C 0.71226 0.82871 0.71949 0.0
H538 H 0.81536 0.85843 0.70585 0.0
C539 C 0.70169 0.8525 0.68672 0.0
H540 H 0.7631 0.81047 0.74677 0.0
C541 C 0.73207 0.88074 0.66369 0.0
C542 C 0.77331 0.88478 0.67234 0.0
H543 H 0.67013 0.85251 0.68267 0.0
H544 H 0.72325 0.90169 0.64226 0.0
C545 C 0.7838 0.85631 0.69887 0.0
C546 C 0.77349 0.30163 0.22621 0.0
C547 C 0.81409 0.30489 0.21166 0.0
H548 H 0.71104 0.26993 0.22197 0.0
C549 C 0.82155 0.28251 0.17495 0.0
H550 H 0.76657 0.31804 0.25475 0.0
C551 C 0.78943 0.2548 0.15601 0.0
C552 C 0.74931 0.2488 0.17361 0.0
H553 H 0.85242 0.28481 0.16253 0.0
H554 H 0.79631 0.23649 0.12925 0.0
C555 C 0.74146 0.27389 0.20739 0.0
C556 C 0.44843 0.61363 0.41112 0.0
C557 C 0.4231 0.63894 0.42073 0.0
H558 H 0.48243 0.57524 0.43599 0.0
C559 C 0.41198 0.64372 0.46559 0.0
H560 H 0.45717 0.6087 0.37702 0.0
C561 C 0.42676 0.62447 0.49988 0.0
C562 C 0.45254 0.59951 0.49009 0.0
H563 H 0.39263 0.66306 0.47426 0.0
H564 H 0.41806 0.62926 0.53403 0.0
C565 C 0.46276 0.59416 0.44513 0.0
C566 C 0.10276 0.47069 0.97217 0.0
C567 C 0.0923 0.46722 0.92707 0.0
H568 H 0.09406 0.49557 1.03623 0.0
C569 C 0.06348 0.48665 0.91282 0.0
H570 H 0.12518 0.45657 0.98434 0.0
C571 C 0.04543 0.50856 0.9427 0.0
C572 C 0.05589 0.51202 0.98765 0.0
H573 H 0.05429 0.48439 0.87862 0.0
H574 H 0.0231 0.52278 0.9305 0.0
C575 C 0.08497 0.49304 1.00199 0.0
C576 C 0.59598 0.9302 1.02667 0.0
C577 C 0.56684 0.89793 1.00982 0.0
H578 H 0.60827 0.98751 1.05525 0.0
C579 C 0.52612 0.89999 1.00814 0.0
H580 H 0.62785 0.93011 1.0271 0.0
C581 C 0.51473 0.93342 1.02421 0.0
C582 C 0.54406 0.96547 1.04153 0.0
H583 H 0.50316 0.87571 0.99475 0.0
H584 H 0.48303 0.934 1.0234 0.0
C585 C 0.5848 0.96349 1.0422 0.0
C586 C 0.89696 0.17011 0.462 0.0
C587 C 0.93101 0.20129 0.44985 0.0
H588 H 0.87528 0.1129 0.49252 0.0
C589 C 0.97022 0.19667 0.45708 0.0
H590 H 0.86628 0.17269 0.45739 0.0
C591 C 0.97522 0.1627 0.47774 0.0
C592 C 0.9412 0.13226 0.49112 0.0
H593 H 0.99718 0.21952 0.44723 0.0
H594 H 0.00581 0.16067 0.48416 0.0
C595 C 0.90203 0.13582 0.4822 0.0
C596 C 0.18175 0.59549 0.19298 0.0
C597 C 0.19738 0.63683 0.19287 0.0
H598 H 0.13435 0.54588 0.17356 0.0
C599 C 0.17465 0.65997 0.17245 0.0
H600 H 0.19772 0.57656 0.20901 0.0
C601 C 0.13774 0.64221 0.1523 0.0
C602 C 0.12264 0.60084 0.15184 0.0
H603 H 0.18577 0.69183 0.17111 0.0
H604 H 0.12127 0.66095 0.1367 0.0
C605 C 0.14512 0.5778 0.17267 0.0
C606 C 0.35659 0.48835 0.69727 0.0
C607 C 0.32267 0.45929 0.68271 0.0
H608 H 0.41824 0.5212 0.68333 0.0
C609 C 0.32519 0.4434 0.63993 0.0
H610 H 0.35586 0.50149 0.72982 0.0
C611 C 0.36091 0.45535 0.61315 0.0
C612 C 0.39497 0.48373 0.62816 0.0
H613 H 0.30012 0.42053 0.6277 0.0
H614 H 0.36212 0.44176 0.58089 0.0
C615 C 0.39227 0.50024 0.67036 0.0
C616 C 0.82992 0.73822 0.94152 0.0
C617 C 0.79694 0.73968 0.97056 0.0
H618 H 0.88656 0.72257 0.93271 0.0
C619 C 0.79523 0.72376 1.01362 0.0
H620 H 0.83168 0.7494 0.90779 0.0
C621 C 0.82671 0.70813 1.02782 0.0
C622 C 0.86048 0.70831 0.99926 0.0
H623 H 0.77038 0.7247 1.03684 0.0
H624 H 0.82531 0.69715 1.0616 0.0
C625 C 0.86138 0.72288 0.95576 0.0
C626 C 0.47861 0.90315 0.22396 0.0
C627 C 0.43577 0.89237 0.22508 0.0
H628 H 0.53353 0.94684 0.20654 0.0
C629 C 0.41542 0.92023 0.21058 0.0
H630 H 0.49537 0.88238 0.23414 0.0
C631 C 0.43756 0.95781 0.19505 0.0
C632 C 0.48043 0.96785 0.19279 0.0
H633 H 0.38243 0.91291 0.2111 0.0
H634 H 0.42119 0.97855 0.18389 0.0
C635 C 0.50054 0.94016 0.20784 0.0
C636 C 0.04989 0.20501 0.7064 0.0
C637 C 0.08208 0.23499 0.68763 0.0
H638 H 0.00698 0.14886 0.69724 0.0
C639 C 0.09434 0.23093 0.64303 0.0
H640 H 0.0398 0.20683 0.74071 0.0
C641 C 0.07581 0.19764 0.6183 0.0
C642 C 0.04424 0.16727 0.63723 0.0
H643 H 0.11844 0.25361 0.62703 0.0
H644 H 0.08651 0.19573 0.58421 0.0
C645 C 0.03123 0.17157 0.68153 0.0
C646 C 0.73737 0.40912 0.41029 0.0
C647 C 0.7652 0.40991 0.4438 0.0
H648 H 0.68119 0.42037 0.39233 0.0
C649 C 0.75751 0.42394 0.48611 0.0
H650 H 0.7431 0.39903 0.37717 0.0
C651 C 0.72147 0.43544 0.49523 0.0
C652 C 0.69289 0.43359 0.46195 0.0
H653 H 0.77866 0.42473 0.5124 0.0
H654 H 0.71549 0.44456 0.52867 0.0
C655 C 0.70182 0.42113 0.41913 0.0
loop_
_geom_bond_atom_site_label_1
_geom_bond_atom_site_label_2
_geom_bond_distance
_geom_bond_site_symmetry_2
_ccdc_geom_bond_type
P0 O11 1.490 . S
P0 C14 1.812 . S
P0 C20 1.803 . S
P0 C26 1.819 . S
H1 C15 0.941 . S
H2 C16 0.939 . S
H3 C18 0.940 . S
H4 C19 0.940 . S
H5 C21 0.939 . S
H6 C22 0.942 . S
H7 C24 0.940 . S
H8 C25 0.939 . S
H9 C27 0.941 . S
H10 C31 0.939 . S
O11 P0 1.490 . S
H12 C28 0.939 . S
H13 C30 0.940 . S
C14 P0 1.812 . S
C14 C15 1.389 . S
C14 C19 1.391 . S
C15 H1 0.941 . S
C15 C14 1.389 . S
C15 C16 1.397 . S
C16 H2 0.939 . S
C16 C15 1.397 . S
C16 C17 1.378 . S
C17 C16 1.378 . S
C17 C18 1.378 . S
C18 H3 0.940 . S
C18 C17 1.378 . S
C18 C19 1.396 . S
C19 H4 0.940 . S
C19 C14 1.391 . S
C19 C18 1.396 . S
C20 P0 1.803 . S
C20 C21 1.378 . S
C20 C25 1.400 . S
C21 H5 0.939 . S
C21 C20 1.378 . S
C21 C22 1.361 . S
C22 H6 0.942 . S
C22 C21 1.361 . S
C22 C23 1.369 . S
C23 C22 1.369 . S
C23 C24 1.404 . S
C24 H7 0.940 . S
C24 C23 1.404 . S
C24 C25 1.389 . S
C25 H8 0.939 . S
C25 C20 1.400 . S
C25 C24 1.389 . S
C26 P0 1.819 . S
C26 C27 1.391 . S
C26 C31 1.391 . S
C27 H9 0.941 . S
C27 C26 1.391 . S
C27 C28 1.396 . S
C28 H12 0.939 . S
C28 C27 1.396 . S
C28 C29 1.397 . S
C29 C28 1.397 . S
C29 C30 1.385 . S
C30 H13 0.940 . S
C30 C29 1.385 . S
C30 C31 1.388 . S
C31 H10 0.939 . S
C31 C26 1.391 . S
C31 C30 1.388 . S
P32 O43 1.490 . S
P32 C46 1.812 . S
P32 C52 1.803 . S
P32 C58 1.819 . S
H33 C47 0.941 . S
H34 C48 0.939 . S
H35 C50 0.940 . S
H36 C51 0.940 . S
H37 C53 0.939 . S
H38 C54 0.942 . S
H39 C56 0.940 . S
H40 C57 0.939 . S
H41 C59 0.941 . S
H42 C63 0.939 . S
O43 P32 1.490 . S
H44 C60 0.939 . S
H45 C62 0.940 . S
C46 P32 1.812 . S
C46 C47 1.389 . S
C46 C51 1.391 . S
C47 H33 0.941 . S
C47 C46 1.389 . S
C47 C48 1.397 . S
C48 H34 0.939 . S
C48 C47 1.397 . S
C48 C49 1.378 . S
C49 C48 1.378 . S
C49 C50 1.378 . S
C50 H35 0.940 . S
C50 C49 1.378 . S
C50 C51 1.396 . S
C51 H36 0.940 . S
C51 C46 1.391 . S
C51 C50 1.396 . S
C52 P32 1.803 . S
C52 C53 1.378 . S
C52 C57 1.400 . S
C53 H37 0.939 . S
C53 C52 1.378 . S
C53 C54 1.361 . S
C54 H38 0.942 . S
C54 C53 1.361 . S
C54 C55 1.369 . S
C55 C54 1.369 . S
C55 C56 1.404 . S
C56 H39 0.940 . S
C56 C55 1.404 . S
C56 C57 1.389 . S
C57 H40 0.939 . S
C57 C52 1.400 . S
C57 C56 1.389 . S
C58 P32 1.819 . S
C58 C59 1.391 . S
C58 C63 1.391 . S
C59 H41 0.941 . S
C59 C58 1.391 . S
C59 C60 1.396 . S
C60 H44 0.939 . S
C60 C59 1.396 . S
C60 C61 1.397 . S
C61 C60 1.397 . S
C61 C62 1.385 . S
C62 H45 0.940 . S
C62 C61 1.385 . S
C62 C63 1.388 . S
C63 H42 0.939 . S
C63 C58 1.391 . S
C63 C62 1.388 . S
P64 O75 1.490 . S
P64 C78 1.812 . S
P64 C84 1.803 . S
P64 C90 1.819 . S
H65 C79 0.941 . S
H66 C80 0.939 . S
H67 C82 0.940 . S
H68 C83 0.940 . S
H69 C85 0.939 . S
H70 C86 0.942 . S
H71 C88 0.940 . S
H72 C89 0.939 . S
H73 C91 0.941 . S
H74 C95 0.939 . S
O75 P64 1.490 . S
H76 C92 0.939 . S
H77 C94 0.940 . S
C78 P64 1.812 . S
C78 C79 1.389 . S
C78 C83 1.391 . S
C79 H65 0.941 . S
C79 C78 1.389 . S
C79 C80 1.397 . S
C80 H66 0.939 . S
C80 C79 1.397 . S
C80 C81 1.378 . S
C81 C80 1.378 . S
C81 C82 1.378 . S
C82 H67 0.940 . S
C82 C81 1.378 . S
C82 C83 1.396 . S
C83 H68 0.940 . S
C83 C78 1.391 . S
C83 C82 1.396 . S
C84 P64 1.803 . S
C84 C85 1.378 . S
C84 C89 1.400 . S
C85 H69 0.939 . S
C85 C84 1.378 . S
C85 C86 1.361 . S
C86 H70 0.942 . S
C86 C85 1.361 . S
C86 C87 1.369 . S
C87 C86 1.369 . S
C87 C88 1.404 . S
C88 H71 0.940 . S
C88 C87 1.404 . S
C88 C89 1.389 . S
C89 H72 0.939 . S
C89 C84 1.400 . S
C89 C88 1.389 . S
C90 P64 1.819 . S
C90 C91 1.391 . S
C90 C95 1.391 . S
C91 H73 0.941 . S
C91 C90 1.391 . S
C91 C92 1.396 . S
C92 H76 0.939 . S
C92 C91 1.396 . S
C92 C93 1.397 . S
C93 C92 1.397 . S
C93 C94 1.385 . S
C94 H77 0.940 . S
C94 C93 1.385 . S
C94 C95 1.388 . S
C95 H74 0.939 . S
C95 C90 1.391 . S
C95 C94 1.388 . S
P96 O107 1.490 . S
P96 C110 1.812 . S
P96 C116 1.803 . S
P96 C122 1.819 . S
H97 C111 0.941 . S
H98 C112 0.939 . S
H99 C114 0.940 . S
H100 C115 0.940 . S
H101 C117 0.939 . S
H102 C118 0.942 . S
H103 C120 0.940 . S
H104 C121 0.939 . S
H105 C123 0.941 . S
H106 C127 0.939 . S
O107 P96 1.490 . S
H108 C124 0.939 . S
H109 C126 0.940 . S
C110 P96 1.812 . S
C110 C111 1.389 . S
C110 C115 1.391 . S
C111 H97 0.941 . S
C111 C110 1.389 . S
C111 C112 1.397 . S
C112 H98 0.939 . S
C112 C111 1.397 . S
C112 C113 1.378 . S
C113 C112 1.378 . S
C113 C114 1.378 . S
C114 H99 0.940 . S
C114 C113 1.378 . S
C114 C115 1.396 . S
C115 H100 0.940 . S
C115 C110 1.391 . S
C115 C114 1.396 . S
C116 P96 1.803 . S
C116 C117 1.378 . S
C116 C121 1.400 . S
C117 H101 0.939 . S
C117 C116 1.378 . S
C117 C118 1.361 . S
C118 H102 0.942 . S
C118 C117 1.361 . S
C118 C119 1.369 . S
C119 C118 1.369 . S
C119 C120 1.404 . S
C120 H103 0.940 . S
C120 C119 1.404 . S
C120 C121 1.389 . S
C121 H104 0.939 . S
C121 C116 1.400 . S
C121 C120 1.389 . S
C122 P96 1.819 . S
C122 C123 1.391 . S
C122 C127 1.391 . S
C123 H105 0.941 . S
C123 C122 1.391 . S
C123 C124 1.396 . S
C124 H108 0.939 . S
C124 C123 1.396 . S
C124 C125 1.397 . S
C125 C124 1.397 . S
C125 C126 1.385 . S
C126 H109 0.940 . S
C126 C125 1.385 . S
C126 C127 1.388 . S
C127 H106 0.939 . S
C127 C122 1.391 . S
C127 C126 1.388 . S
P128 O139 1.490 . S
P128 C142 1.812 . S
P128 C148 1.803 . S
P128 C154 1.819 . S
H129 C143 0.941 . S
H130 C144 0.939 . S
H131 C146 0.940 . S
H132 C147 0.940 . S
H133 C149 0.939 . S
H134 C150 0.942 . S
H135 C152 0.940 . S
H136 C153 0.939 . S
H137 C155 0.941 . S
H138 C159 0.939 . S
O139 P128 1.490 . S
H140 C156 0.939 . S
H141 C158 0.940 . S
C142 P128 1.812 . S
C142 C143 1.389 . S
C142 C147 1.391 . S
C143 H129 0.941 . S
C143 C142 1.389 . S
C143 C144 1.397 . S
C144 H130 0.939 . S
C144 C143 1.397 . S
C144 C145 1.378 . S
C145 C144 1.378 . S
C145 C146 1.378 . S
C146 H131 0.940 . S
C146 C145 1.378 . S
C146 C147 1.396 . S
C147 H132 0.940 . S
C147 C142 1.391 . S
C147 C146 1.396 . S
C148 P128 1.803 . S
C148 C149 1.378 . S
C148 C153 1.400 . S
C149 H133 0.939 . S
C149 C148 1.378 . S
C149 C150 1.361 . S
C150 H134 0.942 . S
C150 C149 1.361 . S
C150 C151 1.369 . S
C151 C150 1.369 . S
C151 C152 1.404 . S
C152 H135 0.940 . S
C152 C151 1.404 . S
C152 C153 1.389 . S
C153 H136 0.939 . S
C153 C148 1.400 . S
C153 C152 1.389 . S
C154 P128 1.819 . S
C154 C155 1.391 . S
C154 C159 1.391 . S
C155 H137 0.941 . S
C155 C154 1.391 . S
C155 C156 1.396 . S
C156 H140 0.939 . S
C156 C155 1.396 . S
C156 C157 1.397 . S
C157 C156 1.397 . S
C157 C158 1.385 . S
C158 H141 0.940 . S
C158 C157 1.385 . S
C158 C159 1.388 . S
C159 H138 0.939 . S
C159 C154 1.391 . S
C159 C158 1.388 . S
P160 O171 1.490 . S
P160 C174 1.812 . S
P160 C180 1.803 . S
P160 C186 1.819 . S
H161 C175 0.941 . S
H162 C176 0.939 . S
H163 C178 0.940 . S
H164 C179 0.940 . S
H165 C181 0.939 . S
H166 C182 0.942 . S
H167 C184 0.940 . S
H168 C185 0.939 . S
H169 C187 0.941 . S
H170 C191 0.939 . S
O171 P160 1.490 . S
H172 C188 0.939 . S
H173 C190 0.940 . S
C174 P160 1.812 . S
C174 C175 1.389 . S
C174 C179 1.391 . S
C175 H161 0.941 . S
C175 C174 1.389 . S
C175 C176 1.397 . S
C176 H162 0.939 . S
C176 C175 1.397 . S
C176 C177 1.378 . S
C177 C176 1.378 . S
C177 C178 1.378 . S
C178 H163 0.940 . S
C178 C177 1.378 . S
C178 C179 1.396 . S
C179 H164 0.940 . S
C179 C174 1.391 . S
C179 C178 1.396 . S
C180 P160 1.803 . S
C180 C181 1.378 . S
C180 C185 1.400 . S
C181 H165 0.939 . S
C181 C180 1.378 . S
C181 C182 1.361 . S
C182 H166 0.942 . S
C182 C181 1.361 . S
C182 C183 1.369 . S
C183 C182 1.369 . S
C183 C184 1.404 . S
C184 H167 0.940 . S
C184 C183 1.404 . S
C184 C185 1.389 . S
C185 H168 0.939 . S
C185 C180 1.400 . S
C185 C184 1.389 . S
C186 P160 1.819 . S
C186 C187 1.391 . S
C186 C191 1.391 . S
C187 H169 0.941 . S
C187 C186 1.391 . S
C187 C188 1.396 . S
C188 H172 0.939 . S
C188 C187 1.396 . S
C188 C189 1.397 . S
C189 C188 1.397 . S
C189 C190 1.385 . S
C190 H173 0.940 . S
C190 C189 1.385 . S
C190 C191 1.388 . S
C191 H170 0.939 . S
C191 C186 1.391 . S
C191 C190 1.388 . S
P192 O203 1.490 . S
P192 C206 1.812 . S
P192 C212 1.803 . S
P192 C218 1.819 . S
H193 C207 0.941 . S
H194 C208 0.939 . S
H195 C210 0.940 . S
H196 C211 0.940 . S
H197 C213 0.939 . S
H198 C214 0.942 . S
H199 C216 0.940 . S
H200 C217 0.939 . S
H201 C219 0.941 . S
H202 C223 0.939 . S
O203 P192 1.490 . S
H204 C220 0.939 . S
H205 C222 0.940 . S
C206 P192 1.812 . S
C206 C207 1.389 . S
C206 C211 1.391 . S
C207 H193 0.941 . S
C207 C206 1.389 . S
C207 C208 1.397 . S
C208 H194 0.939 . S
C208 C207 1.397 . S
C208 C209 1.378 . S
C209 C208 1.378 . S
C209 C210 1.378 . S
C210 H195 0.940 . S
C210 C209 1.378 . S
C210 C211 1.396 . S
C211 H196 0.940 . S
C211 C206 1.391 . S
C211 C210 1.396 . S
C212 P192 1.803 . S
C212 C213 1.378 . S
C212 C217 1.400 . S
C213 H197 0.939 . S
C213 C212 1.378 . S
C213 C214 1.361 . S
C214 H198 0.942 . S
C214 C213 1.361 . S
C214 C215 1.369 . S
C215 C214 1.369 . S
C215 C216 1.404 . S
C216 H199 0.940 . S
C216 C215 1.404 . S
C216 C217 1.389 . S
C217 H200 0.939 . S
C217 C212 1.400 . S
C217 C216 1.389 . S
C218 P192 1.819 . S
C218 C219 1.391 . S
C218 C223 1.391 . S
C219 H201 0.941 . S
C219 C218 1.391 . S
C219 C220 1.396 . S
C220 H204 0.939 . S
C220 C219 1.396 . S
C220 C221 1.397 . S
C221 C220 1.397 . S
C221 C222 1.385 . S
C222 H205 0.940 . S
C222 C221 1.385 . S
C222 C223 1.388 . S
C223 H202 0.939 . S
C223 C218 1.391 . S
C223 C222 1.388 . S
P224 O235 1.490 . S
P224 C238 1.812 . S
P224 C244 1.803 . S
P224 C250 1.819 . S
H225 C239 0.941 . S
H226 C240 0.939 . S
H227 C242 0.940 . S
H228 C243 0.940 . S
H229 C245 0.939 . S
H230 C246 0.942 . S
H231 C248 0.940 . S
H232 C249 0.939 . S
H233 C251 0.941 . S
H234 C255 0.939 . S
O235 P224 1.490 . S
H236 C252 0.939 . S
H237 C254 0.940 . S
C238 P224 1.812 . S
C238 C239 1.389 . S
C238 C243 1.391 . S
C239 H225 0.941 . S
C239 C238 1.389 . S
C239 C240 1.397 . S
C240 H226 0.939 . S
C240 C239 1.397 . S
C240 C241 1.378 . S
C241 C240 1.378 . S
C241 C242 1.378 . S
C242 H227 0.940 . S
C242 C241 1.378 . S
C242 C243 1.396 . S
C243 H228 0.940 . S
C243 C238 1.391 . S
C243 C242 1.396 . S
C244 P224 1.803 . S
C244 C245 1.378 . S
C244 C249 1.400 . S
C245 H229 0.939 . S
C245 C244 1.378 . S
C245 C246 1.361 . S
C246 H230 0.942 . S
C246 C245 1.361 . S
C246 C247 1.369 . S
C247 C246 1.369 . S
C247 C248 1.404 . S
C248 H231 0.940 . S
C248 C247 1.404 . S
C248 C249 1.389 . S
C249 H232 0.939 . S
C249 C244 1.400 . S
C249 C248 1.389 . S
C250 P224 1.819 . S
C250 C251 1.391 . S
C250 C255 1.391 . S
C251 H233 0.941 . S
C251 C250 1.391 . S
C251 C252 1.396 . S
C252 H236 0.939 . S
C252 C251 1.396 . S
C252 C253 1.397 . S
C253 C252 1.397 . S
C253 C254 1.385 . S
C254 H237 0.940 . S
C254 C253 1.385 . S
C254 C255 1.388 . S
C255 H234 0.939 . S
C255 C250 1.391 . S
C255 C254 1.388 . S
Gd256 C259 2.818 . S
Gd256 O276 2.377 . S
Gd256 O278 2.448 . S
Gd256 O279 2.506 . S
Gd256 O280 2.435 1_545 S
Gd256 O281 2.717 1_545 S
Gd256 O283 2.395 1_445 S
Gd256 O287 2.327 1_455 S
Gd257 C268 2.840 . S
Gd257 O277 2.371 1_665 S
Gd257 O281 2.342 1_655 S
Gd257 O282 2.396 . S
Gd257 O284 2.458 . S
Gd257 O285 2.534 . S
Gd257 O286 2.417 1_565 S
Gd257 O287 2.704 1_565 S
C258 O276 1.240 . S
C258 O277 1.240 . S
C259 Gd256 2.818 . S
C259 C260 1.510 . S
C259 O278 1.249 . S
C259 O279 1.252 . S
C260 C259 1.510 . S
C260 C261 1.404 . S
C260 C262 1.352 . S
C261 C260 1.404 . S
C261 C265 1.389 . S
C261 H288 0.930 . S
C262 C260 1.352 . S
C262 C264 1.374 . S
C262 H289 0.931 . S
C263 C264 1.359 . S
C263 C265 1.364 . S
C264 C262 1.374 . S
C264 C263 1.359 . S
C264 H290 0.931 . S
C265 C261 1.389 . S
C265 C263 1.364 . S
C265 H291 0.931 . S
C266 O280 1.256 . S
C266 O281 1.257 . S
C267 O282 1.240 . S
C267 O283 1.240 . S
C268 Gd257 2.840 . S
C268 C269 1.510 . S
C268 O284 1.249 . S
C268 O285 1.252 . S
C269 C268 1.510 . S
C269 C270 1.404 . S
C269 C271 1.352 . S
C270 C269 1.404 . S
C270 C274 1.389 . S
C270 H292 0.930 . S
C271 C269 1.352 . S
C271 C273 1.374 . S
C271 H293 0.931 . S
C272 C273 1.359 . S
C272 C274 1.364 . S
C273 C271 1.374 . S
C273 C272 1.359 . S
C273 H294 0.931 . S
C274 C270 1.389 . S
C274 C272 1.364 . S
C274 H295 0.931 . S
C275 O286 1.256 . S
C275 O287 1.257 . S
O276 Gd256 2.377 . S
O276 C258 1.240 . S
O277 Gd257 2.371 1_445 S
O277 C258 1.240 . S
O278 Gd256 2.448 . S
O278 C259 1.249 . S
O279 Gd256 2.506 . S
O279 C259 1.252 . S
O280 Gd256 2.435 1_565 S
O280 C266 1.256 . S
O281 Gd256 2.717 1_565 S
O281 Gd257 2.342 1_455 S
O281 C266 1.257 . S
O282 Gd257 2.396 . S
O282 C267 1.240 . S
O283 Gd256 2.395 1_665 S
O283 C267 1.240 . S
O284 Gd257 2.458 . S
O284 C268 1.249 . S
O285 Gd257 2.534 . S
O285 C268 1.252 . S
O286 Gd257 2.417 1_545 S
O286 C275 1.256 . S
O287 Gd256 2.327 1_655 S
O287 Gd257 2.704 1_545 S
O287 C275 1.257 . S
H288 C261 0.930 . S
H289 C262 0.931 . S
H290 C264 0.931 . S
H291 C265 0.931 . S
H292 C270 0.930 . S
H293 C271 0.931 . S
H294 C273 0.931 . S
H295 C274 0.931 . S
Gd296 C299 2.818 . S
Gd296 O316 2.377 . S
Gd296 O318 2.448 . S
Gd296 O319 2.506 . S
Gd296 O320 2.435 1_545 S
Gd296 O321 2.717 1_545 S
Gd296 O323 2.395 1_544 S
Gd296 O327 2.327 1_554 S
Gd297 C308 2.818 1_545 S
Gd297 O317 2.395 1_556 S
Gd297 O321 2.327 1_546 S
Gd297 O322 2.377 1_545 S
Gd297 O324 2.448 . S
Gd297 O325 2.506 1_545 S
Gd297 O326 2.435 . S
Gd297 O327 2.717 . S
C298 O316 1.240 . S
C298 O317 1.240 . S
C299 Gd296 2.818 . S
C299 C300 1.510 . S
C299 O318 1.249 . S
C299 O319 1.252 . S
C300 C299 1.510 . S
C300 C301 1.404 . S
C300 C302 1.352 . S
C301 C300 1.404 . S
C301 C305 1.389 . S
C301 H328 0.930 . S
C302 C300 1.352 . S
C302 C304 1.374 . S
C302 H329 0.931 . S
C303 C304 1.359 . S
C303 C305 1.364 . S
C304 C302 1.374 . S
C304 C303 1.359 . S
C304 H330 0.931 . S
C305 C301 1.389 . S
C305 C303 1.364 . S
C305 H331 0.931 . S
C306 O320 1.256 . S
C306 O321 1.257 . S
C307 O322 1.240 . S
C307 O323 1.240 . S
C308 Gd297 2.818 1_565 S
C308 C309 1.510 . S
C308 O324 1.247 1_565 S
C308 O325 1.252 . S
C309 C308 1.510 . S
C309 C310 1.404 . S
C309 C311 1.352 . S
C310 C309 1.404 . S
C310 C314 1.389 . S
C310 H332 0.930 . S
C311 C309 1.352 . S
C311 C313 1.374 . S
C311 H333 0.931 . S
C312 C313 1.359 . S
C312 C314 1.364 . S
C313 C311 1.374 . S
C313 C312 1.359 . S
C313 H334 0.931 . S
C314 C310 1.389 . S
C314 C312 1.364 . S
C314 H335 0.931 . S
C315 O326 1.256 . S
C315 O327 1.257 . S
O316 Gd296 2.377 . S
O316 C298 1.240 . S
O317 Gd297 2.395 1_554 S
O317 C298 1.240 . S
O318 Gd296 2.448 . S
O318 C299 1.249 . S
O319 Gd296 2.506 . S
O319 C299 1.252 . S
O320 Gd296 2.435 1_565 S
O320 C306 1.256 . S
O321 Gd296 2.717 1_565 S
O321 Gd297 2.327 1_564 S
O321 C306 1.257 . S
O322 Gd297 2.377 1_565 S
O322 C307 1.240 . S
O323 Gd296 2.395 1_566 S
O323 C307 1.240 . S
O324 Gd297 2.448 . S
O324 C308 1.247 1_545 S
O325 Gd297 2.506 1_565 S
O325 C308 1.252 . S
O326 Gd297 2.435 . S
O326 C315 1.256 . S
O327 Gd296 2.327 1_556 S
O327 Gd297 2.717 . S
O327 C315 1.257 . S
H328 C301 0.930 . S
H329 C302 0.931 . S
H330 C304 0.931 . S
H331 C305 0.931 . S
H332 C310 0.930 . S
H333 C311 0.931 . S
H334 C313 0.931 . S
H335 C314 0.931 . S
Gd336 C339 2.818 . S
Gd336 O356 2.377 . S
Gd336 O358 2.448 . S
Gd336 O359 2.506 . S
Gd336 O360 2.435 . S
Gd336 O361 2.717 . S
Gd336 O363 2.395 . S
Gd336 O367 2.327 . S
Gd337 C348 2.818 . S
Gd337 O357 2.395 . S
Gd337 O361 2.327 . S
Gd337 O362 2.377 . S
Gd337 O364 2.448 . S
Gd337 O365 2.506 . S
Gd337 O366 2.435 . S
Gd337 O367 2.717 . S
C338 O356 1.240 . S
C338 O357 1.240 . S
C339 Gd336 2.818 . S
C339 C340 1.510 . S
C339 O358 1.249 . S
C339 O359 1.252 . S
C340 C339 1.510 . S
C340 C341 1.404 . S
C340 C342 1.352 . S
C341 C340 1.404 . S
C341 C345 1.389 . S
C341 H368 0.930 . S
C342 C340 1.352 . S
C342 C344 1.374 . S
C342 H369 0.931 . S
C343 C344 1.359 . S
C343 C345 1.364 . S
C344 C342 1.374 . S
C344 C343 1.359 . S
C344 H370 0.931 . S
C345 C341 1.389 . S
C345 C343 1.364 . S
C345 H371 0.931 . S
C346 O360 1.256 . S
C346 O361 1.257 . S
C347 O362 1.240 . S
C347 O363 1.240 . S
C348 Gd337 2.818 . S
C348 C349 1.510 . S
C348 O364 1.249 . S
C348 O365 1.252 . S
C349 C348 1.510 . S
C349 C350 1.404 . S
C349 C351 1.352 . S
C350 C349 1.404 . S
C350 C354 1.389 . S
C350 H372 0.930 . S
C351 C349 1.352 . S
C351 C353 1.374 . S
C351 H373 0.931 . S
C352 C353 1.359 . S
C352 C354 1.364 . S
C353 C351 1.374 . S
C353 C352 1.359 . S
C353 H374 0.931 . S
C354 C350 1.389 . S
C354 C352 1.364 . S
C354 H375 0.931 . S
C355 O366 1.256 . S
C355 O367 1.257 . S
O356 Gd336 2.377 . S
O356 C338 1.240 . S
O357 Gd337 2.395 . S
O357 C338 1.240 . S
O358 Gd336 2.448 . S
O358 C339 1.249 . S
O359 Gd336 2.506 . S
O359 C339 1.252 . S
O360 Gd336 2.435 . S
O360 C346 1.256 . S
O361 Gd336 2.717 . S
O361 Gd337 2.327 . S
O361 C346 1.257 . S
O362 Gd337 2.377 . S
O362 C347 1.240 . S
O363 Gd336 2.395 . S
O363 C347 1.240 . S
O364 Gd337 2.448 . S
O364 C348 1.249 . S
O365 Gd337 2.506 . S
O365 C348 1.252 . S
O366 Gd337 2.435 . S
O366 C355 1.256 . S
O367 Gd336 2.327 . S
O367 Gd337 2.717 . S
O367 C355 1.257 . S
H368 C341 0.930 . S
H369 C342 0.931 . S
H370 C344 0.931 . S
H371 C345 0.931 . S
H372 C350 0.930 . S
H373 C351 0.931 . S
H374 C353 0.931 . S
H375 C354 0.931 . S
Gd376 C379 2.818 . S
Gd376 O396 2.377 . S
Gd376 O398 2.448 . S
Gd376 O399 2.506 . S
Gd376 O400 2.435 1_455 S
Gd376 O401 2.717 1_455 S
Gd376 O403 2.400 1_455 S
Gd376 O407 2.327 1_554 S
Gd377 C388 2.842 . S
Gd377 O397 2.369 1_656 S
Gd377 O401 2.334 1_556 S
Gd377 O402 2.394 . S
Gd377 O404 2.464 . S
Gd377 O405 2.534 . S
Gd377 O406 2.421 1_655 S
Gd377 O407 2.702 1_655 S
C378 O396 1.240 . S
C378 O397 1.240 . S
C379 Gd376 2.818 . S
C379 C380 1.510 . S
C379 O398 1.249 . S
C379 O399 1.252 . S
C380 C379 1.510 . S
C380 C381 1.404 . S
C380 C382 1.352 . S
C381 C380 1.404 . S
C381 C385 1.389 . S
C381 H408 0.930 . S
C382 C380 1.352 . S
C382 C384 1.374 . S
C382 H409 0.931 . S
C383 C384 1.359 . S
C383 C385 1.364 . S
C384 C382 1.374 . S
C384 C383 1.359 . S
C384 H410 0.931 . S
C385 C381 1.389 . S
C385 C383 1.364 . S
C385 H411 0.931 . S
C386 O400 1.256 . S
C386 O401 1.257 . S
C387 O402 1.240 . S
C387 O403 1.233 1_556 S
C388 Gd377 2.842 . S
C388 C389 1.510 . S
C388 O404 1.249 . S
C388 O405 1.252 . S
C389 C388 1.510 . S
C389 C390 1.404 . S
C389 C391 1.352 . S
C390 C389 1.404 . S
C390 C394 1.389 . S
C390 H412 0.930 . S
C391 C389 1.352 . S
C391 C393 1.374 . S
C391 H413 0.931 . S
C392 C393 1.359 . S
C392 C394 1.364 . S
C393 C391 1.374 . S
C393 C392 1.359 . S
C393 H414 0.931 . S
C394 C390 1.389 . S
C394 C392 1.364 . S
C394 H415 0.931 . S
C395 O406 1.256 . S
C395 O407 1.257 . S
O396 Gd376 2.377 . S
O396 C378 1.240 . S
O397 Gd377 2.369 1_454 S
O397 C378 1.240 . S
O398 Gd376 2.448 . S
O398 C379 1.249 . S
O399 Gd376 2.506 . S
O399 C379 1.252 . S
O400 Gd376 2.435 1_655 S
O400 C386 1.256 . S
O401 Gd376 2.717 1_655 S
O401 Gd377 2.334 1_554 S
O401 C386 1.257 . S
O402 Gd377 2.394 . S
O402 C387 1.240 . S
O403 Gd376 2.400 1_655 S
O403 C387 1.233 1_554 S
O404 Gd377 2.464 . S
O404 C388 1.249 . S
O405 Gd377 2.534 . S
O405 C388 1.252 . S
O406 Gd377 2.421 1_455 S
O406 C395 1.256 . S
O407 Gd376 2.327 1_556 S
O407 Gd377 2.702 1_455 S
O407 C395 1.257 . S
H408 C381 0.930 . S
H409 C382 0.931 . S
H410 C384 0.931 . S
H411 C385 0.931 . S
H412 C390 0.930 . S
H413 C391 0.931 . S
H414 C393 0.931 . S
H415 C394 0.931 . S
C416 C417 1.387 . S
C416 H420 0.950 . S
C416 C425 1.390 . S
C417 C416 1.387 . S
C417 C419 1.387 . S
H418 C425 0.950 . S
C419 C417 1.387 . S
C419 C421 1.390 . S
C419 H423 0.950 . S
H420 C416 0.950 . S
C421 C419 1.390 . S
C421 C422 1.387 . S
C421 H424 0.950 . S
C422 C421 1.387 . S
C422 C425 1.387 . S
H423 C419 0.950 . S
H424 C421 0.950 . S
C425 C416 1.390 . S
C425 H418 0.950 . S
C425 C422 1.387 . S
C426 C427 1.387 . S
C426 H430 0.950 . S
C426 C435 1.390 . S
C427 C426 1.387 . S
C427 C429 1.387 . S
H428 C435 0.950 . S
C429 C427 1.387 . S
C429 C431 1.390 . S
C429 H433 0.950 . S
H430 C426 0.950 . S
C431 C429 1.390 . S
C431 C432 1.387 . S
C431 H434 0.950 . S
C432 C431 1.387 . S
C432 C435 1.387 . S
H433 C429 0.950 . S
H434 C431 0.950 . S
C435 C426 1.390 . S
C435 H428 0.950 . S
C435 C432 1.387 . S
C436 C437 1.387 . S
C436 H440 0.950 . S
C436 C445 1.390 . S
C437 C436 1.387 . S
C437 C439 1.387 . S
H438 C445 0.950 . S
C439 C437 1.387 . S
C439 C441 1.390 . S
C439 H443 0.950 . S
H440 C436 0.950 . S
C441 C439 1.390 . S
C441 C442 1.387 . S
C441 H444 0.950 . S
C442 C441 1.387 . S
C442 C445 1.387 . S
H443 C439 0.950 . S
H444 C441 0.950 . S
C445 C436 1.390 . S
C445 H438 0.950 . S
C445 C442 1.387 . S
C446 C447 1.387 . S
C446 H450 0.950 . S
C446 C455 1.390 . S
C447 C446 1.387 . S
C447 C449 1.387 . S
H448 C455 0.950 . S
C449 C447 1.387 . S
C449 C451 1.390 . S
C449 H453 0.950 . S
H450 C446 0.950 . S
C451 C449 1.390 . S
C451 C452 1.387 . S
C451 H454 0.950 . S
C452 C451 1.387 . S
C452 C455 1.387 . S
H453 C449 0.950 . S
H454 C451 0.950 . S
C455 C446 1.390 . S
C455 H448 0.950 . S
C455 C452 1.387 . S
C456 C457 1.387 . S
C456 H460 0.950 . S
C456 C465 1.390 . S
C457 C456 1.387 . S
C457 C459 1.387 . S
H458 C465 0.950 . S
C459 C457 1.387 . S
C459 C461 1.390 . S
C459 H463 0.950 . S
H460 C456 0.950 . S
C461 C459 1.390 . S
C461 C462 1.387 . S
C461 H464 0.950 . S
C462 C461 1.387 . S
C462 C465 1.387 . S
H463 C459 0.950 . S
H464 C461 0.950 . S
C465 C456 1.390 . S
C465 H458 0.950 . S
C465 C462 1.387 . S
C466 C467 1.387 . S
C466 H470 0.950 . S
C466 C475 1.390 . S
C467 C466 1.387 . S
C467 C469 1.387 . S
H468 C475 0.950 . S
C469 C467 1.387 . S
C469 C471 1.390 . S
C469 H473 0.950 . S
H470 C466 0.950 . S
C471 C469 1.390 . S
C471 C472 1.387 . S
C471 H474 0.950 . S
C472 C471 1.387 . S
C472 C475 1.387 . S
H473 C469 0.950 . S
H474 C471 0.950 . S
C475 C466 1.390 . S
C475 H468 0.950 . S
C475 C472 1.387 . S
C476 C477 1.387 . S
C476 H480 0.950 . S
C476 C485 1.390 . S
C477 C476 1.387 . S
C477 C479 1.387 . S
H478 C485 0.950 . S
C479 C477 1.387 . S
C479 C481 1.390 . S
C479 H483 0.950 . S
H480 C476 0.950 . S
C481 C479 1.390 . S
C481 C482 1.387 . S
C481 H484 0.950 . S
C482 C481 1.387 . S
C482 C485 1.387 . S
H483 C479 0.950 . S
H484 C481 0.950 . S
C485 C476 1.390 . S
C485 H478 0.950 . S
C485 C482 1.387 . S
C486 C487 1.387 . S
C486 H490 0.950 . S
C486 C495 1.390 . S
C487 C486 1.387 . S
C487 C489 1.387 . S
H488 C495 0.950 . S
C489 C487 1.387 . S
C489 C491 1.390 . S
C489 H493 0.950 . S
H490 C486 0.950 . S
C491 C489 1.390 . S
C491 C492 1.387 . S
C491 H494 0.950 . S
C492 C491 1.387 . S
C492 C495 1.387 . S
H493 C489 0.950 . S
H494 C491 0.950 . S
C495 C486 1.390 . S
C495 H488 0.950 . S
C495 C492 1.387 . S
C496 C497 1.387 . S
C496 H500 0.950 . S
C496 C505 1.390 . S
C497 C496 1.387 . S
C497 C499 1.387 . S
H498 C505 0.950 . S
C499 C497 1.387 . S
C499 C501 1.390 . S
C499 H503 0.950 . S
H500 C496 0.950 . S
C501 C499 1.390 . S
C501 C502 1.387 . S
C501 H504 0.950 . S
C502 C501 1.387 . S
C502 C505 1.387 . S
H503 C499 0.950 . S
H504 C501 0.950 . S
C505 C496 1.390 . S
C505 H498 0.950 . S
C505 C502 1.387 . S
C506 C507 1.387 . S
C506 H510 0.950 . S
C506 C515 1.390 . S
C507 C506 1.387 . S
C507 C509 1.387 . S
H508 C515 0.950 . S
C509 C507 1.387 . S
C509 C511 1.390 . S
C509 H513 0.950 . S
H510 C506 0.950 . S
C511 C509 1.390 . S
C511 C512 1.387 . S
C511 H514 0.950 . S
C512 C511 1.387 . S
C512 C515 1.387 . S
H513 C509 0.950 . S
H514 C511 0.950 . S
C515 C506 1.390 . S
C515 H508 0.950 . S
C515 C512 1.387 . S
C516 C517 1.387 . S
C516 H520 0.950 . S
C516 C525 1.390 . S
C517 C516 1.387 . S
C517 C519 1.387 . S
H518 C525 0.950 . S
C519 C517 1.387 . S
C519 C521 1.390 . S
C519 H523 0.950 . S
H520 C516 0.950 . S
C521 C519 1.390 . S
C521 C522 1.387 . S
C521 H524 0.950 . S
C522 C521 1.387 . S
C522 C525 1.387 . S
H523 C519 0.950 . S
H524 C521 0.950 . S
C525 C516 1.390 . S
C525 H518 0.950 . S
C525 C522 1.387 . S
C526 C527 1.387 . S
C526 H530 0.950 . S
C526 C535 1.390 . S
C527 C526 1.387 . S
C527 C529 1.387 . S
H528 C535 0.950 . S
C529 C527 1.387 . S
C529 C531 1.390 . S
C529 H533 0.950 . S
H530 C526 0.950 . S
C531 C529 1.390 . S
C531 C532 1.387 . S
C531 H534 0.950 . S
C532 C531 1.387 . S
C532 C535 1.387 . S
H533 C529 0.950 . S
H534 C531 0.950 . S
C535 C526 1.390 . S
C535 H528 0.950 . S
C535 C532 1.387 . S
C536 C537 1.387 . S
C536 H540 0.950 . S
C536 C545 1.390 . S
C537 C536 1.387 . S
C537 C539 1.387 . S
H538 C545 0.950 . S
C539 C537 1.387 . S
C539 C541 1.390 . S
C539 H543 0.950 . S
H540 C536 0.950 . S
C541 C539 1.390 . S
C541 C542 1.387 . S
C541 H544 0.950 . S
C542 C541 1.387 . S
C542 C545 1.387 . S
H543 C539 0.950 . S
H544 C541 0.950 . S
C545 C536 1.390 . S
C545 H538 0.950 . S
C545 C542 1.387 . S
C546 C547 1.387 . S
C546 H550 0.950 . S
C546 C555 1.390 . S
C547 C546 1.387 . S
C547 C549 1.387 . S
H548 C555 0.950 . S
C549 C547 1.387 . S
C549 C551 1.390 . S
C549 H553 0.950 . S
H550 C546 0.950 . S
C551 C549 1.390 . S
C551 C552 1.387 . S
C551 H554 0.950 . S
C552 C551 1.387 . S
C552 C555 1.387 . S
H553 C549 0.950 . S
H554 C551 0.950 . S
C555 C546 1.390 . S
C555 H548 0.950 . S
C555 C552 1.387 . S
C556 C557 1.387 . S
C556 H560 0.950 . S
C556 C565 1.390 . S
C557 C556 1.387 . S
C557 C559 1.387 . S
H558 C565 0.950 . S
C559 C557 1.387 . S
C559 C561 1.390 . S
C559 H563 0.950 . S
H560 C556 0.950 . S
C561 C559 1.390 . S
C561 C562 1.387 . S
C561 H564 0.950 . S
C562 C561 1.387 . S
C562 C565 1.387 . S
H563 C559 0.950 . S
H564 C561 0.950 . S
C565 C556 1.390 . S
C565 H558 0.950 . S
C565 C562 1.387 . S
C566 C567 1.387 . S
C566 H570 0.950 . S
C566 C575 1.390 . S
C567 C566 1.387 . S
C567 C569 1.387 . S
H568 C575 0.950 . S
C569 C567 1.387 . S
C569 C571 1.390 . S
C569 H573 0.950 . S
H570 C566 0.950 . S
C571 C569 1.390 . S
C571 C572 1.387 . S
C571 H574 0.950 . S
C572 C571 1.387 . S
C572 C575 1.387 . S
H573 C569 0.950 . S
H574 C571 0.950 . S
C575 C566 1.390 . S
C575 H568 0.950 . S
C575 C572 1.387 . S
C576 C577 1.387 . S
C576 H580 0.950 . S
C576 C585 1.390 . S
C577 C576 1.387 . S
C577 C579 1.387 . S
H578 C585 0.950 . S
C579 C577 1.387 . S
C579 C581 1.390 . S
C579 H583 0.950 . S
H580 C576 0.950 . S
C581 C579 1.390 . S
C581 C582 1.387 . S
C581 H584 0.950 . S
C582 C581 1.387 . S
C582 C585 1.387 . S
H583 C579 0.950 . S
H584 C581 0.950 . S
C585 C576 1.390 . S
C585 H578 0.950 . S
C585 C582 1.387 . S
C586 C587 1.387 . S
C586 H590 0.950 . S
C586 C595 1.390 . S
C587 C586 1.387 . S
C587 C589 1.387 . S
H588 C595 0.950 . S
C589 C587 1.387 . S
C589 C591 1.390 . S
C589 H593 0.950 . S
H590 C586 0.950 . S
C591 C589 1.390 . S
C591 C592 1.387 . S
C591 H594 0.950 . S
C592 C591 1.387 . S
C592 C595 1.387 . S
H593 C589 0.950 . S
H594 C591 0.950 . S
C595 C586 1.390 . S
C595 H588 0.950 . S
C595 C592 1.387 . S
C596 C597 1.387 . S
C596 H600 0.950 . S
C596 C605 1.390 . S
C597 C596 1.387 . S
C597 C599 1.387 . S
H598 C605 0.950 . S
C599 C597 1.387 . S
C599 C601 1.390 . S
C599 H603 0.950 . S
H600 C596 0.950 . S
C601 C599 1.390 . S
C601 C602 1.387 . S
C601 H604 0.950 . S
C602 C601 1.387 . S
C602 C605 1.387 . S
H603 C599 0.950 . S
H604 C601 0.950 . S
C605 C596 1.390 . S
C605 H598 0.950 . S
C605 C602 1.387 . S
C606 C607 1.387 . S
C606 H610 0.950 . S
C606 C615 1.390 . S
C607 C606 1.387 . S
C607 C609 1.387 . S
H608 C615 0.950 . S
C609 C607 1.387 . S
C609 C611 1.390 . S
C609 H613 0.950 . S
H610 C606 0.950 . S
C611 C609 1.390 . S
C611 C612 1.387 . S
C611 H614 0.950 . S
C612 C611 1.387 . S
C612 C615 1.387 . S
H613 C609 0.950 . S
H614 C611 0.950 . S
C615 C606 1.390 . S
C615 H608 0.950 . S
C615 C612 1.387 . S
C616 C617 1.387 . S
C616 H620 0.950 . S
C616 C625 1.390 . S
C617 C616 1.387 . S
C617 C619 1.387 . S
H618 C625 0.950 . S
C619 C617 1.387 . S
C619 C621 1.390 . S
C619 H623 0.950 . S
H620 C616 0.950 . S
C621 C619 1.390 . S
C621 C622 1.387 . S
C621 H624 0.950 . S
C622 C621 1.387 . S
C622 C625 1.387 . S
H623 C619 0.950 . S
H624 C621 0.950 . S
C625 C616 1.390 . S
C625 H618 0.950 . S
C625 C622 1.387 . S
C626 C627 1.387 . S
C626 H630 0.950 . S
C626 C635 1.390 . S
C627 C626 1.387 . S
C627 C629 1.387 . S
H628 C635 0.950 . S
C629 C627 1.387 . S
C629 C631 1.390 . S
C629 H633 0.950 . S
H630 C626 0.950 . S
C631 C629 1.390 . S
C631 C632 1.387 . S
C631 H634 0.950 . S
C632 C631 1.387 . S
C632 C635 1.387 . S
H633 C629 0.950 . S
H634 C631 0.950 . S
C635 C626 1.390 . S
C635 H628 0.950 . S
C635 C632 1.387 . S
C636 C637 1.387 . S
C636 H640 0.950 . S
C636 C645 1.390 . S
C637 C636 1.387 . S
C637 C639 1.387 . S
H638 C645 0.950 . S
C639 C637 1.387 . S
C639 C641 1.390 . S
C639 H643 0.950 . S
H640 C636 0.950 . S
C641 C639 1.390 . S
C641 C642 1.387 . S
C641 H644 0.950 . S
C642 C641 1.387 . S
C642 C645 1.387 . S
H643 C639 0.950 . S
H644 C641 0.950 . S
C645 C636 1.390 . S
C645 H638 0.950 . S
C645 C642 1.387 . S
C646 C647 1.387 . S
C646 H650 0.950 . S
C646 C655 1.390 . S
C647 C646 1.387 . S
C647 C649 1.387 . S
H648 C655 0.950 . S
C649 C647 1.387 . S
C649 C651 1.390 . S
C649 H653 0.950 . S
H650 C646 0.950 . S
C651 C649 1.390 . S
C651 C652 1.387 . S
C651 H654 0.950 . S
C652 C651 1.387 . S
C652 C655 1.387 . S
H653 C649 0.950 . S
H654 C651 0.950 . S
C655 C646 1.390 . S
C655 H648 0.950 . S
C655 C652 1.387 . S
C417 C29 1.273 . S
C422 C263 1.297 . S
C427 C49 1.031 . S
C432 C312 1.075 . S
C442 C338 2.517 . S
C437 C93 2.517 . S
C447 C119 2.370 . S
C452 C386 2.361 . S
C462 C298 2.387 . S
C457 C17 2.322 . S
C472 C266 0.908 . S
C467 C61 0.903 . S
C482 C387 1.932 . S
C477 C81 1.963 . S
C492 C355 1.735 . S
C487 C125 1.724 . S
C497 C23 1.667 . S
C502 C383 1.684 . S
C512 C315 2.312 . S
C507 C87 2.356 . S
C517 C113 2.326 . S
C522 C267 2.362 . S
C527 C55 1.062 . S
C532 C352 1.185 . S
C542 C272 1.306 . S
C537 C157 1.086 . S
C547 C189 1.109 . S
C552 C303 1.105 . S
C557 C221 2.486 . S
C562 C347 2.480 . S
C567 C253 2.436 . S
C572 C395 2.446 . S
C577 C145 2.096 . S
C582 C307 2.457 . S
C592 C275 0.882 . S
C587 C183 0.895 . S
C602 C378 1.963 . S
C597 C209 1.942 . S
C612 C346 1.706 . S
C607 C247 1.683 . S
C617 C151 1.491 . S
C622 C392 1.704 . S
C632 C306 2.308 . S
C627 C215 2.352 . S
C642 C258 2.337 . S
C637 C241 2.284 . S
C647 C177 1.180 . S
C652 C343 1.161 . S
