# Generated by pormake.
# Topology anh, (6,3)-cn, num edge types: 1
# Building blocks:
#     Node 0, Type 0, BuildingBlock: GEDQOX_clean_sbu_0, # of connection points: 6
#     Node 1, Type 0, BuildingBlock: GEDQOX_clean_sbu_0, # of connection points: 6
#     Node 2, Type 0, BuildingBlock: GEDQOX_clean_sbu_0, # of connection points: 6
#     Node 3, Type 1, BuildingBlock: BETDAH_clean_linker_0, # of connection points: 3
#     Node 4, Type 1, BuildingBlock: BETDAH_clean_linker_0, # of connection points: 3
#     Node 5, Type 1, BuildingBlock: BETDAH_clean_linker_0, # of connection points: 3
#     Node 6, Type 1, BuildingBlock: BETDAH_clean_linker_0, # of connection points: 3
#     Node 7, Type 1, BuildingBlock: BETDAH_clean_linker_0, # of connection points: 3
#     Node 8, Type 1, BuildingBlock: BETDAH_clean_linker_0, # of connection points: 3
#     Edge 9, Type (0, 1), BuildingBlock: OJICUG_clean_linker_0, # of connection points: 2
#     Edge 10, Type (0, 1), BuildingBlock: OJICUG_clean_linker_0, # of connection points: 2
#     Edge 11, Type (0, 1), BuildingBlock: OJICUG_clean_linker_0, # of connection points: 2
#     Edge 12, Type (0, 1), BuildingBlock: OJICUG_clean_linker_0, # of connection points: 2
#     Edge 13, Type (0, 1), BuildingBlock: OJICUG_clean_linker_0, # of connection points: 2
#     Edge 14, Type (0, 1), BuildingBlock: OJICUG_clean_linker_0, # of connection points: 2
#     Edge 15, Type (0, 1), BuildingBlock: OJICUG_clean_linker_0, # of connection points: 2
#     Edge 16, Type (0, 1), BuildingBlock: OJICUG_clean_linker_0, # of connection points: 2
#     Edge 17, Type (0, 1), BuildingBlock: OJICUG_clean_linker_0, # of connection points: 2
#     Edge 18, Type (0, 1), BuildingBlock: OJICUG_clean_linker_0, # of connection points: 2
#     Edge 19, Type (0, 1), BuildingBlock: OJICUG_clean_linker_0, # of connection points: 2
#     Edge 20, Type (0, 1), BuildingBlock: OJICUG_clean_linker_0, # of connection points: 2
#     Edge 21, Type (0, 1), BuildingBlock: OJICUG_clean_linker_0, # of connection points: 2
#     Edge 22, Type (0, 1), BuildingBlock: OJICUG_clean_linker_0, # of connection points: 2
#     Edge 23, Type (0, 1), BuildingBlock: OJICUG_clean_linker_0, # of connection points: 2
#     Edge 24, Type (0, 1), BuildingBlock: OJICUG_clean_linker_0, # of connection points: 2
#     Edge 25, Type (0, 1), BuildingBlock: OJICUG_clean_linker_0, # of connection points: 2
#     Edge 26, Type (0, 1), BuildingBlock: OJICUG_clean_linker_0, # of connection points: 2
# Relax obj value: 0.208
# Max RMSD: 0.212
# Mean RMSD: 0.119
data_MOF--net-anh--node1-GEDQOX_clean_sbu_0--node2-BETDAH_clean_linker_0--edge1-OJICUG_clean_linker_0
_symmetry_space_group_name_H-M    P1
_symmetry_Int_Tables_number       1
_symmetry_cell_setting            triclinic
loop_
_symmetry_equiv_pos_as_xyz
'x, y, z'
_cell_length_a     22.60009
_cell_length_b     22.032924
_cell_length_c     36.088461
_cell_angle_alpha  95.086542
_cell_angle_beta   93.380747
_cell_angle_gamma 96.383145
loop_
_atom_site_label
_atom_site_type_symbol
_atom_site_fract_x
_atom_site_fract_y
_atom_site_fract_z
_atom_type_partial_charge
Nd0 Nd 0.11663 0.6059 0.13581 0.0
Nd1 Nd 1.10287 0.46973 0.14264 0.0
C2 C 0.15063 0.71944 0.1216 0.0
C3 C 0.20125 0.76398 0.1376 0.0
C4 C 0.24342 0.7885 0.11428 0.0
C5 C 0.29598 0.82367 0.12954 0.0
C6 C 0.30722 0.83501 0.16846 0.0
C7 C 0.26363 0.8126 0.19164 0.0
C8 C 0.21141 0.77722 0.17642 0.0
C9 C 1.10827 0.57565 0.20774 0.0
C10 C 0.24044 0.53257 0.13751 0.0
C11 C 1.07779 0.35867 0.16427 0.0
C12 C 1.02697 0.31903 0.1759 0.0
C13 C 0.96799 0.32868 0.16613 0.0
C14 C 0.92037 0.28899 0.17645 0.0
C15 C 0.93099 0.23912 0.19679 0.0
C16 C 0.99028 0.23088 0.20734 0.0
C17 C 1.03779 0.27048 0.19693 0.0
C18 C 0.1179 0.50332 0.0724 0.0
C19 C 0.97956 0.53997 0.12833 0.0
O20 O 0.16515 0.67146 0.10172 0.0
O21 O 1.10834 0.70536 0.14368 0.0
O22 O 1.08447 0.62076 0.1946 0.0
O23 O 0.13805 0.55008 0.18371 0.0
O24 O 0.21546 0.58292 0.13121 0.0
O25 O 0.20697 0.48297 0.14607 0.0
O26 O 1.0978 0.4068 0.18727 0.0
O27 O 1.07599 0.37012 0.12926 0.0
O28 O 0.14174 0.45758 0.08514 0.0
O29 O 1.08481 0.52566 0.09549 0.0
O30 O 1.00297 0.49386 0.1432 0.0
O31 O 1.01564 0.58582 0.1175 0.0
H32 H 0.23674 0.77845 0.08428 0.0
H33 H 0.32882 0.83982 0.1109 0.0
H34 H 0.27031 0.82148 0.22168 0.0
H35 H 0.17995 0.75873 0.19522 0.0
H36 H 0.95881 0.36622 0.15004 0.0
H37 H 0.87535 0.29631 0.16748 0.0
H38 H 1.00004 0.19358 0.22347 0.0
H39 H 1.0831 0.26278 0.20501 0.0
Nd40 Nd 0.58135 0.01682 0.52323 0.0
Nd41 Nd 0.7095 0.03007 0.50772 0.0
C42 C 0.47316 0.98521 0.54403 0.0
C43 C 0.42513 0.9378 0.5277 0.0
C44 C 0.40312 0.89085 0.54882 0.0
C45 C 0.36318 0.84153 0.53219 0.0
C46 C 0.3445 0.83839 0.4941 0.0
C47 C 0.36475 0.88679 0.47345 0.0
C48 C 0.40479 0.93576 0.48997 0.0
C49 C 0.5996 0.02416 0.44915 0.0
C50 C 0.65076 0.89171 0.51199 0.0
C51 C 0.81483 0.05758 0.48106 0.0
C52 C 0.85119 0.11114 0.46945 0.0
C53 C 0.89341 0.1023 0.4432 0.0
C54 C 0.93051 0.15225 0.43303 0.0
C55 C 0.92612 0.21202 0.44907 0.0
C56 C 0.88227 0.22082 0.47456 0.0
C57 C 0.84502 0.17079 0.4846 0.0
C58 C 0.68857 0.02214 0.58176 0.0
C59 C 0.64241 0.1537 0.52302 0.0
O60 O 0.52066 0.96487 0.5586 0.0
O61 O 0.48622 0.03153 0.52451 0.0
O62 O 0.55819 0.04887 0.46615 0.0
O63 O 0.62768 0.99336 0.47056 0.0
O64 O 0.60488 0.91716 0.52498 0.0
O65 O 0.69585 0.92528 0.49941 0.0
O66 O 0.76653 0.03721 0.45994 0.0
O67 O 0.80685 0.05758 0.51664 0.0
O68 O 0.73036 0.99649 0.56543 0.0
O69 O 0.66253 0.05373 0.56001 0.0
O70 O 0.68252 0.12819 0.50356 0.0
O71 O 0.60388 0.11939 0.5407 0.0
H72 H 0.41841 0.89126 0.57788 0.0
H73 H 0.34882 0.80475 0.54882 0.0
H74 H 0.35038 0.88639 0.44425 0.0
H75 H 0.421 0.9711 0.47281 0.0
H76 H 0.89828 0.05657 0.43094 0.0
H77 H 0.96306 0.14396 0.41288 0.0
H78 H 0.87805 0.26607 0.48777 0.0
H79 H 0.81229 0.17855 0.50474 0.0
Nd80 Nd 0.56838 0.54754 0.8071 0.0
Nd81 Nd 0.69545 0.56468 0.8287 0.0
C82 C 0.46288 0.5593 0.77504 0.0
C83 C 0.42809 0.61158 0.77801 0.0
C84 C 0.38605 0.62047 0.74949 0.0
C85 C 0.35287 0.67048 0.75321 0.0
C86 C 0.36115 0.71199 0.78566 0.0
C87 C 0.40585 0.704 0.81315 0.0
C88 C 0.43909 0.65471 0.80921 0.0
C89 C 0.59229 0.54476 0.88294 0.0
C90 C 0.63594 0.68828 0.82637 0.0
C91 C 0.80758 0.56129 0.85213 0.0
C92 C 0.86149 0.54466 0.83428 0.0
C93 C 0.87431 0.48353 0.82974 0.0
C94 C 0.92935 0.47001 0.8174 0.0
C95 C 0.97276 0.51748 0.80992 0.0
C96 C 0.95704 0.57764 0.81082 0.0
C97 C 0.90234 0.59107 0.82312 0.0
C98 C 0.6702 0.56589 0.75314 0.0
C99 C 0.62739 0.4239 0.81154 0.0
O100 O 0.51249 0.56924 0.75862 0.0
O101 O 0.46967 0.53167 0.8054 0.0
O102 O 0.55006 0.5092 0.86326 0.0
O103 O 0.61866 0.58233 0.86315 0.0
O104 O 0.59293 0.65242 0.80632 0.0
O105 O 0.67764 0.66376 0.84501 0.0
O106 O 0.76538 0.5172 0.85605 0.0
O107 O 0.78686 0.61086 0.84227 0.0
O108 O 0.71327 0.60062 0.77198 0.0
O109 O 0.64554 0.52868 0.77349 0.0
O110 O 0.66964 0.46001 0.8324 0.0
O111 O 0.58524 0.44801 0.79299 0.0
H112 H 0.37824 0.58831 0.72472 0.0
H113 H 0.31959 0.6755 0.73121 0.0
H114 H 0.41326 0.73361 0.83896 0.0
H115 H 0.47239 0.64934 0.83118 0.0
H116 H 0.84322 0.44651 0.83748 0.0
H117 H 0.93975 0.42312 0.81662 0.0
H118 H 0.98912 0.61577 0.80573 0.0
H119 H 0.89358 0.63856 0.8259 0.0
H120 H 0.50655 0.96051 0.28997 0.0
H121 H 0.68668 0.03989 0.27893 0.0
H122 H 0.57479 0.96434 0.18141 0.0
C123 C 0.54261 0.97262 0.27247 0.0
C124 C 0.53382 0.95907 0.23372 0.0
C125 C 0.59754 1.00153 0.28899 0.0
C126 C 0.64422 0.01762 0.2663 0.0
C127 C 0.63549 1.00469 0.22727 0.0
C128 C 0.58067 0.97511 0.2114 0.0
N129 N 0.68078 0.01936 0.20288 0.0
C130 C 0.73035 0.06251 0.21161 0.0
H131 H 0.65391 0.40814 0.60437 0.0
H132 H 0.65986 0.59397 0.57608 0.0
H133 H 0.64429 0.44418 0.48922 0.0
C134 C 0.65356 0.44048 0.5834 0.0
C135 C 0.64834 0.41834 0.54562 0.0
C136 C 0.65824 0.50349 0.59462 0.0
C137 C 0.65647 0.5453 0.56743 0.0
C138 C 0.65162 0.52418 0.52922 0.0
C139 C 0.64825 0.46062 0.51856 0.0
N140 N 0.64988 0.56527 0.50089 0.0
C141 C 0.65119 0.62893 0.50725 0.0
H142 H 0.19678 0.53833 0.91981 0.0
H143 H 0.1943 0.72338 0.96801 0.0
H144 H 0.16076 0.6808 0.85079 0.0
C145 C 0.19373 0.58607 0.91615 0.0
C146 C 0.17738 0.60312 0.88073 0.0
C147 C 0.19528 0.62798 0.94792 0.0
C148 C 0.19261 0.69046 0.94369 0.0
C149 C 0.18519 0.71017 0.90814 0.0
C150 C 0.17553 0.66608 0.87705 0.0
N151 N 0.1831 0.77361 0.90407 0.0
C152 C 0.20221 0.79786 0.87197 0.0
H153 H 0.19169 0.65686 0.36784 0.0
H154 H 1.11161 0.47135 0.3724 0.0
H155 H 0.20247 0.57262 0.47069 0.0
C156 C 0.18137 0.61783 0.38361 0.0
C157 C 0.20069 0.62163 0.4215 0.0
C158 C 0.1495 0.56377 0.3657 0.0
C159 C 0.13603 0.51318 0.38616 0.0
C160 C 0.15458 0.51697 0.42433 0.0
C161 C 0.18718 0.57079 0.44153 0.0
N162 N 0.14277 0.46744 0.44637 0.0
C163 C 1.09904 0.4181 0.43733 0.0
H164 H 0.65628 0.17407 0.72787 0.0
H165 H 0.66272 0.9898 0.75753 0.0
H166 H 0.635 0.13432 0.84107 0.0
C167 C 0.6544 0.14148 0.74871 0.0
C168 C 0.64477 0.16191 0.78557 0.0
C169 C 0.6616 0.0798 0.73832 0.0
C170 C 0.65744 0.03739 0.76535 0.0
C171 C 0.64788 0.05683 0.80258 0.0
C172 C 0.64244 0.1193 0.81248 0.0
N173 N 0.64357 0.01531 0.83078 0.0
C174 C 0.64416 0.9517 0.82534 0.0
H175 H 0.73671 0.54355 0.03735 0.0
H176 H 0.55024 0.53652 0.05766 0.0
H177 H 0.68132 0.52965 0.14872 0.0
C178 C 0.7019 0.5414 0.05676 0.0
C179 C 0.71784 0.53756 0.09478 0.0
C180 C 0.64197 0.54052 0.04299 0.0
C181 C 0.59618 0.53625 0.06799 0.0
C182 C 0.60937 0.53252 0.10626 0.0
C183 C 0.67056 0.53241 0.11932 0.0
N184 N 0.56293 0.52925 0.13223 0.0
C185 C 0.50037 0.53018 0.1255 0.0
C186 C 0.33582 0.47873 0.1391 0.0
C187 C 0.30745 0.53171 0.13385 0.0
H188 H 0.41769 0.43653 0.14032 0.0
C189 C 0.34416 0.5837 0.12442 0.0
H190 H 0.31002 0.43752 0.14625 0.0
C191 C 0.40632 0.58288 0.12082 0.0
C192 C 0.43437 0.52999 0.12627 0.0
H193 H 0.32491 0.62556 0.11997 0.0
H194 H 0.43263 0.62414 0.11415 0.0
C195 C 0.39794 0.47797 0.13546 0.0
C196 C 1.03044 0.25673 0.43926 0.0
C197 C 0.96962 0.26432 0.44124 0.0
H198 H 0.11942 0.30051 0.43609 0.0
C199 C 0.95171 0.32298 0.43815 0.0
H200 H 1.04599 0.21252 0.44209 0.0
C201 C 0.99403 0.37327 0.43486 0.0
C202 C 1.05464 0.36551 0.43439 0.0
H203 H 0.90519 0.33025 0.43909 0.0
H204 H 0.97964 0.41847 0.434 0.0
C205 C 1.07257 0.30699 0.43591 0.0
C206 C 0.59265 0.7824 0.80703 0.0
C207 C 0.63796 0.75635 0.82654 0.0
H208 H 0.55947 0.86492 0.79117 0.0
C209 C 0.68592 0.79605 0.84499 0.0
H210 H 0.55501 0.7535 0.79245 0.0
C211 C 0.68841 0.8599 0.84398 0.0
C212 C 0.64316 0.88542 0.82446 0.0
H213 H 0.72169 0.77785 0.86016 0.0
H214 H 0.72557 0.88937 0.8587 0.0
C215 C 0.59522 0.84622 0.80607 0.0
C216 C 0.88841 0.58419 0.10135 0.0
C217 C 0.91201 0.53998 0.12213 0.0
H218 H 0.81111 0.61858 0.07719 0.0
C219 C 0.87007 0.49655 0.13612 0.0
H220 H 0.91816 0.61874 0.09001 0.0
C221 C 0.80738 0.49702 0.12903 0.0
C222 C 0.7842 0.54035 0.10721 0.0
H223 H 0.88565 0.4617 0.15236 0.0
H224 H 0.77712 0.46204 0.13959 0.0
C225 C 0.82631 0.58414 0.09392 0.0
C226 C 0.3182 0.75936 0.43954 0.0
C227 C 0.30647 0.78361 0.47539 0.0
H228 H 0.29438 0.68914 0.39465 0.0
C229 C 0.25914 0.75443 0.49327 0.0
H230 H 0.35509 0.77989 0.42527 0.0
C231 C 0.2245 0.70209 0.47572 0.0
C232 C 0.23639 0.67796 0.4399 0.0
H233 H 0.24852 0.77234 0.5207 0.0
H234 H 0.18805 0.68078 0.49005 0.0
C235 C 0.28348 0.70727 0.42197 0.0
C236 C 0.66832 0.32753 0.82998 0.0
C237 C 0.62906 0.35605 0.8072 0.0
H238 H 0.70336 0.24365 0.84151 0.0
C239 C 0.59258 0.31921 0.779 0.0
H240 H 0.69699 0.35437 0.85202 0.0
C241 C 0.59669 0.25618 0.77285 0.0
C242 C 0.63677 0.22785 0.79501 0.0
H243 H 0.56179 0.33928 0.7609 0.0
H244 H 0.56887 0.22956 0.75032 0.0
C245 C 0.67177 0.26404 0.82414 0.0
C246 C 0.69981 0.79555 0.49818 0.0
C247 C 0.65141 0.82399 0.51161 0.0
H248 H 0.73757 0.71109 0.48652 0.0
C249 C 0.60365 0.78688 0.52468 0.0
H250 H 0.73742 0.82243 0.48796 0.0
C251 C 0.60406 0.7231 0.52393 0.0
C252 C 0.65219 0.69519 0.51019 0.0
H253 H 0.56565 0.80696 0.53528 0.0
H254 H 0.56644 0.69556 0.53371 0.0
C255 C 0.70011 0.73182 0.49745 0.0
C256 C 1.05818 0.48023 0.84306 0.0
C257 C 1.03721 0.50931 0.81269 0.0
H258 H 0.12065 0.48655 0.88918 0.0
C259 C 1.07846 0.54874 0.79573 0.0
H260 H 1.02898 0.44728 0.85605 0.0
C261 C 0.13309 0.57165 0.81494 0.0
C262 C 0.14567 0.55611 0.85143 0.0
H263 H 1.06492 0.56914 0.77082 0.0
H264 H 0.16077 0.60778 0.80355 0.0
C265 C 1.11195 0.50376 0.86255 0.0
C266 C 0.39336 0.84678 0.21661 0.0
C267 C 0.36525 0.86735 0.18502 0.0
H268 H 0.46868 0.85924 0.25644 0.0
C269 C 0.39342 0.91816 0.1693 0.0
H270 H 0.37366 0.80691 0.22893 0.0
C271 C 0.44829 0.94785 0.18496 0.0
C272 C 0.47594 0.92747 0.21673 0.0
H273 H 0.3727 0.93553 0.1452 0.0
H274 H 0.46865 0.98735 0.17257 0.0
C275 C 0.44793 0.8766 0.23234 0.0
C276 C 0.60088 0.2485 0.54847 0.0
C277 C 0.64153 0.22143 0.52608 0.0
H278 H 0.57059 0.33153 0.57145 0.0
C279 C 0.68138 0.25985 0.50736 0.0
H280 H 0.56917 0.22058 0.56306 0.0
C281 C 0.68176 0.32393 0.512 0.0
C282 C 0.64265 0.35076 0.53566 0.0
H283 H 0.71307 0.24056 0.4897 0.0
H284 H 0.71424 0.35253 0.49835 0.0
C285 C 0.60154 0.3122 0.55323 0.0
C286 C 0.25619 0.73853 0.78565 0.0
C287 C 0.31755 0.75624 0.79458 0.0
H288 H 0.16793 0.74398 0.80295 0.0
C289 C 0.33466 0.80818 0.82023 0.0
H290 H 0.24063 0.69985 0.76553 0.0
C291 C 0.29282 0.83124 0.84295 0.0
C292 C 0.23348 0.80446 0.83878 0.0
H293 H 0.38129 0.82552 0.8263 0.0
H294 H 0.30841 0.86376 0.86677 0.0
C295 C 0.21419 0.76368 0.80733 0.0
C296 C 0.82583 0.21299 0.21494 0.0
C297 C 0.88069 0.1939 0.20504 0.0
H298 H 0.73452 0.18533 0.22531 0.0
C299 C 0.88617 0.13066 0.20094 0.0
H300 H 0.82031 0.2613 0.21878 0.0
C301 C 0.83739 0.0876 0.20514 0.0
C302 C 0.78244 0.10695 0.2136 0.0
H303 H 0.92738 0.11423 0.19281 0.0
H304 H 0.84198 0.03915 0.20026 0.0
C305 C 0.77699 0.16974 0.21909 0.0
C306 C 1.11323 0.58735 0.03133 0.0
C307 C 0.14074 0.53692 0.04186 0.0
H308 H 1.11039 0.65694 -0.00599 0.0
C309 C 0.19138 0.52119 0.02424 0.0
H310 H 1.07438 0.60074 0.04474 0.0
C311 C 0.21271 0.5541 -0.00458 0.0
C312 C 0.18368 0.60319 0.9839 0.0
H313 H 0.214 0.4831 0.03237 0.0
H314 H 0.25046 0.5398 0.9812 0.0
C315 C 0.13461 0.62032 0.00277 0.0
C316 C 0.5635 0.0518 0.38717 0.0
C317 C 0.60416 0.0229 0.40844 0.0
H318 H 0.53016 0.06794 0.33259 0.0
C319 C 0.64691 0.99178 0.39026 0.0
H320 H 0.53035 0.07656 0.40039 0.0
C321 C 0.64731 0.98773 0.35125 0.0
C322 C 0.60457 1.01416 0.33005 0.0
H323 H 0.67888 0.9693 0.40605 0.0
H324 H 0.67909 0.96161 0.33759 0.0
C325 C 0.56347 0.04714 0.3484 0.0
C326 C 0.70629 0.51236 0.6973 0.0
C327 C 0.66923 0.5533 0.71265 0.0
H328 H 0.73279 0.46566 0.64762 0.0
C329 C 0.63103 0.5812 0.68917 0.0
H330 H 0.7363 0.49082 0.71516 0.0
C331 C 0.62885 0.56693 0.65048 0.0
C332 C 0.66468 0.52433 0.63501 0.0
H333 H 0.60228 0.61312 0.70079 0.0
H334 H 0.5978 0.5875 0.63283 0.0
C335 C 0.70413 0.49804 0.6588 0.0
C336 C 0.71939 0.08427 0.64185 0.0
C337 C 0.68679 0.03219 0.62243 0.0
H338 H 0.73811 0.13927 0.69398 0.0
C339 C 0.64861 0.99326 0.64154 0.0
H340 H 0.74885 0.11497 0.62743 0.0
C341 C 0.64195 1.00724 0.67964 0.0
C342 C 0.67306 0.06069 0.699 0.0
H343 H 0.62263 0.95314 0.62678 0.0
H344 H 0.61067 0.97765 0.69353 0.0
C345 C 0.71281 0.09828 0.67979 0.0
C346 C 0.56799 0.50572 0.94431 0.0
C347 C 0.60391 0.54515 0.92397 0.0
H348 H 0.55163 0.47329 -0.00247 0.0
C349 C 0.65144 0.58418 0.94317 0.0
H350 H 0.53107 0.47499 0.93034 0.0
C351 C 0.66324 0.58326 0.98171 0.0
C352 C 0.62767 0.54342 0.00213 0.0
H353 H 0.67992 0.61514 0.92833 0.0
H354 H 0.70024 0.614 -0.00442 0.0
C355 C 0.57956 0.50502 0.9829 0.0
C356 C 1.09022 0.60915 0.27346 0.0
C357 C 1.11342 0.56761 0.24796 0.0
H358 H 1.08353 0.64018 0.33086 0.0
C359 C 0.14392 0.52099 0.2615 0.0
H360 H 1.0663 0.64541 0.26387 0.0
C361 C 0.15282 0.51741 0.29998 0.0
C362 C 0.13214 0.56097 0.32536 0.0
H363 H 0.16232 0.48843 0.24245 0.0
H364 H 0.17826 0.48249 0.3099 0.0
C365 C 1.09993 0.60617 0.31177 0.0
loop_
_geom_bond_atom_site_label_1
_geom_bond_atom_site_label_2
_geom_bond_distance
_geom_bond_site_symmetry_2
_ccdc_geom_bond_type
Nd0 C2 2.836 . S
Nd0 O20 2.500 . S
Nd0 O21 2.492 . S
Nd0 O22 2.487 . S
Nd0 O23 2.682 . S
Nd0 O24 2.410 . S
Nd0 O29 2.414 . S
Nd0 O31 2.424 1_455 S
Nd1 C11 2.836 . S
Nd1 O23 2.414 1_655 S
Nd1 O25 2.424 1_655 S
Nd1 O26 2.500 . S
Nd1 O27 2.492 . S
Nd1 O28 2.487 . S
Nd1 O29 2.682 1_655 S
Nd1 O30 2.410 . S
C2 Nd0 2.836 . S
C2 C3 1.498 . S
C2 O20 1.258 . S
C2 O21 1.239 . S
C3 C2 1.498 . S
C3 C4 1.366 . S
C3 C8 1.407 . S
C4 C3 1.366 . S
C4 C5 1.392 . S
C4 H32 0.930 . S
C5 C4 1.392 . S
C5 C6 1.398 . S
C5 H33 0.929 . S
C6 C5 1.398 . S
C6 C7 1.352 . S
C7 C6 1.352 . S
C7 C8 1.384 . S
C7 H34 0.930 . S
C8 C3 1.407 . S
C8 C7 1.384 . S
C8 H35 0.929 . S
C9 O22 1.241 . S
C9 O23 1.273 . S
C10 O24 1.251 . S
C10 O25 1.268 . S
C11 Nd1 2.836 . S
C11 C12 1.498 . S
C11 O26 1.258 . S
C11 O27 1.239 . S
C12 C11 1.498 . S
C12 C13 1.366 . S
C12 C17 1.407 . S
C13 C12 1.366 . S
C13 C14 1.392 . S
C13 H36 0.930 . S
C14 C13 1.392 . S
C14 C15 1.398 . S
C14 H37 0.929 . S
C15 C14 1.398 . S
C15 C16 1.352 . S
C16 C15 1.352 . S
C16 C17 1.384 . S
C16 H38 0.930 . S
C17 C12 1.407 . S
C17 C16 1.384 . S
C17 H39 0.929 . S
C18 O28 1.241 1_455 S
C18 O29 1.273 . S
C19 O30 1.251 . S
C19 O31 1.268 . S
O20 Nd0 2.500 . S
O20 C2 1.258 . S
O21 Nd0 2.492 . S
O21 C2 1.239 . S
O22 Nd0 2.487 . S
O22 C9 1.241 . S
O23 Nd0 2.682 . S
O23 Nd1 2.414 1_455 S
O23 C9 1.273 . S
O24 Nd0 2.410 . S
O24 C10 1.251 . S
O25 Nd1 2.424 1_455 S
O25 C10 1.268 . S
O26 Nd1 2.500 . S
O26 C11 1.258 . S
O27 Nd1 2.492 . S
O27 C11 1.239 . S
O28 Nd1 2.487 . S
O28 C18 1.241 1_655 S
O29 Nd0 2.414 . S
O29 Nd1 2.682 1_455 S
O29 C18 1.273 . S
O30 Nd1 2.410 . S
O30 C19 1.251 . S
O31 Nd0 2.424 1_655 S
O31 C19 1.268 . S
H32 C4 0.930 . S
H33 C5 0.929 . S
H34 C7 0.930 . S
H35 C8 0.929 . S
H36 C13 0.930 . S
H37 C14 0.929 . S
H38 C16 0.930 . S
H39 C17 0.929 . S
Nd40 C42 2.836 1_545 S
Nd40 O60 2.500 1_545 S
Nd40 O61 2.492 1_545 S
Nd40 O62 2.487 . S
Nd40 O63 2.682 . S
Nd40 O64 2.410 1_545 S
Nd40 O69 2.414 . S
Nd40 O71 2.424 . S
Nd41 C51 2.836 . S
Nd41 O63 2.414 . S
Nd41 O65 2.424 1_545 S
Nd41 O66 2.500 . S
Nd41 O67 2.492 . S
Nd41 O68 2.487 . S
Nd41 O69 2.682 . S
Nd41 O70 2.410 . S
C42 Nd40 2.836 1_565 S
C42 C43 1.498 . S
C42 O60 1.258 . S
C42 O61 1.239 . S
C43 C42 1.498 . S
C43 C44 1.366 . S
C43 C48 1.407 . S
C44 C43 1.366 . S
C44 C45 1.392 . S
C44 H72 0.930 . S
C45 C44 1.392 . S
C45 C46 1.398 . S
C45 H73 0.929 . S
C46 C45 1.398 . S
C46 C47 1.352 . S
C47 C46 1.352 . S
C47 C48 1.384 . S
C47 H74 0.930 . S
C48 C43 1.407 . S
C48 C47 1.384 . S
C48 H75 0.929 . S
C49 O62 1.241 . S
C49 O63 1.273 . S
C50 O64 1.251 . S
C50 O65 1.268 . S
C51 Nd41 2.836 . S
C51 C52 1.498 . S
C51 O66 1.258 . S
C51 O67 1.239 . S
C52 C51 1.498 . S
C52 C53 1.366 . S
C52 C57 1.407 . S
C53 C52 1.366 . S
C53 C54 1.392 . S
C53 H76 0.930 . S
C54 C53 1.392 . S
C54 C55 1.398 . S
C54 H77 0.929 . S
C55 C54 1.398 . S
C55 C56 1.352 . S
C56 C55 1.352 . S
C56 C57 1.384 . S
C56 H78 0.930 . S
C57 C52 1.407 . S
C57 C56 1.384 . S
C57 H79 0.929 . S
C58 O68 1.241 . S
C58 O69 1.273 . S
C59 O70 1.251 . S
C59 O71 1.268 . S
O60 Nd40 2.500 1_565 S
O60 C42 1.258 . S
O61 Nd40 2.492 1_565 S
O61 C42 1.239 . S
O62 Nd40 2.487 . S
O62 C49 1.241 . S
O63 Nd40 2.682 . S
O63 Nd41 2.414 . S
O63 C49 1.273 . S
O64 Nd40 2.410 1_565 S
O64 C50 1.251 . S
O65 Nd41 2.424 1_565 S
O65 C50 1.268 . S
O66 Nd41 2.500 . S
O66 C51 1.258 . S
O67 Nd41 2.492 . S
O67 C51 1.239 . S
O68 Nd41 2.487 . S
O68 C58 1.241 . S
O69 Nd40 2.414 . S
O69 Nd41 2.682 . S
O69 C58 1.273 . S
O70 Nd41 2.410 . S
O70 C59 1.251 . S
O71 Nd40 2.424 . S
O71 C59 1.268 . S
H72 C44 0.930 . S
H73 C45 0.929 . S
H74 C47 0.930 . S
H75 C48 0.929 . S
H76 C53 0.930 . S
H77 C54 0.929 . S
H78 C56 0.930 . S
H79 C57 0.929 . S
Nd80 C82 2.836 . S
Nd80 O100 2.500 . S
Nd80 O101 2.492 . S
Nd80 O102 2.487 . S
Nd80 O103 2.682 . S
Nd80 O104 2.410 . S
Nd80 O109 2.414 . S
Nd80 O111 2.424 . S
Nd81 C91 2.836 . S
Nd81 O103 2.414 . S
Nd81 O105 2.424 . S
Nd81 O106 2.500 . S
Nd81 O107 2.492 . S
Nd81 O108 2.487 . S
Nd81 O109 2.682 . S
Nd81 O110 2.410 . S
C82 Nd80 2.836 . S
C82 C83 1.498 . S
C82 O100 1.258 . S
C82 O101 1.239 . S
C83 C82 1.498 . S
C83 C84 1.366 . S
C83 C88 1.407 . S
C84 C83 1.366 . S
C84 C85 1.392 . S
C84 H112 0.930 . S
C85 C84 1.392 . S
C85 C86 1.398 . S
C85 H113 0.929 . S
C86 C85 1.398 . S
C86 C87 1.352 . S
C87 C86 1.352 . S
C87 C88 1.384 . S
C87 H114 0.930 . S
C88 C83 1.407 . S
C88 C87 1.384 . S
C88 H115 0.929 . S
C89 O102 1.241 . S
C89 O103 1.273 . S
C90 O104 1.251 . S
C90 O105 1.268 . S
C91 Nd81 2.836 . S
C91 C92 1.498 . S
C91 O106 1.258 . S
C91 O107 1.239 . S
C92 C91 1.498 . S
C92 C93 1.366 . S
C92 C97 1.407 . S
C93 C92 1.366 . S
C93 C94 1.392 . S
C93 H116 0.930 . S
C94 C93 1.392 . S
C94 C95 1.398 . S
C94 H117 0.929 . S
C95 C94 1.398 . S
C95 C96 1.352 . S
C96 C95 1.352 . S
C96 C97 1.384 . S
C96 H118 0.930 . S
C97 C92 1.407 . S
C97 C96 1.384 . S
C97 H119 0.929 . S
C98 O108 1.241 . S
C98 O109 1.273 . S
C99 O110 1.251 . S
C99 O111 1.268 . S
O100 Nd80 2.500 . S
O100 C82 1.258 . S
O101 Nd80 2.492 . S
O101 C82 1.239 . S
O102 Nd80 2.487 . S
O102 C89 1.241 . S
O103 Nd80 2.682 . S
O103 Nd81 2.414 . S
O103 C89 1.273 . S
O104 Nd80 2.410 . S
O104 C90 1.251 . S
O105 Nd81 2.424 . S
O105 C90 1.268 . S
O106 Nd81 2.500 . S
O106 C91 1.258 . S
O107 Nd81 2.492 . S
O107 C91 1.239 . S
O108 Nd81 2.487 . S
O108 C98 1.241 . S
O109 Nd80 2.414 . S
O109 Nd81 2.682 . S
O109 C98 1.273 . S
O110 Nd81 2.410 . S
O110 C99 1.251 . S
O111 Nd80 2.424 . S
O111 C99 1.268 . S
H112 C84 0.930 . S
H113 C85 0.929 . S
H114 C87 0.930 . S
H115 C88 0.929 . S
H116 C93 0.930 . S
H117 C94 0.929 . S
H118 C96 0.930 . S
H119 C97 0.929 . S
H120 C123 0.929 1_565 S
H121 C126 0.929 . S
H122 C128 0.930 . S
C123 H120 0.929 1_545 S
C123 C124 1.398 1_545 S
C123 C125 1.396 . S
C124 C123 1.398 1_565 S
C124 C128 1.407 1_565 S
C125 C123 1.396 . S
C125 C126 1.394 . S
C126 H121 0.929 . S
C126 C125 1.394 . S
C126 C127 1.382 . S
C127 C126 1.382 . S
C127 C128 1.392 . S
C127 N129 1.420 . S
C128 H122 0.930 . S
C128 C124 1.407 1_545 S
C128 C127 1.392 . S
N129 C127 1.420 . S
N129 C130 1.244 . S
C130 N129 1.244 . S
H131 C134 0.929 . S
H132 C137 0.929 . S
H133 C139 0.930 . S
C134 H131 0.929 . S
C134 C135 1.398 . S
C134 C136 1.396 . S
C135 C134 1.398 . S
C135 C139 1.407 . S
C136 C134 1.396 . S
C136 C137 1.394 . S
C137 H132 0.929 . S
C137 C136 1.394 . S
C137 C138 1.382 . S
C138 C137 1.382 . S
C138 C139 1.392 . S
C138 N140 1.420 . S
C139 H133 0.930 . S
C139 C135 1.407 . S
C139 C138 1.392 . S
N140 C138 1.420 . S
N140 C141 1.244 . S
C141 N140 1.244 . S
H142 C145 0.929 . S
H143 C148 0.929 . S
H144 C150 0.930 . S
C145 H142 0.929 . S
C145 C146 1.398 . S
C145 C147 1.396 1_655 S
C146 C145 1.398 . S
C146 C150 1.407 1_655 S
C147 C145 1.396 1_455 S
C147 C148 1.394 . S
C148 H143 0.929 . S
C148 C147 1.394 . S
C148 C149 1.382 . S
C149 C148 1.382 . S
C149 C150 1.392 . S
C149 N151 1.420 . S
C150 H144 0.930 . S
C150 C146 1.407 1_455 S
C150 C149 1.392 . S
N151 C149 1.420 . S
N151 C152 1.244 . S
C152 N151 1.244 . S
H153 C156 0.929 . S
H154 C159 0.929 . S
H155 C161 0.930 . S
C156 H153 0.929 . S
C156 C157 1.398 . S
C156 C158 1.396 . S
C157 C156 1.398 . S
C157 C161 1.407 . S
C158 C156 1.396 . S
C158 C159 1.394 1_455 S
C159 H154 0.929 . S
C159 C158 1.394 1_655 S
C159 C160 1.382 . S
C160 C159 1.382 . S
C160 C161 1.392 1_655 S
C160 N162 1.420 . S
C161 H155 0.930 . S
C161 C157 1.407 . S
C161 C160 1.392 1_455 S
N162 C160 1.420 . S
N162 C163 1.244 . S
C163 N162 1.244 . S
H164 C167 0.929 . S
H165 C170 0.929 . S
H166 C172 0.930 . S
C167 H164 0.929 . S
C167 C168 1.398 . S
C167 C169 1.396 . S
C168 C167 1.398 . S
C168 C172 1.407 . S
C169 C167 1.396 . S
C169 C170 1.394 1_545 S
C170 H165 0.929 . S
C170 C169 1.394 1_565 S
C170 C171 1.382 1_565 S
C171 C170 1.382 1_545 S
C171 C172 1.392 . S
C171 N173 1.420 1_545 S
C172 H166 0.930 . S
C172 C168 1.407 . S
C172 C171 1.392 . S
N173 C171 1.420 1_565 S
N173 C174 1.244 . S
C174 N173 1.244 . S
H175 C178 0.929 . S
H176 C181 0.929 . S
H177 C183 0.930 . S
C178 H175 0.929 . S
C178 C179 1.398 . S
C178 C180 1.396 . S
C179 C178 1.398 . S
C179 C183 1.407 . S
C180 C178 1.396 . S
C180 C181 1.394 . S
C181 H176 0.929 . S
C181 C180 1.394 . S
C181 C182 1.382 . S
C182 C181 1.382 . S
C182 C183 1.392 . S
C182 N184 1.420 . S
C183 H177 0.930 . S
C183 C179 1.407 . S
C183 C182 1.392 . S
N184 C182 1.420 . S
N184 C185 1.244 . S
C185 N184 1.244 . S
C186 C187 1.387 . S
C186 H190 0.950 . S
C186 C195 1.390 . S
C187 C186 1.387 . S
C187 C189 1.387 . S
H188 C195 0.950 . S
C189 C187 1.387 . S
C189 C191 1.390 . S
C189 H193 0.950 . S
H190 C186 0.950 . S
C191 C189 1.390 . S
C191 C192 1.387 . S
C191 H194 0.950 . S
C192 C191 1.387 . S
C192 C195 1.387 . S
H193 C189 0.950 . S
H194 C191 0.950 . S
C195 C186 1.390 . S
C195 H188 0.950 . S
C195 C192 1.387 . S
C196 C197 1.387 . S
C196 H200 0.950 . S
C196 C205 1.390 . S
C197 C196 1.387 . S
C197 C199 1.387 . S
H198 C205 0.950 . S
C199 C197 1.387 . S
C199 C201 1.390 . S
C199 H203 0.950 . S
H200 C196 0.950 . S
C201 C199 1.390 . S
C201 C202 1.387 . S
C201 H204 0.950 . S
C202 C201 1.387 . S
C202 C205 1.387 . S
H203 C199 0.950 . S
H204 C201 0.950 . S
C205 C196 1.390 . S
C205 H198 0.950 . S
C205 C202 1.387 . S
C206 C207 1.387 . S
C206 H210 0.950 . S
C206 C215 1.390 . S
C207 C206 1.387 . S
C207 C209 1.387 . S
H208 C215 0.950 . S
C209 C207 1.387 . S
C209 C211 1.390 . S
C209 H213 0.950 . S
H210 C206 0.950 . S
C211 C209 1.390 . S
C211 C212 1.387 . S
C211 H214 0.950 . S
C212 C211 1.387 . S
C212 C215 1.387 . S
H213 C209 0.950 . S
H214 C211 0.950 . S
C215 C206 1.390 . S
C215 H208 0.950 . S
C215 C212 1.387 . S
C216 C217 1.387 . S
C216 H220 0.950 . S
C216 C225 1.390 . S
C217 C216 1.387 . S
C217 C219 1.387 . S
H218 C225 0.950 . S
C219 C217 1.387 . S
C219 C221 1.390 . S
C219 H223 0.950 . S
H220 C216 0.950 . S
C221 C219 1.390 . S
C221 C222 1.387 . S
C221 H224 0.950 . S
C222 C221 1.387 . S
C222 C225 1.387 . S
H223 C219 0.950 . S
H224 C221 0.950 . S
C225 C216 1.390 . S
C225 H218 0.950 . S
C225 C222 1.387 . S
C226 C227 1.387 . S
C226 H230 0.950 . S
C226 C235 1.390 . S
C227 C226 1.387 . S
C227 C229 1.387 . S
H228 C235 0.950 . S
C229 C227 1.387 . S
C229 C231 1.390 . S
C229 H233 0.950 . S
H230 C226 0.950 . S
C231 C229 1.390 . S
C231 C232 1.387 . S
C231 H234 0.950 . S
C232 C231 1.387 . S
C232 C235 1.387 . S
H233 C229 0.950 . S
H234 C231 0.950 . S
C235 C226 1.390 . S
C235 H228 0.950 . S
C235 C232 1.387 . S
C236 C237 1.387 . S
C236 H240 0.950 . S
C236 C245 1.390 . S
C237 C236 1.387 . S
C237 C239 1.387 . S
H238 C245 0.950 . S
C239 C237 1.387 . S
C239 C241 1.390 . S
C239 H243 0.950 . S
H240 C236 0.950 . S
C241 C239 1.390 . S
C241 C242 1.387 . S
C241 H244 0.950 . S
C242 C241 1.387 . S
C242 C245 1.387 . S
H243 C239 0.950 . S
H244 C241 0.950 . S
C245 C236 1.390 . S
C245 H238 0.950 . S
C245 C242 1.387 . S
C246 C247 1.387 . S
C246 H250 0.950 . S
C246 C255 1.390 . S
C247 C246 1.387 . S
C247 C249 1.387 . S
H248 C255 0.950 . S
C249 C247 1.387 . S
C249 C251 1.390 . S
C249 H253 0.950 . S
H250 C246 0.950 . S
C251 C249 1.390 . S
C251 C252 1.387 . S
C251 H254 0.950 . S
C252 C251 1.387 . S
C252 C255 1.387 . S
H253 C249 0.950 . S
H254 C251 0.950 . S
C255 C246 1.390 . S
C255 H248 0.950 . S
C255 C252 1.387 . S
C256 C257 1.387 . S
C256 H260 0.950 . S
C256 C265 1.390 . S
C257 C256 1.387 . S
C257 C259 1.387 . S
H258 C265 0.950 . S
C259 C257 1.387 . S
C259 C261 1.390 . S
C259 H263 0.950 . S
H260 C256 0.950 . S
C261 C259 1.390 . S
C261 C262 1.387 . S
C261 H264 0.950 . S
C262 C261 1.387 . S
C262 C265 1.387 . S
H263 C259 0.950 . S
H264 C261 0.950 . S
C265 C256 1.390 . S
C265 H258 0.950 . S
C265 C262 1.387 . S
C266 C267 1.387 . S
C266 H270 0.950 . S
C266 C275 1.390 . S
C267 C266 1.387 . S
C267 C269 1.387 . S
H268 C275 0.950 . S
C269 C267 1.387 . S
C269 C271 1.390 . S
C269 H273 0.950 . S
H270 C266 0.950 . S
C271 C269 1.390 . S
C271 C272 1.387 . S
C271 H274 0.950 . S
C272 C271 1.387 . S
C272 C275 1.387 . S
H273 C269 0.950 . S
H274 C271 0.950 . S
C275 C266 1.390 . S
C275 H268 0.950 . S
C275 C272 1.387 . S
C276 C277 1.387 . S
C276 H280 0.950 . S
C276 C285 1.390 . S
C277 C276 1.387 . S
C277 C279 1.387 . S
H278 C285 0.950 . S
C279 C277 1.387 . S
C279 C281 1.390 . S
C279 H283 0.950 . S
H280 C276 0.950 . S
C281 C279 1.390 . S
C281 C282 1.387 . S
C281 H284 0.950 . S
C282 C281 1.387 . S
C282 C285 1.387 . S
H283 C279 0.950 . S
H284 C281 0.950 . S
C285 C276 1.390 . S
C285 H278 0.950 . S
C285 C282 1.387 . S
C286 C287 1.387 . S
C286 H290 0.950 . S
C286 C295 1.390 . S
C287 C286 1.387 . S
C287 C289 1.387 . S
H288 C295 0.950 . S
C289 C287 1.387 . S
C289 C291 1.390 . S
C289 H293 0.950 . S
H290 C286 0.950 . S
C291 C289 1.390 . S
C291 C292 1.387 . S
C291 H294 0.950 . S
C292 C291 1.387 . S
C292 C295 1.387 . S
H293 C289 0.950 . S
H294 C291 0.950 . S
C295 C286 1.390 . S
C295 H288 0.950 . S
C295 C292 1.387 . S
C296 C297 1.387 . S
C296 H300 0.950 . S
C296 C305 1.390 . S
C297 C296 1.387 . S
C297 C299 1.387 . S
H298 C305 0.950 . S
C299 C297 1.387 . S
C299 C301 1.390 . S
C299 H303 0.950 . S
H300 C296 0.950 . S
C301 C299 1.390 . S
C301 C302 1.387 . S
C301 H304 0.950 . S
C302 C301 1.387 . S
C302 C305 1.387 . S
H303 C299 0.950 . S
H304 C301 0.950 . S
C305 C296 1.390 . S
C305 H298 0.950 . S
C305 C302 1.387 . S
C306 C307 1.387 . S
C306 H310 0.950 . S
C306 C315 1.388 . S
C307 C306 1.387 . S
C307 C309 1.387 . S
H308 C315 0.951 1_556 S
C309 C307 1.387 . S
C309 C311 1.390 1_554 S
C309 H313 0.950 . S
H310 C306 0.950 . S
C311 C309 1.390 1_556 S
C311 C312 1.387 . S
C311 H314 0.950 . S
C312 C311 1.387 . S
C312 C315 1.389 1_556 S
H313 C309 0.950 . S
H314 C311 0.950 . S
C315 C306 1.388 . S
C315 H308 0.951 1_554 S
C315 C312 1.389 1_554 S
C316 C317 1.387 . S
C316 H320 0.950 . S
C316 C325 1.390 . S
C317 C316 1.387 . S
C317 C319 1.387 1_545 S
H318 C325 0.950 . S
C319 C317 1.387 1_565 S
C319 C321 1.390 . S
C319 H323 0.950 . S
H320 C316 0.950 . S
C321 C319 1.390 . S
C321 C322 1.387 1_565 S
C321 H324 0.950 . S
C322 C321 1.387 1_545 S
C322 C325 1.387 . S
H323 C319 0.950 . S
H324 C321 0.950 . S
C325 C316 1.390 . S
C325 H318 0.950 . S
C325 C322 1.387 . S
C326 C327 1.387 . S
C326 H330 0.950 . S
C326 C335 1.390 . S
C327 C326 1.387 . S
C327 C329 1.387 . S
H328 C335 0.950 . S
C329 C327 1.387 . S
C329 C331 1.390 . S
C329 H333 0.950 . S
H330 C326 0.950 . S
C331 C329 1.390 . S
C331 C332 1.387 . S
C331 H334 0.950 . S
C332 C331 1.387 . S
C332 C335 1.387 . S
H333 C329 0.950 . S
H334 C331 0.950 . S
C335 C326 1.390 . S
C335 H328 0.950 . S
C335 C332 1.387 . S
C336 C337 1.387 . S
C336 H340 0.950 . S
C336 C345 1.390 . S
C337 C336 1.387 . S
C337 C339 1.387 1_545 S
H338 C345 0.950 . S
C339 C337 1.387 1_565 S
C339 C341 1.390 . S
C339 H343 0.950 . S
H340 C336 0.950 . S
C341 C339 1.390 . S
C341 C342 1.387 1_565 S
C341 H344 0.950 . S
C342 C341 1.387 1_545 S
C342 C345 1.387 . S
H343 C339 0.950 . S
H344 C341 0.950 . S
C345 C336 1.390 . S
C345 H338 0.950 . S
C345 C342 1.387 . S
C346 C347 1.387 . S
C346 H350 0.950 . S
C346 C355 1.390 . S
C347 C346 1.387 . S
C347 C349 1.387 . S
H348 C355 0.950 1_554 S
C349 C347 1.387 . S
C349 C351 1.390 1_556 S
C349 H353 0.950 . S
H350 C346 0.950 . S
C351 C349 1.390 1_554 S
C351 C352 1.387 . S
C351 H354 0.950 . S
C352 C351 1.387 . S
C352 C355 1.387 1_554 S
H353 C349 0.950 . S
H354 C351 0.950 . S
C355 C346 1.390 . S
C355 H348 0.950 1_556 S
C355 C352 1.387 1_556 S
C356 C357 1.387 1_655 S
C356 H360 0.950 . S
C356 C365 1.390 . S
C357 C356 1.387 1_455 S
C357 C359 1.387 . S
H358 C365 0.950 . S
C359 C357 1.387 . S
C359 C361 1.390 . S
C359 H363 0.950 . S
H360 C356 0.950 . S
C361 C359 1.390 . S
C361 C362 1.387 . S
C361 H364 0.950 . S
C362 C361 1.387 . S
C362 C365 1.387 1_455 S
H363 C359 0.950 . S
H364 C361 0.950 . S
C365 C356 1.390 . S
C365 H358 0.950 . S
C365 C362 1.387 1_655 S
C187 C10 3.177 . S
C192 C185 3.096 . S
C197 C55 1.355 . S
C202 C163 1.392 . S
C207 C90 1.974 . S
C212 C174 1.936 . S
C217 C19 3.016 . S
C222 C179 2.996 . S
C232 C157 1.269 . S
C227 C46 1.233 . S
C242 C168 1.947 . S
C237 C99 1.954 . S
C247 C50 1.969 . S
C252 C141 1.910 . S
C257 C95 0.860 . S
C262 C146 0.926 . S
C267 C6 1.256 . S
C272 C124 1.278 . S
C282 C135 1.879 . S
C277 C59 1.924 . S
C292 C152 0.842 . S
C287 C86 0.802 . S
C297 C15 1.402 . S
C302 C130 1.449 . S
C312 C147 1.137 . S
C307 C18 1.106 . S
C317 C49 1.504 . S
C322 C125 1.512 . S
C327 C98 1.410 . S
C332 C136 1.429 . S
C342 C169 1.448 . S
C337 C58 1.382 . S
C352 C180 1.790 . S
C347 C89 1.701 . S
C357 C9 1.511 . S
C362 C158 1.528 . S
