# Generated by pormake.
# Topology anh, (6,3)-cn, num edge types: 1
# Building blocks:
#     Node 0, Type 0, BuildingBlock: PAMTOO_clean_sbu_0, # of connection points: 6
#     Node 1, Type 0, BuildingBlock: PAMTOO_clean_sbu_0, # of connection points: 6
#     Node 2, Type 0, BuildingBlock: PAMTOO_clean_sbu_0, # of connection points: 6
#     Node 3, Type 1, BuildingBlock: CUQRIR_clean_linker_1, # of connection points: 3
#     Node 4, Type 1, BuildingBlock: CUQRIR_clean_linker_1, # of connection points: 3
#     Node 5, Type 1, BuildingBlock: CUQRIR_clean_linker_1, # of connection points: 3
#     Node 6, Type 1, BuildingBlock: CUQRIR_clean_linker_1, # of connection points: 3
#     Node 7, Type 1, BuildingBlock: CUQRIR_clean_linker_1, # of connection points: 3
#     Node 8, Type 1, BuildingBlock: CUQRIR_clean_linker_1, # of connection points: 3
#     Edge 9, Type (0, 1), BuildingBlock: CIFDUS_clean_linker_0, # of connection points: 2
#     Edge 10, Type (0, 1), BuildingBlock: CIFDUS_clean_linker_0, # of connection points: 2
#     Edge 11, Type (0, 1), BuildingBlock: CIFDUS_clean_linker_0, # of connection points: 2
#     Edge 12, Type (0, 1), BuildingBlock: CIFDUS_clean_linker_0, # of connection points: 2
#     Edge 13, Type (0, 1), BuildingBlock: CIFDUS_clean_linker_0, # of connection points: 2
#     Edge 14, Type (0, 1), BuildingBlock: CIFDUS_clean_linker_0, # of connection points: 2
#     Edge 15, Type (0, 1), BuildingBlock: CIFDUS_clean_linker_0, # of connection points: 2
#     Edge 16, Type (0, 1), BuildingBlock: CIFDUS_clean_linker_0, # of connection points: 2
#     Edge 17, Type (0, 1), BuildingBlock: CIFDUS_clean_linker_0, # of connection points: 2
#     Edge 18, Type (0, 1), BuildingBlock: CIFDUS_clean_linker_0, # of connection points: 2
#     Edge 19, Type (0, 1), BuildingBlock: CIFDUS_clean_linker_0, # of connection points: 2
#     Edge 20, Type (0, 1), BuildingBlock: CIFDUS_clean_linker_0, # of connection points: 2
#     Edge 21, Type (0, 1), BuildingBlock: CIFDUS_clean_linker_0, # of connection points: 2
#     Edge 22, Type (0, 1), BuildingBlock: CIFDUS_clean_linker_0, # of connection points: 2
#     Edge 23, Type (0, 1), BuildingBlock: CIFDUS_clean_linker_0, # of connection points: 2
#     Edge 24, Type (0, 1), BuildingBlock: CIFDUS_clean_linker_0, # of connection points: 2
#     Edge 25, Type (0, 1), BuildingBlock: CIFDUS_clean_linker_0, # of connection points: 2
#     Edge 26, Type (0, 1), BuildingBlock: CIFDUS_clean_linker_0, # of connection points: 2
# Relax obj value: 0.237
# Max RMSD: 0.218
# Mean RMSD: 0.168
data_MOF--net-anh--node1-PAMTOO_clean_sbu_0--node2-CUQRIR_clean_linker_1--edge1-CIFDUS_clean_linker_0
_symmetry_space_group_name_H-M    P1
_symmetry_Int_Tables_number       1
_symmetry_cell_setting            triclinic
loop_
_symmetry_equiv_pos_as_xyz
'x, y, z'
_cell_length_a     24.178485
_cell_length_b     23.503794
_cell_length_c     40.761609
_cell_angle_alpha  84.075855
_cell_angle_beta   94.6469
_cell_angle_gamma 97.187399
loop_
_atom_site_label
_atom_site_type_symbol
_atom_site_fract_x
_atom_site_fract_y
_atom_site_fract_z
_atom_type_partial_charge
Dy0 Dy 1.0612 0.60664 0.15598 0.0
Dy1 Dy 1.03687 0.47805 0.13008 0.0
C2 C 1.0711 0.59001 0.07939 0.0
O3 O 0.96761 0.60048 0.13888 0.0
O4 O 0.95307 0.50209 0.14072 0.0
O5 O 1.06207 0.69932 0.15178 0.0
O6 O 1.09574 0.65455 0.19675 0.0
O7 O 1.06281 0.47117 0.1842 0.0
O8 O 1.02135 0.54698 0.19538 0.0
O9 O 0.12917 0.49875 0.12352 0.0
O10 O 0.14782 0.57441 0.15602 0.0
O11 O 1.04606 0.3871 0.13892 0.0
O12 O 0.98751 0.4168 0.10001 0.0
C13 C 0.93295 0.55211 0.13767 0.0
O14 O 1.08352 0.6209 0.10445 0.0
O15 O 1.04703 0.53627 0.0826 0.0
C16 C 0.14253 0.74522 0.17965 0.0
C17 C 0.24412 0.81947 0.18306 0.0
C18 C 0.23852 0.7713 0.16464 0.0
C19 C 0.18822 0.73458 0.16294 0.0
C20 C 0.14749 0.79358 0.19755 0.0
C21 C 0.19769 0.83039 0.19922 0.0
C22 C 1.09095 0.70439 0.18006 0.0
C23 C 1.04034 0.49818 0.20521 0.0
C24 C 0.1655 0.53603 0.13868 0.0
C25 C 0.95738 0.32998 0.13261 0.0
C26 C 0.86675 0.25629 0.16028 0.0
C27 C 0.91906 0.26442 0.17807 0.0
C28 C 0.96374 0.30083 0.16446 0.0
C29 C 0.90567 0.32026 0.11444 0.0
C30 C 0.86103 0.28413 0.12808 0.0
C31 C 1.00301 0.3724 0.11884 0.0
H32 H 0.27307 0.76183 0.15159 0.0
H33 H 0.18523 0.69738 0.14897 0.0
H34 H 0.11286 0.80227 0.21081 0.0
H35 H 0.2006 0.86647 0.21404 0.0
H36 H 0.92505 0.24401 0.20295 0.0
H37 H 1.00292 0.30698 0.17924 0.0
H38 H 0.89932 0.34145 0.08977 0.0
H39 H 0.82179 0.27813 0.11333 0.0
Dy40 Dy 0.63471 0.96379 0.52028 0.0
Dy41 Dy 0.77083 0.99288 0.52305 0.0
C42 C 0.70648 0.97026 0.58908 0.0
O43 O 0.64892 0.05988 0.51362 0.0
O44 O 0.74252 0.0783 0.52955 0.0
O45 O 0.55939 0.92458 0.54242 0.0
O46 O 0.5546 0.97311 0.49424 0.0
O47 O 0.73571 0.02453 0.47303 0.0
O48 O 0.66357 0.9531 0.47061 0.0
O49 O 0.75445 0.8979 0.51693 0.0
O50 O 0.66408 0.87737 0.5319 0.0
O51 O 0.84648 0.98641 0.49979 0.0
O52 O 0.85031 0.02682 0.54555 0.0
C53 C 0.6931 0.09573 0.52152 0.0
O54 O 0.66133 0.98461 0.57176 0.0
O55 O 0.75084 0.9609 0.5748 0.0
C56 C 0.49033 0.89 0.50355 0.0
C57 C 0.42302 0.79187 0.48302 0.0
C58 C 0.41014 0.81801 0.51054 0.0
C59 C 0.44352 0.86679 0.52066 0.0
C60 C 0.50327 0.86428 0.476 0.0
C61 C 0.46967 0.81589 0.46569 0.0
C62 C 0.52763 0.93815 0.51612 0.0
C63 C 0.6984 0.99275 0.45571 0.0
C64 C 0.71148 0.86062 0.52543 0.0
C65 C 0.91335 0.06773 0.50538 0.0
C66 C 0.97611 0.16453 0.4741 0.0
C67 C 0.96702 0.11222 0.45955 0.0
C68 C 0.93612 0.06424 0.4751 0.0
C69 C 0.92358 0.11967 0.52031 0.0
C70 C 0.95463 0.1675 0.50484 0.0
C71 C 0.87738 0.01799 0.52042 0.0
H72 H 0.375 0.8001 0.52471 0.0
H73 H 0.43347 0.88572 0.54226 0.0
H74 H 0.5397 0.88114 0.46267 0.0
H75 H 0.48024 0.79736 0.4441 0.0
H76 H 0.98283 0.10864 0.43583 0.0
H77 H 0.9292 0.02466 0.46312 0.0
H78 H 0.90715 0.12372 0.54379 0.0
H79 H 0.96202 0.20681 0.51706 0.0
Dy80 Dy 0.72 0.51392 0.84679 0.0
Dy81 Dy 0.58538 0.49576 0.83228 0.0
C82 C 0.66494 0.5144 0.77127 0.0
O83 O 0.69671 0.5984 0.82369 0.0
O84 O 0.60822 0.59016 0.84025 0.0
O85 O 0.79285 0.55374 0.87337 0.0
O86 O 0.80192 0.494 0.8376 0.0
O87 O 0.60328 0.47267 0.88628 0.0
O88 O 0.68544 0.52974 0.89402 0.0
O89 O 0.61237 0.41077 0.82381 0.0
O90 O 0.6947 0.41876 0.8561 0.0
O91 O 0.50572 0.45417 0.848 0.0
O92 O 0.50919 0.51678 0.80514 0.0
C93 C 0.65279 0.62232 0.82935 0.0
O94 O 0.70946 0.51598 0.79197 0.0
O95 O 0.61396 0.50721 0.78112 0.0
C96 C 0.86356 0.57933 0.83738 0.0
C97 C 0.92879 0.67818 0.81111 0.0
C98 C 0.87274 0.6666 0.7996 0.0
C99 C 0.84051 0.61703 0.81239 0.0
C100 C 0.9201 0.58916 0.84768 0.0
C101 C 0.95263 0.63807 0.83448 0.0
C102 C 0.82688 0.53433 0.85513 0.0
C103 C 0.64054 0.50039 0.90578 0.0
C104 C 0.65479 0.38749 0.83975 0.0
C105 C 0.4412 0.52157 0.8427 0.0
C106 C 0.37645 0.58489 0.87651 0.0
C107 C 0.36644 0.52438 0.87855 0.0
C108 C 0.39852 0.493 0.86169 0.0
C109 C 0.45165 0.58194 0.84096 0.0
C110 C 0.4194 0.61324 0.85751 0.0
C111 C 0.47806 0.48827 0.82744 0.0
H112 H 0.85343 0.6969 0.78179 0.0
H113 H 0.7969 0.6096 0.80393 0.0
H114 H 0.93837 0.56066 0.86702 0.0
H115 H 0.99556 0.64649 0.8443 0.0
H116 H 0.33394 0.50127 0.89323 0.0
H117 H 0.39053 0.44641 0.86384 0.0
H118 H 0.48494 0.6052 0.82694 0.0
H119 H 0.42749 0.6598 0.8548 0.0
C120 C 0.58689 1.00825 0.21526 0.0
N121 N 0.63052 0.02393 0.23709 0.0
N122 N 0.54969 0.96736 0.22986 0.0
C123 C 0.58278 0.02873 0.17907 0.0
C124 C 0.57203 0.95838 0.26112 0.0
N125 N 0.62119 0.99206 0.26553 0.0
C126 C 0.54501 0.91723 0.28761 0.0
H127 H 0.56457 0.07015 0.17574 0.0
H128 H 0.55536 0.99729 0.16474 0.0
H129 H 0.62476 0.03591 0.16916 0.0
H130 H 0.56217 0.87542 0.28853 0.0
H131 H 0.49908 0.90968 0.28232 0.0
H132 H 0.5541 0.93397 0.3122 0.0
C133 C 0.70346 0.48087 0.53428 0.0
N134 N 0.68845 0.517 0.55516 0.0
N135 N 0.69615 0.42532 0.54782 0.0
C136 C 0.7221 0.49913 0.50017 0.0
C137 C 0.6765 0.42901 0.57753 0.0
N138 N 0.67123 0.48419 0.5818 0.0
C139 C 0.66443 0.3787 0.603 0.0
H140 H 0.6991 0.53466 0.48823 0.0
H141 H 0.71572 0.46244 0.48465 0.0
H142 H 0.76727 0.51522 0.50203 0.0
H143 H 0.69003 0.34371 0.60016 0.0
H144 H 0.61966 0.36154 0.59968 0.0
H145 H 0.67262 0.39201 0.62844 0.0
C146 C 0.20557 0.86283 0.89055 0.0
N147 N 0.21392 0.83112 0.91978 0.0
N148 N 0.15036 0.86575 0.88212 0.0
C149 C 0.25144 0.88486 0.86794 0.0
C150 C 0.12637 0.84175 0.9102 0.0
N151 N 0.16448 0.81994 0.93249 0.0
C152 C 1.06458 0.83499 0.91476 0.0
H153 H 0.28484 0.91158 0.88166 0.0
H154 H 0.2354 0.91113 0.84583 0.0
H155 H 0.27072 0.84846 0.86011 0.0
H156 H 1.04302 0.80062 0.89997 0.0
H157 H 1.04714 0.87582 0.90629 0.0
H158 H 1.05581 0.82383 0.94108 0.0
C159 C 0.158 0.50436 0.43838 0.0
N160 N 0.13321 0.46831 0.41633 0.0
N161 N 0.19709 0.54299 0.424 0.0
C162 C 0.14637 0.49998 0.4743 0.0
C163 C 0.19544 0.52904 0.39253 0.0
N164 N 0.15709 0.48299 0.38801 0.0
C165 C 0.22756 0.56348 0.36553 0.0
H166 H 0.10982 0.52302 0.47685 0.0
H167 H 0.18266 0.51985 0.48929 0.0
H168 H 0.13624 0.45431 0.48401 0.0
H169 H 0.26475 0.54205 0.36206 0.0
H170 H 0.24177 0.60801 0.37181 0.0
H171 H 0.20164 0.56538 0.34179 0.0
C172 C 0.62325 1.00229 0.82215 0.0
N173 N 0.63199 0.96245 0.80165 0.0
N174 N 0.63771 0.05666 0.8082 0.0
C175 C 0.60248 0.98856 0.85611 0.0
C176 C 0.65512 0.04856 0.77851 0.0
N177 N 0.65223 0.99171 0.77462 0.0
C178 C 0.67044 0.09627 0.75201 0.0
H179 H 0.55615 0.98143 0.85396 0.0
H180 H 0.61565 0.02479 0.87153 0.0
H181 H 0.61823 0.94876 0.86837 0.0
H182 H 0.71645 0.1019 0.75053 0.0
H183 H 0.65717 0.13775 0.75715 0.0
H184 H 0.65106 0.08486 0.72757 0.0
C185 C 0.55299 0.57104 0.13473 0.0
N186 N 0.59562 0.56619 0.11511 0.0
N187 N 0.50126 0.56261 0.11798 0.0
C188 C 0.56156 0.58108 0.1706 0.0
C189 C 0.51462 0.55364 0.08733 0.0
N190 N 0.5708 0.55489 0.08571 0.0
C191 C 0.47303 0.55017 0.05774 0.0
H192 H 0.52468 0.56157 0.18406 0.0
H193 H 0.56713 0.62815 0.17279 0.0
H194 H 0.59955 0.56296 0.18207 0.0
H195 H 0.49258 0.5688 0.03472 0.0
H196 H 0.4369 0.57357 0.06066 0.0
H197 H 0.45747 0.50434 0.05504 0.0
H198 H 0.26108 0.61257 0.15695 0.0
H199 H 0.21322 0.4524 0.11321 0.0
H200 H 0.31039 0.44482 0.10535 0.0
H201 H 0.41027 0.48341 0.10883 0.0
H202 H 0.4614 0.64435 0.15023 0.0
H203 H 0.36393 0.65081 0.16155 0.0
C204 C 0.27175 0.57576 0.14588 0.0
C205 C 0.22801 0.53315 0.13574 0.0
C206 C 0.32935 0.57143 0.14104 0.0
C207 C 0.24433 0.48627 0.1213 0.0
C208 C 0.3006 0.48167 0.11676 0.0
C209 C 0.40035 0.51995 0.12045 0.0
C210 C 0.44428 0.56331 0.12857 0.0
C211 C 0.3436 0.52398 0.12623 0.0
C212 C 0.42954 0.60983 0.14396 0.0
C213 C 0.37324 0.61377 0.15016 0.0
H214 H 0.95265 0.27522 0.46918 0.0
H215 H 1.07148 0.16901 0.44168 0.0
H216 H 0.12755 0.25443 0.41757 0.0
H217 H 0.1472 0.36013 0.40893 0.0
H218 H 1.0318 0.46626 0.43932 0.0
H219 H 0.96975 0.38022 0.45796 0.0
C220 C 0.99093 0.27077 0.45802 0.0
C221 C 1.00817 0.21591 0.45754 0.0
C222 C 1.02352 0.32007 0.44488 0.0
C223 C 1.05712 0.21071 0.44223 0.0
C224 C 1.08937 0.25953 0.42861 0.0
C225 C 1.10789 0.3639 0.41911 0.0
C226 C 1.09365 0.4186 0.42308 0.0
C227 C 1.07351 0.31443 0.43036 0.0
C228 C 1.04317 0.42403 0.43643 0.0
C229 C 1.00803 0.37506 0.44706 0.0
H230 H 0.57201 0.69382 0.83671 0.0
H231 H 0.7401 0.69676 0.80716 0.0
H232 H 0.74785 0.80057 0.79589 0.0
H233 H 0.70837 0.8921 0.79453 0.0
H234 H 0.54114 0.89244 0.82317 0.0
H235 H 0.53178 0.78709 0.83481 0.0
C236 C 0.61029 0.71715 0.82783 0.0
C237 C 0.65531 0.68661 0.82291 0.0
C238 C 0.61485 0.77802 0.82125 0.0
C239 C 0.70454 0.71823 0.81131 0.0
C240 C 0.7092 0.77807 0.80476 0.0
C241 C 0.66979 0.86895 0.80311 0.0
C242 C 0.62571 0.90011 0.80818 0.0
C243 C 0.66479 0.80849 0.80961 0.0
C244 C 0.57603 0.8696 0.81958 0.0
C245 C 0.57062 0.80927 0.82605 0.0
H246 H 0.85844 0.63185 0.14958 0.0
H247 H 0.86137 0.46685 0.11235 0.0
H248 H 0.76045 0.45594 0.10315 0.0
H249 H 0.66888 0.49131 0.10521 0.0
H250 H 0.66171 0.6543 0.14285 0.0
H251 H 0.76415 0.66698 0.1526 0.0
C252 C 0.83715 0.59362 0.13933 0.0
C253 C 0.86931 0.55036 0.13179 0.0
C254 C 0.77711 0.58665 0.13433 0.0
C255 C 0.83935 0.50113 0.11875 0.0
C256 C 0.78087 0.4946 0.11336 0.0
C257 C 0.68959 0.52965 0.11562 0.0
C258 C 0.65659 0.57161 0.12334 0.0
C259 C 0.74901 0.53675 0.12108 0.0
C260 C 0.68512 0.62073 0.13703 0.0
C261 C 0.74419 0.62821 0.14235 0.0
H262 H 0.30977 0.76885 0.48127 0.0
H263 H 0.45818 0.6972 0.46118 0.0
H264 H 0.40086 0.61297 0.44148 0.0
H265 H 0.30818 0.56046 0.42883 0.0
H266 H 0.16041 0.63005 0.45042 0.0
H267 H 0.21774 0.71394 0.47161 0.0
C268 C 0.32967 0.73446 0.47306 0.0
C269 C 0.38815 0.73961 0.47244 0.0
C270 C 0.29656 0.6858 0.4622 0.0
C271 C 0.41317 0.69491 0.46128 0.0
C272 C 0.3805 0.64652 0.45024 0.0
C273 C 0.28904 0.59412 0.43839 0.0
C274 C 0.23077 0.58996 0.43821 0.0
C275 C 0.32221 0.64177 0.45034 0.0
C276 C 0.20549 0.63297 0.45066 0.0
C277 C 0.23816 0.68073 0.46254 0.0
H278 H 0.57091 0.29939 0.82937 0.0
H279 H 0.74973 0.33489 0.84675 0.0
H280 H 0.7601 0.2345 0.841 0.0
H281 H 0.719 0.13721 0.82739 0.0
H282 H 0.54077 0.09967 0.81239 0.0
H283 H 0.52914 0.19931 0.82124 0.0
C284 C 0.61209 0.28505 0.83209 0.0
C285 C 0.6595 0.32506 0.83823 0.0
C286 C 0.61778 0.22657 0.82932 0.0
C287 C 0.71247 0.30534 0.84206 0.0
C288 C 0.71851 0.24779 0.83871 0.0
C289 C 0.6777 0.15081 0.82692 0.0
C290 C 0.6307 0.11136 0.81962 0.0
C291 C 0.6716 0.20813 0.83199 0.0
C292 C 0.5773 0.12927 0.8185 0.0
C293 C 0.57082 0.18633 0.82322 0.0
H294 H 0.63038 0.77184 0.53977 0.0
H295 H 0.80354 0.80665 0.51745 0.0
H296 H 0.81168 0.70329 0.52375 0.0
H297 H 0.76993 0.60205 0.53728 0.0
H298 H 0.59704 0.56899 0.55916 0.0
H299 H 0.58852 0.6722 0.5516 0.0
C300 C 0.67001 0.75708 0.53619 0.0
C301 C 0.71632 0.79749 0.52822 0.0
C302 C 0.67448 0.69754 0.53994 0.0
C303 C 0.76712 0.77691 0.52361 0.0
C304 C 0.77186 0.71763 0.52725 0.0
C305 C 0.73042 0.6177 0.54003 0.0
C306 C 0.68416 0.5781 0.54895 0.0
C307 C 0.7259 0.67745 0.53559 0.0
C308 C 0.63327 0.59879 0.55276 0.0
C309 C 0.62838 0.65774 0.5483 0.0
H310 H 1.03328 0.70028 0.79099 0.0
H311 H 0.89565 0.78374 0.81572 0.0
H312 H 0.95958 0.86835 0.8292 0.0
H313 H 1.05484 0.90137 0.85152 0.0
H314 H 0.18749 0.80006 0.83917 0.0
H315 H 0.12821 0.74478 0.80121 0.0
C316 C 1.01727 0.73816 0.79795 0.0
C317 C 0.96061 0.73528 0.80358 0.0
C318 C 1.05454 0.78427 0.80829 0.0
C319 C 0.93955 0.78475 0.81175 0.0
C320 C 0.97625 0.8329 0.81989 0.0
C321 C 1.07087 0.86795 0.83995 0.0
C322 C 0.12496 0.85377 0.84974 0.0
C323 C 1.03411 0.83064 0.82118 0.0
C324 C 0.14628 0.81268 0.83277 0.0
C325 C 0.11169 0.77956 0.81134 0.0
H326 H 0.34902 0.78625 0.19191 0.0
H327 H 0.26199 0.9372 0.18259 0.0
H328 H 0.35016 0.99761 0.19333 0.0
H329 H 0.4519 1.00673 0.20943 0.0
H330 H 0.53762 0.85566 0.21977 0.0
H331 H 0.45077 0.79624 0.2038 0.0
C332 C 0.34934 0.83248 0.19159 0.0
C333 C 0.29861 0.85689 0.18667 0.0
C334 C 0.40023 0.86701 0.19793 0.0
C335 C 0.3001 0.91695 0.18686 0.0
C336 C 0.35062 0.95166 0.19283 0.0
C337 C 0.45134 0.96103 0.20741 0.0
C338 C 0.50066 0.93529 0.21544 0.0
C339 C 0.40087 0.92709 0.19897 0.0
C340 C 0.4999 0.87598 0.21339 0.0
C341 C 0.45029 0.84215 0.20449 0.0
H342 H 0.77361 0.18973 0.52366 0.0
H343 H 0.59496 0.14153 0.52021 0.0
H344 H 0.58018 0.24101 0.52374 0.0
H345 H 0.61754 0.34075 0.53243 0.0
H346 H 0.79474 0.39115 0.53637 0.0
H347 H 0.81074 0.29271 0.52726 0.0
C348 C 0.73147 0.20105 0.52352 0.0
C349 C 0.68557 0.15765 0.52201 0.0
C350 C 0.72296 0.25904 0.52537 0.0
C351 C 0.63122 0.17355 0.52145 0.0
C352 C 0.62257 0.23065 0.52345 0.0
C353 C 0.65945 0.33021 0.53034 0.0
C354 C 0.70491 0.37274 0.53471 0.0
C355 C 0.66803 0.27355 0.5259 0.0
C356 C 0.75924 0.35902 0.53251 0.0
C357 C 0.76826 0.30264 0.52777 0.0
H358 H 0.40628 0.68282 0.90774 0.0
H359 H 0.26357 0.56402 0.87899 0.0
H360 H 0.20094 0.62756 0.89532 0.0
H361 H 0.1866 0.72261 0.90855 0.0
H362 H 0.32621 0.84559 0.93451 0.0
H363 H 0.39099 0.77526 0.92758 0.0
C364 C 0.36147 0.67071 0.9053 0.0
C365 C 0.33964 0.61903 0.89176 0.0
C366 C 0.32546 0.70846 0.91373 0.0
C367 C 0.28158 0.6032 0.88951 0.0
C368 C 0.24565 0.63979 0.89853 0.0
C369 C 0.23111 0.73296 0.91414 0.0
C370 C 0.25198 0.78827 0.92265 0.0
C371 C 0.26715 0.69316 0.90952 0.0
C372 C 0.30969 0.80274 0.92835 0.0
C373 C 0.34638 0.76276 0.92419 0.0
H374 H 0.86406 0.1524 0.19861 0.0
H375 H 0.75858 0.2802 0.15633 0.0
H376 H 0.67715 0.22167 0.17853 0.0
H377 H 0.63458 0.13236 0.2082 0.0
H378 H 0.73815 1.00265 0.24884 0.0
H379 H 0.82154 0.06425 0.23035 0.0
C380 C 0.82338 0.16775 0.19453 0.0
C381 C 0.81771 0.22059 0.17536 0.0
C382 C 0.77625 0.1336 0.2074 0.0
C383 C 0.76433 0.23934 0.17029 0.0
C384 C 0.71763 0.20603 0.18322 0.0
C385 C 0.67551 0.11781 0.21305 0.0
C386 C 0.68019 0.06301 0.22981 0.0
C387 C 0.72291 0.15281 0.20146 0.0
C388 C 0.73353 0.04492 0.23639 0.0
C389 C 0.78112 0.07992 0.22546 0.0
H390 H 0.15381 0.67552 0.06946 0.0
H391 H 1.02288 0.57189 0.01677 0.0
H392 H 1.04107 0.63435 0.96553 0.0
H393 H 1.09073 0.72279 0.93712 0.0
H394 H 0.21787 0.82674 0.99192 0.0
H395 H 0.2044 0.75972 0.04151 0.0
C396 C 0.1291 0.66626 0.04678 0.0
C397 C 1.08638 0.61964 0.04698 0.0
C398 C 0.13863 0.703 0.01812 0.0
C399 C 1.05594 0.60749 0.01722 0.0
C400 C 1.06601 0.64354 0.98809 0.0
C401 C 0.11445 0.73117 0.96018 0.0
C402 C 0.15386 0.78068 0.96152 0.0
C403 C 1.10629 0.69232 0.98851 0.0
C404 C 0.18656 0.78964 0.99086 0.0
C405 C 0.17903 0.75126 0.01898 0.0
H406 H 0.70834 0.9214 0.409 0.0
H407 H 0.67477 0.09305 0.42181 0.0
H408 H 0.65575 0.11256 0.36191 0.0
H409 H 0.63833 0.07599 0.30645 0.0
H410 H 0.67613 0.90606 0.29387 0.0
H411 H 0.70583 0.89091 0.35267 0.0
C412 C 0.69744 0.96319 0.39849 0.0
C413 C 0.69195 1.00547 0.41952 0.0
C414 C 0.688 0.97447 0.36403 0.0
C415 C 0.67876 0.05984 0.40587 0.0
C416 C 0.66798 0.07098 0.37169 0.0
C417 C 0.65533 0.03679 0.31652 0.0
C418 C 0.65543 0.99219 0.29612 0.0
C419 C 0.67137 0.0282 0.35054 0.0
C420 C 0.67645 0.94098 0.30929 0.0
C421 C 0.69256 0.93208 0.34293 0.0
H422 H 0.58632 0.49755 0.7201 0.0
H423 H 0.76271 0.54671 0.74164 0.0
H424 H 0.77855 0.55129 0.68314 0.0
H425 H 0.74405 0.5311 0.62649 0.0
H426 H 0.56995 0.47557 0.60539 0.0
H427 H 0.55078 0.48511 0.6627 0.0
C428 C 0.62813 0.50982 0.71199 0.0
C429 C 0.67329 0.52087 0.73538 0.0
C430 C 0.6372 0.51166 0.67825 0.0
C431 C 0.72719 0.53702 0.72432 0.0
C432 C 0.73636 0.53994 0.6908 0.0
C433 C 0.70183 0.52313 0.63446 0.0
C434 C 0.65817 0.50373 0.61214 0.0
C435 C 0.69194 0.52615 0.66765 0.0
C436 C 0.60366 0.49161 0.6224 0.0
C437 C 0.59301 0.49636 0.65513 0.0
H438 H 0.61973 0.93793 0.62778 0.0
H439 H 0.79653 0.99496 0.63214 0.0
H440 H 0.79701 0.99954 0.6919 0.0
H441 H 0.7446 0.99737 0.74182 0.0
H442 H 0.56884 0.93836 0.73767 0.0
H443 H 0.5703 0.92284 0.67914 0.0
C444 C 0.65842 0.95084 0.64192 0.0
C445 C 0.70785 0.96701 0.62557 0.0
C446 C 0.65848 0.9526 0.67629 0.0
C447 C 0.75793 0.98257 0.64418 0.0
C448 C 0.7582 0.98528 0.67832 0.0
C449 C 0.70723 0.97954 0.72813 0.0
C450 C 0.65668 0.96888 0.74364 0.0
C451 C 0.70849 0.97164 0.6945 0.0
C452 C 0.60814 0.94612 0.72604 0.0
C453 C 0.60894 0.93803 0.69258 0.0
H454 H 0.6817 0.57841 0.95002 0.0
H455 H 0.57533 0.41815 0.94139 0.0
H456 H 0.54985 0.41767 -0.00197 0.0
H457 H 0.55138 0.46633 0.04858 0.0
H458 H 0.65062 0.63 0.05655 0.0
H459 H 0.6866 0.62517 0.00233 0.0
C460 C 0.6536 0.54304 0.96075 0.0
C461 C 0.63028 0.49851 0.94136 0.0
C462 C 0.63788 0.5437 0.99332 0.0
C463 C 0.59355 0.45321 0.95557 0.0
C464 C 0.57896 0.45282 0.98804 0.0
C465 C 0.58132 0.50054 0.03844 0.0
C466 C 0.59829 0.54846 0.05631 0.0
C467 C 0.59987 0.49836 0.00687 0.0
C468 C 0.63739 0.59251 0.04326 0.0
C469 C 0.65746 0.58993 0.01216 0.0
H470 H 0.12284 0.4441 0.23931 0.0
H471 H 0.97056 0.5155 0.25102 0.0
H472 H 0.989 0.50618 0.31103 0.0
H473 H 1.05628 0.4935 0.35895 0.0
H474 H 0.21286 0.43234 0.34688 0.0
H475 H 0.18518 0.42079 0.28839 0.0
C476 C 1.09302 0.45604 0.25512 0.0
C477 C 1.04567 0.48078 0.24095 0.0
C478 C 1.10519 0.45293 0.28949 0.0
C479 C 1.00753 0.49675 0.26153 0.0
C480 C 1.01812 0.49159 0.29578 0.0
C481 C 1.0832 0.47587 0.34356 0.0
C482 C 0.13618 0.46359 0.35665 0.0
C483 C 1.06791 0.47204 0.30989 0.0
C484 C 0.17179 0.44175 0.33686 0.0
C485 C 0.15608 0.43561 0.30355 0.0
loop_
_geom_bond_atom_site_label_1
_geom_bond_atom_site_label_2
_geom_bond_distance
_geom_bond_site_symmetry_2
_ccdc_geom_bond_type
Dy0 O3 2.307 1_455 S
Dy0 O5 2.395 . S
Dy0 O6 2.379 . S
Dy0 O8 2.339 . S
Dy0 O10 2.298 . S
Dy0 O14 2.275 . S
Dy0 C22 2.738 . S
Dy1 O4 2.298 . S
Dy1 O7 2.274 1_655 S
Dy1 O9 2.307 1_655 S
Dy1 O11 2.395 . S
Dy1 O12 2.379 . S
Dy1 O15 2.339 . S
Dy1 C31 2.738 . S
C2 O14 1.254 . S
C2 O15 1.257 1_455 S
O3 Dy0 2.307 1_655 S
O3 C13 1.266 . S
O4 Dy1 2.298 . S
O4 C13 1.236 . S
O5 Dy0 2.395 . S
O5 C22 1.255 . S
O6 Dy0 2.379 . S
O6 C22 1.249 . S
O7 Dy1 2.274 1_455 S
O7 C23 1.254 . S
O8 Dy0 2.339 . S
O8 C23 1.257 . S
O9 Dy1 2.307 1_455 S
O9 C24 1.266 . S
O10 Dy0 2.298 . S
O10 C24 1.236 . S
O11 Dy1 2.395 . S
O11 C31 1.255 . S
O12 Dy1 2.379 . S
O12 C31 1.249 . S
C13 O3 1.266 . S
C13 O4 1.236 . S
O14 Dy0 2.275 . S
O14 C2 1.254 . S
O15 Dy1 2.339 . S
O15 C2 1.257 1_655 S
C16 C19 1.344 . S
C16 C20 1.328 . S
C16 C22 1.516 . S
C17 C18 1.304 . S
C17 C21 1.323 . S
C18 C17 1.304 . S
C18 C19 1.371 . S
C18 H32 0.930 . S
C19 C16 1.344 . S
C19 C18 1.371 . S
C19 H33 0.931 . S
C20 C16 1.328 . S
C20 C21 1.433 . S
C20 H34 0.931 . S
C21 C17 1.323 . S
C21 C20 1.433 . S
C21 H35 0.933 . S
C22 Dy0 2.738 . S
C22 O5 1.255 . S
C22 O6 1.249 . S
C22 C16 1.516 . S
C23 O7 1.254 . S
C23 O8 1.257 . S
C24 O9 1.266 . S
C24 O10 1.236 . S
C25 C28 1.344 . S
C25 C29 1.328 . S
C25 C31 1.516 . S
C26 C27 1.304 . S
C26 C30 1.323 . S
C27 C26 1.304 . S
C27 C28 1.371 . S
C27 H36 0.930 . S
C28 C25 1.344 . S
C28 C27 1.371 . S
C28 H37 0.931 . S
C29 C25 1.328 . S
C29 C30 1.433 . S
C29 H38 0.931 . S
C30 C26 1.323 . S
C30 C29 1.433 . S
C30 H39 0.933 . S
C31 Dy1 2.738 . S
C31 O11 1.255 . S
C31 O12 1.249 . S
C31 C25 1.516 . S
H32 C18 0.930 . S
H33 C19 0.931 . S
H34 C20 0.931 . S
H35 C21 0.933 . S
H36 C27 0.930 . S
H37 C28 0.931 . S
H38 C29 0.931 . S
H39 C30 0.933 . S
Dy40 O43 2.307 1_565 S
Dy40 O45 2.395 . S
Dy40 O46 2.379 . S
Dy40 O48 2.339 . S
Dy40 O50 2.298 . S
Dy40 O54 2.275 1_565 S
Dy40 C62 2.738 . S
Dy41 O44 2.298 . S
Dy41 O47 2.275 . S
Dy41 O49 2.307 1_545 S
Dy41 O51 2.395 . S
Dy41 O52 2.379 . S
Dy41 O55 2.339 . S
Dy41 C71 2.738 . S
C42 O54 1.254 . S
C42 O55 1.257 . S
O43 Dy40 2.307 1_545 S
O43 C53 1.266 . S
O44 Dy41 2.298 . S
O44 C53 1.236 . S
O45 Dy40 2.395 . S
O45 C62 1.255 . S
O46 Dy40 2.379 . S
O46 C62 1.249 . S
O47 Dy41 2.275 . S
O47 C63 1.254 . S
O48 Dy40 2.339 . S
O48 C63 1.257 1_565 S
O49 Dy41 2.307 1_565 S
O49 C64 1.266 . S
O50 Dy40 2.298 . S
O50 C64 1.236 . S
O51 Dy41 2.395 . S
O51 C71 1.255 . S
O52 Dy41 2.379 . S
O52 C71 1.249 . S
C53 O43 1.266 . S
C53 O44 1.236 . S
O54 Dy40 2.275 1_545 S
O54 C42 1.254 . S
O55 Dy41 2.339 . S
O55 C42 1.257 . S
C56 C59 1.344 . S
C56 C60 1.328 . S
C56 C62 1.516 . S
C57 C58 1.304 . S
C57 C61 1.323 . S
C58 C57 1.304 . S
C58 C59 1.371 . S
C58 H72 0.930 . S
C59 C56 1.344 . S
C59 C58 1.371 . S
C59 H73 0.931 . S
C60 C56 1.328 . S
C60 C61 1.433 . S
C60 H74 0.931 . S
C61 C57 1.323 . S
C61 C60 1.433 . S
C61 H75 0.933 . S
C62 Dy40 2.738 . S
C62 O45 1.255 . S
C62 O46 1.249 . S
C62 C56 1.516 . S
C63 O47 1.254 . S
C63 O48 1.257 1_545 S
C64 O49 1.266 . S
C64 O50 1.236 . S
C65 C68 1.344 . S
C65 C69 1.328 . S
C65 C71 1.516 . S
C66 C67 1.304 . S
C66 C70 1.323 . S
C67 C66 1.304 . S
C67 C68 1.371 . S
C67 H76 0.930 . S
C68 C65 1.344 . S
C68 C67 1.371 . S
C68 H77 0.931 . S
C69 C65 1.328 . S
C69 C70 1.433 . S
C69 H78 0.931 . S
C70 C66 1.323 . S
C70 C69 1.433 . S
C70 H79 0.933 . S
C71 Dy41 2.738 . S
C71 O51 1.255 . S
C71 O52 1.249 . S
C71 C65 1.516 . S
H72 C58 0.930 . S
H73 C59 0.931 . S
H74 C60 0.931 . S
H75 C61 0.933 . S
H76 C67 0.930 . S
H77 C68 0.931 . S
H78 C69 0.931 . S
H79 C70 0.933 . S
Dy80 O83 2.307 . S
Dy80 O85 2.395 . S
Dy80 O86 2.379 . S
Dy80 O88 2.339 . S
Dy80 O90 2.298 . S
Dy80 O94 2.275 . S
Dy80 C102 2.738 . S
Dy81 O84 2.298 . S
Dy81 O87 2.275 . S
Dy81 O89 2.307 . S
Dy81 O91 2.395 . S
Dy81 O92 2.379 . S
Dy81 O95 2.339 . S
Dy81 C111 2.738 . S
C82 O94 1.254 . S
C82 O95 1.257 . S
O83 Dy80 2.307 . S
O83 C93 1.266 . S
O84 Dy81 2.298 . S
O84 C93 1.236 . S
O85 Dy80 2.395 . S
O85 C102 1.255 . S
O86 Dy80 2.379 . S
O86 C102 1.249 . S
O87 Dy81 2.275 . S
O87 C103 1.254 . S
O88 Dy80 2.339 . S
O88 C103 1.257 . S
O89 Dy81 2.307 . S
O89 C104 1.266 . S
O90 Dy80 2.298 . S
O90 C104 1.236 . S
O91 Dy81 2.395 . S
O91 C111 1.255 . S
O92 Dy81 2.379 . S
O92 C111 1.249 . S
C93 O83 1.266 . S
C93 O84 1.236 . S
O94 Dy80 2.275 . S
O94 C82 1.254 . S
O95 Dy81 2.339 . S
O95 C82 1.257 . S
C96 C99 1.344 . S
C96 C100 1.328 . S
C96 C102 1.516 . S
C97 C98 1.304 . S
C97 C101 1.323 . S
C98 C97 1.304 . S
C98 C99 1.371 . S
C98 H112 0.930 . S
C99 C96 1.344 . S
C99 C98 1.371 . S
C99 H113 0.931 . S
C100 C96 1.328 . S
C100 C101 1.433 . S
C100 H114 0.931 . S
C101 C97 1.323 . S
C101 C100 1.433 . S
C101 H115 0.933 . S
C102 Dy80 2.738 . S
C102 O85 1.255 . S
C102 O86 1.249 . S
C102 C96 1.516 . S
C103 O87 1.254 . S
C103 O88 1.257 . S
C104 O89 1.266 . S
C104 O90 1.236 . S
C105 C108 1.344 . S
C105 C109 1.328 . S
C105 C111 1.516 . S
C106 C107 1.304 . S
C106 C110 1.323 . S
C107 C106 1.304 . S
C107 C108 1.371 . S
C107 H116 0.930 . S
C108 C105 1.344 . S
C108 C107 1.371 . S
C108 H117 0.931 . S
C109 C105 1.328 . S
C109 C110 1.433 . S
C109 H118 0.931 . S
C110 C106 1.323 . S
C110 C109 1.433 . S
C110 H119 0.933 . S
C111 Dy81 2.738 . S
C111 O91 1.255 . S
C111 O92 1.249 . S
C111 C105 1.516 . S
H112 C98 0.930 . S
H113 C99 0.931 . S
H114 C100 0.931 . S
H115 C101 0.933 . S
H116 C107 0.930 . S
H117 C108 0.931 . S
H118 C109 0.931 . S
H119 C110 0.933 . S
C120 N121 1.317 . S
C120 N122 1.348 1_545 S
C120 C123 1.485 . S
N121 C120 1.317 . S
N121 N125 1.370 . S
N122 C120 1.348 1_565 S
N122 C124 1.346 . S
C123 C120 1.485 . S
C123 H127 0.960 . S
C123 H128 0.961 1_545 S
C123 H129 0.960 . S
C124 N122 1.346 . S
C124 N125 1.307 1_565 S
C124 C126 1.486 . S
N125 N121 1.370 . S
N125 C124 1.307 1_545 S
C126 C124 1.486 . S
C126 H130 0.960 . S
C126 H131 0.960 . S
C126 H132 0.959 . S
H127 C123 0.960 . S
H128 C123 0.961 1_565 S
H129 C123 0.960 . S
H130 C126 0.960 . S
H131 C126 0.960 . S
H132 C126 0.959 . S
C133 N134 1.317 . S
C133 N135 1.348 . S
C133 C136 1.485 . S
N134 C133 1.317 . S
N134 N138 1.370 . S
N135 C133 1.348 . S
N135 C137 1.346 . S
C136 C133 1.485 . S
C136 H140 0.960 . S
C136 H141 0.961 . S
C136 H142 0.960 . S
C137 N135 1.346 . S
C137 N138 1.307 . S
C137 C139 1.486 . S
N138 N134 1.370 . S
N138 C137 1.307 . S
C139 C137 1.486 . S
C139 H143 0.960 . S
C139 H144 0.960 . S
C139 H145 0.959 . S
H140 C136 0.960 . S
H141 C136 0.961 . S
H142 C136 0.960 . S
H143 C139 0.960 . S
H144 C139 0.960 . S
H145 C139 0.959 . S
C146 N147 1.317 . S
C146 N148 1.348 1_455 S
C146 C149 1.485 . S
N147 C146 1.317 . S
N147 N151 1.370 . S
N148 C146 1.348 1_655 S
N148 C150 1.346 . S
C149 C146 1.485 . S
C149 H153 0.960 . S
C149 H154 0.961 1_455 S
C149 H155 0.960 . S
C150 N148 1.346 . S
C150 N151 1.307 1_655 S
C150 C152 1.486 . S
N151 N147 1.370 . S
N151 C150 1.307 1_455 S
C152 C150 1.486 . S
C152 H156 0.960 . S
C152 H157 0.960 . S
C152 H158 0.959 . S
H153 C149 0.960 . S
H154 C149 0.961 1_655 S
H155 C149 0.960 . S
H156 C152 0.960 . S
H157 C152 0.960 . S
H158 C152 0.959 . S
C159 N160 1.317 . S
C159 N161 1.348 . S
C159 C162 1.485 . S
N160 C159 1.317 . S
N160 N164 1.370 . S
N161 C159 1.348 . S
N161 C163 1.346 . S
C162 C159 1.485 . S
C162 H166 0.960 . S
C162 H167 0.961 . S
C162 H168 0.960 . S
C163 N161 1.346 . S
C163 N164 1.307 . S
C163 C165 1.486 . S
N164 N160 1.370 . S
N164 C163 1.307 . S
C165 C163 1.486 . S
C165 H169 0.960 . S
C165 H170 0.960 . S
C165 H171 0.959 . S
H166 C162 0.960 . S
H167 C162 0.961 . S
H168 C162 0.960 . S
H169 C165 0.960 . S
H170 C165 0.960 . S
H171 C165 0.959 . S
C172 N173 1.317 . S
C172 N174 1.348 . S
C172 C175 1.485 . S
N173 C172 1.317 . S
N173 N177 1.370 . S
N174 C172 1.348 . S
N174 C176 1.346 . S
C175 C172 1.485 . S
C175 H179 0.960 . S
C175 H180 0.961 . S
C175 H181 0.960 1_545 S
C176 N174 1.346 . S
C176 N177 1.307 . S
C176 C178 1.486 . S
N177 N173 1.370 . S
N177 C176 1.307 . S
C178 C176 1.486 . S
C178 H182 0.960 . S
C178 H183 0.960 . S
C178 H184 0.959 . S
H179 C175 0.960 . S
H180 C175 0.961 . S
H181 C175 0.960 1_565 S
H182 C178 0.960 . S
H183 C178 0.960 . S
H184 C178 0.959 . S
C185 N186 1.317 . S
C185 N187 1.348 . S
C185 C188 1.485 . S
N186 C185 1.317 . S
N186 N190 1.370 . S
N187 C185 1.348 . S
N187 C189 1.346 . S
C188 C185 1.485 . S
C188 H192 0.960 . S
C188 H193 0.961 . S
C188 H194 0.960 . S
C189 N187 1.346 . S
C189 N190 1.307 . S
C189 C191 1.486 . S
N190 N186 1.370 . S
N190 C189 1.307 . S
C191 C189 1.486 . S
C191 H195 0.960 . S
C191 H196 0.960 . S
C191 H197 0.959 . S
H192 C188 0.960 . S
H193 C188 0.961 . S
H194 C188 0.960 . S
H195 C191 0.960 . S
H196 C191 0.960 . S
H197 C191 0.959 . S
H198 C204 0.930 . S
H199 C207 0.930 . S
H200 C208 0.930 . S
H201 C209 0.930 . S
H202 C212 0.930 . S
H203 C213 0.930 . S
C204 H198 0.930 . S
C204 C205 1.355 . S
C204 C206 1.415 . S
C205 C204 1.355 . S
C205 C207 1.419 . S
C206 C204 1.415 . S
C206 C211 1.425 . S
C206 C213 1.409 . S
C207 H199 0.930 . S
C207 C205 1.419 . S
C207 C208 1.362 . S
C208 H200 0.930 . S
C208 C207 1.362 . S
C208 C211 1.409 . S
C209 H201 0.930 . S
C209 C210 1.355 . S
C209 C211 1.415 . S
C210 C209 1.355 . S
C210 C212 1.419 . S
C211 C206 1.425 . S
C211 C208 1.409 . S
C211 C209 1.415 . S
C212 H202 0.930 . S
C212 C210 1.419 . S
C212 C213 1.362 . S
C213 H203 0.930 . S
C213 C206 1.409 . S
C213 C212 1.362 . S
H214 C220 0.930 . S
H215 C223 0.930 . S
H216 C224 0.930 . S
H217 C225 0.930 . S
H218 C228 0.930 1_455 S
H219 C229 0.930 . S
C220 H214 0.930 . S
C220 C221 1.355 . S
C220 C222 1.415 . S
C221 C220 1.355 . S
C221 C223 1.419 . S
C222 C220 1.415 . S
C222 C227 1.425 . S
C222 C229 1.409 . S
C223 H215 0.930 . S
C223 C221 1.419 . S
C223 C224 1.362 . S
C224 H216 0.930 . S
C224 C223 1.362 . S
C224 C227 1.409 . S
C225 H217 0.930 . S
C225 C226 1.355 . S
C225 C227 1.415 . S
C226 C225 1.355 . S
C226 C228 1.419 . S
C227 C222 1.425 . S
C227 C224 1.409 . S
C227 C225 1.415 . S
C228 H218 0.930 1_655 S
C228 C226 1.419 . S
C228 C229 1.362 . S
C229 H219 0.930 . S
C229 C222 1.409 . S
C229 C228 1.362 . S
H230 C236 0.930 . S
H231 C239 0.930 . S
H232 C240 0.930 . S
H233 C241 0.930 . S
H234 C244 0.930 . S
H235 C245 0.930 . S
C236 H230 0.930 . S
C236 C237 1.355 . S
C236 C238 1.415 . S
C237 C236 1.355 . S
C237 C239 1.419 . S
C238 C236 1.415 . S
C238 C243 1.425 . S
C238 C245 1.409 . S
C239 H231 0.930 . S
C239 C237 1.419 . S
C239 C240 1.362 . S
C240 H232 0.930 . S
C240 C239 1.362 . S
C240 C243 1.409 . S
C241 H233 0.930 . S
C241 C242 1.355 . S
C241 C243 1.415 . S
C242 C241 1.355 . S
C242 C244 1.419 . S
C243 C238 1.425 . S
C243 C240 1.409 . S
C243 C241 1.415 . S
C244 H234 0.930 . S
C244 C242 1.419 . S
C244 C245 1.362 . S
C245 H235 0.930 . S
C245 C238 1.409 . S
C245 C244 1.362 . S
H246 C252 0.930 . S
H247 C255 0.930 . S
H248 C256 0.930 . S
H249 C257 0.930 . S
H250 C260 0.930 . S
H251 C261 0.930 . S
C252 H246 0.930 . S
C252 C253 1.355 . S
C252 C254 1.415 . S
C253 C252 1.355 . S
C253 C255 1.419 . S
C254 C252 1.415 . S
C254 C259 1.425 . S
C254 C261 1.409 . S
C255 H247 0.930 . S
C255 C253 1.419 . S
C255 C256 1.362 . S
C256 H248 0.930 . S
C256 C255 1.362 . S
C256 C259 1.409 . S
C257 H249 0.930 . S
C257 C258 1.355 . S
C257 C259 1.415 . S
C258 C257 1.355 . S
C258 C260 1.419 . S
C259 C254 1.425 . S
C259 C256 1.409 . S
C259 C257 1.415 . S
C260 H250 0.930 . S
C260 C258 1.419 . S
C260 C261 1.362 . S
C261 H251 0.930 . S
C261 C254 1.409 . S
C261 C260 1.362 . S
H262 C268 0.930 . S
H263 C271 0.930 . S
H264 C272 0.930 . S
H265 C273 0.930 . S
H266 C276 0.930 . S
H267 C277 0.930 . S
C268 H262 0.930 . S
C268 C269 1.355 . S
C268 C270 1.415 . S
C269 C268 1.355 . S
C269 C271 1.419 . S
C270 C268 1.415 . S
C270 C275 1.425 . S
C270 C277 1.409 . S
C271 H263 0.930 . S
C271 C269 1.419 . S
C271 C272 1.362 . S
C272 H264 0.930 . S
C272 C271 1.362 . S
C272 C275 1.409 . S
C273 H265 0.930 . S
C273 C274 1.355 . S
C273 C275 1.415 . S
C274 C273 1.355 . S
C274 C276 1.419 . S
C275 C270 1.425 . S
C275 C272 1.409 . S
C275 C273 1.415 . S
C276 H266 0.930 . S
C276 C274 1.419 . S
C276 C277 1.362 . S
C277 H267 0.930 . S
C277 C270 1.409 . S
C277 C276 1.362 . S
H278 C284 0.930 . S
H279 C287 0.930 . S
H280 C288 0.930 . S
H281 C289 0.930 . S
H282 C292 0.930 . S
H283 C293 0.930 . S
C284 H278 0.930 . S
C284 C285 1.355 . S
C284 C286 1.415 . S
C285 C284 1.355 . S
C285 C287 1.419 . S
C286 C284 1.415 . S
C286 C291 1.425 . S
C286 C293 1.409 . S
C287 H279 0.930 . S
C287 C285 1.419 . S
C287 C288 1.362 . S
C288 H280 0.930 . S
C288 C287 1.362 . S
C288 C291 1.409 . S
C289 H281 0.930 . S
C289 C290 1.355 . S
C289 C291 1.415 . S
C290 C289 1.355 . S
C290 C292 1.419 . S
C291 C286 1.425 . S
C291 C288 1.409 . S
C291 C289 1.415 . S
C292 H282 0.930 . S
C292 C290 1.419 . S
C292 C293 1.362 . S
C293 H283 0.930 . S
C293 C286 1.409 . S
C293 C292 1.362 . S
H294 C300 0.930 . S
H295 C303 0.930 . S
H296 C304 0.930 . S
H297 C305 0.930 . S
H298 C308 0.930 . S
H299 C309 0.930 . S
C300 H294 0.930 . S
C300 C301 1.355 . S
C300 C302 1.415 . S
C301 C300 1.355 . S
C301 C303 1.419 . S
C302 C300 1.415 . S
C302 C307 1.425 . S
C302 C309 1.409 . S
C303 H295 0.930 . S
C303 C301 1.419 . S
C303 C304 1.362 . S
C304 H296 0.930 . S
C304 C303 1.362 . S
C304 C307 1.409 . S
C305 H297 0.930 . S
C305 C306 1.355 . S
C305 C307 1.415 . S
C306 C305 1.355 . S
C306 C308 1.419 . S
C307 C302 1.425 . S
C307 C304 1.409 . S
C307 C305 1.415 . S
C308 H298 0.930 . S
C308 C306 1.419 . S
C308 C309 1.362 . S
C309 H299 0.930 . S
C309 C302 1.409 . S
C309 C308 1.362 . S
H310 C316 0.930 . S
H311 C319 0.930 . S
H312 C320 0.930 . S
H313 C321 0.930 . S
H314 C324 0.930 . S
H315 C325 0.930 . S
C316 H310 0.930 . S
C316 C317 1.355 . S
C316 C318 1.415 . S
C317 C316 1.355 . S
C317 C319 1.419 . S
C318 C316 1.415 . S
C318 C323 1.425 . S
C318 C325 1.409 . S
C319 H311 0.930 . S
C319 C317 1.419 . S
C319 C320 1.362 . S
C320 H312 0.930 . S
C320 C319 1.362 . S
C320 C323 1.409 . S
C321 H313 0.930 . S
C321 C322 1.355 . S
C321 C323 1.415 . S
C322 C321 1.355 . S
C322 C324 1.419 . S
C323 C318 1.425 . S
C323 C320 1.409 . S
C323 C321 1.415 . S
C324 H314 0.930 . S
C324 C322 1.419 . S
C324 C325 1.362 . S
C325 H315 0.930 . S
C325 C318 1.409 . S
C325 C324 1.362 . S
H326 C332 0.930 . S
H327 C335 0.930 . S
H328 C336 0.930 . S
H329 C337 0.930 . S
H330 C340 0.930 . S
H331 C341 0.930 . S
C332 H326 0.930 . S
C332 C333 1.355 . S
C332 C334 1.415 . S
C333 C332 1.355 . S
C333 C335 1.419 . S
C334 C332 1.415 . S
C334 C339 1.425 . S
C334 C341 1.409 . S
C335 H327 0.930 . S
C335 C333 1.419 . S
C335 C336 1.362 . S
C336 H328 0.930 . S
C336 C335 1.362 . S
C336 C339 1.409 . S
C337 H329 0.930 . S
C337 C338 1.355 . S
C337 C339 1.415 . S
C338 C337 1.355 . S
C338 C340 1.419 . S
C339 C334 1.425 . S
C339 C336 1.409 . S
C339 C337 1.415 . S
C340 H330 0.930 . S
C340 C338 1.419 . S
C340 C341 1.362 . S
C341 H331 0.930 . S
C341 C334 1.409 . S
C341 C340 1.362 . S
H342 C348 0.930 . S
H343 C351 0.930 . S
H344 C352 0.930 . S
H345 C353 0.930 . S
H346 C356 0.930 . S
H347 C357 0.930 . S
C348 H342 0.930 . S
C348 C349 1.355 . S
C348 C350 1.415 . S
C349 C348 1.355 . S
C349 C351 1.419 . S
C350 C348 1.415 . S
C350 C355 1.425 . S
C350 C357 1.409 . S
C351 H343 0.930 . S
C351 C349 1.419 . S
C351 C352 1.362 . S
C352 H344 0.930 . S
C352 C351 1.362 . S
C352 C355 1.409 . S
C353 H345 0.930 . S
C353 C354 1.355 . S
C353 C355 1.415 . S
C354 C353 1.355 . S
C354 C356 1.419 . S
C355 C350 1.425 . S
C355 C352 1.409 . S
C355 C353 1.415 . S
C356 H346 0.930 . S
C356 C354 1.419 . S
C356 C357 1.362 . S
C357 H347 0.930 . S
C357 C350 1.409 . S
C357 C356 1.362 . S
H358 C364 0.930 . S
H359 C367 0.930 . S
H360 C368 0.930 . S
H361 C369 0.930 . S
H362 C372 0.930 . S
H363 C373 0.930 . S
C364 H358 0.930 . S
C364 C365 1.355 . S
C364 C366 1.415 . S
C365 C364 1.355 . S
C365 C367 1.419 . S
C366 C364 1.415 . S
C366 C371 1.425 . S
C366 C373 1.409 . S
C367 H359 0.930 . S
C367 C365 1.419 . S
C367 C368 1.362 . S
C368 H360 0.930 . S
C368 C367 1.362 . S
C368 C371 1.409 . S
C369 H361 0.930 . S
C369 C370 1.355 . S
C369 C371 1.415 . S
C370 C369 1.355 . S
C370 C372 1.419 . S
C371 C366 1.425 . S
C371 C368 1.409 . S
C371 C369 1.415 . S
C372 H362 0.930 . S
C372 C370 1.419 . S
C372 C373 1.362 . S
C373 H363 0.930 . S
C373 C366 1.409 . S
C373 C372 1.362 . S
H374 C380 0.930 . S
H375 C383 0.930 . S
H376 C384 0.930 . S
H377 C385 0.930 . S
H378 C388 0.930 . S
H379 C389 0.930 . S
C380 H374 0.930 . S
C380 C381 1.355 . S
C380 C382 1.415 . S
C381 C380 1.355 . S
C381 C383 1.419 . S
C382 C380 1.415 . S
C382 C387 1.425 . S
C382 C389 1.409 . S
C383 H375 0.930 . S
C383 C381 1.419 . S
C383 C384 1.362 . S
C384 H376 0.930 . S
C384 C383 1.362 . S
C384 C387 1.409 . S
C385 H377 0.930 . S
C385 C386 1.355 . S
C385 C387 1.415 . S
C386 C385 1.355 . S
C386 C388 1.419 . S
C387 C382 1.425 . S
C387 C384 1.409 . S
C387 C385 1.415 . S
C388 H378 0.930 . S
C388 C386 1.419 . S
C388 C389 1.362 . S
C389 H379 0.930 . S
C389 C382 1.409 . S
C389 C388 1.362 . S
H390 C396 0.924 1_655 S
H391 C399 0.930 . S
H392 C400 0.930 . S
H393 C401 0.930 . S
H394 C404 0.930 . S
H395 C405 0.930 1_554 S
C396 H390 0.924 1_455 S
C396 C397 1.355 . S
C396 C398 1.415 . S
C397 C396 1.355 . S
C397 C399 1.419 . S
C398 C396 1.415 . S
C398 C403 1.425 . S
C398 C405 1.409 1_554 S
C399 H391 0.930 . S
C399 C397 1.419 . S
C399 C400 1.362 . S
C400 H392 0.930 . S
C400 C399 1.362 . S
C400 C403 1.409 . S
C401 H393 0.930 . S
C401 C402 1.355 . S
C401 C403 1.415 1_556 S
C402 C401 1.355 . S
C402 C404 1.419 . S
C403 C398 1.425 . S
C403 C400 1.409 . S
C403 C401 1.415 1_554 S
C404 H394 0.930 . S
C404 C402 1.419 . S
C404 C405 1.362 . S
C405 H395 0.930 1_556 S
C405 C398 1.409 1_556 S
C405 C404 1.362 . S
H406 C412 0.930 . S
H407 C415 0.930 . S
H408 C416 0.930 . S
H409 C417 0.930 . S
H410 C420 0.930 . S
H411 C421 0.930 . S
C412 H406 0.930 . S
C412 C413 1.355 1_565 S
C412 C414 1.415 1_565 S
C413 C412 1.355 1_545 S
C413 C415 1.419 . S
C414 C412 1.415 1_545 S
C414 C419 1.425 . S
C414 C421 1.409 1_545 S
C415 H407 0.930 . S
C415 C413 1.419 . S
C415 C416 1.362 . S
C416 H408 0.930 . S
C416 C415 1.362 . S
C416 C419 1.409 . S
C417 H409 0.930 . S
C417 C418 1.355 . S
C417 C419 1.415 . S
C418 C417 1.355 . S
C418 C420 1.419 1_545 S
C419 C414 1.425 . S
C419 C416 1.409 . S
C419 C417 1.415 . S
C420 H410 0.930 . S
C420 C418 1.419 1_565 S
C420 C421 1.362 . S
C421 H411 0.930 . S
C421 C414 1.409 1_565 S
C421 C420 1.362 . S
H422 C428 0.930 . S
H423 C431 0.930 . S
H424 C432 0.930 . S
H425 C433 0.930 . S
H426 C436 0.930 . S
H427 C437 0.930 . S
C428 H422 0.930 . S
C428 C429 1.355 . S
C428 C430 1.415 . S
C429 C428 1.355 . S
C429 C431 1.419 . S
C430 C428 1.415 . S
C430 C435 1.425 . S
C430 C437 1.409 . S
C431 H423 0.930 . S
C431 C429 1.419 . S
C431 C432 1.362 . S
C432 H424 0.930 . S
C432 C431 1.362 . S
C432 C435 1.409 . S
C433 H425 0.930 . S
C433 C434 1.355 . S
C433 C435 1.415 . S
C434 C433 1.355 . S
C434 C436 1.419 . S
C435 C430 1.425 . S
C435 C432 1.409 . S
C435 C433 1.415 . S
C436 H426 0.930 . S
C436 C434 1.419 . S
C436 C437 1.362 . S
C437 H427 0.930 . S
C437 C430 1.409 . S
C437 C436 1.362 . S
H438 C444 0.930 . S
H439 C447 0.930 . S
H440 C448 0.930 . S
H441 C449 0.930 . S
H442 C452 0.930 . S
H443 C453 0.930 . S
C444 H438 0.930 . S
C444 C445 1.355 1_565 S
C444 C446 1.415 . S
C445 C444 1.355 1_545 S
C445 C447 1.419 . S
C446 C444 1.415 . S
C446 C451 1.425 1_565 S
C446 C453 1.409 . S
C447 H439 0.930 . S
C447 C445 1.419 . S
C447 C448 1.362 . S
C448 H440 0.930 . S
C448 C447 1.362 . S
C448 C451 1.409 . S
C449 H441 0.930 . S
C449 C450 1.355 . S
C449 C451 1.415 . S
C450 C449 1.355 . S
C450 C452 1.419 1_545 S
C451 C446 1.425 1_545 S
C451 C448 1.409 . S
C451 C449 1.415 . S
C452 H442 0.930 . S
C452 C450 1.419 1_565 S
C452 C453 1.362 . S
C453 H443 0.930 . S
C453 C446 1.409 . S
C453 C452 1.362 . S
H454 C460 0.930 . S
H455 C463 0.930 . S
H456 C464 0.930 . S
H457 C465 0.930 . S
H458 C468 0.930 . S
H459 C469 0.930 . S
C460 H454 0.930 . S
C460 C461 1.355 . S
C460 C462 1.415 . S
C461 C460 1.355 . S
C461 C463 1.419 . S
C462 C460 1.415 . S
C462 C467 1.425 . S
C462 C469 1.409 1_556 S
C463 H455 0.930 . S
C463 C461 1.419 . S
C463 C464 1.362 . S
C464 H456 0.930 . S
C464 C463 1.362 . S
C464 C467 1.409 . S
C465 H457 0.930 . S
C465 C466 1.355 . S
C465 C467 1.415 1_554 S
C466 C465 1.355 . S
C466 C468 1.419 . S
C467 C462 1.425 . S
C467 C464 1.409 . S
C467 C465 1.415 1_556 S
C468 H458 0.930 . S
C468 C466 1.419 . S
C468 C469 1.362 . S
C469 H459 0.930 . S
C469 C462 1.409 1_554 S
C469 C468 1.362 . S
H470 C476 0.930 . S
H471 C479 0.930 . S
H472 C480 0.930 . S
H473 C481 0.930 1_655 S
H474 C484 0.930 . S
H475 C485 0.930 . S
C476 H470 0.930 . S
C476 C477 1.365 . S
C476 C478 1.415 . S
C477 C476 1.365 . S
C477 C479 1.406 1_455 S
C478 C476 1.415 . S
C478 C483 1.425 . S
C478 C485 1.409 . S
C479 H471 0.930 . S
C479 C477 1.406 1_655 S
C479 C480 1.362 . S
C480 H472 0.930 . S
C480 C479 1.362 . S
C480 C483 1.409 1_655 S
C481 H473 0.930 1_455 S
C481 C482 1.355 . S
C481 C483 1.415 . S
C482 C481 1.355 . S
C482 C484 1.419 . S
C483 C478 1.425 . S
C483 C480 1.409 1_455 S
C483 C481 1.415 . S
C484 H474 0.930 . S
C484 C482 1.419 . S
C484 C485 1.362 . S
C485 H475 0.930 . S
C485 C478 1.409 . S
C485 C484 1.362 . S
C205 C24 2.797 . S
C210 N187 2.755 . S
C221 C66 1.108 . S
C226 N160 1.138 1_655 S
C237 C93 1.719 . S
C242 N173 1.760 1_565 S
C253 C13 3.284 . S
C258 N186 3.311 . S
C274 N161 1.398 . S
C269 C57 1.351 . S
C290 N174 1.968 . S
C285 C104 1.984 . S
C301 C64 1.840 . S
C306 N134 1.841 . S
C317 C97 0.423 . S
C322 N148 0.319 . S
C333 C17 1.404 . S
C338 N122 1.439 . S
C354 N135 1.849 . S
C349 C53 1.851 . S
C370 N147 0.570 . S
C365 C106 0.557 . S
C381 C26 1.233 . S
C386 N121 1.249 . S
C402 N151 1.190 . S
C397 C2 1.192 . S
C413 C63 1.540 . S
C418 N125 1.557 . S
C429 C82 1.454 . S
C434 N138 1.429 . S
C450 N177 1.557 . S
C445 C42 1.496 . S
C466 N190 1.745 . S
C461 C103 1.705 . S
C477 C23 1.496 . S
C482 N164 1.543 . S
