# Generated by pormake.
# Topology ssa, (4,4)-cn, num edge types: 1
# Building blocks:
#     Node 0, Type 0, BuildingBlock: GIZVER_clean_linker_0, # of connection points: 4
#     Node 1, Type 0, BuildingBlock: GIZVER_clean_linker_0, # of connection points: 4
#     Node 2, Type 0, BuildingBlock: GIZVER_clean_linker_0, # of connection points: 4
#     Node 3, Type 0, BuildingBlock: GIZVER_clean_linker_0, # of connection points: 4
#     Node 4, Type 0, BuildingBlock: GIZVER_clean_linker_0, # of connection points: 4
#     Node 5, Type 0, BuildingBlock: GIZVER_clean_linker_0, # of connection points: 4
#     Node 6, Type 1, BuildingBlock: MUDLON_clean_sbu_0, # of connection points: 4
#     Node 7, Type 1, BuildingBlock: MUDLON_clean_sbu_0, # of connection points: 4
#     Node 8, Type 1, BuildingBlock: MUDLON_clean_sbu_0, # of connection points: 4
#     Node 9, Type 1, BuildingBlock: MUDLON_clean_sbu_0, # of connection points: 4
#     Node 10, Type 1, BuildingBlock: MUDLON_clean_sbu_0, # of connection points: 4
#     Node 11, Type 1, BuildingBlock: MUDLON_clean_sbu_0, # of connection points: 4
#     Edge 12, Type (0, 1), BuildingBlock: MIFKUJ_clean_linker_0, # of connection points: 2
#     Edge 13, Type (0, 1), BuildingBlock: MIFKUJ_clean_linker_0, # of connection points: 2
#     Edge 14, Type (0, 1), BuildingBlock: MIFKUJ_clean_linker_0, # of connection points: 2
#     Edge 15, Type (0, 1), BuildingBlock: MIFKUJ_clean_linker_0, # of connection points: 2
#     Edge 16, Type (0, 1), BuildingBlock: MIFKUJ_clean_linker_0, # of connection points: 2
#     Edge 17, Type (0, 1), BuildingBlock: MIFKUJ_clean_linker_0, # of connection points: 2
#     Edge 18, Type (0, 1), BuildingBlock: MIFKUJ_clean_linker_0, # of connection points: 2
#     Edge 19, Type (0, 1), BuildingBlock: MIFKUJ_clean_linker_0, # of connection points: 2
#     Edge 20, Type (0, 1), BuildingBlock: MIFKUJ_clean_linker_0, # of connection points: 2
#     Edge 21, Type (0, 1), BuildingBlock: MIFKUJ_clean_linker_0, # of connection points: 2
#     Edge 22, Type (0, 1), BuildingBlock: MIFKUJ_clean_linker_0, # of connection points: 2
#     Edge 23, Type (0, 1), BuildingBlock: MIFKUJ_clean_linker_0, # of connection points: 2
#     Edge 24, Type (0, 1), BuildingBlock: MIFKUJ_clean_linker_0, # of connection points: 2
#     Edge 25, Type (0, 1), BuildingBlock: MIFKUJ_clean_linker_0, # of connection points: 2
#     Edge 26, Type (0, 1), BuildingBlock: MIFKUJ_clean_linker_0, # of connection points: 2
#     Edge 27, Type (0, 1), BuildingBlock: MIFKUJ_clean_linker_0, # of connection points: 2
#     Edge 28, Type (0, 1), BuildingBlock: MIFKUJ_clean_linker_0, # of connection points: 2
#     Edge 29, Type (0, 1), BuildingBlock: MIFKUJ_clean_linker_0, # of connection points: 2
#     Edge 30, Type (0, 1), BuildingBlock: MIFKUJ_clean_linker_0, # of connection points: 2
#     Edge 31, Type (0, 1), BuildingBlock: MIFKUJ_clean_linker_0, # of connection points: 2
#     Edge 32, Type (0, 1), BuildingBlock: MIFKUJ_clean_linker_0, # of connection points: 2
#     Edge 33, Type (0, 1), BuildingBlock: MIFKUJ_clean_linker_0, # of connection points: 2
#     Edge 34, Type (0, 1), BuildingBlock: MIFKUJ_clean_linker_0, # of connection points: 2
#     Edge 35, Type (0, 1), BuildingBlock: MIFKUJ_clean_linker_0, # of connection points: 2
# Relax obj value: 0.001
# Max RMSD: 0.030
# Mean RMSD: 0.018
data_MOF--net-ssa--node1-MUDLON_clean_sbu_0--node2-GIZVER_clean_linker_0--edge1-MIFKUJ_clean_linker_0
_symmetry_space_group_name_H-M    P1
_symmetry_Int_Tables_number       1
_symmetry_cell_setting            triclinic
loop_
_symmetry_equiv_pos_as_xyz
'x, y, z'
_cell_length_a     57.242941
_cell_length_b     57.367527
_cell_length_c     54.909016
_cell_angle_alpha  89.465119
_cell_angle_beta   90.379916
_cell_angle_gamma 120.07261
loop_
_atom_site_label
_atom_site_type_symbol
_atom_site_fract_x
_atom_site_fract_y
_atom_site_fract_z
_atom_type_partial_charge
H0 H 0.04231 0.54865 0.04248 0.0
H1 H 0.03411 0.46982 0.03918 0.0
H2 H 0.05359 0.51218 0.10688 0.0
H3 H 0.04866 0.52969 1.00378 0.0
H4 H 0.03957 0.49524 1.00211 0.0
H5 H 0.01622 0.54313 0.99347 0.0
H6 H 0.93836 0.48264 0.9681 0.0
H7 H 0.99059 0.45903 1.0035 0.0
C8 C 0.04143 0.53139 0.05161 0.0
C9 C 0.0478 0.53288 0.07656 0.0
C10 C 0.03578 0.50843 0.038 0.0
C11 C 0.03673 0.48687 0.0497 0.0
C12 C 0.04258 0.48801 0.07473 0.0
C13 C 0.04742 0.51073 0.08797 0.0
C14 C 0.03374 0.50918 1.01048 0.0
C15 C 0.00583 0.50191 1.00138 0.0
C16 C 1.00066 0.52211 0.9925 0.0
C17 C 0.97605 0.51505 0.98088 0.0
C18 C 0.95653 0.48787 0.97847 0.0
C19 C 0.96163 0.46749 0.98623 0.0
C20 C 0.98612 0.47462 0.99817 0.0
H21 H 0.53766 0.01546 0.55802 0.0
H22 H 0.45418 0.99006 0.57235 0.0
H23 H 0.51662 0.06879 0.59355 0.0
H24 H 0.50303 0.96755 0.55945 0.0
H25 H 0.46828 0.95695 0.56394 0.0
H26 H 0.51081 0.95505 0.52101 0.0
H27 H 0.46087 0.94766 0.45955 0.0
H28 H 0.44667 0.97336 0.5281 0.0
C29 C 0.52239 0.01999 0.56407 0.0
C30 C 0.53035 0.04494 0.57504 0.0
C31 C 0.49482 1.00019 0.56238 0.0
C32 C 0.47527 0.00563 0.57212 0.0
C33 C 0.48321 0.03044 0.58328 0.0
C34 C 0.51057 0.0501 0.58401 0.0
C35 C 0.48682 0.97196 0.55419 0.0
C36 C 0.48132 0.96763 0.52708 0.0
C37 C 0.49525 0.95805 0.51279 0.0
C38 C 0.48744 0.95011 0.48852 0.0
C39 C 0.467 0.95369 0.47826 0.0
C40 C 0.45198 0.96157 0.49239 0.0
C41 C 0.45911 0.96853 0.51684 0.0
H42 H 0.53864 0.55487 0.04037 0.0
H43 H 0.46882 0.47652 0.05281 0.0
H44 H 0.46788 0.5474 0.07472 0.0
H45 H 0.54181 0.51346 0.04048 0.0
H46 H 0.5127 0.48116 0.04471 0.0
H47 H 0.55877 0.52775 1.00072 0.0
H48 H 0.51639 0.47759 0.93987 0.0
H49 H 0.47791 0.46084 1.00975 0.0
C50 C 0.51778 0.54256 0.04596 0.0
C51 C 0.50443 0.55477 0.05689 0.0
C52 C 0.50471 0.51424 0.04364 0.0
C53 C 0.47836 0.4983 0.05285 0.0
C54 C 0.46512 0.51045 0.0637 0.0
C55 C 0.47786 0.53846 0.06496 0.0
C56 C 0.52021 0.50085 0.03521 0.0
C57 C 0.51795 0.49594 1.00803 0.0
C58 C 0.54045 0.51144 0.99297 0.0
C59 C 0.54001 0.50492 0.9683 0.0
C60 C 0.5164 0.48349 0.95857 0.0
C61 C 0.49393 0.46744 0.97325 0.0
C62 C 0.49475 0.47376 0.99805 0.0
H63 H 0.98496 0.55076 0.54209 0.0
H64 H 0.01055 0.49211 0.55135 0.0
H65 H 0.9288 0.47076 0.56695 0.0
H66 H 0.03306 0.56471 0.54601 0.0
H67 H 0.04377 0.54049 0.54801 0.0
H68 H 0.0294 0.58259 0.50653 0.0
H69 H 0.05861 0.56069 0.44384 0.0
H70 H 0.04624 0.51721 0.51092 0.0
C71 C 0.98022 0.53027 0.54583 0.0
C72 C 0.95423 0.51123 0.55386 0.0
C73 C 1.00059 0.52339 0.54415 0.0
C74 C 0.9947 0.4972 0.55118 0.0
C75 C 0.96856 0.47798 0.55898 0.0
C76 C 0.94848 0.48507 0.55961 0.0
C77 C 0.02932 0.54516 0.53856 0.0
C78 C 0.03554 0.54845 0.51154 0.0
C79 C 0.03512 0.5693 0.49788 0.0
C80 C 0.04312 0.57356 0.47326 0.0
C81 C 0.05127 0.55679 0.46246 0.0
C82 C 0.05266 0.53674 0.47591 0.0
C83 C 0.04456 0.53237 0.50036 0.0
H84 H 0.55738 0.99958 0.03786 0.0
H85 H 0.47494 0.98234 0.03412 0.0
H86 H 0.50804 0.97487 0.10212 0.0
H87 H 0.52645 0.98141 0.99927 0.0
H88 H 0.49864 0.98696 0.99725 0.0
H89 H 0.57192 0.01748 0.99078 0.0
H90 H 0.58109 0.0913 0.96199 0.0
H91 H 0.50637 0.03388 0.99604 0.0
C92 C 0.53871 0.99486 0.04687 0.0
C93 C 0.53571 0.98873 0.07189 0.0
C94 C 0.51708 0.99322 0.0331 0.0
C95 C 0.4922 0.98522 0.04475 0.0
C96 C 0.48886 0.97848 0.06968 0.0
C97 C 0.5109 0.98098 0.0831 0.0
C98 C 0.51899 0.9949 1.00556 0.0
C99 C 0.53751 0.0231 0.99587 0.0
C100 C 0.56406 0.03105 0.98837 0.0
C101 C 0.5799 0.05593 0.97654 0.0
C102 C 0.56924 0.07286 0.97235 0.0
C103 C 0.5427 0.06508 0.97902 0.0
C104 C 0.5271 0.04036 0.99125 0.0
H105 H 0.58971 0.54265 0.52237 0.0
H106 H 0.51663 0.46598 0.53094 0.0
H107 H 0.56629 0.50529 0.59303 0.0
H108 H 0.56781 0.51201 0.48723 0.0
H109 H 0.53692 0.48114 0.49099 0.0
H110 H 0.56766 0.55608 0.48786 0.0
H111 H 0.49748 0.5503 0.45286 0.0
H112 H 0.49488 0.47911 0.48125 0.0
C113 C 0.57514 0.52667 0.53401 0.0
C114 C 0.58033 0.52714 0.55918 0.0
C115 C 0.55171 0.50497 0.52371 0.0
C116 C 0.53388 0.48342 0.53882 0.0
C117 C 0.53901 0.4837 0.56387 0.0
C118 C 0.56179 0.50582 0.57387 0.0
C119 C 0.54779 0.50272 0.49634 0.0
C120 C 0.53266 0.51627 0.48666 0.0
C121 C 0.54662 0.54428 0.48258 0.0
C122 C 0.53411 0.55684 0.47045 0.0
C123 C 0.50697 0.54111 0.46325 0.0
C124 C 0.4926 0.51316 0.46712 0.0
C125 C 0.50556 0.50081 0.47889 0.0
Mg126 Mg 0.23523 0.45644 0.28352 0.0
C127 C 0.19906 0.44851 0.24305 0.0
O128 O 0.21797 0.47402 0.24271 0.0
C129 C 0.26939 0.43452 0.30636 0.0
O130 O 0.27702 0.43583 0.28365 0.0
C131 C 0.19802 0.46699 0.3106 0.0
O132 O 0.18361 0.44205 0.30301 0.0
O133 O 0.2229 0.48039 0.30484 0.0
O134 O 0.20004 0.43317 0.25952 0.0
O135 O 0.26877 0.47763 0.2581 0.0
C136 C 0.26675 0.46373 0.23941 0.0
O137 O 0.24591 0.43932 0.23743 0.0
O138 O 0.25005 0.43877 0.311 0.0
Mg139 Mg 0.79012 0.24188 0.76481 0.0
C140 C 0.73891 0.20254 0.74049 0.0
O141 O 0.74603 0.18699 0.75217 0.0
C142 C 0.82567 0.29075 0.79288 0.0
O143 O 0.8425 0.28651 0.78013 0.0
C144 C 0.78799 0.21211 0.81215 0.0
O145 O 0.80422 0.23679 0.81962 0.0
O146 O 0.78175 0.20821 0.78964 0.0
O147 O 0.75323 0.22796 0.74313 0.0
O148 O 0.82355 0.25708 0.73844 0.0
C149 C 0.81872 0.25584 0.71565 0.0
O150 O 0.79364 0.2414 0.70813 0.0
O151 O 0.80043 0.27556 0.78929 0.0
Mg152 Mg 0.57147 0.79208 0.27133 0.0
C153 C 0.57724 0.82597 0.23028 0.0
O154 O 0.55331 0.80424 0.2289 0.0
C155 C 0.57525 0.75537 0.30334 0.0
O156 O 0.55021 0.74526 0.29577 0.0
C157 C 0.54696 0.82175 0.29708 0.0
O158 O 0.55755 0.8382 0.27843 0.0
O159 O 0.54739 0.79976 0.29745 0.0
O160 O 0.59258 0.82781 0.24798 0.0
O161 O 0.55163 0.75872 0.24539 0.0
C162 C 0.56838 0.75291 0.23603 0.0
O163 O 0.59358 0.76613 0.24352 0.0
O164 O 0.59282 0.77861 0.29552 0.0
Mg165 Mg 0.79212 0.55996 0.77043 0.0
C166 C 0.767 0.58748 0.74245 0.0
O167 O 0.7515 0.57946 0.76183 0.0
C168 C 0.84631 0.57575 0.79402 0.0
O169 O 0.84898 0.56527 0.77379 0.0
C170 C 0.75553 0.53852 0.81449 0.0
O171 O 0.77844 0.54402 0.82493 0.0
O172 O 0.75494 0.54139 0.79154 0.0
O173 O 0.78789 0.585 0.74233 0.0
O174 O 0.79818 0.5321 0.7487 0.0
C175 C 0.7855 0.52389 0.72865 0.0
O176 O 0.76585 0.52878 0.72376 0.0
O177 O 0.82567 0.57842 0.79653 0.0
Mg178 Mg 0.23347 0.79365 0.26885 0.0
C179 C 0.21778 0.75649 0.2267 0.0
O180 O 0.22254 0.77917 0.21638 0.0
C181 C 0.27462 0.83081 0.30245 0.0
O182 O 0.26899 0.84597 0.28835 0.0
C183 C 0.17546 0.76253 0.28611 0.0
O184 O 0.17317 0.74928 0.26604 0.0
O185 O 0.19726 0.7847 0.28978 0.0
O186 O 0.22214 0.75621 0.24947 0.0
O187 O 0.25367 0.82608 0.24138 0.0
C188 C 0.27495 0.82641 0.23401 0.0
O189 O 0.28091 0.80904 0.24381 0.0
O190 O 0.26305 0.80565 0.29821 0.0
Mg191 Mg 0.45119 0.2333 0.77658 0.0
C192 C 0.44854 0.19991 0.73762 0.0
O193 O 0.47377 0.21861 0.74143 0.0
C194 C 0.44868 0.26028 0.81922 0.0
O195 O 0.47344 0.2648 0.81687 0.0
C196 C 0.46013 0.19649 0.80694 0.0
O197 O 0.43483 0.1824 0.79987 0.0
O198 O 0.47438 0.22046 0.79893 0.0
O199 O 0.4304 0.20014 0.7508 0.0
O200 O 0.47416 0.26866 0.75334 0.0
C201 C 0.46567 0.28533 0.75171 0.0
O202 O 0.44534 0.2816 0.7654 0.0
O203 O 0.43108 0.2451 0.80366 0.0
H204 H 0.08348 0.4787 0.06459 0.0
H205 H 0.10229 0.45858 0.09207 0.0
H206 H 0.03498 0.43423 0.14085 0.0
H207 H 0.01699 0.4557 0.11379 0.0
H208 H 0.07723 0.45888 0.16567 0.0
H209 H 0.04953 0.3877 0.10927 0.0
H210 H 0.04352 0.36599 0.06939 0.0
H211 H 0.12949 0.40387 0.06124 0.0
H212 H 0.13605 0.42613 0.10092 0.0
H213 H 0.14437 0.41506 0.24851 0.0
H214 H 0.1093 0.40796 0.2184 0.0
H215 H 0.17106 0.45412 0.16537 0.0
H216 H 0.20584 0.46162 0.19534 0.0
H217 H 0.12422 0.40885 0.14506 0.0
H218 H 0.14953 0.48594 0.19808 0.0
H219 H 0.15505 0.50682 0.23835 0.0
H220 H 0.07069 0.45463 0.25295 0.0
H221 H 0.06479 0.43318 0.21285 0.0
C222 C 0.07216 0.46805 0.08067 0.0
C223 C 0.04862 0.46843 0.08692 0.0
C224 C 0.08294 0.45653 0.09648 0.0
C225 C 0.07008 0.44463 0.11867 0.0
C226 C 0.04542 0.44329 0.12397 0.0
C227 C 0.03493 0.45526 0.10837 0.0
C228 C 0.08406 0.43693 0.13754 0.0
C229 C 0.08678 0.44724 0.1612 0.0
C230 C 0.09707 0.42212 0.13192 0.0
C231 C 0.09327 0.40871 0.10805 0.0
C232 C 0.06716 0.39155 0.09891 0.0
C233 C 0.06366 0.37912 0.07634 0.0
C234 C 0.08611 0.38357 0.06277 0.0
C235 C 0.11212 0.40043 0.07177 0.0
C236 C 0.11574 0.41293 0.09432 0.0
C237 C 0.15031 0.42295 0.2302 0.0
C238 C 0.17774 0.4389 0.2242 0.0
C239 C 0.13033 0.41901 0.21306 0.0
C240 C 0.13758 0.43064 0.18965 0.0
C241 C 0.16496 0.44488 0.18323 0.0
C242 C 0.18482 0.44923 0.20041 0.0
C243 C 0.11737 0.43105 0.17271 0.0
C244 C 0.1138 0.41968 0.14949 0.0
C245 C 0.10331 0.44462 0.17872 0.0
C246 C 0.10679 0.45774 0.20264 0.0
C247 C 0.13222 0.47879 0.20996 0.0
C248 C 0.13541 0.49074 0.23274 0.0
C249 C 0.11326 0.48199 0.24824 0.0
C250 C 0.08785 0.46134 0.24095 0.0
C251 C 0.08456 0.44928 0.21821 0.0
H252 H 0.11577 0.49126 0.26587 0.0
H253 H 0.08335 0.37394 0.0453 0.0
H254 H 0.56363 0.03342 0.60127 0.0
H255 H 0.60311 0.06574 0.62455 0.0
H256 H 0.59986 0.13148 0.58927 0.0
H257 H 0.55994 0.09913 0.56619 0.0
H258 H 0.65671 0.13852 0.60348 0.0
H259 H 0.56982 0.12 0.63357 0.0
H260 H 0.52183 0.08948 0.64331 0.0
H261 H 0.54392 0.04668 0.69443 0.0
H262 H 0.59206 0.07664 0.68456 0.0
H263 H 0.72726 0.22734 0.70297 0.0
H264 H 0.6935 0.20525 0.6706 0.0
H265 H 0.66711 0.12806 0.70486 0.0
H266 H 0.70033 0.14984 0.73712 0.0
H267 H 0.62468 0.13189 0.68848 0.0
H268 H 0.71167 0.15024 0.65751 0.0
H269 H 0.75957 0.18026 0.64702 0.0
H270 H 0.7374 0.22421 0.59734 0.0
H271 H 0.68937 0.19464 0.60781 0.0
C272 C 0.57209 0.05474 0.5976 0.0
C273 C 0.55877 0.0638 0.58194 0.0
C274 C 0.59455 0.07319 0.61102 0.0
C275 C 0.6042 0.10094 0.60873 0.0
C276 C 0.59276 0.11015 0.59118 0.0
C277 C 0.57002 0.09168 0.578 0.0
C278 C 0.62259 0.11948 0.62758 0.0
C279 C 0.64971 0.13747 0.62198 0.0
C280 C 0.61335 0.118 0.65168 0.0
C281 C 0.58451 0.10038 0.65815 0.0
C282 C 0.56442 0.10393 0.64673 0.0
C283 C 0.5372 0.08676 0.65228 0.0
C284 C 0.52982 0.06612 0.66944 0.0
C285 C 0.54967 0.06266 0.68112 0.0
C286 C 0.57693 0.07974 0.67555 0.0
C287 C 0.71393 0.20573 0.70378 0.0
C288 C 0.71656 0.19032 0.72254 0.0
C289 C 0.69479 0.19311 0.68519 0.0
C290 C 0.678 0.16494 0.68514 0.0
C291 C 0.67984 0.14979 0.70447 0.0
C292 C 0.69895 0.1623 0.72288 0.0
C293 C 0.65916 0.15075 0.66464 0.0
C294 C 0.63177 0.1334 0.66994 0.0
C295 C 0.6682 0.15303 0.64028 0.0
C296 C 0.69698 0.17043 0.63363 0.0
C297 C 0.71703 0.1664 0.64445 0.0
C298 C 0.7442 0.18332 0.63851 0.0
C299 C 0.75153 0.20418 0.62158 0.0
C300 C 0.73169 0.20808 0.61048 0.0
C301 C 0.7045 0.19124 0.6164 0.0
H302 H 0.77257 0.21729 0.61703 0.0
H303 H 0.50874 0.05285 0.67374 0.0
H304 H 0.55248 0.58198 0.08114 0.0
H305 H 0.56639 0.62158 0.10673 0.0
H306 H 0.50109 0.63046 0.07779 0.0
H307 H 0.48754 0.5914 0.05171 0.0
H308 H 0.57652 0.67798 0.10203 0.0
H309 H 0.46548 0.62872 0.13055 0.0
H310 H 0.42407 0.58405 0.12932 0.0
H311 H 0.47183 0.54555 0.13313 0.0
H312 H 0.51339 0.58989 0.135 0.0
H313 H 0.52248 0.73021 0.20745 0.0
H314 H 0.51308 0.70066 0.17216 0.0
H315 H 0.58775 0.70111 0.18481 0.0
H316 H 0.59743 0.73076 0.21943 0.0
H317 H 0.50631 0.65125 0.16579 0.0
H318 H 0.61755 0.70158 0.13251 0.0
H319 H 0.6586 0.74644 0.13242 0.0
H320 H 0.61002 0.78395 0.1369 0.0
H321 H 0.56868 0.73935 0.13665 0.0
C322 C 0.54199 0.59321 0.07925 0.0
C323 C 0.51873 0.5834 0.06462 0.0
C324 C 0.54982 0.61573 0.09405 0.0
C325 C 0.53437 0.62852 0.09451 0.0
C326 C 0.51308 0.62066 0.07788 0.0
C327 C 0.50544 0.59841 0.06293 0.0
C328 C 0.53775 0.64696 0.11472 0.0
C329 C 0.56132 0.67214 0.11608 0.0
C330 C 0.51752 0.63948 0.13269 0.0
C331 C 0.49256 0.61266 0.13256 0.0
C332 C 0.46711 0.61072 0.13127 0.0
C333 C 0.44362 0.58545 0.13046 0.0
C334 C 0.44535 0.562 0.13102 0.0
C335 C 0.47053 0.56373 0.13259 0.0
C336 C 0.49405 0.58892 0.13353 0.0
C337 C 0.53675 0.72383 0.20275 0.0
C338 C 0.56082 0.73306 0.21611 0.0
C339 C 0.5314 0.70699 0.18258 0.0
C340 C 0.55001 0.69914 0.17545 0.0
C341 C 0.57342 0.70744 0.18947 0.0
C342 C 0.57885 0.72432 0.20941 0.0
C343 C 0.54534 0.6824 0.15339 0.0
C344 C 0.52146 0.65738 0.15166 0.0
C345 C 0.56525 0.69012 0.135 0.0
C346 C 0.59002 0.71708 0.13477 0.0
C347 C 0.61562 0.7194 0.13335 0.0
C348 C 0.63894 0.74479 0.13338 0.0
C349 C 0.63692 0.76803 0.13472 0.0
C350 C 0.61157 0.76593 0.13594 0.0
C351 C 0.58818 0.7406 0.13589 0.0
H352 H 0.655 0.78766 0.13477 0.0
H353 H 0.42719 0.54249 0.13034 0.0
H354 H 0.96225 0.55045 0.5856 0.0
H355 H 0.92702 0.55178 0.60948 0.0
H356 H 0.86593 0.48978 0.5645 0.0
H357 H 0.90114 0.48802 0.54074 0.0
H358 H 0.86476 0.54543 0.59302 0.0
H359 H 0.85755 0.45398 0.59886 0.0
H360 H 0.88138 0.42806 0.59875 0.0
H361 H 0.93377 0.47781 0.65586 0.0
H362 H 0.91038 0.50418 0.65606 0.0
H363 H 0.76416 0.50539 0.68361 0.0
H364 H 0.78715 0.49998 0.64852 0.0
H365 H 0.85602 0.51831 0.69388 0.0
H366 H 0.83295 0.52315 0.72898 0.0
H367 H 0.84906 0.48158 0.6611 0.0
H368 H 0.85045 0.56672 0.6609 0.0
H369 H 0.82897 0.59477 0.66096 0.0
H370 H 0.79056 0.56091 0.59264 0.0
H371 H 0.81115 0.53203 0.59253 0.0
C372 C 0.94139 0.53812 0.57999 0.0
C373 C 0.93437 0.51911 0.56137 0.0
C374 C 0.92128 0.53879 0.59373 0.0
C375 C 0.89397 0.52074 0.58879 0.0
C376 C 0.88693 0.50391 0.56847 0.0
C377 C 0.90703 0.50298 0.5549 0.0
C378 C 0.87362 0.51578 0.60759 0.0
C379 C 0.86078 0.5311 0.60767 0.0
C380 C 0.86896 0.49745 0.62682 0.0
C381 C 0.88233 0.48104 0.62741 0.0
C382 C 0.87417 0.45937 0.61136 0.0
C383 C 0.88759 0.44462 0.61126 0.0
C384 C 0.90909 0.4513 0.62727 0.0
C385 C 0.91712 0.47267 0.64346 0.0
C386 C 0.90378 0.48749 0.6436 0.0
C387 C 0.78395 0.50768 0.68617 0.0
C388 C 0.79686 0.5151 0.70896 0.0
C389 C 0.79712 0.5047 0.6661 0.0
C390 C 0.82359 0.5094 0.66843 0.0
C391 C 0.83568 0.51475 0.69159 0.0
C392 C 0.82244 0.51753 0.71167 0.0
C393 C 0.83968 0.51108 0.64667 0.0
C394 C 0.85221 0.49539 0.64619 0.0
C395 C 0.84392 0.5291 0.62706 0.0
C396 C 0.83209 0.54697 0.62685 0.0
C397 C 0.83726 0.5651 0.64598 0.0
C398 C 0.82521 0.58112 0.64604 0.0
C399 C 0.80832 0.57953 0.62687 0.0
C400 C 0.80357 0.56204 0.60752 0.0
C401 C 0.81536 0.54578 0.60748 0.0
H402 H 0.79897 0.59191 0.62695 0.0
H403 H 0.91948 0.43991 0.62715 0.0
H404 H 0.46326 0.92826 0.08857 0.0
H405 H 0.42148 0.90619 0.11195 0.0
H406 H 0.41109 0.97497 0.10047 0.0
H407 H 0.45379 0.99754 0.07731 0.0
H408 H 0.40199 0.95799 0.1481 0.0
H409 H 0.36953 0.91647 0.07151 0.0
H410 H 0.36922 0.8939 0.03342 0.0
H411 H 0.36285 0.82683 0.07438 0.0
H412 H 0.36352 0.84916 0.11274 0.0
H413 H 0.2763 0.87157 0.21366 0.0
H414 H 0.30682 0.90105 0.1813 0.0
H415 H 0.34306 0.85097 0.17731 0.0
H416 H 0.31321 0.82195 0.20916 0.0
H417 H 0.33183 0.86326 0.13208 0.0
H418 H 0.37357 0.90972 0.20791 0.0
H419 H 0.37454 0.93247 0.24611 0.0
H420 H 0.36268 0.99027 0.20584 0.0
H421 H 0.3613 0.96761 0.16741 0.0
C422 C 0.452 0.93863 0.09096 0.0
C423 C 0.46178 0.96462 0.08128 0.0
C424 C 0.42799 0.92593 0.10416 0.0
C425 C 0.41286 0.93873 0.10782 0.0
C426 C 0.42234 0.96463 0.09783 0.0
C427 C 0.44656 0.97743 0.08448 0.0
C428 C 0.38783 0.92504 0.1229 0.0
C429 C 0.38627 0.93752 0.14426 0.0
C430 C 0.3673 0.89824 0.11808 0.0
C431 C 0.36667 0.88457 0.09503 0.0
C432 C 0.36822 0.89698 0.07241 0.0
C433 C 0.36796 0.88422 0.05077 0.0
C434 C 0.36604 0.85896 0.05148 0.0
C435 C 0.36432 0.84639 0.07385 0.0
C436 C 0.36459 0.85908 0.09555 0.0
C437 C 0.29073 0.86688 0.20577 0.0
C438 C 0.29233 0.84443 0.21411 0.0
C439 C 0.3082 0.88375 0.18734 0.0
C440 C 0.3273 0.87824 0.17686 0.0
C441 C 0.32849 0.85563 0.18498 0.0
C442 C 0.3114 0.83908 0.20337 0.0
C443 C 0.34664 0.89581 0.15769 0.0
C444 C 0.34713 0.884 0.13555 0.0
C445 C 0.36607 0.92318 0.16179 0.0
C446 C 0.36697 0.93678 0.18485 0.0
C447 C 0.37093 0.92714 0.20723 0.0
C448 C 0.3716 0.94004 0.22892 0.0
C449 C 0.36857 0.96274 0.22842 0.0
C450 C 0.36495 0.97264 0.20621 0.0
C451 C 0.36423 0.95978 0.18448 0.0
H452 H 0.3691 0.97271 0.24522 0.0
H453 H 0.36585 0.84912 0.0347 0.0
H454 H 0.53194 0.43369 0.55743 0.0
H455 H 0.51742 0.39806 0.58826 0.0
H456 H 0.49765 0.44436 0.63686 0.0
H457 H 0.51324 0.48044 0.60633 0.0
H458 H 0.52795 0.43035 0.65956 0.0
H459 H 0.44877 0.38227 0.61026 0.0
H460 H 0.42271 0.36253 0.57266 0.0
H461 H 0.45798 0.31213 0.56627 0.0
H462 H 0.48454 0.33184 0.60367 0.0
H463 H 0.45992 0.32957 0.75012 0.0
H464 H 0.47196 0.36218 0.7169 0.0
H465 H 0.50567 0.32172 0.6768 0.0
H466 H 0.4938 0.28894 0.71021 0.0
H467 H 0.46919 0.33173 0.64947 0.0
H468 H 0.54747 0.38005 0.70014 0.0
H469 H 0.5719 0.3995 0.73851 0.0
H470 H 0.53584 0.44936 0.74297 0.0
H471 H 0.51089 0.42992 0.70478 0.0
C472 C 0.52359 0.43577 0.57439 0.0
C473 C 0.52348 0.45964 0.5795 0.0
C474 C 0.51536 0.41543 0.59206 0.0
C475 C 0.50638 0.41842 0.61498 0.0
C476 C 0.50463 0.4416 0.61942 0.0
C477 C 0.51326 0.46208 0.60191 0.0
C478 C 0.50134 0.39883 0.63508 0.0
C479 C 0.51472 0.40883 0.6574 0.0
C480 C 0.48479 0.37063 0.63215 0.0
C481 C 0.46885 0.35874 0.60965 0.0
C482 C 0.45114 0.36714 0.60073 0.0
C483 C 0.43624 0.35592 0.57948 0.0
C484 C 0.43874 0.33614 0.56705 0.0
C485 C 0.45609 0.32748 0.5759 0.0
C486 C 0.47105 0.33865 0.59714 0.0
C487 C 0.47021 0.32778 0.73438 0.0
C488 C 0.47595 0.3067 0.73279 0.0
C489 C 0.47709 0.34645 0.71541 0.0
C490 C 0.4897 0.34436 0.6944 0.0
C491 C 0.49591 0.32364 0.69288 0.0
C492 C 0.48932 0.30508 0.71203 0.0
C493 C 0.4955 0.3634 0.67381 0.0
C494 C 0.48237 0.35329 0.65147 0.0
C495 C 0.51203 0.39153 0.67676 0.0
C496 C 0.52711 0.40334 0.69969 0.0
C497 C 0.54457 0.395 0.7094 0.0
C498 C 0.55855 0.40606 0.7311 0.0
C499 C 0.55538 0.42561 0.7432 0.0
C500 C 0.53826 0.43419 0.73359 0.0
C501 C 0.52422 0.42318 0.7119 0.0
H502 H 0.56622 0.43414 0.76 0.0
H503 H 0.42719 0.32748 0.5506 0.0
H504 H 0.45669 0.90403 0.46349 0.0
H505 H 0.47109 0.88118 0.43579 0.0
H506 H 0.55429 0.93604 0.45466 0.0
H507 H 0.53974 0.96047 0.48166 0.0
H508 H 0.55139 0.93041 0.40841 0.0
H509 H 0.51974 0.86652 0.47213 0.0
H510 H 0.48925 0.83718 0.50449 0.0
H511 H 0.42778 0.79267 0.45129 0.0
H512 H 0.45775 0.82195 0.41862 0.0
H513 H 0.54426 0.80444 0.34422 0.0
H514 H 0.53885 0.82497 0.38102 0.0
H515 H 0.52679 0.88062 0.33671 0.0
H516 H 0.53345 0.86099 0.29998 0.0
H517 H 0.50284 0.83084 0.40133 0.0
H518 H 0.55046 0.94037 0.36233 0.0
H519 H 0.5858 0.96959 0.33304 0.0
H520 H 0.62463 0.92264 0.3427 0.0
H521 H 0.58975 0.89337 0.3723 0.0
C522 C 0.47813 0.91139 0.4618 0.0
C523 C 0.49712 0.93447 0.47445 0.0
C524 C 0.48635 0.89793 0.44616 0.0
C525 C 0.51381 0.90649 0.44325 0.0
C526 C 0.53295 0.92896 0.45659 0.0
C527 C 0.52466 0.9428 0.47215 0.0
C528 C 0.52204 0.89288 0.42494 0.0
C529 C 0.54095 0.90864 0.40704 0.0
C530 C 0.50912 0.86441 0.42337 0.0
C531 C 0.49101 0.84653 0.44292 0.0
C532 C 0.49967 0.85056 0.46733 0.0
C533 C 0.48248 0.83393 0.48574 0.0
C534 C 0.45659 0.81309 0.47995 0.0
C535 C 0.44785 0.8088 0.45574 0.0
C536 C 0.46496 0.82538 0.43726 0.0
C537 C 0.54016 0.82087 0.34232 0.0
C538 C 0.53944 0.8312 0.31916 0.0
C539 C 0.53716 0.83268 0.36341 0.0
C540 C 0.53311 0.85488 0.3618 0.0
C541 C 0.53082 0.86414 0.33859 0.0
C542 C 0.53431 0.85269 0.31754 0.0
C543 C 0.53125 0.8684 0.38424 0.0
C544 C 0.51358 0.85261 0.4029 0.0
C545 C 0.54608 0.8968 0.38697 0.0
C546 C 0.56735 0.91455 0.36941 0.0
C547 C 0.56661 0.93637 0.35831 0.0
C548 C 0.58655 0.95292 0.34163 0.0
C549 C 0.60741 0.94793 0.33597 0.0
C550 C 0.60842 0.92643 0.34704 0.0
C551 C 0.58855 0.90983 0.36376 0.0
H552 H 0.6228 0.96076 0.32303 0.0
H553 H 0.4433 0.80024 0.49423 0.0
H554 H 0.58976 0.51382 0.98188 0.0
H555 H 0.62747 0.52337 0.95509 0.0
H556 H 0.58411 0.5312 0.89396 0.0
H557 H 0.54627 0.52164 0.92071 0.0
H558 H 0.60045 0.49577 0.88477 0.0
H559 H 0.64138 0.58552 0.91533 0.0
H560 H 0.65727 0.62081 0.94663 0.0
H561 H 0.7111 0.59552 0.97518 0.0
H562 H 0.69527 0.55981 0.94426 0.0
H563 H 0.70809 0.53511 0.7997 0.0
H564 H 0.67177 0.53157 0.82545 0.0
H565 H 0.71322 0.52614 0.88927 0.0
H566 H 0.74986 0.53021 0.8637 0.0
H567 H 0.69765 0.56184 0.8961 0.0
H568 H 0.65555 0.47123 0.86602 0.0
H569 H 0.63897 0.43552 0.83508 0.0
H570 H 0.58654 0.4622 0.80574 0.0
H571 H 0.6031 0.49834 0.8363 0.0
C572 C 0.58864 0.51853 0.96291 0.0
C573 C 0.56502 0.51697 0.95342 0.0
C574 C 0.61017 0.52385 0.94756 0.0
C575 C 0.60859 0.52791 0.92248 0.0
C576 C 0.58571 0.52797 0.91323 0.0
C577 C 0.56416 0.52262 0.92854 0.0
C578 C 0.62962 0.52961 0.90565 0.0
C579 C 0.62166 0.51057 0.88694 0.0
C580 C 0.65736 0.54836 0.90896 0.0
C581 C 0.66695 0.56982 0.92759 0.0
C582 C 0.65644 0.58733 0.92841 0.0
C583 C 0.66547 0.60744 0.94606 0.0
C584 C 0.68513 0.61036 0.96292 0.0
C585 C 0.69585 0.59321 0.96213 0.0
C586 C 0.68688 0.57305 0.94452 0.0
C587 C 0.70931 0.53277 0.81919 0.0
C588 C 0.73192 0.53298 0.82964 0.0
C589 C 0.68848 0.53071 0.8339 0.0
C590 C 0.68968 0.52849 0.85933 0.0
C591 C 0.71189 0.52794 0.86971 0.0
C592 C 0.73277 0.53014 0.85504 0.0
C593 C 0.66847 0.52794 0.87522 0.0
C594 C 0.67641 0.54717 0.8938 0.0
C595 C 0.64067 0.50935 0.87178 0.0
C596 C 0.63084 0.48773 0.85327 0.0
C597 C 0.64069 0.46967 0.85282 0.0
C598 C 0.63125 0.44931 0.83538 0.0
C599 C 0.61179 0.44666 0.8184 0.0
C600 C 0.60167 0.46432 0.81887 0.0
C601 C 0.61107 0.48474 0.83625 0.0
H602 H 0.60449 0.43087 0.80492 0.0
H603 H 0.6921 0.62595 0.97657 0.0
H604 H 0.02123 0.57336 0.42918 0.0
H605 H 0.03919 0.61052 0.39972 0.0
H606 H 0.09323 0.66418 0.45446 0.0
H607 H 0.07514 0.62686 0.48411 0.0
H608 H 0.0751 0.69 0.41922 0.0
H609 H 0.11637 0.6353 0.4227 0.0
H610 H 0.11633 0.5923 0.42391 0.0
H611 H 0.07979 0.5725 0.35297 0.0
H612 H 0.07903 0.61514 0.35157 0.0
H613 H 0.17994 0.77726 0.33434 0.0
H614 H 0.15275 0.74911 0.36848 0.0
H615 H 0.10078 0.68708 0.31823 0.0
H616 H 0.1278 0.7149 0.28415 0.0
H617 H 0.119 0.66719 0.35328 0.0
H618 H 0.07885 0.72366 0.35031 0.0
H619 H 0.0791 0.76676 0.35056 0.0
H620 H 0.11587 0.78439 0.42145 0.0
H621 H 0.11618 0.74153 0.42149 0.0
C622 C 0.0361 0.59335 0.43521 0.0
C623 C 0.04682 0.59724 0.4589 0.0
C624 C 0.04649 0.61454 0.41833 0.0
C625 C 0.06792 0.64001 0.42476 0.0
C626 C 0.07672 0.64469 0.44911 0.0
C627 C 0.06626 0.6234 0.46608 0.0
C628 C 0.08353 0.66004 0.40533 0.0
C629 C 0.08496 0.68519 0.40492 0.0
C630 C 0.09637 0.65373 0.38664 0.0
C631 C 0.09739 0.62833 0.38713 0.0
C632 C 0.10813 0.6217 0.40743 0.0
C633 C 0.10827 0.59739 0.40815 0.0
C634 C 0.09802 0.57966 0.38856 0.0
C635 C 0.08769 0.58624 0.36816 0.0
C636 C 0.0874 0.61048 0.36739 0.0
C637 C 0.16233 0.75791 0.33049 0.0
C638 C 0.15619 0.74835 0.30642 0.0
C639 C 0.14679 0.74178 0.35008 0.0
C640 C 0.12473 0.71584 0.346 0.0
C641 C 0.11778 0.70691 0.32191 0.0
C642 C 0.13323 0.72296 0.30239 0.0
C643 C 0.11011 0.6971 0.36667 0.0
C644 C 0.1091 0.67211 0.36746 0.0
C645 C 0.098 0.70378 0.38578 0.0
C646 C 0.09779 0.72952 0.38579 0.0
C647 C 0.0872 0.73683 0.36587 0.0
C648 C 0.0872 0.7612 0.36597 0.0
C649 C 0.09756 0.77834 0.38598 0.0
C650 C 0.10789 0.77111 0.40595 0.0
C651 C 0.10796 0.74677 0.40593 0.0
H652 H 0.09754 0.79719 0.38602 0.0
H653 H 0.09814 0.56084 0.38916 0.0
H654 H 0.5645 0.11984 0.97927 0.0
H655 H 0.54984 0.14601 0.95468 0.0
H656 H 0.47963 0.07248 0.93152 0.0
H657 H 0.49422 0.04627 0.95591 0.0
H658 H 0.54623 0.14306 0.90601 0.0
H659 H 0.42949 0.08467 0.91497 0.0
H660 H 0.39489 0.06031 0.94641 0.0
H661 H 0.45173 0.10678 1.00229 0.0
H662 H 0.48656 0.13169 0.97119 0.0
H663 H 0.43696 0.14424 0.8217 0.0
H664 H 0.45144 0.12542 0.85449 0.0
H665 H 0.52047 0.2039 0.8679 0.0
H666 H 0.5063 0.22287 0.83458 0.0
H667 H 0.4561 0.1354 0.90152 0.0
H668 H 0.57198 0.19589 0.89131 0.0
H669 H 0.60642 0.21864 0.85936 0.0
H670 H 0.55086 0.16574 0.8055 0.0
H671 H 0.51625 0.14248 0.83716 0.0
C672 C 0.54559 0.10931 0.96939 0.0
C673 C 0.53058 0.08098 0.96944 0.0
C674 C 0.53729 0.12428 0.95531 0.0
C675 C 0.5137 0.11124 0.94118 0.0
C676 C 0.49773 0.08304 0.9425 0.0
C677 C 0.50603 0.06805 0.95657 0.0
C678 C 0.5073 0.12671 0.92313 0.0
C679 C 0.52671 0.14186 0.90534 0.0
C680 C 0.48162 0.12457 0.92186 0.0
C681 C 0.46071 0.1099 0.94072 0.0
C682 C 0.43458 0.08979 0.93396 0.0
C683 C 0.41493 0.07586 0.95172 0.0
C684 C 0.42113 0.08194 0.97634 0.0
C685 C 0.44698 0.10202 0.98323 0.0
C686 C 0.4667 0.11602 0.96553 0.0
C687 C 0.45537 0.15752 0.83146 0.0
C688 C 0.4705 0.18507 0.82552 0.0
C689 C 0.46355 0.14672 0.85031 0.0
C690 C 0.48702 0.16319 0.86371 0.0
C691 C 0.50244 0.1907 0.85765 0.0
C692 C 0.49434 0.20153 0.8386 0.0
C693 C 0.49489 0.15138 0.8842 0.0
C694 C 0.47575 0.1369 0.9024 0.0
C695 C 0.52076 0.15396 0.88577 0.0
C696 C 0.54144 0.1677 0.86657 0.0
C697 C 0.56715 0.1891 0.87265 0.0
C698 C 0.58669 0.20208 0.85459 0.0
C699 C 0.58079 0.19371 0.8304 0.0
C700 C 0.55536 0.17229 0.82423 0.0
C701 C 0.53576 0.15923 0.84222 0.0
H702 H 0.59594 0.20379 0.81645 0.0
H703 H 0.40589 0.07113 0.99006 0.0
H704 H 0.47509 0.47138 0.43523 0.0
H705 H 0.43339 0.45132 0.41095 0.0
H706 H 0.40723 0.4996 0.44898 0.0
H707 H 0.44906 0.51999 0.47301 0.0
H708 H 0.36446 0.4448 0.439 0.0
H709 H 0.43588 0.52294 0.39846 0.0
H710 H 0.48144 0.55073 0.3812 0.0
H711 H 0.46721 0.48689 0.33232 0.0
H712 H 0.42164 0.45858 0.34954 0.0
H713 H 0.27203 0.4499 0.35398 0.0
H714 H 0.30636 0.45666 0.38419 0.0
H715 H 0.34085 0.42464 0.33415 0.0
H716 H 0.30717 0.41883 0.30357 0.0
H717 H 0.37906 0.46849 0.35115 0.0
H718 H 0.30611 0.39115 0.38914 0.0
H719 H 0.26053 0.36313 0.4063 0.0
H720 H 0.27699 0.42366 0.45976 0.0
H721 H 0.32256 0.45221 0.44272 0.0
C722 C 0.46009 0.47714 0.43886 0.0
C723 C 0.46527 0.49718 0.45605 0.0
C724 C 0.43637 0.4658 0.42488 0.0
C725 C 0.41725 0.47408 0.42804 0.0
C726 C 0.42163 0.49286 0.44626 0.0
C727 C 0.44553 0.5045 0.45996 0.0
C728 C 0.39404 0.46512 0.41092 0.0
C729 C 0.36756 0.45007 0.4198 0.0
C730 C 0.39809 0.47158 0.3858 0.0
C731 C 0.42549 0.48853 0.37548 0.0
C732 C 0.44257 0.51473 0.38419 0.0
C733 C 0.46837 0.5306 0.37438 0.0
C734 C 0.47725 0.52055 0.35572 0.0
C735 C 0.46032 0.49462 0.34681 0.0
C736 C 0.4345 0.47867 0.35657 0.0
C737 C 0.28654 0.44373 0.34959 0.0
C738 C 0.28681 0.43383 0.32629 0.0
C739 C 0.30622 0.44756 0.36696 0.0
C740 C 0.32631 0.44107 0.36165 0.0
C741 C 0.32576 0.42998 0.33877 0.0
C742 C 0.30634 0.4265 0.3213 0.0
C743 C 0.3491 0.44781 0.37902 0.0
C744 C 0.37569 0.46274 0.37023 0.0
C745 C 0.34505 0.44106 0.40417 0.0
C746 C 0.31768 0.42392 0.41451 0.0
C747 C 0.29995 0.39857 0.40444 0.0
C748 C 0.27412 0.38258 0.41417 0.0
C749 C 0.26585 0.39163 0.43407 0.0
C750 C 0.28342 0.41668 0.44433 0.0
C751 C 0.30926 0.43276 0.43466 0.0
H752 H 0.24585 0.37922 0.44157 0.0
H753 H 0.49721 0.53287 0.34809 0.0
H754 H 0.97692 0.43675 0.96117 0.0
H755 H 0.94856 0.40096 0.93283 0.0
H756 H 0.8781 0.40133 0.95948 0.0
H757 H 0.90643 0.43724 0.98801 0.0
H758 H 0.87035 0.34771 0.94115 0.0
H759 H 0.90613 0.44174 0.91957 0.0
H760 H 0.94382 0.48858 0.91725 0.0
H761 H 0.98591 0.46451 0.86834 0.0
H762 H 0.94902 0.41726 0.87129 0.0
H763 H 0.79727 0.29791 0.82962 0.0
H764 H 0.81605 0.32533 0.86632 0.0
H765 H 0.89665 0.35255 0.84009 0.0
H766 H 0.8782 0.3261 0.80339 0.0
H767 H 0.89556 0.39258 0.8601 0.0
H768 H 0.8641 0.30004 0.88252 0.0
H769 H 0.83029 0.25186 0.88692 0.0
H770 H 0.78287 0.27168 0.93351 0.0
H771 H 0.81621 0.31999 0.92908 0.0
C772 C 0.95524 0.42827 0.96195 0.0
C773 C 0.94391 0.43996 0.97664 0.0
C774 C 0.93906 0.4079 0.94562 0.0
C775 C 0.91134 0.39887 0.94383 0.0
C776 C 0.89945 0.40805 0.9606 0.0
C777 C 0.91566 0.42858 0.97686 0.0
C778 C 0.89629 0.38442 0.92171 0.0
C779 C 0.87553 0.35752 0.92344 0.0
C780 C 0.90334 0.39728 0.89863 0.0
C781 C 0.92491 0.4259 0.89587 0.0
C782 C 0.92351 0.44639 0.90848 0.0
C783 C 0.94472 0.47302 0.90706 0.0
C784 C 0.96719 0.47954 0.89261 0.0
C785 C 0.96849 0.45942 0.87955 0.0
C786 C 0.94747 0.4327 0.88115 0.0
C787 C 0.81898 0.31013 0.83152 0.0
C788 C 0.83623 0.30969 0.81362 0.0
C789 C 0.8297 0.3256 0.8526 0.0
C790 C 0.85781 0.34066 0.85621 0.0
C791 C 0.87492 0.34109 0.83783 0.0
C792 C 0.86429 0.32584 0.81681 0.0
C793 C 0.86978 0.35544 0.87926 0.0
C794 C 0.89004 0.38265 0.87776 0.0
C795 C 0.86246 0.3427 0.90244 0.0
C796 C 0.84246 0.31363 0.90522 0.0
C797 C 0.84632 0.29411 0.89353 0.0
C798 C 0.82723 0.26676 0.89601 0.0
C799 C 0.80428 0.25866 0.91031 0.0
C800 C 0.80051 0.27792 0.92228 0.0
C801 C 0.81952 0.3053 0.91981 0.0
H802 H 0.78952 0.23747 0.9122 0.0
H803 H 0.98358 0.50017 0.89153 0.0
H804 H 0.94333 0.53511 0.99251 0.0
H805 H 0.92601 0.55621 0.96414 0.0
H806 H 0.97867 0.55647 0.90811 0.0
H807 H 0.99683 0.53668 0.93686 0.0
H808 H 0.97241 0.59819 0.90125 0.0
H809 H 0.91156 0.50337 0.91552 0.0
H810 H 0.88441 0.46334 0.94142 0.0
H811 H 0.83784 0.49818 0.96647 0.0
H812 H 0.8652 0.53866 0.94118 0.0
H813 H 0.89381 0.57526 0.79375 0.0
H814 H 0.92018 0.57504 0.8288 0.0
H815 H 0.86633 0.58444 0.87699 0.0
H816 H 0.8397 0.58457 0.84193 0.0
H817 H 0.87314 0.54272 0.89075 0.0
H818 H 0.93121 0.63531 0.8697 0.0
H819 H 0.95893 0.67374 0.84247 0.0
H820 H 0.01039 0.64113 0.82751 0.0
H821 H 0.98276 0.60229 0.85438 0.0
C822 C 0.952 0.54086 0.97446 0.0
C823 C 0.97171 0.53476 0.96694 0.0
C824 C 0.94184 0.55252 0.95812 0.0
C825 C 0.95049 0.55734 0.93371 0.0
C826 C 0.9716 0.553 0.92676 0.0
C827 C 0.98213 0.54185 0.94324 0.0
C828 C 0.93589 0.56422 0.91487 0.0
C829 C 0.95072 0.58599 0.8989 0.0
C830 C 0.90747 0.54862 0.9119 0.0
C831 C 0.89066 0.52413 0.92675 0.0
C832 C 0.89568 0.50253 0.92673 0.0
C833 C 0.88026 0.47978 0.94126 0.0
C834 C 0.85946 0.47825 0.9556 0.0
C835 C 0.854 0.49943 0.95539 0.0
C836 C 0.86948 0.52229 0.94099 0.0
C837 C 0.88782 0.57779 0.81176 0.0
C838 C 0.86457 0.57988 0.81498 0.0
C839 C 0.90302 0.57776 0.83182 0.0
C840 C 0.89536 0.57983 0.85559 0.0
C841 C 0.87268 0.58285 0.85883 0.0
C842 C 0.85754 0.58306 0.83874 0.0
C843 C 0.90968 0.57654 0.87698 0.0
C844 C 0.89477 0.55527 0.89334 0.0
C845 C 0.93802 0.59237 0.88004 0.0
C846 C 0.95478 0.61577 0.86394 0.0
C847 C 0.94832 0.63622 0.86047 0.0
C848 C 0.96404 0.6581 0.84512 0.0
C849 C 0.98638 0.65985 0.83323 0.0
C850 C 0.99308 0.63975 0.83672 0.0
C851 C 0.97741 0.61781 0.85204 0.0
H852 H 0.99852 0.67681 0.82135 0.0
H853 H 0.84752 0.46062 0.96684 0.0
H854 H 0.44312 0.98613 0.45374 0.0
H855 H 0.40416 0.96368 0.42651 0.0
H856 H 0.36379 0.89961 0.47919 0.0
H857 H 0.40265 0.92229 0.50657 0.0
H858 H 0.37536 0.88346 0.4354 0.0
H859 H 0.33322 0.93268 0.46136 0.0
H860 H 0.3308 0.97313 0.47175 0.0
H861 H 0.35305 0.00299 0.39862 0.0
H862 H 0.356 0.96291 0.38786 0.0
H863 H 0.2745 0.80635 0.34573 0.0
H864 H 0.29873 0.82867 0.38317 0.0
H865 H 0.33777 0.9051 0.34519 0.0
H866 H 0.31297 0.88311 0.30824 0.0
H867 H 0.32077 0.91172 0.38624 0.0
H868 H 0.3706 0.86892 0.36156 0.0
H869 H 0.37752 0.83137 0.35001 0.0
H870 H 0.3458 0.79273 0.41895 0.0
H871 H 0.33837 0.82991 0.43078 0.0
C872 C 0.42523 0.96815 0.46009 0.0
C873 C 0.42575 0.95598 0.48225 0.0
C874 C 0.40305 0.95518 0.44446 0.0
C875 C 0.38121 0.92982 0.45074 0.0
C876 C 0.38046 0.91916 0.47402 0.0
C877 C 0.4025 0.93231 0.48979 0.0
C878 C 0.36225 0.91255 0.43151 0.0
C879 C 0.36284 0.88923 0.42501 0.0
C880 C 0.34679 0.92069 0.41746 0.0
C881 C 0.34499 0.94483 0.42385 0.0
C882 C 0.33781 0.94797 0.44753 0.0
C883 C 0.3363 0.97082 0.45349 0.0
C884 C 0.34181 0.99064 0.43587 0.0
C885 C 0.34879 0.98762 0.41225 0.0
C886 C 0.35034 0.96481 0.4062 0.0
C887 C 0.28859 0.82783 0.34534 0.0
C888 C 0.29186 0.843 0.3241 0.0
C889 C 0.3024 0.8406 0.36675 0.0
C890 C 0.32012 0.86865 0.36707 0.0
C891 C 0.32402 0.88354 0.34555 0.0
C892 C 0.30997 0.8709 0.32437 0.0
C893 C 0.33427 0.88284 0.38978 0.0
C894 C 0.33285 0.90562 0.39689 0.0
C895 C 0.34947 0.87455 0.40413 0.0
C896 C 0.35358 0.852 0.39691 0.0
C897 C 0.36484 0.85228 0.37415 0.0
C898 C 0.36891 0.8311 0.36758 0.0
C899 C 0.36201 0.80963 0.3837 0.0
C900 C 0.35107 0.80934 0.40645 0.0
C901 C 0.34693 0.83046 0.4131 0.0
H902 H 0.36521 0.79327 0.37859 0.0
H903 H 0.34064 0.00832 0.44052 0.0
H904 H 0.47587 0.41653 0.9905 0.0
H905 H 0.45465 0.37562 0.96583 0.0
H906 H 0.44394 0.41971 0.907 0.0
H907 H 0.46512 0.4606 0.93158 0.0
H908 H 0.40817 0.34271 0.9346 0.0
H909 H 0.47615 0.41136 0.8585 0.0
H910 H 0.51607 0.45653 0.85276 0.0
H911 H 0.54453 0.4523 0.92429 0.0
H912 H 0.50496 0.40695 0.93031 0.0
H913 H 0.40494 0.2682 0.82376 0.0
H914 H 0.40089 0.29884 0.85245 0.0
H915 H 0.47653 0.31682 0.88564 0.0
H916 H 0.48057 0.28651 0.85767 0.0
H917 H 0.47496 0.36233 0.86904 0.0
H918 H 0.4223 0.28092 0.91634 0.0
H919 H 0.38422 0.23499 0.92341 0.0
H920 H 0.32811 0.26299 0.91164 0.0
H921 H 0.36589 0.30905 0.90415 0.0
C922 C 0.46768 0.41714 0.97281 0.0
C923 C 0.47236 0.44177 0.96284 0.0
C924 C 0.45563 0.39375 0.95867 0.0
C925 C 0.44819 0.39477 0.93443 0.0
C926 C 0.44973 0.41854 0.9256 0.0
C927 C 0.46177 0.44188 0.93968 0.0
C928 C 0.44436 0.37333 0.91719 0.0
C929 C 0.42255 0.347 0.92008 0.0
C930 C 0.46334 0.37885 0.89843 0.0
C931 C 0.48743 0.40594 0.89494 0.0
C932 C 0.49097 0.42006 0.87297 0.0
C933 C 0.51352 0.44567 0.86967 0.0
C934 C 0.53275 0.4573 0.88819 0.0
C935 C 0.52957 0.44327 0.90999 0.0
C936 C 0.50705 0.41764 0.91338 0.0
C937 C 0.42037 0.27829 0.83752 0.0
C938 C 0.44322 0.27514 0.83824 0.0
C939 C 0.41806 0.2958 0.85384 0.0
C940 C 0.43858 0.31029 0.871 0.0
C941 C 0.4606 0.30604 0.87242 0.0
C942 C 0.46285 0.28865 0.85635 0.0
C943 C 0.43877 0.33157 0.88635 0.0
C944 C 0.46012 0.35803 0.88315 0.0
C945 C 0.41957 0.32598 0.90489 0.0
C946 C 0.3969 0.29834 0.90938 0.0
C947 C 0.40184 0.27723 0.91501 0.0
C948 C 0.38031 0.25119 0.91915 0.0
C949 C 0.35376 0.24606 0.91789 0.0
C950 C 0.34868 0.26698 0.91256 0.0
C951 C 0.37014 0.29306 0.90837 0.0
H952 H 0.33712 0.22588 0.92112 0.0
H953 H 0.55012 0.47714 0.88559 0.0
H954 H 0.03464 0.50129 0.43847 0.0
H955 H 0.06186 0.48856 0.4135 0.0
H956 H 0.12988 0.53287 0.46137 0.0
H957 H 0.10242 0.54503 0.48671 0.0
H958 H 0.13867 0.54739 0.4095 0.0
H959 H 0.10591 0.47055 0.46269 0.0
H960 H 0.07118 0.43072 0.48482 0.0
H961 H 0.03369 0.39361 0.41708 0.0
H962 H 0.06798 0.43341 0.39454 0.0
H963 H 0.22229 0.50783 0.34408 0.0
H964 H 0.19949 0.52019 0.37484 0.0
H965 H 0.12222 0.46261 0.3444 0.0
H966 H 0.14472 0.44986 0.31428 0.0
H967 H 0.1212 0.4555 0.39127 0.0
H968 H 0.1497 0.5318 0.33797 0.0
H969 H 0.18184 0.57182 0.31435 0.0
H970 H 0.22461 0.61005 0.37998 0.0
H971 H 0.19291 0.57009 0.40396 0.0
C972 C 0.05508 0.50737 0.44411 0.0
C973 C 0.06637 0.52359 0.4647 0.0
C974 C 0.07065 0.50032 0.42979 0.0
C975 C 0.09785 0.50984 0.43562 0.0
C976 C 0.1089 0.5253 0.45666 0.0
C977 C 0.09316 0.53193 0.47124 0.0
C978 C 0.11512 0.50525 0.41868 0.0
C979 C 0.1353 0.52738 0.40581 0.0
C980 C 0.11004 0.47907 0.41344 0.0
C981 C 0.0894 0.45508 0.42694 0.0
C982 C 0.09012 0.45401 0.45252 0.0
C983 C 0.07054 0.43141 0.46514 0.0
C984 C 0.0502 0.40967 0.45237 0.0
C985 C 0.04944 0.41047 0.42695 0.0
C986 C 0.06896 0.43304 0.41424 0.0
C987 C 0.20048 0.49819 0.34377 0.0
C988 C 0.18528 0.47774 0.32693 0.0
C989 C 0.18745 0.50524 0.36134 0.0
C990 C 0.15908 0.49222 0.36203 0.0
C991 C 0.14408 0.47271 0.34446 0.0
C992 C 0.157 0.46551 0.32717 0.0
C993 C 0.14467 0.49762 0.38166 0.0
C994 C 0.12493 0.47561 0.39507 0.0
C995 C 0.14991 0.52389 0.38712 0.0
C996 C 0.16915 0.54781 0.37272 0.0
C997 C 0.16613 0.54863 0.34733 0.0
C998 C 0.18422 0.57132 0.33389 0.0
C999 C 0.20532 0.59342 0.34564 0.0
C1000 C 0.20831 0.59289 0.37089 0.0
C1001 C 0.19028 0.57023 0.38442 0.0
H1002 H 0.21929 0.61099 0.3352 0.0
H1003 H 0.03506 0.39219 0.46217 0.0
H1004 H 0.58785 0.03722 0.93416 0.0
H1005 H 0.62847 0.05905 0.90895 0.0
H1006 H 0.67124 0.11474 0.9671 0.0
H1007 H 0.63006 0.09353 0.99179 0.0
H1008 H 0.67662 0.14157 0.92857 0.0
H1009 H 0.68775 0.06576 0.94462 0.0
H1010 H 0.67421 0.01771 0.94757 0.0
H1011 H 0.65733 0.0086 0.87084 0.0
H1012 H 0.67042 0.05653 0.86748 0.0
H1013 H 0.79608 0.21402 0.86138 0.0
H1014 H 0.7658 0.18255 0.89212 0.0
H1015 H 0.71411 0.13017 0.8355 0.0
H1016 H 0.74453 0.16147 0.80455 0.0
H1017 H 0.71617 0.10124 0.87502 0.0
H1018 H 0.70332 0.17705 0.86027 0.0
H1019 H 0.71685 0.22513 0.85799 0.0
H1020 H 0.73622 0.23368 0.93425 0.0
H1021 H 0.72392 0.18597 0.93677 0.0
C1022 C 0.60629 0.05343 0.94185 0.0
C1023 C 0.60607 0.06343 0.96503 0.0
C1024 C 0.62955 0.06598 0.92742 0.0
C1025 C 0.65319 0.08858 0.93605 0.0
C1026 C 0.65336 0.0974 0.95993 0.0
C1027 C 0.62996 0.08511 0.97418 0.0
C1028 C 0.67632 0.105 0.91928 0.0
C1029 C 0.68567 0.13274 0.91735 0.0
C1030 C 0.68767 0.09354 0.90391 0.0
C1031 C 0.67988 0.06472 0.90584 0.0
C1032 C 0.68097 0.05348 0.92841 0.0
C1033 C 0.67341 0.02626 0.93014 0.0
C1034 C 0.66487 0.0101 0.90941 0.0
C1035 C 0.66394 0.02114 0.88689 0.0
C1036 C 0.67146 0.04834 0.88505 0.0
C1037 C 0.7786 0.19555 0.8554 0.0
C1038 C 0.77262 0.19049 0.83044 0.0
C1039 C 0.76123 0.17757 0.87305 0.0
C1040 C 0.73735 0.15422 0.86616 0.0
C1041 C 0.73233 0.1481 0.84128 0.0
C1042 C 0.74978 0.16606 0.82358 0.0
C1043 C 0.71647 0.13766 0.88468 0.0
C1044 C 0.70739 0.10997 0.88668 0.0
C1045 C 0.70538 0.14914 0.90027 0.0
C1046 C 0.71308 0.17798 0.89862 0.0
C1047 C 0.71087 0.18927 0.87648 0.0
C1048 C 0.71836 0.2165 0.87513 0.0
C1049 C 0.72762 0.23253 0.89591 0.0
C1050 C 0.72932 0.22134 0.9181 0.0
C1051 C 0.72219 0.19423 0.91948 0.0
H1052 H 0.73335 0.25358 0.89486 0.0
H1053 H 0.65902 0.98903 0.9108 0.0
H1054 H 0.51859 0.59497 0.46965 0.0
H1055 H 0.53902 0.63658 0.44573 0.0
H1056 H 0.60622 0.62551 0.42853 0.0
H1057 H 0.58526 0.58317 0.4514 0.0
H1058 H 0.58399 0.68473 0.43999 0.0
H1059 H 0.61761 0.63654 0.36692 0.0
H1060 H 0.6091 0.59156 0.35491 0.0
H1061 H 0.52957 0.5552 0.38559 0.0
H1062 H 0.53725 0.59997 0.39701 0.0
H1063 H 0.61869 0.77295 0.33489 0.0
H1064 H 0.6248 0.74599 0.36689 0.0
H1065 H 0.55151 0.67559 0.34337 0.0
H1066 H 0.54559 0.70191 0.31171 0.0
H1067 H 0.58832 0.66243 0.35365 0.0
H1068 H 0.5523 0.7144 0.39101 0.0
H1069 H 0.55379 0.75655 0.40267 0.0
H1070 H 0.62715 0.78104 0.44262 0.0
H1071 H 0.62625 0.73913 0.43091 0.0
C1072 C 0.53797 0.60163 0.46114 0.0
C1073 C 0.54992 0.58536 0.46196 0.0
C1074 C 0.54979 0.62561 0.44768 0.0
C1075 C 0.57387 0.63387 0.43488 0.0
C1076 C 0.58742 0.61931 0.43797 0.0
C1077 C 0.57546 0.59514 0.45123 0.0
C1078 C 0.58201 0.65471 0.41543 0.0
C1079 C 0.58544 0.68006 0.42115 0.0
C1080 C 0.58348 0.64852 0.39076 0.0
C1081 C 0.57821 0.62156 0.38315 0.0
C1082 C 0.59825 0.61894 0.37094 0.0
C1083 C 0.59353 0.59349 0.36418 0.0
C1084 C 0.5688 0.57053 0.3695 0.0
C1085 C 0.54866 0.57299 0.3814 0.0
C1086 C 0.55317 0.5984 0.38798 0.0
C1087 C 0.60422 0.75163 0.33639 0.0
C1088 C 0.58157 0.73959 0.32092 0.0
C1089 C 0.60763 0.7363 0.35471 0.0
C1090 C 0.58849 0.70878 0.35764 0.0
C1091 C 0.5666 0.69671 0.34148 0.0
C1092 C 0.56316 0.71189 0.32343 0.0
C1093 C 0.58975 0.69227 0.37809 0.0
C1094 C 0.58797 0.66759 0.37255 0.0
C1095 C 0.58889 0.69875 0.40277 0.0
C1096 C 0.58941 0.72386 0.40982 0.0
C1097 C 0.56886 0.72889 0.40212 0.0
C1098 C 0.56958 0.7527 0.40876 0.0
C1099 C 0.59061 0.77151 0.42331 0.0
C1100 C 0.61092 0.76649 0.4313 0.0
C1101 C 0.61032 0.74272 0.42466 0.0
H1102 H 0.59112 0.78993 0.42844 0.0
H1103 H 0.56524 0.55084 0.36437 0.0
H1104 H 0.44462 0.04174 0.56683 0.0
H1105 H 0.42362 0.06232 0.59088 0.0
H1106 H 0.46108 0.05311 0.65594 0.0
H1107 H 0.4811 0.03191 0.63212 0.0
H1108 H 0.4155 0.05039 0.66821 0.0
H1109 H 0.49343 0.10952 0.6196 0.0
H1110 H 0.51889 0.1261 0.58122 0.0
H1111 H 0.4583 0.14217 0.55262 0.0
H1112 H 0.43227 0.12526 0.59076 0.0
H1113 H 0.48434 0.19782 0.70708 0.0
H1114 H 0.47716 0.16277 0.67879 0.0
H1115 H 0.39246 0.11904 0.69696 0.0
H1116 H 0.39978 0.15432 0.72632 0.0
H1117 H 0.45042 0.14425 0.63931 0.0
H1118 H 0.37075 0.05055 0.69064 0.0
H1119 H 0.35373 0.03599 0.73246 0.0
H1120 H 0.43121 0.09355 0.76149 0.0
H1121 H 0.44873 0.10817 0.71986 0.0
C1122 C 0.44728 0.04309 0.58641 0.0
C1123 C 0.46437 0.0353 0.59772 0.0
C1124 C 0.43551 0.05503 0.60013 0.0
C1125 C 0.44115 0.05975 0.62521 0.0
C1126 C 0.45629 0.04969 0.63672 0.0
C1127 C 0.46779 0.03762 0.6231 0.0
C1128 C 0.43522 0.07857 0.6388 0.0
C1129 C 0.42267 0.07078 0.6617 0.0
C1130 C 0.44506 0.10539 0.63065 0.0
C1131 C 0.46077 0.11583 0.60785 0.0
C1132 C 0.48548 0.11645 0.60506 0.0
C1133 C 0.50001 0.1259 0.58336 0.0
C1134 C 0.49018 0.13512 0.56446 0.0
C1135 C 0.46584 0.13496 0.56725 0.0
C1136 C 0.45119 0.12543 0.58889 0.0
C1137 C 0.46406 0.18088 0.70513 0.0
C1138 C 0.44265 0.17887 0.71916 0.0
C1139 C 0.45996 0.16082 0.68871 0.0
C1140 C 0.4343 0.13811 0.68567 0.0
C1141 C 0.41253 0.13624 0.69912 0.0
C1142 C 0.4167 0.15645 0.71582 0.0
C1143 C 0.43136 0.11635 0.66907 0.0
C1144 C 0.44228 0.1236 0.64552 0.0
C1145 C 0.42112 0.08942 0.67711 0.0
C1146 C 0.41088 0.08069 0.70218 0.0
C1147 C 0.38412 0.06006 0.70597 0.0
C1148 C 0.3744 0.05179 0.72963 0.0
C1149 C 0.39134 0.06393 0.74962 0.0
C1150 C 0.41808 0.08426 0.746 0.0
C1151 C 0.4279 0.09255 0.72238 0.0
H1152 H 0.38377 0.05752 0.76792 0.0
H1153 H 0.50145 0.14244 0.54767 0.0
H1154 H 0.46341 0.49408 0.10985 0.0
H1155 H 0.42757 0.48368 0.13904 0.0
H1156 H 0.37648 0.48358 0.08074 0.0
H1157 H 0.41333 0.49573 0.05172 0.0
H1158 H 0.37694 0.51395 0.11377 0.0
H1159 H 0.36276 0.42483 0.11649 0.0
H1160 H 0.37471 0.38917 0.11987 0.0
H1161 H 0.40559 0.41549 0.19201 0.0
H1162 H 0.39416 0.45155 0.18894 0.0
H1163 H 0.25916 0.4572 0.1909 0.0
H1164 H 0.2931 0.46544 0.15995 0.0
H1165 H 0.35543 0.49791 0.21487 0.0
H1166 H 0.32146 0.49045 0.24594 0.0
H1167 H 0.34797 0.4504 0.1838 0.0
H1168 H 0.36196 0.54054 0.17904 0.0
H1169 H 0.34761 0.57434 0.1746 0.0
H1170 H 0.31344 0.54244 0.10449 0.0
H1171 H 0.32728 0.5082 0.10867 0.0
C1172 C 0.44406 0.4906 0.10319 0.0
C1173 C 0.44074 0.49503 0.07858 0.0
C1174 C 0.42355 0.48472 0.11989 0.0
C1175 C 0.39908 0.48254 0.11216 0.0
C1176 C 0.39514 0.48514 0.08718 0.0
C1177 C 0.41595 0.49164 0.07053 0.0
C1178 C 0.37919 0.48087 0.13042 0.0
C1179 C 0.37026 0.49964 0.12879 0.0
C1180 C 0.37091 0.46274 0.15046 0.0
C1181 C 0.37779 0.44104 0.1524 0.0
C1182 C 0.37228 0.42315 0.13301 0.0
C1183 C 0.37893 0.40284 0.13488 0.0
C1184 C 0.39095 0.4001 0.15612 0.0
C1185 C 0.39629 0.41764 0.17556 0.0
C1186 C 0.3897 0.438 0.17377 0.0
C1187 C 0.28022 0.46674 0.19623 0.0
C1188 C 0.28784 0.47334 0.22067 0.0
C1189 C 0.29951 0.47138 0.17859 0.0
C1190 C 0.32664 0.48216 0.18522 0.0
C1191 C 0.33452 0.48961 0.2095 0.0
C1192 C 0.31523 0.48557 0.22712 0.0
C1193 C 0.34615 0.48347 0.16701 0.0
C1194 C 0.35478 0.46456 0.16866 0.0
C1195 C 0.35383 0.50113 0.14681 0.0
C1196 C 0.34538 0.52162 0.1443 0.0
C1197 C 0.35113 0.54055 0.16279 0.0
C1198 C 0.34316 0.55984 0.16029 0.0
C1199 C 0.32954 0.56049 0.13931 0.0
C1200 C 0.32395 0.54189 0.12075 0.0
C1201 C 0.33187 0.52255 0.12317 0.0
H1202 H 0.32339 0.57544 0.1374 0.0
H1203 H 0.39608 0.38437 0.15753 0.0
H1204 H 0.99145 0.46901 0.59907 0.0
H1205 H 0.97133 0.42801 0.62426 0.0
H1206 H 0.90943 0.38714 0.56992 0.0
H1207 H 0.92924 0.42822 0.54509 0.0
H1208 H 0.8875 0.38431 0.61226 0.0
H1209 H 0.95787 0.36868 0.58443 0.0
H1210 H 0.00485 0.38009 0.57683 0.0
H1211 H 0.02206 0.39179 0.65341 0.0
H1212 H 0.97527 0.38081 0.66145 0.0
H1213 H 0.81489 0.25709 0.66612 0.0
H1214 H 0.84588 0.29214 0.63815 0.0
H1215 H 0.9011 0.33239 0.69737 0.0
H1216 H 0.87015 0.29715 0.72562 0.0
H1217 H 0.92801 0.33579 0.65381 0.0
H1218 H 0.85889 0.35311 0.68143 0.0
H1219 H 0.81221 0.34235 0.68961 0.0
H1220 H 0.79335 0.32866 0.61341 0.0
H1221 H 0.83985 0.33896 0.60483 0.0
C1222 C 0.97426 0.4509 0.59208 0.0
C1223 C 0.96205 0.45168 0.57002 0.0
C1224 C 0.96264 0.42747 0.60655 0.0
C1225 C 0.93875 0.40437 0.59908 0.0
C1226 C 0.92777 0.40466 0.57618 0.0
C1227 C 0.93924 0.42804 0.56186 0.0
C1228 C 0.92333 0.38119 0.61609 0.0
C1229 C 0.89631 0.37343 0.62093 0.0
C1230 C 0.93499 0.36759 0.6283 0.0
C1231 C 0.96312 0.37418 0.62351 0.0
C1232 C 0.97173 0.37392 0.59963 0.0
C1233 C 0.99832 0.38026 0.59525 0.0
C1234 C 0.01645 0.38673 0.61462 0.0
C1235 C 0.00801 0.38681 0.63842 0.0
C1236 C 0.98145 0.3805 0.6429 0.0
C1237 C 0.83383 0.27309 0.67321 0.0
C1238 C 0.83984 0.2744 0.69823 0.0
C1239 C 0.85153 0.29319 0.65715 0.0
C1240 C 0.87562 0.3152 0.6657 0.0
C1241 C 0.8826 0.31567 0.69035 0.0
C1242 C 0.86485 0.29548 0.70649 0.0
C1243 C 0.89212 0.33862 0.6493 0.0
C1244 C 0.91927 0.34659 0.64487 0.0
C1245 C 0.8807 0.3526 0.63744 0.0
C1246 C 0.85277 0.34653 0.64253 0.0
C1247 C 0.84473 0.34759 0.66645 0.0
C1248 C 0.81831 0.34161 0.67115 0.0
C1249 C 0.79981 0.33475 0.65205 0.0
C1250 C 0.8077 0.33393 0.6282 0.0
C1251 C 0.83408 0.33986 0.6234 0.0
H1252 H 0.77936 0.33012 0.65573 0.0
H1253 H 0.03702 0.39163 0.61119 0.0
H1254 H 0.55937 0.95953 0.05939 0.0
H1255 H 0.58079 0.94245 0.08742 0.0
H1256 H 0.57883 0.99271 0.14436 0.0
H1257 H 0.55695 0.00948 0.11647 0.0
H1258 H 0.62316 0.95724 0.12086 0.0
H1259 H 0.54923 0.9537 0.19187 0.0
H1260 H 0.50714 0.95561 0.19436 0.0
H1261 H 0.4831 0.91918 0.12389 0.0
H1262 H 0.52504 0.9172 0.12097 0.0
H1263 H 0.619 0.87894 0.23209 0.0
H1264 H 0.62484 0.91623 0.20523 0.0
H1265 H 0.55602 0.86036 0.16281 0.0
H1266 H 0.55031 0.82347 0.18887 0.0
H1267 H 0.55343 0.90539 0.18333 0.0
H1268 H 0.61079 0.88198 0.13728 0.0
H1269 H 0.65017 0.87598 0.13182 0.0
H1270 H 0.70344 0.95933 0.14856 0.0
H1271 H 0.66429 0.96572 0.15448 0.0
C1272 C 0.5646 0.96782 0.07757 0.0
C1273 C 0.55622 0.98557 0.08588 0.0
C1274 C 0.57685 0.95804 0.0936 0.0
C1275 C 0.58093 0.96593 0.1181 0.0
C1276 C 0.57556 0.98612 0.1256 0.0
C1277 C 0.56309 0.9957 0.10966 0.0
C1278 C 0.58541 0.94937 0.13645 0.0
C1279 C 0.60819 0.94624 0.1348 0.0
C1280 C 0.56569 0.93468 0.15444 0.0
C1281 C 0.54033 0.93557 0.15613 0.0
C1282 C 0.53492 0.94612 0.17694 0.0
C1283 C 0.51114 0.94728 0.17838 0.0
C1284 C 0.49253 0.9377 0.1592 0.0
C1285 C 0.49762 0.92683 0.13861 0.0
C1286 C 0.5214 0.92573 0.13703 0.0
C1287 C 0.6055 0.87463 0.21674 0.0
C1288 C 0.584 0.8483 0.21281 0.0
C1289 C 0.60884 0.8959 0.20147 0.0
C1290 C 0.59067 0.89099 0.18222 0.0
C1291 C 0.57011 0.86457 0.17768 0.0
C1292 C 0.56689 0.8435 0.19267 0.0
C1293 C 0.59109 0.9131 0.16774 0.0
C1294 C 0.56899 0.91713 0.17003 0.0
C1295 C 0.61116 0.92809 0.15016 0.0
C1296 C 0.63463 0.92423 0.14668 0.0
C1297 C 0.63088 0.89895 0.14009 0.0
C1298 C 0.65316 0.8955 0.13683 0.0
C1299 C 0.67929 0.91724 0.13994 0.0
C1300 C 0.68319 0.9425 0.14623 0.0
C1301 C 0.66097 0.94604 0.14953 0.0
H1302 H 0.69651 0.91453 0.13739 0.0
H1303 H 0.47412 0.9386 0.16034 0.0
H1304 H 0.58788 0.55499 0.6012 0.0
H1305 H 0.6291 0.57739 0.62536 0.0
H1306 H 0.67328 0.56699 0.56715 0.0
H1307 H 0.63156 0.54358 0.54317 0.0
H1308 H 0.68143 0.54796 0.60707 0.0
H1309 H 0.68801 0.63138 0.58737 0.0
H1310 H 0.67272 0.66424 0.58108 0.0
H1311 H 0.65266 0.65908 0.65689 0.0
H1312 H 0.66745 0.62589 0.6636 0.0
H1313 H 0.78639 0.5924 0.69572 0.0
H1314 H 0.76432 0.59418 0.65789 0.0
H1315 H 0.70194 0.59647 0.69965 0.0
H1316 H 0.72409 0.59538 0.73729 0.0
H1317 H 0.71257 0.62723 0.66066 0.0
H1318 H 0.69771 0.53702 0.6771 0.0
H1319 H 0.71033 0.50195 0.68209 0.0
H1320 H 0.74511 0.51958 0.61057 0.0
H1321 H 0.73344 0.55532 0.60541 0.0
C1322 C 0.60654 0.55819 0.59325 0.0
C1323 C 0.60642 0.54739 0.57033 0.0
C1324 C 0.63023 0.57118 0.60705 0.0
C1325 C 0.65451 0.57405 0.59816 0.0
C1326 C 0.65485 0.56506 0.57447 0.0
C1327 C 0.63105 0.55193 0.56064 0.0
C1328 C 0.67814 0.58294 0.61487 0.0
C1329 C 0.68879 0.56577 0.61828 0.0
C1330 C 0.68759 0.60594 0.62984 0.0
C1331 C 0.67877 0.62603 0.62596 0.0
C1332 C 0.68018 0.63712 0.60268 0.0
C1333 C 0.67162 0.65583 0.59905 0.0
C1334 C 0.6617 0.66373 0.61857 0.0
C1335 C 0.66037 0.65296 0.64179 0.0
C1336 C 0.66889 0.63423 0.64553 0.0
C1337 C 0.76833 0.59396 0.69684 0.0
C1338 C 0.7569 0.59353 0.7196 0.0
C1339 C 0.7556 0.59475 0.67516 0.0
C1340 C 0.73112 0.59493 0.67584 0.0
C1341 C 0.72072 0.59625 0.69855 0.0
C1342 C 0.73342 0.59555 0.72014 0.0
C1343 C 0.715 0.5917 0.65335 0.0
C1344 C 0.70575 0.6099 0.64892 0.0
C1345 C 0.70686 0.56967 0.63737 0.0
C1346 C 0.71501 0.54908 0.641 0.0
C1347 C 0.70843 0.53371 0.66259 0.0
C1348 C 0.71539 0.5137 0.66543 0.0
C1349 C 0.72856 0.5086 0.64666 0.0
C1350 C 0.73504 0.52367 0.62512 0.0
C1351 C 0.72833 0.54385 0.62225 0.0
H1352 H 0.73359 0.49285 0.64871 0.0
H1353 H 0.65507 0.67821 0.61571 0.0
H1354 H 0.0368 0.54089 0.12316 0.0
H1355 H 0.06476 0.57982 0.14869 0.0
H1356 H 0.11397 0.62209 0.08646 0.0
H1357 H 0.08663 0.58277 0.06104 0.0
H1358 H 0.14458 0.62242 0.12236 0.0
H1359 H 0.07346 0.64263 0.11541 0.0
H1360 H 0.02674 0.634 0.11686 0.0
H1361 H 0.02266 0.61544 0.1932 0.0
H1362 H 0.06925 0.6236 0.19214 0.0
H1363 H 0.22048 0.75111 0.17801 0.0
H1364 H 0.19084 0.71212 0.15314 0.0
H1365 H 0.15152 0.6667 0.21801 0.0
H1366 H 0.18155 0.70574 0.24315 0.0
H1367 H 0.11584 0.66759 0.18186 0.0
H1368 H 0.18806 0.64845 0.18803 0.0
H1369 H 0.23521 0.65848 0.18579 0.0
H1370 H 0.23744 0.67682 0.10955 0.0
H1371 H 0.1904 0.66726 0.11141 0.0
C1372 C 0.05318 0.55874 0.1148 0.0
C1373 C 0.05959 0.55867 0.09011 0.0
C1374 C 0.06913 0.58105 0.12941 0.0
C1375 C 0.09159 0.60391 0.11955 0.0
C1376 C 0.09683 0.60464 0.0945 0.0
C1377 C 0.08094 0.58226 0.0799 0.0
C1378 C 0.11107 0.62578 0.13577 0.0
C1379 C 0.13832 0.6326 0.13507 0.0
C1380 C 0.10284 0.63849 0.15293 0.0
C1381 C 0.07477 0.63347 0.15363 0.0
C1382 C 0.06252 0.63647 0.13246 0.0
C1383 C 0.03608 0.63171 0.13322 0.0
C1384 C 0.02172 0.6241 0.15509 0.0
C1385 C 0.0338 0.6213 0.17626 0.0
C1386 C 0.06023 0.62602 0.17559 0.0
C1387 C 0.20593 0.73262 0.18702 0.0
C1388 C 0.20335 0.73141 0.2125 0.0
C1389 C 0.18899 0.71038 0.17279 0.0
C1390 C 0.16894 0.68657 0.18373 0.0
C1391 C 0.16688 0.68494 0.20924 0.0
C1392 C 0.18418 0.70712 0.22357 0.0
C1393 C 0.14919 0.6642 0.16827 0.0
C1394 C 0.12197 0.65732 0.16913 0.0
C1395 C 0.15745 0.65158 0.1511 0.0
C1396 C 0.18577 0.65738 0.14992 0.0
C1397 C 0.19868 0.65486 0.17083 0.0
C1398 C 0.22537 0.66041 0.16962 0.0
C1399 C 0.23934 0.66835 0.14756 0.0
C1400 C 0.22661 0.6707 0.12664 0.0
C1401 C 0.19992 0.66519 0.12776 0.0
H1402 H 0.26 0.67263 0.14666 0.0
H1403 H 1.00125 0.62044 0.15565 0.0
loop_
_geom_bond_atom_site_label_1
_geom_bond_atom_site_label_2
_geom_bond_distance
_geom_bond_site_symmetry_2
_ccdc_geom_bond_type
H0 C8 0.930 . S
H1 C11 0.930 . S
H2 C13 0.930 . S
H3 C14 0.970 . S
H4 C14 0.970 . S
H5 C16 0.930 . S
H6 C18 0.930 . S
H7 C20 0.930 . S
C8 H0 0.930 . S
C8 C9 1.382 . S
C8 C10 1.426 . S
C9 C8 1.382 . S
C9 C13 1.389 . S
C10 C8 1.426 . S
C10 C11 1.375 . S
C10 C14 1.532 1_554 S
C11 H1 0.930 . S
C11 C10 1.375 . S
C11 C12 1.416 . S
C12 C11 1.416 . S
C12 C13 1.371 . S
C13 H2 0.930 . S
C13 C9 1.389 . S
C13 C12 1.371 . S
C14 H3 0.970 . S
C14 H4 0.970 . S
C14 C10 1.532 1_556 S
C14 C15 1.499 . S
C15 C14 1.499 . S
C15 C16 1.370 . S
C15 C20 1.415 . S
C16 H5 0.930 . S
C16 C15 1.370 . S
C16 C17 1.407 1_455 S
C17 C16 1.407 1_655 S
C17 C18 1.365 . S
C18 H6 0.930 . S
C18 C17 1.365 . S
C18 C19 1.393 . S
C19 C18 1.393 . S
C19 C20 1.387 1_655 S
C20 H7 0.930 . S
C20 C15 1.415 . S
C20 C19 1.387 1_455 S
H21 C29 0.930 . S
H22 C32 0.930 . S
H23 C34 0.930 . S
H24 C35 0.970 . S
H25 C35 0.970 . S
H26 C37 0.930 . S
H27 C39 0.930 . S
H28 C41 0.930 . S
C29 H21 0.930 . S
C29 C30 1.382 . S
C29 C31 1.426 . S
C30 C29 1.382 . S
C30 C34 1.389 . S
C31 C29 1.426 . S
C31 C32 1.375 . S
C31 C35 1.532 1_545 S
C32 H22 0.930 . S
C32 C31 1.375 . S
C32 C33 1.416 . S
C33 C32 1.416 . S
C33 C34 1.371 . S
C34 H23 0.930 . S
C34 C30 1.389 . S
C34 C33 1.371 . S
C35 H24 0.970 . S
C35 H25 0.970 . S
C35 C31 1.532 1_565 S
C35 C36 1.499 . S
C36 C35 1.499 . S
C36 C37 1.370 . S
C36 C41 1.415 . S
C37 H26 0.930 . S
C37 C36 1.370 . S
C37 C38 1.407 . S
C38 C37 1.407 . S
C38 C39 1.365 . S
C39 H27 0.930 . S
C39 C38 1.365 . S
C39 C40 1.393 . S
C40 C39 1.393 . S
C40 C41 1.387 . S
C41 H28 0.930 . S
C41 C36 1.415 . S
C41 C40 1.387 . S
H42 C50 0.930 . S
H43 C53 0.930 . S
H44 C55 0.930 . S
H45 C56 0.970 . S
H46 C56 0.970 . S
H47 C58 0.930 1_554 S
H48 C60 0.930 . S
H49 C62 0.930 1_554 S
C50 H42 0.930 . S
C50 C51 1.382 . S
C50 C52 1.426 . S
C51 C50 1.382 . S
C51 C55 1.389 . S
C52 C50 1.426 . S
C52 C53 1.375 . S
C52 C56 1.532 . S
C53 H43 0.930 . S
C53 C52 1.375 . S
C53 C54 1.416 . S
C54 C53 1.416 . S
C54 C55 1.371 . S
C55 H44 0.930 . S
C55 C51 1.389 . S
C55 C54 1.371 . S
C56 H45 0.970 . S
C56 H46 0.970 . S
C56 C52 1.532 . S
C56 C57 1.499 . S
C57 C56 1.499 . S
C57 C58 1.370 1_554 S
C57 C62 1.415 1_554 S
C58 H47 0.930 1_556 S
C58 C57 1.370 1_556 S
C58 C59 1.407 . S
C59 C58 1.407 . S
C59 C60 1.365 . S
C60 H48 0.930 . S
C60 C59 1.365 . S
C60 C61 1.393 . S
C61 C60 1.393 . S
C61 C62 1.387 . S
C62 H49 0.930 1_556 S
C62 C57 1.415 1_556 S
C62 C61 1.387 . S
H63 C71 0.930 1_455 S
H64 C74 0.930 1_455 S
H65 C76 0.930 . S
H66 C77 0.970 . S
H67 C77 0.970 . S
H68 C79 0.930 . S
H69 C81 0.930 . S
H70 C83 0.930 . S
C71 H63 0.930 1_655 S
C71 C72 1.382 . S
C71 C73 1.426 1_655 S
C72 C71 1.382 . S
C72 C76 1.389 . S
C73 C71 1.426 1_455 S
C73 C74 1.375 1_455 S
C73 C77 1.532 . S
C74 H64 0.930 1_655 S
C74 C73 1.375 1_655 S
C74 C75 1.416 . S
C75 C74 1.416 . S
C75 C76 1.371 . S
C76 H65 0.930 . S
C76 C72 1.389 . S
C76 C75 1.371 . S
C77 H66 0.970 . S
C77 H67 0.970 . S
C77 C73 1.532 . S
C77 C78 1.499 . S
C78 C77 1.499 . S
C78 C79 1.370 . S
C78 C83 1.415 . S
C79 H68 0.930 . S
C79 C78 1.370 . S
C79 C80 1.407 . S
C80 C79 1.407 . S
C80 C81 1.365 . S
C81 H69 0.930 . S
C81 C80 1.365 . S
C81 C82 1.393 . S
C82 C81 1.393 . S
C82 C83 1.387 . S
C83 H70 0.930 . S
C83 C78 1.415 . S
C83 C82 1.387 . S
H84 C92 0.930 . S
H85 C95 0.930 . S
H86 C97 0.930 . S
H87 C98 0.970 . S
H88 C98 0.970 . S
H89 C100 0.930 . S
H90 C102 0.930 . S
H91 C104 0.930 . S
C92 H84 0.930 . S
C92 C93 1.382 . S
C92 C94 1.426 . S
C93 C92 1.382 . S
C93 C97 1.389 . S
C94 C92 1.426 . S
C94 C95 1.375 . S
C94 C98 1.532 1_554 S
C95 H85 0.930 . S
C95 C94 1.375 . S
C95 C96 1.416 . S
C96 C95 1.416 . S
C96 C97 1.371 . S
C97 H86 0.930 . S
C97 C93 1.389 . S
C97 C96 1.371 . S
C98 H87 0.970 . S
C98 H88 0.970 . S
C98 C94 1.532 1_556 S
C98 C99 1.499 . S
C99 C98 1.499 . S
C99 C100 1.370 1_565 S
C99 C104 1.415 1_565 S
C100 H89 0.930 . S
C100 C99 1.370 1_545 S
C100 C101 1.407 . S
C101 C100 1.407 . S
C101 C102 1.365 . S
C102 H90 0.930 . S
C102 C101 1.365 . S
C102 C103 1.393 . S
C103 C102 1.393 . S
C103 C104 1.387 . S
C104 H91 0.930 . S
C104 C99 1.415 1_545 S
C104 C103 1.387 . S
H105 C113 0.930 . S
H106 C116 0.930 . S
H107 C118 0.930 . S
H108 C119 0.970 . S
H109 C119 0.970 . S
H110 C121 0.930 . S
H111 C123 0.930 . S
H112 C125 0.930 . S
C113 H105 0.930 . S
C113 C114 1.382 . S
C113 C115 1.426 . S
C114 C113 1.382 . S
C114 C118 1.389 . S
C115 C113 1.426 . S
C115 C116 1.375 . S
C115 C119 1.532 . S
C116 H106 0.930 . S
C116 C115 1.375 . S
C116 C117 1.416 . S
C117 C116 1.416 . S
C117 C118 1.371 . S
C118 H107 0.930 . S
C118 C114 1.389 . S
C118 C117 1.371 . S
C119 H108 0.970 . S
C119 H109 0.970 . S
C119 C115 1.532 . S
C119 C120 1.499 . S
C120 C119 1.499 . S
C120 C121 1.370 . S
C120 C125 1.415 . S
C121 H110 0.930 . S
C121 C120 1.370 . S
C121 C122 1.407 . S
C122 C121 1.407 . S
C122 C123 1.365 . S
C123 H111 0.930 . S
C123 C122 1.365 . S
C123 C124 1.393 . S
C124 C123 1.393 . S
C124 C125 1.387 . S
C125 H112 0.930 . S
C125 C120 1.415 . S
C125 C124 1.387 . S
Mg126 O133 2.141 . S
Mg126 O134 2.048 . S
Mg126 O135 2.048 . S
Mg126 O138 2.141 . S
C127 O128 1.313 . S
C127 O134 1.195 . S
O128 C127 1.313 . S
C129 O130 1.245 . S
C129 O138 1.289 . S
O130 C129 1.245 . S
C131 O132 1.245 . S
C131 O133 1.289 . S
O132 C131 1.245 . S
O133 Mg126 2.141 . S
O133 C131 1.289 . S
O134 Mg126 2.048 . S
O134 C127 1.195 . S
O135 Mg126 2.048 . S
O135 C136 1.195 . S
C136 O135 1.195 . S
C136 O137 1.313 . S
O137 C136 1.313 . S
O138 Mg126 2.141 . S
O138 C129 1.289 . S
Mg139 O146 2.141 . S
Mg139 O147 2.048 . S
Mg139 O148 2.048 . S
Mg139 O151 2.141 . S
C140 O141 1.313 . S
C140 O147 1.195 . S
O141 C140 1.313 . S
C142 O143 1.245 . S
C142 O151 1.289 . S
O143 C142 1.245 . S
C144 O145 1.245 . S
C144 O146 1.289 . S
O145 C144 1.245 . S
O146 Mg139 2.141 . S
O146 C144 1.289 . S
O147 Mg139 2.048 . S
O147 C140 1.195 . S
O148 Mg139 2.048 . S
O148 C149 1.195 . S
C149 O148 1.195 . S
C149 O150 1.313 . S
O150 C149 1.313 . S
O151 Mg139 2.141 . S
O151 C142 1.289 . S
Mg152 O159 2.141 . S
Mg152 O160 2.048 . S
Mg152 O161 2.048 . S
Mg152 O164 2.141 . S
C153 O154 1.313 . S
C153 O160 1.195 . S
O154 C153 1.313 . S
C155 O156 1.245 . S
C155 O164 1.289 . S
O156 C155 1.245 . S
C157 O158 1.245 . S
C157 O159 1.289 . S
O158 C157 1.245 . S
O159 Mg152 2.141 . S
O159 C157 1.289 . S
O160 Mg152 2.048 . S
O160 C153 1.195 . S
O161 Mg152 2.048 . S
O161 C162 1.195 . S
C162 O161 1.195 . S
C162 O163 1.313 . S
O163 C162 1.313 . S
O164 Mg152 2.141 . S
O164 C155 1.289 . S
Mg165 O172 2.141 . S
Mg165 O173 2.048 . S
Mg165 O174 2.048 . S
Mg165 O177 2.141 . S
C166 O167 1.313 . S
C166 O173 1.195 . S
O167 C166 1.313 . S
C168 O169 1.245 . S
C168 O177 1.289 . S
O169 C168 1.245 . S
C170 O171 1.245 . S
C170 O172 1.289 . S
O171 C170 1.245 . S
O172 Mg165 2.141 . S
O172 C170 1.289 . S
O173 Mg165 2.048 . S
O173 C166 1.195 . S
O174 Mg165 2.048 . S
O174 C175 1.195 . S
C175 O174 1.195 . S
C175 O176 1.313 . S
O176 C175 1.313 . S
O177 Mg165 2.141 . S
O177 C168 1.289 . S
Mg178 O185 2.141 . S
Mg178 O186 2.048 . S
Mg178 O187 2.048 . S
Mg178 O190 2.141 . S
C179 O180 1.313 . S
C179 O186 1.195 . S
O180 C179 1.313 . S
C181 O182 1.245 . S
C181 O190 1.289 . S
O182 C181 1.245 . S
C183 O184 1.245 . S
C183 O185 1.289 . S
O184 C183 1.245 . S
O185 Mg178 2.141 . S
O185 C183 1.289 . S
O186 Mg178 2.048 . S
O186 C179 1.195 . S
O187 Mg178 2.048 . S
O187 C188 1.195 . S
C188 O187 1.195 . S
C188 O189 1.313 . S
O189 C188 1.313 . S
O190 Mg178 2.141 . S
O190 C181 1.289 . S
Mg191 O198 2.141 . S
Mg191 O199 2.048 . S
Mg191 O200 2.048 . S
Mg191 O203 2.141 . S
C192 O193 1.313 . S
C192 O199 1.195 . S
O193 C192 1.313 . S
C194 O195 1.245 . S
C194 O203 1.289 . S
O195 C194 1.245 . S
C196 O197 1.245 . S
C196 O198 1.289 . S
O197 C196 1.245 . S
O198 Mg191 2.141 . S
O198 C196 1.289 . S
O199 Mg191 2.048 . S
O199 C192 1.195 . S
O200 Mg191 2.048 . S
O200 C201 1.195 . S
C201 O200 1.195 . S
C201 O202 1.313 . S
O202 C201 1.313 . S
O203 Mg191 2.141 . S
O203 C194 1.289 . S
H204 C222 0.951 . S
H205 C224 0.951 . S
H206 C226 0.950 . S
H207 C227 0.950 . S
H208 C229 0.950 . S
H209 C232 0.950 . S
H210 C233 0.950 . S
H211 C235 0.950 . S
H212 C236 0.950 . S
H213 C237 0.951 . S
H214 C239 0.951 . S
H215 C241 0.950 . S
H216 C242 0.950 . S
H217 C244 0.950 . S
H218 C247 0.950 . S
H219 C248 0.950 . S
H220 C250 0.950 . S
H221 C251 0.950 . S
C222 H204 0.951 . S
C222 C223 1.366 . S
C222 C224 1.388 . S
C223 C222 1.366 . S
C223 C227 1.385 . S
C224 H205 0.951 . S
C224 C222 1.388 . S
C224 C225 1.366 . S
C225 C224 1.366 . S
C225 C226 1.414 . S
C225 C228 1.499 . S
C226 H206 0.950 . S
C226 C225 1.414 . S
C226 C227 1.374 . S
C227 H207 0.950 . S
C227 C223 1.385 . S
C227 C226 1.374 . S
C228 C225 1.499 . S
C228 C229 1.373 . S
C228 C230 1.389 . S
C229 H208 0.950 . S
C229 C228 1.373 . S
C229 C245 1.377 . S
C230 C228 1.389 . S
C230 C231 1.524 . S
C230 C244 1.377 . S
C231 C230 1.524 . S
C231 C232 1.397 . S
C231 C236 1.363 . S
C232 H209 0.950 . S
C232 C231 1.397 . S
C232 C233 1.334 . S
C233 H210 0.950 . S
C233 C232 1.334 . S
C233 C234 1.287 . S
C234 C233 1.287 . S
C234 C235 1.524 . S
C234 H253 0.913 . S
C235 H211 0.950 . S
C235 C234 1.524 . S
C235 C236 1.415 . S
C236 H212 0.950 . S
C236 C231 1.363 . S
C236 C235 1.415 . S
C237 H213 0.951 . S
C237 C238 1.366 . S
C237 C239 1.388 . S
C238 C237 1.366 . S
C238 C242 1.385 . S
C239 H214 0.951 . S
C239 C237 1.388 . S
C239 C240 1.366 . S
C240 C239 1.366 . S
C240 C241 1.414 . S
C240 C243 1.499 . S
C241 H215 0.950 . S
C241 C240 1.414 . S
C241 C242 1.374 . S
C242 H216 0.950 . S
C242 C238 1.385 . S
C242 C241 1.374 . S
C243 C240 1.499 . S
C243 C244 1.373 . S
C243 C245 1.389 . S
C244 H217 0.950 . S
C244 C230 1.377 . S
C244 C243 1.373 . S
C245 C229 1.377 . S
C245 C243 1.389 . S
C245 C246 1.524 . S
C246 C245 1.524 . S
C246 C247 1.397 . S
C246 C251 1.363 . S
C247 H218 0.950 . S
C247 C246 1.397 . S
C247 C248 1.334 . S
C248 H219 0.950 . S
C248 C247 1.334 . S
C248 C249 1.287 . S
C249 C248 1.287 . S
C249 C250 1.524 . S
C249 H252 0.999 . S
C250 H220 0.950 . S
C250 C249 1.524 . S
C250 C251 1.415 . S
C251 H221 0.950 . S
C251 C246 1.363 . S
C251 C250 1.415 . S
H252 C249 0.999 . S
H253 C234 0.913 . S
H254 C272 0.951 . S
H255 C274 0.951 . S
H256 C276 0.950 . S
H257 C277 0.950 . S
H258 C279 0.950 . S
H259 C282 0.950 . S
H260 C283 0.950 . S
H261 C285 0.950 . S
H262 C286 0.950 . S
H263 C287 0.951 . S
H264 C289 0.951 . S
H265 C291 0.950 . S
H266 C292 0.950 . S
H267 C294 0.950 . S
H268 C297 0.950 . S
H269 C298 0.950 . S
H270 C300 0.950 . S
H271 C301 0.950 . S
C272 H254 0.951 . S
C272 C273 1.366 . S
C272 C274 1.388 . S
C273 C272 1.366 . S
C273 C277 1.385 . S
C274 H255 0.951 . S
C274 C272 1.388 . S
C274 C275 1.366 . S
C275 C274 1.366 . S
C275 C276 1.414 . S
C275 C278 1.499 . S
C276 H256 0.950 . S
C276 C275 1.414 . S
C276 C277 1.374 . S
C277 H257 0.950 . S
C277 C273 1.385 . S
C277 C276 1.374 . S
C278 C275 1.499 . S
C278 C279 1.373 . S
C278 C280 1.389 . S
C279 H258 0.950 . S
C279 C278 1.373 . S
C279 C295 1.377 . S
C280 C278 1.389 . S
C280 C281 1.524 . S
C280 C294 1.377 . S
C281 C280 1.524 . S
C281 C282 1.397 . S
C281 C286 1.363 . S
C282 H259 0.950 . S
C282 C281 1.397 . S
C282 C283 1.334 . S
C283 H260 0.950 . S
C283 C282 1.334 . S
C283 C284 1.287 . S
C284 C283 1.287 . S
C284 C285 1.524 . S
C284 H303 0.913 . S
C285 H261 0.950 . S
C285 C284 1.524 . S
C285 C286 1.415 . S
C286 H262 0.950 . S
C286 C281 1.363 . S
C286 C285 1.415 . S
C287 H263 0.951 . S
C287 C288 1.366 . S
C287 C289 1.388 . S
C288 C287 1.366 . S
C288 C292 1.385 . S
C289 H264 0.951 . S
C289 C287 1.388 . S
C289 C290 1.366 . S
C290 C289 1.366 . S
C290 C291 1.414 . S
C290 C293 1.499 . S
C291 H265 0.950 . S
C291 C290 1.414 . S
C291 C292 1.374 . S
C292 H266 0.950 . S
C292 C288 1.385 . S
C292 C291 1.374 . S
C293 C290 1.499 . S
C293 C294 1.373 . S
C293 C295 1.389 . S
C294 H267 0.950 . S
C294 C280 1.377 . S
C294 C293 1.373 . S
C295 C279 1.377 . S
C295 C293 1.389 . S
C295 C296 1.524 . S
C296 C295 1.524 . S
C296 C297 1.397 . S
C296 C301 1.363 . S
C297 H268 0.950 . S
C297 C296 1.397 . S
C297 C298 1.334 . S
C298 H269 0.950 . S
C298 C297 1.334 . S
C298 C299 1.287 . S
C299 C298 1.287 . S
C299 C300 1.524 . S
C299 H302 0.999 . S
C300 H270 0.950 . S
C300 C299 1.524 . S
C300 C301 1.415 . S
C301 H271 0.950 . S
C301 C296 1.363 . S
C301 C300 1.415 . S
H302 C299 0.999 . S
H303 C284 0.913 . S
H304 C322 0.951 . S
H305 C324 0.951 . S
H306 C326 0.950 . S
H307 C327 0.950 . S
H308 C329 0.950 . S
H309 C332 0.950 . S
H310 C333 0.950 . S
H311 C335 0.950 . S
H312 C336 0.950 . S
H313 C337 0.951 . S
H314 C339 0.951 . S
H315 C341 0.950 . S
H316 C342 0.950 . S
H317 C344 0.950 . S
H318 C347 0.950 . S
H319 C348 0.950 . S
H320 C350 0.950 . S
H321 C351 0.950 . S
C322 H304 0.951 . S
C322 C323 1.366 . S
C322 C324 1.388 . S
C323 C322 1.366 . S
C323 C327 1.385 . S
C324 H305 0.951 . S
C324 C322 1.388 . S
C324 C325 1.366 . S
C325 C324 1.366 . S
C325 C326 1.414 . S
C325 C328 1.499 . S
C326 H306 0.950 . S
C326 C325 1.414 . S
C326 C327 1.374 . S
C327 H307 0.950 . S
C327 C323 1.385 . S
C327 C326 1.374 . S
C328 C325 1.499 . S
C328 C329 1.373 . S
C328 C330 1.389 . S
C329 H308 0.950 . S
C329 C328 1.373 . S
C329 C345 1.377 . S
C330 C328 1.389 . S
C330 C331 1.524 . S
C330 C344 1.377 . S
C331 C330 1.524 . S
C331 C332 1.397 . S
C331 C336 1.363 . S
C332 H309 0.950 . S
C332 C331 1.397 . S
C332 C333 1.334 . S
C333 H310 0.950 . S
C333 C332 1.334 . S
C333 C334 1.287 . S
C334 C333 1.287 . S
C334 C335 1.524 . S
C334 H353 0.913 . S
C335 H311 0.950 . S
C335 C334 1.524 . S
C335 C336 1.415 . S
C336 H312 0.950 . S
C336 C331 1.363 . S
C336 C335 1.415 . S
C337 H313 0.951 . S
C337 C338 1.366 . S
C337 C339 1.388 . S
C338 C337 1.366 . S
C338 C342 1.385 . S
C339 H314 0.951 . S
C339 C337 1.388 . S
C339 C340 1.366 . S
C340 C339 1.366 . S
C340 C341 1.414 . S
C340 C343 1.499 . S
C341 H315 0.950 . S
C341 C340 1.414 . S
C341 C342 1.374 . S
C342 H316 0.950 . S
C342 C338 1.385 . S
C342 C341 1.374 . S
C343 C340 1.499 . S
C343 C344 1.373 . S
C343 C345 1.389 . S
C344 H317 0.950 . S
C344 C330 1.377 . S
C344 C343 1.373 . S
C345 C329 1.377 . S
C345 C343 1.389 . S
C345 C346 1.524 . S
C346 C345 1.524 . S
C346 C347 1.397 . S
C346 C351 1.363 . S
C347 H318 0.950 . S
C347 C346 1.397 . S
C347 C348 1.334 . S
C348 H319 0.950 . S
C348 C347 1.334 . S
C348 C349 1.287 . S
C349 C348 1.287 . S
C349 C350 1.524 . S
C349 H352 0.999 . S
C350 H320 0.950 . S
C350 C349 1.524 . S
C350 C351 1.415 . S
C351 H321 0.950 . S
C351 C346 1.363 . S
C351 C350 1.415 . S
H352 C349 0.999 . S
H353 C334 0.913 . S
H354 C372 0.951 . S
H355 C374 0.951 . S
H356 C376 0.950 . S
H357 C377 0.950 . S
H358 C379 0.950 . S
H359 C382 0.950 . S
H360 C383 0.950 . S
H361 C385 0.950 . S
H362 C386 0.950 . S
H363 C387 0.951 . S
H364 C389 0.951 . S
H365 C391 0.950 . S
H366 C392 0.950 . S
H367 C394 0.950 . S
H368 C397 0.950 . S
H369 C398 0.950 . S
H370 C400 0.950 . S
H371 C401 0.950 . S
C372 H354 0.951 . S
C372 C373 1.366 . S
C372 C374 1.388 . S
C373 C372 1.366 . S
C373 C377 1.385 . S
C374 H355 0.951 . S
C374 C372 1.388 . S
C374 C375 1.366 . S
C375 C374 1.366 . S
C375 C376 1.414 . S
C375 C378 1.499 . S
C376 H356 0.950 . S
C376 C375 1.414 . S
C376 C377 1.374 . S
C377 H357 0.950 . S
C377 C373 1.385 . S
C377 C376 1.374 . S
C378 C375 1.499 . S
C378 C379 1.373 . S
C378 C380 1.389 . S
C379 H358 0.950 . S
C379 C378 1.373 . S
C379 C395 1.377 . S
C380 C378 1.389 . S
C380 C381 1.524 . S
C380 C394 1.377 . S
C381 C380 1.524 . S
C381 C382 1.397 . S
C381 C386 1.363 . S
C382 H359 0.950 . S
C382 C381 1.397 . S
C382 C383 1.334 . S
C383 H360 0.950 . S
C383 C382 1.334 . S
C383 C384 1.287 . S
C384 C383 1.287 . S
C384 C385 1.524 . S
C384 H403 0.913 . S
C385 H361 0.950 . S
C385 C384 1.524 . S
C385 C386 1.415 . S
C386 H362 0.950 . S
C386 C381 1.363 . S
C386 C385 1.415 . S
C387 H363 0.951 . S
C387 C388 1.366 . S
C387 C389 1.388 . S
C388 C387 1.366 . S
C388 C392 1.385 . S
C389 H364 0.951 . S
C389 C387 1.388 . S
C389 C390 1.366 . S
C390 C389 1.366 . S
C390 C391 1.414 . S
C390 C393 1.499 . S
C391 H365 0.950 . S
C391 C390 1.414 . S
C391 C392 1.374 . S
C392 H366 0.950 . S
C392 C388 1.385 . S
C392 C391 1.374 . S
C393 C390 1.499 . S
C393 C394 1.373 . S
C393 C395 1.389 . S
C394 H367 0.950 . S
C394 C380 1.377 . S
C394 C393 1.373 . S
C395 C379 1.377 . S
C395 C393 1.389 . S
C395 C396 1.524 . S
C396 C395 1.524 . S
C396 C397 1.397 . S
C396 C401 1.363 . S
C397 H368 0.950 . S
C397 C396 1.397 . S
C397 C398 1.334 . S
C398 H369 0.950 . S
C398 C397 1.334 . S
C398 C399 1.287 . S
C399 C398 1.287 . S
C399 C400 1.524 . S
C399 H402 0.999 . S
C400 H370 0.950 . S
C400 C399 1.524 . S
C400 C401 1.415 . S
C401 H371 0.950 . S
C401 C396 1.363 . S
C401 C400 1.415 . S
H402 C399 0.999 . S
H403 C384 0.913 . S
H404 C422 0.951 . S
H405 C424 0.951 . S
H406 C426 0.950 . S
H407 C427 0.950 . S
H408 C429 0.950 . S
H409 C432 0.950 . S
H410 C433 0.950 . S
H411 C435 0.950 . S
H412 C436 0.950 . S
H413 C437 0.951 . S
H414 C439 0.951 . S
H415 C441 0.950 . S
H416 C442 0.950 . S
H417 C444 0.950 . S
H418 C447 0.950 . S
H419 C448 0.950 . S
H420 C450 0.950 . S
H421 C451 0.950 . S
C422 H404 0.951 . S
C422 C423 1.366 . S
C422 C424 1.388 . S
C423 C422 1.366 . S
C423 C427 1.385 . S
C424 H405 0.951 . S
C424 C422 1.388 . S
C424 C425 1.366 . S
C425 C424 1.366 . S
C425 C426 1.414 . S
C425 C428 1.499 . S
C426 H406 0.950 . S
C426 C425 1.414 . S
C426 C427 1.374 . S
C427 H407 0.950 . S
C427 C423 1.385 . S
C427 C426 1.374 . S
C428 C425 1.499 . S
C428 C429 1.373 . S
C428 C430 1.389 . S
C429 H408 0.950 . S
C429 C428 1.373 . S
C429 C445 1.377 . S
C430 C428 1.389 . S
C430 C431 1.524 . S
C430 C444 1.377 . S
C431 C430 1.524 . S
C431 C432 1.397 . S
C431 C436 1.363 . S
C432 H409 0.950 . S
C432 C431 1.397 . S
C432 C433 1.334 . S
C433 H410 0.950 . S
C433 C432 1.334 . S
C433 C434 1.287 . S
C434 C433 1.287 . S
C434 C435 1.524 . S
C434 H453 0.913 . S
C435 H411 0.950 . S
C435 C434 1.524 . S
C435 C436 1.415 . S
C436 H412 0.950 . S
C436 C431 1.363 . S
C436 C435 1.415 . S
C437 H413 0.951 . S
C437 C438 1.366 . S
C437 C439 1.388 . S
C438 C437 1.366 . S
C438 C442 1.385 . S
C439 H414 0.951 . S
C439 C437 1.388 . S
C439 C440 1.366 . S
C440 C439 1.366 . S
C440 C441 1.414 . S
C440 C443 1.499 . S
C441 H415 0.950 . S
C441 C440 1.414 . S
C441 C442 1.374 . S
C442 H416 0.950 . S
C442 C438 1.385 . S
C442 C441 1.374 . S
C443 C440 1.499 . S
C443 C444 1.373 . S
C443 C445 1.389 . S
C444 H417 0.950 . S
C444 C430 1.377 . S
C444 C443 1.373 . S
C445 C429 1.377 . S
C445 C443 1.389 . S
C445 C446 1.524 . S
C446 C445 1.524 . S
C446 C447 1.397 . S
C446 C451 1.363 . S
C447 H418 0.950 . S
C447 C446 1.397 . S
C447 C448 1.334 . S
C448 H419 0.950 . S
C448 C447 1.334 . S
C448 C449 1.287 . S
C449 C448 1.287 . S
C449 C450 1.524 . S
C449 H452 0.999 . S
C450 H420 0.950 . S
C450 C449 1.524 . S
C450 C451 1.415 . S
C451 H421 0.950 . S
C451 C446 1.363 . S
C451 C450 1.415 . S
H452 C449 0.999 . S
H453 C434 0.913 . S
H454 C472 0.951 . S
H455 C474 0.951 . S
H456 C476 0.950 . S
H457 C477 0.950 . S
H458 C479 0.950 . S
H459 C482 0.950 . S
H460 C483 0.950 . S
H461 C485 0.950 . S
H462 C486 0.950 . S
H463 C487 0.951 . S
H464 C489 0.951 . S
H465 C491 0.950 . S
H466 C492 0.950 . S
H467 C494 0.950 . S
H468 C497 0.950 . S
H469 C498 0.950 . S
H470 C500 0.950 . S
H471 C501 0.950 . S
C472 H454 0.951 . S
C472 C473 1.366 . S
C472 C474 1.388 . S
C473 C472 1.366 . S
C473 C477 1.385 . S
C474 H455 0.951 . S
C474 C472 1.388 . S
C474 C475 1.366 . S
C475 C474 1.366 . S
C475 C476 1.414 . S
C475 C478 1.499 . S
C476 H456 0.950 . S
C476 C475 1.414 . S
C476 C477 1.374 . S
C477 H457 0.950 . S
C477 C473 1.385 . S
C477 C476 1.374 . S
C478 C475 1.499 . S
C478 C479 1.373 . S
C478 C480 1.389 . S
C479 H458 0.950 . S
C479 C478 1.373 . S
C479 C495 1.377 . S
C480 C478 1.389 . S
C480 C481 1.524 . S
C480 C494 1.377 . S
C481 C480 1.524 . S
C481 C482 1.397 . S
C481 C486 1.363 . S
C482 H459 0.950 . S
C482 C481 1.397 . S
C482 C483 1.334 . S
C483 H460 0.950 . S
C483 C482 1.334 . S
C483 C484 1.287 . S
C484 C483 1.287 . S
C484 C485 1.524 . S
C484 H503 0.913 . S
C485 H461 0.950 . S
C485 C484 1.524 . S
C485 C486 1.415 . S
C486 H462 0.950 . S
C486 C481 1.363 . S
C486 C485 1.415 . S
C487 H463 0.951 . S
C487 C488 1.366 . S
C487 C489 1.388 . S
C488 C487 1.366 . S
C488 C492 1.385 . S
C489 H464 0.951 . S
C489 C487 1.388 . S
C489 C490 1.366 . S
C490 C489 1.366 . S
C490 C491 1.414 . S
C490 C493 1.499 . S
C491 H465 0.950 . S
C491 C490 1.414 . S
C491 C492 1.374 . S
C492 H466 0.950 . S
C492 C488 1.385 . S
C492 C491 1.374 . S
C493 C490 1.499 . S
C493 C494 1.373 . S
C493 C495 1.389 . S
C494 H467 0.950 . S
C494 C480 1.377 . S
C494 C493 1.373 . S
C495 C479 1.377 . S
C495 C493 1.389 . S
C495 C496 1.524 . S
C496 C495 1.524 . S
C496 C497 1.397 . S
C496 C501 1.363 . S
C497 H468 0.950 . S
C497 C496 1.397 . S
C497 C498 1.334 . S
C498 H469 0.950 . S
C498 C497 1.334 . S
C498 C499 1.287 . S
C499 C498 1.287 . S
C499 C500 1.524 . S
C499 H502 0.999 . S
C500 H470 0.950 . S
C500 C499 1.524 . S
C500 C501 1.415 . S
C501 H471 0.950 . S
C501 C496 1.363 . S
C501 C500 1.415 . S
H502 C499 0.999 . S
H503 C484 0.913 . S
H504 C522 0.951 . S
H505 C524 0.951 . S
H506 C526 0.950 . S
H507 C527 0.950 . S
H508 C529 0.950 . S
H509 C532 0.950 . S
H510 C533 0.950 . S
H511 C535 0.950 . S
H512 C536 0.950 . S
H513 C537 0.951 . S
H514 C539 0.951 . S
H515 C541 0.950 . S
H516 C542 0.950 . S
H517 C544 0.950 . S
H518 C547 0.950 . S
H519 C548 0.950 . S
H520 C550 0.950 . S
H521 C551 0.950 . S
C522 H504 0.951 . S
C522 C523 1.366 . S
C522 C524 1.388 . S
C523 C522 1.366 . S
C523 C527 1.385 . S
C524 H505 0.951 . S
C524 C522 1.388 . S
C524 C525 1.366 . S
C525 C524 1.366 . S
C525 C526 1.414 . S
C525 C528 1.499 . S
C526 H506 0.950 . S
C526 C525 1.414 . S
C526 C527 1.374 . S
C527 H507 0.950 . S
C527 C523 1.385 . S
C527 C526 1.374 . S
C528 C525 1.499 . S
C528 C529 1.373 . S
C528 C530 1.389 . S
C529 H508 0.950 . S
C529 C528 1.373 . S
C529 C545 1.377 . S
C530 C528 1.389 . S
C530 C531 1.524 . S
C530 C544 1.377 . S
C531 C530 1.524 . S
C531 C532 1.397 . S
C531 C536 1.363 . S
C532 H509 0.950 . S
C532 C531 1.397 . S
C532 C533 1.334 . S
C533 H510 0.950 . S
C533 C532 1.334 . S
C533 C534 1.287 . S
C534 C533 1.287 . S
C534 C535 1.524 . S
C534 H553 0.913 . S
C535 H511 0.950 . S
C535 C534 1.524 . S
C535 C536 1.415 . S
C536 H512 0.950 . S
C536 C531 1.363 . S
C536 C535 1.415 . S
C537 H513 0.951 . S
C537 C538 1.366 . S
C537 C539 1.388 . S
C538 C537 1.366 . S
C538 C542 1.385 . S
C539 H514 0.951 . S
C539 C537 1.388 . S
C539 C540 1.366 . S
C540 C539 1.366 . S
C540 C541 1.414 . S
C540 C543 1.499 . S
C541 H515 0.950 . S
C541 C540 1.414 . S
C541 C542 1.374 . S
C542 H516 0.950 . S
C542 C538 1.385 . S
C542 C541 1.374 . S
C543 C540 1.499 . S
C543 C544 1.373 . S
C543 C545 1.389 . S
C544 H517 0.950 . S
C544 C530 1.377 . S
C544 C543 1.373 . S
C545 C529 1.377 . S
C545 C543 1.389 . S
C545 C546 1.524 . S
C546 C545 1.524 . S
C546 C547 1.397 . S
C546 C551 1.363 . S
C547 H518 0.950 . S
C547 C546 1.397 . S
C547 C548 1.334 . S
C548 H519 0.950 . S
C548 C547 1.334 . S
C548 C549 1.287 . S
C549 C548 1.287 . S
C549 C550 1.524 . S
C549 H552 0.999 . S
C550 H520 0.950 . S
C550 C549 1.524 . S
C550 C551 1.415 . S
C551 H521 0.950 . S
C551 C546 1.363 . S
C551 C550 1.415 . S
H552 C549 0.999 . S
H553 C534 0.913 . S
H554 C572 0.951 . S
H555 C574 0.951 . S
H556 C576 0.950 . S
H557 C577 0.950 . S
H558 C579 0.950 . S
H559 C582 0.950 . S
H560 C583 0.950 . S
H561 C585 0.950 . S
H562 C586 0.950 . S
H563 C587 0.951 . S
H564 C589 0.951 . S
H565 C591 0.950 . S
H566 C592 0.950 . S
H567 C594 0.950 . S
H568 C597 0.950 . S
H569 C598 0.950 . S
H570 C600 0.950 . S
H571 C601 0.950 . S
C572 H554 0.951 . S
C572 C573 1.366 . S
C572 C574 1.388 . S
C573 C572 1.366 . S
C573 C577 1.385 . S
C574 H555 0.951 . S
C574 C572 1.388 . S
C574 C575 1.366 . S
C575 C574 1.366 . S
C575 C576 1.414 . S
C575 C578 1.499 . S
C576 H556 0.950 . S
C576 C575 1.414 . S
C576 C577 1.374 . S
C577 H557 0.950 . S
C577 C573 1.385 . S
C577 C576 1.374 . S
C578 C575 1.499 . S
C578 C579 1.373 . S
C578 C580 1.389 . S
C579 H558 0.950 . S
C579 C578 1.373 . S
C579 C595 1.377 . S
C580 C578 1.389 . S
C580 C581 1.524 . S
C580 C594 1.377 . S
C581 C580 1.524 . S
C581 C582 1.397 . S
C581 C586 1.363 . S
C582 H559 0.950 . S
C582 C581 1.397 . S
C582 C583 1.334 . S
C583 H560 0.950 . S
C583 C582 1.334 . S
C583 C584 1.287 . S
C584 C583 1.287 . S
C584 C585 1.524 . S
C584 H603 0.913 . S
C585 H561 0.950 . S
C585 C584 1.524 . S
C585 C586 1.415 . S
C586 H562 0.950 . S
C586 C581 1.363 . S
C586 C585 1.415 . S
C587 H563 0.951 . S
C587 C588 1.366 . S
C587 C589 1.388 . S
C588 C587 1.366 . S
C588 C592 1.385 . S
C589 H564 0.951 . S
C589 C587 1.388 . S
C589 C590 1.366 . S
C590 C589 1.366 . S
C590 C591 1.414 . S
C590 C593 1.499 . S
C591 H565 0.950 . S
C591 C590 1.414 . S
C591 C592 1.374 . S
C592 H566 0.950 . S
C592 C588 1.385 . S
C592 C591 1.374 . S
C593 C590 1.499 . S
C593 C594 1.373 . S
C593 C595 1.389 . S
C594 H567 0.950 . S
C594 C580 1.377 . S
C594 C593 1.373 . S
C595 C579 1.377 . S
C595 C593 1.389 . S
C595 C596 1.524 . S
C596 C595 1.524 . S
C596 C597 1.397 . S
C596 C601 1.363 . S
C597 H568 0.950 . S
C597 C596 1.397 . S
C597 C598 1.334 . S
C598 H569 0.950 . S
C598 C597 1.334 . S
C598 C599 1.287 . S
C599 C598 1.287 . S
C599 C600 1.524 . S
C599 H602 0.999 . S
C600 H570 0.950 . S
C600 C599 1.524 . S
C600 C601 1.415 . S
C601 H571 0.950 . S
C601 C596 1.363 . S
C601 C600 1.415 . S
H602 C599 0.999 . S
H603 C584 0.913 . S
H604 C622 0.951 . S
H605 C624 0.951 . S
H606 C626 0.950 . S
H607 C627 0.950 . S
H608 C629 0.950 . S
H609 C632 0.950 . S
H610 C633 0.950 . S
H611 C635 0.950 . S
H612 C636 0.950 . S
H613 C637 0.951 . S
H614 C639 0.951 . S
H615 C641 0.950 . S
H616 C642 0.950 . S
H617 C644 0.950 . S
H618 C647 0.950 . S
H619 C648 0.950 . S
H620 C650 0.950 . S
H621 C651 0.950 . S
C622 H604 0.951 . S
C622 C623 1.366 . S
C622 C624 1.388 . S
C623 C622 1.366 . S
C623 C627 1.385 . S
C624 H605 0.951 . S
C624 C622 1.388 . S
C624 C625 1.366 . S
C625 C624 1.366 . S
C625 C626 1.414 . S
C625 C628 1.499 . S
C626 H606 0.950 . S
C626 C625 1.414 . S
C626 C627 1.374 . S
C627 H607 0.950 . S
C627 C623 1.385 . S
C627 C626 1.374 . S
C628 C625 1.499 . S
C628 C629 1.373 . S
C628 C630 1.389 . S
C629 H608 0.950 . S
C629 C628 1.373 . S
C629 C645 1.377 . S
C630 C628 1.389 . S
C630 C631 1.524 . S
C630 C644 1.377 . S
C631 C630 1.524 . S
C631 C632 1.397 . S
C631 C636 1.363 . S
C632 H609 0.950 . S
C632 C631 1.397 . S
C632 C633 1.334 . S
C633 H610 0.950 . S
C633 C632 1.334 . S
C633 C634 1.287 . S
C634 C633 1.287 . S
C634 C635 1.524 . S
C634 H653 0.913 . S
C635 H611 0.950 . S
C635 C634 1.524 . S
C635 C636 1.415 . S
C636 H612 0.950 . S
C636 C631 1.363 . S
C636 C635 1.415 . S
C637 H613 0.951 . S
C637 C638 1.366 . S
C637 C639 1.388 . S
C638 C637 1.366 . S
C638 C642 1.385 . S
C639 H614 0.951 . S
C639 C637 1.388 . S
C639 C640 1.366 . S
C640 C639 1.366 . S
C640 C641 1.414 . S
C640 C643 1.499 . S
C641 H615 0.950 . S
C641 C640 1.414 . S
C641 C642 1.374 . S
C642 H616 0.950 . S
C642 C638 1.385 . S
C642 C641 1.374 . S
C643 C640 1.499 . S
C643 C644 1.373 . S
C643 C645 1.389 . S
C644 H617 0.950 . S
C644 C630 1.377 . S
C644 C643 1.373 . S
C645 C629 1.377 . S
C645 C643 1.389 . S
C645 C646 1.524 . S
C646 C645 1.524 . S
C646 C647 1.397 . S
C646 C651 1.363 . S
C647 H618 0.950 . S
C647 C646 1.397 . S
C647 C648 1.334 . S
C648 H619 0.950 . S
C648 C647 1.334 . S
C648 C649 1.287 . S
C649 C648 1.287 . S
C649 C650 1.524 . S
C649 H652 0.999 . S
C650 H620 0.950 . S
C650 C649 1.524 . S
C650 C651 1.415 . S
C651 H621 0.950 . S
C651 C646 1.363 . S
C651 C650 1.415 . S
H652 C649 0.999 . S
H653 C634 0.913 . S
H654 C672 0.951 . S
H655 C674 0.951 . S
H656 C676 0.950 . S
H657 C677 0.950 . S
H658 C679 0.950 . S
H659 C682 0.950 . S
H660 C683 0.950 . S
H661 C685 0.950 . S
H662 C686 0.950 . S
H663 C687 0.951 . S
H664 C689 0.951 . S
H665 C691 0.950 . S
H666 C692 0.950 . S
H667 C694 0.950 . S
H668 C697 0.950 . S
H669 C698 0.950 . S
H670 C700 0.950 . S
H671 C701 0.950 . S
C672 H654 0.951 . S
C672 C673 1.366 . S
C672 C674 1.388 . S
C673 C672 1.366 . S
C673 C677 1.385 . S
C674 H655 0.951 . S
C674 C672 1.388 . S
C674 C675 1.366 . S
C675 C674 1.366 . S
C675 C676 1.414 . S
C675 C678 1.499 . S
C676 H656 0.950 . S
C676 C675 1.414 . S
C676 C677 1.374 . S
C677 H657 0.950 . S
C677 C673 1.385 . S
C677 C676 1.374 . S
C678 C675 1.499 . S
C678 C679 1.373 . S
C678 C680 1.389 . S
C679 H658 0.950 . S
C679 C678 1.373 . S
C679 C695 1.377 . S
C680 C678 1.389 . S
C680 C681 1.524 . S
C680 C694 1.377 . S
C681 C680 1.524 . S
C681 C682 1.397 . S
C681 C686 1.363 . S
C682 H659 0.950 . S
C682 C681 1.397 . S
C682 C683 1.334 . S
C683 H660 0.950 . S
C683 C682 1.334 . S
C683 C684 1.287 . S
C684 C683 1.287 . S
C684 C685 1.524 . S
C684 H703 0.913 . S
C685 H661 0.950 . S
C685 C684 1.524 . S
C685 C686 1.415 . S
C686 H662 0.950 . S
C686 C681 1.363 . S
C686 C685 1.415 . S
C687 H663 0.951 . S
C687 C688 1.366 . S
C687 C689 1.388 . S
C688 C687 1.366 . S
C688 C692 1.385 . S
C689 H664 0.951 . S
C689 C687 1.388 . S
C689 C690 1.366 . S
C690 C689 1.366 . S
C690 C691 1.414 . S
C690 C693 1.499 . S
C691 H665 0.950 . S
C691 C690 1.414 . S
C691 C692 1.374 . S
C692 H666 0.950 . S
C692 C688 1.385 . S
C692 C691 1.374 . S
C693 C690 1.499 . S
C693 C694 1.373 . S
C693 C695 1.389 . S
C694 H667 0.950 . S
C694 C680 1.377 . S
C694 C693 1.373 . S
C695 C679 1.377 . S
C695 C693 1.389 . S
C695 C696 1.524 . S
C696 C695 1.524 . S
C696 C697 1.397 . S
C696 C701 1.363 . S
C697 H668 0.950 . S
C697 C696 1.397 . S
C697 C698 1.334 . S
C698 H669 0.950 . S
C698 C697 1.334 . S
C698 C699 1.287 . S
C699 C698 1.287 . S
C699 C700 1.524 . S
C699 H702 0.999 . S
C700 H670 0.950 . S
C700 C699 1.524 . S
C700 C701 1.415 . S
C701 H671 0.950 . S
C701 C696 1.363 . S
C701 C700 1.415 . S
H702 C699 0.999 . S
H703 C684 0.913 . S
H704 C722 0.951 . S
H705 C724 0.951 . S
H706 C726 0.950 . S
H707 C727 0.950 . S
H708 C729 0.950 . S
H709 C732 0.950 . S
H710 C733 0.950 . S
H711 C735 0.950 . S
H712 C736 0.950 . S
H713 C737 0.951 . S
H714 C739 0.951 . S
H715 C741 0.950 . S
H716 C742 0.950 . S
H717 C744 0.950 . S
H718 C747 0.950 . S
H719 C748 0.950 . S
H720 C750 0.950 . S
H721 C751 0.950 . S
C722 H704 0.951 . S
C722 C723 1.366 . S
C722 C724 1.388 . S
C723 C722 1.366 . S
C723 C727 1.385 . S
C724 H705 0.951 . S
C724 C722 1.388 . S
C724 C725 1.366 . S
C725 C724 1.366 . S
C725 C726 1.414 . S
C725 C728 1.499 . S
C726 H706 0.950 . S
C726 C725 1.414 . S
C726 C727 1.374 . S
C727 H707 0.950 . S
C727 C723 1.385 . S
C727 C726 1.374 . S
C728 C725 1.499 . S
C728 C729 1.373 . S
C728 C730 1.389 . S
C729 H708 0.950 . S
C729 C728 1.373 . S
C729 C745 1.377 . S
C730 C728 1.389 . S
C730 C731 1.524 . S
C730 C744 1.377 . S
C731 C730 1.524 . S
C731 C732 1.397 . S
C731 C736 1.363 . S
C732 H709 0.950 . S
C732 C731 1.397 . S
C732 C733 1.334 . S
C733 H710 0.950 . S
C733 C732 1.334 . S
C733 C734 1.287 . S
C734 C733 1.287 . S
C734 C735 1.524 . S
C734 H753 0.913 . S
C735 H711 0.950 . S
C735 C734 1.524 . S
C735 C736 1.415 . S
C736 H712 0.950 . S
C736 C731 1.363 . S
C736 C735 1.415 . S
C737 H713 0.951 . S
C737 C738 1.366 . S
C737 C739 1.388 . S
C738 C737 1.366 . S
C738 C742 1.385 . S
C739 H714 0.951 . S
C739 C737 1.388 . S
C739 C740 1.366 . S
C740 C739 1.366 . S
C740 C741 1.414 . S
C740 C743 1.499 . S
C741 H715 0.950 . S
C741 C740 1.414 . S
C741 C742 1.374 . S
C742 H716 0.950 . S
C742 C738 1.385 . S
C742 C741 1.374 . S
C743 C740 1.499 . S
C743 C744 1.373 . S
C743 C745 1.389 . S
C744 H717 0.950 . S
C744 C730 1.377 . S
C744 C743 1.373 . S
C745 C729 1.377 . S
C745 C743 1.389 . S
C745 C746 1.524 . S
C746 C745 1.524 . S
C746 C747 1.397 . S
C746 C751 1.363 . S
C747 H718 0.950 . S
C747 C746 1.397 . S
C747 C748 1.334 . S
C748 H719 0.950 . S
C748 C747 1.334 . S
C748 C749 1.287 . S
C749 C748 1.287 . S
C749 C750 1.524 . S
C749 H752 0.999 . S
C750 H720 0.950 . S
C750 C749 1.524 . S
C750 C751 1.415 . S
C751 H721 0.950 . S
C751 C746 1.363 . S
C751 C750 1.415 . S
H752 C749 0.999 . S
H753 C734 0.913 . S
H754 C772 0.951 . S
H755 C774 0.951 . S
H756 C776 0.950 . S
H757 C777 0.950 . S
H758 C779 0.950 . S
H759 C782 0.950 . S
H760 C783 0.950 . S
H761 C785 0.950 . S
H762 C786 0.950 . S
H763 C787 0.951 . S
H764 C789 0.951 . S
H765 C791 0.950 . S
H766 C792 0.950 . S
H767 C794 0.950 . S
H768 C797 0.950 . S
H769 C798 0.950 . S
H770 C800 0.950 . S
H771 C801 0.950 . S
C772 H754 0.951 . S
C772 C773 1.366 . S
C772 C774 1.388 . S
C773 C772 1.366 . S
C773 C777 1.385 . S
C774 H755 0.951 . S
C774 C772 1.388 . S
C774 C775 1.366 . S
C775 C774 1.366 . S
C775 C776 1.414 . S
C775 C778 1.499 . S
C776 H756 0.950 . S
C776 C775 1.414 . S
C776 C777 1.374 . S
C777 H757 0.950 . S
C777 C773 1.385 . S
C777 C776 1.374 . S
C778 C775 1.499 . S
C778 C779 1.373 . S
C778 C780 1.389 . S
C779 H758 0.950 . S
C779 C778 1.373 . S
C779 C795 1.377 . S
C780 C778 1.389 . S
C780 C781 1.524 . S
C780 C794 1.377 . S
C781 C780 1.524 . S
C781 C782 1.397 . S
C781 C786 1.363 . S
C782 H759 0.950 . S
C782 C781 1.397 . S
C782 C783 1.334 . S
C783 H760 0.950 . S
C783 C782 1.334 . S
C783 C784 1.287 . S
C784 C783 1.287 . S
C784 C785 1.524 . S
C784 H803 0.913 . S
C785 H761 0.950 . S
C785 C784 1.524 . S
C785 C786 1.415 . S
C786 H762 0.950 . S
C786 C781 1.363 . S
C786 C785 1.415 . S
C787 H763 0.951 . S
C787 C788 1.366 . S
C787 C789 1.388 . S
C788 C787 1.366 . S
C788 C792 1.385 . S
C789 H764 0.951 . S
C789 C787 1.388 . S
C789 C790 1.366 . S
C790 C789 1.366 . S
C790 C791 1.414 . S
C790 C793 1.499 . S
C791 H765 0.950 . S
C791 C790 1.414 . S
C791 C792 1.374 . S
C792 H766 0.950 . S
C792 C788 1.385 . S
C792 C791 1.374 . S
C793 C790 1.499 . S
C793 C794 1.373 . S
C793 C795 1.389 . S
C794 H767 0.950 . S
C794 C780 1.377 . S
C794 C793 1.373 . S
C795 C779 1.377 . S
C795 C793 1.389 . S
C795 C796 1.524 . S
C796 C795 1.524 . S
C796 C797 1.397 . S
C796 C801 1.363 . S
C797 H768 0.950 . S
C797 C796 1.397 . S
C797 C798 1.334 . S
C798 H769 0.950 . S
C798 C797 1.334 . S
C798 C799 1.287 . S
C799 C798 1.287 . S
C799 C800 1.524 . S
C799 H802 0.999 . S
C800 H770 0.950 . S
C800 C799 1.524 . S
C800 C801 1.415 . S
C801 H771 0.950 . S
C801 C796 1.363 . S
C801 C800 1.415 . S
H802 C799 0.999 . S
H803 C784 0.913 . S
H804 C822 0.951 . S
H805 C824 0.951 . S
H806 C826 0.950 . S
H807 C827 0.950 . S
H808 C829 0.950 . S
H809 C832 0.950 . S
H810 C833 0.950 . S
H811 C835 0.950 . S
H812 C836 0.950 . S
H813 C837 0.951 . S
H814 C839 0.951 . S
H815 C841 0.950 . S
H816 C842 0.950 . S
H817 C844 0.950 . S
H818 C847 0.950 . S
H819 C848 0.950 . S
H820 C850 0.950 . S
H821 C851 0.950 . S
C822 H804 0.951 . S
C822 C823 1.366 . S
C822 C824 1.388 . S
C823 C822 1.366 . S
C823 C827 1.385 . S
C824 H805 0.951 . S
C824 C822 1.388 . S
C824 C825 1.366 . S
C825 C824 1.366 . S
C825 C826 1.414 . S
C825 C828 1.499 . S
C826 H806 0.950 . S
C826 C825 1.414 . S
C826 C827 1.374 . S
C827 H807 0.950 . S
C827 C823 1.385 . S
C827 C826 1.374 . S
C828 C825 1.499 . S
C828 C829 1.373 . S
C828 C830 1.389 . S
C829 H808 0.950 . S
C829 C828 1.373 . S
C829 C845 1.377 . S
C830 C828 1.389 . S
C830 C831 1.524 . S
C830 C844 1.377 . S
C831 C830 1.524 . S
C831 C832 1.397 . S
C831 C836 1.363 . S
C832 H809 0.950 . S
C832 C831 1.397 . S
C832 C833 1.334 . S
C833 H810 0.950 . S
C833 C832 1.334 . S
C833 C834 1.287 . S
C834 C833 1.287 . S
C834 C835 1.524 . S
C834 H853 0.913 . S
C835 H811 0.950 . S
C835 C834 1.524 . S
C835 C836 1.415 . S
C836 H812 0.950 . S
C836 C831 1.363 . S
C836 C835 1.415 . S
C837 H813 0.951 . S
C837 C838 1.366 . S
C837 C839 1.388 . S
C838 C837 1.366 . S
C838 C842 1.385 . S
C839 H814 0.951 . S
C839 C837 1.388 . S
C839 C840 1.366 . S
C840 C839 1.366 . S
C840 C841 1.414 . S
C840 C843 1.499 . S
C841 H815 0.950 . S
C841 C840 1.414 . S
C841 C842 1.374 . S
C842 H816 0.950 . S
C842 C838 1.385 . S
C842 C841 1.374 . S
C843 C840 1.499 . S
C843 C844 1.373 . S
C843 C845 1.389 . S
C844 H817 0.950 . S
C844 C830 1.377 . S
C844 C843 1.373 . S
C845 C829 1.377 . S
C845 C843 1.389 . S
C845 C846 1.524 . S
C846 C845 1.524 . S
C846 C847 1.397 . S
C846 C851 1.363 . S
C847 H818 0.950 . S
C847 C846 1.397 . S
C847 C848 1.334 . S
C848 H819 0.950 . S
C848 C847 1.334 . S
C848 C849 1.287 . S
C849 C848 1.287 . S
C849 C850 1.524 . S
C849 H852 0.999 . S
C850 H820 0.950 . S
C850 C849 1.524 . S
C850 C851 1.415 . S
C851 H821 0.950 . S
C851 C846 1.363 . S
C851 C850 1.415 . S
H852 C849 0.999 . S
H853 C834 0.913 . S
H854 C872 0.951 . S
H855 C874 0.951 . S
H856 C876 0.950 . S
H857 C877 0.950 . S
H858 C879 0.950 . S
H859 C882 0.950 . S
H860 C883 0.950 . S
H861 C885 0.949 1_545 S
H862 C886 0.950 . S
H863 C887 0.951 . S
H864 C889 0.951 . S
H865 C891 0.950 . S
H866 C892 0.950 . S
H867 C894 0.950 . S
H868 C897 0.950 . S
H869 C898 0.950 . S
H870 C900 0.950 . S
H871 C901 0.950 . S
C872 H854 0.951 . S
C872 C873 1.366 . S
C872 C874 1.388 . S
C873 C872 1.366 . S
C873 C877 1.385 . S
C874 H855 0.951 . S
C874 C872 1.388 . S
C874 C875 1.366 . S
C875 C874 1.366 . S
C875 C876 1.414 . S
C875 C878 1.499 . S
C876 H856 0.950 . S
C876 C875 1.414 . S
C876 C877 1.374 . S
C877 H857 0.950 . S
C877 C873 1.385 . S
C877 C876 1.374 . S
C878 C875 1.499 . S
C878 C879 1.373 . S
C878 C880 1.389 . S
C879 H858 0.950 . S
C879 C878 1.373 . S
C879 C895 1.377 . S
C880 C878 1.389 . S
C880 C881 1.524 . S
C880 C894 1.377 . S
C881 C880 1.524 . S
C881 C882 1.397 . S
C881 C886 1.363 . S
C882 H859 0.950 . S
C882 C881 1.397 . S
C882 C883 1.334 1_565 S
C883 H860 0.950 . S
C883 C882 1.334 1_545 S
C883 C884 1.287 . S
C884 C883 1.287 . S
C884 C885 1.523 1_545 S
C884 H903 0.913 . S
C885 H861 0.949 1_565 S
C885 C884 1.523 1_565 S
C885 C886 1.416 . S
C886 H862 0.950 . S
C886 C881 1.363 . S
C886 C885 1.416 . S
C887 H863 0.951 . S
C887 C888 1.366 . S
C887 C889 1.388 . S
C888 C887 1.366 . S
C888 C892 1.385 . S
C889 H864 0.951 . S
C889 C887 1.388 . S
C889 C890 1.366 . S
C890 C889 1.366 . S
C890 C891 1.414 . S
C890 C893 1.499 . S
C891 H865 0.950 . S
C891 C890 1.414 . S
C891 C892 1.374 . S
C892 H866 0.950 . S
C892 C888 1.385 . S
C892 C891 1.374 . S
C893 C890 1.499 . S
C893 C894 1.373 . S
C893 C895 1.389 . S
C894 H867 0.950 . S
C894 C880 1.377 . S
C894 C893 1.373 . S
C895 C879 1.377 . S
C895 C893 1.389 . S
C895 C896 1.524 . S
C896 C895 1.524 . S
C896 C897 1.397 . S
C896 C901 1.363 . S
C897 H868 0.950 . S
C897 C896 1.397 . S
C897 C898 1.334 . S
C898 H869 0.950 . S
C898 C897 1.334 . S
C898 C899 1.287 . S
C899 C898 1.287 . S
C899 C900 1.524 . S
C899 H902 0.999 . S
C900 H870 0.950 . S
C900 C899 1.524 . S
C900 C901 1.415 . S
C901 H871 0.950 . S
C901 C896 1.363 . S
C901 C900 1.415 . S
H902 C899 0.999 . S
H903 C884 0.913 . S
H904 C922 0.951 . S
H905 C924 0.951 . S
H906 C926 0.950 . S
H907 C927 0.950 . S
H908 C929 0.950 . S
H909 C932 0.950 . S
H910 C933 0.950 . S
H911 C935 0.950 . S
H912 C936 0.950 . S
H913 C937 0.951 . S
H914 C939 0.951 . S
H915 C941 0.950 . S
H916 C942 0.950 . S
H917 C944 0.950 . S
H918 C947 0.950 . S
H919 C948 0.950 . S
H920 C950 0.950 . S
H921 C951 0.950 . S
C922 H904 0.951 . S
C922 C923 1.366 . S
C922 C924 1.388 . S
C923 C922 1.366 . S
C923 C927 1.385 . S
C924 H905 0.951 . S
C924 C922 1.388 . S
C924 C925 1.366 . S
C925 C924 1.366 . S
C925 C926 1.414 . S
C925 C928 1.499 . S
C926 H906 0.950 . S
C926 C925 1.414 . S
C926 C927 1.374 . S
C927 H907 0.950 . S
C927 C923 1.385 . S
C927 C926 1.374 . S
C928 C925 1.499 . S
C928 C929 1.373 . S
C928 C930 1.389 . S
C929 H908 0.950 . S
C929 C928 1.373 . S
C929 C945 1.377 . S
C930 C928 1.389 . S
C930 C931 1.524 . S
C930 C944 1.377 . S
C931 C930 1.524 . S
C931 C932 1.397 . S
C931 C936 1.363 . S
C932 H909 0.950 . S
C932 C931 1.397 . S
C932 C933 1.334 . S
C933 H910 0.950 . S
C933 C932 1.334 . S
C933 C934 1.287 . S
C934 C933 1.287 . S
C934 C935 1.524 . S
C934 H953 0.913 . S
C935 H911 0.950 . S
C935 C934 1.524 . S
C935 C936 1.415 . S
C936 H912 0.950 . S
C936 C931 1.363 . S
C936 C935 1.415 . S
C937 H913 0.951 . S
C937 C938 1.366 . S
C937 C939 1.388 . S
C938 C937 1.366 . S
C938 C942 1.385 . S
C939 H914 0.951 . S
C939 C937 1.388 . S
C939 C940 1.366 . S
C940 C939 1.366 . S
C940 C941 1.414 . S
C940 C943 1.499 . S
C941 H915 0.950 . S
C941 C940 1.414 . S
C941 C942 1.374 . S
C942 H916 0.950 . S
C942 C938 1.385 . S
C942 C941 1.374 . S
C943 C940 1.499 . S
C943 C944 1.373 . S
C943 C945 1.389 . S
C944 H917 0.950 . S
C944 C930 1.377 . S
C944 C943 1.373 . S
C945 C929 1.377 . S
C945 C943 1.389 . S
C945 C946 1.524 . S
C946 C945 1.524 . S
C946 C947 1.397 . S
C946 C951 1.363 . S
C947 H918 0.950 . S
C947 C946 1.397 . S
C947 C948 1.334 . S
C948 H919 0.950 . S
C948 C947 1.334 . S
C948 C949 1.287 . S
C949 C948 1.287 . S
C949 C950 1.524 . S
C949 H952 0.999 . S
C950 H920 0.950 . S
C950 C949 1.524 . S
C950 C951 1.415 . S
C951 H921 0.950 . S
C951 C946 1.363 . S
C951 C950 1.415 . S
H952 C949 0.999 . S
H953 C934 0.913 . S
H954 C972 0.951 . S
H955 C974 0.951 . S
H956 C976 0.950 . S
H957 C977 0.950 . S
H958 C979 0.950 . S
H959 C982 0.950 . S
H960 C983 0.950 . S
H961 C985 0.950 . S
H962 C986 0.950 . S
H963 C987 0.951 . S
H964 C989 0.951 . S
H965 C991 0.950 . S
H966 C992 0.950 . S
H967 C994 0.950 . S
H968 C997 0.950 . S
H969 C998 0.950 . S
H970 C1000 0.950 . S
H971 C1001 0.950 . S
C972 H954 0.951 . S
C972 C973 1.366 . S
C972 C974 1.388 . S
C973 C972 1.366 . S
C973 C977 1.385 . S
C974 H955 0.951 . S
C974 C972 1.388 . S
C974 C975 1.366 . S
C975 C974 1.366 . S
C975 C976 1.414 . S
C975 C978 1.499 . S
C976 H956 0.950 . S
C976 C975 1.414 . S
C976 C977 1.374 . S
C977 H957 0.950 . S
C977 C973 1.385 . S
C977 C976 1.374 . S
C978 C975 1.499 . S
C978 C979 1.373 . S
C978 C980 1.389 . S
C979 H958 0.950 . S
C979 C978 1.373 . S
C979 C995 1.377 . S
C980 C978 1.389 . S
C980 C981 1.524 . S
C980 C994 1.377 . S
C981 C980 1.524 . S
C981 C982 1.397 . S
C981 C986 1.363 . S
C982 H959 0.950 . S
C982 C981 1.397 . S
C982 C983 1.334 . S
C983 H960 0.950 . S
C983 C982 1.334 . S
C983 C984 1.287 . S
C984 C983 1.287 . S
C984 C985 1.524 . S
C984 H1003 0.913 . S
C985 H961 0.950 . S
C985 C984 1.524 . S
C985 C986 1.415 . S
C986 H962 0.950 . S
C986 C981 1.363 . S
C986 C985 1.415 . S
C987 H963 0.951 . S
C987 C988 1.366 . S
C987 C989 1.388 . S
C988 C987 1.366 . S
C988 C992 1.385 . S
C989 H964 0.951 . S
C989 C987 1.388 . S
C989 C990 1.366 . S
C990 C989 1.366 . S
C990 C991 1.414 . S
C990 C993 1.499 . S
C991 H965 0.950 . S
C991 C990 1.414 . S
C991 C992 1.374 . S
C992 H966 0.950 . S
C992 C988 1.385 . S
C992 C991 1.374 . S
C993 C990 1.499 . S
C993 C994 1.373 . S
C993 C995 1.389 . S
C994 H967 0.950 . S
C994 C980 1.377 . S
C994 C993 1.373 . S
C995 C979 1.377 . S
C995 C993 1.389 . S
C995 C996 1.524 . S
C996 C995 1.524 . S
C996 C997 1.397 . S
C996 C1001 1.363 . S
C997 H968 0.950 . S
C997 C996 1.397 . S
C997 C998 1.334 . S
C998 H969 0.950 . S
C998 C997 1.334 . S
C998 C999 1.287 . S
C999 C998 1.287 . S
C999 C1000 1.524 . S
C999 H1002 0.999 . S
C1000 H970 0.950 . S
C1000 C999 1.524 . S
C1000 C1001 1.415 . S
C1001 H971 0.950 . S
C1001 C996 1.363 . S
C1001 C1000 1.415 . S
H1002 C999 0.999 . S
H1003 C984 0.913 . S
H1004 C1022 0.951 . S
H1005 C1024 0.951 . S
H1006 C1026 0.950 . S
H1007 C1027 0.950 . S
H1008 C1029 0.950 . S
H1009 C1032 0.950 . S
H1010 C1033 0.950 . S
H1011 C1035 0.950 . S
H1012 C1036 0.950 . S
H1013 C1037 0.951 . S
H1014 C1039 0.951 . S
H1015 C1041 0.950 . S
H1016 C1042 0.950 . S
H1017 C1044 0.950 . S
H1018 C1047 0.950 . S
H1019 C1048 0.950 . S
H1020 C1050 0.950 . S
H1021 C1051 0.950 . S
C1022 H1004 0.951 . S
C1022 C1023 1.366 . S
C1022 C1024 1.388 . S
C1023 C1022 1.366 . S
C1023 C1027 1.385 . S
C1024 H1005 0.951 . S
C1024 C1022 1.388 . S
C1024 C1025 1.366 . S
C1025 C1024 1.366 . S
C1025 C1026 1.414 . S
C1025 C1028 1.499 . S
C1026 H1006 0.950 . S
C1026 C1025 1.414 . S
C1026 C1027 1.374 . S
C1027 H1007 0.950 . S
C1027 C1023 1.385 . S
C1027 C1026 1.374 . S
C1028 C1025 1.499 . S
C1028 C1029 1.373 . S
C1028 C1030 1.389 . S
C1029 H1008 0.950 . S
C1029 C1028 1.373 . S
C1029 C1045 1.377 . S
C1030 C1028 1.389 . S
C1030 C1031 1.524 . S
C1030 C1044 1.377 . S
C1031 C1030 1.524 . S
C1031 C1032 1.397 . S
C1031 C1036 1.363 . S
C1032 H1009 0.950 . S
C1032 C1031 1.397 . S
C1032 C1033 1.334 . S
C1033 H1010 0.950 . S
C1033 C1032 1.334 . S
C1033 C1034 1.287 . S
C1034 C1033 1.287 . S
C1034 C1035 1.524 . S
C1034 H1053 0.913 . S
C1035 H1011 0.950 . S
C1035 C1034 1.524 . S
C1035 C1036 1.415 . S
C1036 H1012 0.950 . S
C1036 C1031 1.363 . S
C1036 C1035 1.415 . S
C1037 H1013 0.951 . S
C1037 C1038 1.366 . S
C1037 C1039 1.388 . S
C1038 C1037 1.366 . S
C1038 C1042 1.385 . S
C1039 H1014 0.951 . S
C1039 C1037 1.388 . S
C1039 C1040 1.366 . S
C1040 C1039 1.366 . S
C1040 C1041 1.414 . S
C1040 C1043 1.499 . S
C1041 H1015 0.950 . S
C1041 C1040 1.414 . S
C1041 C1042 1.374 . S
C1042 H1016 0.950 . S
C1042 C1038 1.385 . S
C1042 C1041 1.374 . S
C1043 C1040 1.499 . S
C1043 C1044 1.373 . S
C1043 C1045 1.389 . S
C1044 H1017 0.950 . S
C1044 C1030 1.377 . S
C1044 C1043 1.373 . S
C1045 C1029 1.377 . S
C1045 C1043 1.389 . S
C1045 C1046 1.524 . S
C1046 C1045 1.524 . S
C1046 C1047 1.397 . S
C1046 C1051 1.363 . S
C1047 H1018 0.950 . S
C1047 C1046 1.397 . S
C1047 C1048 1.334 . S
C1048 H1019 0.950 . S
C1048 C1047 1.334 . S
C1048 C1049 1.287 . S
C1049 C1048 1.287 . S
C1049 C1050 1.524 . S
C1049 H1052 0.999 . S
C1050 H1020 0.950 . S
C1050 C1049 1.524 . S
C1050 C1051 1.415 . S
C1051 H1021 0.950 . S
C1051 C1046 1.363 . S
C1051 C1050 1.415 . S
H1052 C1049 0.999 . S
H1053 C1034 0.913 . S
H1054 C1072 0.951 . S
H1055 C1074 0.951 . S
H1056 C1076 0.950 . S
H1057 C1077 0.950 . S
H1058 C1079 0.950 . S
H1059 C1082 0.950 . S
H1060 C1083 0.950 . S
H1061 C1085 0.950 . S
H1062 C1086 0.950 . S
H1063 C1087 0.951 . S
H1064 C1089 0.951 . S
H1065 C1091 0.950 . S
H1066 C1092 0.950 . S
H1067 C1094 0.950 . S
H1068 C1097 0.950 . S
H1069 C1098 0.950 . S
H1070 C1100 0.950 . S
H1071 C1101 0.950 . S
C1072 H1054 0.951 . S
C1072 C1073 1.366 . S
C1072 C1074 1.388 . S
C1073 C1072 1.366 . S
C1073 C1077 1.385 . S
C1074 H1055 0.951 . S
C1074 C1072 1.388 . S
C1074 C1075 1.366 . S
C1075 C1074 1.366 . S
C1075 C1076 1.414 . S
C1075 C1078 1.499 . S
C1076 H1056 0.950 . S
C1076 C1075 1.414 . S
C1076 C1077 1.374 . S
C1077 H1057 0.950 . S
C1077 C1073 1.385 . S
C1077 C1076 1.374 . S
C1078 C1075 1.499 . S
C1078 C1079 1.373 . S
C1078 C1080 1.389 . S
C1079 H1058 0.950 . S
C1079 C1078 1.373 . S
C1079 C1095 1.377 . S
C1080 C1078 1.389 . S
C1080 C1081 1.524 . S
C1080 C1094 1.377 . S
C1081 C1080 1.524 . S
C1081 C1082 1.397 . S
C1081 C1086 1.363 . S
C1082 H1059 0.950 . S
C1082 C1081 1.397 . S
C1082 C1083 1.334 . S
C1083 H1060 0.950 . S
C1083 C1082 1.334 . S
C1083 C1084 1.287 . S
C1084 C1083 1.287 . S
C1084 C1085 1.524 . S
C1084 H1103 0.913 . S
C1085 H1061 0.950 . S
C1085 C1084 1.524 . S
C1085 C1086 1.415 . S
C1086 H1062 0.950 . S
C1086 C1081 1.363 . S
C1086 C1085 1.415 . S
C1087 H1063 0.951 . S
C1087 C1088 1.366 . S
C1087 C1089 1.388 . S
C1088 C1087 1.366 . S
C1088 C1092 1.385 . S
C1089 H1064 0.951 . S
C1089 C1087 1.388 . S
C1089 C1090 1.366 . S
C1090 C1089 1.366 . S
C1090 C1091 1.414 . S
C1090 C1093 1.499 . S
C1091 H1065 0.950 . S
C1091 C1090 1.414 . S
C1091 C1092 1.374 . S
C1092 H1066 0.950 . S
C1092 C1088 1.385 . S
C1092 C1091 1.374 . S
C1093 C1090 1.499 . S
C1093 C1094 1.373 . S
C1093 C1095 1.389 . S
C1094 H1067 0.950 . S
C1094 C1080 1.377 . S
C1094 C1093 1.373 . S
C1095 C1079 1.377 . S
C1095 C1093 1.389 . S
C1095 C1096 1.524 . S
C1096 C1095 1.524 . S
C1096 C1097 1.397 . S
C1096 C1101 1.363 . S
C1097 H1068 0.950 . S
C1097 C1096 1.397 . S
C1097 C1098 1.334 . S
C1098 H1069 0.950 . S
C1098 C1097 1.334 . S
C1098 C1099 1.287 . S
C1099 C1098 1.287 . S
C1099 C1100 1.524 . S
C1099 H1102 0.999 . S
C1100 H1070 0.950 . S
C1100 C1099 1.524 . S
C1100 C1101 1.415 . S
C1101 H1071 0.950 . S
C1101 C1096 1.363 . S
C1101 C1100 1.415 . S
H1102 C1099 0.999 . S
H1103 C1084 0.913 . S
H1104 C1122 0.951 . S
H1105 C1124 0.951 . S
H1106 C1126 0.950 . S
H1107 C1127 0.950 . S
H1108 C1129 0.950 . S
H1109 C1132 0.950 . S
H1110 C1133 0.950 . S
H1111 C1135 0.950 . S
H1112 C1136 0.950 . S
H1113 C1137 0.951 . S
H1114 C1139 0.951 . S
H1115 C1141 0.950 . S
H1116 C1142 0.950 . S
H1117 C1144 0.950 . S
H1118 C1147 0.950 . S
H1119 C1148 0.950 . S
H1120 C1150 0.950 . S
H1121 C1151 0.950 . S
C1122 H1104 0.951 . S
C1122 C1123 1.366 . S
C1122 C1124 1.388 . S
C1123 C1122 1.366 . S
C1123 C1127 1.385 . S
C1124 H1105 0.951 . S
C1124 C1122 1.388 . S
C1124 C1125 1.366 . S
C1125 C1124 1.366 . S
C1125 C1126 1.414 . S
C1125 C1128 1.499 . S
C1126 H1106 0.950 . S
C1126 C1125 1.414 . S
C1126 C1127 1.374 . S
C1127 H1107 0.950 . S
C1127 C1123 1.385 . S
C1127 C1126 1.374 . S
C1128 C1125 1.499 . S
C1128 C1129 1.373 . S
C1128 C1130 1.389 . S
C1129 H1108 0.950 . S
C1129 C1128 1.373 . S
C1129 C1145 1.377 . S
C1130 C1128 1.389 . S
C1130 C1131 1.524 . S
C1130 C1144 1.377 . S
C1131 C1130 1.524 . S
C1131 C1132 1.397 . S
C1131 C1136 1.363 . S
C1132 H1109 0.950 . S
C1132 C1131 1.397 . S
C1132 C1133 1.334 . S
C1133 H1110 0.950 . S
C1133 C1132 1.334 . S
C1133 C1134 1.287 . S
C1134 C1133 1.287 . S
C1134 C1135 1.524 . S
C1134 H1153 0.913 . S
C1135 H1111 0.950 . S
C1135 C1134 1.524 . S
C1135 C1136 1.415 . S
C1136 H1112 0.950 . S
C1136 C1131 1.363 . S
C1136 C1135 1.415 . S
C1137 H1113 0.951 . S
C1137 C1138 1.366 . S
C1137 C1139 1.388 . S
C1138 C1137 1.366 . S
C1138 C1142 1.385 . S
C1139 H1114 0.951 . S
C1139 C1137 1.388 . S
C1139 C1140 1.366 . S
C1140 C1139 1.366 . S
C1140 C1141 1.414 . S
C1140 C1143 1.499 . S
C1141 H1115 0.950 . S
C1141 C1140 1.414 . S
C1141 C1142 1.374 . S
C1142 H1116 0.950 . S
C1142 C1138 1.385 . S
C1142 C1141 1.374 . S
C1143 C1140 1.499 . S
C1143 C1144 1.373 . S
C1143 C1145 1.389 . S
C1144 H1117 0.950 . S
C1144 C1130 1.377 . S
C1144 C1143 1.373 . S
C1145 C1129 1.377 . S
C1145 C1143 1.389 . S
C1145 C1146 1.524 . S
C1146 C1145 1.524 . S
C1146 C1147 1.397 . S
C1146 C1151 1.363 . S
C1147 H1118 0.950 . S
C1147 C1146 1.397 . S
C1147 C1148 1.334 . S
C1148 H1119 0.950 . S
C1148 C1147 1.334 . S
C1148 C1149 1.287 . S
C1149 C1148 1.287 . S
C1149 C1150 1.524 . S
C1149 H1152 0.999 . S
C1150 H1120 0.950 . S
C1150 C1149 1.524 . S
C1150 C1151 1.415 . S
C1151 H1121 0.950 . S
C1151 C1146 1.363 . S
C1151 C1150 1.415 . S
H1152 C1149 0.999 . S
H1153 C1134 0.913 . S
H1154 C1172 0.951 . S
H1155 C1174 0.951 . S
H1156 C1176 0.950 . S
H1157 C1177 0.950 . S
H1158 C1179 0.950 . S
H1159 C1182 0.950 . S
H1160 C1183 0.950 . S
H1161 C1185 0.950 . S
H1162 C1186 0.950 . S
H1163 C1187 0.951 . S
H1164 C1189 0.951 . S
H1165 C1191 0.950 . S
H1166 C1192 0.950 . S
H1167 C1194 0.950 . S
H1168 C1197 0.950 . S
H1169 C1198 0.950 . S
H1170 C1200 0.950 . S
H1171 C1201 0.950 . S
C1172 H1154 0.951 . S
C1172 C1173 1.366 . S
C1172 C1174 1.388 . S
C1173 C1172 1.366 . S
C1173 C1177 1.385 . S
C1174 H1155 0.951 . S
C1174 C1172 1.388 . S
C1174 C1175 1.366 . S
C1175 C1174 1.366 . S
C1175 C1176 1.414 . S
C1175 C1178 1.499 . S
C1176 H1156 0.950 . S
C1176 C1175 1.414 . S
C1176 C1177 1.374 . S
C1177 H1157 0.950 . S
C1177 C1173 1.385 . S
C1177 C1176 1.374 . S
C1178 C1175 1.499 . S
C1178 C1179 1.373 . S
C1178 C1180 1.389 . S
C1179 H1158 0.950 . S
C1179 C1178 1.373 . S
C1179 C1195 1.377 . S
C1180 C1178 1.389 . S
C1180 C1181 1.524 . S
C1180 C1194 1.377 . S
C1181 C1180 1.524 . S
C1181 C1182 1.397 . S
C1181 C1186 1.363 . S
C1182 H1159 0.950 . S
C1182 C1181 1.397 . S
C1182 C1183 1.334 . S
C1183 H1160 0.950 . S
C1183 C1182 1.334 . S
C1183 C1184 1.287 . S
C1184 C1183 1.287 . S
C1184 C1185 1.524 . S
C1184 H1203 0.913 . S
C1185 H1161 0.950 . S
C1185 C1184 1.524 . S
C1185 C1186 1.415 . S
C1186 H1162 0.950 . S
C1186 C1181 1.363 . S
C1186 C1185 1.415 . S
C1187 H1163 0.951 . S
C1187 C1188 1.366 . S
C1187 C1189 1.388 . S
C1188 C1187 1.366 . S
C1188 C1192 1.385 . S
C1189 H1164 0.951 . S
C1189 C1187 1.388 . S
C1189 C1190 1.366 . S
C1190 C1189 1.366 . S
C1190 C1191 1.414 . S
C1190 C1193 1.499 . S
C1191 H1165 0.950 . S
C1191 C1190 1.414 . S
C1191 C1192 1.374 . S
C1192 H1166 0.950 . S
C1192 C1188 1.385 . S
C1192 C1191 1.374 . S
C1193 C1190 1.499 . S
C1193 C1194 1.373 . S
C1193 C1195 1.389 . S
C1194 H1167 0.950 . S
C1194 C1180 1.377 . S
C1194 C1193 1.373 . S
C1195 C1179 1.377 . S
C1195 C1193 1.389 . S
C1195 C1196 1.524 . S
C1196 C1195 1.524 . S
C1196 C1197 1.397 . S
C1196 C1201 1.363 . S
C1197 H1168 0.950 . S
C1197 C1196 1.397 . S
C1197 C1198 1.334 . S
C1198 H1169 0.950 . S
C1198 C1197 1.334 . S
C1198 C1199 1.287 . S
C1199 C1198 1.287 . S
C1199 C1200 1.524 . S
C1199 H1202 0.999 . S
C1200 H1170 0.950 . S
C1200 C1199 1.524 . S
C1200 C1201 1.415 . S
C1201 H1171 0.950 . S
C1201 C1196 1.363 . S
C1201 C1200 1.415 . S
H1202 C1199 0.999 . S
H1203 C1184 0.913 . S
H1204 C1222 0.951 . S
H1205 C1224 0.951 . S
H1206 C1226 0.950 . S
H1207 C1227 0.950 . S
H1208 C1229 0.950 . S
H1209 C1232 0.950 . S
H1210 C1233 0.950 . S
H1211 C1235 0.950 1_455 S
H1212 C1236 0.950 . S
H1213 C1237 0.951 . S
H1214 C1239 0.951 . S
H1215 C1241 0.950 . S
H1216 C1242 0.950 . S
H1217 C1244 0.950 . S
H1218 C1247 0.950 . S
H1219 C1248 0.950 . S
H1220 C1250 0.950 . S
H1221 C1251 0.950 . S
C1222 H1204 0.951 . S
C1222 C1223 1.366 . S
C1222 C1224 1.388 . S
C1223 C1222 1.366 . S
C1223 C1227 1.385 . S
C1224 H1205 0.951 . S
C1224 C1222 1.388 . S
C1224 C1225 1.366 . S
C1225 C1224 1.366 . S
C1225 C1226 1.414 . S
C1225 C1228 1.499 . S
C1226 H1206 0.950 . S
C1226 C1225 1.414 . S
C1226 C1227 1.374 . S
C1227 H1207 0.950 . S
C1227 C1223 1.385 . S
C1227 C1226 1.374 . S
C1228 C1225 1.499 . S
C1228 C1229 1.373 . S
C1228 C1230 1.389 . S
C1229 H1208 0.950 . S
C1229 C1228 1.373 . S
C1229 C1245 1.377 . S
C1230 C1228 1.389 . S
C1230 C1231 1.524 . S
C1230 C1244 1.377 . S
C1231 C1230 1.524 . S
C1231 C1232 1.397 . S
C1231 C1236 1.363 . S
C1232 H1209 0.950 . S
C1232 C1231 1.397 . S
C1232 C1233 1.334 . S
C1233 H1210 0.950 . S
C1233 C1232 1.334 . S
C1233 C1234 1.287 1_655 S
C1234 C1233 1.287 1_455 S
C1234 C1235 1.524 1_455 S
C1234 H1253 0.913 . S
C1235 H1211 0.950 1_655 S
C1235 C1234 1.524 1_655 S
C1235 C1236 1.415 . S
C1236 H1212 0.950 . S
C1236 C1231 1.363 . S
C1236 C1235 1.415 . S
C1237 H1213 0.951 . S
C1237 C1238 1.366 . S
C1237 C1239 1.388 . S
C1238 C1237 1.366 . S
C1238 C1242 1.385 . S
C1239 H1214 0.951 . S
C1239 C1237 1.388 . S
C1239 C1240 1.366 . S
C1240 C1239 1.366 . S
C1240 C1241 1.414 . S
C1240 C1243 1.499 . S
C1241 H1215 0.950 . S
C1241 C1240 1.414 . S
C1241 C1242 1.374 . S
C1242 H1216 0.950 . S
C1242 C1238 1.385 . S
C1242 C1241 1.374 . S
C1243 C1240 1.499 . S
C1243 C1244 1.373 . S
C1243 C1245 1.389 . S
C1244 H1217 0.950 . S
C1244 C1230 1.377 . S
C1244 C1243 1.373 . S
C1245 C1229 1.377 . S
C1245 C1243 1.389 . S
C1245 C1246 1.524 . S
C1246 C1245 1.524 . S
C1246 C1247 1.397 . S
C1246 C1251 1.363 . S
C1247 H1218 0.950 . S
C1247 C1246 1.397 . S
C1247 C1248 1.334 . S
C1248 H1219 0.950 . S
C1248 C1247 1.334 . S
C1248 C1249 1.287 . S
C1249 C1248 1.287 . S
C1249 C1250 1.524 . S
C1249 H1252 0.999 . S
C1250 H1220 0.950 . S
C1250 C1249 1.524 . S
C1250 C1251 1.415 . S
C1251 H1221 0.950 . S
C1251 C1246 1.363 . S
C1251 C1250 1.415 . S
H1252 C1249 0.999 . S
H1253 C1234 0.913 . S
H1254 C1272 0.951 . S
H1255 C1274 0.951 . S
H1256 C1276 0.950 . S
H1257 C1277 0.950 . S
H1258 C1279 0.950 . S
H1259 C1282 0.950 . S
H1260 C1283 0.950 . S
H1261 C1285 0.950 . S
H1262 C1286 0.950 . S
H1263 C1287 0.951 . S
H1264 C1289 0.951 . S
H1265 C1291 0.950 . S
H1266 C1292 0.950 . S
H1267 C1294 0.950 . S
H1268 C1297 0.950 . S
H1269 C1298 0.950 . S
H1270 C1300 0.950 . S
H1271 C1301 0.950 . S
C1272 H1254 0.951 . S
C1272 C1273 1.366 . S
C1272 C1274 1.388 . S
C1273 C1272 1.366 . S
C1273 C1277 1.385 . S
C1274 H1255 0.951 . S
C1274 C1272 1.388 . S
C1274 C1275 1.366 . S
C1275 C1274 1.366 . S
C1275 C1276 1.414 . S
C1275 C1278 1.499 . S
C1276 H1256 0.950 . S
C1276 C1275 1.414 . S
C1276 C1277 1.374 . S
C1277 H1257 0.950 . S
C1277 C1273 1.385 . S
C1277 C1276 1.374 . S
C1278 C1275 1.499 . S
C1278 C1279 1.373 . S
C1278 C1280 1.389 . S
C1279 H1258 0.950 . S
C1279 C1278 1.373 . S
C1279 C1295 1.377 . S
C1280 C1278 1.389 . S
C1280 C1281 1.524 . S
C1280 C1294 1.377 . S
C1281 C1280 1.524 . S
C1281 C1282 1.397 . S
C1281 C1286 1.363 . S
C1282 H1259 0.950 . S
C1282 C1281 1.397 . S
C1282 C1283 1.334 . S
C1283 H1260 0.950 . S
C1283 C1282 1.334 . S
C1283 C1284 1.287 . S
C1284 C1283 1.287 . S
C1284 C1285 1.524 . S
C1284 H1303 0.913 . S
C1285 H1261 0.950 . S
C1285 C1284 1.524 . S
C1285 C1286 1.415 . S
C1286 H1262 0.950 . S
C1286 C1281 1.363 . S
C1286 C1285 1.415 . S
C1287 H1263 0.951 . S
C1287 C1288 1.366 . S
C1287 C1289 1.388 . S
C1288 C1287 1.366 . S
C1288 C1292 1.385 . S
C1289 H1264 0.951 . S
C1289 C1287 1.388 . S
C1289 C1290 1.366 . S
C1290 C1289 1.366 . S
C1290 C1291 1.414 . S
C1290 C1293 1.499 . S
C1291 H1265 0.950 . S
C1291 C1290 1.414 . S
C1291 C1292 1.374 . S
C1292 H1266 0.950 . S
C1292 C1288 1.385 . S
C1292 C1291 1.374 . S
C1293 C1290 1.499 . S
C1293 C1294 1.373 . S
C1293 C1295 1.389 . S
C1294 H1267 0.950 . S
C1294 C1280 1.377 . S
C1294 C1293 1.373 . S
C1295 C1279 1.377 . S
C1295 C1293 1.389 . S
C1295 C1296 1.524 . S
C1296 C1295 1.524 . S
C1296 C1297 1.397 . S
C1296 C1301 1.363 . S
C1297 H1268 0.950 . S
C1297 C1296 1.397 . S
C1297 C1298 1.334 . S
C1298 H1269 0.950 . S
C1298 C1297 1.334 . S
C1298 C1299 1.287 . S
C1299 C1298 1.287 . S
C1299 C1300 1.524 . S
C1299 H1302 0.999 . S
C1300 H1270 0.950 . S
C1300 C1299 1.524 . S
C1300 C1301 1.415 . S
C1301 H1271 0.950 . S
C1301 C1296 1.363 . S
C1301 C1300 1.415 . S
H1302 C1299 0.999 . S
H1303 C1284 0.913 . S
H1304 C1322 0.951 . S
H1305 C1324 0.951 . S
H1306 C1326 0.950 . S
H1307 C1327 0.950 . S
H1308 C1329 0.950 . S
H1309 C1332 0.950 . S
H1310 C1333 0.950 . S
H1311 C1335 0.950 . S
H1312 C1336 0.950 . S
H1313 C1337 0.951 . S
H1314 C1339 0.951 . S
H1315 C1341 0.950 . S
H1316 C1342 0.950 . S
H1317 C1344 0.950 . S
H1318 C1347 0.950 . S
H1319 C1348 0.950 . S
H1320 C1350 0.950 . S
H1321 C1351 0.950 . S
C1322 H1304 0.951 . S
C1322 C1323 1.366 . S
C1322 C1324 1.388 . S
C1323 C1322 1.366 . S
C1323 C1327 1.385 . S
C1324 H1305 0.951 . S
C1324 C1322 1.388 . S
C1324 C1325 1.366 . S
C1325 C1324 1.366 . S
C1325 C1326 1.414 . S
C1325 C1328 1.499 . S
C1326 H1306 0.950 . S
C1326 C1325 1.414 . S
C1326 C1327 1.374 . S
C1327 H1307 0.950 . S
C1327 C1323 1.385 . S
C1327 C1326 1.374 . S
C1328 C1325 1.499 . S
C1328 C1329 1.373 . S
C1328 C1330 1.389 . S
C1329 H1308 0.950 . S
C1329 C1328 1.373 . S
C1329 C1345 1.377 . S
C1330 C1328 1.389 . S
C1330 C1331 1.524 . S
C1330 C1344 1.377 . S
C1331 C1330 1.524 . S
C1331 C1332 1.397 . S
C1331 C1336 1.363 . S
C1332 H1309 0.950 . S
C1332 C1331 1.397 . S
C1332 C1333 1.334 . S
C1333 H1310 0.950 . S
C1333 C1332 1.334 . S
C1333 C1334 1.287 . S
C1334 C1333 1.287 . S
C1334 C1335 1.524 . S
C1334 H1353 0.913 . S
C1335 H1311 0.950 . S
C1335 C1334 1.524 . S
C1335 C1336 1.415 . S
C1336 H1312 0.950 . S
C1336 C1331 1.363 . S
C1336 C1335 1.415 . S
C1337 H1313 0.951 . S
C1337 C1338 1.366 . S
C1337 C1339 1.388 . S
C1338 C1337 1.366 . S
C1338 C1342 1.385 . S
C1339 H1314 0.951 . S
C1339 C1337 1.388 . S
C1339 C1340 1.366 . S
C1340 C1339 1.366 . S
C1340 C1341 1.414 . S
C1340 C1343 1.499 . S
C1341 H1315 0.950 . S
C1341 C1340 1.414 . S
C1341 C1342 1.374 . S
C1342 H1316 0.950 . S
C1342 C1338 1.385 . S
C1342 C1341 1.374 . S
C1343 C1340 1.499 . S
C1343 C1344 1.373 . S
C1343 C1345 1.389 . S
C1344 H1317 0.950 . S
C1344 C1330 1.377 . S
C1344 C1343 1.373 . S
C1345 C1329 1.377 . S
C1345 C1343 1.389 . S
C1345 C1346 1.524 . S
C1346 C1345 1.524 . S
C1346 C1347 1.397 . S
C1346 C1351 1.363 . S
C1347 H1318 0.950 . S
C1347 C1346 1.397 . S
C1347 C1348 1.334 . S
C1348 H1319 0.950 . S
C1348 C1347 1.334 . S
C1348 C1349 1.287 . S
C1349 C1348 1.287 . S
C1349 C1350 1.524 . S
C1349 H1352 0.999 . S
C1350 H1320 0.950 . S
C1350 C1349 1.524 . S
C1350 C1351 1.415 . S
C1351 H1321 0.950 . S
C1351 C1346 1.363 . S
C1351 C1350 1.415 . S
H1352 C1349 0.999 . S
H1353 C1334 0.913 . S
H1354 C1372 0.951 . S
H1355 C1374 0.951 . S
H1356 C1376 0.950 . S
H1357 C1377 0.950 . S
H1358 C1379 0.950 . S
H1359 C1382 0.950 . S
H1360 C1383 0.950 . S
H1361 C1385 0.950 . S
H1362 C1386 0.950 . S
H1363 C1387 0.951 . S
H1364 C1389 0.951 . S
H1365 C1391 0.950 . S
H1366 C1392 0.950 . S
H1367 C1394 0.950 . S
H1368 C1397 0.950 . S
H1369 C1398 0.950 . S
H1370 C1400 0.950 . S
H1371 C1401 0.950 . S
C1372 H1354 0.951 . S
C1372 C1373 1.366 . S
C1372 C1374 1.388 . S
C1373 C1372 1.366 . S
C1373 C1377 1.385 . S
C1374 H1355 0.951 . S
C1374 C1372 1.388 . S
C1374 C1375 1.366 . S
C1375 C1374 1.366 . S
C1375 C1376 1.414 . S
C1375 C1378 1.499 . S
C1376 H1356 0.950 . S
C1376 C1375 1.414 . S
C1376 C1377 1.374 . S
C1377 H1357 0.950 . S
C1377 C1373 1.385 . S
C1377 C1376 1.374 . S
C1378 C1375 1.499 . S
C1378 C1379 1.373 . S
C1378 C1380 1.389 . S
C1379 H1358 0.950 . S
C1379 C1378 1.373 . S
C1379 C1395 1.377 . S
C1380 C1378 1.389 . S
C1380 C1381 1.524 . S
C1380 C1394 1.377 . S
C1381 C1380 1.524 . S
C1381 C1382 1.397 . S
C1381 C1386 1.363 . S
C1382 H1359 0.950 . S
C1382 C1381 1.397 . S
C1382 C1383 1.334 . S
C1383 H1360 0.950 . S
C1383 C1382 1.334 . S
C1383 C1384 1.287 . S
C1384 C1383 1.287 . S
C1384 C1385 1.524 . S
C1384 H1403 0.913 . S
C1385 H1361 0.950 . S
C1385 C1384 1.524 . S
C1385 C1386 1.415 . S
C1386 H1362 0.950 . S
C1386 C1381 1.363 . S
C1386 C1385 1.415 . S
C1387 H1363 0.951 . S
C1387 C1388 1.366 . S
C1387 C1389 1.388 . S
C1388 C1387 1.366 . S
C1388 C1392 1.385 . S
C1389 H1364 0.951 . S
C1389 C1387 1.388 . S
C1389 C1390 1.366 . S
C1390 C1389 1.366 . S
C1390 C1391 1.414 . S
C1390 C1393 1.499 . S
C1391 H1365 0.950 . S
C1391 C1390 1.414 . S
C1391 C1392 1.374 . S
C1392 H1366 0.950 . S
C1392 C1388 1.385 . S
C1392 C1391 1.374 . S
C1393 C1390 1.499 . S
C1393 C1394 1.373 . S
C1393 C1395 1.389 . S
C1394 H1367 0.950 . S
C1394 C1380 1.377 . S
C1394 C1393 1.373 . S
C1395 C1379 1.377 . S
C1395 C1393 1.389 . S
C1395 C1396 1.524 . S
C1396 C1395 1.524 . S
C1396 C1397 1.397 . S
C1396 C1401 1.363 . S
C1397 H1368 0.950 . S
C1397 C1396 1.397 . S
C1397 C1398 1.334 . S
C1398 H1369 0.950 . S
C1398 C1397 1.334 . S
C1398 C1399 1.287 . S
C1399 C1398 1.287 . S
C1399 C1400 1.524 . S
C1399 H1402 0.999 . S
C1400 H1370 0.950 . S
C1400 C1399 1.524 . S
C1400 C1401 1.415 . S
C1401 H1371 0.950 . S
C1401 C1396 1.363 . S
C1401 C1400 1.415 . S
H1402 C1399 0.999 . S
H1403 C1384 0.913 . S
C223 C12 1.465 . S
C238 C127 1.564 . S
C273 C30 1.457 . S
C288 C140 1.541 . S
C338 C162 1.535 . S
C323 C51 1.476 . S
C388 C175 1.515 . S
C373 C72 1.458 . S
C438 C188 1.538 . S
C423 C96 1.468 . S
C488 C201 1.518 . S
C473 C117 1.446 . S
C523 C38 1.473 . S
C538 C157 1.534 . S
C573 C59 1.450 . S
C588 C170 1.513 . S
C638 C183 1.524 . S
C623 C80 1.463 . S
C688 C196 1.492 . S
C673 C103 1.456 . S
C723 C124 1.479 . S
C738 C129 1.547 . S
C788 C142 1.535 . S
C773 C19 1.467 . S
C838 C168 1.533 . S
C823 C17 1.473 . S
C873 C40 1.464 . S
C888 C181 1.499 . S
C938 C194 1.511 . S
C923 C61 1.477 . S
C973 C82 1.454 . S
C988 C131 1.524 . S
C1023 C101 1.464 . S
C1038 C144 1.559 . S
C1073 C122 1.453 . S
C1088 C155 1.510 . S
C1123 C33 1.457 . S
C1138 C192 1.540 . S
C1188 C136 1.547 . S
C1173 C54 1.439 . S
C1223 C75 1.459 . S
C1238 C149 1.568 . S
C1273 C93 1.472 . S
C1288 C153 1.518 . S
C1323 C114 1.490 . S
C1338 C166 1.539 . S
C1373 C9 1.469 . S
C1388 C179 1.518 . S
