# Generated by pormake.
# Topology zzz, (3,6)-cn, num edge types: 1
# Building blocks:
#     Node 0, Type 0, BuildingBlock: MIDCAF_clean_linker_0, # of connection points: 3
#     Node 1, Type 0, BuildingBlock: MIDCAF_clean_linker_0, # of connection points: 3
#     Node 2, Type 0, BuildingBlock: MIDCAF_clean_linker_0, # of connection points: 3
#     Node 3, Type 0, BuildingBlock: MIDCAF_clean_linker_0, # of connection points: 3
#     Node 4, Type 0, BuildingBlock: MIDCAF_clean_linker_0, # of connection points: 3
#     Node 5, Type 0, BuildingBlock: MIDCAF_clean_linker_0, # of connection points: 3
#     Node 6, Type 0, BuildingBlock: MIDCAF_clean_linker_0, # of connection points: 3
#     Node 7, Type 0, BuildingBlock: MIDCAF_clean_linker_0, # of connection points: 3
#     Node 8, Type 1, BuildingBlock: INOVEN_clean_sbu_0, # of connection points: 6
#     Node 9, Type 1, BuildingBlock: INOVEN_clean_sbu_0, # of connection points: 6
#     Node 10, Type 1, BuildingBlock: INOVEN_clean_sbu_0, # of connection points: 6
#     Node 11, Type 1, BuildingBlock: INOVEN_clean_sbu_0, # of connection points: 6
#     Edge 12, Type (0, 1), BuildingBlock: KIFKEQ_clean_linker_1, # of connection points: 2
#     Edge 13, Type (0, 1), BuildingBlock: KIFKEQ_clean_linker_1, # of connection points: 2
#     Edge 14, Type (0, 1), BuildingBlock: KIFKEQ_clean_linker_1, # of connection points: 2
#     Edge 15, Type (0, 1), BuildingBlock: KIFKEQ_clean_linker_1, # of connection points: 2
#     Edge 16, Type (0, 1), BuildingBlock: KIFKEQ_clean_linker_1, # of connection points: 2
#     Edge 17, Type (0, 1), BuildingBlock: KIFKEQ_clean_linker_1, # of connection points: 2
#     Edge 18, Type (0, 1), BuildingBlock: KIFKEQ_clean_linker_1, # of connection points: 2
#     Edge 19, Type (0, 1), BuildingBlock: KIFKEQ_clean_linker_1, # of connection points: 2
#     Edge 20, Type (0, 1), BuildingBlock: KIFKEQ_clean_linker_1, # of connection points: 2
#     Edge 21, Type (0, 1), BuildingBlock: KIFKEQ_clean_linker_1, # of connection points: 2
#     Edge 22, Type (0, 1), BuildingBlock: KIFKEQ_clean_linker_1, # of connection points: 2
#     Edge 23, Type (0, 1), BuildingBlock: KIFKEQ_clean_linker_1, # of connection points: 2
#     Edge 24, Type (0, 1), BuildingBlock: KIFKEQ_clean_linker_1, # of connection points: 2
#     Edge 25, Type (0, 1), BuildingBlock: KIFKEQ_clean_linker_1, # of connection points: 2
#     Edge 26, Type (0, 1), BuildingBlock: KIFKEQ_clean_linker_1, # of connection points: 2
#     Edge 27, Type (0, 1), BuildingBlock: KIFKEQ_clean_linker_1, # of connection points: 2
#     Edge 28, Type (0, 1), BuildingBlock: KIFKEQ_clean_linker_1, # of connection points: 2
#     Edge 29, Type (0, 1), BuildingBlock: KIFKEQ_clean_linker_1, # of connection points: 2
#     Edge 30, Type (0, 1), BuildingBlock: KIFKEQ_clean_linker_1, # of connection points: 2
#     Edge 31, Type (0, 1), BuildingBlock: KIFKEQ_clean_linker_1, # of connection points: 2
#     Edge 32, Type (0, 1), BuildingBlock: KIFKEQ_clean_linker_1, # of connection points: 2
#     Edge 33, Type (0, 1), BuildingBlock: KIFKEQ_clean_linker_1, # of connection points: 2
#     Edge 34, Type (0, 1), BuildingBlock: KIFKEQ_clean_linker_1, # of connection points: 2
#     Edge 35, Type (0, 1), BuildingBlock: KIFKEQ_clean_linker_1, # of connection points: 2
# Relax obj value: 0.431
# Max RMSD: 0.271
# Mean RMSD: 0.253
data_MOF--net-zzz--node1-INOVEN_clean_sbu_0--node2-MIDCAF_clean_linker_0--edge1-KIFKEQ_clean_linker_1
_symmetry_space_group_name_H-M    P1
_symmetry_Int_Tables_number       1
_symmetry_cell_setting            triclinic
loop_
_symmetry_equiv_pos_as_xyz
'x, y, z'
_cell_length_a     60.350193
_cell_length_b     60.243649
_cell_length_c     18.546365
_cell_angle_alpha  89.865735
_cell_angle_beta   89.997046
_cell_angle_gamma 90.084417
loop_
_atom_site_label
_atom_site_type_symbol
_atom_site_fract_x
_atom_site_fract_y
_atom_site_fract_z
_atom_type_partial_charge
C0 C 0.79716 0.52566 0.37384 0.0
C1 C 0.80134 0.51196 0.4341 0.0
C2 C 0.78533 0.49588 0.4527 0.0
C3 C 0.76693 0.49212 0.40844 0.0
H4 H 0.68206 0.51203 0.2704 0.0
H5 H 0.6472 0.52244 0.2104 0.0
H6 H 0.68068 0.52189 1.00465 0.0
H7 H 0.71505 0.51118 0.06425 0.0
H8 H 0.73225 0.45268 0.06573 0.0
H9 H 0.75218 0.42566 0.99273 0.0
H10 H 0.79735 0.41406 0.16962 0.0
H11 H 0.77727 0.44042 0.24274 0.0
H12 H 0.77663 0.53173 0.2812 0.0
H13 H 0.80907 0.53809 0.35706 0.0
H14 H 0.78751 0.4854 0.49966 0.0
H15 H 0.75592 0.4784 0.42086 0.0
N16 N 0.73164 0.50749 0.26162 0.0
N17 N 0.72724 0.48024 0.17174 0.0
N18 N 0.75559 0.47675 0.25656 0.0
C19 C 0.72041 0.49936 0.2034 0.0
C20 C 0.74469 0.46873 0.19833 0.0
C21 C 0.74931 0.49598 0.28833 0.0
C22 C 0.70117 0.51093 0.17182 0.0
C23 C 0.68201 0.51489 0.21271 0.0
C24 C 0.66209 0.52064 0.17832 0.0
C25 C 0.66119 0.52294 0.10275 0.0
C26 C 0.68083 0.52052 0.06289 0.0
C27 C 0.70052 0.51435 0.09696 0.0
C28 C 0.75352 0.44917 0.15951 0.0
C29 C 0.74606 0.44391 0.08972 0.0
C30 C 0.75751 0.42844 0.04774 0.0
C31 C 0.77658 0.41793 0.07479 0.0
C32 C 0.78267 0.42167 0.14694 0.0
C33 C 0.77127 0.43708 0.1888 0.0
C34 C 0.76369 0.50478 0.34582 0.0
C35 C 0.77847 0.52214 0.33034 0.0
C36 C 0.96552 0.80231 0.40303 0.0
C37 C 0.98618 0.80857 0.43167 0.0
C38 C 1.00447 0.79452 0.42036 0.0
C39 C 1.00239 0.77528 0.37824 0.0
H40 H 0.95474 0.68724 0.26966 0.0
H41 H 0.95495 0.64888 0.22604 0.0
H42 H 0.02156 0.65846 0.14586 0.0
H43 H 0.02133 0.69619 0.19136 0.0
H44 H 0.99601 0.73027 0.03322 0.0
H45 H 1.00569 0.74833 0.91978 0.0
H46 H 0.98254 0.81092 1.00387 0.0
H47 H 0.97288 0.79303 0.11729 0.0
H48 H 0.94787 0.7799 0.33366 0.0
H49 H 0.95118 0.81288 0.41009 0.0
H50 H 0.02059 0.79888 0.44178 0.0
H51 H 0.01703 0.76553 0.36672 0.0
N52 N 0.984 0.73191 0.29226 0.0
N53 N 0.98448 0.72819 0.16595 0.0
N54 N 0.9807 0.76334 0.21693 0.0
C55 C 0.98516 0.7188 0.23227 0.0
C56 C 0.98219 0.75034 0.15756 0.0
C57 C 0.98157 0.75438 0.28415 0.0
C58 C 0.98815 0.69452 0.23494 0.0
C59 C 0.9698 0.68063 0.2463 0.0
C60 C 0.96981 0.65879 0.21983 0.0
C61 C 0.98812 0.65054 0.18089 0.0
C62 C 0.0072 0.66393 0.1759 0.0
C63 C 1.00716 0.68563 0.20242 0.0
C64 C 0.98405 0.76033 0.0849 0.0
C65 C 0.99247 0.74779 0.02707 0.0
C66 C 0.99804 0.75808 0.962 0.0
C67 C 0.99497 0.78099 0.9532 0.0
C68 C 0.98489 0.79316 0.00885 0.0
C69 C 0.97956 0.78295 0.07418 0.0
C70 C 0.98206 0.7699 0.3458 0.0
C71 C 0.96357 0.78336 0.35967 0.0
C72 C 0.70295 0.99024 0.33678 0.0
C73 C 0.70099 0.99407 0.41139 0.0
C74 C 0.71974 1.00189 0.44894 0.0
C75 C 0.73915 1.00771 0.41184 0.0
H76 H 0.82774 0.04868 0.23558 0.0
H77 H 0.86159 0.04072 0.16945 0.0
H78 H 0.83174 0.98065 0.08633 0.0
H79 H 0.79838 0.98813 0.15717 0.0
H80 H 0.77605 0.08072 0.12656 0.0
H81 H 0.75339 0.10713 0.05972 0.0
H82 H 0.70137 0.09948 0.21871 0.0
H83 H 0.72435 0.07465 0.28657 0.0
H84 H 0.72265 0.99483 0.24157 0.0
H85 H 0.68889 0.98447 0.30574 0.0
H86 H 0.71902 1.00469 0.50654 0.0
H87 H 0.75255 0.01558 0.44115 0.0
N88 N 0.77589 0.01225 0.27127 0.0
N89 N 0.78163 0.04694 0.21476 0.0
N90 N 0.749 0.04031 0.27885 0.0
C91 C 0.78899 0.02621 0.23148 0.0
C92 C 0.7616 0.05409 0.23824 0.0
C93 C 0.75592 0.01962 0.296 0.0
C94 C 0.81051 0.01901 0.20149 0.0
C95 C 0.82869 0.03351 0.20447 0.0
C96 C 0.84799 0.02905 0.16556 0.0
C97 C 0.84941 0.01029 0.12053 0.0
C98 C 0.8315 0.99519 0.12048 0.0
C99 C 0.81231 0.99943 0.16108 0.0
C100 C 0.75162 0.07486 0.2103 0.0
C101 C 0.76009 0.08539 0.14845 0.0
C102 C 0.74695 0.10041 0.10968 0.0
C103 C 0.72502 0.10484 0.13152 0.0
C104 C 0.71797 0.0966 0.19889 0.0
C105 C 0.73116 0.08194 0.23791 0.0
C106 C 0.74034 1.00553 0.33667 0.0
C107 C 0.72239 0.996 0.29986 0.0
C108 C 0.60873 0.71361 0.18536 0.0
C109 C 0.61042 0.71559 0.10991 0.0
C110 C 0.60602 0.73644 0.07835 0.0
C111 C 0.59632 0.75339 0.11906 0.0
H112 H 0.57343 0.82512 0.17733 0.0
H113 H 0.56281 0.85806 0.10952 0.0
H114 H 0.49397 0.83932 0.12774 0.0
H115 H 0.5047 0.80617 0.19703 0.0
H116 H 0.5014 0.7432 0.29149 0.0
H117 H 0.48796 0.71058 0.35803 0.0
H118 H 0.54438 0.71527 0.5007 0.0
H119 H 0.5573 0.74773 0.43508 0.0
H120 H 0.59636 0.7276 0.28279 0.0
H121 H 0.61212 0.69808 0.2126 0.0
H122 H 0.60803 0.73896 0.0209 0.0
H123 H 0.59076 0.76825 0.09155 0.0
N124 N 0.56617 0.78217 0.20015 0.0
N125 N 0.53492 0.78094 0.2767 0.0
N126 N 0.56175 0.75277 0.28088 0.0
C127 C 0.54716 0.79164 0.22496 0.0
C128 C 0.54263 0.76157 0.30571 0.0
C129 C 0.57354 0.76269 0.22787 0.0
C130 C 0.53991 0.81297 0.19232 0.0
C131 C 0.55598 0.82816 0.16791 0.0
C132 C 0.54989 0.84715 0.12938 0.0
C133 C 0.52755 0.85132 0.11307 0.0
C134 C 0.51134 0.8365 0.13925 0.0
C135 C 0.51744 0.81761 0.17926 0.0
C136 C 0.53019 0.74818 0.3589 0.0
C137 C 0.51022 0.73784 0.33931 0.0
C138 C 0.50281 0.71889 0.37662 0.0
C139 C 0.51524 0.70998 0.43428 0.0
C140 C 0.53419 0.72161 0.45726 0.0
C141 C 0.5416 0.74037 0.41985 0.0
C142 C 0.59126 0.74981 0.1921 0.0
C143 C 0.59939 0.7306 0.226 0.0
C144 C 0.19083 0.50986 0.06888 0.0
C145 C 0.19349 0.50216 0.99801 0.0
C146 C 0.21403 0.49263 0.97882 0.0
C147 C 0.23134 0.49083 0.02975 0.0
H148 H 0.31074 0.52287 0.16341 0.0
H149 H 0.34843 0.52533 0.21117 0.0
H150 H 0.34409 0.45703 0.28143 0.0
H151 H 0.30688 0.45466 0.23208 0.0
H152 H 0.27612 0.51121 0.39771 0.0
H153 H 0.2615 0.52251 0.51521 0.0
H154 H 0.19722 0.49681 0.45592 0.0
H155 H 0.21159 0.48592 0.33868 0.0
H156 H 0.20473 0.51407 0.17316 0.0
H157 H 0.17524 0.51686 0.08659 0.0
H158 H 0.2167 0.48656 0.92462 0.0
H159 H 0.24681 0.48319 0.01387 0.0
N160 N 0.26734 0.49237 0.14519 0.0
N161 N 0.27429 0.49169 0.27037 0.0
N162 N 0.23819 0.49615 0.22862 0.0
C163 C 0.28183 0.49038 0.20173 0.0
C164 C 0.25256 0.49449 0.28431 0.0
C165 C 0.2452 0.49517 0.15901 0.0
C166 C 0.30601 0.4885 0.19332 0.0
C167 C 0.31845 0.50802 0.18485 0.0
C168 C 0.33987 0.50954 0.21386 0.0
C169 C 0.34915 0.49158 0.25222 0.0
C170 C 0.33766 0.47123 0.25236 0.0
C171 C 0.31632 0.46975 0.22331 0.0
C172 C 0.24487 0.49791 0.35889 0.0
C173 C 0.259 0.50751 0.41058 0.0
C174 C 0.2507 0.51398 0.47772 0.0
C175 C 0.22832 0.51042 0.49468 0.0
C176 C 0.21464 0.49945 0.44472 0.0
C177 C 0.22279 0.49342 0.37729 0.0
C178 C 0.22828 0.49823 0.10103 0.0
C179 C 0.20785 0.50799 0.11919 0.0
C180 C 0.0095 0.22309 0.95036 0.0
C181 C 0.02787 0.21061 0.92651 0.0
C182 C 0.04921 0.21925 0.93895 0.0
C183 C 0.0522 0.23857 0.97944 0.0
H184 H 0.05072 0.33913 0.09046 0.0
H185 H 0.04371 0.37453 0.1505 0.0
H186 H 0.98709 0.34562 0.25801 0.0
H187 H 0.99403 0.3105 0.1967 0.0
H188 H 0.05699 0.29046 0.31662 0.0
H189 H 0.06273 0.27035 0.429 0.0
H190 H 0.07928 0.21143 0.30786 0.0
H191 H 0.07414 0.2315 0.19644 0.0
H192 H 0.99819 0.25102 0.01275 0.0
H193 H 0.99281 0.21699 0.9421 0.0
H194 H 0.06376 0.21055 0.91992 0.0
H195 H 0.06893 0.24385 0.99208 0.0
N196 N 0.02826 0.28665 0.07021 0.0
N197 N 0.04476 0.29227 0.18397 0.0
N198 N 0.05055 0.25898 0.12316 0.0
C199 C 0.0322 0.29991 0.12874 0.0
C200 C 0.054 0.27186 0.18185 0.0
C201 C 0.03787 0.26608 0.06724 0.0
C202 C 0.02261 0.32224 0.13759 0.0
C203 C 0.03606 0.34079 0.12376 0.0
C204 C 0.03228 0.36093 0.15943 0.0
C205 C 0.01508 0.36289 0.21038 0.0
C206 C 1.00039 0.34488 0.21893 0.0
C207 C 1.00421 0.32474 0.18321 0.0
C208 C 0.06421 0.2623 0.24748 0.0
C209 C 0.06262 0.27342 0.31395 0.0
C210 C 0.06589 0.2619 0.37855 0.0
C211 C 0.07078 0.2391 0.37766 0.0
C212 C 0.07544 0.22895 0.31108 0.0
C213 C 0.07222 0.24044 0.24667 0.0
C214 C 0.03398 0.25015 0.00761 0.0
C215 C 0.01254 0.2427 0.99049 0.0
C216 C 0.29025 0.02349 0.9446 0.0
C217 C 0.30364 0.04122 0.92021 0.0
C218 C 0.29618 0.06302 0.93214 0.0
C219 C 0.2771 0.06704 0.97269 0.0
H220 H 0.17584 0.0692 0.09291 0.0
H221 H 0.14073 0.0611 0.15327 0.0
H222 H 0.16955 1.00211 0.2468 0.0
H223 H 0.20445 0.01017 0.18499 0.0
H224 H 0.22457 0.07698 0.30695 0.0
H225 H 0.24496 0.08311 0.41833 0.0
H226 H 0.30403 0.09728 0.29446 0.0
H227 H 0.28366 0.09185 0.18407 0.0
H228 H 0.26181 0.01368 0.00744 0.0
H229 H 0.29545 1.00648 0.93664 0.0
H230 H 0.30563 0.0771 0.91263 0.0
H231 H 0.2727 0.08407 0.98475 0.0
N232 N 0.22822 0.0447 0.06517 0.0
N233 N 0.22259 0.06293 0.17604 0.0
N234 N 0.25589 0.06774 0.11431 0.0
C235 C 0.21495 0.04956 0.12287 0.0
C236 C 0.24304 0.07206 0.17245 0.0
C237 C 0.24877 0.05427 0.06051 0.0
C238 C 0.19266 0.04003 0.13298 0.0
C239 C 0.17423 0.05389 0.12327 0.0
C240 C 0.15426 0.04945 0.15905 0.0
C241 C 0.15238 0.03117 0.20614 0.0
C242 C 0.17028 0.01624 0.21069 0.0
C243 C 0.19026 0.02071 0.17473 0.0
C244 C 0.25276 0.08295 0.23662 0.0
C245 C 0.24171 0.08221 0.30342 0.0
C246 C 0.25341 0.0857 0.36746 0.0
C247 C 0.27632 0.08989 0.36566 0.0
C248 C 0.28644 0.09392 0.29848 0.0
C249 C 0.27476 0.09053 0.23463 0.0
C250 C 0.26463 0.04943 1.00153 0.0
C251 C 0.27088 0.02757 0.98484 0.0
C252 C 0.44563 0.29272 0.31395 0.0
C253 C 0.45443 0.28292 0.37655 0.0
C254 C 0.45723 0.25982 0.3789 0.0
C255 C 0.45444 0.24724 0.31648 0.0
H256 H 0.44259 0.1814 0.14881 0.0
H257 H 0.45235 0.14717 0.21008 0.0
H258 H 0.5218 0.16288 0.18379 0.0
H259 H 0.51166 0.19771 0.12369 0.0
H260 H 0.43995 0.26932 0.97201 0.0
H261 H 0.44556 0.30324 0.90217 0.0
H262 H 0.5149 0.30287 0.96023 0.0
H263 H 0.50917 0.2684 0.02803 0.0
H264 H 0.43846 0.28866 0.20198 0.0
H265 H 0.44324 0.31051 0.31058 0.0
H266 H 0.46372 0.25187 0.42691 0.0
H267 H 0.45883 0.22983 0.31834 0.0
N268 N 0.46016 0.22508 0.18123 0.0
N269 N 0.47514 0.22857 0.06442 0.0
N270 N 0.45919 0.25935 0.12292 0.0
C271 C 0.47002 0.21571 0.12319 0.0
C272 C 0.4691 0.2505 0.06402 0.0
C273 C 0.45481 0.24683 0.18194 0.0
C274 C 0.47634 0.1921 0.13067 0.0
C275 C 0.45995 0.17702 0.15308 0.0
C276 C 0.46562 0.15735 0.18871 0.0
C277 C 0.48792 0.15224 0.20341 0.0
C278 C 0.50443 0.1664 0.17483 0.0
C279 C 0.49868 0.18617 0.13892 0.0
C280 C 0.47422 0.26592 1.00397 0.0
C281 C 0.45657 0.27599 0.96705 0.0
C282 C 0.45975 0.29573 0.92824 0.0
C283 C 0.48062 0.30625 0.92649 0.0
C284 C 0.49862 0.29531 0.95967 0.0
C285 C 0.49542 0.2754 0.99812 0.0
C286 C 0.44914 0.25772 0.25078 0.0
C287 C 0.44307 0.28021 0.25137 0.0
Gd288 Gd 0.02055 1.00246 0.73345 0.0
Gd289 Gd 0.99032 0.0171 0.62184 0.0
C290 C 0.99883 0.96568 0.62321 0.0
C291 C 0.04196 0.98037 0.8297 0.0
C292 C 0.05148 0.95815 0.82192 0.0
C293 C 0.05627 0.95004 0.75266 0.0
C294 C 0.05214 0.94374 0.88105 0.0
C295 C 0.05903 0.91264 0.80036 0.0
C296 C 0.05597 0.92112 0.87043 0.0
C297 C 0.06006 0.92747 0.74198 0.0
C298 C 0.04138 0.01661 0.61204 0.0
C299 C 0.01121 0.05302 0.73394 0.0
C300 C 0.9736 0.04122 0.52166 0.0
C301 C 0.98076 0.06415 0.50527 0.0
C302 C 0.96743 0.08216 0.52598 0.0
C303 C 1.00272 0.06824 0.4834 0.0
C304 C 0.99889 0.10715 0.51409 0.0
C305 C 0.01167 0.08949 0.48798 0.0
C306 C 0.97642 0.10354 0.53025 0.0
C307 C 0.9691 1.0026 0.74131 0.0
O308 O 0.00857 0.96968 0.68578 0.0
O309 O 0.99156 0.98206 0.58241 0.0
O310 O 0.05117 0.99592 0.79063 0.0
O311 O 0.0203 0.98086 0.82698 0.0
O312 O 0.04787 0.02128 0.67672 0.0
O313 O 0.02438 1.00449 0.61456 0.0
O314 O 1.00576 0.04901 0.66607 0.0
O315 O 0.01461 0.0363 0.77838 0.0
O316 O 0.96391 0.03863 0.58419 0.0
O317 O 0.98811 0.02562 0.50852 0.0
O318 O 0.96266 0.99838 0.67594 0.0
O319 O 0.98624 0.0147 0.74056 0.0
H320 H 0.05563 0.96092 0.70608 0.0
H321 H 0.0482 0.94968 0.93463 0.0
H322 H 0.05474 0.9101 0.91647 0.0
H323 H 0.06248 0.92144 0.68756 0.0
H324 H 0.95051 0.07948 0.54347 0.0
H325 H 0.01354 0.05483 0.46699 0.0
H326 H 0.02888 0.09195 0.47325 0.0
H327 H 0.96618 0.11694 0.55011 0.0
Gd328 Gd 0.51229 0.01941 0.7427 0.0
Gd329 Gd 0.49311 0.99217 0.61258 0.0
C330 C 0.54536 0.99948 0.61826 0.0
C331 C 0.53166 0.03152 0.85956 0.0
C332 C 0.55088 0.04597 0.87209 0.0
C333 C 0.55337 0.05701 0.93798 0.0
C334 C 0.56664 0.04919 0.81736 0.0
C335 C 0.58803 0.07326 0.89603 0.0
C336 C 0.58513 0.06261 0.82938 0.0
C337 C 0.57181 0.07063 0.94987 0.0
C338 C 0.50702 0.04636 0.62454 0.0
C339 C 0.45974 0.01523 0.72953 0.0
C340 C 0.46765 0.97995 0.50982 0.0
C341 C 0.44568 0.98963 0.49407 0.0
C342 C 0.42641 0.97762 0.51138 0.0
C343 C 0.44381 0.01226 0.47631 0.0
C344 C 0.40446 0.01136 0.50342 0.0
C345 C 0.42344 0.02299 0.48106 0.0
C346 C 0.40596 0.9884 0.51607 0.0
C347 C 0.50742 0.96787 0.72617 0.0
O348 O 0.54275 1.00606 0.68604 0.0
O349 O 0.52833 0.99531 0.57517 0.0
O350 O 0.51402 0.04156 0.83425 0.0
O351 O 0.53592 0.01261 0.82731 0.0
O352 O 0.51443 0.05323 0.68609 0.0
O353 O 0.50286 0.02609 0.63143 0.0
O354 O 0.46294 0.00865 0.66225 0.0
O355 O 0.47645 0.0179 0.7748 0.0
O356 O 0.46878 0.96909 0.57101 0.0
O357 O 0.48486 0.99288 0.49889 0.0
O358 O 0.50918 0.96176 0.65924 0.0
O359 O 0.49716 0.98613 0.72989 0.0
H360 H 0.54123 0.05488 0.98047 0.0
H361 H 0.56477 0.04112 0.76556 0.0
H362 H 0.59729 0.06448 0.78684 0.0
H363 H 0.57378 0.07847 1.00198 0.0
H364 H 0.42739 0.96021 0.52576 0.0
H365 H 0.45825 0.02207 0.46252 0.0
H366 H 0.42265 0.04057 0.46887 0.0
H367 H 0.39157 0.97899 0.53312 0.0
Gd368 Gd 0.49063 0.51854 0.76039 0.0
Gd369 Gd 0.5153 0.50017 0.62238 0.0
C370 C 0.5046 0.55314 0.63422 0.0
C371 C 0.48918 0.53499 0.88726 0.0
C372 C 0.50359 0.55265 0.91649 0.0
C373 C 0.50537 0.57313 0.88047 0.0
C374 C 0.51835 0.54788 0.97299 0.0
C375 C 0.53775 0.58277 0.95186 0.0
C376 C 0.53525 0.56285 0.99074 0.0
C377 C 0.5222 0.588 0.89808 0.0
C378 C 0.46066 0.50729 0.65682 0.0
C379 C 0.49668 0.46499 0.739 0.0
C380 C 0.53095 0.48497 0.50377 0.0
C381 C 0.53801 0.46199 0.4915 0.0
C382 C 0.54557 0.44941 0.5505 0.0
C383 C 0.53178 0.45113 0.42788 0.0
C384 C 0.53612 0.4155 0.48787 0.0
C385 C 0.53096 0.42794 0.4259 0.0
C386 C 0.54458 0.42633 0.54873 0.0
C387 C 0.53957 0.50616 0.74309 0.0
O388 O 0.49877 0.55035 0.70249 0.0
O389 O 0.51023 0.53629 0.59198 0.0
O390 O 0.47518 0.5409 0.83638 0.0
O391 O 0.49943 0.51628 0.87324 0.0
O392 O 0.45503 0.51536 0.71935 0.0
O393 O 0.48139 0.50545 0.65583 0.0
O394 O 0.50275 0.46826 0.67106 0.0
O395 O 0.49299 0.48165 0.78421 0.0
O396 O 0.54303 0.49659 0.54882 0.0
O397 O 0.50966 0.48687 0.51584 0.0
O398 O 0.54209 0.48946 0.70001 0.0
O399 O 0.52481 0.51897 0.71933 0.0
H400 H 0.49436 0.57737 0.83648 0.0
H401 H 0.51751 0.53209 1.00096 0.0
H402 H 0.54698 0.55831 0.03242 0.0
H403 H 0.52323 0.6035 0.86853 0.0
H404 H 0.55023 0.45736 0.60055 0.0
H405 H 0.52559 0.46053 0.38227 0.0
H406 H 0.52422 0.41989 0.37853 0.0
H407 H 0.54867 0.41702 0.59699 0.0
Gd408 Gd 0.99376 0.48731 0.75387 0.0
Gd409 Gd 1.00625 0.52174 0.65541 0.0
C410 C 0.95595 0.5093 0.64836 0.0
C411 C 0.97613 0.46108 0.84871 0.0
C412 C 0.95716 0.44585 0.85254 0.0
C413 C 0.95775 0.42777 0.90007 0.0
C414 C 0.93819 0.44953 0.81067 0.0
C415 C 0.91953 0.41861 0.86989 0.0
C416 C 0.9195 0.43614 0.81951 0.0
C417 C 0.93914 0.41417 0.90846 0.0
C418 C 0.00825 0.47117 0.62532 0.0
C419 C 0.04348 0.50077 0.75985 0.0
C420 C 0.02832 0.54739 0.57045 0.0
C421 C 0.05223 0.55233 0.57484 0.0
C422 C 0.05955 0.57416 0.58775 0.0
C423 C 0.06753 0.53482 0.57924 0.0
C424 C 0.09627 0.56042 0.61695 0.0
C425 C 0.08925 0.53884 0.60042 0.0
C426 C 0.08155 0.57821 0.6081 0.0
C427 C 0.99076 0.53761 0.78242 0.0
O428 O 0.96026 0.49823 0.70865 0.0
O429 O 0.97213 0.51831 0.61054 0.0
O430 O 0.99228 0.45511 0.80626 0.0
O431 O 0.97148 0.48224 0.84376 0.0
O432 O 0.01383 0.4633 0.68764 0.0
O433 O 0.99533 0.4874 0.63352 0.0
O434 O 0.03934 0.50788 0.69402 0.0
O435 O 0.02687 0.49527 0.80214 0.0
O436 O 0.01671 0.55488 0.62449 0.0
O437 O 0.02285 0.52706 0.553 0.0
O438 O 0.98512 0.54515 0.71962 0.0
O439 O 1.00419 0.52168 0.77554 0.0
H440 H 0.97242 0.4245 0.93205 0.0
H441 H 0.9376 0.46321 0.77291 0.0
H442 H 0.90469 0.4403 0.78946 0.0
H443 H 0.9399 0.40059 0.94672 0.0
H444 H 0.04802 0.5879 0.58517 0.0
H445 H 0.06255 0.51781 0.56963 0.0
H446 H 0.1006 0.52497 0.60473 0.0
H447 H 0.08687 0.59504 0.61926 0.0
H448 H 0.12967 0.99362 0.2496 0.0
H449 H 0.1321 0.06463 0.28029 0.0
H450 H 0.10118 0.99079 0.34327 0.0
H451 H 0.10347 0.06182 0.37223 0.0
H452 H 0.0776 0.04316 0.59914 0.0
H453 H 0.10245 0.04694 0.49608 0.0
H454 H 0.06193 1.00111 0.37505 0.0
H455 H 0.03694 0.99737 0.4788 0.0
C456 C 0.12397 0.00864 0.27561 0.0
C457 C 0.13323 0.02935 0.25707 0.0
C458 C 0.10752 1.00704 0.32895 0.0
C459 C 0.10011 0.02607 0.36563 0.0
C460 C 0.10893 0.0468 0.34565 0.0
C461 C 0.1252 0.04842 0.29213 0.0
C462 C 0.07389 0.03403 0.55035 0.0
C463 C 0.05538 0.01993 0.54716 0.0
C464 C 0.08808 0.03626 0.49109 0.0
C465 C 0.08423 0.0243 0.42719 0.0
C466 C 0.06549 0.0104 0.42364 0.0
C467 C 0.05111 0.00836 0.48284 0.0
H468 H 0.46765 0.11137 0.22119 0.0
H469 H 0.52051 0.15194 0.30684 0.0
H470 H 0.47272 0.08503 0.31984 0.0
H471 H 0.52635 0.12507 0.40268 0.0
H472 H 0.51106 0.09104 0.61599 0.0
H473 H 0.50791 0.11481 0.5104 0.0
H474 H 0.49528 0.05725 0.37787 0.0
H475 H 0.49816 0.03348 0.48498 0.0
C476 C 0.48057 0.11458 0.26033 0.0
C477 C 0.49348 0.13406 0.2559 0.0
C478 C 0.48362 0.09929 0.31673 0.0
C479 C 0.49973 0.10299 0.3703 0.0
C480 C 0.51342 0.12183 0.36358 0.0
C481 C 0.51031 0.13714 0.3075 0.0
C482 C 0.50759 0.08343 0.56432 0.0
C483 C 0.50467 0.06037 0.55894 0.0
C484 C 0.50597 0.09707 0.50341 0.0
C485 C 0.50153 0.08806 0.43492 0.0
C486 C 0.49852 0.06489 0.4296 0.0
C487 C 0.50012 0.05121 0.49096 0.0
H488 H 0.35856 0.52789 0.33528 0.0
H489 H 0.38326 0.46254 0.28375 0.0
H490 H 0.38654 0.53158 0.42847 0.0
H491 H 0.41078 0.4659 0.37974 0.0
H492 H 0.46894 0.48757 0.52629 0.0
H493 H 0.44404 0.48465 0.42264 0.0
H494 H 0.39226 0.51604 0.54659 0.0
H495 H 0.41743 0.5195 0.64866 0.0
C496 C 0.37021 0.51442 0.34269 0.0
C497 C 0.36853 0.49489 0.30153 0.0
C498 C 0.38606 0.5164 0.3973 0.0
C499 C 0.40072 0.49889 0.41276 0.0
C500 C 0.3998 0.47975 0.36947 0.0
C501 C 0.38389 0.47776 0.31463 0.0
C502 C 0.45235 0.49401 0.53091 0.0
C503 C 0.44532 0.50407 0.59517 0.0
C504 C 0.43795 0.49216 0.47178 0.0
C505 C 0.41616 0.50037 0.47568 0.0
C506 C 0.40905 0.50999 0.54081 0.0
C507 C 0.42343 0.51178 0.59972 0.0
H508 H 0.04993 0.384 0.2753 0.0
H509 H 0.97847 0.38514 0.26282 0.0
H510 H 0.04895 0.41239 0.36829 0.0
H511 H 0.97752 0.41331 0.35771 0.0
H512 H 0.9856 0.47627 0.49769 0.0
H513 H 0.98742 0.45236 0.39083 0.0
H514 H 0.03758 0.41256 0.49501 0.0
H515 H 0.03576 0.43635 0.60095 0.0
C516 C 0.03398 0.39058 0.29128 0.0
C517 C 0.01427 0.3822 0.26112 0.0
C518 C 0.03343 0.40671 0.34548 0.0
C519 C 0.01316 0.41503 0.37116 0.0
C520 C 0.99344 0.40737 0.33906 0.0
C521 C 0.99398 0.39108 0.285 0.0
C522 C 0.99717 0.46255 0.49724 0.0
C523 C 0.01052 0.45817 0.55777 0.0
C524 C 0.9981 0.44876 0.43628 0.0
C525 C 0.01264 0.43049 0.43418 0.0
C526 C 0.02638 0.42658 0.49419 0.0
C527 C 0.02527 0.44018 0.55517 0.0
H528 H 0.86906 0.97143 0.07275 0.0
H529 H 0.87368 0.04285 0.0526 0.0
H530 H 0.89936 0.96751 0.98607 0.0
H531 H 0.9044 0.03875 0.9695 0.0
H532 H 0.9322 0.9767 0.75352 0.0
H533 H 0.90481 0.97673 0.85097 0.0
H534 H 0.94426 0.02452 0.96738 0.0
H535 H 0.97177 0.0243 0.87038 0.0
C536 C 0.87647 0.9863 0.05039 0.0
C537 C 0.86879 1.00748 0.07064 0.0
C538 C 0.89394 0.98401 1.00095 0.0
C539 C 0.90439 1.00283 0.97145 0.0
C540 C 0.89699 0.02393 0.99233 0.0
C541 C 0.87936 0.02623 0.04058 0.0
C542 C 0.93517 0.98694 0.80048 0.0
C543 C 0.95403 1.00061 0.8041 0.0
C544 C 0.91954 0.98689 0.85637 0.0
C545 C 0.9223 1.00075 0.91659 0.0
C546 C 0.94159 0.01382 0.92133 0.0
C547 C 0.95738 0.01362 0.86596 0.0
H548 H 0.50018 0.85052 0.99579 0.0
H549 H 0.54222 0.89446 0.11848 0.0
H550 H 0.49449 0.87978 0.90616 0.0
H551 H 0.53649 0.92379 0.02862 0.0
H552 H 0.50311 0.97589 0.87162 0.0
H553 H 0.50627 0.94879 0.97056 0.0
H554 H 0.52115 0.89739 0.81632 0.0
H555 H 0.51836 0.92427 0.71847 0.0
C556 C 0.50784 0.86657 1.00439 0.0
C557 C 0.5217 0.87012 0.06416 0.0
C558 C 0.50475 0.88327 0.9527 0.0
C559 C 0.5152 0.90404 0.95997 0.0
C560 C 0.52817 0.908 0.02158 0.0
C561 C 0.53153 0.89117 0.0728 0.0
C562 C 0.5072 0.95882 0.85916 0.0
C563 C 0.51044 0.95221 0.78726 0.0
C564 C 0.509 0.94333 0.91567 0.0
C565 C 0.51368 0.92088 0.90112 0.0
C566 C 0.51715 0.91445 0.82925 0.0
C567 C 0.51571 0.92992 0.77319 0.0
H568 H 0.65066 0.55094 0.99108 0.0
H569 H 0.62344 0.49893 0.125 0.0
H570 H 0.61809 0.54891 0.91271 0.0
H571 H 0.59091 0.49694 0.04682 0.0
H572 H 0.56257 0.47597 0.82103 0.0
H573 H 0.58883 0.48286 0.91857 0.0
H574 H 0.57603 0.55318 0.90284 0.0
H575 H 0.54897 0.54614 0.8065 0.0
C576 C 0.63749 0.53943 1.00461 0.0
C577 C 0.63969 0.52501 0.06398 0.0
C578 C 0.6188 0.53834 0.95996 0.0
C579 C 0.60207 0.52258 0.97315 0.0
C580 C 0.60366 0.50909 0.03491 0.0
C581 C 0.62219 0.51038 0.08006 0.0
C582 C 0.56508 0.49286 0.83929 0.0
C583 C 0.55381 0.51051 0.80627 0.0
C584 C 0.58002 0.49681 0.89539 0.0
C585 C 0.58439 0.51857 0.91874 0.0
C586 C 0.5729 0.53625 0.8862 0.0
C587 C 0.55744 0.53222 0.83123 0.0
H588 H 0.95192 0.6344 0.10798 0.0
H589 H 0.02062 0.61951 0.15218 0.0
H590 H 0.95058 0.60419 0.02174 0.0
H591 H 0.01962 0.5901 0.06234 0.0
H592 H 0.00919 0.53045 0.91615 0.0
H593 H 1.00673 0.55454 0.02221 0.0
H594 H 0.96407 0.59911 0.90346 0.0
H595 H 0.96607 0.57485 0.7993 0.0
C596 C 0.96668 0.62447 0.10053 0.0
C597 C 0.98645 0.62969 0.13711 0.0
C598 C 0.966 0.60729 0.04984 0.0
C599 C 0.98511 0.59488 0.03359 0.0
C600 C 1.00454 0.5992 0.0732 0.0
C601 C 1.00518 0.61631 0.12436 0.0
C602 C 0.99904 0.54525 0.91336 0.0
C603 C 0.98787 0.55079 0.8493 0.0
C604 C 0.99775 0.55916 0.97394 0.0
C605 C 0.98521 0.57889 0.97181 0.0
C606 C 0.97358 0.58395 0.90805 0.0
C607 C 0.97485 0.57009 0.84785 0.0
H608 H 0.03669 0.24359 0.47354 0.0
H609 H 0.09288 0.20187 0.4244 0.0
H610 H 0.01998 0.21355 0.54156 0.0
H611 H 0.07548 0.17138 0.48883 0.0
H612 H 0.03839 0.11563 0.57993 0.0
H613 H 0.05818 0.15097 0.5848 0.0
H614 H 1.00271 0.18305 0.48019 0.0
H615 H 0.98297 0.14791 0.47672 0.0
C616 C 0.04599 0.22835 0.4796 0.0
C617 C 0.06578 0.22485 0.44111 0.0
C618 C 0.03619 0.21098 0.51795 0.0
C619 C 0.04589 0.18981 0.51787 0.0
C620 C 0.06734 0.18738 0.48925 0.0
C621 C 0.07728 0.20484 0.45163 0.0
C622 C 0.0304 0.13037 0.55881 0.0
C623 C 0.00939 0.12902 0.52627 0.0
C624 C 0.04166 0.15059 0.56205 0.0
C625 C 0.03218 0.16981 0.53227 0.0
C626 C 0.01046 0.16868 0.50462 0.0
C627 C 0.99915 0.14849 0.50192 0.0
H628 H 0.3148 0.11047 0.40958 0.0
H629 H 0.27052 0.05648 0.46391 0.0
H630 H 0.3446 0.0918 0.47347 0.0
H631 H 0.29992 0.03856 0.531 0.0
H632 H 0.36309 0.99832 0.46231 0.0
H633 H 0.32931 0.02006 0.46509 0.0
H634 H 0.36412 0.0734 0.57212 0.0
H635 H 0.39813 0.05141 0.56936 0.0
C636 C 0.31114 0.09512 0.43775 0.0
C637 C 0.29054 0.08455 0.42884 0.0
C638 C 0.32821 0.08447 0.47504 0.0
C639 C 0.32479 0.06326 0.50484 0.0
C640 C 0.30319 0.05459 0.50654 0.0
C641 C 0.28621 0.06509 0.46865 0.0
C642 C 0.36342 0.01443 0.48809 0.0
C643 C 0.38333 0.02336 0.51407 0.0
C644 C 0.34399 0.02689 0.49026 0.0
C645 C 0.34403 0.04856 0.51862 0.0
C646 C 0.36363 0.05689 0.54915 0.0
C647 C 0.3831 0.04438 0.547 0.0
H648 H 0.49664 0.27853 0.42391 0.0
H649 H 0.43883 0.32032 0.44304 0.0
H650 H 0.51964 0.30811 0.47292 0.0
H651 H 0.46194 0.34994 0.49241 0.0
H652 H 0.50831 0.39906 0.58826 0.0
H653 H 0.48993 0.36301 0.58924 0.0
H654 H 0.5266 0.34433 0.39888 0.0
H655 H 0.54519 0.38053 0.39873 0.0
C656 C 0.48865 0.29364 0.44185 0.0
C657 C 0.46596 0.29726 0.42911 0.0
C658 C 0.5019 0.31061 0.46916 0.0
C659 C 0.49259 0.33131 0.48515 0.0
C660 C 0.4695 0.33406 0.4805 0.0
C661 C 0.45627 0.31717 0.45227 0.0
C662 C 0.5131 0.3869 0.54857 0.0
C663 C 0.52835 0.39237 0.49408 0.0
C664 C 0.50243 0.36639 0.54872 0.0
C665 C 0.50693 0.35094 0.49439 0.0
C666 C 0.52312 0.35589 0.44209 0.0
C667 C 0.53363 0.37656 0.44157 0.0
H668 H 0.23206 0.55351 0.53668 0.0
H669 H 0.20068 0.49149 0.59338 0.0
H670 H 0.20466 0.57359 0.60779 0.0
H671 H 0.17312 0.51133 0.66295 0.0
H672 H 0.11629 0.54335 0.73576 0.0
H673 H 0.15603 0.53647 0.74735 0.0
H674 H 0.16766 0.5772 0.55863 0.0
H675 H 0.12815 0.58408 0.5484 0.0
C676 C 0.21994 0.5441 0.56719 0.0
C677 C 0.218 0.52103 0.55807 0.0
C678 C 0.20417 0.55561 0.60759 0.0
C679 C 0.18628 0.54417 0.63902 0.0
C680 C 0.18655 0.52079 0.6392 0.0
C681 C 0.20226 0.50933 0.59877 0.0
C682 C 0.12758 0.55153 0.6989 0.0
C683 C 0.11937 0.5637 0.64006 0.0
C684 C 0.15028 0.54765 0.70549 0.0
C685 C 0.16496 0.55571 0.65268 0.0
C686 C 0.1569 0.57067 0.60034 0.0
C687 C 0.1342 0.57461 0.59405 0.0
H688 H 0.03693 0.77606 0.90225 0.0
H689 H 0.9768 0.81346 0.86904 0.0
H690 H 0.0575 0.80315 0.83079 0.0
H691 H 0.99735 0.84068 0.79854 0.0
H692 H 0.078 0.87883 0.87734 0.0
H693 H 0.06497 0.84065 0.88115 0.0
H694 H 0.02212 0.8535 0.69916 0.0
H695 H 0.03503 0.89181 0.69602 0.0
C696 C 0.02792 0.78955 0.87707 0.0
C697 C 1.00536 0.79297 0.89228 0.0
C698 C 0.03974 0.80511 0.83648 0.0
C699 C 0.02914 0.82422 0.8103 0.0
C700 C 1.00602 0.8261 0.81784 0.0
C701 C 0.99424 0.81064 0.85879 0.0
C702 C 0.06636 0.8733 0.8367 0.0
C703 C 0.05704 0.88844 0.78784 0.0
C704 C 0.05903 0.85134 0.83828 0.0
C705 C 0.04219 0.84422 0.79122 0.0
C706 C 0.03491 0.85864 0.73662 0.0
C707 C 0.04237 0.88057 0.73476 0.0
H708 H 0.68677 0.12875 0.15909 0.0
H709 H 0.72448 0.10045 0.98358 0.0
H710 H 0.65365 0.12712 0.08604 0.0
H711 H 0.69203 0.10154 0.90793 0.0
H712 H 0.62985 0.05914 0.87036 0.0
H713 H 0.66414 0.0757 0.91012 0.0
H714 H 0.62791 0.1318 0.99544 0.0
H715 H 0.5932 0.11429 0.95794 0.0
C716 C 0.68824 0.12284 0.10422 0.0
C717 C 0.70814 0.11337 0.07935 0.0
C718 C 0.66917 0.12226 0.06154 0.0
C719 C 0.66983 0.11302 0.99196 0.0
C720 C 0.69062 0.1076 0.96264 0.0
C721 C 0.7095 0.10743 1.00608 0.0
C722 C 0.62924 0.07524 0.89622 0.0
C723 C 0.60887 0.08533 0.91162 0.0
C724 C 0.64901 0.08496 0.91867 0.0
C725 C 0.64903 0.10524 0.95638 0.0
C726 C 0.62862 0.11601 0.96782 0.0
C727 C 0.60872 0.10604 0.94627 0.0
H728 H 0.58925 0.70789 0.98165 0.0
H729 H 0.63241 0.67604 0.13688 0.0
H730 H 0.57947 0.67217 0.93299 0.0
H731 H 0.62141 0.63987 0.08957 0.0
H732 H 0.55526 0.59468 0.08258 0.0
H733 H 0.58208 0.62408 0.10612 0.0
H734 H 0.58932 0.63526 0.87731 0.0
H735 H 0.56286 0.60548 0.85348 0.0
C736 C 0.59747 0.69345 1.00382 0.0
C737 C 0.61116 0.69503 0.06511 0.0
C738 C 0.59167 0.67279 0.97581 0.0
C739 C 0.59924 0.65322 0.00872 0.0
C740 C 0.61498 0.65474 0.06422 0.0
C741 C 0.62117 0.67549 0.09144 0.0
C742 C 0.56304 0.60294 0.03723 0.0
C743 C 0.55649 0.59816 0.96627 0.0
C744 C 0.57852 0.61971 0.05068 0.0
C745 C 0.58765 0.63206 0.99347 0.0
C746 C 0.58236 0.62615 0.92238 0.0
C747 C 0.56703 0.60928 0.90891 0.0
H748 H 0.78811 0.43032 0.93838 0.0
H749 H 0.80153 0.38054 0.1007 0.0
H750 H 0.82171 0.42024 0.87563 0.0
H751 H 0.83559 0.37054 0.03758 0.0
H752 H 0.88574 0.40585 0.77896 0.0
H753 H 0.84808 0.39557 0.81425 0.0
H754 H 0.86818 0.39505 0.03778 0.0
H755 H 0.90529 0.40566 1.00323 0.0
C756 C 0.79767 0.4165 0.95907 0.0
C757 C 0.79241 0.40664 0.0257 0.0
C758 C 0.81705 0.41069 0.92284 0.0
C759 C 0.8316 0.39494 0.95259 0.0
C760 C 0.82492 0.38308 0.01424 0.0
C761 C 0.80545 0.38885 0.05042 0.0
C762 C 0.88218 0.40313 0.83553 0.0
C763 C 0.89847 0.40706 0.88832 0.0
C764 C 0.86066 0.3971 0.85562 0.0
C765 C 0.85508 0.39472 0.92881 0.0
C766 C 0.87192 0.39647 0.98083 0.0
C767 C 0.89333 0.40263 0.96088 0.0
H768 H 0.05338 0.17383 0.95122 0.0
H769 H 0.99605 0.19537 0.83072 0.0
H770 H 0.04944 0.13678 0.9021 0.0
H771 H 0.99156 0.1577 0.78334 0.0
H772 H 1.00395 0.09183 0.65952 0.0
H773 H 0.00749 0.12997 0.7033 0.0
H774 H 0.02625 0.10498 0.913 0.0
H775 H 0.02306 0.06711 0.8689 0.0
C776 C 0.03998 0.17076 0.91373 0.0
C777 C 0.02516 0.18785 0.89467 0.0
C778 C 0.03752 0.14928 0.88627 0.0
C779 C 0.02007 0.14401 0.83897 0.0
C780 C 1.00529 0.1611 0.81922 0.0
C781 C 0.00775 0.1827 0.84696 0.0
C782 C 0.00891 0.09452 0.71483 0.0
C783 C 0.01337 0.07633 0.76032 0.0
C784 C 0.0108 0.11641 0.74017 0.0
C785 C 0.01733 0.12072 0.81171 0.0
C786 C 0.0216 0.10245 0.85723 0.0
C787 C 0.01965 0.08063 0.83197 0.0
H788 H 0.34167 0.06467 0.9456 0.0
H789 H 0.31701 0.00881 0.82391 0.0
H790 H 0.37844 0.05881 0.89654 0.0
H791 H 0.35436 1.0024 0.7764 0.0
H792 H 0.4208 0.01158 0.65337 0.0
H793 H 0.38301 0.01766 0.6964 0.0
H794 H 0.40855 0.03326 0.90789 0.0
H795 H 0.44617 0.02762 0.86463 0.0
C796 C 0.344 0.05119 0.90783 0.0
C797 C 0.32616 0.03735 0.88841 0.0
C798 C 0.36528 0.04763 0.88039 0.0
C799 C 0.36955 0.03003 0.83273 0.0
C800 C 0.35171 0.01623 0.81257 0.0
C801 C 0.33031 0.01977 0.84035 0.0
C802 C 0.41836 0.01638 0.70898 0.0
C803 C 0.43665 0.0192 0.7553 0.0
C804 C 0.39663 0.01972 0.73384 0.0
C805 C 0.39261 0.02603 0.80572 0.0
C806 C 0.41093 0.02877 0.85192 0.0
C807 C 0.4326 0.02543 0.82712 0.0
H808 H 0.51581 0.32436 0.85063 0.0
H809 H 0.45108 0.34081 0.93396 0.0
H810 H 0.52007 0.36239 0.80676 0.0
H811 H 0.4549 0.37833 0.88746 0.0
H812 H 0.47723 0.45033 0.86459 0.0
H813 H 0.47392 0.4123 0.90867 0.0
H814 H 0.50768 0.3886 0.71861 0.0
H815 H 0.51148 0.42682 0.67567 0.0
C816 C 0.50243 0.33599 0.85939 0.0
C817 C 0.48305 0.32926 0.89579 0.0
C818 C 0.50477 0.35783 0.83352 0.0
C819 C 0.48786 0.37366 0.84351 0.0
C820 C 0.46845 0.36684 0.87943 0.0
C821 C 0.46611 0.34507 0.9052 0.0
C822 C 0.48394 0.43703 0.83207 0.0
C823 C 0.49438 0.44169 0.7659 0.0
C824 C 0.48191 0.41511 0.85717 0.0
C825 C 0.49035 0.39715 0.81705 0.0
C826 C 0.50104 0.40189 0.75129 0.0
C827 C 0.503 0.42381 0.72614 0.0
H828 H 0.1639 0.53624 0.98158 0.0
H829 H 0.17921 0.47106 0.89885 0.0
H830 H 0.1286 0.53562 0.9179 0.0
H831 H 0.14396 0.47095 0.8326 0.0
H832 H 0.0821 0.49438 0.68445 0.0
H833 H 0.12023 0.49514 0.73165 0.0
H834 H 0.0948 0.50788 0.94492 0.0
H835 H 0.05693 0.50662 0.89845 0.0
C836 C 0.15989 0.52184 0.9492 0.0
C837 C 0.17426 0.50345 0.94702 0.0
C838 C 0.13966 0.52157 0.91252 0.0
C839 C 0.13336 0.50308 0.87142 0.0
C840 C 0.14839 0.4854 0.86415 0.0
C841 C 0.16862 0.48552 0.90187 0.0
C842 C 0.08473 0.49728 0.74141 0.0
C843 C 0.06654 0.50049 0.78775 0.0
C844 C 0.10649 0.49757 0.76839 0.0
C845 C 0.11046 0.50171 0.84184 0.0
C846 C 0.09224 0.50485 0.88796 0.0
C847 C 0.07056 0.504 0.86143 0.0
H848 H 0.96137 0.82728 0.54002 0.0
H849 H 0.01707 0.84022 0.40024 0.0
H850 H 0.96457 0.86495 0.58956 0.0
H851 H 0.01998 0.87788 0.44859 0.0
H852 H 0.99598 0.95085 0.48432 0.0
H853 H 0.99365 0.91244 0.44215 0.0
H854 H 0.99367 0.88924 0.66232 0.0
H855 H 0.99694 0.92766 0.70473 0.0
C856 C 0.97436 0.83812 0.52026 0.0
C857 C 0.98902 0.83074 0.46642 0.0
C858 C 0.97623 0.85964 0.54871 0.0
C859 C 0.99244 0.87443 0.5226 0.0
C860 C 0.00723 0.86694 0.4694 0.0
C861 C 1.00567 0.84531 0.44217 0.0
C862 C 0.99549 0.93758 0.5238 0.0
C863 C 0.99663 0.94235 0.59788 0.0
C864 C 0.99427 0.91557 0.49961 0.0
C865 C 0.99359 0.8978 0.54892 0.0
C866 C 0.99418 0.90257 0.62307 0.0
C867 C 0.99608 0.92457 0.64728 0.0
H868 H 0.66792 0.96297 0.39127 0.0
H869 H 0.6835 0.02214 0.51236 0.0
H870 H 0.63063 0.96287 0.44273 0.0
H871 H 0.64649 0.02198 0.56362 0.0
H872 H 0.58442 1.00609 0.69052 0.0
H873 H 0.62201 1.00277 0.64463 0.0
H874 H 0.59636 0.98399 0.43606 0.0
H875 H 0.55862 0.98688 0.4824 0.0
C876 C 0.66347 0.9759 0.42902 0.0
C877 C 0.67889 0.99249 0.44774 0.0
C878 C 0.64204 0.97589 0.4584 0.0
C879 C 0.63544 0.99244 0.50736 0.0
C880 C 0.65101 0.00874 0.52712 0.0
C881 C 0.67237 0.00877 0.49776 0.0
C882 C 0.5867 1.00115 0.6349 0.0
C883 C 0.56835 0.99682 0.5902 0.0
C884 C 0.60835 0.99935 0.60843 0.0
C885 C 0.61233 0.9932 0.53644 0.0
C886 C 0.59399 0.98852 0.492 0.0
C887 C 0.57229 0.99033 0.5185 0.0
H888 H 0.5009 0.67261 0.36343 0.0
H889 H 0.51862 0.6962 0.57549 0.0
H890 H 0.49676 0.63514 0.41124 0.0
H891 H 0.5156 0.65858 0.62252 0.0
H892 H 0.49135 0.59145 0.70087 0.0
H893 H 0.49143 0.62905 0.65315 0.0
H894 H 0.51909 0.60509 0.45309 0.0
H895 H 0.51838 0.56727 0.50021 0.0
C896 C 0.50363 0.66992 0.42048 0.0
C897 C 0.51013 0.68758 0.46542 0.0
C898 C 0.50162 0.64828 0.44774 0.0
C899 C 0.50608 0.64362 0.52075 0.0
C900 C 0.51186 0.66142 0.56616 0.0
C901 C 0.51381 0.68305 0.53896 0.0
C902 C 0.49744 0.59412 0.64662 0.0
C903 C 0.50491 0.57619 0.60457 0.0
C904 C 0.49759 0.61581 0.61928 0.0
C905 C 0.5053 0.6203 0.54911 0.0
C906 C 0.51269 0.60234 0.50692 0.0
C907 C 0.51246 0.58059 0.53421 0.0
H908 H 0.82496 0.47728 0.49201 0.0
H909 H 0.82785 0.54846 0.46255 0.0
H910 H 0.86123 0.47799 0.54833 0.0
H911 H 0.86473 0.54889 0.51706 0.0
H912 H 0.94066 0.53281 0.53177 0.0
H913 H 0.90284 0.53469 0.48552 0.0
H914 H 0.88071 0.49193 0.65821 0.0
H915 H 0.91844 0.49015 0.70487 0.0
C916 C 0.83304 0.49319 0.49861 0.0
C917 C 0.82315 0.51285 0.47282 0.0
C918 C 0.85401 0.49353 0.5307 0.0
C919 C 0.86591 0.51348 0.53722 0.0
C920 C 0.85608 0.5332 0.51216 0.0
C921 C 0.83492 0.53292 0.48074 0.0
C922 C 0.92775 0.52387 0.56019 0.0
C923 C 0.93274 0.51112 0.62179 0.0
C924 C 0.90601 0.52508 0.53385 0.0
C925 C 0.88875 0.51341 0.56799 0.0
C926 C 0.89367 0.50093 0.63015 0.0
C927 C 0.91534 0.49991 0.65695 0.0
loop_
_geom_bond_atom_site_label_1
_geom_bond_atom_site_label_2
_geom_bond_distance
_geom_bond_site_symmetry_2
_ccdc_geom_bond_type
C0 C1 1.384 . S
C0 H13 0.947 . S
C0 C35 1.382 . S
C1 C0 1.384 . S
C1 C2 1.378 . S
C2 C1 1.378 . S
C2 C3 1.378 . S
C2 H14 0.952 . S
C3 C2 1.378 . S
C3 H15 0.950 . S
C3 C34 1.383 . S
H4 C23 0.947 . S
H5 C24 0.946 . S
H6 C26 0.953 . S
H7 C27 0.945 . S
H8 C29 0.952 . S
H9 C30 0.949 . S
H10 C32 0.950 . S
H11 C33 0.948 . S
H12 C35 0.951 . S
H13 C0 0.947 . S
H14 C2 0.952 . S
H15 C3 0.950 . S
N16 C19 1.382 . S
N16 C21 1.363 . S
N17 C19 1.371 . S
N17 C20 1.372 . S
N18 C20 1.361 . S
N18 C21 1.377 . S
C19 N16 1.382 . S
C19 N17 1.371 . S
C19 C22 1.480 . S
C20 N17 1.372 . S
C20 N18 1.361 . S
C20 C28 1.457 . S
C21 N16 1.363 . S
C21 N18 1.377 . S
C21 C34 1.479 . S
C22 C19 1.480 . S
C22 C23 1.383 . S
C22 C27 1.385 . S
C23 H4 0.947 . S
C23 C22 1.383 . S
C23 C24 1.388 . S
C24 H5 0.946 . S
C24 C23 1.388 . S
C24 C25 1.384 . S
C25 C24 1.384 . S
C25 C26 1.377 . S
C26 H6 0.953 . S
C26 C25 1.377 . S
C26 C27 1.369 . S
C27 H7 0.945 . S
C27 C22 1.385 . S
C27 C26 1.369 . S
C28 C20 1.457 . S
C28 C29 1.372 . S
C28 C33 1.364 . S
C29 H8 0.952 . S
C29 C28 1.372 . S
C29 C30 1.389 . S
C30 H9 0.949 . S
C30 C29 1.389 . S
C30 C31 1.387 . S
C31 C30 1.387 . S
C31 C32 1.372 . S
C32 H10 0.950 . S
C32 C31 1.372 . S
C32 C33 1.379 . S
C33 H11 0.948 . S
C33 C28 1.364 . S
C33 C32 1.379 . S
C34 C3 1.383 . S
C34 C21 1.479 . S
C34 C35 1.398 . S
C35 C0 1.382 . S
C35 H12 0.951 . S
C35 C34 1.398 . S
C36 C37 1.384 . S
C36 H49 0.947 . S
C36 C71 1.382 . S
C37 C36 1.384 . S
C37 C38 1.378 1_655 S
C38 C37 1.378 1_455 S
C38 C39 1.378 . S
C38 H50 0.952 . S
C39 C38 1.378 . S
C39 H51 0.950 . S
C39 C70 1.385 . S
H40 C59 0.947 . S
H41 C60 0.946 . S
H42 C62 0.953 . S
H43 C63 0.945 . S
H44 C65 0.952 . S
H45 C66 0.949 . S
H46 C68 0.950 . S
H47 C69 0.948 . S
H48 C71 0.951 . S
H49 C36 0.947 . S
H50 C38 0.952 . S
H51 C39 0.950 . S
N52 C55 1.382 . S
N52 C57 1.363 . S
N53 C55 1.372 . S
N53 C56 1.374 . S
N54 C56 1.361 . S
N54 C57 1.377 . S
C55 N52 1.382 . S
C55 N53 1.372 . S
C55 C58 1.480 . S
C56 N53 1.374 . S
C56 N54 1.361 . S
C56 C64 1.457 . S
C57 N52 1.363 . S
C57 N54 1.377 . S
C57 C70 1.481 . S
C58 C55 1.480 . S
C58 C59 1.380 1_455 S
C58 C63 1.385 . S
C59 H40 0.947 . S
C59 C58 1.380 1_655 S
C59 C60 1.393 . S
C60 H41 0.946 . S
C60 C59 1.393 . S
C60 C61 1.389 . S
C61 C60 1.389 . S
C61 C62 1.372 1_655 S
C62 H42 0.953 . S
C62 C61 1.372 1_455 S
C62 C63 1.369 . S
C63 H43 0.945 . S
C63 C58 1.385 . S
C63 C62 1.369 . S
C64 C56 1.457 . S
C64 C65 1.372 1_455 S
C64 C69 1.364 . S
C65 H44 0.952 . S
C65 C64 1.372 1_655 S
C65 C66 1.389 . S
C66 H45 0.949 . S
C66 C65 1.389 . S
C66 C67 1.393 . S
C67 C66 1.393 . S
C67 C68 1.364 1_655 S
C68 H46 0.950 . S
C68 C67 1.364 1_455 S
C68 C69 1.379 . S
C69 H47 0.948 . S
C69 C64 1.364 . S
C69 C68 1.379 . S
C70 C39 1.385 . S
C70 C57 1.481 . S
C70 C71 1.396 1_455 S
C71 C36 1.382 . S
C71 H48 0.951 . S
C71 C70 1.396 1_655 S
C72 C73 1.384 . S
C72 H85 0.947 . S
C72 C107 1.382 . S
C73 C72 1.384 . S
C73 C74 1.378 1_565 S
C74 C73 1.378 1_545 S
C74 C75 1.378 . S
C74 H86 0.952 . S
C75 C74 1.378 . S
C75 H87 0.950 . S
C75 C106 1.386 . S
H76 C95 0.946 . S
H77 C96 0.946 . S
H78 C98 0.953 . S
H79 C99 0.945 . S
H80 C101 0.952 . S
H81 C102 0.949 . S
H82 C104 0.950 . S
H83 C105 0.948 . S
H84 C107 0.951 . S
H85 C72 0.947 . S
H86 C74 0.952 . S
H87 C75 0.950 . S
N88 C91 1.382 . S
N88 C93 1.363 . S
N89 C91 1.372 . S
N89 C92 1.375 . S
N90 C92 1.361 . S
N90 C93 1.377 . S
C91 N88 1.382 . S
C91 N89 1.372 . S
C91 C94 1.480 . S
C92 N89 1.375 . S
C92 N90 1.361 . S
C92 C100 1.457 . S
C93 N88 1.363 . S
C93 N90 1.377 . S
C93 C106 1.481 . S
C94 C91 1.480 . S
C94 C95 1.380 1_545 S
C94 C99 1.385 . S
C95 H76 0.946 . S
C95 C94 1.380 1_565 S
C95 C96 1.392 . S
C96 H77 0.946 . S
C96 C95 1.392 . S
C96 C97 1.389 . S
C97 C96 1.389 . S
C97 C98 1.373 1_565 S
C98 H78 0.953 . S
C98 C97 1.373 1_545 S
C98 C99 1.369 . S
C99 H79 0.945 . S
C99 C94 1.385 . S
C99 C98 1.369 . S
C100 C92 1.457 . S
C100 C101 1.372 1_545 S
C100 C105 1.364 . S
C101 H80 0.952 . S
C101 C100 1.372 1_565 S
C101 C102 1.389 . S
C102 H81 0.949 . S
C102 C101 1.389 . S
C102 C103 1.393 . S
C103 C102 1.393 . S
C103 C104 1.364 1_565 S
C104 H82 0.950 . S
C104 C103 1.364 1_545 S
C104 C105 1.379 . S
C105 H83 0.948 . S
C105 C100 1.364 . S
C105 C104 1.379 . S
C106 C75 1.386 . S
C106 C93 1.481 . S
C106 C107 1.396 1_545 S
C107 C72 1.382 . S
C107 H84 0.951 . S
C107 C106 1.396 1_565 S
C108 C109 1.384 . S
C108 H121 0.947 . S
C108 C143 1.382 . S
C109 C108 1.384 . S
C109 C110 1.378 . S
C110 C109 1.378 . S
C110 C111 1.378 . S
C110 H122 0.952 . S
C111 C110 1.378 . S
C111 H123 0.950 . S
C111 C142 1.383 . S
H112 C131 0.947 . S
H113 C132 0.946 . S
H114 C134 0.953 . S
H115 C135 0.945 . S
H116 C137 0.952 . S
H117 C138 0.949 . S
H118 C140 0.950 . S
H119 C141 0.948 . S
H120 C143 0.951 . S
H121 C108 0.947 . S
H122 C110 0.952 . S
H123 C111 0.950 . S
N124 C127 1.382 . S
N124 C129 1.363 . S
N125 C127 1.371 . S
N125 C128 1.372 . S
N126 C128 1.361 . S
N126 C129 1.377 . S
C127 N124 1.382 . S
C127 N125 1.371 . S
C127 C130 1.480 . S
C128 N125 1.372 . S
C128 N126 1.361 . S
C128 C136 1.457 . S
C129 N124 1.363 . S
C129 N126 1.377 . S
C129 C142 1.479 . S
C130 C127 1.480 . S
C130 C131 1.383 . S
C130 C135 1.385 . S
C131 H112 0.947 . S
C131 C130 1.383 . S
C131 C132 1.388 . S
C132 H113 0.946 . S
C132 C131 1.388 . S
C132 C133 1.384 . S
C133 C132 1.384 . S
C133 C134 1.377 . S
C134 H114 0.953 . S
C134 C133 1.377 . S
C134 C135 1.369 . S
C135 H115 0.945 . S
C135 C130 1.385 . S
C135 C134 1.369 . S
C136 C128 1.457 . S
C136 C137 1.372 . S
C136 C141 1.364 . S
C137 H116 0.952 . S
C137 C136 1.372 . S
C137 C138 1.389 . S
C138 H117 0.949 . S
C138 C137 1.389 . S
C138 C139 1.387 . S
C139 C138 1.387 . S
C139 C140 1.372 . S
C140 H118 0.950 . S
C140 C139 1.372 . S
C140 C141 1.379 . S
C141 H119 0.948 . S
C141 C136 1.364 . S
C141 C140 1.379 . S
C142 C111 1.383 . S
C142 C129 1.479 . S
C142 C143 1.398 . S
C143 C108 1.382 . S
C143 H120 0.951 . S
C143 C142 1.398 . S
C144 C145 1.384 . S
C144 H157 0.947 . S
C144 C179 1.382 . S
C145 C144 1.384 . S
C145 C146 1.378 . S
C146 C145 1.378 . S
C146 C147 1.378 . S
C146 H158 0.952 . S
C147 C146 1.378 . S
C147 H159 0.950 . S
C147 C178 1.383 . S
H148 C167 0.947 1_556 S
H149 C168 0.946 1_556 S
H150 C170 0.953 . S
H151 C171 0.945 . S
H152 C173 0.952 . S
H153 C174 0.949 . S
H154 C176 0.950 . S
H155 C177 0.948 . S
H156 C179 0.951 . S
H157 C144 0.947 . S
H158 C146 0.952 . S
H159 C147 0.950 . S
N160 C163 1.382 1_556 S
N160 C165 1.363 . S
N161 C163 1.371 . S
N161 C164 1.372 . S
N162 C164 1.361 . S
N162 C165 1.377 1_554 S
C163 N160 1.382 1_554 S
C163 N161 1.371 . S
C163 C166 1.480 . S
C164 N161 1.372 . S
C164 N162 1.361 . S
C164 C172 1.457 . S
C165 N160 1.363 . S
C165 N162 1.377 1_556 S
C165 C178 1.479 . S
C166 C163 1.480 . S
C166 C167 1.383 . S
C166 C171 1.385 . S
C167 H148 0.947 1_554 S
C167 C166 1.383 . S
C167 C168 1.388 . S
C168 H149 0.946 1_554 S
C168 C167 1.388 . S
C168 C169 1.384 . S
C169 C168 1.384 . S
C169 C170 1.377 . S
C170 H150 0.953 . S
C170 C169 1.377 . S
C170 C171 1.369 . S
C171 H151 0.945 . S
C171 C166 1.385 . S
C171 C170 1.369 . S
C172 C164 1.457 . S
C172 C173 1.372 . S
C172 C177 1.364 . S
C173 H152 0.952 . S
C173 C172 1.372 . S
C173 C174 1.389 . S
C174 H153 0.949 . S
C174 C173 1.389 . S
C174 C175 1.387 . S
C175 C174 1.387 . S
C175 C176 1.372 . S
C176 H154 0.950 . S
C176 C175 1.372 . S
C176 C177 1.379 . S
C177 H155 0.948 . S
C177 C172 1.364 . S
C177 C176 1.379 . S
C178 C147 1.383 . S
C178 C165 1.479 . S
C178 C179 1.398 . S
C179 C144 1.382 . S
C179 H156 0.951 . S
C179 C178 1.398 . S
C180 C181 1.384 . S
C180 H193 0.947 . S
C180 C215 1.382 . S
C181 C180 1.384 . S
C181 C182 1.378 . S
C182 C181 1.378 . S
C182 C183 1.378 . S
C182 H194 0.952 . S
C183 C182 1.378 . S
C183 H195 0.950 . S
C183 C214 1.383 . S
H184 C203 0.947 1_556 S
H185 C204 0.935 1_656 S
H186 C206 0.953 . S
H187 C207 0.945 . S
H188 C209 0.960 . S
H189 C210 0.946 1_655 S
H190 C212 0.950 . S
H191 C213 0.948 . S
H192 C215 0.951 . S
H193 C180 0.947 . S
H194 C182 0.952 . S
H195 C183 0.950 . S
N196 C199 1.382 1_556 S
N196 C201 1.363 . S
N197 C199 1.371 . S
N197 C200 1.372 . S
N198 C200 1.361 . S
N198 C201 1.377 1_554 S
C199 N196 1.382 1_554 S
C199 N197 1.371 . S
C199 C202 1.480 . S
C200 N197 1.372 . S
C200 N198 1.361 . S
C200 C208 1.457 . S
C201 N196 1.363 . S
C201 N198 1.377 1_556 S
C201 C214 1.479 . S
C202 C199 1.480 . S
C202 C203 1.383 . S
C202 C207 1.385 . S
C203 H184 0.947 1_554 S
C203 C202 1.383 . S
C203 C204 1.388 . S
C204 H185 0.935 1_454 S
C204 C203 1.388 . S
C204 C205 1.384 . S
C205 C204 1.384 . S
C205 C206 1.377 . S
C206 H186 0.953 . S
C206 C205 1.377 . S
C206 C207 1.369 . S
C207 H187 0.945 . S
C207 C202 1.385 . S
C207 C206 1.369 . S
C208 C200 1.457 . S
C208 C209 1.372 . S
C208 C213 1.364 . S
C209 H188 0.960 . S
C209 C208 1.372 . S
C209 C210 1.389 . S
C210 H189 0.946 1_455 S
C210 C209 1.389 . S
C210 C211 1.387 . S
C211 C210 1.387 . S
C211 C212 1.372 . S
C212 H190 0.950 . S
C212 C211 1.372 . S
C212 C213 1.379 . S
C213 H191 0.948 . S
C213 C208 1.364 . S
C213 C212 1.379 . S
C214 C183 1.383 . S
C214 C201 1.479 . S
C214 C215 1.398 . S
C215 C180 1.382 . S
C215 H192 0.951 . S
C215 C214 1.398 . S
C216 C217 1.384 . S
C216 H229 0.947 . S
C216 C251 1.382 . S
C217 C216 1.384 . S
C217 C218 1.378 . S
C218 C217 1.378 . S
C218 C219 1.378 . S
C218 H230 0.952 . S
C219 C218 1.378 . S
C219 H231 0.950 . S
C219 C250 1.383 . S
H220 C239 0.947 1_556 S
H221 C240 0.946 1_556 S
H222 C242 0.953 . S
H223 C243 0.945 . S
H224 C245 0.952 . S
H225 C246 0.949 . S
H226 C248 0.950 . S
H227 C249 0.948 . S
H228 C251 0.951 . S
H229 C216 0.947 . S
H230 C218 0.952 . S
H231 C219 0.950 . S
N232 C235 1.382 1_556 S
N232 C237 1.363 . S
N233 C235 1.371 . S
N233 C236 1.372 . S
N234 C236 1.361 . S
N234 C237 1.377 1_554 S
C235 N232 1.382 1_554 S
C235 N233 1.371 . S
C235 C238 1.480 . S
C236 N233 1.372 . S
C236 N234 1.361 . S
C236 C244 1.457 . S
C237 N232 1.363 . S
C237 N234 1.377 1_556 S
C237 C250 1.479 . S
C238 C235 1.480 . S
C238 C239 1.383 . S
C238 C243 1.385 . S
C239 H220 0.947 1_554 S
C239 C238 1.383 . S
C239 C240 1.388 . S
C240 H221 0.946 1_554 S
C240 C239 1.388 . S
C240 C241 1.384 . S
C241 C240 1.384 . S
C241 C242 1.377 . S
C242 H222 0.953 . S
C242 C241 1.377 . S
C242 C243 1.369 . S
C243 H223 0.945 . S
C243 C238 1.385 . S
C243 C242 1.369 . S
C244 C236 1.457 . S
C244 C245 1.372 . S
C244 C249 1.364 . S
C245 H224 0.952 . S
C245 C244 1.372 . S
C245 C246 1.389 . S
C246 H225 0.949 . S
C246 C245 1.389 . S
C246 C247 1.387 . S
C247 C246 1.387 . S
C247 C248 1.372 . S
C248 H226 0.950 . S
C248 C247 1.372 . S
C248 C249 1.379 . S
C249 H227 0.948 . S
C249 C244 1.364 . S
C249 C248 1.379 . S
C250 C219 1.383 . S
C250 C237 1.479 . S
C250 C251 1.398 . S
C251 C216 1.382 . S
C251 H228 0.951 . S
C251 C250 1.398 . S
C252 C253 1.384 . S
C252 H265 0.947 . S
C252 C287 1.382 . S
C253 C252 1.384 . S
C253 C254 1.378 . S
C254 C253 1.378 . S
C254 C255 1.378 . S
C254 H266 0.952 . S
C255 C254 1.378 . S
C255 H267 0.950 . S
C255 C286 1.383 . S
H256 C275 0.947 . S
H257 C276 0.946 . S
H258 C278 0.953 1_556 S
H259 C279 0.945 1_556 S
H260 C281 0.952 . S
H261 C282 0.949 . S
H262 C284 0.950 . S
H263 C285 0.948 . S
H264 C287 0.951 . S
H265 C252 0.947 . S
H266 C254 0.952 . S
H267 C255 0.950 . S
N268 C271 1.382 . S
N268 C273 1.363 . S
N269 C271 1.371 1_556 S
N269 C272 1.372 . S
N270 C272 1.361 1_554 S
N270 C273 1.377 . S
C271 N268 1.382 . S
C271 N269 1.371 1_554 S
C271 C274 1.480 . S
C272 N269 1.372 . S
C272 N270 1.361 1_556 S
C272 C280 1.457 . S
C273 N268 1.363 . S
C273 N270 1.377 . S
C273 C286 1.479 . S
C274 C271 1.480 . S
C274 C275 1.383 . S
C274 C279 1.385 . S
C275 H256 0.947 . S
C275 C274 1.383 . S
C275 C276 1.388 . S
C276 H257 0.946 . S
C276 C275 1.388 . S
C276 C277 1.384 . S
C277 C276 1.384 . S
C277 C278 1.377 . S
C278 H258 0.953 1_554 S
C278 C277 1.377 . S
C278 C279 1.369 . S
C279 H259 0.945 1_554 S
C279 C274 1.385 . S
C279 C278 1.369 . S
C280 C272 1.457 . S
C280 C281 1.372 . S
C280 C285 1.364 . S
C281 H260 0.952 . S
C281 C280 1.372 . S
C281 C282 1.389 . S
C282 H261 0.949 . S
C282 C281 1.389 . S
C282 C283 1.387 . S
C283 C282 1.387 . S
C283 C284 1.372 . S
C284 H262 0.950 . S
C284 C283 1.372 . S
C284 C285 1.379 . S
C285 H263 0.948 . S
C285 C280 1.364 . S
C285 C284 1.379 . S
C286 C255 1.383 . S
C286 C273 1.479 . S
C286 C287 1.398 . S
C287 C252 1.382 . S
C287 H264 0.951 . S
C287 C286 1.398 . S
Gd288 C291 2.818 . S
Gd288 O308 2.377 . S
Gd288 O310 2.448 . S
Gd288 O311 2.506 . S
Gd288 O312 2.435 . S
Gd288 O313 2.717 1_565 S
Gd288 O315 2.395 1_565 S
Gd288 O319 2.327 1_455 S
Gd289 C300 2.818 . S
Gd289 O309 2.395 1_545 S
Gd289 O313 2.327 1_655 S
Gd289 O314 2.377 . S
Gd289 O316 2.448 . S
Gd289 O317 2.506 . S
Gd289 O318 2.435 . S
Gd289 O319 2.717 1_545 S
C290 O308 1.240 1_655 S
C290 O309 1.240 . S
C291 Gd288 2.818 . S
C291 C292 1.510 . S
C291 O310 1.249 . S
C291 O311 1.252 . S
C292 C291 1.510 . S
C292 C293 1.404 . S
C292 C294 1.352 . S
C293 C292 1.404 . S
C293 C297 1.389 . S
C293 H320 0.930 . S
C294 C292 1.352 . S
C294 C296 1.374 . S
C294 H321 0.931 1_455 S
C295 C296 1.359 . S
C295 C297 1.364 . S
C296 C294 1.374 . S
C296 C295 1.359 . S
C296 H322 0.931 1_455 S
C297 C293 1.389 . S
C297 C295 1.364 . S
C297 H323 0.931 . S
C298 O312 1.256 1_545 S
C298 O313 1.257 . S
C299 O314 1.240 1_455 S
C299 O315 1.240 . S
C300 Gd289 2.818 . S
C300 C301 1.510 . S
C300 O316 1.249 . S
C300 O317 1.252 . S
C301 C300 1.510 . S
C301 C302 1.404 . S
C301 C303 1.352 . S
C302 C301 1.404 . S
C302 C306 1.389 . S
C302 H324 0.930 . S
C303 C301 1.352 . S
C303 C305 1.374 . S
C303 H325 0.931 1_655 S
C304 C305 1.359 . S
C304 C306 1.364 . S
C305 C303 1.374 . S
C305 C304 1.359 . S
C305 H326 0.931 1_655 S
C306 C302 1.389 . S
C306 C304 1.364 . S
C306 H327 0.931 . S
C307 O318 1.256 . S
C307 O319 1.257 1_545 S
O308 Gd288 2.377 . S
O308 C290 1.240 1_455 S
O309 Gd289 2.395 1_565 S
O309 C290 1.240 . S
O310 Gd288 2.448 . S
O310 C291 1.249 . S
O311 Gd288 2.506 . S
O311 C291 1.252 . S
O312 Gd288 2.435 . S
O312 C298 1.256 1_565 S
O313 Gd288 2.717 1_545 S
O313 Gd289 2.327 1_455 S
O313 C298 1.257 . S
O314 Gd289 2.377 . S
O314 C299 1.240 1_655 S
O315 Gd288 2.395 1_545 S
O315 C299 1.240 . S
O316 Gd289 2.448 . S
O316 C300 1.249 . S
O317 Gd289 2.506 . S
O317 C300 1.252 . S
O318 Gd289 2.435 . S
O318 C307 1.256 . S
O319 Gd288 2.327 1_655 S
O319 Gd289 2.717 1_565 S
O319 C307 1.257 1_565 S
H320 C293 0.930 . S
H321 C294 0.931 1_655 S
H322 C296 0.931 1_655 S
H323 C297 0.931 . S
H324 C302 0.930 . S
H325 C303 0.931 1_455 S
H326 C305 0.931 1_455 S
H327 C306 0.931 . S
Gd328 C331 2.818 . S
Gd328 O348 2.377 . S
Gd328 O350 2.448 . S
Gd328 O351 2.506 . S
Gd328 O352 2.435 . S
Gd328 O353 2.717 . S
Gd328 O355 2.395 . S
Gd328 O359 2.327 1_545 S
Gd329 C340 2.818 . S
Gd329 O349 2.395 . S
Gd329 O353 2.327 1_565 S
Gd329 O354 2.377 . S
Gd329 O356 2.448 . S
Gd329 O357 2.514 . S
Gd329 O358 2.435 . S
Gd329 O359 2.717 . S
C330 O348 1.240 1_565 S
C330 O349 1.240 . S
C331 Gd328 2.818 . S
C331 C332 1.510 . S
C331 O350 1.249 . S
C331 O351 1.252 . S
C332 C331 1.510 . S
C332 C333 1.404 . S
C332 C334 1.352 . S
C333 C332 1.404 . S
C333 C337 1.389 . S
C333 H360 0.930 . S
C334 C332 1.352 . S
C334 C336 1.374 . S
C334 H361 0.931 1_545 S
C335 C336 1.359 . S
C335 C337 1.364 . S
C336 C334 1.374 . S
C336 C335 1.359 . S
C336 H362 0.931 1_545 S
C337 C333 1.389 . S
C337 C335 1.364 . S
C337 H363 0.931 . S
C338 O352 1.256 . S
C338 O353 1.257 . S
C339 O354 1.240 1_545 S
C339 O355 1.240 . S
C340 Gd329 2.818 . S
C340 C341 1.510 . S
C340 O356 1.249 . S
C340 O357 1.273 . S
C341 C340 1.510 . S
C341 C342 1.404 . S
C341 C343 1.352 . S
C342 C341 1.404 . S
C342 C346 1.389 . S
C342 H364 0.930 . S
C343 C341 1.352 . S
C343 C345 1.374 . S
C343 H365 0.931 1_565 S
C344 C345 1.359 . S
C344 C346 1.364 . S
C345 C343 1.374 . S
C345 C344 1.359 . S
C345 H366 0.931 1_565 S
C346 C342 1.389 . S
C346 C344 1.364 . S
C346 H367 0.931 . S
C347 O358 1.256 . S
C347 O359 1.257 . S
O348 Gd328 2.377 . S
O348 C330 1.240 1_545 S
O349 Gd329 2.395 . S
O349 C330 1.240 . S
O350 Gd328 2.448 . S
O350 C331 1.249 . S
O351 Gd328 2.506 . S
O351 C331 1.252 . S
O352 Gd328 2.435 . S
O352 C338 1.256 . S
O353 Gd328 2.717 . S
O353 Gd329 2.327 1_545 S
O353 C338 1.257 . S
O354 Gd329 2.377 . S
O354 C339 1.240 1_565 S
O355 Gd328 2.395 . S
O355 C339 1.240 . S
O356 Gd329 2.448 . S
O356 C340 1.249 . S
O357 Gd329 2.514 . S
O357 C340 1.273 . S
O358 Gd329 2.435 . S
O358 C347 1.256 . S
O359 Gd328 2.327 1_565 S
O359 Gd329 2.717 . S
O359 C347 1.257 . S
H360 C333 0.930 . S
H361 C334 0.931 1_565 S
H362 C336 0.931 1_565 S
H363 C337 0.931 . S
H364 C342 0.930 . S
H365 C343 0.931 1_545 S
H366 C345 0.931 1_545 S
H367 C346 0.931 . S
Gd368 C371 2.818 . S
Gd368 O388 2.377 . S
Gd368 O390 2.448 . S
Gd368 O391 2.506 . S
Gd368 O392 2.435 . S
Gd368 O393 2.717 . S
Gd368 O395 2.395 . S
Gd368 O399 2.327 . S
Gd369 C380 2.818 . S
Gd369 O389 2.395 . S
Gd369 O393 2.327 . S
Gd369 O394 2.377 . S
Gd369 O396 2.448 . S
Gd369 O397 2.506 . S
Gd369 O398 2.435 . S
Gd369 O399 2.717 . S
C370 O388 1.240 . S
C370 O389 1.240 . S
C371 Gd368 2.818 . S
C371 C372 1.510 . S
C371 O390 1.249 . S
C371 O391 1.252 . S
C372 C371 1.510 . S
C372 C373 1.404 . S
C372 C374 1.352 . S
C373 C372 1.404 . S
C373 C377 1.389 . S
C373 H400 0.930 . S
C374 C372 1.352 . S
C374 C376 1.374 . S
C374 H401 0.931 . S
C375 C376 1.359 . S
C375 C377 1.364 . S
C376 C374 1.374 . S
C376 C375 1.359 . S
C376 H402 0.931 . S
C377 C373 1.389 . S
C377 C375 1.364 . S
C377 H403 0.931 . S
C378 O392 1.256 . S
C378 O393 1.257 . S
C379 O394 1.240 . S
C379 O395 1.240 . S
C380 Gd369 2.818 . S
C380 C381 1.510 . S
C380 O396 1.249 . S
C380 O397 1.252 . S
C381 C380 1.510 . S
C381 C382 1.404 . S
C381 C383 1.352 . S
C382 C381 1.404 . S
C382 C386 1.389 . S
C382 H404 0.930 . S
C383 C381 1.352 . S
C383 C385 1.374 . S
C383 H405 0.931 . S
C384 C385 1.359 . S
C384 C386 1.364 . S
C385 C383 1.374 . S
C385 C384 1.359 . S
C385 H406 0.931 . S
C386 C382 1.389 . S
C386 C384 1.364 . S
C386 H407 0.931 . S
C387 O398 1.256 . S
C387 O399 1.257 . S
O388 Gd368 2.377 . S
O388 C370 1.240 . S
O389 Gd369 2.395 . S
O389 C370 1.240 . S
O390 Gd368 2.448 . S
O390 C371 1.249 . S
O391 Gd368 2.506 . S
O391 C371 1.252 . S
O392 Gd368 2.435 . S
O392 C378 1.256 . S
O393 Gd368 2.717 . S
O393 Gd369 2.327 . S
O393 C378 1.257 . S
O394 Gd369 2.377 . S
O394 C379 1.240 . S
O395 Gd368 2.395 . S
O395 C379 1.240 . S
O396 Gd369 2.448 . S
O396 C380 1.249 . S
O397 Gd369 2.506 . S
O397 C380 1.252 . S
O398 Gd369 2.435 . S
O398 C387 1.256 . S
O399 Gd368 2.327 . S
O399 Gd369 2.717 . S
O399 C387 1.257 . S
H400 C373 0.930 . S
H401 C374 0.931 . S
H402 C376 0.931 . S
H403 C377 0.931 . S
H404 C382 0.930 . S
H405 C383 0.931 . S
H406 C385 0.931 . S
H407 C386 0.931 . S
Gd408 C411 2.818 . S
Gd408 O428 2.377 . S
Gd408 O430 2.448 . S
Gd408 O431 2.506 . S
Gd408 O432 2.435 . S
Gd408 O433 2.717 1_655 S
Gd408 O435 2.395 1_655 S
Gd408 O439 2.327 . S
Gd409 C420 2.818 . S
Gd409 O429 2.395 1_455 S
Gd409 O433 2.327 . S
Gd409 O434 2.377 . S
Gd409 O436 2.448 . S
Gd409 O437 2.506 . S
Gd409 O438 2.435 . S
Gd409 O439 2.717 1_455 S
C410 O428 1.240 . S
C410 O429 1.240 . S
C411 Gd408 2.818 . S
C411 C412 1.510 . S
C411 O430 1.249 . S
C411 O431 1.252 . S
C412 C411 1.510 . S
C412 C413 1.404 . S
C412 C414 1.352 . S
C413 C412 1.404 . S
C413 C417 1.389 . S
C413 H440 0.930 . S
C414 C412 1.352 . S
C414 C416 1.374 . S
C414 H441 0.931 . S
C415 C416 1.359 . S
C415 C417 1.364 . S
C416 C414 1.374 . S
C416 C415 1.359 . S
C416 H442 0.931 . S
C417 C413 1.389 . S
C417 C415 1.364 . S
C417 H443 0.931 . S
C418 O432 1.281 . S
C418 O433 1.244 1_655 S
C419 O434 1.240 . S
C419 O435 1.240 . S
C420 Gd409 2.818 . S
C420 C421 1.510 . S
C420 O436 1.249 . S
C420 O437 1.252 . S
C421 C420 1.510 . S
C421 C422 1.404 . S
C421 C423 1.352 . S
C422 C421 1.404 . S
C422 C426 1.389 . S
C422 H444 0.930 . S
C423 C421 1.352 . S
C423 C425 1.374 . S
C423 H445 0.931 . S
C424 C425 1.359 . S
C424 C426 1.364 . S
C425 C423 1.374 . S
C425 C424 1.359 . S
C425 H446 0.931 . S
C426 C422 1.389 . S
C426 C424 1.364 . S
C426 H447 0.931 . S
C427 O438 1.256 . S
C427 O439 1.257 1_455 S
O428 Gd408 2.377 . S
O428 C410 1.240 . S
O429 Gd409 2.395 1_655 S
O429 C410 1.240 . S
O430 Gd408 2.448 . S
O430 C411 1.249 . S
O431 Gd408 2.506 . S
O431 C411 1.252 . S
O432 Gd408 2.435 . S
O432 C418 1.281 . S
O433 Gd408 2.717 1_455 S
O433 Gd409 2.327 . S
O433 C418 1.244 1_455 S
O434 Gd409 2.377 . S
O434 C419 1.240 . S
O435 Gd408 2.395 1_455 S
O435 C419 1.240 . S
O436 Gd409 2.448 . S
O436 C420 1.249 . S
O437 Gd409 2.506 . S
O437 C420 1.252 . S
O438 Gd409 2.435 . S
O438 C427 1.256 . S
O439 Gd408 2.327 . S
O439 Gd409 2.717 1_655 S
O439 C427 1.257 1_655 S
H440 C413 0.930 . S
H441 C414 0.931 . S
H442 C416 0.931 . S
H443 C417 0.931 . S
H444 C422 0.930 . S
H445 C423 0.931 . S
H446 C425 0.931 . S
H447 C426 0.931 . S
H448 C456 0.950 . S
H449 C461 0.950 . S
H450 C458 0.950 . S
H451 C460 0.950 . S
H452 C462 0.950 . S
H453 C464 0.950 . S
H454 C466 0.950 . S
H455 C467 0.950 . S
C456 H448 0.950 . S
C456 C457 1.386 1_565 S
C456 C458 1.391 . S
C457 C456 1.386 1_545 S
C457 C461 1.393 . S
C458 H450 0.950 . S
C458 C456 1.391 . S
C458 C459 1.400 1_565 S
C459 C458 1.400 1_545 S
C459 C460 1.398 . S
C459 C465 1.491 . S
C460 H451 0.950 . S
C460 C459 1.398 . S
C460 C461 1.391 . S
C461 H449 0.950 . S
C461 C457 1.393 . S
C461 C460 1.391 . S
C462 H452 0.950 . S
C462 C463 1.386 . S
C462 C464 1.391 . S
C463 C462 1.386 . S
C463 C467 1.393 1_545 S
C464 H453 0.950 . S
C464 C462 1.391 . S
C464 C465 1.400 . S
C465 C459 1.491 . S
C465 C464 1.400 . S
C465 C466 1.398 1_545 S
C466 H454 0.950 . S
C466 C465 1.398 1_565 S
C466 C467 1.391 . S
C467 H455 0.950 . S
C467 C463 1.393 1_565 S
C467 C466 1.391 . S
H468 C476 0.950 . S
H469 C481 0.950 . S
H470 C478 0.950 . S
H471 C480 0.950 . S
H472 C482 0.950 . S
H473 C484 0.950 . S
H474 C486 0.950 . S
H475 C487 0.950 . S
C476 H468 0.950 . S
C476 C477 1.386 . S
C476 C478 1.391 . S
C477 C476 1.386 . S
C477 C481 1.393 . S
C478 H470 0.950 . S
C478 C476 1.391 . S
C478 C479 1.400 . S
C479 C478 1.400 . S
C479 C480 1.398 . S
C479 C485 1.491 . S
C480 H471 0.950 . S
C480 C479 1.398 . S
C480 C481 1.391 . S
C481 H469 0.950 . S
C481 C477 1.393 . S
C481 C480 1.391 . S
C482 H472 0.950 . S
C482 C483 1.386 . S
C482 C484 1.391 . S
C483 C482 1.386 . S
C483 C487 1.393 . S
C484 H473 0.950 . S
C484 C482 1.391 . S
C484 C485 1.400 . S
C485 C479 1.491 . S
C485 C484 1.400 . S
C485 C486 1.398 . S
C486 H474 0.950 . S
C486 C485 1.398 . S
C486 C487 1.391 . S
C487 H475 0.950 . S
C487 C483 1.393 . S
C487 C486 1.391 . S
H488 C496 0.950 . S
H489 C501 0.950 . S
H490 C498 0.950 . S
H491 C500 0.950 . S
H492 C502 0.950 . S
H493 C504 0.950 . S
H494 C506 0.950 . S
H495 C507 0.950 . S
C496 H488 0.950 . S
C496 C497 1.386 . S
C496 C498 1.391 . S
C497 C496 1.386 . S
C497 C501 1.393 . S
C498 H490 0.950 . S
C498 C496 1.391 . S
C498 C499 1.400 . S
C499 C498 1.400 . S
C499 C500 1.398 . S
C499 C505 1.491 . S
C500 H491 0.950 . S
C500 C499 1.398 . S
C500 C501 1.391 . S
C501 H489 0.950 . S
C501 C497 1.393 . S
C501 C500 1.391 . S
C502 H492 0.950 . S
C502 C503 1.386 . S
C502 C504 1.391 . S
C503 C502 1.386 . S
C503 C507 1.393 . S
C504 H493 0.950 . S
C504 C502 1.391 . S
C504 C505 1.400 . S
C505 C499 1.491 . S
C505 C504 1.400 . S
C505 C506 1.398 . S
C506 H494 0.950 . S
C506 C505 1.398 . S
C506 C507 1.391 . S
C507 H495 0.950 . S
C507 C503 1.393 . S
C507 C506 1.391 . S
H508 C516 0.950 . S
H509 C521 0.950 . S
H510 C518 0.950 . S
H511 C520 0.950 . S
H512 C522 0.950 . S
H513 C524 0.950 . S
H514 C526 0.950 . S
H515 C527 0.950 . S
C516 H508 0.950 . S
C516 C517 1.386 . S
C516 C518 1.391 . S
C517 C516 1.386 . S
C517 C521 1.393 1_455 S
C518 H510 0.950 . S
C518 C516 1.391 . S
C518 C519 1.400 . S
C519 C518 1.400 . S
C519 C520 1.398 1_455 S
C519 C525 1.491 . S
C520 H511 0.950 . S
C520 C519 1.398 1_655 S
C520 C521 1.391 . S
C521 H509 0.950 . S
C521 C517 1.393 1_655 S
C521 C520 1.391 . S
C522 H512 0.950 . S
C522 C523 1.386 1_655 S
C522 C524 1.391 . S
C523 C522 1.386 1_455 S
C523 C527 1.393 . S
C524 H513 0.950 . S
C524 C522 1.391 . S
C524 C525 1.400 1_655 S
C525 C519 1.491 . S
C525 C524 1.400 1_455 S
C525 C526 1.398 . S
C526 H514 0.950 . S
C526 C525 1.398 . S
C526 C527 1.391 . S
C527 H515 0.950 . S
C527 C523 1.393 . S
C527 C526 1.391 . S
H528 C536 0.950 . S
H529 C541 0.950 . S
H530 C538 0.950 . S
H531 C540 0.950 . S
H532 C542 0.950 . S
H533 C544 0.950 . S
H534 C546 0.950 1_554 S
H535 C547 0.950 . S
C536 H528 0.950 . S
C536 C537 1.386 . S
C536 C538 1.391 . S
C537 C536 1.386 . S
C537 C541 1.393 1_565 S
C538 H530 0.950 . S
C538 C536 1.391 . S
C538 C539 1.400 . S
C539 C538 1.400 . S
C539 C540 1.398 1_565 S
C539 C545 1.492 1_554 S
C540 H531 0.950 . S
C540 C539 1.398 1_545 S
C540 C541 1.391 . S
C541 H529 0.950 . S
C541 C537 1.393 1_545 S
C541 C540 1.391 . S
C542 H532 0.950 . S
C542 C543 1.392 . S
C542 C544 1.391 . S
C543 C542 1.392 . S
C543 C547 1.386 1_545 S
C544 H533 0.950 . S
C544 C542 1.391 . S
C544 C545 1.390 1_545 S
C545 C539 1.492 1_556 S
C545 C544 1.390 1_565 S
C545 C546 1.407 . S
C546 H534 0.950 1_556 S
C546 C545 1.407 . S
C546 C547 1.391 . S
C547 H535 0.950 . S
C547 C543 1.386 1_565 S
C547 C546 1.391 . S
H548 C556 0.950 . S
H549 C561 0.950 . S
H550 C558 0.950 . S
H551 C560 0.950 . S
H552 C562 0.950 . S
H553 C564 0.950 1_554 S
H554 C566 0.950 . S
H555 C567 0.950 . S
C556 H548 0.950 . S
C556 C557 1.386 . S
C556 C558 1.391 . S
C557 C556 1.386 . S
C557 C561 1.393 . S
C558 H550 0.950 . S
C558 C556 1.391 . S
C558 C559 1.400 . S
C559 C558 1.400 . S
C559 C560 1.398 . S
C559 C565 1.491 1_554 S
C560 H551 0.950 . S
C560 C559 1.398 . S
C560 C561 1.391 . S
C561 H549 0.950 . S
C561 C557 1.393 . S
C561 C560 1.391 . S
C562 H552 0.950 . S
C562 C563 1.386 . S
C562 C564 1.391 . S
C563 C562 1.386 . S
C563 C567 1.393 . S
C564 H553 0.950 1_556 S
C564 C562 1.391 . S
C564 C565 1.400 . S
C565 C559 1.491 1_556 S
C565 C564 1.400 . S
C565 C566 1.398 . S
C566 H554 0.950 . S
C566 C565 1.398 . S
C566 C567 1.391 . S
C567 H555 0.950 . S
C567 C563 1.393 . S
C567 C566 1.391 . S
H568 C576 0.950 . S
H569 C581 0.950 . S
H570 C578 0.950 . S
H571 C580 0.950 . S
H572 C582 0.950 . S
H573 C584 0.950 . S
H574 C586 0.950 1_554 S
H575 C587 0.950 . S
C576 H568 0.950 . S
C576 C577 1.386 . S
C576 C578 1.391 . S
C577 C576 1.386 . S
C577 C581 1.393 . S
C578 H570 0.950 . S
C578 C576 1.391 . S
C578 C579 1.400 . S
C579 C578 1.400 . S
C579 C580 1.398 . S
C579 C585 1.491 1_554 S
C580 H571 0.950 . S
C580 C579 1.398 . S
C580 C581 1.391 . S
C581 H569 0.950 . S
C581 C577 1.393 . S
C581 C580 1.391 . S
C582 H572 0.950 . S
C582 C583 1.386 . S
C582 C584 1.391 . S
C583 C582 1.386 . S
C583 C587 1.393 . S
C584 H573 0.950 . S
C584 C582 1.391 . S
C584 C585 1.400 . S
C585 C579 1.491 1_556 S
C585 C584 1.400 . S
C585 C586 1.398 . S
C586 H574 0.950 1_556 S
C586 C585 1.398 . S
C586 C587 1.391 . S
C587 H575 0.950 . S
C587 C583 1.393 . S
C587 C586 1.391 . S
H588 C596 0.950 . S
H589 C601 0.950 . S
H590 C598 0.950 . S
H591 C600 0.951 . S
H592 C602 0.950 . S
H593 C604 0.950 1_554 S
H594 C606 0.950 . S
H595 C607 0.950 . S
C596 H588 0.950 . S
C596 C597 1.386 . S
C596 C598 1.391 . S
C597 C596 1.386 . S
C597 C601 1.393 . S
C598 H590 0.950 . S
C598 C596 1.391 . S
C598 C599 1.400 . S
C599 C598 1.400 . S
C599 C600 1.398 . S
C599 C605 1.491 1_554 S
C600 H591 0.951 . S
C600 C599 1.398 . S
C600 C601 1.391 . S
C601 H589 0.950 . S
C601 C597 1.393 . S
C601 C600 1.391 . S
C602 H592 0.950 . S
C602 C603 1.386 . S
C602 C604 1.391 . S
C603 C602 1.386 . S
C603 C607 1.393 . S
C604 H593 0.950 1_556 S
C604 C602 1.391 . S
C604 C605 1.400 . S
C605 C599 1.491 1_556 S
C605 C604 1.400 . S
C605 C606 1.398 . S
C606 H594 0.950 . S
C606 C605 1.398 . S
C606 C607 1.391 . S
C607 H595 0.950 . S
C607 C603 1.393 . S
C607 C606 1.391 . S
H608 C616 0.950 . S
H609 C621 0.950 . S
H610 C618 0.950 . S
H611 C620 0.950 . S
H612 C622 0.950 . S
H613 C624 0.950 1_455 S
H614 C626 0.950 . S
H615 C627 0.950 . S
C616 H608 0.950 . S
C616 C617 1.386 1_655 S
C616 C618 1.391 . S
C617 C616 1.386 1_455 S
C617 C621 1.393 . S
C618 H610 0.950 . S
C618 C616 1.391 . S
C618 C619 1.400 . S
C619 C618 1.400 . S
C619 C620 1.398 1_655 S
C619 C625 1.491 . S
C620 H611 0.950 . S
C620 C619 1.398 1_455 S
C620 C621 1.391 . S
C621 H609 0.950 . S
C621 C617 1.393 . S
C621 C620 1.391 . S
C622 H612 0.950 . S
C622 C623 1.386 . S
C622 C624 1.391 . S
C623 C622 1.386 . S
C623 C627 1.393 . S
C624 H613 0.950 1_655 S
C624 C622 1.391 . S
C624 C625 1.400 . S
C625 C619 1.491 . S
C625 C624 1.400 . S
C625 C626 1.398 . S
C626 H614 0.950 . S
C626 C625 1.398 . S
C626 C627 1.391 . S
C627 H615 0.950 . S
C627 C623 1.393 . S
C627 C626 1.391 . S
H628 C636 0.950 . S
H629 C641 0.950 . S
H630 C638 0.950 . S
H631 C640 0.950 . S
H632 C642 0.950 . S
H633 C644 0.950 . S
H634 C646 0.955 1_545 S
H635 C647 0.950 1_545 S
C636 H628 0.950 . S
C636 C637 1.386 . S
C636 C638 1.391 . S
C637 C636 1.386 . S
C637 C641 1.393 1_545 S
C638 H630 0.950 . S
C638 C636 1.391 . S
C638 C639 1.400 1_545 S
C639 C638 1.400 1_565 S
C639 C640 1.398 . S
C639 C645 1.491 . S
C640 H631 0.950 . S
C640 C639 1.398 . S
C640 C641 1.391 . S
C641 H629 0.950 . S
C641 C637 1.393 1_565 S
C641 C640 1.391 . S
C642 H632 0.950 . S
C642 C643 1.386 . S
C642 C644 1.391 . S
C643 C642 1.386 . S
C643 C647 1.393 . S
C644 H633 0.950 . S
C644 C642 1.391 . S
C644 C645 1.400 . S
C645 C639 1.491 . S
C645 C644 1.400 . S
C645 C646 1.395 . S
C646 H634 0.955 1_565 S
C646 C645 1.395 . S
C646 C647 1.389 . S
C647 H635 0.950 1_565 S
C647 C643 1.393 . S
C647 C646 1.389 . S
H648 C656 0.950 . S
H649 C661 0.950 . S
H650 C658 0.950 . S
H651 C660 0.950 . S
H652 C662 0.950 . S
H653 C664 0.950 . S
H654 C666 0.950 . S
H655 C667 0.950 . S
C656 H648 0.950 . S
C656 C657 1.386 . S
C656 C658 1.391 . S
C657 C656 1.386 . S
C657 C661 1.393 . S
C658 H650 0.950 . S
C658 C656 1.391 . S
C658 C659 1.400 . S
C659 C658 1.400 . S
C659 C660 1.398 . S
C659 C665 1.491 . S
C660 H651 0.950 . S
C660 C659 1.398 . S
C660 C661 1.391 . S
C661 H649 0.950 . S
C661 C657 1.393 . S
C661 C660 1.391 . S
C662 H652 0.950 . S
C662 C663 1.386 . S
C662 C664 1.391 . S
C663 C662 1.386 . S
C663 C667 1.393 . S
C664 H653 0.950 . S
C664 C662 1.391 . S
C664 C665 1.400 . S
C665 C659 1.491 . S
C665 C664 1.400 . S
C665 C666 1.398 . S
C666 H654 0.950 . S
C666 C665 1.398 . S
C666 C667 1.391 . S
C667 H655 0.950 . S
C667 C663 1.393 . S
C667 C666 1.391 . S
H668 C676 0.950 . S
H669 C681 0.950 . S
H670 C678 0.950 . S
H671 C680 0.950 . S
H672 C682 0.950 . S
H673 C684 0.950 . S
H674 C686 0.950 . S
H675 C687 0.950 . S
C676 H668 0.950 . S
C676 C677 1.386 . S
C676 C678 1.391 . S
C677 C676 1.386 . S
C677 C681 1.393 . S
C678 H670 0.950 . S
C678 C676 1.391 . S
C678 C679 1.400 . S
C679 C678 1.400 . S
C679 C680 1.398 . S
C679 C685 1.491 . S
C680 H671 0.950 . S
C680 C679 1.398 . S
C680 C681 1.391 . S
C681 H669 0.950 . S
C681 C677 1.393 . S
C681 C680 1.391 . S
C682 H672 0.950 . S
C682 C683 1.386 . S
C682 C684 1.391 . S
C683 C682 1.386 . S
C683 C687 1.393 . S
C684 H673 0.950 . S
C684 C682 1.391 . S
C684 C685 1.400 . S
C685 C679 1.491 . S
C685 C684 1.400 . S
C685 C686 1.398 . S
C686 H674 0.950 . S
C686 C685 1.398 . S
C686 C687 1.391 . S
C687 H675 0.950 . S
C687 C683 1.393 . S
C687 C686 1.391 . S
H688 C696 0.950 . S
H689 C701 0.950 . S
H690 C698 0.950 . S
H691 C700 0.950 . S
H692 C702 0.950 . S
H693 C704 0.950 1_655 S
H694 C706 0.950 . S
H695 C707 0.950 . S
C696 H688 0.950 . S
C696 C697 1.386 1_455 S
C696 C698 1.391 . S
C697 C696 1.386 1_655 S
C697 C701 1.393 . S
C698 H690 0.950 . S
C698 C696 1.391 . S
C698 C699 1.400 . S
C699 C698 1.400 . S
C699 C700 1.398 1_455 S
C699 C705 1.491 . S
C700 H691 0.950 . S
C700 C699 1.398 1_655 S
C700 C701 1.391 . S
C701 H689 0.950 . S
C701 C697 1.393 . S
C701 C700 1.391 . S
C702 H692 0.950 . S
C702 C703 1.386 . S
C702 C704 1.391 1_556 S
C703 C702 1.386 . S
C703 C707 1.393 . S
C704 H693 0.950 1_455 S
C704 C702 1.391 1_554 S
C704 C705 1.400 . S
C705 C699 1.491 . S
C705 C704 1.400 . S
C705 C706 1.398 1_554 S
C706 H694 0.950 . S
C706 C705 1.398 1_556 S
C706 C707 1.391 . S
C707 H695 0.950 . S
C707 C703 1.393 . S
C707 C706 1.391 . S
H708 C716 0.950 . S
H709 C721 0.950 . S
H710 C718 0.950 . S
H711 C720 0.950 . S
H712 C722 0.950 . S
H713 C724 0.950 1_565 S
H714 C726 0.950 . S
H715 C727 0.950 . S
C716 H708 0.950 . S
C716 C717 1.386 1_545 S
C716 C718 1.391 . S
C717 C716 1.386 1_565 S
C717 C721 1.393 . S
C718 H710 0.950 . S
C718 C716 1.391 . S
C718 C719 1.400 . S
C719 C718 1.400 . S
C719 C720 1.398 1_545 S
C719 C725 1.491 . S
C720 H711 0.950 . S
C720 C719 1.398 1_565 S
C720 C721 1.391 . S
C721 H709 0.950 . S
C721 C717 1.393 . S
C721 C720 1.391 . S
C722 H712 0.950 . S
C722 C723 1.386 . S
C722 C724 1.391 1_556 S
C723 C722 1.386 . S
C723 C727 1.393 . S
C724 H713 0.950 1_545 S
C724 C722 1.391 1_554 S
C724 C725 1.400 . S
C725 C719 1.491 . S
C725 C724 1.400 . S
C725 C726 1.398 1_554 S
C726 H714 0.950 . S
C726 C725 1.398 1_556 S
C726 C727 1.391 . S
C727 H715 0.950 . S
C727 C723 1.393 . S
C727 C726 1.391 . S
H728 C736 0.950 . S
H729 C741 0.950 . S
H730 C738 0.950 1_556 S
H731 C740 0.950 . S
H732 C742 0.950 1_554 S
H733 C744 0.950 . S
H734 C746 0.950 . S
H735 C747 0.950 . S
C736 H728 0.950 . S
C736 C737 1.386 . S
C736 C738 1.391 . S
C737 C736 1.386 . S
C737 C741 1.393 . S
C738 H730 0.950 1_554 S
C738 C736 1.391 . S
C738 C739 1.400 . S
C739 C738 1.400 . S
C739 C740 1.398 . S
C739 C745 1.491 . S
C740 H731 0.950 . S
C740 C739 1.398 . S
C740 C741 1.391 . S
C741 H729 0.950 . S
C741 C737 1.393 . S
C741 C740 1.391 . S
C742 H732 0.950 1_556 S
C742 C743 1.386 . S
C742 C744 1.391 1_556 S
C743 C742 1.386 . S
C743 C747 1.393 . S
C744 H733 0.950 . S
C744 C742 1.391 1_554 S
C744 C745 1.400 . S
C745 C739 1.491 . S
C745 C744 1.400 . S
C745 C746 1.398 1_554 S
C746 H734 0.950 . S
C746 C745 1.398 1_556 S
C746 C747 1.391 . S
C747 H735 0.950 . S
C747 C743 1.393 . S
C747 C746 1.391 . S
H748 C756 0.950 . S
H749 C761 0.950 . S
H750 C758 0.950 . S
H751 C760 0.950 1_556 S
H752 C762 0.950 . S
H753 C764 0.950 . S
H754 C766 0.950 . S
H755 C767 0.950 . S
C756 H748 0.950 . S
C756 C757 1.386 . S
C756 C758 1.391 . S
C757 C756 1.386 . S
C757 C761 1.393 . S
C758 H750 0.950 . S
C758 C756 1.391 . S
C758 C759 1.400 . S
C759 C758 1.400 . S
C759 C760 1.398 . S
C759 C765 1.491 . S
C760 H751 0.950 1_554 S
C760 C759 1.398 . S
C760 C761 1.391 . S
C761 H749 0.950 . S
C761 C757 1.393 . S
C761 C760 1.391 . S
C762 H752 0.950 . S
C762 C763 1.386 . S
C762 C764 1.391 . S
C763 C762 1.386 . S
C763 C767 1.393 1_556 S
C764 H753 0.950 . S
C764 C762 1.391 . S
C764 C765 1.400 1_556 S
C765 C759 1.491 . S
C765 C764 1.400 1_554 S
C765 C766 1.398 . S
C766 H754 0.950 . S
C766 C765 1.398 . S
C766 C767 1.391 . S
C767 H755 0.950 . S
C767 C763 1.393 1_554 S
C767 C766 1.391 . S
H768 C776 0.950 . S
H769 C781 0.950 . S
H770 C778 0.950 . S
H771 C780 0.950 . S
H772 C782 0.950 . S
H773 C784 0.950 . S
H774 C786 0.950 . S
H775 C787 0.950 . S
C776 H768 0.950 . S
C776 C777 1.386 . S
C776 C778 1.391 . S
C777 C776 1.386 . S
C777 C781 1.393 1_455 S
C778 H770 0.950 . S
C778 C776 1.391 . S
C778 C779 1.400 . S
C779 C778 1.400 . S
C779 C780 1.398 1_455 S
C779 C785 1.491 . S
C780 H771 0.950 . S
C780 C779 1.398 1_655 S
C780 C781 1.391 . S
C781 H769 0.950 . S
C781 C777 1.393 1_655 S
C781 C780 1.391 . S
C782 H772 0.950 . S
C782 C783 1.386 1_655 S
C782 C784 1.391 . S
C783 C782 1.386 1_455 S
C783 C787 1.393 . S
C784 H773 0.950 . S
C784 C782 1.391 . S
C784 C785 1.400 1_655 S
C785 C779 1.491 . S
C785 C784 1.400 1_455 S
C785 C786 1.398 . S
C786 H774 0.950 . S
C786 C785 1.398 . S
C786 C787 1.391 . S
C787 H775 0.950 . S
C787 C783 1.393 . S
C787 C786 1.391 . S
H788 C796 0.950 . S
H789 C801 0.950 . S
H790 C798 0.950 . S
H791 C800 0.950 . S
H792 C802 0.950 . S
H793 C804 0.950 . S
H794 C806 0.950 . S
H795 C807 0.950 . S
C796 H788 0.950 . S
C796 C797 1.386 . S
C796 C798 1.391 . S
C797 C796 1.386 . S
C797 C801 1.393 1_545 S
C798 H790 0.950 . S
C798 C796 1.391 . S
C798 C799 1.400 . S
C799 C798 1.400 . S
C799 C800 1.398 1_545 S
C799 C805 1.491 . S
C800 H791 0.950 . S
C800 C799 1.398 1_565 S
C800 C801 1.391 . S
C801 H789 0.950 . S
C801 C797 1.393 1_565 S
C801 C800 1.391 . S
C802 H792 0.950 . S
C802 C803 1.386 1_565 S
C802 C804 1.391 . S
C803 C802 1.386 1_545 S
C803 C807 1.393 . S
C804 H793 0.950 . S
C804 C802 1.391 . S
C804 C805 1.400 1_565 S
C805 C799 1.491 . S
C805 C804 1.400 1_545 S
C805 C806 1.398 . S
C806 H794 0.950 . S
C806 C805 1.398 . S
C806 C807 1.391 . S
C807 H795 0.950 . S
C807 C803 1.393 . S
C807 C806 1.391 . S
H808 C816 0.950 . S
H809 C821 0.950 . S
H810 C818 0.950 . S
H811 C820 0.950 . S
H812 C822 0.950 . S
H813 C824 0.950 . S
H814 C826 0.950 . S
H815 C827 0.950 . S
C816 H808 0.950 . S
C816 C817 1.386 . S
C816 C818 1.391 . S
C817 C816 1.386 . S
C817 C821 1.393 . S
C818 H810 0.950 . S
C818 C816 1.391 . S
C818 C819 1.400 . S
C819 C818 1.400 . S
C819 C820 1.398 . S
C819 C825 1.491 . S
C820 H811 0.950 . S
C820 C819 1.398 . S
C820 C821 1.391 . S
C821 H809 0.950 . S
C821 C817 1.393 . S
C821 C820 1.391 . S
C822 H812 0.950 . S
C822 C823 1.386 . S
C822 C824 1.391 . S
C823 C822 1.386 . S
C823 C827 1.393 . S
C824 H813 0.950 . S
C824 C822 1.391 . S
C824 C825 1.400 . S
C825 C819 1.491 . S
C825 C824 1.400 . S
C825 C826 1.398 . S
C826 H814 0.950 . S
C826 C825 1.398 . S
C826 C827 1.391 . S
C827 H815 0.950 . S
C827 C823 1.393 . S
C827 C826 1.391 . S
H828 C836 0.950 . S
H829 C841 0.950 . S
H830 C838 0.950 . S
H831 C840 0.950 . S
H832 C842 0.950 . S
H833 C844 0.950 . S
H834 C846 0.950 . S
H835 C847 0.950 . S
C836 H828 0.950 . S
C836 C837 1.386 . S
C836 C838 1.391 . S
C837 C836 1.386 . S
C837 C841 1.393 . S
C838 H830 0.950 . S
C838 C836 1.391 . S
C838 C839 1.400 . S
C839 C838 1.400 . S
C839 C840 1.398 . S
C839 C845 1.491 . S
C840 H831 0.950 . S
C840 C839 1.398 . S
C840 C841 1.391 . S
C841 H829 0.950 . S
C841 C837 1.393 . S
C841 C840 1.391 . S
C842 H832 0.950 . S
C842 C843 1.386 . S
C842 C844 1.391 . S
C843 C842 1.386 . S
C843 C847 1.393 . S
C844 H833 0.950 . S
C844 C842 1.391 . S
C844 C845 1.400 . S
C845 C839 1.491 . S
C845 C844 1.400 . S
C845 C846 1.398 . S
C846 H834 0.950 . S
C846 C845 1.398 . S
C846 C847 1.391 . S
C847 H835 0.950 . S
C847 C843 1.393 . S
C847 C846 1.391 . S
H848 C856 0.950 . S
H849 C861 0.962 . S
H850 C858 0.950 . S
H851 C860 0.949 1_455 S
H852 C862 0.950 . S
H853 C864 0.955 . S
H854 C866 0.950 . S
H855 C867 0.950 . S
C856 H848 0.950 . S
C856 C857 1.386 . S
C856 C858 1.391 . S
C857 C856 1.386 . S
C857 C861 1.384 1_655 S
C858 H850 0.950 . S
C858 C856 1.391 . S
C858 C859 1.400 . S
C859 C858 1.400 . S
C859 C860 1.399 . S
C859 C865 1.491 . S
C860 H851 0.949 1_655 S
C860 C859 1.399 . S
C860 C861 1.389 1_655 S
C861 H849 0.962 . S
C861 C857 1.384 1_455 S
C861 C860 1.389 1_455 S
C862 H852 0.950 . S
C862 C863 1.386 . S
C862 C864 1.391 . S
C863 C862 1.386 . S
C863 C867 1.393 . S
C864 H853 0.955 . S
C864 C862 1.391 . S
C864 C865 1.400 . S
C865 C859 1.491 . S
C865 C864 1.400 . S
C865 C866 1.398 . S
C866 H854 0.950 . S
C866 C865 1.398 . S
C866 C867 1.391 . S
C867 H855 0.950 . S
C867 C863 1.393 . S
C867 C866 1.391 . S
H868 C876 0.950 . S
H869 C881 0.950 . S
H870 C878 0.950 . S
H871 C880 0.950 . S
H872 C882 0.950 . S
H873 C884 0.950 . S
H874 C886 0.950 . S
H875 C887 0.950 . S
C876 H868 0.950 . S
C876 C877 1.386 . S
C876 C878 1.391 . S
C877 C876 1.386 . S
C877 C881 1.393 1_565 S
C878 H870 0.950 . S
C878 C876 1.391 . S
C878 C879 1.400 . S
C879 C878 1.400 . S
C879 C880 1.398 1_565 S
C879 C885 1.491 . S
C880 H871 0.950 . S
C880 C879 1.398 1_545 S
C880 C881 1.391 . S
C881 H869 0.950 . S
C881 C877 1.393 1_545 S
C881 C880 1.391 . S
C882 H872 0.950 . S
C882 C883 1.386 1_545 S
C882 C884 1.391 . S
C883 C882 1.386 1_565 S
C883 C887 1.393 . S
C884 H873 0.950 . S
C884 C882 1.391 . S
C884 C885 1.400 1_545 S
C885 C879 1.491 . S
C885 C884 1.400 1_565 S
C885 C886 1.398 . S
C886 H874 0.950 . S
C886 C885 1.398 . S
C886 C887 1.391 . S
C887 H875 0.950 . S
C887 C883 1.393 . S
C887 C886 1.391 . S
H888 C896 0.950 . S
H889 C901 0.950 . S
H890 C898 0.950 . S
H891 C900 0.950 . S
H892 C902 0.950 . S
H893 C904 0.950 . S
H894 C906 0.950 . S
H895 C907 0.950 . S
C896 H888 0.950 . S
C896 C897 1.386 . S
C896 C898 1.391 . S
C897 C896 1.386 . S
C897 C901 1.393 . S
C898 H890 0.950 . S
C898 C896 1.391 . S
C898 C899 1.400 . S
C899 C898 1.400 . S
C899 C900 1.398 . S
C899 C905 1.491 . S
C900 H891 0.950 . S
C900 C899 1.398 . S
C900 C901 1.391 . S
C901 H889 0.950 . S
C901 C897 1.393 . S
C901 C900 1.391 . S
C902 H892 0.950 . S
C902 C903 1.386 . S
C902 C904 1.391 . S
C903 C902 1.386 . S
C903 C907 1.393 . S
C904 H893 0.950 . S
C904 C902 1.391 . S
C904 C905 1.400 . S
C905 C899 1.491 . S
C905 C904 1.400 . S
C905 C906 1.398 . S
C906 H894 0.950 . S
C906 C905 1.398 . S
C906 C907 1.391 . S
C907 H895 0.950 . S
C907 C903 1.393 . S
C907 C906 1.391 . S
H908 C916 0.950 . S
H909 C921 0.950 . S
H910 C918 0.950 . S
H911 C920 0.950 . S
H912 C922 0.950 . S
H913 C924 0.950 . S
H914 C926 0.950 . S
H915 C927 0.950 . S
C916 H908 0.950 . S
C916 C917 1.386 . S
C916 C918 1.391 . S
C917 C916 1.386 . S
C917 C921 1.393 . S
C918 H910 0.950 . S
C918 C916 1.391 . S
C918 C919 1.400 . S
C919 C918 1.400 . S
C919 C920 1.398 . S
C919 C925 1.491 . S
C920 H911 0.950 . S
C920 C919 1.398 . S
C920 C921 1.391 . S
C921 H909 0.950 . S
C921 C917 1.393 . S
C921 C920 1.391 . S
C922 H912 0.950 . S
C922 C923 1.386 . S
C922 C924 1.391 . S
C923 C922 1.386 . S
C923 C927 1.393 . S
C924 H913 0.950 . S
C924 C922 1.391 . S
C924 C925 1.400 . S
C925 C919 1.491 . S
C925 C924 1.400 . S
C925 C926 1.398 . S
C926 H914 0.950 . S
C926 C925 1.398 . S
C926 C927 1.391 . S
C927 H915 0.950 . S
C927 C923 1.393 . S
C927 C926 1.391 . S
C457 C241 2.083 . S
C463 C298 2.314 . S
C483 C338 2.336 . S
C477 C277 2.166 . S
C503 C378 2.315 . S
C497 C169 2.082 . S
C523 C418 2.324 1_455 S
C517 C205 2.114 . S
C543 C307 2.316 . S
C537 C97 2.096 . S
C557 C133 2.182 . S
C563 C347 2.337 . S
C577 C25 2.088 . S
C583 C387 2.313 . S
C597 C61 2.105 . S
C603 C427 2.330 1_655 S
C623 C304 0.474 . S
C617 C211 0.398 . S
C643 C344 0.465 . S
C637 C247 0.463 . S
C663 C384 0.501 . S
C657 C253 0.479 . S
C677 C175 0.434 . S
C683 C424 0.507 . S
C697 C67 0.556 . S
C703 C295 0.491 . S
C723 C335 0.491 . S
C717 C103 0.557 . S
C743 C375 0.493 . S
C737 C109 0.429 . S
C757 C31 0.468 . S
C763 C415 0.433 . S
C777 C181 2.799 . S
C783 C299 3.176 . S
C797 C217 2.788 . S
C803 C339 3.164 . S
C823 C379 3.176 . S
C817 C283 2.753 . S
C843 C419 3.170 . S
C837 C145 2.810 . S
C857 C37 2.817 . S
C863 C290 3.180 . S
C883 C330 3.168 . S
C877 C73 2.819 . S
C903 C370 3.171 . S
C897 C139 2.723 . S
C917 C1 2.794 . S
C923 C410 3.164 . S
