# Generated by pormake.
# Topology tbo, (3,4)-cn, num edge types: 1
# Building blocks:
#     Node 0, Type 0, BuildingBlock: WUSLED_clean_sbu_0, # of connection points: 3
#     Node 1, Type 0, BuildingBlock: WUSLED_clean_sbu_0, # of connection points: 3
#     Node 2, Type 0, BuildingBlock: WUSLED_clean_sbu_0, # of connection points: 3
#     Node 3, Type 0, BuildingBlock: WUSLED_clean_sbu_0, # of connection points: 3
#     Node 4, Type 0, BuildingBlock: WUSLED_clean_sbu_0, # of connection points: 3
#     Node 5, Type 0, BuildingBlock: WUSLED_clean_sbu_0, # of connection points: 3
#     Node 6, Type 0, BuildingBlock: WUSLED_clean_sbu_0, # of connection points: 3
#     Node 7, Type 0, BuildingBlock: WUSLED_clean_sbu_0, # of connection points: 3
#     Node 8, Type 0, BuildingBlock: WUSLED_clean_sbu_0, # of connection points: 3
#     Node 9, Type 0, BuildingBlock: WUSLED_clean_sbu_0, # of connection points: 3
#     Node 10, Type 0, BuildingBlock: WUSLED_clean_sbu_0, # of connection points: 3
#     Node 11, Type 0, BuildingBlock: WUSLED_clean_sbu_0, # of connection points: 3
#     Node 12, Type 0, BuildingBlock: WUSLED_clean_sbu_0, # of connection points: 3
#     Node 13, Type 0, BuildingBlock: WUSLED_clean_sbu_0, # of connection points: 3
#     Node 14, Type 0, BuildingBlock: WUSLED_clean_sbu_0, # of connection points: 3
#     Node 15, Type 0, BuildingBlock: WUSLED_clean_sbu_0, # of connection points: 3
#     Node 16, Type 0, BuildingBlock: WUSLED_clean_sbu_0, # of connection points: 3
#     Node 17, Type 0, BuildingBlock: WUSLED_clean_sbu_0, # of connection points: 3
#     Node 18, Type 0, BuildingBlock: WUSLED_clean_sbu_0, # of connection points: 3
#     Node 19, Type 0, BuildingBlock: WUSLED_clean_sbu_0, # of connection points: 3
#     Node 20, Type 0, BuildingBlock: WUSLED_clean_sbu_0, # of connection points: 3
#     Node 21, Type 0, BuildingBlock: WUSLED_clean_sbu_0, # of connection points: 3
#     Node 22, Type 0, BuildingBlock: WUSLED_clean_sbu_0, # of connection points: 3
#     Node 23, Type 0, BuildingBlock: WUSLED_clean_sbu_0, # of connection points: 3
#     Node 24, Type 0, BuildingBlock: WUSLED_clean_sbu_0, # of connection points: 3
#     Node 25, Type 0, BuildingBlock: WUSLED_clean_sbu_0, # of connection points: 3
#     Node 26, Type 0, BuildingBlock: WUSLED_clean_sbu_0, # of connection points: 3
#     Node 27, Type 0, BuildingBlock: WUSLED_clean_sbu_0, # of connection points: 3
#     Node 28, Type 0, BuildingBlock: WUSLED_clean_sbu_0, # of connection points: 3
#     Node 29, Type 0, BuildingBlock: WUSLED_clean_sbu_0, # of connection points: 3
#     Node 30, Type 0, BuildingBlock: WUSLED_clean_sbu_0, # of connection points: 3
#     Node 31, Type 0, BuildingBlock: WUSLED_clean_sbu_0, # of connection points: 3
#     Node 32, Type 1, BuildingBlock: GIZVER_clean_linker_0, # of connection points: 4
#     Node 33, Type 1, BuildingBlock: GIZVER_clean_linker_0, # of connection points: 4
#     Node 34, Type 1, BuildingBlock: GIZVER_clean_linker_0, # of connection points: 4
#     Node 35, Type 1, BuildingBlock: GIZVER_clean_linker_0, # of connection points: 4
#     Node 36, Type 1, BuildingBlock: GIZVER_clean_linker_0, # of connection points: 4
#     Node 37, Type 1, BuildingBlock: GIZVER_clean_linker_0, # of connection points: 4
#     Node 38, Type 1, BuildingBlock: GIZVER_clean_linker_0, # of connection points: 4
#     Node 39, Type 1, BuildingBlock: GIZVER_clean_linker_0, # of connection points: 4
#     Node 40, Type 1, BuildingBlock: GIZVER_clean_linker_0, # of connection points: 4
#     Node 41, Type 1, BuildingBlock: GIZVER_clean_linker_0, # of connection points: 4
#     Node 42, Type 1, BuildingBlock: GIZVER_clean_linker_0, # of connection points: 4
#     Node 43, Type 1, BuildingBlock: GIZVER_clean_linker_0, # of connection points: 4
#     Node 44, Type 1, BuildingBlock: GIZVER_clean_linker_0, # of connection points: 4
#     Node 45, Type 1, BuildingBlock: GIZVER_clean_linker_0, # of connection points: 4
#     Node 46, Type 1, BuildingBlock: GIZVER_clean_linker_0, # of connection points: 4
#     Node 47, Type 1, BuildingBlock: GIZVER_clean_linker_0, # of connection points: 4
#     Node 48, Type 1, BuildingBlock: GIZVER_clean_linker_0, # of connection points: 4
#     Node 49, Type 1, BuildingBlock: GIZVER_clean_linker_0, # of connection points: 4
#     Node 50, Type 1, BuildingBlock: GIZVER_clean_linker_0, # of connection points: 4
#     Node 51, Type 1, BuildingBlock: GIZVER_clean_linker_0, # of connection points: 4
#     Node 52, Type 1, BuildingBlock: GIZVER_clean_linker_0, # of connection points: 4
#     Node 53, Type 1, BuildingBlock: GIZVER_clean_linker_0, # of connection points: 4
#     Node 54, Type 1, BuildingBlock: GIZVER_clean_linker_0, # of connection points: 4
#     Node 55, Type 1, BuildingBlock: GIZVER_clean_linker_0, # of connection points: 4
#     Edge 56, Type (0, 1), BuildingBlock: CIFDUS_clean_linker_0, # of connection points: 2
#     Edge 57, Type (0, 1), BuildingBlock: CIFDUS_clean_linker_0, # of connection points: 2
#     Edge 58, Type (0, 1), BuildingBlock: CIFDUS_clean_linker_0, # of connection points: 2
#     Edge 59, Type (0, 1), BuildingBlock: CIFDUS_clean_linker_0, # of connection points: 2
#     Edge 60, Type (0, 1), BuildingBlock: CIFDUS_clean_linker_0, # of connection points: 2
#     Edge 61, Type (0, 1), BuildingBlock: CIFDUS_clean_linker_0, # of connection points: 2
#     Edge 62, Type (0, 1), BuildingBlock: CIFDUS_clean_linker_0, # of connection points: 2
#     Edge 63, Type (0, 1), BuildingBlock: CIFDUS_clean_linker_0, # of connection points: 2
#     Edge 64, Type (0, 1), BuildingBlock: CIFDUS_clean_linker_0, # of connection points: 2
#     Edge 65, Type (0, 1), BuildingBlock: CIFDUS_clean_linker_0, # of connection points: 2
#     Edge 66, Type (0, 1), BuildingBlock: CIFDUS_clean_linker_0, # of connection points: 2
#     Edge 67, Type (0, 1), BuildingBlock: CIFDUS_clean_linker_0, # of connection points: 2
#     Edge 68, Type (0, 1), BuildingBlock: CIFDUS_clean_linker_0, # of connection points: 2
#     Edge 69, Type (0, 1), BuildingBlock: CIFDUS_clean_linker_0, # of connection points: 2
#     Edge 70, Type (0, 1), BuildingBlock: CIFDUS_clean_linker_0, # of connection points: 2
#     Edge 71, Type (0, 1), BuildingBlock: CIFDUS_clean_linker_0, # of connection points: 2
#     Edge 72, Type (0, 1), BuildingBlock: CIFDUS_clean_linker_0, # of connection points: 2
#     Edge 73, Type (0, 1), BuildingBlock: CIFDUS_clean_linker_0, # of connection points: 2
#     Edge 74, Type (0, 1), BuildingBlock: CIFDUS_clean_linker_0, # of connection points: 2
#     Edge 75, Type (0, 1), BuildingBlock: CIFDUS_clean_linker_0, # of connection points: 2
#     Edge 76, Type (0, 1), BuildingBlock: CIFDUS_clean_linker_0, # of connection points: 2
#     Edge 77, Type (0, 1), BuildingBlock: CIFDUS_clean_linker_0, # of connection points: 2
#     Edge 78, Type (0, 1), BuildingBlock: CIFDUS_clean_linker_0, # of connection points: 2
#     Edge 79, Type (0, 1), BuildingBlock: CIFDUS_clean_linker_0, # of connection points: 2
#     Edge 80, Type (0, 1), BuildingBlock: CIFDUS_clean_linker_0, # of connection points: 2
#     Edge 81, Type (0, 1), BuildingBlock: CIFDUS_clean_linker_0, # of connection points: 2
#     Edge 82, Type (0, 1), BuildingBlock: CIFDUS_clean_linker_0, # of connection points: 2
#     Edge 83, Type (0, 1), BuildingBlock: CIFDUS_clean_linker_0, # of connection points: 2
#     Edge 84, Type (0, 1), BuildingBlock: CIFDUS_clean_linker_0, # of connection points: 2
#     Edge 85, Type (0, 1), BuildingBlock: CIFDUS_clean_linker_0, # of connection points: 2
#     Edge 86, Type (0, 1), BuildingBlock: CIFDUS_clean_linker_0, # of connection points: 2
#     Edge 87, Type (0, 1), BuildingBlock: CIFDUS_clean_linker_0, # of connection points: 2
#     Edge 88, Type (0, 1), BuildingBlock: CIFDUS_clean_linker_0, # of connection points: 2
#     Edge 89, Type (0, 1), BuildingBlock: CIFDUS_clean_linker_0, # of connection points: 2
#     Edge 90, Type (0, 1), BuildingBlock: CIFDUS_clean_linker_0, # of connection points: 2
#     Edge 91, Type (0, 1), BuildingBlock: CIFDUS_clean_linker_0, # of connection points: 2
#     Edge 92, Type (0, 1), BuildingBlock: CIFDUS_clean_linker_0, # of connection points: 2
#     Edge 93, Type (0, 1), BuildingBlock: CIFDUS_clean_linker_0, # of connection points: 2
#     Edge 94, Type (0, 1), BuildingBlock: CIFDUS_clean_linker_0, # of connection points: 2
#     Edge 95, Type (0, 1), BuildingBlock: CIFDUS_clean_linker_0, # of connection points: 2
#     Edge 96, Type (0, 1), BuildingBlock: CIFDUS_clean_linker_0, # of connection points: 2
#     Edge 97, Type (0, 1), BuildingBlock: CIFDUS_clean_linker_0, # of connection points: 2
#     Edge 98, Type (0, 1), BuildingBlock: CIFDUS_clean_linker_0, # of connection points: 2
#     Edge 99, Type (0, 1), BuildingBlock: CIFDUS_clean_linker_0, # of connection points: 2
#     Edge 100, Type (0, 1), BuildingBlock: CIFDUS_clean_linker_0, # of connection points: 2
#     Edge 101, Type (0, 1), BuildingBlock: CIFDUS_clean_linker_0, # of connection points: 2
#     Edge 102, Type (0, 1), BuildingBlock: CIFDUS_clean_linker_0, # of connection points: 2
#     Edge 103, Type (0, 1), BuildingBlock: CIFDUS_clean_linker_0, # of connection points: 2
#     Edge 104, Type (0, 1), BuildingBlock: CIFDUS_clean_linker_0, # of connection points: 2
#     Edge 105, Type (0, 1), BuildingBlock: CIFDUS_clean_linker_0, # of connection points: 2
#     Edge 106, Type (0, 1), BuildingBlock: CIFDUS_clean_linker_0, # of connection points: 2
#     Edge 107, Type (0, 1), BuildingBlock: CIFDUS_clean_linker_0, # of connection points: 2
#     Edge 108, Type (0, 1), BuildingBlock: CIFDUS_clean_linker_0, # of connection points: 2
#     Edge 109, Type (0, 1), BuildingBlock: CIFDUS_clean_linker_0, # of connection points: 2
#     Edge 110, Type (0, 1), BuildingBlock: CIFDUS_clean_linker_0, # of connection points: 2
#     Edge 111, Type (0, 1), BuildingBlock: CIFDUS_clean_linker_0, # of connection points: 2
#     Edge 112, Type (0, 1), BuildingBlock: CIFDUS_clean_linker_0, # of connection points: 2
#     Edge 113, Type (0, 1), BuildingBlock: CIFDUS_clean_linker_0, # of connection points: 2
#     Edge 114, Type (0, 1), BuildingBlock: CIFDUS_clean_linker_0, # of connection points: 2
#     Edge 115, Type (0, 1), BuildingBlock: CIFDUS_clean_linker_0, # of connection points: 2
#     Edge 116, Type (0, 1), BuildingBlock: CIFDUS_clean_linker_0, # of connection points: 2
#     Edge 117, Type (0, 1), BuildingBlock: CIFDUS_clean_linker_0, # of connection points: 2
#     Edge 118, Type (0, 1), BuildingBlock: CIFDUS_clean_linker_0, # of connection points: 2
#     Edge 119, Type (0, 1), BuildingBlock: CIFDUS_clean_linker_0, # of connection points: 2
#     Edge 120, Type (0, 1), BuildingBlock: CIFDUS_clean_linker_0, # of connection points: 2
#     Edge 121, Type (0, 1), BuildingBlock: CIFDUS_clean_linker_0, # of connection points: 2
#     Edge 122, Type (0, 1), BuildingBlock: CIFDUS_clean_linker_0, # of connection points: 2
#     Edge 123, Type (0, 1), BuildingBlock: CIFDUS_clean_linker_0, # of connection points: 2
#     Edge 124, Type (0, 1), BuildingBlock: CIFDUS_clean_linker_0, # of connection points: 2
#     Edge 125, Type (0, 1), BuildingBlock: CIFDUS_clean_linker_0, # of connection points: 2
#     Edge 126, Type (0, 1), BuildingBlock: CIFDUS_clean_linker_0, # of connection points: 2
#     Edge 127, Type (0, 1), BuildingBlock: CIFDUS_clean_linker_0, # of connection points: 2
#     Edge 128, Type (0, 1), BuildingBlock: CIFDUS_clean_linker_0, # of connection points: 2
#     Edge 129, Type (0, 1), BuildingBlock: CIFDUS_clean_linker_0, # of connection points: 2
#     Edge 130, Type (0, 1), BuildingBlock: CIFDUS_clean_linker_0, # of connection points: 2
#     Edge 131, Type (0, 1), BuildingBlock: CIFDUS_clean_linker_0, # of connection points: 2
#     Edge 132, Type (0, 1), BuildingBlock: CIFDUS_clean_linker_0, # of connection points: 2
#     Edge 133, Type (0, 1), BuildingBlock: CIFDUS_clean_linker_0, # of connection points: 2
#     Edge 134, Type (0, 1), BuildingBlock: CIFDUS_clean_linker_0, # of connection points: 2
#     Edge 135, Type (0, 1), BuildingBlock: CIFDUS_clean_linker_0, # of connection points: 2
#     Edge 136, Type (0, 1), BuildingBlock: CIFDUS_clean_linker_0, # of connection points: 2
#     Edge 137, Type (0, 1), BuildingBlock: CIFDUS_clean_linker_0, # of connection points: 2
#     Edge 138, Type (0, 1), BuildingBlock: CIFDUS_clean_linker_0, # of connection points: 2
#     Edge 139, Type (0, 1), BuildingBlock: CIFDUS_clean_linker_0, # of connection points: 2
#     Edge 140, Type (0, 1), BuildingBlock: CIFDUS_clean_linker_0, # of connection points: 2
#     Edge 141, Type (0, 1), BuildingBlock: CIFDUS_clean_linker_0, # of connection points: 2
#     Edge 142, Type (0, 1), BuildingBlock: CIFDUS_clean_linker_0, # of connection points: 2
#     Edge 143, Type (0, 1), BuildingBlock: CIFDUS_clean_linker_0, # of connection points: 2
#     Edge 144, Type (0, 1), BuildingBlock: CIFDUS_clean_linker_0, # of connection points: 2
#     Edge 145, Type (0, 1), BuildingBlock: CIFDUS_clean_linker_0, # of connection points: 2
#     Edge 146, Type (0, 1), BuildingBlock: CIFDUS_clean_linker_0, # of connection points: 2
#     Edge 147, Type (0, 1), BuildingBlock: CIFDUS_clean_linker_0, # of connection points: 2
#     Edge 148, Type (0, 1), BuildingBlock: CIFDUS_clean_linker_0, # of connection points: 2
#     Edge 149, Type (0, 1), BuildingBlock: CIFDUS_clean_linker_0, # of connection points: 2
#     Edge 150, Type (0, 1), BuildingBlock: CIFDUS_clean_linker_0, # of connection points: 2
#     Edge 151, Type (0, 1), BuildingBlock: CIFDUS_clean_linker_0, # of connection points: 2
# Relax obj value: 0.000
# Max RMSD: 0.035
# Mean RMSD: 0.017
data_MOF--net-tbo--node1-WUSLED_clean_sbu_0--node2-GIZVER_clean_linker_0--edge1-CIFDUS_clean_linker_0
_symmetry_space_group_name_H-M    P1
_symmetry_Int_Tables_number       1
_symmetry_cell_setting            triclinic
loop_
_symmetry_equiv_pos_as_xyz
'x, y, z'
_cell_length_a     85.813007
_cell_length_b     86.25813
_cell_length_c     86.129601
_cell_angle_alpha  89.650239
_cell_angle_beta   90.394718
_cell_angle_gamma 90.819382
loop_
_atom_site_label
_atom_site_type_symbol
_atom_site_fract_x
_atom_site_fract_y
_atom_site_fract_z
_atom_type_partial_charge
C0 C 0.18558 0.14113 0.20177 0.0
C1 C 0.19837 0.13659 0.19291 0.0
C2 C 0.20446 0.11639 0.21193 0.0
C3 C 0.20774 0.12432 0.19794 0.0
C4 C 0.19148 0.12094 0.22062 0.0
C5 C 0.18215 0.13316 0.21557 0.0
U6 U 0.1748 0.1752 0.17477 0.0
O7 O 0.15148 0.18347 0.16812 0.0
O8 O 0.16756 0.1987 0.18099 0.0
C9 C 0.15335 0.19665 0.17553 0.0
C10 C 0.1759 0.15437 0.19717 0.0
C11 C 0.14077 0.20077 0.18625 0.0
C12 C 0.12793 0.19803 0.21121 0.0
C13 C 0.13925 0.19329 0.20068 0.0
C14 C 0.11919 0.21745 0.19282 0.0
C15 C 0.1179 0.21033 0.2075 0.0
C16 C 0.13055 0.21273 0.18231 0.0
C17 C 0.1993 0.18409 0.13837 0.0
C18 C 0.19836 0.20807 0.1234 0.0
C19 C 0.21426 0.18691 0.11461 0.0
C20 C 0.20951 0.178 0.1274 0.0
C21 C 0.20891 0.20214 0.11253 0.0
C22 C 0.19361 0.19912 0.1362 0.0
C23 C 0.19534 0.17481 0.15226 0.0
O24 O 0.18273 0.16807 0.19805 0.0
O25 O 0.16743 0.15261 0.18451 0.0
O26 O 0.18206 0.16704 0.15174 0.0
O27 O 0.19786 0.18165 0.16565 0.0
H28 H 0.20119 0.14263 0.18219 0.0
H29 H 0.21755 0.12106 0.19089 0.0
H30 H 0.18874 0.11534 0.23157 0.0
H31 H 0.17237 0.13656 0.22261 0.0
H32 H 0.12712 0.19215 0.22233 0.0
H33 H 0.147 0.18398 0.2039 0.0
H34 H 0.1118 0.22705 0.18964 0.0
H35 H 0.13158 0.21865 0.17123 0.0
H36 H 0.19414 0.21979 0.12227 0.0
H37 H 0.22218 0.18188 0.10637 0.0
H38 H 0.21399 0.1664 0.12886 0.0
H39 H 0.18573 0.20403 0.14456 0.0
C40 C 0.82735 0.18409 0.14252 0.0
C41 C 0.83693 0.19599 0.13656 0.0
C42 C 0.81664 0.20308 0.11792 0.0
C43 C 0.83163 0.2054 0.12435 0.0
C44 C 0.80722 0.19094 0.12383 0.0
C45 C 0.81254 0.18156 0.136 0.0
U46 U 0.85628 0.17438 0.17506 0.0
O47 O 0.85194 0.16896 0.19966 0.0
O48 O 0.86299 0.15174 0.18481 0.0
C49 C 0.85714 0.15477 0.19852 0.0
C50 C 0.83229 0.17467 0.15594 0.0
C51 C 0.84734 0.1426 0.20578 0.0
C52 C 0.82698 0.12263 0.20484 0.0
C53 C 0.83644 0.1337 0.19727 0.0
C54 C 0.83931 0.12922 0.22935 0.0
C55 C 0.82816 0.12046 0.22101 0.0
C56 C 0.84878 0.14014 0.22181 0.0
C57 C 0.89363 0.19851 0.18018 0.0
C58 C 0.9094 0.19732 0.20369 0.0
C59 C 0.91773 0.21356 0.18217 0.0
C60 C 0.90453 0.20886 0.17367 0.0
C61 C 0.92024 0.208 0.19737 0.0
C62 C 0.89624 0.19261 0.19517 0.0
C63 C 0.87925 0.19456 0.17155 0.0
O64 O 0.84453 0.16595 0.15384 0.0
O65 O 0.83258 0.18195 0.16929 0.0
O66 O 0.86624 0.19766 0.17879 0.0
O67 O 0.87891 0.18095 0.16475 0.0
H68 H 0.84841 0.19812 0.14148 0.0
H69 H 0.83925 0.21452 0.11999 0.0
H70 H 0.79553 0.18897 0.11939 0.0
H71 H 0.80495 0.17248 0.14053 0.0
H72 H 0.81842 0.11612 0.19814 0.0
H73 H 0.83511 0.13546 0.18487 0.0
H74 H 0.84064 0.12769 0.24178 0.0
H75 H 0.85715 0.14684 0.22857 0.0
H76 H 0.9108 0.19295 0.21542 0.0
H77 H 0.92591 0.22161 0.17685 0.0
H78 H 0.90271 0.21351 0.1621 0.0
H79 H 0.88791 0.18463 0.2004 0.0
C80 C 0.82246 0.85058 0.14075 0.0
C81 C 0.83054 0.83849 0.13366 0.0
C82 C 0.80799 0.83281 0.11712 0.0
C83 C 0.82338 0.82972 0.12184 0.0
C84 C 0.8002 0.84525 0.12395 0.0
C85 C 0.80737 0.85404 0.13562 0.0
U86 U 0.851 0.85597 0.17521 0.0
O87 O 0.86109 0.87753 0.18486 0.0
O88 O 0.84557 0.86296 0.19906 0.0
C89 C 0.8532 0.87621 0.19786 0.0
C90 C 0.82891 0.85913 0.15415 0.0
C91 C 0.8444 0.88994 0.20259 0.0
C92 C 0.82368 0.90846 0.19817 0.0
C93 C 0.83267 0.89608 0.19303 0.0
C94 C 0.8382 0.90885 0.22237 0.0
C95 C 0.82619 0.9149 0.213 0.0
C96 C 0.84719 0.8965 0.2172 0.0
C97 C 0.88206 0.82446 0.18291 0.0
C98 C 0.90205 0.82436 0.20315 0.0
C99 C 0.89623 0.80094 0.18873 0.0
C100 C 0.88506 0.80884 0.18002 0.0
C101 C 0.90471 0.80851 0.20055 0.0
C102 C 0.89072 0.83228 0.19444 0.0
C103 C 0.86945 0.83193 0.17403 0.0
O104 O 0.82668 0.85246 0.16771 0.0
O105 O 0.84296 0.86521 0.15265 0.0
O106 O 0.87271 0.84529 0.16729 0.0
O107 O 0.85566 0.83151 0.18056 0.0
H108 H 0.84218 0.83559 0.13755 0.0
H109 H 0.82961 0.82013 0.11687 0.0
H110 H 0.7884 0.84798 0.12047 0.0
H111 H 0.80095 0.86331 0.14094 0.0
H112 H 0.81467 0.91291 0.19055 0.0
H113 H 0.83031 0.89113 0.18171 0.0
H114 H 0.84034 0.9133 0.23393 0.0
H115 H 0.85612 0.89185 0.22479 0.0
H116 H 0.90834 0.83047 0.21224 0.0
H117 H 0.89814 0.78881 0.1863 0.0
H118 H 0.87854 0.80262 0.17115 0.0
H119 H 0.88853 0.84435 0.19687 0.0
C120 C 0.14223 0.82186 0.18359 0.0
C121 C 0.14486 0.81904 0.1995 0.0
C122 C 0.11886 0.80772 0.20206 0.0
C123 C 0.13334 0.81195 0.20858 0.0
C124 C 0.1159 0.81125 0.18638 0.0
C125 C 0.12754 0.81818 0.17719 0.0
U126 U 0.17497 0.85093 0.17406 0.0
O127 O 0.1842 0.85948 0.15168 0.0
O128 O 0.19929 0.84672 0.16781 0.0
C129 C 0.19775 0.85279 0.15386 0.0
C130 C 0.15497 0.82762 0.17345 0.0
C131 C 0.20411 0.8435 0.14094 0.0
C132 C 0.20382 0.83487 0.11399 0.0
C133 C 0.19703 0.84312 0.12615 0.0
C134 C 0.22479 0.82723 0.13118 0.0
C135 C 0.21787 0.82692 0.11633 0.0
C136 C 0.21806 0.83547 0.14326 0.0
C137 C 0.18101 0.88455 0.20329 0.0
C138 C 0.20199 0.90385 0.20304 0.0
C139 C 0.18551 0.90104 0.22564 0.0
C140 C 0.17695 0.88936 0.21821 0.0
C141 C 0.19831 0.9082 0.21829 0.0
C142 C 0.19344 0.892 0.1956 0.0
C143 C 0.17271 0.87105 0.19671 0.0
O144 O 0.15258 0.84071 0.16594 0.0
O145 O 0.16913 0.82664 0.17925 0.0
O146 O 0.17992 0.85779 0.19813 0.0
O147 O 0.16594 0.8729 0.18309 0.0
H148 H 0.15598 0.82188 0.20486 0.0
H149 H 0.13587 0.80946 0.22068 0.0
H150 H 0.10486 0.80802 0.18106 0.0
H151 H 0.12522 0.82023 0.16498 0.0
H152 H 0.19823 0.83501 0.10268 0.0
H153 H 0.18636 0.84931 0.12389 0.0
H154 H 0.23544 0.82102 0.13354 0.0
H155 H 0.2239 0.83563 0.15446 0.0
H156 H 0.21187 0.90912 0.19716 0.0
H157 H 0.18236 0.90424 0.23734 0.0
H158 H 0.1674 0.88374 0.22431 0.0
H159 H 0.19678 0.88836 0.18409 0.0
C160 C 0.14286 0.8255 0.84909 0.0
C161 C 0.13366 0.83404 0.83863 0.0
C162 C 0.12003 0.81034 0.83067 0.0
C163 C 0.12224 0.82651 0.82955 0.0
C164 C 0.12906 0.80197 0.84143 0.0
C165 C 0.14032 0.80949 0.85054 0.0
U166 U 0.17521 0.8563 0.85642 0.0
O167 O 0.18359 0.86599 0.87866 0.0
O168 O 0.19929 0.85249 0.86419 0.0
C169 C 0.1973 0.8595 0.87751 0.0
C170 C 0.15562 0.83267 0.85819 0.0
C171 C 0.20287 0.85095 0.89126 0.0
C172 C 0.20382 0.8275 0.90703 0.0
C173 C 0.19732 0.83595 0.8947 0.0
C174 C 0.22114 0.84914 0.91284 0.0
C175 C 0.21602 0.8339 0.91608 0.0
C176 C 0.21464 0.85757 0.90054 0.0
C177 C 0.18407 0.88936 0.82842 0.0
C178 C 0.20844 0.9039 0.83057 0.0
C179 C 0.19001 0.91017 0.81012 0.0
C180 C 0.17988 0.89851 0.81559 0.0
C181 C 0.20457 0.91275 0.81735 0.0
C182 C 0.19828 0.89233 0.83607 0.0
C183 C 0.17416 0.87611 0.83317 0.0
O184 O 0.16951 0.83179 0.85198 0.0
O185 O 0.15295 0.84621 0.86453 0.0
O186 O 0.16626 0.87788 0.84605 0.0
O187 O 0.1809 0.86256 0.83235 0.0
H188 H 0.1355 0.84642 0.83729 0.0
H189 H 0.11552 0.83321 0.82128 0.0
H190 H 0.12752 0.78954 0.84268 0.0
H191 H 0.14728 0.8027 0.85856 0.0
H192 H 0.1997 0.81574 0.90908 0.0
H193 H 0.18826 0.83064 0.88761 0.0
H194 H 0.23034 0.85451 0.9197 0.0
H195 H 0.21905 0.86915 0.89807 0.0
H196 H 0.21948 0.90573 0.8365 0.0
H197 H 0.18675 0.91669 0.79985 0.0
H198 H 0.16896 0.89634 0.80953 0.0
H199 H 0.2017 0.88541 0.84604 0.0
C200 C 0.13524 0.18039 0.82938 0.0
C201 C 0.12444 0.17261 0.81983 0.0
C202 C 0.11025 0.19655 0.81549 0.0
C203 C 0.11208 0.18058 0.81297 0.0
C204 C 0.12071 0.2042 0.82564 0.0
C205 C 0.13313 0.19619 0.83251 0.0
U206 U 0.16986 0.17263 0.85747 0.0
O207 O 0.17936 0.15018 0.86486 0.0
O208 O 0.19388 0.16646 0.85147 0.0
C209 C 0.19256 0.15248 0.85749 0.0
C210 C 0.1491 0.17198 0.83487 0.0
C211 C 0.19761 0.13975 0.84746 0.0
C212 C 0.19318 0.12206 0.82593 0.0
C213 C 0.18797 0.13394 0.83555 0.0
C214 C 0.21768 0.12169 0.84004 0.0
C215 C 0.20815 0.11582 0.828 0.0
C216 C 0.21245 0.13352 0.84965 0.0
C217 C 0.17738 0.19785 0.89374 0.0
C218 C 0.20137 0.20671 0.90638 0.0
C219 C 0.17733 0.20558 0.92089 0.0
C220 C 0.16945 0.19997 0.90775 0.0
C221 C 0.19335 0.20932 0.92032 0.0
C222 C 0.19349 0.20101 0.89325 0.0
C223 C 0.16841 0.1933 0.87968 0.0
O224 O 0.16248 0.17952 0.83398 0.0
O225 O 0.14758 0.16385 0.84775 0.0
O226 O 0.16103 0.17985 0.88028 0.0
O227 O 0.17506 0.19603 0.86621 0.0
H228 H 0.12583 0.16042 0.8173 0.0
H229 H 0.10411 0.17427 0.80542 0.0
H230 H 0.1197 0.2165 0.82775 0.0
H231 H 0.14133 0.20242 0.83987 0.0
H232 H 0.18547 0.11774 0.81689 0.0
H233 H 0.17646 0.13863 0.83366 0.0
H234 H 0.22937 0.11742 0.84183 0.0
H235 H 0.22009 0.13793 0.85873 0.0
H236 H 0.21364 0.20961 0.90539 0.0
H237 H 0.17081 0.20717 0.93146 0.0
H238 H 0.15704 0.19759 0.90844 0.0
H239 H 0.19995 0.19947 0.88262 0.0
C240 C 0.82717 0.14265 0.84865 0.0
C241 C 0.83573 0.13849 0.83553 0.0
C242 C 0.81645 0.11829 0.82935 0.0
C243 C 0.83041 0.12639 0.82595 0.0
C244 C 0.80808 0.12248 0.84265 0.0
C245 C 0.8134 0.13452 0.85218 0.0
U246 U 0.85405 0.17721 0.85938 0.0
O247 O 0.84754 0.20045 0.86711 0.0
O248 O 0.86107 0.18546 0.88262 0.0
C249 C 0.85333 0.19844 0.88113 0.0
C250 C 0.83196 0.15579 0.8585 0.0
C251 C 0.84267 0.2021 0.89389 0.0
C252 C 0.81758 0.19897 0.90653 0.0
C253 C 0.8282 0.19446 0.89521 0.0
C254 C 0.83603 0.21838 0.91577 0.0
C255 C 0.82125 0.21118 0.91676 0.0
C256 C 0.84663 0.21389 0.90439 0.0
C257 C 0.88921 0.18826 0.83414 0.0
C258 C 0.90211 0.21352 0.83487 0.0
C259 C 0.9118 0.19356 0.81794 0.0
C260 C 0.90012 0.18337 0.82322 0.0
C261 C 0.91271 0.20888 0.82343 0.0
C262 C 0.89048 0.20329 0.84019 0.0
C263 C 0.87598 0.17798 0.83821 0.0
O264 O 0.84501 0.1542 0.8664 0.0
O265 O 0.83058 0.16957 0.85212 0.0
O266 O 0.86214 0.18402 0.83617 0.0
O267 O 0.87724 0.17017 0.85131 0.0
H268 H 0.84639 0.14469 0.83262 0.0
H269 H 0.83722 0.12341 0.81589 0.0
H270 H 0.79715 0.11676 0.84549 0.0
H271 H 0.80659 0.13765 0.86221 0.0
H272 H 0.80637 0.19307 0.9071 0.0
H273 H 0.82497 0.18527 0.88723 0.0
H274 H 0.83917 0.22792 0.92334 0.0
H275 H 0.85775 0.21993 0.90353 0.0
H276 H 0.90262 0.22517 0.83947 0.0
H277 H 0.91965 0.18966 0.80903 0.0
H278 H 0.89929 0.17181 0.8184 0.0
H279 H 0.8822 0.20726 0.84868 0.0
C280 C 0.84792 0.89099 0.82553 0.0
C281 C 0.83317 0.89462 0.83132 0.0
C282 C 0.83077 0.91556 0.81226 0.0
C283 C 0.82467 0.90683 0.82476 0.0
C284 C 0.84578 0.91214 0.8069 0.0
C285 C 0.85424 0.89998 0.81346 0.0
U286 U 0.8551 0.85718 0.85415 0.0
O287 O 0.86041 0.83292 0.84915 0.0
O288 O 0.87753 0.84726 0.86178 0.0
C289 C 0.87468 0.83402 0.85474 0.0
C290 C 0.85655 0.87738 0.83118 0.0
C291 C 0.88718 0.82803 0.84471 0.0
C292 C 0.89586 0.8182 0.81983 0.0
C293 C 0.88467 0.82561 0.82875 0.0
C294 C 0.91277 0.81634 0.84235 0.0
C295 C 0.90989 0.8132 0.82659 0.0
C296 C 0.90146 0.82361 0.85135 0.0
C297 C 0.82705 0.85112 0.88878 0.0
C298 C 0.82702 0.82911 0.90665 0.0
C299 C 0.80539 0.84685 0.90636 0.0
C300 C 0.81272 0.85567 0.89481 0.0
C301 C 0.81228 0.83329 0.91218 0.0
C302 C 0.83433 0.83793 0.89493 0.0
C303 C 0.83331 0.85968 0.87528 0.0
O304 O 0.86436 0.87908 0.84426 0.0
O305 O 0.84903 0.86404 0.83028 0.0
O306 O 0.83105 0.85294 0.8618 0.0
O307 O 0.84728 0.866 0.87675 0.0
H308 H 0.82808 0.88777 0.84063 0.0
H309 H 0.8131 0.90905 0.82909 0.0
H310 H 0.85094 0.91876 0.79747 0.0
H311 H 0.86563 0.89738 0.80886 0.0
H312 H 0.8934 0.81607 0.80767 0.0
H313 H 0.87385 0.82901 0.82323 0.0
H314 H 0.92344 0.81254 0.84788 0.0
H315 H 0.90368 0.82534 0.86362 0.0
H316 H 0.83252 0.81865 0.91085 0.0
H317 H 0.79409 0.8504 0.91046 0.0
H318 H 0.80691 0.8658 0.8902 0.0
H319 H 0.84537 0.83419 0.89034 0.0
C320 C 0.18113 0.64013 0.70462 0.0
C321 C 0.18245 0.62581 0.697 0.0
C322 C 0.19807 0.61558 0.71845 0.0
C323 C 0.19088 0.61368 0.70382 0.0
C324 C 0.19703 0.63004 0.72581 0.0
C325 C 0.18862 0.6421 0.71903 0.0
U326 U 0.17005 0.67362 0.6763 0.0
O327 O 0.14674 0.68044 0.66795 0.0
O328 O 0.16081 0.69649 0.68207 0.0
C329 C 0.14725 0.69369 0.67539 0.0
C330 C 0.17101 0.65268 0.6986 0.0
C331 C 0.13345 0.6974 0.68471 0.0
C332 C 0.11945 0.69715 0.70918 0.0
C333 C 0.13214 0.69256 0.70024 0.0
C334 C 0.10901 0.7111 0.68704 0.0
C335 C 0.10779 0.70665 0.70275 0.0
C336 C 0.12171 0.70653 0.67814 0.0
C337 C 0.19651 0.68547 0.64201 0.0
C338 C 0.20554 0.71026 0.63144 0.0
C339 C 0.20302 0.68803 0.61458 0.0
C340 C 0.19785 0.67899 0.62716 0.0
C341 C 0.20712 0.70376 0.61658 0.0
C342 C 0.20028 0.70126 0.64397 0.0
C343 C 0.19221 0.67541 0.65541 0.0
O344 O 0.17645 0.66692 0.70015 0.0
O345 O 0.16372 0.65041 0.6853 0.0
O346 O 0.17971 0.66656 0.65375 0.0
O347 O 0.19335 0.68167 0.66927 0.0
H348 H 0.1767 0.62384 0.68594 0.0
H349 H 0.19137 0.60268 0.69787 0.0
H350 H 0.20265 0.63204 0.73693 0.0
H351 H 0.18774 0.65292 0.72526 0.0
H352 H 0.11903 0.69364 0.72126 0.0
H353 H 0.1411 0.6855 0.70553 0.0
H354 H 0.10016 0.7182 0.68163 0.0
H355 H 0.12249 0.71035 0.66616 0.0
H356 H 0.20882 0.72223 0.63356 0.0
H357 H 0.20387 0.68265 0.6033 0.0
H358 H 0.19509 0.66684 0.62532 0.0
H359 H 0.19948 0.70665 0.65526 0.0
C360 C 0.82721 0.68342 0.64162 0.0
C361 C 0.83429 0.69807 0.63982 0.0
C362 C 0.81615 0.70431 0.61885 0.0
C363 C 0.8288 0.70842 0.62855 0.0
C364 C 0.80944 0.6894 0.62037 0.0
C365 C 0.81491 0.67907 0.6317 0.0
U366 U 0.85428 0.67393 0.67542 0.0
O367 O 0.84897 0.66551 0.69892 0.0
O368 O 0.86352 0.65155 0.68367 0.0
C369 C 0.85591 0.65219 0.69685 0.0
C370 C 0.83204 0.673 0.6543 0.0
C371 C 0.84711 0.63803 0.7016 0.0
C372 C 0.8239 0.62547 0.7123 0.0
C373 C 0.83147 0.63866 0.70629 0.0
C374 C 0.84723 0.61059 0.70846 0.0
C375 C 0.83175 0.6113 0.7137 0.0
C376 C 0.85483 0.62381 0.70256 0.0
C377 C 0.88728 0.70395 0.68465 0.0
C378 C 0.91456 0.70405 0.69287 0.0
C379 C 0.89796 0.72528 0.69993 0.0
C380 C 0.88544 0.71817 0.6922 0.0
C381 C 0.91275 0.71845 0.7002 0.0
C382 C 0.90197 0.69689 0.68512 0.0
C383 C 0.87405 0.6975 0.67545 0.0
O384 O 0.84556 0.66627 0.65254 0.0
O385 O 0.83013 0.67854 0.66833 0.0
O386 O 0.8603 0.69786 0.68207 0.0
O387 O 0.87633 0.6847 0.66761 0.0
H388 H 0.84384 0.70161 0.64735 0.0
H389 H 0.83436 0.71974 0.62755 0.0
H390 H 0.79959 0.68593 0.6132 0.0
H391 H 0.80929 0.6678 0.63296 0.0
H392 H 0.81207 0.62658 0.71639 0.0
H393 H 0.82516 0.64944 0.70575 0.0
H394 H 0.85359 0.59985 0.70912 0.0
H395 H 0.86689 0.623 0.69905 0.0
H396 H 0.9258 0.6985 0.69277 0.0
H397 H 0.89601 0.7362 0.70571 0.0
H398 H 0.87432 0.72395 0.69194 0.0
H399 H 0.90384 0.68598 0.67931 0.0
C400 C 0.82662 0.34706 0.64135 0.0
C401 C 0.81437 0.35306 0.63245 0.0
C402 C 0.81303 0.32945 0.61705 0.0
C403 C 0.80764 0.34438 0.62043 0.0
C404 C 0.8257 0.32365 0.62568 0.0
C405 C 0.83242 0.33237 0.63777 0.0
U406 U 0.85567 0.35541 0.6749 0.0
O407 O 0.86424 0.37787 0.68371 0.0
O408 O 0.85059 0.36239 0.69888 0.0
C409 C 0.85742 0.37602 0.69724 0.0
C410 C 0.8325 0.35602 0.65475 0.0
C411 C 0.84884 0.38939 0.70327 0.0
C412 C 0.83175 0.41149 0.6999 0.0
C413 C 0.83931 0.39859 0.69374 0.0
C414 C 0.84303 0.40594 0.72514 0.0
C415 C 0.83363 0.4154 0.71568 0.0
C416 C 0.85055 0.39313 0.71899 0.0
C417 C 0.89102 0.3299 0.68268 0.0
C418 C 0.90603 0.33078 0.70674 0.0
C419 C 0.91512 0.31557 0.68517 0.0
C420 C 0.90218 0.32011 0.67635 0.0
C421 C 0.91715 0.32071 0.70056 0.0
C422 C 0.89311 0.33535 0.69789 0.0
C423 C 0.87712 0.33401 0.67345 0.0
O424 O 0.83166 0.34897 0.6683 0.0
O425 O 0.84566 0.36375 0.65276 0.0
O426 O 0.87801 0.34719 0.66575 0.0
O427 O 0.86367 0.3319 0.68043 0.0
H428 H 0.80976 0.36439 0.635 0.0
H429 H 0.79807 0.3493 0.61388 0.0
H430 H 0.83006 0.31215 0.62347 0.0
H431 H 0.84189 0.32753 0.64454 0.0
H432 H 0.82466 0.41854 0.69226 0.0
H433 H 0.8378 0.39587 0.68155 0.0
H434 H 0.84449 0.40834 0.7374 0.0
H435 H 0.85778 0.38613 0.72656 0.0
H436 H 0.90706 0.33483 0.71859 0.0
H437 H 0.92354 0.30801 0.67993 0.0
H438 H 0.90081 0.31585 0.66461 0.0
H439 H 0.88462 0.34295 0.70299 0.0
C440 C 0.13724 0.32988 0.68247 0.0
C441 C 0.13487 0.33571 0.69743 0.0
C442 C 0.11117 0.31994 0.70003 0.0
C443 C 0.12198 0.33078 0.70613 0.0
C444 C 0.11346 0.3144 0.68488 0.0
C445 C 0.12639 0.31931 0.67621 0.0
U446 U 0.17342 0.35539 0.67661 0.0
O447 O 0.19739 0.34909 0.67076 0.0
O448 O 0.18427 0.36441 0.65517 0.0
C449 C 0.1972 0.35672 0.65752 0.0
C450 C 0.15124 0.33429 0.67356 0.0
C451 C 0.20367 0.34847 0.64415 0.0
C452 C 0.20266 0.32805 0.62474 0.0
C453 C 0.19545 0.33651 0.63652 0.0
C454 C 0.22612 0.34368 0.62798 0.0
C455 C 0.21821 0.33135 0.62062 0.0
C456 C 0.21891 0.35215 0.63959 0.0
C457 C 0.18246 0.38749 0.70675 0.0
C458 C 0.19074 0.41465 0.70814 0.0
C459 C 0.20009 0.39631 0.72728 0.0
C460 C 0.19152 0.38446 0.72005 0.0
C461 C 0.19971 0.4116 0.72153 0.0
C462 C 0.18216 0.40275 0.70086 0.0
C463 C 0.17263 0.3749 0.69993 0.0
O464 O 0.15086 0.34787 0.66657 0.0
O465 O 0.16458 0.33169 0.68064 0.0
O466 O 0.17815 0.3608 0.7011 0.0
O467 O 0.16592 0.37761 0.68642 0.0
H468 H 0.14315 0.34387 0.70248 0.0
H469 H 0.12074 0.33515 0.71781 0.0
H470 H 0.10529 0.30623 0.67971 0.0
H471 H 0.128 0.31472 0.66466 0.0
H472 H 0.19634 0.31854 0.61933 0.0
H473 H 0.18367 0.33347 0.63995 0.0
H474 H 0.23805 0.34658 0.62495 0.0
H475 H 0.22543 0.36134 0.64533 0.0
H476 H 0.19004 0.42631 0.70348 0.0
H477 H 0.20705 0.39344 0.7374 0.0
H478 H 0.19189 0.37289 0.72501 0.0
H479 H 0.17514 0.40557 0.69077 0.0
C480 C 0.13912 0.32742 0.34878 0.0
C481 C 0.13361 0.33679 0.33661 0.0
C482 C 0.11447 0.31681 0.32945 0.0
C483 C 0.12137 0.33155 0.32706 0.0
C484 C 0.11995 0.3076 0.34184 0.0
C485 C 0.13213 0.31287 0.35139 0.0
U486 U 0.17416 0.35413 0.35714 0.0
O487 O 0.18334 0.36311 0.37931 0.0
O488 O 0.1978 0.34815 0.36496 0.0
C489 C 0.1965 0.3556 0.37814 0.0
C490 C 0.15254 0.33228 0.3584 0.0
C491 C 0.20181 0.34726 0.39212 0.0
C492 C 0.19866 0.32731 0.41201 0.0
C493 C 0.19307 0.33508 0.39877 0.0
C494 C 0.22171 0.34385 0.41196 0.0
C495 C 0.21307 0.33163 0.41879 0.0
C496 C 0.21612 0.35156 0.3988 0.0
C497 C 0.18461 0.38741 0.32963 0.0
C498 C 0.20927 0.40143 0.33195 0.0
C499 C 0.19085 0.40851 0.31176 0.0
C500 C 0.18054 0.39692 0.31703 0.0
C501 C 0.20546 0.41072 0.31899 0.0
C502 C 0.19893 0.3899 0.33722 0.0
C503 C 0.17422 0.3745 0.33431 0.0
O504 O 0.16624 0.33033 0.35204 0.0
O505 O 0.15134 0.34568 0.36546 0.0
O506 O 0.16653 0.37644 0.34728 0.0
O507 O 0.1803 0.36065 0.33322 0.0
H508 H 0.1389 0.34806 0.33439 0.0
H509 H 0.11736 0.33902 0.31774 0.0
H510 H 0.11516 0.29609 0.34389 0.0
H511 H 0.13631 0.30543 0.36066 0.0
H512 H 0.19167 0.31802 0.417 0.0
H513 H 0.18197 0.33158 0.39372 0.0
H514 H 0.23299 0.34729 0.41661 0.0
H515 H 0.22308 0.36087 0.39376 0.0
H516 H 0.22034 0.40296 0.33789 0.0
H517 H 0.18762 0.41534 0.30168 0.0
H518 H 0.16953 0.39514 0.31102 0.0
H519 H 0.20225 0.3827 0.34703 0.0
C520 C 0.13572 0.68094 0.32911 0.0
C521 C 0.13029 0.69286 0.3386 0.0
C522 C 0.11033 0.69928 0.31932 0.0
C523 C 0.11769 0.70192 0.33377 0.0
C524 C 0.11568 0.68708 0.31004 0.0
C525 C 0.12823 0.67803 0.3149 0.0
U526 U 0.17154 0.67397 0.35485 0.0
O527 O 0.18235 0.65214 0.36248 0.0
O528 O 0.1956 0.6688 0.34821 0.0
C529 C 0.19534 0.6551 0.35494 0.0
C530 C 0.14965 0.67203 0.3334 0.0
C531 C 0.20198 0.6424 0.34582 0.0
C532 C 0.20014 0.62209 0.3263 0.0
C533 C 0.19302 0.63344 0.33539 0.0
C534 C 0.22506 0.62848 0.33817 0.0
C535 C 0.21631 0.61972 0.32741 0.0
C536 C 0.21797 0.63966 0.34726 0.0
C537 C 0.18031 0.70255 0.3885 0.0
C538 C 0.19003 0.70195 0.41522 0.0
C539 C 0.19604 0.72395 0.39867 0.0
C540 C 0.18766 0.71707 0.38652 0.0
C541 C 0.19719 0.71661 0.41326 0.0
C542 C 0.18163 0.69501 0.40299 0.0
C543 C 0.1706 0.69614 0.37564 0.0
O544 O 0.163 0.67937 0.33133 0.0
O545 O 0.14903 0.66437 0.34664 0.0
O546 O 0.16399 0.68242 0.37769 0.0
O547 O 0.17618 0.69813 0.36159 0.0
H548 H 0.13596 0.69531 0.34961 0.0
H549 H 0.11381 0.71108 0.3413 0.0
H550 H 0.11053 0.68485 0.29874 0.0
H551 H 0.13233 0.66896 0.30737 0.0
H552 H 0.19313 0.61557 0.31804 0.0
H553 H 0.18064 0.63542 0.33407 0.0
H554 H 0.2375 0.62681 0.33943 0.0
H555 H 0.22507 0.64641 0.35527 0.0
H556 H 0.19057 0.69601 0.42632 0.0
H557 H 0.20165 0.7351 0.3966 0.0
H558 H 0.18678 0.72324 0.37557 0.0
H559 H 0.17599 0.68387 0.40499 0.0
C560 C 0.82529 0.6383 0.34736 0.0
C561 C 0.8326 0.63719 0.33289 0.0
C562 C 0.81527 0.61571 0.32574 0.0
C563 C 0.82762 0.62602 0.32218 0.0
C564 C 0.80838 0.61649 0.34049 0.0
C565 C 0.81332 0.62775 0.35118 0.0
U566 U 0.85182 0.67218 0.35811 0.0
O567 O 0.84631 0.69556 0.36628 0.0
O568 O 0.8608 0.68033 0.38069 0.0
C569 C 0.85369 0.69369 0.37956 0.0
C570 C 0.8296 0.65091 0.35809 0.0
C571 C 0.84546 0.699 0.39344 0.0
C572 C 0.82513 0.69641 0.41289 0.0
C573 C 0.83284 0.69069 0.39984 0.0
C574 C 0.84262 0.7187 0.41317 0.0
C575 C 0.82995 0.71051 0.41974 0.0
C576 C 0.85027 0.71299 0.40021 0.0
C577 C 0.88577 0.68202 0.33082 0.0
C578 C 0.90393 0.70351 0.33508 0.0
C579 C 0.90514 0.68864 0.31136 0.0
C580 C 0.89274 0.67929 0.31646 0.0
C581 C 0.91086 0.70094 0.32055 0.0
C582 C 0.89148 0.69413 0.34017 0.0
C583 C 0.87232 0.67239 0.33557 0.0
O584 O 0.84287 0.64925 0.3656 0.0
O585 O 0.8278 0.66496 0.35243 0.0
O586 O 0.85871 0.6791 0.33449 0.0
O587 O 0.87404 0.66436 0.34847 0.0
H588 H 0.84192 0.64519 0.32976 0.0
H589 H 0.8333 0.62559 0.311 0.0
H590 H 0.79876 0.60882 0.34352 0.0
H591 H 0.80755 0.62845 0.3623 0.0
H592 H 0.81548 0.68976 0.41768 0.0
H593 H 0.82894 0.67986 0.39471 0.0
H594 H 0.84645 0.72975 0.41786 0.0
H595 H 0.85991 0.71962 0.39535 0.0
H596 H 0.90811 0.71278 0.34251 0.0
H597 H 0.90994 0.68648 0.29999 0.0
H598 H 0.88842 0.67004 0.30906 0.0
H599 H 0.88621 0.69641 0.35131 0.0
C600 C 0.84224 0.38595 0.33088 0.0
C601 C 0.82655 0.38343 0.32668 0.0
C602 C 0.8236 0.41088 0.32039 0.0
C603 C 0.81737 0.39572 0.32149 0.0
C604 C 0.83923 0.41342 0.32489 0.0
C605 C 0.84844 0.40109 0.33 0.0
U606 U 0.85505 0.35218 0.35752 0.0
O607 O 0.86216 0.32862 0.35159 0.0
O608 O 0.87882 0.34428 0.36323 0.0
C609 C 0.87662 0.33088 0.35631 0.0
C610 C 0.85254 0.37288 0.33514 0.0
C611 C 0.88888 0.32597 0.34548 0.0
C612 C 0.89726 0.31941 0.31943 0.0
C613 C 0.88632 0.32593 0.32935 0.0
C614 C 0.91393 0.31373 0.34146 0.0
C615 C 0.91103 0.31293 0.3254 0.0
C616 C 0.90291 0.32013 0.35141 0.0
C617 C 0.83173 0.34314 0.39465 0.0
C618 C 0.83227 0.31878 0.40902 0.0
C619 C 0.81783 0.34041 0.41904 0.0
C620 C 0.82238 0.34942 0.40624 0.0
C621 C 0.82251 0.3249 0.4205 0.0
C622 C 0.83684 0.32782 0.39622 0.0
C623 C 0.83524 0.35246 0.38067 0.0
O624 O 0.86163 0.37488 0.34735 0.0
O625 O 0.8464 0.35884 0.3344 0.0
O626 O 0.83233 0.34563 0.36735 0.0
O627 O 0.84848 0.36032 0.38079 0.0
H628 H 0.82138 0.37191 0.32709 0.0
H629 H 0.80548 0.39322 0.3179 0.0
H630 H 0.84439 0.42494 0.3244 0.0
H631 H 0.86052 0.40338 0.33307 0.0
H632 H 0.89478 0.31913 0.30708 0.0
H633 H 0.87566 0.33049 0.32444 0.0
H634 H 0.92438 0.30875 0.34642 0.0
H635 H 0.90512 0.32003 0.36381 0.0
H636 H 0.83597 0.30684 0.40965 0.0
H637 H 0.81053 0.34559 0.42775 0.0
H638 H 0.81834 0.36123 0.40525 0.0
H639 H 0.84405 0.32275 0.38737 0.0
C640 C 0.68178 0.14269 0.70672 0.0
C641 C 0.69445 0.13775 0.69789 0.0
C642 C 0.70073 0.11826 0.71759 0.0
C643 C 0.70383 0.12564 0.70327 0.0
C644 C 0.68786 0.12319 0.72625 0.0
C645 C 0.67851 0.13527 0.72086 0.0
U646 U 0.67301 0.17642 0.67898 0.0
O647 O 0.65051 0.18492 0.67007 0.0
O648 O 0.66563 0.20013 0.6841 0.0
C649 C 0.65213 0.1984 0.67698 0.0
C650 C 0.67218 0.15585 0.70164 0.0
C651 C 0.63846 0.20415 0.68534 0.0
C652 C 0.62214 0.20535 0.70831 0.0
C653 C 0.63449 0.19868 0.70021 0.0
C654 C 0.61743 0.22267 0.68659 0.0
C655 C 0.61365 0.21763 0.70169 0.0
C656 C 0.6297 0.21599 0.67853 0.0
C657 C 0.70049 0.18462 0.64475 0.0
C658 C 0.69677 0.20559 0.62614 0.0
C659 C 0.7204 0.19059 0.62561 0.0
C660 C 0.71496 0.18161 0.63808 0.0
C661 C 0.71144 0.20278 0.61952 0.0
C662 C 0.69136 0.1966 0.63866 0.0
C663 C 0.69543 0.17547 0.65836 0.0
O664 O 0.67883 0.16959 0.70296 0.0
O665 O 0.6646 0.15406 0.68844 0.0
O666 O 0.68218 0.16777 0.65689 0.0
O667 O 0.69689 0.18249 0.67179 0.0
H668 H 0.69716 0.14336 0.68693 0.0
H669 H 0.71352 0.12207 0.69621 0.0
H670 H 0.68525 0.11801 0.73744 0.0
H671 H 0.66883 0.13898 0.72787 0.0
H672 H 0.6196 0.20127 0.71995 0.0
H673 H 0.64115 0.18955 0.70567 0.0
H674 H 0.61101 0.23193 0.68106 0.0
H675 H 0.63256 0.22034 0.66705 0.0
H676 H 0.68949 0.21477 0.62167 0.0
H677 H 0.73185 0.18823 0.62105 0.0
H678 H 0.72221 0.17246 0.64269 0.0
H679 H 0.68014 0.1991 0.64369 0.0
C680 C 0.32733 0.18142 0.63758 0.0
C681 C 0.33563 0.19535 0.6352 0.0
C682 C 0.31742 0.20276 0.61468 0.0
C683 C 0.33072 0.20591 0.62385 0.0
C684 C 0.30952 0.18848 0.6167 0.0
C685 C 0.31442 0.17792 0.62809 0.0
U686 U 0.35286 0.17201 0.67252 0.0
O687 O 0.3464 0.16424 0.696 0.0
O688 O 0.36149 0.14983 0.68171 0.0
C689 C 0.35389 0.15112 0.69484 0.0
C690 C 0.33141 0.17108 0.65061 0.0
C691 C 0.34557 0.13719 0.70048 0.0
C692 C 0.32519 0.11738 0.69838 0.0
C693 C 0.333 0.13047 0.69231 0.0
C694 C 0.34249 0.1177 0.72072 0.0
C695 C 0.32986 0.11083 0.71268 0.0
C696 C 0.35025 0.13069 0.71467 0.0
C697 C 0.38616 0.19961 0.68354 0.0
C698 C 0.39885 0.19835 0.70881 0.0
C699 C 0.40801 0.21686 0.68955 0.0
C700 C 0.39662 0.21144 0.67912 0.0
C701 C 0.40905 0.21058 0.70463 0.0
C702 C 0.38753 0.19289 0.69835 0.0
C703 C 0.37343 0.19488 0.67296 0.0
O704 O 0.34482 0.16399 0.64952 0.0
O705 O 0.3291 0.17695 0.66443 0.0
O706 O 0.35936 0.19591 0.67875 0.0
O707 O 0.37553 0.18194 0.66533 0.0
H708 H 0.34564 0.19823 0.64241 0.0
H709 H 0.33717 0.21671 0.62248 0.0
H710 H 0.29916 0.18576 0.60995 0.0
H711 H 0.30785 0.16724 0.62982 0.0
H712 H 0.31557 0.11236 0.69185 0.0
H713 H 0.32921 0.13538 0.68134 0.0
H714 H 0.34622 0.11324 0.7319 0.0
H715 H 0.35985 0.1358 0.72119 0.0
H716 H 0.39947 0.19314 0.72027 0.0
H717 H 0.4156 0.22637 0.68603 0.0
H718 H 0.39572 0.21676 0.66772 0.0
H719 H 0.37961 0.18367 0.70194 0.0
C720 C 0.32409 0.84104 0.64209 0.0
C721 C 0.33056 0.84129 0.62711 0.0
C722 C 0.3098 0.82411 0.61757 0.0
C723 C 0.32353 0.83285 0.615 0.0
C724 C 0.30361 0.82359 0.63265 0.0
C725 C 0.31061 0.83199 0.6447 0.0
U726 U 0.35279 0.8534 0.67527 0.0
O727 O 0.36001 0.87709 0.68214 0.0
O728 O 0.34704 0.86216 0.69838 0.0
C729 C 0.3526 0.87614 0.69543 0.0
C730 C 0.33009 0.85128 0.65467 0.0
C731 C 0.34233 0.88924 0.69924 0.0
C732 C 0.31706 0.89925 0.7066 0.0
C733 C 0.32632 0.88694 0.7019 0.0
C734 C 0.33948 0.91655 0.70557 0.0
C735 C 0.32351 0.91422 0.70863 0.0
C736 C 0.34877 0.90418 0.70098 0.0
C737 C 0.3881 0.82903 0.68679 0.0
C738 C 0.40167 0.8319 0.7115 0.0
C739 C 0.41032 0.81286 0.69302 0.0
C740 C 0.39854 0.81741 0.68268 0.0
C741 C 0.4118 0.81981 0.70771 0.0
C742 C 0.38993 0.83648 0.70113 0.0
C743 C 0.37471 0.83241 0.67656 0.0
O744 O 0.32906 0.84579 0.6689 0.0
O745 O 0.3431 0.85913 0.65219 0.0
O746 O 0.37581 0.84505 0.66799 0.0
O747 O 0.36097 0.83061 0.68303 0.0
H748 H 0.34082 0.84829 0.62462 0.0
H749 H 0.32854 0.83359 0.60351 0.0
H750 H 0.29322 0.81678 0.63514 0.0
H751 H 0.30521 0.83167 0.65604 0.0
H752 H 0.3049 0.89688 0.70907 0.0
H753 H 0.32097 0.87556 0.70065 0.0
H754 H 0.34484 0.92792 0.70676 0.0
H755 H 0.36108 0.90626 0.69898 0.0
H756 H 0.4026 0.83763 0.72263 0.0
H757 H 0.4178 0.80342 0.68979 0.0
H758 H 0.39727 0.8115 0.67168 0.0
H759 H 0.38201 0.84551 0.7045 0.0
C760 C 0.63872 0.82793 0.68529 0.0
C761 C 0.63778 0.83463 0.70005 0.0
C762 C 0.61575 0.81764 0.70647 0.0
C763 C 0.62641 0.82952 0.71055 0.0
C764 C 0.61636 0.81142 0.69142 0.0
C765 C 0.62778 0.8165 0.68095 0.0
U766 U 0.67382 0.85332 0.6742 0.0
O767 O 0.697 0.84653 0.66616 0.0
O768 O 0.68222 0.861 0.65126 0.0
C769 C 0.69522 0.85319 0.65252 0.0
C770 C 0.65161 0.83203 0.67477 0.0
C771 C 0.69944 0.84367 0.6391 0.0
C772 C 0.69414 0.82263 0.62106 0.0
C773 C 0.68945 0.83198 0.6334 0.0
C774 C 0.71875 0.83668 0.61999 0.0
C775 C 0.70892 0.82479 0.61427 0.0
C776 C 0.71404 0.84601 0.63225 0.0
C777 C 0.68584 0.88764 0.70036 0.0
C778 C 0.711 0.89772 0.70925 0.0
C779 C 0.68905 0.91492 0.70703 0.0
C780 C 0.67969 0.90255 0.70183 0.0
C781 C 0.7048 0.91263 0.71102 0.0
C782 C 0.70166 0.88539 0.70395 0.0
C783 C 0.6754 0.87451 0.69597 0.0
O784 O 0.65033 0.84521 0.66715 0.0
O785 O 0.66563 0.82992 0.68057 0.0
O786 O 0.68106 0.86051 0.69761 0.0
O787 O 0.66721 0.87623 0.68312 0.0
H788 H 0.6461 0.84352 0.70359 0.0
H789 H 0.62613 0.83468 0.72197 0.0
H790 H 0.60843 0.80217 0.68796 0.0
H791 H 0.62836 0.81118 0.66961 0.0
H792 H 0.68621 0.81369 0.61689 0.0
H793 H 0.67813 0.82999 0.63859 0.0
H794 H 0.73032 0.83851 0.61531 0.0
H795 H 0.72195 0.85491 0.63658 0.0
H796 H 0.72298 0.89541 0.71242 0.0
H797 H 0.68391 0.92625 0.708 0.0
H798 H 0.66753 0.90459 0.69915 0.0
H799 H 0.7068 0.87404 0.70299 0.0
C800 C 0.63581 0.8281 0.3463 0.0
C801 C 0.63628 0.82506 0.3303 0.0
C802 C 0.60932 0.81565 0.33077 0.0
C803 C 0.62319 0.81887 0.32263 0.0
C804 C 0.60872 0.81936 0.34664 0.0
C805 C 0.62184 0.82546 0.35432 0.0
U806 U 0.67279 0.85332 0.35362 0.0
O807 O 0.68293 0.86092 0.37602 0.0
O808 O 0.69623 0.84601 0.36056 0.0
C809 C 0.69529 0.85224 0.37441 0.0
C810 C 0.64997 0.83274 0.35513 0.0
C811 C 0.69933 0.84208 0.38776 0.0
C812 C 0.70606 0.81679 0.39837 0.0
C813 C 0.70134 0.82606 0.38587 0.0
C814 C 0.70642 0.83925 0.41507 0.0
C815 C 0.70877 0.82325 0.41315 0.0
C816 C 0.70182 0.84856 0.40251 0.0
C817 C 0.68366 0.88647 0.32472 0.0
C818 C 0.69183 0.91369 0.32364 0.0
C819 C 0.70155 0.89568 0.30473 0.0
C820 C 0.69299 0.88367 0.31171 0.0
C821 C 0.70092 0.9109 0.31044 0.0
C822 C 0.68324 0.90163 0.33066 0.0
C823 C 0.67345 0.87385 0.33092 0.0
O824 O 0.66342 0.83009 0.34851 0.0
O825 O 0.6496 0.84616 0.36228 0.0
O826 O 0.66643 0.87623 0.34422 0.0
O827 O 0.67866 0.85965 0.3296 0.0
H828 H 0.64689 0.82699 0.32379 0.0
H829 H 0.62418 0.81602 0.31046 0.0
H830 H 0.59819 0.8173 0.35323 0.0
H831 H 0.62119 0.82773 0.36666 0.0
H832 H 0.70799 0.80461 0.3963 0.0
H833 H 0.69954 0.82066 0.37467 0.0
H834 H 0.70817 0.84462 0.42629 0.0
H835 H 0.70034 0.86087 0.40428 0.0
H836 H 0.69098 0.92529 0.32827 0.0
H837 H 0.70863 0.89303 0.29475 0.0
H838 H 0.69346 0.87219 0.3067 0.0
H839 H 0.67601 0.90427 0.34053 0.0
C840 C 0.63952 0.18071 0.3328 0.0
C841 C 0.6381 0.19518 0.33998 0.0
C842 C 0.61679 0.20186 0.32237 0.0
C843 C 0.62687 0.20566 0.3348 0.0
C844 C 0.61787 0.1871 0.31562 0.0
C845 C 0.62918 0.17664 0.32077 0.0
U846 U 0.67306 0.17006 0.35979 0.0
O847 O 0.68112 0.14742 0.36834 0.0
O848 O 0.69676 0.16229 0.35451 0.0
C849 C 0.6947 0.14881 0.36144 0.0
C850 C 0.65222 0.17021 0.33727 0.0
C851 C 0.70021 0.13517 0.35293 0.0
C852 C 0.69667 0.11437 0.33416 0.0
C853 C 0.69089 0.12733 0.34194 0.0
C854 C 0.72108 0.11708 0.34822 0.0
C855 C 0.71185 0.10903 0.33727 0.0
C856 C 0.71531 0.12996 0.35595 0.0
C857 C 0.68099 0.19775 0.39442 0.0
C858 C 0.70499 0.2012 0.40934 0.0
C859 C 0.68151 0.21411 0.41731 0.0
C860 C 0.67337 0.20737 0.4049 0.0
C861 C 0.6975 0.21138 0.41952 0.0
C862 C 0.6968 0.19446 0.39687 0.0
C863 C 0.67237 0.19225 0.38059 0.0
O864 O 0.66633 0.17615 0.33587 0.0
O865 O 0.65027 0.16247 0.35032 0.0
O866 O 0.66454 0.17912 0.38204 0.0
O867 O 0.67965 0.19358 0.36726 0.0
H868 H 0.64592 0.19851 0.34934 0.0
H869 H 0.62623 0.21685 0.34037 0.0
H870 H 0.6104 0.18387 0.30595 0.0
H871 H 0.63011 0.16553 0.31508 0.0
H872 H 0.68921 0.10843 0.32586 0.0
H873 H 0.6792 0.13122 0.33941 0.0
H874 H 0.73292 0.1136 0.35068 0.0
H875 H 0.72273 0.13591 0.36431 0.0
H876 H 0.71731 0.19894 0.41064 0.0
H877 H 0.67532 0.22168 0.42504 0.0
H878 H 0.66116 0.21001 0.40324 0.0
H879 H 0.70291 0.18704 0.38891 0.0
C880 C 0.3258 0.1414 0.3453 0.0
C881 C 0.33498 0.13673 0.33279 0.0
C882 C 0.31562 0.11683 0.326 0.0
C883 C 0.32993 0.12454 0.32322 0.0
C884 C 0.3066 0.12152 0.33869 0.0
C885 C 0.31166 0.13367 0.34823 0.0
U886 U 0.35369 0.17484 0.35581 0.0
O887 O 0.3486 0.19862 0.36297 0.0
O888 O 0.36115 0.1832 0.37892 0.0
C889 C 0.35396 0.19646 0.37716 0.0
C890 C 0.33056 0.15454 0.35515 0.0
C891 C 0.34357 0.201 0.38999 0.0
C892 C 0.31815 0.20856 0.39956 0.0
C893 C 0.32763 0.20366 0.38744 0.0
C894 C 0.34022 0.20789 0.41717 0.0
C895 C 0.3243 0.2108 0.41461 0.0
C896 C 0.34974 0.2031 0.40499 0.0
C897 C 0.38977 0.18126 0.32934 0.0
C898 C 0.40597 0.20452 0.32678 0.0
C899 C 0.4121 0.18154 0.31215 0.0
C900 C 0.39947 0.1737 0.31888 0.0
C901 C 0.41532 0.19714 0.31574 0.0
C902 C 0.39325 0.19665 0.3335 0.0
C903 C 0.37553 0.17316 0.33465 0.0
O904 O 0.34328 0.15262 0.36348 0.0
O905 O 0.32992 0.16826 0.34847 0.0
O906 O 0.36242 0.1806 0.33255 0.0
O907 O 0.37631 0.16589 0.34809 0.0
H908 H 0.34595 0.14258 0.33037 0.0
H909 H 0.33724 0.12116 0.31365 0.0
H910 H 0.29541 0.11607 0.34103 0.0
H911 H 0.30439 0.13719 0.35779 0.0
H912 H 0.30604 0.21092 0.39701 0.0
H913 H 0.32247 0.20214 0.37603 0.0
H914 H 0.34536 0.20925 0.4286 0.0
H915 H 0.36198 0.2011 0.40727 0.0
H916 H 0.40808 0.21657 0.32972 0.0
H917 H 0.41919 0.17546 0.30386 0.0
H918 H 0.39698 0.16182 0.31554 0.0
H919 H 0.38586 0.2027 0.34154 0.0
C920 C 0.34592 0.88991 0.3303 0.0
C921 C 0.3319 0.89178 0.3383 0.0
C922 C 0.32494 0.91326 0.32113 0.0
C923 C 0.32151 0.90335 0.33377 0.0
C924 C 0.33932 0.91172 0.31359 0.0
C925 C 0.34969 0.90012 0.31812 0.0
U926 U 0.35715 0.85423 0.35446 0.0
O927 O 0.36422 0.8312 0.34672 0.0
O928 O 0.38044 0.84539 0.36063 0.0
C929 C 0.37846 0.83278 0.35228 0.0
C930 C 0.35617 0.87677 0.33378 0.0
C931 C 0.39135 0.82868 0.34173 0.0
C932 C 0.40065 0.82019 0.31655 0.0
C933 C 0.3886 0.82541 0.32597 0.0
C934 C 0.41857 0.82184 0.3383 0.0
C935 C 0.41578 0.81817 0.32261 0.0
C936 C 0.40648 0.82697 0.34775 0.0
C937 C 0.332 0.84192 0.38929 0.0
C938 C 0.33285 0.81636 0.40129 0.0
C939 C 0.31573 0.83581 0.41159 0.0
C940 C 0.32098 0.84636 0.40029 0.0
C941 C 0.32137 0.82057 0.41204 0.0
C942 C 0.33813 0.82694 0.39003 0.0
C943 C 0.33617 0.85267 0.37656 0.0
O944 O 0.36436 0.87766 0.34671 0.0
O945 O 0.34982 0.86299 0.33159 0.0
O946 O 0.33384 0.84725 0.3625 0.0
O947 O 0.34948 0.86026 0.37805 0.0
H948 H 0.32882 0.88402 0.34777 0.0
H949 H 0.31062 0.90433 0.33995 0.0
H950 H 0.34226 0.91901 0.30373 0.0
H951 H 0.36045 0.89882 0.31178 0.0
H952 H 0.39792 0.81726 0.30462 0.0
H953 H 0.37707 0.82654 0.32094 0.0
H954 H 0.43009 0.82067 0.34334 0.0
H955 H 0.40892 0.82937 0.35987 0.0
H956 H 0.33759 0.80479 0.40143 0.0
H957 H 0.30678 0.83939 0.41955 0.0
H958 H 0.31608 0.85786 0.39987 0.0
H959 H 0.34669 0.82332 0.38166 0.0
C960 C 0.68069 0.63521 0.19851 0.0
C961 C 0.69638 0.63279 0.19479 0.0
C962 C 0.69705 0.61035 0.21221 0.0
C963 C 0.70449 0.62042 0.20157 0.0
C964 C 0.68116 0.61251 0.21534 0.0
C965 C 0.67309 0.6248 0.20856 0.0
U966 U 0.67315 0.67047 0.17129 0.0
O967 O 0.65044 0.68004 0.16424 0.0
O968 O 0.66689 0.69411 0.17795 0.0
C969 C 0.65276 0.69291 0.17208 0.0
C970 C 0.67227 0.64904 0.19314 0.0
C971 C 0.64012 0.69741 0.18257 0.0
C972 C 0.62792 0.69657 0.20796 0.0
C973 C 0.63914 0.69122 0.19764 0.0
C974 C 0.61808 0.7139 0.18807 0.0
C975 C 0.61742 0.70817 0.20339 0.0
C976 C 0.62937 0.70859 0.17778 0.0
C977 C 0.69875 0.6806 0.13646 0.0
C978 C 0.69609 0.70501 0.12253 0.0
C979 C 0.71652 0.68734 0.1155 0.0
C980 C 0.71139 0.67693 0.12699 0.0
C981 C 0.70913 0.70166 0.11334 0.0
C982 C 0.69096 0.69459 0.13398 0.0
C983 C 0.69442 0.67025 0.14946 0.0
O984 O 0.67972 0.66238 0.19462 0.0
O985 O 0.66448 0.64784 0.18 0.0
O986 O 0.68088 0.663 0.14818 0.0
O987 O 0.69686 0.67608 0.16334 0.0
H988 H 0.70247 0.64072 0.18706 0.0
H989 H 0.71674 0.61915 0.199 0.0
H990 H 0.67501 0.60484 0.22329 0.0
H991 H 0.66098 0.62646 0.21155 0.0
H992 H 0.6276 0.69178 0.21961 0.0
H993 H 0.64728 0.6825 0.20153 0.0
H994 H 0.61028 0.72293 0.18423 0.0
H995 H 0.62996 0.71351 0.16619 0.0
H996 H 0.69001 0.71584 0.12105 0.0
H997 H 0.72667 0.68445 0.10876 0.0
H998 H 0.71757 0.66619 0.12878 0.0
H999 H 0.68116 0.69761 0.14117 0.0
C1000 C 0.32485 0.68122 0.13975 0.0
C1001 C 0.33424 0.69341 0.13406 0.0
C1002 C 0.31394 0.70045 0.11542 0.0
C1003 C 0.32885 0.70292 0.12198 0.0
C1004 C 0.30466 0.68811 0.12115 0.0
C1005 C 0.31008 0.67861 0.13317 0.0
U1006 U 0.35197 0.67298 0.17417 0.0
O1007 O 0.34649 0.66429 0.19754 0.0
O1008 O 0.36168 0.65082 0.18246 0.0
C1009 C 0.35382 0.65118 0.1955 0.0
C1010 C 0.33001 0.67144 0.15281 0.0
C1011 C 0.34529 0.63678 0.19994 0.0
C1012 C 0.32165 0.62332 0.2084 0.0
C1013 C 0.32915 0.63667 0.20267 0.0
C1014 C 0.34611 0.60973 0.20811 0.0
C1015 C 0.33007 0.60973 0.21146 0.0
C1016 C 0.35363 0.62311 0.20248 0.0
C1017 C 0.38438 0.70331 0.18403 0.0
C1018 C 0.41168 0.70385 0.19217 0.0
C1019 C 0.3944 0.72404 0.20054 0.0
C1020 C 0.3821 0.71699 0.19241 0.0
C1021 C 0.40941 0.71769 0.20038 0.0
C1022 C 0.39931 0.69675 0.18404 0.0
C1023 C 0.37134 0.69688 0.17454 0.0
O1024 O 0.3437 0.66498 0.1513 0.0
O1025 O 0.32785 0.67728 0.16666 0.0
O1026 O 0.35749 0.69698 0.18097 0.0
O1027 O 0.37389 0.68419 0.16658 0.0
H1028 H 0.34568 0.69564 0.13905 0.0
H1029 H 0.33637 0.7122 0.11778 0.0
H1030 H 0.29302 0.68602 0.11662 0.0
H1031 H 0.30263 0.66932 0.13749 0.0
H1032 H 0.30934 0.62388 0.211 0.0
H1033 H 0.32237 0.64702 0.2008 0.0
H1034 H 0.35295 0.59943 0.21006 0.0
H1035 H 0.36607 0.62288 0.20044 0.0
H1036 H 0.4231 0.69871 0.19168 0.0
H1037 H 0.39212 0.73451 0.20696 0.0
H1038 H 0.37078 0.7224 0.19253 0.0
H1039 H 0.40153 0.6863 0.17757 0.0
C1040 C 0.3292 0.34576 0.14172 0.0
C1041 C 0.33921 0.33461 0.1357 0.0
C1042 C 0.31943 0.32691 0.11658 0.0
C1043 C 0.33439 0.32529 0.12322 0.0
C1044 C 0.30954 0.33825 0.12264 0.0
C1045 C 0.31439 0.34756 0.13505 0.0
U1046 U 0.3546 0.35415 0.17768 0.0
O1047 O 0.36315 0.37645 0.18703 0.0
O1048 O 0.34746 0.36171 0.20089 0.0
C1049 C 0.35474 0.37517 0.19969 0.0
C1050 C 0.33367 0.35525 0.15526 0.0
C1051 C 0.34545 0.38877 0.20383 0.0
C1052 C 0.32457 0.40687 0.19845 0.0
C1053 C 0.3338 0.39443 0.19388 0.0
C1054 C 0.33868 0.40822 0.22286 0.0
C1055 C 0.32679 0.41384 0.21308 0.0
C1056 C 0.3479 0.39583 0.21826 0.0
C1057 C 0.38734 0.32498 0.18834 0.0
C1058 C 0.41456 0.32459 0.19682 0.0
C1059 C 0.39698 0.30375 0.20434 0.0
C1060 C 0.38482 0.31094 0.19634 0.0
C1061 C 0.41208 0.31031 0.20448 0.0
C1062 C 0.40234 0.33182 0.18878 0.0
C1063 C 0.3746 0.33132 0.17852 0.0
O1064 O 0.33102 0.34879 0.16885 0.0
O1065 O 0.34727 0.36244 0.15455 0.0
O1066 O 0.37724 0.34446 0.17109 0.0
O1067 O 0.36046 0.33024 0.18424 0.0
H1068 H 0.35069 0.33301 0.14073 0.0
H1069 H 0.34238 0.31681 0.11879 0.0
H1070 H 0.29785 0.33965 0.11809 0.0
H1071 H 0.30646 0.35604 0.13962 0.0
H1072 H 0.31565 0.41097 0.19055 0.0
H1073 H 0.33173 0.3891 0.18268 0.0
H1074 H 0.34058 0.41306 0.2343 0.0
H1075 H 0.35678 0.39156 0.22614 0.0
H1076 H 0.42606 0.32992 0.19661 0.0
H1077 H 0.39454 0.29292 0.21034 0.0
H1078 H 0.37346 0.30529 0.19612 0.0
H1079 H 0.40476 0.34256 0.18261 0.0
C1080 C 0.64211 0.32714 0.18551 0.0
C1081 C 0.64015 0.33451 0.19982 0.0
C1082 C 0.61883 0.31668 0.20627 0.0
C1083 C 0.62865 0.32931 0.21011 0.0
C1084 C 0.62042 0.30973 0.19163 0.0
C1085 C 0.63202 0.3149 0.18136 0.0
U1086 U 0.67594 0.3543 0.1762 0.0
O1087 O 0.69999 0.34943 0.16935 0.0
O1088 O 0.68505 0.36318 0.15393 0.0
C1089 C 0.69855 0.35636 0.1558 0.0
C1090 C 0.65514 0.33166 0.17532 0.0
C1091 C 0.70443 0.3477 0.14241 0.0
C1092 C 0.70498 0.32462 0.12631 0.0
C1093 C 0.6983 0.33309 0.13837 0.0
C1094 C 0.72371 0.34546 0.12205 0.0
C1095 C 0.71795 0.33061 0.11818 0.0
C1096 C 0.71701 0.35389 0.13403 0.0
C1097 C 0.68272 0.38829 0.2047 0.0
C1098 C 0.7059 0.40482 0.20605 0.0
C1099 C 0.68443 0.40907 0.22357 0.0
C1100 C 0.67614 0.3968 0.21674 0.0
C1101 C 0.69952 0.41308 0.21851 0.0
C1102 C 0.69757 0.39248 0.19922 0.0
C1103 C 0.67417 0.37463 0.19874 0.0
O1104 O 0.65351 0.34477 0.16765 0.0
O1105 O 0.66904 0.33026 0.18163 0.0
O1106 O 0.68136 0.36134 0.20014 0.0
O1107 O 0.66705 0.3763 0.18529 0.0
H1108 H 0.64779 0.34404 0.2032 0.0
H1109 H 0.6276 0.33502 0.22122 0.0
H1110 H 0.61314 0.2999 0.18839 0.0
H1111 H 0.63337 0.30907 0.17035 0.0
H1112 H 0.70034 0.31318 0.12372 0.0
H1113 H 0.68859 0.3281 0.14475 0.0
H1114 H 0.73352 0.35052 0.11589 0.0
H1115 H 0.72188 0.36517 0.13697 0.0
H1116 H 0.71753 0.40752 0.20197 0.0
H1117 H 0.67908 0.41532 0.23297 0.0
H1118 H 0.66467 0.39375 0.22108 0.0
H1119 H 0.70285 0.386 0.18995 0.0
C1120 C 0.63906 0.33116 0.84365 0.0
C1121 C 0.64189 0.32694 0.82819 0.0
C1122 C 0.6144 0.32031 0.82432 0.0
C1123 C 0.62973 0.32156 0.81867 0.0
C1124 C 0.61155 0.32483 0.83971 0.0
C1125 C 0.62375 0.33013 0.84926 0.0
U1126 U 0.67282 0.35826 0.85638 0.0
O1127 O 0.68038 0.36506 0.87993 0.0
O1128 O 0.69629 0.35258 0.8648 0.0
C1129 C 0.69378 0.35797 0.87879 0.0
C1130 C 0.65197 0.33577 0.85429 0.0
C1131 C 0.69772 0.34729 0.89158 0.0
C1132 C 0.69522 0.32208 0.90413 0.0
C1133 C 0.69042 0.33268 0.89276 0.0
C1134 C 0.71427 0.34079 0.91363 0.0
C1135 C 0.7074 0.32591 0.91453 0.0
C1136 C 0.70949 0.35137 0.90222 0.0
C1137 C 0.68238 0.39441 0.83154 0.0
C1138 C 0.70704 0.40866 0.83161 0.0
C1139 C 0.68501 0.41861 0.81713 0.0
C1140 C 0.67594 0.40591 0.82201 0.0
C1141 C 0.70075 0.42003 0.82166 0.0
C1142 C 0.69793 0.39597 0.83652 0.0
C1143 C 0.67295 0.38052 0.8354 0.0
O1144 O 0.66619 0.33481 0.84882 0.0
O1145 O 0.64985 0.3483 0.86259 0.0
O1146 O 0.66481 0.38113 0.84825 0.0
O1147 O 0.67986 0.36717 0.83351 0.0
H1148 H 0.65355 0.3275 0.82347 0.0
H1149 H 0.63247 0.31795 0.80699 0.0
H1150 H 0.59989 0.32423 0.84441 0.0
H1151 H 0.62124 0.33324 0.86115 0.0
H1152 H 0.68956 0.31079 0.90463 0.0
H1153 H 0.68126 0.32935 0.88467 0.0
H1154 H 0.72377 0.34405 0.92134 0.0
H1155 H 0.71527 0.36259 0.90144 0.0
H1156 H 0.71915 0.40927 0.83519 0.0
H1157 H 0.67971 0.42725 0.80969 0.0
H1158 H 0.66394 0.40492 0.81809 0.0
H1159 H 0.70312 0.3872 0.84389 0.0
C1160 C 0.63943 0.67961 0.82423 0.0
C1161 C 0.6253 0.68124 0.83223 0.0
C1162 C 0.61431 0.69589 0.81049 0.0
C1163 C 0.61288 0.68932 0.82543 0.0
C1164 C 0.62857 0.69443 0.80269 0.0
C1165 C 0.6409 0.68634 0.80943 0.0
U1166 U 0.67292 0.67141 0.85344 0.0
O1167 O 0.68159 0.64912 0.86235 0.0
O1168 O 0.69685 0.66423 0.84842 0.0
C1169 C 0.695 0.65063 0.85514 0.0
C1170 C 0.65252 0.67036 0.83053 0.0
C1171 C 0.69983 0.63728 0.8458 0.0
C1172 C 0.69557 0.61928 0.82449 0.0
C1173 C 0.69037 0.63143 0.83378 0.0
C1174 C 0.71967 0.61861 0.83926 0.0
C1175 C 0.71037 0.6128 0.82701 0.0
C1176 C 0.71444 0.63071 0.84854 0.0
C1177 C 0.68026 0.70066 0.88689 0.0
C1178 C 0.70218 0.7008 0.90504 0.0
C1179 C 0.68449 0.72243 0.90422 0.0
C1180 C 0.67572 0.71503 0.89266 0.0
C1181 C 0.698 0.71557 0.91032 0.0
C1182 C 0.69341 0.69341 0.89331 0.0
C1183 C 0.67165 0.69423 0.87349 0.0
O1184 O 0.66646 0.67674 0.82926 0.0
O1185 O 0.65044 0.66309 0.84385 0.0
O1186 O 0.6644 0.68084 0.87552 0.0
O1187 O 0.67878 0.69536 0.86008 0.0
H1188 H 0.62373 0.67611 0.84363 0.0
H1189 H 0.60205 0.69012 0.83174 0.0
H1190 H 0.63026 0.69958 0.79132 0.0
H1191 H 0.6516 0.68523 0.80296 0.0
H1192 H 0.68801 0.61501 0.8153 0.0
H1193 H 0.67905 0.63639 0.83146 0.0
H1194 H 0.73122 0.61415 0.8414 0.0
H1195 H 0.72196 0.63515 0.8577 0.0
H1196 H 0.7126 0.69531 0.90947 0.0
H1197 H 0.68093 0.73374 0.90814 0.0
H1198 H 0.66562 0.7208 0.88787 0.0
H1199 H 0.69712 0.68232 0.88894 0.0
C1200 C 0.32607 0.63901 0.84675 0.0
C1201 C 0.33406 0.63723 0.83273 0.0
C1202 C 0.31693 0.61555 0.82569 0.0
C1203 C 0.32952 0.62562 0.8223 0.0
C1204 C 0.30943 0.61693 0.84009 0.0
C1205 C 0.31393 0.62862 0.8505 0.0
U1206 U 0.35065 0.67474 0.85602 0.0
O1207 O 0.34354 0.6984 0.86176 0.0
O1208 O 0.35798 0.68527 0.87823 0.0
C1209 C 0.34998 0.69795 0.87565 0.0
C1210 C 0.32955 0.65237 0.85684 0.0
C1211 C 0.34045 0.70406 0.88848 0.0
C1212 C 0.33037 0.70292 0.9149 0.0
C1213 C 0.33849 0.69609 0.90265 0.0
C1214 C 0.32587 0.72559 0.89889 0.0
C1215 C 0.32415 0.71786 0.91323 0.0
C1216 C 0.33396 0.71881 0.88674 0.0
C1217 C 0.38458 0.68429 0.82761 0.0
C1218 C 0.41187 0.69269 0.82745 0.0
C1219 C 0.39466 0.70033 0.80649 0.0
C1220 C 0.38234 0.69231 0.81355 0.0
C1221 C 0.40965 0.70043 0.81319 0.0
C1222 C 0.39948 0.68464 0.83456 0.0
C1223 C 0.37164 0.67457 0.83392 0.0
O1224 O 0.34273 0.65185 0.86471 0.0
O1225 O 0.32718 0.66594 0.85029 0.0
O1226 O 0.35752 0.68002 0.83202 0.0
O1227 O 0.37372 0.66787 0.84753 0.0
H1228 H 0.34348 0.64513 0.82965 0.0
H1229 H 0.33565 0.62475 0.81139 0.0
H1230 H 0.29961 0.60946 0.84299 0.0
H1231 H 0.30761 0.62986 0.86126 0.0
H1232 H 0.32933 0.69667 0.92579 0.0
H1233 H 0.34343 0.68472 0.9044 0.0
H1234 H 0.32097 0.73696 0.89704 0.0
H1235 H 0.33533 0.72525 0.87598 0.0
H1236 H 0.42329 0.69245 0.83287 0.0
H1237 H 0.39244 0.70639 0.79566 0.0
H1238 H 0.37106 0.69216 0.8078 0.0
H1239 H 0.40168 0.67843 0.84529 0.0
C1240 C 0.34649 0.38756 0.82832 0.0
C1241 C 0.33042 0.38524 0.82584 0.0
C1242 C 0.32755 0.41228 0.81785 0.0
C1243 C 0.32111 0.3974 0.82059 0.0
C1244 C 0.34362 0.41461 0.82059 0.0
C1245 C 0.35297 0.40237 0.82572 0.0
U1246 U 0.35495 0.35294 0.85477 0.0
O1247 O 0.36274 0.32944 0.84916 0.0
O1248 O 0.37689 0.34415 0.86465 0.0
C1249 C 0.37576 0.33093 0.85716 0.0
C1250 C 0.35662 0.37461 0.83326 0.0
C1251 C 0.38993 0.32542 0.84948 0.0
C1252 C 0.41193 0.32891 0.832 0.0
C1253 C 0.39863 0.33479 0.83923 0.0
C1254 C 0.40785 0.30434 0.84519 0.0
C1255 C 0.41671 0.31358 0.83491 0.0
C1256 C 0.39466 0.3102 0.85239 0.0
C1257 C 0.32393 0.3437 0.8862 0.0
C1258 C 0.32521 0.32408 0.90663 0.0
C1259 C 0.30063 0.33614 0.90032 0.0
C1260 C 0.30798 0.34523 0.88901 0.0
C1261 C 0.30908 0.3253 0.90912 0.0
C1262 C 0.33259 0.33317 0.89516 0.0
C1263 C 0.33091 0.35299 0.87354 0.0
O1264 O 0.36339 0.376 0.84694 0.0
O1265 O 0.35107 0.36056 0.8307 0.0
O1266 O 0.33058 0.34654 0.85977 0.0
O1267 O 0.34411 0.3603 0.87659 0.0
H1268 H 0.32503 0.37397 0.82776 0.0
H1269 H 0.30888 0.39499 0.81837 0.0
H1270 H 0.34899 0.42592 0.81886 0.0
H1271 H 0.36532 0.40447 0.8276 0.0
H1272 H 0.41849 0.3364 0.82423 0.0
H1273 H 0.39513 0.34658 0.8368 0.0
H1274 H 0.4109 0.29239 0.84748 0.0
H1275 H 0.38804 0.30276 0.86017 0.0
H1276 H 0.33199 0.31576 0.91316 0.0
H1277 H 0.28824 0.33749 0.90209 0.0
H1278 H 0.30112 0.35333 0.88226 0.0
H1279 H 0.34494 0.33181 0.89312 0.0
H1280 H 0.2706 0.2898 0.99619 0.0
H1281 H 0.23715 0.25227 0.99981 0.0
H1282 H 0.26571 0.2567 0.95926 0.0
H1283 H 0.24834 0.29122 0.01379 0.0
H1284 H 0.23472 0.27563 0.01548 0.0
H1285 H 0.27079 0.29294 0.03079 0.0
H1286 H 0.2701 0.26346 0.07131 0.0
H1287 H 0.24053 0.25271 0.03236 0.0
C1288 C 0.26565 0.27909 0.99169 0.0
C1289 C 0.26973 0.27411 0.97673 0.0
C1290 C 0.25404 0.27112 1.00025 0.0
C1291 C 0.24668 0.25795 0.99372 0.0
C1292 C 0.25093 0.25266 0.97896 0.0
C1293 C 0.26274 0.26054 0.97083 0.0
C1294 C 0.24741 0.27836 0.01472 0.0
C1295 C 0.25523 0.27311 0.02964 0.0
C1296 C 0.2667 0.28258 0.03677 0.0
C1297 C 0.2722 0.27925 0.05187 0.0
C1298 C 0.26654 0.26585 0.05944 0.0
C1299 C 0.25526 0.25616 0.05249 0.0
C1300 C 0.24964 0.25984 0.03757 0.0
H1301 H 0.7676 0.23662 0.03282 0.0
H1302 H 0.73562 0.27449 0.03389 0.0
H1303 H 0.7637 0.26416 0.07404 0.0
H1304 H 0.74443 0.23673 0.01608 0.0
H1305 H 0.73117 0.25229 0.01656 0.0
H1306 H 0.76867 0.2386 1.00043 0.0
H1307 H 0.76422 0.26814 0.96034 0.0
H1308 H 0.73413 0.27443 0.99939 0.0
C1309 C 0.76284 0.24647 0.03883 0.0
C1310 C 0.76754 0.24962 0.05421 0.0
C1311 C 0.75128 0.25534 0.03145 0.0
C1312 C 0.74477 0.26787 0.03942 0.0
C1313 C 0.7494 0.27132 0.05474 0.0
C1314 C 0.76084 0.26218 0.06193 0.0
C1315 C 0.74382 0.2496 0.01654 0.0
C1316 C 0.75111 0.25627 1.00195 0.0
C1317 C 0.76346 0.24851 0.99473 0.0
C1318 C 0.76808 0.25262 0.97961 0.0
C1319 C 0.76068 0.26495 0.97202 0.0
C1320 C 0.74847 0.2729 0.97901 0.0
C1321 C 0.74395 0.26874 0.99414 0.0
H1322 H 0.7402 0.75249 0.02917 0.0
H1323 H 0.77195 0.79163 0.03093 0.0
H1324 H 0.76674 0.76172 0.07065 0.0
H1325 H 0.73637 0.7759 0.01291 0.0
H1326 H 0.75025 0.79126 0.01278 0.0
H1327 H 0.73848 0.75408 0.9955 0.0
H1328 H 0.76715 0.76251 0.95557 0.0
H1329 H 0.77346 0.79044 0.99629 0.0
C1330 C 0.7493 0.759 0.03514 0.0
C1331 C 0.75289 0.75536 0.05069 0.0
C1332 C 0.75622 0.77204 0.02782 0.0
C1333 C 0.76724 0.78111 0.03613 0.0
C1334 C 0.77089 0.77757 0.05169 0.0
C1335 C 0.76399 0.76446 0.05863 0.0
C1336 C 0.74914 0.77838 0.01295 0.0
C1337 C 0.75606 0.77213 0.99813 0.0
C1338 C 0.74835 0.75995 0.99016 0.0
C1339 C 0.75212 0.75662 0.97467 0.0
C1340 C 0.7643 0.76494 0.96756 0.0
C1341 C 0.77198 0.77723 0.97514 0.0
C1342 C 0.76812 0.7805 0.99061 0.0
H1343 H 0.26495 0.73325 0.03002 0.0
H1344 H 0.23307 0.77124 0.03074 0.0
H1345 H 0.26146 0.76152 0.0708 0.0
H1346 H 0.24216 0.73341 0.0129 0.0
H1347 H 0.22872 0.74886 0.01337 0.0
H1348 H 0.266 0.73533 0.99703 0.0
H1349 H 0.2632 0.76723 0.95862 0.0
H1350 H 0.23267 0.77213 0.99759 0.0
C1351 C 0.26023 0.74317 0.03593 0.0
C1352 C 0.26503 0.74654 0.05123 0.0
C1353 C 0.24867 0.75198 0.02848 0.0
C1354 C 0.24224 0.76466 0.03629 0.0
C1355 C 0.24707 0.76838 0.05149 0.0
C1356 C 0.25849 0.75929 0.05876 0.0
C1357 C 0.24139 0.74626 0.01348 0.0
C1358 C 0.24883 0.75325 0.99913 0.0
C1359 C 0.2611 0.7456 0.99172 0.0
C1360 C 0.26653 0.75074 0.97716 0.0
C1361 C 0.25968 0.76378 0.97021 0.0
C1362 C 0.24745 0.7716 0.97741 0.0
C1363 C 0.24227 0.76638 0.99202 0.0
H1364 H 0.03159 0.23564 0.25581 0.0
H1365 H 0.02921 0.26771 0.29378 0.0
H1366 H 0.07159 0.2637 0.26777 0.0
H1367 H 0.01222 0.23202 0.27618 0.0
H1368 H 1.01202 0.24443 0.29255 0.0
H1369 H 0.9985 0.23912 0.25185 0.0
H1370 H 0.9602 0.27002 0.25739 0.0
H1371 H 0.99536 0.26675 0.29311 0.0
C1372 C 0.03688 0.24484 0.26266 0.0
C1373 C 0.05251 0.24919 0.26009 0.0
C1374 C 0.02841 0.25143 0.27488 0.0
C1375 C 0.03561 0.26286 0.2842 0.0
C1376 C 0.05122 0.26744 0.28171 0.0
C1377 C 0.05944 0.26061 0.26953 0.0
C1378 C 0.01288 0.24442 0.27966 0.0
C1379 C 0.99901 0.25277 0.27281 0.0
C1380 C 0.99276 0.24805 0.25841 0.0
C1381 C 0.9787 0.2542 0.25286 0.0
C1382 C 0.97111 0.26541 0.26167 0.0
C1383 C 0.97675 0.26988 0.27637 0.0
C1384 C 0.991 0.26377 0.28167 0.0
H1385 H 0.7911 0.03458 0.26068 0.0
H1386 H 0.75348 0.03107 0.29338 0.0
H1387 H 0.75842 0.07162 0.2645 0.0
H1388 H 0.79273 0.01739 0.28317 0.0
H1389 H 0.77738 0.01605 0.2968 0.0
H1390 H 0.79352 1.00016 0.26094 0.0
H1391 H 0.76551 0.95862 0.265 0.0
H1392 H 0.75472 0.99853 0.2923 0.0
C1393 C 0.7804 0.03911 0.26536 0.0
C1394 C 0.77554 0.05403 0.26096 0.0
C1395 C 0.77241 0.03065 0.27697 0.0
C1396 C 0.75922 0.03717 0.28393 0.0
C1397 C 0.75403 0.05196 0.27943 0.0
C1398 C 0.76205 0.06003 0.26768 0.0
C1399 C 0.77982 0.01642 0.28413 0.0
C1400 C 0.77439 1.00123 0.27702 0.0
C1401 C 0.7835 0.99402 0.26565 0.0
C1402 C 0.78029 0.97863 0.26108 0.0
C1403 C 0.76751 0.97074 0.26772 0.0
C1404 C 0.75813 0.97776 0.27891 0.0
C1405 C 0.76156 0.99312 0.28336 0.0
H1406 H 0.99589 0.73388 0.26997 0.0
H1407 H 0.9915 0.7689 0.23452 0.0
H1408 H 0.9539 0.7603 0.26619 0.0
H1409 H 1.00984 0.73251 0.24441 0.0
H1410 H 1.01022 0.74877 0.23176 0.0
H1411 H 0.02492 0.73301 0.26958 0.0
H1412 H 0.06791 0.75891 0.26589 0.0
H1413 H 0.03022 0.76797 0.23416 0.0
C1414 C 0.98939 0.74326 0.26476 0.0
C1415 C 0.97423 0.74634 0.26998 0.0
C1416 C 0.9958 0.75145 0.25207 0.0
C1417 C 0.98699 0.76315 0.2448 0.0
C1418 C 0.97178 0.76633 0.24979 0.0
C1419 C 0.96575 0.75814 0.2626 0.0
C1420 C 1.01026 0.74541 0.24425 0.0
C1421 C 0.02549 0.75065 0.25172 0.0
C1422 C 0.03175 0.74228 0.26435 0.0
C1423 C 0.04714 0.74511 0.26952 0.0
C1424 C 0.05599 0.75683 0.26217 0.0
C1425 C 0.05017 0.76505 0.24927 0.0
C1426 C 0.03471 0.76215 0.2444 0.0
H1427 H 0.23572 0.99407 0.25764 0.0
H1428 H 0.27294 0.9966 0.29144 0.0
H1429 H 0.26718 0.95612 0.26309 0.0
H1430 H 0.23398 1.01113 0.27968 0.0
H1431 H 0.2485 0.01126 0.29439 0.0
H1432 H 0.23582 0.02871 0.25725 0.0
H1433 H 0.26194 0.07051 0.26683 0.0
H1434 H 0.27088 0.02901 0.29309 0.0
C1435 C 0.24623 0.9893 0.2627 0.0
C1436 C 0.2507 0.97424 0.25872 0.0
C1437 C 0.25425 0.99755 0.27446 0.0
C1438 C 0.26724 0.99073 0.28181 0.0
C1439 C 0.27181 0.97569 0.27785 0.0
C1440 C 0.26375 0.96779 0.26604 0.0
C1441 C 0.24683 0.01164 0.28157 0.0
C1442 C 0.25304 0.02702 0.27548 0.0
C1443 C 0.24514 0.03473 0.26339 0.0
C1444 C 0.24839 0.05045 0.26001 0.0
C1445 C 0.26011 0.05817 0.26859 0.0
C1446 C 0.26838 0.05062 0.28052 0.0
C1447 C 0.26496 0.0349 0.28365 0.0
H1448 H 0.99636 0.76901 0.79531 0.0
H1449 H 0.99909 0.73783 0.75665 0.0
H1450 H 0.95851 0.7657 0.76244 0.0
H1451 H 0.01509 0.74835 0.79554 0.0
H1452 H 0.015 0.73422 0.78062 0.0
H1453 H 0.03347 0.76963 0.79508 0.0
H1454 H 0.06984 0.76871 0.76103 0.0
H1455 H 0.02957 0.73902 0.75583 0.0
C1456 C 0.99149 0.76455 0.78457 0.0
C1457 C 0.97638 0.76885 0.77989 0.0
C1458 C 0.99988 0.75352 0.7761 0.0
C1459 C 0.99302 0.74684 0.76278 0.0
C1460 C 0.97805 0.75117 0.75781 0.0
C1461 C 0.97011 0.76248 0.76618 0.0
C1462 C 0.01481 0.74693 0.7827 0.0
C1463 C 0.02939 0.75418 0.77577 0.0
C1464 C 0.03788 0.76556 0.7841 0.0
C1465 C 0.05267 0.77061 0.77903 0.0
C1466 C 0.05843 0.76491 0.76499 0.0
C1467 C 0.05023 0.75355 0.75656 0.0
C1468 C 0.0357 0.74819 0.762 0.0
H1469 H 0.2541 0.99778 0.78905 0.0
H1470 H 0.29307 0.99956 0.75782 0.0
H1471 H 0.2638 0.95876 0.76009 0.0
H1472 H 0.27777 0.0143 0.79413 0.0
H1473 H 0.29241 0.01662 0.77985 0.0
H1474 H 0.25593 0.03125 0.79462 0.0
H1475 H 0.25918 0.07212 0.76595 0.0
H1476 H 0.28715 0.03256 0.75581 0.0
C1477 C 0.26068 0.99268 0.77972 0.0
C1478 C 0.25716 0.97746 0.77495 0.0
C1479 C 0.27364 1.00077 0.77358 0.0
C1480 C 0.28276 0.99361 0.76219 0.0
C1481 C 0.27923 0.97847 0.75715 0.0
C1482 C 0.26627 0.97064 0.76345 0.0
C1483 C 0.27958 0.01539 0.78138 0.0
C1484 C 0.27198 0.03008 0.77554 0.0
C1485 C 0.26049 0.03724 0.78449 0.0
C1486 C 0.25567 0.05243 0.78109 0.0
C1487 C 0.26207 0.06011 0.76812 0.0
C1488 C 0.27334 0.05308 0.75882 0.0
C1489 C 0.2781 0.03794 0.76253 0.0
H1490 H 0.99786 0.28991 0.75204 0.0
H1491 H 0.99766 0.25899 0.7916 0.0
H1492 H 0.95823 0.26015 0.76059 0.0
H1493 H 0.01541 0.29451 0.77431 0.0
H1494 H 0.01509 0.28198 0.79078 0.0
H1495 H 0.03199 0.28909 0.75203 0.0
H1496 H 0.06924 0.25723 0.76005 0.0
H1497 H 0.0304 0.25795 0.79132 0.0
C1498 C 0.99228 0.28077 0.75878 0.0
C1499 C 0.97733 0.27538 0.75449 0.0
C1500 C 0.99985 0.27471 0.77204 0.0
C1501 C 0.99221 0.26324 0.78104 0.0
C1502 C 0.97707 0.25813 0.77709 0.0
C1503 C 0.96994 0.26402 0.76364 0.0
C1504 C 0.0149 0.28208 0.77786 0.0
C1505 C 0.02931 0.27407 0.77205 0.0
C1506 C 0.03696 0.27963 0.75866 0.0
C1507 C 0.05131 0.27345 0.75417 0.0
C1508 C 0.05783 0.26148 0.76308 0.0
C1509 C 0.05048 0.25579 0.77651 0.0
C1510 C 0.03609 0.26206 0.78085 0.0
H1511 H 0.7331 0.99772 0.76274 0.0
H1512 H 0.77145 0.99814 0.79513 0.0
H1513 H 0.76359 0.95871 0.76563 0.0
H1514 H 0.73228 0.01349 0.78604 0.0
H1515 H 0.74774 0.01329 0.79977 0.0
H1516 H 0.73297 0.03123 0.76351 0.0
H1517 H 0.7598 0.07284 0.772 0.0
H1518 H 0.7699 0.03109 0.79743 0.0
C1519 C 0.7435 0.99236 0.76738 0.0
C1520 C 0.74768 0.97752 0.7623 0.0
C1521 C 0.75202 0.99988 0.77922 0.0
C1522 C 0.76516 0.99258 0.78569 0.0
C1523 C 0.76959 0.97776 0.78069 0.0
C1524 C 0.76085 0.97048 0.76887 0.0
C1525 C 0.74522 0.01389 0.78708 0.0
C1526 C 0.75111 0.02933 0.78082 0.0
C1527 C 0.74262 0.03717 0.76921 0.0
C1528 C 0.74582 0.05289 0.76574 0.0
C1529 C 0.75799 0.06051 0.77379 0.0
C1530 C 0.76681 0.05284 0.78524 0.0
C1531 C 0.76348 0.0371 0.78839 0.0
H1532 H 0.25622 0.73476 0.49778 0.0
H1533 H 0.29283 0.76944 0.49649 0.0
H1534 H 0.26143 0.76438 0.45775 0.0
H1535 H 0.28064 0.73216 0.51341 0.0
H1536 H 0.29469 0.74744 0.51402 0.0
H1537 H 0.25812 0.73199 0.53045 0.0
H1538 H 0.2621 0.76116 0.57056 0.0
H1539 H 0.2909 0.77022 0.53077 0.0
C1540 C 0.26192 0.74446 0.492 0.0
C1541 C 0.2569 0.74902 0.47708 0.0
C1542 C 0.27478 0.75191 0.4992 0.0
C1543 C 0.28253 0.76412 0.49133 0.0
C1544 C 0.27786 0.76854 0.47628 0.0
C1545 C 0.26489 0.76113 0.46945 0.0
C1546 C 0.28192 0.74501 0.51376 0.0
C1547 C 0.27486 0.75084 0.52868 0.0
C1548 C 0.26304 0.74214 0.53612 0.0
C1549 C 0.25823 0.74591 0.55121 0.0
C1550 C 0.26512 0.75877 0.55862 0.0
C1551 C 0.27692 0.76766 0.55143 0.0
C1552 C 0.28157 0.76372 0.53632 0.0
H1553 H 0.75799 0.79104 0.52997 0.0
H1554 H 0.78963 0.75292 0.53331 0.0
H1555 H 0.76017 0.76352 0.57176 0.0
H1556 H 0.7826 0.79049 0.51481 0.0
H1557 H 0.79439 0.77376 0.51496 0.0
H1558 H 0.75887 0.79174 0.49864 0.0
H1559 H 0.7597 0.76263 0.45839 0.0
H1560 H 0.7885 0.75196 0.49799 0.0
C1561 C 0.76243 0.78118 0.53636 0.0
C1562 C 0.75722 0.77816 0.55158 0.0
C1563 C 0.77409 0.7721 0.52966 0.0
C1564 C 0.78021 0.75955 0.53815 0.0
C1565 C 0.77526 0.75646 0.55339 0.0
C1566 C 0.76363 0.76566 0.55986 0.0
C1567 C 0.78205 0.77759 0.51496 0.0
C1568 C 0.77408 0.77208 0.50022 0.0
C1569 C 0.76281 0.78136 0.49292 0.0
C1570 C 0.75738 0.77788 0.47787 0.0
C1571 C 0.76311 0.76476 0.47034 0.0
C1572 C 0.77439 0.75532 0.47739 0.0
C1573 C 0.77956 0.75891 0.49252 0.0
H1574 H 0.79376 0.27134 0.53361 0.0
H1575 H 0.76055 0.23352 0.53325 0.0
H1576 H 0.76599 0.26179 0.57395 0.0
H1577 H 0.79679 0.24957 0.51581 0.0
H1578 H 0.78355 0.23355 0.51614 0.0
H1579 H 0.79169 0.27246 0.49962 0.0
H1580 H 0.75916 0.26572 0.46209 0.0
H1581 H 0.75935 0.23378 0.50065 0.0
C1582 C 0.78452 0.26479 0.53927 0.0
C1583 C 0.78023 0.26853 0.55453 0.0
C1584 C 0.77745 0.25217 0.53151 0.0
C1585 C 0.76576 0.24342 0.53909 0.0
C1586 C 0.76139 0.24689 0.55441 0.0
C1587 C 0.76863 0.25954 0.56189 0.0
C1588 C 0.78417 0.24644 0.51639 0.0
C1589 C 0.77602 0.25275 0.50207 0.0
C1590 C 0.78193 0.26612 0.49456 0.0
C1591 C 0.77572 0.27095 0.48021 0.0
C1592 C 0.76341 0.2624 0.47351 0.0
C1593 C 0.75741 0.24894 0.48068 0.0
C1594 C 0.76368 0.24429 0.49511 0.0
H1595 H 0.25557 0.29406 0.53436 0.0
H1596 H 0.28739 0.25594 0.53185 0.0
H1597 H 0.26047 0.26281 0.57304 0.0
H1598 H 0.27587 0.29458 0.51549 0.0
H1599 H 0.29124 0.28115 0.51695 0.0
H1600 H 0.25283 0.28912 0.49877 0.0
H1601 H 0.2633 0.26096 0.45927 0.0
H1602 H 0.29222 0.25883 0.50011 0.0
C1603 C 0.26029 0.28352 0.5393 0.0
C1604 C 0.25648 0.27928 0.55462 0.0
C1605 C 0.27139 0.27508 0.53091 0.0
C1606 C 0.27826 0.26198 0.53787 0.0
C1607 C 0.27449 0.25764 0.55317 0.0
C1608 C 0.26333 0.26611 0.56122 0.0
C1609 C 0.27832 0.28196 0.51623 0.0
C1610 C 0.2727 0.27428 0.50141 0.0
C1611 C 0.25965 0.28014 0.49344 0.0
C1612 C 0.25608 0.27531 0.47822 0.0
C1613 C 0.26542 0.26406 0.47129 0.0
C1614 C 0.27847 0.25802 0.47902 0.0
C1615 C 0.2819 0.26303 0.49421 0.0
H1616 H 0.79121 0.53055 0.75588 0.0
H1617 H 0.75881 0.52825 0.79377 0.0
H1618 H 0.76275 0.56971 0.76591 0.0
H1619 H 0.79499 0.51245 0.77796 0.0
H1620 H 0.781 0.51088 0.79303 0.0
H1621 H 0.79352 0.49549 0.75599 0.0
H1622 H 0.75909 0.45879 0.75668 0.0
H1623 H 0.75535 0.49695 0.78817 0.0
C1624 C 0.78193 0.5357 0.76249 0.0
C1625 C 0.77721 0.55088 0.75901 0.0
C1626 C 0.77525 0.52741 0.77496 0.0
C1627 C 0.76367 0.53447 0.78392 0.0
C1628 C 0.75896 0.54976 0.78073 0.0
C1629 C 0.76566 0.5577 0.76807 0.0
C1630 C 0.78224 0.51222 0.78024 0.0
C1631 C 0.77488 0.49818 0.77248 0.0
C1632 C 0.7827 0.49061 0.76039 0.0
C1633 C 0.77703 0.4764 0.75453 0.0
C1634 C 0.76317 0.47007 0.7606 0.0
C1635 C 0.75529 0.47735 0.77271 0.0
C1636 C 0.76115 0.49147 0.77854 0.0
H1637 H 0.25569 0.53125 0.73652 0.0
H1638 H 0.29088 0.53167 0.77247 0.0
H1639 H 0.25997 0.57009 0.7674 0.0
H1640 H 0.27854 0.5151 0.73438 0.0
H1641 H 0.2939 0.51645 0.74822 0.0
H1642 H 0.25527 0.49808 0.7395 0.0
H1643 H 0.26622 0.45756 0.76657 0.0
H1644 H 0.29564 0.49815 0.76941 0.0
C1645 C 0.26103 0.53671 0.74657 0.0
C1646 C 0.25589 0.55135 0.75137 0.0
C1647 C 0.27356 0.52942 0.75423 0.0
C1648 C 0.28081 0.53686 0.76696 0.0
C1649 C 0.27599 0.5516 0.77165 0.0
C1650 C 0.26341 0.55856 0.76397 0.0
C1651 C 0.28101 0.51536 0.74708 0.0
C1652 C 0.27567 0.50008 0.75415 0.0
C1653 C 0.26237 0.49236 0.7482 0.0
C1654 C 0.25877 0.47701 0.75271 0.0
C1655 C 0.26841 0.46963 0.76367 0.0
C1656 C 0.28172 0.4771 0.76978 0.0
C1657 C 0.28517 0.49243 0.7651 0.0
H1658 H 0.28789 0.53013 0.25603 0.0
H1659 H 0.2548 0.53367 0.29313 0.0
H1660 H 0.25884 0.57009 0.25904 0.0
H1661 H 0.29116 0.5166 0.28198 0.0
H1662 H 0.27534 0.51538 0.29509 0.0
H1663 H 0.29249 0.49955 0.25943 0.0
H1664 H 0.26523 0.45746 0.2633 0.0
H1665 H 0.25365 0.49697 0.29077 0.0
C1666 C 0.27831 0.53608 0.26141 0.0
C1667 C 0.2738 0.55064 0.25566 0.0
C1668 C 0.2712 0.52964 0.27471 0.0
C1669 C 0.25956 0.53808 0.28232 0.0
C1670 C 0.25522 0.55285 0.27691 0.0
C1671 C 0.26198 0.55867 0.26322 0.0
C1672 C 0.27823 0.51556 0.28251 0.0
C1673 C 0.27322 0.50024 0.27538 0.0
C1674 C 0.28258 0.4932 0.2641 0.0
C1675 C 0.27976 0.47773 0.25955 0.0
C1676 C 0.26721 0.46953 0.26625 0.0
C1677 C 0.25773 0.47632 0.27747 0.0
C1678 C 0.26056 0.49183 0.28171 0.0
H1679 H 0.75769 0.52989 0.23527 0.0
H1680 H 0.79121 0.53165 0.2727 0.0
H1681 H 0.75976 0.56936 0.2655 0.0
H1682 H 0.78117 0.51427 0.2345 0.0
H1683 H 0.79547 0.51563 0.24945 0.0
H1684 H 0.75729 0.49758 0.23813 0.0
H1685 H 0.76588 0.45712 0.26614 0.0
H1686 H 0.79549 0.49744 0.27077 0.0
C1687 C 0.76247 0.53565 0.24542 0.0
C1688 C 0.75686 0.55028 0.24966 0.0
C1689 C 0.77477 0.52875 0.25378 0.0
C1690 C 0.78131 0.53657 0.26664 0.0
C1691 C 0.77602 0.55131 0.27082 0.0
C1692 C 0.76364 0.55787 0.26245 0.0
C1693 C 0.78268 0.51461 0.24734 0.0
C1694 C 0.7767 0.49943 0.25411 0.0
C1695 C 0.76373 0.49184 0.24733 0.0
C1696 C 0.75962 0.47659 0.25174 0.0
C1697 C 0.76843 0.46915 0.26333 0.0
C1698 C 0.78139 0.47651 0.27029 0.0
C1699 C 0.78531 0.49177 0.26576 0.0
H1700 H 0.52842 0.2369 0.7568 0.0
H1701 H 0.52809 0.2699 0.79405 0.0
H1702 H 0.56903 0.2652 0.76613 0.0
H1703 H 0.51047 0.23372 0.7787 0.0
H1704 H 0.51059 0.24713 0.79424 0.0
H1705 H 0.49381 0.23738 0.75615 0.0
H1706 H 0.45601 0.26889 0.7617 0.0
H1707 H 0.49561 0.27147 0.79251 0.0
C1708 C 0.53411 0.24621 0.76318 0.0
C1709 C 0.54953 0.25064 0.75951 0.0
C1710 C 0.52625 0.25318 0.77558 0.0
C1711 C 0.53391 0.26486 0.7842 0.0
C1712 C 0.54933 0.26938 0.78076 0.0
C1713 C 0.55689 0.26235 0.76829 0.0
C1714 C 0.51101 0.24632 0.78136 0.0
C1715 C 0.49671 0.25405 0.77461 0.0
C1716 C 0.4889 0.24736 0.7618 0.0
C1717 C 0.4741 0.25256 0.75726 0.0
C1718 C 0.46756 0.26511 0.76504 0.0
C1719 C 0.47519 0.27212 0.7777 0.0
C1720 C 0.48985 0.26655 0.78241 0.0
H1721 H 0.49708 0.79104 0.75839 0.0
H1722 H 0.49703 0.75492 0.7932 0.0
H1723 H 0.45663 0.76177 0.76429 0.0
H1724 H 0.51477 0.7924 0.78084 0.0
H1725 H 0.51439 0.77784 0.79549 0.0
H1726 H 0.53127 0.78997 0.75797 0.0
H1727 H 0.56954 0.75874 0.76297 0.0
H1728 H 0.53001 0.75424 0.79316 0.0
C1729 C 0.49144 0.78112 0.76387 0.0
C1730 C 0.47603 0.77711 0.7597 0.0
C1731 C 0.49911 0.77317 0.77601 0.0
C1732 C 0.49135 0.7608 0.7836 0.0
C1733 C 0.47604 0.75648 0.77933 0.0
C1734 C 0.4686 0.76466 0.76731 0.0
C1735 C 0.51422 0.77962 0.78268 0.0
C1736 C 0.52866 0.77247 0.77588 0.0
C1737 C 0.53636 0.77984 0.76339 0.0
C1738 C 0.55122 0.77504 0.75884 0.0
C1739 C 0.55796 0.76227 0.76631 0.0
C1740 C 0.55043 0.75458 0.77863 0.0
C1741 C 0.53571 0.75973 0.78333 0.0
H1742 H 0.53287 0.73367 0.25377 0.0
H1743 H 0.53113 0.76877 0.28908 0.0
H1744 H 0.57061 0.76658 0.25878 0.0
H1745 H 0.5154 0.73055 0.2755 0.0
H1746 H 0.51633 0.74363 0.29134 0.0
H1747 H 0.49746 0.73489 0.25367 0.0
H1748 H 0.4583 0.76362 0.26376 0.0
H1749 H 0.49961 0.76645 0.29216 0.0
C1750 C 0.53778 0.74397 0.25917 0.0
C1751 C 0.55259 0.74945 0.25463 0.0
C1752 C 0.52989 0.75093 0.27158 0.0
C1753 C 0.53683 0.76373 0.27915 0.0
C1754 C 0.55146 0.76955 0.27446 0.0
C1755 C 0.5591 0.76246 0.26209 0.0
C1756 C 0.5156 0.7431 0.27844 0.0
C1757 C 0.50044 0.75027 0.27316 0.0
C1758 C 0.49224 0.74402 0.26039 0.0
C1759 C 0.47703 0.74886 0.25682 0.0
C1760 C 0.4703 0.76044 0.26592 0.0
C1761 C 0.4783 0.76689 0.27867 0.0
C1762 C 0.49347 0.76186 0.28211 0.0
H1763 H 0.49955 0.28951 0.25769 0.0
H1764 H 0.49987 0.25425 0.29329 0.0
H1765 H 0.45933 0.26001 0.26442 0.0
H1766 H 0.51717 0.29161 0.28008 0.0
H1767 H 0.51695 0.2774 0.29505 0.0
H1768 H 0.53378 0.2889 0.2573 0.0
H1769 H 0.57292 0.259 0.26384 0.0
H1770 H 0.53301 0.25405 0.29342 0.0
C1771 C 0.49393 0.27973 0.26343 0.0
C1772 C 0.47865 0.2753 0.25913 0.0
C1773 C 0.50173 0.27212 0.2757 0.0
C1774 C 0.49413 0.25982 0.28354 0.0
C1775 C 0.47887 0.25524 0.27938 0.0
C1776 C 0.47137 0.26295 0.26709 0.0
C1777 C 0.51677 0.27887 0.28221 0.0
C1778 C 0.53135 0.27177 0.27561 0.0
C1779 C 0.53907 0.27907 0.26307 0.0
C1780 C 0.55419 0.27465 0.25894 0.0
C1781 C 0.56125 0.26242 0.267 0.0
C1782 C 0.55375 0.25488 0.2794 0.0
C1783 C 0.53864 0.25939 0.28347 0.0
H1784 H 0.23857 0.20423 0.1015 0.0
H1785 H 0.19248 0.22236 0.09414 0.0
H1786 H 0.20247 0.23964 0.07381 0.0
H1787 H 0.2247 0.2508 0.0592 0.0
H1788 H 0.27076 0.23299 0.06717 0.0
H1789 H 0.26034 0.21411 0.08584 0.0
C1790 C 0.23063 0.21175 0.09527 0.0
C1791 C 0.21479 0.21199 0.09944 0.0
C1792 C 0.23646 0.2217 0.08363 0.0
C1793 C 0.20477 0.22206 0.09138 0.0
C1794 C 0.21046 0.23189 0.07966 0.0
C1795 C 0.23236 0.24253 0.06478 0.0
C1796 C 0.24846 0.2432 0.06178 0.0
C1797 C 0.22633 0.23197 0.07583 0.0
C1798 C 0.25833 0.23264 0.0693 0.0
C1799 C 0.25238 0.22191 0.08002 0.0
H1800 H 0.79892 0.19555 0.09248 0.0
H1801 H 0.82036 0.23461 0.11581 0.0
H1802 H 0.8085 0.25229 0.0971 0.0
H1803 H 0.79039 0.25687 0.07536 0.0
H1804 H 0.76756 0.21787 0.0532 0.0
H1805 H 0.78176 0.20006 0.06999 0.0
C1806 C 0.80099 0.20793 0.09349 0.0
C1807 C 0.81046 0.21369 0.10565 0.0
C1808 C 0.79389 0.2181 0.08285 0.0
C1809 C 0.81327 0.22978 0.10653 0.0
C1810 C 0.80638 0.23994 0.09588 0.0
C1811 C 0.78855 0.24447 0.07416 0.0
C1812 C 0.77783 0.2388 0.06301 0.0
C1813 C 0.79643 0.23426 0.08418 0.0
C1814 C 0.77585 0.22265 0.06147 0.0
C1815 C 0.78385 0.21242 0.07122 0.0
H1816 H 0.8173 0.8224 0.08856 0.0
H1817 H 0.77944 0.81982 0.12123 0.0
H1818 H 0.76472 0.80291 0.10378 0.0
H1819 H 0.76246 0.78881 0.07945 0.0
H1820 H 0.79958 0.79118 0.04606 0.0
H1821 H 0.81467 0.80837 0.06341 0.0
C1822 C 0.80585 0.81807 0.09182 0.0
C1823 C 0.79945 0.82242 0.10616 0.0
C1824 C 0.79731 0.80839 0.08158 0.0
C1825 C 0.78455 0.81681 0.1102 0.0
C1826 C 0.77614 0.8071 0.10025 0.0
C1827 C 0.77391 0.793 0.07599 0.0
C1828 C 0.78001 0.78856 0.0616 0.0
C1829 C 0.78238 0.80282 0.08595 0.0
C1830 C 0.79467 0.79441 0.05711 0.0
C1831 C 0.8033 0.80418 0.06705 0.0
H1832 H 0.204 0.80907 0.09371 0.0
H1833 H 0.24895 0.82564 0.10982 0.0
H1834 H 0.26183 0.80993 0.09047 0.0
H1835 H 0.26052 0.79024 0.07006 0.0
H1836 H 0.21575 0.77357 0.05375 0.0
H1837 H 0.20266 0.79094 0.07165 0.0
C1838 C 0.2166 0.80945 0.09283 0.0
C1839 C 0.22546 0.81836 0.10345 0.0
C1840 C 0.224 0.8004 0.08156 0.0
C1841 C 0.2418 0.81861 0.10212 0.0
C1842 C 0.24921 0.8097 0.09096 0.0
C1843 C 0.24789 0.79051 0.07033 0.0
C1844 C 0.23915 0.78055 0.06063 0.0
C1845 C 0.24045 0.80033 0.08083 0.0
C1846 C 0.22278 0.78119 0.06098 0.0
C1847 C 0.21528 0.79103 0.07133 0.0
H1848 H 0.2029 0.81407 0.9374 0.0
H1849 H 0.24726 0.8323 0.92186 0.0
H1850 H 0.26077 0.81582 0.94051 0.0
H1851 H 0.26017 0.79504 0.96007 0.0
H1852 H 0.21596 0.77588 0.9749 0.0
H1853 H 0.20228 0.79404 0.95795 0.0
C1854 C 0.21552 0.81443 0.9381 0.0
C1855 C 0.22402 0.82442 0.92818 0.0
C1856 C 0.22328 0.80477 0.94878 0.0
C1857 C 0.24038 0.82489 0.92944 0.0
C1858 C 0.24814 0.81538 0.94005 0.0
C1859 C 0.24753 0.79488 0.95965 0.0
C1860 C 0.23915 0.78404 0.96872 0.0
C1861 C 0.23973 0.80513 0.94962 0.0
C1862 C 0.22275 0.78418 0.9682 0.0
C1863 C 0.2149 0.79447 0.95838 0.0
H1864 H 0.22307 0.20468 0.93115 0.0
H1865 H 0.18178 0.23121 0.93984 0.0
H1866 H 0.19533 0.24524 0.96045 0.0
H1867 H 0.2197 0.25206 0.97414 0.0
H1868 H 0.26147 0.22688 0.96436 0.0
H1869 H 0.24701 0.21029 0.94615 0.0
C1870 C 0.21702 0.21351 0.93755 0.0
C1871 C 0.2014 0.21686 0.93381 0.0
C1872 C 0.22501 0.22184 0.94924 0.0
C1873 C 0.19371 0.22819 0.9425 0.0
C1874 C 0.2015 0.23634 0.95426 0.0
C1875 C 0.22551 0.24264 0.96834 0.0
C1876 C 0.2416 0.24062 0.97065 0.0
C1877 C 0.21723 0.23349 0.95753 0.0
C1878 C 0.24908 0.2286 0.96281 0.0
C1879 C 0.24084 0.2192 0.95232 0.0
H1880 H 0.82481 0.21988 0.94724 0.0
H1881 H 0.79069 0.21633 0.91031 0.0
H1882 H 0.77114 0.22781 0.92688 0.0
H1883 H 0.76401 0.2402 0.9512 0.0
H1884 H 0.79762 0.24419 0.9884 0.0
H1885 H 0.81706 0.23109 0.97248 0.0
C1886 C 0.81309 0.22159 0.94285 0.0
C1887 C 0.80926 0.21722 0.92752 0.0
C1888 C 0.80182 0.22831 0.95248 0.0
C1889 C 0.79394 0.21937 0.92209 0.0
C1890 C 0.78276 0.22604 0.93153 0.0
C1891 C 0.77559 0.23816 0.95583 0.0
C1892 C 0.77948 0.24332 0.97085 0.0
C1893 C 0.78662 0.23073 0.94663 0.0
C1894 C 0.7944 0.24033 0.97685 0.0
C1895 C 0.80551 0.23292 0.96772 0.0
H1896 H 0.82123 0.82056 0.9402 0.0
H1897 H 0.7829 0.82265 0.90761 0.0
H1898 H 0.7672 0.80585 0.92431 0.0
H1899 H 0.76418 0.79059 0.94797 0.0
H1900 H 0.80166 0.78837 0.9814 0.0
H1901 H 0.81782 0.80536 0.96478 0.0
C1902 C 0.80946 0.81727 0.9368 0.0
C1903 C 0.80321 0.82289 0.9227 0.0
C1904 C 0.80034 0.80767 0.94664 0.0
C1905 C 0.78791 0.81862 0.91846 0.0
C1906 C 0.77893 0.80898 0.92799 0.0
C1907 C 0.77594 0.79375 0.95159 0.0
C1908 C 0.78183 0.78806 0.96577 0.0
C1909 C 0.78501 0.80346 0.94207 0.0
C1910 C 0.79691 0.79257 0.9705 0.0
C1911 C 0.80614 0.80222 0.96097 0.0
H1912 H 0.08761 0.2194 0.20321 0.0
H1913 H 0.12345 0.21497 0.23832 0.0
H1914 H 0.10618 0.22584 0.25762 0.0
H1915 H 0.08135 0.23746 0.26446 0.0
H1916 H 0.04534 0.24244 0.22972 0.0
H1917 H 0.06215 0.23042 0.21039 0.0
C1918 C 0.09164 0.22084 0.21508 0.0
C1919 C 0.10685 0.21633 0.21927 0.0
C1920 C 0.08162 0.22721 0.2262 0.0
C1921 C 0.11178 0.21811 0.23478 0.0
C1922 C 0.10193 0.22444 0.24583 0.0
C1923 C 0.07719 0.23599 0.25263 0.0
C1924 C 0.0622 0.24105 0.24848 0.0
C1925 C 0.08691 0.22915 0.24164 0.0
C1926 C 0.05684 0.23867 0.23321 0.0
C1927 C 0.06648 0.23186 0.22215 0.0
H1928 H 0.81996 0.09038 0.21396 0.0
H1929 H 0.81211 0.12667 0.24717 0.0
H1930 H 0.79529 0.10937 0.26221 0.0
H1931 H 0.78339 0.08397 0.26645 0.0
H1932 H 0.79066 0.04718 0.23373 0.0
H1933 H 0.80729 0.06454 0.21809 0.0
C1934 C 0.81444 0.09449 0.22442 0.0
C1935 C 0.81738 0.10978 0.2295 0.0
C1936 C 0.80478 0.08438 0.23315 0.0
C1937 C 0.81024 0.11491 0.24313 0.0
C1938 C 0.80057 0.10504 0.25172 0.0
C1939 C 0.78838 0.07977 0.25575 0.0
C1940 C 0.78557 0.06434 0.25115 0.0
C1941 C 0.79784 0.08976 0.2469 0.0
C1942 C 0.7926 0.059 0.23753 0.0
C1943 C 0.80206 0.06894 0.22857 0.0
H1944 H 0.93473 0.81595 0.20951 0.0
H1945 H 0.89888 0.78066 0.21417 0.0
H1946 H 0.91639 0.76474 0.22963 0.0
H1947 H 0.94189 0.76037 0.24122 0.0
H1948 H 0.97825 0.79513 0.23711 0.0
H1949 H 0.96066 0.81161 0.22186 0.0
C1950 C 0.93076 0.80483 0.21403 0.0
C1951 C 0.91553 0.79946 0.21058 0.0
C1952 C 0.94101 0.79559 0.22291 0.0
C1953 C 0.91059 0.78498 0.21645 0.0
C1954 C 0.92058 0.77587 0.22534 0.0
C1955 C 0.94595 0.77166 0.23723 0.0
C1956 C 0.96132 0.77659 0.24052 0.0
C1957 C 0.93582 0.781 0.22855 0.0
C1958 C 0.96648 0.79105 0.23476 0.0
C1959 C 0.9564 0.8005 0.22609 0.0
H1960 H 0.20846 0.93745 0.21004 0.0
H1961 H 0.21095 0.90315 0.24661 0.0
H1962 H 0.22717 0.92058 0.26218 0.0
H1963 H 0.24038 0.94545 0.26566 0.0
H1964 H 0.238 0.9805 0.2299 0.0
H1965 H 0.22182 0.96305 0.21381 0.0
C1966 C 0.21265 0.93384 0.22138 0.0
C1967 C 0.20847 0.91906 0.22721 0.0
C1968 C 0.22188 0.94406 0.23043 0.0
C1969 C 0.21387 0.91452 0.24196 0.0
C1970 C 0.22317 0.92446 0.25086 0.0
C1971 C 0.23645 0.94924 0.25427 0.0
C1972 C 0.24057 0.96414 0.24886 0.0
C1973 C 0.2272 0.93923 0.24524 0.0
C1974 C 0.23502 0.96905 0.23428 0.0
C1975 C 0.22583 0.95905 0.22509 0.0
H1976 H 0.08953 0.81688 0.82375 0.0
H1977 H 0.12621 0.78477 0.81385 0.0
H1978 H 0.10865 0.76987 0.79714 0.0
H1979 H 0.08294 0.76552 0.78579 0.0
H1980 H 0.04569 0.79701 0.79532 0.0
H1981 H 0.0633 0.81249 0.81188 0.0
C1982 C 0.09365 0.80668 0.81782 0.0
C1983 C 0.10914 0.80188 0.82011 0.0
C1984 C 0.08338 0.79802 0.80826 0.0
C1985 C 0.11431 0.78859 0.81245 0.0
C1986 C 0.10429 0.78008 0.80285 0.0
C1987 C 0.07869 0.7759 0.7913 0.0
C1988 C 0.06307 0.78023 0.78914 0.0
C1989 C 0.08881 0.78463 0.80074 0.0
C1990 C 0.05766 0.79344 0.79678 0.0
C1991 C 0.06775 0.80231 0.80619 0.0
H1992 H 0.22579 0.09064 0.83544 0.0
H1993 H 0.20397 0.11366 0.7965 0.0
H1994 H 0.21525 0.09499 0.77879 0.0
H1995 H 0.23289 0.07333 0.77409 0.0
H1996 H 0.25623 0.0516 0.81293 0.0
H1997 H 0.24259 0.06833 0.83083 0.0
C1998 C 0.22352 0.09162 0.82308 0.0
C1999 C 0.2141 0.10367 0.81737 0.0
C2000 C 0.2303 0.081 0.81288 0.0
C2001 C 0.21103 0.10447 0.80131 0.0
C2002 C 0.21758 0.09384 0.79113 0.0
C2003 C 0.23498 0.07221 0.78648 0.0
C2004 C 0.24567 0.06118 0.79205 0.0
C2005 C 0.22746 0.08223 0.79675 0.0
C2006 C 0.24795 0.05976 0.8082 0.0
C2007 C 0.24027 0.06948 0.8185 0.0
H2008 H 0.94347 0.20499 0.81599 0.0
H2009 H 0.90656 0.23847 0.8145 0.0
H2010 H 0.92354 0.25684 0.80096 0.0
H2011 H 0.94826 0.26296 0.7882 0.0
H2012 H 0.98545 0.22994 0.78927 0.0
H2013 H 0.96907 0.21186 0.80439 0.0
C2014 C 0.93919 0.21633 0.81273 0.0
C2015 C 0.92373 0.22032 0.81628 0.0
C2016 C 0.94904 0.2269 0.80483 0.0
C2017 C 0.91843 0.23514 0.81213 0.0
C2018 C 0.9281 0.24563 0.80427 0.0
C2019 C 0.95278 0.2518 0.79178 0.0
C2020 C 0.96794 0.24767 0.78747 0.0
C2021 C 0.94333 0.24156 0.80038 0.0
C2022 C 0.9738 0.23334 0.79244 0.0
C2023 C 0.96441 0.223 0.80101 0.0
H2024 H 0.81206 0.93745 0.82523 0.0
H2025 H 0.8279 0.92056 0.78107 0.0
H2026 H 0.8116 0.93926 0.76752 0.0
H2027 H 0.79174 0.95942 0.76804 0.0
H2028 H 0.77501 0.97575 0.81205 0.0
H2029 H 0.7929 0.95855 0.82573 0.0
C2030 C 0.81193 0.93786 0.81264 0.0
C2031 C 0.82123 0.92756 0.80422 0.0
C2032 C 0.8024 0.94862 0.80485 0.0
C2033 C 0.82105 0.92843 0.7879 0.0
C2034 C 0.81165 0.93909 0.78011 0.0
C2035 C 0.79206 0.95928 0.78063 0.0
C2036 C 0.78198 0.96888 0.78896 0.0
C2037 C 0.80215 0.94911 0.78845 0.0
C2038 C 0.78274 0.96867 0.80529 0.0
C2039 C 0.79286 0.95869 0.81315 0.0
H2040 H 0.19606 0.0892 0.2263 0.0
H2041 H 0.23636 0.11555 0.21115 0.0
H2042 H 0.2535 0.09646 0.22306 0.0
H2043 H 0.25708 0.07348 0.23969 0.0
H2044 H 0.21666 0.04825 0.25638 0.0
H2045 H 0.19967 0.06549 0.24178 0.0
C2046 C 0.2086 0.09079 0.2256 0.0
C2047 C 0.21486 0.10392 0.21792 0.0
C2048 C 0.21842 0.07991 0.23276 0.0
C2049 C 0.23116 0.10554 0.21685 0.0
C2050 C 0.241 0.09467 0.22377 0.0
C2051 C 0.24455 0.0717 0.2401 0.0
C2052 C 0.23824 0.05955 0.24924 0.0
C2053 C 0.23476 0.08198 0.23204 0.0
C2054 C 0.22196 0.0573 0.24933 0.0
C2055 C 0.21217 0.0673 0.24111 0.0
H2056 H 0.2 0.9423 0.80639 0.0
H2057 H 0.2353 0.90762 0.8126 0.0
H2058 H 0.25456 0.92471 0.80047 0.0
H2059 H 0.26135 0.94912 0.78753 0.0
H2060 H 0.22667 0.98428 0.78125 0.0
H2061 H 0.20719 0.96748 0.79405 0.0
C2062 C 0.21191 0.93852 0.80507 0.0
C2063 C 0.2162 0.9237 0.81045 0.0
C2064 C 0.22301 0.94848 0.79806 0.0
C2065 C 0.23172 0.91902 0.80878 0.0
C2066 C 0.24273 0.92875 0.80175 0.0
C2067 C 0.2495 0.95308 0.78889 0.0
C2068 C 0.24536 0.9678 0.78326 0.0
C2069 C 0.2385 0.94344 0.79627 0.0
C2070 C 0.23008 0.97296 0.78545 0.0
C2071 C 0.21897 0.96334 0.79272 0.0
H2072 H 0.09086 0.21922 0.82598 0.0
H2073 H 0.10273 0.19371 0.78486 0.0
H2074 H 0.08417 0.20865 0.76962 0.0
H2075 H 0.06577 0.23 0.76747 0.0
H2076 H 0.05424 0.25626 0.80815 0.0
H2077 H 0.07116 0.23986 0.82404 0.0
C2078 C 0.08935 0.21693 0.81369 0.0
C2079 C 0.09822 0.20532 0.80662 0.0
C2080 C 0.07866 0.22567 0.8049 0.0
C2081 C 0.09596 0.2024 0.7907 0.0
C2082 C 0.0854 0.21101 0.78192 0.0
C2083 C 0.06687 0.23207 0.77984 0.0
C2084 C 0.0588 0.24441 0.78657 0.0
C2085 C 0.07683 0.2228 0.78884 0.0
C2086 C 0.06019 0.24677 0.80267 0.0
C2087 C 0.07 0.23749 0.81175 0.0
H2088 H 0.80224 0.09089 0.83736 0.0
H2089 H 0.81639 0.11806 0.79751 0.0
H2090 H 0.80385 0.09923 0.78026 0.0
H2091 H 0.78696 0.07622 0.77657 0.0
H2092 H 0.77121 0.0503 0.8167 0.0
H2093 H 0.78643 0.06729 0.83362 0.0
C2094 C 0.80258 0.09273 0.8249 0.0
C2095 C 0.81015 0.106 0.8188 0.0
C2096 C 0.79505 0.08202 0.81504 0.0
C2097 C 0.81077 0.10793 0.80258 0.0
C2098 C 0.80349 0.09721 0.79268 0.0
C2099 C 0.78689 0.07424 0.78901 0.0
C2100 C 0.77785 0.06195 0.79526 0.0
C2101 C 0.79531 0.08439 0.7988 0.0
C2102 C 0.77818 0.05945 0.81143 0.0
C2103 C 0.78676 0.0693 0.82119 0.0
H2104 H 0.94158 0.8167 0.82326 0.0
H2105 H 0.90242 0.7878 0.8097 0.0
H2106 H 0.91955 0.77141 0.79469 0.0
H2107 H 0.94539 0.76514 0.78553 0.0
H2108 H 0.9848 0.79456 0.79722 0.0
H2109 H 0.96794 0.8106 0.81321 0.0
C2110 C 0.93686 0.8068 0.81701 0.0
C2111 C 0.92072 0.80353 0.81751 0.0
C2112 C 0.94682 0.79747 0.80817 0.0
C2113 C 0.91474 0.79069 0.80933 0.0
C2114 C 0.92455 0.78126 0.80081 0.0
C2115 C 0.95034 0.77523 0.79128 0.0
C2116 C 0.96638 0.77872 0.78989 0.0
C2117 C 0.94056 0.78458 0.80008 0.0
C2118 C 0.97254 0.79152 0.79805 0.0
C2119 C 0.96288 0.80077 0.80714 0.0
H2120 H 0.83422 0.94021 0.2306 0.0
H2121 H 0.79461 0.91725 0.2092 0.0
H2122 H 0.77721 0.93603 0.22066 0.0
H2123 H 0.77291 0.95772 0.23836 0.0
H2124 H 0.81227 0.97967 0.26118 0.0
H2125 H 0.82999 0.96278 0.24739 0.0
C2126 C 0.82178 0.93929 0.22844 0.0
C2127 C 0.8158 0.92721 0.21906 0.0
C2128 C 0.81173 0.95001 0.23532 0.0
C2129 C 0.79964 0.92646 0.21618 0.0
C2130 C 0.78962 0.93716 0.22284 0.0
C2131 C 0.78537 0.95887 0.24029 0.0
C2132 C 0.79117 0.96995 0.25091 0.0
C2133 C 0.7955 0.9488 0.23265 0.0
C2134 C 0.80741 0.97142 0.25298 0.0
C2135 C 0.81758 0.96162 0.24521 0.0
H2136 H 0.08793 0.81326 0.20715 0.0
H2137 H 0.12462 0.78109 0.21757 0.0
H2138 H 0.10662 0.76509 0.23277 0.0
H2139 H 0.08063 0.75996 0.24269 0.0
H2140 H 0.04387 0.79265 0.23421 0.0
H2141 H 0.0616 0.80853 0.21835 0.0
C2142 C 0.09191 0.80274 0.21277 0.0
C2143 C 0.10758 0.79836 0.2113 0.0
C2144 C 0.0815 0.79367 0.22175 0.0
C2145 C 0.11265 0.78475 0.21867 0.0
C2146 C 0.10236 0.77558 0.22731 0.0
C2147 C 0.07649 0.77074 0.23773 0.0
C2148 C 0.0609 0.77515 0.23989 0.0
C2149 C 0.0868 0.77994 0.22896 0.0
C2150 C 0.05575 0.78888 0.23274 0.0
C2151 C 0.06592 0.79802 0.22372 0.0
H2152 H 0.93189 0.23757 0.19889 0.0
H2153 H 0.93875 0.19158 0.21748 0.0
H2154 H 0.95886 0.2016 0.23509 0.0
H2155 H 0.97277 0.22382 0.24686 0.0
H2156 H 0.96562 0.26978 0.22846 0.0
H2157 H 0.94769 0.25932 0.20883 0.0
C2158 C 0.938 0.22965 0.20653 0.0
C2159 C 0.93364 0.21384 0.20692 0.0
C2160 C 0.94954 0.23551 0.21668 0.0
C2161 C 0.9416 0.20384 0.21712 0.0
C2162 C 0.95319 0.20955 0.22714 0.0
C2163 C 0.96762 0.23147 0.23827 0.0
C2164 C 0.97051 0.24755 0.2391 0.0
C2165 C 0.95702 0.22542 0.22726 0.0
C2166 C 0.96353 0.25737 0.22807 0.0
C2167 C 0.95323 0.2514 0.2169 0.0
H2168 H 0.22695 0.69465 0.59366 0.0
H2169 H 0.20189 0.7344 0.60989 0.0
H2170 H 0.21452 0.75066 0.59029 0.0
H2171 H 0.23405 0.75403 0.56972 0.0
H2172 H 0.25893 0.7143 0.55337 0.0
H2173 H 0.24453 0.69754 0.57137 0.0
C2174 C 0.22396 0.70679 0.59274 0.0
C2175 C 0.2136 0.71326 0.60348 0.0
C2176 C 0.23121 0.71611 0.58133 0.0
C2177 C 0.21008 0.72911 0.6021 0.0
C2178 C 0.21723 0.73843 0.5908 0.0
C2179 C 0.23619 0.74167 0.56998 0.0
C2180 C 0.24761 0.73547 0.56024 0.0
C2181 C 0.22805 0.73213 0.58057 0.0
C2182 C 0.25011 0.71939 0.5606 0.0
C2183 C 0.24199 0.70981 0.57103 0.0
H2184 H 0.80645 0.70001 0.58875 0.0
H2185 H 0.8104 0.73468 0.62456 0.0
H2186 H 0.79855 0.75376 0.60736 0.0
H2187 H 0.78657 0.76058 0.58248 0.0
H2188 H 0.78228 0.72635 0.54639 0.0
H2189 H 0.79482 0.70714 0.56331 0.0
C2190 C 0.80467 0.71174 0.59278 0.0
C2191 C 0.80936 0.71589 0.60793 0.0
C2192 C 0.79778 0.72272 0.58279 0.0
C2193 C 0.80713 0.7312 0.6129 0.0
C2194 C 0.80025 0.74211 0.60311 0.0
C2195 C 0.78827 0.74887 0.57835 0.0
C2196 C 0.7833 0.74482 0.56329 0.0
C2197 C 0.79546 0.73798 0.58809 0.0
C2198 C 0.78597 0.72973 0.55795 0.0
C2199 C 0.79309 0.71875 0.56764 0.0
H2200 H 0.82571 0.31088 0.5948 0.0
H2201 H 0.78168 0.326 0.6128 0.0
H2202 H 0.76776 0.30962 0.59423 0.0
H2203 H 0.76793 0.29006 0.57372 0.0
H2204 H 0.81175 0.27417 0.556 0.0
H2205 H 0.82583 0.29192 0.57334 0.0
C2206 C 0.81307 0.31056 0.59466 0.0
C2207 C 0.80479 0.3197 0.60522 0.0
C2208 C 0.80507 0.30102 0.58392 0.0
C2209 C 0.78839 0.31927 0.60472 0.0
C2210 C 0.78039 0.30983 0.59413 0.0
C2211 C 0.78057 0.29052 0.5736 0.0
C2212 C 0.78874 0.28073 0.56359 0.0
C2213 C 0.78859 0.30055 0.58379 0.0
C2214 C 0.80513 0.28167 0.56344 0.0
C2215 C 0.8132 0.29172 0.57348 0.0
H2216 H 0.2095 0.3218 0.59136 0.0
H2217 H 0.24626 0.31829 0.62557 0.0
H2218 H 0.26122 0.3022 0.60813 0.0
H2219 H 0.2641 0.28928 0.58331 0.0
H2220 H 0.22807 0.29259 0.5484 0.0
H2221 H 0.21267 0.30878 0.5658 0.0
C2222 C 0.22075 0.31743 0.59496 0.0
C2223 C 0.22679 0.32129 0.60972 0.0
C2224 C 0.22945 0.30824 0.58473 0.0
C2225 C 0.24144 0.31564 0.61422 0.0
C2226 C 0.24999 0.3064 0.60427 0.0
C2227 C 0.2528 0.29343 0.57953 0.0
C2228 C 0.24713 0.28956 0.56467 0.0
C2229 C 0.24414 0.30267 0.58953 0.0
C2230 C 0.23267 0.29539 0.5598 0.0
C2231 C 0.22386 0.30458 0.56977 0.0
H2232 H 0.21224 0.30046 0.42503 0.0
H2233 H 0.22828 0.34417 0.44385 0.0
H2234 H 0.24169 0.33063 0.46484 0.0
H2235 H 0.25106 0.30638 0.47633 0.0
H2236 H 0.23483 0.2626 0.45789 0.0
H2237 H 0.2191 0.27618 0.43849 0.0
C2238 C 0.21838 0.30705 0.4339 0.0
C2239 C 0.21944 0.32333 0.43265 0.0
C2240 C 0.22612 0.29917 0.446 0.0
C2241 C 0.22756 0.33163 0.44426 0.0
C2242 C 0.23519 0.32389 0.45634 0.0
C2243 C 0.24375 0.29978 0.46837 0.0
C2244 C 0.24424 0.28347 0.46853 0.0
C2245 C 0.23487 0.30766 0.45712 0.0
C2246 C 0.23483 0.27516 0.45792 0.0
C2247 C 0.22584 0.28292 0.4468 0.0
H2248 H 0.21673 0.70374 0.43505 0.0
H2249 H 0.19664 0.74726 0.42093 0.0
H2250 H 0.21224 0.76086 0.4404 0.0
H2251 H 0.23296 0.76079 0.46012 0.0
H2252 H 0.25335 0.71754 0.47434 0.0
H2253 H 0.23588 0.70343 0.45663 0.0
C2254 C 0.21557 0.71616 0.43639 0.0
C2255 C 0.2057 0.72446 0.42627 0.0
C2256 C 0.22459 0.72398 0.44771 0.0
C2257 C 0.20442 0.74059 0.42823 0.0
C2258 C 0.21327 0.74839 0.43945 0.0
C2259 C 0.23347 0.74825 0.45946 0.0
C2260 C 0.24452 0.74026 0.46847 0.0
C2261 C 0.22363 0.74027 0.44903 0.0
C2262 C 0.24488 0.72399 0.46764 0.0
C2263 C 0.23499 0.71592 0.45738 0.0
H2264 H 0.79855 0.7108 0.42525 0.0
H2265 H 0.84283 0.72502 0.44498 0.0
H2266 H 0.82952 0.73893 0.46543 0.0
H2267 H 0.80544 0.74925 0.47612 0.0
H2268 H 0.76105 0.73465 0.45698 0.0
H2269 H 0.77428 0.71853 0.43807 0.0
C2270 C 0.8053 0.71665 0.4342 0.0
C2271 C 0.8217 0.71707 0.43335 0.0
C2272 C 0.79755 0.72466 0.44601 0.0
C2273 C 0.83021 0.72481 0.44507 0.0
C2274 C 0.8226 0.73272 0.45685 0.0
C2275 C 0.7986 0.74222 0.46813 0.0
C2276 C 0.78224 0.74331 0.46793 0.0
C2277 C 0.80629 0.73305 0.45721 0.0
C2278 C 0.77366 0.73423 0.45727 0.0
C2279 C 0.78122 0.725 0.44644 0.0
H2280 H 0.79328 0.32396 0.43268 0.0
H2281 H 0.83855 0.30327 0.43754 0.0
H2282 H 0.82844 0.28572 0.45759 0.0
H2283 H 0.80622 0.27507 0.47254 0.0
H2284 H 0.76096 0.29553 0.46713 0.0
H2285 H 0.77166 0.31461 0.44883 0.0
C2286 C 0.80104 0.31583 0.43831 0.0
C2287 C 0.81667 0.31494 0.43351 0.0
C2288 C 0.79514 0.30573 0.4498 0.0
C2289 C 0.82643 0.30409 0.4408 0.0
C2290 C 0.82067 0.29409 0.45235 0.0
C2291 C 0.79882 0.28394 0.46761 0.0
C2292 C 0.78284 0.28395 0.4712 0.0
C2293 C 0.80498 0.29465 0.45678 0.0
C2294 C 0.77329 0.29532 0.46452 0.0
C2295 C 0.77939 0.30618 0.45402 0.0
H2296 H 0.09526 0.73555 0.70264 0.0
H2297 H 0.09123 0.69083 0.72511 0.0
H2298 H 0.07159 0.70095 0.74263 0.0
H2299 H 0.05707 0.72314 0.75295 0.0
H2300 H 0.06177 0.76788 0.73083 0.0
H2301 H 0.07923 0.75703 0.71149 0.0
C2302 C 0.08988 0.7279 0.71114 0.0
C2303 C 0.09485 0.71245 0.71257 0.0
C2304 C 0.07862 0.73381 0.72122 0.0
C2305 C 0.08786 0.70283 0.72389 0.0
C2306 C 0.07654 0.70859 0.73386 0.0
C2307 C 0.0616 0.73037 0.74363 0.0
C2308 C 0.05808 0.74625 0.74321 0.0
C2309 C 0.07202 0.72414 0.73283 0.0
C2310 C 0.06428 0.75561 0.73129 0.0
C2311 C 0.07434 0.74943 0.72032 0.0
H2312 H 0.80127 0.60157 0.71156 0.0
H2313 H 0.84505 0.59033 0.73361 0.0
H2314 H 0.83237 0.56936 0.74803 0.0
H2315 H 0.80841 0.55577 0.75635 0.0
H2316 H 0.76438 0.56809 0.73568 0.0
H2317 H 0.77753 0.58709 0.71889 0.0
C2318 C 0.80806 0.59456 0.71952 0.0
C2319 C 0.82412 0.59766 0.72147 0.0
C2320 C 0.80061 0.58272 0.72812 0.0
C2321 C 0.83273 0.58818 0.73165 0.0
C2322 C 0.82546 0.57622 0.74004 0.0
C2323 C 0.80177 0.56238 0.74791 0.0
C2324 C 0.78547 0.56051 0.74721 0.0
C2325 C 0.80936 0.57356 0.73859 0.0
C2326 C 0.77695 0.56935 0.73643 0.0
C2327 C 0.78445 0.58024 0.72687 0.0
H2328 H 0.92931 0.29165 0.70167 0.0
H2329 H 0.93493 0.33722 0.72153 0.0
H2330 H 0.95529 0.3276 0.7389 0.0
H2331 H 0.97023 0.3057 0.7498 0.0
H2332 H 0.96406 0.26019 0.73014 0.0
H2333 H 0.94558 0.2704 0.71105 0.0
C2334 C 0.93517 0.29959 0.70956 0.0
C2335 C 0.93045 0.31514 0.7103 0.0
C2336 C 0.94687 0.29397 0.71954 0.0
C2337 C 0.93808 0.32513 0.72085 0.0
C2338 C 0.94982 0.31966 0.73074 0.0
C2339 C 0.9651 0.29815 0.74107 0.0
C2340 C 0.96853 0.28224 0.7413 0.0
C2341 C 0.95415 0.30404 0.73037 0.0
C2342 C 0.96161 0.27248 0.73013 0.0
C2343 C 0.95099 0.2783 0.71928 0.0
H2344 H 0.21641 0.4357 0.70866 0.0
H2345 H 0.20281 0.41602 0.75281 0.0
H2346 H 0.21882 0.43527 0.76634 0.0
H2347 H 0.23788 0.45674 0.7657 0.0
H2348 H 0.25183 0.4763 0.72163 0.0
H2349 H 0.23406 0.45851 0.70811 0.0
C2350 C 0.21675 0.43576 0.72124 0.0
C2351 C 0.20856 0.42422 0.72965 0.0
C2352 C 0.22599 0.44694 0.72901 0.0
C2353 C 0.20925 0.42449 0.74599 0.0
C2354 C 0.21833 0.43558 0.75377 0.0
C2355 C 0.23695 0.45719 0.75313 0.0
C2356 C 0.24625 0.46783 0.74472 0.0
C2357 C 0.22696 0.44668 0.7454 0.0
C2358 C 0.24471 0.46838 0.72845 0.0
C2359 C 0.23466 0.45808 0.72068 0.0
H2360 H 0.08846 0.29951 0.33657 0.0
H2361 H 0.11303 0.32009 0.29783 0.0
H2362 H 0.09444 0.3082 0.27982 0.0
H2363 H 0.07257 0.29023 0.27486 0.0
H2364 H 0.04919 0.26809 0.31346 0.0
H2365 H 0.06573 0.28249 0.33162 0.0
C2366 C 0.08977 0.3014 0.32418 0.0
C2367 C 0.10225 0.31064 0.31862 0.0
C2368 C 0.07921 0.29424 0.31381 0.0
C2369 C 0.1035 0.31319 0.30252 0.0
C2370 C 0.09293 0.30629 0.29217 0.0
C2371 C 0.07104 0.28858 0.28725 0.0
C2372 C 0.05968 0.27796 0.29271 0.0
C2373 C 0.08093 0.29654 0.29766 0.0
C2374 C 0.05768 0.27626 0.30884 0.0
C2375 C 0.06728 0.28438 0.31928 0.0
H2376 H 0.20878 0.58943 0.32036 0.0
H2377 H 0.24221 0.62599 0.31062 0.0
H2378 H 0.25687 0.60863 0.29421 0.0
H2379 H 0.26084 0.58308 0.28333 0.0
H2380 H 0.22799 0.54593 0.29257 0.0
H2381 H 0.21259 0.56339 0.30864 0.0
C2382 C 0.2192 0.59357 0.31452 0.0
C2383 C 0.22445 0.60897 0.31681 0.0
C2384 C 0.22774 0.58341 0.30512 0.0
C2385 C 0.23803 0.61416 0.30924 0.0
C2386 C 0.24641 0.60425 0.29981 0.0
C2387 C 0.25016 0.57881 0.28861 0.0
C2388 C 0.24547 0.56325 0.28653 0.0
C2389 C 0.24146 0.58885 0.29777 0.0
C2390 C 0.23187 0.55785 0.29395 0.0
C2391 C 0.22304 0.56785 0.30309 0.0
H2392 H 0.9368 0.69307 0.3043 0.0
H2393 H 0.91322 0.73253 0.32317 0.0
H2394 H 0.93221 0.74999 0.31102 0.0
H2395 H 0.9539 0.7542 0.29291 0.0
H2396 H 0.97599 0.71471 0.27232 0.0
H2397 H 0.95949 0.69724 0.28749 0.0
C2398 C 0.9358 0.70549 0.30578 0.0
C2399 C 0.92345 0.71143 0.31454 0.0
C2400 C 0.94656 0.71551 0.29845 0.0
C2401 C 0.92262 0.72757 0.31661 0.0
C2402 C 0.93344 0.73759 0.30956 0.0
C2403 C 0.95518 0.74177 0.2918 0.0
C2404 C 0.96616 0.73587 0.28134 0.0
C2405 C 0.94522 0.73172 0.30014 0.0
C2406 C 0.96784 0.71969 0.28035 0.0
C2407 C 0.95823 0.70963 0.2889 0.0
H2408 H 0.83282 0.43465 0.30118 0.0
H2409 H 0.79255 0.41621 0.32518 0.0
H2410 H 0.7762 0.43564 0.31277 0.0
H2411 H 0.77296 0.45682 0.2938 0.0
H2412 H 0.81321 0.47523 0.26985 0.0
H2413 H 0.82997 0.45732 0.28402 0.0
C2414 C 0.82053 0.43504 0.30397 0.0
C2415 C 0.81396 0.42377 0.314 0.0
C2416 C 0.81116 0.44633 0.29684 0.0
C2417 C 0.79793 0.42445 0.31726 0.0
C2418 C 0.78855 0.43565 0.31024 0.0
C2419 C 0.78542 0.457 0.29179 0.0
C2420 C 0.79177 0.46734 0.28071 0.0
C2421 C 0.79498 0.44646 0.29978 0.0
C2422 C 0.80799 0.46755 0.2784 0.0
C2423 C 0.81758 0.45718 0.2864 0.0
H2424 H 0.21764 0.59425 0.7057 0.0
H2425 H 0.1968 0.60741 0.74906 0.0
H2426 H 0.21168 0.5877 0.76275 0.0
H2427 H 0.23191 0.56795 0.76284 0.0
H2428 H 0.25328 0.55486 0.71979 0.0
H2429 H 0.23652 0.57281 0.70554 0.0
C2430 C 0.21619 0.59265 0.7181 0.0
C2431 C 0.20629 0.60254 0.72634 0.0
C2432 C 0.22483 0.58121 0.72598 0.0
C2433 C 0.20461 0.60028 0.74244 0.0
C2434 C 0.21304 0.58891 0.7503 0.0
C2435 C 0.2328 0.56893 0.75031 0.0
C2436 C 0.24392 0.56014 0.74243 0.0
C2437 C 0.22341 0.57953 0.74225 0.0
C2438 C 0.24475 0.56137 0.72616 0.0
C2439 C 0.23527 0.57177 0.71801 0.0
H2440 H 0.20078 0.44037 0.30838 0.0
H2441 H 0.2364 0.406 0.31465 0.0
H2442 H 0.25562 0.42346 0.30298 0.0
H2443 H 0.26226 0.44805 0.29027 0.0
H2444 H 0.22712 0.4827 0.28361 0.0
H2445 H 0.20778 0.46565 0.29623 0.0
C2446 C 0.21275 0.43672 0.30717 0.0
C2447 C 0.21712 0.42188 0.31243 0.0
C2448 C 0.22382 0.44686 0.30036 0.0
C2449 C 0.23273 0.41741 0.31092 0.0
C2450 C 0.24373 0.42735 0.30414 0.0
C2451 C 0.25034 0.45185 0.2915 0.0
C2452 C 0.24605 0.46651 0.28581 0.0
C2453 C 0.23938 0.44203 0.29872 0.0
C2454 C 0.23068 0.47145 0.28787 0.0
C2455 C 0.21963 0.46168 0.29502 0.0
H2456 H 0.0839 0.69146 0.30293 0.0
H2457 H 0.10867 0.73081 0.32231 0.0
H2458 H 0.08986 0.7483 0.31053 0.0
H2459 H 0.06797 0.75268 0.29259 0.0
H2460 H 0.04448 0.71346 0.27152 0.0
H2461 H 0.0609 0.69579 0.28632 0.0
C2462 C 0.08519 0.70386 0.3046 0.0
C2463 C 0.09783 0.70974 0.31343 0.0
C2464 C 0.0745 0.71394 0.29748 0.0
C2465 C 0.09904 0.72586 0.31573 0.0
C2466 C 0.08833 0.73592 0.30888 0.0
C2467 C 0.06635 0.74026 0.2913 0.0
C2468 C 0.05503 0.73449 0.28079 0.0
C2469 C 0.07624 0.73012 0.29943 0.0
C2470 C 0.05292 0.71833 0.27959 0.0
C2471 C 0.06248 0.70817 0.28792 0.0
H2472 H 0.80689 0.58501 0.32886 0.0
H2473 H 0.80915 0.62249 0.29549 0.0
H2474 H 0.79785 0.60572 0.27561 0.0
H2475 H 0.78659 0.58079 0.26779 0.0
H2476 H 0.78413 0.54293 0.30059 0.0
H2477 H 0.79634 0.55938 0.32058 0.0
C2478 C 0.80489 0.58947 0.31724 0.0
C2479 C 0.80891 0.605 0.31368 0.0
C2480 C 0.79835 0.57971 0.30577 0.0
C2481 C 0.80638 0.61057 0.29851 0.0
C2482 C 0.79982 0.60101 0.28714 0.0
C2483 C 0.78868 0.57615 0.27934 0.0
C2484 C 0.78427 0.56075 0.2828 0.0
C2485 C 0.79567 0.58563 0.29066 0.0
C2486 C 0.7874 0.55477 0.29768 0.0
C2487 C 0.79431 0.56419 0.30911 0.0
H2488 H 0.94297 0.31462 0.32366 0.0
H2489 H 0.90264 0.29127 0.30414 0.0
H2490 H 0.91935 0.27596 0.28759 0.0
H2491 H 0.94516 0.26866 0.27917 0.0
H2492 H 0.98589 0.2926 0.29717 0.0
H2493 H 0.96931 0.30787 0.31414 0.0
C2494 C 0.93789 0.30619 0.31576 0.0
C2495 C 0.92155 0.30417 0.31508 0.0
C2496 C 0.94762 0.29743 0.30611 0.0
C2497 C 0.91513 0.29323 0.30474 0.0
C2498 C 0.92468 0.2844 0.29533 0.0
C2499 C 0.95051 0.27744 0.2865 0.0
C2500 C 0.96683 0.27954 0.28665 0.0
C2501 C 0.94091 0.28639 0.29593 0.0
C2502 C 0.9734 0.29062 0.29679 0.0
C2503 C 0.9639 0.29944 0.30645 0.0
H2504 H 0.80406 0.42574 0.71003 0.0
H2505 H 0.84568 0.43613 0.73664 0.0
H2506 H 0.8323 0.45692 0.74991 0.0
H2507 H 0.80815 0.47067 0.75565 0.0
H2508 H 0.76655 0.46052 0.72901 0.0
H2509 H 0.78062 0.44139 0.7139 0.0
C2510 C 0.81031 0.43273 0.71852 0.0
C2511 C 0.82581 0.42914 0.72247 0.0
C2512 C 0.80252 0.44473 0.72616 0.0
C2513 C 0.83364 0.43833 0.7336 0.0
C2514 C 0.82602 0.45031 0.74115 0.0
C2515 C 0.80226 0.46458 0.74627 0.0
C2516 C 0.78629 0.46699 0.74353 0.0
C2517 C 0.81037 0.45342 0.73777 0.0
C2518 C 0.7788 0.45878 0.73146 0.0
C2519 C 0.78684 0.44782 0.72283 0.0
H2520 H 0.09976 0.29029 0.70194 0.0
H2521 H 0.09282 0.33623 0.71998 0.0
H2522 H 0.07264 0.32615 0.73734 0.0
H2523 H 0.05823 0.30392 0.74873 0.0
H2524 H 0.0654 0.25807 0.7307 0.0
H2525 H 0.0839 0.26853 0.71175 0.0
C2526 C 0.09364 0.29818 0.70943 0.0
C2527 C 0.09795 0.31401 0.70968 0.0
C2528 C 0.08204 0.29231 0.71941 0.0
C2529 C 0.08999 0.32396 0.7197 0.0
C2530 C 0.07836 0.31821 0.72959 0.0
C2531 C 0.06358 0.29629 0.74041 0.0
C2532 C 0.06046 0.28024 0.74112 0.0
C2533 C 0.07446 0.30236 0.72973 0.0
C2534 C 0.06767 0.27046 0.73042 0.0
C2535 C 0.07828 0.27643 0.71962 0.0
H2536 H 0.93568 0.70578 0.71841 0.0
H2537 H 0.92001 0.74937 0.6995 0.0
H2538 H 0.94004 0.7632 0.71432 0.0
H2539 H 0.96053 0.7632 0.73431 0.0
H2540 H 0.97607 0.7198 0.75361 0.0
H2541 H 0.95808 0.70563 0.73654 0.0
C2542 C 0.93681 0.71827 0.71731 0.0
C2543 C 0.9261 0.72652 0.70805 0.0
C2544 C 0.94843 0.72622 0.72589 0.0
C2545 C 0.92778 0.74274 0.70684 0.0
C2546 C 0.93932 0.75067 0.71523 0.0
C2547 C 0.96012 0.75062 0.73463 0.0
C2548 C 0.96956 0.7426 0.74531 0.0
C2549 C 0.94946 0.74258 0.72507 0.0
C2550 C 0.96905 0.72629 0.74543 0.0
C2551 C 0.95861 0.71818 0.73578 0.0
H2552 H 0.72827 0.19428 0.59413 0.0
H2553 H 0.70904 0.23429 0.6165 0.0
H2554 H 0.72124 0.25125 0.59721 0.0
H2555 H 0.7391 0.25497 0.5753 0.0
H2556 H 0.75987 0.2151 0.55411 0.0
H2557 H 0.74518 0.19794 0.57141 0.0
C2558 C 0.72675 0.20671 0.59482 0.0
C2559 C 0.7178 0.21294 0.60688 0.0
C2560 C 0.73408 0.21648 0.58385 0.0
C2561 C 0.71571 0.22909 0.60731 0.0
C2562 C 0.72279 0.23884 0.59633 0.0
C2563 C 0.74039 0.24252 0.57442 0.0
C2564 C 0.75071 0.23641 0.56342 0.0
C2565 C 0.73226 0.23269 0.58474 0.0
C2566 C 0.75193 0.2202 0.56228 0.0
C2567 C 0.74365 0.21035 0.57232 0.0
H2568 H 0.30588 0.19935 0.58503 0.0
H2569 H 0.31438 0.23343 0.62071 0.0
H2570 H 0.30272 0.25337 0.60445 0.0
H2571 H 0.28903 0.26101 0.58076 0.0
H2572 H 0.28011 0.22754 0.54474 0.0
H2573 H 0.2931 0.20749 0.56036 0.0
C2574 C 0.30519 0.21115 0.5892 0.0
C2575 C 0.31105 0.21487 0.60409 0.0
C2576 C 0.29837 0.22265 0.57975 0.0
C2577 C 0.3102 0.23026 0.60926 0.0
C2578 C 0.30342 0.24167 0.6 0.0
C2579 C 0.28994 0.24931 0.57632 0.0
C2580 C 0.28344 0.24566 0.56174 0.0
C2581 C 0.29733 0.23797 0.58534 0.0
C2582 C 0.28499 0.23058 0.55596 0.0
C2583 C 0.29235 0.21913 0.56492 0.0
H2584 H 0.32248 0.8072 0.59405 0.0
H2585 H 0.2785 0.82271 0.61184 0.0
H2586 H 0.26457 0.80782 0.59206 0.0
H2587 H 0.26468 0.78913 0.57077 0.0
H2588 H 0.30847 0.77297 0.5532 0.0
H2589 H 0.3226 0.7898 0.57135 0.0
C2590 C 0.30986 0.80749 0.59346 0.0
C2591 C 0.30158 0.81588 0.60463 0.0
C2592 C 0.30185 0.79885 0.582 0.0
C2593 C 0.2852 0.81607 0.60368 0.0
C2594 C 0.2772 0.80764 0.59228 0.0
C2595 C 0.27733 0.78936 0.57083 0.0
C2596 C 0.28546 0.7797 0.56066 0.0
C2597 C 0.28538 0.79876 0.58157 0.0
C2598 C 0.30186 0.78036 0.56075 0.0
C2599 C 0.30997 0.78988 0.57127 0.0
H2600 H 0.72615 0.83235 0.58865 0.0
H2601 H 0.70439 0.79337 0.61202 0.0
H2602 H 0.71573 0.77571 0.59334 0.0
H2603 H 0.73379 0.77107 0.57192 0.0
H2604 H 0.75727 0.80992 0.54998 0.0
H2605 H 0.74311 0.8278 0.56632 0.0
C2606 C 0.72388 0.81999 0.58968 0.0
C2607 C 0.71451 0.81425 0.60187 0.0
C2608 C 0.73076 0.80983 0.57911 0.0
C2609 C 0.71142 0.7982 0.60273 0.0
C2610 C 0.71801 0.78805 0.5921 0.0
C2611 C 0.73578 0.78346 0.57065 0.0
C2612 C 0.74672 0.78906 0.55976 0.0
C2613 C 0.72799 0.7937 0.58047 0.0
C2614 C 0.74884 0.80519 0.55809 0.0
C2615 C 0.74086 0.81547 0.56758 0.0
H2616 H 0.73003 0.83101 0.43576 0.0
H2617 H 0.70061 0.79312 0.42008 0.0
H2618 H 0.7122 0.77605 0.4395 0.0
H2619 H 0.73202 0.77135 0.45971 0.0
H2620 H 0.76109 0.80931 0.47564 0.0
H2621 H 0.74786 0.82697 0.45781 0.0
C2622 C 0.72587 0.81912 0.43677 0.0
C2623 C 0.7146 0.81337 0.42621 0.0
C2624 C 0.73249 0.80935 0.44809 0.0
C2625 C 0.70954 0.79783 0.42771 0.0
C2626 C 0.71609 0.78805 0.43891 0.0
C2627 C 0.73531 0.78353 0.4594 0.0
C2628 C 0.74756 0.78897 0.46896 0.0
C2629 C 0.7278 0.7936 0.44894 0.0
C2630 C 0.7516 0.80482 0.46854 0.0
C2631 C 0.74414 0.81491 0.45822 0.0
H2632 H 0.71996 0.20044 0.43947 0.0
H2633 H 0.69528 0.24195 0.42681 0.0
H2634 H 0.71045 0.25678 0.4457 0.0
H2635 H 0.73177 0.25846 0.4647 0.0
H2636 H 0.75723 0.21738 0.47699 0.0
H2637 H 0.74057 0.20191 0.45969 0.0
C2638 C 0.71791 0.21273 0.44087 0.0
C2639 C 0.70646 0.22003 0.43169 0.0
C2640 C 0.72678 0.22129 0.45177 0.0
C2641 C 0.70385 0.23595 0.43381 0.0
C2642 C 0.71259 0.24449 0.44457 0.0
C2643 C 0.73362 0.2461 0.46367 0.0
C2644 C 0.74581 0.23914 0.47209 0.0
C2645 C 0.7242 0.23734 0.45348 0.0
C2646 C 0.74786 0.22305 0.47079 0.0
C2647 C 0.73843 0.21421 0.46076 0.0
H2648 H 0.33206 0.23115 0.43784 0.0
H2649 H 0.29362 0.2034 0.42024 0.0
H2650 H 0.27637 0.21463 0.43938 0.0
H2651 H 0.27173 0.23359 0.46002 0.0
H2652 H 0.31018 0.26108 0.47778 0.0
H2653 H 0.32795 0.24822 0.46015 0.0
C2654 C 0.32 0.22729 0.43835 0.0
C2655 C 0.31418 0.21657 0.42736 0.0
C2656 C 0.31011 0.2337 0.44952 0.0
C2657 C 0.29841 0.21191 0.42822 0.0
C2658 C 0.28852 0.21824 0.43927 0.0
C2659 C 0.28403 0.23663 0.46015 0.0
C2660 C 0.28957 0.24833 0.4702 0.0
C2661 C 0.29417 0.22937 0.44978 0.0
C2662 C 0.3056 0.25201 0.47032 0.0
C2663 C 0.31575 0.24477 0.4601 0.0
H2664 H 0.31385 0.82393 0.44277 0.0
H2665 H 0.31302 0.79075 0.40544 0.0
H2666 H 0.30023 0.77171 0.42221 0.0
H2667 H 0.28826 0.76472 0.44701 0.0
H2668 H 0.28865 0.79748 0.48459 0.0
H2669 H 0.30268 0.81641 0.46826 0.0
C2670 C 0.31087 0.81253 0.43833 0.0
C2671 C 0.31444 0.80881 0.42283 0.0
C2672 C 0.30339 0.80157 0.44806 0.0
C2673 C 0.31064 0.7939 0.41734 0.0
C2674 C 0.30321 0.78301 0.42689 0.0
C2675 C 0.29138 0.77603 0.45162 0.0
C2676 C 0.28723 0.77979 0.46691 0.0
C2677 C 0.29938 0.78677 0.44219 0.0
C2678 C 0.29169 0.79433 0.47285 0.0
C2679 C 0.29965 0.80516 0.46349 0.0
H2680 H 0.59064 0.2051 0.72008 0.0
H2681 H 0.60959 0.24881 0.70374 0.0
H2682 H 0.59057 0.26275 0.71898 0.0
H2683 H 0.56942 0.26271 0.73795 0.0
H2684 H 0.55073 0.21923 0.75503 0.0
H2685 H 0.56849 0.2051 0.73834 0.0
C2686 C 0.5906 0.21767 0.71987 0.0
C2687 C 0.60156 0.22586 0.71074 0.0
C2688 C 0.57959 0.22569 0.72875 0.0
C2689 C 0.6012 0.24217 0.71048 0.0
C2690 C 0.59036 0.25018 0.71927 0.0
C2691 C 0.56917 0.25013 0.73797 0.0
C2692 C 0.55876 0.24208 0.7478 0.0
C2693 C 0.57961 0.24208 0.72855 0.0
C2694 C 0.55846 0.22576 0.74748 0.0
C2695 C 0.56875 0.21766 0.73805 0.0
H2696 H 0.29843 0.10492 0.7131 0.0
H2697 H 0.34242 0.08602 0.72796 0.0
H2698 H 0.32881 0.06562 0.74239 0.0
H2699 H 0.30451 0.0547 0.75291 0.0
H2700 H 0.26045 0.0731 0.73769 0.0
H2701 H 0.274 0.09194 0.72112 0.0
C2702 C 0.30506 0.09616 0.71921 0.0
C2703 C 0.32145 0.09723 0.71963 0.0
C2704 C 0.29714 0.08438 0.72752 0.0
C2705 C 0.3298 0.08576 0.72772 0.0
C2706 C 0.32203 0.07401 0.73593 0.0
C2707 C 0.29783 0.06253 0.74566 0.0
C2708 C 0.28146 0.06254 0.74668 0.0
C2709 C 0.3057 0.07343 0.73624 0.0
C2710 C 0.27306 0.07297 0.73731 0.0
C2711 C 0.2808 0.08376 0.72783 0.0
H2712 H 0.44218 0.81106 0.70369 0.0
H2713 H 0.40623 0.81419 0.7383 0.0
H2714 H 0.42328 0.80224 0.7575 0.0
H2715 H 0.44774 0.78954 0.76421 0.0
H2716 H 0.48396 0.78599 0.73008 0.0
H2717 H 0.46757 0.79953 0.71098 0.0
C2718 C 0.43812 0.80915 0.71545 0.0
C2719 C 0.4229 0.81355 0.71951 0.0
C2720 C 0.44801 0.80215 0.7265 0.0
C2721 C 0.41791 0.81115 0.73486 0.0
C2722 C 0.42762 0.80419 0.74585 0.0
C2723 C 0.45205 0.79176 0.75258 0.0
C2724 C 0.46693 0.7866 0.74847 0.0
C2725 C 0.44259 0.79947 0.74175 0.0
C2726 C 0.47253 0.78984 0.73349 0.0
C2727 C 0.46313 0.7975 0.72257 0.0
H2728 H 0.69594 0.93515 0.73121 0.0
H2729 H 0.73576 0.91912 0.70582 0.0
H2730 H 0.7523 0.93852 0.71856 0.0
H2731 H 0.75582 0.95901 0.73812 0.0
H2732 H 0.71593 0.97495 0.76339 0.0
H2733 H 0.69902 0.95708 0.74902 0.0
C2734 C 0.70816 0.93607 0.72818 0.0
C2735 C 0.71456 0.92549 0.71765 0.0
C2736 C 0.71763 0.94733 0.73549 0.0
C2737 C 0.73052 0.92683 0.71411 0.0
C2738 C 0.74 0.93801 0.72132 0.0
C2739 C 0.7434 0.95866 0.74038 0.0
C2740 C 0.7372 0.96831 0.75186 0.0
C2741 C 0.73374 0.94813 0.73225 0.0
C2742 C 0.72104 0.96783 0.75451 0.0
C2743 C 0.71136 0.95748 0.74639 0.0
H2744 H 0.59823 0.81974 0.30114 0.0
H2745 H 0.59046 0.7928 0.34286 0.0
H2746 H 0.57029 0.77762 0.32966 0.0
H2747 H 0.55677 0.77008 0.30553 0.0
H2748 H 0.56567 0.79581 0.2634 0.0
H2749 H 0.58346 0.81328 0.27742 0.0
C2750 C 0.59213 0.81056 0.30736 0.0
C2751 C 0.59599 0.80744 0.32299 0.0
C2752 C 0.58075 0.80157 0.29958 0.0
C2753 C 0.58768 0.79566 0.33091 0.0
C2754 C 0.5762 0.78684 0.32332 0.0
C2755 C 0.56232 0.77975 0.29953 0.0
C2756 C 0.55991 0.78169 0.28348 0.0
C2757 C 0.57285 0.78948 0.30758 0.0
C2758 C 0.56738 0.7941 0.27576 0.0
C2759 C 0.57759 0.80404 0.28376 0.0
H2760 H 0.70838 0.10121 0.30661 0.0
H2761 H 0.73001 0.08603 0.34936 0.0
H2762 H 0.74356 0.06576 0.33548 0.0
H2763 H 0.75149 0.05415 0.31083 0.0
H2764 H 0.72984 0.0691 0.26808 0.0
H2765 H 0.71385 0.08733 0.28236 0.0
C2766 C 0.71579 0.09327 0.31297 0.0
C2767 C 0.71836 0.0954 0.329 0.0
C2768 C 0.72361 0.08157 0.30489 0.0
C2769 C 0.7281 0.08498 0.33696 0.0
C2770 C 0.73581 0.07329 0.32905 0.0
C2771 C 0.74294 0.06105 0.30468 0.0
C2772 C 0.74195 0.0603 0.28838 0.0
C2773 C 0.73398 0.07172 0.31295 0.0
C2774 C 0.73094 0.06953 0.28061 0.0
C2775 C 0.72183 0.08001 0.28877 0.0
H2776 H 0.43744 0.21735 0.32725 0.0
H2777 H 0.4207 0.19671 0.28466 0.0
H2778 H 0.43984 0.21169 0.26989 0.0
H2779 H 0.4603 0.23176 0.26877 0.0
H2780 H 0.4769 0.25301 0.31105 0.0
H2781 H 0.45915 0.23654 0.32622 0.0
C2782 C 0.43802 0.21614 0.31474 0.0
C2783 C 0.42762 0.20591 0.3071 0.0
C2784 C 0.4491 0.22485 0.30625 0.0
C2785 C 0.42865 0.20434 0.29089 0.0
C2786 C 0.43956 0.21297 0.2824 0.0
C2787 C 0.46012 0.2327 0.28132 0.0
C2788 C 0.46988 0.24365 0.28874 0.0
C2789 C 0.44971 0.22339 0.28992 0.0
C2790 C 0.46964 0.24458 0.30504 0.0
C2791 C 0.45936 0.23527 0.31371 0.0
H2792 H 0.32906 0.94329 0.31089 0.0
H2793 H 0.29392 0.90751 0.31721 0.0
H2794 H 0.2744 0.92411 0.30539 0.0
H2795 H 0.26749 0.94802 0.29187 0.0
H2796 H 0.30205 0.98408 0.28501 0.0
H2797 H 0.32161 0.96822 0.29849 0.0
C2798 C 0.31712 0.93916 0.30971 0.0
C2799 C 0.313 0.92413 0.31497 0.0
C2800 C 0.30587 0.94879 0.30275 0.0
C2801 C 0.29742 0.91906 0.3135 0.0
C2802 C 0.28624 0.92851 0.30662 0.0
C2803 C 0.27931 0.95242 0.29337 0.0
C2804 C 0.28343 0.96707 0.28728 0.0
C2805 C 0.29037 0.94327 0.30102 0.0
C2806 C 0.29866 0.9728 0.28957 0.0
C2807 C 0.30982 0.96371 0.2972 0.0
H2808 H 0.69261 0.09163 0.73321 0.0
H2809 H 0.73259 0.11733 0.71624 0.0
H2810 H 0.74995 0.09845 0.72814 0.0
H2811 H 0.75391 0.07573 0.745 0.0
H2812 H 0.71394 0.05103 0.76338 0.0
H2813 H 0.69657 0.06823 0.74914 0.0
C2814 C 0.70512 0.09313 0.73212 0.0
C2815 C 0.71122 0.106 0.72388 0.0
C2816 C 0.7151 0.08236 0.73925 0.0
C2817 C 0.72749 0.10751 0.72235 0.0
C2818 C 0.73747 0.09676 0.72926 0.0
C2819 C 0.7414 0.07406 0.74586 0.0
C2820 C 0.73533 0.06206 0.75535 0.0
C2821 C 0.73142 0.08429 0.73797 0.0
C2822 C 0.71905 0.05996 0.75605 0.0
C2823 C 0.70906 0.06994 0.74803 0.0
H2824 H 0.71753 0.93505 0.32331 0.0
H2825 H 0.70337 0.91576 0.2792 0.0
H2826 H 0.71871 0.9355 0.2656 0.0
H2827 H 0.73729 0.95733 0.26614 0.0
H2828 H 0.75202 0.97645 0.31011 0.0
H2829 H 0.73489 0.95814 0.32376 0.0
C2830 C 0.71763 0.93529 0.31073 0.0
C2831 C 0.70947 0.92374 0.30233 0.0
C2832 C 0.72651 0.94674 0.30291 0.0
C2833 C 0.70981 0.92424 0.286 0.0
C2834 C 0.7185 0.93561 0.27818 0.0
C2835 C 0.73669 0.95756 0.27872 0.0
C2836 C 0.74602 0.96823 0.28706 0.0
C2837 C 0.7271 0.94675 0.28651 0.0
C2838 C 0.74488 0.9685 0.30335 0.0
C2839 C 0.73519 0.9579 0.31119 0.0
H2840 H 0.5862 0.19824 0.31324 0.0
H2841 H 0.62355 0.23216 0.31631 0.0
H2842 H 0.60704 0.25159 0.30421 0.0
H2843 H 0.58254 0.25877 0.29167 0.0
H2844 H 0.54484 0.22542 0.28827 0.0
H2845 H 0.56082 0.206 0.3017 0.0
C2846 C 0.59068 0.2099 0.31127 0.0
C2847 C 0.60612 0.21371 0.31571 0.0
C2848 C 0.58107 0.22111 0.30424 0.0
C2849 C 0.6117 0.22893 0.31322 0.0
C2850 C 0.60228 0.24005 0.3062 0.0
C2851 C 0.57781 0.24724 0.29389 0.0
C2852 C 0.56262 0.24344 0.28882 0.0
C2853 C 0.58704 0.23623 0.30153 0.0
C2854 C 0.55651 0.22859 0.29206 0.0
C2855 C 0.56568 0.21749 0.29965 0.0
H2856 H 0.30064 0.08977 0.3338 0.0
H2857 H 0.31727 0.11598 0.29426 0.0
H2858 H 0.3057 0.09682 0.27674 0.0
H2859 H 0.28904 0.07376 0.27258 0.0
H2860 H 0.27092 0.04865 0.31221 0.0
H2861 H 0.28506 0.06604 0.32964 0.0
C2862 C 0.30173 0.09131 0.32135 0.0
C2863 C 0.30973 0.10441 0.31541 0.0
C2864 C 0.29478 0.08039 0.31131 0.0
C2865 C 0.31131 0.10599 0.29922 0.0
C2866 C 0.30459 0.09507 0.28916 0.0
C2867 C 0.28823 0.07204 0.28503 0.0
C2868 C 0.27883 0.05988 0.29099 0.0
C2869 C 0.29604 0.0824 0.29507 0.0
C2870 C 0.27819 0.05771 0.30719 0.0
C2871 C 0.28615 0.06779 0.31722 0.0
H2872 H 0.43854 0.79777 0.33109 0.0
H2873 H 0.42135 0.82381 0.29172 0.0
H2874 H 0.43996 0.81113 0.27491 0.0
H2875 H 0.45994 0.79137 0.27099 0.0
H2876 H 0.47726 0.76554 0.31036 0.0
H2877 H 0.46025 0.77987 0.3276 0.0
C2878 C 0.43904 0.80095 0.3189 0.0
C2879 C 0.42832 0.81163 0.31271 0.0
C2880 C 0.44988 0.79368 0.30926 0.0
C2881 C 0.42914 0.81539 0.29681 0.0
C2882 C 0.43988 0.80821 0.28716 0.0
C2883 C 0.46009 0.789 0.28337 0.0
C2884 C 0.46983 0.77734 0.28934 0.0
C2885 C 0.45009 0.79711 0.2932 0.0
C2886 C 0.47003 0.77454 0.30545 0.0
C2887 C 0.46017 0.78263 0.31531 0.0
H2888 H 0.33189 0.93733 0.72886 0.0
H2889 H 0.29291 0.92023 0.70164 0.0
H2890 H 0.27609 0.93943 0.71329 0.0
H2891 H 0.27195 0.95988 0.73256 0.0
H2892 H 0.31095 0.97713 0.75953 0.0
H2893 H 0.32832 0.95955 0.74614 0.0
C2894 C 0.31981 0.93797 0.72518 0.0
C2895 C 0.3137 0.92709 0.71451 0.0
C2896 C 0.31017 0.94917 0.73184 0.0
C2897 C 0.29791 0.92812 0.7101 0.0
C2898 C 0.28827 0.9392 0.71668 0.0
C2899 C 0.28429 0.95991 0.73536 0.0
C2900 C 0.2901 0.96978 0.74708 0.0
C2901 C 0.29419 0.94957 0.72779 0.0
C2902 C 0.30616 0.9698 0.75046 0.0
C2903 C 0.31609 0.95961 0.74291 0.0
H2904 H 0.58487 0.80958 0.70291 0.0
H2905 H 0.62242 0.81033 0.73651 0.0
H2906 H 0.60557 0.79792 0.75569 0.0
H2907 H 0.58064 0.78587 0.7627 0.0
H2908 H 0.54276 0.78482 0.7296 0.0
H2909 H 0.55919 0.7984 0.71046 0.0
C2910 C 0.58933 0.80703 0.71444 0.0
C2911 C 0.60491 0.81092 0.71824 0.0
C2912 C 0.57954 0.79981 0.72548 0.0
C2913 C 0.61046 0.80768 0.7333 0.0
C2914 C 0.60085 0.80048 0.74427 0.0
C2915 C 0.57599 0.78859 0.75127 0.0
C2916 C 0.5606 0.78416 0.74746 0.0
C2917 C 0.58546 0.79635 0.74044 0.0
C2918 C 0.55459 0.78808 0.73276 0.0
C2919 C 0.564 0.79578 0.72183 0.0
H2920 H 0.43974 0.21914 0.701 0.0
H2921 H 0.40261 0.21774 0.73457 0.0
H2922 H 0.41961 0.23006 0.75376 0.0
H2923 H 0.44464 0.24195 0.76087 0.0
H2924 H 0.48214 0.24354 0.72787 0.0
H2925 H 0.46546 0.23036 0.7086 0.0
C2926 C 0.4354 0.22155 0.71252 0.0
C2927 C 0.41991 0.21748 0.71633 0.0
C2928 C 0.44529 0.22869 0.72357 0.0
C2929 C 0.41452 0.22053 0.73137 0.0
C2930 C 0.4242 0.22768 0.74233 0.0
C2931 C 0.44914 0.23947 0.74942 0.0
C2932 C 0.4645 0.2439 0.74569 0.0
C2933 C 0.43954 0.23191 0.73853 0.0
C2934 C 0.47033 0.24027 0.73097 0.0
C2935 C 0.46077 0.2328 0.71996 0.0
H2936 H 0.72041 0.69763 0.08383 0.0
H2937 H 0.71297 0.73253 0.11863 0.0
H2938 H 0.72497 0.75213 0.10195 0.0
H2939 H 0.73861 0.75928 0.07814 0.0
H2940 H 0.74662 0.72495 0.04307 0.0
H2941 H 0.73328 0.70522 0.0591 0.0
C2942 C 0.72142 0.70953 0.08773 0.0
C2943 C 0.71573 0.71356 0.10249 0.0
C2944 C 0.72846 0.72083 0.07806 0.0
C2945 C 0.71699 0.72909 0.10728 0.0
C2946 C 0.72397 0.74032 0.09779 0.0
C2947 C 0.73746 0.74746 0.07401 0.0
C2948 C 0.7438 0.7435 0.05956 0.0
C2949 C 0.72988 0.73629 0.08326 0.0
C2950 C 0.74188 0.72825 0.05418 0.0
C2951 C 0.73432 0.71699 0.06337 0.0
H2952 H 0.2964 0.69277 0.08991 0.0
H2953 H 0.31746 0.73202 0.11327 0.0
H2954 H 0.30569 0.74956 0.09438 0.0
H2955 H 0.2878 0.75396 0.07244 0.0
H2956 H 0.26513 0.71476 0.05043 0.0
H2957 H 0.27932 0.69711 0.06736 0.0
C2958 C 0.2984 0.70516 0.09091 0.0
C2959 C 0.30774 0.71101 0.10312 0.0
C2960 C 0.29132 0.71525 0.08019 0.0
C2961 C 0.31046 0.72711 0.10396 0.0
C2962 C 0.30363 0.7372 0.0932 0.0
C2963 C 0.28597 0.74155 0.07131 0.0
C2964 C 0.27531 0.73579 0.06015 0.0
C2965 C 0.2938 0.73142 0.08145 0.0
C2966 C 0.27337 0.71962 0.0587 0.0
C2967 C 0.28137 0.70947 0.06853 0.0
H2968 H 0.30134 0.33412 0.09129 0.0
H2969 H 0.32471 0.29582 0.11345 0.0
H2970 H 0.31379 0.2781 0.09416 0.0
H2971 H 0.29591 0.27303 0.07234 0.0
H2972 H 0.27085 0.31102 0.05154 0.0
H2973 H 0.28433 0.32921 0.06871 0.0
C2974 C 0.30404 0.32189 0.09194 0.0
C2975 C 0.31379 0.31637 0.10395 0.0
C2976 C 0.29743 0.31165 0.08099 0.0
C2977 C 0.3174 0.30051 0.10432 0.0
C2978 C 0.31106 0.2903 0.09333 0.0
C2979 C 0.2934 0.2853 0.07151 0.0
C2980 C 0.28224 0.29054 0.06066 0.0
C2981 C 0.30081 0.29569 0.08181 0.0
C2982 C 0.27947 0.30656 0.05958 0.0
C2983 C 0.28706 0.317 0.06956 0.0
H2984 H 0.70493 0.31263 0.09523 0.0
H2985 H 0.74926 0.32725 0.11455 0.0
H2986 H 0.76284 0.31131 0.09586 0.0
H2987 H 0.76224 0.29228 0.07482 0.0
H2988 H 0.71804 0.27688 0.05589 0.0
H2989 H 0.7044 0.29419 0.07338 0.0
C2990 C 0.71756 0.3123 0.09535 0.0
C2991 C 0.72603 0.32116 0.10631 0.0
C2992 C 0.72536 0.30301 0.08457 0.0
C2993 C 0.74242 0.32073 0.10616 0.0
C2994 C 0.75022 0.31154 0.09551 0.0
C2995 C 0.74962 0.29275 0.07447 0.0
C2996 C 0.74121 0.28324 0.06405 0.0
C2997 C 0.74182 0.30253 0.08476 0.0
C2998 C 0.72486 0.28418 0.06363 0.0
C2999 C 0.71702 0.29398 0.07376 0.0
H3000 H 0.71597 0.32941 0.94509 0.0
H3001 H 0.71322 0.29567 0.90833 0.0
H3002 H 0.72487 0.27627 0.92529 0.0
H3003 H 0.73688 0.2691 0.95005 0.0
H3004 H 0.74007 0.30238 0.98709 0.0
H3005 H 0.72712 0.32173 0.97061 0.0
C3006 C 0.71792 0.31781 0.94082 0.0
C3007 C 0.71369 0.31403 0.92543 0.0
C3008 C 0.72473 0.30665 0.95067 0.0
C3009 C 0.71614 0.29887 0.92015 0.0
C3010 C 0.72291 0.28778 0.92981 0.0
C3011 C 0.73477 0.28061 0.95451 0.0
C3012 C 0.73962 0.2844 0.96967 0.0
C3013 C 0.7274 0.29158 0.94501 0.0
C3014 C 0.73647 0.29922 0.97544 0.0
C3015 C 0.72914 0.31028 0.966 0.0
H3016 H 0.71027 0.70687 0.93864 0.0
H3017 H 0.70886 0.74473 0.9057 0.0
H3018 H 0.72522 0.76056 0.92274 0.0
H3019 H 0.73966 0.76393 0.94688 0.0
H3020 H 0.74126 0.72689 0.98062 0.0
H3021 H 0.72492 0.71052 0.96356 0.0
C3022 C 0.71364 0.71856 0.93523 0.0
C3023 C 0.70831 0.72465 0.92095 0.0
C3024 C 0.72298 0.72776 0.94525 0.0
C3025 C 0.71266 0.73985 0.91669 0.0
C3026 C 0.72205 0.7489 0.92641 0.0
C3027 C 0.73657 0.7522 0.95047 0.0
C3028 C 0.74187 0.74653 0.96488 0.0
C3029 C 0.72722 0.74301 0.94069 0.0
C3030 C 0.73737 0.73149 0.96955 0.0
C3031 C 0.72809 0.72214 0.95977 0.0
H3032 H 0.30345 0.70519 0.93409 0.0
H3033 H 0.32686 0.74815 0.92192 0.0
H3034 H 0.31209 0.76179 0.9415 0.0
H3035 H 0.29128 0.76199 0.96083 0.0
H3036 H 0.26756 0.71929 0.97307 0.0
H3037 H 0.28404 0.70504 0.95518 0.0
C3038 C 0.3055 0.71748 0.93588 0.0
C3039 C 0.31608 0.72565 0.92629 0.0
C3040 C 0.29694 0.72533 0.94725 0.0
C3041 C 0.31853 0.74161 0.92882 0.0
C3042 C 0.31015 0.74943 0.9401 0.0
C3043 C 0.28981 0.74954 0.95968 0.0
C3044 C 0.27813 0.74176 0.96822 0.0
C3045 C 0.2991 0.74148 0.94916 0.0
C3046 C 0.27653 0.72557 0.96675 0.0
C3047 C 0.28586 0.71744 0.95639 0.0
H3048 H 0.31673 0.31792 0.93933 0.0
H3049 H 0.2825 0.30899 0.90342 0.0
H3050 H 0.26754 0.29259 0.92113 0.0
H3051 H 0.26366 0.28134 0.94675 0.0
H3052 H 0.29737 0.28963 0.98322 0.0
H3053 H 0.31293 0.30592 0.96547 0.0
C3054 C 0.30606 0.31227 0.9354 0.0
C3055 C 0.30068 0.31478 0.92009 0.0
C3056 C 0.29737 0.30285 0.94576 0.0
C3057 C 0.28678 0.30745 0.91518 0.0
C3058 C 0.27823 0.29802 0.92529 0.0
C3059 C 0.27455 0.28648 0.95081 0.0
C3060 C 0.27946 0.28405 0.96625 0.0
C3061 C 0.28335 0.29573 0.94059 0.0
C3062 C 0.29333 0.29128 0.97139 0.0
C3063 C 0.30225 0.30054 0.96122 0.0
H3064 H 0.58657 0.71538 0.19955 0.0
H3065 H 0.62419 0.71664 0.23306 0.0
H3066 H 0.60734 0.72899 0.25182 0.0
H3067 H 0.58228 0.74015 0.25856 0.0
H3068 H 0.54429 0.73907 0.22559 0.0
H3069 H 0.56084 0.72587 0.20679 0.0
C3070 C 0.59105 0.71837 0.21096 0.0
C3071 C 0.60664 0.71505 0.21488 0.0
C3072 C 0.58124 0.72553 0.22177 0.0
C3073 C 0.61221 0.71885 0.22978 0.0
C3074 C 0.60261 0.72602 0.24051 0.0
C3075 C 0.57763 0.73709 0.24722 0.0
C3076 C 0.56216 0.74078 0.24337 0.0
C3077 C 0.58717 0.72951 0.23659 0.0
C3078 C 0.55618 0.73638 0.22879 0.0
C3079 C 0.56566 0.72889 0.21805 0.0
H3080 H 0.3006 0.59798 0.20651 0.0
H3081 H 0.3422 0.59075 0.23395 0.0
H3082 H 0.32908 0.57006 0.24836 0.0
H3083 H 0.30495 0.55604 0.25529 0.0
H3084 H 0.26282 0.56451 0.22929 0.0
H3085 H 0.27692 0.58263 0.21226 0.0
C3086 C 0.30682 0.59188 0.21563 0.0
C3087 C 0.32239 0.59607 0.21913 0.0
C3088 C 0.29906 0.5802 0.2242 0.0
C3089 C 0.3303 0.58774 0.2308 0.0
C3090 C 0.32276 0.57595 0.23917 0.0
C3091 C 0.29898 0.56153 0.24561 0.0
C3092 C 0.2829 0.5589 0.24347 0.0
C3093 C 0.30705 0.57231 0.23621 0.0
C3094 C 0.27521 0.56634 0.2311 0.0
C3095 C 0.28325 0.57676 0.22145 0.0
H3096 H 0.43575 0.32228 0.2226 0.0
H3097 H 0.41793 0.27934 0.20355 0.0
H3098 H 0.43784 0.26496 0.21758 0.0
H3099 H 0.45923 0.26426 0.23652 0.0
H3100 H 0.47693 0.30692 0.25619 0.0
H3101 H 0.45863 0.32171 0.24024 0.0
C3102 C 0.43636 0.30981 0.22135 0.0
C3103 C 0.42514 0.30191 0.21221 0.0
C3104 C 0.44791 0.30153 0.22951 0.0
C3105 C 0.42613 0.28571 0.21078 0.0
C3106 C 0.4376 0.27746 0.21873 0.0
C3107 C 0.45917 0.27681 0.23725 0.0
C3108 C 0.46939 0.28443 0.24763 0.0
C3109 C 0.44836 0.2852 0.22834 0.0
C3110 C 0.46931 0.30073 0.24821 0.0
C3111 C 0.45871 0.30919 0.23921 0.0
H3112 H 0.71802 0.43609 0.20609 0.0
H3113 H 0.70205 0.41718 0.24978 0.0
H3114 H 0.71798 0.43611 0.26382 0.0
H3115 H 0.73759 0.45705 0.26385 0.0
H3116 H 0.75441 0.47554 0.22033 0.0
H3117 H 0.73684 0.45804 0.20615 0.0
C3118 C 0.71804 0.43612 0.21868 0.0
C3119 C 0.70884 0.42518 0.22684 0.0
C3120 C 0.72734 0.44704 0.22675 0.0
C3121 C 0.70886 0.42554 0.24317 0.0
C3122 C 0.71804 0.43633 0.25124 0.0
C3123 C 0.73735 0.45731 0.25125 0.0
C3124 C 0.74737 0.46757 0.2432 0.0
C3125 C 0.72746 0.447 0.24317 0.0
C3126 C 0.74672 0.46791 0.22687 0.0
C3127 C 0.73679 0.45777 0.21873 0.0
H3128 H 0.59049 0.30086 0.83295 0.0
H3129 H 0.60956 0.32491 0.79312 0.0
H3130 H 0.59036 0.31218 0.77631 0.0
H3131 H 0.56921 0.29297 0.77264 0.0
H3132 H 0.55016 0.26902 0.81249 0.0
H3133 H 0.56785 0.28344 0.82959 0.0
C3134 C 0.59029 0.3036 0.82065 0.0
C3135 C 0.60166 0.31373 0.81435 0.0
C3136 C 0.57913 0.2963 0.81102 0.0
C3137 C 0.60122 0.31692 0.7983 0.0
C3138 C 0.59016 0.30971 0.78866 0.0
C3139 C 0.56884 0.29102 0.78509 0.0
C3140 C 0.55839 0.27988 0.79124 0.0
C3141 C 0.57925 0.29916 0.79485 0.0
C3142 C 0.55793 0.27763 0.80742 0.0
C3143 C 0.56818 0.28576 0.81721 0.0
H3144 H 0.72772 0.58743 0.83472 0.0
H3145 H 0.70688 0.61078 0.79544 0.0
H3146 H 0.71851 0.59221 0.77788 0.0
H3147 H 0.73626 0.57062 0.77343 0.0
H3148 H 0.75863 0.54846 0.81256 0.0
H3149 H 0.74456 0.56505 0.83032 0.0
C3150 C 0.72573 0.58849 0.82232 0.0
C3151 C 0.71647 0.60061 0.81648 0.0
C3152 C 0.73272 0.57792 0.8122 0.0
C3153 C 0.71378 0.60153 0.80036 0.0
C3154 C 0.72054 0.59096 0.79026 0.0
C3155 C 0.73804 0.56937 0.78584 0.0
C3156 C 0.74861 0.5583 0.79156 0.0
C3157 C 0.73027 0.57929 0.79602 0.0
C3158 C 0.75047 0.55669 0.80774 0.0
C3159 C 0.74255 0.56632 0.81794 0.0
H3160 H 0.43307 0.71857 0.8256 0.0
H3161 H 0.41605 0.69979 0.78224 0.0
H3162 H 0.43607 0.71428 0.76815 0.0
H3163 H 0.45719 0.73365 0.76784 0.0
H3164 H 0.47412 0.753 0.81092 0.0
H3165 H 0.45583 0.7365 0.82542 0.0
C3166 C 0.4339 0.71747 0.8131 0.0
C3167 C 0.42285 0.7083 0.80499 0.0
C3168 C 0.4455 0.72588 0.805 0.0
C3169 C 0.42411 0.70705 0.78876 0.0
C3170 C 0.43564 0.71525 0.78069 0.0
C3171 C 0.45697 0.73416 0.78042 0.0
C3172 C 0.46694 0.74463 0.78825 0.0
C3173 C 0.44618 0.72494 0.78864 0.0
C3174 C 0.46668 0.74496 0.80458 0.0
C3175 C 0.45609 0.73565 0.81287 0.0
H3176 H 0.33521 0.43527 0.79696 0.0
H3177 H 0.29717 0.41832 0.82523 0.0
H3178 H 0.27997 0.43747 0.81364 0.0
H3179 H 0.2752 0.45802 0.79431 0.0
H3180 H 0.3133 0.4754 0.7665 0.0
H3181 H 0.33107 0.45754 0.77951 0.0
C3182 C 0.32326 0.43592 0.80085 0.0
C3183 C 0.31752 0.42508 0.81183 0.0
C3184 C 0.3134 0.44714 0.79426 0.0
C3185 C 0.30189 0.42615 0.81653 0.0
C3186 C 0.29202 0.43721 0.80998 0.0
C3187 C 0.28744 0.458 0.79123 0.0
C3188 C 0.29288 0.46801 0.77941 0.0
C3189 C 0.29757 0.44757 0.79863 0.0
C3190 C 0.30881 0.46796 0.77566 0.0
C3191 C 0.31896 0.45762 0.78299 0.0
H3192 H 0.71873 0.59022 0.2011 0.0
H3193 H 0.69556 0.60375 0.24312 0.0
H3194 H 0.71085 0.58527 0.25807 0.0
H3195 H 0.7319 0.56643 0.25962 0.0
H3196 H 0.75578 0.55319 0.21797 0.0
H3197 H 0.73897 0.57008 0.2025 0.0
C3198 C 0.71703 0.58909 0.21353 0.0
C3199 C 0.70599 0.5984 0.22095 0.0
C3200 C 0.72596 0.57842 0.22214 0.0
C3201 C 0.70382 0.59664 0.23704 0.0
C3202 C 0.71262 0.58612 0.24565 0.0
C3203 C 0.73335 0.56716 0.24714 0.0
C3204 C 0.74514 0.55861 0.24 0.0
C3205 C 0.72385 0.5771 0.23837 0.0
C3206 C 0.74671 0.55951 0.22377 0.0
C3207 C 0.73721 0.56931 0.21493 0.0
H3208 H 0.70097 0.43175 0.79221 0.0
H3209 H 0.72326 0.43707 0.83696 0.0
H3210 H 0.74112 0.45655 0.8261 0.0
H3211 H 0.75168 0.47064 0.80337 0.0
H3212 H 0.72959 0.46482 0.75864 0.0
H3213 H 0.71011 0.4473 0.77009 0.0
C3214 C 0.70952 0.43738 0.79969 0.0
C3215 C 0.71079 0.43285 0.81539 0.0
C3216 C 0.71979 0.44853 0.79336 0.0
C3217 C 0.72215 0.44012 0.82479 0.0
C3218 C 0.73233 0.45134 0.81861 0.0
C3219 C 0.74237 0.46582 0.79624 0.0
C3220 C 0.74203 0.46903 0.7802 0.0
C3221 C 0.73143 0.45545 0.80284 0.0
C3222 C 0.73007 0.46249 0.77101 0.0
C3223 C 0.71899 0.45243 0.77754 0.0
H3224 H 0.5934 0.71572 0.82357 0.0
H3225 H 0.60526 0.69442 0.78006 0.0
H3226 H 0.58554 0.70961 0.76668 0.0
H3227 H 0.5663 0.73034 0.76686 0.0
H3228 H 0.55424 0.75184 0.81011 0.0
H3229 H 0.57217 0.7348 0.8241 0.0
C3230 C 0.5915 0.7142 0.81121 0.0
C3231 C 0.60109 0.70412 0.80283 0.0
C3232 C 0.58002 0.72297 0.80352 0.0
C3233 C 0.59841 0.70238 0.78678 0.0
C3234 C 0.58703 0.71099 0.77911 0.0
C3235 C 0.56746 0.73116 0.77938 0.0
C3236 C 0.55901 0.74241 0.78741 0.0
C3237 C 0.57801 0.72156 0.78728 0.0
C3238 C 0.5605 0.74321 0.80365 0.0
C3239 C 0.57089 0.73357 0.81164 0.0
H3240 H 0.30785 0.58506 0.82924 0.0
H3241 H 0.31193 0.62176 0.79514 0.0
H3242 H 0.30047 0.60494 0.77541 0.0
H3243 H 0.28815 0.58034 0.76799 0.0
H3244 H 0.28391 0.54324 0.80146 0.0
H3245 H 0.29667 0.55957 0.82125 0.0
C3246 C 0.30625 0.58933 0.81747 0.0
C3247 C 0.31078 0.60467 0.81369 0.0
C3248 C 0.29961 0.57953 0.80608 0.0
C3249 C 0.30876 0.60997 0.79835 0.0
C3250 C 0.30211 0.60039 0.78705 0.0
C3251 C 0.29005 0.57583 0.77963 0.0
C3252 C 0.28494 0.56071 0.78337 0.0
C3253 C 0.29734 0.58524 0.79083 0.0
C3254 C 0.28774 0.55487 0.79836 0.0
C3255 C 0.29495 0.56422 0.80966 0.0
H3256 H 0.42601 0.3179 0.8048 0.0
H3257 H 0.43863 0.29413 0.8472 0.0
H3258 H 0.45905 0.28043 0.83361 0.0
H3259 H 0.47155 0.27316 0.80911 0.0
H3260 H 0.45915 0.29711 0.7668 0.0
H3261 H 0.44076 0.31299 0.78099 0.0
C3262 C 0.43343 0.30999 0.81118 0.0
C3263 C 0.43051 0.3069 0.82698 0.0
C3264 C 0.44522 0.30211 0.80327 0.0
C3265 C 0.44027 0.29649 0.83496 0.0
C3266 C 0.45205 0.28868 0.8272 0.0
C3267 C 0.46515 0.28215 0.80307 0.0
C3268 C 0.46665 0.28384 0.78688 0.0
C3269 C 0.45438 0.2911 0.81127 0.0
C3270 C 0.4581 0.29545 0.77923 0.0
C3271 C 0.44754 0.30451 0.78733 0.0
H3272 H 0.3344 0.43974 0.22998 0.0
H3273 H 0.29525 0.41592 0.20867 0.0
H3274 H 0.27754 0.43481 0.21948 0.0
H3275 H 0.27282 0.45669 0.23683 0.0
H3276 H 0.31171 0.47941 0.25969 0.0
H3277 H 0.32977 0.4626 0.24624 0.0
C3278 C 0.32199 0.43866 0.22769 0.0
C3279 C 0.31623 0.42629 0.21857 0.0
C3280 C 0.31177 0.44942 0.23423 0.0
C3281 C 0.30011 0.42534 0.21548 0.0
C3282 C 0.28992 0.4361 0.22177 0.0
C3283 C 0.28526 0.45803 0.23883 0.0
C3284 C 0.29082 0.46928 0.2494 0.0
C3285 C 0.29558 0.44799 0.23142 0.0
C3286 C 0.30703 0.47102 0.25154 0.0
C3287 C 0.31739 0.46126 0.24398 0.0
H3288 H 0.58834 0.30732 0.20219 0.0
H3289 H 0.6249 0.3109 0.23672 0.0
H3290 H 0.60787 0.29899 0.25605 0.0
H3291 H 0.58309 0.28666 0.26302 0.0
H3292 H 0.54613 0.28286 0.22909 0.0
H3293 H 0.56271 0.29588 0.20969 0.0
C3294 C 0.59254 0.3055 0.21396 0.0
C3295 C 0.60789 0.31003 0.21799 0.0
C3296 C 0.58262 0.29861 0.22511 0.0
C3297 C 0.61311 0.30772 0.23333 0.0
C3298 C 0.6034 0.30082 0.24439 0.0
C3299 C 0.57866 0.28868 0.25136 0.0
C3300 C 0.5635 0.28363 0.2474 0.0
C3301 C 0.58822 0.29611 0.24038 0.0
C3302 C 0.55778 0.28663 0.23238 0.0
C3303 C 0.56728 0.29399 0.22129 0.0
H3304 H 0.43288 0.70467 0.21756 0.0
H3305 H 0.41565 0.74882 0.20164 0.0
H3306 H 0.43579 0.76228 0.21667 0.0
H3307 H 0.45734 0.76165 0.23552 0.0
H3308 H 0.4745 0.71763 0.25172 0.0
H3309 H 0.4558 0.70404 0.23497 0.0
C3310 C 0.43367 0.71722 0.21717 0.0
C3311 C 0.42256 0.72569 0.20864 0.0
C3312 C 0.44536 0.72495 0.22584 0.0
C3313 C 0.42377 0.74198 0.20839 0.0
C3314 C 0.43537 0.74971 0.2169 0.0
C3315 C 0.45706 0.74908 0.2353 0.0
C3316 C 0.46729 0.7407 0.24493 0.0
C3317 C 0.44605 0.74133 0.22588 0.0
C3318 C 0.46691 0.7244 0.24433 0.0
C3319 C 0.45609 0.71661 0.23486 0.0
loop_
_geom_bond_atom_site_label_1
_geom_bond_atom_site_label_2
_geom_bond_distance
_geom_bond_site_symmetry_2
_ccdc_geom_bond_type
C0 C1 1.264 . S
C0 C5 1.479 . S
C0 C10 1.465 . S
C1 C0 1.264 . S
C1 C3 1.339 . S
C1 H28 0.931 . S
C2 C3 1.395 . S
C2 C4 1.320 . S
C3 C1 1.339 . S
C3 C2 1.395 . S
C3 H29 0.929 . S
C4 C2 1.320 . S
C4 C5 1.405 . S
C4 H30 0.930 . S
C5 C0 1.479 . S
C5 C4 1.405 . S
C5 H31 0.931 . S
U6 O7 2.454 . S
U6 O8 2.458 . S
U6 C9 2.984 . S
U6 C10 2.847 . S
U6 C23 2.882 . S
U6 O24 2.441 . S
U6 O25 2.420 . S
U6 O26 2.455 . S
U6 O27 2.449 . S
O7 U6 2.454 . S
O7 C9 1.353 . S
O8 U6 2.458 . S
O8 C9 1.286 . S
C9 U6 2.984 . S
C9 O7 1.353 . S
C9 O8 1.286 . S
C9 C11 1.363 . S
C10 C0 1.465 . S
C10 U6 2.847 . S
C10 O24 1.249 . S
C10 O25 1.202 . S
C11 C9 1.363 . S
C11 C13 1.408 . S
C11 C16 1.342 . S
C12 C13 1.310 . S
C12 C15 1.461 . S
C12 H32 0.932 . S
C13 C11 1.408 . S
C13 C12 1.310 . S
C13 H33 0.930 . S
C14 C15 1.474 . S
C14 C16 1.285 . S
C14 H34 0.929 . S
C15 C12 1.461 . S
C15 C14 1.474 . S
C16 C11 1.342 . S
C16 C14 1.285 . S
C16 H35 0.930 . S
C17 C20 1.424 . S
C17 C22 1.245 . S
C17 C23 1.428 . S
C18 C21 1.260 . S
C18 C22 1.477 . S
C18 H36 0.932 . S
C19 C20 1.384 . S
C19 C21 1.479 . S
C19 H37 0.929 . S
C20 C17 1.424 . S
C20 C19 1.384 . S
C20 H38 0.928 . S
C21 C18 1.260 . S
C21 C19 1.479 . S
C22 C17 1.245 . S
C22 C18 1.477 . S
C22 H39 0.932 . S
C23 U6 2.882 . S
C23 C17 1.428 . S
C23 O26 1.301 . S
C23 O27 1.282 . S
O24 U6 2.441 . S
O24 C10 1.249 . S
O25 U6 2.420 . S
O25 C10 1.202 . S
O26 U6 2.455 . S
O26 C23 1.301 . S
O27 U6 2.449 . S
O27 C23 1.282 . S
H28 C1 0.931 . S
H29 C3 0.929 . S
H30 C4 0.930 . S
H31 C5 0.931 . S
H32 C12 0.932 . S
H33 C13 0.930 . S
H34 C14 0.929 . S
H35 C16 0.930 . S
H36 C18 0.932 . S
H37 C19 0.929 . S
H38 C20 0.928 . S
H39 C22 0.932 . S
C40 C41 1.264 . S
C40 C45 1.479 . S
C40 C50 1.465 . S
C41 C40 1.264 . S
C41 C43 1.339 . S
C41 H68 0.931 . S
C42 C43 1.395 . S
C42 C44 1.320 . S
C43 C41 1.339 . S
C43 C42 1.395 . S
C43 H69 0.929 . S
C44 C42 1.320 . S
C44 C45 1.405 . S
C44 H70 0.930 . S
C45 C40 1.479 . S
C45 C44 1.405 . S
C45 H71 0.931 . S
U46 O47 2.454 . S
U46 O48 2.458 . S
U46 C49 2.984 . S
U46 C50 2.847 . S
U46 C63 2.882 . S
U46 O64 2.441 . S
U46 O65 2.420 . S
U46 O66 2.455 . S
U46 O67 2.449 . S
O47 U46 2.454 . S
O47 C49 1.353 . S
O48 U46 2.458 . S
O48 C49 1.286 . S
C49 U46 2.984 . S
C49 O47 1.353 . S
C49 O48 1.286 . S
C49 C51 1.363 . S
C50 C40 1.465 . S
C50 U46 2.847 . S
C50 O64 1.249 . S
C50 O65 1.202 . S
C51 C49 1.363 . S
C51 C53 1.408 . S
C51 C56 1.342 . S
C52 C53 1.310 . S
C52 C55 1.461 . S
C52 H72 0.932 . S
C53 C51 1.408 . S
C53 C52 1.310 . S
C53 H73 0.930 . S
C54 C55 1.474 . S
C54 C56 1.285 . S
C54 H74 0.929 . S
C55 C52 1.461 . S
C55 C54 1.474 . S
C56 C51 1.342 . S
C56 C54 1.285 . S
C56 H75 0.930 . S
C57 C60 1.424 . S
C57 C62 1.245 . S
C57 C63 1.428 . S
C58 C61 1.260 . S
C58 C62 1.477 . S
C58 H76 0.932 . S
C59 C60 1.384 . S
C59 C61 1.479 . S
C59 H77 0.929 . S
C60 C57 1.424 . S
C60 C59 1.384 . S
C60 H78 0.928 . S
C61 C58 1.260 . S
C61 C59 1.479 . S
C62 C57 1.245 . S
C62 C58 1.477 . S
C62 H79 0.932 . S
C63 U46 2.882 . S
C63 C57 1.428 . S
C63 O66 1.301 . S
C63 O67 1.282 . S
O64 U46 2.441 . S
O64 C50 1.249 . S
O65 U46 2.420 . S
O65 C50 1.202 . S
O66 U46 2.455 . S
O66 C63 1.301 . S
O67 U46 2.449 . S
O67 C63 1.282 . S
H68 C41 0.931 . S
H69 C43 0.929 . S
H70 C44 0.930 . S
H71 C45 0.931 . S
H72 C52 0.932 . S
H73 C53 0.930 . S
H74 C54 0.929 . S
H75 C56 0.930 . S
H76 C58 0.932 . S
H77 C59 0.929 . S
H78 C60 0.928 . S
H79 C62 0.932 . S
C80 C81 1.264 . S
C80 C85 1.479 . S
C80 C90 1.465 . S
C81 C80 1.264 . S
C81 C83 1.339 . S
C81 H108 0.931 . S
C82 C83 1.395 . S
C82 C84 1.320 . S
C83 C81 1.339 . S
C83 C82 1.395 . S
C83 H109 0.929 . S
C84 C82 1.320 . S
C84 C85 1.405 . S
C84 H110 0.930 . S
C85 C80 1.479 . S
C85 C84 1.405 . S
C85 H111 0.931 . S
U86 O87 2.454 . S
U86 O88 2.458 . S
U86 C89 2.984 . S
U86 C90 2.847 . S
U86 C103 2.882 . S
U86 O104 2.441 . S
U86 O105 2.420 . S
U86 O106 2.455 . S
U86 O107 2.449 . S
O87 U86 2.454 . S
O87 C89 1.353 . S
O88 U86 2.458 . S
O88 C89 1.286 . S
C89 U86 2.984 . S
C89 O87 1.353 . S
C89 O88 1.286 . S
C89 C91 1.363 . S
C90 C80 1.465 . S
C90 U86 2.847 . S
C90 O104 1.249 . S
C90 O105 1.202 . S
C91 C89 1.363 . S
C91 C93 1.408 . S
C91 C96 1.342 . S
C92 C93 1.310 . S
C92 C95 1.461 . S
C92 H112 0.932 . S
C93 C91 1.408 . S
C93 C92 1.310 . S
C93 H113 0.930 . S
C94 C95 1.474 . S
C94 C96 1.285 . S
C94 H114 0.929 . S
C95 C92 1.461 . S
C95 C94 1.474 . S
C96 C91 1.342 . S
C96 C94 1.285 . S
C96 H115 0.930 . S
C97 C100 1.424 . S
C97 C102 1.245 . S
C97 C103 1.428 . S
C98 C101 1.260 . S
C98 C102 1.477 . S
C98 H116 0.932 . S
C99 C100 1.384 . S
C99 C101 1.479 . S
C99 H117 0.929 . S
C100 C97 1.424 . S
C100 C99 1.384 . S
C100 H118 0.928 . S
C101 C98 1.260 . S
C101 C99 1.479 . S
C102 C97 1.245 . S
C102 C98 1.477 . S
C102 H119 0.932 . S
C103 U86 2.882 . S
C103 C97 1.428 . S
C103 O106 1.301 . S
C103 O107 1.282 . S
O104 U86 2.441 . S
O104 C90 1.249 . S
O105 U86 2.420 . S
O105 C90 1.202 . S
O106 U86 2.455 . S
O106 C103 1.301 . S
O107 U86 2.449 . S
O107 C103 1.282 . S
H108 C81 0.931 . S
H109 C83 0.929 . S
H110 C84 0.930 . S
H111 C85 0.931 . S
H112 C92 0.932 . S
H113 C93 0.930 . S
H114 C94 0.929 . S
H115 C96 0.930 . S
H116 C98 0.932 . S
H117 C99 0.929 . S
H118 C100 0.928 . S
H119 C102 0.932 . S
C120 C121 1.264 . S
C120 C125 1.479 . S
C120 C130 1.465 . S
C121 C120 1.264 . S
C121 C123 1.339 . S
C121 H148 0.931 . S
C122 C123 1.395 . S
C122 C124 1.320 . S
C123 C121 1.339 . S
C123 C122 1.395 . S
C123 H149 0.929 . S
C124 C122 1.320 . S
C124 C125 1.405 . S
C124 H150 0.930 . S
C125 C120 1.479 . S
C125 C124 1.405 . S
C125 H151 0.931 . S
U126 O127 2.454 . S
U126 O128 2.458 . S
U126 C129 2.984 . S
U126 C130 2.847 . S
U126 C143 2.882 . S
U126 O144 2.441 . S
U126 O145 2.420 . S
U126 O146 2.455 . S
U126 O147 2.449 . S
O127 U126 2.454 . S
O127 C129 1.353 . S
O128 U126 2.458 . S
O128 C129 1.286 . S
C129 U126 2.984 . S
C129 O127 1.353 . S
C129 O128 1.286 . S
C129 C131 1.363 . S
C130 C120 1.465 . S
C130 U126 2.847 . S
C130 O144 1.249 . S
C130 O145 1.202 . S
C131 C129 1.363 . S
C131 C133 1.408 . S
C131 C136 1.342 . S
C132 C133 1.310 . S
C132 C135 1.461 . S
C132 H152 0.932 . S
C133 C131 1.408 . S
C133 C132 1.310 . S
C133 H153 0.930 . S
C134 C135 1.474 . S
C134 C136 1.285 . S
C134 H154 0.929 . S
C135 C132 1.461 . S
C135 C134 1.474 . S
C136 C131 1.342 . S
C136 C134 1.285 . S
C136 H155 0.930 . S
C137 C140 1.424 . S
C137 C142 1.245 . S
C137 C143 1.428 . S
C138 C141 1.260 . S
C138 C142 1.477 . S
C138 H156 0.932 . S
C139 C140 1.384 . S
C139 C141 1.479 . S
C139 H157 0.929 . S
C140 C137 1.424 . S
C140 C139 1.384 . S
C140 H158 0.928 . S
C141 C138 1.260 . S
C141 C139 1.479 . S
C142 C137 1.245 . S
C142 C138 1.477 . S
C142 H159 0.932 . S
C143 U126 2.882 . S
C143 C137 1.428 . S
C143 O146 1.301 . S
C143 O147 1.282 . S
O144 U126 2.441 . S
O144 C130 1.249 . S
O145 U126 2.420 . S
O145 C130 1.202 . S
O146 U126 2.455 . S
O146 C143 1.301 . S
O147 U126 2.449 . S
O147 C143 1.282 . S
H148 C121 0.931 . S
H149 C123 0.929 . S
H150 C124 0.930 . S
H151 C125 0.931 . S
H152 C132 0.932 . S
H153 C133 0.930 . S
H154 C134 0.929 . S
H155 C136 0.930 . S
H156 C138 0.932 . S
H157 C139 0.929 . S
H158 C140 0.928 . S
H159 C142 0.932 . S
C160 C161 1.264 . S
C160 C165 1.479 . S
C160 C170 1.465 . S
C161 C160 1.264 . S
C161 C163 1.339 . S
C161 H188 0.931 . S
C162 C163 1.395 . S
C162 C164 1.320 . S
C163 C161 1.339 . S
C163 C162 1.395 . S
C163 H189 0.929 . S
C164 C162 1.320 . S
C164 C165 1.405 . S
C164 H190 0.930 . S
C165 C160 1.479 . S
C165 C164 1.405 . S
C165 H191 0.931 . S
U166 O167 2.454 . S
U166 O168 2.458 . S
U166 C169 2.984 . S
U166 C170 2.847 . S
U166 C183 2.882 . S
U166 O184 2.441 . S
U166 O185 2.420 . S
U166 O186 2.455 . S
U166 O187 2.449 . S
O167 U166 2.454 . S
O167 C169 1.353 . S
O168 U166 2.458 . S
O168 C169 1.286 . S
C169 U166 2.984 . S
C169 O167 1.353 . S
C169 O168 1.286 . S
C169 C171 1.363 . S
C170 C160 1.465 . S
C170 U166 2.847 . S
C170 O184 1.249 . S
C170 O185 1.202 . S
C171 C169 1.363 . S
C171 C173 1.408 . S
C171 C176 1.342 . S
C172 C173 1.310 . S
C172 C175 1.461 . S
C172 H192 0.932 . S
C173 C171 1.408 . S
C173 C172 1.310 . S
C173 H193 0.930 . S
C174 C175 1.474 . S
C174 C176 1.285 . S
C174 H194 0.929 . S
C175 C172 1.461 . S
C175 C174 1.474 . S
C176 C171 1.342 . S
C176 C174 1.285 . S
C176 H195 0.930 . S
C177 C180 1.424 . S
C177 C182 1.245 . S
C177 C183 1.428 . S
C178 C181 1.260 . S
C178 C182 1.477 . S
C178 H196 0.932 . S
C179 C180 1.384 . S
C179 C181 1.479 . S
C179 H197 0.929 . S
C180 C177 1.424 . S
C180 C179 1.384 . S
C180 H198 0.928 . S
C181 C178 1.260 . S
C181 C179 1.479 . S
C182 C177 1.245 . S
C182 C178 1.477 . S
C182 H199 0.932 . S
C183 U166 2.882 . S
C183 C177 1.428 . S
C183 O186 1.301 . S
C183 O187 1.282 . S
O184 U166 2.441 . S
O184 C170 1.249 . S
O185 U166 2.420 . S
O185 C170 1.202 . S
O186 U166 2.455 . S
O186 C183 1.301 . S
O187 U166 2.449 . S
O187 C183 1.282 . S
H188 C161 0.931 . S
H189 C163 0.929 . S
H190 C164 0.930 . S
H191 C165 0.931 . S
H192 C172 0.932 . S
H193 C173 0.930 . S
H194 C174 0.929 . S
H195 C176 0.930 . S
H196 C178 0.932 . S
H197 C179 0.929 . S
H198 C180 0.928 . S
H199 C182 0.932 . S
C200 C201 1.264 . S
C200 C205 1.479 . S
C200 C210 1.465 . S
C201 C200 1.264 . S
C201 C203 1.339 . S
C201 H228 0.931 . S
C202 C203 1.395 . S
C202 C204 1.320 . S
C203 C201 1.339 . S
C203 C202 1.395 . S
C203 H229 0.929 . S
C204 C202 1.320 . S
C204 C205 1.405 . S
C204 H230 0.930 . S
C205 C200 1.479 . S
C205 C204 1.405 . S
C205 H231 0.931 . S
U206 O207 2.454 . S
U206 O208 2.458 . S
U206 C209 2.984 . S
U206 C210 2.847 . S
U206 C223 2.882 . S
U206 O224 2.441 . S
U206 O225 2.420 . S
U206 O226 2.455 . S
U206 O227 2.449 . S
O207 U206 2.454 . S
O207 C209 1.353 . S
O208 U206 2.458 . S
O208 C209 1.286 . S
C209 U206 2.984 . S
C209 O207 1.353 . S
C209 O208 1.286 . S
C209 C211 1.363 . S
C210 C200 1.465 . S
C210 U206 2.847 . S
C210 O224 1.249 . S
C210 O225 1.202 . S
C211 C209 1.363 . S
C211 C213 1.408 . S
C211 C216 1.342 . S
C212 C213 1.310 . S
C212 C215 1.461 . S
C212 H232 0.932 . S
C213 C211 1.408 . S
C213 C212 1.310 . S
C213 H233 0.930 . S
C214 C215 1.474 . S
C214 C216 1.285 . S
C214 H234 0.929 . S
C215 C212 1.461 . S
C215 C214 1.474 . S
C216 C211 1.342 . S
C216 C214 1.285 . S
C216 H235 0.930 . S
C217 C220 1.424 . S
C217 C222 1.245 . S
C217 C223 1.428 . S
C218 C221 1.260 . S
C218 C222 1.477 . S
C218 H236 0.932 . S
C219 C220 1.384 . S
C219 C221 1.479 . S
C219 H237 0.929 . S
C220 C217 1.424 . S
C220 C219 1.384 . S
C220 H238 0.928 . S
C221 C218 1.260 . S
C221 C219 1.479 . S
C222 C217 1.245 . S
C222 C218 1.477 . S
C222 H239 0.932 . S
C223 U206 2.882 . S
C223 C217 1.428 . S
C223 O226 1.301 . S
C223 O227 1.282 . S
O224 U206 2.441 . S
O224 C210 1.249 . S
O225 U206 2.420 . S
O225 C210 1.202 . S
O226 U206 2.455 . S
O226 C223 1.301 . S
O227 U206 2.449 . S
O227 C223 1.282 . S
H228 C201 0.931 . S
H229 C203 0.929 . S
H230 C204 0.930 . S
H231 C205 0.931 . S
H232 C212 0.932 . S
H233 C213 0.930 . S
H234 C214 0.929 . S
H235 C216 0.930 . S
H236 C218 0.932 . S
H237 C219 0.929 . S
H238 C220 0.928 . S
H239 C222 0.932 . S
C240 C241 1.264 . S
C240 C245 1.479 . S
C240 C250 1.465 . S
C241 C240 1.264 . S
C241 C243 1.339 . S
C241 H268 0.931 . S
C242 C243 1.395 . S
C242 C244 1.320 . S
C243 C241 1.339 . S
C243 C242 1.395 . S
C243 H269 0.929 . S
C244 C242 1.320 . S
C244 C245 1.405 . S
C244 H270 0.930 . S
C245 C240 1.479 . S
C245 C244 1.405 . S
C245 H271 0.931 . S
U246 O247 2.454 . S
U246 O248 2.458 . S
U246 C249 2.984 . S
U246 C250 2.847 . S
U246 C263 2.882 . S
U246 O264 2.441 . S
U246 O265 2.420 . S
U246 O266 2.455 . S
U246 O267 2.449 . S
O247 U246 2.454 . S
O247 C249 1.353 . S
O248 U246 2.458 . S
O248 C249 1.286 . S
C249 U246 2.984 . S
C249 O247 1.353 . S
C249 O248 1.286 . S
C249 C251 1.363 . S
C250 C240 1.465 . S
C250 U246 2.847 . S
C250 O264 1.249 . S
C250 O265 1.202 . S
C251 C249 1.363 . S
C251 C253 1.408 . S
C251 C256 1.342 . S
C252 C253 1.310 . S
C252 C255 1.461 . S
C252 H272 0.932 . S
C253 C251 1.408 . S
C253 C252 1.310 . S
C253 H273 0.930 . S
C254 C255 1.474 . S
C254 C256 1.285 . S
C254 H274 0.929 . S
C255 C252 1.461 . S
C255 C254 1.474 . S
C256 C251 1.342 . S
C256 C254 1.285 . S
C256 H275 0.930 . S
C257 C260 1.424 . S
C257 C262 1.245 . S
C257 C263 1.428 . S
C258 C261 1.260 . S
C258 C262 1.477 . S
C258 H276 0.932 . S
C259 C260 1.384 . S
C259 C261 1.479 . S
C259 H277 0.929 . S
C260 C257 1.424 . S
C260 C259 1.384 . S
C260 H278 0.928 . S
C261 C258 1.260 . S
C261 C259 1.479 . S
C262 C257 1.245 . S
C262 C258 1.477 . S
C262 H279 0.932 . S
C263 U246 2.882 . S
C263 C257 1.428 . S
C263 O266 1.301 . S
C263 O267 1.282 . S
O264 U246 2.441 . S
O264 C250 1.249 . S
O265 U246 2.420 . S
O265 C250 1.202 . S
O266 U246 2.455 . S
O266 C263 1.301 . S
O267 U246 2.449 . S
O267 C263 1.282 . S
H268 C241 0.931 . S
H269 C243 0.929 . S
H270 C244 0.930 . S
H271 C245 0.931 . S
H272 C252 0.932 . S
H273 C253 0.930 . S
H274 C254 0.929 . S
H275 C256 0.930 . S
H276 C258 0.932 . S
H277 C259 0.929 . S
H278 C260 0.928 . S
H279 C262 0.932 . S
C280 C281 1.264 . S
C280 C285 1.479 . S
C280 C290 1.465 . S
C281 C280 1.264 . S
C281 C283 1.339 . S
C281 H308 0.931 . S
C282 C283 1.395 . S
C282 C284 1.320 . S
C283 C281 1.339 . S
C283 C282 1.395 . S
C283 H309 0.929 . S
C284 C282 1.320 . S
C284 C285 1.405 . S
C284 H310 0.930 . S
C285 C280 1.479 . S
C285 C284 1.405 . S
C285 H311 0.931 . S
U286 O287 2.454 . S
U286 O288 2.458 . S
U286 C289 2.984 . S
U286 C290 2.847 . S
U286 C303 2.882 . S
U286 O304 2.441 . S
U286 O305 2.420 . S
U286 O306 2.455 . S
U286 O307 2.449 . S
O287 U286 2.454 . S
O287 C289 1.353 . S
O288 U286 2.458 . S
O288 C289 1.286 . S
C289 U286 2.984 . S
C289 O287 1.353 . S
C289 O288 1.286 . S
C289 C291 1.363 . S
C290 C280 1.465 . S
C290 U286 2.847 . S
C290 O304 1.249 . S
C290 O305 1.202 . S
C291 C289 1.363 . S
C291 C293 1.408 . S
C291 C296 1.342 . S
C292 C293 1.310 . S
C292 C295 1.461 . S
C292 H312 0.932 . S
C293 C291 1.408 . S
C293 C292 1.310 . S
C293 H313 0.930 . S
C294 C295 1.474 . S
C294 C296 1.285 . S
C294 H314 0.929 . S
C295 C292 1.461 . S
C295 C294 1.474 . S
C296 C291 1.342 . S
C296 C294 1.285 . S
C296 H315 0.930 . S
C297 C300 1.424 . S
C297 C302 1.245 . S
C297 C303 1.428 . S
C298 C301 1.260 . S
C298 C302 1.477 . S
C298 H316 0.932 . S
C299 C300 1.384 . S
C299 C301 1.479 . S
C299 H317 0.929 . S
C300 C297 1.424 . S
C300 C299 1.384 . S
C300 H318 0.928 . S
C301 C298 1.260 . S
C301 C299 1.479 . S
C302 C297 1.245 . S
C302 C298 1.477 . S
C302 H319 0.932 . S
C303 U286 2.882 . S
C303 C297 1.428 . S
C303 O306 1.301 . S
C303 O307 1.282 . S
O304 U286 2.441 . S
O304 C290 1.249 . S
O305 U286 2.420 . S
O305 C290 1.202 . S
O306 U286 2.455 . S
O306 C303 1.301 . S
O307 U286 2.449 . S
O307 C303 1.282 . S
H308 C281 0.931 . S
H309 C283 0.929 . S
H310 C284 0.930 . S
H311 C285 0.931 . S
H312 C292 0.932 . S
H313 C293 0.930 . S
H314 C294 0.929 . S
H315 C296 0.930 . S
H316 C298 0.932 . S
H317 C299 0.929 . S
H318 C300 0.928 . S
H319 C302 0.932 . S
C320 C321 1.264 . S
C320 C325 1.479 . S
C320 C330 1.465 . S
C321 C320 1.264 . S
C321 C323 1.339 . S
C321 H348 0.931 . S
C322 C323 1.395 . S
C322 C324 1.320 . S
C323 C321 1.339 . S
C323 C322 1.395 . S
C323 H349 0.929 . S
C324 C322 1.320 . S
C324 C325 1.405 . S
C324 H350 0.930 . S
C325 C320 1.479 . S
C325 C324 1.405 . S
C325 H351 0.931 . S
U326 O327 2.454 . S
U326 O328 2.458 . S
U326 C329 2.984 . S
U326 C330 2.847 . S
U326 C343 2.882 . S
U326 O344 2.441 . S
U326 O345 2.420 . S
U326 O346 2.455 . S
U326 O347 2.449 . S
O327 U326 2.454 . S
O327 C329 1.353 . S
O328 U326 2.458 . S
O328 C329 1.286 . S
C329 U326 2.984 . S
C329 O327 1.353 . S
C329 O328 1.286 . S
C329 C331 1.363 . S
C330 C320 1.465 . S
C330 U326 2.847 . S
C330 O344 1.249 . S
C330 O345 1.202 . S
C331 C329 1.363 . S
C331 C333 1.408 . S
C331 C336 1.342 . S
C332 C333 1.310 . S
C332 C335 1.461 . S
C332 H352 0.932 . S
C333 C331 1.408 . S
C333 C332 1.310 . S
C333 H353 0.930 . S
C334 C335 1.474 . S
C334 C336 1.285 . S
C334 H354 0.929 . S
C335 C332 1.461 . S
C335 C334 1.474 . S
C336 C331 1.342 . S
C336 C334 1.285 . S
C336 H355 0.930 . S
C337 C340 1.424 . S
C337 C342 1.245 . S
C337 C343 1.428 . S
C338 C341 1.260 . S
C338 C342 1.477 . S
C338 H356 0.932 . S
C339 C340 1.384 . S
C339 C341 1.479 . S
C339 H357 0.929 . S
C340 C337 1.424 . S
C340 C339 1.384 . S
C340 H358 0.928 . S
C341 C338 1.260 . S
C341 C339 1.479 . S
C342 C337 1.245 . S
C342 C338 1.477 . S
C342 H359 0.932 . S
C343 U326 2.882 . S
C343 C337 1.428 . S
C343 O346 1.301 . S
C343 O347 1.282 . S
O344 U326 2.441 . S
O344 C330 1.249 . S
O345 U326 2.420 . S
O345 C330 1.202 . S
O346 U326 2.455 . S
O346 C343 1.301 . S
O347 U326 2.449 . S
O347 C343 1.282 . S
H348 C321 0.931 . S
H349 C323 0.929 . S
H350 C324 0.930 . S
H351 C325 0.931 . S
H352 C332 0.932 . S
H353 C333 0.930 . S
H354 C334 0.929 . S
H355 C336 0.930 . S
H356 C338 0.932 . S
H357 C339 0.929 . S
H358 C340 0.928 . S
H359 C342 0.932 . S
C360 C361 1.264 . S
C360 C365 1.479 . S
C360 C370 1.465 . S
C361 C360 1.264 . S
C361 C363 1.339 . S
C361 H388 0.931 . S
C362 C363 1.395 . S
C362 C364 1.320 . S
C363 C361 1.339 . S
C363 C362 1.395 . S
C363 H389 0.929 . S
C364 C362 1.320 . S
C364 C365 1.405 . S
C364 H390 0.930 . S
C365 C360 1.479 . S
C365 C364 1.405 . S
C365 H391 0.931 . S
U366 O367 2.454 . S
U366 O368 2.458 . S
U366 C369 2.984 . S
U366 C370 2.847 . S
U366 C383 2.882 . S
U366 O384 2.441 . S
U366 O385 2.420 . S
U366 O386 2.455 . S
U366 O387 2.449 . S
O367 U366 2.454 . S
O367 C369 1.353 . S
O368 U366 2.458 . S
O368 C369 1.286 . S
C369 U366 2.984 . S
C369 O367 1.353 . S
C369 O368 1.286 . S
C369 C371 1.363 . S
C370 C360 1.465 . S
C370 U366 2.847 . S
C370 O384 1.249 . S
C370 O385 1.202 . S
C371 C369 1.363 . S
C371 C373 1.408 . S
C371 C376 1.342 . S
C372 C373 1.310 . S
C372 C375 1.461 . S
C372 H392 0.932 . S
C373 C371 1.408 . S
C373 C372 1.310 . S
C373 H393 0.930 . S
C374 C375 1.474 . S
C374 C376 1.285 . S
C374 H394 0.929 . S
C375 C372 1.461 . S
C375 C374 1.474 . S
C376 C371 1.342 . S
C376 C374 1.285 . S
C376 H395 0.930 . S
C377 C380 1.424 . S
C377 C382 1.245 . S
C377 C383 1.428 . S
C378 C381 1.260 . S
C378 C382 1.477 . S
C378 H396 0.932 . S
C379 C380 1.384 . S
C379 C381 1.479 . S
C379 H397 0.929 . S
C380 C377 1.424 . S
C380 C379 1.384 . S
C380 H398 0.928 . S
C381 C378 1.260 . S
C381 C379 1.479 . S
C382 C377 1.245 . S
C382 C378 1.477 . S
C382 H399 0.932 . S
C383 U366 2.882 . S
C383 C377 1.428 . S
C383 O386 1.301 . S
C383 O387 1.282 . S
O384 U366 2.441 . S
O384 C370 1.249 . S
O385 U366 2.420 . S
O385 C370 1.202 . S
O386 U366 2.455 . S
O386 C383 1.301 . S
O387 U366 2.449 . S
O387 C383 1.282 . S
H388 C361 0.931 . S
H389 C363 0.929 . S
H390 C364 0.930 . S
H391 C365 0.931 . S
H392 C372 0.932 . S
H393 C373 0.930 . S
H394 C374 0.929 . S
H395 C376 0.930 . S
H396 C378 0.932 . S
H397 C379 0.929 . S
H398 C380 0.928 . S
H399 C382 0.932 . S
C400 C401 1.264 . S
C400 C405 1.479 . S
C400 C410 1.465 . S
C401 C400 1.264 . S
C401 C403 1.339 . S
C401 H428 0.931 . S
C402 C403 1.395 . S
C402 C404 1.320 . S
C403 C401 1.339 . S
C403 C402 1.395 . S
C403 H429 0.929 . S
C404 C402 1.320 . S
C404 C405 1.405 . S
C404 H430 0.930 . S
C405 C400 1.479 . S
C405 C404 1.405 . S
C405 H431 0.931 . S
U406 O407 2.454 . S
U406 O408 2.458 . S
U406 C409 2.984 . S
U406 C410 2.847 . S
U406 C423 2.882 . S
U406 O424 2.441 . S
U406 O425 2.420 . S
U406 O426 2.455 . S
U406 O427 2.449 . S
O407 U406 2.454 . S
O407 C409 1.353 . S
O408 U406 2.458 . S
O408 C409 1.286 . S
C409 U406 2.984 . S
C409 O407 1.353 . S
C409 O408 1.286 . S
C409 C411 1.363 . S
C410 C400 1.465 . S
C410 U406 2.847 . S
C410 O424 1.249 . S
C410 O425 1.202 . S
C411 C409 1.363 . S
C411 C413 1.408 . S
C411 C416 1.342 . S
C412 C413 1.310 . S
C412 C415 1.461 . S
C412 H432 0.932 . S
C413 C411 1.408 . S
C413 C412 1.310 . S
C413 H433 0.930 . S
C414 C415 1.474 . S
C414 C416 1.285 . S
C414 H434 0.929 . S
C415 C412 1.461 . S
C415 C414 1.474 . S
C416 C411 1.342 . S
C416 C414 1.285 . S
C416 H435 0.930 . S
C417 C420 1.424 . S
C417 C422 1.245 . S
C417 C423 1.428 . S
C418 C421 1.260 . S
C418 C422 1.477 . S
C418 H436 0.932 . S
C419 C420 1.384 . S
C419 C421 1.479 . S
C419 H437 0.929 . S
C420 C417 1.424 . S
C420 C419 1.384 . S
C420 H438 0.928 . S
C421 C418 1.260 . S
C421 C419 1.479 . S
C422 C417 1.245 . S
C422 C418 1.477 . S
C422 H439 0.932 . S
C423 U406 2.882 . S
C423 C417 1.428 . S
C423 O426 1.301 . S
C423 O427 1.282 . S
O424 U406 2.441 . S
O424 C410 1.249 . S
O425 U406 2.420 . S
O425 C410 1.202 . S
O426 U406 2.455 . S
O426 C423 1.301 . S
O427 U406 2.449 . S
O427 C423 1.282 . S
H428 C401 0.931 . S
H429 C403 0.929 . S
H430 C404 0.930 . S
H431 C405 0.931 . S
H432 C412 0.932 . S
H433 C413 0.930 . S
H434 C414 0.929 . S
H435 C416 0.930 . S
H436 C418 0.932 . S
H437 C419 0.929 . S
H438 C420 0.928 . S
H439 C422 0.932 . S
C440 C441 1.264 . S
C440 C445 1.479 . S
C440 C450 1.465 . S
C441 C440 1.264 . S
C441 C443 1.339 . S
C441 H468 0.931 . S
C442 C443 1.395 . S
C442 C444 1.320 . S
C443 C441 1.339 . S
C443 C442 1.395 . S
C443 H469 0.929 . S
C444 C442 1.320 . S
C444 C445 1.405 . S
C444 H470 0.930 . S
C445 C440 1.479 . S
C445 C444 1.405 . S
C445 H471 0.931 . S
U446 O447 2.454 . S
U446 O448 2.458 . S
U446 C449 2.984 . S
U446 C450 2.847 . S
U446 C463 2.882 . S
U446 O464 2.441 . S
U446 O465 2.420 . S
U446 O466 2.455 . S
U446 O467 2.449 . S
O447 U446 2.454 . S
O447 C449 1.353 . S
O448 U446 2.458 . S
O448 C449 1.286 . S
C449 U446 2.984 . S
C449 O447 1.353 . S
C449 O448 1.286 . S
C449 C451 1.363 . S
C450 C440 1.465 . S
C450 U446 2.847 . S
C450 O464 1.249 . S
C450 O465 1.202 . S
C451 C449 1.363 . S
C451 C453 1.408 . S
C451 C456 1.342 . S
C452 C453 1.310 . S
C452 C455 1.461 . S
C452 H472 0.932 . S
C453 C451 1.408 . S
C453 C452 1.310 . S
C453 H473 0.930 . S
C454 C455 1.474 . S
C454 C456 1.285 . S
C454 H474 0.929 . S
C455 C452 1.461 . S
C455 C454 1.474 . S
C456 C451 1.342 . S
C456 C454 1.285 . S
C456 H475 0.930 . S
C457 C460 1.424 . S
C457 C462 1.245 . S
C457 C463 1.428 . S
C458 C461 1.260 . S
C458 C462 1.477 . S
C458 H476 0.932 . S
C459 C460 1.384 . S
C459 C461 1.479 . S
C459 H477 0.929 . S
C460 C457 1.424 . S
C460 C459 1.384 . S
C460 H478 0.928 . S
C461 C458 1.260 . S
C461 C459 1.479 . S
C462 C457 1.245 . S
C462 C458 1.477 . S
C462 H479 0.932 . S
C463 U446 2.882 . S
C463 C457 1.428 . S
C463 O466 1.301 . S
C463 O467 1.282 . S
O464 U446 2.441 . S
O464 C450 1.249 . S
O465 U446 2.420 . S
O465 C450 1.202 . S
O466 U446 2.455 . S
O466 C463 1.301 . S
O467 U446 2.449 . S
O467 C463 1.282 . S
H468 C441 0.931 . S
H469 C443 0.929 . S
H470 C444 0.930 . S
H471 C445 0.931 . S
H472 C452 0.932 . S
H473 C453 0.930 . S
H474 C454 0.929 . S
H475 C456 0.930 . S
H476 C458 0.932 . S
H477 C459 0.929 . S
H478 C460 0.928 . S
H479 C462 0.932 . S
C480 C481 1.264 . S
C480 C485 1.479 . S
C480 C490 1.465 . S
C481 C480 1.264 . S
C481 C483 1.339 . S
C481 H508 0.931 . S
C482 C483 1.395 . S
C482 C484 1.320 . S
C483 C481 1.339 . S
C483 C482 1.395 . S
C483 H509 0.929 . S
C484 C482 1.320 . S
C484 C485 1.405 . S
C484 H510 0.930 . S
C485 C480 1.479 . S
C485 C484 1.405 . S
C485 H511 0.931 . S
U486 O487 2.454 . S
U486 O488 2.458 . S
U486 C489 2.984 . S
U486 C490 2.847 . S
U486 C503 2.882 . S
U486 O504 2.441 . S
U486 O505 2.420 . S
U486 O506 2.455 . S
U486 O507 2.449 . S
O487 U486 2.454 . S
O487 C489 1.353 . S
O488 U486 2.458 . S
O488 C489 1.286 . S
C489 U486 2.984 . S
C489 O487 1.353 . S
C489 O488 1.286 . S
C489 C491 1.363 . S
C490 C480 1.465 . S
C490 U486 2.847 . S
C490 O504 1.249 . S
C490 O505 1.202 . S
C491 C489 1.363 . S
C491 C493 1.408 . S
C491 C496 1.342 . S
C492 C493 1.310 . S
C492 C495 1.461 . S
C492 H512 0.932 . S
C493 C491 1.408 . S
C493 C492 1.310 . S
C493 H513 0.930 . S
C494 C495 1.474 . S
C494 C496 1.285 . S
C494 H514 0.929 . S
C495 C492 1.461 . S
C495 C494 1.474 . S
C496 C491 1.342 . S
C496 C494 1.285 . S
C496 H515 0.930 . S
C497 C500 1.424 . S
C497 C502 1.245 . S
C497 C503 1.428 . S
C498 C501 1.260 . S
C498 C502 1.477 . S
C498 H516 0.932 . S
C499 C500 1.384 . S
C499 C501 1.479 . S
C499 H517 0.929 . S
C500 C497 1.424 . S
C500 C499 1.384 . S
C500 H518 0.928 . S
C501 C498 1.260 . S
C501 C499 1.479 . S
C502 C497 1.245 . S
C502 C498 1.477 . S
C502 H519 0.932 . S
C503 U486 2.882 . S
C503 C497 1.428 . S
C503 O506 1.301 . S
C503 O507 1.282 . S
O504 U486 2.441 . S
O504 C490 1.249 . S
O505 U486 2.420 . S
O505 C490 1.202 . S
O506 U486 2.455 . S
O506 C503 1.301 . S
O507 U486 2.449 . S
O507 C503 1.282 . S
H508 C481 0.931 . S
H509 C483 0.929 . S
H510 C484 0.930 . S
H511 C485 0.931 . S
H512 C492 0.932 . S
H513 C493 0.930 . S
H514 C494 0.929 . S
H515 C496 0.930 . S
H516 C498 0.932 . S
H517 C499 0.929 . S
H518 C500 0.928 . S
H519 C502 0.932 . S
C520 C521 1.264 . S
C520 C525 1.479 . S
C520 C530 1.465 . S
C521 C520 1.264 . S
C521 C523 1.339 . S
C521 H548 0.931 . S
C522 C523 1.395 . S
C522 C524 1.320 . S
C523 C521 1.339 . S
C523 C522 1.395 . S
C523 H549 0.929 . S
C524 C522 1.320 . S
C524 C525 1.405 . S
C524 H550 0.930 . S
C525 C520 1.479 . S
C525 C524 1.405 . S
C525 H551 0.931 . S
U526 O527 2.454 . S
U526 O528 2.458 . S
U526 C529 2.984 . S
U526 C530 2.847 . S
U526 C543 2.882 . S
U526 O544 2.441 . S
U526 O545 2.420 . S
U526 O546 2.455 . S
U526 O547 2.449 . S
O527 U526 2.454 . S
O527 C529 1.353 . S
O528 U526 2.458 . S
O528 C529 1.286 . S
C529 U526 2.984 . S
C529 O527 1.353 . S
C529 O528 1.286 . S
C529 C531 1.363 . S
C530 C520 1.465 . S
C530 U526 2.847 . S
C530 O544 1.249 . S
C530 O545 1.202 . S
C531 C529 1.363 . S
C531 C533 1.408 . S
C531 C536 1.342 . S
C532 C533 1.310 . S
C532 C535 1.461 . S
C532 H552 0.932 . S
C533 C531 1.408 . S
C533 C532 1.310 . S
C533 H553 0.930 . S
C534 C535 1.474 . S
C534 C536 1.285 . S
C534 H554 0.929 . S
C535 C532 1.461 . S
C535 C534 1.474 . S
C536 C531 1.342 . S
C536 C534 1.285 . S
C536 H555 0.930 . S
C537 C540 1.424 . S
C537 C542 1.245 . S
C537 C543 1.428 . S
C538 C541 1.260 . S
C538 C542 1.477 . S
C538 H556 0.932 . S
C539 C540 1.384 . S
C539 C541 1.479 . S
C539 H557 0.929 . S
C540 C537 1.424 . S
C540 C539 1.384 . S
C540 H558 0.928 . S
C541 C538 1.260 . S
C541 C539 1.479 . S
C542 C537 1.245 . S
C542 C538 1.477 . S
C542 H559 0.932 . S
C543 U526 2.882 . S
C543 C537 1.428 . S
C543 O546 1.301 . S
C543 O547 1.282 . S
O544 U526 2.441 . S
O544 C530 1.249 . S
O545 U526 2.420 . S
O545 C530 1.202 . S
O546 U526 2.455 . S
O546 C543 1.301 . S
O547 U526 2.449 . S
O547 C543 1.282 . S
H548 C521 0.931 . S
H549 C523 0.929 . S
H550 C524 0.930 . S
H551 C525 0.931 . S
H552 C532 0.932 . S
H553 C533 0.930 . S
H554 C534 0.929 . S
H555 C536 0.930 . S
H556 C538 0.932 . S
H557 C539 0.929 . S
H558 C540 0.928 . S
H559 C542 0.932 . S
C560 C561 1.264 . S
C560 C565 1.479 . S
C560 C570 1.465 . S
C561 C560 1.264 . S
C561 C563 1.339 . S
C561 H588 0.931 . S
C562 C563 1.395 . S
C562 C564 1.320 . S
C563 C561 1.339 . S
C563 C562 1.395 . S
C563 H589 0.929 . S
C564 C562 1.320 . S
C564 C565 1.405 . S
C564 H590 0.930 . S
C565 C560 1.479 . S
C565 C564 1.405 . S
C565 H591 0.931 . S
U566 O567 2.454 . S
U566 O568 2.458 . S
U566 C569 2.984 . S
U566 C570 2.847 . S
U566 C583 2.882 . S
U566 O584 2.441 . S
U566 O585 2.420 . S
U566 O586 2.455 . S
U566 O587 2.449 . S
O567 U566 2.454 . S
O567 C569 1.353 . S
O568 U566 2.458 . S
O568 C569 1.286 . S
C569 U566 2.984 . S
C569 O567 1.353 . S
C569 O568 1.286 . S
C569 C571 1.363 . S
C570 C560 1.465 . S
C570 U566 2.847 . S
C570 O584 1.249 . S
C570 O585 1.202 . S
C571 C569 1.363 . S
C571 C573 1.408 . S
C571 C576 1.342 . S
C572 C573 1.310 . S
C572 C575 1.461 . S
C572 H592 0.932 . S
C573 C571 1.408 . S
C573 C572 1.310 . S
C573 H593 0.930 . S
C574 C575 1.474 . S
C574 C576 1.285 . S
C574 H594 0.929 . S
C575 C572 1.461 . S
C575 C574 1.474 . S
C576 C571 1.342 . S
C576 C574 1.285 . S
C576 H595 0.930 . S
C577 C580 1.424 . S
C577 C582 1.245 . S
C577 C583 1.428 . S
C578 C581 1.260 . S
C578 C582 1.477 . S
C578 H596 0.932 . S
C579 C580 1.384 . S
C579 C581 1.479 . S
C579 H597 0.929 . S
C580 C577 1.424 . S
C580 C579 1.384 . S
C580 H598 0.928 . S
C581 C578 1.260 . S
C581 C579 1.479 . S
C582 C577 1.245 . S
C582 C578 1.477 . S
C582 H599 0.932 . S
C583 U566 2.882 . S
C583 C577 1.428 . S
C583 O586 1.301 . S
C583 O587 1.282 . S
O584 U566 2.441 . S
O584 C570 1.249 . S
O585 U566 2.420 . S
O585 C570 1.202 . S
O586 U566 2.455 . S
O586 C583 1.301 . S
O587 U566 2.449 . S
O587 C583 1.282 . S
H588 C561 0.931 . S
H589 C563 0.929 . S
H590 C564 0.930 . S
H591 C565 0.931 . S
H592 C572 0.932 . S
H593 C573 0.930 . S
H594 C574 0.929 . S
H595 C576 0.930 . S
H596 C578 0.932 . S
H597 C579 0.929 . S
H598 C580 0.928 . S
H599 C582 0.932 . S
C600 C601 1.264 . S
C600 C605 1.479 . S
C600 C610 1.465 . S
C601 C600 1.264 . S
C601 C603 1.339 . S
C601 H628 0.931 . S
C602 C603 1.395 . S
C602 C604 1.320 . S
C603 C601 1.339 . S
C603 C602 1.395 . S
C603 H629 0.929 . S
C604 C602 1.320 . S
C604 C605 1.405 . S
C604 H630 0.930 . S
C605 C600 1.479 . S
C605 C604 1.405 . S
C605 H631 0.931 . S
U606 O607 2.454 . S
U606 O608 2.458 . S
U606 C609 2.984 . S
U606 C610 2.847 . S
U606 C623 2.882 . S
U606 O624 2.441 . S
U606 O625 2.420 . S
U606 O626 2.455 . S
U606 O627 2.449 . S
O607 U606 2.454 . S
O607 C609 1.353 . S
O608 U606 2.458 . S
O608 C609 1.286 . S
C609 U606 2.984 . S
C609 O607 1.353 . S
C609 O608 1.286 . S
C609 C611 1.363 . S
C610 C600 1.465 . S
C610 U606 2.847 . S
C610 O624 1.249 . S
C610 O625 1.202 . S
C611 C609 1.363 . S
C611 C613 1.408 . S
C611 C616 1.342 . S
C612 C613 1.310 . S
C612 C615 1.461 . S
C612 H632 0.932 . S
C613 C611 1.408 . S
C613 C612 1.310 . S
C613 H633 0.930 . S
C614 C615 1.474 . S
C614 C616 1.285 . S
C614 H634 0.929 . S
C615 C612 1.461 . S
C615 C614 1.474 . S
C616 C611 1.342 . S
C616 C614 1.285 . S
C616 H635 0.930 . S
C617 C620 1.424 . S
C617 C622 1.245 . S
C617 C623 1.428 . S
C618 C621 1.260 . S
C618 C622 1.477 . S
C618 H636 0.932 . S
C619 C620 1.384 . S
C619 C621 1.479 . S
C619 H637 0.929 . S
C620 C617 1.424 . S
C620 C619 1.384 . S
C620 H638 0.928 . S
C621 C618 1.260 . S
C621 C619 1.479 . S
C622 C617 1.245 . S
C622 C618 1.477 . S
C622 H639 0.932 . S
C623 U606 2.882 . S
C623 C617 1.428 . S
C623 O626 1.301 . S
C623 O627 1.282 . S
O624 U606 2.441 . S
O624 C610 1.249 . S
O625 U606 2.420 . S
O625 C610 1.202 . S
O626 U606 2.455 . S
O626 C623 1.301 . S
O627 U606 2.449 . S
O627 C623 1.282 . S
H628 C601 0.931 . S
H629 C603 0.929 . S
H630 C604 0.930 . S
H631 C605 0.931 . S
H632 C612 0.932 . S
H633 C613 0.930 . S
H634 C614 0.929 . S
H635 C616 0.930 . S
H636 C618 0.932 . S
H637 C619 0.929 . S
H638 C620 0.928 . S
H639 C622 0.932 . S
C640 C641 1.264 . S
C640 C645 1.479 . S
C640 C650 1.465 . S
C641 C640 1.264 . S
C641 C643 1.339 . S
C641 H668 0.931 . S
C642 C643 1.395 . S
C642 C644 1.320 . S
C643 C641 1.339 . S
C643 C642 1.395 . S
C643 H669 0.929 . S
C644 C642 1.320 . S
C644 C645 1.405 . S
C644 H670 0.930 . S
C645 C640 1.479 . S
C645 C644 1.405 . S
C645 H671 0.931 . S
U646 O647 2.454 . S
U646 O648 2.458 . S
U646 C649 2.984 . S
U646 C650 2.847 . S
U646 C663 2.882 . S
U646 O664 2.441 . S
U646 O665 2.420 . S
U646 O666 2.455 . S
U646 O667 2.449 . S
O647 U646 2.454 . S
O647 C649 1.353 . S
O648 U646 2.458 . S
O648 C649 1.286 . S
C649 U646 2.984 . S
C649 O647 1.353 . S
C649 O648 1.286 . S
C649 C651 1.363 . S
C650 C640 1.465 . S
C650 U646 2.847 . S
C650 O664 1.249 . S
C650 O665 1.202 . S
C651 C649 1.363 . S
C651 C653 1.408 . S
C651 C656 1.342 . S
C652 C653 1.310 . S
C652 C655 1.461 . S
C652 H672 0.932 . S
C653 C651 1.408 . S
C653 C652 1.310 . S
C653 H673 0.930 . S
C654 C655 1.474 . S
C654 C656 1.285 . S
C654 H674 0.929 . S
C655 C652 1.461 . S
C655 C654 1.474 . S
C656 C651 1.342 . S
C656 C654 1.285 . S
C656 H675 0.930 . S
C657 C660 1.424 . S
C657 C662 1.245 . S
C657 C663 1.428 . S
C658 C661 1.260 . S
C658 C662 1.477 . S
C658 H676 0.932 . S
C659 C660 1.384 . S
C659 C661 1.479 . S
C659 H677 0.929 . S
C660 C657 1.424 . S
C660 C659 1.384 . S
C660 H678 0.928 . S
C661 C658 1.260 . S
C661 C659 1.479 . S
C662 C657 1.245 . S
C662 C658 1.477 . S
C662 H679 0.932 . S
C663 U646 2.882 . S
C663 C657 1.428 . S
C663 O666 1.301 . S
C663 O667 1.282 . S
O664 U646 2.441 . S
O664 C650 1.249 . S
O665 U646 2.420 . S
O665 C650 1.202 . S
O666 U646 2.455 . S
O666 C663 1.301 . S
O667 U646 2.449 . S
O667 C663 1.282 . S
H668 C641 0.931 . S
H669 C643 0.929 . S
H670 C644 0.930 . S
H671 C645 0.931 . S
H672 C652 0.932 . S
H673 C653 0.930 . S
H674 C654 0.929 . S
H675 C656 0.930 . S
H676 C658 0.932 . S
H677 C659 0.929 . S
H678 C660 0.928 . S
H679 C662 0.932 . S
C680 C681 1.264 . S
C680 C685 1.479 . S
C680 C690 1.465 . S
C681 C680 1.264 . S
C681 C683 1.339 . S
C681 H708 0.931 . S
C682 C683 1.395 . S
C682 C684 1.320 . S
C683 C681 1.339 . S
C683 C682 1.395 . S
C683 H709 0.929 . S
C684 C682 1.320 . S
C684 C685 1.405 . S
C684 H710 0.930 . S
C685 C680 1.479 . S
C685 C684 1.405 . S
C685 H711 0.931 . S
U686 O687 2.454 . S
U686 O688 2.458 . S
U686 C689 2.984 . S
U686 C690 2.847 . S
U686 C703 2.882 . S
U686 O704 2.441 . S
U686 O705 2.420 . S
U686 O706 2.455 . S
U686 O707 2.449 . S
O687 U686 2.454 . S
O687 C689 1.353 . S
O688 U686 2.458 . S
O688 C689 1.286 . S
C689 U686 2.984 . S
C689 O687 1.353 . S
C689 O688 1.286 . S
C689 C691 1.363 . S
C690 C680 1.465 . S
C690 U686 2.847 . S
C690 O704 1.249 . S
C690 O705 1.202 . S
C691 C689 1.363 . S
C691 C693 1.408 . S
C691 C696 1.342 . S
C692 C693 1.310 . S
C692 C695 1.461 . S
C692 H712 0.932 . S
C693 C691 1.408 . S
C693 C692 1.310 . S
C693 H713 0.930 . S
C694 C695 1.474 . S
C694 C696 1.285 . S
C694 H714 0.929 . S
C695 C692 1.461 . S
C695 C694 1.474 . S
C696 C691 1.342 . S
C696 C694 1.285 . S
C696 H715 0.930 . S
C697 C700 1.424 . S
C697 C702 1.245 . S
C697 C703 1.428 . S
C698 C701 1.260 . S
C698 C702 1.477 . S
C698 H716 0.932 . S
C699 C700 1.384 . S
C699 C701 1.479 . S
C699 H717 0.929 . S
C700 C697 1.424 . S
C700 C699 1.384 . S
C700 H718 0.928 . S
C701 C698 1.260 . S
C701 C699 1.479 . S
C702 C697 1.245 . S
C702 C698 1.477 . S
C702 H719 0.932 . S
C703 U686 2.882 . S
C703 C697 1.428 . S
C703 O706 1.301 . S
C703 O707 1.282 . S
O704 U686 2.441 . S
O704 C690 1.249 . S
O705 U686 2.420 . S
O705 C690 1.202 . S
O706 U686 2.455 . S
O706 C703 1.301 . S
O707 U686 2.449 . S
O707 C703 1.282 . S
H708 C681 0.931 . S
H709 C683 0.929 . S
H710 C684 0.930 . S
H711 C685 0.931 . S
H712 C692 0.932 . S
H713 C693 0.930 . S
H714 C694 0.929 . S
H715 C696 0.930 . S
H716 C698 0.932 . S
H717 C699 0.929 . S
H718 C700 0.928 . S
H719 C702 0.932 . S
C720 C721 1.264 . S
C720 C725 1.479 . S
C720 C730 1.465 . S
C721 C720 1.264 . S
C721 C723 1.339 . S
C721 H748 0.931 . S
C722 C723 1.395 . S
C722 C724 1.320 . S
C723 C721 1.339 . S
C723 C722 1.395 . S
C723 H749 0.929 . S
C724 C722 1.320 . S
C724 C725 1.405 . S
C724 H750 0.930 . S
C725 C720 1.479 . S
C725 C724 1.405 . S
C725 H751 0.931 . S
U726 O727 2.454 . S
U726 O728 2.458 . S
U726 C729 2.984 . S
U726 C730 2.847 . S
U726 C743 2.882 . S
U726 O744 2.441 . S
U726 O745 2.420 . S
U726 O746 2.455 . S
U726 O747 2.449 . S
O727 U726 2.454 . S
O727 C729 1.353 . S
O728 U726 2.458 . S
O728 C729 1.286 . S
C729 U726 2.984 . S
C729 O727 1.353 . S
C729 O728 1.286 . S
C729 C731 1.363 . S
C730 C720 1.465 . S
C730 U726 2.847 . S
C730 O744 1.249 . S
C730 O745 1.202 . S
C731 C729 1.363 . S
C731 C733 1.408 . S
C731 C736 1.342 . S
C732 C733 1.310 . S
C732 C735 1.461 . S
C732 H752 0.932 . S
C733 C731 1.408 . S
C733 C732 1.310 . S
C733 H753 0.930 . S
C734 C735 1.474 . S
C734 C736 1.285 . S
C734 H754 0.929 . S
C735 C732 1.461 . S
C735 C734 1.474 . S
C736 C731 1.342 . S
C736 C734 1.285 . S
C736 H755 0.930 . S
C737 C740 1.424 . S
C737 C742 1.245 . S
C737 C743 1.428 . S
C738 C741 1.260 . S
C738 C742 1.477 . S
C738 H756 0.932 . S
C739 C740 1.384 . S
C739 C741 1.479 . S
C739 H757 0.929 . S
C740 C737 1.424 . S
C740 C739 1.384 . S
C740 H758 0.928 . S
C741 C738 1.260 . S
C741 C739 1.479 . S
C742 C737 1.245 . S
C742 C738 1.477 . S
C742 H759 0.932 . S
C743 U726 2.882 . S
C743 C737 1.428 . S
C743 O746 1.301 . S
C743 O747 1.282 . S
O744 U726 2.441 . S
O744 C730 1.249 . S
O745 U726 2.420 . S
O745 C730 1.202 . S
O746 U726 2.455 . S
O746 C743 1.301 . S
O747 U726 2.449 . S
O747 C743 1.282 . S
H748 C721 0.931 . S
H749 C723 0.929 . S
H750 C724 0.930 . S
H751 C725 0.931 . S
H752 C732 0.932 . S
H753 C733 0.930 . S
H754 C734 0.929 . S
H755 C736 0.930 . S
H756 C738 0.932 . S
H757 C739 0.929 . S
H758 C740 0.928 . S
H759 C742 0.932 . S
C760 C761 1.264 . S
C760 C765 1.479 . S
C760 C770 1.465 . S
C761 C760 1.264 . S
C761 C763 1.339 . S
C761 H788 0.931 . S
C762 C763 1.395 . S
C762 C764 1.320 . S
C763 C761 1.339 . S
C763 C762 1.395 . S
C763 H789 0.929 . S
C764 C762 1.320 . S
C764 C765 1.405 . S
C764 H790 0.930 . S
C765 C760 1.479 . S
C765 C764 1.405 . S
C765 H791 0.931 . S
U766 O767 2.454 . S
U766 O768 2.458 . S
U766 C769 2.984 . S
U766 C770 2.847 . S
U766 C783 2.882 . S
U766 O784 2.441 . S
U766 O785 2.420 . S
U766 O786 2.455 . S
U766 O787 2.449 . S
O767 U766 2.454 . S
O767 C769 1.353 . S
O768 U766 2.458 . S
O768 C769 1.286 . S
C769 U766 2.984 . S
C769 O767 1.353 . S
C769 O768 1.286 . S
C769 C771 1.363 . S
C770 C760 1.465 . S
C770 U766 2.847 . S
C770 O784 1.249 . S
C770 O785 1.202 . S
C771 C769 1.363 . S
C771 C773 1.408 . S
C771 C776 1.342 . S
C772 C773 1.310 . S
C772 C775 1.461 . S
C772 H792 0.932 . S
C773 C771 1.408 . S
C773 C772 1.310 . S
C773 H793 0.930 . S
C774 C775 1.474 . S
C774 C776 1.285 . S
C774 H794 0.929 . S
C775 C772 1.461 . S
C775 C774 1.474 . S
C776 C771 1.342 . S
C776 C774 1.285 . S
C776 H795 0.930 . S
C777 C780 1.424 . S
C777 C782 1.245 . S
C777 C783 1.428 . S
C778 C781 1.260 . S
C778 C782 1.477 . S
C778 H796 0.932 . S
C779 C780 1.384 . S
C779 C781 1.479 . S
C779 H797 0.929 . S
C780 C777 1.424 . S
C780 C779 1.384 . S
C780 H798 0.928 . S
C781 C778 1.260 . S
C781 C779 1.479 . S
C782 C777 1.245 . S
C782 C778 1.477 . S
C782 H799 0.932 . S
C783 U766 2.882 . S
C783 C777 1.428 . S
C783 O786 1.301 . S
C783 O787 1.282 . S
O784 U766 2.441 . S
O784 C770 1.249 . S
O785 U766 2.420 . S
O785 C770 1.202 . S
O786 U766 2.455 . S
O786 C783 1.301 . S
O787 U766 2.449 . S
O787 C783 1.282 . S
H788 C761 0.931 . S
H789 C763 0.929 . S
H790 C764 0.930 . S
H791 C765 0.931 . S
H792 C772 0.932 . S
H793 C773 0.930 . S
H794 C774 0.929 . S
H795 C776 0.930 . S
H796 C778 0.932 . S
H797 C779 0.929 . S
H798 C780 0.928 . S
H799 C782 0.932 . S
C800 C801 1.264 . S
C800 C805 1.479 . S
C800 C810 1.465 . S
C801 C800 1.264 . S
C801 C803 1.339 . S
C801 H828 0.931 . S
C802 C803 1.395 . S
C802 C804 1.320 . S
C803 C801 1.339 . S
C803 C802 1.395 . S
C803 H829 0.929 . S
C804 C802 1.320 . S
C804 C805 1.405 . S
C804 H830 0.930 . S
C805 C800 1.479 . S
C805 C804 1.405 . S
C805 H831 0.931 . S
U806 O807 2.454 . S
U806 O808 2.458 . S
U806 C809 2.984 . S
U806 C810 2.847 . S
U806 C823 2.882 . S
U806 O824 2.441 . S
U806 O825 2.420 . S
U806 O826 2.455 . S
U806 O827 2.449 . S
O807 U806 2.454 . S
O807 C809 1.353 . S
O808 U806 2.458 . S
O808 C809 1.286 . S
C809 U806 2.984 . S
C809 O807 1.353 . S
C809 O808 1.286 . S
C809 C811 1.363 . S
C810 C800 1.465 . S
C810 U806 2.847 . S
C810 O824 1.249 . S
C810 O825 1.202 . S
C811 C809 1.363 . S
C811 C813 1.408 . S
C811 C816 1.342 . S
C812 C813 1.310 . S
C812 C815 1.461 . S
C812 H832 0.932 . S
C813 C811 1.408 . S
C813 C812 1.310 . S
C813 H833 0.930 . S
C814 C815 1.474 . S
C814 C816 1.285 . S
C814 H834 0.929 . S
C815 C812 1.461 . S
C815 C814 1.474 . S
C816 C811 1.342 . S
C816 C814 1.285 . S
C816 H835 0.930 . S
C817 C820 1.424 . S
C817 C822 1.245 . S
C817 C823 1.428 . S
C818 C821 1.260 . S
C818 C822 1.477 . S
C818 H836 0.932 . S
C819 C820 1.384 . S
C819 C821 1.479 . S
C819 H837 0.929 . S
C820 C817 1.424 . S
C820 C819 1.384 . S
C820 H838 0.928 . S
C821 C818 1.260 . S
C821 C819 1.479 . S
C822 C817 1.245 . S
C822 C818 1.477 . S
C822 H839 0.932 . S
C823 U806 2.882 . S
C823 C817 1.428 . S
C823 O826 1.301 . S
C823 O827 1.282 . S
O824 U806 2.441 . S
O824 C810 1.249 . S
O825 U806 2.420 . S
O825 C810 1.202 . S
O826 U806 2.455 . S
O826 C823 1.301 . S
O827 U806 2.449 . S
O827 C823 1.282 . S
H828 C801 0.931 . S
H829 C803 0.929 . S
H830 C804 0.930 . S
H831 C805 0.931 . S
H832 C812 0.932 . S
H833 C813 0.930 . S
H834 C814 0.929 . S
H835 C816 0.930 . S
H836 C818 0.932 . S
H837 C819 0.929 . S
H838 C820 0.928 . S
H839 C822 0.932 . S
C840 C841 1.264 . S
C840 C845 1.479 . S
C840 C850 1.465 . S
C841 C840 1.264 . S
C841 C843 1.339 . S
C841 H868 0.931 . S
C842 C843 1.395 . S
C842 C844 1.320 . S
C843 C841 1.339 . S
C843 C842 1.395 . S
C843 H869 0.929 . S
C844 C842 1.320 . S
C844 C845 1.405 . S
C844 H870 0.930 . S
C845 C840 1.479 . S
C845 C844 1.405 . S
C845 H871 0.931 . S
U846 O847 2.454 . S
U846 O848 2.458 . S
U846 C849 2.984 . S
U846 C850 2.847 . S
U846 C863 2.882 . S
U846 O864 2.441 . S
U846 O865 2.420 . S
U846 O866 2.455 . S
U846 O867 2.449 . S
O847 U846 2.454 . S
O847 C849 1.353 . S
O848 U846 2.458 . S
O848 C849 1.286 . S
C849 U846 2.984 . S
C849 O847 1.353 . S
C849 O848 1.286 . S
C849 C851 1.363 . S
C850 C840 1.465 . S
C850 U846 2.847 . S
C850 O864 1.249 . S
C850 O865 1.202 . S
C851 C849 1.363 . S
C851 C853 1.408 . S
C851 C856 1.342 . S
C852 C853 1.310 . S
C852 C855 1.461 . S
C852 H872 0.932 . S
C853 C851 1.408 . S
C853 C852 1.310 . S
C853 H873 0.930 . S
C854 C855 1.474 . S
C854 C856 1.285 . S
C854 H874 0.929 . S
C855 C852 1.461 . S
C855 C854 1.474 . S
C856 C851 1.342 . S
C856 C854 1.285 . S
C856 H875 0.930 . S
C857 C860 1.424 . S
C857 C862 1.245 . S
C857 C863 1.428 . S
C858 C861 1.260 . S
C858 C862 1.477 . S
C858 H876 0.932 . S
C859 C860 1.384 . S
C859 C861 1.479 . S
C859 H877 0.929 . S
C860 C857 1.424 . S
C860 C859 1.384 . S
C860 H878 0.928 . S
C861 C858 1.260 . S
C861 C859 1.479 . S
C862 C857 1.245 . S
C862 C858 1.477 . S
C862 H879 0.932 . S
C863 U846 2.882 . S
C863 C857 1.428 . S
C863 O866 1.301 . S
C863 O867 1.282 . S
O864 U846 2.441 . S
O864 C850 1.249 . S
O865 U846 2.420 . S
O865 C850 1.202 . S
O866 U846 2.455 . S
O866 C863 1.301 . S
O867 U846 2.449 . S
O867 C863 1.282 . S
H868 C841 0.931 . S
H869 C843 0.929 . S
H870 C844 0.930 . S
H871 C845 0.931 . S
H872 C852 0.932 . S
H873 C853 0.930 . S
H874 C854 0.929 . S
H875 C856 0.930 . S
H876 C858 0.932 . S
H877 C859 0.929 . S
H878 C860 0.928 . S
H879 C862 0.932 . S
C880 C881 1.264 . S
C880 C885 1.479 . S
C880 C890 1.465 . S
C881 C880 1.264 . S
C881 C883 1.339 . S
C881 H908 0.931 . S
C882 C883 1.395 . S
C882 C884 1.320 . S
C883 C881 1.339 . S
C883 C882 1.395 . S
C883 H909 0.929 . S
C884 C882 1.320 . S
C884 C885 1.405 . S
C884 H910 0.930 . S
C885 C880 1.479 . S
C885 C884 1.405 . S
C885 H911 0.931 . S
U886 O887 2.454 . S
U886 O888 2.458 . S
U886 C889 2.984 . S
U886 C890 2.847 . S
U886 C903 2.882 . S
U886 O904 2.441 . S
U886 O905 2.420 . S
U886 O906 2.455 . S
U886 O907 2.449 . S
O887 U886 2.454 . S
O887 C889 1.353 . S
O888 U886 2.458 . S
O888 C889 1.286 . S
C889 U886 2.984 . S
C889 O887 1.353 . S
C889 O888 1.286 . S
C889 C891 1.363 . S
C890 C880 1.465 . S
C890 U886 2.847 . S
C890 O904 1.249 . S
C890 O905 1.202 . S
C891 C889 1.363 . S
C891 C893 1.408 . S
C891 C896 1.342 . S
C892 C893 1.310 . S
C892 C895 1.461 . S
C892 H912 0.932 . S
C893 C891 1.408 . S
C893 C892 1.310 . S
C893 H913 0.930 . S
C894 C895 1.474 . S
C894 C896 1.285 . S
C894 H914 0.929 . S
C895 C892 1.461 . S
C895 C894 1.474 . S
C896 C891 1.342 . S
C896 C894 1.285 . S
C896 H915 0.930 . S
C897 C900 1.424 . S
C897 C902 1.245 . S
C897 C903 1.428 . S
C898 C901 1.260 . S
C898 C902 1.477 . S
C898 H916 0.932 . S
C899 C900 1.384 . S
C899 C901 1.479 . S
C899 H917 0.929 . S
C900 C897 1.424 . S
C900 C899 1.384 . S
C900 H918 0.928 . S
C901 C898 1.260 . S
C901 C899 1.479 . S
C902 C897 1.245 . S
C902 C898 1.477 . S
C902 H919 0.932 . S
C903 U886 2.882 . S
C903 C897 1.428 . S
C903 O906 1.301 . S
C903 O907 1.282 . S
O904 U886 2.441 . S
O904 C890 1.249 . S
O905 U886 2.420 . S
O905 C890 1.202 . S
O906 U886 2.455 . S
O906 C903 1.301 . S
O907 U886 2.449 . S
O907 C903 1.282 . S
H908 C881 0.931 . S
H909 C883 0.929 . S
H910 C884 0.930 . S
H911 C885 0.931 . S
H912 C892 0.932 . S
H913 C893 0.930 . S
H914 C894 0.929 . S
H915 C896 0.930 . S
H916 C898 0.932 . S
H917 C899 0.929 . S
H918 C900 0.928 . S
H919 C902 0.932 . S
C920 C921 1.264 . S
C920 C925 1.479 . S
C920 C930 1.465 . S
C921 C920 1.264 . S
C921 C923 1.339 . S
C921 H948 0.931 . S
C922 C923 1.395 . S
C922 C924 1.320 . S
C923 C921 1.339 . S
C923 C922 1.395 . S
C923 H949 0.929 . S
C924 C922 1.320 . S
C924 C925 1.405 . S
C924 H950 0.930 . S
C925 C920 1.479 . S
C925 C924 1.405 . S
C925 H951 0.931 . S
U926 O927 2.454 . S
U926 O928 2.458 . S
U926 C929 2.984 . S
U926 C930 2.847 . S
U926 C943 2.882 . S
U926 O944 2.441 . S
U926 O945 2.420 . S
U926 O946 2.455 . S
U926 O947 2.449 . S
O927 U926 2.454 . S
O927 C929 1.353 . S
O928 U926 2.458 . S
O928 C929 1.286 . S
C929 U926 2.984 . S
C929 O927 1.353 . S
C929 O928 1.286 . S
C929 C931 1.363 . S
C930 C920 1.465 . S
C930 U926 2.847 . S
C930 O944 1.249 . S
C930 O945 1.202 . S
C931 C929 1.363 . S
C931 C933 1.408 . S
C931 C936 1.342 . S
C932 C933 1.310 . S
C932 C935 1.461 . S
C932 H952 0.932 . S
C933 C931 1.408 . S
C933 C932 1.310 . S
C933 H953 0.930 . S
C934 C935 1.474 . S
C934 C936 1.285 . S
C934 H954 0.929 . S
C935 C932 1.461 . S
C935 C934 1.474 . S
C936 C931 1.342 . S
C936 C934 1.285 . S
C936 H955 0.930 . S
C937 C940 1.424 . S
C937 C942 1.245 . S
C937 C943 1.428 . S
C938 C941 1.260 . S
C938 C942 1.477 . S
C938 H956 0.932 . S
C939 C940 1.384 . S
C939 C941 1.479 . S
C939 H957 0.929 . S
C940 C937 1.424 . S
C940 C939 1.384 . S
C940 H958 0.928 . S
C941 C938 1.260 . S
C941 C939 1.479 . S
C942 C937 1.245 . S
C942 C938 1.477 . S
C942 H959 0.932 . S
C943 U926 2.882 . S
C943 C937 1.428 . S
C943 O946 1.301 . S
C943 O947 1.282 . S
O944 U926 2.441 . S
O944 C930 1.249 . S
O945 U926 2.420 . S
O945 C930 1.202 . S
O946 U926 2.455 . S
O946 C943 1.301 . S
O947 U926 2.449 . S
O947 C943 1.282 . S
H948 C921 0.931 . S
H949 C923 0.929 . S
H950 C924 0.930 . S
H951 C925 0.931 . S
H952 C932 0.932 . S
H953 C933 0.930 . S
H954 C934 0.929 . S
H955 C936 0.930 . S
H956 C938 0.932 . S
H957 C939 0.929 . S
H958 C940 0.928 . S
H959 C942 0.932 . S
C960 C961 1.264 . S
C960 C965 1.479 . S
C960 C970 1.465 . S
C961 C960 1.264 . S
C961 C963 1.339 . S
C961 H988 0.931 . S
C962 C963 1.395 . S
C962 C964 1.320 . S
C963 C961 1.339 . S
C963 C962 1.395 . S
C963 H989 0.929 . S
C964 C962 1.320 . S
C964 C965 1.405 . S
C964 H990 0.930 . S
C965 C960 1.479 . S
C965 C964 1.405 . S
C965 H991 0.931 . S
U966 O967 2.454 . S
U966 O968 2.458 . S
U966 C969 2.984 . S
U966 C970 2.847 . S
U966 C983 2.882 . S
U966 O984 2.441 . S
U966 O985 2.420 . S
U966 O986 2.455 . S
U966 O987 2.449 . S
O967 U966 2.454 . S
O967 C969 1.353 . S
O968 U966 2.458 . S
O968 C969 1.286 . S
C969 U966 2.984 . S
C969 O967 1.353 . S
C969 O968 1.286 . S
C969 C971 1.363 . S
C970 C960 1.465 . S
C970 U966 2.847 . S
C970 O984 1.249 . S
C970 O985 1.202 . S
C971 C969 1.363 . S
C971 C973 1.408 . S
C971 C976 1.342 . S
C972 C973 1.310 . S
C972 C975 1.461 . S
C972 H992 0.932 . S
C973 C971 1.408 . S
C973 C972 1.310 . S
C973 H993 0.930 . S
C974 C975 1.474 . S
C974 C976 1.285 . S
C974 H994 0.929 . S
C975 C972 1.461 . S
C975 C974 1.474 . S
C976 C971 1.342 . S
C976 C974 1.285 . S
C976 H995 0.930 . S
C977 C980 1.424 . S
C977 C982 1.245 . S
C977 C983 1.428 . S
C978 C981 1.260 . S
C978 C982 1.477 . S
C978 H996 0.932 . S
C979 C980 1.384 . S
C979 C981 1.479 . S
C979 H997 0.929 . S
C980 C977 1.424 . S
C980 C979 1.384 . S
C980 H998 0.928 . S
C981 C978 1.260 . S
C981 C979 1.479 . S
C982 C977 1.245 . S
C982 C978 1.477 . S
C982 H999 0.932 . S
C983 U966 2.882 . S
C983 C977 1.428 . S
C983 O986 1.301 . S
C983 O987 1.282 . S
O984 U966 2.441 . S
O984 C970 1.249 . S
O985 U966 2.420 . S
O985 C970 1.202 . S
O986 U966 2.455 . S
O986 C983 1.301 . S
O987 U966 2.449 . S
O987 C983 1.282 . S
H988 C961 0.931 . S
H989 C963 0.929 . S
H990 C964 0.930 . S
H991 C965 0.931 . S
H992 C972 0.932 . S
H993 C973 0.930 . S
H994 C974 0.929 . S
H995 C976 0.930 . S
H996 C978 0.932 . S
H997 C979 0.929 . S
H998 C980 0.928 . S
H999 C982 0.932 . S
C1000 C1001 1.264 . S
C1000 C1005 1.479 . S
C1000 C1010 1.465 . S
C1001 C1000 1.264 . S
C1001 C1003 1.339 . S
C1001 H1028 0.931 . S
C1002 C1003 1.395 . S
C1002 C1004 1.320 . S
C1003 C1001 1.339 . S
C1003 C1002 1.395 . S
C1003 H1029 0.929 . S
C1004 C1002 1.320 . S
C1004 C1005 1.405 . S
C1004 H1030 0.930 . S
C1005 C1000 1.479 . S
C1005 C1004 1.405 . S
C1005 H1031 0.931 . S
U1006 O1007 2.454 . S
U1006 O1008 2.458 . S
U1006 C1009 2.984 . S
U1006 C1010 2.847 . S
U1006 C1023 2.882 . S
U1006 O1024 2.441 . S
U1006 O1025 2.420 . S
U1006 O1026 2.455 . S
U1006 O1027 2.449 . S
O1007 U1006 2.454 . S
O1007 C1009 1.353 . S
O1008 U1006 2.458 . S
O1008 C1009 1.286 . S
C1009 U1006 2.984 . S
C1009 O1007 1.353 . S
C1009 O1008 1.286 . S
C1009 C1011 1.363 . S
C1010 C1000 1.465 . S
C1010 U1006 2.847 . S
C1010 O1024 1.249 . S
C1010 O1025 1.202 . S
C1011 C1009 1.363 . S
C1011 C1013 1.408 . S
C1011 C1016 1.342 . S
C1012 C1013 1.310 . S
C1012 C1015 1.461 . S
C1012 H1032 0.932 . S
C1013 C1011 1.408 . S
C1013 C1012 1.310 . S
C1013 H1033 0.930 . S
C1014 C1015 1.474 . S
C1014 C1016 1.285 . S
C1014 H1034 0.929 . S
C1015 C1012 1.461 . S
C1015 C1014 1.474 . S
C1016 C1011 1.342 . S
C1016 C1014 1.285 . S
C1016 H1035 0.930 . S
C1017 C1020 1.424 . S
C1017 C1022 1.245 . S
C1017 C1023 1.428 . S
C1018 C1021 1.260 . S
C1018 C1022 1.477 . S
C1018 H1036 0.932 . S
C1019 C1020 1.384 . S
C1019 C1021 1.479 . S
C1019 H1037 0.929 . S
C1020 C1017 1.424 . S
C1020 C1019 1.384 . S
C1020 H1038 0.928 . S
C1021 C1018 1.260 . S
C1021 C1019 1.479 . S
C1022 C1017 1.245 . S
C1022 C1018 1.477 . S
C1022 H1039 0.932 . S
C1023 U1006 2.882 . S
C1023 C1017 1.428 . S
C1023 O1026 1.301 . S
C1023 O1027 1.282 . S
O1024 U1006 2.441 . S
O1024 C1010 1.249 . S
O1025 U1006 2.420 . S
O1025 C1010 1.202 . S
O1026 U1006 2.455 . S
O1026 C1023 1.301 . S
O1027 U1006 2.449 . S
O1027 C1023 1.282 . S
H1028 C1001 0.931 . S
H1029 C1003 0.929 . S
H1030 C1004 0.930 . S
H1031 C1005 0.931 . S
H1032 C1012 0.932 . S
H1033 C1013 0.930 . S
H1034 C1014 0.929 . S
H1035 C1016 0.930 . S
H1036 C1018 0.932 . S
H1037 C1019 0.929 . S
H1038 C1020 0.928 . S
H1039 C1022 0.932 . S
C1040 C1041 1.264 . S
C1040 C1045 1.479 . S
C1040 C1050 1.465 . S
C1041 C1040 1.264 . S
C1041 C1043 1.339 . S
C1041 H1068 0.931 . S
C1042 C1043 1.395 . S
C1042 C1044 1.320 . S
C1043 C1041 1.339 . S
C1043 C1042 1.395 . S
C1043 H1069 0.929 . S
C1044 C1042 1.320 . S
C1044 C1045 1.405 . S
C1044 H1070 0.930 . S
C1045 C1040 1.479 . S
C1045 C1044 1.405 . S
C1045 H1071 0.931 . S
U1046 O1047 2.454 . S
U1046 O1048 2.458 . S
U1046 C1049 2.984 . S
U1046 C1050 2.847 . S
U1046 C1063 2.882 . S
U1046 O1064 2.441 . S
U1046 O1065 2.420 . S
U1046 O1066 2.455 . S
U1046 O1067 2.449 . S
O1047 U1046 2.454 . S
O1047 C1049 1.353 . S
O1048 U1046 2.458 . S
O1048 C1049 1.286 . S
C1049 U1046 2.984 . S
C1049 O1047 1.353 . S
C1049 O1048 1.286 . S
C1049 C1051 1.363 . S
C1050 C1040 1.465 . S
C1050 U1046 2.847 . S
C1050 O1064 1.249 . S
C1050 O1065 1.202 . S
C1051 C1049 1.363 . S
C1051 C1053 1.408 . S
C1051 C1056 1.342 . S
C1052 C1053 1.310 . S
C1052 C1055 1.461 . S
C1052 H1072 0.932 . S
C1053 C1051 1.408 . S
C1053 C1052 1.310 . S
C1053 H1073 0.930 . S
C1054 C1055 1.474 . S
C1054 C1056 1.285 . S
C1054 H1074 0.929 . S
C1055 C1052 1.461 . S
C1055 C1054 1.474 . S
C1056 C1051 1.342 . S
C1056 C1054 1.285 . S
C1056 H1075 0.930 . S
C1057 C1060 1.424 . S
C1057 C1062 1.245 . S
C1057 C1063 1.428 . S
C1058 C1061 1.260 . S
C1058 C1062 1.477 . S
C1058 H1076 0.932 . S
C1059 C1060 1.384 . S
C1059 C1061 1.479 . S
C1059 H1077 0.929 . S
C1060 C1057 1.424 . S
C1060 C1059 1.384 . S
C1060 H1078 0.928 . S
C1061 C1058 1.260 . S
C1061 C1059 1.479 . S
C1062 C1057 1.245 . S
C1062 C1058 1.477 . S
C1062 H1079 0.932 . S
C1063 U1046 2.882 . S
C1063 C1057 1.428 . S
C1063 O1066 1.301 . S
C1063 O1067 1.282 . S
O1064 U1046 2.441 . S
O1064 C1050 1.249 . S
O1065 U1046 2.420 . S
O1065 C1050 1.202 . S
O1066 U1046 2.455 . S
O1066 C1063 1.301 . S
O1067 U1046 2.449 . S
O1067 C1063 1.282 . S
H1068 C1041 0.931 . S
H1069 C1043 0.929 . S
H1070 C1044 0.930 . S
H1071 C1045 0.931 . S
H1072 C1052 0.932 . S
H1073 C1053 0.930 . S
H1074 C1054 0.929 . S
H1075 C1056 0.930 . S
H1076 C1058 0.932 . S
H1077 C1059 0.929 . S
H1078 C1060 0.928 . S
H1079 C1062 0.932 . S
C1080 C1081 1.264 . S
C1080 C1085 1.479 . S
C1080 C1090 1.465 . S
C1081 C1080 1.264 . S
C1081 C1083 1.339 . S
C1081 H1108 0.931 . S
C1082 C1083 1.395 . S
C1082 C1084 1.320 . S
C1083 C1081 1.339 . S
C1083 C1082 1.395 . S
C1083 H1109 0.929 . S
C1084 C1082 1.320 . S
C1084 C1085 1.405 . S
C1084 H1110 0.930 . S
C1085 C1080 1.479 . S
C1085 C1084 1.405 . S
C1085 H1111 0.931 . S
U1086 O1087 2.454 . S
U1086 O1088 2.458 . S
U1086 C1089 2.984 . S
U1086 C1090 2.847 . S
U1086 C1103 2.882 . S
U1086 O1104 2.441 . S
U1086 O1105 2.420 . S
U1086 O1106 2.455 . S
U1086 O1107 2.449 . S
O1087 U1086 2.454 . S
O1087 C1089 1.353 . S
O1088 U1086 2.458 . S
O1088 C1089 1.286 . S
C1089 U1086 2.984 . S
C1089 O1087 1.353 . S
C1089 O1088 1.286 . S
C1089 C1091 1.363 . S
C1090 C1080 1.465 . S
C1090 U1086 2.847 . S
C1090 O1104 1.249 . S
C1090 O1105 1.202 . S
C1091 C1089 1.363 . S
C1091 C1093 1.408 . S
C1091 C1096 1.342 . S
C1092 C1093 1.310 . S
C1092 C1095 1.461 . S
C1092 H1112 0.932 . S
C1093 C1091 1.408 . S
C1093 C1092 1.310 . S
C1093 H1113 0.930 . S
C1094 C1095 1.474 . S
C1094 C1096 1.285 . S
C1094 H1114 0.929 . S
C1095 C1092 1.461 . S
C1095 C1094 1.474 . S
C1096 C1091 1.342 . S
C1096 C1094 1.285 . S
C1096 H1115 0.930 . S
C1097 C1100 1.424 . S
C1097 C1102 1.245 . S
C1097 C1103 1.428 . S
C1098 C1101 1.260 . S
C1098 C1102 1.477 . S
C1098 H1116 0.932 . S
C1099 C1100 1.384 . S
C1099 C1101 1.479 . S
C1099 H1117 0.929 . S
C1100 C1097 1.424 . S
C1100 C1099 1.384 . S
C1100 H1118 0.928 . S
C1101 C1098 1.260 . S
C1101 C1099 1.479 . S
C1102 C1097 1.245 . S
C1102 C1098 1.477 . S
C1102 H1119 0.932 . S
C1103 U1086 2.882 . S
C1103 C1097 1.428 . S
C1103 O1106 1.301 . S
C1103 O1107 1.282 . S
O1104 U1086 2.441 . S
O1104 C1090 1.249 . S
O1105 U1086 2.420 . S
O1105 C1090 1.202 . S
O1106 U1086 2.455 . S
O1106 C1103 1.301 . S
O1107 U1086 2.449 . S
O1107 C1103 1.282 . S
H1108 C1081 0.931 . S
H1109 C1083 0.929 . S
H1110 C1084 0.930 . S
H1111 C1085 0.931 . S
H1112 C1092 0.932 . S
H1113 C1093 0.930 . S
H1114 C1094 0.929 . S
H1115 C1096 0.930 . S
H1116 C1098 0.932 . S
H1117 C1099 0.929 . S
H1118 C1100 0.928 . S
H1119 C1102 0.932 . S
C1120 C1121 1.264 . S
C1120 C1125 1.479 . S
C1120 C1130 1.465 . S
C1121 C1120 1.264 . S
C1121 C1123 1.339 . S
C1121 H1148 0.931 . S
C1122 C1123 1.395 . S
C1122 C1124 1.320 . S
C1123 C1121 1.339 . S
C1123 C1122 1.395 . S
C1123 H1149 0.929 . S
C1124 C1122 1.320 . S
C1124 C1125 1.405 . S
C1124 H1150 0.930 . S
C1125 C1120 1.479 . S
C1125 C1124 1.405 . S
C1125 H1151 0.931 . S
U1126 O1127 2.454 . S
U1126 O1128 2.458 . S
U1126 C1129 2.984 . S
U1126 C1130 2.847 . S
U1126 C1143 2.882 . S
U1126 O1144 2.441 . S
U1126 O1145 2.420 . S
U1126 O1146 2.455 . S
U1126 O1147 2.449 . S
O1127 U1126 2.454 . S
O1127 C1129 1.353 . S
O1128 U1126 2.458 . S
O1128 C1129 1.286 . S
C1129 U1126 2.984 . S
C1129 O1127 1.353 . S
C1129 O1128 1.286 . S
C1129 C1131 1.363 . S
C1130 C1120 1.465 . S
C1130 U1126 2.847 . S
C1130 O1144 1.249 . S
C1130 O1145 1.202 . S
C1131 C1129 1.363 . S
C1131 C1133 1.408 . S
C1131 C1136 1.342 . S
C1132 C1133 1.310 . S
C1132 C1135 1.461 . S
C1132 H1152 0.932 . S
C1133 C1131 1.408 . S
C1133 C1132 1.310 . S
C1133 H1153 0.930 . S
C1134 C1135 1.474 . S
C1134 C1136 1.285 . S
C1134 H1154 0.929 . S
C1135 C1132 1.461 . S
C1135 C1134 1.474 . S
C1136 C1131 1.342 . S
C1136 C1134 1.285 . S
C1136 H1155 0.930 . S
C1137 C1140 1.424 . S
C1137 C1142 1.245 . S
C1137 C1143 1.428 . S
C1138 C1141 1.260 . S
C1138 C1142 1.477 . S
C1138 H1156 0.932 . S
C1139 C1140 1.384 . S
C1139 C1141 1.479 . S
C1139 H1157 0.929 . S
C1140 C1137 1.424 . S
C1140 C1139 1.384 . S
C1140 H1158 0.928 . S
C1141 C1138 1.260 . S
C1141 C1139 1.479 . S
C1142 C1137 1.245 . S
C1142 C1138 1.477 . S
C1142 H1159 0.932 . S
C1143 U1126 2.882 . S
C1143 C1137 1.428 . S
C1143 O1146 1.301 . S
C1143 O1147 1.282 . S
O1144 U1126 2.441 . S
O1144 C1130 1.249 . S
O1145 U1126 2.420 . S
O1145 C1130 1.202 . S
O1146 U1126 2.455 . S
O1146 C1143 1.301 . S
O1147 U1126 2.449 . S
O1147 C1143 1.282 . S
H1148 C1121 0.931 . S
H1149 C1123 0.929 . S
H1150 C1124 0.930 . S
H1151 C1125 0.931 . S
H1152 C1132 0.932 . S
H1153 C1133 0.930 . S
H1154 C1134 0.929 . S
H1155 C1136 0.930 . S
H1156 C1138 0.932 . S
H1157 C1139 0.929 . S
H1158 C1140 0.928 . S
H1159 C1142 0.932 . S
C1160 C1161 1.264 . S
C1160 C1165 1.479 . S
C1160 C1170 1.465 . S
C1161 C1160 1.264 . S
C1161 C1163 1.339 . S
C1161 H1188 0.931 . S
C1162 C1163 1.395 . S
C1162 C1164 1.320 . S
C1163 C1161 1.339 . S
C1163 C1162 1.395 . S
C1163 H1189 0.929 . S
C1164 C1162 1.320 . S
C1164 C1165 1.405 . S
C1164 H1190 0.930 . S
C1165 C1160 1.479 . S
C1165 C1164 1.405 . S
C1165 H1191 0.931 . S
U1166 O1167 2.454 . S
U1166 O1168 2.458 . S
U1166 C1169 2.984 . S
U1166 C1170 2.847 . S
U1166 C1183 2.882 . S
U1166 O1184 2.441 . S
U1166 O1185 2.420 . S
U1166 O1186 2.455 . S
U1166 O1187 2.449 . S
O1167 U1166 2.454 . S
O1167 C1169 1.353 . S
O1168 U1166 2.458 . S
O1168 C1169 1.286 . S
C1169 U1166 2.984 . S
C1169 O1167 1.353 . S
C1169 O1168 1.286 . S
C1169 C1171 1.363 . S
C1170 C1160 1.465 . S
C1170 U1166 2.847 . S
C1170 O1184 1.249 . S
C1170 O1185 1.202 . S
C1171 C1169 1.363 . S
C1171 C1173 1.408 . S
C1171 C1176 1.342 . S
C1172 C1173 1.310 . S
C1172 C1175 1.461 . S
C1172 H1192 0.932 . S
C1173 C1171 1.408 . S
C1173 C1172 1.310 . S
C1173 H1193 0.930 . S
C1174 C1175 1.474 . S
C1174 C1176 1.285 . S
C1174 H1194 0.929 . S
C1175 C1172 1.461 . S
C1175 C1174 1.474 . S
C1176 C1171 1.342 . S
C1176 C1174 1.285 . S
C1176 H1195 0.930 . S
C1177 C1180 1.424 . S
C1177 C1182 1.245 . S
C1177 C1183 1.428 . S
C1178 C1181 1.260 . S
C1178 C1182 1.477 . S
C1178 H1196 0.932 . S
C1179 C1180 1.384 . S
C1179 C1181 1.479 . S
C1179 H1197 0.929 . S
C1180 C1177 1.424 . S
C1180 C1179 1.384 . S
C1180 H1198 0.928 . S
C1181 C1178 1.260 . S
C1181 C1179 1.479 . S
C1182 C1177 1.245 . S
C1182 C1178 1.477 . S
C1182 H1199 0.932 . S
C1183 U1166 2.882 . S
C1183 C1177 1.428 . S
C1183 O1186 1.301 . S
C1183 O1187 1.282 . S
O1184 U1166 2.441 . S
O1184 C1170 1.249 . S
O1185 U1166 2.420 . S
O1185 C1170 1.202 . S
O1186 U1166 2.455 . S
O1186 C1183 1.301 . S
O1187 U1166 2.449 . S
O1187 C1183 1.282 . S
H1188 C1161 0.931 . S
H1189 C1163 0.929 . S
H1190 C1164 0.930 . S
H1191 C1165 0.931 . S
H1192 C1172 0.932 . S
H1193 C1173 0.930 . S
H1194 C1174 0.929 . S
H1195 C1176 0.930 . S
H1196 C1178 0.932 . S
H1197 C1179 0.929 . S
H1198 C1180 0.928 . S
H1199 C1182 0.932 . S
C1200 C1201 1.264 . S
C1200 C1205 1.479 . S
C1200 C1210 1.465 . S
C1201 C1200 1.264 . S
C1201 C1203 1.339 . S
C1201 H1228 0.931 . S
C1202 C1203 1.395 . S
C1202 C1204 1.320 . S
C1203 C1201 1.339 . S
C1203 C1202 1.395 . S
C1203 H1229 0.929 . S
C1204 C1202 1.320 . S
C1204 C1205 1.405 . S
C1204 H1230 0.930 . S
C1205 C1200 1.479 . S
C1205 C1204 1.405 . S
C1205 H1231 0.931 . S
U1206 O1207 2.454 . S
U1206 O1208 2.458 . S
U1206 C1209 2.984 . S
U1206 C1210 2.847 . S
U1206 C1223 2.882 . S
U1206 O1224 2.441 . S
U1206 O1225 2.420 . S
U1206 O1226 2.455 . S
U1206 O1227 2.449 . S
O1207 U1206 2.454 . S
O1207 C1209 1.353 . S
O1208 U1206 2.458 . S
O1208 C1209 1.286 . S
C1209 U1206 2.984 . S
C1209 O1207 1.353 . S
C1209 O1208 1.286 . S
C1209 C1211 1.363 . S
C1210 C1200 1.465 . S
C1210 U1206 2.847 . S
C1210 O1224 1.249 . S
C1210 O1225 1.202 . S
C1211 C1209 1.363 . S
C1211 C1213 1.408 . S
C1211 C1216 1.342 . S
C1212 C1213 1.310 . S
C1212 C1215 1.461 . S
C1212 H1232 0.932 . S
C1213 C1211 1.408 . S
C1213 C1212 1.310 . S
C1213 H1233 0.930 . S
C1214 C1215 1.474 . S
C1214 C1216 1.285 . S
C1214 H1234 0.929 . S
C1215 C1212 1.461 . S
C1215 C1214 1.474 . S
C1216 C1211 1.342 . S
C1216 C1214 1.285 . S
C1216 H1235 0.930 . S
C1217 C1220 1.424 . S
C1217 C1222 1.245 . S
C1217 C1223 1.428 . S
C1218 C1221 1.260 . S
C1218 C1222 1.477 . S
C1218 H1236 0.932 . S
C1219 C1220 1.384 . S
C1219 C1221 1.479 . S
C1219 H1237 0.929 . S
C1220 C1217 1.424 . S
C1220 C1219 1.384 . S
C1220 H1238 0.928 . S
C1221 C1218 1.260 . S
C1221 C1219 1.479 . S
C1222 C1217 1.245 . S
C1222 C1218 1.477 . S
C1222 H1239 0.932 . S
C1223 U1206 2.882 . S
C1223 C1217 1.428 . S
C1223 O1226 1.301 . S
C1223 O1227 1.282 . S
O1224 U1206 2.441 . S
O1224 C1210 1.249 . S
O1225 U1206 2.420 . S
O1225 C1210 1.202 . S
O1226 U1206 2.455 . S
O1226 C1223 1.301 . S
O1227 U1206 2.449 . S
O1227 C1223 1.282 . S
H1228 C1201 0.931 . S
H1229 C1203 0.929 . S
H1230 C1204 0.930 . S
H1231 C1205 0.931 . S
H1232 C1212 0.932 . S
H1233 C1213 0.930 . S
H1234 C1214 0.929 . S
H1235 C1216 0.930 . S
H1236 C1218 0.932 . S
H1237 C1219 0.929 . S
H1238 C1220 0.928 . S
H1239 C1222 0.932 . S
C1240 C1241 1.264 . S
C1240 C1245 1.479 . S
C1240 C1250 1.465 . S
C1241 C1240 1.264 . S
C1241 C1243 1.339 . S
C1241 H1268 0.931 . S
C1242 C1243 1.395 . S
C1242 C1244 1.320 . S
C1243 C1241 1.339 . S
C1243 C1242 1.395 . S
C1243 H1269 0.929 . S
C1244 C1242 1.320 . S
C1244 C1245 1.405 . S
C1244 H1270 0.930 . S
C1245 C1240 1.479 . S
C1245 C1244 1.405 . S
C1245 H1271 0.931 . S
U1246 O1247 2.454 . S
U1246 O1248 2.458 . S
U1246 C1249 2.984 . S
U1246 C1250 2.847 . S
U1246 C1263 2.882 . S
U1246 O1264 2.441 . S
U1246 O1265 2.420 . S
U1246 O1266 2.455 . S
U1246 O1267 2.449 . S
O1247 U1246 2.454 . S
O1247 C1249 1.353 . S
O1248 U1246 2.458 . S
O1248 C1249 1.286 . S
C1249 U1246 2.984 . S
C1249 O1247 1.353 . S
C1249 O1248 1.286 . S
C1249 C1251 1.363 . S
C1250 C1240 1.465 . S
C1250 U1246 2.847 . S
C1250 O1264 1.249 . S
C1250 O1265 1.202 . S
C1251 C1249 1.363 . S
C1251 C1253 1.408 . S
C1251 C1256 1.342 . S
C1252 C1253 1.310 . S
C1252 C1255 1.461 . S
C1252 H1272 0.932 . S
C1253 C1251 1.408 . S
C1253 C1252 1.310 . S
C1253 H1273 0.930 . S
C1254 C1255 1.474 . S
C1254 C1256 1.285 . S
C1254 H1274 0.929 . S
C1255 C1252 1.461 . S
C1255 C1254 1.474 . S
C1256 C1251 1.342 . S
C1256 C1254 1.285 . S
C1256 H1275 0.930 . S
C1257 C1260 1.424 . S
C1257 C1262 1.245 . S
C1257 C1263 1.428 . S
C1258 C1261 1.260 . S
C1258 C1262 1.477 . S
C1258 H1276 0.932 . S
C1259 C1260 1.384 . S
C1259 C1261 1.479 . S
C1259 H1277 0.929 . S
C1260 C1257 1.424 . S
C1260 C1259 1.384 . S
C1260 H1278 0.928 . S
C1261 C1258 1.260 . S
C1261 C1259 1.479 . S
C1262 C1257 1.245 . S
C1262 C1258 1.477 . S
C1262 H1279 0.932 . S
C1263 U1246 2.882 . S
C1263 C1257 1.428 . S
C1263 O1266 1.301 . S
C1263 O1267 1.282 . S
O1264 U1246 2.441 . S
O1264 C1250 1.249 . S
O1265 U1246 2.420 . S
O1265 C1250 1.202 . S
O1266 U1246 2.455 . S
O1266 C1263 1.301 . S
O1267 U1246 2.449 . S
O1267 C1263 1.282 . S
H1268 C1241 0.931 . S
H1269 C1243 0.929 . S
H1270 C1244 0.930 . S
H1271 C1245 0.931 . S
H1272 C1252 0.932 . S
H1273 C1253 0.930 . S
H1274 C1254 0.929 . S
H1275 C1256 0.930 . S
H1276 C1258 0.932 . S
H1277 C1259 0.929 . S
H1278 C1260 0.928 . S
H1279 C1262 0.932 . S
H1280 C1288 0.930 . S
H1281 C1291 0.930 . S
H1282 C1293 0.930 . S
H1283 C1294 0.970 . S
H1284 C1294 0.970 . S
H1285 C1296 0.930 . S
H1286 C1298 0.930 . S
H1287 C1300 0.930 . S
C1288 H1280 0.930 . S
C1288 C1289 1.382 . S
C1288 C1290 1.426 . S
C1289 C1288 1.382 . S
C1289 C1293 1.389 . S
C1290 C1288 1.426 . S
C1290 C1291 1.375 . S
C1290 C1294 1.532 1_556 S
C1291 H1281 0.930 . S
C1291 C1290 1.375 . S
C1291 C1292 1.416 . S
C1292 C1291 1.416 . S
C1292 C1293 1.371 . S
C1293 H1282 0.930 . S
C1293 C1289 1.389 . S
C1293 C1292 1.371 . S
C1294 H1283 0.970 . S
C1294 H1284 0.970 . S
C1294 C1290 1.532 1_554 S
C1294 C1295 1.499 . S
C1295 C1294 1.499 . S
C1295 C1296 1.370 . S
C1295 C1300 1.415 . S
C1296 H1285 0.930 . S
C1296 C1295 1.370 . S
C1296 C1297 1.407 . S
C1297 C1296 1.407 . S
C1297 C1298 1.365 . S
C1298 H1286 0.930 . S
C1298 C1297 1.365 . S
C1298 C1299 1.393 . S
C1299 C1298 1.393 . S
C1299 C1300 1.387 . S
C1300 H1287 0.930 . S
C1300 C1295 1.415 . S
C1300 C1299 1.387 . S
H1301 C1309 0.930 . S
H1302 C1312 0.930 . S
H1303 C1314 0.930 . S
H1304 C1315 0.970 . S
H1305 C1315 0.970 . S
H1306 C1317 0.930 . S
H1307 C1319 0.930 . S
H1308 C1321 0.930 . S
C1309 H1301 0.930 . S
C1309 C1310 1.382 . S
C1309 C1311 1.426 . S
C1310 C1309 1.382 . S
C1310 C1314 1.389 . S
C1311 C1309 1.426 . S
C1311 C1312 1.375 . S
C1311 C1315 1.532 . S
C1312 H1302 0.930 . S
C1312 C1311 1.375 . S
C1312 C1313 1.416 . S
C1313 C1312 1.416 . S
C1313 C1314 1.371 . S
C1314 H1303 0.930 . S
C1314 C1310 1.389 . S
C1314 C1313 1.371 . S
C1315 H1304 0.970 . S
C1315 H1305 0.970 . S
C1315 C1311 1.532 . S
C1315 C1316 1.499 1_554 S
C1316 C1315 1.499 1_556 S
C1316 C1317 1.370 . S
C1316 C1321 1.415 . S
C1317 H1306 0.930 . S
C1317 C1316 1.370 . S
C1317 C1318 1.407 . S
C1318 C1317 1.407 . S
C1318 C1319 1.365 . S
C1319 H1307 0.930 . S
C1319 C1318 1.365 . S
C1319 C1320 1.393 . S
C1320 C1319 1.393 . S
C1320 C1321 1.387 . S
C1321 H1308 0.930 . S
C1321 C1316 1.415 . S
C1321 C1320 1.387 . S
H1322 C1330 0.930 . S
H1323 C1333 0.930 . S
H1324 C1335 0.930 . S
H1325 C1336 0.970 . S
H1326 C1336 0.970 . S
H1327 C1338 0.930 . S
H1328 C1340 0.930 . S
H1329 C1342 0.930 . S
C1330 H1322 0.930 . S
C1330 C1331 1.382 . S
C1330 C1332 1.426 . S
C1331 C1330 1.382 . S
C1331 C1335 1.389 . S
C1332 C1330 1.426 . S
C1332 C1333 1.375 . S
C1332 C1336 1.532 . S
C1333 H1323 0.930 . S
C1333 C1332 1.375 . S
C1333 C1334 1.416 . S
C1334 C1333 1.416 . S
C1334 C1335 1.371 . S
C1335 H1324 0.930 . S
C1335 C1331 1.389 . S
C1335 C1334 1.371 . S
C1336 H1325 0.970 . S
C1336 H1326 0.970 . S
C1336 C1332 1.532 . S
C1336 C1337 1.499 1_554 S
C1337 C1336 1.499 1_556 S
C1337 C1338 1.370 . S
C1337 C1342 1.415 . S
C1338 H1327 0.930 . S
C1338 C1337 1.370 . S
C1338 C1339 1.407 . S
C1339 C1338 1.407 . S
C1339 C1340 1.365 . S
C1340 H1328 0.930 . S
C1340 C1339 1.365 . S
C1340 C1341 1.393 . S
C1341 C1340 1.393 . S
C1341 C1342 1.387 . S
C1342 H1329 0.930 . S
C1342 C1337 1.415 . S
C1342 C1341 1.387 . S
H1343 C1351 0.930 . S
H1344 C1354 0.930 . S
H1345 C1356 0.930 . S
H1346 C1357 0.970 . S
H1347 C1357 0.970 . S
H1348 C1359 0.930 . S
H1349 C1361 0.930 . S
H1350 C1363 0.930 . S
C1351 H1343 0.930 . S
C1351 C1352 1.382 . S
C1351 C1353 1.426 . S
C1352 C1351 1.382 . S
C1352 C1356 1.389 . S
C1353 C1351 1.426 . S
C1353 C1354 1.375 . S
C1353 C1357 1.532 . S
C1354 H1344 0.930 . S
C1354 C1353 1.375 . S
C1354 C1355 1.416 . S
C1355 C1354 1.416 . S
C1355 C1356 1.371 . S
C1356 H1345 0.930 . S
C1356 C1352 1.389 . S
C1356 C1355 1.371 . S
C1357 H1346 0.970 . S
C1357 H1347 0.970 . S
C1357 C1353 1.532 . S
C1357 C1358 1.499 1_554 S
C1358 C1357 1.499 1_556 S
C1358 C1359 1.370 . S
C1358 C1363 1.415 . S
C1359 H1348 0.930 . S
C1359 C1358 1.370 . S
C1359 C1360 1.407 . S
C1360 C1359 1.407 . S
C1360 C1361 1.365 . S
C1361 H1349 0.930 . S
C1361 C1360 1.365 . S
C1361 C1362 1.393 . S
C1362 C1361 1.393 . S
C1362 C1363 1.387 . S
C1363 H1350 0.930 . S
C1363 C1358 1.415 . S
C1363 C1362 1.387 . S
H1364 C1372 0.930 . S
H1365 C1375 0.930 . S
H1366 C1377 0.930 . S
H1367 C1378 0.970 . S
H1368 C1378 0.970 . S
H1369 C1380 0.930 . S
H1370 C1382 0.930 . S
H1371 C1384 0.930 . S
C1372 H1364 0.930 . S
C1372 C1373 1.382 . S
C1372 C1374 1.426 . S
C1373 C1372 1.382 . S
C1373 C1377 1.389 . S
C1374 C1372 1.426 . S
C1374 C1375 1.375 . S
C1374 C1378 1.532 . S
C1375 H1365 0.930 . S
C1375 C1374 1.375 . S
C1375 C1376 1.416 . S
C1376 C1375 1.416 . S
C1376 C1377 1.371 . S
C1377 H1366 0.930 . S
C1377 C1373 1.389 . S
C1377 C1376 1.371 . S
C1378 H1367 0.970 . S
C1378 H1368 0.970 . S
C1378 C1374 1.532 . S
C1378 C1379 1.499 1_455 S
C1379 C1378 1.499 1_655 S
C1379 C1380 1.370 . S
C1379 C1384 1.415 . S
C1380 H1369 0.930 . S
C1380 C1379 1.370 . S
C1380 C1381 1.407 . S
C1381 C1380 1.407 . S
C1381 C1382 1.365 . S
C1382 H1370 0.930 . S
C1382 C1381 1.365 . S
C1382 C1383 1.393 . S
C1383 C1382 1.393 . S
C1383 C1384 1.387 . S
C1384 H1371 0.930 . S
C1384 C1379 1.415 . S
C1384 C1383 1.387 . S
H1385 C1393 0.930 . S
H1386 C1396 0.930 . S
H1387 C1398 0.930 . S
H1388 C1399 0.970 . S
H1389 C1399 0.970 1_565 S
H1390 C1401 0.930 . S
H1391 C1403 0.930 . S
H1392 C1405 0.930 . S
C1393 H1385 0.930 . S
C1393 C1394 1.382 . S
C1393 C1395 1.426 . S
C1394 C1393 1.382 . S
C1394 C1398 1.389 . S
C1395 C1393 1.426 . S
C1395 C1396 1.375 . S
C1395 C1399 1.529 . S
C1396 H1386 0.930 . S
C1396 C1395 1.375 . S
C1396 C1397 1.416 . S
C1397 C1396 1.416 . S
C1397 C1398 1.371 . S
C1398 H1387 0.930 . S
C1398 C1394 1.389 . S
C1398 C1397 1.371 . S
C1399 H1388 0.970 . S
C1399 H1389 0.970 1_545 S
C1399 C1395 1.529 . S
C1399 C1400 1.503 1_545 S
C1400 C1399 1.503 1_565 S
C1400 C1401 1.370 . S
C1400 C1405 1.415 . S
C1401 H1390 0.930 . S
C1401 C1400 1.370 . S
C1401 C1402 1.407 . S
C1402 C1401 1.407 . S
C1402 C1403 1.365 . S
C1403 H1391 0.930 . S
C1403 C1402 1.365 . S
C1403 C1404 1.393 . S
C1404 C1403 1.393 . S
C1404 C1405 1.387 . S
C1405 H1392 0.930 . S
C1405 C1400 1.415 . S
C1405 C1404 1.387 . S
H1406 C1414 0.930 . S
H1407 C1417 0.930 . S
H1408 C1419 0.930 . S
H1409 C1420 0.970 1_655 S
H1410 C1420 0.970 1_655 S
H1411 C1422 0.930 . S
H1412 C1424 0.930 . S
H1413 C1426 0.930 . S
C1414 H1406 0.930 . S
C1414 C1415 1.382 . S
C1414 C1416 1.426 . S
C1415 C1414 1.382 . S
C1415 C1419 1.389 . S
C1416 C1414 1.426 . S
C1416 C1417 1.375 . S
C1416 C1420 1.535 1_655 S
C1417 H1407 0.930 . S
C1417 C1416 1.375 . S
C1417 C1418 1.416 . S
C1418 C1417 1.416 . S
C1418 C1419 1.371 . S
C1419 H1408 0.930 . S
C1419 C1415 1.389 . S
C1419 C1418 1.371 . S
C1420 H1409 0.970 1_455 S
C1420 H1410 0.970 1_455 S
C1420 C1416 1.535 1_455 S
C1420 C1421 1.496 . S
C1421 C1420 1.496 . S
C1421 C1422 1.370 . S
C1421 C1426 1.415 . S
C1422 H1411 0.930 . S
C1422 C1421 1.370 . S
C1422 C1423 1.407 . S
C1423 C1422 1.407 . S
C1423 C1424 1.365 . S
C1424 H1412 0.930 . S
C1424 C1423 1.365 . S
C1424 C1425 1.393 . S
C1425 C1424 1.393 . S
C1425 C1426 1.387 . S
C1426 H1413 0.930 . S
C1426 C1421 1.415 . S
C1426 C1425 1.387 . S
H1427 C1435 0.930 . S
H1428 C1438 0.930 . S
H1429 C1440 0.930 . S
H1430 C1441 0.970 . S
H1431 C1441 0.970 . S
H1432 C1443 0.930 . S
H1433 C1445 0.930 . S
H1434 C1447 0.930 . S
C1435 H1427 0.930 . S
C1435 C1436 1.382 . S
C1435 C1437 1.426 . S
C1436 C1435 1.382 . S
C1436 C1440 1.389 . S
C1437 C1435 1.426 . S
C1437 C1438 1.375 . S
C1437 C1441 1.532 1_565 S
C1438 H1428 0.930 . S
C1438 C1437 1.375 . S
C1438 C1439 1.416 . S
C1439 C1438 1.416 . S
C1439 C1440 1.371 . S
C1440 H1429 0.930 . S
C1440 C1436 1.389 . S
C1440 C1439 1.371 . S
C1441 H1430 0.970 . S
C1441 H1431 0.970 . S
C1441 C1437 1.532 1_545 S
C1441 C1442 1.499 . S
C1442 C1441 1.499 . S
C1442 C1443 1.370 . S
C1442 C1447 1.415 . S
C1443 H1432 0.930 . S
C1443 C1442 1.370 . S
C1443 C1444 1.407 . S
C1444 C1443 1.407 . S
C1444 C1445 1.365 . S
C1445 H1433 0.930 . S
C1445 C1444 1.365 . S
C1445 C1446 1.393 . S
C1446 C1445 1.393 . S
C1446 C1447 1.387 . S
C1447 H1434 0.930 . S
C1447 C1442 1.415 . S
C1447 C1446 1.387 . S
H1448 C1456 0.930 . S
H1449 C1459 0.930 . S
H1450 C1461 0.930 . S
H1451 C1462 0.970 . S
H1452 C1462 0.970 . S
H1453 C1464 0.930 . S
H1454 C1466 0.930 . S
H1455 C1468 0.930 . S
C1456 H1448 0.930 . S
C1456 C1457 1.382 . S
C1456 C1458 1.426 . S
C1457 C1456 1.382 . S
C1457 C1461 1.389 . S
C1458 C1456 1.426 . S
C1458 C1459 1.375 . S
C1458 C1462 1.532 1_655 S
C1459 H1449 0.930 . S
C1459 C1458 1.375 . S
C1459 C1460 1.416 . S
C1460 C1459 1.416 . S
C1460 C1461 1.371 . S
C1461 H1450 0.930 . S
C1461 C1457 1.389 . S
C1461 C1460 1.371 . S
C1462 H1451 0.970 . S
C1462 H1452 0.970 . S
C1462 C1458 1.532 1_455 S
C1462 C1463 1.499 . S
C1463 C1462 1.499 . S
C1463 C1464 1.370 . S
C1463 C1468 1.415 . S
C1464 H1453 0.930 . S
C1464 C1463 1.370 . S
C1464 C1465 1.407 . S
C1465 C1464 1.407 . S
C1465 C1466 1.365 . S
C1466 H1454 0.930 . S
C1466 C1465 1.365 . S
C1466 C1467 1.393 . S
C1467 C1466 1.393 . S
C1467 C1468 1.387 . S
C1468 H1455 0.930 . S
C1468 C1463 1.415 . S
C1468 C1467 1.387 . S
H1469 C1477 0.930 . S
H1470 C1480 0.930 . S
H1471 C1482 0.930 . S
H1472 C1483 0.970 . S
H1473 C1483 0.970 . S
H1474 C1485 0.930 . S
H1475 C1487 0.930 . S
H1476 C1489 0.930 . S
C1477 H1469 0.930 . S
C1477 C1478 1.382 . S
C1477 C1479 1.426 . S
C1478 C1477 1.382 . S
C1478 C1482 1.389 . S
C1479 C1477 1.426 . S
C1479 C1480 1.375 . S
C1479 C1483 1.532 1_565 S
C1480 H1470 0.930 . S
C1480 C1479 1.375 . S
C1480 C1481 1.416 . S
C1481 C1480 1.416 . S
C1481 C1482 1.371 . S
C1482 H1471 0.930 . S
C1482 C1478 1.389 . S
C1482 C1481 1.371 . S
C1483 H1472 0.970 . S
C1483 H1473 0.970 . S
C1483 C1479 1.532 1_545 S
C1483 C1484 1.499 . S
C1484 C1483 1.499 . S
C1484 C1485 1.370 . S
C1484 C1489 1.415 . S
C1485 H1474 0.930 . S
C1485 C1484 1.370 . S
C1485 C1486 1.407 . S
C1486 C1485 1.407 . S
C1486 C1487 1.365 . S
C1487 H1475 0.930 . S
C1487 C1486 1.365 . S
C1487 C1488 1.393 . S
C1488 C1487 1.393 . S
C1488 C1489 1.387 . S
C1489 H1476 0.930 . S
C1489 C1484 1.415 . S
C1489 C1488 1.387 . S
H1490 C1498 0.930 . S
H1491 C1501 0.930 . S
H1492 C1503 0.930 . S
H1493 C1504 0.970 . S
H1494 C1504 0.970 . S
H1495 C1506 0.930 . S
H1496 C1508 0.930 . S
H1497 C1510 0.930 . S
C1498 H1490 0.930 . S
C1498 C1499 1.382 . S
C1498 C1500 1.426 . S
C1499 C1498 1.382 . S
C1499 C1503 1.389 . S
C1500 C1498 1.426 . S
C1500 C1501 1.375 . S
C1500 C1504 1.532 1_655 S
C1501 H1491 0.930 . S
C1501 C1500 1.375 . S
C1501 C1502 1.416 . S
C1502 C1501 1.416 . S
C1502 C1503 1.371 . S
C1503 H1492 0.930 . S
C1503 C1499 1.389 . S
C1503 C1502 1.371 . S
C1504 H1493 0.970 . S
C1504 H1494 0.970 . S
C1504 C1500 1.532 1_455 S
C1504 C1505 1.499 . S
C1505 C1504 1.499 . S
C1505 C1506 1.370 . S
C1505 C1510 1.415 . S
C1506 H1495 0.930 . S
C1506 C1505 1.370 . S
C1506 C1507 1.407 . S
C1507 C1506 1.407 . S
C1507 C1508 1.365 . S
C1508 H1496 0.930 . S
C1508 C1507 1.365 . S
C1508 C1509 1.393 . S
C1509 C1508 1.393 . S
C1509 C1510 1.387 . S
C1510 H1497 0.930 . S
C1510 C1505 1.415 . S
C1510 C1509 1.387 . S
H1511 C1519 0.930 . S
H1512 C1522 0.930 . S
H1513 C1524 0.930 . S
H1514 C1525 0.970 . S
H1515 C1525 0.970 . S
H1516 C1527 0.930 . S
H1517 C1529 0.930 . S
H1518 C1531 0.930 . S
C1519 H1511 0.930 . S
C1519 C1520 1.382 . S
C1519 C1521 1.426 . S
C1520 C1519 1.382 . S
C1520 C1524 1.389 . S
C1521 C1519 1.426 . S
C1521 C1522 1.375 . S
C1521 C1525 1.532 1_565 S
C1522 H1512 0.930 . S
C1522 C1521 1.375 . S
C1522 C1523 1.416 . S
C1523 C1522 1.416 . S
C1523 C1524 1.371 . S
C1524 H1513 0.930 . S
C1524 C1520 1.389 . S
C1524 C1523 1.371 . S
C1525 H1514 0.970 . S
C1525 H1515 0.970 . S
C1525 C1521 1.532 1_545 S
C1525 C1526 1.499 . S
C1526 C1525 1.499 . S
C1526 C1527 1.370 . S
C1526 C1531 1.415 . S
C1527 H1516 0.930 . S
C1527 C1526 1.370 . S
C1527 C1528 1.407 . S
C1528 C1527 1.407 . S
C1528 C1529 1.365 . S
C1529 H1517 0.930 . S
C1529 C1528 1.365 . S
C1529 C1530 1.393 . S
C1530 C1529 1.393 . S
C1530 C1531 1.387 . S
C1531 H1518 0.930 . S
C1531 C1526 1.415 . S
C1531 C1530 1.387 . S
H1532 C1540 0.930 . S
H1533 C1543 0.930 . S
H1534 C1545 0.930 . S
H1535 C1546 0.970 . S
H1536 C1546 0.970 . S
H1537 C1548 0.930 . S
H1538 C1550 0.930 . S
H1539 C1552 0.930 . S
C1540 H1532 0.930 . S
C1540 C1541 1.382 . S
C1540 C1542 1.426 . S
C1541 C1540 1.382 . S
C1541 C1545 1.389 . S
C1542 C1540 1.426 . S
C1542 C1543 1.375 . S
C1542 C1546 1.532 . S
C1543 H1533 0.930 . S
C1543 C1542 1.375 . S
C1543 C1544 1.416 . S
C1544 C1543 1.416 . S
C1544 C1545 1.371 . S
C1545 H1534 0.930 . S
C1545 C1541 1.389 . S
C1545 C1544 1.371 . S
C1546 H1535 0.970 . S
C1546 H1536 0.970 . S
C1546 C1542 1.532 . S
C1546 C1547 1.499 . S
C1547 C1546 1.499 . S
C1547 C1548 1.370 . S
C1547 C1552 1.415 . S
C1548 H1537 0.930 . S
C1548 C1547 1.370 . S
C1548 C1549 1.407 . S
C1549 C1548 1.407 . S
C1549 C1550 1.365 . S
C1550 H1538 0.930 . S
C1550 C1549 1.365 . S
C1550 C1551 1.393 . S
C1551 C1550 1.393 . S
C1551 C1552 1.387 . S
C1552 H1539 0.930 . S
C1552 C1547 1.415 . S
C1552 C1551 1.387 . S
H1553 C1561 0.930 . S
H1554 C1564 0.930 . S
H1555 C1566 0.930 . S
H1556 C1567 0.970 . S
H1557 C1567 0.970 . S
H1558 C1569 0.930 . S
H1559 C1571 0.930 . S
H1560 C1573 0.930 . S
C1561 H1553 0.930 . S
C1561 C1562 1.382 . S
C1561 C1563 1.426 . S
C1562 C1561 1.382 . S
C1562 C1566 1.389 . S
C1563 C1561 1.426 . S
C1563 C1564 1.375 . S
C1563 C1567 1.532 . S
C1564 H1554 0.930 . S
C1564 C1563 1.375 . S
C1564 C1565 1.416 . S
C1565 C1564 1.416 . S
C1565 C1566 1.371 . S
C1566 H1555 0.930 . S
C1566 C1562 1.389 . S
C1566 C1565 1.371 . S
C1567 H1556 0.970 . S
C1567 H1557 0.970 . S
C1567 C1563 1.532 . S
C1567 C1568 1.499 . S
C1568 C1567 1.499 . S
C1568 C1569 1.370 . S
C1568 C1573 1.415 . S
C1569 H1558 0.930 . S
C1569 C1568 1.370 . S
C1569 C1570 1.407 . S
C1570 C1569 1.407 . S
C1570 C1571 1.365 . S
C1571 H1559 0.930 . S
C1571 C1570 1.365 . S
C1571 C1572 1.393 . S
C1572 C1571 1.393 . S
C1572 C1573 1.387 . S
C1573 H1560 0.930 . S
C1573 C1568 1.415 . S
C1573 C1572 1.387 . S
H1574 C1582 0.930 . S
H1575 C1585 0.930 . S
H1576 C1587 0.930 . S
H1577 C1588 0.970 . S
H1578 C1588 0.970 . S
H1579 C1590 0.930 . S
H1580 C1592 0.930 . S
H1581 C1594 0.930 . S
C1582 H1574 0.930 . S
C1582 C1583 1.382 . S
C1582 C1584 1.426 . S
C1583 C1582 1.382 . S
C1583 C1587 1.389 . S
C1584 C1582 1.426 . S
C1584 C1585 1.375 . S
C1584 C1588 1.532 . S
C1585 H1575 0.930 . S
C1585 C1584 1.375 . S
C1585 C1586 1.416 . S
C1586 C1585 1.416 . S
C1586 C1587 1.371 . S
C1587 H1576 0.930 . S
C1587 C1583 1.389 . S
C1587 C1586 1.371 . S
C1588 H1577 0.970 . S
C1588 H1578 0.970 . S
C1588 C1584 1.532 . S
C1588 C1589 1.499 . S
C1589 C1588 1.499 . S
C1589 C1590 1.370 . S
C1589 C1594 1.415 . S
C1590 H1579 0.930 . S
C1590 C1589 1.370 . S
C1590 C1591 1.407 . S
C1591 C1590 1.407 . S
C1591 C1592 1.365 . S
C1592 H1580 0.930 . S
C1592 C1591 1.365 . S
C1592 C1593 1.393 . S
C1593 C1592 1.393 . S
C1593 C1594 1.387 . S
C1594 H1581 0.930 . S
C1594 C1589 1.415 . S
C1594 C1593 1.387 . S
H1595 C1603 0.930 . S
H1596 C1606 0.930 . S
H1597 C1608 0.930 . S
H1598 C1609 0.970 . S
H1599 C1609 0.970 . S
H1600 C1611 0.930 . S
H1601 C1613 0.930 . S
H1602 C1615 0.930 . S
C1603 H1595 0.930 . S
C1603 C1604 1.382 . S
C1603 C1605 1.426 . S
C1604 C1603 1.382 . S
C1604 C1608 1.389 . S
C1605 C1603 1.426 . S
C1605 C1606 1.375 . S
C1605 C1609 1.532 . S
C1606 H1596 0.930 . S
C1606 C1605 1.375 . S
C1606 C1607 1.416 . S
C1607 C1606 1.416 . S
C1607 C1608 1.371 . S
C1608 H1597 0.930 . S
C1608 C1604 1.389 . S
C1608 C1607 1.371 . S
C1609 H1598 0.970 . S
C1609 H1599 0.970 . S
C1609 C1605 1.532 . S
C1609 C1610 1.499 . S
C1610 C1609 1.499 . S
C1610 C1611 1.370 . S
C1610 C1615 1.415 . S
C1611 H1600 0.930 . S
C1611 C1610 1.370 . S
C1611 C1612 1.407 . S
C1612 C1611 1.407 . S
C1612 C1613 1.365 . S
C1613 H1601 0.930 . S
C1613 C1612 1.365 . S
C1613 C1614 1.393 . S
C1614 C1613 1.393 . S
C1614 C1615 1.387 . S
C1615 H1602 0.930 . S
C1615 C1610 1.415 . S
C1615 C1614 1.387 . S
H1616 C1624 0.930 . S
H1617 C1627 0.930 . S
H1618 C1629 0.930 . S
H1619 C1630 0.970 . S
H1620 C1630 0.970 . S
H1621 C1632 0.930 . S
H1622 C1634 0.930 . S
H1623 C1636 0.930 . S
C1624 H1616 0.930 . S
C1624 C1625 1.382 . S
C1624 C1626 1.426 . S
C1625 C1624 1.382 . S
C1625 C1629 1.389 . S
C1626 C1624 1.426 . S
C1626 C1627 1.375 . S
C1626 C1630 1.532 . S
C1627 H1617 0.930 . S
C1627 C1626 1.375 . S
C1627 C1628 1.416 . S
C1628 C1627 1.416 . S
C1628 C1629 1.371 . S
C1629 H1618 0.930 . S
C1629 C1625 1.389 . S
C1629 C1628 1.371 . S
C1630 H1619 0.970 . S
C1630 H1620 0.970 . S
C1630 C1626 1.532 . S
C1630 C1631 1.499 . S
C1631 C1630 1.499 . S
C1631 C1632 1.370 . S
C1631 C1636 1.415 . S
C1632 H1621 0.930 . S
C1632 C1631 1.370 . S
C1632 C1633 1.407 . S
C1633 C1632 1.407 . S
C1633 C1634 1.365 . S
C1634 H1622 0.930 . S
C1634 C1633 1.365 . S
C1634 C1635 1.393 . S
C1635 C1634 1.393 . S
C1635 C1636 1.387 . S
C1636 H1623 0.930 . S
C1636 C1631 1.415 . S
C1636 C1635 1.387 . S
H1637 C1645 0.930 . S
H1638 C1648 0.930 . S
H1639 C1650 0.930 . S
H1640 C1651 0.970 . S
H1641 C1651 0.970 . S
H1642 C1653 0.930 . S
H1643 C1655 0.930 . S
H1644 C1657 0.930 . S
C1645 H1637 0.930 . S
C1645 C1646 1.382 . S
C1645 C1647 1.426 . S
C1646 C1645 1.382 . S
C1646 C1650 1.389 . S
C1647 C1645 1.426 . S
C1647 C1648 1.375 . S
C1647 C1651 1.532 . S
C1648 H1638 0.930 . S
C1648 C1647 1.375 . S
C1648 C1649 1.416 . S
C1649 C1648 1.416 . S
C1649 C1650 1.371 . S
C1650 H1639 0.930 . S
C1650 C1646 1.389 . S
C1650 C1649 1.371 . S
C1651 H1640 0.970 . S
C1651 H1641 0.970 . S
C1651 C1647 1.532 . S
C1651 C1652 1.499 . S
C1652 C1651 1.499 . S
C1652 C1653 1.370 . S
C1652 C1657 1.415 . S
C1653 H1642 0.930 . S
C1653 C1652 1.370 . S
C1653 C1654 1.407 . S
C1654 C1653 1.407 . S
C1654 C1655 1.365 . S
C1655 H1643 0.930 . S
C1655 C1654 1.365 . S
C1655 C1656 1.393 . S
C1656 C1655 1.393 . S
C1656 C1657 1.387 . S
C1657 H1644 0.930 . S
C1657 C1652 1.415 . S
C1657 C1656 1.387 . S
H1658 C1666 0.930 . S
H1659 C1669 0.930 . S
H1660 C1671 0.930 . S
H1661 C1672 0.970 . S
H1662 C1672 0.970 . S
H1663 C1674 0.930 . S
H1664 C1676 0.930 . S
H1665 C1678 0.930 . S
C1666 H1658 0.930 . S
C1666 C1667 1.382 . S
C1666 C1668 1.426 . S
C1667 C1666 1.382 . S
C1667 C1671 1.389 . S
C1668 C1666 1.426 . S
C1668 C1669 1.375 . S
C1668 C1672 1.532 . S
C1669 H1659 0.930 . S
C1669 C1668 1.375 . S
C1669 C1670 1.416 . S
C1670 C1669 1.416 . S
C1670 C1671 1.371 . S
C1671 H1660 0.930 . S
C1671 C1667 1.389 . S
C1671 C1670 1.371 . S
C1672 H1661 0.970 . S
C1672 H1662 0.970 . S
C1672 C1668 1.532 . S
C1672 C1673 1.499 . S
C1673 C1672 1.499 . S
C1673 C1674 1.370 . S
C1673 C1678 1.415 . S
C1674 H1663 0.930 . S
C1674 C1673 1.370 . S
C1674 C1675 1.407 . S
C1675 C1674 1.407 . S
C1675 C1676 1.365 . S
C1676 H1664 0.930 . S
C1676 C1675 1.365 . S
C1676 C1677 1.393 . S
C1677 C1676 1.393 . S
C1677 C1678 1.387 . S
C1678 H1665 0.930 . S
C1678 C1673 1.415 . S
C1678 C1677 1.387 . S
H1679 C1687 0.930 . S
H1680 C1690 0.930 . S
H1681 C1692 0.930 . S
H1682 C1693 0.970 . S
H1683 C1693 0.970 . S
H1684 C1695 0.930 . S
H1685 C1697 0.930 . S
H1686 C1699 0.930 . S
C1687 H1679 0.930 . S
C1687 C1688 1.382 . S
C1687 C1689 1.426 . S
C1688 C1687 1.382 . S
C1688 C1692 1.389 . S
C1689 C1687 1.426 . S
C1689 C1690 1.375 . S
C1689 C1693 1.532 . S
C1690 H1680 0.930 . S
C1690 C1689 1.375 . S
C1690 C1691 1.416 . S
C1691 C1690 1.416 . S
C1691 C1692 1.371 . S
C1692 H1681 0.930 . S
C1692 C1688 1.389 . S
C1692 C1691 1.371 . S
C1693 H1682 0.970 . S
C1693 H1683 0.970 . S
C1693 C1689 1.532 . S
C1693 C1694 1.499 . S
C1694 C1693 1.499 . S
C1694 C1695 1.370 . S
C1694 C1699 1.415 . S
C1695 H1684 0.930 . S
C1695 C1694 1.370 . S
C1695 C1696 1.407 . S
C1696 C1695 1.407 . S
C1696 C1697 1.365 . S
C1697 H1685 0.930 . S
C1697 C1696 1.365 . S
C1697 C1698 1.393 . S
C1698 C1697 1.393 . S
C1698 C1699 1.387 . S
C1699 H1686 0.930 . S
C1699 C1694 1.415 . S
C1699 C1698 1.387 . S
H1700 C1708 0.930 . S
H1701 C1711 0.930 . S
H1702 C1713 0.930 . S
H1703 C1714 0.970 . S
H1704 C1714 0.970 . S
H1705 C1716 0.930 . S
H1706 C1718 0.930 . S
H1707 C1720 0.930 . S
C1708 H1700 0.930 . S
C1708 C1709 1.382 . S
C1708 C1710 1.426 . S
C1709 C1708 1.382 . S
C1709 C1713 1.389 . S
C1710 C1708 1.426 . S
C1710 C1711 1.375 . S
C1710 C1714 1.532 . S
C1711 H1701 0.930 . S
C1711 C1710 1.375 . S
C1711 C1712 1.416 . S
C1712 C1711 1.416 . S
C1712 C1713 1.371 . S
C1713 H1702 0.930 . S
C1713 C1709 1.389 . S
C1713 C1712 1.371 . S
C1714 H1703 0.970 . S
C1714 H1704 0.970 . S
C1714 C1710 1.532 . S
C1714 C1715 1.499 . S
C1715 C1714 1.499 . S
C1715 C1716 1.370 . S
C1715 C1720 1.415 . S
C1716 H1705 0.930 . S
C1716 C1715 1.370 . S
C1716 C1717 1.407 . S
C1717 C1716 1.407 . S
C1717 C1718 1.365 . S
C1718 H1706 0.930 . S
C1718 C1717 1.365 . S
C1718 C1719 1.393 . S
C1719 C1718 1.393 . S
C1719 C1720 1.387 . S
C1720 H1707 0.930 . S
C1720 C1715 1.415 . S
C1720 C1719 1.387 . S
H1721 C1729 0.930 . S
H1722 C1732 0.930 . S
H1723 C1734 0.930 . S
H1724 C1735 0.970 . S
H1725 C1735 0.970 . S
H1726 C1737 0.930 . S
H1727 C1739 0.930 . S
H1728 C1741 0.930 . S
C1729 H1721 0.930 . S
C1729 C1730 1.382 . S
C1729 C1731 1.426 . S
C1730 C1729 1.382 . S
C1730 C1734 1.389 . S
C1731 C1729 1.426 . S
C1731 C1732 1.375 . S
C1731 C1735 1.532 . S
C1732 H1722 0.930 . S
C1732 C1731 1.375 . S
C1732 C1733 1.416 . S
C1733 C1732 1.416 . S
C1733 C1734 1.371 . S
C1734 H1723 0.930 . S
C1734 C1730 1.389 . S
C1734 C1733 1.371 . S
C1735 H1724 0.970 . S
C1735 H1725 0.970 . S
C1735 C1731 1.532 . S
C1735 C1736 1.499 . S
C1736 C1735 1.499 . S
C1736 C1737 1.370 . S
C1736 C1741 1.415 . S
C1737 H1726 0.930 . S
C1737 C1736 1.370 . S
C1737 C1738 1.407 . S
C1738 C1737 1.407 . S
C1738 C1739 1.365 . S
C1739 H1727 0.930 . S
C1739 C1738 1.365 . S
C1739 C1740 1.393 . S
C1740 C1739 1.393 . S
C1740 C1741 1.387 . S
C1741 H1728 0.930 . S
C1741 C1736 1.415 . S
C1741 C1740 1.387 . S
H1742 C1750 0.930 . S
H1743 C1753 0.930 . S
H1744 C1755 0.930 . S
H1745 C1756 0.970 . S
H1746 C1756 0.970 . S
H1747 C1758 0.930 . S
H1748 C1760 0.930 . S
H1749 C1762 0.930 . S
C1750 H1742 0.930 . S
C1750 C1751 1.382 . S
C1750 C1752 1.426 . S
C1751 C1750 1.382 . S
C1751 C1755 1.389 . S
C1752 C1750 1.426 . S
C1752 C1753 1.375 . S
C1752 C1756 1.532 . S
C1753 H1743 0.930 . S
C1753 C1752 1.375 . S
C1753 C1754 1.416 . S
C1754 C1753 1.416 . S
C1754 C1755 1.371 . S
C1755 H1744 0.930 . S
C1755 C1751 1.389 . S
C1755 C1754 1.371 . S
C1756 H1745 0.970 . S
C1756 H1746 0.970 . S
C1756 C1752 1.532 . S
C1756 C1757 1.499 . S
C1757 C1756 1.499 . S
C1757 C1758 1.370 . S
C1757 C1762 1.415 . S
C1758 H1747 0.930 . S
C1758 C1757 1.370 . S
C1758 C1759 1.407 . S
C1759 C1758 1.407 . S
C1759 C1760 1.365 . S
C1760 H1748 0.930 . S
C1760 C1759 1.365 . S
C1760 C1761 1.393 . S
C1761 C1760 1.393 . S
C1761 C1762 1.387 . S
C1762 H1749 0.930 . S
C1762 C1757 1.415 . S
C1762 C1761 1.387 . S
H1763 C1771 0.930 . S
H1764 C1774 0.930 . S
H1765 C1776 0.930 . S
H1766 C1777 0.970 . S
H1767 C1777 0.970 . S
H1768 C1779 0.930 . S
H1769 C1781 0.930 . S
H1770 C1783 0.930 . S
C1771 H1763 0.930 . S
C1771 C1772 1.382 . S
C1771 C1773 1.426 . S
C1772 C1771 1.382 . S
C1772 C1776 1.389 . S
C1773 C1771 1.426 . S
C1773 C1774 1.375 . S
C1773 C1777 1.532 . S
C1774 H1764 0.930 . S
C1774 C1773 1.375 . S
C1774 C1775 1.416 . S
C1775 C1774 1.416 . S
C1775 C1776 1.371 . S
C1776 H1765 0.930 . S
C1776 C1772 1.389 . S
C1776 C1775 1.371 . S
C1777 H1766 0.970 . S
C1777 H1767 0.970 . S
C1777 C1773 1.532 . S
C1777 C1778 1.499 . S
C1778 C1777 1.499 . S
C1778 C1779 1.370 . S
C1778 C1783 1.415 . S
C1779 H1768 0.930 . S
C1779 C1778 1.370 . S
C1779 C1780 1.407 . S
C1780 C1779 1.407 . S
C1780 C1781 1.365 . S
C1781 H1769 0.930 . S
C1781 C1780 1.365 . S
C1781 C1782 1.393 . S
C1782 C1781 1.393 . S
C1782 C1783 1.387 . S
C1783 H1770 0.930 . S
C1783 C1778 1.415 . S
C1783 C1782 1.387 . S
H1784 C1790 0.930 . S
H1785 C1793 0.930 . S
H1786 C1794 0.930 . S
H1787 C1795 0.930 . S
H1788 C1798 0.930 . S
H1789 C1799 0.930 . S
C1790 H1784 0.930 . S
C1790 C1791 1.355 . S
C1790 C1792 1.415 . S
C1791 C1790 1.355 . S
C1791 C1793 1.419 . S
C1792 C1790 1.415 . S
C1792 C1797 1.425 . S
C1792 C1799 1.409 . S
C1793 H1785 0.930 . S
C1793 C1791 1.419 . S
C1793 C1794 1.362 . S
C1794 H1786 0.930 . S
C1794 C1793 1.362 . S
C1794 C1797 1.409 . S
C1795 H1787 0.930 . S
C1795 C1796 1.355 . S
C1795 C1797 1.415 . S
C1796 C1795 1.355 . S
C1796 C1798 1.419 . S
C1797 C1792 1.425 . S
C1797 C1794 1.409 . S
C1797 C1795 1.415 . S
C1798 H1788 0.930 . S
C1798 C1796 1.419 . S
C1798 C1799 1.362 . S
C1799 H1789 0.930 . S
C1799 C1792 1.409 . S
C1799 C1798 1.362 . S
H1800 C1806 0.930 . S
H1801 C1809 0.930 . S
H1802 C1810 0.930 . S
H1803 C1811 0.930 . S
H1804 C1814 0.930 . S
H1805 C1815 0.930 . S
C1806 H1800 0.930 . S
C1806 C1807 1.355 . S
C1806 C1808 1.415 . S
C1807 C1806 1.355 . S
C1807 C1809 1.419 . S
C1808 C1806 1.415 . S
C1808 C1813 1.425 . S
C1808 C1815 1.409 . S
C1809 H1801 0.930 . S
C1809 C1807 1.419 . S
C1809 C1810 1.362 . S
C1810 H1802 0.930 . S
C1810 C1809 1.362 . S
C1810 C1813 1.409 . S
C1811 H1803 0.930 . S
C1811 C1812 1.355 . S
C1811 C1813 1.415 . S
C1812 C1811 1.355 . S
C1812 C1814 1.419 . S
C1813 C1808 1.425 . S
C1813 C1810 1.409 . S
C1813 C1811 1.415 . S
C1814 H1804 0.930 . S
C1814 C1812 1.419 . S
C1814 C1815 1.362 . S
C1815 H1805 0.930 . S
C1815 C1808 1.409 . S
C1815 C1814 1.362 . S
H1816 C1822 0.930 . S
H1817 C1825 0.930 . S
H1818 C1826 0.930 . S
H1819 C1827 0.930 . S
H1820 C1830 0.930 . S
H1821 C1831 0.930 . S
C1822 H1816 0.930 . S
C1822 C1823 1.355 . S
C1822 C1824 1.415 . S
C1823 C1822 1.355 . S
C1823 C1825 1.419 . S
C1824 C1822 1.415 . S
C1824 C1829 1.425 . S
C1824 C1831 1.409 . S
C1825 H1817 0.930 . S
C1825 C1823 1.419 . S
C1825 C1826 1.362 . S
C1826 H1818 0.930 . S
C1826 C1825 1.362 . S
C1826 C1829 1.409 . S
C1827 H1819 0.930 . S
C1827 C1828 1.355 . S
C1827 C1829 1.415 . S
C1828 C1827 1.355 . S
C1828 C1830 1.419 . S
C1829 C1824 1.425 . S
C1829 C1826 1.409 . S
C1829 C1827 1.415 . S
C1830 H1820 0.930 . S
C1830 C1828 1.419 . S
C1830 C1831 1.362 . S
C1831 H1821 0.930 . S
C1831 C1824 1.409 . S
C1831 C1830 1.362 . S
H1832 C1838 0.930 . S
H1833 C1841 0.930 . S
H1834 C1842 0.930 . S
H1835 C1843 0.930 . S
H1836 C1846 0.930 . S
H1837 C1847 0.930 . S
C1838 H1832 0.930 . S
C1838 C1839 1.355 . S
C1838 C1840 1.415 . S
C1839 C1838 1.355 . S
C1839 C1841 1.419 . S
C1840 C1838 1.415 . S
C1840 C1845 1.425 . S
C1840 C1847 1.409 . S
C1841 H1833 0.930 . S
C1841 C1839 1.419 . S
C1841 C1842 1.362 . S
C1842 H1834 0.930 . S
C1842 C1841 1.362 . S
C1842 C1845 1.409 . S
C1843 H1835 0.930 . S
C1843 C1844 1.355 . S
C1843 C1845 1.415 . S
C1844 C1843 1.355 . S
C1844 C1846 1.419 . S
C1845 C1840 1.425 . S
C1845 C1842 1.409 . S
C1845 C1843 1.415 . S
C1846 H1836 0.930 . S
C1846 C1844 1.419 . S
C1846 C1847 1.362 . S
C1847 H1837 0.930 . S
C1847 C1840 1.409 . S
C1847 C1846 1.362 . S
H1848 C1854 0.930 . S
H1849 C1857 0.930 . S
H1850 C1858 0.930 . S
H1851 C1859 0.930 . S
H1852 C1862 0.930 . S
H1853 C1863 0.930 . S
C1854 H1848 0.930 . S
C1854 C1855 1.355 . S
C1854 C1856 1.415 . S
C1855 C1854 1.355 . S
C1855 C1857 1.419 . S
C1856 C1854 1.415 . S
C1856 C1861 1.425 . S
C1856 C1863 1.409 . S
C1857 H1849 0.930 . S
C1857 C1855 1.419 . S
C1857 C1858 1.362 . S
C1858 H1850 0.930 . S
C1858 C1857 1.362 . S
C1858 C1861 1.409 . S
C1859 H1851 0.930 . S
C1859 C1860 1.355 . S
C1859 C1861 1.415 . S
C1860 C1859 1.355 . S
C1860 C1862 1.419 . S
C1861 C1856 1.425 . S
C1861 C1858 1.409 . S
C1861 C1859 1.415 . S
C1862 H1852 0.930 . S
C1862 C1860 1.419 . S
C1862 C1863 1.362 . S
C1863 H1853 0.930 . S
C1863 C1856 1.409 . S
C1863 C1862 1.362 . S
H1864 C1870 0.930 . S
H1865 C1873 0.930 . S
H1866 C1874 0.930 . S
H1867 C1875 0.930 . S
H1868 C1878 0.930 . S
H1869 C1879 0.930 . S
C1870 H1864 0.930 . S
C1870 C1871 1.355 . S
C1870 C1872 1.415 . S
C1871 C1870 1.355 . S
C1871 C1873 1.419 . S
C1872 C1870 1.415 . S
C1872 C1877 1.425 . S
C1872 C1879 1.409 . S
C1873 H1865 0.930 . S
C1873 C1871 1.419 . S
C1873 C1874 1.362 . S
C1874 H1866 0.930 . S
C1874 C1873 1.362 . S
C1874 C1877 1.409 . S
C1875 H1867 0.930 . S
C1875 C1876 1.355 . S
C1875 C1877 1.415 . S
C1876 C1875 1.355 . S
C1876 C1878 1.419 . S
C1877 C1872 1.425 . S
C1877 C1874 1.409 . S
C1877 C1875 1.415 . S
C1878 H1868 0.930 . S
C1878 C1876 1.419 . S
C1878 C1879 1.362 . S
C1879 H1869 0.930 . S
C1879 C1872 1.409 . S
C1879 C1878 1.362 . S
H1880 C1886 0.930 . S
H1881 C1889 0.930 . S
H1882 C1890 0.930 . S
H1883 C1891 0.930 . S
H1884 C1894 0.930 . S
H1885 C1895 0.930 . S
C1886 H1880 0.930 . S
C1886 C1887 1.355 . S
C1886 C1888 1.415 . S
C1887 C1886 1.355 . S
C1887 C1889 1.419 . S
C1888 C1886 1.415 . S
C1888 C1893 1.425 . S
C1888 C1895 1.409 . S
C1889 H1881 0.930 . S
C1889 C1887 1.419 . S
C1889 C1890 1.362 . S
C1890 H1882 0.930 . S
C1890 C1889 1.362 . S
C1890 C1893 1.409 . S
C1891 H1883 0.930 . S
C1891 C1892 1.355 . S
C1891 C1893 1.415 . S
C1892 C1891 1.355 . S
C1892 C1894 1.419 . S
C1893 C1888 1.425 . S
C1893 C1890 1.409 . S
C1893 C1891 1.415 . S
C1894 H1884 0.930 . S
C1894 C1892 1.419 . S
C1894 C1895 1.362 . S
C1895 H1885 0.930 . S
C1895 C1888 1.409 . S
C1895 C1894 1.362 . S
H1896 C1902 0.930 . S
H1897 C1905 0.930 . S
H1898 C1906 0.930 . S
H1899 C1907 0.930 . S
H1900 C1910 0.930 . S
H1901 C1911 0.930 . S
C1902 H1896 0.930 . S
C1902 C1903 1.355 . S
C1902 C1904 1.415 . S
C1903 C1902 1.355 . S
C1903 C1905 1.419 . S
C1904 C1902 1.415 . S
C1904 C1909 1.425 . S
C1904 C1911 1.409 . S
C1905 H1897 0.930 . S
C1905 C1903 1.419 . S
C1905 C1906 1.362 . S
C1906 H1898 0.930 . S
C1906 C1905 1.362 . S
C1906 C1909 1.409 . S
C1907 H1899 0.930 . S
C1907 C1908 1.355 . S
C1907 C1909 1.415 . S
C1908 C1907 1.355 . S
C1908 C1910 1.419 . S
C1909 C1904 1.425 . S
C1909 C1906 1.409 . S
C1909 C1907 1.415 . S
C1910 H1900 0.930 . S
C1910 C1908 1.419 . S
C1910 C1911 1.362 . S
C1911 H1901 0.930 . S
C1911 C1904 1.409 . S
C1911 C1910 1.362 . S
H1912 C1918 0.930 . S
H1913 C1921 0.930 . S
H1914 C1922 0.930 . S
H1915 C1923 0.930 . S
H1916 C1926 0.930 . S
H1917 C1927 0.930 . S
C1918 H1912 0.930 . S
C1918 C1919 1.355 . S
C1918 C1920 1.415 . S
C1919 C1918 1.355 . S
C1919 C1921 1.419 . S
C1920 C1918 1.415 . S
C1920 C1925 1.425 . S
C1920 C1927 1.409 . S
C1921 H1913 0.930 . S
C1921 C1919 1.419 . S
C1921 C1922 1.362 . S
C1922 H1914 0.930 . S
C1922 C1921 1.362 . S
C1922 C1925 1.409 . S
C1923 H1915 0.930 . S
C1923 C1924 1.355 . S
C1923 C1925 1.415 . S
C1924 C1923 1.355 . S
C1924 C1926 1.419 . S
C1925 C1920 1.425 . S
C1925 C1922 1.409 . S
C1925 C1923 1.415 . S
C1926 H1916 0.930 . S
C1926 C1924 1.419 . S
C1926 C1927 1.362 . S
C1927 H1917 0.930 . S
C1927 C1920 1.409 . S
C1927 C1926 1.362 . S
H1928 C1934 0.930 . S
H1929 C1937 0.930 . S
H1930 C1938 0.930 . S
H1931 C1939 0.930 . S
H1932 C1942 0.930 . S
H1933 C1943 0.930 . S
C1934 H1928 0.930 . S
C1934 C1935 1.355 . S
C1934 C1936 1.415 . S
C1935 C1934 1.355 . S
C1935 C1937 1.419 . S
C1936 C1934 1.415 . S
C1936 C1941 1.425 . S
C1936 C1943 1.409 . S
C1937 H1929 0.930 . S
C1937 C1935 1.419 . S
C1937 C1938 1.362 . S
C1938 H1930 0.930 . S
C1938 C1937 1.362 . S
C1938 C1941 1.409 . S
C1939 H1931 0.930 . S
C1939 C1940 1.355 . S
C1939 C1941 1.415 . S
C1940 C1939 1.355 . S
C1940 C1942 1.419 . S
C1941 C1936 1.425 . S
C1941 C1938 1.409 . S
C1941 C1939 1.415 . S
C1942 H1932 0.930 . S
C1942 C1940 1.419 . S
C1942 C1943 1.362 . S
C1943 H1933 0.930 . S
C1943 C1936 1.409 . S
C1943 C1942 1.362 . S
H1944 C1950 0.930 . S
H1945 C1953 0.930 . S
H1946 C1954 0.930 . S
H1947 C1955 0.930 . S
H1948 C1958 0.930 . S
H1949 C1959 0.930 . S
C1950 H1944 0.930 . S
C1950 C1951 1.355 . S
C1950 C1952 1.415 . S
C1951 C1950 1.355 . S
C1951 C1953 1.419 . S
C1952 C1950 1.415 . S
C1952 C1957 1.425 . S
C1952 C1959 1.409 . S
C1953 H1945 0.930 . S
C1953 C1951 1.419 . S
C1953 C1954 1.362 . S
C1954 H1946 0.930 . S
C1954 C1953 1.362 . S
C1954 C1957 1.409 . S
C1955 H1947 0.930 . S
C1955 C1956 1.355 . S
C1955 C1957 1.415 . S
C1956 C1955 1.355 . S
C1956 C1958 1.419 . S
C1957 C1952 1.425 . S
C1957 C1954 1.409 . S
C1957 C1955 1.415 . S
C1958 H1948 0.930 . S
C1958 C1956 1.419 . S
C1958 C1959 1.362 . S
C1959 H1949 0.930 . S
C1959 C1952 1.409 . S
C1959 C1958 1.362 . S
H1960 C1966 0.930 . S
H1961 C1969 0.930 . S
H1962 C1970 0.930 . S
H1963 C1971 0.930 . S
H1964 C1974 0.930 . S
H1965 C1975 0.930 . S
C1966 H1960 0.930 . S
C1966 C1967 1.355 . S
C1966 C1968 1.415 . S
C1967 C1966 1.355 . S
C1967 C1969 1.419 . S
C1968 C1966 1.415 . S
C1968 C1973 1.425 . S
C1968 C1975 1.409 . S
C1969 H1961 0.930 . S
C1969 C1967 1.419 . S
C1969 C1970 1.362 . S
C1970 H1962 0.930 . S
C1970 C1969 1.362 . S
C1970 C1973 1.409 . S
C1971 H1963 0.930 . S
C1971 C1972 1.355 . S
C1971 C1973 1.415 . S
C1972 C1971 1.355 . S
C1972 C1974 1.419 . S
C1973 C1968 1.425 . S
C1973 C1970 1.409 . S
C1973 C1971 1.415 . S
C1974 H1964 0.930 . S
C1974 C1972 1.419 . S
C1974 C1975 1.362 . S
C1975 H1965 0.930 . S
C1975 C1968 1.409 . S
C1975 C1974 1.362 . S
H1976 C1982 0.930 . S
H1977 C1985 0.930 . S
H1978 C1986 0.930 . S
H1979 C1987 0.930 . S
H1980 C1990 0.930 . S
H1981 C1991 0.930 . S
C1982 H1976 0.930 . S
C1982 C1983 1.355 . S
C1982 C1984 1.415 . S
C1983 C1982 1.355 . S
C1983 C1985 1.419 . S
C1984 C1982 1.415 . S
C1984 C1989 1.425 . S
C1984 C1991 1.409 . S
C1985 H1977 0.930 . S
C1985 C1983 1.419 . S
C1985 C1986 1.362 . S
C1986 H1978 0.930 . S
C1986 C1985 1.362 . S
C1986 C1989 1.409 . S
C1987 H1979 0.930 . S
C1987 C1988 1.355 . S
C1987 C1989 1.415 . S
C1988 C1987 1.355 . S
C1988 C1990 1.419 . S
C1989 C1984 1.425 . S
C1989 C1986 1.409 . S
C1989 C1987 1.415 . S
C1990 H1980 0.930 . S
C1990 C1988 1.419 . S
C1990 C1991 1.362 . S
C1991 H1981 0.930 . S
C1991 C1984 1.409 . S
C1991 C1990 1.362 . S
H1992 C1998 0.930 . S
H1993 C2001 0.930 . S
H1994 C2002 0.930 . S
H1995 C2003 0.930 . S
H1996 C2006 0.930 . S
H1997 C2007 0.930 . S
C1998 H1992 0.930 . S
C1998 C1999 1.355 . S
C1998 C2000 1.415 . S
C1999 C1998 1.355 . S
C1999 C2001 1.419 . S
C2000 C1998 1.415 . S
C2000 C2005 1.425 . S
C2000 C2007 1.409 . S
C2001 H1993 0.930 . S
C2001 C1999 1.419 . S
C2001 C2002 1.362 . S
C2002 H1994 0.930 . S
C2002 C2001 1.362 . S
C2002 C2005 1.409 . S
C2003 H1995 0.930 . S
C2003 C2004 1.355 . S
C2003 C2005 1.415 . S
C2004 C2003 1.355 . S
C2004 C2006 1.419 . S
C2005 C2000 1.425 . S
C2005 C2002 1.409 . S
C2005 C2003 1.415 . S
C2006 H1996 0.930 . S
C2006 C2004 1.419 . S
C2006 C2007 1.362 . S
C2007 H1997 0.930 . S
C2007 C2000 1.409 . S
C2007 C2006 1.362 . S
H2008 C2014 0.930 . S
H2009 C2017 0.930 . S
H2010 C2018 0.930 . S
H2011 C2019 0.930 . S
H2012 C2022 0.930 . S
H2013 C2023 0.930 . S
C2014 H2008 0.930 . S
C2014 C2015 1.355 . S
C2014 C2016 1.415 . S
C2015 C2014 1.355 . S
C2015 C2017 1.419 . S
C2016 C2014 1.415 . S
C2016 C2021 1.425 . S
C2016 C2023 1.409 . S
C2017 H2009 0.930 . S
C2017 C2015 1.419 . S
C2017 C2018 1.362 . S
C2018 H2010 0.930 . S
C2018 C2017 1.362 . S
C2018 C2021 1.409 . S
C2019 H2011 0.930 . S
C2019 C2020 1.355 . S
C2019 C2021 1.415 . S
C2020 C2019 1.355 . S
C2020 C2022 1.419 . S
C2021 C2016 1.425 . S
C2021 C2018 1.409 . S
C2021 C2019 1.415 . S
C2022 H2012 0.930 . S
C2022 C2020 1.419 . S
C2022 C2023 1.362 . S
C2023 H2013 0.930 . S
C2023 C2016 1.409 . S
C2023 C2022 1.362 . S
H2024 C2030 0.930 . S
H2025 C2033 0.930 . S
H2026 C2034 0.930 . S
H2027 C2035 0.930 . S
H2028 C2038 0.930 . S
H2029 C2039 0.930 . S
C2030 H2024 0.930 . S
C2030 C2031 1.355 . S
C2030 C2032 1.415 . S
C2031 C2030 1.355 . S
C2031 C2033 1.419 . S
C2032 C2030 1.415 . S
C2032 C2037 1.425 . S
C2032 C2039 1.409 . S
C2033 H2025 0.930 . S
C2033 C2031 1.419 . S
C2033 C2034 1.362 . S
C2034 H2026 0.930 . S
C2034 C2033 1.362 . S
C2034 C2037 1.409 . S
C2035 H2027 0.930 . S
C2035 C2036 1.355 . S
C2035 C2037 1.415 . S
C2036 C2035 1.355 . S
C2036 C2038 1.419 . S
C2037 C2032 1.425 . S
C2037 C2034 1.409 . S
C2037 C2035 1.415 . S
C2038 H2028 0.930 . S
C2038 C2036 1.419 . S
C2038 C2039 1.362 . S
C2039 H2029 0.930 . S
C2039 C2032 1.409 . S
C2039 C2038 1.362 . S
H2040 C2046 0.930 . S
H2041 C2049 0.930 . S
H2042 C2050 0.930 . S
H2043 C2051 0.930 . S
H2044 C2054 0.930 . S
H2045 C2055 0.930 . S
C2046 H2040 0.930 . S
C2046 C2047 1.355 . S
C2046 C2048 1.415 . S
C2047 C2046 1.355 . S
C2047 C2049 1.419 . S
C2048 C2046 1.415 . S
C2048 C2053 1.425 . S
C2048 C2055 1.409 . S
C2049 H2041 0.930 . S
C2049 C2047 1.419 . S
C2049 C2050 1.362 . S
C2050 H2042 0.930 . S
C2050 C2049 1.362 . S
C2050 C2053 1.409 . S
C2051 H2043 0.930 . S
C2051 C2052 1.355 . S
C2051 C2053 1.415 . S
C2052 C2051 1.355 . S
C2052 C2054 1.419 . S
C2053 C2048 1.425 . S
C2053 C2050 1.409 . S
C2053 C2051 1.415 . S
C2054 H2044 0.930 . S
C2054 C2052 1.419 . S
C2054 C2055 1.362 . S
C2055 H2045 0.930 . S
C2055 C2048 1.409 . S
C2055 C2054 1.362 . S
H2056 C2062 0.930 . S
H2057 C2065 0.930 . S
H2058 C2066 0.930 . S
H2059 C2067 0.930 . S
H2060 C2070 0.930 . S
H2061 C2071 0.930 . S
C2062 H2056 0.930 . S
C2062 C2063 1.355 . S
C2062 C2064 1.415 . S
C2063 C2062 1.355 . S
C2063 C2065 1.419 . S
C2064 C2062 1.415 . S
C2064 C2069 1.425 . S
C2064 C2071 1.409 . S
C2065 H2057 0.930 . S
C2065 C2063 1.419 . S
C2065 C2066 1.362 . S
C2066 H2058 0.930 . S
C2066 C2065 1.362 . S
C2066 C2069 1.409 . S
C2067 H2059 0.930 . S
C2067 C2068 1.355 . S
C2067 C2069 1.415 . S
C2068 C2067 1.355 . S
C2068 C2070 1.419 . S
C2069 C2064 1.425 . S
C2069 C2066 1.409 . S
C2069 C2067 1.415 . S
C2070 H2060 0.930 . S
C2070 C2068 1.419 . S
C2070 C2071 1.362 . S
C2071 H2061 0.930 . S
C2071 C2064 1.409 . S
C2071 C2070 1.362 . S
H2072 C2078 0.930 . S
H2073 C2081 0.930 . S
H2074 C2082 0.930 . S
H2075 C2083 0.930 . S
H2076 C2086 0.930 . S
H2077 C2087 0.930 . S
C2078 H2072 0.930 . S
C2078 C2079 1.355 . S
C2078 C2080 1.415 . S
C2079 C2078 1.355 . S
C2079 C2081 1.419 . S
C2080 C2078 1.415 . S
C2080 C2085 1.425 . S
C2080 C2087 1.409 . S
C2081 H2073 0.930 . S
C2081 C2079 1.419 . S
C2081 C2082 1.362 . S
C2082 H2074 0.930 . S
C2082 C2081 1.362 . S
C2082 C2085 1.409 . S
C2083 H2075 0.930 . S
C2083 C2084 1.355 . S
C2083 C2085 1.415 . S
C2084 C2083 1.355 . S
C2084 C2086 1.419 . S
C2085 C2080 1.425 . S
C2085 C2082 1.409 . S
C2085 C2083 1.415 . S
C2086 H2076 0.930 . S
C2086 C2084 1.419 . S
C2086 C2087 1.362 . S
C2087 H2077 0.930 . S
C2087 C2080 1.409 . S
C2087 C2086 1.362 . S
H2088 C2094 0.930 . S
H2089 C2097 0.930 . S
H2090 C2098 0.930 . S
H2091 C2099 0.930 . S
H2092 C2102 0.930 . S
H2093 C2103 0.930 . S
C2094 H2088 0.930 . S
C2094 C2095 1.355 . S
C2094 C2096 1.415 . S
C2095 C2094 1.355 . S
C2095 C2097 1.419 . S
C2096 C2094 1.415 . S
C2096 C2101 1.425 . S
C2096 C2103 1.409 . S
C2097 H2089 0.930 . S
C2097 C2095 1.419 . S
C2097 C2098 1.362 . S
C2098 H2090 0.930 . S
C2098 C2097 1.362 . S
C2098 C2101 1.409 . S
C2099 H2091 0.930 . S
C2099 C2100 1.355 . S
C2099 C2101 1.415 . S
C2100 C2099 1.355 . S
C2100 C2102 1.419 . S
C2101 C2096 1.425 . S
C2101 C2098 1.409 . S
C2101 C2099 1.415 . S
C2102 H2092 0.930 . S
C2102 C2100 1.419 . S
C2102 C2103 1.362 . S
C2103 H2093 0.930 . S
C2103 C2096 1.409 . S
C2103 C2102 1.362 . S
H2104 C2110 0.930 . S
H2105 C2113 0.930 . S
H2106 C2114 0.930 . S
H2107 C2115 0.930 . S
H2108 C2118 0.930 . S
H2109 C2119 0.930 . S
C2110 H2104 0.930 . S
C2110 C2111 1.355 . S
C2110 C2112 1.415 . S
C2111 C2110 1.355 . S
C2111 C2113 1.419 . S
C2112 C2110 1.415 . S
C2112 C2117 1.425 . S
C2112 C2119 1.409 . S
C2113 H2105 0.930 . S
C2113 C2111 1.419 . S
C2113 C2114 1.362 . S
C2114 H2106 0.930 . S
C2114 C2113 1.362 . S
C2114 C2117 1.409 . S
C2115 H2107 0.930 . S
C2115 C2116 1.355 . S
C2115 C2117 1.415 . S
C2116 C2115 1.355 . S
C2116 C2118 1.419 . S
C2117 C2112 1.425 . S
C2117 C2114 1.409 . S
C2117 C2115 1.415 . S
C2118 H2108 0.930 . S
C2118 C2116 1.419 . S
C2118 C2119 1.362 . S
C2119 H2109 0.930 . S
C2119 C2112 1.409 . S
C2119 C2118 1.362 . S
H2120 C2126 0.930 . S
H2121 C2129 0.930 . S
H2122 C2130 0.930 . S
H2123 C2131 0.930 . S
H2124 C2134 0.930 . S
H2125 C2135 0.930 . S
C2126 H2120 0.930 . S
C2126 C2127 1.355 . S
C2126 C2128 1.415 . S
C2127 C2126 1.355 . S
C2127 C2129 1.419 . S
C2128 C2126 1.415 . S
C2128 C2133 1.425 . S
C2128 C2135 1.409 . S
C2129 H2121 0.930 . S
C2129 C2127 1.419 . S
C2129 C2130 1.362 . S
C2130 H2122 0.930 . S
C2130 C2129 1.362 . S
C2130 C2133 1.409 . S
C2131 H2123 0.930 . S
C2131 C2132 1.355 . S
C2131 C2133 1.415 . S
C2132 C2131 1.355 . S
C2132 C2134 1.419 . S
C2133 C2128 1.425 . S
C2133 C2130 1.409 . S
C2133 C2131 1.415 . S
C2134 H2124 0.930 . S
C2134 C2132 1.419 . S
C2134 C2135 1.362 . S
C2135 H2125 0.930 . S
C2135 C2128 1.409 . S
C2135 C2134 1.362 . S
H2136 C2142 0.930 . S
H2137 C2145 0.930 . S
H2138 C2146 0.930 . S
H2139 C2147 0.930 . S
H2140 C2150 0.930 . S
H2141 C2151 0.930 . S
C2142 H2136 0.930 . S
C2142 C2143 1.355 . S
C2142 C2144 1.415 . S
C2143 C2142 1.355 . S
C2143 C2145 1.419 . S
C2144 C2142 1.415 . S
C2144 C2149 1.425 . S
C2144 C2151 1.409 . S
C2145 H2137 0.930 . S
C2145 C2143 1.419 . S
C2145 C2146 1.362 . S
C2146 H2138 0.930 . S
C2146 C2145 1.362 . S
C2146 C2149 1.409 . S
C2147 H2139 0.930 . S
C2147 C2148 1.355 . S
C2147 C2149 1.415 . S
C2148 C2147 1.355 . S
C2148 C2150 1.419 . S
C2149 C2144 1.425 . S
C2149 C2146 1.409 . S
C2149 C2147 1.415 . S
C2150 H2140 0.930 . S
C2150 C2148 1.419 . S
C2150 C2151 1.362 . S
C2151 H2141 0.930 . S
C2151 C2144 1.409 . S
C2151 C2150 1.362 . S
H2152 C2158 0.930 . S
H2153 C2161 0.930 . S
H2154 C2162 0.930 . S
H2155 C2163 0.930 . S
H2156 C2166 0.930 . S
H2157 C2167 0.930 . S
C2158 H2152 0.930 . S
C2158 C2159 1.355 . S
C2158 C2160 1.415 . S
C2159 C2158 1.355 . S
C2159 C2161 1.419 . S
C2160 C2158 1.415 . S
C2160 C2165 1.425 . S
C2160 C2167 1.409 . S
C2161 H2153 0.930 . S
C2161 C2159 1.419 . S
C2161 C2162 1.362 . S
C2162 H2154 0.930 . S
C2162 C2161 1.362 . S
C2162 C2165 1.409 . S
C2163 H2155 0.930 . S
C2163 C2164 1.355 . S
C2163 C2165 1.415 . S
C2164 C2163 1.355 . S
C2164 C2166 1.419 . S
C2165 C2160 1.425 . S
C2165 C2162 1.409 . S
C2165 C2163 1.415 . S
C2166 H2156 0.930 . S
C2166 C2164 1.419 . S
C2166 C2167 1.362 . S
C2167 H2157 0.930 . S
C2167 C2160 1.409 . S
C2167 C2166 1.362 . S
H2168 C2174 0.930 . S
H2169 C2177 0.930 . S
H2170 C2178 0.930 . S
H2171 C2179 0.930 . S
H2172 C2182 0.930 . S
H2173 C2183 0.930 . S
C2174 H2168 0.930 . S
C2174 C2175 1.355 . S
C2174 C2176 1.415 . S
C2175 C2174 1.355 . S
C2175 C2177 1.419 . S
C2176 C2174 1.415 . S
C2176 C2181 1.425 . S
C2176 C2183 1.409 . S
C2177 H2169 0.930 . S
C2177 C2175 1.419 . S
C2177 C2178 1.362 . S
C2178 H2170 0.930 . S
C2178 C2177 1.362 . S
C2178 C2181 1.409 . S
C2179 H2171 0.930 . S
C2179 C2180 1.355 . S
C2179 C2181 1.415 . S
C2180 C2179 1.355 . S
C2180 C2182 1.419 . S
C2181 C2176 1.425 . S
C2181 C2178 1.409 . S
C2181 C2179 1.415 . S
C2182 H2172 0.930 . S
C2182 C2180 1.419 . S
C2182 C2183 1.362 . S
C2183 H2173 0.930 . S
C2183 C2176 1.409 . S
C2183 C2182 1.362 . S
H2184 C2190 0.930 . S
H2185 C2193 0.930 . S
H2186 C2194 0.930 . S
H2187 C2195 0.930 . S
H2188 C2198 0.930 . S
H2189 C2199 0.930 . S
C2190 H2184 0.930 . S
C2190 C2191 1.355 . S
C2190 C2192 1.415 . S
C2191 C2190 1.355 . S
C2191 C2193 1.419 . S
C2192 C2190 1.415 . S
C2192 C2197 1.425 . S
C2192 C2199 1.409 . S
C2193 H2185 0.930 . S
C2193 C2191 1.419 . S
C2193 C2194 1.362 . S
C2194 H2186 0.930 . S
C2194 C2193 1.362 . S
C2194 C2197 1.409 . S
C2195 H2187 0.930 . S
C2195 C2196 1.355 . S
C2195 C2197 1.415 . S
C2196 C2195 1.355 . S
C2196 C2198 1.419 . S
C2197 C2192 1.425 . S
C2197 C2194 1.409 . S
C2197 C2195 1.415 . S
C2198 H2188 0.930 . S
C2198 C2196 1.419 . S
C2198 C2199 1.362 . S
C2199 H2189 0.930 . S
C2199 C2192 1.409 . S
C2199 C2198 1.362 . S
H2200 C2206 0.930 . S
H2201 C2209 0.930 . S
H2202 C2210 0.930 . S
H2203 C2211 0.930 . S
H2204 C2214 0.930 . S
H2205 C2215 0.930 . S
C2206 H2200 0.930 . S
C2206 C2207 1.355 . S
C2206 C2208 1.415 . S
C2207 C2206 1.355 . S
C2207 C2209 1.419 . S
C2208 C2206 1.415 . S
C2208 C2213 1.425 . S
C2208 C2215 1.409 . S
C2209 H2201 0.930 . S
C2209 C2207 1.419 . S
C2209 C2210 1.362 . S
C2210 H2202 0.930 . S
C2210 C2209 1.362 . S
C2210 C2213 1.409 . S
C2211 H2203 0.930 . S
C2211 C2212 1.355 . S
C2211 C2213 1.415 . S
C2212 C2211 1.355 . S
C2212 C2214 1.419 . S
C2213 C2208 1.425 . S
C2213 C2210 1.409 . S
C2213 C2211 1.415 . S
C2214 H2204 0.930 . S
C2214 C2212 1.419 . S
C2214 C2215 1.362 . S
C2215 H2205 0.930 . S
C2215 C2208 1.409 . S
C2215 C2214 1.362 . S
H2216 C2222 0.930 . S
H2217 C2225 0.930 . S
H2218 C2226 0.930 . S
H2219 C2227 0.930 . S
H2220 C2230 0.930 . S
H2221 C2231 0.930 . S
C2222 H2216 0.930 . S
C2222 C2223 1.355 . S
C2222 C2224 1.415 . S
C2223 C2222 1.355 . S
C2223 C2225 1.419 . S
C2224 C2222 1.415 . S
C2224 C2229 1.425 . S
C2224 C2231 1.409 . S
C2225 H2217 0.930 . S
C2225 C2223 1.419 . S
C2225 C2226 1.362 . S
C2226 H2218 0.930 . S
C2226 C2225 1.362 . S
C2226 C2229 1.409 . S
C2227 H2219 0.930 . S
C2227 C2228 1.355 . S
C2227 C2229 1.415 . S
C2228 C2227 1.355 . S
C2228 C2230 1.419 . S
C2229 C2224 1.425 . S
C2229 C2226 1.409 . S
C2229 C2227 1.415 . S
C2230 H2220 0.930 . S
C2230 C2228 1.419 . S
C2230 C2231 1.362 . S
C2231 H2221 0.930 . S
C2231 C2224 1.409 . S
C2231 C2230 1.362 . S
H2232 C2238 0.930 . S
H2233 C2241 0.930 . S
H2234 C2242 0.930 . S
H2235 C2243 0.930 . S
H2236 C2246 0.930 . S
H2237 C2247 0.930 . S
C2238 H2232 0.930 . S
C2238 C2239 1.355 . S
C2238 C2240 1.415 . S
C2239 C2238 1.355 . S
C2239 C2241 1.419 . S
C2240 C2238 1.415 . S
C2240 C2245 1.425 . S
C2240 C2247 1.409 . S
C2241 H2233 0.930 . S
C2241 C2239 1.419 . S
C2241 C2242 1.362 . S
C2242 H2234 0.930 . S
C2242 C2241 1.362 . S
C2242 C2245 1.409 . S
C2243 H2235 0.930 . S
C2243 C2244 1.355 . S
C2243 C2245 1.415 . S
C2244 C2243 1.355 . S
C2244 C2246 1.419 . S
C2245 C2240 1.425 . S
C2245 C2242 1.409 . S
C2245 C2243 1.415 . S
C2246 H2236 0.930 . S
C2246 C2244 1.419 . S
C2246 C2247 1.362 . S
C2247 H2237 0.930 . S
C2247 C2240 1.409 . S
C2247 C2246 1.362 . S
H2248 C2254 0.930 . S
H2249 C2257 0.930 . S
H2250 C2258 0.930 . S
H2251 C2259 0.930 . S
H2252 C2262 0.930 . S
H2253 C2263 0.930 . S
C2254 H2248 0.930 . S
C2254 C2255 1.355 . S
C2254 C2256 1.415 . S
C2255 C2254 1.355 . S
C2255 C2257 1.419 . S
C2256 C2254 1.415 . S
C2256 C2261 1.425 . S
C2256 C2263 1.409 . S
C2257 H2249 0.930 . S
C2257 C2255 1.419 . S
C2257 C2258 1.362 . S
C2258 H2250 0.930 . S
C2258 C2257 1.362 . S
C2258 C2261 1.409 . S
C2259 H2251 0.930 . S
C2259 C2260 1.355 . S
C2259 C2261 1.415 . S
C2260 C2259 1.355 . S
C2260 C2262 1.419 . S
C2261 C2256 1.425 . S
C2261 C2258 1.409 . S
C2261 C2259 1.415 . S
C2262 H2252 0.930 . S
C2262 C2260 1.419 . S
C2262 C2263 1.362 . S
C2263 H2253 0.930 . S
C2263 C2256 1.409 . S
C2263 C2262 1.362 . S
H2264 C2270 0.930 . S
H2265 C2273 0.930 . S
H2266 C2274 0.930 . S
H2267 C2275 0.930 . S
H2268 C2278 0.930 . S
H2269 C2279 0.930 . S
C2270 H2264 0.930 . S
C2270 C2271 1.355 . S
C2270 C2272 1.415 . S
C2271 C2270 1.355 . S
C2271 C2273 1.419 . S
C2272 C2270 1.415 . S
C2272 C2277 1.425 . S
C2272 C2279 1.409 . S
C2273 H2265 0.930 . S
C2273 C2271 1.419 . S
C2273 C2274 1.362 . S
C2274 H2266 0.930 . S
C2274 C2273 1.362 . S
C2274 C2277 1.409 . S
C2275 H2267 0.930 . S
C2275 C2276 1.355 . S
C2275 C2277 1.415 . S
C2276 C2275 1.355 . S
C2276 C2278 1.419 . S
C2277 C2272 1.425 . S
C2277 C2274 1.409 . S
C2277 C2275 1.415 . S
C2278 H2268 0.930 . S
C2278 C2276 1.419 . S
C2278 C2279 1.362 . S
C2279 H2269 0.930 . S
C2279 C2272 1.409 . S
C2279 C2278 1.362 . S
H2280 C2286 0.930 . S
H2281 C2289 0.930 . S
H2282 C2290 0.930 . S
H2283 C2291 0.930 . S
H2284 C2294 0.930 . S
H2285 C2295 0.930 . S
C2286 H2280 0.930 . S
C2286 C2287 1.355 . S
C2286 C2288 1.415 . S
C2287 C2286 1.355 . S
C2287 C2289 1.419 . S
C2288 C2286 1.415 . S
C2288 C2293 1.425 . S
C2288 C2295 1.409 . S
C2289 H2281 0.930 . S
C2289 C2287 1.419 . S
C2289 C2290 1.362 . S
C2290 H2282 0.930 . S
C2290 C2289 1.362 . S
C2290 C2293 1.409 . S
C2291 H2283 0.930 . S
C2291 C2292 1.355 . S
C2291 C2293 1.415 . S
C2292 C2291 1.355 . S
C2292 C2294 1.419 . S
C2293 C2288 1.425 . S
C2293 C2290 1.409 . S
C2293 C2291 1.415 . S
C2294 H2284 0.930 . S
C2294 C2292 1.419 . S
C2294 C2295 1.362 . S
C2295 H2285 0.930 . S
C2295 C2288 1.409 . S
C2295 C2294 1.362 . S
H2296 C2302 0.930 . S
H2297 C2305 0.930 . S
H2298 C2306 0.930 . S
H2299 C2307 0.930 . S
H2300 C2310 0.930 . S
H2301 C2311 0.930 . S
C2302 H2296 0.930 . S
C2302 C2303 1.355 . S
C2302 C2304 1.415 . S
C2303 C2302 1.355 . S
C2303 C2305 1.419 . S
C2304 C2302 1.415 . S
C2304 C2309 1.425 . S
C2304 C2311 1.409 . S
C2305 H2297 0.930 . S
C2305 C2303 1.419 . S
C2305 C2306 1.362 . S
C2306 H2298 0.930 . S
C2306 C2305 1.362 . S
C2306 C2309 1.409 . S
C2307 H2299 0.930 . S
C2307 C2308 1.355 . S
C2307 C2309 1.415 . S
C2308 C2307 1.355 . S
C2308 C2310 1.419 . S
C2309 C2304 1.425 . S
C2309 C2306 1.409 . S
C2309 C2307 1.415 . S
C2310 H2300 0.930 . S
C2310 C2308 1.419 . S
C2310 C2311 1.362 . S
C2311 H2301 0.930 . S
C2311 C2304 1.409 . S
C2311 C2310 1.362 . S
H2312 C2318 0.930 . S
H2313 C2321 0.930 . S
H2314 C2322 0.930 . S
H2315 C2323 0.930 . S
H2316 C2326 0.930 . S
H2317 C2327 0.930 . S
C2318 H2312 0.930 . S
C2318 C2319 1.355 . S
C2318 C2320 1.415 . S
C2319 C2318 1.355 . S
C2319 C2321 1.419 . S
C2320 C2318 1.415 . S
C2320 C2325 1.425 . S
C2320 C2327 1.409 . S
C2321 H2313 0.930 . S
C2321 C2319 1.419 . S
C2321 C2322 1.362 . S
C2322 H2314 0.930 . S
C2322 C2321 1.362 . S
C2322 C2325 1.409 . S
C2323 H2315 0.930 . S
C2323 C2324 1.355 . S
C2323 C2325 1.415 . S
C2324 C2323 1.355 . S
C2324 C2326 1.419 . S
C2325 C2320 1.425 . S
C2325 C2322 1.409 . S
C2325 C2323 1.415 . S
C2326 H2316 0.930 . S
C2326 C2324 1.419 . S
C2326 C2327 1.362 . S
C2327 H2317 0.930 . S
C2327 C2320 1.409 . S
C2327 C2326 1.362 . S
H2328 C2334 0.930 . S
H2329 C2337 0.930 . S
H2330 C2338 0.930 . S
H2331 C2339 0.930 . S
H2332 C2342 0.930 . S
H2333 C2343 0.930 . S
C2334 H2328 0.930 . S
C2334 C2335 1.355 . S
C2334 C2336 1.415 . S
C2335 C2334 1.355 . S
C2335 C2337 1.419 . S
C2336 C2334 1.415 . S
C2336 C2341 1.425 . S
C2336 C2343 1.409 . S
C2337 H2329 0.930 . S
C2337 C2335 1.419 . S
C2337 C2338 1.362 . S
C2338 H2330 0.930 . S
C2338 C2337 1.362 . S
C2338 C2341 1.409 . S
C2339 H2331 0.930 . S
C2339 C2340 1.355 . S
C2339 C2341 1.415 . S
C2340 C2339 1.355 . S
C2340 C2342 1.419 . S
C2341 C2336 1.425 . S
C2341 C2338 1.409 . S
C2341 C2339 1.415 . S
C2342 H2332 0.930 . S
C2342 C2340 1.419 . S
C2342 C2343 1.362 . S
C2343 H2333 0.930 . S
C2343 C2336 1.409 . S
C2343 C2342 1.362 . S
H2344 C2350 0.930 . S
H2345 C2353 0.930 . S
H2346 C2354 0.930 . S
H2347 C2355 0.930 . S
H2348 C2358 0.930 . S
H2349 C2359 0.930 . S
C2350 H2344 0.930 . S
C2350 C2351 1.355 . S
C2350 C2352 1.415 . S
C2351 C2350 1.355 . S
C2351 C2353 1.419 . S
C2352 C2350 1.415 . S
C2352 C2357 1.425 . S
C2352 C2359 1.409 . S
C2353 H2345 0.930 . S
C2353 C2351 1.419 . S
C2353 C2354 1.362 . S
C2354 H2346 0.930 . S
C2354 C2353 1.362 . S
C2354 C2357 1.409 . S
C2355 H2347 0.930 . S
C2355 C2356 1.355 . S
C2355 C2357 1.415 . S
C2356 C2355 1.355 . S
C2356 C2358 1.419 . S
C2357 C2352 1.425 . S
C2357 C2354 1.409 . S
C2357 C2355 1.415 . S
C2358 H2348 0.930 . S
C2358 C2356 1.419 . S
C2358 C2359 1.362 . S
C2359 H2349 0.930 . S
C2359 C2352 1.409 . S
C2359 C2358 1.362 . S
H2360 C2366 0.930 . S
H2361 C2369 0.930 . S
H2362 C2370 0.930 . S
H2363 C2371 0.930 . S
H2364 C2374 0.930 . S
H2365 C2375 0.930 . S
C2366 H2360 0.930 . S
C2366 C2367 1.355 . S
C2366 C2368 1.415 . S
C2367 C2366 1.355 . S
C2367 C2369 1.419 . S
C2368 C2366 1.415 . S
C2368 C2373 1.425 . S
C2368 C2375 1.409 . S
C2369 H2361 0.930 . S
C2369 C2367 1.419 . S
C2369 C2370 1.362 . S
C2370 H2362 0.930 . S
C2370 C2369 1.362 . S
C2370 C2373 1.409 . S
C2371 H2363 0.930 . S
C2371 C2372 1.355 . S
C2371 C2373 1.415 . S
C2372 C2371 1.355 . S
C2372 C2374 1.419 . S
C2373 C2368 1.425 . S
C2373 C2370 1.409 . S
C2373 C2371 1.415 . S
C2374 H2364 0.930 . S
C2374 C2372 1.419 . S
C2374 C2375 1.362 . S
C2375 H2365 0.930 . S
C2375 C2368 1.409 . S
C2375 C2374 1.362 . S
H2376 C2382 0.930 . S
H2377 C2385 0.930 . S
H2378 C2386 0.930 . S
H2379 C2387 0.930 . S
H2380 C2390 0.930 . S
H2381 C2391 0.930 . S
C2382 H2376 0.930 . S
C2382 C2383 1.355 . S
C2382 C2384 1.415 . S
C2383 C2382 1.355 . S
C2383 C2385 1.419 . S
C2384 C2382 1.415 . S
C2384 C2389 1.425 . S
C2384 C2391 1.409 . S
C2385 H2377 0.930 . S
C2385 C2383 1.419 . S
C2385 C2386 1.362 . S
C2386 H2378 0.930 . S
C2386 C2385 1.362 . S
C2386 C2389 1.409 . S
C2387 H2379 0.930 . S
C2387 C2388 1.355 . S
C2387 C2389 1.415 . S
C2388 C2387 1.355 . S
C2388 C2390 1.419 . S
C2389 C2384 1.425 . S
C2389 C2386 1.409 . S
C2389 C2387 1.415 . S
C2390 H2380 0.930 . S
C2390 C2388 1.419 . S
C2390 C2391 1.362 . S
C2391 H2381 0.930 . S
C2391 C2384 1.409 . S
C2391 C2390 1.362 . S
H2392 C2398 0.930 . S
H2393 C2401 0.930 . S
H2394 C2402 0.930 . S
H2395 C2403 0.930 . S
H2396 C2406 0.930 . S
H2397 C2407 0.930 . S
C2398 H2392 0.930 . S
C2398 C2399 1.355 . S
C2398 C2400 1.415 . S
C2399 C2398 1.355 . S
C2399 C2401 1.419 . S
C2400 C2398 1.415 . S
C2400 C2405 1.425 . S
C2400 C2407 1.409 . S
C2401 H2393 0.930 . S
C2401 C2399 1.419 . S
C2401 C2402 1.362 . S
C2402 H2394 0.930 . S
C2402 C2401 1.362 . S
C2402 C2405 1.409 . S
C2403 H2395 0.930 . S
C2403 C2404 1.355 . S
C2403 C2405 1.415 . S
C2404 C2403 1.355 . S
C2404 C2406 1.419 . S
C2405 C2400 1.425 . S
C2405 C2402 1.409 . S
C2405 C2403 1.415 . S
C2406 H2396 0.930 . S
C2406 C2404 1.419 . S
C2406 C2407 1.362 . S
C2407 H2397 0.930 . S
C2407 C2400 1.409 . S
C2407 C2406 1.362 . S
H2408 C2414 0.930 . S
H2409 C2417 0.930 . S
H2410 C2418 0.930 . S
H2411 C2419 0.930 . S
H2412 C2422 0.930 . S
H2413 C2423 0.930 . S
C2414 H2408 0.930 . S
C2414 C2415 1.355 . S
C2414 C2416 1.415 . S
C2415 C2414 1.355 . S
C2415 C2417 1.419 . S
C2416 C2414 1.415 . S
C2416 C2421 1.425 . S
C2416 C2423 1.409 . S
C2417 H2409 0.930 . S
C2417 C2415 1.419 . S
C2417 C2418 1.362 . S
C2418 H2410 0.930 . S
C2418 C2417 1.362 . S
C2418 C2421 1.409 . S
C2419 H2411 0.930 . S
C2419 C2420 1.355 . S
C2419 C2421 1.415 . S
C2420 C2419 1.355 . S
C2420 C2422 1.419 . S
C2421 C2416 1.425 . S
C2421 C2418 1.409 . S
C2421 C2419 1.415 . S
C2422 H2412 0.930 . S
C2422 C2420 1.419 . S
C2422 C2423 1.362 . S
C2423 H2413 0.930 . S
C2423 C2416 1.409 . S
C2423 C2422 1.362 . S
H2424 C2430 0.930 . S
H2425 C2433 0.930 . S
H2426 C2434 0.930 . S
H2427 C2435 0.930 . S
H2428 C2438 0.930 . S
H2429 C2439 0.930 . S
C2430 H2424 0.930 . S
C2430 C2431 1.355 . S
C2430 C2432 1.415 . S
C2431 C2430 1.355 . S
C2431 C2433 1.419 . S
C2432 C2430 1.415 . S
C2432 C2437 1.425 . S
C2432 C2439 1.409 . S
C2433 H2425 0.930 . S
C2433 C2431 1.419 . S
C2433 C2434 1.362 . S
C2434 H2426 0.930 . S
C2434 C2433 1.362 . S
C2434 C2437 1.409 . S
C2435 H2427 0.930 . S
C2435 C2436 1.355 . S
C2435 C2437 1.415 . S
C2436 C2435 1.355 . S
C2436 C2438 1.419 . S
C2437 C2432 1.425 . S
C2437 C2434 1.409 . S
C2437 C2435 1.415 . S
C2438 H2428 0.930 . S
C2438 C2436 1.419 . S
C2438 C2439 1.362 . S
C2439 H2429 0.930 . S
C2439 C2432 1.409 . S
C2439 C2438 1.362 . S
H2440 C2446 0.930 . S
H2441 C2449 0.930 . S
H2442 C2450 0.930 . S
H2443 C2451 0.930 . S
H2444 C2454 0.930 . S
H2445 C2455 0.930 . S
C2446 H2440 0.930 . S
C2446 C2447 1.355 . S
C2446 C2448 1.415 . S
C2447 C2446 1.355 . S
C2447 C2449 1.419 . S
C2448 C2446 1.415 . S
C2448 C2453 1.425 . S
C2448 C2455 1.409 . S
C2449 H2441 0.930 . S
C2449 C2447 1.419 . S
C2449 C2450 1.362 . S
C2450 H2442 0.930 . S
C2450 C2449 1.362 . S
C2450 C2453 1.409 . S
C2451 H2443 0.930 . S
C2451 C2452 1.355 . S
C2451 C2453 1.415 . S
C2452 C2451 1.355 . S
C2452 C2454 1.419 . S
C2453 C2448 1.425 . S
C2453 C2450 1.409 . S
C2453 C2451 1.415 . S
C2454 H2444 0.930 . S
C2454 C2452 1.419 . S
C2454 C2455 1.362 . S
C2455 H2445 0.930 . S
C2455 C2448 1.409 . S
C2455 C2454 1.362 . S
H2456 C2462 0.930 . S
H2457 C2465 0.930 . S
H2458 C2466 0.930 . S
H2459 C2467 0.930 . S
H2460 C2470 0.930 . S
H2461 C2471 0.930 . S
C2462 H2456 0.930 . S
C2462 C2463 1.355 . S
C2462 C2464 1.415 . S
C2463 C2462 1.355 . S
C2463 C2465 1.419 . S
C2464 C2462 1.415 . S
C2464 C2469 1.425 . S
C2464 C2471 1.409 . S
C2465 H2457 0.930 . S
C2465 C2463 1.419 . S
C2465 C2466 1.362 . S
C2466 H2458 0.930 . S
C2466 C2465 1.362 . S
C2466 C2469 1.409 . S
C2467 H2459 0.930 . S
C2467 C2468 1.355 . S
C2467 C2469 1.415 . S
C2468 C2467 1.355 . S
C2468 C2470 1.419 . S
C2469 C2464 1.425 . S
C2469 C2466 1.409 . S
C2469 C2467 1.415 . S
C2470 H2460 0.930 . S
C2470 C2468 1.419 . S
C2470 C2471 1.362 . S
C2471 H2461 0.930 . S
C2471 C2464 1.409 . S
C2471 C2470 1.362 . S
H2472 C2478 0.930 . S
H2473 C2481 0.930 . S
H2474 C2482 0.930 . S
H2475 C2483 0.930 . S
H2476 C2486 0.930 . S
H2477 C2487 0.930 . S
C2478 H2472 0.930 . S
C2478 C2479 1.355 . S
C2478 C2480 1.415 . S
C2479 C2478 1.355 . S
C2479 C2481 1.419 . S
C2480 C2478 1.415 . S
C2480 C2485 1.425 . S
C2480 C2487 1.409 . S
C2481 H2473 0.930 . S
C2481 C2479 1.419 . S
C2481 C2482 1.362 . S
C2482 H2474 0.930 . S
C2482 C2481 1.362 . S
C2482 C2485 1.409 . S
C2483 H2475 0.930 . S
C2483 C2484 1.355 . S
C2483 C2485 1.415 . S
C2484 C2483 1.355 . S
C2484 C2486 1.419 . S
C2485 C2480 1.425 . S
C2485 C2482 1.409 . S
C2485 C2483 1.415 . S
C2486 H2476 0.930 . S
C2486 C2484 1.419 . S
C2486 C2487 1.362 . S
C2487 H2477 0.930 . S
C2487 C2480 1.409 . S
C2487 C2486 1.362 . S
H2488 C2494 0.930 . S
H2489 C2497 0.930 . S
H2490 C2498 0.930 . S
H2491 C2499 0.930 . S
H2492 C2502 0.930 . S
H2493 C2503 0.930 . S
C2494 H2488 0.930 . S
C2494 C2495 1.355 . S
C2494 C2496 1.415 . S
C2495 C2494 1.355 . S
C2495 C2497 1.419 . S
C2496 C2494 1.415 . S
C2496 C2501 1.425 . S
C2496 C2503 1.409 . S
C2497 H2489 0.930 . S
C2497 C2495 1.419 . S
C2497 C2498 1.362 . S
C2498 H2490 0.930 . S
C2498 C2497 1.362 . S
C2498 C2501 1.409 . S
C2499 H2491 0.930 . S
C2499 C2500 1.355 . S
C2499 C2501 1.415 . S
C2500 C2499 1.355 . S
C2500 C2502 1.419 . S
C2501 C2496 1.425 . S
C2501 C2498 1.409 . S
C2501 C2499 1.415 . S
C2502 H2492 0.930 . S
C2502 C2500 1.419 . S
C2502 C2503 1.362 . S
C2503 H2493 0.930 . S
C2503 C2496 1.409 . S
C2503 C2502 1.362 . S
H2504 C2510 0.930 . S
H2505 C2513 0.930 . S
H2506 C2514 0.930 . S
H2507 C2515 0.930 . S
H2508 C2518 0.930 . S
H2509 C2519 0.930 . S
C2510 H2504 0.930 . S
C2510 C2511 1.355 . S
C2510 C2512 1.415 . S
C2511 C2510 1.355 . S
C2511 C2513 1.419 . S
C2512 C2510 1.415 . S
C2512 C2517 1.425 . S
C2512 C2519 1.409 . S
C2513 H2505 0.930 . S
C2513 C2511 1.419 . S
C2513 C2514 1.362 . S
C2514 H2506 0.930 . S
C2514 C2513 1.362 . S
C2514 C2517 1.409 . S
C2515 H2507 0.930 . S
C2515 C2516 1.355 . S
C2515 C2517 1.415 . S
C2516 C2515 1.355 . S
C2516 C2518 1.419 . S
C2517 C2512 1.425 . S
C2517 C2514 1.409 . S
C2517 C2515 1.415 . S
C2518 H2508 0.930 . S
C2518 C2516 1.419 . S
C2518 C2519 1.362 . S
C2519 H2509 0.930 . S
C2519 C2512 1.409 . S
C2519 C2518 1.362 . S
H2520 C2526 0.930 . S
H2521 C2529 0.930 . S
H2522 C2530 0.930 . S
H2523 C2531 0.930 . S
H2524 C2534 0.930 . S
H2525 C2535 0.930 . S
C2526 H2520 0.930 . S
C2526 C2527 1.355 . S
C2526 C2528 1.415 . S
C2527 C2526 1.355 . S
C2527 C2529 1.419 . S
C2528 C2526 1.415 . S
C2528 C2533 1.425 . S
C2528 C2535 1.409 . S
C2529 H2521 0.930 . S
C2529 C2527 1.419 . S
C2529 C2530 1.362 . S
C2530 H2522 0.930 . S
C2530 C2529 1.362 . S
C2530 C2533 1.409 . S
C2531 H2523 0.930 . S
C2531 C2532 1.355 . S
C2531 C2533 1.415 . S
C2532 C2531 1.355 . S
C2532 C2534 1.419 . S
C2533 C2528 1.425 . S
C2533 C2530 1.409 . S
C2533 C2531 1.415 . S
C2534 H2524 0.930 . S
C2534 C2532 1.419 . S
C2534 C2535 1.362 . S
C2535 H2525 0.930 . S
C2535 C2528 1.409 . S
C2535 C2534 1.362 . S
H2536 C2542 0.930 . S
H2537 C2545 0.930 . S
H2538 C2546 0.930 . S
H2539 C2547 0.930 . S
H2540 C2550 0.930 . S
H2541 C2551 0.930 . S
C2542 H2536 0.930 . S
C2542 C2543 1.355 . S
C2542 C2544 1.415 . S
C2543 C2542 1.355 . S
C2543 C2545 1.419 . S
C2544 C2542 1.415 . S
C2544 C2549 1.425 . S
C2544 C2551 1.409 . S
C2545 H2537 0.930 . S
C2545 C2543 1.419 . S
C2545 C2546 1.362 . S
C2546 H2538 0.930 . S
C2546 C2545 1.362 . S
C2546 C2549 1.409 . S
C2547 H2539 0.930 . S
C2547 C2548 1.355 . S
C2547 C2549 1.415 . S
C2548 C2547 1.355 . S
C2548 C2550 1.419 . S
C2549 C2544 1.425 . S
C2549 C2546 1.409 . S
C2549 C2547 1.415 . S
C2550 H2540 0.930 . S
C2550 C2548 1.419 . S
C2550 C2551 1.362 . S
C2551 H2541 0.930 . S
C2551 C2544 1.409 . S
C2551 C2550 1.362 . S
H2552 C2558 0.930 . S
H2553 C2561 0.930 . S
H2554 C2562 0.930 . S
H2555 C2563 0.930 . S
H2556 C2566 0.930 . S
H2557 C2567 0.930 . S
C2558 H2552 0.930 . S
C2558 C2559 1.355 . S
C2558 C2560 1.415 . S
C2559 C2558 1.355 . S
C2559 C2561 1.419 . S
C2560 C2558 1.415 . S
C2560 C2565 1.425 . S
C2560 C2567 1.409 . S
C2561 H2553 0.930 . S
C2561 C2559 1.419 . S
C2561 C2562 1.362 . S
C2562 H2554 0.930 . S
C2562 C2561 1.362 . S
C2562 C2565 1.409 . S
C2563 H2555 0.930 . S
C2563 C2564 1.355 . S
C2563 C2565 1.415 . S
C2564 C2563 1.355 . S
C2564 C2566 1.419 . S
C2565 C2560 1.425 . S
C2565 C2562 1.409 . S
C2565 C2563 1.415 . S
C2566 H2556 0.930 . S
C2566 C2564 1.419 . S
C2566 C2567 1.362 . S
C2567 H2557 0.930 . S
C2567 C2560 1.409 . S
C2567 C2566 1.362 . S
H2568 C2574 0.930 . S
H2569 C2577 0.930 . S
H2570 C2578 0.930 . S
H2571 C2579 0.930 . S
H2572 C2582 0.930 . S
H2573 C2583 0.930 . S
C2574 H2568 0.930 . S
C2574 C2575 1.355 . S
C2574 C2576 1.415 . S
C2575 C2574 1.355 . S
C2575 C2577 1.419 . S
C2576 C2574 1.415 . S
C2576 C2581 1.425 . S
C2576 C2583 1.409 . S
C2577 H2569 0.930 . S
C2577 C2575 1.419 . S
C2577 C2578 1.362 . S
C2578 H2570 0.930 . S
C2578 C2577 1.362 . S
C2578 C2581 1.409 . S
C2579 H2571 0.930 . S
C2579 C2580 1.355 . S
C2579 C2581 1.415 . S
C2580 C2579 1.355 . S
C2580 C2582 1.419 . S
C2581 C2576 1.425 . S
C2581 C2578 1.409 . S
C2581 C2579 1.415 . S
C2582 H2572 0.930 . S
C2582 C2580 1.419 . S
C2582 C2583 1.362 . S
C2583 H2573 0.930 . S
C2583 C2576 1.409 . S
C2583 C2582 1.362 . S
H2584 C2590 0.930 . S
H2585 C2593 0.930 . S
H2586 C2594 0.930 . S
H2587 C2595 0.930 . S
H2588 C2598 0.930 . S
H2589 C2599 0.930 . S
C2590 H2584 0.930 . S
C2590 C2591 1.355 . S
C2590 C2592 1.415 . S
C2591 C2590 1.355 . S
C2591 C2593 1.419 . S
C2592 C2590 1.415 . S
C2592 C2597 1.425 . S
C2592 C2599 1.409 . S
C2593 H2585 0.930 . S
C2593 C2591 1.419 . S
C2593 C2594 1.362 . S
C2594 H2586 0.930 . S
C2594 C2593 1.362 . S
C2594 C2597 1.409 . S
C2595 H2587 0.930 . S
C2595 C2596 1.355 . S
C2595 C2597 1.415 . S
C2596 C2595 1.355 . S
C2596 C2598 1.419 . S
C2597 C2592 1.425 . S
C2597 C2594 1.409 . S
C2597 C2595 1.415 . S
C2598 H2588 0.930 . S
C2598 C2596 1.419 . S
C2598 C2599 1.362 . S
C2599 H2589 0.930 . S
C2599 C2592 1.409 . S
C2599 C2598 1.362 . S
H2600 C2606 0.930 . S
H2601 C2609 0.930 . S
H2602 C2610 0.930 . S
H2603 C2611 0.930 . S
H2604 C2614 0.930 . S
H2605 C2615 0.930 . S
C2606 H2600 0.930 . S
C2606 C2607 1.355 . S
C2606 C2608 1.415 . S
C2607 C2606 1.355 . S
C2607 C2609 1.419 . S
C2608 C2606 1.415 . S
C2608 C2613 1.425 . S
C2608 C2615 1.409 . S
C2609 H2601 0.930 . S
C2609 C2607 1.419 . S
C2609 C2610 1.362 . S
C2610 H2602 0.930 . S
C2610 C2609 1.362 . S
C2610 C2613 1.409 . S
C2611 H2603 0.930 . S
C2611 C2612 1.355 . S
C2611 C2613 1.415 . S
C2612 C2611 1.355 . S
C2612 C2614 1.419 . S
C2613 C2608 1.425 . S
C2613 C2610 1.409 . S
C2613 C2611 1.415 . S
C2614 H2604 0.930 . S
C2614 C2612 1.419 . S
C2614 C2615 1.362 . S
C2615 H2605 0.930 . S
C2615 C2608 1.409 . S
C2615 C2614 1.362 . S
H2616 C2622 0.930 . S
H2617 C2625 0.930 . S
H2618 C2626 0.930 . S
H2619 C2627 0.930 . S
H2620 C2630 0.930 . S
H2621 C2631 0.930 . S
C2622 H2616 0.930 . S
C2622 C2623 1.355 . S
C2622 C2624 1.415 . S
C2623 C2622 1.355 . S
C2623 C2625 1.419 . S
C2624 C2622 1.415 . S
C2624 C2629 1.425 . S
C2624 C2631 1.409 . S
C2625 H2617 0.930 . S
C2625 C2623 1.419 . S
C2625 C2626 1.362 . S
C2626 H2618 0.930 . S
C2626 C2625 1.362 . S
C2626 C2629 1.409 . S
C2627 H2619 0.930 . S
C2627 C2628 1.355 . S
C2627 C2629 1.415 . S
C2628 C2627 1.355 . S
C2628 C2630 1.419 . S
C2629 C2624 1.425 . S
C2629 C2626 1.409 . S
C2629 C2627 1.415 . S
C2630 H2620 0.930 . S
C2630 C2628 1.419 . S
C2630 C2631 1.362 . S
C2631 H2621 0.930 . S
C2631 C2624 1.409 . S
C2631 C2630 1.362 . S
H2632 C2638 0.930 . S
H2633 C2641 0.930 . S
H2634 C2642 0.930 . S
H2635 C2643 0.930 . S
H2636 C2646 0.930 . S
H2637 C2647 0.930 . S
C2638 H2632 0.930 . S
C2638 C2639 1.355 . S
C2638 C2640 1.415 . S
C2639 C2638 1.355 . S
C2639 C2641 1.419 . S
C2640 C2638 1.415 . S
C2640 C2645 1.425 . S
C2640 C2647 1.409 . S
C2641 H2633 0.930 . S
C2641 C2639 1.419 . S
C2641 C2642 1.362 . S
C2642 H2634 0.930 . S
C2642 C2641 1.362 . S
C2642 C2645 1.409 . S
C2643 H2635 0.930 . S
C2643 C2644 1.355 . S
C2643 C2645 1.415 . S
C2644 C2643 1.355 . S
C2644 C2646 1.419 . S
C2645 C2640 1.425 . S
C2645 C2642 1.409 . S
C2645 C2643 1.415 . S
C2646 H2636 0.930 . S
C2646 C2644 1.419 . S
C2646 C2647 1.362 . S
C2647 H2637 0.930 . S
C2647 C2640 1.409 . S
C2647 C2646 1.362 . S
H2648 C2654 0.930 . S
H2649 C2657 0.930 . S
H2650 C2658 0.930 . S
H2651 C2659 0.930 . S
H2652 C2662 0.930 . S
H2653 C2663 0.930 . S
C2654 H2648 0.930 . S
C2654 C2655 1.355 . S
C2654 C2656 1.415 . S
C2655 C2654 1.355 . S
C2655 C2657 1.419 . S
C2656 C2654 1.415 . S
C2656 C2661 1.425 . S
C2656 C2663 1.409 . S
C2657 H2649 0.930 . S
C2657 C2655 1.419 . S
C2657 C2658 1.362 . S
C2658 H2650 0.930 . S
C2658 C2657 1.362 . S
C2658 C2661 1.409 . S
C2659 H2651 0.930 . S
C2659 C2660 1.355 . S
C2659 C2661 1.415 . S
C2660 C2659 1.355 . S
C2660 C2662 1.419 . S
C2661 C2656 1.425 . S
C2661 C2658 1.409 . S
C2661 C2659 1.415 . S
C2662 H2652 0.930 . S
C2662 C2660 1.419 . S
C2662 C2663 1.362 . S
C2663 H2653 0.930 . S
C2663 C2656 1.409 . S
C2663 C2662 1.362 . S
H2664 C2670 0.930 . S
H2665 C2673 0.930 . S
H2666 C2674 0.930 . S
H2667 C2675 0.930 . S
H2668 C2678 0.930 . S
H2669 C2679 0.930 . S
C2670 H2664 0.930 . S
C2670 C2671 1.355 . S
C2670 C2672 1.415 . S
C2671 C2670 1.355 . S
C2671 C2673 1.419 . S
C2672 C2670 1.415 . S
C2672 C2677 1.425 . S
C2672 C2679 1.409 . S
C2673 H2665 0.930 . S
C2673 C2671 1.419 . S
C2673 C2674 1.362 . S
C2674 H2666 0.930 . S
C2674 C2673 1.362 . S
C2674 C2677 1.409 . S
C2675 H2667 0.930 . S
C2675 C2676 1.355 . S
C2675 C2677 1.415 . S
C2676 C2675 1.355 . S
C2676 C2678 1.419 . S
C2677 C2672 1.425 . S
C2677 C2674 1.409 . S
C2677 C2675 1.415 . S
C2678 H2668 0.930 . S
C2678 C2676 1.419 . S
C2678 C2679 1.362 . S
C2679 H2669 0.930 . S
C2679 C2672 1.409 . S
C2679 C2678 1.362 . S
H2680 C2686 0.930 . S
H2681 C2689 0.930 . S
H2682 C2690 0.930 . S
H2683 C2691 0.930 . S
H2684 C2694 0.930 . S
H2685 C2695 0.930 . S
C2686 H2680 0.930 . S
C2686 C2687 1.355 . S
C2686 C2688 1.415 . S
C2687 C2686 1.355 . S
C2687 C2689 1.419 . S
C2688 C2686 1.415 . S
C2688 C2693 1.425 . S
C2688 C2695 1.409 . S
C2689 H2681 0.930 . S
C2689 C2687 1.419 . S
C2689 C2690 1.362 . S
C2690 H2682 0.930 . S
C2690 C2689 1.362 . S
C2690 C2693 1.409 . S
C2691 H2683 0.930 . S
C2691 C2692 1.355 . S
C2691 C2693 1.415 . S
C2692 C2691 1.355 . S
C2692 C2694 1.419 . S
C2693 C2688 1.425 . S
C2693 C2690 1.409 . S
C2693 C2691 1.415 . S
C2694 H2684 0.930 . S
C2694 C2692 1.419 . S
C2694 C2695 1.362 . S
C2695 H2685 0.930 . S
C2695 C2688 1.409 . S
C2695 C2694 1.362 . S
H2696 C2702 0.930 . S
H2697 C2705 0.930 . S
H2698 C2706 0.930 . S
H2699 C2707 0.930 . S
H2700 C2710 0.930 . S
H2701 C2711 0.930 . S
C2702 H2696 0.930 . S
C2702 C2703 1.355 . S
C2702 C2704 1.415 . S
C2703 C2702 1.355 . S
C2703 C2705 1.419 . S
C2704 C2702 1.415 . S
C2704 C2709 1.425 . S
C2704 C2711 1.409 . S
C2705 H2697 0.930 . S
C2705 C2703 1.419 . S
C2705 C2706 1.362 . S
C2706 H2698 0.930 . S
C2706 C2705 1.362 . S
C2706 C2709 1.409 . S
C2707 H2699 0.930 . S
C2707 C2708 1.355 . S
C2707 C2709 1.415 . S
C2708 C2707 1.355 . S
C2708 C2710 1.419 . S
C2709 C2704 1.425 . S
C2709 C2706 1.409 . S
C2709 C2707 1.415 . S
C2710 H2700 0.930 . S
C2710 C2708 1.419 . S
C2710 C2711 1.362 . S
C2711 H2701 0.930 . S
C2711 C2704 1.409 . S
C2711 C2710 1.362 . S
H2712 C2718 0.930 . S
H2713 C2721 0.930 . S
H2714 C2722 0.930 . S
H2715 C2723 0.930 . S
H2716 C2726 0.930 . S
H2717 C2727 0.930 . S
C2718 H2712 0.930 . S
C2718 C2719 1.355 . S
C2718 C2720 1.415 . S
C2719 C2718 1.355 . S
C2719 C2721 1.419 . S
C2720 C2718 1.415 . S
C2720 C2725 1.425 . S
C2720 C2727 1.409 . S
C2721 H2713 0.930 . S
C2721 C2719 1.419 . S
C2721 C2722 1.362 . S
C2722 H2714 0.930 . S
C2722 C2721 1.362 . S
C2722 C2725 1.409 . S
C2723 H2715 0.930 . S
C2723 C2724 1.355 . S
C2723 C2725 1.415 . S
C2724 C2723 1.355 . S
C2724 C2726 1.419 . S
C2725 C2720 1.425 . S
C2725 C2722 1.409 . S
C2725 C2723 1.415 . S
C2726 H2716 0.930 . S
C2726 C2724 1.419 . S
C2726 C2727 1.362 . S
C2727 H2717 0.930 . S
C2727 C2720 1.409 . S
C2727 C2726 1.362 . S
H2728 C2734 0.930 . S
H2729 C2737 0.930 . S
H2730 C2738 0.930 . S
H2731 C2739 0.930 . S
H2732 C2742 0.930 . S
H2733 C2743 0.930 . S
C2734 H2728 0.930 . S
C2734 C2735 1.355 . S
C2734 C2736 1.415 . S
C2735 C2734 1.355 . S
C2735 C2737 1.419 . S
C2736 C2734 1.415 . S
C2736 C2741 1.425 . S
C2736 C2743 1.409 . S
C2737 H2729 0.930 . S
C2737 C2735 1.419 . S
C2737 C2738 1.362 . S
C2738 H2730 0.930 . S
C2738 C2737 1.362 . S
C2738 C2741 1.409 . S
C2739 H2731 0.930 . S
C2739 C2740 1.355 . S
C2739 C2741 1.415 . S
C2740 C2739 1.355 . S
C2740 C2742 1.419 . S
C2741 C2736 1.425 . S
C2741 C2738 1.409 . S
C2741 C2739 1.415 . S
C2742 H2732 0.930 . S
C2742 C2740 1.419 . S
C2742 C2743 1.362 . S
C2743 H2733 0.930 . S
C2743 C2736 1.409 . S
C2743 C2742 1.362 . S
H2744 C2750 0.930 . S
H2745 C2753 0.930 . S
H2746 C2754 0.930 . S
H2747 C2755 0.930 . S
H2748 C2758 0.930 . S
H2749 C2759 0.930 . S
C2750 H2744 0.930 . S
C2750 C2751 1.355 . S
C2750 C2752 1.415 . S
C2751 C2750 1.355 . S
C2751 C2753 1.419 . S
C2752 C2750 1.415 . S
C2752 C2757 1.425 . S
C2752 C2759 1.409 . S
C2753 H2745 0.930 . S
C2753 C2751 1.419 . S
C2753 C2754 1.362 . S
C2754 H2746 0.930 . S
C2754 C2753 1.362 . S
C2754 C2757 1.409 . S
C2755 H2747 0.930 . S
C2755 C2756 1.355 . S
C2755 C2757 1.415 . S
C2756 C2755 1.355 . S
C2756 C2758 1.419 . S
C2757 C2752 1.425 . S
C2757 C2754 1.409 . S
C2757 C2755 1.415 . S
C2758 H2748 0.930 . S
C2758 C2756 1.419 . S
C2758 C2759 1.362 . S
C2759 H2749 0.930 . S
C2759 C2752 1.409 . S
C2759 C2758 1.362 . S
H2760 C2766 0.930 . S
H2761 C2769 0.930 . S
H2762 C2770 0.930 . S
H2763 C2771 0.930 . S
H2764 C2774 0.930 . S
H2765 C2775 0.930 . S
C2766 H2760 0.930 . S
C2766 C2767 1.355 . S
C2766 C2768 1.415 . S
C2767 C2766 1.355 . S
C2767 C2769 1.419 . S
C2768 C2766 1.415 . S
C2768 C2773 1.425 . S
C2768 C2775 1.409 . S
C2769 H2761 0.930 . S
C2769 C2767 1.419 . S
C2769 C2770 1.362 . S
C2770 H2762 0.930 . S
C2770 C2769 1.362 . S
C2770 C2773 1.409 . S
C2771 H2763 0.930 . S
C2771 C2772 1.355 . S
C2771 C2773 1.415 . S
C2772 C2771 1.355 . S
C2772 C2774 1.419 . S
C2773 C2768 1.425 . S
C2773 C2770 1.409 . S
C2773 C2771 1.415 . S
C2774 H2764 0.930 . S
C2774 C2772 1.419 . S
C2774 C2775 1.362 . S
C2775 H2765 0.930 . S
C2775 C2768 1.409 . S
C2775 C2774 1.362 . S
H2776 C2782 0.930 . S
H2777 C2785 0.930 . S
H2778 C2786 0.930 . S
H2779 C2787 0.930 . S
H2780 C2790 0.930 . S
H2781 C2791 0.930 . S
C2782 H2776 0.930 . S
C2782 C2783 1.355 . S
C2782 C2784 1.415 . S
C2783 C2782 1.355 . S
C2783 C2785 1.419 . S
C2784 C2782 1.415 . S
C2784 C2789 1.425 . S
C2784 C2791 1.409 . S
C2785 H2777 0.930 . S
C2785 C2783 1.419 . S
C2785 C2786 1.362 . S
C2786 H2778 0.930 . S
C2786 C2785 1.362 . S
C2786 C2789 1.409 . S
C2787 H2779 0.930 . S
C2787 C2788 1.355 . S
C2787 C2789 1.415 . S
C2788 C2787 1.355 . S
C2788 C2790 1.419 . S
C2789 C2784 1.425 . S
C2789 C2786 1.409 . S
C2789 C2787 1.415 . S
C2790 H2780 0.930 . S
C2790 C2788 1.419 . S
C2790 C2791 1.362 . S
C2791 H2781 0.930 . S
C2791 C2784 1.409 . S
C2791 C2790 1.362 . S
H2792 C2798 0.930 . S
H2793 C2801 0.930 . S
H2794 C2802 0.930 . S
H2795 C2803 0.930 . S
H2796 C2806 0.930 . S
H2797 C2807 0.930 . S
C2798 H2792 0.930 . S
C2798 C2799 1.355 . S
C2798 C2800 1.415 . S
C2799 C2798 1.355 . S
C2799 C2801 1.419 . S
C2800 C2798 1.415 . S
C2800 C2805 1.425 . S
C2800 C2807 1.409 . S
C2801 H2793 0.930 . S
C2801 C2799 1.419 . S
C2801 C2802 1.362 . S
C2802 H2794 0.930 . S
C2802 C2801 1.362 . S
C2802 C2805 1.409 . S
C2803 H2795 0.930 . S
C2803 C2804 1.355 . S
C2803 C2805 1.415 . S
C2804 C2803 1.355 . S
C2804 C2806 1.419 . S
C2805 C2800 1.425 . S
C2805 C2802 1.409 . S
C2805 C2803 1.415 . S
C2806 H2796 0.930 . S
C2806 C2804 1.419 . S
C2806 C2807 1.362 . S
C2807 H2797 0.930 . S
C2807 C2800 1.409 . S
C2807 C2806 1.362 . S
H2808 C2814 0.930 . S
H2809 C2817 0.930 . S
H2810 C2818 0.930 . S
H2811 C2819 0.930 . S
H2812 C2822 0.930 . S
H2813 C2823 0.930 . S
C2814 H2808 0.930 . S
C2814 C2815 1.355 . S
C2814 C2816 1.415 . S
C2815 C2814 1.355 . S
C2815 C2817 1.419 . S
C2816 C2814 1.415 . S
C2816 C2821 1.425 . S
C2816 C2823 1.409 . S
C2817 H2809 0.930 . S
C2817 C2815 1.419 . S
C2817 C2818 1.362 . S
C2818 H2810 0.930 . S
C2818 C2817 1.362 . S
C2818 C2821 1.409 . S
C2819 H2811 0.930 . S
C2819 C2820 1.355 . S
C2819 C2821 1.415 . S
C2820 C2819 1.355 . S
C2820 C2822 1.419 . S
C2821 C2816 1.425 . S
C2821 C2818 1.409 . S
C2821 C2819 1.415 . S
C2822 H2812 0.930 . S
C2822 C2820 1.419 . S
C2822 C2823 1.362 . S
C2823 H2813 0.930 . S
C2823 C2816 1.409 . S
C2823 C2822 1.362 . S
H2824 C2830 0.930 . S
H2825 C2833 0.930 . S
H2826 C2834 0.930 . S
H2827 C2835 0.930 . S
H2828 C2838 0.930 . S
H2829 C2839 0.930 . S
C2830 H2824 0.930 . S
C2830 C2831 1.355 . S
C2830 C2832 1.415 . S
C2831 C2830 1.355 . S
C2831 C2833 1.419 . S
C2832 C2830 1.415 . S
C2832 C2837 1.425 . S
C2832 C2839 1.409 . S
C2833 H2825 0.930 . S
C2833 C2831 1.419 . S
C2833 C2834 1.362 . S
C2834 H2826 0.930 . S
C2834 C2833 1.362 . S
C2834 C2837 1.409 . S
C2835 H2827 0.930 . S
C2835 C2836 1.355 . S
C2835 C2837 1.415 . S
C2836 C2835 1.355 . S
C2836 C2838 1.419 . S
C2837 C2832 1.425 . S
C2837 C2834 1.409 . S
C2837 C2835 1.415 . S
C2838 H2828 0.930 . S
C2838 C2836 1.419 . S
C2838 C2839 1.362 . S
C2839 H2829 0.930 . S
C2839 C2832 1.409 . S
C2839 C2838 1.362 . S
H2840 C2846 0.930 . S
H2841 C2849 0.930 . S
H2842 C2850 0.930 . S
H2843 C2851 0.930 . S
H2844 C2854 0.930 . S
H2845 C2855 0.930 . S
C2846 H2840 0.930 . S
C2846 C2847 1.355 . S
C2846 C2848 1.415 . S
C2847 C2846 1.355 . S
C2847 C2849 1.419 . S
C2848 C2846 1.415 . S
C2848 C2853 1.425 . S
C2848 C2855 1.409 . S
C2849 H2841 0.930 . S
C2849 C2847 1.419 . S
C2849 C2850 1.362 . S
C2850 H2842 0.930 . S
C2850 C2849 1.362 . S
C2850 C2853 1.409 . S
C2851 H2843 0.930 . S
C2851 C2852 1.355 . S
C2851 C2853 1.415 . S
C2852 C2851 1.355 . S
C2852 C2854 1.419 . S
C2853 C2848 1.425 . S
C2853 C2850 1.409 . S
C2853 C2851 1.415 . S
C2854 H2844 0.930 . S
C2854 C2852 1.419 . S
C2854 C2855 1.362 . S
C2855 H2845 0.930 . S
C2855 C2848 1.409 . S
C2855 C2854 1.362 . S
H2856 C2862 0.930 . S
H2857 C2865 0.930 . S
H2858 C2866 0.930 . S
H2859 C2867 0.930 . S
H2860 C2870 0.930 . S
H2861 C2871 0.930 . S
C2862 H2856 0.930 . S
C2862 C2863 1.355 . S
C2862 C2864 1.415 . S
C2863 C2862 1.355 . S
C2863 C2865 1.419 . S
C2864 C2862 1.415 . S
C2864 C2869 1.425 . S
C2864 C2871 1.409 . S
C2865 H2857 0.930 . S
C2865 C2863 1.419 . S
C2865 C2866 1.362 . S
C2866 H2858 0.930 . S
C2866 C2865 1.362 . S
C2866 C2869 1.409 . S
C2867 H2859 0.930 . S
C2867 C2868 1.355 . S
C2867 C2869 1.415 . S
C2868 C2867 1.355 . S
C2868 C2870 1.419 . S
C2869 C2864 1.425 . S
C2869 C2866 1.409 . S
C2869 C2867 1.415 . S
C2870 H2860 0.930 . S
C2870 C2868 1.419 . S
C2870 C2871 1.362 . S
C2871 H2861 0.930 . S
C2871 C2864 1.409 . S
C2871 C2870 1.362 . S
H2872 C2878 0.930 . S
H2873 C2881 0.930 . S
H2874 C2882 0.930 . S
H2875 C2883 0.930 . S
H2876 C2886 0.930 . S
H2877 C2887 0.930 . S
C2878 H2872 0.930 . S
C2878 C2879 1.355 . S
C2878 C2880 1.415 . S
C2879 C2878 1.355 . S
C2879 C2881 1.419 . S
C2880 C2878 1.415 . S
C2880 C2885 1.425 . S
C2880 C2887 1.409 . S
C2881 H2873 0.930 . S
C2881 C2879 1.419 . S
C2881 C2882 1.362 . S
C2882 H2874 0.930 . S
C2882 C2881 1.362 . S
C2882 C2885 1.409 . S
C2883 H2875 0.930 . S
C2883 C2884 1.355 . S
C2883 C2885 1.415 . S
C2884 C2883 1.355 . S
C2884 C2886 1.419 . S
C2885 C2880 1.425 . S
C2885 C2882 1.409 . S
C2885 C2883 1.415 . S
C2886 H2876 0.930 . S
C2886 C2884 1.419 . S
C2886 C2887 1.362 . S
C2887 H2877 0.930 . S
C2887 C2880 1.409 . S
C2887 C2886 1.362 . S
H2888 C2894 0.930 . S
H2889 C2897 0.930 . S
H2890 C2898 0.930 . S
H2891 C2899 0.930 . S
H2892 C2902 0.930 . S
H2893 C2903 0.930 . S
C2894 H2888 0.930 . S
C2894 C2895 1.355 . S
C2894 C2896 1.415 . S
C2895 C2894 1.355 . S
C2895 C2897 1.419 . S
C2896 C2894 1.415 . S
C2896 C2901 1.425 . S
C2896 C2903 1.409 . S
C2897 H2889 0.930 . S
C2897 C2895 1.419 . S
C2897 C2898 1.362 . S
C2898 H2890 0.930 . S
C2898 C2897 1.362 . S
C2898 C2901 1.409 . S
C2899 H2891 0.930 . S
C2899 C2900 1.355 . S
C2899 C2901 1.415 . S
C2900 C2899 1.355 . S
C2900 C2902 1.419 . S
C2901 C2896 1.425 . S
C2901 C2898 1.409 . S
C2901 C2899 1.415 . S
C2902 H2892 0.930 . S
C2902 C2900 1.419 . S
C2902 C2903 1.362 . S
C2903 H2893 0.930 . S
C2903 C2896 1.409 . S
C2903 C2902 1.362 . S
H2904 C2910 0.930 . S
H2905 C2913 0.930 . S
H2906 C2914 0.930 . S
H2907 C2915 0.930 . S
H2908 C2918 0.930 . S
H2909 C2919 0.930 . S
C2910 H2904 0.930 . S
C2910 C2911 1.355 . S
C2910 C2912 1.415 . S
C2911 C2910 1.355 . S
C2911 C2913 1.419 . S
C2912 C2910 1.415 . S
C2912 C2917 1.425 . S
C2912 C2919 1.409 . S
C2913 H2905 0.930 . S
C2913 C2911 1.419 . S
C2913 C2914 1.362 . S
C2914 H2906 0.930 . S
C2914 C2913 1.362 . S
C2914 C2917 1.409 . S
C2915 H2907 0.930 . S
C2915 C2916 1.355 . S
C2915 C2917 1.415 . S
C2916 C2915 1.355 . S
C2916 C2918 1.419 . S
C2917 C2912 1.425 . S
C2917 C2914 1.409 . S
C2917 C2915 1.415 . S
C2918 H2908 0.930 . S
C2918 C2916 1.419 . S
C2918 C2919 1.362 . S
C2919 H2909 0.930 . S
C2919 C2912 1.409 . S
C2919 C2918 1.362 . S
H2920 C2926 0.930 . S
H2921 C2929 0.930 . S
H2922 C2930 0.930 . S
H2923 C2931 0.930 . S
H2924 C2934 0.930 . S
H2925 C2935 0.930 . S
C2926 H2920 0.930 . S
C2926 C2927 1.355 . S
C2926 C2928 1.415 . S
C2927 C2926 1.355 . S
C2927 C2929 1.419 . S
C2928 C2926 1.415 . S
C2928 C2933 1.425 . S
C2928 C2935 1.409 . S
C2929 H2921 0.930 . S
C2929 C2927 1.419 . S
C2929 C2930 1.362 . S
C2930 H2922 0.930 . S
C2930 C2929 1.362 . S
C2930 C2933 1.409 . S
C2931 H2923 0.930 . S
C2931 C2932 1.355 . S
C2931 C2933 1.415 . S
C2932 C2931 1.355 . S
C2932 C2934 1.419 . S
C2933 C2928 1.425 . S
C2933 C2930 1.409 . S
C2933 C2931 1.415 . S
C2934 H2924 0.930 . S
C2934 C2932 1.419 . S
C2934 C2935 1.362 . S
C2935 H2925 0.930 . S
C2935 C2928 1.409 . S
C2935 C2934 1.362 . S
H2936 C2942 0.930 . S
H2937 C2945 0.930 . S
H2938 C2946 0.930 . S
H2939 C2947 0.930 . S
H2940 C2950 0.930 . S
H2941 C2951 0.930 . S
C2942 H2936 0.930 . S
C2942 C2943 1.355 . S
C2942 C2944 1.415 . S
C2943 C2942 1.355 . S
C2943 C2945 1.419 . S
C2944 C2942 1.415 . S
C2944 C2949 1.425 . S
C2944 C2951 1.409 . S
C2945 H2937 0.930 . S
C2945 C2943 1.419 . S
C2945 C2946 1.362 . S
C2946 H2938 0.930 . S
C2946 C2945 1.362 . S
C2946 C2949 1.409 . S
C2947 H2939 0.930 . S
C2947 C2948 1.355 . S
C2947 C2949 1.415 . S
C2948 C2947 1.355 . S
C2948 C2950 1.419 . S
C2949 C2944 1.425 . S
C2949 C2946 1.409 . S
C2949 C2947 1.415 . S
C2950 H2940 0.930 . S
C2950 C2948 1.419 . S
C2950 C2951 1.362 . S
C2951 H2941 0.930 . S
C2951 C2944 1.409 . S
C2951 C2950 1.362 . S
H2952 C2958 0.930 . S
H2953 C2961 0.930 . S
H2954 C2962 0.930 . S
H2955 C2963 0.930 . S
H2956 C2966 0.930 . S
H2957 C2967 0.930 . S
C2958 H2952 0.930 . S
C2958 C2959 1.355 . S
C2958 C2960 1.415 . S
C2959 C2958 1.355 . S
C2959 C2961 1.419 . S
C2960 C2958 1.415 . S
C2960 C2965 1.425 . S
C2960 C2967 1.409 . S
C2961 H2953 0.930 . S
C2961 C2959 1.419 . S
C2961 C2962 1.362 . S
C2962 H2954 0.930 . S
C2962 C2961 1.362 . S
C2962 C2965 1.409 . S
C2963 H2955 0.930 . S
C2963 C2964 1.355 . S
C2963 C2965 1.415 . S
C2964 C2963 1.355 . S
C2964 C2966 1.419 . S
C2965 C2960 1.425 . S
C2965 C2962 1.409 . S
C2965 C2963 1.415 . S
C2966 H2956 0.930 . S
C2966 C2964 1.419 . S
C2966 C2967 1.362 . S
C2967 H2957 0.930 . S
C2967 C2960 1.409 . S
C2967 C2966 1.362 . S
H2968 C2974 0.930 . S
H2969 C2977 0.930 . S
H2970 C2978 0.930 . S
H2971 C2979 0.930 . S
H2972 C2982 0.930 . S
H2973 C2983 0.930 . S
C2974 H2968 0.930 . S
C2974 C2975 1.355 . S
C2974 C2976 1.415 . S
C2975 C2974 1.355 . S
C2975 C2977 1.419 . S
C2976 C2974 1.415 . S
C2976 C2981 1.425 . S
C2976 C2983 1.409 . S
C2977 H2969 0.930 . S
C2977 C2975 1.419 . S
C2977 C2978 1.362 . S
C2978 H2970 0.930 . S
C2978 C2977 1.362 . S
C2978 C2981 1.409 . S
C2979 H2971 0.930 . S
C2979 C2980 1.355 . S
C2979 C2981 1.415 . S
C2980 C2979 1.355 . S
C2980 C2982 1.419 . S
C2981 C2976 1.425 . S
C2981 C2978 1.409 . S
C2981 C2979 1.415 . S
C2982 H2972 0.930 . S
C2982 C2980 1.419 . S
C2982 C2983 1.362 . S
C2983 H2973 0.930 . S
C2983 C2976 1.409 . S
C2983 C2982 1.362 . S
H2984 C2990 0.930 . S
H2985 C2993 0.930 . S
H2986 C2994 0.930 . S
H2987 C2995 0.930 . S
H2988 C2998 0.930 . S
H2989 C2999 0.930 . S
C2990 H2984 0.930 . S
C2990 C2991 1.355 . S
C2990 C2992 1.415 . S
C2991 C2990 1.355 . S
C2991 C2993 1.419 . S
C2992 C2990 1.415 . S
C2992 C2997 1.425 . S
C2992 C2999 1.409 . S
C2993 H2985 0.930 . S
C2993 C2991 1.419 . S
C2993 C2994 1.362 . S
C2994 H2986 0.930 . S
C2994 C2993 1.362 . S
C2994 C2997 1.409 . S
C2995 H2987 0.930 . S
C2995 C2996 1.355 . S
C2995 C2997 1.415 . S
C2996 C2995 1.355 . S
C2996 C2998 1.419 . S
C2997 C2992 1.425 . S
C2997 C2994 1.409 . S
C2997 C2995 1.415 . S
C2998 H2988 0.930 . S
C2998 C2996 1.419 . S
C2998 C2999 1.362 . S
C2999 H2989 0.930 . S
C2999 C2992 1.409 . S
C2999 C2998 1.362 . S
H3000 C3006 0.930 . S
H3001 C3009 0.930 . S
H3002 C3010 0.930 . S
H3003 C3011 0.930 . S
H3004 C3014 0.930 . S
H3005 C3015 0.930 . S
C3006 H3000 0.930 . S
C3006 C3007 1.355 . S
C3006 C3008 1.415 . S
C3007 C3006 1.355 . S
C3007 C3009 1.419 . S
C3008 C3006 1.415 . S
C3008 C3013 1.425 . S
C3008 C3015 1.409 . S
C3009 H3001 0.930 . S
C3009 C3007 1.419 . S
C3009 C3010 1.362 . S
C3010 H3002 0.930 . S
C3010 C3009 1.362 . S
C3010 C3013 1.409 . S
C3011 H3003 0.930 . S
C3011 C3012 1.355 . S
C3011 C3013 1.415 . S
C3012 C3011 1.355 . S
C3012 C3014 1.419 . S
C3013 C3008 1.425 . S
C3013 C3010 1.409 . S
C3013 C3011 1.415 . S
C3014 H3004 0.930 . S
C3014 C3012 1.419 . S
C3014 C3015 1.362 . S
C3015 H3005 0.930 . S
C3015 C3008 1.409 . S
C3015 C3014 1.362 . S
H3016 C3022 0.930 . S
H3017 C3025 0.930 . S
H3018 C3026 0.930 . S
H3019 C3027 0.930 . S
H3020 C3030 0.930 . S
H3021 C3031 0.930 . S
C3022 H3016 0.930 . S
C3022 C3023 1.355 . S
C3022 C3024 1.415 . S
C3023 C3022 1.355 . S
C3023 C3025 1.419 . S
C3024 C3022 1.415 . S
C3024 C3029 1.425 . S
C3024 C3031 1.409 . S
C3025 H3017 0.930 . S
C3025 C3023 1.419 . S
C3025 C3026 1.362 . S
C3026 H3018 0.930 . S
C3026 C3025 1.362 . S
C3026 C3029 1.409 . S
C3027 H3019 0.930 . S
C3027 C3028 1.355 . S
C3027 C3029 1.415 . S
C3028 C3027 1.355 . S
C3028 C3030 1.419 . S
C3029 C3024 1.425 . S
C3029 C3026 1.409 . S
C3029 C3027 1.415 . S
C3030 H3020 0.930 . S
C3030 C3028 1.419 . S
C3030 C3031 1.362 . S
C3031 H3021 0.930 . S
C3031 C3024 1.409 . S
C3031 C3030 1.362 . S
H3032 C3038 0.930 . S
H3033 C3041 0.930 . S
H3034 C3042 0.930 . S
H3035 C3043 0.930 . S
H3036 C3046 0.930 . S
H3037 C3047 0.930 . S
C3038 H3032 0.930 . S
C3038 C3039 1.355 . S
C3038 C3040 1.415 . S
C3039 C3038 1.355 . S
C3039 C3041 1.419 . S
C3040 C3038 1.415 . S
C3040 C3045 1.425 . S
C3040 C3047 1.409 . S
C3041 H3033 0.930 . S
C3041 C3039 1.419 . S
C3041 C3042 1.362 . S
C3042 H3034 0.930 . S
C3042 C3041 1.362 . S
C3042 C3045 1.409 . S
C3043 H3035 0.930 . S
C3043 C3044 1.355 . S
C3043 C3045 1.415 . S
C3044 C3043 1.355 . S
C3044 C3046 1.419 . S
C3045 C3040 1.425 . S
C3045 C3042 1.409 . S
C3045 C3043 1.415 . S
C3046 H3036 0.930 . S
C3046 C3044 1.419 . S
C3046 C3047 1.362 . S
C3047 H3037 0.930 . S
C3047 C3040 1.409 . S
C3047 C3046 1.362 . S
H3048 C3054 0.930 . S
H3049 C3057 0.930 . S
H3050 C3058 0.930 . S
H3051 C3059 0.930 . S
H3052 C3062 0.930 . S
H3053 C3063 0.930 . S
C3054 H3048 0.930 . S
C3054 C3055 1.355 . S
C3054 C3056 1.415 . S
C3055 C3054 1.355 . S
C3055 C3057 1.419 . S
C3056 C3054 1.415 . S
C3056 C3061 1.425 . S
C3056 C3063 1.409 . S
C3057 H3049 0.930 . S
C3057 C3055 1.419 . S
C3057 C3058 1.362 . S
C3058 H3050 0.930 . S
C3058 C3057 1.362 . S
C3058 C3061 1.409 . S
C3059 H3051 0.930 . S
C3059 C3060 1.355 . S
C3059 C3061 1.415 . S
C3060 C3059 1.355 . S
C3060 C3062 1.419 . S
C3061 C3056 1.425 . S
C3061 C3058 1.409 . S
C3061 C3059 1.415 . S
C3062 H3052 0.930 . S
C3062 C3060 1.419 . S
C3062 C3063 1.362 . S
C3063 H3053 0.930 . S
C3063 C3056 1.409 . S
C3063 C3062 1.362 . S
H3064 C3070 0.930 . S
H3065 C3073 0.930 . S
H3066 C3074 0.930 . S
H3067 C3075 0.930 . S
H3068 C3078 0.930 . S
H3069 C3079 0.930 . S
C3070 H3064 0.930 . S
C3070 C3071 1.355 . S
C3070 C3072 1.415 . S
C3071 C3070 1.355 . S
C3071 C3073 1.419 . S
C3072 C3070 1.415 . S
C3072 C3077 1.425 . S
C3072 C3079 1.409 . S
C3073 H3065 0.930 . S
C3073 C3071 1.419 . S
C3073 C3074 1.362 . S
C3074 H3066 0.930 . S
C3074 C3073 1.362 . S
C3074 C3077 1.409 . S
C3075 H3067 0.930 . S
C3075 C3076 1.355 . S
C3075 C3077 1.415 . S
C3076 C3075 1.355 . S
C3076 C3078 1.419 . S
C3077 C3072 1.425 . S
C3077 C3074 1.409 . S
C3077 C3075 1.415 . S
C3078 H3068 0.930 . S
C3078 C3076 1.419 . S
C3078 C3079 1.362 . S
C3079 H3069 0.930 . S
C3079 C3072 1.409 . S
C3079 C3078 1.362 . S
H3080 C3086 0.930 . S
H3081 C3089 0.930 . S
H3082 C3090 0.930 . S
H3083 C3091 0.930 . S
H3084 C3094 0.930 . S
H3085 C3095 0.930 . S
C3086 H3080 0.930 . S
C3086 C3087 1.355 . S
C3086 C3088 1.415 . S
C3087 C3086 1.355 . S
C3087 C3089 1.419 . S
C3088 C3086 1.415 . S
C3088 C3093 1.425 . S
C3088 C3095 1.409 . S
C3089 H3081 0.930 . S
C3089 C3087 1.419 . S
C3089 C3090 1.362 . S
C3090 H3082 0.930 . S
C3090 C3089 1.362 . S
C3090 C3093 1.409 . S
C3091 H3083 0.930 . S
C3091 C3092 1.355 . S
C3091 C3093 1.415 . S
C3092 C3091 1.355 . S
C3092 C3094 1.419 . S
C3093 C3088 1.425 . S
C3093 C3090 1.409 . S
C3093 C3091 1.415 . S
C3094 H3084 0.930 . S
C3094 C3092 1.419 . S
C3094 C3095 1.362 . S
C3095 H3085 0.930 . S
C3095 C3088 1.409 . S
C3095 C3094 1.362 . S
H3096 C3102 0.930 . S
H3097 C3105 0.930 . S
H3098 C3106 0.930 . S
H3099 C3107 0.930 . S
H3100 C3110 0.930 . S
H3101 C3111 0.930 . S
C3102 H3096 0.930 . S
C3102 C3103 1.355 . S
C3102 C3104 1.415 . S
C3103 C3102 1.355 . S
C3103 C3105 1.419 . S
C3104 C3102 1.415 . S
C3104 C3109 1.425 . S
C3104 C3111 1.409 . S
C3105 H3097 0.930 . S
C3105 C3103 1.419 . S
C3105 C3106 1.362 . S
C3106 H3098 0.930 . S
C3106 C3105 1.362 . S
C3106 C3109 1.409 . S
C3107 H3099 0.930 . S
C3107 C3108 1.355 . S
C3107 C3109 1.415 . S
C3108 C3107 1.355 . S
C3108 C3110 1.419 . S
C3109 C3104 1.425 . S
C3109 C3106 1.409 . S
C3109 C3107 1.415 . S
C3110 H3100 0.930 . S
C3110 C3108 1.419 . S
C3110 C3111 1.362 . S
C3111 H3101 0.930 . S
C3111 C3104 1.409 . S
C3111 C3110 1.362 . S
H3112 C3118 0.930 . S
H3113 C3121 0.930 . S
H3114 C3122 0.930 . S
H3115 C3123 0.930 . S
H3116 C3126 0.930 . S
H3117 C3127 0.930 . S
C3118 H3112 0.930 . S
C3118 C3119 1.355 . S
C3118 C3120 1.415 . S
C3119 C3118 1.355 . S
C3119 C3121 1.419 . S
C3120 C3118 1.415 . S
C3120 C3125 1.425 . S
C3120 C3127 1.409 . S
C3121 H3113 0.930 . S
C3121 C3119 1.419 . S
C3121 C3122 1.362 . S
C3122 H3114 0.930 . S
C3122 C3121 1.362 . S
C3122 C3125 1.409 . S
C3123 H3115 0.930 . S
C3123 C3124 1.355 . S
C3123 C3125 1.415 . S
C3124 C3123 1.355 . S
C3124 C3126 1.419 . S
C3125 C3120 1.425 . S
C3125 C3122 1.409 . S
C3125 C3123 1.415 . S
C3126 H3116 0.930 . S
C3126 C3124 1.419 . S
C3126 C3127 1.362 . S
C3127 H3117 0.930 . S
C3127 C3120 1.409 . S
C3127 C3126 1.362 . S
H3128 C3134 0.930 . S
H3129 C3137 0.930 . S
H3130 C3138 0.930 . S
H3131 C3139 0.930 . S
H3132 C3142 0.930 . S
H3133 C3143 0.930 . S
C3134 H3128 0.930 . S
C3134 C3135 1.355 . S
C3134 C3136 1.415 . S
C3135 C3134 1.355 . S
C3135 C3137 1.419 . S
C3136 C3134 1.415 . S
C3136 C3141 1.425 . S
C3136 C3143 1.409 . S
C3137 H3129 0.930 . S
C3137 C3135 1.419 . S
C3137 C3138 1.362 . S
C3138 H3130 0.930 . S
C3138 C3137 1.362 . S
C3138 C3141 1.409 . S
C3139 H3131 0.930 . S
C3139 C3140 1.355 . S
C3139 C3141 1.415 . S
C3140 C3139 1.355 . S
C3140 C3142 1.419 . S
C3141 C3136 1.425 . S
C3141 C3138 1.409 . S
C3141 C3139 1.415 . S
C3142 H3132 0.930 . S
C3142 C3140 1.419 . S
C3142 C3143 1.362 . S
C3143 H3133 0.930 . S
C3143 C3136 1.409 . S
C3143 C3142 1.362 . S
H3144 C3150 0.930 . S
H3145 C3153 0.930 . S
H3146 C3154 0.930 . S
H3147 C3155 0.930 . S
H3148 C3158 0.930 . S
H3149 C3159 0.930 . S
C3150 H3144 0.930 . S
C3150 C3151 1.355 . S
C3150 C3152 1.415 . S
C3151 C3150 1.355 . S
C3151 C3153 1.419 . S
C3152 C3150 1.415 . S
C3152 C3157 1.425 . S
C3152 C3159 1.409 . S
C3153 H3145 0.930 . S
C3153 C3151 1.419 . S
C3153 C3154 1.362 . S
C3154 H3146 0.930 . S
C3154 C3153 1.362 . S
C3154 C3157 1.409 . S
C3155 H3147 0.930 . S
C3155 C3156 1.355 . S
C3155 C3157 1.415 . S
C3156 C3155 1.355 . S
C3156 C3158 1.419 . S
C3157 C3152 1.425 . S
C3157 C3154 1.409 . S
C3157 C3155 1.415 . S
C3158 H3148 0.930 . S
C3158 C3156 1.419 . S
C3158 C3159 1.362 . S
C3159 H3149 0.930 . S
C3159 C3152 1.409 . S
C3159 C3158 1.362 . S
H3160 C3166 0.930 . S
H3161 C3169 0.930 . S
H3162 C3170 0.930 . S
H3163 C3171 0.930 . S
H3164 C3174 0.930 . S
H3165 C3175 0.930 . S
C3166 H3160 0.930 . S
C3166 C3167 1.355 . S
C3166 C3168 1.415 . S
C3167 C3166 1.355 . S
C3167 C3169 1.419 . S
C3168 C3166 1.415 . S
C3168 C3173 1.425 . S
C3168 C3175 1.409 . S
C3169 H3161 0.930 . S
C3169 C3167 1.419 . S
C3169 C3170 1.362 . S
C3170 H3162 0.930 . S
C3170 C3169 1.362 . S
C3170 C3173 1.409 . S
C3171 H3163 0.930 . S
C3171 C3172 1.355 . S
C3171 C3173 1.415 . S
C3172 C3171 1.355 . S
C3172 C3174 1.419 . S
C3173 C3168 1.425 . S
C3173 C3170 1.409 . S
C3173 C3171 1.415 . S
C3174 H3164 0.930 . S
C3174 C3172 1.419 . S
C3174 C3175 1.362 . S
C3175 H3165 0.930 . S
C3175 C3168 1.409 . S
C3175 C3174 1.362 . S
H3176 C3182 0.930 . S
H3177 C3185 0.930 . S
H3178 C3186 0.930 . S
H3179 C3187 0.930 . S
H3180 C3190 0.930 . S
H3181 C3191 0.930 . S
C3182 H3176 0.930 . S
C3182 C3183 1.355 . S
C3182 C3184 1.415 . S
C3183 C3182 1.355 . S
C3183 C3185 1.419 . S
C3184 C3182 1.415 . S
C3184 C3189 1.425 . S
C3184 C3191 1.409 . S
C3185 H3177 0.930 . S
C3185 C3183 1.419 . S
C3185 C3186 1.362 . S
C3186 H3178 0.930 . S
C3186 C3185 1.362 . S
C3186 C3189 1.409 . S
C3187 H3179 0.930 . S
C3187 C3188 1.355 . S
C3187 C3189 1.415 . S
C3188 C3187 1.355 . S
C3188 C3190 1.419 . S
C3189 C3184 1.425 . S
C3189 C3186 1.409 . S
C3189 C3187 1.415 . S
C3190 H3180 0.930 . S
C3190 C3188 1.419 . S
C3190 C3191 1.362 . S
C3191 H3181 0.930 . S
C3191 C3184 1.409 . S
C3191 C3190 1.362 . S
H3192 C3198 0.930 . S
H3193 C3201 0.930 . S
H3194 C3202 0.930 . S
H3195 C3203 0.930 . S
H3196 C3206 0.930 . S
H3197 C3207 0.930 . S
C3198 H3192 0.930 . S
C3198 C3199 1.355 . S
C3198 C3200 1.415 . S
C3199 C3198 1.355 . S
C3199 C3201 1.419 . S
C3200 C3198 1.415 . S
C3200 C3205 1.425 . S
C3200 C3207 1.409 . S
C3201 H3193 0.930 . S
C3201 C3199 1.419 . S
C3201 C3202 1.362 . S
C3202 H3194 0.930 . S
C3202 C3201 1.362 . S
C3202 C3205 1.409 . S
C3203 H3195 0.930 . S
C3203 C3204 1.355 . S
C3203 C3205 1.415 . S
C3204 C3203 1.355 . S
C3204 C3206 1.419 . S
C3205 C3200 1.425 . S
C3205 C3202 1.409 . S
C3205 C3203 1.415 . S
C3206 H3196 0.930 . S
C3206 C3204 1.419 . S
C3206 C3207 1.362 . S
C3207 H3197 0.930 . S
C3207 C3200 1.409 . S
C3207 C3206 1.362 . S
H3208 C3214 0.930 . S
H3209 C3217 0.930 . S
H3210 C3218 0.930 . S
H3211 C3219 0.930 . S
H3212 C3222 0.930 . S
H3213 C3223 0.930 . S
C3214 H3208 0.930 . S
C3214 C3215 1.355 . S
C3214 C3216 1.415 . S
C3215 C3214 1.355 . S
C3215 C3217 1.419 . S
C3216 C3214 1.415 . S
C3216 C3221 1.425 . S
C3216 C3223 1.409 . S
C3217 H3209 0.930 . S
C3217 C3215 1.419 . S
C3217 C3218 1.362 . S
C3218 H3210 0.930 . S
C3218 C3217 1.362 . S
C3218 C3221 1.409 . S
C3219 H3211 0.930 . S
C3219 C3220 1.355 . S
C3219 C3221 1.415 . S
C3220 C3219 1.355 . S
C3220 C3222 1.419 . S
C3221 C3216 1.425 . S
C3221 C3218 1.409 . S
C3221 C3219 1.415 . S
C3222 H3212 0.930 . S
C3222 C3220 1.419 . S
C3222 C3223 1.362 . S
C3223 H3213 0.930 . S
C3223 C3216 1.409 . S
C3223 C3222 1.362 . S
H3224 C3230 0.930 . S
H3225 C3233 0.930 . S
H3226 C3234 0.930 . S
H3227 C3235 0.930 . S
H3228 C3238 0.930 . S
H3229 C3239 0.930 . S
C3230 H3224 0.930 . S
C3230 C3231 1.355 . S
C3230 C3232 1.415 . S
C3231 C3230 1.355 . S
C3231 C3233 1.419 . S
C3232 C3230 1.415 . S
C3232 C3237 1.425 . S
C3232 C3239 1.409 . S
C3233 H3225 0.930 . S
C3233 C3231 1.419 . S
C3233 C3234 1.362 . S
C3234 H3226 0.930 . S
C3234 C3233 1.362 . S
C3234 C3237 1.409 . S
C3235 H3227 0.930 . S
C3235 C3236 1.355 . S
C3235 C3237 1.415 . S
C3236 C3235 1.355 . S
C3236 C3238 1.419 . S
C3237 C3232 1.425 . S
C3237 C3234 1.409 . S
C3237 C3235 1.415 . S
C3238 H3228 0.930 . S
C3238 C3236 1.419 . S
C3238 C3239 1.362 . S
C3239 H3229 0.930 . S
C3239 C3232 1.409 . S
C3239 C3238 1.362 . S
H3240 C3246 0.930 . S
H3241 C3249 0.930 . S
H3242 C3250 0.930 . S
H3243 C3251 0.930 . S
H3244 C3254 0.930 . S
H3245 C3255 0.930 . S
C3246 H3240 0.930 . S
C3246 C3247 1.355 . S
C3246 C3248 1.415 . S
C3247 C3246 1.355 . S
C3247 C3249 1.419 . S
C3248 C3246 1.415 . S
C3248 C3253 1.425 . S
C3248 C3255 1.409 . S
C3249 H3241 0.930 . S
C3249 C3247 1.419 . S
C3249 C3250 1.362 . S
C3250 H3242 0.930 . S
C3250 C3249 1.362 . S
C3250 C3253 1.409 . S
C3251 H3243 0.930 . S
C3251 C3252 1.355 . S
C3251 C3253 1.415 . S
C3252 C3251 1.355 . S
C3252 C3254 1.419 . S
C3253 C3248 1.425 . S
C3253 C3250 1.409 . S
C3253 C3251 1.415 . S
C3254 H3244 0.930 . S
C3254 C3252 1.419 . S
C3254 C3255 1.362 . S
C3255 H3245 0.930 . S
C3255 C3248 1.409 . S
C3255 C3254 1.362 . S
H3256 C3262 0.930 . S
H3257 C3265 0.930 . S
H3258 C3266 0.930 . S
H3259 C3267 0.930 . S
H3260 C3270 0.930 . S
H3261 C3271 0.930 . S
C3262 H3256 0.930 . S
C3262 C3263 1.355 . S
C3262 C3264 1.415 . S
C3263 C3262 1.355 . S
C3263 C3265 1.419 . S
C3264 C3262 1.415 . S
C3264 C3269 1.425 . S
C3264 C3271 1.409 . S
C3265 H3257 0.930 . S
C3265 C3263 1.419 . S
C3265 C3266 1.362 . S
C3266 H3258 0.930 . S
C3266 C3265 1.362 . S
C3266 C3269 1.409 . S
C3267 H3259 0.930 . S
C3267 C3268 1.355 . S
C3267 C3269 1.415 . S
C3268 C3267 1.355 . S
C3268 C3270 1.419 . S
C3269 C3264 1.425 . S
C3269 C3266 1.409 . S
C3269 C3267 1.415 . S
C3270 H3260 0.930 . S
C3270 C3268 1.419 . S
C3270 C3271 1.362 . S
C3271 H3261 0.930 . S
C3271 C3264 1.409 . S
C3271 C3270 1.362 . S
H3272 C3278 0.930 . S
H3273 C3281 0.930 . S
H3274 C3282 0.930 . S
H3275 C3283 0.930 . S
H3276 C3286 0.930 . S
H3277 C3287 0.930 . S
C3278 H3272 0.930 . S
C3278 C3279 1.355 . S
C3278 C3280 1.415 . S
C3279 C3278 1.355 . S
C3279 C3281 1.419 . S
C3280 C3278 1.415 . S
C3280 C3285 1.425 . S
C3280 C3287 1.409 . S
C3281 H3273 0.930 . S
C3281 C3279 1.419 . S
C3281 C3282 1.362 . S
C3282 H3274 0.930 . S
C3282 C3281 1.362 . S
C3282 C3285 1.409 . S
C3283 H3275 0.930 . S
C3283 C3284 1.355 . S
C3283 C3285 1.415 . S
C3284 C3283 1.355 . S
C3284 C3286 1.419 . S
C3285 C3280 1.425 . S
C3285 C3282 1.409 . S
C3285 C3283 1.415 . S
C3286 H3276 0.930 . S
C3286 C3284 1.419 . S
C3286 C3287 1.362 . S
C3287 H3277 0.930 . S
C3287 C3280 1.409 . S
C3287 C3286 1.362 . S
H3288 C3294 0.930 . S
H3289 C3297 0.930 . S
H3290 C3298 0.930 . S
H3291 C3299 0.930 . S
H3292 C3302 0.930 . S
H3293 C3303 0.930 . S
C3294 H3288 0.930 . S
C3294 C3295 1.355 . S
C3294 C3296 1.415 . S
C3295 C3294 1.355 . S
C3295 C3297 1.419 . S
C3296 C3294 1.415 . S
C3296 C3301 1.425 . S
C3296 C3303 1.409 . S
C3297 H3289 0.930 . S
C3297 C3295 1.419 . S
C3297 C3298 1.362 . S
C3298 H3290 0.930 . S
C3298 C3297 1.362 . S
C3298 C3301 1.409 . S
C3299 H3291 0.930 . S
C3299 C3300 1.355 . S
C3299 C3301 1.415 . S
C3300 C3299 1.355 . S
C3300 C3302 1.419 . S
C3301 C3296 1.425 . S
C3301 C3298 1.409 . S
C3301 C3299 1.415 . S
C3302 H3292 0.930 . S
C3302 C3300 1.419 . S
C3302 C3303 1.362 . S
C3303 H3293 0.930 . S
C3303 C3296 1.409 . S
C3303 C3302 1.362 . S
H3304 C3310 0.930 . S
H3305 C3313 0.930 . S
H3306 C3314 0.930 . S
H3307 C3315 0.930 . S
H3308 C3318 0.930 . S
H3309 C3319 0.930 . S
C3310 H3304 0.930 . S
C3310 C3311 1.355 . S
C3310 C3312 1.415 . S
C3311 C3310 1.355 . S
C3311 C3313 1.419 . S
C3312 C3310 1.415 . S
C3312 C3317 1.425 . S
C3312 C3319 1.409 . S
C3313 H3305 0.930 . S
C3313 C3311 1.419 . S
C3313 C3314 1.362 . S
C3314 H3306 0.930 . S
C3314 C3313 1.362 . S
C3314 C3317 1.409 . S
C3315 H3307 0.930 . S
C3315 C3316 1.355 . S
C3315 C3317 1.415 . S
C3316 C3315 1.355 . S
C3316 C3318 1.419 . S
C3317 C3312 1.425 . S
C3317 C3314 1.409 . S
C3317 C3315 1.415 . S
C3318 H3308 0.930 . S
C3318 C3316 1.419 . S
C3318 C3319 1.362 . S
C3319 H3309 0.930 . S
C3319 C3312 1.409 . S
C3319 C3318 1.362 . S
C1796 C1299 1.492 . S
C1791 C21 1.538 . S
C1812 C1310 1.410 . S
C1807 C42 1.529 . S
C1823 C82 1.525 . S
C1828 C1334 1.462 . S
C1844 C1355 1.368 . S
C1839 C135 1.538 . S
C1855 C175 1.499 . S
C1860 C1362 1.390 . S
C1871 C221 1.551 . S
C1876 C1292 1.481 . S
C1887 C255 1.548 . S
C1892 C1318 1.456 . S
C1908 C1341 1.527 . S
C1903 C301 1.581 . S
C1924 C1373 1.483 . S
C1919 C15 1.551 . S
C1935 C55 1.522 . S
C1940 C1394 1.446 . S
C1951 C101 1.562 . S
C1956 C1418 1.491 . S
C1972 C1436 1.481 . S
C1967 C141 1.545 . S
C1983 C162 1.494 . S
C1988 C1465 1.435 . S
C2004 C1486 1.430 . S
C1999 C215 1.556 . S
C2015 C261 1.566 . S
C2020 C1502 1.476 . S
C2036 C1523 1.440 . S
C2031 C282 1.546 . S
C2047 C2 1.535 . S
C2052 C1444 1.422 . S
C2063 C181 1.503 . S
C2068 C1478 1.450 . S
C2084 C1509 1.450 . S
C2079 C202 1.519 . S
C2095 C242 1.566 . S
C2100 C1530 1.467 . S
C2116 C1457 1.463 . S
C2111 C295 1.546 . S
C2132 C1402 1.425 . S
C2127 C95 1.565 . S
C2143 C122 1.546 . S
C2148 C1425 1.477 . S
C2164 C1381 1.356 . S
C2159 C61 1.533 . S
C2180 C1549 1.409 . S
C2175 C341 1.530 . S
C2191 C362 1.530 . S
C2196 C1565 1.419 . S
C2207 C402 1.508 . S
C2212 C1583 1.429 . S
C2228 C1604 1.494 . S
C2223 C455 1.561 . S
C2239 C495 1.489 . S
C2244 C1612 1.369 . S
C2255 C541 1.519 . S
C2260 C1541 1.424 . S
C2271 C575 1.521 . S
C2276 C1572 1.424 . S
C2287 C621 1.583 . S
C2292 C1591 1.460 . S
C2308 C1467 1.431 . S
C2303 C335 1.524 . S
C2319 C375 1.521 . S
C2324 C1625 1.442 . S
C2340 C1499 1.479 . S
C2335 C421 1.535 . S
C2351 C461 1.554 . S
C2356 C1654 1.369 . S
C2367 C482 1.510 . S
C2372 C1376 1.375 . S
C2388 C1670 1.479 . S
C2383 C535 1.567 . S
C2399 C581 1.554 . S
C2404 C1415 1.436 . S
C2420 C1698 1.413 . S
C2415 C602 1.559 . S
C2431 C322 1.497 . S
C2436 C1646 1.399 . S
C2452 C1677 1.446 . S
C2447 C501 1.502 . S
C2463 C522 1.575 . S
C2468 C1423 1.483 . S
C2484 C1691 1.442 . S
C2479 C562 1.561 . S
C2495 C615 1.543 . S
C2500 C1383 1.465 . S
C2511 C415 1.543 . S
C2516 C1633 1.420 . S
C2527 C442 1.569 . S
C2532 C1507 1.432 . S
C2543 C381 1.537 . S
C2548 C1460 1.328 . S
C2559 C661 1.559 . S
C2564 C1586 1.446 . S
C2580 C1607 1.439 . S
C2575 C682 1.525 . S
C2591 C722 1.497 . S
C2596 C1551 1.419 . S
C2607 C775 1.546 . S
C2612 C1562 1.432 . S
C2623 C815 1.483 . S
C2628 C1570 1.322 . S
C2639 C861 1.523 . S
C2644 C1593 1.447 . S
C2660 C1614 1.389 . S
C2655 C895 1.519 . S
C2671 C941 1.590 . S
C2676 C1544 1.481 . S
C2692 C1709 1.428 . S
C2687 C655 1.546 . S
C2703 C695 1.497 . S
C2708 C1488 1.394 . S
C2724 C1730 1.491 . S
C2719 C741 1.563 . S
C2735 C781 1.554 . S
C2740 C1520 1.398 . S
C2751 C802 1.488 . S
C2756 C1754 1.422 . S
C2767 C855 1.538 . S
C2772 C1397 1.392 . S
C2788 C1775 1.429 . S
C2783 C901 1.553 . S
C2799 C922 1.565 . S
C2804 C1439 1.431 . S
C2820 C1528 1.446 . S
C2815 C642 1.548 . S
C2836 C1404 1.367 . S
C2831 C821 1.444 . S
C2847 C842 1.561 . S
C2852 C1782 1.513 . S
C2863 C882 1.559 . S
C2868 C1446 1.429 . S
C2884 C1761 1.390 . S
C2879 C935 1.525 . S
C2900 C1481 1.371 . S
C2895 C735 1.542 . S
C2916 C1738 1.474 . S
C2911 C762 1.553 . S
C2932 C1717 1.419 . S
C2927 C701 1.538 . S
C2943 C981 1.566 . S
C2948 C1331 1.511 . S
C2959 C1002 1.526 . S
C2964 C1352 1.379 . S
C2980 C1297 1.471 . S
C2975 C1042 1.554 . S
C2996 C1313 1.412 . S
C2991 C1095 1.557 . S
C3012 C1320 1.428 . S
C3007 C1135 1.512 . S
C3028 C1339 1.487 . S
C3023 C1181 1.551 . S
C3044 C1360 1.360 . S
C3039 C1215 1.532 . S
C3055 C1261 1.576 . S
C3060 C1289 1.507 . S
C3071 C975 1.550 . S
C3076 C1751 1.481 . S
C3092 C1667 1.442 . S
C3087 C1015 1.518 . S
C3108 C1772 1.425 . S
C3103 C1061 1.520 . S
C3124 C1696 1.439 . S
C3119 C1101 1.552 . S
C3135 C1122 1.464 . S
C3140 C1712 1.337 . S
C3156 C1628 1.458 . S
C3151 C1175 1.564 . S
C3172 C1733 1.388 . S
C3167 C1221 1.562 . S
C3183 C1242 1.559 . S
C3188 C1656 1.417 . S
C3204 C1688 1.435 . S
C3199 C962 1.518 . S
C3220 C1635 1.396 . S
C3215 C1141 1.448 . S
C3236 C1740 1.445 . S
C3231 C1162 1.518 . S
C3247 C1202 1.565 . S
C3252 C1649 1.474 . S
C3263 C1255 1.526 . S
C3268 C1719 1.437 . S
C3279 C1055 1.571 . S
C3284 C1675 1.469 . S
C3295 C1082 1.558 . S
C3300 C1780 1.475 . S
C3316 C1759 1.342 . S
C3311 C1021 1.530 . S
