# Generated by pormake.
# Topology pyr, (3,6)-cn, num edge types: 1
# Building blocks:
#     Node 0, Type 0, BuildingBlock: MIDCAF_clean_linker_0, # of connection points: 3
#     Node 1, Type 0, BuildingBlock: MIDCAF_clean_linker_0, # of connection points: 3
#     Node 2, Type 0, BuildingBlock: MIDCAF_clean_linker_0, # of connection points: 3
#     Node 3, Type 0, BuildingBlock: MIDCAF_clean_linker_0, # of connection points: 3
#     Node 4, Type 0, BuildingBlock: MIDCAF_clean_linker_0, # of connection points: 3
#     Node 5, Type 0, BuildingBlock: MIDCAF_clean_linker_0, # of connection points: 3
#     Node 6, Type 0, BuildingBlock: MIDCAF_clean_linker_0, # of connection points: 3
#     Node 7, Type 0, BuildingBlock: MIDCAF_clean_linker_0, # of connection points: 3
#     Node 8, Type 1, BuildingBlock: BETDAH_clean_sbu_0, # of connection points: 6
#     Node 9, Type 1, BuildingBlock: BETDAH_clean_sbu_0, # of connection points: 6
#     Node 10, Type 1, BuildingBlock: BETDAH_clean_sbu_0, # of connection points: 6
#     Node 11, Type 1, BuildingBlock: BETDAH_clean_sbu_0, # of connection points: 6
#     Edge 12, Type (0, 1), BuildingBlock: UVAHIK_clean_linker_0, # of connection points: 2
#     Edge 13, Type (0, 1), BuildingBlock: UVAHIK_clean_linker_0, # of connection points: 2
#     Edge 14, Type (0, 1), BuildingBlock: UVAHIK_clean_linker_0, # of connection points: 2
#     Edge 15, Type (0, 1), BuildingBlock: UVAHIK_clean_linker_0, # of connection points: 2
#     Edge 16, Type (0, 1), BuildingBlock: UVAHIK_clean_linker_0, # of connection points: 2
#     Edge 17, Type (0, 1), BuildingBlock: UVAHIK_clean_linker_0, # of connection points: 2
#     Edge 18, Type (0, 1), BuildingBlock: UVAHIK_clean_linker_0, # of connection points: 2
#     Edge 19, Type (0, 1), BuildingBlock: UVAHIK_clean_linker_0, # of connection points: 2
#     Edge 20, Type (0, 1), BuildingBlock: UVAHIK_clean_linker_0, # of connection points: 2
#     Edge 21, Type (0, 1), BuildingBlock: UVAHIK_clean_linker_0, # of connection points: 2
#     Edge 22, Type (0, 1), BuildingBlock: UVAHIK_clean_linker_0, # of connection points: 2
#     Edge 23, Type (0, 1), BuildingBlock: UVAHIK_clean_linker_0, # of connection points: 2
#     Edge 24, Type (0, 1), BuildingBlock: UVAHIK_clean_linker_0, # of connection points: 2
#     Edge 25, Type (0, 1), BuildingBlock: UVAHIK_clean_linker_0, # of connection points: 2
#     Edge 26, Type (0, 1), BuildingBlock: UVAHIK_clean_linker_0, # of connection points: 2
#     Edge 27, Type (0, 1), BuildingBlock: UVAHIK_clean_linker_0, # of connection points: 2
#     Edge 28, Type (0, 1), BuildingBlock: UVAHIK_clean_linker_0, # of connection points: 2
#     Edge 29, Type (0, 1), BuildingBlock: UVAHIK_clean_linker_0, # of connection points: 2
#     Edge 30, Type (0, 1), BuildingBlock: UVAHIK_clean_linker_0, # of connection points: 2
#     Edge 31, Type (0, 1), BuildingBlock: UVAHIK_clean_linker_0, # of connection points: 2
#     Edge 32, Type (0, 1), BuildingBlock: UVAHIK_clean_linker_0, # of connection points: 2
#     Edge 33, Type (0, 1), BuildingBlock: UVAHIK_clean_linker_0, # of connection points: 2
#     Edge 34, Type (0, 1), BuildingBlock: UVAHIK_clean_linker_0, # of connection points: 2
#     Edge 35, Type (0, 1), BuildingBlock: UVAHIK_clean_linker_0, # of connection points: 2
# Relax obj value: 0.074
# Max RMSD: 0.120
# Mean RMSD: 0.055
data_MOF--net-pyr--node1-BETDAH_clean_sbu_0--node2-MIDCAF_clean_linker_0--edge1-UVAHIK_clean_linker_0
_symmetry_space_group_name_H-M    P1
_symmetry_Int_Tables_number       1
_symmetry_cell_setting            triclinic
loop_
_symmetry_equiv_pos_as_xyz
'x, y, z'
_cell_length_a     57.291323
_cell_length_b     60.550273
_cell_length_c     55.019606
_cell_angle_alpha  91.250231
_cell_angle_beta   89.010183
_cell_angle_gamma 99.065918
loop_
_atom_site_label
_atom_site_type_symbol
_atom_site_fract_x
_atom_site_fract_y
_atom_site_fract_z
_atom_type_partial_charge
C0 C 0.2568 0.25336 0.29401 0.0
C1 C 0.25846 0.23228 0.30323 0.0
C2 C 0.27529 0.21997 0.2934 0.0
C3 C 0.28935 0.22809 0.27366 0.0
H4 H 0.3464 0.21851 0.22822 0.0
H5 H 0.37059 0.19363 0.20827 0.0
H6 H 0.35952 0.2221 0.13893 0.0
H7 H 0.33518 0.24703 0.15877 0.0
H8 H 0.30831 0.2899 0.15809 0.0
H9 H 0.2893 0.31629 0.1356 0.0
H10 H 0.25056 0.3309 0.20054 0.0
H11 H 0.26987 0.30527 0.2231 0.0
H12 H 0.26838 0.27741 0.26703 0.0
H13 H 0.24415 0.26328 0.30158 0.0
H14 H 0.27672 0.20356 0.30012 0.0
H15 H 0.30144 0.21779 0.26573 0.0
N16 N 0.31399 0.24359 0.22956 0.0
N17 N 0.31559 0.26577 0.19492 0.0
N18 N 0.29155 0.27256 0.22817 0.0
C19 C 0.32281 0.2487 0.20696 0.0
C20 C 0.30004 0.27788 0.20561 0.0
C21 C 0.29839 0.25553 0.24026 0.0
C22 C 0.33881 0.23474 0.19507 0.0
C23 C 0.34923 0.21962 0.20874 0.0
C24 C 0.36321 0.20544 0.19737 0.0
C25 C 0.36688 0.20595 0.17208 0.0
C26 C 0.3568 0.22128 0.15845 0.0
C27 C 0.343 0.23563 0.16984 0.0
C28 C 0.29057 0.29537 0.19235 0.0
C29 C 0.29605 0.29904 0.16765 0.0
C30 C 0.28506 0.31403 0.15473 0.0
C31 C 0.26842 0.32562 0.16629 0.0
C32 C 0.26358 0.32251 0.19118 0.0
C33 C 0.27455 0.30761 0.20407 0.0
C34 C 0.28667 0.24859 0.26346 0.0
C35 C 0.27075 0.26144 0.27429 0.0
C36 C 0.22289 0.88047 0.62289 0.0
C37 C 0.21174 0.87717 0.60025 0.0
C38 C 0.22286 0.86675 0.58118 0.0
C39 C 0.24471 0.86001 0.58456 0.0
H40 H 0.29643 0.82492 0.55177 0.0
H41 H 0.31009 0.79561 0.52623 0.0
H42 H 0.35469 0.78089 0.58416 0.0
H43 H 0.34162 0.81033 0.60954 0.0
H44 H 0.35614 0.85059 0.64847 0.0
H45 H 0.38173 0.87005 0.67974 0.0
H46 H 0.33548 0.9197 0.68762 0.0
H47 H 0.31001 0.90059 0.65632 0.0
H48 H 0.25319 0.87703 0.64373 0.0
H49 H 0.21467 0.88815 0.63806 0.0
H50 H 0.21509 0.8644 0.56333 0.0
H51 H 0.25298 0.85239 0.56939 0.0
N52 N 0.28768 0.84246 0.59513 0.0
N53 N 0.3233 0.84693 0.61634 0.0
N54 N 0.2938 0.86786 0.62799 0.0
C55 C 0.30944 0.83688 0.59829 0.0
C56 C 0.31564 0.86256 0.6311 0.0
C57 C 0.27971 0.85783 0.61012 0.0
C58 C 0.3179 0.81976 0.58262 0.0
C59 C 0.30918 0.81544 0.55899 0.0
C60 C 0.317 0.79885 0.54438 0.0
C61 C 0.33322 0.78617 0.55348 0.0
C62 C 0.34207 0.79055 0.57697 0.0
C63 C 0.33464 0.80738 0.59137 0.0
C64 C 0.33106 0.87406 0.65 0.0
C65 C 0.35149 0.86572 0.65679 0.0
C66 C 0.36608 0.87675 0.67466 0.0
C67 C 0.36054 0.89635 0.68579 0.0
C68 C 0.34024 0.90476 0.67895 0.0
C69 C 0.32557 0.89368 0.66124 0.0
C70 C 0.25608 0.86387 0.60696 0.0
C71 C 0.24492 0.87404 0.62615 0.0
C72 C 0.64478 0.26969 0.8928 0.0
C73 C 0.6218 0.25909 0.88711 0.0
C74 C 0.60908 0.26948 0.87009 0.0
C75 C 0.61897 0.28981 0.85935 0.0
H76 H 0.61658 0.33359 0.79671 0.0
H77 H 0.60018 0.35117 0.7626 0.0
H78 H 0.64929 0.41179 0.77595 0.0
H79 H 0.66538 0.39449 0.80995 0.0
H80 H 0.71132 0.39281 0.84235 0.0
H81 H 0.74792 0.41134 0.86052 0.0
H82 H 0.74213 0.36016 0.91479 0.0
H83 H 0.70615 0.34128 0.89614 0.0
H84 H 0.6722 0.29745 0.88753 0.0
H85 H 0.65561 0.26221 0.90519 0.0
H86 H 0.59124 0.26219 0.86529 0.0
H87 H 0.60857 0.29731 0.84653 0.0
N88 N 0.64264 0.3318 0.83615 0.0
N89 N 0.67325 0.36273 0.83747 0.0
N90 N 0.67278 0.33368 0.86491 0.0
C91 C 0.65294 0.35199 0.82717 0.0
C92 C 0.68332 0.35372 0.85634 0.0
C93 C 0.65254 0.32253 0.85512 0.0
C94 C 0.6424 0.3625 0.80632 0.0
C95 C 0.62384 0.3507 0.79244 0.0
C96 C 0.61451 0.36077 0.7727 0.0
C97 C 0.62328 0.38304 0.76634 0.0
C98 C 0.64174 0.39479 0.78032 0.0
C99 C 0.65115 0.38471 0.79986 0.0
C100 C 0.70561 0.36544 0.86763 0.0
C101 C 0.71785 0.38546 0.85814 0.0
C102 C 0.73887 0.39622 0.86874 0.0
C103 C 0.74828 0.38738 0.88926 0.0
C104 C 0.7359 0.3674 0.89879 0.0
C105 C 0.715 0.35659 0.88812 0.0
C106 C 0.64179 0.30049 0.86551 0.0
C107 C 0.65449 0.29002 0.88236 0.0
C108 C 0.77526 0.65898 0.39765 0.0
C109 C 0.76535 0.63704 0.39081 0.0
C110 C 0.7768 0.62598 0.37247 0.0
C111 C 0.79759 0.63659 0.36125 0.0
H112 H 0.84039 0.63433 0.29952 0.0
H113 H 0.85711 0.61666 0.26483 0.0
H114 H 0.92122 0.6647 0.27049 0.0
H115 H 0.90396 0.68299 0.30476 0.0
H116 H 0.89975 0.72943 0.33885 0.0
H117 H 0.91732 0.76538 0.35684 0.0
H118 H 0.86401 0.7577 0.4138 0.0
H119 H 0.84682 0.72188 0.39633 0.0
H120 H 0.80313 0.68643 0.3924 0.0
H121 H 0.76714 0.66792 0.41191 0.0
H122 H 0.76954 0.60917 0.36655 0.0
H123 H 0.80589 0.62753 0.34724 0.0
N124 N 0.83975 0.66044 0.33708 0.0
N125 N 0.87067 0.69101 0.33595 0.0
N126 N 0.84049 0.68986 0.3655 0.0
C127 C 0.86018 0.67086 0.32659 0.0
C128 C 0.86084 0.70061 0.35547 0.0
C129 C 0.82979 0.66984 0.35655 0.0
C130 C 0.87076 0.66016 0.30516 0.0
C131 C 0.85806 0.64121 0.29342 0.0
C132 C 0.86782 0.63089 0.27348 0.0
C133 C 0.89075 0.63897 0.26464 0.0
C134 C 0.90343 0.65802 0.27635 0.0
C135 C 0.89355 0.6685 0.29622 0.0
C136 C 0.87187 0.72259 0.36608 0.0
C137 C 0.89183 0.73537 0.35525 0.0
C138 C 0.90182 0.75607 0.36549 0.0
C139 C 0.89216 0.76444 0.38685 0.0
C140 C 0.87219 0.75167 0.39759 0.0
C141 C 0.86221 0.73109 0.38738 0.0
C142 C 0.80754 0.65851 0.36816 0.0
C143 C 0.79607 0.66955 0.38652 0.0
C144 C 0.66425 0.8317 0.84577 0.0
C145 C 0.66276 0.8318 0.87125 0.0
C146 C 0.67422 0.81692 0.88413 0.0
C147 C 0.68722 0.80242 0.87174 0.0
H148 H 0.73426 0.75473 0.88032 0.0
H149 H 0.75751 0.72903 0.89848 0.0
H150 H 0.76783 0.6997 0.82751 0.0
H151 H 0.74536 0.72571 0.8094 0.0
H152 H 0.76624 0.77197 0.77602 0.0
H153 H 0.78647 0.78902 0.74075 0.0
H154 H 0.72899 0.82617 0.72965 0.0
H155 H 0.70928 0.80998 0.76614 0.0
H156 H 0.67846 0.81805 0.81375 0.0
H157 H 0.65582 0.84316 0.83538 0.0
H158 H 0.6732 0.81657 0.9038 0.0
H159 H 0.69619 0.7914 0.88216 0.0
N160 N 0.71283 0.77188 0.84414 0.0
N161 N 0.73421 0.76533 0.80872 0.0
N162 N 0.71134 0.79401 0.80985 0.0
C163 C 0.72752 0.75987 0.83179 0.0
C164 C 0.72627 0.78233 0.79766 0.0
C165 C 0.70442 0.78885 0.83302 0.0
C166 C 0.73815 0.74231 0.84348 0.0
C167 C 0.74116 0.74251 0.86873 0.0
C168 C 0.75446 0.72778 0.8791 0.0
C169 C 0.76474 0.71251 0.86437 0.0
C170 C 0.76061 0.7116 0.83927 0.0
C171 C 0.74758 0.72641 0.82893 0.0
C172 C 0.73626 0.78982 0.77396 0.0
C173 C 0.75765 0.78347 0.76586 0.0
C174 C 0.76921 0.79314 0.74543 0.0
C175 C 0.75937 0.80902 0.73238 0.0
C176 C 0.73722 0.81429 0.7396 0.0
C177 C 0.72586 0.80493 0.76038 0.0
C178 C 0.68919 0.80273 0.84626 0.0
C179 C 0.67737 0.81738 0.83341 0.0
C180 C 0.70376 0.18434 0.33212 0.0
C181 C 0.68337 0.19396 0.3286 0.0
C182 C 0.67579 0.20793 0.34674 0.0
C183 C 0.68815 0.21188 0.36833 0.0
H184 H 0.70005 0.25564 0.4281 0.0
H185 H 0.68333 0.2781 0.45901 0.0
H186 H 0.71028 0.24089 0.51537 0.0
H187 H 0.72739 0.21832 0.48428 0.0
H188 H 0.78116 0.20322 0.45866 0.0
H189 H 0.81296 0.18216 0.46686 0.0
H190 H 0.79344 0.13947 0.40421 0.0
H191 H 0.76154 0.16045 0.39588 0.0
H192 H 0.73159 0.18032 0.35604 0.0
H193 H 0.70975 0.17324 0.31849 0.0
H194 H 0.66021 0.21568 0.3443 0.0
H195 H 0.68164 0.22248 0.38214 0.0
N196 N 0.71329 0.21858 0.41299 0.0
N197 N 0.74179 0.2095 0.43944 0.0
N198 N 0.73851 0.19367 0.40013 0.0
C199 C 0.72379 0.22091 0.43495 0.0
C200 C 0.74929 0.19592 0.42198 0.0
C201 C 0.72052 0.20498 0.39552 0.0
C202 C 0.71507 0.23528 0.45382 0.0
C203 C 0.70264 0.25235 0.44706 0.0
C204 C 0.69322 0.26531 0.46473 0.0
C205 C 0.69576 0.26128 0.48949 0.0
C206 C 0.70824 0.2443 0.49635 0.0
C207 C 0.71806 0.23152 0.47861 0.0
C208 C 0.76879 0.18345 0.4267 0.0
C209 C 0.78364 0.18937 0.4466 0.0
C210 C 0.80195 0.17746 0.4512 0.0
C211 C 0.80558 0.15928 0.43612 0.0
C212 C 0.79086 0.15338 0.41615 0.0
C213 C 0.77269 0.16545 0.41138 0.0
C214 C 0.70829 0.20187 0.37213 0.0
C215 C 0.71614 0.18827 0.3537 0.0
C216 C 0.28633 0.6297 0.17128 0.0
C217 C 0.27259 0.64174 0.157 0.0
C218 C 0.28045 0.66486 0.15439 0.0
C219 C 0.30136 0.6754 0.16524 0.0
H220 H 0.34968 0.73021 0.15811 0.0
H221 H 0.36701 0.76524 0.14016 0.0
H222 H 0.42907 0.76688 0.18403 0.0
H223 H 0.41185 0.73115 0.20177 0.0
H224 H 0.40969 0.69085 0.24376 0.0
H225 H 0.42599 0.67381 0.27817 0.0
H226 H 0.36683 0.61993 0.27657 0.0
H227 H 0.35034 0.63715 0.24283 0.0
H228 H 0.3171 0.63047 0.19322 0.0
H229 H 0.28142 0.61186 0.17353 0.0
H230 H 0.27037 0.67506 0.14418 0.0
H231 H 0.3067 0.69316 0.16261 0.0
N232 N 0.34791 0.6948 0.18225 0.0
N233 N 0.37843 0.69611 0.21046 0.0
N234 N 0.34756 0.66541 0.20928 0.0
C235 C 0.3684 0.70564 0.19179 0.0
C236 C 0.36804 0.67596 0.21942 0.0
C237 C 0.33736 0.67474 0.1907 0.0
C238 C 0.3793 0.72763 0.18152 0.0
C239 C 0.36705 0.7379 0.16406 0.0
C240 C 0.37695 0.75824 0.15381 0.0
C241 C 0.39946 0.76914 0.16064 0.0
C242 C 0.41179 0.75894 0.17811 0.0
C243 C 0.40183 0.73848 0.18845 0.0
C244 C 0.37857 0.66551 0.24031 0.0
C245 C 0.40012 0.67538 0.25076 0.0
C246 C 0.40959 0.66547 0.2705 0.0
C247 C 0.39781 0.64539 0.2805 0.0
C248 C 0.37635 0.63554 0.26989 0.0
C249 C 0.36691 0.64541 0.25023 0.0
C250 C 0.31495 0.66334 0.17952 0.0
C251 C 0.30704 0.64037 0.18254 0.0
C252 C 0.1477 0.28427 0.64497 0.0
C253 C 0.12778 0.27117 0.65539 0.0
C254 C 0.11811 0.27896 0.67706 0.0
C255 C 0.12804 0.29943 0.68789 0.0
H256 H 0.12073 0.34613 0.74585 0.0
H257 H 0.10305 0.36361 0.78052 0.0
H258 H 0.15618 0.4223 0.77375 0.0
H259 H 0.1736 0.40507 0.73902 0.0
H260 H 0.21744 0.40489 0.70156 0.0
H261 H 0.25374 0.42329 0.68206 0.0
H262 H 0.24953 0.36928 0.62892 0.0
H263 H 0.21317 0.35125 0.64786 0.0
H264 H 0.17297 0.31408 0.64701 0.0
H265 H 0.1559 0.27869 0.62855 0.0
H266 H 0.10264 0.26938 0.6855 0.0
H267 H 0.12011 0.30493 0.7045 0.0
N268 N 0.14911 0.34357 0.70826 0.0
N269 N 0.17991 0.37432 0.70753 0.0
N270 N 0.17923 0.3453 0.67862 0.0
C271 C 0.15949 0.36367 0.7179 0.0
C272 C 0.18991 0.36519 0.68788 0.0
C273 C 0.15894 0.33431 0.68852 0.0
C274 C 0.14866 0.37411 0.7394 0.0
C275 C 0.12867 0.36278 0.75171 0.0
C276 C 0.11858 0.37278 0.77178 0.0
C277 C 0.12806 0.39449 0.78009 0.0
C278 C 0.14808 0.40574 0.7678 0.0
C279 C 0.15822 0.39572 0.74785 0.0
C280 C 0.2122 0.37658 0.67634 0.0
C281 C 0.22422 0.39696 0.68569 0.0
C282 C 0.24516 0.40745 0.67458 0.0
C283 C 0.25462 0.39784 0.65383 0.0
C284 C 0.24263 0.37742 0.64459 0.0
C285 C 0.22176 0.36696 0.65564 0.0
C286 C 0.14795 0.31254 0.67737 0.0
C287 C 0.15762 0.3046 0.65576 0.0
Ho288 Ho 0.01487 0.02771 0.49299 0.0
Ho289 Ho 0.00754 1.00953 0.5437 0.0
C290 C 0.03329 0.05922 0.54019 0.0
C291 C 0.0176 0.05115 0.45456 0.0
C292 C 0.03687 0.06771 0.4454 0.0
C293 C 0.03247 0.08909 0.43978 0.0
C294 C 0.05105 0.10551 0.43282 0.0
C295 C 0.07422 0.10065 0.43121 0.0
C296 C 0.07853 0.07917 0.43678 0.0
C297 C 0.06006 0.06289 0.44406 0.0
C298 C 0.04957 1.00659 0.50886 0.0
C299 C 0.989 0.97801 0.49672 0.0
C300 C 1.00484 0.98544 0.58163 0.0
C301 C 0.98519 0.96871 0.58904 0.0
C302 C 0.98738 0.95463 0.60836 0.0
C303 C 0.96776 0.93972 0.61615 0.0
C304 C 0.94594 0.93905 0.60468 0.0
C305 C 0.94407 0.95266 0.58478 0.0
C306 C 0.96366 0.96735 0.5769 0.0
C307 C 0.97249 0.03016 0.52753 0.0
O308 O 0.026 0.05838 0.51737 0.0
O309 O 0.0318 0.04092 0.55308 0.0
O310 O 0.02169 0.03051 0.45453 0.0
O311 O 0.00749 0.057 0.47468 0.0
O312 O 0.04313 1.00607 0.48642 0.0
O313 O 0.03874 0.01955 0.52102 0.0
O314 O 0.9966 0.97886 0.51941 0.0
O315 O 0.99025 0.99634 0.48391 0.0
O316 O 0.99995 1.00583 0.58196 0.0
O317 O 0.01572 0.98039 0.56166 0.0
O318 O 0.97845 0.03048 0.55012 0.0
O319 O 0.98374 1.01747 0.51553 0.0
H320 H 0.01474 0.09316 0.44121 0.0
H321 H 0.04731 0.12206 0.42897 0.0
H322 H 0.09614 0.07483 0.43532 0.0
H323 H 0.06402 0.04661 0.44876 0.0
H324 H 1.00401 0.95553 0.61768 0.0
H325 H 0.96939 0.92934 0.63162 0.0
H326 H 0.9274 0.95216 0.5756 0.0
H327 H 0.96188 0.97805 0.56172 0.0
Ho328 Ho 0.53235 1.01666 0.04212 0.0
Ho329 Ho 0.4916 1.00891 1.0102 0.0
C330 C 0.48755 0.04057 0.05537 0.0
C331 C 0.56457 0.02804 0.07387 0.0
C332 C 0.57014 0.04674 0.09109 0.0
C333 C 0.57731 0.0687 0.08316 0.0
C334 C 0.5818 0.08622 0.10007 0.0
C335 C 0.57885 0.08197 0.12496 0.0
C336 C 0.57151 0.06008 0.13284 0.0
C337 C 0.56732 0.04257 0.11601 0.0
C338 C 0.50566 0.97565 0.04603 0.0
C339 C 0.54054 0.99297 0.99259 0.0
C340 C 0.45454 0.99019 0.98792 0.0
C341 C 0.44941 0.98859 0.96216 0.0
C342 C 0.42802 0.97659 0.95419 0.0
C343 C 0.42372 0.97407 0.92939 0.0
C344 C 0.44076 0.98372 0.91241 0.0
C345 C 0.46199 0.99621 0.92061 0.0
C346 C 0.46635 0.9985 0.94536 0.0
C347 C 0.51792 0.04727 0.9938 0.0
O348 O 0.51069 0.04202 0.05687 0.0
O349 O 0.47532 0.0258 0.04083 0.0
O350 O 0.54478 1.01482 0.07849 0.0
O351 O 0.56779 0.03234 0.05073 0.0
O352 O 0.52837 0.97925 0.04359 0.0
O353 O 0.49795 0.99404 0.04509 0.0
O354 O 0.51725 0.98934 0.99118 0.0
O355 O 0.55132 1.00633 1.00944 0.0
O356 O 0.45663 1.01042 0.9973 0.0
O357 O 0.47136 0.97927 0.9944 0.0
O358 O 0.49839 0.03748 0.98455 0.0
O359 O 0.52324 0.03608 1.01151 0.0
H360 H 0.57942 0.07238 0.064 0.0
H361 H 0.5875 0.10306 0.09376 0.0
H362 H 0.56952 0.05646 0.15203 0.0
H363 H 0.56177 0.02574 0.12246 0.0
H364 H 0.41492 0.96882 0.96709 0.0
H365 H 0.40737 0.96404 0.92353 0.0
H366 H 0.47528 1.004 0.90791 0.0
H367 H 0.48308 1.00768 0.95135 0.0
Ho368 Ho 0.5129 0.4958 0.50708 0.0
Ho369 Ho 0.51028 0.53402 0.53891 0.0
C370 C 0.5316 0.49505 0.56344 0.0
C371 C 0.52635 0.46209 0.48486 0.0
C372 C 0.53541 0.44275 0.49479 0.0
C373 C 0.55575 0.44579 0.50918 0.0
C374 C 0.56316 0.4276 0.52009 0.0
C375 C 0.55033 0.40599 0.51704 0.0
C376 C 0.52995 0.40295 0.50268 0.0
C377 C 0.5226 0.42118 0.49161 0.0
C378 C 0.47037 0.49408 0.52963 0.0
C379 C 0.49159 0.53459 0.48289 0.0
C380 C 0.49639 0.56753 0.56116 0.0
C381 C 0.48133 0.58322 0.55259 0.0
C382 C 0.45953 0.57532 0.5416 0.0
C383 C 0.44625 0.59027 0.5318 0.0
C384 C 0.45465 0.61332 0.53251 0.0
C385 C 0.47647 0.62121 0.54337 0.0
C386 C 0.48968 0.60626 0.55341 0.0
C387 C 0.5527 0.53561 0.51609 0.0
O388 O 0.53137 0.48643 0.54105 0.0
O389 O 0.52252 0.51344 0.5681 0.0
O390 O 0.50418 0.46312 0.48992 0.0
O391 O 0.53992 0.4815 0.48726 0.0
O392 O 0.47326 0.48864 0.50699 0.0
O393 O 0.49026 0.49999 0.53933 0.0
O394 O 0.48957 0.54167 0.5057 0.0
O395 O 0.50302 0.51772 0.47792 0.0
O396 O 0.51698 0.56885 0.5503 0.0
O397 O 0.48611 0.54686 0.56404 0.0
O398 O 0.55 0.54081 0.53884 0.0
O399 O 0.53271 0.52991 0.50655 0.0
H400 H 0.56591 0.46225 0.51225 0.0
H401 H 0.57919 0.43048 0.53063 0.0
H402 H 0.51961 0.38651 0.50011 0.0
H403 H 0.5067 0.41848 0.48086 0.0
H404 H 0.45286 0.55759 0.54021 0.0
H405 H 0.42957 0.58379 0.52333 0.0
H406 H 0.48318 0.63896 0.54437 0.0
H407 H 0.50657 0.61265 0.56151 0.0
Ho408 Ho 0.01163 0.49284 0.03581 0.0
Ho409 Ho 0.00702 0.53885 1.01336 0.0
C410 C 0.05468 0.53528 0.04229 0.0
C411 C 0.02409 0.4558 0.04908 0.0
C412 C 0.0461 0.44799 0.05534 0.0
C413 C 0.066 0.46309 0.0626 0.0
C414 C 0.08677 0.4553 0.06873 0.0
C415 C 0.08792 0.43229 0.06757 0.0
C416 C 0.06795 0.41727 0.06008 0.0
C417 C 0.04721 0.42509 0.054 0.0
C418 C 0.98628 0.51938 0.06233 0.0
C419 C 0.96639 0.49543 1.00283 0.0
C420 C 0.99307 0.57698 1.00973 0.0
C421 C 0.97646 0.58661 0.99492 0.0
C422 C 0.96619 0.60433 1.00478 0.0
C423 C 0.94814 0.61214 0.99256 0.0
C424 C 0.94013 0.60232 0.97025 0.0
C425 C 0.95092 0.58494 0.96001 0.0
C426 C 0.9689 0.57697 0.97241 0.0
C427 C 0.02615 0.51305 0.97924 0.0
O428 O 0.04744 0.51341 0.04408 0.0
O429 O 0.04165 0.54872 0.03221 0.0
O430 O 0.01674 0.47021 0.06429 0.0
O431 O 0.02219 0.461 0.02634 0.0
O432 O 0.98084 0.49776 0.06042 0.0
O433 O 1.00516 0.52559 0.05042 0.0
O434 O 0.97209 0.51757 1.00338 0.0
O435 O 0.9801 0.48223 1.01224 0.0
O436 O 0.01227 0.5722 0.99886 0.0
O437 O 0.9831 0.56132 0.02429 0.0
O438 O 0.02201 0.53321 0.97559 0.0
O439 O 0.01976 0.50825 1.00083 0.0
H440 H 0.06544 0.48083 0.0636 0.0
H441 H 0.10194 0.46729 0.0742 0.0
H442 H 0.0682 0.39942 0.05932 0.0
H443 H 0.03197 0.41324 0.0484 0.0
H444 H 0.97169 0.61173 0.02228 0.0
H445 H 0.94024 0.62571 1.00068 0.0
H446 H 0.9449 0.57705 0.94289 0.0
H447 H 0.97643 0.56296 0.9648 0.0
C448 C 0.21715 0.22354 0.31853 0.0
C449 C 0.24119 0.22232 0.32147 0.0
C450 C 0.20041 0.21291 0.33466 0.0
C451 C 0.19138 0.1664 0.37638 0.0
H452 H 0.13492 0.19146 0.3938 0.0
C453 C 0.11616 0.11927 0.43388 0.0
C454 C 0.09385 0.11769 0.42319 0.0
C455 C 0.13518 0.13414 0.42497 0.0
C456 C 0.15066 0.18437 0.3891 0.0
H457 H 0.26678 0.20951 0.34361 0.0
H458 H 0.23735 0.19097 0.37221 0.0
H459 H 0.16731 0.21434 0.37236 0.0
H460 H 0.07377 0.13068 0.39517 0.0
H461 H 0.10699 0.15703 0.37993 0.0
H462 H 0.1745 0.13631 0.39284 0.0
C463 C 0.23151 0.2 0.35727 0.0
C464 C 0.16912 0.19737 0.37684 0.0
C465 C 0.24829 0.21058 0.341 0.0
C466 C 0.09068 0.13178 0.404 0.0
C467 C 0.10965 0.14681 0.39526 0.0
C468 C 0.17301 0.15348 0.38885 0.0
C469 C 0.20742 0.20093 0.35408 0.0
C470 C 0.18937 0.1883 0.36987 0.0
C471 C 0.13205 0.14783 0.40548 0.0
C472 C 0.15236 0.16225 0.3948 0.0
H473 H 0.21117 0.23206 0.30326 0.0
H474 H 0.18192 0.21342 0.33139 0.0
H475 H 0.20664 0.15888 0.37088 0.0
H476 H 0.11899 0.10888 0.44899 0.0
H477 H 0.15234 0.13486 0.43318 0.0
C478 C 0.38163 0.89525 0.72461 0.0
C479 C 0.37529 0.90762 0.70524 0.0
C480 C 0.39341 0.90618 0.74439 0.0
C481 C 0.40027 0.96036 0.77579 0.0
H482 H 0.44466 0.9338 0.81373 0.0
C483 C 0.41437 0.97987 0.8766 0.0
C484 C 0.43684 0.97978 0.88625 0.0
C485 C 0.41013 0.97413 0.85233 0.0
C486 C 0.43269 0.94173 0.8031 0.0
H487 H 0.3772 0.94072 0.69037 0.0
H488 H 0.39829 0.95991 0.72483 0.0
H489 H 0.43297 0.91779 0.77409 0.0
H490 H 0.47273 0.97429 0.87804 0.0
H491 H 0.46557 0.96526 0.83528 0.0
H492 H 0.40019 0.98445 0.80465 0.0
C493 C 0.39373 0.94186 0.725 0.0
C494 C 0.42575 0.93236 0.78058 0.0
C495 C 0.38176 0.93094 0.70533 0.0
C496 C 0.45528 0.97474 0.871 0.0
C497 C 0.45112 0.9693 0.84663 0.0
C498 C 0.40748 0.96992 0.79813 0.0
C499 C 0.39918 0.92961 0.74492 0.0
C500 C 0.40903 0.94125 0.76705 0.0
C501 C 0.42841 0.96852 0.83722 0.0
C502 C 0.42326 0.96033 0.81225 0.0
H503 H 0.37653 0.87725 0.72498 0.0
H504 H 0.397 0.89634 0.7597 0.0
H505 H 0.3871 0.96739 0.7659 0.0
H506 H 0.39994 0.98398 0.88792 0.0
H507 H 0.39234 0.97334 0.84566 0.0
C508 C 0.60688 0.38224 0.72354 0.0
C509 C 0.6134 0.39409 0.74533 0.0
C510 C 0.59836 0.39285 0.70374 0.0
C511 C 0.59372 0.45038 0.68009 0.0
H512 H 0.55016 0.41647 0.63488 0.0
C513 C 0.54514 0.49379 0.60692 0.0
C514 C 0.54166 0.48348 0.58378 0.0
C515 C 0.55415 0.48286 0.62614 0.0
C516 C 0.5625 0.42623 0.64715 0.0
H517 H 0.61514 0.42654 0.76325 0.0
H518 H 0.59989 0.44473 0.72943 0.0
H519 H 0.56463 0.39774 0.6689 0.0
H520 H 0.54502 0.45325 0.56308 0.0
H521 H 0.56073 0.43426 0.59642 0.0
H522 H 0.59112 0.47896 0.65852 0.0
C523 C 0.60203 0.42738 0.72707 0.0
C524 C 0.57095 0.4154 0.66682 0.0
C525 C 0.61076 0.41683 0.74673 0.0
C526 C 0.5475 0.46184 0.58052 0.0
C527 C 0.55637 0.45083 0.5998 0.0
C528 C 0.58506 0.46123 0.6606 0.0
C529 C 0.59579 0.41568 0.70505 0.0
C530 C 0.58674 0.42724 0.68375 0.0
C531 C 0.55986 0.46114 0.62298 0.0
C532 C 0.56928 0.44938 0.64376 0.0
H533 H 0.60889 0.36481 0.72151 0.0
H534 H 0.59427 0.38311 0.68721 0.0
H535 H 0.60623 0.46025 0.69208 0.0
H536 H 0.54087 0.5104 0.61026 0.0
H537 H 0.55625 0.49136 0.64367 0.0
C538 C 0.89568 0.6041 0.23983 0.0
C539 C 0.90129 0.62744 0.24351 0.0
C540 C 0.90511 0.59329 0.22 0.0
C541 C 0.93594 0.60399 0.15937 0.0
H542 H 0.9478 0.54325 0.1667 0.0
C543 C 0.98479 0.55599 0.08526 0.0
C544 C 0.97595 0.53316 0.08137 0.0
C545 C 0.97584 0.56827 0.10437 0.0
C546 C 0.94441 0.56015 0.16418 0.0
H547 H 0.92158 0.6575 0.22852 0.0
H548 H 0.93875 0.63863 0.19474 0.0
H549 H 0.93273 0.56285 0.2011 0.0
H550 H 0.95036 0.50558 0.09435 0.0
H551 H 0.93493 0.52676 0.12746 0.0
H552 H 0.94815 0.60123 0.12242 0.0
C553 C 0.92656 0.62865 0.20693 0.0
C554 C 0.93563 0.57146 0.18402 0.0
C555 C 0.91693 0.63952 0.22668 0.0
C556 C 0.95769 0.52308 0.09681 0.0
C557 C 0.94892 0.53524 0.11597 0.0
C558 C 0.94497 0.59271 0.13954 0.0
C559 C 0.9208 0.60532 0.20318 0.0
C560 C 0.93098 0.59353 0.18197 0.0
C561 C 0.958 0.55796 0.12028 0.0
C562 C 0.94911 0.5705 0.14156 0.0
H563 H 0.88409 0.59397 0.25241 0.0
H564 H 0.89979 0.57541 0.21779 0.0
H565 H 0.93238 0.6208 0.15673 0.0
H566 H 0.99891 0.56429 0.07379 0.0
H567 H 0.98338 0.58568 0.10711 0.0
C568 C 0.4019 0.18587 0.16937 0.0
C569 C 0.38036 0.18984 0.1599 0.0
C570 C 0.41403 0.1699 0.15843 0.0
C571 C 0.40421 0.11865 0.12131 0.0
H572 H 0.47151 0.1314 0.1074 0.0
C573 C 0.45186 0.0588 0.06326 0.0
C574 C 0.47515 0.05659 0.06913 0.0
C575 C 0.44048 0.07477 0.07518 0.0
C576 C 0.45279 0.12742 0.11152 0.0
H577 H 0.3546 0.18033 0.13165 0.0
H578 H 0.37579 0.15237 0.11256 0.0
H579 H 0.45155 0.16027 0.12631 0.0
H580 H 0.50458 0.06906 0.09251 0.0
H581 H 0.48447 0.09653 0.11388 0.0
H582 H 0.40535 0.08575 0.10699 0.0
C583 C 0.38327 0.16161 0.12841 0.0
C584 C 0.44137 0.14401 0.12224 0.0
C585 C 0.37128 0.17772 0.13918 0.0
C586 C 0.48667 0.07043 0.08751 0.0
C587 C 0.47518 0.08628 0.09963 0.0
C588 C 0.41565 0.102 0.11084 0.0
C589 C 0.40468 0.15745 0.13802 0.0
C590 C 0.41694 0.13982 0.12705 0.0
C591 C 0.45202 0.08879 0.09346 0.0
C592 C 0.44005 0.10622 0.1056 0.0
H593 H 0.40933 0.19509 0.18525 0.0
H594 H 0.43045 0.16694 0.16626 0.0
H595 H 0.38542 0.11488 0.1252 0.0
H596 H 0.44254 0.04855 0.04901 0.0
H597 H 0.42282 0.07647 0.06962 0.0
C598 C 0.17242 0.87424 0.58009 0.0
C599 C 0.18938 0.88579 0.5959 0.0
C600 C 0.15315 0.88396 0.57312 0.0
C601 C 0.11723 0.92749 0.58675 0.0
H602 H 0.11884 0.93612 0.51706 0.0
C603 C 0.07228 0.99486 0.54304 0.0
C604 C 0.06328 0.99087 0.51955 0.0
C605 C 0.08489 0.97967 0.55348 0.0
C606 C 0.11764 0.93347 0.53647 0.0
H607 H 0.19852 0.91605 0.61795 0.0
H608 H 0.1644 0.9326 0.6063 0.0
H609 H 0.14423 0.91235 0.53465 0.0
H610 H 0.05941 0.96773 0.4888 0.0
H611 H 0.08064 0.94072 0.50727 0.0
H612 H 0.09052 0.94846 0.58867 0.0
C613 C 0.1662 0.91608 0.59928 0.0
C614 C 0.13227 0.91989 0.54652 0.0
C615 C 0.1857 0.90655 0.60596 0.0
C616 C 0.0666 0.97131 0.5068 0.0
C617 C 0.0788 0.95589 0.51739 0.0
C618 C 0.10221 0.94077 0.57665 0.0
C619 C 0.15026 0.90518 0.58221 0.0
C620 C 0.13249 0.91715 0.57174 0.0
C621 C 0.08833 0.95999 0.54077 0.0
C622 C 0.10261 0.9443 0.55142 0.0
H623 H 0.1744 0.85798 0.5725 0.0
H624 H 0.14089 0.87523 0.56005 0.0
H625 H 0.11714 0.9255 0.60627 0.0
H626 H 0.0698 1.00985 0.55323 0.0
H627 H 0.09232 0.98362 0.5713 0.0
C628 C 0.7767 0.42235 0.9012 0.0
C629 C 0.77081 0.39885 0.90067 0.0
C630 C 0.7977 0.43302 0.91189 0.0
C631 C 0.85668 0.42206 0.93325 0.0
H632 H 0.85787 0.47912 0.96689 0.0
C633 C 0.9371 0.46147 0.99079 0.0
C634 C 0.94381 0.48487 0.99115 0.0
C635 C 0.91609 0.45137 0.97976 0.0
C636 C 0.85804 0.46332 0.95733 0.0
H637 H 0.78314 0.36832 0.91106 0.0
H638 H 0.81893 0.38678 0.93044 0.0
H639 H 0.82158 0.46096 0.94793 0.0
H640 H 0.93326 0.51593 0.97994 0.0
H641 H 0.89687 0.49835 0.96041 0.0
H642 H 0.89307 0.42436 0.94271 0.0
C643 C 0.80756 0.39708 0.92215 0.0
C644 C 0.83709 0.45284 0.94637 0.0
C645 C 0.78667 0.38642 0.91129 0.0
C646 C 0.92875 0.49787 0.98014 0.0
C647 C 0.90771 0.48775 0.96903 0.0
C648 C 0.87758 0.43251 0.94424 0.0
C649 C 0.8135 0.42058 0.92261 0.0
C650 C 0.836 0.43198 0.93418 0.0
C651 C 0.90104 0.4643 0.96859 0.0
C652 C 0.87864 0.4533 0.95655 0.0
H653 H 0.76495 0.43266 0.89358 0.0
H654 H 0.80161 0.45109 0.91149 0.0
H655 H 0.85691 0.40629 0.92367 0.0
H656 H 0.94808 0.4508 0.99912 0.0
H657 H 0.91153 0.43334 0.9803 0.0
C658 C 0.72459 0.63756 0.40863 0.0
C659 C 0.74327 0.62572 0.40287 0.0
C660 C 0.70397 0.62697 0.42014 0.0
C661 C 0.68102 0.57786 0.45752 0.0
H662 H 0.61981 0.59114 0.43899 0.0
C663 C 0.59597 0.55044 0.51454 0.0
C664 C 0.57481 0.54321 0.50219 0.0
C665 C 0.61653 0.55942 0.50183 0.0
C666 C 0.63673 0.58707 0.44424 0.0
H667 H 0.75487 0.59341 0.405 0.0
H668 H 0.7188 0.57487 0.42462 0.0
H669 H 0.6554 0.60887 0.41778 0.0
H670 H 0.55868 0.53929 0.46669 0.0
H671 H 0.59465 0.55493 0.44439 0.0
H672 H 0.66236 0.5559 0.4838 0.0
C673 C 0.72016 0.59242 0.42043 0.0
C674 C 0.65719 0.59746 0.43227 0.0
C675 C 0.74076 0.603 0.40889 0.0
C676 C 0.57475 0.5447 0.47673 0.0
C677 C 0.59531 0.55384 0.46399 0.0
C678 C 0.66058 0.56753 0.46952 0.0
C679 C 0.70149 0.60426 0.42624 0.0
C680 C 0.67963 0.59303 0.43878 0.0
C681 C 0.61643 0.56149 0.47641 0.0
C682 C 0.63816 0.57202 0.46309 0.0
H683 H 0.72579 0.65501 0.40406 0.0
H684 H 0.69009 0.63669 0.42456 0.0
H685 H 0.69799 0.57422 0.46322 0.0
H686 H 0.59656 0.54953 0.53416 0.0
H687 H 0.63236 0.56533 0.51204 0.0
C688 C 0.24563 0.33208 0.1295 0.0
C689 C 0.25477 0.33963 0.15225 0.0
C690 C 0.23037 0.34386 0.11754 0.0
C691 C 0.20763 0.39783 0.1169 0.0
H692 H 0.15153 0.36117 0.0911 0.0
C693 C 0.12208 0.43234 0.09543 0.0
C694 C 0.10967 0.42381 0.07458 0.0
C695 C 0.14175 0.42336 0.10281 0.0
C696 C 0.16725 0.37165 0.09787 0.0
H697 H 0.25612 0.36602 0.17974 0.0
H698 H 0.22894 0.38626 0.15918 0.0
H699 H 0.18292 0.34333 0.1073 0.0
H700 H 0.10873 0.39993 0.04451 0.0
H701 H 0.14306 0.38425 0.05742 0.0
H702 H 0.19155 0.42616 0.10794 0.0
C703 C 0.23377 0.37139 0.15043 0.0
C704 C 0.18527 0.36143 0.10711 0.0
C705 C 0.24913 0.35967 0.16234 0.0
C706 C 0.11769 0.40656 0.0609 0.0
C707 C 0.13734 0.3976 0.06827 0.0
C708 C 0.18954 0.40807 0.10769 0.0
C709 C 0.22386 0.36335 0.12815 0.0
C710 C 0.20557 0.37439 0.11688 0.0
C711 C 0.14937 0.40571 0.08947 0.0
C712 C 0.16911 0.39506 0.09823 0.0
H713 H 0.24946 0.31657 0.12138 0.0
H714 H 0.22325 0.33742 0.10022 0.0
H715 H 0.22319 0.40825 0.12408 0.0
H716 H 0.11614 0.44545 0.10648 0.0
H717 H 0.1505 0.42975 0.1194 0.0
C718 C 0.61793 0.23245 0.92258 0.0
C719 C 0.61142 0.23739 0.89891 0.0
C720 C 0.60902 0.21197 0.93331 0.0
C721 C 0.57744 0.15412 0.91802 0.0
H722 H 0.56877 0.1504 0.98794 0.0
C723 C 0.52388 0.07636 0.96203 0.0
C724 C 0.53113 0.06857 0.98414 0.0
C725 C 0.53486 0.09661 0.95245 0.0
C726 C 0.57134 0.15104 0.96841 0.0
H727 H 0.58983 0.224 0.86834 0.0
H728 H 0.57328 0.1892 0.88746 0.0
H729 H 0.58438 0.18618 0.96982 0.0
H730 H 0.5558 0.07627 1.01364 0.0
H731 H 0.5753 0.11202 0.99675 0.0
H732 H 0.56394 0.11912 0.9166 0.0
C733 C 0.58599 0.20085 0.89754 0.0
C734 C 0.58037 0.17167 0.9579 0.0
C735 C 0.59522 0.2212 0.88663 0.0
C736 C 0.54988 0.08171 0.99649 0.0
C737 C 0.5609 0.10227 0.98687 0.0
C738 C 0.56826 0.13362 0.92849 0.0
C739 C 0.59288 0.19574 0.92101 0.0
C740 C 0.58345 0.17363 0.93246 0.0
C741 C 0.55355 0.10995 0.9646 0.0
C742 C 0.56486 0.13174 0.95383 0.0
H743 H 0.6299 0.24446 0.93307 0.0
H744 H 0.61516 0.20884 0.95121 0.0
H745 H 0.58003 0.15451 0.8985 0.0
H746 H 0.50945 0.06678 0.95202 0.0
H747 H 0.52828 0.102 0.93559 0.0
C748 C 0.91085 0.80489 0.3834 0.0
C749 C 0.9027 0.78638 0.39798 0.0
C750 C 0.92015 0.82559 0.39397 0.0
C751 C 0.94613 0.85162 0.45101 0.0
H752 H 0.92964 0.90598 0.42494 0.0
C753 C 0.97256 0.93718 0.49992 0.0
C754 C 0.97849 0.95624 0.48562 0.0
C755 C 0.96299 0.91659 0.48929 0.0
C756 C 0.93476 0.89104 0.4323 0.0
H757 H 0.89844 0.77518 0.43523 0.0
H758 H 0.91421 0.81128 0.45359 0.0
H759 H 0.9142 0.87003 0.40611 0.0
H760 H 0.97924 0.96853 0.44882 0.0
H761 H 0.96336 0.93264 0.43023 0.0
H762 H 0.96696 0.87251 0.47696 0.0
C763 C 0.9136 0.80977 0.43396 0.0
C764 C 0.92583 0.87037 0.42148 0.0
C765 C 0.90429 0.7891 0.4234 0.0
C766 C 0.97468 0.95422 0.46044 0.0
C767 C 0.9654 0.93359 0.44976 0.0
C768 C 0.95521 0.87229 0.46172 0.0
C769 C 0.92161 0.82831 0.41939 0.0
C770 C 0.93135 0.85038 0.43072 0.0
C771 C 0.9594 0.91444 0.46402 0.0
C772 C 0.94964 0.89234 0.45257 0.0
H773 H 0.90969 0.80349 0.36378 0.0
H774 H 0.92638 0.83944 0.38218 0.0
H775 H 0.95105 0.8366 0.45841 0.0
H776 H 0.97514 0.93817 0.5194 0.0
H777 H 0.95822 0.90242 0.50101 0.0
C778 C 0.3559 0.77252 0.51885 0.0
C779 C 0.34068 0.7679 0.53895 0.0
C780 C 0.36593 0.75533 0.5075 0.0
C781 C 0.36276 0.69406 0.50259 0.0
H782 H 0.43083 0.7063 0.5094 0.0
C783 C 0.41628 0.62741 0.52932 0.0
C784 C 0.44025 0.62918 0.52278 0.0
C785 C 0.40307 0.64349 0.52208 0.0
C786 C 0.41195 0.70261 0.50659 0.0
H787 H 0.32275 0.74213 0.56229 0.0
H788 H 0.33992 0.71194 0.54226 0.0
H789 H 0.40812 0.73689 0.51234 0.0
H790 H 0.46893 0.64819 0.50229 0.0
H791 H 0.4457 0.67625 0.4892 0.0
H792 H 0.36645 0.65965 0.49778 0.0
C793 C 0.3441 0.72867 0.53515 0.0
C794 C 0.39893 0.7202 0.50831 0.0
C795 C 0.33443 0.74587 0.5467 0.0
C796 C 0.45053 0.6467 0.50786 0.0
C797 C 0.43723 0.6627 0.50037 0.0
C798 C 0.3758 0.67648 0.50055 0.0
C799 C 0.36047 0.73335 0.51592 0.0
C800 C 0.37417 0.71591 0.50749 0.0
C801 C 0.4135 0.66159 0.50793 0.0
C802 C 0.40042 0.68043 0.50381 0.0
H803 H 0.36095 0.78954 0.5128 0.0
H804 H 0.37859 0.75929 0.49277 0.0
H805 H 0.34366 0.69042 0.50166 0.0
H806 H 0.40802 0.61415 0.54101 0.0
H807 H 0.38502 0.64231 0.52871 0.0
C808 C 0.78894 0.81137 0.69826 0.0
C809 C 0.77343 0.82167 0.71308 0.0
C810 C 0.80525 0.82414 0.68321 0.0
C811 C 0.8355 0.88202 0.67883 0.0
H812 H 0.86061 0.85952 0.61891 0.0
C813 C 0.90452 0.93496 0.61954 0.0
C814 C 0.92474 0.92523 0.61435 0.0
C815 C 0.88453 0.92219 0.62946 0.0
C816 C 0.85365 0.86589 0.63563 0.0
H817 H 0.76185 0.85332 0.72253 0.0
H818 H 0.78888 0.87523 0.69479 0.0
H819 H 0.82642 0.83766 0.63877 0.0
H820 H 0.9402 0.89482 0.61487 0.0
H821 H 0.90484 0.87222 0.6323 0.0
H822 H 0.86256 0.91041 0.67536 0.0
C823 C 0.78917 0.85742 0.6956 0.0
C824 C 0.83422 0.85344 0.64702 0.0
C825 C 0.77332 0.84475 0.71116 0.0
C826 C 0.92471 0.90254 0.61886 0.0
C827 C 0.90458 0.88968 0.62858 0.0
C828 C 0.85461 0.89461 0.66721 0.0
C829 C 0.80588 0.84738 0.6822 0.0
C830 C 0.82512 0.86128 0.66888 0.0
C831 C 0.88452 0.89954 0.6341 0.0
C832 C 0.86389 0.88651 0.6457 0.0
H833 H 0.78916 0.79354 0.69898 0.0
H834 H 0.81803 0.8159 0.6733 0.0
H835 H 0.82936 0.88829 0.69598 0.0
H836 H 0.90436 0.95253 0.61637 0.0
H837 H 0.86912 0.92999 0.6336 0.0
C838 C 0.68075 0.18786 0.28379 0.0
C839 C 0.66942 0.18849 0.30654 0.0
C840 C 0.66768 0.18079 0.26323 0.0
C841 C 0.61423 0.14427 0.24644 0.0
H842 H 0.62673 0.17094 0.18312 0.0
C843 C 0.56929 0.1023 0.16252 0.0
C844 C 0.58479 0.09999 0.14298 0.0
C845 C 0.57638 0.11724 0.18148 0.0
C846 C 0.62306 0.16336 0.20071 0.0
H847 H 0.63567 0.18279 0.32576 0.0
H848 H 0.61272 0.17078 0.28959 0.0
H849 H 0.64576 0.18976 0.21896 0.0
H850 H 0.61928 0.11169 0.12714 0.0
H851 H 0.63199 0.13749 0.16058 0.0
H852 H 0.59254 0.11734 0.22828 0.0
C853 C 0.63169 0.17564 0.28777 0.0
C854 C 0.63389 0.17411 0.22112 0.0
C855 C 0.64476 0.18267 0.30834 0.0
C856 C 0.607 0.11349 0.14198 0.0
C857 C 0.61419 0.12827 0.16106 0.0
C858 C 0.60353 0.13347 0.22606 0.0
C859 C 0.64312 0.17431 0.26517 0.0
C860 C 0.62981 0.16444 0.24403 0.0
C861 C 0.59915 0.12984 0.18124 0.0
C862 C 0.60816 0.14275 0.20297 0.0
H863 H 0.69975 0.19245 0.28199 0.0
H864 H 0.67689 0.17959 0.246 0.0
H865 H 0.61117 0.1363 0.2639 0.0
H866 H 0.55199 0.09208 0.16343 0.0
H867 H 0.56434 0.11841 0.19669 0.0
C868 C 0.43219 0.6355 0.3046 0.0
C869 C 0.40766 0.6347 0.30181 0.0
C870 C 0.44123 0.62516 0.32427 0.0
C871 C 0.42436 0.60101 0.38589 0.0
H872 H 0.48127 0.57461 0.37661 0.0
C873 C 0.46995 0.56473 0.46699 0.0
C874 C 0.48143 0.54607 0.46255 0.0
C875 C 0.46099 0.57572 0.44774 0.0
C876 C 0.4652 0.58164 0.37962 0.0
H877 H 0.37357 0.62247 0.31844 0.0
H878 H 0.38912 0.604 0.35192 0.0
H879 H 0.46557 0.59256 0.34281 0.0
H880 H 0.49215 0.52439 0.43398 0.0
H881 H 0.47626 0.54305 0.40078 0.0
H882 H 0.42355 0.58939 0.42247 0.0
C883 C 0.40155 0.61289 0.33912 0.0
C884 C 0.45633 0.59235 0.36015 0.0
C885 C 0.39253 0.62329 0.31953 0.0
C886 C 0.48351 0.53869 0.43826 0.0
C887 C 0.47451 0.54962 0.41906 0.0
C888 C 0.43317 0.59019 0.40533 0.0
C889 C 0.42608 0.61359 0.34188 0.0
C890 C 0.43572 0.60224 0.36288 0.0
C891 C 0.46316 0.56841 0.42337 0.0
C892 C 0.45375 0.58025 0.40258 0.0
H893 H 0.44454 0.64385 0.29136 0.0
H894 H 0.46022 0.62647 0.32572 0.0
H895 H 0.40867 0.6086 0.38907 0.0
H896 H 0.46806 0.57104 0.48536 0.0
H897 H 0.45272 0.59024 0.45204 0.0
C898 C 0.10804 0.39323 0.82178 0.0
C899 C 0.11709 0.40549 0.80127 0.0
C900 C 0.09798 0.40367 0.84159 0.0
C901 C 0.07139 0.4546 0.8582 0.0
H902 H 0.08284 0.43957 0.92462 0.0
C903 C 0.04501 0.50902 0.93839 0.0
C904 C 0.03676 0.49916 0.96046 0.0
C905 C 0.05451 0.49671 0.9199 0.0
C906 C 0.07914 0.44382 0.90622 0.0
H907 H 0.12211 0.43854 0.78575 0.0
H908 H 0.10497 0.45665 0.8201 0.0
H909 H 0.09966 0.42 0.89086 0.0
H910 H 0.03227 0.46828 0.98026 0.0
H911 H 0.04862 0.44646 0.94778 0.0
H912 H 0.05075 0.47818 0.87326 0.0
C913 C 0.10548 0.43889 0.82091 0.0
C914 C 0.08887 0.43256 0.88676 0.0
C915 C 0.11564 0.4285 0.80121 0.0
C916 C 0.03853 0.47647 0.96359 0.0
C917 C 0.04801 0.46399 0.9449 0.0
C918 C 0.06161 0.46573 0.87757 0.0
C919 C 0.09644 0.42668 0.84145 0.0
C920 C 0.08539 0.43797 0.86241 0.0
C921 C 0.05596 0.47389 0.92258 0.0
C922 C 0.06554 0.46082 0.90197 0.0
H923 H 0.109 0.37555 0.82271 0.0
H924 H 0.09109 0.39359 0.85689 0.0
H925 H 0.06775 0.45895 0.83982 0.0
H926 H 0.04415 0.52649 0.93531 0.0
H927 H 0.06092 0.5053 0.90346 0.0
C928 C 0.62794 0.8519 0.8761 0.0
C929 C 0.65002 0.84807 0.88422 0.0
C930 C 0.61661 0.86825 0.88735 0.0
C931 C 0.61608 0.90282 0.94365 0.0
H932 H 0.58312 0.93941 0.90339 0.0
C933 C 0.57844 0.97895 0.98264 0.0
C934 C 0.55468 0.97963 0.97712 0.0
C935 C 0.59099 0.96417 0.97018 0.0
C936 C 0.59217 0.92924 0.91484 0.0
H937 H 0.67758 0.85825 0.9105 0.0
H938 H 0.65795 0.887 0.93005 0.0
H939 H 0.60308 0.91054 0.88445 0.0
H940 H 0.52586 0.96612 0.95338 0.0
H941 H 0.54794 0.94043 0.93141 0.0
H942 H 0.60531 0.92169 0.974 0.0
C943 C 0.64915 0.87712 0.91525 0.0
C944 C 0.60352 0.91264 0.90404 0.0
C945 C 0.6604 0.86065 0.90408 0.0
C946 C 0.54411 0.96596 0.95809 0.0
C947 C 0.55676 0.95131 0.94547 0.0
C948 C 0.6049 0.91952 0.95441 0.0
C949 C 0.6272 0.88124 0.90689 0.0
C950 C 0.61547 0.89914 0.91834 0.0
C951 C 0.58014 0.9499 0.95179 0.0
C952 C 0.59274 0.93282 0.94013 0.0
H953 H 0.6194 0.84222 0.86101 0.0
H954 H 0.59949 0.87065 0.88079 0.0
H955 H 0.62481 0.89251 0.95524 0.0
H956 H 0.58716 0.98925 0.99719 0.0
H957 H 0.6091 0.96363 0.97518 0.0
C958 C 0.81902 0.12269 0.44276 0.0
C959 C 0.82424 0.14609 0.44183 0.0
C960 C 0.83613 0.11031 0.45006 0.0
C961 C 0.8784 0.08684 0.45605 0.0
H962 H 0.91781 0.11126 0.50987 0.0
C963 C 0.95264 0.04286 0.49177 0.0
C964 C 0.95579 0.04322 0.51702 0.0
C965 C 0.9374 0.05577 0.48154 0.0
C966 C 0.9068 0.10411 0.49498 0.0
H967 H 0.85153 0.1749 0.44659 0.0
H968 H 0.88171 0.15325 0.45879 0.0
H969 H 0.88964 0.13287 0.49345 0.0
H970 H 0.94536 0.05688 0.55149 0.0
H971 H 0.91797 0.07888 0.53375 0.0
H972 H 0.89479 0.05763 0.45835 0.0
C973 C 0.86424 0.14448 0.45455 0.0
C974 C 0.89092 0.11666 0.48529 0.0
C975 C 0.84705 0.15687 0.44749 0.0
C976 C 0.94325 0.05643 0.53195 0.0
C977 C 0.92776 0.06915 0.52175 0.0
C978 C 0.89415 0.0742 0.46589 0.0
C979 C 0.85885 0.1211 0.45634 0.0
C980 C 0.87646 0.10813 0.4658 0.0
C981 C 0.92476 0.06904 0.49641 0.0
C982 C 0.90842 0.08265 0.48556 0.0
H983 H 0.80145 0.11405 0.4387 0.0
H984 H 0.83129 0.09236 0.45158 0.0
H985 H 0.86771 0.0799 0.44085 0.0
H986 H 0.96214 0.03279 0.47986 0.0
H987 H 0.93577 0.05556 0.46195 0.0
C988 C 0.24253 0.6384 0.12307 0.0
C989 C 0.2503 0.63037 0.14491 0.0
C990 C 0.22161 0.62807 0.11202 0.0
C991 C 0.16652 0.58619 0.12371 0.0
H992 H 0.16048 0.58912 0.05384 0.0
C993 C 0.08851 0.53421 0.07091 0.0
C994 C 0.07779 0.5454 0.05307 0.0
C995 C 0.10959 0.54427 0.08192 0.0
C996 C 0.16179 0.58824 0.0734 0.0
H997 H 0.24128 0.60472 0.17199 0.0
H998 H 0.20615 0.58595 0.152 0.0
H999 H 0.19685 0.60659 0.07306 0.0
H1000 H 0.0812 0.57607 0.03276 0.0
H1001 H 0.11802 0.59344 0.05168 0.0
H1002 H 0.13158 0.56716 0.12371 0.0
C1003 C 0.21576 0.60078 0.14371 0.0
C1004 C 0.18272 0.59844 0.08457 0.0
C1005 C 0.23642 0.6114 0.15505 0.0
C1006 C 0.08891 0.56687 0.04636 0.0
C1007 C 0.11013 0.57682 0.05715 0.0
C1008 C 0.14576 0.57567 0.11246 0.0
C1009 C 0.20785 0.60897 0.12203 0.0
C1010 C 0.18547 0.59773 0.10998 0.0
C1011 C 0.1207 0.56574 0.07521 0.0
C1012 C 0.14304 0.57664 0.08716 0.0
H1013 H 0.25267 0.65263 0.11419 0.0
H1014 H 0.21621 0.63536 0.09566 0.0
H1015 H 0.1674 0.58552 0.1433 0.0
H1016 H 0.08037 0.51784 0.07685 0.0
H1017 H 0.11727 0.53516 0.09562 0.0
C1018 C 0.27923 0.40865 0.61625 0.0
C1019 C 0.27682 0.409 0.64175 0.0
C1020 C 0.3001 0.41879 0.60487 0.0
C1021 C 0.36367 0.43945 0.61617 0.0
H1022 H 0.35968 0.47069 0.55601 0.0
C1023 C 0.4469 0.48857 0.56879 0.0
C1024 C 0.44798 0.48697 0.54328 0.0
C1025 C 0.426 0.48023 0.58148 0.0
C1026 C 0.36121 0.46184 0.57266 0.0
H1027 H 0.29478 0.42031 0.6752 0.0
H1028 H 0.33092 0.43851 0.65534 0.0
H1029 H 0.32364 0.45365 0.5766 0.0
H1030 H 0.42789 0.47576 0.51109 0.0
H1031 H 0.3918 0.46099 0.53301 0.0
H1032 H 0.40129 0.4475 0.61209 0.0
C1033 C 0.31674 0.4301 0.64413 0.0
C1034 C 0.34046 0.45203 0.5845 0.0
C1035 C 0.29586 0.4199 0.65553 0.0
C1036 C 0.42763 0.4773 0.53074 0.0
C1037 C 0.40683 0.46893 0.54336 0.0
C1038 C 0.38447 0.44925 0.60429 0.0
C1039 C 0.31915 0.42969 0.61863 0.0
C1040 C 0.34137 0.44058 0.60635 0.0
C1041 C 0.4057 0.47012 0.56893 0.0
C1042 C 0.38355 0.46047 0.58225 0.0
H1043 H 0.26489 0.40067 0.60497 0.0
H1044 H 0.30135 0.41785 0.58522 0.0
H1045 H 0.36512 0.43053 0.63279 0.0
H1046 H 0.4623 0.49596 0.57896 0.0
H1047 H 0.42576 0.48175 0.60112 0.0
C1048 C 0.77585 0.68865 0.89766 0.0
C1049 C 0.78075 0.6984 0.87483 0.0
C1050 C 0.79148 0.67599 0.9077 0.0
C1051 C 0.8399 0.6447 0.89207 0.0
H1052 H 0.85866 0.65811 0.9588 0.0
C1053 C 0.92147 0.61562 0.93367 0.0
C1054 C 0.92007 0.60994 0.95829 0.0
C1055 C 0.90308 0.62448 0.92308 0.0
C1056 C 0.85333 0.65385 0.94028 0.0
H1057 H 0.80606 0.70274 0.84478 0.0
H1058 H 0.83305 0.68038 0.86217 0.0
H1059 H 0.8285 0.67679 0.94128 0.0
H1060 H 0.89802 0.60774 0.99082 0.0
H1061 H 0.8657 0.62268 0.97226 0.0
H1062 H 0.86476 0.62178 0.89102 0.0
C1063 C 0.81698 0.68227 0.87212 0.0
C1064 C 0.83607 0.66459 0.93026 0.0
C1065 C 0.80148 0.69505 0.86216 0.0
C1066 C 0.89966 0.61239 0.97189 0.0
C1067 C 0.88122 0.62101 0.96128 0.0
C1068 C 0.85706 0.63382 0.90214 0.0
C1069 C 0.8122 0.67275 0.89503 0.0
C1070 C 0.82936 0.66026 0.90601 0.0
C1071 C 0.88291 0.62757 0.9369 0.0
C1072 C 0.86408 0.63841 0.92631 0.0
H1073 H 0.7599 0.69073 0.90772 0.0
H1074 H 0.78732 0.66866 0.92535 0.0
H1075 H 0.83483 0.64092 0.87337 0.0
H1076 H 0.93712 0.61394 0.92289 0.0
H1077 H 0.90503 0.62958 0.90431 0.0
C1078 C 0.43412 0.79566 0.14348 0.0
C1079 C 0.40988 0.79089 0.14935 0.0
C1080 C 0.44366 0.81572 0.13222 0.0
C1081 C 0.4262 0.86393 0.09847 0.0
H1082 H 0.49066 0.89076 0.11218 0.0
C1083 C 0.46881 0.95207 0.06328 0.0
C1084 C 0.49275 0.95449 0.0561 0.0
C1085 C 0.45778 0.93233 0.07444 0.0
C1086 C 0.47269 0.88344 0.10789 0.0
H1087 H 0.37684 0.80411 0.14836 0.0
H1088 H 0.39338 0.83899 0.12925 0.0
H1089 H 0.4737 0.85647 0.13203 0.0
H1090 H 0.52358 0.93782 0.05438 0.0
H1091 H 0.50453 0.90373 0.07332 0.0
H1092 H 0.42528 0.89129 0.07452 0.0
C1093 C 0.40506 0.82703 0.1327 0.0
C1094 C 0.46291 0.86359 0.1193 0.0
C1095 C 0.39552 0.80692 0.1438 0.0
C1096 C 0.50515 0.93661 0.05979 0.0
C1097 C 0.49424 0.91705 0.07091 0.0
C1098 C 0.43597 0.88394 0.08717 0.0
C1099 C 0.4293 0.83179 0.12663 0.0
C1100 C 0.43955 0.85334 0.11466 0.0
C1101 C 0.47049 0.91466 0.07873 0.0
C1102 C 0.45946 0.89387 0.09152 0.0
H1103 H 0.44573 0.78366 0.14706 0.0
H1104 H 0.46229 0.81836 0.1275 0.0
H1105 H 0.4083 0.85656 0.09402 0.0
H1106 H 0.45877 0.96555 0.0607 0.0
H1107 H 0.43948 0.93117 0.08027 0.0
C1108 C 0.11582 0.24741 0.61813 0.0
C1109 C 0.11734 0.24948 0.64361 0.0
C1110 C 0.10673 0.22696 0.60694 0.0
C1111 C 0.09521 0.166 0.61761 0.0
H1112 H 0.05435 0.16469 0.562 0.0
C1113 C 0.04728 0.08265 0.57682 0.0
C1114 C 0.04355 0.08096 0.5516 0.0
C1115 C 0.05633 0.10316 0.58787 0.0
C1116 C 0.06602 0.16468 0.57726 0.0
H1117 H 0.11041 0.23144 0.67724 0.0
H1118 H 0.09411 0.19587 0.65776 0.0
H1119 H 0.06976 0.20029 0.58154 0.0
H1120 H 0.0467 0.09957 0.51819 0.0
H1121 H 0.06324 0.13519 0.53726 0.0
H1122 H 0.09184 0.13049 0.61319 0.0
C1123 C 0.10022 0.21006 0.64641 0.0
C1124 C 0.07482 0.18518 0.58855 0.0
C1125 C 0.1093 0.23055 0.65761 0.0
C1126 C 0.04928 0.10028 0.53767 0.0
C1127 C 0.05861 0.12079 0.54869 0.0
C1128 C 0.08657 0.14552 0.60622 0.0
C1129 C 0.09888 0.20798 0.62092 0.0
C1130 C 0.08948 0.18612 0.60892 0.0
C1131 C 0.06218 0.12257 0.57399 0.0
C1132 C 0.07176 0.14452 0.58591 0.0
H1133 H 0.12157 0.26167 0.60674 0.0
H1134 H 0.10619 0.22596 0.58728 0.0
H1135 H 0.10677 0.1661 0.63299 0.0
H1136 H 0.04286 0.06817 0.58819 0.0
H1137 H 0.05831 0.10381 0.60742 0.0
C1138 C 0.66795 0.26305 0.52465 0.0
C1139 C 0.68409 0.27414 0.50776 0.0
C1140 C 0.6532 0.27498 0.53838 0.0
C1141 C 0.61186 0.30078 0.54149 0.0
H1142 H 0.62838 0.36348 0.55946 0.0
C1143 C 0.5592 0.36695 0.51349 0.0
C1144 C 0.55924 0.38662 0.52748 0.0
C1145 C 0.571 0.35009 0.52147 0.0
C1146 C 0.62333 0.34585 0.55521 0.0
H1147 H 0.69914 0.30635 0.49342 0.0
H1148 H 0.67348 0.3272 0.51719 0.0
H1149 H 0.65916 0.34001 0.5565 0.0
H1150 H 0.56975 0.40313 0.56188 0.0
H1151 H 0.59087 0.37373 0.57561 0.0
H1152 H 0.57623 0.30693 0.53887 0.0
C1153 C 0.67214 0.3094 0.52007 0.0
C1154 C 0.64101 0.33246 0.55331 0.0
C1155 C 0.68669 0.29748 0.50626 0.0
C1156 C 0.56989 0.38837 0.55044 0.0
C1157 C 0.58185 0.37151 0.55838 0.0
C1158 C 0.59417 0.31416 0.54344 0.0
C1159 C 0.65459 0.29817 0.53554 0.0
C1160 C 0.63563 0.31015 0.54505 0.0
C1161 C 0.58317 0.35255 0.54358 0.0
C1162 C 0.59996 0.33711 0.54892 0.0
H1163 H 0.66562 0.24501 0.52601 0.0
H1164 H 0.63991 0.26594 0.55025 0.0
H1165 H 0.60711 0.28366 0.53504 0.0
H1166 H 0.5514 0.36516 0.49563 0.0
H1167 H 0.572 0.33587 0.50943 0.0
loop_
_geom_bond_atom_site_label_1
_geom_bond_atom_site_label_2
_geom_bond_distance
_geom_bond_site_symmetry_2
_ccdc_geom_bond_type
C0 C1 1.384 . S
C0 H13 0.947 . S
C0 C35 1.382 . S
C1 C0 1.384 . S
C1 C2 1.378 . S
C2 C1 1.378 . S
C2 C3 1.378 . S
C2 H14 0.952 . S
C3 C2 1.378 . S
C3 H15 0.950 . S
C3 C34 1.383 . S
H4 C23 0.947 . S
H5 C24 0.946 . S
H6 C26 0.953 . S
H7 C27 0.945 . S
H8 C29 0.952 . S
H9 C30 0.949 . S
H10 C32 0.950 . S
H11 C33 0.948 . S
H12 C35 0.951 . S
H13 C0 0.947 . S
H14 C2 0.952 . S
H15 C3 0.950 . S
N16 C19 1.382 . S
N16 C21 1.363 . S
N17 C19 1.371 . S
N17 C20 1.372 . S
N18 C20 1.361 . S
N18 C21 1.377 . S
C19 N16 1.382 . S
C19 N17 1.371 . S
C19 C22 1.480 . S
C20 N17 1.372 . S
C20 N18 1.361 . S
C20 C28 1.457 . S
C21 N16 1.363 . S
C21 N18 1.377 . S
C21 C34 1.479 . S
C22 C19 1.480 . S
C22 C23 1.383 . S
C22 C27 1.385 . S
C23 H4 0.947 . S
C23 C22 1.383 . S
C23 C24 1.388 . S
C24 H5 0.946 . S
C24 C23 1.388 . S
C24 C25 1.384 . S
C25 C24 1.384 . S
C25 C26 1.377 . S
C26 H6 0.953 . S
C26 C25 1.377 . S
C26 C27 1.369 . S
C27 H7 0.945 . S
C27 C22 1.385 . S
C27 C26 1.369 . S
C28 C20 1.457 . S
C28 C29 1.372 . S
C28 C33 1.364 . S
C29 H8 0.952 . S
C29 C28 1.372 . S
C29 C30 1.389 . S
C30 H9 0.949 . S
C30 C29 1.389 . S
C30 C31 1.387 . S
C31 C30 1.387 . S
C31 C32 1.372 . S
C32 H10 0.950 . S
C32 C31 1.372 . S
C32 C33 1.379 . S
C33 H11 0.948 . S
C33 C28 1.364 . S
C33 C32 1.379 . S
C34 C3 1.383 . S
C34 C21 1.479 . S
C34 C35 1.398 . S
C35 C0 1.382 . S
C35 H12 0.951 . S
C35 C34 1.398 . S
C36 C37 1.384 . S
C36 H49 0.947 . S
C36 C71 1.382 . S
C37 C36 1.384 . S
C37 C38 1.378 . S
C38 C37 1.378 . S
C38 C39 1.378 . S
C38 H50 0.952 . S
C39 C38 1.378 . S
C39 H51 0.950 . S
C39 C70 1.383 . S
H40 C59 0.947 . S
H41 C60 0.946 . S
H42 C62 0.953 . S
H43 C63 0.945 . S
H44 C65 0.952 . S
H45 C66 0.949 . S
H46 C68 0.950 . S
H47 C69 0.948 . S
H48 C71 0.951 . S
H49 C36 0.947 . S
H50 C38 0.952 . S
H51 C39 0.950 . S
N52 C55 1.382 . S
N52 C57 1.363 . S
N53 C55 1.371 . S
N53 C56 1.372 . S
N54 C56 1.361 . S
N54 C57 1.377 . S
C55 N52 1.382 . S
C55 N53 1.371 . S
C55 C58 1.480 . S
C56 N53 1.372 . S
C56 N54 1.361 . S
C56 C64 1.457 . S
C57 N52 1.363 . S
C57 N54 1.377 . S
C57 C70 1.479 . S
C58 C55 1.480 . S
C58 C59 1.383 . S
C58 C63 1.385 . S
C59 H40 0.947 . S
C59 C58 1.383 . S
C59 C60 1.388 . S
C60 H41 0.946 . S
C60 C59 1.388 . S
C60 C61 1.384 . S
C61 C60 1.384 . S
C61 C62 1.377 . S
C62 H42 0.953 . S
C62 C61 1.377 . S
C62 C63 1.369 . S
C63 H43 0.945 . S
C63 C58 1.385 . S
C63 C62 1.369 . S
C64 C56 1.457 . S
C64 C65 1.372 . S
C64 C69 1.364 . S
C65 H44 0.952 . S
C65 C64 1.372 . S
C65 C66 1.389 . S
C66 H45 0.949 . S
C66 C65 1.389 . S
C66 C67 1.387 . S
C67 C66 1.387 . S
C67 C68 1.372 . S
C68 H46 0.950 . S
C68 C67 1.372 . S
C68 C69 1.379 . S
C69 H47 0.948 . S
C69 C64 1.364 . S
C69 C68 1.379 . S
C70 C39 1.383 . S
C70 C57 1.479 . S
C70 C71 1.398 . S
C71 C36 1.382 . S
C71 H48 0.951 . S
C71 C70 1.398 . S
C72 C73 1.384 . S
C72 H85 0.947 . S
C72 C107 1.382 . S
C73 C72 1.384 . S
C73 C74 1.378 . S
C74 C73 1.378 . S
C74 C75 1.378 . S
C74 H86 0.952 . S
C75 C74 1.378 . S
C75 H87 0.950 . S
C75 C106 1.383 . S
H76 C95 0.947 . S
H77 C96 0.946 . S
H78 C98 0.953 . S
H79 C99 0.945 . S
H80 C101 0.952 . S
H81 C102 0.949 . S
H82 C104 0.950 . S
H83 C105 0.948 . S
H84 C107 0.951 . S
H85 C72 0.947 . S
H86 C74 0.952 . S
H87 C75 0.950 . S
N88 C91 1.382 . S
N88 C93 1.363 . S
N89 C91 1.371 . S
N89 C92 1.372 . S
N90 C92 1.361 . S
N90 C93 1.377 . S
C91 N88 1.382 . S
C91 N89 1.371 . S
C91 C94 1.480 . S
C92 N89 1.372 . S
C92 N90 1.361 . S
C92 C100 1.457 . S
C93 N88 1.363 . S
C93 N90 1.377 . S
C93 C106 1.479 . S
C94 C91 1.480 . S
C94 C95 1.383 . S
C94 C99 1.385 . S
C95 H76 0.947 . S
C95 C94 1.383 . S
C95 C96 1.388 . S
C96 H77 0.946 . S
C96 C95 1.388 . S
C96 C97 1.384 . S
C97 C96 1.384 . S
C97 C98 1.377 . S
C98 H78 0.953 . S
C98 C97 1.377 . S
C98 C99 1.369 . S
C99 H79 0.945 . S
C99 C94 1.385 . S
C99 C98 1.369 . S
C100 C92 1.457 . S
C100 C101 1.372 . S
C100 C105 1.364 . S
C101 H80 0.952 . S
C101 C100 1.372 . S
C101 C102 1.389 . S
C102 H81 0.949 . S
C102 C101 1.389 . S
C102 C103 1.387 . S
C103 C102 1.387 . S
C103 C104 1.372 . S
C104 H82 0.950 . S
C104 C103 1.372 . S
C104 C105 1.379 . S
C105 H83 0.948 . S
C105 C100 1.364 . S
C105 C104 1.379 . S
C106 C75 1.383 . S
C106 C93 1.479 . S
C106 C107 1.398 . S
C107 C72 1.382 . S
C107 H84 0.951 . S
C107 C106 1.398 . S
C108 C109 1.384 . S
C108 H121 0.947 . S
C108 C143 1.382 . S
C109 C108 1.384 . S
C109 C110 1.378 . S
C110 C109 1.378 . S
C110 C111 1.378 . S
C110 H122 0.952 . S
C111 C110 1.378 . S
C111 H123 0.950 . S
C111 C142 1.383 . S
H112 C131 0.947 . S
H113 C132 0.946 . S
H114 C134 0.953 . S
H115 C135 0.945 . S
H116 C137 0.952 . S
H117 C138 0.949 . S
H118 C140 0.950 . S
H119 C141 0.948 . S
H120 C143 0.951 . S
H121 C108 0.947 . S
H122 C110 0.952 . S
H123 C111 0.950 . S
N124 C127 1.382 . S
N124 C129 1.363 . S
N125 C127 1.371 . S
N125 C128 1.372 . S
N126 C128 1.361 . S
N126 C129 1.377 . S
C127 N124 1.382 . S
C127 N125 1.371 . S
C127 C130 1.480 . S
C128 N125 1.372 . S
C128 N126 1.361 . S
C128 C136 1.457 . S
C129 N124 1.363 . S
C129 N126 1.377 . S
C129 C142 1.479 . S
C130 C127 1.480 . S
C130 C131 1.383 . S
C130 C135 1.385 . S
C131 H112 0.947 . S
C131 C130 1.383 . S
C131 C132 1.388 . S
C132 H113 0.946 . S
C132 C131 1.388 . S
C132 C133 1.384 . S
C133 C132 1.384 . S
C133 C134 1.377 . S
C134 H114 0.953 . S
C134 C133 1.377 . S
C134 C135 1.369 . S
C135 H115 0.945 . S
C135 C130 1.385 . S
C135 C134 1.369 . S
C136 C128 1.457 . S
C136 C137 1.372 . S
C136 C141 1.364 . S
C137 H116 0.952 . S
C137 C136 1.372 . S
C137 C138 1.389 . S
C138 H117 0.949 . S
C138 C137 1.389 . S
C138 C139 1.387 . S
C139 C138 1.387 . S
C139 C140 1.372 . S
C140 H118 0.950 . S
C140 C139 1.372 . S
C140 C141 1.379 . S
C141 H119 0.948 . S
C141 C136 1.364 . S
C141 C140 1.379 . S
C142 C111 1.383 . S
C142 C129 1.479 . S
C142 C143 1.398 . S
C143 C108 1.382 . S
C143 H120 0.951 . S
C143 C142 1.398 . S
C144 C145 1.384 . S
C144 H157 0.947 . S
C144 C179 1.382 . S
C145 C144 1.384 . S
C145 C146 1.378 . S
C146 C145 1.378 . S
C146 C147 1.378 . S
C146 H158 0.952 . S
C147 C146 1.378 . S
C147 H159 0.950 . S
C147 C178 1.383 . S
H148 C167 0.947 . S
H149 C168 0.946 . S
H150 C170 0.953 . S
H151 C171 0.945 . S
H152 C173 0.952 . S
H153 C174 0.949 . S
H154 C176 0.950 . S
H155 C177 0.948 . S
H156 C179 0.951 . S
H157 C144 0.947 . S
H158 C146 0.952 . S
H159 C147 0.950 . S
N160 C163 1.382 . S
N160 C165 1.363 . S
N161 C163 1.371 . S
N161 C164 1.372 . S
N162 C164 1.361 . S
N162 C165 1.377 . S
C163 N160 1.382 . S
C163 N161 1.371 . S
C163 C166 1.480 . S
C164 N161 1.372 . S
C164 N162 1.361 . S
C164 C172 1.457 . S
C165 N160 1.363 . S
C165 N162 1.377 . S
C165 C178 1.479 . S
C166 C163 1.480 . S
C166 C167 1.383 . S
C166 C171 1.385 . S
C167 H148 0.947 . S
C167 C166 1.383 . S
C167 C168 1.388 . S
C168 H149 0.946 . S
C168 C167 1.388 . S
C168 C169 1.384 . S
C169 C168 1.384 . S
C169 C170 1.377 . S
C170 H150 0.953 . S
C170 C169 1.377 . S
C170 C171 1.369 . S
C171 H151 0.945 . S
C171 C166 1.385 . S
C171 C170 1.369 . S
C172 C164 1.457 . S
C172 C173 1.372 . S
C172 C177 1.364 . S
C173 H152 0.952 . S
C173 C172 1.372 . S
C173 C174 1.389 . S
C174 H153 0.949 . S
C174 C173 1.389 . S
C174 C175 1.387 . S
C175 C174 1.387 . S
C175 C176 1.372 . S
C176 H154 0.950 . S
C176 C175 1.372 . S
C176 C177 1.379 . S
C177 H155 0.948 . S
C177 C172 1.364 . S
C177 C176 1.379 . S
C178 C147 1.383 . S
C178 C165 1.479 . S
C178 C179 1.398 . S
C179 C144 1.382 . S
C179 H156 0.951 . S
C179 C178 1.398 . S
C180 C181 1.384 . S
C180 H193 0.947 . S
C180 C215 1.382 . S
C181 C180 1.384 . S
C181 C182 1.378 . S
C182 C181 1.378 . S
C182 C183 1.378 . S
C182 H194 0.952 . S
C183 C182 1.378 . S
C183 H195 0.950 . S
C183 C214 1.383 . S
H184 C203 0.947 . S
H185 C204 0.946 . S
H186 C206 0.953 . S
H187 C207 0.945 . S
H188 C209 0.952 . S
H189 C210 0.949 . S
H190 C212 0.950 . S
H191 C213 0.948 . S
H192 C215 0.951 . S
H193 C180 0.947 . S
H194 C182 0.952 . S
H195 C183 0.950 . S
N196 C199 1.382 . S
N196 C201 1.363 . S
N197 C199 1.371 . S
N197 C200 1.372 . S
N198 C200 1.361 . S
N198 C201 1.377 . S
C199 N196 1.382 . S
C199 N197 1.371 . S
C199 C202 1.480 . S
C200 N197 1.372 . S
C200 N198 1.361 . S
C200 C208 1.457 . S
C201 N196 1.363 . S
C201 N198 1.377 . S
C201 C214 1.479 . S
C202 C199 1.480 . S
C202 C203 1.383 . S
C202 C207 1.385 . S
C203 H184 0.947 . S
C203 C202 1.383 . S
C203 C204 1.388 . S
C204 H185 0.946 . S
C204 C203 1.388 . S
C204 C205 1.384 . S
C205 C204 1.384 . S
C205 C206 1.377 . S
C206 H186 0.953 . S
C206 C205 1.377 . S
C206 C207 1.369 . S
C207 H187 0.945 . S
C207 C202 1.385 . S
C207 C206 1.369 . S
C208 C200 1.457 . S
C208 C209 1.372 . S
C208 C213 1.364 . S
C209 H188 0.952 . S
C209 C208 1.372 . S
C209 C210 1.389 . S
C210 H189 0.949 . S
C210 C209 1.389 . S
C210 C211 1.387 . S
C211 C210 1.387 . S
C211 C212 1.372 . S
C212 H190 0.950 . S
C212 C211 1.372 . S
C212 C213 1.379 . S
C213 H191 0.948 . S
C213 C208 1.364 . S
C213 C212 1.379 . S
C214 C183 1.383 . S
C214 C201 1.479 . S
C214 C215 1.398 . S
C215 C180 1.382 . S
C215 H192 0.951 . S
C215 C214 1.398 . S
C216 C217 1.384 . S
C216 H229 0.947 . S
C216 C251 1.382 . S
C217 C216 1.384 . S
C217 C218 1.378 . S
C218 C217 1.378 . S
C218 C219 1.378 . S
C218 H230 0.952 . S
C219 C218 1.378 . S
C219 H231 0.950 . S
C219 C250 1.383 . S
H220 C239 0.947 . S
H221 C240 0.946 . S
H222 C242 0.953 . S
H223 C243 0.945 . S
H224 C245 0.952 . S
H225 C246 0.949 . S
H226 C248 0.950 . S
H227 C249 0.948 . S
H228 C251 0.951 . S
H229 C216 0.947 . S
H230 C218 0.952 . S
H231 C219 0.950 . S
N232 C235 1.382 . S
N232 C237 1.363 . S
N233 C235 1.371 . S
N233 C236 1.372 . S
N234 C236 1.361 . S
N234 C237 1.377 . S
C235 N232 1.382 . S
C235 N233 1.371 . S
C235 C238 1.480 . S
C236 N233 1.372 . S
C236 N234 1.361 . S
C236 C244 1.457 . S
C237 N232 1.363 . S
C237 N234 1.377 . S
C237 C250 1.479 . S
C238 C235 1.480 . S
C238 C239 1.383 . S
C238 C243 1.385 . S
C239 H220 0.947 . S
C239 C238 1.383 . S
C239 C240 1.388 . S
C240 H221 0.946 . S
C240 C239 1.388 . S
C240 C241 1.384 . S
C241 C240 1.384 . S
C241 C242 1.377 . S
C242 H222 0.953 . S
C242 C241 1.377 . S
C242 C243 1.369 . S
C243 H223 0.945 . S
C243 C238 1.385 . S
C243 C242 1.369 . S
C244 C236 1.457 . S
C244 C245 1.372 . S
C244 C249 1.364 . S
C245 H224 0.952 . S
C245 C244 1.372 . S
C245 C246 1.389 . S
C246 H225 0.949 . S
C246 C245 1.389 . S
C246 C247 1.387 . S
C247 C246 1.387 . S
C247 C248 1.372 . S
C248 H226 0.950 . S
C248 C247 1.372 . S
C248 C249 1.379 . S
C249 H227 0.948 . S
C249 C244 1.364 . S
C249 C248 1.379 . S
C250 C219 1.383 . S
C250 C237 1.479 . S
C250 C251 1.398 . S
C251 C216 1.382 . S
C251 H228 0.951 . S
C251 C250 1.398 . S
C252 C253 1.384 . S
C252 H265 0.947 . S
C252 C287 1.382 . S
C253 C252 1.384 . S
C253 C254 1.378 . S
C254 C253 1.378 . S
C254 C255 1.378 . S
C254 H266 0.952 . S
C255 C254 1.378 . S
C255 H267 0.950 . S
C255 C286 1.383 . S
H256 C275 0.947 . S
H257 C276 0.946 . S
H258 C278 0.953 . S
H259 C279 0.945 . S
H260 C281 0.952 . S
H261 C282 0.949 . S
H262 C284 0.950 . S
H263 C285 0.948 . S
H264 C287 0.951 . S
H265 C252 0.947 . S
H266 C254 0.952 . S
H267 C255 0.950 . S
N268 C271 1.382 . S
N268 C273 1.363 . S
N269 C271 1.371 . S
N269 C272 1.372 . S
N270 C272 1.361 . S
N270 C273 1.377 . S
C271 N268 1.382 . S
C271 N269 1.371 . S
C271 C274 1.480 . S
C272 N269 1.372 . S
C272 N270 1.361 . S
C272 C280 1.457 . S
C273 N268 1.363 . S
C273 N270 1.377 . S
C273 C286 1.479 . S
C274 C271 1.480 . S
C274 C275 1.383 . S
C274 C279 1.385 . S
C275 H256 0.947 . S
C275 C274 1.383 . S
C275 C276 1.388 . S
C276 H257 0.946 . S
C276 C275 1.388 . S
C276 C277 1.384 . S
C277 C276 1.384 . S
C277 C278 1.377 . S
C278 H258 0.953 . S
C278 C277 1.377 . S
C278 C279 1.369 . S
C279 H259 0.945 . S
C279 C274 1.385 . S
C279 C278 1.369 . S
C280 C272 1.457 . S
C280 C281 1.372 . S
C280 C285 1.364 . S
C281 H260 0.952 . S
C281 C280 1.372 . S
C281 C282 1.389 . S
C282 H261 0.949 . S
C282 C281 1.389 . S
C282 C283 1.387 . S
C283 C282 1.387 . S
C283 C284 1.372 . S
C284 H262 0.950 . S
C284 C283 1.372 . S
C284 C285 1.379 . S
C285 H263 0.948 . S
C285 C280 1.364 . S
C285 C284 1.379 . S
C286 C255 1.383 . S
C286 C273 1.479 . S
C286 C287 1.398 . S
C287 C252 1.382 . S
C287 H264 0.951 . S
C287 C286 1.398 . S
Ho288 C291 2.811 . S
Ho288 O308 2.322 . S
Ho288 O310 2.378 . S
Ho288 O311 2.524 . S
Ho288 O312 2.381 1_545 S
Ho288 O313 2.669 1_545 S
Ho288 O315 2.346 1_445 S
Ho288 O319 2.305 1_455 S
Ho289 C300 2.811 . S
Ho289 O309 2.346 1_665 S
Ho289 O313 2.305 1_655 S
Ho289 O314 2.322 . S
Ho289 O316 2.378 . S
Ho289 O317 2.524 . S
Ho289 O318 2.381 1_565 S
Ho289 O319 2.669 1_565 S
C290 O308 1.259 . S
C290 O309 1.268 . S
C291 Ho288 2.811 . S
C291 C292 1.488 . S
C291 O310 1.215 . S
C291 O311 1.289 . S
C292 C291 1.488 . S
C292 C293 1.348 . S
C292 C297 1.413 . S
C293 C292 1.348 . S
C293 C294 1.442 . S
C293 H320 0.930 . S
C294 C293 1.442 . S
C294 C295 1.381 . S
C294 H321 0.931 . S
C295 C294 1.381 . S
C295 C296 1.321 . S
C296 C295 1.321 . S
C296 C297 1.403 . S
C296 H322 0.934 . S
C297 C292 1.413 . S
C297 C296 1.403 . S
C297 H323 0.930 . S
C298 O312 1.275 . S
C298 O313 1.256 . S
C299 O314 1.259 . S
C299 O315 1.268 . S
C300 Ho289 2.811 . S
C300 C301 1.488 . S
C300 O316 1.215 . S
C300 O317 1.289 . S
C301 C300 1.488 . S
C301 C302 1.348 . S
C301 C306 1.413 . S
C302 C301 1.348 . S
C302 C303 1.442 . S
C302 H324 0.930 . S
C303 C302 1.442 . S
C303 C304 1.381 . S
C303 H325 0.931 . S
C304 C303 1.381 . S
C304 C305 1.321 . S
C305 C304 1.321 . S
C305 C306 1.403 . S
C305 H326 0.934 . S
C306 C301 1.413 . S
C306 C305 1.403 . S
C306 H327 0.930 . S
C307 O318 1.275 . S
C307 O319 1.256 . S
O308 Ho288 2.322 . S
O308 C290 1.259 . S
O309 Ho289 2.346 1_445 S
O309 C290 1.268 . S
O310 Ho288 2.378 . S
O310 C291 1.215 . S
O311 Ho288 2.524 . S
O311 C291 1.289 . S
O312 Ho288 2.381 1_565 S
O312 C298 1.275 . S
O313 Ho288 2.669 1_565 S
O313 Ho289 2.305 1_455 S
O313 C298 1.256 . S
O314 Ho289 2.322 . S
O314 C299 1.259 . S
O315 Ho288 2.346 1_665 S
O315 C299 1.268 . S
O316 Ho289 2.378 . S
O316 C300 1.215 . S
O317 Ho289 2.524 . S
O317 C300 1.289 . S
O318 Ho289 2.381 1_545 S
O318 C307 1.275 . S
O319 Ho288 2.305 1_655 S
O319 Ho289 2.669 1_545 S
O319 C307 1.256 . S
H320 C293 0.930 . S
H321 C294 0.931 . S
H322 C296 0.934 . S
H323 C297 0.930 . S
H324 C302 0.930 . S
H325 C303 0.931 . S
H326 C305 0.934 . S
H327 C306 0.930 . S
Ho328 C331 2.809 . S
Ho328 O348 2.320 . S
Ho328 O350 2.378 . S
Ho328 O351 2.520 . S
Ho328 O352 2.384 1_545 S
Ho328 O353 2.671 1_545 S
Ho328 O355 2.348 1_544 S
Ho328 O359 2.302 1_554 S
Ho329 C340 2.811 1_545 S
Ho329 O349 2.346 1_556 S
Ho329 O353 2.305 1_546 S
Ho329 O354 2.322 1_545 S
Ho329 O356 2.378 1_545 S
Ho329 O357 2.524 1_545 S
Ho329 O358 2.381 . S
Ho329 O359 2.669 . S
C330 O348 1.259 . S
C330 O349 1.268 . S
C331 Ho328 2.809 . S
C331 C332 1.488 . S
C331 O350 1.215 . S
C331 O351 1.289 . S
C332 C331 1.488 . S
C332 C333 1.348 . S
C332 C337 1.413 . S
C333 C332 1.348 . S
C333 C334 1.442 . S
C333 H360 0.930 . S
C334 C333 1.442 . S
C334 C335 1.381 . S
C334 H361 0.931 . S
C335 C334 1.381 . S
C335 C336 1.321 . S
C336 C335 1.321 . S
C336 C337 1.403 . S
C336 H362 0.934 . S
C337 C332 1.413 . S
C337 C336 1.403 . S
C337 H363 0.930 . S
C338 O352 1.275 . S
C338 O353 1.256 . S
C339 O354 1.259 . S
C339 O355 1.268 . S
C340 Ho329 2.811 1_565 S
C340 C341 1.488 . S
C340 O356 1.215 . S
C340 O357 1.289 . S
C341 C340 1.488 . S
C341 C342 1.348 . S
C341 C346 1.413 . S
C342 C341 1.348 . S
C342 C343 1.442 . S
C342 H364 0.930 . S
C343 C342 1.442 . S
C343 C344 1.381 . S
C343 H365 0.931 . S
C344 C343 1.381 . S
C344 C345 1.321 . S
C345 C344 1.321 . S
C345 C346 1.403 . S
C345 H366 0.934 . S
C346 C341 1.413 . S
C346 C345 1.403 . S
C346 H367 0.930 . S
C347 O358 1.275 . S
C347 O359 1.256 . S
O348 Ho328 2.320 . S
O348 C330 1.259 . S
O349 Ho329 2.346 1_554 S
O349 C330 1.268 . S
O350 Ho328 2.378 . S
O350 C331 1.215 . S
O351 Ho328 2.520 . S
O351 C331 1.289 . S
O352 Ho328 2.384 1_565 S
O352 C338 1.275 . S
O353 Ho328 2.671 1_565 S
O353 Ho329 2.305 1_564 S
O353 C338 1.256 . S
O354 Ho329 2.322 1_565 S
O354 C339 1.259 . S
O355 Ho328 2.348 1_566 S
O355 C339 1.268 . S
O356 Ho329 2.378 1_565 S
O356 C340 1.215 . S
O357 Ho329 2.524 1_565 S
O357 C340 1.289 . S
O358 Ho329 2.381 . S
O358 C347 1.275 . S
O359 Ho328 2.302 1_556 S
O359 Ho329 2.669 . S
O359 C347 1.256 . S
H360 C333 0.930 . S
H361 C334 0.931 . S
H362 C336 0.934 . S
H363 C337 0.930 . S
H364 C342 0.930 . S
H365 C343 0.931 . S
H366 C345 0.934 . S
H367 C346 0.930 . S
Ho368 C371 2.811 . S
Ho368 O388 2.322 . S
Ho368 O390 2.378 . S
Ho368 O391 2.524 . S
Ho368 O392 2.381 . S
Ho368 O393 2.669 . S
Ho368 O395 2.346 . S
Ho368 O399 2.305 . S
Ho369 C380 2.811 . S
Ho369 O389 2.346 . S
Ho369 O393 2.305 . S
Ho369 O394 2.322 . S
Ho369 O396 2.378 . S
Ho369 O397 2.524 . S
Ho369 O398 2.381 . S
Ho369 O399 2.669 . S
C370 O388 1.259 . S
C370 O389 1.268 . S
C371 Ho368 2.811 . S
C371 C372 1.488 . S
C371 O390 1.215 . S
C371 O391 1.289 . S
C372 C371 1.488 . S
C372 C373 1.348 . S
C372 C377 1.413 . S
C373 C372 1.348 . S
C373 C374 1.442 . S
C373 H400 0.930 . S
C374 C373 1.442 . S
C374 C375 1.381 . S
C374 H401 0.931 . S
C375 C374 1.381 . S
C375 C376 1.321 . S
C376 C375 1.321 . S
C376 C377 1.403 . S
C376 H402 0.934 . S
C377 C372 1.413 . S
C377 C376 1.403 . S
C377 H403 0.930 . S
C378 O392 1.275 . S
C378 O393 1.256 . S
C379 O394 1.259 . S
C379 O395 1.268 . S
C380 Ho369 2.811 . S
C380 C381 1.488 . S
C380 O396 1.215 . S
C380 O397 1.289 . S
C381 C380 1.488 . S
C381 C382 1.348 . S
C381 C386 1.413 . S
C382 C381 1.348 . S
C382 C383 1.442 . S
C382 H404 0.930 . S
C383 C382 1.442 . S
C383 C384 1.381 . S
C383 H405 0.931 . S
C384 C383 1.381 . S
C384 C385 1.321 . S
C385 C384 1.321 . S
C385 C386 1.403 . S
C385 H406 0.934 . S
C386 C381 1.413 . S
C386 C385 1.403 . S
C386 H407 0.930 . S
C387 O398 1.275 . S
C387 O399 1.256 . S
O388 Ho368 2.322 . S
O388 C370 1.259 . S
O389 Ho369 2.346 . S
O389 C370 1.268 . S
O390 Ho368 2.378 . S
O390 C371 1.215 . S
O391 Ho368 2.524 . S
O391 C371 1.289 . S
O392 Ho368 2.381 . S
O392 C378 1.275 . S
O393 Ho368 2.669 . S
O393 Ho369 2.305 . S
O393 C378 1.256 . S
O394 Ho369 2.322 . S
O394 C379 1.259 . S
O395 Ho368 2.346 . S
O395 C379 1.268 . S
O396 Ho369 2.378 . S
O396 C380 1.215 . S
O397 Ho369 2.524 . S
O397 C380 1.289 . S
O398 Ho369 2.381 . S
O398 C387 1.275 . S
O399 Ho368 2.305 . S
O399 Ho369 2.669 . S
O399 C387 1.256 . S
H400 C373 0.930 . S
H401 C374 0.931 . S
H402 C376 0.934 . S
H403 C377 0.930 . S
H404 C382 0.930 . S
H405 C383 0.931 . S
H406 C385 0.934 . S
H407 C386 0.930 . S
Ho408 C411 2.811 . S
Ho408 O428 2.322 . S
Ho408 O430 2.378 . S
Ho408 O431 2.524 . S
Ho408 O432 2.381 1_455 S
Ho408 O433 2.669 1_455 S
Ho408 O435 2.368 1_455 S
Ho408 O439 2.305 1_554 S
Ho409 C420 2.811 1_455 S
Ho409 O429 2.346 1_556 S
Ho409 O433 2.305 1_456 S
Ho409 O434 2.322 1_455 S
Ho409 O436 2.378 1_455 S
Ho409 O437 2.524 1_455 S
Ho409 O438 2.381 . S
Ho409 O439 2.669 . S
C410 O428 1.259 . S
C410 O429 1.268 . S
C411 Ho408 2.811 . S
C411 C412 1.488 . S
C411 O430 1.215 . S
C411 O431 1.289 . S
C412 C411 1.488 . S
C412 C413 1.348 . S
C412 C417 1.413 . S
C413 C412 1.348 . S
C413 C414 1.442 . S
C413 H440 0.930 . S
C414 C413 1.442 . S
C414 C415 1.381 . S
C414 H441 0.931 . S
C415 C414 1.381 . S
C415 C416 1.321 . S
C416 C415 1.321 . S
C416 C417 1.403 . S
C416 H442 0.934 . S
C417 C412 1.413 . S
C417 C416 1.403 . S
C417 H443 0.930 . S
C418 O432 1.275 . S
C418 O433 1.256 . S
C419 O434 1.259 . S
C419 O435 1.238 1_556 S
C420 Ho409 2.811 1_655 S
C420 C421 1.488 . S
C420 O436 1.215 . S
C420 O437 1.289 . S
C421 C420 1.488 . S
C421 C422 1.348 . S
C421 C426 1.413 . S
C422 C421 1.348 . S
C422 C423 1.442 . S
C422 H444 0.930 . S
C423 C422 1.442 . S
C423 C424 1.381 . S
C423 H445 0.931 . S
C424 C423 1.381 . S
C424 C425 1.321 . S
C425 C424 1.321 . S
C425 C426 1.403 . S
C425 H446 0.934 . S
C426 C421 1.413 . S
C426 C425 1.403 . S
C426 H447 0.930 . S
C427 O438 1.275 . S
C427 O439 1.256 . S
O428 Ho408 2.322 . S
O428 C410 1.259 . S
O429 Ho409 2.346 1_554 S
O429 C410 1.268 . S
O430 Ho408 2.378 . S
O430 C411 1.215 . S
O431 Ho408 2.524 . S
O431 C411 1.289 . S
O432 Ho408 2.381 1_655 S
O432 C418 1.275 . S
O433 Ho408 2.669 1_655 S
O433 Ho409 2.305 1_654 S
O433 C418 1.256 . S
O434 Ho409 2.322 1_655 S
O434 C419 1.259 . S
O435 Ho408 2.368 1_655 S
O435 C419 1.238 1_554 S
O436 Ho409 2.378 1_655 S
O436 C420 1.215 . S
O437 Ho409 2.524 1_655 S
O437 C420 1.289 . S
O438 Ho409 2.381 . S
O438 C427 1.275 . S
O439 Ho408 2.305 1_556 S
O439 Ho409 2.669 . S
O439 C427 1.256 . S
H440 C413 0.930 . S
H441 C414 0.931 . S
H442 C416 0.934 . S
H443 C417 0.930 . S
H444 C422 0.930 . S
H445 C423 0.931 . S
H446 C425 0.934 . S
H447 C426 0.930 . S
C448 C449 1.349 . S
C448 C450 1.327 . S
C448 H473 0.950 . S
C449 C448 1.349 . S
C449 C465 1.349 . S
C450 C448 1.327 . S
C450 C469 1.429 . S
C450 H474 0.950 . S
C451 C468 1.574 . S
C451 C470 1.368 . S
C451 H475 0.949 . S
H452 C456 0.949 . S
C453 C454 1.349 . S
C453 C455 1.327 . S
C453 H476 0.950 . S
C454 C453 1.349 . S
C454 C466 1.349 . S
C455 C453 1.327 . S
C455 C471 1.429 . S
C455 H477 0.950 . S
C456 H452 0.949 . S
C456 C464 1.574 . S
C456 C472 1.368 . S
H457 C465 0.950 . S
H458 C463 0.950 . S
H459 C464 0.949 . S
H460 C466 0.950 . S
H461 C467 0.950 . S
H462 C468 0.949 . S
C463 H458 0.950 . S
C463 C465 1.327 . S
C463 C469 1.429 . S
C464 C456 1.574 . S
C464 H459 0.949 . S
C464 C470 1.368 . S
C465 C449 1.349 . S
C465 H457 0.950 . S
C465 C463 1.327 . S
C466 C454 1.349 . S
C466 H460 0.950 . S
C466 C467 1.327 . S
C467 H461 0.950 . S
C467 C466 1.327 . S
C467 C471 1.429 . S
C468 C451 1.574 . S
C468 H462 0.949 . S
C468 C472 1.368 . S
C469 C450 1.429 . S
C469 C463 1.429 . S
C469 C470 1.523 . S
C470 C451 1.368 . S
C470 C464 1.368 . S
C470 C469 1.523 . S
C471 C455 1.429 . S
C471 C467 1.429 . S
C471 C472 1.523 . S
C472 C456 1.368 . S
C472 C468 1.368 . S
C472 C471 1.523 . S
H473 C448 0.950 . S
H474 C450 0.950 . S
H475 C451 0.949 . S
H476 C453 0.950 . S
H477 C455 0.950 . S
C478 C479 1.349 . S
C478 C480 1.327 . S
C478 H503 0.950 . S
C479 C478 1.349 . S
C479 C495 1.349 . S
C480 C478 1.327 . S
C480 C499 1.429 . S
C480 H504 0.950 . S
C481 C498 1.574 . S
C481 C500 1.368 . S
C481 H505 0.949 . S
H482 C486 0.949 . S
C483 C484 1.349 . S
C483 C485 1.327 . S
C483 H506 0.950 . S
C484 C483 1.349 . S
C484 C496 1.349 . S
C485 C483 1.327 . S
C485 C501 1.429 . S
C485 H507 0.950 . S
C486 H482 0.949 . S
C486 C494 1.574 . S
C486 C502 1.368 . S
H487 C495 0.950 . S
H488 C493 0.950 . S
H489 C494 0.949 . S
H490 C496 0.950 . S
H491 C497 0.950 . S
H492 C498 0.949 . S
C493 H488 0.950 . S
C493 C495 1.327 . S
C493 C499 1.429 . S
C494 C486 1.574 . S
C494 H489 0.949 . S
C494 C500 1.368 . S
C495 C479 1.349 . S
C495 H487 0.950 . S
C495 C493 1.327 . S
C496 C484 1.349 . S
C496 H490 0.950 . S
C496 C497 1.327 . S
C497 H491 0.950 . S
C497 C496 1.327 . S
C497 C501 1.429 . S
C498 C481 1.574 . S
C498 H492 0.949 . S
C498 C502 1.368 . S
C499 C480 1.429 . S
C499 C493 1.429 . S
C499 C500 1.523 . S
C500 C481 1.368 . S
C500 C494 1.368 . S
C500 C499 1.523 . S
C501 C485 1.429 . S
C501 C497 1.429 . S
C501 C502 1.523 . S
C502 C486 1.368 . S
C502 C498 1.368 . S
C502 C501 1.523 . S
H503 C478 0.950 . S
H504 C480 0.950 . S
H505 C481 0.949 . S
H506 C483 0.950 . S
H507 C485 0.950 . S
C508 C509 1.349 . S
C508 C510 1.327 . S
C508 H533 0.950 . S
C509 C508 1.349 . S
C509 C525 1.349 . S
C510 C508 1.327 . S
C510 C529 1.429 . S
C510 H534 0.950 . S
C511 C528 1.574 . S
C511 C530 1.368 . S
C511 H535 0.949 . S
H512 C516 0.949 . S
C513 C514 1.349 . S
C513 C515 1.327 . S
C513 H536 0.950 . S
C514 C513 1.349 . S
C514 C526 1.349 . S
C515 C513 1.327 . S
C515 C531 1.429 . S
C515 H537 0.950 . S
C516 H512 0.949 . S
C516 C524 1.574 . S
C516 C532 1.368 . S
H517 C525 0.950 . S
H518 C523 0.950 . S
H519 C524 0.949 . S
H520 C526 0.950 . S
H521 C527 0.950 . S
H522 C528 0.949 . S
C523 H518 0.950 . S
C523 C525 1.327 . S
C523 C529 1.429 . S
C524 C516 1.574 . S
C524 H519 0.949 . S
C524 C530 1.368 . S
C525 C509 1.349 . S
C525 H517 0.950 . S
C525 C523 1.327 . S
C526 C514 1.349 . S
C526 H520 0.950 . S
C526 C527 1.327 . S
C527 H521 0.950 . S
C527 C526 1.327 . S
C527 C531 1.429 . S
C528 C511 1.574 . S
C528 H522 0.949 . S
C528 C532 1.368 . S
C529 C510 1.429 . S
C529 C523 1.429 . S
C529 C530 1.523 . S
C530 C511 1.368 . S
C530 C524 1.368 . S
C530 C529 1.523 . S
C531 C515 1.429 . S
C531 C527 1.429 . S
C531 C532 1.523 . S
C532 C516 1.368 . S
C532 C528 1.368 . S
C532 C531 1.523 . S
H533 C508 0.950 . S
H534 C510 0.950 . S
H535 C511 0.949 . S
H536 C513 0.950 . S
H537 C515 0.950 . S
C538 C539 1.349 . S
C538 C540 1.327 . S
C538 H563 0.950 . S
C539 C538 1.349 . S
C539 C555 1.349 . S
C540 C538 1.327 . S
C540 C559 1.429 . S
C540 H564 0.950 . S
C541 C558 1.574 . S
C541 C560 1.368 . S
C541 H565 0.949 . S
H542 C546 0.949 . S
C543 C544 1.349 . S
C543 C545 1.327 . S
C543 H566 0.950 . S
C544 C543 1.349 . S
C544 C556 1.349 . S
C545 C543 1.327 . S
C545 C561 1.429 . S
C545 H567 0.950 . S
C546 H542 0.949 . S
C546 C554 1.574 . S
C546 C562 1.368 . S
H547 C555 0.950 . S
H548 C553 0.950 . S
H549 C554 0.949 . S
H550 C556 0.950 . S
H551 C557 0.950 . S
H552 C558 0.949 . S
C553 H548 0.950 . S
C553 C555 1.327 . S
C553 C559 1.429 . S
C554 C546 1.574 . S
C554 H549 0.949 . S
C554 C560 1.368 . S
C555 C539 1.349 . S
C555 H547 0.950 . S
C555 C553 1.327 . S
C556 C544 1.349 . S
C556 H550 0.950 . S
C556 C557 1.327 . S
C557 H551 0.950 . S
C557 C556 1.327 . S
C557 C561 1.429 . S
C558 C541 1.574 . S
C558 H552 0.949 . S
C558 C562 1.368 . S
C559 C540 1.429 . S
C559 C553 1.429 . S
C559 C560 1.523 . S
C560 C541 1.368 . S
C560 C554 1.368 . S
C560 C559 1.523 . S
C561 C545 1.429 . S
C561 C557 1.429 . S
C561 C562 1.523 . S
C562 C546 1.368 . S
C562 C558 1.368 . S
C562 C561 1.523 . S
H563 C538 0.950 . S
H564 C540 0.950 . S
H565 C541 0.949 . S
H566 C543 0.950 . S
H567 C545 0.950 . S
C568 C569 1.349 . S
C568 C570 1.327 . S
C568 H593 0.950 . S
C569 C568 1.349 . S
C569 C585 1.349 . S
C570 C568 1.327 . S
C570 C589 1.429 . S
C570 H594 0.950 . S
C571 C588 1.574 . S
C571 C590 1.368 . S
C571 H595 0.949 . S
H572 C576 0.949 . S
C573 C574 1.349 . S
C573 C575 1.327 . S
C573 H596 0.950 . S
C574 C573 1.349 . S
C574 C586 1.349 . S
C575 C573 1.327 . S
C575 C591 1.429 . S
C575 H597 0.950 . S
C576 H572 0.949 . S
C576 C584 1.574 . S
C576 C592 1.368 . S
H577 C585 0.950 . S
H578 C583 0.950 . S
H579 C584 0.949 . S
H580 C586 0.950 . S
H581 C587 0.950 . S
H582 C588 0.949 . S
C583 H578 0.950 . S
C583 C585 1.327 . S
C583 C589 1.429 . S
C584 C576 1.574 . S
C584 H579 0.949 . S
C584 C590 1.368 . S
C585 C569 1.349 . S
C585 H577 0.950 . S
C585 C583 1.327 . S
C586 C574 1.349 . S
C586 H580 0.950 . S
C586 C587 1.327 . S
C587 H581 0.950 . S
C587 C586 1.327 . S
C587 C591 1.429 . S
C588 C571 1.574 . S
C588 H582 0.949 . S
C588 C592 1.368 . S
C589 C570 1.429 . S
C589 C583 1.429 . S
C589 C590 1.523 . S
C590 C571 1.368 . S
C590 C584 1.368 . S
C590 C589 1.523 . S
C591 C575 1.429 . S
C591 C587 1.429 . S
C591 C592 1.523 . S
C592 C576 1.368 . S
C592 C588 1.368 . S
C592 C591 1.523 . S
H593 C568 0.950 . S
H594 C570 0.950 . S
H595 C571 0.949 . S
H596 C573 0.950 . S
H597 C575 0.950 . S
C598 C599 1.349 . S
C598 C600 1.327 . S
C598 H623 0.950 . S
C599 C598 1.349 . S
C599 C615 1.349 . S
C600 C598 1.327 . S
C600 C619 1.429 . S
C600 H624 0.950 . S
C601 C618 1.574 . S
C601 C620 1.368 . S
C601 H625 0.949 . S
H602 C606 0.949 . S
C603 C604 1.349 . S
C603 C605 1.327 . S
C603 H626 0.950 . S
C604 C603 1.349 . S
C604 C616 1.349 . S
C605 C603 1.327 . S
C605 C621 1.429 . S
C605 H627 0.950 . S
C606 H602 0.949 . S
C606 C614 1.574 . S
C606 C622 1.368 . S
H607 C615 0.950 . S
H608 C613 0.950 . S
H609 C614 0.949 . S
H610 C616 0.950 . S
H611 C617 0.950 . S
H612 C618 0.949 . S
C613 H608 0.950 . S
C613 C615 1.327 . S
C613 C619 1.429 . S
C614 C606 1.574 . S
C614 H609 0.949 . S
C614 C620 1.368 . S
C615 C599 1.349 . S
C615 H607 0.950 . S
C615 C613 1.327 . S
C616 C604 1.349 . S
C616 H610 0.950 . S
C616 C617 1.327 . S
C617 H611 0.950 . S
C617 C616 1.327 . S
C617 C621 1.429 . S
C618 C601 1.574 . S
C618 H612 0.949 . S
C618 C622 1.368 . S
C619 C600 1.429 . S
C619 C613 1.429 . S
C619 C620 1.523 . S
C620 C601 1.368 . S
C620 C614 1.368 . S
C620 C619 1.523 . S
C621 C605 1.429 . S
C621 C617 1.429 . S
C621 C622 1.523 . S
C622 C606 1.368 . S
C622 C618 1.368 . S
C622 C621 1.523 . S
H623 C598 0.950 . S
H624 C600 0.950 . S
H625 C601 0.949 . S
H626 C603 0.950 . S
H627 C605 0.950 . S
C628 C629 1.349 . S
C628 C630 1.327 . S
C628 H653 0.950 . S
C629 C628 1.349 . S
C629 C645 1.349 . S
C630 C628 1.327 . S
C630 C649 1.429 . S
C630 H654 0.950 . S
C631 C648 1.574 . S
C631 C650 1.368 . S
C631 H655 0.949 . S
H632 C636 0.949 . S
C633 C634 1.349 . S
C633 C635 1.327 . S
C633 H656 0.950 . S
C634 C633 1.349 . S
C634 C646 1.349 . S
C635 C633 1.327 . S
C635 C651 1.429 . S
C635 H657 0.950 . S
C636 H632 0.949 . S
C636 C644 1.574 . S
C636 C652 1.368 . S
H637 C645 0.950 . S
H638 C643 0.950 . S
H639 C644 0.949 . S
H640 C646 0.950 . S
H641 C647 0.950 . S
H642 C648 0.949 . S
C643 H638 0.950 . S
C643 C645 1.327 . S
C643 C649 1.429 . S
C644 C636 1.574 . S
C644 H639 0.949 . S
C644 C650 1.368 . S
C645 C629 1.349 . S
C645 H637 0.950 . S
C645 C643 1.327 . S
C646 C634 1.349 . S
C646 H640 0.950 . S
C646 C647 1.327 . S
C647 H641 0.950 . S
C647 C646 1.327 . S
C647 C651 1.429 . S
C648 C631 1.574 . S
C648 H642 0.949 . S
C648 C652 1.368 . S
C649 C630 1.429 . S
C649 C643 1.429 . S
C649 C650 1.523 . S
C650 C631 1.368 . S
C650 C644 1.368 . S
C650 C649 1.523 . S
C651 C635 1.429 . S
C651 C647 1.429 . S
C651 C652 1.523 . S
C652 C636 1.368 . S
C652 C648 1.368 . S
C652 C651 1.523 . S
H653 C628 0.950 . S
H654 C630 0.950 . S
H655 C631 0.949 . S
H656 C633 0.950 . S
H657 C635 0.950 . S
C658 C659 1.349 . S
C658 C660 1.327 . S
C658 H683 0.950 . S
C659 C658 1.349 . S
C659 C675 1.349 . S
C660 C658 1.327 . S
C660 C679 1.429 . S
C660 H684 0.950 . S
C661 C678 1.574 . S
C661 C680 1.368 . S
C661 H685 0.949 . S
H662 C666 0.949 . S
C663 C664 1.349 . S
C663 C665 1.327 . S
C663 H686 0.950 . S
C664 C663 1.349 . S
C664 C676 1.349 . S
C665 C663 1.327 . S
C665 C681 1.429 . S
C665 H687 0.950 . S
C666 H662 0.949 . S
C666 C674 1.574 . S
C666 C682 1.368 . S
H667 C675 0.950 . S
H668 C673 0.950 . S
H669 C674 0.949 . S
H670 C676 0.950 . S
H671 C677 0.950 . S
H672 C678 0.949 . S
C673 H668 0.950 . S
C673 C675 1.327 . S
C673 C679 1.429 . S
C674 C666 1.574 . S
C674 H669 0.949 . S
C674 C680 1.368 . S
C675 C659 1.349 . S
C675 H667 0.950 . S
C675 C673 1.327 . S
C676 C664 1.349 . S
C676 H670 0.950 . S
C676 C677 1.327 . S
C677 H671 0.950 . S
C677 C676 1.327 . S
C677 C681 1.429 . S
C678 C661 1.574 . S
C678 H672 0.949 . S
C678 C682 1.368 . S
C679 C660 1.429 . S
C679 C673 1.429 . S
C679 C680 1.523 . S
C680 C661 1.368 . S
C680 C674 1.368 . S
C680 C679 1.523 . S
C681 C665 1.429 . S
C681 C677 1.429 . S
C681 C682 1.523 . S
C682 C666 1.368 . S
C682 C678 1.368 . S
C682 C681 1.523 . S
H683 C658 0.950 . S
H684 C660 0.950 . S
H685 C661 0.949 . S
H686 C663 0.950 . S
H687 C665 0.950 . S
C688 C689 1.349 . S
C688 C690 1.327 . S
C688 H713 0.950 . S
C689 C688 1.349 . S
C689 C705 1.349 . S
C690 C688 1.327 . S
C690 C709 1.429 . S
C690 H714 0.950 . S
C691 C708 1.574 . S
C691 C710 1.368 . S
C691 H715 0.949 . S
H692 C696 0.949 . S
C693 C694 1.349 . S
C693 C695 1.327 . S
C693 H716 0.950 . S
C694 C693 1.349 . S
C694 C706 1.349 . S
C695 C693 1.327 . S
C695 C711 1.429 . S
C695 H717 0.950 . S
C696 H692 0.949 . S
C696 C704 1.574 . S
C696 C712 1.368 . S
H697 C705 0.950 . S
H698 C703 0.950 . S
H699 C704 0.949 . S
H700 C706 0.950 . S
H701 C707 0.950 . S
H702 C708 0.949 . S
C703 H698 0.950 . S
C703 C705 1.327 . S
C703 C709 1.429 . S
C704 C696 1.574 . S
C704 H699 0.949 . S
C704 C710 1.368 . S
C705 C689 1.349 . S
C705 H697 0.950 . S
C705 C703 1.327 . S
C706 C694 1.349 . S
C706 H700 0.950 . S
C706 C707 1.327 . S
C707 H701 0.950 . S
C707 C706 1.327 . S
C707 C711 1.429 . S
C708 C691 1.574 . S
C708 H702 0.949 . S
C708 C712 1.368 . S
C709 C690 1.429 . S
C709 C703 1.429 . S
C709 C710 1.523 . S
C710 C691 1.368 . S
C710 C704 1.368 . S
C710 C709 1.523 . S
C711 C695 1.429 . S
C711 C707 1.429 . S
C711 C712 1.523 . S
C712 C696 1.368 . S
C712 C708 1.368 . S
C712 C711 1.523 . S
H713 C688 0.950 . S
H714 C690 0.950 . S
H715 C691 0.949 . S
H716 C693 0.950 . S
H717 C695 0.950 . S
C718 C719 1.349 . S
C718 C720 1.327 . S
C718 H743 0.950 . S
C719 C718 1.349 . S
C719 C735 1.349 . S
C720 C718 1.327 . S
C720 C739 1.429 . S
C720 H744 0.950 . S
C721 C738 1.574 . S
C721 C740 1.368 . S
C721 H745 0.949 . S
H722 C726 0.949 . S
C723 C724 1.349 . S
C723 C725 1.327 . S
C723 H746 0.950 . S
C724 C723 1.349 . S
C724 C736 1.349 . S
C725 C723 1.327 . S
C725 C741 1.429 . S
C725 H747 0.950 . S
C726 H722 0.949 . S
C726 C734 1.574 . S
C726 C742 1.368 . S
H727 C735 0.950 . S
H728 C733 0.950 . S
H729 C734 0.949 . S
H730 C736 0.950 . S
H731 C737 0.950 . S
H732 C738 0.949 . S
C733 H728 0.950 . S
C733 C735 1.327 . S
C733 C739 1.429 . S
C734 C726 1.574 . S
C734 H729 0.949 . S
C734 C740 1.368 . S
C735 C719 1.349 . S
C735 H727 0.950 . S
C735 C733 1.327 . S
C736 C724 1.349 . S
C736 H730 0.950 . S
C736 C737 1.327 . S
C737 H731 0.950 . S
C737 C736 1.327 . S
C737 C741 1.429 . S
C738 C721 1.574 . S
C738 H732 0.949 . S
C738 C742 1.368 . S
C739 C720 1.429 . S
C739 C733 1.429 . S
C739 C740 1.523 . S
C740 C721 1.368 . S
C740 C734 1.368 . S
C740 C739 1.523 . S
C741 C725 1.429 . S
C741 C737 1.429 . S
C741 C742 1.523 . S
C742 C726 1.368 . S
C742 C738 1.368 . S
C742 C741 1.523 . S
H743 C718 0.950 . S
H744 C720 0.950 . S
H745 C721 0.949 . S
H746 C723 0.950 . S
H747 C725 0.950 . S
C748 C749 1.349 . S
C748 C750 1.327 . S
C748 H773 0.950 . S
C749 C748 1.349 . S
C749 C765 1.349 . S
C750 C748 1.327 . S
C750 C769 1.429 . S
C750 H774 0.950 . S
C751 C768 1.574 . S
C751 C770 1.368 . S
C751 H775 0.949 . S
H752 C756 0.949 . S
C753 C754 1.349 . S
C753 C755 1.327 . S
C753 H776 0.950 . S
C754 C753 1.349 . S
C754 C766 1.349 . S
C755 C753 1.327 . S
C755 C771 1.429 . S
C755 H777 0.950 . S
C756 H752 0.949 . S
C756 C764 1.574 . S
C756 C772 1.368 . S
H757 C765 0.950 . S
H758 C763 0.950 . S
H759 C764 0.949 . S
H760 C766 0.950 . S
H761 C767 0.950 . S
H762 C768 0.949 . S
C763 H758 0.950 . S
C763 C765 1.327 . S
C763 C769 1.429 . S
C764 C756 1.574 . S
C764 H759 0.949 . S
C764 C770 1.368 . S
C765 C749 1.349 . S
C765 H757 0.950 . S
C765 C763 1.327 . S
C766 C754 1.349 . S
C766 H760 0.950 . S
C766 C767 1.327 . S
C767 H761 0.950 . S
C767 C766 1.327 . S
C767 C771 1.429 . S
C768 C751 1.574 . S
C768 H762 0.949 . S
C768 C772 1.368 . S
C769 C750 1.429 . S
C769 C763 1.429 . S
C769 C770 1.523 . S
C770 C751 1.368 . S
C770 C764 1.368 . S
C770 C769 1.523 . S
C771 C755 1.429 . S
C771 C767 1.429 . S
C771 C772 1.523 . S
C772 C756 1.368 . S
C772 C768 1.368 . S
C772 C771 1.523 . S
H773 C748 0.950 . S
H774 C750 0.950 . S
H775 C751 0.949 . S
H776 C753 0.950 . S
H777 C755 0.950 . S
C778 C779 1.349 . S
C778 C780 1.327 . S
C778 H803 0.950 . S
C779 C778 1.349 . S
C779 C795 1.349 . S
C780 C778 1.327 . S
C780 C799 1.429 . S
C780 H804 0.950 . S
C781 C798 1.574 . S
C781 C800 1.368 . S
C781 H805 0.949 . S
H782 C786 0.949 . S
C783 C784 1.349 . S
C783 C785 1.327 . S
C783 H806 0.950 . S
C784 C783 1.349 . S
C784 C796 1.349 . S
C785 C783 1.327 . S
C785 C801 1.429 . S
C785 H807 0.950 . S
C786 H782 0.949 . S
C786 C794 1.574 . S
C786 C802 1.368 . S
H787 C795 0.950 . S
H788 C793 0.950 . S
H789 C794 0.949 . S
H790 C796 0.950 . S
H791 C797 0.950 . S
H792 C798 0.949 . S
C793 H788 0.950 . S
C793 C795 1.327 . S
C793 C799 1.429 . S
C794 C786 1.574 . S
C794 H789 0.949 . S
C794 C800 1.368 . S
C795 C779 1.349 . S
C795 H787 0.950 . S
C795 C793 1.327 . S
C796 C784 1.349 . S
C796 H790 0.950 . S
C796 C797 1.327 . S
C797 H791 0.950 . S
C797 C796 1.327 . S
C797 C801 1.429 . S
C798 C781 1.574 . S
C798 H792 0.949 . S
C798 C802 1.368 . S
C799 C780 1.429 . S
C799 C793 1.429 . S
C799 C800 1.523 . S
C800 C781 1.368 . S
C800 C794 1.368 . S
C800 C799 1.523 . S
C801 C785 1.429 . S
C801 C797 1.429 . S
C801 C802 1.523 . S
C802 C786 1.368 . S
C802 C798 1.368 . S
C802 C801 1.523 . S
H803 C778 0.950 . S
H804 C780 0.950 . S
H805 C781 0.949 . S
H806 C783 0.950 . S
H807 C785 0.950 . S
C808 C809 1.349 . S
C808 C810 1.327 . S
C808 H833 0.950 . S
C809 C808 1.349 . S
C809 C825 1.349 . S
C810 C808 1.327 . S
C810 C829 1.429 . S
C810 H834 0.950 . S
C811 C828 1.574 . S
C811 C830 1.368 . S
C811 H835 0.949 . S
H812 C816 0.949 . S
C813 C814 1.349 . S
C813 C815 1.327 . S
C813 H836 0.950 . S
C814 C813 1.349 . S
C814 C826 1.349 . S
C815 C813 1.327 . S
C815 C831 1.429 . S
C815 H837 0.950 . S
C816 H812 0.949 . S
C816 C824 1.574 . S
C816 C832 1.368 . S
H817 C825 0.950 . S
H818 C823 0.950 . S
H819 C824 0.949 . S
H820 C826 0.950 . S
H821 C827 0.950 . S
H822 C828 0.949 . S
C823 H818 0.950 . S
C823 C825 1.327 . S
C823 C829 1.429 . S
C824 C816 1.574 . S
C824 H819 0.949 . S
C824 C830 1.368 . S
C825 C809 1.349 . S
C825 H817 0.950 . S
C825 C823 1.327 . S
C826 C814 1.349 . S
C826 H820 0.950 . S
C826 C827 1.327 . S
C827 H821 0.950 . S
C827 C826 1.327 . S
C827 C831 1.429 . S
C828 C811 1.574 . S
C828 H822 0.949 . S
C828 C832 1.368 . S
C829 C810 1.429 . S
C829 C823 1.429 . S
C829 C830 1.523 . S
C830 C811 1.368 . S
C830 C824 1.368 . S
C830 C829 1.523 . S
C831 C815 1.429 . S
C831 C827 1.429 . S
C831 C832 1.523 . S
C832 C816 1.368 . S
C832 C828 1.368 . S
C832 C831 1.523 . S
H833 C808 0.950 . S
H834 C810 0.950 . S
H835 C811 0.949 . S
H836 C813 0.950 . S
H837 C815 0.950 . S
C838 C839 1.349 . S
C838 C840 1.327 . S
C838 H863 0.950 . S
C839 C838 1.349 . S
C839 C855 1.349 . S
C840 C838 1.327 . S
C840 C859 1.429 . S
C840 H864 0.950 . S
C841 C858 1.574 . S
C841 C860 1.368 . S
C841 H865 0.949 . S
H842 C846 0.949 . S
C843 C844 1.349 . S
C843 C845 1.327 . S
C843 H866 0.950 . S
C844 C843 1.349 . S
C844 C856 1.349 . S
C845 C843 1.327 . S
C845 C861 1.429 . S
C845 H867 0.950 . S
C846 H842 0.949 . S
C846 C854 1.574 . S
C846 C862 1.368 . S
H847 C855 0.950 . S
H848 C853 0.950 . S
H849 C854 0.949 . S
H850 C856 0.950 . S
H851 C857 0.950 . S
H852 C858 0.949 . S
C853 H848 0.950 . S
C853 C855 1.327 . S
C853 C859 1.429 . S
C854 C846 1.574 . S
C854 H849 0.949 . S
C854 C860 1.368 . S
C855 C839 1.349 . S
C855 H847 0.950 . S
C855 C853 1.327 . S
C856 C844 1.349 . S
C856 H850 0.950 . S
C856 C857 1.327 . S
C857 H851 0.950 . S
C857 C856 1.327 . S
C857 C861 1.429 . S
C858 C841 1.574 . S
C858 H852 0.949 . S
C858 C862 1.368 . S
C859 C840 1.429 . S
C859 C853 1.429 . S
C859 C860 1.523 . S
C860 C841 1.368 . S
C860 C854 1.368 . S
C860 C859 1.523 . S
C861 C845 1.429 . S
C861 C857 1.429 . S
C861 C862 1.523 . S
C862 C846 1.368 . S
C862 C858 1.368 . S
C862 C861 1.523 . S
H863 C838 0.950 . S
H864 C840 0.950 . S
H865 C841 0.949 . S
H866 C843 0.950 . S
H867 C845 0.950 . S
C868 C869 1.349 . S
C868 C870 1.327 . S
C868 H893 0.950 . S
C869 C868 1.349 . S
C869 C885 1.349 . S
C870 C868 1.327 . S
C870 C889 1.429 . S
C870 H894 0.950 . S
C871 C888 1.574 . S
C871 C890 1.368 . S
C871 H895 0.949 . S
H872 C876 0.949 . S
C873 C874 1.349 . S
C873 C875 1.327 . S
C873 H896 0.950 . S
C874 C873 1.349 . S
C874 C886 1.349 . S
C875 C873 1.327 . S
C875 C891 1.429 . S
C875 H897 0.950 . S
C876 H872 0.949 . S
C876 C884 1.574 . S
C876 C892 1.368 . S
H877 C885 0.950 . S
H878 C883 0.950 . S
H879 C884 0.949 . S
H880 C886 0.950 . S
H881 C887 0.950 . S
H882 C888 0.949 . S
C883 H878 0.950 . S
C883 C885 1.327 . S
C883 C889 1.429 . S
C884 C876 1.574 . S
C884 H879 0.949 . S
C884 C890 1.368 . S
C885 C869 1.349 . S
C885 H877 0.950 . S
C885 C883 1.327 . S
C886 C874 1.349 . S
C886 H880 0.950 . S
C886 C887 1.327 . S
C887 H881 0.950 . S
C887 C886 1.327 . S
C887 C891 1.429 . S
C888 C871 1.574 . S
C888 H882 0.949 . S
C888 C892 1.368 . S
C889 C870 1.429 . S
C889 C883 1.429 . S
C889 C890 1.523 . S
C890 C871 1.368 . S
C890 C884 1.368 . S
C890 C889 1.523 . S
C891 C875 1.429 . S
C891 C887 1.429 . S
C891 C892 1.523 . S
C892 C876 1.368 . S
C892 C888 1.368 . S
C892 C891 1.523 . S
H893 C868 0.950 . S
H894 C870 0.950 . S
H895 C871 0.949 . S
H896 C873 0.950 . S
H897 C875 0.950 . S
C898 C899 1.349 . S
C898 C900 1.327 . S
C898 H923 0.950 . S
C899 C898 1.349 . S
C899 C915 1.349 . S
C900 C898 1.327 . S
C900 C919 1.429 . S
C900 H924 0.950 . S
C901 C918 1.574 . S
C901 C920 1.368 . S
C901 H925 0.949 . S
H902 C906 0.949 . S
C903 C904 1.349 . S
C903 C905 1.327 . S
C903 H926 0.950 . S
C904 C903 1.349 . S
C904 C916 1.349 . S
C905 C903 1.327 . S
C905 C921 1.429 . S
C905 H927 0.950 . S
C906 H902 0.949 . S
C906 C914 1.574 . S
C906 C922 1.368 . S
H907 C915 0.950 . S
H908 C913 0.950 . S
H909 C914 0.949 . S
H910 C916 0.950 . S
H911 C917 0.950 . S
H912 C918 0.949 . S
C913 H908 0.950 . S
C913 C915 1.327 . S
C913 C919 1.429 . S
C914 C906 1.574 . S
C914 H909 0.949 . S
C914 C920 1.368 . S
C915 C899 1.349 . S
C915 H907 0.950 . S
C915 C913 1.327 . S
C916 C904 1.349 . S
C916 H910 0.950 . S
C916 C917 1.327 . S
C917 H911 0.950 . S
C917 C916 1.327 . S
C917 C921 1.429 . S
C918 C901 1.574 . S
C918 H912 0.949 . S
C918 C922 1.368 . S
C919 C900 1.429 . S
C919 C913 1.429 . S
C919 C920 1.523 . S
C920 C901 1.368 . S
C920 C914 1.368 . S
C920 C919 1.523 . S
C921 C905 1.429 . S
C921 C917 1.429 . S
C921 C922 1.523 . S
C922 C906 1.368 . S
C922 C918 1.368 . S
C922 C921 1.523 . S
H923 C898 0.950 . S
H924 C900 0.950 . S
H925 C901 0.949 . S
H926 C903 0.950 . S
H927 C905 0.950 . S
C928 C929 1.349 . S
C928 C930 1.327 . S
C928 H953 0.950 . S
C929 C928 1.349 . S
C929 C945 1.349 . S
C930 C928 1.327 . S
C930 C949 1.429 . S
C930 H954 0.950 . S
C931 C948 1.574 . S
C931 C950 1.368 . S
C931 H955 0.949 . S
H932 C936 0.949 . S
C933 C934 1.349 . S
C933 C935 1.327 . S
C933 H956 0.950 . S
C934 C933 1.349 . S
C934 C946 1.349 . S
C935 C933 1.327 . S
C935 C951 1.429 . S
C935 H957 0.950 . S
C936 H932 0.949 . S
C936 C944 1.574 . S
C936 C952 1.368 . S
H937 C945 0.950 . S
H938 C943 0.950 . S
H939 C944 0.949 . S
H940 C946 0.950 . S
H941 C947 0.950 . S
H942 C948 0.949 . S
C943 H938 0.950 . S
C943 C945 1.327 . S
C943 C949 1.429 . S
C944 C936 1.574 . S
C944 H939 0.949 . S
C944 C950 1.368 . S
C945 C929 1.349 . S
C945 H937 0.950 . S
C945 C943 1.327 . S
C946 C934 1.349 . S
C946 H940 0.950 . S
C946 C947 1.327 . S
C947 H941 0.950 . S
C947 C946 1.327 . S
C947 C951 1.429 . S
C948 C931 1.574 . S
C948 H942 0.949 . S
C948 C952 1.368 . S
C949 C930 1.429 . S
C949 C943 1.429 . S
C949 C950 1.523 . S
C950 C931 1.368 . S
C950 C944 1.368 . S
C950 C949 1.523 . S
C951 C935 1.429 . S
C951 C947 1.429 . S
C951 C952 1.523 . S
C952 C936 1.368 . S
C952 C948 1.368 . S
C952 C951 1.523 . S
H953 C928 0.950 . S
H954 C930 0.950 . S
H955 C931 0.949 . S
H956 C933 0.950 . S
H957 C935 0.950 . S
C958 C959 1.349 . S
C958 C960 1.327 . S
C958 H983 0.950 . S
C959 C958 1.349 . S
C959 C975 1.349 . S
C960 C958 1.327 . S
C960 C979 1.429 . S
C960 H984 0.950 . S
C961 C978 1.574 . S
C961 C980 1.368 . S
C961 H985 0.949 . S
H962 C966 0.949 . S
C963 C964 1.349 . S
C963 C965 1.327 . S
C963 H986 0.950 . S
C964 C963 1.349 . S
C964 C976 1.349 . S
C965 C963 1.327 . S
C965 C981 1.429 . S
C965 H987 0.950 . S
C966 H962 0.949 . S
C966 C974 1.574 . S
C966 C982 1.368 . S
H967 C975 0.950 . S
H968 C973 0.950 . S
H969 C974 0.949 . S
H970 C976 0.950 . S
H971 C977 0.950 . S
H972 C978 0.949 . S
C973 H968 0.950 . S
C973 C975 1.327 . S
C973 C979 1.429 . S
C974 C966 1.574 . S
C974 H969 0.949 . S
C974 C980 1.368 . S
C975 C959 1.349 . S
C975 H967 0.950 . S
C975 C973 1.327 . S
C976 C964 1.349 . S
C976 H970 0.950 . S
C976 C977 1.327 . S
C977 H971 0.950 . S
C977 C976 1.327 . S
C977 C981 1.429 . S
C978 C961 1.574 . S
C978 H972 0.949 . S
C978 C982 1.368 . S
C979 C960 1.429 . S
C979 C973 1.429 . S
C979 C980 1.523 . S
C980 C961 1.368 . S
C980 C974 1.368 . S
C980 C979 1.523 . S
C981 C965 1.429 . S
C981 C977 1.429 . S
C981 C982 1.523 . S
C982 C966 1.368 . S
C982 C978 1.368 . S
C982 C981 1.523 . S
H983 C958 0.950 . S
H984 C960 0.950 . S
H985 C961 0.949 . S
H986 C963 0.950 . S
H987 C965 0.950 . S
C988 C989 1.349 . S
C988 C990 1.327 . S
C988 H1013 0.950 . S
C989 C988 1.349 . S
C989 C1005 1.349 . S
C990 C988 1.327 . S
C990 C1009 1.429 . S
C990 H1014 0.950 . S
C991 C1008 1.574 . S
C991 C1010 1.368 . S
C991 H1015 0.949 . S
H992 C996 0.949 . S
C993 C994 1.349 . S
C993 C995 1.327 . S
C993 H1016 0.950 . S
C994 C993 1.349 . S
C994 C1006 1.349 . S
C995 C993 1.327 . S
C995 C1011 1.429 . S
C995 H1017 0.950 . S
C996 H992 0.949 . S
C996 C1004 1.574 . S
C996 C1012 1.368 . S
H997 C1005 0.950 . S
H998 C1003 0.950 . S
H999 C1004 0.949 . S
H1000 C1006 0.950 . S
H1001 C1007 0.950 . S
H1002 C1008 0.949 . S
C1003 H998 0.950 . S
C1003 C1005 1.327 . S
C1003 C1009 1.429 . S
C1004 C996 1.574 . S
C1004 H999 0.949 . S
C1004 C1010 1.368 . S
C1005 C989 1.349 . S
C1005 H997 0.950 . S
C1005 C1003 1.327 . S
C1006 C994 1.349 . S
C1006 H1000 0.950 . S
C1006 C1007 1.327 . S
C1007 H1001 0.950 . S
C1007 C1006 1.327 . S
C1007 C1011 1.429 . S
C1008 C991 1.574 . S
C1008 H1002 0.949 . S
C1008 C1012 1.368 . S
C1009 C990 1.429 . S
C1009 C1003 1.429 . S
C1009 C1010 1.523 . S
C1010 C991 1.368 . S
C1010 C1004 1.368 . S
C1010 C1009 1.523 . S
C1011 C995 1.429 . S
C1011 C1007 1.429 . S
C1011 C1012 1.523 . S
C1012 C996 1.368 . S
C1012 C1008 1.368 . S
C1012 C1011 1.523 . S
H1013 C988 0.950 . S
H1014 C990 0.950 . S
H1015 C991 0.949 . S
H1016 C993 0.950 . S
H1017 C995 0.950 . S
C1018 C1019 1.349 . S
C1018 C1020 1.327 . S
C1018 H1043 0.950 . S
C1019 C1018 1.349 . S
C1019 C1035 1.349 . S
C1020 C1018 1.327 . S
C1020 C1039 1.429 . S
C1020 H1044 0.950 . S
C1021 C1038 1.574 . S
C1021 C1040 1.368 . S
C1021 H1045 0.949 . S
H1022 C1026 0.949 . S
C1023 C1024 1.349 . S
C1023 C1025 1.327 . S
C1023 H1046 0.950 . S
C1024 C1023 1.349 . S
C1024 C1036 1.349 . S
C1025 C1023 1.327 . S
C1025 C1041 1.429 . S
C1025 H1047 0.950 . S
C1026 H1022 0.949 . S
C1026 C1034 1.574 . S
C1026 C1042 1.368 . S
H1027 C1035 0.950 . S
H1028 C1033 0.950 . S
H1029 C1034 0.949 . S
H1030 C1036 0.950 . S
H1031 C1037 0.950 . S
H1032 C1038 0.949 . S
C1033 H1028 0.950 . S
C1033 C1035 1.327 . S
C1033 C1039 1.429 . S
C1034 C1026 1.574 . S
C1034 H1029 0.949 . S
C1034 C1040 1.368 . S
C1035 C1019 1.349 . S
C1035 H1027 0.950 . S
C1035 C1033 1.327 . S
C1036 C1024 1.349 . S
C1036 H1030 0.950 . S
C1036 C1037 1.327 . S
C1037 H1031 0.950 . S
C1037 C1036 1.327 . S
C1037 C1041 1.429 . S
C1038 C1021 1.574 . S
C1038 H1032 0.949 . S
C1038 C1042 1.368 . S
C1039 C1020 1.429 . S
C1039 C1033 1.429 . S
C1039 C1040 1.523 . S
C1040 C1021 1.368 . S
C1040 C1034 1.368 . S
C1040 C1039 1.523 . S
C1041 C1025 1.429 . S
C1041 C1037 1.429 . S
C1041 C1042 1.523 . S
C1042 C1026 1.368 . S
C1042 C1038 1.368 . S
C1042 C1041 1.523 . S
H1043 C1018 0.950 . S
H1044 C1020 0.950 . S
H1045 C1021 0.949 . S
H1046 C1023 0.950 . S
H1047 C1025 0.950 . S
C1048 C1049 1.349 . S
C1048 C1050 1.327 . S
C1048 H1073 0.950 . S
C1049 C1048 1.349 . S
C1049 C1065 1.349 . S
C1050 C1048 1.327 . S
C1050 C1069 1.429 . S
C1050 H1074 0.950 . S
C1051 C1068 1.574 . S
C1051 C1070 1.368 . S
C1051 H1075 0.949 . S
H1052 C1056 0.949 . S
C1053 C1054 1.349 . S
C1053 C1055 1.327 . S
C1053 H1076 0.950 . S
C1054 C1053 1.349 . S
C1054 C1066 1.349 . S
C1055 C1053 1.327 . S
C1055 C1071 1.429 . S
C1055 H1077 0.950 . S
C1056 H1052 0.949 . S
C1056 C1064 1.574 . S
C1056 C1072 1.368 . S
H1057 C1065 0.950 . S
H1058 C1063 0.950 . S
H1059 C1064 0.949 . S
H1060 C1066 0.950 . S
H1061 C1067 0.950 . S
H1062 C1068 0.949 . S
C1063 H1058 0.950 . S
C1063 C1065 1.327 . S
C1063 C1069 1.429 . S
C1064 C1056 1.574 . S
C1064 H1059 0.949 . S
C1064 C1070 1.368 . S
C1065 C1049 1.349 . S
C1065 H1057 0.950 . S
C1065 C1063 1.327 . S
C1066 C1054 1.349 . S
C1066 H1060 0.950 . S
C1066 C1067 1.327 . S
C1067 H1061 0.950 . S
C1067 C1066 1.327 . S
C1067 C1071 1.429 . S
C1068 C1051 1.574 . S
C1068 H1062 0.949 . S
C1068 C1072 1.368 . S
C1069 C1050 1.429 . S
C1069 C1063 1.429 . S
C1069 C1070 1.523 . S
C1070 C1051 1.368 . S
C1070 C1064 1.368 . S
C1070 C1069 1.523 . S
C1071 C1055 1.429 . S
C1071 C1067 1.429 . S
C1071 C1072 1.523 . S
C1072 C1056 1.368 . S
C1072 C1068 1.368 . S
C1072 C1071 1.523 . S
H1073 C1048 0.950 . S
H1074 C1050 0.950 . S
H1075 C1051 0.949 . S
H1076 C1053 0.950 . S
H1077 C1055 0.950 . S
C1078 C1079 1.349 . S
C1078 C1080 1.327 . S
C1078 H1103 0.950 . S
C1079 C1078 1.349 . S
C1079 C1095 1.349 . S
C1080 C1078 1.327 . S
C1080 C1099 1.429 . S
C1080 H1104 0.950 . S
C1081 C1098 1.574 . S
C1081 C1100 1.368 . S
C1081 H1105 0.949 . S
H1082 C1086 0.949 . S
C1083 C1084 1.349 . S
C1083 C1085 1.327 . S
C1083 H1106 0.950 . S
C1084 C1083 1.349 . S
C1084 C1096 1.349 . S
C1085 C1083 1.327 . S
C1085 C1101 1.429 . S
C1085 H1107 0.950 . S
C1086 H1082 0.949 . S
C1086 C1094 1.574 . S
C1086 C1102 1.368 . S
H1087 C1095 0.950 . S
H1088 C1093 0.950 . S
H1089 C1094 0.949 . S
H1090 C1096 0.950 . S
H1091 C1097 0.950 . S
H1092 C1098 0.949 . S
C1093 H1088 0.950 . S
C1093 C1095 1.327 . S
C1093 C1099 1.429 . S
C1094 C1086 1.574 . S
C1094 H1089 0.949 . S
C1094 C1100 1.368 . S
C1095 C1079 1.349 . S
C1095 H1087 0.950 . S
C1095 C1093 1.327 . S
C1096 C1084 1.349 . S
C1096 H1090 0.950 . S
C1096 C1097 1.327 . S
C1097 H1091 0.950 . S
C1097 C1096 1.327 . S
C1097 C1101 1.429 . S
C1098 C1081 1.574 . S
C1098 H1092 0.949 . S
C1098 C1102 1.368 . S
C1099 C1080 1.429 . S
C1099 C1093 1.429 . S
C1099 C1100 1.523 . S
C1100 C1081 1.368 . S
C1100 C1094 1.368 . S
C1100 C1099 1.523 . S
C1101 C1085 1.429 . S
C1101 C1097 1.429 . S
C1101 C1102 1.523 . S
C1102 C1086 1.368 . S
C1102 C1098 1.368 . S
C1102 C1101 1.523 . S
H1103 C1078 0.950 . S
H1104 C1080 0.950 . S
H1105 C1081 0.949 . S
H1106 C1083 0.950 . S
H1107 C1085 0.950 . S
C1108 C1109 1.349 . S
C1108 C1110 1.327 . S
C1108 H1133 0.950 . S
C1109 C1108 1.349 . S
C1109 C1125 1.349 . S
C1110 C1108 1.327 . S
C1110 C1129 1.429 . S
C1110 H1134 0.950 . S
C1111 C1128 1.574 . S
C1111 C1130 1.368 . S
C1111 H1135 0.949 . S
H1112 C1116 0.949 . S
C1113 C1114 1.349 . S
C1113 C1115 1.327 . S
C1113 H1136 0.950 . S
C1114 C1113 1.349 . S
C1114 C1126 1.349 . S
C1115 C1113 1.327 . S
C1115 C1131 1.429 . S
C1115 H1137 0.950 . S
C1116 H1112 0.949 . S
C1116 C1124 1.574 . S
C1116 C1132 1.368 . S
H1117 C1125 0.950 . S
H1118 C1123 0.950 . S
H1119 C1124 0.949 . S
H1120 C1126 0.950 . S
H1121 C1127 0.950 . S
H1122 C1128 0.949 . S
C1123 H1118 0.950 . S
C1123 C1125 1.327 . S
C1123 C1129 1.429 . S
C1124 C1116 1.574 . S
C1124 H1119 0.949 . S
C1124 C1130 1.368 . S
C1125 C1109 1.349 . S
C1125 H1117 0.950 . S
C1125 C1123 1.327 . S
C1126 C1114 1.349 . S
C1126 H1120 0.950 . S
C1126 C1127 1.327 . S
C1127 H1121 0.950 . S
C1127 C1126 1.327 . S
C1127 C1131 1.429 . S
C1128 C1111 1.574 . S
C1128 H1122 0.949 . S
C1128 C1132 1.368 . S
C1129 C1110 1.429 . S
C1129 C1123 1.429 . S
C1129 C1130 1.523 . S
C1130 C1111 1.368 . S
C1130 C1124 1.368 . S
C1130 C1129 1.523 . S
C1131 C1115 1.429 . S
C1131 C1127 1.429 . S
C1131 C1132 1.523 . S
C1132 C1116 1.368 . S
C1132 C1128 1.368 . S
C1132 C1131 1.523 . S
H1133 C1108 0.950 . S
H1134 C1110 0.950 . S
H1135 C1111 0.949 . S
H1136 C1113 0.950 . S
H1137 C1115 0.950 . S
C1138 C1139 1.349 . S
C1138 C1140 1.327 . S
C1138 H1163 0.950 . S
C1139 C1138 1.349 . S
C1139 C1155 1.349 . S
C1140 C1138 1.327 . S
C1140 C1159 1.429 . S
C1140 H1164 0.950 . S
C1141 C1158 1.574 . S
C1141 C1160 1.368 . S
C1141 H1165 0.949 . S
H1142 C1146 0.949 . S
C1143 C1144 1.349 . S
C1143 C1145 1.327 . S
C1143 H1166 0.950 . S
C1144 C1143 1.349 . S
C1144 C1156 1.349 . S
C1145 C1143 1.327 . S
C1145 C1161 1.429 . S
C1145 H1167 0.950 . S
C1146 H1142 0.949 . S
C1146 C1154 1.574 . S
C1146 C1162 1.368 . S
H1147 C1155 0.950 . S
H1148 C1153 0.950 . S
H1149 C1154 0.949 . S
H1150 C1156 0.950 . S
H1151 C1157 0.950 . S
H1152 C1158 0.949 . S
C1153 H1148 0.950 . S
C1153 C1155 1.327 . S
C1153 C1159 1.429 . S
C1154 C1146 1.574 . S
C1154 H1149 0.949 . S
C1154 C1160 1.368 . S
C1155 C1139 1.349 . S
C1155 H1147 0.950 . S
C1155 C1153 1.327 . S
C1156 C1144 1.349 . S
C1156 H1150 0.950 . S
C1156 C1157 1.327 . S
C1157 H1151 0.950 . S
C1157 C1156 1.327 . S
C1157 C1161 1.429 . S
C1158 C1141 1.574 . S
C1158 H1152 0.949 . S
C1158 C1162 1.368 . S
C1159 C1140 1.429 . S
C1159 C1153 1.429 . S
C1159 C1160 1.523 . S
C1160 C1141 1.368 . S
C1160 C1154 1.368 . S
C1160 C1159 1.523 . S
C1161 C1145 1.429 . S
C1161 C1157 1.429 . S
C1161 C1162 1.523 . S
C1162 C1146 1.368 . S
C1162 C1158 1.368 . S
C1162 C1161 1.523 . S
H1163 C1138 0.950 . S
H1164 C1140 0.950 . S
H1165 C1141 0.949 . S
H1166 C1143 0.950 . S
H1167 C1145 0.950 . S
C449 C1 1.244 . S
C454 C295 1.259 . S
C479 C67 0.953 . S
C484 C344 0.951 . S
C514 C370 2.421 . S
C509 C97 2.449 . S
C539 C133 2.335 . S
C544 C418 2.281 . S
C574 C330 2.518 . S
C569 C25 2.470 . S
C604 C298 0.892 . S
C599 C37 0.912 . S
C634 C419 1.868 . S
C629 C103 1.905 . S
C664 C387 1.506 . S
C659 C109 1.532 . S
C689 C31 1.744 . S
C694 C415 1.778 . S
C724 C347 2.305 . S
C719 C73 2.371 . S
C749 C139 2.355 . S
C754 C299 2.345 . S
C779 C61 0.724 . S
C784 C384 0.722 . S
C814 C304 1.262 . S
C809 C175 1.208 . S
C839 C181 0.930 . S
C844 C335 0.932 . S
C869 C247 2.475 . S
C874 C379 2.444 . S
C899 C277 2.321 . S
C904 C427 2.268 . S
C929 C145 2.390 . S
C934 C339 2.506 . S
C964 C307 0.897 . S
C959 C211 0.913 . S
C994 C410 1.855 . S
C989 C217 1.885 . S
C1024 C378 1.526 . S
C1019 C283 1.551 . S
C1049 C169 1.681 . S
C1054 C424 1.771 . S
C1084 C338 2.313 . S
C1079 C241 2.374 . S
C1114 C290 2.330 . S
C1109 C253 2.341 . S
C1139 C205 0.733 . S
C1144 C375 0.732 . S
