# Generated by pormake.
# Topology rtl, (3,6)-cn, num edge types: 1
# Building blocks:
#     Node 0, Type 0, BuildingBlock: MIDCAF_clean_linker_0, # of connection points: 3
#     Node 1, Type 0, BuildingBlock: MIDCAF_clean_linker_0, # of connection points: 3
#     Node 2, Type 0, BuildingBlock: MIDCAF_clean_linker_0, # of connection points: 3
#     Node 3, Type 0, BuildingBlock: MIDCAF_clean_linker_0, # of connection points: 3
#     Node 4, Type 1, BuildingBlock: KUMJIN_clean_sbu_1, # of connection points: 6
#     Node 5, Type 1, BuildingBlock: KUMJIN_clean_sbu_1, # of connection points: 6
#     Edge 6, Type (0, 1), BuildingBlock: KIFKEQ_clean_linker_1, # of connection points: 2
#     Edge 7, Type (0, 1), BuildingBlock: KIFKEQ_clean_linker_1, # of connection points: 2
#     Edge 8, Type (0, 1), BuildingBlock: KIFKEQ_clean_linker_1, # of connection points: 2
#     Edge 9, Type (0, 1), BuildingBlock: KIFKEQ_clean_linker_1, # of connection points: 2
#     Edge 10, Type (0, 1), BuildingBlock: KIFKEQ_clean_linker_1, # of connection points: 2
#     Edge 11, Type (0, 1), BuildingBlock: KIFKEQ_clean_linker_1, # of connection points: 2
#     Edge 12, Type (0, 1), BuildingBlock: KIFKEQ_clean_linker_1, # of connection points: 2
#     Edge 13, Type (0, 1), BuildingBlock: KIFKEQ_clean_linker_1, # of connection points: 2
#     Edge 14, Type (0, 1), BuildingBlock: KIFKEQ_clean_linker_1, # of connection points: 2
#     Edge 15, Type (0, 1), BuildingBlock: KIFKEQ_clean_linker_1, # of connection points: 2
#     Edge 16, Type (0, 1), BuildingBlock: KIFKEQ_clean_linker_1, # of connection points: 2
#     Edge 17, Type (0, 1), BuildingBlock: KIFKEQ_clean_linker_1, # of connection points: 2
# Relax obj value: 0.018
# Max RMSD: 0.095
# Mean RMSD: 0.057
data_MOF--net-rtl--node1-KUMJIN_clean_sbu_1--node2-MIDCAF_clean_linker_0--edge1-KIFKEQ_clean_linker_1
_symmetry_space_group_name_H-M    P1
_symmetry_Int_Tables_number       1
_symmetry_cell_setting            triclinic
loop_
_symmetry_equiv_pos_as_xyz
'x, y, z'
_cell_length_a     40.137675
_cell_length_b     40.805498
_cell_length_c     35.639217
_cell_angle_alpha  79.909321
_cell_angle_beta   99.72924
_cell_angle_gamma 90.558754
loop_
_atom_site_label
_atom_site_type_symbol
_atom_site_fract_x
_atom_site_fract_y
_atom_site_fract_z
_atom_type_partial_charge
C0 C 0.17637 0.9171 0.11144 0.0
C1 C 0.18537 0.89821 0.14871 0.0
C2 C 0.20712 0.87037 0.15397 0.0
C3 C 0.21881 0.86109 0.12243 0.0
H4 H 0.28901 0.79896 0.08999 0.0
H5 H 0.32807 0.75187 0.09621 0.0
H6 H 0.2995 0.7504 0.97416 0.0
H7 H 0.26053 0.7968 0.96783 0.0
H8 H 0.19758 0.8401 0.92003 0.0
H9 H 0.1668 0.86283 0.85576 0.0
H10 H 0.1514 0.95583 0.89287 0.0
H11 H 0.18171 0.93295 0.95777 0.0
H12 H 0.17975 0.92256 0.05155 0.0
H13 H 0.15936 0.93847 0.1063 0.0
H14 H 0.2148 0.85553 0.18243 0.0
H15 H 0.23494 0.8391 0.1274 0.0
N16 N 0.24055 0.8419 0.05531 0.0
N17 N 0.23189 0.84446 0.98813 0.0
N18 N 0.20317 0.88203 0.01458 0.0
C19 C 0.2476 0.8302 0.02398 0.0
C20 C 0.20981 0.87041 0.98315 0.0
C21 C 0.2183 0.86785 0.0508 0.0
C22 C 0.27151 0.80172 0.02843 0.0
C23 C 0.29101 0.78854 0.06451 0.0
C24 C 0.31351 0.76169 0.06807 0.0
C25 C 0.31668 0.74733 0.03572 0.0
C26 C 0.29725 0.76057 0.99975 0.0
C27 C 0.27502 0.7874 0.99613 0.0
C28 C 0.19204 0.88474 0.94397 0.0
C29 C 0.18777 0.86543 0.91455 0.0
C30 C 0.17002 0.87832 0.87784 0.0
C31 C 0.15676 0.91097 0.86959 0.0
C32 C 0.16152 0.93059 0.89865 0.0
C33 C 0.1787 0.91745 0.9357 0.0
C34 C 0.2088 0.87933 0.0849 0.0
C35 C 0.1879 0.90778 0.07994 0.0
C36 C 0.61972 0.62843 0.50637 0.0
C37 C 0.63664 0.63352 0.47446 0.0
C38 C 0.66504 0.65396 0.47533 0.0
C39 C 0.67637 0.66889 0.50749 0.0
H40 H 0.73764 0.74051 0.54202 0.0
H41 H 0.78117 0.7817 0.53709 0.0
H42 H 0.78324 0.79147 0.65616 0.0
H43 H 0.7388 0.75018 0.66118 0.0
H44 H 0.68202 0.70738 0.70754 0.0
H45 H 0.65827 0.68751 0.76611 0.0
H46 H 0.60811 0.60909 0.71245 0.0
H47 H 0.63081 0.62919 0.65416 0.0
H48 H 0.6177 0.63839 0.5629 0.0
H49 H 0.59794 0.61256 0.50666 0.0
H50 H 0.6784 0.65859 0.45099 0.0
H51 H 0.6984 0.68441 0.50718 0.0
N52 N 0.69623 0.70223 0.57303 0.0
N53 N 0.69572 0.70591 0.63796 0.0
N54 N 0.66018 0.66871 0.60765 0.0
C55 C 0.7081 0.71611 0.60457 0.0
C56 C 0.67171 0.68207 0.63966 0.0
C57 C 0.67225 0.67861 0.57424 0.0
C58 C 0.73463 0.74176 0.60211 0.0
C59 C 0.7472 0.75127 0.56733 0.0
C60 C 0.77245 0.77484 0.56451 0.0
C61 C 0.786 0.78965 0.59633 0.0
C62 C 0.77323 0.7806 0.63105 0.0
C63 C 0.74786 0.75682 0.63395 0.0
C64 C 0.65819 0.67011 0.6759 0.0
C65 C 0.66588 0.68593 0.70828 0.0
C66 C 0.65238 0.67445 0.74193 0.0
C67 C 0.63098 0.64687 0.74393 0.0
C68 C 0.6238 0.63086 0.71172 0.0
C69 C 0.63708 0.64235 0.67822 0.0
C70 C 0.65973 0.66346 0.53969 0.0
C71 C 0.63122 0.64309 0.5387 0.0
C72 C 0.8539 0.11035 0.94242 0.0
C73 C 0.84115 0.12682 0.90474 0.0
C74 C 0.81516 0.15089 0.89949 0.0
C75 C 0.80244 0.15851 0.93124 0.0
H76 H 0.73793 0.22447 0.96327 0.0
H77 H 0.69535 0.2684 0.95698 0.0
H78 H 0.6925 0.2428 0.0792 0.0
H79 H 0.7344 0.19886 0.08555 0.0
H80 H 0.78702 0.15006 0.13948 0.0
H81 H 0.81531 0.12707 0.20458 0.0
H82 H 0.89045 0.07957 0.15741 0.0
H83 H 0.86247 0.10284 0.09211 0.0
H84 H 0.85203 0.10492 0.00268 0.0
H85 H 0.87426 0.09204 0.94759 0.0
H86 H 0.80455 0.1638 0.8708 0.0
H87 H 0.78254 0.1773 0.92612 0.0
N88 N 0.77775 0.17413 0.99836 0.0
N89 N 0.78099 0.16698 0.06562 0.0
N90 N 0.81706 0.13606 0.03934 0.0
C91 C 0.76659 0.18223 0.02961 0.0
C92 C 0.80623 0.14392 0.0708 0.0
C93 C 0.80293 0.15091 0.00301 0.0
C94 C 0.73973 0.2081 0.02493 0.0
C95 C 0.72805 0.22804 0.98875 0.0
C96 C 0.70379 0.25335 0.98515 0.0
C97 C 0.69052 0.25905 0.01757 0.0
C98 C 0.70184 0.23878 0.05355 0.0
C99 C 0.72612 0.21368 0.0572 0.0
C100 C 0.82251 0.12848 0.11041 0.0
C101 C 0.8095 0.13463 0.14285 0.0
C102 C 0.82559 0.12128 0.18024 0.0
C103 C 0.85515 0.10158 0.18614 0.0
C104 C 0.86792 0.095 0.15378 0.0
C105 C 0.85173 0.1082 0.11634 0.0
C106 C 0.81551 0.14229 0.96901 0.0
C107 C 0.84126 0.11797 0.97411 0.0
C108 C 0.39064 0.37871 0.56465 0.0
C109 C 0.38874 0.3594 0.60107 0.0
C110 C 0.37813 0.3263 0.60268 0.0
C111 C 0.36808 0.3134 0.56883 0.0
H112 H 0.28588 0.26318 0.5261 0.0
H113 H 0.24288 0.22171 0.5317 0.0
H114 H 0.24805 0.20379 0.41685 0.0
H115 H 0.29096 0.24661 0.41062 0.0
H116 H 0.33519 0.30211 0.35849 0.0
H117 H 0.35372 0.32664 0.29796 0.0
H118 H 0.4127 0.39762 0.3564 0.0
H119 H 0.39404 0.37371 0.41639 0.0
H120 H 0.38194 0.38138 0.50314 0.0
H121 H 0.39827 0.40441 0.56209 0.0
H122 H 0.37715 0.31034 0.63014 0.0
H123 H 0.35934 0.28804 0.57119 0.0
N124 N 0.33232 0.29572 0.49782 0.0
N125 N 0.32862 0.29681 0.43122 0.0
N126 N 0.36502 0.33295 0.46251 0.0
C127 C 0.31858 0.28399 0.46539 0.0
C128 C 0.35196 0.32135 0.42961 0.0
C129 C 0.35548 0.32006 0.49674 0.0
C130 C 0.2922 0.25823 0.46793 0.0
C131 C 0.27812 0.25045 0.50191 0.0
C132 C 0.25345 0.22636 0.50529 0.0
C133 C 0.24221 0.20895 0.47498 0.0
C134 C 0.25598 0.21684 0.44072 0.0
C135 C 0.28068 0.24128 0.4372 0.0
C136 C 0.363 0.33588 0.39248 0.0
C137 C 0.35204 0.323 0.35843 0.0
C138 C 0.3628 0.33694 0.32374 0.0
C139 C 0.38457 0.36421 0.32226 0.0
C140 C 0.39551 0.377 0.3563 0.0
C141 C 0.38492 0.36305 0.39088 0.0
C142 C 0.36895 0.33304 0.53246 0.0
C143 C 0.3811 0.36558 0.53074 0.0
Eu144 Eu 0.02898 0.96914 0.50958 0.0
C145 C 0.93846 0.09199 0.46982 0.0
N146 N 0.96955 0.08977 0.49241 0.0
C147 C 0.98544 0.14096 0.45629 0.0
C148 C 0.93003 0.11866 0.43867 0.0
C149 C 0.99285 0.11388 0.48658 0.0
C150 C 0.95398 0.14328 0.4321 0.0
C151 C 0.8833 0.06834 0.45369 0.0
C152 C 0.91555 0.06678 0.47706 0.0
C153 C 0.87504 0.09457 0.42223 0.0
C154 C 0.89832 0.11965 0.41476 0.0
Eu155 Eu 0.98034 0.04275 0.5419 0.0
N156 N 0.92446 0.04119 0.50727 0.0
C157 C 0.85998 0.04388 0.46314 0.0
C158 C 0.90061 0.01937 0.51873 0.0
C159 C 0.86844 0.01974 0.4963 0.0
H160 H 0.0172 0.11204 0.50524 0.0
H161 H 0.84995 0.00179 0.50506 0.0
H162 H 0.98045 0.9019 0.50935 0.0
H163 H 0.15583 0.98305 0.58965 0.0
H164 H 0.90568 0.00224 0.54574 0.0
H165 H 0.83495 0.04422 0.44594 0.0
H166 H 0.10458 0.00092 0.54232 0.0
H167 H 0.00404 0.15993 0.4515 0.0
H168 H 0.85051 0.09592 0.40378 0.0
H169 H 0.8915 0.13978 0.39046 0.0
H170 H 0.98126 0.84382 0.54417 0.0
H171 H 0.94844 0.16413 0.40843 0.0
H172 H 0.16103 0.92566 0.62685 0.0
N173 N 0.02827 0.91295 0.53951 0.0
C174 C 0.05619 0.90125 0.56552 0.0
C175 C 0.0024 0.85976 0.55062 0.0
C176 C 0.058 0.86816 0.58567 0.0
C177 C 1.00177 0.89273 0.53135 0.0
C178 C 0.03058 0.84744 0.57803 0.0
N179 N 0.07995 0.95475 0.55356 0.0
C180 C 0.10603 0.97609 0.55872 0.0
C181 C 0.112 0.91124 0.5997 0.0
C182 C 0.08291 0.9226 0.57246 0.0
C183 C 0.1383 0.93342 0.60614 0.0
C184 C 0.13539 0.96589 0.58533 0.0
H185 H 0.031 0.82187 0.59293 0.0
H186 H 0.08872 0.83152 0.62865 0.0
H187 H 0.13594 0.86921 0.64093 0.0
O188 O 0.05819 0.97962 0.46249 0.0
O189 O 0.03152 0.96677 0.57416 0.0
O190 O 0.02652 0.02079 0.58434 0.0
O191 O 0.03431 0.93206 0.47359 0.0
O192 O 0.05077 0.02125 0.49918 0.0
O193 O 0.03628 0.05142 0.54394 0.0
O194 O 0.95205 0.04684 0.58842 0.0
O195 O 0.98782 0.04466 0.47956 0.0
O196 O 0.98028 0.99074 0.47265 0.0
O197 O 0.98038 0.08849 0.5657 0.0
O198 O 0.96546 0.98894 0.56134 0.0
O199 O 0.97297 0.96391 0.51023 0.0
C200 C 0.03593 0.98943 0.59648 0.0
C201 C 0.03837 0.95393 0.409 0.0
C202 C 0.04936 0.95139 0.34428 0.0
C203 C 0.01497 0.95889 0.32951 0.0
C204 C 0.00413 0.96096 0.3938 0.0
C205 C 0.99257 0.96366 0.35419 0.0
C206 C 0.06089 0.94917 0.38424 0.0
C207 C 0.05515 0.04619 0.51858 0.0
C208 C 0.05085 0.95156 0.45057 0.0
C209 C 0.08692 0.85684 0.61284 0.0
C210 C 0.11383 0.8783 0.61982 0.0
C211 C 0.97673 0.02248 0.4583 0.0
C212 C 0.97792 0.08025 0.63228 0.0
C213 C 0.97028 0.08614 0.69735 0.0
C214 C 0.00564 0.08611 0.70844 0.0
C215 C 0.01312 0.08061 0.64389 0.0
C216 C 0.9566 0.08314 0.65903 0.0
C217 C 0.02684 0.0834 0.68182 0.0
C218 C 0.9592 0.96482 0.54101 0.0
C219 C 0.96333 0.0762 0.59262 0.0
H220 H 0.0052 0.96039 0.299 0.0
H221 H 0.98635 0.96407 0.41259 0.0
H222 H 0.96611 0.96912 0.34263 0.0
H223 H 0.08737 0.94392 0.39611 0.0
H224 H 0.01695 0.08877 0.73755 0.0
H225 H 0.03 0.07871 0.62363 0.0
H226 H 0.92943 0.08262 0.65012 0.0
H227 H 0.054 0.08356 0.69059 0.0
Eu228 Eu 0.46628 0.49055 0.99445 0.0
C229 C 0.62048 0.52626 0.05372 0.0
N230 N 0.602 0.50059 0.06852 0.0
C231 C 0.64969 0.46332 0.07866 0.0
C232 C 0.65447 0.52119 0.05033 0.0
C233 C 0.6161 0.46955 0.0815 0.0
C234 C 0.66894 0.48921 0.06287 0.0
C235 C 0.62365 0.58466 0.0255 0.0
C236 C 0.60525 0.55768 0.04146 0.0
C237 C 0.6575 0.57967 0.02209 0.0
C238 C 0.67286 0.54804 0.03446 0.0
Eu239 Eu 0.54545 0.51339 0.07116 0.0
N240 N 0.57202 0.56153 0.04378 0.0
C241 C 0.60736 0.61581 0.0131 0.0
C242 C 0.55635 0.59205 0.03293 0.0
C243 C 0.57365 0.61954 0.01708 0.0
H244 H 0.60157 0.44977 0.09473 0.0
H245 H 0.56099 0.64363 0.00801 0.0
H246 H 0.40128 0.53335 0.01102 0.0
H247 H 0.48637 0.35526 0.01388 0.0
H248 H 0.53054 0.59537 0.03637 0.0
H249 H 0.62062 0.63714 1.00062 0.0
H250 H 0.49472 0.41376 0.98675 0.0
H251 H 0.66076 0.43862 0.08884 0.0
H252 H 0.67201 0.60009 0.0098 0.0
H253 H 0.69898 0.54459 0.03156 0.0
H254 H 0.35048 0.52249 0.04197 0.0
H255 H 0.69497 0.48431 0.06072 0.0
H256 H 0.4417 0.34061 0.05358 0.0
N257 N 0.41705 0.48253 0.02254 0.0
C258 C 0.41016 0.45056 0.037 0.0
C259 C 0.36711 0.50209 0.04087 0.0
C260 C 0.38178 0.4433 0.0553 0.0
C261 C 0.39575 0.50818 0.02337 0.0
C262 C 0.36023 0.46955 0.05718 0.0
N263 N 0.45892 0.43286 0.01568 0.0
C264 C 0.47681 0.4081 0.00622 0.0
C265 C 0.42531 0.39179 0.04885 0.0
C266 C 0.43202 0.42516 0.03415 0.0
C267 C 0.44604 0.36653 0.04277 0.0
C268 C 0.47141 0.37471 0.02059 0.0
H269 H 0.33818 0.46496 0.07102 0.0
H270 H 0.35442 0.4042 0.0858 0.0
H271 H 0.39232 0.3591 0.07989 0.0
O272 O 0.45514 0.47194 0.939 0.0
O273 O 0.46246 0.49064 0.05766 0.0
O274 O 0.5137 0.46913 0.0889 0.0
O275 O 0.42349 0.51082 0.95083 0.0
O276 O 0.518 0.46696 0.99619 0.0
O277 O 0.54007 0.46037 0.06096 0.0
O278 O 0.53778 0.53889 0.11817 0.0
O279 O 0.55187 0.52478 0.00795 0.0
O280 O 0.49863 0.53204 0.97006 0.0
O281 O 0.58026 0.50477 0.12617 0.0
O282 O 0.49767 0.54577 0.06159 0.0
O283 O 0.46852 0.54474 0.99976 0.0
C284 C 0.48106 0.47212 0.08742 0.0
C285 C 0.40725 0.49418 0.88843 0.0
C286 C 0.39486 0.47967 0.82391 0.0
C287 C 0.36725 0.50224 0.81464 0.0
C288 C 0.37933 0.51642 0.87849 0.0
C289 C 0.35947 0.5203 0.84188 0.0
C290 C 0.41468 0.47546 0.86109 0.0
C291 C 0.53923 0.45227 0.02672 0.0
C292 C 0.42918 0.49217 0.92653 0.0
C293 C 0.3759 0.41023 0.07127 0.0
C294 C 0.39759 0.38456 0.06807 0.0
C295 C 0.5315 0.53627 0.97542 0.0
C296 C 0.55674 0.50964 0.18121 0.0
C297 C 0.56 0.51466 0.24903 0.0
C298 C 0.54529 0.48315 0.25586 0.0
C299 C 0.5424 0.47823 0.18866 0.0
C300 C 0.56531 0.52782 0.21127 0.0
C301 C 0.53648 0.46518 0.22579 0.0
C302 C 0.47486 0.55798 0.03124 0.0
C303 C 0.56324 0.52367 0.14234 0.0
H304 H 0.35142 0.50562 0.78638 0.0
H305 H 0.37296 0.53113 0.8989 0.0
H306 H 0.33808 0.53753 0.8345 0.0
H307 H 0.43623 0.45836 0.86827 0.0
H308 H 0.54124 0.47202 0.28458 0.0
H309 H 0.53612 0.46375 0.16588 0.0
H310 H 0.57604 0.55226 0.20511 0.0
H311 H 0.52541 0.44089 0.23139 0.0
H312 H 0.2364 0.16344 0.5397 0.0
H313 H 0.1888 0.19535 0.42079 0.0
H314 H 0.19125 0.12425 0.54939 0.0
H315 H 0.14399 0.15524 0.43042 0.0
H316 H 0.08968 0.05429 0.4577 0.0
H317 H 0.13539 0.09267 0.44588 0.0
H318 H 0.1289 0.1293 0.55099 0.0
H319 H 0.08321 0.09104 0.56292 0.0
C320 C 0.21628 0.16221 0.5156 0.0
C321 C 0.21608 0.18298 0.47957 0.0
C322 C 0.19044 0.13965 0.52119 0.0
C323 C 0.16391 0.13692 0.4908 0.0
C324 C 0.16422 0.15672 0.45435 0.0
C325 C 0.18997 0.1796 0.44881 0.0
C326 C 0.09802 0.07049 0.47835 0.0
C327 C 0.08284 0.06952 0.51134 0.0
C328 C 0.12405 0.0926 0.4714 0.0
C329 C 0.13578 0.1139 0.49755 0.0
C330 C 0.12062 0.11292 0.53052 0.0
C331 C 0.09433 0.09113 0.53724 0.0
H332 H 0.30415 0.6912 0.0045 0.0
H333 H 0.38209 0.73874 0.07412 0.0
H334 H 0.34352 0.64611 0.00498 0.0
H335 H 0.4218 0.69351 0.07441 0.0
H336 H 0.47212 0.58819 0.09375 0.0
H337 H 0.4342 0.63361 0.09727 0.0
H338 H 0.39303 0.63961 0.97611 0.0
H339 H 0.43026 0.59413 0.97264 0.0
C340 C 0.32977 0.69203 0.01984 0.0
C341 C 0.34013 0.71869 0.03891 0.0
C342 C 0.35237 0.66624 0.02004 0.0
C343 C 0.38595 0.66647 0.03924 0.0
C344 C 0.39606 0.69254 0.0595 0.0
C345 C 0.37334 0.71841 0.05936 0.0
C346 C 0.45515 0.59938 0.0678 0.0
C347 C 0.45408 0.58731 0.03299 0.0
C348 C 0.43347 0.62545 0.06982 0.0
C349 C 0.41031 0.63994 0.0371 0.0
C350 C 0.41004 0.62851 0.00208 0.0
C351 C 0.4316 0.60253 1.00005 0.0
H352 H 0.8409 0.78637 0.56111 0.0
H353 H 0.793 0.84887 0.62343 0.0
H354 H 0.88296 0.82867 0.54982 0.0
H355 H 0.83544 0.89135 0.61222 0.0
H356 H 0.9379 0.94625 0.61066 0.0
H357 H 0.89696 0.90343 0.62708 0.0
H358 H 0.88209 0.88435 0.51002 0.0
H359 H 0.92259 0.92697 0.49368 0.0
C360 C 0.83931 0.8092 0.57236 0.0
C361 C 0.81329 0.81441 0.59272 0.0
C362 C 0.86344 0.83345 0.56588 0.0
C363 C 0.86228 0.86357 0.57966 0.0
C364 C 0.8371 0.86834 0.60137 0.0
C365 C 0.81282 0.844 0.60783 0.0
C366 C 0.92578 0.93291 0.58848 0.0
C367 C 0.9339 0.93956 0.55106 0.0
C368 C 0.9023 0.90848 0.59785 0.0
C369 C 0.88659 0.8902 0.56998 0.0
C370 C 0.8943 0.89743 0.53241 0.0
C371 C 0.91753 0.92188 0.52303 0.0
H372 H 0.69135 0.32288 0.97795 0.0
H373 H 0.63368 0.25748 0.05054 0.0
H374 H 0.65336 0.36928 0.97796 0.0
H375 H 0.5957 0.30374 0.05046 0.0
H376 H 0.56459 0.4008 0.08361 0.0
H377 H 0.59973 0.35402 0.07862 0.0
H378 H 0.59516 0.39145 0.95664 0.0
H379 H 0.56063 0.43899 0.96199 0.0
C380 C 0.67023 0.31829 0.99336 0.0
C381 C 0.6657 0.28657 0.01453 0.0
C382 C 0.64847 0.34487 0.99338 0.0
C383 C 0.62172 0.34027 0.01454 0.0
C384 C 0.6165 0.30827 0.03454 0.0
C385 C 0.63823 0.28176 0.03455 0.0
C386 C 0.57131 0.3992 0.05579 0.0
C387 C 0.5602 0.42372 0.02327 0.0
C388 C 0.59112 0.37217 0.05281 0.0
C389 C 0.60017 0.36892 0.01719 0.0
C390 C 0.58888 0.39339 0.98456 0.0
C391 C 0.56896 0.42048 0.98755 0.0
H392 H 0.17655 0.95984 0.16649 0.0
H393 H 0.15981 0.85543 0.20431 0.0
H394 H 0.14691 0.97378 0.2162 0.0
H395 H 0.13009 0.86932 0.25382 0.0
H396 H 0.0989 0.90307 0.35749 0.0
H397 H 0.13587 0.89143 0.31348 0.0
H398 H 0.0889 0.97308 0.2273 0.0
H399 H 0.05293 0.98554 0.27183 0.0
C400 C 0.16663 0.93987 0.1855 0.0
C401 C 0.1704 0.90654 0.18134 0.0
C402 C 0.14961 0.94785 0.21393 0.0
C403 C 0.13592 0.92269 0.23882 0.0
C404 C 0.14069 0.88929 0.23547 0.0
C405 C 0.15775 0.88131 0.20708 0.0
C406 C 0.09687 0.91888 0.32939 0.0
C407 C 0.07288 0.94518 0.31813 0.0
C408 C 0.11781 0.91198 0.30402 0.0
C409 C 0.11528 0.93124 0.26682 0.0
C410 C 0.09178 0.95797 0.25588 0.0
C411 C 0.07085 0.96485 0.28123 0.0
H412 H 0.56708 0.62418 0.7476 0.0
H413 H 0.66086 0.64148 0.82023 0.0
H414 H 0.54387 0.59943 0.80435 0.0
H415 H 0.63685 0.61833 0.87753 0.0
H416 H 0.59743 0.53587 0.96471 0.0
H417 H 0.62141 0.56564 0.91045 0.0
H418 H 0.52337 0.61039 0.85933 0.0
H419 H 0.4993 0.57999 0.9132 0.0
C420 C 0.58273 0.62288 0.77574 0.0
C421 C 0.61603 0.63449 0.77921 0.0
C422 C 0.5692 0.60909 0.80845 0.0
C423 C 0.58843 0.60678 0.84569 0.0
C424 C 0.62144 0.61926 0.84931 0.0
C425 C 0.63508 0.63294 0.81645 0.0
C426 C 0.58105 0.5523 0.94207 0.0
C427 C 0.5464 0.5554 0.9432 0.0
C428 C 0.59485 0.56953 0.91096 0.0
C429 C 0.57434 0.59035 0.88025 0.0
C430 C 0.53983 0.59407 0.882 0.0
C431 C 0.52601 0.57669 0.91297 0.0
H432 H 0.82767 0.07347 0.2492 0.0
H433 H 0.92309 0.10091 0.21303 0.0
H434 H 0.8571 0.05431 0.31519 0.0
H435 H 0.95254 0.081 0.27873 0.0
H436 H 0.98701 0.07902 0.40899 0.0
H437 H 0.95716 0.09786 0.34313 0.0
H438 H 0.89731 0.00912 0.3517 0.0
H439 H 0.92675 0.9907 0.4179 0.0
C440 C 0.85492 0.07536 0.25534 0.0
C441 C 0.87306 0.08872 0.22592 0.0
C442 C 0.87178 0.06412 0.29302 0.0
C443 C 0.9071 0.0662 0.30211 0.0
C444 C 0.92526 0.07939 0.27266 0.0
C445 C 0.90843 0.09044 0.23496 0.0
C446 C 0.96742 0.06364 0.39674 0.0
C447 C 0.95918 0.03342 0.41834 0.0
C448 C 0.95052 0.07427 0.35901 0.0
C449 C 0.92498 0.0549 0.34222 0.0
C450 C 0.91669 0.02469 0.36398 0.0
C451 C 0.93371 0.01401 0.40167 0.0
H452 H 0.35636 0.3475 0.66384 0.0
H453 H 0.43671 0.40538 0.61974 0.0
H454 H 0.36503 0.37409 0.72048 0.0
H455 H 0.44437 0.4329 0.67615 0.0
H456 H 0.40229 0.50419 0.74984 0.0
H457 H 0.4067 0.47278 0.69844 0.0
H458 H 0.40795 0.38077 0.77983 0.0
H459 H 0.40359 0.41239 0.8314 0.0
C460 C 0.37634 0.36539 0.66645 0.0
C461 C 0.3958 0.37422 0.63696 0.0
C462 C 0.38123 0.3807 0.699 0.0
C463 C 0.40538 0.40554 0.70274 0.0
C464 C 0.42539 0.41397 0.67384 0.0
C465 C 0.42081 0.39834 0.64142 0.0
C466 C 0.40403 0.47726 0.7568 0.0
C467 C 0.40235 0.46065 0.79443 0.0
C468 C 0.40679 0.4593 0.72749 0.0
C469 C 0.4075 0.42434 0.73511 0.0
C470 C 0.40722 0.40772 0.77314 0.0
C471 C 0.40494 0.42575 0.80264 0.0
H472 H 0.67515 0.60076 0.43604 0.0
H473 H 0.57195 0.62913 0.43669 0.0
H474 H 0.65623 0.57271 0.38148 0.0
H475 H 0.55292 0.60178 0.38141 0.0
H476 H 0.52739 0.51955 0.30972 0.0
H477 H 0.54591 0.54816 0.36384 0.0
H478 H 0.63393 0.58244 0.31443 0.0
H479 H 0.61654 0.55213 0.26169 0.0
C480 C 0.64843 0.60134 0.42416 0.0
C481 C 0.62504 0.61713 0.44064 0.0
C482 C 0.63755 0.58533 0.39279 0.0
C483 C 0.60301 0.58497 0.37689 0.0
C484 C 0.57964 0.60104 0.39326 0.0
C485 C 0.59052 0.61681 0.42487 0.0
C486 C 0.55089 0.53288 0.3106 0.0
C487 C 0.57048 0.53337 0.2813 0.0
C488 C 0.56129 0.54971 0.34141 0.0
C489 C 0.59147 0.56765 0.34362 0.0
C490 C 0.61081 0.56851 0.31404 0.0
C491 C 0.60054 0.55149 0.28341 0.0
H492 H 0.85935 0.06609 0.89093 0.0
H493 H 0.85638 0.17111 0.84316 0.0
H494 H 0.8875 0.05461 0.83895 0.0
H495 H 0.88444 0.15962 0.79115 0.0
H496 H 0.91294 0.12497 0.68597 0.0
H497 H 0.87815 0.13314 0.73374 0.0
H498 H 0.94319 0.06447 0.82088 0.0
H499 H 0.97726 0.05557 0.77295 0.0
C500 C 0.8647 0.08673 0.86933 0.0
C501 C 0.85582 0.11955 0.87137 0.0
C502 C 0.88081 0.08014 0.83954 0.0
C503 C 0.8884 0.10621 0.81103 0.0
C504 C 0.87859 0.13892 0.81238 0.0
C505 C 0.86249 0.14551 0.84221 0.0
C506 C 0.91947 0.11124 0.71519 0.0
C507 C 0.94795 0.08974 0.72573 0.0
C508 C 0.89974 0.11618 0.74263 0.0
C509 C 0.90796 0.09956 0.78115 0.0
C510 C 0.93595 0.07743 0.79139 0.0
C511 C 0.95571 0.0726 0.76403 0.0
H512 H 0.40527 0.33248 0.26803 0.0
H513 H 0.39015 0.43036 0.29357 0.0
H514 H 0.42652 0.35767 0.20942 0.0
H515 H 0.41234 0.45539 0.23587 0.0
H516 H 0.42475 0.49195 0.11132 0.0
H517 H 0.39886 0.46468 0.16558 0.0
H518 H 0.47663 0.38764 0.1922 0.0
H519 H 0.50177 0.41446 0.13702 0.0
C520 C 0.40626 0.35936 0.26102 0.0
C521 C 0.39613 0.37938 0.2856 0.0
C522 C 0.41877 0.37377 0.22766 0.0
C523 C 0.42124 0.40855 0.21799 0.0
C524 C 0.41049 0.42855 0.2422 0.0
C525 C 0.39812 0.41417 0.27555 0.0
C526 C 0.43606 0.469 0.12855 0.0
C527 C 0.46528 0.45534 0.12006 0.0
C528 C 0.42142 0.45351 0.15984 0.0
C529 C 0.43575 0.42403 0.1834 0.0
C530 C 0.46474 0.41012 0.17444 0.0
C531 C 0.47935 0.42563 0.14311 0.0
H532 H 0.16849 0.96764 0.82088 0.0
H533 H 0.10231 0.88384 0.83107 0.0
H534 H 0.13931 0.98727 0.75491 0.0
H535 H 0.07178 0.90411 0.76614 0.0
H536 H 0.04768 0.92604 0.63647 0.0
H537 H 0.07737 0.90833 0.70179 0.0
H538 H 0.09005 0.01129 0.71523 0.0
H539 H 0.06317 0.02884 0.64826 0.0
C540 C 0.1473 0.95378 0.80906 0.0
C541 C 0.13771 0.92418 0.83072 0.0
C542 C 0.13042 0.96504 0.77137 0.0
C543 C 0.10323 0.94719 0.75487 0.0
C544 C 0.09311 0.91809 0.77732 0.0
C545 C 0.11039 0.90655 0.81464 0.0
C546 C 0.05726 0.94496 0.65306 0.0
C547 C 0.05306 0.97894 0.63697 0.0
C548 C 0.07384 0.93478 0.69095 0.0
C549 C 0.08594 0.95831 0.71422 0.0
C550 C 0.08147 0.99237 0.69819 0.0
C551 C 0.0655 0.00252 0.65991 0.0
loop_
_geom_bond_atom_site_label_1
_geom_bond_atom_site_label_2
_geom_bond_distance
_geom_bond_site_symmetry_2
_ccdc_geom_bond_type
C0 C1 1.384 . S
C0 H13 0.947 . S
C0 C35 1.382 . S
C1 C0 1.384 . S
C1 C2 1.378 . S
C2 C1 1.378 . S
C2 C3 1.378 . S
C2 H14 0.952 . S
C3 C2 1.378 . S
C3 H15 0.950 . S
C3 C34 1.383 . S
H4 C23 0.947 . S
H5 C24 0.946 . S
H6 C26 0.953 . S
H7 C27 0.945 . S
H8 C29 0.952 . S
H9 C30 0.949 . S
H10 C32 0.950 . S
H11 C33 0.948 . S
H12 C35 0.951 . S
H13 C0 0.947 . S
H14 C2 0.952 . S
H15 C3 0.950 . S
N16 C19 1.382 . S
N16 C21 1.363 . S
N17 C19 1.371 1_556 S
N17 C20 1.372 . S
N18 C20 1.361 1_554 S
N18 C21 1.377 . S
C19 N16 1.382 . S
C19 N17 1.371 1_554 S
C19 C22 1.480 . S
C20 N17 1.372 . S
C20 N18 1.361 1_556 S
C20 C28 1.457 . S
C21 N16 1.363 . S
C21 N18 1.377 . S
C21 C34 1.479 . S
C22 C19 1.480 . S
C22 C23 1.383 . S
C22 C27 1.385 1_554 S
C23 H4 0.947 . S
C23 C22 1.383 . S
C23 C24 1.388 . S
C24 H5 0.946 . S
C24 C23 1.388 . S
C24 C25 1.384 . S
C25 C24 1.384 . S
C25 C26 1.377 1_554 S
C26 H6 0.953 . S
C26 C25 1.377 1_556 S
C26 C27 1.369 . S
C27 H7 0.945 . S
C27 C22 1.385 1_556 S
C27 C26 1.369 . S
C28 C20 1.457 . S
C28 C29 1.372 . S
C28 C33 1.364 . S
C29 H8 0.952 . S
C29 C28 1.372 . S
C29 C30 1.389 . S
C30 H9 0.949 . S
C30 C29 1.389 . S
C30 C31 1.387 . S
C31 C30 1.387 . S
C31 C32 1.372 . S
C32 H10 0.950 . S
C32 C31 1.372 . S
C32 C33 1.379 . S
C33 H11 0.948 . S
C33 C28 1.364 . S
C33 C32 1.379 . S
C34 C3 1.383 . S
C34 C21 1.479 . S
C34 C35 1.398 . S
C35 C0 1.382 . S
C35 H12 0.951 . S
C35 C34 1.398 . S
C36 C37 1.384 . S
C36 H49 0.947 . S
C36 C71 1.382 . S
C37 C36 1.384 . S
C37 C38 1.378 . S
C38 C37 1.378 . S
C38 C39 1.378 . S
C38 H50 0.952 . S
C39 C38 1.378 . S
C39 H51 0.950 . S
C39 C70 1.383 . S
H40 C59 0.947 . S
H41 C60 0.946 . S
H42 C62 0.953 . S
H43 C63 0.945 . S
H44 C65 0.952 . S
H45 C66 0.949 . S
H46 C68 0.950 . S
H47 C69 0.948 . S
H48 C71 0.951 . S
H49 C36 0.947 . S
H50 C38 0.952 . S
H51 C39 0.950 . S
N52 C55 1.382 . S
N52 C57 1.363 . S
N53 C55 1.371 . S
N53 C56 1.372 . S
N54 C56 1.361 . S
N54 C57 1.377 . S
C55 N52 1.382 . S
C55 N53 1.371 . S
C55 C58 1.480 . S
C56 N53 1.372 . S
C56 N54 1.361 . S
C56 C64 1.457 . S
C57 N52 1.363 . S
C57 N54 1.377 . S
C57 C70 1.479 . S
C58 C55 1.480 . S
C58 C59 1.383 . S
C58 C63 1.385 . S
C59 H40 0.947 . S
C59 C58 1.383 . S
C59 C60 1.388 . S
C60 H41 0.946 . S
C60 C59 1.388 . S
C60 C61 1.384 . S
C61 C60 1.384 . S
C61 C62 1.377 . S
C62 H42 0.953 . S
C62 C61 1.377 . S
C62 C63 1.369 . S
C63 H43 0.945 . S
C63 C58 1.385 . S
C63 C62 1.369 . S
C64 C56 1.457 . S
C64 C65 1.372 . S
C64 C69 1.364 . S
C65 H44 0.952 . S
C65 C64 1.372 . S
C65 C66 1.389 . S
C66 H45 0.949 . S
C66 C65 1.389 . S
C66 C67 1.387 . S
C67 C66 1.387 . S
C67 C68 1.372 . S
C68 H46 0.950 . S
C68 C67 1.372 . S
C68 C69 1.379 . S
C69 H47 0.948 . S
C69 C64 1.364 . S
C69 C68 1.379 . S
C70 C39 1.383 . S
C70 C57 1.479 . S
C70 C71 1.398 . S
C71 C36 1.382 . S
C71 H48 0.951 . S
C71 C70 1.398 . S
C72 C73 1.384 . S
C72 H85 0.947 . S
C72 C107 1.382 . S
C73 C72 1.384 . S
C73 C74 1.378 . S
C74 C73 1.378 . S
C74 C75 1.378 . S
C74 H86 0.952 . S
C75 C74 1.378 . S
C75 H87 0.950 . S
C75 C106 1.383 . S
H76 C95 0.947 . S
H77 C96 0.946 . S
H78 C98 0.953 . S
H79 C99 0.945 . S
H80 C101 0.952 . S
H81 C102 0.949 . S
H82 C104 0.950 . S
H83 C105 0.948 . S
H84 C107 0.951 1_554 S
H85 C72 0.947 . S
H86 C74 0.952 . S
H87 C75 0.950 . S
N88 C91 1.382 . S
N88 C93 1.363 . S
N89 C91 1.371 . S
N89 C92 1.372 . S
N90 C92 1.361 . S
N90 C93 1.377 . S
C91 N88 1.382 . S
C91 N89 1.371 . S
C91 C94 1.480 . S
C92 N89 1.372 . S
C92 N90 1.361 . S
C92 C100 1.457 . S
C93 N88 1.363 . S
C93 N90 1.377 . S
C93 C106 1.479 1_554 S
C94 C91 1.480 . S
C94 C95 1.383 1_554 S
C94 C99 1.385 . S
C95 H76 0.947 . S
C95 C94 1.383 1_556 S
C95 C96 1.388 . S
C96 H77 0.946 . S
C96 C95 1.388 . S
C96 C97 1.384 1_556 S
C97 C96 1.384 1_554 S
C97 C98 1.377 . S
C98 H78 0.953 . S
C98 C97 1.377 . S
C98 C99 1.369 . S
C99 H79 0.945 . S
C99 C94 1.385 . S
C99 C98 1.369 . S
C100 C92 1.457 . S
C100 C101 1.372 . S
C100 C105 1.364 . S
C101 H80 0.952 . S
C101 C100 1.372 . S
C101 C102 1.389 . S
C102 H81 0.949 . S
C102 C101 1.389 . S
C102 C103 1.387 . S
C103 C102 1.387 . S
C103 C104 1.372 . S
C104 H82 0.950 . S
C104 C103 1.372 . S
C104 C105 1.379 . S
C105 H83 0.948 . S
C105 C100 1.364 . S
C105 C104 1.379 . S
C106 C75 1.383 . S
C106 C93 1.479 1_556 S
C106 C107 1.398 . S
C107 C72 1.382 . S
C107 H84 0.951 1_556 S
C107 C106 1.398 . S
C108 C109 1.384 . S
C108 H121 0.947 . S
C108 C143 1.382 . S
C109 C108 1.384 . S
C109 C110 1.378 . S
C110 C109 1.378 . S
C110 C111 1.378 . S
C110 H122 0.952 . S
C111 C110 1.378 . S
C111 H123 0.950 . S
C111 C142 1.383 . S
H112 C131 0.947 . S
H113 C132 0.946 . S
H114 C134 0.953 . S
H115 C135 0.945 . S
H116 C137 0.952 . S
H117 C138 0.949 . S
H118 C140 0.950 . S
H119 C141 0.948 . S
H120 C143 0.951 . S
H121 C108 0.947 . S
H122 C110 0.952 . S
H123 C111 0.950 . S
N124 C127 1.382 . S
N124 C129 1.363 . S
N125 C127 1.371 . S
N125 C128 1.372 . S
N126 C128 1.361 . S
N126 C129 1.377 . S
C127 N124 1.382 . S
C127 N125 1.371 . S
C127 C130 1.480 . S
C128 N125 1.372 . S
C128 N126 1.361 . S
C128 C136 1.457 . S
C129 N124 1.363 . S
C129 N126 1.377 . S
C129 C142 1.479 . S
C130 C127 1.480 . S
C130 C131 1.383 . S
C130 C135 1.385 . S
C131 H112 0.947 . S
C131 C130 1.383 . S
C131 C132 1.388 . S
C132 H113 0.946 . S
C132 C131 1.388 . S
C132 C133 1.384 . S
C133 C132 1.384 . S
C133 C134 1.377 . S
C134 H114 0.953 . S
C134 C133 1.377 . S
C134 C135 1.369 . S
C135 H115 0.945 . S
C135 C130 1.385 . S
C135 C134 1.369 . S
C136 C128 1.457 . S
C136 C137 1.372 . S
C136 C141 1.364 . S
C137 H116 0.952 . S
C137 C136 1.372 . S
C137 C138 1.389 . S
C138 H117 0.949 . S
C138 C137 1.389 . S
C138 C139 1.387 . S
C139 C138 1.387 . S
C139 C140 1.372 . S
C140 H118 0.950 . S
C140 C139 1.372 . S
C140 C141 1.379 . S
C141 H119 0.948 . S
C141 C136 1.364 . S
C141 C140 1.379 . S
C142 C111 1.383 . S
C142 C129 1.479 . S
C142 C143 1.398 . S
C143 C108 1.382 . S
C143 H120 0.951 . S
C143 C142 1.398 . S
Eu144 N173 2.600 . S
Eu144 N179 2.562 . S
Eu144 O188 2.462 . S
Eu144 O189 2.373 . S
Eu144 O191 2.432 . S
Eu144 O192 2.291 1_565 S
Eu144 O196 2.335 1_455 S
Eu144 O199 2.372 1_455 S
Eu144 C208 2.787 . S
C145 N146 1.365 . S
C145 C148 1.405 . S
C145 C152 1.448 . S
N146 C145 1.365 . S
N146 C149 1.307 1_655 S
N146 Eu155 2.600 . S
C147 C149 1.398 1_655 S
C147 C150 1.367 . S
C147 H167 0.931 1_655 S
C148 C145 1.405 . S
C148 C150 1.403 . S
C148 C154 1.439 . S
C149 N146 1.307 1_455 S
C149 C147 1.398 1_455 S
C149 H160 0.941 . S
C150 C147 1.367 . S
C150 C148 1.403 . S
C150 H171 0.929 . S
C151 C152 1.430 . S
C151 C153 1.387 . S
C151 C157 1.404 . S
C152 C145 1.448 . S
C152 C151 1.430 . S
C152 N156 1.351 . S
C153 C151 1.387 . S
C153 C154 1.374 . S
C153 H168 0.931 . S
C154 C148 1.439 . S
C154 C153 1.374 . S
C154 H169 0.931 . S
Eu155 N146 2.600 . S
Eu155 N156 2.562 . S
Eu155 O190 2.335 1_655 S
Eu155 O193 2.372 1_655 S
Eu155 O194 2.462 . S
Eu155 O195 2.373 . S
Eu155 O197 2.432 . S
Eu155 O198 2.291 1_545 S
Eu155 C219 2.787 . S
N156 C152 1.351 . S
N156 Eu155 2.562 . S
N156 C158 1.325 . S
C157 C151 1.404 . S
C157 C159 1.366 . S
C157 H165 0.930 . S
C158 N156 1.325 . S
C158 C159 1.416 . S
C158 H164 0.929 . S
C159 C157 1.366 . S
C159 C158 1.416 . S
C159 H161 0.930 . S
H160 C149 0.941 . S
H161 C159 0.930 . S
H162 C177 0.930 1_655 S
H163 C184 0.930 . S
H164 C158 0.929 . S
H165 C157 0.930 . S
H166 C180 0.929 . S
H167 C147 0.931 1_455 S
H168 C153 0.931 . S
H169 C154 0.931 . S
H170 C175 0.931 1_655 S
H171 C150 0.929 . S
H172 C183 0.930 . S
N173 Eu144 2.600 . S
N173 C174 1.365 . S
N173 C177 1.319 . S
C174 N173 1.365 . S
C174 C176 1.405 . S
C174 C182 1.448 . S
C175 H170 0.931 1_455 S
C175 C177 1.397 . S
C175 C178 1.367 . S
C176 C174 1.405 . S
C176 C178 1.403 . S
C176 C209 1.439 . S
C177 H162 0.930 1_455 S
C177 N173 1.319 . S
C177 C175 1.397 . S
C178 C175 1.367 . S
C178 C176 1.403 . S
C178 H185 0.929 . S
N179 Eu144 2.562 . S
N179 C180 1.325 . S
N179 C182 1.351 . S
C180 H166 0.929 . S
C180 N179 1.325 . S
C180 C184 1.416 . S
C181 C182 1.430 . S
C181 C183 1.404 . S
C181 C210 1.387 . S
C182 C174 1.448 . S
C182 N179 1.351 . S
C182 C181 1.430 . S
C183 H172 0.930 . S
C183 C181 1.404 . S
C183 C184 1.366 . S
C184 H163 0.930 . S
C184 C180 1.416 . S
C184 C183 1.366 . S
H185 C178 0.929 . S
H186 C209 0.931 . S
H187 C210 0.931 . S
O188 Eu144 2.462 . S
O188 C208 1.252 . S
O189 Eu144 2.373 . S
O189 C200 1.249 . S
O190 Eu155 2.335 1_455 S
O190 C200 1.264 1_545 S
O191 Eu144 2.432 . S
O191 C208 1.268 . S
O192 Eu144 2.291 1_545 S
O192 C207 1.255 . S
O193 Eu155 2.372 1_455 S
O193 C207 1.257 . S
O194 Eu155 2.462 . S
O194 C219 1.252 . S
O195 Eu155 2.373 . S
O195 C211 1.249 . S
O196 Eu144 2.335 1_655 S
O196 C211 1.264 1_565 S
O197 Eu155 2.432 . S
O197 C219 1.268 . S
O198 Eu155 2.291 1_565 S
O198 C218 1.255 . S
O199 Eu144 2.372 1_655 S
O199 C218 1.257 . S
C200 O189 1.249 . S
C200 O190 1.264 1_565 S
C201 C204 1.382 . S
C201 C206 1.390 . S
C201 C208 1.506 . S
C202 C203 1.398 . S
C202 C206 1.392 . S
C203 C202 1.398 . S
C203 C205 1.372 . S
C203 H220 0.931 . S
C204 C201 1.382 . S
C204 C205 1.390 . S
C204 H221 0.931 . S
C205 C203 1.372 . S
C205 C204 1.390 . S
C205 H222 0.929 . S
C206 C201 1.390 . S
C206 C202 1.392 . S
C206 H223 0.930 . S
C207 O192 1.255 . S
C207 O193 1.257 . S
C208 Eu144 2.787 . S
C208 O188 1.252 . S
C208 O191 1.268 . S
C208 C201 1.506 . S
C209 C176 1.439 . S
C209 H186 0.931 . S
C209 C210 1.374 . S
C210 C181 1.387 . S
C210 H187 0.931 . S
C210 C209 1.374 . S
C211 O195 1.249 . S
C211 O196 1.264 1_545 S
C212 C215 1.382 . S
C212 C216 1.390 . S
C212 C219 1.506 . S
C213 C214 1.398 . S
C213 C216 1.392 . S
C214 C213 1.398 . S
C214 C217 1.372 . S
C214 H224 0.931 . S
C215 C212 1.382 . S
C215 C217 1.390 . S
C215 H225 0.931 . S
C216 C212 1.390 . S
C216 C213 1.392 . S
C216 H226 0.930 . S
C217 C214 1.372 . S
C217 C215 1.390 . S
C217 H227 0.929 . S
C218 O198 1.255 . S
C218 O199 1.257 . S
C219 Eu155 2.787 . S
C219 O194 1.252 . S
C219 O197 1.268 . S
C219 C212 1.506 . S
H220 C203 0.931 . S
H221 C204 0.931 . S
H222 C205 0.929 . S
H223 C206 0.930 . S
H224 C214 0.931 . S
H225 C215 0.931 . S
H226 C216 0.930 . S
H227 C217 0.929 . S
Eu228 N257 2.600 . S
Eu228 N263 2.562 1_556 S
Eu228 O272 2.462 . S
Eu228 O273 2.373 1_556 S
Eu228 O275 2.432 . S
Eu228 O276 2.291 1_556 S
Eu228 O280 2.335 . S
Eu228 O283 2.381 . S
Eu228 C292 2.787 . S
C229 N230 1.365 . S
C229 C232 1.405 . S
C229 C236 1.448 . S
N230 C229 1.365 . S
N230 C233 1.319 . S
N230 Eu239 2.600 . S
C231 C233 1.397 . S
C231 C234 1.367 . S
C231 H251 0.931 . S
C232 C229 1.405 . S
C232 C234 1.403 . S
C232 C238 1.439 . S
C233 N230 1.319 . S
C233 C231 1.397 . S
C233 H244 0.930 . S
C234 C231 1.367 . S
C234 C232 1.403 . S
C234 H255 0.929 . S
C235 C236 1.430 . S
C235 C237 1.387 . S
C235 C241 1.404 . S
C236 C229 1.448 . S
C236 C235 1.430 . S
C236 N240 1.351 . S
C237 C235 1.387 . S
C237 C238 1.374 . S
C237 H252 0.931 . S
C238 C232 1.439 . S
C238 C237 1.374 . S
C238 H253 0.931 . S
Eu239 N230 2.600 . S
Eu239 N240 2.562 . S
Eu239 O274 2.335 . S
Eu239 O277 2.372 . S
Eu239 O278 2.462 . S
Eu239 O279 2.373 1_554 S
Eu239 O281 2.432 . S
Eu239 O282 2.291 . S
Eu239 C303 2.787 . S
N240 C236 1.351 . S
N240 Eu239 2.562 . S
N240 C242 1.325 . S
C241 C235 1.404 . S
C241 C243 1.366 . S
C241 H249 0.930 . S
C242 N240 1.325 . S
C242 C243 1.416 . S
C242 H248 0.929 . S
C243 C241 1.366 . S
C243 C242 1.416 . S
C243 H245 0.930 . S
H244 C233 0.930 . S
H245 C243 0.930 . S
H246 C261 0.930 . S
H247 C268 0.930 . S
H248 C242 0.929 . S
H249 C241 0.930 . S
H250 C264 0.929 . S
H251 C231 0.931 . S
H252 C237 0.931 . S
H253 C238 0.931 . S
H254 C259 0.931 . S
H255 C234 0.929 . S
H256 C267 0.930 . S
N257 Eu228 2.600 . S
N257 C258 1.365 1_556 S
N257 C261 1.319 . S
C258 N257 1.365 1_554 S
C258 C260 1.405 . S
C258 C266 1.448 . S
C259 H254 0.931 . S
C259 C261 1.397 . S
C259 C262 1.367 1_556 S
C260 C258 1.405 . S
C260 C262 1.403 . S
C260 C293 1.439 . S
C261 H246 0.930 . S
C261 N257 1.319 . S
C261 C259 1.397 . S
C262 C259 1.367 1_554 S
C262 C260 1.403 . S
C262 H269 0.929 . S
N263 Eu228 2.562 1_554 S
N263 C264 1.325 . S
N263 C266 1.351 . S
C264 H250 0.929 . S
C264 N263 1.325 . S
C264 C268 1.416 . S
C265 C266 1.430 . S
C265 C267 1.404 . S
C265 C294 1.387 . S
C266 C258 1.448 . S
C266 N263 1.351 . S
C266 C265 1.430 . S
C267 H256 0.930 . S
C267 C265 1.404 . S
C267 C268 1.366 . S
C268 H247 0.930 . S
C268 C264 1.416 . S
C268 C267 1.366 . S
H269 C262 0.929 . S
H270 C293 0.931 . S
H271 C294 0.931 . S
O272 Eu228 2.462 . S
O272 C292 1.252 . S
O273 Eu228 2.373 1_554 S
O273 C284 1.249 . S
O274 Eu239 2.335 . S
O274 C284 1.264 . S
O275 Eu228 2.432 . S
O275 C292 1.268 . S
O276 Eu228 2.291 1_554 S
O276 C291 1.255 . S
O277 Eu239 2.372 . S
O277 C291 1.257 . S
O278 Eu239 2.462 . S
O278 C303 1.252 . S
O279 Eu239 2.373 1_556 S
O279 C295 1.249 . S
O280 Eu228 2.335 . S
O280 C295 1.264 . S
O281 Eu239 2.432 . S
O281 C303 1.268 . S
O282 Eu239 2.291 . S
O282 C302 1.255 . S
O283 Eu228 2.381 . S
O283 C302 1.238 1_556 S
C284 O273 1.249 . S
C284 O274 1.264 . S
C285 C288 1.382 . S
C285 C290 1.390 . S
C285 C292 1.506 . S
C286 C287 1.398 . S
C286 C290 1.392 . S
C287 C286 1.398 . S
C287 C289 1.372 . S
C287 H304 0.931 . S
C288 C285 1.382 . S
C288 C289 1.390 . S
C288 H305 0.931 . S
C289 C287 1.372 . S
C289 C288 1.390 . S
C289 H306 0.929 . S
C290 C285 1.390 . S
C290 C286 1.392 . S
C290 H307 0.930 . S
C291 O276 1.255 . S
C291 O277 1.257 . S
C292 Eu228 2.787 . S
C292 O272 1.252 . S
C292 O275 1.268 . S
C292 C285 1.506 . S
C293 C260 1.439 . S
C293 H270 0.931 . S
C293 C294 1.374 . S
C294 C265 1.387 . S
C294 H271 0.931 . S
C294 C293 1.374 . S
C295 O279 1.249 . S
C295 O280 1.264 . S
C296 C299 1.382 . S
C296 C300 1.390 . S
C296 C303 1.506 . S
C297 C298 1.398 . S
C297 C300 1.392 . S
C298 C297 1.398 . S
C298 C301 1.372 . S
C298 H308 0.931 . S
C299 C296 1.382 . S
C299 C301 1.390 . S
C299 H309 0.931 . S
C300 C296 1.390 . S
C300 C297 1.392 . S
C300 H310 0.930 . S
C301 C298 1.372 . S
C301 C299 1.390 . S
C301 H311 0.929 . S
C302 O282 1.255 . S
C302 O283 1.238 1_554 S
C303 Eu239 2.787 . S
C303 O278 1.252 . S
C303 O281 1.268 . S
C303 C296 1.506 . S
H304 C287 0.931 . S
H305 C288 0.931 . S
H306 C289 0.929 . S
H307 C290 0.930 . S
H308 C298 0.931 . S
H309 C299 0.931 . S
H310 C300 0.930 . S
H311 C301 0.929 . S
H312 C320 0.950 . S
H313 C325 0.950 . S
H314 C322 0.950 . S
H315 C324 0.950 . S
H316 C326 0.950 . S
H317 C328 0.950 . S
H318 C330 0.950 . S
H319 C331 0.950 . S
C320 H312 0.950 . S
C320 C321 1.386 . S
C320 C322 1.391 . S
C321 C320 1.386 . S
C321 C325 1.393 . S
C322 H314 0.950 . S
C322 C320 1.391 . S
C322 C323 1.400 . S
C323 C322 1.400 . S
C323 C324 1.398 . S
C323 C329 1.491 . S
C324 H315 0.950 . S
C324 C323 1.398 . S
C324 C325 1.391 . S
C325 H313 0.950 . S
C325 C321 1.393 . S
C325 C324 1.391 . S
C326 H316 0.950 . S
C326 C327 1.386 . S
C326 C328 1.391 . S
C327 C326 1.386 . S
C327 C331 1.393 . S
C328 H317 0.950 . S
C328 C326 1.391 . S
C328 C329 1.400 . S
C329 C323 1.491 . S
C329 C328 1.400 . S
C329 C330 1.398 . S
C330 H318 0.950 . S
C330 C329 1.398 . S
C330 C331 1.391 . S
C331 H319 0.950 . S
C331 C327 1.393 . S
C331 C330 1.391 . S
H332 C340 0.950 1_556 S
H333 C345 0.950 . S
H334 C342 0.950 1_556 S
H335 C344 0.950 . S
H336 C346 0.950 . S
H337 C348 0.950 . S
H338 C350 0.950 1_556 S
H339 C351 0.950 1_556 S
C340 H332 0.950 1_554 S
C340 C341 1.386 . S
C340 C342 1.391 . S
C341 C340 1.386 . S
C341 C345 1.393 . S
C342 H334 0.950 1_554 S
C342 C340 1.391 . S
C342 C343 1.400 . S
C343 C342 1.400 . S
C343 C344 1.398 . S
C343 C349 1.491 . S
C344 H335 0.950 . S
C344 C343 1.398 . S
C344 C345 1.391 . S
C345 H333 0.950 . S
C345 C341 1.393 . S
C345 C344 1.391 . S
C346 H336 0.950 . S
C346 C347 1.386 . S
C346 C348 1.391 . S
C347 C346 1.386 . S
C347 C351 1.393 . S
C348 H337 0.950 . S
C348 C346 1.391 . S
C348 C349 1.400 . S
C349 C343 1.491 . S
C349 C348 1.400 . S
C349 C350 1.398 . S
C350 H338 0.950 1_554 S
C350 C349 1.398 . S
C350 C351 1.391 . S
C351 H339 0.950 1_554 S
C351 C347 1.393 . S
C351 C350 1.391 . S
H352 C360 0.950 . S
H353 C365 0.950 . S
H354 C362 0.950 . S
H355 C364 0.950 . S
H356 C366 0.950 . S
H357 C368 0.950 . S
H358 C370 0.950 . S
H359 C371 0.950 . S
C360 H352 0.950 . S
C360 C361 1.386 . S
C360 C362 1.391 . S
C361 C360 1.386 . S
C361 C365 1.393 . S
C362 H354 0.950 . S
C362 C360 1.391 . S
C362 C363 1.400 . S
C363 C362 1.400 . S
C363 C364 1.398 . S
C363 C369 1.491 . S
C364 H355 0.950 . S
C364 C363 1.398 . S
C364 C365 1.391 . S
C365 H353 0.950 . S
C365 C361 1.393 . S
C365 C364 1.391 . S
C366 H356 0.950 . S
C366 C367 1.386 . S
C366 C368 1.391 . S
C367 C366 1.386 . S
C367 C371 1.393 . S
C368 H357 0.950 . S
C368 C366 1.391 . S
C368 C369 1.400 . S
C369 C363 1.491 . S
C369 C368 1.400 . S
C369 C370 1.398 . S
C370 H358 0.950 . S
C370 C369 1.398 . S
C370 C371 1.391 . S
C371 H359 0.950 . S
C371 C367 1.393 . S
C371 C370 1.391 . S
H372 C380 0.950 . S
H373 C385 0.950 . S
H374 C382 0.950 . S
H375 C384 0.950 . S
H376 C386 0.950 . S
H377 C388 0.950 . S
H378 C390 0.950 . S
H379 C391 0.959 . S
C380 H372 0.950 . S
C380 C381 1.386 1_556 S
C380 C382 1.391 . S
C381 C380 1.386 1_554 S
C381 C385 1.393 . S
C382 H374 0.950 . S
C382 C380 1.391 . S
C382 C383 1.400 1_556 S
C383 C382 1.400 1_554 S
C383 C384 1.398 . S
C383 C389 1.491 . S
C384 H375 0.950 . S
C384 C383 1.398 . S
C384 C385 1.391 . S
C385 H373 0.950 . S
C385 C381 1.393 . S
C385 C384 1.391 . S
C386 H376 0.950 . S
C386 C387 1.386 . S
C386 C388 1.391 . S
C387 C386 1.386 . S
C387 C391 1.379 1_554 S
C388 H377 0.950 . S
C388 C386 1.391 . S
C388 C389 1.400 . S
C389 C383 1.491 . S
C389 C388 1.400 . S
C389 C390 1.398 1_554 S
C390 H378 0.950 . S
C390 C389 1.398 1_556 S
C390 C391 1.395 . S
C391 H379 0.959 . S
C391 C387 1.379 1_556 S
C391 C390 1.395 . S
H392 C400 0.950 . S
H393 C405 0.950 . S
H394 C402 0.950 . S
H395 C404 0.950 . S
H396 C406 0.950 . S
H397 C408 0.950 . S
H398 C410 0.950 . S
H399 C411 0.950 . S
C400 H392 0.950 . S
C400 C401 1.386 . S
C400 C402 1.391 . S
C401 C400 1.386 . S
C401 C405 1.393 . S
C402 H394 0.950 . S
C402 C400 1.391 . S
C402 C403 1.400 . S
C403 C402 1.400 . S
C403 C404 1.398 . S
C403 C409 1.491 . S
C404 H395 0.950 . S
C404 C403 1.398 . S
C404 C405 1.391 . S
C405 H393 0.950 . S
C405 C401 1.393 . S
C405 C404 1.391 . S
C406 H396 0.950 . S
C406 C407 1.386 . S
C406 C408 1.391 . S
C407 C406 1.386 . S
C407 C411 1.393 . S
C408 H397 0.950 . S
C408 C406 1.391 . S
C408 C409 1.400 . S
C409 C403 1.491 . S
C409 C408 1.400 . S
C409 C410 1.398 . S
C410 H398 0.950 . S
C410 C409 1.398 . S
C410 C411 1.391 . S
C411 H399 0.950 . S
C411 C407 1.393 . S
C411 C410 1.391 . S
H412 C420 0.950 . S
H413 C425 0.950 . S
H414 C422 0.950 . S
H415 C424 0.950 . S
H416 C426 0.950 . S
H417 C428 0.950 . S
H418 C430 0.950 . S
H419 C431 0.950 . S
C420 H412 0.950 . S
C420 C421 1.386 . S
C420 C422 1.391 . S
C421 C420 1.386 . S
C421 C425 1.393 . S
C422 H414 0.950 . S
C422 C420 1.391 . S
C422 C423 1.400 . S
C423 C422 1.400 . S
C423 C424 1.398 . S
C423 C429 1.491 . S
C424 H415 0.950 . S
C424 C423 1.398 . S
C424 C425 1.391 . S
C425 H413 0.950 . S
C425 C421 1.393 . S
C425 C424 1.391 . S
C426 H416 0.950 . S
C426 C427 1.386 . S
C426 C428 1.391 . S
C427 C426 1.386 . S
C427 C431 1.393 . S
C428 H417 0.950 . S
C428 C426 1.391 . S
C428 C429 1.400 . S
C429 C423 1.491 . S
C429 C428 1.400 . S
C429 C430 1.398 . S
C430 H418 0.950 . S
C430 C429 1.398 . S
C430 C431 1.391 . S
C431 H419 0.950 . S
C431 C427 1.393 . S
C431 C430 1.391 . S
H432 C440 0.950 . S
H433 C445 0.950 . S
H434 C442 0.950 . S
H435 C444 0.950 . S
H436 C446 0.950 . S
H437 C448 0.950 . S
H438 C450 0.950 . S
H439 C451 0.950 . S
C440 H432 0.950 . S
C440 C441 1.386 . S
C440 C442 1.391 . S
C441 C440 1.386 . S
C441 C445 1.393 . S
C442 H434 0.950 . S
C442 C440 1.391 . S
C442 C443 1.400 . S
C443 C442 1.400 . S
C443 C444 1.398 . S
C443 C449 1.491 . S
C444 H435 0.950 . S
C444 C443 1.398 . S
C444 C445 1.391 . S
C445 H433 0.950 . S
C445 C441 1.393 . S
C445 C444 1.391 . S
C446 H436 0.950 . S
C446 C447 1.386 . S
C446 C448 1.391 . S
C447 C446 1.386 . S
C447 C451 1.393 . S
C448 H437 0.950 . S
C448 C446 1.391 . S
C448 C449 1.400 . S
C449 C443 1.491 . S
C449 C448 1.400 . S
C449 C450 1.398 . S
C450 H438 0.950 . S
C450 C449 1.398 . S
C450 C451 1.391 . S
C451 H439 0.950 . S
C451 C447 1.393 . S
C451 C450 1.391 . S
H452 C460 0.950 . S
H453 C465 0.950 . S
H454 C462 0.950 . S
H455 C464 0.950 . S
H456 C466 0.950 . S
H457 C468 0.950 . S
H458 C470 0.950 . S
H459 C471 0.950 . S
C460 H452 0.950 . S
C460 C461 1.386 . S
C460 C462 1.391 . S
C461 C460 1.386 . S
C461 C465 1.393 . S
C462 H454 0.950 . S
C462 C460 1.391 . S
C462 C463 1.400 . S
C463 C462 1.400 . S
C463 C464 1.398 . S
C463 C469 1.491 . S
C464 H455 0.950 . S
C464 C463 1.398 . S
C464 C465 1.391 . S
C465 H453 0.950 . S
C465 C461 1.393 . S
C465 C464 1.391 . S
C466 H456 0.950 . S
C466 C467 1.386 . S
C466 C468 1.391 . S
C467 C466 1.386 . S
C467 C471 1.393 . S
C468 H457 0.950 . S
C468 C466 1.391 . S
C468 C469 1.400 . S
C469 C463 1.491 . S
C469 C468 1.400 . S
C469 C470 1.398 . S
C470 H458 0.950 . S
C470 C469 1.398 . S
C470 C471 1.391 . S
C471 H459 0.950 . S
C471 C467 1.393 . S
C471 C470 1.391 . S
H472 C480 0.950 . S
H473 C485 0.950 . S
H474 C482 0.950 . S
H475 C484 0.950 . S
H476 C486 0.950 . S
H477 C488 0.950 . S
H478 C490 0.950 . S
H479 C491 0.950 . S
C480 H472 0.950 . S
C480 C481 1.386 . S
C480 C482 1.391 . S
C481 C480 1.386 . S
C481 C485 1.393 . S
C482 H474 0.950 . S
C482 C480 1.391 . S
C482 C483 1.400 . S
C483 C482 1.400 . S
C483 C484 1.398 . S
C483 C489 1.491 . S
C484 H475 0.950 . S
C484 C483 1.398 . S
C484 C485 1.391 . S
C485 H473 0.950 . S
C485 C481 1.393 . S
C485 C484 1.391 . S
C486 H476 0.950 . S
C486 C487 1.386 . S
C486 C488 1.391 . S
C487 C486 1.386 . S
C487 C491 1.393 . S
C488 H477 0.950 . S
C488 C486 1.391 . S
C488 C489 1.400 . S
C489 C483 1.491 . S
C489 C488 1.400 . S
C489 C490 1.398 . S
C490 H478 0.950 . S
C490 C489 1.398 . S
C490 C491 1.391 . S
C491 H479 0.950 . S
C491 C487 1.393 . S
C491 C490 1.391 . S
H492 C500 0.950 . S
H493 C505 0.950 . S
H494 C502 0.950 . S
H495 C504 0.950 . S
H496 C506 0.950 . S
H497 C508 0.950 . S
H498 C510 0.950 . S
H499 C511 0.950 . S
C500 H492 0.950 . S
C500 C501 1.386 . S
C500 C502 1.391 . S
C501 C500 1.386 . S
C501 C505 1.393 . S
C502 H494 0.950 . S
C502 C500 1.391 . S
C502 C503 1.400 . S
C503 C502 1.400 . S
C503 C504 1.398 . S
C503 C509 1.491 . S
C504 H495 0.950 . S
C504 C503 1.398 . S
C504 C505 1.391 . S
C505 H493 0.950 . S
C505 C501 1.393 . S
C505 C504 1.391 . S
C506 H496 0.950 . S
C506 C507 1.386 . S
C506 C508 1.391 . S
C507 C506 1.386 . S
C507 C511 1.393 . S
C508 H497 0.950 . S
C508 C506 1.391 . S
C508 C509 1.400 . S
C509 C503 1.491 . S
C509 C508 1.400 . S
C509 C510 1.398 . S
C510 H498 0.950 . S
C510 C509 1.398 . S
C510 C511 1.391 . S
C511 H499 0.950 . S
C511 C507 1.393 . S
C511 C510 1.391 . S
H512 C520 0.950 . S
H513 C525 0.950 . S
H514 C522 0.950 . S
H515 C524 0.950 . S
H516 C526 0.950 . S
H517 C528 0.950 . S
H518 C530 0.950 . S
H519 C531 0.950 . S
C520 H512 0.950 . S
C520 C521 1.386 . S
C520 C522 1.391 . S
C521 C520 1.386 . S
C521 C525 1.393 . S
C522 H514 0.950 . S
C522 C520 1.391 . S
C522 C523 1.400 . S
C523 C522 1.400 . S
C523 C524 1.398 . S
C523 C529 1.491 . S
C524 H515 0.950 . S
C524 C523 1.398 . S
C524 C525 1.391 . S
C525 H513 0.950 . S
C525 C521 1.393 . S
C525 C524 1.391 . S
C526 H516 0.950 . S
C526 C527 1.386 . S
C526 C528 1.391 . S
C527 C526 1.386 . S
C527 C531 1.393 . S
C528 H517 0.950 . S
C528 C526 1.391 . S
C528 C529 1.400 . S
C529 C523 1.491 . S
C529 C528 1.400 . S
C529 C530 1.398 . S
C530 H518 0.950 . S
C530 C529 1.398 . S
C530 C531 1.391 . S
C531 H519 0.950 . S
C531 C527 1.393 . S
C531 C530 1.391 . S
H532 C540 0.950 . S
H533 C545 0.950 . S
H534 C542 0.950 . S
H535 C544 0.950 . S
H536 C546 0.950 . S
H537 C548 0.950 . S
H538 C550 0.950 1_545 S
H539 C551 0.950 1_545 S
C540 H532 0.950 . S
C540 C541 1.386 . S
C540 C542 1.391 . S
C541 C540 1.386 . S
C541 C545 1.393 . S
C542 H534 0.950 . S
C542 C540 1.391 . S
C542 C543 1.400 . S
C543 C542 1.400 . S
C543 C544 1.398 . S
C543 C549 1.491 . S
C544 H535 0.950 . S
C544 C543 1.398 . S
C544 C545 1.391 . S
C545 H533 0.950 . S
C545 C541 1.393 . S
C545 C544 1.391 . S
C546 H536 0.950 . S
C546 C547 1.386 . S
C546 C548 1.391 . S
C547 C546 1.386 . S
C547 C551 1.393 . S
C548 H537 0.950 . S
C548 C546 1.391 . S
C548 C549 1.400 . S
C549 C543 1.491 . S
C549 C548 1.400 . S
C549 C550 1.398 . S
C550 H538 0.950 1_565 S
C550 C549 1.398 . S
C550 C551 1.391 . S
C551 H539 0.950 1_565 S
C551 C547 1.393 . S
C551 C550 1.391 . S
C327 C207 1.639 . S
C321 C133 1.640 . S
C341 C25 1.624 . S
C347 C302 1.626 . S
C361 C61 1.623 . S
C367 C218 1.638 . S
C381 C97 1.601 . S
C387 C291 1.618 . S
C407 C202 1.435 . S
C401 C1 1.558 . S
C427 C295 1.613 . S
C421 C67 1.573 . S
C441 C103 1.582 . S
C447 C211 1.620 . S
C461 C109 1.537 . S
C467 C286 1.385 . S
C487 C297 1.410 . S
C481 C37 1.529 . S
C507 C213 1.403 . S
C501 C73 1.550 . S
C527 C284 1.613 . S
C521 C139 1.607 . S
C541 C31 1.612 . S
C547 C200 1.617 . S
