# Generated by pormake.
# Topology anh, (6,3)-cn, num edge types: 1
# Building blocks:
#     Node 0, Type 0, BuildingBlock: BETDAH_clean_sbu_0, # of connection points: 6
#     Node 1, Type 0, BuildingBlock: BETDAH_clean_sbu_0, # of connection points: 6
#     Node 2, Type 0, BuildingBlock: BETDAH_clean_sbu_0, # of connection points: 6
#     Node 3, Type 1, BuildingBlock: CUQRIR_clean_linker_1, # of connection points: 3
#     Node 4, Type 1, BuildingBlock: CUQRIR_clean_linker_1, # of connection points: 3
#     Node 5, Type 1, BuildingBlock: CUQRIR_clean_linker_1, # of connection points: 3
#     Node 6, Type 1, BuildingBlock: CUQRIR_clean_linker_1, # of connection points: 3
#     Node 7, Type 1, BuildingBlock: CUQRIR_clean_linker_1, # of connection points: 3
#     Node 8, Type 1, BuildingBlock: CUQRIR_clean_linker_1, # of connection points: 3
#     Edge 9, Type (0, 1), BuildingBlock: MIFKUJ_clean_linker_0, # of connection points: 2
#     Edge 10, Type (0, 1), BuildingBlock: MIFKUJ_clean_linker_0, # of connection points: 2
#     Edge 11, Type (0, 1), BuildingBlock: MIFKUJ_clean_linker_0, # of connection points: 2
#     Edge 12, Type (0, 1), BuildingBlock: MIFKUJ_clean_linker_0, # of connection points: 2
#     Edge 13, Type (0, 1), BuildingBlock: MIFKUJ_clean_linker_0, # of connection points: 2
#     Edge 14, Type (0, 1), BuildingBlock: MIFKUJ_clean_linker_0, # of connection points: 2
#     Edge 15, Type (0, 1), BuildingBlock: MIFKUJ_clean_linker_0, # of connection points: 2
#     Edge 16, Type (0, 1), BuildingBlock: MIFKUJ_clean_linker_0, # of connection points: 2
#     Edge 17, Type (0, 1), BuildingBlock: MIFKUJ_clean_linker_0, # of connection points: 2
#     Edge 18, Type (0, 1), BuildingBlock: MIFKUJ_clean_linker_0, # of connection points: 2
#     Edge 19, Type (0, 1), BuildingBlock: MIFKUJ_clean_linker_0, # of connection points: 2
#     Edge 20, Type (0, 1), BuildingBlock: MIFKUJ_clean_linker_0, # of connection points: 2
#     Edge 21, Type (0, 1), BuildingBlock: MIFKUJ_clean_linker_0, # of connection points: 2
#     Edge 22, Type (0, 1), BuildingBlock: MIFKUJ_clean_linker_0, # of connection points: 2
#     Edge 23, Type (0, 1), BuildingBlock: MIFKUJ_clean_linker_0, # of connection points: 2
#     Edge 24, Type (0, 1), BuildingBlock: MIFKUJ_clean_linker_0, # of connection points: 2
#     Edge 25, Type (0, 1), BuildingBlock: MIFKUJ_clean_linker_0, # of connection points: 2
#     Edge 26, Type (0, 1), BuildingBlock: MIFKUJ_clean_linker_0, # of connection points: 2
# Relax obj value: 0.168
# Max RMSD: 0.211
# Mean RMSD: 0.161
data_MOF--net-anh--node1-BETDAH_clean_sbu_0--node2-CUQRIR_clean_linker_1--edge1-MIFKUJ_clean_linker_0
_symmetry_space_group_name_H-M    P1
_symmetry_Int_Tables_number       1
_symmetry_cell_setting            triclinic
loop_
_symmetry_equiv_pos_as_xyz
'x, y, z'
_cell_length_a     37.292253
_cell_length_b     44.343918
_cell_length_c     61.329984
_cell_angle_alpha  88.116294
_cell_angle_beta   91.235174
_cell_angle_gamma 128.21959
loop_
_atom_site_label
_atom_site_type_symbol
_atom_site_fract_x
_atom_site_fract_y
_atom_site_fract_z
_atom_type_partial_charge
Ho0 Ho 0.09609 0.47702 0.15107 0.0
Ho1 Ho 1.04509 0.50502 0.16504 0.0
C2 C 0.1512 0.56862 0.16125 0.0
C3 C 0.15502 0.47158 0.1353 0.0
C4 C 0.20327 0.49329 0.14204 0.0
C5 C 0.23579 0.53242 0.13624 0.0
C6 C 0.27842 0.55483 0.14647 0.0
C7 C 0.28932 0.53848 0.16262 0.0
C8 C 0.25785 0.49899 0.16751 0.0
C9 C 0.21539 0.47659 0.15724 0.0
C10 C 0.08106 0.47179 0.19437 0.0
C11 C 0.99073 0.41414 0.15491 0.0
C12 C 0.98827 0.50949 0.18468 0.0
C13 C 0.93897 0.48024 0.18813 0.0
C14 C 0.91876 0.47874 0.20755 0.0
C15 C 0.8717 0.45091 0.21067 0.0
C16 C 0.84422 0.42423 0.19435 0.0
C17 C 0.86524 0.42494 0.17536 0.0
C18 C 0.91208 0.45253 0.17233 0.0
C19 C 1.06302 0.51313 0.12197 0.0
O20 O 0.15074 0.54211 0.15147 0.0
O21 O 0.11434 0.55995 0.17074 0.0
O22 O 0.12522 0.44755 0.1501 0.0
O23 O 0.14377 0.49132 0.12545 0.0
O24 O 0.07933 0.44617 0.18381 0.0
O25 O 0.09293 0.49944 0.18181 0.0
O26 O 0.99257 0.44009 0.1661 0.0
O27 O 1.02625 0.42364 0.14361 0.0
O28 O 1.00116 0.52127 0.16446 0.0
O29 O 1.01369 0.50265 0.19498 0.0
O30 O 1.06418 0.53805 0.13317 0.0
O31 O 1.04982 0.48414 0.13379 0.0
H32 H 0.2277 0.54614 0.12445 0.0
H33 H 0.30234 0.58514 0.14222 0.0
H34 H 0.26599 0.48541 0.1794 0.0
H35 H 0.19127 0.44648 0.16192 0.0
H36 H 0.93924 0.49941 0.22014 0.0
H37 H 0.85667 0.45091 0.22558 0.0
H38 H 0.84532 0.40541 0.16225 0.0
H39 H 0.92712 0.45263 0.15738 0.0
Ho40 Ho 0.67195 0.03765 0.48374 0.0
Ho41 Ho 0.61458 0.06214 0.46971 0.0
C42 C 0.56336 0.97289 0.47362 0.0
C43 C 0.70578 0.00756 0.50321 0.0
C44 C 0.69568 0.96993 0.50653 0.0
C45 C 0.65118 0.9363 0.51071 0.0
C46 C 0.6432 0.90145 0.51526 0.0
C47 C 0.67963 0.89971 0.51581 0.0
C48 C 0.72391 0.93332 0.51106 0.0
C49 C 0.73181 0.96804 0.5065 0.0
C50 C 0.66942 0.04873 0.44034 0.0
C51 C 0.72423 0.12653 0.47695 0.0
C52 C 0.58323 0.09541 0.45214 0.0
C53 C 0.58902 0.13006 0.45805 0.0
C54 C 0.58332 0.15047 0.44234 0.0
C55 C 0.58881 0.18343 0.44808 0.0
C56 C 0.59972 0.19617 0.46966 0.0
C57 C 0.6061 0.17592 0.48524 0.0
C58 C 0.60106 0.1433 0.47947 0.0
C59 C 0.6188 0.05386 0.51341 0.0
O60 O 0.59956 0.98179 0.48469 0.0
O61 O 0.56393 0.99951 0.46285 0.0
O62 O 0.71751 0.02278 0.48353 0.0
O63 O 0.67838 0.01216 0.51258 0.0
O64 O 0.70485 0.0561 0.45043 0.0
O65 O 0.6364 0.03311 0.45331 0.0
O66 O 0.687 0.11684 0.46671 0.0
O67 O 0.72481 0.10097 0.48828 0.0
O68 O 0.56019 0.06649 0.46608 0.0
O69 O 0.61999 0.10118 0.44524 0.0
O70 O 0.58397 0.04728 0.50324 0.0
O71 O 0.65123 0.06795 0.50019 0.0
H72 H 0.62275 0.93709 0.5109 0.0
H73 H 0.60875 0.87616 0.51897 0.0
H74 H 0.75259 0.93284 0.51093 0.0
H75 H 0.76636 0.99364 0.50327 0.0
H76 H 0.57443 0.14082 0.42569 0.0
H77 H 0.58365 0.1985 0.43577 0.0
H78 H 0.61529 0.18549 0.5019 0.0
H79 H 0.60638 0.12829 0.49176 0.0
Ho80 Ho 0.63561 0.61 0.84244 0.0
Ho81 Ho 0.56823 0.52329 0.84646 0.0
C82 C 0.52491 0.56738 0.84712 0.0
C83 C 0.67993 0.68024 0.82859 0.0
C84 C 0.67151 0.70819 0.82381 0.0
C85 C 0.68388 0.72692 0.80332 0.0
C86 C 0.67758 0.7543 0.79839 0.0
C87 C 0.65915 0.76388 0.81395 0.0
C88 C 0.64621 0.74467 0.83443 0.0
C89 C 0.65221 0.71699 0.8393 0.0
C90 C 0.62135 0.58117 0.88315 0.0
C91 C 0.67939 0.5661 0.84465 0.0
C92 C 0.52557 0.45191 0.85742 0.0
C93 C 0.5331 0.42324 0.85428 0.0
C94 C 0.56676 0.42448 0.86606 0.0
C95 C 0.57376 0.39745 0.8625 0.0
C96 C 0.54735 0.36865 0.84705 0.0
C97 C 0.51359 0.36744 0.83539 0.0
C98 C 0.50637 0.39421 0.83907 0.0
C99 C 0.5858 0.5525 0.80531 0.0
O100 O 0.56647 0.59898 0.84169 0.0
O101 O 0.51781 0.53469 0.85202 0.0
O102 O 0.6793 0.67059 0.84907 0.0
O103 O 0.65994 0.65106 0.8156 0.0
O104 O 0.66073 0.61141 0.87624 0.0
O105 O 0.59111 0.56944 0.86871 0.0
O106 O 0.63713 0.53431 0.84866 0.0
O107 O 0.68724 0.59912 0.8398 0.0
O108 O 0.51612 0.46326 0.83982 0.0
O109 O 0.55358 0.48018 0.8705 0.0
O110 O 0.54608 0.5225 0.81186 0.0
O111 O 0.61435 0.56373 0.82049 0.0
H112 H 0.6986 0.72041 0.7911 0.0
H113 H 0.687 0.76783 0.7823 0.0
H114 H 0.63226 0.75152 0.84687 0.0
H115 H 0.64215 0.70283 0.85522 0.0
H116 H 0.58783 0.44634 0.87801 0.0
H117 H 0.59962 0.39896 0.87201 0.0
H118 H 0.4931 0.34616 0.8231 0.0
H119 H 0.48009 0.39244 0.8298 0.0
C120 C 0.57476 0.99161 0.17945 0.0
N121 N 0.60113 0.01937 0.1943 0.0
N122 N 0.53935 0.95863 0.18943 0.0
C123 C 0.58145 0.99741 0.15516 0.0
C124 C 0.54526 0.96726 0.21082 0.0
N125 N 0.58231 1.00413 0.21374 0.0
C126 C 0.51685 0.93876 0.22904 0.0
H127 H 0.54855 0.97758 0.14646 0.0
H128 H 0.60484 0.99134 0.15025 0.0
H129 H 0.59695 0.02748 0.15022 0.0
H130 H 0.50147 0.90909 0.22425 0.0
H131 H 0.48894 0.94007 0.23296 0.0
H132 H 0.53772 0.94556 0.24396 0.0
C133 C 0.64635 0.54339 0.54606 0.0
N134 N 0.64946 0.5657 0.56178 0.0
N135 N 0.65048 0.51723 0.55488 0.0
C136 C 0.63771 0.54628 0.52228 0.0
C137 C 0.65652 0.52463 0.57647 0.0
N138 N 0.65632 0.55431 0.58062 0.0
C139 C 0.66012 0.50158 0.59364 0.0
H140 H 0.60043 0.52946 0.51965 0.0
H141 H 0.64991 0.53456 0.51171 0.0
H142 H 0.65457 0.57658 0.51726 0.0
H143 H 0.66838 0.48394 0.58642 0.0
H144 H 0.6271 0.48239 0.6024 0.0
H145 H 0.68679 0.5207 0.60577 0.0
C146 C 0.0991 0.56065 0.85947 0.0
N147 N 0.1259 0.5588 0.8744 0.0
N148 N 1.06456 0.55782 0.86943 0.0
C149 C 0.10389 0.56212 0.83516 0.0
C150 C 0.07099 0.55401 0.89075 0.0
N151 N 0.1074 0.55445 0.89383 0.0
C152 C 1.04103 0.5496 0.90871 0.0
H153 H 0.12842 0.59253 0.82954 0.0
H154 H 0.07068 0.54953 0.82701 0.0
H155 H 0.11674 0.54647 0.83032 0.0
H156 H 1.01089 0.51889 0.91043 0.0
H157 H 1.02868 0.56638 0.90477 0.0
H158 H 1.0594 0.55899 0.92448 0.0
C159 C 0.13986 0.55022 0.45398 0.0
N160 N 0.11248 0.5209 0.4401 0.0
N161 N 0.17149 0.58314 0.44274 0.0
C162 C 0.13702 0.54666 0.47846 0.0
C163 C 0.16298 0.57292 0.42163 0.0
N164 N 0.12753 0.53514 0.42 0.0
C165 C 0.18979 0.59972 0.40254 0.0
H166 H 0.11321 0.55183 0.48408 0.0
H167 H 0.17077 0.56827 0.48602 0.0
H168 H 0.12415 0.51751 0.48411 0.0
H169 H 0.21716 0.59781 0.39845 0.0
H170 H 0.20608 0.62995 0.40633 0.0
H171 H 0.16749 0.59147 0.38802 0.0
C172 C 0.60732 0.07251 0.77962 0.0
N173 N 0.61354 0.05674 0.76301 0.0
N174 N 0.60619 0.10081 0.77201 0.0
C175 C 0.60397 0.06136 0.80335 0.0
C176 C 0.61225 0.10212 0.75028 0.0
N177 N 0.61748 0.07566 0.74472 0.0
C178 C 0.61062 0.12805 0.73453 0.0
H179 H 0.56783 0.03734 0.80731 0.0
H180 H 0.61538 0.08569 0.81391 0.0
H181 H 0.62476 0.05169 0.80694 0.0
H182 H 0.64568 0.15523 0.73214 0.0
H183 H 0.58939 0.13537 0.74102 0.0
H184 H 0.59667 0.11437 0.71851 0.0
C185 C 0.60863 0.51619 0.14242 0.0
N186 N 0.60883 0.50023 0.12407 0.0
N187 N 0.60106 0.5418 0.13759 0.0
C188 C 0.61004 0.50332 0.16519 0.0
C189 C 0.59595 0.54029 0.11563 0.0
N190 N 0.60084 0.51511 0.10741 0.0
C191 C 0.58347 0.56178 0.10247 0.0
H192 H 0.57474 0.47915 0.17035 0.0
H193 H 0.62419 0.52697 0.17677 0.0
H194 H 0.63079 0.49317 0.1658 0.0
H195 H 0.59477 0.58817 0.11085 0.0
H196 H 0.54583 0.54314 0.10053 0.0
H197 H 0.59902 0.56945 0.08599 0.0
H198 H 0.30711 0.53972 0.20622 0.0
H199 H 0.38142 0.56807 0.22311 0.0
H200 H 0.44589 0.61608 0.16025 0.0
H201 H 0.37258 0.58934 0.14386 0.0
H202 H 0.42376 0.54493 0.2177 0.0
H203 H 0.54938 0.67822 0.15688 0.0
H204 H 0.5651 0.73987 0.14791 0.0
H205 H 0.4991 0.7312 0.20692 0.0
H206 H 0.48332 0.66964 0.21646 0.0
H207 H 0.51405 0.51146 0.14247 0.0
H208 H 0.48295 0.53237 0.1669 0.0
H209 H 0.6186 0.62173 0.19059 0.0
H210 H 0.64978 0.60039 0.16556 0.0
H211 H 0.56959 0.64836 0.18137 0.0
H212 H 0.54898 0.55596 0.22815 0.0
H213 H 0.53565 0.49633 0.24053 0.0
H214 H 0.39773 0.42979 0.21698 0.0
H215 H 0.41031 0.4888 0.20409 0.0
C216 C 0.33754 0.55731 0.19624 0.0
C217 C 0.3342 0.56178 0.17367 0.0
C218 C 0.38001 0.57369 0.20592 0.0
C219 C 0.41975 0.59434 0.19311 0.0
C220 C 0.41644 0.60135 0.17086 0.0
C221 C 0.37418 0.58554 0.1613 0.0
C222 C 0.46162 0.60015 0.20095 0.0
C223 C 0.45603 0.56814 0.21032 0.0
C224 C 0.50531 0.63175 0.19327 0.0
C225 C 0.51546 0.66922 0.18752 0.0
C226 C 0.53874 0.68959 0.16816 0.0
C227 C 0.54746 0.7245 0.16289 0.0
C228 C 0.53325 0.73951 0.17686 0.0
C229 C 0.51023 0.71961 0.19613 0.0
C230 C 0.50122 0.68461 0.20143 0.0
C231 C 0.53699 0.53543 0.15299 0.0
C232 C 0.58393 0.55453 0.15231 0.0
C233 C 0.5194 0.54717 0.16707 0.0
C234 C 0.54843 0.57809 0.18093 0.0
C235 C 0.59568 0.59752 0.18023 0.0
C236 C 0.61336 0.5855 0.16603 0.0
C237 C 0.52792 0.59062 0.19464 0.0
C238 C 0.53807 0.62629 0.18976 0.0
C239 C 0.4891 0.56308 0.20737 0.0
C240 C 0.48056 0.52706 0.21534 0.0
C241 C 0.51578 0.52862 0.22559 0.0
C242 C 0.50837 0.49489 0.23267 0.0
C243 C 0.46582 0.45931 0.22961 0.0
C244 C 0.4306 0.45739 0.21945 0.0
C245 C 0.43783 0.49103 0.21231 0.0
H246 H 0.46017 0.43322 0.23509 0.0
H247 H 0.53995 0.76649 0.17273 0.0
H248 H 0.79972 0.16433 0.50367 0.0
H249 H 0.86676 0.23235 0.5013 0.0
H250 H 0.80999 0.2475 0.44385 0.0
H251 H 0.74267 0.18049 0.44664 0.0
H252 H 0.93154 0.27541 0.47398 0.0
H253 H 0.83611 0.33425 0.4403 0.0
H254 H 0.76066 0.31882 0.44461 0.0
H255 H 0.74314 0.26278 0.50634 0.0
H256 H 0.81885 0.27868 0.50273 0.0
H257 H 0.09536 0.45613 0.42535 0.0
H258 H 1.02951 0.38996 0.43388 0.0
H259 H 0.98008 0.43058 0.47816 0.0
H260 H 1.04294 0.49671 0.46739 0.0
H261 H 0.91218 0.37563 0.46116 0.0
H262 H 1.03635 0.38841 0.4945 0.0
H263 H 0.11238 0.40437 0.49767 0.0
H264 H 0.0746 0.32015 0.45019 0.0
H265 H 0.99852 0.30403 0.44652 0.0
C266 C 0.8016 0.18228 0.49059 0.0
C267 C 0.76569 0.16714 0.47549 0.0
C268 C 0.83995 0.22112 0.48921 0.0
C269 C 0.84317 0.24536 0.47262 0.0
C270 C 0.80788 0.22981 0.45717 0.0
C271 C 0.76939 0.19134 0.45874 0.0
C272 C 0.8833 0.28685 0.47116 0.0
C273 C 0.92737 0.29737 0.47128 0.0
C274 C 0.87811 0.31584 0.46853 0.0
C275 C 0.83305 0.30729 0.47109 0.0
C276 C 0.81633 0.31887 0.45486 0.0
C277 C 0.77347 0.30999 0.45717 0.0
C278 C 0.74704 0.28957 0.47565 0.0
C279 C 0.76354 0.27833 0.49197 0.0
C280 C 0.80645 0.28734 0.48981 0.0
C281 C 0.06993 0.45088 0.43655 0.0
C282 C 0.07438 0.48163 0.44574 0.0
C283 C 1.03267 0.41294 0.44183 0.0
C284 C 1.00006 0.40482 0.45719 0.0
C285 C 1.00461 0.4357 0.46635 0.0
C286 C 1.04098 0.47361 0.46046 0.0
C287 C 0.96074 0.36431 0.46329 0.0
C288 C 0.91666 0.35389 0.46405 0.0
C289 C 0.96617 0.33576 0.46793 0.0
C290 C 1.01184 0.34523 0.47012 0.0
C291 C 1.04435 0.37345 0.48464 0.0
C292 C 0.08744 0.38251 0.48654 0.0
C293 C 0.09834 0.36334 0.47411 0.0
C294 C 1.06612 0.335 0.4598 0.0
C295 C 1.02298 0.32585 0.45782 0.0
H296 H 0.13173 0.3704 0.4756 0.0
H297 H 0.71397 0.28278 0.47746 0.0
H298 H 0.58935 0.76512 0.82562 0.0
H299 H 0.58068 0.81435 0.81644 0.0
H300 H 0.70766 0.87951 0.78093 0.0
H301 H 0.71763 0.83141 0.79087 0.0
H302 H 0.70186 0.92542 0.80495 0.0
H303 H 0.60209 0.82276 0.75455 0.0
H304 H 0.53976 0.75512 0.74617 0.0
H305 H 0.44643 0.75866 0.78354 0.0
H306 H 0.50834 0.82625 0.79231 0.0
H307 H 0.68146 0.05598 0.74953 0.0
H308 H 0.68746 1.00425 0.75606 0.0
H309 H 0.5566 0.93599 0.78835 0.0
H310 H 0.54993 0.98693 0.78082 0.0
H311 H 0.56351 0.89091 0.76594 0.0
H312 H 0.65839 0.99018 0.81705 0.0
H313 H 0.71884 0.05615 0.82892 0.0
H314 H 0.81882 0.05763 0.7943 0.0
H315 H 0.7588 0.99183 0.78194 0.0
C316 C 0.61567 0.7901 0.81605 0.0
C317 C 0.65393 0.79402 0.80878 0.0
C318 C 0.61045 0.81806 0.81063 0.0
C319 C 0.64314 0.85031 0.79765 0.0
C320 C 0.68183 0.85474 0.79081 0.0
C321 C 0.68721 0.82695 0.79632 0.0
C322 C 0.63719 0.8795 0.79107 0.0
C323 C 0.67193 0.91798 0.79613 0.0
C324 C 0.59748 0.86959 0.78017 0.0
C325 C 0.55988 0.82948 0.77417 0.0
C326 C 0.56827 0.80909 0.76099 0.0
C327 C 0.53304 0.77077 0.75618 0.0
C328 C 0.48917 0.7526 0.76432 0.0
C329 C 0.48041 0.77279 0.77721 0.0
C330 C 0.51553 0.81112 0.78207 0.0
C331 C 0.6538 0.02957 0.75764 0.0
C332 C 0.61552 0.02536 0.76494 0.0
C333 C 0.65731 1.00021 0.76154 0.0
C334 C 0.62289 0.96651 0.77313 0.0
C335 C 0.5837 0.96173 0.7795 0.0
C336 C 0.58004 0.99087 0.77539 0.0
C337 C 0.62852 0.93703 0.77959 0.0
C338 C 0.59364 0.89846 0.7746 0.0
C339 C 0.66781 0.94674 0.79088 0.0
C340 C 0.70403 0.98624 0.79838 0.0
C341 C 0.69322 1.00468 0.81183 0.0
C342 C 0.72741 0.04203 0.81867 0.0
C343 C 0.77263 0.06111 0.81232 0.0
C344 C 0.78376 0.04284 0.79917 0.0
C345 C 0.74968 1.00551 0.79225 0.0
H346 H 0.79906 0.09002 0.81763 0.0
H347 H 0.46199 0.72288 0.76067 0.0
H348 H 0.79324 0.4438 0.20968 0.0
H349 H 0.71569 0.41537 0.1994 0.0
H350 H 0.70222 0.32206 0.1695 0.0
H351 H 0.78054 0.35028 0.1803 0.0
H352 H 0.69653 0.36187 0.14009 0.0
H353 H 0.61487 0.30092 0.20342 0.0
H354 H 0.59695 0.28746 0.24264 0.0
H355 H 0.60453 0.3877 0.24691 0.0
H356 H 0.62324 0.40223 0.20783 0.0
H357 H 0.53835 0.42597 0.13112 0.0
H358 H 0.54421 0.37449 0.1395 0.0
H359 H 0.68873 0.45398 0.12581 0.0
H360 H 0.68198 0.50437 0.11702 0.0
H361 H 0.588 0.37663 0.17278 0.0
H362 H 0.7364 0.4181 0.11516 0.0
H363 H 0.75487 0.43083 0.076 0.0
H364 H 0.61253 0.36584 0.06035 0.0
H365 H 0.5931 0.35253 0.09942 0.0
C366 C 0.77327 0.41615 0.20201 0.0
C367 C 0.79365 0.39999 0.1952 0.0
C368 C 0.72843 0.39966 0.19616 0.0
C369 C 0.70311 0.36673 0.18339 0.0
C370 C 0.72123 0.34763 0.1792 0.0
C371 C 0.76616 0.36404 0.1852 0.0
C372 C 0.6654 0.3599 0.16986 0.0
C373 C 0.67188 0.36409 0.14717 0.0
C374 C 0.63165 0.36093 0.17892 0.0
C375 C 0.62024 0.35253 0.20254 0.0
C376 C 0.61289 0.32021 0.21271 0.0
C377 C 0.60259 0.31239 0.23495 0.0
C378 C 0.59951 0.33666 0.24725 0.0
C379 C 0.60675 0.36883 0.23734 0.0
C380 C 0.61706 0.37681 0.2151 0.0
C381 C 0.5707 0.43147 0.12899 0.0
C382 C 0.60973 0.46851 0.12327 0.0
C383 C 0.57415 0.40232 0.13385 0.0
C384 C 0.61678 0.41009 0.13308 0.0
C385 C 0.65515 0.44671 0.12591 0.0
C386 C 0.65154 0.47563 0.12097 0.0
C387 C 0.62375 0.38343 0.14356 0.0
C388 C 0.61101 0.37263 0.16555 0.0
C389 C 0.65173 0.37621 0.13386 0.0
C390 C 0.66323 0.3841 0.11027 0.0
C391 C 0.70895 0.40621 0.10338 0.0
C392 C 0.71964 0.41371 0.08119 0.0
C393 C 0.68494 0.39919 0.06569 0.0
C394 C 0.63944 0.37723 0.07236 0.0
C395 C 0.62856 0.36975 0.09454 0.0
H396 H 0.69343 0.40496 0.04853 0.0
H397 H 0.59156 0.33056 0.26446 0.0
H398 H 0.5536 0.90931 0.48866 0.0
H399 H 0.486 0.84212 0.4866 0.0
H400 H 0.41238 0.87645 0.45397 0.0
H401 H 0.47984 0.94387 0.45605 0.0
H402 H 0.36145 0.82096 0.48668 0.0
H403 H 0.45247 0.84072 0.42453 0.0
H404 H 0.52253 0.86009 0.40642 0.0
H405 H 0.52216 0.77846 0.44624 0.0
H406 H 0.45213 0.75866 0.46466 0.0
H407 H 0.17631 0.64602 0.44006 0.0
H408 H 0.2424 0.71164 0.44904 0.0
H409 H 0.31413 0.6693 0.4727 0.0
H410 H 0.24822 0.60386 0.46284 0.0
H411 H 0.36736 0.72829 0.44715 0.0
H412 H 0.27414 0.70421 0.50753 0.0
H413 H 0.20466 0.68411 0.52658 0.0
H414 H 0.20998 0.77301 0.49258 0.0
H415 H 0.27916 0.79331 0.47308 0.0
C416 C 0.52306 0.90268 0.4811 0.0
C417 C 0.52225 0.93207 0.47249 0.0
C418 C 0.48445 0.86419 0.47987 0.0
C419 C 0.44423 0.85425 0.47001 0.0
C420 C 0.44306 0.88349 0.46166 0.0
C421 C 0.48175 0.92201 0.46278 0.0
C422 C 0.40355 0.81335 0.46813 0.0
C423 C 0.36249 0.80071 0.47785 0.0
C424 C 0.4054 0.78671 0.45723 0.0
C425 C 0.44734 0.79847 0.4461 0.0
C426 C 0.4675 0.82709 0.42952 0.0
C427 C 0.50716 0.83811 0.41918 0.0
C428 C 0.5269 0.82066 0.42524 0.0
C429 C 0.50688 0.792 0.44159 0.0
C430 C 0.46715 0.7808 0.45195 0.0
C431 C 0.20603 0.65094 0.44756 0.0
C432 C 0.20751 0.62033 0.45097 0.0
C433 C 0.24368 0.68828 0.45277 0.0
C434 C 0.28326 0.69552 0.4618 0.0
C435 C 0.28406 0.66452 0.4658 0.0
C436 C 0.24648 0.62722 0.46037 0.0
C437 C 0.32476 0.73564 0.46558 0.0
C438 C 0.36612 0.74827 0.45617 0.0
C439 C 0.32322 0.76212 0.47697 0.0
C440 C 0.28165 0.75008 0.4887 0.0
C441 C 0.26031 0.71929 0.50399 0.0
C442 C 0.22101 0.70789 0.51489 0.0
C443 C 0.20286 0.72722 0.51076 0.0
C444 C 0.22405 0.75804 0.49575 0.0
C445 C 0.26335 0.76954 0.48478 0.0
H446 H 0.17243 0.71835 0.51922 0.0
H447 H 0.55763 0.82928 0.41722 0.0
H448 H 0.48342 0.29217 0.83845 0.0
H449 H 0.49638 0.24664 0.8292 0.0
H450 H 0.64133 0.33402 0.83793 0.0
H451 H 0.6289 0.38054 0.84593 0.0
H452 H 0.62624 0.29749 0.80219 0.0
H453 H 0.57349 0.25777 0.87574 0.0
H454 H 0.52165 0.23793 0.90678 0.0
H455 H 0.41288 0.13913 0.87205 0.0
H456 H 0.4639 0.15864 0.84067 0.0
H457 H 0.67297 0.16642 0.79109 0.0
H458 H 0.6656 0.21158 0.80849 0.0
H459 H 0.52038 0.13482 0.79643 0.0
H460 H 0.52816 0.08962 0.77943 0.0
H461 H 0.54004 0.16717 0.83634 0.0
H462 H 0.59168 0.2095 0.76214 0.0
H463 H 0.64364 0.22871 0.73125 0.0
H464 H 0.75499 0.32295 0.76769 0.0
H465 H 0.70383 0.30383 0.79898 0.0
C466 C 0.51814 0.3019 0.83826 0.0
C467 C 0.55511 0.34018 0.84286 0.0
C468 C 0.52545 0.27559 0.83327 0.0
C469 C 0.56979 0.28667 0.83318 0.0
C470 C 0.60677 0.32472 0.83801 0.0
C471 C 0.59954 0.35121 0.84279 0.0
C472 C 0.57761 0.25899 0.82706 0.0
C473 C 0.60803 0.26929 0.80998 0.0
C474 C 0.55315 0.22181 0.83686 0.0
C475 C 0.52246 0.20984 0.85579 0.0
C476 C 0.53844 0.23194 0.87466 0.0
C477 C 0.50921 0.22073 0.89233 0.0
C478 C 0.46398 0.18733 0.89138 0.0
C479 C 0.44792 0.16501 0.87277 0.0
C480 C 0.477 0.1761 0.85505 0.0
C481 C 0.63958 0.15924 0.79259 0.0
C482 C 0.60107 0.125 0.78411 0.0
C483 C 0.63533 0.1849 0.80238 0.0
C484 C 0.59249 0.17676 0.8035 0.0
C485 C 0.5537 0.14165 0.79575 0.0
C486 C 0.55803 0.11596 0.78606 0.0
C487 C 0.58839 0.20572 0.81148 0.0
C488 C 0.5586 0.19559 0.82881 0.0
C489 C 0.61345 0.24307 0.80194 0.0
C490 C 0.64402 0.25501 0.78298 0.0
C491 C 0.62731 0.23417 0.76362 0.0
C492 C 0.65661 0.24505 0.74604 0.0
C493 C 0.70261 0.27699 0.74752 0.0
C494 C 0.71936 0.29818 0.76658 0.0
C495 C 0.69023 0.28734 0.78424 0.0
H496 H 0.72525 0.28537 0.73389 0.0
H497 H 0.4414 0.17871 0.90507 0.0
H498 H 0.73202 0.89059 0.54248 0.0
H499 H 0.72207 0.83171 0.55108 0.0
H500 H 0.59976 0.76741 0.51188 0.0
H501 H 0.6097 0.82652 0.503 0.0
H502 H 0.59038 0.72905 0.55061 0.0
H503 H 0.69576 0.79143 0.49105 0.0
H504 H 0.76415 0.84551 0.47143 0.0
H505 H 0.84983 0.85277 0.52237 0.0
H506 H 0.78187 0.79905 0.54247 0.0
H507 H 0.58367 0.56502 0.54174 0.0
H508 H 0.58488 0.62036 0.53444 0.0
H509 H 0.71271 0.69271 0.56916 0.0
H510 H 0.71246 0.63766 0.57537 0.0
H511 H 0.71668 0.72588 0.53166 0.0
H512 H 0.60915 0.65875 0.58993 0.0
H513 H 0.53989 0.60312 0.60819 0.0
H514 H 0.45638 0.60352 0.5591 0.0
H515 H 0.5252 0.65833 0.54009 0.0
C516 C 0.70313 0.864 0.53555 0.0
C517 C 0.67201 0.86336 0.5218 0.0
C518 C 0.69737 0.83032 0.54058 0.0
C519 C 0.66052 0.79528 0.53188 0.0
C520 C 0.62845 0.79419 0.51875 0.0
C521 C 0.63418 0.82796 0.51371 0.0
C522 C 0.65676 0.76023 0.5359 0.0
C523 C 0.61764 0.72803 0.54623 0.0
C524 C 0.69272 0.75928 0.53047 0.0
C525 C 0.73369 0.79144 0.51836 0.0
C526 C 0.72917 0.80474 0.49815 0.0
C527 C 0.76785 0.83531 0.48693 0.0
C528 C 0.8113 0.85263 0.49567 0.0
C529 C 0.81615 0.83935 0.51563 0.0
C530 C 0.77756 0.80883 0.52694 0.0
C531 C 0.61206 0.59286 0.54762 0.0
C532 C 0.64824 0.59741 0.55888 0.0
C533 C 0.61255 0.62433 0.54367 0.0
C534 C 0.6488 0.6607 0.55134 0.0
C535 C 0.68446 0.66497 0.56303 0.0
C536 C 0.68416 0.63359 0.56676 0.0
C537 C 0.65048 0.69462 0.54665 0.0
C538 C 0.68929 0.7267 0.5361 0.0
C539 C 0.61405 0.69522 0.55181 0.0
C540 C 0.57251 0.66258 0.56347 0.0
C541 C 0.57607 0.64685 0.58292 0.0
C542 C 0.53686 0.61543 0.59341 0.0
C543 C 0.49377 0.59987 0.58484 0.0
C544 C 0.4898 0.61563 0.56572 0.0
C545 C 0.52893 0.64683 0.55505 0.0
H546 H 0.46345 0.57559 0.59302 0.0
H547 H 0.84121 0.87629 0.48696 0.0
H548 H 0.67746 0.50272 0.84969 0.0
H549 H 0.74143 0.50049 0.8512 0.0
H550 H 0.83601 0.62372 0.84358 0.0
H551 H 0.77203 0.62594 0.84134 0.0
H552 H 0.86822 0.59734 0.82125 0.0
H553 H 0.81293 0.56968 0.89501 0.0
H554 H 0.75498 0.53481 0.92406 0.0
H555 H 0.72979 0.42987 0.90741 0.0
H556 H 0.78726 0.46406 0.87809 0.0
H557 H 0.06919 0.61923 0.85636 0.0
H558 H 1.00483 0.62063 0.85029 0.0
H559 H 0.91081 0.49744 0.85875 0.0
H560 H 0.97544 0.49666 0.86547 0.0
H561 H 0.87798 0.52342 0.88011 0.0
H562 H 0.93459 0.55136 0.80681 0.0
H563 H 0.99214 0.5862 0.77759 0.0
H564 H 1.01475 0.69046 0.7932 0.0
H565 H 0.95773 0.65635 0.8227 0.0
C566 C 0.71182 0.52946 0.84832 0.0
C567 C 0.71897 0.56456 0.84546 0.0
C568 C 0.7488 0.52819 0.84935 0.0
C569 C 0.79455 0.56201 0.84796 0.0
C570 C 0.80161 0.597 0.84478 0.0
C571 C 0.76463 0.59826 0.84356 0.0
C572 C 0.83478 0.56106 0.84979 0.0
C573 C 0.87041 0.5815 0.83434 0.0
C574 C 0.83821 0.53986 0.86646 0.0
C575 C 0.8041 0.51936 0.88424 0.0
C576 C 0.79487 0.53913 0.89748 0.0
C577 C 0.76213 0.5195 0.914 0.0
C578 C 0.73865 0.48014 0.91754 0.0
C579 C 0.74798 0.46036 0.90463 0.0
C580 C 0.78066 0.47985 0.88808 0.0
C581 C 1.03483 0.59239 0.85614 0.0
C582 C 1.0277 0.5577 0.86068 0.0
C583 C 0.99768 0.5931 0.85278 0.0
C584 C 0.95196 0.55906 0.85372 0.0
C585 C 0.94513 0.5243 0.85782 0.0
C586 C 0.98225 0.52369 0.86133 0.0
C587 C 0.91147 0.55963 0.85153 0.0
C588 C 0.8758 0.53918 0.86697 0.0
C589 C 0.90804 0.58084 0.83485 0.0
C590 C 0.94221 0.60137 0.81709 0.0
C591 C 0.95206 0.58178 0.8041 0.0
C592 C 0.98455 0.60138 0.78748 0.0
C593 C 1.00717 0.64054 0.78358 0.0
C594 C 0.99725 0.66015 0.79626 0.0
C595 C 0.96482 0.64068 0.81292 0.0
H596 H 1.03232 0.65567 0.77071 0.0
H597 H 0.71329 0.46498 0.93033 0.0
H598 H 0.23389 0.59883 0.14257 0.0
H599 H 0.30306 0.66573 0.14199 0.0
H600 H 0.2345 0.69685 0.17965 0.0
H601 H 0.16526 0.63026 0.18011 0.0
H602 H 0.28012 0.74678 0.14616 0.0
H603 H 0.31606 0.68967 0.20339 0.0
H604 H 0.32807 0.64409 0.21821 0.0
H605 H 0.42673 0.67952 0.16819 0.0
H606 H 0.4157 0.72564 0.15323 0.0
H607 H 0.44972 0.92186 0.19461 0.0
H608 H 0.3871 0.8565 0.18395 0.0
H609 H 0.48301 0.84851 0.15213 0.0
H610 H 0.5461 0.91388 0.16374 0.0
H611 H 0.42808 0.78681 0.17597 0.0
H612 H 0.40345 0.85172 0.1227 0.0
H613 H 0.39446 0.89893 0.10762 0.0
H614 H 0.27503 0.84859 0.14692 0.0
H615 H 0.28365 0.80141 0.16249 0.0
C616 C 0.23357 0.61982 0.15084 0.0
C617 C 0.19391 0.60898 0.16144 0.0
C618 C 0.27326 0.65814 0.15053 0.0
C619 C 0.2742 0.68642 0.1609 0.0
C620 C 0.23466 0.67563 0.17148 0.0
C621 C 0.19506 0.63741 0.1718 0.0
C622 C 0.31593 0.72738 0.16065 0.0
C623 C 0.31241 0.75559 0.15283 0.0
C624 C 0.3587 0.7389 0.16836 0.0
C625 C 0.36486 0.71087 0.17714 0.0
C626 C 0.34017 0.68759 0.19551 0.0
C627 C 0.34695 0.66182 0.20399 0.0
C628 C 0.37835 0.65914 0.19422 0.0
C629 C 0.40272 0.68191 0.17584 0.0
C630 C 0.39634 0.70795 0.1674 0.0
C631 C 0.4572 0.90623 0.18509 0.0
C632 C 0.50252 0.92267 0.18001 0.0
C633 C 0.42142 0.86897 0.17883 0.0
C634 C 0.43003 0.84746 0.16697 0.0
C635 C 0.47536 0.86445 0.1612 0.0
C636 C 0.51132 0.90182 0.16763 0.0
C637 C 0.39194 0.80648 0.16219 0.0
C638 C 0.3961 0.77819 0.16897 0.0
C639 C 0.34988 0.79488 0.15323 0.0
C640 C 0.34438 0.82313 0.14387 0.0
C641 C 0.37544 0.85086 0.12825 0.0
C642 C 0.37038 0.8776 0.11959 0.0
C643 C 0.33424 0.87679 0.12633 0.0
C644 C 0.30302 0.84918 0.14171 0.0
C645 C 0.30793 0.82239 0.15044 0.0
H646 H 0.33039 0.89752 0.11961 0.0
H647 H 0.38401 0.63961 0.20099 0.0
H648 H 0.64718 0.26668 0.44905 0.0
H649 H 0.65664 0.32354 0.46108 0.0
H650 H 0.57036 0.25868 0.51659 0.0
H651 H 0.56145 0.20209 0.50491 0.0
H652 H 0.55071 0.30496 0.49144 0.0
H653 H 0.6747 0.31419 0.52766 0.0
H654 H 0.74265 0.31668 0.52837 0.0
H655 H 0.81193 0.4148 0.48459 0.0
H656 H 0.74427 0.41283 0.48361 0.0
H657 H 0.58553 0.44183 0.56281 0.0
H658 H 0.57757 0.38875 0.54576 0.0
H659 H 0.69515 0.47016 0.50548 0.0
H660 H 0.70435 0.52319 0.52362 0.0
H661 H 0.70042 0.41761 0.51904 0.0
H662 H 0.58217 0.41444 0.48529 0.0
H663 H 0.51525 0.4133 0.48319 0.0
H664 H 0.43514 0.30531 0.51848 0.0
H665 H 0.50178 0.30605 0.52108 0.0
C666 C 0.62998 0.26455 0.46371 0.0
C667 C 0.60384 0.23011 0.47614 0.0
C668 C 0.63558 0.297 0.4706 0.0
C669 C 0.61428 0.2952 0.48973 0.0
C670 C 0.58708 0.26057 0.50179 0.0
C671 C 0.58223 0.2284 0.49517 0.0
C672 C 0.62085 0.32954 0.49751 0.0
C673 C 0.58329 0.32955 0.49764 0.0
C674 C 0.66374 0.36197 0.50486 0.0
C675 C 0.70434 0.36315 0.50541 0.0
C676 C 0.70433 0.33614 0.51808 0.0
C677 C 0.74285 0.33756 0.51861 0.0
C678 C 0.78159 0.36588 0.50653 0.0
C679 C 0.78192 0.3929 0.49395 0.0
C680 C 0.74355 0.39172 0.49345 0.0
C681 C 0.6095 0.44812 0.5503 0.0
C682 C 0.64514 0.48626 0.54424 0.0
C683 C 0.60481 0.41792 0.54042 0.0
C684 C 0.63515 0.42533 0.52393 0.0
C685 C 0.6711 0.46363 0.51801 0.0
C686 C 0.67617 0.49385 0.52818 0.0
C687 C 0.62996 0.3931 0.51335 0.0
C688 C 0.66782 0.39338 0.51265 0.0
C689 C 0.5874 0.36115 0.50512 0.0
C690 C 0.54711 0.36046 0.50352 0.0
C691 C 0.55038 0.39057 0.49273 0.0
C692 C 0.51248 0.38998 0.49144 0.0
C693 C 0.471 0.35929 0.50074 0.0
C694 C 0.4673 0.32908 0.5113 0.0
C695 C 0.50512 0.32955 0.51267 0.0
H696 H 0.44169 0.35889 0.49972 0.0
H697 H 0.8113 0.36682 0.50688 0.0
H698 H 0.5242 0.62622 0.86033 0.0
H699 H 0.45879 0.62597 0.86424 0.0
H700 H 0.3702 0.5117 0.83864 0.0
H701 H 0.4349 0.51087 0.83684 0.0
H702 H 0.32181 0.50842 0.86343 0.0
H703 H 0.4154 0.67394 0.86329 0.0
H704 H 0.48018 0.73343 0.84495 0.0
H705 H 0.4742 0.66768 0.79314 0.0
H706 H 0.40916 0.60785 0.81102 0.0
H707 H 0.1494 0.51742 0.89546 0.0
H708 H 0.2179 0.52351 0.8916 0.0
H709 H 0.25998 0.60372 0.83763 0.0
H710 H 0.19553 0.60337 0.84455 0.0
H711 H 0.33092 0.62366 0.85006 0.0
H712 H 0.2077 0.49392 0.8371 0.0
H713 H 0.13506 0.42905 0.84324 0.0
H714 H 0.19008 0.4145 0.90121 0.0
H715 H 0.26289 0.47946 0.89554 0.0
C716 C 0.49072 0.60104 0.85552 0.0
C717 C 0.48523 0.56854 0.84827 0.0
C718 C 0.45289 0.601 0.85752 0.0
C719 C 0.40822 0.56906 0.85143 0.0
C720 C 0.40328 0.53688 0.84381 0.0
C721 C 0.44075 0.53643 0.84259 0.0
C722 C 0.36665 0.56827 0.85367 0.0
C723 C 0.32428 0.53384 0.86031 0.0
C724 C 0.36765 0.60055 0.84913 0.0
C725 C 0.40771 0.63636 0.83866 0.0
C726 C 0.42795 0.67217 0.84801 0.0
C727 C 0.4647 0.70594 0.83768 0.0
C728 C 0.48134 0.7043 0.81793 0.0
C729 C 0.46139 0.66888 0.80849 0.0
C730 C 0.42465 0.63502 0.81874 0.0
C731 C 0.17374 0.53758 0.88328 0.0
C732 C 0.16589 0.56015 0.87057 0.0
C733 C 0.21291 0.53998 0.88042 0.0
C734 C 0.2448 0.56291 0.8636 0.0
C735 C 0.23684 0.58537 0.85074 0.0
C736 C 0.1988 0.58453 0.8544 0.0
C737 C 0.28606 0.56372 0.8597 0.0
C738 C 0.32842 0.59819 0.85294 0.0
C739 C 0.28427 0.53073 0.86246 0.0
C740 C 0.24057 0.49169 0.866 0.0
C741 C 0.2042 0.47695 0.85122 0.0
C742 C 0.16301 0.44017 0.85461 0.0
C743 C 0.15792 0.41771 0.87264 0.0
C744 C 0.19405 0.43195 0.88728 0.0
C745 C 0.2353 0.46873 0.88397 0.0
H746 H 0.126 0.38925 0.87524 0.0
H747 H 0.50953 0.73047 0.80988 0.0
H748 H 0.91094 0.38512 0.17587 0.0
H749 H 0.84503 0.31803 0.18158 0.0
H750 H 0.91014 0.28307 0.14447 0.0
H751 H 0.9761 0.35051 0.13823 0.0
H752 H 0.82097 0.24009 0.13485 0.0
H753 H 0.91005 0.28022 0.20036 0.0
H754 H 0.95127 0.32137 0.23196 0.0
H755 H 0.82684 0.29461 0.25576 0.0
H756 H 0.78502 0.25392 0.22407 0.0
H757 H 0.67692 0.04448 0.17185 0.0
H758 H 0.74365 0.11147 0.16452 0.0
H759 H 0.68112 0.15002 0.20046 0.0
H760 H 0.61436 0.08302 0.20756 0.0
H761 H 0.77015 0.19073 0.21075 0.0
H762 H 0.68173 0.1523 0.14478 0.0
H763 H 0.64033 0.11106 0.11324 0.0
H764 H 0.76357 0.13425 0.0906 0.0
H765 H 0.80557 0.17517 0.12222 0.0
C766 C 0.91119 0.3633 0.16867 0.0
C767 C 0.94905 0.37337 0.15661 0.0
C768 C 0.87348 0.32481 0.17211 0.0
C769 C 0.87288 0.29533 0.16384 0.0
C770 C 0.90986 0.30526 0.15113 0.0
C771 C 0.9476 0.34387 0.14757 0.0
C772 C 0.83407 0.25427 0.16882 0.0
C773 C 0.8103 0.22921 0.15146 0.0
C774 C 0.81944 0.24009 0.1905 0.0
C775 C 0.84448 0.26434 0.20968 0.0
C776 C 0.89153 0.28337 0.21223 0.0
C777 C 0.91501 0.30659 0.23017 0.0
C778 C 0.89172 0.31069 0.24582 0.0
C779 C 0.84487 0.2915 0.24359 0.0
C780 C 0.82127 0.26837 0.22563 0.0
C781 C 0.67747 0.06737 0.17799 0.0
C782 C 0.64054 0.05875 0.19012 0.0
C783 C 0.71553 0.10558 0.17386 0.0
C784 C 0.71726 0.13591 0.18172 0.0
C785 C 0.68064 0.12721 0.19421 0.0
C786 C 0.64258 0.089 0.19829 0.0
C787 C 0.75697 0.17666 0.17677 0.0
C788 C 0.78091 0.20164 0.19414 0.0
C789 C 0.77177 0.19077 0.15512 0.0
C790 C 0.74669 0.16649 0.13599 0.0
C791 C 0.69993 0.14838 0.13316 0.0
C792 C 0.67636 0.12509 0.11526 0.0
C793 C 0.69928 0.11996 0.09996 0.0
C794 C 0.74585 0.13821 0.10249 0.0
C795 C 0.76956 0.16146 0.12039 0.0
H796 H 0.68098 0.10192 0.08611 0.0
H797 H 0.90996 0.32867 0.2597 0.0
H798 H 1.04266 0.45912 0.09282 0.0
H799 H 1.06398 0.46958 0.05422 0.0
H800 H 0.14012 0.59172 0.06127 0.0
H801 H 0.1165 0.58093 0.09941 0.0
H802 H 0.09615 0.57466 0.02677 0.0
H803 H 0.19036 0.5446 0.05468 0.0
H804 H 0.20937 0.50758 0.0754 0.0
H805 H 0.12241 0.41195 0.03352 0.0
H806 H 0.1021 0.4481 0.01281 0.0
H807 H 0.1749 0.61274 0.91793 0.0
H808 H 0.18299 0.60994 0.95776 0.0
H809 H 0.07802 0.48714 0.95773 0.0
H810 H 0.07 0.49032 0.91808 0.0
H811 H 0.14814 0.51081 0.98884 0.0
H812 H 1.04197 0.54019 0.96932 0.0
H813 H 1.02292 0.57899 0.95078 0.0
H814 H 0.14282 0.68146 0.97787 0.0
H815 H 0.16202 0.6431 0.99687 0.0
C816 C 1.06405 0.48816 0.08607 0.0
C817 C 0.07764 0.51919 0.09899 0.0
C818 C 0.07666 0.49422 0.06404 0.0
C819 C 0.10433 0.53158 0.05471 0.0
C820 C 0.11868 0.56261 0.06791 0.0
C821 C 0.10519 0.55644 0.08973 0.0
C822 C 0.11593 0.53823 0.03096 0.0
C823 C 0.10856 0.5613 0.01872 0.0
C824 C 0.13174 0.52069 0.0201 0.0
C825 C 0.14443 0.499 0.03227 0.0
C826 C 0.17505 0.51559 0.04996 0.0
C827 C 0.18607 0.49476 0.06171 0.0
C828 C 0.16707 0.45742 0.05579 0.0
C829 C 0.13708 0.44088 0.03809 0.0
C830 C 0.12582 0.46153 0.02633 0.0
C831 C 0.15523 0.58512 0.92642 0.0
C832 C 0.12256 0.55164 0.91505 0.0
C833 C 0.15933 0.58351 0.94914 0.0
C834 C 0.13074 0.54833 0.96077 0.0
C835 C 0.10058 0.51454 0.94914 0.0
C836 C 0.09622 0.51626 0.92652 0.0
C837 C 0.1281 0.54694 0.98502 0.0
C838 C 0.13678 0.5247 0.99722 0.0
C839 C 0.11451 0.56588 0.99604 0.0
C840 C 0.10361 0.58894 0.98427 0.0
C841 C 1.06428 0.57102 0.97123 0.0
C842 C 1.05337 0.59289 0.96074 0.0
C843 C 0.08179 0.63268 0.96304 0.0
C844 C 0.12093 0.65066 0.97603 0.0
C845 C 0.13172 0.62887 0.98674 0.0
H846 H 0.07338 0.64956 0.95482 0.0
H847 H 0.17562 0.44133 0.06491 0.0
H848 H 0.59982 0.04027 0.41826 0.0
H849 H 0.59237 0.04474 0.37883 0.0
H850 H 0.72417 0.07231 0.36947 0.0
H851 H 0.73251 0.06931 0.40911 0.0
H852 H 0.71126 0.11165 0.34004 0.0
H853 H 0.62781 0.98098 0.36496 0.0
H854 H 0.57342 0.92455 0.38848 0.0
H855 H 0.46431 0.92511 0.36533 0.0
H856 H 0.51837 0.98213 0.34194 0.0
H857 H 0.66448 0.03423 0.23165 0.0
H858 H 0.68685 0.05384 0.26975 0.0
H859 H 0.55941 0.0336 0.28034 0.0
H860 H 0.53744 0.01411 0.24238 0.0
H861 H 0.57264 0.99311 0.30886 0.0
H862 H 0.65914 0.12288 0.28087 0.0
H863 H 0.71584 0.17737 0.25672 0.0
H864 H 0.82166 0.17618 0.28443 0.0
H865 H 0.76545 0.12114 0.30844 0.0
C866 C 0.62744 0.04774 0.40781 0.0
C867 C 0.66646 0.05393 0.41666 0.0
C868 C 0.62316 0.05028 0.38528 0.0
C869 C 0.65735 0.05816 0.37114 0.0
C870 C 0.69733 0.06612 0.38004 0.0
C871 C 0.70191 0.06412 0.40265 0.0
C872 C 0.64944 0.05474 0.34718 0.0
C873 C 0.68117 0.08567 0.33316 0.0
C874 C 0.61007 0.02088 0.33821 0.0
C875 C 0.57722 0.98604 0.35186 0.0
C876 C 0.59226 0.9692 0.36497 0.0
C877 C 0.56147 0.93709 0.37828 0.0
C878 C 0.5154 0.92125 0.37845 0.0
C879 C 0.50002 0.93743 0.36522 0.0
C880 C 0.53072 0.96965 0.35192 0.0
C881 C 0.64211 0.03516 0.24206 0.0
C882 C 0.59927 0.02257 0.2344 0.0
C883 C 0.65474 0.04626 0.26374 0.0
C884 C 0.62466 0.04502 0.27789 0.0
C885 C 0.58302 0.03462 0.26974 0.0
C886 C 0.57052 0.0236 0.24815 0.0
C887 C 0.63395 0.05023 0.30166 0.0
C888 C 0.60255 0.01933 0.31568 0.0
C889 C 0.67388 0.08388 0.31045 0.0
C890 C 0.70793 0.11758 0.29634 0.0
C891 C 0.69443 0.13402 0.28171 0.0
C892 C 0.7265 0.16504 0.26805 0.0
C893 C 0.7723 0.18016 0.269 0.0
C894 C 0.78615 0.1644 0.28369 0.0
C895 C 0.7542 0.13329 0.29734 0.0
H896 H 0.79706 0.20411 0.25839 0.0
H897 H 0.49161 0.89642 0.38879 0.0
H898 H 0.52791 0.53128 0.77099 0.0
H899 H 0.54763 0.54478 0.73216 0.0
H900 H 0.69055 0.61292 0.74863 0.0
H901 H 0.67107 0.59982 0.78751 0.0
H902 H 0.60711 0.6148 0.70597 0.0
H903 H 0.73467 0.58416 0.71285 0.0
H904 H 0.75335 0.55043 0.73746 0.0
H905 H 0.61266 0.46977 0.7564 0.0
H906 H 0.59309 0.50268 0.73168 0.0
H907 H 0.72592 0.59094 0.60922 0.0
H908 H 0.72281 0.60542 0.64713 0.0
H909 H 0.58271 0.56022 0.63745 0.0
H910 H 0.58653 0.54642 0.59948 0.0
H911 H 0.67335 0.55542 0.67756 0.0
H912 H 0.55261 0.59844 0.6742 0.0
H913 H 0.54035 0.63837 0.6516 0.0
H914 H 0.67552 0.70148 0.62538 0.0
H915 H 0.68906 0.66258 0.64815 0.0
C916 C 0.56355 0.54961 0.76632 0.0
C917 C 0.59796 0.5642 0.78218 0.0
C918 C 0.57476 0.55746 0.74417 0.0
C919 C 0.62048 0.57959 0.73756 0.0
C920 C 0.65504 0.59562 0.75343 0.0
C921 C 0.64387 0.58811 0.7756 0.0
C922 C 0.63151 0.58283 0.71412 0.0
C923 C 0.62126 0.60164 0.6996 0.0
C924 C 0.6515 0.5668 0.7061 0.0
C925 C 0.66257 0.54617 0.72062 0.0
C926 C 0.70773 0.55914 0.72222 0.0
C927 C 0.71847 0.54017 0.73618 0.0
C928 C 0.68424 0.50807 0.74855 0.0
C929 C 0.63916 0.49474 0.74688 0.0
C930 C 0.62824 0.51355 0.73291 0.0
C931 C 0.69485 0.58473 0.61527 0.0
C932 C 0.65627 0.56721 0.60182 0.0
C933 C 0.69301 0.59298 0.63682 0.0
C934 C 0.65251 0.58389 0.64523 0.0
C935 C 0.61455 0.56801 0.63134 0.0
C936 C 0.61655 0.55994 0.60974 0.0
C937 C 0.64839 0.58707 0.66897 0.0
C938 C 0.65975 0.56918 0.68369 0.0
C939 C 0.63007 0.60451 0.67712 0.0
C940 C 0.62169 0.62729 0.6628 0.0
C941 C 0.57979 0.6209 0.66366 0.0
C942 C 0.57268 0.64346 0.65088 0.0
C943 C 0.60722 0.67256 0.63716 0.0
C944 C 0.64884 0.67898 0.63606 0.0
C945 C 0.65621 0.65661 0.64888 0.0
H946 H 0.60163 0.69 0.62728 0.0
H947 H 0.69264 0.49348 0.75938 0.0
H948 H 0.56562 0.05456 0.54244 0.0
H949 H 0.57164 0.05618 0.582 0.0
H950 H 0.68417 0.05205 0.57833 0.0
H951 H 0.68195 0.05592 0.53858 0.0
H952 H 0.55756 0.01296 0.61098 0.0
H953 H 0.74898 0.08311 0.62305 0.0
H954 H 0.82276 0.13012 0.60449 0.0
H955 H 0.76987 0.1833 0.57314 0.0
H956 H 0.69601 0.1369 0.59171 0.0
H957 H 0.57348 0.00745 0.72453 0.0
H958 H 0.58168 0.99819 0.68637 0.0
H959 H 0.68364 0.12093 0.67725 0.0
H960 H 0.68009 0.1292 0.71595 0.0
H961 H 0.70383 0.09468 0.6513 0.0
H962 H 0.55797 0.06317 0.66605 0.0
H963 H 0.48307 0.02871 0.68399 0.0
H964 H 0.44319 0.92176 0.66031 0.0
H965 H 0.51811 0.95559 0.64244 0.0
C966 C 0.59202 0.05447 0.55009 0.0
C967 C 0.623 0.05462 0.53741 0.0
C968 C 0.59523 0.05505 0.5728 0.0
C969 C 0.62851 0.05438 0.5835 0.0
C970 C 0.6589 0.05365 0.57074 0.0
C971 C 0.65709 0.05504 0.54792 0.0
C972 C 0.63076 0.05435 0.60789 0.0
C973 C 0.58969 0.03108 0.61969 0.0
C974 C 0.6724 0.07795 0.6196 0.0
C975 C 0.71684 0.10624 0.60856 0.0
C976 C 0.75318 0.10491 0.61224 0.0
C977 C 0.79498 0.13143 0.60171 0.0
C978 C 0.80093 0.15958 0.58758 0.0
C979 C 0.76516 0.16139 0.58402 0.0
C980 C 0.72332 0.13498 0.59453 0.0
C981 C 0.59873 0.03218 0.7145 0.0
C982 C 0.62543 0.06919 0.72304 0.0
C983 C 0.60282 0.02703 0.69254 0.0
C984 C 0.63186 0.05896 0.67845 0.0
C985 C 0.66052 0.09565 0.68745 0.0
C986 C 0.65796 0.10054 0.70956 0.0
C987 C 0.6305 0.05498 0.65426 0.0
C988 C 0.67174 0.07682 0.64253 0.0
C989 C 0.58885 0.03224 0.64249 0.0
C990 C 0.54377 0.01182 0.65315 0.0
C991 C 0.53329 0.03227 0.66478 0.0
C992 C 0.49085 0.01287 0.67492 0.0
C993 C 0.45845 0.97306 0.67335 0.0
C994 C 0.46836 0.95258 0.66156 0.0
C995 C 0.51079 0.97185 0.65142 0.0
H996 H 0.42561 0.95808 0.68121 0.0
H997 H 0.8333 0.18004 0.57942 0.0
H998 H 0.53916 0.52731 0.90261 0.0
H999 H 0.52581 0.50126 0.94008 0.0
H1000 H 0.67111 0.56949 0.95039 0.0
H1001 H 0.68466 0.59592 0.91311 0.0
H1002 H 0.61794 0.49113 0.96718 0.0
H1003 H 0.6217 0.60321 0.96746 0.0
H1004 H 0.59519 0.63997 0.9552 0.0
H1005 H 0.45921 0.54728 0.97639 0.0
H1006 H 0.48486 0.50975 0.98851 0.0
H1007 H 0.66415 0.52794 0.07992 0.0
H1008 H 0.65643 0.52169 0.04015 0.0
H1009 H 0.51382 0.47083 0.0453 0.0
H1010 H 0.52225 0.47785 0.08501 0.0
H1011 H 0.55347 0.52952 0.01917 0.0
H1012 H 0.54756 0.42061 0.02393 0.0
H1013 H 0.56561 0.37677 0.03287 0.0
H1014 H 0.69561 0.45437 0.00125 0.0
H1015 H 0.67865 0.499 0.99232 0.0
C1016 C 0.56817 0.53652 0.91287 0.0
C1017 C 0.61294 0.56388 0.90516 0.0
C1018 C 0.56051 0.52161 0.93418 0.0
C1019 C 0.59752 0.53362 0.94793 0.0
C1020 C 0.64217 0.55985 0.93996 0.0
C1021 C 0.64985 0.5751 0.91877 0.0
C1022 C 0.59012 0.52099 0.97109 0.0
C1023 C 0.60418 0.49963 0.97869 0.0
C1024 C 0.57032 0.5308 0.98574 0.0
C1025 C 0.55507 0.55353 0.97865 0.0
C1026 C 0.58608 0.59056 0.96934 0.0
C1027 C 0.57123 0.61155 0.96245 0.0
C1028 C 0.52551 0.59593 0.96495 0.0
C1029 C 0.49459 0.55932 0.97442 0.0
C1030 C 0.50927 0.53819 0.98132 0.0
C1031 C 0.63099 0.51429 0.07247 0.0
C1032 C 0.59384 0.50357 0.08517 0.0
C1033 C 0.62644 0.5106 0.04982 0.0
C1034 C 0.5845 0.49584 0.03968 0.0
C1035 C 0.54652 0.48243 0.05271 0.0
C1036 C 0.55121 0.48634 0.0753 0.0
C1037 C 0.58226 0.50007 0.01569 0.0
C1038 C 0.56659 0.5202 0.00782 0.0
C1039 C 0.59989 0.4885 0.0008 0.0
C1040 C 0.61189 0.46329 0.00756 0.0
C1041 C 0.58032 0.42867 0.01918 0.0
C1042 C 0.59028 0.40358 0.02416 0.0
C1043 C 0.63165 0.41273 0.01755 0.0
C1044 C 0.66352 0.44729 0.00629 0.0
C1045 C 0.65373 0.47249 0.00125 0.0
H1046 H 0.63884 0.39288 0.02099 0.0
H1047 H 0.51407 0.61222 0.9596 0.0
H1048 H 0.11409 0.53233 0.22028 0.0
H1049 H 0.10826 0.53146 0.2599 0.0
H1050 H 1.02477 0.40767 0.26127 0.0
H1051 H 1.03324 0.40886 0.22165 0.0
H1052 H 1.0473 0.50709 0.28787 0.0
H1053 H 1.03906 0.37531 0.30837 0.0
H1054 H 1.06201 0.33896 0.29272 0.0
H1055 H 0.17163 0.44058 0.25823 0.0
H1056 H 0.14958 0.47755 0.27386 0.0
H1057 H 1.0428 0.49814 0.40313 0.0
H1058 H 1.01856 0.47266 0.36609 0.0
H1059 H 0.15108 0.50245 0.35485 0.0
H1060 H 0.17405 0.52616 0.39196 0.0
H1061 H 0.09086 0.4405 0.33417 0.0
H1062 H 0.12575 0.56418 0.34125 0.0
H1063 H 0.11674 0.60995 0.35644 0.0
H1064 H 0.97752 0.54074 0.33445 0.0
H1065 H 0.98556 0.49422 0.31942 0.0
C1066 C 0.09457 0.50497 0.22908 0.0
C1067 C 0.07475 0.47073 0.21806 0.0
C1068 C 0.09097 0.50442 0.25172 0.0
C1069 C 1.06667 0.46954 0.26375 0.0
C1070 C 1.04479 0.43506 0.25252 0.0
C1071 C 1.04947 0.43571 0.22989 0.0
C1072 C 1.06621 0.46992 0.28803 0.0
C1073 C 1.05642 0.49219 0.29796 0.0
C1074 C 0.07843 0.45082 0.30136 0.0
C1075 C 0.09232 0.42901 0.29207 0.0
C1076 C 0.06811 0.38987 0.29749 0.0
C1077 C 0.08095 0.36917 0.28862 0.0
C1078 C 0.11814 0.38742 0.27443 0.0
C1079 C 0.14272 0.42644 0.26916 0.0
C1080 C 0.13005 0.44727 0.278 0.0
C1081 C 1.06598 0.49811 0.39281 0.0
C1082 C 0.11036 0.51444 0.40002 0.0
C1083 C 1.05238 0.48387 0.37169 0.0
C1084 C 0.08334 0.48636 0.35749 0.0
C1085 C 0.12658 0.50025 0.3654 0.0
C1086 C 0.13987 0.51405 0.38648 0.0
C1087 C 0.07322 0.47849 0.33386 0.0
C1088 C 0.08075 0.45466 0.32408 0.0
C1089 C 1.0609 0.49752 0.32057 0.0
C1090 C 1.05606 0.52551 0.32947 0.0
C1091 C 0.09313 0.5586 0.33979 0.0
C1092 C 0.08821 0.58468 0.34836 0.0
C1093 C 1.04653 0.5782 0.34647 0.0
C1094 C 1.00974 0.54566 0.33595 0.0
C1095 C 1.01444 0.51942 0.32741 0.0
H1096 H 1.04279 0.59843 0.3531 0.0
H1097 H 0.12799 0.37134 0.26756 0.0
loop_
_geom_bond_atom_site_label_1
_geom_bond_atom_site_label_2
_geom_bond_distance
_geom_bond_site_symmetry_2
_ccdc_geom_bond_type
Ho0 C3 2.811 . S
Ho0 O20 2.322 . S
Ho0 O22 2.378 . S
Ho0 O23 2.524 . S
Ho0 O24 2.381 . S
Ho0 O25 2.669 1_455 S
Ho0 O27 2.346 1_455 S
Ho0 O31 2.305 . S
Ho1 C12 2.811 . S
Ho1 O21 2.346 1_655 S
Ho1 O25 2.305 . S
Ho1 O26 2.322 . S
Ho1 O28 2.378 . S
Ho1 O29 2.524 . S
Ho1 O30 2.381 . S
Ho1 O31 2.669 1_655 S
C2 O20 1.259 . S
C2 O21 1.268 . S
C3 Ho0 2.811 . S
C3 C4 1.488 . S
C3 O22 1.215 . S
C3 O23 1.289 . S
C4 C3 1.488 . S
C4 C5 1.348 . S
C4 C9 1.413 . S
C5 C4 1.348 . S
C5 C6 1.442 . S
C5 H32 0.930 . S
C6 C5 1.442 . S
C6 C7 1.381 . S
C6 H33 0.931 . S
C7 C6 1.381 . S
C7 C8 1.321 . S
C8 C7 1.321 . S
C8 C9 1.403 . S
C8 H34 0.934 . S
C9 C4 1.413 . S
C9 C8 1.403 . S
C9 H35 0.930 . S
C10 O24 1.271 . S
C10 O25 1.258 1_455 S
C11 O26 1.259 . S
C11 O27 1.268 . S
C12 Ho1 2.811 . S
C12 C13 1.488 . S
C12 O28 1.215 . S
C12 O29 1.289 . S
C13 C12 1.488 . S
C13 C14 1.348 . S
C13 C18 1.413 . S
C14 C13 1.348 . S
C14 C15 1.442 . S
C14 H36 0.930 . S
C15 C14 1.442 . S
C15 C16 1.381 . S
C15 H37 0.931 . S
C16 C15 1.381 . S
C16 C17 1.321 . S
C17 C16 1.321 . S
C17 C18 1.403 . S
C17 H38 0.934 . S
C18 C13 1.413 . S
C18 C17 1.403 . S
C18 H39 0.930 . S
C19 O30 1.275 1_455 S
C19 O31 1.256 . S
O20 Ho0 2.322 . S
O20 C2 1.259 . S
O21 Ho1 2.346 1_455 S
O21 C2 1.268 . S
O22 Ho0 2.378 . S
O22 C3 1.215 . S
O23 Ho0 2.524 . S
O23 C3 1.289 . S
O24 Ho0 2.381 . S
O24 C10 1.271 . S
O25 Ho0 2.669 1_655 S
O25 Ho1 2.305 . S
O25 C10 1.258 1_655 S
O26 Ho1 2.322 . S
O26 C11 1.259 . S
O27 Ho0 2.346 1_655 S
O27 C11 1.268 . S
O28 Ho1 2.378 . S
O28 C12 1.215 . S
O29 Ho1 2.524 . S
O29 C12 1.289 . S
O30 Ho1 2.381 . S
O30 C19 1.275 1_655 S
O31 Ho0 2.305 . S
O31 Ho1 2.669 1_455 S
O31 C19 1.256 . S
H32 C5 0.930 . S
H33 C6 0.931 . S
H34 C8 0.934 . S
H35 C9 0.930 . S
H36 C14 0.930 . S
H37 C15 0.931 . S
H38 C17 0.934 . S
H39 C18 0.930 . S
Ho40 C43 2.811 1_545 S
Ho40 O60 2.322 1_545 S
Ho40 O62 2.378 1_545 S
Ho40 O63 2.524 1_545 S
Ho40 O64 2.381 . S
Ho40 O65 2.669 . S
Ho40 O67 2.346 . S
Ho40 O71 2.305 . S
Ho41 C52 2.811 . S
Ho41 O61 2.346 1_545 S
Ho41 O65 2.305 . S
Ho41 O66 2.322 . S
Ho41 O68 2.378 . S
Ho41 O69 2.524 . S
Ho41 O70 2.381 . S
Ho41 O71 2.669 . S
C42 O60 1.259 . S
C42 O61 1.268 . S
C43 Ho40 2.811 1_565 S
C43 C44 1.488 . S
C43 O62 1.215 . S
C43 O63 1.289 . S
C44 C43 1.488 . S
C44 C45 1.348 . S
C44 C49 1.413 . S
C45 C44 1.348 . S
C45 C46 1.442 . S
C45 H72 0.930 . S
C46 C45 1.442 . S
C46 C47 1.381 . S
C46 H73 0.931 . S
C47 C46 1.381 . S
C47 C48 1.321 . S
C48 C47 1.321 . S
C48 C49 1.403 . S
C48 H74 0.934 . S
C49 C44 1.413 . S
C49 C48 1.403 . S
C49 H75 0.930 . S
C50 O64 1.275 . S
C50 O65 1.256 . S
C51 O66 1.259 . S
C51 O67 1.268 . S
C52 Ho41 2.811 . S
C52 C53 1.488 . S
C52 O68 1.215 . S
C52 O69 1.289 . S
C53 C52 1.488 . S
C53 C54 1.348 . S
C53 C58 1.413 . S
C54 C53 1.348 . S
C54 C55 1.442 . S
C54 H76 0.930 . S
C55 C54 1.442 . S
C55 C56 1.381 . S
C55 H77 0.931 . S
C56 C55 1.381 . S
C56 C57 1.321 . S
C57 C56 1.321 . S
C57 C58 1.403 . S
C57 H78 0.934 . S
C58 C53 1.413 . S
C58 C57 1.403 . S
C58 H79 0.930 . S
C59 O70 1.275 . S
C59 O71 1.256 . S
O60 Ho40 2.322 1_565 S
O60 C42 1.259 . S
O61 Ho41 2.346 1_565 S
O61 C42 1.268 . S
O62 Ho40 2.378 1_565 S
O62 C43 1.215 . S
O63 Ho40 2.524 1_565 S
O63 C43 1.289 . S
O64 Ho40 2.381 . S
O64 C50 1.275 . S
O65 Ho40 2.669 . S
O65 Ho41 2.305 . S
O65 C50 1.256 . S
O66 Ho41 2.322 . S
O66 C51 1.259 . S
O67 Ho40 2.346 . S
O67 C51 1.268 . S
O68 Ho41 2.378 . S
O68 C52 1.215 . S
O69 Ho41 2.524 . S
O69 C52 1.289 . S
O70 Ho41 2.381 . S
O70 C59 1.275 . S
O71 Ho40 2.305 . S
O71 Ho41 2.669 . S
O71 C59 1.256 . S
H72 C45 0.930 . S
H73 C46 0.931 . S
H74 C48 0.934 . S
H75 C49 0.930 . S
H76 C54 0.930 . S
H77 C55 0.931 . S
H78 C57 0.934 . S
H79 C58 0.930 . S
Ho80 C83 2.811 . S
Ho80 O100 2.322 . S
Ho80 O102 2.378 . S
Ho80 O103 2.524 . S
Ho80 O104 2.381 . S
Ho80 O105 2.669 . S
Ho80 O107 2.346 . S
Ho80 O111 2.305 . S
Ho81 C92 2.811 . S
Ho81 O101 2.346 . S
Ho81 O105 2.305 . S
Ho81 O106 2.322 . S
Ho81 O108 2.378 . S
Ho81 O109 2.524 . S
Ho81 O110 2.381 . S
Ho81 O111 2.669 . S
C82 O100 1.259 . S
C82 O101 1.268 . S
C83 Ho80 2.811 . S
C83 C84 1.488 . S
C83 O102 1.215 . S
C83 O103 1.289 . S
C84 C83 1.488 . S
C84 C85 1.348 . S
C84 C89 1.413 . S
C85 C84 1.348 . S
C85 C86 1.442 . S
C85 H112 0.930 . S
C86 C85 1.442 . S
C86 C87 1.381 . S
C86 H113 0.931 . S
C87 C86 1.381 . S
C87 C88 1.321 . S
C88 C87 1.321 . S
C88 C89 1.403 . S
C88 H114 0.934 . S
C89 C84 1.413 . S
C89 C88 1.403 . S
C89 H115 0.930 . S
C90 O104 1.275 . S
C90 O105 1.256 . S
C91 O106 1.259 . S
C91 O107 1.268 . S
C92 Ho81 2.811 . S
C92 C93 1.488 . S
C92 O108 1.215 . S
C92 O109 1.289 . S
C93 C92 1.488 . S
C93 C94 1.348 . S
C93 C98 1.413 . S
C94 C93 1.348 . S
C94 C95 1.442 . S
C94 H116 0.930 . S
C95 C94 1.442 . S
C95 C96 1.381 . S
C95 H117 0.931 . S
C96 C95 1.381 . S
C96 C97 1.321 . S
C97 C96 1.321 . S
C97 C98 1.403 . S
C97 H118 0.934 . S
C98 C93 1.413 . S
C98 C97 1.403 . S
C98 H119 0.930 . S
C99 O110 1.275 . S
C99 O111 1.256 . S
O100 Ho80 2.322 . S
O100 C82 1.259 . S
O101 Ho81 2.346 . S
O101 C82 1.268 . S
O102 Ho80 2.378 . S
O102 C83 1.215 . S
O103 Ho80 2.524 . S
O103 C83 1.289 . S
O104 Ho80 2.381 . S
O104 C90 1.275 . S
O105 Ho80 2.669 . S
O105 Ho81 2.305 . S
O105 C90 1.256 . S
O106 Ho81 2.322 . S
O106 C91 1.259 . S
O107 Ho80 2.346 . S
O107 C91 1.268 . S
O108 Ho81 2.378 . S
O108 C92 1.215 . S
O109 Ho81 2.524 . S
O109 C92 1.289 . S
O110 Ho81 2.381 . S
O110 C99 1.275 . S
O111 Ho80 2.305 . S
O111 Ho81 2.669 . S
O111 C99 1.256 . S
H112 C85 0.930 . S
H113 C86 0.931 . S
H114 C88 0.934 . S
H115 C89 0.930 . S
H116 C94 0.930 . S
H117 C95 0.931 . S
H118 C97 0.934 . S
H119 C98 0.930 . S
C120 N121 1.317 1_565 S
C120 N122 1.348 . S
C120 C123 1.485 1_565 S
N121 C120 1.317 1_545 S
N121 N125 1.370 . S
N122 C120 1.348 . S
N122 C124 1.346 . S
C123 C120 1.485 1_545 S
C123 H127 0.960 . S
C123 H128 0.961 1_545 S
C123 H129 0.960 . S
C124 N122 1.346 . S
C124 N125 1.307 1_565 S
C124 C126 1.486 . S
N125 N121 1.370 . S
N125 C124 1.307 1_545 S
C126 C124 1.486 . S
C126 H130 0.960 . S
C126 H131 0.960 . S
C126 H132 0.959 . S
H127 C123 0.960 . S
H128 C123 0.961 1_565 S
H129 C123 0.960 . S
H130 C126 0.960 . S
H131 C126 0.960 . S
H132 C126 0.959 . S
C133 N134 1.317 . S
C133 N135 1.348 . S
C133 C136 1.485 . S
N134 C133 1.317 . S
N134 N138 1.370 . S
N135 C133 1.348 . S
N135 C137 1.346 . S
C136 C133 1.485 . S
C136 H140 0.960 . S
C136 H141 0.961 . S
C136 H142 0.960 . S
C137 N135 1.346 . S
C137 N138 1.307 . S
C137 C139 1.486 . S
N138 N134 1.370 . S
N138 C137 1.307 . S
C139 C137 1.486 . S
C139 H143 0.960 . S
C139 H144 0.960 . S
C139 H145 0.959 . S
H140 C136 0.960 . S
H141 C136 0.961 . S
H142 C136 0.960 . S
H143 C139 0.960 . S
H144 C139 0.960 . S
H145 C139 0.959 . S
C146 N147 1.317 . S
C146 N148 1.348 . S
C146 C149 1.485 . S
N147 C146 1.317 . S
N147 N151 1.370 . S
N148 C146 1.348 . S
N148 C150 1.346 . S
C149 C146 1.485 . S
C149 H153 0.960 . S
C149 H154 0.961 . S
C149 H155 0.960 . S
C150 N148 1.346 . S
C150 N151 1.307 . S
C150 C152 1.486 1_455 S
N151 N147 1.370 . S
N151 C150 1.307 . S
C152 C150 1.486 1_655 S
C152 H156 0.960 . S
C152 H157 0.960 . S
C152 H158 0.959 1_655 S
H153 C149 0.960 . S
H154 C149 0.961 . S
H155 C149 0.960 . S
H156 C152 0.960 . S
H157 C152 0.960 . S
H158 C152 0.959 1_455 S
C159 N160 1.317 . S
C159 N161 1.348 . S
C159 C162 1.485 . S
N160 C159 1.317 . S
N160 N164 1.370 . S
N161 C159 1.348 . S
N161 C163 1.346 . S
C162 C159 1.485 . S
C162 H166 0.960 . S
C162 H167 0.961 . S
C162 H168 0.960 . S
C163 N161 1.346 . S
C163 N164 1.307 . S
C163 C165 1.486 . S
N164 N160 1.370 . S
N164 C163 1.307 . S
C165 C163 1.486 . S
C165 H169 0.960 . S
C165 H170 0.960 . S
C165 H171 0.959 . S
H166 C162 0.960 . S
H167 C162 0.961 . S
H168 C162 0.960 . S
H169 C165 0.960 . S
H170 C165 0.960 . S
H171 C165 0.959 . S
C172 N173 1.317 . S
C172 N174 1.348 . S
C172 C175 1.485 . S
N173 C172 1.317 . S
N173 N177 1.370 . S
N174 C172 1.348 . S
N174 C176 1.346 . S
C175 C172 1.485 . S
C175 H179 0.960 . S
C175 H180 0.961 . S
C175 H181 0.960 . S
C176 N174 1.346 . S
C176 N177 1.307 . S
C176 C178 1.486 . S
N177 N173 1.370 . S
N177 C176 1.307 . S
C178 C176 1.486 . S
C178 H182 0.960 . S
C178 H183 0.960 . S
C178 H184 0.959 . S
H179 C175 0.960 . S
H180 C175 0.961 . S
H181 C175 0.960 . S
H182 C178 0.960 . S
H183 C178 0.960 . S
H184 C178 0.959 . S
C185 N186 1.317 . S
C185 N187 1.348 . S
C185 C188 1.485 . S
N186 C185 1.317 . S
N186 N190 1.370 . S
N187 C185 1.348 . S
N187 C189 1.346 . S
C188 C185 1.485 . S
C188 H192 0.960 . S
C188 H193 0.961 . S
C188 H194 0.960 . S
C189 N187 1.346 . S
C189 N190 1.307 . S
C189 C191 1.486 . S
N190 N186 1.370 . S
N190 C189 1.307 . S
C191 C189 1.486 . S
C191 H195 0.960 . S
C191 H196 0.960 . S
C191 H197 0.959 . S
H192 C188 0.960 . S
H193 C188 0.961 . S
H194 C188 0.960 . S
H195 C191 0.960 . S
H196 C191 0.960 . S
H197 C191 0.959 . S
H198 C216 0.951 . S
H199 C218 0.951 . S
H200 C220 0.950 . S
H201 C221 0.950 . S
H202 C223 0.950 . S
H203 C226 0.950 . S
H204 C227 0.950 . S
H205 C229 0.950 . S
H206 C230 0.950 . S
H207 C231 0.951 . S
H208 C233 0.951 . S
H209 C235 0.950 . S
H210 C236 0.950 . S
H211 C238 0.950 . S
H212 C241 0.950 . S
H213 C242 0.950 . S
H214 C244 0.950 . S
H215 C245 0.950 . S
C216 H198 0.951 . S
C216 C217 1.366 . S
C216 C218 1.388 . S
C217 C216 1.366 . S
C217 C221 1.385 . S
C218 H199 0.951 . S
C218 C216 1.388 . S
C218 C219 1.366 . S
C219 C218 1.366 . S
C219 C220 1.414 . S
C219 C222 1.499 . S
C220 H200 0.950 . S
C220 C219 1.414 . S
C220 C221 1.374 . S
C221 H201 0.950 . S
C221 C217 1.385 . S
C221 C220 1.374 . S
C222 C219 1.499 . S
C222 C223 1.373 . S
C222 C224 1.389 . S
C223 H202 0.950 . S
C223 C222 1.373 . S
C223 C239 1.377 . S
C224 C222 1.389 . S
C224 C225 1.524 . S
C224 C238 1.377 . S
C225 C224 1.524 . S
C225 C226 1.397 . S
C225 C230 1.363 . S
C226 H203 0.950 . S
C226 C225 1.397 . S
C226 C227 1.334 . S
C227 H204 0.950 . S
C227 C226 1.334 . S
C227 C228 1.287 . S
C228 C227 1.287 . S
C228 C229 1.524 . S
C228 H247 0.913 . S
C229 H205 0.950 . S
C229 C228 1.524 . S
C229 C230 1.415 . S
C230 H206 0.950 . S
C230 C225 1.363 . S
C230 C229 1.415 . S
C231 H207 0.951 . S
C231 C232 1.366 . S
C231 C233 1.388 . S
C232 C231 1.366 . S
C232 C236 1.385 . S
C233 H208 0.951 . S
C233 C231 1.388 . S
C233 C234 1.366 . S
C234 C233 1.366 . S
C234 C235 1.414 . S
C234 C237 1.499 . S
C235 H209 0.950 . S
C235 C234 1.414 . S
C235 C236 1.374 . S
C236 H210 0.950 . S
C236 C232 1.385 . S
C236 C235 1.374 . S
C237 C234 1.499 . S
C237 C238 1.373 . S
C237 C239 1.389 . S
C238 H211 0.950 . S
C238 C224 1.377 . S
C238 C237 1.373 . S
C239 C223 1.377 . S
C239 C237 1.389 . S
C239 C240 1.524 . S
C240 C239 1.524 . S
C240 C241 1.397 . S
C240 C245 1.363 . S
C241 H212 0.950 . S
C241 C240 1.397 . S
C241 C242 1.334 . S
C242 H213 0.950 . S
C242 C241 1.334 . S
C242 C243 1.287 . S
C243 C242 1.287 . S
C243 C244 1.524 . S
C243 H246 0.999 . S
C244 H214 0.950 . S
C244 C243 1.524 . S
C244 C245 1.415 . S
C245 H215 0.950 . S
C245 C240 1.363 . S
C245 C244 1.415 . S
H246 C243 0.999 . S
H247 C228 0.913 . S
H248 C266 0.951 . S
H249 C268 0.951 . S
H250 C270 0.950 . S
H251 C271 0.950 . S
H252 C273 0.950 . S
H253 C276 0.950 . S
H254 C277 0.950 . S
H255 C279 0.950 . S
H256 C280 0.950 . S
H257 C281 0.951 . S
H258 C283 0.951 . S
H259 C285 0.950 . S
H260 C286 0.950 . S
H261 C288 0.950 . S
H262 C291 0.950 . S
H263 C292 0.950 . S
H264 C294 0.950 . S
H265 C295 0.950 . S
C266 H248 0.951 . S
C266 C267 1.366 . S
C266 C268 1.388 . S
C267 C266 1.366 . S
C267 C271 1.385 . S
C268 H249 0.951 . S
C268 C266 1.388 . S
C268 C269 1.366 . S
C269 C268 1.366 . S
C269 C270 1.414 . S
C269 C272 1.499 . S
C270 H250 0.950 . S
C270 C269 1.414 . S
C270 C271 1.374 . S
C271 H251 0.950 . S
C271 C267 1.385 . S
C271 C270 1.374 . S
C272 C269 1.499 . S
C272 C273 1.373 . S
C272 C274 1.389 . S
C273 H252 0.950 . S
C273 C272 1.373 . S
C273 C289 1.377 . S
C274 C272 1.389 . S
C274 C275 1.524 . S
C274 C288 1.377 . S
C275 C274 1.524 . S
C275 C276 1.397 . S
C275 C280 1.363 . S
C276 H253 0.950 . S
C276 C275 1.397 . S
C276 C277 1.334 . S
C277 H254 0.950 . S
C277 C276 1.334 . S
C277 C278 1.287 . S
C278 C277 1.287 . S
C278 C279 1.524 . S
C278 H297 0.913 . S
C279 H255 0.950 . S
C279 C278 1.524 . S
C279 C280 1.415 . S
C280 H256 0.950 . S
C280 C275 1.363 . S
C280 C279 1.415 . S
C281 H257 0.951 . S
C281 C282 1.366 . S
C281 C283 1.388 . S
C282 C281 1.366 . S
C282 C286 1.385 . S
C283 H258 0.951 . S
C283 C281 1.388 . S
C283 C284 1.366 . S
C284 C283 1.366 . S
C284 C285 1.414 . S
C284 C287 1.499 . S
C285 H259 0.950 . S
C285 C284 1.414 . S
C285 C286 1.374 . S
C286 H260 0.950 . S
C286 C282 1.385 . S
C286 C285 1.374 . S
C287 C284 1.499 . S
C287 C288 1.373 . S
C287 C289 1.389 . S
C288 H261 0.950 . S
C288 C274 1.377 . S
C288 C287 1.373 . S
C289 C273 1.377 . S
C289 C287 1.389 . S
C289 C290 1.524 . S
C290 C289 1.524 . S
C290 C291 1.397 . S
C290 C295 1.363 . S
C291 H262 0.950 . S
C291 C290 1.397 . S
C291 C292 1.334 . S
C292 H263 0.950 . S
C292 C291 1.334 . S
C292 C293 1.287 . S
C293 C292 1.287 . S
C293 C294 1.524 . S
C293 H296 0.999 . S
C294 H264 0.950 . S
C294 C293 1.524 . S
C294 C295 1.415 . S
C295 H265 0.950 . S
C295 C290 1.363 . S
C295 C294 1.415 . S
H296 C293 0.999 . S
H297 C278 0.913 . S
H298 C316 0.951 . S
H299 C318 0.951 . S
H300 C320 0.950 . S
H301 C321 0.950 . S
H302 C323 0.950 . S
H303 C326 0.950 . S
H304 C327 0.950 . S
H305 C329 0.950 . S
H306 C330 0.950 . S
H307 C331 0.951 . S
H308 C333 0.951 . S
H309 C335 0.950 . S
H310 C336 0.950 . S
H311 C338 0.950 . S
H312 C341 0.950 1_565 S
H313 C342 0.950 . S
H314 C344 0.950 . S
H315 C345 0.950 . S
C316 H298 0.951 . S
C316 C317 1.366 . S
C316 C318 1.388 . S
C317 C316 1.366 . S
C317 C321 1.385 . S
C318 H299 0.951 . S
C318 C316 1.388 . S
C318 C319 1.366 . S
C319 C318 1.366 . S
C319 C320 1.414 . S
C319 C322 1.499 . S
C320 H300 0.950 . S
C320 C319 1.414 . S
C320 C321 1.374 . S
C321 H301 0.950 . S
C321 C317 1.385 . S
C321 C320 1.374 . S
C322 C319 1.499 . S
C322 C323 1.373 . S
C322 C324 1.389 . S
C323 H302 0.950 . S
C323 C322 1.373 . S
C323 C339 1.377 . S
C324 C322 1.389 . S
C324 C325 1.524 . S
C324 C338 1.377 . S
C325 C324 1.524 . S
C325 C326 1.397 . S
C325 C330 1.363 . S
C326 H303 0.950 . S
C326 C325 1.397 . S
C326 C327 1.334 . S
C327 H304 0.950 . S
C327 C326 1.334 . S
C327 C328 1.287 . S
C328 C327 1.287 . S
C328 C329 1.524 . S
C328 H347 0.913 . S
C329 H305 0.950 . S
C329 C328 1.524 . S
C329 C330 1.415 . S
C330 H306 0.950 . S
C330 C325 1.363 . S
C330 C329 1.415 . S
C331 H307 0.951 . S
C331 C332 1.366 . S
C331 C333 1.388 1_545 S
C332 C331 1.366 . S
C332 C336 1.385 1_545 S
C333 H308 0.951 . S
C333 C331 1.388 1_565 S
C333 C334 1.366 . S
C334 C333 1.366 . S
C334 C335 1.414 . S
C334 C337 1.499 . S
C335 H309 0.950 . S
C335 C334 1.414 . S
C335 C336 1.374 . S
C336 H310 0.950 . S
C336 C332 1.385 1_565 S
C336 C335 1.374 . S
C337 C334 1.499 . S
C337 C338 1.373 . S
C337 C339 1.389 . S
C338 H311 0.950 . S
C338 C324 1.377 . S
C338 C337 1.373 . S
C339 C323 1.377 . S
C339 C337 1.389 . S
C339 C340 1.524 . S
C340 C339 1.524 . S
C340 C341 1.397 1_565 S
C340 C345 1.363 . S
C341 H312 0.950 1_545 S
C341 C340 1.397 1_545 S
C341 C342 1.334 . S
C342 H313 0.950 . S
C342 C341 1.334 . S
C342 C343 1.287 . S
C343 C342 1.287 . S
C343 C344 1.524 . S
C343 H346 0.999 . S
C344 H314 0.950 . S
C344 C343 1.524 . S
C344 C345 1.415 1_545 S
C345 H315 0.950 . S
C345 C340 1.363 . S
C345 C344 1.415 1_565 S
H346 C343 0.999 . S
H347 C328 0.913 . S
H348 C366 0.951 . S
H349 C368 0.951 . S
H350 C370 0.950 . S
H351 C371 0.950 . S
H352 C373 0.950 . S
H353 C376 0.950 . S
H354 C377 0.950 . S
H355 C379 0.950 . S
H356 C380 0.950 . S
H357 C381 0.951 . S
H358 C383 0.951 . S
H359 C385 0.950 . S
H360 C386 0.950 . S
H361 C388 0.950 . S
H362 C391 0.950 . S
H363 C392 0.950 . S
H364 C394 0.950 . S
H365 C395 0.950 . S
C366 H348 0.951 . S
C366 C367 1.366 . S
C366 C368 1.388 . S
C367 C366 1.366 . S
C367 C371 1.385 . S
C368 H349 0.951 . S
C368 C366 1.388 . S
C368 C369 1.366 . S
C369 C368 1.366 . S
C369 C370 1.414 . S
C369 C372 1.499 . S
C370 H350 0.950 . S
C370 C369 1.414 . S
C370 C371 1.374 . S
C371 H351 0.950 . S
C371 C367 1.385 . S
C371 C370 1.374 . S
C372 C369 1.499 . S
C372 C373 1.373 . S
C372 C374 1.389 . S
C373 H352 0.950 . S
C373 C372 1.373 . S
C373 C389 1.377 . S
C374 C372 1.389 . S
C374 C375 1.524 . S
C374 C388 1.377 . S
C375 C374 1.524 . S
C375 C376 1.397 . S
C375 C380 1.363 . S
C376 H353 0.950 . S
C376 C375 1.397 . S
C376 C377 1.334 . S
C377 H354 0.950 . S
C377 C376 1.334 . S
C377 C378 1.287 . S
C378 C377 1.287 . S
C378 C379 1.524 . S
C378 H397 0.913 . S
C379 H355 0.950 . S
C379 C378 1.524 . S
C379 C380 1.415 . S
C380 H356 0.950 . S
C380 C375 1.363 . S
C380 C379 1.415 . S
C381 H357 0.951 . S
C381 C382 1.366 . S
C381 C383 1.388 . S
C382 C381 1.366 . S
C382 C386 1.385 . S
C383 H358 0.951 . S
C383 C381 1.388 . S
C383 C384 1.366 . S
C384 C383 1.366 . S
C384 C385 1.414 . S
C384 C387 1.499 . S
C385 H359 0.950 . S
C385 C384 1.414 . S
C385 C386 1.374 . S
C386 H360 0.950 . S
C386 C382 1.385 . S
C386 C385 1.374 . S
C387 C384 1.499 . S
C387 C388 1.373 . S
C387 C389 1.389 . S
C388 H361 0.950 . S
C388 C374 1.377 . S
C388 C387 1.373 . S
C389 C373 1.377 . S
C389 C387 1.389 . S
C389 C390 1.524 . S
C390 C389 1.524 . S
C390 C391 1.397 . S
C390 C395 1.363 . S
C391 H362 0.950 . S
C391 C390 1.397 . S
C391 C392 1.334 . S
C392 H363 0.950 . S
C392 C391 1.334 . S
C392 C393 1.287 . S
C393 C392 1.287 . S
C393 C394 1.524 . S
C393 H396 0.999 . S
C394 H364 0.950 . S
C394 C393 1.524 . S
C394 C395 1.415 . S
C395 H365 0.950 . S
C395 C390 1.363 . S
C395 C394 1.415 . S
H396 C393 0.999 . S
H397 C378 0.913 . S
H398 C416 0.951 . S
H399 C418 0.951 . S
H400 C420 0.950 . S
H401 C421 0.950 . S
H402 C423 0.950 . S
H403 C426 0.950 . S
H404 C427 0.950 . S
H405 C429 0.950 . S
H406 C430 0.950 . S
H407 C431 0.951 . S
H408 C433 0.951 . S
H409 C435 0.950 . S
H410 C436 0.950 . S
H411 C438 0.950 . S
H412 C441 0.950 . S
H413 C442 0.950 . S
H414 C444 0.950 . S
H415 C445 0.950 . S
C416 H398 0.951 . S
C416 C417 1.366 . S
C416 C418 1.388 . S
C417 C416 1.366 . S
C417 C421 1.385 . S
C418 H399 0.951 . S
C418 C416 1.388 . S
C418 C419 1.366 . S
C419 C418 1.366 . S
C419 C420 1.414 . S
C419 C422 1.499 . S
C420 H400 0.950 . S
C420 C419 1.414 . S
C420 C421 1.374 . S
C421 H401 0.950 . S
C421 C417 1.385 . S
C421 C420 1.374 . S
C422 C419 1.499 . S
C422 C423 1.373 . S
C422 C424 1.389 . S
C423 H402 0.950 . S
C423 C422 1.373 . S
C423 C439 1.377 . S
C424 C422 1.389 . S
C424 C425 1.524 . S
C424 C438 1.377 . S
C425 C424 1.524 . S
C425 C426 1.397 . S
C425 C430 1.363 . S
C426 H403 0.950 . S
C426 C425 1.397 . S
C426 C427 1.334 . S
C427 H404 0.950 . S
C427 C426 1.334 . S
C427 C428 1.287 . S
C428 C427 1.287 . S
C428 C429 1.524 . S
C428 H447 0.913 . S
C429 H405 0.950 . S
C429 C428 1.524 . S
C429 C430 1.415 . S
C430 H406 0.950 . S
C430 C425 1.363 . S
C430 C429 1.415 . S
C431 H407 0.951 . S
C431 C432 1.366 . S
C431 C433 1.388 . S
C432 C431 1.366 . S
C432 C436 1.385 . S
C433 H408 0.951 . S
C433 C431 1.388 . S
C433 C434 1.366 . S
C434 C433 1.366 . S
C434 C435 1.414 . S
C434 C437 1.499 . S
C435 H409 0.950 . S
C435 C434 1.414 . S
C435 C436 1.374 . S
C436 H410 0.950 . S
C436 C432 1.385 . S
C436 C435 1.374 . S
C437 C434 1.499 . S
C437 C438 1.373 . S
C437 C439 1.389 . S
C438 H411 0.950 . S
C438 C424 1.377 . S
C438 C437 1.373 . S
C439 C423 1.377 . S
C439 C437 1.389 . S
C439 C440 1.524 . S
C440 C439 1.524 . S
C440 C441 1.397 . S
C440 C445 1.363 . S
C441 H412 0.950 . S
C441 C440 1.397 . S
C441 C442 1.334 . S
C442 H413 0.950 . S
C442 C441 1.334 . S
C442 C443 1.287 . S
C443 C442 1.287 . S
C443 C444 1.524 . S
C443 H446 0.999 . S
C444 H414 0.950 . S
C444 C443 1.524 . S
C444 C445 1.415 . S
C445 H415 0.950 . S
C445 C440 1.363 . S
C445 C444 1.415 . S
H446 C443 0.999 . S
H447 C428 0.913 . S
H448 C466 0.951 . S
H449 C468 0.951 . S
H450 C470 0.950 . S
H451 C471 0.950 . S
H452 C473 0.950 . S
H453 C476 0.950 . S
H454 C477 0.950 . S
H455 C479 0.950 . S
H456 C480 0.950 . S
H457 C481 0.951 . S
H458 C483 0.951 . S
H459 C485 0.950 . S
H460 C486 0.950 . S
H461 C488 0.950 . S
H462 C491 0.950 . S
H463 C492 0.950 . S
H464 C494 0.950 . S
H465 C495 0.950 . S
C466 H448 0.951 . S
C466 C467 1.366 . S
C466 C468 1.388 . S
C467 C466 1.366 . S
C467 C471 1.385 . S
C468 H449 0.951 . S
C468 C466 1.388 . S
C468 C469 1.366 . S
C469 C468 1.366 . S
C469 C470 1.414 . S
C469 C472 1.499 . S
C470 H450 0.950 . S
C470 C469 1.414 . S
C470 C471 1.374 . S
C471 H451 0.950 . S
C471 C467 1.385 . S
C471 C470 1.374 . S
C472 C469 1.499 . S
C472 C473 1.373 . S
C472 C474 1.389 . S
C473 H452 0.950 . S
C473 C472 1.373 . S
C473 C489 1.377 . S
C474 C472 1.389 . S
C474 C475 1.524 . S
C474 C488 1.377 . S
C475 C474 1.524 . S
C475 C476 1.397 . S
C475 C480 1.363 . S
C476 H453 0.950 . S
C476 C475 1.397 . S
C476 C477 1.334 . S
C477 H454 0.950 . S
C477 C476 1.334 . S
C477 C478 1.287 . S
C478 C477 1.287 . S
C478 C479 1.524 . S
C478 H497 0.913 . S
C479 H455 0.950 . S
C479 C478 1.524 . S
C479 C480 1.415 . S
C480 H456 0.950 . S
C480 C475 1.363 . S
C480 C479 1.415 . S
C481 H457 0.951 . S
C481 C482 1.366 . S
C481 C483 1.388 . S
C482 C481 1.366 . S
C482 C486 1.385 . S
C483 H458 0.951 . S
C483 C481 1.388 . S
C483 C484 1.366 . S
C484 C483 1.366 . S
C484 C485 1.414 . S
C484 C487 1.499 . S
C485 H459 0.950 . S
C485 C484 1.414 . S
C485 C486 1.374 . S
C486 H460 0.950 . S
C486 C482 1.385 . S
C486 C485 1.374 . S
C487 C484 1.499 . S
C487 C488 1.373 . S
C487 C489 1.389 . S
C488 H461 0.950 . S
C488 C474 1.377 . S
C488 C487 1.373 . S
C489 C473 1.377 . S
C489 C487 1.389 . S
C489 C490 1.524 . S
C490 C489 1.524 . S
C490 C491 1.397 . S
C490 C495 1.363 . S
C491 H462 0.950 . S
C491 C490 1.397 . S
C491 C492 1.334 . S
C492 H463 0.950 . S
C492 C491 1.334 . S
C492 C493 1.287 . S
C493 C492 1.287 . S
C493 C494 1.524 . S
C493 H496 0.999 . S
C494 H464 0.950 . S
C494 C493 1.524 . S
C494 C495 1.415 . S
C495 H465 0.950 . S
C495 C490 1.363 . S
C495 C494 1.415 . S
H496 C493 0.999 . S
H497 C478 0.913 . S
H498 C516 0.951 . S
H499 C518 0.951 . S
H500 C520 0.950 . S
H501 C521 0.950 . S
H502 C523 0.950 . S
H503 C526 0.950 . S
H504 C527 0.950 . S
H505 C529 0.950 . S
H506 C530 0.950 . S
H507 C531 0.951 . S
H508 C533 0.951 . S
H509 C535 0.950 . S
H510 C536 0.950 . S
H511 C538 0.950 . S
H512 C541 0.950 . S
H513 C542 0.950 . S
H514 C544 0.950 . S
H515 C545 0.950 . S
C516 H498 0.951 . S
C516 C517 1.366 . S
C516 C518 1.388 . S
C517 C516 1.366 . S
C517 C521 1.385 . S
C518 H499 0.951 . S
C518 C516 1.388 . S
C518 C519 1.366 . S
C519 C518 1.366 . S
C519 C520 1.414 . S
C519 C522 1.499 . S
C520 H500 0.950 . S
C520 C519 1.414 . S
C520 C521 1.374 . S
C521 H501 0.950 . S
C521 C517 1.385 . S
C521 C520 1.374 . S
C522 C519 1.499 . S
C522 C523 1.373 . S
C522 C524 1.389 . S
C523 H502 0.950 . S
C523 C522 1.373 . S
C523 C539 1.377 . S
C524 C522 1.389 . S
C524 C525 1.524 . S
C524 C538 1.377 . S
C525 C524 1.524 . S
C525 C526 1.397 . S
C525 C530 1.363 . S
C526 H503 0.950 . S
C526 C525 1.397 . S
C526 C527 1.334 . S
C527 H504 0.950 . S
C527 C526 1.334 . S
C527 C528 1.287 . S
C528 C527 1.287 . S
C528 C529 1.524 . S
C528 H547 0.913 . S
C529 H505 0.950 . S
C529 C528 1.524 . S
C529 C530 1.415 . S
C530 H506 0.950 . S
C530 C525 1.363 . S
C530 C529 1.415 . S
C531 H507 0.951 . S
C531 C532 1.366 . S
C531 C533 1.388 . S
C532 C531 1.366 . S
C532 C536 1.385 . S
C533 H508 0.951 . S
C533 C531 1.388 . S
C533 C534 1.366 . S
C534 C533 1.366 . S
C534 C535 1.414 . S
C534 C537 1.499 . S
C535 H509 0.950 . S
C535 C534 1.414 . S
C535 C536 1.374 . S
C536 H510 0.950 . S
C536 C532 1.385 . S
C536 C535 1.374 . S
C537 C534 1.499 . S
C537 C538 1.373 . S
C537 C539 1.389 . S
C538 H511 0.950 . S
C538 C524 1.377 . S
C538 C537 1.373 . S
C539 C523 1.377 . S
C539 C537 1.389 . S
C539 C540 1.524 . S
C540 C539 1.524 . S
C540 C541 1.397 . S
C540 C545 1.363 . S
C541 H512 0.950 . S
C541 C540 1.397 . S
C541 C542 1.334 . S
C542 H513 0.950 . S
C542 C541 1.334 . S
C542 C543 1.287 . S
C543 C542 1.287 . S
C543 C544 1.524 . S
C543 H546 0.999 . S
C544 H514 0.950 . S
C544 C543 1.524 . S
C544 C545 1.415 . S
C545 H515 0.950 . S
C545 C540 1.363 . S
C545 C544 1.415 . S
H546 C543 0.999 . S
H547 C528 0.913 . S
H548 C566 0.951 . S
H549 C568 0.951 . S
H550 C570 0.950 . S
H551 C571 0.950 . S
H552 C573 0.950 . S
H553 C576 0.950 . S
H554 C577 0.950 . S
H555 C579 0.950 . S
H556 C580 0.950 . S
H557 C581 0.951 1_455 S
H558 C583 0.951 . S
H559 C585 0.950 . S
H560 C586 0.950 . S
H561 C588 0.950 . S
H562 C591 0.950 . S
H563 C592 0.950 . S
H564 C594 0.950 . S
H565 C595 0.950 . S
C566 H548 0.951 . S
C566 C567 1.366 . S
C566 C568 1.388 . S
C567 C566 1.366 . S
C567 C571 1.385 . S
C568 H549 0.951 . S
C568 C566 1.388 . S
C568 C569 1.366 . S
C569 C568 1.366 . S
C569 C570 1.414 . S
C569 C572 1.499 . S
C570 H550 0.950 . S
C570 C569 1.414 . S
C570 C571 1.374 . S
C571 H551 0.950 . S
C571 C567 1.385 . S
C571 C570 1.374 . S
C572 C569 1.499 . S
C572 C573 1.373 . S
C572 C574 1.389 . S
C573 H552 0.950 . S
C573 C572 1.373 . S
C573 C589 1.377 . S
C574 C572 1.389 . S
C574 C575 1.524 . S
C574 C588 1.377 . S
C575 C574 1.524 . S
C575 C576 1.397 . S
C575 C580 1.363 . S
C576 H553 0.950 . S
C576 C575 1.397 . S
C576 C577 1.334 . S
C577 H554 0.950 . S
C577 C576 1.334 . S
C577 C578 1.287 . S
C578 C577 1.287 . S
C578 C579 1.524 . S
C578 H597 0.913 . S
C579 H555 0.950 . S
C579 C578 1.524 . S
C579 C580 1.415 . S
C580 H556 0.950 . S
C580 C575 1.363 . S
C580 C579 1.415 . S
C581 H557 0.951 1_655 S
C581 C582 1.366 . S
C581 C583 1.388 . S
C582 C581 1.366 . S
C582 C586 1.385 . S
C583 H558 0.951 . S
C583 C581 1.388 . S
C583 C584 1.366 . S
C584 C583 1.366 . S
C584 C585 1.414 . S
C584 C587 1.499 . S
C585 H559 0.950 . S
C585 C584 1.414 . S
C585 C586 1.374 . S
C586 H560 0.950 . S
C586 C582 1.385 . S
C586 C585 1.374 . S
C587 C584 1.499 . S
C587 C588 1.373 . S
C587 C589 1.389 . S
C588 H561 0.950 . S
C588 C574 1.377 . S
C588 C587 1.373 . S
C589 C573 1.377 . S
C589 C587 1.389 . S
C589 C590 1.524 . S
C590 C589 1.524 . S
C590 C591 1.397 . S
C590 C595 1.363 . S
C591 H562 0.950 . S
C591 C590 1.397 . S
C591 C592 1.334 . S
C592 H563 0.950 . S
C592 C591 1.334 . S
C592 C593 1.287 . S
C593 C592 1.287 . S
C593 C594 1.524 . S
C593 H596 0.999 . S
C594 H564 0.950 . S
C594 C593 1.524 . S
C594 C595 1.415 . S
C595 H565 0.950 . S
C595 C590 1.363 . S
C595 C594 1.415 . S
H596 C593 0.999 . S
H597 C578 0.913 . S
H598 C616 0.951 . S
H599 C618 0.951 . S
H600 C620 0.950 . S
H601 C621 0.950 . S
H602 C623 0.950 . S
H603 C626 0.950 . S
H604 C627 0.950 . S
H605 C629 0.950 . S
H606 C630 0.950 . S
H607 C631 0.951 . S
H608 C633 0.951 . S
H609 C635 0.950 . S
H610 C636 0.950 . S
H611 C638 0.950 . S
H612 C641 0.950 . S
H613 C642 0.950 . S
H614 C644 0.950 . S
H615 C645 0.950 . S
C616 H598 0.951 . S
C616 C617 1.366 . S
C616 C618 1.388 . S
C617 C616 1.366 . S
C617 C621 1.385 . S
C618 H599 0.951 . S
C618 C616 1.388 . S
C618 C619 1.366 . S
C619 C618 1.366 . S
C619 C620 1.414 . S
C619 C622 1.499 . S
C620 H600 0.950 . S
C620 C619 1.414 . S
C620 C621 1.374 . S
C621 H601 0.950 . S
C621 C617 1.385 . S
C621 C620 1.374 . S
C622 C619 1.499 . S
C622 C623 1.373 . S
C622 C624 1.389 . S
C623 H602 0.950 . S
C623 C622 1.373 . S
C623 C639 1.377 . S
C624 C622 1.389 . S
C624 C625 1.524 . S
C624 C638 1.377 . S
C625 C624 1.524 . S
C625 C626 1.397 . S
C625 C630 1.363 . S
C626 H603 0.950 . S
C626 C625 1.397 . S
C626 C627 1.334 . S
C627 H604 0.950 . S
C627 C626 1.334 . S
C627 C628 1.287 . S
C628 C627 1.287 . S
C628 C629 1.524 . S
C628 H647 0.913 . S
C629 H605 0.950 . S
C629 C628 1.524 . S
C629 C630 1.415 . S
C630 H606 0.950 . S
C630 C625 1.363 . S
C630 C629 1.415 . S
C631 H607 0.951 . S
C631 C632 1.366 . S
C631 C633 1.388 . S
C632 C631 1.366 . S
C632 C636 1.385 . S
C633 H608 0.951 . S
C633 C631 1.388 . S
C633 C634 1.366 . S
C634 C633 1.366 . S
C634 C635 1.414 . S
C634 C637 1.499 . S
C635 H609 0.950 . S
C635 C634 1.414 . S
C635 C636 1.374 . S
C636 H610 0.950 . S
C636 C632 1.385 . S
C636 C635 1.374 . S
C637 C634 1.499 . S
C637 C638 1.373 . S
C637 C639 1.389 . S
C638 H611 0.950 . S
C638 C624 1.377 . S
C638 C637 1.373 . S
C639 C623 1.377 . S
C639 C637 1.389 . S
C639 C640 1.524 . S
C640 C639 1.524 . S
C640 C641 1.397 . S
C640 C645 1.363 . S
C641 H612 0.950 . S
C641 C640 1.397 . S
C641 C642 1.334 . S
C642 H613 0.950 . S
C642 C641 1.334 . S
C642 C643 1.287 . S
C643 C642 1.287 . S
C643 C644 1.524 . S
C643 H646 0.999 . S
C644 H614 0.950 . S
C644 C643 1.524 . S
C644 C645 1.415 . S
C645 H615 0.950 . S
C645 C640 1.363 . S
C645 C644 1.415 . S
H646 C643 0.999 . S
H647 C628 0.913 . S
H648 C666 0.951 . S
H649 C668 0.951 . S
H650 C670 0.950 . S
H651 C671 0.950 . S
H652 C673 0.950 . S
H653 C676 0.950 . S
H654 C677 0.950 . S
H655 C679 0.950 . S
H656 C680 0.950 . S
H657 C681 0.951 . S
H658 C683 0.951 . S
H659 C685 0.950 . S
H660 C686 0.950 . S
H661 C688 0.950 . S
H662 C691 0.950 . S
H663 C692 0.950 . S
H664 C694 0.950 . S
H665 C695 0.950 . S
C666 H648 0.951 . S
C666 C667 1.366 . S
C666 C668 1.388 . S
C667 C666 1.366 . S
C667 C671 1.385 . S
C668 H649 0.951 . S
C668 C666 1.388 . S
C668 C669 1.366 . S
C669 C668 1.366 . S
C669 C670 1.414 . S
C669 C672 1.499 . S
C670 H650 0.950 . S
C670 C669 1.414 . S
C670 C671 1.374 . S
C671 H651 0.950 . S
C671 C667 1.385 . S
C671 C670 1.374 . S
C672 C669 1.499 . S
C672 C673 1.373 . S
C672 C674 1.389 . S
C673 H652 0.950 . S
C673 C672 1.373 . S
C673 C689 1.377 . S
C674 C672 1.389 . S
C674 C675 1.524 . S
C674 C688 1.377 . S
C675 C674 1.524 . S
C675 C676 1.397 . S
C675 C680 1.363 . S
C676 H653 0.950 . S
C676 C675 1.397 . S
C676 C677 1.334 . S
C677 H654 0.950 . S
C677 C676 1.334 . S
C677 C678 1.287 . S
C678 C677 1.287 . S
C678 C679 1.524 . S
C678 H697 0.913 . S
C679 H655 0.950 . S
C679 C678 1.524 . S
C679 C680 1.415 . S
C680 H656 0.950 . S
C680 C675 1.363 . S
C680 C679 1.415 . S
C681 H657 0.951 . S
C681 C682 1.366 . S
C681 C683 1.388 . S
C682 C681 1.366 . S
C682 C686 1.385 . S
C683 H658 0.951 . S
C683 C681 1.388 . S
C683 C684 1.366 . S
C684 C683 1.366 . S
C684 C685 1.414 . S
C684 C687 1.499 . S
C685 H659 0.950 . S
C685 C684 1.414 . S
C685 C686 1.374 . S
C686 H660 0.950 . S
C686 C682 1.385 . S
C686 C685 1.374 . S
C687 C684 1.499 . S
C687 C688 1.373 . S
C687 C689 1.389 . S
C688 H661 0.950 . S
C688 C674 1.377 . S
C688 C687 1.373 . S
C689 C673 1.377 . S
C689 C687 1.389 . S
C689 C690 1.524 . S
C690 C689 1.524 . S
C690 C691 1.397 . S
C690 C695 1.363 . S
C691 H662 0.950 . S
C691 C690 1.397 . S
C691 C692 1.334 . S
C692 H663 0.950 . S
C692 C691 1.334 . S
C692 C693 1.287 . S
C693 C692 1.287 . S
C693 C694 1.524 . S
C693 H696 0.999 . S
C694 H664 0.950 . S
C694 C693 1.524 . S
C694 C695 1.415 . S
C695 H665 0.950 . S
C695 C690 1.363 . S
C695 C694 1.415 . S
H696 C693 0.999 . S
H697 C678 0.913 . S
H698 C716 0.951 . S
H699 C718 0.951 . S
H700 C720 0.950 . S
H701 C721 0.950 . S
H702 C723 0.950 . S
H703 C726 0.950 . S
H704 C727 0.950 . S
H705 C729 0.950 . S
H706 C730 0.950 . S
H707 C731 0.951 . S
H708 C733 0.951 . S
H709 C735 0.950 . S
H710 C736 0.950 . S
H711 C738 0.950 . S
H712 C741 0.950 . S
H713 C742 0.950 . S
H714 C744 0.950 . S
H715 C745 0.950 . S
C716 H698 0.951 . S
C716 C717 1.366 . S
C716 C718 1.388 . S
C717 C716 1.366 . S
C717 C721 1.385 . S
C718 H699 0.951 . S
C718 C716 1.388 . S
C718 C719 1.366 . S
C719 C718 1.366 . S
C719 C720 1.414 . S
C719 C722 1.499 . S
C720 H700 0.950 . S
C720 C719 1.414 . S
C720 C721 1.374 . S
C721 H701 0.950 . S
C721 C717 1.385 . S
C721 C720 1.374 . S
C722 C719 1.499 . S
C722 C723 1.373 . S
C722 C724 1.389 . S
C723 H702 0.950 . S
C723 C722 1.373 . S
C723 C739 1.377 . S
C724 C722 1.389 . S
C724 C725 1.524 . S
C724 C738 1.377 . S
C725 C724 1.524 . S
C725 C726 1.397 . S
C725 C730 1.363 . S
C726 H703 0.950 . S
C726 C725 1.397 . S
C726 C727 1.334 . S
C727 H704 0.950 . S
C727 C726 1.334 . S
C727 C728 1.287 . S
C728 C727 1.287 . S
C728 C729 1.524 . S
C728 H747 0.913 . S
C729 H705 0.950 . S
C729 C728 1.524 . S
C729 C730 1.415 . S
C730 H706 0.950 . S
C730 C725 1.363 . S
C730 C729 1.415 . S
C731 H707 0.951 . S
C731 C732 1.366 . S
C731 C733 1.388 . S
C732 C731 1.366 . S
C732 C736 1.385 . S
C733 H708 0.951 . S
C733 C731 1.388 . S
C733 C734 1.366 . S
C734 C733 1.366 . S
C734 C735 1.414 . S
C734 C737 1.499 . S
C735 H709 0.950 . S
C735 C734 1.414 . S
C735 C736 1.374 . S
C736 H710 0.950 . S
C736 C732 1.385 . S
C736 C735 1.374 . S
C737 C734 1.499 . S
C737 C738 1.373 . S
C737 C739 1.389 . S
C738 H711 0.950 . S
C738 C724 1.377 . S
C738 C737 1.373 . S
C739 C723 1.377 . S
C739 C737 1.389 . S
C739 C740 1.524 . S
C740 C739 1.524 . S
C740 C741 1.397 . S
C740 C745 1.363 . S
C741 H712 0.950 . S
C741 C740 1.397 . S
C741 C742 1.334 . S
C742 H713 0.950 . S
C742 C741 1.334 . S
C742 C743 1.287 . S
C743 C742 1.287 . S
C743 C744 1.524 . S
C743 H746 0.999 . S
C744 H714 0.950 . S
C744 C743 1.524 . S
C744 C745 1.415 . S
C745 H715 0.950 . S
C745 C740 1.363 . S
C745 C744 1.415 . S
H746 C743 0.999 . S
H747 C728 0.913 . S
H748 C766 0.951 . S
H749 C768 0.951 . S
H750 C770 0.950 . S
H751 C771 0.950 . S
H752 C773 0.950 . S
H753 C776 0.950 . S
H754 C777 0.950 . S
H755 C779 0.950 . S
H756 C780 0.950 . S
H757 C781 0.951 . S
H758 C783 0.951 . S
H759 C785 0.950 . S
H760 C786 0.950 . S
H761 C788 0.950 . S
H762 C791 0.950 . S
H763 C792 0.950 . S
H764 C794 0.950 . S
H765 C795 0.950 . S
C766 H748 0.951 . S
C766 C767 1.366 . S
C766 C768 1.388 . S
C767 C766 1.366 . S
C767 C771 1.385 . S
C768 H749 0.951 . S
C768 C766 1.388 . S
C768 C769 1.366 . S
C769 C768 1.366 . S
C769 C770 1.414 . S
C769 C772 1.499 . S
C770 H750 0.950 . S
C770 C769 1.414 . S
C770 C771 1.374 . S
C771 H751 0.950 . S
C771 C767 1.385 . S
C771 C770 1.374 . S
C772 C769 1.499 . S
C772 C773 1.373 . S
C772 C774 1.389 . S
C773 H752 0.950 . S
C773 C772 1.373 . S
C773 C789 1.377 . S
C774 C772 1.389 . S
C774 C775 1.524 . S
C774 C788 1.377 . S
C775 C774 1.524 . S
C775 C776 1.397 . S
C775 C780 1.363 . S
C776 H753 0.950 . S
C776 C775 1.397 . S
C776 C777 1.334 . S
C777 H754 0.950 . S
C777 C776 1.334 . S
C777 C778 1.287 . S
C778 C777 1.287 . S
C778 C779 1.524 . S
C778 H797 0.913 . S
C779 H755 0.950 . S
C779 C778 1.524 . S
C779 C780 1.415 . S
C780 H756 0.950 . S
C780 C775 1.363 . S
C780 C779 1.415 . S
C781 H757 0.951 . S
C781 C782 1.366 . S
C781 C783 1.388 . S
C782 C781 1.366 . S
C782 C786 1.385 . S
C783 H758 0.951 . S
C783 C781 1.388 . S
C783 C784 1.366 . S
C784 C783 1.366 . S
C784 C785 1.414 . S
C784 C787 1.499 . S
C785 H759 0.950 . S
C785 C784 1.414 . S
C785 C786 1.374 . S
C786 H760 0.950 . S
C786 C782 1.385 . S
C786 C785 1.374 . S
C787 C784 1.499 . S
C787 C788 1.373 . S
C787 C789 1.389 . S
C788 H761 0.950 . S
C788 C774 1.377 . S
C788 C787 1.373 . S
C789 C773 1.377 . S
C789 C787 1.389 . S
C789 C790 1.524 . S
C790 C789 1.524 . S
C790 C791 1.397 . S
C790 C795 1.363 . S
C791 H762 0.950 . S
C791 C790 1.397 . S
C791 C792 1.334 . S
C792 H763 0.950 . S
C792 C791 1.334 . S
C792 C793 1.287 . S
C793 C792 1.287 . S
C793 C794 1.524 . S
C793 H796 0.999 . S
C794 H764 0.950 . S
C794 C793 1.524 . S
C794 C795 1.415 . S
C795 H765 0.950 . S
C795 C790 1.363 . S
C795 C794 1.415 . S
H796 C793 0.999 . S
H797 C778 0.913 . S
H798 C816 0.951 . S
H799 C818 0.951 . S
H800 C820 0.950 . S
H801 C821 0.950 . S
H802 C823 0.950 . S
H803 C826 0.950 . S
H804 C827 0.950 . S
H805 C829 0.950 1_655 S
H806 C830 0.950 1_655 S
H807 C831 0.951 . S
H808 C833 0.951 . S
H809 C835 0.950 1_655 S
H810 C836 0.950 . S
H811 C838 0.950 . S
H812 C841 0.949 . S
H813 C842 0.950 . S
H814 C844 0.950 . S
H815 C845 0.936 1_554 S
C816 H798 0.951 . S
C816 C817 1.366 1_655 S
C816 C818 1.388 . S
C817 C816 1.366 1_455 S
C817 C821 1.385 . S
C818 H799 0.951 . S
C818 C816 1.388 . S
C818 C819 1.366 1_655 S
C819 C818 1.366 1_455 S
C819 C820 1.414 . S
C819 C822 1.499 . S
C820 H800 0.950 . S
C820 C819 1.414 . S
C820 C821 1.374 . S
C821 H801 0.950 . S
C821 C817 1.385 . S
C821 C820 1.374 . S
C822 C819 1.499 . S
C822 C823 1.373 . S
C822 C824 1.389 . S
C823 H802 0.950 . S
C823 C822 1.373 . S
C823 C839 1.373 1_554 S
C824 C822 1.389 . S
C824 C825 1.524 . S
C824 C838 1.377 1_554 S
C825 C824 1.524 . S
C825 C826 1.397 . S
C825 C830 1.363 . S
C826 H803 0.950 . S
C826 C825 1.397 . S
C826 C827 1.334 . S
C827 H804 0.950 . S
C827 C826 1.334 . S
C827 C828 1.287 . S
C828 C827 1.287 . S
C828 C829 1.524 . S
C828 H847 0.913 . S
C829 H805 0.950 1_455 S
C829 C828 1.524 . S
C829 C830 1.415 . S
C830 H806 0.950 1_455 S
C830 C825 1.363 . S
C830 C829 1.415 . S
C831 H807 0.951 . S
C831 C832 1.366 . S
C831 C833 1.388 . S
C832 C831 1.366 . S
C832 C836 1.385 . S
C833 H808 0.951 . S
C833 C831 1.388 . S
C833 C834 1.366 . S
C834 C833 1.366 . S
C834 C835 1.414 . S
C834 C837 1.499 . S
C835 H809 0.950 1_455 S
C835 C834 1.414 . S
C835 C836 1.374 . S
C836 H810 0.950 . S
C836 C832 1.385 . S
C836 C835 1.374 . S
C837 C834 1.499 . S
C837 C838 1.373 . S
C837 C839 1.392 . S
C838 H811 0.950 . S
C838 C824 1.377 1_556 S
C838 C837 1.373 . S
C839 C823 1.373 1_556 S
C839 C837 1.392 . S
C839 C840 1.526 . S
C840 C839 1.526 . S
C840 C841 1.378 1_455 S
C840 C845 1.371 . S
C841 H812 0.949 . S
C841 C840 1.378 1_655 S
C841 C842 1.353 . S
C842 H813 0.950 . S
C842 C841 1.353 . S
C842 C843 1.287 1_655 S
C843 C842 1.287 1_455 S
C843 C844 1.524 . S
C843 H846 0.999 . S
C844 H814 0.950 . S
C844 C843 1.524 . S
C844 C845 1.421 . S
C845 H815 0.936 1_556 S
C845 C840 1.371 . S
C845 C844 1.421 . S
H846 C843 0.999 . S
H847 C828 0.913 . S
H848 C866 0.951 . S
H849 C868 0.951 . S
H850 C870 0.950 . S
H851 C871 0.950 . S
H852 C873 0.950 . S
H853 C876 0.950 . S
H854 C877 0.950 . S
H855 C879 0.950 . S
H856 C880 0.963 . S
H857 C881 0.951 1_565 S
H858 C883 0.951 1_565 S
H859 C885 0.950 . S
H860 C886 0.950 . S
H861 C888 0.950 . S
H862 C891 0.950 . S
H863 C892 0.950 . S
H864 C894 0.950 . S
H865 C895 0.950 . S
C866 H848 0.951 . S
C866 C867 1.366 . S
C866 C868 1.388 . S
C867 C866 1.366 . S
C867 C871 1.385 . S
C868 H849 0.951 . S
C868 C866 1.388 . S
C868 C869 1.366 . S
C869 C868 1.366 . S
C869 C870 1.414 . S
C869 C872 1.499 . S
C870 H850 0.950 . S
C870 C869 1.414 . S
C870 C871 1.374 . S
C871 H851 0.950 . S
C871 C867 1.385 . S
C871 C870 1.374 . S
C872 C869 1.499 . S
C872 C873 1.373 . S
C872 C874 1.389 . S
C873 H852 0.950 . S
C873 C872 1.373 . S
C873 C889 1.377 . S
C874 C872 1.389 . S
C874 C875 1.524 1_545 S
C874 C888 1.377 . S
C875 C874 1.524 1_565 S
C875 C876 1.397 . S
C875 C880 1.349 1_565 S
C876 H853 0.950 . S
C876 C875 1.397 . S
C876 C877 1.334 . S
C877 H854 0.950 . S
C877 C876 1.334 . S
C877 C878 1.287 . S
C878 C877 1.287 . S
C878 C879 1.524 . S
C878 H897 0.913 . S
C879 H855 0.950 . S
C879 C878 1.524 . S
C879 C880 1.417 1_565 S
C880 H856 0.963 . S
C880 C875 1.349 1_545 S
C880 C879 1.417 1_545 S
C881 H857 0.951 1_545 S
C881 C882 1.366 . S
C881 C883 1.388 . S
C882 C881 1.366 . S
C882 C886 1.385 . S
C883 H858 0.951 1_545 S
C883 C881 1.388 . S
C883 C884 1.366 . S
C884 C883 1.366 . S
C884 C885 1.414 . S
C884 C887 1.499 . S
C885 H859 0.950 . S
C885 C884 1.414 . S
C885 C886 1.374 . S
C886 H860 0.950 . S
C886 C882 1.385 . S
C886 C885 1.374 . S
C887 C884 1.499 . S
C887 C888 1.373 . S
C887 C889 1.389 . S
C888 H861 0.950 . S
C888 C874 1.377 . S
C888 C887 1.373 . S
C889 C873 1.377 . S
C889 C887 1.389 . S
C889 C890 1.524 . S
C890 C889 1.524 . S
C890 C891 1.397 . S
C890 C895 1.363 . S
C891 H862 0.950 . S
C891 C890 1.397 . S
C891 C892 1.334 . S
C892 H863 0.950 . S
C892 C891 1.334 . S
C892 C893 1.287 . S
C893 C892 1.287 . S
C893 C894 1.524 . S
C893 H896 0.999 . S
C894 H864 0.950 . S
C894 C893 1.524 . S
C894 C895 1.415 . S
C895 H865 0.950 . S
C895 C890 1.363 . S
C895 C894 1.415 . S
H896 C893 0.999 . S
H897 C878 0.913 . S
H898 C916 0.951 . S
H899 C918 0.951 . S
H900 C920 0.950 . S
H901 C921 0.950 . S
H902 C923 0.950 . S
H903 C926 0.950 . S
H904 C927 0.950 . S
H905 C929 0.950 . S
H906 C930 0.950 . S
H907 C931 0.951 . S
H908 C933 0.951 . S
H909 C935 0.950 . S
H910 C936 0.950 . S
H911 C938 0.950 . S
H912 C941 0.950 . S
H913 C942 0.950 . S
H914 C944 0.950 . S
H915 C945 0.950 . S
C916 H898 0.951 . S
C916 C917 1.366 . S
C916 C918 1.388 . S
C917 C916 1.366 . S
C917 C921 1.385 . S
C918 H899 0.951 . S
C918 C916 1.388 . S
C918 C919 1.366 . S
C919 C918 1.366 . S
C919 C920 1.414 . S
C919 C922 1.499 . S
C920 H900 0.950 . S
C920 C919 1.414 . S
C920 C921 1.374 . S
C921 H901 0.950 . S
C921 C917 1.385 . S
C921 C920 1.374 . S
C922 C919 1.499 . S
C922 C923 1.373 . S
C922 C924 1.389 . S
C923 H902 0.950 . S
C923 C922 1.373 . S
C923 C939 1.377 . S
C924 C922 1.389 . S
C924 C925 1.524 . S
C924 C938 1.377 . S
C925 C924 1.524 . S
C925 C926 1.397 . S
C925 C930 1.363 . S
C926 H903 0.950 . S
C926 C925 1.397 . S
C926 C927 1.334 . S
C927 H904 0.950 . S
C927 C926 1.334 . S
C927 C928 1.287 . S
C928 C927 1.287 . S
C928 C929 1.524 . S
C928 H947 0.913 . S
C929 H905 0.950 . S
C929 C928 1.524 . S
C929 C930 1.415 . S
C930 H906 0.950 . S
C930 C925 1.363 . S
C930 C929 1.415 . S
C931 H907 0.951 . S
C931 C932 1.366 . S
C931 C933 1.388 . S
C932 C931 1.366 . S
C932 C936 1.385 . S
C933 H908 0.951 . S
C933 C931 1.388 . S
C933 C934 1.366 . S
C934 C933 1.366 . S
C934 C935 1.414 . S
C934 C937 1.499 . S
C935 H909 0.950 . S
C935 C934 1.414 . S
C935 C936 1.374 . S
C936 H910 0.950 . S
C936 C932 1.385 . S
C936 C935 1.374 . S
C937 C934 1.499 . S
C937 C938 1.373 . S
C937 C939 1.389 . S
C938 H911 0.950 . S
C938 C924 1.377 . S
C938 C937 1.373 . S
C939 C923 1.377 . S
C939 C937 1.389 . S
C939 C940 1.524 . S
C940 C939 1.524 . S
C940 C941 1.397 . S
C940 C945 1.363 . S
C941 H912 0.950 . S
C941 C940 1.397 . S
C941 C942 1.334 . S
C942 H913 0.950 . S
C942 C941 1.334 . S
C942 C943 1.287 . S
C943 C942 1.287 . S
C943 C944 1.524 . S
C943 H946 0.999 . S
C944 H914 0.950 . S
C944 C943 1.524 . S
C944 C945 1.415 . S
C945 H915 0.950 . S
C945 C940 1.363 . S
C945 C944 1.415 . S
H946 C943 0.999 . S
H947 C928 0.913 . S
H948 C966 0.951 . S
H949 C968 0.951 . S
H950 C970 0.950 1_565 S
H951 C971 0.950 1_565 S
H952 C973 0.937 1_565 S
H953 C976 0.950 . S
H954 C977 0.950 . S
H955 C979 0.950 . S
H956 C980 0.950 . S
H957 C981 0.932 1_565 S
H958 C983 0.951 1_565 S
H959 C985 0.950 . S
H960 C986 0.950 . S
H961 C988 0.950 . S
H962 C991 0.950 . S
H963 C992 0.950 . S
H964 C994 0.950 . S
H965 C995 0.950 . S
C966 H948 0.951 . S
C966 C967 1.366 . S
C966 C968 1.388 . S
C967 C966 1.366 . S
C967 C971 1.385 . S
C968 H949 0.951 . S
C968 C966 1.388 . S
C968 C969 1.366 . S
C969 C968 1.366 . S
C969 C970 1.414 . S
C969 C972 1.499 . S
C970 H950 0.950 1_545 S
C970 C969 1.414 . S
C970 C971 1.374 . S
C971 H951 0.950 1_545 S
C971 C967 1.385 . S
C971 C970 1.374 . S
C972 C969 1.499 . S
C972 C973 1.384 . S
C972 C974 1.389 . S
C973 H952 0.937 1_545 S
C973 C972 1.384 . S
C973 C989 1.380 . S
C974 C972 1.389 . S
C974 C975 1.524 . S
C974 C988 1.377 . S
C975 C974 1.524 . S
C975 C976 1.397 . S
C975 C980 1.363 . S
C976 H953 0.950 . S
C976 C975 1.397 . S
C976 C977 1.334 . S
C977 H954 0.950 . S
C977 C976 1.334 . S
C977 C978 1.287 . S
C978 C977 1.287 . S
C978 C979 1.524 . S
C978 H997 0.913 . S
C979 H955 0.950 . S
C979 C978 1.524 . S
C979 C980 1.415 . S
C980 H956 0.950 . S
C980 C975 1.363 . S
C980 C979 1.415 . S
C981 H957 0.932 1_545 S
C981 C982 1.366 . S
C981 C983 1.388 . S
C982 C981 1.366 . S
C982 C986 1.385 . S
C983 H958 0.951 1_545 S
C983 C981 1.388 . S
C983 C984 1.366 . S
C984 C983 1.366 . S
C984 C985 1.414 . S
C984 C987 1.499 . S
C985 H959 0.950 . S
C985 C984 1.414 . S
C985 C986 1.374 . S
C986 H960 0.950 . S
C986 C982 1.385 . S
C986 C985 1.374 . S
C987 C984 1.499 . S
C987 C988 1.373 . S
C987 C989 1.389 . S
C988 H961 0.950 . S
C988 C974 1.377 . S
C988 C987 1.373 . S
C989 C973 1.380 . S
C989 C987 1.389 . S
C989 C990 1.524 1_545 S
C990 C989 1.524 1_565 S
C990 C991 1.397 . S
C990 C995 1.363 . S
C991 H962 0.950 . S
C991 C990 1.397 . S
C991 C992 1.334 . S
C992 H963 0.950 . S
C992 C991 1.334 . S
C992 C993 1.287 . S
C993 C992 1.287 . S
C993 C994 1.524 . S
C993 H996 0.999 . S
C994 H964 0.950 . S
C994 C993 1.524 . S
C994 C995 1.415 . S
C995 H965 0.950 . S
C995 C990 1.363 . S
C995 C994 1.415 . S
H996 C993 0.999 . S
H997 C978 0.913 . S
H998 C1016 0.951 . S
H999 C1018 0.951 . S
H1000 C1020 0.950 . S
H1001 C1021 0.950 . S
H1002 C1023 0.950 . S
H1003 C1026 0.950 . S
H1004 C1027 0.950 . S
H1005 C1029 0.950 . S
H1006 C1030 0.950 . S
H1007 C1031 0.951 . S
H1008 C1033 0.951 . S
H1009 C1035 0.950 . S
H1010 C1036 0.950 . S
H1011 C1038 0.931 1_554 S
H1012 C1041 0.950 . S
H1013 C1042 0.950 . S
H1014 C1044 0.950 . S
H1015 C1045 0.950 1_556 S
C1016 H998 0.951 . S
C1016 C1017 1.366 . S
C1016 C1018 1.388 . S
C1017 C1016 1.366 . S
C1017 C1021 1.385 . S
C1018 H999 0.951 . S
C1018 C1016 1.388 . S
C1018 C1019 1.366 . S
C1019 C1018 1.366 . S
C1019 C1020 1.414 . S
C1019 C1022 1.499 . S
C1020 H1000 0.950 . S
C1020 C1019 1.414 . S
C1020 C1021 1.374 . S
C1021 H1001 0.950 . S
C1021 C1017 1.385 . S
C1021 C1020 1.374 . S
C1022 C1019 1.499 . S
C1022 C1023 1.373 . S
C1022 C1024 1.389 . S
C1023 H1002 0.950 . S
C1023 C1022 1.373 . S
C1023 C1039 1.377 . S
C1024 C1022 1.389 . S
C1024 C1025 1.524 . S
C1024 C1038 1.416 . S
C1025 C1024 1.524 . S
C1025 C1026 1.397 . S
C1025 C1030 1.363 . S
C1026 H1003 0.950 . S
C1026 C1025 1.397 . S
C1026 C1027 1.334 . S
C1027 H1004 0.950 . S
C1027 C1026 1.334 . S
C1027 C1028 1.287 . S
C1028 C1027 1.287 . S
C1028 C1029 1.524 . S
C1028 H1047 0.913 . S
C1029 H1005 0.950 . S
C1029 C1028 1.524 . S
C1029 C1030 1.415 . S
C1030 H1006 0.950 . S
C1030 C1025 1.363 . S
C1030 C1029 1.415 . S
C1031 H1007 0.951 . S
C1031 C1032 1.366 . S
C1031 C1033 1.388 . S
C1032 C1031 1.366 . S
C1032 C1036 1.385 . S
C1033 H1008 0.951 . S
C1033 C1031 1.388 . S
C1033 C1034 1.366 . S
C1034 C1033 1.366 . S
C1034 C1035 1.414 . S
C1034 C1037 1.499 . S
C1035 H1009 0.950 . S
C1035 C1034 1.414 . S
C1035 C1036 1.374 . S
C1036 H1010 0.950 . S
C1036 C1032 1.385 . S
C1036 C1035 1.374 . S
C1037 C1034 1.499 . S
C1037 C1038 1.354 1_554 S
C1037 C1039 1.389 1_554 S
C1038 H1011 0.931 1_556 S
C1038 C1024 1.416 . S
C1038 C1037 1.354 1_556 S
C1039 C1023 1.377 . S
C1039 C1037 1.389 1_556 S
C1039 C1040 1.524 1_556 S
C1040 C1039 1.524 1_554 S
C1040 C1041 1.397 . S
C1040 C1045 1.363 . S
C1041 H1012 0.950 . S
C1041 C1040 1.397 . S
C1041 C1042 1.334 . S
C1042 H1013 0.950 . S
C1042 C1041 1.334 . S
C1042 C1043 1.287 . S
C1043 C1042 1.287 . S
C1043 C1044 1.524 . S
C1043 H1046 0.999 . S
C1044 H1014 0.950 . S
C1044 C1043 1.524 . S
C1044 C1045 1.415 . S
C1045 H1015 0.950 1_554 S
C1045 C1040 1.363 . S
C1045 C1044 1.415 . S
H1046 C1043 0.999 . S
H1047 C1028 0.913 . S
H1048 C1066 0.951 . S
H1049 C1068 0.951 . S
H1050 C1070 0.950 . S
H1051 C1071 0.950 . S
H1052 C1073 0.950 . S
H1053 C1076 0.950 . S
H1054 C1077 0.950 . S
H1055 C1079 0.950 . S
H1056 C1080 0.950 . S
H1057 C1081 0.951 . S
H1058 C1083 0.951 . S
H1059 C1085 0.950 . S
H1060 C1086 0.950 . S
H1061 C1088 0.950 . S
H1062 C1091 0.950 1_455 S
H1063 C1092 0.950 . S
H1064 C1094 0.950 . S
H1065 C1095 0.950 . S
C1066 H1048 0.951 . S
C1066 C1067 1.366 1_455 S
C1066 C1068 1.388 . S
C1067 C1066 1.366 1_655 S
C1067 C1071 1.385 . S
C1068 H1049 0.951 . S
C1068 C1066 1.388 . S
C1068 C1069 1.366 . S
C1069 C1068 1.366 . S
C1069 C1070 1.414 1_455 S
C1069 C1072 1.499 . S
C1070 H1050 0.950 . S
C1070 C1069 1.414 1_655 S
C1070 C1071 1.374 . S
C1071 H1051 0.950 . S
C1071 C1067 1.385 . S
C1071 C1070 1.374 . S
C1072 C1069 1.499 . S
C1072 C1073 1.373 1_455 S
C1072 C1074 1.389 . S
C1073 H1052 0.950 . S
C1073 C1072 1.373 1_655 S
C1073 C1089 1.377 . S
C1074 C1072 1.389 . S
C1074 C1075 1.524 . S
C1074 C1088 1.377 . S
C1075 C1074 1.524 . S
C1075 C1076 1.397 . S
C1075 C1080 1.363 . S
C1076 H1053 0.950 . S
C1076 C1075 1.397 . S
C1076 C1077 1.334 . S
C1077 H1054 0.950 . S
C1077 C1076 1.334 . S
C1077 C1078 1.287 . S
C1078 C1077 1.287 . S
C1078 C1079 1.524 . S
C1078 H1097 0.913 . S
C1079 H1055 0.950 . S
C1079 C1078 1.524 . S
C1079 C1080 1.415 . S
C1080 H1056 0.950 . S
C1080 C1075 1.363 . S
C1080 C1079 1.415 . S
C1081 H1057 0.951 . S
C1081 C1082 1.366 1_655 S
C1081 C1083 1.388 . S
C1082 C1081 1.366 1_455 S
C1082 C1086 1.385 . S
C1083 H1058 0.951 . S
C1083 C1081 1.388 . S
C1083 C1084 1.366 1_655 S
C1084 C1083 1.366 1_455 S
C1084 C1085 1.414 . S
C1084 C1087 1.499 . S
C1085 H1059 0.950 . S
C1085 C1084 1.414 . S
C1085 C1086 1.374 . S
C1086 H1060 0.950 . S
C1086 C1082 1.385 . S
C1086 C1085 1.374 . S
C1087 C1084 1.499 . S
C1087 C1088 1.373 . S
C1087 C1089 1.389 1_455 S
C1088 H1061 0.950 . S
C1088 C1074 1.377 . S
C1088 C1087 1.373 . S
C1089 C1073 1.377 . S
C1089 C1087 1.389 1_655 S
C1089 C1090 1.524 . S
C1090 C1089 1.524 . S
C1090 C1091 1.397 . S
C1090 C1095 1.363 . S
C1091 H1062 0.950 1_655 S
C1091 C1090 1.397 . S
C1091 C1092 1.334 . S
C1092 H1063 0.950 . S
C1092 C1091 1.334 . S
C1092 C1093 1.287 . S
C1093 C1092 1.287 . S
C1093 C1094 1.524 . S
C1093 H1096 0.999 . S
C1094 H1064 0.950 . S
C1094 C1093 1.524 . S
C1094 C1095 1.415 . S
C1095 H1065 0.950 . S
C1095 C1090 1.363 . S
C1095 C1094 1.415 . S
H1096 C1093 0.999 . S
H1097 C1078 0.913 . S
C217 C7 0.255 . S
C232 N187 0.267 . S
C267 C51 1.763 . S
C282 N160 1.763 1_655 S
C317 C87 1.077 . S
C332 N173 1.075 . S
C367 C16 0.626 . S
C382 N186 0.606 . S
C432 N161 1.985 . S
C417 C42 1.979 . S
C482 N174 1.320 . S
C467 C96 1.310 . S
C517 C47 1.030 . S
C532 N134 1.029 . S
C567 C91 2.737 . S
C582 N148 2.696 1_655 S
C617 C2 1.990 . S
C632 N122 2.004 . S
C682 N135 1.367 . S
C667 C56 1.349 . S
C732 N147 3.306 . S
C717 C82 3.265 . S
C767 C11 1.758 . S
C782 N121 1.766 . S
C832 N151 1.728 . S
C817 C19 1.709 . S
C867 C50 1.477 . S
C882 N125 1.488 . S
C917 C99 1.516 . S
C932 N138 1.584 . S
C982 N177 1.545 . S
C967 C59 1.488 . S
C1032 N190 1.295 . S
C1017 C90 1.302 . S
C1067 C10 1.457 1_655 S
C1082 N164 1.475 . S
