# Generated by pormake.
# Topology rtl, (3,6)-cn, num edge types: 1
# Building blocks:
#     Node 0, Type 0, BuildingBlock: BETDAH_clean_linker_0, # of connection points: 3
#     Node 1, Type 0, BuildingBlock: BETDAH_clean_linker_0, # of connection points: 3
#     Node 2, Type 0, BuildingBlock: BETDAH_clean_linker_0, # of connection points: 3
#     Node 3, Type 0, BuildingBlock: BETDAH_clean_linker_0, # of connection points: 3
#     Node 4, Type 1, BuildingBlock: LEVNOQ01_clean_sbu_1, # of connection points: 6
#     Node 5, Type 1, BuildingBlock: LEVNOQ01_clean_sbu_1, # of connection points: 6
#     Edge 6, Type (0, 1), BuildingBlock: TEMPAE_clean_linker_10, # of connection points: 2
#     Edge 7, Type (0, 1), BuildingBlock: TEMPAE_clean_linker_10, # of connection points: 2
#     Edge 8, Type (0, 1), BuildingBlock: TEMPAE_clean_linker_10, # of connection points: 2
#     Edge 9, Type (0, 1), BuildingBlock: TEMPAE_clean_linker_10, # of connection points: 2
#     Edge 10, Type (0, 1), BuildingBlock: TEMPAE_clean_linker_10, # of connection points: 2
#     Edge 11, Type (0, 1), BuildingBlock: TEMPAE_clean_linker_10, # of connection points: 2
#     Edge 12, Type (0, 1), BuildingBlock: TEMPAE_clean_linker_10, # of connection points: 2
#     Edge 13, Type (0, 1), BuildingBlock: TEMPAE_clean_linker_10, # of connection points: 2
#     Edge 14, Type (0, 1), BuildingBlock: TEMPAE_clean_linker_10, # of connection points: 2
#     Edge 15, Type (0, 1), BuildingBlock: TEMPAE_clean_linker_10, # of connection points: 2
#     Edge 16, Type (0, 1), BuildingBlock: TEMPAE_clean_linker_10, # of connection points: 2
#     Edge 17, Type (0, 1), BuildingBlock: TEMPAE_clean_linker_10, # of connection points: 2
# Relax obj value: 0.016
# Max RMSD: 0.115
# Mean RMSD: 0.086
data_MOF--net-rtl--node1-LEVNOQ01_clean_sbu_1--node2-BETDAH_clean_linker_0--edge1-TEMPAE_clean_linker_10
_symmetry_space_group_name_H-M    P1
_symmetry_Int_Tables_number       1
_symmetry_cell_setting            triclinic
loop_
_symmetry_equiv_pos_as_xyz
'x, y, z'
_cell_length_a     35.913099
_cell_length_b     35.836833
_cell_length_c     22.510974
_cell_angle_alpha  91.145653
_cell_angle_beta   98.830598
_cell_angle_gamma 89.942091
loop_
_atom_site_label
_atom_site_type_symbol
_atom_site_fract_x
_atom_site_fract_y
_atom_site_fract_z
_atom_type_partial_charge
H0 H 0.15003 0.87707 0.0624 0.0
H1 H 0.19122 0.78294 0.16859 0.0
H2 H 0.17112 0.77247 0.97602 0.0
C3 C 0.16014 0.84853 0.06501 0.0
C4 C 0.1599 0.82704 0.01196 0.0
C5 C 0.17133 0.83287 0.12164 0.0
C6 C 0.18366 0.79568 0.12514 0.0
C7 C 0.18417 0.77418 0.07258 0.0
C8 C 0.17209 0.78978 0.01627 0.0
N9 N 0.19222 0.73559 0.07614 0.0
C10 C 0.22831 0.72223 0.09489 0.0
H11 H 0.66297 0.63088 0.57325 0.0
H12 H 0.68939 0.74052 0.51694 0.0
H13 H 0.70771 0.71451 0.70452 0.0
C14 C 0.67434 0.65863 0.58424 0.0
C15 C 0.68638 0.669 0.64449 0.0
C16 C 0.67492 0.68426 0.53808 0.0
C17 C 0.68973 0.7202 0.55204 0.0
C18 C 0.702 0.73079 0.61235 0.0
C19 C 0.70005 0.70532 0.65808 0.0
N20 N 0.71156 0.76825 0.62859 0.0
C21 C 0.74316 0.78535 0.613 0.0
H22 H 0.86122 0.13257 0.00921 0.0
H23 H 0.83123 0.2419 0.07074 0.0
H24 H 0.82978 0.21926 0.88268 0.0
C25 C 0.851 0.16065 1.00003 0.0
C26 C 0.84427 0.17231 0.94023 0.0
C27 C 0.8464 0.18531 0.04796 0.0
C28 C 0.8344 0.22218 0.03477 0.0
C29 C 0.82828 0.23415 0.97492 0.0
C30 C 0.83324 0.20924 0.92833 0.0
N31 N 0.82168 0.27212 0.9608 0.0
C32 C 0.7914 0.29215 0.97622 0.0
H33 H 0.36626 0.40521 0.5121 0.0
H34 H 0.27741 0.3394 0.56714 0.0
H35 H 0.2683 0.37524 0.38522 0.0
C36 C 0.33983 0.39022 0.50129 0.0
C37 C 0.31981 0.39179 0.44257 0.0
C38 C 0.32504 0.37136 0.54694 0.0
C39 C 0.28972 0.35352 0.5327 0.0
C40 C 0.26941 0.35543 0.47432 0.0
C41 C 0.28441 0.37448 0.43001 0.0
N42 N 0.23213 0.34176 0.46038 0.0
C43 C 0.22269 0.30455 0.46502 0.0
O44 O 0.00517 0.08685 0.64484 0.0
Mg45 Mg 0.05485 0.06398 0.62359 0.0
O46 O 0.97368 0.0422 0.58981 0.0
Mg47 Mg 0.0145 0.01379 0.52921 0.0
O48 O 0.05831 0.06294 0.5341 0.0
O49 O 0.092 0.10134 0.60252 0.0
O50 O 0.05368 0.98452 0.46825 0.0
O51 O 0.9843 0.05221 0.44952 0.0
Mg52 Mg 0.968 0.98312 0.44043 0.0
O53 O 0.9712 0.96293 0.52555 0.0
O54 O 0.01154 0.97666 0.38758 0.0
O55 O 0.9293 0.0263 0.42051 0.0
O56 O 0.94172 0.93383 0.44169 0.0
C57 C 0.0698 0.98604 0.65858 0.0
C58 C 0.97464 0.06978 0.62683 0.0
C59 C 0.08263 0.08994 0.54753 0.0
C60 C 0.04549 0.9757 0.4127 0.0
C61 C 0.95063 0.05418 0.42143 0.0
C62 C 0.94976 0.93611 0.49943 0.0
O63 O 0.07891 0.01939 0.67315 0.0
O64 O 0.0469 0.97882 0.61027 0.0
O65 O 0.54278 0.51008 0.18958 0.0
Mg66 Mg 0.52533 0.47143 0.11741 0.0
O67 O 0.54531 0.55273 0.12195 0.0
Mg68 Mg 0.51165 0.52119 0.04101 0.0
O69 O 0.55527 0.46891 0.04702 0.0
O70 O 0.56421 0.43166 0.12721 0.0
O71 O 0.47677 0.49048 0.95659 0.0
O72 O 0.55656 0.54422 0.98408 0.0
Mg73 Mg 0.47837 0.58094 0.9475 0.0
O74 O 0.47333 0.57304 0.03454 0.0
O75 O 0.45399 0.53535 0.89483 0.0
O76 O 0.53339 0.59585 0.94035 0.0
O77 O 0.44531 0.61997 0.98156 0.0
C78 C 0.45242 0.47157 0.1126 0.0
C79 C 0.55183 0.54265 0.17629 0.0
C80 C 0.57316 0.44156 0.0766 0.0
C81 C 0.45745 0.50097 0.90712 0.0
C82 C 0.56058 0.57368 0.95455 0.0
C83 C 0.45172 0.60218 0.03133 0.0
O84 O 0.47331 0.44378 0.10886 0.0
O85 O 0.46411 0.50329 0.0987 0.0
C86 C 0.19211 0.25062 0.40892 0.0
C87 C 0.20756 0.26734 0.46387 0.0
C88 C 0.17228 0.21675 0.40716 0.0
C89 C 0.16761 0.19979 0.46179 0.0
C90 C 0.18497 0.21591 0.51731 0.0
C91 C 0.20477 0.24966 0.51761 0.0
C92 C 0.15471 0.20029 0.34717 0.0
C93 C 0.18087 0.19865 0.57664 0.0
C94 C 0.08184 0.14629 0.48824 0.0
C95 C 0.0975 0.11116 0.50155 0.0
C96 C 0.10343 0.17487 0.46895 0.0
C97 C 0.14141 0.16774 0.46238 0.0
C98 C 0.15556 0.13086 0.468 0.0
C99 C 0.13349 0.10294 0.48852 0.0
C100 C 0.08708 0.21371 0.4634 0.0
C101 C 0.19536 0.12178 0.45906 0.0
H102 H 0.19436 0.2647 0.3674 0.0
H103 H 0.21677 0.26295 0.55994 0.0
H104 H 0.15849 0.16957 0.34598 0.0
H105 H 0.12398 0.2059 0.33997 0.0
H106 H 0.16689 0.21252 0.30943 0.0
H107 H 0.19785 0.21349 0.61539 0.0
H108 H 0.15084 0.19928 0.58305 0.0
H109 H 0.18975 0.16899 0.57684 0.0
H110 H 0.05415 0.15263 0.49941 0.0
H111 H 0.1457 0.07581 0.49973 0.0
H112 H 0.09408 0.22733 0.42272 0.0
H113 H 0.09949 0.23096 0.50302 0.0
H114 H 0.05597 0.21354 0.46127 0.0
H115 H 0.2034 0.13731 0.42079 0.0
H116 H 0.19894 0.0914 0.45082 0.0
H117 H 0.21503 0.13017 0.50007 0.0
C118 C 0.28387 0.69864 0.16302 0.0
C119 C 0.26496 0.70499 0.10497 0.0
C120 C 0.31898 0.68029 0.17164 0.0
C121 C 0.33479 0.66773 0.12084 0.0
C122 C 0.31539 0.6744 0.06217 0.0
C123 C 0.28078 0.69303 0.05512 0.0
C124 C 0.33852 0.67385 0.23483 0.0
C125 C 0.33116 0.66192 0.00647 0.0
C126 C 0.43381 0.65298 0.09609 0.0
C127 C 0.43234 0.6149 0.08087 0.0
C128 C 0.40413 0.67021 0.1198 0.0
C129 C 0.37209 0.64878 0.12683 0.0
C130 C 0.37367 0.60933 0.12144 0.0
C131 C 0.404 0.59268 0.09816 0.0
C132 C 0.40462 0.71209 0.1281 0.0
C133 C 0.34097 0.58525 0.13171 0.0
H134 H 0.27118 0.7078 0.20152 0.0
H135 H 0.2658 0.69798 0.01033 0.0
H136 H 0.33266 0.64497 0.24767 0.0
H137 H 0.36952 0.67698 0.23836 0.0
H138 H 0.32823 0.69338 0.26764 0.0
H139 H 0.31206 0.66859 0.96439 0.0
H140 H 0.35867 0.67574 0.00542 0.0
H141 H 0.33604 0.63135 0.00712 0.0
H142 H 0.45611 0.67004 0.08328 0.0
H143 H 0.40302 0.56313 0.08664 0.0
H144 H 0.39081 0.72066 0.16703 0.0
H145 H 0.38883 0.72489 0.08729 0.0
H146 H 0.43385 0.72326 0.13492 0.0
H147 H 0.32847 0.59577 0.1709 0.0
H148 H 0.34967 0.55574 0.13929 0.0
H149 H 0.31882 0.58608 0.09152 0.0
C150 C 0.80991 0.80124 0.64324 0.0
C151 C 0.77652 0.80482 0.60273 0.0
C152 C 0.84235 0.82125 0.63543 0.0
C153 C 0.84099 0.84533 0.58604 0.0
C154 C 0.80699 0.84898 0.54517 0.0
C155 C 0.77507 0.82856 0.55407 0.0
C156 C 0.87803 0.81656 0.67971 0.0
C157 C 0.80435 0.87443 0.49202 0.0
C158 C 0.90993 0.92455 0.57819 0.0
C159 C 0.93018 0.91041 0.53437 0.0
C160 C 0.8821 0.90278 0.59861 0.0
C161 C 0.87519 0.86595 0.57537 0.0
C162 C 0.8983 0.8505 0.53565 0.0
C163 C 0.92519 0.87314 0.51495 0.0
C164 C 0.85789 0.9204 0.64062 0.0
C165 C 0.89259 0.81106 0.5111 0.0
H166 H 0.81057 0.78292 0.68116 0.0
H167 H 0.74891 0.83132 0.52323 0.0
H168 H 0.90075 0.80547 0.65607 0.0
H169 H 0.88771 0.84401 0.69995 0.0
H170 H 0.87416 0.79733 0.71639 0.0
H171 H 0.77556 0.87498 0.46564 0.0
H172 H 0.81241 0.90329 0.50761 0.0
H173 H 0.82436 0.86512 0.46179 0.0
H174 H 0.91348 0.95358 0.59253 0.0
H175 H 0.94095 0.86229 0.48098 0.0
H176 H 0.8531 0.90079 0.67619 0.0
H177 H 0.82995 0.92735 0.61485 0.0
H178 H 0.87073 0.94641 0.66223 0.0
H179 H 0.88951 0.79151 0.54764 0.0
H180 H 0.91634 0.80154 0.48829 0.0
H181 H 0.86627 0.80955 0.4781 0.0
C182 C 0.72347 0.30016 0.97637 0.0
C183 C 0.75981 0.31517 0.98527 0.0
C184 C 0.69234 0.32254 0.98384 0.0
C185 C 0.69799 0.36069 0.00069 0.0
C186 C 0.73478 0.37608 0.0079 0.0
C187 C 0.76535 0.35302 1.00003 0.0
C188 C 0.65362 0.30506 0.97584 0.0
C189 C 0.74204 0.4165 0.02621 0.0
C190 C 0.61235 0.42449 0.99598 0.0
C191 C 0.60531 0.42222 0.05537 0.0
C192 C 0.64264 0.4048 0.97713 0.0
C193 C 0.66644 0.38288 0.01893 0.0
C194 C 0.65988 0.38137 0.07912 0.0
C195 C 0.62945 0.40084 0.0964 0.0
C196 C 0.64883 0.40694 0.9125 0.0
C197 C 0.68488 0.35891 0.12549 0.0
H198 H 0.71945 0.27085 0.96406 0.0
H199 H 0.79364 0.3645 0.00597 0.0
H200 H 0.6435 0.30416 0.01995 0.0
H201 H 0.63332 0.32217 0.94572 0.0
H202 H 0.65347 0.27619 0.95689 0.0
H203 H 0.77152 0.42502 0.024 0.0
H204 H 0.72265 0.43489 0.99691 0.0
H205 H 0.7365 0.42112 0.07296 0.0
H206 H 0.59391 0.44106 0.96416 0.0
H207 H 0.62472 0.39932 0.1427 0.0
H208 H 0.64508 0.37884 0.8908 0.0
H209 H 0.67812 0.41596 0.91027 0.0
H210 H 0.62904 0.42659 0.88637 0.0
H211 H 0.68371 0.32897 0.11185 0.0
H212 H 0.67653 0.3616 0.1709 0.0
H213 H 0.7146 0.36814 0.12851 0.0
C214 C 0.18043 0.88906 0.19052 0.0
C215 C 0.16446 0.85373 0.17627 0.0
C216 C 0.16917 0.91131 0.23678 0.0
C217 C 0.14028 0.89836 0.26761 0.0
C218 C 0.12551 0.86189 0.25514 0.0
C219 C 0.13812 0.83988 0.21008 0.0
C220 C 0.18657 0.94944 0.25003 0.0
C221 C 0.09417 0.84717 0.28595 0.0
C222 C 0.10707 0.94396 0.40432 0.0
C223 C 0.07429 0.96191 0.37711 0.0
C224 C 0.13067 0.92509 0.36913 0.0
C225 C 0.12114 0.92436 0.30562 0.0
C226 C 0.08974 0.94502 0.27818 0.0
C227 C 0.06676 0.96345 0.31423 0.0
C228 C 0.16439 0.9041 0.39997 0.0
C229 C 0.07873 0.9455 0.21065 0.0
H230 H 0.20092 0.89967 0.16434 0.0
H231 H 0.12553 0.81269 0.19852 0.0
H232 H 0.16711 0.97093 0.22827 0.0
H233 H 0.19136 0.95567 0.29911 0.0
H234 H 0.21379 0.95189 0.23269 0.0
H235 H 0.08796 0.81726 0.27476 0.0
H236 H 0.10155 0.85047 0.33543 0.0
H237 H 0.06813 0.86351 0.27194 0.0
H238 H 0.11315 0.94286 0.45293 0.0
H239 H 0.04185 0.97791 0.29294 0.0
H240 H 0.18914 0.90837 0.37681 0.0
H241 H 0.15803 0.87377 0.39796 0.0
H242 H 0.1719 0.91283 0.44795 0.0
H243 H 0.10317 0.95348 0.18892 0.0
H244 H 0.05531 0.96521 0.19642 0.0
H245 H 0.06975 0.91711 0.19369 0.0
C246 C 0.64448 0.62635 0.69018 0.0
C247 C 0.67955 0.644 0.69344 0.0
C248 C 0.63453 0.60804 0.73975 0.0
C249 C 0.66036 0.60724 0.79405 0.0
C250 C 0.69711 0.6219 0.79584 0.0
C251 C 0.70617 0.64054 0.74559 0.0
C252 C 0.59496 0.59282 0.7356 0.0
C253 C 0.72595 0.62041 0.852 0.0
C254 C 0.60391 0.61874 0.91972 0.0
C255 C 0.59559 0.58152 0.9304 0.0
C256 C 0.62854 0.62765 0.87977 0.0
C257 C 0.64571 0.59851 0.85044 0.0
C258 C 0.64154 0.56106 0.86752 0.0
C259 C 0.61614 0.55286 0.90732 0.0
C260 C 0.63226 0.66807 0.86351 0.0
C261 C 0.66089 0.5294 0.83948 0.0
H262 H 0.62366 0.6291 0.6502 0.0
H263 H 0.73361 0.65357 0.74788 0.0
H264 H 0.5955 0.56403 0.75278 0.0
H265 H 0.5788 0.61036 0.76384 0.0
H266 H 0.57969 0.59244 0.68875 0.0
H267 H 0.75506 0.62223 0.84127 0.0
H268 H 0.72168 0.64439 0.88213 0.0
H269 H 0.72314 0.59439 0.87688 0.0
H270 H 0.5886 0.64096 0.93872 0.0
H271 H 0.61007 0.52402 0.91607 0.0
H272 H 0.61714 0.67249 0.81736 0.0
H273 H 0.66222 0.67553 0.86386 0.0
H274 H 0.6203 0.68742 0.89481 0.0
H275 H 0.64395 0.52115 0.79577 0.0
H276 H 0.66372 0.50458 0.86864 0.0
H277 H 0.68925 0.5379 0.83083 0.0
C278 C 0.8502 0.1359 0.12611 0.0
C279 C 0.85735 0.17278 0.11113 0.0
C280 C 0.86562 0.12146 0.18195 0.0
C281 C 0.88791 0.14474 0.22498 0.0
C282 C 0.89307 0.18271 0.21196 0.0
C283 C 0.87808 0.19621 0.15495 0.0
C284 C 0.85948 0.08073 0.1937 0.0
C285 C 0.91567 0.2087 0.25731 0.0
C286 C 0.90351 0.10124 0.37901 0.0
C287 C 0.93877 0.08445 0.37949 0.0
C288 C 0.88797 0.12392 0.33134 0.0
C289 C 0.90744 0.12833 0.28175 0.0
C290 C 0.94395 0.11282 0.2836 0.0
C291 C 0.95946 0.09155 0.33308 0.0
C292 C 0.84973 0.14118 0.33239 0.0
C293 C 0.96528 0.11593 0.2311 0.0
H294 H 0.83342 0.11782 0.09326 0.0
H295 H 0.88402 0.22467 0.14398 0.0
H296 H 0.887 0.06609 0.20144 0.0
H297 H 0.84637 0.07784 0.23487 0.0
H298 H 0.84116 0.0665 0.15572 0.0
H299 H 0.91237 0.23835 0.24399 0.0
H300 H 0.90701 0.20572 0.30223 0.0
H301 H 0.94596 0.20136 0.26174 0.0
H302 H 0.88751 0.09554 0.41496 0.0
H303 H 0.98646 0.07795 0.33309 0.0
H304 H 0.82813 0.12518 0.30164 0.0
H305 H 0.8492 0.17032 0.3165 0.0
H306 H 0.84176 0.14116 0.37816 0.0
H307 H 0.95016 0.1 0.19191 0.0
H308 H 0.99442 0.10486 0.24145 0.0
H309 H 0.96672 0.14541 0.21762 0.0
C310 C 0.32513 0.38319 0.6574 0.0
C311 C 0.34504 0.37415 0.61008 0.0
C312 C 0.34417 0.39489 0.71396 0.0
C313 C 0.38396 0.39806 0.72311 0.0
C314 C 0.40427 0.38476 0.67786 0.0
C315 C 0.38456 0.37286 0.62196 0.0
C316 C 0.32143 0.40779 0.76154 0.0
C317 C 0.44671 0.38696 0.68592 0.0
C318 C 0.42261 0.48629 0.80497 0.0
C319 C 0.43901 0.47347 0.86153 0.0
C320 C 0.40484 0.46191 0.76024 0.0
C321 C 0.40307 0.42334 0.77186 0.0
C322 C 0.41957 0.40988 0.8287 0.0
C323 C 0.43742 0.43516 0.87302 0.0
C324 C 0.388 0.47766 0.70021 0.0
C325 C 0.41791 0.36904 0.84302 0.0
H326 H 0.29461 0.38408 0.64904 0.0
H327 H 0.4002 0.36479 0.58622 0.0
H328 H 0.33505 0.39926 0.80681 0.0
H329 H 0.3198 0.43872 0.76182 0.0
H330 H 0.29227 0.39646 0.75299 0.0
H331 H 0.45845 0.36911 0.65239 0.0
H332 H 0.45533 0.41626 0.68028 0.0
H333 H 0.45932 0.37845 0.73173 0.0
H334 H 0.42373 0.51571 0.79513 0.0
H335 H 0.44985 0.42497 0.9166 0.0
H336 H 0.35732 0.47174 0.69105 0.0
H337 H 0.40098 0.46415 0.66363 0.0
H338 H 0.39213 0.5083 0.69833 0.0
H339 H 0.38864 0.36155 0.84823 0.0
H340 H 0.43681 0.3622 0.88523 0.0
H341 H 0.42571 0.35143 0.80576 0.0
C342 C 0.67606 0.67115 0.42859 0.0
C343 C 0.65596 0.67388 0.47704 0.0
C344 C 0.65948 0.65458 0.37367 0.0
C345 C 0.62203 0.64084 0.36756 0.0
C346 C 0.60085 0.64629 0.41508 0.0
C347 C 0.61816 0.66259 0.46933 0.0
C348 C 0.68288 0.64935 0.32393 0.0
C349 C 0.56074 0.63252 0.41029 0.0
C350 C 0.56772 0.60702 0.21769 0.0
C351 C 0.57096 0.56821 0.22348 0.0
C352 C 0.58495 0.63131 0.26357 0.0
C353 C 0.60654 0.61632 0.31557 0.0
C354 C 0.61096 0.57716 0.32041 0.0
C355 C 0.59274 0.5536 0.27466 0.0
C356 C 0.57897 0.67283 0.25738 0.0
C357 C 0.63424 0.56003 0.37467 0.0
H358 H 0.70531 0.67993 0.43478 0.0
H359 H 0.6026 0.6651 0.50687 0.0
H360 H 0.69081 0.61952 0.32073 0.0
H361 H 0.6665 0.65688 0.27996 0.0
H362 H 0.70908 0.66637 0.33198 0.0
H363 H 0.54676 0.64315 0.44797 0.0
H364 H 0.54393 0.64112 0.36724 0.0
H365 H 0.56053 0.60156 0.4108 0.0
H366 H 0.55081 0.61834 0.1781 0.0
H367 H 0.59572 0.52361 0.27882 0.0
H368 H 0.60637 0.68776 0.26573 0.0
H369 H 0.56206 0.68309 0.29164 0.0
H370 H 0.56407 0.68017 0.21217 0.0
H371 H 0.66277 0.57275 0.38291 0.0
H372 H 0.63725 0.52934 0.3693 0.0
H373 H 0.62086 0.56575 0.41516 0.0
C374 C 0.8873 0.12859 0.8963 0.0
C375 C 0.85285 0.14755 0.89051 0.0
C376 C 0.89904 0.11049 0.84668 0.0
C377 C 0.8757 0.1113 0.78991 0.0
C378 C 0.83945 0.12751 0.78504 0.0
C379 C 0.82855 0.14578 0.8354 0.0
C380 C 0.93791 0.0934 0.85402 0.0
C381 C 0.81327 0.12802 0.72586 0.0
C382 C 0.93743 0.11837 0.67013 0.0
C383 C 0.94139 0.08081 0.65405 0.0
C384 C 0.9131 0.12909 0.71023 0.0
C385 C 0.89238 0.10143 0.7352 0.0
C386 C 0.89325 0.06393 0.71426 0.0
C387 C 0.91788 0.05396 0.67359 0.0
C388 C 0.91256 0.16954 0.73036 0.0
C389 C 0.87084 0.03385 0.7387 0.0
H390 H 0.90626 0.13001 0.93868 0.0
H391 H 0.80157 0.15988 0.8311 0.0
H392 H 0.93681 0.06504 0.83319 0.0
H393 H 0.95661 0.11071 0.83073 0.0
H394 H 0.95073 0.09144 0.90201 0.0
H395 H 0.78361 0.13289 0.73244 0.0
H396 H 0.82174 0.15086 0.69815 0.0
H397 H 0.8148 0.10142 0.70027 0.0
H398 H 0.95527 0.13919 0.65425 0.0
H399 H 0.92089 0.02485 0.66109 0.0
H400 H 0.92696 0.17246 0.77751 0.0
H401 H 0.88319 0.1794 0.72911 0.0
H402 H 0.92698 0.18799 0.70192 0.0
H403 H 0.8861 0.02484 0.78268 0.0
H404 H 0.86689 0.0091 0.70794 0.0
H405 H 0.84279 0.04432 0.74609 0.0
C406 C 0.31208 0.43123 0.35018 0.0
C407 C 0.33566 0.41127 0.39412 0.0
C408 C 0.32595 0.44633 0.30079 0.0
C409 C 0.36447 0.44199 0.29575 0.0
C410 C 0.38886 0.42378 0.34164 0.0
C411 C 0.37412 0.40837 0.38992 0.0
C412 C 0.29905 0.46543 0.25274 0.0
C413 C 0.43033 0.41918 0.33852 0.0
C414 C 0.40274 0.43404 0.14897 0.0
C415 C 0.42143 0.46826 0.14821 0.0
C416 C 0.38115 0.42639 0.19414 0.0
C417 C 0.37901 0.45334 0.24037 0.0
C418 C 0.3951 0.48915 0.2368 0.0
C419 C 0.41589 0.49633 0.19022 0.0
C420 C 0.36331 0.38831 0.19506 0.0
C421 C 0.39365 0.51868 0.28511 0.0
H422 H 0.28251 0.43454 0.35376 0.0
H423 H 0.39257 0.39283 0.42322 0.0
H424 H 0.31056 0.49278 0.24204 0.0
H425 H 0.2955 0.44807 0.21087 0.0
H426 H 0.27089 0.46992 0.26627 0.0
H427 H 0.44608 0.40766 0.3805 0.0
H428 H 0.43403 0.40004 0.30052 0.0
H429 H 0.443 0.44644 0.3301 0.0
H430 H 0.40681 0.41242 0.11619 0.0
H431 H 0.4305 0.52278 0.18996 0.0
H432 H 0.33408 0.39078 0.20498 0.0
H433 H 0.37957 0.37165 0.23117 0.0
H434 H 0.36271 0.37283 0.15166 0.0
H435 H 0.36574 0.51921 0.30043 0.0
H436 H 0.39977 0.54689 0.26934 0.0
H437 H 0.41507 0.51222 0.32455 0.0
C438 C 0.16457 0.8394 0.90376 0.0
C439 C 0.14479 0.84303 0.95266 0.0
C440 C 0.15187 0.85716 0.84919 0.0
C441 C 0.11854 0.87885 0.84343 0.0
C442 C 0.09737 0.88073 0.89155 0.0
C443 C 0.1108 0.86291 0.94554 0.0
C444 C 0.17527 0.85448 0.79903 0.0
C445 C 0.06161 0.90339 0.88737 0.0
C446 C 0.11178 0.96624 0.75101 0.0
C447 C 0.08484 0.95643 0.70104 0.0
C448 C 0.12374 0.94082 0.79628 0.0
C449 C 0.10886 0.90419 0.7916 0.0
C450 C 0.08309 0.89329 0.73993 0.0
C451 C 0.07121 0.91964 0.69521 0.0
C452 C 0.15111 0.95384 0.85058 0.0
C453 C 0.06708 0.85428 0.73301 0.0
H454 H 0.19081 0.82396 0.90901 0.0
H455 H 0.09495 0.86508 0.98277 0.0
H456 H 0.1571 0.84861 0.75538 0.0
H457 H 0.18955 0.88157 0.79521 0.0
H458 H 0.19713 0.83241 0.80695 0.0
H459 H 0.04632 0.89864 0.92587 0.0
H460 H 0.06858 0.93352 0.88662 0.0
H461 H 0.04252 0.89647 0.84504 0.0
H462 H 0.12293 0.99441 0.75593 0.0
H463 H 0.05051 0.91174 0.65677 0.0
H464 H 0.17577 0.93492 0.85801 0.0
H465 H 0.13724 0.95308 0.89132 0.0
H466 H 0.1614 0.9827 0.84592 0.0
H467 H 0.09 0.83339 0.7416 0.0
H468 H 0.05094 0.8489 0.68746 0.0
H469 H 0.04803 0.85005 0.7667 0.0
loop_
_geom_bond_atom_site_label_1
_geom_bond_atom_site_label_2
_geom_bond_distance
_geom_bond_site_symmetry_2
_ccdc_geom_bond_type
H0 C3 0.929 . S
H1 C6 0.929 . S
H2 C8 0.930 1_556 S
C3 H0 0.929 . S
C3 C4 1.398 . S
C3 C5 1.396 . S
C4 C3 1.398 . S
C4 C8 1.407 . S
C5 C3 1.396 . S
C5 C6 1.394 . S
C6 H1 0.929 . S
C6 C5 1.394 . S
C6 C7 1.382 . S
C7 C6 1.382 . S
C7 C8 1.392 . S
C7 N9 1.420 . S
C8 H2 0.930 1_554 S
C8 C4 1.407 . S
C8 C7 1.392 . S
N9 C7 1.420 . S
N9 C10 1.244 . S
C10 N9 1.244 . S
H11 C14 0.929 . S
H12 C17 0.929 . S
H13 C19 0.930 . S
C14 H11 0.929 . S
C14 C15 1.398 . S
C14 C16 1.396 . S
C15 C14 1.398 . S
C15 C19 1.407 . S
C16 C14 1.396 . S
C16 C17 1.394 . S
C17 H12 0.929 . S
C17 C16 1.394 . S
C17 C18 1.382 . S
C18 C17 1.382 . S
C18 C19 1.392 . S
C18 N20 1.420 . S
C19 H13 0.930 . S
C19 C15 1.407 . S
C19 C18 1.392 . S
N20 C18 1.420 . S
N20 C21 1.244 . S
C21 N20 1.244 . S
H22 C25 0.929 . S
H23 C28 0.929 . S
H24 C30 0.930 . S
C25 H22 0.929 . S
C25 C26 1.398 1_554 S
C25 C27 1.396 . S
C26 C25 1.398 1_556 S
C26 C30 1.407 . S
C27 C25 1.396 . S
C27 C28 1.394 . S
C28 H23 0.929 . S
C28 C27 1.394 . S
C28 C29 1.382 1_554 S
C29 C28 1.382 1_556 S
C29 C30 1.392 . S
C29 N31 1.420 . S
C30 H24 0.930 . S
C30 C26 1.407 . S
C30 C29 1.392 . S
N31 C29 1.420 . S
N31 C32 1.244 1_556 S
C32 N31 1.244 1_554 S
H33 C36 0.929 . S
H34 C39 0.929 . S
H35 C41 0.930 . S
C36 H33 0.929 . S
C36 C37 1.398 . S
C36 C38 1.396 . S
C37 C36 1.398 . S
C37 C41 1.407 . S
C38 C36 1.396 . S
C38 C39 1.394 . S
C39 H34 0.929 . S
C39 C38 1.394 . S
C39 C40 1.382 . S
C40 C39 1.382 . S
C40 C41 1.392 . S
C40 N42 1.420 . S
C41 H35 0.930 . S
C41 C37 1.407 . S
C41 C40 1.392 . S
N42 C40 1.420 . S
N42 C43 1.244 . S
C43 N42 1.244 . S
O44 Mg45 1.990 . S
O44 C58 1.253 1_455 S
Mg45 O44 1.990 . S
Mg45 O48 2.180 . S
Mg45 O49 2.117 . S
Mg45 O63 2.030 . S
O46 Mg47 2.072 1_655 S
O46 C58 1.260 . S
Mg47 O46 2.072 1_455 S
Mg47 O48 2.099 . S
Mg47 O50 2.079 1_545 S
Mg47 O51 2.072 1_455 S
Mg47 O53 2.099 1_445 S
Mg47 O64 2.079 1_545 S
O48 Mg45 2.180 . S
O48 Mg47 2.099 . S
O48 C59 1.279 . S
O49 Mg45 2.117 . S
O49 C59 1.250 . S
O50 Mg47 2.079 1_565 S
O50 C60 1.264 . S
O51 Mg47 2.072 1_655 S
O51 C61 1.260 . S
Mg52 O53 2.180 . S
Mg52 O54 2.030 1_655 S
Mg52 O55 1.990 1_565 S
Mg52 O56 2.117 . S
O53 Mg47 2.099 1_665 S
O53 Mg52 2.180 . S
O53 C62 1.279 . S
O54 Mg52 2.030 1_455 S
O54 C60 1.248 . S
O55 Mg52 1.990 1_545 S
O55 C61 1.253 . S
O56 Mg52 2.117 . S
O56 C62 1.250 . S
C57 O63 1.248 1_565 S
C57 O64 1.264 . S
C58 O44 1.253 1_655 S
C58 O46 1.260 . S
C59 O48 1.279 . S
C59 O49 1.250 . S
C60 O50 1.264 . S
C60 O54 1.248 . S
C61 O51 1.260 . S
C61 O55 1.253 . S
C62 O53 1.279 . S
C62 O56 1.250 . S
O63 Mg45 2.030 . S
O63 C57 1.248 1_545 S
O64 Mg47 2.079 1_565 S
O64 C57 1.264 . S
O65 Mg66 1.990 . S
O65 C79 1.253 . S
Mg66 O65 1.990 . S
Mg66 O69 2.180 . S
Mg66 O70 2.117 . S
Mg66 O84 2.030 . S
O67 Mg68 2.072 . S
O67 C79 1.260 . S
Mg68 O67 2.072 . S
Mg68 O69 2.099 . S
Mg68 O71 2.079 1_554 S
Mg68 O72 2.072 1_554 S
Mg68 O74 2.099 . S
Mg68 O85 2.079 . S
O69 Mg66 2.180 . S
O69 Mg68 2.099 . S
O69 C80 1.279 . S
O70 Mg66 2.117 . S
O70 C80 1.250 . S
O71 Mg68 2.079 1_556 S
O71 C81 1.264 . S
O72 Mg68 2.072 1_556 S
O72 C82 1.260 . S
Mg73 O74 2.180 1_556 S
Mg73 O75 2.030 . S
Mg73 O76 1.990 . S
Mg73 O77 2.117 . S
O74 Mg68 2.099 . S
O74 Mg73 2.180 1_554 S
O74 C83 1.279 . S
O75 Mg73 2.030 . S
O75 C81 1.248 . S
O76 Mg73 1.990 . S
O76 C82 1.253 . S
O77 Mg73 2.117 . S
O77 C83 1.250 1_556 S
C78 O84 1.248 . S
C78 O85 1.264 . S
C79 O65 1.253 . S
C79 O67 1.260 . S
C80 O69 1.279 . S
C80 O70 1.250 . S
C81 O71 1.264 . S
C81 O75 1.248 . S
C82 O72 1.260 . S
C82 O76 1.253 . S
C83 O74 1.279 . S
C83 O77 1.250 1_554 S
O84 Mg66 2.030 . S
O84 C78 1.248 . S
O85 Mg68 2.079 . S
O85 C78 1.264 . S
C86 C87 1.391 . S
C86 C88 1.394 . S
C86 H102 0.931 . S
C87 C86 1.391 . S
C87 C91 1.376 . S
C88 C86 1.394 . S
C88 C89 1.369 . S
C88 C92 1.531 . S
C89 C88 1.369 . S
C89 C90 1.410 . S
C89 C97 1.503 . S
C90 C89 1.410 . S
C90 C91 1.392 . S
C90 C93 1.511 . S
C91 C87 1.376 . S
C91 C90 1.392 . S
C91 H103 0.929 . S
C92 C88 1.531 . S
C92 H104 0.960 . S
C92 H105 0.962 . S
C92 H106 0.960 . S
C93 C90 1.511 . S
C93 H107 0.961 . S
C93 H108 0.961 . S
C93 H109 0.961 . S
C94 C95 1.370 . S
C94 C96 1.363 . S
C94 H110 0.931 . S
C95 C94 1.370 . S
C95 C99 1.408 . S
C96 C94 1.363 . S
C96 C97 1.370 . S
C96 C100 1.524 . S
C97 C89 1.503 . S
C97 C96 1.370 . S
C97 C98 1.403 . S
C98 C97 1.403 . S
C98 C99 1.404 . S
C98 C101 1.539 . S
C99 C95 1.408 . S
C99 C98 1.404 . S
C99 H111 0.930 . S
C100 C96 1.524 . S
C100 H112 0.956 . S
C100 H113 0.961 . S
C100 H114 0.961 . S
C101 C98 1.539 . S
C101 H115 0.958 . S
C101 H116 0.961 . S
C101 H117 0.960 . S
H102 C86 0.931 . S
H103 C91 0.929 . S
H104 C92 0.960 . S
H105 C92 0.962 . S
H106 C92 0.960 . S
H107 C93 0.961 . S
H108 C93 0.961 . S
H109 C93 0.961 . S
H110 C94 0.931 . S
H111 C99 0.930 . S
H112 C100 0.956 . S
H113 C100 0.961 . S
H114 C100 0.961 . S
H115 C101 0.958 . S
H116 C101 0.961 . S
H117 C101 0.960 . S
C118 C119 1.391 . S
C118 C120 1.394 . S
C118 H134 0.931 . S
C119 C118 1.391 . S
C119 C123 1.376 . S
C120 C118 1.394 . S
C120 C121 1.369 . S
C120 C124 1.531 . S
C121 C120 1.369 . S
C121 C122 1.410 . S
C121 C129 1.503 . S
C122 C121 1.410 . S
C122 C123 1.392 . S
C122 C125 1.511 1_554 S
C123 C119 1.376 . S
C123 C122 1.392 . S
C123 H135 0.929 . S
C124 C120 1.531 . S
C124 H136 0.960 . S
C124 H137 0.962 . S
C124 H138 0.960 . S
C125 C122 1.511 1_556 S
C125 H139 0.961 . S
C125 H140 0.961 . S
C125 H141 0.961 . S
C126 C127 1.370 . S
C126 C128 1.363 . S
C126 H142 0.931 . S
C127 C126 1.370 . S
C127 C131 1.408 . S
C128 C126 1.363 . S
C128 C129 1.370 . S
C128 C132 1.524 . S
C129 C121 1.503 . S
C129 C128 1.370 . S
C129 C130 1.403 . S
C130 C129 1.403 . S
C130 C131 1.404 . S
C130 C133 1.539 . S
C131 C127 1.408 . S
C131 C130 1.404 . S
C131 H143 0.930 . S
C132 C128 1.524 . S
C132 H144 0.956 . S
C132 H145 0.961 . S
C132 H146 0.961 . S
C133 C130 1.539 . S
C133 H147 0.958 . S
C133 H148 0.961 . S
C133 H149 0.960 . S
H134 C118 0.931 . S
H135 C123 0.929 . S
H136 C124 0.960 . S
H137 C124 0.962 . S
H138 C124 0.960 . S
H139 C125 0.961 . S
H140 C125 0.961 . S
H141 C125 0.961 . S
H142 C126 0.931 . S
H143 C131 0.930 . S
H144 C132 0.956 . S
H145 C132 0.961 . S
H146 C132 0.961 . S
H147 C133 0.958 . S
H148 C133 0.961 . S
H149 C133 0.960 . S
C150 C151 1.391 . S
C150 C152 1.394 . S
C150 H166 0.931 . S
C151 C150 1.391 . S
C151 C155 1.376 . S
C152 C150 1.394 . S
C152 C153 1.369 . S
C152 C156 1.531 . S
C153 C152 1.369 . S
C153 C154 1.410 . S
C153 C161 1.503 . S
C154 C153 1.410 . S
C154 C155 1.392 . S
C154 C157 1.511 . S
C155 C151 1.376 . S
C155 C154 1.392 . S
C155 H167 0.929 . S
C156 C152 1.531 . S
C156 H168 0.960 . S
C156 H169 0.962 . S
C156 H170 0.960 . S
C157 C154 1.511 . S
C157 H171 0.961 . S
C157 H172 0.961 . S
C157 H173 0.961 . S
C158 C159 1.370 . S
C158 C160 1.363 . S
C158 H174 0.931 . S
C159 C158 1.370 . S
C159 C163 1.408 . S
C160 C158 1.363 . S
C160 C161 1.370 . S
C160 C164 1.524 . S
C161 C153 1.503 . S
C161 C160 1.370 . S
C161 C162 1.403 . S
C162 C161 1.403 . S
C162 C163 1.404 . S
C162 C165 1.539 . S
C163 C159 1.408 . S
C163 C162 1.404 . S
C163 H175 0.930 . S
C164 C160 1.524 . S
C164 H176 0.956 . S
C164 H177 0.961 . S
C164 H178 0.961 . S
C165 C162 1.539 . S
C165 H179 0.958 . S
C165 H180 0.961 . S
C165 H181 0.960 . S
H166 C150 0.931 . S
H167 C155 0.929 . S
H168 C156 0.960 . S
H169 C156 0.962 . S
H170 C156 0.960 . S
H171 C157 0.961 . S
H172 C157 0.961 . S
H173 C157 0.961 . S
H174 C158 0.931 . S
H175 C163 0.930 . S
H176 C164 0.956 . S
H177 C164 0.961 . S
H178 C164 0.961 . S
H179 C165 0.958 . S
H180 C165 0.961 . S
H181 C165 0.960 . S
C182 C183 1.391 . S
C182 C184 1.394 . S
C182 H198 0.931 . S
C183 C182 1.391 . S
C183 C187 1.376 . S
C184 C182 1.394 . S
C184 C185 1.369 . S
C184 C188 1.531 . S
C185 C184 1.369 . S
C185 C186 1.410 . S
C185 C193 1.503 . S
C186 C185 1.410 . S
C186 C187 1.392 . S
C186 C189 1.511 . S
C187 C183 1.376 . S
C187 C186 1.392 . S
C187 H199 0.929 . S
C188 C184 1.531 . S
C188 H200 0.960 . S
C188 H201 0.962 1_554 S
C188 H202 0.960 . S
C189 C186 1.511 . S
C189 H203 0.961 . S
C189 H204 0.961 . S
C189 H205 0.961 . S
C190 C191 1.370 1_556 S
C190 C192 1.363 . S
C190 H206 0.931 . S
C191 C190 1.370 1_554 S
C191 C195 1.408 . S
C192 C190 1.363 . S
C192 C193 1.370 1_556 S
C192 C196 1.524 . S
C193 C185 1.503 . S
C193 C192 1.370 1_554 S
C193 C194 1.403 . S
C194 C193 1.403 . S
C194 C195 1.404 . S
C194 C197 1.539 . S
C195 C191 1.408 . S
C195 C194 1.404 . S
C195 H207 0.930 . S
C196 C192 1.524 . S
C196 H208 0.956 . S
C196 H209 0.961 . S
C196 H210 0.961 . S
C197 C194 1.539 . S
C197 H211 0.958 . S
C197 H212 0.961 . S
C197 H213 0.960 . S
H198 C182 0.931 . S
H199 C187 0.929 . S
H200 C188 0.960 . S
H201 C188 0.962 1_556 S
H202 C188 0.960 . S
H203 C189 0.961 . S
H204 C189 0.961 . S
H205 C189 0.961 . S
H206 C190 0.931 . S
H207 C195 0.930 . S
H208 C196 0.956 . S
H209 C196 0.961 . S
H210 C196 0.961 . S
H211 C197 0.958 . S
H212 C197 0.961 . S
H213 C197 0.960 . S
C214 C215 1.391 . S
C214 C216 1.394 . S
C214 H230 0.931 . S
C215 C214 1.391 . S
C215 C219 1.376 . S
C216 C214 1.394 . S
C216 C217 1.369 . S
C216 C220 1.531 . S
C217 C216 1.369 . S
C217 C218 1.410 . S
C217 C225 1.503 . S
C218 C217 1.410 . S
C218 C219 1.392 . S
C218 C221 1.511 . S
C219 C215 1.376 . S
C219 C218 1.392 . S
C219 H231 0.929 . S
C220 C216 1.531 . S
C220 H232 0.960 . S
C220 H233 0.962 . S
C220 H234 0.960 . S
C221 C218 1.511 . S
C221 H235 0.961 . S
C221 H236 0.961 . S
C221 H237 0.961 . S
C222 C223 1.370 . S
C222 C224 1.363 . S
C222 H238 0.931 . S
C223 C222 1.370 . S
C223 C227 1.408 . S
C224 C222 1.363 . S
C224 C225 1.370 . S
C224 C228 1.524 . S
C225 C217 1.503 . S
C225 C224 1.370 . S
C225 C226 1.403 . S
C226 C225 1.403 . S
C226 C227 1.404 . S
C226 C229 1.539 . S
C227 C223 1.408 . S
C227 C226 1.404 . S
C227 H239 0.930 . S
C228 C224 1.524 . S
C228 H240 0.956 . S
C228 H241 0.961 . S
C228 H242 0.961 . S
C229 C226 1.539 . S
C229 H243 0.958 . S
C229 H244 0.961 . S
C229 H245 0.960 . S
H230 C214 0.931 . S
H231 C219 0.929 . S
H232 C220 0.960 . S
H233 C220 0.962 . S
H234 C220 0.960 . S
H235 C221 0.961 . S
H236 C221 0.961 . S
H237 C221 0.961 . S
H238 C222 0.931 . S
H239 C227 0.930 . S
H240 C228 0.956 . S
H241 C228 0.961 . S
H242 C228 0.961 . S
H243 C229 0.958 . S
H244 C229 0.961 . S
H245 C229 0.960 . S
C246 C247 1.391 . S
C246 C248 1.394 . S
C246 H262 0.931 . S
C247 C246 1.391 . S
C247 C251 1.376 . S
C248 C246 1.394 . S
C248 C249 1.369 . S
C248 C252 1.531 . S
C249 C248 1.369 . S
C249 C250 1.410 . S
C249 C257 1.503 . S
C250 C249 1.410 . S
C250 C251 1.392 . S
C250 C253 1.511 . S
C251 C247 1.376 . S
C251 C250 1.392 . S
C251 H263 0.929 . S
C252 C248 1.531 . S
C252 H264 0.960 . S
C252 H265 0.962 . S
C252 H266 0.960 . S
C253 C250 1.511 . S
C253 H267 0.961 . S
C253 H268 0.961 . S
C253 H269 0.961 . S
C254 C255 1.370 . S
C254 C256 1.363 . S
C254 H270 0.931 . S
C255 C254 1.370 . S
C255 C259 1.408 . S
C256 C254 1.363 . S
C256 C257 1.370 . S
C256 C260 1.524 . S
C257 C249 1.503 . S
C257 C256 1.370 . S
C257 C258 1.403 . S
C258 C257 1.403 . S
C258 C259 1.404 . S
C258 C261 1.539 . S
C259 C255 1.408 . S
C259 C258 1.404 . S
C259 H271 0.930 . S
C260 C256 1.524 . S
C260 H272 0.956 . S
C260 H273 0.961 . S
C260 H274 0.961 . S
C261 C258 1.539 . S
C261 H275 0.958 . S
C261 H276 0.961 . S
C261 H277 0.960 . S
H262 C246 0.931 . S
H263 C251 0.929 . S
H264 C252 0.960 . S
H265 C252 0.962 . S
H266 C252 0.960 . S
H267 C253 0.961 . S
H268 C253 0.961 . S
H269 C253 0.961 . S
H270 C254 0.931 . S
H271 C259 0.930 . S
H272 C260 0.956 . S
H273 C260 0.961 . S
H274 C260 0.961 . S
H275 C261 0.958 . S
H276 C261 0.961 . S
H277 C261 0.960 . S
C278 C279 1.391 . S
C278 C280 1.394 . S
C278 H294 0.931 . S
C279 C278 1.391 . S
C279 C283 1.376 . S
C280 C278 1.394 . S
C280 C281 1.369 . S
C280 C284 1.531 . S
C281 C280 1.369 . S
C281 C282 1.410 . S
C281 C289 1.503 . S
C282 C281 1.410 . S
C282 C283 1.392 . S
C282 C285 1.511 . S
C283 C279 1.376 . S
C283 C282 1.392 . S
C283 H295 0.929 . S
C284 C280 1.531 . S
C284 H296 0.960 . S
C284 H297 0.962 . S
C284 H298 0.960 . S
C285 C282 1.511 . S
C285 H299 0.961 . S
C285 H300 0.961 . S
C285 H301 0.961 . S
C286 C287 1.370 . S
C286 C288 1.363 . S
C286 H302 0.931 . S
C287 C286 1.370 . S
C287 C291 1.408 . S
C288 C286 1.363 . S
C288 C289 1.370 . S
C288 C292 1.524 . S
C289 C281 1.503 . S
C289 C288 1.370 . S
C289 C290 1.403 . S
C290 C289 1.403 . S
C290 C291 1.404 . S
C290 C293 1.539 . S
C291 C287 1.408 . S
C291 C290 1.404 . S
C291 H303 0.930 . S
C292 C288 1.524 . S
C292 H304 0.956 . S
C292 H305 0.961 . S
C292 H306 0.961 . S
C293 C290 1.539 . S
C293 H307 0.958 . S
C293 H308 0.961 1_655 S
C293 H309 0.960 . S
H294 C278 0.931 . S
H295 C283 0.929 . S
H296 C284 0.960 . S
H297 C284 0.962 . S
H298 C284 0.960 . S
H299 C285 0.961 . S
H300 C285 0.961 . S
H301 C285 0.961 . S
H302 C286 0.931 . S
H303 C291 0.930 . S
H304 C292 0.956 . S
H305 C292 0.961 . S
H306 C292 0.961 . S
H307 C293 0.958 . S
H308 C293 0.961 1_455 S
H309 C293 0.960 . S
C310 C311 1.391 . S
C310 C312 1.394 . S
C310 H326 0.931 . S
C311 C310 1.391 . S
C311 C315 1.376 . S
C312 C310 1.394 . S
C312 C313 1.369 . S
C312 C316 1.531 . S
C313 C312 1.369 . S
C313 C314 1.410 . S
C313 C321 1.503 . S
C314 C313 1.410 . S
C314 C315 1.392 . S
C314 C317 1.511 . S
C315 C311 1.376 . S
C315 C314 1.392 . S
C315 H327 0.929 . S
C316 C312 1.531 . S
C316 H328 0.960 . S
C316 H329 0.962 . S
C316 H330 0.960 . S
C317 C314 1.511 . S
C317 H331 0.961 . S
C317 H332 0.961 . S
C317 H333 0.961 . S
C318 C319 1.370 . S
C318 C320 1.363 . S
C318 H334 0.931 . S
C319 C318 1.370 . S
C319 C323 1.408 . S
C320 C318 1.363 . S
C320 C321 1.370 . S
C320 C324 1.524 . S
C321 C313 1.503 . S
C321 C320 1.370 . S
C321 C322 1.403 . S
C322 C321 1.403 . S
C322 C323 1.404 . S
C322 C325 1.539 . S
C323 C319 1.408 . S
C323 C322 1.404 . S
C323 H335 0.930 . S
C324 C320 1.524 . S
C324 H336 0.956 . S
C324 H337 0.961 . S
C324 H338 0.961 . S
C325 C322 1.539 . S
C325 H339 0.958 . S
C325 H340 0.961 . S
C325 H341 0.960 . S
H326 C310 0.931 . S
H327 C315 0.929 . S
H328 C316 0.960 . S
H329 C316 0.962 . S
H330 C316 0.960 . S
H331 C317 0.961 . S
H332 C317 0.961 . S
H333 C317 0.961 . S
H334 C318 0.931 . S
H335 C323 0.930 . S
H336 C324 0.956 . S
H337 C324 0.961 . S
H338 C324 0.961 . S
H339 C325 0.958 . S
H340 C325 0.961 . S
H341 C325 0.960 . S
C342 C343 1.391 . S
C342 C344 1.394 . S
C342 H358 0.931 . S
C343 C342 1.391 . S
C343 C347 1.376 . S
C344 C342 1.394 . S
C344 C345 1.369 . S
C344 C348 1.531 . S
C345 C344 1.369 . S
C345 C346 1.410 . S
C345 C353 1.503 . S
C346 C345 1.410 . S
C346 C347 1.392 . S
C346 C349 1.511 . S
C347 C343 1.376 . S
C347 C346 1.392 . S
C347 H359 0.929 . S
C348 C344 1.531 . S
C348 H360 0.960 . S
C348 H361 0.962 . S
C348 H362 0.960 . S
C349 C346 1.511 . S
C349 H363 0.961 . S
C349 H364 0.961 . S
C349 H365 0.961 . S
C350 C351 1.370 . S
C350 C352 1.363 . S
C350 H366 0.931 . S
C351 C350 1.370 . S
C351 C355 1.408 . S
C352 C350 1.363 . S
C352 C353 1.370 . S
C352 C356 1.524 . S
C353 C345 1.503 . S
C353 C352 1.370 . S
C353 C354 1.403 . S
C354 C353 1.403 . S
C354 C355 1.404 . S
C354 C357 1.539 . S
C355 C351 1.408 . S
C355 C354 1.404 . S
C355 H367 0.930 . S
C356 C352 1.524 . S
C356 H368 0.956 . S
C356 H369 0.961 . S
C356 H370 0.961 . S
C357 C354 1.539 . S
C357 H371 0.958 . S
C357 H372 0.961 . S
C357 H373 0.960 . S
H358 C342 0.931 . S
H359 C347 0.929 . S
H360 C348 0.960 . S
H361 C348 0.962 . S
H362 C348 0.960 . S
H363 C349 0.961 . S
H364 C349 0.961 . S
H365 C349 0.961 . S
H366 C350 0.931 . S
H367 C355 0.930 . S
H368 C356 0.956 . S
H369 C356 0.961 . S
H370 C356 0.961 . S
H371 C357 0.958 . S
H372 C357 0.961 . S
H373 C357 0.960 . S
C374 C375 1.391 . S
C374 C376 1.394 . S
C374 H390 0.931 . S
C375 C374 1.391 . S
C375 C379 1.376 . S
C376 C374 1.394 . S
C376 C377 1.369 . S
C376 C380 1.531 . S
C377 C376 1.369 . S
C377 C378 1.410 . S
C377 C385 1.503 . S
C378 C377 1.410 . S
C378 C379 1.392 . S
C378 C381 1.511 . S
C379 C375 1.376 . S
C379 C378 1.392 . S
C379 H391 0.929 . S
C380 C376 1.531 . S
C380 H392 0.960 . S
C380 H393 0.962 . S
C380 H394 0.960 . S
C381 C378 1.511 . S
C381 H395 0.961 . S
C381 H396 0.961 . S
C381 H397 0.961 . S
C382 C383 1.370 . S
C382 C384 1.363 . S
C382 H398 0.931 . S
C383 C382 1.370 . S
C383 C387 1.408 . S
C384 C382 1.363 . S
C384 C385 1.370 . S
C384 C388 1.524 . S
C385 C377 1.503 . S
C385 C384 1.370 . S
C385 C386 1.403 . S
C386 C385 1.403 . S
C386 C387 1.404 . S
C386 C389 1.539 . S
C387 C383 1.408 . S
C387 C386 1.404 . S
C387 H399 0.930 . S
C388 C384 1.524 . S
C388 H400 0.956 . S
C388 H401 0.961 . S
C388 H402 0.961 . S
C389 C386 1.539 . S
C389 H403 0.958 . S
C389 H404 0.961 . S
C389 H405 0.960 . S
H390 C374 0.931 . S
H391 C379 0.929 . S
H392 C380 0.960 . S
H393 C380 0.962 . S
H394 C380 0.960 . S
H395 C381 0.961 . S
H396 C381 0.961 . S
H397 C381 0.961 . S
H398 C382 0.931 . S
H399 C387 0.930 . S
H400 C388 0.956 . S
H401 C388 0.961 . S
H402 C388 0.961 . S
H403 C389 0.958 . S
H404 C389 0.961 . S
H405 C389 0.960 . S
C406 C407 1.391 . S
C406 C408 1.394 . S
C406 H422 0.931 . S
C407 C406 1.391 . S
C407 C411 1.376 . S
C408 C406 1.394 . S
C408 C409 1.369 . S
C408 C412 1.531 . S
C409 C408 1.369 . S
C409 C410 1.410 . S
C409 C417 1.503 . S
C410 C409 1.410 . S
C410 C411 1.392 . S
C410 C413 1.511 . S
C411 C407 1.376 . S
C411 C410 1.392 . S
C411 H423 0.929 . S
C412 C408 1.531 . S
C412 H424 0.960 . S
C412 H425 0.962 . S
C412 H426 0.960 . S
C413 C410 1.511 . S
C413 H427 0.961 . S
C413 H428 0.961 . S
C413 H429 0.961 . S
C414 C415 1.370 . S
C414 C416 1.363 . S
C414 H430 0.931 . S
C415 C414 1.370 . S
C415 C419 1.408 . S
C416 C414 1.363 . S
C416 C417 1.370 . S
C416 C420 1.524 . S
C417 C409 1.503 . S
C417 C416 1.370 . S
C417 C418 1.403 . S
C418 C417 1.403 . S
C418 C419 1.404 . S
C418 C421 1.539 . S
C419 C415 1.408 . S
C419 C418 1.404 . S
C419 H431 0.930 . S
C420 C416 1.524 . S
C420 H432 0.956 . S
C420 H433 0.961 . S
C420 H434 0.961 . S
C421 C418 1.539 . S
C421 H435 0.958 . S
C421 H436 0.961 . S
C421 H437 0.960 . S
H422 C406 0.931 . S
H423 C411 0.929 . S
H424 C412 0.960 . S
H425 C412 0.962 . S
H426 C412 0.960 . S
H427 C413 0.961 . S
H428 C413 0.961 . S
H429 C413 0.961 . S
H430 C414 0.931 . S
H431 C419 0.930 . S
H432 C420 0.956 . S
H433 C420 0.961 . S
H434 C420 0.961 . S
H435 C421 0.958 . S
H436 C421 0.961 . S
H437 C421 0.960 . S
C438 C439 1.391 . S
C438 C440 1.394 . S
C438 H454 0.931 . S
C439 C438 1.391 . S
C439 C443 1.376 . S
C440 C438 1.394 . S
C440 C441 1.369 . S
C440 C444 1.531 . S
C441 C440 1.369 . S
C441 C442 1.410 . S
C441 C449 1.503 . S
C442 C441 1.410 . S
C442 C443 1.392 . S
C442 C445 1.511 . S
C443 C439 1.376 . S
C443 C442 1.392 . S
C443 H455 0.929 . S
C444 C440 1.531 . S
C444 H456 0.960 . S
C444 H457 0.962 . S
C444 H458 0.960 . S
C445 C442 1.511 . S
C445 H459 0.961 . S
C445 H460 0.961 . S
C445 H461 0.961 . S
C446 C447 1.370 . S
C446 C448 1.363 . S
C446 H462 0.931 1_565 S
C447 C446 1.370 . S
C447 C451 1.408 . S
C448 C446 1.363 . S
C448 C449 1.370 . S
C448 C452 1.524 . S
C449 C441 1.503 . S
C449 C448 1.370 . S
C449 C450 1.403 . S
C450 C449 1.403 . S
C450 C451 1.404 . S
C450 C453 1.539 . S
C451 C447 1.408 . S
C451 C450 1.404 . S
C451 H463 0.930 . S
C452 C448 1.524 . S
C452 H464 0.956 . S
C452 H465 0.961 . S
C452 H466 0.961 1_565 S
C453 C450 1.539 . S
C453 H467 0.958 . S
C453 H468 0.961 . S
C453 H469 0.960 . S
H454 C438 0.931 . S
H455 C443 0.929 . S
H456 C444 0.960 . S
H457 C444 0.962 . S
H458 C444 0.960 . S
H459 C445 0.961 . S
H460 C445 0.961 . S
H461 C445 0.961 . S
H462 C446 0.931 1_545 S
H463 C451 0.930 . S
H464 C452 0.956 . S
H465 C452 0.961 . S
H466 C452 0.961 1_545 S
H467 C453 0.958 . S
H468 C453 0.961 . S
H469 C453 0.960 . S
C95 C59 1.264 . S
C87 C43 1.446 . S
C119 C10 1.476 . S
C127 C83 1.291 . S
C151 C21 1.579 . S
C159 C62 1.383 . S
C183 C32 1.577 . S
C191 C80 1.361 . S
C223 C60 1.489 . S
C215 C5 1.480 . S
C255 C82 1.555 . S
C247 C15 1.602 . S
C279 C27 1.575 . S
C287 C61 1.554 . S
C311 C38 1.512 . S
C319 C81 1.474 . S
C351 C79 1.463 . S
C343 C16 1.517 . S
C383 C58 1.485 . S
C375 C26 1.527 . S
C415 C78 1.412 . S
C407 C37 1.437 . S
C439 C4 1.444 1_556 S
C447 C57 1.412 . S
