# Generated by pormake.
# Topology ssa, (4,4)-cn, num edge types: 1
# Building blocks:
#     Node 0, Type 0, BuildingBlock: KOZSID_clean_sbu_0, # of connection points: 4
#     Node 1, Type 0, BuildingBlock: KOZSID_clean_sbu_0, # of connection points: 4
#     Node 2, Type 0, BuildingBlock: KOZSID_clean_sbu_0, # of connection points: 4
#     Node 3, Type 0, BuildingBlock: KOZSID_clean_sbu_0, # of connection points: 4
#     Node 4, Type 0, BuildingBlock: KOZSID_clean_sbu_0, # of connection points: 4
#     Node 5, Type 0, BuildingBlock: KOZSID_clean_sbu_0, # of connection points: 4
#     Node 6, Type 1, BuildingBlock: MUDLON_clean_linker_0, # of connection points: 4
#     Node 7, Type 1, BuildingBlock: MUDLON_clean_linker_0, # of connection points: 4
#     Node 8, Type 1, BuildingBlock: MUDLON_clean_linker_0, # of connection points: 4
#     Node 9, Type 1, BuildingBlock: MUDLON_clean_linker_0, # of connection points: 4
#     Node 10, Type 1, BuildingBlock: MUDLON_clean_linker_0, # of connection points: 4
#     Node 11, Type 1, BuildingBlock: MUDLON_clean_linker_0, # of connection points: 4
#     Edge 12, Type (0, 1), BuildingBlock: KIFKEQ_clean_linker_1, # of connection points: 2
#     Edge 13, Type (0, 1), BuildingBlock: KIFKEQ_clean_linker_1, # of connection points: 2
#     Edge 14, Type (0, 1), BuildingBlock: KIFKEQ_clean_linker_1, # of connection points: 2
#     Edge 15, Type (0, 1), BuildingBlock: KIFKEQ_clean_linker_1, # of connection points: 2
#     Edge 16, Type (0, 1), BuildingBlock: KIFKEQ_clean_linker_1, # of connection points: 2
#     Edge 17, Type (0, 1), BuildingBlock: KIFKEQ_clean_linker_1, # of connection points: 2
#     Edge 18, Type (0, 1), BuildingBlock: KIFKEQ_clean_linker_1, # of connection points: 2
#     Edge 19, Type (0, 1), BuildingBlock: KIFKEQ_clean_linker_1, # of connection points: 2
#     Edge 20, Type (0, 1), BuildingBlock: KIFKEQ_clean_linker_1, # of connection points: 2
#     Edge 21, Type (0, 1), BuildingBlock: KIFKEQ_clean_linker_1, # of connection points: 2
#     Edge 22, Type (0, 1), BuildingBlock: KIFKEQ_clean_linker_1, # of connection points: 2
#     Edge 23, Type (0, 1), BuildingBlock: KIFKEQ_clean_linker_1, # of connection points: 2
#     Edge 24, Type (0, 1), BuildingBlock: KIFKEQ_clean_linker_1, # of connection points: 2
#     Edge 25, Type (0, 1), BuildingBlock: KIFKEQ_clean_linker_1, # of connection points: 2
#     Edge 26, Type (0, 1), BuildingBlock: KIFKEQ_clean_linker_1, # of connection points: 2
#     Edge 27, Type (0, 1), BuildingBlock: KIFKEQ_clean_linker_1, # of connection points: 2
#     Edge 28, Type (0, 1), BuildingBlock: KIFKEQ_clean_linker_1, # of connection points: 2
#     Edge 29, Type (0, 1), BuildingBlock: KIFKEQ_clean_linker_1, # of connection points: 2
#     Edge 30, Type (0, 1), BuildingBlock: KIFKEQ_clean_linker_1, # of connection points: 2
#     Edge 31, Type (0, 1), BuildingBlock: KIFKEQ_clean_linker_1, # of connection points: 2
#     Edge 32, Type (0, 1), BuildingBlock: KIFKEQ_clean_linker_1, # of connection points: 2
#     Edge 33, Type (0, 1), BuildingBlock: KIFKEQ_clean_linker_1, # of connection points: 2
#     Edge 34, Type (0, 1), BuildingBlock: KIFKEQ_clean_linker_1, # of connection points: 2
#     Edge 35, Type (0, 1), BuildingBlock: KIFKEQ_clean_linker_1, # of connection points: 2
# Relax obj value: 0.006
# Max RMSD: 0.044
# Mean RMSD: 0.025
data_MOF--net-ssa--node1-KOZSID_clean_sbu_0--node2-MUDLON_clean_linker_0--edge1-KIFKEQ_clean_linker_1
_symmetry_space_group_name_H-M    P1
_symmetry_Int_Tables_number       1
_symmetry_cell_setting            triclinic
loop_
_symmetry_equiv_pos_as_xyz
'x, y, z'
_cell_length_a     75.583345
_cell_length_b     77.066977
_cell_length_c     42.953137
_cell_angle_alpha  87.672825
_cell_angle_beta   89.897544
_cell_angle_gamma 121.84855
loop_
_atom_site_label
_atom_site_type_symbol
_atom_site_fract_x
_atom_site_fract_y
_atom_site_fract_z
_atom_type_partial_charge
C0 C 0.9817 0.50784 0.03384 0.0
C1 C 0.96457 0.50446 0.05125 0.0
C2 C 0.96358 0.49361 0.07777 0.0
C3 C 0.98017 0.49114 0.0752 0.0
N4 N 0.99175 0.49974 0.04863 0.0
Co5 Co 0.01783 0.50053 0.03631 0.0
N6 N 0.01609 0.48424 0.07511 0.0
C7 C 1.0007 0.476 0.09727 0.0
C8 C 0.00342 0.46512 0.12076 0.0
C9 C 0.02169 0.46652 0.11325 0.0
C10 C 0.02916 0.47837 0.0856 0.0
N11 N 0.04433 0.50194 0.02451 0.0
C12 C 0.05516 0.49509 0.04035 0.0
C13 C 0.07354 0.50043 0.02455 0.0
C14 C 0.0743 0.51088 0.99771 0.0
C15 C 0.05654 0.5115 0.99874 0.0
N16 N 0.01923 0.51627 0.99702 0.0
C17 C 0.03355 0.5228 0.97341 0.0
C18 C 0.02994 0.53223 0.94873 0.0
C19 C 0.01221 0.53167 0.95693 0.0
C20 C 0.00609 0.52204 0.98645 0.0
N21 N 0.03456 0.52637 0.05815 0.0
C22 C 0.05955 0.56253 0.08987 0.0
C23 C 0.06396 0.56118 0.0588 0.0
C24 C 0.05132 0.54317 0.04348 0.0
C25 C 0.04215 0.5456 0.10462 0.0
C26 C 0.03 0.52779 0.08849 0.0
N27 N 0.0011 0.47463 0.01439 0.0
C28 C 0.99709 0.45375 0.97121 0.0
C29 C 0.97748 0.43822 0.98257 0.0
C30 C 0.96982 0.44118 0.01014 0.0
C31 C 0.98187 0.45929 0.0257 0.0
C32 C 0.00847 0.47167 0.98721 0.0
H33 H 0.97526 0.46048 0.0468 0.0
H34 H 0.02313 0.48291 0.97692 0.0
H35 H 0.0555 0.54319 0.01981 0.0
H36 H 0.01712 0.51531 0.10114 0.0
C37 C 0.9847 0.47996 0.09654 0.0
C38 C 0.98762 0.51863 0.0033 0.0
C39 C 0.04888 0.48383 0.07053 0.0
C40 C 0.05065 0.52055 0.97558 0.0
H41 H 0.95381 0.50924 0.04533 0.0
H42 H 0.95201 0.48801 0.09655 0.0
H43 H 0.99351 0.45741 0.14121 0.0
H44 H 0.02881 0.45977 0.12678 0.0
H45 H 0.08531 0.49725 0.03171 0.0
H46 H 0.0864 0.51734 0.97965 0.0
H47 H 0.03914 0.53879 0.92735 0.0
H48 H 0.00465 0.53764 0.94268 0.0
H49 H 0.07708 0.57403 0.04622 0.0
H50 H 0.03818 0.54588 0.12877 0.0
H51 H 0.00355 0.45226 0.94966 0.0
H52 H 0.95471 0.42947 0.01991 0.0
C53 C 0.5615 0.02636 0.55945 0.0
C54 C 0.56445 0.02181 0.5899 0.0
C55 C 0.54616 0.0048 0.60009 0.0
C56 C 0.53316 0.99996 0.57542 0.0
N57 N 0.5421 0.01265 0.54987 0.0
Co58 Co 0.52836 0.01192 0.5096 0.0
N59 N 0.5013 0.98714 0.52487 0.0
C60 C 0.49755 0.97657 0.5525 0.0
C61 C 0.47786 0.95956 0.55574 0.0
C62 C 0.46853 0.95903 0.52835 0.0
C63 C 0.48313 0.97586 0.50998 0.0
N64 N 0.51434 0.01186 0.46995 0.0
C65 C 0.49465 0.99875 0.46085 0.0
C66 C 0.49112 0.00448 0.43157 0.0
C67 C 0.50933 0.0217 0.42166 0.0
C68 C 0.52283 0.02554 0.44539 0.0
N69 N 0.55568 0.03607 0.49373 0.0
C70 C 0.55994 0.04544 0.465 0.0
C71 C 0.5801 0.0615 0.46078 0.0
C72 C 0.58929 0.06253 0.48853 0.0
C73 C 0.5741 0.04698 0.50815 0.0
N74 N 0.53638 0.99343 0.49213 0.0
C75 C 0.54577 0.96596 0.4667 0.0
C76 C 0.54524 0.98081 0.44776 0.0
C77 C 0.5408 0.99443 0.46088 0.0
C78 C 0.5419 0.96527 0.49862 0.0
C79 C 0.5371 0.97892 0.51073 0.0
N80 N 0.52032 0.03037 0.52705 0.0
C81 C 0.52132 0.06233 0.52478 0.0
C82 C 0.51 0.05708 0.55294 0.0
C83 C 0.50378 0.03817 0.56777 0.0
C84 C 0.50912 0.02521 0.55461 0.0
C85 C 0.52615 0.04881 0.51225 0.0
H86 H 0.50418 0.01118 0.56736 0.0
H87 H 0.53468 0.05366 0.49061 0.0
H88 H 0.54094 0.00556 0.44519 0.0
H89 H 0.53384 0.97727 0.53516 0.0
C90 C 0.51268 0.98331 0.57521 0.0
C91 C 0.57758 0.04391 0.54073 0.0
C92 C 0.47914 0.98022 0.47836 0.0
C93 C 0.5441 0.04036 0.44387 0.0
H94 H 0.57837 0.03 0.60337 0.0
H95 H 0.54274 0.99692 0.62279 0.0
H96 H 0.47113 0.94878 0.57561 0.0
H97 H 0.45281 0.94749 0.52242 0.0
H98 H 0.477 0.9967 0.41842 0.0
H99 H 0.51255 0.03 0.39935 0.0
H100 H 0.58707 0.07174 0.44038 0.0
H101 H 0.6052 0.07382 0.49398 0.0
H102 H 0.54849 0.98209 0.42291 0.0
H103 H 0.54212 0.95394 0.51413 0.0
H104 H 0.52627 0.07673 0.51228 0.0
H105 H 0.49516 0.03353 0.58982 0.0
C106 C 0.56071 0.53114 0.95877 0.0
C107 C 0.56724 0.54348 0.93149 0.0
C108 C 0.55398 0.55049 0.92751 0.0
C109 C 0.54017 0.54211 0.95247 0.0
N110 N 0.54385 0.53017 0.9716 0.0
Co111 Co 0.52838 0.51627 0.01093 0.0
N112 N 0.50385 0.51713 0.99732 0.0
C113 C 0.50478 0.53137 0.97704 0.0
C114 C 0.48683 0.53169 0.97724 0.0
C115 C 0.47385 0.51666 0.99898 0.0
C116 C 0.48424 0.50723 0.00987 0.0
N117 N 0.51314 0.50284 0.05064 0.0
C118 C 0.4928 0.49477 0.05825 0.0
C119 C 0.48994 0.49277 0.09053 0.0
C120 C 0.50876 0.49818 0.10306 0.0
C121 C 0.5223 0.50413 0.07799 0.0
N122 N 0.55292 0.5155 0.02457 0.0
C123 C 0.55735 0.51329 0.05424 0.0
C124 C 0.57514 0.51271 0.05649 0.0
C125 C 0.58242 0.51495 0.02635 0.0
C126 C 0.56876 0.5171 0.00733 0.0
N127 N 0.53975 0.54297 0.02916 0.0
C128 C 0.55557 0.58097 0.05553 0.0
C129 C 0.56864 0.57684 0.03839 0.0
C130 C 0.56043 0.55779 0.02536 0.0
C131 C 0.53448 0.56563 0.05917 0.0
C132 C 0.52693 0.54689 0.04587 0.0
N133 N 0.51714 0.48978 0.99271 0.0
C134 C 0.51072 0.45566 0.99541 0.0
C135 C 0.50541 0.45347 0.96399 0.0
C136 C 0.50525 0.46946 0.94762 0.0
C137 C 0.51086 0.48736 0.96254 0.0
C138 C 0.51671 0.47403 0.00929 0.0
H139 H 0.5107 0.49951 0.94941 0.0
H140 H 0.52155 0.47574 0.03317 0.0
H141 H 0.57082 0.55504 0.01221 0.0
H142 H 0.51064 0.53555 0.04938 0.0
C143 C 0.52221 0.54295 0.9569 0.0
C144 C 0.57214 0.52252 0.97363 0.0
C145 C 0.47674 0.49121 0.03537 0.0
C146 C 0.54305 0.50918 0.07859 0.0
H147 H 0.58048 0.54744 0.91646 0.0
H148 H 0.5542 0.56022 0.90842 0.0
H149 H 0.48367 0.54188 0.96373 0.0
H150 H 0.45903 0.514 0.00703 0.0
H151 H 0.47593 0.48844 0.10385 0.0
H152 H 0.51215 0.4979 0.12748 0.0
H153 H 0.58172 0.51033 0.07739 0.0
H154 H 0.59633 0.51523 0.01939 0.0
H155 H 0.58505 0.58828 0.03482 0.0
H156 H 0.52383 0.5679 0.07275 0.0
H157 H 0.511 0.44358 0.00877 0.0
H158 H 0.50097 0.46818 0.92339 0.0
C159 C 0.00688 0.47107 0.53625 0.0
C160 C 0.98937 0.45908 0.51893 0.0
C161 C 0.99028 0.4711 0.49404 0.0
C162 C 0.00821 0.48965 0.49752 0.0
N163 N 0.01897 0.49019 0.52299 0.0
Co164 Co 0.04544 0.51435 0.53755 0.0
N165 N 0.04692 0.5319 0.50053 0.0
C166 C 0.03337 0.52628 0.47697 0.0
C167 C 0.0389 0.54139 0.45425 0.0
C168 C 0.05725 0.55759 0.46359 0.0
C169 C 0.06184 0.55136 0.49161 0.0
N170 N 0.07157 0.53868 0.55256 0.0
C171 C 0.08385 0.5577 0.53906 0.0
C172 C 0.10063 0.5701 0.55736 0.0
C173 C 0.099 0.55845 0.58327 0.0
C174 C 0.08139 0.5397 0.57934 0.0
N175 N 0.04436 0.49659 0.57397 0.0
C176 C 0.05825 0.50212 0.59705 0.0
C177 C 0.05346 0.48666 0.61879 0.0
C178 C 0.03541 0.47024 0.60909 0.0
C179 C 0.03022 0.47668 0.58184 0.0
N180 N 0.06226 0.50633 0.51349 0.0
C181 C 0.08648 0.49557 0.47857 0.0
C182 C 0.09172 0.50214 0.50892 0.0
C183 C 0.07955 0.50747 0.52576 0.0
C184 C 0.06888 0.49453 0.46611 0.0
C185 C 0.05705 0.49979 0.48384 0.0
N186 N 0.02852 0.52238 0.56167 0.0
C187 C 0.01799 0.52901 0.61084 0.0
C188 C 0.00312 0.53176 0.59623 0.0
C189 C 0.0014 0.53015 0.56404 0.0
C190 C 0.014 0.5253 0.5474 0.0
C191 C 0.03062 0.52464 0.59322 0.0
H192 H 0.01145 0.52376 0.52308 0.0
H193 H 0.04184 0.52304 0.60575 0.0
H194 H 0.08444 0.51247 0.54868 0.0
H195 H 0.04381 0.49854 0.47298 0.0
C196 C 0.01559 0.50666 0.47689 0.0
C197 C 0.01122 0.46358 0.56514 0.0
C198 C 0.08073 0.56439 0.50851 0.0
C199 C 0.07481 0.52232 0.59882 0.0
H200 H 0.97717 0.44327 0.52384 0.0
H201 H 0.97919 0.46682 0.47557 0.0
H202 H 0.03067 0.54066 0.43327 0.0
H203 H 0.06634 0.57228 0.45106 0.0
H204 H 0.11301 0.5858 0.55216 0.0
H205 H 0.10975 0.56292 0.60224 0.0
H206 H 0.06182 0.48738 0.63961 0.0
H207 H 0.02683 0.45534 0.62109 0.0
H208 H 0.10502 0.50298 0.5199 0.0
H209 H 0.06428 0.48993 0.44253 0.0
H210 H 0.01997 0.53037 0.63578 0.0
H211 H 0.98998 0.53208 0.55182 0.0
C212 C 0.49836 0.99361 0.05825 0.0
C213 C 0.49566 0.00112 0.08555 0.0
C214 C 0.51375 0.01924 0.08971 0.0
C215 C 0.52634 0.02188 0.0647 0.0
N216 N 0.51737 0.0066 0.04466 0.0
Co217 Co 0.52983 0.00488 0.0045 0.0
N218 N 0.55704 0.03081 0.01191 0.0
C219 C 0.56193 0.04238 0.03707 0.0
C220 C 0.58165 0.05938 0.03555 0.0
C221 C 0.58992 0.05869 0.00775 0.0
C222 C 0.5747 0.04116 0.99388 0.0
N223 N 0.54208 0.00348 0.96388 0.0
C224 C 0.56102 0.01657 0.95016 0.0
C225 C 0.56314 0.00984 0.92167 0.0
C226 C 0.54478 0.99212 0.91693 0.0
C227 C 0.53257 0.98896 0.94272 0.0
N228 N 0.50286 0.97857 0.99762 0.0
C229 C 0.49832 0.96649 0.97317 0.0
C230 C 0.47916 0.94878 0.97571 0.0
C231 C 0.47096 0.94944 0.00358 0.0
C232 C 0.48559 0.96773 0.01637 0.0
N233 N 0.51933 0.0208 0.98257 0.0
C234 C 0.50535 0.04396 0.95052 0.0
C235 C 0.49998 0.02468 0.94089 0.0
C236 C 0.50717 0.01354 0.95695 0.0
C237 C 0.51769 0.05129 0.97671 0.0
C238 C 0.52429 0.03952 0.99233 0.0
N239 N 0.54034 0.98901 0.0264 0.0
C240 C 0.54608 0.96093 0.0287 0.0
C241 C 0.55446 0.96603 0.05828 0.0
C242 C 0.55581 0.98294 0.0715 0.0
C243 C 0.54869 0.99408 0.05534 0.0
C244 C 0.53924 0.97256 0.01327 0.0
H245 H 0.54994 0.00664 0.06687 0.0
H246 H 0.53307 0.9679 0.99079 0.0
H247 H 0.50273 0.99913 0.94809 0.0
H248 H 0.53355 0.04607 0.01209 0.0
C249 C 0.54706 0.03783 0.06048 0.0
C250 C 0.48257 0.97387 0.04666 0.0
C251 C 0.57743 0.03552 0.963 0.0
C252 C 0.51245 0.97214 0.94824 0.0
H253 H 0.48211 0.99411 0.10109 0.0
H254 H 0.51742 0.02914 0.10897 0.0
H255 H 0.58893 0.0712 0.05225 0.0
H256 H 0.60526 0.0701 0.9985 0.0
H257 H 0.57659 0.01699 0.90591 0.0
H258 H 0.54084 0.98259 0.89714 0.0
H259 H 0.47211 0.93669 0.95942 0.0
H260 H 0.45599 0.93761 0.01346 0.0
H261 H 0.49015 0.01805 0.9211 0.0
H262 H 0.52265 0.06624 0.98497 0.0
H263 H 0.54493 0.94809 0.01734 0.0
H264 H 0.56194 0.98735 0.09455 0.0
C265 C 0.53535 0.5471 0.49845 0.0
C266 C 0.53167 0.56008 0.51488 0.0
C267 C 0.52023 0.54918 0.54093 0.0
C268 C 0.51763 0.53027 0.53894 0.0
N269 N 0.52681 0.52842 0.5133 0.0
Co270 Co 0.52659 0.50344 0.50102 0.0
N271 N 0.50941 0.4873 0.53916 0.0
C272 C 0.50228 0.49397 0.56181 0.0
C273 C 0.49188 0.47988 0.58588 0.0
C274 C 0.49248 0.46319 0.57838 0.0
C275 C 0.50314 0.46803 0.54983 0.0
N276 N 0.52627 0.47844 0.48866 0.0
C277 C 0.51808 0.45989 0.50382 0.0
C278 C 0.52122 0.44672 0.4869 0.0
C279 C 0.53214 0.45744 0.46041 0.0
C280 C 0.53493 0.47642 0.46253 0.0
N281 N 0.5439 0.51964 0.463 0.0
C282 C 0.55111 0.51303 0.44035 0.0
C283 C 0.56241 0.52754 0.41709 0.0
C284 C 0.56238 0.54444 0.42523 0.0
C285 C 0.55102 0.53923 0.45313 0.0
N286 N 0.5524 0.51219 0.52446 0.0
C287 C 0.58827 0.52254 0.55878 0.0
C288 C 0.58654 0.51673 0.52798 0.0
C289 C 0.56863 0.51157 0.51151 0.0
C290 C 0.5718 0.52343 0.57183 0.0
C291 C 0.55429 0.51843 0.55434 0.0
N292 N 0.50071 0.49456 0.47755 0.0
C293 C 0.4812 0.48244 0.43044 0.0
C294 C 0.46396 0.48166 0.44403 0.0
C295 C 0.46556 0.48764 0.47472 0.0
C296 C 0.48393 0.49407 0.49083 0.0
C297 C 0.49913 0.48873 0.44747 0.0
H298 H 0.48415 0.49853 0.51401 0.0
H299 H 0.51151 0.4888 0.43565 0.0
H300 H 0.56824 0.50699 0.48837 0.0
H301 H 0.54237 0.5195 0.56562 0.0
C302 C 0.50649 0.51393 0.56059 0.0
C303 C 0.5469 0.55323 0.46877 0.0
C304 C 0.5076 0.45414 0.53443 0.0
C305 C 0.5464 0.49288 0.4411 0.0
H306 H 0.53666 0.57579 0.5086 0.0
H307 H 0.5144 0.55437 0.55906 0.0
H308 H 0.48512 0.4817 0.6068 0.0
H309 H 0.48615 0.44925 0.59277 0.0
H310 H 0.51633 0.43105 0.49325 0.0
H311 H 0.53769 0.45214 0.44203 0.0
H312 H 0.56956 0.52593 0.39645 0.0
H313 H 0.56967 0.5589 0.4119 0.0
H314 H 0.59897 0.5162 0.5164 0.0
H315 H 0.57213 0.5276 0.59568 0.0
H316 H 0.48106 0.47844 0.40653 0.0
H317 H 0.45263 0.48717 0.48652 0.0
H318 H 0.34013 0.4654 0.23192 0.0
N319 N 0.30466 0.42842 0.22201 0.0
H320 H 0.36359 0.47327 0.27476 0.0
H321 H 0.29879 0.40483 0.27286 0.0
H322 H 0.3217 0.413 0.31734 0.0
H323 H 0.30562 0.39835 0.19566 0.0
H324 H 0.32683 0.40102 0.1507 0.0
H325 H 0.32669 0.4621 0.18245 0.0
H326 H 0.34968 0.46568 0.13954 0.0
H327 H 0.30474 0.46141 0.2451 0.0
H328 H 0.26766 0.40576 0.19691 0.0
H329 H 0.27478 0.46491 0.25019 0.0
H330 H 0.23796 0.41001 0.19957 0.0
H331 H 0.18931 0.47785 0.26126 0.0
H332 H 0.17875 0.48831 0.30682 0.0
H333 H 0.15761 0.42936 0.35306 0.0
H334 H 0.16679 0.4186 0.30615 0.0
H335 H 0.13924 0.41456 0.2408 0.0
H336 H 0.11819 0.42099 0.20466 0.0
H337 H 0.17389 0.47586 0.16836 0.0
H338 H 0.19461 0.46963 0.20529 0.0
H339 H 0.21909 0.47224 0.24203 0.0
H340 H 0.25037 0.47156 0.22987 0.0
H341 H 0.21338 0.40537 0.23598 0.0
N342 N 0.17948 0.43896 0.25118 0.0
H343 H 0.18226 0.40646 0.24576 0.0
C344 C 0.3178 0.43429 0.24881 0.0
C345 C 0.33597 0.45378 0.25025 0.0
C346 C 0.34931 0.45839 0.27521 0.0
C347 C 0.34469 0.44376 0.29964 0.0
C348 C 0.32603 0.42454 0.29871 0.0
C349 C 0.31281 0.41987 0.27348 0.0
C350 C 0.315 0.43008 0.19281 0.0
C351 C 0.31487 0.41295 0.18289 0.0
C352 C 0.32729 0.41463 0.1574 0.0
C353 C 0.34064 0.43372 0.1417 0.0
C354 C 0.3397 0.45066 0.15067 0.0
C355 C 0.32675 0.44876 0.17563 0.0
C356 C 0.28837 0.43294 0.2212 0.0
C357 C 0.29028 0.45008 0.23508 0.0
C358 C 0.27303 0.4522 0.23771 0.0
C359 C 0.25363 0.43752 0.22589 0.0
C360 C 0.25233 0.42126 0.21001 0.0
C361 C 0.26939 0.41891 0.20805 0.0
C362 C 0.1783 0.44721 0.28008 0.0
C363 C 0.18264 0.46728 0.28133 0.0
C364 C 0.1767 0.4733 0.30768 0.0
C365 C 0.16678 0.45953 0.33359 0.0
C366 C 0.16448 0.44017 0.33325 0.0
C367 C 0.16999 0.43404 0.30664 0.0
C368 C 0.16845 0.44147 0.22576 0.0
C369 C 0.14691 0.42771 0.22452 0.0
C370 C 0.13493 0.43142 0.20378 0.0
C371 C 0.1443 0.44904 0.18367 0.0
C372 C 0.1661 0.46232 0.18387 0.0
C373 C 0.17806 0.45864 0.20478 0.0
C374 C 0.1983 0.43933 0.2442 0.0
C375 C 0.21775 0.45765 0.24008 0.0
C376 C 0.23568 0.45718 0.23351 0.0
C377 C 0.23457 0.43839 0.23158 0.0
C378 C 0.21498 0.42017 0.23625 0.0
C379 C 0.19712 0.42069 0.2422 0.0
H380 H 0.72819 0.11535 0.76282 0.0
N381 N 0.74446 0.15376 0.74193 0.0
H382 H 0.70266 0.09724 0.80537 0.0
H383 H 0.73167 0.17125 0.78399 0.0
H384 H 0.70716 0.15366 0.82755 0.0
H385 H 0.71409 0.16189 0.72866 0.0
H386 H 0.68952 0.14776 0.6865 0.0
H387 H 0.74781 0.13583 0.69276 0.0
H388 H 0.72379 0.12225 0.64963 0.0
H389 H 0.78227 0.16049 0.74906 0.0
H390 H 0.74907 0.19159 0.73775 0.0
H391 H 0.81492 0.19321 0.75286 0.0
H392 H 0.78139 0.22443 0.74368 0.0
H393 H 0.91426 0.29568 0.78939 0.0
H394 H 0.92822 0.31771 0.8336 0.0
H395 H 0.87432 0.32339 0.83488 0.0
H396 H 0.86024 0.30082 0.79098 0.0
H397 H 0.87347 0.31662 0.73881 0.0
H398 H 0.89308 0.34329 0.69829 0.0
H399 H 0.9269 0.31439 0.67498 0.0
H400 H 0.90744 0.28794 0.71636 0.0
H401 H 0.86746 0.25111 0.78845 0.0
H402 H 0.83371 0.2194 0.78605 0.0
H403 H 0.81348 0.24934 0.72088 0.0
N404 N 0.88057 0.28656 0.75792 0.0
H405 H 0.84665 0.28124 0.7252 0.0
C406 C 0.73201 0.14464 0.77019 0.0
C407 C 0.72388 0.12383 0.77725 0.0
C408 C 0.70934 0.11354 0.80171 0.0
C409 C 0.70271 0.12393 0.81997 0.0
C410 C 0.71157 0.14504 0.81368 0.0
C411 C 0.7259 0.15525 0.78889 0.0
C412 C 0.73267 0.14968 0.71397 0.0
C413 C 0.71659 0.15366 0.71112 0.0
C414 C 0.70255 0.14558 0.68687 0.0
C415 C 0.70444 0.13353 0.66491 0.0
C416 C 0.72156 0.13102 0.66654 0.0
C417 C 0.73545 0.13896 0.69091 0.0
C418 C 0.76328 0.17356 0.74352 0.0
C419 C 0.78207 0.17445 0.74774 0.0
C420 C 0.80068 0.19321 0.75026 0.0
C421 C 0.8009 0.21161 0.74914 0.0
C422 C 0.78196 0.21068 0.74446 0.0
C423 C 0.76336 0.19185 0.74137 0.0
C424 C 0.88638 0.29677 0.78687 0.0
C425 C 0.90529 0.30134 0.79971 0.0
C426 C 0.91329 0.31405 0.82473 0.0
C427 C 0.90254 0.32258 0.83739 0.0
C428 C 0.88295 0.31703 0.82567 0.0
C429 C 0.87491 0.30422 0.80054 0.0
C430 C 0.88907 0.30028 0.73066 0.0
C431 C 0.88483 0.31579 0.72466 0.0
C432 C 0.89601 0.33102 0.70131 0.0
C433 C 0.9117 0.33109 0.68353 0.0
C434 C 0.91514 0.31495 0.68855 0.0
C435 C 0.90392 0.29973 0.71192 0.0
C436 C 0.85987 0.26858 0.75687 0.0
C437 C 0.85562 0.25086 0.77395 0.0
C438 C 0.83635 0.23265 0.7722 0.0
C439 C 0.82085 0.23155 0.75274 0.0
C440 C 0.82489 0.24952 0.73628 0.0
C441 C 0.8441 0.26789 0.73853 0.0
H442 H 0.56697 0.85004 0.28827 0.0
N443 N 0.60706 0.85957 0.27909 0.0
H444 H 0.55517 0.86359 0.32789 0.0
H445 H 0.62707 0.87744 0.33018 0.0
H446 H 0.61496 0.88983 0.37162 0.0
H447 H 0.63095 0.89754 0.25548 0.0
H448 H 0.62376 0.91355 0.2111 0.0
H449 H 0.57598 0.83951 0.23708 0.0
H450 H 0.56902 0.85515 0.19227 0.0
H451 H 0.57295 0.82044 0.28362 0.0
H452 H 0.63994 0.85602 0.27607 0.0
H453 H 0.57324 0.78894 0.28141 0.0
H454 H 0.64065 0.82476 0.27613 0.0
H455 H 0.57232 0.70106 0.29044 0.0
H456 H 0.56171 0.67362 0.33022 0.0
H457 H 0.62509 0.7032 0.36129 0.0
H458 H 0.63564 0.7305 0.32082 0.0
H459 H 0.63631 0.72125 0.2488 0.0
H460 H 0.62828 0.70007 0.20393 0.0
H461 H 0.57114 0.69951 0.19245 0.0
H462 H 0.57908 0.72014 0.23815 0.0
H463 H 0.58201 0.73576 0.30623 0.0
H464 H 0.58043 0.76635 0.30761 0.0
H465 H 0.63459 0.79834 0.24559 0.0
N466 N 0.61231 0.73214 0.27594 0.0
H467 H 0.6369 0.76799 0.24612 0.0
C468 C 0.59814 0.86318 0.30588 0.0
C469 C 0.57747 0.85852 0.30655 0.0
C470 C 0.57067 0.86619 0.32954 0.0
C471 C 0.58423 0.87828 0.3528 0.0
C472 C 0.60427 0.88122 0.35357 0.0
C473 C 0.61117 0.87391 0.33018 0.0
C474 C 0.60415 0.86738 0.24969 0.0
C475 C 0.61767 0.88815 0.24131 0.0
C476 C 0.61353 0.89724 0.21588 0.0
C477 C 0.5957 0.88566 0.19819 0.0
C478 C 0.58271 0.86458 0.20568 0.0
C479 C 0.58682 0.85553 0.23122 0.0
C480 C 0.60649 0.84059 0.27937 0.0
C481 C 0.58774 0.82145 0.28155 0.0
C482 C 0.58797 0.80341 0.28067 0.0
C483 C 0.60698 0.80415 0.27825 0.0
C484 C 0.62567 0.82343 0.27705 0.0
C485 C 0.62536 0.84137 0.27734 0.0
C486 C 0.60486 0.71789 0.30268 0.0
C487 C 0.58386 0.70189 0.30619 0.0
C488 C 0.57779 0.68621 0.32907 0.0
C489 C 0.59259 0.68612 0.34878 0.0
C490 C 0.61337 0.70267 0.34619 0.0
C491 C 0.6194 0.71838 0.32335 0.0
C492 C 0.60838 0.72227 0.24674 0.0
C493 C 0.62226 0.71683 0.23619 0.0
C494 C 0.61765 0.70479 0.21044 0.0
C495 C 0.599 0.69798 0.19455 0.0
C496 C 0.58548 0.70421 0.2044 0.0
C497 C 0.59007 0.71616 0.23035 0.0
C498 C 0.60988 0.74955 0.27632 0.0
C499 C 0.59367 0.74929 0.29304 0.0
C500 C 0.59264 0.7669 0.29357 0.0
C501 C 0.60749 0.78506 0.27697 0.0
C502 C 0.62319 0.78495 0.25945 0.0
C503 C 0.62445 0.76751 0.25943 0.0
H504 H 0.91493 0.60149 0.82181 0.0
N505 N 0.88036 0.57479 0.7939 0.0
H506 H 0.93099 0.5947 0.86611 0.0
H507 H 0.86165 0.54005 0.83193 0.0
H508 H 0.87812 0.53251 0.87487 0.0
H509 H 0.87114 0.5363 0.78137 0.0
H510 H 0.88961 0.52819 0.74367 0.0
H511 H 0.90591 0.5994 0.74761 0.0
H512 H 0.92403 0.59115 0.70889 0.0
H513 H 0.86864 0.59663 0.82388 0.0
H514 H 0.84506 0.5456 0.76437 0.0
H515 H 0.83506 0.59392 0.82326 0.0
H516 H 0.81195 0.54366 0.76193 0.0
H517 H 0.73035 0.59312 0.79062 0.0
H518 H 0.70202 0.5845 0.82798 0.0
H519 H 0.70187 0.53065 0.86015 0.0
H520 H 0.72989 0.53909 0.82238 0.0
H521 H 0.71351 0.53207 0.76543 0.0
H522 H 0.69056 0.52336 0.72145 0.0
H523 H 0.73194 0.58376 0.67879 0.0
H524 H 0.75395 0.59271 0.72429 0.0
H525 H 0.78398 0.60188 0.78451 0.0
H526 H 0.816 0.60174 0.78978 0.0
H527 H 0.78054 0.53577 0.7865 0.0
N528 N 0.74584 0.57041 0.77722 0.0
H529 H 0.74873 0.53639 0.77935 0.0
C530 C 0.88736 0.57123 0.82331 0.0
C531 C 0.90663 0.58658 0.83392 0.0
C532 C 0.91587 0.58255 0.85897 0.0
C533 C 0.90616 0.56286 0.87363 0.0
C534 C 0.88611 0.54785 0.86426 0.0
C535 C 0.87671 0.55205 0.83949 0.0
C536 C 0.88733 0.56861 0.76759 0.0
C537 C 0.88242 0.54836 0.76547 0.0
C538 C 0.89299 0.54371 0.7439 0.0
C539 C 0.90837 0.5591 0.72367 0.0
C540 C 0.91218 0.579 0.7242 0.0
C541 C 0.90183 0.58372 0.74617 0.0
C542 C 0.85967 0.57155 0.79409 0.0
C543 C 0.85622 0.58485 0.81064 0.0
C544 C 0.83702 0.58339 0.80994 0.0
C545 C 0.82075 0.5688 0.79205 0.0
C546 C 0.82398 0.55501 0.77617 0.0
C547 C 0.84315 0.55624 0.77734 0.0
C548 C 0.73239 0.56692 0.80371 0.0
C549 C 0.72456 0.57974 0.80627 0.0
C550 C 0.70829 0.57471 0.82737 0.0
C551 C 0.69969 0.55683 0.84669 0.0
C552 C 0.70832 0.54457 0.84556 0.0
C553 C 0.72442 0.54945 0.82402 0.0
C554 C 0.7352 0.56325 0.74838 0.0
C555 C 0.71781 0.54332 0.74638 0.0
C556 C 0.70472 0.53832 0.72096 0.0
C557 C 0.70904 0.553 0.69669 0.0
C558 C 0.72766 0.57226 0.69746 0.0
C559 C 0.74047 0.57735 0.7232 0.0
C560 C 0.76403 0.56922 0.78194 0.0
C561 C 0.78318 0.58741 0.78512 0.0
C562 C 0.80145 0.58723 0.78838 0.0
C563 C 0.80098 0.5687 0.78897 0.0
C564 C 0.78162 0.55036 0.78591 0.0
C565 C 0.76333 0.55063 0.78219 0.0
H566 H 0.19245 0.69821 0.30012 0.0
N567 N 0.18302 0.72739 0.28686 0.0
H568 H 0.18078 0.67508 0.34632 0.0
H569 H 0.16611 0.73067 0.33876 0.0
H570 H 0.15516 0.70818 0.38592 0.0
H571 H 0.14389 0.71241 0.27099 0.0
H572 H 0.12434 0.68704 0.23251 0.0
H573 H 0.19962 0.71387 0.24405 0.0
H574 H 0.18049 0.68913 0.20479 0.0
H575 H 0.22191 0.73284 0.28385 0.0
H576 H 0.18882 0.76431 0.28047 0.0
H577 H 0.255 0.76544 0.2769 0.0
H578 H 0.22174 0.79709 0.27571 0.0
H579 H 0.34772 0.85753 0.28964 0.0
H580 H 0.37149 0.87372 0.33211 0.0
H581 H 0.33635 0.90048 0.35985 0.0
H582 H 0.313 0.88465 0.31645 0.0
H583 H 0.33222 0.90061 0.24456 0.0
H584 H 0.35748 0.91622 0.20124 0.0
H585 H 0.35486 0.85923 0.19168 0.0
H586 H 0.33033 0.84416 0.23625 0.0
H587 H 0.31085 0.82818 0.29988 0.0
H588 H 0.27871 0.79483 0.30201 0.0
H589 H 0.24974 0.81928 0.24317 0.0
N590 N 0.31671 0.86379 0.27178 0.0
H591 H 0.2816 0.85298 0.24313 0.0
C592 C 0.1798 0.71596 0.31587 0.0
C593 C 0.1846 0.70068 0.31892 0.0
C594 C 0.17801 0.68751 0.34554 0.0
C595 C 0.16672 0.68954 0.36973 0.0
C596 C 0.16336 0.70585 0.36746 0.0
C597 C 0.16976 0.71884 0.34071 0.0
C598 C 0.17319 0.71516 0.26042 0.0
C599 C 0.15202 0.70766 0.25613 0.0
C600 C 0.1409 0.69318 0.23405 0.0
C601 C 0.15079 0.6859 0.21558 0.0
C602 C 0.17228 0.69412 0.21895 0.0
C603 C 0.18336 0.70853 0.24125 0.0
C604 C 0.20286 0.74619 0.28206 0.0
C605 C 0.22176 0.74678 0.28138 0.0
C606 C 0.24074 0.76553 0.27786 0.0
C607 C 0.24122 0.78408 0.27558 0.0
C608 C 0.22215 0.78326 0.27653 0.0
C609 C 0.20326 0.76453 0.2795 0.0
C610 C 0.32864 0.87004 0.29978 0.0
C611 C 0.34492 0.8666 0.30515 0.0
C612 C 0.35846 0.87581 0.32961 0.0
C613 C 0.35598 0.88861 0.34924 0.0
C614 C 0.33894 0.89103 0.34484 0.0
C615 C 0.32546 0.88185 0.3203 0.0
C616 C 0.32932 0.87129 0.24347 0.0
C617 C 0.33689 0.89145 0.23273 0.0
C618 C 0.35127 0.90028 0.20781 0.0
C619 C 0.35829 0.88902 0.19277 0.0
C620 C 0.35008 0.86848 0.20293 0.0
C621 C 0.33584 0.85973 0.22819 0.0
C622 C 0.29852 0.84334 0.27186 0.0
C623 C 0.2976 0.82649 0.28761 0.0
C624 C 0.27915 0.80722 0.28849 0.0
C625 C 0.26137 0.80424 0.27309 0.0
C626 C 0.26279 0.82098 0.25614 0.0
C627 C 0.28107 0.84027 0.2558 0.0
H628 H 0.43148 0.13065 0.72115 0.0
N629 N 0.45577 0.16386 0.75205 0.0
H630 H 0.44171 0.11734 0.67879 0.0
H631 H 0.49299 0.18478 0.71959 0.0
H632 H 0.50346 0.17181 0.67654 0.0
H633 H 0.49385 0.17382 0.77379 0.0
H634 H 0.50025 0.15463 0.81411 0.0
H635 H 0.42767 0.13414 0.79068 0.0
H636 H 0.43395 0.1146 0.83092 0.0
H637 H 0.43433 0.17603 0.71903 0.0
H638 H 0.4831 0.19718 0.78609 0.0
H639 H 0.43603 0.20846 0.72011 0.0
H640 H 0.48404 0.22903 0.78863 0.0
H641 H 0.43233 0.30349 0.73056 0.0
H642 H 0.44084 0.32692 0.68479 0.0
H643 H 0.5023 0.33613 0.67937 0.0
H644 H 0.49364 0.31259 0.72463 0.0
H645 H 0.49661 0.3261 0.77482 0.0
H646 H 0.50472 0.34978 0.8157 0.0
H647 H 0.44103 0.31288 0.85101 0.0
H648 H 0.43277 0.29013 0.80811 0.0
H649 H 0.42574 0.25705 0.7542 0.0
H650 H 0.42619 0.22569 0.75235 0.0
H651 H 0.49293 0.26059 0.76387 0.0
N652 N 0.45759 0.29472 0.76045 0.0
H653 H 0.49194 0.29166 0.76759 0.0
C654 C 0.46143 0.15859 0.72348 0.0
C655 C 0.44706 0.1399 0.71095 0.0
C656 C 0.45297 0.13237 0.68666 0.0
C657 C 0.47348 0.14344 0.67427 0.0
C658 C 0.48763 0.16275 0.68583 0.0
C659 C 0.48166 0.17027 0.71026 0.0
C660 C 0.4602 0.15555 0.77953 0.0
C661 C 0.4807 0.16135 0.78681 0.0
C662 C 0.48435 0.15034 0.80983 0.0
C663 C 0.46758 0.13309 0.82553 0.0
C664 C 0.44715 0.12779 0.81906 0.0
C665 C 0.44354 0.139 0.79635 0.0
C666 C 0.45839 0.18385 0.75245 0.0
C667 C 0.4454 0.18765 0.73401 0.0
C668 C 0.44625 0.20616 0.73496 0.0
C669 C 0.45994 0.22137 0.75488 0.0
C670 C 0.4734 0.21781 0.77282 0.0
C671 C 0.47275 0.19934 0.7715 0.0
C672 C 0.46229 0.30636 0.73121 0.0
C673 C 0.44747 0.31026 0.71905 0.0
C674 C 0.45234 0.32358 0.69293 0.0
C675 C 0.47229 0.33343 0.6787 0.0
C676 C 0.48688 0.32888 0.69011 0.0
C677 C 0.48189 0.31536 0.71599 0.0
C678 C 0.46388 0.30652 0.78795 0.0
C679 C 0.48439 0.32299 0.79138 0.0
C680 C 0.48907 0.33652 0.8152 0.0
C681 C 0.47348 0.33361 0.83665 0.0
C682 C 0.45335 0.31612 0.83449 0.0
C683 C 0.44862 0.30287 0.81024 0.0
C684 C 0.45874 0.27664 0.76069 0.0
C685 C 0.44041 0.25783 0.75652 0.0
C686 C 0.44079 0.23997 0.75511 0.0
C687 C 0.45967 0.24052 0.75742 0.0
C688 C 0.47807 0.25946 0.76215 0.0
C689 C 0.4776 0.27734 0.76398 0.0
H690 H 0.07047 0.49947 0.1231 0.0
H691 H 0.05861 0.45609 0.05353 0.0
H692 H 0.09378 0.49092 0.14935 0.0
H693 H 0.08251 0.44791 0.07891 0.0
H694 H 0.10902 0.42308 0.1521 0.0
H695 H 0.08591 0.43127 0.1248 0.0
H696 H 0.12724 0.49508 0.14314 0.0
H697 H 0.14969 0.48675 0.17186 0.0
C698 C 0.073 0.48815 0.11345 0.0
C699 C 0.06291 0.47843 0.08641 0.0
C700 C 0.08646 0.48336 0.12823 0.0
C701 C 0.09017 0.46881 0.11614 0.0
C702 C 0.07987 0.45902 0.08906 0.0
C703 C 0.06632 0.46375 0.0744 0.0
C704 C 0.11314 0.43885 0.15042 0.0
C705 C 0.13121 0.45422 0.16433 0.0
C706 C 0.09998 0.44359 0.13445 0.0
C707 C 0.10462 0.46384 0.13189 0.0
C708 C 0.12298 0.47927 0.14508 0.0
C709 C 0.13606 0.47453 0.16115 0.0
H710 H 0.61526 0.04765 0.53429 0.0
H711 H 0.58403 0.07332 0.57996 0.0
H712 H 0.6475 0.071 0.56073 0.0
H713 H 0.61605 0.09653 0.6069 0.0
H714 H 0.68171 0.1463 0.63207 0.0
H715 H 0.65202 0.12599 0.59909 0.0
H716 H 0.65926 0.07436 0.61437 0.0
H717 H 0.6886 0.09441 0.64743 0.0
C718 C 0.61546 0.05845 0.54987 0.0
C719 C 0.59739 0.05886 0.55524 0.0
C720 C 0.63379 0.07172 0.5651 0.0
C721 C 0.63433 0.08561 0.58597 0.0
C722 C 0.61625 0.08623 0.59069 0.0
C723 C 0.59792 0.07292 0.5755 0.0
C724 C 0.67699 0.13063 0.62832 0.0
C725 C 0.68762 0.12204 0.64241 0.0
C726 C 0.65998 0.119 0.60942 0.0
C727 C 0.65327 0.09855 0.60411 0.0
C728 C 0.66423 0.09016 0.61753 0.0
C729 C 0.68113 0.10172 0.63647 0.0
H730 H 0.53719 0.60336 0.05918 0.0
H731 H 0.59229 0.60338 0.08591 0.0
H732 H 0.54833 0.63353 0.08907 0.0
H733 H 0.60354 0.63375 0.11552 0.0
H734 H 0.62424 0.69714 0.14914 0.0
H735 H 0.6149 0.67073 0.11178 0.0
H736 H 0.55104 0.63904 0.14576 0.0
H737 H 0.56033 0.66503 0.18344 0.0
C738 C 0.55173 0.60985 0.07133 0.0
C739 C 0.56371 0.60078 0.0705 0.0
C740 C 0.55812 0.62715 0.08839 0.0
C741 C 0.5767 0.63589 0.10489 0.0
C742 C 0.58922 0.62746 0.10284 0.0
C743 C 0.58278 0.61006 0.08585 0.0
C744 C 0.60819 0.68454 0.14865 0.0
C745 C 0.59306 0.68322 0.16944 0.0
C746 C 0.60287 0.66945 0.1272 0.0
C747 C 0.58225 0.65281 0.12586 0.0
C748 C 0.567 0.65184 0.1459 0.0
C749 C 0.57234 0.66681 0.16747 0.0
H750 H 0.99597 0.56274 0.58657 0.0
H751 H 0.97868 0.50972 0.64677 0.0
H752 H 0.97318 0.56955 0.61706 0.0
H753 H 0.95494 0.5156 0.67627 0.0
H754 H 0.93018 0.54204 0.74298 0.0
H755 H 0.9533 0.536 0.71233 0.0
H756 H 0.93911 0.55972 0.62941 0.0
H757 H 0.91687 0.56682 0.66089 0.0
C758 C 0.98708 0.55244 0.60621 0.0
C759 C 0.98915 0.53581 0.61452 0.0
C760 C 0.97387 0.55621 0.62359 0.0
C761 C 0.96211 0.54317 0.64933 0.0
C762 C 0.96404 0.52632 0.65718 0.0
C763 C 0.97757 0.52282 0.64019 0.0
C764 C 0.93196 0.54584 0.71815 0.0
C765 C 0.92167 0.55476 0.70422 0.0
C766 C 0.94515 0.54229 0.70045 0.0
C767 C 0.94809 0.54719 0.66816 0.0
C768 C 0.93759 0.55602 0.65423 0.0
C769 C 0.92469 0.55996 0.67214 0.0
H770 H 0.44226 0.9613 0.03425 0.0
H771 H 0.48047 0.95535 0.10291 0.0
H772 H 0.41113 0.93854 0.06654 0.0
H773 H 0.44972 0.93366 0.13635 0.0
H774 H 0.39051 0.88313 0.18154 0.0
H775 H 0.4192 0.90156 0.14383 0.0
H776 H 0.39374 0.93771 0.11196 0.0
H777 H 0.36417 0.91812 0.14779 0.0
C778 C 0.44389 0.95507 0.05637 0.0
C779 C 0.4636 0.95989 0.06616 0.0
C780 C 0.42614 0.9422 0.07504 0.0
C781 C 0.42779 0.9342 0.10421 0.0
C782 C 0.44767 0.93913 0.11385 0.0
C783 C 0.46535 0.95172 0.09491 0.0
C784 C 0.39069 0.89463 0.16595 0.0
C785 C 0.37499 0.89917 0.16798 0.0
C786 C 0.40742 0.90549 0.14462 0.0
C787 C 0.40906 0.9214 0.12502 0.0
C788 C 0.39302 0.9255 0.1264 0.0
C789 C 0.37615 0.91443 0.14739 0.0
H790 H 0.53485 0.44392 0.55597 0.0
H791 H 0.46923 0.42076 0.54961 0.0
H792 H 0.52702 0.41314 0.5866 0.0
H793 H 0.46117 0.39051 0.58184 0.0
H794 H 0.45094 0.33194 0.6264 0.0
H795 H 0.46003 0.35957 0.58742 0.0
H796 H 0.51587 0.39936 0.63731 0.0
H797 H 0.50713 0.37154 0.6752 0.0
C798 C 0.51874 0.43212 0.56115 0.0
C799 C 0.50263 0.43467 0.55088 0.0
C800 C 0.5142 0.41459 0.57894 0.0
C801 C 0.49344 0.39937 0.5872 0.0
C802 C 0.47732 0.4017 0.57577 0.0
C803 C 0.48188 0.4191 0.55755 0.0
C804 C 0.46525 0.34657 0.62871 0.0
C805 C 0.47836 0.34959 0.65373 0.0
C806 C 0.47043 0.36246 0.60651 0.0
C807 C 0.48869 0.38182 0.60913 0.0
C808 C 0.50193 0.38462 0.63399 0.0
C809 C 0.49689 0.36868 0.65587 0.0
H810 H 0.52761 0.94247 0.41697 0.0
H811 H 0.57433 0.95659 0.48578 0.0
H812 H 0.53616 0.91939 0.39306 0.0
H813 H 0.58307 0.93366 0.4616 0.0
H814 H 0.60935 0.91633 0.37578 0.0
H815 H 0.59925 0.93555 0.40676 0.0
H816 H 0.53522 0.88545 0.40776 0.0
H817 H 0.54532 0.86551 0.37805 0.0
C818 C 0.53966 0.94057 0.42699 0.0
C819 C 0.55038 0.95134 0.45311 0.0
C820 C 0.54442 0.92726 0.41349 0.0
C821 C 0.56025 0.92475 0.42554 0.0
C822 C 0.57083 0.93537 0.45186 0.0
C823 C 0.56579 0.9484 0.46571 0.0
C824 C 0.59319 0.90901 0.38331 0.0
C825 C 0.57819 0.88923 0.37423 0.0
C826 C 0.58741 0.92017 0.40094 0.0
C827 C 0.56646 0.91202 0.40951 0.0
C828 C 0.55147 0.89215 0.40115 0.0
C829 C 0.55729 0.8808 0.38398 0.0
H830 H 0.57314 0.50343 0.92237 0.0
H831 H 0.61301 0.549 0.98629 0.0
H832 H 0.60395 0.51032 0.89197 0.0
H833 H 0.64376 0.55542 0.95667 0.0
H834 H 0.69329 0.54585 0.90903 0.0
H835 H 0.66206 0.53583 0.94106 0.0
H836 H 0.63234 0.54276 0.85988 0.0
H837 H 0.66352 0.553 0.82811 0.0
C838 C 0.58852 0.5146 0.93019 0.0
C839 C 0.59081 0.52531 0.95702 0.0
C840 C 0.60609 0.51859 0.91283 0.0
C841 C 0.62621 0.53326 0.92219 0.0
C842 C 0.62845 0.54378 0.94928 0.0
C843 C 0.6109 0.54005 0.96627 0.0
C844 C 0.68003 0.54514 0.89814 0.0
C845 C 0.68082 0.55033 0.86622 0.0
C846 C 0.66224 0.53948 0.9164 0.0
C847 C 0.6448 0.53848 0.90287 0.0
C848 C 0.64548 0.54325 0.87083 0.0
C849 C 0.66337 0.54927 0.85275 0.0
H850 H 0.11074 0.57203 0.46584 0.0
H851 H 0.08603 0.60143 0.51827 0.0
H852 H 0.13415 0.60433 0.43653 0.0
H853 H 0.10956 0.63394 0.48936 0.0
H854 H 0.12809 0.67371 0.39665 0.0
H855 H 0.11014 0.64539 0.43489 0.0
H856 H 0.16415 0.64002 0.43903 0.0
H857 H 0.18245 0.66881 0.40089 0.0
C858 C 0.11075 0.58562 0.47144 0.0
C859 C 0.09678 0.58449 0.49411 0.0
C860 C 0.12414 0.60408 0.45486 0.0
C861 C 0.12365 0.62167 0.46056 0.0
C862 C 0.11016 0.6206 0.48424 0.0
C863 C 0.09681 0.60213 0.50087 0.0
C864 C 0.13644 0.66694 0.40626 0.0
C865 C 0.15677 0.67361 0.3956 0.0
C866 C 0.12609 0.65062 0.42821 0.0
C867 C 0.13571 0.64043 0.43998 0.0
C868 C 0.15625 0.64743 0.43011 0.0
C869 C 0.1667 0.66389 0.40823 0.0
H870 H 0.49467 0.07002 0.9741 0.0
H871 H 0.50052 0.04653 0.88742 0.0
H872 H 0.4849 0.09153 0.9453 0.0
H873 H 0.48984 0.06739 0.85907 0.0
H874 H 0.44892 0.09177 0.82463 0.0
H875 H 0.45705 0.06976 0.85592 0.0
H876 H 0.50328 0.1221 0.90431 0.0
H877 H 0.49521 0.14419 0.87284 0.0
C878 C 0.49396 0.06944 0.94897 0.0
C879 C 0.49848 0.05649 0.93317 0.0
C880 C 0.48825 0.08171 0.93254 0.0
C881 C 0.48658 0.08107 0.90002 0.0
C882 C 0.49076 0.06797 0.88421 0.0
C883 C 0.49678 0.05594 0.90055 0.0
C884 C 0.4606 0.09851 0.84227 0.0
C885 C 0.47141 0.11967 0.84641 0.0
C886 C 0.46537 0.08596 0.85994 0.0
C887 C 0.48082 0.09425 0.88243 0.0
C888 C 0.49122 0.11531 0.88723 0.0
C889 C 0.48668 0.12794 0.86918 0.0
H890 H 0.43746 0.49599 0.44566 0.0
H891 H 0.44653 0.45169 0.40168 0.0
H892 H 0.40662 0.48542 0.41502 0.0
H893 H 0.41678 0.44227 0.36948 0.0
H894 H 0.35413 0.41755 0.32944 0.0
H895 H 0.38051 0.42543 0.36788 0.0
H896 H 0.39729 0.48849 0.36389 0.0
H897 H 0.36977 0.48025 0.32734 0.0
C898 C 0.43287 0.48394 0.42958 0.0
C899 C 0.44466 0.47481 0.42609 0.0
C900 C 0.41531 0.47807 0.41164 0.0
C901 C 0.40917 0.46304 0.38953 0.0
C902 C 0.42076 0.45369 0.38648 0.0
C903 C 0.43814 0.45938 0.40464 0.0
C904 C 0.36304 0.43299 0.33731 0.0
C905 C 0.35982 0.44827 0.32496 0.0
C906 C 0.37848 0.43761 0.35906 0.0
C907 C 0.39134 0.45769 0.36878 0.0
C908 C 0.38766 0.47282 0.35722 0.0
C909 C 0.37203 0.46814 0.33578 0.0
H910 H 0.93629 0.41876 0.96775 0.0
H911 H 0.99101 0.41497 0.95846 0.0
H912 H 0.91728 0.38965 0.93464 0.0
H913 H 0.97201 0.38568 0.92611 0.0
H914 H 0.94275 0.35444 0.83678 0.0
H915 H 0.95974 0.38081 0.8742 0.0
H916 H 0.90229 0.35329 0.92871 0.0
H917 H 0.8851 0.32682 0.89065 0.0
C918 C 0.94411 0.41146 0.95908 0.0
C919 C 0.9652 0.41928 0.96532 0.0
C920 C 0.93323 0.39476 0.94017 0.0
C921 C 0.94319 0.38548 0.92733 0.0
C922 C 0.964 0.39277 0.93491 0.0
C923 C 0.97488 0.40951 0.95353 0.0
C924 C 0.93378 0.35381 0.85696 0.0
C925 C 0.91263 0.33838 0.86092 0.0
C926 C 0.94354 0.36895 0.87849 0.0
C927 C 0.93247 0.36907 0.90474 0.0
C928 C 0.91124 0.35373 0.90867 0.0
C929 C 0.9014 0.33855 0.88692 0.0
H930 H 0.94829 0.49512 0.98207 0.0
H931 H 0.99766 0.55781 0.9917 0.0
H932 H 0.9277 0.50663 0.95424 0.0
H933 H 0.97725 0.56946 0.96369 0.0
H934 H 0.94779 0.57672 0.87279 0.0
H935 H 0.96649 0.56691 0.90785 0.0
H936 H 0.90954 0.52634 0.9606 0.0
H937 H 0.89069 0.53669 0.92601 0.0
C938 C 0.95454 0.51136 0.97851 0.0
C939 C 0.9745 0.52564 0.98873 0.0
C940 C 0.94279 0.51796 0.96275 0.0
C941 C 0.95092 0.53894 0.9567 0.0
C942 C 0.97068 0.5532 0.96778 0.0
C943 C 0.98232 0.54659 0.9838 0.0
C944 C 0.93923 0.56613 0.89229 0.0
C945 C 0.91766 0.55763 0.89655 0.0
C946 C 0.95001 0.56044 0.91234 0.0
C947 C 0.93949 0.54589 0.93699 0.0
C948 C 0.918 0.53748 0.94161 0.0
C949 C 0.90722 0.54338 0.92171 0.0
H950 H 0.47307 0.94924 0.44313 0.0
H951 H 0.44201 0.97794 0.47927 0.0
H952 H 0.4418 0.92577 0.41492 0.0
H953 H 0.41048 0.95434 0.45154 0.0
H954 H 0.37186 0.92844 0.36293 0.0
H955 H 0.40025 0.94923 0.39717 0.0
H956 H 0.4055 0.89725 0.42171 0.0
H957 H 0.37688 0.87629 0.38749 0.0
C958 C 0.45936 0.95025 0.44523 0.0
C959 C 0.45972 0.96522 0.46314 0.0
C960 C 0.44145 0.93681 0.42932 0.0
C961 C 0.42364 0.93819 0.43097 0.0
C962 C 0.424 0.95302 0.44952 0.0
C963 C 0.44192 0.96643 0.46548 0.0
C964 C 0.37872 0.92127 0.37613 0.0
C965 C 0.37205 0.90066 0.37241 0.0
C966 C 0.39505 0.93324 0.39575 0.0
C967 C 0.4052 0.92493 0.41211 0.0
C968 C 0.39821 0.90418 0.40907 0.0
C969 C 0.3818 0.89218 0.38947 0.0
H970 H 0.47572 0.41361 0.9795 0.0
H971 H 0.52505 0.45186 0.91223 0.0
H972 H 0.46775 0.38322 0.95137 0.0
H973 H 0.51749 0.42154 0.88466 0.0
H974 H 0.51013 0.3589 0.86659 0.0
H975 H 0.51803 0.38732 0.89895 0.0
H976 H 0.45463 0.3724 0.89254 0.0
H977 H 0.44683 0.34483 0.85861 0.0
C978 C 0.48493 0.41544 0.95887 0.0
C979 C 0.5009 0.43499 0.94786 0.0
C980 C 0.48037 0.39814 0.94281 0.0
C981 C 0.49208 0.4001 0.91598 0.0
C982 C 0.50835 0.41963 0.90542 0.0
C983 C 0.51258 0.43693 0.92103 0.0
C984 C 0.49784 0.36168 0.87175 0.0
C985 C 0.47783 0.34947 0.85954 0.0
C986 C 0.50238 0.37789 0.89051 0.0
C987 C 0.48693 0.382 0.89816 0.0
C988 C 0.46676 0.36939 0.88721 0.0
C989 C 0.4623 0.35346 0.86789 0.0
H990 H 0.07266 0.46501 0.43743 0.0
H991 H 0.12904 0.51295 0.47739 0.0
H992 H 0.09309 0.45672 0.40486 0.0
H993 H 0.14949 0.5036 0.44631 0.0
H994 H 0.18033 0.49699 0.35834 0.0
H995 H 0.16153 0.50539 0.39469 0.0
H996 H 0.11278 0.44152 0.40491 0.0
H997 H 0.13053 0.43337 0.3668 0.0
C998 C 0.08943 0.47377 0.43939 0.0
C999 C 0.09913 0.4898 0.45995 0.0
C1000 C 0.10119 0.46875 0.42103 0.0
C1001 C 0.12303 0.47938 0.42296 0.0
C1002 C 0.13275 0.4952 0.44389 0.0
C1003 C 0.12096 0.50038 0.46208 0.0
C1004 C 0.16554 0.48473 0.36817 0.0
C1005 C 0.15697 0.4645 0.35919 0.0
C1006 C 0.15486 0.48953 0.38944 0.0
C1007 C 0.13544 0.47418 0.40257 0.0
C1008 C 0.12743 0.45385 0.39479 0.0
C1009 C 0.13791 0.4491 0.37325 0.0
H1010 H 0.61724 0.04551 0.97357 0.0
H1011 H 0.58026 0.05674 0.90932 0.0
H1012 H 0.64858 0.06845 0.94167 0.0
H1013 H 0.61115 0.07874 0.8763 0.0
H1014 H 0.67138 0.13031 0.83526 0.0
H1015 H 0.64248 0.11054 0.87212 0.0
H1016 H 0.66527 0.07063 0.89413 0.0
H1017 H 0.69513 0.09141 0.85908 0.0
C1018 C 0.61592 0.05293 0.9525 0.0
C1019 C 0.59652 0.04955 0.94382 0.0
C1020 C 0.63377 0.0659 0.93406 0.0
C1021 C 0.63248 0.07552 0.90631 0.0
C1022 C 0.6129 0.07199 0.89776 0.0
C1023 C 0.59515 0.05925 0.91644 0.0
C1024 C 0.67058 0.11765 0.8485 0.0
C1025 C 0.68568 0.1125 0.84402 0.0
C1026 C 0.65373 0.10604 0.86931 0.0
C1027 C 0.6513 0.08877 0.88591 0.0
C1028 C 0.66665 0.0839 0.88201 0.0
C1029 C 0.68367 0.09567 0.86148 0.0
H1030 H 0.52345 0.56418 0.43573 0.0
H1031 H 0.58561 0.58761 0.46824 0.0
H1032 H 0.53482 0.59726 0.40912 0.0
H1033 H 0.59712 0.62098 0.44239 0.0
H1034 H 0.61425 0.66725 0.3591 0.0
H1035 H 0.60342 0.63598 0.3902 0.0
H1036 H 0.54653 0.63251 0.41746 0.0
H1037 H 0.55736 0.66383 0.38602 0.0
C1038 C 0.53953 0.57658 0.4373 0.0
C1039 C 0.55375 0.57355 0.45372 0.0
C1040 C 0.54604 0.59554 0.42234 0.0
C1041 C 0.56691 0.61182 0.4236 0.0
C1042 C 0.58102 0.60872 0.44058 0.0
C1043 C 0.57448 0.58973 0.45548 0.0
C1044 C 0.59961 0.66005 0.37219 0.0
C1045 C 0.58667 0.66806 0.37007 0.0
C1046 C 0.59337 0.64208 0.39004 0.0
C1047 C 0.57406 0.63166 0.40628 0.0
C1048 C 0.56135 0.63995 0.40482 0.0
C1049 C 0.56757 0.65792 0.38688 0.0
H1050 H 0.5357 0.09831 0.55896 0.0
H1051 H 0.47283 0.04786 0.5789 0.0
H1052 H 0.52767 0.12132 0.58431 0.0
H1053 H 0.4649 0.07074 0.60457 0.0
H1054 H 0.45183 0.12008 0.62535 0.0
H1055 H 0.46102 0.10052 0.59303 0.0
H1056 H 0.51977 0.12565 0.63901 0.0
H1057 H 0.51048 0.1449 0.67177 0.0
C1058 C 0.52012 0.09219 0.56849 0.0
C1059 C 0.50491 0.07127 0.56704 0.0
C1060 C 0.51557 0.10532 0.58319 0.0
C1061 C 0.49565 0.09785 0.59642 0.0
C1062 C 0.48033 0.07702 0.59432 0.0
C1063 C 0.48492 0.06387 0.57991 0.0
C1064 C 0.46675 0.12151 0.62852 0.0
C1065 C 0.48032 0.13395 0.65142 0.0
C1066 C 0.472 0.11031 0.60997 0.0
C1067 C 0.49103 0.1114 0.61368 0.0
C1068 C 0.50506 0.12462 0.63542 0.0
C1069 C 0.49975 0.13572 0.65413 0.0
H1070 H 0.44092 0.48096 0.00013 0.0
H1071 H 0.45854 0.458 0.07915 0.0
H1072 H 0.40543 0.46324 0.02033 0.0
H1073 H 0.42369 0.44121 0.10041 0.0
H1074 H 0.36055 0.41238 0.13907 0.0
H1075 H 0.38905 0.41899 0.10502 0.0
H1076 H 0.38762 0.46912 0.05878 0.0
H1077 H 0.35749 0.461 0.09055 0.0
C1078 C 0.43781 0.47354 0.02301 0.0
C1079 C 0.45388 0.4749 0.04151 0.0
C1080 C 0.4171 0.46274 0.03422 0.0
C1081 C 0.41177 0.45215 0.06351 0.0
C1082 C 0.42706 0.45003 0.0786 0.0
C1083 C 0.44759 0.46058 0.06699 0.0
C1084 C 0.36569 0.42436 0.12097 0.0
C1085 C 0.35665 0.43633 0.11818 0.0
C1086 C 0.38249 0.42844 0.10165 0.0
C1087 C 0.39124 0.44499 0.07948 0.0
C1088 C 0.38145 0.45619 0.07542 0.0
C1089 C 0.36429 0.45179 0.09425 0.0
H1090 H 0.0129 0.42916 0.56604 0.0
H1091 H 0.97472 0.45214 0.59493 0.0
H1092 H 0.98791 0.39562 0.59099 0.0
H1093 H 0.94982 0.41885 0.62043 0.0
H1094 H 0.90086 0.35218 0.64289 0.0
H1095 H 0.92415 0.38322 0.6111 0.0
H1096 H 0.9771 0.38127 0.64392 0.0
H1097 H 0.95392 0.35038 0.67556 0.0
C1098 C 0.99905 0.42688 0.57768 0.0
C1099 C 0.9956 0.44301 0.57881 0.0
C1100 C 0.98482 0.40781 0.59206 0.0
C1101 C 0.96688 0.40456 0.60779 0.0
C1102 C 0.9633 0.42072 0.60818 0.0
C1103 C 0.97755 0.43978 0.59382 0.0
C1104 C 0.91747 0.35835 0.64319 0.0
C1105 C 0.92551 0.34879 0.6618 0.0
C1106 C 0.93081 0.37614 0.62502 0.0
C1107 C 0.9525 0.38478 0.62505 0.0
C1108 C 0.96047 0.37488 0.64296 0.0
C1109 C 0.94715 0.35712 0.6611 0.0
H1110 H 0.53494 0.92433 0.06329 0.0
H1111 H 0.58954 0.97965 0.09244 0.0
H1112 H 0.54546 0.90393 0.0936 0.0
H1113 H 0.59976 0.95926 0.12342 0.0
H1114 H 0.62136 0.91659 0.15553 0.0
H1115 H 0.61197 0.9354 0.11906 0.0
H1116 H 0.5475 0.89678 0.14934 0.0
H1117 H 0.55684 0.87818 0.18594 0.0
C1118 C 0.54928 0.93214 0.07593 0.0
C1119 C 0.56137 0.95362 0.07555 0.0
C1120 C 0.55521 0.92044 0.09352 0.0
C1121 C 0.57341 0.92997 0.11099 0.0
C1122 C 0.58575 0.95145 0.10999 0.0
C1123 C 0.57977 0.96313 0.09254 0.0
C1124 C 0.60518 0.9121 0.15437 0.0
C1125 C 0.58988 0.89588 0.17375 0.0
C1126 C 0.59981 0.92287 0.13347 0.0
C1127 C 0.579 0.91762 0.13138 0.0
C1128 C 0.56362 0.90103 0.15005 0.0
C1129 C 0.56899 0.89032 0.17102 0.0
H1130 H 0.60729 0.55129 0.60286 0.0
H1131 H 0.61179 0.50492 0.55659 0.0
H1132 H 0.63676 0.5583 0.63426 0.0
H1133 H 0.64239 0.51315 0.58621 0.0
H1134 H 0.68168 0.51666 0.66971 0.0
H1135 H 0.65306 0.50954 0.63596 0.0
H1136 H 0.67275 0.57343 0.63348 0.0
H1137 H 0.7001 0.58019 0.66926 0.0
C1138 C 0.61457 0.54261 0.59924 0.0
C1139 C 0.60697 0.52745 0.57716 0.0
C1140 C 0.63179 0.5469 0.61694 0.0
C1141 C 0.64216 0.5364 0.61276 0.0
C1142 C 0.63473 0.52141 0.59042 0.0
C1143 C 0.6173 0.51691 0.57301 0.0
C1144 C 0.67984 0.52919 0.66218 0.0
C1145 C 0.69325 0.54899 0.67259 0.0
C1146 C 0.66354 0.52515 0.64238 0.0
C1147 C 0.66036 0.54086 0.6321 0.0
C1148 C 0.67434 0.56081 0.6414 0.0
C1149 C 0.6904 0.56478 0.66154 0.0
H1150 H 0.04793 0.58222 0.12894 0.0
H1151 H 0.1021 0.58527 0.08922 0.0
H1152 H 0.07055 0.61275 0.15764 0.0
H1153 H 0.12469 0.61597 0.11747 0.0
H1154 H 0.15503 0.65347 0.2046 0.0
H1155 H 0.13346 0.6245 0.17279 0.0
H1156 H 0.09635 0.65017 0.14772 0.0
H1157 H 0.11822 0.67949 0.17903 0.0
C1158 C 0.06466 0.58942 0.12634 0.0
C1159 C 0.07323 0.58133 0.10684 0.0
C1160 C 0.07761 0.60701 0.14252 0.0
C1161 C 0.09941 0.61677 0.13978 0.0
C1162 C 0.10796 0.60871 0.12022 0.0
C1163 C 0.09503 0.59124 0.10385 0.0
C1164 C 0.14257 0.65322 0.19182 0.0
C1165 C 0.13842 0.66889 0.19443 0.0
C1166 C 0.13014 0.63653 0.17368 0.0
C1167 C 0.11315 0.63501 0.15786 0.0
C1168 C 0.10915 0.65078 0.16002 0.0
C1169 C 0.12168 0.66757 0.17799 0.0
loop_
_geom_bond_atom_site_label_1
_geom_bond_atom_site_label_2
_geom_bond_distance
_geom_bond_site_symmetry_2
_ccdc_geom_bond_type
C0 C1 1.443 . S
C0 N4 1.376 . S
C0 C38 1.389 . S
C1 C0 1.443 . S
C1 C2 1.340 . S
C1 H41 0.951 . S
C2 C1 1.340 . S
C2 C3 1.439 . S
C2 H42 0.950 . S
C3 C2 1.439 . S
C3 N4 1.374 . S
C3 C37 1.395 . S
N4 C0 1.376 . S
N4 C3 1.374 . S
N4 Co5 2.008 1_655 S
Co5 N4 2.008 1_455 S
Co5 N6 1.979 . S
Co5 N11 2.008 . S
Co5 N16 1.995 . S
Co5 N21 2.282 . S
Co5 N27 2.282 1_455 S
N6 Co5 1.979 . S
N6 C7 1.342 1_455 S
N6 C10 1.440 . S
C7 N6 1.342 1_655 S
C7 C8 1.446 . S
C7 C37 1.391 . S
C8 C7 1.446 . S
C8 C9 1.339 1_655 S
C8 H43 0.949 . S
C9 C8 1.339 1_455 S
C9 C10 1.439 . S
C9 H44 0.950 . S
C10 N6 1.440 . S
C10 C9 1.439 . S
C10 C39 1.392 . S
N11 Co5 2.008 . S
N11 C12 1.376 . S
N11 C15 1.374 . S
C12 N11 1.376 . S
C12 C13 1.443 . S
C12 C39 1.389 . S
C13 C12 1.443 . S
C13 C14 1.340 . S
C13 H45 0.951 . S
C14 C13 1.340 . S
C14 C15 1.439 . S
C14 H46 0.969 . S
C15 N11 1.374 . S
C15 C14 1.439 . S
C15 C40 1.395 1_554 S
N16 Co5 1.995 . S
N16 C17 1.376 1_554 S
N16 C20 1.383 1_455 S
C17 N16 1.376 1_556 S
C17 C18 1.446 . S
C17 C40 1.391 . S
C18 C17 1.446 . S
C18 C19 1.339 1_455 S
C18 H47 0.949 . S
C19 C18 1.339 1_655 S
C19 C20 1.439 1_556 S
C19 H48 0.950 . S
C20 N16 1.383 1_655 S
C20 C19 1.439 1_554 S
C20 C38 1.392 . S
N21 Co5 2.282 . S
N21 C24 1.332 . S
N21 C26 1.332 . S
C22 C23 1.386 . S
C22 C25 1.388 . S
C23 C22 1.386 . S
C23 C24 1.382 . S
C23 H49 0.950 . S
C24 N21 1.332 . S
C24 C23 1.382 . S
C24 H35 0.952 . S
C25 C22 1.388 . S
C25 C26 1.382 . S
C25 H50 0.950 . S
C26 N21 1.332 . S
C26 C25 1.382 . S
C26 H36 0.948 . S
N27 Co5 2.282 1_655 S
N27 C31 1.332 . S
N27 C32 1.332 1_554 S
C28 C29 1.388 . S
C28 C32 1.382 . S
C28 H51 0.950 . S
C29 C28 1.388 . S
C29 C30 1.386 1_556 S
C30 C29 1.386 1_554 S
C30 C31 1.382 . S
C30 H52 0.950 . S
C31 N27 1.332 . S
C31 C30 1.382 . S
C31 H33 0.952 . S
C32 N27 1.332 1_556 S
C32 C28 1.382 . S
C32 H34 0.948 . S
H33 C31 0.952 . S
H34 C32 0.948 . S
H35 C24 0.952 . S
H36 C26 0.948 . S
C37 C3 1.395 . S
C37 C7 1.391 . S
C38 C0 1.389 . S
C38 C20 1.392 . S
C39 C10 1.392 . S
C39 C12 1.389 . S
C40 C15 1.395 1_556 S
C40 C17 1.391 . S
H41 C1 0.951 . S
H42 C2 0.950 . S
H43 C8 0.949 . S
H44 C9 0.950 . S
H45 C13 0.951 . S
H46 C14 0.969 . S
H47 C18 0.949 . S
H48 C19 0.950 . S
H49 C23 0.950 . S
H50 C25 0.950 . S
H51 C28 0.950 . S
H52 C30 0.950 . S
C53 C54 1.443 . S
C53 N57 1.376 . S
C53 C91 1.389 . S
C54 C53 1.443 . S
C54 C55 1.340 . S
C54 H94 0.951 . S
C55 C54 1.340 . S
C55 C56 1.439 1_545 S
C55 H95 0.950 1_545 S
C56 C55 1.439 1_565 S
C56 N57 1.374 1_565 S
C56 C90 1.395 . S
N57 C53 1.376 . S
N57 C56 1.374 1_545 S
N57 Co58 2.008 . S
Co58 N57 2.008 . S
Co58 N59 1.995 1_545 S
Co58 N64 2.008 . S
Co58 N69 1.995 . S
Co58 N74 2.282 1_545 S
Co58 N80 2.282 . S
N59 Co58 1.995 1_565 S
N59 C60 1.376 . S
N59 C63 1.383 . S
C60 N59 1.376 . S
C60 C61 1.446 . S
C60 C90 1.391 . S
C61 C60 1.446 . S
C61 C62 1.339 . S
C61 H96 0.949 . S
C62 C61 1.339 . S
C62 C63 1.439 . S
C62 H97 0.950 . S
C63 N59 1.383 . S
C63 C62 1.439 . S
C63 C92 1.392 . S
N64 Co58 2.008 . S
N64 C65 1.376 1_545 S
N64 C68 1.374 . S
C65 N64 1.376 1_565 S
C65 C66 1.443 . S
C65 C92 1.389 . S
C66 C65 1.443 . S
C66 C67 1.340 1_565 S
C66 H98 0.951 . S
C67 C66 1.340 1_545 S
C67 C68 1.439 . S
C67 H99 0.950 . S
C68 N64 1.374 . S
C68 C67 1.439 . S
C68 C93 1.395 . S
N69 Co58 1.995 . S
N69 C70 1.376 . S
N69 C73 1.383 . S
C70 N69 1.376 . S
C70 C71 1.446 . S
C70 C93 1.391 . S
C71 C70 1.446 . S
C71 C72 1.339 . S
C71 H100 0.949 . S
C72 C71 1.339 . S
C72 C73 1.439 . S
C72 H101 0.950 . S
C73 N69 1.383 . S
C73 C72 1.439 . S
C73 C91 1.392 . S
N74 Co58 2.282 1_565 S
N74 C77 1.332 . S
N74 C79 1.332 . S
C75 C76 1.386 . S
C75 C78 1.388 . S
C76 C75 1.386 . S
C76 C77 1.382 . S
C76 H102 0.950 . S
C77 N74 1.332 . S
C77 C76 1.382 . S
C77 H88 0.952 1_565 S
C78 C75 1.388 . S
C78 C79 1.382 . S
C78 H103 0.950 . S
C79 N74 1.332 . S
C79 C78 1.382 . S
C79 H89 0.948 . S
N80 Co58 2.282 . S
N80 C84 1.332 . S
N80 C85 1.332 . S
C81 C82 1.388 . S
C81 C85 1.382 . S
C81 H104 0.950 . S
C82 C81 1.388 . S
C82 C83 1.386 . S
C83 C82 1.386 . S
C83 C84 1.382 . S
C83 H105 0.950 . S
C84 N80 1.332 . S
C84 C83 1.382 . S
C84 H86 0.952 . S
C85 N80 1.332 . S
C85 C81 1.382 . S
C85 H87 0.948 . S
H86 C84 0.952 . S
H87 C85 0.948 . S
H88 C77 0.952 1_545 S
H89 C79 0.948 . S
C90 C56 1.395 . S
C90 C60 1.391 . S
C91 C53 1.389 . S
C91 C73 1.392 . S
C92 C63 1.392 . S
C92 C65 1.389 . S
C93 C68 1.395 . S
C93 C70 1.391 . S
H94 C54 0.951 . S
H95 C55 0.950 1_565 S
H96 C61 0.949 . S
H97 C62 0.950 . S
H98 C66 0.951 . S
H99 C67 0.950 . S
H100 C71 0.949 . S
H101 C72 0.950 . S
H102 C76 0.950 . S
H103 C78 0.950 . S
H104 C81 0.950 . S
H105 C83 0.950 . S
C106 C107 1.443 . S
C106 N110 1.376 . S
C106 C144 1.389 . S
C107 C106 1.443 . S
C107 C108 1.340 . S
C107 H147 0.951 . S
C108 C107 1.340 . S
C108 C109 1.439 . S
C108 H148 0.950 . S
C109 C108 1.439 . S
C109 N110 1.374 . S
C109 C143 1.395 . S
N110 C106 1.376 . S
N110 C109 1.374 . S
N110 Co111 2.008 1_556 S
Co111 N110 2.008 1_554 S
Co111 N112 1.995 1_554 S
Co111 N117 2.008 . S
Co111 N122 1.995 . S
Co111 N127 2.282 . S
Co111 N133 2.282 1_554 S
N112 Co111 1.995 1_556 S
N112 C113 1.376 . S
N112 C116 1.383 1_556 S
C113 N112 1.376 . S
C113 C114 1.446 . S
C113 C143 1.391 . S
C114 C113 1.446 . S
C114 C115 1.339 . S
C114 H149 0.949 . S
C115 C114 1.339 . S
C115 C116 1.439 1_556 S
C115 H150 0.950 . S
C116 N112 1.383 1_554 S
C116 C115 1.439 1_554 S
C116 C145 1.392 . S
N117 Co111 2.008 . S
N117 C118 1.376 . S
N117 C121 1.374 . S
C118 N117 1.376 . S
C118 C119 1.443 . S
C118 C145 1.389 . S
C119 C118 1.443 . S
C119 C120 1.340 . S
C119 H151 0.951 . S
C120 C119 1.340 . S
C120 C121 1.439 . S
C120 H152 0.950 . S
C121 N117 1.374 . S
C121 C120 1.439 . S
C121 C146 1.395 . S
N122 Co111 1.995 . S
N122 C123 1.376 . S
N122 C126 1.385 1_554 S
C123 N122 1.376 . S
C123 C124 1.446 . S
C123 C146 1.391 . S
C124 C123 1.446 . S
C124 C125 1.339 . S
C124 H153 0.949 . S
C125 C124 1.339 . S
C125 C126 1.441 1_554 S
C125 H154 0.950 . S
C126 N122 1.385 1_556 S
C126 C125 1.441 1_556 S
C126 C144 1.388 . S
N127 Co111 2.282 . S
N127 C130 1.332 . S
N127 C132 1.332 . S
C128 C129 1.386 . S
C128 C131 1.388 . S
C129 C128 1.386 . S
C129 C130 1.382 . S
C129 H155 0.950 . S
C130 N127 1.332 . S
C130 C129 1.382 . S
C130 H141 0.952 . S
C131 C128 1.388 . S
C131 C132 1.382 . S
C131 H156 0.950 . S
C132 N127 1.332 . S
C132 C131 1.382 . S
C132 H142 0.948 1_554 S
N133 Co111 2.282 1_556 S
N133 C137 1.332 . S
N133 C138 1.332 . S
C134 C135 1.388 . S
C134 C138 1.382 . S
C134 H157 0.950 . S
C135 C134 1.388 . S
C135 C136 1.386 . S
C136 C135 1.386 . S
C136 C137 1.382 . S
C136 H158 0.950 . S
C137 N133 1.332 . S
C137 C136 1.382 . S
C137 H139 0.952 . S
C138 N133 1.332 . S
C138 C134 1.382 . S
C138 H140 0.948 1_556 S
H139 C137 0.952 . S
H140 C138 0.948 1_554 S
H141 C130 0.952 . S
H142 C132 0.948 1_556 S
C143 C109 1.395 . S
C143 C113 1.391 . S
C144 C106 1.389 . S
C144 C126 1.388 . S
C145 C116 1.392 . S
C145 C118 1.389 . S
C146 C121 1.395 . S
C146 C123 1.391 . S
H147 C107 0.951 . S
H148 C108 0.950 . S
H149 C114 0.949 . S
H150 C115 0.950 . S
H151 C119 0.951 . S
H152 C120 0.950 . S
H153 C124 0.949 . S
H154 C125 0.950 . S
H155 C129 0.950 . S
H156 C131 0.950 . S
H157 C134 0.950 . S
H158 C136 0.950 . S
C159 C160 1.443 1_455 S
C159 N163 1.376 . S
C159 C197 1.389 . S
C160 C159 1.443 1_655 S
C160 C161 1.340 . S
C160 H200 0.951 . S
C161 C160 1.340 . S
C161 C162 1.439 1_655 S
C161 H201 0.950 . S
C162 C161 1.439 1_455 S
C162 N163 1.374 . S
C162 C196 1.395 . S
N163 C159 1.376 . S
N163 C162 1.374 . S
N163 Co164 2.008 . S
Co164 N163 2.008 . S
Co164 N165 1.995 . S
Co164 N170 2.008 . S
Co164 N175 1.995 . S
Co164 N180 2.282 . S
Co164 N186 2.282 . S
N165 Co164 1.995 . S
N165 C166 1.376 . S
N165 C169 1.383 . S
C166 N165 1.376 . S
C166 C167 1.446 . S
C166 C196 1.391 . S
C167 C166 1.446 . S
C167 C168 1.339 . S
C167 H202 0.949 . S
C168 C167 1.339 . S
C168 C169 1.439 . S
C168 H203 0.950 . S
C169 N165 1.383 . S
C169 C168 1.439 . S
C169 C198 1.392 . S
N170 Co164 2.008 . S
N170 C171 1.376 . S
N170 C174 1.374 . S
C171 N170 1.376 . S
C171 C172 1.443 . S
C171 C198 1.389 . S
C172 C171 1.443 . S
C172 C173 1.340 . S
C172 H204 0.951 . S
C173 C172 1.340 . S
C173 C174 1.439 . S
C173 H205 0.950 . S
C174 N170 1.374 . S
C174 C173 1.439 . S
C174 C199 1.395 . S
N175 Co164 1.995 . S
N175 C176 1.376 . S
N175 C179 1.383 . S
C176 N175 1.376 . S
C176 C177 1.446 . S
C176 C199 1.391 . S
C177 C176 1.446 . S
C177 C178 1.339 . S
C177 H206 0.949 . S
C178 C177 1.339 . S
C178 C179 1.439 . S
C178 H207 0.950 . S
C179 N175 1.383 . S
C179 C178 1.439 . S
C179 C197 1.392 . S
N180 Co164 2.282 . S
N180 C183 1.332 . S
N180 C185 1.332 . S
C181 C182 1.386 . S
C181 C184 1.388 . S
C182 C181 1.386 . S
C182 C183 1.382 . S
C182 H208 0.950 . S
C183 N180 1.332 . S
C183 C182 1.382 . S
C183 H194 0.952 . S
C184 C181 1.388 . S
C184 C185 1.382 . S
C184 H209 0.950 . S
C185 N180 1.332 . S
C185 C184 1.382 . S
C185 H195 0.948 . S
N186 Co164 2.282 . S
N186 C190 1.332 . S
N186 C191 1.332 . S
C187 C188 1.388 . S
C187 C191 1.382 . S
C187 H210 0.950 . S
C188 C187 1.388 . S
C188 C189 1.386 . S
C189 C188 1.386 . S
C189 C190 1.382 . S
C189 H211 0.950 1_455 S
C190 N186 1.332 . S
C190 C189 1.382 . S
C190 H192 0.952 . S
C191 N186 1.332 . S
C191 C187 1.382 . S
C191 H193 0.948 . S
H192 C190 0.952 . S
H193 C191 0.948 . S
H194 C183 0.952 . S
H195 C185 0.948 . S
C196 C162 1.395 . S
C196 C166 1.391 . S
C197 C159 1.389 . S
C197 C179 1.392 . S
C198 C169 1.392 . S
C198 C171 1.389 . S
C199 C174 1.395 . S
C199 C176 1.391 . S
H200 C160 0.951 . S
H201 C161 0.950 . S
H202 C167 0.949 . S
H203 C168 0.950 . S
H204 C172 0.951 . S
H205 C173 0.950 . S
H206 C177 0.949 . S
H207 C178 0.950 . S
H208 C182 0.950 . S
H209 C184 0.950 . S
H210 C187 0.950 . S
H211 C189 0.950 1_655 S
C212 C213 1.443 . S
C212 N216 1.376 1_565 S
C212 C250 1.389 . S
C213 C212 1.443 . S
C213 C214 1.340 1_565 S
C213 H253 0.951 . S
C214 C213 1.340 1_545 S
C214 C215 1.439 . S
C214 H254 0.950 . S
C215 C214 1.439 . S
C215 N216 1.374 . S
C215 C249 1.395 . S
N216 C212 1.376 1_545 S
N216 C215 1.374 . S
N216 Co217 2.008 . S
Co217 N216 2.008 . S
Co217 N218 1.995 . S
Co217 N223 2.008 1_554 S
Co217 N228 1.995 1_544 S
Co217 N233 2.282 1_554 S
Co217 N239 2.282 1_545 S
N218 Co217 1.995 . S
N218 C219 1.376 . S
N218 C222 1.383 1_554 S
C219 N218 1.376 . S
C219 C220 1.446 . S
C219 C249 1.391 . S
C220 C219 1.446 . S
C220 C221 1.339 . S
C220 H255 0.949 . S
C221 C220 1.339 . S
C221 C222 1.439 1_554 S
C221 H256 0.950 1_554 S
C222 N218 1.383 1_556 S
C222 C221 1.439 1_556 S
C222 C251 1.392 . S
N223 Co217 2.008 1_556 S
N223 C224 1.376 . S
N223 C227 1.374 1_545 S
C224 N223 1.376 . S
C224 C225 1.443 . S
C224 C251 1.389 . S
C225 C224 1.443 . S
C225 C226 1.340 . S
C225 H257 0.951 . S
C226 C225 1.340 . S
C226 C227 1.439 1_545 S
C226 H258 0.944 1_545 S
C227 N223 1.374 1_565 S
C227 C226 1.439 1_565 S
C227 C252 1.395 . S
N228 Co217 1.995 1_566 S
N228 C229 1.376 . S
N228 C232 1.383 1_556 S
C229 N228 1.376 . S
C229 C230 1.446 . S
C229 C252 1.391 . S
C230 C229 1.446 . S
C230 C231 1.339 . S
C230 H259 0.949 . S
C231 C230 1.339 . S
C231 C232 1.439 1_556 S
C231 H260 0.950 1_556 S
C232 N228 1.383 1_554 S
C232 C231 1.439 1_554 S
C232 C250 1.392 . S
N233 Co217 2.282 1_556 S
N233 C236 1.332 . S
N233 C238 1.332 . S
C234 C235 1.386 . S
C234 C237 1.388 . S
C235 C234 1.386 . S
C235 C236 1.382 . S
C235 H261 0.950 . S
C236 N233 1.332 . S
C236 C235 1.382 . S
C236 H247 0.952 . S
C237 C234 1.388 . S
C237 C238 1.382 . S
C237 H262 0.950 . S
C238 N233 1.332 . S
C238 C237 1.382 . S
C238 H248 0.948 1_556 S
N239 Co217 2.282 1_565 S
N239 C243 1.332 . S
N239 C244 1.332 . S
C240 C241 1.388 . S
C240 C244 1.382 . S
C240 H263 0.950 . S
C241 C240 1.388 . S
C241 C242 1.386 . S
C242 C241 1.386 . S
C242 C243 1.382 . S
C242 H264 0.950 . S
C243 N239 1.332 . S
C243 C242 1.382 . S
C243 H245 0.952 1_565 S
C244 N239 1.332 . S
C244 C240 1.382 . S
C244 H246 0.954 . S
H245 C243 0.952 1_545 S
H246 C244 0.954 . S
H247 C236 0.952 . S
H248 C238 0.948 1_554 S
C249 C215 1.395 . S
C249 C219 1.391 . S
C250 C212 1.389 . S
C250 C232 1.392 . S
C251 C222 1.392 . S
C251 C224 1.389 . S
C252 C227 1.395 . S
C252 C229 1.391 . S
H253 C213 0.951 . S
H254 C214 0.950 . S
H255 C220 0.949 . S
H256 C221 0.950 1_556 S
H257 C225 0.951 . S
H258 C226 0.944 1_565 S
H259 C230 0.949 . S
H260 C231 0.950 1_554 S
H261 C235 0.950 . S
H262 C237 0.950 . S
H263 C240 0.950 . S
H264 C242 0.950 . S
C265 C266 1.443 . S
C265 N269 1.376 . S
C265 C303 1.389 . S
C266 C265 1.443 . S
C266 C267 1.340 . S
C266 H306 0.951 . S
C267 C266 1.340 . S
C267 C268 1.439 . S
C267 H307 0.950 . S
C268 C267 1.439 . S
C268 N269 1.374 . S
C268 C302 1.395 . S
N269 C265 1.376 . S
N269 C268 1.374 . S
N269 Co270 2.008 . S
Co270 N269 2.008 . S
Co270 N271 1.995 . S
Co270 N276 2.008 . S
Co270 N281 1.995 . S
Co270 N286 2.282 . S
Co270 N292 2.282 . S
N271 Co270 1.995 . S
N271 C272 1.376 . S
N271 C275 1.383 . S
C272 N271 1.376 . S
C272 C273 1.446 . S
C272 C302 1.391 . S
C273 C272 1.446 . S
C273 C274 1.339 . S
C273 H308 0.949 . S
C274 C273 1.339 . S
C274 C275 1.439 . S
C274 H309 0.950 . S
C275 N271 1.383 . S
C275 C274 1.439 . S
C275 C304 1.392 . S
N276 Co270 2.008 . S
N276 C277 1.376 . S
N276 C280 1.374 . S
C277 N276 1.376 . S
C277 C278 1.443 . S
C277 C304 1.389 . S
C278 C277 1.443 . S
C278 C279 1.340 . S
C278 H310 0.951 . S
C279 C278 1.340 . S
C279 C280 1.439 . S
C279 H311 0.950 . S
C280 N276 1.374 . S
C280 C279 1.439 . S
C280 C305 1.395 . S
N281 Co270 1.995 . S
N281 C282 1.376 . S
N281 C285 1.383 . S
C282 N281 1.376 . S
C282 C283 1.446 . S
C282 C305 1.391 . S
C283 C282 1.446 . S
C283 C284 1.339 . S
C283 H312 0.949 . S
C284 C283 1.339 . S
C284 C285 1.439 . S
C284 H313 0.950 . S
C285 N281 1.383 . S
C285 C284 1.439 . S
C285 C303 1.392 . S
N286 Co270 2.282 . S
N286 C289 1.332 . S
N286 C291 1.332 . S
C287 C288 1.386 . S
C287 C290 1.388 . S
C288 C287 1.386 . S
C288 C289 1.382 . S
C288 H314 0.950 . S
C289 N286 1.332 . S
C289 C288 1.382 . S
C289 H300 0.952 . S
C290 C287 1.388 . S
C290 C291 1.382 . S
C290 H315 0.950 . S
C291 N286 1.332 . S
C291 C290 1.382 . S
C291 H301 0.948 . S
N292 Co270 2.282 . S
N292 C296 1.332 . S
N292 C297 1.332 . S
C293 C294 1.388 . S
C293 C297 1.382 . S
C293 H316 0.950 . S
C294 C293 1.388 . S
C294 C295 1.386 . S
C295 C294 1.386 . S
C295 C296 1.382 . S
C295 H317 0.950 . S
C296 N292 1.332 . S
C296 C295 1.382 . S
C296 H298 0.952 . S
C297 N292 1.332 . S
C297 C293 1.382 . S
C297 H299 0.948 . S
H298 C296 0.952 . S
H299 C297 0.948 . S
H300 C289 0.952 . S
H301 C291 0.948 . S
C302 C268 1.395 . S
C302 C272 1.391 . S
C303 C265 1.389 . S
C303 C285 1.392 . S
C304 C275 1.392 . S
C304 C277 1.389 . S
C305 C280 1.395 . S
C305 C282 1.391 . S
H306 C266 0.951 . S
H307 C267 0.950 . S
H308 C273 0.949 . S
H309 C274 0.950 . S
H310 C278 0.951 . S
H311 C279 0.950 . S
H312 C283 0.949 . S
H313 C284 0.950 . S
H314 C288 0.950 . S
H315 C290 0.950 . S
H316 C293 0.950 . S
H317 C295 0.950 . S
H318 C345 0.929 . S
N319 C344 1.433 . S
N319 C350 1.435 . S
N319 C356 1.423 . S
H320 C346 0.930 . S
H321 C349 0.931 . S
H322 C348 0.929 . S
H323 C351 0.930 . S
H324 C352 0.932 . S
H325 C355 0.929 . S
H326 C354 0.931 . S
H327 C357 0.929 . S
H328 C361 0.932 . S
H329 C358 0.931 . S
H330 C360 0.929 . S
H331 C363 0.929 . S
H332 C364 0.930 . S
H333 C366 0.929 . S
H334 C367 0.931 . S
H335 C369 0.930 . S
H336 C370 0.932 . S
H337 C372 0.931 . S
H338 C373 0.929 . S
H339 C375 0.929 . S
H340 C376 0.931 . S
H341 C378 0.929 . S
N342 C362 1.433 . S
N342 C368 1.435 . S
N342 C374 1.423 . S
H343 C379 0.932 . S
C344 N319 1.433 . S
C344 C345 1.363 . S
C344 C349 1.370 . S
C345 H318 0.929 . S
C345 C344 1.363 . S
C345 C346 1.385 . S
C346 H320 0.930 . S
C346 C345 1.385 . S
C346 C347 1.357 . S
C347 C346 1.357 . S
C347 C348 1.406 . S
C348 H322 0.929 . S
C348 C347 1.406 . S
C348 C349 1.391 . S
C349 H321 0.931 . S
C349 C344 1.370 . S
C349 C348 1.391 . S
C350 N319 1.435 . S
C350 C351 1.358 . S
C350 C355 1.371 . S
C351 H323 0.930 . S
C351 C350 1.358 . S
C351 C352 1.405 . S
C352 H324 0.932 . S
C352 C351 1.405 . S
C352 C353 1.383 . S
C353 C352 1.383 . S
C353 C354 1.393 . S
C354 H326 0.931 . S
C354 C353 1.393 . S
C354 C355 1.382 . S
C355 H325 0.929 . S
C355 C350 1.371 . S
C355 C354 1.382 . S
C356 N319 1.423 . S
C356 C357 1.362 . S
C356 C361 1.388 . S
C357 H327 0.929 . S
C357 C356 1.362 . S
C357 C358 1.376 . S
C358 H329 0.931 . S
C358 C357 1.376 . S
C358 C359 1.396 . S
C359 C358 1.396 . S
C359 C360 1.348 . S
C359 C377 1.472 . S
C360 H330 0.929 . S
C360 C359 1.348 . S
C360 C361 1.443 . S
C361 H328 0.932 . S
C361 C356 1.388 . S
C361 C360 1.443 . S
C362 N342 1.433 . S
C362 C363 1.363 . S
C362 C367 1.370 . S
C363 H331 0.929 . S
C363 C362 1.363 . S
C363 C364 1.385 . S
C364 H332 0.930 . S
C364 C363 1.385 . S
C364 C365 1.357 . S
C365 C364 1.357 . S
C365 C366 1.406 . S
C366 H333 0.929 . S
C366 C365 1.406 . S
C366 C367 1.391 . S
C367 H334 0.931 . S
C367 C362 1.370 . S
C367 C366 1.391 . S
C368 N342 1.435 . S
C368 C369 1.358 . S
C368 C373 1.371 . S
C369 H335 0.930 . S
C369 C368 1.358 . S
C369 C370 1.405 . S
C370 H336 0.932 . S
C370 C369 1.405 . S
C370 C371 1.383 . S
C371 C370 1.383 . S
C371 C372 1.393 . S
C372 H337 0.931 . S
C372 C371 1.393 . S
C372 C373 1.382 . S
C373 H338 0.929 . S
C373 C368 1.371 . S
C373 C372 1.382 . S
C374 N342 1.423 . S
C374 C375 1.362 . S
C374 C379 1.388 . S
C375 H339 0.929 . S
C375 C374 1.362 . S
C375 C376 1.376 . S
C376 H340 0.931 . S
C376 C375 1.376 . S
C376 C377 1.396 . S
C377 C359 1.472 . S
C377 C376 1.396 . S
C377 C378 1.348 . S
C378 H341 0.929 . S
C378 C377 1.348 . S
C378 C379 1.443 . S
C379 H343 0.932 . S
C379 C374 1.388 . S
C379 C378 1.443 . S
H380 C407 0.929 . S
N381 C406 1.433 . S
N381 C412 1.435 . S
N381 C418 1.423 . S
H382 C408 0.930 . S
H383 C411 0.931 . S
H384 C410 0.929 . S
H385 C413 0.930 . S
H386 C414 0.932 . S
H387 C417 0.929 . S
H388 C416 0.931 . S
H389 C419 0.929 . S
H390 C423 0.932 . S
H391 C420 0.931 . S
H392 C422 0.929 . S
H393 C425 0.929 . S
H394 C426 0.930 . S
H395 C428 0.929 . S
H396 C429 0.931 . S
H397 C431 0.930 . S
H398 C432 0.932 . S
H399 C434 0.931 . S
H400 C435 0.929 . S
H401 C437 0.929 . S
H402 C438 0.931 . S
H403 C440 0.929 . S
N404 C424 1.433 . S
N404 C430 1.435 . S
N404 C436 1.423 . S
H405 C441 0.932 . S
C406 N381 1.433 . S
C406 C407 1.363 . S
C406 C411 1.370 . S
C407 H380 0.929 . S
C407 C406 1.363 . S
C407 C408 1.385 . S
C408 H382 0.930 . S
C408 C407 1.385 . S
C408 C409 1.357 . S
C409 C408 1.357 . S
C409 C410 1.406 . S
C410 H384 0.929 . S
C410 C409 1.406 . S
C410 C411 1.391 . S
C411 H383 0.931 . S
C411 C406 1.370 . S
C411 C410 1.391 . S
C412 N381 1.435 . S
C412 C413 1.358 . S
C412 C417 1.371 . S
C413 H385 0.930 . S
C413 C412 1.358 . S
C413 C414 1.405 . S
C414 H386 0.932 . S
C414 C413 1.405 . S
C414 C415 1.383 . S
C415 C414 1.383 . S
C415 C416 1.393 . S
C416 H388 0.931 . S
C416 C415 1.393 . S
C416 C417 1.382 . S
C417 H387 0.929 . S
C417 C412 1.371 . S
C417 C416 1.382 . S
C418 N381 1.423 . S
C418 C419 1.362 . S
C418 C423 1.388 . S
C419 H389 0.929 . S
C419 C418 1.362 . S
C419 C420 1.376 . S
C420 H391 0.931 . S
C420 C419 1.376 . S
C420 C421 1.396 . S
C421 C420 1.396 . S
C421 C422 1.348 . S
C421 C439 1.472 . S
C422 H392 0.929 . S
C422 C421 1.348 . S
C422 C423 1.443 . S
C423 H390 0.932 . S
C423 C418 1.388 . S
C423 C422 1.443 . S
C424 N404 1.433 . S
C424 C425 1.363 . S
C424 C429 1.370 . S
C425 H393 0.929 . S
C425 C424 1.363 . S
C425 C426 1.385 . S
C426 H394 0.930 . S
C426 C425 1.385 . S
C426 C427 1.357 . S
C427 C426 1.357 . S
C427 C428 1.406 . S
C428 H395 0.929 . S
C428 C427 1.406 . S
C428 C429 1.391 . S
C429 H396 0.931 . S
C429 C424 1.370 . S
C429 C428 1.391 . S
C430 N404 1.435 . S
C430 C431 1.358 . S
C430 C435 1.371 . S
C431 H397 0.930 . S
C431 C430 1.358 . S
C431 C432 1.405 . S
C432 H398 0.932 . S
C432 C431 1.405 . S
C432 C433 1.383 . S
C433 C432 1.383 . S
C433 C434 1.393 . S
C434 H399 0.931 . S
C434 C433 1.393 . S
C434 C435 1.382 . S
C435 H400 0.929 . S
C435 C430 1.371 . S
C435 C434 1.382 . S
C436 N404 1.423 . S
C436 C437 1.362 . S
C436 C441 1.388 . S
C437 H401 0.929 . S
C437 C436 1.362 . S
C437 C438 1.376 . S
C438 H402 0.931 . S
C438 C437 1.376 . S
C438 C439 1.396 . S
C439 C421 1.472 . S
C439 C438 1.396 . S
C439 C440 1.348 . S
C440 H403 0.929 . S
C440 C439 1.348 . S
C440 C441 1.443 . S
C441 H405 0.932 . S
C441 C436 1.388 . S
C441 C440 1.443 . S
H442 C469 0.929 . S
N443 C468 1.433 . S
N443 C474 1.435 . S
N443 C480 1.423 . S
H444 C470 0.930 . S
H445 C473 0.931 . S
H446 C472 0.929 . S
H447 C475 0.930 . S
H448 C476 0.932 . S
H449 C479 0.929 . S
H450 C478 0.931 . S
H451 C481 0.929 . S
H452 C485 0.932 . S
H453 C482 0.931 . S
H454 C484 0.929 . S
H455 C487 0.929 . S
H456 C488 0.930 . S
H457 C490 0.929 . S
H458 C491 0.931 . S
H459 C493 0.930 . S
H460 C494 0.932 . S
H461 C496 0.931 . S
H462 C497 0.929 . S
H463 C499 0.929 . S
H464 C500 0.931 . S
H465 C502 0.929 . S
N466 C486 1.433 . S
N466 C492 1.435 . S
N466 C498 1.423 . S
H467 C503 0.932 . S
C468 N443 1.433 . S
C468 C469 1.363 . S
C468 C473 1.370 . S
C469 H442 0.929 . S
C469 C468 1.363 . S
C469 C470 1.385 . S
C470 H444 0.930 . S
C470 C469 1.385 . S
C470 C471 1.357 . S
C471 C470 1.357 . S
C471 C472 1.406 . S
C472 H446 0.929 . S
C472 C471 1.406 . S
C472 C473 1.391 . S
C473 H445 0.931 . S
C473 C468 1.370 . S
C473 C472 1.391 . S
C474 N443 1.435 . S
C474 C475 1.358 . S
C474 C479 1.371 . S
C475 H447 0.930 . S
C475 C474 1.358 . S
C475 C476 1.405 . S
C476 H448 0.932 . S
C476 C475 1.405 . S
C476 C477 1.383 . S
C477 C476 1.383 . S
C477 C478 1.393 . S
C478 H450 0.931 . S
C478 C477 1.393 . S
C478 C479 1.382 . S
C479 H449 0.929 . S
C479 C474 1.371 . S
C479 C478 1.382 . S
C480 N443 1.423 . S
C480 C481 1.362 . S
C480 C485 1.388 . S
C481 H451 0.929 . S
C481 C480 1.362 . S
C481 C482 1.376 . S
C482 H453 0.931 . S
C482 C481 1.376 . S
C482 C483 1.396 . S
C483 C482 1.396 . S
C483 C484 1.348 . S
C483 C501 1.472 . S
C484 H454 0.929 . S
C484 C483 1.348 . S
C484 C485 1.443 . S
C485 H452 0.932 . S
C485 C480 1.388 . S
C485 C484 1.443 . S
C486 N466 1.433 . S
C486 C487 1.363 . S
C486 C491 1.370 . S
C487 H455 0.929 . S
C487 C486 1.363 . S
C487 C488 1.385 . S
C488 H456 0.930 . S
C488 C487 1.385 . S
C488 C489 1.357 . S
C489 C488 1.357 . S
C489 C490 1.406 . S
C490 H457 0.929 . S
C490 C489 1.406 . S
C490 C491 1.391 . S
C491 H458 0.931 . S
C491 C486 1.370 . S
C491 C490 1.391 . S
C492 N466 1.435 . S
C492 C493 1.358 . S
C492 C497 1.371 . S
C493 H459 0.930 . S
C493 C492 1.358 . S
C493 C494 1.405 . S
C494 H460 0.932 . S
C494 C493 1.405 . S
C494 C495 1.383 . S
C495 C494 1.383 . S
C495 C496 1.393 . S
C496 H461 0.931 . S
C496 C495 1.393 . S
C496 C497 1.382 . S
C497 H462 0.929 . S
C497 C492 1.371 . S
C497 C496 1.382 . S
C498 N466 1.423 . S
C498 C499 1.362 . S
C498 C503 1.388 . S
C499 H463 0.929 . S
C499 C498 1.362 . S
C499 C500 1.376 . S
C500 H464 0.931 . S
C500 C499 1.376 . S
C500 C501 1.396 . S
C501 C483 1.472 . S
C501 C500 1.396 . S
C501 C502 1.348 . S
C502 H465 0.929 . S
C502 C501 1.348 . S
C502 C503 1.443 . S
C503 H467 0.932 . S
C503 C498 1.388 . S
C503 C502 1.443 . S
H504 C531 0.929 . S
N505 C530 1.433 . S
N505 C536 1.435 . S
N505 C542 1.423 . S
H506 C532 0.930 . S
H507 C535 0.931 . S
H508 C534 0.929 . S
H509 C537 0.930 . S
H510 C538 0.932 . S
H511 C541 0.929 . S
H512 C540 0.931 . S
H513 C543 0.929 . S
H514 C547 0.932 . S
H515 C544 0.931 . S
H516 C546 0.929 . S
H517 C549 0.929 . S
H518 C550 0.930 . S
H519 C552 0.929 . S
H520 C553 0.931 . S
H521 C555 0.930 . S
H522 C556 0.932 . S
H523 C558 0.931 . S
H524 C559 0.929 . S
H525 C561 0.929 . S
H526 C562 0.931 . S
H527 C564 0.929 . S
N528 C548 1.433 . S
N528 C554 1.435 . S
N528 C560 1.423 . S
H529 C565 0.932 . S
C530 N505 1.433 . S
C530 C531 1.363 . S
C530 C535 1.370 . S
C531 H504 0.929 . S
C531 C530 1.363 . S
C531 C532 1.385 . S
C532 H506 0.930 . S
C532 C531 1.385 . S
C532 C533 1.357 . S
C533 C532 1.357 . S
C533 C534 1.406 . S
C534 H508 0.929 . S
C534 C533 1.406 . S
C534 C535 1.391 . S
C535 H507 0.931 . S
C535 C530 1.370 . S
C535 C534 1.391 . S
C536 N505 1.435 . S
C536 C537 1.358 . S
C536 C541 1.371 . S
C537 H509 0.930 . S
C537 C536 1.358 . S
C537 C538 1.405 . S
C538 H510 0.932 . S
C538 C537 1.405 . S
C538 C539 1.383 . S
C539 C538 1.383 . S
C539 C540 1.393 . S
C540 H512 0.931 . S
C540 C539 1.393 . S
C540 C541 1.382 . S
C541 H511 0.929 . S
C541 C536 1.371 . S
C541 C540 1.382 . S
C542 N505 1.423 . S
C542 C543 1.362 . S
C542 C547 1.388 . S
C543 H513 0.929 . S
C543 C542 1.362 . S
C543 C544 1.376 . S
C544 H515 0.931 . S
C544 C543 1.376 . S
C544 C545 1.396 . S
C545 C544 1.396 . S
C545 C546 1.348 . S
C545 C563 1.472 . S
C546 H516 0.929 . S
C546 C545 1.348 . S
C546 C547 1.443 . S
C547 H514 0.932 . S
C547 C542 1.388 . S
C547 C546 1.443 . S
C548 N528 1.433 . S
C548 C549 1.363 . S
C548 C553 1.370 . S
C549 H517 0.929 . S
C549 C548 1.363 . S
C549 C550 1.385 . S
C550 H518 0.930 . S
C550 C549 1.385 . S
C550 C551 1.357 . S
C551 C550 1.357 . S
C551 C552 1.406 . S
C552 H519 0.929 . S
C552 C551 1.406 . S
C552 C553 1.391 . S
C553 H520 0.931 . S
C553 C548 1.370 . S
C553 C552 1.391 . S
C554 N528 1.435 . S
C554 C555 1.358 . S
C554 C559 1.371 . S
C555 H521 0.930 . S
C555 C554 1.358 . S
C555 C556 1.405 . S
C556 H522 0.932 . S
C556 C555 1.405 . S
C556 C557 1.383 . S
C557 C556 1.383 . S
C557 C558 1.393 . S
C558 H523 0.931 . S
C558 C557 1.393 . S
C558 C559 1.382 . S
C559 H524 0.929 . S
C559 C554 1.371 . S
C559 C558 1.382 . S
C560 N528 1.423 . S
C560 C561 1.362 . S
C560 C565 1.388 . S
C561 H525 0.929 . S
C561 C560 1.362 . S
C561 C562 1.376 . S
C562 H526 0.931 . S
C562 C561 1.376 . S
C562 C563 1.396 . S
C563 C545 1.472 . S
C563 C562 1.396 . S
C563 C564 1.348 . S
C564 H527 0.929 . S
C564 C563 1.348 . S
C564 C565 1.443 . S
C565 H529 0.932 . S
C565 C560 1.388 . S
C565 C564 1.443 . S
H566 C593 0.929 . S
N567 C592 1.433 . S
N567 C598 1.435 . S
N567 C604 1.423 . S
H568 C594 0.930 . S
H569 C597 0.931 . S
H570 C596 0.929 . S
H571 C599 0.930 . S
H572 C600 0.932 . S
H573 C603 0.929 . S
H574 C602 0.931 . S
H575 C605 0.929 . S
H576 C609 0.932 . S
H577 C606 0.931 . S
H578 C608 0.929 . S
H579 C611 0.929 . S
H580 C612 0.930 . S
H581 C614 0.929 . S
H582 C615 0.931 . S
H583 C617 0.930 . S
H584 C618 0.932 . S
H585 C620 0.931 . S
H586 C621 0.929 . S
H587 C623 0.929 . S
H588 C624 0.931 . S
H589 C626 0.929 . S
N590 C610 1.433 . S
N590 C616 1.435 . S
N590 C622 1.423 . S
H591 C627 0.932 . S
C592 N567 1.433 . S
C592 C593 1.363 . S
C592 C597 1.370 . S
C593 H566 0.929 . S
C593 C592 1.363 . S
C593 C594 1.385 . S
C594 H568 0.930 . S
C594 C593 1.385 . S
C594 C595 1.357 . S
C595 C594 1.357 . S
C595 C596 1.406 . S
C596 H570 0.929 . S
C596 C595 1.406 . S
C596 C597 1.391 . S
C597 H569 0.931 . S
C597 C592 1.370 . S
C597 C596 1.391 . S
C598 N567 1.435 . S
C598 C599 1.358 . S
C598 C603 1.371 . S
C599 H571 0.930 . S
C599 C598 1.358 . S
C599 C600 1.405 . S
C600 H572 0.932 . S
C600 C599 1.405 . S
C600 C601 1.383 . S
C601 C600 1.383 . S
C601 C602 1.393 . S
C602 H574 0.931 . S
C602 C601 1.393 . S
C602 C603 1.382 . S
C603 H573 0.929 . S
C603 C598 1.371 . S
C603 C602 1.382 . S
C604 N567 1.423 . S
C604 C605 1.362 . S
C604 C609 1.388 . S
C605 H575 0.929 . S
C605 C604 1.362 . S
C605 C606 1.376 . S
C606 H577 0.931 . S
C606 C605 1.376 . S
C606 C607 1.396 . S
C607 C606 1.396 . S
C607 C608 1.348 . S
C607 C625 1.472 . S
C608 H578 0.929 . S
C608 C607 1.348 . S
C608 C609 1.443 . S
C609 H576 0.932 . S
C609 C604 1.388 . S
C609 C608 1.443 . S
C610 N590 1.433 . S
C610 C611 1.363 . S
C610 C615 1.370 . S
C611 H579 0.929 . S
C611 C610 1.363 . S
C611 C612 1.385 . S
C612 H580 0.930 . S
C612 C611 1.385 . S
C612 C613 1.357 . S
C613 C612 1.357 . S
C613 C614 1.406 . S
C614 H581 0.929 . S
C614 C613 1.406 . S
C614 C615 1.391 . S
C615 H582 0.931 . S
C615 C610 1.370 . S
C615 C614 1.391 . S
C616 N590 1.435 . S
C616 C617 1.358 . S
C616 C621 1.371 . S
C617 H583 0.930 . S
C617 C616 1.358 . S
C617 C618 1.405 . S
C618 H584 0.932 . S
C618 C617 1.405 . S
C618 C619 1.383 . S
C619 C618 1.383 . S
C619 C620 1.393 . S
C620 H585 0.931 . S
C620 C619 1.393 . S
C620 C621 1.382 . S
C621 H586 0.929 . S
C621 C616 1.371 . S
C621 C620 1.382 . S
C622 N590 1.423 . S
C622 C623 1.362 . S
C622 C627 1.388 . S
C623 H587 0.929 . S
C623 C622 1.362 . S
C623 C624 1.376 . S
C624 H588 0.931 . S
C624 C623 1.376 . S
C624 C625 1.396 . S
C625 C607 1.472 . S
C625 C624 1.396 . S
C625 C626 1.348 . S
C626 H589 0.929 . S
C626 C625 1.348 . S
C626 C627 1.443 . S
C627 H591 0.932 . S
C627 C622 1.388 . S
C627 C626 1.443 . S
H628 C655 0.929 . S
N629 C654 1.433 . S
N629 C660 1.435 . S
N629 C666 1.423 . S
H630 C656 0.930 . S
H631 C659 0.931 . S
H632 C658 0.929 . S
H633 C661 0.930 . S
H634 C662 0.932 . S
H635 C665 0.929 . S
H636 C664 0.931 . S
H637 C667 0.929 . S
H638 C671 0.932 . S
H639 C668 0.931 . S
H640 C670 0.929 . S
H641 C673 0.929 . S
H642 C674 0.930 . S
H643 C676 0.929 . S
H644 C677 0.931 . S
H645 C679 0.930 . S
H646 C680 0.932 . S
H647 C682 0.931 . S
H648 C683 0.929 . S
H649 C685 0.929 . S
H650 C686 0.931 . S
H651 C688 0.929 . S
N652 C672 1.433 . S
N652 C678 1.435 . S
N652 C684 1.423 . S
H653 C689 0.932 . S
C654 N629 1.433 . S
C654 C655 1.363 . S
C654 C659 1.370 . S
C655 H628 0.929 . S
C655 C654 1.363 . S
C655 C656 1.385 . S
C656 H630 0.930 . S
C656 C655 1.385 . S
C656 C657 1.357 . S
C657 C656 1.357 . S
C657 C658 1.406 . S
C658 H632 0.929 . S
C658 C657 1.406 . S
C658 C659 1.391 . S
C659 H631 0.931 . S
C659 C654 1.370 . S
C659 C658 1.391 . S
C660 N629 1.435 . S
C660 C661 1.358 . S
C660 C665 1.371 . S
C661 H633 0.930 . S
C661 C660 1.358 . S
C661 C662 1.405 . S
C662 H634 0.932 . S
C662 C661 1.405 . S
C662 C663 1.383 . S
C663 C662 1.383 . S
C663 C664 1.393 . S
C664 H636 0.931 . S
C664 C663 1.393 . S
C664 C665 1.382 . S
C665 H635 0.929 . S
C665 C660 1.371 . S
C665 C664 1.382 . S
C666 N629 1.423 . S
C666 C667 1.362 . S
C666 C671 1.388 . S
C667 H637 0.929 . S
C667 C666 1.362 . S
C667 C668 1.376 . S
C668 H639 0.931 . S
C668 C667 1.376 . S
C668 C669 1.396 . S
C669 C668 1.396 . S
C669 C670 1.348 . S
C669 C687 1.472 . S
C670 H640 0.929 . S
C670 C669 1.348 . S
C670 C671 1.443 . S
C671 H638 0.932 . S
C671 C666 1.388 . S
C671 C670 1.443 . S
C672 N652 1.433 . S
C672 C673 1.363 . S
C672 C677 1.370 . S
C673 H641 0.929 . S
C673 C672 1.363 . S
C673 C674 1.385 . S
C674 H642 0.930 . S
C674 C673 1.385 . S
C674 C675 1.357 . S
C675 C674 1.357 . S
C675 C676 1.406 . S
C676 H643 0.929 . S
C676 C675 1.406 . S
C676 C677 1.391 . S
C677 H644 0.931 . S
C677 C672 1.370 . S
C677 C676 1.391 . S
C678 N652 1.435 . S
C678 C679 1.358 . S
C678 C683 1.371 . S
C679 H645 0.930 . S
C679 C678 1.358 . S
C679 C680 1.405 . S
C680 H646 0.932 . S
C680 C679 1.405 . S
C680 C681 1.383 . S
C681 C680 1.383 . S
C681 C682 1.393 . S
C682 H647 0.931 . S
C682 C681 1.393 . S
C682 C683 1.382 . S
C683 H648 0.929 . S
C683 C678 1.371 . S
C683 C682 1.382 . S
C684 N652 1.423 . S
C684 C685 1.362 . S
C684 C689 1.388 . S
C685 H649 0.929 . S
C685 C684 1.362 . S
C685 C686 1.376 . S
C686 H650 0.931 . S
C686 C685 1.376 . S
C686 C687 1.396 . S
C687 C669 1.472 . S
C687 C686 1.396 . S
C687 C688 1.348 . S
C688 H651 0.929 . S
C688 C687 1.348 . S
C688 C689 1.443 . S
C689 H653 0.932 . S
C689 C684 1.388 . S
C689 C688 1.443 . S
H690 C698 0.950 . S
H691 C703 0.950 . S
H692 C700 0.950 . S
H693 C702 0.950 . S
H694 C704 0.950 . S
H695 C706 0.950 . S
H696 C708 0.950 . S
H697 C709 0.950 . S
C698 H690 0.950 . S
C698 C699 1.386 . S
C698 C700 1.391 . S
C699 C698 1.386 . S
C699 C703 1.393 . S
C700 H692 0.950 . S
C700 C698 1.391 . S
C700 C701 1.400 . S
C701 C700 1.400 . S
C701 C702 1.398 . S
C701 C707 1.491 . S
C702 H693 0.950 . S
C702 C701 1.398 . S
C702 C703 1.391 . S
C703 H691 0.950 . S
C703 C699 1.393 . S
C703 C702 1.391 . S
C704 H694 0.950 . S
C704 C705 1.386 . S
C704 C706 1.391 . S
C705 C704 1.386 . S
C705 C709 1.393 . S
C706 H695 0.950 . S
C706 C704 1.391 . S
C706 C707 1.400 . S
C707 C701 1.491 . S
C707 C706 1.400 . S
C707 C708 1.398 . S
C708 H696 0.950 . S
C708 C707 1.398 . S
C708 C709 1.391 . S
C709 H697 0.950 . S
C709 C705 1.393 . S
C709 C708 1.391 . S
H710 C718 0.950 . S
H711 C723 0.950 . S
H712 C720 0.950 . S
H713 C722 0.950 . S
H714 C724 0.950 . S
H715 C726 0.950 . S
H716 C728 0.950 . S
H717 C729 0.950 . S
C718 H710 0.950 . S
C718 C719 1.386 . S
C718 C720 1.391 . S
C719 C718 1.386 . S
C719 C723 1.393 . S
C720 H712 0.950 . S
C720 C718 1.391 . S
C720 C721 1.400 . S
C721 C720 1.400 . S
C721 C722 1.398 . S
C721 C727 1.491 . S
C722 H713 0.950 . S
C722 C721 1.398 . S
C722 C723 1.391 . S
C723 H711 0.950 . S
C723 C719 1.393 . S
C723 C722 1.391 . S
C724 H714 0.950 . S
C724 C725 1.386 . S
C724 C726 1.391 . S
C725 C724 1.386 . S
C725 C729 1.393 . S
C726 H715 0.950 . S
C726 C724 1.391 . S
C726 C727 1.400 . S
C727 C721 1.491 . S
C727 C726 1.400 . S
C727 C728 1.398 . S
C728 H716 0.950 . S
C728 C727 1.398 . S
C728 C729 1.391 . S
C729 H717 0.950 . S
C729 C725 1.393 . S
C729 C728 1.391 . S
H730 C738 0.950 . S
H731 C743 0.950 . S
H732 C740 0.950 . S
H733 C742 0.950 . S
H734 C744 0.950 . S
H735 C746 0.950 . S
H736 C748 0.950 . S
H737 C749 0.950 . S
C738 H730 0.950 . S
C738 C739 1.386 . S
C738 C740 1.391 . S
C739 C738 1.386 . S
C739 C743 1.393 . S
C740 H732 0.950 . S
C740 C738 1.391 . S
C740 C741 1.400 . S
C741 C740 1.400 . S
C741 C742 1.398 . S
C741 C747 1.491 . S
C742 H733 0.950 . S
C742 C741 1.398 . S
C742 C743 1.391 . S
C743 H731 0.950 . S
C743 C739 1.393 . S
C743 C742 1.391 . S
C744 H734 0.950 . S
C744 C745 1.386 . S
C744 C746 1.391 . S
C745 C744 1.386 . S
C745 C749 1.393 . S
C746 H735 0.950 . S
C746 C744 1.391 . S
C746 C747 1.400 . S
C747 C741 1.491 . S
C747 C746 1.400 . S
C747 C748 1.398 . S
C748 H736 0.950 . S
C748 C747 1.398 . S
C748 C749 1.391 . S
C749 H737 0.950 . S
C749 C745 1.393 . S
C749 C748 1.391 . S
H750 C758 0.950 . S
H751 C763 0.950 . S
H752 C760 0.950 . S
H753 C762 0.950 . S
H754 C764 0.950 . S
H755 C766 0.950 . S
H756 C768 0.950 . S
H757 C769 0.950 . S
C758 H750 0.950 . S
C758 C759 1.386 . S
C758 C760 1.391 . S
C759 C758 1.386 . S
C759 C763 1.393 . S
C760 H752 0.950 . S
C760 C758 1.391 . S
C760 C761 1.400 . S
C761 C760 1.400 . S
C761 C762 1.398 . S
C761 C767 1.491 . S
C762 H753 0.950 . S
C762 C761 1.398 . S
C762 C763 1.391 . S
C763 H751 0.950 . S
C763 C759 1.393 . S
C763 C762 1.391 . S
C764 H754 0.950 . S
C764 C765 1.386 . S
C764 C766 1.391 . S
C765 C764 1.386 . S
C765 C769 1.393 . S
C766 H755 0.950 . S
C766 C764 1.391 . S
C766 C767 1.400 . S
C767 C761 1.491 . S
C767 C766 1.400 . S
C767 C768 1.398 . S
C768 H756 0.950 . S
C768 C767 1.398 . S
C768 C769 1.391 . S
C769 H757 0.950 . S
C769 C765 1.393 . S
C769 C768 1.391 . S
H770 C778 0.950 . S
H771 C783 0.950 . S
H772 C780 0.950 . S
H773 C782 0.950 . S
H774 C784 0.950 . S
H775 C786 0.950 . S
H776 C788 0.950 . S
H777 C789 0.950 . S
C778 H770 0.950 . S
C778 C779 1.386 . S
C778 C780 1.391 . S
C779 C778 1.386 . S
C779 C783 1.393 . S
C780 H772 0.950 . S
C780 C778 1.391 . S
C780 C781 1.400 . S
C781 C780 1.400 . S
C781 C782 1.398 . S
C781 C787 1.491 . S
C782 H773 0.950 . S
C782 C781 1.398 . S
C782 C783 1.391 . S
C783 H771 0.950 . S
C783 C779 1.393 . S
C783 C782 1.391 . S
C784 H774 0.950 . S
C784 C785 1.386 . S
C784 C786 1.391 . S
C785 C784 1.386 . S
C785 C789 1.393 . S
C786 H775 0.950 . S
C786 C784 1.391 . S
C786 C787 1.400 . S
C787 C781 1.491 . S
C787 C786 1.400 . S
C787 C788 1.398 . S
C788 H776 0.950 . S
C788 C787 1.398 . S
C788 C789 1.391 . S
C789 H777 0.950 . S
C789 C785 1.393 . S
C789 C788 1.391 . S
H790 C798 0.950 . S
H791 C803 0.950 . S
H792 C800 0.950 . S
H793 C802 0.950 . S
H794 C804 0.950 . S
H795 C806 0.950 . S
H796 C808 0.950 . S
H797 C809 0.950 . S
C798 H790 0.950 . S
C798 C799 1.386 . S
C798 C800 1.391 . S
C799 C798 1.386 . S
C799 C803 1.393 . S
C800 H792 0.950 . S
C800 C798 1.391 . S
C800 C801 1.400 . S
C801 C800 1.400 . S
C801 C802 1.398 . S
C801 C807 1.491 . S
C802 H793 0.950 . S
C802 C801 1.398 . S
C802 C803 1.391 . S
C803 H791 0.950 . S
C803 C799 1.393 . S
C803 C802 1.391 . S
C804 H794 0.950 . S
C804 C805 1.386 . S
C804 C806 1.391 . S
C805 C804 1.386 . S
C805 C809 1.393 . S
C806 H795 0.950 . S
C806 C804 1.391 . S
C806 C807 1.400 . S
C807 C801 1.491 . S
C807 C806 1.400 . S
C807 C808 1.398 . S
C808 H796 0.950 . S
C808 C807 1.398 . S
C808 C809 1.391 . S
C809 H797 0.950 . S
C809 C805 1.393 . S
C809 C808 1.391 . S
H810 C818 0.950 . S
H811 C823 0.950 . S
H812 C820 0.950 . S
H813 C822 0.950 . S
H814 C824 0.950 . S
H815 C826 0.950 . S
H816 C828 0.950 . S
H817 C829 0.950 . S
C818 H810 0.950 . S
C818 C819 1.386 . S
C818 C820 1.391 . S
C819 C818 1.386 . S
C819 C823 1.393 . S
C820 H812 0.950 . S
C820 C818 1.391 . S
C820 C821 1.400 . S
C821 C820 1.400 . S
C821 C822 1.398 . S
C821 C827 1.491 . S
C822 H813 0.950 . S
C822 C821 1.398 . S
C822 C823 1.391 . S
C823 H811 0.950 . S
C823 C819 1.393 . S
C823 C822 1.391 . S
C824 H814 0.950 . S
C824 C825 1.386 . S
C824 C826 1.391 . S
C825 C824 1.386 . S
C825 C829 1.393 . S
C826 H815 0.950 . S
C826 C824 1.391 . S
C826 C827 1.400 . S
C827 C821 1.491 . S
C827 C826 1.400 . S
C827 C828 1.398 . S
C828 H816 0.950 . S
C828 C827 1.398 . S
C828 C829 1.391 . S
C829 H817 0.950 . S
C829 C825 1.393 . S
C829 C828 1.391 . S
H830 C838 0.950 . S
H831 C843 0.950 . S
H832 C840 0.950 . S
H833 C842 0.950 . S
H834 C844 0.950 . S
H835 C846 0.950 . S
H836 C848 0.950 . S
H837 C849 0.950 . S
C838 H830 0.950 . S
C838 C839 1.386 . S
C838 C840 1.391 . S
C839 C838 1.386 . S
C839 C843 1.393 . S
C840 H832 0.950 . S
C840 C838 1.391 . S
C840 C841 1.400 . S
C841 C840 1.400 . S
C841 C842 1.398 . S
C841 C847 1.491 . S
C842 H833 0.950 . S
C842 C841 1.398 . S
C842 C843 1.391 . S
C843 H831 0.950 . S
C843 C839 1.393 . S
C843 C842 1.391 . S
C844 H834 0.950 . S
C844 C845 1.386 . S
C844 C846 1.391 . S
C845 C844 1.386 . S
C845 C849 1.393 . S
C846 H835 0.950 . S
C846 C844 1.391 . S
C846 C847 1.400 . S
C847 C841 1.491 . S
C847 C846 1.400 . S
C847 C848 1.398 . S
C848 H836 0.950 . S
C848 C847 1.398 . S
C848 C849 1.391 . S
C849 H837 0.950 . S
C849 C845 1.393 . S
C849 C848 1.391 . S
H850 C858 0.950 . S
H851 C863 0.950 . S
H852 C860 0.950 . S
H853 C862 0.950 . S
H854 C864 0.950 . S
H855 C866 0.950 . S
H856 C868 0.950 . S
H857 C869 0.950 . S
C858 H850 0.950 . S
C858 C859 1.386 . S
C858 C860 1.391 . S
C859 C858 1.386 . S
C859 C863 1.393 . S
C860 H852 0.950 . S
C860 C858 1.391 . S
C860 C861 1.400 . S
C861 C860 1.400 . S
C861 C862 1.398 . S
C861 C867 1.491 . S
C862 H853 0.950 . S
C862 C861 1.398 . S
C862 C863 1.391 . S
C863 H851 0.950 . S
C863 C859 1.393 . S
C863 C862 1.391 . S
C864 H854 0.950 . S
C864 C865 1.386 . S
C864 C866 1.391 . S
C865 C864 1.386 . S
C865 C869 1.393 . S
C866 H855 0.950 . S
C866 C864 1.391 . S
C866 C867 1.400 . S
C867 C861 1.491 . S
C867 C866 1.400 . S
C867 C868 1.398 . S
C868 H856 0.950 . S
C868 C867 1.398 . S
C868 C869 1.391 . S
C869 H857 0.950 . S
C869 C865 1.393 . S
C869 C868 1.391 . S
H870 C878 0.950 . S
H871 C883 0.950 . S
H872 C880 0.950 . S
H873 C882 0.950 . S
H874 C884 0.950 . S
H875 C886 0.950 . S
H876 C888 0.950 . S
H877 C889 0.950 . S
C878 H870 0.950 . S
C878 C879 1.386 . S
C878 C880 1.391 . S
C879 C878 1.386 . S
C879 C883 1.393 . S
C880 H872 0.950 . S
C880 C878 1.391 . S
C880 C881 1.400 . S
C881 C880 1.400 . S
C881 C882 1.398 . S
C881 C887 1.491 . S
C882 H873 0.950 . S
C882 C881 1.398 . S
C882 C883 1.391 . S
C883 H871 0.950 . S
C883 C879 1.393 . S
C883 C882 1.391 . S
C884 H874 0.950 . S
C884 C885 1.386 . S
C884 C886 1.391 . S
C885 C884 1.386 . S
C885 C889 1.393 . S
C886 H875 0.950 . S
C886 C884 1.391 . S
C886 C887 1.400 . S
C887 C881 1.491 . S
C887 C886 1.400 . S
C887 C888 1.398 . S
C888 H876 0.950 . S
C888 C887 1.398 . S
C888 C889 1.391 . S
C889 H877 0.950 . S
C889 C885 1.393 . S
C889 C888 1.391 . S
H890 C898 0.950 . S
H891 C903 0.950 . S
H892 C900 0.950 . S
H893 C902 0.950 . S
H894 C904 0.950 . S
H895 C906 0.950 . S
H896 C908 0.950 . S
H897 C909 0.950 . S
C898 H890 0.950 . S
C898 C899 1.386 . S
C898 C900 1.391 . S
C899 C898 1.386 . S
C899 C903 1.393 . S
C900 H892 0.950 . S
C900 C898 1.391 . S
C900 C901 1.400 . S
C901 C900 1.400 . S
C901 C902 1.398 . S
C901 C907 1.491 . S
C902 H893 0.950 . S
C902 C901 1.398 . S
C902 C903 1.391 . S
C903 H891 0.950 . S
C903 C899 1.393 . S
C903 C902 1.391 . S
C904 H894 0.950 . S
C904 C905 1.386 . S
C904 C906 1.391 . S
C905 C904 1.386 . S
C905 C909 1.393 . S
C906 H895 0.950 . S
C906 C904 1.391 . S
C906 C907 1.400 . S
C907 C901 1.491 . S
C907 C906 1.400 . S
C907 C908 1.398 . S
C908 H896 0.950 . S
C908 C907 1.398 . S
C908 C909 1.391 . S
C909 H897 0.950 . S
C909 C905 1.393 . S
C909 C908 1.391 . S
H910 C918 0.950 1_554 S
H911 C923 0.950 . S
H912 C920 0.950 . S
H913 C922 0.950 . S
H914 C924 0.950 . S
H915 C926 0.950 . S
H916 C928 0.950 . S
H917 C929 0.950 . S
C918 H910 0.950 1_556 S
C918 C919 1.386 . S
C918 C920 1.391 . S
C919 C918 1.386 . S
C919 C923 1.393 . S
C920 H912 0.950 . S
C920 C918 1.391 . S
C920 C921 1.400 . S
C921 C920 1.400 . S
C921 C922 1.398 . S
C921 C927 1.491 . S
C922 H913 0.950 . S
C922 C921 1.398 . S
C922 C923 1.391 . S
C923 H911 0.950 . S
C923 C919 1.393 . S
C923 C922 1.391 . S
C924 H914 0.950 . S
C924 C925 1.386 . S
C924 C926 1.391 . S
C925 C924 1.386 . S
C925 C929 1.393 . S
C926 H915 0.950 . S
C926 C924 1.391 . S
C926 C927 1.400 . S
C927 C921 1.491 . S
C927 C926 1.400 . S
C927 C928 1.398 . S
C928 H916 0.950 . S
C928 C927 1.398 . S
C928 C929 1.391 . S
C929 H917 0.950 . S
C929 C925 1.393 . S
C929 C928 1.391 . S
H930 C938 0.950 . S
H931 C943 0.950 . S
H932 C940 0.950 . S
H933 C942 0.950 . S
H934 C944 0.950 . S
H935 C946 0.950 . S
H936 C948 0.950 . S
H937 C949 0.950 . S
C938 H930 0.950 . S
C938 C939 1.386 1_554 S
C938 C940 1.391 1_554 S
C939 C938 1.386 1_556 S
C939 C943 1.393 . S
C940 H932 0.950 . S
C940 C938 1.391 1_556 S
C940 C941 1.400 . S
C941 C940 1.400 . S
C941 C942 1.398 . S
C941 C947 1.491 . S
C942 H933 0.950 . S
C942 C941 1.398 . S
C942 C943 1.391 . S
C943 H931 0.950 . S
C943 C939 1.393 . S
C943 C942 1.391 . S
C944 H934 0.950 . S
C944 C945 1.386 . S
C944 C946 1.391 . S
C945 C944 1.386 . S
C945 C949 1.393 . S
C946 H935 0.950 . S
C946 C944 1.391 . S
C946 C947 1.400 . S
C947 C941 1.491 . S
C947 C946 1.400 . S
C947 C948 1.398 . S
C948 H936 0.950 . S
C948 C947 1.398 . S
C948 C949 1.391 . S
C949 H937 0.950 . S
C949 C945 1.393 . S
C949 C948 1.391 . S
H950 C958 0.950 . S
H951 C963 0.950 . S
H952 C960 0.950 . S
H953 C962 0.950 . S
H954 C964 0.950 . S
H955 C966 0.950 . S
H956 C968 0.950 . S
H957 C969 0.950 . S
C958 H950 0.950 . S
C958 C959 1.386 . S
C958 C960 1.391 . S
C959 C958 1.386 . S
C959 C963 1.393 . S
C960 H952 0.950 . S
C960 C958 1.391 . S
C960 C961 1.400 . S
C961 C960 1.400 . S
C961 C962 1.398 . S
C961 C967 1.491 . S
C962 H953 0.950 . S
C962 C961 1.398 . S
C962 C963 1.391 . S
C963 H951 0.950 . S
C963 C959 1.393 . S
C963 C962 1.391 . S
C964 H954 0.950 . S
C964 C965 1.386 . S
C964 C966 1.391 . S
C965 C964 1.386 . S
C965 C969 1.393 . S
C966 H955 0.950 . S
C966 C964 1.391 . S
C966 C967 1.400 . S
C967 C961 1.491 . S
C967 C966 1.400 . S
C967 C968 1.398 . S
C968 H956 0.950 . S
C968 C967 1.398 . S
C968 C969 1.391 . S
C969 H957 0.950 . S
C969 C965 1.393 . S
C969 C968 1.391 . S
H970 C978 0.950 . S
H971 C983 0.950 . S
H972 C980 0.950 . S
H973 C982 0.950 . S
H974 C984 0.950 . S
H975 C986 0.950 . S
H976 C988 0.950 . S
H977 C989 0.950 . S
C978 H970 0.950 . S
C978 C979 1.386 . S
C978 C980 1.391 . S
C979 C978 1.386 . S
C979 C983 1.393 . S
C980 H972 0.950 . S
C980 C978 1.391 . S
C980 C981 1.400 . S
C981 C980 1.400 . S
C981 C982 1.398 . S
C981 C987 1.491 . S
C982 H973 0.950 . S
C982 C981 1.398 . S
C982 C983 1.391 . S
C983 H971 0.950 . S
C983 C979 1.393 . S
C983 C982 1.391 . S
C984 H974 0.950 . S
C984 C985 1.386 . S
C984 C986 1.391 . S
C985 C984 1.386 . S
C985 C989 1.393 . S
C986 H975 0.950 . S
C986 C984 1.391 . S
C986 C987 1.400 . S
C987 C981 1.491 . S
C987 C986 1.400 . S
C987 C988 1.398 . S
C988 H976 0.950 . S
C988 C987 1.398 . S
C988 C989 1.391 . S
C989 H977 0.950 . S
C989 C985 1.393 . S
C989 C988 1.391 . S
H990 C998 0.950 . S
H991 C1003 0.950 . S
H992 C1000 0.950 . S
H993 C1002 0.950 . S
H994 C1004 0.950 . S
H995 C1006 0.950 . S
H996 C1008 0.950 . S
H997 C1009 0.950 . S
C998 H990 0.950 . S
C998 C999 1.386 . S
C998 C1000 1.391 . S
C999 C998 1.386 . S
C999 C1003 1.393 . S
C1000 H992 0.950 . S
C1000 C998 1.391 . S
C1000 C1001 1.400 . S
C1001 C1000 1.400 . S
C1001 C1002 1.398 . S
C1001 C1007 1.491 . S
C1002 H993 0.950 . S
C1002 C1001 1.398 . S
C1002 C1003 1.391 . S
C1003 H991 0.950 . S
C1003 C999 1.393 . S
C1003 C1002 1.391 . S
C1004 H994 0.950 . S
C1004 C1005 1.386 . S
C1004 C1006 1.391 . S
C1005 C1004 1.386 . S
C1005 C1009 1.393 . S
C1006 H995 0.950 . S
C1006 C1004 1.391 . S
C1006 C1007 1.400 . S
C1007 C1001 1.491 . S
C1007 C1006 1.400 . S
C1007 C1008 1.398 . S
C1008 H996 0.950 . S
C1008 C1007 1.398 . S
C1008 C1009 1.391 . S
C1009 H997 0.950 . S
C1009 C1005 1.393 . S
C1009 C1008 1.391 . S
H1010 C1018 0.950 . S
H1011 C1023 0.950 . S
H1012 C1020 0.950 . S
H1013 C1022 0.950 . S
H1014 C1024 0.950 . S
H1015 C1026 0.950 . S
H1016 C1028 0.950 . S
H1017 C1029 0.950 . S
C1018 H1010 0.950 . S
C1018 C1019 1.386 . S
C1018 C1020 1.391 . S
C1019 C1018 1.386 . S
C1019 C1023 1.393 . S
C1020 H1012 0.950 . S
C1020 C1018 1.391 . S
C1020 C1021 1.400 . S
C1021 C1020 1.400 . S
C1021 C1022 1.398 . S
C1021 C1027 1.491 . S
C1022 H1013 0.950 . S
C1022 C1021 1.398 . S
C1022 C1023 1.391 . S
C1023 H1011 0.950 . S
C1023 C1019 1.393 . S
C1023 C1022 1.391 . S
C1024 H1014 0.950 . S
C1024 C1025 1.386 . S
C1024 C1026 1.391 . S
C1025 C1024 1.386 . S
C1025 C1029 1.393 . S
C1026 H1015 0.950 . S
C1026 C1024 1.391 . S
C1026 C1027 1.400 . S
C1027 C1021 1.491 . S
C1027 C1026 1.400 . S
C1027 C1028 1.398 . S
C1028 H1016 0.950 . S
C1028 C1027 1.398 . S
C1028 C1029 1.391 . S
C1029 H1017 0.950 . S
C1029 C1025 1.393 . S
C1029 C1028 1.391 . S
H1030 C1038 0.950 . S
H1031 C1043 0.950 . S
H1032 C1040 0.950 . S
H1033 C1042 0.950 . S
H1034 C1044 0.950 . S
H1035 C1046 0.950 . S
H1036 C1048 0.950 . S
H1037 C1049 0.950 . S
C1038 H1030 0.950 . S
C1038 C1039 1.386 . S
C1038 C1040 1.391 . S
C1039 C1038 1.386 . S
C1039 C1043 1.393 . S
C1040 H1032 0.950 . S
C1040 C1038 1.391 . S
C1040 C1041 1.400 . S
C1041 C1040 1.400 . S
C1041 C1042 1.398 . S
C1041 C1047 1.491 . S
C1042 H1033 0.950 . S
C1042 C1041 1.398 . S
C1042 C1043 1.391 . S
C1043 H1031 0.950 . S
C1043 C1039 1.393 . S
C1043 C1042 1.391 . S
C1044 H1034 0.950 . S
C1044 C1045 1.386 . S
C1044 C1046 1.391 . S
C1045 C1044 1.386 . S
C1045 C1049 1.393 . S
C1046 H1035 0.950 . S
C1046 C1044 1.391 . S
C1046 C1047 1.400 . S
C1047 C1041 1.491 . S
C1047 C1046 1.400 . S
C1047 C1048 1.398 . S
C1048 H1036 0.950 . S
C1048 C1047 1.398 . S
C1048 C1049 1.391 . S
C1049 H1037 0.950 . S
C1049 C1045 1.393 . S
C1049 C1048 1.391 . S
H1050 C1058 0.950 . S
H1051 C1063 0.950 . S
H1052 C1060 0.950 . S
H1053 C1062 0.950 . S
H1054 C1064 0.950 . S
H1055 C1066 0.950 . S
H1056 C1068 0.950 . S
H1057 C1069 0.950 . S
C1058 H1050 0.950 . S
C1058 C1059 1.386 . S
C1058 C1060 1.391 . S
C1059 C1058 1.386 . S
C1059 C1063 1.393 . S
C1060 H1052 0.950 . S
C1060 C1058 1.391 . S
C1060 C1061 1.400 . S
C1061 C1060 1.400 . S
C1061 C1062 1.398 . S
C1061 C1067 1.491 . S
C1062 H1053 0.950 . S
C1062 C1061 1.398 . S
C1062 C1063 1.391 . S
C1063 H1051 0.950 . S
C1063 C1059 1.393 . S
C1063 C1062 1.391 . S
C1064 H1054 0.950 . S
C1064 C1065 1.386 . S
C1064 C1066 1.391 . S
C1065 C1064 1.386 . S
C1065 C1069 1.393 . S
C1066 H1055 0.950 . S
C1066 C1064 1.391 . S
C1066 C1067 1.400 . S
C1067 C1061 1.491 . S
C1067 C1066 1.400 . S
C1067 C1068 1.398 . S
C1068 H1056 0.950 . S
C1068 C1067 1.398 . S
C1068 C1069 1.391 . S
C1069 H1057 0.950 . S
C1069 C1065 1.393 . S
C1069 C1068 1.391 . S
H1070 C1078 0.950 . S
H1071 C1083 0.950 . S
H1072 C1080 0.950 . S
H1073 C1082 0.950 . S
H1074 C1084 0.950 . S
H1075 C1086 0.950 . S
H1076 C1088 0.950 . S
H1077 C1089 0.950 . S
C1078 H1070 0.950 . S
C1078 C1079 1.386 . S
C1078 C1080 1.391 . S
C1079 C1078 1.386 . S
C1079 C1083 1.393 . S
C1080 H1072 0.950 . S
C1080 C1078 1.391 . S
C1080 C1081 1.400 . S
C1081 C1080 1.400 . S
C1081 C1082 1.398 . S
C1081 C1087 1.491 . S
C1082 H1073 0.950 . S
C1082 C1081 1.398 . S
C1082 C1083 1.391 . S
C1083 H1071 0.950 . S
C1083 C1079 1.393 . S
C1083 C1082 1.391 . S
C1084 H1074 0.950 . S
C1084 C1085 1.386 . S
C1084 C1086 1.391 . S
C1085 C1084 1.386 . S
C1085 C1089 1.393 . S
C1086 H1075 0.950 . S
C1086 C1084 1.391 . S
C1086 C1087 1.400 . S
C1087 C1081 1.491 . S
C1087 C1086 1.400 . S
C1087 C1088 1.398 . S
C1088 H1076 0.950 . S
C1088 C1087 1.398 . S
C1088 C1089 1.391 . S
C1089 H1077 0.950 . S
C1089 C1085 1.393 . S
C1089 C1088 1.391 . S
H1090 C1098 0.950 . S
H1091 C1103 0.950 . S
H1092 C1100 0.950 . S
H1093 C1102 0.950 . S
H1094 C1104 0.950 . S
H1095 C1106 0.950 . S
H1096 C1108 0.950 . S
H1097 C1109 0.950 . S
C1098 H1090 0.950 . S
C1098 C1099 1.386 . S
C1098 C1100 1.391 1_455 S
C1099 C1098 1.386 . S
C1099 C1103 1.393 1_455 S
C1100 H1092 0.950 . S
C1100 C1098 1.391 1_655 S
C1100 C1101 1.400 . S
C1101 C1100 1.400 . S
C1101 C1102 1.398 . S
C1101 C1107 1.491 . S
C1102 H1093 0.950 . S
C1102 C1101 1.398 . S
C1102 C1103 1.391 . S
C1103 H1091 0.950 . S
C1103 C1099 1.393 1_655 S
C1103 C1102 1.391 . S
C1104 H1094 0.950 . S
C1104 C1105 1.386 . S
C1104 C1106 1.391 . S
C1105 C1104 1.386 . S
C1105 C1109 1.393 . S
C1106 H1095 0.950 . S
C1106 C1104 1.391 . S
C1106 C1107 1.400 . S
C1107 C1101 1.491 . S
C1107 C1106 1.400 . S
C1107 C1108 1.398 . S
C1108 H1096 0.950 . S
C1108 C1107 1.398 . S
C1108 C1109 1.391 . S
C1109 H1097 0.950 . S
C1109 C1105 1.393 . S
C1109 C1108 1.391 . S
H1110 C1118 0.950 . S
H1111 C1123 0.950 . S
H1112 C1120 0.950 . S
H1113 C1122 0.950 . S
H1114 C1124 0.950 . S
H1115 C1126 0.950 . S
H1116 C1128 0.950 . S
H1117 C1129 0.950 . S
C1118 H1110 0.950 . S
C1118 C1119 1.386 . S
C1118 C1120 1.391 . S
C1119 C1118 1.386 . S
C1119 C1123 1.393 . S
C1120 H1112 0.950 . S
C1120 C1118 1.391 . S
C1120 C1121 1.400 . S
C1121 C1120 1.400 . S
C1121 C1122 1.398 . S
C1121 C1127 1.491 . S
C1122 H1113 0.950 . S
C1122 C1121 1.398 . S
C1122 C1123 1.391 . S
C1123 H1111 0.950 . S
C1123 C1119 1.393 . S
C1123 C1122 1.391 . S
C1124 H1114 0.950 . S
C1124 C1125 1.386 . S
C1124 C1126 1.391 . S
C1125 C1124 1.386 . S
C1125 C1129 1.393 . S
C1126 H1115 0.950 . S
C1126 C1124 1.391 . S
C1126 C1127 1.400 . S
C1127 C1121 1.491 . S
C1127 C1126 1.400 . S
C1127 C1128 1.398 . S
C1128 H1116 0.950 . S
C1128 C1127 1.398 . S
C1128 C1129 1.391 . S
C1129 H1117 0.950 . S
C1129 C1125 1.393 . S
C1129 C1128 1.391 . S
H1130 C1138 0.950 . S
H1131 C1143 0.950 . S
H1132 C1140 0.950 . S
H1133 C1142 0.950 . S
H1134 C1144 0.950 . S
H1135 C1146 0.950 . S
H1136 C1148 0.950 . S
H1137 C1149 0.950 . S
C1138 H1130 0.950 . S
C1138 C1139 1.386 . S
C1138 C1140 1.391 . S
C1139 C1138 1.386 . S
C1139 C1143 1.393 . S
C1140 H1132 0.950 . S
C1140 C1138 1.391 . S
C1140 C1141 1.400 . S
C1141 C1140 1.400 . S
C1141 C1142 1.398 . S
C1141 C1147 1.491 . S
C1142 H1133 0.950 . S
C1142 C1141 1.398 . S
C1142 C1143 1.391 . S
C1143 H1131 0.950 . S
C1143 C1139 1.393 . S
C1143 C1142 1.391 . S
C1144 H1134 0.950 . S
C1144 C1145 1.386 . S
C1144 C1146 1.391 . S
C1145 C1144 1.386 . S
C1145 C1149 1.393 . S
C1146 H1135 0.950 . S
C1146 C1144 1.391 . S
C1146 C1147 1.400 . S
C1147 C1141 1.491 . S
C1147 C1146 1.400 . S
C1147 C1148 1.398 . S
C1148 H1136 0.950 . S
C1148 C1147 1.398 . S
C1148 C1149 1.391 . S
C1149 H1137 0.950 . S
C1149 C1145 1.393 . S
C1149 C1148 1.391 . S
H1150 C1158 0.950 . S
H1151 C1163 0.950 . S
H1152 C1160 0.950 . S
H1153 C1162 0.950 . S
H1154 C1164 0.950 . S
H1155 C1166 0.950 . S
H1156 C1168 0.950 . S
H1157 C1169 0.950 . S
C1158 H1150 0.950 . S
C1158 C1159 1.386 . S
C1158 C1160 1.391 . S
C1159 C1158 1.386 . S
C1159 C1163 1.393 . S
C1160 H1152 0.950 . S
C1160 C1158 1.391 . S
C1160 C1161 1.400 . S
C1161 C1160 1.400 . S
C1161 C1162 1.398 . S
C1161 C1167 1.491 . S
C1162 H1153 0.950 . S
C1162 C1161 1.398 . S
C1162 C1163 1.391 . S
C1163 H1151 0.950 . S
C1163 C1159 1.393 . S
C1163 C1162 1.391 . S
C1164 H1154 0.950 . S
C1164 C1165 1.386 . S
C1164 C1166 1.391 . S
C1165 C1164 1.386 . S
C1165 C1169 1.393 . S
C1166 H1155 0.950 . S
C1166 C1164 1.391 . S
C1166 C1167 1.400 . S
C1167 C1161 1.491 . S
C1167 C1166 1.400 . S
C1167 C1168 1.398 . S
C1168 H1156 0.950 . S
C1168 C1167 1.398 . S
C1168 C1169 1.391 . S
C1169 H1157 0.950 . S
C1169 C1165 1.393 . S
C1169 C1168 1.391 . S
C699 C39 1.748 . S
C705 C371 1.656 . S
C719 C91 1.763 . S
C725 C415 1.705 . S
C745 C495 1.446 . S
C739 C128 1.488 . S
C765 C539 1.479 . S
C759 C188 1.513 1_655 S
C785 C619 1.608 . S
C779 C250 1.680 . S
C805 C675 1.778 . S
C799 C304 1.929 . S
C819 C75 1.888 . S
C825 C471 1.671 . S
C839 C144 1.758 . S
C845 C551 1.624 . S
C865 C595 1.690 . S
C859 C198 1.846 . S
C885 C663 1.484 . S
C879 C234 1.506 . S
C899 C294 1.521 . S
C905 C347 1.422 . S
C925 C427 1.633 . S
C919 C29 1.693 . S
C945 C533 1.788 . S
C939 C38 1.914 1_556 S
C959 C92 1.725 . S
C965 C613 1.561 . S
C985 C681 1.512 . S
C979 C135 1.526 . S
C999 C181 1.687 . S
C1005 C365 1.600 . S
C1019 C251 1.597 . S
C1025 C409 1.535 . S
C1039 C303 1.955 . S
C1045 C489 1.715 . S
C1059 C82 1.853 . S
C1065 C657 1.669 . S
C1085 C353 1.680 . S
C1079 C145 1.789 . S
C1099 C197 1.670 . S
C1105 C433 1.620 . S
C1119 C241 1.464 . S
C1125 C477 1.401 . S
C1139 C287 1.604 . S
C1145 C557 1.577 . S
C1159 C22 1.539 . S
C1165 C601 1.489 . S
