# Generated by pormake.
# Topology cml, (3,6)-cn, num edge types: 1
# Building blocks:
#     Node 0, Type 0, BuildingBlock: BELTOD_clean_linker_0, # of connection points: 3
#     Node 1, Type 0, BuildingBlock: BELTOD_clean_linker_0, # of connection points: 3
#     Node 2, Type 0, BuildingBlock: BELTOD_clean_linker_0, # of connection points: 3
#     Node 3, Type 0, BuildingBlock: BELTOD_clean_linker_0, # of connection points: 3
#     Node 4, Type 0, BuildingBlock: BELTOD_clean_linker_0, # of connection points: 3
#     Node 5, Type 0, BuildingBlock: BELTOD_clean_linker_0, # of connection points: 3
#     Node 6, Type 0, BuildingBlock: BELTOD_clean_linker_0, # of connection points: 3
#     Node 7, Type 0, BuildingBlock: BELTOD_clean_linker_0, # of connection points: 3
#     Node 8, Type 1, BuildingBlock: IZENUY_clean_sbu_0, # of connection points: 6
#     Node 9, Type 1, BuildingBlock: IZENUY_clean_sbu_0, # of connection points: 6
#     Node 10, Type 1, BuildingBlock: IZENUY_clean_sbu_0, # of connection points: 6
#     Node 11, Type 1, BuildingBlock: IZENUY_clean_sbu_0, # of connection points: 6
#     Edge 12, Type (0, 1), None
#     Edge 13, Type (0, 1), None
#     Edge 14, Type (0, 1), None
#     Edge 15, Type (0, 1), None
#     Edge 16, Type (0, 1), None
#     Edge 17, Type (0, 1), None
#     Edge 18, Type (0, 1), None
#     Edge 19, Type (0, 1), None
#     Edge 20, Type (0, 1), None
#     Edge 21, Type (0, 1), None
#     Edge 22, Type (0, 1), None
#     Edge 23, Type (0, 1), None
#     Edge 24, Type (0, 1), None
#     Edge 25, Type (0, 1), None
#     Edge 26, Type (0, 1), None
#     Edge 27, Type (0, 1), None
#     Edge 28, Type (0, 1), None
#     Edge 29, Type (0, 1), None
#     Edge 30, Type (0, 1), None
#     Edge 31, Type (0, 1), None
#     Edge 32, Type (0, 1), None
#     Edge 33, Type (0, 1), None
#     Edge 34, Type (0, 1), None
#     Edge 35, Type (0, 1), None
# Relax obj value: 0.048
# Max RMSD: 0.066
# Mean RMSD: 0.063
data_MOF--net-cml--node1-IZENUY_clean_sbu_0--node2-BELTOD_clean_linker_0--edge1-none
_symmetry_space_group_name_H-M    P1
_symmetry_Int_Tables_number       1
_symmetry_cell_setting            triclinic
loop_
_symmetry_equiv_pos_as_xyz
'x, y, z'
_cell_length_a     21.043046
_cell_length_b     24.291806
_cell_length_c     22.318012
_cell_angle_alpha  89.667934
_cell_angle_beta   89.648813
_cell_angle_gamma 89.979267
loop_
_atom_site_label
_atom_site_type_symbol
_atom_site_fract_x
_atom_site_fract_y
_atom_site_fract_z
_atom_type_partial_charge
P0 P 0.33641 0.33296 0.97615 0.0
H1 H 0.36704 0.24685 0.06296 0.0
H2 H 0.40599 0.2525 0.1656 0.0
H3 H 0.36356 0.42651 0.16776 0.0
H4 H 0.32141 0.41997 0.06619 0.0
H5 H 0.28815 0.31333 0.85729 0.0
H6 H 0.18925 0.27384 0.82088 0.0
H7 H 0.11803 0.26448 0.00293 0.0
H8 H 0.21706 0.30483 0.03876 0.0
H9 H 0.4488 0.39589 0.99887 0.0
H10 H 0.27735 0.41707 0.89591 0.0
O11 O 0.38896 0.28783 0.94924 0.0
H12 H 0.48399 0.48726 0.9691 0.0
H13 H 0.31489 0.50823 0.86258 0.0
C14 C 0.3436 0.33331 0.05641 0.0
C15 C 0.36402 0.28576 0.08626 0.0
C16 C 0.38627 0.28911 0.14493 0.0
C17 C 0.38921 0.34034 0.17389 0.0
C18 C 0.36279 0.38679 0.14593 0.0
C19 C 0.33882 0.38301 0.08791 0.0
C20 C 0.25964 0.31213 0.95051 0.0
C21 C 0.25063 0.30382 0.88915 0.0
C22 C 0.19406 0.28121 0.86847 0.0
C23 C 0.14585 0.26579 0.90907 0.0
C24 C 0.15433 0.27583 0.97054 0.0
C25 C 0.21089 0.29896 0.99111 0.0
C26 C 0.36051 0.39975 0.94982 0.0
C27 C 0.41869 0.42029 0.9698 0.0
C28 C 0.4384 0.47275 0.95327 0.0
C29 C 0.40129 0.50505 0.91462 0.0
C30 C 0.34358 0.48418 0.89322 0.0
C31 C 0.32263 0.43197 0.91168 0.0
P32 P 0.76932 0.59141 0.52479 0.0
H33 H 0.7476 0.47363 0.53125 0.0
H34 H 0.67261 0.4126 0.48217 0.0
H35 H 0.6015 0.54989 0.37813 0.0
H36 H 0.67725 0.61098 0.42808 0.0
H37 H 0.7935 0.70727 0.55378 0.0
H38 H 0.85433 0.77868 0.50231 0.0
H39 H 0.88245 0.6699 0.35183 0.0
H40 H 0.82004 0.5989 0.40335 0.0
H41 H 0.76639 0.55217 0.6482 0.0
H42 H 0.66943 0.67449 0.54191 0.0
O43 O 0.83191 0.55517 0.54822 0.0
H44 H 0.69633 0.57157 0.73271 0.0
H45 H 0.59926 0.695 0.62713 0.0
C46 C 0.71899 0.54651 0.48225 0.0
C47 C 0.71671 0.49047 0.4971 0.0
C48 C 0.6734 0.45564 0.46921 0.0
C49 C 0.63095 0.47629 0.42612 0.0
C50 C 0.63383 0.53256 0.41077 0.0
C51 C 0.67718 0.56751 0.4391 0.0
C52 C 0.80078 0.64817 0.48176 0.0
C53 C 0.81061 0.69939 0.50882 0.0
C54 C 0.84591 0.74021 0.47938 0.0
C55 C 0.87359 0.72994 0.42301 0.0
C56 C 0.86187 0.67913 0.39523 0.0
C57 C 0.82584 0.63861 0.42445 0.0
C58 C 0.7238 0.61257 0.58915 0.0
C59 C 0.73094 0.58419 0.64347 0.0
C60 C 0.69065 0.59523 0.69178 0.0
C61 C 0.64221 0.63483 0.68664 0.0
C62 C 0.63647 0.66461 0.63268 0.0
C63 C 0.67647 0.65295 0.58398 0.0
P64 P 0.77377 0.40766 0.02853 0.0
H65 H 0.76792 0.44586 0.15168 0.0
H66 H 0.69529 0.42681 0.23457 0.0
H67 H 0.59996 0.30449 0.12789 0.0
H68 H 0.67302 0.32447 0.04416 0.0
H69 H 0.82442 0.40287 0.90658 0.0
H70 H 0.88596 0.33282 0.85339 0.0
H71 H 0.8577 0.22036 0.002 0.0
H72 H 0.79746 0.2908 0.05496 0.0
H73 H 0.75342 0.52602 0.03758 0.0
H74 H 0.68328 0.39238 0.93046 0.0
O75 O 0.83673 0.44224 0.05346 0.0
H76 H 0.67999 0.58946 0.98821 0.0
H77 H 0.60972 0.45541 0.88053 0.0
C78 C 0.72675 0.38579 0.09214 0.0
C79 C 0.73245 0.41401 0.14639 0.0
C80 C 0.69064 0.40321 0.19378 0.0
C81 C 0.642 0.36398 0.18791 0.0
C82 C 0.6375 0.33438 0.13408 0.0
C83 C 0.67914 0.34577 0.08623 0.0
C84 C 0.80494 0.35175 0.98418 0.0
C85 C 0.82997 0.36257 0.92692 0.0
C86 C 0.86553 0.32252 0.89667 0.0
C87 C 0.87711 0.27086 0.92337 0.0
C88 C 0.8496 0.25948 0.97979 0.0
C89 C 0.8146 0.29975 0.01014 0.0
C90 C 0.7249 0.4548 0.98654 0.0
C91 C 0.723 0.51055 0.00253 0.0
C92 C 0.6807 0.54676 0.97448 0.0
C93 C 0.63903 0.52771 0.93018 0.0
C94 C 0.64147 0.4717 0.91407 0.0
C95 C 0.68366 0.43553 0.94239 0.0
P96 P 0.33069 0.66427 0.47471 0.0
H97 H 0.35606 0.62417 0.35437 0.0
H98 H 0.38985 0.53477 0.31685 0.0
H99 H 0.36686 0.46505 0.49438 0.0
H100 H 0.33043 0.55437 0.53105 0.0
H101 H 0.25672 0.75535 0.5243 0.0
H102 H 0.1577 0.79882 0.49152 0.0
H103 H 0.13639 0.67425 0.356 0.0
H104 H 0.23276 0.62927 0.39072 0.0
H105 H 0.45428 0.64816 0.52397 0.0
H106 H 0.26503 0.67536 0.59337 0.0
O107 O 0.37893 0.70672 0.43696 0.0
H108 H 0.49414 0.63858 0.62554 0.0
H109 H 0.30626 0.66917 0.69648 0.0
C110 C 0.34272 0.59617 0.44571 0.0
C111 C 0.35684 0.58932 0.38486 0.0
C112 C 0.3757 0.53802 0.36345 0.0
C113 C 0.38196 0.49304 0.40299 0.0
C114 C 0.36301 0.49912 0.46307 0.0
C115 C 0.34268 0.55026 0.48411 0.0
C116 C 0.25131 0.68809 0.46131 0.0
C117 C 0.22923 0.73594 0.48943 0.0
C118 C 0.17307 0.76101 0.47035 0.0
C119 C 0.13992 0.73972 0.42127 0.0
C120 C 0.16136 0.69134 0.39391 0.0
C121 C 0.21637 0.66548 0.41411 0.0
C122 C 0.35713 0.66386 0.55111 0.0
C123 C 0.42151 0.65324 0.56118 0.0
C124 C 0.44417 0.64742 0.61917 0.0
C125 C 0.40312 0.65327 0.66844 0.0
C126 C 0.3386 0.66481 0.65887 0.0
C127 C 0.31533 0.66892 0.60016 0.0
P128 P 0.83641 0.83296 0.97615 0.0
H129 H 0.86705 0.74685 0.06296 0.0
H130 H 0.90599 0.7525 0.1656 0.0
H131 H 0.86356 0.92651 0.16776 0.0
H132 H 0.82142 0.91997 0.06619 0.0
H133 H 0.78815 0.81332 0.85729 0.0
H134 H 0.68925 0.77384 0.82088 0.0
H135 H 0.61803 0.76448 0.00293 0.0
H136 H 0.71706 0.80483 0.03876 0.0
H137 H 0.9488 0.89589 0.99887 0.0
H138 H 0.77735 0.91707 0.89591 0.0
O139 O 0.88896 0.78783 0.94923 0.0
H140 H 0.98399 0.98726 0.9691 0.0
H141 H 0.81489 0.00823 0.86258 0.0
C142 C 0.8436 0.83331 0.05641 0.0
C143 C 0.86402 0.78576 0.08626 0.0
C144 C 0.88627 0.78911 0.14493 0.0
C145 C 0.88921 0.84033 0.17389 0.0
C146 C 0.86279 0.88679 0.14593 0.0
C147 C 0.83882 0.88301 0.08791 0.0
C148 C 0.75964 0.81213 0.95051 0.0
C149 C 0.75063 0.80382 0.88915 0.0
C150 C 0.69406 0.78121 0.86847 0.0
C151 C 0.64585 0.76579 0.90907 0.0
C152 C 0.65433 0.77583 0.97054 0.0
C153 C 0.71089 0.79896 0.99111 0.0
C154 C 0.86051 0.89975 0.94982 0.0
C155 C 0.91869 0.92029 0.96979 0.0
C156 C 0.9384 0.97275 0.95327 0.0
C157 C 0.9013 0.00505 0.91462 0.0
C158 C 0.84358 0.98418 0.89322 0.0
C159 C 0.82263 0.93197 0.91168 0.0
P160 P 0.26932 0.09141 0.52479 0.0
H161 H 0.2476 0.97363 0.53125 0.0
H162 H 0.17261 0.9126 0.48217 0.0
H163 H 0.1015 0.04989 0.37813 0.0
H164 H 0.17725 0.11098 0.42808 0.0
H165 H 0.2935 0.20727 0.55378 0.0
H166 H 0.35433 0.27868 0.50231 0.0
H167 H 0.38245 0.1699 0.35183 0.0
H168 H 0.32004 0.0989 0.40335 0.0
H169 H 0.26639 0.05217 0.6482 0.0
H170 H 0.16943 0.17449 0.54191 0.0
O171 O 0.33191 0.05517 0.54822 0.0
H172 H 0.19633 0.07158 0.73271 0.0
H173 H 0.09926 0.195 0.62713 0.0
C174 C 0.21899 0.04651 0.48225 0.0
C175 C 0.21671 0.99047 0.4971 0.0
C176 C 0.1734 0.95564 0.46921 0.0
C177 C 0.13095 0.97629 0.42612 0.0
C178 C 0.13383 0.03256 0.41077 0.0
C179 C 0.17718 0.06751 0.4391 0.0
C180 C 0.30078 0.14817 0.48176 0.0
C181 C 0.31061 0.19939 0.50882 0.0
C182 C 0.34591 0.24021 0.47938 0.0
C183 C 0.37359 0.22994 0.42301 0.0
C184 C 0.36187 0.17913 0.39523 0.0
C185 C 0.32584 0.13861 0.42445 0.0
C186 C 0.2238 0.11257 0.58915 0.0
C187 C 0.23094 0.08419 0.64347 0.0
C188 C 0.19065 0.09523 0.69178 0.0
C189 C 0.14221 0.13483 0.68664 0.0
C190 C 0.13647 0.16461 0.63268 0.0
C191 C 0.17647 0.15295 0.58398 0.0
P192 P 0.27377 0.90766 0.02853 0.0
H193 H 0.26792 0.94586 0.15168 0.0
H194 H 0.19529 0.92681 0.23457 0.0
H195 H 0.09996 0.80449 0.12789 0.0
H196 H 0.17302 0.82447 0.04416 0.0
H197 H 0.32442 0.90287 0.90658 0.0
H198 H 0.38596 0.83282 0.85339 0.0
H199 H 0.3577 0.72036 0.002 0.0
H200 H 0.29746 0.7908 0.05497 0.0
H201 H 0.25342 0.02602 0.03758 0.0
H202 H 0.18328 0.89238 0.93046 0.0
O203 O 0.33673 0.94224 0.05346 0.0
H204 H 0.17999 0.08946 0.98821 0.0
H205 H 0.10972 0.95541 0.88053 0.0
C206 C 0.22675 0.88579 0.09214 0.0
C207 C 0.23245 0.91401 0.14639 0.0
C208 C 0.19064 0.90321 0.19378 0.0
C209 C 0.142 0.86398 0.18791 0.0
C210 C 0.1375 0.83438 0.13408 0.0
C211 C 0.17914 0.84577 0.08623 0.0
C212 C 0.30495 0.85175 0.98418 0.0
C213 C 0.32997 0.86257 0.92692 0.0
C214 C 0.36553 0.82252 0.89668 0.0
C215 C 0.37711 0.77087 0.92337 0.0
C216 C 0.3496 0.75948 0.97979 0.0
C217 C 0.3146 0.79975 0.01014 0.0
C218 C 0.2249 0.9548 0.98654 0.0
C219 C 0.223 0.01055 0.00253 0.0
C220 C 0.1807 0.04676 0.97448 0.0
C221 C 0.13903 0.02771 0.93018 0.0
C222 C 0.14147 0.9717 0.91407 0.0
C223 C 0.18366 0.93553 0.94239 0.0
P224 P 0.83069 0.16427 0.47471 0.0
H225 H 0.85606 0.12417 0.35437 0.0
H226 H 0.88985 0.03477 0.31685 0.0
H227 H 0.86686 0.96505 0.49438 0.0
H228 H 0.83042 0.05437 0.53105 0.0
H229 H 0.75672 0.25535 0.5243 0.0
H230 H 0.6577 0.29882 0.49152 0.0
H231 H 0.63639 0.17425 0.356 0.0
H232 H 0.73276 0.12927 0.39072 0.0
H233 H 0.95428 0.14816 0.52397 0.0
H234 H 0.76503 0.17537 0.59337 0.0
O235 O 0.87893 0.20672 0.43695 0.0
H236 H 0.99414 0.13857 0.62554 0.0
H237 H 0.80626 0.16917 0.69648 0.0
C238 C 0.84272 0.09617 0.44571 0.0
C239 C 0.85684 0.08932 0.38486 0.0
C240 C 0.8757 0.03802 0.36345 0.0
C241 C 0.88196 0.99304 0.40299 0.0
C242 C 0.86301 0.99912 0.46307 0.0
C243 C 0.84268 0.05026 0.48411 0.0
C244 C 0.75131 0.18809 0.46131 0.0
C245 C 0.72923 0.23594 0.48943 0.0
C246 C 0.67307 0.26101 0.47035 0.0
C247 C 0.63992 0.23972 0.42127 0.0
C248 C 0.66136 0.19134 0.39391 0.0
C249 C 0.71637 0.16548 0.41411 0.0
C250 C 0.85713 0.16386 0.55111 0.0
C251 C 0.92151 0.15324 0.56118 0.0
C252 C 0.94417 0.14742 0.61917 0.0
C253 C 0.90312 0.15327 0.66844 0.0
C254 C 0.83861 0.16481 0.65887 0.0
C255 C 0.81533 0.16892 0.60015 0.0
Fe256 Fe 0.00767 0.79053 0.30169 0.0
Fe257 Fe -0.00139 0.85528 0.41922 0.0
O258 O 0.00346 0.85421 0.34001 0.0
Fe259 Fe 0.00477 0.91678 0.2992 0.0
O260 O 0.96164 0.88889 0.23449 0.0
O261 O 0.93541 0.80464 0.26144 0.0
O262 O 0.95854 0.75294 0.35691 0.0
C263 C 0.91924 0.76961 0.39617 0.0
C264 C 0.09284 0.85894 0.23543 0.0
O265 O 0.92502 0.81668 0.41913 0.0
C266 C 0.08255 0.93941 0.39971 0.0
O267 O 0.0802 0.77219 0.3396 0.0
O268 O 0.04647 0.79293 0.43029 0.0
O269 O 0.08129 0.90066 0.26682 0.0
O270 O 0.05757 0.81667 0.239 0.0
C271 C 0.91813 0.94404 0.38406 0.0
O272 O 0.07208 0.89349 0.42438 0.0
O273 O 0.04837 0.95596 0.35658 0.0
C274 C 0.08634 0.77024 0.39569 0.0
O275 O 0.95087 0.91859 0.42279 0.0
O276 O 0.92856 0.93731 0.32903 0.0
C277 C 0.92737 0.84629 0.22857 0.0
Fe278 Fe 0.00683 0.14896 0.91976 0.0
Fe279 Fe 0.01002 0.08292 0.80373 0.0
O280 O 0.00774 0.14701 0.84058 0.0
Fe281 Fe 0.00719 0.20879 0.79813 0.0
O282 O 0.08032 0.23121 0.83219 0.0
O283 O 0.05214 0.21333 0.9252 0.0
O284 O 0.08232 0.11252 0.9241 0.0
C285 C 0.09144 0.06514 0.90265 0.0
C286 C 0.92243 0.23131 0.89558 0.0
O287 O 0.05516 0.0468 0.86237 0.0
C288 C 0.93007 0.1475 0.72863 0.0
O289 O 0.96213 0.08449 0.92819 0.0
O290 O 0.93459 0.0627 0.83662 0.0
O291 O 0.95801 0.24716 0.85261 0.0
O292 O 0.93169 0.18541 0.92087 0.0
C293 C 0.09448 0.14036 0.73517 0.0
O294 O 0.96661 0.10695 0.7376 0.0
O295 O 0.93403 0.18991 0.76061 0.0
C296 C 0.92795 0.05713 0.89247 0.0
O297 O 0.0855 0.09957 0.76933 0.0
O298 O 0.05693 0.18134 0.73634 0.0
C299 C 0.08962 0.23553 0.88766 0.0
Fe300 Fe 0.50767 0.29053 0.30169 0.0
Fe301 Fe 0.49861 0.35528 0.41922 0.0
O302 O 0.50346 0.35421 0.34001 0.0
Fe303 Fe 0.50477 0.41678 0.2992 0.0
O304 O 0.46164 0.38889 0.23449 0.0
O305 O 0.43541 0.30465 0.26144 0.0
O306 O 0.45854 0.25294 0.35691 0.0
C307 C 0.41924 0.26961 0.39617 0.0
C308 C 0.59284 0.35894 0.23543 0.0
O309 O 0.42502 0.31668 0.41913 0.0
C310 C 0.58255 0.43941 0.39971 0.0
O311 O 0.5802 0.27219 0.3396 0.0
O312 O 0.54647 0.29293 0.43029 0.0
O313 O 0.58129 0.40066 0.26682 0.0
O314 O 0.55757 0.31667 0.239 0.0
C315 C 0.41813 0.44404 0.38406 0.0
O316 O 0.57208 0.39349 0.42438 0.0
O317 O 0.54837 0.45596 0.35658 0.0
C318 C 0.58634 0.27024 0.39569 0.0
O319 O 0.45087 0.41859 0.42279 0.0
O320 O 0.42856 0.43731 0.32903 0.0
C321 C 0.42737 0.34629 0.22857 0.0
Fe322 Fe 0.50683 0.64896 0.91976 0.0
Fe323 Fe 0.51002 0.58292 0.80373 0.0
O324 O 0.50774 0.64701 0.84058 0.0
Fe325 Fe 0.50719 0.70879 0.79813 0.0
O326 O 0.58033 0.73121 0.83219 0.0
O327 O 0.55214 0.71333 0.9252 0.0
O328 O 0.58232 0.61252 0.9241 0.0
C329 C 0.59144 0.56514 0.90265 0.0
C330 C 0.42243 0.73131 0.89558 0.0
O331 O 0.55516 0.5468 0.86237 0.0
C332 C 0.43007 0.6475 0.72863 0.0
O333 O 0.46213 0.58449 0.92819 0.0
O334 O 0.43459 0.5627 0.83662 0.0
O335 O 0.45801 0.74716 0.85261 0.0
O336 O 0.43169 0.68541 0.92087 0.0
C337 C 0.59448 0.64036 0.73517 0.0
O338 O 0.46661 0.60695 0.7376 0.0
O339 O 0.43403 0.68991 0.76061 0.0
C340 C 0.42795 0.55713 0.89247 0.0
O341 O 0.5855 0.59957 0.76933 0.0
O342 O 0.55693 0.68134 0.73634 0.0
C343 C 0.58962 0.73553 0.88766 0.0
loop_
_geom_bond_atom_site_label_1
_geom_bond_atom_site_label_2
_geom_bond_distance
_geom_bond_site_symmetry_2
_ccdc_geom_bond_type
P0 O11 1.490 . S
P0 C14 1.812 1_556 S
P0 C20 1.803 . S
P0 C26 1.819 . S
H1 C15 0.941 . S
H2 C16 0.939 . S
H3 C18 0.940 . S
H4 C19 0.940 . S
H5 C21 0.939 . S
H6 C22 0.942 . S
H7 C24 0.930 1_554 S
H8 C25 0.939 1_554 S
H9 C27 0.941 . S
H10 C31 0.939 . S
O11 P0 1.490 . S
H12 C28 0.939 . S
H13 C30 0.940 . S
C14 P0 1.812 1_554 S
C14 C15 1.389 . S
C14 C19 1.391 . S
C15 H1 0.941 . S
C15 C14 1.389 . S
C15 C16 1.397 . S
C16 H2 0.939 . S
C16 C15 1.397 . S
C16 C17 1.378 . S
C17 C16 1.378 . S
C17 C18 1.378 . S
C18 H3 0.940 . S
C18 C17 1.378 . S
C18 C19 1.396 . S
C19 H4 0.940 . S
C19 C14 1.391 . S
C19 C18 1.396 . S
C20 P0 1.803 . S
C20 C21 1.378 . S
C20 C25 1.400 . S
C21 H5 0.939 . S
C21 C20 1.378 . S
C21 C22 1.361 . S
C22 H6 0.942 . S
C22 C21 1.361 . S
C22 C23 1.369 . S
C23 C22 1.369 . S
C23 C24 1.404 . S
C24 H7 0.930 1_556 S
C24 C23 1.404 . S
C24 C25 1.389 . S
C25 H8 0.939 1_556 S
C25 C20 1.400 . S
C25 C24 1.389 . S
C26 P0 1.819 . S
C26 C27 1.391 . S
C26 C31 1.391 . S
C27 H9 0.941 . S
C27 C26 1.391 . S
C27 C28 1.396 . S
C28 H12 0.939 . S
C28 C27 1.396 . S
C28 C29 1.397 . S
C29 C28 1.397 . S
C29 C30 1.385 . S
C30 H13 0.940 . S
C30 C29 1.385 . S
C30 C31 1.388 . S
C31 H10 0.939 . S
C31 C26 1.391 . S
C31 C30 1.388 . S
P32 O43 1.490 . S
P32 C46 1.812 . S
P32 C52 1.803 . S
P32 C58 1.819 . S
H33 C47 0.941 . S
H34 C48 0.939 . S
H35 C50 0.940 . S
H36 C51 0.940 . S
H37 C53 0.939 . S
H38 C54 0.942 . S
H39 C56 0.940 . S
H40 C57 0.939 . S
H41 C59 0.941 . S
H42 C63 0.939 . S
O43 P32 1.490 . S
H44 C60 0.939 . S
H45 C62 0.940 . S
C46 P32 1.812 . S
C46 C47 1.389 . S
C46 C51 1.391 . S
C47 H33 0.941 . S
C47 C46 1.389 . S
C47 C48 1.397 . S
C48 H34 0.939 . S
C48 C47 1.397 . S
C48 C49 1.378 . S
C49 C48 1.378 . S
C49 C50 1.378 . S
C50 H35 0.940 . S
C50 C49 1.378 . S
C50 C51 1.396 . S
C51 H36 0.940 . S
C51 C46 1.391 . S
C51 C50 1.396 . S
C52 P32 1.803 . S
C52 C53 1.378 . S
C52 C57 1.400 . S
C53 H37 0.939 . S
C53 C52 1.378 . S
C53 C54 1.361 . S
C54 H38 0.942 . S
C54 C53 1.361 . S
C54 C55 1.369 . S
C55 C54 1.369 . S
C55 C56 1.404 . S
C56 H39 0.940 . S
C56 C55 1.404 . S
C56 C57 1.389 . S
C57 H40 0.939 . S
C57 C52 1.400 . S
C57 C56 1.389 . S
C58 P32 1.819 . S
C58 C59 1.391 . S
C58 C63 1.391 . S
C59 H41 0.941 . S
C59 C58 1.391 . S
C59 C60 1.396 . S
C60 H44 0.939 . S
C60 C59 1.396 . S
C60 C61 1.397 . S
C61 C60 1.397 . S
C61 C62 1.385 . S
C62 H45 0.940 . S
C62 C61 1.385 . S
C62 C63 1.388 . S
C63 H42 0.939 . S
C63 C58 1.391 . S
C63 C62 1.388 . S
P64 O75 1.490 . S
P64 C78 1.812 . S
P64 C84 1.803 . S
P64 C90 1.819 1_554 S
H65 C79 0.941 . S
H66 C80 0.939 . S
H67 C82 0.940 . S
H68 C83 0.940 . S
H69 C85 0.939 . S
H70 C86 0.942 . S
H71 C88 0.940 . S
H72 C89 0.939 1_554 S
H73 C91 0.941 . S
H74 C95 0.939 . S
O75 P64 1.490 . S
H76 C92 0.939 . S
H77 C94 0.940 . S
C78 P64 1.812 . S
C78 C79 1.389 . S
C78 C83 1.391 . S
C79 H65 0.941 . S
C79 C78 1.389 . S
C79 C80 1.397 . S
C80 H66 0.939 . S
C80 C79 1.397 . S
C80 C81 1.378 . S
C81 C80 1.378 . S
C81 C82 1.378 . S
C82 H67 0.940 . S
C82 C81 1.378 . S
C82 C83 1.396 . S
C83 H68 0.940 . S
C83 C78 1.391 . S
C83 C82 1.396 . S
C84 P64 1.803 . S
C84 C85 1.378 1_554 S
C84 C89 1.400 1_554 S
C85 H69 0.939 . S
C85 C84 1.378 1_556 S
C85 C86 1.361 . S
C86 H70 0.942 . S
C86 C85 1.361 . S
C86 C87 1.369 . S
C87 C86 1.369 . S
C87 C88 1.404 . S
C88 H71 0.940 . S
C88 C87 1.404 . S
C88 C89 1.389 . S
C89 H72 0.939 1_556 S
C89 C84 1.400 1_556 S
C89 C88 1.389 . S
C90 P64 1.819 1_556 S
C90 C91 1.391 1_556 S
C90 C95 1.391 . S
C91 H73 0.941 . S
C91 C90 1.391 1_554 S
C91 C92 1.396 1_554 S
C92 H76 0.939 . S
C92 C91 1.396 1_556 S
C92 C93 1.397 . S
C93 C92 1.397 . S
C93 C94 1.385 . S
C94 H77 0.940 . S
C94 C93 1.385 . S
C94 C95 1.388 . S
C95 H74 0.939 . S
C95 C90 1.391 . S
C95 C94 1.388 . S
P96 O107 1.490 . S
P96 C110 1.812 . S
P96 C116 1.803 . S
P96 C122 1.819 . S
H97 C111 0.941 . S
H98 C112 0.939 . S
H99 C114 0.940 . S
H100 C115 0.940 . S
H101 C117 0.939 . S
H102 C118 0.942 . S
H103 C120 0.940 . S
H104 C121 0.939 . S
H105 C123 0.941 . S
H106 C127 0.939 . S
O107 P96 1.490 . S
H108 C124 0.939 . S
H109 C126 0.940 . S
C110 P96 1.812 . S
C110 C111 1.389 . S
C110 C115 1.391 . S
C111 H97 0.941 . S
C111 C110 1.389 . S
C111 C112 1.397 . S
C112 H98 0.939 . S
C112 C111 1.397 . S
C112 C113 1.378 . S
C113 C112 1.378 . S
C113 C114 1.378 . S
C114 H99 0.940 . S
C114 C113 1.378 . S
C114 C115 1.396 . S
C115 H100 0.940 . S
C115 C110 1.391 . S
C115 C114 1.396 . S
C116 P96 1.803 . S
C116 C117 1.378 . S
C116 C121 1.400 . S
C117 H101 0.939 . S
C117 C116 1.378 . S
C117 C118 1.361 . S
C118 H102 0.942 . S
C118 C117 1.361 . S
C118 C119 1.369 . S
C119 C118 1.369 . S
C119 C120 1.404 . S
C120 H103 0.940 . S
C120 C119 1.404 . S
C120 C121 1.389 . S
C121 H104 0.939 . S
C121 C116 1.400 . S
C121 C120 1.389 . S
C122 P96 1.819 . S
C122 C123 1.391 . S
C122 C127 1.391 . S
C123 H105 0.941 . S
C123 C122 1.391 . S
C123 C124 1.396 . S
C124 H108 0.939 . S
C124 C123 1.396 . S
C124 C125 1.397 . S
C125 C124 1.397 . S
C125 C126 1.385 . S
C126 H109 0.940 . S
C126 C125 1.385 . S
C126 C127 1.388 . S
C127 H106 0.939 . S
C127 C122 1.391 . S
C127 C126 1.388 . S
P128 O139 1.490 . S
P128 C142 1.812 1_556 S
P128 C148 1.803 . S
P128 C154 1.819 . S
H129 C143 0.941 . S
H130 C144 0.939 . S
H131 C146 0.940 . S
H132 C147 0.940 . S
H133 C149 0.939 . S
H134 C150 0.942 . S
H135 C152 0.930 1_554 S
H136 C153 0.939 1_554 S
H137 C155 0.941 . S
H138 C159 0.939 . S
O139 P128 1.490 . S
H140 C156 0.939 1_545 S
H141 C158 0.940 1_545 S
C142 P128 1.812 1_554 S
C142 C143 1.389 . S
C142 C147 1.391 . S
C143 H129 0.941 . S
C143 C142 1.389 . S
C143 C144 1.397 . S
C144 H130 0.939 . S
C144 C143 1.397 . S
C144 C145 1.378 . S
C145 C144 1.378 . S
C145 C146 1.378 . S
C146 H131 0.940 . S
C146 C145 1.378 . S
C146 C147 1.396 . S
C147 H132 0.940 . S
C147 C142 1.391 . S
C147 C146 1.396 . S
C148 P128 1.803 . S
C148 C149 1.378 . S
C148 C153 1.400 . S
C149 H133 0.939 . S
C149 C148 1.378 . S
C149 C150 1.361 . S
C150 H134 0.942 . S
C150 C149 1.361 . S
C150 C151 1.369 . S
C151 C150 1.369 . S
C151 C152 1.404 . S
C152 H135 0.930 1_556 S
C152 C151 1.404 . S
C152 C153 1.389 . S
C153 H136 0.939 1_556 S
C153 C148 1.400 . S
C153 C152 1.389 . S
C154 P128 1.819 . S
C154 C155 1.391 . S
C154 C159 1.391 . S
C155 H137 0.941 . S
C155 C154 1.391 . S
C155 C156 1.396 . S
C156 H140 0.939 1_565 S
C156 C155 1.396 . S
C156 C157 1.397 1_565 S
C157 C156 1.397 1_545 S
C157 C158 1.385 1_545 S
C158 H141 0.940 1_565 S
C158 C157 1.385 1_565 S
C158 C159 1.388 . S
C159 H138 0.939 . S
C159 C154 1.391 . S
C159 C158 1.388 . S
P160 O171 1.490 . S
P160 C174 1.812 . S
P160 C180 1.803 . S
P160 C186 1.819 . S
H161 C175 0.941 . S
H162 C176 0.939 . S
H163 C178 0.940 . S
H164 C179 0.940 . S
H165 C181 0.939 . S
H166 C182 0.942 . S
H167 C184 0.940 . S
H168 C185 0.939 . S
H169 C187 0.941 . S
H170 C191 0.939 . S
O171 P160 1.490 . S
H172 C188 0.939 . S
H173 C190 0.940 . S
C174 P160 1.812 . S
C174 C175 1.389 1_545 S
C174 C179 1.391 . S
C175 H161 0.941 . S
C175 C174 1.389 1_565 S
C175 C176 1.397 . S
C176 H162 0.939 . S
C176 C175 1.397 . S
C176 C177 1.378 . S
C177 C176 1.378 . S
C177 C178 1.378 1_565 S
C178 H163 0.940 . S
C178 C177 1.378 1_545 S
C178 C179 1.396 . S
C179 H164 0.940 . S
C179 C174 1.391 . S
C179 C178 1.396 . S
C180 P160 1.803 . S
C180 C181 1.378 . S
C180 C185 1.400 . S
C181 H165 0.939 . S
C181 C180 1.378 . S
C181 C182 1.361 . S
C182 H166 0.942 . S
C182 C181 1.361 . S
C182 C183 1.369 . S
C183 C182 1.369 . S
C183 C184 1.404 . S
C184 H167 0.940 . S
C184 C183 1.404 . S
C184 C185 1.389 . S
C185 H168 0.939 . S
C185 C180 1.400 . S
C185 C184 1.389 . S
C186 P160 1.819 . S
C186 C187 1.391 . S
C186 C191 1.391 . S
C187 H169 0.941 . S
C187 C186 1.391 . S
C187 C188 1.396 . S
C188 H172 0.939 . S
C188 C187 1.396 . S
C188 C189 1.397 . S
C189 C188 1.397 . S
C189 C190 1.385 . S
C190 H173 0.940 . S
C190 C189 1.385 . S
C190 C191 1.388 . S
C191 H170 0.939 . S
C191 C186 1.391 . S
C191 C190 1.388 . S
P192 O203 1.490 . S
P192 C206 1.812 . S
P192 C212 1.803 . S
P192 C218 1.819 1_554 S
H193 C207 0.941 . S
H194 C208 0.939 . S
H195 C210 0.940 . S
H196 C211 0.940 . S
H197 C213 0.939 . S
H198 C214 0.942 . S
H199 C216 0.940 . S
H200 C217 0.939 1_554 S
H201 C219 0.941 . S
H202 C223 0.939 . S
O203 P192 1.490 . S
H204 C220 0.939 . S
H205 C222 0.940 . S
C206 P192 1.812 . S
C206 C207 1.389 . S
C206 C211 1.391 . S
C207 H193 0.941 . S
C207 C206 1.389 . S
C207 C208 1.397 . S
C208 H194 0.939 . S
C208 C207 1.397 . S
C208 C209 1.378 . S
C209 C208 1.378 . S
C209 C210 1.378 . S
C210 H195 0.940 . S
C210 C209 1.378 . S
C210 C211 1.396 . S
C211 H196 0.940 . S
C211 C206 1.391 . S
C211 C210 1.396 . S
C212 P192 1.803 . S
C212 C213 1.378 1_554 S
C212 C217 1.400 1_554 S
C213 H197 0.939 . S
C213 C212 1.378 1_556 S
C213 C214 1.361 . S
C214 H198 0.942 . S
C214 C213 1.361 . S
C214 C215 1.369 . S
C215 C214 1.369 . S
C215 C216 1.404 . S
C216 H199 0.940 . S
C216 C215 1.404 . S
C216 C217 1.389 . S
C217 H200 0.939 1_556 S
C217 C212 1.400 1_556 S
C217 C216 1.389 . S
C218 P192 1.819 1_556 S
C218 C219 1.391 1_566 S
C218 C223 1.391 . S
C219 H201 0.941 . S
C219 C218 1.391 1_544 S
C219 C220 1.396 1_554 S
C220 H204 0.939 . S
C220 C219 1.396 1_556 S
C220 C221 1.397 . S
C221 C220 1.397 . S
C221 C222 1.385 1_545 S
C222 H205 0.940 . S
C222 C221 1.385 1_565 S
C222 C223 1.388 . S
C223 H202 0.939 . S
C223 C218 1.391 . S
C223 C222 1.388 . S
P224 O235 1.490 . S
P224 C238 1.812 . S
P224 C244 1.803 . S
P224 C250 1.819 . S
H225 C239 0.941 . S
H226 C240 0.939 . S
H227 C242 0.940 . S
H228 C243 0.940 . S
H229 C245 0.939 . S
H230 C246 0.942 . S
H231 C248 0.940 . S
H232 C249 0.939 . S
H233 C251 0.941 . S
H234 C255 0.939 . S
O235 P224 1.490 . S
H236 C252 0.939 . S
H237 C254 0.940 . S
C238 P224 1.812 . S
C238 C239 1.389 . S
C238 C243 1.391 . S
C239 H225 0.941 . S
C239 C238 1.389 . S
C239 C240 1.397 . S
C240 H226 0.939 . S
C240 C239 1.397 . S
C240 C241 1.378 1_545 S
C241 C240 1.378 1_565 S
C241 C242 1.378 . S
C242 H227 0.940 . S
C242 C241 1.378 . S
C242 C243 1.396 1_565 S
C243 H228 0.940 . S
C243 C238 1.391 . S
C243 C242 1.396 1_545 S
C244 P224 1.803 . S
C244 C245 1.378 . S
C244 C249 1.400 . S
C245 H229 0.939 . S
C245 C244 1.378 . S
C245 C246 1.361 . S
C246 H230 0.942 . S
C246 C245 1.361 . S
C246 C247 1.369 . S
C247 C246 1.369 . S
C247 C248 1.404 . S
C248 H231 0.940 . S
C248 C247 1.404 . S
C248 C249 1.389 . S
C249 H232 0.939 . S
C249 C244 1.400 . S
C249 C248 1.389 . S
C250 P224 1.819 . S
C250 C251 1.391 . S
C250 C255 1.391 . S
C251 H233 0.941 . S
C251 C250 1.391 . S
C251 C252 1.396 . S
C252 H236 0.939 . S
C252 C251 1.396 . S
C252 C253 1.397 . S
C253 C252 1.397 . S
C253 C254 1.385 . S
C254 H237 0.940 . S
C254 C253 1.385 . S
C254 C255 1.388 . S
C255 H234 0.939 . S
C255 C250 1.391 . S
C255 C254 1.388 . S
Fe256 O258 1.918 . S
Fe256 O261 1.997 1_455 S
Fe256 O262 2.002 1_455 S
Fe256 O267 1.976 . S
Fe256 O270 1.996 . S
Fe257 O258 1.918 . S
Fe257 O265 1.997 1_455 S
Fe257 O268 1.996 . S
Fe257 O272 1.976 . S
Fe257 O275 2.002 1_455 S
O258 Fe256 1.918 . S
O258 Fe257 1.918 . S
O258 Fe259 1.918 . S
Fe259 O258 1.918 . S
Fe259 O260 2.002 1_455 S
Fe259 O269 1.976 . S
Fe259 O273 1.996 . S
Fe259 O276 1.997 1_455 S
O260 Fe259 2.002 1_655 S
O260 C277 1.295 . S
O261 Fe256 1.997 1_655 S
O261 C277 1.235 . S
O262 Fe256 2.002 1_655 S
O262 C263 1.295 . S
C263 O262 1.295 . S
C263 O265 1.235 . S
C264 O269 1.287 . S
C264 O270 1.255 . S
O265 Fe257 1.997 1_655 S
O265 C263 1.235 . S
C266 O272 1.287 . S
C266 O273 1.255 . S
O267 Fe256 1.976 . S
O267 C274 1.287 . S
O268 Fe257 1.996 . S
O268 C274 1.255 . S
O269 Fe259 1.976 . S
O269 C264 1.287 . S
O270 Fe256 1.996 . S
O270 C264 1.255 . S
C271 O275 1.295 . S
C271 O276 1.235 . S
O272 Fe257 1.976 . S
O272 C266 1.287 . S
O273 Fe259 1.996 . S
O273 C266 1.255 . S
C274 O267 1.287 . S
C274 O268 1.255 . S
O275 Fe257 2.002 1_655 S
O275 C271 1.295 . S
O276 Fe259 1.997 1_655 S
O276 C271 1.235 . S
C277 O260 1.295 . S
C277 O261 1.235 . S
Fe278 O280 1.918 . S
Fe278 O283 1.991 1_655 S
Fe278 O284 1.996 1_655 S
Fe278 O289 1.982 . S
Fe278 O292 2.002 . S
Fe279 O280 1.918 . S
Fe279 O287 1.991 1_655 S
Fe279 O290 2.001 . S
Fe279 O294 1.981 . S
Fe279 O297 1.997 1_655 S
O280 Fe278 1.918 . S
O280 Fe279 1.918 . S
O280 Fe281 1.918 . S
Fe281 O280 1.918 . S
Fe281 O282 1.997 1_655 S
Fe281 O291 1.981 . S
Fe281 O295 2.001 . S
Fe281 O298 1.991 1_655 S
O282 Fe281 1.997 1_455 S
O282 C299 1.295 . S
O283 Fe278 1.991 1_455 S
O283 C299 1.235 . S
O284 Fe278 1.996 1_455 S
O284 C285 1.295 . S
C285 O284 1.295 . S
C285 O287 1.235 . S
C286 O291 1.287 . S
C286 O292 1.255 . S
O287 Fe279 1.991 1_455 S
O287 C285 1.235 . S
C288 O294 1.287 . S
C288 O295 1.255 . S
O289 Fe278 1.982 . S
O289 C296 1.287 . S
O290 Fe279 2.001 . S
O290 C296 1.255 . S
O291 Fe281 1.981 . S
O291 C286 1.287 . S
O292 Fe278 2.002 . S
O292 C286 1.255 . S
C293 O297 1.295 . S
C293 O298 1.235 . S
O294 Fe279 1.981 . S
O294 C288 1.287 . S
O295 Fe281 2.001 . S
O295 C288 1.255 . S
C296 O289 1.287 . S
C296 O290 1.255 . S
O297 Fe279 1.997 1_455 S
O297 C293 1.295 . S
O298 Fe281 1.991 1_455 S
O298 C293 1.235 . S
C299 O282 1.295 . S
C299 O283 1.235 . S
Fe300 O302 1.918 . S
Fe300 O305 1.997 . S
Fe300 O306 2.002 . S
Fe300 O311 1.976 . S
Fe300 O314 1.996 . S
Fe301 O302 1.918 . S
Fe301 O309 1.997 . S
Fe301 O312 1.996 . S
Fe301 O316 1.976 . S
Fe301 O319 2.002 . S
O302 Fe300 1.918 . S
O302 Fe301 1.918 . S
O302 Fe303 1.918 . S
Fe303 O302 1.918 . S
Fe303 O304 2.002 . S
Fe303 O313 1.976 . S
Fe303 O317 1.996 . S
Fe303 O320 1.997 . S
O304 Fe303 2.002 . S
O304 C321 1.295 . S
O305 Fe300 1.997 . S
O305 C321 1.235 . S
O306 Fe300 2.002 . S
O306 C307 1.295 . S
C307 O306 1.295 . S
C307 O309 1.235 . S
C308 O313 1.287 . S
C308 O314 1.255 . S
O309 Fe301 1.997 . S
O309 C307 1.235 . S
C310 O316 1.287 . S
C310 O317 1.255 . S
O311 Fe300 1.976 . S
O311 C318 1.287 . S
O312 Fe301 1.996 . S
O312 C318 1.255 . S
O313 Fe303 1.976 . S
O313 C308 1.287 . S
O314 Fe300 1.996 . S
O314 C308 1.255 . S
C315 O319 1.295 . S
C315 O320 1.235 . S
O316 Fe301 1.976 . S
O316 C310 1.287 . S
O317 Fe303 1.996 . S
O317 C310 1.255 . S
C318 O311 1.287 . S
C318 O312 1.255 . S
O319 Fe301 2.002 . S
O319 C315 1.295 . S
O320 Fe303 1.997 . S
O320 C315 1.235 . S
C321 O304 1.295 . S
C321 O305 1.235 . S
Fe322 O324 1.918 . S
Fe322 O327 1.997 . S
Fe322 O328 2.002 . S
Fe322 O333 1.976 . S
Fe322 O336 1.996 . S
Fe323 O324 1.918 . S
Fe323 O331 1.997 . S
Fe323 O334 1.996 . S
Fe323 O338 1.976 . S
Fe323 O341 2.002 . S
O324 Fe322 1.918 . S
O324 Fe323 1.918 . S
O324 Fe325 1.918 . S
Fe325 O324 1.918 . S
Fe325 O326 2.002 . S
Fe325 O335 1.976 . S
Fe325 O339 1.996 . S
Fe325 O342 1.997 . S
O326 Fe325 2.002 . S
O326 C343 1.295 . S
O327 Fe322 1.997 . S
O327 C343 1.235 . S
O328 Fe322 2.002 . S
O328 C329 1.295 . S
C329 O328 1.295 . S
C329 O331 1.235 . S
C330 O335 1.287 . S
C330 O336 1.255 . S
O331 Fe323 1.997 . S
O331 C329 1.235 . S
C332 O338 1.287 . S
C332 O339 1.255 . S
O333 Fe322 1.976 . S
O333 C340 1.287 . S
O334 Fe323 1.996 . S
O334 C340 1.255 . S
O335 Fe325 1.976 . S
O335 C330 1.287 . S
O336 Fe322 1.996 . S
O336 C330 1.255 . S
C337 O341 1.295 . S
C337 O342 1.235 . S
O338 Fe323 1.976 . S
O338 C332 1.287 . S
O339 Fe325 1.996 . S
O339 C332 1.255 . S
C340 O333 1.287 . S
C340 O334 1.255 . S
O341 Fe323 2.002 . S
O341 C337 1.295 . S
O342 Fe325 1.997 . S
O342 C337 1.235 . S
C343 O326 1.295 . S
C343 O327 1.235 . S
C23 C299 1.547 . S
C263 C55 1.715 . S
C286 C87 1.776 . S
C274 C119 1.449 . S
C343 C151 1.547 . S
C307 C183 1.715 . S
C215 C330 1.776 . S
C318 C247 1.449 . S
C29 C340 1.607 . S
C310 C49 1.747 . S
C93 C329 1.930 . S
C113 C315 1.576 . S
C296 C157 1.606 . S
C177 C266 1.747 . S
C285 C221 1.930 . S
C271 C241 1.576 . S
C321 C17 1.572 . S
C337 C61 1.901 . S
C81 C308 1.842 . S
C332 C125 1.533 . S
C277 C145 1.572 . S
C189 C293 1.901 . S
C209 C264 1.843 . S
C253 C288 1.533 . S
