# Generated by pormake.
# Topology ctn, (3,4)-cn, num edge types: 1
# Building blocks:
#     Node 0, Type 0, BuildingBlock: CUQRIR_clean_linker_1, # of connection points: 3
#     Node 1, Type 0, BuildingBlock: CUQRIR_clean_linker_1, # of connection points: 3
#     Node 2, Type 0, BuildingBlock: CUQRIR_clean_linker_1, # of connection points: 3
#     Node 3, Type 0, BuildingBlock: CUQRIR_clean_linker_1, # of connection points: 3
#     Node 4, Type 0, BuildingBlock: CUQRIR_clean_linker_1, # of connection points: 3
#     Node 5, Type 0, BuildingBlock: CUQRIR_clean_linker_1, # of connection points: 3
#     Node 6, Type 0, BuildingBlock: CUQRIR_clean_linker_1, # of connection points: 3
#     Node 7, Type 0, BuildingBlock: CUQRIR_clean_linker_1, # of connection points: 3
#     Node 8, Type 0, BuildingBlock: CUQRIR_clean_linker_1, # of connection points: 3
#     Node 9, Type 0, BuildingBlock: CUQRIR_clean_linker_1, # of connection points: 3
#     Node 10, Type 0, BuildingBlock: CUQRIR_clean_linker_1, # of connection points: 3
#     Node 11, Type 0, BuildingBlock: CUQRIR_clean_linker_1, # of connection points: 3
#     Node 12, Type 0, BuildingBlock: CUQRIR_clean_linker_1, # of connection points: 3
#     Node 13, Type 0, BuildingBlock: CUQRIR_clean_linker_1, # of connection points: 3
#     Node 14, Type 0, BuildingBlock: CUQRIR_clean_linker_1, # of connection points: 3
#     Node 15, Type 0, BuildingBlock: CUQRIR_clean_linker_1, # of connection points: 3
#     Node 16, Type 1, BuildingBlock: AZAVOO_clean_sbu_0, # of connection points: 4
#     Node 17, Type 1, BuildingBlock: AZAVOO_clean_sbu_0, # of connection points: 4
#     Node 18, Type 1, BuildingBlock: AZAVOO_clean_sbu_0, # of connection points: 4
#     Node 19, Type 1, BuildingBlock: AZAVOO_clean_sbu_0, # of connection points: 4
#     Node 20, Type 1, BuildingBlock: AZAVOO_clean_sbu_0, # of connection points: 4
#     Node 21, Type 1, BuildingBlock: AZAVOO_clean_sbu_0, # of connection points: 4
#     Node 22, Type 1, BuildingBlock: AZAVOO_clean_sbu_0, # of connection points: 4
#     Node 23, Type 1, BuildingBlock: AZAVOO_clean_sbu_0, # of connection points: 4
#     Node 24, Type 1, BuildingBlock: AZAVOO_clean_sbu_0, # of connection points: 4
#     Node 25, Type 1, BuildingBlock: AZAVOO_clean_sbu_0, # of connection points: 4
#     Node 26, Type 1, BuildingBlock: AZAVOO_clean_sbu_0, # of connection points: 4
#     Node 27, Type 1, BuildingBlock: AZAVOO_clean_sbu_0, # of connection points: 4
#     Edge 28, Type (0, 1), BuildingBlock: TEMPAE_clean_linker_10, # of connection points: 2
#     Edge 29, Type (0, 1), BuildingBlock: TEMPAE_clean_linker_10, # of connection points: 2
#     Edge 30, Type (0, 1), BuildingBlock: TEMPAE_clean_linker_10, # of connection points: 2
#     Edge 31, Type (0, 1), BuildingBlock: TEMPAE_clean_linker_10, # of connection points: 2
#     Edge 32, Type (0, 1), BuildingBlock: TEMPAE_clean_linker_10, # of connection points: 2
#     Edge 33, Type (0, 1), BuildingBlock: TEMPAE_clean_linker_10, # of connection points: 2
#     Edge 34, Type (0, 1), BuildingBlock: TEMPAE_clean_linker_10, # of connection points: 2
#     Edge 35, Type (0, 1), BuildingBlock: TEMPAE_clean_linker_10, # of connection points: 2
#     Edge 36, Type (0, 1), BuildingBlock: TEMPAE_clean_linker_10, # of connection points: 2
#     Edge 37, Type (0, 1), BuildingBlock: TEMPAE_clean_linker_10, # of connection points: 2
#     Edge 38, Type (0, 1), BuildingBlock: TEMPAE_clean_linker_10, # of connection points: 2
#     Edge 39, Type (0, 1), BuildingBlock: TEMPAE_clean_linker_10, # of connection points: 2
#     Edge 40, Type (0, 1), BuildingBlock: TEMPAE_clean_linker_10, # of connection points: 2
#     Edge 41, Type (0, 1), BuildingBlock: TEMPAE_clean_linker_10, # of connection points: 2
#     Edge 42, Type (0, 1), BuildingBlock: TEMPAE_clean_linker_10, # of connection points: 2
#     Edge 43, Type (0, 1), BuildingBlock: TEMPAE_clean_linker_10, # of connection points: 2
#     Edge 44, Type (0, 1), BuildingBlock: TEMPAE_clean_linker_10, # of connection points: 2
#     Edge 45, Type (0, 1), BuildingBlock: TEMPAE_clean_linker_10, # of connection points: 2
#     Edge 46, Type (0, 1), BuildingBlock: TEMPAE_clean_linker_10, # of connection points: 2
#     Edge 47, Type (0, 1), BuildingBlock: TEMPAE_clean_linker_10, # of connection points: 2
#     Edge 48, Type (0, 1), BuildingBlock: TEMPAE_clean_linker_10, # of connection points: 2
#     Edge 49, Type (0, 1), BuildingBlock: TEMPAE_clean_linker_10, # of connection points: 2
#     Edge 50, Type (0, 1), BuildingBlock: TEMPAE_clean_linker_10, # of connection points: 2
#     Edge 51, Type (0, 1), BuildingBlock: TEMPAE_clean_linker_10, # of connection points: 2
#     Edge 52, Type (0, 1), BuildingBlock: TEMPAE_clean_linker_10, # of connection points: 2
#     Edge 53, Type (0, 1), BuildingBlock: TEMPAE_clean_linker_10, # of connection points: 2
#     Edge 54, Type (0, 1), BuildingBlock: TEMPAE_clean_linker_10, # of connection points: 2
#     Edge 55, Type (0, 1), BuildingBlock: TEMPAE_clean_linker_10, # of connection points: 2
#     Edge 56, Type (0, 1), BuildingBlock: TEMPAE_clean_linker_10, # of connection points: 2
#     Edge 57, Type (0, 1), BuildingBlock: TEMPAE_clean_linker_10, # of connection points: 2
#     Edge 58, Type (0, 1), BuildingBlock: TEMPAE_clean_linker_10, # of connection points: 2
#     Edge 59, Type (0, 1), BuildingBlock: TEMPAE_clean_linker_10, # of connection points: 2
#     Edge 60, Type (0, 1), BuildingBlock: TEMPAE_clean_linker_10, # of connection points: 2
#     Edge 61, Type (0, 1), BuildingBlock: TEMPAE_clean_linker_10, # of connection points: 2
#     Edge 62, Type (0, 1), BuildingBlock: TEMPAE_clean_linker_10, # of connection points: 2
#     Edge 63, Type (0, 1), BuildingBlock: TEMPAE_clean_linker_10, # of connection points: 2
#     Edge 64, Type (0, 1), BuildingBlock: TEMPAE_clean_linker_10, # of connection points: 2
#     Edge 65, Type (0, 1), BuildingBlock: TEMPAE_clean_linker_10, # of connection points: 2
#     Edge 66, Type (0, 1), BuildingBlock: TEMPAE_clean_linker_10, # of connection points: 2
#     Edge 67, Type (0, 1), BuildingBlock: TEMPAE_clean_linker_10, # of connection points: 2
#     Edge 68, Type (0, 1), BuildingBlock: TEMPAE_clean_linker_10, # of connection points: 2
#     Edge 69, Type (0, 1), BuildingBlock: TEMPAE_clean_linker_10, # of connection points: 2
#     Edge 70, Type (0, 1), BuildingBlock: TEMPAE_clean_linker_10, # of connection points: 2
#     Edge 71, Type (0, 1), BuildingBlock: TEMPAE_clean_linker_10, # of connection points: 2
#     Edge 72, Type (0, 1), BuildingBlock: TEMPAE_clean_linker_10, # of connection points: 2
#     Edge 73, Type (0, 1), BuildingBlock: TEMPAE_clean_linker_10, # of connection points: 2
#     Edge 74, Type (0, 1), BuildingBlock: TEMPAE_clean_linker_10, # of connection points: 2
#     Edge 75, Type (0, 1), BuildingBlock: TEMPAE_clean_linker_10, # of connection points: 2
# Relax obj value: 0.080
# Max RMSD: 0.208
# Mean RMSD: 0.133
data_MOF--net-ctn--node1-AZAVOO_clean_sbu_0--node2-CUQRIR_clean_linker_1--edge1-TEMPAE_clean_linker_10
_symmetry_space_group_name_H-M    P1
_symmetry_Int_Tables_number       1
_symmetry_cell_setting            triclinic
loop_
_symmetry_equiv_pos_as_xyz
'x, y, z'
_cell_length_a     51.922013
_cell_length_b     49.140444
_cell_length_c     50.37811
_cell_angle_alpha  96.939659
_cell_angle_beta   91.680891
_cell_angle_gamma 95.975335
loop_
_atom_site_label
_atom_site_type_symbol
_atom_site_fract_x
_atom_site_fract_y
_atom_site_fract_z
_atom_type_partial_charge
C0 C 0.03719 0.99185 0.05926 0.0
N1 N 0.04904 0.99927 0.03722 0.0
N2 N 0.01427 0.00247 0.06175 0.0
C3 C 0.04848 0.97527 0.07904 0.0
C4 C 0.01252 0.01654 0.04043 0.0
N5 N 0.03344 0.0142 0.02516 0.0
C6 C 0.99167 0.03486 0.03594 0.0
H7 H 0.03315 0.96556 0.09082 0.0
H8 H 0.06232 0.98913 0.09305 0.0
H9 H 0.0592 0.95904 0.06857 0.0
H10 H 1.00063 0.05628 0.03532 0.0
H11 H 0.97724 0.03478 0.05173 0.0
H12 H 0.98142 0.02773 0.01632 0.0
C13 C 0.30055 0.73383 0.24195 0.0
N14 N 0.31019 0.71946 0.26058 0.0
N15 N 0.31334 0.75945 0.24366 0.0
C16 C 0.2787 0.72265 0.22187 0.0
C17 C 0.33111 0.76026 0.26404 0.0
N18 N 0.32891 0.73606 0.27474 0.0
C19 C 0.35092 0.78444 0.27302 0.0
H20 H 0.26939 0.73911 0.21341 0.0
H21 H 0.26369 0.70956 0.23118 0.0
H22 H 0.28651 0.70975 0.20503 0.0
H23 H 0.34371 0.79695 0.29051 0.0
H24 H 0.35436 0.79789 0.25705 0.0
H25 H 0.36952 0.77729 0.27918 0.0
C26 C 0.97991 0.5012 0.08607 0.0
N27 N 0.99332 0.47891 0.08634 0.0
N28 N 0.95961 0.49571 0.06807 0.0
C29 C 0.98516 0.52752 0.10495 0.0
C30 C 0.96093 0.46932 0.05746 0.0
N31 N 0.98119 0.45888 0.06877 0.0
C32 C 0.94372 0.4547 0.03438 0.0
H33 H 0.96705 0.53726 0.10873 0.0
H34 H 0.99886 0.54219 0.09579 0.0
H35 H 0.99392 0.52367 0.12431 0.0
H36 H 0.93622 0.46968 0.02211 0.0
H37 H 0.92693 0.44284 0.04231 0.0
H38 H 0.95435 0.44019 0.02139 0.0
C39 C 0.67983 0.7991 0.22335 0.0
N40 N 0.7025 0.80961 0.2139 0.0
N41 N 0.67493 0.81363 0.24685 0.0
C42 C 0.66403 0.77275 0.21146 0.0
C43 C 0.69549 0.83299 0.25175 0.0
N44 N 0.7124 0.8305 0.23185 0.0
C45 C 0.69858 0.85475 0.27567 0.0
H46 H 0.64983 0.77754 0.19628 0.0
H47 H 0.65313 0.76278 0.22696 0.0
H48 H 0.67658 0.75795 0.20159 0.0
H49 H 0.6794 0.85907 0.28333 0.0
H50 H 0.70913 0.87412 0.27055 0.0
H51 H 0.70986 0.84725 0.29182 0.0
C52 C 0.02848 0.99005 0.49945 0.0
N53 N 0.0517 0.99146 0.51295 0.0
N54 N 0.0281 0.01089 0.48414 0.0
C55 C 0.00653 0.96746 0.49986 0.0
C56 C 0.05192 0.02507 0.48895 0.0
N57 N 0.06629 0.01329 0.50635 0.0
C58 C 0.06126 0.05057 0.47669 0.0
H59 H 0.01145 0.95104 0.51174 0.0
H60 H 1.00067 0.95825 0.47908 0.0
H61 H 0.98957 0.97639 0.50883 0.0
H62 H 0.04473 0.06098 0.46991 0.0
H63 H 0.07294 0.04471 0.45922 0.0
H64 H 0.0739 0.06515 0.4913 0.0
C65 C 0.1816 0.72451 0.79191 0.0
N66 N 0.20027 0.71376 0.80528 0.0
N67 N 0.17559 0.70935 0.76788 0.0
C68 C 0.16832 0.749 0.80293 0.0
C69 C 0.19123 0.68886 0.76719 0.0
N70 N 0.20608 0.69133 0.79016 0.0
C71 C 0.19391 0.66831 0.74299 0.0
H72 H 0.1674 0.75027 0.82502 0.0
H73 H 0.14839 0.74789 0.794 0.0
H74 H 0.1796 0.76809 0.79811 0.0
H75 H 0.18798 0.67633 0.72433 0.0
H76 H 0.18121 0.64908 0.74481 0.0
H77 H 0.21418 0.66323 0.74148 0.0
C78 C 0.9598 0.49696 0.45321 0.0
N79 N 0.9757 0.5205 0.45225 0.0
N80 N 0.93939 0.502 0.4685 0.0
C81 C 0.96448 0.46897 0.43974 0.0
C82 C 0.94329 0.52942 0.47661 0.0
N83 N 0.96516 0.54076 0.46646 0.0
C84 C 0.92637 0.5451 0.49535 0.0
H85 H 0.94623 0.45499 0.43617 0.0
H86 H 0.97766 0.45961 0.45287 0.0
H87 H 0.97381 0.47074 0.4204 0.0
H88 H 0.9383 0.55588 0.5129 0.0
H89 H 0.91017 0.53159 0.50228 0.0
H90 H 0.91805 0.56106 0.48499 0.0
C91 C 0.78466 0.78097 0.80701 0.0
N92 N 0.80703 0.76915 0.80387 0.0
N93 N 0.78328 0.80078 0.79071 0.0
C94 C 0.76553 0.77484 0.82793 0.0
C95 C 0.80569 0.8007 0.77764 0.0
N96 N 0.82035 0.78178 0.78587 0.0
C97 C 0.81272 0.81832 0.75591 0.0
H98 H 0.75757 0.75282 0.82418 0.0
H99 H 0.7494 0.78794 0.82829 0.0
H100 H 0.77566 0.77826 0.84792 0.0
H101 H 0.82545 0.83696 0.76471 0.0
H102 H 0.79517 0.82495 0.74656 0.0
H103 H 0.82344 0.80693 0.74022 0.0
C104 C 0.288 0.27699 0.30872 0.0
N105 N 0.30946 0.26357 0.30581 0.0
N106 N 0.28753 0.29601 0.29144 0.0
C107 C 0.26878 0.27298 0.33008 0.0
C108 C 0.3096 0.2938 0.27803 0.0
N109 N 0.32304 0.27426 0.28688 0.0
C110 C 0.31799 0.31064 0.25613 0.0
H111 H 0.25897 0.25163 0.32658 0.0
H112 H 0.25407 0.28779 0.33064 0.0
H113 H 0.27919 0.27554 0.3499 0.0
H114 H 0.30115 0.31834 0.2465 0.0
H115 H 0.32827 0.29835 0.24071 0.0
H116 H 0.33163 0.32858 0.26491 0.0
C117 C 0.47955 1.00212 0.5804 0.0
N118 N 0.49386 0.98059 0.58131 0.0
N119 N 0.46132 0.99668 0.56008 0.0
C120 C 0.48171 0.02729 0.60092 0.0
C121 C 0.46498 0.97105 0.54873 0.0
N122 N 0.48437 0.96103 0.56187 0.0
C123 C 0.45133 0.95686 0.52317 0.0
H124 H 0.46259 0.0352 0.60362 0.0
H125 H 0.49526 0.04371 0.59401 0.0
H126 H 0.4893 0.02263 0.6205 0.0
H127 H 0.44526 0.97214 0.5104 0.0
H128 H 0.43379 0.94382 0.52808 0.0
H129 H 0.46409 0.94341 0.51169 0.0
C130 C 0.18362 0.29993 0.73047 0.0
N131 N 0.20633 0.31034 0.72105 0.0
N132 N 0.17895 0.31422 0.75418 0.0
C133 C 0.1675 0.2739 0.71829 0.0
C134 C 0.1997 0.33334 0.7592 0.0
N135 N 0.21649 0.33092 0.73919 0.0
C136 C 0.20296 0.35495 0.78325 0.0
H137 H 0.15322 0.27917 0.70343 0.0
H138 H 0.15667 0.26373 0.73371 0.0
H139 H 0.1798 0.25911 0.70797 0.0
H140 H 0.2142 0.34724 0.7993 0.0
H141 H 0.18385 0.35937 0.79099 0.0
H142 H 0.21363 0.3743 0.77824 0.0
C143 C 0.8036 0.23396 0.73863 0.0
N144 N 0.81295 0.21974 0.75754 0.0
N145 N 0.81643 0.25956 0.74032 0.0
C146 C 0.78191 0.2227 0.7184 0.0
C147 C 0.83393 0.2605 0.76097 0.0
N148 N 0.83153 0.2364 0.77184 0.0
C149 C 0.8536 0.28476 0.77013 0.0
H150 H 0.7897 0.20908 0.70208 0.0
H151 H 0.77315 0.23905 0.70918 0.0
H152 H 0.76649 0.21027 0.72785 0.0
H153 H 0.84602 0.29745 0.78727 0.0
H154 H 0.85741 0.298 0.75406 0.0
H155 H 0.87206 0.27771 0.77684 0.0
C156 C 0.53981 0.49349 0.55664 0.0
N157 N 0.55157 0.5007 0.53449 0.0
N158 N 0.51636 0.50302 0.55846 0.0
C159 C 0.55101 0.47677 0.57636 0.0
C160 C 0.51418 0.51629 0.53663 0.0
N161 N 0.53542 0.51448 0.52171 0.0
C162 C 0.49292 0.53402 0.53173 0.0
H163 H 0.53559 0.46707 0.58807 0.0
H164 H 0.5649 0.49052 0.59041 0.0
H165 H 0.56165 0.46051 0.56586 0.0
H166 H 0.48089 0.53753 0.54938 0.0
H167 H 0.48024 0.52374 0.51453 0.0
H168 H 0.50132 0.5543 0.52652 0.0
C169 C 0.52709 0.49117 0.0031 0.0
N170 N 0.55093 0.49184 0.015 0.0
N171 N 0.52699 0.50974 0.98531 0.0
C172 C 0.50394 0.47192 0.00869 0.0
C173 C 0.55177 0.52183 0.98685 0.0
N174 N 0.56638 0.51082 0.00473 0.0
C175 C 0.56179 0.54366 0.96999 0.0
H176 H 0.50457 0.45165 0.99649 0.0
H177 H 0.4856 0.48023 0.00362 0.0
H178 H 0.5044 0.46852 0.03008 0.0
H179 H 0.55415 0.56332 0.97734 0.0
H180 H 0.55473 0.53774 0.94886 0.0
H181 H 0.5832 0.54741 0.97077 0.0
C182 C 0.67701 0.2218 0.29215 0.0
N183 N 0.69586 0.21074 0.30495 0.0
N184 N 0.66919 0.20586 0.26892 0.0
C185 C 0.66524 0.24734 0.30312 0.0
C186 C 0.68388 0.18454 0.2682 0.0
N187 N 0.6999 0.18734 0.29033 0.0
C188 C 0.68432 0.16248 0.24479 0.0
H189 H 0.66526 0.24938 0.3253 0.0
H190 H 0.64507 0.24698 0.29506 0.0
H191 H 0.67699 0.26569 0.29729 0.0
H192 H 0.67794 0.16976 0.22591 0.0
H193 H 0.67093 0.14427 0.2483 0.0
H194 H 0.70404 0.15592 0.24253 0.0
C195 C 0.45987 0.99301 0.95741 0.0
N196 N 0.47673 0.01575 0.95578 0.0
N197 N 0.44348 0.99774 0.97749 0.0
C198 C 0.46084 0.96542 0.94105 0.0
C199 C 0.45106 0.02405 0.98819 0.0
N200 N 0.47135 0.03489 0.9752 0.0
C201 C 0.43808 0.03955 0.01076 0.0
H202 H 0.44847 0.96432 0.92253 0.0
H203 H 0.45343 0.9484 0.95233 0.0
H204 H 0.48093 0.96251 0.9353 0.0
H205 H 0.44812 0.03722 0.02996 0.0
H206 H 0.41741 0.03139 0.01145 0.0
H207 H 0.43931 0.06187 0.00877 0.0
Mg208 Mg 0.23583 0.85073 0.0419 0.0
O209 O 0.27555 0.87266 0.0329 0.0
O210 O 0.30445 0.84233 0.03612 0.0
Mg211 Mg 0.28417 0.80201 0.0472 0.0
C212 C 0.29872 0.86605 0.03157 0.0
C213 C 0.19062 0.88292 0.03611 0.0
O214 O 0.18382 0.86317 0.05076 0.0
O215 O 0.23394 0.82548 1.00035 0.0
O216 O 0.26301 0.79583 0.00594 0.0
O217 O 0.24346 0.86407 0.08602 0.0
O218 O 0.25369 0.82502 0.06468 0.0
C219 C 0.24615 0.80516 0.99149 0.0
C220 C 0.25404 0.84142 0.08661 0.0
O221 O 0.21339 0.88447 0.02731 0.0
Mg222 Mg 0.16252 0.50867 0.28638 0.0
O223 O 0.13794 0.50234 0.24651 0.0
O224 O 0.16537 0.49735 0.2134 0.0
Mg225 Mg 0.20697 0.50361 0.23131 0.0
C226 C 0.14237 0.49777 0.22161 0.0
C227 C 0.127 0.51927 0.33214 0.0
O228 O 0.14802 0.53657 0.33793 0.0
O229 O 0.1699 0.46282 0.28154 0.0
O230 O 0.1988 0.46324 0.24936 0.0
O231 O 0.16888 0.55464 0.2862 0.0
O232 O 0.19537 0.52569 0.26884 0.0
C233 C 0.18563 0.45076 0.26619 0.0
C234 C 0.19023 0.55069 0.27444 0.0
O235 O 0.12607 0.50256 0.31064 0.0
Mg236 Mg 0.78922 0.6632 0.02273 0.0
O237 O 0.75036 0.63454 0.01712 0.0
O238 O 0.7197 0.66183 0.01009 0.0
Mg239 Mg 0.73783 0.70667 0.01194 0.0
C240 C 0.72662 0.63805 0.01266 0.0
C241 C 0.82919 0.62788 0.03978 0.0
O242 O 0.83005 0.64933 0.05819 0.0
O243 O 0.79109 0.66763 0.97752 0.0
O244 O 0.76082 0.69637 0.97443 0.0
O245 O 0.78249 0.67162 0.06666 0.0
O246 O 0.77044 0.69762 0.03682 0.0
C247 C 0.77854 0.68282 0.96403 0.0
C248 C 0.77139 0.69279 0.06131 0.0
O249 O 0.8131 0.62625 0.01993 0.0
Mg250 Mg 0.89109 0.03642 0.27149 0.0
O251 O 0.86536 0.99493 0.26127 0.0
O252 O 0.89157 0.96203 0.25208 0.0
Mg253 Mg 0.93354 0.98144 0.25784 0.0
C254 C 0.86892 0.96975 0.25417 0.0
C255 C 0.83966 0.06308 0.26875 0.0
O256 O 0.84281 0.05412 0.24354 0.0
O257 O 0.90223 0.02608 0.31321 0.0
O258 O 0.92861 0.99344 0.30287 0.0
O259 O 0.89242 0.04146 0.22787 0.0
O260 O 0.92091 0.02084 0.24923 0.0
C261 C 0.91741 0.00899 0.32005 0.0
C262 C 0.91256 0.02798 0.22709 0.0
O263 O 0.856 0.05807 0.28636 0.0
Mg264 Mg 0.29004 0.16419 0.52817 0.0
O265 O 0.25038 0.13703 0.52341 0.0
O266 O 0.22062 0.16543 0.51671 0.0
Mg267 Mg 0.24024 0.20962 0.51777 0.0
C268 C 0.22679 0.14137 0.51934 0.0
C269 C 0.32889 0.11912 0.50977 0.0
O270 O 0.33277 0.13268 0.48907 0.0
O271 O 0.29127 0.16768 0.4828 0.0
O272 O 0.26219 0.19775 0.47982 0.0
O273 O 0.28446 0.1733 0.57206 0.0
O274 O 0.27269 0.19959 0.54228 0.0
C275 C 0.27916 0.1832 0.46928 0.0
C276 C 0.27378 0.19478 0.5668 0.0
O277 O 0.31212 0.12612 0.52644 0.0
Mg278 Mg 0.39455 0.53728 0.76772 0.0
O279 O 0.36939 0.49538 0.7609 0.0
O280 O 0.39609 0.46291 0.75169 0.0
Mg281 Mg 0.43787 0.48334 0.75211 0.0
C282 C 0.37335 0.47014 0.75499 0.0
C283 C 0.35319 0.57739 0.77074 0.0
O284 O 0.36578 0.58191 0.74919 0.0
O285 O 0.40903 0.52861 0.80928 0.0
O286 O 0.43787 0.49921 0.79675 0.0
O287 O 0.39201 0.54089 0.72359 0.0
O288 O 0.42237 0.52094 0.74279 0.0
C289 C 0.42717 0.5142 0.8148 0.0
C290 C 0.41203 0.52736 0.72123 0.0
O291 O 0.36036 0.55931 0.78463 0.0
Mg292 Mg 0.73781 0.35098 0.53909 0.0
O293 O 0.77701 0.37317 0.52913 0.0
O294 O 0.80649 0.34336 0.53167 0.0
Mg295 Mg 0.78698 0.30301 0.54354 0.0
C296 C 0.80025 0.36691 0.52718 0.0
C297 C 0.69217 0.38311 0.5336 0.0
O298 O 0.68534 0.36352 0.54842 0.0
O299 O 0.73535 0.32548 0.49763 0.0
O300 O 0.7649 0.29622 0.50275 0.0
O301 O 0.74618 0.36452 0.58312 0.0
O302 O 0.75644 0.32558 0.56161 0.0
C303 C 0.7476 0.30524 0.4886 0.0
C304 C 0.75696 0.34196 0.58355 0.0
O305 O 0.7149 0.38448 0.5247 0.0
Mg306 Mg 0.65995 0.01324 0.78439 0.0
O307 O 0.63645 0.00709 0.74392 0.0
O308 O 0.66438 1.00097 0.71147 0.0
Mg309 Mg 0.70553 0.00599 0.73048 0.0
C310 C 0.64127 1.00212 0.71917 0.0
C311 C 0.6185 0.99508 0.82627 0.0
O312 O 0.63559 0.97849 0.83192 0.0
O313 O 0.66566 0.96689 0.78033 0.0
O314 O 0.69524 0.96614 0.74881 0.0
O315 O 0.66792 0.05899 0.78369 0.0
O316 O 0.69389 0.02886 0.76757 0.0
C317 C 0.68129 0.95417 0.76539 0.0
C318 C 0.6894 0.05414 0.77259 0.0
O319 O 0.62242 0.00958 0.80721 0.0
Mg320 Mg 0.02852 0.23175 0.93122 0.0
O321 O 0.98888 0.22394 0.90867 0.0
O322 O 0.95984 0.20833 0.93653 0.0
Mg323 Mg 0.98188 0.20327 0.97592 0.0
C324 C 0.9656 0.21579 0.91379 0.0
C325 C 0.04649 0.24423 0.87599 0.0
O326 O 0.03707 0.21817 0.87119 0.0
O327 O 0.01585 0.26966 0.95614 0.0
O328 O 0.99162 0.25059 0.98654 0.0
O329 O 0.03815 0.18907 0.91777 0.0
O330 O 0.01837 0.20051 0.95492 0.0
C331 C 1.0031 0.27165 0.97747 0.0
C332 C 0.02758 0.18165 0.93908 0.0
O333 O 0.04475 0.25697 0.89926 0.0
Mg334 Mg 0.53008 0.73194 0.42796 0.0
O335 O 0.48971 0.72424 0.40696 0.0
O336 O 0.46167 0.70898 0.43595 0.0
Mg337 Mg 0.48508 0.70433 0.47464 0.0
C338 C 0.46666 0.71622 0.41295 0.0
C339 C 0.54571 0.74395 0.37184 0.0
O340 O 0.53607 0.71793 0.36742 0.0
O341 O 0.51848 0.77015 0.45318 0.0
O342 O 0.49514 0.75171 0.48455 0.0
O343 O 0.53903 0.68911 0.41422 0.0
O344 O 0.52072 0.70101 0.4522 0.0
C345 C 0.50641 0.77255 0.47493 0.0
C346 C 0.52921 0.68194 0.43597 0.0
O347 O 0.54502 0.75678 0.39523 0.0
Mg348 Mg 0.99289 0.76635 0.60759 0.0
O349 O 0.02905 0.75559 0.62993 0.0
O350 O 0.05938 0.74795 0.60021 0.0
Mg351 Mg 0.04362 0.75509 0.55922 0.0
C352 C 0.05161 0.74916 0.62408 0.0
C353 C 0.94979 0.77849 0.64738 0.0
O354 O 0.93741 0.7763 0.62397 0.0
O355 O 0.01234 0.81035 0.60456 0.0
O356 O 0.04215 0.80102 0.57443 0.0
O357 O 0.97899 0.7217 0.59799 0.0
O358 O 0.00391 0.74464 0.57169 0.0
C359 C 0.03091 0.81812 0.59003 0.0
C360 C 0.99216 0.72148 0.57657 0.0
O361 O 0.9742 0.77738 0.64802 0.0
Mg362 Mg 0.48927 0.2654 0.1057 0.0
O363 O 0.52454 0.25436 0.12951 0.0
O364 O 0.5557 0.24632 0.10084 0.0
Mg365 Mg 0.54166 0.25376 0.05936 0.0
C366 C 0.54715 0.24757 0.1244 0.0
C367 C 0.46684 0.2601 0.16209 0.0
O368 O 0.47886 0.23782 0.15793 0.0
O369 O 0.50939 0.30924 0.10331 0.0
O370 O 0.54016 0.29974 0.07439 0.0
O371 O 0.47495 0.22088 0.09577 0.0
O372 O 0.50151 0.24327 0.07052 0.0
C373 C 0.52855 0.31694 0.0895 0.0
C374 C 0.4891 0.22029 0.07503 0.0
O375 O 0.46858 0.27721 0.14491 0.0
C376 C 0.2247 0.75087 0.83552 0.0
C377 C 0.2112 0.72448 0.83141 0.0
C378 C 0.232 0.76365 0.86142 0.0
C379 C 0.22516 0.74976 0.88366 0.0
C380 C 0.21229 0.7226 0.87945 0.0
C381 C 0.20559 0.71017 0.85323 0.0
C382 C 0.24616 0.79237 0.86499 0.0
C383 C 0.20454 0.7072 0.90264 0.0
C384 C 0.25879 0.77519 0.95134 0.0
C385 C 0.24085 0.79163 0.96366 0.0
C386 C 0.25401 0.76158 0.92528 0.0
C387 C 0.23056 0.76412 0.91128 0.0
C388 C 0.21236 0.78068 0.92353 0.0
C389 C 0.21782 0.79444 0.94951 0.0
C390 C 0.2741 0.74456 0.91269 0.0
C391 C 0.18702 0.78367 0.90926 0.0
H392 H 0.22883 0.76172 0.81837 0.0
H393 H 0.19486 0.68985 0.84973 0.0
H394 H 0.23361 0.8071 0.87496 0.0
H395 H 0.26387 0.79317 0.87806 0.0
H396 H 0.25182 0.79935 0.8456 0.0
H397 H 0.19583 0.68576 0.89594 0.0
H398 H 0.22161 0.70648 0.91619 0.0
H399 H 0.19024 0.71822 0.91448 0.0
H400 H 0.27675 0.77308 0.96203 0.0
H401 H 0.20383 0.80697 0.95893 0.0
H402 H 0.28029 0.75237 0.89386 0.0
H403 H 0.26564 0.72284 0.90738 0.0
H404 H 0.29149 0.74494 0.92617 0.0
H405 H 0.19077 0.79277 0.89046 0.0
H406 H 0.17474 0.7969 0.92173 0.0
H407 H 0.17601 0.76308 0.90368 0.0
C408 C 0.01884 0.50697 0.44132 0.0
C409 C 0.99895 0.52342 0.43747 0.0
C410 C 0.04004 0.50681 0.42465 0.0
C411 C 0.0414 0.52369 0.40373 0.0
C412 C 0.0218 0.54123 0.40051 0.0
C413 C 1.00079 0.54089 0.4175 0.0
C414 C 0.06061 0.48805 0.429 0.0
C415 C 0.02262 0.55969 0.37862 0.0
C416 C 0.10687 0.539 0.37368 0.0
C417 C 0.10494 0.52008 0.35027 0.0
C418 C 0.08632 0.54052 0.39111 0.0
C419 C 0.06317 0.52269 0.38507 0.0
C420 C 0.06101 0.50356 0.36146 0.0
C421 C 0.08192 0.50247 0.34434 0.0
C422 C 0.08943 0.56117 0.41607 0.0
C423 C 0.03662 0.48417 0.35435 0.0
H424 H 0.01744 0.49377 0.45707 0.0
H425 H 0.98524 0.55348 0.41458 0.0
H426 H 0.06119 0.47266 0.41105 0.0
H427 H 0.07997 0.50014 0.43181 0.0
H428 H 0.0571 0.47689 0.44668 0.0
H429 H 0.00653 0.57298 0.37957 0.0
H430 H 0.0413 0.57307 0.38 0.0
H431 H 0.02133 0.54692 0.3588 0.0
H432 H 0.12453 0.55275 0.37849 0.0
H433 H 0.08022 0.48784 0.3263 0.0
H434 H 0.08732 0.5503 0.43407 0.0
H435 H 0.07397 0.57516 0.4162 0.0
H436 H 0.10855 0.57384 0.41771 0.0
H437 H 0.0328 0.47092 0.37045 0.0
H438 H 0.03788 0.47072 0.33516 0.0
H439 H 0.01978 0.49614 0.35276 0.0
C440 C 0.82765 0.76077 0.8458 0.0
C441 C 0.81588 0.75019 0.82084 0.0
C442 C 0.82614 0.74517 0.86745 0.0
C443 C 0.81279 0.7182 0.86384 0.0
C444 C 0.80401 0.70623 0.8377 0.0
C445 C 0.8054 0.72253 0.81655 0.0
C446 C 0.83588 0.7589 0.89483 0.0
C447 C 0.79036 0.67736 0.83265 0.0
C448 C 0.80936 0.6801 0.9259 0.0
C449 C 0.78599 0.68765 0.93646 0.0
C450 C 0.81795 0.68871 0.90157 0.0
C451 C 0.80301 0.70551 0.88771 0.0
C452 C 0.77883 0.71191 0.89765 0.0
C453 C 0.77062 0.70279 0.92163 0.0
C454 C 0.8435 0.6808 0.89137 0.0
C455 C 0.76212 0.72983 0.88384 0.0
H456 H 0.83532 0.78234 0.84913 0.0
H457 H 0.79599 0.71454 0.79728 0.0
H458 H 0.81915 0.76481 0.90662 0.0
H459 H 0.84593 0.74455 0.9058 0.0
H460 H 0.84935 0.77778 0.89366 0.0
H461 H 0.79007 0.66901 0.81113 0.0
H462 H 0.7998 0.66333 0.84459 0.0
H463 H 0.77002 0.67756 0.83878 0.0
H464 H 0.82142 0.66838 0.93709 0.0
H465 H 0.7524 0.70856 0.9293 0.0
H466 H 0.85844 0.6988 0.89554 0.0
H467 H 0.84206 0.67475 0.86939 0.0
H468 H 0.85016 0.66354 0.90117 0.0
H469 H 0.77223 0.75101 0.88522 0.0
H470 H 0.74298 0.73105 0.89293 0.0
H471 H 0.75882 0.72186 0.86234 0.0
C472 C 0.98297 0.01359 0.46831 0.0
C473 C 0.00932 0.01329 0.4631 0.0
C474 C 0.96435 0.01348 0.44743 0.0
C475 C 0.97243 0.01388 0.42085 0.0
C476 C 0.99917 0.01463 0.41571 0.0
C477 C 0.01718 0.01389 0.43682 0.0
C478 C 0.93603 0.01211 0.45366 0.0
C479 C 0.00875 0.01558 0.38778 0.0
C480 C 0.93169 0.98545 0.35816 0.0
C481 C 0.92561 0.00967 0.34849 0.0
C482 C 0.94501 0.98638 0.38296 0.0
C483 C 0.95317 0.01225 0.39802 0.0
C484 C 0.94563 0.03664 0.38913 0.0
C485 C 0.93161 0.03501 0.36457 0.0
C486 C 0.95192 0.9598 0.39209 0.0
C487 C 0.95433 0.06466 0.40427 0.0
H488 H 0.97695 0.01361 0.4887 0.0
H489 H 0.03747 0.01315 0.43271 0.0
H490 H 0.92713 0.02936 0.44604 0.0
H491 H 0.92561 0.99266 0.44335 0.0
H492 H 0.933 0.01294 0.47547 0.0
H493 H 0.03025 0.01838 0.38754 0.0
H494 H 1.00162 0.99613 0.37497 0.0
H495 H 1.00105 0.03272 0.37869 0.0
H496 H 0.92698 0.96582 0.34578 0.0
H497 H 0.92719 0.05381 0.35699 0.0
H498 H 0.94825 0.9595 0.41365 0.0
H499 H 0.97287 0.95815 0.38954 0.0
H500 H 0.94076 0.94146 0.38049 0.0
H501 H 0.95129 0.06472 0.42597 0.0
H502 H 0.94393 0.0811 0.39688 0.0
H503 H 0.9754 0.06973 0.40189 0.0
C504 C 0.20357 0.2928 0.67311 0.0
C505 C 0.2183 0.29921 0.69722 0.0
C506 C 0.21292 0.2772 0.65101 0.0
C507 C 0.23817 0.26893 0.65267 0.0
C508 C 0.25396 0.27735 0.67627 0.0
C509 C 0.24364 0.29194 0.69848 0.0
C510 C 0.19517 0.26816 0.62655 0.0
C511 C 0.28136 0.26993 0.67849 0.0
C512 C 0.25259 0.2032 0.61043 0.0
C513 C 0.26379 0.21352 0.58824 0.0
C514 C 0.24379 0.22102 0.63133 0.0
C515 C 0.24727 0.2499 0.63047 0.0
C516 C 0.25897 0.26042 0.60825 0.0
C517 C 0.26662 0.24203 0.58712 0.0
C518 C 0.23059 0.20892 0.65422 0.0
C519 C 0.26391 0.29107 0.60706 0.0
H520 H 0.18413 0.29888 0.67207 0.0
H521 H 0.25498 0.29664 0.71717 0.0
H522 H 0.20464 0.27407 0.60835 0.0
H523 H 0.19108 0.24534 0.62385 0.0
H524 H 0.17646 0.27722 0.6281 0.0
H525 H 0.29226 0.28153 0.69636 0.0
H526 H 0.28101 0.24756 0.67999 0.0
H527 H 0.29193 0.27417 0.66035 0.0
H528 H 0.25037 0.18113 0.61123 0.0
H529 H 0.27564 0.25002 0.57009 0.0
H530 H 0.21119 0.21627 0.65661 0.0
H531 H 0.24205 0.21593 0.67318 0.0
H532 H 0.2282 0.18601 0.65118 0.0
H533 H 0.24535 0.30038 0.6075 0.0
H534 H 0.27398 0.29591 0.58877 0.0
H535 H 0.27591 0.30103 0.62489 0.0
C536 C 0.47448 0.49135 0.5781 0.0
C537 C 0.50003 0.50385 0.58096 0.0
C538 C 0.45798 0.49323 0.59969 0.0
C539 C 0.46732 0.50831 0.62445 0.0
C540 C 0.49324 0.5209 0.62732 0.0
C541 C 0.50933 0.51836 0.60551 0.0
C542 C 0.43061 0.47923 0.596 0.0
C543 C 0.50387 0.53736 0.65329 0.0
C544 C 0.42169 0.53783 0.67513 0.0
C545 C 0.42319 0.52033 0.69497 0.0
C546 C 0.43524 0.53361 0.65151 0.0
C547 C 0.45019 0.51105 0.64754 0.0
C548 C 0.45043 0.49237 0.66679 0.0
C549 C 0.43706 0.49736 0.69037 0.0
C550 C 0.43469 0.55413 0.63154 0.0
C551 C 0.46567 0.46773 0.66302 0.0
H552 H 0.46753 0.48024 0.5589 0.0
H553 H 0.52908 0.5282 0.60734 0.0
H554 H 0.42706 0.46467 0.61103 0.0
H555 H 0.41663 0.49478 0.59933 0.0
H556 H 0.4266 0.46772 0.57568 0.0
H557 H 0.52436 0.54608 0.65207 0.0
H558 H 0.49202 0.55455 0.65882 0.0
H559 H 0.50271 0.52411 0.66965 0.0
H560 H 0.41099 0.55564 0.67864 0.0
H561 H 0.43776 0.48338 0.70529 0.0
H562 H 0.42974 0.54333 0.61112 0.0
H563 H 0.45422 0.56559 0.63108 0.0
H564 H 0.42053 0.56924 0.63652 0.0
H565 H 0.461 0.45589 0.64297 0.0
H566 H 0.46173 0.4537 0.67849 0.0
H567 H 0.48671 0.47482 0.66406 0.0
C568 C 0.78883 0.2915 0.72294 0.0
C569 C 0.81247 0.28023 0.72316 0.0
C570 C 0.78173 0.30601 0.70202 0.0
C571 C 0.79918 0.3101 0.6814 0.0
C572 C 0.82426 0.30132 0.68326 0.0
C573 C 0.83046 0.28603 0.70394 0.0
C574 C 0.7546 0.31436 0.70062 0.0
C575 C 0.84379 0.30613 0.66226 0.0
C576 C 0.76941 0.30665 0.61132 0.0
C577 C 0.76896 0.33455 0.60828 0.0
C578 C 0.77919 0.29858 0.63502 0.0
C579 C 0.78964 0.31894 0.65596 0.0
C580 C 0.79003 0.34723 0.6527 0.0
C581 C 0.77921 0.35474 0.62902 0.0
C582 C 0.77772 0.26818 0.63786 0.0
C583 C 0.80182 0.36946 0.67419 0.0
H584 H 0.77508 0.28688 0.73797 0.0
H585 H 0.84875 0.27724 0.70427 0.0
H586 H 0.75483 0.3357 0.69554 0.0
H587 H 0.74302 0.30053 0.68456 0.0
H588 H 0.74472 0.31299 0.71976 0.0
H589 H 0.86368 0.30324 0.66932 0.0
H590 H 0.83851 0.29132 0.64403 0.0
H591 H 0.84383 0.32724 0.65653 0.0
H592 H 0.76131 0.29099 0.59541 0.0
H593 H 0.77903 0.37634 0.6266 0.0
H594 H 0.76674 0.26381 0.65572 0.0
H595 H 0.79748 0.26213 0.64087 0.0
H596 H 0.7682 0.25505 0.62004 0.0
H597 H 0.79055 0.36905 0.69252 0.0
H598 H 0.80231 0.39036 0.66778 0.0
H599 H 0.82188 0.36563 0.67963 0.0
C600 C 0.53598 1.002 0.60126 0.0
C601 C 0.51621 0.98006 0.59895 0.0
C602 C 0.55634 0.00415 0.62058 0.0
C603 C 0.55737 0.98343 0.63771 0.0
C604 C 0.53809 0.96043 0.63458 0.0
C605 C 0.51758 0.95913 0.61533 0.0
C606 C 0.57628 0.0291 0.62321 0.0
C607 C 0.53878 0.9376 0.652 0.0
C608 C 0.623 0.98258 0.6733 0.0
C609 C 0.61945 0.99663 0.6987 0.0
C610 C 0.60269 0.97717 0.65365 0.0
C611 C 0.57829 0.98648 0.65926 0.0
C612 C 0.57448 1.00042 0.68494 0.0
C613 C 0.595 0.00509 0.70441 0.0
C614 C 0.60747 0.96182 0.62674 0.0
C615 C 0.54891 0.0111 0.69162 0.0
H616 H 0.53505 0.01794 0.58828 0.0
H617 H 0.5022 0.94225 0.61363 0.0
H618 H 0.57596 0.04071 0.64349 0.0
H619 H 0.59599 0.02257 0.62084 0.0
H620 H 0.57283 0.04323 0.60815 0.0
H621 H 0.52376 0.92006 0.64551 0.0
H622 H 0.55811 0.92986 0.65166 0.0
H623 H 0.53557 0.94568 0.67303 0.0
H624 H 0.64169 0.97561 0.66875 0.0
H625 H 0.59204 0.01593 0.72394 0.0
H626 H 0.6062 0.97562 0.611 0.0
H627 H 0.59236 0.94411 0.62161 0.0
H628 H 0.6268 0.95402 0.62625 0.0
H629 H 0.54477 0.02663 0.67825 0.0
H630 H 0.54877 0.02075 0.71271 0.0
H631 H 0.53297 0.99404 0.68813 0.0
C632 C 0.85056 0.24726 0.81778 0.0
C633 C 0.84719 0.2295 0.79373 0.0
C634 C 0.86854 0.24312 0.83789 0.0
C635 C 0.8832 0.22031 0.83405 0.0
C636 C 0.87868 0.20133 0.81041 0.0
C637 C 0.86079 0.20626 0.79045 0.0
C638 C 0.87269 0.26391 0.86267 0.0
C639 C 0.89352 0.1765 0.80569 0.0
C640 C 0.94957 0.22909 0.87015 0.0
C641 C 0.94464 0.21575 0.8929 0.0
C642 C 0.92986 0.23033 0.85074 0.0
C643 C 0.90454 0.21762 0.85385 0.0
C644 C 0.89953 0.20352 0.87639 0.0
C645 C 0.91956 0.20291 0.89572 0.0
C646 C 0.93603 0.24582 0.82718 0.0
C647 C 0.87292 0.18938 0.88025 0.0
H648 H 0.83959 0.2649 0.82048 0.0
H649 H 0.85819 0.19257 0.7718 0.0
H650 H 0.8708 0.25339 0.8809 0.0
H651 H 0.89264 0.27465 0.86335 0.0
H652 H 0.85873 0.27961 0.86328 0.0
H653 H 0.88569 0.16214 0.78788 0.0
H654 H 0.91415 0.18333 0.80262 0.0
H655 H 0.89299 0.16514 0.82344 0.0
H656 H 0.9688 0.23914 0.86771 0.0
H657 H 0.91552 0.19238 0.91308 0.0
H658 H 0.92403 0.26325 0.8273 0.0
H659 H 0.93116 0.23208 0.80818 0.0
H660 H 0.95678 0.25413 0.82739 0.0
H661 H 0.85883 0.20488 0.88289 0.0
H662 H 0.87253 0.17788 0.89794 0.0
H663 H 0.86627 0.1748 0.86221 0.0
C664 C 0.51658 0.92849 0.5494 0.0
C665 C 0.49149 0.93336 0.55658 0.0
C666 C 0.52192 0.90187 0.53883 0.0
C667 C 0.50145 0.88007 0.53467 0.0
C668 C 0.47646 0.88477 0.54342 0.0
C669 C 0.472 0.9112 0.55478 0.0
C670 C 0.54908 0.89746 0.53085 0.0
C671 C 0.45391 0.86244 0.53901 0.0
C672 C 0.50285 0.82308 0.47664 0.0
C673 C 0.50625 0.80027 0.49005 0.0
C674 C 0.50181 0.84932 0.49092 0.0
C675 C 0.50527 0.85302 0.51922 0.0
C676 C 0.50994 0.83023 0.53271 0.0
C677 C 0.50983 0.80401 0.51801 0.0
C678 C 0.49599 0.87285 0.47581 0.0
C679 C 0.51471 0.83349 0.56269 0.0
H680 H 0.53163 0.94568 0.55083 0.0
H681 H 0.4527 0.9151 0.56074 0.0
H682 H 0.55463 0.87786 0.53702 0.0
H683 H 0.55002 0.89596 0.50876 0.0
H684 H 0.56345 0.91468 0.53986 0.0
H685 H 0.43594 0.86925 0.54786 0.0
H686 H 0.45001 0.85627 0.51722 0.0
H687 H 0.45859 0.84386 0.54784 0.0
H688 H 0.50011 0.82018 0.45503 0.0
H689 H 0.51292 0.78644 0.52836 0.0
H690 H 0.51162 0.89016 0.47998 0.0
H691 H 0.4777 0.88069 0.48265 0.0
H692 H 0.494 0.86663 0.45383 0.0
H693 H 0.52963 0.85111 0.56906 0.0
H694 H 0.52116 0.81462 0.5697 0.0
H695 H 0.49667 0.83807 0.57277 0.0
C696 C 0.13267 0.30869 0.76358 0.0
C697 C 0.15852 0.30787 0.77174 0.0
C698 C 0.11246 0.30078 0.7799 0.0
C699 C 0.11843 0.29137 0.80462 0.0
C700 C 0.14466 0.29101 0.81305 0.0
C701 C 0.16441 0.29946 0.79652 0.0
C702 C 0.08477 0.30186 0.77045 0.0
C703 C 0.15184 0.28073 0.83905 0.0
C704 C 0.07049 0.28551 0.85965 0.0
C705 C 0.0622 0.25717 0.8559 0.0
C706 C 0.08785 0.29728 0.84227 0.0
C707 C 0.09742 0.28019 0.82097 0.0
C708 C 0.08833 0.25178 0.81649 0.0
C709 C 0.07066 0.24067 0.83387 0.0
C710 C 0.0967 0.32777 0.8473 0.0
C711 C 0.09828 0.2328 0.79416 0.0
H712 H 0.1284 0.31527 0.74432 0.0
H713 H 0.18453 0.29866 0.80245 0.0
H714 H 0.0747 0.28065 0.76641 0.0
H715 H 0.07422 0.31327 0.78626 0.0
H716 H 0.08352 0.31192 0.75192 0.0
H717 H 0.17315 0.28265 0.84306 0.0
H718 H 0.14298 0.29244 0.85599 0.0
H719 H 0.14412 0.25873 0.83848 0.0
H720 H 0.06386 0.29842 0.87652 0.0
H721 H 0.06436 0.21875 0.83081 0.0
H722 H 0.09498 0.33729 0.82853 0.0
H723 H 0.11743 0.33097 0.85407 0.0
H724 H 0.08534 0.33868 0.86278 0.0
H725 H 0.09586 0.24092 0.77475 0.0
H726 H 0.08819 0.21154 0.79245 0.0
H727 H 0.11933 0.23177 0.7978 0.0
C728 C 0.56087 0.5535 0.50571 0.0
C729 C 0.54172 0.53109 0.50071 0.0
C730 C 0.56099 0.57586 0.49077 0.0
C731 C 0.54136 0.57568 0.47054 0.0
C732 C 0.52386 0.55164 0.4635 0.0
C733 C 0.52439 0.52951 0.47862 0.0
C734 C 0.58038 0.60082 0.49858 0.0
C735 C 0.50273 0.55039 0.44203 0.0
C736 C 0.51768 0.64555 0.46564 0.0
C737 C 0.52992 0.65355 0.44297 0.0
C738 C 0.52069 0.61991 0.47427 0.0
C739 C 0.5366 0.6019 0.46007 0.0
C740 C 0.54839 0.60948 0.4367 0.0
C741 C 0.54481 0.63517 0.42834 0.0
C742 C 0.50732 0.61238 0.49902 0.0
C743 C 0.56554 0.59094 0.42109 0.0
H744 H 0.57408 0.55473 0.52298 0.0
H745 H 0.50961 0.51206 0.47492 0.0
H746 H 0.58821 0.60907 0.48055 0.0
H747 H 0.57062 0.61729 0.50998 0.0
H748 H 0.59676 0.59604 0.51128 0.0
H749 H 0.49399 0.5289 0.43564 0.0
H750 H 0.48721 0.56265 0.44991 0.0
H751 H 0.51025 0.55942 0.42427 0.0
H752 H 0.50613 0.65955 0.47703 0.0
H753 H 0.55447 0.64124 0.41086 0.0
H754 H 0.52196 0.60964 0.5147 0.0
H755 H 0.49491 0.59249 0.4943 0.0
H756 H 0.49506 0.62832 0.50734 0.0
H757 H 0.58326 0.58942 0.43344 0.0
H758 H 0.57145 0.5987 0.40212 0.0
H759 H 0.55547 0.56978 0.41636 0.0
C760 C 0.86518 0.79815 0.77749 0.0
C761 C 0.84528 0.77638 0.77589 0.0
C762 C 0.88574 0.79743 0.75998 0.0
C763 C 0.88656 0.77416 0.74059 0.0
C764 C 0.86806 0.75082 0.74106 0.0
C765 C 0.84752 0.75228 0.75866 0.0
C766 C 0.90484 0.82283 0.76036 0.0
C767 C 0.86846 0.72533 0.72119 0.0
C768 C 0.90962 0.78718 0.67174 0.0
C769 C 0.93481 0.77932 0.67217 0.0
C770 C 0.89404 0.78595 0.69399 0.0
C771 C 0.90363 0.77612 0.71728 0.0
C772 C 0.9292 0.76846 0.71803 0.0
C773 C 0.94457 0.77036 0.69554 0.0
C774 C 0.86715 0.79497 0.69243 0.0
C775 C 0.94005 0.75762 0.7423 0.0
H776 H 0.86325 0.81683 0.79077 0.0
H777 H 0.83196 0.73559 0.75728 0.0
H778 H 0.92485 0.81721 0.75792 0.0
H779 H 0.89999 0.83406 0.74336 0.0
H780 H 0.90438 0.83703 0.77922 0.0
H781 H 0.85599 0.70749 0.72716 0.0
H782 H 0.86125 0.72949 0.70128 0.0
H783 H 0.88851 0.71971 0.71906 0.0
H784 H 0.90194 0.79423 0.65384 0.0
H785 H 0.96392 0.76397 0.69596 0.0
H786 H 0.86508 0.8117 0.70887 0.0
H787 H 0.85247 0.77751 0.69502 0.0
H788 H 0.86276 0.80254 0.67307 0.0
H789 H 0.93868 0.77252 0.76046 0.0
H790 H 0.96061 0.75362 0.74022 0.0
H791 H 0.92842 0.73813 0.74551 0.0
C792 C 0.05933 0.97456 0.55615 0.0
C793 C 0.05984 0.9707 0.5282 0.0
C794 C 0.05885 0.95192 0.5709 0.0
C795 C 0.05801 0.92486 0.55717 0.0
C796 C 0.06064 0.92129 0.52906 0.0
C797 C 0.062 0.94436 0.51502 0.0
C798 C 0.05735 0.95683 0.60091 0.0
C799 C 0.05944 0.89294 0.5134 0.0
C800 C 0.06394 0.85831 0.58721 0.0
C801 C 0.03785 0.84777 0.58807 0.0
C802 C 0.07088 0.8846 0.57952 0.0
C803 C 0.05127 0.90013 0.57127 0.0
C804 C 0.02486 0.8901 0.57342 0.0
C805 C 0.01849 0.86423 0.58225 0.0
C806 C 0.09921 0.89497 0.57876 0.0
C807 C 0.00327 0.9056 0.5643 0.0
H808 H 0.0575 0.99499 0.56623 0.0
H809 H 0.06209 0.94158 0.49335 0.0
H810 H 0.037 0.95213 0.60648 0.0
H811 H 0.0693 0.94311 0.61069 0.0
H812 H 0.06393 0.97861 0.60887 0.0
H813 H 0.06328 0.89381 0.49192 0.0
H814 H 0.07372 0.88075 0.52191 0.0
H815 H 0.03991 0.88176 0.5148 0.0
H816 H 0.07895 0.84557 0.5917 0.0
H817 H 0.99832 0.85594 0.58252 0.0
H818 H 0.10262 0.91727 0.58632 0.0
H819 H 0.10538 0.89237 0.5578 0.0
H820 H 0.11158 0.88352 0.59083 0.0
H821 H 0.00567 0.92718 0.57418 0.0
H822 H 0.98383 0.89584 0.56865 0.0
H823 H 0.00404 0.90636 0.5424 0.0
C824 C 0.15925 0.74053 0.73824 0.0
C825 C 0.15759 0.71464 0.74735 0.0
C826 C 0.14162 0.74621 0.71854 0.0
C827 C 0.12205 0.72532 0.70755 0.0
C828 C 0.12041 0.69902 0.71662 0.0
C829 C 0.13821 0.69403 0.73652 0.0
C830 C 0.14401 0.77449 0.70943 0.0
C831 C 0.09992 0.67619 0.70528 0.0
C832 C 0.06309 0.74711 0.67252 0.0
C833 C 0.06938 0.74274 0.64554 0.0
C834 C 0.07998 0.74138 0.69293 0.0
C835 C 0.10363 0.73088 0.68619 0.0
C836 C 0.10998 0.72615 0.65902 0.0
C837 C 0.09284 0.73221 0.63906 0.0
C838 C 0.07264 0.74683 0.72172 0.0
C839 C 0.13497 0.71481 0.65104 0.0
H840 H 0.1745 0.75627 0.74649 0.0
H841 H 0.13697 0.6741 0.74381 0.0
H842 H 0.14769 0.77281 0.68774 0.0
H843 H 0.12557 0.78382 0.71229 0.0
H844 H 0.15993 0.78861 0.72047 0.0
H845 H 0.10129 0.65695 0.71452 0.0
H846 H 0.08036 0.68284 0.70849 0.0
H847 H 0.1018 0.67158 0.68335 0.0
H848 H 0.04504 0.75526 0.67777 0.0
H849 H 0.09787 0.72861 0.6183 0.0
H850 H 0.0874 0.76218 0.73303 0.0
H851 H 0.07226 0.72762 0.73129 0.0
H852 H 0.05339 0.75469 0.7236 0.0
H853 H 0.15175 0.72913 0.66001 0.0
H854 H 0.13674 0.7117 0.62898 0.0
H855 H 0.13619 0.6948 0.65884 0.0
C856 C 0.99882 0.57329 0.49161 0.0
C857 C 0.97694 0.56849 0.47415 0.0
C858 C 0.00589 0.59952 0.5059 0.0
C859 C 0.99048 0.62118 0.50268 0.0
C860 C 0.9699 0.61692 0.48303 0.0
C861 C 0.96349 0.59059 0.46889 0.0
C862 C 0.02833 0.60331 0.52618 0.0
C863 C 0.95296 0.63933 0.47882 0.0
C864 C 0.97917 0.67109 0.56373 0.0
C865 C 0.99358 0.69549 0.55853 0.0
C866 C 0.97858 0.64669 0.546 0.0
C867 C 0.99299 0.6465 0.52253 0.0
C868 C 0.00829 0.67078 0.51757 0.0
C869 C 0.00824 0.69506 0.53552 0.0
C870 C 0.96184 0.6213 0.55201 0.0
C871 C 0.02416 0.67129 0.49298 0.0
H872 H 0.00907 0.55601 0.49566 0.0
H873 H 0.94664 0.58664 0.45521 0.0
H874 H 0.04 0.62347 0.52571 0.0
H875 H 0.02078 0.6031 0.54655 0.0
H876 H 0.04116 0.5866 0.52267 0.0
H877 H 0.94021 0.63397 0.46044 0.0
H878 H 0.94053 0.6426 0.49624 0.0
H879 H 0.96492 0.65911 0.47743 0.0
H880 H 0.96777 0.67117 0.58142 0.0
H881 H 0.01936 0.71379 0.53123 0.0
H882 H 0.97369 0.60383 0.55249 0.0
H883 H 0.94655 0.61513 0.53592 0.0
H884 H 0.95236 0.62467 0.57144 0.0
H885 H 0.03605 0.65371 0.49094 0.0
H886 H 0.03719 0.69079 0.49351 0.0
H887 H 0.01107 0.66902 0.47487 0.0
C888 C 0.75477 0.84947 0.25267 0.0
C889 C 0.73686 0.84702 0.23099 0.0
C890 C 0.77684 0.8687 0.25453 0.0
C891 C 0.7813 0.8856 0.23392 0.0
C892 C 0.76402 0.882 0.21112 0.0
C893 C 0.74186 0.86273 0.20998 0.0
C894 C 0.79474 0.87174 0.27913 0.0
C895 C 0.76837 0.89926 0.18852 0.0
C896 C 0.82129 0.95452 0.25523 0.0
C897 C 0.84618 0.94873 0.24784 0.0
C898 C 0.79988 0.93436 0.25016 0.0
C899 C 0.80335 0.90787 0.23709 0.0
C900 C 0.82824 0.90217 0.22882 0.0
C901 C 0.84935 0.92258 0.23444 0.0
C902 C 0.77367 0.94115 0.25952 0.0
C903 C 0.83267 0.87431 0.21456 0.0
H904 H 0.75091 0.83689 0.26864 0.0
H905 H 0.72789 0.86069 0.19326 0.0
H906 H 0.81494 0.86966 0.27331 0.0
H907 H 0.79454 0.89261 0.2903 0.0
H908 H 0.78908 0.85619 0.29277 0.0
H909 H 0.75471 0.89202 0.17111 0.0
H910 H 0.76577 0.92103 0.19563 0.0
H911 H 0.7885 0.89889 0.18181 0.0
H912 H 0.81861 0.97463 0.26553 0.0
H913 H 0.86843 0.91795 0.22834 0.0
H914 H 0.76714 0.92773 0.27477 0.0
H915 H 0.75912 0.937 0.24255 0.0
H916 H 0.77397 0.96302 0.26836 0.0
H917 H 0.82912 0.85837 0.22824 0.0
H918 H 0.85271 0.87389 0.2075 0.0
H919 H 0.81882 0.86853 0.19711 0.0
C920 C 0.74601 0.18118 0.29618 0.0
C921 C 0.71999 0.17025 0.29526 0.0
C922 C 0.76592 0.16384 0.29576 0.0
C923 C 0.75951 0.13493 0.29455 0.0
C924 C 0.73323 0.12411 0.29561 0.0
C925 C 0.71376 0.14194 0.2958 0.0
C926 C 0.79362 0.17627 0.29456 0.0
C927 C 0.72551 0.09354 0.29472 0.0
C928 C 0.80353 0.08916 0.25552 0.0
C929 C 0.81855 0.08052 0.27589 0.0
C930 C 0.78434 0.10679 0.26143 0.0
C931 C 0.77974 0.11589 0.28846 0.0
C932 C 0.79448 0.10692 0.3092 0.0
C933 C 0.81382 0.08943 0.30268 0.0
C934 C 0.76919 0.11597 0.23865 0.0
C935 C 0.7899 0.11591 0.33824 0.0
H936 H 0.75066 0.2031 0.29554 0.0
H937 H 0.69354 0.13369 0.29519 0.0
H938 H 0.80637 0.16779 0.30882 0.0
H939 H 0.8006 0.17084 0.27419 0.0
H940 H 0.79565 0.1991 0.29915 0.0
H941 H 0.70491 0.08889 0.29958 0.0
H942 H 0.72829 0.08313 0.27436 0.0
H943 H 0.73795 0.0846 0.30893 0.0
H944 H 0.80702 0.08251 0.23476 0.0
H945 H 0.8253 0.08284 0.31856 0.0
H946 H 0.77189 0.13879 0.23984 0.0
H947 H 0.74819 0.10973 0.24021 0.0
H948 H 0.77521 0.10711 0.21874 0.0
H949 H 0.79365 0.13868 0.34255 0.0
H950 H 0.80247 0.10652 0.35201 0.0
H951 H 0.76934 0.11017 0.34251 0.0
C952 C 0.42077 0.97443 0.01211 0.0
C953 C 0.42252 0.97927 0.98537 0.0
C954 C 0.40018 0.95687 0.02015 0.0
C955 C 0.38115 0.94354 1.00085 0.0
C956 C 0.38292 0.94831 0.97376 0.0
C957 C 0.40355 0.96628 0.96639 0.0
C958 C 0.39891 0.95243 0.04924 0.0
C959 C 0.36318 0.93428 0.95255 0.0
C960 C 0.34357 0.87726 0.0163 0.0
C961 C 0.31971 0.88614 0.02392 0.0
C962 C 0.36361 0.8957 0.00862 0.0
C963 C 0.35989 0.92384 0.00884 0.0
C964 C 0.33596 0.93304 0.01665 0.0
C965 C 0.31608 0.91404 0.02394 0.0
C966 C 0.38875 0.88502 1.00013 0.0
C967 C 0.33141 0.96297 0.0174 0.0
H968 H 0.43566 0.98433 0.02666 0.0
H969 H 0.40486 0.97035 0.94578 0.0
H970 H 0.37995 0.9574 0.05699 0.0
H971 H 0.40046 0.93043 0.05131 0.0
H972 H 0.41461 0.96528 0.06189 0.0
H973 H 0.36728 0.94036 0.93243 0.0
H974 H 0.36291 0.91157 0.95152 0.0
H975 H 0.34352 0.93945 0.95781 0.0
H976 H 0.34655 0.85572 0.01601 0.0
H977 H 0.29776 0.92112 0.02988 0.0
H978 H 0.40507 0.89577 0.01336 0.0
H979 H 0.39272 0.88941 0.97946 0.0
H980 H 0.38843 0.86247 1.00078 0.0
H981 H 0.34614 0.97607 0.03104 0.0
H982 H 0.31183 0.96687 0.02423 0.0
H983 H 0.33362 0.96953 0.99721 0.0
C984 C 0.27763 0.34398 0.29336 0.0
C985 C 0.26919 0.31578 0.28946 0.0
C986 C 0.26027 0.36359 0.29063 0.0
C987 C 0.23375 0.35473 0.28397 0.0
C988 C 0.225 0.32619 0.28072 0.0
C989 C 0.24292 0.30701 0.28337 0.0
C990 C 0.27048 0.39379 0.29417 0.0
C991 C 0.19693 0.31593 0.27377 0.0
C992 C 0.19116 0.41315 0.29474 0.0
C993 C 0.19169 0.42255 0.26955 0.0
C994 C 0.20323 0.3897 0.29941 0.0
C995 C 0.21594 0.37543 0.27836 0.0
C996 C 0.21441 0.38342 0.25236 0.0
C997 C 0.20232 0.40686 0.24829 0.0
C998 C 0.20415 0.38158 0.32733 0.0
C999 C 0.22743 0.36867 0.22925 0.0
H1000 H 0.29794 0.35058 0.29834 0.0
H1001 H 0.23657 0.2851 0.28036 0.0
H1002 H 0.26786 0.40245 0.27505 0.0
H1003 H 0.25939 0.40539 0.30935 0.0
H1004 H 0.29136 0.39727 0.30049 0.0
H1005 H 0.19282 0.2934 0.27454 0.0
H1006 H 0.1842 0.32693 0.2877 0.0
H1007 H 0.19175 0.32031 0.25331 0.0
H1008 H 0.18302 0.42519 0.31126 0.0
H1009 H 0.20249 0.41383 0.22867 0.0
H1010 H 0.22381 0.38796 0.33668 0.0
H1011 H 0.20036 0.35888 0.32682 0.0
H1012 H 0.18986 0.39151 0.34018 0.0
H1013 H 0.24878 0.37301 0.23242 0.0
H1014 H 0.22182 0.37531 0.20978 0.0
H1015 H 0.22252 0.34604 0.22811 0.0
C1016 C 0.10061 0.03827 0.53719 0.0
C1017 C 0.09333 0.02141 0.51321 0.0
C1018 C 0.12486 0.05431 0.54042 0.0
C1019 C 0.14202 0.0536 0.51898 0.0
C1020 C 0.13558 0.0346 0.49569 0.0
C1021 C 0.1113 0.01874 0.49313 0.0
C1022 C 0.131 0.07392 0.56576 0.0
C1023 C 0.15308 0.03304 0.47228 0.0
C1024 C 0.18053 0.12166 0.50922 0.0
C1025 C 0.20561 0.11823 0.51851 0.0
C1026 C 0.1599 0.10076 0.50922 0.0
C1027 C 0.1642 0.07568 0.51898 0.0
C1028 C 0.18947 0.07192 0.52827 0.0
C1029 C 0.20989 0.09316 0.5278 0.0
C1030 C 0.13339 0.10561 0.49877 0.0
C1031 C 0.19482 0.04559 0.53896 0.0
H1032 H 0.08646 0.04063 0.55247 0.0
H1033 H 0.10536 0.00597 0.47444 0.0
H1034 H 0.15148 0.07388 0.57269 0.0
H1035 H 0.12834 0.09519 0.56174 0.0
H1036 H 0.11818 0.06862 0.58207 0.0
H1037 H 0.14745 0.01434 0.45775 0.0
H1038 H 0.15191 0.05146 0.46173 0.0
H1039 H 0.17356 0.03302 0.47917 0.0
H1040 H 0.17693 0.14081 0.50186 0.0
H1041 H 0.22912 0.09029 0.53517 0.0
H1042 H 0.11925 0.1042 0.51476 0.0
H1043 H 0.12655 0.08945 0.48201 0.0
H1044 H 0.13332 0.1261 0.49157 0.0
H1045 H 0.1828 0.04251 0.55642 0.0
H1046 H 0.21554 0.04569 0.54519 0.0
H1047 H 0.18933 0.02768 0.52351 0.0
C1048 C 0.79932 0.17107 0.74151 0.0
C1049 C 0.80245 0.19263 0.76261 0.0
C1050 C 0.78253 0.14715 0.74324 0.0
C1051 C 0.76959 0.14419 0.76723 0.0
C1052 C 0.775 0.16463 0.78965 0.0
C1053 C 0.79112 0.18889 0.78693 0.0
C1054 C 0.77705 0.12624 0.71867 0.0
C1055 C 0.76256 0.16168 0.81599 0.0
C1056 C 0.70329 0.10239 0.76355 0.0
C1057 C 0.70972 0.07671 0.76927 0.0
C1058 C 0.72268 0.12437 0.7623 0.0
C1059 C 0.74896 0.12086 0.76807 0.0
C1060 C 0.75546 0.095 0.77418 0.0
C1061 C 0.73581 0.07308 0.77417 0.0
C1062 C 0.71505 0.15135 0.75479 0.0
C1063 C 0.78304 0.0907 0.78146 0.0
H1064 H 0.8086 0.17391 0.72291 0.0
H1065 H 0.79361 0.2056 0.80323 0.0
H1066 H 0.77926 0.10518 0.72353 0.0
H1067 H 0.75668 0.12629 0.71136 0.0
H1068 H 0.79002 0.13069 0.70222 0.0
H1069 H 0.77195 0.17691 0.83243 0.0
H1070 H 0.74178 0.16489 0.81415 0.0
H1071 H 0.76358 0.1406 0.82147 0.0
H1072 H 0.68312 0.10521 0.75986 0.0
H1073 H 0.74078 0.05335 0.77912 0.0
H1074 H 0.72625 0.15742 0.7376 0.0
H1075 H 0.71978 0.16788 0.77177 0.0
H1076 H 0.69404 0.15021 0.74935 0.0
H1077 H 0.79579 0.0948 0.7648 0.0
H1078 H 0.7848 0.06943 0.78615 0.0
H1079 H 0.79036 0.10551 0.79912 0.0
C1080 C 0.44877 0.04141 0.5495 0.0
C1081 C 0.44192 0.01368 0.55259 0.0
C1082 C 0.43002 0.05807 0.54212 0.0
C1083 C 0.40394 0.04648 0.53697 0.0
C1084 C 0.39702 0.01834 0.53969 0.0
C1085 C 0.41602 0.00244 0.54791 0.0
C1086 C 0.43809 0.08814 0.54008 0.0
C1087 C 0.36957 0.00504 0.53392 0.0
C1088 C 0.35081 0.09423 0.54282 0.0
C1089 C 0.34666 0.09886 0.51616 0.0
C1090 C 0.3694 0.07729 0.54983 0.0
C1091 C 0.38374 0.064 0.52961 0.0
C1092 C 0.37903 0.06783 0.50253 0.0
C1093 C 0.36079 0.08555 0.49616 0.0
C1094 C 0.37424 0.07427 0.579 0.0
C1095 C 0.3934 0.0534 0.48033 0.0
H1096 H 0.46884 0.04999 0.55276 0.0
H1097 H 0.41065 0.98113 0.55073 0.0
H1098 H 0.434 0.0927 0.51944 0.0
H1099 H 0.42663 0.10121 0.55366 0.0
H1100 H 0.45901 0.09409 0.54531 0.0
H1101 H 0.36774 0.98254 0.53537 0.0
H1102 H 0.35645 0.01482 0.54826 0.0
H1103 H 0.36281 0.00824 0.51354 0.0
H1104 H 0.34018 0.10469 0.55844 0.0
H1105 H 0.3576 0.08901 0.47553 0.0
H1106 H 0.39474 0.0816 0.58511 0.0
H1107 H 0.37098 0.05224 0.58214 0.0
H1108 H 0.36151 0.08608 0.59229 0.0
H1109 H 0.41441 0.06053 0.48285 0.0
H1110 H 0.38642 0.05726 0.46021 0.0
H1111 H 0.39116 0.03083 0.48127 0.0
C1112 C 0.57707 0.4729 0.50369 0.0
C1113 C 0.57621 0.49291 0.52577 0.0
C1114 C 0.59872 0.45802 0.50016 0.0
C1115 C 0.6198 0.46336 0.51929 0.0
C1116 C 0.6201 0.48582 0.53983 0.0
C1117 C 0.59825 0.50033 0.54279 0.0
C1118 C 0.59768 0.43459 0.47773 0.0
C1119 C 0.64211 0.4925 0.56059 0.0
C1120 C 0.64952 0.40152 0.54028 0.0
C1121 C 0.67374 0.40336 0.52859 0.0
C1122 C 0.63185 0.42066 0.53697 0.0
C1123 C 0.63833 0.44233 0.52139 0.0
C1124 C 0.66253 0.44412 0.50903 0.0
C1125 C 0.68002 0.42465 0.51285 0.0
C1126 C 0.60638 0.41796 0.55073 0.0
C1127 C 0.67007 0.46682 0.49218 0.0
H1128 H 0.55989 0.46717 0.49066 0.0
H1129 H 0.59742 0.51591 0.55982 0.0
H1130 H 0.61688 0.43349 0.46882 0.0
H1131 H 0.59233 0.41482 0.48579 0.0
H1132 H 0.58308 0.43667 0.46174 0.0
H1133 H 0.64177 0.51329 0.57195 0.0
H1134 H 0.6405 0.47705 0.57498 0.0
H1135 H 0.66109 0.49152 0.5512 0.0
H1136 H 0.64438 0.3852 0.55247 0.0
H1137 H 0.69866 0.42623 0.50369 0.0
H1138 H 0.58995 0.41686 0.53592 0.0
H1139 H 0.60522 0.4364 0.56552 0.0
H1140 H 0.60391 0.39936 0.56133 0.0
H1141 H 0.65464 0.46751 0.47664 0.0
H1142 H 0.68861 0.46414 0.48224 0.0
H1143 H 0.67215 0.48704 0.50492 0.0
C1144 C 0.70321 0.20806 0.35279 0.0
C1145 C 0.70817 0.22169 0.33041 0.0
C1146 C 0.71093 0.22098 0.37861 0.0
C1147 C 0.72417 0.24798 0.38183 0.0
C1148 C 0.73047 0.26112 0.35898 0.0
C1149 C 0.72219 0.24783 0.33351 0.0
C1150 C 0.70376 0.20635 0.40245 0.0
C1151 C 0.74498 0.28963 0.3615 0.0
C1152 C 0.71852 0.29415 0.44717 0.0
C1153 C 0.74176 0.29137 0.46095 0.0
C1154 C 0.7125 0.28 0.42144 0.0
C1155 C 0.73032 0.26303 0.40907 0.0
C1156 C 0.754 0.26055 0.42267 0.0
C1157 C 0.75935 0.27459 0.44849 0.0
C1158 C 0.68693 0.28296 0.40759 0.0
C1159 C 0.77368 0.24306 0.40995 0.0
H1160 H 0.69207 0.18794 0.3501 0.0
H1161 H 0.72584 0.25817 0.31595 0.0
H1162 H 0.72113 0.20593 0.41567 0.0
H1163 H 0.68978 0.21777 0.41438 0.0
H1164 H 0.69487 0.18484 0.39646 0.0
H1165 H 0.75031 0.29588 0.34174 0.0
H1166 H 0.7328 0.30483 0.37133 0.0
H1167 H 0.7629 0.29059 0.37427 0.0
H1168 H 0.70478 0.30696 0.45669 0.0
H1169 H 0.77748 0.27249 0.45888 0.0
H1170 H 0.67562 0.26242 0.40277 0.0
H1171 H 0.69034 0.29141 0.38839 0.0
H1172 H 0.67509 0.29672 0.42003 0.0
H1173 H 0.76503 0.22132 0.40539 0.0
H1174 H 0.79139 0.24369 0.42303 0.0
H1175 H 0.7794 0.25024 0.3907 0.0
C1176 C 0.52255 0.02603 0.94506 0.0
C1177 C 0.49661 0.01848 0.93657 0.0
C1178 C 0.54244 0.02454 0.92673 0.0
C1179 C 0.53619 0.01464 0.89943 0.0
C1180 C 0.50988 0.00808 0.89067 0.0
C1181 C 0.49043 0.01048 0.9093 0.0
C1182 C 0.57019 0.03244 0.93678 0.0
C1183 C 0.5023 0.99712 0.86189 0.0
C1184 C 0.5857 0.02461 0.84616 0.0
C1185 C 0.5966 0.9995 0.84399 0.0
C1186 C 0.56632 0.03002 0.86439 0.0
C1187 C 0.55712 0.00955 0.88034 0.0
C1188 C 0.56766 0.98392 0.8778 0.0
C1189 C 0.58751 0.97935 0.85992 0.0
C1190 C 0.55604 0.05781 0.86692 0.0
C1191 C 0.55795 0.96129 0.89397 0.0
H1192 H 0.52736 0.03186 0.96617 0.0
H1193 H 0.47029 0.00498 0.90278 0.0
H1194 H 0.5805 0.01371 0.93595 0.0
H1195 H 0.58038 0.04644 0.92383 0.0
H1196 H 0.57158 0.04277 0.95773 0.0
H1197 H 0.48094 0.99416 0.8581 0.0
H1198 H 0.5109 0.01139 0.84829 0.0
H1199 H 0.51001 0.97701 0.85669 0.0
H1200 H 0.59286 0.04043 0.83416 0.0
H1201 H 0.59583 0.95991 0.85831 0.0
H1202 H 0.55917 0.06795 0.88784 0.0
H1203 H 0.53485 0.05524 0.86228 0.0
H1204 H 0.56552 0.07166 0.85337 0.0
H1205 H 0.56142 0.96845 0.91563 0.0
H1206 H 0.56755 0.94225 0.88902 0.0
H1207 H 0.53672 0.95613 0.89032 0.0
C1208 C 0.32993 0.25518 0.34781 0.0
C1209 C 0.31727 0.24458 0.32328 0.0
C1210 C 0.32795 0.24033 0.36997 0.0
C1211 C 0.31321 0.2141 0.36732 0.0
C1212 C 0.30338 0.2019 0.34159 0.0
C1213 C 0.30526 0.21748 0.31991 0.0
C1214 C 0.33884 0.25426 0.39688 0.0
C1215 C 0.28818 0.17374 0.33756 0.0
C1216 C 0.30894 0.17779 0.43045 0.0
C1217 C 0.28637 0.1871 0.44142 0.0
C1218 C 0.31749 0.18528 0.4057 0.0
C1219 C 0.30332 0.20271 0.3918 0.0
C1220 C 0.27989 0.21096 0.40221 0.0
C1221 C 0.27171 0.20295 0.42664 0.0
C1222 C 0.34222 0.17548 0.39505 0.0
C1223 C 0.26405 0.22963 0.38835 0.0
H1224 H 0.33879 0.27635 0.3504 0.0
H1225 H 0.29518 0.20951 0.30098 0.0
H1226 H 0.32279 0.26161 0.40893 0.0
H1227 H 0.34823 0.23959 0.40804 0.0
H1228 H 0.35318 0.27226 0.39494 0.0
H1229 H 0.287 0.16478 0.31618 0.0
H1230 H 0.29704 0.15943 0.34964 0.0
H1231 H 0.26817 0.17544 0.34424 0.0
H1232 H 0.32045 0.16552 0.44161 0.0
H1233 H 0.25411 0.21009 0.43465 0.0
H1234 H 0.35801 0.19271 0.39834 0.0
H1235 H 0.34001 0.1688 0.37319 0.0
H1236 H 0.34818 0.15814 0.4052 0.0
H1237 H 0.27525 0.25021 0.389 0.0
H1238 H 0.24533 0.23235 0.39791 0.0
H1239 H 0.25993 0.2213 0.36703 0.0
C1240 C 0.49682 0.4877 0.94847 0.0
C1241 C 0.50726 0.51151 0.965 0.0
C1242 C 0.47995 0.48925 0.92658 0.0
C1243 C 0.47403 0.51536 0.92052 0.0
C1244 C 0.48358 0.5394 0.93787 0.0
C1245 C 0.49987 0.53713 0.96011 0.0
C1246 C 0.4699 0.46303 0.90892 0.0
C1247 C 0.47812 0.56767 0.93194 0.0
C1248 C 0.46538 0.51778 0.84605 0.0
C1249 C 0.43841 0.51661 0.84238 0.0
C1250 C 0.47713 0.51867 0.87154 0.0
C1251 C 0.46148 0.51762 0.894 0.0
C1252 C 0.4342 0.51699 0.89057 0.0
C1253 C 0.42295 0.51689 0.86472 0.0
C1254 C 0.50632 0.52003 0.87427 0.0
C1255 C 0.41688 0.51529 0.91397 0.0
H1256 H 0.50282 0.46793 0.95195 0.0
H1257 H 0.50762 0.55547 0.97316 0.0
H1258 H 0.44893 0.46284 0.90384 0.0
H1259 H 0.48019 0.46189 0.88989 0.0
H1260 H 0.47283 0.44436 0.91858 0.0
H1261 H 0.48394 0.58379 0.94909 0.0
H1262 H 0.48904 0.57304 0.91434 0.0
H1263 H 0.45724 0.56794 0.92681 0.0
H1264 H 0.47741 0.51798 0.82882 0.0
H1265 H 0.40208 0.51594 0.86186 0.0
H1266 H 0.5119 0.5006 0.88078 0.0
H1267 H 0.51407 0.53714 0.88977 0.0
H1268 H 0.51574 0.52312 0.85518 0.0
H1269 H 0.41782 0.49516 0.92164 0.0
H1270 H 0.39636 0.51729 0.90841 0.0
H1271 H 0.42365 0.53163 0.93057 0.0
C1272 C 0.74009 0.79113 0.19196 0.0
C1273 C 0.71471 0.79822 0.19033 0.0
C1274 C 0.7506 0.77616 0.17008 0.0
C1275 C 0.73495 0.7672 0.14648 0.0
C1276 C 0.70964 0.77525 0.14446 0.0
C1277 C 0.70011 0.79123 0.16619 0.0
C1278 C 0.77805 0.76899 0.17266 0.0
C1279 C 0.69205 0.76564 0.11999 0.0
C1280 C 0.7638 0.73998 0.08129 0.0
C1281 C 0.76119 0.7115 0.08264 0.0
C1282 C 0.756 0.75844 0.10225 0.0
C1283 C 0.74434 0.74805 0.12455 0.0
C1284 C 0.74112 0.7192 0.12567 0.0
C1285 C 0.7501 0.7013 0.10493 0.0
C1286 C 0.76069 0.78906 0.10078 0.0
C1287 C 0.72798 0.70722 0.14866 0.0
H1288 H 0.75132 0.79624 0.21068 0.0
H1289 H 0.68064 0.79715 0.16488 0.0
H1290 H 0.77783 0.74671 0.1745 0.0
H1291 H 0.78871 0.77303 0.15452 0.0
H1292 H 0.78878 0.78091 0.19048 0.0
H1293 H 0.67317 0.77438 0.12131 0.0
H1294 H 0.70149 0.77147 0.10174 0.0
H1295 H 0.68828 0.7428 0.11754 0.0
H1296 H 0.77276 0.74789 0.0642 0.0
H1297 H 0.74808 0.67926 0.10593 0.0
H1298 H 0.77244 0.79932 0.11866 0.0
H1299 H 0.74201 0.79814 0.10087 0.0
H1300 H 0.7709 0.79382 0.08255 0.0
H1301 H 0.73932 0.71458 0.16763 0.0
H1302 H 0.72586 0.68431 0.14586 0.0
H1303 H 0.70847 0.71434 0.15085 0.0
C1304 C 0.98115 0.98235 0.08963 0.0
C1305 C 0.99897 0.00441 0.08499 0.0
C1306 C 0.96578 0.98434 0.11214 0.0
C1307 C 0.96852 0.00899 0.13024 0.0
C1308 C 0.98664 0.03131 0.12546 0.0
C1309 C 1.00166 0.0287 0.10283 0.0
C1310 C 0.9467 0.96015 0.11657 0.0
C1311 C 0.99022 0.05789 0.14429 0.0
C1312 C 0.91554 0.02743 0.17749 0.0
C1313 C 0.92562 0.02099 0.20182 0.0
C1314 C 0.92888 0.02277 0.15378 0.0
C1315 C 0.95286 0.01148 0.15449 0.0
C1316 C 0.96273 0.00418 0.17882 0.0
C1317 C 0.949 0.00905 0.20218 0.0
C1318 C 0.91772 0.03072 0.12816 0.0
C1319 C 0.98825 0.99214 0.1804 0.0
H1320 H 0.97927 0.96367 0.07555 0.0
H1321 H 0.01558 0.04561 0.09889 0.0
H1322 H 0.95136 0.95295 0.13601 0.0
H1323 H 0.92684 0.96654 0.11755 0.0
H1324 H 0.94675 0.9426 0.10045 0.0
H1325 H 0.005 0.0733 0.13754 0.0
H1326 H 0.97158 0.06701 0.14602 0.0
H1327 H 0.99625 0.05372 0.16459 0.0
H1328 H 0.89746 0.03661 0.17703 0.0
H1329 H 0.95705 0.00418 0.2209 0.0
H1330 H 0.91659 0.01306 0.11206 0.0
H1331 H 0.93065 0.04778 0.12147 0.0
H1332 H 0.89807 0.03749 0.13056 0.0
H1333 H 0.98832 0.97391 0.16511 0.0
H1334 H 0.99236 0.98586 0.20042 0.0
H1335 H 0.00423 0.00758 0.17607 0.0
C1336 C 0.28584 0.7915 0.22633 0.0
C1337 C 0.30939 0.78006 0.22645 0.0
C1338 C 0.27871 0.80595 0.20539 0.0
C1339 C 0.29605 0.80979 0.18462 0.0
C1340 C 0.32106 0.80083 0.18634 0.0
C1341 C 0.32728 0.78562 0.20707 0.0
C1342 C 0.25165 0.8145 0.20412 0.0
C1343 C 0.34046 0.80536 0.16517 0.0
C1344 C 0.26602 0.80614 0.11464 0.0
C1345 C 0.26582 0.83403 0.11144 0.0
C1346 C 0.27576 0.79813 0.13838 0.0
C1347 C 0.28642 0.81854 0.15918 0.0
C1348 C 0.28702 0.84681 0.15577 0.0
C1349 C 0.27625 0.85426 0.13205 0.0
C1350 C 0.27408 0.76777 0.1414 0.0
C1351 C 0.29904 0.86907 0.17711 0.0
H1352 H 0.27216 0.78707 0.2415 0.0
H1353 H 0.3455 0.77669 0.20732 0.0
H1354 H 0.25196 0.83579 0.19889 0.0
H1355 H 0.23989 0.80063 0.18821 0.0
H1356 H 0.2419 0.81335 0.22336 0.0
H1357 H 0.36036 0.80235 0.17211 0.0
H1358 H 0.33498 0.79048 0.14703 0.0
H1359 H 0.34061 0.82643 0.15933 0.0
H1360 H 0.25778 0.79045 0.0988 0.0
H1361 H 0.27627 0.87585 0.12949 0.0
H1362 H 0.26319 0.76361 0.15937 0.0
H1363 H 0.29379 0.76154 0.1443 0.0
H1364 H 0.26436 0.75461 0.12369 0.0
H1365 H 0.28797 0.86874 0.19558 0.0
H1366 H 0.29949 0.88995 0.17066 0.0
H1367 H 0.31913 0.8652 0.18234 0.0
C1368 C 0.01688 0.45692 0.11998 0.0
C1369 C 0.01615 0.47739 0.10298 0.0
C1370 C 0.03766 0.45769 0.1388 0.0
C1371 C 0.05784 0.47976 0.14095 0.0
C1372 C 0.05754 0.49987 0.12307 0.0
C1373 C 0.03691 0.49817 0.1041 0.0
C1374 C 0.03758 0.43541 0.15695 0.0
C1375 C 0.07845 0.52386 0.12465 0.0
C1376 C 0.09628 0.50184 0.20713 0.0
C1377 C 0.12028 0.4922 0.20151 0.0
C1378 C 0.07566 0.4975 0.18778 0.0
C1379 C 0.07886 0.4826 0.16238 0.0
C1380 C 0.10275 0.472 0.15695 0.0
C1381 C 0.12322 0.47721 0.17641 0.0
C1382 C 0.05068 0.5096 0.19423 0.0
C1383 C 0.10682 0.45548 0.13042 0.0
H1384 H 1.00076 0.44092 0.11919 0.0
H1385 H 0.03648 0.51372 0.09062 0.0
H1386 H 0.05658 0.42696 0.15693 0.0
H1387 H 0.03454 0.44427 0.1778 0.0
H1388 H 0.02208 0.41824 0.1509 0.0
H1389 H 0.07556 0.5375 0.10902 0.0
H1390 H 0.07871 0.53631 0.14458 0.0
H1391 H 0.09775 0.51626 0.12245 0.0
H1392 H 0.09383 0.51345 0.22642 0.0
H1393 H 0.14157 0.46934 0.172 0.0
H1394 H 0.03415 0.49317 0.19142 0.0
H1395 H 0.0471 0.52476 0.18027 0.0
H1396 H 0.05102 0.52008 0.21507 0.0
H1397 H 0.09102 0.43836 0.12584 0.0
H1398 H 0.1257 0.44671 0.13015 0.0
H1399 H 0.10615 0.46879 0.11418 0.0
C1400 C 0.3486 0.74664 0.3204 0.0
C1401 C 0.34494 0.72903 0.29627 0.0
C1402 C 0.36706 0.74256 0.34006 0.0
C1403 C 0.3819 0.71994 0.3357 0.0
C1404 C 0.37705 0.70105 0.31204 0.0
C1405 C 0.3587 0.70593 0.29251 0.0
C1406 C 0.37156 0.76327 0.36487 0.0
C1407 C 0.39207 0.6764 0.30678 0.0
C1408 C 0.44916 0.72945 0.36989 0.0
C1409 C 0.44507 0.71602 0.39273 0.0
C1410 C 0.42887 0.73049 0.35108 0.0
C1411 C 0.40383 0.71748 0.35487 0.0
C1412 C 0.39966 0.7033 0.3775 0.0
C1413 C 0.42025 0.70291 0.39625 0.0
C1414 C 0.43414 0.7461 0.3274 0.0
C1415 C 0.37337 0.68882 0.38207 0.0
H1416 H 0.33752 0.76417 0.32347 0.0
H1417 H 0.35587 0.69236 0.2738 0.0
H1418 H 0.37035 0.75265 0.38308 0.0
H1419 H 0.39135 0.7743 0.36506 0.0
H1420 H 0.35734 0.77874 0.36599 0.0
H1421 H 0.38387 0.66197 0.28917 0.0
H1422 H 0.4125 0.68344 0.30307 0.0
H1423 H 0.39223 0.66505 0.32453 0.0
H1424 H 0.46818 0.73971 0.36692 0.0
H1425 H 0.41688 0.69231 0.41369 0.0
H1426 H 0.42186 0.76332 0.32793 0.0
H1427 H 0.42898 0.73233 0.30847 0.0
H1428 H 0.45476 0.7547 0.32707 0.0
H1429 H 0.35912 0.70411 0.38518 0.0
H1430 H 0.37366 0.6773 0.39972 0.0
H1431 H 0.36643 0.6742 0.36415 0.0
C1432 C 0.9689 0.4089 0.06134 0.0
C1433 C 0.98812 0.43125 0.06229 0.0
C1434 C 0.97305 0.38263 0.04916 0.0
C1435 C 0.99754 0.37828 0.0388 0.0
C1436 C 0.01787 0.40023 0.04206 0.0
C1437 C 0.01278 0.42666 0.05341 0.0
C1438 C 0.95063 0.36012 0.04573 0.0
C1439 C 0.04458 0.39616 0.0324 0.0
C1440 C 0.00711 0.30266 0.02075 0.0
C1441 C 1.00253 0.29911 0.99291 0.0
C1442 C 0.00697 0.32866 0.0358 0.0
C1443 C 1.00099 0.35137 0.02284 0.0
C1444 C 0.99637 0.34783 0.99467 0.0
C1445 C 0.99774 0.32185 0.97998 0.0
C1446 C 0.01306 0.33179 0.06557 0.0
C1447 C 0.98912 0.37126 0.98015 0.0
H1448 H 0.95001 0.41248 0.06873 0.0
H1449 H 0.02765 0.44395 0.05416 0.0
H1450 H 0.94568 0.35409 0.02409 0.0
H1451 H 0.95605 0.34153 0.05403 0.0
H1452 H 0.93308 0.36669 0.05566 0.0
H1453 H 0.05914 0.41355 0.04061 0.0
H1454 H 0.05083 0.37668 0.03815 0.0
H1455 H 0.04425 0.39461 0.01024 0.0
H1456 H 0.01124 0.28512 0.03069 0.0
H1457 H 0.99421 0.31906 0.95845 0.0
H1458 H 0.99548 0.3362 0.07658 0.0
H1459 H 0.02805 0.34949 0.07138 0.0
H1460 H 0.02005 0.31294 0.0721 0.0
H1461 H 0.97111 0.37875 0.9882 0.0
H1462 H 0.98597 0.36508 0.95825 0.0
H1463 H 0.00458 0.38881 0.98353 0.0
C1464 C 0.66107 0.79867 0.28931 0.0
C1465 C 0.65477 0.80704 0.26463 0.0
C1466 C 0.64162 0.79017 0.30615 0.0
C1467 C 0.61527 0.79045 0.29811 0.0
C1468 C 0.60887 0.79974 0.27345 0.0
C1469 C 0.6288 0.8077 0.25682 0.0
C1470 C 0.64925 0.78001 0.33207 0.0
C1471 C 0.58105 0.80074 0.26444 0.0
C1472 C 0.56843 0.74005 0.32883 0.0
C1473 C 0.56058 0.75671 0.35108 0.0
C1474 C 0.58551 0.75102 0.31085 0.0
C1475 C 0.59459 0.77945 0.31494 0.0
C1476 C 0.58552 0.7967 0.33642 0.0
C1477 C 0.56877 0.78507 0.35441 0.0
C1478 C 0.59497 0.73187 0.28834 0.0
C1479 C 0.59435 0.82722 0.34105 0.0
H1480 H 0.68128 0.79801 0.29497 0.0
H1481 H 0.62422 0.81424 0.2376 0.0
H1482 H 0.64077 0.7919 0.34915 0.0
H1483 H 0.64145 0.75807 0.33176 0.0
H1484 H 0.67061 0.7818 0.33565 0.0
H1485 H 0.57947 0.81057 0.24581 0.0
H1486 H 0.57094 0.77953 0.26078 0.0
H1487 H 0.57076 0.81233 0.28037 0.0
H1488 H 0.5622 0.71812 0.32611 0.0
H1489 H 0.56258 0.7981 0.37144 0.0
H1490 H 0.61604 0.73071 0.29159 0.0
H1491 H 0.59224 0.73993 0.26894 0.0
H1492 H 0.58477 0.71069 0.28688 0.0
H1493 H 0.61517 0.83049 0.34748 0.0
H1494 H 0.58322 0.83826 0.35664 0.0
H1495 H 0.59229 0.83653 0.3222 0.0
C1496 C 0.05877 0.05377 0.01006 0.0
C1497 C 0.04005 0.03106 0.00444 0.0
C1498 C 0.05901 0.07618 0.99515 0.0
C1499 C 0.0399 0.07573 0.97435 0.0
C1500 C 0.02283 0.05144 0.96681 0.0
C1501 C 0.02325 0.02929 0.98192 0.0
C1502 C 0.07794 0.10141 0.00351 0.0
C1503 C 1.00224 0.04991 0.94475 0.0
C1504 C 0.01555 0.1451 0.96844 0.0
C1505 C 0.02835 0.15329 0.94614 0.0
C1506 C 0.01861 0.11955 0.97726 0.0
C1507 C 0.03514 0.10183 0.96365 0.0
C1508 C 0.04751 0.10959 0.94064 0.0
C1509 C 0.04386 0.13517 0.93208 0.0
C1510 C 0.00467 0.11185 1.00165 0.0
C1511 C 0.06533 0.09135 0.92567 0.0
H1512 H 0.07155 0.05513 0.02768 0.0
H1513 H 0.00877 0.01161 0.97777 0.0
H1514 H 0.0862 0.1098 0.98575 0.0
H1515 H 0.06765 0.11767 0.01455 0.0
H1516 H 0.09405 0.09688 0.01674 0.0
H1517 H 0.99381 0.02834 0.93821 0.0
H1518 H 0.98641 0.062 0.95209 0.0
H1519 H 0.01018 0.05898 0.92719 0.0
H1520 H 0.00353 0.1589 0.97942 0.0
H1521 H 0.05396 0.14138 0.91489 0.0
H1522 H 0.019 0.10987 0.01789 0.0
H1523 H 0.99294 0.09155 0.99684 0.0
H1524 H 0.99168 0.12735 0.00925 0.0
H1525 H 0.08275 0.0901 0.93857 0.0
H1526 H 0.07171 0.09921 0.90688 0.0
H1527 H 0.0556 0.07008 0.92068 0.0
C1528 C 0.34601 0.24637 0.2539 0.0
C1529 C 0.34693 0.26619 0.27637 0.0
C1530 C 0.36741 0.24437 0.23758 0.0
C1531 C 0.39037 0.26257 0.24409 0.0
C1532 C 0.39198 0.2812 0.26803 0.0
C1533 C 0.3701 0.28298 0.28373 0.0
C1534 C 0.36468 0.22431 0.21224 0.0
C1535 C 0.41614 0.30061 0.27607 0.0
C1536 C 0.44987 0.246 0.20511 0.0
C1537 C 0.44908 0.26309 0.18472 0.0
C1538 C 0.4315 0.24627 0.22511 0.0
C1539 C 0.41157 0.2638 0.2246 0.0
C1540 C 0.41113 0.28173 0.20456 0.0
C1541 C 0.42996 0.28129 0.18499 0.0
C1542 C 0.433 0.22723 0.24635 0.0
C1543 C 0.39016 0.30069 0.20318 0.0
H1544 H 0.32778 0.23399 0.24796 0.0
H1545 H 0.37046 0.29872 0.30081 0.0
H1546 H 0.36446 0.23589 0.19465 0.0
H1547 H 0.38146 0.21205 0.21059 0.0
H1548 H 0.34659 0.20994 0.21131 0.0
H1549 H 0.41571 0.31072 0.29698 0.0
H1550 H 0.43364 0.28947 0.27409 0.0
H1551 H 0.41799 0.31688 0.26256 0.0
H1552 H 0.46465 0.23197 0.20522 0.0
H1553 H 0.4291 0.2945 0.16932 0.0
H1554 H 0.41595 0.2114 0.24394 0.0
H1555 H 0.43245 0.23895 0.26655 0.0
H1556 H 0.45087 0.21659 0.24534 0.0
H1557 H 0.37096 0.28831 0.19974 0.0
H1558 H 0.39297 0.31396 0.18692 0.0
H1559 H 0.3897 0.31411 0.22248 0.0
C1560 C 0.55861 0.44391 0.01598 0.0
C1561 C 0.55876 0.47046 0.02962 0.0
C1562 C 0.55698 0.42069 0.02975 0.0
C1563 C 0.55618 0.42418 0.05806 0.0
C1564 C 0.55894 0.45122 0.07209 0.0
C1565 C 0.55977 0.47412 0.05762 0.0
C1566 C 0.55374 0.3924 0.01379 0.0
C1567 C 0.55922 0.45597 0.10223 0.0
C1568 C 0.51684 0.36403 0.08404 0.0
C1569 C 0.53597 0.34663 0.08793 0.0
C1570 C 0.52332 0.39016 0.0758 0.0
C1571 C 0.54966 0.39944 0.07221 0.0
C1572 C 0.5692 0.38295 0.07862 0.0
C1573 C 0.56209 0.35651 0.08585 0.0
C1574 C 0.50179 0.40678 0.06875 0.0
C1575 C 0.59752 0.39246 0.07621 0.0
H1576 H 0.55737 0.4413 0.99429 0.0
H1577 H 0.5595 0.4947 0.06806 0.0
H1578 H 0.56806 0.37943 0.02095 0.0
H1579 H 0.53414 0.38204 0.0166 0.0
H1580 H 0.55607 0.39327 0.99204 0.0
H1581 H 0.56715 0.4774 0.11006 0.0
H1582 H 0.53915 0.4524 0.109 0.0
H1583 H 0.57089 0.44138 0.11107 0.0
H1584 H 0.49663 0.35634 0.08535 0.0
H1585 H 0.57696 0.34314 0.08897 0.0
H1586 H 0.50116 0.40796 0.04687 0.0
H1587 H 0.50544 0.42819 0.07896 0.0
H1588 H 0.48254 0.39763 0.07432 0.0
H1589 H 0.6023 0.39041 0.05479 0.0
H1590 H 0.61022 0.38007 0.08684 0.0
H1591 H 0.60192 0.41452 0.08439 0.0
C1592 C 0.63046 0.19148 0.23911 0.0
C1593 C 0.65083 0.21144 0.24885 0.0
C1594 C 0.61256 0.19668 0.21939 0.0
C1595 C 0.61507 0.22256 0.20945 0.0
C1596 C 0.6355 0.24287 0.21952 0.0
C1597 C 0.65325 0.23696 0.23897 0.0
C1598 C 0.59118 0.17442 0.20898 0.0
C1599 C 0.63881 0.27073 0.20952 0.0
C1600 C 0.58694 0.22866 0.14036 0.0
C1601 C 0.56407 0.24066 0.14632 0.0
C1602 C 0.6034 0.2222 0.1607 0.0
C1603 C 0.59702 0.22808 0.18775 0.0
C1604 C 0.57388 0.23996 0.19397 0.0
C1605 C 0.55761 0.246 0.17317 0.0
C1606 C 0.62778 0.2093 0.15323 0.0
C1607 C 0.56656 0.2467 0.22261 0.0
H1608 H 0.62861 0.17185 0.247 0.0
H1609 H 0.66925 0.25219 0.24635 0.0
H1610 H 0.57203 0.18221 0.21182 0.0
H1611 H 0.5929 0.16864 0.18718 0.0
H1612 H 0.59167 0.15562 0.21914 0.0
H1613 H 0.655 0.28466 0.22031 0.0
H1614 H 0.64265 0.26818 0.18786 0.0
H1615 H 0.6207 0.28077 0.21188 0.0
H1616 H 0.59204 0.22423 0.11969 0.0
H1617 H 0.54 0.25525 0.178 0.0
H1618 H 0.62818 0.18965 0.16194 0.0
H1619 H 0.64505 0.22321 0.16165 0.0
H1620 H 0.62944 0.20507 0.13122 0.0
H1621 H 0.56563 0.22794 0.23293 0.0
H1622 H 0.54757 0.2552 0.22407 0.0
H1623 H 0.58162 0.26201 0.2335 0.0
C1624 C 0.47242 0.08387 0.97047 0.0
C1625 C 0.48357 0.06263 0.9811 0.0
C1626 C 0.47709 0.11121 0.98289 0.0
C1627 C 0.49354 0.11727 0.00629 0.0
C1628 C 0.50698 0.09622 0.01527 0.0
C1629 C 0.50151 0.06903 0.00276 0.0
C1630 C 0.46216 0.13286 0.97271 0.0
C1631 C 0.52508 0.10179 0.03976 0.0
C1632 C 0.50904 0.19217 0.03739 0.0
C1633 C 0.491 0.19401 0.0576 0.0
C1634 C 0.51043 0.16728 0.02068 0.0
C1635 C 0.49301 0.14388 0.02389 0.0
C1636 C 0.47469 0.14569 0.04416 0.0
C1637 C 0.47407 0.1706 0.06085 0.0
C1638 C 0.5305 0.166 0.99962 0.0
C1639 C 0.45545 0.12137 0.04805 0.0
H1640 H 0.4581 0.07861 0.95407 0.0
H1641 H 0.50964 0.05236 0.01119 0.0
H1642 H 0.44606 0.13693 0.98614 0.0
H1643 H 0.47471 0.15255 0.97277 0.0
H1644 H 0.45378 0.12616 0.95212 0.0
H1645 H 0.53758 0.08492 0.04103 0.0
H1646 H 0.53762 0.1215 0.03974 0.0
H1647 H 0.51356 0.10363 0.05797 0.0
H1648 H 0.52212 0.21011 0.0346 0.0
H1649 H 0.45993 0.17182 0.07624 0.0
H1650 H 0.52084 0.16089 0.97945 0.0
H1651 H 0.54283 0.14936 0.00248 0.0
H1652 H 0.54314 0.18576 1.0002 0.0
H1653 H 0.44334 0.11477 0.02942 0.0
H1654 H 0.44245 0.12619 0.06471 0.0
H1655 H 0.46581 0.10364 0.05232 0.0
C1656 C 0.25902 0.34996 0.75972 0.0
C1657 C 0.24096 0.34742 0.73816 0.0
C1658 C 0.2813 0.36887 0.76113 0.0
C1659 C 0.28581 0.38535 0.7402 0.0
C1660 C 0.26833 0.38167 0.71756 0.0
C1661 C 0.24597 0.36274 0.71687 0.0
C1662 C 0.29941 0.37205 0.78559 0.0
C1663 C 0.27269 0.39849 0.69463 0.0
C1664 C 0.32621 0.45446 0.75908 0.0
C1665 C 0.35084 0.44855 0.75093 0.0
C1666 C 0.30482 0.43417 0.75533 0.0
C1667 C 0.30804 0.40739 0.74285 0.0
C1668 C 0.33273 0.4014 0.73416 0.0
C1669 C 0.35384 0.42197 0.73845 0.0
C1670 C 0.27885 0.44128 0.76515 0.0
C1671 C 0.33687 0.37318 0.72053 0.0
H1672 H 0.25519 0.33765 0.7759 0.0
H1673 H 0.2319 0.36063 0.70024 0.0
H1674 H 0.31952 0.36972 0.77962 0.0
H1675 H 0.29945 0.39306 0.79655 0.0
H1676 H 0.29375 0.35674 0.79947 0.0
H1677 H 0.25874 0.39127 0.67746 0.0
H1678 H 0.27056 0.42042 0.7015 0.0
H1679 H 0.29268 0.39755 0.68765 0.0
H1680 H 0.32366 0.47488 0.76873 0.0
H1681 H 0.37272 0.41722 0.73181 0.0
H1682 H 0.27243 0.42798 0.78054 0.0
H1683 H 0.26406 0.43722 0.74841 0.0
H1684 H 0.27943 0.46319 0.77395 0.0
H1685 H 0.33291 0.35759 0.7345 0.0
H1686 H 0.35694 0.37226 0.71368 0.0
H1687 H 0.32312 0.3673 0.70301 0.0
C1688 C 0.25174 0.68678 0.80188 0.0
C1689 C 0.22633 0.67462 0.79585 0.0
C1690 C 0.2724 0.6705 0.80263 0.0
C1691 C 0.26749 0.64144 0.79669 0.0
C1692 C 0.24158 0.62906 0.79249 0.0
C1693 C 0.2213 0.64584 0.79237 0.0
C1694 C 0.29964 0.68456 0.80773 0.0
C1695 C 0.23539 0.59824 0.78589 0.0
C1696 C 0.31908 0.60615 0.75832 0.0
C1697 C 0.33091 0.59302 0.77789 0.0
C1698 C 0.29834 0.62164 0.76424 0.0
C1699 C 0.28936 0.62458 0.79059 0.0
C1700 C 0.30117 0.6114 0.81054 0.0
C1701 C 0.3217 0.59552 0.80389 0.0
C1702 C 0.28606 0.63491 0.74219 0.0
C1703 C 0.29236 0.61442 0.83892 0.0
H1704 H 0.25565 0.70905 0.80439 0.0
H1705 H 0.20153 0.63654 0.7881 0.0
H1706 H 0.31084 0.67361 0.82137 0.0
H1707 H 0.30968 0.68406 0.78856 0.0
H1708 H 0.29986 0.70643 0.81657 0.0
H1709 H 0.21434 0.59163 0.7868 0.0
H1710 H 0.2415 0.59178 0.76536 0.0
H1711 H 0.24621 0.58725 0.79979 0.0
H1712 H 0.32592 0.60415 0.73812 0.0
H1713 H 0.33086 0.58555 0.81914 0.0
H1714 H 0.28818 0.65764 0.7474 0.0
H1715 H 0.265 0.62792 0.73997 0.0
H1716 H 0.29486 0.62995 0.7226 0.0
H1717 H 0.29475 0.63651 0.84734 0.0
H1718 H 0.3034 0.60274 0.85206 0.0
H1719 H 0.27146 0.60707 0.83926 0.0
C1720 C 0.90063 0.46875 0.45812 0.0
C1721 C 0.91963 0.48241 0.47666 0.0
C1722 C 0.88088 0.45004 0.46602 0.0
C1723 C 0.88006 0.44529 0.4932 0.0
C1724 C 0.89925 0.45927 0.51201 0.0
C1725 C 0.91893 0.47756 0.50342 0.0
C1726 C 0.86095 0.43533 0.44533 0.0
C1727 C 0.89896 0.45495 0.54117 0.0
C1728 C 0.81638 0.41491 0.51856 0.0
C1729 C 0.82062 0.38719 0.51873 0.0
C1730 C 0.83559 0.4341 0.51039 0.0
C1731 C 0.85946 0.42529 0.50189 0.0
C1732 C 0.8638 0.39734 0.50186 0.0
C1733 C 0.84442 0.37869 0.51041 0.0
C1734 C 0.8304 0.46383 0.51099 0.0
C1735 C 0.8889 0.38708 0.49267 0.0
H1736 H 0.90129 0.47286 0.43748 0.0
H1737 H 0.93376 0.48834 0.5176 0.0
H1738 H 0.86119 0.41269 0.44455 0.0
H1739 H 0.84127 0.4401 0.45098 0.0
H1740 H 0.86443 0.44122 0.42503 0.0
H1741 H 0.91493 0.46793 0.5533 0.0
H1742 H 0.88022 0.45986 0.54953 0.0
H1743 H 0.90075 0.433 0.54323 0.0
H1744 H 0.79811 0.4217 0.52502 0.0
H1745 H 0.84785 0.35729 0.51026 0.0
H1746 H 0.83187 0.47016 0.49063 0.0
H1747 H 0.84525 0.47736 0.52413 0.0
H1748 H 0.81092 0.46742 0.51833 0.0
H1749 H 0.89216 0.39137 0.47183 0.0
H1750 H 0.88906 0.3646 0.49344 0.0
H1751 H 0.9054 0.39822 0.5054 0.0
C1752 C 0.73812 0.81055 0.78323 0.0
C1753 C 0.7642 0.81994 0.78976 0.0
C1754 C 0.71969 0.82928 0.78092 0.0
C1755 C 0.72775 0.85797 0.78479 0.0
C1756 C 0.75403 0.86743 0.79212 0.0
C1757 C 0.77186 0.84827 0.79464 0.0
C1758 C 0.69185 0.81837 0.77345 0.0
C1759 C 0.76357 0.89781 0.79626 0.0
C1760 C 0.69716 0.90972 0.74802 0.0
C1761 C 0.68635 0.92568 0.76895 0.0
C1762 C 0.7089 0.8862 0.75248 0.0
C1763 C 0.70974 0.87827 0.77855 0.0
C1764 C 0.69654 0.89262 0.79916 0.0
C1765 C 0.68495 0.91627 0.79412 0.0
C1766 C 0.72254 0.87146 0.72984 0.0
C1767 C 0.69651 0.88444 0.82706 0.0
H1768 H 0.73234 0.78855 0.77944 0.0
H1769 H 0.79202 0.85536 0.79998 0.0
H1770 H 0.67856 0.8296 0.7865 0.0
H1771 H 0.6872 0.82176 0.75255 0.0
H1772 H 0.68802 0.79596 0.77501 0.0
H1773 H 0.78428 0.90174 0.80319 0.0
H1774 H 0.76126 0.90668 0.7772 0.0
H1775 H 0.75185 0.9089 0.8112 0.0
H1776 H 0.69794 0.91666 0.72839 0.0
H1777 H 0.67659 0.92847 0.81038 0.0
H1778 H 0.71763 0.84883 0.72862 0.0
H1779 H 0.74383 0.87585 0.73362 0.0
H1780 H 0.71747 0.87807 0.7102 0.0
H1781 H 0.69317 0.86169 0.82645 0.0
H1782 H 0.68147 0.89393 0.83917 0.0
H1783 H 0.71572 0.89134 0.83727 0.0
C1784 C 0.60047 0.53845 0.03381 0.0
C1785 C 0.59344 0.51898 0.01152 0.0
C1786 C 0.62492 0.55407 0.03605 0.0
C1787 C 0.64256 0.55027 0.01528 0.0
C1788 C 0.6364 0.52861 0.99407 0.0
C1789 C 0.61191 0.51312 0.99254 0.0
C1790 C 0.63075 0.5765 0.0593 0.0
C1791 C 0.65444 0.52369 0.97148 0.0
C1792 C 0.68144 0.61621 1.00011 0.0
C1793 C 0.70602 0.61435 0.01168 0.0
C1794 C 0.661 0.59521 1.00066 0.0
C1795 C 0.66495 0.5717 0.0134 0.0
C1796 C 0.68984 0.56935 0.02467 0.0
C1797 C 0.71012 0.59062 0.02354 0.0
C1798 C 0.63496 0.59844 0.9879 0.0
C1799 C 0.69483 0.54478 0.03859 0.0
H1800 H 0.58601 0.54306 0.04829 0.0
H1801 H 0.6062 0.49823 0.97516 0.0
H1802 H 0.65098 0.57694 0.06722 0.0
H1803 H 0.62872 0.59681 0.05242 0.0
H1804 H 0.61736 0.57376 0.0758 0.0
H1805 H 0.64913 0.50334 0.95935 0.0
H1806 H 0.65346 0.53999 0.95815 0.0
H1807 H 0.67479 0.52479 0.97921 0.0
H1808 H 0.67806 0.6343 0.9907 0.0
H1809 H 0.72898 0.58902 0.03269 0.0
H1810 H 0.62007 0.59892 0.00326 0.0
H1811 H 0.62888 0.58053 0.97263 0.0
H1812 H 0.63524 0.61758 0.97817 0.0
H1813 H 0.68314 0.54452 0.05666 0.0
H1814 H 0.71558 0.54508 0.04476 0.0
H1815 H 0.68868 0.52536 0.0253 0.0
C1816 C 0.29701 0.67087 0.2439 0.0
C1817 C 0.30011 0.69211 0.2653 0.0
C1818 C 0.28064 0.64663 0.24546 0.0
C1819 C 0.26812 0.64299 0.26956 0.0
C1820 C 0.2735 0.66315 0.29221 0.0
C1821 C 0.28918 0.68775 0.28968 0.0
C1822 C 0.27515 0.62603 0.22065 0.0
C1823 C 0.26152 0.65949 0.31865 0.0
C1824 C 0.20269 0.59949 0.26618 0.0
C1825 C 0.20991 0.5739 0.27126 0.0
C1826 C 0.22153 0.62202 0.26507 0.0
C1827 C 0.24805 0.61914 0.27036 0.0
C1828 C 0.25533 0.59337 0.27585 0.0
C1829 C 0.23622 0.57093 0.27569 0.0
C1830 C 0.21307 0.6489 0.25821 0.0
C1831 C 0.28319 0.58971 0.28261 0.0
H1832 H 0.30596 0.67421 0.22524 0.0
H1833 H 0.29165 0.70422 0.30621 0.0
H1834 H 0.27803 0.60497 0.22506 0.0
H1835 H 0.25458 0.62563 0.2138 0.0
H1836 H 0.28766 0.63113 0.20403 0.0
H1837 H 0.27084 0.67467 0.33517 0.0
H1838 H 0.24061 0.66222 0.31718 0.0
H1839 H 0.2631 0.63837 0.32376 0.0
H1840 H 0.18235 0.60179 0.26287 0.0
H1841 H 0.24179 0.55126 0.28017 0.0
H1842 H 0.22382 0.65556 0.24097 0.0
H1843 H 0.2177 0.66524 0.27537 0.0
H1844 H 0.19196 0.64729 0.25313 0.0
H1845 H 0.29556 0.59432 0.2658 0.0
H1846 H 0.28555 0.56848 0.28702 0.0
H1847 H 0.29048 0.6045 0.30031 0.0
C1848 C 0.91411 0.50523 0.06503 0.0
C1849 C 0.9404 0.51346 0.06214 0.0
C1850 C 0.89513 0.5225 0.05987 0.0
C1851 C 0.9027 0.54853 0.05144 0.0
C1852 C 0.92928 0.55662 0.04793 0.0
C1853 C 0.94784 0.53899 0.05348 0.0
C1854 C 0.86709 0.51325 0.0642 0.0
C1855 C 0.93814 0.58409 0.03881 0.0
C1856 C 0.85168 0.58731 0.02078 0.0
C1857 C 0.84705 0.60661 0.0425 0.0
C1858 C 0.86971 0.56816 0.02333 0.0
C1859 C 0.88311 0.56815 0.04826 0.0
C1860 C 0.87805 0.58721 0.07034 0.0
C1861 C 0.86024 0.60625 0.06716 0.0
C1862 C 0.87477 0.54828 0.99928 0.0
C1863 C 0.89162 0.58766 0.09737 0.0
H1864 H 0.90855 0.48546 0.07187 0.0
H1865 H 0.96822 0.54506 0.05105 0.0
H1866 H 0.8599 0.52722 0.08065 0.0
H1867 H 0.855 0.51442 0.04594 0.0
H1868 H 0.86429 0.49182 0.06938 0.0
H1869 H 0.95924 0.58647 0.03534 0.0
H1870 H 0.92738 0.58649 0.02003 0.0
H1871 H 0.93387 0.60103 0.05413 0.0
H1872 H 0.84163 0.58754 1.00166 0.0
H1873 H 0.85666 0.62094 0.08413 0.0
H1874 H 0.87108 0.52675 0.00391 0.0
H1875 H 0.89543 0.55165 0.99425 0.0
H1876 H 0.86248 0.55061 0.98144 0.0
H1877 H 0.88821 0.5671 0.1044 0.0
H1878 H 0.88494 0.60327 0.11272 0.0
H1879 H 0.91285 0.59228 0.09573 0.0
C1880 C 0.07469 0.97161 0.00646 0.0
C1881 C 0.07373 0.99163 0.02851 0.0
C1882 C 0.09649 0.95698 0.00288 0.0
C1883 C 0.11761 0.96257 0.02195 0.0
C1884 C 0.11777 0.98502 0.04247 0.0
C1885 C 0.09577 0.99928 0.04548 0.0
C1886 C 0.09559 0.93355 0.98047 0.0
C1887 C 0.13982 0.99195 0.06318 0.0
C1888 C 0.14788 0.90106 0.04293 0.0
C1889 C 0.17206 0.90307 0.03116 0.0
C1890 C 0.13006 0.92005 0.03966 0.0
C1891 C 0.13634 0.94174 0.02404 0.0
C1892 C 0.16051 0.94371 0.01164 0.0
C1893 C 0.17817 0.92439 0.01542 0.0
C1894 C 0.10463 0.91716 0.05347 0.0
C1895 C 0.16784 0.96643 0.99474 0.0
H1896 H 0.05749 0.96571 0.99348 0.0
H1897 H 0.09485 0.01487 0.0625 0.0
H1898 H 0.11479 0.93265 0.97151 0.0
H1899 H 0.09046 0.91375 0.98857 0.0
H1900 H 0.0809 0.93546 0.96451 0.0
H1901 H 0.13932 0.01273 0.07451 0.0
H1902 H 0.13839 0.97653 0.0776 0.0
H1903 H 0.15879 0.99114 0.05373 0.0
H1904 H 0.14288 0.88472 0.05512 0.0
H1905 H 0.19678 0.92609 0.00621 0.0
H1906 H 0.08816 0.91583 0.03868 0.0
H1907 H 0.10333 0.93562 0.0682 0.0
H1908 H 0.10237 0.89861 0.06416 0.0
H1909 H 0.15237 0.96693 0.97919 0.0
H1910 H 0.18641 0.96392 0.98481 0.0
H1911 H 0.16974 0.98667 0.00745 0.0
loop_
_geom_bond_atom_site_label_1
_geom_bond_atom_site_label_2
_geom_bond_distance
_geom_bond_site_symmetry_2
_ccdc_geom_bond_type
C0 N1 1.317 . S
C0 N2 1.348 1_465 S
C0 C3 1.485 . S
N1 C0 1.317 . S
N1 N5 1.370 1_565 S
N2 C0 1.348 1_645 S
N2 C4 1.346 . S
C3 C0 1.485 . S
C3 H7 0.960 . S
C3 H8 0.961 . S
C3 H9 0.960 . S
C4 N2 1.346 . S
C4 N5 1.307 1_655 S
C4 C6 1.486 . S
N5 N1 1.370 1_545 S
N5 C4 1.307 1_455 S
C6 C4 1.486 . S
C6 H10 0.960 . S
C6 H11 0.960 . S
C6 H12 0.959 . S
H7 C3 0.960 . S
H8 C3 0.961 . S
H9 C3 0.960 . S
H10 C6 0.960 . S
H11 C6 0.960 . S
H12 C6 0.959 . S
C13 N14 1.317 . S
C13 N15 1.348 . S
C13 C16 1.485 . S
N14 C13 1.317 . S
N14 N18 1.370 . S
N15 C13 1.348 . S
N15 C17 1.346 . S
C16 C13 1.485 . S
C16 H20 0.960 . S
C16 H21 0.961 . S
C16 H22 0.960 . S
C17 N15 1.346 . S
C17 N18 1.307 . S
C17 C19 1.486 . S
N18 N14 1.370 . S
N18 C17 1.307 . S
C19 C17 1.486 . S
C19 H23 0.960 . S
C19 H24 0.960 . S
C19 H25 0.959 . S
H20 C16 0.960 . S
H21 C16 0.961 . S
H22 C16 0.960 . S
H23 C19 0.960 . S
H24 C19 0.960 . S
H25 C19 0.959 . S
C26 N27 1.317 . S
C26 N28 1.348 . S
C26 C29 1.485 . S
N27 C26 1.317 . S
N27 N31 1.370 . S
N28 C26 1.348 . S
N28 C30 1.346 . S
C29 C26 1.485 . S
C29 H33 0.960 . S
C29 H34 0.961 . S
C29 H35 0.960 . S
C30 N28 1.346 . S
C30 N31 1.307 . S
C30 C32 1.486 . S
N31 N27 1.370 . S
N31 C30 1.307 . S
C32 C30 1.486 . S
C32 H36 0.960 . S
C32 H37 0.960 . S
C32 H38 0.959 . S
H33 C29 0.960 . S
H34 C29 0.961 . S
H35 C29 0.960 . S
H36 C32 0.960 . S
H37 C32 0.960 . S
H38 C32 0.959 . S
C39 N40 1.317 . S
C39 N41 1.348 . S
C39 C42 1.485 . S
N40 C39 1.317 . S
N40 N44 1.370 . S
N41 C39 1.348 . S
N41 C43 1.346 . S
C42 C39 1.485 . S
C42 H46 0.960 . S
C42 H47 0.961 . S
C42 H48 0.960 . S
C43 N41 1.346 . S
C43 N44 1.307 . S
C43 C45 1.486 . S
N44 N40 1.370 . S
N44 C43 1.307 . S
C45 C43 1.486 . S
C45 H49 0.960 . S
C45 H50 0.960 . S
C45 H51 0.959 . S
H46 C42 0.960 . S
H47 C42 0.961 . S
H48 C42 0.960 . S
H49 C45 0.960 . S
H50 C45 0.960 . S
H51 C45 0.959 . S
C52 N53 1.317 . S
C52 N54 1.348 . S
C52 C55 1.485 . S
N53 C52 1.317 . S
N53 N57 1.370 . S
N54 C52 1.348 . S
N54 C56 1.358 . S
C55 C52 1.485 . S
C55 H59 0.960 . S
C55 H60 0.961 1_455 S
C55 H61 0.960 . S
C56 N54 1.358 . S
C56 N57 1.321 . S
C56 C58 1.463 1_565 S
N57 N53 1.370 . S
N57 C56 1.321 . S
C58 C56 1.463 1_545 S
C58 H62 0.960 . S
C58 H63 0.960 . S
C58 H64 0.959 . S
H59 C55 0.960 . S
H60 C55 0.961 1_655 S
H61 C55 0.960 . S
H62 C58 0.960 . S
H63 C58 0.960 . S
H64 C58 0.959 . S
C65 N66 1.317 . S
C65 N67 1.348 . S
C65 C68 1.485 . S
N66 C65 1.317 . S
N66 N70 1.370 . S
N67 C65 1.348 . S
N67 C69 1.346 . S
C68 C65 1.485 . S
C68 H72 0.960 . S
C68 H73 0.961 . S
C68 H74 0.960 . S
C69 N67 1.346 . S
C69 N70 1.307 . S
C69 C71 1.486 . S
N70 N66 1.370 . S
N70 C69 1.307 . S
C71 C69 1.486 . S
C71 H75 0.960 . S
C71 H76 0.960 . S
C71 H77 0.959 . S
H72 C68 0.960 . S
H73 C68 0.961 . S
H74 C68 0.960 . S
H75 C71 0.960 . S
H76 C71 0.960 . S
H77 C71 0.959 . S
C78 N79 1.317 . S
C78 N80 1.348 . S
C78 C81 1.485 . S
N79 C78 1.317 . S
N79 N83 1.370 . S
N80 C78 1.348 . S
N80 C82 1.346 . S
C81 C78 1.485 . S
C81 H85 0.960 . S
C81 H86 0.961 . S
C81 H87 0.960 . S
C82 N80 1.346 . S
C82 N83 1.307 . S
C82 C84 1.486 . S
N83 N79 1.370 . S
N83 C82 1.307 . S
C84 C82 1.486 . S
C84 H88 0.960 . S
C84 H89 0.960 . S
C84 H90 0.959 . S
H85 C81 0.960 . S
H86 C81 0.961 . S
H87 C81 0.960 . S
H88 C84 0.960 . S
H89 C84 0.960 . S
H90 C84 0.959 . S
C91 N92 1.317 . S
C91 N93 1.348 . S
C91 C94 1.485 . S
N92 C91 1.317 . S
N92 N96 1.370 . S
N93 C91 1.348 . S
N93 C95 1.346 . S
C94 C91 1.485 . S
C94 H98 0.960 . S
C94 H99 0.961 . S
C94 H100 0.960 . S
C95 N93 1.346 . S
C95 N96 1.307 . S
C95 C97 1.486 . S
N96 N92 1.370 . S
N96 C95 1.307 . S
C97 C95 1.486 . S
C97 H101 0.960 . S
C97 H102 0.960 . S
C97 H103 0.959 . S
H98 C94 0.960 . S
H99 C94 0.961 . S
H100 C94 0.960 . S
H101 C97 0.960 . S
H102 C97 0.960 . S
H103 C97 0.959 . S
C104 N105 1.317 . S
C104 N106 1.348 . S
C104 C107 1.485 . S
N105 C104 1.317 . S
N105 N109 1.370 . S
N106 C104 1.348 . S
N106 C108 1.346 . S
C107 C104 1.485 . S
C107 H111 0.960 . S
C107 H112 0.961 . S
C107 H113 0.960 . S
C108 N106 1.346 . S
C108 N109 1.307 . S
C108 C110 1.486 . S
N109 N105 1.370 . S
N109 C108 1.307 . S
C110 C108 1.486 . S
C110 H114 0.960 . S
C110 H115 0.960 . S
C110 H116 0.959 . S
H111 C107 0.960 . S
H112 C107 0.961 . S
H113 C107 0.960 . S
H114 C110 0.960 . S
H115 C110 0.960 . S
H116 C110 0.959 . S
C117 N118 1.317 . S
C117 N119 1.348 . S
C117 C120 1.485 1_565 S
N118 C117 1.317 . S
N118 N122 1.370 . S
N119 C117 1.348 . S
N119 C121 1.346 . S
C120 C117 1.485 1_545 S
C120 H124 0.960 . S
C120 H125 0.961 . S
C120 H126 0.960 . S
C121 N119 1.346 . S
C121 N122 1.307 . S
C121 C123 1.486 . S
N122 N118 1.370 . S
N122 C121 1.307 . S
C123 C121 1.486 . S
C123 H127 0.960 . S
C123 H128 0.960 . S
C123 H129 0.959 . S
H124 C120 0.960 . S
H125 C120 0.961 . S
H126 C120 0.960 . S
H127 C123 0.960 . S
H128 C123 0.960 . S
H129 C123 0.959 . S
C130 N131 1.317 . S
C130 N132 1.348 . S
C130 C133 1.485 . S
N131 C130 1.317 . S
N131 N135 1.370 . S
N132 C130 1.348 . S
N132 C134 1.346 . S
C133 C130 1.485 . S
C133 H137 0.960 . S
C133 H138 0.961 . S
C133 H139 0.960 . S
C134 N132 1.346 . S
C134 N135 1.307 . S
C134 C136 1.486 . S
N135 N131 1.370 . S
N135 C134 1.307 . S
C136 C134 1.486 . S
C136 H140 0.960 . S
C136 H141 0.960 . S
C136 H142 0.959 . S
H137 C133 0.960 . S
H138 C133 0.961 . S
H139 C133 0.960 . S
H140 C136 0.960 . S
H141 C136 0.960 . S
H142 C136 0.959 . S
C143 N144 1.317 . S
C143 N145 1.348 . S
C143 C146 1.485 . S
N144 C143 1.317 . S
N144 N148 1.370 . S
N145 C143 1.348 . S
N145 C147 1.346 . S
C146 C143 1.485 . S
C146 H150 0.960 . S
C146 H151 0.961 . S
C146 H152 0.960 . S
C147 N145 1.346 . S
C147 N148 1.307 . S
C147 C149 1.486 . S
N148 N144 1.370 . S
N148 C147 1.307 . S
C149 C147 1.486 . S
C149 H153 0.960 . S
C149 H154 0.960 . S
C149 H155 0.959 . S
H150 C146 0.960 . S
H151 C146 0.961 . S
H152 C146 0.960 . S
H153 C149 0.960 . S
H154 C149 0.960 . S
H155 C149 0.959 . S
C156 N157 1.317 . S
C156 N158 1.348 . S
C156 C159 1.485 . S
N157 C156 1.317 . S
N157 N161 1.370 . S
N158 C156 1.348 . S
N158 C160 1.346 . S
C159 C156 1.485 . S
C159 H163 0.960 . S
C159 H164 0.961 . S
C159 H165 0.960 . S
C160 N158 1.346 . S
C160 N161 1.307 . S
C160 C162 1.486 . S
N161 N157 1.370 . S
N161 C160 1.307 . S
C162 C160 1.486 . S
C162 H166 0.960 . S
C162 H167 0.960 . S
C162 H168 0.959 . S
H163 C159 0.960 . S
H164 C159 0.961 . S
H165 C159 0.960 . S
H166 C162 0.960 . S
H167 C162 0.960 . S
H168 C162 0.959 . S
C169 N170 1.317 . S
C169 N171 1.348 . S
C169 C172 1.485 . S
N170 C169 1.317 . S
N170 N174 1.370 . S
N171 C169 1.348 . S
N171 C173 1.346 . S
C172 C169 1.485 . S
C172 H176 0.960 . S
C172 H177 0.961 . S
C172 H178 0.960 . S
C173 N171 1.346 . S
C173 N174 1.307 . S
C173 C175 1.486 . S
N174 N170 1.370 . S
N174 C173 1.307 . S
C175 C173 1.486 . S
C175 H179 0.960 . S
C175 H180 0.960 . S
C175 H181 0.959 . S
H176 C172 0.960 . S
H177 C172 0.961 . S
H178 C172 0.960 . S
H179 C175 0.960 . S
H180 C175 0.960 . S
H181 C175 0.959 . S
C182 N183 1.317 . S
C182 N184 1.348 . S
C182 C185 1.485 . S
N183 C182 1.317 . S
N183 N187 1.370 . S
N184 C182 1.348 . S
N184 C186 1.346 . S
C185 C182 1.485 . S
C185 H189 0.960 . S
C185 H190 0.961 . S
C185 H191 0.960 . S
C186 N184 1.346 . S
C186 N187 1.307 . S
C186 C188 1.486 . S
N187 N183 1.370 . S
N187 C186 1.307 . S
C188 C186 1.486 . S
C188 H192 0.960 . S
C188 H193 0.960 . S
C188 H194 0.959 . S
H189 C185 0.960 . S
H190 C185 0.961 . S
H191 C185 0.960 . S
H192 C188 0.960 . S
H193 C188 0.960 . S
H194 C188 0.959 . S
C195 N196 1.317 . S
C195 N197 1.348 . S
C195 C198 1.485 1_545 S
N196 C195 1.317 . S
N196 N200 1.370 . S
N197 C195 1.348 . S
N197 C199 1.346 . S
C198 C195 1.485 1_565 S
C198 H202 0.960 . S
C198 H203 0.961 . S
C198 H204 0.960 . S
C199 N197 1.346 . S
C199 N200 1.307 . S
C199 C201 1.486 1_556 S
N200 N196 1.370 . S
N200 C199 1.307 . S
C201 C199 1.486 1_554 S
C201 H205 0.960 . S
C201 H206 0.960 . S
C201 H207 0.959 . S
H202 C198 0.960 . S
H203 C198 0.961 . S
H204 C198 0.960 . S
H205 C201 0.960 . S
H206 C201 0.960 . S
H207 C201 0.959 . S
Mg208 O209 2.028 . S
Mg208 O215 1.986 1_554 S
Mg208 O217 2.114 . S
Mg208 O218 2.251 . S
Mg208 O221 2.010 . S
O209 Mg208 2.028 . S
O209 C212 1.250 . S
O210 Mg211 2.028 1_554 S
O210 C212 1.248 . S
Mg211 O210 2.028 1_556 S
Mg211 O216 2.031 . S
Mg211 O218 2.080 1_556 S
C212 O209 1.250 . S
C212 O210 1.248 . S
C213 O214 1.264 . S
C213 O221 1.249 . S
O214 C213 1.264 . S
O215 Mg208 1.986 1_556 S
O215 C219 1.246 . S
O216 Mg211 2.031 . S
O216 C219 1.259 . S
O217 Mg208 2.114 . S
O217 C220 1.252 . S
O218 Mg208 2.251 . S
O218 Mg211 2.080 1_554 S
O218 C220 1.273 . S
C219 O215 1.246 . S
C219 O216 1.259 . S
C220 O217 1.252 . S
C220 O218 1.273 . S
O221 Mg208 2.010 . S
O221 C213 1.249 . S
Mg222 O223 2.028 . S
Mg222 O229 1.986 . S
Mg222 O231 2.114 . S
Mg222 O232 2.251 . S
Mg222 O235 2.010 . S
O223 Mg222 2.028 . S
O223 C226 1.250 . S
O224 Mg225 2.028 . S
O224 C226 1.248 . S
Mg225 O224 2.028 . S
Mg225 O230 2.032 . S
Mg225 O232 2.079 . S
C226 O223 1.250 . S
C226 O224 1.248 . S
C227 O228 1.264 . S
C227 O235 1.249 . S
O228 C227 1.264 . S
O229 Mg222 1.986 . S
O229 C233 1.246 . S
O230 Mg225 2.032 . S
O230 C233 1.259 . S
O231 Mg222 2.114 . S
O231 C234 1.252 . S
O232 Mg222 2.251 . S
O232 Mg225 2.079 . S
O232 C234 1.273 . S
C233 O229 1.246 . S
C233 O230 1.259 . S
C234 O231 1.252 . S
C234 O232 1.273 . S
O235 Mg222 2.010 . S
O235 C227 1.249 . S
Mg236 O237 2.028 . S
Mg236 O243 1.986 1_554 S
Mg236 O245 2.114 . S
Mg236 O246 2.251 . S
Mg236 O249 2.010 . S
O237 Mg236 2.028 . S
O237 C240 1.250 . S
O238 Mg239 2.028 . S
O238 C240 1.248 . S
Mg239 O238 2.028 . S
Mg239 O244 2.032 1_554 S
Mg239 O246 2.079 . S
C240 O237 1.250 . S
C240 O238 1.248 . S
C241 O242 1.264 . S
C241 O249 1.249 . S
O242 C241 1.264 . S
O243 Mg236 1.986 1_556 S
O243 C247 1.246 . S
O244 Mg239 2.032 1_556 S
O244 C247 1.259 . S
O245 Mg236 2.114 . S
O245 C248 1.252 . S
O246 Mg236 2.251 . S
O246 Mg239 2.079 . S
O246 C248 1.273 . S
C247 O243 1.246 . S
C247 O244 1.259 . S
C248 O245 1.252 . S
C248 O246 1.273 . S
O249 Mg236 2.010 . S
O249 C241 1.249 . S
Mg250 O251 2.028 1_545 S
Mg250 O257 1.986 . S
Mg250 O259 2.114 . S
Mg250 O260 2.251 1_545 S
Mg250 O263 2.010 . S
O251 Mg250 2.028 1_565 S
O251 C254 1.250 . S
O252 Mg253 2.028 . S
O252 C254 1.248 . S
Mg253 O252 2.028 . S
Mg253 O258 2.032 . S
Mg253 O260 2.079 . S
C254 O251 1.250 . S
C254 O252 1.248 . S
C255 O256 1.264 . S
C255 O263 1.249 . S
O256 C255 1.264 . S
O257 Mg250 1.986 . S
O257 C261 1.246 . S
O258 Mg253 2.032 . S
O258 C261 1.259 1_565 S
O259 Mg250 2.114 . S
O259 C262 1.252 . S
O260 Mg250 2.251 1_565 S
O260 Mg253 2.079 . S
O260 C262 1.273 1_565 S
C261 O257 1.246 . S
C261 O258 1.259 1_545 S
C262 O259 1.252 . S
C262 O260 1.273 1_545 S
O263 Mg250 2.010 . S
O263 C255 1.249 . S
Mg264 O265 2.028 . S
Mg264 O271 1.986 . S
Mg264 O273 2.114 . S
Mg264 O274 2.251 . S
Mg264 O277 2.010 . S
O265 Mg264 2.028 . S
O265 C268 1.250 . S
O266 Mg267 2.028 . S
O266 C268 1.248 . S
Mg267 O266 2.028 . S
Mg267 O272 2.032 . S
Mg267 O274 2.079 . S
C268 O265 1.250 . S
C268 O266 1.248 . S
C269 O270 1.264 . S
C269 O277 1.249 . S
O270 C269 1.264 . S
O271 Mg264 1.986 . S
O271 C275 1.246 . S
O272 Mg267 2.032 . S
O272 C275 1.259 . S
O273 Mg264 2.114 . S
O273 C276 1.252 . S
O274 Mg264 2.251 . S
O274 Mg267 2.079 . S
O274 C276 1.273 . S
C275 O271 1.246 . S
C275 O272 1.259 . S
C276 O273 1.252 . S
C276 O274 1.273 . S
O277 Mg264 2.010 . S
O277 C269 1.249 . S
Mg278 O279 2.028 . S
Mg278 O285 1.986 . S
Mg278 O287 2.114 . S
Mg278 O288 2.251 . S
Mg278 O291 2.010 . S
O279 Mg278 2.028 . S
O279 C282 1.250 . S
O280 Mg281 2.028 . S
O280 C282 1.248 . S
Mg281 O280 2.028 . S
Mg281 O286 2.032 . S
Mg281 O288 2.079 . S
C282 O279 1.250 . S
C282 O280 1.248 . S
C283 O284 1.264 . S
C283 O291 1.249 . S
O284 C283 1.264 . S
O285 Mg278 1.986 . S
O285 C289 1.246 . S
O286 Mg281 2.032 . S
O286 C289 1.259 . S
O287 Mg278 2.114 . S
O287 C290 1.252 . S
O288 Mg278 2.251 . S
O288 Mg281 2.079 . S
O288 C290 1.273 . S
C289 O285 1.246 . S
C289 O286 1.259 . S
C290 O287 1.252 . S
C290 O288 1.273 . S
O291 Mg278 2.010 . S
O291 C283 1.249 . S
Mg292 O293 2.028 . S
Mg292 O299 1.986 . S
Mg292 O301 2.114 . S
Mg292 O302 2.251 . S
Mg292 O305 2.010 . S
O293 Mg292 2.028 . S
O293 C296 1.250 . S
O294 Mg295 2.028 . S
O294 C296 1.248 . S
Mg295 O294 2.028 . S
Mg295 O300 2.032 . S
Mg295 O302 2.079 . S
C296 O293 1.250 . S
C296 O294 1.248 . S
C297 O298 1.264 . S
C297 O305 1.249 . S
O298 C297 1.264 . S
O299 Mg292 1.986 . S
O299 C303 1.246 . S
O300 Mg295 2.032 . S
O300 C303 1.259 . S
O301 Mg292 2.114 . S
O301 C304 1.252 . S
O302 Mg292 2.251 . S
O302 Mg295 2.079 . S
O302 C304 1.273 . S
C303 O299 1.246 . S
C303 O300 1.259 . S
C304 O301 1.252 . S
C304 O302 1.273 . S
O305 Mg292 2.010 . S
O305 C297 1.249 . S
Mg306 O307 2.028 . S
Mg306 O313 1.986 1_545 S
Mg306 O315 2.114 . S
Mg306 O316 2.251 . S
Mg306 O319 2.010 . S
O307 Mg306 2.028 . S
O307 C310 1.246 1_545 S
O308 Mg309 2.030 1_565 S
O308 C310 1.251 . S
Mg309 O308 2.030 1_545 S
Mg309 O314 2.004 1_545 S
Mg309 O316 2.102 . S
C310 O307 1.246 1_565 S
C310 O308 1.251 . S
C311 O312 1.264 . S
C311 O319 1.249 . S
O312 C311 1.264 . S
O313 Mg306 1.986 1_565 S
O313 C317 1.246 . S
O314 Mg309 2.004 1_565 S
O314 C317 1.259 . S
O315 Mg306 2.114 . S
O315 C318 1.252 . S
O316 Mg306 2.251 . S
O316 Mg309 2.102 . S
O316 C318 1.273 . S
C317 O313 1.246 . S
C317 O314 1.259 . S
C318 O315 1.252 . S
C318 O316 1.273 . S
O319 Mg306 2.010 . S
O319 C311 1.249 . S
Mg320 O321 2.028 1_455 S
Mg320 O327 1.986 . S
Mg320 O329 2.114 . S
Mg320 O330 2.251 1_455 S
Mg320 O333 2.010 . S
O321 Mg320 2.028 1_655 S
O321 C324 1.250 . S
O322 Mg323 2.028 . S
O322 C324 1.248 . S
Mg323 O322 2.028 . S
Mg323 O328 2.032 . S
Mg323 O330 2.079 . S
C324 O321 1.250 . S
C324 O322 1.248 . S
C325 O326 1.264 . S
C325 O333 1.249 . S
O326 C325 1.264 . S
O327 Mg320 1.986 . S
O327 C331 1.246 . S
O328 Mg323 2.032 . S
O328 C331 1.259 1_655 S
O329 Mg320 2.114 . S
O329 C332 1.252 . S
O330 Mg320 2.251 1_655 S
O330 Mg323 2.079 . S
O330 C332 1.273 1_655 S
C331 O327 1.246 . S
C331 O328 1.259 1_455 S
C332 O329 1.252 . S
C332 O330 1.273 1_455 S
O333 Mg320 2.010 . S
O333 C325 1.249 . S
Mg334 O335 2.028 . S
Mg334 O341 1.986 . S
Mg334 O343 2.114 . S
Mg334 O344 2.251 . S
Mg334 O347 2.010 . S
O335 Mg334 2.028 . S
O335 C338 1.250 . S
O336 Mg337 2.028 . S
O336 C338 1.248 . S
Mg337 O336 2.028 . S
Mg337 O342 2.032 . S
Mg337 O344 2.079 . S
C338 O335 1.250 . S
C338 O336 1.248 . S
C339 O340 1.264 . S
C339 O347 1.249 . S
O340 C339 1.264 . S
O341 Mg334 1.986 . S
O341 C345 1.246 . S
O342 Mg337 2.032 . S
O342 C345 1.259 . S
O343 Mg334 2.114 . S
O343 C346 1.252 . S
O344 Mg334 2.251 . S
O344 Mg337 2.079 . S
O344 C346 1.273 . S
C345 O341 1.246 . S
C345 O342 1.259 . S
C346 O343 1.252 . S
C346 O344 1.273 . S
O347 Mg334 2.010 . S
O347 C339 1.249 . S
Mg348 O349 2.028 . S
Mg348 O355 1.986 . S
Mg348 O357 2.114 1_455 S
Mg348 O358 2.251 . S
Mg348 O361 2.010 1_455 S
O349 Mg348 2.028 . S
O349 C352 1.250 . S
O350 Mg351 2.028 . S
O350 C352 1.248 . S
Mg351 O350 2.028 . S
Mg351 O356 2.032 . S
Mg351 O358 2.079 . S
C352 O349 1.250 . S
C352 O350 1.248 . S
C353 O354 1.264 . S
C353 O361 1.249 . S
O354 C353 1.264 . S
O355 Mg348 1.986 . S
O355 C359 1.246 . S
O356 Mg351 2.032 . S
O356 C359 1.259 . S
O357 Mg348 2.114 1_655 S
O357 C360 1.252 1_655 S
O358 Mg348 2.251 . S
O358 Mg351 2.079 . S
O358 C360 1.273 . S
C359 O355 1.246 . S
C359 O356 1.259 . S
C360 O357 1.252 1_455 S
C360 O358 1.273 . S
O361 Mg348 2.010 1_655 S
O361 C353 1.249 . S
Mg362 O363 2.028 . S
Mg362 O369 1.986 . S
Mg362 O371 2.114 . S
Mg362 O372 2.251 . S
Mg362 O375 2.010 . S
O363 Mg362 2.028 . S
O363 C366 1.250 . S
O364 Mg365 2.028 . S
O364 C366 1.248 . S
Mg365 O364 2.028 . S
Mg365 O370 2.032 . S
Mg365 O372 2.079 . S
C366 O363 1.250 . S
C366 O364 1.248 . S
C367 O368 1.264 . S
C367 O375 1.249 . S
O368 C367 1.264 . S
O369 Mg362 1.986 . S
O369 C373 1.246 . S
O370 Mg365 2.032 . S
O370 C373 1.259 . S
O371 Mg362 2.114 . S
O371 C374 1.252 . S
O372 Mg362 2.251 . S
O372 Mg365 2.079 . S
O372 C374 1.273 . S
C373 O369 1.246 . S
C373 O370 1.259 . S
C374 O371 1.252 . S
C374 O372 1.273 . S
O375 Mg362 2.010 . S
O375 C367 1.249 . S
C376 C377 1.391 . S
C376 C378 1.394 . S
C376 H392 0.931 . S
C377 C376 1.391 . S
C377 C381 1.376 . S
C378 C376 1.394 . S
C378 C379 1.369 . S
C378 C382 1.531 . S
C379 C378 1.369 . S
C379 C380 1.410 . S
C379 C387 1.503 . S
C380 C379 1.410 . S
C380 C381 1.392 . S
C380 C383 1.511 . S
C381 C377 1.376 . S
C381 C380 1.392 . S
C381 H393 0.929 . S
C382 C378 1.531 . S
C382 H394 0.960 . S
C382 H395 0.962 . S
C382 H396 0.960 . S
C383 C380 1.511 . S
C383 H397 0.961 . S
C383 H398 0.961 . S
C383 H399 0.961 . S
C384 C385 1.370 . S
C384 C386 1.363 . S
C384 H400 0.931 . S
C385 C384 1.370 . S
C385 C389 1.408 . S
C386 C384 1.363 . S
C386 C387 1.370 . S
C386 C390 1.524 . S
C387 C379 1.503 . S
C387 C386 1.370 . S
C387 C388 1.403 . S
C388 C387 1.403 . S
C388 C389 1.404 . S
C388 C391 1.539 . S
C389 C385 1.408 . S
C389 C388 1.404 . S
C389 H401 0.930 . S
C390 C386 1.524 . S
C390 H402 0.956 . S
C390 H403 0.961 . S
C390 H404 0.961 . S
C391 C388 1.539 . S
C391 H405 0.958 . S
C391 H406 0.961 . S
C391 H407 0.960 . S
H392 C376 0.931 . S
H393 C381 0.929 . S
H394 C382 0.960 . S
H395 C382 0.962 . S
H396 C382 0.960 . S
H397 C383 0.961 . S
H398 C383 0.961 . S
H399 C383 0.961 . S
H400 C384 0.931 . S
H401 C389 0.930 . S
H402 C390 0.956 . S
H403 C390 0.961 . S
H404 C390 0.961 . S
H405 C391 0.958 . S
H406 C391 0.961 . S
H407 C391 0.960 . S
C408 C409 1.391 1_455 S
C408 C410 1.394 . S
C408 H424 0.931 . S
C409 C408 1.391 1_655 S
C409 C413 1.376 . S
C410 C408 1.394 . S
C410 C411 1.369 . S
C410 C414 1.531 . S
C411 C410 1.369 . S
C411 C412 1.410 . S
C411 C419 1.503 . S
C412 C411 1.410 . S
C412 C413 1.392 1_455 S
C412 C415 1.511 1_455 S
C413 C409 1.376 . S
C413 C412 1.392 1_655 S
C413 H425 0.929 . S
C414 C410 1.531 . S
C414 H426 0.960 . S
C414 H427 0.962 . S
C414 H428 0.960 . S
C415 C412 1.511 1_655 S
C415 H429 0.961 . S
C415 H430 0.961 1_655 S
C415 H431 0.961 . S
C416 C417 1.370 . S
C416 C418 1.363 . S
C416 H432 0.931 . S
C417 C416 1.370 . S
C417 C421 1.408 . S
C418 C416 1.363 . S
C418 C419 1.370 . S
C418 C422 1.524 . S
C419 C411 1.503 . S
C419 C418 1.370 . S
C419 C420 1.403 . S
C420 C419 1.403 . S
C420 C421 1.404 . S
C420 C423 1.539 . S
C421 C417 1.408 . S
C421 C420 1.404 . S
C421 H433 0.930 . S
C422 C418 1.524 . S
C422 H434 0.956 . S
C422 H435 0.961 . S
C422 H436 0.961 . S
C423 C420 1.539 . S
C423 H437 0.958 . S
C423 H438 0.961 . S
C423 H439 0.960 . S
H424 C408 0.931 . S
H425 C413 0.929 . S
H426 C414 0.960 . S
H427 C414 0.962 . S
H428 C414 0.960 . S
H429 C415 0.961 . S
H430 C415 0.961 1_455 S
H431 C415 0.961 . S
H432 C416 0.931 . S
H433 C421 0.930 . S
H434 C422 0.956 . S
H435 C422 0.961 . S
H436 C422 0.961 . S
H437 C423 0.958 . S
H438 C423 0.961 . S
H439 C423 0.960 . S
C440 C441 1.391 . S
C440 C442 1.394 . S
C440 H456 0.931 . S
C441 C440 1.391 . S
C441 C445 1.376 . S
C442 C440 1.394 . S
C442 C443 1.369 . S
C442 C446 1.531 . S
C443 C442 1.369 . S
C443 C444 1.410 . S
C443 C451 1.503 . S
C444 C443 1.410 . S
C444 C445 1.392 . S
C444 C447 1.511 . S
C445 C441 1.376 . S
C445 C444 1.392 . S
C445 H457 0.929 . S
C446 C442 1.531 . S
C446 H458 0.960 . S
C446 H459 0.962 . S
C446 H460 0.960 . S
C447 C444 1.511 . S
C447 H461 0.961 . S
C447 H462 0.961 . S
C447 H463 0.961 . S
C448 C449 1.370 . S
C448 C450 1.363 . S
C448 H464 0.931 . S
C449 C448 1.370 . S
C449 C453 1.408 . S
C450 C448 1.363 . S
C450 C451 1.370 . S
C450 C454 1.524 . S
C451 C443 1.503 . S
C451 C450 1.370 . S
C451 C452 1.403 . S
C452 C451 1.403 . S
C452 C453 1.404 . S
C452 C455 1.539 . S
C453 C449 1.408 . S
C453 C452 1.404 . S
C453 H465 0.930 . S
C454 C450 1.524 . S
C454 H466 0.956 . S
C454 H467 0.961 . S
C454 H468 0.961 . S
C455 C452 1.539 . S
C455 H469 0.958 . S
C455 H470 0.961 . S
C455 H471 0.960 . S
H456 C440 0.931 . S
H457 C445 0.929 . S
H458 C446 0.960 . S
H459 C446 0.962 . S
H460 C446 0.960 . S
H461 C447 0.961 . S
H462 C447 0.961 . S
H463 C447 0.961 . S
H464 C448 0.931 . S
H465 C453 0.930 . S
H466 C454 0.956 . S
H467 C454 0.961 . S
H468 C454 0.961 . S
H469 C455 0.958 . S
H470 C455 0.961 . S
H471 C455 0.960 . S
C472 C473 1.391 1_655 S
C472 C474 1.381 1_565 S
C472 H488 0.931 . S
C473 C472 1.391 1_455 S
C473 C477 1.376 . S
C474 C472 1.381 1_545 S
C474 C475 1.374 . S
C474 C478 1.540 . S
C475 C474 1.374 . S
C475 C476 1.410 1_645 S
C475 C483 1.503 . S
C476 C475 1.410 1_465 S
C476 C477 1.392 . S
C476 C479 1.514 . S
C477 C473 1.376 . S
C477 C476 1.392 . S
C477 H489 0.929 . S
C478 C474 1.540 . S
C478 H490 0.960 . S
C478 H491 0.962 1_545 S
C478 H492 0.960 . S
C479 C476 1.514 . S
C479 H493 0.973 . S
C479 H494 0.965 1_455 S
C479 H495 0.943 1_565 S
C480 C481 1.370 1_565 S
C480 C482 1.363 . S
C480 H496 0.931 . S
C481 C480 1.370 1_545 S
C481 C485 1.408 . S
C482 C480 1.363 . S
C482 C483 1.370 1_565 S
C482 C486 1.524 . S
C483 C475 1.503 . S
C483 C482 1.370 1_545 S
C483 C484 1.403 . S
C484 C483 1.403 . S
C484 C485 1.404 . S
C484 C487 1.539 . S
C485 C481 1.408 . S
C485 C484 1.404 . S
C485 H497 0.930 . S
C486 C482 1.524 . S
C486 H498 0.956 . S
C486 H499 0.961 . S
C486 H500 0.961 . S
C487 C484 1.539 . S
C487 H501 0.958 . S
C487 H502 0.961 . S
C487 H503 0.960 . S
H488 C472 0.931 . S
H489 C477 0.929 . S
H490 C478 0.960 . S
H491 C478 0.962 1_565 S
H492 C478 0.960 . S
H493 C479 0.973 . S
H494 C479 0.965 1_655 S
H495 C479 0.943 1_545 S
H496 C480 0.931 . S
H497 C485 0.930 . S
H498 C486 0.956 . S
H499 C486 0.961 . S
H500 C486 0.961 . S
H501 C487 0.958 . S
H502 C487 0.961 . S
H503 C487 0.960 . S
C504 C505 1.391 . S
C504 C506 1.394 . S
C504 H520 0.931 . S
C505 C504 1.391 . S
C505 C509 1.376 . S
C506 C504 1.394 . S
C506 C507 1.369 . S
C506 C510 1.531 . S
C507 C506 1.369 . S
C507 C508 1.410 . S
C507 C515 1.503 . S
C508 C507 1.410 . S
C508 C509 1.392 . S
C508 C511 1.511 . S
C509 C505 1.376 . S
C509 C508 1.392 . S
C509 H521 0.929 . S
C510 C506 1.531 . S
C510 H522 0.960 . S
C510 H523 0.962 . S
C510 H524 0.960 . S
C511 C508 1.511 . S
C511 H525 0.961 . S
C511 H526 0.961 . S
C511 H527 0.961 . S
C512 C513 1.370 . S
C512 C514 1.363 . S
C512 H528 0.931 . S
C513 C512 1.370 . S
C513 C517 1.408 . S
C514 C512 1.363 . S
C514 C515 1.370 . S
C514 C518 1.524 . S
C515 C507 1.503 . S
C515 C514 1.370 . S
C515 C516 1.403 . S
C516 C515 1.403 . S
C516 C517 1.404 . S
C516 C519 1.539 . S
C517 C513 1.408 . S
C517 C516 1.404 . S
C517 H529 0.930 . S
C518 C514 1.524 . S
C518 H530 0.956 . S
C518 H531 0.961 . S
C518 H532 0.961 . S
C519 C516 1.539 . S
C519 H533 0.958 . S
C519 H534 0.961 . S
C519 H535 0.960 . S
H520 C504 0.931 . S
H521 C509 0.929 . S
H522 C510 0.960 . S
H523 C510 0.962 . S
H524 C510 0.960 . S
H525 C511 0.961 . S
H526 C511 0.961 . S
H527 C511 0.961 . S
H528 C512 0.931 . S
H529 C517 0.930 . S
H530 C518 0.956 . S
H531 C518 0.961 . S
H532 C518 0.961 . S
H533 C519 0.958 . S
H534 C519 0.961 . S
H535 C519 0.960 . S
C536 C537 1.391 . S
C536 C538 1.394 . S
C536 H552 0.931 . S
C537 C536 1.391 . S
C537 C541 1.376 . S
C538 C536 1.394 . S
C538 C539 1.369 . S
C538 C542 1.531 . S
C539 C538 1.369 . S
C539 C540 1.410 . S
C539 C547 1.503 . S
C540 C539 1.410 . S
C540 C541 1.392 . S
C540 C543 1.511 . S
C541 C537 1.376 . S
C541 C540 1.392 . S
C541 H553 0.929 . S
C542 C538 1.531 . S
C542 H554 0.960 . S
C542 H555 0.962 . S
C542 H556 0.960 . S
C543 C540 1.511 . S
C543 H557 0.961 . S
C543 H558 0.961 . S
C543 H559 0.961 . S
C544 C545 1.370 . S
C544 C546 1.363 . S
C544 H560 0.931 . S
C545 C544 1.370 . S
C545 C549 1.408 . S
C546 C544 1.363 . S
C546 C547 1.370 . S
C546 C550 1.524 . S
C547 C539 1.503 . S
C547 C546 1.370 . S
C547 C548 1.403 . S
C548 C547 1.403 . S
C548 C549 1.404 . S
C548 C551 1.539 . S
C549 C545 1.408 . S
C549 C548 1.404 . S
C549 H561 0.930 . S
C550 C546 1.524 . S
C550 H562 0.956 . S
C550 H563 0.961 . S
C550 H564 0.961 . S
C551 C548 1.539 . S
C551 H565 0.958 . S
C551 H566 0.961 . S
C551 H567 0.960 . S
H552 C536 0.931 . S
H553 C541 0.929 . S
H554 C542 0.960 . S
H555 C542 0.962 . S
H556 C542 0.960 . S
H557 C543 0.961 . S
H558 C543 0.961 . S
H559 C543 0.961 . S
H560 C544 0.931 . S
H561 C549 0.930 . S
H562 C550 0.956 . S
H563 C550 0.961 . S
H564 C550 0.961 . S
H565 C551 0.958 . S
H566 C551 0.961 . S
H567 C551 0.960 . S
C568 C569 1.391 . S
C568 C570 1.394 . S
C568 H584 0.931 . S
C569 C568 1.391 . S
C569 C573 1.376 . S
C570 C568 1.394 . S
C570 C571 1.369 . S
C570 C574 1.531 . S
C571 C570 1.369 . S
C571 C572 1.410 . S
C571 C579 1.503 . S
C572 C571 1.410 . S
C572 C573 1.392 . S
C572 C575 1.511 . S
C573 C569 1.376 . S
C573 C572 1.392 . S
C573 H585 0.929 . S
C574 C570 1.531 . S
C574 H586 0.960 . S
C574 H587 0.962 . S
C574 H588 0.960 . S
C575 C572 1.511 . S
C575 H589 0.961 . S
C575 H590 0.961 . S
C575 H591 0.961 . S
C576 C577 1.370 . S
C576 C578 1.363 . S
C576 H592 0.931 . S
C577 C576 1.370 . S
C577 C581 1.408 . S
C578 C576 1.363 . S
C578 C579 1.370 . S
C578 C582 1.524 . S
C579 C571 1.503 . S
C579 C578 1.370 . S
C579 C580 1.403 . S
C580 C579 1.403 . S
C580 C581 1.404 . S
C580 C583 1.539 . S
C581 C577 1.408 . S
C581 C580 1.404 . S
C581 H593 0.930 . S
C582 C578 1.524 . S
C582 H594 0.956 . S
C582 H595 0.961 . S
C582 H596 0.961 . S
C583 C580 1.539 . S
C583 H597 0.958 . S
C583 H598 0.961 . S
C583 H599 0.960 . S
H584 C568 0.931 . S
H585 C573 0.929 . S
H586 C574 0.960 . S
H587 C574 0.962 . S
H588 C574 0.960 . S
H589 C575 0.961 . S
H590 C575 0.961 . S
H591 C575 0.961 . S
H592 C576 0.931 . S
H593 C581 0.930 . S
H594 C582 0.956 . S
H595 C582 0.961 . S
H596 C582 0.961 . S
H597 C583 0.958 . S
H598 C583 0.961 . S
H599 C583 0.960 . S
C600 C601 1.391 . S
C600 C602 1.394 . S
C600 H616 0.931 1_565 S
C601 C600 1.391 . S
C601 C605 1.376 . S
C602 C600 1.394 . S
C602 C603 1.369 . S
C602 C606 1.531 1_565 S
C603 C602 1.369 . S
C603 C604 1.410 . S
C603 C611 1.503 . S
C604 C603 1.410 . S
C604 C605 1.392 . S
C604 C607 1.511 . S
C605 C601 1.376 . S
C605 C604 1.392 . S
C605 H617 0.929 . S
C606 C602 1.531 1_545 S
C606 H618 0.960 . S
C606 H619 0.962 . S
C606 H620 0.960 . S
C607 C604 1.511 . S
C607 H621 0.961 . S
C607 H622 0.961 . S
C607 H623 0.961 . S
C608 C609 1.370 . S
C608 C610 1.363 . S
C608 H624 0.931 . S
C609 C608 1.370 . S
C609 C613 1.408 1_565 S
C610 C608 1.363 . S
C610 C611 1.370 . S
C610 C614 1.524 . S
C611 C603 1.503 . S
C611 C610 1.370 . S
C611 C612 1.402 . S
C612 C611 1.402 . S
C612 C613 1.404 1_565 S
C612 C615 1.540 1_565 S
C613 C609 1.408 1_545 S
C613 C612 1.404 1_545 S
C613 H625 0.930 . S
C614 C610 1.524 . S
C614 H626 0.956 . S
C614 H627 0.961 . S
C614 H628 0.961 . S
C615 C612 1.540 1_545 S
C615 H629 0.958 . S
C615 H630 0.961 . S
C615 H631 0.942 1_545 S
H616 C600 0.931 1_545 S
H617 C605 0.929 . S
H618 C606 0.960 . S
H619 C606 0.962 . S
H620 C606 0.960 . S
H621 C607 0.961 . S
H622 C607 0.961 . S
H623 C607 0.961 . S
H624 C608 0.931 . S
H625 C613 0.930 . S
H626 C614 0.956 . S
H627 C614 0.961 . S
H628 C614 0.961 . S
H629 C615 0.958 . S
H630 C615 0.961 . S
H631 C615 0.942 1_565 S
C632 C633 1.391 . S
C632 C634 1.394 . S
C632 H648 0.931 . S
C633 C632 1.391 . S
C633 C637 1.376 . S
C634 C632 1.394 . S
C634 C635 1.369 . S
C634 C638 1.531 . S
C635 C634 1.369 . S
C635 C636 1.410 . S
C635 C643 1.503 . S
C636 C635 1.410 . S
C636 C637 1.392 . S
C636 C639 1.511 . S
C637 C633 1.376 . S
C637 C636 1.392 . S
C637 H649 0.929 . S
C638 C634 1.531 . S
C638 H650 0.960 . S
C638 H651 0.962 . S
C638 H652 0.960 . S
C639 C636 1.511 . S
C639 H653 0.961 . S
C639 H654 0.961 . S
C639 H655 0.961 . S
C640 C641 1.370 . S
C640 C642 1.363 . S
C640 H656 0.931 . S
C641 C640 1.370 . S
C641 C645 1.408 . S
C642 C640 1.363 . S
C642 C643 1.370 . S
C642 C646 1.524 . S
C643 C635 1.503 . S
C643 C642 1.370 . S
C643 C644 1.403 . S
C644 C643 1.403 . S
C644 C645 1.404 . S
C644 C647 1.539 . S
C645 C641 1.408 . S
C645 C644 1.404 . S
C645 H657 0.930 . S
C646 C642 1.524 . S
C646 H658 0.956 . S
C646 H659 0.961 . S
C646 H660 0.961 . S
C647 C644 1.539 . S
C647 H661 0.958 . S
C647 H662 0.961 . S
C647 H663 0.960 . S
H648 C632 0.931 . S
H649 C637 0.929 . S
H650 C638 0.960 . S
H651 C638 0.962 . S
H652 C638 0.960 . S
H653 C639 0.961 . S
H654 C639 0.961 . S
H655 C639 0.961 . S
H656 C640 0.931 . S
H657 C645 0.930 . S
H658 C646 0.956 . S
H659 C646 0.961 . S
H660 C646 0.961 . S
H661 C647 0.958 . S
H662 C647 0.961 . S
H663 C647 0.960 . S
C664 C665 1.391 . S
C664 C666 1.394 . S
C664 H680 0.931 . S
C665 C664 1.391 . S
C665 C669 1.376 . S
C666 C664 1.394 . S
C666 C667 1.369 . S
C666 C670 1.531 . S
C667 C666 1.369 . S
C667 C668 1.410 . S
C667 C675 1.503 . S
C668 C667 1.410 . S
C668 C669 1.392 . S
C668 C671 1.511 . S
C669 C665 1.376 . S
C669 C668 1.392 . S
C669 H681 0.929 . S
C670 C666 1.531 . S
C670 H682 0.960 . S
C670 H683 0.962 . S
C670 H684 0.960 . S
C671 C668 1.511 . S
C671 H685 0.961 . S
C671 H686 0.961 . S
C671 H687 0.961 . S
C672 C673 1.370 . S
C672 C674 1.363 . S
C672 H688 0.931 . S
C673 C672 1.370 . S
C673 C677 1.408 . S
C674 C672 1.363 . S
C674 C675 1.370 . S
C674 C678 1.524 . S
C675 C667 1.503 . S
C675 C674 1.370 . S
C675 C676 1.403 . S
C676 C675 1.403 . S
C676 C677 1.404 . S
C676 C679 1.539 . S
C677 C673 1.408 . S
C677 C676 1.404 . S
C677 H689 0.930 . S
C678 C674 1.524 . S
C678 H690 0.956 . S
C678 H691 0.961 . S
C678 H692 0.961 . S
C679 C676 1.539 . S
C679 H693 0.958 . S
C679 H694 0.961 . S
C679 H695 0.960 . S
H680 C664 0.931 . S
H681 C669 0.929 . S
H682 C670 0.960 . S
H683 C670 0.962 . S
H684 C670 0.960 . S
H685 C671 0.961 . S
H686 C671 0.961 . S
H687 C671 0.961 . S
H688 C672 0.931 . S
H689 C677 0.930 . S
H690 C678 0.956 . S
H691 C678 0.961 . S
H692 C678 0.961 . S
H693 C679 0.958 . S
H694 C679 0.961 . S
H695 C679 0.960 . S
C696 C697 1.391 . S
C696 C698 1.394 . S
C696 H712 0.931 . S
C697 C696 1.391 . S
C697 C701 1.376 . S
C698 C696 1.394 . S
C698 C699 1.369 . S
C698 C702 1.531 . S
C699 C698 1.369 . S
C699 C700 1.410 . S
C699 C707 1.503 . S
C700 C699 1.410 . S
C700 C701 1.392 . S
C700 C703 1.511 . S
C701 C697 1.376 . S
C701 C700 1.392 . S
C701 H713 0.929 . S
C702 C698 1.531 . S
C702 H714 0.960 . S
C702 H715 0.962 . S
C702 H716 0.960 . S
C703 C700 1.511 . S
C703 H717 0.961 . S
C703 H718 0.961 . S
C703 H719 0.961 . S
C704 C705 1.370 . S
C704 C706 1.363 . S
C704 H720 0.931 . S
C705 C704 1.370 . S
C705 C709 1.408 . S
C706 C704 1.363 . S
C706 C707 1.370 . S
C706 C710 1.524 . S
C707 C699 1.503 . S
C707 C706 1.370 . S
C707 C708 1.403 . S
C708 C707 1.403 . S
C708 C709 1.404 . S
C708 C711 1.539 . S
C709 C705 1.408 . S
C709 C708 1.404 . S
C709 H721 0.930 . S
C710 C706 1.524 . S
C710 H722 0.956 . S
C710 H723 0.961 . S
C710 H724 0.961 . S
C711 C708 1.539 . S
C711 H725 0.958 . S
C711 H726 0.961 . S
C711 H727 0.960 . S
H712 C696 0.931 . S
H713 C701 0.929 . S
H714 C702 0.960 . S
H715 C702 0.962 . S
H716 C702 0.960 . S
H717 C703 0.961 . S
H718 C703 0.961 . S
H719 C703 0.961 . S
H720 C704 0.931 . S
H721 C709 0.930 . S
H722 C710 0.956 . S
H723 C710 0.961 . S
H724 C710 0.961 . S
H725 C711 0.958 . S
H726 C711 0.961 . S
H727 C711 0.960 . S
C728 C729 1.391 . S
C728 C730 1.394 . S
C728 H744 0.931 . S
C729 C728 1.391 . S
C729 C733 1.376 . S
C730 C728 1.394 . S
C730 C731 1.369 . S
C730 C734 1.531 . S
C731 C730 1.369 . S
C731 C732 1.410 . S
C731 C739 1.503 . S
C732 C731 1.410 . S
C732 C733 1.392 . S
C732 C735 1.511 . S
C733 C729 1.376 . S
C733 C732 1.392 . S
C733 H745 0.929 . S
C734 C730 1.531 . S
C734 H746 0.960 . S
C734 H747 0.962 . S
C734 H748 0.960 . S
C735 C732 1.511 . S
C735 H749 0.961 . S
C735 H750 0.961 . S
C735 H751 0.961 . S
C736 C737 1.370 . S
C736 C738 1.363 . S
C736 H752 0.931 . S
C737 C736 1.370 . S
C737 C741 1.408 . S
C738 C736 1.363 . S
C738 C739 1.370 . S
C738 C742 1.524 . S
C739 C731 1.503 . S
C739 C738 1.370 . S
C739 C740 1.403 . S
C740 C739 1.403 . S
C740 C741 1.404 . S
C740 C743 1.539 . S
C741 C737 1.408 . S
C741 C740 1.404 . S
C741 H753 0.930 . S
C742 C738 1.524 . S
C742 H754 0.956 . S
C742 H755 0.961 . S
C742 H756 0.961 . S
C743 C740 1.539 . S
C743 H757 0.958 . S
C743 H758 0.961 . S
C743 H759 0.960 . S
H744 C728 0.931 . S
H745 C733 0.929 . S
H746 C734 0.960 . S
H747 C734 0.962 . S
H748 C734 0.960 . S
H749 C735 0.961 . S
H750 C735 0.961 . S
H751 C735 0.961 . S
H752 C736 0.931 . S
H753 C741 0.930 . S
H754 C742 0.956 . S
H755 C742 0.961 . S
H756 C742 0.961 . S
H757 C743 0.958 . S
H758 C743 0.961 . S
H759 C743 0.960 . S
C760 C761 1.391 . S
C760 C762 1.394 . S
C760 H776 0.931 . S
C761 C760 1.391 . S
C761 C765 1.376 . S
C762 C760 1.394 . S
C762 C763 1.369 . S
C762 C766 1.531 . S
C763 C762 1.369 . S
C763 C764 1.410 . S
C763 C771 1.503 . S
C764 C763 1.410 . S
C764 C765 1.392 . S
C764 C767 1.511 . S
C765 C761 1.376 . S
C765 C764 1.392 . S
C765 H777 0.929 . S
C766 C762 1.531 . S
C766 H778 0.960 . S
C766 H779 0.962 . S
C766 H780 0.960 . S
C767 C764 1.511 . S
C767 H781 0.961 . S
C767 H782 0.961 . S
C767 H783 0.961 . S
C768 C769 1.370 . S
C768 C770 1.363 . S
C768 H784 0.931 . S
C769 C768 1.370 . S
C769 C773 1.408 . S
C770 C768 1.363 . S
C770 C771 1.370 . S
C770 C774 1.524 . S
C771 C763 1.503 . S
C771 C770 1.370 . S
C771 C772 1.403 . S
C772 C771 1.403 . S
C772 C773 1.404 . S
C772 C775 1.539 . S
C773 C769 1.408 . S
C773 C772 1.404 . S
C773 H785 0.930 . S
C774 C770 1.524 . S
C774 H786 0.956 . S
C774 H787 0.961 . S
C774 H788 0.961 . S
C775 C772 1.539 . S
C775 H789 0.958 . S
C775 H790 0.961 . S
C775 H791 0.960 . S
H776 C760 0.931 . S
H777 C765 0.929 . S
H778 C766 0.960 . S
H779 C766 0.962 . S
H780 C766 0.960 . S
H781 C767 0.961 . S
H782 C767 0.961 . S
H783 C767 0.961 . S
H784 C768 0.931 . S
H785 C773 0.930 . S
H786 C774 0.956 . S
H787 C774 0.961 . S
H788 C774 0.961 . S
H789 C775 0.958 . S
H790 C775 0.961 . S
H791 C775 0.960 . S
C792 C793 1.391 . S
C792 C794 1.394 . S
C792 H808 0.931 . S
C793 C792 1.391 . S
C793 C797 1.376 . S
C794 C792 1.394 . S
C794 C795 1.369 . S
C794 C798 1.494 1_455 S
C795 C794 1.369 . S
C795 C796 1.410 . S
C795 C803 1.503 . S
C796 C795 1.410 . S
C796 C797 1.392 . S
C796 C799 1.511 . S
C797 C793 1.376 . S
C797 C796 1.392 . S
C797 H809 0.929 . S
C798 C794 1.494 1_655 S
C798 H810 0.960 . S
C798 H811 0.978 . S
C798 H812 0.986 . S
C799 C796 1.511 . S
C799 H813 0.961 . S
C799 H814 0.961 . S
C799 H815 0.961 . S
C800 C801 1.370 . S
C800 C802 1.363 . S
C800 H816 0.931 . S
C801 C800 1.370 . S
C801 C805 1.408 . S
C802 C800 1.363 . S
C802 C803 1.370 . S
C802 C806 1.524 . S
C803 C795 1.503 . S
C803 C802 1.370 . S
C803 C804 1.403 . S
C804 C803 1.403 . S
C804 C805 1.404 . S
C804 C807 1.539 . S
C805 C801 1.408 . S
C805 C804 1.404 . S
C805 H817 0.930 . S
C806 C802 1.524 . S
C806 H818 0.956 . S
C806 H819 0.961 . S
C806 H820 0.961 . S
C807 C804 1.539 . S
C807 H821 0.958 . S
C807 H822 0.961 . S
C807 H823 0.960 . S
H808 C792 0.931 . S
H809 C797 0.929 . S
H810 C798 0.960 . S
H811 C798 0.978 . S
H812 C798 0.986 . S
H813 C799 0.961 . S
H814 C799 0.961 . S
H815 C799 0.961 . S
H816 C800 0.931 . S
H817 C805 0.930 . S
H818 C806 0.956 . S
H819 C806 0.961 . S
H820 C806 0.961 . S
H821 C807 0.958 . S
H822 C807 0.961 . S
H823 C807 0.960 . S
C824 C825 1.391 . S
C824 C826 1.394 . S
C824 H840 0.931 . S
C825 C824 1.391 . S
C825 C829 1.376 . S
C826 C824 1.394 . S
C826 C827 1.369 . S
C826 C830 1.531 . S
C827 C826 1.369 . S
C827 C828 1.410 . S
C827 C835 1.503 . S
C828 C827 1.410 . S
C828 C829 1.392 . S
C828 C831 1.511 . S
C829 C825 1.376 . S
C829 C828 1.392 . S
C829 H841 0.929 . S
C830 C826 1.531 . S
C830 H842 0.960 . S
C830 H843 0.962 . S
C830 H844 0.960 . S
C831 C828 1.511 . S
C831 H845 0.961 . S
C831 H846 0.961 . S
C831 H847 0.961 . S
C832 C833 1.370 . S
C832 C834 1.363 . S
C832 H848 0.931 . S
C833 C832 1.370 . S
C833 C837 1.408 . S
C834 C832 1.363 . S
C834 C835 1.370 . S
C834 C838 1.524 . S
C835 C827 1.503 . S
C835 C834 1.370 . S
C835 C836 1.403 . S
C836 C835 1.403 . S
C836 C837 1.404 . S
C836 C839 1.539 . S
C837 C833 1.408 . S
C837 C836 1.404 . S
C837 H849 0.930 . S
C838 C834 1.524 . S
C838 H850 0.956 . S
C838 H851 0.961 . S
C838 H852 0.961 . S
C839 C836 1.539 . S
C839 H853 0.958 . S
C839 H854 0.961 . S
C839 H855 0.960 . S
H840 C824 0.931 . S
H841 C829 0.929 . S
H842 C830 0.960 . S
H843 C830 0.962 . S
H844 C830 0.960 . S
H845 C831 0.961 . S
H846 C831 0.961 . S
H847 C831 0.961 . S
H848 C832 0.931 . S
H849 C837 0.930 . S
H850 C838 0.956 . S
H851 C838 0.961 . S
H852 C838 0.961 . S
H853 C839 0.958 . S
H854 C839 0.961 . S
H855 C839 0.960 . S
C856 C857 1.391 . S
C856 C858 1.394 . S
C856 H872 0.931 . S
C857 C856 1.391 . S
C857 C861 1.376 . S
C858 C856 1.394 . S
C858 C859 1.369 . S
C858 C862 1.531 . S
C859 C858 1.369 . S
C859 C860 1.410 . S
C859 C867 1.503 . S
C860 C859 1.410 . S
C860 C861 1.392 . S
C860 C863 1.511 1_655 S
C861 C857 1.376 . S
C861 C860 1.392 . S
C861 H873 0.929 . S
C862 C858 1.531 . S
C862 H874 0.960 . S
C862 H875 0.962 . S
C862 H876 0.960 . S
C863 C860 1.511 1_455 S
C863 H877 0.961 . S
C863 H878 0.961 . S
C863 H879 0.961 . S
C864 C865 1.370 1_655 S
C864 C866 1.363 . S
C864 H880 0.931 . S
C865 C864 1.370 1_455 S
C865 C869 1.408 . S
C866 C864 1.363 . S
C866 C867 1.370 . S
C866 C870 1.524 . S
C867 C859 1.503 . S
C867 C866 1.370 . S
C867 C868 1.403 1_655 S
C868 C867 1.403 1_455 S
C868 C869 1.404 . S
C868 C871 1.539 . S
C869 C865 1.408 . S
C869 C868 1.404 . S
C869 H881 0.930 . S
C870 C866 1.524 . S
C870 H882 0.956 . S
C870 H883 0.961 . S
C870 H884 0.961 . S
C871 C868 1.539 . S
C871 H885 0.958 . S
C871 H886 0.961 . S
C871 H887 0.960 . S
H872 C856 0.931 . S
H873 C861 0.929 . S
H874 C862 0.960 . S
H875 C862 0.962 . S
H876 C862 0.960 . S
H877 C863 0.961 . S
H878 C863 0.961 . S
H879 C863 0.961 . S
H880 C864 0.931 . S
H881 C869 0.930 . S
H882 C870 0.956 . S
H883 C870 0.961 . S
H884 C870 0.961 . S
H885 C871 0.958 . S
H886 C871 0.961 . S
H887 C871 0.960 . S
C888 C889 1.391 . S
C888 C890 1.394 . S
C888 H904 0.931 . S
C889 C888 1.391 . S
C889 C893 1.376 . S
C890 C888 1.394 . S
C890 C891 1.369 . S
C890 C894 1.531 . S
C891 C890 1.369 . S
C891 C892 1.410 . S
C891 C899 1.503 . S
C892 C891 1.410 . S
C892 C893 1.392 . S
C892 C895 1.511 . S
C893 C889 1.376 . S
C893 C892 1.392 . S
C893 H905 0.929 . S
C894 C890 1.531 . S
C894 H906 0.960 . S
C894 H907 0.962 . S
C894 H908 0.960 . S
C895 C892 1.511 . S
C895 H909 0.961 . S
C895 H910 0.961 . S
C895 H911 0.961 . S
C896 C897 1.370 . S
C896 C898 1.363 . S
C896 H912 0.931 . S
C897 C896 1.370 . S
C897 C901 1.408 . S
C898 C896 1.363 . S
C898 C899 1.370 . S
C898 C902 1.524 . S
C899 C891 1.503 . S
C899 C898 1.370 . S
C899 C900 1.403 . S
C900 C899 1.403 . S
C900 C901 1.404 . S
C900 C903 1.539 . S
C901 C897 1.408 . S
C901 C900 1.404 . S
C901 H913 0.930 . S
C902 C898 1.524 . S
C902 H914 0.956 . S
C902 H915 0.961 . S
C902 H916 0.961 . S
C903 C900 1.539 . S
C903 H917 0.958 . S
C903 H918 0.961 . S
C903 H919 0.960 . S
H904 C888 0.931 . S
H905 C893 0.929 . S
H906 C894 0.960 . S
H907 C894 0.962 . S
H908 C894 0.960 . S
H909 C895 0.961 . S
H910 C895 0.961 . S
H911 C895 0.961 . S
H912 C896 0.931 . S
H913 C901 0.930 . S
H914 C902 0.956 . S
H915 C902 0.961 . S
H916 C902 0.961 . S
H917 C903 0.958 . S
H918 C903 0.961 . S
H919 C903 0.960 . S
C920 C921 1.391 . S
C920 C922 1.394 . S
C920 H936 0.931 . S
C921 C920 1.391 . S
C921 C925 1.376 . S
C922 C920 1.394 . S
C922 C923 1.369 . S
C922 C926 1.531 . S
C923 C922 1.369 . S
C923 C924 1.410 . S
C923 C931 1.503 . S
C924 C923 1.410 . S
C924 C925 1.392 . S
C924 C927 1.511 . S
C925 C921 1.376 . S
C925 C924 1.392 . S
C925 H937 0.929 . S
C926 C922 1.531 . S
C926 H938 0.960 . S
C926 H939 0.962 . S
C926 H940 0.960 . S
C927 C924 1.511 . S
C927 H941 0.961 . S
C927 H942 0.961 . S
C927 H943 0.961 . S
C928 C929 1.370 . S
C928 C930 1.363 . S
C928 H944 0.931 . S
C929 C928 1.370 . S
C929 C933 1.408 . S
C930 C928 1.363 . S
C930 C931 1.370 . S
C930 C934 1.524 . S
C931 C923 1.503 . S
C931 C930 1.370 . S
C931 C932 1.403 . S
C932 C931 1.403 . S
C932 C933 1.404 . S
C932 C935 1.539 . S
C933 C929 1.408 . S
C933 C932 1.404 . S
C933 H945 0.930 . S
C934 C930 1.524 . S
C934 H946 0.956 . S
C934 H947 0.961 . S
C934 H948 0.961 . S
C935 C932 1.539 . S
C935 H949 0.958 . S
C935 H950 0.961 . S
C935 H951 0.960 . S
H936 C920 0.931 . S
H937 C925 0.929 . S
H938 C926 0.960 . S
H939 C926 0.962 . S
H940 C926 0.960 . S
H941 C927 0.961 . S
H942 C927 0.961 . S
H943 C927 0.961 . S
H944 C928 0.931 . S
H945 C933 0.930 . S
H946 C934 0.956 . S
H947 C934 0.961 . S
H948 C934 0.961 . S
H949 C935 0.958 . S
H950 C935 0.961 . S
H951 C935 0.960 . S
C952 C953 1.392 1_554 S
C952 C954 1.389 1_545 S
C952 H968 0.934 . S
C953 C952 1.392 1_556 S
C953 C957 1.376 1_545 S
C954 C952 1.389 1_565 S
C954 C955 1.369 1_554 S
C954 C958 1.531 . S
C955 C954 1.369 1_556 S
C955 C956 1.410 . S
C955 C963 1.503 . S
C956 C955 1.410 . S
C956 C957 1.392 . S
C956 C959 1.511 . S
C957 C953 1.376 1_565 S
C957 C956 1.392 . S
C957 H969 0.929 . S
C958 C954 1.531 . S
C958 H970 0.960 . S
C958 H971 0.962 . S
C958 H972 0.947 1_565 S
C959 C956 1.511 . S
C959 H973 0.961 . S
C959 H974 0.961 . S
C959 H975 0.961 . S
C960 C961 1.370 . S
C960 C962 1.374 . S
C960 H976 0.931 . S
C961 C960 1.370 . S
C961 C965 1.408 . S
C962 C960 1.374 . S
C962 C963 1.363 1_554 S
C962 C966 1.523 1_554 S
C963 C955 1.503 . S
C963 C962 1.363 1_556 S
C963 C964 1.403 . S
C964 C963 1.403 . S
C964 C965 1.400 1_556 S
C964 C967 1.544 . S
C965 C961 1.408 . S
C965 C964 1.400 1_554 S
C965 H977 0.930 . S
C966 C962 1.523 1_556 S
C966 H978 0.933 1_556 S
C966 H979 0.990 . S
C966 H980 0.958 . S
C967 C964 1.544 . S
C967 H981 0.958 1_566 S
C967 H982 0.961 . S
C967 H983 0.960 . S
H968 C952 0.934 . S
H969 C957 0.929 . S
H970 C958 0.960 . S
H971 C958 0.962 . S
H972 C958 0.947 1_545 S
H973 C959 0.961 . S
H974 C959 0.961 . S
H975 C959 0.961 . S
H976 C960 0.931 . S
H977 C965 0.930 . S
H978 C966 0.933 1_554 S
H979 C966 0.990 . S
H980 C966 0.958 . S
H981 C967 0.958 1_544 S
H982 C967 0.961 . S
H983 C967 0.960 . S
C984 C985 1.391 . S
C984 C986 1.394 . S
C984 H1000 0.931 . S
C985 C984 1.391 . S
C985 C989 1.376 . S
C986 C984 1.394 . S
C986 C987 1.369 . S
C986 C990 1.531 . S
C987 C986 1.369 . S
C987 C988 1.410 . S
C987 C995 1.503 . S
C988 C987 1.410 . S
C988 C989 1.392 . S
C988 C991 1.511 . S
C989 C985 1.376 . S
C989 C988 1.392 . S
C989 H1001 0.929 . S
C990 C986 1.531 . S
C990 H1002 0.960 . S
C990 H1003 0.962 . S
C990 H1004 0.960 . S
C991 C988 1.511 . S
C991 H1005 0.961 . S
C991 H1006 0.961 . S
C991 H1007 0.961 . S
C992 C993 1.370 . S
C992 C994 1.363 . S
C992 H1008 0.931 . S
C993 C992 1.370 . S
C993 C997 1.408 . S
C994 C992 1.363 . S
C994 C995 1.370 . S
C994 C998 1.524 . S
C995 C987 1.503 . S
C995 C994 1.370 . S
C995 C996 1.403 . S
C996 C995 1.403 . S
C996 C997 1.404 . S
C996 C999 1.539 . S
C997 C993 1.408 . S
C997 C996 1.404 . S
C997 H1009 0.930 . S
C998 C994 1.524 . S
C998 H1010 0.956 . S
C998 H1011 0.961 . S
C998 H1012 0.961 . S
C999 C996 1.539 . S
C999 H1013 0.958 . S
C999 H1014 0.961 . S
C999 H1015 0.960 . S
H1000 C984 0.931 . S
H1001 C989 0.929 . S
H1002 C990 0.960 . S
H1003 C990 0.962 . S
H1004 C990 0.960 . S
H1005 C991 0.961 . S
H1006 C991 0.961 . S
H1007 C991 0.961 . S
H1008 C992 0.931 . S
H1009 C997 0.930 . S
H1010 C998 0.956 . S
H1011 C998 0.961 . S
H1012 C998 0.961 . S
H1013 C999 0.958 . S
H1014 C999 0.961 . S
H1015 C999 0.960 . S
C1016 C1017 1.391 . S
C1016 C1018 1.394 . S
C1016 H1032 0.931 . S
C1017 C1016 1.391 . S
C1017 C1021 1.376 . S
C1018 C1016 1.394 . S
C1018 C1019 1.369 . S
C1018 C1022 1.531 . S
C1019 C1018 1.369 . S
C1019 C1020 1.410 . S
C1019 C1027 1.503 . S
C1020 C1019 1.410 . S
C1020 C1021 1.392 . S
C1020 C1023 1.511 . S
C1021 C1017 1.376 . S
C1021 C1020 1.392 . S
C1021 H1033 0.921 1_545 S
C1022 C1018 1.531 . S
C1022 H1034 0.960 . S
C1022 H1035 0.962 . S
C1022 H1036 0.960 . S
C1023 C1020 1.511 . S
C1023 H1037 0.961 . S
C1023 H1038 0.961 . S
C1023 H1039 0.961 . S
C1024 C1025 1.370 . S
C1024 C1026 1.363 . S
C1024 H1040 0.931 . S
C1025 C1024 1.370 . S
C1025 C1029 1.408 . S
C1026 C1024 1.363 . S
C1026 C1027 1.370 . S
C1026 C1030 1.524 . S
C1027 C1019 1.503 . S
C1027 C1026 1.370 . S
C1027 C1028 1.403 . S
C1028 C1027 1.403 . S
C1028 C1029 1.404 . S
C1028 C1031 1.539 . S
C1029 C1025 1.408 . S
C1029 C1028 1.404 . S
C1029 H1041 0.930 . S
C1030 C1026 1.524 . S
C1030 H1042 0.956 . S
C1030 H1043 0.961 . S
C1030 H1044 0.961 . S
C1031 C1028 1.539 . S
C1031 H1045 0.958 . S
C1031 H1046 0.961 . S
C1031 H1047 0.948 1_545 S
H1032 C1016 0.931 . S
H1033 C1021 0.921 1_565 S
H1034 C1022 0.960 . S
H1035 C1022 0.962 . S
H1036 C1022 0.960 . S
H1037 C1023 0.961 . S
H1038 C1023 0.961 . S
H1039 C1023 0.961 . S
H1040 C1024 0.931 . S
H1041 C1029 0.930 . S
H1042 C1030 0.956 . S
H1043 C1030 0.961 . S
H1044 C1030 0.961 . S
H1045 C1031 0.958 . S
H1046 C1031 0.961 . S
H1047 C1031 0.948 1_565 S
C1048 C1049 1.391 . S
C1048 C1050 1.394 . S
C1048 H1064 0.931 . S
C1049 C1048 1.391 . S
C1049 C1053 1.376 . S
C1050 C1048 1.394 . S
C1050 C1051 1.369 . S
C1050 C1054 1.531 . S
C1051 C1050 1.369 . S
C1051 C1052 1.410 . S
C1051 C1059 1.503 . S
C1052 C1051 1.410 . S
C1052 C1053 1.392 . S
C1052 C1055 1.511 . S
C1053 C1049 1.376 . S
C1053 C1052 1.392 . S
C1053 H1065 0.929 . S
C1054 C1050 1.531 . S
C1054 H1066 0.960 . S
C1054 H1067 0.962 . S
C1054 H1068 0.960 . S
C1055 C1052 1.511 . S
C1055 H1069 0.961 . S
C1055 H1070 0.961 . S
C1055 H1071 0.961 . S
C1056 C1057 1.370 . S
C1056 C1058 1.363 . S
C1056 H1072 0.931 . S
C1057 C1056 1.370 . S
C1057 C1061 1.408 . S
C1058 C1056 1.363 . S
C1058 C1059 1.370 . S
C1058 C1062 1.524 . S
C1059 C1051 1.503 . S
C1059 C1058 1.370 . S
C1059 C1060 1.403 . S
C1060 C1059 1.403 . S
C1060 C1061 1.404 . S
C1060 C1063 1.539 . S
C1061 C1057 1.408 . S
C1061 C1060 1.404 . S
C1061 H1073 0.930 . S
C1062 C1058 1.524 . S
C1062 H1074 0.956 . S
C1062 H1075 0.961 . S
C1062 H1076 0.961 . S
C1063 C1060 1.539 . S
C1063 H1077 0.958 . S
C1063 H1078 0.961 . S
C1063 H1079 0.960 . S
H1064 C1048 0.931 . S
H1065 C1053 0.929 . S
H1066 C1054 0.960 . S
H1067 C1054 0.962 . S
H1068 C1054 0.960 . S
H1069 C1055 0.961 . S
H1070 C1055 0.961 . S
H1071 C1055 0.961 . S
H1072 C1056 0.931 . S
H1073 C1061 0.930 . S
H1074 C1062 0.956 . S
H1075 C1062 0.961 . S
H1076 C1062 0.961 . S
H1077 C1063 0.958 . S
H1078 C1063 0.961 . S
H1079 C1063 0.960 . S
C1080 C1081 1.368 1_545 S
C1080 C1082 1.394 . S
C1080 H1096 0.931 . S
C1081 C1080 1.368 1_565 S
C1081 C1085 1.378 . S
C1082 C1080 1.394 . S
C1082 C1083 1.369 . S
C1082 C1086 1.531 . S
C1083 C1082 1.369 . S
C1083 C1084 1.410 . S
C1083 C1091 1.503 . S
C1084 C1083 1.410 . S
C1084 C1085 1.392 1_545 S
C1084 C1087 1.511 . S
C1085 C1081 1.378 . S
C1085 C1084 1.392 1_565 S
C1085 H1097 0.929 . S
C1086 C1082 1.531 . S
C1086 H1098 0.960 . S
C1086 H1099 0.962 . S
C1086 H1100 0.960 . S
C1087 C1084 1.511 . S
C1087 H1101 0.961 1_545 S
C1087 H1102 0.961 . S
C1087 H1103 0.961 . S
C1088 C1089 1.370 . S
C1088 C1090 1.363 . S
C1088 H1104 0.931 . S
C1089 C1088 1.370 . S
C1089 C1093 1.408 . S
C1090 C1088 1.363 . S
C1090 C1091 1.370 . S
C1090 C1094 1.524 . S
C1091 C1083 1.503 . S
C1091 C1090 1.370 . S
C1091 C1092 1.403 . S
C1092 C1091 1.403 . S
C1092 C1093 1.404 . S
C1092 C1095 1.539 . S
C1093 C1089 1.408 . S
C1093 C1092 1.404 . S
C1093 H1105 0.930 . S
C1094 C1090 1.524 . S
C1094 H1106 0.956 . S
C1094 H1107 0.961 . S
C1094 H1108 0.961 . S
C1095 C1092 1.539 . S
C1095 H1109 0.958 . S
C1095 H1110 0.961 . S
C1095 H1111 0.960 . S
H1096 C1080 0.931 . S
H1097 C1085 0.929 . S
H1098 C1086 0.960 . S
H1099 C1086 0.962 . S
H1100 C1086 0.960 . S
H1101 C1087 0.961 1_565 S
H1102 C1087 0.961 . S
H1103 C1087 0.961 . S
H1104 C1088 0.931 . S
H1105 C1093 0.930 . S
H1106 C1094 0.956 . S
H1107 C1094 0.961 . S
H1108 C1094 0.961 . S
H1109 C1095 0.958 . S
H1110 C1095 0.961 . S
H1111 C1095 0.960 . S
C1112 C1113 1.391 . S
C1112 C1114 1.394 . S
C1112 H1128 0.931 . S
C1113 C1112 1.391 . S
C1113 C1117 1.376 . S
C1114 C1112 1.394 . S
C1114 C1115 1.369 . S
C1114 C1118 1.531 . S
C1115 C1114 1.369 . S
C1115 C1116 1.410 . S
C1115 C1123 1.503 . S
C1116 C1115 1.410 . S
C1116 C1117 1.392 . S
C1116 C1119 1.511 . S
C1117 C1113 1.376 . S
C1117 C1116 1.392 . S
C1117 H1129 0.929 . S
C1118 C1114 1.531 . S
C1118 H1130 0.960 . S
C1118 H1131 0.962 . S
C1118 H1132 0.960 . S
C1119 C1116 1.511 . S
C1119 H1133 0.961 . S
C1119 H1134 0.961 . S
C1119 H1135 0.961 . S
C1120 C1121 1.370 . S
C1120 C1122 1.363 . S
C1120 H1136 0.931 . S
C1121 C1120 1.370 . S
C1121 C1125 1.408 . S
C1122 C1120 1.363 . S
C1122 C1123 1.370 . S
C1122 C1126 1.524 . S
C1123 C1115 1.503 . S
C1123 C1122 1.370 . S
C1123 C1124 1.403 . S
C1124 C1123 1.403 . S
C1124 C1125 1.404 . S
C1124 C1127 1.539 . S
C1125 C1121 1.408 . S
C1125 C1124 1.404 . S
C1125 H1137 0.930 . S
C1126 C1122 1.524 . S
C1126 H1138 0.956 . S
C1126 H1139 0.961 . S
C1126 H1140 0.961 . S
C1127 C1124 1.539 . S
C1127 H1141 0.958 . S
C1127 H1142 0.961 . S
C1127 H1143 0.960 . S
H1128 C1112 0.931 . S
H1129 C1117 0.929 . S
H1130 C1118 0.960 . S
H1131 C1118 0.962 . S
H1132 C1118 0.960 . S
H1133 C1119 0.961 . S
H1134 C1119 0.961 . S
H1135 C1119 0.961 . S
H1136 C1120 0.931 . S
H1137 C1125 0.930 . S
H1138 C1126 0.956 . S
H1139 C1126 0.961 . S
H1140 C1126 0.961 . S
H1141 C1127 0.958 . S
H1142 C1127 0.961 . S
H1143 C1127 0.960 . S
C1144 C1145 1.391 . S
C1144 C1146 1.394 . S
C1144 H1160 0.931 . S
C1145 C1144 1.391 . S
C1145 C1149 1.376 . S
C1146 C1144 1.394 . S
C1146 C1147 1.369 . S
C1146 C1150 1.531 . S
C1147 C1146 1.369 . S
C1147 C1148 1.410 . S
C1147 C1155 1.503 . S
C1148 C1147 1.410 . S
C1148 C1149 1.392 . S
C1148 C1151 1.511 . S
C1149 C1145 1.376 . S
C1149 C1148 1.392 . S
C1149 H1161 0.929 . S
C1150 C1146 1.531 . S
C1150 H1162 0.960 . S
C1150 H1163 0.962 . S
C1150 H1164 0.960 . S
C1151 C1148 1.511 . S
C1151 H1165 0.961 . S
C1151 H1166 0.961 . S
C1151 H1167 0.961 . S
C1152 C1153 1.370 . S
C1152 C1154 1.363 . S
C1152 H1168 0.931 . S
C1153 C1152 1.370 . S
C1153 C1157 1.408 . S
C1154 C1152 1.363 . S
C1154 C1155 1.370 . S
C1154 C1158 1.524 . S
C1155 C1147 1.503 . S
C1155 C1154 1.370 . S
C1155 C1156 1.403 . S
C1156 C1155 1.403 . S
C1156 C1157 1.404 . S
C1156 C1159 1.539 . S
C1157 C1153 1.408 . S
C1157 C1156 1.404 . S
C1157 H1169 0.930 . S
C1158 C1154 1.524 . S
C1158 H1170 0.956 . S
C1158 H1171 0.961 . S
C1158 H1172 0.961 . S
C1159 C1156 1.539 . S
C1159 H1173 0.958 . S
C1159 H1174 0.961 . S
C1159 H1175 0.960 . S
H1160 C1144 0.931 . S
H1161 C1149 0.929 . S
H1162 C1150 0.960 . S
H1163 C1150 0.962 . S
H1164 C1150 0.960 . S
H1165 C1151 0.961 . S
H1166 C1151 0.961 . S
H1167 C1151 0.961 . S
H1168 C1152 0.931 . S
H1169 C1157 0.930 . S
H1170 C1158 0.956 . S
H1171 C1158 0.961 . S
H1172 C1158 0.961 . S
H1173 C1159 0.958 . S
H1174 C1159 0.961 . S
H1175 C1159 0.960 . S
C1176 C1177 1.391 . S
C1176 C1178 1.394 . S
C1176 H1192 0.931 . S
C1177 C1176 1.391 . S
C1177 C1181 1.376 . S
C1178 C1176 1.394 . S
C1178 C1179 1.369 . S
C1178 C1182 1.531 . S
C1179 C1178 1.369 . S
C1179 C1180 1.410 . S
C1179 C1187 1.503 . S
C1180 C1179 1.410 . S
C1180 C1181 1.392 . S
C1180 C1183 1.511 1_545 S
C1181 C1177 1.376 . S
C1181 C1180 1.392 . S
C1181 H1193 0.929 1_545 S
C1182 C1178 1.531 . S
C1182 H1194 0.960 . S
C1182 H1195 0.962 . S
C1182 H1196 0.960 . S
C1183 C1180 1.511 1_565 S
C1183 H1197 0.961 . S
C1183 H1198 0.961 . S
C1183 H1199 0.961 . S
C1184 C1185 1.370 . S
C1184 C1186 1.363 . S
C1184 H1200 0.931 . S
C1185 C1184 1.370 . S
C1185 C1189 1.408 . S
C1186 C1184 1.363 . S
C1186 C1187 1.370 . S
C1186 C1190 1.524 . S
C1187 C1179 1.503 . S
C1187 C1186 1.370 . S
C1187 C1188 1.403 . S
C1188 C1187 1.403 . S
C1188 C1189 1.404 . S
C1188 C1191 1.539 1_545 S
C1189 C1185 1.408 . S
C1189 C1188 1.404 . S
C1189 H1201 0.930 1_545 S
C1190 C1186 1.524 . S
C1190 H1202 0.956 . S
C1190 H1203 0.961 . S
C1190 H1204 0.961 . S
C1191 C1188 1.539 1_565 S
C1191 H1205 0.958 1_565 S
C1191 H1206 0.961 . S
C1191 H1207 0.960 . S
H1192 C1176 0.931 . S
H1193 C1181 0.929 1_565 S
H1194 C1182 0.960 . S
H1195 C1182 0.962 . S
H1196 C1182 0.960 . S
H1197 C1183 0.961 . S
H1198 C1183 0.961 . S
H1199 C1183 0.961 . S
H1200 C1184 0.931 . S
H1201 C1189 0.930 1_565 S
H1202 C1190 0.956 . S
H1203 C1190 0.961 . S
H1204 C1190 0.961 . S
H1205 C1191 0.958 1_545 S
H1206 C1191 0.961 . S
H1207 C1191 0.960 . S
C1208 C1209 1.391 . S
C1208 C1210 1.394 . S
C1208 H1224 0.931 . S
C1209 C1208 1.391 . S
C1209 C1213 1.376 . S
C1210 C1208 1.394 . S
C1210 C1211 1.369 . S
C1210 C1214 1.531 . S
C1211 C1210 1.369 . S
C1211 C1212 1.410 . S
C1211 C1219 1.503 . S
C1212 C1211 1.410 . S
C1212 C1213 1.392 . S
C1212 C1215 1.511 . S
C1213 C1209 1.376 . S
C1213 C1212 1.392 . S
C1213 H1225 0.929 . S
C1214 C1210 1.531 . S
C1214 H1226 0.960 . S
C1214 H1227 0.962 . S
C1214 H1228 0.960 . S
C1215 C1212 1.511 . S
C1215 H1229 0.961 . S
C1215 H1230 0.961 . S
C1215 H1231 0.961 . S
C1216 C1217 1.370 . S
C1216 C1218 1.363 . S
C1216 H1232 0.931 . S
C1217 C1216 1.370 . S
C1217 C1221 1.408 . S
C1218 C1216 1.363 . S
C1218 C1219 1.370 . S
C1218 C1222 1.524 . S
C1219 C1211 1.503 . S
C1219 C1218 1.370 . S
C1219 C1220 1.403 . S
C1220 C1219 1.403 . S
C1220 C1221 1.404 . S
C1220 C1223 1.539 . S
C1221 C1217 1.408 . S
C1221 C1220 1.404 . S
C1221 H1233 0.930 . S
C1222 C1218 1.524 . S
C1222 H1234 0.956 . S
C1222 H1235 0.961 . S
C1222 H1236 0.961 . S
C1223 C1220 1.539 . S
C1223 H1237 0.958 . S
C1223 H1238 0.961 . S
C1223 H1239 0.960 . S
H1224 C1208 0.931 . S
H1225 C1213 0.929 . S
H1226 C1214 0.960 . S
H1227 C1214 0.962 . S
H1228 C1214 0.960 . S
H1229 C1215 0.961 . S
H1230 C1215 0.961 . S
H1231 C1215 0.961 . S
H1232 C1216 0.931 . S
H1233 C1221 0.930 . S
H1234 C1222 0.956 . S
H1235 C1222 0.961 . S
H1236 C1222 0.961 . S
H1237 C1223 0.958 . S
H1238 C1223 0.961 . S
H1239 C1223 0.960 . S
C1240 C1241 1.391 . S
C1240 C1242 1.394 . S
C1240 H1256 0.931 . S
C1241 C1240 1.391 . S
C1241 C1245 1.376 . S
C1242 C1240 1.394 . S
C1242 C1243 1.369 . S
C1242 C1246 1.531 . S
C1243 C1242 1.369 . S
C1243 C1244 1.410 . S
C1243 C1251 1.503 . S
C1244 C1243 1.410 . S
C1244 C1245 1.392 . S
C1244 C1247 1.511 . S
C1245 C1241 1.376 . S
C1245 C1244 1.392 . S
C1245 H1257 0.929 . S
C1246 C1242 1.531 . S
C1246 H1258 0.960 . S
C1246 H1259 0.962 . S
C1246 H1260 0.960 . S
C1247 C1244 1.511 . S
C1247 H1261 0.961 . S
C1247 H1262 0.961 . S
C1247 H1263 0.961 . S
C1248 C1249 1.370 . S
C1248 C1250 1.363 . S
C1248 H1264 0.931 . S
C1249 C1248 1.370 . S
C1249 C1253 1.408 . S
C1250 C1248 1.363 . S
C1250 C1251 1.370 . S
C1250 C1254 1.524 . S
C1251 C1243 1.503 . S
C1251 C1250 1.370 . S
C1251 C1252 1.403 . S
C1252 C1251 1.403 . S
C1252 C1253 1.404 . S
C1252 C1255 1.539 . S
C1253 C1249 1.408 . S
C1253 C1252 1.404 . S
C1253 H1265 0.930 . S
C1254 C1250 1.524 . S
C1254 H1266 0.956 . S
C1254 H1267 0.961 . S
C1254 H1268 0.961 . S
C1255 C1252 1.539 . S
C1255 H1269 0.958 . S
C1255 H1270 0.961 . S
C1255 H1271 0.960 . S
H1256 C1240 0.931 . S
H1257 C1245 0.929 . S
H1258 C1246 0.960 . S
H1259 C1246 0.962 . S
H1260 C1246 0.960 . S
H1261 C1247 0.961 . S
H1262 C1247 0.961 . S
H1263 C1247 0.961 . S
H1264 C1248 0.931 . S
H1265 C1253 0.930 . S
H1266 C1254 0.956 . S
H1267 C1254 0.961 . S
H1268 C1254 0.961 . S
H1269 C1255 0.958 . S
H1270 C1255 0.961 . S
H1271 C1255 0.960 . S
C1272 C1273 1.391 . S
C1272 C1274 1.394 . S
C1272 H1288 0.931 . S
C1273 C1272 1.391 . S
C1273 C1277 1.376 . S
C1274 C1272 1.394 . S
C1274 C1275 1.369 . S
C1274 C1278 1.531 . S
C1275 C1274 1.369 . S
C1275 C1276 1.410 . S
C1275 C1283 1.503 . S
C1276 C1275 1.410 . S
C1276 C1277 1.392 . S
C1276 C1279 1.511 . S
C1277 C1273 1.376 . S
C1277 C1276 1.392 . S
C1277 H1289 0.929 . S
C1278 C1274 1.531 . S
C1278 H1290 0.960 . S
C1278 H1291 0.962 . S
C1278 H1292 0.960 . S
C1279 C1276 1.511 . S
C1279 H1293 0.961 . S
C1279 H1294 0.961 . S
C1279 H1295 0.961 . S
C1280 C1281 1.370 . S
C1280 C1282 1.363 . S
C1280 H1296 0.931 . S
C1281 C1280 1.370 . S
C1281 C1285 1.408 . S
C1282 C1280 1.363 . S
C1282 C1283 1.370 . S
C1282 C1286 1.524 . S
C1283 C1275 1.503 . S
C1283 C1282 1.370 . S
C1283 C1284 1.403 . S
C1284 C1283 1.403 . S
C1284 C1285 1.404 . S
C1284 C1287 1.539 . S
C1285 C1281 1.408 . S
C1285 C1284 1.404 . S
C1285 H1297 0.930 . S
C1286 C1282 1.524 . S
C1286 H1298 0.956 . S
C1286 H1299 0.961 . S
C1286 H1300 0.961 . S
C1287 C1284 1.539 . S
C1287 H1301 0.958 . S
C1287 H1302 0.961 . S
C1287 H1303 0.960 . S
H1288 C1272 0.931 . S
H1289 C1277 0.929 . S
H1290 C1278 0.960 . S
H1291 C1278 0.962 . S
H1292 C1278 0.960 . S
H1293 C1279 0.961 . S
H1294 C1279 0.961 . S
H1295 C1279 0.961 . S
H1296 C1280 0.931 . S
H1297 C1285 0.930 . S
H1298 C1286 0.956 . S
H1299 C1286 0.961 . S
H1300 C1286 0.961 . S
H1301 C1287 0.958 . S
H1302 C1287 0.961 . S
H1303 C1287 0.960 . S
C1304 C1305 1.391 . S
C1304 C1306 1.394 . S
C1304 H1320 0.931 . S
C1305 C1304 1.391 . S
C1305 C1309 1.376 1_565 S
C1306 C1304 1.394 . S
C1306 C1307 1.369 . S
C1306 C1310 1.531 . S
C1307 C1306 1.369 . S
C1307 C1308 1.410 1_565 S
C1307 C1315 1.504 . S
C1308 C1307 1.410 1_545 S
C1308 C1309 1.392 . S
C1308 C1311 1.511 . S
C1309 C1305 1.376 1_545 S
C1309 C1308 1.392 . S
C1309 H1321 0.929 1_655 S
C1310 C1306 1.531 . S
C1310 H1322 0.960 . S
C1310 H1323 0.962 . S
C1310 H1324 0.960 . S
C1311 C1308 1.511 . S
C1311 H1325 0.961 1_655 S
C1311 H1326 0.961 . S
C1311 H1327 0.961 . S
C1312 C1313 1.370 . S
C1312 C1314 1.363 . S
C1312 H1328 0.931 . S
C1313 C1312 1.370 . S
C1313 C1317 1.408 1_545 S
C1314 C1312 1.363 . S
C1314 C1315 1.362 1_545 S
C1314 C1318 1.524 . S
C1315 C1307 1.504 . S
C1315 C1314 1.362 1_565 S
C1315 C1316 1.411 . S
C1316 C1315 1.411 . S
C1316 C1317 1.404 . S
C1316 C1319 1.539 . S
C1317 C1313 1.408 1_565 S
C1317 C1316 1.404 . S
C1317 H1329 0.930 . S
C1318 C1314 1.524 . S
C1318 H1330 0.956 . S
C1318 H1331 0.961 . S
C1318 H1332 0.961 . S
C1319 C1316 1.539 . S
C1319 H1333 0.958 . S
C1319 H1334 0.961 . S
C1319 H1335 0.960 . S
H1320 C1304 0.931 . S
H1321 C1309 0.929 1_455 S
H1322 C1310 0.960 . S
H1323 C1310 0.962 . S
H1324 C1310 0.960 . S
H1325 C1311 0.961 1_455 S
H1326 C1311 0.961 . S
H1327 C1311 0.961 . S
H1328 C1312 0.931 . S
H1329 C1317 0.930 . S
H1330 C1318 0.956 . S
H1331 C1318 0.961 . S
H1332 C1318 0.961 . S
H1333 C1319 0.958 . S
H1334 C1319 0.961 . S
H1335 C1319 0.960 . S
C1336 C1337 1.391 . S
C1336 C1338 1.394 . S
C1336 H1352 0.931 . S
C1337 C1336 1.391 . S
C1337 C1341 1.376 . S
C1338 C1336 1.394 . S
C1338 C1339 1.369 . S
C1338 C1342 1.531 . S
C1339 C1338 1.369 . S
C1339 C1340 1.410 . S
C1339 C1347 1.503 . S
C1340 C1339 1.410 . S
C1340 C1341 1.392 . S
C1340 C1343 1.511 . S
C1341 C1337 1.376 . S
C1341 C1340 1.392 . S
C1341 H1353 0.929 . S
C1342 C1338 1.531 . S
C1342 H1354 0.960 . S
C1342 H1355 0.962 . S
C1342 H1356 0.960 . S
C1343 C1340 1.511 . S
C1343 H1357 0.961 . S
C1343 H1358 0.961 . S
C1343 H1359 0.961 . S
C1344 C1345 1.370 . S
C1344 C1346 1.363 . S
C1344 H1360 0.931 . S
C1345 C1344 1.370 . S
C1345 C1349 1.408 . S
C1346 C1344 1.363 . S
C1346 C1347 1.370 . S
C1346 C1350 1.524 . S
C1347 C1339 1.503 . S
C1347 C1346 1.370 . S
C1347 C1348 1.403 . S
C1348 C1347 1.403 . S
C1348 C1349 1.404 . S
C1348 C1351 1.539 . S
C1349 C1345 1.408 . S
C1349 C1348 1.404 . S
C1349 H1361 0.930 . S
C1350 C1346 1.524 . S
C1350 H1362 0.956 . S
C1350 H1363 0.961 . S
C1350 H1364 0.961 . S
C1351 C1348 1.539 . S
C1351 H1365 0.958 . S
C1351 H1366 0.961 . S
C1351 H1367 0.960 . S
H1352 C1336 0.931 . S
H1353 C1341 0.929 . S
H1354 C1342 0.960 . S
H1355 C1342 0.962 . S
H1356 C1342 0.960 . S
H1357 C1343 0.961 . S
H1358 C1343 0.961 . S
H1359 C1343 0.961 . S
H1360 C1344 0.931 . S
H1361 C1349 0.930 . S
H1362 C1350 0.956 . S
H1363 C1350 0.961 . S
H1364 C1350 0.961 . S
H1365 C1351 0.958 . S
H1366 C1351 0.961 . S
H1367 C1351 0.960 . S
C1368 C1369 1.391 . S
C1368 C1370 1.394 . S
C1368 H1384 0.931 . S
C1369 C1368 1.391 . S
C1369 C1373 1.376 . S
C1370 C1368 1.394 . S
C1370 C1371 1.369 . S
C1370 C1374 1.531 . S
C1371 C1370 1.369 . S
C1371 C1372 1.410 . S
C1371 C1379 1.503 . S
C1372 C1371 1.410 . S
C1372 C1373 1.392 . S
C1372 C1375 1.511 . S
C1373 C1369 1.376 . S
C1373 C1372 1.392 . S
C1373 H1385 0.929 . S
C1374 C1370 1.531 . S
C1374 H1386 0.960 . S
C1374 H1387 0.962 . S
C1374 H1388 0.960 . S
C1375 C1372 1.511 . S
C1375 H1389 0.961 . S
C1375 H1390 0.961 . S
C1375 H1391 0.961 . S
C1376 C1377 1.370 . S
C1376 C1378 1.363 . S
C1376 H1392 0.931 . S
C1377 C1376 1.370 . S
C1377 C1381 1.408 . S
C1378 C1376 1.363 . S
C1378 C1379 1.370 . S
C1378 C1382 1.524 . S
C1379 C1371 1.503 . S
C1379 C1378 1.370 . S
C1379 C1380 1.403 . S
C1380 C1379 1.403 . S
C1380 C1381 1.404 . S
C1380 C1383 1.539 . S
C1381 C1377 1.408 . S
C1381 C1380 1.404 . S
C1381 H1393 0.930 . S
C1382 C1378 1.524 . S
C1382 H1394 0.956 . S
C1382 H1395 0.961 . S
C1382 H1396 0.961 . S
C1383 C1380 1.539 . S
C1383 H1397 0.958 . S
C1383 H1398 0.961 . S
C1383 H1399 0.960 . S
H1384 C1368 0.931 . S
H1385 C1373 0.929 . S
H1386 C1374 0.960 . S
H1387 C1374 0.962 . S
H1388 C1374 0.960 . S
H1389 C1375 0.961 . S
H1390 C1375 0.961 . S
H1391 C1375 0.961 . S
H1392 C1376 0.931 . S
H1393 C1381 0.930 . S
H1394 C1382 0.956 . S
H1395 C1382 0.961 . S
H1396 C1382 0.961 . S
H1397 C1383 0.958 . S
H1398 C1383 0.961 . S
H1399 C1383 0.960 . S
C1400 C1401 1.391 . S
C1400 C1402 1.394 . S
C1400 H1416 0.931 . S
C1401 C1400 1.391 . S
C1401 C1405 1.376 . S
C1402 C1400 1.394 . S
C1402 C1403 1.369 . S
C1402 C1406 1.531 . S
C1403 C1402 1.369 . S
C1403 C1404 1.410 . S
C1403 C1411 1.503 . S
C1404 C1403 1.410 . S
C1404 C1405 1.392 . S
C1404 C1407 1.511 . S
C1405 C1401 1.376 . S
C1405 C1404 1.392 . S
C1405 H1417 0.929 . S
C1406 C1402 1.531 . S
C1406 H1418 0.960 . S
C1406 H1419 0.962 . S
C1406 H1420 0.960 . S
C1407 C1404 1.511 . S
C1407 H1421 0.961 . S
C1407 H1422 0.961 . S
C1407 H1423 0.961 . S
C1408 C1409 1.370 . S
C1408 C1410 1.363 . S
C1408 H1424 0.931 . S
C1409 C1408 1.370 . S
C1409 C1413 1.408 . S
C1410 C1408 1.363 . S
C1410 C1411 1.370 . S
C1410 C1414 1.524 . S
C1411 C1403 1.503 . S
C1411 C1410 1.370 . S
C1411 C1412 1.403 . S
C1412 C1411 1.403 . S
C1412 C1413 1.404 . S
C1412 C1415 1.539 . S
C1413 C1409 1.408 . S
C1413 C1412 1.404 . S
C1413 H1425 0.930 . S
C1414 C1410 1.524 . S
C1414 H1426 0.956 . S
C1414 H1427 0.961 . S
C1414 H1428 0.961 . S
C1415 C1412 1.539 . S
C1415 H1429 0.958 . S
C1415 H1430 0.961 . S
C1415 H1431 0.960 . S
H1416 C1400 0.931 . S
H1417 C1405 0.929 . S
H1418 C1406 0.960 . S
H1419 C1406 0.962 . S
H1420 C1406 0.960 . S
H1421 C1407 0.961 . S
H1422 C1407 0.961 . S
H1423 C1407 0.961 . S
H1424 C1408 0.931 . S
H1425 C1413 0.930 . S
H1426 C1414 0.956 . S
H1427 C1414 0.961 . S
H1428 C1414 0.961 . S
H1429 C1415 0.958 . S
H1430 C1415 0.961 . S
H1431 C1415 0.960 . S
C1432 C1433 1.391 . S
C1432 C1434 1.394 . S
C1432 H1448 0.931 . S
C1433 C1432 1.391 . S
C1433 C1437 1.376 1_655 S
C1434 C1432 1.394 . S
C1434 C1435 1.369 . S
C1434 C1438 1.531 1_554 S
C1435 C1434 1.369 . S
C1435 C1436 1.410 1_655 S
C1435 C1443 1.496 1_654 S
C1436 C1435 1.410 1_455 S
C1436 C1437 1.392 . S
C1436 C1439 1.511 . S
C1437 C1433 1.376 1_455 S
C1437 C1436 1.392 . S
C1437 H1449 0.929 . S
C1438 C1434 1.531 1_556 S
C1438 H1450 0.960 . S
C1438 H1451 0.962 . S
C1438 H1452 0.960 . S
C1439 C1436 1.511 . S
C1439 H1453 0.961 . S
C1439 H1454 0.961 . S
C1439 H1455 0.961 . S
C1440 C1441 1.370 1_655 S
C1440 C1442 1.351 1_556 S
C1440 H1456 0.931 . S
C1441 C1440 1.370 1_455 S
C1441 C1445 1.408 . S
C1442 C1440 1.351 1_554 S
C1442 C1443 1.345 1_654 S
C1442 C1446 1.548 . S
C1443 C1435 1.496 1_456 S
C1443 C1442 1.345 1_456 S
C1443 C1444 1.425 . S
C1444 C1443 1.425 . S
C1444 C1445 1.404 . S
C1444 C1447 1.539 . S
C1445 C1441 1.408 . S
C1445 C1444 1.404 . S
C1445 H1457 0.930 . S
C1446 C1442 1.548 . S
C1446 H1458 0.956 . S
C1446 H1459 0.961 . S
C1446 H1460 0.961 . S
C1447 C1444 1.539 . S
C1447 H1461 0.958 . S
C1447 H1462 0.961 . S
C1447 H1463 0.960 . S
H1448 C1432 0.931 . S
H1449 C1437 0.929 . S
H1450 C1438 0.960 . S
H1451 C1438 0.962 . S
H1452 C1438 0.960 . S
H1453 C1439 0.961 . S
H1454 C1439 0.961 . S
H1455 C1439 0.961 . S
H1456 C1440 0.931 . S
H1457 C1445 0.930 . S
H1458 C1446 0.956 . S
H1459 C1446 0.961 . S
H1460 C1446 0.961 . S
H1461 C1447 0.958 . S
H1462 C1447 0.961 . S
H1463 C1447 0.960 . S
C1464 C1465 1.391 . S
C1464 C1466 1.394 . S
C1464 H1480 0.931 . S
C1465 C1464 1.391 . S
C1465 C1469 1.376 . S
C1466 C1464 1.394 . S
C1466 C1467 1.369 . S
C1466 C1470 1.531 . S
C1467 C1466 1.369 . S
C1467 C1468 1.410 . S
C1467 C1475 1.503 . S
C1468 C1467 1.410 . S
C1468 C1469 1.392 . S
C1468 C1471 1.511 . S
C1469 C1465 1.376 . S
C1469 C1468 1.392 . S
C1469 H1481 0.929 . S
C1470 C1466 1.531 . S
C1470 H1482 0.960 . S
C1470 H1483 0.962 . S
C1470 H1484 0.960 . S
C1471 C1468 1.511 . S
C1471 H1485 0.961 . S
C1471 H1486 0.961 . S
C1471 H1487 0.961 . S
C1472 C1473 1.370 . S
C1472 C1474 1.363 . S
C1472 H1488 0.931 . S
C1473 C1472 1.370 . S
C1473 C1477 1.408 . S
C1474 C1472 1.363 . S
C1474 C1475 1.370 . S
C1474 C1478 1.524 . S
C1475 C1467 1.503 . S
C1475 C1474 1.370 . S
C1475 C1476 1.403 . S
C1476 C1475 1.403 . S
C1476 C1477 1.404 . S
C1476 C1479 1.539 . S
C1477 C1473 1.408 . S
C1477 C1476 1.404 . S
C1477 H1489 0.930 . S
C1478 C1474 1.524 . S
C1478 H1490 0.956 . S
C1478 H1491 0.961 . S
C1478 H1492 0.961 . S
C1479 C1476 1.539 . S
C1479 H1493 0.958 . S
C1479 H1494 0.961 . S
C1479 H1495 0.960 . S
H1480 C1464 0.931 . S
H1481 C1469 0.929 . S
H1482 C1470 0.960 . S
H1483 C1470 0.962 . S
H1484 C1470 0.960 . S
H1485 C1471 0.961 . S
H1486 C1471 0.961 . S
H1487 C1471 0.961 . S
H1488 C1472 0.931 . S
H1489 C1477 0.930 . S
H1490 C1478 0.956 . S
H1491 C1478 0.961 . S
H1492 C1478 0.961 . S
H1493 C1479 0.958 . S
H1494 C1479 0.961 . S
H1495 C1479 0.960 . S
C1496 C1497 1.391 1_655 S
C1496 C1498 1.394 . S
C1496 H1512 0.931 . S
C1497 C1496 1.391 1_455 S
C1497 C1501 1.359 1_554 S
C1498 C1496 1.394 . S
C1498 C1499 1.369 1_654 S
C1498 C1502 1.531 . S
C1499 C1498 1.369 1_456 S
C1499 C1500 1.410 . S
C1499 C1507 1.503 . S
C1500 C1499 1.410 . S
C1500 C1501 1.405 . S
C1500 C1503 1.511 . S
C1501 C1497 1.359 1_556 S
C1501 C1500 1.405 . S
C1501 H1513 0.933 . S
C1502 C1498 1.531 . S
C1502 H1514 0.960 . S
C1502 H1515 0.962 . S
C1502 H1516 0.960 . S
C1503 C1500 1.511 . S
C1503 H1517 0.961 . S
C1503 H1518 0.961 . S
C1503 H1519 0.961 . S
C1504 C1505 1.370 1_655 S
C1504 C1506 1.363 . S
C1504 H1520 0.931 . S
C1505 C1504 1.370 1_455 S
C1505 C1509 1.408 . S
C1506 C1504 1.363 . S
C1506 C1507 1.370 1_655 S
C1506 C1510 1.524 . S
C1507 C1499 1.503 . S
C1507 C1506 1.370 1_455 S
C1507 C1508 1.403 . S
C1508 C1507 1.403 . S
C1508 C1509 1.404 . S
C1508 C1511 1.539 1_556 S
C1509 C1505 1.408 . S
C1509 C1508 1.404 . S
C1509 H1521 0.930 . S
C1510 C1506 1.524 . S
C1510 H1522 0.956 . S
C1510 H1523 0.961 . S
C1510 H1524 0.961 . S
C1511 C1508 1.539 1_554 S
C1511 H1525 0.958 . S
C1511 H1526 0.961 . S
C1511 H1527 0.960 . S
H1512 C1496 0.931 . S
H1513 C1501 0.933 . S
H1514 C1502 0.960 . S
H1515 C1502 0.962 . S
H1516 C1502 0.960 . S
H1517 C1503 0.961 . S
H1518 C1503 0.961 . S
H1519 C1503 0.961 . S
H1520 C1504 0.931 . S
H1521 C1509 0.930 . S
H1522 C1510 0.956 . S
H1523 C1510 0.961 . S
H1524 C1510 0.961 . S
H1525 C1511 0.958 . S
H1526 C1511 0.961 . S
H1527 C1511 0.960 . S
C1528 C1529 1.391 . S
C1528 C1530 1.394 . S
C1528 H1544 0.931 . S
C1529 C1528 1.391 . S
C1529 C1533 1.376 . S
C1530 C1528 1.394 . S
C1530 C1531 1.369 . S
C1530 C1534 1.531 . S
C1531 C1530 1.369 . S
C1531 C1532 1.410 . S
C1531 C1539 1.503 . S
C1532 C1531 1.410 . S
C1532 C1533 1.392 . S
C1532 C1535 1.511 . S
C1533 C1529 1.376 . S
C1533 C1532 1.392 . S
C1533 H1545 0.929 . S
C1534 C1530 1.531 . S
C1534 H1546 0.960 . S
C1534 H1547 0.962 . S
C1534 H1548 0.960 . S
C1535 C1532 1.511 . S
C1535 H1549 0.961 . S
C1535 H1550 0.961 . S
C1535 H1551 0.961 . S
C1536 C1537 1.370 . S
C1536 C1538 1.363 . S
C1536 H1552 0.931 . S
C1537 C1536 1.370 . S
C1537 C1541 1.408 . S
C1538 C1536 1.363 . S
C1538 C1539 1.370 . S
C1538 C1542 1.524 . S
C1539 C1531 1.503 . S
C1539 C1538 1.370 . S
C1539 C1540 1.403 . S
C1540 C1539 1.403 . S
C1540 C1541 1.404 . S
C1540 C1543 1.539 . S
C1541 C1537 1.408 . S
C1541 C1540 1.404 . S
C1541 H1553 0.930 . S
C1542 C1538 1.524 . S
C1542 H1554 0.956 . S
C1542 H1555 0.961 . S
C1542 H1556 0.961 . S
C1543 C1540 1.539 . S
C1543 H1557 0.958 . S
C1543 H1558 0.961 . S
C1543 H1559 0.960 . S
H1544 C1528 0.931 . S
H1545 C1533 0.929 . S
H1546 C1534 0.960 . S
H1547 C1534 0.962 . S
H1548 C1534 0.960 . S
H1549 C1535 0.961 . S
H1550 C1535 0.961 . S
H1551 C1535 0.961 . S
H1552 C1536 0.931 . S
H1553 C1541 0.930 . S
H1554 C1542 0.956 . S
H1555 C1542 0.961 . S
H1556 C1542 0.961 . S
H1557 C1543 0.958 . S
H1558 C1543 0.961 . S
H1559 C1543 0.960 . S
C1560 C1561 1.385 1_556 S
C1560 C1562 1.394 1_556 S
C1560 H1576 0.931 . S
C1561 C1560 1.385 1_554 S
C1561 C1565 1.409 . S
C1562 C1560 1.394 1_554 S
C1562 C1563 1.369 . S
C1562 C1566 1.534 . S
C1563 C1562 1.369 . S
C1563 C1564 1.410 . S
C1563 C1571 1.503 . S
C1564 C1563 1.410 . S
C1564 C1565 1.392 . S
C1564 C1567 1.511 . S
C1565 C1561 1.409 . S
C1565 C1564 1.392 . S
C1565 H1577 0.929 . S
C1566 C1562 1.534 . S
C1566 H1578 0.968 . S
C1566 H1579 0.972 . S
C1566 H1580 0.939 1_554 S
C1567 C1564 1.511 . S
C1567 H1581 0.961 . S
C1567 H1582 0.961 . S
C1567 H1583 0.961 . S
C1568 C1569 1.370 . S
C1568 C1570 1.363 . S
C1568 H1584 0.931 . S
C1569 C1568 1.370 . S
C1569 C1573 1.408 . S
C1570 C1568 1.363 . S
C1570 C1571 1.370 . S
C1570 C1574 1.524 . S
C1571 C1563 1.503 . S
C1571 C1570 1.370 . S
C1571 C1572 1.403 . S
C1572 C1571 1.403 . S
C1572 C1573 1.404 . S
C1572 C1575 1.539 . S
C1573 C1569 1.408 . S
C1573 C1572 1.404 . S
C1573 H1585 0.930 . S
C1574 C1570 1.524 . S
C1574 H1586 0.956 . S
C1574 H1587 0.961 . S
C1574 H1588 0.961 . S
C1575 C1572 1.539 . S
C1575 H1589 0.958 . S
C1575 H1590 0.961 . S
C1575 H1591 0.960 . S
H1576 C1560 0.931 . S
H1577 C1565 0.929 . S
H1578 C1566 0.968 . S
H1579 C1566 0.972 . S
H1580 C1566 0.939 1_556 S
H1581 C1567 0.961 . S
H1582 C1567 0.961 . S
H1583 C1567 0.961 . S
H1584 C1568 0.931 . S
H1585 C1573 0.930 . S
H1586 C1574 0.956 . S
H1587 C1574 0.961 . S
H1588 C1574 0.961 . S
H1589 C1575 0.958 . S
H1590 C1575 0.961 . S
H1591 C1575 0.960 . S
C1592 C1593 1.391 . S
C1592 C1594 1.394 . S
C1592 H1608 0.931 . S
C1593 C1592 1.391 . S
C1593 C1597 1.376 . S
C1594 C1592 1.394 . S
C1594 C1595 1.369 . S
C1594 C1598 1.531 . S
C1595 C1594 1.369 . S
C1595 C1596 1.410 . S
C1595 C1603 1.503 . S
C1596 C1595 1.410 . S
C1596 C1597 1.392 . S
C1596 C1599 1.511 . S
C1597 C1593 1.376 . S
C1597 C1596 1.392 . S
C1597 H1609 0.929 . S
C1598 C1594 1.531 . S
C1598 H1610 0.960 . S
C1598 H1611 0.962 . S
C1598 H1612 0.960 . S
C1599 C1596 1.511 . S
C1599 H1613 0.961 . S
C1599 H1614 0.961 . S
C1599 H1615 0.961 . S
C1600 C1601 1.370 . S
C1600 C1602 1.363 . S
C1600 H1616 0.931 . S
C1601 C1600 1.370 . S
C1601 C1605 1.408 . S
C1602 C1600 1.363 . S
C1602 C1603 1.370 . S
C1602 C1606 1.524 . S
C1603 C1595 1.503 . S
C1603 C1602 1.370 . S
C1603 C1604 1.403 . S
C1604 C1603 1.403 . S
C1604 C1605 1.404 . S
C1604 C1607 1.539 . S
C1605 C1601 1.408 . S
C1605 C1604 1.404 . S
C1605 H1617 0.930 . S
C1606 C1602 1.524 . S
C1606 H1618 0.956 . S
C1606 H1619 0.961 . S
C1606 H1620 0.961 . S
C1607 C1604 1.539 . S
C1607 H1621 0.958 . S
C1607 H1622 0.961 . S
C1607 H1623 0.960 . S
H1608 C1592 0.931 . S
H1609 C1597 0.929 . S
H1610 C1598 0.960 . S
H1611 C1598 0.962 . S
H1612 C1598 0.960 . S
H1613 C1599 0.961 . S
H1614 C1599 0.961 . S
H1615 C1599 0.961 . S
H1616 C1600 0.931 . S
H1617 C1605 0.930 . S
H1618 C1606 0.956 . S
H1619 C1606 0.961 . S
H1620 C1606 0.961 . S
H1621 C1607 0.958 . S
H1622 C1607 0.961 . S
H1623 C1607 0.960 . S
C1624 C1625 1.391 1_556 S
C1624 C1626 1.394 1_556 S
C1624 H1640 0.931 . S
C1625 C1624 1.391 1_554 S
C1625 C1629 1.376 . S
C1626 C1624 1.394 1_554 S
C1626 C1627 1.369 . S
C1626 C1630 1.531 . S
C1627 C1626 1.369 . S
C1627 C1628 1.410 . S
C1627 C1635 1.503 . S
C1628 C1627 1.410 . S
C1628 C1629 1.392 . S
C1628 C1631 1.511 . S
C1629 C1625 1.376 . S
C1629 C1628 1.392 . S
C1629 H1641 0.929 . S
C1630 C1626 1.531 . S
C1630 H1642 0.960 . S
C1630 H1643 0.962 . S
C1630 H1644 0.960 1_554 S
C1631 C1628 1.511 . S
C1631 H1645 0.961 . S
C1631 H1646 0.961 . S
C1631 H1647 0.961 . S
C1632 C1633 1.370 . S
C1632 C1634 1.363 . S
C1632 H1648 0.931 . S
C1633 C1632 1.370 . S
C1633 C1637 1.408 . S
C1634 C1632 1.363 . S
C1634 C1635 1.370 . S
C1634 C1638 1.524 . S
C1635 C1627 1.503 . S
C1635 C1634 1.370 . S
C1635 C1636 1.403 . S
C1636 C1635 1.403 . S
C1636 C1637 1.404 . S
C1636 C1639 1.539 . S
C1637 C1633 1.408 . S
C1637 C1636 1.404 . S
C1637 H1649 0.930 . S
C1638 C1634 1.524 . S
C1638 H1650 0.956 . S
C1638 H1651 0.961 . S
C1638 H1652 0.961 . S
C1639 C1636 1.539 . S
C1639 H1653 0.958 . S
C1639 H1654 0.961 . S
C1639 H1655 0.960 . S
H1640 C1624 0.931 . S
H1641 C1629 0.929 . S
H1642 C1630 0.960 . S
H1643 C1630 0.962 . S
H1644 C1630 0.960 1_556 S
H1645 C1631 0.961 . S
H1646 C1631 0.961 . S
H1647 C1631 0.961 . S
H1648 C1632 0.931 . S
H1649 C1637 0.930 . S
H1650 C1638 0.956 . S
H1651 C1638 0.961 . S
H1652 C1638 0.961 . S
H1653 C1639 0.958 . S
H1654 C1639 0.961 . S
H1655 C1639 0.960 . S
C1656 C1657 1.391 . S
C1656 C1658 1.394 . S
C1656 H1672 0.931 . S
C1657 C1656 1.391 . S
C1657 C1661 1.376 . S
C1658 C1656 1.394 . S
C1658 C1659 1.369 . S
C1658 C1662 1.531 . S
C1659 C1658 1.369 . S
C1659 C1660 1.410 . S
C1659 C1667 1.503 . S
C1660 C1659 1.410 . S
C1660 C1661 1.392 . S
C1660 C1663 1.511 . S
C1661 C1657 1.376 . S
C1661 C1660 1.392 . S
C1661 H1673 0.929 . S
C1662 C1658 1.531 . S
C1662 H1674 0.960 . S
C1662 H1675 0.962 . S
C1662 H1676 0.960 . S
C1663 C1660 1.511 . S
C1663 H1677 0.961 . S
C1663 H1678 0.961 . S
C1663 H1679 0.961 . S
C1664 C1665 1.370 . S
C1664 C1666 1.363 . S
C1664 H1680 0.931 . S
C1665 C1664 1.370 . S
C1665 C1669 1.408 . S
C1666 C1664 1.363 . S
C1666 C1667 1.370 . S
C1666 C1670 1.524 . S
C1667 C1659 1.503 . S
C1667 C1666 1.370 . S
C1667 C1668 1.403 . S
C1668 C1667 1.403 . S
C1668 C1669 1.404 . S
C1668 C1671 1.539 . S
C1669 C1665 1.408 . S
C1669 C1668 1.404 . S
C1669 H1681 0.930 . S
C1670 C1666 1.524 . S
C1670 H1682 0.956 . S
C1670 H1683 0.961 . S
C1670 H1684 0.961 . S
C1671 C1668 1.539 . S
C1671 H1685 0.958 . S
C1671 H1686 0.961 . S
C1671 H1687 0.960 . S
H1672 C1656 0.931 . S
H1673 C1661 0.929 . S
H1674 C1662 0.960 . S
H1675 C1662 0.962 . S
H1676 C1662 0.960 . S
H1677 C1663 0.961 . S
H1678 C1663 0.961 . S
H1679 C1663 0.961 . S
H1680 C1664 0.931 . S
H1681 C1669 0.930 . S
H1682 C1670 0.956 . S
H1683 C1670 0.961 . S
H1684 C1670 0.961 . S
H1685 C1671 0.958 . S
H1686 C1671 0.961 . S
H1687 C1671 0.960 . S
C1688 C1689 1.391 . S
C1688 C1690 1.394 . S
C1688 H1704 0.931 . S
C1689 C1688 1.391 . S
C1689 C1693 1.376 . S
C1690 C1688 1.394 . S
C1690 C1691 1.369 . S
C1690 C1694 1.531 . S
C1691 C1690 1.369 . S
C1691 C1692 1.410 . S
C1691 C1699 1.503 . S
C1692 C1691 1.410 . S
C1692 C1693 1.392 . S
C1692 C1695 1.511 . S
C1693 C1689 1.376 . S
C1693 C1692 1.392 . S
C1693 H1705 0.929 . S
C1694 C1690 1.531 . S
C1694 H1706 0.960 . S
C1694 H1707 0.962 . S
C1694 H1708 0.960 . S
C1695 C1692 1.511 . S
C1695 H1709 0.961 . S
C1695 H1710 0.961 . S
C1695 H1711 0.961 . S
C1696 C1697 1.370 . S
C1696 C1698 1.363 . S
C1696 H1712 0.931 . S
C1697 C1696 1.370 . S
C1697 C1701 1.408 . S
C1698 C1696 1.363 . S
C1698 C1699 1.370 . S
C1698 C1702 1.524 . S
C1699 C1691 1.503 . S
C1699 C1698 1.370 . S
C1699 C1700 1.403 . S
C1700 C1699 1.403 . S
C1700 C1701 1.404 . S
C1700 C1703 1.539 . S
C1701 C1697 1.408 . S
C1701 C1700 1.404 . S
C1701 H1713 0.930 . S
C1702 C1698 1.524 . S
C1702 H1714 0.956 . S
C1702 H1715 0.961 . S
C1702 H1716 0.961 . S
C1703 C1700 1.539 . S
C1703 H1717 0.958 . S
C1703 H1718 0.961 . S
C1703 H1719 0.960 . S
H1704 C1688 0.931 . S
H1705 C1693 0.929 . S
H1706 C1694 0.960 . S
H1707 C1694 0.962 . S
H1708 C1694 0.960 . S
H1709 C1695 0.961 . S
H1710 C1695 0.961 . S
H1711 C1695 0.961 . S
H1712 C1696 0.931 . S
H1713 C1701 0.930 . S
H1714 C1702 0.956 . S
H1715 C1702 0.961 . S
H1716 C1702 0.961 . S
H1717 C1703 0.958 . S
H1718 C1703 0.961 . S
H1719 C1703 0.960 . S
C1720 C1721 1.391 . S
C1720 C1722 1.394 . S
C1720 H1736 0.931 . S
C1721 C1720 1.391 . S
C1721 C1725 1.376 . S
C1722 C1720 1.394 . S
C1722 C1723 1.369 . S
C1722 C1726 1.531 . S
C1723 C1722 1.369 . S
C1723 C1724 1.410 . S
C1723 C1731 1.503 . S
C1724 C1723 1.410 . S
C1724 C1725 1.392 . S
C1724 C1727 1.511 . S
C1725 C1721 1.376 . S
C1725 C1724 1.392 . S
C1725 H1737 0.929 . S
C1726 C1722 1.531 . S
C1726 H1738 0.960 . S
C1726 H1739 0.962 . S
C1726 H1740 0.960 . S
C1727 C1724 1.511 . S
C1727 H1741 0.961 . S
C1727 H1742 0.961 . S
C1727 H1743 0.961 . S
C1728 C1729 1.370 . S
C1728 C1730 1.363 . S
C1728 H1744 0.931 . S
C1729 C1728 1.370 . S
C1729 C1733 1.408 . S
C1730 C1728 1.363 . S
C1730 C1731 1.370 . S
C1730 C1734 1.524 . S
C1731 C1723 1.503 . S
C1731 C1730 1.370 . S
C1731 C1732 1.403 . S
C1732 C1731 1.403 . S
C1732 C1733 1.404 . S
C1732 C1735 1.539 . S
C1733 C1729 1.408 . S
C1733 C1732 1.404 . S
C1733 H1745 0.930 . S
C1734 C1730 1.524 . S
C1734 H1746 0.956 . S
C1734 H1747 0.961 . S
C1734 H1748 0.961 . S
C1735 C1732 1.539 . S
C1735 H1749 0.958 . S
C1735 H1750 0.961 . S
C1735 H1751 0.960 . S
H1736 C1720 0.931 . S
H1737 C1725 0.929 . S
H1738 C1726 0.960 . S
H1739 C1726 0.962 . S
H1740 C1726 0.960 . S
H1741 C1727 0.961 . S
H1742 C1727 0.961 . S
H1743 C1727 0.961 . S
H1744 C1728 0.931 . S
H1745 C1733 0.930 . S
H1746 C1734 0.956 . S
H1747 C1734 0.961 . S
H1748 C1734 0.961 . S
H1749 C1735 0.958 . S
H1750 C1735 0.961 . S
H1751 C1735 0.960 . S
C1752 C1753 1.391 . S
C1752 C1754 1.394 . S
C1752 H1768 0.931 . S
C1753 C1752 1.391 . S
C1753 C1757 1.376 . S
C1754 C1752 1.394 . S
C1754 C1755 1.369 . S
C1754 C1758 1.531 . S
C1755 C1754 1.369 . S
C1755 C1756 1.410 . S
C1755 C1763 1.503 . S
C1756 C1755 1.410 . S
C1756 C1757 1.392 . S
C1756 C1759 1.511 . S
C1757 C1753 1.376 . S
C1757 C1756 1.392 . S
C1757 H1769 0.929 . S
C1758 C1754 1.531 . S
C1758 H1770 0.960 . S
C1758 H1771 0.962 . S
C1758 H1772 0.960 . S
C1759 C1756 1.511 . S
C1759 H1773 0.961 . S
C1759 H1774 0.961 . S
C1759 H1775 0.961 . S
C1760 C1761 1.370 . S
C1760 C1762 1.363 . S
C1760 H1776 0.931 . S
C1761 C1760 1.370 . S
C1761 C1765 1.408 . S
C1762 C1760 1.363 . S
C1762 C1763 1.370 . S
C1762 C1766 1.524 . S
C1763 C1755 1.503 . S
C1763 C1762 1.370 . S
C1763 C1764 1.403 . S
C1764 C1763 1.403 . S
C1764 C1765 1.404 . S
C1764 C1767 1.539 . S
C1765 C1761 1.408 . S
C1765 C1764 1.404 . S
C1765 H1777 0.930 . S
C1766 C1762 1.524 . S
C1766 H1778 0.956 . S
C1766 H1779 0.961 . S
C1766 H1780 0.961 . S
C1767 C1764 1.539 . S
C1767 H1781 0.958 . S
C1767 H1782 0.961 . S
C1767 H1783 0.960 . S
H1768 C1752 0.931 . S
H1769 C1757 0.929 . S
H1770 C1758 0.960 . S
H1771 C1758 0.962 . S
H1772 C1758 0.960 . S
H1773 C1759 0.961 . S
H1774 C1759 0.961 . S
H1775 C1759 0.961 . S
H1776 C1760 0.931 . S
H1777 C1765 0.930 . S
H1778 C1766 0.956 . S
H1779 C1766 0.961 . S
H1780 C1766 0.961 . S
H1781 C1767 0.958 . S
H1782 C1767 0.961 . S
H1783 C1767 0.960 . S
C1784 C1785 1.391 . S
C1784 C1786 1.392 1_556 S
C1784 H1800 0.923 1_556 S
C1785 C1784 1.391 . S
C1785 C1789 1.376 . S
C1786 C1784 1.392 1_554 S
C1786 C1787 1.364 1_554 S
C1786 C1790 1.538 . S
C1787 C1786 1.364 1_556 S
C1787 C1788 1.410 . S
C1787 C1795 1.503 . S
C1788 C1787 1.410 . S
C1788 C1789 1.392 . S
C1788 C1791 1.511 . S
C1789 C1785 1.376 . S
C1789 C1788 1.392 . S
C1789 H1801 0.929 . S
C1790 C1786 1.538 . S
C1790 H1802 0.960 . S
C1790 H1803 0.965 1_554 S
C1790 H1804 0.960 . S
C1791 C1788 1.511 . S
C1791 H1805 0.961 . S
C1791 H1806 0.961 . S
C1791 H1807 0.961 . S
C1792 C1793 1.370 . S
C1792 C1794 1.363 . S
C1792 H1808 0.931 . S
C1793 C1792 1.370 . S
C1793 C1797 1.408 1_556 S
C1794 C1792 1.363 . S
C1794 C1795 1.370 . S
C1794 C1798 1.524 . S
C1795 C1787 1.503 . S
C1795 C1794 1.370 . S
C1795 C1796 1.403 1_556 S
C1796 C1795 1.403 1_554 S
C1796 C1797 1.404 . S
C1796 C1799 1.539 . S
C1797 C1793 1.408 1_554 S
C1797 C1796 1.404 . S
C1797 H1809 0.930 . S
C1798 C1794 1.524 . S
C1798 H1810 0.956 . S
C1798 H1811 0.961 . S
C1798 H1812 0.961 . S
C1799 C1796 1.539 . S
C1799 H1813 0.958 . S
C1799 H1814 0.961 . S
C1799 H1815 0.960 . S
H1800 C1784 0.923 1_554 S
H1801 C1789 0.929 . S
H1802 C1790 0.960 . S
H1803 C1790 0.965 1_556 S
H1804 C1790 0.960 . S
H1805 C1791 0.961 . S
H1806 C1791 0.961 . S
H1807 C1791 0.961 . S
H1808 C1792 0.931 . S
H1809 C1797 0.930 . S
H1810 C1798 0.956 . S
H1811 C1798 0.961 . S
H1812 C1798 0.961 . S
H1813 C1799 0.958 . S
H1814 C1799 0.961 . S
H1815 C1799 0.960 . S
C1816 C1817 1.391 . S
C1816 C1818 1.394 . S
C1816 H1832 0.931 . S
C1817 C1816 1.391 . S
C1817 C1821 1.376 . S
C1818 C1816 1.394 . S
C1818 C1819 1.369 . S
C1818 C1822 1.531 . S
C1819 C1818 1.369 . S
C1819 C1820 1.410 . S
C1819 C1827 1.503 . S
C1820 C1819 1.410 . S
C1820 C1821 1.392 . S
C1820 C1823 1.511 . S
C1821 C1817 1.376 . S
C1821 C1820 1.392 . S
C1821 H1833 0.929 . S
C1822 C1818 1.531 . S
C1822 H1834 0.960 . S
C1822 H1835 0.962 . S
C1822 H1836 0.960 . S
C1823 C1820 1.511 . S
C1823 H1837 0.961 . S
C1823 H1838 0.961 . S
C1823 H1839 0.961 . S
C1824 C1825 1.370 . S
C1824 C1826 1.363 . S
C1824 H1840 0.931 . S
C1825 C1824 1.370 . S
C1825 C1829 1.408 . S
C1826 C1824 1.363 . S
C1826 C1827 1.370 . S
C1826 C1830 1.524 . S
C1827 C1819 1.503 . S
C1827 C1826 1.370 . S
C1827 C1828 1.403 . S
C1828 C1827 1.403 . S
C1828 C1829 1.404 . S
C1828 C1831 1.539 . S
C1829 C1825 1.408 . S
C1829 C1828 1.404 . S
C1829 H1841 0.930 . S
C1830 C1826 1.524 . S
C1830 H1842 0.956 . S
C1830 H1843 0.961 . S
C1830 H1844 0.961 . S
C1831 C1828 1.539 . S
C1831 H1845 0.958 . S
C1831 H1846 0.961 . S
C1831 H1847 0.960 . S
H1832 C1816 0.931 . S
H1833 C1821 0.929 . S
H1834 C1822 0.960 . S
H1835 C1822 0.962 . S
H1836 C1822 0.960 . S
H1837 C1823 0.961 . S
H1838 C1823 0.961 . S
H1839 C1823 0.961 . S
H1840 C1824 0.931 . S
H1841 C1829 0.930 . S
H1842 C1830 0.956 . S
H1843 C1830 0.961 . S
H1844 C1830 0.961 . S
H1845 C1831 0.958 . S
H1846 C1831 0.961 . S
H1847 C1831 0.960 . S
C1848 C1849 1.391 . S
C1848 C1850 1.394 . S
C1848 H1864 0.931 . S
C1849 C1848 1.391 . S
C1849 C1853 1.376 . S
C1850 C1848 1.394 . S
C1850 C1851 1.369 . S
C1850 C1854 1.531 . S
C1851 C1850 1.369 . S
C1851 C1852 1.410 . S
C1851 C1859 1.503 . S
C1852 C1851 1.410 . S
C1852 C1853 1.392 . S
C1852 C1855 1.511 . S
C1853 C1849 1.376 . S
C1853 C1852 1.392 . S
C1853 H1865 0.929 . S
C1854 C1850 1.531 . S
C1854 H1866 0.960 . S
C1854 H1867 0.962 . S
C1854 H1868 0.960 . S
C1855 C1852 1.511 . S
C1855 H1869 0.961 . S
C1855 H1870 0.961 . S
C1855 H1871 0.961 . S
C1856 C1857 1.370 . S
C1856 C1858 1.363 . S
C1856 H1872 0.931 1_554 S
C1857 C1856 1.370 . S
C1857 C1861 1.408 . S
C1858 C1856 1.363 . S
C1858 C1859 1.370 . S
C1858 C1862 1.524 1_554 S
C1859 C1851 1.503 . S
C1859 C1858 1.370 . S
C1859 C1860 1.403 . S
C1860 C1859 1.403 . S
C1860 C1861 1.404 . S
C1860 C1863 1.539 . S
C1861 C1857 1.408 . S
C1861 C1860 1.404 . S
C1861 H1873 0.930 . S
C1862 C1858 1.524 1_556 S
C1862 H1874 0.956 . S
C1862 H1875 0.961 1_556 S
C1862 H1876 0.961 . S
C1863 C1860 1.539 . S
C1863 H1877 0.958 . S
C1863 H1878 0.961 . S
C1863 H1879 0.960 . S
H1864 C1848 0.931 . S
H1865 C1853 0.929 . S
H1866 C1854 0.960 . S
H1867 C1854 0.962 . S
H1868 C1854 0.960 . S
H1869 C1855 0.961 . S
H1870 C1855 0.961 . S
H1871 C1855 0.961 . S
H1872 C1856 0.931 1_556 S
H1873 C1861 0.930 . S
H1874 C1862 0.956 . S
H1875 C1862 0.961 1_554 S
H1876 C1862 0.961 . S
H1877 C1863 0.958 . S
H1878 C1863 0.961 . S
H1879 C1863 0.960 . S
C1880 C1881 1.391 . S
C1880 C1882 1.394 . S
C1880 H1896 0.931 . S
C1881 C1880 1.391 . S
C1881 C1885 1.376 . S
C1882 C1880 1.394 . S
C1882 C1883 1.369 . S
C1882 C1886 1.531 1_554 S
C1883 C1882 1.369 . S
C1883 C1884 1.410 . S
C1883 C1891 1.503 . S
C1884 C1883 1.410 . S
C1884 C1885 1.392 . S
C1884 C1887 1.516 . S
C1885 C1881 1.376 . S
C1885 C1884 1.392 . S
C1885 H1897 0.929 1_565 S
C1886 C1882 1.531 1_556 S
C1886 H1898 0.960 . S
C1886 H1899 0.955 1_556 S
C1886 H1900 0.960 . S
C1887 C1884 1.516 . S
C1887 H1901 0.955 1_565 S
C1887 H1902 0.973 . S
C1887 H1903 0.951 1_565 S
C1888 C1889 1.370 . S
C1888 C1890 1.363 . S
C1888 H1904 0.931 . S
C1889 C1888 1.370 . S
C1889 C1893 1.408 . S
C1890 C1888 1.363 . S
C1890 C1891 1.370 . S
C1890 C1894 1.524 . S
C1891 C1883 1.503 . S
C1891 C1890 1.370 . S
C1891 C1892 1.403 . S
C1892 C1891 1.403 . S
C1892 C1893 1.404 . S
C1892 C1895 1.539 1_554 S
C1893 C1889 1.408 . S
C1893 C1892 1.404 . S
C1893 H1905 0.930 1_554 S
C1894 C1890 1.524 . S
C1894 H1906 0.956 . S
C1894 H1907 0.961 . S
C1894 H1908 0.961 . S
C1895 C1892 1.539 1_556 S
C1895 H1909 0.958 . S
C1895 H1910 0.961 . S
C1895 H1911 0.960 . S
H1896 C1880 0.931 . S
H1897 C1885 0.929 1_545 S
H1898 C1886 0.960 . S
H1899 C1886 0.955 1_554 S
H1900 C1886 0.960 . S
H1901 C1887 0.955 1_545 S
H1902 C1887 0.973 . S
H1903 C1887 0.951 1_545 S
H1904 C1888 0.931 . S
H1905 C1893 0.930 1_556 S
H1906 C1894 0.956 . S
H1907 C1894 0.961 . S
H1908 C1894 0.961 . S
H1909 C1895 0.958 . S
H1910 C1895 0.961 . S
H1911 C1895 0.960 . S
C385 C219 1.255 . S
C377 N66 1.224 . S
C417 C227 1.401 . S
C409 N79 1.554 . S
C441 N92 1.668 . S
C449 C247 1.681 . S
C481 C261 1.331 . S
C473 N54 1.362 . S
C513 C276 1.529 . S
C505 N131 1.526 . S
C545 C290 1.228 . S
C537 N158 1.223 . S
C569 N145 1.587 . S
C577 C304 1.589 . S
C609 C310 1.735 . S
C601 N118 1.715 . S
C633 N148 1.953 . S
C641 C324 1.904 . S
C673 C345 1.598 . S
C665 N122 1.603 . S
C697 N132 1.234 . S
C705 C325 1.059 . S
C737 C346 1.525 . S
C729 N161 1.508 . S
C761 N96 1.816 . S
C769 C353 1.562 . S
C793 N53 1.693 . S
C801 C359 1.707 . S
C825 N67 1.073 . S
C833 C352 1.027 . S
C857 N83 1.340 . S
C865 C360 1.358 . S
C889 N44 1.448 . S
C897 C254 1.422 . S
C921 N187 1.488 . S
C929 C255 1.261 . S
C961 C212 1.196 . S
C953 N197 1.223 . S
C993 C233 1.245 . S
C985 N106 1.278 . S
C1017 N57 1.781 1_545 S
C1025 C268 1.749 . S
C1057 C318 1.444 . S
C1049 N144 1.437 . S
C1089 C269 1.111 . S
C1081 N119 1.357 . S
C1121 C297 1.510 . S
C1113 N157 1.797 . S
C1153 C303 1.246 . S
C1145 N183 1.267 . S
C1177 N196 1.561 . S
C1185 C311 1.369 . S
C1209 N105 1.669 . S
C1217 C275 1.682 . S
C1249 C289 1.332 . S
C1241 N171 1.355 . S
C1273 N40 1.496 . S
C1281 C248 1.526 . S
C1313 C262 1.228 . S
C1305 N2 1.222 1_565 S
C1345 C220 1.590 . S
C1337 N15 1.590 . S
C1377 C226 1.718 . S
C1369 N27 1.743 1_455 S
C1401 N18 1.955 . S
C1409 C338 1.909 . S
C1433 N31 1.586 . S
C1441 C331 1.606 . S
C1465 N41 1.237 . S
C1473 C339 1.048 . S
C1497 N5 1.476 . S
C1505 C332 1.522 . S
C1537 C367 1.545 . S
C1529 N109 1.801 . S
C1569 C373 1.707 . S
C1561 N170 1.678 1_554 S
C1601 C366 1.043 . S
C1593 N184 1.041 . S
C1625 N200 1.338 1_554 S
C1633 C374 1.355 . S
C1657 N135 1.442 . S
C1665 C282 1.405 . S
C1697 C283 1.267 . S
C1689 N70 1.484 . S
C1729 C296 1.170 . S
C1721 N80 1.227 . S
C1761 C317 1.263 . S
C1753 N93 1.273 . S
C1785 N174 1.786 . S
C1793 C240 1.742 1_556 S
C1825 C234 1.448 . S
C1817 N14 1.432 . S
C1849 N28 1.344 . S
C1857 C241 1.119 . S
C1889 C213 1.510 . S
C1881 N1 1.798 . S
