# Generated by pormake.
# Topology anh, (6,3)-cn, num edge types: 1
# Building blocks:
#     Node 0, Type 0, BuildingBlock: BETDEL_clean_sbu_0, # of connection points: 6
#     Node 1, Type 0, BuildingBlock: BETDEL_clean_sbu_0, # of connection points: 6
#     Node 2, Type 0, BuildingBlock: BETDEL_clean_sbu_0, # of connection points: 6
#     Node 3, Type 1, BuildingBlock: BETDAH_clean_linker_0, # of connection points: 3
#     Node 4, Type 1, BuildingBlock: BETDAH_clean_linker_0, # of connection points: 3
#     Node 5, Type 1, BuildingBlock: BETDAH_clean_linker_0, # of connection points: 3
#     Node 6, Type 1, BuildingBlock: BETDAH_clean_linker_0, # of connection points: 3
#     Node 7, Type 1, BuildingBlock: BETDAH_clean_linker_0, # of connection points: 3
#     Node 8, Type 1, BuildingBlock: BETDAH_clean_linker_0, # of connection points: 3
#     Edge 9, Type (0, 1), BuildingBlock: CIFDUS_clean_linker_0, # of connection points: 2
#     Edge 10, Type (0, 1), BuildingBlock: CIFDUS_clean_linker_0, # of connection points: 2
#     Edge 11, Type (0, 1), BuildingBlock: CIFDUS_clean_linker_0, # of connection points: 2
#     Edge 12, Type (0, 1), BuildingBlock: CIFDUS_clean_linker_0, # of connection points: 2
#     Edge 13, Type (0, 1), BuildingBlock: CIFDUS_clean_linker_0, # of connection points: 2
#     Edge 14, Type (0, 1), BuildingBlock: CIFDUS_clean_linker_0, # of connection points: 2
#     Edge 15, Type (0, 1), BuildingBlock: CIFDUS_clean_linker_0, # of connection points: 2
#     Edge 16, Type (0, 1), BuildingBlock: CIFDUS_clean_linker_0, # of connection points: 2
#     Edge 17, Type (0, 1), BuildingBlock: CIFDUS_clean_linker_0, # of connection points: 2
#     Edge 18, Type (0, 1), BuildingBlock: CIFDUS_clean_linker_0, # of connection points: 2
#     Edge 19, Type (0, 1), BuildingBlock: CIFDUS_clean_linker_0, # of connection points: 2
#     Edge 20, Type (0, 1), BuildingBlock: CIFDUS_clean_linker_0, # of connection points: 2
#     Edge 21, Type (0, 1), BuildingBlock: CIFDUS_clean_linker_0, # of connection points: 2
#     Edge 22, Type (0, 1), BuildingBlock: CIFDUS_clean_linker_0, # of connection points: 2
#     Edge 23, Type (0, 1), BuildingBlock: CIFDUS_clean_linker_0, # of connection points: 2
#     Edge 24, Type (0, 1), BuildingBlock: CIFDUS_clean_linker_0, # of connection points: 2
#     Edge 25, Type (0, 1), BuildingBlock: CIFDUS_clean_linker_0, # of connection points: 2
#     Edge 26, Type (0, 1), BuildingBlock: CIFDUS_clean_linker_0, # of connection points: 2
# Relax obj value: 0.101
# Max RMSD: 0.133
# Mean RMSD: 0.100
data_MOF--net-anh--node1-BETDEL_clean_sbu_0--node2-BETDAH_clean_linker_0--edge1-CIFDUS_clean_linker_0
_symmetry_space_group_name_H-M    P1
_symmetry_Int_Tables_number       1
_symmetry_cell_setting            triclinic
loop_
_symmetry_equiv_pos_as_xyz
'x, y, z'
_cell_length_a     26.203237
_cell_length_b     26.257019
_cell_length_c     41.010953
_cell_angle_alpha  88.113684
_cell_angle_beta   90.712351
_cell_angle_gamma 119.79451
loop_
_atom_site_label
_atom_site_type_symbol
_atom_site_fract_x
_atom_site_fract_y
_atom_site_fract_z
_atom_type_partial_charge
Dy0 Dy 0.0829 0.50911 0.17773 0.0
C1 C 0.928 0.60574 0.18819 0.0
C2 C 0.15785 0.46663 0.17165 0.0
Dy3 Dy 1.00972 0.57646 0.17111 0.0
O4 O 0.14528 0.48216 0.19877 0.0
O5 O 0.12974 0.47472 0.14748 0.0
O6 O 0.04443 0.478 0.22825 0.0
O7 O 0.05783 0.55841 0.2086 0.0
C8 C 0.03652 0.52254 0.23235 0.0
C9 C 0.03354 0.55133 0.11205 0.0
O10 O 0.09896 0.65238 0.18124 0.0
O11 O 0.15462 0.60569 0.17482 0.0
O12 O 0.96947 0.63473 0.16658 0.0
O13 O 0.9337 0.56307 0.2012 0.0
O14 O 1.00612 0.58058 0.11584 0.0
O15 O 0.04647 0.53934 0.13971 0.0
O16 O 0.99327 0.43231 0.16806 0.0
O17 O 0.94046 0.48084 0.17621 0.0
C18 C 0.1504 0.65381 0.17915 0.0
C19 C 0.94283 0.43209 0.17189 0.0
Dy20 Dy 0.4857 1.00319 0.50512 0.0
C21 C 0.74235 0.1549 0.50554 0.0
C22 C 0.36941 0.92665 0.49787 0.0
Dy23 Dy 0.62477 0.08069 0.4983 0.0
O24 O 0.40266 0.92372 0.52066 0.0
O25 O 0.39982 0.97187 0.47827 0.0
O26 O 0.48045 1.00903 0.56004 0.0
O27 O 0.56002 0.0476 0.53603 0.0
C28 C 0.53702 0.03913 0.5637 0.0
C29 C 0.56249 0.05887 0.44258 0.0
O30 O 0.61584 0.99115 0.50792 0.0
O31 O 0.51397 0.93563 0.50088 0.0
O32 O 0.71808 0.12397 0.4799 0.0
O33 O 0.70234 0.14181 0.52766 0.0
O34 O 0.61168 0.10677 0.44764 0.0
O35 O 0.55119 0.02388 0.46676 0.0
O36 O 0.49668 0.09351 0.49762 0.0
O37 O 0.59773 0.14814 0.50728 0.0
C38 C 0.56628 0.93974 0.50549 0.0
C39 C 0.54551 0.14415 0.50294 0.0
Dy40 Dy 0.62353 0.61951 0.83105 0.0
C41 C 0.53086 0.36612 0.86363 0.0
C42 C 0.67771 0.7321 0.8077 0.0
Dy43 Dy 0.56066 0.47548 0.84003 0.0
O44 O 0.69989 0.71076 0.8289 0.0
O45 O 0.62543 0.6916 0.79895 0.0
O46 O 0.62425 0.63531 0.88563 0.0
O47 O 0.59175 0.5525 0.86808 0.0
C48 C 0.59982 0.57973 0.89373 0.0
C49 C 0.58388 0.51385 0.7769 0.0
O50 O 0.48515 0.49168 0.84847 0.0
O51 O 0.52632 0.59004 0.82926 0.0
O52 O 0.50017 0.37781 0.84251 0.0
O53 O 0.57515 0.41493 0.87327 0.0
O54 O 0.56034 0.45888 0.78593 0.0
O55 O 0.59303 0.54286 0.80206 0.0
O56 O 0.69941 0.60214 0.82537 0.0
O57 O 0.65661 0.50544 0.846 0.0
C58 C 0.48081 0.53903 0.83993 0.0
C59 C 0.70313 0.55563 0.83621 0.0
H60 H 0.43529 0.93407 0.25743 0.0
H61 H 0.60839 0.07975 0.2363 0.0
H62 H 0.51155 0.95681 0.16208 0.0
C63 C 0.47151 0.95868 0.24058 0.0
C64 C 0.46718 0.93873 0.20868 0.0
C65 C 0.52229 1.00937 0.25103 0.0
C66 C 0.56869 0.04129 0.22857 0.0
C67 C 0.56481 0.02291 0.19638 0.0
C68 C 0.51432 0.97123 0.18682 0.0
N69 N 0.61076 0.05485 0.17306 0.0
C70 C 0.66269 0.10773 0.17831 0.0
H71 H 0.5906 0.43166 0.58521 0.0
H72 H 0.62037 0.60855 0.57542 0.0
H73 H 0.59716 0.50754 0.49017 0.0
C74 C 0.5955 0.46853 0.57012 0.0
C75 C 0.59244 0.46324 0.53623 0.0
C76 C 0.60736 0.52122 0.58466 0.0
C77 C 0.61148 0.56788 0.56462 0.0
C78 C 0.60682 0.56276 0.53042 0.0
C79 C 0.5988 0.51087 0.51648 0.0
N80 N 0.61199 0.60915 0.50907 0.0
C81 C 0.61331 0.66072 0.51806 0.0
H82 H 0.97398 0.53081 0.92975 0.0
H83 H 0.14647 0.55972 0.90732 0.0
H84 H 1.02851 0.54733 0.82968 0.0
C85 C 1.00667 0.53655 0.91183 0.0
C86 C 0.99443 0.53813 0.87852 0.0
C87 C 0.06152 0.54504 0.92235 0.0
C88 C 0.10427 0.55333 0.89914 0.0
C89 C 0.09226 0.55318 0.86554 0.0
C90 C 0.03766 0.54675 0.85549 0.0
N91 N 0.13364 0.55937 0.84122 0.0
C92 C 0.18826 0.56334 0.84693 0.0
H93 H 0.07412 0.67179 0.39879 0.0
H94 H 0.93012 0.51202 0.43867 0.0
H95 H 1.01828 0.66322 0.49802 0.0
C96 C 0.04363 0.64832 0.41864 0.0
C97 C 0.05185 0.67508 0.44878 0.0
C98 C 0.99917 0.58984 0.41454 0.0
C99 C 0.96366 0.55748 0.44135 0.0
C100 C 0.971 0.5843 0.47149 0.0
C101 C 1.01325 0.6433 0.4746 0.0
N102 N 0.9385 0.55262 0.49961 0.0
C103 C 0.91841 0.4932 0.50489 0.0
H104 H 0.59423 0.17029 0.76018 0.0
H105 H 0.697 0.08818 0.74089 0.0
H106 H 0.71286 0.16732 0.83298 0.0
C107 C 0.62554 0.15701 0.76824 0.0
C108 C 0.65026 0.17148 0.79957 0.0
C109 C 0.64211 0.12707 0.7468 0.0
C110 C 0.68438 0.11203 0.75695 0.0
C111 C 0.7102 0.12714 0.7879 0.0
C112 C 0.6935 0.15717 0.8089 0.0
N113 N 0.75155 0.1106 0.79876 0.0
C114 C 0.74583 0.0573 0.79039 0.0
H115 H 0.65172 0.54544 0.09448 0.0
H116 H 0.46779 0.4294 0.07812 0.0
H117 H 0.54376 0.42045 0.16971 0.0
C118 C 0.60923 0.5119 0.10371 0.0
C119 C 0.60434 0.48702 0.13526 0.0
C120 C 0.56035 0.49171 0.08301 0.0
C121 C 0.50585 0.44561 0.09391 0.0
C122 C 0.50053 0.41961 0.12503 0.0
C123 C 0.5494 0.44036 0.14552 0.0
N124 N 0.44617 0.37239 0.13616 0.0
C125 C 0.39503 0.37538 0.13322 0.0
H126 H 0.20054 0.44622 0.11648 0.0
H127 H 0.20652 0.43624 0.22158 0.0
H128 H 0.27772 0.4024 0.21867 0.0
H129 H 0.34229 0.38079 0.18644 0.0
H130 H 0.3407 0.39414 0.08159 0.0
H131 H 0.26347 0.42121 0.08393 0.0
C132 C 0.21727 0.43622 0.13865 0.0
C133 C 0.19873 0.44386 0.16918 0.0
C134 C 0.25883 0.41745 0.13678 0.0
C135 C 0.22056 0.43095 0.19781 0.0
C136 C 0.26117 0.41156 0.19618 0.0
C137 C 0.32421 0.38888 0.16419 0.0
C138 C 0.34592 0.3852 0.13394 0.0
C139 C 0.28109 0.40535 0.16586 0.0
C140 C 0.32352 0.39632 0.10509 0.0
C141 C 0.2798 0.41201 0.10647 0.0
H142 H 0.78592 0.23258 0.5535 0.0
H143 H 0.81813 0.20711 0.45412 0.0
H144 H 0.88304 0.31299 0.44599 0.0
H145 H 0.91468 0.41333 0.46419 0.0
H146 H 0.87498 0.4375 0.56216 0.0
H147 H 0.82824 0.33169 0.57387 0.0
C148 C 0.80865 0.25003 0.53038 0.0
C149 C 0.79663 0.21242 0.50428 0.0
C150 C 0.84305 0.3109 0.5254 0.0
C151 C 0.82662 0.23536 0.47454 0.0
C152 C 0.86302 0.29597 0.46975 0.0
C153 C 0.89644 0.39513 0.48816 0.0
C154 C 0.89705 0.43206 0.51226 0.0
C155 C 0.86887 0.33426 0.49445 0.0
C156 C 0.87409 0.40907 0.54333 0.0
C157 C 0.84761 0.34882 0.54999 0.0
H158 H 0.62792 0.78732 0.77461 0.0
H159 H 0.78741 0.81777 0.82291 0.0
H160 H 0.82644 0.92365 0.81822 0.0
H161 H 0.80973 1.00677 0.80681 0.0
H162 H 0.64887 0.97647 0.76073 0.0
H163 H 0.6158 0.87152 0.75777 0.0
C164 C 0.67165 0.81728 0.78347 0.0
C165 C 0.70454 0.7951 0.79937 0.0
C166 C 0.69325 0.87806 0.78135 0.0
C167 C 0.76116 0.83408 0.81078 0.0
C168 C 0.78344 0.89457 0.80822 0.0
C169 C 0.76809 0.97709 0.79552 0.0
C170 C 0.73155 0.99831 0.78397 0.0
C171 C 0.74908 0.91694 0.79454 0.0
C172 C 0.67751 0.96031 0.7696 0.0
C173 C 0.65857 0.90049 0.76806 0.0
H174 H 0.82585 0.51855 0.21177 0.0
H175 H 0.90255 0.68793 0.16207 0.0
H176 H 0.80426 0.66938 0.14648 0.0
H177 H 0.69978 0.59793 0.13875 0.0
H178 H 0.62948 0.42143 0.17933 0.0
H179 H 0.72128 0.45031 0.20738 0.0
C180 C 0.82104 0.5522 0.19832 0.0
C181 C 0.87117 0.6043 0.18778 0.0
C182 C 0.76529 0.53931 0.18732 0.0
C183 C 0.8644 0.64744 0.17037 0.0
C184 C 0.80832 0.6365 0.16116 0.0
C185 C 0.70438 0.56553 0.15358 0.0
C186 C 0.65748 0.50714 0.15621 0.0
C187 C 0.75888 0.58126 0.16799 0.0
C188 C 0.66401 0.46676 0.17679 0.0
C189 C 0.71697 0.48307 0.19271 0.0
H190 H 0.2947 0.91276 0.44733 0.0
H191 H 0.30466 0.84089 0.54186 0.0
H192 H 0.205 0.75991 0.53613 0.0
H193 H 0.11986 0.70439 0.50251 0.0
H194 H 0.10609 0.77327 0.40784 0.0
H195 H 0.20267 0.86037 0.41527 0.0
C196 C 0.27452 0.87968 0.46674 0.0
C197 C 0.307 0.88228 0.49477 0.0
C198 C 0.21696 0.83249 0.46318 0.0
C199 C 0.28065 0.83943 0.51988 0.0
C200 C 0.22365 0.79308 0.51667 0.0
C201 C 0.13681 0.7391 0.48382 0.0
C202 C 0.10563 0.73216 0.45468 0.0
C203 C 0.192 0.7885 0.48817 0.0
C204 C 0.12949 0.77718 0.43041 0.0
C205 C 0.18465 0.82702 0.43466 0.0
H206 H 0.62203 0.35227 0.88229 0.0
H207 H 0.44721 0.25898 0.84229 0.0
H208 H 0.4669 0.18308 0.82309 0.0
H209 H 0.53991 0.15484 0.80852 0.0
H210 H 0.71921 0.25871 0.84129 0.0
H211 H 0.69169 0.3185 0.87264 0.0
C212 C 0.5875 0.31432 0.87032 0.0
C213 C 0.53346 0.31141 0.86333 0.0
C214 C 0.60066 0.27357 0.85726 0.0
C215 C 0.48917 0.26208 0.84785 0.0
C216 C 0.50076 0.2192 0.83648 0.0
C217 C 0.57299 0.19049 0.82256 0.0
C218 C 0.63181 0.20283 0.82197 0.0
C219 C 0.55745 0.22649 0.83939 0.0
C220 C 0.67361 0.24797 0.84124 0.0
C221 C 0.65798 0.2825 0.85908 0.0
H222 H 0.65624 0.91928 0.52556 0.0
H223 H 0.47848 0.83188 0.48875 0.0
H224 H 0.47656 0.73856 0.49116 0.0
H225 H 0.52503 0.6804 0.50239 0.0
H226 H 0.70208 0.76467 0.53892 0.0
H227 H 0.70447 0.85956 0.53826 0.0
C228 C 0.61718 0.87987 0.51801 0.0
C229 C 0.56768 0.88335 0.50694 0.0
C230 C 0.61598 0.82525 0.5196 0.0
C231 C 0.51736 0.83128 0.49749 0.0
C232 C 0.51604 0.77744 0.49883 0.0
C233 C 0.56382 0.71951 0.5106 0.0
C234 C 0.61306 0.7157 0.52102 0.0
C235 C 0.56494 0.77377 0.50979 0.0
C236 C 0.6634 0.76661 0.53115 0.0
C237 C 0.66483 0.82089 0.53057 0.0
H238 H 0.72918 0.47396 0.86206 0.0
H239 H 0.81083 0.64673 0.81584 0.0
H240 H 0.90754 0.65478 0.82228 0.0
H241 H 0.97011 0.61462 0.8438 0.0
H242 H 0.88737 0.4441 0.8922 0.0
H243 H 0.79032 0.43308 0.88182 0.0
C244 C 0.76792 0.51339 0.85313 0.0
C245 C 0.76218 0.55975 0.83851 0.0
C246 C 0.82358 0.51809 0.85731 0.0
C247 C 0.81344 0.61033 0.82727 0.0
C248 C 0.86897 0.61499 0.83094 0.0
C249 C 0.93068 0.57478 0.85158 0.0
C250 C 0.9359 0.53002 0.86859 0.0
C251 C 0.87475 0.56941 0.84625 0.0
C252 C 0.88449 0.47901 0.87901 0.0
C253 C 0.82899 0.47281 0.87317 0.0
H254 H 0.26607 0.68663 0.16574 0.0
H255 H 0.15771 0.75116 0.20539 0.0
H256 H 0.2448 0.84393 0.21728 0.0
H257 H 0.35215 0.90699 0.21798 0.0
H258 H 0.46191 0.84577 0.17707 0.0
H259 H 0.37453 0.75254 0.16392 0.0
C260 C 0.2615 0.72104 0.17687 0.0
C261 C 0.2049 0.71128 0.18465 0.0
C262 C 0.31228 0.77531 0.18347 0.0
C263 C 0.20025 0.75692 0.1989 0.0
C264 C 0.25024 0.81027 0.20587 0.0
C265 C 0.35697 0.87324 0.20617 0.0
C266 C 0.41367 0.8834 0.19871 0.0
C267 C 0.30649 0.8199 0.19849 0.0
C268 C 0.4189 0.83939 0.18294 0.0
C269 C 0.36886 0.78587 0.17557 0.0
H270 H 0.62908 0.25746 0.48794 0.0
H271 H 0.45326 0.15295 0.52653 0.0
H272 H 0.45053 0.24226 0.5386 0.0
H273 H 0.50128 0.35069 0.54203 0.0
H274 H 0.67447 0.45506 0.50041 0.0
H275 H 0.67506 0.36571 0.48543 0.0
C276 C 0.58992 0.25425 0.49867 0.0
C277 C 0.54157 0.19842 0.50655 0.0
C278 C 0.58828 0.30595 0.50504 0.0
C279 C 0.49098 0.19516 0.52011 0.0
C280 C 0.48951 0.24632 0.52717 0.0
C281 C 0.53855 0.35369 0.52907 0.0
C282 C 0.58772 0.40938 0.5222 0.0
C283 C 0.53824 0.30199 0.52024 0.0
C284 C 0.63591 0.41276 0.50559 0.0
C285 C 0.6364 0.36164 0.49727 0.0
H286 H 0.45353 0.62763 0.83646 0.0
H287 H 0.37428 0.43974 0.85048 0.0
H288 H 0.27753 0.43083 0.8553 0.0
H289 H 0.2139 0.47581 0.85425 0.0
H290 H 0.29251 0.66317 0.8407 0.0
H291 H 0.39041 0.67292 0.83723 0.0
C292 C 0.41518 0.58468 0.84053 0.0
C293 C 0.42175 0.53445 0.84291 0.0
C294 C 0.35919 0.57975 0.84354 0.0
C295 C 0.37113 0.47931 0.8485 0.0
C296 C 0.31548 0.47407 0.85128 0.0
C297 C 0.25267 0.51874 0.85091 0.0
C298 C 0.24633 0.56881 0.84797 0.0
C299 C 0.30883 0.52387 0.84875 0.0
C300 C 0.29658 0.62413 0.84331 0.0
C301 C 0.35249 0.62964 0.84117 0.0
H302 H 0.9239 0.31889 0.17715 0.0
H303 H 0.8322 0.41718 0.16801 0.0
H304 H 0.73813 0.32645 0.17031 0.0
H305 H 0.6804 0.21818 0.17447 0.0
H306 H 0.7705 0.11904 0.18411 0.0
H307 H 0.86584 0.21023 0.1823 0.0
C308 C 0.8834 0.32049 0.1755 0.0
C309 C 0.88576 0.37532 0.17227 0.0
C310 C 0.8287 0.26764 0.17716 0.0
C311 C 0.83236 0.37606 0.1705 0.0
C312 C 0.77817 0.32397 0.17184 0.0
C313 C 0.72102 0.21679 0.17646 0.0
C314 C 0.71869 0.16224 0.17967 0.0
C315 C 0.77565 0.26947 0.17523 0.0
C316 C 0.7714 0.16072 0.18191 0.0
C317 C 0.82589 0.21285 0.18071 0.0
H318 H 0.1167 0.62043 0.06795 0.0
H319 H 0.97094 0.44585 0.08458 0.0
H320 H 0.96997 0.42552 0.02657 0.0
H321 H 1.00193 0.46297 0.97013 0.0
H322 H 0.14919 0.63696 0.95366 0.0
H323 H 0.15928 0.652 0.01255 0.0
C324 C 0.08622 0.57734 0.05891 0.0
C325 C 0.04434 0.53436 0.08023 0.0
C326 C 0.0858 0.56632 0.02555 0.0
C327 C 1.00416 0.47903 0.06849 0.0
C328 C 1.00324 0.46771 0.03533 0.0
C329 C 0.03698 0.50359 0.97961 0.0
C330 C 0.07449 0.54904 0.95776 0.0
C331 C 0.04249 0.51177 0.01346 0.0
C332 C 0.11997 0.60142 0.97012 0.0
C333 C 0.12548 0.61012 0.00374 0.0
H334 H 0.58551 0.1285 0.38843 0.0
H335 H 0.49009 0.94743 0.42202 0.0
H336 H 0.46698 0.91605 0.36559 0.0
H337 H 0.48233 0.93988 0.30676 0.0
H338 H 0.57424 0.12162 0.27341 0.0
H339 H 0.5912 0.1527 0.32971 0.0
C340 C 0.55893 0.0822 0.38339 0.0
C341 C 0.54005 0.04031 0.40928 0.0
C342 C 0.54614 0.06453 0.35093 0.0
C343 C 0.50524 0.98052 0.40248 0.0
C344 C 0.49234 0.96256 0.37021 0.0
C345 C 0.50497 0.98636 0.31163 0.0
C346 C 0.52773 0.02818 0.28555 0.0
C347 C 0.51377 1.00414 0.3442 0.0
C348 C 0.55758 0.0882 0.29276 0.0
C349 C 0.5669 0.10616 0.32503 0.0
H350 H 0.64174 0.48691 0.73415 0.0
H351 H 0.5534 0.5868 0.74358 0.0
H352 H 0.55592 0.60213 0.68394 0.0
H353 H 0.57279 0.57565 0.62887 0.0
H354 H 0.66813 0.48136 0.62149 0.0
H355 H 0.67345 0.47544 0.68047 0.0
C356 C 0.62438 0.51327 0.7231 0.0
C357 C 0.59729 0.53556 0.74284 0.0
C358 C 0.62628 0.52191 0.68915 0.0
C359 C 0.57493 0.56973 0.72861 0.0
C360 C 0.57589 0.57793 0.69456 0.0
C361 C 0.5957 0.55483 0.64014 0.0
C362 C 0.61787 0.52688 0.62058 0.0
C363 C 0.59987 0.55257 0.67447 0.0
C364 C 0.64822 0.50092 0.63579 0.0
C365 C 0.65186 0.49793 0.66961 0.0
H366 H 0.48695 0.04173 0.61986 0.0
H367 H 0.65319 0.08185 0.578 0.0
H368 H 0.7014 0.11575 0.63069 0.0
H369 H 0.69511 0.13159 0.68902 0.0
H370 H 0.52665 0.08489 0.73121 0.0
H371 H 0.48038 0.05625 0.67796 0.0
C372 C 0.53381 0.05815 0.62227 0.0
C373 C 0.56697 0.06068 0.59501 0.0
C374 C 0.56061 0.07617 0.65272 0.0
C375 C 0.62739 0.08148 0.59842 0.0
C376 C 0.65468 0.10012 0.62863 0.0
C377 C 0.6482 0.11472 0.68663 0.0
C378 C 0.61449 0.11054 0.71413 0.0
C379 C 0.6216 0.09739 0.65599 0.0
C380 C 0.55388 0.08946 0.71042 0.0
C381 C 0.52725 0.07265 0.68002 0.0
H382 H 0.62937 0.63787 0.94996 0.0
H383 H 0.53354 0.46416 0.91167 0.0
H384 H 0.51033 0.4213 0.9671 0.0
H385 H 0.52081 0.43348 0.02651 0.0
H386 H 0.61704 0.60757 0.06459 0.0
H387 H 0.63639 0.65027 0.00919 0.0
C388 C 0.60323 0.59066 0.95383 0.0
C389 C 0.58389 0.554 0.92697 0.0
C390 C 0.59013 0.56655 0.98569 0.0
C391 C 0.54984 0.493 0.93211 0.0
C392 C 0.53628 0.46859 0.96375 0.0
C393 C 0.54522 0.48077 0.02263 0.0
C394 C 0.56756 0.51736 0.04952 0.0
C395 C 0.55667 0.50494 0.99073 0.0
C396 C 0.59986 0.57855 0.0442 0.0
C397 C 0.61086 0.60296 0.01259 0.0
H398 H 1.00829 0.45993 0.29002 0.0
H399 H 1.02703 0.61841 0.24378 0.0
H400 H 1.00996 0.6497 0.29579 0.0
H401 H 0.99936 0.63693 0.35499 0.0
H402 H 0.986 0.4818 0.40254 0.0
H403 H 0.9901 0.4437 0.34952 0.0
C404 C 1.00779 0.50086 0.29136 0.0
C405 C 1.01909 0.53692 0.2632 0.0
C406 C 0.99921 0.51932 0.3216 0.0
C407 C 1.01837 0.58987 0.26514 0.0
C408 C 1.00885 0.60794 0.29489 0.0
C409 C 0.99699 0.5946 0.35371 0.0
C410 C 0.99315 0.56259 0.38258 0.0
C411 C 1.00076 0.57378 0.32336 0.0
C412 C 0.98885 0.50723 0.38061 0.0
C413 C 0.99166 0.48566 0.35033 0.0
loop_
_geom_bond_atom_site_label_1
_geom_bond_atom_site_label_2
_geom_bond_distance
_geom_bond_site_symmetry_2
_ccdc_geom_bond_type
Dy0 O4 2.398 . S
Dy0 O5 2.491 . S
Dy0 O6 2.403 . S
Dy0 O7 2.664 . S
Dy0 O11 2.326 . S
Dy0 O15 2.310 . S
Dy0 O16 2.351 1_455 S
C1 O12 1.185 . S
C1 O13 1.355 . S
C2 O4 1.185 . S
C2 O5 1.355 . S
Dy3 O7 2.310 1_655 S
Dy3 O10 2.351 1_655 S
Dy3 O12 2.398 . S
Dy3 O13 2.491 . S
Dy3 O14 2.403 . S
Dy3 O15 2.664 1_655 S
Dy3 O17 2.326 . S
O4 Dy0 2.398 . S
O4 C2 1.185 . S
O5 Dy0 2.491 . S
O5 C2 1.355 . S
O6 Dy0 2.403 . S
O6 C8 1.254 . S
O7 Dy0 2.664 . S
O7 Dy3 2.310 1_455 S
O7 C8 1.268 . S
C8 O6 1.254 . S
C8 O7 1.268 . S
C9 O14 1.254 1_455 S
C9 O15 1.268 . S
O10 Dy3 2.351 1_455 S
O10 C18 1.249 . S
O11 Dy0 2.326 . S
O11 C18 1.267 . S
O12 C1 1.185 . S
O12 Dy3 2.398 . S
O13 C1 1.355 . S
O13 Dy3 2.491 . S
O14 Dy3 2.403 . S
O14 C9 1.254 1_655 S
O15 Dy0 2.310 . S
O15 Dy3 2.664 1_455 S
O15 C9 1.268 . S
O16 Dy0 2.351 1_655 S
O16 C19 1.249 . S
O17 Dy3 2.326 . S
O17 C19 1.267 . S
C18 O10 1.249 . S
C18 O11 1.267 . S
C19 O16 1.249 . S
C19 O17 1.267 . S
Dy20 O24 2.398 . S
Dy20 O25 2.491 . S
Dy20 O26 2.403 . S
Dy20 O27 2.664 1_565 S
Dy20 O31 2.326 . S
Dy20 O35 2.310 1_565 S
Dy20 O36 2.351 1_565 S
C21 O32 1.185 . S
C21 O33 1.355 . S
C22 O24 1.185 . S
C22 O25 1.355 . S
Dy23 O27 2.310 . S
Dy23 O30 2.351 1_545 S
Dy23 O32 2.398 . S
Dy23 O33 2.491 . S
Dy23 O34 2.403 . S
Dy23 O35 2.664 . S
Dy23 O37 2.326 . S
O24 Dy20 2.398 . S
O24 C22 1.185 . S
O25 Dy20 2.491 . S
O25 C22 1.355 . S
O26 Dy20 2.403 . S
O26 C28 1.254 1_565 S
O27 Dy20 2.664 1_545 S
O27 Dy23 2.310 . S
O27 C28 1.268 . S
C28 O26 1.254 1_545 S
C28 O27 1.268 . S
C29 O34 1.254 . S
C29 O35 1.268 . S
O30 Dy23 2.351 1_565 S
O30 C38 1.249 . S
O31 Dy20 2.326 . S
O31 C38 1.267 . S
O32 C21 1.185 . S
O32 Dy23 2.398 . S
O33 C21 1.355 . S
O33 Dy23 2.491 . S
O34 Dy23 2.403 . S
O34 C29 1.254 . S
O35 Dy20 2.310 1_545 S
O35 Dy23 2.664 . S
O35 C29 1.268 . S
O36 Dy20 2.351 1_545 S
O36 C39 1.249 . S
O37 Dy23 2.326 . S
O37 C39 1.267 . S
C38 O30 1.249 . S
C38 O31 1.267 . S
C39 O36 1.249 . S
C39 O37 1.267 . S
Dy40 O44 2.398 . S
Dy40 O45 2.491 . S
Dy40 O46 2.403 . S
Dy40 O47 2.664 . S
Dy40 O51 2.326 . S
Dy40 O55 2.310 . S
Dy40 O56 2.351 . S
C41 O52 1.185 . S
C41 O53 1.355 . S
C42 O44 1.185 . S
C42 O45 1.355 . S
Dy43 O47 2.310 . S
Dy43 O50 2.351 . S
Dy43 O52 2.398 . S
Dy43 O53 2.491 . S
Dy43 O54 2.403 . S
Dy43 O55 2.664 . S
Dy43 O57 2.326 . S
O44 Dy40 2.398 . S
O44 C42 1.185 . S
O45 Dy40 2.491 . S
O45 C42 1.355 . S
O46 Dy40 2.403 . S
O46 C48 1.254 . S
O47 Dy40 2.664 . S
O47 Dy43 2.310 . S
O47 C48 1.268 . S
C48 O46 1.254 . S
C48 O47 1.268 . S
C49 O54 1.254 . S
C49 O55 1.268 . S
O50 Dy43 2.351 . S
O50 C58 1.249 . S
O51 Dy40 2.326 . S
O51 C58 1.267 . S
O52 C41 1.185 . S
O52 Dy43 2.398 . S
O53 C41 1.355 . S
O53 Dy43 2.491 . S
O54 Dy43 2.403 . S
O54 C49 1.254 . S
O55 Dy40 2.310 . S
O55 Dy43 2.664 . S
O55 C49 1.268 . S
O56 Dy40 2.351 . S
O56 C59 1.249 . S
O57 Dy43 2.326 . S
O57 C59 1.267 . S
C58 O50 1.249 . S
C58 O51 1.267 . S
C59 O56 1.249 . S
C59 O57 1.267 . S
H60 C63 0.929 . S
H61 C66 0.929 . S
H62 C68 0.930 . S
C63 H60 0.929 . S
C63 C64 1.398 . S
C63 C65 1.396 1_565 S
C64 C63 1.398 . S
C64 C68 1.407 . S
C65 C63 1.396 1_545 S
C65 C66 1.394 . S
C66 H61 0.929 . S
C66 C65 1.394 . S
C66 C67 1.382 . S
C67 C66 1.382 . S
C67 C68 1.392 1_545 S
C67 N69 1.420 . S
C68 H62 0.930 . S
C68 C64 1.407 . S
C68 C67 1.392 1_565 S
N69 C67 1.420 . S
N69 C70 1.244 . S
C70 N69 1.244 . S
H71 C74 0.929 . S
H72 C77 0.929 . S
H73 C79 0.930 . S
C74 H71 0.929 . S
C74 C75 1.398 . S
C74 C76 1.396 . S
C75 C74 1.398 . S
C75 C79 1.407 . S
C76 C74 1.396 . S
C76 C77 1.394 . S
C77 H72 0.929 . S
C77 C76 1.394 . S
C77 C78 1.382 . S
C78 C77 1.382 . S
C78 C79 1.392 . S
C78 N80 1.420 . S
C79 H73 0.930 . S
C79 C75 1.407 . S
C79 C78 1.392 . S
N80 C78 1.420 . S
N80 C81 1.244 . S
C81 N80 1.244 . S
H82 C85 0.929 1_655 S
H83 C88 0.929 . S
H84 C90 0.930 . S
C85 H82 0.929 1_455 S
C85 C86 1.398 1_455 S
C85 C87 1.396 . S
C86 C85 1.398 1_655 S
C86 C90 1.407 1_655 S
C87 C85 1.396 . S
C87 C88 1.394 . S
C88 H83 0.929 . S
C88 C87 1.394 . S
C88 C89 1.382 . S
C89 C88 1.382 . S
C89 C90 1.392 . S
C89 N91 1.420 . S
C90 H84 0.930 . S
C90 C86 1.407 1_455 S
C90 C89 1.392 . S
N91 C89 1.420 . S
N91 C92 1.244 . S
C92 N91 1.244 . S
H93 C96 0.929 . S
H94 C99 0.929 . S
H95 C101 0.930 . S
C96 H93 0.929 . S
C96 C97 1.398 . S
C96 C98 1.396 . S
C97 C96 1.398 . S
C97 C101 1.407 . S
C98 C96 1.396 . S
C98 C99 1.394 1_455 S
C99 H94 0.929 . S
C99 C98 1.394 1_655 S
C99 C100 1.382 . S
C100 C99 1.382 . S
C100 C101 1.392 1_655 S
C100 N102 1.420 . S
C101 H95 0.930 . S
C101 C97 1.407 . S
C101 C100 1.392 1_455 S
N102 C100 1.420 . S
N102 C103 1.244 . S
C103 N102 1.244 . S
H104 C107 0.929 . S
H105 C110 0.929 1_565 S
H106 C112 0.930 . S
C107 H104 0.929 . S
C107 C108 1.398 . S
C107 C109 1.396 . S
C108 C107 1.398 . S
C108 C112 1.407 . S
C109 C107 1.396 . S
C109 C110 1.394 . S
C110 H105 0.929 1_545 S
C110 C109 1.394 . S
C110 C111 1.382 . S
C111 C110 1.382 . S
C111 C112 1.392 . S
C111 N113 1.420 1_545 S
C112 H106 0.930 . S
C112 C108 1.407 . S
C112 C111 1.392 . S
N113 C111 1.420 1_565 S
N113 C114 1.244 . S
C114 N113 1.244 . S
H115 C118 0.929 . S
H116 C121 0.929 . S
H117 C123 0.930 . S
C118 H115 0.929 . S
C118 C119 1.398 . S
C118 C120 1.396 . S
C119 C118 1.398 . S
C119 C123 1.407 . S
C120 C118 1.396 . S
C120 C121 1.394 . S
C121 H116 0.929 . S
C121 C120 1.394 . S
C121 C122 1.382 . S
C122 C121 1.382 . S
C122 C123 1.392 . S
C122 N124 1.420 . S
C123 H117 0.930 . S
C123 C119 1.407 . S
C123 C122 1.392 . S
N124 C122 1.420 . S
N124 C125 1.244 . S
C125 N124 1.244 . S
H126 C132 0.930 . S
H127 C135 0.930 . S
H128 C136 0.930 . S
H129 C137 0.930 . S
H130 C140 0.930 . S
H131 C141 0.930 . S
C132 H126 0.930 . S
C132 C133 1.355 . S
C132 C134 1.415 . S
C133 C132 1.355 . S
C133 C135 1.419 . S
C134 C132 1.415 . S
C134 C139 1.425 . S
C134 C141 1.409 . S
C135 H127 0.930 . S
C135 C133 1.419 . S
C135 C136 1.362 . S
C136 H128 0.930 . S
C136 C135 1.362 . S
C136 C139 1.409 . S
C137 H129 0.930 . S
C137 C138 1.355 . S
C137 C139 1.415 . S
C138 C137 1.355 . S
C138 C140 1.419 . S
C139 C134 1.425 . S
C139 C136 1.409 . S
C139 C137 1.415 . S
C140 H130 0.930 . S
C140 C138 1.419 . S
C140 C141 1.362 . S
C141 H131 0.930 . S
C141 C134 1.409 . S
C141 C140 1.362 . S
H142 C148 0.930 . S
H143 C151 0.930 . S
H144 C152 0.930 . S
H145 C153 0.930 . S
H146 C156 0.930 . S
H147 C157 0.930 . S
C148 H142 0.930 . S
C148 C149 1.355 . S
C148 C150 1.415 . S
C149 C148 1.355 . S
C149 C151 1.419 . S
C150 C148 1.415 . S
C150 C155 1.425 . S
C150 C157 1.409 . S
C151 H143 0.930 . S
C151 C149 1.419 . S
C151 C152 1.362 . S
C152 H144 0.930 . S
C152 C151 1.362 . S
C152 C155 1.409 . S
C153 H145 0.930 . S
C153 C154 1.355 . S
C153 C155 1.415 . S
C154 C153 1.355 . S
C154 C156 1.419 . S
C155 C150 1.425 . S
C155 C152 1.409 . S
C155 C153 1.415 . S
C156 H146 0.930 . S
C156 C154 1.419 . S
C156 C157 1.362 . S
C157 H147 0.930 . S
C157 C150 1.409 . S
C157 C156 1.362 . S
H158 C164 0.930 . S
H159 C167 0.930 . S
H160 C168 0.930 . S
H161 C169 0.930 . S
H162 C172 0.930 . S
H163 C173 0.930 . S
C164 H158 0.930 . S
C164 C165 1.355 . S
C164 C166 1.415 . S
C165 C164 1.355 . S
C165 C167 1.419 . S
C166 C164 1.415 . S
C166 C171 1.425 . S
C166 C173 1.409 . S
C167 H159 0.930 . S
C167 C165 1.419 . S
C167 C168 1.362 . S
C168 H160 0.930 . S
C168 C167 1.362 . S
C168 C171 1.409 . S
C169 H161 0.930 . S
C169 C170 1.355 . S
C169 C171 1.415 . S
C170 C169 1.355 . S
C170 C172 1.419 . S
C171 C166 1.425 . S
C171 C168 1.409 . S
C171 C169 1.415 . S
C172 H162 0.930 . S
C172 C170 1.419 . S
C172 C173 1.362 . S
C173 H163 0.930 . S
C173 C166 1.409 . S
C173 C172 1.362 . S
H174 C180 0.930 . S
H175 C183 0.930 . S
H176 C184 0.930 . S
H177 C185 0.930 . S
H178 C188 0.930 . S
H179 C189 0.930 . S
C180 H174 0.930 . S
C180 C181 1.355 . S
C180 C182 1.415 . S
C181 C180 1.355 . S
C181 C183 1.419 . S
C182 C180 1.415 . S
C182 C187 1.425 . S
C182 C189 1.409 . S
C183 H175 0.930 . S
C183 C181 1.419 . S
C183 C184 1.362 . S
C184 H176 0.930 . S
C184 C183 1.362 . S
C184 C187 1.409 . S
C185 H177 0.930 . S
C185 C186 1.355 . S
C185 C187 1.415 . S
C186 C185 1.355 . S
C186 C188 1.419 . S
C187 C182 1.425 . S
C187 C184 1.409 . S
C187 C185 1.415 . S
C188 H178 0.930 . S
C188 C186 1.419 . S
C188 C189 1.362 . S
C189 H179 0.930 . S
C189 C182 1.409 . S
C189 C188 1.362 . S
H190 C196 0.930 . S
H191 C199 0.930 . S
H192 C200 0.930 . S
H193 C201 0.930 . S
H194 C204 0.930 . S
H195 C205 0.930 . S
C196 H190 0.930 . S
C196 C197 1.355 . S
C196 C198 1.415 . S
C197 C196 1.355 . S
C197 C199 1.419 . S
C198 C196 1.415 . S
C198 C203 1.425 . S
C198 C205 1.409 . S
C199 H191 0.930 . S
C199 C197 1.419 . S
C199 C200 1.362 . S
C200 H192 0.930 . S
C200 C199 1.362 . S
C200 C203 1.409 . S
C201 H193 0.930 . S
C201 C202 1.355 . S
C201 C203 1.415 . S
C202 C201 1.355 . S
C202 C204 1.419 . S
C203 C198 1.425 . S
C203 C200 1.409 . S
C203 C201 1.415 . S
C204 H194 0.930 . S
C204 C202 1.419 . S
C204 C205 1.362 . S
C205 H195 0.930 . S
C205 C198 1.409 . S
C205 C204 1.362 . S
H206 C212 0.930 . S
H207 C215 0.930 . S
H208 C216 0.930 . S
H209 C217 0.930 . S
H210 C220 0.930 . S
H211 C221 0.930 . S
C212 H206 0.930 . S
C212 C213 1.355 . S
C212 C214 1.415 . S
C213 C212 1.355 . S
C213 C215 1.419 . S
C214 C212 1.415 . S
C214 C219 1.425 . S
C214 C221 1.409 . S
C215 H207 0.930 . S
C215 C213 1.419 . S
C215 C216 1.362 . S
C216 H208 0.930 . S
C216 C215 1.362 . S
C216 C219 1.409 . S
C217 H209 0.930 . S
C217 C218 1.355 . S
C217 C219 1.415 . S
C218 C217 1.355 . S
C218 C220 1.419 . S
C219 C214 1.425 . S
C219 C216 1.409 . S
C219 C217 1.415 . S
C220 H210 0.930 . S
C220 C218 1.419 . S
C220 C221 1.362 . S
C221 H211 0.930 . S
C221 C214 1.409 . S
C221 C220 1.362 . S
H222 C228 0.930 . S
H223 C231 0.930 . S
H224 C232 0.930 . S
H225 C233 0.930 . S
H226 C236 0.930 . S
H227 C237 0.930 . S
C228 H222 0.930 . S
C228 C229 1.355 . S
C228 C230 1.415 . S
C229 C228 1.355 . S
C229 C231 1.419 . S
C230 C228 1.415 . S
C230 C235 1.425 . S
C230 C237 1.409 . S
C231 H223 0.930 . S
C231 C229 1.419 . S
C231 C232 1.362 . S
C232 H224 0.930 . S
C232 C231 1.362 . S
C232 C235 1.409 . S
C233 H225 0.930 . S
C233 C234 1.355 . S
C233 C235 1.415 . S
C234 C233 1.355 . S
C234 C236 1.419 . S
C235 C230 1.425 . S
C235 C232 1.409 . S
C235 C233 1.415 . S
C236 H226 0.930 . S
C236 C234 1.419 . S
C236 C237 1.362 . S
C237 H227 0.930 . S
C237 C230 1.409 . S
C237 C236 1.362 . S
H238 C244 0.930 . S
H239 C247 0.930 . S
H240 C248 0.930 . S
H241 C249 0.930 . S
H242 C252 0.930 . S
H243 C253 0.930 . S
C244 H238 0.930 . S
C244 C245 1.355 . S
C244 C246 1.415 . S
C245 C244 1.355 . S
C245 C247 1.419 . S
C246 C244 1.415 . S
C246 C251 1.425 . S
C246 C253 1.409 . S
C247 H239 0.930 . S
C247 C245 1.419 . S
C247 C248 1.362 . S
C248 H240 0.930 . S
C248 C247 1.362 . S
C248 C251 1.409 . S
C249 H241 0.930 . S
C249 C250 1.355 . S
C249 C251 1.415 . S
C250 C249 1.355 . S
C250 C252 1.419 . S
C251 C246 1.425 . S
C251 C248 1.409 . S
C251 C249 1.415 . S
C252 H242 0.930 . S
C252 C250 1.419 . S
C252 C253 1.362 . S
C253 H243 0.930 . S
C253 C246 1.409 . S
C253 C252 1.362 . S
H254 C260 0.930 . S
H255 C263 0.930 . S
H256 C264 0.930 . S
H257 C265 0.930 . S
H258 C268 0.930 . S
H259 C269 0.930 . S
C260 H254 0.930 . S
C260 C261 1.355 . S
C260 C262 1.415 . S
C261 C260 1.355 . S
C261 C263 1.419 . S
C262 C260 1.415 . S
C262 C267 1.425 . S
C262 C269 1.409 . S
C263 H255 0.930 . S
C263 C261 1.419 . S
C263 C264 1.362 . S
C264 H256 0.930 . S
C264 C263 1.362 . S
C264 C267 1.409 . S
C265 H257 0.930 . S
C265 C266 1.355 . S
C265 C267 1.415 . S
C266 C265 1.355 . S
C266 C268 1.419 . S
C267 C262 1.425 . S
C267 C264 1.409 . S
C267 C265 1.415 . S
C268 H258 0.930 . S
C268 C266 1.419 . S
C268 C269 1.362 . S
C269 H259 0.930 . S
C269 C262 1.409 . S
C269 C268 1.362 . S
H270 C276 0.930 . S
H271 C279 0.930 . S
H272 C280 0.930 . S
H273 C281 0.930 . S
H274 C284 0.930 . S
H275 C285 0.930 . S
C276 H270 0.930 . S
C276 C277 1.355 . S
C276 C278 1.415 . S
C277 C276 1.355 . S
C277 C279 1.419 . S
C278 C276 1.415 . S
C278 C283 1.425 . S
C278 C285 1.409 . S
C279 H271 0.930 . S
C279 C277 1.419 . S
C279 C280 1.362 . S
C280 H272 0.930 . S
C280 C279 1.362 . S
C280 C283 1.409 . S
C281 H273 0.930 . S
C281 C282 1.355 . S
C281 C283 1.415 . S
C282 C281 1.355 . S
C282 C284 1.419 . S
C283 C278 1.425 . S
C283 C280 1.409 . S
C283 C281 1.415 . S
C284 H274 0.930 . S
C284 C282 1.419 . S
C284 C285 1.362 . S
C285 H275 0.930 . S
C285 C278 1.409 . S
C285 C284 1.362 . S
H286 C292 0.930 . S
H287 C295 0.930 . S
H288 C296 0.930 . S
H289 C297 0.930 . S
H290 C300 0.930 . S
H291 C301 0.930 . S
C292 H286 0.930 . S
C292 C293 1.355 . S
C292 C294 1.415 . S
C293 C292 1.355 . S
C293 C295 1.419 . S
C294 C292 1.415 . S
C294 C299 1.425 . S
C294 C301 1.409 . S
C295 H287 0.930 . S
C295 C293 1.419 . S
C295 C296 1.362 . S
C296 H288 0.930 . S
C296 C295 1.362 . S
C296 C299 1.409 . S
C297 H289 0.930 . S
C297 C298 1.355 . S
C297 C299 1.415 . S
C298 C297 1.355 . S
C298 C300 1.419 . S
C299 C294 1.425 . S
C299 C296 1.409 . S
C299 C297 1.415 . S
C300 H290 0.930 . S
C300 C298 1.419 . S
C300 C301 1.362 . S
C301 H291 0.930 . S
C301 C294 1.409 . S
C301 C300 1.362 . S
H302 C308 0.930 . S
H303 C311 0.930 . S
H304 C312 0.930 . S
H305 C313 0.930 . S
H306 C316 0.930 . S
H307 C317 0.930 . S
C308 H302 0.930 . S
C308 C309 1.355 . S
C308 C310 1.415 . S
C309 C308 1.355 . S
C309 C311 1.419 . S
C310 C308 1.415 . S
C310 C315 1.425 . S
C310 C317 1.409 . S
C311 H303 0.930 . S
C311 C309 1.419 . S
C311 C312 1.362 . S
C312 H304 0.930 . S
C312 C311 1.362 . S
C312 C315 1.409 . S
C313 H305 0.930 . S
C313 C314 1.355 . S
C313 C315 1.415 . S
C314 C313 1.355 . S
C314 C316 1.419 . S
C315 C310 1.425 . S
C315 C312 1.409 . S
C315 C313 1.415 . S
C316 H306 0.930 . S
C316 C314 1.419 . S
C316 C317 1.362 . S
C317 H307 0.930 . S
C317 C310 1.409 . S
C317 C316 1.362 . S
H318 C324 0.930 . S
H319 C327 0.930 1_655 S
H320 C328 0.930 . S
H321 C329 0.930 1_655 S
H322 C332 0.930 . S
H323 C333 0.924 1_554 S
C324 H318 0.930 . S
C324 C325 1.355 . S
C324 C326 1.415 . S
C325 C324 1.355 . S
C325 C327 1.419 . S
C326 C324 1.415 . S
C326 C331 1.425 . S
C326 C333 1.400 1_554 S
C327 H319 0.930 1_455 S
C327 C325 1.419 . S
C327 C328 1.362 1_455 S
C328 H320 0.930 . S
C328 C327 1.362 1_655 S
C328 C331 1.409 1_655 S
C329 H321 0.930 1_455 S
C329 C330 1.355 . S
C329 C331 1.415 1_556 S
C330 C329 1.355 . S
C330 C332 1.419 . S
C331 C326 1.425 . S
C331 C328 1.409 1_455 S
C331 C329 1.415 1_554 S
C332 H322 0.930 . S
C332 C330 1.419 . S
C332 C333 1.378 . S
C333 H323 0.924 1_556 S
C333 C326 1.400 1_556 S
C333 C332 1.378 . S
H334 C340 0.930 . S
H335 C343 0.930 . S
H336 C344 0.930 . S
H337 C345 0.930 . S
H338 C348 0.930 . S
H339 C349 0.930 . S
C340 H334 0.930 . S
C340 C341 1.355 . S
C340 C342 1.415 . S
C341 C340 1.355 . S
C341 C343 1.419 . S
C342 C340 1.415 . S
C342 C347 1.425 . S
C342 C349 1.409 . S
C343 H335 0.930 . S
C343 C341 1.419 . S
C343 C344 1.362 . S
C344 H336 0.930 . S
C344 C343 1.362 . S
C344 C347 1.409 . S
C345 H337 0.930 . S
C345 C346 1.355 . S
C345 C347 1.415 . S
C346 C345 1.355 . S
C346 C348 1.419 . S
C347 C342 1.425 . S
C347 C344 1.409 . S
C347 C345 1.415 . S
C348 H338 0.930 . S
C348 C346 1.419 . S
C348 C349 1.362 . S
C349 H339 0.930 . S
C349 C342 1.409 . S
C349 C348 1.362 . S
H350 C356 0.930 . S
H351 C359 0.930 . S
H352 C360 0.930 . S
H353 C361 0.930 . S
H354 C364 0.930 . S
H355 C365 0.930 . S
C356 H350 0.930 . S
C356 C357 1.355 . S
C356 C358 1.415 . S
C357 C356 1.355 . S
C357 C359 1.419 . S
C358 C356 1.415 . S
C358 C363 1.425 . S
C358 C365 1.409 . S
C359 H351 0.930 . S
C359 C357 1.419 . S
C359 C360 1.362 . S
C360 H352 0.930 . S
C360 C359 1.362 . S
C360 C363 1.409 . S
C361 H353 0.930 . S
C361 C362 1.355 . S
C361 C363 1.415 . S
C362 C361 1.355 . S
C362 C364 1.419 . S
C363 C358 1.425 . S
C363 C360 1.409 . S
C363 C361 1.415 . S
C364 H354 0.930 . S
C364 C362 1.419 . S
C364 C365 1.362 . S
C365 H355 0.930 . S
C365 C358 1.409 . S
C365 C364 1.362 . S
H366 C372 0.930 1_565 S
H367 C375 0.930 . S
H368 C376 0.930 . S
H369 C377 0.930 . S
H370 C380 0.930 . S
H371 C381 0.930 . S
C372 H366 0.930 1_545 S
C372 C373 1.355 . S
C372 C374 1.415 . S
C373 C372 1.355 . S
C373 C375 1.419 . S
C374 C372 1.415 . S
C374 C379 1.425 . S
C374 C381 1.409 1_545 S
C375 H367 0.930 . S
C375 C373 1.419 . S
C375 C376 1.362 . S
C376 H368 0.930 . S
C376 C375 1.362 . S
C376 C379 1.409 . S
C377 H369 0.930 . S
C377 C378 1.355 . S
C377 C379 1.415 . S
C378 C377 1.355 . S
C378 C380 1.419 1_545 S
C379 C374 1.425 . S
C379 C376 1.409 . S
C379 C377 1.415 . S
C380 H370 0.930 . S
C380 C378 1.419 1_565 S
C380 C381 1.362 . S
C381 H371 0.930 . S
C381 C374 1.409 1_565 S
C381 C380 1.362 . S
H382 C388 0.930 . S
H383 C391 0.930 . S
H384 C392 0.930 . S
H385 C393 0.930 . S
H386 C396 0.930 . S
H387 C397 0.930 . S
C388 H382 0.930 . S
C388 C389 1.355 . S
C388 C390 1.415 . S
C389 C388 1.355 . S
C389 C391 1.419 . S
C390 C388 1.415 . S
C390 C395 1.425 . S
C390 C397 1.409 1_556 S
C391 H383 0.930 . S
C391 C389 1.419 . S
C391 C392 1.362 . S
C392 H384 0.930 . S
C392 C391 1.362 . S
C392 C395 1.409 . S
C393 H385 0.930 . S
C393 C394 1.355 . S
C393 C395 1.415 1_554 S
C394 C393 1.355 . S
C394 C396 1.419 . S
C395 C390 1.425 . S
C395 C392 1.409 . S
C395 C393 1.415 1_556 S
C396 H386 0.930 . S
C396 C394 1.419 . S
C396 C397 1.362 . S
C397 H387 0.930 . S
C397 C390 1.409 1_554 S
C397 C396 1.362 . S
H398 C404 0.930 . S
H399 C407 0.930 . S
H400 C408 0.930 . S
H401 C409 0.922 1_655 S
H402 C412 0.930 . S
H403 C413 0.930 . S
C404 H398 0.930 . S
C404 C405 1.355 . S
C404 C406 1.415 . S
C405 C404 1.355 . S
C405 C407 1.419 1_455 S
C406 C404 1.415 . S
C406 C411 1.425 . S
C406 C413 1.409 . S
C407 H399 0.930 . S
C407 C405 1.419 1_655 S
C407 C408 1.362 . S
C408 H400 0.930 . S
C408 C407 1.362 . S
C408 C411 1.409 1_655 S
C409 H401 0.922 1_455 S
C409 C410 1.360 . S
C409 C411 1.416 . S
C410 C409 1.360 . S
C410 C412 1.419 . S
C411 C406 1.425 . S
C411 C408 1.409 1_455 S
C411 C409 1.416 . S
C412 H402 0.930 . S
C412 C410 1.419 . S
C412 C413 1.362 . S
C413 H403 0.930 . S
C413 C406 1.409 . S
C413 C412 1.362 . S
C133 C2 1.120 . S
C138 C125 1.106 . S
C149 C21 1.031 . S
C154 C103 1.104 . S
C165 C42 1.093 . S
C170 C114 1.108 . S
C181 C1 0.925 . S
C186 C119 0.961 . S
C202 C97 0.961 . S
C197 C22 1.005 . S
C218 C108 0.969 . S
C213 C41 0.908 . S
C229 C38 1.947 . S
C234 C81 1.879 . S
C245 C59 1.867 . S
C250 C86 1.819 . S
C261 C18 1.793 . S
C266 C64 1.807 . S
C282 C75 1.816 . S
C277 C39 1.863 . S
C298 C92 1.880 . S
C293 C58 1.914 . S
C309 C19 2.004 . S
C314 C70 1.932 . S
C330 C87 1.572 . S
C325 C9 1.506 . S
C341 C29 1.490 . S
C346 C65 1.608 . S
C357 C49 1.557 . S
C362 C76 1.571 . S
C378 C109 1.499 . S
C373 C28 1.484 . S
C394 C120 1.467 . S
C389 C48 1.462 . S
C405 C8 1.419 . S
C410 C98 1.429 . S
