# Generated by pormake.
# Topology anh, (6,3)-cn, num edge types: 1
# Building blocks:
#     Node 0, Type 0, BuildingBlock: BETDAH_clean_sbu_0, # of connection points: 6
#     Node 1, Type 0, BuildingBlock: BETDAH_clean_sbu_0, # of connection points: 6
#     Node 2, Type 0, BuildingBlock: BETDAH_clean_sbu_0, # of connection points: 6
#     Node 3, Type 1, BuildingBlock: VETTIZ_charged_linker_0, # of connection points: 3
#     Node 4, Type 1, BuildingBlock: VETTIZ_charged_linker_0, # of connection points: 3
#     Node 5, Type 1, BuildingBlock: VETTIZ_charged_linker_0, # of connection points: 3
#     Node 6, Type 1, BuildingBlock: VETTIZ_charged_linker_0, # of connection points: 3
#     Node 7, Type 1, BuildingBlock: VETTIZ_charged_linker_0, # of connection points: 3
#     Node 8, Type 1, BuildingBlock: VETTIZ_charged_linker_0, # of connection points: 3
#     Edge 9, Type (0, 1), BuildingBlock: EZIPEK_clean_linker_0, # of connection points: 2
#     Edge 10, Type (0, 1), BuildingBlock: EZIPEK_clean_linker_0, # of connection points: 2
#     Edge 11, Type (0, 1), BuildingBlock: EZIPEK_clean_linker_0, # of connection points: 2
#     Edge 12, Type (0, 1), BuildingBlock: EZIPEK_clean_linker_0, # of connection points: 2
#     Edge 13, Type (0, 1), BuildingBlock: EZIPEK_clean_linker_0, # of connection points: 2
#     Edge 14, Type (0, 1), BuildingBlock: EZIPEK_clean_linker_0, # of connection points: 2
#     Edge 15, Type (0, 1), BuildingBlock: EZIPEK_clean_linker_0, # of connection points: 2
#     Edge 16, Type (0, 1), BuildingBlock: EZIPEK_clean_linker_0, # of connection points: 2
#     Edge 17, Type (0, 1), BuildingBlock: EZIPEK_clean_linker_0, # of connection points: 2
#     Edge 18, Type (0, 1), BuildingBlock: EZIPEK_clean_linker_0, # of connection points: 2
#     Edge 19, Type (0, 1), BuildingBlock: EZIPEK_clean_linker_0, # of connection points: 2
#     Edge 20, Type (0, 1), BuildingBlock: EZIPEK_clean_linker_0, # of connection points: 2
#     Edge 21, Type (0, 1), BuildingBlock: EZIPEK_clean_linker_0, # of connection points: 2
#     Edge 22, Type (0, 1), BuildingBlock: EZIPEK_clean_linker_0, # of connection points: 2
#     Edge 23, Type (0, 1), BuildingBlock: EZIPEK_clean_linker_0, # of connection points: 2
#     Edge 24, Type (0, 1), BuildingBlock: EZIPEK_clean_linker_0, # of connection points: 2
#     Edge 25, Type (0, 1), BuildingBlock: EZIPEK_clean_linker_0, # of connection points: 2
#     Edge 26, Type (0, 1), BuildingBlock: EZIPEK_clean_linker_0, # of connection points: 2
# Relax obj value: 0.217
# Max RMSD: 0.229
# Mean RMSD: 0.168
data_MOF--net-anh--node1-BETDAH_clean_sbu_0--node2-VETTIZ_charged_linker_0--edge1-EZIPEK_clean_linker_0
_symmetry_space_group_name_H-M    P1
_symmetry_Int_Tables_number       1
_symmetry_cell_setting            triclinic
loop_
_symmetry_equiv_pos_as_xyz
'x, y, z'
_cell_length_a     27.793119
_cell_length_b     34.927823
_cell_length_c     52.803872
_cell_angle_alpha  91.597109
_cell_angle_beta   90.025284
_cell_angle_gamma 130.77303
loop_
_atom_site_label
_atom_site_type_symbol
_atom_site_fract_x
_atom_site_fract_y
_atom_site_fract_z
_atom_type_partial_charge
Ho0 Ho 0.15209 0.49838 0.13611 0.0
Ho1 Ho 1.0575 0.51218 0.14591 0.0
C2 C 0.20124 0.61381 0.14504 0.0
C3 C 0.24864 0.51118 0.11956 0.0
C4 C 0.31653 0.55313 0.12491 0.0
C5 C 0.33603 0.59296 0.14188 0.0
C6 C 0.40035 0.63382 0.14655 0.0
C7 C 0.44607 0.63404 0.13533 0.0
C8 C 0.42676 0.59414 0.11843 0.0
C9 C 0.36227 0.55406 0.11309 0.0
C10 C 0.12516 0.49594 0.18532 0.0
C11 C 1.00976 0.39824 0.13877 0.0
C12 C 0.96093 0.49824 0.16331 0.0
C13 C 0.89407 0.45152 0.16625 0.0
C14 C 0.87221 0.42859 0.18981 0.0
C15 C 0.80767 0.38727 0.19301 0.0
C16 C 0.76364 0.36902 0.17288 0.0
C17 C 0.78679 0.38913 0.14879 0.0
C18 C 0.85103 0.42985 0.14554 0.0
C19 C 1.08569 0.5155 0.09685 0.0
O20 O 0.213 0.58379 0.13854 0.0
O21 O 0.14293 0.59478 0.15038 0.0
O22 O 0.21599 0.48339 0.13889 0.0
O23 O 0.21996 0.52302 0.10669 0.0
O24 O 0.13727 0.46893 0.1751 0.0
O25 O 0.13265 0.5255 0.16934 0.0
O26 O 1.0006 0.42787 0.14916 0.0
O27 O 1.06395 0.41768 0.12785 0.0
O28 O 0.9801 0.51145 0.14009 0.0
O29 O 1.00349 0.50429 0.178 0.0
O30 O 1.07233 0.54179 0.10692 0.0
O31 O 1.07797 0.48576 0.11277 0.0
H32 H 0.30181 0.59239 0.15185 0.0
H33 H 0.41441 0.66445 0.15945 0.0
H34 H 0.46173 0.59398 0.1095 0.0
H35 H 0.34816 0.52369 0.09998 0.0
H36 H 0.90446 0.44386 0.20604 0.0
H37 H 0.79188 0.37188 0.21162 0.0
H38 H 0.75456 0.37654 0.13279 0.0
H39 H 0.86619 0.44585 0.12699 0.0
Ho40 Ho 0.66915 0.04998 0.48092 0.0
Ho41 Ho 0.58241 0.06919 0.46607 0.0
C42 C 0.51721 0.95297 0.47119 0.0
C43 C 0.72286 0.02192 0.5039 0.0
C44 C 0.71236 0.97506 0.5053 0.0
C45 C 0.72153 0.96222 0.52862 0.0
C46 C 0.71046 0.91732 0.53065 0.0
C47 C 0.69037 0.88487 0.50934 0.0
C48 C 0.68133 0.89761 0.48592 0.0
C49 C 0.6918 0.94237 0.48394 0.0
C50 C 0.65369 0.04938 0.43008 0.0
C51 C 0.73518 0.16353 0.47242 0.0
C52 C 0.53154 0.10176 0.44498 0.0
C53 C 0.53601 0.14551 0.44987 0.0
C54 C 0.52631 0.16563 0.4299 0.0
C55 C 0.53419 0.20916 0.43406 0.0
C56 C 0.55137 0.23261 0.4583 0.0
C57 C 0.56107 0.21249 0.47826 0.0
C58 C 0.55378 0.16932 0.47405 0.0
C59 C 0.59833 0.06987 0.51658 0.0
O60 O 0.57275 0.97022 0.48061 0.0
O61 O 0.51069 0.98436 0.46207 0.0
O62 O 0.74197 0.04442 0.48223 0.0
O63 O 0.67916 0.02086 0.51419 0.0
O64 O 0.70705 0.06865 0.44147 0.0
O65 O 0.61108 0.03058 0.44632 0.0
O66 O 0.6813 0.14485 0.4607 0.0
O67 O 0.73898 0.13442 0.48599 0.0
O68 O 0.50362 0.06752 0.4622 0.0
O69 O 0.58381 0.11282 0.43727 0.0
O70 O 0.54694 0.05625 0.50609 0.0
O71 O 0.64001 0.08763 0.50017 0.0
H72 H 0.737 0.98686 0.54529 0.0
H73 H 0.71771 0.90789 0.54882 0.0
H74 H 0.6658 0.87279 0.46934 0.0
H75 H 0.68374 0.95134 0.4658 0.0
H76 H 0.51345 0.14803 0.41106 0.0
H77 H 0.52702 0.2246 0.41847 0.0
H78 H 0.57494 0.23056 0.49701 0.0
H79 H 0.56264 0.15484 0.48958 0.0
Ho80 Ho 0.69102 0.57409 0.81501 0.0
Ho81 Ho 0.60039 0.46252 0.82755 0.0
C82 C 0.53856 0.51555 0.82509 0.0
C83 C 0.74286 0.65743 0.79258 0.0
C84 C 0.73057 0.69215 0.78997 0.0
C85 C 0.75949 0.72667 0.77048 0.0
C86 C 0.74749 0.75932 0.76723 0.0
C87 C 0.70638 0.7579 0.78344 0.0
C88 C 0.67756 0.72349 0.80307 0.0
C89 C 0.68936 0.69057 0.80625 0.0
C90 C 0.68355 0.55616 0.86449 0.0
C91 C 0.75325 0.5221 0.81934 0.0
C92 C 0.54988 0.37748 0.84772 0.0
C93 C 0.56286 0.34304 0.84445 0.0
C94 C 0.58879 0.34227 0.82182 0.0
C95 C 0.60124 0.30973 0.81854 0.0
C96 C 0.58805 0.2775 0.83783 0.0
C97 C 0.56333 0.27886 0.86071 0.0
C98 C 0.55072 0.3115 0.86398 0.0
C99 C 0.61129 0.4808 0.77783 0.0
O100 O 0.59554 0.55661 0.81772 0.0
O101 O 0.52984 0.47481 0.83142 0.0
O102 O 0.76077 0.65571 0.81516 0.0
O103 O 0.70088 0.61262 0.78151 0.0
O104 O 0.73526 0.59436 0.85402 0.0
O105 O 0.63758 0.53196 0.8487 0.0
O106 O 0.69751 0.48264 0.82838 0.0
O107 O 0.76056 0.56069 0.81017 0.0
O108 O 0.52554 0.38143 0.8278 0.0
O109 O 0.59535 0.42134 0.85889 0.0
O110 O 0.55974 0.44136 0.7876 0.0
O111 O 0.65507 0.50489 0.7944 0.0
H112 H 0.79115 0.72818 0.7577 0.0
H113 H 0.7701 0.78567 0.75201 0.0
H114 H 0.64572 0.72194 0.81574 0.0
H115 H 0.66633 0.6639 0.82132 0.0
H116 H 0.5989 0.36658 0.80659 0.0
H117 H 0.62052 0.30924 0.80082 0.0
H118 H 0.55311 0.25426 0.87579 0.0
H119 H 0.53125 0.31196 0.88164 0.0
C120 C 0.75249 0.14735 0.15591 0.0
C121 C 0.8037 0.19524 0.16706 0.0
C122 C 0.81078 0.2009 0.19357 0.0
C123 C 0.71871 0.11244 0.19784 0.0
C124 C 0.71024 0.10629 0.17178 0.0
C125 C 0.65231 0.05223 0.16402 0.0
H126 H 0.41644 0.80965 0.20261 0.0
C127 C 0.66937 0.06317 0.20922 0.0
C128 C 0.62992 0.027 0.18963 0.0
H129 H 0.44166 0.86087 0.12656 0.0
H130 H 0.5345 0.94666 0.14086 0.0
H131 H 0.56355 0.87439 0.21832 0.0
H132 H 0.42927 0.89618 0.22685 0.0
H133 H 0.47718 0.92368 0.25442 0.0
H134 H 0.43064 0.85692 0.24742 0.0
H135 H 0.49923 0.84001 0.23998 0.0
H136 H 0.57552 0.89988 0.24915 0.0
C137 C 0.67352 0.0296 0.14669 0.0
C138 C 0.603 0.05304 0.15128 0.0
C139 C 0.66848 0.05257 0.30514 0.0
C140 C 0.62939 1.0122 0.32134 0.0
C141 C 0.58195 0.96301 0.31107 0.0
C142 C 0.5724 0.95411 0.2848 0.0
C143 C 0.61055 0.99496 0.26865 0.0
C144 C 0.65812 0.04304 0.27889 0.0
C145 C 0.69403 0.08163 0.25883 0.0
C146 C 0.65916 0.04895 0.23488 0.0
C147 C 0.61041 0.99845 0.2408 0.0
C148 C 0.76401 0.10393 0.26019 0.0
C149 C 0.68535 0.12092 0.26314 0.0
C150 C 0.44212 0.83922 0.18896 0.0
C151 C 0.42207 0.82845 0.16348 0.0
C152 C 0.45646 0.86827 0.14634 0.0
C153 C 0.51004 0.91796 0.15469 0.0
C154 C 0.52873 0.92813 0.18053 0.0
C155 C 0.49407 0.88872 0.19705 0.0
C156 C 0.51613 0.90562 0.22403 0.0
C157 C 0.5705 0.96162 0.2213 0.0
C158 C 0.57908 0.97535 0.19577 0.0
C159 C 0.53953 0.87851 0.23362 0.0
C160 C 0.46069 0.89492 0.23917 0.0
H161 H 0.77768 0.16739 0.22895 0.0
H162 H 0.74596 0.14215 0.13551 0.0
H163 H 0.59947 0.0789 0.16208 0.0
H164 H 0.55469 1.0157 0.15073 0.0
H165 H 0.61675 0.06652 0.13165 0.0
H166 H 0.71505 0.03634 0.15538 0.0
H167 H 0.68764 0.04729 0.12793 0.0
H168 H 0.63603 0.98832 0.14359 0.0
H169 H 0.70523 0.09072 0.31279 0.0
H170 H 0.55155 0.93163 0.32346 0.0
H171 H 0.53506 0.91581 0.27816 0.0
H172 H 0.76751 0.07641 0.26781 0.0
H173 H 0.79387 0.13859 0.2727 0.0
H174 H 0.78564 0.11256 0.24134 0.0
H175 H 0.63684 0.1024 0.26992 0.0
H176 H 0.68945 0.13931 0.24561 0.0
H177 H 0.72 0.15049 0.2776 0.0
H178 H 0.84958 0.23731 0.20246 0.0
C179 C 0.7689 0.16007 0.20893 0.0
C180 C 0.64645 0.67285 0.52215 0.0
C181 C 0.65826 0.71217 0.53711 0.0
C182 C 0.66471 0.71303 0.56356 0.0
C183 C 0.6473 0.63556 0.5601 0.0
C184 C 0.6417 0.63518 0.53404 0.0
C185 C 0.63111 0.59118 0.52113 0.0
H186 H 0.59715 0.38158 0.53098 0.0
C187 C 0.63987 0.59116 0.5665 0.0
C188 C 0.63092 0.56517 0.54375 0.0
H189 H 0.5915 0.44374 0.46273 0.0
H190 H 0.60928 0.51187 0.48751 0.0
H191 H 0.71441 0.48838 0.55938 0.0
H192 H 0.51107 0.39192 0.56159 0.0
H193 H 0.53887 0.41729 0.5925 0.0
H194 H 0.55381 0.3782 0.5786 0.0
H195 H 0.66488 0.42781 0.57362 0.0
H196 H 0.69436 0.48456 0.59133 0.0
C197 C 0.68805 0.61236 0.5038 0.0
C198 C 0.56568 0.55779 0.50706 0.0
C199 C 0.63936 0.55343 0.65883 0.0
C200 C 0.63108 0.51383 0.67035 0.0
C201 C 0.62437 0.47671 0.65527 0.0
C202 C 0.62481 0.47844 0.62884 0.0
C203 C 0.63184 0.51766 0.6174 0.0
C204 C 0.63936 0.55449 0.63234 0.0
C205 C 0.64577 0.59297 0.61679 0.0
C206 C 0.6397 0.5726 0.5901 0.0
C207 C 0.63169 0.52864 0.59064 0.0
C208 C 0.71255 0.64518 0.62237 0.0
C209 C 0.58971 0.59099 0.62303 0.0
C210 C 0.60039 0.41029 0.52149 0.0
C211 C 0.59378 0.40823 0.49509 0.0
C212 C 0.59703 0.44534 0.48314 0.0
C213 C 0.60723 0.48457 0.49755 0.0
C214 C 0.61362 0.48616 0.52411 0.0
C215 C 0.6099 0.44923 0.53559 0.0
C216 C 0.61514 0.45544 0.56394 0.0
C217 C 0.62367 0.50274 0.5677 0.0
C218 C 0.623 0.52073 0.54437 0.0
C219 C 0.67497 0.46419 0.57275 0.0
C220 C 0.55187 0.40833 0.57493 0.0
H221 H 0.66445 0.6775 0.59541 0.0
H222 H 0.64164 0.67184 0.50173 0.0
H223 H 0.53074 0.55684 0.51802 0.0
H224 H 0.54395 0.51781 0.50471 0.0
H225 H 0.56945 0.57263 0.48816 0.0
H226 H 0.73322 0.64635 0.51292 0.0
H227 H 0.68201 0.62368 0.48542 0.0
H228 H 0.69575 0.58548 0.50011 0.0
H229 H 0.64483 0.58241 0.67021 0.0
H230 H 0.61821 0.44612 0.66404 0.0
H231 H 0.61912 0.44892 0.61836 0.0
H232 H 0.74775 0.64098 0.62738 0.0
H233 H 0.71162 0.66584 0.63846 0.0
H234 H 0.7325 0.66929 0.6057 0.0
H235 H 0.54508 0.55122 0.62514 0.0
H236 H 0.57883 0.6057 0.60793 0.0
H237 H 0.5991 0.61222 0.64108 0.0
H238 H 0.67383 0.7433 0.57522 0.0
C239 C 0.65923 0.67488 0.57517 0.0
C240 C 0.28828 0.52064 0.831 0.0
C241 C 0.33814 0.5275 0.84484 0.0
C242 C 0.34581 0.54095 0.87078 0.0
C243 C 0.25253 0.53347 0.87004 0.0
C244 C 0.24649 0.52492 0.84409 0.0
C245 C 0.19218 0.5221 0.83382 0.0
H246 H 0.94234 0.51522 0.86839 0.0
C247 C 0.20008 0.53095 0.8792 0.0
C248 C 0.16392 0.52532 0.85818 0.0
H249 H 0.9981 0.52243 0.79152 0.0
H250 H 1.08197 0.52154 0.8065 0.0
H251 H 0.94984 0.43396 0.88424 0.0
H252 H 1.07392 0.59532 0.8913 0.0
H253 H 1.08354 0.57724 0.92013 0.0
H254 H 1.00605 0.55429 0.91072 0.0
H255 H 0.94077 0.46568 0.90843 0.0
H256 H 0.9887 0.44843 0.91357 0.0
C257 C 0.14287 0.47178 0.81894 0.0
C258 C 0.22105 0.56794 0.81734 0.0
C259 C 0.16807 0.52515 0.97475 0.0
C260 C 0.12053 0.51805 0.9892 0.0
C261 C 1.07081 0.51176 0.97702 0.0
C262 C 1.0684 0.51293 0.95069 0.0
C263 C 0.11614 0.52022 0.9362 0.0
C264 C 0.16455 0.52574 0.94823 0.0
C265 C 0.2102 0.53217 0.92965 0.0
C266 C 0.18078 0.52923 0.90441 0.0
C267 C 0.12639 0.52285 0.90856 0.0
C268 C 0.20801 0.487 0.93258 0.0
C269 C 0.27653 0.58512 0.935 0.0
C270 C 0.97236 0.51673 0.85459 0.0
C271 C 0.96336 0.5192 0.82891 0.0
C272 C 1.00389 0.52074 0.81162 0.0
C273 C 1.05276 0.52063 0.82028 0.0
C274 C 1.06175 0.51933 0.84652 0.0
C275 C 1.02069 0.51704 0.8628 0.0
C276 C 1.03398 0.51576 0.88985 0.0
C277 C 1.09155 0.52004 0.88794 0.0
C278 C 1.10909 0.52149 0.86258 0.0
C279 C 0.97544 0.4636 0.89976 0.0
C280 C 1.04981 0.56268 0.90395 0.0
H281 H 0.31273 0.55287 0.90311 0.0
H282 H 0.28169 0.51163 0.81085 0.0
H283 H 0.25897 0.60371 0.82814 0.0
H284 H 0.18508 0.57026 0.81118 0.0
H285 H 0.24239 0.56573 0.80018 0.0
H286 H 0.12483 0.43937 0.83098 0.0
H287 H 0.16427 0.46932 0.80189 0.0
H288 H 1.10177 0.46787 0.81267 0.0
H289 H 0.2069 0.53026 0.98389 0.0
H290 H 1.03414 0.50658 0.98803 0.0
H291 H 1.02957 0.50864 0.94282 0.0
H292 H 0.15813 0.45113 0.93435 0.0
H293 H 0.23501 0.49248 0.94986 0.0
H294 H 0.22636 0.48018 0.9162 0.0
H295 H 0.2731 0.61116 0.94568 0.0
H296 H 0.30069 0.60488 0.91732 0.0
H297 H 0.3078 0.58241 0.94634 0.0
H298 H 0.38377 0.54773 0.88184 0.0
C299 C 0.30391 0.54374 0.88325 0.0
C300 C 0.98777 0.416 0.4567 0.0
C301 C 0.94213 0.36716 0.44525 0.0
C302 C 0.94141 0.36068 0.41887 0.0
C303 C 1.03111 0.44986 0.41528 0.0
C304 C 1.03198 0.45706 0.44122 0.0
C305 C 1.08416 0.51228 0.44931 0.0
H306 H 0.34441 0.7493 0.41375 0.0
C307 C 1.0829 0.49883 0.40434 0.0
C308 C 0.11492 0.53614 0.42402 0.0
H309 H 0.26348 0.70886 0.48802 0.0
H310 H 0.18122 0.62115 0.47292 0.0
H311 H 0.31872 0.64507 0.39579 0.0
H312 H 0.21986 0.70061 0.38841 0.0
H313 H 0.19566 0.66023 0.36175 0.0
H314 H 0.27846 0.71619 0.36617 0.0
H315 H 0.34674 0.69973 0.37861 0.0
H316 H 0.29416 0.63751 0.36383 0.0
C317 C 0.13041 0.51637 0.46783 0.0
C318 C 1.05279 0.53224 0.46079 0.0
C319 C 0.11437 0.50349 0.30952 0.0
C320 C 0.15395 0.54318 0.29302 0.0
C321 C 0.19861 0.59313 0.30304 0.0
C322 C 0.20421 0.60324 0.32927 0.0
C323 C 0.16357 0.56314 0.34557 0.0
C324 C 0.11903 0.51445 0.33551 0.0
C325 C 1.07635 0.47716 0.35525 0.0
C326 C 1.10298 0.51137 0.37897 0.0
C327 C 0.15469 0.56134 0.37328 0.0
C328 C 1.08618 0.43828 0.35603 0.0
C329 C 1.00729 0.45412 0.3487 0.0
C330 C 0.30963 0.72142 0.42692 0.0
C331 C 0.31113 0.73581 0.45216 0.0
C332 C 0.26383 0.69854 0.46853 0.0
C333 C 0.21595 0.64785 0.45968 0.0
C334 C 0.21427 0.63463 0.43402 0.0
C335 C 0.26039 0.67175 0.41816 0.0
C336 C 0.24781 0.65391 0.39094 0.0
C337 C 0.18843 0.59908 0.39299 0.0
C338 C 0.16872 0.58713 0.41828 0.0
C339 C 0.3048 0.65943 0.38158 0.0
C340 C 0.23514 0.68429 0.37587 0.0
H341 H 0.98209 0.39339 0.38398 0.0
H342 H 0.98908 0.42178 0.47702 0.0
H343 H 1.0096 0.51761 0.44951 0.0
H344 H 1.08406 0.57381 0.46064 0.0
H345 H 1.03822 0.51993 0.48054 0.0
H346 H 0.14449 0.49515 0.45994 0.0
H347 H 1.10775 0.50021 0.48631 0.0
H348 H 0.17475 0.55569 0.47136 0.0
H349 H 1.07916 0.46484 0.30221 0.0
H350 H 0.22931 0.6242 0.29053 0.0
H351 H 0.23973 0.6419 0.33578 0.0
H352 H 0.13675 0.45692 0.35285 0.0
H353 H 1.05691 0.40799 0.34107 0.0
H354 H 1.0756 0.42078 0.37459 0.0
H355 H 1.00655 0.48032 0.33754 0.0
H356 H 0.97985 0.44745 0.36573 0.0
H357 H 0.9812 0.41817 0.3373 0.0
H358 H 0.90679 0.32346 0.40982 0.0
C359 C 0.98539 0.40148 0.40391 0.0
C360 C 0.66855 0.92823 0.77016 0.0
C361 C 0.67302 0.89741 0.75461 0.0
C362 C 0.6723 0.90032 0.72812 0.0
C363 C 0.66299 0.96442 0.73279 0.0
C364 C 0.66381 0.96158 0.75885 0.0
C365 C 0.65939 0.9977 0.77239 0.0
H366 H 0.62533 0.17274 0.76518 0.0
C367 C 0.65754 1.00262 0.72704 0.0
C368 C 0.65562 0.02247 0.75017 0.0
H369 H 0.64084 0.11478 0.83286 0.0
H370 H 0.6531 0.06268 0.8073 0.0
H371 H 0.73724 0.18808 0.73587 0.0
H372 H 0.53436 0.0687 0.73449 0.0
H373 H 0.55829 0.07561 0.70301 0.0
H374 H 0.5728 0.12798 0.71993 0.0
H375 H 0.68476 0.19334 0.72003 0.0
H376 H 0.7148 0.16647 0.70414 0.0
C377 C 0.72091 0.03602 0.78865 0.0
C378 C 0.59765 0.96631 0.78773 0.0
C379 C 0.64225 0.03561 0.63529 0.0
C380 C 0.6347 0.06766 0.62436 0.0
C381 C 0.63297 0.09993 0.64002 0.0
C382 C 0.63769 0.09984 0.6664 0.0
C383 C 0.64398 0.06694 0.67724 0.0
C384 C 0.64668 0.03583 0.66175 0.0
C385 C 0.65321 1.00333 0.67673 0.0
C386 C 0.65355 0.01986 0.70372 0.0
C387 C 0.64799 0.05698 0.70382 0.0
C388 C 0.71743 1.0176 0.67017 0.0
C389 C 0.594 0.9472 0.67073 0.0
C390 C 0.63169 0.14891 0.77438 0.0
C391 C 0.63204 0.14734 0.80083 0.0
C392 C 0.64047 0.1162 0.8124 0.0
C393 C 0.64736 0.08606 0.79754 0.0
C394 C 0.64582 0.08732 0.77091 0.0
C395 C 0.63871 0.11887 0.75987 0.0
C396 C 0.63829 0.11584 0.73147 0.0
C397 C 0.64585 0.07698 0.72712 0.0
C398 C 0.64999 0.06012 0.75021 0.0
C399 C 0.69635 0.16858 0.72218 0.0
C400 C 0.57291 0.09639 0.72149 0.0
H401 H 0.66711 0.93413 0.69683 0.0
H402 H 0.66911 0.92652 0.7906 0.0
H403 H 0.55815 0.93144 0.77675 0.0
H404 H 0.5804 0.98659 0.79198 0.0
H405 H 0.60431 0.95453 0.80579 0.0
H406 H 0.76284 0.04578 0.77876 0.0
H407 H 0.71782 0.02016 0.80712 0.0
H408 H 0.73225 0.07249 0.79211 0.0
H409 H 0.64369 1.01051 0.62349 0.0
H410 H 0.6272 0.12481 0.63175 0.0
H411 H 0.63554 0.12503 0.6773 0.0
H412 H 0.75417 0.05864 0.66651 0.0
H413 H 0.71257 0.99628 0.65291 0.0
H414 H 0.73776 1.01144 0.68585 0.0
H415 H 0.55068 0.94261 0.6683 0.0
H416 H 0.58283 0.92199 0.68615 0.0
H417 H 0.59985 0.93304 0.65292 0.0
H418 H 0.67574 0.87673 0.71595 0.0
C419 C 0.66735 0.93365 0.71712 0.0
C420 C 0.59375 0.41065 0.13804 0.0
C421 C 0.61485 0.3847 0.13113 0.0
C422 C 0.63037 0.38503 0.10562 0.0
C423 C 0.61647 0.44466 0.09602 0.0
C424 C 0.60021 0.44358 0.12091 0.0
C425 C 0.60496 0.48799 0.12799 0.0
H426 H 0.68061 0.70639 0.09518 0.0
C427 C 0.62849 0.48787 0.08416 0.0
C428 C 0.62363 0.51425 0.10301 0.0
H429 H 0.61549 0.6336 0.16766 0.0
H430 H 0.60789 0.56649 0.15085 0.0
H431 H 0.77316 0.68015 0.08113 0.0
H432 H 0.58058 0.61376 0.06535 0.0
H433 H 0.60161 0.59621 0.03903 0.0
H434 H 0.64433 0.66239 0.04623 0.0
H435 H 0.75051 0.70744 0.06143 0.0
H436 H 0.75669 0.66247 0.04863 0.0
C437 C 0.65893 0.5211 0.14838 0.0
C438 C 0.53889 0.46777 0.13646 0.0
C439 C 0.65759 0.51006 0.989 0.0
C440 C 0.67013 0.54751 0.97339 0.0
C441 C 0.68172 0.59007 0.98438 0.0
C442 C 0.67929 0.5949 0.01057 0.0
C443 C 0.6653 0.55683 0.026 0.0
C444 C 0.6558 0.51566 0.01532 0.0
C445 C 0.64528 0.48072 0.03515 0.0
C446 C 0.64374 0.50532 0.05905 0.0
C447 C 0.65645 0.55017 0.05349 0.0
C448 C 0.70274 0.48267 0.03539 0.0
C449 C 0.58081 0.42716 0.02961 0.0
C450 C 0.6668 0.67749 0.10807 0.0
C451 C 0.64907 0.67733 0.13319 0.0
C452 C 0.63057 0.6369 0.14841 0.0
C453 C 0.62583 0.59699 0.13856 0.0
C454 C 0.64161 0.59736 0.11335 0.0
C455 C 0.66186 0.6372 0.09858 0.0
C456 C 0.67083 0.62889 0.07152 0.0
C457 C 0.65516 0.57843 0.07286 0.0
C458 C 0.63827 0.56029 0.09742 0.0
C459 C 0.74133 0.67202 0.06509 0.0
C460 C 0.62236 0.6254 0.05449 0.0
H461 H 0.64312 0.41347 0.06895 0.0
H462 H 0.58148 0.41107 0.15746 0.0
H463 H 0.50021 0.43251 0.12548 0.0
H464 H 0.531 0.49438 0.13294 0.0
H465 H 0.53202 0.4589 0.15685 0.0
H466 H 0.70011 0.52398 0.14354 0.0
H467 H 0.64244 0.50477 0.16739 0.0
H468 H 0.67951 0.56074 0.14967 0.0
H469 H 0.6494 0.47738 0.98084 0.0
H470 H 0.69178 0.6193 0.97253 0.0
H471 H 0.68802 0.628 0.01775 0.0
H472 H 0.74341 0.51476 0.02462 0.0
H473 H 0.6897 0.44749 0.02678 0.0
H474 H 0.72218 0.48867 0.05484 0.0
H475 H 0.54229 0.42869 0.02744 0.0
H476 H 0.56718 0.40115 0.04498 0.0
H477 H 0.58235 0.4103 0.01181 0.0
H478 H 0.64653 0.36522 0.09966 0.0
C479 C 0.62962 0.41382 0.0879 0.0
C480 C 0.5419 0.67727 0.16446 0.0
C481 C 0.51459 0.67519 0.14108 0.0
C482 C 0.61983 0.72919 0.12305 0.0
C483 C 0.63756 0.71233 0.14181 0.0
N484 N 0.64074 0.71305 0.187 0.0
N485 N 0.53101 0.71202 0.10057 0.0
C486 C 0.6076 0.70241 0.16512 0.0
C487 C 0.55509 0.70652 0.12126 0.0
N488 N 0.50512 0.65182 0.18484 0.0
N489 N 0.66486 0.76681 0.10784 0.0
H490 H 0.48395 0.697 0.09959 0.0
H491 H 0.55732 0.73037 0.08449 0.0
H492 H 0.71253 0.7838 0.11028 0.0
H493 H 0.65558 0.78305 0.09466 0.0
H494 H 0.52256 0.64828 0.20125 0.0
H495 H 0.45665 0.63259 0.18495 0.0
H496 H 0.62234 0.70874 0.20491 0.0
H497 H 0.68843 0.72952 0.18655 0.0
C498 C 0.78579 0.25554 0.47347 0.0
C499 C 0.79208 0.21836 0.47028 0.0
C500 C 0.9053 0.28595 0.46168 0.0
C501 C 0.89556 0.32079 0.45984 0.0
N502 N 0.82607 0.33917 0.46317 0.0
N503 N 0.85763 0.19839 0.45773 0.0
C504 C 0.83583 0.30589 0.46583 0.0
C505 C 0.8521 0.23364 0.46388 0.0
N506 N 0.73275 0.24311 0.48433 0.0
N507 N 0.96561 0.30298 0.46066 0.0
H508 H 0.81966 0.15958 0.45738 0.0
H509 H 0.89869 0.20766 0.45033 0.0
H510 H 1.00524 0.3412 0.4589 0.0
H511 H 0.9767 0.28029 0.4642 0.0
H512 H 0.72783 0.26952 0.48908 0.0
H513 H 0.69623 0.20724 0.49098 0.0
H514 H 0.78147 0.32877 0.46414 0.0
H515 H 0.86237 0.37679 0.45861 0.0
C516 C 0.63557 0.77448 0.76853 0.0
C517 C 0.69416 0.79292 0.77958 0.0
C518 C 0.73776 0.88028 0.77614 0.0
C519 C 0.67869 0.86181 0.76565 0.0
N520 N 0.56724 0.79218 0.75735 0.0
N521 N 0.79514 0.86169 0.79951 0.0
C522 C 0.6262 0.80907 0.76364 0.0
C523 C 0.74341 0.84539 0.78519 0.0
N524 N 0.5901 0.72437 0.76158 0.0
N525 N 0.78925 0.93093 0.77635 0.0
H526 H 0.80051 0.837 0.80653 0.0
H527 H 0.82966 0.89885 0.80639 0.0
H528 H 0.78698 0.9578 0.77014 0.0
H529 H 0.83526 0.94604 0.78096 0.0
H530 H 0.54956 0.70971 0.75082 0.0
H531 H 0.59491 0.69772 0.76494 0.0
H532 H 0.52588 0.75443 0.75802 0.0
H533 H 0.55887 0.81663 0.75371 0.0
C534 C 0.68627 0.37321 0.18908 0.0
C535 C 0.6954 0.34175 0.17772 0.0
C536 C 0.61394 0.31603 0.1462 0.0
C537 C 0.63023 0.36379 0.15078 0.0
N538 N 0.69337 0.44202 0.17718 0.0
N539 N 0.64993 0.26881 0.15092 0.0
C540 C 0.66767 0.39315 0.17299 0.0
C541 C 0.65077 0.30671 0.15871 0.0
N542 N 0.70358 0.38914 0.21375 0.0
N543 N 0.56523 0.281 0.12978 0.0
H544 H 0.67778 0.26313 0.16035 0.0
H545 H 0.62391 0.24492 0.13515 0.0
H546 H 0.5371 0.28708 0.12107 0.0
H547 H 0.54954 0.24477 0.12671 0.0
H548 H 0.69677 0.41223 0.22273 0.0
H549 H 0.71738 0.37409 0.22549 0.0
H550 H 0.72365 0.46416 0.19266 0.0
H551 H 0.693 0.46279 0.16367 0.0
C552 C 0.45206 0.86184 0.48551 0.0
C553 C 0.46319 0.89682 0.46771 0.0
C554 C 0.36438 0.82648 0.44524 0.0
C555 C 0.35956 0.79086 0.45999 0.0
N556 N 0.40777 0.77577 0.49165 0.0
N557 N 0.43887 0.90594 0.42529 0.0
C558 C 0.4058 0.80876 0.47953 0.0
C559 C 0.42168 0.8775 0.44611 0.0
N560 N 0.48361 0.87855 0.50841 0.0
N561 N 0.31451 0.8117 0.43015 0.0
H562 H 0.48437 0.94055 0.42317 0.0
H563 H 0.41132 0.89157 0.40859 0.0
H564 H 0.27072 0.77488 0.42971 0.0
H565 H 0.31476 0.83742 0.42042 0.0
H566 H 0.47265 0.85414 0.52271 0.0
H567 H 0.51557 0.91649 0.5143 0.0
H568 H 0.44475 0.78767 0.50409 0.0
H569 H 0.37594 0.73695 0.48749 0.0
C570 C 0.54662 0.19003 0.82669 0.0
C571 C 0.5988 0.24146 0.83337 0.0
C572 C 0.67359 0.22885 0.82275 0.0
C573 C 0.62139 0.1776 0.81588 0.0
N574 N 0.50924 0.10607 0.8167 0.0
N575 N 0.7104 0.30731 0.84329 0.0
C576 C 0.55816 0.15708 0.81978 0.0
C577 C 0.66191 0.26001 0.83324 0.0
N578 N 0.48642 0.17345 0.82547 0.0
N579 N 0.73409 0.24811 0.81824 0.0
H580 H 0.70312 0.33093 0.85106 0.0
H581 H 0.75676 0.32163 0.84586 0.0
H582 H 0.7443 0.22574 0.81158 0.0
H583 H 0.77385 0.28647 0.81986 0.0
H584 H 0.44744 0.13822 0.81777 0.0
H585 H 0.47577 0.19619 0.83059 0.0
H586 H 0.46267 0.08796 0.82165 0.0
H587 H 0.51619 0.08108 0.81125 0.0
C588 C 0.73257 0.83997 0.51133 0.0
C589 C 0.67977 0.83777 0.51187 0.0
C590 C 0.61048 0.75013 0.52521 0.0
C591 C 0.66372 0.75287 0.52545 0.0
N592 N 0.77181 0.79518 0.51433 0.0
N593 N 0.56689 0.7895 0.51435 0.0
C594 C 0.72365 0.79617 0.51697 0.0
C595 C 0.61803 0.79224 0.51712 0.0
N596 N 0.79157 0.88458 0.50634 0.0
N597 N 0.55338 0.70785 0.5336 0.0
H598 H 0.57108 0.82013 0.50914 0.0
H599 H 0.51987 0.75624 0.51546 0.0
H600 H 0.54544 0.67538 0.53842 0.0
H601 H 0.51449 0.70532 0.53686 0.0
H602 H 0.83346 0.89089 0.5086 0.0
H603 H 0.79922 0.91663 0.50088 0.0
H604 H 0.81477 0.82341 0.50593 0.0
H605 H 0.76731 0.76416 0.51897 0.0
C606 C 0.79984 0.47887 0.81081 0.0
C607 C 0.80875 0.52246 0.81928 0.0
C608 C 0.92312 0.56693 0.82682 0.0
C609 C 0.91224 0.52161 0.82158 0.0
N610 N 0.83713 0.43224 0.81149 0.0
N611 N 0.87916 0.6055 0.83997 0.0
C612 C 0.84971 0.47704 0.81428 0.0
C613 C 0.87071 0.56602 0.82827 0.0
N614 N 0.74451 0.43962 0.79846 0.0
N615 N 0.98414 0.61132 0.83048 0.0
H616 H 0.84239 0.60587 0.84273 0.0
H617 H 0.9212 0.6356 0.8494 0.0
H618 H 1.02321 0.61325 0.82969 0.0
H619 H 0.99635 0.64657 0.83175 0.0
H620 H 0.73747 0.40925 0.78959 0.0
H621 H 0.70774 0.43966 0.79483 0.0
H622 H 0.79132 0.3973 0.80944 0.0
H623 H 0.87242 0.42971 0.81294 0.0
C624 C 0.31124 0.69446 0.13257 0.0
C625 C 0.25662 0.67 0.1481 0.0
C626 C 0.30584 0.75315 0.16804 0.0
C627 C 0.36379 0.77548 0.15573 0.0
N628 N 0.4248 0.76328 0.12995 0.0
N629 N 0.21469 0.67706 0.18659 0.0
C630 C 0.36741 0.74506 0.13895 0.0
C631 C 0.25702 0.6996 0.16739 0.0
N632 N 0.30979 0.6706 0.11126 0.0
N633 N 0.29742 0.78301 0.18062 0.0
H634 H 0.18361 0.63826 0.18925 0.0
H635 H 0.21696 0.69753 0.20201 0.0
H636 H 0.33165 0.82245 0.18108 0.0
H637 H 0.25398 0.76865 0.18814 0.0
H638 H 0.34635 0.68896 0.09829 0.0
H639 H 0.27003 0.6346 0.10485 0.0
H640 H 0.43101 0.74051 0.12014 0.0
H641 H 0.4672 0.7997 0.13435 0.0
C642 C 0.50777 0.27484 0.46917 0.0
C643 C 0.56072 0.2791 0.46302 0.0
C644 C 0.63289 0.37093 0.47106 0.0
C645 C 0.58108 0.36556 0.48048 0.0
N646 N 0.46944 0.31411 0.4886 0.0
N647 N 0.67329 0.32974 0.45743 0.0
C648 C 0.51834 0.31805 0.4792 0.0
C649 C 0.6232 0.32692 0.46345 0.0
N650 N 0.44754 0.22941 0.46546 0.0
N651 N 0.69121 0.41818 0.46954 0.0
H652 H 0.66753 0.2986 0.45062 0.0
H653 H 0.72072 0.36218 0.46013 0.0
H654 H 0.69991 0.451 0.47546 0.0
H655 H 0.72991 0.42556 0.46079 0.0
H656 H 0.4066 0.2246 0.46715 0.0
H657 H 0.43823 0.19665 0.45889 0.0
H658 H 0.42394 0.27992 0.49125 0.0
H659 H 0.47504 0.34545 0.49485 0.0
C660 C 0.43658 0.48713 0.84661 0.0
C661 C 0.4838 0.51621 0.82787 0.0
C662 C 0.4316 0.55134 0.8177 0.0
C663 C 0.38152 0.51825 0.83459 0.0
N664 N 0.32815 0.44356 0.85887 0.0
N665 N 0.51279 0.56627 0.79077 0.0
C666 C 0.38129 0.48227 0.84669 0.0
C667 C 0.47741 0.54552 0.81199 0.0
N668 N 0.44619 0.46743 0.86595 0.0
N669 N 0.43715 0.5896 0.80766 0.0
H670 H 0.54326 0.56051 0.78464 0.0
H671 H 0.50615 0.58418 0.77757 0.0
H672 H 0.40429 0.59434 0.81094 0.0
H673 H 0.47673 0.61854 0.7977 0.0
H674 H 0.41553 0.44986 0.8811 0.0
H675 H 0.48854 0.47481 0.8691 0.0
H676 H 0.32318 0.41376 0.86621 0.0
H677 H 0.28677 0.43854 0.85904 0.0
C678 C 0.8933 0.32106 0.13461 0.0
C679 C 0.95685 0.3421 0.13993 0.0
C680 C 0.91532 0.2581 0.15234 0.0
C681 C 0.85276 0.24058 0.15211 0.0
N682 N 0.78159 0.25598 0.14386 0.0
N683 N 1.02748 0.33048 0.15685 0.0
C684 C 0.8414 0.27196 0.14311 0.0
C685 C 0.96789 0.31038 0.1491 0.0
N686 N 0.88255 0.34775 0.12109 0.0
N687 N 0.92436 0.22467 0.15625 0.0
H688 H 1.06734 0.36867 0.15606 0.0
H689 H 1.03657 0.30998 0.16636 0.0
H690 H 0.8865 0.18627 0.15877 0.0
H691 H 0.96816 0.2339 0.15436 0.0
H692 H 0.83755 0.33281 0.11479 0.0
H693 H 0.91923 0.38302 0.1139 0.0
H694 H 0.77176 0.27957 0.14063 0.0
H695 H 0.74225 0.21978 0.1492 0.0
C696 C 0.14244 0.56374 0.05767 0.0
C697 C 1.10017 0.51645 0.06963 0.0
C698 C 1.08787 0.47267 0.02972 0.0
C699 C 0.12248 0.51891 0.01724 0.0
N700 N 0.17973 0.60837 0.01837 0.0
N701 N 1.02265 0.42492 0.06528 0.0
C702 C 0.14936 0.56451 0.03099 0.0
C703 C 1.07082 0.47055 0.05532 0.0
N704 N 0.17733 0.60807 0.07181 0.0
N705 N 1.07043 0.43057 0.01692 0.0
H706 H 1.00432 0.42119 0.08308 0.0
H707 H 0.99553 0.39082 0.05478 0.0
H708 H 1.08127 0.43083 -0.00203 0.0
H709 H 1.05083 0.39696 0.0257 0.0
H710 H 0.21404 0.64319 0.06456 0.0
H711 H 0.17398 0.60982 0.09135 0.0
H712 H 0.19264 0.64142 0.02668 0.0
H713 H 0.18886 0.61099 -0.00095 0.0
C714 C 0.67167 0.01814 0.39066 0.0
C715 C 0.64069 0.03375 0.40253 0.0
C716 C 0.5999 0.03274 0.36095 0.0
C717 C 0.6351 0.02124 0.34917 0.0
N718 N 0.71027 1.00859 0.35188 0.0
N719 N 0.55613 0.03649 0.39942 0.0
C720 C 0.67254 1.01542 0.36377 0.0
C721 C 0.59933 0.03565 0.38784 0.0
N722 N 0.69458 1.00091 0.40506 0.0
N723 N 0.56838 0.04237 0.34634 0.0
H724 H 0.54973 0.03388 0.4188 0.0
H725 H 0.52062 0.03291 0.38981 0.0
H726 H 0.56569 0.03886 0.3266 0.0
H727 H 0.54913 0.05775 0.35353 0.0
H728 H 0.71268 0.98485 0.3975 0.0
H729 H 0.68755 0.99605 0.42449 0.0
H730 H 0.74457 1.0103 0.36131 0.0
H731 H 0.71104 1.00532 0.33221 0.0
C732 C 0.57116 0.48952 0.73774 0.0
C733 C 0.61864 0.49267 0.75061 0.0
C734 C 0.68011 0.52067 0.71177 0.0
C735 C 0.62852 0.51029 0.69826 0.0
N736 N 0.5211 0.4786 0.69746 0.0
N737 N 0.71304 0.50222 0.7483 0.0
C738 C 0.57299 0.49315 0.71098 0.0
C739 C 0.67213 0.5063 0.73731 0.0
N740 N 0.52561 0.48494 0.75109 0.0
N741 N 0.73694 0.54463 0.70024 0.0
H742 H 0.70712 0.48879 0.76634 0.0
H743 H 0.74888 0.50672 0.7385 0.0
H744 H 0.74434 0.5556 0.68148 0.0
H745 H 0.77821 0.55794 0.70997 0.0
H746 H 0.49413 0.48798 0.74294 0.0
H747 H 0.5232 0.48331 0.77076 0.0
H748 H 0.47689 0.46025 0.70544 0.0
H749 H 0.52063 0.48111 0.67784 0.0
C750 C 0.56126 0.02495 0.55771 0.0
C751 C 0.60815 0.06898 0.54412 0.0
C752 C 0.6764 0.10817 0.58244 0.0
C753 C 0.62664 0.06676 0.59653 0.0
N754 N 0.51767 0.98926 0.59861 0.0
N755 N 0.7043 0.15699 0.5452 0.0
C756 C 0.5679 0.02606 0.58446 0.0
C757 C 0.66436 0.11181 0.55686 0.0
N758 N 0.51161 0.98132 0.54505 0.0
N759 N 0.73544 0.14374 0.59341 0.0
H760 H 0.69521 0.16253 0.52715 0.0
H761 H 0.74261 0.19053 0.55449 0.0
H762 H 0.7459 0.1423 0.61216 0.0
H763 H 0.77523 0.17185 0.58327 0.0
H764 H 0.48023 0.94671 0.55371 0.0
H765 H 0.50507 0.97824 0.52545 0.0
H766 H 0.47166 0.96198 0.59116 0.0
H767 H 0.52061 0.98841 0.61825 0.0
C768 C 0.63035 0.5472 0.90507 0.0
C769 C 0.67704 0.54962 0.8922 0.0
C770 C 0.71909 0.5489 0.93286 0.0
C771 C 0.66915 0.54241 0.94537 0.0
N772 N 0.56786 0.52184 0.94273 0.0
N773 N 0.75741 0.54208 0.89327 0.0
C774 C 0.62158 0.53696 0.9312 0.0
C775 C 0.71891 0.5472 0.90593 0.0
N776 N 0.59765 0.55847 0.89299 0.0
N777 N 0.76813 0.55895 0.94661 0.0
H778 H 0.7581 0.54017 0.87357 0.0
H779 H 0.78414 0.53498 0.90224 0.0
H780 H 0.77001 0.56043 0.96637 0.0
H781 H 0.80932 0.56971 0.93845 0.0
H782 H 0.56761 0.56197 0.90234 0.0
H783 H 0.60562 0.56988 0.87434 0.0
H784 H 0.52898 0.51266 0.93273 0.0
H785 H 0.55956 0.51342 0.96187 0.0
C786 C 1.07909 0.48962 0.22721 0.0
C787 C 0.13272 0.50752 0.21285 0.0
C788 C 0.19947 0.54423 0.25148 0.0
C789 C 0.14745 0.5322 0.26522 0.0
N790 N 1.04125 0.5035 0.26449 0.0
N791 N 0.24653 0.55925 0.21042 0.0
C792 C 1.08815 0.50776 0.25261 0.0
C793 C 0.1938 0.53716 0.2247 0.0
N794 N 1.01931 0.45384 0.21699 0.0
N795 N 0.25308 0.56 0.26402 0.0
H796 H 0.24434 0.55448 0.19076 0.0
H797 H 0.29269 0.58568 0.21789 0.0
H798 H 0.25827 0.56376 0.28371 0.0
H799 H 0.28971 0.56439 0.25505 0.0
H800 H 0.97845 0.43571 0.22761 0.0
H801 H 1.01093 0.43862 0.19862 0.0
H802 H 0.99942 0.4901 0.25521 0.0
H803 H 1.04689 0.51829 0.28275 0.0
loop_
_geom_bond_atom_site_label_1
_geom_bond_atom_site_label_2
_geom_bond_distance
_geom_bond_site_symmetry_2
_ccdc_geom_bond_type
Ho0 C3 2.811 . S
Ho0 O20 2.322 . S
Ho0 O22 2.378 . S
Ho0 O23 2.524 . S
Ho0 O24 2.381 . S
Ho0 O25 2.669 . S
Ho0 O27 2.346 1_455 S
Ho0 O31 2.305 . S
Ho1 C12 2.811 . S
Ho1 O21 2.346 1_655 S
Ho1 O25 2.305 1_655 S
Ho1 O26 2.322 . S
Ho1 O28 2.378 . S
Ho1 O29 2.524 . S
Ho1 O30 2.381 . S
Ho1 O31 2.669 1_655 S
C2 O20 1.259 . S
C2 O21 1.268 . S
C3 Ho0 2.811 . S
C3 C4 1.488 . S
C3 O22 1.215 . S
C3 O23 1.289 . S
C4 C3 1.488 . S
C4 C5 1.348 . S
C4 C9 1.413 . S
C5 C4 1.348 . S
C5 C6 1.442 . S
C5 H32 0.930 . S
C6 C5 1.442 . S
C6 C7 1.381 . S
C6 H33 0.931 . S
C7 C6 1.381 . S
C7 C8 1.321 . S
C8 C7 1.321 . S
C8 C9 1.403 . S
C8 H34 0.934 . S
C9 C4 1.413 . S
C9 C8 1.403 . S
C9 H35 0.930 . S
C10 O24 1.275 . S
C10 O25 1.256 . S
C11 O26 1.259 . S
C11 O27 1.268 . S
C12 Ho1 2.811 . S
C12 C13 1.488 . S
C12 O28 1.215 . S
C12 O29 1.289 . S
C13 C12 1.488 . S
C13 C14 1.348 . S
C13 C18 1.413 . S
C14 C13 1.348 . S
C14 C15 1.442 . S
C14 H36 0.930 . S
C15 C14 1.442 . S
C15 C16 1.381 . S
C15 H37 0.931 . S
C16 C15 1.381 . S
C16 C17 1.321 . S
C17 C16 1.321 . S
C17 C18 1.403 . S
C17 H38 0.934 . S
C18 C13 1.413 . S
C18 C17 1.403 . S
C18 H39 0.930 . S
C19 O30 1.275 1_455 S
C19 O31 1.256 . S
O20 Ho0 2.322 . S
O20 C2 1.259 . S
O21 Ho1 2.346 1_455 S
O21 C2 1.268 . S
O22 Ho0 2.378 . S
O22 C3 1.215 . S
O23 Ho0 2.524 . S
O23 C3 1.289 . S
O24 Ho0 2.381 . S
O24 C10 1.275 . S
O25 Ho0 2.669 . S
O25 Ho1 2.305 1_455 S
O25 C10 1.256 . S
O26 Ho1 2.322 . S
O26 C11 1.259 . S
O27 Ho0 2.346 1_655 S
O27 C11 1.268 . S
O28 Ho1 2.378 . S
O28 C12 1.215 . S
O29 Ho1 2.524 . S
O29 C12 1.289 . S
O30 Ho1 2.381 . S
O30 C19 1.275 1_655 S
O31 Ho0 2.305 . S
O31 Ho1 2.669 1_455 S
O31 C19 1.256 . S
H32 C5 0.930 . S
H33 C6 0.931 . S
H34 C8 0.934 . S
H35 C9 0.930 . S
H36 C14 0.930 . S
H37 C15 0.931 . S
H38 C17 0.934 . S
H39 C18 0.930 . S
Ho40 C43 2.811 . S
Ho40 O60 2.322 . S
Ho40 O62 2.378 . S
Ho40 O63 2.524 . S
Ho40 O64 2.381 . S
Ho40 O65 2.669 1_565 S
Ho40 O67 2.346 1_565 S
Ho40 O71 2.319 . S
Ho41 C52 2.811 . S
Ho41 O61 2.346 1_545 S
Ho41 O65 2.305 . S
Ho41 O66 2.322 . S
Ho41 O68 2.378 . S
Ho41 O69 2.524 . S
Ho41 O70 2.381 . S
Ho41 O71 2.646 1_545 S
C42 O60 1.259 . S
C42 O61 1.268 . S
C43 Ho40 2.811 . S
C43 C44 1.488 . S
C43 O62 1.215 . S
C43 O63 1.289 . S
C44 C43 1.488 . S
C44 C45 1.348 . S
C44 C49 1.413 . S
C45 C44 1.348 . S
C45 C46 1.442 . S
C45 H72 0.930 . S
C46 C45 1.442 . S
C46 C47 1.381 . S
C46 H73 0.931 . S
C47 C46 1.381 . S
C47 C48 1.321 . S
C48 C47 1.321 . S
C48 C49 1.403 . S
C48 H74 0.934 . S
C49 C44 1.413 . S
C49 C48 1.403 . S
C49 H75 0.930 . S
C50 O64 1.275 1_545 S
C50 O65 1.256 . S
C51 O66 1.259 . S
C51 O67 1.268 . S
C52 Ho41 2.811 . S
C52 C53 1.488 . S
C52 O68 1.215 . S
C52 O69 1.289 . S
C53 C52 1.488 . S
C53 C54 1.348 . S
C53 C58 1.413 . S
C54 C53 1.348 . S
C54 C55 1.442 . S
C54 H76 0.930 . S
C55 C54 1.442 . S
C55 C56 1.381 . S
C55 H77 0.931 . S
C56 C55 1.381 . S
C56 C57 1.321 . S
C57 C56 1.321 . S
C57 C58 1.403 . S
C57 H78 0.934 . S
C58 C53 1.413 . S
C58 C57 1.403 . S
C58 H79 0.930 . S
C59 O70 1.275 . S
C59 O71 1.243 1_545 S
O60 Ho40 2.322 . S
O60 C42 1.259 . S
O61 Ho41 2.346 1_565 S
O61 C42 1.268 . S
O62 Ho40 2.378 . S
O62 C43 1.215 . S
O63 Ho40 2.524 . S
O63 C43 1.289 . S
O64 Ho40 2.381 . S
O64 C50 1.275 1_565 S
O65 Ho40 2.669 1_545 S
O65 Ho41 2.305 . S
O65 C50 1.256 . S
O66 Ho41 2.322 . S
O66 C51 1.259 . S
O67 Ho40 2.346 1_545 S
O67 C51 1.268 . S
O68 Ho41 2.378 . S
O68 C52 1.215 . S
O69 Ho41 2.524 . S
O69 C52 1.289 . S
O70 Ho41 2.381 . S
O70 C59 1.275 . S
O71 Ho40 2.319 . S
O71 Ho41 2.646 1_565 S
O71 C59 1.243 1_565 S
H72 C45 0.930 . S
H73 C46 0.931 . S
H74 C48 0.934 . S
H75 C49 0.930 . S
H76 C54 0.930 . S
H77 C55 0.931 . S
H78 C57 0.934 . S
H79 C58 0.930 . S
Ho80 C83 2.811 . S
Ho80 O100 2.322 . S
Ho80 O102 2.378 . S
Ho80 O103 2.524 . S
Ho80 O104 2.381 . S
Ho80 O105 2.669 . S
Ho80 O107 2.346 . S
Ho80 O111 2.305 . S
Ho81 C92 2.811 . S
Ho81 O101 2.346 . S
Ho81 O105 2.305 . S
Ho81 O106 2.322 . S
Ho81 O108 2.378 . S
Ho81 O109 2.524 . S
Ho81 O110 2.381 . S
Ho81 O111 2.669 . S
C82 O100 1.259 . S
C82 O101 1.268 . S
C83 Ho80 2.811 . S
C83 C84 1.488 . S
C83 O102 1.215 . S
C83 O103 1.289 . S
C84 C83 1.488 . S
C84 C85 1.348 . S
C84 C89 1.413 . S
C85 C84 1.348 . S
C85 C86 1.442 . S
C85 H112 0.930 . S
C86 C85 1.442 . S
C86 C87 1.381 . S
C86 H113 0.931 . S
C87 C86 1.381 . S
C87 C88 1.321 . S
C88 C87 1.321 . S
C88 C89 1.403 . S
C88 H114 0.934 . S
C89 C84 1.413 . S
C89 C88 1.403 . S
C89 H115 0.930 . S
C90 O104 1.275 . S
C90 O105 1.256 . S
C91 O106 1.259 . S
C91 O107 1.268 . S
C92 Ho81 2.811 . S
C92 C93 1.488 . S
C92 O108 1.215 . S
C92 O109 1.289 . S
C93 C92 1.488 . S
C93 C94 1.348 . S
C93 C98 1.413 . S
C94 C93 1.348 . S
C94 C95 1.442 . S
C94 H116 0.930 . S
C95 C94 1.442 . S
C95 C96 1.381 . S
C95 H117 0.931 . S
C96 C95 1.381 . S
C96 C97 1.321 . S
C97 C96 1.321 . S
C97 C98 1.403 . S
C97 H118 0.934 . S
C98 C93 1.413 . S
C98 C97 1.403 . S
C98 H119 0.930 . S
C99 O110 1.275 . S
C99 O111 1.256 . S
O100 Ho80 2.322 . S
O100 C82 1.259 . S
O101 Ho81 2.346 . S
O101 C82 1.268 . S
O102 Ho80 2.378 . S
O102 C83 1.215 . S
O103 Ho80 2.524 . S
O103 C83 1.289 . S
O104 Ho80 2.381 . S
O104 C90 1.275 . S
O105 Ho80 2.669 . S
O105 Ho81 2.305 . S
O105 C90 1.256 . S
O106 Ho81 2.322 . S
O106 C91 1.259 . S
O107 Ho80 2.346 . S
O107 C91 1.268 . S
O108 Ho81 2.378 . S
O108 C92 1.215 . S
O109 Ho81 2.524 . S
O109 C92 1.289 . S
O110 Ho81 2.381 . S
O110 C99 1.275 . S
O111 Ho80 2.305 . S
O111 Ho81 2.669 . S
O111 C99 1.256 . S
H112 C85 0.930 . S
H113 C86 0.931 . S
H114 C88 0.934 . S
H115 C89 0.930 . S
H116 C94 0.930 . S
H117 C95 0.931 . S
H118 C97 0.934 . S
H119 C98 0.930 . S
C120 C121 1.391 . S
C120 C124 1.391 . S
C120 H162 0.948 . S
C121 C120 1.391 . S
C121 C122 1.391 . S
C122 C121 1.391 . S
C122 H178 0.947 . S
C122 C179 1.392 . S
C123 C124 1.391 . S
C123 C127 1.397 . S
C123 C179 1.419 . S
C124 C120 1.391 . S
C124 C123 1.391 . S
C124 C125 1.399 . S
C125 C124 1.399 . S
C125 C128 1.396 . S
C125 C137 1.453 . S
C125 C138 1.684 . S
H126 C150 0.948 . S
C127 C123 1.397 . S
C127 C128 1.394 . S
C127 C146 1.723 . S
C128 C125 1.396 . S
C128 C127 1.394 . S
C128 C158 1.723 1_545 S
H129 C152 0.947 . S
H130 C153 0.948 . S
H131 C159 0.982 . S
H132 C160 0.979 . S
H133 C160 0.980 . S
H134 C160 0.983 . S
H135 C159 0.979 . S
H136 C159 0.977 . S
C137 C125 1.453 . S
C137 H166 0.982 . S
C137 H167 0.979 . S
C137 H168 0.969 1_545 S
C138 C125 1.684 . S
C138 H163 0.979 . S
C138 H164 0.980 . S
C138 H165 0.983 . S
C139 C140 1.391 . S
C139 C144 1.391 . S
C139 H169 0.948 . S
C140 C139 1.391 . S
C140 C141 1.391 1_545 S
C141 C140 1.391 1_565 S
C141 C142 1.392 . S
C141 H170 0.947 . S
C142 C141 1.392 . S
C142 C143 1.419 1_565 S
C142 H171 0.948 . S
C143 C142 1.419 1_545 S
C143 C144 1.391 . S
C143 C147 1.397 . S
C144 C139 1.391 . S
C144 C143 1.391 . S
C144 C145 1.399 . S
C145 C144 1.399 . S
C145 C146 1.396 . S
C145 C148 1.453 . S
C145 C149 1.684 . S
C146 C127 1.723 . S
C146 C145 1.396 . S
C146 C147 1.394 . S
C147 C143 1.397 . S
C147 C146 1.394 . S
C147 C157 1.723 1_545 S
C148 C145 1.453 . S
C148 H172 0.982 . S
C148 H173 0.979 . S
C148 H174 0.977 . S
C149 C145 1.684 . S
C149 H175 0.979 . S
C149 H176 0.980 . S
C149 H177 0.983 . S
C150 H126 0.948 . S
C150 C151 1.391 . S
C150 C155 1.391 . S
C151 C150 1.391 . S
C151 C152 1.391 . S
C152 H129 0.947 . S
C152 C151 1.391 . S
C152 C153 1.392 . S
C153 H130 0.948 . S
C153 C152 1.392 . S
C153 C154 1.419 . S
C154 C153 1.419 . S
C154 C155 1.391 . S
C154 C158 1.397 . S
C155 C150 1.391 . S
C155 C154 1.391 . S
C155 C156 1.399 . S
C156 C155 1.399 . S
C156 C157 1.396 . S
C156 C159 1.453 . S
C156 C160 1.684 . S
C157 C147 1.723 1_565 S
C157 C156 1.396 . S
C157 C158 1.394 . S
C158 C128 1.723 1_565 S
C158 C154 1.397 . S
C158 C157 1.394 . S
C159 H131 0.982 . S
C159 H135 0.979 . S
C159 H136 0.977 . S
C159 C156 1.453 . S
C160 H132 0.979 . S
C160 H133 0.980 . S
C160 H134 0.983 . S
C160 C156 1.684 . S
H161 C179 0.948 . S
H162 C120 0.948 . S
H163 C138 0.979 . S
H164 C138 0.980 . S
H165 C138 0.983 . S
H166 C137 0.982 . S
H167 C137 0.979 . S
H168 C137 0.969 1_565 S
H169 C139 0.948 . S
H170 C141 0.947 . S
H171 C142 0.948 . S
H172 C148 0.982 . S
H173 C148 0.979 . S
H174 C148 0.977 . S
H175 C149 0.979 . S
H176 C149 0.980 . S
H177 C149 0.983 . S
H178 C122 0.947 . S
C179 C122 1.392 . S
C179 C123 1.419 . S
C179 H161 0.948 . S
C180 C181 1.391 . S
C180 C184 1.391 . S
C180 H222 0.948 . S
C181 C180 1.391 . S
C181 C182 1.391 . S
C182 C181 1.391 . S
C182 H238 0.947 . S
C182 C239 1.392 . S
C183 C184 1.391 . S
C183 C187 1.397 . S
C183 C239 1.419 . S
C184 C180 1.391 . S
C184 C183 1.391 . S
C184 C185 1.399 . S
C185 C184 1.399 . S
C185 C188 1.396 . S
C185 C197 1.453 . S
C185 C198 1.684 . S
H186 C210 0.948 . S
C187 C183 1.397 . S
C187 C188 1.394 . S
C187 C206 1.723 . S
C188 C185 1.396 . S
C188 C187 1.394 . S
C188 C218 1.723 . S
H189 C212 0.947 . S
H190 C213 0.948 . S
H191 C219 0.982 . S
H192 C220 0.979 . S
H193 C220 0.980 . S
H194 C220 0.983 . S
H195 C219 0.979 . S
H196 C219 0.977 . S
C197 C185 1.453 . S
C197 H226 0.982 . S
C197 H227 0.979 . S
C197 H228 0.977 . S
C198 C185 1.684 . S
C198 H223 0.979 . S
C198 H224 0.980 . S
C198 H225 0.983 . S
C199 C200 1.391 . S
C199 C204 1.391 . S
C199 H229 0.948 . S
C200 C199 1.391 . S
C200 C201 1.391 . S
C201 C200 1.391 . S
C201 C202 1.392 . S
C201 H230 0.947 . S
C202 C201 1.392 . S
C202 C203 1.419 . S
C202 H231 0.948 . S
C203 C202 1.419 . S
C203 C204 1.391 . S
C203 C207 1.397 . S
C204 C199 1.391 . S
C204 C203 1.391 . S
C204 C205 1.399 . S
C205 C204 1.399 . S
C205 C206 1.396 . S
C205 C208 1.453 . S
C205 C209 1.684 . S
C206 C187 1.723 . S
C206 C205 1.396 . S
C206 C207 1.394 . S
C207 C203 1.397 . S
C207 C206 1.394 . S
C207 C217 1.723 . S
C208 C205 1.453 . S
C208 H232 0.982 . S
C208 H233 0.979 . S
C208 H234 0.977 . S
C209 C205 1.684 . S
C209 H235 0.979 . S
C209 H236 0.980 . S
C209 H237 0.983 . S
C210 H186 0.948 . S
C210 C211 1.391 . S
C210 C215 1.391 . S
C211 C210 1.391 . S
C211 C212 1.391 . S
C212 H189 0.947 . S
C212 C211 1.391 . S
C212 C213 1.392 . S
C213 H190 0.948 . S
C213 C212 1.392 . S
C213 C214 1.419 . S
C214 C213 1.419 . S
C214 C215 1.391 . S
C214 C218 1.397 . S
C215 C210 1.391 . S
C215 C214 1.391 . S
C215 C216 1.399 . S
C216 C215 1.399 . S
C216 C217 1.396 . S
C216 C219 1.453 . S
C216 C220 1.684 . S
C217 C207 1.723 . S
C217 C216 1.396 . S
C217 C218 1.394 . S
C218 C188 1.723 . S
C218 C214 1.397 . S
C218 C217 1.394 . S
C219 H191 0.982 . S
C219 H195 0.979 . S
C219 H196 0.977 . S
C219 C216 1.453 . S
C220 H192 0.979 . S
C220 H193 0.980 . S
C220 H194 0.983 . S
C220 C216 1.684 . S
H221 C239 0.948 . S
H222 C180 0.948 . S
H223 C198 0.979 . S
H224 C198 0.980 . S
H225 C198 0.983 . S
H226 C197 0.982 . S
H227 C197 0.979 . S
H228 C197 0.977 . S
H229 C199 0.948 . S
H230 C201 0.947 . S
H231 C202 0.948 . S
H232 C208 0.982 . S
H233 C208 0.979 . S
H234 C208 0.977 . S
H235 C209 0.979 . S
H236 C209 0.980 . S
H237 C209 0.983 . S
H238 C182 0.947 . S
C239 C182 1.392 . S
C239 C183 1.419 . S
C239 H221 0.948 . S
C240 C241 1.391 . S
C240 C244 1.391 . S
C240 H282 0.948 . S
C241 C240 1.391 . S
C241 C242 1.391 . S
C242 C241 1.391 . S
C242 H298 0.947 . S
C242 C299 1.392 . S
C243 C244 1.391 . S
C243 C247 1.397 . S
C243 C299 1.419 . S
C244 C240 1.391 . S
C244 C243 1.391 . S
C244 C245 1.399 . S
C245 C244 1.399 . S
C245 C248 1.396 . S
C245 C257 1.453 . S
C245 C258 1.684 . S
H246 C270 0.948 . S
C247 C243 1.397 . S
C247 C248 1.394 . S
C247 C266 1.723 . S
C248 C245 1.396 . S
C248 C247 1.394 . S
C248 C278 1.723 . S
H249 C272 0.947 . S
H250 C273 0.948 1_455 S
H251 C279 0.982 . S
H252 C280 0.979 1_455 S
H253 C280 0.980 . S
H254 C280 0.983 . S
H255 C279 0.979 . S
H256 C279 0.977 . S
C257 C245 1.453 . S
C257 H286 0.982 . S
C257 H287 0.979 . S
C257 H288 0.977 . S
C258 C245 1.684 . S
C258 H283 0.979 . S
C258 H284 0.980 . S
C258 H285 0.983 . S
C259 C260 1.397 . S
C259 C264 1.391 . S
C259 H289 0.948 . S
C260 C259 1.397 . S
C260 C261 1.396 . S
C261 C260 1.396 . S
C261 C262 1.392 . S
C261 H290 0.947 1_455 S
C262 C261 1.392 . S
C262 C263 1.419 . S
C262 H291 0.948 1_455 S
C263 C262 1.419 . S
C263 C264 1.391 . S
C263 C267 1.397 . S
C264 C259 1.391 . S
C264 C263 1.391 . S
C264 C265 1.399 . S
C265 C264 1.399 . S
C265 C266 1.396 . S
C265 C268 1.453 . S
C265 C269 1.684 . S
C266 C247 1.723 . S
C266 C265 1.396 . S
C266 C267 1.394 . S
C267 C263 1.397 . S
C267 C266 1.394 . S
C267 C277 1.723 . S
C268 C265 1.453 . S
C268 H292 0.982 . S
C268 H293 0.979 . S
C268 H294 0.977 . S
C269 C265 1.684 . S
C269 H295 0.979 . S
C269 H296 0.980 . S
C269 H297 0.983 . S
C270 H246 0.948 . S
C270 C271 1.391 . S
C270 C275 1.391 . S
C271 C270 1.391 . S
C271 C272 1.391 . S
C272 H249 0.947 . S
C272 C271 1.391 . S
C272 C273 1.392 . S
C273 H250 0.948 1_655 S
C273 C272 1.392 . S
C273 C274 1.419 . S
C274 C273 1.419 . S
C274 C275 1.391 . S
C274 C278 1.397 1_655 S
C275 C270 1.391 . S
C275 C274 1.391 . S
C275 C276 1.399 . S
C276 C275 1.399 . S
C276 C277 1.396 1_655 S
C276 C279 1.453 . S
C276 C280 1.684 . S
C277 C267 1.723 . S
C277 C276 1.396 1_455 S
C277 C278 1.394 . S
C278 C248 1.723 . S
C278 C274 1.397 1_455 S
C278 C277 1.394 . S
C279 H251 0.982 . S
C279 H255 0.979 . S
C279 H256 0.977 . S
C279 C276 1.453 . S
C280 H252 0.979 1_655 S
C280 H253 0.980 . S
C280 H254 0.983 . S
C280 C276 1.684 . S
H281 C299 0.948 . S
H282 C240 0.948 . S
H283 C258 0.979 . S
H284 C258 0.980 . S
H285 C258 0.983 . S
H286 C257 0.982 . S
H287 C257 0.979 . S
H288 C257 0.977 . S
H289 C259 0.948 . S
H290 C261 0.947 1_655 S
H291 C262 0.948 1_655 S
H292 C268 0.982 . S
H293 C268 0.979 . S
H294 C268 0.977 . S
H295 C269 0.979 . S
H296 C269 0.980 . S
H297 C269 0.983 . S
H298 C242 0.947 . S
C299 C242 1.392 . S
C299 C243 1.419 . S
C299 H281 0.948 . S
C300 C301 1.391 . S
C300 C304 1.391 . S
C300 H342 0.948 . S
C301 C300 1.391 . S
C301 C302 1.391 . S
C302 C301 1.391 . S
C302 H358 0.947 . S
C302 C359 1.392 . S
C303 C304 1.391 . S
C303 C307 1.397 . S
C303 C359 1.419 . S
C304 C300 1.391 . S
C304 C303 1.391 . S
C304 C305 1.399 . S
C305 C304 1.399 . S
C305 C308 1.396 . S
C305 C317 1.453 . S
C305 C318 1.684 . S
H306 C330 0.948 . S
C307 C303 1.397 . S
C307 C308 1.394 . S
C307 C326 1.723 . S
C308 C305 1.396 . S
C308 C307 1.394 . S
C308 C338 1.723 1_655 S
H309 C332 0.947 . S
H310 C333 0.948 . S
H311 C339 0.982 . S
H312 C340 0.979 . S
H313 C340 0.980 . S
H314 C340 0.983 . S
H315 C339 0.979 . S
H316 C339 0.977 . S
C317 C305 1.453 . S
C317 H346 0.982 1_655 S
C317 H347 0.979 . S
C317 H348 0.977 1_655 S
C318 C305 1.684 . S
C318 H343 0.979 . S
C318 H344 0.980 . S
C318 H345 0.983 . S
C319 C320 1.391 1_655 S
C319 C324 1.391 . S
C319 H349 0.948 . S
C320 C319 1.391 1_455 S
C320 C321 1.391 . S
C321 C320 1.391 . S
C321 C322 1.392 . S
C321 H350 0.947 . S
C322 C321 1.392 . S
C322 C323 1.419 . S
C322 H351 0.948 . S
C323 C322 1.419 . S
C323 C324 1.391 1_455 S
C323 C327 1.397 . S
C324 C319 1.391 . S
C324 C323 1.391 1_655 S
C324 C325 1.399 . S
C325 C324 1.399 . S
C325 C326 1.396 . S
C325 C328 1.453 . S
C325 C329 1.684 . S
C326 C307 1.723 . S
C326 C325 1.396 . S
C326 C327 1.394 1_655 S
C327 C323 1.397 . S
C327 C326 1.394 1_455 S
C327 C337 1.723 . S
C328 C325 1.453 . S
C328 H352 0.982 . S
C328 H353 0.979 . S
C328 H354 0.977 . S
C329 C325 1.684 . S
C329 H355 0.979 . S
C329 H356 0.980 . S
C329 H357 0.983 . S
C330 H306 0.948 . S
C330 C331 1.391 . S
C330 C335 1.391 . S
C331 C330 1.391 . S
C331 C332 1.391 . S
C332 H309 0.947 . S
C332 C331 1.391 . S
C332 C333 1.392 . S
C333 H310 0.948 . S
C333 C332 1.392 . S
C333 C334 1.419 . S
C334 C333 1.419 . S
C334 C335 1.391 . S
C334 C338 1.397 . S
C335 C330 1.391 . S
C335 C334 1.391 . S
C335 C336 1.399 . S
C336 C335 1.399 . S
C336 C337 1.396 . S
C336 C339 1.453 . S
C336 C340 1.684 . S
C337 C327 1.723 . S
C337 C336 1.396 . S
C337 C338 1.394 . S
C338 C308 1.723 1_455 S
C338 C334 1.397 . S
C338 C337 1.394 . S
C339 H311 0.982 . S
C339 H315 0.979 . S
C339 H316 0.977 . S
C339 C336 1.453 . S
C340 H312 0.979 . S
C340 H313 0.980 . S
C340 H314 0.983 . S
C340 C336 1.684 . S
H341 C359 0.948 . S
H342 C300 0.948 . S
H343 C318 0.979 . S
H344 C318 0.980 . S
H345 C318 0.983 . S
H346 C317 0.982 1_455 S
H347 C317 0.979 . S
H348 C317 0.977 1_455 S
H349 C319 0.948 . S
H350 C321 0.947 . S
H351 C322 0.948 . S
H352 C328 0.982 . S
H353 C328 0.979 . S
H354 C328 0.977 . S
H355 C329 0.979 . S
H356 C329 0.980 . S
H357 C329 0.983 . S
H358 C302 0.947 . S
C359 C302 1.392 . S
C359 C303 1.419 . S
C359 H341 0.948 . S
C360 C361 1.391 . S
C360 C364 1.391 . S
C360 H402 0.948 . S
C361 C360 1.391 . S
C361 C362 1.391 . S
C362 C361 1.391 . S
C362 H418 0.947 . S
C362 C419 1.392 . S
C363 C364 1.391 . S
C363 C367 1.397 . S
C363 C419 1.419 . S
C364 C360 1.391 . S
C364 C363 1.391 . S
C364 C365 1.399 . S
C365 C364 1.399 . S
C365 C368 1.396 . S
C365 C377 1.453 1_565 S
C365 C378 1.684 . S
H366 C390 0.948 . S
C367 C363 1.397 . S
C367 C368 1.394 . S
C367 C386 1.723 . S
C368 C365 1.396 . S
C368 C367 1.394 . S
C368 C398 1.723 1_565 S
H369 C392 0.947 . S
H370 C393 0.948 . S
H371 C399 0.982 . S
H372 C400 0.979 . S
H373 C400 0.980 . S
H374 C400 0.983 . S
H375 C399 0.979 . S
H376 C399 0.977 . S
C377 C365 1.453 1_545 S
C377 H406 0.982 . S
C377 H407 0.979 1_545 S
C377 H408 0.977 . S
C378 C365 1.684 . S
C378 H403 0.979 . S
C378 H404 0.980 . S
C378 H405 0.983 . S
C379 C380 1.391 . S
C379 C384 1.391 . S
C379 H409 0.948 . S
C380 C379 1.391 . S
C380 C381 1.391 1_565 S
C381 C380 1.391 1_545 S
C381 C382 1.392 . S
C381 H410 0.947 . S
C382 C381 1.392 . S
C382 C383 1.419 . S
C382 H411 0.948 . S
C383 C382 1.419 . S
C383 C384 1.391 1_545 S
C383 C387 1.397 . S
C384 C379 1.391 . S
C384 C383 1.391 1_565 S
C384 C385 1.399 . S
C385 C384 1.399 . S
C385 C386 1.396 . S
C385 C388 1.453 . S
C385 C389 1.684 . S
C386 C367 1.723 . S
C386 C385 1.396 . S
C386 C387 1.394 1_565 S
C387 C383 1.397 . S
C387 C386 1.394 1_545 S
C387 C397 1.723 . S
C388 C385 1.453 . S
C388 H412 0.982 . S
C388 H413 0.979 . S
C388 H414 0.977 . S
C389 C385 1.684 . S
C389 H415 0.979 . S
C389 H416 0.980 . S
C389 H417 0.983 . S
C390 H366 0.948 . S
C390 C391 1.391 . S
C390 C395 1.391 . S
C391 C390 1.391 . S
C391 C392 1.391 . S
C392 H369 0.947 . S
C392 C391 1.391 . S
C392 C393 1.392 . S
C393 H370 0.948 . S
C393 C392 1.392 . S
C393 C394 1.419 . S
C394 C393 1.419 . S
C394 C395 1.391 . S
C394 C398 1.397 . S
C395 C390 1.391 . S
C395 C394 1.391 . S
C395 C396 1.399 . S
C396 C395 1.399 . S
C396 C397 1.396 . S
C396 C399 1.453 . S
C396 C400 1.684 . S
C397 C387 1.723 . S
C397 C396 1.396 . S
C397 C398 1.394 . S
C398 C368 1.723 1_545 S
C398 C394 1.397 . S
C398 C397 1.394 . S
C399 H371 0.982 . S
C399 H375 0.979 . S
C399 H376 0.977 . S
C399 C396 1.453 . S
C400 H372 0.979 . S
C400 H373 0.980 . S
C400 H374 0.983 . S
C400 C396 1.684 . S
H401 C419 0.948 . S
H402 C360 0.948 . S
H403 C378 0.979 . S
H404 C378 0.980 . S
H405 C378 0.983 . S
H406 C377 0.982 . S
H407 C377 0.979 1_565 S
H408 C377 0.977 . S
H409 C379 0.948 . S
H410 C381 0.947 . S
H411 C382 0.948 . S
H412 C388 0.982 . S
H413 C388 0.979 . S
H414 C388 0.977 . S
H415 C389 0.979 . S
H416 C389 0.980 . S
H417 C389 0.983 . S
H418 C362 0.947 . S
C419 C362 1.392 . S
C419 C363 1.419 . S
C419 H401 0.948 . S
C420 C421 1.391 . S
C420 C424 1.391 . S
C420 H462 0.948 . S
C421 C420 1.391 . S
C421 C422 1.391 . S
C422 C421 1.391 . S
C422 H478 0.947 . S
C422 C479 1.392 . S
C423 C424 1.391 . S
C423 C427 1.397 . S
C423 C479 1.419 . S
C424 C420 1.391 . S
C424 C423 1.391 . S
C424 C425 1.399 . S
C425 C424 1.399 . S
C425 C428 1.396 . S
C425 C437 1.453 . S
C425 C438 1.684 . S
H426 C450 0.948 . S
C427 C423 1.397 . S
C427 C428 1.394 . S
C427 C446 1.723 . S
C428 C425 1.396 . S
C428 C427 1.394 . S
C428 C458 1.723 . S
H429 C452 0.947 . S
H430 C453 0.948 . S
H431 C459 0.982 . S
H432 C460 0.979 . S
H433 C460 0.980 . S
H434 C460 0.983 . S
H435 C459 0.979 . S
H436 C459 0.977 . S
C437 C425 1.453 . S
C437 H466 0.982 . S
C437 H467 0.979 . S
C437 H468 0.977 . S
C438 C425 1.684 . S
C438 H463 0.979 . S
C438 H464 0.980 . S
C438 H465 0.983 . S
C439 C440 1.391 . S
C439 C444 1.391 1_556 S
C439 H469 0.948 . S
C440 C439 1.391 . S
C440 C441 1.391 . S
C441 C440 1.391 . S
C441 C442 1.392 1_556 S
C441 H470 0.947 . S
C442 C441 1.392 1_554 S
C442 C443 1.419 . S
C442 H471 0.948 . S
C443 C442 1.419 . S
C443 C444 1.391 . S
C443 C447 1.397 . S
C444 C439 1.391 1_554 S
C444 C443 1.391 . S
C444 C445 1.399 . S
C445 C444 1.399 . S
C445 C446 1.396 . S
C445 C448 1.453 . S
C445 C449 1.684 . S
C446 C427 1.723 . S
C446 C445 1.396 . S
C446 C447 1.394 . S
C447 C443 1.397 . S
C447 C446 1.394 . S
C447 C457 1.723 . S
C448 C445 1.453 . S
C448 H472 0.982 . S
C448 H473 0.979 . S
C448 H474 0.977 . S
C449 C445 1.684 . S
C449 H475 0.979 . S
C449 H476 0.980 . S
C449 H477 0.983 . S
C450 H426 0.948 . S
C450 C451 1.391 . S
C450 C455 1.391 . S
C451 C450 1.391 . S
C451 C452 1.391 . S
C452 H429 0.947 . S
C452 C451 1.391 . S
C452 C453 1.392 . S
C453 H430 0.948 . S
C453 C452 1.392 . S
C453 C454 1.419 . S
C454 C453 1.419 . S
C454 C455 1.391 . S
C454 C458 1.397 . S
C455 C450 1.391 . S
C455 C454 1.391 . S
C455 C456 1.399 . S
C456 C455 1.399 . S
C456 C457 1.396 . S
C456 C459 1.453 . S
C456 C460 1.684 . S
C457 C447 1.723 . S
C457 C456 1.396 . S
C457 C458 1.394 . S
C458 C428 1.723 . S
C458 C454 1.397 . S
C458 C457 1.394 . S
C459 H431 0.982 . S
C459 H435 0.979 . S
C459 H436 0.977 . S
C459 C456 1.453 . S
C460 H432 0.979 . S
C460 H433 0.980 . S
C460 H434 0.983 . S
C460 C456 1.684 . S
H461 C479 0.948 . S
H462 C420 0.948 . S
H463 C438 0.979 . S
H464 C438 0.980 . S
H465 C438 0.983 . S
H466 C437 0.982 . S
H467 C437 0.979 . S
H468 C437 0.977 . S
H469 C439 0.948 . S
H470 C441 0.947 . S
H471 C442 0.948 . S
H472 C448 0.982 . S
H473 C448 0.979 . S
H474 C448 0.977 . S
H475 C449 0.979 . S
H476 C449 0.980 . S
H477 C449 0.983 . S
H478 C422 0.947 . S
C479 C422 1.392 . S
C479 C423 1.419 . S
C479 H461 0.948 . S
C480 C481 1.363 . S
C480 C486 1.379 . S
C480 N488 1.356 . S
C481 C480 1.363 . S
C481 C487 1.363 . S
C482 C483 1.363 . S
C482 C487 1.379 . S
C482 N489 1.356 . S
C483 C482 1.363 . S
C483 C486 1.363 . S
N484 C486 1.356 . S
N484 H496 0.984 . S
N484 H497 0.985 . S
N485 C487 1.356 . S
N485 H490 0.984 . S
N485 H491 0.985 . S
C486 C480 1.379 . S
C486 C483 1.363 . S
C486 N484 1.356 . S
C487 C481 1.363 . S
C487 C482 1.379 . S
C487 N485 1.356 . S
N488 C480 1.356 . S
N488 H494 0.984 . S
N488 H495 0.984 . S
N489 C482 1.356 . S
N489 H492 0.984 . S
N489 H493 0.985 . S
H490 N485 0.984 . S
H491 N485 0.985 . S
H492 N489 0.984 . S
H493 N489 0.985 . S
H494 N488 0.984 . S
H495 N488 0.984 . S
H496 N484 0.984 . S
H497 N484 0.985 . S
C498 C499 1.363 . S
C498 C504 1.379 . S
C498 N506 1.356 . S
C499 C498 1.363 . S
C499 C505 1.363 . S
C500 C501 1.363 . S
C500 C505 1.379 . S
C500 N507 1.356 . S
C501 C500 1.363 . S
C501 C504 1.363 . S
N502 C504 1.356 . S
N502 H514 0.984 . S
N502 H515 0.985 . S
N503 C505 1.356 . S
N503 H508 0.984 . S
N503 H509 0.985 . S
C504 C498 1.379 . S
C504 C501 1.363 . S
C504 N502 1.356 . S
C505 C499 1.363 . S
C505 C500 1.379 . S
C505 N503 1.356 . S
N506 C498 1.356 . S
N506 H512 0.984 . S
N506 H513 0.984 . S
N507 C500 1.356 . S
N507 H510 0.984 . S
N507 H511 0.985 . S
H508 N503 0.984 . S
H509 N503 0.985 . S
H510 N507 0.984 . S
H511 N507 0.985 . S
H512 N506 0.984 . S
H513 N506 0.984 . S
H514 N502 0.984 . S
H515 N502 0.985 . S
C516 C517 1.363 . S
C516 C522 1.379 . S
C516 N524 1.356 . S
C517 C516 1.363 . S
C517 C523 1.363 . S
C518 C519 1.363 . S
C518 C523 1.379 . S
C518 N525 1.356 . S
C519 C518 1.363 . S
C519 C522 1.363 . S
N520 C522 1.356 . S
N520 H532 0.984 . S
N520 H533 0.985 . S
N521 C523 1.356 . S
N521 H526 0.984 . S
N521 H527 0.985 . S
C522 C516 1.379 . S
C522 C519 1.363 . S
C522 N520 1.356 . S
C523 C517 1.363 . S
C523 C518 1.379 . S
C523 N521 1.356 . S
N524 C516 1.356 . S
N524 H530 0.984 . S
N524 H531 0.984 . S
N525 C518 1.356 . S
N525 H528 0.984 . S
N525 H529 0.985 . S
H526 N521 0.984 . S
H527 N521 0.985 . S
H528 N525 0.984 . S
H529 N525 0.985 . S
H530 N524 0.984 . S
H531 N524 0.984 . S
H532 N520 0.984 . S
H533 N520 0.985 . S
C534 C535 1.363 . S
C534 C540 1.379 . S
C534 N542 1.356 . S
C535 C534 1.363 . S
C535 C541 1.363 . S
C536 C537 1.363 . S
C536 C541 1.379 . S
C536 N543 1.356 . S
C537 C536 1.363 . S
C537 C540 1.363 . S
N538 C540 1.356 . S
N538 H550 0.984 . S
N538 H551 0.985 . S
N539 C541 1.356 . S
N539 H544 0.984 . S
N539 H545 0.985 . S
C540 C534 1.379 . S
C540 C537 1.363 . S
C540 N538 1.356 . S
C541 C535 1.363 . S
C541 C536 1.379 . S
C541 N539 1.356 . S
N542 C534 1.356 . S
N542 H548 0.984 . S
N542 H549 0.984 . S
N543 C536 1.356 . S
N543 H546 0.984 . S
N543 H547 0.985 . S
H544 N539 0.984 . S
H545 N539 0.985 . S
H546 N543 0.984 . S
H547 N543 0.985 . S
H548 N542 0.984 . S
H549 N542 0.984 . S
H550 N538 0.984 . S
H551 N538 0.985 . S
C552 C553 1.363 . S
C552 C558 1.379 . S
C552 N560 1.356 . S
C553 C552 1.363 . S
C553 C559 1.363 . S
C554 C555 1.363 . S
C554 C559 1.379 . S
C554 N561 1.356 . S
C555 C554 1.363 . S
C555 C558 1.363 . S
N556 C558 1.356 . S
N556 H568 0.984 . S
N556 H569 0.985 . S
N557 C559 1.356 . S
N557 H562 0.984 . S
N557 H563 0.985 . S
C558 C552 1.379 . S
C558 C555 1.363 . S
C558 N556 1.356 . S
C559 C553 1.363 . S
C559 C554 1.379 . S
C559 N557 1.356 . S
N560 C552 1.356 . S
N560 H566 0.984 . S
N560 H567 0.984 . S
N561 C554 1.356 . S
N561 H564 0.984 . S
N561 H565 0.985 . S
H562 N557 0.984 . S
H563 N557 0.985 . S
H564 N561 0.984 . S
H565 N561 0.985 . S
H566 N560 0.984 . S
H567 N560 0.984 . S
H568 N556 0.984 . S
H569 N556 0.985 . S
C570 C571 1.363 . S
C570 C576 1.379 . S
C570 N578 1.356 . S
C571 C570 1.363 . S
C571 C577 1.363 . S
C572 C573 1.363 . S
C572 C577 1.379 . S
C572 N579 1.356 . S
C573 C572 1.363 . S
C573 C576 1.363 . S
N574 C576 1.356 . S
N574 H586 0.984 . S
N574 H587 0.985 . S
N575 C577 1.356 . S
N575 H580 0.984 . S
N575 H581 0.985 . S
C576 C570 1.379 . S
C576 C573 1.363 . S
C576 N574 1.356 . S
C577 C571 1.363 . S
C577 C572 1.379 . S
C577 N575 1.356 . S
N578 C570 1.356 . S
N578 H584 0.984 . S
N578 H585 0.984 . S
N579 C572 1.356 . S
N579 H582 0.984 . S
N579 H583 0.985 . S
H580 N575 0.984 . S
H581 N575 0.985 . S
H582 N579 0.984 . S
H583 N579 0.985 . S
H584 N578 0.984 . S
H585 N578 0.984 . S
H586 N574 0.984 . S
H587 N574 0.985 . S
C588 C589 1.363 . S
C588 C594 1.379 . S
C588 N596 1.356 . S
C589 C588 1.363 . S
C589 C595 1.363 . S
C590 C591 1.363 . S
C590 C595 1.379 . S
C590 N597 1.356 . S
C591 C590 1.363 . S
C591 C594 1.363 . S
N592 C594 1.356 . S
N592 H604 0.984 . S
N592 H605 0.985 . S
N593 C595 1.356 . S
N593 H598 0.984 . S
N593 H599 0.985 . S
C594 C588 1.379 . S
C594 C591 1.363 . S
C594 N592 1.356 . S
C595 C589 1.363 . S
C595 C590 1.379 . S
C595 N593 1.356 . S
N596 C588 1.356 . S
N596 H602 0.984 . S
N596 H603 0.984 . S
N597 C590 1.356 . S
N597 H600 0.984 . S
N597 H601 0.985 . S
H598 N593 0.984 . S
H599 N593 0.985 . S
H600 N597 0.984 . S
H601 N597 0.985 . S
H602 N596 0.984 . S
H603 N596 0.984 . S
H604 N592 0.984 . S
H605 N592 0.985 . S
C606 C607 1.363 . S
C606 C612 1.379 . S
C606 N614 1.356 . S
C607 C606 1.363 . S
C607 C613 1.363 . S
C608 C609 1.363 . S
C608 C613 1.379 . S
C608 N615 1.356 . S
C609 C608 1.363 . S
C609 C612 1.363 . S
N610 C612 1.356 . S
N610 H622 0.984 . S
N610 H623 0.985 . S
N611 C613 1.356 . S
N611 H616 0.984 . S
N611 H617 0.985 . S
C612 C606 1.379 . S
C612 C609 1.363 . S
C612 N610 1.356 . S
C613 C607 1.363 . S
C613 C608 1.379 . S
C613 N611 1.356 . S
N614 C606 1.356 . S
N614 H620 0.984 . S
N614 H621 0.984 . S
N615 C608 1.356 . S
N615 H618 0.984 . S
N615 H619 0.985 . S
H616 N611 0.984 . S
H617 N611 0.985 . S
H618 N615 0.984 . S
H619 N615 0.985 . S
H620 N614 0.984 . S
H621 N614 0.984 . S
H622 N610 0.984 . S
H623 N610 0.985 . S
C624 C625 1.363 . S
C624 C630 1.379 . S
C624 N632 1.356 . S
C625 C624 1.363 . S
C625 C631 1.363 . S
C626 C627 1.363 . S
C626 C631 1.379 . S
C626 N633 1.356 . S
C627 C626 1.363 . S
C627 C630 1.363 . S
N628 C630 1.356 . S
N628 H640 0.984 . S
N628 H641 0.985 . S
N629 C631 1.356 . S
N629 H634 0.984 . S
N629 H635 0.985 . S
C630 C624 1.379 . S
C630 C627 1.363 . S
C630 N628 1.356 . S
C631 C625 1.363 . S
C631 C626 1.379 . S
C631 N629 1.356 . S
N632 C624 1.356 . S
N632 H638 0.984 . S
N632 H639 0.984 . S
N633 C626 1.356 . S
N633 H636 0.984 . S
N633 H637 0.985 . S
H634 N629 0.984 . S
H635 N629 0.985 . S
H636 N633 0.984 . S
H637 N633 0.985 . S
H638 N632 0.984 . S
H639 N632 0.984 . S
H640 N628 0.984 . S
H641 N628 0.985 . S
C642 C643 1.363 . S
C642 C648 1.379 . S
C642 N650 1.356 . S
C643 C642 1.363 . S
C643 C649 1.363 . S
C644 C645 1.363 . S
C644 C649 1.379 . S
C644 N651 1.356 . S
C645 C644 1.363 . S
C645 C648 1.363 . S
N646 C648 1.356 . S
N646 H658 0.984 . S
N646 H659 0.985 . S
N647 C649 1.356 . S
N647 H652 0.984 . S
N647 H653 0.985 . S
C648 C642 1.379 . S
C648 C645 1.363 . S
C648 N646 1.356 . S
C649 C643 1.363 . S
C649 C644 1.379 . S
C649 N647 1.356 . S
N650 C642 1.356 . S
N650 H656 0.984 . S
N650 H657 0.984 . S
N651 C644 1.356 . S
N651 H654 0.984 . S
N651 H655 0.985 . S
H652 N647 0.984 . S
H653 N647 0.985 . S
H654 N651 0.984 . S
H655 N651 0.985 . S
H656 N650 0.984 . S
H657 N650 0.984 . S
H658 N646 0.984 . S
H659 N646 0.985 . S
C660 C661 1.363 . S
C660 C666 1.379 . S
C660 N668 1.356 . S
C661 C660 1.363 . S
C661 C667 1.363 . S
C662 C663 1.363 . S
C662 C667 1.379 . S
C662 N669 1.356 . S
C663 C662 1.363 . S
C663 C666 1.363 . S
N664 C666 1.356 . S
N664 H676 0.984 . S
N664 H677 0.985 . S
N665 C667 1.356 . S
N665 H670 0.984 . S
N665 H671 0.985 . S
C666 C660 1.379 . S
C666 C663 1.363 . S
C666 N664 1.356 . S
C667 C661 1.363 . S
C667 C662 1.379 . S
C667 N665 1.356 . S
N668 C660 1.356 . S
N668 H674 0.984 . S
N668 H675 0.984 . S
N669 C662 1.356 . S
N669 H672 0.984 . S
N669 H673 0.985 . S
H670 N665 0.984 . S
H671 N665 0.985 . S
H672 N669 0.984 . S
H673 N669 0.985 . S
H674 N668 0.984 . S
H675 N668 0.984 . S
H676 N664 0.984 . S
H677 N664 0.985 . S
C678 C679 1.363 . S
C678 C684 1.379 . S
C678 N686 1.356 . S
C679 C678 1.363 . S
C679 C685 1.363 . S
C680 C681 1.363 . S
C680 C685 1.379 . S
C680 N687 1.356 . S
C681 C680 1.363 . S
C681 C684 1.363 . S
N682 C684 1.356 . S
N682 H694 0.984 . S
N682 H695 0.985 . S
N683 C685 1.356 . S
N683 H688 0.984 . S
N683 H689 0.985 . S
C684 C678 1.379 . S
C684 C681 1.363 . S
C684 N682 1.356 . S
C685 C679 1.363 . S
C685 C680 1.379 . S
C685 N683 1.356 . S
N686 C678 1.356 . S
N686 H692 0.984 . S
N686 H693 0.984 . S
N687 C680 1.356 . S
N687 H690 0.984 . S
N687 H691 0.985 . S
H688 N683 0.984 . S
H689 N683 0.985 . S
H690 N687 0.984 . S
H691 N687 0.985 . S
H692 N686 0.984 . S
H693 N686 0.984 . S
H694 N682 0.984 . S
H695 N682 0.985 . S
C696 C697 1.363 . S
C696 C702 1.379 . S
C696 N704 1.356 . S
C697 C696 1.363 . S
C697 C703 1.363 . S
C698 C699 1.363 . S
C698 C703 1.379 . S
C698 N705 1.356 1_455 S
C699 C698 1.363 . S
C699 C702 1.363 . S
N700 C702 1.356 . S
N700 H712 0.984 . S
N700 H713 0.985 . S
N701 C703 1.356 1_655 S
N701 H706 0.984 . S
N701 H707 0.985 . S
C702 C696 1.379 . S
C702 C699 1.363 . S
C702 N700 1.356 . S
C703 C697 1.363 . S
C703 C698 1.379 . S
C703 N701 1.356 1_455 S
N704 C696 1.356 . S
N704 H710 0.984 . S
N704 H711 0.984 . S
N705 C698 1.356 1_655 S
N705 H708 0.984 . S
N705 H709 0.985 . S
H706 N701 0.984 . S
H707 N701 0.985 . S
H708 N705 0.984 . S
H709 N705 0.985 . S
H710 N704 0.984 . S
H711 N704 0.984 . S
H712 N700 0.984 . S
H713 N700 0.985 . S
C714 C715 1.363 1_565 S
C714 C720 1.379 . S
C714 N722 1.356 . S
C715 C714 1.363 1_545 S
C715 C721 1.363 . S
C716 C717 1.363 . S
C716 C721 1.379 . S
C716 N723 1.356 . S
C717 C716 1.363 . S
C717 C720 1.363 1_545 S
N718 C720 1.356 . S
N718 H730 0.984 . S
N718 H731 0.985 . S
N719 C721 1.356 . S
N719 H724 0.984 . S
N719 H725 0.985 . S
C720 C714 1.379 . S
C720 C717 1.363 1_565 S
C720 N718 1.356 . S
C721 C715 1.363 . S
C721 C716 1.379 . S
C721 N719 1.356 . S
N722 C714 1.356 . S
N722 H728 0.984 . S
N722 H729 0.984 . S
N723 C716 1.356 . S
N723 H726 0.984 . S
N723 H727 0.985 . S
H724 N719 0.984 . S
H725 N719 0.985 . S
H726 N723 0.984 . S
H727 N723 0.985 . S
H728 N722 0.984 . S
H729 N722 0.984 . S
H730 N718 0.984 . S
H731 N718 0.985 . S
C732 C733 1.363 . S
C732 C738 1.379 . S
C732 N740 1.356 . S
C733 C732 1.363 . S
C733 C739 1.363 . S
C734 C735 1.363 . S
C734 C739 1.379 . S
C734 N741 1.356 . S
C735 C734 1.363 . S
C735 C738 1.363 . S
N736 C738 1.356 . S
N736 H748 0.984 . S
N736 H749 0.985 . S
N737 C739 1.356 . S
N737 H742 0.984 . S
N737 H743 0.985 . S
C738 C732 1.379 . S
C738 C735 1.363 . S
C738 N736 1.356 . S
C739 C733 1.363 . S
C739 C734 1.379 . S
C739 N737 1.356 . S
N740 C732 1.356 . S
N740 H746 0.984 . S
N740 H747 0.984 . S
N741 C734 1.356 . S
N741 H744 0.984 . S
N741 H745 0.985 . S
H742 N737 0.984 . S
H743 N737 0.985 . S
H744 N741 0.984 . S
H745 N741 0.985 . S
H746 N740 0.984 . S
H747 N740 0.984 . S
H748 N736 0.984 . S
H749 N736 0.985 . S
C750 C751 1.363 1_565 S
C750 C756 1.379 . S
C750 N758 1.356 . S
C751 C750 1.363 1_545 S
C751 C757 1.363 . S
C752 C753 1.363 1_545 S
C752 C757 1.379 . S
C752 N759 1.356 . S
C753 C752 1.363 1_565 S
C753 C756 1.363 . S
N754 C756 1.356 . S
N754 H766 0.984 . S
N754 H767 0.985 . S
N755 C757 1.356 . S
N755 H760 0.984 . S
N755 H761 0.985 . S
C756 C750 1.379 . S
C756 C753 1.363 . S
C756 N754 1.356 . S
C757 C751 1.363 . S
C757 C752 1.379 . S
C757 N755 1.356 . S
N758 C750 1.356 . S
N758 H764 0.984 . S
N758 H765 0.984 . S
N759 C752 1.356 . S
N759 H762 0.984 . S
N759 H763 0.985 . S
H760 N755 0.984 . S
H761 N755 0.985 . S
H762 N759 0.984 . S
H763 N759 0.985 . S
H764 N758 0.984 . S
H765 N758 0.984 . S
H766 N754 0.984 . S
H767 N754 0.985 . S
C768 C769 1.363 . S
C768 C774 1.379 . S
C768 N776 1.356 . S
C769 C768 1.363 . S
C769 C775 1.363 . S
C770 C771 1.363 . S
C770 C775 1.379 . S
C770 N777 1.356 . S
C771 C770 1.363 . S
C771 C774 1.363 . S
N772 C774 1.356 . S
N772 H784 0.984 . S
N772 H785 0.985 . S
N773 C775 1.356 . S
N773 H778 0.984 . S
N773 H779 0.985 . S
C774 C768 1.379 . S
C774 C771 1.363 . S
C774 N772 1.356 . S
C775 C769 1.363 . S
C775 C770 1.379 . S
C775 N773 1.356 . S
N776 C768 1.356 . S
N776 H782 0.984 . S
N776 H783 0.984 . S
N777 C770 1.356 . S
N777 H780 0.984 . S
N777 H781 0.985 . S
H778 N773 0.984 . S
H779 N773 0.985 . S
H780 N777 0.984 . S
H781 N777 0.985 . S
H782 N776 0.984 . S
H783 N776 0.984 . S
H784 N772 0.984 . S
H785 N772 0.985 . S
C786 C787 1.363 1_655 S
C786 C792 1.379 . S
C786 N794 1.356 . S
C787 C786 1.363 1_455 S
C787 C793 1.363 . S
C788 C789 1.363 . S
C788 C793 1.379 . S
C788 N795 1.356 . S
C789 C788 1.363 . S
C789 C792 1.363 1_455 S
N790 C792 1.356 . S
N790 H802 0.984 . S
N790 H803 0.985 . S
N791 C793 1.356 . S
N791 H796 0.984 . S
N791 H797 0.985 . S
C792 C786 1.379 . S
C792 C789 1.363 1_655 S
C792 N790 1.356 . S
C793 C787 1.363 . S
C793 C788 1.379 . S
C793 N791 1.356 . S
N794 C786 1.356 . S
N794 H800 0.984 . S
N794 H801 0.984 . S
N795 C788 1.356 . S
N795 H798 0.984 . S
N795 H799 0.985 . S
H796 N791 0.984 . S
H797 N791 0.985 . S
H798 N795 0.984 . S
H799 N795 0.985 . S
H800 N794 0.984 . S
H801 N794 0.984 . S
H802 N790 0.984 . S
H803 N790 0.985 . S
C481 C7 0.932 . S
C483 C451 1.018 . S
C499 C51 2.022 . S
C501 C301 1.844 . S
C517 C87 1.369 . S
C519 C361 1.404 . S
C535 C16 0.665 . S
C537 C421 0.597 . S
C555 C331 2.144 . S
C553 C42 2.170 . S
C573 C391 1.396 . S
C571 C96 1.372 . S
C589 C47 1.296 . S
C591 C181 1.284 . S
C607 C91 3.189 . S
C609 C271 3.182 . S
C625 C2 2.202 . S
C627 C151 2.205 . S
C645 C211 1.396 . S
C643 C56 1.361 . S
C663 C241 2.934 . S
C661 C82 3.120 . S
C679 C11 2.019 . S
C681 C121 1.850 . S
C699 C260 1.758 1_554 S
C697 C19 1.732 . S
C715 C50 1.333 . S
C717 C140 1.339 . S
C733 C99 1.461 . S
C735 C200 1.475 . S
C753 C380 1.462 . S
C751 C59 1.454 . S
C771 C440 1.090 . S
C769 C90 1.093 . S
C787 C10 1.326 . S
C789 C320 1.327 . S
