# Generated by pormake.
# Topology zzz, (3,6)-cn, num edge types: 1
# Building blocks:
#     Node 0, Type 0, BuildingBlock: MIDCAF_clean_linker_0, # of connection points: 3
#     Node 1, Type 0, BuildingBlock: MIDCAF_clean_linker_0, # of connection points: 3
#     Node 2, Type 0, BuildingBlock: MIDCAF_clean_linker_0, # of connection points: 3
#     Node 3, Type 0, BuildingBlock: MIDCAF_clean_linker_0, # of connection points: 3
#     Node 4, Type 0, BuildingBlock: MIDCAF_clean_linker_0, # of connection points: 3
#     Node 5, Type 0, BuildingBlock: MIDCAF_clean_linker_0, # of connection points: 3
#     Node 6, Type 0, BuildingBlock: MIDCAF_clean_linker_0, # of connection points: 3
#     Node 7, Type 0, BuildingBlock: MIDCAF_clean_linker_0, # of connection points: 3
#     Node 8, Type 1, BuildingBlock: GEDQOX_clean_sbu_0, # of connection points: 6
#     Node 9, Type 1, BuildingBlock: GEDQOX_clean_sbu_0, # of connection points: 6
#     Node 10, Type 1, BuildingBlock: GEDQOX_clean_sbu_0, # of connection points: 6
#     Node 11, Type 1, BuildingBlock: GEDQOX_clean_sbu_0, # of connection points: 6
#     Edge 12, Type (0, 1), BuildingBlock: AJUNOK_clean_linker_0, # of connection points: 2
#     Edge 13, Type (0, 1), BuildingBlock: AJUNOK_clean_linker_0, # of connection points: 2
#     Edge 14, Type (0, 1), BuildingBlock: AJUNOK_clean_linker_0, # of connection points: 2
#     Edge 15, Type (0, 1), BuildingBlock: AJUNOK_clean_linker_0, # of connection points: 2
#     Edge 16, Type (0, 1), BuildingBlock: AJUNOK_clean_linker_0, # of connection points: 2
#     Edge 17, Type (0, 1), BuildingBlock: AJUNOK_clean_linker_0, # of connection points: 2
#     Edge 18, Type (0, 1), BuildingBlock: AJUNOK_clean_linker_0, # of connection points: 2
#     Edge 19, Type (0, 1), BuildingBlock: AJUNOK_clean_linker_0, # of connection points: 2
#     Edge 20, Type (0, 1), BuildingBlock: AJUNOK_clean_linker_0, # of connection points: 2
#     Edge 21, Type (0, 1), BuildingBlock: AJUNOK_clean_linker_0, # of connection points: 2
#     Edge 22, Type (0, 1), BuildingBlock: AJUNOK_clean_linker_0, # of connection points: 2
#     Edge 23, Type (0, 1), BuildingBlock: AJUNOK_clean_linker_0, # of connection points: 2
#     Edge 24, Type (0, 1), BuildingBlock: AJUNOK_clean_linker_0, # of connection points: 2
#     Edge 25, Type (0, 1), BuildingBlock: AJUNOK_clean_linker_0, # of connection points: 2
#     Edge 26, Type (0, 1), BuildingBlock: AJUNOK_clean_linker_0, # of connection points: 2
#     Edge 27, Type (0, 1), BuildingBlock: AJUNOK_clean_linker_0, # of connection points: 2
#     Edge 28, Type (0, 1), BuildingBlock: AJUNOK_clean_linker_0, # of connection points: 2
#     Edge 29, Type (0, 1), BuildingBlock: AJUNOK_clean_linker_0, # of connection points: 2
#     Edge 30, Type (0, 1), BuildingBlock: AJUNOK_clean_linker_0, # of connection points: 2
#     Edge 31, Type (0, 1), BuildingBlock: AJUNOK_clean_linker_0, # of connection points: 2
#     Edge 32, Type (0, 1), BuildingBlock: AJUNOK_clean_linker_0, # of connection points: 2
#     Edge 33, Type (0, 1), BuildingBlock: AJUNOK_clean_linker_0, # of connection points: 2
#     Edge 34, Type (0, 1), BuildingBlock: AJUNOK_clean_linker_0, # of connection points: 2
#     Edge 35, Type (0, 1), BuildingBlock: AJUNOK_clean_linker_0, # of connection points: 2
# Relax obj value: 0.317
# Max RMSD: 0.321
# Mean RMSD: 0.197
data_MOF--net-zzz--node1-GEDQOX_clean_sbu_0--node2-MIDCAF_clean_linker_0--edge1-AJUNOK_clean_linker_0
_symmetry_space_group_name_H-M    P1
_symmetry_Int_Tables_number       1
_symmetry_cell_setting            triclinic
loop_
_symmetry_equiv_pos_as_xyz
'x, y, z'
_cell_length_a     49.126358
_cell_length_b     46.070732
_cell_length_c     18.109322
_cell_angle_alpha  79.807212
_cell_angle_beta   90.374456
_cell_angle_gamma 104.3598
loop_
_atom_site_label
_atom_site_type_symbol
_atom_site_fract_x
_atom_site_fract_y
_atom_site_fract_z
_atom_type_partial_charge
C0 C 0.84131 0.52833 0.31456 0.0
C1 C 0.83286 0.54998 0.34827 0.0
C2 C 0.8073 0.55721 0.32879 0.0
C3 C 0.79117 0.54408 0.27335 0.0
H4 H 0.71632 0.53824 0.15454 0.0
H5 H 0.67101 0.54718 0.11561 0.0
H6 H 0.67772 0.51019 0.91562 0.0
H7 H 0.72317 0.50143 0.95348 0.0
H8 H 0.80586 0.51037 0.92717 0.0
H9 H 0.84575 0.49991 0.86814 0.0
H10 H 0.84218 0.42257 0.04584 0.0
H11 H 0.80386 0.4353 0.10852 0.0
H12 H 0.83287 0.49896 0.23426 0.0
H13 H 0.86062 0.52185 0.33 0.0
H14 H 0.80028 0.57367 0.35476 0.0
H15 H 0.77203 0.55083 0.25752 0.0
N16 N 0.76147 0.51939 0.14787 0.0
N17 N 0.76252 0.49531 0.04405 0.0
N18 N 0.79736 0.49542 0.13286 0.0
C19 C 0.74974 0.51097 0.08396 0.0
C20 C 0.78606 0.48708 0.06915 0.0
C21 C 0.78543 0.51172 0.17248 0.0
C22 C 0.7233 0.51871 0.05776 0.0
C23 C 0.70835 0.53224 0.10191 0.0
C24 C 0.68237 0.53731 0.0798 0.0
C25 C 0.67081 0.52899 0.01315 0.0
C26 C 0.68623 0.5168 0.96724 0.0
C27 C 0.71218 0.51162 0.98937 0.0
C28 C 0.80226 0.47388 0.02256 0.0
C29 C 0.81309 0.49058 0.95219 0.0
C30 C 0.83597 0.48445 0.91838 0.0
C31 C 0.84798 0.46105 0.95374 0.0
C32 C 0.83437 0.44168 0.01899 0.0
C33 C 0.81216 0.44857 0.05427 0.0
C34 C 0.80027 0.52329 0.23719 0.0
C35 C 0.82523 0.51511 0.25989 0.0
C36 C 0.96473 0.78512 0.43755 0.0
C37 C 0.98411 0.7958 0.49024 0.0
C38 C 0.00935 0.78651 0.49587 0.0
C39 C 0.01636 0.76972 0.44489 0.0
H40 H 0.98528 0.67551 0.26777 0.0
H41 H 0.98033 0.63099 0.20693 0.0
H42 H 0.03836 0.68574 0.02822 0.0
H43 H 0.04281 0.72981 0.08667 0.0
H44 H 0.05866 0.79935 0.06136 0.0
H45 H 0.06976 0.8491 0.97884 0.0
H46 H 0.05974 0.89183 0.16724 0.0
H47 H 0.0498 0.84272 0.25006 0.0
H48 H 0.9579 0.76338 0.34104 0.0
H49 H 0.94526 0.79216 0.43119 0.0
H50 H 0.02462 0.79422 0.53614 0.0
H51 H 0.03721 0.76576 0.4456 0.0
N52 N 0.00647 0.7334 0.28671 0.0
N53 N 0.0342 0.76106 0.17935 0.0
N54 N 0.02713 0.78588 0.27619 0.0
C55 C 0.01846 0.7341 0.21799 0.0
C56 C 0.03867 0.78699 0.20802 0.0
C57 C 0.0112 0.75956 0.31589 0.0
C58 C 0.01455 0.70642 0.18277 0.0
C59 C 0.99691 0.67804 0.21546 0.0
C60 C 0.99416 0.65249 0.18067 0.0
C61 C 0.0091 0.65474 0.11274 0.0
C62 C 0.0263 0.68318 0.07989 0.0
C63 C 0.02897 0.70853 0.11416 0.0
C64 C 0.05236 0.81691 0.16187 0.0
C65 C 0.05964 0.81943 0.08562 0.0
C66 C 0.0659 0.84789 0.03828 0.0
C67 C 0.06467 0.87411 0.06636 0.0
C68 C 0.06065 0.87198 0.14392 0.0
C69 C 0.05466 0.84368 0.19129 0.0
C70 C 0.9983 0.76178 0.38727 0.0
C71 C 0.97181 0.76828 0.38639 0.0
C72 C 0.68881 0.97955 0.33994 0.0
C73 C 0.70072 0.97453 0.41017 0.0
C74 C 0.7302 0.97948 0.41316 0.0
C75 C 0.74738 0.99106 0.34739 0.0
H76 H 0.83517 0.01798 0.20897 0.0
H77 H 0.88098 0.0142 0.16565 0.0
H78 H 0.85099 0.0147 0.94054 0.0
H79 H 0.80613 0.02074 0.98313 0.0
H80 H 0.71166 0.07381 0.13256 0.0
H81 H 0.6782 0.09127 0.04948 0.0
H82 H 0.72843 0.08804 0.85747 0.0
H83 H 0.7615 0.06846 0.94198 0.0
H84 H 0.69572 0.99571 0.22235 0.0
H85 H 0.66628 0.97617 0.33537 0.0
H86 H 0.73997 0.97529 0.46643 0.0
H87 H 0.77003 0.99604 0.35128 0.0
N88 N 0.77738 0.01077 0.19077 0.0
N89 N 0.77827 0.04442 0.07542 0.0
N90 N 0.74075 0.03466 0.1621 0.0
C91 C 0.79047 0.02536 0.12312 0.0
C92 C 0.75358 0.0496 0.09556 0.0
C93 C 0.75211 0.01518 0.20971 0.0
C94 C 0.81723 0.01988 0.09932 0.0
C95 C 0.8384 0.01698 0.15045 0.0
C96 C 0.86456 0.01448 0.1256 0.0
C97 C 0.86976 0.01386 0.04948 0.0
C98 C 0.84799 0.01553 0.99926 0.0
C99 C 0.82221 0.01888 0.02367 0.0
C100 C 0.73863 0.0685 0.04393 0.0
C101 C 0.71594 0.07721 0.0726 0.0
C102 C 0.69684 0.0877 0.02468 0.0
C103 C 0.70004 0.09005 0.9467 0.0
C104 C 0.7248 0.08533 0.91749 0.0
C105 C 0.74389 0.07437 0.96583 0.0
C106 C 0.73525 0.99798 0.27815 0.0
C107 C 0.70579 0.99109 0.27504 0.0
C108 C 0.61943 0.73578 0.23534 0.0
C109 C 0.61514 0.74553 0.15912 0.0
C110 C 0.61866 0.7768 0.13213 0.0
C111 C 0.621 0.79692 0.18248 0.0
H112 H 0.56179 0.83918 0.18319 0.0
H113 H 0.54688 0.88114 0.10812 0.0
H114 H 0.54964 0.92446 0.30166 0.0
H115 H 0.56468 0.8817 0.37828 0.0
H116 H 0.53184 0.76479 0.48093 0.0
H117 H 0.52106 0.71798 0.57586 0.0
H118 H 0.60811 0.7359 0.63498 0.0
H119 H 0.61888 0.782 0.53887 0.0
H120 H 0.622 0.7468 0.34496 0.0
H121 H 0.61698 0.71187 0.25815 0.0
H122 H 0.61616 0.78503 0.07325 0.0
H123 H 0.62022 0.82016 0.1608 0.0
N124 N 0.59623 0.82442 0.2836 0.0
N125 N 0.57222 0.81965 0.39887 0.0
N126 N 0.60231 0.78816 0.38497 0.0
C127 C 0.57861 0.83392 0.32579 0.0
C128 C 0.58472 0.79695 0.42885 0.0
C129 C 0.60814 0.80159 0.31224 0.0
C130 C 0.5647 0.85723 0.28671 0.0
C131 C 0.55892 0.85741 0.21041 0.0
C132 C 0.55044 0.88153 0.1671 0.0
C133 C 0.54743 0.90631 0.19853 0.0
C134 C 0.55167 0.90556 0.27594 0.0
C135 C 0.56019 0.88111 0.31986 0.0
C136 C 0.57616 0.77716 0.5029 0.0
C137 C 0.54835 0.75943 0.51665 0.0
C138 C 0.54228 0.73241 0.57044 0.0
C139 C 0.56392 0.72271 0.61133 0.0
C140 C 0.59113 0.74222 0.60286 0.0
C141 C 0.59721 0.76895 0.54883 0.0
C142 C 0.6198 0.78587 0.26029 0.0
C143 C 0.62208 0.75593 0.28555 0.0
C144 C 0.21398 0.55816 0.30462 0.0
C145 C 0.2157 0.53018 0.287 0.0
C146 C 0.23188 0.51307 0.33114 0.0
C147 C 0.24569 0.52356 0.3929 0.0
H148 H 0.31861 0.52726 0.52585 0.0
H149 H 0.36232 0.51735 0.57524 0.0
H150 H 0.35216 0.55898 0.7654 0.0
H151 H 0.3082 0.5686 0.71711 0.0
H152 H 0.22491 0.62943 0.53738 0.0
H153 H 0.18712 0.64314 0.59952 0.0
H154 H 0.19103 0.57449 0.79339 0.0
H155 H 0.23022 0.56316 0.73389 0.0
H156 H 0.22482 0.58955 0.38043 0.0
H157 H 0.20132 0.57157 0.272 0.0
H158 H 0.23336 0.49135 0.31869 0.0
H159 H 0.25741 0.50955 0.42731 0.0
N160 N 0.27613 0.55091 0.5156 0.0
N161 N 0.27023 0.57275 0.62033 0.0
N162 N 0.24008 0.57576 0.52 0.0
C163 C 0.28472 0.55759 0.58368 0.0
C164 C 0.24808 0.58209 0.58836 0.0
C165 C 0.25384 0.56001 0.48346 0.0
C166 C 0.30992 0.54901 0.61703 0.0
C167 C 0.3254 0.53398 0.57869 0.0
C168 C 0.35046 0.52828 0.60691 0.0
C169 C 0.36056 0.53733 0.67417 0.0
C170 C 0.34464 0.55131 0.71404 0.0
C171 C 0.31955 0.55705 0.68586 0.0
C172 C 0.23027 0.59522 0.63097 0.0
C173 C 0.21833 0.61832 0.59458 0.0
C174 C 0.19662 0.62599 0.63007 0.0
C175 C 0.18572 0.60988 0.70149 0.0
C176 C 0.19916 0.58818 0.73956 0.0
C177 C 0.22153 0.58133 0.70508 0.0
C178 C 0.24292 0.55094 0.41242 0.0
C179 C 0.22731 0.56835 0.3669 0.0
C180 C 0.02333 0.28132 0.18165 0.0
C181 C 0.05098 0.27793 0.18266 0.0
C182 C 0.07036 0.2945 0.22719 0.0
C183 C 0.06139 0.31094 0.27644 0.0
H184 H 0.0447 0.39835 0.39676 0.0
H185 H 0.04919 0.44329 0.45559 0.0
H186 H 0.99802 0.38729 0.64613 0.0
H187 H 0.99414 0.34279 0.58956 0.0
H188 H 0.98208 0.27299 0.61748 0.0
H189 H 0.97495 0.22352 0.70024 0.0
H190 H 0.98009 0.1811 0.50812 0.0
H191 H 0.98588 0.22979 0.42547 0.0
H192 H 0.99223 0.29692 0.2348 0.0
H193 H 0.00785 0.26895 0.14809 0.0
H194 H 0.092 0.29294 0.22797 0.0
H195 H 0.076 0.32055 0.31606 0.0
N196 N 0.0257 0.33972 0.38288 0.0
N197 N 0.00115 0.31166 0.49472 0.0
N198 N 0.00664 0.28686 0.39654 0.0
C199 C 0.01519 0.3389 0.45347 0.0
C200 C 0.99679 0.2856 0.46671 0.0
C201 C 0.02093 0.31342 0.35425 0.0
C202 C 0.01893 0.36679 0.48776 0.0
C203 C 0.03451 0.39564 0.45127 0.0
C204 C 0.03696 0.42143 0.4849 0.0
C205 C 0.02374 0.41896 0.55548 0.0
C206 C 0.00869 0.39006 0.59221 0.0
C207 C 0.00633 0.36446 0.55907 0.0
C208 C 0.98548 0.25554 0.51503 0.0
C209 C 0.98088 0.25298 0.59272 0.0
C210 C 0.97699 0.22471 0.64018 0.0
C211 C 0.97796 0.19871 0.6107 0.0
C212 C 0.97946 0.20077 0.53257 0.0
C213 C 0.98303 0.22885 0.48518 0.0
C214 C 0.03295 0.3112 0.28163 0.0
C215 C 0.01441 0.29767 0.23081 0.0
C216 C 0.32949 0.10333 0.31705 0.0
C217 C 0.34306 0.08452 0.28565 0.0
C218 C 0.33638 0.0532 0.31531 0.0
C219 C 0.3183 0.04131 0.37828 0.0
H220 H 0.22424 0.0746 0.50312 0.0
H221 H 0.17789 0.07826 0.54201 0.0
H222 H 0.18595 0.02678 0.76099 0.0
H223 H 0.23237 0.02361 0.72331 0.0
H224 H 0.29249 0.00758 0.7656 0.0
H225 H 0.32765 0.99288 0.8507 0.0
H226 H 0.37842 0.9894 0.66004 0.0
H227 H 0.34307 1.00209 0.57644 0.0
H228 H 0.30213 0.10643 0.4062 0.0
H229 H 0.33397 0.1275 0.29461 0.0
H230 H 0.34652 0.03812 0.29268 0.0
H231 H 0.31496 0.01738 0.40254 0.0
N232 N 0.26954 0.05477 0.51237 0.0
N233 N 0.27371 0.02779 0.63363 0.0
N234 N 0.30721 0.03228 0.53861 0.0
C235 C 0.25927 0.04392 0.58466 0.0
C236 C 0.29774 0.02189 0.61075 0.0
C237 C 0.29351 0.04867 0.48927 0.0
C238 C 0.23212 0.04863 0.60975 0.0
C239 C 0.21637 0.06443 0.55994 0.0
C240 C 0.18978 0.06653 0.58216 0.0
C241 C 0.17831 0.05298 0.65473 0.0
C242 C 0.19439 0.03804 0.70526 0.0
C243 C 0.22097 0.03597 0.68318 0.0
C244 C 0.31534 0.00696 0.66401 0.0
C245 C 0.31081 1.00284 0.74218 0.0
C246 C 0.33108 0.99468 0.79089 0.0
C247 C 0.35631 0.99095 0.76207 0.0
C248 C 0.35935 0.99216 0.68447 0.0
C249 C 0.3391 0.99987 0.6362 0.0
C250 C 0.30616 0.06032 0.41275 0.0
C251 C 0.31101 0.09126 0.38009 0.0
C252 C 0.40851 0.32558 0.42393 0.0
C253 C 0.41834 0.32376 0.49723 0.0
C254 C 0.42276 0.29595 0.53445 0.0
C255 C 0.42254 0.27261 0.49468 0.0
H256 H 0.48128 0.23278 0.50993 0.0
H257 H 0.49904 0.19459 0.59201 0.0
H258 H 0.50547 0.14953 0.40551 0.0
H259 H 0.48798 0.18872 0.3218 0.0
H260 H 0.43427 0.27974 0.13085 0.0
H261 H 0.44383 0.32735 0.03863 0.0
H262 H 0.5213 0.36027 0.14499 0.0
H263 H 0.51221 0.31223 0.23565 0.0
H264 H 0.40464 0.30621 0.32443 0.0
H265 H 0.40417 0.34649 0.39465 0.0
H266 H 0.4302 0.29361 0.59108 0.0
H267 H 0.42945 0.25305 0.52278 0.0
N268 N 0.44689 0.24151 0.40211 0.0
N269 N 0.47591 0.24956 0.29379 0.0
N270 N 0.4413 0.27668 0.29763 0.0
C271 C 0.46763 0.23442 0.36529 0.0
C272 C 0.46207 0.27036 0.2593 0.0
C273 C 0.43363 0.26261 0.36918 0.0
C274 C 0.48298 0.21362 0.40939 0.0
C275 C 0.48683 0.21499 0.48586 0.0
C276 C 0.49692 0.19301 0.53316 0.0
C277 C 0.50336 0.16878 0.50574 0.0
C278 C 0.50089 0.16807 0.42831 0.0
C279 C 0.4909 0.19045 0.38033 0.0
C280 C 0.47286 0.29195 0.18917 0.0
C281 C 0.4541 0.29644 0.13176 0.0
C282 C 0.45938 0.32381 0.07966 0.0
C283 C 0.48317 0.34747 0.08523 0.0
C284 C 0.50284 0.34229 0.13951 0.0
C285 C 0.49787 0.31463 0.19055 0.0
C286 C 0.41875 0.27726 0.4168 0.0
C287 C 0.40871 0.30241 0.38378 0.0
Nd288 Nd 0.00361 0.01699 0.78051 0.0
Nd289 Nd 0.03901 0.05369 0.89926 0.0
C290 C 0.96633 0.97635 0.72142 0.0
C291 C 0.96794 0.94908 0.6909 0.0
C292 C 0.94501 0.93321 0.65535 0.0
C293 C 0.94673 0.90745 0.62599 0.0
C294 C 0.97135 0.89684 0.63243 0.0
C295 C 0.99425 0.91291 0.66838 0.0
C296 C 0.99262 0.93882 0.69677 0.0
C297 C 0.06013 0.03537 0.73585 0.0
C298 C 0.04089 0.98464 0.9055 0.0
C299 C 0.07179 0.0954 0.96668 0.0
C300 C 0.0701 0.12353 0.99287 0.0
C301 C 0.09365 0.14066 0.02362 0.0
C302 C 0.09223 0.16696 0.05057 0.0
C303 C 0.06715 0.17663 0.04757 0.0
C304 C 0.04377 0.15979 0.01486 0.0
C305 C 0.0452 0.13342 0.98799 0.0
C306 C 0.98378 0.02399 0.94119 0.0
C307 C 0.00405 0.08845 0.76773 0.0
O308 O 0.96948 0.97452 0.79399 0.0
O309 O 0.98017 1.00265 0.68248 0.0
O310 O 0.04068 0.02112 0.69709 0.0
O311 O 0.04871 0.03993 0.79309 0.0
O312 O 0.01706 0.9818 0.86983 0.0
O313 O 0.05635 0.0115 0.91511 0.0
O314 O 0.07234 0.09662 0.89394 0.0
O315 O 0.0557 0.06984 1.00298 0.0
O316 O 0.00416 0.0264 0.98765 0.0
O317 O 0.99297 0.03808 0.87662 0.0
O318 O 0.02251 0.09009 0.82139 0.0
O319 O 0.99222 0.0626 0.74489 0.0
H320 H 0.92586 0.94092 0.64959 0.0
H321 H 0.92897 0.89628 0.59683 0.0
H322 H 0.01351 0.90545 0.67463 0.0
H323 H 0.01069 0.95095 0.72324 0.0
H324 H 0.11313 0.13356 0.02728 0.0
H325 H 0.11078 0.17973 0.07395 0.0
H326 H 0.02415 0.16659 0.01175 0.0
H327 H 0.02681 0.12057 0.96413 0.0
Nd328 Nd 0.53294 0.0173 0.81498 0.0
Nd329 Nd 0.52298 0.06415 0.90178 0.0
C330 C 0.54264 0.97152 0.75835 0.0
C331 C 0.56734 0.96904 0.71645 0.0
C332 C 0.57199 0.94051 0.71258 0.0
C333 C 0.59568 0.9385 0.67287 0.0
C334 C 0.61518 0.96504 0.63683 0.0
C335 C 0.61036 0.99355 0.64126 0.0
C336 C 0.58684 0.99552 0.68105 0.0
C337 C 0.53056 0.0717 0.72577 0.0
C338 C 0.58749 0.06774 0.84872 0.0
C339 C 0.5138 0.10968 0.96045 0.0
C340 C 0.48934 0.11401 1.00092 0.0
C341 C 0.46426 0.11585 0.96448 0.0
C342 C 0.44043 0.11666 0.00527 0.0
C343 C 0.44108 0.11558 0.08333 0.0
C344 C 0.46644 0.11479 0.1192 0.0
C345 C 0.49032 0.11425 0.07836 0.0
C346 C 0.52511 0.00946 0.99012 0.0
C347 C 0.46839 0.01431 0.86607 0.0
O348 O 0.5465 0.97415 0.8286 0.0
O349 O 0.52867 0.99032 0.72374 0.0
O350 O 0.54825 0.05614 0.71397 0.0
O351 O 0.51461 0.05813 0.7823 0.0
O352 O 0.57805 0.03985 0.83592 0.0
O353 O 0.57011 0.08347 0.86647 0.0
O354 O 0.51137 0.10832 0.88903 0.0
O355 O 0.52631 0.08963 0.99594 0.0
O356 O 0.50727 0.02486 1.00187 0.0
O357 O 0.54126 0.02334 0.93426 0.0
O358 O 0.47787 0.0423 0.87835 0.0
O359 O 0.48578 0.99825 0.85025 0.0
H360 H 0.55726 0.91981 0.73997 0.0
H361 H 0.59875 0.91622 0.67019 0.0
H362 H 0.62442 0.01443 0.6124 0.0
H363 H 0.58372 0.01781 0.68355 0.0
H364 H 0.4627 0.11577 0.90482 0.0
H365 H 0.42124 0.11738 0.97602 0.0
H366 H 0.46754 0.1132 0.17947 0.0
H367 H 0.50932 0.11284 0.10797 0.0
Nd368 Nd 0.50348 0.54143 0.90926 0.0
Nd369 Nd 0.5277 0.52673 0.78389 0.0
C370 C 0.48158 0.56849 1.00108 0.0
C371 C 0.49564 0.59753 0.02429 0.0
C372 C 0.50236 0.62484 0.97131 0.0
C373 C 0.52244 0.65016 0.98644 0.0
C374 C 0.53611 0.64857 0.05469 0.0
C375 C 0.52776 0.62224 0.10998 0.0
C376 C 0.50761 0.59697 0.09502 0.0
C377 C 0.55686 0.53454 0.93675 0.0
C378 C 0.53834 0.597 0.77735 0.0
C379 C 0.54589 0.4994 0.68632 0.0
C380 C 0.52698 0.47422 0.65797 0.0
C381 C 0.53666 0.45692 0.6128 0.0
C382 C 0.51756 0.43289 0.58798 0.0
C383 C 0.4887 0.42602 0.60837 0.0
C384 C 0.47926 0.44356 0.65349 0.0
C385 C 0.49824 0.46728 0.67839 0.0
C386 C 0.47387 0.5331 0.75991 0.0
C387 C 0.49659 0.47106 0.919 0.0
O388 O 0.47497 0.56991 0.93066 0.0
O389 O 0.49309 0.54603 0.0247 0.0
O390 O 0.53576 0.52451 0.98433 0.0
O391 O 0.55005 0.54877 0.87618 0.0
O392 O 0.51683 0.58771 0.82641 0.0
O393 O 0.55118 0.577 0.76037 0.0
O394 O 0.55047 0.49348 0.75789 0.0
O395 O 0.5396 0.52555 0.66677 0.0
O396 O 0.49478 0.54453 0.71221 0.0
O397 O 0.48133 0.51855 0.81881 0.0
O398 O 0.51701 0.48091 0.86706 0.0
O399 O 0.48336 0.49018 0.93926 0.0
H400 H 0.49336 0.62617 0.91649 0.0
H401 H 0.52822 0.67047 0.94351 0.0
H402 H 0.53739 0.62093 0.16406 0.0
H403 H 0.50272 0.57633 0.13705 0.0
H404 H 0.55878 0.46191 0.59696 0.0
H405 H 0.52532 0.41957 0.55327 0.0
H406 H 0.45715 0.43922 0.66875 0.0
H407 H 0.49043 0.48035 0.71369 0.0
Nd408 Nd 0.00413 0.56354 0.7778 0.0
Nd409 Nd 0.03067 0.51164 0.88801 0.0
C410 C 0.97526 0.60352 0.7282 0.0
C411 C 0.95053 0.60096 0.68095 0.0
C412 C 0.9492 0.62481 0.62208 0.0
C413 C 0.92808 0.62064 0.56984 0.0
C414 C 0.90806 0.59251 0.5757 0.0
C415 C 0.90862 0.56924 0.63687 0.0
C416 C 0.92973 0.57335 0.68875 0.0
C417 C 0.01427 0.51954 0.70194 0.0
C418 C 0.96345 0.49648 0.86003 0.0
C419 C 0.06096 0.47324 0.93884 0.0
C420 C 0.08602 0.47903 0.98405 0.0
C421 C 0.09962 0.45611 0.0113 0.0
C422 C 0.12334 0.46252 0.05497 0.0
C423 C 0.13377 0.49197 0.07114 0.0
C424 C 0.11986 0.51466 0.04389 0.0
C425 C 0.09631 0.50829 1.00067 0.0
C426 C 0.01974 0.55535 0.96389 0.0
C427 C 0.07155 0.57827 0.80387 0.0
O428 O 0.97119 0.58697 0.796 0.0
O429 O 0.99858 0.60285 0.69433 0.0
O430 O 0.00452 0.54229 0.67032 0.0
O431 O 0.01801 0.52174 0.76969 0.0
O432 O 0.96588 0.52502 0.82597 0.0
O433 O 0.98493 0.48501 0.88294 0.0
O434 O 0.06424 0.48897 0.87019 0.0
O435 O 0.03741 0.47329 0.97271 0.0
O436 O 0.02904 0.53237 0.99605 0.0
O437 O 0.01686 0.55344 0.89579 0.0
O438 O 0.06895 0.54996 0.83954 0.0
O439 O 0.0502 0.58971 0.77981 0.0
H440 H 0.96512 0.64621 0.61484 0.0
H441 H 0.9279 0.63905 0.52359 0.0
H442 H 0.89359 0.54727 0.6424 0.0
H443 H 0.93042 0.55442 0.73311 0.0
H444 H 0.09185 0.43338 0.99918 0.0
H445 H 0.13356 0.44456 0.07598 0.0
H446 H 0.12681 0.53726 0.05743 0.0
H447 H 0.08593 0.52621 0.98073 0.0
C448 C 0.12736 0.04232 0.62576 0.0
C449 C 0.14865 0.05173 0.67502 0.0
C450 C 0.09895 0.03801 0.64562 0.0
C451 C 0.09057 0.04306 0.71541 0.0
H452 H 0.13259 0.03716 0.57233 0.0
H453 H 0.08339 0.02999 0.60632 0.0
S454 S 0.13806 0.07014 0.86254 0.0
N455 N 0.15948 0.06775 0.79516 0.0
N456 N 0.10592 0.05944 0.83255 0.0
C457 C 0.1116 0.05346 0.76434 0.0
C458 C 0.14065 0.05777 0.7442 0.0
C459 C 0.49458 0.13121 0.62704 0.0
C460 C 0.51086 0.14372 0.55982 0.0
C461 C 0.50134 0.10832 0.68055 0.0
C462 C 0.52468 0.09685 0.66925 0.0
H463 H 0.47623 0.13905 0.63825 0.0
H464 H 0.48797 0.09939 0.73094 0.0
S465 S 0.57482 0.12252 0.50423 0.0
N466 N 0.55187 0.14342 0.48608 0.0
N467 N 0.56453 0.10023 0.58624 0.0
C468 C 0.54127 0.10921 0.60254 0.0
C469 C 0.53434 0.13258 0.54789 0.0
C470 C 0.41183 0.54627 0.64641 0.0
C471 C 0.38892 0.53487 0.69837 0.0
C472 C 0.43911 0.54552 0.66733 0.0
C473 C 0.44459 0.53313 0.74094 0.0
H474 H 0.40874 0.5564 0.58926 0.0
H475 H 0.45604 0.55482 0.62519 0.0
S476 S 0.39183 0.49964 0.89803 0.0
N477 N 0.37332 0.51036 0.8265 0.0
N478 N 0.42484 0.50889 0.86598 0.0
C479 C 0.42189 0.52141 0.79355 0.0
C480 C 0.394 0.52235 0.77226 0.0
C481 C 0.0287 0.44528 0.6677 0.0
C482 C 0.02422 0.44621 0.59028 0.0
C483 C 0.0262 0.46932 0.70341 0.0
C484 C 0.01909 0.49525 0.66315 0.0
H485 H 0.03374 0.42554 0.70132 0.0
H486 H 0.02914 0.46721 0.76323 0.0
S487 S 0.00558 0.50935 0.45934 0.0
N488 N 0.0125 0.47556 0.47479 0.0
N489 N 0.00833 0.52078 0.54107 0.0
C490 C 0.01525 0.49682 0.58544 0.0
C491 C 0.01775 0.47237 0.5492 0.0
C492 C 0.90938 0.03276 0.95226 0.0
C493 C 0.89825 0.01386 0.02083 0.0
C494 C 0.93657 0.03474 0.92532 0.0
C495 C 0.95405 0.01837 0.96646 0.0
H496 H 0.89736 0.04698 0.91992 0.0
H497 H 0.94432 0.05024 0.87328 0.0
S498 S 0.93453 0.96325 0.14478 0.0
N499 N 0.90628 0.97613 0.1255 0.0
N500 N 0.95796 0.98115 0.07631 0.0
C501 C 0.94313 0.99878 0.03386 0.0
C502 C 0.91516 0.99626 0.06076 0.0
C503 C 0.55783 0.94589 0.08107 0.0
C504 C 0.54161 0.9333 0.14831 0.0
C505 C 0.55226 0.97034 0.03042 0.0
C506 C 0.53012 0.98322 0.04454 0.0
H507 H 0.57511 0.93677 0.06751 0.0
H508 H 0.56548 0.97922 0.97977 0.0
S509 S 0.48096 0.95833 0.21167 0.0
N510 N 0.50226 0.93538 0.22585 0.0
N511 N 0.49166 0.98133 0.13078 0.0
C512 C 0.5137 0.9709 0.11159 0.0
C513 C 0.51951 0.94604 0.16347 0.0
C514 C 0.63615 0.54581 0.92336 0.0
C515 C 0.64183 0.53088 0.99437 0.0
C516 C 0.6086 0.54707 0.90479 0.0
C517 C 0.58585 0.53321 0.95644 0.0
H518 H 0.65315 0.55671 0.88216 0.0
H519 H 0.60511 0.55892 0.84971 0.0
S520 S 0.58957 0.48946 0.14783 0.0
N521 N 0.62247 0.50083 0.11495 0.0
N522 N 0.57085 0.50305 0.08057 0.0
C523 C 0.59131 0.51785 0.0272 0.0
C524 C 0.61927 0.51674 0.04606 0.0
C525 C 0.00607 0.62986 0.99839 0.0
C526 C 0.00825 0.62766 0.07691 0.0
C527 C 0.00882 0.60606 0.96211 0.0
C528 C 0.01395 0.57914 1.00288 0.0
H529 H 0.00278 0.65046 0.96441 0.0
H530 H 0.00784 0.60919 0.90156 0.0
S531 S 0.02041 0.56128 0.2096 0.0
N532 N 0.01517 0.59584 0.19405 0.0
N533 N 0.0199 0.55112 0.12654 0.0
C534 C 0.01524 0.57622 0.08158 0.0
C535 C 0.01243 0.6004 0.11843 0.0
C536 C 0.9671 0.14189 0.6465 0.0
C537 C 0.98173 0.17074 0.65978 0.0
C538 C 0.97401 0.11535 0.68286 0.0
C539 C 0.99586 0.11665 0.73383 0.0
H540 H 0.95071 0.13991 0.606 0.0
H541 H 0.96247 0.09375 0.66956 0.0
S542 S 0.03991 0.1868 0.79033 0.0
N543 N 0.01855 0.19909 0.72877 0.0
N544 N 0.03127 0.14941 0.79816 0.0
C545 C 0.00991 0.14536 0.74983 0.0
C546 C 0.00289 0.17234 0.71265 0.0
C547 C 0.39956 0.97259 0.79623 0.0
C548 C 0.38138 0.99073 0.80873 0.0
C549 C 0.42721 0.97856 0.82081 0.0
C550 C 0.43762 1.00281 0.85918 0.0
H551 H 0.39304 0.95502 0.76255 0.0
H552 H 0.441 0.9655 0.80473 0.0
S553 S 0.39668 0.05275 0.92058 0.0
N554 N 0.37463 0.03108 0.87162 0.0
N555 N 0.42597 0.04136 0.92067 0.0
C556 C 0.41862 0.01869 0.87985 0.0
C557 C 0.39061 0.01285 0.85406 0.0
C558 C 0.45097 0.37537 0.47717 0.0
C559 C 0.4317 0.35207 0.5254 0.0
C560 C 0.46894 0.39939 0.50442 0.0
C561 C 0.46835 0.40112 0.58092 0.0
H562 H 0.45339 0.37424 0.41841 0.0
H563 H 0.48379 0.41645 0.46544 0.0
S564 S 0.42044 0.34734 0.72984 0.0
N565 N 0.41178 0.33341 0.65251 0.0
N566 N 0.44602 0.37845 0.7043 0.0
C567 C 0.44838 0.37879 0.62941 0.0
C568 C 0.42998 0.35429 0.60153 0.0
C569 C 0.13575 0.61135 0.67843 0.0
C570 C 0.1576 0.61113 0.7294 0.0
C571 C 0.10759 0.60411 0.70364 0.0
C572 C 0.10028 0.59592 0.7805 0.0
H573 H 0.14 0.61447 0.61858 0.0
H574 H 0.09138 0.60201 0.66262 0.0
S575 S 0.14909 0.59884 0.93706 0.0
N576 N 0.16987 0.60824 0.86067 0.0
N577 N 0.11662 0.59255 0.9076 0.0
C578 C 0.12175 0.59843 0.83209 0.0
C579 C 0.15052 0.60661 0.80661 0.0
C580 C 0.07704 0.931 0.02903 0.0
C581 C 0.06235 0.90223 0.01531 0.0
C582 C 0.07083 0.95774 0.99102 0.0
C583 C 0.04947 0.9566 0.9386 0.0
H584 H 0.09273 0.93276 0.07144 0.0
H585 H 0.0821 0.97928 0.00518 0.0
S586 S 0.0062 0.88681 0.87885 0.0
N587 N 0.02654 0.87424 0.94303 0.0
N588 N 0.0151 0.9242 0.87105 0.0
C589 C 0.03563 0.92799 0.92175 0.0
C590 C 0.04204 0.90088 0.96018 0.0
C591 C 0.65714 0.10944 0.91462 0.0
C592 C 0.67508 0.09129 0.90022 0.0
C593 C 0.62923 0.10358 0.89183 0.0
C594 C 0.61835 0.07948 0.85335 0.0
H595 H 0.66404 0.12676 0.94884 0.0
H596 H 0.61563 0.11651 0.90958 0.0
S597 S 0.65832 0.02963 0.78744 0.0
N598 N 0.68096 0.05113 0.83539 0.0
N599 N 0.62922 0.04121 0.78948 0.0
C600 C 0.63709 0.06377 0.83043 0.0
C601 C 0.66532 0.06944 0.85446 0.0
C602 C 0.57395 0.72737 0.08397 0.0
C603 C 0.59926 0.72293 0.11549 0.0
C604 C 0.55418 0.70352 0.06086 0.0
C605 C 0.55894 0.67437 0.06882 0.0
H606 H 0.56831 0.74876 0.08226 0.0
H607 H 0.53434 0.70747 0.04089 0.0
S608 S 0.62394 0.65231 0.13375 0.0
N609 N 0.62967 0.68836 0.14294 0.0
N610 N 0.59227 0.64329 0.09979 0.0
C611 C 0.58502 0.67019 0.0944 0.0
C612 C 0.60526 0.69454 0.11757 0.0
C613 C 0.88512 0.46872 0.85269 0.0
C614 C 0.87689 0.46086 0.92954 0.0
C615 C 0.91358 0.47783 0.82943 0.0
C616 C 0.93473 0.47827 0.88197 0.0
H617 H 0.86955 0.47002 0.81042 0.0
H618 H 0.91909 0.48633 0.77033 0.0
S619 S 0.925 0.45642 0.0885 0.0
N620 N 0.8928 0.45209 0.05771 0.0
N621 N 0.94605 0.46739 0.01272 0.0
C622 C 0.92696 0.4675 0.95802 0.0
C623 C 0.89804 0.4591 0.98218 0.0
C624 C 0.04974 0.25086 0.07242 0.0
C625 C 0.05806 0.25394 0.14586 0.0
C626 C 0.05317 0.2262 0.04049 0.0
C627 C 0.06505 0.20356 0.08069 0.0
H628 H 0.0401 0.26744 0.03973 0.0
H629 H 0.04628 0.22472 0.98402 0.0
S630 S 0.08866 0.19981 0.27651 0.0
N631 N 0.07777 0.23139 0.25872 0.0
N632 N 0.08426 0.18536 0.19885 0.0
C633 C 0.07363 0.20648 0.15391 0.0
C634 C 0.07014 0.23154 0.18638 0.0
C635 C 0.36657 0.08255 0.16501 0.0
C636 C 0.36604 0.09709 0.22689 0.0
C637 C 0.3904 0.08986 0.11666 0.0
C638 C 0.41477 0.11196 0.12832 0.0
H639 H 0.34879 0.06443 0.15569 0.0
H640 H 0.39022 0.0769 0.07219 0.0
S641 S 0.42323 0.15898 0.27756 0.0
N642 N 0.39133 0.13617 0.2942 0.0
N643 N 0.43591 0.15041 0.20223 0.0
C644 C 0.41395 0.12795 0.18738 0.0
C645 C 0.38963 0.12048 0.23673 0.0
C646 C 0.48285 0.40222 0.07724 0.0
C647 C 0.48575 0.37851 0.04079 0.0
C648 C 0.48503 0.43182 0.03695 0.0
C649 C 0.49078 0.43893 0.95892 0.0
H650 H 0.47887 0.39782 0.13747 0.0
H651 H 0.48318 0.44948 0.06756 0.0
S652 S 0.49922 0.38469 0.83685 0.0
N653 N 0.49344 0.36377 0.92202 0.0
N654 N 0.49853 0.4195 0.8465 0.0
C655 C 0.4934 0.41529 0.92177 0.0
C656 C 0.49059 0.38505 0.96261 0.0
C657 C 0.17789 0.49023 0.24375 0.0
C658 C 0.19848 0.51802 0.22666 0.0
C659 C 0.15793 0.48091 0.19132 0.0
C660 C 0.158 0.49905 0.12008 0.0
H661 H 0.1762 0.47649 0.29944 0.0
H662 H 0.1414 0.46028 0.20823 0.0
S663 S 0.2106 0.57107 0.04385 0.0
N664 N 0.21981 0.56172 0.13101 0.0
N665 N 0.18269 0.54397 0.0319 0.0
C666 C 0.17979 0.52573 0.1006 0.0
C667 C 0.19992 0.53529 0.15406 0.0
C668 C 0.00189 0.84727 0.52498 0.0
C669 C 0.9803 0.8203 0.53033 0.0
C670 C 0.99876 0.8716 0.55819 0.0
C671 C 0.97392 0.87011 0.59874 0.0
H672 H 0.02123 0.84993 0.49316 0.0
H673 H 0.01583 0.89204 0.55065 0.0
S674 S 0.91173 0.80366 0.63389 0.0
N675 N 0.93358 0.79303 0.58151 0.0
N676 N 0.9278 0.83847 0.64551 0.0
C677 C 0.95227 0.84303 0.60558 0.0
C678 C 0.95543 0.81826 0.57107 0.0
C679 C 0.65569 0.94603 0.48185 0.0
C680 C 0.68199 0.96731 0.47886 0.0
C681 C 0.63475 0.94407 0.53612 0.0
C682 C 0.6393 0.96329 0.58972 0.0
H683 H 0.65071 0.93188 0.43932 0.0
H684 H 0.61432 0.92869 0.53307 0.0
S685 S 0.70588 0.01951 0.61377 0.0
N686 N 0.71229 0.00583 0.5392 0.0
N687 N 0.67334 1.0013 0.64274 0.0
C688 C 0.66626 0.98283 0.59125 0.0
C689 C 0.68754 0.98498 0.53567 0.0
C690 C 0.53552 0.67952 0.70775 0.0
C691 C 0.55874 0.69122 0.65672 0.0
C692 C 0.52961 0.64941 0.74779 0.0
C693 C 0.54651 0.62953 0.73815 0.0
H694 H 0.52168 0.69371 0.71657 0.0
H695 H 0.5112 0.64153 0.78538 0.0
S696 S 0.60961 0.64888 0.60973 0.0
N697 N 0.59854 0.68035 0.59779 0.0
N698 N 0.58769 0.62415 0.67323 0.0
C699 C 0.56997 0.64109 0.68766 0.0
C700 C 0.57601 0.67176 0.64704 0.0
C701 C 0.84122 0.56221 0.47718 0.0
C702 C 0.8512 0.5649 0.40311 0.0
C703 C 0.85951 0.5724 0.53238 0.0
C704 C 0.88826 0.58602 0.51498 0.0
H705 H 0.81945 0.5509 0.49328 0.0
H706 H 0.85128 0.56886 0.58952 0.0
S707 S 0.92417 0.6003 0.32761 0.0
N708 N 0.89111 0.58374 0.314 0.0
N709 N 0.92548 0.60277 0.41748 0.0
C710 C 0.89814 0.5901 0.44022 0.0
C711 C 0.8796 0.57954 0.38436 0.0
loop_
_geom_bond_atom_site_label_1
_geom_bond_atom_site_label_2
_geom_bond_distance
_geom_bond_site_symmetry_2
_ccdc_geom_bond_type
C0 C1 1.384 . S
C0 H13 0.947 . S
C0 C35 1.382 . S
C1 C0 1.384 . S
C1 C2 1.378 . S
C2 C1 1.378 . S
C2 C3 1.378 . S
C2 H14 0.952 . S
C3 C2 1.378 . S
C3 H15 0.950 . S
C3 C34 1.383 . S
H4 C23 0.947 . S
H5 C24 0.946 . S
H6 C26 0.953 . S
H7 C27 0.945 . S
H8 C29 0.952 . S
H9 C30 0.949 . S
H10 C32 0.950 . S
H11 C33 0.948 . S
H12 C35 0.951 . S
H13 C0 0.947 . S
H14 C2 0.952 . S
H15 C3 0.950 . S
N16 C19 1.382 . S
N16 C21 1.363 . S
N17 C19 1.371 1_556 S
N17 C20 1.372 . S
N18 C20 1.361 1_554 S
N18 C21 1.377 . S
C19 N16 1.382 . S
C19 N17 1.371 1_554 S
C19 C22 1.480 1_554 S
C20 N17 1.372 . S
C20 N18 1.361 1_556 S
C20 C28 1.457 . S
C21 N16 1.363 . S
C21 N18 1.377 . S
C21 C34 1.479 . S
C22 C19 1.480 1_556 S
C22 C23 1.383 1_556 S
C22 C27 1.385 . S
C23 H4 0.947 . S
C23 C22 1.383 1_554 S
C23 C24 1.388 . S
C24 H5 0.946 . S
C24 C23 1.388 . S
C24 C25 1.384 1_554 S
C25 C24 1.384 1_556 S
C25 C26 1.377 . S
C26 H6 0.953 . S
C26 C25 1.377 . S
C26 C27 1.369 . S
C27 H7 0.945 . S
C27 C22 1.385 . S
C27 C26 1.369 . S
C28 C20 1.457 . S
C28 C29 1.372 . S
C28 C33 1.364 . S
C29 H8 0.952 . S
C29 C28 1.372 . S
C29 C30 1.389 . S
C30 H9 0.949 . S
C30 C29 1.389 . S
C30 C31 1.387 . S
C31 C30 1.387 . S
C31 C32 1.372 . S
C32 H10 0.950 . S
C32 C31 1.372 . S
C32 C33 1.379 . S
C33 H11 0.948 . S
C33 C28 1.364 . S
C33 C32 1.379 . S
C34 C3 1.383 . S
C34 C21 1.479 . S
C34 C35 1.398 . S
C35 C0 1.382 . S
C35 H12 0.951 . S
C35 C34 1.398 . S
C36 C37 1.384 . S
C36 H49 0.947 . S
C36 C71 1.382 . S
C37 C36 1.384 . S
C37 C38 1.378 . S
C38 C37 1.378 . S
C38 C39 1.378 . S
C38 H50 0.952 . S
C39 C38 1.378 . S
C39 H51 0.950 . S
C39 C70 1.383 . S
H40 C59 0.947 . S
H41 C60 0.946 . S
H42 C62 0.953 . S
H43 C63 0.945 . S
H44 C65 0.952 . S
H45 C66 0.949 . S
H46 C68 0.950 . S
H47 C69 0.956 . S
H48 C71 0.951 . S
H49 C36 0.947 . S
H50 C38 0.952 . S
H51 C39 0.950 . S
N52 C55 1.382 . S
N52 C57 1.363 . S
N53 C55 1.371 1_556 S
N53 C56 1.372 . S
N54 C56 1.361 1_554 S
N54 C57 1.377 . S
C55 N52 1.382 . S
C55 N53 1.371 1_554 S
C55 C58 1.480 . S
C56 N53 1.372 . S
C56 N54 1.361 1_556 S
C56 C64 1.457 . S
C57 N52 1.363 . S
C57 N54 1.377 . S
C57 C70 1.479 . S
C58 C55 1.480 . S
C58 C59 1.383 . S
C58 C63 1.385 1_554 S
C59 H40 0.947 . S
C59 C58 1.383 . S
C59 C60 1.388 . S
C60 H41 0.946 . S
C60 C59 1.388 . S
C60 C61 1.384 . S
C61 C60 1.384 . S
C61 C62 1.377 1_554 S
C62 H42 0.953 . S
C62 C61 1.377 1_556 S
C62 C63 1.369 . S
C63 H43 0.945 . S
C63 C58 1.385 1_556 S
C63 C62 1.369 . S
C64 C56 1.457 . S
C64 C65 1.372 . S
C64 C69 1.364 . S
C65 H44 0.952 . S
C65 C64 1.372 . S
C65 C66 1.389 . S
C66 H45 0.949 . S
C66 C65 1.389 . S
C66 C67 1.387 . S
C67 C66 1.387 . S
C67 C68 1.372 . S
C68 H46 0.950 . S
C68 C67 1.372 . S
C68 C69 1.379 . S
C69 H47 0.956 . S
C69 C64 1.364 . S
C69 C68 1.379 . S
C70 C39 1.383 . S
C70 C57 1.479 . S
C70 C71 1.398 . S
C71 C36 1.382 . S
C71 H48 0.951 . S
C71 C70 1.398 . S
C72 C73 1.384 . S
C72 H85 0.947 . S
C72 C107 1.382 . S
C73 C72 1.384 . S
C73 C74 1.378 . S
C74 C73 1.378 . S
C74 C75 1.378 . S
C74 H86 0.952 . S
C75 C74 1.378 . S
C75 H87 0.950 . S
C75 C106 1.383 . S
H76 C95 0.947 . S
H77 C96 0.946 1_554 S
H78 C98 0.953 . S
H79 C99 0.945 . S
H80 C101 0.952 . S
H81 C102 0.949 . S
H82 C104 0.950 . S
H83 C105 0.948 . S
H84 C107 0.951 . S
H85 C72 0.947 . S
H86 C74 0.952 . S
H87 C75 0.950 . S
N88 C91 1.382 1_554 S
N88 C93 1.363 . S
N89 C91 1.371 . S
N89 C92 1.372 . S
N90 C92 1.361 1_554 S
N90 C93 1.377 . S
C91 N88 1.382 1_556 S
C91 N89 1.371 . S
C91 C94 1.480 . S
C92 N89 1.372 . S
C92 N90 1.361 1_556 S
C92 C100 1.457 . S
C93 N88 1.363 . S
C93 N90 1.377 . S
C93 C106 1.479 . S
C94 C91 1.480 . S
C94 C95 1.383 1_556 S
C94 C99 1.385 . S
C95 H76 0.947 . S
C95 C94 1.383 1_554 S
C95 C96 1.388 1_554 S
C96 H77 0.946 1_556 S
C96 C95 1.388 1_556 S
C96 C97 1.384 . S
C97 C96 1.384 . S
C97 C98 1.377 . S
C98 H78 0.953 . S
C98 C97 1.377 . S
C98 C99 1.369 . S
C99 H79 0.945 . S
C99 C94 1.385 . S
C99 C98 1.369 . S
C100 C92 1.457 . S
C100 C101 1.372 . S
C100 C105 1.364 . S
C101 H80 0.952 . S
C101 C100 1.372 . S
C101 C102 1.389 . S
C102 H81 0.949 . S
C102 C101 1.389 . S
C102 C103 1.387 . S
C103 C102 1.387 . S
C103 C104 1.372 . S
C104 H82 0.950 . S
C104 C103 1.372 . S
C104 C105 1.379 . S
C105 H83 0.948 . S
C105 C100 1.364 . S
C105 C104 1.379 . S
C106 C75 1.383 . S
C106 C93 1.479 . S
C106 C107 1.398 . S
C107 C72 1.382 . S
C107 H84 0.951 . S
C107 C106 1.398 . S
C108 C109 1.384 . S
C108 H121 0.947 . S
C108 C143 1.382 . S
C109 C108 1.384 . S
C109 C110 1.378 . S
C110 C109 1.378 . S
C110 C111 1.378 . S
C110 H122 0.952 . S
C111 C110 1.378 . S
C111 H123 0.950 . S
C111 C142 1.383 . S
H112 C131 0.947 . S
H113 C132 0.946 . S
H114 C134 0.953 . S
H115 C135 0.945 . S
H116 C137 0.952 . S
H117 C138 0.949 . S
H118 C140 0.950 . S
H119 C141 0.948 . S
H120 C143 0.951 . S
H121 C108 0.947 . S
H122 C110 0.952 . S
H123 C111 0.950 . S
N124 C127 1.382 . S
N124 C129 1.363 . S
N125 C127 1.371 . S
N125 C128 1.372 . S
N126 C128 1.361 . S
N126 C129 1.377 . S
C127 N124 1.382 . S
C127 N125 1.371 . S
C127 C130 1.480 . S
C128 N125 1.372 . S
C128 N126 1.361 . S
C128 C136 1.457 . S
C129 N124 1.363 . S
C129 N126 1.377 . S
C129 C142 1.479 . S
C130 C127 1.480 . S
C130 C131 1.383 . S
C130 C135 1.385 . S
C131 H112 0.947 . S
C131 C130 1.383 . S
C131 C132 1.388 . S
C132 H113 0.946 . S
C132 C131 1.388 . S
C132 C133 1.384 . S
C133 C132 1.384 . S
C133 C134 1.377 . S
C134 H114 0.953 . S
C134 C133 1.377 . S
C134 C135 1.369 . S
C135 H115 0.945 . S
C135 C130 1.385 . S
C135 C134 1.369 . S
C136 C128 1.457 . S
C136 C137 1.372 . S
C136 C141 1.364 . S
C137 H116 0.952 . S
C137 C136 1.372 . S
C137 C138 1.389 . S
C138 H117 0.949 . S
C138 C137 1.389 . S
C138 C139 1.387 . S
C139 C138 1.387 . S
C139 C140 1.372 . S
C140 H118 0.950 . S
C140 C139 1.372 . S
C140 C141 1.379 . S
C141 H119 0.948 . S
C141 C136 1.364 . S
C141 C140 1.379 . S
C142 C111 1.383 . S
C142 C129 1.479 . S
C142 C143 1.398 . S
C143 C108 1.382 . S
C143 H120 0.951 . S
C143 C142 1.398 . S
C144 C145 1.384 . S
C144 H157 0.947 . S
C144 C179 1.382 . S
C145 C144 1.384 . S
C145 C146 1.378 . S
C146 C145 1.378 . S
C146 C147 1.378 . S
C146 H158 0.952 . S
C147 C146 1.378 . S
C147 H159 0.950 . S
C147 C178 1.383 . S
H148 C167 0.947 . S
H149 C168 0.946 . S
H150 C170 0.953 . S
H151 C171 0.945 . S
H152 C173 0.952 . S
H153 C174 0.949 . S
H154 C176 0.950 . S
H155 C177 0.948 . S
H156 C179 0.951 . S
H157 C144 0.947 . S
H158 C146 0.952 . S
H159 C147 0.950 . S
N160 C163 1.382 . S
N160 C165 1.363 . S
N161 C163 1.371 . S
N161 C164 1.372 . S
N162 C164 1.361 . S
N162 C165 1.377 . S
C163 N160 1.382 . S
C163 N161 1.371 . S
C163 C166 1.480 . S
C164 N161 1.372 . S
C164 N162 1.361 . S
C164 C172 1.457 . S
C165 N160 1.363 . S
C165 N162 1.377 . S
C165 C178 1.479 . S
C166 C163 1.480 . S
C166 C167 1.383 . S
C166 C171 1.385 . S
C167 H148 0.947 . S
C167 C166 1.383 . S
C167 C168 1.388 . S
C168 H149 0.946 . S
C168 C167 1.388 . S
C168 C169 1.384 . S
C169 C168 1.384 . S
C169 C170 1.377 . S
C170 H150 0.953 . S
C170 C169 1.377 . S
C170 C171 1.369 . S
C171 H151 0.945 . S
C171 C166 1.385 . S
C171 C170 1.369 . S
C172 C164 1.457 . S
C172 C173 1.372 . S
C172 C177 1.364 . S
C173 H152 0.952 . S
C173 C172 1.372 . S
C173 C174 1.389 . S
C174 H153 0.949 . S
C174 C173 1.389 . S
C174 C175 1.387 . S
C175 C174 1.387 . S
C175 C176 1.372 . S
C176 H154 0.950 . S
C176 C175 1.372 . S
C176 C177 1.379 . S
C177 H155 0.948 . S
C177 C172 1.364 . S
C177 C176 1.379 . S
C178 C147 1.383 . S
C178 C165 1.479 . S
C178 C179 1.398 . S
C179 C144 1.382 . S
C179 H156 0.951 . S
C179 C178 1.398 . S
C180 C181 1.384 . S
C180 H193 0.947 . S
C180 C215 1.382 . S
C181 C180 1.384 . S
C181 C182 1.378 . S
C182 C181 1.378 . S
C182 C183 1.378 . S
C182 H194 0.952 . S
C183 C182 1.378 . S
C183 H195 0.950 . S
C183 C214 1.383 . S
H184 C203 0.947 . S
H185 C204 0.946 . S
H186 C206 0.953 . S
H187 C207 0.945 . S
H188 C209 0.952 . S
H189 C210 0.949 . S
H190 C212 0.950 . S
H191 C213 0.948 . S
H192 C215 0.951 . S
H193 C180 0.947 . S
H194 C182 0.952 . S
H195 C183 0.950 . S
N196 C199 1.382 . S
N196 C201 1.363 . S
N197 C199 1.371 . S
N197 C200 1.372 . S
N198 C200 1.361 . S
N198 C201 1.377 . S
C199 N196 1.382 . S
C199 N197 1.371 . S
C199 C202 1.480 . S
C200 N197 1.372 . S
C200 N198 1.361 . S
C200 C208 1.457 . S
C201 N196 1.363 . S
C201 N198 1.377 . S
C201 C214 1.479 . S
C202 C199 1.480 . S
C202 C203 1.383 . S
C202 C207 1.385 . S
C203 H184 0.947 . S
C203 C202 1.383 . S
C203 C204 1.388 . S
C204 H185 0.946 . S
C204 C203 1.388 . S
C204 C205 1.384 . S
C205 C204 1.384 . S
C205 C206 1.377 . S
C206 H186 0.953 . S
C206 C205 1.377 . S
C206 C207 1.369 . S
C207 H187 0.945 . S
C207 C202 1.385 . S
C207 C206 1.369 . S
C208 C200 1.457 . S
C208 C209 1.372 . S
C208 C213 1.364 . S
C209 H188 0.952 . S
C209 C208 1.372 . S
C209 C210 1.389 . S
C210 H189 0.949 . S
C210 C209 1.389 . S
C210 C211 1.387 . S
C211 C210 1.387 . S
C211 C212 1.372 . S
C212 H190 0.950 . S
C212 C211 1.372 . S
C212 C213 1.379 . S
C213 H191 0.948 . S
C213 C208 1.364 . S
C213 C212 1.379 . S
C214 C183 1.383 . S
C214 C201 1.479 . S
C214 C215 1.398 . S
C215 C180 1.382 . S
C215 H192 0.951 . S
C215 C214 1.398 . S
C216 C217 1.384 . S
C216 H229 0.947 . S
C216 C251 1.382 . S
C217 C216 1.384 . S
C217 C218 1.378 . S
C218 C217 1.378 . S
C218 C219 1.378 . S
C218 H230 0.952 . S
C219 C218 1.378 . S
C219 H231 0.950 . S
C219 C250 1.383 . S
H220 C239 0.947 . S
H221 C240 0.946 . S
H222 C242 0.953 . S
H223 C243 0.945 . S
H224 C245 0.952 . S
H225 C246 0.949 . S
H226 C248 0.950 . S
H227 C249 0.948 . S
H228 C251 0.951 . S
H229 C216 0.947 . S
H230 C218 0.952 . S
H231 C219 0.950 . S
N232 C235 1.382 . S
N232 C237 1.363 . S
N233 C235 1.371 . S
N233 C236 1.372 . S
N234 C236 1.361 . S
N234 C237 1.377 . S
C235 N232 1.382 . S
C235 N233 1.371 . S
C235 C238 1.480 . S
C236 N233 1.372 . S
C236 N234 1.361 . S
C236 C244 1.457 . S
C237 N232 1.363 . S
C237 N234 1.377 . S
C237 C250 1.479 . S
C238 C235 1.480 . S
C238 C239 1.383 . S
C238 C243 1.385 . S
C239 H220 0.947 . S
C239 C238 1.383 . S
C239 C240 1.388 . S
C240 H221 0.946 . S
C240 C239 1.388 . S
C240 C241 1.384 . S
C241 C240 1.384 . S
C241 C242 1.377 . S
C242 H222 0.953 . S
C242 C241 1.377 . S
C242 C243 1.369 . S
C243 H223 0.945 . S
C243 C238 1.385 . S
C243 C242 1.369 . S
C244 C236 1.457 . S
C244 C245 1.372 . S
C244 C249 1.364 . S
C245 H224 0.952 . S
C245 C244 1.372 . S
C245 C246 1.389 . S
C246 H225 0.949 . S
C246 C245 1.389 . S
C246 C247 1.387 . S
C247 C246 1.387 . S
C247 C248 1.372 . S
C248 H226 0.950 . S
C248 C247 1.372 . S
C248 C249 1.379 . S
C249 H227 0.948 . S
C249 C244 1.364 . S
C249 C248 1.379 . S
C250 C219 1.383 . S
C250 C237 1.479 . S
C250 C251 1.398 . S
C251 C216 1.382 . S
C251 H228 0.951 . S
C251 C250 1.398 . S
C252 C253 1.384 . S
C252 H265 0.947 . S
C252 C287 1.382 . S
C253 C252 1.384 . S
C253 C254 1.378 . S
C254 C253 1.378 . S
C254 C255 1.378 . S
C254 H266 0.952 . S
C255 C254 1.378 . S
C255 H267 0.950 . S
C255 C286 1.383 . S
H256 C275 0.947 . S
H257 C276 0.946 . S
H258 C278 0.953 . S
H259 C279 0.945 . S
H260 C281 0.952 . S
H261 C282 0.949 1_556 S
H262 C284 0.950 . S
H263 C285 0.948 . S
H264 C287 0.951 . S
H265 C252 0.947 . S
H266 C254 0.952 . S
H267 C255 0.950 . S
N268 C271 1.382 . S
N268 C273 1.363 . S
N269 C271 1.371 . S
N269 C272 1.372 . S
N270 C272 1.361 . S
N270 C273 1.377 . S
C271 N268 1.382 . S
C271 N269 1.371 . S
C271 C274 1.480 . S
C272 N269 1.372 . S
C272 N270 1.361 . S
C272 C280 1.457 . S
C273 N268 1.363 . S
C273 N270 1.377 . S
C273 C286 1.479 . S
C274 C271 1.480 . S
C274 C275 1.383 . S
C274 C279 1.385 . S
C275 H256 0.947 . S
C275 C274 1.383 . S
C275 C276 1.388 . S
C276 H257 0.946 . S
C276 C275 1.388 . S
C276 C277 1.384 . S
C277 C276 1.384 . S
C277 C278 1.377 . S
C278 H258 0.953 . S
C278 C277 1.377 . S
C278 C279 1.369 . S
C279 H259 0.945 . S
C279 C274 1.385 . S
C279 C278 1.369 . S
C280 C272 1.457 . S
C280 C281 1.372 . S
C280 C285 1.364 . S
C281 H260 0.952 . S
C281 C280 1.372 . S
C281 C282 1.389 . S
C282 H261 0.949 1_554 S
C282 C281 1.389 . S
C282 C283 1.387 . S
C283 C282 1.387 . S
C283 C284 1.372 . S
C284 H262 0.950 . S
C284 C283 1.372 . S
C284 C285 1.379 . S
C285 H263 0.948 . S
C285 C280 1.364 . S
C285 C284 1.379 . S
C286 C255 1.383 . S
C286 C273 1.479 . S
C286 C287 1.398 . S
C287 C252 1.382 . S
C287 H264 0.951 . S
C287 C286 1.398 . S
Nd288 C290 2.836 1_445 S
Nd288 O308 2.500 1_445 S
Nd288 O309 2.492 1_545 S
Nd288 O310 2.487 . S
Nd288 O311 2.682 . S
Nd288 O312 2.410 1_545 S
Nd288 O317 2.414 1_455 S
Nd288 O319 2.424 . S
Nd289 C299 2.836 1_556 S
Nd289 O311 2.414 . S
Nd289 O313 2.424 1_545 S
Nd289 O314 2.500 . S
Nd289 O315 2.492 1_556 S
Nd289 O316 2.487 1_455 S
Nd289 O317 2.682 1_455 S
Nd289 O318 2.410 . S
C290 Nd288 2.836 1_665 S
C290 C291 1.498 . S
C290 O308 1.258 . S
C290 O309 1.239 1_655 S
C291 C290 1.498 . S
C291 C292 1.366 . S
C291 C296 1.408 . S
C292 C291 1.366 . S
C292 C293 1.392 . S
C292 H320 0.930 . S
C293 C292 1.392 . S
C293 C294 1.398 . S
C293 H321 0.929 . S
C294 C293 1.398 . S
C294 C295 1.352 . S
C295 C294 1.352 . S
C295 C296 1.385 . S
C295 H322 0.921 1_655 S
C296 C291 1.408 . S
C296 C295 1.385 . S
C296 H323 0.928 1_655 S
C297 O310 1.241 . S
C297 O311 1.273 . S
C298 O312 1.251 . S
C298 O313 1.268 . S
C299 Nd289 2.836 1_554 S
C299 C300 1.498 . S
C299 O314 1.258 1_554 S
C299 O315 1.239 . S
C300 C299 1.498 . S
C300 C301 1.366 . S
C300 C305 1.407 . S
C301 C300 1.366 . S
C301 C302 1.392 . S
C301 H324 0.930 . S
C302 C301 1.392 . S
C302 C303 1.398 . S
C302 H325 0.929 . S
C303 C302 1.398 . S
C303 C304 1.352 . S
C304 C303 1.352 . S
C304 C305 1.384 . S
C304 H326 0.930 . S
C305 C300 1.407 . S
C305 C304 1.384 . S
C305 H327 0.929 . S
C306 O316 1.241 . S
C306 O317 1.273 . S
C307 O318 1.251 . S
C307 O319 1.268 . S
O308 Nd288 2.500 1_665 S
O308 C290 1.258 . S
O309 Nd288 2.492 1_565 S
O309 C290 1.239 1_455 S
O310 Nd288 2.487 . S
O310 C297 1.241 . S
O311 Nd288 2.682 . S
O311 Nd289 2.414 . S
O311 C297 1.273 . S
O312 Nd288 2.410 1_565 S
O312 C298 1.251 . S
O313 Nd289 2.424 1_565 S
O313 C298 1.268 . S
O314 Nd289 2.500 . S
O314 C299 1.258 1_556 S
O315 Nd289 2.492 1_554 S
O315 C299 1.239 . S
O316 Nd289 2.487 1_655 S
O316 C306 1.241 . S
O317 Nd288 2.414 1_655 S
O317 Nd289 2.682 1_655 S
O317 C306 1.273 . S
O318 Nd289 2.410 . S
O318 C307 1.251 . S
O319 Nd288 2.424 . S
O319 C307 1.268 . S
H320 C292 0.930 . S
H321 C293 0.929 . S
H322 C295 0.921 1_455 S
H323 C296 0.928 1_455 S
H324 C301 0.930 . S
H325 C302 0.929 . S
H326 C304 0.930 . S
H327 C305 0.929 . S
Nd328 C330 2.836 1_545 S
Nd328 O348 2.500 1_545 S
Nd328 O349 2.492 . S
Nd328 O350 2.487 . S
Nd328 O351 2.682 . S
Nd328 O352 2.410 . S
Nd328 O357 2.414 1_545 S
Nd328 O359 2.424 . S
Nd329 C339 2.836 1_556 S
Nd329 O351 2.414 . S
Nd329 O353 2.424 . S
Nd329 O354 2.500 . S
Nd329 O355 2.492 1_556 S
Nd329 O356 2.487 1_545 S
Nd329 O357 2.682 1_545 S
Nd329 O358 2.410 . S
C330 Nd328 2.836 1_565 S
C330 C331 1.498 . S
C330 O348 1.258 . S
C330 O349 1.239 1_565 S
C331 C330 1.498 . S
C331 C332 1.366 . S
C331 C336 1.410 . S
C332 C331 1.366 . S
C332 C333 1.392 . S
C332 H360 0.930 . S
C333 C332 1.392 . S
C333 C334 1.398 . S
C333 H361 0.929 . S
C334 C333 1.398 . S
C334 C335 1.352 . S
C335 C334 1.352 . S
C335 C336 1.394 . S
C335 H362 0.930 . S
C336 C331 1.410 . S
C336 C335 1.394 . S
C336 H363 0.917 1_565 S
C337 O350 1.241 . S
C337 O351 1.273 . S
C338 O352 1.251 . S
C338 O353 1.268 . S
C339 Nd329 2.836 1_554 S
C339 C340 1.498 . S
C339 O354 1.258 1_554 S
C339 O355 1.239 . S
C340 C339 1.498 . S
C340 C341 1.366 . S
C340 C345 1.407 . S
C341 C340 1.366 . S
C341 C342 1.392 . S
C341 H364 0.930 1_554 S
C342 C341 1.392 . S
C342 C343 1.398 . S
C342 H365 0.929 . S
C343 C342 1.398 . S
C343 C344 1.352 . S
C344 C343 1.352 . S
C344 C345 1.384 . S
C344 H366 0.930 . S
C345 C340 1.407 . S
C345 C344 1.384 . S
C345 H367 0.929 . S
C346 O356 1.241 . S
C346 O357 1.273 . S
C347 O358 1.251 . S
C347 O359 1.268 . S
O348 Nd328 2.500 1_565 S
O348 C330 1.258 . S
O349 Nd328 2.492 . S
O349 C330 1.239 1_545 S
O350 Nd328 2.487 . S
O350 C337 1.241 . S
O351 Nd328 2.682 . S
O351 Nd329 2.414 . S
O351 C337 1.273 . S
O352 Nd328 2.410 . S
O352 C338 1.251 . S
O353 Nd329 2.424 . S
O353 C338 1.268 . S
O354 Nd329 2.500 . S
O354 C339 1.258 1_556 S
O355 Nd329 2.492 1_554 S
O355 C339 1.239 . S
O356 Nd329 2.487 1_565 S
O356 C346 1.241 . S
O357 Nd328 2.414 1_565 S
O357 Nd329 2.682 1_565 S
O357 C346 1.273 . S
O358 Nd329 2.410 . S
O358 C347 1.251 . S
O359 Nd328 2.424 . S
O359 C347 1.268 . S
H360 C332 0.930 . S
H361 C333 0.929 . S
H362 C335 0.930 . S
H363 C336 0.917 1_545 S
H364 C341 0.930 1_556 S
H365 C342 0.929 . S
H366 C344 0.930 . S
H367 C345 0.929 . S
Nd368 C370 2.836 . S
Nd368 O388 2.500 . S
Nd368 O389 2.492 . S
Nd368 O390 2.487 . S
Nd368 O391 2.682 . S
Nd368 O392 2.410 . S
Nd368 O397 2.414 . S
Nd368 O399 2.424 . S
Nd369 C379 2.836 . S
Nd369 O391 2.414 . S
Nd369 O393 2.424 . S
Nd369 O394 2.500 . S
Nd369 O395 2.492 . S
Nd369 O396 2.487 . S
Nd369 O397 2.682 . S
Nd369 O398 2.410 . S
C370 Nd368 2.836 . S
C370 C371 1.500 . S
C370 O388 1.258 . S
C370 O389 1.239 . S
C371 C370 1.500 . S
C371 C372 1.367 . S
C371 C376 1.404 1_556 S
C372 C371 1.367 . S
C372 C373 1.392 . S
C372 H400 0.930 . S
C373 C372 1.392 . S
C373 C374 1.398 1_556 S
C373 H401 0.929 . S
C374 C373 1.398 1_554 S
C374 C375 1.352 . S
C375 C374 1.352 . S
C375 C376 1.384 . S
C375 H402 0.930 . S
C376 C371 1.404 1_554 S
C376 C375 1.384 . S
C376 H403 0.929 . S
C377 O390 1.241 . S
C377 O391 1.273 . S
C378 O392 1.251 . S
C378 O393 1.268 . S
C379 Nd369 2.836 . S
C379 C380 1.498 . S
C379 O394 1.258 . S
C379 O395 1.239 . S
C380 C379 1.498 . S
C380 C381 1.366 . S
C380 C385 1.407 . S
C381 C380 1.366 . S
C381 C382 1.392 . S
C381 H404 0.930 . S
C382 C381 1.392 . S
C382 C383 1.398 . S
C382 H405 0.929 . S
C383 C382 1.398 . S
C383 C384 1.352 . S
C384 C383 1.352 . S
C384 C385 1.384 . S
C384 H406 0.930 . S
C385 C380 1.407 . S
C385 C384 1.384 . S
C385 H407 0.929 . S
C386 O396 1.241 . S
C386 O397 1.273 . S
C387 O398 1.251 . S
C387 O399 1.268 . S
O388 Nd368 2.500 . S
O388 C370 1.258 . S
O389 Nd368 2.492 . S
O389 C370 1.239 . S
O390 Nd368 2.487 . S
O390 C377 1.241 . S
O391 Nd368 2.682 . S
O391 Nd369 2.414 . S
O391 C377 1.273 . S
O392 Nd368 2.410 . S
O392 C378 1.251 . S
O393 Nd369 2.424 . S
O393 C378 1.268 . S
O394 Nd369 2.500 . S
O394 C379 1.258 . S
O395 Nd369 2.492 . S
O395 C379 1.239 . S
O396 Nd369 2.487 . S
O396 C386 1.241 . S
O397 Nd368 2.414 . S
O397 Nd369 2.682 . S
O397 C386 1.273 . S
O398 Nd369 2.410 . S
O398 C387 1.251 . S
O399 Nd368 2.424 . S
O399 C387 1.268 . S
H400 C372 0.930 . S
H401 C373 0.929 . S
H402 C375 0.930 . S
H403 C376 0.929 . S
H404 C381 0.930 . S
H405 C382 0.929 . S
H406 C384 0.930 . S
H407 C385 0.929 . S
Nd408 C410 2.836 1_455 S
Nd408 O428 2.500 1_455 S
Nd408 O429 2.492 1_455 S
Nd408 O430 2.487 . S
Nd408 O431 2.682 . S
Nd408 O432 2.410 1_455 S
Nd408 O437 2.414 . S
Nd408 O439 2.424 . S
Nd409 C419 2.836 1_556 S
Nd409 O431 2.414 . S
Nd409 O433 2.424 1_455 S
Nd409 O434 2.500 . S
Nd409 O435 2.492 1_556 S
Nd409 O436 2.487 . S
Nd409 O437 2.682 . S
Nd409 O438 2.410 . S
C410 Nd408 2.836 1_655 S
C410 C411 1.498 . S
C410 O428 1.258 . S
C410 O429 1.239 . S
C411 C410 1.498 . S
C411 C412 1.366 . S
C411 C416 1.407 . S
C412 C411 1.366 . S
C412 C413 1.392 . S
C412 H440 0.930 . S
C413 C412 1.392 . S
C413 C414 1.398 . S
C413 H441 0.929 . S
C414 C413 1.398 . S
C414 C415 1.352 . S
C415 C414 1.352 . S
C415 C416 1.384 . S
C415 H442 0.930 . S
C416 C411 1.407 . S
C416 C415 1.384 . S
C416 H443 0.929 . S
C417 O430 1.241 . S
C417 O431 1.273 . S
C418 O432 1.251 . S
C418 O433 1.268 . S
C419 Nd409 2.836 1_554 S
C419 C420 1.498 . S
C419 O434 1.258 1_554 S
C419 O435 1.239 . S
C420 C419 1.498 . S
C420 C421 1.366 . S
C420 C425 1.407 . S
C421 C420 1.366 . S
C421 C422 1.392 . S
C421 H444 0.930 . S
C422 C421 1.392 . S
C422 C423 1.398 . S
C422 H445 0.929 . S
C423 C422 1.398 . S
C423 C424 1.352 . S
C424 C423 1.352 . S
C424 C425 1.384 . S
C424 H446 0.930 . S
C425 C420 1.407 . S
C425 C424 1.384 . S
C425 H447 0.929 . S
C426 O436 1.241 . S
C426 O437 1.273 . S
C427 O438 1.251 . S
C427 O439 1.268 . S
O428 Nd408 2.500 1_655 S
O428 C410 1.258 . S
O429 Nd408 2.492 1_655 S
O429 C410 1.239 . S
O430 Nd408 2.487 . S
O430 C417 1.241 . S
O431 Nd408 2.682 . S
O431 Nd409 2.414 . S
O431 C417 1.273 . S
O432 Nd408 2.410 1_655 S
O432 C418 1.251 . S
O433 Nd409 2.424 1_655 S
O433 C418 1.268 . S
O434 Nd409 2.500 . S
O434 C419 1.258 1_556 S
O435 Nd409 2.492 1_554 S
O435 C419 1.239 . S
O436 Nd409 2.487 . S
O436 C426 1.241 . S
O437 Nd408 2.414 . S
O437 Nd409 2.682 . S
O437 C426 1.273 . S
O438 Nd409 2.410 . S
O438 C427 1.251 . S
O439 Nd408 2.424 . S
O439 C427 1.268 . S
H440 C412 0.930 . S
H441 C413 0.929 . S
H442 C415 0.930 . S
H443 C416 0.929 . S
H444 C421 0.930 . S
H445 C422 0.929 . S
H446 C424 0.930 . S
H447 C425 0.929 . S
C448 C449 1.369 . S
C448 C450 1.419 . S
C448 H452 0.930 . S
C449 C448 1.369 . S
C449 C458 1.429 . S
C450 C448 1.419 . S
C450 C451 1.363 . S
C450 H453 0.929 . S
C451 C450 1.363 . S
C451 C457 1.428 . S
H452 C448 0.930 . S
H453 C450 0.929 . S
S454 N455 1.613 . S
S454 N456 1.610 . S
N455 S454 1.613 . S
N455 C458 1.350 . S
N456 S454 1.610 . S
N456 C457 1.351 . S
C457 C451 1.428 . S
C457 N456 1.351 . S
C457 C458 1.434 . S
C458 C449 1.429 . S
C458 N455 1.350 . S
C458 C457 1.434 . S
C459 C460 1.369 . S
C459 C461 1.419 . S
C459 H463 0.930 . S
C460 C459 1.369 . S
C460 C469 1.429 . S
C461 C459 1.419 . S
C461 C462 1.363 . S
C461 H464 0.929 . S
C462 C461 1.363 . S
C462 C468 1.428 . S
H463 C459 0.930 . S
H464 C461 0.929 . S
S465 N466 1.613 . S
S465 N467 1.610 . S
N466 S465 1.613 . S
N466 C469 1.350 . S
N467 S465 1.610 . S
N467 C468 1.351 . S
C468 C462 1.428 . S
C468 N467 1.351 . S
C468 C469 1.434 . S
C469 C460 1.429 . S
C469 N466 1.350 . S
C469 C468 1.434 . S
C470 C471 1.369 . S
C470 C472 1.419 . S
C470 H474 0.930 . S
C471 C470 1.369 . S
C471 C480 1.429 . S
C472 C470 1.419 . S
C472 C473 1.363 . S
C472 H475 0.929 . S
C473 C472 1.363 . S
C473 C479 1.428 . S
H474 C470 0.930 . S
H475 C472 0.929 . S
S476 N477 1.613 . S
S476 N478 1.610 . S
N477 S476 1.613 . S
N477 C480 1.350 . S
N478 S476 1.610 . S
N478 C479 1.351 . S
C479 C473 1.428 . S
C479 N478 1.351 . S
C479 C480 1.434 . S
C480 C471 1.429 . S
C480 N477 1.350 . S
C480 C479 1.434 . S
C481 C482 1.369 . S
C481 C483 1.419 . S
C481 H485 0.930 . S
C482 C481 1.369 . S
C482 C491 1.429 . S
C483 C481 1.419 . S
C483 C484 1.363 . S
C483 H486 0.929 . S
C484 C483 1.363 . S
C484 C490 1.428 . S
H485 C481 0.930 . S
H486 C483 0.929 . S
S487 N488 1.613 . S
S487 N489 1.610 . S
N488 S487 1.613 . S
N488 C491 1.350 . S
N489 S487 1.610 . S
N489 C490 1.351 . S
C490 C484 1.428 . S
C490 N489 1.351 . S
C490 C491 1.434 . S
C491 C482 1.429 . S
C491 N488 1.350 . S
C491 C490 1.434 . S
C492 C493 1.369 1_545 S
C492 C494 1.419 . S
C492 H496 0.930 . S
C493 C492 1.369 1_565 S
C493 C502 1.429 . S
C494 C492 1.419 . S
C494 C495 1.363 . S
C494 H497 0.929 . S
C495 C494 1.363 . S
C495 C501 1.428 1_545 S
H496 C492 0.930 . S
H497 C494 0.929 . S
S498 N499 1.613 . S
S498 N500 1.610 . S
N499 S498 1.613 . S
N499 C502 1.350 . S
N500 S498 1.610 . S
N500 C501 1.351 . S
C501 C495 1.428 1_565 S
C501 N500 1.351 . S
C501 C502 1.434 . S
C502 C493 1.429 . S
C502 N499 1.350 . S
C502 C501 1.434 . S
C503 C504 1.369 . S
C503 C505 1.419 . S
C503 H507 0.930 1_565 S
C504 C503 1.369 . S
C504 C513 1.429 . S
C505 C503 1.419 . S
C505 C506 1.363 . S
C505 H508 0.929 1_565 S
C506 C505 1.363 . S
C506 C512 1.428 . S
H507 C503 0.930 1_545 S
H508 C505 0.929 1_545 S
S509 N510 1.613 . S
S509 N511 1.610 . S
N510 S509 1.613 . S
N510 C513 1.350 . S
N511 S509 1.610 . S
N511 C512 1.351 . S
C512 C506 1.428 . S
C512 N511 1.351 . S
C512 C513 1.434 . S
C513 C504 1.429 . S
C513 N510 1.350 . S
C513 C512 1.434 . S
C514 C515 1.369 . S
C514 C516 1.419 . S
C514 H518 0.930 . S
C515 C514 1.369 . S
C515 C524 1.429 . S
C516 C514 1.419 . S
C516 C517 1.363 . S
C516 H519 0.929 . S
C517 C516 1.363 . S
C517 C523 1.428 . S
H518 C514 0.930 . S
H519 C516 0.929 . S
S520 N521 1.613 . S
S520 N522 1.610 . S
N521 S520 1.613 . S
N521 C524 1.350 . S
N522 S520 1.610 . S
N522 C523 1.351 . S
C523 C517 1.428 . S
C523 N522 1.351 . S
C523 C524 1.434 . S
C524 C515 1.429 . S
C524 N521 1.350 . S
C524 C523 1.434 . S
C525 C526 1.369 . S
C525 C527 1.419 . S
C525 H529 0.930 . S
C526 C525 1.369 . S
C526 C535 1.429 1_556 S
C527 C525 1.419 . S
C527 C528 1.363 . S
C527 H530 0.929 . S
C528 C527 1.363 . S
C528 C534 1.428 . S
H529 C525 0.930 . S
H530 C527 0.929 . S
S531 N532 1.613 . S
S531 N533 1.610 . S
N532 S531 1.613 . S
N532 C535 1.350 . S
N533 S531 1.610 . S
N533 C534 1.351 1_554 S
C534 C528 1.428 . S
C534 N533 1.351 1_556 S
C534 C535 1.434 1_556 S
C535 C526 1.429 1_554 S
C535 N532 1.350 . S
C535 C534 1.434 1_554 S
C536 C537 1.369 . S
C536 C538 1.419 . S
C536 H540 0.930 . S
C537 C536 1.369 . S
C537 C546 1.429 . S
C538 C536 1.419 . S
C538 C539 1.363 . S
C538 H541 0.929 . S
C539 C538 1.363 . S
C539 C545 1.428 . S
H540 C536 0.930 . S
H541 C538 0.929 . S
S542 N543 1.613 . S
S542 N544 1.610 . S
N543 S542 1.613 . S
N543 C546 1.350 . S
N544 S542 1.610 . S
N544 C545 1.351 . S
C545 C539 1.428 . S
C545 N544 1.351 . S
C545 C546 1.434 . S
C546 C537 1.429 . S
C546 N543 1.350 . S
C546 C545 1.434 . S
C547 C548 1.369 . S
C547 C549 1.419 . S
C547 H551 0.930 . S
C548 C547 1.369 . S
C548 C557 1.429 . S
C549 C547 1.419 . S
C549 C550 1.363 . S
C549 H552 0.929 . S
C550 C549 1.363 . S
C550 C556 1.428 . S
H551 C547 0.930 . S
H552 C549 0.929 . S
S553 N554 1.613 . S
S553 N555 1.610 1_554 S
N554 S553 1.613 . S
N554 C557 1.350 1_554 S
N555 S553 1.610 1_556 S
N555 C556 1.351 . S
C556 C550 1.428 . S
C556 N555 1.351 . S
C556 C557 1.434 . S
C557 C548 1.429 . S
C557 N554 1.350 1_556 S
C557 C556 1.434 . S
C558 C559 1.369 . S
C558 C560 1.419 . S
C558 H562 0.930 . S
C559 C558 1.369 . S
C559 C568 1.429 . S
C560 C558 1.419 . S
C560 C561 1.363 . S
C560 H563 0.929 . S
C561 C560 1.363 . S
C561 C567 1.428 . S
H562 C558 0.930 . S
H563 C560 0.929 . S
S564 N565 1.613 . S
S564 N566 1.610 . S
N565 S564 1.613 . S
N565 C568 1.350 . S
N566 S564 1.610 . S
N566 C567 1.351 . S
C567 C561 1.428 . S
C567 N566 1.351 . S
C567 C568 1.434 . S
C568 C559 1.429 . S
C568 N565 1.350 . S
C568 C567 1.434 . S
C569 C570 1.369 . S
C569 C571 1.419 . S
C569 H573 0.930 . S
C570 C569 1.369 . S
C570 C579 1.429 . S
C571 C569 1.419 . S
C571 C572 1.363 . S
C571 H574 0.929 . S
C572 C571 1.363 . S
C572 C578 1.428 . S
H573 C569 0.930 . S
H574 C571 0.929 . S
S575 N576 1.613 1_554 S
S575 N577 1.610 1_554 S
N576 S575 1.613 1_556 S
N576 C579 1.350 . S
N577 S575 1.610 1_556 S
N577 C578 1.351 . S
C578 C572 1.428 . S
C578 N577 1.351 . S
C578 C579 1.434 . S
C579 C570 1.429 . S
C579 N576 1.350 . S
C579 C578 1.434 . S
C580 C581 1.369 . S
C580 C582 1.419 . S
C580 H584 0.930 . S
C581 C580 1.369 . S
C581 C590 1.429 . S
C582 C580 1.419 . S
C582 C583 1.363 . S
C582 H585 0.929 . S
C583 C582 1.363 . S
C583 C589 1.428 . S
H584 C580 0.930 . S
H585 C582 0.929 . S
S586 N587 1.613 . S
S586 N588 1.610 . S
N587 S586 1.613 . S
N587 C590 1.350 . S
N588 S586 1.610 . S
N588 C589 1.351 . S
C589 C583 1.428 . S
C589 N588 1.351 . S
C589 C590 1.434 . S
C590 C581 1.429 . S
C590 N587 1.350 . S
C590 C589 1.434 . S
C591 C592 1.369 . S
C591 C593 1.419 1_565 S
C591 H595 0.930 . S
C592 C591 1.369 . S
C592 C601 1.429 1_565 S
C593 C591 1.419 1_545 S
C593 C594 1.363 . S
C593 H596 0.929 . S
C594 C593 1.363 . S
C594 C600 1.428 . S
H595 C591 0.930 . S
H596 C593 0.929 . S
S597 N598 1.613 . S
S597 N599 1.610 . S
N598 S597 1.613 . S
N598 C601 1.350 . S
N599 S597 1.610 . S
N599 C600 1.351 . S
C600 C594 1.428 . S
C600 N599 1.351 . S
C600 C601 1.434 . S
C601 C592 1.429 1_545 S
C601 N598 1.350 . S
C601 C600 1.434 . S
C602 C603 1.369 . S
C602 C604 1.419 . S
C602 H606 0.930 . S
C603 C602 1.369 . S
C603 C612 1.429 . S
C604 C602 1.419 . S
C604 C605 1.363 . S
C604 H607 0.929 . S
C605 C604 1.363 . S
C605 C611 1.428 . S
H606 C602 0.930 . S
H607 C604 0.929 . S
S608 N609 1.613 . S
S608 N610 1.612 . S
N609 S608 1.613 . S
N609 C612 1.350 . S
N610 S608 1.612 . S
N610 C611 1.359 . S
C611 C605 1.428 . S
C611 N610 1.359 . S
C611 C612 1.434 . S
C612 C603 1.429 . S
C612 N609 1.350 . S
C612 C611 1.434 . S
C613 C614 1.369 . S
C613 C615 1.419 . S
C613 H617 0.930 . S
C614 C613 1.369 . S
C614 C623 1.429 . S
C615 C613 1.419 . S
C615 C616 1.363 . S
C615 H618 0.929 . S
C616 C615 1.363 . S
C616 C622 1.428 . S
H617 C613 0.930 . S
H618 C615 0.929 . S
S619 N620 1.613 . S
S619 N621 1.610 . S
N620 S619 1.613 . S
N620 C623 1.350 . S
N621 S619 1.610 . S
N621 C622 1.351 . S
C622 C616 1.428 . S
C622 N621 1.351 . S
C622 C623 1.434 . S
C623 C614 1.429 . S
C623 N620 1.350 . S
C623 C622 1.434 . S
C624 C625 1.369 . S
C624 C626 1.419 . S
C624 H628 0.930 . S
C625 C624 1.369 . S
C625 C634 1.429 . S
C626 C624 1.419 . S
C626 C627 1.363 . S
C626 H629 0.929 . S
C627 C626 1.363 . S
C627 C633 1.428 . S
H628 C624 0.930 . S
H629 C626 0.929 . S
S630 N631 1.613 . S
S630 N632 1.610 . S
N631 S630 1.613 . S
N631 C634 1.350 . S
N632 S630 1.610 . S
N632 C633 1.351 . S
C633 C627 1.428 . S
C633 N632 1.351 . S
C633 C634 1.434 . S
C634 C625 1.429 . S
C634 N631 1.350 . S
C634 C633 1.434 . S
C635 C636 1.369 . S
C635 C637 1.419 . S
C635 H639 0.930 . S
C636 C635 1.369 . S
C636 C645 1.429 . S
C637 C635 1.419 . S
C637 C638 1.363 . S
C637 H640 0.929 . S
C638 C637 1.363 . S
C638 C644 1.428 . S
H639 C635 0.930 . S
H640 C637 0.929 . S
S641 N642 1.613 . S
S641 N643 1.610 . S
N642 S641 1.613 . S
N642 C645 1.350 . S
N643 S641 1.610 . S
N643 C644 1.351 . S
C644 C638 1.428 . S
C644 N643 1.351 . S
C644 C645 1.434 . S
C645 C636 1.429 . S
C645 N642 1.350 . S
C645 C644 1.434 . S
C646 C647 1.369 . S
C646 C648 1.419 . S
C646 H650 0.930 1_556 S
C647 C646 1.369 . S
C647 C656 1.429 . S
C648 C646 1.419 . S
C648 C649 1.363 . S
C648 H651 0.929 1_556 S
C649 C648 1.363 . S
C649 C655 1.428 . S
H650 C646 0.930 1_554 S
H651 C648 0.929 1_554 S
S652 N653 1.613 . S
S652 N654 1.610 . S
N653 S652 1.613 . S
N653 C656 1.350 . S
N654 S652 1.610 . S
N654 C655 1.351 . S
C655 C649 1.428 . S
C655 N654 1.351 . S
C655 C656 1.434 . S
C656 C647 1.429 . S
C656 N653 1.350 . S
C656 C655 1.434 . S
C657 C658 1.369 . S
C657 C659 1.419 . S
C657 H661 0.930 . S
C658 C657 1.369 . S
C658 C667 1.429 . S
C659 C657 1.419 . S
C659 C660 1.363 . S
C659 H662 0.929 . S
C660 C659 1.363 . S
C660 C666 1.428 . S
H661 C657 0.930 . S
H662 C659 0.929 . S
S663 N664 1.613 . S
S663 N665 1.610 . S
N664 S663 1.613 . S
N664 C667 1.350 . S
N665 S663 1.610 . S
N665 C666 1.351 . S
C666 C660 1.428 . S
C666 N665 1.351 . S
C666 C667 1.434 . S
C667 C658 1.429 . S
C667 N664 1.350 . S
C667 C666 1.434 . S
C668 C669 1.369 . S
C668 C670 1.419 . S
C668 H672 0.930 . S
C669 C668 1.369 . S
C669 C678 1.429 . S
C670 C668 1.419 . S
C670 C671 1.363 . S
C670 H673 0.929 . S
C671 C670 1.363 . S
C671 C677 1.428 . S
H672 C668 0.930 . S
H673 C670 0.929 . S
S674 N675 1.613 . S
S674 N676 1.610 . S
N675 S674 1.613 . S
N675 C678 1.350 . S
N676 S674 1.610 . S
N676 C677 1.351 . S
C677 C671 1.428 . S
C677 N676 1.351 . S
C677 C678 1.434 . S
C678 C669 1.429 . S
C678 N675 1.350 . S
C678 C677 1.434 . S
C679 C680 1.369 . S
C679 C681 1.419 . S
C679 H683 0.930 . S
C680 C679 1.369 . S
C680 C689 1.429 . S
C681 C679 1.419 . S
C681 C682 1.363 . S
C681 H684 0.929 . S
C682 C681 1.363 . S
C682 C688 1.428 . S
H683 C679 0.930 . S
H684 C681 0.929 . S
S685 N686 1.613 . S
S685 N687 1.610 . S
N686 S685 1.613 . S
N686 C689 1.350 1_545 S
N687 S685 1.610 . S
N687 C688 1.351 1_545 S
C688 C682 1.428 . S
C688 N687 1.351 1_565 S
C688 C689 1.434 . S
C689 C680 1.429 . S
C689 N686 1.350 1_565 S
C689 C688 1.434 . S
C690 C691 1.369 . S
C690 C692 1.419 . S
C690 H694 0.930 . S
C691 C690 1.369 . S
C691 C700 1.429 . S
C692 C690 1.419 . S
C692 C693 1.363 . S
C692 H695 0.929 . S
C693 C692 1.363 . S
C693 C699 1.428 . S
H694 C690 0.930 . S
H695 C692 0.929 . S
S696 N697 1.613 . S
S696 N698 1.610 . S
N697 S696 1.613 . S
N697 C700 1.350 . S
N698 S696 1.610 . S
N698 C699 1.351 . S
C699 C693 1.428 . S
C699 N698 1.351 . S
C699 C700 1.434 . S
C700 C691 1.429 . S
C700 N697 1.350 . S
C700 C699 1.434 . S
C701 C702 1.369 . S
C701 C703 1.419 . S
C701 H705 0.930 . S
C702 C701 1.369 . S
C702 C711 1.429 . S
C703 C701 1.419 . S
C703 C704 1.363 . S
C703 H706 0.929 . S
C704 C703 1.363 . S
C704 C710 1.428 . S
H705 C701 0.930 . S
H706 C703 0.929 . S
S707 N708 1.613 . S
S707 N709 1.610 . S
N708 S707 1.613 . S
N708 C711 1.350 . S
N709 S707 1.610 . S
N709 C710 1.351 . S
C710 C704 1.428 . S
C710 N709 1.351 . S
C710 C711 1.434 . S
C711 C702 1.429 . S
C711 N708 1.350 . S
C711 C710 1.434 . S
C449 C241 1.387 . S
C451 C297 1.346 . S
C462 C337 2.220 . S
C460 C277 2.264 . S
C473 C386 1.548 . S
C471 C169 1.469 . S
C484 C417 2.064 . S
C482 C205 2.116 . S
C495 C306 1.341 . S
C493 C97 1.342 . S
C504 C133 2.354 . S
C506 C346 2.225 1_554 S
C515 C25 1.551 . S
C517 C377 1.543 . S
C526 C61 2.010 1_556 S
C528 C426 2.064 1_655 S
C539 C307 1.889 . S
C537 C211 1.555 . S
C550 C347 1.789 . S
C548 C247 1.528 . S
C561 C383 0.835 . S
C559 C253 0.827 . S
C570 C175 1.523 . S
C572 C427 1.880 . S
C581 C67 1.432 . S
C583 C298 1.889 1_655 S
C594 C338 1.793 . S
C592 C103 1.437 . S
C605 C374 0.831 . S
C603 C109 0.841 . S
C614 C31 1.577 . S
C616 C418 1.884 . S
C625 C181 2.053 . S
C627 C303 2.170 . S
C636 C217 1.751 . S
C638 C343 1.774 . S
C649 C387 3.134 . S
C647 C283 2.652 1_556 S
C660 C423 1.786 . S
C658 C145 1.697 . S
C669 C37 2.019 . S
C671 C294 2.169 . S
C682 C334 1.772 . S
C680 C73 1.763 . S
C693 C378 3.134 . S
C691 C139 2.707 . S
C702 C1 1.750 . S
C704 C414 1.787 . S
