# Generated by pormake.
# Topology zzz, (3,6)-cn, num edge types: 1
# Building blocks:
#     Node 0, Type 0, BuildingBlock: CUQRIR_clean_linker_1, # of connection points: 3
#     Node 1, Type 0, BuildingBlock: CUQRIR_clean_linker_1, # of connection points: 3
#     Node 2, Type 0, BuildingBlock: CUQRIR_clean_linker_1, # of connection points: 3
#     Node 3, Type 0, BuildingBlock: CUQRIR_clean_linker_1, # of connection points: 3
#     Node 4, Type 0, BuildingBlock: CUQRIR_clean_linker_1, # of connection points: 3
#     Node 5, Type 0, BuildingBlock: CUQRIR_clean_linker_1, # of connection points: 3
#     Node 6, Type 0, BuildingBlock: CUQRIR_clean_linker_1, # of connection points: 3
#     Node 7, Type 0, BuildingBlock: CUQRIR_clean_linker_1, # of connection points: 3
#     Node 8, Type 1, BuildingBlock: KUMJIN_clean_sbu_1, # of connection points: 6
#     Node 9, Type 1, BuildingBlock: KUMJIN_clean_sbu_1, # of connection points: 6
#     Node 10, Type 1, BuildingBlock: KUMJIN_clean_sbu_1, # of connection points: 6
#     Node 11, Type 1, BuildingBlock: KUMJIN_clean_sbu_1, # of connection points: 6
#     Edge 12, Type (0, 1), BuildingBlock: OJICUG_clean_linker_0, # of connection points: 2
#     Edge 13, Type (0, 1), BuildingBlock: OJICUG_clean_linker_0, # of connection points: 2
#     Edge 14, Type (0, 1), BuildingBlock: OJICUG_clean_linker_0, # of connection points: 2
#     Edge 15, Type (0, 1), BuildingBlock: OJICUG_clean_linker_0, # of connection points: 2
#     Edge 16, Type (0, 1), BuildingBlock: OJICUG_clean_linker_0, # of connection points: 2
#     Edge 17, Type (0, 1), BuildingBlock: OJICUG_clean_linker_0, # of connection points: 2
#     Edge 18, Type (0, 1), BuildingBlock: OJICUG_clean_linker_0, # of connection points: 2
#     Edge 19, Type (0, 1), BuildingBlock: OJICUG_clean_linker_0, # of connection points: 2
#     Edge 20, Type (0, 1), BuildingBlock: OJICUG_clean_linker_0, # of connection points: 2
#     Edge 21, Type (0, 1), BuildingBlock: OJICUG_clean_linker_0, # of connection points: 2
#     Edge 22, Type (0, 1), BuildingBlock: OJICUG_clean_linker_0, # of connection points: 2
#     Edge 23, Type (0, 1), BuildingBlock: OJICUG_clean_linker_0, # of connection points: 2
#     Edge 24, Type (0, 1), BuildingBlock: OJICUG_clean_linker_0, # of connection points: 2
#     Edge 25, Type (0, 1), BuildingBlock: OJICUG_clean_linker_0, # of connection points: 2
#     Edge 26, Type (0, 1), BuildingBlock: OJICUG_clean_linker_0, # of connection points: 2
#     Edge 27, Type (0, 1), BuildingBlock: OJICUG_clean_linker_0, # of connection points: 2
#     Edge 28, Type (0, 1), BuildingBlock: OJICUG_clean_linker_0, # of connection points: 2
#     Edge 29, Type (0, 1), BuildingBlock: OJICUG_clean_linker_0, # of connection points: 2
#     Edge 30, Type (0, 1), BuildingBlock: OJICUG_clean_linker_0, # of connection points: 2
#     Edge 31, Type (0, 1), BuildingBlock: OJICUG_clean_linker_0, # of connection points: 2
#     Edge 32, Type (0, 1), BuildingBlock: OJICUG_clean_linker_0, # of connection points: 2
#     Edge 33, Type (0, 1), BuildingBlock: OJICUG_clean_linker_0, # of connection points: 2
#     Edge 34, Type (0, 1), BuildingBlock: OJICUG_clean_linker_0, # of connection points: 2
#     Edge 35, Type (0, 1), BuildingBlock: OJICUG_clean_linker_0, # of connection points: 2
# Relax obj value: 0.316
# Max RMSD: 0.139
# Mean RMSD: 0.095
data_MOF--net-zzz--node1-KUMJIN_clean_sbu_1--node2-CUQRIR_clean_linker_1--edge1-OJICUG_clean_linker_0
_symmetry_space_group_name_H-M    P1
_symmetry_Int_Tables_number       1
_symmetry_cell_setting            triclinic
loop_
_symmetry_equiv_pos_as_xyz
'x, y, z'
_cell_length_a     33.167304
_cell_length_b     33.326572
_cell_length_c     10.317306
_cell_angle_alpha  89.341653
_cell_angle_beta   90.682471
_cell_angle_gamma 90.188654
loop_
_atom_site_label
_atom_site_type_symbol
_atom_site_fract_x
_atom_site_fract_y
_atom_site_fract_z
_atom_type_partial_charge
C0 C 0.74852 0.54823 0.42709 0.0
N1 N 0.79026 0.54971 0.42129 0.0
N2 N 0.72986 0.56224 0.31334 0.0
C3 C 0.72731 0.52594 0.53189 0.0
C4 C 0.7626 0.57315 0.24369 0.0
N5 N 0.79752 0.55938 0.29838 0.0
C6 C 0.76033 0.58802 0.10475 0.0
H7 H 0.69415 0.52817 0.52055 0.0
H8 H 0.73767 0.53693 0.62757 0.0
H9 H 0.73661 0.49416 0.52711 0.0
H10 H 0.73911 0.61319 0.0924 0.0
H11 H 0.75072 0.56291 0.04183 0.0
H12 H 0.78976 0.59975 0.07193 0.0
C13 C 1.00777 0.74937 0.45125 0.0
N14 N 1.00817 0.79102 0.43671 0.0
N15 N 0.99886 0.7292 0.33593 0.0
C16 C 1.01691 0.72881 0.5766 0.0
C17 C 0.99201 0.76067 0.25521 0.0
N18 N 1.00187 0.79654 0.31002 0.0
C19 C 0.98336 0.75599 0.11159 0.0
H20 H 1.01228 0.69609 0.56765 0.0
H21 H 0.99719 0.74092 0.65281 0.0
H22 H 0.0484 0.73572 0.60509 0.0
H23 H 0.96632 0.7821 0.0728 0.0
H24 H 0.96505 0.72904 0.09087 0.0
H25 H 1.01224 0.75356 0.05895 0.0
C26 C 0.80686 1.00785 0.42004 0.0
N27 N 0.76529 1.00391 0.40892 0.0
N28 N 0.82688 0.99755 0.30689 0.0
C29 C 0.82713 0.02407 0.53796 0.0
C30 C 0.79539 0.98705 0.22984 0.0
N31 N 0.75929 0.99519 0.28429 0.0
C32 C 0.79946 0.97572 0.08956 0.0
H33 H 0.86033 0.0223 0.52989 0.0
H34 H 0.81658 1.0072 0.62431 0.0
H35 H 0.81767 0.05561 0.55106 0.0
H36 H 0.76956 0.97076 0.04286 0.0
H37 H 0.81705 0.9476 0.08288 0.0
H38 H 0.8159 0.9997 0.03637 0.0
C39 C 0.57498 0.784 0.33441 0.0
N40 N 0.55168 0.75167 0.37563 0.0
N41 N 0.56335 0.79885 0.2112 0.0
C42 C 0.61263 0.79629 0.40642 0.0
C43 C 0.53758 0.76923 0.17523 0.0
N44 N 0.52808 0.74412 0.27385 0.0
C45 C 0.52824 0.75895 0.03578 0.0
H46 H 0.60609 0.79937 0.51114 0.0
H47 H 0.62587 0.82434 0.36785 0.0
H48 H 0.63544 0.77225 0.3976 0.0
H49 H 0.54764 0.77619 0.96791 0.0
H50 H 0.49606 0.76471 1.01236 0.0
H51 H 0.5334 0.72641 0.0212 0.0
C52 C 0.3041 0.5143 0.15808 0.0
N53 N 0.2624 0.51426 0.16624 0.0
N54 N 0.32286 0.50146 0.27293 0.0
C55 C 0.32551 0.53452 0.04938 0.0
C56 C 0.29034 0.4932 0.34665 0.0
N57 N 0.25551 0.50669 0.29086 0.0
C58 C 0.29326 0.48091 0.4879 0.0
H59 H 0.31416 0.52282 0.95571 0.0
H60 H 0.35859 0.53109 0.05931 0.0
H61 H 0.31772 0.56679 0.05081 0.0
H62 H 0.30296 0.50718 0.54575 0.0
H63 H 0.31499 0.45628 0.50351 0.0
H64 H 0.26406 0.4696 0.5241 0.0
C65 C 0.03646 0.31389 0.14588 0.0
N66 N 0.0458 0.27315 0.1473 0.0
N67 N 0.0546 0.33506 0.24781 0.0
C68 C 1.00925 0.33269 0.04763 0.0
C69 C 0.07651 0.30508 0.30375 0.0
N70 N 0.0652 0.26829 0.26027 0.0
C71 C 0.10348 0.30995 0.42156 0.0
H72 H 0.99852 0.3105 0.97556 0.0
H73 H 0.02598 0.35701 0.99791 0.0
H74 H 0.98313 0.34585 0.09766 0.0
H75 H 0.08818 0.3273 0.49766 0.0
H76 H 0.13121 0.32636 0.39328 0.0
H77 H 0.11274 0.28033 0.46205 0.0
C78 C 0.24807 0.0531 0.16267 0.0
N79 N 0.28988 0.053 0.17062 0.0
N80 N 0.23004 0.05908 0.28235 0.0
C81 C 0.22542 0.04215 0.04263 0.0
C82 C 0.26281 0.0617 0.36117 0.0
N83 N 0.29766 0.05504 0.29738 0.0
C84 C 0.26073 0.06543 0.50659 0.0
H85 H 0.23717 0.05968 0.95926 0.0
H86 H 0.19267 0.0469 0.05454 0.0
H87 H 0.23088 1.01004 0.02258 0.0
H88 H 0.23993 0.04247 0.54709 0.0
H89 H 0.24877 0.09543 0.53052 0.0
H90 H 0.29088 0.06242 0.55343 0.0
C91 C 0.4815 0.27809 0.25244 0.0
N92 N 0.50603 0.30802 0.1999 0.0
N93 N 0.49804 0.2605 0.36538 0.0
C94 C 0.43889 0.27172 0.20596 0.0
C95 C 0.5297 0.28551 0.38625 0.0
N96 N 0.53601 0.31109 0.28599 0.0
C97 C 0.54995 0.29061 0.51718 0.0
H98 H 0.42134 0.29939 0.22256 0.0
H99 H 0.42366 0.24703 0.25874 0.0
H100 H 0.43851 0.26619 0.10002 0.0
H101 H 0.58038 0.27699 0.51817 0.0
H102 H 0.53179 0.27666 0.59552 0.0
H103 H 0.55386 0.32303 0.53771 0.0
Eu104 Eu 0.98276 0.03856 0.68234 0.0
C105 C 0.12688 0.09749 0.99449 0.0
N106 N 0.12343 0.07359 0.88865 0.0
C107 C 0.18278 0.10395 0.7983 0.0
C108 C 0.15771 0.12677 1.00299 0.0
C109 C 0.15209 0.07519 0.79465 0.0
C110 C 0.18543 0.13011 0.90239 0.0
C111 C 0.10066 0.11919 0.20007 0.0
C112 C 0.09847 0.09368 0.09228 0.0
C113 C 0.13105 0.14852 0.20811 0.0
C114 C 0.15966 0.1521 0.11038 0.0
Eu115 Eu 0.07205 0.02363 0.89764 0.0
N116 N 0.06839 0.06573 0.08117 0.0
C117 C 0.07223 0.11447 0.29753 0.0
C118 C 0.04134 0.06077 0.17865 0.0
C119 C 0.04217 0.08573 0.28564 0.0
H120 H 0.15294 0.05273 0.72095 0.0
H121 H 0.02022 0.08208 0.36099 0.0
H122 H 0.90075 1.01392 0.85968 0.0
H123 H 0.04345 0.96171 0.25559 0.0
H124 H 0.02002 0.03671 0.17939 0.0
H125 H 0.07363 0.13243 0.38417 0.0
H126 H 0.04064 1.01353 0.41809 0.0
H127 H 0.20514 0.10505 0.7229 0.0
H128 H 0.13288 0.16839 0.29041 0.0
H129 H 0.18306 0.17473 0.11842 0.0
H130 H 0.84594 0.9643 0.85756 0.0
H131 H 0.20953 0.15212 0.90565 0.0
H132 H 0.98971 0.91083 0.24272 0.0
N133 N 0.93 0.99024 0.69494 0.0
C134 C 0.92702 0.96415 0.59424 0.0
C135 C 0.86895 0.96348 0.78456 0.0
C136 C 0.89539 0.93568 0.58843 0.0
C137 C 0.90079 0.99099 0.78715 0.0
C138 C 0.8662 0.93572 0.68492 0.0
N139 N 0.98844 0.99085 0.51157 0.0
C140 C 1.01819 0.99079 0.42121 0.0
C141 C 0.95723 0.93407 0.40557 0.0
C142 C 0.9574 0.96389 0.50191 0.0
C143 C 0.98896 0.93299 0.31815 0.0
C144 C 0.01937 0.96161 0.32542 0.0
H145 H 0.84136 0.91452 0.68328 0.0
H146 H 0.87059 0.88505 0.48416 0.0
H147 H 0.92536 0.88286 0.32657 0.0
O148 O 0.96097 0.06472 0.50034 0.0
O149 O 0.9933 0.97079 0.74282 0.0
O150 O 0.06084 0.96594 0.767 0.0
O151 O 0.92245 0.06426 0.66545 0.0
O152 O 0.04554 0.06091 0.59407 0.0
O153 O 0.08795 1.01508 0.68591 0.0
O154 O 0.13391 1.00238 0.90846 0.0
O155 O 0.06015 0.09212 0.8502 0.0
O156 O 0.99293 0.09722 0.81192 0.0
O157 O 0.09428 0.99033 0.06713 0.0
O158 O 1.00915 1.00206 0.98629 0.0
O159 O 0.96659 0.04793 0.89442 0.0
C160 C 0.02622 0.94869 0.73078 0.0
C161 C 0.91535 0.11694 0.52035 0.0
C162 C 0.94054 0.18325 0.48259 0.0
C163 C 0.9035 0.19485 0.42711 0.0
C164 C 0.87804 0.12767 0.46499 0.0
C165 C 0.87175 0.16715 0.42184 0.0
C166 C 0.94501 0.14564 0.53872 0.0
C167 C 0.08128 0.04206 0.59522 0.0
C168 C 0.92632 0.07561 0.54618 0.0
C169 C 0.89463 0.90707 0.48981 0.0
C170 C 0.92583 0.9058 0.40019 0.0
C171 C 0.02687 0.11397 0.85792 0.0
C172 C 0.1392 0.93998 1.00156 0.0
C173 C 0.11569 0.87148 0.99681 0.0
C174 C 0.15382 0.85863 0.95721 0.0
C175 C 0.17737 0.92759 0.96054 0.0
C176 C 0.10865 0.91199 1.01545 0.0
C177 C 0.18451 0.8869 0.93747 0.0
C178 C 0.9739 0.02176 0.98755 0.0
C179 C 0.12885 0.98217 1.01418 0.0
H180 H 0.90014 0.22397 0.38054 0.0
H181 H 0.85457 0.10557 0.4509 0.0
H182 H 0.84334 0.17547 0.37656 0.0
H183 H 0.97413 0.13695 0.57938 0.0
H184 H 0.16008 0.82698 0.94606 0.0
H185 H 0.20122 0.94924 0.94456 0.0
H186 H 0.07935 0.92165 0.04834 0.0
H187 H 0.21397 0.87721 0.9068 0.0
Eu188 Eu 0.54263 0.05648 0.92937 0.0
C189 C 0.5165 0.91 0.61457 0.0
N190 N 0.54025 0.94315 0.59998 0.0
C191 C 0.58466 0.90764 0.4626 0.0
C192 C 0.52661 0.87418 0.55362 0.0
C193 C 0.57494 0.94178 0.52992 0.0
C194 C 0.5591 0.87484 0.47043 0.0
C195 C 0.45543 0.87836 0.69414 0.0
C196 C 0.48007 0.91294 0.67936 0.0
C197 C 0.46757 0.84166 0.64243 0.0
C198 C 0.5024 0.83993 0.56836 0.0
Eu199 Eu 0.51001 1.00418 0.64988 0.0
N200 N 0.46659 0.94997 0.71348 0.0
C201 C 0.41761 0.88228 0.75002 0.0
C202 C 0.42714 0.95394 0.74885 0.0
C203 C 0.40303 0.9204 0.77463 0.0
H204 H 0.59233 0.96827 0.51021 0.0
H205 H 0.3722 0.92415 0.80542 0.0
H206 H 0.46089 0.08071 0.10538 0.0
H207 H 0.66087 0.15401 0.72509 0.0
H208 H 0.41221 0.98233 0.74646 0.0
H209 H 0.39808 0.85649 0.76391 0.0
H210 H 0.6284 0.0908 0.77709 0.0
H211 H 0.61001 0.90777 0.39753 0.0
H212 H 0.44884 0.81509 0.65171 0.0
H213 H 0.51007 0.81214 0.52136 0.0
H214 H 0.43354 0.14 0.20671 0.0
H215 H 0.56239 0.85168 0.40373 0.0
H216 H 0.63176 0.21718 0.80254 0.0
N217 N 0.5074 0.1124 1.00468 0.0
C218 C 0.52621 0.14837 0.98574 0.0
C219 C 0.45891 0.14276 0.14209 0.0
C220 C 0.51148 0.18302 0.04426 0.0
C221 C 0.47394 0.10934 0.0808 0.0
C222 C 0.47809 0.17935 0.12455 0.0
N223 N 0.57617 0.11611 0.85985 0.0
C224 C 0.61241 0.11734 0.79834 0.0
C225 C 0.58051 0.18776 0.89064 0.0
C226 C 0.56086 0.15047 0.91001 0.0
C227 C 0.61592 0.18913 0.81907 0.0
C228 C 0.63222 0.15365 0.7743 0.0
H229 H 0.46751 0.20401 0.1775 0.0
H230 H 0.51972 0.24684 0.0648 0.0
H231 H 0.57994 0.25113 0.93363 0.0
O232 O 0.59644 0.05691 0.04921 0.0
O233 O 0.50783 0.09967 0.78257 0.0
O234 O 0.51788 0.07051 0.58911 0.0
O235 O 0.53907 0.06642 0.13956 0.0
O236 O 0.5985 0.028 0.81655 0.0
O237 O 0.57476 0.02864 0.61032 0.0
O238 O 0.46002 1.0015 0.51345 0.0
O239 O 0.54393 0.96047 0.7966 0.0
O240 O 0.5373 0.99019 0.99126 0.0
O241 O 0.52065 0.9968 0.44179 0.0
O242 O 0.45604 0.03581 0.76116 0.0
O243 O 0.4791 0.02864 0.96592 0.0
C244 C 0.50728 0.10234 0.65429 0.0
C245 C 0.59355 0.1076 0.20754 0.0
C246 C 0.66196 0.12563 0.22725 0.0
C247 C 0.65716 0.13697 0.35621 0.0
C248 C 0.58799 0.114 0.34037 0.0
C249 C 0.61957 0.13112 0.41308 0.0
C250 C 0.62756 0.12499 0.14971 0.0
C251 C 0.60619 0.02553 0.68968 0.0
C252 C 0.57763 0.07039 0.15 0.0
C253 C 0.53092 0.21988 0.02349 0.0
C254 C 0.56516 0.22236 0.94696 0.0
C255 C 0.54577 0.95795 0.92489 0.0
C256 C 0.47163 0.95353 0.35008 0.0
C257 C 0.406 0.93043 0.3018 0.0
C258 C 0.4161 0.92348 0.1726 0.0
C259 C 0.48235 0.95046 0.22001 0.0
C260 C 0.43739 0.93254 0.39152 0.0
C261 C 0.45469 0.93418 0.13105 0.0
C262 C 0.44783 0.03457 0.88763 0.0
C263 C 0.48285 0.99064 0.41821 0.0
H264 H 0.68332 0.14123 0.41847 0.0
H265 H 0.56221 0.10131 0.38951 0.0
H266 H 0.61767 0.1334 0.51641 0.0
H267 H 0.63262 0.12003 0.04808 0.0
H268 H 0.3926 0.91807 0.10116 0.0
H269 H 0.50923 0.96523 0.18683 0.0
H270 H 0.42839 0.93531 0.49103 0.0
H271 H 0.46057 0.93568 0.0286 0.0
Eu272 Eu 0.57087 0.51661 0.6886 0.0
C273 C 0.42005 0.47662 0.99344 0.0
N274 N 0.4253 0.50071 0.88744 0.0
C275 C 0.36275 0.4772 0.79622 0.0
C276 C 0.38635 0.45057 1.0014 0.0
C277 C 0.39655 0.5022 0.79155 0.0
C278 C 0.35763 0.45118 0.90126 0.0
C279 C 0.44871 0.44538 0.18686 0.0
C280 C 0.45062 0.47479 0.08736 0.0
C281 C 0.41543 0.41934 0.19363 0.0
C282 C 0.3838 0.4227 0.10364 0.0
Eu283 Eu 0.48295 0.5431 0.89029 0.0
N284 N 0.48382 0.49888 0.07458 0.0
C285 C 0.48102 0.44171 0.27402 0.0
C286 C 0.51388 0.49707 0.16604 0.0
C287 C 0.51339 0.46809 0.26469 0.0
H288 H 0.39873 0.52369 0.71337 0.0
H289 H 0.53798 0.46628 0.33417 0.0
H290 H 0.65533 0.53539 0.86577 0.0
H291 H 0.51767 0.59123 0.2395 0.0
H292 H 0.53811 0.51807 0.16719 0.0
H293 H 0.481 0.41901 0.35005 0.0
H294 H 0.51724 0.53995 0.40874 0.0
H295 H 0.34028 0.47848 0.72001 0.0
H296 H 0.4139 0.39636 0.26865 0.0
H297 H 0.35841 0.40228 0.11048 0.0
H298 H 0.71293 0.58176 0.8629 0.0
H299 H 0.33149 0.43161 0.90385 0.0
H300 H 0.57355 0.63998 0.22774 0.0
N301 N 0.62853 0.55903 0.6929 0.0
C302 C 0.63357 0.58372 0.58818 0.0
C303 C 0.69058 0.58302 0.78624 0.0
C304 C 0.66687 0.61029 0.582 0.0
C305 C 0.65724 0.55737 0.78886 0.0
C306 C 0.69542 0.60967 0.68267 0.0
N307 N 0.57042 0.56068 0.50447 0.0
C308 C 0.54102 0.56153 0.41074 0.0
C309 C 0.60511 0.61479 0.39422 0.0
C310 C 0.60325 0.58533 0.49341 0.0
C311 C 0.57345 0.61743 0.30426 0.0
C312 C 0.54169 0.59021 0.31121 0.0
H313 H 0.72123 0.62969 0.68155 0.0
H314 H 0.69422 0.65947 0.4755 0.0
H315 H 0.63921 0.66473 0.31526 0.0
O316 O 0.58971 0.48104 0.52466 0.0
O317 O 0.56713 0.58567 0.73313 0.0
O318 O 0.50049 0.59785 0.75893 0.0
O319 O 0.6279 0.48357 0.69826 0.0
O320 O 0.50677 0.49882 0.59722 0.0
O321 O 0.46955 0.54995 0.67459 0.0
O322 O 0.46234 0.57837 0.05314 0.0
O323 O 0.48617 0.47418 0.84436 0.0
O324 O 0.5529 0.46194 0.81928 0.0
O325 O 0.42621 0.57611 0.87491 0.0
O326 O 0.54694 0.56133 0.98188 0.0
O327 O 0.58497 0.51057 0.9046 0.0
C328 C 0.53644 0.61096 0.72351 0.0
C329 C 0.65376 0.44555 0.51939 0.0
C330 C 0.66757 0.40163 0.33923 0.0
C331 C 0.70394 0.38988 0.40002 0.0
C332 C 0.68878 0.43205 0.58344 0.0
C333 C 0.71473 0.40562 0.52097 0.0
C334 C 0.64537 0.4326 0.39531 0.0
C335 C 0.47294 0.52069 0.59223 0.0
C336 C 0.62384 0.47122 0.58064 0.0
C337 C 0.66919 0.63857 0.48085 0.0
C338 C 0.63782 0.64157 0.3897 0.0
C339 C 0.51682 0.44879 0.85315 0.0
C340 C 0.39789 0.6134 0.05042 0.0
C341 C 0.38661 0.66059 0.2214 0.0
C342 C 0.35227 0.67522 0.15466 0.0
C343 C 0.36537 0.62948 0.97901 0.0
C344 C 0.40432 0.6254 0.17642 0.0
C345 C 0.34112 0.65881 0.03489 0.0
C346 C 0.58117 0.53998 0.98662 0.0
C347 C 0.42874 0.588 0.99328 0.0
H348 H 0.72252 0.36676 0.35874 0.0
H349 H 0.69622 0.44209 0.6803 0.0
H350 H 0.74208 0.39561 0.56942 0.0
H351 H 0.61817 0.44394 0.34981 0.0
H352 H 0.33643 0.70134 0.18869 0.0
H353 H 0.35908 0.61987 0.88089 0.0
H354 H 0.42879 0.61114 0.22889 0.0
H355 H 0.31579 0.67114 0.98088 0.0
Eu356 Eu 0.03126 0.5755 0.69243 0.0
C357 C 0.09712 0.43471 0.99565 0.0
N358 N 0.07025 0.43616 0.89471 0.0
C359 C 0.09968 0.37686 0.8055 0.0
C360 C 0.12754 0.40513 1.00146 0.0
C361 C 0.07093 0.4074 0.80112 0.0
C362 C 0.1282 0.37579 0.90575 0.0
C363 C 0.1263 0.46638 0.1854 0.0
C364 C 0.09589 0.46462 0.08867 0.0
C365 C 0.157 0.43749 0.18975 0.0
C366 C 0.15715 0.40649 0.09959 0.0
Eu367 Eu 0.01956 0.48658 0.90436 0.0
N368 N 0.06615 0.49288 0.08165 0.0
C369 C 0.12485 0.49699 0.27611 0.0
C370 C 0.06313 0.52045 0.17793 0.0
C371 C 0.09287 0.5237 0.27376 0.0
H372 H 0.04805 0.40659 0.72638 0.0
H373 H 0.09046 0.54611 0.34809 0.0
H374 H 0.99938 0.6537 0.87231 0.0
H375 H 0.96477 0.51572 0.2429 0.0
H376 H 0.0374 0.53927 0.18623 0.0
H377 H 0.14696 0.49885 0.35272 0.0
H378 H 1.0167 0.52328 0.40805 0.0
H379 H 0.09963 0.35399 0.73188 0.0
H380 H 0.18044 0.43855 0.26375 0.0
H381 H 0.18084 0.3842 0.1049 0.0
H382 H 0.94597 0.70443 0.86684 0.0
H383 H 0.15077 0.35235 0.90785 0.0
H384 H 0.90787 0.56213 0.2336 0.0
N385 N 0.97908 0.62426 0.70144 0.0
C386 C 0.95309 0.62566 0.5981 0.0
C387 C 0.94721 0.68206 0.79183 0.0
C388 C 0.92211 0.65463 0.59092 0.0
C389 C 0.97699 0.65253 0.79622 0.0
C390 C 0.91964 0.68313 0.68888 0.0
N391 N 0.98599 0.56851 0.51238 0.0
C392 C 0.99041 0.54142 0.41533 0.0
C393 C 0.92642 0.59448 0.40387 0.0
C394 C 0.95578 0.59624 0.50388 0.0
C395 C 0.92916 0.56417 0.31247 0.0
C396 C 0.96146 0.5379 0.31727 0.0
H397 H 0.89647 0.70598 0.68619 0.0
H398 H 0.86973 0.67538 0.48234 0.0
H399 H 0.87294 0.62211 0.32024 0.0
O400 O 0.06391 0.59714 0.523 0.0
O401 O 0.96487 0.56314 0.7565 0.0
O402 O 0.96259 0.49581 0.76626 0.0
O403 O 0.05021 0.63777 0.67513 0.0
O404 O 0.05204 0.5127 0.60026 0.0
O405 O 1.00762 0.46931 0.69305 0.0
O406 O 0.98484 0.46665 0.07154 0.0
O407 O 0.08617 0.49864 0.84116 0.0
O408 O 0.08908 0.56605 0.82587 0.0
O409 O 1.0006 0.42453 0.9264 0.0
O410 O 0.99891 0.54902 0.99851 0.0
O411 O 0.04257 0.59302 0.90437 0.0
C412 C 0.94403 0.52995 0.73591 0.0
C413 C 0.1118 0.64739 0.5765 0.0
C414 C 0.18169 0.62903 0.56264 0.0
C415 C 0.19343 0.66305 0.63188 0.0
C416 C 0.12301 0.68129 0.64912 0.0
C417 C 0.16384 0.68965 0.67338 0.0
C418 C 0.1416 0.62324 0.5272 0.0
C419 C 0.03245 0.47718 0.59795 0.0
C420 C 0.07007 0.63288 0.56988 0.0
C421 C 0.89374 0.65347 0.48907 0.0
C422 C 0.89549 0.62307 0.39705 0.0
C423 C 0.10731 0.53188 0.85807 0.0
C424 C 0.93624 0.41846 1.00671 0.0
C425 C 0.86739 0.44095 1.00276 0.0
C426 C 0.85572 0.40877 0.92488 0.0
C427 C 0.92519 0.38629 0.92587 0.0
C428 C 0.9066 0.44385 0.05018 0.0
C429 C 0.8848 0.38097 0.88798 0.0
C430 C 1.01797 0.58479 1.00007 0.0
C431 C 0.97834 0.43089 0.02533 0.0
H432 H 0.22485 0.66838 0.65597 0.0
H433 H 0.10047 0.70024 0.69153 0.0
H434 H 0.17238 0.7157 0.72916 0.0
H435 H 0.13351 0.59769 0.46789 0.0
H436 H 0.82477 0.40558 0.89189 0.0
H437 H 0.94773 0.36634 0.888 0.0
H438 H 0.91443 0.46804 0.11563 0.0
H439 H 0.87638 0.35623 0.82613 0.0
C440 C 0.16552 0.02094 0.33866 0.0
C441 C 0.18792 0.05721 0.33219 0.0
H442 H 0.11571 0.98768 0.42292 0.0
C443 C 0.17242 0.08899 0.40725 0.0
H444 H 0.17666 0.99487 0.28894 0.0
C445 C 0.13701 0.08504 0.48401 0.0
C446 C 0.11481 0.04878 0.49231 0.0
H447 H 0.18884 0.11708 0.41037 0.0
H448 H 0.12792 0.11029 0.54182 0.0
C449 C 0.13026 1.01677 0.4174 0.0
C450 C 0.53362 0.20122 0.47129 0.0
C451 C 0.49684 0.21947 0.42937 0.0
H452 H 0.56408 0.15728 0.59024 0.0
C453 C 0.46163 0.19746 0.46547 0.0
H454 H 0.56213 0.21448 0.44462 0.0
C455 C 0.46409 0.15976 0.53699 0.0
C456 C 0.50153 0.14341 0.58244 0.0
H457 H 0.43218 0.20912 0.44063 0.0
H458 H 0.43646 0.14376 0.55843 0.0
C459 C 0.53545 0.16643 0.5513 0.0
C460 C 0.38366 0.47285 0.39458 0.0
C461 C 0.36443 0.50557 0.3296 0.0
H462 H 0.43183 0.45068 0.51992 0.0
C463 C 0.38227 0.54336 0.35339 0.0
H464 H 0.37004 0.44341 0.38874 0.0
C465 C 0.4179 0.54774 0.43241 0.0
C466 C 0.43812 0.51461 0.49186 0.0
H467 H 0.36683 0.56988 0.31835 0.0
H468 H 0.42889 0.5776 0.4516 0.0
C469 C 0.4196 0.477 0.47138 0.0
C470 C 0.08036 0.39865 0.35963 0.0
C471 C 0.04763 0.37509 0.31134 0.0
H472 H 0.1024 0.44673 0.48237 0.0
C473 C 1.00928 0.38771 0.35548 0.0
H474 H 0.1106 0.38997 0.3357 0.0
C475 C 1.00451 0.42104 0.44239 0.0
C476 C 0.03757 0.44443 0.49026 0.0
H477 H 0.98285 0.37045 0.32861 0.0
H478 H 0.97443 0.42793 0.47504 0.0
C479 C 0.07561 0.43197 0.44538 0.0
C480 C 0.88439 0.04197 0.22591 0.0
C481 C 0.86866 1.00342 0.25615 0.0
H482 H 0.92844 0.07793 0.12228 0.0
C483 C 0.89001 0.97104 0.20059 0.0
H484 H 0.86817 0.06815 0.25699 0.0
C485 C 0.92512 0.97649 0.12256 0.0
C486 C 0.94062 1.01496 0.0914 0.0
H487 H 0.8781 0.941 0.21224 0.0
H488 H 0.93875 0.95036 0.07998 0.0
C489 C 0.91912 0.04755 0.14566 0.0
C490 C 0.59219 0.87002 0.14619 0.0
C491 C 0.56162 0.83975 0.14462 0.0
H492 H 0.61109 0.93034 0.08697 0.0
C493 C 0.52709 0.85058 0.06784 0.0
H494 H 0.61995 0.86489 0.1991 0.0
C495 C 0.52435 0.88611 0.99106 0.0
C496 C 0.55334 0.91692 0.99655 0.0
H497 H 0.50082 0.83146 0.0661 0.0
H498 H 0.49779 0.89009 0.9312 0.0
C499 C 0.58742 0.90807 0.07795 0.0
C500 C 0.67074 0.51932 0.23324 0.0
C501 C 0.68873 0.55732 0.25315 0.0
H502 H 0.62432 0.48432 0.13695 0.0
C503 C 0.66956 0.58943 0.18452 0.0
H504 H 0.6855 0.4931 0.27371 0.0
C505 C 0.6342 0.58449 0.10556 0.0
C506 C 0.61579 0.54673 0.08764 0.0
H507 H 0.68227 0.6192 0.19082 0.0
H508 H 0.62208 0.61041 0.05451 0.0
C509 C 0.63553 0.51423 0.15245 0.0
C510 C 0.97062 0.66538 0.23376 0.0
C511 C 1.00395 0.68714 0.28626 0.0
H512 H 0.94783 0.61856 0.10703 0.0
C513 C 0.0421 0.67229 0.24788 0.0
H514 H 0.94063 0.67666 0.25049 0.0
C515 C 0.04637 0.63866 0.16225 0.0
C516 C 1.01286 0.61723 0.10893 0.0
H517 H 0.069 0.68836 0.27782 0.0
H518 H 0.07649 0.63018 0.13407 0.0
C519 C 0.97484 0.63173 0.14855 0.0
C520 C 0.02089 0.26075 0.44971 0.0
C521 C 0.04533 0.24295 0.35361 0.0
H522 H 0.96728 0.25593 0.56294 0.0
C523 C 0.03832 0.20327 0.32134 0.0
H524 H 0.02465 0.29162 0.47853 0.0
C525 C 1.00393 0.18398 0.36444 0.0
C526 C 0.97757 0.20351 0.44787 0.0
H527 H 0.05625 0.18957 0.24795 0.0
H528 H 0.9964 0.15475 0.32636 0.0
C529 C 0.98707 0.24106 0.49597 0.0
C530 C 0.36717 0.03566 0.32199 0.0
C531 C 0.3271 0.02866 0.35193 0.0
H532 H 0.42078 1.00927 0.25723 0.0
C533 C 0.31435 0.98967 0.38823 0.0
H534 H 0.37724 0.06545 0.29403 0.0
C535 C 0.33997 0.95709 0.37426 0.0
C536 C 0.37784 0.96353 0.32129 0.0
H537 H 0.28319 0.98384 0.41261 0.0
H538 H 0.3295 0.92704 0.39703 0.0
C539 C 0.3917 1.00319 0.29938 0.0
C540 C 0.57341 0.37227 0.22627 0.0
C541 C 0.5732 0.33224 0.26722 0.0
H542 H 0.60851 0.4203 0.1536 0.0
C543 C 0.61008 0.31194 0.28234 0.0
H544 H 0.54558 0.38865 0.21273 0.0
C545 C 0.64619 0.33342 0.27683 0.0
C546 C 0.64526 0.37483 0.24889 0.0
H547 H 0.61074 0.28032 0.30747 0.0
H548 H 0.67342 0.31879 0.31114 0.0
C549 C 0.60963 0.39017 0.19247 0.0
C550 C 0.21184 0.52777 0.46754 0.0
C551 C 0.23683 0.53749 0.36398 0.0
H552 H 0.17721 0.55028 0.6233 0.0
C553 C 0.25142 0.5771 0.34993 0.0
H554 H 0.20243 0.49708 0.48514 0.0
C555 C 0.23725 0.60739 0.42761 0.0
C556 C 0.20944 0.59804 0.52326 0.0
H557 H 0.27326 0.5847 0.27633 0.0
H558 H 0.24558 0.63824 0.40658 0.0
C559 C 0.19879 0.5578 0.54866 0.0
C560 C 1.01704 0.84186 0.12946 0.0
C561 C 0.03007 0.81951 0.23732 0.0
H562 H 0.03429 0.87158 0.95426 0.0
C563 C 0.07079 0.80843 0.24913 0.0
H564 H 0.98542 0.84895 0.11595 0.0
C565 C 0.09849 0.82094 0.15836 0.0
C566 C 0.08585 0.84447 0.05296 0.0
H567 H 0.08085 0.78867 0.32697 0.0
H568 H 0.13011 0.81442 0.17543 0.0
C569 C 0.04455 0.85311 0.0352 0.0
C570 C 0.74671 0.05567 0.15601 0.0
C571 C 0.73163 0.01971 0.21221 0.0
H572 H 0.73632 0.1184 0.1202 0.0
C573 C 0.69114 1.01683 0.24234 0.0
H574 H 0.7781 0.05856 0.12991 0.0
C575 C 0.66909 0.05175 0.24971 0.0
C576 C 0.68574 0.08908 0.21069 0.0
H577 H 0.67908 0.98941 0.28412 0.0
H578 H 0.64028 0.04958 0.29663 0.0
C579 C 0.72358 0.09034 0.15474 0.0
C580 C 0.48595 0.68593 0.32929 0.0
C581 C 0.48955 0.72482 0.28048 0.0
H582 H 0.44652 0.64158 0.40354 0.0
C583 C 0.45453 0.74668 0.24925 0.0
H584 H 0.51239 0.66885 0.35603 0.0
C585 C 0.41698 0.72795 0.25269 0.0
C586 C 0.41398 0.68776 0.29488 0.0
H587 H 0.4565 0.77751 0.21551 0.0
H588 H 0.39158 0.74365 0.20961 0.0
C589 C 0.44807 0.67059 0.35635 0.0
C590 C 0.84081 0.54067 0.11767 0.0
C591 C 0.81604 0.52956 0.22056 0.0
H592 H 0.87395 0.52042 0.95519 0.0
C593 C 0.80059 0.49009 0.22727 0.0
H594 H 0.85119 0.57133 0.10655 0.0
C595 C 0.81274 0.46137 0.1406 0.0
C596 C 0.84008 0.47188 0.04481 0.0
H597 H 0.77919 0.48138 0.30091 0.0
H598 H 0.80355 0.43043 0.15538 0.0
C599 C 0.85225 0.51211 0.02856 0.0
C600 C 0.07076 0.21765 0.99642 0.0
C601 C 0.03814 0.23856 0.05381 0.0
H602 H 0.09302 0.16706 0.8883 0.0
C603 C 1.00034 0.21807 0.03841 0.0
H604 H 0.10076 0.23024 1.00605 0.0
C605 C 0.99608 0.17956 0.97318 0.0
C606 C 0.02921 0.15831 0.9182 0.0
H607 H 0.97399 0.2308 0.08292 0.0
H608 H 0.96654 0.16569 0.97016 0.0
C609 C 0.06635 0.17984 0.93004 0.0
C610 C 0.34011 1.01024 0.04277 0.0
C611 C 0.32278 0.04813 0.07113 0.0
H612 H 0.39096 0.97637 0.97356 0.0
C613 C 0.34653 0.0814 0.02818 0.0
H614 H 0.32486 0.98335 0.07608 0.0
C615 C 0.38478 0.07714 0.96375 0.0
C616 C 0.40338 0.03929 0.94275 0.0
H617 H 0.3362 0.11136 0.04935 0.0
H618 H 0.4007 0.10414 0.93505 0.0
C619 C 0.37914 1.00614 0.98353 0.0
C620 C 0.46993 0.357 0.04314 0.0
C621 C 0.50357 0.33312 0.07737 0.0
H622 H 0.44642 0.40632 0.9277 0.0
C623 C 0.53825 0.34102 1.00019 0.0
H624 H 0.44111 0.35056 0.08596 0.0
C625 C 0.54285 0.3776 0.92695 0.0
C626 C 0.51092 0.40541 0.91101 0.0
H627 H 0.56427 0.32172 1.01068 0.0
H628 H 0.57207 0.38458 0.88674 0.0
C629 C 0.47333 0.39079 0.9563 0.0
C630 C 0.20541 0.55805 0.06625 0.0
C631 C 0.22893 0.52224 0.06856 0.0
H632 H 0.15138 0.58968 1.00177 0.0
C633 C 0.21297 0.49125 0.98932 0.0
H634 H 0.2153 0.5835 0.12197 0.0
C635 C 0.17561 0.49517 0.9174 0.0
C636 C 0.15095 0.53009 0.9211 0.0
H637 H 0.22862 0.46282 0.98718 0.0
H638 H 0.16538 0.46986 0.861 0.0
C639 C 0.16795 0.56187 0.99478 0.0
C640 C 0.0523 0.8468 0.54403 0.0
C641 C 1.01488 0.82563 0.53019 0.0
H642 H 0.08575 0.89896 0.6136 0.0
C643 C 0.98237 0.84487 0.59343 0.0
H644 H 0.07894 0.83463 0.50032 0.0
C645 C 0.98667 0.8823 0.66241 0.0
C646 C 0.02345 0.9047 0.67022 0.0
H647 H 0.95269 0.83142 0.58664 0.0
H648 H 0.96024 0.89428 0.70811 0.0
C649 C 0.0564 0.88467 0.61134 0.0
C650 C 0.71337 0.04856 0.52487 0.0
C651 C 0.73103 1.01036 0.50298 0.0
H652 H 0.66305 0.08345 0.59253 0.0
C653 C 0.70754 0.97768 0.55181 0.0
H654 H 0.7284 0.07498 0.48687 0.0
C655 C 0.66944 0.98269 0.61667 0.0
C656 C 0.65071 0.02072 0.63369 0.0
H657 H 0.71814 0.94748 0.53597 0.0
H658 H 0.65381 0.956 0.64977 0.0
C659 C 0.6746 0.05342 0.58599 0.0
C660 C 0.58478 0.70384 0.54146 0.0
C661 C 0.55133 0.72674 0.49851 0.0
H662 H 0.60708 0.65472 0.66074 0.0
C663 C 0.51484 0.71736 0.5645 0.0
H664 H 0.61434 0.71118 0.50523 0.0
C665 C 0.50979 0.68088 0.63824 0.0
C666 C 0.54224 0.65425 0.66416 0.0
H667 H 0.48839 0.7355 0.54509 0.0
H668 H 0.47985 0.6729 0.67047 0.0
C669 C 0.58038 0.6698 0.627 0.0
C670 C 0.83855 0.5708 0.60391 0.0
C671 C 0.82349 0.54081 0.51907 0.0
H672 H 0.88508 0.59098 0.73816 0.0
C673 C 0.84762 0.50543 0.51686 0.0
H674 H 0.82245 0.59891 0.6095 0.0
C675 C 0.88469 0.50105 0.59037 0.0
C676 C 0.90074 0.53192 0.67014 0.0
H677 H 0.83852 0.48087 0.45576 0.0
H678 H 0.90176 0.47366 0.58009 0.0
C679 C 0.87555 0.56638 0.67739 0.0
loop_
_geom_bond_atom_site_label_1
_geom_bond_atom_site_label_2
_geom_bond_distance
_geom_bond_site_symmetry_2
_ccdc_geom_bond_type
C0 N1 1.317 . S
C0 N2 1.348 . S
C0 C3 1.485 . S
N1 C0 1.317 . S
N1 N5 1.370 . S
N2 C0 1.348 . S
N2 C4 1.346 . S
C3 C0 1.485 . S
C3 H7 0.960 . S
C3 H8 0.961 . S
C3 H9 0.960 . S
C4 N2 1.346 . S
C4 N5 1.307 . S
C4 C6 1.486 . S
N5 N1 1.370 . S
N5 C4 1.307 . S
C6 C4 1.486 . S
C6 H10 0.960 . S
C6 H11 0.960 . S
C6 H12 0.959 . S
H7 C3 0.960 . S
H8 C3 0.961 . S
H9 C3 0.960 . S
H10 C6 0.960 . S
H11 C6 0.960 . S
H12 C6 0.959 . S
C13 N14 1.317 . S
C13 N15 1.348 . S
C13 C16 1.485 . S
N14 C13 1.317 . S
N14 N18 1.370 . S
N15 C13 1.348 . S
N15 C17 1.346 . S
C16 C13 1.485 . S
C16 H20 0.960 1_655 S
C16 H21 0.961 . S
C16 H22 0.960 . S
C17 N15 1.346 . S
C17 N18 1.307 . S
C17 C19 1.486 . S
N18 N14 1.370 . S
N18 C17 1.307 . S
C19 C17 1.486 . S
C19 H23 0.960 . S
C19 H24 0.960 1_655 S
C19 H25 0.959 . S
H20 C16 0.960 1_455 S
H21 C16 0.961 . S
H22 C16 0.960 . S
H23 C19 0.960 . S
H24 C19 0.960 1_455 S
H25 C19 0.959 . S
C26 N27 1.317 . S
C26 N28 1.348 . S
C26 C29 1.485 . S
N27 C26 1.317 . S
N27 N31 1.370 . S
N28 C26 1.348 . S
N28 C30 1.346 . S
C29 C26 1.485 . S
C29 H33 0.960 1_565 S
C29 H34 0.961 . S
C29 H35 0.960 . S
C30 N28 1.346 . S
C30 N31 1.307 . S
C30 C32 1.486 . S
N31 N27 1.370 . S
N31 C30 1.307 . S
C32 C30 1.486 . S
C32 H36 0.960 . S
C32 H37 0.960 1_565 S
C32 H38 0.959 . S
H33 C29 0.960 1_545 S
H34 C29 0.961 . S
H35 C29 0.960 . S
H36 C32 0.960 . S
H37 C32 0.960 1_545 S
H38 C32 0.959 . S
C39 N40 1.317 . S
C39 N41 1.348 . S
C39 C42 1.485 . S
N40 C39 1.317 . S
N40 N44 1.370 . S
N41 C39 1.348 . S
N41 C43 1.346 . S
C42 C39 1.485 . S
C42 H46 0.960 . S
C42 H47 0.961 . S
C42 H48 0.960 . S
C43 N41 1.346 . S
C43 N44 1.307 . S
C43 C45 1.486 . S
N44 N40 1.370 . S
N44 C43 1.307 . S
C45 C43 1.486 . S
C45 H49 0.960 . S
C45 H50 0.960 . S
C45 H51 0.959 . S
H46 C42 0.960 . S
H47 C42 0.961 . S
H48 C42 0.960 . S
H49 C45 0.960 . S
H50 C45 0.960 . S
H51 C45 0.959 . S
C52 N53 1.317 . S
C52 N54 1.348 1_556 S
C52 C55 1.485 . S
N53 C52 1.317 . S
N53 N57 1.370 1_556 S
N54 C52 1.348 1_554 S
N54 C56 1.346 . S
C55 C52 1.485 . S
C55 H59 0.960 . S
C55 H60 0.961 . S
C55 H61 0.960 . S
C56 N54 1.346 . S
C56 N57 1.307 . S
C56 C58 1.486 . S
N57 N53 1.370 1_554 S
N57 C56 1.307 . S
C58 C56 1.486 . S
C58 H62 0.960 . S
C58 H63 0.960 . S
C58 H64 0.959 . S
H59 C55 0.960 . S
H60 C55 0.961 . S
H61 C55 0.960 . S
H62 C58 0.960 . S
H63 C58 0.960 . S
H64 C58 0.959 . S
C65 N66 1.317 . S
C65 N67 1.348 1_556 S
C65 C68 1.485 . S
N66 C65 1.317 . S
N66 N70 1.370 1_556 S
N67 C65 1.348 1_554 S
N67 C69 1.346 . S
C68 C65 1.485 . S
C68 H72 0.960 . S
C68 H73 0.961 . S
C68 H74 0.960 . S
C69 N67 1.346 . S
C69 N70 1.307 . S
C69 C71 1.486 . S
N70 N66 1.370 1_554 S
N70 C69 1.307 . S
C71 C69 1.486 . S
C71 H75 0.960 . S
C71 H76 0.960 . S
C71 H77 0.959 . S
H72 C68 0.960 . S
H73 C68 0.961 . S
H74 C68 0.960 . S
H75 C71 0.960 . S
H76 C71 0.960 . S
H77 C71 0.959 . S
C78 N79 1.317 . S
C78 N80 1.348 1_556 S
C78 C81 1.485 . S
N79 C78 1.317 . S
N79 N83 1.370 1_556 S
N80 C78 1.348 1_554 S
N80 C82 1.346 . S
C81 C78 1.485 . S
C81 H85 0.960 . S
C81 H86 0.961 . S
C81 H87 0.960 . S
C82 N80 1.346 . S
C82 N83 1.307 . S
C82 C84 1.486 . S
N83 N79 1.370 1_554 S
N83 C82 1.307 . S
C84 C82 1.486 . S
C84 H88 0.960 . S
C84 H89 0.960 . S
C84 H90 0.959 . S
H85 C81 0.960 . S
H86 C81 0.961 . S
H87 C81 0.960 . S
H88 C84 0.960 . S
H89 C84 0.960 . S
H90 C84 0.959 . S
C91 N92 1.317 . S
C91 N93 1.348 1_556 S
C91 C94 1.485 . S
N92 C91 1.317 . S
N92 N96 1.370 1_556 S
N93 C91 1.348 1_554 S
N93 C95 1.346 . S
C94 C91 1.485 . S
C94 H98 0.960 . S
C94 H99 0.961 . S
C94 H100 0.960 . S
C95 N93 1.346 . S
C95 N96 1.307 . S
C95 C97 1.486 . S
N96 N92 1.370 1_554 S
N96 C95 1.307 . S
C97 C95 1.486 . S
C97 H101 0.960 . S
C97 H102 0.960 . S
C97 H103 0.959 . S
H98 C94 0.960 . S
H99 C94 0.961 . S
H100 C94 0.960 . S
H101 C97 0.960 . S
H102 C97 0.960 . S
H103 C97 0.959 . S
Eu104 N133 2.600 . S
Eu104 N139 2.562 . S
Eu104 O148 2.462 . S
Eu104 O149 2.373 1_545 S
Eu104 O151 2.432 . S
Eu104 O152 2.291 1_655 S
Eu104 O156 2.333 1_655 S
Eu104 O159 2.372 . S
Eu104 C168 2.787 . S
C105 N106 1.365 1_554 S
C105 C108 1.405 . S
C105 C112 1.448 . S
N106 C105 1.365 1_556 S
N106 C109 1.319 . S
N106 Eu115 2.600 1_545 S
C107 C109 1.397 . S
C107 C110 1.367 1_556 S
C107 H127 0.931 . S
C108 C105 1.405 . S
C108 C110 1.403 . S
C108 C114 1.439 . S
C109 N106 1.319 . S
C109 C107 1.397 . S
C109 H120 0.930 1_545 S
C110 C107 1.367 1_554 S
C110 C108 1.403 . S
C110 H131 0.929 . S
C111 C112 1.430 . S
C111 C113 1.387 . S
C111 C117 1.404 . S
C112 C105 1.448 . S
C112 C111 1.430 . S
C112 N116 1.351 . S
C113 C111 1.387 . S
C113 C114 1.374 . S
C113 H128 0.931 . S
C114 C108 1.439 . S
C114 C113 1.374 . S
C114 H129 0.931 . S
Eu115 N106 2.600 1_565 S
Eu115 N116 2.562 1_566 S
Eu115 O150 2.335 . S
Eu115 O153 2.372 . S
Eu115 O154 2.462 1_556 S
Eu115 O155 2.373 1_565 S
Eu115 O157 2.432 . S
Eu115 O158 2.291 1_465 S
Eu115 C179 2.787 1_556 S
N116 C112 1.351 . S
N116 Eu115 2.562 1_544 S
N116 C118 1.325 . S
C117 C111 1.404 . S
C117 C119 1.366 . S
C117 H125 0.930 . S
C118 N116 1.325 . S
C118 C119 1.416 . S
C118 H124 0.929 . S
C119 C117 1.366 . S
C119 C118 1.416 . S
C119 H121 0.930 . S
H120 C109 0.930 1_565 S
H121 C119 0.930 . S
H122 C137 0.930 . S
H123 C144 0.930 1_455 S
H124 C118 0.929 . S
H125 C117 0.930 . S
H126 C140 0.929 1_445 S
H127 C107 0.931 . S
H128 C113 0.931 . S
H129 C114 0.931 . S
H130 C135 0.931 . S
H131 C110 0.929 . S
H132 C143 0.930 . S
N133 Eu104 2.600 . S
N133 C134 1.365 1_545 S
N133 C137 1.319 . S
C134 N133 1.365 1_565 S
C134 C136 1.405 . S
C134 C142 1.448 . S
C135 H130 0.931 . S
C135 C137 1.397 . S
C135 C138 1.367 1_545 S
C136 C134 1.405 . S
C136 C138 1.403 . S
C136 C169 1.439 . S
C137 H122 0.930 . S
C137 N133 1.319 . S
C137 C135 1.397 . S
C138 C135 1.367 1_565 S
C138 C136 1.403 . S
C138 H145 0.929 . S
N139 Eu104 2.562 . S
N139 C140 1.325 1_545 S
N139 C142 1.351 1_545 S
C140 H126 0.929 1_665 S
C140 N139 1.325 1_565 S
C140 C144 1.416 . S
C141 C142 1.430 . S
C141 C143 1.404 . S
C141 C170 1.387 . S
C142 C134 1.448 . S
C142 N139 1.351 1_565 S
C142 C141 1.430 . S
C143 H132 0.930 . S
C143 C141 1.404 . S
C143 C144 1.366 . S
C144 H123 0.930 1_655 S
C144 C140 1.416 . S
C144 C143 1.366 . S
H145 C138 0.929 . S
H146 C169 0.931 . S
H147 C170 0.931 . S
O148 Eu104 2.462 . S
O148 C168 1.252 . S
O149 Eu104 2.373 1_565 S
O149 C160 1.249 . S
O150 Eu115 2.335 . S
O150 C160 1.264 1_455 S
O151 Eu104 2.432 . S
O151 C168 1.268 . S
O152 Eu104 2.291 1_455 S
O152 C167 1.255 . S
O153 Eu115 2.372 . S
O153 C167 1.257 1_565 S
O154 Eu115 2.462 1_554 S
O154 C179 1.252 . S
O155 Eu115 2.373 1_545 S
O155 C171 1.249 . S
O156 Eu104 2.333 1_455 S
O156 C171 1.267 . S
O157 Eu115 2.432 . S
O157 C179 1.268 1_556 S
O158 Eu115 2.291 1_645 S
O158 C178 1.255 . S
O159 Eu104 2.372 . S
O159 C178 1.257 . S
C160 O149 1.249 . S
C160 O150 1.264 1_655 S
C161 C164 1.382 . S
C161 C166 1.390 . S
C161 C168 1.506 . S
C162 C163 1.398 . S
C162 C166 1.392 . S
C163 C162 1.398 . S
C163 C165 1.372 . S
C163 H180 0.931 . S
C164 C161 1.382 . S
C164 C165 1.390 . S
C164 H181 0.931 . S
C165 C163 1.372 . S
C165 C164 1.390 . S
C165 H182 0.929 . S
C166 C161 1.390 . S
C166 C162 1.392 . S
C166 H183 0.930 1_655 S
C167 O152 1.255 . S
C167 O153 1.257 1_545 S
C168 Eu104 2.787 . S
C168 O148 1.252 . S
C168 O151 1.268 . S
C168 C161 1.506 . S
C169 C136 1.439 . S
C169 H146 0.931 . S
C169 C170 1.374 . S
C170 C141 1.387 . S
C170 H147 0.931 . S
C170 C169 1.374 . S
C171 O155 1.249 . S
C171 O156 1.267 . S
C172 C175 1.382 . S
C172 C176 1.390 . S
C172 C179 1.506 . S
C173 C174 1.398 . S
C173 C176 1.392 . S
C174 C173 1.398 . S
C174 C177 1.372 . S
C174 H184 0.931 . S
C175 C172 1.382 . S
C175 C177 1.390 . S
C175 H185 0.931 . S
C176 C172 1.390 . S
C176 C173 1.392 . S
C176 H186 0.930 . S
C177 C174 1.372 . S
C177 C175 1.390 . S
C177 H187 0.929 . S
C178 O158 1.255 . S
C178 O159 1.257 . S
C179 Eu115 2.787 1_554 S
C179 O154 1.252 . S
C179 O157 1.268 1_554 S
C179 C172 1.506 . S
H180 C163 0.931 . S
H181 C164 0.931 . S
H182 C165 0.929 . S
H183 C166 0.930 1_455 S
H184 C174 0.931 . S
H185 C175 0.931 . S
H186 C176 0.930 . S
H187 C177 0.929 . S
Eu188 N217 2.600 . S
Eu188 N223 2.562 . S
Eu188 O232 2.462 1_556 S
Eu188 O233 2.373 . S
Eu188 O235 2.432 1_556 S
Eu188 O236 2.291 . S
Eu188 O240 2.335 1_545 S
Eu188 O243 2.372 . S
Eu188 C252 2.787 1_556 S
C189 N190 1.365 . S
C189 C192 1.405 . S
C189 C196 1.448 . S
N190 C189 1.365 . S
N190 C193 1.319 . S
N190 Eu199 2.600 . S
C191 C193 1.397 . S
C191 C194 1.367 . S
C191 H211 0.931 . S
C192 C189 1.405 . S
C192 C194 1.403 . S
C192 C198 1.439 . S
C193 N190 1.319 . S
C193 C191 1.397 . S
C193 H204 0.930 . S
C194 C191 1.367 . S
C194 C192 1.403 . S
C194 H215 0.929 . S
C195 C196 1.430 . S
C195 C197 1.387 . S
C195 C201 1.404 . S
C196 C189 1.448 . S
C196 C195 1.430 . S
C196 N200 1.351 . S
C197 C195 1.387 . S
C197 C198 1.374 . S
C197 H212 0.931 . S
C198 C192 1.439 . S
C198 C197 1.374 . S
C198 H213 0.931 . S
Eu199 N190 2.600 . S
Eu199 N200 2.562 . S
Eu199 O234 2.335 1_565 S
Eu199 O237 2.372 . S
Eu199 O238 2.462 . S
Eu199 O239 2.373 . S
Eu199 O241 2.432 . S
Eu199 O242 2.282 1_565 S
Eu199 C263 2.787 . S
N200 C196 1.351 . S
N200 Eu199 2.562 . S
N200 C202 1.325 . S
C201 C195 1.404 . S
C201 C203 1.366 . S
C201 H209 0.930 . S
C202 N200 1.325 . S
C202 C203 1.416 . S
C202 H208 0.929 . S
C203 C201 1.366 . S
C203 C202 1.416 . S
C203 H205 0.930 . S
H204 C193 0.930 . S
H205 C203 0.930 . S
H206 C221 0.930 . S
H207 C228 0.930 . S
H208 C202 0.929 . S
H209 C201 0.930 . S
H210 C224 0.929 . S
H211 C191 0.931 . S
H212 C197 0.931 . S
H213 C198 0.931 . S
H214 C219 0.931 . S
H215 C194 0.929 . S
H216 C227 0.930 . S
N217 Eu188 2.600 . S
N217 C218 1.365 . S
N217 C221 1.319 1_556 S
C218 N217 1.365 . S
C218 C220 1.405 . S
C218 C226 1.448 . S
C219 H214 0.931 . S
C219 C221 1.397 . S
C219 C222 1.367 . S
C220 C218 1.405 . S
C220 C222 1.403 1_556 S
C220 C253 1.439 . S
C221 H206 0.930 . S
C221 N217 1.319 1_554 S
C221 C219 1.397 . S
C222 C219 1.367 . S
C222 C220 1.403 1_554 S
C222 H229 0.929 . S
N223 Eu188 2.562 . S
N223 C224 1.325 . S
N223 C226 1.351 . S
C224 H210 0.929 . S
C224 N223 1.325 . S
C224 C228 1.416 . S
C225 C226 1.430 . S
C225 C227 1.404 . S
C225 C254 1.387 . S
C226 C218 1.448 . S
C226 N223 1.351 . S
C226 C225 1.430 . S
C227 H216 0.930 . S
C227 C225 1.404 . S
C227 C228 1.366 . S
C228 H207 0.930 . S
C228 C224 1.416 . S
C228 C227 1.366 . S
H229 C222 0.929 . S
H230 C253 0.931 . S
H231 C254 0.931 . S
O232 Eu188 2.462 1_554 S
O232 C252 1.252 . S
O233 Eu188 2.373 . S
O233 C244 1.249 . S
O234 Eu199 2.335 1_545 S
O234 C244 1.264 . S
O235 Eu188 2.432 1_554 S
O235 C252 1.268 . S
O236 Eu188 2.291 . S
O236 C251 1.255 1_545 S
O237 Eu199 2.372 . S
O237 C251 1.257 . S
O238 Eu199 2.462 . S
O238 C263 1.252 . S
O239 Eu199 2.373 . S
O239 C255 1.249 . S
O240 Eu188 2.335 1_565 S
O240 C255 1.264 . S
O241 Eu199 2.432 . S
O241 C263 1.268 . S
O242 Eu199 2.282 1_545 S
O242 C262 1.269 . S
O243 Eu188 2.372 . S
O243 C262 1.257 . S
C244 O233 1.249 . S
C244 O234 1.264 . S
C245 C248 1.382 . S
C245 C250 1.390 . S
C245 C252 1.506 . S
C246 C247 1.398 . S
C246 C250 1.392 . S
C247 C246 1.398 . S
C247 C249 1.372 . S
C247 H264 0.931 . S
C248 C245 1.382 . S
C248 C249 1.390 . S
C248 H265 0.931 . S
C249 C247 1.372 . S
C249 C248 1.390 . S
C249 H266 0.929 . S
C250 C245 1.390 . S
C250 C246 1.392 . S
C250 H267 0.930 . S
C251 O236 1.255 1_565 S
C251 O237 1.257 . S
C252 Eu188 2.787 1_554 S
C252 O232 1.252 . S
C252 O235 1.268 . S
C252 C245 1.506 . S
C253 C220 1.439 . S
C253 H230 0.931 . S
C253 C254 1.374 . S
C254 C225 1.387 . S
C254 H231 0.931 . S
C254 C253 1.374 . S
C255 O239 1.249 . S
C255 O240 1.264 . S
C256 C259 1.382 . S
C256 C260 1.390 . S
C256 C263 1.506 . S
C257 C258 1.398 . S
C257 C260 1.392 . S
C258 C257 1.398 . S
C258 C261 1.372 . S
C258 H268 0.931 . S
C259 C256 1.382 . S
C259 C261 1.390 . S
C259 H269 0.931 . S
C260 C256 1.390 . S
C260 C257 1.392 . S
C260 H270 0.930 . S
C261 C258 1.372 . S
C261 C259 1.390 . S
C261 H271 0.929 . S
C262 O242 1.269 . S
C262 O243 1.257 . S
C263 Eu199 2.787 . S
C263 O238 1.252 . S
C263 O241 1.268 . S
C263 C256 1.506 . S
H264 C247 0.931 . S
H265 C248 0.931 . S
H266 C249 0.929 . S
H267 C250 0.930 . S
H268 C258 0.931 . S
H269 C259 0.931 . S
H270 C260 0.930 . S
H271 C261 0.929 . S
Eu272 N301 2.600 . S
Eu272 N307 2.562 . S
Eu272 O316 2.462 . S
Eu272 O317 2.373 . S
Eu272 O319 2.432 . S
Eu272 O320 2.291 . S
Eu272 O324 2.335 . S
Eu272 O327 2.372 . S
Eu272 C336 2.787 . S
C273 N274 1.365 1_554 S
C273 C276 1.405 . S
C273 C280 1.448 . S
N274 C273 1.365 1_556 S
N274 C277 1.319 . S
N274 Eu283 2.600 . S
C275 C277 1.397 . S
C275 C278 1.367 1_556 S
C275 H295 0.931 . S
C276 C273 1.405 . S
C276 C278 1.403 . S
C276 C282 1.439 . S
C277 N274 1.319 . S
C277 C275 1.397 . S
C277 H288 0.930 . S
C278 C275 1.367 1_554 S
C278 C276 1.403 . S
C278 H299 0.929 . S
C279 C280 1.430 . S
C279 C281 1.387 . S
C279 C285 1.404 . S
C280 C273 1.448 . S
C280 C279 1.430 . S
C280 N284 1.351 . S
C281 C279 1.387 . S
C281 C282 1.374 . S
C281 H296 0.931 . S
C282 C276 1.439 . S
C282 C281 1.374 . S
C282 H297 0.931 . S
Eu283 N274 2.600 . S
Eu283 N284 2.562 1_556 S
Eu283 O318 2.335 . S
Eu283 O321 2.372 . S
Eu283 O322 2.462 1_556 S
Eu283 O323 2.373 . S
Eu283 O325 2.432 . S
Eu283 O326 2.291 . S
Eu283 C347 2.787 1_556 S
N284 C280 1.351 . S
N284 Eu283 2.562 1_554 S
N284 C286 1.325 . S
C285 C279 1.404 . S
C285 C287 1.366 . S
C285 H293 0.930 . S
C286 N284 1.325 . S
C286 C287 1.416 . S
C286 H292 0.929 . S
C287 C285 1.366 . S
C287 C286 1.416 . S
C287 H289 0.930 . S
H288 C277 0.930 . S
H289 C287 0.930 . S
H290 C305 0.930 . S
H291 C312 0.930 . S
H292 C286 0.929 . S
H293 C285 0.930 . S
H294 C308 0.929 . S
H295 C275 0.931 . S
H296 C281 0.931 . S
H297 C282 0.931 . S
H298 C303 0.931 . S
H299 C278 0.929 . S
H300 C311 0.930 . S
N301 Eu272 2.600 . S
N301 C302 1.365 . S
N301 C305 1.319 . S
C302 N301 1.365 . S
C302 C304 1.405 . S
C302 C310 1.448 . S
C303 H298 0.931 . S
C303 C305 1.397 . S
C303 C306 1.367 . S
C304 C302 1.405 . S
C304 C306 1.403 . S
C304 C337 1.439 . S
C305 H290 0.930 . S
C305 N301 1.319 . S
C305 C303 1.397 . S
C306 C303 1.367 . S
C306 C304 1.403 . S
C306 H313 0.929 . S
N307 Eu272 2.562 . S
N307 C308 1.325 . S
N307 C310 1.351 . S
C308 H294 0.929 . S
C308 N307 1.325 . S
C308 C312 1.416 . S
C309 C310 1.430 . S
C309 C311 1.404 . S
C309 C338 1.387 . S
C310 C302 1.448 . S
C310 N307 1.351 . S
C310 C309 1.430 . S
C311 H300 0.930 . S
C311 C309 1.404 . S
C311 C312 1.366 . S
C312 H291 0.930 . S
C312 C308 1.416 . S
C312 C311 1.366 . S
H313 C306 0.929 . S
H314 C337 0.931 . S
H315 C338 0.931 . S
O316 Eu272 2.462 . S
O316 C336 1.252 . S
O317 Eu272 2.373 . S
O317 C328 1.249 . S
O318 Eu283 2.335 . S
O318 C328 1.264 . S
O319 Eu272 2.432 . S
O319 C336 1.268 . S
O320 Eu272 2.291 . S
O320 C335 1.255 . S
O321 Eu283 2.372 . S
O321 C335 1.257 . S
O322 Eu283 2.462 1_554 S
O322 C347 1.252 . S
O323 Eu283 2.373 . S
O323 C339 1.249 . S
O324 Eu272 2.335 . S
O324 C339 1.264 . S
O325 Eu283 2.432 . S
O325 C347 1.268 1_556 S
O326 Eu283 2.291 . S
O326 C346 1.255 . S
O327 Eu272 2.372 . S
O327 C346 1.257 . S
C328 O317 1.249 . S
C328 O318 1.264 . S
C329 C332 1.382 . S
C329 C334 1.390 . S
C329 C336 1.506 . S
C330 C331 1.398 . S
C330 C334 1.392 . S
C331 C330 1.398 . S
C331 C333 1.372 . S
C331 H348 0.931 . S
C332 C329 1.382 . S
C332 C333 1.390 . S
C332 H349 0.931 . S
C333 C331 1.372 . S
C333 C332 1.390 . S
C333 H350 0.929 . S
C334 C329 1.390 . S
C334 C330 1.392 . S
C334 H351 0.930 . S
C335 O320 1.255 . S
C335 O321 1.257 . S
C336 Eu272 2.787 . S
C336 O316 1.252 . S
C336 O319 1.268 . S
C336 C329 1.506 . S
C337 C304 1.439 . S
C337 H314 0.931 . S
C337 C338 1.374 . S
C338 C309 1.387 . S
C338 H315 0.931 . S
C338 C337 1.374 . S
C339 O323 1.249 . S
C339 O324 1.264 . S
C340 C343 1.382 . S
C340 C344 1.390 . S
C340 C347 1.506 . S
C341 C342 1.398 . S
C341 C344 1.392 . S
C342 C341 1.398 . S
C342 C345 1.372 . S
C342 H352 0.931 . S
C343 C340 1.382 . S
C343 C345 1.390 . S
C343 H353 0.931 . S
C344 C340 1.390 . S
C344 C341 1.392 . S
C344 H354 0.930 . S
C345 C342 1.372 . S
C345 C343 1.390 . S
C345 H355 0.929 . S
C346 O326 1.255 . S
C346 O327 1.257 . S
C347 Eu283 2.787 1_554 S
C347 O322 1.252 . S
C347 O325 1.268 1_554 S
C347 C340 1.506 . S
H348 C331 0.931 . S
H349 C332 0.931 . S
H350 C333 0.929 . S
H351 C334 0.930 . S
H352 C342 0.931 . S
H353 C343 0.931 . S
H354 C344 0.930 . S
H355 C345 0.929 . S
Eu356 N385 2.600 . S
Eu356 N391 2.562 . S
Eu356 O400 2.462 . S
Eu356 O401 2.373 1_455 S
Eu356 O403 2.432 . S
Eu356 O404 2.291 . S
Eu356 O408 2.335 . S
Eu356 O411 2.372 . S
Eu356 C420 2.787 . S
C357 N358 1.365 1_554 S
C357 C360 1.405 . S
C357 C364 1.448 . S
N358 C357 1.365 1_556 S
N358 C361 1.319 1_455 S
N358 Eu367 2.600 1_455 S
C359 C361 1.398 1_455 S
C359 C362 1.367 1_556 S
C359 H379 0.931 . S
C360 C357 1.405 . S
C360 C362 1.403 . S
C360 C366 1.439 . S
C361 N358 1.319 1_655 S
C361 C359 1.398 1_655 S
C361 H372 0.928 . S
C362 C359 1.367 1_554 S
C362 C360 1.403 . S
C362 H383 0.929 . S
C363 C364 1.430 . S
C363 C365 1.387 . S
C363 C369 1.404 . S
C364 C357 1.448 . S
C364 C363 1.430 . S
C364 N368 1.351 . S
C365 C363 1.387 . S
C365 C366 1.374 . S
C365 H380 0.931 . S
C366 C360 1.439 . S
C366 C365 1.374 . S
C366 H381 0.931 . S
Eu367 N358 2.600 1_655 S
Eu367 N368 2.562 1_656 S
Eu367 O402 2.335 . S
Eu367 O405 2.372 . S
Eu367 O406 2.462 1_556 S
Eu367 O407 2.373 1_655 S
Eu367 O409 2.432 . S
Eu367 O410 2.291 1_655 S
Eu367 C431 2.787 1_556 S
N368 C364 1.351 . S
N368 Eu367 2.562 1_454 S
N368 C370 1.325 . S
C369 C363 1.404 . S
C369 C371 1.366 . S
C369 H377 0.930 . S
C370 N368 1.325 . S
C370 C371 1.416 . S
C370 H376 0.929 . S
C371 C369 1.366 . S
C371 C370 1.416 . S
C371 H373 0.930 . S
H372 C361 0.928 . S
H373 C371 0.930 . S
H374 C389 0.930 . S
H375 C396 0.930 . S
H376 C370 0.929 . S
H377 C369 0.930 . S
H378 C392 0.929 1_455 S
H379 C359 0.931 . S
H380 C365 0.931 . S
H381 C366 0.931 . S
H382 C387 0.933 . S
H383 C362 0.929 . S
H384 C395 0.930 . S
N385 Eu356 2.600 . S
N385 C386 1.365 1_455 S
N385 C389 1.319 . S
C386 N385 1.365 1_655 S
C386 C388 1.405 . S
C386 C394 1.448 . S
C387 H382 0.933 . S
C387 C389 1.403 . S
C387 C390 1.359 1_455 S
C388 C386 1.405 . S
C388 C390 1.403 . S
C388 C421 1.439 . S
C389 H374 0.930 . S
C389 N385 1.319 . S
C389 C387 1.403 . S
C390 C387 1.359 1_655 S
C390 C388 1.403 . S
C390 H397 0.929 . S
N391 Eu356 2.562 . S
N391 C392 1.325 1_455 S
N391 C394 1.351 1_455 S
C392 H378 0.929 1_655 S
C392 N391 1.325 1_655 S
C392 C396 1.416 . S
C393 C394 1.430 . S
C393 C395 1.404 . S
C393 C422 1.387 . S
C394 C386 1.448 . S
C394 N391 1.351 1_655 S
C394 C393 1.430 . S
C395 H384 0.930 . S
C395 C393 1.404 . S
C395 C396 1.366 . S
C396 H375 0.930 . S
C396 C392 1.416 . S
C396 C395 1.366 . S
H397 C390 0.929 . S
H398 C421 0.931 . S
H399 C422 0.931 . S
O400 Eu356 2.462 . S
O400 C420 1.252 . S
O401 Eu356 2.373 1_655 S
O401 C412 1.249 . S
O402 Eu367 2.335 . S
O402 C412 1.264 . S
O403 Eu356 2.432 . S
O403 C420 1.268 . S
O404 Eu356 2.291 . S
O404 C419 1.255 . S
O405 Eu367 2.372 . S
O405 C419 1.257 1_655 S
O406 Eu367 2.462 1_554 S
O406 C431 1.252 . S
O407 Eu367 2.373 1_455 S
O407 C423 1.249 . S
O408 Eu356 2.335 . S
O408 C423 1.264 . S
O409 Eu367 2.432 . S
O409 C431 1.268 1_556 S
O410 Eu367 2.291 1_455 S
O410 C430 1.255 . S
O411 Eu356 2.372 . S
O411 C430 1.257 . S
C412 O401 1.249 . S
C412 O402 1.264 . S
C413 C416 1.382 . S
C413 C418 1.390 . S
C413 C420 1.506 . S
C414 C415 1.398 . S
C414 C418 1.392 . S
C415 C414 1.398 . S
C415 C417 1.372 . S
C415 H432 0.931 . S
C416 C413 1.382 . S
C416 C417 1.390 . S
C416 H433 0.931 . S
C417 C415 1.372 . S
C417 C416 1.390 . S
C417 H434 0.929 . S
C418 C413 1.390 . S
C418 C414 1.392 . S
C418 H435 0.930 . S
C419 O404 1.255 . S
C419 O405 1.257 1_455 S
C420 Eu356 2.787 . S
C420 O400 1.252 . S
C420 O403 1.268 . S
C420 C413 1.506 . S
C421 C388 1.439 . S
C421 H398 0.931 . S
C421 C422 1.374 . S
C422 C393 1.387 . S
C422 H399 0.931 . S
C422 C421 1.374 . S
C423 O407 1.249 . S
C423 O408 1.264 . S
C424 C427 1.382 . S
C424 C428 1.390 . S
C424 C431 1.506 . S
C425 C426 1.398 . S
C425 C428 1.392 . S
C426 C425 1.398 . S
C426 C429 1.372 . S
C426 H436 0.931 . S
C427 C424 1.382 . S
C427 C429 1.390 . S
C427 H437 0.931 . S
C428 C424 1.390 . S
C428 C425 1.392 . S
C428 H438 0.930 . S
C429 C426 1.372 . S
C429 C427 1.390 . S
C429 H439 0.929 . S
C430 O410 1.255 . S
C430 O411 1.257 . S
C431 Eu367 2.787 1_554 S
C431 O406 1.252 . S
C431 O409 1.268 1_554 S
C431 C424 1.506 . S
H432 C415 0.931 . S
H433 C416 0.931 . S
H434 C417 0.929 . S
H435 C418 0.930 . S
H436 C426 0.931 . S
H437 C427 0.931 . S
H438 C428 0.930 . S
H439 C429 0.929 . S
C440 C441 1.387 1_565 S
C440 H444 0.950 . S
C440 C449 1.390 . S
C441 C440 1.387 1_545 S
C441 C443 1.387 . S
H442 C449 0.950 . S
C443 C441 1.387 . S
C443 C445 1.390 . S
C443 H447 0.950 . S
H444 C440 0.950 . S
C445 C443 1.390 . S
C445 C446 1.387 . S
C445 H448 0.950 . S
C446 C445 1.387 . S
C446 C449 1.387 1_545 S
H447 C443 0.950 . S
H448 C445 0.950 . S
C449 C440 1.390 . S
C449 H442 0.950 . S
C449 C446 1.387 1_565 S
C450 C451 1.387 . S
C450 H454 0.950 . S
C450 C459 1.390 . S
C451 C450 1.387 . S
C451 C453 1.387 . S
H452 C459 0.950 . S
C453 C451 1.387 . S
C453 C455 1.390 . S
C453 H457 0.950 . S
H454 C450 0.950 . S
C455 C453 1.390 . S
C455 C456 1.387 . S
C455 H458 0.950 . S
C456 C455 1.387 . S
C456 C459 1.387 . S
H457 C453 0.950 . S
H458 C455 0.950 . S
C459 C450 1.390 . S
C459 H452 0.950 . S
C459 C456 1.387 . S
C460 C461 1.387 . S
C460 H464 0.950 . S
C460 C469 1.390 . S
C461 C460 1.387 . S
C461 C463 1.387 . S
H462 C469 0.950 . S
C463 C461 1.387 . S
C463 C465 1.390 . S
C463 H467 0.950 . S
H464 C460 0.950 . S
C465 C463 1.390 . S
C465 C466 1.387 . S
C465 H468 0.950 . S
C466 C465 1.387 . S
C466 C469 1.387 . S
H467 C463 0.950 . S
H468 C465 0.950 . S
C469 C460 1.390 . S
C469 H462 0.950 . S
C469 C466 1.387 . S
C470 C471 1.387 . S
C470 H474 0.950 . S
C470 C479 1.390 . S
C471 C470 1.387 . S
C471 C473 1.387 1_455 S
H472 C479 0.950 . S
C473 C471 1.387 1_655 S
C473 C475 1.390 . S
C473 H477 0.950 . S
H474 C470 0.950 . S
C475 C473 1.390 . S
C475 C476 1.387 1_655 S
C475 H478 0.950 . S
C476 C475 1.387 1_455 S
C476 C479 1.387 . S
H477 C473 0.950 . S
H478 C475 0.950 . S
C479 C470 1.390 . S
C479 H472 0.950 . S
C479 C476 1.387 . S
C480 C481 1.387 1_545 S
C480 H484 0.950 . S
C480 C489 1.390 . S
C481 C480 1.387 1_565 S
C481 C483 1.387 . S
H482 C489 0.950 . S
C483 C481 1.387 . S
C483 C485 1.390 . S
C483 H487 0.950 . S
H484 C480 0.950 . S
C485 C483 1.390 . S
C485 C486 1.387 . S
C485 H488 0.950 . S
C486 C485 1.387 . S
C486 C489 1.387 1_565 S
H487 C483 0.950 . S
H488 C485 0.950 . S
C489 C480 1.390 . S
C489 H482 0.950 . S
C489 C486 1.387 1_545 S
C490 C491 1.387 . S
C490 H494 0.950 . S
C490 C499 1.390 . S
C491 C490 1.387 . S
C491 C493 1.387 . S
H492 C499 0.950 . S
C493 C491 1.387 . S
C493 C495 1.390 . S
C493 H497 0.950 . S
H494 C490 0.950 . S
C495 C493 1.390 . S
C495 C496 1.387 . S
C495 H498 0.950 . S
C496 C495 1.387 . S
C496 C499 1.387 . S
H497 C493 0.950 . S
H498 C495 0.950 . S
C499 C490 1.390 . S
C499 H492 0.950 . S
C499 C496 1.387 . S
C500 C501 1.387 . S
C500 H504 0.950 . S
C500 C509 1.390 . S
C501 C500 1.387 . S
C501 C503 1.387 . S
H502 C509 0.950 . S
C503 C501 1.387 . S
C503 C505 1.390 . S
C503 H507 0.950 . S
H504 C500 0.950 . S
C505 C503 1.390 . S
C505 C506 1.387 . S
C505 H508 0.950 . S
C506 C505 1.387 . S
C506 C509 1.387 . S
H507 C503 0.950 . S
H508 C505 0.950 . S
C509 C500 1.390 . S
C509 H502 0.950 . S
C509 C506 1.387 . S
C510 C511 1.387 . S
C510 H514 0.950 . S
C510 C519 1.390 . S
C511 C510 1.387 . S
C511 C513 1.387 1_655 S
H512 C519 0.950 . S
C513 C511 1.387 1_455 S
C513 C515 1.390 . S
C513 H517 0.950 . S
H514 C510 0.950 . S
C515 C513 1.390 . S
C515 C516 1.387 1_455 S
C515 H518 0.950 . S
C516 C515 1.387 1_655 S
C516 C519 1.387 . S
H517 C513 0.950 . S
H518 C515 0.950 . S
C519 C510 1.390 . S
C519 H512 0.950 . S
C519 C516 1.387 . S
C520 C521 1.387 . S
C520 H524 0.950 . S
C520 C529 1.390 1_455 S
C521 C520 1.387 . S
C521 C523 1.387 . S
H522 C529 0.950 . S
C523 C521 1.387 . S
C523 C525 1.390 . S
C523 H527 0.950 1_554 S
H524 C520 0.950 . S
C525 C523 1.390 . S
C525 C526 1.387 1_455 S
C525 H528 0.950 1_455 S
C526 C525 1.387 1_655 S
C526 C529 1.387 . S
H527 C523 0.950 1_556 S
H528 C525 0.950 1_655 S
C529 C520 1.390 1_655 S
C529 H522 0.950 . S
C529 C526 1.387 . S
C530 C531 1.387 . S
C530 H534 0.950 1_554 S
C530 C539 1.390 . S
C531 C530 1.387 . S
C531 C533 1.387 . S
H532 C539 0.950 . S
C533 C531 1.387 . S
C533 C535 1.390 1_545 S
C533 H537 0.950 . S
H534 C530 0.950 1_556 S
C535 C533 1.390 1_565 S
C535 C536 1.387 . S
C535 H538 0.950 . S
C536 C535 1.387 . S
C536 C539 1.387 1_565 S
H537 C533 0.950 . S
H538 C535 0.950 . S
C539 C530 1.390 . S
C539 H532 0.950 . S
C539 C536 1.387 1_545 S
C540 C541 1.387 . S
C540 H544 0.950 . S
C540 C549 1.390 . S
C541 C540 1.387 . S
C541 C543 1.387 . S
H542 C549 0.950 . S
C543 C541 1.387 . S
C543 C545 1.390 . S
C543 H547 0.950 . S
H544 C540 0.950 . S
C545 C543 1.390 . S
C545 C546 1.387 . S
C545 H548 0.950 . S
C546 C545 1.387 . S
C546 C549 1.387 . S
H547 C543 0.950 . S
H548 C545 0.950 . S
C549 C540 1.390 . S
C549 H542 0.950 . S
C549 C546 1.387 . S
C550 C551 1.387 . S
C550 H554 0.950 . S
C550 C559 1.390 . S
C551 C550 1.387 . S
C551 C553 1.387 . S
H552 C559 0.950 . S
C553 C551 1.387 . S
C553 C555 1.390 . S
C553 H557 0.950 1_554 S
H554 C550 0.950 . S
C555 C553 1.390 . S
C555 C556 1.387 . S
C555 H558 0.950 . S
C556 C555 1.387 . S
C556 C559 1.387 . S
H557 C553 0.950 1_556 S
H558 C555 0.950 . S
C559 C550 1.390 . S
C559 H552 0.950 . S
C559 C556 1.387 . S
C560 C561 1.387 . S
C560 H564 0.950 . S
C560 C569 1.390 1_655 S
C561 C560 1.387 . S
C561 C563 1.387 1_655 S
H562 C569 0.950 . S
C563 C561 1.387 1_455 S
C563 C565 1.390 . S
C563 H567 0.950 . S
H564 C560 0.950 . S
C565 C563 1.390 . S
C565 C566 1.387 . S
C565 H568 0.950 . S
C566 C565 1.387 . S
C566 C569 1.387 . S
H567 C563 0.950 . S
H568 C565 0.950 . S
C569 C560 1.390 1_455 S
C569 H562 0.950 . S
C569 C566 1.387 . S
C570 C571 1.387 . S
C570 H574 0.950 . S
C570 C579 1.390 1_565 S
C571 C570 1.387 . S
C571 C573 1.387 1_565 S
H572 C579 0.950 . S
C573 C571 1.387 1_545 S
C573 C575 1.390 . S
C573 H577 0.954 . S
H574 C570 0.950 . S
C575 C573 1.390 . S
C575 C576 1.387 . S
C575 H578 0.950 . S
C576 C575 1.387 . S
C576 C579 1.387 . S
H577 C573 0.954 . S
H578 C575 0.950 . S
C579 C570 1.390 1_545 S
C579 H572 0.950 . S
C579 C576 1.387 . S
C580 C581 1.387 . S
C580 H584 0.950 . S
C580 C589 1.390 . S
C581 C580 1.387 . S
C581 C583 1.387 . S
H582 C589 0.950 . S
C583 C581 1.387 . S
C583 C585 1.390 . S
C583 H587 0.950 . S
H584 C580 0.950 . S
C585 C583 1.390 . S
C585 C586 1.387 . S
C585 H588 0.950 . S
C586 C585 1.387 . S
C586 C589 1.387 . S
H587 C583 0.950 . S
H588 C585 0.950 . S
C589 C580 1.390 . S
C589 H582 0.950 . S
C589 C586 1.387 . S
C590 C591 1.387 . S
C590 H594 0.950 . S
C590 C599 1.390 . S
C591 C590 1.387 . S
C591 C593 1.387 . S
H592 C599 0.950 . S
C593 C591 1.387 . S
C593 C595 1.390 . S
C593 H597 0.950 . S
H594 C590 0.950 . S
C595 C593 1.390 . S
C595 C596 1.387 . S
C595 H598 0.950 . S
C596 C595 1.387 . S
C596 C599 1.387 . S
H597 C593 0.950 . S
H598 C595 0.950 . S
C599 C590 1.390 . S
C599 H592 0.950 . S
C599 C596 1.387 . S
C600 C601 1.387 . S
C600 H604 0.950 . S
C600 C609 1.390 . S
C601 C600 1.387 . S
C601 C603 1.387 1_455 S
H602 C609 0.950 . S
C603 C601 1.387 1_655 S
C603 C605 1.390 . S
C603 H607 0.950 . S
H604 C600 0.950 . S
C605 C603 1.390 . S
C605 C606 1.387 1_655 S
C605 H608 0.950 . S
C606 C605 1.387 1_455 S
C606 C609 1.387 . S
H607 C603 0.950 . S
H608 C605 0.950 . S
C609 C600 1.390 . S
C609 H602 0.950 . S
C609 C606 1.387 . S
C610 C611 1.387 1_565 S
C610 H614 0.950 . S
C610 C619 1.390 . S
C611 C610 1.387 1_545 S
C611 C613 1.387 . S
H612 C619 0.950 . S
C613 C611 1.387 . S
C613 C615 1.390 . S
C613 H617 0.950 . S
H614 C610 0.950 . S
C615 C613 1.390 . S
C615 C616 1.387 . S
C615 H618 0.950 . S
C616 C615 1.387 . S
C616 C619 1.387 1_545 S
H617 C613 0.950 . S
H618 C615 0.950 . S
C619 C610 1.390 . S
C619 H612 0.950 . S
C619 C616 1.387 1_565 S
C620 C621 1.387 . S
C620 H624 0.950 . S
C620 C629 1.390 . S
C621 C620 1.387 . S
C621 C623 1.387 . S
H622 C629 0.950 . S
C623 C621 1.387 . S
C623 C625 1.390 . S
C623 H627 0.950 . S
H624 C620 0.950 . S
C625 C623 1.390 . S
C625 C626 1.387 . S
C625 H628 0.950 . S
C626 C625 1.387 . S
C626 C629 1.387 . S
H627 C623 0.950 . S
H628 C625 0.950 . S
C629 C620 1.390 . S
C629 H622 0.950 . S
C629 C626 1.387 . S
C630 C631 1.387 . S
C630 H634 0.950 . S
C630 C639 1.390 . S
C631 C630 1.387 . S
C631 C633 1.387 . S
H632 C639 0.950 . S
C633 C631 1.387 . S
C633 C635 1.390 . S
C633 H637 0.950 . S
H634 C630 0.950 . S
C635 C633 1.390 . S
C635 C636 1.387 . S
C635 H638 0.950 . S
C636 C635 1.387 . S
C636 C639 1.387 . S
H637 C633 0.950 . S
H638 C635 0.950 . S
C639 C630 1.390 . S
C639 H632 0.950 . S
C639 C636 1.387 . S
C640 C641 1.387 1_455 S
C640 H644 0.950 . S
C640 C649 1.390 . S
C641 C640 1.387 1_655 S
C641 C643 1.387 . S
H642 C649 0.950 . S
C643 C641 1.387 . S
C643 C645 1.390 . S
C643 H647 0.950 . S
H644 C640 0.950 . S
C645 C643 1.390 . S
C645 C646 1.387 . S
C645 H648 0.950 . S
C646 C645 1.387 . S
C646 C649 1.387 1_655 S
H647 C643 0.950 . S
H648 C645 0.950 . S
C649 C640 1.390 . S
C649 H642 0.950 . S
C649 C646 1.387 1_455 S
C650 C651 1.387 1_545 S
C650 H654 0.950 . S
C650 C659 1.390 . S
C651 C650 1.387 1_565 S
C651 C653 1.387 . S
H652 C659 0.950 . S
C653 C651 1.387 . S
C653 C655 1.390 . S
C653 H657 0.950 . S
H654 C650 0.950 . S
C655 C653 1.390 . S
C655 C656 1.387 . S
C655 H658 0.950 . S
C656 C655 1.387 . S
C656 C659 1.387 1_565 S
H657 C653 0.950 . S
H658 C655 0.950 . S
C659 C650 1.390 . S
C659 H652 0.950 . S
C659 C656 1.387 1_545 S
C660 C661 1.387 . S
C660 H664 0.950 . S
C660 C669 1.390 . S
C661 C660 1.387 . S
C661 C663 1.387 . S
H662 C669 0.950 . S
C663 C661 1.387 . S
C663 C665 1.390 . S
C663 H667 0.950 . S
H664 C660 0.950 . S
C665 C663 1.390 . S
C665 C666 1.387 . S
C665 H668 0.950 . S
C666 C665 1.387 . S
C666 C669 1.387 . S
H667 C663 0.950 . S
H668 C665 0.950 . S
C669 C660 1.390 . S
C669 H662 0.950 . S
C669 C666 1.387 . S
C670 C671 1.387 . S
C670 H674 0.950 . S
C670 C679 1.390 . S
C671 C670 1.387 . S
C671 C673 1.387 . S
H672 C679 0.950 . S
C673 C671 1.387 . S
C673 C675 1.390 . S
C673 H677 0.950 . S
H674 C670 0.950 . S
C675 C673 1.390 . S
C675 C676 1.387 . S
C675 H678 0.950 . S
C676 C675 1.387 . S
C676 C679 1.387 . S
H677 C673 0.950 . S
H678 C675 0.950 . S
C679 C670 1.390 . S
C679 H672 0.950 . S
C679 C676 1.387 . S
C441 N80 2.027 . S
C446 C167 2.158 . S
C456 C244 2.165 . S
C451 N93 2.019 . S
C466 C335 2.156 . S
C461 N54 2.021 . S
C476 C419 2.147 . S
C471 N67 2.015 . S
C486 C178 2.157 1_564 S
C481 N28 2.027 . S
C491 N41 2.023 . S
C496 C255 2.164 1_554 S
C501 N2 2.025 . S
C506 C346 2.156 1_554 S
C511 N15 2.023 . S
C516 C430 2.149 1_654 S
C526 C162 0.739 . S
C521 N70 0.743 . S
C536 C257 0.730 . S
C531 N83 0.728 . S
C546 C330 0.744 . S
C541 N96 0.741 . S
C551 N57 0.730 . S
C556 C414 0.724 . S
C561 N18 0.737 . S
C566 C173 0.742 . S
C576 C246 0.730 . S
C571 N31 0.728 . S
C586 C341 0.742 . S
C581 N44 0.747 . S
C591 N5 0.724 . S
C596 C425 0.729 . S
C601 N66 2.161 . S
C606 C171 2.268 . S
C611 N79 2.169 . S
C616 C262 2.299 . S
C626 C339 2.279 . S
C621 N92 2.170 . S
C636 C423 2.282 . S
C631 N53 2.173 . S
C641 N14 2.161 . S
C646 C160 2.268 . S
C656 C251 2.299 . S
C651 N27 2.173 . S
C666 C328 2.277 . S
C661 N40 2.168 . S
C671 N1 2.174 . S
C676 C412 2.282 . S
