# Generated by pormake.
# Topology anh, (6,3)-cn, num edge types: 1
# Building blocks:
#     Node 0, Type 0, BuildingBlock: CUWYAW_clean_sbu_0, # of connection points: 6
#     Node 1, Type 0, BuildingBlock: CUWYAW_clean_sbu_0, # of connection points: 6
#     Node 2, Type 0, BuildingBlock: CUWYAW_clean_sbu_0, # of connection points: 6
#     Node 3, Type 1, BuildingBlock: MIDCAF_clean_linker_0, # of connection points: 3
#     Node 4, Type 1, BuildingBlock: MIDCAF_clean_linker_0, # of connection points: 3
#     Node 5, Type 1, BuildingBlock: MIDCAF_clean_linker_0, # of connection points: 3
#     Node 6, Type 1, BuildingBlock: MIDCAF_clean_linker_0, # of connection points: 3
#     Node 7, Type 1, BuildingBlock: MIDCAF_clean_linker_0, # of connection points: 3
#     Node 8, Type 1, BuildingBlock: MIDCAF_clean_linker_0, # of connection points: 3
#     Edge 9, Type (0, 1), BuildingBlock: KIFKEQ_clean_linker_1, # of connection points: 2
#     Edge 10, Type (0, 1), BuildingBlock: KIFKEQ_clean_linker_1, # of connection points: 2
#     Edge 11, Type (0, 1), BuildingBlock: KIFKEQ_clean_linker_1, # of connection points: 2
#     Edge 12, Type (0, 1), BuildingBlock: KIFKEQ_clean_linker_1, # of connection points: 2
#     Edge 13, Type (0, 1), BuildingBlock: KIFKEQ_clean_linker_1, # of connection points: 2
#     Edge 14, Type (0, 1), BuildingBlock: KIFKEQ_clean_linker_1, # of connection points: 2
#     Edge 15, Type (0, 1), BuildingBlock: KIFKEQ_clean_linker_1, # of connection points: 2
#     Edge 16, Type (0, 1), BuildingBlock: KIFKEQ_clean_linker_1, # of connection points: 2
#     Edge 17, Type (0, 1), BuildingBlock: KIFKEQ_clean_linker_1, # of connection points: 2
#     Edge 18, Type (0, 1), BuildingBlock: KIFKEQ_clean_linker_1, # of connection points: 2
#     Edge 19, Type (0, 1), BuildingBlock: KIFKEQ_clean_linker_1, # of connection points: 2
#     Edge 20, Type (0, 1), BuildingBlock: KIFKEQ_clean_linker_1, # of connection points: 2
#     Edge 21, Type (0, 1), BuildingBlock: KIFKEQ_clean_linker_1, # of connection points: 2
#     Edge 22, Type (0, 1), BuildingBlock: KIFKEQ_clean_linker_1, # of connection points: 2
#     Edge 23, Type (0, 1), BuildingBlock: KIFKEQ_clean_linker_1, # of connection points: 2
#     Edge 24, Type (0, 1), BuildingBlock: KIFKEQ_clean_linker_1, # of connection points: 2
#     Edge 25, Type (0, 1), BuildingBlock: KIFKEQ_clean_linker_1, # of connection points: 2
#     Edge 26, Type (0, 1), BuildingBlock: KIFKEQ_clean_linker_1, # of connection points: 2
# Relax obj value: 0.241
# Max RMSD: 0.185
# Mean RMSD: 0.156
data_MOF--net-anh--node1-CUWYAW_clean_sbu_0--node2-MIDCAF_clean_linker_0--edge1-KIFKEQ_clean_linker_1
_symmetry_space_group_name_H-M    P1
_symmetry_Int_Tables_number       1
_symmetry_cell_setting            triclinic
loop_
_symmetry_equiv_pos_as_xyz
'x, y, z'
_cell_length_a     37.199327
_cell_length_b     36.938397
_cell_length_c     66.692992
_cell_angle_alpha  89.9067
_cell_angle_beta   90.056634
_cell_angle_gamma 120.07805
loop_
_atom_site_label
_atom_site_type_symbol
_atom_site_fract_x
_atom_site_fract_y
_atom_site_fract_z
_atom_type_partial_charge
C0 C 1.03797 0.44244 0.15992 0.0
Eu1 Eu 0.09422 0.51827 0.16856 0.0
C2 C 0.99273 0.42641 0.16132 0.0
C3 C 0.97392 0.41974 0.18028 0.0
C4 C 0.93632 0.41894 0.18248 0.0
C5 C 0.91636 0.42407 0.16578 0.0
C6 C 0.93254 0.42594 0.14656 0.0
C7 C 0.97059 0.42725 0.14434 0.0
C8 C 0.11355 0.54634 0.20693 0.0
C9 C 1.03912 0.56682 0.16955 0.0
C10 C 0.18807 0.68684 0.18098 0.0
Eu11 Eu 0.13761 0.60928 0.17163 0.0
C12 C 0.2326 0.71644 0.17802 0.0
C13 C 0.24469 0.75478 0.1686 0.0
C14 C 0.28663 0.78359 0.16562 0.0
C15 C 0.31733 0.7747 0.17214 0.0
C16 C 0.30523 0.73593 0.18124 0.0
C17 C 0.26314 0.70686 0.18405 0.0
C18 C 0.1157 0.5802 0.13384 0.0
C19 C 0.19323 0.5611 0.16591 0.0
O20 O 1.05736 0.47102 0.14617 0.0
O21 O 1.05837 0.45235 0.1769 0.0
O22 O 0.11745 0.51603 0.19956 0.0
O23 O 0.09912 0.56048 0.19384 0.0
O24 O 1.04161 0.53373 0.16386 0.0
O25 O 1.07272 0.60006 0.1766 0.0
O26 O 0.17795 0.65574 0.19345 0.0
O27 O 0.16546 0.67553 0.1647 0.0
O28 O 0.11328 0.61166 0.14078 0.0
O29 O 0.1313 0.56721 0.14672 0.0
O30 O 0.19252 0.59567 0.17101 0.0
O31 O 0.15786 0.52615 0.16221 0.0
H32 H 0.98967 0.41836 0.19368 0.0
H33 H 0.9237 0.41612 0.19741 0.0
H34 H 0.91735 0.42941 0.13343 0.0
H35 H 0.98417 0.43224 0.12951 0.0
H36 H 0.22164 0.76268 0.16377 0.0
H37 H 0.29505 0.81356 0.15893 0.0
H38 H 0.32833 0.72838 0.1864 0.0
H39 H 0.25462 0.67721 0.19112 0.0
C40 C 0.54778 0.15613 0.49158 0.0
Eu41 Eu 0.57414 0.10697 0.50416 0.0
C42 C 0.57064 0.19805 0.48241 0.0
C43 C 0.56939 0.23146 0.49157 0.0
C44 C 0.59755 0.27256 0.48597 0.0
C45 C 0.6274 0.28107 0.47094 0.0
C46 C 0.62618 0.24731 0.46062 0.0
C47 C 0.59827 0.20619 0.46638 0.0
C48 C 0.58176 0.08842 0.54278 0.0
C49 C 0.67742 0.1641 0.50498 0.0
C50 C 0.65304 1.01731 0.51886 0.0
Eu51 Eu 0.6234 0.06496 0.50849 0.0
C52 C 0.64152 0.97362 0.5151 0.0
C53 C 0.67135 0.96524 0.50705 0.0
C54 C 0.66116 0.92429 0.50276 0.0
C55 C 0.62094 0.89087 0.50655 0.0
C56 C 0.5909 0.89925 0.51449 0.0
C57 C 0.60104 0.94038 0.51865 0.0
C58 C 0.61446 0.08383 0.47037 0.0
C59 C 0.51983 1.00617 0.50348 0.0
O60 O 0.54511 0.12518 0.48093 0.0
O61 O 0.55672 0.15412 0.51038 0.0
O62 O 0.54793 0.08477 0.53516 0.0
O63 O 0.61062 0.10292 0.52989 0.0
O64 O 0.6419 0.16045 0.49849 0.0
O65 O 0.67729 0.1312 0.51293 0.0
O66 O 0.62844 1.02396 0.53042 0.0
O67 O 0.66591 1.04176 0.50315 0.0
O68 O 0.64885 0.08755 0.47706 0.0
O69 O 0.58687 0.06879 0.48359 0.0
O70 O 0.55587 1.00801 0.50752 0.0
O71 O 0.51879 1.04114 0.5006 0.0
H72 H 0.54847 0.22591 0.50399 0.0
H73 H 0.59777 0.29757 0.4945 0.0
H74 H 0.64818 0.25264 0.44876 0.0
H75 H 0.59996 0.181 0.45897 0.0
H76 H 0.70267 0.99046 0.50415 0.0
H77 H 0.68518 0.91868 0.49703 0.0
H78 H 0.5597 0.87401 0.51757 0.0
H79 H 0.57731 0.94608 0.52467 0.0
C80 C 0.77682 0.65297 0.825 0.0
Eu81 Eu 0.70193 0.62766 0.8378 0.0
C82 C 0.79488 0.62982 0.81543 0.0
C83 C 0.83003 0.63145 0.82398 0.0
C84 C 0.84202 0.60271 0.81827 0.0
C85 C 0.8192 0.5719 0.80375 0.0
C86 C 0.78629 0.57295 0.79389 0.0
C87 C 0.77399 0.60138 0.79979 0.0
C88 C 0.6779 0.62221 0.87664 0.0
C89 C 0.65338 0.52415 0.83951 0.0
C90 C 0.53448 0.5505 0.8554 0.0
Eu91 Eu 0.61043 0.57988 0.84328 0.0
C92 C 0.50002 0.55882 0.85267 0.0
C93 C 0.46313 0.52781 0.84389 0.0
C94 C 0.42884 0.53328 0.84226 0.0
C95 C 0.43063 0.5698 0.84957 0.0
C96 C 0.468 0.60152 0.8578 0.0
C97 C 0.50256 0.59618 0.85928 0.0
C98 C 0.63546 0.58556 0.80482 0.0
C99 C 0.65728 0.68361 0.83727 0.0
O100 O 0.74915 0.65686 0.81459 0.0
O101 O 0.76571 0.64302 0.84372 0.0
O102 O 0.70883 0.65525 0.86869 0.0
O103 O 0.66191 0.59274 0.86401 0.0
O104 O 0.68516 0.55902 0.8322 0.0
O105 O 0.62216 0.52568 0.84814 0.0
O106 O 0.56686 0.5776 0.86572 0.0
O107 O 0.54443 0.53627 0.83969 0.0
O108 O 0.6036 0.55249 0.81207 0.0
O109 O 0.65026 0.61429 0.81764 0.0
O110 O 0.62257 0.64792 0.8415 0.0
O111 O 0.69266 0.68384 0.83432 0.0
H112 H 0.84648 0.65301 0.83609 0.0
H113 H 0.86718 0.60274 0.82645 0.0
H114 H 0.76849 0.55026 0.7824 0.0
H115 H 0.74667 0.59936 0.7929 0.0
H116 H 0.46043 0.49871 0.83876 0.0
H117 H 0.40024 0.50793 0.8362 0.0
H118 H 0.47015 0.62997 0.86353 0.0
H119 H 0.53079 0.6208 0.86599 0.0
C120 C 0.52309 1.04844 0.22624 0.0
C121 C 0.52385 1.05018 0.2052 0.0
C122 C 0.53368 0.08798 0.19567 0.0
C123 C 0.54186 0.12312 0.20698 0.0
H124 H 0.58472 0.24687 0.20217 0.0
H125 H 0.63339 0.3122 0.1866 0.0
H126 H 0.65502 0.37516 0.2437 0.0
H127 H 0.60729 0.30871 0.25962 0.0
H128 H 0.61722 0.24398 0.29768 0.0
H129 H 0.62554 0.23056 0.33273 0.0
H130 H 0.50762 0.11492 0.33038 0.0
H131 H 0.50107 0.12729 0.29509 0.0
H132 H 0.52971 0.08065 0.25371 0.0
H133 H 0.51479 1.01952 0.23404 0.0
H134 H 0.53453 0.09022 0.17947 0.0
H135 H 0.5491 0.15173 0.19916 0.0
N136 N 0.56247 0.19585 0.23127 0.0
N137 N 0.57216 0.22781 0.26274 0.0
N138 N 0.54636 0.15552 0.26043 0.0
C139 C 0.57383 0.23078 0.24238 0.0
C140 C 0.55776 0.19003 0.27179 0.0
C141 C 0.54884 0.15816 0.24017 0.0
C142 C 0.59353 0.27214 0.23234 0.0
C143 C 0.59907 0.2747 0.21144 0.0
C144 C 0.62675 0.31261 0.20237 0.0
C145 C 0.6493 0.34895 0.21398 0.0
C146 C 0.63918 0.34748 0.23442 0.0
C147 C 0.61175 0.30933 0.24356 0.0
C148 C 0.55872 0.18645 0.29373 0.0
C149 C 0.59284 0.21612 0.30485 0.0
C150 C 0.5975 0.20838 0.32496 0.0
C151 C 0.56767 0.17117 0.33438 0.0
C152 C 0.53198 0.14318 0.3235 0.0
C153 C 0.52789 0.15043 0.30334 0.0
C154 C 0.54012 0.12107 0.22805 0.0
C155 C 0.53106 0.08341 0.23754 0.0
C156 C 0.80786 0.51825 0.55003 0.0
C157 C 0.82283 0.53512 0.53084 0.0
C158 C 0.83887 0.57817 0.52781 0.0
C159 C 0.83353 0.60205 0.54242 0.0
H160 H 0.75198 0.64322 0.52789 0.0
H161 H 0.71325 0.66714 0.50761 0.0
H162 H 0.64767 0.66987 0.56048 0.0
H163 H 0.68567 0.6456 0.58069 0.0
H164 H 0.7065 0.62667 0.62056 0.0
H165 H 0.69398 0.62303 0.65614 0.0
H166 H 0.78307 0.58237 0.66593 0.0
H167 H 0.79558 0.58538 0.62966 0.0
H168 H 0.78692 0.52726 0.57851 0.0
H169 H 0.79527 0.48522 0.55296 0.0
H170 H 0.8516 0.59236 0.5134 0.0
H171 H 0.84181 0.63393 0.53883 0.0
N172 N 0.77152 0.61731 0.55987 0.0
N173 N 0.74059 0.62543 0.58857 0.0
N174 N 0.78486 0.59749 0.59131 0.0
C175 C 0.74598 0.62896 0.56846 0.0
C176 C 0.75996 0.61013 0.60017 0.0
C177 C 0.79113 0.60174 0.5711 0.0
C178 C 0.72229 0.64291 0.55598 0.0
C179 C 0.72911 0.64865 0.53518 0.0
C180 C 0.70688 0.66223 0.52353 0.0
C181 C 0.67726 0.67008 0.53243 0.0
C182 C 0.66972 0.66331 0.55311 0.0
C183 C 0.692 0.64995 0.56475 0.0
C184 C 0.75241 0.60664 0.62212 0.0
C185 C 0.72372 0.61699 0.63012 0.0
C186 C 0.71661 0.61516 0.65064 0.0
C187 C 0.73802 0.6031 0.66389 0.0
C188 C 0.76614 0.59182 0.65604 0.0
C189 C 0.77337 0.59367 0.6353 0.0
C190 C 0.81277 0.58341 0.56039 0.0
C191 C 0.80304 0.54236 0.56477 0.0
C192 C 0.86396 0.38204 0.8865 0.0
C193 C 0.86679 0.36948 0.86689 0.0
C194 C 0.89045 0.35002 0.86368 0.0
C195 C 0.91486 0.3481 0.87907 0.0
H196 H 1.04124 0.40267 0.87521 0.0
H197 H 0.10888 0.44216 0.85908 0.0
H198 H 0.16619 0.48924 0.91674 0.0
H199 H 0.09876 0.45027 0.93295 0.0
H200 H 1.02783 0.38388 0.97241 0.0
H201 H 1.03558 0.40627 0.00723 0.0
H202 H 0.94188 0.44125 0.99873 0.0
H203 H 0.93372 0.4182 0.96367 0.0
H204 H 0.88809 0.39299 0.91643 0.0
H205 H 0.84622 0.39735 0.88956 0.0
H206 H 0.89246 0.33904 0.8489 0.0
H207 H 0.93545 0.33608 0.87572 0.0
N208 N 0.98847 0.38811 0.90342 0.0
N209 N 1.01937 0.40571 0.93504 0.0
N210 N 0.94752 0.37918 0.93182 0.0
C211 C 1.023 0.40354 0.91493 0.0
C212 C 0.98187 0.39326 0.94362 0.0
C213 C 0.9507 0.37557 0.91166 0.0
C214 C 1.06447 0.42334 0.9054 0.0
C215 C 1.06826 0.42117 0.88451 0.0
C216 C 0.10697 0.44381 0.87523 0.0
C217 C 0.14262 0.46921 0.88663 0.0
C218 C 0.13905 0.47058 0.90754 0.0
C219 C 0.10043 0.4478 0.91684 0.0
C220 C 0.98029 0.39946 0.96537 0.0
C221 C 1.00817 0.39543 0.9781 0.0
C222 C 1.01247 0.40806 0.99806 0.0
C223 C 0.98944 0.42564 0.00565 0.0
C224 C 0.9601 0.42793 0.99319 0.0
C225 C 0.95522 0.41449 0.97323 0.0
C226 C 0.91562 0.36506 0.89801 0.0
C227 C 0.88804 0.37962 0.90198 0.0
C228 C 0.2509 0.69739 0.46162 0.0
C229 C 0.25006 0.72172 0.4777 0.0
C230 C 0.2112 0.70656 0.48752 0.0
C231 C 0.17486 0.6693 0.48117 0.0
H232 H 1.04986 0.51654 0.49327 0.0
H233 H 0.98514 0.45451 0.50487 0.0
H234 H 0.93543 0.43707 0.44492 0.0
H235 H 0.99736 0.49814 0.43389 0.0
H236 H 1.04457 0.53011 0.3969 0.0
H237 H 1.04772 0.52908 0.36043 0.0
H238 H 0.17554 0.62877 0.36212 0.0
H239 H 0.17267 0.62963 0.39866 0.0
H240 H 0.21768 0.64432 0.44247 0.0
H241 H 0.27921 0.70737 0.45322 0.0
H242 H 0.20865 0.72366 0.50007 0.0
H243 H 0.14565 0.65978 0.48868 0.0
N244 N 0.10266 0.58025 0.46447 0.0
N245 N 1.07276 0.55042 0.4332 0.0
N246 N 0.13853 0.60988 0.43415 0.0
C247 C 1.06978 0.54937 0.45357 0.0
C248 C 0.10653 0.58014 0.42333 0.0
C249 C 0.13753 0.61092 0.45455 0.0
C250 C 1.02987 0.5134 0.46251 0.0
C251 C 1.02482 0.49981 0.48267 0.0
C252 C 0.98752 0.46366 0.48929 0.0
C253 C 0.95378 0.4399 0.47602 0.0
C254 C 0.95924 0.45408 0.45603 0.0
C255 C 0.99585 0.48967 0.44954 0.0
C256 C 0.10839 0.57992 0.40091 0.0
C257 C 1.07343 0.5519 0.38957 0.0
C258 C 1.07512 0.55148 0.36856 0.0
C259 C 0.11187 0.57886 0.35822 0.0
C260 C 0.14682 0.60691 0.36953 0.0
C261 C 0.14507 0.60755 0.39055 0.0
C262 C 0.17597 0.64603 0.46465 0.0
C263 C 0.21497 0.66074 0.4553 0.0
C264 C 0.61099 0.21468 0.79844 0.0
C265 C 0.63828 0.23982 0.81373 0.0
C266 C 0.66351 0.22537 0.82261 0.0
C267 C 0.66195 0.18787 0.81613 0.0
H268 H 0.62411 1.02867 0.82706 0.0
H269 H 0.62742 0.9665 0.83808 0.0
H270 H 0.6782 0.9625 0.78053 0.0
H271 H 0.67615 1.02383 0.77006 0.0
H272 H 0.63426 1.03893 0.73222 0.0
H273 H 0.62622 1.03684 0.69591 0.0
H274 H 0.61858 0.14964 0.69814 0.0
H275 H 0.62563 0.15125 0.73446 0.0
H276 H 0.58895 0.16069 0.77969 0.0
H277 H 0.59139 0.22419 0.79079 0.0
H278 H 0.68483 0.24321 0.83453 0.0
H279 H 0.68277 0.17881 0.82286 0.0
N280 N 0.64313 0.09819 0.79975 0.0
N281 N 0.64019 0.06697 0.76845 0.0
N282 N 0.63362 0.12646 0.76972 0.0
C283 C 0.64427 0.06698 0.78876 0.0
C284 C 0.63491 0.09625 0.75878 0.0
C285 C 0.63773 0.12833 0.79004 0.0
C286 C 0.64992 1.03207 0.79759 0.0
C287 C 0.63673 1.01495 0.81695 0.0
C288 C 0.63818 0.97873 0.82317 0.0
C289 C 0.65327 0.95864 0.81034 0.0
C290 C 0.66709 0.97662 0.79123 0.0
C291 C 0.66553 1.01223 0.78508 0.0
C292 C 0.63051 0.09521 0.73646 0.0
C293 C 0.63086 0.06335 0.72502 0.0
C294 C 0.62651 0.06228 0.70409 0.0
C295 C 0.62168 0.09304 0.69394 0.0
C296 C 0.62156 0.12501 0.70537 0.0
C297 C 0.62588 0.12607 0.72629 0.0
C298 C 0.63543 0.16377 0.80036 0.0
C299 C 0.60971 0.17782 0.79194 0.0
C300 C 0.73362 0.53606 0.13082 0.0
C301 C 0.75998 0.56251 0.14608 0.0
C302 C 0.74729 0.58866 0.15563 0.0
C303 C 0.71058 0.58897 0.14973 0.0
H304 H 0.56731 0.58744 0.16024 0.0
H305 H 0.50237 0.58545 0.17033 0.0
H306 H 0.45134 0.53966 0.11157 0.0
H307 H 0.51397 0.54036 0.102 0.0
H308 H 0.56359 0.54851 0.06437 0.0
H309 H 0.57034 0.55515 0.0278 0.0
H310 H 0.70375 0.62034 0.03343 0.0
H311 H 0.6972 0.61269 0.06997 0.0
H312 H 0.67961 0.51686 0.11252 0.0
H313 H 0.74169 0.51586 0.12264 0.0
H314 H 0.76602 0.60942 0.16755 0.0
H315 H 0.70315 0.61074 0.15685 0.0
N316 N 0.61757 0.56665 0.13321 0.0
N317 N 0.5921 0.57272 0.10167 0.0
N318 N 0.65522 0.57367 0.10346 0.0
C319 C 0.58709 0.5684 0.12193 0.0
C320 C 0.62581 0.57573 0.09234 0.0
C321 C 0.65193 0.569 0.12375 0.0
C322 C 0.54676 0.56403 0.13021 0.0
C323 C 0.54192 0.57625 0.14964 0.0
C324 C 0.50454 0.57555 0.15534 0.0
C325 C 0.47047 0.56215 0.14191 0.0
C326 C 0.47559 0.54942 0.12273 0.0
C327 C 0.51242 0.55025 0.1171 0.0
C328 C 0.62987 0.58008 0.07013 0.0
C329 C 0.59438 0.56423 0.05783 0.0
C330 C 0.59818 0.56782 0.03689 0.0
C331 C 0.63755 0.58829 0.0278 0.0
C332 C 0.67303 0.60454 0.04006 0.0
C333 C 0.66924 0.60001 0.06097 0.0
C334 C 0.6853 0.56331 0.13399 0.0
C335 C 0.6975 0.53662 0.12492 0.0
H336 H 0.20651 0.49506 0.15872 0.0
H337 H 0.27437 0.62843 0.16793 0.0
H338 H 0.27144 0.49503 0.15469 0.0
H339 H 0.33987 0.62888 0.1632 0.0
H340 H 0.45702 0.61527 0.16695 0.0
H341 H 0.39227 0.61524 0.17365 0.0
H342 H 0.32654 0.50845 0.13475 0.0
H343 H 0.39005 0.50713 0.12906 0.0
C344 C 0.23529 0.52463 0.15979 0.0
C345 C 0.23437 0.56173 0.16364 0.0
C346 C 0.27311 0.52474 0.15728 0.0
C347 C 0.31215 0.56203 0.15833 0.0
C348 C 0.3112 0.59919 0.16242 0.0
C349 C 0.27321 0.59902 0.16504 0.0
C350 C 0.42871 0.59133 0.16003 0.0
C351 C 0.42992 0.56143 0.14724 0.0
C352 C 0.39117 0.59162 0.16368 0.0
C353 C 0.35298 0.56191 0.1548 0.0
C354 C 0.35432 0.53177 0.14227 0.0
C355 C 0.39159 0.53142 0.13869 0.0
H356 H 0.75838 0.18026 0.50963 0.0
H357 H 0.69 0.24239 0.49468 0.0
H358 H 0.82383 0.24555 0.50405 0.0
H359 H 0.75534 0.30805 0.49023 0.0
H360 H 0.87382 0.4094 0.46113 0.0
H361 H 0.81088 0.34425 0.4682 0.0
H362 H 0.87492 0.31508 0.51363 0.0
H363 H 0.93967 0.3794 0.50534 0.0
C364 C 0.7571 0.20787 0.50534 0.0
C365 C 0.71816 0.20524 0.50251 0.0
C366 C 0.79504 0.24578 0.50221 0.0
C367 C 0.79581 0.28293 0.49623 0.0
C368 C 0.75675 0.28037 0.49401 0.0
C369 C 0.71888 0.24243 0.49685 0.0
C370 C 0.87526 0.38925 0.4725 0.0
C371 C 0.91322 0.40058 0.48232 0.0
C372 C 0.83821 0.35172 0.47694 0.0
C373 C 0.83652 0.32365 0.49179 0.0
C374 C 0.87421 0.33512 0.50197 0.0
C375 C 0.91167 0.37273 0.49735 0.0
H376 H 0.72293 0.76385 0.83171 0.0
H377 H 0.58956 0.69634 0.83732 0.0
H378 H 0.72224 0.82879 0.82708 0.0
H379 H 0.58849 0.76135 0.83194 0.0
H380 H 0.59916 0.89142 0.83475 0.0
H381 H 0.60001 0.827 0.84235 0.0
H382 H 0.70988 0.8701 0.80592 0.0
H383 H 0.71034 0.93475 0.79938 0.0
C384 C 0.69324 0.76264 0.83188 0.0
C385 C 0.65633 0.72412 0.83489 0.0
C386 C 0.69274 0.80031 0.82901 0.0
C387 C 0.65524 0.80139 0.82883 0.0
C388 C 0.61826 0.76279 0.83212 0.0
C389 C 0.61881 0.72504 0.83512 0.0
C390 C 0.62395 0.88757 0.82858 0.0
C391 C 0.65447 0.91913 0.81622 0.0
C392 C 0.62413 0.84994 0.83275 0.0
C393 C 0.65495 0.84217 0.8248 0.0
C394 C 0.68572 0.87411 0.81272 0.0
C395 C 0.68559 0.91156 0.80863 0.0
H396 H 0.97249 0.51614 0.14545 0.0
H397 H 1.01266 0.61779 0.18728 0.0
H398 H 0.90754 0.51567 0.14034 0.0
H399 H 0.94675 0.61664 0.18286 0.0
H400 H 0.83626 0.62895 0.15904 0.0
H401 H 0.90181 0.63055 0.16489 0.0
H402 H 0.84283 0.49931 0.15028 0.0
H403 H 0.77766 0.49762 0.14483 0.0
C404 C 0.96727 0.53809 0.15387 0.0
C405 C 0.99832 0.56667 0.16698 0.0
C406 C 0.92946 0.53786 0.15096 0.0
C407 C 0.92041 0.56591 0.16122 0.0
C408 C 0.95172 0.59464 0.17435 0.0
C409 C 0.98987 0.59518 0.17705 0.0
C410 C 0.83687 0.60013 0.15736 0.0
C411 C 0.80064 0.56324 0.1512 0.0
C412 C 0.87503 0.60102 0.16074 0.0
C413 C 0.87895 0.56506 0.15814 0.0
C414 C 0.84243 0.52811 0.1523 0.0
C415 C 0.80438 0.52716 0.14904 0.0
H416 H 0.50726 0.92567 0.50798 0.0
H417 H 0.44096 0.99002 0.49323 0.0
H418 H 0.44359 0.85853 0.50345 0.0
H419 H 0.3776 0.92314 0.48808 0.0
H420 H 0.25795 0.7959 0.49296 0.0
H421 H 0.32091 0.86211 0.50028 0.0
H422 H 0.39559 0.80874 0.48187 0.0
H423 H 0.33301 0.74235 0.4756 0.0
C424 C 0.47919 0.92573 0.50375 0.0
C425 C 0.48002 0.96407 0.50108 0.0
C426 C 0.44225 0.88677 0.50094 0.0
C427 C 0.4043 0.88421 0.49525 0.0
C428 C 0.40527 0.92274 0.49273 0.0
C429 C 0.44215 0.96164 0.49559 0.0
C430 C 0.28769 0.79785 0.49073 0.0
C431 C 0.28932 0.76278 0.48344 0.0
C432 C 0.32433 0.83651 0.49469 0.0
C433 C 0.3645 0.84206 0.49163 0.0
C434 C 0.366 0.80668 0.48472 0.0
C435 C 0.32947 0.76813 0.48079 0.0
H436 H 0.71408 0.50811 0.82517 0.0
H437 H 0.58922 0.4445 0.84852 0.0
H438 H 0.71048 0.44068 0.82056 0.0
H439 H 0.58578 0.37727 0.84395 0.0
H440 H 0.57519 0.25937 0.81475 0.0
H441 H 0.57928 0.32604 0.82126 0.0
H442 H 0.71014 0.38173 0.83362 0.0
H443 H 0.70657 0.31524 0.82616 0.0
C444 C 0.68583 0.47987 0.82941 0.0
C445 C 0.65193 0.48245 0.83724 0.0
C446 C 0.68383 0.44086 0.82679 0.0
C447 C 0.64778 0.4026 0.83162 0.0
C448 C 0.61402 0.40535 0.83962 0.0
C449 C 0.61611 0.44435 0.84242 0.0
C450 C 0.60515 0.28573 0.81868 0.0
C451 C 0.6406 0.28101 0.81961 0.0
C452 C 0.60739 0.32437 0.82272 0.0
C453 C 0.6452 0.36039 0.82797 0.0
C454 C 0.68051 0.3555 0.82933 0.0
C455 C 0.6783 0.31676 0.82529 0.0
H456 H 0.64024 0.85762 0.47456 0.0
H457 H 0.58276 0.82661 0.53304 0.0
H458 H 0.64133 0.79206 0.47416 0.0
H459 H 0.58449 0.76183 0.53289 0.0
H460 H 0.71436 0.73439 0.50588 0.0
H461 H 0.68725 0.77762 0.49347 0.0
H462 H 0.56826 0.69403 0.52059 0.0
H463 H 0.59589 0.65074 0.53326 0.0
C464 C 0.62698 0.83629 0.48711 0.0
C465 C 0.61218 0.84745 0.504 0.0
C466 C 0.6276 0.79882 0.48689 0.0
C467 C 0.61378 0.77211 0.50365 0.0
C468 C 0.59513 0.78143 0.51965 0.0
C469 C 0.59426 0.81873 0.51979 0.0
C470 C 0.68198 0.72433 0.50858 0.0
C471 C 0.65749 0.68968 0.52087 0.0
C472 C 0.66628 0.7491 0.50139 0.0
C473 C 0.62571 0.73964 0.50631 0.0
C474 C 0.59989 0.70257 0.5169 0.0
C475 C 0.61569 0.67785 0.52416 0.0
H476 H 0.75973 0.48986 0.79804 0.0
H477 H 0.89229 0.57017 0.80496 0.0
H478 H 0.76651 0.42913 0.80574 0.0
H479 H 0.89877 0.50965 0.8133 0.0
H480 H 0.90606 0.40077 0.83109 0.0
H481 H 0.89126 0.4407 0.80682 0.0
H482 H 0.7814 0.41446 0.84015 0.0
H483 H 0.7946 0.37231 0.86378 0.0
C484 C 0.79049 0.49459 0.80064 0.0
C485 C 0.82525 0.53516 0.80175 0.0
C486 C 0.79425 0.4597 0.80517 0.0
C487 C 0.83288 0.46475 0.81075 0.0
C488 C 0.86842 0.50466 0.80922 0.0
C489 C 0.86465 0.53951 0.80467 0.0
C490 C 0.87759 0.40171 0.83276 0.0
C491 C 0.85178 0.38376 0.84961 0.0
C492 C 0.86941 0.42503 0.8189 0.0
C493 C 0.83537 0.43103 0.82164 0.0
C494 C 0.80746 0.40985 0.83739 0.0
C495 C 0.81543 0.38624 0.85117 0.0
H496 H 0.36008 0.82605 0.14074 0.0
H497 H 0.37357 0.79926 0.20242 0.0
H498 H 0.42542 0.89241 0.14296 0.0
H499 H 0.4379 0.8655 0.20487 0.0
H500 H 0.47058 1.02296 0.17357 0.0
H501 H 0.43367 0.95271 0.1602 0.0
H502 H 0.50761 0.91832 0.19705 0.0
H503 H 0.54442 0.98919 0.21071 0.0
C504 C 0.37763 0.83391 0.15459 0.0
C505 C 0.36144 0.80808 0.17154 0.0
C506 C 0.41496 0.87186 0.15588 0.0
C507 C 0.43638 0.88478 0.17422 0.0
C508 C 0.42245 0.85662 0.19046 0.0
C509 C 0.38536 0.81855 0.18911 0.0
C510 C 0.48009 1.00094 0.17828 0.0
C511 C 0.50972 1.01129 0.1935 0.0
C512 C 0.45897 0.96049 0.17053 0.0
C513 C 0.46714 0.92955 0.17782 0.0
C514 C 0.49997 0.9412 0.19146 0.0
C515 C 0.52099 0.98171 0.19929 0.0
H516 H 0.709 0.30513 0.464 0.0
H517 H 0.62725 0.35536 0.47255 0.0
H518 H 0.76879 0.37412 0.47031 0.0
H519 H 0.68694 0.42364 0.47955 0.0
H520 H 0.79223 0.54177 0.49471 0.0
H521 H 0.75378 0.4857 0.47097 0.0
H522 H 0.78714 0.40625 0.50408 0.0
H523 H 0.8268 0.46291 0.52763 0.0
C524 C 0.7037 0.33097 0.46666 0.0
C525 C 0.66313 0.32431 0.46856 0.0
C526 C 0.73806 0.37039 0.4704 0.0
C527 C 0.73256 0.40385 0.47599 0.0
C528 C 0.69235 0.39843 0.47539 0.0
C529 C 0.65799 0.35908 0.47163 0.0
C530 C 0.79317 0.51311 0.49647 0.0
C531 C 0.81199 0.50656 0.51337 0.0
C532 C 0.77066 0.48079 0.48291 0.0
C533 C 0.76654 0.44131 0.48593 0.0
C534 C 0.78958 0.43633 0.50136 0.0
C535 C 0.81208 0.46869 0.51498 0.0
H536 H 0.40193 0.59281 0.88172 0.0
H537 H 0.37152 0.54972 0.82058 0.0
H538 H 0.33136 0.57813 0.88704 0.0
H539 H 0.3006 0.53548 0.82578 0.0
H540 H 0.17587 0.44256 0.85785 0.0
H541 H 0.2465 0.47909 0.84503 0.0
H542 H 0.27287 0.58756 0.88048 0.0
H543 H 0.202 0.55049 0.89354 0.0
C544 C 0.38057 0.58177 0.86917 0.0
C545 C 0.39194 0.57171 0.85085 0.0
C546 C 0.34001 0.57334 0.8722 0.0
C547 C 0.31013 0.55486 0.85694 0.0
C548 C 0.32271 0.54881 0.83797 0.0
C549 C 0.36326 0.55705 0.83497 0.0
C550 C 0.19646 0.47453 0.86255 0.0
C551 C 0.18372 0.49346 0.87692 0.0
C552 C 0.23693 0.49564 0.85511 0.0
C553 C 0.26543 0.53622 0.86182 0.0
C554 C 0.25183 0.55611 0.87526 0.0
C555 C 0.21137 0.53488 0.88278 0.0
H556 H 0.84119 0.38372 0.14678 0.0
H557 H 0.91045 0.47787 0.19139 0.0
H558 H 0.77837 0.38484 0.15612 0.0
H559 H 0.84811 0.48019 0.20035 0.0
H560 H 0.66677 0.38229 0.17567 0.0
H561 H 0.73584 0.41734 0.16049 0.0
H562 H 0.79046 0.42865 0.21899 0.0
H563 H 0.72266 0.39372 0.23393 0.0
C564 C 0.84311 0.40544 0.15821 0.0
C565 C 0.88012 0.42968 0.16882 0.0
C566 C 0.80726 0.40647 0.16345 0.0
C567 C 0.80805 0.43212 0.17926 0.0
C568 C 0.84621 0.45931 0.18849 0.0
C569 C 0.8818 0.45785 0.18343 0.0
C570 C 0.69367 0.39342 0.18533 0.0
C571 C 0.68894 0.38379 0.20595 0.0
C572 C 0.73321 0.41347 0.17662 0.0
C573 C 0.76854 0.42456 0.18843 0.0
C574 C 0.76403 0.42051 0.20936 0.0
C575 C 0.72471 0.40037 0.21802 0.0
H576 H 1.05874 0.5879 0.11141 0.0
H577 H 0.1257 0.52069 0.11498 0.0
H578 H 1.02203 0.54773 0.08172 0.0
H579 H 0.0903 0.4815 0.08491 0.0
H580 H 0.99813 0.39243 0.0407 0.0
H581 H 1.02508 0.4286 0.07252 0.0
H582 H 1.03307 0.54029 0.04725 0.0
H583 H 1.00492 0.50355 0.01574 0.0
C584 C 1.06594 0.56485 0.10565 0.0
C585 C 0.09516 0.55746 0.11535 0.0
C586 C 1.04494 0.54183 0.08865 0.0
C587 C 1.05305 0.51123 0.0809 0.0
C588 C 1.08259 0.50417 0.09065 0.0
C589 C 0.10326 0.52692 0.10774 0.0
C590 C 1.00507 0.42451 0.04212 0.0
C591 C 0.99952 0.44522 0.02577 0.0
C592 C 1.02084 0.44538 0.06027 0.0
C593 C 1.03191 0.48762 0.06239 0.0
C594 C 1.02455 0.50769 0.04627 0.0
C595 C 1.00836 0.48665 0.02819 0.0
H596 H 0.67408 0.14094 0.44539 0.0
H597 H 0.5416 1.05914 0.45134 0.0
H598 H 0.66323 0.16509 0.41277 0.0
H599 H 0.53096 0.08249 0.41868 0.0
H600 H 0.54635 0.09341 0.34865 0.0
H601 H 0.55778 0.07442 0.38195 0.0
H602 H 0.61975 0.20403 0.39973 0.0
H603 H 0.60636 0.22341 0.36658 0.0
C604 C 0.64278 0.12802 0.43964 0.0
C605 C 0.60867 0.09797 0.45066 0.0
C606 C 0.63659 0.14204 0.42115 0.0
C607 C 0.5963 0.12548 0.41334 0.0
C608 C 0.56229 0.09552 0.42442 0.0
C609 C 0.56839 0.08218 0.44302 0.0
C610 C 0.56155 0.11798 0.35968 0.0
C611 C 0.57486 0.15999 0.35488 0.0
C612 C 0.56843 0.10702 0.3787 0.0
C613 C 0.58955 0.1378 0.39327 0.0
C614 C 0.60359 0.17985 0.38859 0.0
C615 C 0.59601 0.19084 0.36961 0.0
H616 H 0.61508 0.52252 0.77806 0.0
H617 H 0.69699 0.65499 0.78676 0.0
H618 H 0.64523 0.52753 0.74494 0.0
H619 H 0.72871 0.65981 0.75422 0.0
H620 H 0.7319 0.662 0.68564 0.0
H621 H 0.7098 0.65747 0.72018 0.0
H622 H 0.70618 0.53921 0.72666 0.0
H623 H 0.72651 0.54292 0.69148 0.0
C624 C 0.63978 0.55263 0.77292 0.0
C625 C 0.65372 0.58839 0.7849 0.0
C626 C 0.65745 0.55543 0.75408 0.0
C627 C 0.68947 0.59408 0.74689 0.0
C628 C 0.70377 0.62966 0.75914 0.0
C629 C 0.68585 0.62688 0.77786 0.0
C630 C 0.72645 0.63502 0.69443 0.0
C631 C 0.73034 0.60251 0.68575 0.0
C632 C 0.71424 0.63264 0.71435 0.0
C633 C 0.70597 0.59785 0.72622 0.0
C634 C 0.71168 0.56613 0.71783 0.0
C635 C 0.72381 0.56847 0.69777 0.0
H636 H 0.65402 0.10911 0.56294 0.0
H637 H 0.52336 0.06302 0.57221 0.0
H638 H 0.66418 0.10984 0.59926 0.0
H639 H 0.53309 0.06273 0.60832 0.0
H640 H 0.57087 0.11196 0.67181 0.0
H641 H 0.56251 0.11037 0.6356 0.0
H642 H 0.6505 0.06737 0.62891 0.0
H643 H 0.66029 0.07076 0.6652 0.0
C644 C 0.62741 0.09877 0.57273 0.0
C645 C 0.58795 0.08631 0.56469 0.0
C646 C 0.63315 0.09899 0.59357 0.0
C647 C 0.59954 0.0867 0.60688 0.0
C648 C 0.55992 0.07327 0.59868 0.0
C649 C 0.55424 0.07313 0.57791 0.0
C650 C 0.58887 0.10262 0.66267 0.0
C651 C 0.61635 0.09158 0.67159 0.0
C652 C 0.58363 0.10115 0.64182 0.0
C653 C 0.60562 0.0885 0.62917 0.0
C654 C 0.63325 0.0776 0.63807 0.0
C655 C 0.63849 0.07907 0.65897 0.0
H656 H 0.72886 0.67164 0.90636 0.0
H657 H 0.61008 0.56077 0.89658 0.0
H658 H 0.71884 0.66265 0.94231 0.0
H659 H 0.59814 0.55309 0.93274 0.0
H660 H 0.60397 0.52689 0.99932 0.0
H661 H 0.61304 0.53438 0.96302 0.0
H662 H 0.68725 0.66873 0.97003 0.0
H663 H 0.68031 0.66036 0.00626 0.0
C664 C 0.70017 0.6456 0.91194 0.0
C665 C 0.67026 0.61694 0.8986 0.0
C666 C 0.69412 0.64056 0.9327 0.0
C667 C 0.6574 0.60724 0.94083 0.0
C668 C 0.62719 0.57878 0.92733 0.0
C669 C 0.63376 0.58333 0.9065 0.0
C670 C 0.62226 0.55794 0.99298 0.0
C671 C 0.6417 0.59301 0.0056 0.0
C672 C 0.62727 0.56241 0.97209 0.0
C673 C 0.65114 0.60224 0.96321 0.0
C674 C 0.66963 0.63736 0.97603 0.0
C675 C 0.66542 0.63272 0.9969 0.0
H676 H 0.08841 0.5947 0.22723 0.0
H677 H 0.14407 0.51774 0.23614 0.0
H678 H 0.08946 0.60544 0.26358 0.0
H679 H 0.14493 0.52812 0.27225 0.0
H680 H 0.17529 0.58469 0.33479 0.0
H681 H 0.17786 0.58081 0.29834 0.0
H682 H 1.05509 0.56529 0.2942 0.0
H683 H 1.05292 0.57018 0.33067 0.0
C684 C 0.10107 0.58028 0.23693 0.0
C685 C 0.11608 0.5553 0.22879 0.0
C686 C 0.10144 0.5862 0.25777 0.0
C687 C 0.11725 0.56763 0.27094 0.0
C688 C 0.13297 0.54334 0.26265 0.0
C689 C 0.13228 0.53719 0.2419 0.0
C690 C 0.14901 0.58097 0.32613 0.0
C691 C 0.11385 0.57765 0.33579 0.0
C692 C 0.15032 0.57832 0.30519 0.0
C693 C 0.11661 0.57256 0.29323 0.0
C694 C 1.08177 0.57007 0.30285 0.0
C695 C 1.08034 0.5724 0.32382 0.0
loop_
_geom_bond_atom_site_label_1
_geom_bond_atom_site_label_2
_geom_bond_distance
_geom_bond_site_symmetry_2
_ccdc_geom_bond_type
C0 Eu1 2.835 . S
C0 C2 1.500 . S
C0 O20 1.257 . S
C0 O21 1.260 . S
Eu1 C0 2.835 . S
Eu1 O20 2.473 . S
Eu1 O21 2.480 . S
Eu1 O22 2.430 1_655 S
Eu1 O23 2.670 1_655 S
Eu1 O24 2.394 . S
Eu1 O29 2.355 1_655 S
Eu1 O31 2.374 1_655 S
C2 C0 1.500 . S
C2 C3 1.377 . S
C2 C7 1.377 . S
C3 C2 1.377 . S
C3 C4 1.395 . S
C3 H32 0.931 . S
C4 C3 1.395 . S
C4 C5 1.383 . S
C4 H33 0.931 . S
C5 C4 1.383 . S
C5 C6 1.394 . S
C6 C5 1.394 . S
C6 C7 1.378 . S
C6 H34 0.931 . S
C7 C2 1.377 . S
C7 C6 1.378 . S
C7 H35 0.931 . S
C8 O22 1.259 . S
C8 O23 1.270 . S
C9 O24 1.251 . S
C9 O25 1.251 . S
C10 Eu11 2.835 . S
C10 C12 1.500 . S
C10 O26 1.257 . S
C10 O27 1.260 . S
Eu11 C10 2.835 . S
Eu11 O23 2.355 . S
Eu11 O25 2.374 1_455 S
Eu11 O26 2.473 . S
Eu11 O27 2.480 . S
Eu11 O28 2.430 . S
Eu11 O29 2.670 . S
Eu11 O30 2.394 . S
C12 C10 1.500 . S
C12 C13 1.377 . S
C12 C17 1.377 . S
C13 C12 1.377 . S
C13 C14 1.395 . S
C13 H36 0.931 . S
C14 C13 1.395 . S
C14 C15 1.383 . S
C14 H37 0.931 . S
C15 C14 1.383 . S
C15 C16 1.394 . S
C16 C15 1.394 . S
C16 C17 1.378 . S
C16 H38 0.931 . S
C17 C12 1.377 . S
C17 C16 1.378 . S
C17 H39 0.931 . S
C18 O28 1.259 . S
C18 O29 1.270 . S
C19 O30 1.251 . S
C19 O31 1.251 . S
O20 C0 1.257 . S
O20 Eu1 2.473 . S
O21 C0 1.260 . S
O21 Eu1 2.480 . S
O22 Eu1 2.430 1_455 S
O22 C8 1.259 . S
O23 Eu1 2.670 1_455 S
O23 C8 1.270 . S
O23 Eu11 2.355 . S
O24 Eu1 2.394 . S
O24 C9 1.251 . S
O25 C9 1.251 . S
O25 Eu11 2.374 1_655 S
O26 C10 1.257 . S
O26 Eu11 2.473 . S
O27 C10 1.260 . S
O27 Eu11 2.480 . S
O28 Eu11 2.430 . S
O28 C18 1.259 . S
O29 Eu1 2.355 1_455 S
O29 Eu11 2.670 . S
O29 C18 1.270 . S
O30 Eu11 2.394 . S
O30 C19 1.251 . S
O31 Eu1 2.374 1_455 S
O31 C19 1.251 . S
H32 C3 0.931 . S
H33 C4 0.931 . S
H34 C6 0.931 . S
H35 C7 0.931 . S
H36 C13 0.931 . S
H37 C14 0.931 . S
H38 C16 0.931 . S
H39 C17 0.931 . S
C40 Eu41 2.835 . S
C40 C42 1.500 . S
C40 O60 1.257 . S
C40 O61 1.260 . S
Eu41 C40 2.835 . S
Eu41 O60 2.473 . S
Eu41 O61 2.480 . S
Eu41 O62 2.430 . S
Eu41 O63 2.670 . S
Eu41 O64 2.394 . S
Eu41 O69 2.355 . S
Eu41 O71 2.374 1_545 S
C42 C40 1.500 . S
C42 C43 1.377 . S
C42 C47 1.377 . S
C43 C42 1.377 . S
C43 C44 1.395 . S
C43 H72 0.931 . S
C44 C43 1.395 . S
C44 C45 1.383 . S
C44 H73 0.931 . S
C45 C44 1.383 . S
C45 C46 1.394 . S
C46 C45 1.394 . S
C46 C47 1.378 . S
C46 H74 0.931 . S
C47 C42 1.377 . S
C47 C46 1.378 . S
C47 H75 0.931 . S
C48 O62 1.259 . S
C48 O63 1.270 . S
C49 O64 1.251 . S
C49 O65 1.251 . S
C50 Eu51 2.835 1_565 S
C50 C52 1.500 . S
C50 O66 1.257 . S
C50 O67 1.260 . S
Eu51 C50 2.835 1_545 S
Eu51 O63 2.355 . S
Eu51 O65 2.374 . S
Eu51 O66 2.473 1_545 S
Eu51 O67 2.480 1_545 S
Eu51 O68 2.430 . S
Eu51 O69 2.670 . S
Eu51 O70 2.394 1_545 S
C52 C50 1.500 . S
C52 C53 1.377 . S
C52 C57 1.377 . S
C53 C52 1.377 . S
C53 C54 1.395 . S
C53 H76 0.931 . S
C54 C53 1.395 . S
C54 C55 1.383 . S
C54 H77 0.931 . S
C55 C54 1.383 . S
C55 C56 1.394 . S
C56 C55 1.394 . S
C56 C57 1.378 . S
C56 H78 0.931 . S
C57 C52 1.377 . S
C57 C56 1.378 . S
C57 H79 0.931 . S
C58 O68 1.259 . S
C58 O69 1.270 . S
C59 O70 1.251 . S
C59 O71 1.251 . S
O60 C40 1.257 . S
O60 Eu41 2.473 . S
O61 C40 1.260 . S
O61 Eu41 2.480 . S
O62 Eu41 2.430 . S
O62 C48 1.259 . S
O63 Eu41 2.670 . S
O63 C48 1.270 . S
O63 Eu51 2.355 . S
O64 Eu41 2.394 . S
O64 C49 1.251 . S
O65 C49 1.251 . S
O65 Eu51 2.374 . S
O66 C50 1.257 . S
O66 Eu51 2.473 1_565 S
O67 C50 1.260 . S
O67 Eu51 2.480 1_565 S
O68 Eu51 2.430 . S
O68 C58 1.259 . S
O69 Eu41 2.355 . S
O69 Eu51 2.670 . S
O69 C58 1.270 . S
O70 Eu51 2.394 1_565 S
O70 C59 1.251 . S
O71 Eu41 2.374 1_565 S
O71 C59 1.251 . S
H72 C43 0.931 . S
H73 C44 0.931 . S
H74 C46 0.931 . S
H75 C47 0.931 . S
H76 C53 0.931 . S
H77 C54 0.931 . S
H78 C56 0.931 . S
H79 C57 0.931 . S
C80 Eu81 2.835 . S
C80 C82 1.500 . S
C80 O100 1.257 . S
C80 O101 1.260 . S
Eu81 C80 2.835 . S
Eu81 O100 2.473 . S
Eu81 O101 2.480 . S
Eu81 O102 2.430 . S
Eu81 O103 2.670 . S
Eu81 O104 2.394 . S
Eu81 O109 2.355 . S
Eu81 O111 2.374 . S
C82 C80 1.500 . S
C82 C83 1.377 . S
C82 C87 1.377 . S
C83 C82 1.377 . S
C83 C84 1.395 . S
C83 H112 0.931 . S
C84 C83 1.395 . S
C84 C85 1.383 . S
C84 H113 0.931 . S
C85 C84 1.383 . S
C85 C86 1.394 . S
C86 C85 1.394 . S
C86 C87 1.378 . S
C86 H114 0.931 . S
C87 C82 1.377 . S
C87 C86 1.378 . S
C87 H115 0.931 . S
C88 O102 1.259 . S
C88 O103 1.270 . S
C89 O104 1.251 . S
C89 O105 1.251 . S
C90 Eu91 2.835 . S
C90 C92 1.500 . S
C90 O106 1.257 . S
C90 O107 1.260 . S
Eu91 C90 2.835 . S
Eu91 O103 2.355 . S
Eu91 O105 2.374 . S
Eu91 O106 2.473 . S
Eu91 O107 2.480 . S
Eu91 O108 2.430 . S
Eu91 O109 2.670 . S
Eu91 O110 2.394 . S
C92 C90 1.500 . S
C92 C93 1.377 . S
C92 C97 1.377 . S
C93 C92 1.377 . S
C93 C94 1.395 . S
C93 H116 0.931 . S
C94 C93 1.395 . S
C94 C95 1.383 . S
C94 H117 0.931 . S
C95 C94 1.383 . S
C95 C96 1.394 . S
C96 C95 1.394 . S
C96 C97 1.378 . S
C96 H118 0.931 . S
C97 C92 1.377 . S
C97 C96 1.378 . S
C97 H119 0.931 . S
C98 O108 1.259 . S
C98 O109 1.270 . S
C99 O110 1.251 . S
C99 O111 1.251 . S
O100 C80 1.257 . S
O100 Eu81 2.473 . S
O101 C80 1.260 . S
O101 Eu81 2.480 . S
O102 Eu81 2.430 . S
O102 C88 1.259 . S
O103 Eu81 2.670 . S
O103 C88 1.270 . S
O103 Eu91 2.355 . S
O104 Eu81 2.394 . S
O104 C89 1.251 . S
O105 C89 1.251 . S
O105 Eu91 2.374 . S
O106 C90 1.257 . S
O106 Eu91 2.473 . S
O107 C90 1.260 . S
O107 Eu91 2.480 . S
O108 Eu91 2.430 . S
O108 C98 1.259 . S
O109 Eu81 2.355 . S
O109 Eu91 2.670 . S
O109 C98 1.270 . S
O110 Eu91 2.394 . S
O110 C99 1.251 . S
O111 Eu81 2.374 . S
O111 C99 1.251 . S
H112 C83 0.931 . S
H113 C84 0.931 . S
H114 C86 0.931 . S
H115 C87 0.931 . S
H116 C93 0.931 . S
H117 C94 0.931 . S
H118 C96 0.931 . S
H119 C97 0.931 . S
C120 C121 1.384 . S
C120 H133 0.947 . S
C120 C155 1.382 . S
C121 C120 1.384 . S
C121 C122 1.378 . S
C122 C121 1.378 . S
C122 C123 1.378 . S
C122 H134 0.952 . S
C123 C122 1.378 . S
C123 H135 0.950 1_565 S
C123 C154 1.383 . S
H124 C143 0.947 . S
H125 C144 0.946 . S
H126 C146 0.953 . S
H127 C147 0.945 . S
H128 C149 0.952 . S
H129 C150 0.949 . S
H130 C152 0.950 1_565 S
H131 C153 0.948 1_565 S
H132 C155 0.951 . S
H133 C120 0.947 . S
H134 C122 0.952 . S
H135 C123 0.950 1_545 S
N136 C139 1.382 . S
N136 C141 1.363 . S
N137 C139 1.371 . S
N137 C140 1.372 . S
N138 C140 1.361 . S
N138 C141 1.377 . S
C139 N136 1.382 . S
C139 N137 1.371 . S
C139 C142 1.480 . S
C140 N137 1.372 . S
C140 N138 1.361 . S
C140 C148 1.457 . S
C141 N136 1.363 . S
C141 N138 1.377 . S
C141 C154 1.479 1_545 S
C142 C139 1.480 . S
C142 C143 1.383 . S
C142 C147 1.385 . S
C143 H124 0.947 . S
C143 C142 1.383 . S
C143 C144 1.388 . S
C144 H125 0.946 . S
C144 C143 1.388 . S
C144 C145 1.384 . S
C145 C144 1.384 . S
C145 C146 1.377 . S
C146 H126 0.953 . S
C146 C145 1.377 . S
C146 C147 1.369 . S
C147 H127 0.945 . S
C147 C142 1.385 . S
C147 C146 1.369 . S
C148 C140 1.457 . S
C148 C149 1.372 . S
C148 C153 1.364 . S
C149 H128 0.952 . S
C149 C148 1.372 . S
C149 C150 1.389 . S
C150 H129 0.949 . S
C150 C149 1.389 . S
C150 C151 1.387 . S
C151 C150 1.387 . S
C151 C152 1.372 . S
C152 H130 0.950 1_545 S
C152 C151 1.372 . S
C152 C153 1.379 . S
C153 H131 0.948 1_545 S
C153 C148 1.364 . S
C153 C152 1.379 . S
C154 C123 1.383 . S
C154 C141 1.479 1_565 S
C154 C155 1.398 . S
C155 C120 1.382 . S
C155 H132 0.951 . S
C155 C154 1.398 . S
C156 C157 1.384 . S
C156 H169 0.947 . S
C156 C191 1.382 . S
C157 C156 1.384 . S
C157 C158 1.378 . S
C158 C157 1.378 . S
C158 C159 1.378 . S
C158 H170 0.952 . S
C159 C158 1.378 . S
C159 H171 0.950 . S
C159 C190 1.383 . S
H160 C179 0.947 . S
H161 C180 0.946 . S
H162 C182 0.953 . S
H163 C183 0.945 . S
H164 C185 0.952 . S
H165 C186 0.949 . S
H166 C188 0.950 . S
H167 C189 0.948 . S
H168 C191 0.951 . S
H169 C156 0.947 . S
H170 C158 0.952 . S
H171 C159 0.950 . S
N172 C175 1.382 . S
N172 C177 1.363 . S
N173 C175 1.371 . S
N173 C176 1.372 . S
N174 C176 1.361 . S
N174 C177 1.377 . S
C175 N172 1.382 . S
C175 N173 1.371 . S
C175 C178 1.480 . S
C176 N173 1.372 . S
C176 N174 1.361 . S
C176 C184 1.457 . S
C177 N172 1.363 . S
C177 N174 1.377 . S
C177 C190 1.479 . S
C178 C175 1.480 . S
C178 C179 1.383 . S
C178 C183 1.385 . S
C179 H160 0.947 . S
C179 C178 1.383 . S
C179 C180 1.388 . S
C180 H161 0.946 . S
C180 C179 1.388 . S
C180 C181 1.384 . S
C181 C180 1.384 . S
C181 C182 1.377 . S
C182 H162 0.953 . S
C182 C181 1.377 . S
C182 C183 1.369 . S
C183 H163 0.945 . S
C183 C178 1.385 . S
C183 C182 1.369 . S
C184 C176 1.457 . S
C184 C185 1.372 . S
C184 C189 1.364 . S
C185 H164 0.952 . S
C185 C184 1.372 . S
C185 C186 1.389 . S
C186 H165 0.949 . S
C186 C185 1.389 . S
C186 C187 1.387 . S
C187 C186 1.387 . S
C187 C188 1.372 . S
C188 H166 0.950 . S
C188 C187 1.372 . S
C188 C189 1.379 . S
C189 H167 0.948 . S
C189 C184 1.364 . S
C189 C188 1.379 . S
C190 C159 1.383 . S
C190 C177 1.479 . S
C190 C191 1.398 . S
C191 C156 1.382 . S
C191 H168 0.951 . S
C191 C190 1.398 . S
C192 C193 1.384 . S
C192 H205 0.947 . S
C192 C227 1.382 . S
C193 C192 1.384 . S
C193 C194 1.378 . S
C194 C193 1.378 . S
C194 C195 1.378 . S
C194 H206 0.952 . S
C195 C194 1.378 . S
C195 H207 0.950 . S
C195 C226 1.383 . S
H196 C215 0.947 . S
H197 C216 0.946 . S
H198 C218 0.953 . S
H199 C219 0.945 . S
H200 C221 0.952 . S
H201 C222 0.949 . S
H202 C224 0.950 . S
H203 C225 0.948 . S
H204 C227 0.951 . S
H205 C192 0.947 . S
H206 C194 0.952 . S
H207 C195 0.950 . S
N208 C211 1.374 1_655 S
N208 C213 1.371 . S
N209 C211 1.371 . S
N209 C212 1.372 . S
N210 C212 1.361 1_655 S
N210 C213 1.377 . S
C211 N208 1.374 1_455 S
C211 N209 1.371 . S
C211 C214 1.480 . S
C212 N209 1.372 . S
C212 N210 1.361 1_455 S
C212 C220 1.457 . S
C213 N208 1.371 . S
C213 N210 1.377 . S
C213 C226 1.479 . S
C214 C211 1.480 . S
C214 C215 1.383 . S
C214 C219 1.385 . S
C215 H196 0.947 . S
C215 C214 1.383 . S
C215 C216 1.388 . S
C216 H197 0.946 . S
C216 C215 1.388 . S
C216 C217 1.384 . S
C217 C216 1.384 . S
C217 C218 1.377 . S
C218 H198 0.953 . S
C218 C217 1.377 . S
C218 C219 1.369 . S
C219 H199 0.945 . S
C219 C214 1.385 . S
C219 C218 1.369 . S
C220 C212 1.457 . S
C220 C221 1.372 . S
C220 C225 1.364 1_455 S
C221 H200 0.952 . S
C221 C220 1.372 . S
C221 C222 1.389 . S
C222 H201 0.949 . S
C222 C221 1.389 . S
C222 C223 1.387 . S
C223 C222 1.387 . S
C223 C224 1.372 1_455 S
C224 H202 0.950 . S
C224 C223 1.372 1_655 S
C224 C225 1.379 . S
C225 H203 0.948 . S
C225 C220 1.364 1_655 S
C225 C224 1.379 . S
C226 C195 1.383 . S
C226 C213 1.479 . S
C226 C227 1.398 . S
C227 C192 1.382 . S
C227 H204 0.951 . S
C227 C226 1.398 . S
C228 C229 1.384 . S
C228 H241 0.947 . S
C228 C263 1.382 . S
C229 C228 1.384 . S
C229 C230 1.378 . S
C230 C229 1.378 . S
C230 C231 1.378 . S
C230 H242 0.952 . S
C231 C230 1.378 . S
C231 H243 0.950 . S
C231 C262 1.383 . S
H232 C251 0.947 1_455 S
H233 C252 0.946 . S
H234 C254 0.953 . S
H235 C255 0.945 . S
H236 C257 0.952 1_655 S
H237 C258 0.949 1_655 S
H238 C260 0.950 . S
H239 C261 0.948 . S
H240 C263 0.951 . S
H241 C228 0.947 . S
H242 C230 0.952 . S
H243 C231 0.950 . S
N244 C247 1.382 . S
N244 C249 1.363 . S
N245 C247 1.371 . S
N245 C248 1.372 . S
N246 C248 1.361 . S
N246 C249 1.377 . S
C247 N244 1.382 . S
C247 N245 1.371 . S
C247 C250 1.480 1_455 S
C248 N245 1.372 . S
C248 N246 1.361 . S
C248 C256 1.457 . S
C249 N244 1.363 . S
C249 N246 1.377 . S
C249 C262 1.479 . S
C250 C247 1.480 1_655 S
C250 C251 1.383 . S
C250 C255 1.385 . S
C251 H232 0.947 1_655 S
C251 C250 1.383 . S
C251 C252 1.388 . S
C252 H233 0.946 . S
C252 C251 1.388 . S
C252 C253 1.384 . S
C253 C252 1.384 . S
C253 C254 1.377 . S
C254 H234 0.953 . S
C254 C253 1.377 . S
C254 C255 1.369 . S
C255 H235 0.945 . S
C255 C250 1.385 . S
C255 C254 1.369 . S
C256 C248 1.457 . S
C256 C257 1.372 . S
C256 C261 1.364 . S
C257 H236 0.952 1_455 S
C257 C256 1.372 . S
C257 C258 1.389 . S
C258 H237 0.949 1_455 S
C258 C257 1.389 . S
C258 C259 1.387 . S
C259 C258 1.387 . S
C259 C260 1.372 . S
C260 H238 0.950 . S
C260 C259 1.372 . S
C260 C261 1.379 . S
C261 H239 0.948 . S
C261 C256 1.364 . S
C261 C260 1.379 . S
C262 C231 1.383 . S
C262 C249 1.479 . S
C262 C263 1.398 . S
C263 C228 1.382 . S
C263 H240 0.951 . S
C263 C262 1.398 . S
C264 C265 1.384 . S
C264 H277 0.947 . S
C264 C299 1.382 . S
C265 C264 1.384 . S
C265 C266 1.378 . S
C266 C265 1.378 . S
C266 C267 1.378 . S
C266 H278 0.952 . S
C267 C266 1.378 . S
C267 H279 0.950 . S
C267 C298 1.383 . S
H268 C287 0.947 . S
H269 C288 0.946 . S
H270 C290 0.953 . S
H271 C291 0.945 . S
H272 C293 0.952 . S
H273 C294 0.949 . S
H274 C296 0.950 . S
H275 C297 0.948 . S
H276 C299 0.951 . S
H277 C264 0.947 . S
H278 C266 0.952 . S
H279 C267 0.950 . S
N280 C283 1.382 1_545 S
N280 C285 1.363 . S
N281 C283 1.371 . S
N281 C284 1.372 1_565 S
N282 C284 1.361 . S
N282 C285 1.377 . S
C283 N280 1.382 1_565 S
C283 N281 1.371 . S
C283 C286 1.480 . S
C284 N281 1.372 1_545 S
C284 N282 1.361 . S
C284 C292 1.457 . S
C285 N280 1.363 . S
C285 N282 1.377 . S
C285 C298 1.479 . S
C286 C283 1.480 . S
C286 C287 1.383 . S
C286 C291 1.385 . S
C287 H268 0.947 . S
C287 C286 1.383 . S
C287 C288 1.388 . S
C288 H269 0.946 . S
C288 C287 1.388 . S
C288 C289 1.384 . S
C289 C288 1.384 . S
C289 C290 1.377 . S
C290 H270 0.953 . S
C290 C289 1.377 . S
C290 C291 1.369 . S
C291 H271 0.945 . S
C291 C286 1.385 . S
C291 C290 1.369 . S
C292 C284 1.457 . S
C292 C293 1.372 1_545 S
C292 C297 1.364 . S
C293 H272 0.952 . S
C293 C292 1.372 1_565 S
C293 C294 1.389 . S
C294 H273 0.949 . S
C294 C293 1.389 . S
C294 C295 1.387 1_565 S
C295 C294 1.387 1_545 S
C295 C296 1.372 . S
C296 H274 0.950 . S
C296 C295 1.372 . S
C296 C297 1.379 . S
C297 H275 0.948 . S
C297 C292 1.364 . S
C297 C296 1.379 . S
C298 C267 1.383 . S
C298 C285 1.479 . S
C298 C299 1.398 . S
C299 C264 1.382 . S
C299 H276 0.951 . S
C299 C298 1.398 . S
C300 C301 1.384 . S
C300 H313 0.947 . S
C300 C335 1.382 . S
C301 C300 1.384 . S
C301 C302 1.378 . S
C302 C301 1.378 . S
C302 C303 1.378 . S
C302 H314 0.952 . S
C303 C302 1.378 . S
C303 H315 0.950 . S
C303 C334 1.383 . S
H304 C323 0.947 . S
H305 C324 0.946 . S
H306 C326 0.953 . S
H307 C327 0.945 . S
H308 C329 0.952 . S
H309 C330 0.949 . S
H310 C332 0.950 . S
H311 C333 0.948 . S
H312 C335 0.951 . S
H313 C300 0.947 . S
H314 C302 0.952 . S
H315 C303 0.950 . S
N316 C319 1.382 . S
N316 C321 1.363 . S
N317 C319 1.371 . S
N317 C320 1.372 . S
N318 C320 1.361 . S
N318 C321 1.377 . S
C319 N316 1.382 . S
C319 N317 1.371 . S
C319 C322 1.480 . S
C320 N317 1.372 . S
C320 N318 1.361 . S
C320 C328 1.457 . S
C321 N316 1.363 . S
C321 N318 1.377 . S
C321 C334 1.479 . S
C322 C319 1.480 . S
C322 C323 1.383 . S
C322 C327 1.385 . S
C323 H304 0.947 . S
C323 C322 1.383 . S
C323 C324 1.388 . S
C324 H305 0.946 . S
C324 C323 1.388 . S
C324 C325 1.384 . S
C325 C324 1.384 . S
C325 C326 1.377 . S
C326 H306 0.953 . S
C326 C325 1.377 . S
C326 C327 1.369 . S
C327 H307 0.945 . S
C327 C322 1.385 . S
C327 C326 1.369 . S
C328 C320 1.457 . S
C328 C329 1.372 . S
C328 C333 1.364 . S
C329 H308 0.952 . S
C329 C328 1.372 . S
C329 C330 1.389 . S
C330 H309 0.949 . S
C330 C329 1.389 . S
C330 C331 1.387 . S
C331 C330 1.387 . S
C331 C332 1.372 . S
C332 H310 0.950 . S
C332 C331 1.372 . S
C332 C333 1.379 . S
C333 H311 0.948 . S
C333 C328 1.364 . S
C333 C332 1.379 . S
C334 C303 1.383 . S
C334 C321 1.479 . S
C334 C335 1.398 . S
C335 C300 1.382 . S
C335 H312 0.951 . S
C335 C334 1.398 . S
H336 C344 0.950 . S
H337 C349 0.950 . S
H338 C346 0.950 . S
H339 C348 0.950 . S
H340 C350 0.950 . S
H341 C352 0.950 . S
H342 C354 0.950 . S
H343 C355 0.950 . S
C344 H336 0.950 . S
C344 C345 1.386 . S
C344 C346 1.391 . S
C345 C344 1.386 . S
C345 C349 1.393 . S
C346 H338 0.950 . S
C346 C344 1.391 . S
C346 C347 1.400 . S
C347 C346 1.400 . S
C347 C348 1.398 . S
C347 C353 1.491 . S
C348 H339 0.950 . S
C348 C347 1.398 . S
C348 C349 1.391 . S
C349 H337 0.950 . S
C349 C345 1.393 . S
C349 C348 1.391 . S
C350 H340 0.950 . S
C350 C351 1.386 . S
C350 C352 1.391 . S
C351 C350 1.386 . S
C351 C355 1.393 . S
C352 H341 0.950 . S
C352 C350 1.391 . S
C352 C353 1.400 . S
C353 C347 1.491 . S
C353 C352 1.400 . S
C353 C354 1.398 . S
C354 H342 0.950 . S
C354 C353 1.398 . S
C354 C355 1.391 . S
C355 H343 0.950 . S
C355 C351 1.393 . S
C355 C354 1.391 . S
H356 C364 0.950 . S
H357 C369 0.950 . S
H358 C366 0.950 . S
H359 C368 0.950 . S
H360 C370 0.950 . S
H361 C372 0.950 . S
H362 C374 0.950 . S
H363 C375 0.950 . S
C364 H356 0.950 . S
C364 C365 1.386 . S
C364 C366 1.391 . S
C365 C364 1.386 . S
C365 C369 1.393 . S
C366 H358 0.950 . S
C366 C364 1.391 . S
C366 C367 1.400 . S
C367 C366 1.400 . S
C367 C368 1.398 . S
C367 C373 1.491 . S
C368 H359 0.950 . S
C368 C367 1.398 . S
C368 C369 1.391 . S
C369 H357 0.950 . S
C369 C365 1.393 . S
C369 C368 1.391 . S
C370 H360 0.950 . S
C370 C371 1.386 . S
C370 C372 1.391 . S
C371 C370 1.386 . S
C371 C375 1.393 . S
C372 H361 0.950 . S
C372 C370 1.391 . S
C372 C373 1.400 . S
C373 C367 1.491 . S
C373 C372 1.400 . S
C373 C374 1.398 . S
C374 H362 0.950 . S
C374 C373 1.398 . S
C374 C375 1.391 . S
C375 H363 0.950 . S
C375 C371 1.393 . S
C375 C374 1.391 . S
H376 C384 0.950 . S
H377 C389 0.950 . S
H378 C386 0.950 . S
H379 C388 0.950 . S
H380 C390 0.950 . S
H381 C392 0.950 . S
H382 C394 0.950 . S
H383 C395 0.950 . S
C384 H376 0.950 . S
C384 C385 1.386 . S
C384 C386 1.391 . S
C385 C384 1.386 . S
C385 C389 1.393 . S
C386 H378 0.950 . S
C386 C384 1.391 . S
C386 C387 1.400 . S
C387 C386 1.400 . S
C387 C388 1.398 . S
C387 C393 1.491 . S
C388 H379 0.950 . S
C388 C387 1.398 . S
C388 C389 1.391 . S
C389 H377 0.950 . S
C389 C385 1.393 . S
C389 C388 1.391 . S
C390 H380 0.950 . S
C390 C391 1.386 . S
C390 C392 1.391 . S
C391 C390 1.386 . S
C391 C395 1.393 . S
C392 H381 0.950 . S
C392 C390 1.391 . S
C392 C393 1.400 . S
C393 C387 1.491 . S
C393 C392 1.400 . S
C393 C394 1.398 . S
C394 H382 0.950 . S
C394 C393 1.398 . S
C394 C395 1.391 . S
C395 H383 0.950 . S
C395 C391 1.393 . S
C395 C394 1.391 . S
H396 C404 0.950 . S
H397 C409 0.950 . S
H398 C406 0.950 . S
H399 C408 0.950 . S
H400 C410 0.950 . S
H401 C412 0.950 . S
H402 C414 0.950 . S
H403 C415 0.950 . S
C404 H396 0.950 . S
C404 C405 1.386 . S
C404 C406 1.391 . S
C405 C404 1.386 . S
C405 C409 1.393 . S
C406 H398 0.950 . S
C406 C404 1.391 . S
C406 C407 1.400 . S
C407 C406 1.400 . S
C407 C408 1.398 . S
C407 C413 1.491 . S
C408 H399 0.950 . S
C408 C407 1.398 . S
C408 C409 1.391 . S
C409 H397 0.950 . S
C409 C405 1.393 . S
C409 C408 1.391 . S
C410 H400 0.950 . S
C410 C411 1.386 . S
C410 C412 1.391 . S
C411 C410 1.386 . S
C411 C415 1.393 . S
C412 H401 0.950 . S
C412 C410 1.391 . S
C412 C413 1.400 . S
C413 C407 1.491 . S
C413 C412 1.400 . S
C413 C414 1.398 . S
C414 H402 0.950 . S
C414 C413 1.398 . S
C414 C415 1.391 . S
C415 H403 0.950 . S
C415 C411 1.393 . S
C415 C414 1.391 . S
H416 C424 0.950 . S
H417 C429 0.950 . S
H418 C426 0.950 . S
H419 C428 0.950 . S
H420 C430 0.950 . S
H421 C432 0.950 . S
H422 C434 0.950 . S
H423 C435 0.950 . S
C424 H416 0.950 . S
C424 C425 1.386 . S
C424 C426 1.391 . S
C425 C424 1.386 . S
C425 C429 1.393 . S
C426 H418 0.950 . S
C426 C424 1.391 . S
C426 C427 1.400 . S
C427 C426 1.400 . S
C427 C428 1.398 . S
C427 C433 1.491 . S
C428 H419 0.950 . S
C428 C427 1.398 . S
C428 C429 1.391 . S
C429 H417 0.950 . S
C429 C425 1.393 . S
C429 C428 1.391 . S
C430 H420 0.950 . S
C430 C431 1.386 . S
C430 C432 1.391 . S
C431 C430 1.386 . S
C431 C435 1.393 . S
C432 H421 0.950 . S
C432 C430 1.391 . S
C432 C433 1.400 . S
C433 C427 1.491 . S
C433 C432 1.400 . S
C433 C434 1.398 . S
C434 H422 0.950 . S
C434 C433 1.398 . S
C434 C435 1.391 . S
C435 H423 0.950 . S
C435 C431 1.393 . S
C435 C434 1.391 . S
H436 C444 0.950 . S
H437 C449 0.950 . S
H438 C446 0.950 . S
H439 C448 0.950 . S
H440 C450 0.950 . S
H441 C452 0.950 . S
H442 C454 0.950 . S
H443 C455 0.950 . S
C444 H436 0.950 . S
C444 C445 1.386 . S
C444 C446 1.391 . S
C445 C444 1.386 . S
C445 C449 1.393 . S
C446 H438 0.950 . S
C446 C444 1.391 . S
C446 C447 1.400 . S
C447 C446 1.400 . S
C447 C448 1.398 . S
C447 C453 1.491 . S
C448 H439 0.950 . S
C448 C447 1.398 . S
C448 C449 1.391 . S
C449 H437 0.950 . S
C449 C445 1.393 . S
C449 C448 1.391 . S
C450 H440 0.950 . S
C450 C451 1.386 . S
C450 C452 1.391 . S
C451 C450 1.386 . S
C451 C455 1.393 . S
C452 H441 0.950 . S
C452 C450 1.391 . S
C452 C453 1.400 . S
C453 C447 1.491 . S
C453 C452 1.400 . S
C453 C454 1.398 . S
C454 H442 0.950 . S
C454 C453 1.398 . S
C454 C455 1.391 . S
C455 H443 0.950 . S
C455 C451 1.393 . S
C455 C454 1.391 . S
H456 C464 0.950 . S
H457 C469 0.950 . S
H458 C466 0.950 . S
H459 C468 0.950 . S
H460 C470 0.950 . S
H461 C472 0.950 . S
H462 C474 0.950 . S
H463 C475 0.950 . S
C464 H456 0.950 . S
C464 C465 1.386 . S
C464 C466 1.391 . S
C465 C464 1.386 . S
C465 C469 1.393 . S
C466 H458 0.950 . S
C466 C464 1.391 . S
C466 C467 1.400 . S
C467 C466 1.400 . S
C467 C468 1.398 . S
C467 C473 1.491 . S
C468 H459 0.950 . S
C468 C467 1.398 . S
C468 C469 1.391 . S
C469 H457 0.950 . S
C469 C465 1.393 . S
C469 C468 1.391 . S
C470 H460 0.950 . S
C470 C471 1.386 . S
C470 C472 1.391 . S
C471 C470 1.386 . S
C471 C475 1.393 . S
C472 H461 0.950 . S
C472 C470 1.391 . S
C472 C473 1.400 . S
C473 C467 1.491 . S
C473 C472 1.400 . S
C473 C474 1.398 . S
C474 H462 0.950 . S
C474 C473 1.398 . S
C474 C475 1.391 . S
C475 H463 0.950 . S
C475 C471 1.393 . S
C475 C474 1.391 . S
H476 C484 0.950 . S
H477 C489 0.950 . S
H478 C486 0.950 . S
H479 C488 0.950 . S
H480 C490 0.950 . S
H481 C492 0.950 . S
H482 C494 0.950 . S
H483 C495 0.950 . S
C484 H476 0.950 . S
C484 C485 1.386 . S
C484 C486 1.391 . S
C485 C484 1.386 . S
C485 C489 1.393 . S
C486 H478 0.950 . S
C486 C484 1.391 . S
C486 C487 1.400 . S
C487 C486 1.400 . S
C487 C488 1.398 . S
C487 C493 1.491 . S
C488 H479 0.950 . S
C488 C487 1.398 . S
C488 C489 1.391 . S
C489 H477 0.950 . S
C489 C485 1.393 . S
C489 C488 1.391 . S
C490 H480 0.950 . S
C490 C491 1.386 . S
C490 C492 1.391 . S
C491 C490 1.386 . S
C491 C495 1.393 . S
C492 H481 0.950 . S
C492 C490 1.391 . S
C492 C493 1.400 . S
C493 C487 1.491 . S
C493 C492 1.400 . S
C493 C494 1.398 . S
C494 H482 0.950 . S
C494 C493 1.398 . S
C494 C495 1.391 . S
C495 H483 0.950 . S
C495 C491 1.393 . S
C495 C494 1.391 . S
H496 C504 0.950 . S
H497 C509 0.950 . S
H498 C506 0.950 . S
H499 C508 0.950 . S
H500 C510 0.950 . S
H501 C512 0.950 . S
H502 C514 0.950 . S
H503 C515 0.950 . S
C504 H496 0.950 . S
C504 C505 1.386 . S
C504 C506 1.391 . S
C505 C504 1.386 . S
C505 C509 1.393 . S
C506 H498 0.950 . S
C506 C504 1.391 . S
C506 C507 1.400 . S
C507 C506 1.400 . S
C507 C508 1.398 . S
C507 C513 1.491 . S
C508 H499 0.950 . S
C508 C507 1.398 . S
C508 C509 1.391 . S
C509 H497 0.950 . S
C509 C505 1.393 . S
C509 C508 1.391 . S
C510 H500 0.950 . S
C510 C511 1.386 . S
C510 C512 1.391 . S
C511 C510 1.386 . S
C511 C515 1.393 . S
C512 H501 0.950 . S
C512 C510 1.391 . S
C512 C513 1.400 . S
C513 C507 1.491 . S
C513 C512 1.400 . S
C513 C514 1.398 . S
C514 H502 0.950 . S
C514 C513 1.398 . S
C514 C515 1.391 . S
C515 H503 0.950 . S
C515 C511 1.393 . S
C515 C514 1.391 . S
H516 C524 0.950 . S
H517 C529 0.950 . S
H518 C526 0.950 . S
H519 C528 0.950 . S
H520 C530 0.950 . S
H521 C532 0.950 . S
H522 C534 0.950 . S
H523 C535 0.950 . S
C524 H516 0.950 . S
C524 C525 1.386 . S
C524 C526 1.391 . S
C525 C524 1.386 . S
C525 C529 1.393 . S
C526 H518 0.950 . S
C526 C524 1.391 . S
C526 C527 1.400 . S
C527 C526 1.400 . S
C527 C528 1.398 . S
C527 C533 1.491 . S
C528 H519 0.950 . S
C528 C527 1.398 . S
C528 C529 1.391 . S
C529 H517 0.950 . S
C529 C525 1.393 . S
C529 C528 1.391 . S
C530 H520 0.950 . S
C530 C531 1.386 . S
C530 C532 1.391 . S
C531 C530 1.386 . S
C531 C535 1.393 . S
C532 H521 0.950 . S
C532 C530 1.391 . S
C532 C533 1.400 . S
C533 C527 1.491 . S
C533 C532 1.400 . S
C533 C534 1.398 . S
C534 H522 0.950 . S
C534 C533 1.398 . S
C534 C535 1.391 . S
C535 H523 0.950 . S
C535 C531 1.393 . S
C535 C534 1.391 . S
H536 C544 0.950 . S
H537 C549 0.950 . S
H538 C546 0.950 . S
H539 C548 0.950 . S
H540 C550 0.950 . S
H541 C552 0.950 . S
H542 C554 0.950 . S
H543 C555 0.950 . S
C544 H536 0.950 . S
C544 C545 1.386 . S
C544 C546 1.391 . S
C545 C544 1.386 . S
C545 C549 1.393 . S
C546 H538 0.950 . S
C546 C544 1.391 . S
C546 C547 1.400 . S
C547 C546 1.400 . S
C547 C548 1.398 . S
C547 C553 1.491 . S
C548 H539 0.950 . S
C548 C547 1.398 . S
C548 C549 1.391 . S
C549 H537 0.950 . S
C549 C545 1.393 . S
C549 C548 1.391 . S
C550 H540 0.950 . S
C550 C551 1.386 . S
C550 C552 1.391 . S
C551 C550 1.386 . S
C551 C555 1.393 . S
C552 H541 0.950 . S
C552 C550 1.391 . S
C552 C553 1.400 . S
C553 C547 1.491 . S
C553 C552 1.400 . S
C553 C554 1.398 . S
C554 H542 0.950 . S
C554 C553 1.398 . S
C554 C555 1.391 . S
C555 H543 0.950 . S
C555 C551 1.393 . S
C555 C554 1.391 . S
H556 C564 0.950 . S
H557 C569 0.950 . S
H558 C566 0.950 . S
H559 C568 0.950 . S
H560 C570 0.950 . S
H561 C572 0.950 . S
H562 C574 0.950 . S
H563 C575 0.950 . S
C564 H556 0.950 . S
C564 C565 1.386 . S
C564 C566 1.391 . S
C565 C564 1.386 . S
C565 C569 1.393 . S
C566 H558 0.950 . S
C566 C564 1.391 . S
C566 C567 1.400 . S
C567 C566 1.400 . S
C567 C568 1.398 . S
C567 C573 1.491 . S
C568 H559 0.950 . S
C568 C567 1.398 . S
C568 C569 1.391 . S
C569 H557 0.950 . S
C569 C565 1.393 . S
C569 C568 1.391 . S
C570 H560 0.950 . S
C570 C571 1.386 . S
C570 C572 1.391 . S
C571 C570 1.386 . S
C571 C575 1.393 . S
C572 H561 0.950 . S
C572 C570 1.391 . S
C572 C573 1.400 . S
C573 C567 1.491 . S
C573 C572 1.400 . S
C573 C574 1.398 . S
C574 H562 0.950 . S
C574 C573 1.398 . S
C574 C575 1.391 . S
C575 H563 0.950 . S
C575 C571 1.393 . S
C575 C574 1.391 . S
H576 C584 0.950 . S
H577 C589 0.950 . S
H578 C586 0.950 . S
H579 C588 0.950 . S
H580 C590 0.950 . S
H581 C592 0.950 . S
H582 C594 0.950 . S
H583 C595 0.940 1_655 S
C584 H576 0.950 . S
C584 C585 1.386 . S
C584 C586 1.391 . S
C585 C584 1.386 . S
C585 C589 1.393 . S
C586 H578 0.950 . S
C586 C584 1.391 . S
C586 C587 1.400 . S
C587 C586 1.400 . S
C587 C588 1.398 . S
C587 C593 1.491 . S
C588 H579 0.950 . S
C588 C587 1.398 . S
C588 C589 1.391 . S
C589 H577 0.950 . S
C589 C585 1.393 . S
C589 C588 1.391 . S
C590 H580 0.950 . S
C590 C591 1.386 . S
C590 C592 1.391 . S
C591 C590 1.386 . S
C591 C595 1.393 . S
C592 H581 0.950 . S
C592 C590 1.391 . S
C592 C593 1.400 . S
C593 C587 1.491 . S
C593 C592 1.400 . S
C593 C594 1.398 . S
C594 H582 0.950 . S
C594 C593 1.398 . S
C594 C595 1.391 . S
C595 H583 0.940 1_455 S
C595 C591 1.393 . S
C595 C594 1.391 . S
H596 C604 0.950 . S
H597 C609 0.950 1_565 S
H598 C606 0.950 . S
H599 C608 0.950 1_565 S
H600 C610 0.950 1_565 S
H601 C612 0.950 1_565 S
H602 C614 0.950 . S
H603 C615 0.950 . S
C604 H596 0.950 . S
C604 C605 1.386 . S
C604 C606 1.391 . S
C605 C604 1.386 . S
C605 C609 1.393 . S
C606 H598 0.950 . S
C606 C604 1.391 . S
C606 C607 1.400 . S
C607 C606 1.400 . S
C607 C608 1.398 . S
C607 C613 1.491 . S
C608 H599 0.950 1_545 S
C608 C607 1.398 . S
C608 C609 1.391 . S
C609 H597 0.950 1_545 S
C609 C605 1.393 . S
C609 C608 1.391 . S
C610 H600 0.950 1_545 S
C610 C611 1.386 . S
C610 C612 1.391 . S
C611 C610 1.386 . S
C611 C615 1.393 . S
C612 H601 0.950 1_545 S
C612 C610 1.391 . S
C612 C613 1.400 . S
C613 C607 1.491 . S
C613 C612 1.400 . S
C613 C614 1.398 . S
C614 H602 0.950 . S
C614 C613 1.398 . S
C614 C615 1.391 . S
C615 H603 0.950 . S
C615 C611 1.393 . S
C615 C614 1.391 . S
H616 C624 0.950 . S
H617 C629 0.950 . S
H618 C626 0.950 . S
H619 C628 0.950 . S
H620 C630 0.950 . S
H621 C632 0.950 . S
H622 C634 0.950 . S
H623 C635 0.950 . S
C624 H616 0.950 . S
C624 C625 1.386 . S
C624 C626 1.391 . S
C625 C624 1.386 . S
C625 C629 1.393 . S
C626 H618 0.950 . S
C626 C624 1.391 . S
C626 C627 1.400 . S
C627 C626 1.400 . S
C627 C628 1.398 . S
C627 C633 1.491 . S
C628 H619 0.950 . S
C628 C627 1.398 . S
C628 C629 1.391 . S
C629 H617 0.950 . S
C629 C625 1.393 . S
C629 C628 1.391 . S
C630 H620 0.950 . S
C630 C631 1.386 . S
C630 C632 1.391 . S
C631 C630 1.386 . S
C631 C635 1.393 . S
C632 H621 0.950 . S
C632 C630 1.391 . S
C632 C633 1.400 . S
C633 C627 1.491 . S
C633 C632 1.400 . S
C633 C634 1.398 . S
C634 H622 0.950 . S
C634 C633 1.398 . S
C634 C635 1.391 . S
C635 H623 0.950 . S
C635 C631 1.393 . S
C635 C634 1.391 . S
H636 C644 0.950 . S
H637 C649 0.950 . S
H638 C646 0.950 . S
H639 C648 0.950 . S
H640 C650 0.950 . S
H641 C652 0.950 . S
H642 C654 0.950 . S
H643 C655 0.944 1_565 S
C644 H636 0.950 . S
C644 C645 1.386 . S
C644 C646 1.391 . S
C645 C644 1.386 . S
C645 C649 1.393 . S
C646 H638 0.950 . S
C646 C644 1.391 . S
C646 C647 1.400 . S
C647 C646 1.400 . S
C647 C648 1.398 . S
C647 C653 1.491 . S
C648 H639 0.950 . S
C648 C647 1.398 . S
C648 C649 1.391 . S
C649 H637 0.950 . S
C649 C645 1.393 . S
C649 C648 1.391 . S
C650 H640 0.950 . S
C650 C651 1.386 . S
C650 C652 1.391 . S
C651 C650 1.386 . S
C651 C655 1.393 . S
C652 H641 0.950 . S
C652 C650 1.391 . S
C652 C653 1.400 . S
C653 C647 1.491 . S
C653 C652 1.400 . S
C653 C654 1.398 . S
C654 H642 0.950 . S
C654 C653 1.398 . S
C654 C655 1.391 . S
C655 H643 0.944 1_545 S
C655 C651 1.393 . S
C655 C654 1.391 . S
H656 C664 0.950 . S
H657 C669 0.950 . S
H658 C666 0.950 . S
H659 C668 0.950 . S
H660 C670 0.950 . S
H661 C672 0.950 . S
H662 C674 0.950 . S
H663 C675 0.950 . S
C664 H656 0.950 . S
C664 C665 1.386 . S
C664 C666 1.391 . S
C665 C664 1.386 . S
C665 C669 1.393 . S
C666 H658 0.950 . S
C666 C664 1.391 . S
C666 C667 1.400 . S
C667 C666 1.400 . S
C667 C668 1.398 . S
C667 C673 1.491 . S
C668 H659 0.950 . S
C668 C667 1.398 . S
C668 C669 1.391 . S
C669 H657 0.950 . S
C669 C665 1.393 . S
C669 C668 1.391 . S
C670 H660 0.950 . S
C670 C671 1.383 . S
C670 C672 1.391 . S
C671 C670 1.383 . S
C671 C675 1.390 . S
C672 H661 0.950 . S
C672 C670 1.391 . S
C672 C673 1.400 . S
C673 C667 1.491 . S
C673 C672 1.400 . S
C673 C674 1.398 . S
C674 H662 0.950 . S
C674 C673 1.398 . S
C674 C675 1.391 . S
C675 H663 0.950 . S
C675 C671 1.390 . S
C675 C674 1.391 . S
H676 C684 0.950 1_655 S
H677 C689 0.950 . S
H678 C686 0.950 1_655 S
H679 C688 0.950 . S
H680 C690 0.950 . S
H681 C692 0.950 . S
H682 C694 0.950 1_655 S
H683 C695 0.950 1_655 S
C684 H676 0.950 1_455 S
C684 C685 1.386 . S
C684 C686 1.391 . S
C685 C684 1.386 . S
C685 C689 1.393 . S
C686 H678 0.950 1_455 S
C686 C684 1.391 . S
C686 C687 1.400 . S
C687 C686 1.400 . S
C687 C688 1.398 . S
C687 C693 1.491 . S
C688 H679 0.950 . S
C688 C687 1.398 . S
C688 C689 1.391 . S
C689 H677 0.950 . S
C689 C685 1.393 . S
C689 C688 1.391 . S
C690 H680 0.950 . S
C690 C691 1.386 . S
C690 C692 1.391 . S
C691 C690 1.386 . S
C691 C695 1.393 . S
C692 H681 0.950 . S
C692 C690 1.391 . S
C692 C693 1.400 . S
C693 C687 1.491 . S
C693 C692 1.400 . S
C693 C694 1.398 . S
C694 H682 0.950 1_455 S
C694 C693 1.398 . S
C694 C695 1.391 . S
C695 H683 0.950 1_455 S
C695 C691 1.393 . S
C695 C694 1.391 . S
C345 C19 2.988 . S
C351 C325 2.926 . S
C365 C49 3.077 . S
C371 C253 3.000 . S
C385 C99 2.987 . S
C391 C289 2.927 . S
C405 C9 3.077 . S
C411 C301 3.038 . S
C431 C229 2.956 . S
C425 C59 2.988 . S
C451 C265 3.033 . S
C445 C89 3.074 . S
C465 C55 0.369 . S
C471 C181 0.376 . S
C485 C85 0.418 . S
C491 C193 0.283 . S
C505 C15 0.366 . S
C511 C121 0.363 . S
C531 C157 0.281 . S
C525 C45 0.426 . S
C551 C217 0.390 . S
C545 C95 0.413 . S
C565 C5 0.397 . S
C571 C145 0.326 . S
C591 C223 1.075 1_554 S
C585 C18 1.053 . S
C605 C58 1.043 . S
C611 C151 1.078 . S
C625 C98 1.061 . S
C631 C187 1.075 . S
C651 C295 1.794 . S
C645 C48 1.709 . S
C671 C331 1.793 1_556 S
C665 C88 1.708 . S
C685 C8 1.699 . S
C691 C259 1.795 . S
