# Generated by pormake.
# Topology zzz, (3,6)-cn, num edge types: 1
# Building blocks:
#     Node 0, Type 0, BuildingBlock: MIDCAF_clean_linker_0, # of connection points: 3
#     Node 1, Type 0, BuildingBlock: MIDCAF_clean_linker_0, # of connection points: 3
#     Node 2, Type 0, BuildingBlock: MIDCAF_clean_linker_0, # of connection points: 3
#     Node 3, Type 0, BuildingBlock: MIDCAF_clean_linker_0, # of connection points: 3
#     Node 4, Type 0, BuildingBlock: MIDCAF_clean_linker_0, # of connection points: 3
#     Node 5, Type 0, BuildingBlock: MIDCAF_clean_linker_0, # of connection points: 3
#     Node 6, Type 0, BuildingBlock: MIDCAF_clean_linker_0, # of connection points: 3
#     Node 7, Type 0, BuildingBlock: MIDCAF_clean_linker_0, # of connection points: 3
#     Node 8, Type 1, BuildingBlock: CUKXOW_clean_sbu_0, # of connection points: 6
#     Node 9, Type 1, BuildingBlock: CUKXOW_clean_sbu_0, # of connection points: 6
#     Node 10, Type 1, BuildingBlock: CUKXOW_clean_sbu_0, # of connection points: 6
#     Node 11, Type 1, BuildingBlock: CUKXOW_clean_sbu_0, # of connection points: 6
#     Edge 12, Type (0, 1), BuildingBlock: ZUJKAS_clean_linker_0, # of connection points: 2
#     Edge 13, Type (0, 1), BuildingBlock: ZUJKAS_clean_linker_0, # of connection points: 2
#     Edge 14, Type (0, 1), BuildingBlock: ZUJKAS_clean_linker_0, # of connection points: 2
#     Edge 15, Type (0, 1), BuildingBlock: ZUJKAS_clean_linker_0, # of connection points: 2
#     Edge 16, Type (0, 1), BuildingBlock: ZUJKAS_clean_linker_0, # of connection points: 2
#     Edge 17, Type (0, 1), BuildingBlock: ZUJKAS_clean_linker_0, # of connection points: 2
#     Edge 18, Type (0, 1), BuildingBlock: ZUJKAS_clean_linker_0, # of connection points: 2
#     Edge 19, Type (0, 1), BuildingBlock: ZUJKAS_clean_linker_0, # of connection points: 2
#     Edge 20, Type (0, 1), BuildingBlock: ZUJKAS_clean_linker_0, # of connection points: 2
#     Edge 21, Type (0, 1), BuildingBlock: ZUJKAS_clean_linker_0, # of connection points: 2
#     Edge 22, Type (0, 1), BuildingBlock: ZUJKAS_clean_linker_0, # of connection points: 2
#     Edge 23, Type (0, 1), BuildingBlock: ZUJKAS_clean_linker_0, # of connection points: 2
#     Edge 24, Type (0, 1), BuildingBlock: ZUJKAS_clean_linker_0, # of connection points: 2
#     Edge 25, Type (0, 1), BuildingBlock: ZUJKAS_clean_linker_0, # of connection points: 2
#     Edge 26, Type (0, 1), BuildingBlock: ZUJKAS_clean_linker_0, # of connection points: 2
#     Edge 27, Type (0, 1), BuildingBlock: ZUJKAS_clean_linker_0, # of connection points: 2
#     Edge 28, Type (0, 1), BuildingBlock: ZUJKAS_clean_linker_0, # of connection points: 2
#     Edge 29, Type (0, 1), BuildingBlock: ZUJKAS_clean_linker_0, # of connection points: 2
#     Edge 30, Type (0, 1), BuildingBlock: ZUJKAS_clean_linker_0, # of connection points: 2
#     Edge 31, Type (0, 1), BuildingBlock: ZUJKAS_clean_linker_0, # of connection points: 2
#     Edge 32, Type (0, 1), BuildingBlock: ZUJKAS_clean_linker_0, # of connection points: 2
#     Edge 33, Type (0, 1), BuildingBlock: ZUJKAS_clean_linker_0, # of connection points: 2
#     Edge 34, Type (0, 1), BuildingBlock: ZUJKAS_clean_linker_0, # of connection points: 2
#     Edge 35, Type (0, 1), BuildingBlock: ZUJKAS_clean_linker_0, # of connection points: 2
# Relax obj value: 0.219
# Max RMSD: 0.233
# Mean RMSD: 0.189
data_MOF--net-zzz--node1-CUKXOW_clean_sbu_0--node2-MIDCAF_clean_linker_0--edge1-ZUJKAS_clean_linker_0
_symmetry_space_group_name_H-M    P1
_symmetry_Int_Tables_number       1
_symmetry_cell_setting            triclinic
loop_
_symmetry_equiv_pos_as_xyz
'x, y, z'
_cell_length_a     72.528947
_cell_length_b     70.33755
_cell_length_c     25.272499
_cell_angle_alpha  92.183588
_cell_angle_beta   88.597245
_cell_angle_gamma 95.36995
loop_
_atom_site_label
_atom_site_type_symbol
_atom_site_fract_x
_atom_site_fract_y
_atom_site_fract_z
_atom_type_partial_charge
C0 C 0.80502 0.44288 0.24713 0.0
C1 C 0.79652 0.45168 0.29089 0.0
C2 C 0.77848 0.45716 0.28547 0.0
C3 C 0.76932 0.45407 0.23711 0.0
H4 H 0.72388 0.47124 0.137 0.0
H5 H 0.69354 0.48068 0.11236 0.0
H6 H 0.69205 0.4394 0.98127 0.0
H7 H 0.72204 0.4301 0.00543 0.0
H8 H 0.76993 0.44504 0.94587 0.0
H9 H 0.79292 0.44158 0.87446 0.0
H10 H 0.82562 0.41157 0.9783 0.0
H11 H 0.80289 0.4152 0.04975 0.0
H12 H 0.80323 0.43313 0.16667 0.0
H13 H 0.81903 0.43885 0.24914 0.0
H14 H 0.77148 0.46389 0.31849 0.0
H15 H 0.75556 0.45867 0.23392 0.0
N16 N 0.75172 0.44749 0.13258 0.0
N17 N 0.75508 0.43963 0.04168 0.0
N18 N 0.7796 0.43713 0.09836 0.0
C19 C 0.74446 0.44549 0.08313 0.0
C20 C 0.77264 0.4354 0.04904 0.0
C21 C 0.76937 0.44314 0.14039 0.0
C22 C 0.72537 0.45002 0.07296 0.0
C23 C 0.71689 0.46403 0.10346 0.0
C24 C 0.69962 0.4695 0.0892 0.0
C25 C 0.69043 0.46075 0.04493 0.0
C26 C 0.69866 0.44625 0.0159 0.0
C27 C 0.71593 0.44103 0.02956 0.0
C28 C 0.78473 0.43057 0.00355 0.0
C29 C 0.78182 0.43734 0.95307 0.0
C30 C 0.79497 0.43541 0.91226 0.0
C31 C 0.81101 0.42634 0.92099 0.0
C32 C 0.81328 0.41847 0.97037 0.0
C33 C 0.80034 0.42068 0.01138 0.0
C34 C 0.77807 0.44552 0.19321 0.0
C35 C 0.79594 0.43978 0.19928 0.0
C36 C 0.89564 0.80572 0.23914 0.0
C37 C 0.90546 0.79738 0.27807 0.0
C38 C 0.91073 0.77879 0.26812 0.0
C39 C 0.9071 0.7692 0.21927 0.0
H40 H 0.91847 0.72025 0.12027 0.0
H41 H 0.929 0.68954 0.09028 0.0
H42 H 0.90033 0.69267 0.94342 0.0
H43 H 0.89036 0.72345 0.97255 0.0
H44 H 0.90333 0.76837 0.92755 0.0
H45 H 0.91152 0.79237 0.86181 0.0
H46 H 0.89797 0.8367 0.97523 0.0
H47 H 0.88946 0.81285 0.04045 0.0
H48 H 0.88506 0.80346 0.16098 0.0
H49 H 0.89155 0.82008 0.24491 0.0
H50 H 0.91812 0.77186 0.29753 0.0
H51 H 0.912 0.75524 0.21199 0.0
N52 N 0.89979 0.75113 0.11339 0.0
N53 N 0.89775 0.75634 0.02246 0.0
N54 N 0.89494 0.7815 0.08418 0.0
C55 C 0.89982 0.74428 0.0622 0.0
C56 C 0.89533 0.77498 0.03306 0.0
C57 C 0.89705 0.76977 0.12459 0.0
C58 C 0.90382 0.72441 0.04847 0.0
C59 C 0.9142 0.71421 0.08194 0.0
C60 C 0.92021 0.69659 0.06476 0.0
C61 C 0.91581 0.6888 0.01399 0.0
C62 C 0.90444 0.6985 0.9821 0.0
C63 C 0.89862 0.71611 0.99897 0.0
C64 C 0.89614 0.78871 0.98978 0.0
C65 C 0.90161 0.78318 0.93809 0.0
C66 C 0.9064 0.79694 0.9004 0.0
C67 C 0.90571 0.81646 0.91354 0.0
C68 C 0.8986 0.82179 0.96362 0.0
C69 C 0.89386 0.80808 0.00129 0.0
C70 C 0.89825 0.7781 0.17934 0.0
C71 C 0.89208 0.79621 0.19056 0.0
C72 C 0.70424 0.96077 0.32364 0.0
C73 C 0.70931 0.97662 0.35749 0.0
C74 C 0.72458 0.98936 0.34305 0.0
C75 C 0.73369 0.98704 0.29396 0.0
H76 H 0.78736 0.9781 0.18608 0.0
H77 H 0.81897 0.98477 0.15066 0.0
H78 H 0.79705 0.99863 0.00099 0.0
H79 H 0.76577 0.99222 0.03597 0.0
H80 H 0.72512 0.9788 0.00755 0.0
H81 H 0.69925 0.98015 0.94843 0.0
H82 H 0.66105 0.96115 0.07355 0.0
H83 H 0.68678 0.9594 0.13226 0.0
H84 H 0.70805 0.947 0.24785 0.0
H85 H 0.69244 0.95079 0.33311 0.0
H86 H 0.72887 0.00164 0.36852 0.0
H87 H 0.7446 0.99773 0.28218 0.0
N88 N 0.75066 0.97772 0.1857 0.0
N89 N 0.74102 0.97606 0.0973 0.0
N90 N 0.71946 0.96922 0.1656 0.0
C91 C 0.7548 0.97927 0.13301 0.0
C92 C 0.72332 0.97101 0.11327 0.0
C93 C 0.73293 0.97253 0.20196 0.0
C94 C 0.77402 0.98451 0.11381 0.0
C95 C 0.78932 0.98278 0.14583 0.0
C96 C 0.80741 0.9865 0.12551 0.0
C97 C 0.81049 0.99225 0.07308 0.0
C98 C 0.79517 0.99447 0.04175 0.0
C99 C 0.77719 0.99061 0.06176 0.0
C100 C 0.70804 0.96926 0.07498 0.0
C101 C 0.71124 0.97458 0.02223 0.0
C102 C 0.69641 0.97545 0.98838 0.0
C103 C 0.6781 0.97096 0.00649 0.0
C104 C 0.67499 0.96457 0.05821 0.0
C105 C 0.68979 0.96373 0.09205 0.0
C106 C 0.72742 0.97213 0.25844 0.0
C107 C 0.71313 0.95863 0.27459 0.0
C108 C 0.62384 0.68221 0.00029 0.0
C109 C 0.61327 0.68424 0.95525 0.0
C110 C 0.60832 0.70251 0.9441 0.0
C111 C 0.61239 0.71798 0.97954 0.0
H112 H 0.624 0.77948 0.00902 0.0
H113 H 0.61335 0.80901 0.98019 0.0
H114 H 0.58488 0.81645 0.1306 0.0
H115 H 0.5959 0.78678 0.16018 0.0
H116 H 0.59635 0.74876 0.24496 0.0
H117 H 0.58922 0.73161 0.32673 0.0
H118 H 0.62977 0.69241 0.28158 0.0
H119 H 0.63693 0.70951 0.20094 0.0
H120 H 0.63485 0.69527 0.07207 0.0
H121 H 0.62836 0.66848 0.00932 0.0
H122 H 0.60009 0.70466 0.91002 0.0
H123 H 0.60729 0.73153 0.97138 0.0
N124 N 0.61799 0.74835 0.0602 0.0
N125 N 0.61488 0.75569 0.15136 0.0
N126 N 0.62167 0.72503 0.12138 0.0
C127 C 0.61503 0.76125 0.1002 0.0
C128 C 0.61854 0.73757 0.16204 0.0
C129 C 0.6213 0.73023 0.07042 0.0
C130 C 0.61055 0.7806 0.08664 0.0
C131 C 0.61561 0.78745 0.03631 0.0
C132 C 0.60945 0.80438 0.01963 0.0
C133 C 0.59795 0.81488 0.05265 0.0
C134 C 0.59374 0.80867 0.10424 0.0
C135 C 0.60003 0.79168 0.12115 0.0
C136 C 0.61706 0.73036 0.21636 0.0
C137 C 0.60411 0.73684 0.25345 0.0
C138 C 0.59992 0.72691 0.29998 0.0
C139 C 0.6088 0.71052 0.31045 0.0
C140 C 0.62275 0.70503 0.27513 0.0
C141 C 0.62678 0.71478 0.22863 0.0
C142 C 0.62127 0.71543 0.02722 0.0
C143 C 0.62767 0.69761 0.03612 0.0
C144 C 0.21187 0.5646 0.08921 0.0
C145 C 0.21779 0.55042 0.05377 0.0
C146 C 0.23359 0.54137 0.06632 0.0
C147 C 0.24266 0.54582 0.11435 0.0
H148 H 0.29128 0.54012 0.21336 0.0
H149 H 0.3214 0.53207 0.24368 0.0
H150 H 0.31221 0.56215 0.39277 0.0
H151 H 0.28268 0.57036 0.36284 0.0
H152 H 0.24074 0.57213 0.403 0.0
H153 H 0.21669 0.57628 0.47061 0.0
H154 H 0.17776 0.58394 0.34811 0.0
H155 H 0.20168 0.58045 0.28123 0.0
H156 H 0.2154 0.57961 0.16348 0.0
H157 H 0.19962 0.57171 0.0818 0.0
H158 H 0.23867 0.53051 0.03969 0.0
H159 H 0.2543 0.53811 0.12401 0.0
N160 N 0.26026 0.5578 0.21839 0.0
N161 N 0.25388 0.56642 0.30746 0.0
N162 N 0.23148 0.56836 0.24383 0.0
C163 C 0.26582 0.56021 0.26967 0.0
C164 C 0.23669 0.57051 0.29488 0.0
C165 C 0.24304 0.56211 0.20532 0.0
C166 C 0.28449 0.55584 0.28563 0.0
C167 C 0.29581 0.54514 0.25238 0.0
C168 C 0.31299 0.54044 0.26983 0.0
C169 C 0.31924 0.54656 0.32052 0.0
C170 C 0.308 0.55747 0.35319 0.0
C171 C 0.29091 0.56203 0.33605 0.0
C172 C 0.2231 0.57566 0.33654 0.0
C173 C 0.22714 0.57508 0.3906 0.0
C174 C 0.21333 0.57737 0.42939 0.0
C175 C 0.19523 0.58031 0.41489 0.0
C176 C 0.19156 0.58197 0.36098 0.0
C177 C 0.20531 0.57974 0.32238 0.0
C178 C 0.23598 0.5593 0.15074 0.0
C179 C 0.22085 0.56901 0.13672 0.0
C180 C 0.11803 0.19969 0.11914 0.0
C181 C 0.1079 0.20725 0.07952 0.0
C182 C 0.10136 0.22534 0.08886 0.0
C183 C 0.10412 0.23517 0.13777 0.0
H184 H 0.09663 0.28665 0.2288 0.0
H185 H 0.08757 0.31852 0.25336 0.0
H186 H 0.10448 0.31182 0.41376 0.0
H187 H 0.11372 0.28037 0.38944 0.0
H188 H 0.10426 0.23679 0.4295 0.0
H189 H 0.09604 0.21285 0.49543 0.0
H190 H 0.11151 0.16864 0.38418 0.0
H191 H 0.12006 0.19243 0.31888 0.0
H192 H 0.12794 0.20274 0.19806 0.0
H193 H 0.12309 0.18573 0.11373 0.0
H194 H 0.09367 0.23163 0.05892 0.0
H195 H 0.09827 0.24868 0.14462 0.0
N196 N 0.11061 0.25396 0.24355 0.0
N197 N 0.11102 0.2488 0.33486 0.0
N198 N 0.11493 0.22361 0.27398 0.0
C199 C 0.10966 0.26085 0.29461 0.0
C200 C 0.11366 0.23016 0.32492 0.0
C201 C 0.11351 0.23532 0.23309 0.0
C202 C 0.10578 0.28087 0.30721 0.0
C203 C 0.09866 0.29211 0.26909 0.0
C204 C 0.09336 0.31031 0.28321 0.0
C205 C 0.09528 0.31769 0.33553 0.0
C206 C 0.10302 0.30669 0.37298 0.0
C207 C 0.10818 0.28854 0.35905 0.0
C208 C 0.11244 0.2165 0.3684 0.0
C209 C 0.10636 0.22203 0.41951 0.0
C210 C 0.10156 0.2083 0.45728 0.0
C211 C 0.10284 0.18881 0.44481 0.0
C212 C 0.11043 0.18352 0.39531 0.0
C213 C 0.11519 0.19721 0.35757 0.0
C214 C 0.11329 0.22697 0.17836 0.0
C215 C 0.12067 0.20941 0.16785 0.0
C216 C 0.30197 0.0399 0.01925 0.0
C217 C 0.29922 0.02172 0.99413 0.0
C218 C 0.2863 0.00791 0.01628 0.0
C219 C 0.27732 0.01181 0.06468 0.0
H220 H 0.2235 0.01965 0.16945 0.0
H221 H 0.19212 0.01612 0.20787 0.0
H222 H 0.21398 0.03222 0.36224 0.0
H223 H 0.24506 0.03596 0.3244 0.0
H224 H 0.28748 0.03707 0.3443 0.0
H225 H 0.31357 0.03583 0.40267 0.0
H226 H 0.35093 0.03663 0.26674 0.0
H227 H 0.32512 0.03845 0.20876 0.0
H228 H 0.29685 0.05721 0.0886 0.0
H229 H 0.312 0.05074 0.00353 0.0
H230 H 0.28394 0.99379 0.99767 0.0
H231 H 0.26842 0.00056 0.08292 0.0
N232 N 0.25937 0.02897 0.16804 0.0
N233 N 0.27056 0.03367 0.25458 0.0
N234 N 0.29129 0.03493 0.18238 0.0
C235 C 0.25603 0.03036 0.22133 0.0
C236 C 0.28823 0.03591 0.23543 0.0
C237 C 0.27704 0.03152 0.14862 0.0
C238 C 0.23687 0.02812 0.24371 0.0
C239 C 0.2216 0.02249 0.21155 0.0
C240 C 0.20363 0.02038 0.23355 0.0
C241 C 0.20057 0.02401 0.28801 0.0
C242 C 0.21583 0.02962 0.32 0.0
C243 C 0.23371 0.03162 0.29821 0.0
C244 C 0.30412 0.03762 0.27169 0.0
C245 C 0.30129 0.03729 0.32691 0.0
C246 C 0.31624 0.03648 0.3604 0.0
C247 C 0.33434 0.03594 0.3394 0.0
C248 C 0.33724 0.03724 0.28443 0.0
C249 C 0.32234 0.03813 0.25103 0.0
C250 C 0.28145 0.02941 0.09181 0.0
C251 C 0.29333 0.04362 0.06794 0.0
C252 C 0.3948 0.32501 0.34639 0.0
C253 C 0.4051 0.32278 0.39185 0.0
C254 C 0.41022 0.3045 0.40222 0.0
C255 C 0.40638 0.28921 0.36606 0.0
H256 H 0.39688 0.22917 0.34114 0.0
H257 H 0.40547 0.19847 0.36688 0.0
H258 H 0.42469 0.1865 0.20701 0.0
H259 H 0.41631 0.21774 0.18102 0.0
H260 H 0.42084 0.25841 0.10061 0.0
H261 H 0.42687 0.2751 0.01754 0.0
H262 H 0.38493 0.31277 0.06195 0.0
H263 H 0.37904 0.29629 0.14442 0.0
H264 H 0.38409 0.31226 0.27389 0.0
H265 H 0.39017 0.33875 0.33785 0.0
H266 H 0.41829 0.30221 0.43652 0.0
H267 H 0.41146 0.27562 0.37393 0.0
N268 N 0.40014 0.25885 0.2856 0.0
N269 N 0.40195 0.25107 0.19445 0.0
N270 N 0.39634 0.2821 0.22427 0.0
C271 C 0.4023 0.24568 0.24568 0.0
C272 C 0.39868 0.26929 0.1837 0.0
C273 C 0.39716 0.27706 0.27528 0.0
C274 C 0.40604 0.22605 0.25903 0.0
C275 C 0.40281 0.22002 0.31114 0.0
C276 C 0.40758 0.20226 0.32589 0.0
C277 C 0.41574 0.18997 0.28902 0.0
C278 C 0.41854 0.19571 0.23644 0.0
C279 C 0.41365 0.21355 0.2215 0.0
C280 C 0.39957 0.27616 0.12905 0.0
C281 C 0.41256 0.26989 0.09176 0.0
C282 C 0.4161 0.27952 0.04447 0.0
C283 C 0.40645 0.29532 0.03338 0.0
C284 C 0.39249 0.30058 0.06903 0.0
C285 C 0.38919 0.29119 0.11645 0.0
C286 C 0.39756 0.29192 0.31838 0.0
C287 C 0.39121 0.30979 0.30985 0.0
Tb288 Tb 0.99605 0.98609 0.64528 0.0
C289 C 0.03604 0.00261 0.61247 0.0
Tb290 Tb 0.01637 0.01761 0.71847 0.0
O291 O 0.99514 0.00623 0.58144 0.0
O292 O 0.99588 0.01577 0.6601 0.0
O293 O 0.0235 0.98763 0.60839 0.0
C294 C 0.03365 0.0498 0.75949 0.0
O295 O 0.03479 0.0167 0.64864 0.0
C296 C 0.01545 0.98238 0.75038 0.0
C297 C 0.9761 0.0017 0.75021 0.0
O298 O 0.04083 0.03361 0.7531 0.0
O299 O 0.01671 0.04778 0.74345 0.0
O300 O 0.01697 0.99738 0.78224 0.0
O301 O 0.01652 0.98796 0.70365 0.0
O302 O 0.98879 0.01656 0.75429 0.0
O303 O 0.97733 0.98743 0.7145 0.0
C304 C 0.97985 0.95335 0.60441 0.0
O305 O 0.97219 0.96931 0.60945 0.0
O306 O 0.99658 0.95592 0.62187 0.0
C307 C 0.99677 0.02125 0.61325 0.0
Tb308 Tb 0.50326 0.02137 0.64559 0.0
C309 C 0.53986 0.00149 0.63085 0.0
Tb310 Tb 0.50754 0.98523 0.71005 0.0
O311 O 0.52564 0.03751 0.68929 0.0
O312 O 0.50949 0.01517 0.72379 0.0
O313 O 0.52859 0.01252 0.60838 0.0
C314 C 0.5193 0.95997 0.77473 0.0
O315 O 0.53498 0.99137 0.67319 0.0
C316 C 0.4871 0.97985 0.62549 0.0
C317 C 0.47068 0.0046 0.72346 0.0
O318 O 0.51665 0.95708 0.72432 0.0
O319 O 0.515 0.97695 0.78886 0.0
O320 O 0.48515 0.96905 0.6663 0.0
O321 O 0.50124 0.99144 0.63198 0.0
O322 O 0.48198 0.9937 0.74638 0.0
O323 O 0.47567 0.01478 0.68126 0.0
C324 C 0.4918 0.04704 0.5817 0.0
O325 O 0.49249 0.04887 0.63294 0.0
O326 O 0.49782 0.03089 0.56641 0.0
C327 C 0.52362 0.02678 0.73018 0.0
Tb328 Tb 0.51845 0.51923 0.6447 0.0
C329 C 0.4764 0.50883 0.61691 0.0
Tb330 Tb 0.49496 0.48948 0.71247 0.0
O331 O 0.5169 0.49914 0.57638 0.0
O332 O 0.51588 0.48927 0.65304 0.0
O333 O 0.49137 0.52109 0.61099 0.0
C334 C 0.47559 0.45835 0.74966 0.0
O335 O 0.47508 0.49522 0.65243 0.0
C336 C 0.49835 0.5248 0.75182 0.0
C337 C 0.53665 0.49942 0.73829 0.0
O338 O 0.47803 0.46216 0.70005 0.0
O339 O 0.48382 0.47218 0.77817 0.0
O340 O 0.49489 0.50989 0.78035 0.0
O341 O 0.49749 0.5193 0.70403 0.0
O342 O 0.52305 0.48539 0.73528 0.0
O343 O 0.53661 0.51514 0.71066 0.0
C344 C 0.53762 0.55059 0.60859 0.0
O345 O 0.54216 0.53325 0.60067 0.0
O346 O 0.52239 0.55016 0.63658 0.0
C347 C 0.51423 0.48412 0.60505 0.0
Tb348 Tb 0.98751 0.5009 0.64315 0.0
C349 C 0.01848 0.47369 0.61326 0.0
Tb350 Tb 0.02071 0.50074 0.71791 0.0
O351 O 0.00456 0.51727 0.5846 0.0
O352 O 0.01091 0.51955 0.66451 0.0
O353 O 0.00068 0.47648 0.60893 0.0
C354 C 0.05454 0.50477 0.75911 0.0
O355 O 0.02911 0.48268 0.65038 0.0
C356 C 0.99153 0.47727 0.7404 0.0
C357 C 0.9903 0.52891 0.74567 0.0
O358 O 0.05102 0.50366 0.70899 0.0
O359 O 0.03904 0.5035 0.78601 0.0
O360 O 0.00337 0.48401 0.77562 0.0
O361 O 0.99761 0.48201 0.69564 0.0
O362 O 0.00804 0.52585 0.74983 0.0
O363 O 0.97946 0.51978 0.70926 0.0
C364 C 0.95341 0.496 0.60402 0.0
O365 O 0.95754 0.49384 0.65293 0.0
O366 O 0.96846 0.50104 0.57723 0.0
C367 C 0.01673 0.52398 0.61907 0.0
H368 H 0.18527 0.048 0.36049 0.0
H369 H 0.1553 0.04299 0.40667 0.0
H370 H 0.14289 0.9904 0.31583 0.0
H371 H 0.17313 0.99508 0.27017 0.0
H372 H 0.11861 0.03776 0.36728 0.0
H373 H 0.13782 0.97442 0.47171 0.0
H374 H 0.15479 0.99055 0.43872 0.0
H375 H 0.14023 0.97334 0.40073 0.0
C376 C 0.17618 0.03534 0.35037 0.0
C377 C 0.18165 0.02181 0.31215 0.0
C378 C 0.15902 0.03257 0.37654 0.0
C379 C 0.14703 0.0162 0.36521 0.0
C380 C 0.15209 0.003 0.32567 0.0
H381 H 0.04489 0.9764 0.53504 0.0
H382 H 0.07065 0.97942 0.47063 0.0
C383 C 0.16928 0.00578 0.29931 0.0
C384 C 0.12953 0.0128 0.3963 0.0
H385 H 0.1081 0.98417 0.48983 0.0
C386 C 0.11623 0.02598 0.39384 0.0
C387 C 0.12649 0.9974 0.43081 0.0
C388 C 0.14061 0.98316 0.43619 0.0
C389 C 0.1 0.02427 0.42541 0.0
C390 C 0.09723 0.0092 0.46109 0.0
C391 C 0.11029 0.99572 0.46247 0.0
C392 C 0.08131 0.00762 0.49906 0.0
C393 C 0.08597 0.0386 0.42018 0.0
C394 C 0.07892 0.02237 0.53683 0.0
C395 C 0.06425 0.02072 0.57368 0.0
C396 C 0.05175 0.00416 0.57382 0.0
C397 C 0.05425 0.98934 0.5361 0.0
C398 C 0.06895 0.99103 0.49921 0.0
H399 H 0.08729 0.04538 0.3811 0.0
H400 H 0.07161 0.03181 0.42518 0.0
H401 H 0.08832 0.05008 0.4513 0.0
H402 H 0.08853 0.03512 0.53821 0.0
H403 H 0.06274 0.03245 0.60201 0.0
H404 H 0.39811 0.16432 0.35664 0.0
H405 H 0.41118 0.13786 0.39785 0.0
H406 H 0.46107 0.14788 0.30277 0.0
H407 H 0.44837 0.17486 0.2627 0.0
H408 H 0.42545 0.10406 0.3613 0.0
H409 H 0.47948 0.15487 0.45477 0.0
H410 H 0.45975 0.16271 0.42258 0.0
H411 H 0.4791 0.15532 0.3838 0.0
C412 C 0.41184 0.16085 0.34427 0.0
C413 C 0.42232 0.17192 0.30701 0.0
C414 C 0.41923 0.14563 0.36761 0.0
C415 C 0.43723 0.14116 0.35417 0.0
C416 C 0.44727 0.15133 0.31441 0.0
H417 H 0.48958 0.04446 0.47408 0.0
H418 H 0.47611 0.06659 0.41649 0.0
C419 C 0.43991 0.16662 0.29113 0.0
C420 C 0.4459 0.12684 0.38457 0.0
H421 H 0.48084 0.12218 0.46995 0.0
C422 C 0.43762 0.10796 0.38482 0.0
C423 C 0.46157 0.13208 0.41605 0.0
C424 C 0.47043 0.15237 0.41986 0.0
C425 C 0.44467 0.09417 0.41561 0.0
C426 C 0.46054 0.09938 0.44627 0.0
C427 C 0.46878 0.11822 0.446 0.0
C428 C 0.46845 0.08574 0.48067 0.0
C429 C 0.43478 0.07432 0.41643 0.0
C430 C 0.46894 0.0894 0.53563 0.0
C431 C 0.47673 0.0769 0.56844 0.0
C432 C 0.48425 0.06058 0.54678 0.0
C433 C 0.48391 0.05699 0.49171 0.0
C434 C 0.47608 0.0695 0.45888 0.0
H435 H 0.42062 0.07381 0.40027 0.0
H436 H 0.44276 0.0644 0.39191 0.0
H437 H 0.43372 0.06907 0.45738 0.0
H438 H 0.46319 0.10191 0.55318 0.0
H439 H 0.47675 0.07995 0.61078 0.0
H440 H 0.33346 0.5117 0.31204 0.0
H441 H 0.36078 0.5022 0.35628 0.0
H442 H 0.37216 0.55968 0.4202 0.0
H443 H 0.34521 0.56936 0.37563 0.0
H444 H 0.40066 0.51931 0.35481 0.0
H445 H 0.36435 0.52337 0.55053 0.0
H446 H 0.3522 0.52143 0.48871 0.0
H447 H 0.36367 0.54397 0.51085 0.0
C448 C 0.34202 0.5224 0.33459 0.0
C449 C 0.33704 0.54123 0.3409 0.0
C450 C 0.35754 0.51692 0.36002 0.0
C451 C 0.36823 0.53018 0.39216 0.0
C452 C 0.36387 0.54918 0.39624 0.0
H453 H 0.47294 0.53549 0.54255 0.0
H454 H 0.4467 0.53824 0.48563 0.0
C455 C 0.34845 0.55466 0.37084 0.0
C456 C 0.38346 0.52416 0.42369 0.0
H457 H 0.39669 0.52034 0.55126 0.0
C458 C 0.39978 0.51934 0.39771 0.0
C459 C 0.38212 0.52397 0.47959 0.0
C460 C 0.3646 0.52829 0.50924 0.0
C461 C 0.41513 0.51509 0.4265 0.0
C462 C 0.4141 0.51586 0.48253 0.0
C463 C 0.39749 0.51989 0.50831 0.0
C464 C 0.43033 0.51346 0.51533 0.0
C465 C 0.43234 0.5099 0.39679 0.0
C466 C 0.42969 0.49881 0.55167 0.0
C467 C 0.44465 0.49724 0.58464 0.0
C468 C 0.46046 0.51044 0.58222 0.0
C469 C 0.46102 0.52507 0.5456 0.0
C470 C 0.44608 0.52659 0.51264 0.0
H471 H 0.42926 0.50481 0.35551 0.0
H472 H 0.44245 0.52273 0.39503 0.0
H473 H 0.43894 0.49864 0.4171 0.0
H474 H 0.41759 0.4886 0.55455 0.0
H475 H 0.44378 0.4857 0.61204 0.0
H476 H 0.11185 0.34588 0.40069 0.0
H477 H 0.09828 0.37408 0.4384 0.0
H478 H 0.04939 0.35976 0.34605 0.0
H479 H 0.06265 0.33121 0.30921 0.0
H480 H 0.08422 0.40596 0.39186 0.0
H481 H 0.02971 0.36106 0.50062 0.0
H482 H 0.04987 0.35145 0.47075 0.0
H483 H 0.03099 0.3564 0.43029 0.0
C484 C 0.09824 0.34877 0.38824 0.0
C485 C 0.08823 0.33619 0.35244 0.0
C486 C 0.09056 0.36494 0.40958 0.0
C487 C 0.07271 0.36879 0.39569 0.0
C488 C 0.06307 0.35685 0.35789 0.0
H489 H 0.00115 0.45125 0.53485 0.0
H490 H 0.01427 0.42687 0.47773 0.0
C491 C 0.07075 0.34066 0.33647 0.0
C492 C 0.06392 0.38475 0.42295 0.0
H493 H 0.02888 0.3944 0.50962 0.0
C494 C 0.07208 0.40348 0.41745 0.0
C495 C 0.0481 0.38142 0.45636 0.0
C496 C 0.03919 0.3615 0.46538 0.0
C497 C 0.06479 0.41902 0.44446 0.0
C498 C 0.04916 0.41564 0.47858 0.0
C499 C 0.04084 0.39694 0.48336 0.0
C500 C 0.04157 0.43116 0.51127 0.0
C501 C 0.0738 0.43891 0.43593 0.0
C502 C 0.05253 0.44156 0.54934 0.0
C503 C 0.0451 0.45551 0.58209 0.0
C504 C 0.02647 0.45921 0.5777 0.0
C505 C 0.01554 0.44878 0.53937 0.0
C506 C 0.02301 0.43485 0.50662 0.0
H507 H 0.08188 0.43966 0.39802 0.0
H508 H 0.06332 0.44944 0.43584 0.0
H509 H 0.08349 0.44308 0.46856 0.0
H510 H 0.06677 0.43865 0.55445 0.0
H511 H 0.05392 0.46321 0.61121 0.0
H512 H 0.82498 0.02109 0.01068 0.0
H513 H 0.85456 0.02311 0.96166 0.0
H514 H 0.86844 0.97164 0.03248 0.0
H515 H 0.8388 0.96947 0.08163 0.0
H516 H 0.89864 0.00102 0.02435 0.0
H517 H 0.86214 0.98551 0.83468 0.0
H518 H 0.85456 0.00544 0.87316 0.0
H519 H 0.85084 0.98181 0.89837 0.0
C520 C 0.83438 0.01027 0.01609 0.0
C521 C 0.82947 0.99499 0.04951 0.0
C522 C 0.85126 0.01144 0.98807 0.0
C523 C 0.86349 0.99731 0.9927 0.0
C524 C 0.85912 0.98263 0.02823 0.0
H525 H 0.94954 0.97185 0.76328 0.0
H526 H 0.92299 0.97034 0.82484 0.0
C527 C 0.84223 0.98146 0.05643 0.0
C528 C 0.88031 0.99732 0.9583 0.0
H529 H 0.89448 0.99402 0.82875 0.0
C530 C 0.89778 0.99946 0.9816 0.0
C531 C 0.87908 0.99496 0.90261 0.0
C532 C 0.86067 0.99162 0.8756 0.0
C533 C 0.91412 0.99972 0.95044 0.0
C534 C 0.91287 0.998 0.89464 0.0
C535 C 0.89539 0.99548 0.87152 0.0
C536 C 0.9295 0.99874 0.85925 0.0
C537 C 0.93254 0.00156 0.97749 0.0
C538 C 0.9419 0.01527 0.85798 0.0
C539 C 0.9571 0.01622 0.82275 0.0
C540 C 0.96007 0.0007 0.78779 0.0
C541 C 0.94761 0.98414 0.78931 0.0
C542 C 0.93245 0.9832 0.8246 0.0
H543 H 0.93105 0.99775 0.01974 0.0
H544 H 0.94231 0.99229 0.9572 0.0
H545 H 0.9387 0.01658 0.97603 0.0
H546 H 0.93966 0.02757 0.88362 0.0
H547 H 0.96638 0.02921 0.82258 0.0
H548 H 0.59345 0.84989 0.10161 0.0
H549 H 0.57915 0.87675 0.06483 0.0
H550 H 0.56928 0.8439 0.91909 0.0
H551 H 0.58302 0.81708 0.95556 0.0
H552 H 0.58956 0.89684 0.96885 0.0
H553 H 0.51814 0.86131 0.96204 0.0
H554 H 0.53586 0.85297 0.00193 0.0
H555 H 0.53508 0.84701 0.93211 0.0
C556 C 0.58809 0.84839 0.06191 0.0
C557 C 0.58944 0.83138 0.03145 0.0
C558 C 0.58003 0.86375 0.04089 0.0
C559 C 0.57298 0.8622 0.98949 0.0
C560 C 0.5744 0.8453 0.9591 0.0
H561 H 0.52674 0.92349 0.75017 0.0
H562 H 0.53992 0.9012 0.80756 0.0
C563 C 0.58246 0.83005 0.97986 0.0
C564 C 0.56429 0.87818 0.96652 0.0
H565 H 0.52466 0.88851 0.9081 0.0
C566 C 0.57528 0.89521 0.95636 0.0
C567 C 0.54565 0.87598 0.95041 0.0
C568 C 0.53293 0.8584 0.96261 0.0
C569 C 0.56837 0.9097 0.92781 0.0
C570 C 0.54998 0.90708 0.90967 0.0
C571 C 0.5388 0.89039 0.92176 0.0
C572 C 0.54234 0.92092 0.8754 0.0
C573 C 0.58102 0.92729 0.91507 0.0
C574 C 0.53921 0.93934 0.89474 0.0
C575 C 0.53157 0.95205 0.86209 0.0
C576 C 0.52697 0.94651 0.80968 0.0
C577 C 0.53012 0.92809 0.79045 0.0
C578 C 0.53765 0.91537 0.82314 0.0
H579 H 0.59571 0.92559 0.92379 0.0
H580 H 0.58007 0.93062 0.87268 0.0
H581 H 0.57669 0.93969 0.93913 0.0
H582 H 0.54252 0.9438 0.93516 0.0
H583 H 0.52931 0.96621 0.87778 0.0
H584 H 0.65924 0.43873 0.01444 0.0
H585 H 0.63234 0.44912 0.97081 0.0
H586 H 0.65509 0.5078 0.98908 0.0
H587 H 0.68221 0.49747 0.03236 0.0
H588 H 0.606 0.47696 0.00395 0.0
H589 H 0.64906 0.49708 0.82558 0.0
H590 H 0.65679 0.48192 0.87498 0.0
H591 H 0.65688 0.50715 0.88853 0.0
C592 C 0.65842 0.45387 0.00968 0.0
C593 C 0.67289 0.46728 0.0264 0.0
C594 C 0.64303 0.45978 0.98494 0.0
C595 C 0.64189 0.47919 0.97609 0.0
C596 C 0.65584 0.49273 0.99508 0.0
H597 H 0.56423 0.52679 0.76778 0.0
H598 H 0.5893 0.52373 0.82917 0.0
C599 C 0.67122 0.48683 0.02018 0.0
C600 C 0.62662 0.48494 0.94419 0.0
H601 H 0.61716 0.50011 0.82185 0.0
C602 C 0.60841 0.48219 0.96431 0.0
C603 C 0.62987 0.4918 0.89258 0.0
C604 C 0.64916 0.49459 0.86872 0.0
C605 C 0.59329 0.48589 0.93384 0.0
C606 C 0.59648 0.49203 0.88141 0.0
C607 C 0.61474 0.49536 0.86196 0.0
C608 C 0.58106 0.49409 0.84511 0.0
C609 C 0.57407 0.48322 0.95818 0.0
C610 C 0.5683 0.47837 0.83297 0.0
C611 C 0.55396 0.48008 0.79805 0.0
C612 C 0.55223 0.49749 0.77392 0.0
C613 C 0.56521 0.51315 0.78548 0.0
C614 C 0.57951 0.51145 0.82069 0.0
H615 H 0.5744 0.48459 0.0021 0.0
H616 H 0.5651 0.49378 0.94364 0.0
H617 H 0.56771 0.46866 0.94736 0.0
H618 H 0.56951 0.46468 0.85016 0.0
H619 H 0.54429 0.46769 0.78984 0.0
H620 H 0.92101 0.65601 0.06581 0.0
H621 H 0.93504 0.62771 0.02974 0.0
H622 H 0.9423 0.65359 0.87777 0.0
H623 H 0.92914 0.68205 0.91373 0.0
H624 H 0.92401 0.60282 0.94748 0.0
H625 H 0.99369 0.63831 0.9034 0.0
H626 H 0.97689 0.64949 0.94493 0.0
H627 H 0.9758 0.65006 0.8739 0.0
C628 C 0.9258 0.65575 0.02489 0.0
C629 C 0.92391 0.67131 0.9927 0.0
C630 C 0.93371 0.63954 0.00428 0.0
C631 C 0.94 0.63869 0.95131 0.0
C632 C 0.93791 0.65408 0.91904 0.0
H633 H 0.95687 0.54366 0.7385 0.0
H634 H 0.94492 0.5692 0.79353 0.0
C635 C 0.9301 0.67025 0.93954 0.0
C636 C 0.94831 0.62158 0.92886 0.0
H637 H 0.98604 0.60788 0.85918 0.0
C638 C 0.93767 0.60385 0.92875 0.0
C639 C 0.96626 0.62286 0.90528 0.0
C640 C 0.97889 0.64117 0.90734 0.0
C641 C 0.94418 0.58755 0.90355 0.0
C642 C 0.9616 0.58915 0.87679 0.0
C643 C 0.97257 0.60669 0.87903 0.0
C644 C 0.96854 0.57305 0.84486 0.0
C645 C 0.93231 0.56879 0.90595 0.0
C646 C 0.98604 0.56703 0.85442 0.0
C647 C 0.99306 0.55261 0.82244 0.0
C648 C 0.98272 0.54394 0.78018 0.0
C649 C 0.96516 0.54993 0.77089 0.0
C650 C 0.95822 0.56444 0.80265 0.0
H651 H 0.92282 0.56851 0.94116 0.0
H652 H 0.92366 0.56685 0.87018 0.0
H653 H 0.94091 0.55657 0.90725 0.0
H654 H 0.99431 0.57355 0.88656 0.0
H655 H 0.00661 0.54832 0.83082 0.0
H656 H 0.11563 0.15469 0.46907 0.0
H657 H 0.0976 0.12748 0.50907 0.0
H658 H 0.05192 0.16176 0.53823 0.0
H659 H 0.06956 0.18883 0.49744 0.0
H660 H 0.07487 0.12244 0.61339 0.0
H661 H 0.03542 0.1167 0.42621 0.0
H662 H 0.05791 0.1299 0.43147 0.0
H663 H 0.03782 0.13979 0.45981 0.0
C664 C 0.10188 0.15653 0.48492 0.0
C665 C 0.09396 0.17386 0.47951 0.0
C666 C 0.09166 0.14104 0.50803 0.0
C667 C 0.07342 0.14265 0.52596 0.0
C668 C 0.06599 0.1603 0.52441 0.0
H669 H 0.99566 0.05538 0.66666 0.0
H670 H 0.01442 0.08538 0.64811 0.0
C671 C 0.07617 0.17579 0.50137 0.0
C672 C 0.06136 0.12538 0.53969 0.0
H673 H 0.02577 0.09491 0.49189 0.0
C674 C 0.06409 0.1164 0.58708 0.0
C675 C 0.0475 0.11751 0.50475 0.0
C676 C 0.04448 0.12633 0.45248 0.0
C677 C 0.05312 0.09967 0.60065 0.0
C678 C 0.03908 0.09196 0.56593 0.0
C679 C 0.03648 0.10095 0.51848 0.0
C680 C 0.02734 0.07416 0.57689 0.0
C681 C 0.05687 0.09019 0.65139 0.0
C682 C 0.02784 0.05824 0.54181 0.0
C683 C 0.01708 0.04124 0.5522 0.0
C684 C 0.00577 0.03989 0.59799 0.0
C685 C 0.00465 0.05604 0.63181 0.0
C686 C 0.01538 0.07309 0.62137 0.0
H687 H 0.07071 0.09526 0.66714 0.0
H688 H 0.04627 0.09363 0.68175 0.0
H689 H 0.05603 0.07441 0.64539 0.0
H690 H 0.03689 0.05885 0.50704 0.0
H691 H 0.01825 0.02894 0.52562 0.0
H692 H 0.37045 0.05167 0.33411 0.0
H693 H 0.39674 0.04207 0.38224 0.0
H694 H 0.35979 0.00306 0.47145 0.0
H695 H 0.3336 0.01184 0.422 0.0
H696 H 0.40519 0.04247 0.48855 0.0
H697 H 0.39629 0.96821 0.4046 0.0
H698 H 0.38437 0.98723 0.37933 0.0
H699 H 0.37594 0.97551 0.43841 0.0
C700 C 0.36791 0.04102 0.36393 0.0
C701 C 0.34992 0.03234 0.37367 0.0
C702 C 0.38294 0.03565 0.39159 0.0
C703 C 0.38024 0.02153 0.42944 0.0
C704 C 0.36221 0.01366 0.44146 0.0
H705 H 0.4503 0.97058 0.64384 0.0
H706 H 0.42459 0.98068 0.59395 0.0
C707 C 0.3472 0.01892 0.41365 0.0
C708 C 0.39631 0.01458 0.45519 0.0
H709 H 0.41799 0.97433 0.47367 0.0
C710 C 0.40806 0.02761 0.48509 0.0
C711 C 0.40009 0.99519 0.45015 0.0
C712 C 0.38863 0.98075 0.41597 0.0
C713 C 0.42322 0.02162 0.51133 0.0
C714 C 0.42672 0.00219 0.50708 0.0
C715 C 0.41514 0.98921 0.47683 0.0
C716 C 0.44222 0.99504 0.53468 0.0
C717 C 0.43525 0.03595 0.54418 0.0
C718 C 0.46052 0.99925 0.51656 0.0
C719 C 0.47519 0.99325 0.54453 0.0
C720 C 0.47172 0.98326 0.59124 0.0
C721 C 0.45334 0.97826 0.60784 0.0
C722 C 0.43867 0.98413 0.5797 0.0
H723 H 0.42947 0.05002 0.54839 0.0
H724 H 0.43703 0.03047 0.58421 0.0
H725 H 0.44914 0.03805 0.52499 0.0
H726 H 0.46344 0.0074 0.48133 0.0
H727 H 0.48925 0.99675 0.53032 0.0
H728 H 0.41744 0.35822 0.35768 0.0
H729 H 0.43335 0.38466 0.40837 0.0
H730 H 0.42674 0.35224 0.54994 0.0
H731 H 0.41003 0.32573 0.4999 0.0
H732 H 0.42154 0.40424 0.5182 0.0
H733 H 0.48551 0.36578 0.5099 0.0
H734 H 0.46765 0.36065 0.46149 0.0
H735 H 0.46356 0.35328 0.52817 0.0
C736 C 0.41875 0.35682 0.3999 0.0
C737 C 0.41243 0.33974 0.42458 0.0
C738 C 0.428 0.37195 0.42871 0.0
C739 C 0.43127 0.37028 0.4826 0.0
C740 C 0.42437 0.35368 0.50818 0.0
H741 H 0.51171 0.44993 0.65282 0.0
H742 H 0.49087 0.42143 0.62963 0.0
C743 C 0.41494 0.33853 0.47944 0.0
C744 C 0.44324 0.3854 0.51027 0.0
H745 H 0.48846 0.39782 0.54046 0.0
C746 C 0.43611 0.40281 0.52389 0.0
C747 C 0.46218 0.38333 0.51785 0.0
C748 C 0.47034 0.3648 0.50363 0.0
C749 C 0.44765 0.41851 0.54344 0.0
C750 C 0.46685 0.41681 0.54772 0.0
C751 C 0.47378 0.3991 0.53659 0.0
C752 C 0.48009 0.43355 0.56059 0.0
C753 C 0.43921 0.4368 0.5589 0.0
C754 C 0.48147 0.44941 0.52819 0.0
C755 C 0.49332 0.46559 0.54129 0.0
C756 C 0.50401 0.46611 0.58693 0.0
C757 C 0.50346 0.44985 0.61762 0.0
C758 C 0.49155 0.43364 0.60456 0.0
H759 H 0.42426 0.43402 0.56936 0.0
H760 H 0.44641 0.44433 0.59305 0.0
H761 H 0.44045 0.44641 0.52493 0.0
H762 H 0.47316 0.44939 0.49316 0.0
H763 H 0.49355 0.47794 0.51685 0.0
H764 H 0.1896 0.55679 0.49892 0.0
H765 H 0.16108 0.55066 0.55121 0.0
H766 H 0.13658 0.59466 0.47041 0.0
H767 H 0.16542 0.60169 0.42011 0.0
H768 H 0.12441 0.59216 0.57477 0.0
H769 H 0.11933 0.52082 0.47059 0.0
H770 H 0.1395 0.52596 0.51026 0.0
H771 H 0.13663 0.53974 0.45302 0.0
C772 C 0.17842 0.56567 0.49354 0.0
C773 C 0.17967 0.57947 0.4544 0.0
C774 C 0.16203 0.56197 0.52308 0.0
C775 C 0.14655 0.57178 0.51341 0.0
C776 C 0.1483 0.58674 0.47799 0.0
H777 H 0.03234 0.52944 0.5215 0.0
H778 H 0.06398 0.54253 0.50037 0.0
C779 C 0.16474 0.59062 0.4489 0.0
C780 C 0.12802 0.5651 0.53504 0.0
H781 H 0.09496 0.52727 0.52926 0.0
C782 C 0.11798 0.57794 0.56524 0.0
C783 C 0.11958 0.54662 0.52167 0.0
C784 C 0.1292 0.53252 0.48673 0.0
C785 C 0.0996 0.57286 0.58189 0.0
C786 C 0.09125 0.55436 0.56863 0.0
C787 C 0.10143 0.54144 0.53938 0.0
C788 C 0.07167 0.54822 0.58212 0.0
C789 C 0.08909 0.58754 0.61172 0.0
C790 C 0.06543 0.54734 0.63505 0.0
C791 C 0.04727 0.5401 0.64708 0.0
C792 C 0.03524 0.53327 0.60644 0.0
C793 C 0.04136 0.53456 0.55354 0.0
C794 C 0.05943 0.54198 0.54149 0.0
H795 H 0.09587 0.60225 0.60743 0.0
H796 H 0.07466 0.58707 0.59775 0.0
H797 H 0.08854 0.58442 0.65447 0.0
H798 H 0.07472 0.55174 0.66705 0.0
H799 H 0.04277 0.53942 0.68821 0.0
H800 H 0.93871 0.81565 0.85989 0.0
H801 H 0.95699 0.84246 0.81977 0.0
H802 H 0.91248 0.87808 0.85129 0.0
H803 H 0.89382 0.85115 0.89082 0.0
H804 H 0.93646 0.88187 0.7442 0.0
H805 H 0.9733 0.88764 0.93598 0.0
H806 H 0.96995 0.8644 0.90338 0.0
H807 H 0.9503 0.87563 0.92951 0.0
C808 C 0.93247 0.82894 0.85656 0.0
C809 C 0.91484 0.83131 0.87898 0.0
C810 C 0.94301 0.84427 0.83386 0.0
C811 C 0.93609 0.86219 0.83311 0.0
C812 C 0.918 0.86429 0.85163 0.0
H813 H 0.99268 0.97512 0.83564 0.0
H814 H 0.97351 0.94542 0.85296 0.0
C815 C 0.90743 0.84895 0.87445 0.0
C816 C 0.94861 0.87919 0.82005 0.0
H817 H 0.98381 0.90938 0.87114 0.0
C818 C 0.94686 0.88792 0.77171 0.0
C819 C 0.962 0.88702 0.85643 0.0
C820 C 0.96404 0.87833 0.90945 0.0
C821 C 0.9583 0.9044 0.75873 0.0
C822 C 0.97183 0.91213 0.79504 0.0
C823 C 0.97349 0.90335 0.84336 0.0
C824 C 0.98395 0.92978 0.78492 0.0
C825 C 0.95561 0.91357 0.7068 0.0
C826 C 0.99661 0.93058 0.742 0.0
C827 C 0.00766 0.94751 0.73232 0.0
C828 C 0.00614 0.96382 0.76527 0.0
C829 C 0.99414 0.96271 0.80969 0.0
C830 C 0.98309 0.94583 0.81933 0.0
H831 H 0.94199 0.90866 0.68943 0.0
H832 H 0.95674 0.92939 0.71174 0.0
H833 H 0.96658 0.90962 0.67823 0.0
H834 H 0.99786 0.91818 0.71586 0.0
H835 H 0.0172 0.94797 0.69867 0.0
H836 H 0.6452 0.94874 0.99348 0.0
H837 H 0.61777 0.95707 0.94778 0.0
H838 H 0.64762 0.00981 0.90039 0.0
H839 H 0.67486 0.00187 0.9468 0.0
H840 H 0.61195 0.0129 0.95425 0.0
H841 H 0.60873 0.95961 0.78495 0.0
H842 H 0.6122 0.95113 0.84996 0.0
H843 H 0.62996 0.96672 0.81938 0.0
C844 C 0.64595 0.96203 0.97294 0.0
C845 C 0.66221 0.97463 0.97366 0.0
C846 C 0.63033 0.96669 0.9466 0.0
C847 C 0.63078 0.98398 0.92057 0.0
C848 C 0.64709 0.99635 0.92012 0.0
H849 H 0.56043 0.03311 0.70782 0.0
H850 H 0.58581 0.0225 0.75795 0.0
C851 C 0.66268 0.99171 0.94626 0.0
C852 C 0.61398 0.98987 0.89639 0.0
H853 H 0.58531 0.9807 0.7916 0.0
C854 C 0.60602 0.00581 0.91889 0.0
C855 C 0.60639 0.98054 0.85033 0.0
C856 C 0.61474 0.9636 0.8243 0.0
C857 C 0.59076 0.01287 0.89595 0.0
C858 C 0.58335 0.00372 0.8495 0.0
C859 C 0.5911 0.9876 0.82739 0.0
C860 C 0.56811 0.01125 0.82174 0.0
C861 C 0.58291 0.03034 0.92048 0.0
C862 C 0.54989 0.00876 0.84186 0.0
C863 C 0.53539 0.01481 0.8133 0.0
C864 C 0.53897 0.02331 0.76435 0.0
C865 C 0.55733 0.02663 0.7456 0.0
C866 C 0.57179 0.02045 0.77389 0.0
H867 H 0.59142 0.0369 0.95355 0.0
H868 H 0.58195 0.04118 0.89007 0.0
H869 H 0.56868 0.02634 0.93598 0.0
H870 H 0.54687 0.00171 0.87886 0.0
H871 H 0.52133 0.01239 0.82869 0.0
H872 H 0.60736 0.68024 0.84777 0.0
H873 H 0.58929 0.65374 0.80125 0.0
H874 H 0.58305 0.62313 0.94597 0.0
H875 H 0.60034 0.64956 0.99321 0.0
H876 H 0.59363 0.60311 0.82854 0.0
H877 H 0.52997 0.64145 0.85741 0.0
H878 H 0.55184 0.65416 0.83907 0.0
H879 H 0.54849 0.64511 0.90424 0.0
C880 C 0.60228 0.66781 0.86963 0.0
C881 C 0.60528 0.66712 0.92437 0.0
C882 C 0.59208 0.65267 0.8429 0.0
C883 C 0.58488 0.63662 0.87044 0.0
C884 C 0.58863 0.63542 0.92418 0.0
H885 H 0.52166 0.52883 0.83468 0.0
H886 H 0.54283 0.55679 0.85858 0.0
C887 C 0.59867 0.65053 0.95097 0.0
C888 C 0.57211 0.62169 0.84498 0.0
H889 H 0.52607 0.60951 0.82576 0.0
C890 C 0.57889 0.60453 0.82715 0.0
C891 C 0.55296 0.62376 0.84311 0.0
C892 C 0.54522 0.64208 0.86189 0.0
C893 C 0.56683 0.58906 0.8087 0.0
C894 C 0.54751 0.59074 0.80972 0.0
C895 C 0.54086 0.60822 0.82547 0.0
C896 C 0.53394 0.57425 0.79698 0.0
C897 C 0.57487 0.57107 0.78849 0.0
C898 C 0.52117 0.57521 0.75653 0.0
C899 C 0.50881 0.55935 0.74354 0.0
C900 C 0.50916 0.54236 0.77062 0.0
C901 C 0.5212 0.54178 0.81302 0.0
C902 C 0.53349 0.55762 0.82612 0.0
H903 H 0.58951 0.57404 0.77499 0.0
H904 H 0.57457 0.56085 0.82096 0.0
H905 H 0.56676 0.56414 0.75514 0.0
H906 H 0.52106 0.58805 0.73423 0.0
H907 H 0.49929 0.56019 0.71153 0.0
H908 H 0.82679 0.4577 0.87239 0.0
H909 H 0.85615 0.46074 0.82323 0.0
H910 H 0.85983 0.40005 0.83214 0.0
H911 H 0.83066 0.39713 0.88351 0.0
H912 H 0.88953 0.41789 0.86702 0.0
H913 H 0.87628 0.45071 0.67912 0.0
H914 H 0.86737 0.46477 0.73267 0.0
H915 H 0.85766 0.44044 0.7208 0.0
C916 C 0.83355 0.44491 0.86233 0.0
C917 C 0.8265 0.42718 0.8817 0.0
C918 C 0.85032 0.44664 0.83388 0.0
C919 C 0.86016 0.43059 0.82321 0.0
C920 C 0.85249 0.41263 0.83972 0.0
H921 H 0.96945 0.45609 0.67071 0.0
H922 H 0.93787 0.44153 0.6868 0.0
C923 C 0.83585 0.41096 0.869 0.0
C924 C 0.87955 0.43316 0.80265 0.0
H925 H 0.90755 0.45784 0.71336 0.0
C926 C 0.8934 0.42626 0.83264 0.0
C927 C 0.88474 0.44379 0.75732 0.0
C928 C 0.87066 0.45013 0.7204 0.0
C929 C 0.91223 0.43072 0.82062 0.0
C930 C 0.91738 0.44297 0.77863 0.0
C931 C 0.9036 0.44881 0.74638 0.0
C932 C 0.93685 0.45076 0.76945 0.0
C933 C 0.92636 0.4224 0.85357 0.0
C934 C 0.94674 0.46082 0.81049 0.0
C935 C 0.9648 0.46893 0.80152 0.0
C936 C 0.9731 0.46747 0.75105 0.0
C937 C 0.96328 0.45738 0.71001 0.0
C938 C 0.94527 0.4491 0.71911 0.0
H939 H 0.92073 0.4085 0.86962 0.0
H940 H 0.93921 0.4202 0.83024 0.0
H941 H 0.92997 0.4323 0.88777 0.0
H942 H 0.94034 0.46278 0.84923 0.0
H943 H 0.97205 0.47684 0.83357 0.0
H944 H 0.12957 0.18425 0.01998 0.0
H945 H 0.11921 0.1599 0.95274 0.0
H946 H 0.06423 0.1785 0.96324 0.0
H947 H 0.07433 0.20261 0.03121 0.0
H948 H 0.09005 0.13126 0.97902 0.0
H949 H 0.07396 0.17022 0.80127 0.0
H950 H 0.08937 0.18064 0.85191 0.0
H951 H 0.06474 0.17917 0.86305 0.0
C952 C 0.11533 0.18337 0.0074 0.0
C953 C 0.10274 0.19528 0.03137 0.0
C954 C 0.10948 0.16951 0.96878 0.0
C955 C 0.09099 0.16747 0.95286 0.0
C956 C 0.07864 0.18006 0.97431 0.0
H957 H 0.01848 0.08294 0.78539 0.0
H958 H 0.03359 0.11179 0.82895 0.0
C959 C 0.08446 0.19388 0.01315 0.0
C960 C 0.08407 0.15069 0.91938 0.0
H961 H 0.06308 0.13724 0.8026 0.0
C962 C 0.08435 0.13251 0.94016 0.0
C963 C 0.07645 0.15246 0.86908 0.0
C964 C 0.0762 0.17165 0.84463 0.0
C965 C 0.07674 0.11605 0.91268 0.0
C966 C 0.0691 0.11775 0.86224 0.0
C967 C 0.06902 0.13594 0.84113 0.0
C968 C 0.06046 0.10086 0.83201 0.0
C969 C 0.07629 0.09709 0.93902 0.0
C970 C 0.07065 0.08533 0.81801 0.0
C971 C 0.06198 0.06876 0.79384 0.0
C972 C 0.04305 0.06758 0.78252 0.0
C973 C 0.03306 0.08344 0.79421 0.0
C974 C 0.0417 0.09994 0.81884 0.0
H975 H 0.07812 0.09894 0.98249 0.0
H976 H 0.06302 0.08827 0.93172 0.0
H977 H 0.08776 0.08912 0.92256 0.0
H978 H 0.08526 0.08591 0.82654 0.0
H979 H 0.07004 0.05682 0.78446 0.0
H980 H 0.31894 0.99067 0.98642 0.0
H981 H 0.34555 0.9862 0.92762 0.0
H982 H 0.33554 0.0367 0.8452 0.0
H983 H 0.30912 0.04153 0.905 0.0
H984 H 0.35339 0.98238 0.8212 0.0
H985 H 0.38648 0.05113 0.90459 0.0
H986 H 0.36519 0.03975 0.93154 0.0
H987 H 0.36501 0.0532 0.87244 0.0
C988 C 0.32207 0.00051 0.95478 0.0
C989 C 0.31208 0.01656 0.95055 0.0
C990 C 0.33734 0.99799 0.92135 0.0
C991 C 0.34283 0.01141 0.88301 0.0
C992 C 0.33185 0.02647 0.87553 0.0
H993 H 0.44416 0.02653 0.69097 0.0
H994 H 0.41245 0.0273 0.72528 0.0
C995 C 0.3167 0.02914 0.90939 0.0
C996 C 0.36091 0.01058 0.85467 0.0
H997 H 0.40345 0.03523 0.83879 0.0
C998 C 0.36431 0.99396 0.82483 0.0
C999 C 0.37524 0.02564 0.86 0.0
C1000 C 0.37292 0.04336 0.89426 0.0
C1001 C 0.38163 0.99205 0.80004 0.0
C1002 C 0.39586 0.0071 0.80549 0.0
C1003 C 0.39241 0.02379 0.83459 0.0
C1004 C 0.41467 0.00567 0.78273 0.0
C1005 C 0.38466 0.97401 0.76815 0.0
C1006 C 0.42643 0.99333 0.80406 0.0
C1007 C 0.44466 0.99298 0.78498 0.0
C1008 C 0.45143 0.00497 0.74419 0.0
C1009 C 0.43948 0.01717 0.72259 0.0
C1010 C 0.42131 0.01759 0.74195 0.0
H1011 H 0.37141 0.96534 0.75946 0.0
H1012 H 0.39205 0.97745 0.73021 0.0
H1013 H 0.39342 0.96521 0.79079 0.0
H1014 H 0.42159 0.98422 0.8361 0.0
H1015 H 0.45343 0.98335 0.80234 0.0
H1016 H 0.44158 0.30868 0.00424 0.0
H1017 H 0.45083 0.33399 0.94272 0.0
H1018 H 0.39379 0.33585 0.90042 0.0
H1019 H 0.38441 0.3107 0.96276 0.0
H1020 H 0.44733 0.33989 0.83662 0.0
H1021 H 0.40735 0.38968 0.95917 0.0
H1022 H 0.41133 0.36628 0.98055 0.0
H1023 H 0.39384 0.36894 0.93287 0.0
C1024 C 0.43105 0.31413 0.98089 0.0
C1025 C 0.41224 0.30782 0.9887 0.0
C1026 C 0.43635 0.32867 0.94588 0.0
C1027 C 0.42296 0.33713 0.91789 0.0
C1028 C 0.40431 0.32987 0.92263 0.0
H1029 H 0.45802 0.42803 0.69405 0.0
H1030 H 0.44371 0.39801 0.72978 0.0
C1031 C 0.39898 0.31545 0.95805 0.0
C1032 C 0.42848 0.35444 0.88724 0.0
H1033 H 0.4233 0.40216 0.88434 0.0
C1034 C 0.44198 0.35349 0.84667 0.0
C1035 C 0.42164 0.37223 0.90094 0.0
C1036 C 0.40787 0.37448 0.94603 0.0
C1037 C 0.44909 0.36989 0.82012 0.0
C1038 C 0.44224 0.38767 0.83391 0.0
C1039 C 0.42843 0.38851 0.87359 0.0
C1040 C 0.45031 0.40587 0.81131 0.0
C1041 C 0.46444 0.3682 0.7793 0.0
C1042 C 0.45825 0.42048 0.84532 0.0
C1043 C 0.46616 0.43763 0.82516 0.0
C1044 C 0.46631 0.44054 0.77053 0.0
C1045 C 0.45813 0.42609 0.73637 0.0
C1046 C 0.45009 0.4089 0.75667 0.0
H1047 H 0.47088 0.35455 0.7818 0.0
H1048 H 0.45871 0.36871 0.73913 0.0
H1049 H 0.4754 0.38023 0.78412 0.0
H1050 H 0.45855 0.41849 0.88759 0.0
H1051 H 0.47239 0.44852 0.85236 0.0
H1052 H 0.19933 0.57262 0.98977 0.0
H1053 H 0.17464 0.56183 0.92922 0.0
H1054 H 0.18622 0.50339 0.94695 0.0
H1055 H 0.20991 0.51397 0.01143 0.0
H1056 H 0.16951 0.54332 0.83959 0.0
H1057 H 0.1337 0.49952 0.99621 0.0
H1058 H 0.15423 0.51529 0.0089 0.0
H1059 H 0.15597 0.49216 0.97701 0.0
C1060 C 0.19663 0.55744 0.98102 0.0
C1061 C 0.20624 0.54416 0.00706 0.0
C1062 C 0.18259 0.55128 0.94582 0.0
C1063 C 0.17804 0.53172 0.93492 0.0
C1064 C 0.18895 0.51852 0.9563 0.0
H1065 H 0.0878 0.5004 0.70941 0.0
H1066 H 0.11863 0.50518 0.74818 0.0
C1067 C 0.20277 0.52465 0.99254 0.0
C1068 C 0.16105 0.52537 0.90463 0.0
H1069 H 0.11907 0.49921 0.91444 0.0
C1070 C 0.1585 0.5336 0.85583 0.0
C1071 C 0.14653 0.5129 0.92616 0.0
C1072 C 0.14761 0.5046 0.98013 0.0
C1073 C 0.14171 0.53021 0.82883 0.0
C1074 C 0.1273 0.51757 0.85014 0.0
C1075 C 0.13011 0.50885 0.89799 0.0
C1076 C 0.1087 0.51417 0.8259 0.0
C1077 C 0.13934 0.54099 0.7793 0.0
C1078 C 0.09275 0.51685 0.857 0.0
C1079 C 0.07515 0.51355 0.83536 0.0
C1080 C 0.07315 0.50775 0.78195 0.0
C1081 C 0.08902 0.50501 0.75067 0.0
C1082 C 0.10665 0.50793 0.77267 0.0
H1083 H 0.1494 0.55387 0.77698 0.0
H1084 H 0.1418 0.53159 0.74407 0.0
H1085 H 0.12513 0.54555 0.77739 0.0
H1086 H 0.0939 0.52165 0.89814 0.0
H1087 H 0.06313 0.5158 0.86028 0.0
H1088 H 0.8861 0.82247 0.3382 0.0
H1089 H 0.89859 0.84615 0.40444 0.0
H1090 H 0.95111 0.82202 0.39425 0.0
H1091 H 0.93906 0.79889 0.32615 0.0
H1092 H 0.91536 0.84579 0.50248 0.0
H1093 H 0.96443 0.87668 0.34934 0.0
H1094 H 0.94556 0.859 0.33337 0.0
H1095 H 0.96645 0.85193 0.36065 0.0
C1096 C 0.90029 0.82211 0.35024 0.0
C1097 C 0.91167 0.809 0.32599 0.0
C1098 C 0.90735 0.83557 0.38842 0.0
C1099 C 0.92591 0.83614 0.40327 0.0
C1100 C 0.93686 0.82209 0.38245 0.0
H1101 H 0.99631 0.92069 0.5835 0.0
H1102 H 0.98277 0.89109 0.54005 0.0
C1103 C 0.92986 0.80871 0.34396 0.0
C1104 C 0.93414 0.85233 0.43695 0.0
H1105 H 0.96692 0.8905 0.4356 0.0
C1106 C 0.92666 0.85554 0.48797 0.0
C1107 C 0.94878 0.86516 0.41769 0.0
C1108 C 0.95668 0.86319 0.36212 0.0
C1109 C 0.93359 0.87115 0.52042 0.0
C1110 C 0.94821 0.88389 0.50106 0.0
C1111 C 0.95577 0.8806 0.45033 0.0
C1112 C 0.9557 0.90106 0.53198 0.0
C1113 C 0.92537 0.87389 0.57528 0.0
C1114 C 0.94491 0.91643 0.54186 0.0
C1115 C 0.95266 0.93342 0.56621 0.0
C1116 C 0.97129 0.93524 0.58102 0.0
C1117 C 0.98192 0.91968 0.57224 0.0
C1118 C 0.97421 0.90276 0.54764 0.0
H1119 H 0.91696 0.86082 0.58834 0.0
H1120 H 0.93644 0.87785 0.60436 0.0
H1121 H 0.91626 0.88572 0.57541 0.0
H1122 H 0.93067 0.91548 0.52931 0.0
H1123 H 0.94418 0.94521 0.57269 0.0
H1124 H 0.69696 0.0111 0.38634 0.0
H1125 H 0.67091 0.01674 0.44608 0.0
H1126 H 0.66659 0.95774 0.48911 0.0
H1127 H 0.69281 0.952 0.42974 0.0
H1128 H 0.63452 0.96951 0.44513 0.0
H1129 H 0.66022 0.01978 0.60742 0.0
H1130 H 0.66767 0.02669 0.54199 0.0
H1131 H 0.67529 0.00545 0.56826 0.0
C1132 C 0.69098 0.9995 0.41011 0.0
C1133 C 0.69688 0.98105 0.40302 0.0
C1134 C 0.67604 0.00275 0.4442 0.0
C1135 C 0.66683 0.98766 0.47203 0.0
C1136 C 0.67352 0.96957 0.46794 0.0
H1137 H 0.56904 0.9873 0.6774 0.0
H1138 H 0.60018 0.98475 0.64026 0.0
C1139 C 0.68847 0.96631 0.43394 0.0
C1140 C 0.64877 0.99003 0.49894 0.0
H1141 H 0.62745 0.01517 0.59717 0.0
C1142 C 0.633 0.97939 0.47863 0.0
C1143 C 0.64684 0.00294 0.54254 0.0
C1144 C 0.6634 0.01428 0.56675 0.0
C1145 C 0.6153 0.98153 0.50019 0.0
C1146 C 0.6133 0.99478 0.54288 0.0
C1147 C 0.62907 0.00517 0.564 0.0
C1148 C 0.59486 0.99765 0.56652 0.0
C1149 C 0.59884 0.96953 0.47736 0.0
C1150 C 0.58169 0.00604 0.53756 0.0
C1151 C 0.56385 0.00756 0.55862 0.0
C1152 C 0.55888 0.00057 0.60888 0.0
C1153 C 0.57231 0.99259 0.63824 0.0
C1154 C 0.59016 0.99122 0.61731 0.0
H1155 H 0.60309 0.9575 0.4515 0.0
H1156 H 0.58953 0.96364 0.50949 0.0
H1157 H 0.59082 0.9786 0.45331 0.0
H1158 H 0.58516 0.01121 0.49839 0.0
H1159 H 0.55389 0.01387 0.53514 0.0
H1160 H 0.57304 0.69955 0.34011 0.0
H1161 H 0.56212 0.67449 0.4008 0.0
H1162 H 0.61857 0.66659 0.43759 0.0
H1163 H 0.62962 0.692 0.37788 0.0
H1164 H 0.57136 0.63693 0.38461 0.0
H1165 H 0.59221 0.66592 0.584 0.0
H1166 H 0.59057 0.68096 0.52825 0.0
H1167 H 0.61029 0.66758 0.53403 0.0
C1168 C 0.58313 0.69295 0.3624 0.0
C1169 C 0.60221 0.69779 0.35409 0.0
C1170 C 0.57686 0.6785 0.39675 0.0
C1171 C 0.58952 0.66872 0.42387 0.0
C1172 C 0.60854 0.67411 0.41764 0.0
H1173 H 0.567 0.55319 0.53862 0.0
H1174 H 0.58089 0.58203 0.4958 0.0
C1175 C 0.61484 0.68854 0.38317 0.0
C1176 C 0.58286 0.65168 0.4542 0.0
H1177 H 0.58141 0.63294 0.57718 0.0
C1178 C 0.57352 0.63608 0.42674 0.0
C1179 C 0.58567 0.65063 0.50915 0.0
C1180 C 0.59509 0.6672 0.54084 0.0
C1181 C 0.56699 0.6194 0.45265 0.0
C1182 C 0.57008 0.61819 0.50739 0.0
C1183 C 0.57927 0.63385 0.53507 0.0
C1184 C 0.56307 0.60106 0.53678 0.0
C1185 C 0.5565 0.60334 0.42142 0.0
C1186 C 0.5489 0.60233 0.57517 0.0
C1187 C 0.54099 0.58593 0.59954 0.0
C1188 C 0.5472 0.56799 0.58617 0.0
C1189 C 0.56192 0.56683 0.54941 0.0
C1190 C 0.56979 0.58326 0.52486 0.0
H1191 H 0.55198 0.60806 0.38273 0.0
H1192 H 0.56559 0.59166 0.41357 0.0
H1193 H 0.5441 0.59744 0.44414 0.0
H1194 H 0.54356 0.61593 0.58503 0.0
H1195 H 0.52972 0.58723 0.628 0.0
H1196 H 0.82002 0.42923 0.33699 0.0
H1197 H 0.84196 0.43856 0.4064 0.0
H1198 H 0.81861 0.49257 0.42929 0.0
H1199 H 0.79741 0.48383 0.35667 0.0
H1200 H 0.85357 0.49904 0.41989 0.0
H1201 H 0.84197 0.44176 0.56206 0.0
H1202 H 0.84565 0.4311 0.49771 0.0
H1203 H 0.82581 0.44445 0.5103 0.0
C1204 C 0.81942 0.44307 0.35694 0.0
C1205 C 0.80712 0.4559 0.34046 0.0
C1206 C 0.8318 0.44826 0.39753 0.0
C1207 C 0.83187 0.4662 0.42389 0.0
C1208 C 0.81882 0.47861 0.40977 0.0
H1209 H 0.92045 0.48911 0.65781 0.0
H1210 H 0.88938 0.48404 0.62035 0.0
C1211 C 0.80658 0.47352 0.36846 0.0
C1212 C 0.84708 0.47279 0.46072 0.0
H1213 H 0.87357 0.4575 0.55771 0.0
C1214 C 0.85766 0.49011 0.4508 0.0
C1215 C 0.85235 0.46149 0.50208 0.0
C1216 C 0.84067 0.4438 0.51897 0.0
C1217 C 0.87393 0.49576 0.47839 0.0
C1218 C 0.88028 0.4834 0.51551 0.0
C1219 C 0.86903 0.46677 0.52824 0.0
C1220 C 0.89897 0.48689 0.53891 0.0
C1221 C 0.88419 0.51488 0.46697 0.0
C1222 C 0.91474 0.48981 0.50572 0.0
C1223 C 0.93239 0.49298 0.52706 0.0
C1224 C 0.93468 0.49284 0.58198 0.0
C1225 C 0.91902 0.48943 0.61529 0.0
C1226 C 0.90129 0.48651 0.59392 0.0
H1227 H 0.8745 0.52519 0.45488 0.0
H1228 H 0.89188 0.5211 0.50194 0.0
H1229 H 0.89418 0.5131 0.4336 0.0
H1230 H 0.91345 0.48945 0.4631 0.0
H1231 H 0.94426 0.4953 0.50046 0.0
loop_
_geom_bond_atom_site_label_1
_geom_bond_atom_site_label_2
_geom_bond_distance
_geom_bond_site_symmetry_2
_ccdc_geom_bond_type
C0 C1 1.384 . S
C0 H13 0.947 . S
C0 C35 1.382 . S
C1 C0 1.384 . S
C1 C2 1.378 . S
C2 C1 1.378 . S
C2 C3 1.378 . S
C2 H14 0.952 . S
C3 C2 1.378 . S
C3 H15 0.950 . S
C3 C34 1.383 . S
H4 C23 0.947 . S
H5 C24 0.946 . S
H6 C26 0.953 . S
H7 C27 0.945 . S
H8 C29 0.952 . S
H9 C30 0.949 . S
H10 C32 0.950 . S
H11 C33 0.948 1_554 S
H12 C35 0.951 . S
H13 C0 0.947 . S
H14 C2 0.952 . S
H15 C3 0.950 . S
N16 C19 1.382 . S
N16 C21 1.363 . S
N17 C19 1.371 . S
N17 C20 1.372 . S
N18 C20 1.361 . S
N18 C21 1.377 . S
C19 N16 1.382 . S
C19 N17 1.371 . S
C19 C22 1.480 . S
C20 N17 1.372 . S
C20 N18 1.361 . S
C20 C28 1.457 1_554 S
C21 N16 1.363 . S
C21 N18 1.377 . S
C21 C34 1.479 . S
C22 C19 1.480 . S
C22 C23 1.383 . S
C22 C27 1.385 1_554 S
C23 H4 0.947 . S
C23 C22 1.383 . S
C23 C24 1.388 . S
C24 H5 0.946 . S
C24 C23 1.388 . S
C24 C25 1.384 . S
C25 C24 1.384 . S
C25 C26 1.377 1_554 S
C26 H6 0.953 . S
C26 C25 1.377 1_556 S
C26 C27 1.369 . S
C27 H7 0.945 . S
C27 C22 1.385 1_556 S
C27 C26 1.369 . S
C28 C20 1.457 1_556 S
C28 C29 1.372 . S
C28 C33 1.364 . S
C29 H8 0.952 . S
C29 C28 1.372 . S
C29 C30 1.389 . S
C30 H9 0.949 . S
C30 C29 1.389 . S
C30 C31 1.387 . S
C31 C30 1.387 . S
C31 C32 1.372 . S
C32 H10 0.950 . S
C32 C31 1.372 . S
C32 C33 1.379 . S
C33 H11 0.948 1_556 S
C33 C28 1.364 . S
C33 C32 1.379 . S
C34 C3 1.383 . S
C34 C21 1.479 . S
C34 C35 1.398 . S
C35 C0 1.382 . S
C35 H12 0.951 . S
C35 C34 1.398 . S
C36 C37 1.384 . S
C36 H49 0.947 . S
C36 C71 1.382 . S
C37 C36 1.384 . S
C37 C38 1.378 . S
C38 C37 1.378 . S
C38 C39 1.378 . S
C38 H50 0.952 . S
C39 C38 1.378 . S
C39 H51 0.950 . S
C39 C70 1.383 . S
H40 C59 0.947 . S
H41 C60 0.946 . S
H42 C62 0.953 . S
H43 C63 0.945 . S
H44 C65 0.952 . S
H45 C66 0.949 . S
H46 C68 0.950 . S
H47 C69 0.948 . S
H48 C71 0.951 . S
H49 C36 0.947 . S
H50 C38 0.952 . S
H51 C39 0.950 . S
N52 C55 1.382 . S
N52 C57 1.363 . S
N53 C55 1.371 1_556 S
N53 C56 1.372 . S
N54 C56 1.361 1_554 S
N54 C57 1.377 . S
C55 N52 1.382 . S
C55 N53 1.371 1_554 S
C55 C58 1.480 1_554 S
C56 N53 1.372 . S
C56 N54 1.361 1_556 S
C56 C64 1.457 . S
C57 N52 1.363 . S
C57 N54 1.377 . S
C57 C70 1.479 . S
C58 C55 1.480 1_556 S
C58 C59 1.383 1_556 S
C58 C63 1.385 . S
C59 H40 0.947 . S
C59 C58 1.383 1_554 S
C59 C60 1.388 . S
C60 H41 0.946 . S
C60 C59 1.388 . S
C60 C61 1.384 1_554 S
C61 C60 1.384 1_556 S
C61 C62 1.377 . S
C62 H42 0.953 . S
C62 C61 1.377 . S
C62 C63 1.369 . S
C63 H43 0.945 . S
C63 C58 1.385 . S
C63 C62 1.369 . S
C64 C56 1.457 . S
C64 C65 1.372 . S
C64 C69 1.364 . S
C65 H44 0.952 . S
C65 C64 1.372 . S
C65 C66 1.389 . S
C66 H45 0.949 . S
C66 C65 1.389 . S
C66 C67 1.387 . S
C67 C66 1.387 . S
C67 C68 1.372 . S
C68 H46 0.950 . S
C68 C67 1.372 . S
C68 C69 1.379 . S
C69 H47 0.948 . S
C69 C64 1.364 . S
C69 C68 1.379 . S
C70 C39 1.383 . S
C70 C57 1.479 . S
C70 C71 1.398 . S
C71 C36 1.382 . S
C71 H48 0.951 . S
C71 C70 1.398 . S
C72 C73 1.384 1_565 S
C72 H85 0.947 . S
C72 C107 1.382 1_565 S
C73 C72 1.384 1_545 S
C73 C74 1.378 . S
C74 C73 1.378 . S
C74 C75 1.378 . S
C74 H86 0.952 . S
C75 C74 1.378 . S
C75 H87 0.950 . S
C75 C106 1.383 . S
H76 C95 0.947 . S
H77 C96 0.954 . S
H78 C98 0.962 . S
H79 C99 0.945 1_556 S
H80 C101 0.948 1_565 S
H81 C102 0.956 . S
H82 C104 0.950 . S
H83 C105 0.948 . S
H84 C107 0.951 1_565 S
H85 C72 0.947 . S
H86 C74 0.952 . S
H87 C75 0.950 . S
N88 C91 1.382 . S
N88 C93 1.363 . S
N89 C91 1.371 . S
N89 C92 1.372 . S
N90 C92 1.361 . S
N90 C93 1.377 . S
C91 N88 1.382 . S
C91 N89 1.371 . S
C91 C94 1.480 . S
C92 N89 1.372 . S
C92 N90 1.361 . S
C92 C100 1.457 . S
C93 N88 1.363 . S
C93 N90 1.377 . S
C93 C106 1.479 . S
C94 C91 1.480 . S
C94 C95 1.383 . S
C94 C99 1.385 . S
C95 H76 0.947 . S
C95 C94 1.383 . S
C95 C96 1.383 1_545 S
C96 H77 0.954 . S
C96 C95 1.383 1_565 S
C96 C97 1.381 1_565 S
C97 C96 1.381 1_545 S
C97 C98 1.370 1_554 S
C98 H78 0.962 . S
C98 C97 1.370 1_556 S
C98 C99 1.367 1_556 S
C99 H79 0.945 1_554 S
C99 C94 1.385 . S
C99 C98 1.367 1_554 S
C100 C92 1.457 . S
C100 C101 1.376 1_554 S
C100 C105 1.364 . S
C101 H80 0.948 1_545 S
C101 C100 1.376 1_556 S
C101 C102 1.392 1_545 S
C102 H81 0.956 . S
C102 C101 1.392 1_565 S
C102 C103 1.379 1_565 S
C103 C102 1.379 1_545 S
C103 C104 1.372 . S
C104 H82 0.950 . S
C104 C103 1.372 . S
C104 C105 1.379 1_556 S
C105 H83 0.948 . S
C105 C100 1.364 . S
C105 C104 1.379 1_554 S
C106 C75 1.383 . S
C106 C93 1.479 . S
C106 C107 1.398 . S
C107 C72 1.382 1_545 S
C107 H84 0.951 1_545 S
C107 C106 1.398 . S
C108 C109 1.384 . S
C108 H121 0.947 . S
C108 C143 1.382 1_556 S
C109 C108 1.384 . S
C109 C110 1.378 . S
C110 C109 1.378 . S
C110 C111 1.378 . S
C110 H122 0.952 . S
C111 C110 1.378 . S
C111 H123 0.950 . S
C111 C142 1.383 . S
H112 C131 0.947 1_556 S
H113 C132 0.946 . S
H114 C134 0.953 . S
H115 C135 0.945 . S
H116 C137 0.952 . S
H117 C138 0.949 . S
H118 C140 0.950 . S
H119 C141 0.948 . S
H120 C143 0.951 . S
H121 C108 0.947 . S
H122 C110 0.952 . S
H123 C111 0.950 . S
N124 C127 1.382 . S
N124 C129 1.363 . S
N125 C127 1.371 . S
N125 C128 1.372 . S
N126 C128 1.361 . S
N126 C129 1.377 . S
C127 N124 1.382 . S
C127 N125 1.371 . S
C127 C130 1.480 . S
C128 N125 1.372 . S
C128 N126 1.361 . S
C128 C136 1.457 . S
C129 N124 1.363 . S
C129 N126 1.377 . S
C129 C142 1.479 1_554 S
C130 C127 1.480 . S
C130 C131 1.383 . S
C130 C135 1.385 . S
C131 H112 0.947 1_554 S
C131 C130 1.383 . S
C131 C132 1.388 1_554 S
C132 H113 0.946 . S
C132 C131 1.388 1_556 S
C132 C133 1.384 1_556 S
C133 C132 1.384 1_554 S
C133 C134 1.377 . S
C134 H114 0.953 . S
C134 C133 1.377 . S
C134 C135 1.369 . S
C135 H115 0.945 . S
C135 C130 1.385 . S
C135 C134 1.369 . S
C136 C128 1.457 . S
C136 C137 1.372 . S
C136 C141 1.364 . S
C137 H116 0.952 . S
C137 C136 1.372 . S
C137 C138 1.389 . S
C138 H117 0.949 . S
C138 C137 1.389 . S
C138 C139 1.387 . S
C139 C138 1.387 . S
C139 C140 1.372 . S
C140 H118 0.950 . S
C140 C139 1.372 . S
C140 C141 1.379 . S
C141 H119 0.948 . S
C141 C136 1.364 . S
C141 C140 1.379 . S
C142 C111 1.383 . S
C142 C129 1.479 1_556 S
C142 C143 1.398 1_556 S
C143 C108 1.382 1_554 S
C143 H120 0.951 . S
C143 C142 1.398 1_554 S
C144 C145 1.384 . S
C144 H157 0.947 . S
C144 C179 1.382 . S
C145 C144 1.384 . S
C145 C146 1.378 . S
C146 C145 1.378 . S
C146 C147 1.378 . S
C146 H158 0.952 . S
C147 C146 1.378 . S
C147 H159 0.950 . S
C147 C178 1.383 . S
H148 C167 0.947 . S
H149 C168 0.946 . S
H150 C170 0.953 . S
H151 C171 0.945 . S
H152 C173 0.952 . S
H153 C174 0.949 . S
H154 C176 0.950 . S
H155 C177 0.948 . S
H156 C179 0.951 . S
H157 C144 0.947 . S
H158 C146 0.952 . S
H159 C147 0.950 . S
N160 C163 1.382 . S
N160 C165 1.363 . S
N161 C163 1.371 . S
N161 C164 1.372 . S
N162 C164 1.361 . S
N162 C165 1.377 . S
C163 N160 1.382 . S
C163 N161 1.371 . S
C163 C166 1.480 . S
C164 N161 1.372 . S
C164 N162 1.361 . S
C164 C172 1.457 . S
C165 N160 1.363 . S
C165 N162 1.377 . S
C165 C178 1.479 . S
C166 C163 1.480 . S
C166 C167 1.383 . S
C166 C171 1.385 . S
C167 H148 0.947 . S
C167 C166 1.383 . S
C167 C168 1.388 . S
C168 H149 0.946 . S
C168 C167 1.388 . S
C168 C169 1.384 . S
C169 C168 1.384 . S
C169 C170 1.377 . S
C170 H150 0.953 . S
C170 C169 1.377 . S
C170 C171 1.369 . S
C171 H151 0.945 . S
C171 C166 1.385 . S
C171 C170 1.369 . S
C172 C164 1.457 . S
C172 C173 1.372 . S
C172 C177 1.364 . S
C173 H152 0.952 . S
C173 C172 1.372 . S
C173 C174 1.389 . S
C174 H153 0.949 . S
C174 C173 1.389 . S
C174 C175 1.387 . S
C175 C174 1.387 . S
C175 C176 1.372 . S
C176 H154 0.950 . S
C176 C175 1.372 . S
C176 C177 1.379 . S
C177 H155 0.948 . S
C177 C172 1.364 . S
C177 C176 1.379 . S
C178 C147 1.383 . S
C178 C165 1.479 . S
C178 C179 1.398 . S
C179 C144 1.382 . S
C179 H156 0.951 . S
C179 C178 1.398 . S
C180 C181 1.384 . S
C180 H193 0.947 . S
C180 C215 1.382 . S
C181 C180 1.384 . S
C181 C182 1.378 . S
C182 C181 1.378 . S
C182 C183 1.378 . S
C182 H194 0.952 . S
C183 C182 1.378 . S
C183 H195 0.950 . S
C183 C214 1.383 . S
H184 C203 0.947 . S
H185 C204 0.946 . S
H186 C206 0.953 . S
H187 C207 0.945 . S
H188 C209 0.952 . S
H189 C210 0.949 . S
H190 C212 0.950 . S
H191 C213 0.948 . S
H192 C215 0.951 . S
H193 C180 0.947 . S
H194 C182 0.952 . S
H195 C183 0.950 . S
N196 C199 1.382 . S
N196 C201 1.363 . S
N197 C199 1.371 . S
N197 C200 1.372 . S
N198 C200 1.361 . S
N198 C201 1.377 . S
C199 N196 1.382 . S
C199 N197 1.371 . S
C199 C202 1.480 . S
C200 N197 1.372 . S
C200 N198 1.361 . S
C200 C208 1.457 . S
C201 N196 1.363 . S
C201 N198 1.377 . S
C201 C214 1.479 . S
C202 C199 1.480 . S
C202 C203 1.383 . S
C202 C207 1.385 . S
C203 H184 0.947 . S
C203 C202 1.383 . S
C203 C204 1.388 . S
C204 H185 0.946 . S
C204 C203 1.388 . S
C204 C205 1.384 . S
C205 C204 1.384 . S
C205 C206 1.377 . S
C206 H186 0.953 . S
C206 C205 1.377 . S
C206 C207 1.369 . S
C207 H187 0.945 . S
C207 C202 1.385 . S
C207 C206 1.369 . S
C208 C200 1.457 . S
C208 C209 1.372 . S
C208 C213 1.364 . S
C209 H188 0.952 . S
C209 C208 1.372 . S
C209 C210 1.389 . S
C210 H189 0.949 . S
C210 C209 1.389 . S
C210 C211 1.387 . S
C211 C210 1.387 . S
C211 C212 1.372 . S
C212 H190 0.950 . S
C212 C211 1.372 . S
C212 C213 1.379 . S
C213 H191 0.948 . S
C213 C208 1.364 . S
C213 C212 1.379 . S
C214 C183 1.383 . S
C214 C201 1.479 . S
C214 C215 1.398 . S
C215 C180 1.382 . S
C215 H192 0.951 . S
C215 C214 1.398 . S
C216 C217 1.384 . S
C216 H229 0.947 . S
C216 C251 1.382 . S
C217 C216 1.384 . S
C217 C218 1.378 . S
C218 C217 1.378 . S
C218 C219 1.378 . S
C218 H230 0.952 . S
C219 C218 1.378 . S
C219 H231 0.950 . S
C219 C250 1.383 . S
H220 C239 0.947 . S
H221 C240 0.954 . S
H222 C242 0.953 . S
H223 C243 0.945 . S
H224 C245 0.952 . S
H225 C246 0.949 . S
H226 C248 0.950 . S
H227 C249 0.948 . S
H228 C251 0.951 . S
H229 C216 0.947 . S
H230 C218 0.952 . S
H231 C219 0.950 . S
N232 C235 1.382 . S
N232 C237 1.363 . S
N233 C235 1.371 . S
N233 C236 1.372 . S
N234 C236 1.361 . S
N234 C237 1.377 . S
C235 N232 1.382 . S
C235 N233 1.371 . S
C235 C238 1.480 . S
C236 N233 1.372 . S
C236 N234 1.361 . S
C236 C244 1.457 . S
C237 N232 1.363 . S
C237 N234 1.377 . S
C237 C250 1.479 . S
C238 C235 1.480 . S
C238 C239 1.383 . S
C238 C243 1.385 . S
C239 H220 0.947 . S
C239 C238 1.383 . S
C239 C240 1.388 . S
C240 H221 0.954 . S
C240 C239 1.388 . S
C240 C241 1.384 . S
C241 C240 1.384 . S
C241 C242 1.377 . S
C242 H222 0.953 . S
C242 C241 1.377 . S
C242 C243 1.369 . S
C243 H223 0.945 . S
C243 C238 1.385 . S
C243 C242 1.369 . S
C244 C236 1.457 . S
C244 C245 1.372 . S
C244 C249 1.364 . S
C245 H224 0.952 . S
C245 C244 1.372 . S
C245 C246 1.389 . S
C246 H225 0.949 . S
C246 C245 1.389 . S
C246 C247 1.387 . S
C247 C246 1.387 . S
C247 C248 1.372 . S
C248 H226 0.950 . S
C248 C247 1.372 . S
C248 C249 1.379 . S
C249 H227 0.948 . S
C249 C244 1.364 . S
C249 C248 1.379 . S
C250 C219 1.383 . S
C250 C237 1.479 . S
C250 C251 1.398 . S
C251 C216 1.382 . S
C251 H228 0.951 . S
C251 C250 1.398 . S
C252 C253 1.384 . S
C252 H265 0.947 . S
C252 C287 1.382 . S
C253 C252 1.384 . S
C253 C254 1.378 . S
C254 C253 1.378 . S
C254 C255 1.378 . S
C254 H266 0.952 . S
C255 C254 1.378 . S
C255 H267 0.950 . S
C255 C286 1.383 . S
H256 C275 0.947 . S
H257 C276 0.946 . S
H258 C278 0.953 . S
H259 C279 0.945 . S
H260 C281 0.952 . S
H261 C282 0.949 . S
H262 C284 0.950 . S
H263 C285 0.948 . S
H264 C287 0.951 . S
H265 C252 0.947 . S
H266 C254 0.952 . S
H267 C255 0.950 . S
N268 C271 1.382 . S
N268 C273 1.363 . S
N269 C271 1.371 . S
N269 C272 1.372 . S
N270 C272 1.361 . S
N270 C273 1.377 . S
C271 N268 1.382 . S
C271 N269 1.371 . S
C271 C274 1.480 . S
C272 N269 1.372 . S
C272 N270 1.361 . S
C272 C280 1.457 . S
C273 N268 1.363 . S
C273 N270 1.377 . S
C273 C286 1.479 . S
C274 C271 1.480 . S
C274 C275 1.383 . S
C274 C279 1.385 . S
C275 H256 0.947 . S
C275 C274 1.383 . S
C275 C276 1.388 . S
C276 H257 0.946 . S
C276 C275 1.388 . S
C276 C277 1.384 . S
C277 C276 1.384 . S
C277 C278 1.377 . S
C278 H258 0.953 . S
C278 C277 1.377 . S
C278 C279 1.369 . S
C279 H259 0.945 . S
C279 C274 1.385 . S
C279 C278 1.369 . S
C280 C272 1.457 . S
C280 C281 1.372 . S
C280 C285 1.364 . S
C281 H260 0.952 . S
C281 C280 1.372 . S
C281 C282 1.389 . S
C282 H261 0.949 . S
C282 C281 1.389 . S
C282 C283 1.387 . S
C283 C282 1.387 . S
C283 C284 1.372 . S
C284 H262 0.950 . S
C284 C283 1.372 . S
C284 C285 1.379 . S
C285 H263 0.948 . S
C285 C280 1.364 . S
C285 C284 1.379 . S
C286 C255 1.383 . S
C286 C273 1.479 . S
C286 C287 1.398 . S
C287 C252 1.382 . S
C287 H264 0.951 . S
C287 C286 1.398 . S
Tb288 O291 2.453 1_665 S
Tb288 O292 2.596 1_665 S
Tb288 O293 2.374 1_655 S
Tb288 O301 2.343 . S
Tb288 O303 2.353 1_565 S
Tb288 O305 2.427 . S
Tb288 O306 2.513 . S
C289 O293 1.251 . S
C289 O295 1.263 . S
Tb290 O292 2.343 . S
Tb290 O295 2.353 1_545 S
Tb290 O298 2.427 . S
Tb290 O299 2.513 . S
Tb290 O300 2.453 1_545 S
Tb290 O301 2.596 1_445 S
Tb290 O302 2.374 1_455 S
O291 Tb288 2.453 1_445 S
O291 C307 1.245 . S
O292 Tb288 2.596 1_445 S
O292 Tb290 2.343 . S
O292 C307 1.259 . S
O293 Tb288 2.374 1_455 S
O293 C289 1.251 . S
C294 O298 1.275 . S
C294 O299 1.246 . S
O295 C289 1.263 . S
O295 Tb290 2.353 1_565 S
C296 O300 1.245 1_655 S
C296 O301 1.259 . S
C297 O302 1.250 . S
C297 O303 1.263 . S
O298 Tb290 2.427 . S
O298 C294 1.275 . S
O299 Tb290 2.513 . S
O299 C294 1.246 . S
O300 Tb290 2.453 1_565 S
O300 C296 1.245 1_455 S
O301 Tb288 2.343 . S
O301 Tb290 2.596 1_665 S
O301 C296 1.259 . S
O302 Tb290 2.374 1_655 S
O302 C297 1.250 . S
O303 Tb288 2.353 1_545 S
O303 C297 1.263 . S
C304 O305 1.275 . S
C304 O306 1.246 . S
O305 Tb288 2.427 . S
O305 C304 1.275 . S
O306 Tb288 2.513 . S
O306 C304 1.246 . S
C307 O291 1.245 . S
C307 O292 1.259 . S
Tb308 O311 2.453 . S
Tb308 O312 2.543 1_545 S
Tb308 O313 2.374 . S
Tb308 O321 2.343 . S
Tb308 O323 2.353 . S
Tb308 O325 2.427 . S
Tb308 O326 2.513 . S
C309 O313 1.251 . S
C309 O315 1.263 1_545 S
Tb310 O312 2.384 . S
Tb310 O315 2.353 . S
Tb310 O318 2.427 . S
Tb310 O319 2.513 . S
Tb310 O320 2.453 . S
Tb310 O321 2.596 1_565 S
Tb310 O322 2.374 . S
O311 Tb308 2.453 . S
O311 C327 1.245 . S
O312 Tb308 2.543 1_565 S
O312 Tb310 2.384 . S
O312 C327 1.233 1_565 S
O313 Tb308 2.374 . S
O313 C309 1.251 . S
C314 O318 1.275 . S
C314 O319 1.246 . S
O315 C309 1.263 1_565 S
O315 Tb310 2.353 . S
C316 O320 1.245 . S
C316 O321 1.259 1_565 S
C317 O322 1.250 1_545 S
C317 O323 1.263 . S
O318 Tb310 2.427 . S
O318 C314 1.275 . S
O319 Tb310 2.513 . S
O319 C314 1.246 . S
O320 Tb310 2.453 . S
O320 C316 1.245 . S
O321 Tb308 2.343 . S
O321 Tb310 2.596 1_545 S
O321 C316 1.259 1_545 S
O322 Tb310 2.374 . S
O322 C317 1.250 1_565 S
O323 Tb308 2.353 . S
O323 C317 1.263 . S
C324 O325 1.275 . S
C324 O326 1.246 . S
O325 Tb308 2.427 . S
O325 C324 1.275 . S
O326 Tb308 2.513 . S
O326 C324 1.246 . S
C327 O311 1.245 . S
C327 O312 1.233 1_545 S
Tb328 O331 2.453 . S
Tb328 O332 2.596 . S
Tb328 O333 2.374 . S
Tb328 O341 2.343 . S
Tb328 O343 2.353 . S
Tb328 O345 2.427 . S
Tb328 O346 2.513 . S
C329 O333 1.251 . S
C329 O335 1.263 . S
Tb330 O332 2.343 . S
Tb330 O335 2.353 . S
Tb330 O338 2.427 . S
Tb330 O339 2.513 . S
Tb330 O340 2.453 . S
Tb330 O341 2.596 . S
Tb330 O342 2.374 . S
O331 Tb328 2.453 . S
O331 C347 1.245 . S
O332 Tb328 2.596 . S
O332 Tb330 2.343 . S
O332 C347 1.259 . S
O333 Tb328 2.374 . S
O333 C329 1.251 . S
C334 O338 1.275 . S
C334 O339 1.246 . S
O335 C329 1.263 . S
O335 Tb330 2.353 . S
C336 O340 1.245 . S
C336 O341 1.259 . S
C337 O342 1.250 . S
C337 O343 1.263 . S
O338 Tb330 2.427 . S
O338 C334 1.275 . S
O339 Tb330 2.513 . S
O339 C334 1.246 . S
O340 Tb330 2.453 . S
O340 C336 1.245 . S
O341 Tb328 2.343 . S
O341 Tb330 2.596 . S
O341 C336 1.259 . S
O342 Tb330 2.374 . S
O342 C337 1.250 . S
O343 Tb328 2.353 . S
O343 C337 1.263 . S
C344 O345 1.275 . S
C344 O346 1.246 . S
O345 Tb328 2.427 . S
O345 C344 1.275 . S
O346 Tb328 2.513 . S
O346 C344 1.246 . S
C347 O331 1.245 . S
C347 O332 1.259 . S
Tb348 O351 2.453 1_655 S
Tb348 O352 2.596 1_655 S
Tb348 O353 2.374 1_655 S
Tb348 O361 2.343 . S
Tb348 O363 2.353 . S
Tb348 O365 2.427 . S
Tb348 O366 2.513 . S
C349 O353 1.251 . S
C349 O355 1.263 . S
Tb350 O352 2.343 . S
Tb350 O355 2.353 . S
Tb350 O358 2.427 . S
Tb350 O359 2.513 . S
Tb350 O360 2.453 1_455 S
Tb350 O361 2.596 1_455 S
Tb350 O362 2.374 . S
O351 Tb348 2.453 1_455 S
O351 C367 1.245 . S
O352 Tb348 2.596 1_455 S
O352 Tb350 2.343 . S
O352 C367 1.259 . S
O353 Tb348 2.374 1_455 S
O353 C349 1.251 . S
C354 O358 1.275 . S
C354 O359 1.246 . S
O355 C349 1.263 . S
O355 Tb350 2.353 . S
C356 O360 1.245 . S
C356 O361 1.259 . S
C357 O362 1.250 1_655 S
C357 O363 1.263 . S
O358 Tb350 2.427 . S
O358 C354 1.275 . S
O359 Tb350 2.513 . S
O359 C354 1.246 . S
O360 Tb350 2.453 1_655 S
O360 C356 1.245 . S
O361 Tb348 2.343 . S
O361 Tb350 2.596 1_655 S
O361 C356 1.259 . S
O362 Tb350 2.374 . S
O362 C357 1.250 1_455 S
O363 Tb348 2.353 . S
O363 C357 1.263 . S
C364 O365 1.275 . S
C364 O366 1.246 . S
O365 Tb348 2.427 . S
O365 C364 1.275 . S
O366 Tb348 2.513 . S
O366 C364 1.246 . S
C367 O351 1.245 . S
C367 O352 1.259 . S
H368 C376 0.929 . S
H369 C378 0.930 . S
H370 C380 0.930 . S
H371 C383 0.929 . S
H372 C386 0.930 . S
H373 C388 0.960 . S
H374 C388 0.960 . S
H375 C388 0.960 . S
C376 H368 0.929 . S
C376 C377 1.377 . S
C376 C378 1.384 . S
C377 C376 1.377 . S
C377 C383 1.390 1_545 S
C378 H369 0.930 . S
C378 C376 1.384 . S
C378 C379 1.372 . S
C379 C378 1.372 . S
C379 C380 1.400 1_545 S
C379 C384 1.490 . S
C380 H370 0.930 . S
C380 C379 1.400 1_565 S
C380 C383 1.386 . S
H381 C397 0.930 . S
H382 C398 0.931 . S
C383 H371 0.929 . S
C383 C377 1.390 1_565 S
C383 C380 1.386 . S
C384 C379 1.490 . S
C384 C386 1.395 . S
C384 C387 1.403 1_545 S
H385 C391 0.930 . S
C386 H372 0.930 . S
C386 C384 1.395 . S
C386 C389 1.403 . S
C387 C384 1.403 1_565 S
C387 C388 1.524 . S
C387 C391 1.400 . S
C388 H373 0.960 . S
C388 H374 0.960 . S
C388 H375 0.960 . S
C388 C387 1.524 . S
C389 C386 1.403 . S
C389 C390 1.392 . S
C389 C393 1.495 . S
C390 C389 1.392 . S
C390 C391 1.385 1_545 S
C390 C392 1.478 . S
C391 H385 0.930 . S
C391 C387 1.400 . S
C391 C390 1.385 1_565 S
C392 C390 1.478 . S
C392 C394 1.381 . S
C392 C398 1.383 1_545 S
C393 C389 1.495 . S
C393 H399 0.959 . S
C393 H400 0.961 . S
C393 H401 0.960 . S
C394 C392 1.381 . S
C394 C395 1.394 . S
C394 H402 0.930 . S
C395 C394 1.394 . S
C395 C396 1.341 1_545 S
C395 H403 0.929 . S
C396 C395 1.341 1_565 S
C396 C397 1.418 . S
C397 H381 0.930 . S
C397 C396 1.418 . S
C397 C398 1.379 . S
C398 H382 0.931 . S
C398 C392 1.383 1_565 S
C398 C397 1.379 . S
H399 C393 0.959 . S
H400 C393 0.961 . S
H401 C393 0.960 . S
H402 C394 0.930 . S
H403 C395 0.929 . S
H404 C412 0.929 . S
H405 C414 0.930 . S
H406 C416 0.930 . S
H407 C419 0.929 . S
H408 C422 0.930 . S
H409 C424 0.960 . S
H410 C424 0.960 . S
H411 C424 0.960 . S
C412 H404 0.929 . S
C412 C413 1.377 . S
C412 C414 1.384 . S
C413 C412 1.377 . S
C413 C419 1.390 . S
C414 H405 0.930 . S
C414 C412 1.384 . S
C414 C415 1.372 . S
C415 C414 1.372 . S
C415 C416 1.400 . S
C415 C420 1.490 . S
C416 H406 0.930 . S
C416 C415 1.400 . S
C416 C419 1.386 . S
H417 C433 0.930 . S
H418 C434 0.931 . S
C419 H407 0.929 . S
C419 C413 1.390 . S
C419 C416 1.386 . S
C420 C415 1.490 . S
C420 C422 1.395 . S
C420 C423 1.403 . S
H421 C427 0.930 . S
C422 H408 0.930 . S
C422 C420 1.395 . S
C422 C425 1.403 . S
C423 C420 1.403 . S
C423 C424 1.524 . S
C423 C427 1.400 . S
C424 H409 0.960 . S
C424 H410 0.960 . S
C424 H411 0.960 . S
C424 C423 1.524 . S
C425 C422 1.403 . S
C425 C426 1.392 . S
C425 C429 1.495 . S
C426 C425 1.392 . S
C426 C427 1.385 . S
C426 C428 1.478 . S
C427 H421 0.930 . S
C427 C423 1.400 . S
C427 C426 1.385 . S
C428 C426 1.478 . S
C428 C430 1.381 . S
C428 C434 1.383 . S
C429 C425 1.495 . S
C429 H435 0.959 . S
C429 H436 0.961 . S
C429 H437 0.960 . S
C430 C428 1.381 . S
C430 C431 1.394 . S
C430 H438 0.930 . S
C431 C430 1.394 . S
C431 C432 1.383 . S
C431 H439 0.929 . S
C432 C431 1.383 . S
C432 C433 1.377 . S
C433 H417 0.930 . S
C433 C432 1.377 . S
C433 C434 1.379 . S
C434 H418 0.931 . S
C434 C428 1.383 . S
C434 C433 1.379 . S
H435 C429 0.959 . S
H436 C429 0.961 . S
H437 C429 0.960 . S
H438 C430 0.930 . S
H439 C431 0.929 . S
H440 C448 0.929 . S
H441 C450 0.930 . S
H442 C452 0.930 . S
H443 C455 0.929 . S
H444 C458 0.930 . S
H445 C460 0.960 . S
H446 C460 0.960 . S
H447 C460 0.960 . S
C448 H440 0.929 . S
C448 C449 1.377 . S
C448 C450 1.384 . S
C449 C448 1.377 . S
C449 C455 1.390 . S
C450 H441 0.930 . S
C450 C448 1.384 . S
C450 C451 1.372 . S
C451 C450 1.372 . S
C451 C452 1.400 . S
C451 C456 1.490 . S
C452 H442 0.930 . S
C452 C451 1.400 . S
C452 C455 1.386 . S
H453 C469 0.930 . S
H454 C470 0.931 . S
C455 H443 0.929 . S
C455 C449 1.390 . S
C455 C452 1.386 . S
C456 C451 1.490 . S
C456 C458 1.395 . S
C456 C459 1.403 . S
H457 C463 0.930 . S
C458 H444 0.930 . S
C458 C456 1.395 . S
C458 C461 1.403 . S
C459 C456 1.403 . S
C459 C460 1.524 . S
C459 C463 1.400 . S
C460 H445 0.960 . S
C460 H446 0.960 . S
C460 H447 0.960 . S
C460 C459 1.524 . S
C461 C458 1.403 . S
C461 C462 1.392 . S
C461 C465 1.495 . S
C462 C461 1.392 . S
C462 C463 1.385 . S
C462 C464 1.478 . S
C463 H457 0.930 . S
C463 C459 1.400 . S
C463 C462 1.385 . S
C464 C462 1.478 . S
C464 C466 1.381 . S
C464 C470 1.383 . S
C465 C461 1.495 . S
C465 H471 0.959 . S
C465 H472 0.961 . S
C465 H473 0.960 . S
C466 C464 1.381 . S
C466 C467 1.394 . S
C466 H474 0.930 . S
C467 C466 1.394 . S
C467 C468 1.383 . S
C467 H475 0.929 . S
C468 C467 1.383 . S
C468 C469 1.377 . S
C469 H453 0.930 . S
C469 C468 1.377 . S
C469 C470 1.379 . S
C470 H454 0.931 . S
C470 C464 1.383 . S
C470 C469 1.379 . S
H471 C465 0.959 . S
H472 C465 0.961 . S
H473 C465 0.960 . S
H474 C466 0.930 . S
H475 C467 0.929 . S
H476 C484 0.929 . S
H477 C486 0.930 . S
H478 C488 0.930 . S
H479 C491 0.929 . S
H480 C494 0.930 . S
H481 C496 0.960 . S
H482 C496 0.960 . S
H483 C496 0.960 . S
C484 H476 0.929 . S
C484 C485 1.377 . S
C484 C486 1.384 . S
C485 C484 1.377 . S
C485 C491 1.390 . S
C486 H477 0.930 . S
C486 C484 1.384 . S
C486 C487 1.372 . S
C487 C486 1.372 . S
C487 C488 1.400 . S
C487 C492 1.490 . S
C488 H478 0.930 . S
C488 C487 1.400 . S
C488 C491 1.386 . S
H489 C505 0.930 . S
H490 C506 0.931 . S
C491 H479 0.929 . S
C491 C485 1.390 . S
C491 C488 1.386 . S
C492 C487 1.490 . S
C492 C494 1.395 . S
C492 C495 1.403 . S
H493 C499 0.930 . S
C494 H480 0.930 . S
C494 C492 1.395 . S
C494 C497 1.403 . S
C495 C492 1.403 . S
C495 C496 1.524 . S
C495 C499 1.400 . S
C496 H481 0.960 . S
C496 H482 0.960 . S
C496 H483 0.960 . S
C496 C495 1.524 . S
C497 C494 1.403 . S
C497 C498 1.392 . S
C497 C501 1.495 . S
C498 C497 1.392 . S
C498 C499 1.385 . S
C498 C500 1.478 . S
C499 H493 0.930 . S
C499 C495 1.400 . S
C499 C498 1.385 . S
C500 C498 1.478 . S
C500 C502 1.381 . S
C500 C506 1.383 . S
C501 C497 1.495 . S
C501 H507 0.959 . S
C501 H508 0.961 . S
C501 H509 0.960 . S
C502 C500 1.381 . S
C502 C503 1.394 . S
C502 H510 0.930 . S
C503 C502 1.394 . S
C503 C504 1.383 . S
C503 H511 0.929 . S
C504 C503 1.383 . S
C504 C505 1.377 . S
C505 H489 0.930 . S
C505 C504 1.377 . S
C505 C506 1.379 . S
C506 H490 0.931 . S
C506 C500 1.383 . S
C506 C505 1.379 . S
H507 C501 0.959 . S
H508 C501 0.961 . S
H509 C501 0.960 . S
H510 C502 0.930 . S
H511 C503 0.929 . S
H512 C520 0.929 . S
H513 C522 0.930 . S
H514 C524 0.930 . S
H515 C527 0.929 . S
H516 C530 0.930 . S
H517 C532 0.960 . S
H518 C532 0.960 . S
H519 C532 0.960 1_565 S
C520 H512 0.929 . S
C520 C521 1.403 . S
C520 C522 1.384 1_554 S
C521 C520 1.403 . S
C521 C527 1.365 1_544 S
C522 H513 0.930 . S
C522 C520 1.384 1_556 S
C522 C523 1.372 . S
C523 C522 1.372 . S
C523 C524 1.400 1_545 S
C523 C528 1.490 . S
C524 H514 0.930 . S
C524 C523 1.400 1_565 S
C524 C527 1.386 . S
H525 C541 0.930 . S
H526 C542 0.931 . S
C527 H515 0.929 . S
C527 C521 1.365 1_566 S
C527 C524 1.386 . S
C528 C523 1.490 . S
C528 C530 1.395 . S
C528 C531 1.403 . S
H529 C535 0.930 . S
C530 H516 0.930 . S
C530 C528 1.395 . S
C530 C533 1.403 . S
C531 C528 1.403 . S
C531 C532 1.524 . S
C531 C535 1.400 . S
C532 H517 0.960 . S
C532 H518 0.960 . S
C532 H519 0.960 1_545 S
C532 C531 1.524 . S
C533 C530 1.403 . S
C533 C534 1.392 . S
C533 C537 1.495 . S
C534 C533 1.392 . S
C534 C535 1.385 . S
C534 C536 1.478 . S
C535 H529 0.930 . S
C535 C531 1.400 . S
C535 C534 1.385 . S
C536 C534 1.478 . S
C536 C538 1.381 . S
C536 C542 1.383 1_545 S
C537 C533 1.495 . S
C537 H543 0.959 . S
C537 H544 0.961 1_545 S
C537 H545 0.960 . S
C538 C536 1.381 . S
C538 C539 1.394 . S
C538 H546 0.930 . S
C539 C538 1.394 . S
C539 C540 1.383 . S
C539 H547 0.929 . S
C540 C539 1.383 . S
C540 C541 1.377 1_545 S
C541 H525 0.930 . S
C541 C540 1.377 1_565 S
C541 C542 1.379 . S
C542 H526 0.931 . S
C542 C536 1.383 1_565 S
C542 C541 1.379 . S
H543 C537 0.959 . S
H544 C537 0.961 1_565 S
H545 C537 0.960 . S
H546 C538 0.930 . S
H547 C539 0.929 . S
H548 C556 0.929 . S
H549 C558 0.923 1_554 S
H550 C560 0.930 . S
H551 C563 0.929 . S
H552 C566 0.930 . S
H553 C568 0.960 . S
H554 C568 0.960 . S
H555 C568 0.960 . S
C556 H548 0.929 . S
C556 C557 1.377 1_554 S
C556 C558 1.376 1_554 S
C557 C556 1.377 1_556 S
C557 C563 1.391 . S
C558 H549 0.923 1_556 S
C558 C556 1.376 1_556 S
C558 C559 1.387 . S
C559 C558 1.387 . S
C559 C560 1.400 . S
C559 C564 1.490 . S
C560 H550 0.930 . S
C560 C559 1.400 . S
C560 C563 1.386 . S
H561 C577 0.930 . S
H562 C578 0.931 . S
C563 H551 0.929 . S
C563 C557 1.391 . S
C563 C560 1.386 . S
C564 C559 1.490 . S
C564 C566 1.395 . S
C564 C567 1.403 . S
H565 C571 0.930 . S
C566 H552 0.930 . S
C566 C564 1.395 . S
C566 C569 1.403 . S
C567 C564 1.403 . S
C567 C568 1.524 . S
C567 C571 1.400 . S
C568 H553 0.960 . S
C568 H554 0.960 . S
C568 H555 0.960 . S
C568 C567 1.524 . S
C569 C566 1.403 . S
C569 C570 1.392 . S
C569 C573 1.495 . S
C570 C569 1.392 . S
C570 C571 1.385 . S
C570 C572 1.478 . S
C571 H565 0.930 . S
C571 C567 1.400 . S
C571 C570 1.385 . S
C572 C570 1.478 . S
C572 C574 1.381 . S
C572 C578 1.383 . S
C573 C569 1.495 . S
C573 H579 0.959 . S
C573 H580 0.961 . S
C573 H581 0.960 . S
C574 C572 1.381 . S
C574 C575 1.394 . S
C574 H582 0.930 . S
C575 C574 1.394 . S
C575 C576 1.383 . S
C575 H583 0.929 . S
C576 C575 1.383 . S
C576 C577 1.377 . S
C577 H561 0.930 . S
C577 C576 1.377 . S
C577 C578 1.379 . S
C578 H562 0.931 . S
C578 C572 1.383 . S
C578 C577 1.379 . S
H579 C573 0.959 . S
H580 C573 0.961 . S
H581 C573 0.960 . S
H582 C574 0.930 . S
H583 C575 0.929 . S
H584 C592 0.929 . S
H585 C594 0.930 . S
H586 C596 0.930 . S
H587 C599 0.929 . S
H588 C602 0.930 . S
H589 C604 0.960 . S
H590 C604 0.960 . S
H591 C604 0.960 . S
C592 H584 0.929 . S
C592 C593 1.377 . S
C592 C594 1.384 . S
C593 C592 1.377 . S
C593 C599 1.390 1_556 S
C594 H585 0.930 . S
C594 C592 1.384 . S
C594 C595 1.372 . S
C595 C594 1.372 . S
C595 C596 1.400 . S
C595 C600 1.490 . S
C596 H586 0.930 . S
C596 C595 1.400 . S
C596 C599 1.386 1_556 S
H597 C613 0.930 . S
H598 C614 0.931 . S
C599 H587 0.929 . S
C599 C593 1.390 1_554 S
C599 C596 1.386 1_554 S
C600 C595 1.490 . S
C600 C602 1.395 . S
C600 C603 1.403 . S
H601 C607 0.930 . S
C602 H588 0.930 . S
C602 C600 1.395 . S
C602 C605 1.403 . S
C603 C600 1.403 . S
C603 C604 1.524 . S
C603 C607 1.400 . S
C604 H589 0.960 . S
C604 H590 0.960 . S
C604 H591 0.960 . S
C604 C603 1.524 . S
C605 C602 1.403 . S
C605 C606 1.392 . S
C605 C609 1.495 . S
C606 C605 1.392 . S
C606 C607 1.385 . S
C606 C608 1.478 . S
C607 H601 0.930 . S
C607 C603 1.400 . S
C607 C606 1.385 . S
C608 C606 1.478 . S
C608 C610 1.381 . S
C608 C614 1.383 . S
C609 C605 1.495 . S
C609 H615 0.959 . S
C609 H616 0.961 . S
C609 H617 0.960 . S
C610 C608 1.381 . S
C610 C611 1.394 . S
C610 H618 0.930 . S
C611 C610 1.394 . S
C611 C612 1.383 . S
C611 H619 0.929 . S
C612 C611 1.383 . S
C612 C613 1.377 . S
C613 H597 0.930 . S
C613 C612 1.377 . S
C613 C614 1.379 . S
C614 H598 0.931 . S
C614 C608 1.383 . S
C614 C613 1.379 . S
H615 C609 0.959 . S
H616 C609 0.961 . S
H617 C609 0.960 . S
H618 C610 0.930 . S
H619 C611 0.929 . S
H620 C628 0.929 . S
H621 C630 0.930 . S
H622 C632 0.930 . S
H623 C635 0.929 . S
H624 C638 0.930 . S
H625 C640 0.960 . S
H626 C640 0.960 . S
H627 C640 0.960 . S
C628 H620 0.929 . S
C628 C629 1.377 . S
C628 C630 1.384 . S
C629 C628 1.377 . S
C629 C635 1.390 . S
C630 H621 0.930 . S
C630 C628 1.384 . S
C630 C631 1.372 . S
C631 C630 1.372 . S
C631 C632 1.400 . S
C631 C636 1.490 . S
C632 H622 0.930 . S
C632 C631 1.400 . S
C632 C635 1.386 . S
H633 C649 0.930 . S
H634 C650 0.931 . S
C635 H623 0.929 . S
C635 C629 1.390 . S
C635 C632 1.386 . S
C636 C631 1.490 . S
C636 C638 1.395 . S
C636 C639 1.403 . S
H637 C643 0.930 . S
C638 H624 0.930 . S
C638 C636 1.395 . S
C638 C641 1.403 . S
C639 C636 1.403 . S
C639 C640 1.524 . S
C639 C643 1.400 . S
C640 H625 0.960 . S
C640 H626 0.960 . S
C640 H627 0.960 . S
C640 C639 1.524 . S
C641 C638 1.403 . S
C641 C642 1.392 . S
C641 C645 1.495 . S
C642 C641 1.392 . S
C642 C643 1.385 . S
C642 C644 1.478 . S
C643 H637 0.930 . S
C643 C639 1.400 . S
C643 C642 1.385 . S
C644 C642 1.478 . S
C644 C646 1.381 . S
C644 C650 1.383 . S
C645 C641 1.495 . S
C645 H651 0.959 . S
C645 H652 0.961 . S
C645 H653 0.960 . S
C646 C644 1.381 . S
C646 C647 1.394 . S
C646 H654 0.930 . S
C647 C646 1.394 . S
C647 C648 1.383 . S
C647 H655 0.929 . S
C648 C647 1.383 . S
C648 C649 1.377 . S
C649 H633 0.930 . S
C649 C648 1.377 . S
C649 C650 1.379 . S
C650 H634 0.931 . S
C650 C644 1.383 . S
C650 C649 1.379 . S
H651 C645 0.959 . S
H652 C645 0.961 . S
H653 C645 0.960 . S
H654 C646 0.930 . S
H655 C647 0.929 . S
H656 C664 0.929 . S
H657 C666 0.930 . S
H658 C668 0.930 . S
H659 C671 0.929 . S
H660 C674 0.930 . S
H661 C676 0.960 . S
H662 C676 0.960 . S
H663 C676 0.960 . S
C664 H656 0.929 . S
C664 C665 1.377 . S
C664 C666 1.384 . S
C665 C664 1.377 . S
C665 C671 1.390 . S
C666 H657 0.930 . S
C666 C664 1.384 . S
C666 C667 1.372 . S
C667 C666 1.372 . S
C667 C668 1.400 . S
C667 C672 1.490 . S
C668 H658 0.930 . S
C668 C667 1.400 . S
C668 C671 1.386 . S
H669 C685 0.930 . S
H670 C686 0.931 . S
C671 H659 0.929 . S
C671 C665 1.390 . S
C671 C668 1.386 . S
C672 C667 1.490 . S
C672 C674 1.395 . S
C672 C675 1.403 . S
H673 C679 0.930 . S
C674 H660 0.930 . S
C674 C672 1.395 . S
C674 C677 1.403 . S
C675 C672 1.403 . S
C675 C676 1.524 . S
C675 C679 1.400 . S
C676 H661 0.960 . S
C676 H662 0.960 . S
C676 H663 0.960 . S
C676 C675 1.524 . S
C677 C674 1.403 . S
C677 C678 1.392 . S
C677 C681 1.495 . S
C678 C677 1.392 . S
C678 C679 1.385 . S
C678 C680 1.478 . S
C679 H673 0.930 . S
C679 C675 1.400 . S
C679 C678 1.385 . S
C680 C678 1.478 . S
C680 C682 1.381 . S
C680 C686 1.383 . S
C681 C677 1.495 . S
C681 H687 0.959 . S
C681 H688 0.961 . S
C681 H689 0.960 . S
C682 C680 1.381 . S
C682 C683 1.394 . S
C682 H690 0.930 . S
C683 C682 1.394 . S
C683 C684 1.383 . S
C683 H691 0.929 . S
C684 C683 1.383 . S
C684 C685 1.377 . S
C685 H669 0.930 . S
C685 C684 1.377 . S
C685 C686 1.379 . S
C686 H670 0.931 . S
C686 C680 1.383 . S
C686 C685 1.379 . S
H687 C681 0.959 . S
H688 C681 0.961 . S
H689 C681 0.960 . S
H690 C682 0.930 . S
H691 C683 0.929 . S
H692 C700 0.929 . S
H693 C702 0.930 . S
H694 C704 0.930 . S
H695 C707 0.935 . S
H696 C710 0.930 . S
H697 C712 0.960 . S
H698 C712 0.960 . S
H699 C712 0.960 . S
C700 H692 0.929 . S
C700 C701 1.377 . S
C700 C702 1.384 . S
C701 C700 1.377 . S
C701 C707 1.381 1_545 S
C702 H693 0.930 . S
C702 C700 1.384 . S
C702 C703 1.372 . S
C703 C702 1.372 . S
C703 C704 1.400 1_545 S
C703 C708 1.490 . S
C704 H694 0.930 . S
C704 C703 1.400 1_565 S
C704 C707 1.390 . S
H705 C721 0.931 . S
H706 C722 0.932 . S
C707 H695 0.935 . S
C707 C701 1.381 1_565 S
C707 C704 1.390 . S
C708 C703 1.490 . S
C708 C710 1.395 . S
C708 C711 1.403 1_545 S
H709 C715 0.930 . S
C710 H696 0.930 . S
C710 C708 1.395 . S
C710 C713 1.403 . S
C711 C708 1.403 1_565 S
C711 C712 1.524 . S
C711 C715 1.400 . S
C712 H697 0.960 . S
C712 H698 0.960 . S
C712 H699 0.960 . S
C712 C711 1.524 . S
C713 C710 1.403 . S
C713 C714 1.392 . S
C713 C717 1.495 . S
C714 C713 1.392 . S
C714 C715 1.385 1_545 S
C714 C716 1.478 . S
C715 H709 0.930 . S
C715 C711 1.400 . S
C715 C714 1.385 1_565 S
C716 C714 1.478 . S
C716 C718 1.381 . S
C716 C722 1.383 . S
C717 C713 1.495 . S
C717 H723 0.959 . S
C717 H724 0.961 . S
C717 H725 0.960 . S
C718 C716 1.381 . S
C718 C719 1.394 . S
C718 H726 0.930 . S
C719 C718 1.394 . S
C719 C720 1.383 . S
C719 H727 0.929 . S
C720 C719 1.383 . S
C720 C721 1.377 1_545 S
C721 H705 0.931 . S
C721 C720 1.377 1_565 S
C721 C722 1.378 1_565 S
C722 H706 0.932 . S
C722 C716 1.383 . S
C722 C721 1.378 1_545 S
H723 C717 0.959 . S
H724 C717 0.961 . S
H725 C717 0.960 . S
H726 C718 0.930 . S
H727 C719 0.929 . S
H728 C736 0.929 . S
H729 C738 0.930 . S
H730 C740 0.930 . S
H731 C743 0.929 . S
H732 C746 0.930 . S
H733 C748 0.960 . S
H734 C748 0.960 . S
H735 C748 0.960 . S
C736 H728 0.929 . S
C736 C737 1.377 . S
C736 C738 1.384 . S
C737 C736 1.377 . S
C737 C743 1.390 . S
C738 H729 0.930 . S
C738 C736 1.384 . S
C738 C739 1.372 . S
C739 C738 1.372 . S
C739 C740 1.400 . S
C739 C744 1.490 . S
C740 H730 0.930 . S
C740 C739 1.400 . S
C740 C743 1.386 . S
H741 C757 0.930 . S
H742 C758 0.931 . S
C743 H731 0.929 . S
C743 C737 1.390 . S
C743 C740 1.386 . S
C744 C739 1.490 . S
C744 C746 1.395 . S
C744 C747 1.403 . S
H745 C751 0.930 . S
C746 H732 0.930 . S
C746 C744 1.395 . S
C746 C749 1.403 . S
C747 C744 1.403 . S
C747 C748 1.524 . S
C747 C751 1.400 . S
C748 H733 0.960 . S
C748 H734 0.960 . S
C748 H735 0.960 . S
C748 C747 1.524 . S
C749 C746 1.403 . S
C749 C750 1.392 . S
C749 C753 1.495 . S
C750 C749 1.392 . S
C750 C751 1.385 . S
C750 C752 1.478 . S
C751 H745 0.930 . S
C751 C747 1.400 . S
C751 C750 1.385 . S
C752 C750 1.478 . S
C752 C754 1.381 . S
C752 C758 1.383 . S
C753 C749 1.495 . S
C753 H759 0.959 . S
C753 H760 0.961 . S
C753 H761 0.960 . S
C754 C752 1.381 . S
C754 C755 1.394 . S
C754 H762 0.930 . S
C755 C754 1.394 . S
C755 C756 1.383 . S
C755 H763 0.929 . S
C756 C755 1.383 . S
C756 C757 1.377 . S
C757 H741 0.930 . S
C757 C756 1.377 . S
C757 C758 1.379 . S
C758 H742 0.931 . S
C758 C752 1.383 . S
C758 C757 1.379 . S
H759 C753 0.959 . S
H760 C753 0.961 . S
H761 C753 0.960 . S
H762 C754 0.930 . S
H763 C755 0.929 . S
H764 C772 0.929 . S
H765 C774 0.930 . S
H766 C776 0.930 . S
H767 C779 0.929 . S
H768 C782 0.930 . S
H769 C784 0.960 . S
H770 C784 0.960 . S
H771 C784 0.960 . S
C772 H764 0.929 . S
C772 C773 1.377 . S
C772 C774 1.384 . S
C773 C772 1.377 . S
C773 C779 1.390 . S
C774 H765 0.930 . S
C774 C772 1.384 . S
C774 C775 1.372 . S
C775 C774 1.372 . S
C775 C776 1.400 . S
C775 C780 1.490 . S
C776 H766 0.930 . S
C776 C775 1.400 . S
C776 C779 1.386 . S
H777 C793 0.930 . S
H778 C794 0.931 . S
C779 H767 0.929 . S
C779 C773 1.390 . S
C779 C776 1.386 . S
C780 C775 1.490 . S
C780 C782 1.395 . S
C780 C783 1.403 . S
H781 C787 0.930 . S
C782 H768 0.930 . S
C782 C780 1.395 . S
C782 C785 1.403 . S
C783 C780 1.403 . S
C783 C784 1.524 . S
C783 C787 1.400 . S
C784 H769 0.960 . S
C784 H770 0.960 . S
C784 H771 0.960 . S
C784 C783 1.524 . S
C785 C782 1.403 . S
C785 C786 1.392 . S
C785 C789 1.495 . S
C786 C785 1.392 . S
C786 C787 1.385 . S
C786 C788 1.478 . S
C787 H781 0.930 . S
C787 C783 1.400 . S
C787 C786 1.385 . S
C788 C786 1.478 . S
C788 C790 1.381 . S
C788 C794 1.383 . S
C789 C785 1.495 . S
C789 H795 0.959 . S
C789 H796 0.961 . S
C789 H797 0.960 . S
C790 C788 1.381 . S
C790 C791 1.394 . S
C790 H798 0.930 . S
C791 C790 1.394 . S
C791 C792 1.383 . S
C791 H799 0.929 . S
C792 C791 1.383 . S
C792 C793 1.377 . S
C793 H777 0.930 . S
C793 C792 1.377 . S
C793 C794 1.379 . S
C794 H778 0.931 . S
C794 C788 1.383 . S
C794 C793 1.379 . S
H795 C789 0.959 . S
H796 C789 0.961 . S
H797 C789 0.960 . S
H798 C790 0.930 . S
H799 C791 0.929 . S
H800 C808 0.929 . S
H801 C810 0.930 . S
H802 C812 0.930 . S
H803 C815 0.929 . S
H804 C818 0.930 . S
H805 C820 0.960 . S
H806 C820 0.960 . S
H807 C820 0.960 . S
C808 H800 0.929 . S
C808 C809 1.377 . S
C808 C810 1.384 . S
C809 C808 1.377 . S
C809 C815 1.390 . S
C810 H801 0.930 . S
C810 C808 1.384 . S
C810 C811 1.372 . S
C811 C810 1.372 . S
C811 C812 1.400 . S
C811 C816 1.490 . S
C812 H802 0.930 . S
C812 C811 1.400 . S
C812 C815 1.386 . S
H813 C829 0.930 . S
H814 C830 0.931 . S
C815 H803 0.929 . S
C815 C809 1.390 . S
C815 C812 1.386 . S
C816 C811 1.490 . S
C816 C818 1.395 . S
C816 C819 1.403 . S
H817 C823 0.930 . S
C818 H804 0.930 . S
C818 C816 1.395 . S
C818 C821 1.403 . S
C819 C816 1.403 . S
C819 C820 1.524 . S
C819 C823 1.400 . S
C820 H805 0.960 . S
C820 H806 0.960 . S
C820 H807 0.960 . S
C820 C819 1.524 . S
C821 C818 1.403 . S
C821 C822 1.392 . S
C821 C825 1.495 . S
C822 C821 1.392 . S
C822 C823 1.385 . S
C822 C824 1.478 . S
C823 H817 0.930 . S
C823 C819 1.400 . S
C823 C822 1.385 . S
C824 C822 1.478 . S
C824 C826 1.381 . S
C824 C830 1.383 . S
C825 C821 1.495 . S
C825 H831 0.959 . S
C825 H832 0.961 . S
C825 H833 0.960 . S
C826 C824 1.381 . S
C826 C827 1.394 . S
C826 H834 0.930 . S
C827 C826 1.394 . S
C827 C828 1.383 . S
C827 H835 0.929 . S
C828 C827 1.383 . S
C828 C829 1.377 . S
C829 H813 0.930 . S
C829 C828 1.377 . S
C829 C830 1.379 . S
C830 H814 0.931 . S
C830 C824 1.383 . S
C830 C829 1.379 . S
H831 C825 0.959 . S
H832 C825 0.961 . S
H833 C825 0.960 . S
H834 C826 0.930 . S
H835 C827 0.929 . S
H836 C844 0.929 . S
H837 C846 0.930 . S
H838 C848 0.930 . S
H839 C851 0.929 . S
H840 C854 0.930 . S
H841 C856 0.960 . S
H842 C856 0.960 . S
H843 C856 0.960 . S
C844 H836 0.929 . S
C844 C845 1.383 . S
C844 C846 1.384 . S
C845 C844 1.383 . S
C845 C851 1.381 1_565 S
C846 H837 0.930 . S
C846 C844 1.384 . S
C846 C847 1.365 1_565 S
C847 C846 1.365 1_545 S
C847 C848 1.404 . S
C847 C852 1.493 . S
C848 H838 0.930 . S
C848 C847 1.404 . S
C848 C851 1.386 . S
H849 C865 0.930 . S
H850 C866 0.931 . S
C851 H839 0.929 . S
C851 C845 1.381 1_545 S
C851 C848 1.386 . S
C852 C847 1.493 . S
C852 C854 1.395 . S
C852 C855 1.403 1_545 S
H853 C859 0.930 . S
C854 H840 0.930 . S
C854 C852 1.395 . S
C854 C857 1.403 . S
C855 C852 1.403 1_565 S
C855 C856 1.524 . S
C855 C859 1.400 . S
C856 H841 0.960 . S
C856 H842 0.960 . S
C856 H843 0.960 . S
C856 C855 1.524 . S
C857 C854 1.403 . S
C857 C858 1.392 . S
C857 C861 1.495 . S
C858 C857 1.392 . S
C858 C859 1.385 1_545 S
C858 C860 1.478 . S
C859 H853 0.930 . S
C859 C855 1.400 . S
C859 C858 1.385 1_565 S
C860 C858 1.478 . S
C860 C862 1.381 1_545 S
C860 C866 1.383 . S
C861 C857 1.495 . S
C861 H867 0.959 . S
C861 H868 0.961 . S
C861 H869 0.960 . S
C862 C860 1.381 1_565 S
C862 C863 1.394 . S
C862 H870 0.930 . S
C863 C862 1.394 . S
C863 C864 1.383 1_565 S
C863 H871 0.929 . S
C864 C863 1.383 1_545 S
C864 C865 1.377 . S
C865 H849 0.930 . S
C865 C864 1.377 . S
C865 C866 1.379 . S
C866 H850 0.931 . S
C866 C860 1.383 . S
C866 C865 1.379 . S
H867 C861 0.959 . S
H868 C861 0.961 . S
H869 C861 0.960 . S
H870 C862 0.930 . S
H871 C863 0.929 . S
H872 C880 0.929 . S
H873 C882 0.930 . S
H874 C884 0.930 . S
H875 C887 0.929 . S
H876 C890 0.930 . S
H877 C892 0.960 . S
H878 C892 0.960 . S
H879 C892 0.960 . S
C880 H872 0.929 . S
C880 C881 1.377 . S
C880 C882 1.384 . S
C881 C880 1.377 . S
C881 C887 1.390 . S
C882 H873 0.930 . S
C882 C880 1.384 . S
C882 C883 1.372 . S
C883 C882 1.372 . S
C883 C884 1.400 . S
C883 C888 1.490 . S
C884 H874 0.930 . S
C884 C883 1.400 . S
C884 C887 1.386 . S
H885 C901 0.930 . S
H886 C902 0.931 . S
C887 H875 0.929 . S
C887 C881 1.390 . S
C887 C884 1.386 . S
C888 C883 1.490 . S
C888 C890 1.395 . S
C888 C891 1.403 . S
H889 C895 0.930 . S
C890 H876 0.930 . S
C890 C888 1.395 . S
C890 C893 1.403 . S
C891 C888 1.403 . S
C891 C892 1.524 . S
C891 C895 1.400 . S
C892 H877 0.960 . S
C892 H878 0.960 . S
C892 H879 0.960 . S
C892 C891 1.524 . S
C893 C890 1.403 . S
C893 C894 1.392 . S
C893 C897 1.495 . S
C894 C893 1.392 . S
C894 C895 1.385 . S
C894 C896 1.478 . S
C895 H889 0.930 . S
C895 C891 1.400 . S
C895 C894 1.385 . S
C896 C894 1.478 . S
C896 C898 1.381 . S
C896 C902 1.383 . S
C897 C893 1.495 . S
C897 H903 0.959 . S
C897 H904 0.961 . S
C897 H905 0.960 . S
C898 C896 1.381 . S
C898 C899 1.394 . S
C898 H906 0.930 . S
C899 C898 1.394 . S
C899 C900 1.383 . S
C899 H907 0.929 . S
C900 C899 1.383 . S
C900 C901 1.377 . S
C901 H885 0.930 . S
C901 C900 1.377 . S
C901 C902 1.379 . S
C902 H886 0.931 . S
C902 C896 1.383 . S
C902 C901 1.379 . S
H903 C897 0.959 . S
H904 C897 0.961 . S
H905 C897 0.960 . S
H906 C898 0.930 . S
H907 C899 0.929 . S
H908 C916 0.929 . S
H909 C918 0.930 . S
H910 C920 0.930 . S
H911 C923 0.929 . S
H912 C926 0.930 . S
H913 C928 0.960 . S
H914 C928 0.960 . S
H915 C928 0.960 . S
C916 H908 0.929 . S
C916 C917 1.377 . S
C916 C918 1.384 . S
C917 C916 1.377 . S
C917 C923 1.390 . S
C918 H909 0.930 . S
C918 C916 1.384 . S
C918 C919 1.372 . S
C919 C918 1.372 . S
C919 C920 1.400 . S
C919 C924 1.490 . S
C920 H910 0.930 . S
C920 C919 1.400 . S
C920 C923 1.386 . S
H921 C937 0.930 . S
H922 C938 0.931 . S
C923 H911 0.929 . S
C923 C917 1.390 . S
C923 C920 1.386 . S
C924 C919 1.490 . S
C924 C926 1.395 . S
C924 C927 1.403 . S
H925 C931 0.930 . S
C926 H912 0.930 . S
C926 C924 1.395 . S
C926 C929 1.403 . S
C927 C924 1.403 . S
C927 C928 1.524 . S
C927 C931 1.400 . S
C928 H913 0.960 . S
C928 H914 0.960 . S
C928 H915 0.960 . S
C928 C927 1.524 . S
C929 C926 1.403 . S
C929 C930 1.392 . S
C929 C933 1.495 . S
C930 C929 1.392 . S
C930 C931 1.385 . S
C930 C932 1.478 . S
C931 H925 0.930 . S
C931 C927 1.400 . S
C931 C930 1.385 . S
C932 C930 1.478 . S
C932 C934 1.381 . S
C932 C938 1.383 . S
C933 C929 1.495 . S
C933 H939 0.959 . S
C933 H940 0.961 . S
C933 H941 0.960 . S
C934 C932 1.381 . S
C934 C935 1.394 . S
C934 H942 0.930 . S
C935 C934 1.394 . S
C935 C936 1.383 . S
C935 H943 0.929 . S
C936 C935 1.383 . S
C936 C937 1.377 . S
C937 H921 0.930 . S
C937 C936 1.377 . S
C937 C938 1.379 . S
C938 H922 0.931 . S
C938 C932 1.383 . S
C938 C937 1.379 . S
H939 C933 0.959 . S
H940 C933 0.961 . S
H941 C933 0.960 . S
H942 C934 0.930 . S
H943 C935 0.929 . S
H944 C952 0.929 . S
H945 C954 0.940 . S
H946 C956 0.930 . S
H947 C959 0.929 . S
H948 C962 0.930 1_554 S
H949 C964 0.960 . S
H950 C964 0.960 . S
H951 C964 0.960 . S
C952 H944 0.929 . S
C952 C953 1.377 . S
C952 C954 1.373 1_554 S
C953 C952 1.377 . S
C953 C959 1.390 . S
C954 H945 0.940 . S
C954 C952 1.373 1_556 S
C954 C955 1.374 . S
C955 C954 1.374 . S
C955 C956 1.400 1_556 S
C955 C960 1.490 . S
C956 H946 0.930 . S
C956 C955 1.400 1_554 S
C956 C959 1.386 . S
H957 C973 0.930 . S
H958 C974 0.931 . S
C959 H947 0.929 . S
C959 C953 1.390 . S
C959 C956 1.386 . S
C960 C955 1.490 . S
C960 C962 1.395 . S
C960 C963 1.403 . S
H961 C967 0.930 . S
C962 H948 0.930 1_556 S
C962 C960 1.395 . S
C962 C965 1.403 . S
C963 C960 1.403 . S
C963 C964 1.524 . S
C963 C967 1.400 . S
C964 H949 0.960 . S
C964 H950 0.960 . S
C964 H951 0.960 . S
C964 C963 1.524 . S
C965 C962 1.403 . S
C965 C966 1.392 . S
C965 C969 1.495 . S
C966 C965 1.392 . S
C966 C967 1.385 . S
C966 C968 1.478 . S
C967 H961 0.930 . S
C967 C963 1.400 . S
C967 C966 1.385 . S
C968 C966 1.478 . S
C968 C970 1.381 . S
C968 C974 1.383 . S
C969 C965 1.495 . S
C969 H975 0.959 1_556 S
C969 H976 0.961 . S
C969 H977 0.960 . S
C970 C968 1.381 . S
C970 C971 1.394 . S
C970 H978 0.930 . S
C971 C970 1.394 . S
C971 C972 1.383 . S
C971 H979 0.929 . S
C972 C971 1.383 . S
C972 C973 1.377 . S
C973 H957 0.930 . S
C973 C972 1.377 . S
C973 C974 1.379 . S
C974 H958 0.931 . S
C974 C968 1.383 . S
C974 C973 1.379 . S
H975 C969 0.959 1_554 S
H976 C969 0.961 . S
H977 C969 0.960 . S
H978 C970 0.930 . S
H979 C971 0.929 . S
H980 C988 0.929 . S
H981 C990 0.930 . S
H982 C992 0.930 . S
H983 C995 0.929 . S
H984 C998 0.930 . S
H985 C1000 0.960 . S
H986 C1000 0.960 . S
H987 C1000 0.960 . S
C988 H980 0.929 . S
C988 C989 1.377 1_565 S
C988 C990 1.384 . S
C989 C988 1.377 1_545 S
C989 C995 1.390 1_554 S
C990 H981 0.930 . S
C990 C988 1.384 . S
C990 C991 1.372 1_564 S
C991 C990 1.372 1_546 S
C991 C992 1.400 . S
C991 C996 1.490 . S
C992 H982 0.930 . S
C992 C991 1.400 . S
C992 C995 1.386 . S
H993 C1009 0.930 . S
H994 C1010 0.931 . S
C995 H983 0.929 . S
C995 C989 1.390 1_556 S
C995 C992 1.386 . S
C996 C991 1.490 . S
C996 C998 1.395 1_545 S
C996 C999 1.403 . S
H997 C1003 0.930 . S
C998 H984 0.930 . S
C998 C996 1.395 1_565 S
C998 C1001 1.403 . S
C999 C996 1.403 . S
C999 C1000 1.524 . S
C999 C1003 1.400 . S
C1000 H985 0.960 . S
C1000 H986 0.960 . S
C1000 H987 0.960 . S
C1000 C999 1.524 . S
C1001 C998 1.403 . S
C1001 C1002 1.393 1_565 S
C1001 C1005 1.495 . S
C1002 C1001 1.393 1_545 S
C1002 C1003 1.384 . S
C1002 C1004 1.478 1_545 S
C1003 H997 0.930 . S
C1003 C999 1.400 . S
C1003 C1002 1.384 . S
C1004 C1002 1.478 1_565 S
C1004 C1006 1.381 . S
C1004 C1010 1.382 1_565 S
C1005 C1001 1.495 . S
C1005 H1011 0.959 . S
C1005 H1012 0.961 . S
C1005 H1013 0.960 . S
C1006 C1004 1.381 . S
C1006 C1007 1.394 . S
C1006 H1014 0.930 . S
C1007 C1006 1.394 . S
C1007 C1008 1.383 1_565 S
C1007 H1015 0.929 . S
C1008 C1007 1.383 1_545 S
C1008 C1009 1.377 . S
C1009 H993 0.930 . S
C1009 C1008 1.377 . S
C1009 C1010 1.379 . S
C1010 H994 0.931 . S
C1010 C1004 1.382 1_545 S
C1010 C1009 1.379 . S
H1011 C1005 0.959 . S
H1012 C1005 0.961 . S
H1013 C1005 0.960 . S
H1014 C1006 0.930 . S
H1015 C1007 0.929 . S
H1016 C1024 0.929 . S
H1017 C1026 0.930 . S
H1018 C1028 0.930 . S
H1019 C1031 0.929 . S
H1020 C1034 0.930 . S
H1021 C1036 0.960 . S
H1022 C1036 0.960 . S
H1023 C1036 0.960 . S
C1024 H1016 0.929 . S
C1024 C1025 1.377 . S
C1024 C1026 1.384 . S
C1025 C1024 1.377 . S
C1025 C1031 1.390 1_554 S
C1026 H1017 0.930 . S
C1026 C1024 1.384 . S
C1026 C1027 1.372 1_554 S
C1027 C1026 1.372 1_556 S
C1027 C1028 1.400 . S
C1027 C1032 1.490 . S
C1028 H1018 0.930 . S
C1028 C1027 1.400 . S
C1028 C1031 1.386 . S
H1029 C1045 0.930 . S
H1030 C1046 0.931 . S
C1031 H1019 0.929 . S
C1031 C1025 1.390 1_556 S
C1031 C1028 1.386 . S
C1032 C1027 1.490 . S
C1032 C1034 1.395 . S
C1032 C1035 1.403 . S
H1033 C1039 0.930 . S
C1034 H1020 0.930 . S
C1034 C1032 1.395 . S
C1034 C1037 1.403 . S
C1035 C1032 1.403 . S
C1035 C1036 1.524 . S
C1035 C1039 1.400 . S
C1036 H1021 0.960 . S
C1036 H1022 0.960 . S
C1036 H1023 0.960 . S
C1036 C1035 1.524 . S
C1037 C1034 1.403 . S
C1037 C1038 1.392 . S
C1037 C1041 1.495 . S
C1038 C1037 1.392 . S
C1038 C1039 1.385 . S
C1038 C1040 1.478 . S
C1039 H1033 0.930 . S
C1039 C1035 1.400 . S
C1039 C1038 1.385 . S
C1040 C1038 1.478 . S
C1040 C1042 1.381 . S
C1040 C1046 1.383 . S
C1041 C1037 1.495 . S
C1041 H1047 0.959 . S
C1041 H1048 0.961 . S
C1041 H1049 0.960 . S
C1042 C1040 1.381 . S
C1042 C1043 1.394 . S
C1042 H1050 0.930 . S
C1043 C1042 1.394 . S
C1043 C1044 1.383 . S
C1043 H1051 0.929 . S
C1044 C1043 1.383 . S
C1044 C1045 1.377 . S
C1045 H1029 0.930 . S
C1045 C1044 1.377 . S
C1045 C1046 1.379 . S
C1046 H1030 0.931 . S
C1046 C1040 1.383 . S
C1046 C1045 1.379 . S
H1047 C1041 0.959 . S
H1048 C1041 0.961 . S
H1049 C1041 0.960 . S
H1050 C1042 0.930 . S
H1051 C1043 0.929 . S
H1052 C1060 0.929 . S
H1053 C1062 0.930 . S
H1054 C1064 0.930 . S
H1055 C1067 0.929 . S
H1056 C1070 0.930 . S
H1057 C1072 0.960 . S
H1058 C1072 0.960 1_554 S
H1059 C1072 0.960 . S
C1060 H1052 0.929 . S
C1060 C1061 1.377 . S
C1060 C1062 1.384 . S
C1061 C1060 1.377 . S
C1061 C1067 1.390 1_554 S
C1062 H1053 0.930 . S
C1062 C1060 1.384 . S
C1062 C1063 1.372 1_554 S
C1063 C1062 1.372 1_556 S
C1063 C1064 1.400 . S
C1063 C1068 1.490 . S
C1064 H1054 0.930 . S
C1064 C1063 1.400 . S
C1064 C1067 1.386 . S
H1065 C1081 0.930 . S
H1066 C1082 0.931 . S
C1067 H1055 0.929 . S
C1067 C1061 1.390 1_556 S
C1067 C1064 1.386 . S
C1068 C1063 1.490 . S
C1068 C1070 1.395 . S
C1068 C1071 1.403 . S
H1069 C1075 0.930 . S
C1070 H1056 0.930 . S
C1070 C1068 1.395 . S
C1070 C1073 1.403 . S
C1071 C1068 1.403 . S
C1071 C1072 1.524 . S
C1071 C1075 1.400 . S
C1072 H1057 0.960 . S
C1072 H1058 0.960 1_556 S
C1072 H1059 0.960 . S
C1072 C1071 1.524 . S
C1073 C1070 1.403 . S
C1073 C1074 1.392 . S
C1073 C1077 1.495 . S
C1074 C1073 1.392 . S
C1074 C1075 1.385 . S
C1074 C1076 1.478 . S
C1075 H1069 0.930 . S
C1075 C1071 1.400 . S
C1075 C1074 1.385 . S
C1076 C1074 1.478 . S
C1076 C1078 1.381 . S
C1076 C1082 1.383 . S
C1077 C1073 1.495 . S
C1077 H1083 0.959 . S
C1077 H1084 0.961 . S
C1077 H1085 0.960 . S
C1078 C1076 1.381 . S
C1078 C1079 1.394 . S
C1078 H1086 0.930 . S
C1079 C1078 1.394 . S
C1079 C1080 1.383 . S
C1079 H1087 0.929 . S
C1080 C1079 1.383 . S
C1080 C1081 1.377 . S
C1081 H1065 0.930 . S
C1081 C1080 1.377 . S
C1081 C1082 1.379 . S
C1082 H1066 0.931 . S
C1082 C1076 1.383 . S
C1082 C1081 1.379 . S
H1083 C1077 0.959 . S
H1084 C1077 0.961 . S
H1085 C1077 0.960 . S
H1086 C1078 0.930 . S
H1087 C1079 0.929 . S
H1088 C1096 0.929 . S
H1089 C1098 0.930 . S
H1090 C1100 0.930 . S
H1091 C1103 0.929 . S
H1092 C1106 0.930 . S
H1093 C1108 0.960 . S
H1094 C1108 0.960 . S
H1095 C1108 0.960 . S
C1096 H1088 0.929 . S
C1096 C1097 1.377 . S
C1096 C1098 1.384 . S
C1097 C1096 1.377 . S
C1097 C1103 1.390 . S
C1098 H1089 0.930 . S
C1098 C1096 1.384 . S
C1098 C1099 1.372 . S
C1099 C1098 1.372 . S
C1099 C1100 1.400 . S
C1099 C1104 1.490 . S
C1100 H1090 0.930 . S
C1100 C1099 1.400 . S
C1100 C1103 1.386 . S
H1101 C1117 0.930 . S
H1102 C1118 0.931 . S
C1103 H1091 0.929 . S
C1103 C1097 1.390 . S
C1103 C1100 1.386 . S
C1104 C1099 1.490 . S
C1104 C1106 1.395 . S
C1104 C1107 1.403 . S
H1105 C1111 0.930 . S
C1106 H1092 0.930 . S
C1106 C1104 1.395 . S
C1106 C1109 1.403 . S
C1107 C1104 1.403 . S
C1107 C1108 1.524 . S
C1107 C1111 1.400 . S
C1108 H1093 0.960 . S
C1108 H1094 0.960 . S
C1108 H1095 0.960 . S
C1108 C1107 1.524 . S
C1109 C1106 1.403 . S
C1109 C1110 1.392 . S
C1109 C1113 1.495 . S
C1110 C1109 1.392 . S
C1110 C1111 1.385 . S
C1110 C1112 1.478 . S
C1111 H1105 0.930 . S
C1111 C1107 1.400 . S
C1111 C1110 1.385 . S
C1112 C1110 1.478 . S
C1112 C1114 1.381 . S
C1112 C1118 1.383 . S
C1113 C1109 1.495 . S
C1113 H1119 0.959 . S
C1113 H1120 0.961 . S
C1113 H1121 0.960 . S
C1114 C1112 1.381 . S
C1114 C1115 1.394 . S
C1114 H1122 0.930 . S
C1115 C1114 1.394 . S
C1115 C1116 1.383 . S
C1115 H1123 0.929 . S
C1116 C1115 1.383 . S
C1116 C1117 1.377 . S
C1117 H1101 0.930 . S
C1117 C1116 1.377 . S
C1117 C1118 1.379 . S
C1118 H1102 0.931 . S
C1118 C1112 1.383 . S
C1118 C1117 1.379 . S
H1119 C1113 0.959 . S
H1120 C1113 0.961 . S
H1121 C1113 0.960 . S
H1122 C1114 0.930 . S
H1123 C1115 0.929 . S
H1124 C1132 0.929 . S
H1125 C1134 0.932 . S
H1126 C1136 0.932 . S
H1127 C1139 0.930 . S
H1128 C1142 0.930 . S
H1129 C1144 0.960 . S
H1130 C1144 0.960 . S
H1131 C1144 0.960 . S
C1132 H1124 0.929 . S
C1132 C1133 1.378 . S
C1132 C1134 1.383 1_545 S
C1133 C1132 1.378 . S
C1133 C1139 1.390 . S
C1134 H1125 0.932 . S
C1134 C1132 1.383 1_565 S
C1134 C1135 1.372 1_565 S
C1135 C1134 1.372 1_545 S
C1135 C1136 1.403 . S
C1135 C1140 1.491 1_545 S
C1136 H1126 0.932 . S
C1136 C1135 1.403 . S
C1136 C1139 1.385 . S
H1137 C1153 0.930 . S
H1138 C1154 0.931 . S
C1139 H1127 0.930 . S
C1139 C1133 1.390 . S
C1139 C1136 1.385 . S
C1140 C1135 1.491 1_565 S
C1140 C1142 1.401 . S
C1140 C1143 1.396 1_565 S
H1141 C1147 0.930 . S
C1142 H1128 0.930 . S
C1142 C1140 1.401 . S
C1142 C1145 1.403 . S
C1143 C1140 1.396 1_545 S
C1143 C1144 1.524 . S
C1143 C1147 1.400 . S
C1144 H1129 0.960 . S
C1144 H1130 0.960 . S
C1144 H1131 0.960 . S
C1144 C1143 1.524 . S
C1145 C1142 1.403 . S
C1145 C1146 1.392 . S
C1145 C1149 1.495 . S
C1146 C1145 1.392 . S
C1146 C1147 1.385 1_565 S
C1146 C1148 1.478 . S
C1147 H1141 0.930 . S
C1147 C1143 1.400 . S
C1147 C1146 1.385 1_545 S
C1148 C1146 1.478 . S
C1148 C1150 1.381 . S
C1148 C1154 1.383 . S
C1149 C1145 1.495 . S
C1149 H1155 0.959 . S
C1149 H1156 0.961 . S
C1149 H1157 0.960 . S
C1150 C1148 1.381 . S
C1150 C1151 1.393 1_565 S
C1150 H1158 0.933 . S
C1151 C1150 1.393 1_545 S
C1151 C1152 1.379 1_545 S
C1151 H1159 0.931 . S
C1152 C1151 1.379 1_565 S
C1152 C1153 1.388 . S
C1153 H1137 0.930 . S
C1153 C1152 1.388 . S
C1153 C1154 1.379 . S
C1154 H1138 0.931 . S
C1154 C1148 1.383 . S
C1154 C1153 1.379 . S
H1155 C1149 0.959 . S
H1156 C1149 0.961 . S
H1157 C1149 0.960 . S
H1158 C1150 0.933 . S
H1159 C1151 0.931 . S
H1160 C1168 0.929 . S
H1161 C1170 0.930 . S
H1162 C1172 0.930 . S
H1163 C1175 0.929 . S
H1164 C1178 0.930 . S
H1165 C1180 0.960 . S
H1166 C1180 0.960 . S
H1167 C1180 0.960 . S
C1168 H1160 0.929 . S
C1168 C1169 1.377 . S
C1168 C1170 1.384 . S
C1169 C1168 1.377 . S
C1169 C1175 1.390 . S
C1170 H1161 0.930 . S
C1170 C1168 1.384 . S
C1170 C1171 1.372 . S
C1171 C1170 1.372 . S
C1171 C1172 1.400 . S
C1171 C1176 1.490 . S
C1172 H1162 0.930 . S
C1172 C1171 1.400 . S
C1172 C1175 1.386 . S
H1173 C1189 0.930 . S
H1174 C1190 0.931 . S
C1175 H1163 0.929 . S
C1175 C1169 1.390 . S
C1175 C1172 1.386 . S
C1176 C1171 1.490 . S
C1176 C1178 1.395 . S
C1176 C1179 1.403 . S
H1177 C1183 0.930 . S
C1178 H1164 0.930 . S
C1178 C1176 1.395 . S
C1178 C1181 1.403 . S
C1179 C1176 1.403 . S
C1179 C1180 1.524 . S
C1179 C1183 1.400 . S
C1180 H1165 0.960 . S
C1180 H1166 0.960 . S
C1180 H1167 0.960 . S
C1180 C1179 1.524 . S
C1181 C1178 1.403 . S
C1181 C1182 1.392 . S
C1181 C1185 1.495 . S
C1182 C1181 1.392 . S
C1182 C1183 1.385 . S
C1182 C1184 1.478 . S
C1183 H1177 0.930 . S
C1183 C1179 1.400 . S
C1183 C1182 1.385 . S
C1184 C1182 1.478 . S
C1184 C1186 1.381 . S
C1184 C1190 1.383 . S
C1185 C1181 1.495 . S
C1185 H1191 0.959 . S
C1185 H1192 0.961 . S
C1185 H1193 0.960 . S
C1186 C1184 1.381 . S
C1186 C1187 1.394 . S
C1186 H1194 0.930 . S
C1187 C1186 1.394 . S
C1187 C1188 1.383 . S
C1187 H1195 0.929 . S
C1188 C1187 1.383 . S
C1188 C1189 1.377 . S
C1189 H1173 0.930 . S
C1189 C1188 1.377 . S
C1189 C1190 1.379 . S
C1190 H1174 0.931 . S
C1190 C1184 1.383 . S
C1190 C1189 1.379 . S
H1191 C1185 0.959 . S
H1192 C1185 0.961 . S
H1193 C1185 0.960 . S
H1194 C1186 0.930 . S
H1195 C1187 0.929 . S
H1196 C1204 0.929 . S
H1197 C1206 0.930 . S
H1198 C1208 0.930 . S
H1199 C1211 0.929 . S
H1200 C1214 0.930 . S
H1201 C1216 0.960 . S
H1202 C1216 0.960 . S
H1203 C1216 0.960 . S
C1204 H1196 0.929 . S
C1204 C1205 1.377 . S
C1204 C1206 1.384 . S
C1205 C1204 1.377 . S
C1205 C1211 1.390 . S
C1206 H1197 0.930 . S
C1206 C1204 1.384 . S
C1206 C1207 1.372 . S
C1207 C1206 1.372 . S
C1207 C1208 1.400 . S
C1207 C1212 1.490 . S
C1208 H1198 0.930 . S
C1208 C1207 1.400 . S
C1208 C1211 1.386 . S
H1209 C1225 0.930 . S
H1210 C1226 0.931 . S
C1211 H1199 0.929 . S
C1211 C1205 1.390 . S
C1211 C1208 1.386 . S
C1212 C1207 1.490 . S
C1212 C1214 1.395 . S
C1212 C1215 1.403 . S
H1213 C1219 0.930 . S
C1214 H1200 0.930 . S
C1214 C1212 1.395 . S
C1214 C1217 1.403 . S
C1215 C1212 1.403 . S
C1215 C1216 1.524 . S
C1215 C1219 1.400 . S
C1216 H1201 0.960 . S
C1216 H1202 0.960 . S
C1216 H1203 0.960 . S
C1216 C1215 1.524 . S
C1217 C1214 1.403 . S
C1217 C1218 1.392 . S
C1217 C1221 1.495 . S
C1218 C1217 1.392 . S
C1218 C1219 1.385 . S
C1218 C1220 1.478 . S
C1219 H1213 0.930 . S
C1219 C1215 1.400 . S
C1219 C1218 1.385 . S
C1220 C1218 1.478 . S
C1220 C1222 1.381 . S
C1220 C1226 1.383 . S
C1221 C1217 1.495 . S
C1221 H1227 0.959 . S
C1221 H1228 0.961 . S
C1221 H1229 0.960 . S
C1222 C1220 1.381 . S
C1222 C1223 1.394 . S
C1222 H1230 0.930 . S
C1223 C1222 1.394 . S
C1223 C1224 1.383 . S
C1223 H1231 0.929 . S
C1224 C1223 1.383 . S
C1224 C1225 1.377 . S
C1225 H1209 0.930 . S
C1225 C1224 1.377 . S
C1225 C1226 1.379 . S
C1226 H1210 0.931 . S
C1226 C1220 1.383 . S
C1226 C1225 1.379 . S
H1227 C1221 0.959 . S
H1228 C1221 0.961 . S
H1229 C1221 0.960 . S
H1230 C1222 0.930 . S
H1231 C1223 0.929 . S
C377 C241 1.436 . S
C396 C289 1.464 . S
C432 C324 2.223 . S
C413 C277 2.073 . S
C468 C329 1.312 . S
C449 C169 1.290 . S
C504 C349 1.860 . S
C485 C205 1.792 . S
C540 C297 1.457 . S
C521 C97 1.438 . S
C557 C133 2.152 1_556 S
C576 C314 2.223 . S
C593 C25 1.314 1_556 S
C612 C337 1.306 . S
C629 C61 1.725 . S
C648 C357 1.859 . S
C684 C307 1.166 . S
C665 C211 1.101 . S
C720 C316 0.509 1_545 S
C701 C247 0.429 . S
C756 C347 1.356 . S
C737 C253 1.249 . S
C773 C175 0.676 . S
C792 C367 0.660 . S
C809 C67 1.051 . S
C828 C296 1.174 . S
C864 C327 0.383 . S
C845 C103 0.439 1_565 S
C900 C336 1.366 . S
C881 C109 1.306 . S
C917 C31 0.669 . S
C936 C356 0.616 . S
C953 C181 2.124 . S
C972 C294 2.188 . S
C989 C217 1.607 . S
C1008 C317 1.712 . S
C1044 C334 2.322 . S
C1025 C283 2.103 . S
C1080 C354 2.011 . S
C1061 C145 1.903 . S
C1097 C37 2.065 . S
C1116 C304 2.200 . S
C1152 C309 1.710 1_565 S
C1133 C73 1.609 . S
C1188 C344 2.319 . S
C1169 C139 2.185 . S
C1205 C1 1.930 . S
C1224 C364 2.001 . S
