# Generated by pormake.
# Topology hwx, (6,3)-cn, num edge types: 1
# Building blocks:
#     Node 0, Type 0, BuildingBlock: IZENUY_clean_sbu_0, # of connection points: 6
#     Node 1, Type 0, BuildingBlock: IZENUY_clean_sbu_0, # of connection points: 6
#     Node 2, Type 0, BuildingBlock: IZENUY_clean_sbu_0, # of connection points: 6
#     Node 3, Type 0, BuildingBlock: IZENUY_clean_sbu_0, # of connection points: 6
#     Node 4, Type 1, BuildingBlock: MIDCAF_clean_linker_0, # of connection points: 3
#     Node 5, Type 1, BuildingBlock: MIDCAF_clean_linker_0, # of connection points: 3
#     Node 6, Type 1, BuildingBlock: MIDCAF_clean_linker_0, # of connection points: 3
#     Node 7, Type 1, BuildingBlock: MIDCAF_clean_linker_0, # of connection points: 3
#     Node 8, Type 1, BuildingBlock: MIDCAF_clean_linker_0, # of connection points: 3
#     Node 9, Type 1, BuildingBlock: MIDCAF_clean_linker_0, # of connection points: 3
#     Node 10, Type 1, BuildingBlock: MIDCAF_clean_linker_0, # of connection points: 3
#     Node 11, Type 1, BuildingBlock: MIDCAF_clean_linker_0, # of connection points: 3
#     Edge 12, Type (0, 1), BuildingBlock: XUDNAN_clean_linker_2, # of connection points: 2
#     Edge 13, Type (0, 1), BuildingBlock: XUDNAN_clean_linker_2, # of connection points: 2
#     Edge 14, Type (0, 1), BuildingBlock: XUDNAN_clean_linker_2, # of connection points: 2
#     Edge 15, Type (0, 1), BuildingBlock: XUDNAN_clean_linker_2, # of connection points: 2
#     Edge 16, Type (0, 1), BuildingBlock: XUDNAN_clean_linker_2, # of connection points: 2
#     Edge 17, Type (0, 1), BuildingBlock: XUDNAN_clean_linker_2, # of connection points: 2
#     Edge 18, Type (0, 1), BuildingBlock: XUDNAN_clean_linker_2, # of connection points: 2
#     Edge 19, Type (0, 1), BuildingBlock: XUDNAN_clean_linker_2, # of connection points: 2
#     Edge 20, Type (0, 1), BuildingBlock: XUDNAN_clean_linker_2, # of connection points: 2
#     Edge 21, Type (0, 1), BuildingBlock: XUDNAN_clean_linker_2, # of connection points: 2
#     Edge 22, Type (0, 1), BuildingBlock: XUDNAN_clean_linker_2, # of connection points: 2
#     Edge 23, Type (0, 1), BuildingBlock: XUDNAN_clean_linker_2, # of connection points: 2
#     Edge 24, Type (0, 1), BuildingBlock: XUDNAN_clean_linker_2, # of connection points: 2
#     Edge 25, Type (0, 1), BuildingBlock: XUDNAN_clean_linker_2, # of connection points: 2
#     Edge 26, Type (0, 1), BuildingBlock: XUDNAN_clean_linker_2, # of connection points: 2
#     Edge 27, Type (0, 1), BuildingBlock: XUDNAN_clean_linker_2, # of connection points: 2
#     Edge 28, Type (0, 1), BuildingBlock: XUDNAN_clean_linker_2, # of connection points: 2
#     Edge 29, Type (0, 1), BuildingBlock: XUDNAN_clean_linker_2, # of connection points: 2
#     Edge 30, Type (0, 1), BuildingBlock: XUDNAN_clean_linker_2, # of connection points: 2
#     Edge 31, Type (0, 1), BuildingBlock: XUDNAN_clean_linker_2, # of connection points: 2
#     Edge 32, Type (0, 1), BuildingBlock: XUDNAN_clean_linker_2, # of connection points: 2
#     Edge 33, Type (0, 1), BuildingBlock: XUDNAN_clean_linker_2, # of connection points: 2
#     Edge 34, Type (0, 1), BuildingBlock: XUDNAN_clean_linker_2, # of connection points: 2
#     Edge 35, Type (0, 1), BuildingBlock: XUDNAN_clean_linker_2, # of connection points: 2
# Relax obj value: 0.053
# Max RMSD: 0.077
# Mean RMSD: 0.069
data_MOF--net-hwx--node1-IZENUY_clean_sbu_0--node2-MIDCAF_clean_linker_0--edge1-XUDNAN_clean_linker_2
_symmetry_space_group_name_H-M    P1
_symmetry_Int_Tables_number       1
_symmetry_cell_setting            triclinic
loop_
_symmetry_equiv_pos_as_xyz
'x, y, z'
_cell_length_a     57.545091
_cell_length_b     57.521776
_cell_length_c     27.995073
_cell_angle_alpha  89.752487
_cell_angle_beta   90.102856
_cell_angle_gamma 89.988721
loop_
_atom_site_label
_atom_site_type_symbol
_atom_site_fract_x
_atom_site_fract_y
_atom_site_fract_z
_atom_type_partial_charge
Fe0 Fe 0.23661 0.21768 0.06288 0.0
Fe1 Fe 0.24222 0.21964 0.95466 0.0
O2 O 0.23349 0.20429 0.00637 0.0
Fe3 Fe 0.22153 0.17596 0.00157 0.0
O4 O 0.19483 0.18481 0.03084 0.0
O5 O 0.21164 0.20302 0.09032 0.0
O6 O 0.21702 0.2413 0.04588 0.0
C7 C 0.22013 0.2538 0.00924 0.0
C8 C 0.25122 0.17352 0.08299 0.0
O9 O 0.23519 0.24829 0.97849 0.0
C10 C 0.25596 0.17357 0.93442 0.0
O11 O 0.26248 0.23457 0.04628 0.0
O12 O 0.27205 0.22126 0.97567 0.0
O13 O 0.23451 0.16555 0.05819 0.0
O14 O 0.25612 0.19492 0.08263 0.0
C15 C 0.20082 0.20103 0.92545 0.0
O16 O 0.25059 0.19387 0.92104 0.0
O17 O 0.24723 0.16481 0.97165 0.0
C18 C 0.27767 0.23078 0.01453 0.0
O19 O 0.21299 0.21901 0.93127 0.0
O20 O 0.20654 0.18177 0.94435 0.0
C21 C 0.19398 0.1935 0.072 0.0
Fe22 Fe 0.26062 0.70975 0.56179 0.0
Fe23 Fe 0.28285 0.67208 0.49916 0.0
O24 O 0.26588 0.69763 0.50469 0.0
Fe25 Fe 0.2543 0.7111 0.45283 0.0
O26 O 0.25605 0.74063 0.47635 0.0
O27 O 0.27438 0.73709 0.54499 0.0
O28 O 0.2887 0.7008 0.58707 0.0
C29 C 0.30765 0.69493 0.56754 0.0
C30 C 0.21757 0.71496 0.51362 0.0
O31 O 0.30781 0.68581 0.52666 0.0
C32 C 0.24878 0.66314 0.43417 0.0
O33 O 0.24652 0.68333 0.58246 0.0
O34 O 0.27334 0.65941 0.55611 0.0
O35 O 0.22476 0.7076 0.47391 0.0
O36 O 0.23158 0.72062 0.54653 0.0
C37 C 0.29779 0.69998 0.42188 0.0
O38 O 0.25895 0.65662 0.47173 0.0
O39 O 0.25056 0.6839 0.41941 0.0
C40 C 0.25554 0.66335 0.58134 0.0
O41 O 0.29547 0.68009 0.44088 0.0
O42 O 0.28308 0.71577 0.429 0.0
C43 C 0.26889 0.74895 0.50868 0.0
Fe44 Fe 0.76241 0.79231 0.94909 0.0
Fe45 Fe 0.76807 0.79484 0.05744 0.0
O46 O 0.77136 0.80765 0.00056 0.0
Fe47 Fe 0.78359 0.83578 0.99544 0.0
O48 O 0.75757 0.84686 0.96726 0.0
O49 O 0.75386 0.8186 0.91518 0.0
O50 O 0.73255 0.79045 0.97015 0.0
C51 C 0.72714 0.7809 0.00926 0.0
C52 C 0.80331 0.81114 0.9183 0.0
O53 O 0.74223 0.778 0.04164 0.0
C54 C 0.81137 0.81795 0.06511 0.0
O55 O 0.76966 0.76337 0.97366 0.0
O56 O 0.78719 0.77107 0.04167 0.0
O57 O 0.79771 0.83025 0.9375 0.0
O58 O 0.79156 0.79299 0.92535 0.0
C59 C 0.7541 0.83908 0.07569 0.0
O60 O 0.79337 0.80928 0.08408 0.0
O61 O 0.81047 0.82651 0.02365 0.0
C62 C 0.78341 0.75752 0.00715 0.0
O63 O 0.74863 0.81787 0.07586 0.0
O64 O 0.77156 0.8463 0.05238 0.0
C65 C 0.74891 0.83892 0.92939 0.0
Fe66 Fe 0.72918 0.33643 0.50054 0.0
Fe67 Fe 0.74122 0.2903 0.55129 0.0
O68 O 0.73666 0.30652 0.49805 0.0
Fe69 Fe 0.73954 0.29257 0.44226 0.0
O70 O 0.76251 0.31211 0.42438 0.0
O71 O 0.74514 0.3445 0.44573 0.0
O72 O 0.75532 0.34363 0.53406 0.0
C73 C 0.76106 0.33413 0.57305 0.0
C74 C 0.70099 0.3222 0.42731 0.0
O75 O 0.75235 0.31488 0.58567 0.0
C76 C 0.71749 0.25833 0.49187 0.0
O77 O 0.71196 0.33336 0.55531 0.0
O78 O 0.71163 0.29576 0.57093 0.0
O79 O 0.71761 0.31011 0.41163 0.0
O80 O 0.70229 0.33169 0.46771 0.0
C81 C 0.77693 0.27478 0.49564 0.0
O82 O 0.73086 0.26255 0.52676 0.0
O83 O 0.71663 0.27202 0.45661 0.0
C84 C 0.70261 0.31572 0.57469 0.0
O85 O 0.7712 0.28406 0.5347 0.0
O86 O 0.76226 0.27255 0.46231 0.0
C87 C 0.76077 0.33393 0.42234 0.0
C88 C 0.18238 0.57358 0.13993 0.0
C89 C 0.19004 0.56148 0.18081 0.0
C90 C 0.19314 0.53727 0.17799 0.0
C91 C 0.18892 0.52551 0.13531 0.0
H92 H 0.19305 0.45974 0.06764 0.0
H93 H 0.19334 0.41757 0.06233 0.0
H94 H 0.14757 0.42144 0.93965 0.0
H95 H 0.14884 0.46369 0.94321 0.0
H96 H 0.17161 0.50973 0.87279 0.0
H97 H 0.18144 0.52953 0.79849 0.0
H98 H 0.19986 0.59116 0.87766 0.0
H99 H 0.18946 0.57169 0.95176 0.0
H100 H 0.17276 0.57175 0.06618 0.0
H101 H 0.17935 0.59215 0.14095 0.0
H102 H 0.19942 0.5274 0.20839 0.0
H103 H 0.19183 0.50691 0.13427 0.0
N104 N 0.17575 0.50196 0.04785 0.0
N105 N 0.17362 0.50268 0.96414 0.0
N106 N 0.17907 0.53733 0.00649 0.0
C107 C 0.17306 0.49054 0.00589 0.0
C108 C 0.17676 0.52612 0.96412 0.0
C109 C 0.17845 0.52541 0.04846 0.0
C110 C 0.17116 0.46495 0.00546 0.0
C111 C 0.18294 0.4515 0.03976 0.0
C112 C 0.18292 0.42724 0.03688 0.0
C113 C 0.17065 0.41585 0.00024 0.0
C114 C 0.15782 0.42946 0.96753 0.0
C115 C 0.15838 0.45372 0.96967 0.0
C116 C 0.17998 0.53897 0.91848 0.0
C117 C 0.17746 0.5276 0.87439 0.0
C118 C 0.18322 0.53892 0.83173 0.0
C119 C 0.19173 0.56185 0.83209 0.0
C120 C 0.19318 0.57358 0.87593 0.0
C121 C 0.18732 0.56231 0.91858 0.0
C122 C 0.18181 0.53772 0.09424 0.0
C123 C 0.17847 0.56186 0.09706 0.0
C124 C 0.91101 0.83583 0.6241 0.0
C125 C 0.92081 0.82755 0.66688 0.0
C126 C 0.94468 0.8226 0.66846 0.0
C127 C 0.95825 0.82458 0.62741 0.0
H128 H 0.02613 0.81934 0.57462 0.0
H129 H 0.06295 0.79913 0.58326 0.0
H130 H 0.05552 0.77147 0.4407 0.0
H131 H 0.01894 0.79251 0.43141 0.0
H132 H 0.9802 0.81948 0.36523 0.0
H133 H 0.95925 0.82109 0.28954 0.0
H134 H 0.89911 0.8487 0.36189 0.0
H135 H 0.91975 0.84677 0.43761 0.0
H136 H 0.91626 0.84311 0.54985 0.0
H137 H 0.89261 0.83971 0.62194 0.0
H138 H 0.95273 0.81651 0.70121 0.0
H139 H 0.97643 0.81984 0.62975 0.0
N140 N 0.98404 0.82186 0.5403 0.0
N141 N 0.98561 0.82159 0.45667 0.0
N142 N 0.95164 0.83364 0.49578 0.0
C143 C 0.99606 0.81779 0.49954 0.0
C144 C 0.96344 0.82977 0.4545 0.0
C145 C 0.96184 0.82975 0.53887 0.0
C146 C 0.01952 0.80738 0.50247 0.0
C147 C 0.03243 0.80911 0.54493 0.0
C148 C 0.05348 0.79734 0.55002 0.0
C149 C 0.06202 0.78328 0.51303 0.0
C150 C 0.04952 0.78223 0.46984 0.0
C151 C 0.02853 0.79426 0.46452 0.0
C152 C 0.9516 0.83274 0.40776 0.0
C153 C 0.96257 0.82609 0.36504 0.0
C154 C 0.95062 0.82711 0.32154 0.0
C155 C 0.92746 0.8348 0.31982 0.0
C156 C 0.91681 0.84227 0.36219 0.0
C157 C 0.92871 0.84125 0.40562 0.0
C158 C 0.9482 0.83137 0.58366 0.0
C159 C 0.92456 0.83767 0.58279 0.0
C160 C 0.83474 0.43559 0.85906 0.0
C161 C 0.81678 0.4374 0.82496 0.0
C162 C 0.8004 0.45547 0.83001 0.0
C163 C 0.80123 0.47036 0.86949 0.0
H164 H 0.80899 0.54545 0.92114 0.0
H165 H 0.8088 0.58785 0.92666 0.0
H166 H 0.80624 0.58277 0.08046 0.0
H167 H 0.80663 0.54068 0.07533 0.0
H168 H 0.78328 0.47865 0.10666 0.0
H169 H 0.78088 0.45253 0.17505 0.0
H170 H 0.84605 0.42095 0.13307 0.0
H171 H 0.8469 0.4457 0.06241 0.0
H172 H 0.84847 0.44736 0.92593 0.0
H173 H 0.84819 0.42254 0.85578 0.0
H174 H 0.78618 0.45741 0.80497 0.0
H175 H 0.78781 0.4834 0.87366 0.0
N176 N 0.81254 0.50285 0.95248 0.0
N177 N 0.81107 0.50106 0.03631 0.0
N178 N 0.81796 0.46721 0.99231 0.0
C179 C 0.81021 0.51381 0.99528 0.0
C180 C 0.81499 0.47783 0.03499 0.0
C181 C 0.81647 0.47954 0.95097 0.0
C182 C 0.80802 0.53953 0.99778 0.0
C183 C 0.80821 0.55335 0.95614 0.0
C184 C 0.80804 0.57766 0.95925 0.0
C185 C 0.80781 0.58864 0.00401 0.0
C186 C 0.8069 0.57484 0.04546 0.0
C187 C 0.80697 0.55063 0.04242 0.0
C188 C 0.81515 0.46395 0.07929 0.0
C189 C 0.79708 0.46613 0.11247 0.0
C190 C 0.79587 0.4512 0.15198 0.0
C191 C 0.81315 0.4342 0.15996 0.0
C192 C 0.83193 0.4331 0.1277 0.0
C193 C 0.83264 0.44747 0.08736 0.0
C194 C 0.81811 0.46714 0.90513 0.0
C195 C 0.83513 0.44998 0.89907 0.0
C196 C 0.09071 0.18612 0.37212 0.0
C197 C 0.08017 0.17748 0.33035 0.0
C198 C 0.0571 0.16939 0.3332 0.0
C199 C 0.04479 0.17047 0.37623 0.0
H200 H 0.97573 0.17716 0.43465 0.0
H201 H 0.93552 0.18968 0.42746 0.0
H202 H 0.94217 0.22847 0.55874 0.0
H203 H 0.98212 0.21494 0.56704 0.0
H204 H 0.0266 0.20125 0.63339 0.0
H205 H 0.04883 0.20516 0.70721 0.0
H206 H 0.1092 0.17652 0.63748 0.0
H207 H 0.08709 0.17241 0.56381 0.0
H208 H 0.08721 0.19378 0.44639 0.0
H209 H 0.10816 0.19312 0.37152 0.0
H210 H 0.04846 0.16219 0.30224 0.0
H211 H 0.02697 0.16441 0.37712 0.0
N212 N 0.01899 0.18512 0.46192 0.0
N213 N 0.01891 0.18979 0.5452 0.0
N214 N 0.05375 0.18185 0.50518 0.0
C215 C 0.00719 0.18935 0.50302 0.0
C216 C 0.04218 0.18573 0.54663 0.0
C217 C 0.0423 0.18148 0.46275 0.0
C218 C 0.98217 0.19523 0.50115 0.0
C219 C 0.96853 0.18817 0.46222 0.0
C220 C 0.94549 0.19551 0.45798 0.0
C221 C 0.93564 0.21049 0.49203 0.0
C222 C 0.94905 0.21682 0.53199 0.0
C223 C 0.97202 0.20913 0.53665 0.0
C224 C 0.05509 0.18669 0.59245 0.0
C225 C 0.04454 0.19556 0.63384 0.0
C226 C 0.05728 0.19789 0.67611 0.0
C227 C 0.08076 0.19121 0.67804 0.0
C228 C 0.09108 0.18161 0.63721 0.0
C229 C 0.07842 0.17945 0.59485 0.0
C230 C 0.05544 0.17915 0.41766 0.0
C231 C 0.07861 0.18667 0.41525 0.0
C232 C 0.71297 0.93635 0.37091 0.0
C233 C 0.7023 0.94355 0.32828 0.0
C234 C 0.68857 0.96373 0.32802 0.0
C235 C 0.68573 0.97664 0.36987 0.0
H236 H 0.68333 0.04553 0.41883 0.0
H237 H 0.6805 0.08756 0.41537 0.0
H238 H 0.6798 0.09038 0.56953 0.0
H239 H 0.68319 0.04813 0.57322 0.0
H240 H 0.69891 1.00008 0.63189 0.0
H241 H 0.70367 0.97804 0.70602 0.0
H242 H 0.69124 0.91416 0.62934 0.0
H243 H 0.68729 0.93597 0.55548 0.0
H244 H 0.71802 0.9428 0.44535 0.0
H245 H 0.72352 0.92074 0.37191 0.0
H246 H 0.6802 0.96955 0.2954 0.0
H247 H 0.67509 0.99217 0.36884 0.0
N248 N 0.68898 0.00553 0.45669 0.0
N249 N 0.68803 0.00613 0.54059 0.0
N250 N 0.69393 0.97102 0.50011 0.0
C251 C 0.6867 0.01767 0.49803 0.0
C252 C 0.69146 0.98272 0.54177 0.0
C253 C 0.69271 0.98225 0.45754 0.0
C254 C 0.68361 0.04331 0.49635 0.0
C255 C 0.68247 0.05499 0.45214 0.0
C256 C 0.68065 0.07918 0.45009 0.0
C257 C 0.67987 0.09239 0.49216 0.0
C258 C 0.68061 0.08074 0.53643 0.0
C259 C 0.68244 0.05648 0.53852 0.0
C260 C 0.69294 0.96981 0.58763 0.0
C261 C 0.6971 0.98134 0.63096 0.0
C262 C 0.69972 0.96869 0.67351 0.0
C263 C 0.69803 0.94426 0.67367 0.0
C264 C 0.69321 0.93287 0.63048 0.0
C265 C 0.69081 0.94545 0.58805 0.0
C266 C 0.69608 0.96918 0.4128 0.0
C267 C 0.7097 0.9489 0.41288 0.0
C268 C 0.58759 0.33173 0.86169 0.0
C269 C 0.58322 0.31696 0.82295 0.0
C270 C 0.56636 0.29944 0.82755 0.0
C271 C 0.55397 0.29686 0.87032 0.0
H272 H 0.48184 0.2925 0.92942 0.0
H273 H 0.44078 0.28228 0.93789 0.0
H274 H 0.45125 0.2705 0.08888 0.0
H275 H 0.49184 0.28107 0.08084 0.0
H276 H 0.53207 0.30821 0.13227 0.0
H277 H 0.55378 0.31589 0.2054 0.0
H278 H 0.61356 0.33581 0.12168 0.0
H279 H 0.59213 0.32789 0.04861 0.0
H280 H 0.57964 0.34037 0.93398 0.0
H281 H 0.60063 0.34526 0.85907 0.0
H282 H 0.56271 0.28788 0.79803 0.0
H283 H 0.54111 0.28318 0.87317 0.0
N284 N 0.52497 0.29929 0.95813 0.0
N285 N 0.52592 0.30243 0.04173 0.0
N286 N 0.55809 0.31403 0.99671 0.0
C287 C 0.51435 0.29649 0.00121 0.0
C288 C 0.54777 0.31119 0.03986 0.0
C289 C 0.5469 0.30808 0.95579 0.0
C290 C 0.49009 0.28796 0.00456 0.0
C291 C 0.47541 0.28751 0.96431 0.0
C292 C 0.4519 0.28158 0.96911 0.0
C293 C 0.44268 0.27595 0.0142 0.0
C294 C 0.45766 0.27532 0.05386 0.0
C295 C 0.48101 0.28131 0.04915 0.0
C296 C 0.56039 0.31719 0.0844 0.0
C297 C 0.5498 0.31434 0.12935 0.0
C298 C 0.56217 0.3189 0.17133 0.0
C299 C 0.58541 0.32631 0.16929 0.0
C300 C 0.59577 0.32978 0.12441 0.0
C301 C 0.58342 0.32531 0.08248 0.0
C302 C 0.55873 0.31139 0.90942 0.0
C303 C 0.57565 0.32884 0.90458 0.0
C304 C 0.32466 0.06622 0.65429 0.0
C305 C 0.3062 0.06648 0.68734 0.0
C306 C 0.28741 0.05115 0.68003 0.0
C307 C 0.28662 0.03688 0.6397 0.0
H308 H 0.30554 0.96 0.58358 0.0
H309 H 0.30471 0.91778 0.57645 0.0
H310 H 0.27848 0.92451 0.43229 0.0
H311 H 0.28006 0.96655 0.43879 0.0
H312 H 0.28498 0.01584 0.38506 0.0
H313 H 0.28348 0.04013 0.3132 0.0
H314 H 0.3091 0.0985 0.39415 0.0
H315 H 0.31084 0.07443 0.46555 0.0
H316 H 0.33735 0.05354 0.58728 0.0
H317 H 0.33982 0.07707 0.65922 0.0
H318 H 0.27268 0.05093 0.70399 0.0
H319 H 0.27157 0.02594 0.63391 0.0
N320 N 0.29828 0.00296 0.55725 0.0
N321 N 0.29526 0.0054 0.47364 0.0
N322 N 0.30184 0.03904 0.51847 0.0
C323 C 0.29533 0.99234 0.51433 0.0
C324 C 0.29848 0.02879 0.47543 0.0
C325 C 0.3016 0.02629 0.55932 0.0
C326 C 0.29308 0.9667 0.51158 0.0
C327 C 0.29946 0.95246 0.55044 0.0
C328 C 0.29891 0.92822 0.54644 0.0
C329 C 0.29181 0.91769 0.5036 0.0
C330 C 0.28464 0.93198 0.46541 0.0
C331 C 0.2854 0.95615 0.46923 0.0
C332 C 0.29805 0.04314 0.43122 0.0
C333 C 0.29042 0.03382 0.38749 0.0
C334 C 0.28941 0.04775 0.34636 0.0
C335 C 0.29624 0.0712 0.34798 0.0
C336 C 0.30402 0.08042 0.39155 0.0
C337 C 0.30487 0.06661 0.43263 0.0
C338 C 0.30427 0.0381 0.60539 0.0
C339 C 0.32346 0.05254 0.61329 0.0
C340 C 0.40639 0.69314 0.12613 0.0
C341 C 0.41486 0.70377 0.16774 0.0
C342 C 0.43768 0.71237 0.16829 0.0
C343 C 0.4516 0.71094 0.12763 0.0
H344 H 0.51768 0.71945 0.08255 0.0
H345 H 0.55859 0.729 0.08846 0.0
H346 H 0.56607 0.72048 0.93605 0.0
H347 H 0.52474 0.71125 0.92968 0.0
H348 H 0.47772 0.7066 0.86772 0.0
H349 H 0.45737 0.70461 0.79133 0.0
H350 H 0.39526 0.68158 0.86389 0.0
H351 H 0.41528 0.68397 0.9401 0.0
H352 H 0.41301 0.68414 0.05331 0.0
H353 H 0.3888 0.68649 0.12471 0.0
H354 H 0.44468 0.72045 0.2001 0.0
H355 H 0.46897 0.71814 0.1291 0.0
N356 N 0.47994 0.70687 0.04304 0.0
N357 N 0.48258 0.7043 0.95968 0.0
N358 N 0.44701 0.69739 0.99803 0.0
C359 C 0.49288 0.70826 0.00261 0.0
C360 C 0.45963 0.69882 0.95713 0.0
C361 C 0.45703 0.70139 0.04113 0.0
C362 C 0.51785 0.71441 0.00564 0.0
C363 C 0.52792 0.71959 0.05013 0.0
C364 C 0.55146 0.72498 0.05362 0.0
C365 C 0.56561 0.72527 0.01279 0.0
C366 C 0.55556 0.72051 0.96811 0.0
C367 C 0.53191 0.7151 0.96455 0.0
C368 C 0.44808 0.69571 0.91023 0.0
C369 C 0.45977 0.70095 0.8674 0.0
C370 C 0.44815 0.69973 0.82354 0.0
C371 C 0.42464 0.69323 0.82164 0.0
C372 C 0.41324 0.68716 0.86426 0.0
C373 C 0.42479 0.68842 0.908 0.0
C374 C 0.44289 0.70112 0.0853 0.0
C375 C 0.42022 0.69195 0.0852 0.0
H376 H 0.19323 0.1842 0.16714 0.0
H377 H 0.14831 0.19395 0.04419 0.0
H378 H 0.11373 0.18902 0.09619 0.0
H379 H 0.15755 0.13937 0.22375 0.0
H380 H 0.16419 0.14936 0.28316 0.0
H381 H 0.18503 0.15321 0.23583 0.0
H382 H 0.18621 0.19746 0.25275 0.0
H383 H 0.16534 0.19379 0.29998 0.0
H384 H 0.15954 0.21392 0.25188 0.0
H385 H 0.08437 0.18657 0.16379 0.0
H386 H 0.06262 0.18418 0.23935 0.0
H387 H 0.12727 0.1717 0.31586 0.0
C388 C 0.17609 0.18527 0.15118 0.0
C389 C 0.17328 0.18972 0.10192 0.0
C390 C 0.15069 0.19059 0.08199 0.0
C391 C 0.13103 0.18783 0.11121 0.0
C392 C 0.13441 0.18366 0.15989 0.0
C393 C 0.15641 0.182 0.1795 0.0
C394 C 0.15546 0.1772 0.23261 0.0
C395 C 0.16619 0.15337 0.24452 0.0
C396 C 0.16734 0.19676 0.26095 0.0
C397 C 0.12946 0.17716 0.24027 0.0
C398 C 0.11758 0.18094 0.19802 0.0
C399 C 0.09347 0.18312 0.19693 0.0
C400 C 0.08123 0.18156 0.24018 0.0
C401 C 0.09306 0.17762 0.28405 0.0
C402 C 0.11752 0.17501 0.28345 0.0
H403 H 0.22507 0.66698 0.65696 0.0
H404 H 0.26543 0.61707 0.57579 0.0
H405 H 0.2514 0.58552 0.62804 0.0
H406 H 0.23618 0.64195 0.77077 0.0
H407 H 0.20761 0.64761 0.79428 0.0
H408 H 0.21945 0.66619 0.74851 0.0
H409 H 0.18342 0.65847 0.69525 0.0
H410 H 0.17144 0.63986 0.74092 0.0
H411 H 0.17546 0.62896 0.68123 0.0
H412 H 0.23469 0.55967 0.69071 0.0
H413 H 0.21722 0.54123 0.76158 0.0
H414 H 0.18733 0.60755 0.80254 0.0
C415 C 0.23077 0.64938 0.64989 0.0
C416 C 0.24637 0.64452 0.61225 0.0
C417 C 0.25358 0.62127 0.60451 0.0
C418 C 0.24562 0.60319 0.63386 0.0
C419 C 0.23047 0.60859 0.67087 0.0
C420 C 0.22311 0.63109 0.6791 0.0
C421 C 0.20763 0.63224 0.7228 0.0
C422 C 0.21837 0.64792 0.76136 0.0
C423 C 0.18302 0.64036 0.70922 0.0
C424 C 0.20773 0.60693 0.73815 0.0
C425 C 0.22084 0.59359 0.70739 0.0
C426 C 0.22415 0.56987 0.7148 0.0
C427 C 0.214 0.55951 0.75504 0.0
C428 C 0.2007 0.57284 0.78756 0.0
C429 C 0.19742 0.59686 0.77853 0.0
H430 H 0.81601 0.80924 0.16054 0.0
H431 H 0.85434 0.83397 0.03691 0.0
H432 H 0.88878 0.84065 0.08822 0.0
H433 H 0.83845 0.85038 0.24249 0.0
H434 H 0.8393 0.83022 0.29194 0.0
H435 H 0.81822 0.82648 0.245 0.0
H436 H 0.83306 0.78451 0.23071 0.0
H437 H 0.85409 0.78805 0.27782 0.0
H438 H 0.86347 0.77971 0.21893 0.0
H439 H 0.91886 0.8452 0.15448 0.0
H440 H 0.94166 0.8474 0.22947 0.0
H441 H 0.88281 0.81979 0.30806 0.0
C442 C 0.83167 0.81587 0.14397 0.0
C443 C 0.83249 0.82103 0.09464 0.0
C444 C 0.85332 0.82988 0.07464 0.0
C445 C 0.87295 0.83372 0.10349 0.0
C446 C 0.8714 0.82867 0.15215 0.0
C447 C 0.85126 0.81992 0.17212 0.0
C448 C 0.8537 0.81644 0.22541 0.0
C449 C 0.83639 0.8318 0.25281 0.0
C450 C 0.85093 0.79064 0.23899 0.0
C451 C 0.8784 0.82459 0.23251 0.0
C452 C 0.88841 0.83154 0.18995 0.0
C453 C 0.91119 0.83976 0.18797 0.0
C454 C 0.92402 0.84087 0.23066 0.0
C455 C 0.91397 0.8339 0.27463 0.0
C456 C 0.89088 0.82563 0.27521 0.0
H457 H 0.7663 0.38152 0.58445 0.0
H458 H 0.78802 0.31477 0.64196 0.0
H459 H 0.80803 0.33456 0.70809 0.0
H460 H 0.81952 0.41481 0.62136 0.0
H461 H 0.80282 0.44027 0.63625 0.0
H462 H 0.79306 0.42123 0.58934 0.0
H463 H 0.75345 0.41662 0.63214 0.0
H464 H 0.76314 0.43541 0.67936 0.0
H465 H 0.7528 0.40658 0.69323 0.0
H466 H 0.82081 0.36038 0.77292 0.0
H467 H 0.82718 0.39095 0.83202 0.0
H468 H 0.79893 0.44212 0.73287 0.0
C469 C 0.7759 0.37118 0.61017 0.0
C470 C 0.77574 0.34661 0.60796 0.0
C471 C 0.78794 0.3336 0.64298 0.0
C472 C 0.79943 0.34468 0.68061 0.0
C473 C 0.79863 0.36883 0.68275 0.0
C474 C 0.7874 0.38202 0.64836 0.0
C475 C 0.78765 0.4076 0.6616 0.0
C476 C 0.8016 0.42182 0.62495 0.0
C477 C 0.76278 0.4171 0.6669 0.0
C478 C 0.80008 0.40654 0.70945 0.0
C479 C 0.80642 0.384 0.72055 0.0
C480 C 0.81653 0.37821 0.76415 0.0
C481 C 0.82025 0.39588 0.79747 0.0
C482 C 0.81406 0.41928 0.7872 0.0
C483 C 0.80399 0.42456 0.74215 0.0
H484 H 0.69623 0.30891 0.33456 0.0
H485 H 0.65984 0.34461 0.44848 0.0
H486 H 0.62603 0.35034 0.39463 0.0
H487 H 0.67597 0.34493 0.23829 0.0
H488 H 0.67386 0.32103 0.19707 0.0
H489 H 0.69496 0.32017 0.24463 0.0
H490 H 0.67808 0.28083 0.27397 0.0
H491 H 0.65695 0.28154 0.2265 0.0
H492 H 0.64755 0.27871 0.28763 0.0
H493 H 0.59573 0.351 0.32743 0.0
H494 H 0.57237 0.34732 0.25334 0.0
H495 H 0.62964 0.31125 0.18559 0.0
C496 C 0.68122 0.318 0.34843 0.0
C497 C 0.6807 0.32631 0.39581 0.0
C498 C 0.66066 0.33814 0.41225 0.0
C499 C 0.64139 0.34144 0.38195 0.0
C500 C 0.64254 0.3329 0.33541 0.0
C501 C 0.66204 0.32149 0.31885 0.0
C502 C 0.65913 0.31378 0.26768 0.0
C503 C 0.67704 0.3257 0.235 0.0
C504 C 0.6605 0.28714 0.26375 0.0
C505 C 0.63486 0.32253 0.25782 0.0
C506 C 0.62547 0.33349 0.29718 0.0
C507 C 0.60298 0.34252 0.2964 0.0
C508 C 0.58982 0.34027 0.2543 0.0
C509 C 0.59927 0.32917 0.21362 0.0
C510 C 0.62208 0.32023 0.21573 0.0
H511 H 0.25567 0.12601 0.92223 0.0
H512 H 0.28845 0.18961 0.87272 0.0
H513 H 0.30887 0.16772 0.8102 0.0
H514 H 0.30585 0.08603 0.8939 0.0
H515 H 0.2866 0.06319 0.87463 0.0
H516 H 0.27756 0.08299 0.92076 0.0
H517 H 0.24081 0.09325 0.87143 0.0
H518 H 0.24982 0.07373 0.825 0.0
H519 H 0.24401 0.10379 0.81105 0.0
H520 H 0.32046 0.14107 0.7462 0.0
H521 H 0.32405 0.11079 0.68562 0.0
H522 H 0.28583 0.06296 0.77713 0.0
C523 C 0.26775 0.13512 0.89919 0.0
C524 C 0.27056 0.15947 0.90234 0.0
C525 C 0.28603 0.17096 0.87081 0.0
C526 C 0.29779 0.15867 0.83533 0.0
C527 C 0.29403 0.13484 0.83193 0.0
C528 C 0.27961 0.12306 0.86321 0.0
C529 C 0.27699 0.09781 0.84862 0.0
C530 C 0.28738 0.08154 0.88675 0.0
C531 C 0.25139 0.09181 0.83841 0.0
C532 C 0.29138 0.09759 0.80326 0.0
C533 C 0.30124 0.11909 0.79476 0.0
C534 C 0.31346 0.12392 0.75309 0.0
C535 C 0.31555 0.1064 0.71889 0.0
C536 C 0.30563 0.08408 0.72644 0.0
C537 C 0.29369 0.07967 0.76983 0.0
H538 H 0.31901 0.66896 0.36185 0.0
H539 H 0.31936 0.74123 0.40555 0.0
H540 H 0.35067 0.74954 0.34777 0.0
H541 H 0.38116 0.66315 0.34044 0.0
H542 H 0.37735 0.64526 0.28831 0.0
H543 H 0.35605 0.64458 0.33539 0.0
H544 H 0.32372 0.65491 0.27432 0.0
H545 H 0.3449 0.65564 0.22709 0.0
H546 H 0.32671 0.68059 0.2377 0.0
H547 H 0.38141 0.75018 0.28519 0.0
H548 H 0.40814 0.74372 0.21763 0.0
H549 H 0.38677 0.67146 0.21149 0.0
C550 C 0.32592 0.68644 0.35957 0.0
C551 C 0.31692 0.70447 0.38819 0.0
C552 C 0.326 0.72724 0.38372 0.0
C553 C 0.34384 0.73209 0.35123 0.0
C554 C 0.35221 0.71401 0.32318 0.0
C555 C 0.34347 0.69168 0.32667 0.0
C556 C 0.35463 0.67578 0.2903 0.0
C557 C 0.3681 0.65603 0.3151 0.0
C558 C 0.3364 0.66617 0.25528 0.0
C559 C 0.37094 0.69269 0.26578 0.0
C560 C 0.36945 0.71456 0.28575 0.0
C561 C 0.38279 0.73312 0.26928 0.0
C562 C 0.39797 0.72927 0.2311 0.0
C563 C 0.39951 0.7071 0.20953 0.0
C564 C 0.38583 0.68859 0.22724 0.0
H565 H 0.74787 0.83949 0.83164 0.0
H566 H 0.72204 0.87553 0.95652 0.0
H567 H 0.70417 0.90542 0.90439 0.0
H568 H 0.76431 0.88986 0.76926 0.0
H569 H 0.75656 0.87911 0.71099 0.0
H570 H 0.76484 0.85908 0.75755 0.0
H571 H 0.72597 0.83689 0.74711 0.0
H572 H 0.71761 0.85678 0.70024 0.0
H573 H 0.69889 0.85253 0.75108 0.0
H574 H 0.69113 0.93255 0.8389 0.0
H575 H 0.68408 0.95507 0.76496 0.0
H576 H 0.72065 0.9024 0.6836 0.0
C577 C 0.73792 0.85334 0.84788 0.0
C578 C 0.73603 0.85509 0.898 0.0
C579 C 0.72352 0.87385 0.91811 0.0
C580 C 0.71332 0.89087 0.88883 0.0
C581 C 0.71596 0.88896 0.83955 0.0
C582 C 0.72796 0.87068 0.8192 0.0
C583 C 0.72983 0.87365 0.76559 0.0
C584 C 0.7554 0.87554 0.74996 0.0
C585 C 0.71732 0.85378 0.73947 0.0
C586 C 0.71715 0.89651 0.75902 0.0
C587 C 0.70911 0.90497 0.80201 0.0
C588 C 0.69729 0.92607 0.80497 0.0
C589 C 0.69354 0.93884 0.76281 0.0
C590 C 0.70175 0.93056 0.7183 0.0
C591 C 0.71372 0.90908 0.71675 0.0
H592 H 0.81888 0.84542 0.8577 0.0
H593 H 0.83175 0.77434 0.9031 0.0
H594 H 0.86437 0.7717 0.84622 0.0
H595 H 0.82923 0.83507 0.73376 0.0
H596 H 0.84273 0.86285 0.72276 0.0
H597 H 0.82146 0.85988 0.76949 0.0
H598 H 0.85105 0.87596 0.8309 0.0
H599 H 0.87243 0.87899 0.78434 0.0
H600 H 0.87905 0.86219 0.83714 0.0
H601 H 0.89508 0.77645 0.78489 0.0
H602 H 0.92074 0.78733 0.71802 0.0
H603 H 0.88702 0.85469 0.70854 0.0
C604 C 0.82879 0.82944 0.85596 0.0
C605 C 0.82301 0.81012 0.88491 0.0
C606 C 0.83597 0.7893 0.88111 0.0
C607 C 0.85454 0.78767 0.84911 0.0
C608 C 0.85972 0.80693 0.82079 0.0
C609 C 0.84714 0.82735 0.82346 0.0
C610 C 0.85552 0.84492 0.78681 0.0
C611 C 0.83608 0.85103 0.75109 0.0
C612 C 0.86508 0.86681 0.81128 0.0
C613 C 0.87476 0.83114 0.76319 0.0
C614 C 0.87701 0.80938 0.78384 0.0
C615 C 0.89354 0.79344 0.76846 0.0
C616 C 0.90811 0.79983 0.73067 0.0
C617 C 0.90592 0.82187 0.70839 0.0
C618 C 0.88901 0.83772 0.72493 0.0
H619 H 0.75976 0.38073 0.40006 0.0
H620 H 0.79319 0.31568 0.36186 0.0
H621 H 0.8127 0.33522 0.29476 0.0
H622 H 0.74804 0.39974 0.28485 0.0
H623 H 0.75417 0.43005 0.29505 0.0
H624 H 0.74473 0.41187 0.34374 0.0
H625 H 0.78139 0.42296 0.39238 0.0
H626 H 0.79086 0.44141 0.34399 0.0
H627 H 0.80975 0.41887 0.36646 0.0
H628 H 0.82385 0.35985 0.22558 0.0
H629 H 0.82881 0.38887 0.16224 0.0
H630 H 0.79148 0.43948 0.24813 0.0
C631 C 0.77158 0.37071 0.37825 0.0
C632 C 0.7748 0.34661 0.38626 0.0
C633 C 0.79033 0.33412 0.35656 0.0
C634 C 0.80156 0.34507 0.31828 0.0
C635 C 0.79743 0.36862 0.31049 0.0
C636 C 0.78316 0.38143 0.34003 0.0
C637 C 0.78093 0.40628 0.32222 0.0
C638 C 0.75546 0.41232 0.31079 0.0
C639 C 0.79136 0.42339 0.35842 0.0
C640 C 0.79549 0.40513 0.27717 0.0
C641 C 0.80486 0.38325 0.27125 0.0
C642 C 0.81722 0.37729 0.23046 0.0
C643 C 0.82011 0.39411 0.19467 0.0
C644 C 0.81097 0.41691 0.19988 0.0
C645 C 0.79871 0.42238 0.24232 0.0
H646 H 0.18231 0.16735 0.8672 0.0
H647 H 0.17301 0.23864 0.91343 0.0
H648 H 0.13918 0.24266 0.8598 0.0
H649 H 0.17011 0.17841 0.74536 0.0
H650 H 0.15524 0.15131 0.73502 0.0
H651 H 0.17722 0.1531 0.78067 0.0
H652 H 0.14777 0.13808 0.84354 0.0
H653 H 0.12567 0.13624 0.79802 0.0
H654 H 0.12051 0.15305 0.85114 0.0
H655 H 0.10761 0.23968 0.79933 0.0
H656 H 0.08178 0.23076 0.73139 0.0
H657 H 0.11216 0.16188 0.72158 0.0
C658 C 0.17288 0.18364 0.86649 0.0
C659 C 0.18013 0.20267 0.89452 0.0
C660 C 0.16773 0.2239 0.89204 0.0
C661 C 0.14842 0.22631 0.86196 0.0
C662 C 0.14185 0.20736 0.83429 0.0
C663 C 0.15375 0.18648 0.83595 0.0
C664 C 0.14413 0.1695 0.7997 0.0
C665 C 0.16279 0.16269 0.76302 0.0
C666 C 0.13391 0.14794 0.8246 0.0
C667 C 0.12521 0.18423 0.77706 0.0
C668 C 0.12398 0.20587 0.79812 0.0
C669 C 0.10826 0.22273 0.78274 0.0
C670 C 0.09359 0.21747 0.74431 0.0
C671 C 0.09491 0.19561 0.72138 0.0
C672 C 0.11081 0.17874 0.73839 0.0
H673 H 0.24271 0.6644 0.33741 0.0
H674 H 0.22901 0.6223 0.46322 0.0
H675 H 0.21049 0.59243 0.41244 0.0
H676 H 0.19033 0.65023 0.27117 0.0
H677 H 0.20516 0.64919 0.21457 0.0
H678 H 0.21573 0.66793 0.26121 0.0
H679 H 0.25624 0.64834 0.25635 0.0
H680 H 0.24582 0.62959 0.20968 0.0
H681 H 0.2585 0.61723 0.26296 0.0
H682 H 0.19393 0.56707 0.34759 0.0
H683 H 0.18265 0.54697 0.27344 0.0
H684 H 0.20999 0.60467 0.19013 0.0
C685 C 0.23551 0.64905 0.35434 0.0
C686 C 0.23705 0.64569 0.4042 0.0
C687 C 0.22793 0.62516 0.425 0.0
C688 C 0.21733 0.60818 0.39652 0.0
C689 C 0.21624 0.61194 0.34735 0.0
C690 C 0.22525 0.63178 0.32641 0.0
C691 C 0.22324 0.63097 0.27256 0.0
C692 C 0.20768 0.65075 0.25379 0.0
C693 C 0.24738 0.63156 0.24902 0.0
C694 C 0.21169 0.60755 0.26644 0.0
C695 C 0.20758 0.59695 0.30997 0.0
C696 C 0.19716 0.57516 0.31327 0.0
C697 C 0.19098 0.5638 0.27088 0.0
C698 C 0.19549 0.57412 0.22572 0.0
C699 C 0.2059 0.59638 0.22386 0.0
H700 H 0.31297 0.71092 0.65866 0.0
H701 H 0.35134 0.68035 0.54118 0.0
H702 H 0.38649 0.67858 0.59198 0.0
H703 H 0.36083 0.74554 0.70734 0.0
H704 H 0.35186 0.74037 0.76812 0.0
H705 H 0.33054 0.74108 0.72092 0.0
H706 H 0.3163 0.70005 0.74608 0.0
H707 H 0.33768 0.69912 0.79302 0.0
H708 H 0.33682 0.6764 0.74893 0.0
H709 H 0.41668 0.67752 0.65825 0.0
H710 H 0.43921 0.67781 0.73369 0.0
H711 H 0.38063 0.70939 0.80614 0.0
C712 C 0.32881 0.70415 0.64321 0.0
C713 C 0.32936 0.69575 0.5959 0.0
C714 C 0.35049 0.68692 0.57732 0.0
C715 C 0.37055 0.68585 0.60589 0.0
C716 C 0.36921 0.69382 0.65276 0.0
C717 C 0.34889 0.70295 0.6711 0.0
C718 C 0.35155 0.70932 0.72313 0.0
C719 C 0.34852 0.73564 0.73028 0.0
C720 C 0.33459 0.69539 0.75462 0.0
C721 C 0.37641 0.70191 0.7316 0.0
C722 C 0.38642 0.69317 0.69061 0.0
C723 C 0.40908 0.68456 0.69043 0.0
C724 C 0.42175 0.68484 0.73336 0.0
C725 C 0.41165 0.69354 0.77581 0.0
C726 C 0.38876 0.70236 0.77448 0.0
H727 H 0.77318 0.87102 0.13557 0.0
H728 H 0.70741 0.84222 0.08884 0.0
H729 H 0.68655 0.8684 0.14431 0.0
H730 H 0.75778 0.87316 0.25812 0.0
H731 H 0.77367 0.89949 0.27017 0.0
H732 H 0.78309 0.88041 0.22324 0.0
H733 H 0.78096 0.91454 0.16261 0.0
H734 H 0.77149 0.93374 0.20938 0.0
H735 H 0.75423 0.9306 0.156 0.0
H736 H 0.67308 0.89751 0.20536 0.0
H737 H 0.66814 0.92409 0.27407 0.0
H738 H 0.74293 0.9312 0.28531 0.0
C739 C 0.75436 0.87057 0.13657 0.0
C740 C 0.74175 0.85501 0.10768 0.0
C741 C 0.71724 0.85423 0.11071 0.0
C742 C 0.7053 0.86906 0.14184 0.0
C743 C 0.71824 0.88419 0.17017 0.0
C744 C 0.74225 0.88479 0.16833 0.0
C745 C 0.75215 0.90103 0.20556 0.0
C746 C 0.76758 0.88772 0.24138 0.0
C747 C 0.76549 0.92117 0.18196 0.0
C748 C 0.72997 0.90946 0.2287 0.0
C749 C 0.71057 0.89988 0.20722 0.0
C750 C 0.68813 0.90511 0.22248 0.0
C751 C 0.68547 0.92024 0.26127 0.0
C752 C 0.70516 0.92955 0.28466 0.0
C753 C 0.72763 0.92422 0.2679 0.0
H754 H 0.68065 0.28378 0.63323 0.0
H755 H 0.6777 0.35572 0.58562 0.0
H756 H 0.64444 0.36262 0.63871 0.0
H757 H 0.61732 0.27567 0.64617 0.0
H758 H 0.62035 0.25791 0.69903 0.0
H759 H 0.64282 0.25787 0.65425 0.0
H760 H 0.67327 0.26916 0.71836 0.0
H761 H 0.65094 0.26919 0.76327 0.0
H762 H 0.66858 0.29472 0.75414 0.0
H763 H 0.61401 0.36298 0.70139 0.0
H764 H 0.58802 0.35649 0.77036 0.0
H765 H 0.60955 0.28432 0.77694 0.0
C766 C 0.67282 0.3009 0.63351 0.0
C767 C 0.68189 0.31921 0.60524 0.0
C768 C 0.6712 0.34141 0.60699 0.0
C769 C 0.65219 0.3455 0.6369 0.0
C770 C 0.64388 0.32721 0.66469 0.0
C771 C 0.65375 0.30532 0.66323 0.0
C772 C 0.64217 0.28908 0.69877 0.0
C773 C 0.62994 0.26894 0.673 0.0
C774 C 0.65979 0.28001 0.73583 0.0
C775 C 0.62471 0.30547 0.72123 0.0
C776 C 0.62591 0.32733 0.70069 0.0
C777 C 0.61264 0.34586 0.71732 0.0
C778 C 0.598 0.34205 0.75647 0.0
C779 C 0.59668 0.31989 0.77841 0.0
C780 C 0.60991 0.30128 0.76003 0.0
H781 H 0.23472 0.13385 0.12607 0.0
H782 H 0.29478 0.17936 0.11929 0.0
H783 H 0.31408 0.15601 0.18203 0.0
H784 H 0.23465 0.12804 0.251 0.0
H785 H 0.22557 0.09805 0.25177 0.0
H786 H 0.2175 0.11661 0.20255 0.0
H787 H 0.2363 0.08775 0.14321 0.0
H788 H 0.2444 0.06903 0.19227 0.0
H789 H 0.26624 0.07932 0.15122 0.0
H790 H 0.32579 0.12959 0.24876 0.0
H791 H 0.32885 0.10226 0.31666 0.0
H792 H 0.26076 0.07447 0.28225 0.0
C793 C 0.25215 0.13856 0.13705 0.0
C794 C 0.26337 0.15828 0.11755 0.0
C795 C 0.28591 0.16428 0.13372 0.0
C796 C 0.29704 0.15108 0.16919 0.0
C797 C 0.28536 0.132 0.18831 0.0
C798 C 0.26341 0.12573 0.17291 0.0
C799 C 0.25399 0.10553 0.20197 0.0
C800 C 0.23161 0.11248 0.22838 0.0
C801 C 0.25 0.08414 0.17027 0.0
C802 C 0.27396 0.10163 0.23646 0.0
C803 C 0.29195 0.11696 0.22763 0.0
C804 C 0.31189 0.11739 0.25586 0.0
C805 C 0.31341 0.1019 0.29451 0.0
C806 C 0.29506 0.08625 0.30478 0.0
C807 C 0.27522 0.08597 0.27486 0.0
H808 H 0.2056 0.28613 0.07596 0.0
H809 H 0.20625 0.27088 0.92431 0.0
H810 H 0.18898 0.30907 0.90697 0.0
H811 H 0.15084 0.3222 0.07481 0.0
H812 H 0.16238 0.34247 0.11768 0.0
H813 H 0.17126 0.31241 0.11948 0.0
H814 H 0.21434 0.32515 0.11384 0.0
H815 H 0.20561 0.35517 0.11161 0.0
H816 H 0.22347 0.34337 0.06476 0.0
H817 H 0.17743 0.34999 0.90417 0.0
H818 H 0.17112 0.39164 0.91598 0.0
H819 H 0.17603 0.38158 0.06979 0.0
C820 C 0.20142 0.29066 0.03936 0.0
C821 C 0.20714 0.27558 0.00145 0.0
C822 C 0.20202 0.28224 0.95382 0.0
C823 C 0.19211 0.30384 0.9436 0.0
C824 C 0.18737 0.31868 0.9814 0.0
C825 C 0.19166 0.31245 0.02838 0.0
C826 C 0.18689 0.33271 0.06155 0.0
C827 C 0.16663 0.32711 0.09538 0.0
C828 C 0.20889 0.33949 0.08957 0.0
C829 C 0.18018 0.35139 0.02559 0.0
C830 C 0.18031 0.34274 0.9797 0.0
C831 C 0.17662 0.3569 0.94001 0.0
C832 C 0.17286 0.38064 0.94724 0.0
C833 C 0.17265 0.39015 0.99392 0.0
C834 C 0.17605 0.37508 0.03359 0.0
H835 H 0.18703 0.73212 0.44728 0.0
H836 H 0.1927 0.71033 0.59532 0.0
H837 H 0.15208 0.72249 0.60929 0.0
H838 H 0.15641 0.78326 0.47106 0.0
H839 H 0.13832 0.78224 0.41848 0.0
H840 H 0.16654 0.76879 0.41803 0.0
H841 H 0.14799 0.72957 0.39345 0.0
H842 H 0.11966 0.74294 0.39357 0.0
H843 H 0.12501 0.71735 0.4293 0.0
H844 H 0.11212 0.73903 0.60852 0.0
H845 H 0.07569 0.76043 0.59444 0.0
H846 H 0.09694 0.7743 0.44822 0.0
C847 C 0.17945 0.72936 0.48223 0.0
C848 C 0.19273 0.72002 0.52015 0.0
C849 C 0.18263 0.71734 0.56586 0.0
C850 C 0.15961 0.72411 0.57404 0.0
C851 C 0.14708 0.73374 0.53621 0.0
C852 C 0.15662 0.73646 0.49124 0.0
C853 C 0.14016 0.74935 0.45812 0.0
C854 C 0.15101 0.77227 0.4404 0.0
C855 C 0.13277 0.73387 0.41613 0.0
C856 C 0.12006 0.75375 0.49173 0.0
C857 C 0.1243 0.74429 0.53634 0.0
C858 C 0.10858 0.74653 0.57374 0.0
C859 C 0.08804 0.75895 0.56548 0.0
C860 C 0.08349 0.76932 0.52035 0.0
C861 C 0.09971 0.76641 0.48294 0.0
H862 H 0.77018 0.72012 0.95275 0.0
H863 H 0.81667 0.74026 0.06772 0.0
H864 H 0.82961 0.69953 0.07594 0.0
H865 H 0.75189 0.66741 0.00454 0.0
H866 H 0.75044 0.6516 0.94916 0.0
H867 H 0.74631 0.68262 0.94924 0.0
H868 H 0.77955 0.68741 0.88767 0.0
H869 H 0.78375 0.65636 0.88725 0.0
H870 H 0.80779 0.67534 0.90066 0.0
H871 H 0.83566 0.65648 0.07526 0.0
H872 H 0.83464 0.61388 0.06547 0.0
H873 H 0.78382 0.62149 0.95173 0.0
C874 C 0.78337 0.71606 0.97913 0.0
C875 C 0.79245 0.73343 0.00954 0.0
C876 C 0.80944 0.72728 0.04405 0.0
C877 C 0.81695 0.7042 0.04892 0.0
C878 C 0.80733 0.68746 0.01898 0.0
C879 C 0.79098 0.69308 0.98464 0.0
C880 C 0.78252 0.67159 0.95873 0.0
C881 C 0.75623 0.66811 0.96587 0.0
C882 C 0.78879 0.67275 0.90541 0.0
C883 C 0.79641 0.65296 0.98438 0.0
C884 C 0.81072 0.66253 0.01879 0.0
C885 C 0.82463 0.64879 0.04827 0.0
C886 C 0.8238 0.62461 0.04266 0.0
C887 C 0.8091 0.61436 0.00795 0.0
C888 C 0.79543 0.62882 0.97816 0.0
H889 H 0.80937 0.25968 0.56231 0.0
H890 H 0.79822 0.27026 0.41027 0.0
H891 H 0.83746 0.25555 0.39374 0.0
H892 H 0.87049 0.27538 0.56407 0.0
H893 H 0.8785 0.25318 0.60664 0.0
H894 H 0.84963 0.26531 0.60743 0.0
H895 H 0.83214 0.22402 0.59918 0.0
H896 H 0.86094 0.21177 0.59835 0.0
H897 H 0.84103 0.20587 0.55013 0.0
H898 H 0.87747 0.24041 0.39274 0.0
H899 H 0.91625 0.22401 0.40702 0.0
H900 H 0.90167 0.22041 0.55923 0.0
C901 C 0.8153 0.25897 0.52566 0.0
C902 C 0.80073 0.26605 0.48756 0.0
C903 C 0.80899 0.26473 0.43999 0.0
C904 C 0.83131 0.2565 0.43019 0.0
C905 C 0.84516 0.24944 0.46828 0.0
C906 C 0.83756 0.25042 0.51505 0.0
C907 C 0.85594 0.24096 0.54891 0.0
C908 C 0.86412 0.25984 0.58382 0.0
C909 C 0.84697 0.21937 0.57572 0.0
C910 C 0.87495 0.23463 0.51372 0.0
C911 C 0.86831 0.23985 0.46751 0.0
C912 C 0.88284 0.23598 0.42871 0.0
C913 C 0.9048 0.22641 0.43723 0.0
C914 C 0.91204 0.22049 0.48419 0.0
C915 C 0.89681 0.22478 0.52292 0.0
H916 H 0.72521 0.22011 0.5483 0.0
H917 H 0.68397 0.24446 0.42808 0.0
H918 H 0.66711 0.20515 0.41953 0.0
H919 H 0.73987 0.16648 0.49906 0.0
H920 H 0.73873 0.15056 0.55461 0.0
H921 H 0.74538 0.18111 0.55476 0.0
H922 H 0.71123 0.18855 0.61297 0.0
H923 H 0.70446 0.15796 0.61307 0.0
H924 H 0.68242 0.1789 0.59725 0.0
H925 H 0.65694 0.1625 0.42064 0.0
H926 H 0.65491 0.11984 0.42995 0.0
H927 H 0.70398 0.12345 0.54763 0.0
C928 C 0.71228 0.21735 0.52074 0.0
C929 C 0.70581 0.23542 0.489 0.0
C930 C 0.68916 0.23091 0.45288 0.0
C931 C 0.67944 0.20866 0.44785 0.0
C932 C 0.68655 0.19114 0.47921 0.0
C933 C 0.70258 0.19526 0.51498 0.0
C934 C 0.70864 0.17314 0.54176 0.0
C935 C 0.73469 0.1675 0.53724 0.0
C936 C 0.70124 0.17474 0.59438 0.0
C937 C 0.69386 0.1558 0.51487 0.0
C938 C 0.68103 0.16655 0.4793 0.0
C939 C 0.66681 0.15393 0.44855 0.0
C940 C 0.6659 0.12968 0.45393 0.0
C941 C 0.6793 0.11824 0.48951 0.0
C942 C 0.69319 0.13164 0.52068 0.0
H943 H 0.31614 0.22448 0.95713 0.0
H944 H 0.29317 0.25768 0.088 0.0
H945 H 0.33251 0.27315 0.1006 0.0
H946 H 0.3726 0.20777 0.00078 0.0
H947 H 0.38718 0.21327 0.94493 0.0
H948 H 0.35698 0.20504 0.94519 0.0
H949 H 0.34669 0.24207 0.89663 0.0
H950 H 0.37685 0.25046 0.89628 0.0
H951 H 0.35521 0.27015 0.91904 0.0
H952 H 0.37379 0.28515 0.09964 0.0
H953 H 0.41542 0.29231 0.08617 0.0
H954 H 0.41266 0.25081 0.95703 0.0
C955 C 0.31937 0.23507 0.98833 0.0
C956 C 0.30148 0.23992 0.02145 0.0
C957 C 0.30651 0.25371 0.06203 0.0
C958 C 0.32882 0.26264 0.06953 0.0
C959 C 0.34599 0.25758 0.03626 0.0
C960 C 0.34165 0.24409 0.99654 0.0
C961 C 0.36348 0.24101 0.96691 0.0
C962 C 0.37047 0.21524 0.96432 0.0
C963 C 0.36036 0.25156 0.91674 0.0
C964 C 0.38071 0.2549 0.99631 0.0
C965 C 0.37015 0.26432 0.03606 0.0
C966 C 0.38232 0.27778 0.0688 0.0
C967 C 0.40601 0.28161 0.06098 0.0
C968 C 0.41739 0.27192 0.02085 0.0
C969 C 0.40444 0.25853 0.9879 0.0
H970 H 0.26911 0.78432 0.57489 0.0
H971 H 0.28604 0.7678 0.42806 0.0
H972 H 0.29708 0.80861 0.41335 0.0
H973 H 0.24176 0.83748 0.5475 0.0
H974 H 0.2516 0.85269 0.59994 0.0
H975 H 0.24822 0.82159 0.60157 0.0
H976 H 0.29106 0.81701 0.62863 0.0
H977 H 0.29455 0.84815 0.62725 0.0
H978 H 0.31388 0.82992 0.59334 0.0
H979 H 0.30408 0.85094 0.41261 0.0
H980 H 0.30489 0.89327 0.42441 0.0
H981 H 0.28042 0.88376 0.56996 0.0
C982 C 0.27571 0.78931 0.54012 0.0
C983 C 0.27715 0.77299 0.50273 0.0
C984 C 0.28508 0.78011 0.45717 0.0
C985 C 0.29143 0.8032 0.44853 0.0
C986 C 0.28942 0.81904 0.48569 0.0
C987 C 0.28164 0.81254 0.53053 0.0
C988 C 0.27899 0.8336 0.56255 0.0
C989 C 0.25364 0.83651 0.57883 0.0
C990 C 0.29562 0.83207 0.60548 0.0
C991 C 0.28614 0.85287 0.52839 0.0
C992 C 0.29242 0.84395 0.48456 0.0
C993 C 0.29919 0.85818 0.44676 0.0
C994 C 0.29935 0.88225 0.45371 0.0
C995 C 0.29245 0.89197 0.49792 0.0
C996 C 0.28601 0.87695 0.53588 0.0
H997 H 0.68771 0.78587 0.95327 0.0
H998 H 0.71433 0.75125 0.08043 0.0
H999 H 0.67653 0.73248 0.09259 0.0
H1000 H 0.63076 0.79716 0.00036 0.0
H1001 H 0.61587 0.79202 0.9447 0.0
H1002 H 0.6454 0.80239 0.94445 0.0
H1003 H 0.65761 0.76741 0.89218 0.0
H1004 H 0.62812 0.75687 0.89242 0.0
H1005 H 0.65142 0.73827 0.91244 0.0
H1006 H 0.63647 0.71749 0.09219 0.0
H1007 H 0.59507 0.70823 0.08078 0.0
H1008 H 0.59313 0.75297 0.95545 0.0
C1009 C 0.68558 0.77428 0.98352 0.0
C1010 C 0.70406 0.77003 0.01578 0.0
C1011 C 0.7005 0.75487 0.05518 0.0
C1012 C 0.67908 0.74401 0.0624 0.0
C1013 C 0.66129 0.74851 0.03007 0.0
C1014 C 0.66415 0.76332 0.99155 0.0
C1015 C 0.64176 0.76554 0.96319 0.0
C1016 C 0.63293 0.79078 0.9632 0.0
C1017 C 0.64493 0.75648 0.91202 0.0
C1018 C 0.62597 0.74973 0.99206 0.0
C1019 C 0.63773 0.74002 0.03028 0.0
C1020 C 0.62699 0.72503 0.0625 0.0
C1021 C 0.60345 0.71999 0.05588 0.0
C1022 C 0.59083 0.73003 0.0175 0.0
C1023 C 0.60237 0.7449 0.98489 0.0
loop_
_geom_bond_atom_site_label_1
_geom_bond_atom_site_label_2
_geom_bond_distance
_geom_bond_site_symmetry_2
_ccdc_geom_bond_type
Fe0 O2 1.918 . S
Fe0 O5 1.997 . S
Fe0 O6 2.002 . S
Fe0 O11 1.976 . S
Fe0 O14 1.996 . S
Fe1 O2 1.918 1_556 S
Fe1 O9 1.997 . S
Fe1 O12 1.996 . S
Fe1 O16 1.976 . S
Fe1 O19 2.002 . S
O2 Fe0 1.918 . S
O2 Fe1 1.918 1_554 S
O2 Fe3 1.918 . S
Fe3 O2 1.918 . S
Fe3 O4 2.017 . S
Fe3 O13 1.991 . S
Fe3 O17 1.981 1_554 S
Fe3 O20 1.982 1_554 S
O4 Fe3 2.017 . S
O4 C21 1.295 . S
O5 Fe0 1.997 . S
O5 C21 1.235 . S
O6 Fe0 2.002 . S
O6 C7 1.295 . S
C7 O6 1.295 . S
C7 O9 1.235 1_554 S
C8 O13 1.287 . S
C8 O14 1.255 . S
O9 Fe1 1.997 . S
O9 C7 1.235 1_556 S
C10 O16 1.287 . S
C10 O17 1.255 . S
O11 Fe0 1.976 . S
O11 C18 1.286 1_554 S
O12 Fe1 1.996 . S
O12 C18 1.255 . S
O13 Fe3 1.991 . S
O13 C8 1.287 . S
O14 Fe0 1.996 . S
O14 C8 1.255 . S
C15 O19 1.295 . S
C15 O20 1.235 . S
O16 Fe1 1.976 . S
O16 C10 1.287 . S
O17 Fe3 1.981 1_556 S
O17 C10 1.255 . S
C18 O11 1.286 1_556 S
C18 O12 1.255 . S
O19 Fe1 2.002 . S
O19 C15 1.295 . S
O20 Fe3 1.982 1_556 S
O20 C15 1.235 . S
C21 O4 1.295 . S
C21 O5 1.235 . S
Fe22 O24 1.918 . S
Fe22 O27 1.997 . S
Fe22 O28 2.002 . S
Fe22 O33 1.976 . S
Fe22 O36 1.996 . S
Fe23 O24 1.918 . S
Fe23 O31 1.997 . S
Fe23 O34 1.996 . S
Fe23 O38 1.976 . S
Fe23 O41 2.002 . S
O24 Fe22 1.918 . S
O24 Fe23 1.918 . S
O24 Fe25 1.918 . S
Fe25 O24 1.918 . S
Fe25 O26 2.002 . S
Fe25 O35 1.976 . S
Fe25 O39 1.996 . S
Fe25 O42 1.997 . S
O26 Fe25 2.002 . S
O26 C43 1.295 . S
O27 Fe22 1.997 . S
O27 C43 1.235 . S
O28 Fe22 2.002 . S
O28 C29 1.295 . S
C29 O28 1.295 . S
C29 O31 1.235 . S
C30 O35 1.287 . S
C30 O36 1.255 . S
O31 Fe23 1.997 . S
O31 C29 1.235 . S
C32 O38 1.287 . S
C32 O39 1.255 . S
O33 Fe22 1.976 . S
O33 C40 1.287 . S
O34 Fe23 1.996 . S
O34 C40 1.255 . S
O35 Fe25 1.976 . S
O35 C30 1.287 . S
O36 Fe22 1.996 . S
O36 C30 1.255 . S
C37 O41 1.295 . S
C37 O42 1.235 . S
O38 Fe23 1.976 . S
O38 C32 1.287 . S
O39 Fe25 1.996 . S
O39 C32 1.255 . S
C40 O33 1.287 . S
C40 O34 1.255 . S
O41 Fe23 2.002 . S
O41 C37 1.295 . S
O42 Fe25 1.997 . S
O42 C37 1.235 . S
C43 O26 1.295 . S
C43 O27 1.235 . S
Fe44 O46 1.901 1_556 S
Fe44 O49 1.997 . S
Fe44 O50 2.002 . S
Fe44 O55 1.976 . S
Fe44 O58 1.996 . S
Fe45 O46 1.936 . S
Fe45 O53 1.997 . S
Fe45 O56 1.996 . S
Fe45 O60 1.976 . S
Fe45 O63 2.002 . S
O46 Fe44 1.901 1_554 S
O46 Fe45 1.936 . S
O46 Fe47 1.918 . S
Fe47 O46 1.918 . S
Fe47 O48 2.002 1_554 S
Fe47 O57 1.976 1_554 S
Fe47 O61 1.996 . S
Fe47 O64 1.997 . S
O48 Fe47 2.002 1_556 S
O48 C65 1.295 . S
O49 Fe44 1.997 . S
O49 C65 1.235 . S
O50 Fe44 2.002 . S
O50 C51 1.304 . S
C51 O50 1.304 . S
C51 O53 1.227 1_556 S
C52 O57 1.287 . S
C52 O58 1.255 . S
O53 Fe45 1.997 . S
O53 C51 1.227 1_554 S
C54 O60 1.287 . S
C54 O61 1.255 . S
O55 Fe44 1.976 . S
O55 C62 1.287 1_556 S
O56 Fe45 1.996 . S
O56 C62 1.255 . S
O57 Fe47 1.976 1_556 S
O57 C52 1.287 . S
O58 Fe44 1.996 . S
O58 C52 1.255 . S
C59 O63 1.295 . S
C59 O64 1.235 . S
O60 Fe45 1.976 . S
O60 C54 1.287 . S
O61 Fe47 1.996 . S
O61 C54 1.255 . S
C62 O55 1.287 1_554 S
C62 O56 1.255 . S
O63 Fe45 2.002 . S
O63 C59 1.295 . S
O64 Fe47 1.997 . S
O64 C59 1.235 . S
C65 O48 1.295 . S
C65 O49 1.235 . S
Fe66 O68 1.918 . S
Fe66 O71 1.997 . S
Fe66 O72 2.002 . S
Fe66 O77 1.976 . S
Fe66 O80 1.996 . S
Fe67 O68 1.918 . S
Fe67 O75 1.997 . S
Fe67 O78 1.996 . S
Fe67 O82 1.976 . S
Fe67 O85 2.002 . S
O68 Fe66 1.918 . S
O68 Fe67 1.918 . S
O68 Fe69 1.918 . S
Fe69 O68 1.918 . S
Fe69 O70 2.002 . S
Fe69 O79 1.976 . S
Fe69 O83 1.996 . S
Fe69 O86 1.997 . S
O70 Fe69 2.002 . S
O70 C87 1.295 . S
O71 Fe66 1.997 . S
O71 C87 1.235 . S
O72 Fe66 2.002 . S
O72 C73 1.295 . S
C73 O72 1.295 . S
C73 O75 1.235 . S
C74 O79 1.287 . S
C74 O80 1.255 . S
O75 Fe67 1.997 . S
O75 C73 1.235 . S
C76 O82 1.287 . S
C76 O83 1.255 . S
O77 Fe66 1.976 . S
O77 C84 1.287 . S
O78 Fe67 1.996 . S
O78 C84 1.255 . S
O79 Fe69 1.976 . S
O79 C74 1.287 . S
O80 Fe66 1.996 . S
O80 C74 1.255 . S
C81 O85 1.295 . S
C81 O86 1.235 . S
O82 Fe67 1.976 . S
O82 C76 1.287 . S
O83 Fe69 1.996 . S
O83 C76 1.255 . S
C84 O77 1.287 . S
C84 O78 1.255 . S
O85 Fe67 2.002 . S
O85 C81 1.295 . S
O86 Fe69 1.997 . S
O86 C81 1.235 . S
C87 O70 1.295 . S
C87 O71 1.235 . S
C88 C89 1.384 . S
C88 H101 0.947 . S
C88 C123 1.382 . S
C89 C88 1.384 . S
C89 C90 1.378 . S
C90 C89 1.378 . S
C90 C91 1.378 . S
C90 H102 0.952 . S
C91 C90 1.378 . S
C91 H103 0.950 . S
C91 C122 1.383 . S
H92 C111 0.947 . S
H93 C112 0.946 . S
H94 C114 0.953 . S
H95 C115 0.945 . S
H96 C117 0.952 . S
H97 C118 0.949 . S
H98 C120 0.950 . S
H99 C121 0.948 . S
H100 C123 0.951 . S
H101 C88 0.947 . S
H102 C90 0.952 . S
H103 C91 0.950 . S
N104 C107 1.372 1_554 S
N104 C109 1.363 . S
N105 C107 1.381 . S
N105 C108 1.372 . S
N106 C108 1.361 . S
N106 C109 1.377 1_556 S
C107 N104 1.372 1_556 S
C107 N105 1.381 . S
C107 C110 1.480 . S
C108 N105 1.372 . S
C108 N106 1.361 . S
C108 C116 1.457 . S
C109 N104 1.363 . S
C109 N106 1.377 1_554 S
C109 C122 1.479 . S
C110 C107 1.480 . S
C110 C111 1.383 1_556 S
C110 C115 1.385 . S
C111 H92 0.947 . S
C111 C110 1.383 1_554 S
C111 C112 1.388 . S
C112 H93 0.946 . S
C112 C111 1.388 . S
C112 C113 1.384 1_554 S
C113 C112 1.384 1_556 S
C113 C114 1.377 . S
C114 H94 0.953 . S
C114 C113 1.377 . S
C114 C115 1.369 . S
C115 H95 0.945 . S
C115 C110 1.385 . S
C115 C114 1.369 . S
C116 C108 1.457 . S
C116 C117 1.372 . S
C116 C121 1.364 . S
C117 H96 0.952 . S
C117 C116 1.372 . S
C117 C118 1.389 . S
C118 H97 0.949 . S
C118 C117 1.389 . S
C118 C119 1.387 . S
C119 C118 1.387 . S
C119 C120 1.372 . S
C120 H98 0.950 . S
C120 C119 1.372 . S
C120 C121 1.379 . S
C121 H99 0.948 . S
C121 C116 1.364 . S
C121 C120 1.379 . S
C122 C91 1.383 . S
C122 C109 1.479 . S
C122 C123 1.398 . S
C123 C88 1.382 . S
C123 H100 0.951 . S
C123 C122 1.398 . S
C124 C125 1.384 . S
C124 H137 0.947 . S
C124 C159 1.382 . S
C125 C124 1.384 . S
C125 C126 1.378 . S
C126 C125 1.378 . S
C126 C127 1.378 . S
C126 H138 0.952 . S
C127 C126 1.378 . S
C127 H139 0.950 . S
C127 C158 1.383 . S
H128 C147 0.947 . S
H129 C148 0.946 . S
H130 C150 0.953 . S
H131 C151 0.945 . S
H132 C153 0.952 . S
H133 C154 0.949 . S
H134 C156 0.950 . S
H135 C157 0.948 . S
H136 C159 0.951 . S
H137 C124 0.947 . S
H138 C126 0.952 . S
H139 C127 0.950 . S
N140 C143 1.382 1_655 S
N140 C145 1.363 . S
N141 C143 1.371 1_655 S
N141 C144 1.372 . S
N142 C144 1.361 . S
N142 C145 1.377 . S
C143 N140 1.382 1_455 S
C143 N141 1.371 1_455 S
C143 C146 1.480 . S
C144 N141 1.372 . S
C144 N142 1.361 . S
C144 C152 1.457 . S
C145 N140 1.363 . S
C145 N142 1.377 . S
C145 C158 1.479 . S
C146 C143 1.480 . S
C146 C147 1.383 . S
C146 C151 1.385 . S
C147 H128 0.947 . S
C147 C146 1.383 . S
C147 C148 1.388 . S
C148 H129 0.946 . S
C148 C147 1.388 . S
C148 C149 1.384 . S
C149 C148 1.384 . S
C149 C150 1.377 . S
C150 H130 0.953 . S
C150 C149 1.377 . S
C150 C151 1.369 . S
C151 H131 0.945 . S
C151 C146 1.385 . S
C151 C150 1.369 . S
C152 C144 1.457 . S
C152 C153 1.372 . S
C152 C157 1.364 . S
C153 H132 0.952 . S
C153 C152 1.372 . S
C153 C154 1.389 . S
C154 H133 0.949 . S
C154 C153 1.389 . S
C154 C155 1.387 . S
C155 C154 1.387 . S
C155 C156 1.372 . S
C156 H134 0.950 . S
C156 C155 1.372 . S
C156 C157 1.379 . S
C157 H135 0.948 . S
C157 C152 1.364 . S
C157 C156 1.379 . S
C158 C127 1.383 . S
C158 C145 1.479 . S
C158 C159 1.398 . S
C159 C124 1.382 . S
C159 H136 0.951 . S
C159 C158 1.398 . S
C160 C161 1.384 . S
C160 H173 0.947 . S
C160 C195 1.382 . S
C161 C160 1.384 . S
C161 C162 1.378 . S
C162 C161 1.378 . S
C162 C163 1.378 . S
C162 H174 0.952 . S
C163 C162 1.378 . S
C163 H175 0.950 . S
C163 C194 1.383 . S
H164 C183 0.947 . S
H165 C184 0.946 . S
H166 C186 0.953 . S
H167 C187 0.945 . S
H168 C189 0.952 . S
H169 C190 0.949 . S
H170 C192 0.950 . S
H171 C193 0.948 . S
H172 C195 0.951 . S
H173 C160 0.947 . S
H174 C162 0.952 . S
H175 C163 0.950 . S
N176 C179 1.382 1_556 S
N176 C181 1.363 . S
N177 C179 1.371 . S
N177 C180 1.372 . S
N178 C180 1.361 . S
N178 C181 1.377 1_554 S
C179 N176 1.382 1_554 S
C179 N177 1.371 . S
C179 C182 1.480 . S
C180 N177 1.372 . S
C180 N178 1.361 . S
C180 C188 1.457 . S
C181 N176 1.363 . S
C181 N178 1.377 1_556 S
C181 C194 1.479 . S
C182 C179 1.480 . S
C182 C183 1.383 1_554 S
C182 C187 1.385 . S
C183 H164 0.947 . S
C183 C182 1.383 1_556 S
C183 C184 1.388 . S
C184 H165 0.946 . S
C184 C183 1.388 . S
C184 C185 1.384 1_556 S
C185 C184 1.384 1_554 S
C185 C186 1.377 . S
C186 H166 0.953 . S
C186 C185 1.377 . S
C186 C187 1.369 . S
C187 H167 0.945 . S
C187 C182 1.385 . S
C187 C186 1.369 . S
C188 C180 1.457 . S
C188 C189 1.372 . S
C188 C193 1.364 . S
C189 H168 0.952 . S
C189 C188 1.372 . S
C189 C190 1.389 . S
C190 H169 0.949 . S
C190 C189 1.389 . S
C190 C191 1.387 . S
C191 C190 1.387 . S
C191 C192 1.372 . S
C192 H170 0.950 . S
C192 C191 1.372 . S
C192 C193 1.379 . S
C193 H171 0.948 . S
C193 C188 1.364 . S
C193 C192 1.379 . S
C194 C163 1.383 . S
C194 C181 1.479 . S
C194 C195 1.398 . S
C195 C160 1.382 . S
C195 H172 0.951 . S
C195 C194 1.398 . S
C196 C197 1.384 . S
C196 H209 0.947 . S
C196 C231 1.382 . S
C197 C196 1.384 . S
C197 C198 1.378 . S
C198 C197 1.378 . S
C198 C199 1.378 . S
C198 H210 0.952 . S
C199 C198 1.378 . S
C199 H211 0.950 . S
C199 C230 1.383 . S
H200 C219 0.947 . S
H201 C220 0.946 . S
H202 C222 0.953 . S
H203 C223 0.945 . S
H204 C225 0.952 . S
H205 C226 0.949 . S
H206 C228 0.950 . S
H207 C229 0.948 . S
H208 C231 0.951 . S
H209 C196 0.947 . S
H210 C198 0.952 . S
H211 C199 0.950 . S
N212 C215 1.382 1_455 S
N212 C217 1.363 . S
N213 C215 1.371 1_455 S
N213 C216 1.372 . S
N214 C216 1.361 . S
N214 C217 1.377 . S
C215 N212 1.382 1_655 S
C215 N213 1.371 1_655 S
C215 C218 1.480 . S
C216 N213 1.372 . S
C216 N214 1.361 . S
C216 C224 1.457 . S
C217 N212 1.363 . S
C217 N214 1.377 . S
C217 C230 1.479 . S
C218 C215 1.480 . S
C218 C219 1.383 . S
C218 C223 1.385 . S
C219 H200 0.947 . S
C219 C218 1.383 . S
C219 C220 1.388 . S
C220 H201 0.946 . S
C220 C219 1.388 . S
C220 C221 1.384 . S
C221 C220 1.384 . S
C221 C222 1.377 . S
C222 H202 0.953 . S
C222 C221 1.377 . S
C222 C223 1.369 . S
C223 H203 0.945 . S
C223 C218 1.385 . S
C223 C222 1.369 . S
C224 C216 1.457 . S
C224 C225 1.372 . S
C224 C229 1.364 . S
C225 H204 0.952 . S
C225 C224 1.372 . S
C225 C226 1.389 . S
C226 H205 0.949 . S
C226 C225 1.389 . S
C226 C227 1.387 . S
C227 C226 1.387 . S
C227 C228 1.372 . S
C228 H206 0.950 . S
C228 C227 1.372 . S
C228 C229 1.379 . S
C229 H207 0.948 . S
C229 C224 1.364 . S
C229 C228 1.379 . S
C230 C199 1.383 . S
C230 C217 1.479 . S
C230 C231 1.398 . S
C231 C196 1.382 . S
C231 H208 0.951 . S
C231 C230 1.398 . S
C232 C233 1.384 . S
C232 H245 0.947 . S
C232 C267 1.382 . S
C233 C232 1.384 . S
C233 C234 1.378 . S
C234 C233 1.378 . S
C234 C235 1.378 . S
C234 H246 0.952 . S
C235 C234 1.378 . S
C235 H247 0.950 . S
C235 C266 1.383 . S
H236 C255 0.947 . S
H237 C256 0.946 . S
H238 C258 0.953 . S
H239 C259 0.945 . S
H240 C261 0.952 . S
H241 C262 0.949 . S
H242 C264 0.950 . S
H243 C265 0.948 . S
H244 C267 0.951 . S
H245 C232 0.947 . S
H246 C234 0.952 . S
H247 C235 0.950 . S
N248 C251 1.382 . S
N248 C253 1.363 1_545 S
N249 C251 1.371 . S
N249 C252 1.372 1_545 S
N250 C252 1.361 . S
N250 C253 1.377 . S
C251 N248 1.382 . S
C251 N249 1.371 . S
C251 C254 1.480 . S
C252 N249 1.372 1_565 S
C252 N250 1.361 . S
C252 C260 1.457 . S
C253 N248 1.363 1_565 S
C253 N250 1.377 . S
C253 C266 1.479 . S
C254 C251 1.480 . S
C254 C255 1.383 . S
C254 C259 1.385 . S
C255 H236 0.947 . S
C255 C254 1.383 . S
C255 C256 1.388 . S
C256 H237 0.946 . S
C256 C255 1.388 . S
C256 C257 1.384 . S
C257 C256 1.384 . S
C257 C258 1.377 . S
C258 H238 0.953 . S
C258 C257 1.377 . S
C258 C259 1.369 . S
C259 H239 0.945 . S
C259 C254 1.385 . S
C259 C258 1.369 . S
C260 C252 1.457 . S
C260 C261 1.372 . S
C260 C265 1.364 . S
C261 H240 0.952 . S
C261 C260 1.372 . S
C261 C262 1.389 . S
C262 H241 0.949 . S
C262 C261 1.389 . S
C262 C263 1.387 . S
C263 C262 1.387 . S
C263 C264 1.372 . S
C264 H242 0.950 . S
C264 C263 1.372 . S
C264 C265 1.379 . S
C265 H243 0.948 . S
C265 C260 1.364 . S
C265 C264 1.379 . S
C266 C235 1.383 . S
C266 C253 1.479 . S
C266 C267 1.398 . S
C267 C232 1.382 . S
C267 H244 0.951 . S
C267 C266 1.398 . S
C268 C269 1.384 . S
C268 H281 0.947 . S
C268 C303 1.382 . S
C269 C268 1.384 . S
C269 C270 1.378 . S
C270 C269 1.378 . S
C270 C271 1.378 . S
C270 H282 0.952 . S
C271 C270 1.378 . S
C271 H283 0.950 . S
C271 C302 1.383 . S
H272 C291 0.947 . S
H273 C292 0.946 . S
H274 C294 0.953 . S
H275 C295 0.945 . S
H276 C297 0.952 . S
H277 C298 0.949 . S
H278 C300 0.950 . S
H279 C301 0.948 . S
H280 C303 0.951 . S
H281 C268 0.947 . S
H282 C270 0.952 . S
H283 C271 0.950 . S
N284 C287 1.382 1_556 S
N284 C289 1.363 . S
N285 C287 1.371 . S
N285 C288 1.372 . S
N286 C288 1.361 . S
N286 C289 1.377 1_554 S
C287 N284 1.382 1_554 S
C287 N285 1.371 . S
C287 C290 1.480 . S
C288 N285 1.372 . S
C288 N286 1.361 . S
C288 C296 1.457 . S
C289 N284 1.363 . S
C289 N286 1.377 1_556 S
C289 C302 1.479 . S
C290 C287 1.480 . S
C290 C291 1.383 1_554 S
C290 C295 1.385 . S
C291 H272 0.947 . S
C291 C290 1.383 1_556 S
C291 C292 1.388 . S
C292 H273 0.946 . S
C292 C291 1.388 . S
C292 C293 1.384 1_556 S
C293 C292 1.384 1_554 S
C293 C294 1.377 . S
C294 H274 0.953 . S
C294 C293 1.377 . S
C294 C295 1.369 . S
C295 H275 0.945 . S
C295 C290 1.385 . S
C295 C294 1.369 . S
C296 C288 1.457 . S
C296 C297 1.372 . S
C296 C301 1.364 . S
C297 H276 0.952 . S
C297 C296 1.372 . S
C297 C298 1.389 . S
C298 H277 0.949 . S
C298 C297 1.389 . S
C298 C299 1.387 . S
C299 C298 1.387 . S
C299 C300 1.372 . S
C300 H278 0.950 . S
C300 C299 1.372 . S
C300 C301 1.379 . S
C301 H279 0.948 . S
C301 C296 1.364 . S
C301 C300 1.379 . S
C302 C271 1.383 . S
C302 C289 1.479 . S
C302 C303 1.398 . S
C303 C268 1.382 . S
C303 H280 0.951 . S
C303 C302 1.398 . S
C304 C305 1.384 . S
C304 H317 0.947 . S
C304 C339 1.382 . S
C305 C304 1.384 . S
C305 C306 1.378 . S
C306 C305 1.378 . S
C306 C307 1.378 . S
C306 H318 0.952 . S
C307 C306 1.378 . S
C307 H319 0.950 . S
C307 C338 1.383 . S
H308 C327 0.947 . S
H309 C328 0.946 . S
H310 C330 0.953 . S
H311 C331 0.945 . S
H312 C333 0.952 . S
H313 C334 0.949 . S
H314 C336 0.950 . S
H315 C337 0.948 . S
H316 C339 0.951 . S
H317 C304 0.947 . S
H318 C306 0.952 . S
H319 C307 0.950 . S
N320 C323 1.358 1_545 S
N320 C325 1.413 . S
N321 C323 1.373 1_545 S
N321 C324 1.367 . S
N322 C324 1.361 . S
N322 C325 1.377 . S
C323 N320 1.358 1_565 S
C323 N321 1.373 1_565 S
C323 C326 1.480 . S
C324 N321 1.367 . S
C324 N322 1.361 . S
C324 C332 1.457 . S
C325 N320 1.413 . S
C325 N322 1.377 . S
C325 C338 1.479 . S
C326 C323 1.480 . S
C326 C327 1.383 . S
C326 C331 1.385 . S
C327 H308 0.947 . S
C327 C326 1.383 . S
C327 C328 1.388 . S
C328 H309 0.946 . S
C328 C327 1.388 . S
C328 C329 1.384 . S
C329 C328 1.384 . S
C329 C330 1.377 . S
C330 H310 0.953 . S
C330 C329 1.377 . S
C330 C331 1.369 . S
C331 H311 0.945 . S
C331 C326 1.385 . S
C331 C330 1.369 . S
C332 C324 1.457 . S
C332 C333 1.372 . S
C332 C337 1.364 . S
C333 H312 0.952 . S
C333 C332 1.372 . S
C333 C334 1.389 . S
C334 H313 0.949 . S
C334 C333 1.389 . S
C334 C335 1.387 . S
C335 C334 1.387 . S
C335 C336 1.372 . S
C336 H314 0.950 . S
C336 C335 1.372 . S
C336 C337 1.379 . S
C337 H315 0.948 . S
C337 C332 1.364 . S
C337 C336 1.379 . S
C338 C307 1.383 . S
C338 C325 1.479 . S
C338 C339 1.398 . S
C339 C304 1.382 . S
C339 H316 0.951 . S
C339 C338 1.398 . S
C340 C341 1.384 . S
C340 H353 0.947 . S
C340 C375 1.382 . S
C341 C340 1.384 . S
C341 C342 1.378 . S
C342 C341 1.378 . S
C342 C343 1.378 . S
C342 H354 0.952 . S
C343 C342 1.378 . S
C343 H355 0.950 . S
C343 C374 1.383 . S
H344 C363 0.947 . S
H345 C364 0.946 . S
H346 C366 0.953 . S
H347 C367 0.945 . S
H348 C369 0.952 . S
H349 C370 0.949 . S
H350 C372 0.950 . S
H351 C373 0.948 . S
H352 C375 0.951 . S
H353 C340 0.947 . S
H354 C342 0.952 . S
H355 C343 0.950 . S
N356 C359 1.388 . S
N356 C361 1.363 . S
N357 C359 1.365 1_556 S
N357 C360 1.372 . S
N358 C360 1.361 . S
N358 C361 1.377 1_556 S
C359 N356 1.388 . S
C359 N357 1.365 1_554 S
C359 C362 1.479 1_554 S
C360 N357 1.372 . S
C360 N358 1.361 . S
C360 C368 1.457 . S
C361 N356 1.363 . S
C361 N358 1.377 1_554 S
C361 C374 1.479 . S
C362 C359 1.479 1_556 S
C362 C363 1.365 1_556 S
C362 C367 1.402 . S
C363 H344 0.947 . S
C363 C362 1.365 1_554 S
C363 C364 1.388 . S
C364 H345 0.946 . S
C364 C363 1.388 . S
C364 C365 1.370 1_554 S
C365 C364 1.370 1_556 S
C365 C366 1.391 . S
C366 H346 0.953 . S
C366 C365 1.391 . S
C366 C367 1.369 . S
C367 H347 0.945 . S
C367 C362 1.402 . S
C367 C366 1.369 . S
C368 C360 1.457 . S
C368 C369 1.372 . S
C368 C373 1.364 . S
C369 H348 0.952 . S
C369 C368 1.372 . S
C369 C370 1.389 . S
C370 H349 0.949 . S
C370 C369 1.389 . S
C370 C371 1.387 . S
C371 C370 1.387 . S
C371 C372 1.372 . S
C372 H350 0.950 . S
C372 C371 1.372 . S
C372 C373 1.379 . S
C373 H351 0.948 . S
C373 C368 1.364 . S
C373 C372 1.379 . S
C374 C343 1.383 . S
C374 C361 1.479 . S
C374 C375 1.398 . S
C375 C340 1.382 . S
C375 H352 0.951 . S
C375 C374 1.398 . S
H376 C388 0.930 . S
H377 C390 0.930 . S
H378 C391 0.930 . S
H379 C395 0.959 . S
H380 C395 0.959 . S
H381 C395 0.961 . S
H382 C396 0.960 . S
H383 C396 0.961 . S
H384 C396 0.959 . S
H385 C399 0.929 . S
H386 C400 0.931 . S
H387 C402 0.930 . S
C388 H376 0.930 . S
C388 C389 1.399 . S
C388 C393 1.399 . S
C389 C388 1.399 . S
C389 C390 1.376 . S
C390 H377 0.930 . S
C390 C389 1.376 . S
C390 C391 1.388 . S
C391 H378 0.930 . S
C391 C390 1.388 . S
C391 C392 1.390 . S
C392 C391 1.390 . S
C392 C393 1.394 . S
C392 C398 1.465 . S
C393 C388 1.399 . S
C393 C392 1.394 . S
C393 C394 1.516 . S
C394 C393 1.516 . S
C394 C395 1.502 . S
C394 C396 1.561 . S
C394 C397 1.526 . S
C395 H379 0.959 . S
C395 H380 0.959 . S
C395 H381 0.961 . S
C395 C394 1.502 . S
C396 H382 0.960 . S
C396 H383 0.961 . S
C396 H384 0.959 . S
C396 C394 1.561 . S
C397 C394 1.526 . S
C397 C398 1.396 . S
C397 C402 1.390 . S
C398 C392 1.465 . S
C398 C397 1.396 . S
C398 C399 1.399 . S
C399 H385 0.929 . S
C399 C398 1.399 . S
C399 C400 1.385 . S
C400 H386 0.931 . S
C400 C399 1.385 . S
C400 C401 1.389 . S
C401 C400 1.389 . S
C401 C402 1.387 . S
C402 H387 0.930 . S
C402 C397 1.390 . S
C402 C401 1.387 . S
H403 C415 0.930 . S
H404 C417 0.930 . S
H405 C418 0.930 . S
H406 C422 0.959 . S
H407 C422 0.959 . S
H408 C422 0.961 . S
H409 C423 0.960 . S
H410 C423 0.961 . S
H411 C423 0.959 . S
H412 C426 0.929 . S
H413 C427 0.931 . S
H414 C429 0.930 . S
C415 H403 0.930 . S
C415 C416 1.399 . S
C415 C420 1.399 . S
C416 C415 1.399 . S
C416 C417 1.376 . S
C417 H404 0.930 . S
C417 C416 1.376 . S
C417 C418 1.388 . S
C418 H405 0.930 . S
C418 C417 1.388 . S
C418 C419 1.390 . S
C419 C418 1.390 . S
C419 C420 1.394 . S
C419 C425 1.465 . S
C420 C415 1.399 . S
C420 C419 1.394 . S
C420 C421 1.516 . S
C421 C420 1.516 . S
C421 C422 1.502 . S
C421 C423 1.561 . S
C421 C424 1.526 . S
C422 H406 0.959 . S
C422 H407 0.959 . S
C422 H408 0.961 . S
C422 C421 1.502 . S
C423 H409 0.960 . S
C423 H410 0.961 . S
C423 H411 0.959 . S
C423 C421 1.561 . S
C424 C421 1.526 . S
C424 C425 1.396 . S
C424 C429 1.390 . S
C425 C419 1.465 . S
C425 C424 1.396 . S
C425 C426 1.399 . S
C426 H412 0.929 . S
C426 C425 1.399 . S
C426 C427 1.385 . S
C427 H413 0.931 . S
C427 C426 1.385 . S
C427 C428 1.389 . S
C428 C427 1.389 . S
C428 C429 1.387 . S
C429 H414 0.930 . S
C429 C424 1.390 . S
C429 C428 1.387 . S
H430 C442 0.930 . S
H431 C444 0.930 . S
H432 C445 0.930 . S
H433 C449 0.959 . S
H434 C449 0.959 . S
H435 C449 0.961 . S
H436 C450 0.960 . S
H437 C450 0.961 . S
H438 C450 0.959 . S
H439 C453 0.929 . S
H440 C454 0.931 . S
H441 C456 0.930 . S
C442 H430 0.930 . S
C442 C443 1.399 . S
C442 C447 1.399 . S
C443 C442 1.399 . S
C443 C444 1.376 . S
C444 H431 0.930 . S
C444 C443 1.376 . S
C444 C445 1.388 . S
C445 H432 0.930 . S
C445 C444 1.388 . S
C445 C446 1.390 . S
C446 C445 1.390 . S
C446 C447 1.394 . S
C446 C452 1.465 . S
C447 C442 1.399 . S
C447 C446 1.394 . S
C447 C448 1.516 . S
C448 C447 1.516 . S
C448 C449 1.502 . S
C448 C450 1.561 . S
C448 C451 1.526 . S
C449 H433 0.959 . S
C449 H434 0.959 . S
C449 H435 0.961 . S
C449 C448 1.502 . S
C450 H436 0.960 . S
C450 H437 0.961 . S
C450 H438 0.959 . S
C450 C448 1.561 . S
C451 C448 1.526 . S
C451 C452 1.396 . S
C451 C456 1.390 . S
C452 C446 1.465 . S
C452 C451 1.396 . S
C452 C453 1.399 . S
C453 H439 0.929 . S
C453 C452 1.399 . S
C453 C454 1.385 . S
C454 H440 0.931 . S
C454 C453 1.385 . S
C454 C455 1.389 . S
C455 C454 1.389 . S
C455 C456 1.387 . S
C456 H441 0.930 . S
C456 C451 1.390 . S
C456 C455 1.387 . S
H457 C469 0.930 . S
H458 C471 0.930 . S
H459 C472 0.930 . S
H460 C476 0.959 . S
H461 C476 0.959 . S
H462 C476 0.961 . S
H463 C477 0.960 . S
H464 C477 0.961 . S
H465 C477 0.959 . S
H466 C480 0.929 . S
H467 C481 0.931 . S
H468 C483 0.930 . S
C469 H457 0.930 . S
C469 C470 1.399 . S
C469 C474 1.399 . S
C470 C469 1.399 . S
C470 C471 1.376 . S
C471 H458 0.930 . S
C471 C470 1.376 . S
C471 C472 1.388 . S
C472 H459 0.930 . S
C472 C471 1.388 . S
C472 C473 1.390 . S
C473 C472 1.390 . S
C473 C474 1.394 . S
C473 C479 1.465 . S
C474 C469 1.399 . S
C474 C473 1.394 . S
C474 C475 1.516 . S
C475 C474 1.516 . S
C475 C476 1.502 . S
C475 C477 1.561 . S
C475 C478 1.526 . S
C476 H460 0.959 . S
C476 H461 0.959 . S
C476 H462 0.961 . S
C476 C475 1.502 . S
C477 H463 0.960 . S
C477 H464 0.961 . S
C477 H465 0.959 . S
C477 C475 1.561 . S
C478 C475 1.526 . S
C478 C479 1.396 . S
C478 C483 1.390 . S
C479 C473 1.465 . S
C479 C478 1.396 . S
C479 C480 1.399 . S
C480 H466 0.929 . S
C480 C479 1.399 . S
C480 C481 1.385 . S
C481 H467 0.931 . S
C481 C480 1.385 . S
C481 C482 1.389 . S
C482 C481 1.389 . S
C482 C483 1.387 . S
C483 H468 0.930 . S
C483 C478 1.390 . S
C483 C482 1.387 . S
H484 C496 0.930 . S
H485 C498 0.930 . S
H486 C499 0.930 . S
H487 C503 0.959 . S
H488 C503 0.959 . S
H489 C503 0.961 . S
H490 C504 0.960 . S
H491 C504 0.961 . S
H492 C504 0.959 . S
H493 C507 0.929 . S
H494 C508 0.931 . S
H495 C510 0.930 . S
C496 H484 0.930 . S
C496 C497 1.399 . S
C496 C501 1.399 . S
C497 C496 1.399 . S
C497 C498 1.376 . S
C498 H485 0.930 . S
C498 C497 1.376 . S
C498 C499 1.388 . S
C499 H486 0.930 . S
C499 C498 1.388 . S
C499 C500 1.390 . S
C500 C499 1.390 . S
C500 C501 1.394 . S
C500 C506 1.465 . S
C501 C496 1.399 . S
C501 C500 1.394 . S
C501 C502 1.516 . S
C502 C501 1.516 . S
C502 C503 1.502 . S
C502 C504 1.561 . S
C502 C505 1.526 . S
C503 H487 0.959 . S
C503 H488 0.959 . S
C503 H489 0.961 . S
C503 C502 1.502 . S
C504 H490 0.960 . S
C504 H491 0.961 . S
C504 H492 0.959 . S
C504 C502 1.561 . S
C505 C502 1.526 . S
C505 C506 1.396 . S
C505 C510 1.390 . S
C506 C500 1.465 . S
C506 C505 1.396 . S
C506 C507 1.399 . S
C507 H493 0.929 . S
C507 C506 1.399 . S
C507 C508 1.385 . S
C508 H494 0.931 . S
C508 C507 1.385 . S
C508 C509 1.389 . S
C509 C508 1.389 . S
C509 C510 1.387 . S
C510 H495 0.930 . S
C510 C505 1.390 . S
C510 C509 1.387 . S
H511 C523 0.930 . S
H512 C525 0.930 . S
H513 C526 0.930 . S
H514 C530 0.959 . S
H515 C530 0.959 . S
H516 C530 0.961 . S
H517 C531 0.960 . S
H518 C531 0.961 . S
H519 C531 0.959 . S
H520 C534 0.929 . S
H521 C535 0.931 . S
H522 C537 0.930 . S
C523 H511 0.930 . S
C523 C524 1.399 . S
C523 C528 1.399 . S
C524 C523 1.399 . S
C524 C525 1.376 . S
C525 H512 0.930 . S
C525 C524 1.376 . S
C525 C526 1.388 . S
C526 H513 0.930 . S
C526 C525 1.388 . S
C526 C527 1.390 . S
C527 C526 1.390 . S
C527 C528 1.394 . S
C527 C533 1.465 . S
C528 C523 1.399 . S
C528 C527 1.394 . S
C528 C529 1.516 . S
C529 C528 1.516 . S
C529 C530 1.502 . S
C529 C531 1.561 . S
C529 C532 1.526 . S
C530 H514 0.959 . S
C530 H515 0.959 . S
C530 H516 0.961 . S
C530 C529 1.502 . S
C531 H517 0.960 . S
C531 H518 0.961 . S
C531 H519 0.959 . S
C531 C529 1.561 . S
C532 C529 1.526 . S
C532 C533 1.396 . S
C532 C537 1.390 . S
C533 C527 1.465 . S
C533 C532 1.396 . S
C533 C534 1.399 . S
C534 H520 0.929 . S
C534 C533 1.399 . S
C534 C535 1.385 . S
C535 H521 0.931 . S
C535 C534 1.385 . S
C535 C536 1.389 . S
C536 C535 1.389 . S
C536 C537 1.387 . S
C537 H522 0.930 . S
C537 C532 1.390 . S
C537 C536 1.387 . S
H538 C550 0.930 . S
H539 C552 0.930 . S
H540 C553 0.930 . S
H541 C557 0.959 . S
H542 C557 0.959 . S
H543 C557 0.961 . S
H544 C558 0.960 . S
H545 C558 0.961 . S
H546 C558 0.959 . S
H547 C561 0.929 . S
H548 C562 0.931 . S
H549 C564 0.930 . S
C550 H538 0.930 . S
C550 C551 1.399 . S
C550 C555 1.399 . S
C551 C550 1.399 . S
C551 C552 1.376 . S
C552 H539 0.930 . S
C552 C551 1.376 . S
C552 C553 1.388 . S
C553 H540 0.930 . S
C553 C552 1.388 . S
C553 C554 1.390 . S
C554 C553 1.390 . S
C554 C555 1.394 . S
C554 C560 1.465 . S
C555 C550 1.399 . S
C555 C554 1.394 . S
C555 C556 1.516 . S
C556 C555 1.516 . S
C556 C557 1.502 . S
C556 C558 1.561 . S
C556 C559 1.526 . S
C557 H541 0.959 . S
C557 H542 0.959 . S
C557 H543 0.961 . S
C557 C556 1.502 . S
C558 H544 0.960 . S
C558 H545 0.961 . S
C558 H546 0.959 . S
C558 C556 1.561 . S
C559 C556 1.526 . S
C559 C560 1.396 . S
C559 C564 1.390 . S
C560 C554 1.465 . S
C560 C559 1.396 . S
C560 C561 1.399 . S
C561 H547 0.929 . S
C561 C560 1.399 . S
C561 C562 1.385 . S
C562 H548 0.931 . S
C562 C561 1.385 . S
C562 C563 1.389 . S
C563 C562 1.389 . S
C563 C564 1.387 . S
C564 H549 0.930 . S
C564 C559 1.390 . S
C564 C563 1.387 . S
H565 C577 0.930 . S
H566 C579 0.930 . S
H567 C580 0.930 . S
H568 C584 0.959 . S
H569 C584 0.959 . S
H570 C584 0.961 . S
H571 C585 0.960 . S
H572 C585 0.961 . S
H573 C585 0.959 . S
H574 C588 0.929 . S
H575 C589 0.931 . S
H576 C591 0.930 . S
C577 H565 0.930 . S
C577 C578 1.399 . S
C577 C582 1.399 . S
C578 C577 1.399 . S
C578 C579 1.376 . S
C579 H566 0.930 . S
C579 C578 1.376 . S
C579 C580 1.388 . S
C580 H567 0.930 . S
C580 C579 1.388 . S
C580 C581 1.390 . S
C581 C580 1.390 . S
C581 C582 1.394 . S
C581 C587 1.465 . S
C582 C577 1.399 . S
C582 C581 1.394 . S
C582 C583 1.516 . S
C583 C582 1.516 . S
C583 C584 1.502 . S
C583 C585 1.561 . S
C583 C586 1.526 . S
C584 H568 0.959 . S
C584 H569 0.959 . S
C584 H570 0.961 . S
C584 C583 1.502 . S
C585 H571 0.960 . S
C585 H572 0.961 . S
C585 H573 0.959 . S
C585 C583 1.561 . S
C586 C583 1.526 . S
C586 C587 1.396 . S
C586 C591 1.390 . S
C587 C581 1.465 . S
C587 C586 1.396 . S
C587 C588 1.399 . S
C588 H574 0.929 . S
C588 C587 1.399 . S
C588 C589 1.385 . S
C589 H575 0.931 . S
C589 C588 1.385 . S
C589 C590 1.389 . S
C590 C589 1.389 . S
C590 C591 1.387 . S
C591 H576 0.930 . S
C591 C586 1.390 . S
C591 C590 1.387 . S
H592 C604 0.930 . S
H593 C606 0.930 . S
H594 C607 0.930 . S
H595 C611 0.959 . S
H596 C611 0.959 . S
H597 C611 0.961 . S
H598 C612 0.960 . S
H599 C612 0.961 . S
H600 C612 0.959 . S
H601 C615 0.929 . S
H602 C616 0.931 . S
H603 C618 0.930 . S
C604 H592 0.930 . S
C604 C605 1.399 . S
C604 C609 1.399 . S
C605 C604 1.399 . S
C605 C606 1.376 . S
C606 H593 0.930 . S
C606 C605 1.376 . S
C606 C607 1.388 . S
C607 H594 0.930 . S
C607 C606 1.388 . S
C607 C608 1.390 . S
C608 C607 1.390 . S
C608 C609 1.394 . S
C608 C614 1.465 . S
C609 C604 1.399 . S
C609 C608 1.394 . S
C609 C610 1.516 . S
C610 C609 1.516 . S
C610 C611 1.502 . S
C610 C612 1.561 . S
C610 C613 1.526 . S
C611 H595 0.959 . S
C611 H596 0.959 . S
C611 H597 0.961 . S
C611 C610 1.502 . S
C612 H598 0.960 . S
C612 H599 0.961 . S
C612 H600 0.959 . S
C612 C610 1.561 . S
C613 C610 1.526 . S
C613 C614 1.396 . S
C613 C618 1.390 . S
C614 C608 1.465 . S
C614 C613 1.396 . S
C614 C615 1.399 . S
C615 H601 0.929 . S
C615 C614 1.399 . S
C615 C616 1.385 . S
C616 H602 0.931 . S
C616 C615 1.385 . S
C616 C617 1.389 . S
C617 C616 1.389 . S
C617 C618 1.387 . S
C618 H603 0.930 . S
C618 C613 1.390 . S
C618 C617 1.387 . S
H619 C631 0.930 . S
H620 C633 0.930 . S
H621 C634 0.930 . S
H622 C638 0.959 . S
H623 C638 0.959 . S
H624 C638 0.961 . S
H625 C639 0.960 . S
H626 C639 0.961 . S
H627 C639 0.959 . S
H628 C642 0.929 . S
H629 C643 0.931 . S
H630 C645 0.930 . S
C631 H619 0.930 . S
C631 C632 1.399 . S
C631 C636 1.399 . S
C632 C631 1.399 . S
C632 C633 1.376 . S
C633 H620 0.930 . S
C633 C632 1.376 . S
C633 C634 1.388 . S
C634 H621 0.930 . S
C634 C633 1.388 . S
C634 C635 1.390 . S
C635 C634 1.390 . S
C635 C636 1.394 . S
C635 C641 1.465 . S
C636 C631 1.399 . S
C636 C635 1.394 . S
C636 C637 1.516 . S
C637 C636 1.516 . S
C637 C638 1.502 . S
C637 C639 1.561 . S
C637 C640 1.526 . S
C638 H622 0.959 . S
C638 H623 0.959 . S
C638 H624 0.961 . S
C638 C637 1.502 . S
C639 H625 0.960 . S
C639 H626 0.961 . S
C639 H627 0.959 . S
C639 C637 1.561 . S
C640 C637 1.526 . S
C640 C641 1.396 . S
C640 C645 1.390 . S
C641 C635 1.465 . S
C641 C640 1.396 . S
C641 C642 1.399 . S
C642 H628 0.929 . S
C642 C641 1.399 . S
C642 C643 1.385 . S
C643 H629 0.931 . S
C643 C642 1.385 . S
C643 C644 1.389 . S
C644 C643 1.389 . S
C644 C645 1.387 . S
C645 H630 0.930 . S
C645 C640 1.390 . S
C645 C644 1.387 . S
H646 C658 0.930 . S
H647 C660 0.930 . S
H648 C661 0.930 . S
H649 C665 0.959 . S
H650 C665 0.959 . S
H651 C665 0.961 . S
H652 C666 0.960 . S
H653 C666 0.961 . S
H654 C666 0.959 . S
H655 C669 0.929 . S
H656 C670 0.931 . S
H657 C672 0.930 . S
C658 H646 0.930 . S
C658 C659 1.399 . S
C658 C663 1.399 . S
C659 C658 1.399 . S
C659 C660 1.376 . S
C660 H647 0.930 . S
C660 C659 1.376 . S
C660 C661 1.388 . S
C661 H648 0.930 . S
C661 C660 1.388 . S
C661 C662 1.390 . S
C662 C661 1.390 . S
C662 C663 1.394 . S
C662 C668 1.465 . S
C663 C658 1.399 . S
C663 C662 1.394 . S
C663 C664 1.516 . S
C664 C663 1.516 . S
C664 C665 1.502 . S
C664 C666 1.561 . S
C664 C667 1.526 . S
C665 H649 0.959 . S
C665 H650 0.959 . S
C665 H651 0.961 . S
C665 C664 1.502 . S
C666 H652 0.960 . S
C666 H653 0.961 . S
C666 H654 0.959 . S
C666 C664 1.561 . S
C667 C664 1.526 . S
C667 C668 1.396 . S
C667 C672 1.390 . S
C668 C662 1.465 . S
C668 C667 1.396 . S
C668 C669 1.399 . S
C669 H655 0.929 . S
C669 C668 1.399 . S
C669 C670 1.385 . S
C670 H656 0.931 . S
C670 C669 1.385 . S
C670 C671 1.389 . S
C671 C670 1.389 . S
C671 C672 1.387 . S
C672 H657 0.930 . S
C672 C667 1.390 . S
C672 C671 1.387 . S
H673 C685 0.930 . S
H674 C687 0.930 . S
H675 C688 0.930 . S
H676 C692 0.959 . S
H677 C692 0.959 . S
H678 C692 0.961 . S
H679 C693 0.960 . S
H680 C693 0.961 . S
H681 C693 0.959 . S
H682 C696 0.929 . S
H683 C697 0.931 . S
H684 C699 0.930 . S
C685 H673 0.930 . S
C685 C686 1.399 . S
C685 C690 1.399 . S
C686 C685 1.399 . S
C686 C687 1.376 . S
C687 H674 0.930 . S
C687 C686 1.376 . S
C687 C688 1.388 . S
C688 H675 0.930 . S
C688 C687 1.388 . S
C688 C689 1.390 . S
C689 C688 1.390 . S
C689 C690 1.394 . S
C689 C695 1.465 . S
C690 C685 1.399 . S
C690 C689 1.394 . S
C690 C691 1.516 . S
C691 C690 1.516 . S
C691 C692 1.502 . S
C691 C693 1.561 . S
C691 C694 1.526 . S
C692 H676 0.959 . S
C692 H677 0.959 . S
C692 H678 0.961 . S
C692 C691 1.502 . S
C693 H679 0.960 . S
C693 H680 0.961 . S
C693 H681 0.959 . S
C693 C691 1.561 . S
C694 C691 1.526 . S
C694 C695 1.396 . S
C694 C699 1.390 . S
C695 C689 1.465 . S
C695 C694 1.396 . S
C695 C696 1.399 . S
C696 H682 0.929 . S
C696 C695 1.399 . S
C696 C697 1.385 . S
C697 H683 0.931 . S
C697 C696 1.385 . S
C697 C698 1.389 . S
C698 C697 1.389 . S
C698 C699 1.387 . S
C699 H684 0.930 . S
C699 C694 1.390 . S
C699 C698 1.387 . S
H700 C712 0.930 . S
H701 C714 0.930 . S
H702 C715 0.930 . S
H703 C719 0.959 . S
H704 C719 0.959 . S
H705 C719 0.961 . S
H706 C720 0.960 . S
H707 C720 0.961 . S
H708 C720 0.959 . S
H709 C723 0.929 . S
H710 C724 0.931 . S
H711 C726 0.930 . S
C712 H700 0.930 . S
C712 C713 1.399 . S
C712 C717 1.399 . S
C713 C712 1.399 . S
C713 C714 1.376 . S
C714 H701 0.930 . S
C714 C713 1.376 . S
C714 C715 1.388 . S
C715 H702 0.930 . S
C715 C714 1.388 . S
C715 C716 1.390 . S
C716 C715 1.390 . S
C716 C717 1.394 . S
C716 C722 1.465 . S
C717 C712 1.399 . S
C717 C716 1.394 . S
C717 C718 1.516 . S
C718 C717 1.516 . S
C718 C719 1.502 . S
C718 C720 1.561 . S
C718 C721 1.526 . S
C719 H703 0.959 . S
C719 H704 0.959 . S
C719 H705 0.961 . S
C719 C718 1.502 . S
C720 H706 0.960 . S
C720 H707 0.961 . S
C720 H708 0.959 . S
C720 C718 1.561 . S
C721 C718 1.526 . S
C721 C722 1.396 . S
C721 C726 1.390 . S
C722 C716 1.465 . S
C722 C721 1.396 . S
C722 C723 1.399 . S
C723 H709 0.929 . S
C723 C722 1.399 . S
C723 C724 1.385 . S
C724 H710 0.931 . S
C724 C723 1.385 . S
C724 C725 1.389 . S
C725 C724 1.389 . S
C725 C726 1.387 . S
C726 H711 0.930 . S
C726 C721 1.390 . S
C726 C725 1.387 . S
H727 C739 0.930 . S
H728 C741 0.930 . S
H729 C742 0.930 . S
H730 C746 0.959 . S
H731 C746 0.959 . S
H732 C746 0.961 . S
H733 C747 0.960 . S
H734 C747 0.961 . S
H735 C747 0.959 . S
H736 C750 0.929 . S
H737 C751 0.931 . S
H738 C753 0.930 . S
C739 H727 0.930 . S
C739 C740 1.399 . S
C739 C744 1.399 . S
C740 C739 1.399 . S
C740 C741 1.376 . S
C741 H728 0.930 . S
C741 C740 1.376 . S
C741 C742 1.388 . S
C742 H729 0.930 . S
C742 C741 1.388 . S
C742 C743 1.390 . S
C743 C742 1.390 . S
C743 C744 1.394 . S
C743 C749 1.465 . S
C744 C739 1.399 . S
C744 C743 1.394 . S
C744 C745 1.516 . S
C745 C744 1.516 . S
C745 C746 1.502 . S
C745 C747 1.561 . S
C745 C748 1.526 . S
C746 H730 0.959 . S
C746 H731 0.959 . S
C746 H732 0.961 . S
C746 C745 1.502 . S
C747 H733 0.960 . S
C747 H734 0.961 . S
C747 H735 0.959 . S
C747 C745 1.561 . S
C748 C745 1.526 . S
C748 C749 1.396 . S
C748 C753 1.390 . S
C749 C743 1.465 . S
C749 C748 1.396 . S
C749 C750 1.399 . S
C750 H736 0.929 . S
C750 C749 1.399 . S
C750 C751 1.385 . S
C751 H737 0.931 . S
C751 C750 1.385 . S
C751 C752 1.389 . S
C752 C751 1.389 . S
C752 C753 1.387 . S
C753 H738 0.930 . S
C753 C748 1.390 . S
C753 C752 1.387 . S
H754 C766 0.930 . S
H755 C768 0.930 . S
H756 C769 0.930 . S
H757 C773 0.959 . S
H758 C773 0.959 . S
H759 C773 0.961 . S
H760 C774 0.960 . S
H761 C774 0.961 . S
H762 C774 0.959 . S
H763 C777 0.929 . S
H764 C778 0.931 . S
H765 C780 0.930 . S
C766 H754 0.930 . S
C766 C767 1.399 . S
C766 C771 1.399 . S
C767 C766 1.399 . S
C767 C768 1.376 . S
C768 H755 0.930 . S
C768 C767 1.376 . S
C768 C769 1.388 . S
C769 H756 0.930 . S
C769 C768 1.388 . S
C769 C770 1.390 . S
C770 C769 1.390 . S
C770 C771 1.394 . S
C770 C776 1.465 . S
C771 C766 1.399 . S
C771 C770 1.394 . S
C771 C772 1.516 . S
C772 C771 1.516 . S
C772 C773 1.502 . S
C772 C774 1.561 . S
C772 C775 1.526 . S
C773 H757 0.959 . S
C773 H758 0.959 . S
C773 H759 0.961 . S
C773 C772 1.502 . S
C774 H760 0.960 . S
C774 H761 0.961 . S
C774 H762 0.959 . S
C774 C772 1.561 . S
C775 C772 1.526 . S
C775 C776 1.396 . S
C775 C780 1.390 . S
C776 C770 1.465 . S
C776 C775 1.396 . S
C776 C777 1.399 . S
C777 H763 0.929 . S
C777 C776 1.399 . S
C777 C778 1.385 . S
C778 H764 0.931 . S
C778 C777 1.385 . S
C778 C779 1.389 . S
C779 C778 1.389 . S
C779 C780 1.387 . S
C780 H765 0.930 . S
C780 C775 1.390 . S
C780 C779 1.387 . S
H781 C793 0.930 . S
H782 C795 0.930 . S
H783 C796 0.930 . S
H784 C800 0.959 . S
H785 C800 0.959 . S
H786 C800 0.961 . S
H787 C801 0.960 . S
H788 C801 0.961 . S
H789 C801 0.959 . S
H790 C804 0.929 . S
H791 C805 0.931 . S
H792 C807 0.930 . S
C793 H781 0.930 . S
C793 C794 1.399 . S
C793 C798 1.399 . S
C794 C793 1.399 . S
C794 C795 1.376 . S
C795 H782 0.930 . S
C795 C794 1.376 . S
C795 C796 1.388 . S
C796 H783 0.930 . S
C796 C795 1.388 . S
C796 C797 1.390 . S
C797 C796 1.390 . S
C797 C798 1.394 . S
C797 C803 1.465 . S
C798 C793 1.399 . S
C798 C797 1.394 . S
C798 C799 1.516 . S
C799 C798 1.516 . S
C799 C800 1.502 . S
C799 C801 1.561 . S
C799 C802 1.526 . S
C800 H784 0.959 . S
C800 H785 0.959 . S
C800 H786 0.961 . S
C800 C799 1.502 . S
C801 H787 0.960 . S
C801 H788 0.961 . S
C801 H789 0.959 . S
C801 C799 1.561 . S
C802 C799 1.526 . S
C802 C803 1.396 . S
C802 C807 1.390 . S
C803 C797 1.465 . S
C803 C802 1.396 . S
C803 C804 1.399 . S
C804 H790 0.929 . S
C804 C803 1.399 . S
C804 C805 1.385 . S
C805 H791 0.931 . S
C805 C804 1.385 . S
C805 C806 1.389 . S
C806 C805 1.389 . S
C806 C807 1.387 . S
C807 H792 0.930 . S
C807 C802 1.390 . S
C807 C806 1.387 . S
H808 C820 0.930 . S
H809 C822 0.930 . S
H810 C823 0.930 . S
H811 C827 0.959 . S
H812 C827 0.959 . S
H813 C827 0.961 . S
H814 C828 0.960 . S
H815 C828 0.961 . S
H816 C828 0.959 . S
H817 C831 0.929 . S
H818 C832 0.931 . S
H819 C834 0.930 . S
C820 H808 0.930 . S
C820 C821 1.399 1_554 S
C820 C825 1.399 . S
C821 C820 1.399 1_556 S
C821 C822 1.376 . S
C822 H809 0.930 . S
C822 C821 1.376 . S
C822 C823 1.388 . S
C823 H810 0.930 . S
C823 C822 1.388 . S
C823 C824 1.390 . S
C824 C823 1.390 . S
C824 C825 1.394 1_556 S
C824 C830 1.465 . S
C825 C820 1.399 . S
C825 C824 1.394 1_554 S
C825 C826 1.516 . S
C826 C825 1.516 . S
C826 C827 1.502 . S
C826 C828 1.561 . S
C826 C829 1.526 . S
C827 H811 0.959 . S
C827 H812 0.959 . S
C827 H813 0.961 . S
C827 C826 1.502 . S
C828 H814 0.960 . S
C828 H815 0.961 . S
C828 H816 0.959 . S
C828 C826 1.561 . S
C829 C826 1.526 . S
C829 C830 1.396 1_554 S
C829 C834 1.390 . S
C830 C824 1.465 . S
C830 C829 1.396 1_556 S
C830 C831 1.399 . S
C831 H817 0.929 . S
C831 C830 1.399 . S
C831 C832 1.385 . S
C832 H818 0.931 . S
C832 C831 1.385 . S
C832 C833 1.389 . S
C833 C832 1.389 . S
C833 C834 1.387 1_556 S
C834 H819 0.930 . S
C834 C829 1.390 . S
C834 C833 1.387 1_554 S
H835 C847 0.930 . S
H836 C849 0.930 . S
H837 C850 0.930 . S
H838 C854 0.959 . S
H839 C854 0.959 . S
H840 C854 0.961 . S
H841 C855 0.960 . S
H842 C855 0.961 . S
H843 C855 0.959 . S
H844 C858 0.929 . S
H845 C859 0.931 . S
H846 C861 0.930 . S
C847 H835 0.930 . S
C847 C848 1.399 . S
C847 C852 1.399 . S
C848 C847 1.399 . S
C848 C849 1.376 . S
C849 H836 0.930 . S
C849 C848 1.376 . S
C849 C850 1.388 . S
C850 H837 0.930 . S
C850 C849 1.388 . S
C850 C851 1.390 . S
C851 C850 1.390 . S
C851 C852 1.394 . S
C851 C857 1.465 . S
C852 C847 1.399 . S
C852 C851 1.394 . S
C852 C853 1.516 . S
C853 C852 1.516 . S
C853 C854 1.502 . S
C853 C855 1.561 . S
C853 C856 1.526 . S
C854 H838 0.959 . S
C854 H839 0.959 . S
C854 H840 0.961 . S
C854 C853 1.502 . S
C855 H841 0.960 . S
C855 H842 0.961 . S
C855 H843 0.959 . S
C855 C853 1.561 . S
C856 C853 1.526 . S
C856 C857 1.396 . S
C856 C861 1.390 . S
C857 C851 1.465 . S
C857 C856 1.396 . S
C857 C858 1.399 . S
C858 H844 0.929 . S
C858 C857 1.399 . S
C858 C859 1.385 . S
C859 H845 0.931 . S
C859 C858 1.385 . S
C859 C860 1.389 . S
C860 C859 1.389 . S
C860 C861 1.387 . S
C861 H846 0.930 . S
C861 C856 1.390 . S
C861 C860 1.387 . S
H862 C874 0.930 . S
H863 C876 0.930 . S
H864 C877 0.930 . S
H865 C881 0.959 . S
H866 C881 0.959 . S
H867 C881 0.961 . S
H868 C882 0.960 . S
H869 C882 0.961 . S
H870 C882 0.959 . S
H871 C885 0.929 . S
H872 C886 0.931 . S
H873 C888 0.930 . S
C874 H862 0.930 . S
C874 C875 1.399 1_556 S
C874 C879 1.399 . S
C875 C874 1.399 1_554 S
C875 C876 1.376 . S
C876 H863 0.930 . S
C876 C875 1.376 . S
C876 C877 1.388 . S
C877 H864 0.930 . S
C877 C876 1.388 . S
C877 C878 1.390 . S
C878 C877 1.390 . S
C878 C879 1.394 1_554 S
C878 C884 1.465 . S
C879 C874 1.399 . S
C879 C878 1.394 1_556 S
C879 C880 1.516 . S
C880 C879 1.516 . S
C880 C881 1.502 . S
C880 C882 1.561 . S
C880 C883 1.526 . S
C881 H865 0.959 . S
C881 H866 0.959 . S
C881 H867 0.961 . S
C881 C880 1.502 . S
C882 H868 0.960 . S
C882 H869 0.961 . S
C882 H870 0.959 . S
C882 C880 1.561 . S
C883 C880 1.526 . S
C883 C884 1.396 1_556 S
C883 C888 1.390 . S
C884 C878 1.465 . S
C884 C883 1.396 1_554 S
C884 C885 1.399 . S
C885 H871 0.929 . S
C885 C884 1.399 . S
C885 C886 1.385 . S
C886 H872 0.931 . S
C886 C885 1.385 . S
C886 C887 1.389 . S
C887 C886 1.389 . S
C887 C888 1.387 1_554 S
C888 H873 0.930 . S
C888 C883 1.390 . S
C888 C887 1.387 1_556 S
H889 C901 0.930 . S
H890 C903 0.930 . S
H891 C904 0.930 . S
H892 C908 0.959 . S
H893 C908 0.959 . S
H894 C908 0.961 . S
H895 C909 0.960 . S
H896 C909 0.961 . S
H897 C909 0.959 . S
H898 C912 0.929 . S
H899 C913 0.931 . S
H900 C915 0.930 . S
C901 H889 0.930 . S
C901 C902 1.399 . S
C901 C906 1.399 . S
C902 C901 1.399 . S
C902 C903 1.376 . S
C903 H890 0.930 . S
C903 C902 1.376 . S
C903 C904 1.388 . S
C904 H891 0.930 . S
C904 C903 1.388 . S
C904 C905 1.390 . S
C905 C904 1.390 . S
C905 C906 1.394 . S
C905 C911 1.465 . S
C906 C901 1.399 . S
C906 C905 1.394 . S
C906 C907 1.516 . S
C907 C906 1.516 . S
C907 C908 1.502 . S
C907 C909 1.561 . S
C907 C910 1.526 . S
C908 H892 0.959 . S
C908 H893 0.959 . S
C908 H894 0.961 . S
C908 C907 1.502 . S
C909 H895 0.960 . S
C909 H896 0.961 . S
C909 H897 0.959 . S
C909 C907 1.561 . S
C910 C907 1.526 . S
C910 C911 1.396 . S
C910 C915 1.390 . S
C911 C905 1.465 . S
C911 C910 1.396 . S
C911 C912 1.399 . S
C912 H898 0.929 . S
C912 C911 1.399 . S
C912 C913 1.385 . S
C913 H899 0.931 . S
C913 C912 1.385 . S
C913 C914 1.389 . S
C914 C913 1.389 . S
C914 C915 1.387 . S
C915 H900 0.930 . S
C915 C910 1.390 . S
C915 C914 1.387 . S
H916 C928 0.930 . S
H917 C930 0.930 . S
H918 C931 0.930 . S
H919 C935 0.959 . S
H920 C935 0.959 . S
H921 C935 0.961 . S
H922 C936 0.960 . S
H923 C936 0.961 . S
H924 C936 0.959 . S
H925 C939 0.929 . S
H926 C940 0.931 . S
H927 C942 0.930 . S
C928 H916 0.930 . S
C928 C929 1.399 . S
C928 C933 1.399 . S
C929 C928 1.399 . S
C929 C930 1.376 . S
C930 H917 0.930 . S
C930 C929 1.376 . S
C930 C931 1.388 . S
C931 H918 0.930 . S
C931 C930 1.388 . S
C931 C932 1.390 . S
C932 C931 1.390 . S
C932 C933 1.394 . S
C932 C938 1.465 . S
C933 C928 1.399 . S
C933 C932 1.394 . S
C933 C934 1.516 . S
C934 C933 1.516 . S
C934 C935 1.502 . S
C934 C936 1.561 . S
C934 C937 1.526 . S
C935 H919 0.959 . S
C935 H920 0.959 . S
C935 H921 0.961 . S
C935 C934 1.502 . S
C936 H922 0.960 . S
C936 H923 0.961 . S
C936 H924 0.959 . S
C936 C934 1.561 . S
C937 C934 1.526 . S
C937 C938 1.396 . S
C937 C942 1.390 . S
C938 C932 1.465 . S
C938 C937 1.396 . S
C938 C939 1.399 . S
C939 H925 0.929 . S
C939 C938 1.399 . S
C939 C940 1.385 . S
C940 H926 0.931 . S
C940 C939 1.385 . S
C940 C941 1.389 . S
C941 C940 1.389 . S
C941 C942 1.387 . S
C942 H927 0.930 . S
C942 C937 1.390 . S
C942 C941 1.387 . S
H943 C955 0.930 . S
H944 C957 0.930 . S
H945 C958 0.930 . S
H946 C962 0.959 . S
H947 C962 0.959 . S
H948 C962 0.961 . S
H949 C963 0.960 . S
H950 C963 0.961 . S
H951 C963 0.959 . S
H952 C966 0.929 . S
H953 C967 0.931 . S
H954 C969 0.930 . S
C955 H943 0.930 . S
C955 C956 1.399 . S
C955 C960 1.399 . S
C956 C955 1.399 . S
C956 C957 1.376 . S
C957 H944 0.930 . S
C957 C956 1.376 . S
C957 C958 1.388 . S
C958 H945 0.930 . S
C958 C957 1.388 . S
C958 C959 1.390 . S
C959 C958 1.390 . S
C959 C960 1.394 . S
C959 C965 1.465 . S
C960 C955 1.399 . S
C960 C959 1.394 . S
C960 C961 1.516 . S
C961 C960 1.516 . S
C961 C962 1.502 1_556 S
C961 C963 1.561 . S
C961 C964 1.526 . S
C962 H946 0.959 . S
C962 H947 0.959 . S
C962 H948 0.961 . S
C962 C961 1.502 1_554 S
C963 H949 0.960 . S
C963 H950 0.961 . S
C963 H951 0.959 . S
C963 C961 1.561 . S
C964 C961 1.526 . S
C964 C965 1.396 . S
C964 C969 1.390 . S
C965 C959 1.465 . S
C965 C964 1.396 . S
C965 C966 1.399 . S
C966 H952 0.929 . S
C966 C965 1.399 . S
C966 C967 1.385 1_556 S
C967 H953 0.931 . S
C967 C966 1.385 1_554 S
C967 C968 1.390 . S
C968 C967 1.390 . S
C968 C969 1.386 1_554 S
C969 H954 0.930 . S
C969 C964 1.390 . S
C969 C968 1.386 1_556 S
H970 C982 0.930 . S
H971 C984 0.930 . S
H972 C985 0.930 . S
H973 C989 0.959 . S
H974 C989 0.959 . S
H975 C989 0.961 . S
H976 C990 0.960 . S
H977 C990 0.961 . S
H978 C990 0.959 . S
H979 C993 0.929 . S
H980 C994 0.931 . S
H981 C996 0.930 . S
C982 H970 0.930 . S
C982 C983 1.399 . S
C982 C987 1.399 . S
C983 C982 1.399 . S
C983 C984 1.376 . S
C984 H971 0.930 . S
C984 C983 1.376 . S
C984 C985 1.388 . S
C985 H972 0.930 . S
C985 C984 1.388 . S
C985 C986 1.390 . S
C986 C985 1.390 . S
C986 C987 1.394 . S
C986 C992 1.465 . S
C987 C982 1.399 . S
C987 C986 1.394 . S
C987 C988 1.516 . S
C988 C987 1.516 . S
C988 C989 1.502 . S
C988 C990 1.561 . S
C988 C991 1.526 . S
C989 H973 0.959 . S
C989 H974 0.959 . S
C989 H975 0.961 . S
C989 C988 1.502 . S
C990 H976 0.960 . S
C990 H977 0.961 . S
C990 H978 0.959 . S
C990 C988 1.561 . S
C991 C988 1.526 . S
C991 C992 1.396 . S
C991 C996 1.390 . S
C992 C986 1.465 . S
C992 C991 1.396 . S
C992 C993 1.399 . S
C993 H979 0.929 . S
C993 C992 1.399 . S
C993 C994 1.385 . S
C994 H980 0.931 . S
C994 C993 1.385 . S
C994 C995 1.389 . S
C995 C994 1.389 . S
C995 C996 1.387 . S
C996 H981 0.930 . S
C996 C991 1.390 . S
C996 C995 1.387 . S
H997 C1009 0.930 . S
H998 C1011 0.930 . S
H999 C1012 0.930 . S
H1000 C1016 0.959 . S
H1001 C1016 0.959 . S
H1002 C1016 0.961 . S
H1003 C1017 0.960 . S
H1004 C1017 0.961 . S
H1005 C1017 0.959 . S
H1006 C1020 0.929 . S
H1007 C1021 0.931 . S
H1008 C1023 0.930 . S
C1009 H997 0.930 . S
C1009 C1010 1.399 1_556 S
C1009 C1014 1.399 . S
C1010 C1009 1.399 1_554 S
C1010 C1011 1.376 . S
C1011 H998 0.930 . S
C1011 C1010 1.376 . S
C1011 C1012 1.388 . S
C1012 H999 0.930 . S
C1012 C1011 1.388 . S
C1012 C1013 1.390 . S
C1013 C1012 1.390 . S
C1013 C1014 1.394 1_554 S
C1013 C1019 1.465 . S
C1014 C1009 1.399 . S
C1014 C1013 1.394 1_556 S
C1014 C1015 1.516 . S
C1015 C1014 1.516 . S
C1015 C1016 1.502 . S
C1015 C1017 1.561 . S
C1015 C1018 1.526 . S
C1016 H1000 0.959 . S
C1016 H1001 0.959 . S
C1016 H1002 0.961 . S
C1016 C1015 1.502 . S
C1017 H1003 0.960 . S
C1017 H1004 0.961 . S
C1017 H1005 0.959 . S
C1017 C1015 1.561 . S
C1018 C1015 1.526 . S
C1018 C1019 1.396 1_556 S
C1018 C1023 1.390 . S
C1019 C1013 1.465 . S
C1019 C1018 1.396 1_554 S
C1019 C1020 1.399 . S
C1020 H1006 0.929 . S
C1020 C1019 1.399 . S
C1020 C1021 1.385 . S
C1021 H1007 0.931 . S
C1021 C1020 1.385 . S
C1021 C1022 1.389 . S
C1022 C1021 1.389 . S
C1022 C1023 1.387 1_554 S
C1023 H1008 0.930 . S
C1023 C1018 1.390 . S
C1023 C1022 1.387 1_556 S
C389 C21 1.631 . S
C401 C197 1.562 . S
C416 C40 1.731 . S
C428 C119 1.657 . S
C455 C155 1.586 . S
C443 C54 1.600 . S
C470 C73 1.763 . S
C482 C161 1.711 . S
C509 C299 1.595 . S
C497 C74 1.583 . S
C536 C305 1.675 . S
C524 C10 1.729 . S
C563 C341 1.557 . S
C551 C37 1.625 . S
C590 C263 1.713 . S
C578 C65 1.772 . S
C605 C52 1.603 . S
C617 C125 1.564 . S
C632 C87 1.756 . S
C644 C191 1.712 . S
C659 C15 1.639 . S
C671 C227 1.550 . S
C698 C89 1.664 . S
C686 C32 1.729 . S
C713 C29 1.601 . S
C725 C371 1.607 . S
C752 C233 1.722 . S
C740 C59 1.776 . S
C779 C269 1.581 . S
C767 C84 1.576 . S
C794 C8 1.721 . S
C806 C335 1.711 . S
C833 C113 1.725 . S
C821 C7 1.839 1_556 S
C860 C149 1.673 . S
C848 C30 1.684 . S
C875 C62 1.850 . S
C887 C185 1.830 . S
C902 C81 1.651 . S
C914 C221 1.634 . S
C941 C257 1.783 . S
C929 C76 1.849 . S
C956 C18 1.658 . S
C968 C293 1.693 . S
C983 C43 1.840 . S
C995 C329 1.820 . S
C1010 C51 1.636 1_554 S
C1022 C365 1.651 1_554 S
