# Generated by pormake.
# Topology eea, (3,6)-cn, num edge types: 1
# Building blocks:
#     Node 0, Type 0, BuildingBlock: PAMTOO_clean_linker_0, # of connection points: 3
#     Node 1, Type 0, BuildingBlock: PAMTOO_clean_linker_0, # of connection points: 3
#     Node 2, Type 0, BuildingBlock: PAMTOO_clean_linker_0, # of connection points: 3
#     Node 3, Type 0, BuildingBlock: PAMTOO_clean_linker_0, # of connection points: 3
#     Node 4, Type 0, BuildingBlock: PAMTOO_clean_linker_0, # of connection points: 3
#     Node 5, Type 0, BuildingBlock: PAMTOO_clean_linker_0, # of connection points: 3
#     Node 6, Type 0, BuildingBlock: PAMTOO_clean_linker_0, # of connection points: 3
#     Node 7, Type 0, BuildingBlock: PAMTOO_clean_linker_0, # of connection points: 3
#     Node 8, Type 0, BuildingBlock: PAMTOO_clean_linker_0, # of connection points: 3
#     Node 9, Type 0, BuildingBlock: PAMTOO_clean_linker_0, # of connection points: 3
#     Node 10, Type 0, BuildingBlock: PAMTOO_clean_linker_0, # of connection points: 3
#     Node 11, Type 0, BuildingBlock: PAMTOO_clean_linker_0, # of connection points: 3
#     Node 12, Type 0, BuildingBlock: PAMTOO_clean_linker_0, # of connection points: 3
#     Node 13, Type 0, BuildingBlock: PAMTOO_clean_linker_0, # of connection points: 3
#     Node 14, Type 0, BuildingBlock: PAMTOO_clean_linker_0, # of connection points: 3
#     Node 15, Type 0, BuildingBlock: PAMTOO_clean_linker_0, # of connection points: 3
#     Node 16, Type 0, BuildingBlock: PAMTOO_clean_linker_0, # of connection points: 3
#     Node 17, Type 0, BuildingBlock: PAMTOO_clean_linker_0, # of connection points: 3
#     Node 18, Type 1, BuildingBlock: KUMJIN_clean_sbu_0, # of connection points: 6
#     Node 19, Type 1, BuildingBlock: KUMJIN_clean_sbu_0, # of connection points: 6
#     Node 20, Type 1, BuildingBlock: KUMJIN_clean_sbu_0, # of connection points: 6
#     Node 21, Type 1, BuildingBlock: KUMJIN_clean_sbu_0, # of connection points: 6
#     Node 22, Type 1, BuildingBlock: KUMJIN_clean_sbu_0, # of connection points: 6
#     Node 23, Type 1, BuildingBlock: KUMJIN_clean_sbu_0, # of connection points: 6
#     Node 24, Type 1, BuildingBlock: KUMJIN_clean_sbu_0, # of connection points: 6
#     Node 25, Type 1, BuildingBlock: KUMJIN_clean_sbu_0, # of connection points: 6
#     Node 26, Type 1, BuildingBlock: KUMJIN_clean_sbu_0, # of connection points: 6
#     Edge 27, Type (0, 1), None
#     Edge 28, Type (0, 1), None
#     Edge 29, Type (0, 1), None
#     Edge 30, Type (0, 1), None
#     Edge 31, Type (0, 1), None
#     Edge 32, Type (0, 1), None
#     Edge 33, Type (0, 1), None
#     Edge 34, Type (0, 1), None
#     Edge 35, Type (0, 1), None
#     Edge 36, Type (0, 1), None
#     Edge 37, Type (0, 1), None
#     Edge 38, Type (0, 1), None
#     Edge 39, Type (0, 1), None
#     Edge 40, Type (0, 1), None
#     Edge 41, Type (0, 1), None
#     Edge 42, Type (0, 1), None
#     Edge 43, Type (0, 1), None
#     Edge 44, Type (0, 1), None
#     Edge 45, Type (0, 1), None
#     Edge 46, Type (0, 1), None
#     Edge 47, Type (0, 1), None
#     Edge 48, Type (0, 1), None
#     Edge 49, Type (0, 1), None
#     Edge 50, Type (0, 1), None
#     Edge 51, Type (0, 1), None
#     Edge 52, Type (0, 1), None
#     Edge 53, Type (0, 1), None
#     Edge 54, Type (0, 1), None
#     Edge 55, Type (0, 1), None
#     Edge 56, Type (0, 1), None
#     Edge 57, Type (0, 1), None
#     Edge 58, Type (0, 1), None
#     Edge 59, Type (0, 1), None
#     Edge 60, Type (0, 1), None
#     Edge 61, Type (0, 1), None
#     Edge 62, Type (0, 1), None
#     Edge 63, Type (0, 1), None
#     Edge 64, Type (0, 1), None
#     Edge 65, Type (0, 1), None
#     Edge 66, Type (0, 1), None
#     Edge 67, Type (0, 1), None
#     Edge 68, Type (0, 1), None
#     Edge 69, Type (0, 1), None
#     Edge 70, Type (0, 1), None
#     Edge 71, Type (0, 1), None
#     Edge 72, Type (0, 1), None
#     Edge 73, Type (0, 1), None
#     Edge 74, Type (0, 1), None
#     Edge 75, Type (0, 1), None
#     Edge 76, Type (0, 1), None
#     Edge 77, Type (0, 1), None
#     Edge 78, Type (0, 1), None
#     Edge 79, Type (0, 1), None
#     Edge 80, Type (0, 1), None
# Relax obj value: 0.026
# Max RMSD: 0.238
# Mean RMSD: 0.164
data_MOF--net-eea--node1-KUMJIN_clean_sbu_0--node2-PAMTOO_clean_linker_0--edge1-none
_symmetry_space_group_name_H-M    P1
_symmetry_Int_Tables_number       1
_symmetry_cell_setting            triclinic
loop_
_symmetry_equiv_pos_as_xyz
'x, y, z'
_cell_length_a     22.933637
_cell_length_b     24.247812
_cell_length_c     36.545344
_cell_angle_alpha  91.718151
_cell_angle_beta   89.601913
_cell_angle_gamma 120.1192
loop_
_atom_site_label
_atom_site_type_symbol
_atom_site_fract_x
_atom_site_fract_y
_atom_site_fract_z
_atom_type_partial_charge
H0 H 0.35098 0.08355 0.43239 0.0
H1 H 0.30031 0.23097 0.4313 0.0
H2 H 0.19779 0.06853 0.35797 0.0
H3 H 0.24489 0.21477 0.32956 0.0
C4 C 0.24032 0.2313 0.35761 0.0
O5 O 0.2107 0.17946 0.37988 0.0
H6 H 0.29146 0.26689 0.36819 0.0
C7 C 0.32215 0.1028 0.42046 0.0
C8 C 0.27412 0.06847 0.39234 0.0
C9 C 0.33289 0.162 0.43385 0.0
C10 C 0.29387 0.18618 0.4203 0.0
C11 C 0.24644 0.15346 0.39253 0.0
C12 C 0.23664 0.09477 0.3783 0.0
H13 H 0.96237 0.26629 0.43492 0.0
H14 H 0.85081 0.06311 0.4383 0.0
H15 H 0.98574 0.15241 0.34876 0.0
H16 H 0.85274 0.03187 0.32334 0.0
C17 C 0.83486 0.01594 0.35149 0.0
O18 O 0.89031 0.04232 0.3749 0.0
H19 H 0.79951 0.0329 0.35976 0.0
C20 C 0.95157 0.22088 0.42267 0.0
C21 C 0.98195 0.21806 0.38916 0.0
C22 C 0.90736 0.1659 0.44144 0.0
C23 C 0.88789 0.10606 0.42514 0.0
C24 C 0.91421 0.10109 0.39117 0.0
C25 C 0.96342 0.15699 0.37398 0.0
H26 H 0.76212 0.703 0.42226 0.0
H27 H 0.96876 0.78757 0.45228 0.0
H28 H 0.91257 0.85129 0.35635 0.0
H29 H 0.03303 0.7929 0.36059 0.0
C30 C 0.05333 0.82258 0.38544 0.0
O31 O 1.01738 0.85405 0.39337 0.0
H32 H 0.04463 0.78837 0.40727 0.0
C33 C 0.81393 0.73797 0.41627 0.0
C34 C 0.82922 0.77841 0.38649 0.0
C35 C 0.86286 0.74246 0.44042 0.0
C36 C 0.93071 0.7852 0.43385 0.0
C37 C 0.95003 0.82085 0.40179 0.0
C38 C 0.89874 0.81997 0.37902 0.0
H39 H 0.06349 0.29784 0.60881 0.0
H40 H 0.19188 0.22192 0.58782 0.0
H41 H 0.07844 0.17814 0.68848 0.0
H42 H 0.26401 0.23761 0.67853 0.0
C43 C 0.24916 0.20502 0.6547 0.0
O44 O 0.17865 0.17008 0.65099 0.0
H45 H 0.27106 0.23687 0.63114 0.0
C46 C 0.08202 0.26737 0.61805 0.0
C47 C 0.06159 0.23711 0.65178 0.0
C48 C 0.12819 0.26214 0.59546 0.0
C49 C 0.15554 0.22503 0.60557 0.0
C50 C 0.14207 0.19774 0.64019 0.0
C51 C 0.09269 0.20187 0.66291 0.0
H52 H 0.72199 0.7579 0.60652 0.0
H53 H 0.79052 0.95641 0.59493 0.0
H54 H 0.85015 0.89513 0.68975 0.0
H55 H 0.81155 0.991 0.70822 0.0
C56 C 0.81685 0.01153 0.68075 0.0
O57 O 0.85278 0.99261 0.65834 0.0
H58 H 0.76536 0.99377 0.66929 0.0
C59 C 0.75226 0.80653 0.6168 0.0
C60 C 0.78775 0.81987 0.65042 0.0
C61 C 0.75472 0.85544 0.59604 0.0
C62 C 0.7906 0.91846 0.60983 0.0
C63 C 0.82369 0.93244 0.6439 0.0
C64 C 0.82358 0.8835 0.66374 0.0
H65 H 0.26061 0.94475 0.60552 0.0
H66 H 0.05472 0.79545 0.60995 0.0
H67 H 0.12313 0.96244 0.67971 0.0
H68 H 0.97156 0.82393 0.7065 0.0
C69 C 0.98627 0.80397 0.68303 0.0
O70 O 1.0177 0.85162 0.65794 0.0
H71 H 0.02089 0.78787 0.69299 0.0
C72 C 0.21159 0.92567 0.61805 0.0
C73 C 0.20028 0.96086 0.64614 0.0
C74 C 0.15991 0.86568 0.60546 0.0
C75 C 0.09558 0.84085 0.62023 0.0
C76 C 0.08229 0.87501 0.64713 0.0
C77 C 0.1346 0.93489 0.66033 0.0
H78 H 1.01775 0.41663 0.76587 0.0
H79 H 0.96698 0.564 0.76476 0.0
H80 H 0.86443 0.40148 0.6915 0.0
H81 H 0.91172 0.54777 0.66305 0.0
C82 C 0.90708 0.56429 0.69109 0.0
O83 O 0.87738 0.51245 0.71335 0.0
H84 H 0.9582 0.59987 0.70169 0.0
C85 C 0.98889 0.43586 0.75395 0.0
C86 C 0.94081 0.40148 0.72587 0.0
C87 C 0.99963 0.49508 0.7673 0.0
C88 C 0.96056 0.5192 0.75376 0.0
C89 C 0.9131 0.48644 0.72602 0.0
C90 C 0.9033 0.42774 0.71182 0.0
H91 H 0.62937 0.5995 0.76827 0.0
H92 H 0.51828 0.39636 0.77191 0.0
H93 H 0.65269 0.48553 0.68214 0.0
H94 H 0.51972 0.36518 0.65684 0.0
C95 C 0.50187 0.34916 0.68499 0.0
O96 O 0.55735 0.37547 0.70838 0.0
H97 H 0.46655 0.36613 0.69333 0.0
C98 C 0.61868 0.55409 0.75607 0.0
C99 C 0.64902 0.55123 0.72254 0.0
C100 C 0.57471 0.49915 0.77495 0.0
C101 C 0.55525 0.43929 0.75868 0.0
C102 C 0.58137 0.43426 0.72466 0.0
C103 C 0.63049 0.49014 0.70739 0.0
H104 H 0.42871 0.03545 0.75518 0.0
H105 H 0.63521 0.12041 0.78555 0.0
H106 H 0.57921 0.18462 0.68977 0.0
H107 H 0.6997 0.12393 0.69496 0.0
C108 C 0.72022 0.15542 0.7192 0.0
O109 O 0.684 0.18685 0.72651 0.0
H110 H 0.71218 0.12283 0.74187 0.0
C111 C 0.48053 0.07055 0.7493 0.0
C112 C 0.49586 0.11125 0.71965 0.0
C113 C 0.52939 0.07507 0.7735 0.0
C114 C 0.59725 0.11799 0.76703 0.0
C115 C 0.61665 0.15369 0.73498 0.0
C116 C 0.56538 0.15297 0.71228 0.0
H117 H 0.73296 0.63462 0.94345 0.0
H118 H 0.86046 0.55815 0.92087 0.0
H119 H 0.74484 0.51003 0.02084 0.0
H120 H 0.92917 0.56867 1.01198 0.0
C121 C 0.91573 0.5375 0.98762 0.0
O122 O 0.84539 0.50306 0.98308 0.0
H123 H 0.93925 0.57073 0.96479 0.0
C124 C 0.75118 0.60362 0.95219 0.0
C125 C 0.72962 0.57154 0.98533 0.0
C126 C 0.79734 0.59887 0.92933 0.0
C127 C 0.82407 0.5609 0.93876 0.0
C128 C 0.8096 0.53185 0.97289 0.0
C129 C 0.75993 0.53521 0.99574 0.0
H130 H 0.38859 0.09048 0.93961 0.0
H131 H 0.45747 0.28916 0.92846 0.0
H132 H 0.51689 0.22713 0.02303 0.0
H133 H 0.48018 0.32364 0.042 0.0
C134 C 0.4845 0.344 0.01457 0.0
O135 O 0.51994 0.32493 0.99185 0.0
H136 H 0.43314 0.3265 1.00299 0.0
C137 C 0.41888 0.13905 0.94999 0.0
C138 C 0.45431 0.15214 0.98361 0.0
C139 C 0.42146 0.18813 0.92935 0.0
C140 C 0.45742 0.25107 0.94327 0.0
C141 C 0.49054 0.2648 0.97733 0.0
C142 C 0.49029 0.21568 0.99703 0.0
H143 H 0.92766 0.27711 0.93895 0.0
H144 H 0.72195 0.12745 0.94337 0.0
H145 H 0.79002 0.29418 0.01331 0.0
H146 H 0.63902 0.15476 0.03977 0.0
C147 C 0.65327 0.13481 0.01611 0.0
O148 O 0.6848 0.18327 0.99151 0.0
H149 H 0.68733 0.11773 0.02559 0.0
C150 C 0.87865 0.25788 0.95151 0.0
C151 C 0.86723 0.29293 0.97965 0.0
C152 C 0.82707 0.19785 0.93891 0.0
C153 C 0.76274 0.17286 0.95368 0.0
C154 C 0.74938 0.20684 0.98066 0.0
C155 C 0.80158 0.26675 0.99389 0.0
H156 H 0.68367 0.74904 0.09934 0.0
H157 H 0.63231 0.896 0.09788 0.0
H158 H 0.53022 0.73316 0.02478 0.0
H159 H 0.57702 0.87883 0.99591 0.0
C160 C 0.57271 0.8956 0.02394 0.0
O161 O 0.54289 0.8441 0.04643 0.0
H162 H 0.62444 0.93105 0.03379 0.0
C163 C 0.65464 0.76806 0.08738 0.0
C164 C 0.60662 0.73347 0.0593 0.0
C165 C 0.66519 0.82726 0.10063 0.0
C166 C 0.62597 0.85116 0.08701 0.0
C167 C 0.57855 0.81818 0.05929 0.0
C168 C 0.56896 0.75951 0.04516 0.0
H169 H 0.2958 0.93217 0.10126 0.0
H170 H 0.18428 0.72904 0.10501 0.0
H171 H 0.31898 0.81786 0.0153 0.0
H172 H 0.18624 0.69754 0.98998 0.0
C173 C 0.16823 0.68162 0.01812 0.0
O174 O 0.22358 0.70795 0.0416 0.0
H175 H 0.13289 0.69863 0.02633 0.0
C176 C 0.28502 0.8867 0.08911 0.0
C177 C 0.31535 0.8837 0.05561 0.0
C178 C 0.24089 0.83183 0.108 0.0
C179 C 0.22135 0.77191 0.09178 0.0
C180 C 0.24755 0.76677 0.05781 0.0
C181 C 0.29675 0.82257 0.04052 0.0
H182 H 0.0955 0.36913 0.08907 0.0
H183 H 0.3021 0.45321 0.11891 0.0
H184 H 0.24602 0.51662 0.02279 0.0
H185 H 0.3666 0.45573 0.02843 0.0
C186 C 0.387 0.48736 0.05262 0.0
O187 O 0.35084 0.51896 0.05965 0.0
H188 H 0.37872 0.4549 0.07539 0.0
C189 C 0.14733 0.40389 0.08298 0.0
C190 C 0.16264 0.44413 0.0531 0.0
C191 C 0.19626 0.40833 0.10709 0.0
C192 C 0.26414 0.45081 0.10041 0.0
C193 C 0.2835 0.48609 0.0682 0.0
C194 C 0.23219 0.48536 0.04549 0.0
H195 H 0.39711 0.96543 0.27567 0.0
H196 H 0.52536 0.88944 0.25442 0.0
H197 H 0.41155 0.84493 0.35498 0.0
H198 H 0.59719 0.90448 0.34506 0.0
C199 C 0.58233 0.87184 0.32125 0.0
O200 O 0.51183 0.83706 0.31747 0.0
H201 H 0.60439 0.9036 0.29768 0.0
C202 C 0.41565 0.93494 0.28485 0.0
C203 C 0.39502 0.90436 0.31847 0.0
C204 C 0.46183 0.9298 0.26221 0.0
C205 C 0.48907 0.89253 0.27222 0.0
C206 C 0.47543 0.86496 0.30676 0.0
C207 C 0.42597 0.86894 0.3295 0.0
H208 H 0.05521 0.42478 0.27306 0.0
H209 H 0.12368 0.62329 0.2616 0.0
H210 H 0.18297 0.56184 0.35648 0.0
H211 H 0.1444 0.6579 0.37487 0.0
C212 C 0.14981 0.6784 0.34738 0.0
O213 O 0.18577 0.65941 0.32505 0.0
H214 H 0.09837 0.66067 0.33587 0.0
C215 C 0.08541 0.47339 0.2834 0.0
C216 C 0.12074 0.48666 0.31707 0.0
C217 C 0.08792 0.52234 0.26265 0.0
C218 C 0.1237 0.58532 0.2765 0.0
C219 C 0.15668 0.59924 0.3106 0.0
C220 C 0.15649 0.55026 0.33044 0.0
H221 H 0.59428 0.61125 0.27254 0.0
H222 H 0.3885 0.46172 0.27679 0.0
H223 H 0.45626 0.62894 0.3463 0.0
H224 H 0.30485 0.49056 0.37305 0.0
C225 C 0.31939 0.47043 0.34959 0.0
O226 O 0.35104 0.51801 0.32448 0.0
H227 H 0.35379 0.45408 0.35955 0.0
C228 C 0.5452 0.59213 0.285 0.0
C229 C 0.53367 0.62736 0.31297 0.0
C230 C 0.49367 0.53206 0.27243 0.0
C231 C 0.42924 0.50718 0.28707 0.0
C232 C 0.41572 0.54139 0.31383 0.0
C233 C 0.4679 0.60136 0.32704 0.0
Eu234 Eu 0.46835 0.98488 0.96945 0.0
C235 C 0.56366 0.16588 0.1127 0.0
C236 C 0.66605 0.17832 0.13976 0.0
C237 C 0.6261 0.25025 0.15862 0.0
C238 C 0.61069 0.14619 0.11532 0.0
C239 C 0.57039 0.21764 0.13485 0.0
C240 C 0.67385 0.23078 0.16099 0.0
C241 C 0.45977 0.19299 0.11428 0.0
N242 N 0.50649 0.12882 0.09285 0.0
C243 C 0.45397 0.14049 0.09432 0.0
C244 C 0.518 0.2315 0.13483 0.0
Eu245 Eu 0.49209 0.03162 0.06748 0.0
N246 N 0.59992 0.09306 0.09602 0.0
C247 C 0.64504 0.07198 0.09853 0.0
C248 C 0.71178 0.15649 0.14249 0.0
C249 C 0.70176 0.1037 0.12133 0.0
H250 H 0.40712 0.10866 0.0802 0.0
H251 H 0.73688 0.08639 0.12323 0.0
H252 H 0.716 0.25588 0.17987 0.0
H253 H 0.41823 0.20221 0.11498 0.0
H254 H 0.63753 0.02979 0.0839 0.0
H255 H 0.19578 0.8377 0.95657 0.0
H256 H 0.75506 0.18016 0.16075 0.0
H257 H 0.59077 0.96666 0.93205 0.0
H258 H 0.30349 0.93184 0.97628 0.0
H259 H 0.60146 0.89176 0.88886 0.0
H260 H 0.63137 0.2888 0.17659 0.0
H261 H 0.19649 0.75123 0.91932 0.0
H262 H 0.26348 0.71422 0.88294 0.0
H263 H 0.52019 0.2696 0.15205 0.0
H264 H 0.37352 0.7289 0.86404 0.0
N265 N 0.3635 0.89398 0.95565 0.0
C266 C 0.30396 0.89212 0.9624 0.0
C267 C 0.24363 0.79077 0.92966 0.0
C268 C 0.3053 0.79531 0.92066 0.0
C269 C 0.243 0.83954 0.95059 0.0
C270 C 0.36526 0.84723 0.93509 0.0
H271 H 0.49918 0.79428 0.86627 0.0
N272 N 0.48437 0.90896 0.93625 0.0
C273 C 0.55234 0.88091 0.89875 0.0
C274 C 0.42752 0.85554 0.92447 0.0
C275 C 0.54623 0.92283 0.92342 0.0
C276 C 0.49449 0.82591 0.8861 0.0
C277 C 0.43113 0.81293 0.8987 0.0
O278 O 0.52422 0.04484 0.92382 0.0
O279 O 0.53456 0.04744 0.01365 0.0
O280 O 0.49482 0.1103 0.03201 0.0
O281 O 0.41942 0.04115 0.9888 0.0
O282 O 0.58373 0.05739 0.96601 0.0
O283 O 0.41589 1.00252 0.92558 0.0
O284 O 0.42333 0.99989 0.11372 0.0
O285 O 0.42378 0.95385 0.02698 0.0
O286 O 0.49646 0.91793 0.99287 0.0
O287 O 0.54073 0.97098 0.04945 0.0
O288 O 0.38187 0.99586 0.05891 0.0
O289 O 0.49903 0.97223 0.10939 0.0
C290 C 0.59076 0.07949 0.99916 0.0
C291 C 0.4668 0.01094 0.86744 0.0
C292 C 0.50595 0.03117 0.80436 0.0
C293 C 0.50686 0.05375 0.84045 0.0
C294 C 0.46831 0.96533 0.79617 0.0
C295 C 0.42538 0.94622 0.8576 0.0
C296 C 0.42788 0.92323 0.82263 0.0
C297 C 0.45462 0.09919 1.00326 0.0
C298 C 0.47016 0.03319 0.90589 0.0
C299 C 0.37154 0.76111 0.88454 0.0
C300 C 0.3089 0.75243 0.89549 0.0
C301 C 0.36775 0.94557 0.03914 0.0
C302 C 0.47336 0.9945 0.16858 0.0
C303 C 0.46669 0.95103 0.19519 0.0
C304 C 0.48794 0.97315 0.23141 0.0
C305 C 0.52083 0.03889 0.23999 0.0
C306 C 0.49863 0.05862 0.17919 0.0
C307 C 0.52522 0.08134 0.21402 0.0
C308 C 0.5324 0.92844 0.02281 0.0
C309 C 0.45333 0.97377 0.1301 0.0
H310 H 0.53582 0.10445 0.84704 0.0
H311 H 0.4666 0.94711 0.76851 0.0
H312 H 0.39033 0.91337 0.87669 0.0
H313 H 0.39651 0.87296 0.81567 0.0
H314 H 0.44165 0.90041 0.18835 0.0
H315 H 0.53744 0.05656 0.26777 0.0
H316 H 0.49573 0.09079 0.16099 0.0
H317 H 0.54608 0.13135 0.2214 0.0
Eu318 Eu 0.0589 0.48402 0.96333 0.0
C319 C 0.85399 0.40542 0.07621 0.0
C320 C 0.82105 0.48509 0.07412 0.0
C321 C 0.73548 0.37291 0.07754 0.0
C322 C 0.87093 0.46797 0.07326 0.0
C323 C 0.78655 0.35735 0.0801 0.0
C324 C 0.75291 0.43684 0.07408 0.0
C325 C 0.82634 0.28381 0.09096 0.0
N326 N 0.90454 0.39207 0.07651 0.0
C327 C 0.8927 0.33367 0.0872 0.0
C328 C 0.77296 0.29537 0.08599 0.0
Eu329 Eu 1.01115 0.47463 0.05685 0.0
N330 N 0.93698 0.51256 0.07176 0.0
C331 C 0.95758 0.57557 0.07804 0.0
C332 C 0.84163 0.55002 0.07541 0.0
C333 C 0.90993 0.59543 0.07964 0.0
H334 H 0.93395 0.32427 0.0891 0.0
H335 H 0.92599 0.64566 0.08225 0.0
H336 H 0.71352 0.44856 0.07235 0.0
H337 H 0.81656 0.23624 0.09606 0.0
H338 H 1.01045 0.61109 0.07925 0.0
H339 H 0.03523 0.24468 0.98177 0.0
H340 H 0.80534 0.56552 0.07377 0.0
H341 H 0.19497 0.61101 0.9292 0.0
H342 H 1.0147 0.33045 0.99726 0.0
H343 H 0.28408 0.63143 0.88445 0.0
H344 H 0.68283 0.33637 0.0791 0.0
H345 H 0.11609 0.25676 0.9336 0.0
H346 H 0.20461 0.32705 0.89099 0.0
H347 H 0.72163 0.25652 0.0862 0.0
H348 H 0.27057 0.43156 0.86319 0.0
N349 N 0.08051 0.39491 0.95691 0.0
C350 C 0.04963 0.33877 0.97563 0.0
C351 C 0.10673 0.29558 0.93997 0.0
C352 C 0.14177 0.35347 0.92249 0.0
C353 C 0.06134 0.28869 0.96713 0.0
C354 C 0.12794 0.40294 0.93175 0.0
H355 H 0.30069 0.54506 0.86096 0.0
N356 N 0.1591 0.51123 0.93052 0.0
C357 C 0.25143 0.58409 0.89363 0.0
C358 C 0.16746 0.46262 0.91764 0.0
C359 C 0.20085 0.57182 0.9191 0.0
C360 C 0.26049 0.53484 0.88014 0.0
C361 C 0.21919 0.47345 0.89254 0.0
O362 O 0.06983 0.56122 0.92884 0.0
O363 O 1.00411 0.51282 1.00432 0.0
O364 O 0.92758 0.38498 0.02365 0.0
O365 O 0.96963 0.38635 0.96535 0.0
O366 O 0.95189 0.46893 0.95771 0.0
O367 O 0.02705 0.46437 0.90636 0.0
O368 O 0.04198 0.4471 0.1068 0.0
O369 O 0.09808 0.48602 0.02105 0.0
O370 O 0.13759 0.57848 0.98997 0.0
O371 O 0.08021 0.58046 0.04231 0.0
O372 O 0.04516 0.40393 0.04883 0.0
O373 O 0.05787 0.54115 0.10386 0.0
C374 C 0.94923 0.49662 0.98769 0.0
C375 C 0.06891 0.54634 0.8632 0.0
C376 C 0.04765 0.53069 0.79741 0.0
C377 C 0.03267 0.50735 0.83286 0.0
C378 C 0.10162 0.59255 0.79209 0.0
C379 C 0.12154 0.60873 0.85756 0.0
C380 C 0.1389 0.63104 0.82207 0.0
C381 C 0.92363 0.35828 0.99055 0.0
C382 C 0.044 0.52317 0.90007 0.0
C383 C 0.23048 0.42363 0.88196 0.0
C384 C 0.19255 0.36405 0.89743 0.0
C385 C 0.10214 0.43962 0.03335 0.0
C386 C 0.03248 0.49521 0.16203 0.0
C387 C 0.07402 0.51169 0.19355 0.0
C388 C 0.04628 0.50636 0.22882 0.0
C389 C 0.97715 0.48454 0.23216 0.0
C390 C 0.96357 0.47393 0.16625 0.0
C391 C 0.9362 0.46864 0.20106 0.0
C392 C 0.12964 0.6095 0.01824 0.0
C393 C 0.06041 0.50024 0.1248 0.0
H394 H 0.98946 0.46039 0.83702 0.0
H395 H 0.11323 0.61174 0.76491 0.0
H396 H 0.14786 0.64074 0.88049 0.0
H397 H 0.17952 0.67921 0.8179 0.0
H398 H 0.12731 0.52814 0.19069 0.0
H399 H 0.95489 0.47997 0.25896 0.0
H400 H 0.93084 0.46139 0.14262 0.0
H401 H 0.88296 0.45211 0.20393 0.0
Eu402 Eu 0.58245 0.53775 0.07595 0.0
C403 C 0.46809 0.62241 0.96424 0.0
C404 C 0.35062 0.54276 0.96782 0.0
C405 C 0.38382 0.65473 0.96371 0.0
C406 C 0.41876 0.55992 0.96787 0.0
C407 C 0.4513 0.67023 0.95996 0.0
C408 C 0.33366 0.591 0.96839 0.0
C409 C 0.56829 0.74298 0.94621 0.0
N410 N 0.53274 0.63562 0.96281 0.0
C411 C 0.58238 0.69375 0.95122 0.0
C412 C 0.50284 0.73166 0.95194 0.0
Eu413 Eu 0.55246 0.55301 0.98172 0.0
N414 N 0.43754 0.51529 0.96853 0.0
C415 C 0.39126 0.4525 0.96166 0.0
C416 C 0.30226 0.47779 0.96626 0.0
C417 C 0.32252 0.4326 0.9609 0.0
H418 H 0.63361 0.70327 0.94868 0.0
H419 H 0.28541 0.38243 0.95791 0.0
H420 H 0.28195 0.57939 0.97123 0.0
H421 H 0.60819 0.79 0.93915 0.0
H422 H 0.40636 0.41706 0.95876 0.0
H423 H 0.82763 0.76694 0.06893 0.0
H424 H 0.24938 0.46207 0.96812 0.0
H425 H 0.56324 0.39877 0.10482 0.0
H426 H 0.71559 0.68898 0.04778 0.0
H427 H 0.61802 0.36402 0.14803 0.0
H428 H 0.36974 0.6911 0.96207 0.0
H429 H 0.88251 0.74204 0.1184 0.0
H430 H 0.88205 0.66086 0.1582 0.0
H431 H 0.49252 0.77032 0.95005 0.0
H432 H 0.82494 0.55173 0.18046 0.0
N433 N 0.70046 0.61763 0.08624 0.0
C434 C 0.73621 0.67569 0.06987 0.0
C435 C 0.83182 0.70696 0.10958 0.0
C436 C 0.79822 0.64653 0.1244 0.0
C437 C 0.80117 0.72103 0.08163 0.0
C438 C 0.73217 0.60213 0.11185 0.0
H439 H 0.72731 0.44067 0.17637 0.0
N440 N 0.64158 0.4964 0.10734 0.0
C441 C 0.64224 0.41329 0.1411 0.0
C442 C 0.70162 0.53966 0.12279 0.0
C443 C 0.61187 0.43358 0.11602 0.0
C444 C 0.70365 0.45698 0.15728 0.0
C445 C 0.73468 0.52085 0.14783 0.0
O446 O 0.50648 0.46511 0.11124 0.0
O447 O 0.50072 0.51384 0.03392 0.0
O448 O 0.56808 0.64296 0.0151 0.0
O449 O 0.60627 0.63845 0.07316 0.0
O450 O 0.49534 0.55844 0.08049 0.0
O451 O 0.57307 0.56134 0.1329 0.0
O452 O 0.60493 0.58422 0.92905 0.0
O453 O 0.62259 0.5373 0.01831 0.0
O454 O 0.55593 0.44291 0.04807 0.0
O455 O 0.50632 0.4467 0.99349 0.0
O456 O 0.66279 0.62045 0.99189 0.0
O457 O 0.5379 0.48548 0.93646 0.0
C458 C 0.46334 0.5308 0.05065 0.0
C459 C 0.51839 0.48095 0.17707 0.0
C460 C 0.50488 0.49589 0.24247 0.0
C461 C 0.519 0.5195 0.2069 0.0
C462 C 0.49294 0.43414 0.24834 0.0
C463 C 0.50487 0.41879 0.18346 0.0
C464 C 0.49372 0.39618 0.21902 0.0
C465 C 0.59316 0.66847 0.04806 0.0
C466 C 0.52344 0.50443 0.13962 0.0
C467 C 0.79863 0.5656 0.16162 0.0
C468 C 0.83072 0.628 0.14943 0.0
C469 C 0.67826 0.58186 1.00678 0.0
C470 C 0.54483 0.52194 0.8764 0.0
C471 C 0.57478 0.51362 0.84423 0.0
C472 C 0.54338 0.50503 0.80961 0.0
C473 C 0.48229 0.50495 0.80761 0.0
C474 C 0.4842 0.52261 0.8733 0.0
C475 C 0.4531 0.51385 0.83923 0.0
C476 C 0.51958 0.41529 0.01816 0.0
C477 C 0.5752 0.52813 0.91322 0.0
H478 H 0.52627 0.56648 0.20211 0.0
H479 H 0.48134 0.41478 0.27548 0.0
H480 H 0.501 0.38692 0.16108 0.0
H481 H 0.48332 0.34822 0.22371 0.0
H482 H 0.62203 0.51379 0.84609 0.0
H483 H 0.45757 0.49877 0.78141 0.0
H484 H 0.46062 0.52969 0.89725 0.0
H485 H 0.40617 0.51414 0.83732 0.0
Eu486 Eu 0.13498 0.31951 0.30311 0.0
C487 C 0.22888 0.5007 0.4463 0.0
C488 C 0.3317 0.51417 0.47338 0.0
C489 C 0.2905 0.58506 0.49234 0.0
C490 C 0.27648 0.4817 0.44888 0.0
C491 C 0.23493 0.55212 0.4685 0.0
C492 C 0.33885 0.56634 0.49465 0.0
C493 C 0.12402 0.52644 0.44786 0.0
N494 N 0.17181 0.46316 0.42647 0.0
C495 C 0.11887 0.47422 0.42787 0.0
C496 C 0.18205 0.5653 0.46848 0.0
Eu497 Eu 0.15859 0.36639 0.4011 0.0
N498 N 0.2663 0.42877 0.42958 0.0
C499 C 0.31186 0.40824 0.43213 0.0
C500 C 0.37791 0.49292 0.47614 0.0
C501 C 0.36848 0.44034 0.45498 0.0
H502 H 0.0722 0.44213 0.41368 0.0
H503 H 0.40398 0.42347 0.45691 0.0
H504 H 0.38087 0.59168 0.51358 0.0
H505 H 0.08213 0.53516 0.44852 0.0
H506 H 0.30476 0.36619 0.4175 0.0
H507 H 0.8624 0.17228 0.29024 0.0
H508 H 0.42111 0.51688 0.49444 0.0
H509 H 0.25736 0.30135 0.2657 0.0
H510 H 0.97011 0.26653 0.30985 0.0
H511 H 0.26805 0.22644 0.22252 0.0
H512 H 0.29519 0.62326 0.51043 0.0
H513 H 0.86311 0.08561 0.25321 0.0
H514 H 0.93006 0.0484 0.217 0.0
H515 H 0.18378 0.6032 0.4857 0.0
H516 H 0.04015 0.0632 0.19802 0.0
N517 N 0.03013 0.22858 0.28936 0.0
C518 C 0.97058 0.22675 0.29605 0.0
C519 C 0.91026 0.12522 0.2635 0.0
C520 C 0.97192 0.12973 0.25454 0.0
C521 C 0.90962 0.1741 0.28431 0.0
C522 C 0.03189 0.18174 0.2689 0.0
H523 H 0.16579 0.12882 0.20004 0.0
N524 N 0.15099 0.24354 0.27 0.0
C525 C 0.21895 0.21554 0.23246 0.0
C526 C 0.09415 0.19007 0.25828 0.0
C527 C 0.21285 0.25746 0.25713 0.0
C528 C 0.1611 0.16047 0.21987 0.0
C529 C 0.09775 0.14741 0.23253 0.0
O530 O 0.1908 0.37933 0.25743 0.0
O531 O 0.20122 0.38204 0.34731 0.0
O532 O 0.16125 0.44503 0.36561 0.0
O533 O 0.08595 0.37571 0.32243 0.0
O534 O 0.25024 0.39248 0.29959 0.0
O535 O 0.08246 0.33695 0.25919 0.0
O536 O 0.09027 0.33418 0.44755 0.0
O537 O 0.09039 0.28853 0.36061 0.0
O538 O 0.16331 0.25274 0.32666 0.0
O539 O 0.20799 0.30644 0.38302 0.0
O540 O 0.04827 0.33025 0.39257 0.0
O541 O 0.16617 0.30687 0.44267 0.0
C542 C 0.25754 0.41392 0.3329 0.0
C543 C 0.13334 0.345 0.20109 0.0
C544 C 0.1728 0.36468 0.13806 0.0
C545 C 0.17363 0.38756 0.17406 0.0
C546 C 0.13502 0.29881 0.13001 0.0
C547 C 0.09172 0.28026 0.19136 0.0
C548 C 0.09432 0.25697 0.1565 0.0
C549 C 0.12111 0.43381 0.33681 0.0
C550 C 0.13671 0.36752 0.23947 0.0
C551 C 0.03816 0.09545 0.21848 0.0
C552 C 0.97551 0.08672 0.22946 0.0
C553 C 0.03429 0.28005 0.37276 0.0
C554 C 0.14067 0.32812 0.50211 0.0
C555 C 0.13318 0.2841 0.52854 0.0
C556 C 0.1547 0.30571 0.56479 0.0
C557 C 0.18851 0.3714 0.57359 0.0
C558 C 0.16699 0.39228 0.51293 0.0
C559 C 0.19372 0.41442 0.5478 0.0
C560 C 0.19911 0.26326 0.35668 0.0
C561 C 0.12047 0.30795 0.4636 0.0
H562 H 0.20271 0.43829 0.18054 0.0
H563 H 0.13335 0.28038 0.10241 0.0
H564 H 0.05647 0.24762 0.21046 0.0
H565 H 0.06282 0.20667 0.14964 0.0
H566 H 0.10741 0.23351 0.52154 0.0
H567 H 0.20529 0.38866 0.60141 0.0
H568 H 0.1648 0.42495 0.49487 0.0
H569 H 0.21536 0.46446 0.55535 0.0
Eu570 Eu 0.72552 0.81832 0.29668 0.0
C571 C 0.52063 0.73936 0.4097 0.0
C572 C 0.48745 0.81887 0.40781 0.0
C573 C 0.40207 0.70662 0.41116 0.0
C574 C 0.53743 0.80189 0.4068 0.0
C575 C 0.45323 0.69117 0.41355 0.0
C576 C 0.41935 0.77054 0.40784 0.0
C577 C 0.49325 0.61768 0.42407 0.0
N578 N 0.57127 0.7261 0.40986 0.0
C579 C 0.55956 0.66767 0.4204 0.0
C580 C 0.43978 0.62916 0.41921 0.0
Eu581 Eu 0.67775 0.80886 0.39024 0.0
N582 N 0.60343 0.84658 0.40515 0.0
C583 C 0.62393 0.90958 0.41134 0.0
C584 C 0.5079 0.88378 0.40915 0.0
C585 C 0.57619 0.92931 0.41312 0.0
H586 H 0.60088 0.65836 0.42222 0.0
H587 H 0.59214 0.97951 0.41571 0.0
H588 H 0.37988 0.78218 0.40622 0.0
H589 H 0.48356 0.57009 0.42901 0.0
H590 H 0.67678 0.94519 0.41238 0.0
H591 H 0.70167 0.57893 0.3151 0.0
H592 H 0.47152 0.89917 0.40771 0.0
H593 H 0.86173 0.94526 0.26251 0.0
H594 H 0.68132 0.66481 0.33065 0.0
H595 H 0.9505 0.96548 0.21756 0.0
H596 H 0.34944 0.67 0.41272 0.0
H597 H 0.7821 0.59077 0.26673 0.0
H598 H 0.87026 0.66086 0.22389 0.0
H599 H 0.38851 0.59023 0.4193 0.0
H600 H 0.93616 0.76529 0.19599 0.0
N601 N 0.74702 0.72916 0.29023 0.0
C602 C 0.71619 0.67306 0.30899 0.0
C603 C 0.77289 0.62966 0.27315 0.0
C604 C 0.80784 0.6875 0.2556 0.0
C605 C 0.72775 0.62291 0.30043 0.0
C606 C 0.79422 0.73707 0.26495 0.0
H607 H 0.96664 0.87891 0.19389 0.0
N608 N 0.82562 0.84542 0.26378 0.0
C609 C 0.91784 0.91816 0.22678 0.0
C610 C 0.83373 0.79671 0.2508 0.0
C611 C 0.86744 0.90599 0.25236 0.0
C612 C 0.92661 0.86879 0.21317 0.0
C613 C 0.88524 0.80742 0.22557 0.0
O614 O 0.73669 0.89543 0.26199 0.0
O615 O 0.67081 0.84712 0.33776 0.0
O616 O 0.59405 0.71942 0.35696 0.0
O617 O 0.63623 0.72066 0.29872 0.0
O618 O 0.61876 0.80369 0.29101 0.0
O619 O 0.69303 0.7983 0.23984 0.0
O620 O 0.70913 0.78152 0.44006 0.0
O621 O 0.76465 0.82026 0.35442 0.0
O622 O 0.80418 0.91285 0.32326 0.0
O623 O 0.74699 0.91472 0.37573 0.0
O624 O 0.71175 0.73817 0.38222 0.0
O625 O 0.72383 0.87519 0.43739 0.0
C626 C 0.61605 0.83115 0.32107 0.0
C627 C 0.73506 0.87975 0.19637 0.0
C628 C 0.71337 0.86322 0.13063 0.0
C629 C 0.6985 0.84042 0.1662 0.0
C630 C 0.76748 0.92489 0.12502 0.0
C631 C 0.78787 0.94194 0.19044 0.0
C632 C 0.80505 0.96372 0.15484 0.0
C633 C 0.59013 0.69268 0.32387 0.0
C634 C 0.71038 0.85713 0.23335 0.0
C635 C 0.89625 0.75747 0.21487 0.0
C636 C 0.85834 0.69793 0.23038 0.0
C637 C 0.76871 0.77387 0.36673 0.0
C638 C 0.69905 0.82884 0.49546 0.0
C639 C 0.74071 0.84544 0.52694 0.0
C640 C 0.71294 0.8394 0.56226 0.0
C641 C 0.64365 0.81677 0.56568 0.0
C642 C 0.63 0.80681 0.49976 0.0
C643 C 0.60259 0.80082 0.53462 0.0
C644 C 0.79632 0.9438 0.3516 0.0
C645 C 0.72699 0.83444 0.45819 0.0
H646 H 0.65519 0.79361 0.17057 0.0
H647 H 0.77899 0.94368 0.09775 0.0
H648 H 0.81449 0.97421 0.21322 0.0
H649 H 0.8458 0.01174 0.15045 0.0
H650 H 0.79411 0.86249 0.52401 0.0
H651 H 0.62136 0.81164 0.59251 0.0
H652 H 0.59718 0.79421 0.47616 0.0
H653 H 0.54924 0.78368 0.53756 0.0
Eu654 Eu 0.24821 0.87212 0.40895 0.0
C655 C 0.13443 0.95715 0.29747 0.0
C656 C 1.017 0.87736 0.30092 0.0
C657 C 0.05006 0.98936 0.29732 0.0
C658 C 0.08515 0.89459 0.30088 0.0
C659 C 0.11756 1.00497 0.29346 0.0
C660 C 0.99996 0.92555 0.30181 0.0
C661 C 0.23444 0.07788 0.27959 0.0
N662 N 0.19909 0.97044 0.29592 0.0
C663 C 0.24861 0.02864 0.28433 0.0
C664 C 0.16901 0.06649 0.28554 0.0
Eu665 Eu 0.21891 0.88776 0.31463 0.0
N666 N 0.10403 0.85 0.30125 0.0
C667 C 0.05781 0.78727 0.29407 0.0
C668 C 0.96869 0.81238 0.29915 0.0
C669 C 0.98904 0.76731 0.29338 0.0
H670 H 0.29986 0.03824 0.28167 0.0
H671 H 0.95199 0.71715 0.29021 0.0
H672 H 0.94823 0.91386 0.30472 0.0
H673 H 0.27427 0.12497 0.27258 0.0
H674 H 0.073 0.75193 0.29088 0.0
H675 H 0.49424 0.10054 0.40219 0.0
H676 H 0.91581 0.79658 0.3012 0.0
H677 H 0.22827 0.73275 0.43756 0.0
H678 H 0.3822 0.02295 0.38081 0.0
H679 H 0.28225 0.69749 0.48089 0.0
H680 H 0.03592 0.02572 0.2959 0.0
H681 H 0.54832 0.07533 0.45194 0.0
H682 H 0.54703 0.99388 0.49185 0.0
H683 H 0.15867 0.10516 0.28392 0.0
H684 H 0.48925 0.88469 0.51406 0.0
N685 N 0.36633 0.95155 0.41939 0.0
C686 C 0.4025 0.00954 0.403 0.0
C687 C 0.49765 0.04042 0.44301 0.0
C688 C 0.46363 0.98001 0.45784 0.0
C689 C 0.46744 0.05467 0.4149 0.0
C690 C 0.39764 0.93583 0.44513 0.0
H691 H 0.39133 0.77374 0.50966 0.0
N692 N 0.30682 0.83029 0.44036 0.0
C693 C 0.30676 0.74682 0.47407 0.0
C694 C 0.36675 0.87332 0.456 0.0
C695 C 0.27684 0.76739 0.4489 0.0
C696 C 0.36803 0.79028 0.49049 0.0
C697 C 0.39938 0.85422 0.48115 0.0
O698 O 0.1718 0.79941 0.44403 0.0
O699 O 0.16687 0.84878 0.36682 0.0
O700 O 0.23546 0.97804 0.34806 0.0
O701 O 0.27274 0.97301 0.40627 0.0
O702 O 0.1616 0.89359 0.41329 0.0
O703 O 0.23848 0.89545 0.46589 0.0
O704 O 0.27054 0.91933 0.26178 0.0
O705 O 0.28836 0.87143 0.35138 0.0
O706 O 0.22132 0.77726 0.38098 0.0
O707 O 0.17209 0.78131 0.3263 0.0
O708 O 0.32942 0.95454 0.32491 0.0
O709 O 0.20569 0.82034 0.26954 0.0
C710 C 0.12963 0.86601 0.38344 0.0
C711 C 0.18371 0.8148 0.50987 0.0
C712 C 0.17079 0.82954 0.57537 0.0
C713 C 0.18484 0.85334 0.53984 0.0
C714 C 0.15846 0.7676 0.58105 0.0
C715 C 0.16974 0.75244 0.51607 0.0
C716 C 0.15871 0.72964 0.55159 0.0
C717 C 0.26025 1.00334 0.3811 0.0
C718 C 0.18874 0.83856 0.4725 0.0
C719 C 0.46325 0.89877 0.49513 0.0
C720 C 0.49571 0.96122 0.48299 0.0
C721 C 0.3443 0.91562 0.33991 0.0
C722 C 0.2112 0.85582 0.20933 0.0
C723 C 0.2413 0.84749 0.17722 0.0
C724 C 0.2095 0.83781 0.14261 0.0
C725 C 0.14785 0.83666 0.14058 0.0
C726 C 0.15006 0.85551 0.20616 0.0
C727 C 0.11855 0.84565 0.17212 0.0
C728 C 0.18448 0.74965 0.35121 0.0
C729 C 0.24202 0.86311 0.24614 0.0
H730 H 0.19241 0.90047 0.5352 0.0
H731 H 0.14689 0.74809 0.60816 0.0
H732 H 0.16543 0.72058 0.49359 0.0
H733 H 0.14796 0.68152 0.55613 0.0
H734 H 0.28896 0.84846 0.17911 0.0
H735 H 0.12279 0.82962 0.11439 0.0
H736 H 0.12641 0.86271 0.23004 0.0
H737 H 0.07121 0.84518 0.17016 0.0
Eu738 Eu 0.8021 0.65283 0.63648 0.0
C739 C 0.89591 0.83383 0.77976 0.0
C740 C 0.99862 0.84708 0.80687 0.0
C741 C 0.95755 0.91807 0.82587 0.0
C742 C 0.9434 0.8147 0.78236 0.0
C743 C 0.90204 0.88528 0.80197 0.0
C744 C 1.00579 0.89922 0.82819 0.0
C745 C 0.79136 0.86 0.78115 0.0
N746 N 0.83896 0.79654 0.75979 0.0
C747 C 0.78614 0.80777 0.76113 0.0
C748 C 0.84932 0.89867 0.80187 0.0
Eu749 Eu 0.82555 0.69966 0.73448 0.0
N750 N 0.93329 0.76192 0.76293 0.0
C751 C 0.97893 0.74147 0.76533 0.0
C752 C 0.04486 0.82585 0.80953 0.0
C753 C 0.03551 0.77344 0.78822 0.0
H754 H 0.73949 0.7758 0.74688 0.0
H755 H 0.07107 0.75662 0.79005 0.0
H756 H 0.04781 0.92449 0.84713 0.0
H757 H 0.74957 0.86887 0.78176 0.0
H758 H 0.97193 0.69958 0.75054 0.0
H759 H 0.52957 0.50526 0.62352 0.0
H760 H 0.08806 0.84973 0.82784 0.0
H761 H 0.92467 0.63494 0.5991 0.0
H762 H 0.63718 0.59959 0.64318 0.0
H763 H 0.93558 0.56014 0.55592 0.0
H764 H 0.9623 0.9563 0.84395 0.0
H765 H 0.53049 0.41874 0.58644 0.0
H766 H 0.59763 0.38173 0.55022 0.0
H767 H 0.85111 0.9366 0.81909 0.0
H768 H 0.70778 0.39666 0.53131 0.0
N769 N 0.69735 0.56181 0.62267 0.0
C770 C 0.63774 0.55987 0.62936 0.0
C771 C 0.57759 0.45837 0.59675 0.0
C772 C 0.63932 0.463 0.5878 0.0
C773 C 0.57684 0.50717 0.61759 0.0
C774 C 0.69922 0.51506 0.60219 0.0
H775 H 0.83344 0.46244 0.5334 0.0
N776 N 0.81832 0.577 0.60335 0.0
C777 C 0.88644 0.54916 0.56583 0.0
C778 C 0.76154 0.52349 0.59158 0.0
C779 C 0.88022 0.59102 0.5905 0.0
C780 C 0.82866 0.49405 0.55322 0.0
C781 C 0.76526 0.4809 0.56584 0.0
O782 O 0.85789 0.71266 0.59079 0.0
O783 O 0.86833 0.71516 0.68075 0.0
O784 O 0.82833 0.77832 0.69898 0.0
O785 O 0.75301 0.70894 0.65582 0.0
O786 O 0.91729 0.72606 0.63297 0.0
O787 O 0.74955 0.6703 0.59258 0.0
O788 O 0.75686 0.66731 0.78075 0.0
O789 O 0.75744 0.62175 0.69398 0.0
O790 O 0.8305 0.58608 0.65997 0.0
O791 O 0.87454 0.63927 0.71654 0.0
O792 O 0.71522 0.66344 0.7259 0.0
O793 O 0.83364 0.64106 0.77651 0.0
C794 C 0.92459 0.74729 0.66632 0.0
C795 C 0.8004 0.67859 0.53444 0.0
C796 C 0.83946 0.69865 0.47133 0.0
C797 C 0.84042 0.72133 0.50741 0.0
C798 C 0.8018 0.63279 0.4632 0.0
C799 C 0.75896 0.61385 0.52464 0.0
C800 C 0.7614 0.59077 0.4897 0.0
C801 C 0.78819 0.76706 0.67018 0.0
C802 C 0.8038 0.70094 0.57286 0.0
C803 C 0.70573 0.4289 0.55176 0.0
C804 C 0.64303 0.42007 0.56271 0.0
C805 C 0.7013 0.61322 0.70611 0.0
C806 C 0.80751 0.66298 0.83567 0.0
C807 C 0.80191 0.61993 0.8623 0.0
C808 C 0.82292 0.6423 0.89853 0.0
C809 C 0.85471 0.70801 0.90705 0.0
C810 C 0.83156 0.72692 0.84624 0.0
C811 C 0.85806 0.75002 0.88105 0.0
C812 C 0.86593 0.59632 0.69011 0.0
C813 C 0.7876 0.64197 0.7972 0.0
H814 H 0.86939 0.77204 0.51395 0.0
H815 H 0.80004 0.6145 0.43555 0.0
H816 H 0.72394 0.58104 0.54377 0.0
H817 H 0.73002 0.54048 0.48278 0.0
H818 H 0.77775 0.56935 0.85549 0.0
H819 H 0.87117 0.72589 0.93482 0.0
H820 H 0.82777 0.75863 0.82804 0.0
H821 H 0.878 0.79991 0.88841 0.0
Eu822 Eu 0.39249 0.15165 0.62997 0.0
C823 C 0.18754 0.0725 0.74308 0.0
C824 C 0.15438 0.15203 0.74123 0.0
C825 C 0.06899 0.03978 0.7446 0.0
C826 C 0.20434 0.13503 0.7402 0.0
C827 C 0.12015 0.02431 0.74697 0.0
C828 C 0.08628 0.1037 0.74126 0.0
C829 C 0.16017 0.95081 0.75741 0.0
N830 N 0.23817 0.05923 0.74317 0.0
C831 C 0.22647 1.00078 0.75366 0.0
C832 C 0.1067 0.96231 0.75265 0.0
Eu833 Eu 0.34463 0.14201 0.72355 0.0
N834 N 0.27034 0.17973 0.73854 0.0
C835 C 0.29086 0.24272 0.74477 0.0
C836 C 0.17484 0.21694 0.74259 0.0
C837 C 0.24314 0.26245 0.74657 0.0
H838 H 0.26778 0.99145 0.75542 0.0
H839 H 0.2591 0.31266 0.74919 0.0
H840 H 0.04683 0.11534 0.73962 0.0
H841 H 0.15048 0.90322 0.76235 0.0
H842 H 0.34372 0.27831 0.74582 0.0
H843 H 0.36795 0.91195 0.64823 0.0
H844 H 0.13847 0.23234 0.74116 0.0
H845 H 0.52892 0.27856 0.59599 0.0
H846 H 0.34772 0.99789 0.66377 0.0
H847 H 0.6181 0.29887 0.55131 0.0
H848 H 1.01636 1.00317 0.74617 0.0
H849 H 0.44883 0.92392 0.60009 0.0
H850 H 0.5375 0.99414 0.55753 0.0
H851 H 0.05542 0.92339 0.75281 0.0
H852 H 0.60373 0.09866 0.52979 0.0
N853 N 0.41378 0.06236 0.6235 0.0
C854 C 0.38269 0.00617 0.64216 0.0
C855 C 0.43963 0.96282 0.60649 0.0
C856 C 0.47484 0.02074 0.58905 0.0
C857 C 0.39422 0.95599 0.63363 0.0
C858 C 0.4612 0.07032 0.59835 0.0
H859 H 0.63433 0.21232 0.52771 0.0
N860 N 0.49272 0.17871 0.59722 0.0
C861 C 0.58527 0.25151 0.56042 0.0
C862 C 0.50087 0.13 0.58428 0.0
C863 C 0.53466 0.2393 0.58586 0.0
C864 C 0.59411 0.20216 0.54687 0.0
C865 C 0.5526 0.14075 0.55919 0.0
O866 O 0.40379 0.22887 0.59535 0.0
O867 O 0.33777 0.18038 0.67108 0.0
O868 O 0.26084 0.05272 0.69022 0.0
O869 O 0.30297 0.05408 0.63194 0.0
O870 O 0.28581 0.13719 0.62426 0.0
O871 O 0.36037 0.13185 0.57304 0.0
O872 O 0.37597 0.11455 0.77334 0.0
O873 O 0.43147 0.15338 0.6877 0.0
O874 O 0.47113 0.24612 0.65664 0.0
O875 O 0.41391 0.24789 0.70913 0.0
O876 O 0.37845 0.07121 0.71544 0.0
O877 O 0.39082 0.20828 0.77071 0.0
C878 C 0.28304 0.16448 0.65437 0.0
C879 C 0.4025 0.21356 0.52971 0.0
C880 C 0.38099 0.19761 0.46394 0.0
C881 C 0.36594 0.17453 0.49945 0.0
C882 C 0.43527 0.25926 0.45849 0.0
C883 C 0.45547 0.27574 0.52394 0.0
C884 C 0.47283 0.29779 0.48839 0.0
C885 C 0.25685 0.02609 0.65709 0.0
C886 C 0.37767 0.1907 0.56664 0.0
C887 C 0.56367 0.09082 0.54856 0.0
C888 C 0.52558 0.03123 0.56399 0.0
C889 C 0.43541 0.10689 0.69995 0.0
C890 C 0.36594 0.16187 0.82876 0.0
C891 C 0.40755 0.1783 0.86025 0.0
C892 C 0.37977 0.17234 0.89556 0.0
C893 C 0.31052 0.14994 0.89897 0.0
C894 C 0.29693 0.14005 0.83304 0.0
C895 C 0.26952 0.13413 0.86789 0.0
C896 C 0.46328 0.27701 0.68503 0.0
C897 C 0.39389 0.16746 0.79149 0.0
H898 H 0.32251 0.12774 0.5037 0.0
H899 H 0.44694 0.27827 0.43127 0.0
H900 H 0.48208 0.3078 0.54679 0.0
H901 H 0.51371 0.3458 0.48413 0.0
H902 H 0.46091 0.19517 0.85734 0.0
H903 H 0.28822 0.14485 0.92578 0.0
H904 H 0.26415 0.12757 0.80944 0.0
H905 H 0.21619 0.11716 0.87082 0.0
Eu906 Eu 0.91518 0.20516 0.74237 0.0
C907 C 0.80143 0.29062 0.63104 0.0
C908 C 0.68392 0.21112 0.6347 0.0
C909 C 0.71734 0.32319 0.63089 0.0
C910 C 0.75201 0.22815 0.6346 0.0
C911 C 0.78476 0.33856 0.62698 0.0
C912 C 0.6671 0.25947 0.6355 0.0
C913 C 0.90168 0.41119 0.61304 0.0
N914 N 0.86603 0.30372 0.62945 0.0
C915 C 0.91566 0.36184 0.61783 0.0
C916 C 0.83633 0.39999 0.61899 0.0
Eu917 Eu 0.88558 0.22087 0.64813 0.0
N918 N 0.77067 0.1834 0.63507 0.0
C919 C 0.72425 0.12067 0.62812 0.0
C920 C 0.63545 0.14619 0.63306 0.0
C921 C 0.65554 0.10092 0.62749 0.0
H922 H 0.96685 0.37128 0.61516 0.0
H923 H 0.61835 0.05078 0.62445 0.0
H924 H 0.61543 0.24796 0.63846 0.0
H925 H 0.9416 0.45821 0.606 0.0
H926 H 0.73923 0.08517 0.62503 0.0
H927 H 0.16098 0.43373 0.7354 0.0
H928 H 0.5826 0.13055 0.63502 0.0
H929 H 0.89565 0.06591 0.77094 0.0
H930 H 0.04893 0.35595 0.7141 0.0
H931 H 0.94976 0.03085 0.81433 0.0
H932 H 0.70336 0.35965 0.62943 0.0
H933 H 0.21523 0.40875 0.78518 0.0
H934 H 0.21415 0.32746 0.82515 0.0
H935 H 0.82613 0.43876 0.61732 0.0
H936 H 0.15654 0.21832 0.84745 0.0
N937 N 0.03326 0.28472 0.75275 0.0
C938 C 0.06933 0.34266 0.7363 0.0
C939 C 0.16457 0.37377 0.77628 0.0
C940 C 0.13065 0.3134 0.79117 0.0
C941 C 0.13427 0.38788 0.74816 0.0
C942 C 0.06466 0.26913 0.77849 0.0
H943 H 0.05875 0.1073 0.84312 0.0
N944 N 0.97399 0.16352 0.77377 0.0
C945 C 0.97415 0.08017 0.80751 0.0
C946 C 0.03388 0.20665 0.78941 0.0
C947 C 0.94415 0.10063 0.78231 0.0
C948 C 0.03537 0.12375 0.82394 0.0
C949 C 0.0666 0.18767 0.81457 0.0
O950 O 0.83883 0.13223 0.77738 0.0
O951 O 0.8337 0.18185 0.70033 0.0
O952 O 0.90216 0.31109 0.68159 0.0
O953 O 0.93956 0.30604 0.73976 0.0
O954 O 0.82859 0.22655 0.74691 0.0
O955 O 0.90538 0.22821 0.79935 0.0
O956 O 0.93713 0.25226 0.59525 0.0
O957 O 0.9551 0.20447 0.68476 0.0
O958 O 0.8884 0.11037 0.71434 0.0
O959 O 0.83896 0.11442 0.65974 0.0
O960 O 0.99621 0.28751 0.65822 0.0
O961 O 0.87158 0.15335 0.60297 0.0
C962 C 0.79649 0.19897 0.71708 0.0
C963 C 0.85077 0.14735 0.84322 0.0
C964 C 0.83802 0.16186 0.90875 0.0
C965 C 0.85199 0.18579 0.87326 0.0
C966 C 0.82571 0.09991 0.91433 0.0
C967 C 0.83679 0.08495 0.84931 0.0
C968 C 0.82588 0.06203 0.8848 0.0
C969 C 0.92699 0.33637 0.71462 0.0
C970 C 0.8557 0.17125 0.8059 0.0
C971 C 0.13046 0.23231 0.82852 0.0
C972 C 0.16282 0.29473 0.81633 0.0
C973 C 1.01105 0.24857 0.67324 0.0
C974 C 0.87736 0.18906 0.54281 0.0
C975 C 0.90761 0.18111 0.51066 0.0
C976 C 0.87587 0.17165 0.47606 0.0
C977 C 0.81414 0.17035 0.47407 0.0
C978 C 0.81613 0.18859 0.53971 0.0
C979 C 0.78469 0.17897 0.50566 0.0
C980 C 0.85146 0.08276 0.6846 0.0
C981 C 0.90814 0.19605 0.57958 0.0
H982 H 0.85953 0.23293 0.86871 0.0
H983 H 0.81421 0.0803 0.94142 0.0
H984 H 0.83239 0.05316 0.82677 0.0
H985 H 0.81514 0.0139 0.88925 0.0
H986 H 0.95531 0.18216 0.51251 0.0
H987 H 0.78912 0.16345 0.44789 0.0
H988 H 0.79233 0.19544 0.56363 0.0
H989 H 0.73728 0.17837 0.50375 0.0
loop_
_geom_bond_atom_site_label_1
_geom_bond_atom_site_label_2
_geom_bond_distance
_geom_bond_site_symmetry_2
_ccdc_geom_bond_type
H0 C7 0.929 . S
H1 C10 0.930 . S
H2 C12 0.929 . S
H3 C4 0.969 . S
C4 H3 0.969 . S
C4 O5 1.550 . S
C4 H6 0.973 . S
O5 C4 1.550 . S
O5 C11 1.412 . S
H6 C4 0.973 . S
C7 H0 0.929 . S
C7 C8 1.400 . S
C7 C9 1.364 . S
C8 C7 1.400 . S
C8 C12 1.377 . S
C9 C7 1.364 . S
C9 C10 1.374 . S
C10 H1 0.930 . S
C10 C9 1.374 . S
C10 C11 1.383 . S
C11 O5 1.412 . S
C11 C10 1.383 . S
C11 C12 1.394 . S
C12 H2 0.929 . S
C12 C8 1.377 . S
C12 C11 1.394 . S
H13 C20 0.929 . S
H14 C23 0.930 . S
H15 C25 0.929 . S
H16 C17 0.969 . S
C17 H16 0.969 . S
C17 O18 1.550 1_565 S
C17 H19 0.973 . S
O18 C17 1.550 1_545 S
O18 C24 1.412 . S
H19 C17 0.973 . S
C20 H13 0.929 . S
C20 C21 1.400 . S
C20 C22 1.364 . S
C21 C20 1.400 . S
C21 C25 1.377 . S
C22 C20 1.364 . S
C22 C23 1.374 . S
C23 H14 0.930 . S
C23 C22 1.374 . S
C23 C24 1.383 . S
C24 O18 1.412 . S
C24 C23 1.383 . S
C24 C25 1.394 . S
C25 H15 0.929 . S
C25 C21 1.377 . S
C25 C24 1.394 . S
H26 C33 0.929 . S
H27 C36 0.930 . S
H28 C38 0.929 . S
H29 C30 0.969 . S
C30 H29 0.969 . S
C30 O31 1.550 1_455 S
C30 H32 0.973 . S
O31 C30 1.550 1_655 S
O31 C37 1.412 . S
H32 C30 0.973 . S
C33 H26 0.929 . S
C33 C34 1.400 . S
C33 C35 1.364 . S
C34 C33 1.400 . S
C34 C38 1.377 . S
C35 C33 1.364 . S
C35 C36 1.374 . S
C36 H27 0.930 . S
C36 C35 1.374 . S
C36 C37 1.383 . S
C37 O31 1.412 . S
C37 C36 1.383 . S
C37 C38 1.394 . S
C38 H28 0.929 . S
C38 C34 1.377 . S
C38 C37 1.394 . S
H39 C46 0.929 . S
H40 C49 0.930 . S
H41 C51 0.929 . S
H42 C43 0.969 . S
C43 H42 0.969 . S
C43 O44 1.550 . S
C43 H45 0.973 . S
O44 C43 1.550 . S
O44 C50 1.412 . S
H45 C43 0.973 . S
C46 H39 0.929 . S
C46 C47 1.400 . S
C46 C48 1.364 . S
C47 C46 1.400 . S
C47 C51 1.377 . S
C48 C46 1.364 . S
C48 C49 1.374 . S
C49 H40 0.930 . S
C49 C48 1.374 . S
C49 C50 1.383 . S
C50 O44 1.412 . S
C50 C49 1.383 . S
C50 C51 1.394 . S
C51 H41 0.929 . S
C51 C47 1.377 . S
C51 C50 1.394 . S
H52 C59 0.929 . S
H53 C62 0.930 . S
H54 C64 0.929 . S
H55 C56 0.969 . S
C56 H55 0.969 . S
C56 O57 1.550 1_545 S
C56 H58 0.973 . S
O57 C56 1.550 1_565 S
O57 C63 1.412 . S
H58 C56 0.973 . S
C59 H52 0.929 . S
C59 C60 1.400 . S
C59 C61 1.364 . S
C60 C59 1.400 . S
C60 C64 1.377 . S
C61 C59 1.364 . S
C61 C62 1.374 . S
C62 H53 0.930 . S
C62 C61 1.374 . S
C62 C63 1.383 . S
C63 O57 1.412 . S
C63 C62 1.383 . S
C63 C64 1.394 . S
C64 H54 0.929 . S
C64 C60 1.377 . S
C64 C63 1.394 . S
H65 C72 0.929 . S
H66 C75 0.930 . S
H67 C77 0.929 . S
H68 C69 0.969 . S
C69 H68 0.969 . S
C69 O70 1.550 1_655 S
C69 H71 0.973 . S
O70 C69 1.550 1_455 S
O70 C76 1.412 . S
H71 C69 0.973 . S
C72 H65 0.929 . S
C72 C73 1.400 . S
C72 C74 1.364 . S
C73 C72 1.400 . S
C73 C77 1.377 . S
C74 C72 1.364 . S
C74 C75 1.374 . S
C75 H66 0.930 . S
C75 C74 1.374 . S
C75 C76 1.383 . S
C76 O70 1.412 . S
C76 C75 1.383 . S
C76 C77 1.394 . S
C77 H67 0.929 . S
C77 C73 1.377 . S
C77 C76 1.394 . S
H78 C85 0.929 . S
H79 C88 0.930 . S
H80 C90 0.929 . S
H81 C82 0.969 . S
C82 H81 0.969 . S
C82 O83 1.550 . S
C82 H84 0.973 . S
O83 C82 1.550 . S
O83 C89 1.412 . S
H84 C82 0.973 . S
C85 H78 0.929 . S
C85 C86 1.400 . S
C85 C87 1.364 . S
C86 C85 1.400 . S
C86 C90 1.377 . S
C87 C85 1.364 . S
C87 C88 1.374 . S
C88 H79 0.930 . S
C88 C87 1.374 . S
C88 C89 1.383 . S
C89 O83 1.412 . S
C89 C88 1.383 . S
C89 C90 1.394 . S
C90 H80 0.929 . S
C90 C86 1.377 . S
C90 C89 1.394 . S
H91 C98 0.929 . S
H92 C101 0.930 . S
H93 C103 0.929 . S
H94 C95 0.969 . S
C95 H94 0.969 . S
C95 O96 1.550 . S
C95 H97 0.973 . S
O96 C95 1.550 . S
O96 C102 1.412 . S
H97 C95 0.973 . S
C98 H91 0.929 . S
C98 C99 1.400 . S
C98 C100 1.364 . S
C99 C98 1.400 . S
C99 C103 1.377 . S
C100 C98 1.364 . S
C100 C101 1.374 . S
C101 H92 0.930 . S
C101 C100 1.374 . S
C101 C102 1.383 . S
C102 O96 1.412 . S
C102 C101 1.383 . S
C102 C103 1.394 . S
C103 H93 0.929 . S
C103 C99 1.377 . S
C103 C102 1.394 . S
H104 C111 0.929 . S
H105 C114 0.930 . S
H106 C116 0.929 . S
H107 C108 0.969 . S
C108 H107 0.969 . S
C108 O109 1.550 . S
C108 H110 0.973 . S
O109 C108 1.550 . S
O109 C115 1.412 . S
H110 C108 0.973 . S
C111 H104 0.929 . S
C111 C112 1.400 . S
C111 C113 1.364 . S
C112 C111 1.400 . S
C112 C116 1.377 . S
C113 C111 1.364 . S
C113 C114 1.374 . S
C114 H105 0.930 . S
C114 C113 1.374 . S
C114 C115 1.383 . S
C115 O109 1.412 . S
C115 C114 1.383 . S
C115 C116 1.394 . S
C116 H106 0.929 . S
C116 C112 1.377 . S
C116 C115 1.394 . S
H117 C124 0.929 . S
H118 C127 0.930 . S
H119 C129 0.929 1_554 S
H120 C121 0.969 . S
C121 H120 0.969 . S
C121 O122 1.550 . S
C121 H123 0.973 . S
O122 C121 1.550 . S
O122 C128 1.412 . S
H123 C121 0.973 . S
C124 H117 0.929 . S
C124 C125 1.400 . S
C124 C126 1.364 . S
C125 C124 1.400 . S
C125 C129 1.377 . S
C126 C124 1.364 . S
C126 C127 1.374 . S
C127 H118 0.930 . S
C127 C126 1.374 . S
C127 C128 1.383 . S
C128 O122 1.412 . S
C128 C127 1.383 . S
C128 C129 1.394 . S
C129 H119 0.929 1_556 S
C129 C125 1.377 . S
C129 C128 1.394 . S
H130 C137 0.929 . S
H131 C140 0.930 . S
H132 C142 0.929 1_554 S
H133 C134 0.969 . S
C134 H133 0.969 . S
C134 O135 1.550 . S
C134 H136 0.973 . S
O135 C134 1.550 . S
O135 C141 1.412 . S
H136 C134 0.973 . S
C137 H130 0.929 . S
C137 C138 1.400 . S
C137 C139 1.364 . S
C138 C137 1.400 . S
C138 C142 1.377 . S
C139 C137 1.364 . S
C139 C140 1.374 . S
C140 H131 0.930 . S
C140 C139 1.374 . S
C140 C141 1.383 . S
C141 O135 1.412 . S
C141 C140 1.383 . S
C141 C142 1.394 . S
C142 H132 0.929 1_556 S
C142 C138 1.377 . S
C142 C141 1.394 . S
H143 C150 0.929 . S
H144 C153 0.930 . S
H145 C155 0.929 1_554 S
H146 C147 0.969 . S
C147 H146 0.969 . S
C147 O148 1.550 . S
C147 H149 0.973 . S
O148 C147 1.550 . S
O148 C154 1.412 . S
H149 C147 0.973 . S
C150 H143 0.929 . S
C150 C151 1.400 . S
C150 C152 1.364 . S
C151 C150 1.400 . S
C151 C155 1.377 . S
C152 C150 1.364 . S
C152 C153 1.374 . S
C153 H144 0.930 . S
C153 C152 1.374 . S
C153 C154 1.383 . S
C154 O148 1.412 . S
C154 C153 1.383 . S
C154 C155 1.394 . S
C155 H145 0.929 1_556 S
C155 C151 1.377 . S
C155 C154 1.394 . S
H156 C163 0.929 . S
H157 C166 0.930 . S
H158 C168 0.951 . S
H159 C160 0.969 . S
C160 H159 0.969 . S
C160 O161 1.550 . S
C160 H162 0.973 . S
O161 C160 1.550 . S
O161 C167 1.412 . S
H162 C160 0.973 . S
C163 H156 0.929 . S
C163 C164 1.400 . S
C163 C165 1.364 . S
C164 C163 1.400 . S
C164 C168 1.377 . S
C165 C163 1.364 . S
C165 C166 1.374 . S
C166 H157 0.930 . S
C166 C165 1.374 . S
C166 C167 1.383 . S
C167 O161 1.412 . S
C167 C166 1.383 . S
C167 C168 1.394 . S
C168 H158 0.951 . S
C168 C164 1.377 . S
C168 C167 1.394 . S
H169 C176 0.929 . S
H170 C179 0.930 . S
H171 C181 0.929 . S
H172 C173 0.969 . S
C173 H172 0.969 . S
C173 O174 1.550 . S
C173 H175 0.973 . S
O174 C173 1.550 . S
O174 C180 1.412 . S
H175 C173 0.973 . S
C176 H169 0.929 . S
C176 C177 1.400 . S
C176 C178 1.364 . S
C177 C176 1.400 . S
C177 C181 1.377 . S
C178 C176 1.364 . S
C178 C179 1.374 . S
C179 H170 0.930 . S
C179 C178 1.374 . S
C179 C180 1.383 . S
C180 O174 1.412 . S
C180 C179 1.383 . S
C180 C181 1.394 . S
C181 H171 0.929 . S
C181 C177 1.377 . S
C181 C180 1.394 . S
H182 C189 0.929 . S
H183 C192 0.930 . S
H184 C194 0.929 . S
H185 C186 0.969 . S
C186 H185 0.969 . S
C186 O187 1.550 . S
C186 H188 0.973 . S
O187 C186 1.550 . S
O187 C193 1.412 . S
H188 C186 0.973 . S
C189 H182 0.929 . S
C189 C190 1.400 . S
C189 C191 1.364 . S
C190 C189 1.400 . S
C190 C194 1.377 . S
C191 C189 1.364 . S
C191 C192 1.374 . S
C192 H183 0.930 . S
C192 C191 1.374 . S
C192 C193 1.383 . S
C193 O187 1.412 . S
C193 C192 1.383 . S
C193 C194 1.394 . S
C194 H184 0.929 . S
C194 C190 1.377 . S
C194 C193 1.394 . S
H195 C202 0.929 . S
H196 C205 0.930 . S
H197 C207 0.929 . S
H198 C199 0.969 . S
C199 H198 0.969 . S
C199 O200 1.550 . S
C199 H201 0.973 . S
O200 C199 1.550 . S
O200 C206 1.412 . S
H201 C199 0.973 . S
C202 H195 0.929 . S
C202 C203 1.400 . S
C202 C204 1.364 . S
C203 C202 1.400 . S
C203 C207 1.377 . S
C204 C202 1.364 . S
C204 C205 1.374 . S
C205 H196 0.930 . S
C205 C204 1.374 . S
C205 C206 1.383 . S
C206 O200 1.412 . S
C206 C205 1.383 . S
C206 C207 1.394 . S
C207 H197 0.929 . S
C207 C203 1.377 . S
C207 C206 1.394 . S
H208 C215 0.929 . S
H209 C218 0.930 . S
H210 C220 0.929 . S
H211 C212 0.969 . S
C212 H211 0.969 . S
C212 O213 1.550 . S
C212 H214 0.973 . S
O213 C212 1.550 . S
O213 C219 1.412 . S
H214 C212 0.973 . S
C215 H208 0.929 . S
C215 C216 1.400 . S
C215 C217 1.364 . S
C216 C215 1.400 . S
C216 C220 1.377 . S
C217 C215 1.364 . S
C217 C218 1.374 . S
C218 H209 0.930 . S
C218 C217 1.374 . S
C218 C219 1.383 . S
C219 O213 1.412 . S
C219 C218 1.383 . S
C219 C220 1.394 . S
C220 H210 0.929 . S
C220 C216 1.377 . S
C220 C219 1.394 . S
H221 C228 0.929 . S
H222 C231 0.930 . S
H223 C233 0.929 . S
H224 C225 0.969 . S
C225 H224 0.969 . S
C225 O226 1.550 . S
C225 H227 0.973 . S
O226 C225 1.550 . S
O226 C232 1.412 . S
H227 C225 0.973 . S
C228 H221 0.929 . S
C228 C229 1.400 . S
C228 C230 1.364 . S
C229 C228 1.400 . S
C229 C233 1.377 . S
C230 C228 1.364 . S
C230 C231 1.374 . S
C231 H222 0.930 . S
C231 C230 1.374 . S
C231 C232 1.383 . S
C232 O226 1.412 . S
C232 C231 1.383 . S
C232 C233 1.394 . S
C233 H223 0.929 . S
C233 C229 1.377 . S
C233 C232 1.394 . S
Eu234 N265 2.657 . S
Eu234 N272 2.609 . S
Eu234 O278 2.558 . S
Eu234 O279 2.604 1_566 S
Eu234 O281 2.339 1_565 S
Eu234 O282 2.563 1_565 S
Eu234 O283 2.419 1_565 S
Eu234 O285 2.380 1_556 S
Eu234 O286 2.432 . S
Eu234 C298 2.848 . S
C235 C238 1.429 . S
C235 C239 1.411 . S
C235 N242 1.377 . S
C236 C238 1.420 . S
C236 C240 1.423 . S
C236 C248 1.392 . S
C237 C239 1.420 . S
C237 C240 1.351 . S
C237 H260 0.931 . S
C238 C235 1.429 . S
C238 C236 1.420 . S
C238 N246 1.362 . S
C239 C235 1.411 . S
C239 C237 1.420 . S
C239 C244 1.395 . S
C240 C236 1.423 . S
C240 C237 1.351 . S
C240 H252 0.930 . S
C241 C243 1.400 . S
C241 C244 1.386 . S
C241 H253 0.930 . S
N242 C235 1.377 . S
N242 C243 1.321 . S
N242 Eu245 2.609 . S
C243 C241 1.400 . S
C243 N242 1.321 . S
C243 H250 0.930 . S
C244 C239 1.395 . S
C244 C241 1.386 . S
C244 H263 0.930 . S
Eu245 N242 2.609 . S
Eu245 N246 2.657 . S
Eu245 O279 2.393 . S
Eu245 O280 2.432 . S
Eu245 O284 2.558 . S
Eu245 O285 2.612 1_545 S
Eu245 O287 2.339 1_545 S
Eu245 O288 2.563 1_545 S
Eu245 O289 2.419 1_545 S
Eu245 C309 2.848 . S
N246 C238 1.362 . S
N246 Eu245 2.657 . S
N246 C247 1.334 . S
C247 N246 1.334 . S
C247 C249 1.413 . S
C247 H254 0.929 . S
C248 C236 1.392 . S
C248 C249 1.367 . S
C248 H256 0.930 . S
C249 C247 1.413 . S
C249 C248 1.367 . S
C249 H251 0.930 . S
H250 C243 0.930 . S
H251 C249 0.930 . S
H252 C240 0.930 . S
H253 C241 0.930 . S
H254 C247 0.929 . S
H255 C269 0.930 . S
H256 C248 0.930 . S
H257 C275 0.930 . S
H258 C266 0.929 . S
H259 C273 0.930 . S
H260 C237 0.931 . S
H261 C267 0.930 . S
H262 C300 0.930 . S
H263 C244 0.930 . S
H264 C299 0.931 . S
N265 Eu234 2.657 . S
N265 C266 1.334 . S
N265 C270 1.362 . S
C266 H258 0.929 . S
C266 N265 1.334 . S
C266 C269 1.413 . S
C267 H261 0.930 . S
C267 C268 1.392 . S
C267 C269 1.367 . S
C268 C267 1.392 . S
C268 C270 1.420 . S
C268 C300 1.423 . S
C269 H255 0.930 . S
C269 C266 1.413 . S
C269 C267 1.367 . S
C270 N265 1.362 . S
C270 C268 1.420 . S
C270 C274 1.429 . S
H271 C276 0.930 . S
N272 Eu234 2.609 . S
N272 C274 1.377 . S
N272 C275 1.321 . S
C273 H259 0.930 . S
C273 C275 1.400 . S
C273 C276 1.386 . S
C274 C270 1.429 . S
C274 N272 1.377 . S
C274 C277 1.411 . S
C275 H257 0.930 . S
C275 N272 1.321 . S
C275 C273 1.400 . S
C276 H271 0.930 . S
C276 C273 1.386 . S
C276 C277 1.395 . S
C277 C274 1.411 . S
C277 C276 1.395 . S
C277 C299 1.420 . S
O278 Eu234 2.558 . S
O278 C298 1.257 . S
O279 Eu234 2.604 1_544 S
O279 Eu245 2.393 . S
O279 C290 1.266 1_554 S
O280 Eu245 2.432 . S
O280 C297 1.264 1_554 S
O281 Eu234 2.339 1_545 S
O281 C297 1.254 . S
O282 Eu234 2.563 1_545 S
O282 C290 1.235 . S
O283 Eu234 2.419 1_545 S
O283 C298 1.249 1_545 S
O284 Eu245 2.558 . S
O284 C309 1.257 . S
O285 Eu234 2.380 1_554 S
O285 Eu245 2.612 1_565 S
O285 C301 1.276 . S
O286 Eu234 2.432 . S
O286 C308 1.264 1_556 S
O287 Eu245 2.339 1_565 S
O287 C308 1.254 . S
O288 Eu245 2.563 1_565 S
O288 C301 1.235 . S
O289 Eu245 2.419 1_565 S
O289 C309 1.249 1_565 S
C290 O279 1.266 1_556 S
C290 O282 1.235 . S
C291 C293 1.393 1_565 S
C291 C295 1.395 . S
C291 C298 1.492 . S
C292 C293 1.392 . S
C292 C294 1.386 . S
C293 C291 1.393 1_545 S
C293 C292 1.392 . S
C293 H310 0.930 . S
C294 C292 1.386 . S
C294 C296 1.395 1_545 S
C294 H311 0.930 . S
C295 C291 1.395 . S
C295 C296 1.379 . S
C295 H312 0.930 . S
C296 C294 1.395 1_565 S
C296 C295 1.379 . S
C296 H313 0.930 . S
C297 O280 1.264 1_556 S
C297 O281 1.254 . S
C298 Eu234 2.848 . S
C298 O278 1.257 . S
C298 O283 1.249 1_565 S
C298 C291 1.492 . S
C299 H264 0.931 . S
C299 C277 1.420 . S
C299 C300 1.351 . S
C300 H262 0.930 . S
C300 C268 1.423 . S
C300 C299 1.351 . S
C301 O285 1.276 . S
C301 O288 1.235 . S
C302 C303 1.393 1_545 S
C302 C306 1.395 . S
C302 C309 1.492 . S
C303 C302 1.393 1_565 S
C303 C304 1.392 . S
C303 H314 0.930 . S
C304 C303 1.392 . S
C304 C305 1.386 . S
C305 C304 1.386 . S
C305 C307 1.395 1_565 S
C305 H315 0.930 . S
C306 C302 1.395 . S
C306 C307 1.379 . S
C306 H316 0.930 . S
C307 C305 1.395 1_545 S
C307 C306 1.379 . S
C307 H317 0.930 . S
C308 O286 1.264 1_554 S
C308 O287 1.254 . S
C309 Eu245 2.848 . S
C309 O284 1.257 . S
C309 O289 1.249 1_545 S
C309 C302 1.492 . S
H310 C293 0.930 . S
H311 C294 0.930 . S
H312 C295 0.930 . S
H313 C296 0.930 . S
H314 C303 0.930 . S
H315 C305 0.930 . S
H316 C306 0.930 . S
H317 C307 0.930 . S
Eu318 N349 2.657 . S
Eu318 N356 2.609 . S
Eu318 O362 2.558 . S
Eu318 O363 2.624 1_455 S
Eu318 O365 2.339 1_455 S
Eu318 O366 2.563 1_455 S
Eu318 O367 2.419 . S
Eu318 O369 2.380 1_556 S
Eu318 O370 2.432 . S
Eu318 C382 2.848 . S
C319 C322 1.429 . S
C319 C323 1.411 . S
C319 N326 1.377 . S
C320 C322 1.420 . S
C320 C324 1.423 . S
C320 C332 1.392 . S
C321 C323 1.420 . S
C321 C324 1.351 . S
C321 H344 0.931 . S
C322 C319 1.429 . S
C322 C320 1.420 . S
C322 N330 1.362 . S
C323 C319 1.411 . S
C323 C321 1.420 . S
C323 C328 1.395 . S
C324 C320 1.423 . S
C324 C321 1.351 . S
C324 H336 0.930 . S
C325 C327 1.400 . S
C325 C328 1.386 . S
C325 H337 0.930 . S
N326 C319 1.377 . S
N326 C327 1.321 . S
N326 Eu329 2.609 . S
C327 C325 1.400 . S
C327 N326 1.321 . S
C327 H334 0.930 . S
C328 C323 1.395 . S
C328 C325 1.386 . S
C328 H347 0.930 . S
Eu329 N326 2.609 . S
Eu329 N330 2.657 . S
Eu329 O363 2.363 1_554 S
Eu329 O364 2.432 . S
Eu329 O368 2.558 . S
Eu329 O369 2.612 1_655 S
Eu329 O371 2.339 1_655 S
Eu329 O372 2.563 1_655 S
Eu329 O373 2.419 1_655 S
Eu329 C393 2.848 . S
N330 C322 1.362 . S
N330 Eu329 2.657 . S
N330 C331 1.334 . S
C331 N330 1.334 . S
C331 C333 1.413 . S
C331 H338 0.929 . S
C332 C320 1.392 . S
C332 C333 1.367 . S
C332 H340 0.930 . S
C333 C331 1.413 . S
C333 C332 1.367 . S
C333 H335 0.930 . S
H334 C327 0.930 . S
H335 C333 0.930 . S
H336 C324 0.930 . S
H337 C325 0.930 . S
H338 C331 0.929 . S
H339 C353 0.930 . S
H340 C332 0.930 . S
H341 C359 0.930 . S
H342 C350 0.929 . S
H343 C357 0.930 . S
H344 C321 0.931 . S
H345 C351 0.930 . S
H346 C384 0.930 . S
H347 C328 0.930 . S
H348 C383 0.931 . S
N349 Eu318 2.657 . S
N349 C350 1.334 . S
N349 C354 1.362 . S
C350 H342 0.929 . S
C350 N349 1.334 . S
C350 C353 1.413 . S
C351 H345 0.930 . S
C351 C352 1.392 . S
C351 C353 1.367 . S
C352 C351 1.392 . S
C352 C354 1.420 . S
C352 C384 1.423 . S
C353 H339 0.930 . S
C353 C350 1.413 . S
C353 C351 1.367 . S
C354 N349 1.362 . S
C354 C352 1.420 . S
C354 C358 1.429 . S
H355 C360 0.930 . S
N356 Eu318 2.609 . S
N356 C358 1.377 . S
N356 C359 1.321 . S
C357 H343 0.930 . S
C357 C359 1.400 . S
C357 C360 1.386 . S
C358 C354 1.429 . S
C358 N356 1.377 . S
C358 C361 1.411 . S
C359 H341 0.930 . S
C359 N356 1.321 . S
C359 C357 1.400 . S
C360 H355 0.930 . S
C360 C357 1.386 . S
C360 C361 1.395 . S
C361 C358 1.411 . S
C361 C360 1.395 . S
C361 C383 1.420 . S
O362 Eu318 2.558 . S
O362 C382 1.257 . S
O363 Eu318 2.624 1_655 S
O363 Eu329 2.363 1_556 S
O363 C374 1.289 . S
O364 Eu329 2.432 . S
O364 C381 1.264 1_554 S
O365 Eu318 2.339 1_655 S
O365 C381 1.254 . S
O366 Eu318 2.563 1_655 S
O366 C374 1.235 . S
O367 Eu318 2.419 . S
O367 C382 1.249 . S
O368 Eu329 2.558 . S
O368 C393 1.257 . S
O369 Eu318 2.380 1_554 S
O369 Eu329 2.612 1_455 S
O369 C385 1.276 . S
O370 Eu318 2.432 . S
O370 C392 1.264 1_556 S
O371 Eu329 2.339 1_455 S
O371 C392 1.254 . S
O372 Eu329 2.563 1_455 S
O372 C385 1.235 . S
O373 Eu329 2.419 1_455 S
O373 C393 1.249 1_455 S
C374 O363 1.289 . S
C374 O366 1.235 . S
C375 C377 1.393 1_455 S
C375 C379 1.395 . S
C375 C382 1.492 . S
C376 C377 1.392 . S
C376 C378 1.386 . S
C377 C375 1.393 1_655 S
C377 C376 1.392 . S
C377 H394 0.930 . S
C378 C376 1.386 . S
C378 C380 1.395 1_655 S
C378 H395 0.930 . S
C379 C375 1.395 . S
C379 C380 1.379 . S
C379 H396 0.930 . S
C380 C378 1.395 1_455 S
C380 C379 1.379 . S
C380 H397 0.930 . S
C381 O364 1.264 1_556 S
C381 O365 1.254 . S
C382 Eu318 2.848 . S
C382 O362 1.257 . S
C382 O367 1.249 . S
C382 C375 1.492 . S
C383 H348 0.931 . S
C383 C361 1.420 . S
C383 C384 1.351 . S
C384 H346 0.930 . S
C384 C352 1.423 . S
C384 C383 1.351 . S
C385 O369 1.276 . S
C385 O372 1.235 . S
C386 C387 1.393 1_655 S
C386 C390 1.395 . S
C386 C393 1.492 . S
C387 C386 1.393 1_455 S
C387 C388 1.392 . S
C387 H398 0.930 . S
C388 C387 1.392 . S
C388 C389 1.386 . S
C389 C388 1.386 . S
C389 C391 1.395 1_455 S
C389 H399 0.930 . S
C390 C386 1.395 . S
C390 C391 1.379 . S
C390 H400 0.930 . S
C391 C389 1.395 1_655 S
C391 C390 1.379 . S
C391 H401 0.930 . S
C392 O370 1.264 1_554 S
C392 O371 1.254 . S
C393 Eu329 2.848 . S
C393 O368 1.257 . S
C393 O373 1.249 1_655 S
C393 C386 1.492 . S
H394 C377 0.930 . S
H395 C378 0.930 . S
H396 C379 0.930 . S
H397 C380 0.930 . S
H398 C387 0.930 . S
H399 C389 0.930 . S
H400 C390 0.930 . S
H401 C391 0.930 . S
Eu402 N433 2.657 . S
Eu402 N440 2.609 . S
Eu402 O446 2.558 . S
Eu402 O447 2.612 . S
Eu402 O449 2.339 . S
Eu402 O450 2.563 . S
Eu402 O451 2.419 . S
Eu402 O453 2.399 . S
Eu402 O454 2.432 . S
Eu402 C466 2.848 . S
C403 C406 1.429 . S
C403 C407 1.411 . S
C403 N410 1.377 . S
C404 C406 1.420 . S
C404 C408 1.423 . S
C404 C416 1.392 . S
C405 C407 1.420 . S
C405 C408 1.351 . S
C405 H428 0.931 . S
C406 C403 1.429 . S
C406 C404 1.420 . S
C406 N414 1.362 . S
C407 C403 1.411 . S
C407 C405 1.420 . S
C407 C412 1.395 . S
C408 C404 1.423 . S
C408 C405 1.351 . S
C408 H420 0.930 . S
C409 C411 1.400 . S
C409 C412 1.386 . S
C409 H421 0.930 . S
N410 C403 1.377 . S
N410 C411 1.321 . S
N410 Eu413 2.609 . S
C411 C409 1.400 . S
C411 N410 1.321 . S
C411 H418 0.930 . S
C412 C407 1.395 . S
C412 C409 1.386 . S
C412 H431 0.930 . S
Eu413 N410 2.609 . S
Eu413 N414 2.657 . S
Eu413 O447 2.380 1_556 S
Eu413 O448 2.432 . S
Eu413 O452 2.558 . S
Eu413 O453 2.600 1_556 S
Eu413 O455 2.339 . S
Eu413 O456 2.563 . S
Eu413 O457 2.419 . S
Eu413 C477 2.848 . S
N414 C406 1.362 . S
N414 Eu413 2.657 . S
N414 C415 1.334 . S
C415 N414 1.334 . S
C415 C417 1.413 . S
C415 H422 0.929 . S
C416 C404 1.392 . S
C416 C417 1.367 . S
C416 H424 0.930 . S
C417 C415 1.413 . S
C417 C416 1.367 . S
C417 H419 0.930 . S
H418 C411 0.930 . S
H419 C417 0.930 . S
H420 C408 0.930 . S
H421 C409 0.930 . S
H422 C415 0.929 . S
H423 C437 0.930 . S
H424 C416 0.930 . S
H425 C443 0.930 . S
H426 C434 0.929 . S
H427 C441 0.930 . S
H428 C405 0.931 . S
H429 C435 0.930 . S
H430 C468 0.930 . S
H431 C412 0.930 . S
H432 C467 0.931 . S
N433 Eu402 2.657 . S
N433 C434 1.334 . S
N433 C438 1.362 . S
C434 H426 0.929 . S
C434 N433 1.334 . S
C434 C437 1.413 . S
C435 H429 0.930 . S
C435 C436 1.392 . S
C435 C437 1.367 . S
C436 C435 1.392 . S
C436 C438 1.420 . S
C436 C468 1.423 . S
C437 H423 0.930 . S
C437 C434 1.413 . S
C437 C435 1.367 . S
C438 N433 1.362 . S
C438 C436 1.420 . S
C438 C442 1.429 . S
H439 C444 0.930 . S
N440 Eu402 2.609 . S
N440 C442 1.377 . S
N440 C443 1.321 . S
C441 H427 0.930 . S
C441 C443 1.400 . S
C441 C444 1.386 . S
C442 C438 1.429 . S
C442 N440 1.377 . S
C442 C445 1.411 . S
C443 H425 0.930 . S
C443 N440 1.321 . S
C443 C441 1.400 . S
C444 H439 0.930 . S
C444 C441 1.386 . S
C444 C445 1.395 . S
C445 C442 1.411 . S
C445 C444 1.395 . S
C445 C467 1.420 . S
O446 Eu402 2.558 . S
O446 C466 1.257 . S
O447 Eu402 2.612 . S
O447 Eu413 2.380 1_554 S
O447 C458 1.276 . S
O448 Eu413 2.432 . S
O448 C465 1.264 1_556 S
O449 Eu402 2.339 . S
O449 C465 1.254 . S
O450 Eu402 2.563 . S
O450 C458 1.235 . S
O451 Eu402 2.419 . S
O451 C466 1.249 . S
O452 Eu413 2.558 . S
O452 C477 1.257 . S
O453 Eu402 2.399 . S
O453 Eu413 2.600 1_554 S
O453 C469 1.261 1_554 S
O454 Eu402 2.432 . S
O454 C476 1.264 1_554 S
O455 Eu413 2.339 . S
O455 C476 1.254 . S
O456 Eu413 2.563 . S
O456 C469 1.235 . S
O457 Eu413 2.419 . S
O457 C477 1.249 . S
C458 O447 1.276 . S
C458 O450 1.235 . S
C459 C461 1.393 . S
C459 C463 1.395 . S
C459 C466 1.492 . S
C460 C461 1.392 . S
C460 C462 1.386 . S
C461 C459 1.393 . S
C461 C460 1.392 . S
C461 H478 0.930 . S
C462 C460 1.386 . S
C462 C464 1.395 . S
C462 H479 0.930 . S
C463 C459 1.395 . S
C463 C464 1.379 . S
C463 H480 0.930 . S
C464 C462 1.395 . S
C464 C463 1.379 . S
C464 H481 0.930 . S
C465 O448 1.264 1_554 S
C465 O449 1.254 . S
C466 Eu402 2.848 . S
C466 O446 1.257 . S
C466 O451 1.249 . S
C466 C459 1.492 . S
C467 H432 0.931 . S
C467 C445 1.420 . S
C467 C468 1.351 . S
C468 H430 0.930 . S
C468 C436 1.423 . S
C468 C467 1.351 . S
C469 O453 1.261 1_556 S
C469 O456 1.235 . S
C470 C471 1.393 . S
C470 C474 1.395 . S
C470 C477 1.492 . S
C471 C470 1.393 . S
C471 C472 1.392 . S
C471 H482 0.930 . S
C472 C471 1.392 . S
C472 C473 1.386 . S
C473 C472 1.386 . S
C473 C475 1.395 . S
C473 H483 0.930 . S
C474 C470 1.395 . S
C474 C475 1.379 . S
C474 H484 0.930 . S
C475 C473 1.395 . S
C475 C474 1.379 . S
C475 H485 0.930 . S
C476 O454 1.264 1_556 S
C476 O455 1.254 . S
C477 Eu413 2.848 . S
C477 O452 1.257 . S
C477 O457 1.249 . S
C477 C470 1.492 . S
H478 C461 0.930 . S
H479 C462 0.930 . S
H480 C463 0.930 . S
H481 C464 0.930 . S
H482 C471 0.930 . S
H483 C473 0.930 . S
H484 C474 0.930 . S
H485 C475 0.930 . S
Eu486 N517 2.657 1_455 S
Eu486 N524 2.609 . S
Eu486 O530 2.558 . S
Eu486 O531 2.612 . S
Eu486 O533 2.339 . S
Eu486 O534 2.563 . S
Eu486 O535 2.419 . S
Eu486 O537 2.380 . S
Eu486 O538 2.432 . S
Eu486 C550 2.848 . S
C487 C490 1.429 . S
C487 C491 1.411 . S
C487 N494 1.377 . S
C488 C490 1.420 . S
C488 C492 1.423 . S
C488 C500 1.392 . S
C489 C491 1.420 . S
C489 C492 1.351 . S
C489 H512 0.931 . S
C490 C487 1.429 . S
C490 C488 1.420 . S
C490 N498 1.362 . S
C491 C487 1.411 . S
C491 C489 1.420 . S
C491 C496 1.395 . S
C492 C488 1.423 . S
C492 C489 1.351 . S
C492 H504 0.930 . S
C493 C495 1.400 . S
C493 C496 1.386 . S
C493 H505 0.930 . S
N494 C487 1.377 . S
N494 C495 1.321 . S
N494 Eu497 2.609 . S
C495 C493 1.400 . S
C495 N494 1.321 . S
C495 H502 0.930 . S
C496 C491 1.395 . S
C496 C493 1.386 . S
C496 H515 0.930 . S
Eu497 N494 2.609 . S
Eu497 N498 2.657 . S
Eu497 O531 2.380 . S
Eu497 O532 2.432 . S
Eu497 O536 2.558 . S
Eu497 O537 2.612 . S
Eu497 O539 2.339 . S
Eu497 O540 2.563 . S
Eu497 O541 2.419 . S
Eu497 C561 2.848 . S
N498 C490 1.362 . S
N498 Eu497 2.657 . S
N498 C499 1.334 . S
C499 N498 1.334 . S
C499 C501 1.413 . S
C499 H506 0.929 . S
C500 C488 1.392 . S
C500 C501 1.367 . S
C500 H508 0.930 . S
C501 C499 1.413 . S
C501 C500 1.367 . S
C501 H503 0.930 . S
H502 C495 0.930 . S
H503 C501 0.930 . S
H504 C492 0.930 . S
H505 C493 0.930 . S
H506 C499 0.929 . S
H507 C521 0.930 . S
H508 C500 0.930 . S
H509 C527 0.930 . S
H510 C518 0.929 . S
H511 C525 0.930 . S
H512 C489 0.931 . S
H513 C519 0.930 . S
H514 C552 0.930 . S
H515 C496 0.930 . S
H516 C551 0.931 . S
N517 Eu486 2.657 1_655 S
N517 C518 1.334 . S
N517 C522 1.362 . S
C518 H510 0.929 . S
C518 N517 1.334 . S
C518 C521 1.413 . S
C519 H513 0.930 . S
C519 C520 1.392 . S
C519 C521 1.367 . S
C520 C519 1.392 . S
C520 C522 1.420 . S
C520 C552 1.423 . S
C521 H507 0.930 . S
C521 C518 1.413 . S
C521 C519 1.367 . S
C522 N517 1.362 . S
C522 C520 1.420 . S
C522 C526 1.429 . S
H523 C528 0.930 . S
N524 Eu486 2.609 . S
N524 C526 1.377 1_455 S
N524 C527 1.321 . S
C525 H511 0.930 . S
C525 C527 1.400 . S
C525 C528 1.386 1_455 S
C526 C522 1.429 . S
C526 N524 1.377 1_655 S
C526 C529 1.411 . S
C527 H509 0.930 . S
C527 N524 1.321 . S
C527 C525 1.400 . S
C528 H523 0.930 . S
C528 C525 1.386 1_655 S
C528 C529 1.395 . S
C529 C526 1.411 . S
C529 C528 1.395 . S
C529 C551 1.420 . S
O530 Eu486 2.558 . S
O530 C550 1.257 . S
O531 Eu486 2.612 . S
O531 Eu497 2.380 . S
O531 C542 1.276 . S
O532 Eu497 2.432 . S
O532 C549 1.264 . S
O533 Eu486 2.339 . S
O533 C549 1.254 . S
O534 Eu486 2.563 . S
O534 C542 1.235 . S
O535 Eu486 2.419 . S
O535 C550 1.249 . S
O536 Eu497 2.558 . S
O536 C561 1.257 . S
O537 Eu486 2.380 . S
O537 Eu497 2.612 . S
O537 C553 1.276 . S
O538 Eu486 2.432 . S
O538 C560 1.264 . S
O539 Eu497 2.339 . S
O539 C560 1.254 . S
O540 Eu497 2.563 . S
O540 C553 1.235 . S
O541 Eu497 2.419 . S
O541 C561 1.249 . S
C542 O531 1.276 . S
C542 O534 1.235 . S
C543 C545 1.393 . S
C543 C547 1.395 . S
C543 C550 1.492 . S
C544 C545 1.392 . S
C544 C546 1.386 . S
C545 C543 1.393 . S
C545 C544 1.392 . S
C545 H562 0.930 . S
C546 C544 1.386 . S
C546 C548 1.395 . S
C546 H563 0.930 . S
C547 C543 1.395 . S
C547 C548 1.379 . S
C547 H564 0.930 . S
C548 C546 1.395 . S
C548 C547 1.379 . S
C548 H565 0.930 . S
C549 O532 1.264 . S
C549 O533 1.254 . S
C550 Eu486 2.848 . S
C550 O530 1.257 . S
C550 O535 1.249 . S
C550 C543 1.492 . S
C551 H516 0.931 . S
C551 C529 1.420 . S
C551 C552 1.351 . S
C552 H514 0.930 . S
C552 C520 1.423 . S
C552 C551 1.351 . S
C553 O537 1.276 . S
C553 O540 1.235 . S
C554 C555 1.393 . S
C554 C558 1.395 . S
C554 C561 1.492 . S
C555 C554 1.393 . S
C555 C556 1.392 . S
C555 H566 0.930 . S
C556 C555 1.392 . S
C556 C557 1.386 . S
C557 C556 1.386 . S
C557 C559 1.395 . S
C557 H567 0.930 . S
C558 C554 1.395 . S
C558 C559 1.379 . S
C558 H568 0.930 . S
C559 C557 1.395 . S
C559 C558 1.379 . S
C559 H569 0.930 . S
C560 O538 1.264 . S
C560 O539 1.254 . S
C561 Eu497 2.848 . S
C561 O536 1.257 . S
C561 O541 1.249 . S
C561 C554 1.492 . S
H562 C545 0.930 . S
H563 C546 0.930 . S
H564 C547 0.930 . S
H565 C548 0.930 . S
H566 C555 0.930 . S
H567 C557 0.930 . S
H568 C558 0.930 . S
H569 C559 0.930 . S
Eu570 N601 2.657 . S
Eu570 N608 2.609 . S
Eu570 O614 2.558 . S
Eu570 O615 2.612 . S
Eu570 O617 2.339 . S
Eu570 O618 2.563 . S
Eu570 O619 2.419 . S
Eu570 O621 2.380 . S
Eu570 O622 2.432 . S
Eu570 C634 2.848 . S
C571 C574 1.429 . S
C571 C575 1.411 . S
C571 N578 1.377 . S
C572 C574 1.420 . S
C572 C576 1.423 . S
C572 C584 1.392 . S
C573 C575 1.420 . S
C573 C576 1.351 . S
C573 H596 0.931 . S
C574 C571 1.429 . S
C574 C572 1.420 . S
C574 N582 1.362 . S
C575 C571 1.411 . S
C575 C573 1.420 . S
C575 C580 1.395 . S
C576 C572 1.423 . S
C576 C573 1.351 . S
C576 H588 0.930 . S
C577 C579 1.400 . S
C577 C580 1.386 . S
C577 H589 0.930 . S
N578 C571 1.377 . S
N578 C579 1.321 . S
N578 Eu581 2.609 . S
C579 C577 1.400 . S
C579 N578 1.321 . S
C579 H586 0.930 . S
C580 C575 1.395 . S
C580 C577 1.386 . S
C580 H599 0.930 . S
Eu581 N578 2.609 . S
Eu581 N582 2.657 . S
Eu581 O615 2.380 . S
Eu581 O616 2.432 . S
Eu581 O620 2.558 . S
Eu581 O621 2.612 . S
Eu581 O623 2.339 . S
Eu581 O624 2.563 . S
Eu581 O625 2.419 . S
Eu581 C645 2.848 . S
N582 C574 1.362 . S
N582 Eu581 2.657 . S
N582 C583 1.334 . S
C583 N582 1.334 . S
C583 C585 1.413 . S
C583 H590 0.929 . S
C584 C572 1.392 . S
C584 C585 1.367 . S
C584 H592 0.930 . S
C585 C583 1.413 . S
C585 C584 1.367 . S
C585 H587 0.930 . S
H586 C579 0.930 . S
H587 C585 0.930 . S
H588 C576 0.930 . S
H589 C577 0.930 . S
H590 C583 0.929 . S
H591 C605 0.930 . S
H592 C584 0.930 . S
H593 C611 0.930 . S
H594 C602 0.929 . S
H595 C609 0.930 1_545 S
H596 C573 0.931 . S
H597 C603 0.930 . S
H598 C636 0.930 . S
H599 C580 0.930 . S
H600 C635 0.931 . S
N601 Eu570 2.657 . S
N601 C602 1.334 . S
N601 C606 1.362 . S
C602 H594 0.929 . S
C602 N601 1.334 . S
C602 C605 1.413 . S
C603 H597 0.930 . S
C603 C604 1.392 . S
C603 C605 1.367 . S
C604 C603 1.392 . S
C604 C606 1.420 . S
C604 C636 1.423 . S
C605 H591 0.930 . S
C605 C602 1.413 . S
C605 C603 1.367 . S
C606 N601 1.362 . S
C606 C604 1.420 . S
C606 C610 1.429 . S
H607 C612 0.930 . S
N608 Eu570 2.609 . S
N608 C610 1.377 . S
N608 C611 1.321 . S
C609 H595 0.930 1_565 S
C609 C611 1.400 . S
C609 C612 1.386 . S
C610 C606 1.429 . S
C610 N608 1.377 . S
C610 C613 1.411 . S
C611 H593 0.930 . S
C611 N608 1.321 . S
C611 C609 1.400 . S
C612 H607 0.930 . S
C612 C609 1.386 . S
C612 C613 1.395 . S
C613 C610 1.411 . S
C613 C612 1.395 . S
C613 C635 1.420 . S
O614 Eu570 2.558 . S
O614 C634 1.257 . S
O615 Eu570 2.612 . S
O615 Eu581 2.380 . S
O615 C626 1.276 . S
O616 Eu581 2.432 . S
O616 C633 1.264 . S
O617 Eu570 2.339 . S
O617 C633 1.254 . S
O618 Eu570 2.563 . S
O618 C626 1.235 . S
O619 Eu570 2.419 . S
O619 C634 1.249 . S
O620 Eu581 2.558 . S
O620 C645 1.257 . S
O621 Eu570 2.380 . S
O621 Eu581 2.612 . S
O621 C637 1.276 . S
O622 Eu570 2.432 . S
O622 C644 1.264 . S
O623 Eu581 2.339 . S
O623 C644 1.254 . S
O624 Eu581 2.563 . S
O624 C637 1.235 . S
O625 Eu581 2.419 . S
O625 C645 1.249 . S
C626 O615 1.276 . S
C626 O618 1.235 . S
C627 C629 1.393 . S
C627 C631 1.395 . S
C627 C634 1.492 . S
C628 C629 1.392 . S
C628 C630 1.386 . S
C629 C627 1.393 . S
C629 C628 1.392 . S
C629 H646 0.930 . S
C630 C628 1.386 . S
C630 C632 1.395 . S
C630 H647 0.930 . S
C631 C627 1.395 . S
C631 C632 1.379 . S
C631 H648 0.930 . S
C632 C630 1.395 . S
C632 C631 1.379 . S
C632 H649 0.930 . S
C633 O616 1.264 . S
C633 O617 1.254 . S
C634 Eu570 2.848 . S
C634 O614 1.257 . S
C634 O619 1.249 . S
C634 C627 1.492 . S
C635 H600 0.931 . S
C635 C613 1.420 . S
C635 C636 1.351 . S
C636 H598 0.930 . S
C636 C604 1.423 . S
C636 C635 1.351 . S
C637 O621 1.276 . S
C637 O624 1.235 . S
C638 C639 1.393 . S
C638 C642 1.395 . S
C638 C645 1.492 . S
C639 C638 1.393 . S
C639 C640 1.392 . S
C639 H650 0.930 . S
C640 C639 1.392 . S
C640 C641 1.386 . S
C641 C640 1.386 . S
C641 C643 1.395 . S
C641 H651 0.930 . S
C642 C638 1.395 . S
C642 C643 1.379 . S
C642 H652 0.930 . S
C643 C641 1.395 . S
C643 C642 1.379 . S
C643 H653 0.930 . S
C644 O622 1.264 . S
C644 O623 1.254 . S
C645 Eu581 2.848 . S
C645 O620 1.257 . S
C645 O625 1.249 . S
C645 C638 1.492 . S
H646 C629 0.930 . S
H647 C630 0.930 . S
H648 C631 0.930 . S
H649 C632 0.930 . S
H650 C639 0.930 . S
H651 C641 0.930 . S
H652 C642 0.930 . S
H653 C643 0.930 . S
Eu654 N685 2.657 . S
Eu654 N692 2.609 . S
Eu654 O698 2.558 . S
Eu654 O699 2.612 . S
Eu654 O701 2.339 . S
Eu654 O702 2.563 . S
Eu654 O703 2.419 . S
Eu654 O705 2.380 . S
Eu654 O706 2.432 . S
Eu654 C718 2.848 . S
C655 C658 1.429 . S
C655 C659 1.411 . S
C655 N662 1.377 . S
C656 C658 1.420 1_655 S
C656 C660 1.423 . S
C656 C668 1.392 . S
C657 C659 1.420 1_655 S
C657 C660 1.351 . S
C657 H680 0.931 . S
C658 C655 1.429 . S
C658 C656 1.420 1_455 S
C658 N666 1.362 . S
C659 C655 1.411 . S
C659 C657 1.420 1_455 S
C659 C664 1.395 1_565 S
C660 C656 1.423 . S
C660 C657 1.351 . S
C660 H672 0.930 . S
C661 C663 1.400 . S
C661 C664 1.386 . S
C661 H673 0.930 . S
N662 C655 1.377 . S
N662 C663 1.321 1_565 S
N662 Eu665 2.609 . S
C663 C661 1.400 . S
C663 N662 1.321 1_545 S
C663 H670 0.930 . S
C664 C659 1.395 1_545 S
C664 C661 1.386 . S
C664 H683 0.930 . S
Eu665 N662 2.609 . S
Eu665 N666 2.657 . S
Eu665 O699 2.380 . S
Eu665 O700 2.432 . S
Eu665 O704 2.558 . S
Eu665 O705 2.612 . S
Eu665 O707 2.339 . S
Eu665 O708 2.563 . S
Eu665 O709 2.419 . S
Eu665 C729 2.848 . S
N666 C658 1.362 . S
N666 Eu665 2.657 . S
N666 C667 1.334 . S
C667 N666 1.334 . S
C667 C669 1.413 1_455 S
C667 H674 0.929 . S
C668 C656 1.392 . S
C668 C669 1.367 . S
C668 H676 0.930 . S
C669 C667 1.413 1_655 S
C669 C668 1.367 . S
C669 H671 0.930 . S
H670 C663 0.930 . S
H671 C669 0.930 . S
H672 C660 0.930 . S
H673 C661 0.930 . S
H674 C667 0.929 . S
H675 C689 0.930 . S
H676 C668 0.930 . S
H677 C695 0.930 . S
H678 C686 0.929 1_545 S
H679 C693 0.930 . S
H680 C657 0.931 . S
H681 C687 0.930 . S
H682 C720 0.930 . S
H683 C664 0.930 . S
H684 C719 0.931 . S
N685 Eu654 2.657 . S
N685 C686 1.334 . S
N685 C690 1.362 . S
C686 H678 0.929 1_565 S
C686 N685 1.334 . S
C686 C689 1.413 1_565 S
C687 H681 0.930 . S
C687 C688 1.392 1_545 S
C687 C689 1.367 . S
C688 C687 1.392 1_565 S
C688 C690 1.420 . S
C688 C720 1.423 . S
C689 H675 0.930 . S
C689 C686 1.413 1_545 S
C689 C687 1.367 . S
C690 N685 1.362 . S
C690 C688 1.420 . S
C690 C694 1.429 . S
H691 C696 0.930 . S
N692 Eu654 2.609 . S
N692 C694 1.377 . S
N692 C695 1.321 . S
C693 H679 0.930 . S
C693 C695 1.400 . S
C693 C696 1.386 . S
C694 C690 1.429 . S
C694 N692 1.377 . S
C694 C697 1.411 . S
C695 H677 0.930 . S
C695 N692 1.321 . S
C695 C693 1.400 . S
C696 H691 0.930 . S
C696 C693 1.386 . S
C696 C697 1.395 . S
C697 C694 1.411 . S
C697 C696 1.395 . S
C697 C719 1.420 . S
O698 Eu654 2.558 . S
O698 C718 1.257 . S
O699 Eu654 2.612 . S
O699 Eu665 2.380 . S
O699 C710 1.276 . S
O700 Eu665 2.432 . S
O700 C717 1.264 1_565 S
O701 Eu654 2.339 . S
O701 C717 1.254 1_565 S
O702 Eu654 2.563 . S
O702 C710 1.235 . S
O703 Eu654 2.419 . S
O703 C718 1.249 . S
O704 Eu665 2.558 . S
O704 C729 1.257 . S
O705 Eu654 2.380 . S
O705 Eu665 2.612 . S
O705 C721 1.276 . S
O706 Eu654 2.432 . S
O706 C728 1.264 . S
O707 Eu665 2.339 . S
O707 C728 1.254 . S
O708 Eu665 2.563 . S
O708 C721 1.235 . S
O709 Eu665 2.419 . S
O709 C729 1.249 . S
C710 O699 1.276 . S
C710 O702 1.235 . S
C711 C713 1.393 . S
C711 C715 1.395 . S
C711 C718 1.492 . S
C712 C713 1.392 . S
C712 C714 1.386 . S
C713 C711 1.393 . S
C713 C712 1.392 . S
C713 H730 0.930 . S
C714 C712 1.386 . S
C714 C716 1.395 . S
C714 H731 0.930 . S
C715 C711 1.395 . S
C715 C716 1.379 . S
C715 H732 0.930 . S
C716 C714 1.395 . S
C716 C715 1.379 . S
C716 H733 0.930 . S
C717 O700 1.264 1_545 S
C717 O701 1.254 1_545 S
C718 Eu654 2.848 . S
C718 O698 1.257 . S
C718 O703 1.249 . S
C718 C711 1.492 . S
C719 H684 0.931 . S
C719 C697 1.420 . S
C719 C720 1.351 . S
C720 H682 0.930 . S
C720 C688 1.423 . S
C720 C719 1.351 . S
C721 O705 1.276 . S
C721 O708 1.235 . S
C722 C723 1.393 . S
C722 C726 1.395 . S
C722 C729 1.492 . S
C723 C722 1.393 . S
C723 C724 1.392 . S
C723 H734 0.930 . S
C724 C723 1.392 . S
C724 C725 1.386 . S
C725 C724 1.386 . S
C725 C727 1.395 . S
C725 H735 0.930 . S
C726 C722 1.395 . S
C726 C727 1.379 . S
C726 H736 0.930 . S
C727 C725 1.395 . S
C727 C726 1.379 . S
C727 H737 0.930 . S
C728 O706 1.264 . S
C728 O707 1.254 . S
C729 Eu665 2.848 . S
C729 O704 1.257 . S
C729 O709 1.249 . S
C729 C722 1.492 . S
H730 C713 0.930 . S
H731 C714 0.930 . S
H732 C715 0.930 . S
H733 C716 0.930 . S
H734 C723 0.930 . S
H735 C725 0.930 . S
H736 C726 0.930 . S
H737 C727 0.930 . S
Eu738 N769 2.657 . S
Eu738 N776 2.609 . S
Eu738 O782 2.558 . S
Eu738 O783 2.612 . S
Eu738 O785 2.339 . S
Eu738 O786 2.563 . S
Eu738 O787 2.419 . S
Eu738 O789 2.380 . S
Eu738 O790 2.432 . S
Eu738 C802 2.848 . S
C739 C742 1.429 . S
C739 C743 1.411 . S
C739 N746 1.377 . S
C740 C742 1.420 1_455 S
C740 C744 1.423 . S
C740 C752 1.392 . S
C741 C743 1.420 1_455 S
C741 C744 1.351 . S
C741 H764 0.931 . S
C742 C739 1.429 . S
C742 C740 1.420 1_655 S
C742 N750 1.362 . S
C743 C739 1.411 . S
C743 C741 1.420 1_655 S
C743 C748 1.395 . S
C744 C740 1.423 . S
C744 C741 1.351 . S
C744 H756 0.930 . S
C745 C747 1.400 . S
C745 C748 1.386 . S
C745 H757 0.930 . S
N746 C739 1.377 . S
N746 C747 1.321 . S
N746 Eu749 2.609 . S
C747 C745 1.400 . S
C747 N746 1.321 . S
C747 H754 0.930 . S
C748 C743 1.395 . S
C748 C745 1.386 . S
C748 H767 0.930 . S
Eu749 N746 2.609 . S
Eu749 N750 2.657 . S
Eu749 O783 2.380 . S
Eu749 O784 2.432 . S
Eu749 O788 2.558 . S
Eu749 O789 2.612 . S
Eu749 O791 2.339 . S
Eu749 O792 2.563 . S
Eu749 O793 2.419 . S
Eu749 C813 2.848 . S
N750 C742 1.362 . S
N750 Eu749 2.657 . S
N750 C751 1.334 . S
C751 N750 1.334 . S
C751 C753 1.413 1_655 S
C751 H758 0.929 . S
C752 C740 1.392 . S
C752 C753 1.367 . S
C752 H760 0.930 . S
C753 C751 1.413 1_455 S
C753 C752 1.367 . S
C753 H755 0.930 . S
H754 C747 0.930 . S
H755 C753 0.930 . S
H756 C744 0.930 . S
H757 C745 0.930 . S
H758 C751 0.929 . S
H759 C773 0.930 . S
H760 C752 0.930 . S
H761 C779 0.930 . S
H762 C770 0.929 . S
H763 C777 0.930 . S
H764 C741 0.931 . S
H765 C771 0.930 . S
H766 C804 0.930 . S
H767 C748 0.930 . S
H768 C803 0.931 . S
N769 Eu738 2.657 . S
N769 C770 1.334 . S
N769 C774 1.362 . S
C770 H762 0.929 . S
C770 N769 1.334 . S
C770 C773 1.413 . S
C771 H765 0.930 . S
C771 C772 1.392 . S
C771 C773 1.367 . S
C772 C771 1.392 . S
C772 C774 1.420 . S
C772 C804 1.423 . S
C773 H759 0.930 . S
C773 C770 1.413 . S
C773 C771 1.367 . S
C774 N769 1.362 . S
C774 C772 1.420 . S
C774 C778 1.429 . S
H775 C780 0.930 . S
N776 Eu738 2.609 . S
N776 C778 1.377 . S
N776 C779 1.321 . S
C777 H763 0.930 . S
C777 C779 1.400 . S
C777 C780 1.386 . S
C778 C774 1.429 . S
C778 N776 1.377 . S
C778 C781 1.411 . S
C779 H761 0.930 . S
C779 N776 1.321 . S
C779 C777 1.400 . S
C780 H775 0.930 . S
C780 C777 1.386 . S
C780 C781 1.395 . S
C781 C778 1.411 . S
C781 C780 1.395 . S
C781 C803 1.420 . S
O782 Eu738 2.558 . S
O782 C802 1.257 . S
O783 Eu738 2.612 . S
O783 Eu749 2.380 . S
O783 C794 1.276 . S
O784 Eu749 2.432 . S
O784 C801 1.264 . S
O785 Eu738 2.339 . S
O785 C801 1.254 . S
O786 Eu738 2.563 . S
O786 C794 1.235 . S
O787 Eu738 2.419 . S
O787 C802 1.249 . S
O788 Eu749 2.558 . S
O788 C813 1.257 . S
O789 Eu738 2.380 . S
O789 Eu749 2.612 . S
O789 C805 1.276 . S
O790 Eu738 2.432 . S
O790 C812 1.264 . S
O791 Eu749 2.339 . S
O791 C812 1.254 . S
O792 Eu749 2.563 . S
O792 C805 1.235 . S
O793 Eu749 2.419 . S
O793 C813 1.249 . S
C794 O783 1.276 . S
C794 O786 1.235 . S
C795 C797 1.393 . S
C795 C799 1.395 . S
C795 C802 1.492 . S
C796 C797 1.392 . S
C796 C798 1.386 . S
C797 C795 1.393 . S
C797 C796 1.392 . S
C797 H814 0.930 . S
C798 C796 1.386 . S
C798 C800 1.395 . S
C798 H815 0.930 . S
C799 C795 1.395 . S
C799 C800 1.379 . S
C799 H816 0.930 . S
C800 C798 1.395 . S
C800 C799 1.379 . S
C800 H817 0.930 . S
C801 O784 1.264 . S
C801 O785 1.254 . S
C802 Eu738 2.848 . S
C802 O782 1.257 . S
C802 O787 1.249 . S
C802 C795 1.492 . S
C803 H768 0.931 . S
C803 C781 1.420 . S
C803 C804 1.351 . S
C804 H766 0.930 . S
C804 C772 1.423 . S
C804 C803 1.351 . S
C805 O789 1.276 . S
C805 O792 1.235 . S
C806 C807 1.393 . S
C806 C810 1.395 . S
C806 C813 1.492 . S
C807 C806 1.393 . S
C807 C808 1.392 . S
C807 H818 0.930 . S
C808 C807 1.392 . S
C808 C809 1.386 . S
C809 C808 1.386 . S
C809 C811 1.395 . S
C809 H819 0.930 . S
C810 C806 1.395 . S
C810 C811 1.379 . S
C810 H820 0.930 . S
C811 C809 1.395 . S
C811 C810 1.379 . S
C811 H821 0.930 . S
C812 O790 1.264 . S
C812 O791 1.254 . S
C813 Eu749 2.848 . S
C813 O788 1.257 . S
C813 O793 1.249 . S
C813 C806 1.492 . S
H814 C797 0.930 . S
H815 C798 0.930 . S
H816 C799 0.930 . S
H817 C800 0.930 . S
H818 C807 0.930 . S
H819 C809 0.930 . S
H820 C810 0.930 . S
H821 C811 0.930 . S
Eu822 N853 2.657 . S
Eu822 N860 2.609 . S
Eu822 O866 2.558 . S
Eu822 O867 2.612 . S
Eu822 O869 2.339 . S
Eu822 O870 2.563 . S
Eu822 O871 2.419 . S
Eu822 O873 2.380 . S
Eu822 O874 2.432 . S
Eu822 C886 2.848 . S
C823 C826 1.429 . S
C823 C827 1.411 . S
C823 N830 1.377 . S
C824 C826 1.420 . S
C824 C828 1.423 . S
C824 C836 1.392 . S
C825 C827 1.420 . S
C825 C828 1.351 . S
C825 H848 0.931 . S
C826 C823 1.429 . S
C826 C824 1.420 . S
C826 N834 1.362 . S
C827 C823 1.411 . S
C827 C825 1.420 . S
C827 C832 1.395 1_545 S
C828 C824 1.423 . S
C828 C825 1.351 . S
C828 H840 0.930 . S
C829 C831 1.400 . S
C829 C832 1.386 . S
C829 H841 0.930 . S
N830 C823 1.377 . S
N830 C831 1.321 1_545 S
N830 Eu833 2.609 . S
C831 C829 1.400 . S
C831 N830 1.321 1_565 S
C831 H838 0.930 . S
C832 C827 1.395 1_565 S
C832 C829 1.386 . S
C832 H851 0.930 . S
Eu833 N830 2.609 . S
Eu833 N834 2.657 . S
Eu833 O867 2.380 . S
Eu833 O868 2.432 . S
Eu833 O872 2.558 . S
Eu833 O873 2.612 . S
Eu833 O875 2.339 . S
Eu833 O876 2.563 . S
Eu833 O877 2.419 . S
Eu833 C897 2.848 . S
N834 C826 1.362 . S
N834 Eu833 2.657 . S
N834 C835 1.334 . S
C835 N834 1.334 . S
C835 C837 1.413 . S
C835 H842 0.929 . S
C836 C824 1.392 . S
C836 C837 1.367 . S
C836 H844 0.930 . S
C837 C835 1.413 . S
C837 C836 1.367 . S
C837 H839 0.930 . S
H838 C831 0.930 . S
H839 C837 0.930 . S
H840 C828 0.930 . S
H841 C829 0.930 . S
H842 C835 0.929 . S
H843 C857 0.930 . S
H844 C836 0.930 . S
H845 C863 0.930 . S
H846 C854 0.929 1_565 S
H847 C861 0.930 . S
H848 C825 0.931 . S
H849 C855 0.930 1_565 S
H850 C888 0.930 . S
H851 C832 0.930 . S
H852 C887 0.931 . S
N853 Eu822 2.657 . S
N853 C854 1.334 . S
N853 C858 1.362 . S
C854 H846 0.929 1_545 S
C854 N853 1.334 . S
C854 C857 1.413 1_545 S
C855 H849 0.930 1_545 S
C855 C856 1.392 . S
C855 C857 1.367 1_545 S
C856 C855 1.392 . S
C856 C858 1.420 . S
C856 C888 1.423 . S
C857 H843 0.930 . S
C857 C854 1.413 1_565 S
C857 C855 1.367 1_565 S
C858 N853 1.362 . S
C858 C856 1.420 . S
C858 C862 1.429 . S
H859 C864 0.930 . S
N860 Eu822 2.609 . S
N860 C862 1.377 . S
N860 C863 1.321 . S
C861 H847 0.930 . S
C861 C863 1.400 . S
C861 C864 1.386 . S
C862 C858 1.429 . S
C862 N860 1.377 . S
C862 C865 1.411 . S
C863 H845 0.930 . S
C863 N860 1.321 . S
C863 C861 1.400 . S
C864 H859 0.930 . S
C864 C861 1.386 . S
C864 C865 1.395 . S
C865 C862 1.411 . S
C865 C864 1.395 . S
C865 C887 1.420 . S
O866 Eu822 2.558 . S
O866 C886 1.257 . S
O867 Eu822 2.612 . S
O867 Eu833 2.380 . S
O867 C878 1.276 . S
O868 Eu833 2.432 . S
O868 C885 1.264 . S
O869 Eu822 2.339 . S
O869 C885 1.254 . S
O870 Eu822 2.563 . S
O870 C878 1.235 . S
O871 Eu822 2.419 . S
O871 C886 1.249 . S
O872 Eu833 2.558 . S
O872 C897 1.257 . S
O873 Eu822 2.380 . S
O873 Eu833 2.612 . S
O873 C889 1.276 . S
O874 Eu822 2.432 . S
O874 C896 1.264 . S
O875 Eu833 2.339 . S
O875 C896 1.254 . S
O876 Eu833 2.563 . S
O876 C889 1.235 . S
O877 Eu833 2.419 . S
O877 C897 1.249 . S
C878 O867 1.276 . S
C878 O870 1.235 . S
C879 C881 1.393 . S
C879 C883 1.395 . S
C879 C886 1.492 . S
C880 C881 1.392 . S
C880 C882 1.386 . S
C881 C879 1.393 . S
C881 C880 1.392 . S
C881 H898 0.930 . S
C882 C880 1.386 . S
C882 C884 1.395 . S
C882 H899 0.930 . S
C883 C879 1.395 . S
C883 C884 1.379 . S
C883 H900 0.930 . S
C884 C882 1.395 . S
C884 C883 1.379 . S
C884 H901 0.930 . S
C885 O868 1.264 . S
C885 O869 1.254 . S
C886 Eu822 2.848 . S
C886 O866 1.257 . S
C886 O871 1.249 . S
C886 C879 1.492 . S
C887 H852 0.931 . S
C887 C865 1.420 . S
C887 C888 1.351 . S
C888 H850 0.930 . S
C888 C856 1.423 . S
C888 C887 1.351 . S
C889 O873 1.276 . S
C889 O876 1.235 . S
C890 C891 1.393 . S
C890 C894 1.395 . S
C890 C897 1.492 . S
C891 C890 1.393 . S
C891 C892 1.392 . S
C891 H902 0.930 . S
C892 C891 1.392 . S
C892 C893 1.386 . S
C893 C892 1.386 . S
C893 C895 1.395 . S
C893 H903 0.930 . S
C894 C890 1.395 . S
C894 C895 1.379 . S
C894 H904 0.930 . S
C895 C893 1.395 . S
C895 C894 1.379 . S
C895 H905 0.930 . S
C896 O874 1.264 . S
C896 O875 1.254 . S
C897 Eu833 2.848 . S
C897 O872 1.257 . S
C897 O877 1.249 . S
C897 C890 1.492 . S
H898 C881 0.930 . S
H899 C882 0.930 . S
H900 C883 0.930 . S
H901 C884 0.930 . S
H902 C891 0.930 . S
H903 C893 0.930 . S
H904 C894 0.930 . S
H905 C895 0.930 . S
Eu906 N937 2.657 1_655 S
Eu906 N944 2.609 . S
Eu906 O950 2.558 . S
Eu906 O951 2.612 . S
Eu906 O953 2.339 . S
Eu906 O954 2.563 . S
Eu906 O955 2.419 . S
Eu906 O957 2.380 . S
Eu906 O958 2.432 . S
Eu906 C970 2.848 . S
C907 C910 1.429 . S
C907 C911 1.411 . S
C907 N914 1.377 . S
C908 C910 1.420 . S
C908 C912 1.423 . S
C908 C920 1.392 . S
C909 C911 1.420 . S
C909 C912 1.351 . S
C909 H932 0.931 . S
C910 C907 1.429 . S
C910 C908 1.420 . S
C910 N918 1.362 . S
C911 C907 1.411 . S
C911 C909 1.420 . S
C911 C916 1.395 . S
C912 C908 1.423 . S
C912 C909 1.351 . S
C912 H924 0.930 . S
C913 C915 1.400 . S
C913 C916 1.386 . S
C913 H925 0.930 . S
N914 C907 1.377 . S
N914 C915 1.321 . S
N914 Eu917 2.609 . S
C915 C913 1.400 . S
C915 N914 1.321 . S
C915 H922 0.930 . S
C916 C911 1.395 . S
C916 C913 1.386 . S
C916 H935 0.930 . S
Eu917 N914 2.609 . S
Eu917 N918 2.657 . S
Eu917 O951 2.380 . S
Eu917 O952 2.432 . S
Eu917 O956 2.558 . S
Eu917 O957 2.612 . S
Eu917 O959 2.339 . S
Eu917 O960 2.563 . S
Eu917 O961 2.419 . S
Eu917 C981 2.848 . S
N918 C910 1.362 . S
N918 Eu917 2.657 . S
N918 C919 1.334 . S
C919 N918 1.334 . S
C919 C921 1.413 . S
C919 H926 0.929 . S
C920 C908 1.392 . S
C920 C921 1.367 . S
C920 H928 0.930 . S
C921 C919 1.413 . S
C921 C920 1.367 . S
C921 H923 0.930 . S
H922 C915 0.930 . S
H923 C921 0.930 . S
H924 C912 0.930 . S
H925 C913 0.930 . S
H926 C919 0.929 . S
H927 C941 0.930 . S
H928 C920 0.930 . S
H929 C947 0.930 . S
H930 C938 0.929 . S
H931 C945 0.930 . S
H932 C909 0.931 . S
H933 C939 0.930 . S
H934 C972 0.930 . S
H935 C916 0.930 . S
H936 C971 0.931 . S
N937 Eu906 2.657 1_455 S
N937 C938 1.334 . S
N937 C942 1.362 . S
C938 H930 0.929 . S
C938 N937 1.334 . S
C938 C941 1.413 . S
C939 H933 0.930 . S
C939 C940 1.392 . S
C939 C941 1.367 . S
C940 C939 1.392 . S
C940 C942 1.420 . S
C940 C972 1.423 . S
C941 H927 0.930 . S
C941 C938 1.413 . S
C941 C939 1.367 . S
C942 N937 1.362 . S
C942 C940 1.420 . S
C942 C946 1.429 . S
H943 C948 0.930 . S
N944 Eu906 2.609 . S
N944 C946 1.377 1_655 S
N944 C947 1.321 . S
C945 H931 0.930 . S
C945 C947 1.400 . S
C945 C948 1.386 1_655 S
C946 C942 1.429 . S
C946 N944 1.377 1_455 S
C946 C949 1.411 . S
C947 H929 0.930 . S
C947 N944 1.321 . S
C947 C945 1.400 . S
C948 H943 0.930 . S
C948 C945 1.386 1_455 S
C948 C949 1.395 . S
C949 C946 1.411 . S
C949 C948 1.395 . S
C949 C971 1.420 . S
O950 Eu906 2.558 . S
O950 C970 1.257 . S
O951 Eu906 2.612 . S
O951 Eu917 2.380 . S
O951 C962 1.276 . S
O952 Eu917 2.432 . S
O952 C969 1.264 . S
O953 Eu906 2.339 . S
O953 C969 1.254 . S
O954 Eu906 2.563 . S
O954 C962 1.235 . S
O955 Eu906 2.419 . S
O955 C970 1.249 . S
O956 Eu917 2.558 . S
O956 C981 1.257 . S
O957 Eu906 2.380 . S
O957 Eu917 2.612 . S
O957 C973 1.276 . S
O958 Eu906 2.432 . S
O958 C980 1.264 . S
O959 Eu917 2.339 . S
O959 C980 1.254 . S
O960 Eu917 2.563 . S
O960 C973 1.235 . S
O961 Eu917 2.419 . S
O961 C981 1.249 . S
C962 O951 1.276 . S
C962 O954 1.235 . S
C963 C965 1.393 . S
C963 C967 1.395 . S
C963 C970 1.492 . S
C964 C965 1.392 . S
C964 C966 1.386 . S
C965 C963 1.393 . S
C965 C964 1.392 . S
C965 H982 0.930 . S
C966 C964 1.386 . S
C966 C968 1.395 . S
C966 H983 0.930 . S
C967 C963 1.395 . S
C967 C968 1.379 . S
C967 H984 0.930 . S
C968 C966 1.395 . S
C968 C967 1.379 . S
C968 H985 0.930 . S
C969 O952 1.264 . S
C969 O953 1.254 . S
C970 Eu906 2.848 . S
C970 O950 1.257 . S
C970 O955 1.249 . S
C970 C963 1.492 . S
C971 H936 0.931 . S
C971 C949 1.420 . S
C971 C972 1.351 . S
C972 H934 0.930 . S
C972 C940 1.423 . S
C972 C971 1.351 . S
C973 O957 1.276 . S
C973 O960 1.235 . S
C974 C975 1.393 . S
C974 C978 1.395 . S
C974 C981 1.492 . S
C975 C974 1.393 . S
C975 C976 1.392 . S
C975 H986 0.930 . S
C976 C975 1.392 . S
C976 C977 1.386 . S
C977 C976 1.386 . S
C977 C979 1.395 . S
C977 H987 0.930 . S
C978 C974 1.395 . S
C978 C979 1.379 . S
C978 H988 0.930 . S
C979 C977 1.395 . S
C979 C978 1.379 . S
C979 H989 0.930 . S
C980 O958 1.264 . S
C980 O959 1.254 . S
C981 Eu917 2.848 . S
C981 O956 1.257 . S
C981 O961 1.249 . S
C981 C974 1.492 . S
H982 C965 0.930 . S
H983 C966 0.930 . S
H984 C967 0.930 . S
H985 C968 0.930 . S
H986 C975 0.930 . S
H987 C977 0.930 . S
H988 C978 0.930 . S
H989 C979 0.930 . S
C177 C301 1.463 . S
C190 C385 1.545 . S
C164 C465 1.592 . S
C151 C381 1.628 . S
C469 C125 1.484 . S
C138 C297 1.553 . S
C290 C147 1.409 . S
C374 C121 1.421 . S
C134 C476 1.435 . S
C173 C392 1.391 . S
C186 C458 1.351 . S
C308 C160 1.382 . S
C553 C21 1.464 1_455 S
C34 C637 1.545 . S
C8 C717 1.591 . S
C229 C633 1.628 . S
C203 C721 1.485 . S
C216 C549 1.554 . S
C225 C542 1.408 . S
C199 C626 1.421 . S
C728 C212 1.434 . S
C17 C644 1.391 . S
C710 C30 1.351 . S
C4 C560 1.382 . S
C805 C99 1.463 . S
C112 C889 1.546 . S
C969 C86 1.591 . S
C885 C73 1.628 1_545 S
C973 C47 1.484 1_655 S
C60 C801 1.553 . S
C69 C794 1.409 . S
C43 C878 1.421 . S
C980 C56 1.435 . S
C95 C896 1.390 . S
C108 C962 1.350 . S
C82 C812 1.382 . S
C204 C304 1.717 . S
C388 C217 1.675 . S
C230 C460 1.441 . S
C87 C376 1.371 . S
C100 C472 1.620 . S
C292 C113 1.439 . S
C48 C556 1.717 . S
C61 C640 1.675 . S
C74 C712 1.441 . S
C165 C628 1.371 . S
C724 C178 1.620 . S
C191 C544 1.439 . S
C126 C808 1.717 . S
C139 C892 1.675 . S
C964 C152 1.441 . S
C9 C880 1.371 . S
C22 C976 1.620 . S
C35 C796 1.438 . S
