# Generated by pormake.
# Topology tsx, (6,3)-cn, num edge types: 1
# Building blocks:
#     Node 0, Type 0, BuildingBlock: JUFBIX_clean_sbu_0, # of connection points: 6
#     Node 1, Type 0, BuildingBlock: JUFBIX_clean_sbu_0, # of connection points: 6
#     Node 2, Type 1, BuildingBlock: INOVEN_clean_linker_0, # of connection points: 3
#     Node 3, Type 1, BuildingBlock: INOVEN_clean_linker_0, # of connection points: 3
#     Node 4, Type 1, BuildingBlock: INOVEN_clean_linker_0, # of connection points: 3
#     Node 5, Type 1, BuildingBlock: INOVEN_clean_linker_0, # of connection points: 3
#     Edge 6, Type (0, 1), BuildingBlock: XUDNAN_clean_linker_2, # of connection points: 2
#     Edge 7, Type (0, 1), BuildingBlock: XUDNAN_clean_linker_2, # of connection points: 2
#     Edge 8, Type (0, 1), BuildingBlock: XUDNAN_clean_linker_2, # of connection points: 2
#     Edge 9, Type (0, 1), BuildingBlock: XUDNAN_clean_linker_2, # of connection points: 2
#     Edge 10, Type (0, 1), BuildingBlock: XUDNAN_clean_linker_2, # of connection points: 2
#     Edge 11, Type (0, 1), BuildingBlock: XUDNAN_clean_linker_2, # of connection points: 2
#     Edge 12, Type (0, 1), BuildingBlock: XUDNAN_clean_linker_2, # of connection points: 2
#     Edge 13, Type (0, 1), BuildingBlock: XUDNAN_clean_linker_2, # of connection points: 2
#     Edge 14, Type (0, 1), BuildingBlock: XUDNAN_clean_linker_2, # of connection points: 2
#     Edge 15, Type (0, 1), BuildingBlock: XUDNAN_clean_linker_2, # of connection points: 2
#     Edge 16, Type (0, 1), BuildingBlock: XUDNAN_clean_linker_2, # of connection points: 2
#     Edge 17, Type (0, 1), BuildingBlock: XUDNAN_clean_linker_2, # of connection points: 2
# Relax obj value: 0.097
# Max RMSD: 0.121
# Mean RMSD: 0.110
data_MOF--net-tsx--node1-JUFBIX_clean_sbu_0--node2-INOVEN_clean_linker_0--edge1-XUDNAN_clean_linker_2
_symmetry_space_group_name_H-M    P1
_symmetry_Int_Tables_number       1
_symmetry_cell_setting            triclinic
loop_
_symmetry_equiv_pos_as_xyz
'x, y, z'
_cell_length_a     20.253667
_cell_length_b     23.732552
_cell_length_c     32.80945
_cell_angle_alpha  92.10215
_cell_angle_beta   98.080857
_cell_angle_gamma 99.205191
loop_
_atom_site_label
_atom_site_type_symbol
_atom_site_fract_x
_atom_site_fract_y
_atom_site_fract_z
_atom_type_partial_charge
Co0 Co 0.10781 0.96035 0.00611 0.0
C1 C 0.05995 1.00504 0.9319 0.0
Co2 Co 0.0331 0.01864 0.00981 0.0
C3 C 0.1743 0.85782 0.00355 0.0
C4 C 0.22792 0.93306 0.9815 0.0
N5 N 0.17199 0.91397 -0.00171 0.0
N6 N 0.22934 0.84173 -0.00969 0.0
C7 C 0.26309 0.88928 0.97683 0.0
H8 H 0.13513 0.8289 0.01507 0.0
H9 H 0.24141 0.97589 0.97178 0.0
C10 C 0.08241 0.97436 0.08405 0.0
N11 N 0.97259 0.06801 0.0178 0.0
C12 C 0.91375 0.07567 -0.00482 0.0
C13 C 0.98463 0.10943 0.04855 0.0
N14 N 0.88969 0.12061 0.01064 0.0
C15 C 0.93419 0.14194 0.04404 0.0
C16 C 0.97484 0.90434 -0.00399 0.0
O17 O 0.11478 0.94621 0.06248 0.0
O18 O 0.04632 1.00863 0.06715 0.0
O19 O 0.96271 0.95465 0.0026 0.0
O20 O 0.03545 0.89687 -0.00554 0.0
O21 O 0.02107 0.0279 0.95221 0.0
H22 H 0.02878 0.11683 0.07204 0.0
H23 H 0.89081 0.05067 0.96703 0.0
O24 O 0.10028 0.9749 0.94989 0.0
O25 O 0.17888 0.02521 0.01809 0.0
O26 O 0.10399 0.08217 0.01702 0.0
C27 C 0.16532 0.07554 0.02027 0.0
H28 H 0.30947 0.89198 0.9636 0.0
H29 H 0.93113 0.17932 0.06317 0.0
Co30 Co 0.55309 0.52066 0.48945 0.0
C31 C 0.47829 0.56703 0.42256 0.0
Co32 Co 0.48573 0.58075 0.50516 0.0
C33 C 0.62724 0.42399 0.48197 0.0
C34 C 0.63959 0.48567 0.43648 0.0
N35 N 0.60773 0.47328 0.4693 0.0
N36 N 0.66948 0.40526 0.45789 0.0
C37 C 0.67711 0.44423 0.42938 0.0
H38 H 0.61095 0.40248 0.50825 0.0
H39 H 0.63681 0.5233 0.4191 0.0
C40 C 0.5608 0.53369 0.57174 0.0
N41 N 0.43518 0.63155 0.52534 0.0
C42 C 0.37485 0.64611 0.5105 0.0
C43 C 0.45923 0.66801 0.55865 0.0
N44 N 0.36135 0.69055 0.53316 0.0
C45 C 0.41427 0.70425 0.56341 0.0
C46 C 0.42251 0.46776 0.49512 0.0
O47 O 0.58615 0.50797 0.5447 0.0
O48 O 0.51712 0.56517 0.56058 0.0
O49 O 0.41318 0.51881 0.50228 0.0
O50 O 0.48078 0.45819 0.48924 0.0
O51 O 0.45571 0.59594 0.44928 0.0
H52 H 0.50797 0.66981 0.57744 0.0
H53 H 0.34325 0.62663 0.48258 0.0
O54 O 0.51871 0.53322 0.43449 0.0
O55 O 0.62499 0.58451 0.4901 0.0
O56 O 0.55762 0.64155 0.5077 0.0
C57 C 0.61516 0.6345 0.49978 0.0
H58 H 0.70936 0.44393 0.40575 0.0
H59 H 0.42064 0.739 0.58669 0.0
H60 H 0.04397 0.01253 0.4952 0.0
H61 H 0.09684 0.91693 0.39542 0.0
H62 H 0.98339 0.05337 0.36984 0.0
N63 N 0.97565 0.08129 0.44956 0.0
N64 N 0.94262 0.11003 0.4258 0.0
C65 C 0.04283 1.00518 0.46244 0.0
C66 C 0.07177 0.96001 0.44799 0.0
C67 C 1.01048 0.03923 0.43443 0.0
C68 C 1.00948 0.02838 0.39174 0.0
C69 C 0.04034 0.98409 0.37726 0.0
C70 C 0.07205 0.95089 0.40583 0.0
H71 H 0.94384 0.03525 0.5154 0.0
H72 H 0.92508 0.96204 0.6318 0.0
H73 H 0.06867 0.11454 0.62591 0.0
N74 N 0.04417 0.12104 0.5441 0.0
N75 N 0.10445 0.1429 0.55571 0.0
C76 C 0.95903 0.03664 0.54834 0.0
C77 C 0.92914 0.99322 0.57107 0.0
C78 C 1.01058 0.07974 0.56773 0.0
C79 C 0.02939 0.081 0.61058 0.0
C80 C 0.99734 0.03963 0.63386 0.0
C81 C 0.94716 0.99586 0.61404 0.0
H82 H 0.52096 0.38926 0.96259 0.0
H83 H 0.62992 0.37624 0.85951 0.0
H84 H 0.50369 0.50395 0.86423 0.0
N85 N 0.46479 0.47999 0.93757 0.0
N86 N 0.44595 0.52346 0.9227 0.0
C87 C 0.53326 0.40345 0.93315 0.0
C88 C 0.57814 0.37685 0.91282 0.0
C89 C 0.50659 0.45003 0.9161 0.0
C90 C 0.52424 0.46854 0.87812 0.0
C91 C 0.56847 0.44234 0.85762 0.0
C92 C 0.59496 0.39627 0.87498 0.0
H93 H 0.5138 0.46805 0.02145 0.0
H94 H 0.40229 0.44747 0.12371 0.0
H95 H 0.5407 0.60284 0.11668 0.0
N96 N 0.58046 0.57147 0.04497 0.0
N97 N 0.60087 0.6236 0.05334 0.0
C98 C 0.50052 0.48483 0.0498 0.0
C99 C 0.45263 0.45175 0.06999 0.0
C100 C 0.53084 0.53999 0.06568 0.0
C101 C 0.51496 0.56143 0.10314 0.0
C102 C 0.46963 0.52766 0.12468 0.0
C103 C 0.4375 0.47363 0.10727 0.0
H104 H 0.15347 0.18654 0.03759 0.0
H105 H 0.29933 0.07913 0.01255 0.0
H106 H 0.38789 0.16508 0.01695 0.0
H107 H 0.21547 0.30624 0.98069 0.0
H108 H 0.20023 0.35868 0.01786 0.0
H109 H 0.14816 0.289 0.01104 0.0
H110 H 0.1775 0.27428 0.089 0.0
H111 H 0.22907 0.34406 0.09614 0.0
H112 H 0.26496 0.28218 0.11203 0.0
H113 H 0.46083 0.26404 0.02484 0.0
H114 H 0.5135 0.3652 0.0424 0.0
H115 H 0.31888 0.40585 0.06249 0.0
C116 C 0.20397 0.18096 0.0329 0.0
C117 C 0.21948 0.12615 0.02461 0.0
C118 C 0.28636 0.12074 0.01904 0.0
C119 C 0.33685 0.16933 0.02121 0.0
C120 C 0.31959 0.22285 0.02909 0.0
C121 C 0.25482 0.22874 0.0352 0.0
C122 C 0.24963 0.29045 0.04509 0.0
C123 C 0.20046 0.31237 0.01167 0.0
C124 C 0.22911 0.29817 0.08812 0.0
C125 C 0.32182 0.31848 0.04416 0.0
C126 C 0.36138 0.27908 0.03432 0.0
C127 C 0.43023 0.2952 0.03251 0.0
C128 C 0.45962 0.35276 0.04223 0.0
C129 C 0.42023 0.39316 0.05391 0.0
C130 C 0.35025 0.37576 0.0539 0.0
H131 H 0.28377 0.80005 0.928 0.0
H132 H 0.2161 0.75647 0.04399 0.0
H133 H 0.26034 0.66455 0.03964 0.0
H134 H 0.24905 0.65796 0.87809 0.0
H135 H 0.32335 0.67061 0.85307 0.0
H136 H 0.28128 0.72919 0.8649 0.0
H137 H 0.39384 0.7838 0.90565 0.0
H138 H 0.43611 0.7253 0.89419 0.0
H139 H 0.43804 0.75006 0.947 0.0
H140 H 0.32239 0.57865 0.02278 0.0
H141 H 0.38831 0.51027 -0.0058 0.0
H142 H 0.41391 0.61598 0.89122 0.0
C143 C 0.27785 0.77114 0.95248 0.0
C144 C 0.24707 0.78548 0.98649 0.0
C145 C 0.23928 0.74601 0.01754 0.0
C146 C 0.26458 0.69398 0.01535 0.0
C147 C 0.2968 0.68214 0.98173 0.0
C148 C 0.30261 0.71982 0.95075 0.0
C149 C 0.34095 0.69963 0.91844 0.0
C150 C 0.29595 0.68868 0.87613 0.0
C151 C 0.40607 0.74222 0.91622 0.0
C152 C 0.35663 0.64464 0.93588 0.0
C153 C 0.33112 0.63457 0.97238 0.0
C154 C 0.34203 0.58629 -0.0059 0.0
C155 C 0.37974 0.54783 0.97789 0.0
C156 C 0.406 0.55862 0.94059 0.0
C157 C 0.39379 0.60717 0.91965 0.0
H158 H 0.8534 0.90212 0.02324 0.0
H159 H 0.97275 0.79428 0.96601 0.0
H160 H 0.88349 0.71042 0.96847 0.0
H161 H 0.80208 0.80493 0.09426 0.0
H162 H 0.71891 0.82338 0.09305 0.0
H163 H 0.78745 0.87562 0.08161 0.0
H164 H 0.71815 0.88955 0.01113 0.0
H165 H 0.64913 0.83739 0.0224 0.0
H166 H 0.68489 0.82839 0.97576 0.0
H167 H 0.78343 0.63736 0.98117 0.0
H168 H 0.68558 0.58097 0.00683 0.0
H169 H 0.63606 0.73643 0.05904 0.0
C170 C 0.86015 0.86114 0.01029 0.0
C171 C 0.91959 0.85481 -0.00612 0.0
C172 C 0.92732 0.80013 0.9784 0.0
C173 C 0.87682 0.75235 0.97957 0.0
C174 C 0.81925 0.75998 -0.0034 0.0
C175 C 0.81093 0.81306 0.01183 0.0
C176 C 0.7477 0.80931 0.03199 0.0
C177 C 0.76511 0.82948 0.07794 0.0
C178 C 0.69697 0.84317 0.00893 0.0
C179 C 0.72217 0.74564 0.0264 0.0
C180 C 0.76337 0.71794 0.00529 0.0
C181 C 0.75064 0.65871 -0.00253 0.0
C182 C 0.69495 0.62704 0.01209 0.0
C183 C 0.65339 0.65482 0.03474 0.0
C184 C 0.667 0.71466 0.04152 0.0
H185 H 0.89527 0.22873 0.98859 0.0
H186 H 0.75807 0.0708 -0.00526 0.0
H187 H 0.66012 0.11992 0.97292 0.0
H188 H 0.79725 0.32404 0.02622 0.0
H189 H 0.81899 0.37892 -0.00843 0.0
H190 H 0.87705 0.33086 0.00693 0.0
H191 H 0.87906 0.30128 0.9303 0.0
H192 H 0.82191 0.34997 0.91469 0.0
H193 H 0.80049 0.27562 0.89698 0.0
H194 H 0.57739 0.19039 0.95476 0.0
H195 H 0.51876 0.27079 0.93202 0.0
H196 H 0.71274 0.37954 0.93447 0.0
C197 C 0.84448 0.20457 0.98483 0.0
C198 C 0.83351 0.1463 -0.00681 0.0
C199 C 0.76685 0.11547 0.98802 0.0
C200 C 0.71127 0.14316 0.97602 0.0
C201 C 0.72377 0.20131 0.9688 0.0
C202 C 0.78899 0.23121 0.97222 0.0
C203 C 0.78963 0.29274 0.96169 0.0
C204 C 0.82268 0.33405 -0.00118 0.0
C205 C 0.82483 0.30564 0.92365 0.0
C206 C 0.71456 0.29332 0.95222 0.0
C207 C 0.67707 0.24053 0.95694 0.0
C208 C 0.60639 0.23166 0.95062 0.0
C209 C 0.5735 0.27748 0.93803 0.0
C210 C 0.61148 0.33091 0.93146 0.0
C211 C 0.68271 0.33891 0.9392 0.0
H212 H 0.6251 0.7323 0.54705 0.0
H213 H 0.72735 0.64926 0.46032 0.0
H214 H 0.81508 0.73622 0.46493 0.0
H215 H 0.6578 0.87533 0.51316 0.0
H216 H 0.6715 0.90829 0.56469 0.0
H217 H 0.61549 0.84092 0.5527 0.0
H218 H 0.68471 0.79533 0.61138 0.0
H219 H 0.74052 0.86261 0.6238 0.0
H220 H 0.77452 0.79918 0.61219 0.0
H221 H 0.89047 0.83292 0.4792 0.0
H222 H 0.95574 0.92639 0.50819 0.0
H223 H 0.80541 0.94288 0.58773 0.0
C224 C 0.6657 0.7325 0.52875 0.0
C225 C 0.66937 0.68451 0.50298 0.0
C226 C 0.72386 0.6858 0.4802 0.0
C227 C 0.77345 0.73502 0.48244 0.0
C228 C 0.76784 0.78192 0.50793 0.0
C229 C 0.7158 0.78061 0.53112 0.0
C230 C 0.72319 0.83491 0.55815 0.0
C231 C 0.66344 0.86673 0.54645 0.0
C232 C 0.73124 0.82223 0.60409 0.0
C233 C 0.78787 0.86719 0.54676 0.0
C234 C 0.81231 0.83639 0.51726 0.0
C235 C 0.87184 0.85743 0.50224 0.0
C236 C 0.9082 0.91065 0.51858 0.0
C237 C 0.88521 0.94172 0.54991 0.0
C238 C 0.82384 0.91996 0.56369 0.0
H239 H 0.70942 0.3458 0.39638 0.0
H240 H 0.70763 0.35403 0.52846 0.0
H241 H 0.77663 0.27654 0.53531 0.0
H242 H 0.70211 0.19239 0.3825 0.0
H243 H 0.75784 0.19918 0.34404 0.0
H244 H 0.70455 0.25196 0.34988 0.0
H245 H 0.81004 0.33173 0.36017 0.0
H246 H 0.86373 0.27921 0.35475 0.0
H247 H 0.87931 0.32712 0.40025 0.0
H248 H 0.85238 0.20152 0.52737 0.0
H249 H 0.9222 0.13319 0.50513 0.0
H250 H 0.8758 0.17689 0.37862 0.0
C251 C 0.72328 0.33133 0.42681 0.0
C252 C 0.7034 0.35627 0.46195 0.0
C253 C 0.72174 0.33525 0.50108 0.0
C254 C 0.76129 0.29154 0.50525 0.0
C255 C 0.78164 0.26917 0.46996 0.0
C256 C 0.76262 0.28813 0.43146 0.0
C257 C 0.79212 0.2585 0.39838 0.0
C258 C 0.73579 0.22342 0.36685 0.0
C259 C 0.83909 0.30173 0.37716 0.0
C260 C 0.83156 0.22019 0.42423 0.0
C261 C 0.82491 0.22674 0.46545 0.0
C262 C 0.85765 0.19606 0.49516 0.0
C263 C 0.89759 0.15748 0.48229 0.0
C264 C 0.90468 0.1502 0.44011 0.0
C265 C 0.87123 0.18203 0.41099 0.0
H266 H 0.4267 0.3638 0.52724 0.0
H267 H 0.29078 0.46574 0.46277 0.0
H268 H 0.1943 0.38763 0.46435 0.0
H269 H 0.34068 0.22179 0.48312 0.0
H270 H 0.35494 0.18897 0.53155 0.0
H271 H 0.41426 0.24935 0.52023 0.0
H272 H 0.40004 0.30374 0.58758 0.0
H273 H 0.34095 0.24357 0.59915 0.0
H274 H 0.3166 0.3133 0.59649 0.0
H275 H 0.11203 0.29952 0.4754 0.0
H276 H 0.04916 0.21397 0.50227 0.0
H277 H 0.23743 0.17388 0.56467 0.0
C278 C 0.37678 0.36896 0.51268 0.0
C279 C 0.36594 0.42007 0.49425 0.0
C280 C 0.29982 0.42649 0.47674 0.0
C281 C 0.24493 0.38231 0.4773 0.0
C282 C 0.25703 0.33247 0.49611 0.0
C283 C 0.32123 0.32591 0.51397 0.0
C284 C 0.31963 0.27111 0.53627 0.0
C285 C 0.35976 0.2304 0.5166 0.0
C286 C 0.34583 0.28371 0.58261 0.0
C287 C 0.24449 0.2482 0.5286 0.0
C288 C 0.20933 0.28347 0.50457 0.0
C289 C 0.13908 0.27146 0.49408 0.0
C290 C 0.1038 0.22276 0.5093 0.0
C291 C 0.13903 0.18753 0.53527 0.0
C292 C 0.20997 0.20016 0.54453 0.0
H293 H 0.37053 0.80519 0.53614 0.0
H294 H 0.22884 0.6466 0.51073 0.0
H295 H 0.13406 0.70152 0.4983 0.0
H296 H 0.26234 0.88951 0.58517 0.0
H297 H 0.29201 0.95358 0.56072 0.0
H298 H 0.34715 0.90197 0.57267 0.0
H299 H 0.36571 0.89405 0.49617 0.0
H300 H 0.31183 0.94632 0.48432 0.0
H301 H 0.29328 0.87747 0.45637 0.0
H302 H 0.05693 0.77351 0.48442 0.0
H303 H 1.00528 0.85563 0.45929 0.0
H304 H 0.19775 0.96754 0.4919 0.0
C305 C 0.3193 0.78218 0.52868 0.0
C306 C 0.30634 0.72183 0.52491 0.0
C307 C 0.23926 0.69286 0.51379 0.0
C308 C 0.18538 0.72369 0.50719 0.0
C309 C 0.19985 0.78335 0.51155 0.0
C310 C 0.26536 0.81228 0.52139 0.0
C311 C 0.26847 0.87629 0.51939 0.0
C312 C 0.294 0.90714 0.56204 0.0
C313 C 0.31238 0.89988 0.48714 0.0
C314 C 0.19452 0.879 0.50593 0.0
C315 C 0.15556 0.825 0.50262 0.0
C316 C 0.08664 0.81602 0.48767 0.0
C317 C 0.05751 0.8629 0.47394 0.0
C318 C 0.09724 0.91782 0.47515 0.0
C319 C 0.16603 0.92631 0.49239 0.0
H320 H 0.07921 0.05399 0.14493 0.0
H321 H 0.08286 0.87364 0.12098 0.0
H322 H 0.06692 0.856 0.19318 0.0
H323 H 0.17396 0.06383 0.24879 0.0
H324 H 0.12688 0.11485 0.26789 0.0
H325 H 0.13852 0.1125 0.21447 0.0
H326 H 1.00855 0.09909 0.19296 0.0
H327 H 0.99645 0.1003 0.24631 0.0
H328 H 0.95534 0.04032 0.21165 0.0
H329 H 0.0401 0.85725 0.26513 0.0
H330 H 0.02551 0.87851 0.33687 0.0
H331 H 0.05212 0.06009 0.31611 0.0
C332 C 0.07738 0.01094 0.15516 0.0
C333 C 0.08204 0.965 0.12783 0.0
C334 C 0.07989 0.90926 0.14189 0.0
C335 C 0.07026 0.89886 0.18256 0.0
C336 C 0.06429 0.94495 0.20858 0.0
C337 C 0.06947 1.00009 0.19581 0.0
C338 C 0.06408 0.04231 0.23038 0.0
C339 C 0.12978 0.08593 0.24102 0.0
C340 C 1.00243 0.07225 0.21966 0.0
C341 C 0.05429 1.00215 0.26454 0.0
C342 C 0.05339 0.94614 0.25104 0.0
C343 C 0.04239 0.90105 0.27641 0.0
C344 C 0.03457 0.91373 0.3172 0.0
C345 C 0.03961 0.9712 0.33259 0.0
C346 C 0.04811 0.01578 0.30548 0.0
H347 H 0.95567 0.01754 0.87144 0.0
H348 H 0.17167 0.01613 0.89495 0.0
H349 H 0.17958 0.03069 0.82173 0.0
H350 H 0.92803 0.93671 0.77558 0.0
H351 H 0.8644 0.97467 0.75115 0.0
H352 H 0.87601 0.96993 0.80626 0.0
H353 H 0.89438 0.08046 0.81632 0.0
H354 H 0.88259 0.08555 0.76118 0.0
H355 H 0.95858 0.1228 0.79229 0.0
H356 H 0.16473 0.04249 0.74686 0.0
H357 H 0.1262 0.04533 0.67225 0.0
H358 H 0.91894 0.03368 0.69551 0.0
C359 C 1.00457 0.02121 0.86108 0.0
C360 C 0.06314 0.01611 0.88853 0.0
C361 C 0.12626 0.01986 0.87412 0.0
C362 C 0.13135 0.0284 0.83274 0.0
C363 C 0.07269 0.03245 0.8062 0.0
C364 C 1.01038 0.02859 0.81953 0.0
C365 C 0.9547 0.03015 0.78378 0.0
C366 C 0.90274 0.97455 0.77892 0.0
C367 C 0.92057 0.08289 0.7887 0.0
C368 C 0.99558 0.03497 0.74843 0.0
C369 C 0.06363 0.03707 0.76224 0.0
C370 C 0.11164 0.04113 0.73555 0.0
C371 C 0.08942 0.04285 0.69339 0.0
C372 C 0.01986 0.03984 0.67851 0.0
C373 C 0.9724 0.03589 0.70634 0.0
H374 H 0.56396 0.43664 0.61425 0.0
H375 H 0.60163 0.62172 0.62856 0.0
H376 H 0.62439 0.61716 0.7042 0.0
H377 H 0.47059 0.41754 0.69457 0.0
H378 H 0.50015 0.35367 0.71222 0.0
H379 H 0.49999 0.3706 0.65923 0.0
H380 H 0.62798 0.36607 0.66599 0.0
H381 H 0.62853 0.34889 0.71911 0.0
H382 H 0.68605 0.40937 0.7061 0.0
H383 H 0.62998 0.59383 0.77703 0.0
H384 H 0.61244 0.55327 0.84354 0.0
H385 H 0.56574 0.38266 0.78368 0.0
C386 C 0.57936 0.47594 0.63347 0.0
C387 C 0.58255 0.52957 0.61598 0.0
C388 C 0.5999 0.58037 0.64171 0.0
C389 C 0.61314 0.57815 0.68458 0.0
C390 C 0.60807 0.52473 0.70119 0.0
C391 C 0.59142 0.47443 0.67657 0.0
C392 C 0.58089 0.42303 0.70256 0.0
C393 C 0.50862 0.38926 0.69148 0.0
C394 C 0.63405 0.38457 0.69817 0.0
C395 C 0.59204 0.4525 0.7454 0.0
C396 C 0.60901 0.51108 0.7438 0.0
C397 C 0.61754 0.548 0.7788 0.0
C398 C 0.60712 0.52463 0.81636 0.0
C399 C 0.58772 0.46494 0.81864 0.0
C400 C 0.58163 0.42834 0.78285 0.0
H401 H 0.47527 0.48485 0.36308 0.0
H402 H 0.44321 0.65974 0.381 0.0
H403 H 0.43097 0.66879 0.3051 0.0
H404 H 0.57617 0.50708 0.28673 0.0
H405 H 0.54237 0.43997 0.25809 0.0
H406 H 0.54102 0.44627 0.31273 0.0
H407 H 0.41121 0.41215 0.30092 0.0
H408 H 0.4122 0.40516 0.24616 0.0
H409 H 0.3578 0.4489 0.2663 0.0
H410 H 0.43571 0.66011 0.22667 0.0
H411 H 0.44731 0.63238 0.15454 0.0
H412 H 0.47493 0.46312 0.19129 0.0
C413 C 0.46443 0.52484 0.35107 0.0
C414 C 0.46022 0.57166 0.37775 0.0
C415 C 0.44599 0.62322 0.36092 0.0
C416 C 0.43933 0.62873 0.31793 0.0
C417 C 0.44602 0.58197 0.29253 0.0
C418 C 0.45714 0.53075 0.30868 0.0
C419 C 0.46522 0.48733 0.27575 0.0
C420 C 0.53535 0.46914 0.28382 0.0
C421 C 0.4082 0.43532 0.27207 0.0
C422 C 0.45851 0.52226 0.23836 0.0
C423 C 0.44738 0.57675 0.2483 0.0
C424 C 0.44334 0.61725 0.21858 0.0
C425 C 0.45036 0.60132 0.17781 0.0
C426 C 0.46094 0.54536 0.16725 0.0
C427 C 0.46507 0.50573 0.19813 0.0
loop_
_geom_bond_atom_site_label_1
_geom_bond_atom_site_label_2
_geom_bond_distance
_geom_bond_site_symmetry_2
_ccdc_geom_bond_type
Co0 N5 2.057 . S
Co0 O17 2.021 . S
Co0 O20 2.062 1_455 S
Co0 O24 2.117 1_554 S
Co0 O25 2.020 1_565 S
C1 O21 1.259 1_455 S
C1 O24 1.258 1_545 S
Co2 N11 2.057 . S
Co2 O18 2.117 . S
Co2 O19 2.020 1_545 S
Co2 O21 2.021 1_554 S
Co2 O26 2.062 1_655 S
C3 N5 1.316 . S
C3 N6 1.347 . S
C3 H8 0.931 . S
C4 N5 1.375 1_556 S
C4 C7 1.350 . S
C4 H9 0.930 . S
N5 Co0 2.057 . S
N5 C3 1.316 . S
N5 C4 1.375 1_554 S
N6 C3 1.347 . S
N6 C7 1.373 1_554 S
C7 C4 1.350 . S
C7 N6 1.373 1_556 S
C7 H28 0.931 . S
H8 C3 0.931 . S
H9 C4 0.930 . S
C10 O17 1.259 1_545 S
C10 O18 1.258 1_455 S
N11 Co2 2.057 . S
N11 C12 1.316 1_554 S
N11 C13 1.375 . S
C12 N11 1.316 1_556 S
C12 N14 1.347 1_556 S
C12 H23 0.931 . S
C13 N11 1.375 . S
C13 C15 1.350 . S
C13 H22 0.930 . S
N14 C12 1.347 1_554 S
N14 C15 1.373 . S
C15 C13 1.350 . S
C15 N14 1.373 . S
C15 H29 0.931 . S
C16 O19 1.256 . S
C16 O20 1.255 . S
O17 Co0 2.021 . S
O17 C10 1.259 1_565 S
O18 Co2 2.117 . S
O18 C10 1.258 1_655 S
O19 Co2 2.020 1_565 S
O19 C16 1.256 . S
O20 Co0 2.062 1_655 S
O20 C16 1.255 . S
O21 C1 1.259 1_655 S
O21 Co2 2.021 1_556 S
H22 C13 0.930 . S
H23 C12 0.931 . S
O24 Co0 2.117 1_556 S
O24 C1 1.258 1_565 S
O25 Co0 2.020 1_545 S
O25 C27 1.256 . S
O26 Co2 2.062 1_455 S
O26 C27 1.255 . S
C27 O25 1.256 . S
C27 O26 1.255 . S
H28 C7 0.931 . S
H29 C15 0.931 . S
Co30 N35 2.057 . S
Co30 O47 2.021 . S
Co30 O50 2.062 . S
Co30 O54 2.117 . S
Co30 O55 2.020 . S
C31 O51 1.259 . S
C31 O54 1.258 . S
Co32 N41 2.057 . S
Co32 O48 2.117 . S
Co32 O49 2.020 . S
Co32 O51 2.021 . S
Co32 O56 2.062 . S
C33 N35 1.316 . S
C33 N36 1.347 . S
C33 H38 0.931 . S
C34 N35 1.375 . S
C34 C37 1.350 . S
C34 H39 0.930 . S
N35 Co30 2.057 . S
N35 C33 1.316 . S
N35 C34 1.375 . S
N36 C33 1.347 . S
N36 C37 1.373 . S
C37 C34 1.350 . S
C37 N36 1.373 . S
C37 H58 0.931 . S
H38 C33 0.931 . S
H39 C34 0.930 . S
C40 O47 1.259 . S
C40 O48 1.258 . S
N41 Co32 2.057 . S
N41 C42 1.316 . S
N41 C43 1.375 . S
C42 N41 1.316 . S
C42 N44 1.347 . S
C42 H53 0.931 . S
C43 N41 1.375 . S
C43 C45 1.350 . S
C43 H52 0.930 . S
N44 C42 1.347 . S
N44 C45 1.373 . S
C45 C43 1.350 . S
C45 N44 1.373 . S
C45 H59 0.931 . S
C46 O49 1.256 . S
C46 O50 1.255 . S
O47 Co30 2.021 . S
O47 C40 1.259 . S
O48 Co32 2.117 . S
O48 C40 1.258 . S
O49 Co32 2.020 . S
O49 C46 1.256 . S
O50 Co30 2.062 . S
O50 C46 1.255 . S
O51 C31 1.259 . S
O51 Co32 2.021 . S
H52 C43 0.930 . S
H53 C42 0.931 . S
O54 Co30 2.117 . S
O54 C31 1.258 . S
O55 Co30 2.020 . S
O55 C57 1.256 . S
O56 Co32 2.062 . S
O56 C57 1.255 . S
C57 O55 1.256 . S
C57 O56 1.255 . S
H58 C37 0.931 . S
H59 C45 0.931 . S
H60 C65 0.929 . S
H61 C70 0.931 . S
H62 C68 0.930 1_655 S
N63 N64 1.234 . S
N63 C67 1.453 1_655 S
N64 N63 1.234 . S
C65 H60 0.929 . S
C65 C66 1.373 . S
C65 C67 1.368 1_565 S
C66 C65 1.373 . S
C66 C70 1.397 . S
C67 N63 1.453 1_455 S
C67 C65 1.368 1_545 S
C67 C68 1.373 . S
C68 H62 0.930 1_455 S
C68 C67 1.373 . S
C68 C69 1.371 1_545 S
C69 C68 1.371 1_565 S
C69 C70 1.383 . S
C70 H61 0.931 . S
C70 C66 1.397 . S
C70 C69 1.383 . S
H71 C76 0.929 . S
H72 C81 0.931 . S
H73 C79 0.930 . S
N74 N75 1.234 . S
N74 C78 1.453 . S
N75 N74 1.234 . S
C76 H71 0.929 . S
C76 C77 1.373 . S
C76 C78 1.368 1_665 S
C77 C76 1.373 . S
C77 C81 1.397 . S
C78 N74 1.453 . S
C78 C76 1.368 1_445 S
C78 C79 1.373 . S
C79 H73 0.930 . S
C79 C78 1.373 . S
C79 C80 1.378 1_455 S
C80 C79 1.378 1_655 S
C80 C81 1.374 1_545 S
C81 H72 0.931 . S
C81 C77 1.397 . S
C81 C80 1.374 1_565 S
H82 C87 0.929 1_554 S
H83 C92 0.931 . S
H84 C90 0.930 . S
N85 N86 1.234 . S
N85 C89 1.453 . S
N86 N85 1.234 . S
C87 H82 0.929 1_556 S
C87 C88 1.373 . S
C87 C89 1.368 . S
C88 C87 1.373 . S
C88 C92 1.397 . S
C89 N85 1.453 . S
C89 C87 1.368 . S
C89 C90 1.373 . S
C90 H84 0.930 . S
C90 C89 1.373 . S
C90 C91 1.371 . S
C91 C90 1.371 . S
C91 C92 1.383 . S
C92 H83 0.931 . S
C92 C88 1.397 . S
C92 C91 1.383 . S
H93 C98 0.929 . S
H94 C103 0.931 . S
H95 C101 0.930 . S
N96 N97 1.234 . S
N96 C100 1.453 . S
N97 N96 1.234 . S
C98 H93 0.929 . S
C98 C99 1.373 . S
C98 C100 1.368 . S
C99 C98 1.373 . S
C99 C103 1.397 . S
C100 N96 1.453 . S
C100 C98 1.368 . S
C100 C101 1.373 . S
C101 H95 0.930 . S
C101 C100 1.373 . S
C101 C102 1.371 . S
C102 C101 1.371 . S
C102 C103 1.383 . S
C103 H94 0.931 . S
C103 C99 1.397 . S
C103 C102 1.383 . S
H104 C116 0.930 . S
H105 C118 0.930 . S
H106 C119 0.930 . S
H107 C123 0.959 . S
H108 C123 0.959 . S
H109 C123 0.961 . S
H110 C124 0.960 . S
H111 C124 0.961 . S
H112 C124 0.959 . S
H113 C127 0.929 . S
H114 C128 0.931 . S
H115 C130 0.930 1_556 S
C116 H104 0.930 . S
C116 C117 1.399 1_556 S
C116 C121 1.399 1_556 S
C117 C116 1.399 1_554 S
C117 C118 1.376 . S
C118 H105 0.930 . S
C118 C117 1.376 . S
C118 C119 1.388 . S
C119 H106 0.930 . S
C119 C118 1.388 . S
C119 C120 1.390 . S
C120 C119 1.390 . S
C120 C121 1.394 . S
C120 C126 1.465 . S
C121 C116 1.399 1_554 S
C121 C120 1.394 . S
C121 C122 1.516 1_554 S
C122 C121 1.516 1_556 S
C122 C123 1.502 . S
C122 C124 1.561 . S
C122 C125 1.526 1_556 S
C123 H107 0.959 . S
C123 H108 0.959 . S
C123 H109 0.961 . S
C123 C122 1.502 . S
C124 H110 0.960 . S
C124 H111 0.961 . S
C124 H112 0.959 . S
C124 C122 1.561 . S
C125 C122 1.526 1_554 S
C125 C126 1.396 . S
C125 C130 1.390 . S
C126 C120 1.465 . S
C126 C125 1.396 . S
C126 C127 1.399 . S
C127 H113 0.929 . S
C127 C126 1.399 . S
C127 C128 1.385 . S
C128 H114 0.931 . S
C128 C127 1.385 . S
C128 C129 1.389 . S
C129 C128 1.389 . S
C129 C130 1.387 . S
C130 H115 0.930 1_554 S
C130 C125 1.390 . S
C130 C129 1.387 . S
H131 C143 0.930 . S
H132 C145 0.930 . S
H133 C146 0.930 . S
H134 C150 0.959 . S
H135 C150 0.959 . S
H136 C150 0.961 . S
H137 C151 0.960 . S
H138 C151 0.961 . S
H139 C151 0.959 . S
H140 C154 0.929 . S
H141 C155 0.931 . S
H142 C157 0.930 . S
C143 H131 0.930 . S
C143 C144 1.399 1_556 S
C143 C148 1.399 . S
C144 C143 1.399 1_554 S
C144 C145 1.376 . S
C145 H132 0.930 . S
C145 C144 1.376 . S
C145 C146 1.388 . S
C146 H133 0.930 . S
C146 C145 1.388 . S
C146 C147 1.390 . S
C147 C146 1.390 . S
C147 C148 1.394 1_554 S
C147 C153 1.465 . S
C148 C143 1.399 . S
C148 C147 1.394 1_556 S
C148 C149 1.516 . S
C149 C148 1.516 . S
C149 C150 1.502 . S
C149 C151 1.561 . S
C149 C152 1.526 . S
C150 H134 0.959 . S
C150 H135 0.959 . S
C150 H136 0.961 . S
C150 C149 1.502 . S
C151 H137 0.960 . S
C151 H138 0.961 . S
C151 H139 0.959 . S
C151 C149 1.561 . S
C152 C149 1.526 . S
C152 C153 1.396 1_556 S
C152 C157 1.390 . S
C153 C147 1.465 . S
C153 C152 1.396 1_554 S
C153 C154 1.399 . S
C154 H140 0.929 . S
C154 C153 1.399 . S
C154 C155 1.385 . S
C155 H141 0.931 . S
C155 C154 1.385 . S
C155 C156 1.389 1_554 S
C156 C155 1.389 1_556 S
C156 C157 1.387 . S
C157 H142 0.930 . S
C157 C152 1.390 . S
C157 C156 1.387 . S
H158 C170 0.930 . S
H159 C172 0.930 . S
H160 C173 0.930 . S
H161 C177 0.959 . S
H162 C177 0.959 . S
H163 C177 0.961 . S
H164 C178 0.960 . S
H165 C178 0.961 . S
H166 C178 0.959 . S
H167 C181 0.929 . S
H168 C182 0.931 . S
H169 C184 0.930 . S
C170 H158 0.930 . S
C170 C171 1.399 . S
C170 C175 1.399 . S
C171 C170 1.399 . S
C171 C172 1.376 1_554 S
C172 H159 0.930 . S
C172 C171 1.376 1_556 S
C172 C173 1.388 . S
C173 H160 0.930 . S
C173 C172 1.388 . S
C173 C174 1.390 . S
C174 C173 1.390 . S
C174 C175 1.394 1_556 S
C174 C180 1.470 . S
C175 C170 1.399 . S
C175 C174 1.394 1_554 S
C175 C176 1.516 . S
C176 C175 1.516 . S
C176 C177 1.502 . S
C176 C178 1.561 . S
C176 C179 1.526 . S
C177 H161 0.959 . S
C177 H162 0.959 . S
C177 H163 0.961 . S
C177 C176 1.502 . S
C178 H164 0.960 . S
C178 H165 0.961 . S
C178 H166 0.959 . S
C178 C176 1.561 . S
C179 C176 1.526 . S
C179 C180 1.377 1_554 S
C179 C184 1.390 . S
C180 C174 1.470 . S
C180 C179 1.377 1_556 S
C180 C181 1.410 . S
C181 H167 0.929 . S
C181 C180 1.410 . S
C181 C182 1.385 . S
C182 H168 0.931 . S
C182 C181 1.385 . S
C182 C183 1.389 1_556 S
C183 C182 1.389 1_554 S
C183 C184 1.387 . S
C184 H169 0.930 . S
C184 C179 1.390 . S
C184 C183 1.387 . S
H185 C197 0.930 . S
H186 C199 0.930 . S
H187 C200 0.930 . S
H188 C204 0.959 . S
H189 C204 0.959 . S
H190 C204 0.961 . S
H191 C205 0.960 . S
H192 C205 0.961 . S
H193 C205 0.959 . S
H194 C208 0.929 . S
H195 C209 0.931 . S
H196 C211 0.930 . S
C197 H185 0.930 . S
C197 C198 1.399 . S
C197 C202 1.399 . S
C198 C197 1.399 . S
C198 C199 1.376 1_556 S
C199 H186 0.930 . S
C199 C198 1.376 1_554 S
C199 C200 1.388 . S
C200 H187 0.930 . S
C200 C199 1.388 . S
C200 C201 1.390 . S
C201 C200 1.390 . S
C201 C202 1.394 1_554 S
C201 C207 1.465 1_554 S
C202 C197 1.399 . S
C202 C201 1.394 1_556 S
C202 C203 1.516 . S
C203 C202 1.516 . S
C203 C204 1.502 . S
C203 C205 1.561 . S
C203 C206 1.526 . S
C204 H188 0.959 . S
C204 H189 0.959 . S
C204 H190 0.961 . S
C204 C203 1.502 . S
C205 H191 0.960 . S
C205 H192 0.961 . S
C205 H193 0.959 . S
C205 C203 1.561 . S
C206 C203 1.526 . S
C206 C207 1.396 . S
C206 C211 1.390 . S
C207 C201 1.465 1_556 S
C207 C206 1.396 . S
C207 C208 1.399 1_556 S
C208 H194 0.929 . S
C208 C207 1.399 1_554 S
C208 C209 1.385 . S
C209 H195 0.931 . S
C209 C208 1.385 . S
C209 C210 1.389 1_554 S
C210 C209 1.389 1_556 S
C210 C211 1.387 . S
C211 H196 0.930 . S
C211 C206 1.390 . S
C211 C210 1.387 . S
H212 C224 0.930 . S
H213 C226 0.930 . S
H214 C227 0.930 . S
H215 C231 0.959 . S
H216 C231 0.959 . S
H217 C231 0.961 . S
H218 C232 0.960 . S
H219 C232 0.961 . S
H220 C232 0.959 . S
H221 C235 0.929 . S
H222 C236 0.931 . S
H223 C238 0.930 . S
C224 H212 0.930 . S
C224 C225 1.399 . S
C224 C229 1.399 . S
C225 C224 1.399 . S
C225 C226 1.376 . S
C226 H213 0.930 . S
C226 C225 1.376 . S
C226 C227 1.388 . S
C227 H214 0.930 . S
C227 C226 1.388 . S
C227 C228 1.390 . S
C228 C227 1.390 . S
C228 C229 1.394 . S
C228 C234 1.465 . S
C229 C224 1.399 . S
C229 C228 1.394 . S
C229 C230 1.516 . S
C230 C229 1.516 . S
C230 C231 1.502 . S
C230 C232 1.561 . S
C230 C233 1.526 . S
C231 H215 0.959 . S
C231 H216 0.959 . S
C231 H217 0.961 . S
C231 C230 1.502 . S
C232 H218 0.960 . S
C232 H219 0.961 . S
C232 H220 0.959 . S
C232 C230 1.561 . S
C233 C230 1.526 . S
C233 C234 1.396 . S
C233 C238 1.390 . S
C234 C228 1.465 . S
C234 C233 1.396 . S
C234 C235 1.399 . S
C235 H221 0.929 . S
C235 C234 1.399 . S
C235 C236 1.385 . S
C236 H222 0.931 . S
C236 C235 1.385 . S
C236 C237 1.389 . S
C237 C236 1.389 . S
C237 C238 1.387 . S
C238 H223 0.930 . S
C238 C233 1.390 . S
C238 C237 1.387 . S
H239 C251 0.930 . S
H240 C253 0.930 . S
H241 C254 0.930 . S
H242 C258 0.959 . S
H243 C258 0.959 . S
H244 C258 0.961 . S
H245 C259 0.960 . S
H246 C259 0.961 . S
H247 C259 0.959 . S
H248 C262 0.929 . S
H249 C263 0.931 . S
H250 C265 0.930 . S
C251 H239 0.930 . S
C251 C252 1.399 . S
C251 C256 1.399 . S
C252 C251 1.399 . S
C252 C253 1.376 . S
C253 H240 0.930 . S
C253 C252 1.376 . S
C253 C254 1.388 . S
C254 H241 0.930 . S
C254 C253 1.388 . S
C254 C255 1.390 . S
C255 C254 1.390 . S
C255 C256 1.394 . S
C255 C261 1.465 . S
C256 C251 1.399 . S
C256 C255 1.394 . S
C256 C257 1.516 . S
C257 C256 1.516 . S
C257 C258 1.502 . S
C257 C259 1.561 . S
C257 C260 1.526 . S
C258 H242 0.959 . S
C258 H243 0.959 . S
C258 H244 0.961 . S
C258 C257 1.502 . S
C259 H245 0.960 . S
C259 H246 0.961 . S
C259 H247 0.959 . S
C259 C257 1.561 . S
C260 C257 1.526 . S
C260 C261 1.396 . S
C260 C265 1.390 . S
C261 C255 1.465 . S
C261 C260 1.396 . S
C261 C262 1.399 . S
C262 H248 0.929 . S
C262 C261 1.399 . S
C262 C263 1.385 . S
C263 H249 0.931 . S
C263 C262 1.385 . S
C263 C264 1.389 . S
C264 C263 1.389 . S
C264 C265 1.387 . S
C265 H250 0.930 . S
C265 C260 1.390 . S
C265 C264 1.387 . S
H266 C278 0.930 . S
H267 C280 0.930 . S
H268 C281 0.930 . S
H269 C285 0.959 . S
H270 C285 0.959 . S
H271 C285 0.961 . S
H272 C286 0.960 . S
H273 C286 0.961 . S
H274 C286 0.959 . S
H275 C289 0.929 . S
H276 C290 0.931 . S
H277 C292 0.930 . S
C278 H266 0.930 . S
C278 C279 1.399 . S
C278 C283 1.399 . S
C279 C278 1.399 . S
C279 C280 1.376 . S
C280 H267 0.930 . S
C280 C279 1.376 . S
C280 C281 1.388 . S
C281 H268 0.930 . S
C281 C280 1.388 . S
C281 C282 1.390 . S
C282 C281 1.390 . S
C282 C283 1.394 . S
C282 C288 1.465 . S
C283 C278 1.399 . S
C283 C282 1.394 . S
C283 C284 1.516 . S
C284 C283 1.516 . S
C284 C285 1.502 . S
C284 C286 1.561 . S
C284 C287 1.526 . S
C285 H269 0.959 . S
C285 H270 0.959 . S
C285 H271 0.961 . S
C285 C284 1.502 . S
C286 H272 0.960 . S
C286 H273 0.961 . S
C286 H274 0.959 . S
C286 C284 1.561 . S
C287 C284 1.526 . S
C287 C288 1.396 . S
C287 C292 1.390 . S
C288 C282 1.465 . S
C288 C287 1.396 . S
C288 C289 1.399 . S
C289 H275 0.929 . S
C289 C288 1.399 . S
C289 C290 1.385 . S
C290 H276 0.931 . S
C290 C289 1.385 . S
C290 C291 1.389 . S
C291 C290 1.389 . S
C291 C292 1.387 . S
C292 H277 0.930 . S
C292 C287 1.390 . S
C292 C291 1.387 . S
H293 C305 0.930 . S
H294 C307 0.930 . S
H295 C308 0.930 . S
H296 C312 0.959 . S
H297 C312 0.959 . S
H298 C312 0.961 . S
H299 C313 0.960 . S
H300 C313 0.961 . S
H301 C313 0.959 . S
H302 C316 0.929 . S
H303 C317 0.931 . S
H304 C319 0.930 . S
C305 H293 0.930 . S
C305 C306 1.399 . S
C305 C310 1.399 . S
C306 C305 1.399 . S
C306 C307 1.376 . S
C307 H294 0.930 . S
C307 C306 1.376 . S
C307 C308 1.388 . S
C308 H295 0.930 . S
C308 C307 1.388 . S
C308 C309 1.390 . S
C309 C308 1.390 . S
C309 C310 1.394 . S
C309 C315 1.465 . S
C310 C305 1.399 . S
C310 C309 1.394 . S
C310 C311 1.516 . S
C311 C310 1.516 . S
C311 C312 1.502 . S
C311 C313 1.561 . S
C311 C314 1.526 . S
C312 H296 0.959 . S
C312 H297 0.959 . S
C312 H298 0.961 . S
C312 C311 1.502 . S
C313 H299 0.960 . S
C313 H300 0.961 . S
C313 H301 0.959 . S
C313 C311 1.561 . S
C314 C311 1.526 . S
C314 C315 1.396 . S
C314 C319 1.390 . S
C315 C309 1.465 . S
C315 C314 1.396 . S
C315 C316 1.399 . S
C316 H302 0.929 . S
C316 C315 1.399 . S
C316 C317 1.385 . S
C317 H303 0.931 . S
C317 C316 1.385 . S
C317 C318 1.389 . S
C318 C317 1.389 . S
C318 C319 1.387 . S
C319 H304 0.930 . S
C319 C314 1.390 . S
C319 C318 1.387 . S
H320 C332 0.930 . S
H321 C334 0.930 . S
H322 C335 0.930 . S
H323 C339 0.959 . S
H324 C339 0.959 . S
H325 C339 0.961 . S
H326 C340 0.960 . S
H327 C340 0.961 . S
H328 C340 0.959 1_655 S
H329 C343 0.929 . S
H330 C344 0.931 . S
H331 C346 0.930 . S
C332 H320 0.930 . S
C332 C333 1.399 1_545 S
C332 C337 1.399 . S
C333 C332 1.399 1_565 S
C333 C334 1.376 1_455 S
C334 H321 0.930 . S
C334 C333 1.376 1_655 S
C334 C335 1.388 . S
C335 H322 0.930 . S
C335 C334 1.388 . S
C335 C336 1.390 1_655 S
C336 C335 1.390 1_455 S
C336 C337 1.394 1_565 S
C336 C342 1.465 . S
C337 C332 1.399 . S
C337 C336 1.394 1_545 S
C337 C338 1.516 . S
C338 C337 1.516 . S
C338 C339 1.502 . S
C338 C340 1.561 . S
C338 C341 1.526 . S
C339 H323 0.959 . S
C339 H324 0.959 . S
C339 H325 0.961 . S
C339 C338 1.502 . S
C340 H326 0.960 . S
C340 H327 0.961 . S
C340 H328 0.959 1_455 S
C340 C338 1.561 . S
C341 C338 1.526 . S
C341 C342 1.396 1_545 S
C341 C346 1.390 . S
C342 C336 1.465 . S
C342 C341 1.396 1_565 S
C342 C343 1.399 1_455 S
C343 H329 0.929 . S
C343 C342 1.399 1_655 S
C343 C344 1.385 . S
C344 H330 0.931 . S
C344 C343 1.385 . S
C344 C345 1.389 1_655 S
C345 C344 1.389 1_455 S
C345 C346 1.387 1_565 S
C346 H331 0.930 . S
C346 C341 1.390 . S
C346 C345 1.387 1_545 S
H347 C359 0.930 . S
H348 C361 0.930 . S
H349 C362 0.930 . S
H350 C366 0.959 1_565 S
H351 C366 0.959 . S
H352 C366 0.961 . S
H353 C367 0.960 . S
H354 C367 0.961 . S
H355 C367 0.959 1_455 S
H356 C370 0.929 . S
H357 C371 0.931 . S
H358 C373 0.930 . S
C359 H347 0.930 . S
C359 C360 1.399 1_655 S
C359 C364 1.399 . S
C360 C359 1.399 1_455 S
C360 C361 1.376 1_545 S
C361 H348 0.930 . S
C361 C360 1.376 1_565 S
C361 C362 1.388 . S
C362 H349 0.930 . S
C362 C361 1.388 . S
C362 C363 1.390 . S
C363 C362 1.390 . S
C363 C364 1.394 1_465 S
C363 C369 1.465 . S
C364 C359 1.399 . S
C364 C363 1.394 1_645 S
C364 C365 1.516 . S
C365 C364 1.516 . S
C365 C366 1.502 . S
C365 C367 1.561 . S
C365 C368 1.526 . S
C366 H350 0.959 1_545 S
C366 H351 0.959 . S
C366 H352 0.961 . S
C366 C365 1.502 . S
C367 H353 0.960 . S
C367 H354 0.961 . S
C367 H355 0.959 1_655 S
C367 C365 1.561 . S
C368 C365 1.526 . S
C368 C369 1.396 1_645 S
C368 C373 1.390 . S
C369 C363 1.465 . S
C369 C368 1.396 1_465 S
C369 C370 1.399 . S
C370 H356 0.929 . S
C370 C369 1.399 . S
C370 C371 1.385 . S
C371 H357 0.931 . S
C371 C370 1.385 . S
C371 C372 1.379 1_465 S
C372 C371 1.379 1_645 S
C372 C373 1.396 . S
C373 H358 0.930 . S
C373 C368 1.390 . S
C373 C372 1.396 . S
H374 C386 0.930 . S
H375 C388 0.930 . S
H376 C389 0.930 . S
H377 C393 0.959 . S
H378 C393 0.959 . S
H379 C393 0.961 . S
H380 C394 0.960 . S
H381 C394 0.961 . S
H382 C394 0.959 . S
H383 C397 0.929 . S
H384 C398 0.931 . S
H385 C400 0.930 . S
C386 H374 0.930 . S
C386 C387 1.399 . S
C386 C391 1.399 . S
C387 C386 1.399 . S
C387 C388 1.376 . S
C388 H375 0.930 . S
C388 C387 1.376 . S
C388 C389 1.388 . S
C389 H376 0.930 . S
C389 C388 1.388 . S
C389 C390 1.390 . S
C390 C389 1.390 . S
C390 C391 1.394 . S
C390 C396 1.465 . S
C391 C386 1.399 . S
C391 C390 1.394 . S
C391 C392 1.516 . S
C392 C391 1.516 . S
C392 C393 1.502 . S
C392 C394 1.561 . S
C392 C395 1.526 . S
C393 H377 0.959 . S
C393 H378 0.959 . S
C393 H379 0.961 . S
C393 C392 1.502 . S
C394 H380 0.960 . S
C394 H381 0.961 . S
C394 H382 0.959 . S
C394 C392 1.561 . S
C395 C392 1.526 . S
C395 C396 1.396 . S
C395 C400 1.390 . S
C396 C390 1.465 . S
C396 C395 1.396 . S
C396 C397 1.399 . S
C397 H383 0.929 . S
C397 C396 1.399 . S
C397 C398 1.385 . S
C398 H384 0.931 . S
C398 C397 1.385 . S
C398 C399 1.389 . S
C399 C398 1.389 . S
C399 C400 1.387 . S
C400 H385 0.930 . S
C400 C395 1.390 . S
C400 C399 1.387 . S
H401 C413 0.930 . S
H402 C415 0.930 . S
H403 C416 0.930 . S
H404 C420 0.959 . S
H405 C420 0.959 . S
H406 C420 0.961 . S
H407 C421 0.960 . S
H408 C421 0.961 . S
H409 C421 0.959 . S
H410 C424 0.929 . S
H411 C425 0.931 . S
H412 C427 0.930 . S
C413 H401 0.930 . S
C413 C414 1.399 . S
C413 C418 1.399 . S
C414 C413 1.399 . S
C414 C415 1.376 . S
C415 H402 0.930 . S
C415 C414 1.376 . S
C415 C416 1.388 . S
C416 H403 0.930 . S
C416 C415 1.388 . S
C416 C417 1.390 . S
C417 C416 1.390 . S
C417 C418 1.394 . S
C417 C423 1.465 . S
C418 C413 1.399 . S
C418 C417 1.394 . S
C418 C419 1.516 . S
C419 C418 1.516 . S
C419 C420 1.502 . S
C419 C421 1.561 . S
C419 C422 1.526 . S
C420 H404 0.959 . S
C420 H405 0.959 . S
C420 H406 0.961 . S
C420 C419 1.502 . S
C421 H407 0.960 . S
C421 H408 0.961 . S
C421 H409 0.959 . S
C421 C419 1.561 . S
C422 C419 1.526 . S
C422 C423 1.396 . S
C422 C427 1.390 . S
C423 C417 1.465 . S
C423 C422 1.396 . S
C423 C424 1.399 . S
C424 H410 0.929 . S
C424 C423 1.399 . S
C424 C425 1.385 . S
C425 H411 0.931 . S
C425 C424 1.385 . S
C425 C426 1.389 . S
C426 C425 1.389 . S
C426 C427 1.387 . S
C427 H412 0.930 . S
C427 C422 1.390 . S
C427 C426 1.387 . S
C129 C99 1.421 . S
C117 C27 1.470 . S
C144 N6 1.378 . S
C156 N86 1.401 . S
C171 C16 1.426 . S
C183 N97 1.411 . S
C198 N14 1.403 1_556 S
C210 C88 1.448 . S
C225 C57 1.479 . S
C237 C77 1.468 . S
C252 N36 1.379 . S
C264 N64 1.402 . S
C291 N75 1.339 . S
C279 C46 1.408 . S
C318 C66 1.409 . S
C306 N44 1.456 . S
C333 C10 1.466 1_565 S
C345 C69 1.456 . S
C360 C1 1.541 . S
C372 C80 1.526 . S
C399 C91 1.469 . S
C387 C40 1.463 . S
C414 C31 1.528 . S
C426 C102 1.538 . S
