# Generated by pormake.
# Topology zzz, (3,6)-cn, num edge types: 1
# Building blocks:
#     Node 0, Type 0, BuildingBlock: ESEHIV_clean_linker_0, # of connection points: 3
#     Node 1, Type 0, BuildingBlock: ESEHIV_clean_linker_0, # of connection points: 3
#     Node 2, Type 0, BuildingBlock: ESEHIV_clean_linker_0, # of connection points: 3
#     Node 3, Type 0, BuildingBlock: ESEHIV_clean_linker_0, # of connection points: 3
#     Node 4, Type 0, BuildingBlock: ESEHIV_clean_linker_0, # of connection points: 3
#     Node 5, Type 0, BuildingBlock: ESEHIV_clean_linker_0, # of connection points: 3
#     Node 6, Type 0, BuildingBlock: ESEHIV_clean_linker_0, # of connection points: 3
#     Node 7, Type 0, BuildingBlock: ESEHIV_clean_linker_0, # of connection points: 3
#     Node 8, Type 1, BuildingBlock: GEDQOX_clean_sbu_0, # of connection points: 6
#     Node 9, Type 1, BuildingBlock: GEDQOX_clean_sbu_0, # of connection points: 6
#     Node 10, Type 1, BuildingBlock: GEDQOX_clean_sbu_0, # of connection points: 6
#     Node 11, Type 1, BuildingBlock: GEDQOX_clean_sbu_0, # of connection points: 6
#     Edge 12, Type (0, 1), BuildingBlock: MIFKUJ_clean_linker_0, # of connection points: 2
#     Edge 13, Type (0, 1), BuildingBlock: MIFKUJ_clean_linker_0, # of connection points: 2
#     Edge 14, Type (0, 1), BuildingBlock: MIFKUJ_clean_linker_0, # of connection points: 2
#     Edge 15, Type (0, 1), BuildingBlock: MIFKUJ_clean_linker_0, # of connection points: 2
#     Edge 16, Type (0, 1), BuildingBlock: MIFKUJ_clean_linker_0, # of connection points: 2
#     Edge 17, Type (0, 1), BuildingBlock: MIFKUJ_clean_linker_0, # of connection points: 2
#     Edge 18, Type (0, 1), BuildingBlock: MIFKUJ_clean_linker_0, # of connection points: 2
#     Edge 19, Type (0, 1), BuildingBlock: MIFKUJ_clean_linker_0, # of connection points: 2
#     Edge 20, Type (0, 1), BuildingBlock: MIFKUJ_clean_linker_0, # of connection points: 2
#     Edge 21, Type (0, 1), BuildingBlock: MIFKUJ_clean_linker_0, # of connection points: 2
#     Edge 22, Type (0, 1), BuildingBlock: MIFKUJ_clean_linker_0, # of connection points: 2
#     Edge 23, Type (0, 1), BuildingBlock: MIFKUJ_clean_linker_0, # of connection points: 2
#     Edge 24, Type (0, 1), BuildingBlock: MIFKUJ_clean_linker_0, # of connection points: 2
#     Edge 25, Type (0, 1), BuildingBlock: MIFKUJ_clean_linker_0, # of connection points: 2
#     Edge 26, Type (0, 1), BuildingBlock: MIFKUJ_clean_linker_0, # of connection points: 2
#     Edge 27, Type (0, 1), BuildingBlock: MIFKUJ_clean_linker_0, # of connection points: 2
#     Edge 28, Type (0, 1), BuildingBlock: MIFKUJ_clean_linker_0, # of connection points: 2
#     Edge 29, Type (0, 1), BuildingBlock: MIFKUJ_clean_linker_0, # of connection points: 2
#     Edge 30, Type (0, 1), BuildingBlock: MIFKUJ_clean_linker_0, # of connection points: 2
#     Edge 31, Type (0, 1), BuildingBlock: MIFKUJ_clean_linker_0, # of connection points: 2
#     Edge 32, Type (0, 1), BuildingBlock: MIFKUJ_clean_linker_0, # of connection points: 2
#     Edge 33, Type (0, 1), BuildingBlock: MIFKUJ_clean_linker_0, # of connection points: 2
#     Edge 34, Type (0, 1), BuildingBlock: MIFKUJ_clean_linker_0, # of connection points: 2
#     Edge 35, Type (0, 1), BuildingBlock: MIFKUJ_clean_linker_0, # of connection points: 2
# Relax obj value: 0.306
# Max RMSD: 0.263
# Mean RMSD: 0.198
data_MOF--net-zzz--node1-GEDQOX_clean_sbu_0--node2-ESEHIV_clean_linker_0--edge1-MIFKUJ_clean_linker_0
_symmetry_space_group_name_H-M    P1
_symmetry_Int_Tables_number       1
_symmetry_cell_setting            triclinic
loop_
_symmetry_equiv_pos_as_xyz
'x, y, z'
_cell_length_a     63.64614
_cell_length_b     59.493241
_cell_length_c     22.246156
_cell_angle_alpha  82.158145
_cell_angle_beta   90.981357
_cell_angle_gamma 101.93712
loop_
_atom_site_label
_atom_site_type_symbol
_atom_site_fract_x
_atom_site_fract_y
_atom_site_fract_z
_atom_type_partial_charge
H0 H 0.80086 0.43315 0.17735 0.0
H1 H 0.7513 0.4324 0.04389 0.0
H2 H 0.74552 0.46096 0.20938 0.0
C3 C 0.78514 0.43625 0.1638 0.0
C4 C 0.77394 0.44721 0.20077 0.0
C5 C 0.77713 0.4311 0.10705 0.0
C6 C 0.7574 0.43636 0.08786 0.0
C7 C 0.74565 0.4468 0.12494 0.0
C8 C 0.7541 0.45225 0.1813 0.0
H9 H 0.96506 0.75936 0.27691 0.0
H10 H 0.97209 0.71221 0.15299 0.0
H11 H 0.96942 0.68943 0.34613 0.0
C12 C 0.96601 0.74208 0.2685 0.0
C13 C 0.9662 0.72486 0.31795 0.0
C14 C 0.96833 0.73775 0.20907 0.0
C15 C 0.97055 0.71567 0.19915 0.0
C16 C 0.97109 0.69807 0.248 0.0
C17 C 0.96874 0.70267 0.30796 0.0
H18 H 0.71013 0.00582 0.09687 0.0
H19 H 0.76472 0.02685 0.97658 0.0
H20 H 0.7723 0.99817 0.16304 0.0
C21 C 0.72721 0.00782 0.08866 0.0
C22 C 0.74017 1.00071 0.13588 0.0
C23 C 0.73602 0.01761 0.03142 0.0
C24 C 0.75814 0.02021 0.02164 0.0
C25 C 0.77152 0.01315 0.06854 0.0
C26 C 0.76235 0.00361 0.12613 0.0
H27 H 0.60631 0.74538 0.33773 0.0
H28 H 0.56926 0.78985 0.40468 0.0
H29 H 0.59247 0.80415 0.22116 0.0
C30 C 0.59925 0.76059 0.33059 0.0
C31 C 0.6002 0.77344 0.27254 0.0
C32 C 0.58721 0.76549 0.37785 0.0
C33 C 0.57893 0.78591 0.36946 0.0
C34 C 0.58211 0.80052 0.31362 0.0
C35 C 0.59236 0.79399 0.26548 0.0
H36 H 0.2272 0.54486 0.50378 0.0
H37 H 0.2763 0.55873 0.6363 0.0
H38 H 0.29031 0.53424 0.47026 0.0
C39 C 0.24369 0.54561 0.5181 0.0
C40 C 0.25788 0.5384 0.48121 0.0
C41 C 0.25005 0.55268 0.57431 0.0
C42 C 0.27149 0.55401 0.59197 0.0
C43 C 0.28628 0.54751 0.55463 0.0
C44 C 0.27932 0.53982 0.49888 0.0
H45 H 0.07204 0.25545 0.41364 0.0
H46 H 0.06712 0.31184 0.50818 0.0
H47 H 0.06527 0.32067 0.3123 0.0
C48 C 0.07107 0.27345 0.41185 0.0
C49 C 0.06918 0.28682 0.35569 0.0
C50 C 0.07012 0.28231 0.46641 0.0
C51 C 0.06813 0.30518 0.46552 0.0
C52 C 0.06696 0.31936 0.41018 0.0
C53 C 0.06684 0.31 0.35498 0.0
H54 H 0.30887 0.95887 0.54197 0.0
H55 H 0.25594 0.95431 0.661 0.0
H56 H 0.25824 0.99486 0.48393 0.0
C57 C 0.29366 0.96351 0.54983 0.0
C58 C 0.28495 0.97793 0.50513 0.0
C59 C 0.28369 0.95586 0.60653 0.0
C60 C 0.26362 0.96063 0.61711 0.0
C61 C 0.25409 0.97453 0.57291 0.0
C62 C 0.2649 0.98318 0.51688 0.0
H63 H 0.43469 0.27299 0.33989 0.0
H64 H 0.46687 0.22481 0.26992 0.0
H65 H 0.44094 0.21042 0.45195 0.0
C66 C 0.43917 0.25622 0.34462 0.0
C67 C 0.4364 0.24228 0.40112 0.0
C68 C 0.44969 0.24998 0.29618 0.0
C69 C 0.45779 0.22934 0.30555 0.0
C70 C 0.45492 0.21513 0.36229 0.0
C71 C 0.44334 0.22132 0.40834 0.0
Nd72 Nd 0.00412 0.00286 0.76716 0.0
Nd73 Nd 0.03038 0.0153 0.87196 0.0
C74 C 0.97629 0.98112 0.69356 0.0
C75 C 0.97425 0.95817 0.67332 0.0
C76 C 0.95928 0.95113 0.62917 0.0
C77 C 0.95782 0.9295 0.60916 0.0
C78 C 0.97134 0.91451 0.63298 0.0
C79 C 0.98623 0.9217 0.67759 0.0
C80 C 0.9877 0.9433 0.69737 0.0
C81 C 0.04737 0.00834 0.74497 0.0
C82 C 0.01544 0.96212 0.87041 0.0
C83 C 0.05695 0.03691 0.94833 0.0
C84 C 0.05789 0.05909 0.97312 0.0
C85 C 0.06952 0.08018 0.94264 0.0
C86 C 0.06895 0.10123 0.96344 0.0
C87 C 0.05672 0.10172 0.01513 0.0
C88 C 0.04556 0.0806 0.04645 0.0
C89 C 0.04621 0.05956 0.02589 0.0
C90 C 0.98698 0.00979 0.8922 0.0
C91 C 0.02067 0.05621 0.76776 0.0
O92 O 0.97232 0.98097 0.75109 0.0
O93 O 0.99346 0.99644 0.67434 0.0
O94 O 0.03394 0.01533 0.70616 0.0
O95 O 0.03791 0.99803 0.79347 0.0
O96 O 0.00089 0.96895 0.83348 0.0
O97 O 0.03228 0.97719 0.88519 0.0
O98 O 0.06129 0.03839 0.89049 0.0
O99 O 0.04071 0.02002 0.96597 0.0
O100 O -2e-05 1.00185 0.93075 0.0
O101 O 0.99684 0.02058 0.84485 0.0
O102 O 0.03476 0.04899 0.80556 0.0
O103 O 0.0036 0.04157 0.75218 0.0
H104 H 0.94884 0.96242 0.60983 0.0
H105 H 0.94635 0.92472 0.57425 0.0
H106 H 0.99668 0.91058 0.69768 0.0
H107 H -0.00055 0.94843 0.73135 0.0
H108 H 0.07875 0.08048 0.90196 0.0
H109 H 0.07765 0.1172 0.9381 0.0
H110 H 0.03631 0.08032 0.08706 0.0
H111 H 0.03723 0.04368 0.0509 0.0
Nd112 Nd 0.51476 0.97454 0.76858 0.0
Nd113 Nd 0.49835 0.00922 0.83394 0.0
C114 C 0.52999 0.94155 0.72659 0.0
C115 C 0.54841 0.94269 0.68651 0.0
C116 C 0.5552 0.9225 0.67695 0.0
C117 C 0.57289 0.92386 0.63897 0.0
C118 C 0.58406 0.94547 0.60996 0.0
C119 C 0.57712 0.96564 0.62005 0.0
C120 C 0.55956 0.96426 0.65809 0.0
C121 C 0.50465 0.01106 0.69221 0.0
C122 C 0.54816 0.02164 0.78487 0.0
C123 C 0.48355 0.04235 0.87659 0.0
C124 C 0.46713 0.04173 0.92313 0.0
C125 C 0.45428 0.05841 0.91752 0.0
C126 C 0.43819 0.0573 0.96073 0.0
C127 C 0.43478 0.03952 0.01042 0.0
C128 C 0.44767 0.02281 0.01559 0.0
C129 C 0.4636 0.02385 0.97233 0.0
C130 C 0.50956 0.97325 0.91029 0.0
C131 C 0.46545 0.96116 0.8221 0.0
O132 O 0.53482 0.94793 0.77999 0.0
O133 O 0.51413 0.95016 0.70133 0.0
O134 O 0.52064 1.00147 0.68363 0.0
O135 O 0.49372 1.00064 0.73847 0.0
O136 O 0.54626 0.99978 0.77727 0.0
O137 O 0.53175 0.03012 0.80051 0.0
O138 O 0.47643 0.03408 0.82682 0.0
O139 O 0.5011 0.03568 0.89621 0.0
O140 O 0.49347 0.98256 0.91991 0.0
O141 O 0.51992 0.98378 0.86332 0.0
O142 O 0.46708 0.98287 0.83099 0.0
O143 O 0.4817 0.95331 0.80288 0.0
H144 H 0.54686 0.90572 0.69892 0.0
H145 H 0.57793 0.90801 0.63284 0.0
H146 H 0.58504 0.98254 0.5978 0.0
H147 H 0.5546 0.98007 0.66513 0.0
H148 H 0.45664 0.07223 0.8796 0.0
H149 H 0.42857 0.07046 0.95565 0.0
H150 H 0.44521 0.00867 0.05266 0.0
H151 H 0.47306 0.01055 0.97721 0.0
Nd152 Nd 0.50799 0.52206 0.90187 0.0
Nd153 Nd 0.53157 0.50473 0.8076 0.0
C154 C 0.48573 0.54715 0.9535 0.0
C155 C 0.48918 0.57255 0.95144 0.0
C156 C 0.49335 0.58724 0.8959 0.0
C157 C 0.5018 0.6109 0.89503 0.0
C158 C 0.50624 0.62027 0.94955 0.0
C159 C 0.50031 0.60596 0.00485 0.0
C160 C 0.49187 0.58227 0.00575 0.0
C161 C 0.54683 0.51268 0.93905 0.0
C162 C 0.54058 0.55907 0.80031 0.0
C163 C 0.5496 0.47866 0.74706 0.0
C164 C 0.53961 0.45516 0.73334 0.0
C165 C 0.53551 0.43613 0.77982 0.0
C166 C 0.5212 0.41567 0.77063 0.0
C167 C 0.51073 0.41395 0.71493 0.0
C168 C 0.51604 0.43224 0.66718 0.0
C169 C 0.53046 0.45257 0.67614 0.0
C170 C 0.49254 0.5142 0.77186 0.0
C171 C 0.50235 0.46739 0.91472 0.0
O172 O 0.47997 0.53882 0.90281 0.0
O173 O 0.50052 0.5376 0.98199 0.0
O174 O 0.53006 0.50853 0.97452 0.0
O175 O 0.54319 0.5227 0.88739 0.0
O176 O 0.52354 0.55501 0.83658 0.0
O177 O 0.54968 0.54214 0.78853 0.0
O178 O 0.55388 0.48074 0.80407 0.0
O179 O 0.54081 0.49535 0.72027 0.0
O180 O 0.50941 0.51931 0.73711 0.0
O181 O 0.49629 0.50365 0.82264 0.0
O182 O 0.51856 0.47214 0.87567 0.0
O183 O 0.49254 0.48369 0.92748 0.0
H184 H 0.49138 0.5803 0.85313 0.0
H185 H 0.50597 0.62163 0.85179 0.0
H186 H 0.50364 0.6127 0.04763 0.0
H187 H 0.48882 0.57129 0.04904 0.0
H188 H 0.54239 0.43745 0.82436 0.0
H189 H 0.51748 0.40169 0.80796 0.0
H190 H 0.50853 0.43106 0.62332 0.0
H191 H 0.5334 0.46682 0.63934 0.0
Nd192 Nd 0.00212 0.52086 0.79737 0.0
Nd193 Nd 0.0219 0.48346 0.88439 0.0
C194 C 0.97601 0.5485 0.75872 0.0
C195 C 0.95671 0.54266 0.72193 0.0
C196 C 0.94101 0.5562 0.71603 0.0
C197 C 0.92226 0.54935 0.68322 0.0
C198 C 0.91897 0.52882 0.65605 0.0
C199 C 0.93489 0.51546 0.66234 0.0
C200 C 0.95338 0.52219 0.69525 0.0
C201 C 0.01198 0.48827 0.73069 0.0
C202 C 0.97273 0.46935 0.84949 0.0
C203 C 0.04737 0.45695 0.93745 0.0
C204 C 0.06743 0.46225 0.9712 0.0
C205 C 0.07773 0.44453 0.99613 0.0
C206 C 0.09658 0.44976 0.02945 0.0
C207 C 0.10533 0.4728 0.03838 0.0
C208 C 0.09499 0.49048 0.01253 0.0
C209 C 0.07619 0.48523 0.97955 0.0
C210 C 0.00335 0.51302 0.94026 0.0
C211 C 0.0526 0.53461 0.82696 0.0
O212 O 0.97469 0.53699 0.81362 0.0
O213 O 0.99433 0.5493 0.73133 0.0
O214 O 0.00416 0.50588 0.70711 0.0
O215 O 0.01441 0.48901 0.78659 0.0
O216 O 0.97386 0.49181 0.83373 0.0
O217 O 0.98998 0.46061 0.8626 0.0
O218 O 0.04854 0.46491 0.87949 0.0
O219 O 0.03028 0.46033 0.96378 0.0
O220 O 0.00225 0.4914 0.96197 0.0
O221 O 0.0148 0.51846 0.89273 0.0
O222 O 0.05071 0.5138 0.8591 0.0
O223 O 0.03626 0.54223 0.79988 0.0
H224 H 0.94313 0.57186 0.73724 0.0
H225 H 0.91024 0.55994 0.67987 0.0
H226 H 0.93325 0.49984 0.64124 0.0
H227 H 0.96507 0.51123 0.70017 0.0
H228 H 0.07112 0.42668 0.99023 0.0
H229 H 0.10405 0.43573 0.04922 0.0
H230 H 0.10147 0.50844 0.01767 0.0
H231 H 0.06837 0.49911 0.96099 0.0
H232 H 0.21983 0.97881 0.49803 0.0
H233 H 0.18528 0.9871 0.52551 0.0
H234 H 0.20711 0.99232 0.7085 0.0
H235 H 0.24185 0.98533 0.68112 0.0
H236 H 0.16558 0.9607 0.69457 0.0
H237 H 0.20482 0.0391 0.63159 0.0
H238 H 0.2262 0.07024 0.55943 0.0
H239 H 0.17506 0.06257 0.43062 0.0
H240 H 0.15349 0.03113 0.50173 0.0
H241 H 0.07952 0.99795 0.8198 0.0
H242 H 0.11552 0.9946 0.7899 0.0
H243 H 0.10008 0.01142 0.60153 0.0
H244 H 0.06466 0.01594 0.63149 0.0
H245 H 0.13872 0.03159 0.61648 0.0
H246 H 0.09926 0.95403 0.67242 0.0
H247 H 0.07692 0.92161 0.73881 0.0
H248 H 0.1267 0.92505 0.87201 0.0
H249 H 0.14923 0.95772 0.80675 0.0
C250 C 0.21741 0.98211 0.54382 0.0
C251 C 0.23354 0.98098 0.58756 0.0
C252 C 0.19764 0.9867 0.5595 0.0
C253 C 0.19366 0.99007 0.61917 0.0
C254 C 0.20983 0.98948 0.66243 0.0
C255 C 0.22963 0.98529 0.64667 0.0
C256 C 0.17247 0.99361 0.63736 0.0
C257 C 0.15973 0.97628 0.67808 0.0
C258 C 0.16473 0.01364 0.61435 0.0
C259 C 0.17765 0.03259 0.57169 0.0
C260 C 0.19822 0.0439 0.58764 0.0
C261 C 0.21036 0.06164 0.54699 0.0
C262 C 0.20202 0.06833 0.4904 0.0
C263 C 0.18151 0.05734 0.47442 0.0
C264 C 0.16932 0.03957 0.5149 0.0
C265 C 0.08393 1.00105 0.77212 0.0
C266 C 0.06932 0.00703 0.72793 0.0
C267 C 0.10443 0.999 0.75497 0.0
C268 C 0.11042 1.00228 0.69326 0.0
C269 C 0.0959 0.00876 0.64935 0.0
C270 C 0.07561 0.01126 0.66653 0.0
C271 C 0.13161 0.99864 0.6741 0.0
C272 C 0.14441 0.01594 0.63308 0.0
C273 C 0.13924 0.97831 0.6959 0.0
C274 C 0.12584 0.95847 0.73495 0.0
C275 C 0.10539 0.94796 0.71603 0.0
C276 C 0.09269 0.92954 0.75344 0.0
C277 C 0.10036 0.92132 0.80966 0.0
C278 C 0.12077 0.93146 0.82849 0.0
C279 C 0.13352 0.94992 0.79129 0.0
H280 H 0.0905 0.90707 0.83859 0.0
H281 H 0.21144 0.08207 0.45899 0.0
H282 H 0.45529 0.17821 0.2991 0.0
H283 H 0.46736 0.14224 0.33765 0.0
H284 H 0.48892 0.1707 0.50188 0.0
H285 H 0.47863 0.20675 0.46175 0.0
H286 H 0.51395 0.14534 0.48179 0.0
H287 H 0.43419 0.13261 0.48233 0.0
H288 H 0.40096 0.13403 0.42419 0.0
H289 H 0.41757 0.08821 0.30795 0.0
H290 H 0.4508 0.08642 0.36576 0.0
H291 H 0.47079 0.03311 0.69702 0.0
H292 H 0.46364 0.06618 0.62617 0.0
H293 H 0.51893 0.06463 0.51863 0.0
H294 H 0.52628 0.03208 0.58912 0.0
H295 H 0.45643 0.07424 0.49965 0.0
H296 H 0.54546 0.12017 0.47776 0.0
H297 H 0.57899 0.12132 0.53577 0.0
H298 H 0.5427 0.10319 0.70257 0.0
H299 H 0.50902 0.10232 0.64565 0.0
C300 C 0.46318 0.1769 0.34258 0.0
C301 C 0.46549 0.19504 0.37809 0.0
C302 C 0.46979 0.15623 0.36509 0.0
C303 C 0.47836 0.15329 0.42389 0.0
C304 C 0.48218 0.17221 0.45681 0.0
C305 C 0.47608 0.19284 0.43396 0.0
C306 C 0.48203 0.13043 0.45422 0.0
C307 C 0.50141 0.12978 0.48505 0.0
C308 C 0.46572 0.10999 0.45921 0.0
C309 C 0.44494 0.10947 0.42807 0.0
C310 C 0.43062 0.12271 0.44466 0.0
C311 C 0.41186 0.12366 0.41163 0.0
C312 C 0.40728 0.11142 0.36201 0.0
C313 C 0.42124 0.09784 0.34606 0.0
C314 C 0.43995 0.09671 0.3792 0.0
C315 C 0.48131 0.03979 0.65807 0.0
C316 C 0.4992 0.03017 0.64894 0.0
C317 C 0.47713 0.05854 0.6174 0.0
C318 C 0.49083 0.06797 0.56727 0.0
C319 C 0.50824 0.05779 0.55717 0.0
C320 C 0.51242 0.03919 0.59765 0.0
C321 C 0.48809 0.08952 0.52817 0.0
C322 C 0.46899 0.08978 0.49574 0.0
C323 C 0.50452 0.10979 0.52249 0.0
C324 C 0.52472 0.11093 0.55734 0.0
C325 C 0.54466 0.11655 0.52683 0.0
C326 C 0.56369 0.11714 0.55952 0.0
C327 C 0.56298 0.11225 0.6228 0.0
C328 C 0.54324 0.1069 0.65355 0.0
C329 C 0.52417 0.10635 0.62109 0.0
H330 H 0.57772 0.11264 0.64801 0.0
H331 H 0.39279 0.11224 0.33636 0.0
H332 H 0.31339 0.57953 0.61305 0.0
H333 H 0.34928 0.57746 0.65215 0.0
H334 H 0.34473 0.51178 0.58599 0.0
H335 H 0.30895 0.51363 0.54732 0.0
H336 H 0.36377 0.54716 0.73542 0.0
H337 H 0.39278 0.50805 0.53307 0.0
H338 H 0.38784 0.5102 0.42234 0.0
H339 H 0.37153 0.57697 0.4165 0.0
H340 H 0.37667 0.57538 0.52697 0.0
H341 H 0.45285 0.49549 0.82228 0.0
H342 H 0.41846 0.50462 0.78717 0.0
H343 H 0.45171 0.55681 0.64767 0.0
H344 H 0.48587 0.54697 0.68073 0.0
H345 H 0.41964 0.53362 0.59977 0.0
H346 H 0.42941 0.5699 0.77833 0.0
H347 H 0.43681 0.57242 0.88662 0.0
H348 H 0.37947 0.5212 0.93619 0.0
H349 H 0.37196 0.518 0.8282 0.0
C350 C 0.32004 0.56463 0.60694 0.0
C351 C 0.30839 0.54686 0.57648 0.0
C352 C 0.34053 0.56348 0.62937 0.0
C353 C 0.34976 0.54458 0.6215 0.0
C354 C 0.33808 0.52673 0.59164 0.0
C355 C 0.31766 0.52788 0.56922 0.0
C356 C 0.37165 0.54341 0.644 0.0
C357 C 0.37605 0.54427 0.70584 0.0
C358 C 0.38786 0.54031 0.60506 0.0
C359 C 0.38491 0.54147 0.53843 0.0
C360 C 0.38822 0.52323 0.50812 0.0
C361 C 0.38537 0.52434 0.4454 0.0
C362 C 0.37931 0.54367 0.41244 0.0
C363 C 0.37614 0.56196 0.4421 0.0
C364 C 0.37899 0.56095 0.50479 0.0
C365 C 0.45274 0.50895 0.78427 0.0
C366 C 0.4719 0.5204 0.75381 0.0
C367 C 0.43313 0.51427 0.76444 0.0
C368 C 0.43248 0.53156 0.7149 0.0
C369 C 0.45177 0.54333 0.68559 0.0
C370 C 0.47127 0.53771 0.70458 0.0
C371 C 0.41171 0.53675 0.6917 0.0
C372 C 0.40749 0.53663 0.62955 0.0
C373 C 0.39601 0.54133 0.73008 0.0
C374 C 0.4002 0.54359 0.7951 0.0
C375 C 0.41843 0.55908 0.81231 0.0
C376 C 0.42265 0.56063 0.87366 0.0
C377 C 0.40863 0.54696 0.91825 0.0
C378 C 0.39033 0.53176 0.90158 0.0
C379 C 0.38607 0.53008 0.8403 0.0
H380 H 0.41193 0.54817 0.96573 0.0
H381 H 0.37711 0.54449 0.3639 0.0
H382 H 0.0957 0.35222 0.45727 0.0
H383 H 0.08735 0.38527 0.49928 0.0
H384 H 0.02486 0.37327 0.41746 0.0
H385 H 0.03306 0.3397 0.37611 0.0
H386 H 0.05207 0.42583 0.43138 0.0
H387 H 0.01904 0.34828 0.53633 0.0
H388 H 0.02238 0.30843 0.57651 0.0
H389 H 0.0737 0.3352 0.69162 0.0
H390 H 0.07093 0.37524 0.65111 0.0
H391 H 0.99606 0.47831 0.62218 0.0
H392 H 0.00641 0.45208 0.55845 0.0
H393 H 0.05209 0.43432 0.69304 0.0
H394 H 0.04082 0.45988 0.75858 0.0
H395 H 0.03465 0.39743 0.64891 0.0
H396 H 0.06686 0.47355 0.55701 0.0
H397 H 0.06868 0.51436 0.51393 0.0
H398 H 0.02473 0.49268 0.37431 0.0
H399 H 0.02243 0.45172 0.41704 0.0
C400 C 0.08057 0.35731 0.44586 0.0
C401 C 0.065 0.34348 0.41354 0.0
C402 C 0.0758 0.37612 0.47007 0.0
C403 C 0.05544 0.3815 0.46191 0.0
C404 C 0.0407 0.36937 0.42393 0.0
C405 C 0.04542 0.35033 0.40002 0.0
C406 C 0.04849 0.39669 0.50168 0.0
C407 C 0.04788 0.41963 0.47867 0.0
C408 C 0.04393 0.38873 0.56386 0.0
C409 C 0.04489 0.36471 0.59037 0.0
C410 C 0.0311 0.34565 0.56999 0.0
C411 C 0.03288 0.32304 0.59281 0.0
C412 C 0.04827 0.31928 0.6365 0.0
C413 C 0.06181 0.33813 0.65772 0.0
C414 C 0.06013 0.36079 0.63489 0.0
C415 C 0.00823 0.46869 0.63835 0.0
C416 C 0.01774 0.47118 0.69512 0.0
C417 C 0.01428 0.45383 0.60161 0.0
C418 C 0.0305 0.44164 0.6199 0.0
C419 C 0.03964 0.44363 0.67757 0.0
C420 C 0.03322 0.4582 0.71507 0.0
C421 C 0.03774 0.42684 0.57875 0.0
C422 C 0.03861 0.40384 0.6016 0.0
C423 C 0.04292 0.43496 0.51658 0.0
C424 C 0.04432 0.45957 0.49058 0.0
C425 C 0.05747 0.47749 0.51737 0.0
C426 C 0.0586 0.50065 0.49297 0.0
C427 C 0.04679 0.50611 0.44151 0.0
C428 C 0.03386 0.48842 0.41422 0.0
C429 C 0.03265 0.46523 0.43847 0.0
H430 H 0.04768 0.52406 0.4227 0.0
H431 H 0.04968 0.30177 0.65393 0.0
H432 H 0.79653 0.98194 0.11033 0.0
H433 H 0.83368 0.98293 0.08207 0.0
H434 H 0.83592 0.04785 0.96699 0.0
H435 H 0.7991 0.04759 0.99686 0.0
H436 H 0.84957 0.01279 0.9098 0.0
H437 H 0.86235 0.04982 0.09039 0.0
H438 H 0.85763 0.05303 0.19846 0.0
H439 H 0.8808 0.99035 0.24983 0.0
H440 H 0.88537 0.98659 0.14197 0.0
H441 H 0.96104 0.03728 0.83547 0.0
H442 H 0.92465 0.03889 0.86607 0.0
H443 H 0.92594 0.98354 0.01258 0.0
H444 H 0.96258 0.98264 0.98367 0.0
H445 H 0.91016 0.01474 0.05353 0.0
H446 H 0.89667 0.9759 0.87766 0.0
H447 H 0.90062 0.97037 0.77089 0.0
H448 H 0.8777 0.03267 0.71168 0.0
H449 H 0.87392 0.03876 0.81814 0.0
C450 C 0.80503 0.99673 0.08015 0.0
C451 C 0.79471 0.01464 0.05571 0.0
C452 C 0.82623 0.99716 0.06369 0.0
C453 C 0.83746 0.01541 0.02225 0.0
C454 C 0.82743 0.03352 0.99866 0.0
C455 C 0.80635 0.03327 0.01566 0.0
C456 C 0.85947 0.01524 0.00209 0.0
C457 C 0.86294 0.01354 0.94092 0.0
C458 C 0.87665 0.01552 0.04322 0.0
C459 C 0.874 0.01781 0.10809 0.0
C460 C 0.86626 0.03661 0.12471 0.0
C461 C 0.86365 0.03855 0.18593 0.0
C462 C 0.86886 0.02187 0.23098 0.0
C463 C 0.87674 0.00325 0.21489 0.0
C464 C 0.87937 1.00122 0.15372 0.0
C465 C 0.95345 0.02539 0.87394 0.0
C466 C 0.96456 0.00985 0.90732 0.0
C467 C 0.93263 0.02624 0.89129 0.0
C468 C 0.9224 0.01116 0.94137 0.0
C469 C 0.93347 0.99541 0.974 0.0
C470 C 0.95437 0.99483 0.95731 0.0
C471 C 0.90041 0.01213 0.96095 0.0
C472 C 0.89689 0.01399 0.02212 0.0
C473 C 0.88309 0.0116 0.91995 0.0
C474 C 0.88522 0.00791 0.85588 0.0
C475 C 0.89263 0.98852 0.84186 0.0
C476 C 0.89481 0.98526 0.7814 0.0
C477 C 0.88947 1.00119 0.73453 0.0
C478 C 0.88186 0.02037 0.74803 0.0
C479 C 0.87968 0.02372 0.80843 0.0
H480 H 0.89117 0.99864 0.68775 0.0
H481 H 0.86683 0.02341 0.27835 0.0
H482 H 0.54039 0.80022 0.28771 0.0
H483 H 0.52683 0.83206 0.22863 0.0
H484 H 0.58827 0.87782 0.24298 0.0
H485 H 0.6019 0.84589 0.30134 0.0
H486 H 0.55176 0.90003 0.24356 0.0
H487 H 0.5829 0.85124 0.12878 0.0
H488 H 0.58659 0.81367 0.09984 0.0
H489 H 0.52067 0.80043 0.04503 0.0
H490 H 0.51651 0.83786 0.07432 0.0
H491 H 0.54508 0.9541 0.90469 0.0
H492 H 0.55742 0.92646 0.98273 0.0
H493 H 0.50319 0.92646 0.09637 0.0
H494 H 0.49082 0.95386 0.01893 0.0
H495 H 0.53781 0.88248 0.03281 0.0
H496 H 0.518 0.92227 0.24136 0.0
H497 H 0.51667 0.96055 0.27041 0.0
H498 H 0.56442 0.99348 0.13459 0.0
H499 H 0.56609 0.9554 0.10499 0.0
C500 C 0.5506 0.81738 0.28075 0.0
C501 C 0.57204 0.82081 0.29963 0.0
C502 C 0.54295 0.83547 0.24652 0.0
C503 C 0.55665 0.85719 0.23089 0.0
C504 C 0.57744 0.86122 0.25473 0.0
C505 C 0.58517 0.84305 0.28836 0.0
C506 C 0.55043 0.87447 0.18311 0.0
C507 C 0.54862 0.8962 0.19756 0.0
C508 C 0.54678 0.86959 0.12279 0.0
C509 C 0.54934 0.84724 0.10432 0.0
C510 C 0.56915 0.84025 0.11099 0.0
C511 C 0.57133 0.81899 0.09449 0.0
C512 C 0.55385 0.80463 0.0709 0.0
C513 C 0.53418 0.81155 0.06346 0.0
C514 C 0.53191 0.8328 0.07992 0.0
C515 C 0.53581 0.94813 0.94628 0.0
C516 C 0.51704 0.95617 0.95583 0.0
C517 C 0.54285 0.93237 0.99079 0.0
C518 C 0.53137 0.92462 0.04572 0.0
C519 C 0.5125 0.93247 0.05484 0.0
C520 C 0.50541 0.94806 0.01037 0.0
C521 C 0.53881 0.90803 0.0933 0.0
C522 C 0.54088 0.88636 0.0788 0.0
C523 C 0.54296 0.91308 0.15334 0.0
C524 C 0.54203 0.93603 0.17072 0.0
C525 C 0.52821 0.93769 0.21776 0.0
C526 C 0.52738 0.95935 0.23426 0.0
C527 C 0.54041 0.97944 0.20427 0.0
C528 C 0.55429 0.97792 0.15767 0.0
C529 C 0.55514 0.95631 0.1409 0.0
H530 H 0.53979 0.99618 0.21721 0.0
H531 H 0.55557 0.78818 0.05822 0.0
H532 H 0.70845 0.44108 0.1903 0.0
H533 H 0.67473 0.45186 0.1558 0.0
H534 H 0.70235 0.47669 0.97727 0.0
H535 H 0.7363 0.46654 0.0119 0.0
H536 H 0.68106 0.50698 0.01507 0.0
H537 H 0.66683 0.42551 0.00351 0.0
H538 H 0.66466 0.38411 0.04077 0.0
H539 H 0.61909 0.38715 0.17803 0.0
H540 H 0.62124 0.42869 0.14216 0.0
H541 H 0.58278 0.51858 0.86878 0.0
H542 H 0.61662 0.50683 0.89785 0.0
H543 H 0.59101 0.48015 0.07783 0.0
H544 H 0.55703 0.49147 0.04859 0.0
H545 H 0.6115 0.45044 0.03586 0.0
H546 H 0.62672 0.53229 0.04922 0.0
H547 H 0.62883 0.57365 0.0114 0.0
H548 H 0.67251 0.56973 0.87006 0.0
H549 H 0.67044 0.52825 0.90657 0.0
C550 C 0.70737 0.44893 0.14378 0.0
C551 C 0.72501 0.45288 0.10378 0.0
C552 C 0.68804 0.4549 0.12398 0.0
C553 C 0.68596 0.46484 0.06377 0.0
C554 C 0.70358 0.46894 0.02384 0.0
C555 C 0.7229 0.46295 0.04357 0.0
C556 C 0.66552 0.47139 0.04279 0.0
C557 C 0.66589 0.49455 0.01879 0.0
C558 C 0.64568 0.45526 0.04878 0.0
C559 C 0.64437 0.43028 0.07051 0.0
C560 C 0.65649 0.41741 0.04198 0.0
C561 C 0.65524 0.3939 0.06279 0.0
C562 C 0.64179 0.38302 0.11184 0.0
C563 C 0.62953 0.39561 0.1401 0.0
C564 C 0.63075 0.41913 0.11952 0.0
C565 C 0.58443 0.51027 0.91458 0.0
C566 C 0.56738 0.50606 0.95662 0.0
C567 C 0.60376 0.50362 0.93118 0.0
C568 C 0.60644 0.49286 0.99025 0.0
C569 C 0.58932 0.48846 0.03206 0.0
C570 C 0.56996 0.49503 0.01541 0.0
C571 C 0.62702 0.48606 0.00859 0.0
C572 C 0.62668 0.46286 0.03204 0.0
C573 C 0.6469 0.50215 0.00207 0.0
C574 C 0.64826 0.52711 0.98027 0.0
C575 C 0.63665 0.54021 0.0098 0.0
C576 C 0.63786 0.56368 0.98865 0.0
C577 C 0.65075 0.57429 0.93826 0.0
C578 C 0.66251 0.56148 0.90903 0.0
C579 C 0.66134 0.53799 0.92997 0.0
H580 H 0.65166 0.59247 0.92194 0.0
H581 H 0.64084 0.36482 0.12787 0.0
H582 H 0.94782 0.65408 0.28593 0.0
H583 H 0.95017 0.61846 0.24341 0.0
H584 H 0.00449 0.6563 0.13333 0.0
H585 H 0.00259 0.69141 0.17632 0.0
H586 H 0.96734 0.63283 0.06878 0.0
H587 H 0.01431 0.62023 0.24076 0.0
H588 H 0.02212 0.61397 0.35001 0.0
H589 H 0.97124 0.55348 0.37396 0.0
H590 H 0.96292 0.55959 0.26491 0.0
H591 H 0.01466 0.56011 0.91802 0.0
H592 H 0.00585 0.58809 0.97906 0.0
H593 H 0.96756 0.5323 0.10002 0.0
H594 H 0.97718 0.50412 0.04023 0.0
H595 H 0.98973 0.56136 0.16476 0.0
H596 H 0.94463 0.56958 0.9956 0.0
H597 H 0.93495 0.57418 0.88748 0.0
H598 H 0.97747 0.64096 0.85939 0.0
H599 H 0.98773 0.63659 0.9671 0.0
C600 C 0.96062 0.65453 0.25408 0.0
C601 C 0.97487 0.67553 0.23388 0.0
C602 C 0.96186 0.63428 0.22953 0.0
C603 C 0.97731 0.63491 0.18457 0.0
C604 C 0.99231 0.65553 0.16741 0.0
C605 C 0.99122 0.67554 0.19215 0.0
C606 C 0.97723 0.61487 0.15155 0.0
C607 C 0.97229 0.6172 0.08958 0.0
C608 C 0.9828 0.59414 0.17942 0.0
C609 C 0.98781 0.59055 0.24488 0.0
C610 C 0.00463 0.60575 0.26944 0.0
C611 C 0.00919 0.60219 0.3313 0.0
C612 C 0.99713 0.58339 0.36895 0.0
C613 C 0.98053 0.56806 0.34478 0.0
C614 C 0.97589 0.57156 0.28296 0.0
C615 C 0.00422 0.55383 0.95735 0.0
C616 C 0.99656 0.52998 0.97436 0.0
C617 C -0.0009 0.56984 0.99214 0.0
C618 C 0.98573 0.56239 0.04381 0.0
C619 C 0.97787 0.53852 0.06044 0.0
C620 C 0.98328 0.52245 0.02609 0.0
C621 C 0.98057 0.5796 0.08104 0.0
C622 C 0.98441 0.57675 0.14383 0.0
C623 C 0.97351 0.5997 0.05415 0.0
C624 C 0.96705 0.60268 0.98948 0.0
C625 C 0.952 0.5852 0.96633 0.0
C626 C 0.94642 0.58776 0.90509 0.0
C627 C 0.95562 0.60783 0.86658 0.0
C628 C 0.97037 0.62542 0.88928 0.0
C629 C 0.97606 0.62292 0.95046 0.0
H630 H 0.95129 0.60977 0.81916 0.0
H631 H 0.0007 0.58065 0.41682 0.0
H632 H 0.09995 0.25858 0.51431 0.0
H633 H 0.09245 0.22299 0.58684 0.0
H634 H 0.02831 0.23318 0.61444 0.0
H635 H 0.03614 0.26931 0.54382 0.0
H636 H 0.04321 0.2081 0.71559 0.0
H637 H 0.03867 0.20794 0.49739 0.0
H638 H 0.05362 0.21785 0.39336 0.0
H639 H 0.10227 0.1786 0.44219 0.0
H640 H 0.08801 0.16895 0.54706 0.0
H641 H 0.99168 0.08341 0.72901 0.0
H642 H 4e-05 0.12548 0.69371 0.0
H643 H 0.0676 0.12629 0.71602 0.0
H644 H 0.0595 0.08487 0.7523 0.0
H645 H 0.04919 0.14593 0.59273 0.0
H646 H 0.05692 0.14867 0.80876 0.0
H647 H 0.04515 0.14056 0.91568 0.0
H648 H 0.9924 0.17444 0.8724 0.0
H649 H 0.00372 0.1825 0.76462 0.0
C650 C 0.08466 0.25375 0.53827 0.0
C651 C 0.0685 0.26632 0.52342 0.0
C652 C 0.08034 0.23344 0.57937 0.0
C653 C 0.05961 0.22517 0.6043 0.0
C654 C 0.04434 0.23922 0.59522 0.0
C655 C 0.04881 0.25981 0.55497 0.0
C656 C 0.05273 0.20047 0.62938 0.0
C657 C 0.04431 0.1945 0.68861 0.0
C658 C 0.05428 0.18275 0.59401 0.0
C659 C 0.0624 0.18792 0.53033 0.0
C660 C 0.05266 0.20157 0.48614 0.0
C661 C 0.06108 0.20723 0.42711 0.0
C662 C 0.07894 0.19898 0.41127 0.0
C663 C 0.08845 0.18503 0.45452 0.0
C664 C 0.08025 0.17949 0.51382 0.0
C665 C 0.00826 0.09265 0.72619 0.0
C666 C 0.02494 0.08098 0.74324 0.0
C667 C 0.01299 0.11658 0.70669 0.0
C668 C 0.0344 0.12883 0.70326 0.0
C669 C 0.05099 0.11709 0.7192 0.0
C670 C 0.04631 0.09344 0.73967 0.0
C671 C 0.03992 0.15361 0.67899 0.0
C672 C 0.04795 0.15955 0.61953 0.0
C673 C 0.03815 0.17118 0.71423 0.0
C674 C 0.0309 0.16575 0.77846 0.0
C675 C 0.04258 0.15402 0.82179 0.0
C676 C 0.03605 0.14953 0.88266 0.0
C677 C 0.01795 0.15682 0.90088 0.0
C678 C 0.00636 0.16869 0.85819 0.0
C679 C 0.01282 0.17322 0.79719 0.0
H680 H 0.01297 0.15341 0.94809 0.0
H681 H 0.08533 0.2033 0.36541 0.0
H682 H 0.27287 0.91509 0.68539 0.0
H683 H 0.29527 0.9008 0.76805 0.0
H684 H 0.34437 0.96264 0.72365 0.0
H685 H 0.32247 0.9766 0.64227 0.0
H686 H 0.33644 0.8917 0.75803 0.0
H687 H 0.36468 0.98271 0.84521 0.0
H688 H 0.34762 0.01297 0.87597 0.0
H689 H 0.28762 0.96414 0.90486 0.0
H690 H 0.30437 0.93336 0.87558 0.0
H691 H 0.44249 0.93587 0.74214 0.0
H692 H 0.40451 0.918 0.75025 0.0
H693 H 0.40343 0.93229 0.93557 0.0
H694 H 0.44116 0.95218 0.92473 0.0
H695 H 0.37476 0.9475 0.88935 0.0
H696 H 0.3852 0.8736 0.88996 0.0
H697 H 0.40052 0.84062 0.86926 0.0
H698 H 0.38056 0.85001 0.68383 0.0
H699 H 0.36544 0.88329 0.70291 0.0
C700 C 0.28842 0.92553 0.69395 0.0
C701 C 0.29616 0.94674 0.65729 0.0
C702 C 0.30111 0.91743 0.74098 0.0
C703 C 0.32129 0.93085 0.7525 0.0
C704 C 0.32868 0.95219 0.71637 0.0
C705 C 0.31628 0.96004 0.66939 0.0
C706 C 0.33609 0.92251 0.79812 0.0
C707 C 0.34474 0.90351 0.78784 0.0
C708 C 0.34593 0.93701 0.84031 0.0
C709 C 0.33585 0.95561 0.85823 0.0
C710 C 0.3479 0.97828 0.85871 0.0
C711 C 0.33826 0.99558 0.87571 0.0
C712 C 0.31654 0.9905 0.89217 0.0
C713 C 0.30442 0.96808 0.89185 0.0
C714 C 0.31399 0.95069 0.87503 0.0
C715 C 0.43421 0.93455 0.78503 0.0
C716 C 0.44444 0.94552 0.83253 0.0
C717 C 0.41247 0.92401 0.7902 0.0
C718 C 0.4008 0.92352 0.84384 0.0
C719 C 0.41184 0.93255 0.89349 0.0
C720 C 0.43338 0.94388 0.88743 0.0
C721 C 0.37686 0.91851 0.84255 0.0
C722 C 0.36634 0.9349 0.86182 0.0
C723 C 0.36504 0.90109 0.81046 0.0
C724 C 0.37405 0.88098 0.79809 0.0
C725 C 0.38413 0.86873 0.84466 0.0
C726 C 0.3928 0.84995 0.83319 0.0
C727 C 0.39148 0.8432 0.7753 0.0
C728 C 0.38149 0.85521 0.72873 0.0
C729 C 0.3728 0.874 0.73993 0.0
H730 H 0.39821 0.82867 0.76651 0.0
H731 H 0.30912 0.00391 0.90538 0.0
H732 H 0.40412 0.26583 0.41422 0.0
H733 H 0.40187 0.29021 0.49342 0.0
H734 H 0.45436 0.26552 0.58717 0.0
H735 H 0.4564 0.24111 0.50984 0.0
H736 H 0.42991 0.27819 0.66641 0.0
H737 H 0.46202 0.30895 0.46645 0.0
H738 H 0.4595 0.31635 0.35506 0.0
H739 H 0.41317 0.35837 0.37175 0.0
H740 H 0.41458 0.35022 0.48346 0.0
H741 H 0.51269 0.36819 0.73918 0.0
H742 H 0.48651 0.3352 0.71078 0.0
H743 H 0.444 0.38088 0.64555 0.0
H744 H 0.47052 0.41397 0.67212 0.0
H745 H 0.45178 0.35847 0.5605 0.0
H746 H 0.42723 0.33296 0.76735 0.0
H747 H 0.4304 0.3224 0.87801 0.0
H748 H 0.46709 0.27203 0.84765 0.0
H749 H 0.4637 0.28176 0.73702 0.0
C750 C 0.41463 0.26505 0.45293 0.0
C751 C 0.43067 0.25188 0.45525 0.0
C752 C 0.41328 0.27888 0.49823 0.0
C753 C 0.42833 0.28011 0.54531 0.0
C754 C 0.44261 0.26492 0.55127 0.0
C755 C 0.44378 0.25094 0.50668 0.0
C756 C 0.43264 0.30005 0.58023 0.0
C757 C 0.43444 0.29583 0.64356 0.0
C758 C 0.43838 0.32309 0.55033 0.0
C759 C 0.43818 0.32872 0.48326 0.0
C760 C 0.45123 0.31969 0.44637 0.0
C761 C 0.44998 0.32398 0.38319 0.0
C762 C 0.43629 0.33792 0.35631 0.0
C763 C 0.42375 0.34754 0.39263 0.0
C764 C 0.42465 0.34297 0.45589 0.0
C765 C 0.49754 0.37104 0.72003 0.0
C766 C 0.49374 0.39358 0.70663 0.0
C767 C 0.48245 0.35216 0.70441 0.0
C768 C 0.46315 0.3555 0.67632 0.0
C769 C 0.45875 0.37787 0.66705 0.0
C770 C 0.47396 0.39675 0.68179 0.0
C771 C 0.44966 0.33665 0.64699 0.0
C772 C 0.44634 0.34109 0.58426 0.0
C773 C 0.44299 0.31383 0.67739 0.0
C774 C 0.44528 0.30817 0.74389 0.0
C775 C 0.43606 0.31971 0.78428 0.0
C776 C 0.43785 0.31385 0.84696 0.0
C777 C 0.44911 0.29678 0.86976 0.0
C778 C 0.4584 0.2853 0.82995 0.0
C779 C 0.4564 0.29084 0.76728 0.0
H780 H 0.45055 0.29238 0.91829 0.0
H781 H 0.43539 0.34126 0.30737 0.0
H782 H 0.21093 0.52494 0.59813 0.0
H783 H 0.182 0.53099 0.65908 0.0
H784 H 0.2225 0.59289 0.71066 0.0
H785 H 0.25165 0.58743 0.64607 0.0
H786 H 0.17749 0.53096 0.77249 0.0
H787 H 0.18725 0.62958 0.73783 0.0
H788 H 0.20387 0.6638 0.66595 0.0
H789 H 0.19653 0.62211 0.52083 0.0
H790 H 0.17966 0.58776 0.59172 0.0
H791 H 0.08437 0.53934 0.91025 0.0
H792 H 0.12269 0.55356 0.88862 0.0
H793 H 0.10847 0.57465 0.70152 0.0
H794 H 0.07006 0.56134 0.7238 0.0
H795 H 0.14539 0.6006 0.72977 0.0
H796 H 0.1129 0.51943 0.75229 0.0
H797 H 0.0938 0.48133 0.80255 0.0
H798 H 0.14238 0.48229 0.93899 0.0
H799 H 0.16137 0.52077 0.8908 0.0
C800 C 0.21371 0.54001 0.62185 0.0
C801 C 0.23343 0.55598 0.61628 0.0
C802 C 0.1972 0.54332 0.65739 0.0
C803 C 0.19998 0.56246 0.68932 0.0
C804 C 0.21992 0.57813 0.68586 0.0
C805 C 0.23657 0.57491 0.64944 0.0
C806 C 0.18147 0.56557 0.72464 0.0
C807 C 0.17071 0.54639 0.7641 0.0
C808 C 0.17249 0.5856 0.71328 0.0
C809 C 0.18252 0.60609 0.67022 0.0
C810 C 0.1892 0.62776 0.69057 0.0
C811 C 0.19864 0.64716 0.65001 0.0
C812 C 0.20134 0.64511 0.58892 0.0
C813 C 0.19452 0.62366 0.5682 0.0
C814 C 0.18504 0.60422 0.60856 0.0
C815 C 0.08942 0.54779 0.86506 0.0
C816 C 0.07441 0.54888 0.81831 0.0
C817 C 0.1113 0.55595 0.85277 0.0
C818 C 0.11848 0.56454 0.79308 0.0
C819 C 0.10332 0.568 0.74787 0.0
C820 C 0.08137 0.56032 0.76054 0.0
C821 C 0.14105 0.56555 0.77529 0.0
C822 C 0.15258 0.58551 0.73984 0.0
C823 C 0.15034 0.54574 0.78762 0.0
C824 C 0.13837 0.52314 0.81851 0.0
C825 C 0.11931 0.51169 0.79363 0.0
C826 C 0.10851 0.49002 0.82172 0.0
C827 C 0.11686 0.47942 0.874 0.0
C828 C 0.13587 0.49058 0.89873 0.0
C829 C 0.14661 0.51237 0.87121 0.0
H830 H 0.10867 0.46248 0.89508 0.0
H831 H 0.20866 0.66015 0.5576 0.0
H832 H 0.9972 0.74777 0.11471 0.0
H833 H 0.00556 0.78373 0.0438 0.0
H834 H 0.95428 0.80818 0.12128 0.0
H835 H 0.94495 0.77171 0.19 0.0
H836 H 0.97625 0.81088 0.95986 0.0
H837 H 0.98526 0.86264 0.1607 0.0
H838 H 0.99302 0.85787 0.27023 0.0
H839 H 0.02999 0.80701 0.24557 0.0
H840 H 0.02297 0.81196 0.13574 0.0
H841 H 0.97844 0.92982 0.8713 0.0
H842 H 0.9718 0.88962 0.91808 0.0
H843 H 0.03801 0.89801 0.97326 0.0
H844 H 0.0446 0.93888 0.9284 0.0
H845 H 0.01222 0.87702 0.06386 0.0
H846 H 0.01671 0.8652 0.85151 0.0
H847 H 0.00657 0.87065 0.74361 0.0
H848 H 0.94048 0.84246 0.79245 0.0
H849 H 0.9502 0.83674 0.90041 0.0
C850 C 0.98717 0.7604 0.11515 0.0
C851 C 0.97064 0.75713 0.15863 0.0
C852 C 0.99206 0.78095 0.07487 0.0
C853 C 0.98073 0.79856 0.07836 0.0
C854 C 0.96329 0.79475 0.11861 0.0
C855 C 0.95811 0.77404 0.158 0.0
C856 C 0.98838 0.82174 0.04437 0.0
C857 C 0.98426 0.82537 0.98224 0.0
C858 C 0.99879 0.84044 0.07411 0.0
C859 C 0.00334 0.83746 0.14007 0.0
C860 C 0.99514 0.85053 0.17861 0.0
C861 C -0.00052 0.84786 0.24071 0.0
C862 C 0.01199 0.83215 0.26483 0.0
C863 C 0.02025 0.81913 0.22686 0.0
C864 C 0.01609 0.82186 0.16466 0.0
C865 C 0.99168 0.92311 0.89294 0.0
C866 C 0.01206 0.9375 0.8963 0.0
C867 C 0.98788 0.90002 0.91923 0.0
C868 C 0.00451 0.89065 0.94805 0.0
C869 C 0.02498 0.90489 0.95088 0.0
C870 C 0.02873 0.92819 0.92535 0.0
C871 C 6e-05 0.86644 0.97879 0.0
C872 C 0.00461 0.86256 0.04082 0.0
C873 C 0.98984 0.84757 0.949 0.0
C874 C 0.98418 0.85061 0.88395 0.0
C875 C 2e-05 0.86023 0.83918 0.0
C876 C 0.99434 0.8634 0.77808 0.0
C877 C 0.97288 0.85706 0.76144 0.0
C878 C 0.95707 0.84746 0.8056 0.0
C879 C 0.96267 0.84411 0.86662 0.0
H880 H 0.96847 0.85914 0.71433 0.0
H881 H 0.01526 0.83004 0.31295 0.0
H882 H 0.69748 0.99285 1.00055 0.0
H883 H 0.67245 0.00493 0.92531 0.0
H884 H 0.71733 0.06954 0.87321 0.0
H885 H 0.74241 0.05768 0.95056 0.0
H886 H 0.67842 0.07748 0.88638 0.0
H887 H 0.70684 0.03059 0.77261 0.0
H888 H 0.72101 0.99734 0.74814 0.0
H889 H 0.65935 0.95251 0.78753 0.0
H890 H 0.64486 0.98537 0.81327 0.0
H891 H 0.57641 0.02858 0.69133 0.0
H892 H 0.61519 0.0431 0.6959 0.0
H893 H 0.60748 0.05835 0.87781 0.0
H894 H 0.56874 0.04569 0.87069 0.0
H895 H 0.63766 0.02186 0.75826 0.0
H896 H 0.64873 0.08866 0.93642 0.0
H897 H 0.6367 0.12455 0.94891 0.0
H898 H 0.62338 0.13539 0.75852 0.0
H899 H 0.63568 0.09979 0.74452 0.0
C900 C 0.70207 0.00962 0.97306 0.0
C901 C 0.72181 0.0244 0.98174 0.0
C902 C 0.68787 0.01641 0.92947 0.0
C903 C 0.69313 0.03802 0.89295 0.0
C904 C 0.71301 0.05273 0.90063 0.0
C905 C 0.72733 0.0459 0.94451 0.0
C906 C 0.67691 0.0454 0.85033 0.0
C907 C 0.66959 0.06558 0.85754 0.0
C908 C 0.66619 0.03055 0.81 0.0
C909 C 0.67476 0.01053 0.79491 0.0
C910 C 0.69632 0.01362 0.77644 0.0
C911 C 0.70441 0.99483 0.7623 0.0
C912 C 0.69109 0.97283 0.76626 0.0
C913 C 0.66965 0.96957 0.78439 0.0
C914 C 0.66147 0.9883 0.79864 0.0
C915 C 0.58305 0.03616 0.73092 0.0
C916 C 0.56982 0.03613 0.78069 0.0
C917 C 0.6052 0.04433 0.73376 0.0
C918 C 0.61451 0.05173 0.78736 0.0
C919 C 0.60092 0.05334 0.83525 0.0
C920 C 0.5787 0.04593 0.83149 0.0
C921 C 0.63785 0.05297 0.79849 0.0
C922 C 0.64666 0.03437 0.78521 0.0
C923 C 0.65027 0.06977 0.83125 0.0
C924 C 0.64314 0.09146 0.83943 0.0
C925 C 0.64345 0.09879 0.89703 0.0
C926 C 0.63652 0.11907 0.90442 0.0
C927 C 0.62927 0.13223 0.85456 0.0
C928 C 0.62896 0.12516 0.79715 0.0
C929 C 0.63589 0.10491 0.78948 0.0
H930 H 0.62389 0.14792 0.8604 0.0
H931 H 0.69739 0.9583 0.75526 0.0
H932 H 0.59289 0.72723 0.26001 0.0
H933 H 0.59066 0.71041 0.16761 0.0
H934 H 0.6126 0.77794 0.06506 0.0
H935 H 0.61657 0.79528 0.15936 0.0
H936 H 0.57274 0.7566 0.03166 0.0
H937 H 0.64002 0.73733 0.04433 0.0
H938 H 0.67172 0.72467 0.09137 0.0
H939 H 0.63364 0.65677 0.14748 0.0
H940 H 0.60162 0.66905 0.10173 0.0
H941 H 0.54346 0.63881 0.88702 0.0
H942 H 0.56888 0.6747 0.89934 0.0
H943 H 0.52569 0.68968 0.02878 0.0
H944 H 0.49993 0.6542 0.01474 0.0
H945 H 0.58862 0.68088 1.00028 0.0
H946 H 0.53343 0.74572 0.04062 0.0
H947 H 0.50254 0.75953 0.99204 0.0
H948 H 0.51783 0.73825 0.82409 0.0
H949 H 0.54913 0.72474 0.87121 0.0
C950 C 0.59851 0.73869 0.2189 0.0
C951 C 0.60463 0.7629 0.21799 0.0
C952 C 0.59707 0.72887 0.16541 0.0
C953 C 0.60141 0.74289 0.10934 0.0
C954 C 0.60916 0.76681 0.10799 0.0
C955 C 0.61116 0.77669 0.16204 0.0
C956 C 0.5937 0.73265 0.05395 0.0
C957 C 0.57642 0.74026 0.0236 0.0
C958 C 0.59915 0.71187 0.04175 0.0
C959 C 0.61838 0.70414 0.06923 0.0
C960 C 0.63836 0.71971 0.06688 0.0
C961 C 0.6564 0.7126 0.09335 0.0
C962 C 0.6547 0.68992 0.12231 0.0
C963 C 0.63495 0.67431 0.12485 0.0
C964 C 0.61685 0.68133 0.09847 0.0
C965 C 0.53898 0.6503 0.91592 0.0
C966 C 0.51964 0.64383 0.94948 0.0
C967 C 0.55362 0.6707 0.92338 0.0
C968 C 0.54917 0.68502 0.96457 0.0
C969 C 0.52933 0.67919 0.99576 0.0
C970 C 0.51469 0.65879 0.98826 0.0
C971 C 0.56631 0.70371 0.98298 0.0
C972 C 0.58534 0.69763 0.00614 0.0
C973 C 0.56252 0.72598 0.98825 0.0
C974 C 0.54368 0.73415 0.9596 0.0
C975 C 0.53036 0.74415 0.99318 0.0
C976 C 0.51273 0.7519 0.96591 0.0
C977 C 0.50821 0.74974 0.90504 0.0
C978 C 0.52133 0.73986 0.87129 0.0
C979 C 0.53901 0.73213 0.89829 0.0
H980 H 0.49454 0.75573 0.88403 0.0
H981 H 0.66869 0.68446 0.14282 0.0
H982 H 0.79556 0.39323 0.12783 0.0
H983 H 0.82467 0.38539 0.06838 0.0
H984 H 0.81988 0.44419 0.93569 0.0
H985 H 0.7902 0.45131 0.9935 0.0
H986 H 0.83394 0.41337 0.88151 0.0
H987 H 0.85106 0.44928 0.0637 0.0
H988 H 0.84868 0.45074 0.1736 0.0
H989 H 0.87541 0.38976 0.21111 0.0
H990 H 0.87736 0.38754 0.10135 0.0
H991 H 0.93536 0.48001 0.80658 0.0
H992 H 0.89928 0.46007 0.83706 0.0
H993 H 0.92415 0.40484 0.94136 0.0
H994 H 0.96088 0.42545 0.91261 0.0
H995 H 0.8992 0.42187 0.00866 0.0
H996 H 0.88896 0.39393 0.81485 0.0
H997 H 0.89292 0.39873 0.70339 0.0
H998 H 0.85628 0.45222 0.68628 0.0
H999 H 0.8517 0.44744 0.79731 0.0
C1000 C 0.8003 0.40393 0.08488 0.0
C1001 C 0.7909 0.42301 0.06539 0.0
C1002 C 0.81692 0.39949 0.05102 0.0
C1003 C 0.82485 0.41458 0.99843 0.0
C1004 C 0.81411 0.43234 0.97617 0.0
C1005 C 0.79718 0.43646 0.0093 0.0
C1006 C 0.84613 0.4145 0.97225 0.0
C1007 C 0.8482 0.41498 0.90931 0.0
C1008 C 0.86479 0.41644 0.00854 0.0
C1009 C 0.86408 0.41806 0.07443 0.0
C1010 C 0.85632 0.43611 0.09542 0.0
C1011 C 0.85504 0.43708 0.15765 0.0
C1012 C 0.86189 0.42036 0.1993 0.0
C1013 C 0.87006 0.40266 0.17878 0.0
C1014 C 0.8712 0.4015 0.11658 0.0
C1015 C 0.93325 0.46339 0.83507 0.0
C1016 C 0.95103 0.45447 0.85796 0.0
C1017 C 0.91247 0.45179 0.85184 0.0
C1018 C 0.90888 0.43075 0.89093 0.0
C1019 C 0.92654 0.421 0.91083 0.0
C1020 C 0.9475 0.43274 0.89426 0.0
C1021 C 0.88712 0.4212 0.91769 0.0
C1022 C 0.88493 0.41914 0.98096 0.0
C1023 C 0.86848 0.41843 0.8815 0.0
C1024 C 0.86994 0.42025 0.81443 0.0
C1025 C 0.88158 0.40657 0.78722 0.0
C1026 C 0.88388 0.40926 0.72409 0.0
C1027 C 0.87471 0.42567 0.6877 0.0
C1028 C 0.8631 0.43929 0.71438 0.0
C1029 C 0.86052 0.43649 0.7774 0.0
H1030 H 0.87668 0.4279 0.63888 0.0
H1031 H 0.8609 0.42115 0.24747 0.0
H1032 H 0.04112 0.28808 0.25984 0.0
H1033 H 0.03468 0.26118 0.18335 0.0
H1034 H 0.08746 0.23078 0.25355 0.0
H1035 H 0.09479 0.25823 0.32699 0.0
H1036 H 0.07064 0.24565 0.0966 0.0
H1037 H 0.04936 0.16895 0.29405 0.0
H1038 H 0.02976 0.1586 0.39179 0.0
H1039 H 0.99557 0.21343 0.34364 0.0
H1040 H 0.01402 0.22324 0.2443 0.0
H1041 H 0.08927 0.13936 0.02358 0.0
H1042 H 0.08716 0.17532 0.06258 0.0
H1043 H 0.01894 0.15091 0.09205 0.0
H1044 H 0.02104 0.11483 0.05376 0.0
H1045 H 0.03523 0.16629 0.1875 0.0
H1046 H 0.03937 0.19677 0.98112 0.0
H1047 H 0.05275 0.20429 0.87543 0.0
H1048 H 0.11341 0.24127 0.93236 0.0
H1049 H 0.10052 0.23375 0.03859 0.0
C1050 C 0.05184 0.27626 0.2574 0.0
C1051 C 0.06827 0.27511 0.30016 0.0
C1052 C 0.04799 0.26073 0.21417 0.0
C1053 C 0.06026 0.24362 0.21402 0.0
C1054 C 0.07759 0.2436 0.25359 0.0
C1055 C 0.08174 0.25934 0.29555 0.0
C1056 C 0.05463 0.2247 0.17575 0.0
C1057 C 0.06274 0.22831 0.11612 0.0
C1058 C 0.04386 0.20218 0.20089 0.0
C1059 C 0.03355 0.19727 0.26208 0.0
C1060 C 0.03766 0.17882 0.30422 0.0
C1061 C 0.02653 0.17283 0.35965 0.0
C1062 C 0.01148 0.1854 0.37402 0.0
C1063 C 0.00737 0.20383 0.33269 0.0
C1064 C 0.01816 0.20961 0.27672 0.0
C1065 C 0.07378 0.14178 0.03767 0.0
C1066 C 0.05537 0.1241 0.0362 0.0
C1067 C 0.07255 0.16243 0.05969 0.0
C1068 C 0.05284 0.166 0.07992 0.0
C1069 C 0.03436 0.14859 0.07702 0.0
C1070 C 0.0356 0.12788 0.05547 0.0
C1071 C 0.0519 0.18695 0.10896 0.0
C1072 C 0.0428 0.18366 0.16729 0.0
C1073 C 0.06117 0.20975 0.08192 0.0
C1074 C 0.069 0.21457 0.018 0.0
C1075 C 0.05562 0.20638 0.97122 0.0
C1076 C 0.0631 0.21065 0.91118 0.0
C1077 C 0.08393 0.22319 0.89723 0.0
C1078 C 0.09728 0.23155 0.94327 0.0
C1079 C 0.08988 0.22733 0.00341 0.0
H1080 H 0.0897 0.22646 0.85073 0.0
H1081 H 0.00303 0.18088 0.41719 0.0
H1082 H 0.32873 0.99171 0.49488 0.0
H1083 H 0.35035 0.00516 0.40448 0.0
H1084 H 0.29328 0.00576 0.2973 0.0
H1085 H 0.27103 0.98908 0.38798 0.0
H1086 H 0.32039 0.99053 0.23705 0.0
H1087 H 0.32931 0.05992 0.33263 0.0
H1088 H 0.33506 0.08096 0.42175 0.0
H1089 H 0.39588 0.0611 0.45271 0.0
H1090 H 0.39069 0.04035 0.36308 0.0
H1091 H 0.39328 0.04513 0.99234 0.0
H1092 H 0.36495 0.0403 0.06928 0.0
H1093 H 0.40962 0.02545 0.20973 0.0
H1094 H 0.438 0.03071 0.13349 0.0
H1095 H 0.38475 0.05358 0.24335 0.0
H1096 H 0.37465 0.9825 0.15223 0.0
H1097 H 0.36837 0.95962 0.06674 0.0
H1098 H 0.30867 0.98141 0.0296 0.0
H1099 H 0.31483 0.00482 0.11408 0.0
C1100 C 0.32051 0.99407 0.45222 0.0
C1101 C 0.29793 0.98866 0.44914 0.0
C1102 C 0.33307 0.00252 0.40031 0.0
C1103 C 0.32359 0.00729 0.34391 0.0
C1104 C 0.30104 0.00245 0.34036 0.0
C1105 C 0.28832 0.99314 0.39244 0.0
C1106 C 0.33755 0.0164 0.28908 0.0
C1107 C 0.33413 0.00474 0.23779 0.0
C1108 C 0.35571 0.03476 0.28995 0.0
C1109 C 0.3596 0.04862 0.34118 0.0
C1110 C 0.34398 0.06021 0.3582 0.0
C1111 C 0.34715 0.07208 0.40878 0.0
C1112 C 0.36581 0.07232 0.44293 0.0
C1113 C 0.38142 0.06087 0.42626 0.0
C1114 C 0.3785 0.04929 0.37515 0.0
C1115 C 0.39712 0.04117 0.03972 0.0
C1116 C 0.41784 0.03812 0.05682 0.0
C1117 C 0.38088 0.03826 0.08356 0.0
C1118 C 0.38511 0.03227 0.14523 0.0
C1119 C 0.40597 0.03002 0.16245 0.0
C1120 C 0.42213 0.03283 0.11876 0.0
C1121 C 0.36779 0.02738 0.19209 0.0
C1122 C 0.37065 0.03984 0.24187 0.0
C1123 C 0.34909 0.00986 0.18953 0.0
C1124 C 0.34534 0.99566 0.13898 0.0
C1125 C 0.36029 0.98259 0.12546 0.0
C1126 C 0.35674 0.96952 0.0772 0.0
C1127 C 0.33818 0.96915 0.04256 0.0
C1128 C 0.3231 0.9818 0.05625 0.0
C1129 C 0.32661 0.99498 0.1043 0.0
H1130 H 0.33546 0.95898 0.0053 0.0
H1131 H 0.3682 0.08144 0.48221 0.0
H1132 H 0.48727 0.26398 0.22934 0.0
H1133 H 0.49639 0.29752 0.15048 0.0
H1134 H 0.43188 0.30908 0.15959 0.0
H1135 H 0.42239 0.27493 0.23566 0.0
H1136 H 0.44617 0.3214 0.04714 0.0
H1137 H 0.47519 0.33694 0.24609 0.0
H1138 H 0.49747 0.33101 0.33674 0.0
H1139 H 0.55363 0.34242 0.22363 0.0
H1140 H 0.53176 0.34837 0.13242 0.0
H1141 H 0.46439 0.44557 0.97385 0.0
H1142 H 0.45547 0.40564 0.02684 0.0
H1143 H 0.51809 0.39542 0.98141 0.0
H1144 H 0.52701 0.43487 0.92839 0.0
H1145 H 0.50653 0.38162 0.10482 0.0
H1146 H 0.47953 0.36965 0.90795 0.0
H1147 H 0.45895 0.37882 0.81626 0.0
H1148 H 0.40057 0.3619 0.92186 0.0
H1149 H 0.42088 0.3529 0.01448 0.0
C1150 C 0.47483 0.27317 0.21308 0.0
C1151 C 0.45418 0.26694 0.23959 0.0
C1152 C 0.48014 0.29258 0.1685 0.0
C1153 C 0.46501 0.30634 0.15028 0.0
C1154 C 0.44394 0.29899 0.17314 0.0
C1155 C 0.43857 0.27949 0.21703 0.0
C1156 C 0.47137 0.32934 0.11187 0.0
C1157 C 0.45929 0.33456 0.06008 0.0
C1158 C 0.48877 0.34655 0.1276 0.0
C1159 C 0.50182 0.34283 0.18249 0.0
C1160 C 0.49227 0.33802 0.24061 0.0
C1161 C 0.5048 0.33469 0.29203 0.0
C1162 C 0.52688 0.33621 0.28588 0.0
C1163 C 0.53651 0.34118 0.22832 0.0
C1164 C 0.52408 0.34458 0.17678 0.0
C1165 C 0.47619 0.43476 0.97507 0.0
C1166 C 0.49633 0.44336 0.94659 0.0
C1167 C 0.47107 0.41196 0.0051 0.0
C1168 C 0.48612 0.39756 0.00782 0.0
C1169 C 0.50625 0.4062 0.97979 0.0
C1170 C 0.51124 0.42875 0.94916 0.0
C1171 C 0.48118 0.37365 0.04112 0.0
C1172 C 0.49352 0.36833 0.0918 0.0
C1173 C 0.46418 0.35641 0.02412 0.0
C1174 C 0.45174 0.36082 0.96827 0.0
C1175 C 0.46231 0.36802 0.91171 0.0
C1176 C 0.45071 0.37323 0.85957 0.0
C1177 C 0.42848 0.37113 0.8633 0.0
C1178 C 0.4178 0.36363 0.91911 0.0
C1179 C 0.42935 0.35841 0.97143 0.0
H1180 H 0.41952 0.37512 0.82286 0.0
H1181 H 0.53654 0.33361 0.32575 0.0
H1182 H 0.2721 0.5494 0.36257 0.0
H1183 H 0.25298 0.5355 0.27319 0.0
H1184 H 0.20446 0.48987 0.39104 0.0
H1185 H 0.22373 0.50307 0.47926 0.0
H1186 H 0.20946 0.46965 0.29823 0.0
H1187 H 0.20014 0.54617 0.3305 0.0
H1188 H 0.21271 0.58767 0.33945 0.0
H1189 H 0.23938 0.59965 0.15906 0.0
H1190 H 0.22717 0.55812 0.1494 0.0
H1191 H 0.11242 0.50272 0.12267 0.0
H1192 H 0.14411 0.51208 0.18474 0.0
H1193 H 0.1742 0.46535 0.10082 0.0
H1194 H 0.14223 0.45559 0.03902 0.0
H1195 H 0.18416 0.53152 0.1617 0.0
H1196 H 0.2065 0.44168 0.20562 0.0
H1197 H 0.18933 0.40027 0.20996 0.0
H1198 H 0.12902 0.41507 0.25791 0.0
H1199 H 0.1459 0.45648 0.25452 0.0
C1200 C 0.25768 0.53595 0.36902 0.0
C1201 C 0.24915 0.52755 0.4275 0.0
C1202 C 0.24669 0.52812 0.31812 0.0
C1203 C 0.22704 0.51193 0.32533 0.0
C1204 C 0.21952 0.50237 0.38407 0.0
C1205 C 0.23046 0.51005 0.43453 0.0
C1206 C 0.2129 0.50652 0.27311 0.0
C1207 C 0.20421 0.48319 0.26764 0.0
C1208 C 0.2057 0.52412 0.23382 0.0
C1209 C 0.21301 0.54904 0.23953 0.0
C1210 C 0.20882 0.55764 0.29293 0.0
C1211 C 0.21585 0.58116 0.29811 0.0
C1212 C 0.2269 0.59627 0.24993 0.0
C1213 C 0.23087 0.58791 0.1964 0.0
C1214 C 0.22391 0.56439 0.19105 0.0
C1215 C 0.12584 0.49458 0.11693 0.0
C1216 C 0.12481 0.47846 0.07572 0.0
C1217 C 0.14399 0.49996 0.15246 0.0
C1218 C 0.16156 0.48941 0.14763 0.0
C1219 C 0.16075 0.47352 0.10592 0.0
C1220 C 0.14245 0.46793 0.07071 0.0
C1221 C 0.18028 0.49465 0.18803 0.0
C1222 C 0.18986 0.51796 0.191 0.0
C1223 C 0.1877 0.47703 0.22662 0.0
C1224 C 0.1774 0.45218 0.22893 0.0
C1225 C 0.18959 0.43606 0.21711 0.0
C1226 C 0.17991 0.41261 0.21943 0.0
C1227 C 0.15808 0.40506 0.23393 0.0
C1228 C 0.1459 0.42095 0.24638 0.0
C1229 C 0.15551 0.44441 0.24419 0.0
H1230 H 0.15062 0.3869 0.23569 0.0
H1231 H 0.23233 0.61448 0.254 0.0
H1232 H 0.93079 0.72891 0.3776 0.0
H1233 H 0.93045 0.75645 0.44971 0.0
H1234 H -0.00054 0.76774 0.46083 0.0
H1235 H -0.00028 0.73994 0.38913 0.0
H1236 H 0.98117 0.77317 0.56899 0.0
H1237 H 0.97901 0.80188 0.35782 0.0
H1238 H 0.96601 0.80362 0.25274 0.0
H1239 H 0.90415 0.81023 0.31315 0.0
H1240 H 0.91688 0.80867 0.41885 0.0
H1241 H 0.00439 0.89309 0.61225 0.0
H1242 H 0.00207 0.85535 0.57799 0.0
H1243 H 0.93315 0.84614 0.56949 0.0
H1244 H 0.93524 0.88366 0.60507 0.0
H1245 H 0.95066 0.83834 0.46537 0.0
H1246 H 0.95355 0.80538 0.68089 0.0
H1247 H 0.96854 0.80366 0.78422 0.0
H1248 H 0.03147 0.80819 0.71095 0.0
H1249 H 0.01667 0.80896 0.60745 0.0
C1250 C 0.94573 0.73623 0.39827 0.0
C1251 C 0.96524 0.73203 0.37869 0.0
C1252 C 0.94558 0.75227 0.43869 0.0
C1253 C 0.96498 0.76456 0.45963 0.0
C1254 C 0.98431 0.7585 0.44525 0.0
C1255 C 0.98444 0.7424 0.40484 0.0
C1256 C 0.96531 0.7857 0.48887 0.0
C1257 C 0.97457 0.78744 0.54621 0.0
C1258 C 0.95671 0.80442 0.4594 0.0
C1259 C 0.94882 0.8049 0.39624 0.0
C1260 C 0.96259 0.80353 0.34875 0.0
C1261 C 0.95529 0.80455 0.28906 0.0
C1262 C 0.93423 0.80689 0.27623 0.0
C1263 C 0.92045 0.80835 0.32315 0.0
C1264 C 0.92771 0.80748 0.38295 0.0
C1265 C 0.98868 0.88293 0.60396 0.0
C1266 C 0.96999 0.89154 0.61142 0.0
C1267 C 0.98739 0.86125 0.58462 0.0
C1268 C 0.96741 0.8477 0.57199 0.0
C1269 C 0.94874 0.85622 0.57926 0.0
C1270 C 0.94999 0.87783 0.59898 0.0
C1271 C 0.96614 0.82567 0.54603 0.0
C1272 C 0.95691 0.8239 0.48871 0.0
C1273 C 0.97502 0.80715 0.57513 0.0
C1274 C 0.98407 0.80744 0.63669 0.0
C1275 C 0.97059 0.80607 0.68693 0.0
C1276 C 0.97901 0.80509 0.74548 0.0
C1277 C 0.00096 0.80604 0.7541 0.0
C1278 C 0.01449 0.80755 0.70422 0.0
C1279 C 0.00606 0.80803 0.64569 0.0
H1280 H 0.00747 0.80554 0.79942 0.0
H1281 H 0.92862 0.80765 0.22994 0.0
H1282 H 0.74259 0.01882 0.24239 0.0
H1283 H 0.719 0.00441 0.33147 0.0
H1284 H 0.69035 0.94394 0.24861 0.0
H1285 H 0.71342 0.95883 0.15898 0.0
H1286 H 0.66055 0.9631 0.28158 0.0
H1287 H 0.72181 0.94121 0.38029 0.0
H1288 H 0.7593 0.94635 0.41484 0.0
H1289 H 0.7493 0.99891 0.51927 0.0
H1290 H 0.71182 0.99433 0.48465 0.0
H1291 H 0.5889 0.91621 0.52805 0.0
H1292 H 0.61838 0.92049 0.45571 0.0
H1293 H 0.65019 0.9833 0.52317 0.0
H1294 H 0.6214 0.97847 0.59779 0.0
H1295 H 0.67883 0.95929 0.49978 0.0
H1296 H 0.61835 0.98297 0.39247 0.0
H1297 H 0.58105 0.97779 0.35598 0.0
H1298 H 0.59016 0.9211 0.26577 0.0
H1299 H 0.62738 0.92568 0.30255 0.0
C1300 C 0.73168 1.00214 0.24432 0.0
C1301 C 0.72982 0.98979 0.19446 0.0
C1302 C 0.71821 0.99388 0.29513 0.0
C1303 C 0.70289 0.973 0.29699 0.0
C1304 C 0.70196 0.96008 0.24829 0.0
C1305 C 0.71522 0.96848 0.19735 0.0
C1306 C 0.6863 0.96591 0.34612 0.0
C1307 C 0.66461 0.9618 0.32933 0.0
C1308 C 0.6915 0.96475 0.40845 0.0
C1309 C 0.71404 0.96755 0.42943 0.0
C1310 C 0.72765 0.954 0.41023 0.0
C1311 C 0.74889 0.95679 0.4299 0.0
C1312 C 0.75669 0.97298 0.46912 0.0
C1313 C 0.74324 0.98639 0.48885 0.0
C1314 C 0.72198 0.98368 0.46927 0.0
C1315 C 0.60235 0.9307 0.52836 0.0
C1316 C 0.60261 0.94714 0.5684 0.0
C1317 C 0.6191 0.93326 0.48645 0.0
C1318 C 0.63631 0.95249 0.48307 0.0
C1319 C 0.63702 0.96841 0.52453 0.0
C1320 C 0.6204 0.96576 0.56677 0.0
C1321 C 0.65317 0.95662 0.43503 0.0
C1322 C 0.67486 0.96029 0.452 0.0
C1323 C 0.64801 0.9573 0.3727 0.0
C1324 C 0.62557 0.95448 0.35092 0.0
C1325 C 0.61233 0.96926 0.36533 0.0
C1326 C 0.59121 0.96645 0.34453 0.0
C1327 C 0.58322 0.94905 0.30885 0.0
C1328 C 0.59634 0.93449 0.29364 0.0
C1329 C 0.61744 0.93719 0.31445 0.0
H1330 H 0.56687 0.94687 0.29296 0.0
H1331 H 0.77315 0.97511 0.4843 0.0
H1332 H 0.5844 0.77018 0.49976 0.0
H1333 H 0.57492 0.73876 0.58515 0.0
H1334 H 0.56682 0.68834 0.45978 0.0
H1335 H 0.57475 0.71915 0.37562 0.0
H1336 H 0.53684 0.67542 0.53715 0.0
H1337 H 0.614 0.70381 0.5502 0.0
H1338 H 0.64675 0.73317 0.56307 0.0
H1339 H 0.62356 0.74183 0.73686 0.0
H1340 H 0.59055 0.71269 0.72464 0.0
H1341 H 0.56001 0.57177 0.68912 0.0
H1342 H 0.56744 0.61058 0.63041 0.0
H1343 H 0.54565 0.63876 0.78056 0.0
H1344 H 0.53809 0.59985 0.8398 0.0
H1345 H 0.5871 0.66598 0.70723 0.0
H1346 H 0.51133 0.63174 0.69408 0.0
H1347 H 0.48123 0.59973 0.67775 0.0
H1348 H 0.50464 0.60034 0.49754 0.0
H1349 H 0.53516 0.63198 0.51329 0.0
C1350 C 0.58037 0.75238 0.49069 0.0
C1351 C 0.58089 0.7472 0.43094 0.0
C1352 C 0.57514 0.73442 0.53949 0.0
C1353 C 0.57047 0.71105 0.52918 0.0
C1354 C 0.57039 0.7061 0.46935 0.0
C1355 C 0.57529 0.72385 0.42106 0.0
C1356 C 0.56589 0.69133 0.57944 0.0
C1357 C 0.5479 0.67348 0.57425 0.0
C1358 C 0.57995 0.6888 0.62894 0.0
C1359 C 0.59971 0.70634 0.63614 0.0
C1360 C 0.61582 0.71212 0.59092 0.0
C1361 C 0.63444 0.72869 0.59813 0.0
C1362 C 0.6372 0.73942 0.65064 0.0
C1363 C 0.62137 0.73355 0.69613 0.0
C1364 C 0.60271 0.71702 0.68909 0.0
C1365 C 0.55726 0.5863 0.71019 0.0
C1366 C 0.54827 0.58282 0.76879 0.0
C1367 C 0.56145 0.60841 0.67659 0.0
C1368 C 0.55703 0.62743 0.7014 0.0
C1369 C 0.54924 0.62426 0.7611 0.0
C1370 C 0.54475 0.60207 0.79445 0.0
C1371 C 0.55872 0.65005 0.66277 0.0
C1372 C 0.57596 0.6683 0.67057 0.0
C1373 C 0.54424 0.65285 0.6149 0.0
C1374 C 0.52564 0.63411 0.60507 0.0
C1375 C 0.51018 0.62491 0.65118 0.0
C1376 C 0.49302 0.60684 0.642 0.0
C1377 C 0.49105 0.598 0.58665 0.0
C1378 C 0.5062 0.60721 0.54038 0.0
C1379 C 0.52343 0.6252 0.54941 0.0
H1380 H 0.47776 0.58407 0.57946 0.0
H1381 H 0.65163 0.75223 0.65616 0.0
H1382 H 0.77807 0.49003 0.23619 0.0
H1383 H 0.7986 0.50474 0.32185 0.0
H1384 H 0.81382 0.43759 0.37608 0.0
H1385 H 0.79329 0.42275 0.29041 0.0
H1386 H 0.8029 0.45984 0.47473 0.0
H1387 H 0.84959 0.47578 0.29756 0.0
H1388 H 0.86005 0.49182 0.1916 0.0
H1389 H 0.85706 0.56002 0.22878 0.0
H1390 H 0.84639 0.54437 0.33488 0.0
H1391 H 0.89641 0.48454 0.65034 0.0
H1392 H 0.86792 0.47201 0.5805 0.0
H1393 H 0.86751 0.54338 0.51251 0.0
H1394 H 0.89724 0.55609 0.57917 0.0
H1395 H 0.86825 0.52089 0.42248 0.0
H1396 H 0.8261 0.50613 0.60337 0.0
H1397 H 0.81482 0.49057 0.7089 0.0
H1398 H 0.8075 0.42108 0.66681 0.0
H1399 H 0.81929 0.43619 0.5614 0.0
C1400 C 0.78541 0.47827 0.26712 0.0
C1401 C 0.7841 0.45524 0.25669 0.0
C1402 C 0.79723 0.48673 0.31575 0.0
C1403 C 0.80781 0.47228 0.35496 0.0
C1404 C 0.80573 0.449 0.34631 0.0
C1405 C 0.79411 0.44059 0.2973 0.0
C1406 C 0.82217 0.48179 0.40258 0.0
C1407 C 0.81731 0.47305 0.46363 0.0
C1408 C 0.84058 0.49948 0.38775 0.0
C1409 C 0.84695 0.50887 0.32395 0.0
C1410 C 0.85097 0.49416 0.283 0.0
C1411 C 0.85697 0.50318 0.22296 0.0
C1412 C 0.85912 0.52689 0.20343 0.0
C1413 C 0.85534 0.54165 0.24395 0.0
C1414 C 0.84934 0.53272 0.30404 0.0
C1415 C 0.89035 0.49765 0.62049 0.0
C1416 C 0.89942 0.52138 0.61991 0.0
C1417 C 0.87373 0.49041 0.58123 0.0
C1418 C 0.86531 0.50671 0.54161 0.0
C1419 C 0.87369 0.53045 0.54273 0.0
C1420 C 0.89058 0.53771 0.58136 0.0
C1421 C 0.84918 0.49893 0.49555 0.0
C1422 C 0.85374 0.5079 0.43433 0.0
C1423 C 0.83044 0.48152 0.51052 0.0
C1424 C 0.82377 0.47234 0.5744 0.0
C1425 C 0.82234 0.48753 0.61671 0.0
C1426 C 0.8158 0.47878 0.67653 0.0
C1427 C 0.81042 0.45485 0.69453 0.0
C1428 C 0.8116 0.43962 0.65275 0.0
C1429 C 0.81827 0.44827 0.59299 0.0
H1430 H 0.80539 0.44812 0.74087 0.0
H1431 H 0.86378 0.53383 0.15693 0.0
loop_
_geom_bond_atom_site_label_1
_geom_bond_atom_site_label_2
_geom_bond_distance
_geom_bond_site_symmetry_2
_ccdc_geom_bond_type
H0 C3 0.931 . S
H1 C6 0.928 1_556 S
H2 C8 0.930 . S
C3 H0 0.931 . S
C3 C4 1.413 . S
C3 C5 1.360 . S
C4 C3 1.413 . S
C4 C8 1.429 . S
C5 C3 1.360 . S
C5 C6 1.372 . S
C6 H1 0.928 1_554 S
C6 C5 1.372 . S
C6 C7 1.404 . S
C7 C6 1.404 . S
C7 C8 1.391 . S
C8 H2 0.930 . S
C8 C4 1.429 . S
C8 C7 1.391 . S
H9 C12 0.931 . S
H10 C15 0.928 1_556 S
H11 C17 0.930 . S
C12 H9 0.931 . S
C12 C13 1.413 . S
C12 C14 1.360 . S
C13 C12 1.413 . S
C13 C17 1.429 . S
C14 C12 1.360 . S
C14 C15 1.372 . S
C15 H10 0.928 1_554 S
C15 C14 1.372 . S
C15 C16 1.404 . S
C16 C15 1.404 . S
C16 C17 1.391 . S
C17 H11 0.930 . S
C17 C13 1.429 . S
C17 C16 1.391 . S
H18 C21 0.932 . S
H19 C24 0.928 . S
H20 C26 0.931 . S
C21 H18 0.932 . S
C21 C22 1.414 . S
C21 C23 1.360 1_554 S
C22 C21 1.414 . S
C22 C26 1.431 1_565 S
C23 C21 1.360 1_556 S
C23 C24 1.377 . S
C24 H19 0.928 . S
C24 C23 1.377 . S
C24 C25 1.404 . S
C25 C24 1.404 . S
C25 C26 1.388 1_566 S
C26 H20 0.931 . S
C26 C22 1.431 1_545 S
C26 C25 1.388 1_544 S
H27 C30 0.931 . S
H28 C33 0.928 . S
H29 C35 0.930 . S
C30 H27 0.931 . S
C30 C31 1.413 . S
C30 C32 1.360 . S
C31 C30 1.413 . S
C31 C35 1.429 . S
C32 C30 1.360 . S
C32 C33 1.372 . S
C33 H28 0.928 . S
C33 C32 1.372 . S
C33 C34 1.404 . S
C34 C33 1.404 . S
C34 C35 1.391 . S
C35 H29 0.930 . S
C35 C31 1.429 . S
C35 C34 1.391 . S
H36 C39 0.931 . S
H37 C42 0.928 . S
H38 C44 0.930 . S
C39 H36 0.931 . S
C39 C40 1.413 . S
C39 C41 1.360 . S
C40 C39 1.413 . S
C40 C44 1.429 . S
C41 C39 1.360 . S
C41 C42 1.372 . S
C42 H37 0.928 . S
C42 C41 1.372 . S
C42 C43 1.404 . S
C43 C42 1.404 . S
C43 C44 1.391 . S
C44 H38 0.930 . S
C44 C40 1.429 . S
C44 C43 1.391 . S
H45 C48 0.931 . S
H46 C51 0.928 . S
H47 C53 0.930 . S
C48 H45 0.931 . S
C48 C49 1.413 . S
C48 C50 1.360 . S
C49 C48 1.413 . S
C49 C53 1.429 . S
C50 C48 1.360 . S
C50 C51 1.372 . S
C51 H46 0.928 . S
C51 C50 1.372 . S
C51 C52 1.404 . S
C52 C51 1.404 . S
C52 C53 1.391 . S
C53 H47 0.930 . S
C53 C49 1.429 . S
C53 C52 1.391 . S
H54 C57 0.929 . S
H55 C60 0.928 . S
H56 C62 0.929 . S
C57 H54 0.929 . S
C57 C58 1.413 . S
C57 C59 1.360 . S
C58 C57 1.413 . S
C58 C62 1.427 1_565 S
C59 C57 1.360 . S
C59 C60 1.370 . S
C60 H55 0.928 . S
C60 C59 1.370 . S
C60 C61 1.404 . S
C61 C60 1.404 . S
C61 C62 1.393 1_565 S
C62 H56 0.929 . S
C62 C58 1.427 1_545 S
C62 C61 1.393 1_545 S
H63 C66 0.931 . S
H64 C69 0.928 . S
H65 C71 0.930 . S
C66 H63 0.931 . S
C66 C67 1.413 . S
C66 C68 1.360 . S
C67 C66 1.413 . S
C67 C71 1.429 . S
C68 C66 1.360 . S
C68 C69 1.372 . S
C69 H64 0.928 . S
C69 C68 1.372 . S
C69 C70 1.404 . S
C70 C69 1.404 . S
C70 C71 1.391 . S
C71 H65 0.930 . S
C71 C67 1.429 . S
C71 C70 1.391 . S
Nd72 C74 2.836 1_455 S
Nd72 O92 2.500 1_455 S
Nd72 O93 2.492 . S
Nd72 O94 2.487 . S
Nd72 O95 2.682 1_565 S
Nd72 O96 2.410 . S
Nd72 O101 2.431 1_455 S
Nd72 O103 2.424 1_565 S
Nd73 C83 2.836 . S
Nd73 O95 2.414 . S
Nd73 O97 2.424 1_545 S
Nd73 O98 2.500 . S
Nd73 O99 2.492 . S
Nd73 O100 2.487 1_455 S
Nd73 O101 2.678 1_445 S
Nd73 O102 2.410 . S
C74 Nd72 2.836 1_655 S
C74 C75 1.498 . S
C74 O92 1.258 . S
C74 O93 1.239 1_655 S
C75 C74 1.498 . S
C75 C76 1.366 . S
C75 C80 1.407 . S
C76 C75 1.366 . S
C76 C77 1.392 . S
C76 H104 0.930 . S
C77 C76 1.392 . S
C77 C78 1.398 . S
C77 H105 0.929 . S
C78 C77 1.398 . S
C78 C79 1.352 . S
C79 C78 1.352 . S
C79 C80 1.384 . S
C79 H106 0.930 . S
C80 C75 1.407 . S
C80 C79 1.384 . S
C80 H107 0.929 1_655 S
C81 O94 1.241 . S
C81 O95 1.273 1_565 S
C82 O96 1.251 . S
C82 O97 1.268 . S
C83 Nd73 2.836 . S
C83 C84 1.498 1_556 S
C83 O98 1.258 . S
C83 O99 1.239 . S
C84 C83 1.498 1_554 S
C84 C85 1.366 1_554 S
C84 C89 1.407 . S
C85 C84 1.366 1_556 S
C85 C86 1.392 1_556 S
C85 H108 0.930 . S
C86 C85 1.392 1_554 S
C86 C87 1.398 . S
C86 H109 0.929 . S
C87 C86 1.398 . S
C87 C88 1.352 . S
C88 C87 1.352 . S
C88 C89 1.384 . S
C88 H110 0.930 . S
C89 C84 1.407 . S
C89 C88 1.384 . S
C89 H111 0.929 . S
C90 O100 1.241 . S
C90 O101 1.249 1_545 S
C91 O102 1.251 . S
C91 O103 1.268 . S
O92 Nd72 2.500 1_655 S
O92 C74 1.258 . S
O93 Nd72 2.492 . S
O93 C74 1.239 1_455 S
O94 Nd72 2.487 . S
O94 C81 1.241 . S
O95 Nd72 2.682 1_545 S
O95 Nd73 2.414 . S
O95 C81 1.273 1_545 S
O96 Nd72 2.410 . S
O96 C82 1.251 . S
O97 Nd73 2.424 1_565 S
O97 C82 1.268 . S
O98 Nd73 2.500 . S
O98 C83 1.258 . S
O99 Nd73 2.492 . S
O99 C83 1.239 . S
O100 Nd73 2.487 1_655 S
O100 C90 1.241 . S
O101 Nd72 2.431 1_655 S
O101 Nd73 2.678 1_665 S
O101 C90 1.249 1_565 S
O102 Nd73 2.410 . S
O102 C91 1.251 . S
O103 Nd72 2.424 1_545 S
O103 C91 1.268 . S
H104 C76 0.930 . S
H105 C77 0.929 . S
H106 C79 0.930 . S
H107 C80 0.929 1_455 S
H108 C85 0.930 . S
H109 C86 0.929 . S
H110 C88 0.930 . S
H111 C89 0.929 . S
Nd112 C114 2.836 . S
Nd112 O132 2.500 . S
Nd112 O133 2.492 . S
Nd112 O134 2.487 1_565 S
Nd112 O135 2.682 1_565 S
Nd112 O136 2.410 1_565 S
Nd112 O141 2.414 . S
Nd112 O143 2.424 . S
Nd113 C123 2.836 . S
Nd113 O135 2.414 . S
Nd113 O137 2.424 . S
Nd113 O138 2.500 . S
Nd113 O139 2.492 . S
Nd113 O140 2.487 1_545 S
Nd113 O141 2.682 1_545 S
Nd113 O142 2.410 1_545 S
C114 Nd112 2.836 . S
C114 C115 1.498 . S
C114 O132 1.258 . S
C114 O133 1.239 . S
C115 C114 1.498 . S
C115 C116 1.366 . S
C115 C120 1.407 . S
C116 C115 1.366 . S
C116 C117 1.392 . S
C116 H144 0.930 . S
C117 C116 1.392 . S
C117 C118 1.398 . S
C117 H145 0.929 . S
C118 C117 1.398 . S
C118 C119 1.352 . S
C119 C118 1.352 . S
C119 C120 1.384 . S
C119 H146 0.930 . S
C120 C115 1.407 . S
C120 C119 1.384 . S
C120 H147 0.929 1_565 S
C121 O134 1.241 . S
C121 O135 1.273 . S
C122 O136 1.251 . S
C122 O137 1.268 . S
C123 Nd113 2.836 . S
C123 C124 1.498 1_556 S
C123 O138 1.258 . S
C123 O139 1.239 . S
C124 C123 1.498 1_554 S
C124 C125 1.366 1_554 S
C124 C129 1.407 . S
C125 C124 1.366 1_556 S
C125 C126 1.392 1_556 S
C125 H148 0.930 . S
C126 C125 1.392 1_554 S
C126 C127 1.398 . S
C126 H149 0.929 . S
C127 C126 1.398 . S
C127 C128 1.352 . S
C128 C127 1.352 . S
C128 C129 1.384 . S
C128 H150 0.930 . S
C129 C124 1.407 . S
C129 C128 1.384 . S
C129 H151 0.929 1_545 S
C130 O140 1.241 . S
C130 O141 1.273 . S
C131 O142 1.251 . S
C131 O143 1.268 . S
O132 Nd112 2.500 . S
O132 C114 1.258 . S
O133 Nd112 2.492 . S
O133 C114 1.239 . S
O134 Nd112 2.487 1_545 S
O134 C121 1.241 . S
O135 Nd112 2.682 1_545 S
O135 Nd113 2.414 . S
O135 C121 1.273 . S
O136 Nd112 2.410 1_545 S
O136 C122 1.251 . S
O137 Nd113 2.424 . S
O137 C122 1.268 . S
O138 Nd113 2.500 . S
O138 C123 1.258 . S
O139 Nd113 2.492 . S
O139 C123 1.239 . S
O140 Nd113 2.487 1_565 S
O140 C130 1.241 . S
O141 Nd112 2.414 . S
O141 Nd113 2.682 1_565 S
O141 C130 1.273 . S
O142 Nd113 2.410 1_565 S
O142 C131 1.251 . S
O143 Nd112 2.424 . S
O143 C131 1.268 . S
H144 C116 0.930 . S
H145 C117 0.929 . S
H146 C119 0.930 . S
H147 C120 0.929 1_545 S
H148 C125 0.930 . S
H149 C126 0.929 . S
H150 C128 0.930 . S
H151 C129 0.929 1_565 S
Nd152 C154 2.836 . S
Nd152 O172 2.500 . S
Nd152 O173 2.492 . S
Nd152 O174 2.487 . S
Nd152 O175 2.682 . S
Nd152 O176 2.410 . S
Nd152 O181 2.414 . S
Nd152 O183 2.424 . S
Nd153 C163 2.836 . S
Nd153 O175 2.414 . S
Nd153 O177 2.424 . S
Nd153 O178 2.500 . S
Nd153 O179 2.492 . S
Nd153 O180 2.487 . S
Nd153 O181 2.682 . S
Nd153 O182 2.410 . S
C154 Nd152 2.836 . S
C154 C155 1.498 . S
C154 O172 1.258 . S
C154 O173 1.239 . S
C155 C154 1.498 . S
C155 C156 1.366 . S
C155 C160 1.407 . S
C156 C155 1.366 . S
C156 C157 1.392 . S
C156 H184 0.930 . S
C157 C156 1.392 . S
C157 C158 1.398 . S
C157 H185 0.929 . S
C158 C157 1.398 . S
C158 C159 1.352 1_556 S
C159 C158 1.352 1_554 S
C159 C160 1.384 1_554 S
C159 H186 0.930 . S
C160 C155 1.407 . S
C160 C159 1.384 1_556 S
C160 H187 0.929 1_556 S
C161 O174 1.241 . S
C161 O175 1.273 . S
C162 O176 1.251 . S
C162 O177 1.268 . S
C163 Nd153 2.836 . S
C163 C164 1.498 . S
C163 O178 1.258 . S
C163 O179 1.239 . S
C164 C163 1.498 . S
C164 C165 1.366 . S
C164 C169 1.407 . S
C165 C164 1.366 . S
C165 C166 1.392 . S
C165 H188 0.930 . S
C166 C165 1.392 . S
C166 C167 1.398 . S
C166 H189 0.929 . S
C167 C166 1.398 . S
C167 C168 1.352 . S
C168 C167 1.352 . S
C168 C169 1.384 . S
C168 H190 0.930 . S
C169 C164 1.407 . S
C169 C168 1.384 . S
C169 H191 0.929 . S
C170 O180 1.241 . S
C170 O181 1.273 . S
C171 O182 1.251 . S
C171 O183 1.268 . S
O172 Nd152 2.500 . S
O172 C154 1.258 . S
O173 Nd152 2.492 . S
O173 C154 1.239 . S
O174 Nd152 2.487 . S
O174 C161 1.241 . S
O175 Nd152 2.682 . S
O175 Nd153 2.414 . S
O175 C161 1.273 . S
O176 Nd152 2.410 . S
O176 C162 1.251 . S
O177 Nd153 2.424 . S
O177 C162 1.268 . S
O178 Nd153 2.500 . S
O178 C163 1.258 . S
O179 Nd153 2.492 . S
O179 C163 1.239 . S
O180 Nd153 2.487 . S
O180 C170 1.241 . S
O181 Nd152 2.414 . S
O181 Nd153 2.682 . S
O181 C170 1.273 . S
O182 Nd153 2.410 . S
O182 C171 1.251 . S
O183 Nd152 2.424 . S
O183 C171 1.268 . S
H184 C156 0.930 . S
H185 C157 0.929 . S
H186 C159 0.930 . S
H187 C160 0.929 1_554 S
H188 C165 0.930 . S
H189 C166 0.929 . S
H190 C168 0.930 . S
H191 C169 0.929 . S
Nd192 C194 2.836 1_455 S
Nd192 O212 2.500 1_455 S
Nd192 O213 2.492 1_455 S
Nd192 O214 2.487 . S
Nd192 O215 2.682 . S
Nd192 O216 2.410 1_455 S
Nd192 O221 2.414 . S
Nd192 O223 2.424 . S
Nd193 C203 2.836 . S
Nd193 O215 2.414 . S
Nd193 O217 2.424 1_455 S
Nd193 O218 2.500 . S
Nd193 O219 2.492 . S
Nd193 O220 2.487 . S
Nd193 O221 2.682 . S
Nd193 O222 2.410 . S
C194 Nd192 2.836 1_655 S
C194 C195 1.498 . S
C194 O212 1.258 . S
C194 O213 1.239 . S
C195 C194 1.498 . S
C195 C196 1.366 . S
C195 C200 1.407 . S
C196 C195 1.366 . S
C196 C197 1.392 . S
C196 H224 0.930 . S
C197 C196 1.392 . S
C197 C198 1.398 . S
C197 H225 0.929 . S
C198 C197 1.398 . S
C198 C199 1.352 . S
C199 C198 1.352 . S
C199 C200 1.384 . S
C199 H226 0.930 . S
C200 C195 1.407 . S
C200 C199 1.384 . S
C200 H227 0.929 . S
C201 O214 1.241 . S
C201 O215 1.273 . S
C202 O216 1.251 . S
C202 O217 1.268 . S
C203 Nd193 2.836 . S
C203 C204 1.498 1_556 S
C203 O218 1.258 . S
C203 O219 1.239 . S
C204 C203 1.498 1_554 S
C204 C205 1.366 . S
C204 C209 1.407 . S
C205 C204 1.366 . S
C205 C206 1.392 . S
C205 H228 0.930 1_554 S
C206 C205 1.392 . S
C206 C207 1.398 . S
C206 H229 0.929 . S
C207 C206 1.398 . S
C207 C208 1.352 . S
C208 C207 1.352 . S
C208 C209 1.384 . S
C208 H230 0.930 . S
C209 C204 1.407 . S
C209 C208 1.384 . S
C209 H231 0.929 . S
C210 O220 1.241 . S
C210 O221 1.273 . S
C211 O222 1.251 . S
C211 O223 1.268 . S
O212 Nd192 2.500 1_655 S
O212 C194 1.258 . S
O213 Nd192 2.492 1_655 S
O213 C194 1.239 . S
O214 Nd192 2.487 . S
O214 C201 1.241 . S
O215 Nd192 2.682 . S
O215 Nd193 2.414 . S
O215 C201 1.273 . S
O216 Nd192 2.410 1_655 S
O216 C202 1.251 . S
O217 Nd193 2.424 1_655 S
O217 C202 1.268 . S
O218 Nd193 2.500 . S
O218 C203 1.258 . S
O219 Nd193 2.492 . S
O219 C203 1.239 . S
O220 Nd193 2.487 . S
O220 C210 1.241 . S
O221 Nd192 2.414 . S
O221 Nd193 2.682 . S
O221 C210 1.273 . S
O222 Nd193 2.410 . S
O222 C211 1.251 . S
O223 Nd192 2.424 . S
O223 C211 1.268 . S
H224 C196 0.930 . S
H225 C197 0.929 . S
H226 C199 0.930 . S
H227 C200 0.929 . S
H228 C205 0.930 1_556 S
H229 C206 0.929 . S
H230 C208 0.930 . S
H231 C209 0.929 . S
H232 C250 0.951 . S
H233 C252 0.951 . S
H234 C254 0.950 . S
H235 C255 0.950 . S
H236 C257 0.950 . S
H237 C260 0.950 . S
H238 C261 0.950 . S
H239 C263 0.950 . S
H240 C264 0.950 1_565 S
H241 C265 0.951 . S
H242 C267 0.951 . S
H243 C269 0.950 . S
H244 C270 0.950 . S
H245 C272 0.950 . S
H246 C275 0.950 . S
H247 C276 0.950 . S
H248 C278 0.950 1_554 S
H249 C279 0.950 1_545 S
C250 H232 0.951 . S
C250 C251 1.368 1_565 S
C250 C252 1.388 . S
C251 C250 1.368 1_545 S
C251 C255 1.381 . S
C252 H233 0.951 . S
C252 C250 1.388 . S
C252 C253 1.359 1_565 S
C253 C252 1.359 1_545 S
C253 C254 1.418 . S
C253 C256 1.499 . S
C254 H234 0.950 . S
C254 C253 1.418 . S
C254 C255 1.374 . S
C255 H235 0.950 . S
C255 C251 1.381 . S
C255 C254 1.374 . S
C256 C253 1.499 . S
C256 C257 1.372 1_545 S
C256 C258 1.392 . S
C257 H236 0.950 . S
C257 C256 1.372 1_565 S
C257 C273 1.377 . S
C258 C256 1.392 . S
C258 C259 1.524 . S
C258 C272 1.377 . S
C259 C258 1.524 . S
C259 C260 1.397 . S
C259 C264 1.363 . S
C260 H237 0.950 . S
C260 C259 1.397 . S
C260 C261 1.334 . S
C261 H238 0.950 . S
C261 C260 1.334 . S
C261 C262 1.287 . S
C262 C261 1.287 . S
C262 C263 1.524 . S
C262 H281 0.913 . S
C263 H239 0.950 . S
C263 C262 1.524 . S
C263 C264 1.415 . S
C264 H240 0.950 1_545 S
C264 C259 1.363 . S
C264 C263 1.415 . S
C265 H241 0.951 . S
C265 C266 1.366 1_545 S
C265 C267 1.388 . S
C266 C265 1.366 1_565 S
C266 C270 1.385 . S
C267 H242 0.951 . S
C267 C265 1.388 . S
C267 C268 1.366 1_545 S
C268 C267 1.366 1_565 S
C268 C269 1.414 . S
C268 C271 1.499 . S
C269 H243 0.950 . S
C269 C268 1.414 . S
C269 C270 1.374 . S
C270 H244 0.950 . S
C270 C266 1.385 . S
C270 C269 1.374 . S
C271 C268 1.499 . S
C271 C272 1.373 1_565 S
C271 C273 1.389 . S
C272 H245 0.950 . S
C272 C258 1.377 . S
C272 C271 1.373 1_545 S
C273 C257 1.377 . S
C273 C271 1.389 . S
C273 C274 1.524 . S
C274 C273 1.524 . S
C274 C275 1.397 . S
C274 C279 1.363 . S
C275 H246 0.950 . S
C275 C274 1.397 . S
C275 C276 1.334 . S
C276 H247 0.950 . S
C276 C275 1.334 . S
C276 C277 1.287 . S
C277 C276 1.287 . S
C277 C278 1.524 . S
C277 H280 0.999 1_556 S
C278 H248 0.950 1_556 S
C278 C277 1.524 . S
C278 C279 1.415 . S
C279 H249 0.950 1_565 S
C279 C274 1.363 . S
C279 C278 1.415 . S
H280 C277 0.999 1_554 S
H281 C262 0.913 . S
H282 C300 0.951 . S
H283 C302 0.951 . S
H284 C304 0.950 . S
H285 C305 0.950 . S
H286 C307 0.950 . S
H287 C310 0.950 . S
H288 C311 0.950 . S
H289 C313 0.950 . S
H290 C314 0.950 . S
H291 C315 0.951 . S
H292 C317 0.951 . S
H293 C319 0.950 . S
H294 C320 0.950 . S
H295 C322 0.950 . S
H296 C325 0.950 . S
H297 C326 0.950 . S
H298 C328 0.950 . S
H299 C329 0.950 . S
C300 H282 0.951 . S
C300 C301 1.366 . S
C300 C302 1.388 . S
C301 C300 1.366 . S
C301 C305 1.385 . S
C302 H283 0.951 . S
C302 C300 1.388 . S
C302 C303 1.366 . S
C303 C302 1.366 . S
C303 C304 1.414 . S
C303 C306 1.499 . S
C304 H284 0.950 . S
C304 C303 1.414 . S
C304 C305 1.374 . S
C305 H285 0.950 . S
C305 C301 1.385 . S
C305 C304 1.374 . S
C306 C303 1.499 . S
C306 C307 1.373 . S
C306 C308 1.389 . S
C307 H286 0.950 . S
C307 C306 1.373 . S
C307 C323 1.377 . S
C308 C306 1.389 . S
C308 C309 1.524 . S
C308 C322 1.377 . S
C309 C308 1.524 . S
C309 C310 1.397 . S
C309 C314 1.363 . S
C310 H287 0.950 . S
C310 C309 1.397 . S
C310 C311 1.334 . S
C311 H288 0.950 . S
C311 C310 1.334 . S
C311 C312 1.287 . S
C312 C311 1.287 . S
C312 C313 1.524 . S
C312 H331 0.913 . S
C313 H289 0.950 . S
C313 C312 1.524 . S
C313 C314 1.415 . S
C314 H290 0.950 . S
C314 C309 1.363 . S
C314 C313 1.415 . S
C315 H291 0.951 . S
C315 C316 1.366 . S
C315 C317 1.388 . S
C316 C315 1.366 . S
C316 C320 1.385 . S
C317 H292 0.951 . S
C317 C315 1.388 . S
C317 C318 1.366 . S
C318 C317 1.366 . S
C318 C319 1.414 . S
C318 C321 1.499 . S
C319 H293 0.950 . S
C319 C318 1.414 . S
C319 C320 1.374 . S
C320 H294 0.950 . S
C320 C316 1.385 . S
C320 C319 1.374 . S
C321 C318 1.499 . S
C321 C322 1.373 . S
C321 C323 1.389 . S
C322 H295 0.950 . S
C322 C308 1.377 . S
C322 C321 1.373 . S
C323 C307 1.377 . S
C323 C321 1.389 . S
C323 C324 1.524 . S
C324 C323 1.524 . S
C324 C325 1.397 . S
C324 C329 1.363 . S
C325 H296 0.950 . S
C325 C324 1.397 . S
C325 C326 1.334 . S
C326 H297 0.950 . S
C326 C325 1.334 . S
C326 C327 1.287 . S
C327 C326 1.287 . S
C327 C328 1.524 . S
C327 H330 0.999 . S
C328 H298 0.950 . S
C328 C327 1.524 . S
C328 C329 1.415 . S
C329 H299 0.950 . S
C329 C324 1.363 . S
C329 C328 1.415 . S
H330 C327 0.999 . S
H331 C312 0.913 . S
H332 C350 0.951 . S
H333 C352 0.951 . S
H334 C354 0.950 . S
H335 C355 0.950 . S
H336 C357 0.950 . S
H337 C360 0.950 . S
H338 C361 0.950 . S
H339 C363 0.950 . S
H340 C364 0.950 . S
H341 C365 0.951 . S
H342 C367 0.951 . S
H343 C369 0.950 . S
H344 C370 0.950 . S
H345 C372 0.950 . S
H346 C375 0.950 . S
H347 C376 0.950 . S
H348 C378 0.950 . S
H349 C379 0.950 . S
C350 H332 0.951 . S
C350 C351 1.366 . S
C350 C352 1.388 . S
C351 C350 1.366 . S
C351 C355 1.385 . S
C352 H333 0.951 . S
C352 C350 1.388 . S
C352 C353 1.366 . S
C353 C352 1.366 . S
C353 C354 1.414 . S
C353 C356 1.499 . S
C354 H334 0.950 . S
C354 C353 1.414 . S
C354 C355 1.374 . S
C355 H335 0.950 . S
C355 C351 1.385 . S
C355 C354 1.374 . S
C356 C353 1.499 . S
C356 C357 1.373 . S
C356 C358 1.389 . S
C357 H336 0.950 . S
C357 C356 1.373 . S
C357 C373 1.377 . S
C358 C356 1.389 . S
C358 C359 1.524 . S
C358 C372 1.377 . S
C359 C358 1.524 . S
C359 C360 1.397 . S
C359 C364 1.363 . S
C360 H337 0.950 . S
C360 C359 1.397 . S
C360 C361 1.334 . S
C361 H338 0.950 . S
C361 C360 1.334 . S
C361 C362 1.287 . S
C362 C361 1.287 . S
C362 C363 1.524 . S
C362 H381 0.913 . S
C363 H339 0.950 . S
C363 C362 1.524 . S
C363 C364 1.415 . S
C364 H340 0.950 . S
C364 C359 1.363 . S
C364 C363 1.415 . S
C365 H341 0.951 . S
C365 C366 1.366 . S
C365 C367 1.388 . S
C366 C365 1.366 . S
C366 C370 1.385 . S
C367 H342 0.951 . S
C367 C365 1.388 . S
C367 C368 1.366 . S
C368 C367 1.366 . S
C368 C369 1.414 . S
C368 C371 1.499 . S
C369 H343 0.950 . S
C369 C368 1.414 . S
C369 C370 1.374 . S
C370 H344 0.950 . S
C370 C366 1.385 . S
C370 C369 1.374 . S
C371 C368 1.499 . S
C371 C372 1.373 . S
C371 C373 1.389 . S
C372 H345 0.950 . S
C372 C358 1.377 . S
C372 C371 1.373 . S
C373 C357 1.377 . S
C373 C371 1.389 . S
C373 C374 1.524 . S
C374 C373 1.524 . S
C374 C375 1.397 . S
C374 C379 1.363 . S
C375 H346 0.950 . S
C375 C374 1.397 . S
C375 C376 1.334 . S
C376 H347 0.950 . S
C376 C375 1.334 . S
C376 C377 1.287 . S
C377 C376 1.287 . S
C377 C378 1.524 . S
C377 H380 0.999 . S
C378 H348 0.950 . S
C378 C377 1.524 . S
C378 C379 1.415 . S
C379 H349 0.950 . S
C379 C374 1.363 . S
C379 C378 1.415 . S
H380 C377 0.999 . S
H381 C362 0.913 . S
H382 C400 0.951 . S
H383 C402 0.951 . S
H384 C404 0.950 . S
H385 C405 0.950 . S
H386 C407 0.950 . S
H387 C410 0.950 . S
H388 C411 0.950 . S
H389 C413 0.950 . S
H390 C414 0.950 . S
H391 C415 0.951 . S
H392 C417 0.951 . S
H393 C419 0.950 . S
H394 C420 0.950 . S
H395 C422 0.950 . S
H396 C425 0.950 . S
H397 C426 0.950 . S
H398 C428 0.950 1_655 S
H399 C429 0.950 . S
C400 H382 0.951 . S
C400 C401 1.366 . S
C400 C402 1.388 . S
C401 C400 1.366 . S
C401 C405 1.385 . S
C402 H383 0.951 . S
C402 C400 1.388 . S
C402 C403 1.366 . S
C403 C402 1.366 . S
C403 C404 1.414 . S
C403 C406 1.499 . S
C404 H384 0.950 . S
C404 C403 1.414 . S
C404 C405 1.374 . S
C405 H385 0.950 . S
C405 C401 1.385 . S
C405 C404 1.374 . S
C406 C403 1.499 . S
C406 C407 1.373 . S
C406 C408 1.389 . S
C407 H386 0.950 . S
C407 C406 1.373 . S
C407 C423 1.377 . S
C408 C406 1.389 . S
C408 C409 1.524 . S
C408 C422 1.377 . S
C409 C408 1.524 . S
C409 C410 1.397 . S
C409 C414 1.363 . S
C410 H387 0.950 . S
C410 C409 1.397 . S
C410 C411 1.334 . S
C411 H388 0.950 . S
C411 C410 1.334 . S
C411 C412 1.287 . S
C412 C411 1.287 . S
C412 C413 1.524 . S
C412 H431 0.913 . S
C413 H389 0.950 . S
C413 C412 1.524 . S
C413 C414 1.415 . S
C414 H390 0.950 . S
C414 C409 1.363 . S
C414 C413 1.415 . S
C415 H391 0.951 . S
C415 C416 1.366 . S
C415 C417 1.388 . S
C416 C415 1.366 . S
C416 C420 1.385 . S
C417 H392 0.951 . S
C417 C415 1.388 . S
C417 C418 1.366 . S
C418 C417 1.366 . S
C418 C419 1.414 . S
C418 C421 1.499 . S
C419 H393 0.950 . S
C419 C418 1.414 . S
C419 C420 1.374 . S
C420 H394 0.950 . S
C420 C416 1.385 . S
C420 C419 1.374 . S
C421 C418 1.499 . S
C421 C422 1.373 . S
C421 C423 1.389 . S
C422 H395 0.950 . S
C422 C408 1.377 . S
C422 C421 1.373 . S
C423 C407 1.377 . S
C423 C421 1.389 . S
C423 C424 1.524 . S
C424 C423 1.524 . S
C424 C425 1.397 . S
C424 C429 1.363 . S
C425 H396 0.950 . S
C425 C424 1.397 . S
C425 C426 1.334 . S
C426 H397 0.950 . S
C426 C425 1.334 . S
C426 C427 1.287 . S
C427 C426 1.287 . S
C427 C428 1.524 . S
C427 H430 0.999 . S
C428 H398 0.950 1_455 S
C428 C427 1.524 . S
C428 C429 1.415 . S
C429 H399 0.950 . S
C429 C424 1.363 . S
C429 C428 1.415 . S
H430 C427 0.999 . S
H431 C412 0.913 . S
H432 C450 0.948 1_554 S
H433 C452 0.951 1_554 S
H434 C454 0.950 . S
H435 C455 0.950 . S
H436 C457 0.950 . S
H437 C460 0.950 . S
H438 C461 0.950 . S
H439 C463 0.950 . S
H440 C464 0.950 . S
H441 C465 0.951 . S
H442 C467 0.951 . S
H443 C469 0.950 . S
H444 C470 0.950 . S
H445 C472 0.950 . S
H446 C475 0.950 . S
H447 C476 0.950 . S
H448 C478 0.950 . S
H449 C479 0.950 . S
C450 H432 0.948 1_556 S
C450 C451 1.365 1_565 S
C450 C452 1.389 . S
C451 C450 1.365 1_545 S
C451 C455 1.386 . S
C452 H433 0.951 1_556 S
C452 C450 1.389 . S
C452 C453 1.366 1_565 S
C453 C452 1.366 1_545 S
C453 C454 1.414 . S
C453 C456 1.499 . S
C454 H434 0.950 . S
C454 C453 1.414 . S
C454 C455 1.374 . S
C455 H435 0.950 . S
C455 C451 1.386 . S
C455 C454 1.374 . S
C456 C453 1.499 . S
C456 C457 1.373 . S
C456 C458 1.389 1_545 S
C457 H436 0.950 . S
C457 C456 1.373 . S
C457 C473 1.377 . S
C458 C456 1.389 1_565 S
C458 C459 1.524 1_556 S
C458 C472 1.377 . S
C459 C458 1.524 1_554 S
C459 C460 1.397 1_565 S
C459 C464 1.363 . S
C460 H437 0.950 . S
C460 C459 1.397 1_545 S
C460 C461 1.334 . S
C461 H438 0.950 . S
C461 C460 1.334 . S
C461 C462 1.287 1_545 S
C462 C461 1.287 1_565 S
C462 C463 1.524 . S
C462 H481 0.913 . S
C463 H439 0.950 . S
C463 C462 1.524 . S
C463 C464 1.415 . S
C464 H440 0.950 . S
C464 C459 1.363 . S
C464 C463 1.415 . S
C465 H441 0.951 . S
C465 C466 1.366 . S
C465 C467 1.388 . S
C466 C465 1.366 . S
C466 C470 1.385 1_545 S
C467 H442 0.951 . S
C467 C465 1.388 . S
C467 C468 1.366 . S
C468 C467 1.366 . S
C468 C469 1.414 1_545 S
C468 C471 1.499 . S
C469 H443 0.950 . S
C469 C468 1.414 1_565 S
C469 C470 1.374 . S
C470 H444 0.950 . S
C470 C466 1.385 1_565 S
C470 C469 1.374 . S
C471 C468 1.499 . S
C471 C472 1.373 1_545 S
C471 C473 1.389 . S
C472 H445 0.950 . S
C472 C458 1.377 . S
C472 C471 1.373 1_565 S
C473 C457 1.377 . S
C473 C471 1.389 . S
C473 C474 1.524 . S
C474 C473 1.524 . S
C474 C475 1.397 1_545 S
C474 C479 1.363 . S
C475 H446 0.950 . S
C475 C474 1.397 1_565 S
C475 C476 1.334 . S
C476 H447 0.950 . S
C476 C475 1.334 . S
C476 C477 1.287 1_565 S
C477 C476 1.287 1_545 S
C477 C478 1.524 . S
C477 H480 0.999 . S
C478 H448 0.950 . S
C478 C477 1.524 . S
C478 C479 1.415 . S
C479 H449 0.950 . S
C479 C474 1.363 . S
C479 C478 1.415 . S
H480 C477 0.999 . S
H481 C462 0.913 . S
H482 C500 0.951 . S
H483 C502 0.951 . S
H484 C504 0.950 . S
H485 C505 0.950 . S
H486 C507 0.950 . S
H487 C510 0.950 . S
H488 C511 0.950 . S
H489 C513 0.950 1_556 S
H490 C514 0.950 . S
H491 C515 0.951 . S
H492 C517 0.951 . S
H493 C519 0.950 . S
H494 C520 0.950 . S
H495 C522 0.950 . S
H496 C525 0.950 . S
H497 C526 0.950 . S
H498 C528 0.950 . S
H499 C529 0.950 . S
C500 H482 0.951 . S
C500 C501 1.366 . S
C500 C502 1.388 . S
C501 C500 1.366 . S
C501 C505 1.385 . S
C502 H483 0.951 . S
C502 C500 1.388 . S
C502 C503 1.366 . S
C503 C502 1.366 . S
C503 C504 1.414 . S
C503 C506 1.499 . S
C504 H484 0.950 . S
C504 C503 1.414 . S
C504 C505 1.374 . S
C505 H485 0.950 . S
C505 C501 1.385 . S
C505 C504 1.374 . S
C506 C503 1.499 . S
C506 C507 1.373 . S
C506 C508 1.389 . S
C507 H486 0.950 . S
C507 C506 1.373 . S
C507 C523 1.377 . S
C508 C506 1.389 . S
C508 C509 1.524 . S
C508 C522 1.377 . S
C509 C508 1.524 . S
C509 C510 1.397 . S
C509 C514 1.363 . S
C510 H487 0.950 . S
C510 C509 1.397 . S
C510 C511 1.334 . S
C511 H488 0.950 . S
C511 C510 1.334 . S
C511 C512 1.287 . S
C512 C511 1.287 . S
C512 C513 1.524 . S
C512 H531 0.913 . S
C513 H489 0.950 1_554 S
C513 C512 1.524 . S
C513 C514 1.415 . S
C514 H490 0.950 . S
C514 C509 1.363 . S
C514 C513 1.415 . S
C515 H491 0.951 . S
C515 C516 1.366 . S
C515 C517 1.388 1_556 S
C516 C515 1.366 . S
C516 C520 1.385 . S
C517 H492 0.951 . S
C517 C515 1.388 1_554 S
C517 C518 1.366 . S
C518 C517 1.366 . S
C518 C519 1.414 1_554 S
C518 C521 1.499 . S
C519 H493 0.950 . S
C519 C518 1.414 1_556 S
C519 C520 1.374 . S
C520 H494 0.950 . S
C520 C516 1.385 . S
C520 C519 1.374 . S
C521 C518 1.499 . S
C521 C522 1.373 . S
C521 C523 1.389 . S
C522 H495 0.950 . S
C522 C508 1.377 . S
C522 C521 1.373 . S
C523 C507 1.377 . S
C523 C521 1.389 . S
C523 C524 1.524 . S
C524 C523 1.524 . S
C524 C525 1.397 . S
C524 C529 1.363 . S
C525 H496 0.950 . S
C525 C524 1.397 . S
C525 C526 1.334 . S
C526 H497 0.950 . S
C526 C525 1.334 . S
C526 C527 1.287 . S
C527 C526 1.287 . S
C527 C528 1.524 . S
C527 H530 0.999 . S
C528 H498 0.950 . S
C528 C527 1.524 . S
C528 C529 1.415 . S
C529 H499 0.950 . S
C529 C524 1.363 . S
C529 C528 1.415 . S
H530 C527 0.999 . S
H531 C512 0.913 . S
H532 C550 0.951 . S
H533 C552 0.951 . S
H534 C554 0.950 . S
H535 C555 0.950 . S
H536 C557 0.950 . S
H537 C560 0.950 . S
H538 C561 0.950 . S
H539 C563 0.950 1_554 S
H540 C564 0.950 1_554 S
H541 C565 0.951 . S
H542 C567 0.951 . S
H543 C569 0.950 . S
H544 C570 0.950 . S
H545 C572 0.950 . S
H546 C575 0.950 1_554 S
H547 C576 0.950 1_554 S
H548 C578 0.950 . S
H549 C579 0.950 . S
C550 H532 0.951 . S
C550 C551 1.366 . S
C550 C552 1.388 . S
C551 C550 1.366 . S
C551 C555 1.385 1_554 S
C552 H533 0.951 . S
C552 C550 1.388 . S
C552 C553 1.366 1_554 S
C553 C552 1.366 1_556 S
C553 C554 1.414 . S
C553 C556 1.499 . S
C554 H534 0.950 . S
C554 C553 1.414 . S
C554 C555 1.374 . S
C555 H535 0.950 . S
C555 C551 1.385 1_556 S
C555 C554 1.374 . S
C556 C553 1.499 . S
C556 C557 1.373 . S
C556 C558 1.389 . S
C557 H536 0.950 . S
C557 C556 1.373 . S
C557 C573 1.377 . S
C558 C556 1.389 . S
C558 C559 1.524 . S
C558 C572 1.377 . S
C559 C558 1.524 . S
C559 C560 1.397 . S
C559 C564 1.363 . S
C560 H537 0.950 . S
C560 C559 1.397 . S
C560 C561 1.334 . S
C561 H538 0.950 . S
C561 C560 1.334 . S
C561 C562 1.287 . S
C562 C561 1.287 . S
C562 C563 1.524 . S
C562 H581 0.913 . S
C563 H539 0.950 1_556 S
C563 C562 1.524 . S
C563 C564 1.415 . S
C564 H540 0.950 1_556 S
C564 C559 1.363 . S
C564 C563 1.415 . S
C565 H541 0.951 . S
C565 C566 1.366 . S
C565 C567 1.388 . S
C566 C565 1.366 . S
C566 C570 1.385 . S
C567 H542 0.951 . S
C567 C565 1.388 . S
C567 C568 1.366 . S
C568 C567 1.366 . S
C568 C569 1.414 . S
C568 C571 1.499 . S
C569 H543 0.950 . S
C569 C568 1.414 . S
C569 C570 1.374 . S
C570 H544 0.950 . S
C570 C566 1.385 . S
C570 C569 1.374 . S
C571 C568 1.499 . S
C571 C572 1.373 . S
C571 C573 1.389 . S
C572 H545 0.950 . S
C572 C558 1.377 . S
C572 C571 1.373 . S
C573 C557 1.377 . S
C573 C571 1.389 . S
C573 C574 1.524 . S
C574 C573 1.524 . S
C574 C575 1.397 . S
C574 C579 1.363 . S
C575 H546 0.950 1_556 S
C575 C574 1.397 . S
C575 C576 1.334 . S
C576 H547 0.950 1_556 S
C576 C575 1.334 . S
C576 C577 1.287 . S
C577 C576 1.287 . S
C577 C578 1.524 . S
C577 H580 0.999 . S
C578 H548 0.950 . S
C578 C577 1.524 . S
C578 C579 1.415 . S
C579 H549 0.950 . S
C579 C574 1.363 . S
C579 C578 1.415 . S
H580 C577 0.999 . S
H581 C562 0.913 . S
H582 C600 0.951 . S
H583 C602 0.951 . S
H584 C604 0.950 . S
H585 C605 0.950 . S
H586 C607 0.950 . S
H587 C610 0.950 . S
H588 C611 0.950 . S
H589 C613 0.950 . S
H590 C614 0.950 . S
H591 C615 0.951 . S
H592 C617 0.951 . S
H593 C619 0.950 . S
H594 C620 0.950 . S
H595 C622 0.950 1_554 S
H596 C625 0.950 . S
H597 C626 0.950 . S
H598 C628 0.950 . S
H599 C629 0.950 . S
C600 H582 0.951 . S
C600 C601 1.366 . S
C600 C602 1.388 . S
C601 C600 1.366 . S
C601 C605 1.385 1_554 S
C602 H583 0.951 . S
C602 C600 1.388 . S
C602 C603 1.366 1_554 S
C603 C602 1.366 1_556 S
C603 C604 1.414 . S
C603 C606 1.499 . S
C604 H584 0.950 . S
C604 C603 1.414 . S
C604 C605 1.374 . S
C605 H585 0.950 . S
C605 C601 1.385 1_556 S
C605 C604 1.374 . S
C606 C603 1.499 . S
C606 C607 1.373 . S
C606 C608 1.389 1_556 S
C607 H586 0.950 . S
C607 C606 1.373 . S
C607 C623 1.377 . S
C608 C606 1.389 1_554 S
C608 C609 1.524 . S
C608 C622 1.377 1_554 S
C609 C608 1.524 . S
C609 C610 1.397 . S
C609 C614 1.363 . S
C610 H587 0.950 . S
C610 C609 1.397 . S
C610 C611 1.334 . S
C611 H588 0.950 . S
C611 C610 1.334 . S
C611 C612 1.287 . S
C612 C611 1.287 . S
C612 C613 1.524 . S
C612 H631 0.913 . S
C613 H589 0.950 . S
C613 C612 1.524 . S
C613 C614 1.415 . S
C614 H590 0.950 . S
C614 C609 1.363 . S
C614 C613 1.415 . S
C615 H591 0.951 . S
C615 C616 1.366 . S
C615 C617 1.388 . S
C616 C615 1.366 . S
C616 C620 1.385 . S
C617 H592 0.951 . S
C617 C615 1.388 . S
C617 C618 1.366 . S
C618 C617 1.366 . S
C618 C619 1.414 . S
C618 C621 1.499 . S
C619 H593 0.950 . S
C619 C618 1.414 . S
C619 C620 1.374 . S
C620 H594 0.950 . S
C620 C616 1.385 . S
C620 C619 1.374 . S
C621 C618 1.499 . S
C621 C622 1.373 . S
C621 C623 1.389 . S
C622 H595 0.950 1_556 S
C622 C608 1.377 1_556 S
C622 C621 1.373 . S
C623 C607 1.377 . S
C623 C621 1.389 . S
C623 C624 1.524 . S
C624 C623 1.524 . S
C624 C625 1.397 . S
C624 C629 1.363 . S
C625 H596 0.950 . S
C625 C624 1.397 . S
C625 C626 1.334 . S
C626 H597 0.950 . S
C626 C625 1.334 . S
C626 C627 1.287 . S
C627 C626 1.287 . S
C627 C628 1.524 . S
C627 H630 0.999 . S
C628 H598 0.950 . S
C628 C627 1.524 . S
C628 C629 1.415 . S
C629 H599 0.950 . S
C629 C624 1.363 . S
C629 C628 1.415 . S
H630 C627 0.999 . S
H631 C612 0.913 . S
H632 C650 0.951 . S
H633 C652 0.951 . S
H634 C654 0.950 . S
H635 C655 0.950 . S
H636 C657 0.950 . S
H637 C660 0.950 . S
H638 C661 0.950 . S
H639 C663 0.950 . S
H640 C664 0.950 . S
H641 C665 0.951 . S
H642 C667 0.951 . S
H643 C669 0.950 . S
H644 C670 0.950 . S
H645 C672 0.950 . S
H646 C675 0.950 . S
H647 C676 0.950 . S
H648 C678 0.950 . S
H649 C679 0.950 . S
C650 H632 0.951 . S
C650 C651 1.366 . S
C650 C652 1.388 . S
C651 C650 1.366 . S
C651 C655 1.385 . S
C652 H633 0.951 . S
C652 C650 1.388 . S
C652 C653 1.366 . S
C653 C652 1.366 . S
C653 C654 1.414 . S
C653 C656 1.499 . S
C654 H634 0.950 . S
C654 C653 1.414 . S
C654 C655 1.374 . S
C655 H635 0.950 . S
C655 C651 1.385 . S
C655 C654 1.374 . S
C656 C653 1.499 . S
C656 C657 1.373 . S
C656 C658 1.389 . S
C657 H636 0.950 . S
C657 C656 1.373 . S
C657 C673 1.377 . S
C658 C656 1.389 . S
C658 C659 1.524 . S
C658 C672 1.377 . S
C659 C658 1.524 . S
C659 C660 1.397 . S
C659 C664 1.363 . S
C660 H637 0.950 . S
C660 C659 1.397 . S
C660 C661 1.334 . S
C661 H638 0.950 . S
C661 C660 1.334 . S
C661 C662 1.287 . S
C662 C661 1.287 . S
C662 C663 1.524 . S
C662 H681 0.913 . S
C663 H639 0.950 . S
C663 C662 1.524 . S
C663 C664 1.415 . S
C664 H640 0.950 . S
C664 C659 1.363 . S
C664 C663 1.415 . S
C665 H641 0.951 . S
C665 C666 1.366 . S
C665 C667 1.388 . S
C666 C665 1.366 . S
C666 C670 1.385 . S
C667 H642 0.951 . S
C667 C665 1.388 . S
C667 C668 1.366 . S
C668 C667 1.366 . S
C668 C669 1.414 . S
C668 C671 1.499 . S
C669 H643 0.950 . S
C669 C668 1.414 . S
C669 C670 1.374 . S
C670 H644 0.950 . S
C670 C666 1.385 . S
C670 C669 1.374 . S
C671 C668 1.499 . S
C671 C672 1.373 . S
C671 C673 1.389 . S
C672 H645 0.950 . S
C672 C658 1.377 . S
C672 C671 1.373 . S
C673 C657 1.377 . S
C673 C671 1.389 . S
C673 C674 1.524 . S
C674 C673 1.524 . S
C674 C675 1.397 . S
C674 C679 1.363 . S
C675 H646 0.950 . S
C675 C674 1.397 . S
C675 C676 1.334 . S
C676 H647 0.950 . S
C676 C675 1.334 . S
C676 C677 1.287 . S
C677 C676 1.287 . S
C677 C678 1.524 . S
C677 H680 0.999 . S
C678 H648 0.950 . S
C678 C677 1.524 . S
C678 C679 1.415 . S
C679 H649 0.950 . S
C679 C674 1.363 . S
C679 C678 1.415 . S
H680 C677 0.999 . S
H681 C662 0.913 . S
H682 C700 0.951 . S
H683 C702 0.951 . S
H684 C704 0.950 . S
H685 C705 0.950 . S
H686 C707 0.950 . S
H687 C710 0.950 . S
H688 C711 0.950 . S
H689 C713 0.950 1_554 S
H690 C714 0.913 1_565 S
H691 C715 0.951 1_545 S
H692 C717 0.951 1_545 S
H693 C719 0.950 . S
H694 C720 0.950 . S
H695 C722 0.950 . S
H696 C725 0.950 . S
H697 C726 0.950 . S
H698 C728 0.950 . S
H699 C729 0.950 . S
C700 H682 0.951 . S
C700 C701 1.349 1_565 S
C700 C702 1.388 . S
C701 C700 1.349 1_545 S
C701 C705 1.393 . S
C702 H683 0.951 . S
C702 C700 1.388 . S
C702 C703 1.366 . S
C703 C702 1.366 . S
C703 C704 1.414 1_565 S
C703 C706 1.499 . S
C704 H684 0.950 . S
C704 C703 1.414 1_545 S
C704 C705 1.374 . S
C705 H685 0.950 . S
C705 C701 1.393 . S
C705 C704 1.374 . S
C706 C703 1.499 . S
C706 C707 1.373 . S
C706 C708 1.392 . S
C707 H686 0.950 . S
C707 C706 1.373 . S
C707 C723 1.377 . S
C708 C706 1.392 . S
C708 C709 1.516 1_565 S
C708 C722 1.381 . S
C709 C708 1.516 1_545 S
C709 C710 1.397 . S
C709 C714 1.374 . S
C710 H687 0.950 . S
C710 C709 1.397 . S
C710 C711 1.334 . S
C711 H688 0.950 . S
C711 C710 1.334 . S
C711 C712 1.287 . S
C712 C711 1.287 . S
C712 C713 1.524 . S
C712 H731 0.913 . S
C713 H689 0.950 1_556 S
C713 C712 1.524 . S
C713 C714 1.441 . S
C714 H690 0.913 1_545 S
C714 C709 1.374 . S
C714 C713 1.441 . S
C715 H691 0.951 1_565 S
C715 C716 1.366 . S
C715 C717 1.388 . S
C716 C715 1.366 . S
C716 C720 1.385 . S
C717 H692 0.951 1_565 S
C717 C715 1.388 . S
C717 C718 1.366 . S
C718 C717 1.366 . S
C718 C719 1.414 . S
C718 C721 1.499 . S
C719 H693 0.950 . S
C719 C718 1.414 . S
C719 C720 1.374 . S
C720 H694 0.950 . S
C720 C716 1.385 . S
C720 C719 1.374 . S
C721 C718 1.499 . S
C721 C722 1.373 . S
C721 C723 1.389 . S
C722 H695 0.950 . S
C722 C708 1.381 . S
C722 C721 1.373 . S
C723 C707 1.377 . S
C723 C721 1.389 . S
C723 C724 1.524 . S
C724 C723 1.524 . S
C724 C725 1.397 . S
C724 C729 1.363 . S
C725 H696 0.950 . S
C725 C724 1.397 . S
C725 C726 1.334 . S
C726 H697 0.950 . S
C726 C725 1.334 . S
C726 C727 1.287 . S
C727 C726 1.287 . S
C727 C728 1.524 . S
C727 H730 0.999 . S
C728 H698 0.950 . S
C728 C727 1.524 . S
C728 C729 1.415 . S
C729 H699 0.950 . S
C729 C724 1.363 . S
C729 C728 1.415 . S
H730 C727 0.999 . S
H731 C712 0.913 . S
H732 C750 0.951 . S
H733 C752 0.951 . S
H734 C754 0.950 . S
H735 C755 0.950 . S
H736 C757 0.950 . S
H737 C760 0.950 . S
H738 C761 0.950 . S
H739 C763 0.950 . S
H740 C764 0.950 . S
H741 C765 0.951 . S
H742 C767 0.951 . S
H743 C769 0.950 . S
H744 C770 0.950 . S
H745 C772 0.950 . S
H746 C775 0.950 . S
H747 C776 0.950 . S
H748 C778 0.950 . S
H749 C779 0.950 . S
C750 H732 0.951 . S
C750 C751 1.366 . S
C750 C752 1.388 . S
C751 C750 1.366 . S
C751 C755 1.385 . S
C752 H733 0.951 . S
C752 C750 1.388 . S
C752 C753 1.366 . S
C753 C752 1.366 . S
C753 C754 1.414 . S
C753 C756 1.499 . S
C754 H734 0.950 . S
C754 C753 1.414 . S
C754 C755 1.374 . S
C755 H735 0.950 . S
C755 C751 1.385 . S
C755 C754 1.374 . S
C756 C753 1.499 . S
C756 C757 1.373 . S
C756 C758 1.389 . S
C757 H736 0.950 . S
C757 C756 1.373 . S
C757 C773 1.377 . S
C758 C756 1.389 . S
C758 C759 1.524 . S
C758 C772 1.377 . S
C759 C758 1.524 . S
C759 C760 1.397 . S
C759 C764 1.363 . S
C760 H737 0.950 . S
C760 C759 1.397 . S
C760 C761 1.334 . S
C761 H738 0.950 . S
C761 C760 1.334 . S
C761 C762 1.287 . S
C762 C761 1.287 . S
C762 C763 1.524 . S
C762 H781 0.913 . S
C763 H739 0.950 . S
C763 C762 1.524 . S
C763 C764 1.415 . S
C764 H740 0.950 . S
C764 C759 1.363 . S
C764 C763 1.415 . S
C765 H741 0.951 . S
C765 C766 1.366 . S
C765 C767 1.388 . S
C766 C765 1.366 . S
C766 C770 1.385 . S
C767 H742 0.951 . S
C767 C765 1.388 . S
C767 C768 1.366 . S
C768 C767 1.366 . S
C768 C769 1.414 . S
C768 C771 1.499 . S
C769 H743 0.950 . S
C769 C768 1.414 . S
C769 C770 1.374 . S
C770 H744 0.950 . S
C770 C766 1.385 . S
C770 C769 1.374 . S
C771 C768 1.499 . S
C771 C772 1.373 . S
C771 C773 1.389 . S
C772 H745 0.950 . S
C772 C758 1.377 . S
C772 C771 1.373 . S
C773 C757 1.377 . S
C773 C771 1.389 . S
C773 C774 1.524 . S
C774 C773 1.524 . S
C774 C775 1.397 . S
C774 C779 1.363 . S
C775 H746 0.950 . S
C775 C774 1.397 . S
C775 C776 1.334 . S
C776 H747 0.950 . S
C776 C775 1.334 . S
C776 C777 1.287 . S
C777 C776 1.287 . S
C777 C778 1.524 . S
C777 H780 0.999 . S
C778 H748 0.950 . S
C778 C777 1.524 . S
C778 C779 1.415 . S
C779 H749 0.950 . S
C779 C774 1.363 . S
C779 C778 1.415 . S
H780 C777 0.999 . S
H781 C762 0.913 . S
H782 C800 0.951 . S
H783 C802 0.951 . S
H784 C804 0.950 . S
H785 C805 0.950 . S
H786 C807 0.950 . S
H787 C810 0.950 . S
H788 C811 0.950 . S
H789 C813 0.950 . S
H790 C814 0.950 . S
H791 C815 0.951 . S
H792 C817 0.951 . S
H793 C819 0.950 . S
H794 C820 0.950 . S
H795 C822 0.950 . S
H796 C825 0.950 . S
H797 C826 0.950 . S
H798 C828 0.950 . S
H799 C829 0.950 . S
C800 H782 0.951 . S
C800 C801 1.366 . S
C800 C802 1.388 . S
C801 C800 1.366 . S
C801 C805 1.385 . S
C802 H783 0.951 . S
C802 C800 1.388 . S
C802 C803 1.366 . S
C803 C802 1.366 . S
C803 C804 1.414 . S
C803 C806 1.499 . S
C804 H784 0.950 . S
C804 C803 1.414 . S
C804 C805 1.374 . S
C805 H785 0.950 . S
C805 C801 1.385 . S
C805 C804 1.374 . S
C806 C803 1.499 . S
C806 C807 1.373 . S
C806 C808 1.389 . S
C807 H786 0.950 . S
C807 C806 1.373 . S
C807 C823 1.377 . S
C808 C806 1.389 . S
C808 C809 1.524 . S
C808 C822 1.377 . S
C809 C808 1.524 . S
C809 C810 1.397 . S
C809 C814 1.363 . S
C810 H787 0.950 . S
C810 C809 1.397 . S
C810 C811 1.334 . S
C811 H788 0.950 . S
C811 C810 1.334 . S
C811 C812 1.287 . S
C812 C811 1.287 . S
C812 C813 1.524 . S
C812 H831 0.913 . S
C813 H789 0.950 . S
C813 C812 1.524 . S
C813 C814 1.415 . S
C814 H790 0.950 . S
C814 C809 1.363 . S
C814 C813 1.415 . S
C815 H791 0.951 . S
C815 C816 1.366 . S
C815 C817 1.388 . S
C816 C815 1.366 . S
C816 C820 1.385 . S
C817 H792 0.951 . S
C817 C815 1.388 . S
C817 C818 1.366 . S
C818 C817 1.366 . S
C818 C819 1.414 . S
C818 C821 1.499 . S
C819 H793 0.950 . S
C819 C818 1.414 . S
C819 C820 1.374 . S
C820 H794 0.950 . S
C820 C816 1.385 . S
C820 C819 1.374 . S
C821 C818 1.499 . S
C821 C822 1.373 . S
C821 C823 1.389 . S
C822 H795 0.950 . S
C822 C808 1.377 . S
C822 C821 1.373 . S
C823 C807 1.377 . S
C823 C821 1.389 . S
C823 C824 1.524 . S
C824 C823 1.524 . S
C824 C825 1.397 . S
C824 C829 1.363 . S
C825 H796 0.950 . S
C825 C824 1.397 . S
C825 C826 1.334 . S
C826 H797 0.950 . S
C826 C825 1.334 . S
C826 C827 1.287 . S
C827 C826 1.287 . S
C827 C828 1.524 . S
C827 H830 0.999 . S
C828 H798 0.950 . S
C828 C827 1.524 . S
C828 C829 1.415 . S
C829 H799 0.950 . S
C829 C824 1.363 . S
C829 C828 1.415 . S
H830 C827 0.999 . S
H831 C812 0.913 . S
H832 C850 0.951 . S
H833 C852 0.951 . S
H834 C854 0.950 . S
H835 C855 0.950 . S
H836 C857 0.950 . S
H837 C860 0.950 . S
H838 C861 0.950 . S
H839 C863 0.950 . S
H840 C864 0.950 . S
H841 C865 0.951 . S
H842 C867 0.951 . S
H843 C869 0.950 . S
H844 C870 0.950 . S
H845 C872 0.950 1_554 S
H846 C875 0.950 . S
H847 C876 0.950 1_455 S
H848 C878 0.950 . S
H849 C879 0.950 . S
C850 H832 0.951 . S
C850 C851 1.366 . S
C850 C852 1.388 . S
C851 C850 1.366 . S
C851 C855 1.385 1_554 S
C852 H833 0.951 . S
C852 C850 1.388 . S
C852 C853 1.366 1_554 S
C853 C852 1.366 1_556 S
C853 C854 1.414 . S
C853 C856 1.499 . S
C854 H834 0.950 . S
C854 C853 1.414 . S
C854 C855 1.374 . S
C855 H835 0.950 . S
C855 C851 1.385 1_556 S
C855 C854 1.374 . S
C856 C853 1.499 . S
C856 C857 1.373 . S
C856 C858 1.389 . S
C857 H836 0.950 . S
C857 C856 1.373 . S
C857 C873 1.377 . S
C858 C856 1.389 . S
C858 C859 1.524 1_556 S
C858 C872 1.377 . S
C859 C858 1.524 1_554 S
C859 C860 1.397 . S
C859 C864 1.363 . S
C860 H837 0.950 . S
C860 C859 1.397 . S
C860 C861 1.334 . S
C861 H838 0.950 . S
C861 C860 1.334 . S
C861 C862 1.287 . S
C862 C861 1.287 . S
C862 C863 1.524 . S
C862 H881 0.913 . S
C863 H839 0.950 . S
C863 C862 1.524 . S
C863 C864 1.415 . S
C864 H840 0.950 . S
C864 C859 1.363 . S
C864 C863 1.415 . S
C865 H841 0.951 . S
C865 C866 1.366 . S
C865 C867 1.388 . S
C866 C865 1.366 . S
C866 C870 1.385 1_655 S
C867 H842 0.951 . S
C867 C865 1.388 . S
C867 C868 1.366 . S
C868 C867 1.366 . S
C868 C869 1.414 . S
C868 C871 1.499 . S
C869 H843 0.950 . S
C869 C868 1.414 . S
C869 C870 1.374 1_655 S
C870 H844 0.950 . S
C870 C866 1.385 1_455 S
C870 C869 1.374 1_455 S
C871 C868 1.499 . S
C871 C872 1.373 . S
C871 C873 1.389 . S
C872 H845 0.950 1_556 S
C872 C858 1.377 . S
C872 C871 1.373 . S
C873 C857 1.377 . S
C873 C871 1.389 . S
C873 C874 1.524 . S
C874 C873 1.524 . S
C874 C875 1.397 . S
C874 C879 1.363 . S
C875 H846 0.950 . S
C875 C874 1.397 . S
C875 C876 1.334 . S
C876 H847 0.950 1_655 S
C876 C875 1.334 . S
C876 C877 1.287 . S
C877 C876 1.287 . S
C877 C878 1.524 . S
C877 H880 0.999 . S
C878 H848 0.950 . S
C878 C877 1.524 . S
C878 C879 1.415 . S
C879 H849 0.950 . S
C879 C874 1.363 . S
C879 C878 1.415 . S
H880 C877 0.999 . S
H881 C862 0.913 . S
H882 C900 0.951 1_554 S
H883 C902 0.951 . S
H884 C904 0.950 . S
H885 C905 0.950 . S
H886 C907 0.950 . S
H887 C910 0.950 . S
H888 C911 0.950 . S
H889 C913 0.950 . S
H890 C914 0.950 . S
H891 C915 0.951 . S
H892 C917 0.951 . S
H893 C919 0.950 1_565 S
H894 C920 0.950 1_565 S
H895 C922 0.950 . S
H896 C925 0.950 . S
H897 C926 0.950 . S
H898 C928 0.950 . S
H899 C929 0.950 . S
C900 H882 0.951 1_556 S
C900 C901 1.373 . S
C900 C902 1.388 . S
C901 C900 1.373 . S
C901 C905 1.370 1_565 S
C902 H883 0.951 . S
C902 C900 1.388 . S
C902 C903 1.366 1_565 S
C903 C902 1.366 1_545 S
C903 C904 1.414 . S
C903 C906 1.499 . S
C904 H884 0.950 . S
C904 C903 1.414 . S
C904 C905 1.374 . S
C905 H885 0.950 . S
C905 C901 1.370 1_545 S
C905 C904 1.374 . S
C906 C903 1.499 . S
C906 C907 1.373 . S
C906 C908 1.389 1_545 S
C907 H886 0.950 . S
C907 C906 1.373 . S
C907 C923 1.377 . S
C908 C906 1.389 1_565 S
C908 C909 1.524 . S
C908 C922 1.377 . S
C909 C908 1.524 . S
C909 C910 1.397 . S
C909 C914 1.363 . S
C910 H887 0.950 . S
C910 C909 1.397 . S
C910 C911 1.334 . S
C911 H888 0.950 . S
C911 C910 1.334 . S
C911 C912 1.287 . S
C912 C911 1.287 . S
C912 C913 1.524 . S
C912 H931 0.913 . S
C913 H889 0.950 . S
C913 C912 1.524 . S
C913 C914 1.415 . S
C914 H890 0.950 . S
C914 C909 1.363 . S
C914 C913 1.415 . S
C915 H891 0.951 . S
C915 C916 1.366 . S
C915 C917 1.388 . S
C916 C915 1.366 . S
C916 C920 1.385 . S
C917 H892 0.951 . S
C917 C915 1.388 . S
C917 C918 1.366 . S
C918 C917 1.366 . S
C918 C919 1.414 . S
C918 C921 1.499 . S
C919 H893 0.950 1_545 S
C919 C918 1.414 . S
C919 C920 1.374 . S
C920 H894 0.950 1_545 S
C920 C916 1.385 . S
C920 C919 1.374 . S
C921 C918 1.499 . S
C921 C922 1.373 1_545 S
C921 C923 1.389 . S
C922 H895 0.950 . S
C922 C908 1.377 . S
C922 C921 1.373 1_565 S
C923 C907 1.377 . S
C923 C921 1.389 . S
C923 C924 1.524 . S
C924 C923 1.524 . S
C924 C925 1.397 . S
C924 C929 1.363 . S
C925 H896 0.950 . S
C925 C924 1.397 . S
C925 C926 1.334 . S
C926 H897 0.950 . S
C926 C925 1.334 . S
C926 C927 1.287 . S
C927 C926 1.287 . S
C927 C928 1.524 . S
C927 H930 0.999 . S
C928 H898 0.950 . S
C928 C927 1.524 . S
C928 C929 1.415 . S
C929 H899 0.950 . S
C929 C924 1.363 . S
C929 C928 1.415 . S
H930 C927 0.999 . S
H931 C912 0.913 . S
H932 C950 0.951 . S
H933 C952 0.951 . S
H934 C954 0.950 . S
H935 C955 0.950 . S
H936 C957 0.950 . S
H937 C960 0.950 . S
H938 C961 0.950 . S
H939 C963 0.950 . S
H940 C964 0.950 . S
H941 C965 0.951 . S
H942 C967 0.951 1_556 S
H943 C969 0.950 . S
H944 C970 0.950 . S
H945 C972 0.950 . S
H946 C975 0.950 . S
H947 C976 0.950 . S
H948 C978 0.950 . S
H949 C979 0.950 . S
C950 H932 0.951 . S
C950 C951 1.366 . S
C950 C952 1.388 . S
C951 C950 1.366 . S
C951 C955 1.385 . S
C952 H933 0.951 . S
C952 C950 1.388 . S
C952 C953 1.366 . S
C953 C952 1.366 . S
C953 C954 1.414 . S
C953 C956 1.499 . S
C954 H934 0.950 . S
C954 C953 1.414 . S
C954 C955 1.374 . S
C955 H935 0.950 . S
C955 C951 1.385 . S
C955 C954 1.374 . S
C956 C953 1.499 . S
C956 C957 1.373 . S
C956 C958 1.389 . S
C957 H936 0.950 . S
C957 C956 1.373 . S
C957 C973 1.377 . S
C958 C956 1.389 . S
C958 C959 1.524 . S
C958 C972 1.377 . S
C959 C958 1.524 . S
C959 C960 1.397 . S
C959 C964 1.363 . S
C960 H937 0.950 . S
C960 C959 1.397 . S
C960 C961 1.334 . S
C961 H938 0.950 . S
C961 C960 1.334 . S
C961 C962 1.287 . S
C962 C961 1.287 . S
C962 C963 1.524 . S
C962 H981 0.913 . S
C963 H939 0.950 . S
C963 C962 1.524 . S
C963 C964 1.415 . S
C964 H940 0.950 . S
C964 C959 1.363 . S
C964 C963 1.415 . S
C965 H941 0.951 . S
C965 C966 1.366 . S
C965 C967 1.388 1_556 S
C966 C965 1.366 . S
C966 C970 1.385 1_556 S
C967 H942 0.951 1_554 S
C967 C965 1.388 1_554 S
C967 C968 1.366 . S
C968 C967 1.366 . S
C968 C969 1.414 . S
C968 C971 1.499 . S
C969 H943 0.950 . S
C969 C968 1.414 . S
C969 C970 1.374 . S
C970 H944 0.950 . S
C970 C966 1.385 1_554 S
C970 C969 1.374 . S
C971 C968 1.499 . S
C971 C972 1.373 . S
C971 C973 1.389 . S
C972 H945 0.950 . S
C972 C958 1.377 . S
C972 C971 1.373 . S
C973 C957 1.377 . S
C973 C971 1.389 . S
C973 C974 1.524 . S
C974 C973 1.524 . S
C974 C975 1.397 . S
C974 C979 1.363 . S
C975 H946 0.950 . S
C975 C974 1.397 . S
C975 C976 1.334 . S
C976 H947 0.950 . S
C976 C975 1.334 . S
C976 C977 1.287 . S
C977 C976 1.287 . S
C977 C978 1.524 1_554 S
C977 H980 0.999 1_554 S
C978 H948 0.950 . S
C978 C977 1.524 1_556 S
C978 C979 1.415 1_556 S
C979 H949 0.950 . S
C979 C974 1.363 . S
C979 C978 1.415 1_554 S
H980 C977 0.999 1_556 S
H981 C962 0.913 . S
H982 C1000 0.951 . S
H983 C1002 0.951 . S
H984 C1004 0.950 . S
H985 C1005 0.950 . S
H986 C1007 0.950 . S
H987 C1010 0.950 . S
H988 C1011 0.950 . S
H989 C1013 0.950 . S
H990 C1014 0.950 . S
H991 C1015 0.951 . S
H992 C1017 0.951 . S
H993 C1019 0.950 . S
H994 C1020 0.950 . S
H995 C1022 0.950 . S
H996 C1025 0.950 . S
H997 C1026 0.950 . S
H998 C1028 0.950 . S
H999 C1029 0.950 . S
C1000 H982 0.951 . S
C1000 C1001 1.366 1_554 S
C1000 C1002 1.388 . S
C1001 C1000 1.366 1_556 S
C1001 C1005 1.385 . S
C1002 H983 0.951 . S
C1002 C1000 1.388 . S
C1002 C1003 1.366 1_554 S
C1003 C1002 1.366 1_556 S
C1003 C1004 1.414 . S
C1003 C1006 1.499 . S
C1004 H984 0.950 . S
C1004 C1003 1.414 . S
C1004 C1005 1.374 . S
C1005 H985 0.950 . S
C1005 C1001 1.385 . S
C1005 C1004 1.374 . S
C1006 C1003 1.499 . S
C1006 C1007 1.373 . S
C1006 C1008 1.389 . S
C1007 H986 0.950 . S
C1007 C1006 1.373 . S
C1007 C1023 1.377 . S
C1008 C1006 1.389 . S
C1008 C1009 1.524 1_556 S
C1008 C1022 1.377 . S
C1009 C1008 1.524 1_554 S
C1009 C1010 1.397 1_554 S
C1009 C1014 1.363 . S
C1010 H987 0.950 . S
C1010 C1009 1.397 1_556 S
C1010 C1011 1.334 1_556 S
C1011 H988 0.950 . S
C1011 C1010 1.334 1_554 S
C1011 C1012 1.287 . S
C1012 C1011 1.287 . S
C1012 C1013 1.524 . S
C1012 H1031 0.913 . S
C1013 H989 0.950 . S
C1013 C1012 1.524 . S
C1013 C1014 1.415 . S
C1014 H990 0.950 . S
C1014 C1009 1.363 . S
C1014 C1013 1.415 . S
C1015 H991 0.951 . S
C1015 C1016 1.366 . S
C1015 C1017 1.388 . S
C1016 C1015 1.366 . S
C1016 C1020 1.385 . S
C1017 H992 0.951 . S
C1017 C1015 1.388 . S
C1017 C1018 1.366 . S
C1018 C1017 1.366 . S
C1018 C1019 1.414 . S
C1018 C1021 1.499 . S
C1019 H993 0.950 . S
C1019 C1018 1.414 . S
C1019 C1020 1.374 . S
C1020 H994 0.950 . S
C1020 C1016 1.385 . S
C1020 C1019 1.374 . S
C1021 C1018 1.499 . S
C1021 C1022 1.373 . S
C1021 C1023 1.389 . S
C1022 H995 0.950 . S
C1022 C1008 1.377 . S
C1022 C1021 1.373 . S
C1023 C1007 1.377 . S
C1023 C1021 1.389 . S
C1023 C1024 1.524 . S
C1024 C1023 1.524 . S
C1024 C1025 1.397 . S
C1024 C1029 1.363 . S
C1025 H996 0.950 . S
C1025 C1024 1.397 . S
C1025 C1026 1.334 . S
C1026 H997 0.950 . S
C1026 C1025 1.334 . S
C1026 C1027 1.287 . S
C1027 C1026 1.287 . S
C1027 C1028 1.524 . S
C1027 H1030 0.999 . S
C1028 H998 0.950 . S
C1028 C1027 1.524 . S
C1028 C1029 1.415 . S
C1029 H999 0.950 . S
C1029 C1024 1.363 . S
C1029 C1028 1.415 . S
H1030 C1027 0.999 . S
H1031 C1012 0.913 . S
H1032 C1050 0.951 . S
H1033 C1052 0.951 . S
H1034 C1054 0.950 . S
H1035 C1055 0.950 . S
H1036 C1057 0.950 . S
H1037 C1060 0.950 . S
H1038 C1061 0.950 . S
H1039 C1063 0.950 . S
H1040 C1064 0.950 . S
H1041 C1065 0.951 . S
H1042 C1067 0.951 . S
H1043 C1069 0.950 . S
H1044 C1070 0.950 . S
H1045 C1072 0.950 . S
H1046 C1075 0.950 . S
H1047 C1076 0.950 . S
H1048 C1078 0.950 . S
H1049 C1079 0.950 . S
C1050 H1032 0.951 . S
C1050 C1051 1.366 . S
C1050 C1052 1.388 . S
C1051 C1050 1.366 . S
C1051 C1055 1.385 . S
C1052 H1033 0.951 . S
C1052 C1050 1.388 . S
C1052 C1053 1.366 . S
C1053 C1052 1.366 . S
C1053 C1054 1.414 . S
C1053 C1056 1.499 . S
C1054 H1034 0.950 . S
C1054 C1053 1.414 . S
C1054 C1055 1.374 . S
C1055 H1035 0.950 . S
C1055 C1051 1.385 . S
C1055 C1054 1.374 . S
C1056 C1053 1.499 . S
C1056 C1057 1.373 . S
C1056 C1058 1.389 . S
C1057 H1036 0.950 . S
C1057 C1056 1.373 . S
C1057 C1073 1.377 . S
C1058 C1056 1.389 . S
C1058 C1059 1.524 . S
C1058 C1072 1.377 . S
C1059 C1058 1.524 . S
C1059 C1060 1.397 . S
C1059 C1064 1.363 . S
C1060 H1037 0.950 . S
C1060 C1059 1.397 . S
C1060 C1061 1.334 . S
C1061 H1038 0.950 . S
C1061 C1060 1.334 . S
C1061 C1062 1.287 . S
C1062 C1061 1.287 . S
C1062 C1063 1.524 . S
C1062 H1081 0.913 . S
C1063 H1039 0.950 . S
C1063 C1062 1.524 . S
C1063 C1064 1.415 . S
C1064 H1040 0.950 . S
C1064 C1059 1.363 . S
C1064 C1063 1.415 . S
C1065 H1041 0.951 . S
C1065 C1066 1.366 . S
C1065 C1067 1.388 . S
C1066 C1065 1.366 . S
C1066 C1070 1.385 . S
C1067 H1042 0.951 . S
C1067 C1065 1.388 . S
C1067 C1068 1.366 . S
C1068 C1067 1.366 . S
C1068 C1069 1.414 . S
C1068 C1071 1.499 . S
C1069 H1043 0.950 . S
C1069 C1068 1.414 . S
C1069 C1070 1.374 . S
C1070 H1044 0.950 . S
C1070 C1066 1.385 . S
C1070 C1069 1.374 . S
C1071 C1068 1.499 . S
C1071 C1072 1.373 . S
C1071 C1073 1.389 . S
C1072 H1045 0.950 . S
C1072 C1058 1.377 . S
C1072 C1071 1.373 . S
C1073 C1057 1.377 . S
C1073 C1071 1.389 . S
C1073 C1074 1.524 . S
C1074 C1073 1.524 . S
C1074 C1075 1.397 . S
C1074 C1079 1.363 . S
C1075 H1046 0.950 . S
C1075 C1074 1.397 . S
C1075 C1076 1.334 . S
C1076 H1047 0.950 . S
C1076 C1075 1.334 . S
C1076 C1077 1.287 . S
C1077 C1076 1.287 . S
C1077 C1078 1.524 . S
C1077 H1080 0.999 . S
C1078 H1048 0.950 . S
C1078 C1077 1.524 . S
C1078 C1079 1.415 . S
C1079 H1049 0.950 . S
C1079 C1074 1.363 . S
C1079 C1078 1.415 . S
H1080 C1077 0.999 . S
H1081 C1062 0.913 . S
H1082 C1100 0.951 . S
H1083 C1102 0.951 . S
H1084 C1104 0.950 . S
H1085 C1105 0.953 1_565 S
H1086 C1107 0.950 . S
H1087 C1110 0.950 . S
H1088 C1111 0.950 . S
H1089 C1113 0.950 . S
H1090 C1114 0.950 . S
H1091 C1115 0.951 . S
H1092 C1117 0.951 . S
H1093 C1119 0.950 . S
H1094 C1120 0.950 . S
H1095 C1122 0.950 . S
H1096 C1125 0.950 . S
H1097 C1126 0.950 . S
H1098 C1128 0.950 . S
H1099 C1129 0.950 . S
C1100 H1082 0.951 . S
C1100 C1101 1.366 . S
C1100 C1102 1.388 . S
C1101 C1100 1.366 . S
C1101 C1105 1.389 . S
C1102 H1083 0.951 . S
C1102 C1100 1.388 . S
C1102 C1103 1.366 . S
C1103 C1102 1.366 . S
C1103 C1104 1.414 . S
C1103 C1106 1.499 . S
C1104 H1084 0.950 . S
C1104 C1103 1.414 . S
C1104 C1105 1.369 . S
C1105 H1085 0.953 1_545 S
C1105 C1101 1.389 . S
C1105 C1104 1.369 . S
C1106 C1103 1.499 . S
C1106 C1107 1.373 1_545 S
C1106 C1108 1.389 . S
C1107 H1086 0.950 . S
C1107 C1106 1.373 1_565 S
C1107 C1123 1.377 . S
C1108 C1106 1.389 . S
C1108 C1109 1.524 . S
C1108 C1122 1.377 . S
C1109 C1108 1.524 . S
C1109 C1110 1.397 . S
C1109 C1114 1.363 . S
C1110 H1087 0.950 . S
C1110 C1109 1.397 . S
C1110 C1111 1.334 . S
C1111 H1088 0.950 . S
C1111 C1110 1.334 . S
C1111 C1112 1.287 . S
C1112 C1111 1.287 . S
C1112 C1113 1.524 . S
C1112 H1131 0.913 . S
C1113 H1089 0.950 . S
C1113 C1112 1.524 . S
C1113 C1114 1.415 . S
C1114 H1090 0.950 . S
C1114 C1109 1.363 . S
C1114 C1113 1.415 . S
C1115 H1091 0.951 . S
C1115 C1116 1.366 . S
C1115 C1117 1.388 . S
C1116 C1115 1.366 . S
C1116 C1120 1.385 . S
C1117 H1092 0.951 . S
C1117 C1115 1.388 . S
C1117 C1118 1.366 . S
C1118 C1117 1.366 . S
C1118 C1119 1.414 . S
C1118 C1121 1.499 . S
C1119 H1093 0.950 . S
C1119 C1118 1.414 . S
C1119 C1120 1.374 . S
C1120 H1094 0.950 . S
C1120 C1116 1.385 . S
C1120 C1119 1.374 . S
C1121 C1118 1.499 . S
C1121 C1122 1.373 . S
C1121 C1123 1.389 1_545 S
C1122 H1095 0.950 . S
C1122 C1108 1.377 . S
C1122 C1121 1.373 . S
C1123 C1107 1.377 . S
C1123 C1121 1.389 1_565 S
C1123 C1124 1.524 . S
C1124 C1123 1.524 . S
C1124 C1125 1.397 . S
C1124 C1129 1.363 . S
C1125 H1096 0.950 . S
C1125 C1124 1.397 . S
C1125 C1126 1.334 . S
C1126 H1097 0.950 . S
C1126 C1125 1.334 . S
C1126 C1127 1.287 . S
C1127 C1126 1.287 . S
C1127 C1128 1.524 . S
C1127 H1130 0.999 . S
C1128 H1098 0.950 . S
C1128 C1127 1.524 . S
C1128 C1129 1.415 . S
C1129 H1099 0.950 . S
C1129 C1124 1.363 . S
C1129 C1128 1.415 . S
H1130 C1127 0.999 . S
H1131 C1112 0.913 . S
H1132 C1150 0.951 . S
H1133 C1152 0.951 . S
H1134 C1154 0.950 . S
H1135 C1155 0.950 . S
H1136 C1157 0.950 . S
H1137 C1160 0.950 . S
H1138 C1161 0.950 . S
H1139 C1163 0.950 . S
H1140 C1164 0.950 . S
H1141 C1165 0.951 . S
H1142 C1167 0.951 . S
H1143 C1169 0.950 . S
H1144 C1170 0.950 . S
H1145 C1172 0.950 . S
H1146 C1175 0.950 . S
H1147 C1176 0.950 . S
H1148 C1178 0.950 . S
H1149 C1179 0.950 . S
C1150 H1132 0.951 . S
C1150 C1151 1.366 . S
C1150 C1152 1.388 . S
C1151 C1150 1.366 . S
C1151 C1155 1.385 . S
C1152 H1133 0.951 . S
C1152 C1150 1.388 . S
C1152 C1153 1.366 . S
C1153 C1152 1.366 . S
C1153 C1154 1.414 . S
C1153 C1156 1.499 . S
C1154 H1134 0.950 . S
C1154 C1153 1.414 . S
C1154 C1155 1.374 . S
C1155 H1135 0.950 . S
C1155 C1151 1.385 . S
C1155 C1154 1.374 . S
C1156 C1153 1.499 . S
C1156 C1157 1.373 . S
C1156 C1158 1.389 . S
C1157 H1136 0.950 . S
C1157 C1156 1.373 . S
C1157 C1173 1.377 . S
C1158 C1156 1.389 . S
C1158 C1159 1.524 . S
C1158 C1172 1.377 . S
C1159 C1158 1.524 . S
C1159 C1160 1.397 . S
C1159 C1164 1.363 . S
C1160 H1137 0.950 . S
C1160 C1159 1.397 . S
C1160 C1161 1.334 . S
C1161 H1138 0.950 . S
C1161 C1160 1.334 . S
C1161 C1162 1.287 . S
C1162 C1161 1.287 . S
C1162 C1163 1.524 . S
C1162 H1181 0.913 . S
C1163 H1139 0.950 . S
C1163 C1162 1.524 . S
C1163 C1164 1.415 . S
C1164 H1140 0.950 . S
C1164 C1159 1.363 . S
C1164 C1163 1.415 . S
C1165 H1141 0.951 . S
C1165 C1166 1.366 . S
C1165 C1167 1.388 . S
C1166 C1165 1.366 . S
C1166 C1170 1.385 . S
C1167 H1142 0.951 . S
C1167 C1165 1.388 . S
C1167 C1168 1.366 . S
C1168 C1167 1.366 . S
C1168 C1169 1.414 . S
C1168 C1171 1.499 1_556 S
C1169 H1143 0.950 . S
C1169 C1168 1.414 . S
C1169 C1170 1.374 . S
C1170 H1144 0.950 . S
C1170 C1166 1.385 . S
C1170 C1169 1.374 . S
C1171 C1168 1.499 1_554 S
C1171 C1172 1.373 . S
C1171 C1173 1.389 . S
C1172 H1145 0.950 . S
C1172 C1158 1.377 . S
C1172 C1171 1.373 . S
C1173 C1157 1.377 . S
C1173 C1171 1.389 . S
C1173 C1174 1.524 1_554 S
C1174 C1173 1.524 1_556 S
C1174 C1175 1.397 . S
C1174 C1179 1.363 . S
C1175 H1146 0.950 . S
C1175 C1174 1.397 . S
C1175 C1176 1.334 . S
C1176 H1147 0.950 . S
C1176 C1175 1.334 . S
C1176 C1177 1.287 . S
C1177 C1176 1.287 . S
C1177 C1178 1.524 . S
C1177 H1180 0.999 . S
C1178 H1148 0.950 . S
C1178 C1177 1.524 . S
C1178 C1179 1.415 . S
C1179 H1149 0.950 . S
C1179 C1174 1.363 . S
C1179 C1178 1.415 . S
H1180 C1177 0.999 . S
H1181 C1162 0.913 . S
H1182 C1200 0.951 . S
H1183 C1202 0.951 . S
H1184 C1204 0.950 . S
H1185 C1205 0.950 . S
H1186 C1207 0.950 . S
H1187 C1210 0.950 . S
H1188 C1211 0.950 . S
H1189 C1213 0.950 . S
H1190 C1214 0.950 . S
H1191 C1215 0.951 . S
H1192 C1217 0.951 . S
H1193 C1219 0.950 . S
H1194 C1220 0.950 . S
H1195 C1222 0.950 . S
H1196 C1225 0.950 . S
H1197 C1226 0.950 . S
H1198 C1228 0.950 . S
H1199 C1229 0.950 . S
C1200 H1182 0.951 . S
C1200 C1201 1.366 . S
C1200 C1202 1.388 . S
C1201 C1200 1.366 . S
C1201 C1205 1.385 . S
C1202 H1183 0.951 . S
C1202 C1200 1.388 . S
C1202 C1203 1.366 . S
C1203 C1202 1.366 . S
C1203 C1204 1.414 . S
C1203 C1206 1.499 . S
C1204 H1184 0.950 . S
C1204 C1203 1.414 . S
C1204 C1205 1.374 . S
C1205 H1185 0.950 . S
C1205 C1201 1.385 . S
C1205 C1204 1.374 . S
C1206 C1203 1.499 . S
C1206 C1207 1.373 . S
C1206 C1208 1.389 . S
C1207 H1186 0.950 . S
C1207 C1206 1.373 . S
C1207 C1223 1.377 . S
C1208 C1206 1.389 . S
C1208 C1209 1.524 . S
C1208 C1222 1.377 . S
C1209 C1208 1.524 . S
C1209 C1210 1.397 . S
C1209 C1214 1.363 . S
C1210 H1187 0.950 . S
C1210 C1209 1.397 . S
C1210 C1211 1.334 . S
C1211 H1188 0.950 . S
C1211 C1210 1.334 . S
C1211 C1212 1.287 . S
C1212 C1211 1.287 . S
C1212 C1213 1.524 . S
C1212 H1231 0.913 . S
C1213 H1189 0.950 . S
C1213 C1212 1.524 . S
C1213 C1214 1.415 . S
C1214 H1190 0.950 . S
C1214 C1209 1.363 . S
C1214 C1213 1.415 . S
C1215 H1191 0.951 . S
C1215 C1216 1.366 . S
C1215 C1217 1.388 . S
C1216 C1215 1.366 . S
C1216 C1220 1.385 . S
C1217 H1192 0.951 . S
C1217 C1215 1.388 . S
C1217 C1218 1.366 . S
C1218 C1217 1.366 . S
C1218 C1219 1.414 . S
C1218 C1221 1.499 . S
C1219 H1193 0.950 . S
C1219 C1218 1.414 . S
C1219 C1220 1.374 . S
C1220 H1194 0.950 . S
C1220 C1216 1.385 . S
C1220 C1219 1.374 . S
C1221 C1218 1.499 . S
C1221 C1222 1.373 . S
C1221 C1223 1.389 . S
C1222 H1195 0.950 . S
C1222 C1208 1.377 . S
C1222 C1221 1.373 . S
C1223 C1207 1.377 . S
C1223 C1221 1.389 . S
C1223 C1224 1.524 . S
C1224 C1223 1.524 . S
C1224 C1225 1.397 . S
C1224 C1229 1.363 . S
C1225 H1196 0.950 . S
C1225 C1224 1.397 . S
C1225 C1226 1.334 . S
C1226 H1197 0.950 . S
C1226 C1225 1.334 . S
C1226 C1227 1.287 . S
C1227 C1226 1.287 . S
C1227 C1228 1.524 . S
C1227 H1230 0.999 . S
C1228 H1198 0.950 . S
C1228 C1227 1.524 . S
C1228 C1229 1.415 . S
C1229 H1199 0.950 . S
C1229 C1224 1.363 . S
C1229 C1228 1.415 . S
H1230 C1227 0.999 . S
H1231 C1212 0.913 . S
H1232 C1250 0.951 . S
H1233 C1252 0.951 . S
H1234 C1254 0.950 . S
H1235 C1255 0.950 . S
H1236 C1257 0.950 . S
H1237 C1260 0.950 . S
H1238 C1261 0.950 . S
H1239 C1263 0.950 . S
H1240 C1264 0.950 . S
H1241 C1265 0.951 . S
H1242 C1267 0.951 . S
H1243 C1269 0.950 . S
H1244 C1270 0.950 . S
H1245 C1272 0.950 . S
H1246 C1275 0.950 . S
H1247 C1276 0.950 . S
H1248 C1278 0.950 . S
H1249 C1279 0.950 . S
C1250 H1232 0.951 . S
C1250 C1251 1.366 . S
C1250 C1252 1.388 . S
C1251 C1250 1.366 . S
C1251 C1255 1.385 . S
C1252 H1233 0.951 . S
C1252 C1250 1.388 . S
C1252 C1253 1.366 . S
C1253 C1252 1.366 . S
C1253 C1254 1.414 . S
C1253 C1256 1.499 . S
C1254 H1234 0.950 . S
C1254 C1253 1.414 . S
C1254 C1255 1.374 . S
C1255 H1235 0.950 . S
C1255 C1251 1.385 . S
C1255 C1254 1.374 . S
C1256 C1253 1.499 . S
C1256 C1257 1.373 . S
C1256 C1258 1.389 . S
C1257 H1236 0.950 . S
C1257 C1256 1.373 . S
C1257 C1273 1.377 . S
C1258 C1256 1.389 . S
C1258 C1259 1.524 . S
C1258 C1272 1.377 . S
C1259 C1258 1.524 . S
C1259 C1260 1.397 . S
C1259 C1264 1.363 . S
C1260 H1237 0.950 . S
C1260 C1259 1.397 . S
C1260 C1261 1.334 . S
C1261 H1238 0.950 . S
C1261 C1260 1.334 . S
C1261 C1262 1.287 . S
C1262 C1261 1.287 . S
C1262 C1263 1.524 . S
C1262 H1281 0.913 . S
C1263 H1239 0.950 . S
C1263 C1262 1.524 . S
C1263 C1264 1.415 . S
C1264 H1240 0.950 . S
C1264 C1259 1.363 . S
C1264 C1263 1.415 . S
C1265 H1241 0.951 . S
C1265 C1266 1.366 . S
C1265 C1267 1.388 . S
C1266 C1265 1.366 . S
C1266 C1270 1.385 . S
C1267 H1242 0.951 . S
C1267 C1265 1.388 . S
C1267 C1268 1.366 . S
C1268 C1267 1.366 . S
C1268 C1269 1.414 . S
C1268 C1271 1.499 . S
C1269 H1243 0.950 . S
C1269 C1268 1.414 . S
C1269 C1270 1.374 . S
C1270 H1244 0.950 . S
C1270 C1266 1.385 . S
C1270 C1269 1.374 . S
C1271 C1268 1.499 . S
C1271 C1272 1.373 . S
C1271 C1273 1.389 . S
C1272 H1245 0.950 . S
C1272 C1258 1.377 . S
C1272 C1271 1.373 . S
C1273 C1257 1.377 . S
C1273 C1271 1.389 . S
C1273 C1274 1.524 . S
C1274 C1273 1.524 . S
C1274 C1275 1.397 . S
C1274 C1279 1.363 . S
C1275 H1246 0.950 . S
C1275 C1274 1.397 . S
C1275 C1276 1.334 . S
C1276 H1247 0.950 . S
C1276 C1275 1.334 . S
C1276 C1277 1.287 . S
C1277 C1276 1.287 . S
C1277 C1278 1.524 1_655 S
C1277 H1280 0.999 1_655 S
C1278 H1248 0.950 . S
C1278 C1277 1.524 1_455 S
C1278 C1279 1.415 1_455 S
C1279 H1249 0.950 . S
C1279 C1274 1.363 . S
C1279 C1278 1.415 1_655 S
H1280 C1277 0.999 1_455 S
H1281 C1262 0.913 . S
H1282 C1300 0.951 . S
H1283 C1302 0.951 . S
H1284 C1304 0.950 . S
H1285 C1305 0.950 . S
H1286 C1307 0.950 . S
H1287 C1310 0.950 . S
H1288 C1311 0.950 . S
H1289 C1313 0.950 . S
H1290 C1314 0.950 . S
H1291 C1315 0.951 . S
H1292 C1317 0.951 . S
H1293 C1319 0.933 1_545 S
H1294 C1320 0.950 1_545 S
H1295 C1322 0.950 . S
H1296 C1325 0.950 1_545 S
H1297 C1326 0.950 1_545 S
H1298 C1328 0.950 . S
H1299 C1329 0.950 . S
C1300 H1282 0.951 . S
C1300 C1301 1.366 1_545 S
C1300 C1302 1.388 . S
C1301 C1300 1.366 1_565 S
C1301 C1305 1.385 . S
C1302 H1283 0.951 . S
C1302 C1300 1.388 . S
C1302 C1303 1.366 1_545 S
C1303 C1302 1.366 1_565 S
C1303 C1304 1.414 . S
C1303 C1306 1.499 . S
C1304 H1284 0.950 . S
C1304 C1303 1.414 . S
C1304 C1305 1.374 . S
C1305 H1285 0.950 . S
C1305 C1301 1.385 . S
C1305 C1304 1.374 . S
C1306 C1303 1.499 . S
C1306 C1307 1.373 . S
C1306 C1308 1.389 . S
C1307 H1286 0.950 . S
C1307 C1306 1.373 . S
C1307 C1323 1.377 . S
C1308 C1306 1.389 . S
C1308 C1309 1.524 . S
C1308 C1322 1.377 . S
C1309 C1308 1.524 . S
C1309 C1310 1.397 . S
C1309 C1314 1.363 1_565 S
C1310 H1287 0.950 . S
C1310 C1309 1.397 . S
C1310 C1311 1.334 . S
C1311 H1288 0.950 . S
C1311 C1310 1.334 . S
C1311 C1312 1.307 . S
C1312 C1311 1.307 . S
C1312 C1313 1.501 1_565 S
C1312 H1331 0.915 1_565 S
C1313 H1289 0.950 . S
C1313 C1312 1.501 1_545 S
C1313 C1314 1.415 . S
C1314 H1290 0.950 . S
C1314 C1309 1.363 1_545 S
C1314 C1313 1.415 . S
C1315 H1291 0.951 . S
C1315 C1316 1.366 . S
C1315 C1317 1.388 . S
C1316 C1315 1.366 . S
C1316 C1320 1.385 . S
C1317 H1292 0.951 . S
C1317 C1315 1.388 . S
C1317 C1318 1.366 . S
C1318 C1317 1.366 . S
C1318 C1319 1.434 . S
C1318 C1321 1.499 . S
C1319 H1293 0.933 1_565 S
C1319 C1318 1.434 . S
C1319 C1320 1.371 . S
C1320 H1294 0.950 1_565 S
C1320 C1316 1.385 . S
C1320 C1319 1.371 . S
C1321 C1318 1.499 . S
C1321 C1322 1.373 . S
C1321 C1323 1.389 . S
C1322 H1295 0.950 . S
C1322 C1308 1.377 . S
C1322 C1321 1.373 . S
C1323 C1307 1.377 . S
C1323 C1321 1.389 . S
C1323 C1324 1.524 . S
C1324 C1323 1.524 . S
C1324 C1325 1.397 . S
C1324 C1329 1.363 . S
C1325 H1296 0.950 1_565 S
C1325 C1324 1.397 . S
C1325 C1326 1.334 . S
C1326 H1297 0.950 1_565 S
C1326 C1325 1.334 . S
C1326 C1327 1.287 . S
C1327 C1326 1.287 . S
C1327 C1328 1.524 . S
C1327 H1330 0.999 . S
C1328 H1298 0.950 . S
C1328 C1327 1.524 . S
C1328 C1329 1.415 . S
C1329 H1299 0.950 . S
C1329 C1324 1.363 . S
C1329 C1328 1.415 . S
H1330 C1327 0.999 . S
H1331 C1312 0.915 1_545 S
H1332 C1350 0.951 . S
H1333 C1352 0.951 . S
H1334 C1354 0.950 . S
H1335 C1355 0.950 . S
H1336 C1357 0.950 . S
H1337 C1360 0.950 . S
H1338 C1361 0.950 . S
H1339 C1363 0.950 . S
H1340 C1364 0.950 . S
H1341 C1365 0.951 . S
H1342 C1367 0.951 . S
H1343 C1369 0.950 . S
H1344 C1370 0.950 . S
H1345 C1372 0.950 . S
H1346 C1375 0.950 . S
H1347 C1376 0.950 . S
H1348 C1378 0.950 . S
H1349 C1379 0.950 . S
C1350 H1332 0.951 . S
C1350 C1351 1.366 . S
C1350 C1352 1.388 . S
C1351 C1350 1.366 . S
C1351 C1355 1.385 . S
C1352 H1333 0.951 . S
C1352 C1350 1.388 . S
C1352 C1353 1.366 . S
C1353 C1352 1.366 . S
C1353 C1354 1.414 . S
C1353 C1356 1.499 . S
C1354 H1334 0.950 . S
C1354 C1353 1.414 . S
C1354 C1355 1.374 . S
C1355 H1335 0.950 . S
C1355 C1351 1.385 . S
C1355 C1354 1.374 . S
C1356 C1353 1.499 . S
C1356 C1357 1.373 . S
C1356 C1358 1.389 . S
C1357 H1336 0.950 . S
C1357 C1356 1.373 . S
C1357 C1373 1.377 . S
C1358 C1356 1.389 . S
C1358 C1359 1.524 . S
C1358 C1372 1.377 . S
C1359 C1358 1.524 . S
C1359 C1360 1.397 . S
C1359 C1364 1.363 . S
C1360 H1337 0.950 . S
C1360 C1359 1.397 . S
C1360 C1361 1.334 . S
C1361 H1338 0.950 . S
C1361 C1360 1.334 . S
C1361 C1362 1.287 . S
C1362 C1361 1.287 . S
C1362 C1363 1.524 . S
C1362 H1381 0.913 . S
C1363 H1339 0.950 . S
C1363 C1362 1.524 . S
C1363 C1364 1.415 . S
C1364 H1340 0.950 . S
C1364 C1359 1.363 . S
C1364 C1363 1.415 . S
C1365 H1341 0.951 . S
C1365 C1366 1.366 . S
C1365 C1367 1.388 . S
C1366 C1365 1.366 . S
C1366 C1370 1.385 . S
C1367 H1342 0.951 . S
C1367 C1365 1.388 . S
C1367 C1368 1.366 . S
C1368 C1367 1.366 . S
C1368 C1369 1.414 . S
C1368 C1371 1.499 . S
C1369 H1343 0.950 . S
C1369 C1368 1.414 . S
C1369 C1370 1.374 . S
C1370 H1344 0.950 . S
C1370 C1366 1.385 . S
C1370 C1369 1.374 . S
C1371 C1368 1.499 . S
C1371 C1372 1.373 . S
C1371 C1373 1.389 . S
C1372 H1345 0.950 . S
C1372 C1358 1.377 . S
C1372 C1371 1.373 . S
C1373 C1357 1.377 . S
C1373 C1371 1.389 . S
C1373 C1374 1.524 . S
C1374 C1373 1.524 . S
C1374 C1375 1.397 . S
C1374 C1379 1.363 . S
C1375 H1346 0.950 . S
C1375 C1374 1.397 . S
C1375 C1376 1.334 . S
C1376 H1347 0.950 . S
C1376 C1375 1.334 . S
C1376 C1377 1.287 . S
C1377 C1376 1.287 . S
C1377 C1378 1.524 . S
C1377 H1380 0.999 . S
C1378 H1348 0.950 . S
C1378 C1377 1.524 . S
C1378 C1379 1.415 . S
C1379 H1349 0.950 . S
C1379 C1374 1.363 . S
C1379 C1378 1.415 . S
H1380 C1377 0.999 . S
H1381 C1362 0.913 . S
H1382 C1400 0.951 . S
H1383 C1402 0.951 . S
H1384 C1404 0.950 . S
H1385 C1405 0.950 . S
H1386 C1407 0.950 . S
H1387 C1410 0.950 . S
H1388 C1411 0.950 . S
H1389 C1413 0.950 . S
H1390 C1414 0.950 . S
H1391 C1415 0.951 . S
H1392 C1417 0.951 . S
H1393 C1419 0.950 . S
H1394 C1420 0.950 . S
H1395 C1422 0.950 . S
H1396 C1425 0.950 . S
H1397 C1426 0.950 . S
H1398 C1428 0.950 . S
H1399 C1429 0.950 . S
C1400 H1382 0.951 . S
C1400 C1401 1.366 . S
C1400 C1402 1.388 . S
C1401 C1400 1.366 . S
C1401 C1405 1.385 . S
C1402 H1383 0.951 . S
C1402 C1400 1.388 . S
C1402 C1403 1.366 . S
C1403 C1402 1.366 . S
C1403 C1404 1.414 . S
C1403 C1406 1.499 . S
C1404 H1384 0.950 . S
C1404 C1403 1.414 . S
C1404 C1405 1.374 . S
C1405 H1385 0.950 . S
C1405 C1401 1.385 . S
C1405 C1404 1.374 . S
C1406 C1403 1.499 . S
C1406 C1407 1.373 . S
C1406 C1408 1.389 . S
C1407 H1386 0.950 . S
C1407 C1406 1.373 . S
C1407 C1423 1.377 . S
C1408 C1406 1.389 . S
C1408 C1409 1.524 . S
C1408 C1422 1.377 . S
C1409 C1408 1.524 . S
C1409 C1410 1.397 . S
C1409 C1414 1.363 . S
C1410 H1387 0.950 . S
C1410 C1409 1.397 . S
C1410 C1411 1.334 . S
C1411 H1388 0.950 . S
C1411 C1410 1.334 . S
C1411 C1412 1.287 . S
C1412 C1411 1.287 . S
C1412 C1413 1.524 . S
C1412 H1431 0.913 . S
C1413 H1389 0.950 . S
C1413 C1412 1.524 . S
C1413 C1414 1.415 . S
C1414 H1390 0.950 . S
C1414 C1409 1.363 . S
C1414 C1413 1.415 . S
C1415 H1391 0.951 . S
C1415 C1416 1.366 . S
C1415 C1417 1.388 . S
C1416 C1415 1.366 . S
C1416 C1420 1.385 . S
C1417 H1392 0.951 . S
C1417 C1415 1.388 . S
C1417 C1418 1.366 . S
C1418 C1417 1.366 . S
C1418 C1419 1.414 . S
C1418 C1421 1.499 . S
C1419 H1393 0.950 . S
C1419 C1418 1.414 . S
C1419 C1420 1.374 . S
C1420 H1394 0.950 . S
C1420 C1416 1.385 . S
C1420 C1419 1.374 . S
C1421 C1418 1.499 . S
C1421 C1422 1.373 . S
C1421 C1423 1.389 . S
C1422 H1395 0.950 . S
C1422 C1408 1.377 . S
C1422 C1421 1.373 . S
C1423 C1407 1.377 . S
C1423 C1421 1.389 . S
C1423 C1424 1.524 . S
C1424 C1423 1.524 . S
C1424 C1425 1.397 . S
C1424 C1429 1.363 . S
C1425 H1396 0.950 . S
C1425 C1424 1.397 . S
C1425 C1426 1.334 . S
C1426 H1397 0.950 . S
C1426 C1425 1.334 . S
C1426 C1427 1.287 . S
C1427 C1426 1.287 . S
C1427 C1428 1.524 . S
C1427 H1430 0.999 . S
C1428 H1398 0.950 . S
C1428 C1427 1.524 . S
C1428 C1429 1.415 . S
C1429 H1399 0.950 . S
C1429 C1424 1.363 . S
C1429 C1428 1.415 . S
H1430 C1427 0.999 . S
H1431 C1412 0.913 . S
C251 C61 0.936 1_545 S
C266 C81 0.909 . S
C316 C121 1.374 . S
C301 C70 1.401 . S
C366 C170 1.453 . S
C351 C43 1.485 . S
C416 C201 1.850 . S
C401 C52 1.885 . S
C466 C90 0.909 . S
C451 C25 0.938 1_545 S
C501 C34 1.398 . S
C516 C130 1.379 . S
C551 C7 1.480 . S
C566 C161 1.454 . S
C601 C16 1.894 . S
C616 C210 1.849 1_655 S
C666 C91 0.606 . S
C651 C50 0.655 . S
C716 C131 0.316 . S
C701 C59 0.455 1_545 S
C766 C167 0.428 . S
C751 C67 0.433 . S
C801 C41 0.850 . S
C816 C211 0.872 . S
C851 C14 0.653 . S
C866 C82 0.611 1_655 S
C916 C122 0.316 . S
C901 C23 0.461 . S
C966 C158 0.428 . S
C951 C31 0.436 . S
C1001 C5 0.849 1_556 S
C1016 C202 0.872 . S
C1051 C49 1.758 . S
C1066 C87 1.803 . S
C1101 C58 1.534 1_545 S
C1116 C127 1.530 . S
C1166 C171 2.028 . S
C1151 C68 1.882 . S
C1216 C207 1.464 . S
C1201 C40 1.445 . S
C1251 C13 1.761 . S
C1266 C78 1.811 . S
C1316 C118 1.529 . S
C1301 C22 1.530 . S
C1366 C162 2.028 . S
C1351 C32 1.873 . S
C1401 C4 1.442 . S
C1416 C198 1.464 . S
