# Generated by pormake.
# Topology rtl, (3,6)-cn, num edge types: 1
# Building blocks:
#     Node 0, Type 0, BuildingBlock: CUQRIR_clean_linker_1, # of connection points: 3
#     Node 1, Type 0, BuildingBlock: CUQRIR_clean_linker_1, # of connection points: 3
#     Node 2, Type 0, BuildingBlock: CUQRIR_clean_linker_1, # of connection points: 3
#     Node 3, Type 0, BuildingBlock: CUQRIR_clean_linker_1, # of connection points: 3
#     Node 4, Type 1, BuildingBlock: FUNLAD_clean_sbu_0, # of connection points: 6
#     Node 5, Type 1, BuildingBlock: FUNLAD_clean_sbu_0, # of connection points: 6
#     Edge 6, Type (0, 1), BuildingBlock: CIFDUS_clean_linker_0, # of connection points: 2
#     Edge 7, Type (0, 1), BuildingBlock: CIFDUS_clean_linker_0, # of connection points: 2
#     Edge 8, Type (0, 1), BuildingBlock: CIFDUS_clean_linker_0, # of connection points: 2
#     Edge 9, Type (0, 1), BuildingBlock: CIFDUS_clean_linker_0, # of connection points: 2
#     Edge 10, Type (0, 1), BuildingBlock: CIFDUS_clean_linker_0, # of connection points: 2
#     Edge 11, Type (0, 1), BuildingBlock: CIFDUS_clean_linker_0, # of connection points: 2
#     Edge 12, Type (0, 1), BuildingBlock: CIFDUS_clean_linker_0, # of connection points: 2
#     Edge 13, Type (0, 1), BuildingBlock: CIFDUS_clean_linker_0, # of connection points: 2
#     Edge 14, Type (0, 1), BuildingBlock: CIFDUS_clean_linker_0, # of connection points: 2
#     Edge 15, Type (0, 1), BuildingBlock: CIFDUS_clean_linker_0, # of connection points: 2
#     Edge 16, Type (0, 1), BuildingBlock: CIFDUS_clean_linker_0, # of connection points: 2
#     Edge 17, Type (0, 1), BuildingBlock: CIFDUS_clean_linker_0, # of connection points: 2
# Relax obj value: 0.002
# Max RMSD: 0.026
# Mean RMSD: 0.024
data_MOF--net-rtl--node1-FUNLAD_clean_sbu_0--node2-CUQRIR_clean_linker_1--edge1-CIFDUS_clean_linker_0
_symmetry_space_group_name_H-M    P1
_symmetry_Int_Tables_number       1
_symmetry_cell_setting            triclinic
loop_
_symmetry_equiv_pos_as_xyz
'x, y, z'
_cell_length_a     33.274212
_cell_length_b     33.356369
_cell_length_c     16.258187
_cell_angle_alpha  90.192343
_cell_angle_beta   90.708411
_cell_angle_gamma 89.892579
loop_
_atom_site_label
_atom_site_type_symbol
_atom_site_fract_x
_atom_site_fract_y
_atom_site_fract_z
_atom_type_partial_charge
C0 C 0.18003 0.80469 0.96867 0.0
N1 N 0.1504 0.82923 0.99474 0.0
N2 N 0.20283 0.79193 0.03313 0.0
C3 C 0.18835 0.79561 0.87973 0.0
C4 C 0.18606 0.81001 0.09926 0.0
N5 N 0.15442 0.83304 0.07569 0.0
C6 C 0.19862 0.80283 0.1872 0.0
H7 H 0.17093 0.76871 0.86086 0.0
H8 H 0.22075 0.78952 0.87025 0.0
H9 H 0.17884 0.82086 0.83969 0.0
H10 H 0.22097 0.82587 0.20588 0.0
H11 H 0.21256 0.77279 0.19447 0.0
H12 H 0.1725 0.80527 0.2287 0.0
C13 C 0.7076 0.67942 0.575 0.0
N14 N 0.6819 0.64999 0.55159 0.0
N15 N 0.71794 0.70211 0.50955 0.0
C16 C 0.71978 0.68804 0.66275 0.0
C17 C 0.69732 0.68549 0.44565 0.0
N18 N 0.67493 0.6542 0.47145 0.0
C19 C 0.70164 0.69766 0.35713 0.0
H20 H 0.72662 0.7203 0.67177 0.0
H21 H 0.74709 0.67033 0.67815 0.0
H22 H 0.69572 0.67923 0.7057 0.0
H23 H 0.73138 0.71158 0.34654 0.0
H24 H 0.67787 0.7198 0.34136 0.0
H25 H 0.69809 0.67141 0.31559 0.0
C26 C 0.83905 0.21553 0.09962 0.0
N27 N 0.8648 0.1868 0.07424 0.0
N28 N 0.81793 0.23062 0.03499 0.0
C29 C 0.83318 0.22735 0.18805 0.0
C30 C 0.83165 0.20962 0.96941 0.0
N31 N 0.85998 0.18273 0.99348 0.0
C32 C 0.8198 0.21762 0.88139 0.0
H33 H 0.83916 0.20163 0.22958 0.0
H34 H 0.8022 0.23853 0.19812 0.0
H35 H 0.85471 0.25156 0.20424 0.0
H36 H 0.8094 0.24899 0.87332 0.0
H37 H 0.79487 0.19718 0.86362 0.0
H38 H 0.84533 0.21184 0.8397 0.0
C39 C 0.31186 0.31797 0.43434 0.0
N40 N 0.34115 0.34352 0.45918 0.0
N41 N 0.29135 0.3041 0.49987 0.0
C42 C 0.30492 0.30473 0.3468 0.0
C43 C 0.30939 0.32209 0.5654 0.0
N44 N 0.33977 0.34585 0.54056 0.0
C45 C 0.29541 0.31896 0.65281 0.0
H46 H 0.28308 0.3254 0.31697 0.0
H47 H 0.29246 0.27392 0.34429 0.0
H48 H 0.3333 0.30565 0.3117 0.0
H49 H 0.31242 0.29463 0.68404 0.0
H50 H 0.26289 0.31186 0.65507 0.0
H51 H 0.30111 0.34729 0.68694 0.0
C52 C 0.0494 0.96513 0.41873 0.0
N53 N 0.06888 0.07384 0.5409 0.0
C54 C 0.10798 0.06198 0.54545 0.0
C55 C 0.13873 0.0902 0.54837 0.0
C56 C 0.12937 0.13124 0.54693 0.0
C57 C 0.08873 0.14276 0.54178 0.0
C58 C 0.05878 0.11338 0.53887 0.0
Zn59 Zn 0.02634 0.02976 0.53756 0.0
C60 C 0.96343 0.04358 0.40773 0.0
N61 N 0.94058 0.93451 0.52969 0.0
C62 C 0.95516 0.89643 0.52619 0.0
C63 C 0.90041 0.94168 0.53455 0.0
C64 C 0.87325 0.90975 0.5373 0.0
C65 C 0.88753 0.87002 0.53419 0.0
C66 C 0.92914 0.86375 0.52759 0.0
Zn67 Zn 0.98133 0.98046 0.53178 0.0
O68 O 0.06108 0.99813 0.44987 0.0
C69 C 0.04424 0.96699 0.66198 0.0
O70 O 0.01638 0.95012 0.44188 0.0
H71 H 0.88943 0.97219 0.5375 0.0
H72 H 0.11545 0.03042 0.54673 0.0
H73 H 0.98719 0.89126 0.52299 0.0
O74 O 0.05662 1.00032 0.63485 0.0
O75 O 0.01332 0.95099 0.62906 0.0
H76 H 0.02748 0.12212 0.5353 0.0
O77 O 0.94675 0.01215 0.6209 0.0
O78 O 0.99134 0.06063 0.62562 0.0
O79 O 0.95023 0.01048 0.43519 0.0
O80 O 0.99495 0.05887 0.43994 0.0
C81 C 0.95857 0.04557 0.6504 0.0
H82 H 0.16961 0.0799 0.55078 0.0
H83 H 0.08017 0.1741 0.54115 0.0
H84 H 0.84154 0.9162 0.54346 0.0
H85 H 0.94167 0.83385 0.5233 0.0
C86 C 0.46649 0.45832 0.88551 0.0
N87 N 0.57251 0.44 0.01954 0.0
C88 C 0.56183 0.40087 0.02761 0.0
C89 C 0.59097 0.37073 0.02695 0.0
C90 C 0.63163 0.38072 0.01694 0.0
C91 C 0.64186 0.42148 0.01017 0.0
C92 C 0.61171 0.45074 0.01186 0.0
Zn93 Zn 0.52783 0.4823 0.01186 0.0
C94 C 0.54449 0.54421 0.88065 0.0
N95 N 0.43361 0.56883 0.98765 0.0
C96 C 0.39526 0.55476 0.98796 0.0
C97 C 0.44127 0.60882 0.98386 0.0
C98 C 0.40959 0.63642 0.98079 0.0
C99 C 0.36964 0.62272 0.98223 0.0
C100 C 0.36281 0.58121 0.98578 0.0
Zn101 Zn 0.47938 0.52799 0.99627 0.0
O102 O 0.49828 0.44668 0.92228 0.0
C103 C 0.46017 0.46675 0.12424 0.0
O104 O 0.4514 0.4922 0.90357 0.0
H105 H 0.472 0.61936 0.98363 0.0
H106 H 0.53051 0.39287 0.03318 0.0
H107 H 0.38975 0.52287 0.99098 0.0
O108 O 0.49471 0.4528 0.10714 0.0
O109 O 0.44743 0.49765 0.0869 0.0
H110 H 0.61956 0.482 1.00526 0.0
O111 O 0.50871 0.56313 0.0894 0.0
O112 O 0.55656 0.51799 0.10243 0.0
O113 O 0.51094 0.55758 0.90497 0.0
O114 O 0.55954 0.51321 0.91498 0.0
C115 C 0.54107 0.55118 0.12424 0.0
H116 H 0.58161 0.33987 0.03396 0.0
H117 H 0.67269 0.43069 1.00142 0.0
H118 H 0.41637 0.66809 0.97693 0.0
H119 H 0.33267 0.56915 0.98849 0.0
H120 H 0.28536 0.23739 0.58951 0.0
H121 H 0.22274 0.30988 0.41081 0.0
H122 H 0.16612 0.26289 0.40992 0.0
H123 H 0.1352 0.20052 0.45912 0.0
H124 H 0.19721 0.12977 0.64298 0.0
H125 H 0.25317 0.17684 0.64352 0.0
C126 C 0.25906 0.24291 0.55114 0.0
C127 C 0.25802 0.2767 0.50008 0.0
C128 C 0.22663 0.21613 0.552 0.0
C129 C 0.22418 0.28363 0.4497 0.0
C130 C 0.19183 0.25695 0.44964 0.0
C131 C 0.1607 0.19569 0.50009 0.0
C132 C 0.16208 0.16147 0.55044 0.0
C133 C 0.19277 0.22303 0.50047 0.0
C134 C 0.19564 0.15546 0.6025 0.0
C135 C 0.2276 0.18245 0.60317 0.0
H136 H 0.20685 0.72045 0.9581 0.0
H137 H 0.27549 0.80436 0.10397 0.0
H138 H 0.33366 0.7592 0.10188 0.0
H139 H 0.36447 0.69556 0.059 0.0
H140 H 0.29696 0.61418 0.90328 0.0
H141 H 0.23896 0.65874 0.90811 0.0
C142 C 0.23475 0.7289 0.98851 0.0
C143 C 0.23702 0.76543 0.0314 0.0
C144 C 0.26817 0.70328 0.98523 0.0
C145 C 0.27304 0.77603 0.07168 0.0
C146 C 0.30628 0.75038 0.06995 0.0
C147 C 0.33734 0.68779 0.02502 0.0
C148 C 0.33517 0.65127 0.98143 0.0
C149 C 0.30418 0.7139 0.02685 0.0
C150 C 0.29937 0.6416 0.9388 0.0
C151 C 0.26618 0.6672 0.94106 0.0
H152 H 0.79227 0.7072 0.57436 0.0
H153 H 0.70174 0.7742 0.44235 0.0
H154 H 0.74649 0.83232 0.43665 0.0
H155 H 0.81172 0.86352 0.46812 0.0
H156 H 0.90009 0.79797 0.61107 0.0
H157 H 0.8559 0.73994 0.61372 0.0
C158 C 0.78233 0.73475 0.54529 0.0
C159 C 0.74403 0.73651 0.50834 0.0
C160 C 0.80787 0.76819 0.54398 0.0
C161 C 0.73143 0.77211 0.46997 0.0
C162 C 0.75689 0.80533 0.4672 0.0
C163 C 0.82119 0.83683 0.50093 0.0
C164 C 0.85953 0.83525 0.5385 0.0
C165 C 0.79524 0.80368 0.50389 0.0
C166 C 0.87125 0.79995 0.57975 0.0
C167 C 0.84584 0.76674 0.58196 0.0
H168 H 0.74338 0.22839 0.97061 0.0
H169 H 0.82709 0.30407 0.10162 0.0
H170 H 0.7766 0.35749 0.10891 0.0
H171 H 0.70824 0.38197 0.07989 0.0
H172 H 0.62555 0.30731 0.94175 0.0
H173 H 0.67581 0.2542 0.93564 0.0
C174 C 0.75047 0.25679 0.99988 0.0
C175 C 0.78859 0.26241 0.03598 0.0
C176 C 0.72144 0.28739 1.00298 0.0
C177 C 0.79764 0.29909 0.07448 0.0
C178 C 0.76888 0.32958 0.07831 0.0
C179 C 0.70129 0.35432 0.04754 0.0
C180 C 0.66289 0.34873 0.01197 0.0
C181 C 0.73059 0.324 0.04305 0.0
C182 C 0.65445 0.3123 0.9713 0.0
C183 C 0.68332 0.28193 0.96713 0.0
H184 H 0.17767 0.89216 0.17663 0.0
H185 H 0.07453 0.82551 0.09262 0.0
H186 H 0.03202 0.8607 0.1922 0.0
H187 H 0.02534 0.90852 0.30748 0.0
H188 H 0.12885 0.97646 0.38852 0.0
H189 H 0.17029 0.9426 0.28659 0.0
C190 C 0.14581 0.88574 0.18026 0.0
C191 C 0.12898 0.85644 0.12831 0.0
C192 C 0.12189 0.90599 0.23756 0.0
C193 C 0.08775 0.84825 0.13213 0.0
C194 C 0.06367 0.86812 0.1893 0.0
C195 C 0.05697 0.91585 0.30283 0.0
C196 C 0.07406 0.9447 0.35601 0.0
C197 C 0.08055 0.89668 0.24314 0.0
C198 C 0.11497 0.95431 0.34846 0.0
C199 C 0.13871 0.93498 0.29019 0.0
H200 H 0.60365 0.64959 0.58362 0.0
H201 H 0.71558 0.59137 0.64218 0.0
H202 H 0.68264 0.55097 0.74801 0.0
H203 H 0.62234 0.53578 0.8298 0.0
H204 H 0.51136 0.59803 0.77478 0.0
H205 H 0.54322 0.63321 0.66222 0.0
C206 C 0.62036 0.62743 0.6188 0.0
C207 C 0.66158 0.62284 0.60543 0.0
C208 C 0.60146 0.60549 0.68085 0.0
C209 C 0.68362 0.59483 0.65179 0.0
C210 C 0.66485 0.57205 0.71231 0.0
C211 C 0.60514 0.55687 0.79286 0.0
C212 C 0.5646 0.56438 0.81124 0.0
C213 C 0.62386 0.57765 0.72851 0.0
C214 C 0.54273 0.5919 0.76273 0.0
C215 C 0.56085 0.61201 0.69797 0.0
H216 H 0.85338 0.11085 0.1189 0.0
H217 H 0.93262 0.21154 0.14835 0.0
H218 H 0.97202 0.17516 0.25292 0.0
H219 H 0.98075 0.11639 0.34192 0.0
H220 H 0.89893 0.01661 0.31768 0.0
H221 H 0.86348 0.05073 0.20559 0.0
C222 C 0.87979 0.12417 0.14748 0.0
C223 C 0.89079 0.16327 0.12615 0.0
C224 C 0.90128 0.10349 0.20911 0.0
C225 C 0.92433 0.18115 0.16396 0.0
C226 C 0.94649 0.16049 0.22383 0.0
C227 C 0.95528 0.10198 0.31196 0.0
C228 C 0.94245 0.06405 0.33861 0.0
C229 C 0.93478 0.12192 0.24802 0.0
C230 C 0.90935 0.04588 0.29887 0.0
C231 C 0.88909 0.06532 0.23455 0.0
H232 H 0.39179 0.32358 0.65758 0.0
H233 H 0.33974 0.42626 0.53778 0.0
H234 H 0.37471 0.47125 0.63487 0.0
H235 H 0.41777 0.48056 0.75811 0.0
H236 H 0.47219 0.37728 0.8738 0.0
H237 H 0.43872 0.33309 0.77454 0.0
C238 C 0.38868 0.35586 0.65283 0.0
C239 C 0.36352 0.372 0.59169 0.0
C240 C 0.40895 0.38118 0.70839 0.0
C241 C 0.35933 0.41366 0.5847 0.0
C242 C 0.37906 0.43916 0.6403 0.0
C243 C 0.42226 0.44839 0.76139 0.0
C244 C 0.44705 0.43214 0.82352 0.0
C245 C 0.40351 0.42319 0.70317 0.0
C246 C 0.45318 0.39047 0.8265 0.0
C247 C 0.43405 0.36517 0.76988 0.0
H248 H 0.61357 0.67771 0.37523 0.0
H249 H 0.68093 0.57427 0.45372 0.0
H250 H 0.64443 0.53228 0.35355 0.0
H251 H 0.59657 0.52645 0.23737 0.0
H252 H 0.52861 0.63028 0.15968 0.0
H253 H 0.56226 0.67094 0.26516 0.0
C254 C 0.61979 0.64588 0.37046 0.0
C255 C 0.64984 0.62887 0.42077 0.0
C256 C 0.599 0.6223 0.31232 0.0
C257 C 0.65769 0.58765 0.41551 0.0
C258 C 0.63709 0.56388 0.35792 0.0
C259 C 0.58909 0.55797 0.24355 0.0
C260 C 0.56046 0.57542 0.19005 0.0
C261 C 0.60826 0.58107 0.30486 0.0
C262 C 0.55064 0.61615 0.19978 0.0
C263 C 0.56986 0.63942 0.26008 0.0
H264 H 0.83346 0.12469 0.89241 0.0
H265 H 0.93994 0.18607 0.97608 0.0
H266 H 0.98056 0.14872 0.87671 0.0
H267 H 0.98489 0.10069 0.76188 0.0
H268 H 0.87858 0.0372 0.68121 0.0
H269 H 0.83858 0.07321 0.78297 0.0
C270 C 0.86563 0.12938 0.8889 0.0
C271 C 0.88398 0.15782 0.94086 0.0
C272 C 0.88857 0.10775 0.83177 0.0
C273 C 0.92557 0.16393 0.93681 0.0
C274 C 0.94859 0.14284 0.87974 0.0
C275 C 0.95296 0.09476 0.76658 0.0
C276 C 0.93464 0.06663 0.7135 0.0
C277 C 0.93031 0.11505 0.82616 0.0
C278 C 0.89337 0.05878 0.72122 0.0
C279 C 0.87048 0.07937 0.77935 0.0
H280 H 0.322 0.39584 0.342 0.0
H281 H 0.42189 0.3379 0.46238 0.0
H282 H 0.4689 0.37072 0.36838 0.0
H283 H 0.48072 0.41488 0.24848 0.0
H284 H 0.37942 0.47436 0.13326 0.0
H285 H 0.3338 0.44199 0.22783 0.0
C286 C 0.35411 0.39065 0.34722 0.0
C287 C 0.3688 0.36454 0.4077 0.0
C288 C 0.38055 0.40973 0.29364 0.0
C289 C 0.41032 0.35807 0.4157 0.0
C290 C 0.43698 0.37666 0.36192 0.0
C291 C 0.44868 0.42066 0.24427 0.0
C292 C 0.43354 0.44686 0.1837 0.0
C293 C 0.42239 0.40233 0.3 0.0
C294 C 0.39195 0.45442 0.17942 0.0
C295 C 0.36573 0.43589 0.2334 0.0
H296 H 0.15518 0.90633 0.95474 0.0
H297 H 0.08587 0.79927 0.91626 0.0
H298 H 0.04459 0.83323 0.81111 0.0
H299 H 0.03185 0.89216 0.72375 0.0
H300 H 0.10453 0.99822 0.7573 0.0
H301 H 0.14102 0.96616 0.87027 0.0
C302 C 0.13041 0.89105 0.92415 0.0
C303 C 0.12277 0.85089 0.94304 0.0
C304 C 0.10799 0.9104 0.86221 0.0
C305 C 0.09149 0.8305 0.90258 0.0
C306 C 0.06828 0.84979 0.84236 0.0
C307 C 0.05552 0.90833 0.75605 0.0
C308 C 0.06554 0.94746 0.73169 0.0
C309 C 0.07679 0.88954 0.82049 0.0
C310 C 0.09635 0.96797 0.77426 0.0
C311 C 0.1172 0.94972 0.83913 0.0
loop_
_geom_bond_atom_site_label_1
_geom_bond_atom_site_label_2
_geom_bond_distance
_geom_bond_site_symmetry_2
_ccdc_geom_bond_type
C0 N1 1.317 . S
C0 N2 1.348 1_556 S
C0 C3 1.485 . S
N1 C0 1.317 . S
N1 N5 1.370 1_556 S
N2 C0 1.348 1_554 S
N2 C4 1.346 . S
C3 C0 1.485 . S
C3 H7 0.960 . S
C3 H8 0.961 . S
C3 H9 0.960 . S
C4 N2 1.346 . S
C4 N5 1.307 . S
C4 C6 1.486 . S
N5 N1 1.370 1_554 S
N5 C4 1.307 . S
C6 C4 1.486 . S
C6 H10 0.960 . S
C6 H11 0.960 . S
C6 H12 0.959 . S
H7 C3 0.960 . S
H8 C3 0.961 . S
H9 C3 0.960 . S
H10 C6 0.960 . S
H11 C6 0.960 . S
H12 C6 0.959 . S
C13 N14 1.317 . S
C13 N15 1.348 . S
C13 C16 1.485 . S
N14 C13 1.317 . S
N14 N18 1.370 . S
N15 C13 1.348 . S
N15 C17 1.346 . S
C16 C13 1.485 . S
C16 H20 0.960 . S
C16 H21 0.961 . S
C16 H22 0.960 . S
C17 N15 1.346 . S
C17 N18 1.307 . S
C17 C19 1.486 . S
N18 N14 1.370 . S
N18 C17 1.307 . S
C19 C17 1.486 . S
C19 H23 0.960 . S
C19 H24 0.960 . S
C19 H25 0.959 . S
H20 C16 0.960 . S
H21 C16 0.961 . S
H22 C16 0.960 . S
H23 C19 0.960 . S
H24 C19 0.960 . S
H25 C19 0.959 . S
C26 N27 1.317 . S
C26 N28 1.348 . S
C26 C29 1.485 . S
N27 C26 1.317 . S
N27 N31 1.370 1_554 S
N28 C26 1.348 . S
N28 C30 1.346 1_554 S
C29 C26 1.485 . S
C29 H33 0.960 . S
C29 H34 0.961 . S
C29 H35 0.960 . S
C30 N28 1.346 1_556 S
C30 N31 1.307 . S
C30 C32 1.486 . S
N31 N27 1.370 1_556 S
N31 C30 1.307 . S
C32 C30 1.486 . S
C32 H36 0.960 . S
C32 H37 0.960 . S
C32 H38 0.959 . S
H33 C29 0.960 . S
H34 C29 0.961 . S
H35 C29 0.960 . S
H36 C32 0.960 . S
H37 C32 0.960 . S
H38 C32 0.959 . S
C39 N40 1.317 . S
C39 N41 1.348 . S
C39 C42 1.485 . S
N40 C39 1.317 . S
N40 N44 1.370 . S
N41 C39 1.348 . S
N41 C43 1.346 . S
C42 C39 1.485 . S
C42 H46 0.960 . S
C42 H47 0.961 . S
C42 H48 0.960 . S
C43 N41 1.346 . S
C43 N44 1.307 . S
C43 C45 1.486 . S
N44 N40 1.370 . S
N44 C43 1.307 . S
C45 C43 1.486 . S
C45 H49 0.960 . S
C45 H50 0.960 . S
C45 H51 0.959 . S
H46 C42 0.960 . S
H47 C42 0.961 . S
H48 C42 0.960 . S
H49 C45 0.960 . S
H50 C45 0.960 . S
H51 C45 0.959 . S
C52 O68 1.251 . S
C52 O70 1.254 . S
N53 C54 1.333 . S
N53 C58 1.307 . S
N53 Zn59 2.020 . S
C54 N53 1.333 . S
C54 C55 1.379 . S
C54 H72 0.952 . S
C55 C54 1.379 . S
C55 C56 1.390 . S
C55 H82 0.949 . S
C56 C55 1.390 . S
C56 C57 1.357 . S
C57 C56 1.357 . S
C57 C58 1.370 . S
C57 H83 0.950 . S
C58 N53 1.307 . S
C58 C57 1.370 . S
C58 H76 0.948 . S
Zn59 N53 2.020 . S
Zn59 O68 2.039 1_545 S
Zn59 O74 2.034 1_545 S
Zn59 O78 2.025 1_455 S
Zn59 O80 2.024 1_455 S
C60 O79 1.246 . S
C60 O80 1.249 . S
N61 C62 1.307 . S
N61 C63 1.333 . S
N61 Zn67 2.020 . S
C62 N61 1.307 . S
C62 C66 1.370 . S
C62 H73 0.948 . S
C63 N61 1.333 . S
C63 C64 1.379 . S
C63 H71 0.952 . S
C64 C63 1.379 . S
C64 C65 1.390 . S
C64 H84 0.949 . S
C65 C64 1.390 . S
C65 C66 1.357 . S
C66 C62 1.370 . S
C66 C65 1.357 . S
C66 H85 0.950 . S
Zn67 N61 2.020 . S
Zn67 O70 2.025 1_655 S
Zn67 O75 2.024 1_655 S
Zn67 O77 2.039 1_565 S
Zn67 O79 2.034 1_565 S
O68 C52 1.251 . S
O68 Zn59 2.039 1_565 S
C69 O74 1.246 . S
C69 O75 1.249 . S
O70 C52 1.254 . S
O70 Zn67 2.025 1_455 S
H71 C63 0.952 . S
H72 C54 0.952 . S
H73 C62 0.948 . S
O74 Zn59 2.034 1_565 S
O74 C69 1.246 . S
O75 Zn67 2.024 1_455 S
O75 C69 1.249 . S
H76 C58 0.948 . S
O77 Zn67 2.039 1_545 S
O77 C81 1.251 . S
O78 Zn59 2.025 1_655 S
O78 C81 1.254 . S
O79 C60 1.246 . S
O79 Zn67 2.034 1_545 S
O80 Zn59 2.024 1_655 S
O80 C60 1.249 . S
C81 O77 1.251 . S
C81 O78 1.254 . S
H82 C55 0.949 . S
H83 C57 0.950 . S
H84 C64 0.949 . S
H85 C66 0.950 . S
C86 O102 1.251 . S
C86 O104 1.254 . S
N87 C88 1.333 1_554 S
N87 C92 1.307 . S
N87 Zn93 2.020 . S
C88 N87 1.333 1_556 S
C88 C89 1.379 . S
C88 H106 0.952 . S
C89 C88 1.379 . S
C89 C90 1.390 1_556 S
C89 H116 0.949 . S
C90 C89 1.390 1_554 S
C90 C91 1.357 . S
C91 C90 1.357 . S
C91 C92 1.370 . S
C91 H117 0.950 . S
C92 N87 1.307 . S
C92 C91 1.370 . S
C92 H110 0.948 . S
Zn93 N87 2.020 . S
Zn93 O102 2.039 1_554 S
Zn93 O108 2.034 . S
Zn93 O112 2.025 . S
Zn93 O114 2.024 1_554 S
C94 O113 1.246 . S
C94 O114 1.249 . S
N95 C96 1.307 1_554 S
N95 C97 1.333 . S
N95 Zn101 2.020 . S
C96 N95 1.307 1_556 S
C96 C100 1.370 . S
C96 H107 0.948 . S
C97 N95 1.333 . S
C97 C98 1.379 . S
C97 H105 0.952 . S
C98 C97 1.379 . S
C98 C99 1.390 . S
C98 H118 0.949 . S
C99 C98 1.390 . S
C99 C100 1.357 1_554 S
C100 C96 1.370 . S
C100 C99 1.357 1_556 S
C100 H119 0.950 . S
Zn101 N95 2.020 . S
Zn101 O104 2.025 1_554 S
Zn101 O109 2.024 . S
Zn101 O111 2.039 . S
Zn101 O113 2.034 1_554 S
O102 C86 1.251 . S
O102 Zn93 2.039 1_556 S
C103 O108 1.246 . S
C103 O109 1.249 . S
O104 C86 1.254 . S
O104 Zn101 2.025 1_556 S
H105 C97 0.952 . S
H106 C88 0.952 . S
H107 C96 0.948 . S
O108 Zn93 2.034 . S
O108 C103 1.246 . S
O109 Zn101 2.024 . S
O109 C103 1.249 . S
H110 C92 0.948 . S
O111 Zn101 2.039 . S
O111 C115 1.251 . S
O112 Zn93 2.025 . S
O112 C115 1.254 . S
O113 C94 1.246 . S
O113 Zn101 2.034 1_556 S
O114 Zn93 2.024 1_556 S
O114 C94 1.249 . S
C115 O111 1.251 . S
C115 O112 1.254 . S
H116 C89 0.949 . S
H117 C91 0.950 . S
H118 C98 0.949 . S
H119 C100 0.950 . S
H120 C126 0.930 . S
H121 C129 0.930 . S
H122 C130 0.930 . S
H123 C131 0.930 . S
H124 C134 0.930 . S
H125 C135 0.930 . S
C126 H120 0.930 . S
C126 C127 1.355 . S
C126 C128 1.415 . S
C127 C126 1.355 . S
C127 C129 1.419 . S
C128 C126 1.415 . S
C128 C133 1.425 . S
C128 C135 1.409 . S
C129 H121 0.930 . S
C129 C127 1.419 . S
C129 C130 1.362 . S
C130 H122 0.930 . S
C130 C129 1.362 . S
C130 C133 1.409 . S
C131 H123 0.930 . S
C131 C132 1.355 . S
C131 C133 1.415 . S
C132 C131 1.355 . S
C132 C134 1.419 . S
C133 C128 1.425 . S
C133 C130 1.409 . S
C133 C131 1.415 . S
C134 H124 0.930 . S
C134 C132 1.419 . S
C134 C135 1.362 . S
C135 H125 0.930 . S
C135 C128 1.409 . S
C135 C134 1.362 . S
H136 C142 0.930 . S
H137 C145 0.930 . S
H138 C146 0.930 . S
H139 C147 0.930 . S
H140 C150 0.930 . S
H141 C151 0.930 . S
C142 H136 0.930 . S
C142 C143 1.355 1_556 S
C142 C144 1.415 . S
C143 C142 1.355 1_554 S
C143 C145 1.419 . S
C144 C142 1.415 . S
C144 C149 1.425 1_556 S
C144 C151 1.409 . S
C145 H137 0.930 . S
C145 C143 1.419 . S
C145 C146 1.362 . S
C146 H138 0.930 . S
C146 C145 1.362 . S
C146 C149 1.409 . S
C147 H139 0.930 . S
C147 C148 1.355 . S
C147 C149 1.415 . S
C148 C147 1.355 . S
C148 C150 1.419 1_554 S
C149 C144 1.425 1_554 S
C149 C146 1.409 . S
C149 C147 1.415 . S
C150 H140 0.930 . S
C150 C148 1.419 1_556 S
C150 C151 1.362 . S
C151 H141 0.930 . S
C151 C144 1.409 . S
C151 C150 1.362 . S
H152 C158 0.930 . S
H153 C161 0.930 . S
H154 C162 0.930 . S
H155 C163 0.930 . S
H156 C166 0.930 . S
H157 C167 0.930 . S
C158 H152 0.930 . S
C158 C159 1.355 . S
C158 C160 1.415 . S
C159 C158 1.355 . S
C159 C161 1.419 . S
C160 C158 1.415 . S
C160 C165 1.425 . S
C160 C167 1.409 . S
C161 H153 0.930 . S
C161 C159 1.419 . S
C161 C162 1.362 . S
C162 H154 0.930 . S
C162 C161 1.362 . S
C162 C165 1.409 . S
C163 H155 0.930 . S
C163 C164 1.355 . S
C163 C165 1.415 . S
C164 C163 1.355 . S
C164 C166 1.419 . S
C165 C160 1.425 . S
C165 C162 1.409 . S
C165 C163 1.415 . S
C166 H156 0.930 . S
C166 C164 1.419 . S
C166 C167 1.362 . S
C167 H157 0.930 . S
C167 C160 1.409 . S
C167 C166 1.362 . S
H168 C174 0.930 . S
H169 C177 0.930 . S
H170 C178 0.930 . S
H171 C179 0.930 . S
H172 C182 0.930 . S
H173 C183 0.930 . S
C174 H168 0.930 . S
C174 C175 1.355 1_556 S
C174 C176 1.415 . S
C175 C174 1.355 1_554 S
C175 C177 1.419 . S
C176 C174 1.415 . S
C176 C181 1.425 1_556 S
C176 C183 1.409 . S
C177 H169 0.930 . S
C177 C175 1.419 . S
C177 C178 1.362 . S
C178 H170 0.930 . S
C178 C177 1.362 . S
C178 C181 1.409 . S
C179 H171 0.930 . S
C179 C180 1.355 1_554 S
C179 C181 1.415 . S
C180 C179 1.355 1_556 S
C180 C182 1.419 . S
C181 C176 1.425 1_554 S
C181 C178 1.409 . S
C181 C179 1.415 . S
C182 H172 0.930 . S
C182 C180 1.419 . S
C182 C183 1.362 . S
C183 H173 0.930 . S
C183 C176 1.409 . S
C183 C182 1.362 . S
H184 C190 0.930 . S
H185 C193 0.930 . S
H186 C194 0.930 . S
H187 C195 0.930 . S
H188 C198 0.930 1_545 S
H189 C199 0.930 . S
C190 H184 0.930 . S
C190 C191 1.355 . S
C190 C192 1.415 . S
C191 C190 1.355 . S
C191 C193 1.419 . S
C192 C190 1.415 . S
C192 C197 1.425 . S
C192 C199 1.409 . S
C193 H185 0.930 . S
C193 C191 1.419 . S
C193 C194 1.362 . S
C194 H186 0.930 . S
C194 C193 1.362 . S
C194 C197 1.409 . S
C195 H187 0.930 . S
C195 C196 1.355 . S
C195 C197 1.415 . S
C196 C195 1.355 . S
C196 C198 1.419 . S
C197 C192 1.425 . S
C197 C194 1.409 . S
C197 C195 1.415 . S
C198 H188 0.930 1_565 S
C198 C196 1.419 . S
C198 C199 1.362 . S
C199 H189 0.930 . S
C199 C192 1.409 . S
C199 C198 1.362 . S
H200 C206 0.930 . S
H201 C209 0.930 . S
H202 C210 0.930 . S
H203 C211 0.930 . S
H204 C214 0.930 . S
H205 C215 0.930 . S
C206 H200 0.930 . S
C206 C207 1.355 . S
C206 C208 1.415 . S
C207 C206 1.355 . S
C207 C209 1.419 . S
C208 C206 1.415 . S
C208 C213 1.425 . S
C208 C215 1.409 . S
C209 H201 0.930 . S
C209 C207 1.419 . S
C209 C210 1.362 . S
C210 H202 0.930 . S
C210 C209 1.362 . S
C210 C213 1.409 . S
C211 H203 0.930 . S
C211 C212 1.355 . S
C211 C213 1.415 . S
C212 C211 1.355 . S
C212 C214 1.419 . S
C213 C208 1.425 . S
C213 C210 1.409 . S
C213 C211 1.415 . S
C214 H204 0.930 . S
C214 C212 1.419 . S
C214 C215 1.362 . S
C215 H205 0.930 . S
C215 C208 1.409 . S
C215 C214 1.362 . S
H216 C222 0.930 . S
H217 C225 0.930 . S
H218 C226 0.930 . S
H219 C227 0.930 . S
H220 C230 0.930 . S
H221 C231 0.930 . S
C222 H216 0.930 . S
C222 C223 1.355 . S
C222 C224 1.415 . S
C223 C222 1.355 . S
C223 C225 1.419 . S
C224 C222 1.415 . S
C224 C229 1.425 . S
C224 C231 1.409 . S
C225 H217 0.930 . S
C225 C223 1.419 . S
C225 C226 1.362 . S
C226 H218 0.930 . S
C226 C225 1.362 . S
C226 C229 1.409 . S
C227 H219 0.930 . S
C227 C228 1.355 . S
C227 C229 1.415 . S
C228 C227 1.355 . S
C228 C230 1.419 . S
C229 C224 1.425 . S
C229 C226 1.409 . S
C229 C227 1.415 . S
C230 H220 0.930 . S
C230 C228 1.419 . S
C230 C231 1.362 . S
C231 H221 0.930 . S
C231 C224 1.409 . S
C231 C230 1.362 . S
H232 C238 0.930 . S
H233 C241 0.930 . S
H234 C242 0.930 . S
H235 C243 0.930 . S
H236 C246 0.930 . S
H237 C247 0.930 . S
C238 H232 0.930 . S
C238 C239 1.355 . S
C238 C240 1.415 . S
C239 C238 1.355 . S
C239 C241 1.419 . S
C240 C238 1.415 . S
C240 C245 1.425 . S
C240 C247 1.409 . S
C241 H233 0.930 . S
C241 C239 1.419 . S
C241 C242 1.362 . S
C242 H234 0.930 . S
C242 C241 1.362 . S
C242 C245 1.409 . S
C243 H235 0.930 . S
C243 C244 1.355 . S
C243 C245 1.415 . S
C244 C243 1.355 . S
C244 C246 1.419 . S
C245 C240 1.425 . S
C245 C242 1.409 . S
C245 C243 1.415 . S
C246 H236 0.930 . S
C246 C244 1.419 . S
C246 C247 1.362 . S
C247 H237 0.930 . S
C247 C240 1.409 . S
C247 C246 1.362 . S
H248 C254 0.930 . S
H249 C257 0.930 . S
H250 C258 0.930 . S
H251 C259 0.930 . S
H252 C262 0.930 . S
H253 C263 0.930 . S
C254 H248 0.930 . S
C254 C255 1.355 . S
C254 C256 1.415 . S
C255 C254 1.355 . S
C255 C257 1.419 . S
C256 C254 1.415 . S
C256 C261 1.425 . S
C256 C263 1.409 . S
C257 H249 0.930 . S
C257 C255 1.419 . S
C257 C258 1.362 . S
C258 H250 0.930 . S
C258 C257 1.362 . S
C258 C261 1.409 . S
C259 H251 0.930 . S
C259 C260 1.355 . S
C259 C261 1.415 . S
C260 C259 1.355 . S
C260 C262 1.419 . S
C261 C256 1.425 . S
C261 C258 1.409 . S
C261 C259 1.415 . S
C262 H252 0.930 . S
C262 C260 1.419 . S
C262 C263 1.362 . S
C263 H253 0.930 . S
C263 C256 1.409 . S
C263 C262 1.362 . S
H264 C270 0.930 . S
H265 C273 0.930 . S
H266 C274 0.930 . S
H267 C275 0.930 . S
H268 C278 0.931 1_565 S
H269 C279 0.930 . S
C270 H264 0.930 . S
C270 C271 1.355 . S
C270 C272 1.415 . S
C271 C270 1.355 . S
C271 C273 1.419 . S
C272 C270 1.415 . S
C272 C277 1.425 . S
C272 C279 1.409 . S
C273 H265 0.930 . S
C273 C271 1.419 . S
C273 C274 1.362 . S
C274 H266 0.930 . S
C274 C273 1.362 . S
C274 C277 1.409 . S
C275 H267 0.930 . S
C275 C276 1.355 . S
C275 C277 1.415 . S
C276 C275 1.355 . S
C276 C278 1.419 . S
C277 C272 1.425 . S
C277 C274 1.409 . S
C277 C275 1.415 . S
C278 H268 0.931 1_545 S
C278 C276 1.419 . S
C278 C279 1.362 . S
C279 H269 0.930 . S
C279 C272 1.409 . S
C279 C278 1.362 . S
H280 C286 0.930 . S
H281 C289 0.930 . S
H282 C290 0.930 . S
H283 C291 0.930 . S
H284 C294 0.930 . S
H285 C295 0.930 . S
C286 H280 0.930 . S
C286 C287 1.355 . S
C286 C288 1.415 . S
C287 C286 1.355 . S
C287 C289 1.419 . S
C288 C286 1.415 . S
C288 C293 1.425 . S
C288 C295 1.409 . S
C289 H281 0.930 . S
C289 C287 1.419 . S
C289 C290 1.362 . S
C290 H282 0.930 . S
C290 C289 1.362 . S
C290 C293 1.409 . S
C291 H283 0.930 . S
C291 C292 1.355 . S
C291 C293 1.415 . S
C292 C291 1.355 . S
C292 C294 1.419 . S
C293 C288 1.425 . S
C293 C290 1.409 . S
C293 C291 1.415 . S
C294 H284 0.930 . S
C294 C292 1.419 . S
C294 C295 1.362 . S
C295 H285 0.930 . S
C295 C288 1.409 . S
C295 C294 1.362 . S
H296 C302 0.930 . S
H297 C305 0.930 . S
H298 C306 0.930 . S
H299 C307 0.930 . S
H300 C310 0.930 . S
H301 C311 0.930 . S
C302 H296 0.930 . S
C302 C303 1.355 . S
C302 C304 1.415 . S
C303 C302 1.355 . S
C303 C305 1.419 . S
C304 C302 1.415 . S
C304 C309 1.425 . S
C304 C311 1.409 . S
C305 H297 0.930 . S
C305 C303 1.419 . S
C305 C306 1.362 . S
C306 H298 0.930 . S
C306 C305 1.362 . S
C306 C309 1.409 . S
C307 H299 0.930 . S
C307 C308 1.355 . S
C307 C309 1.415 . S
C308 C307 1.355 . S
C308 C310 1.419 . S
C309 C304 1.425 . S
C309 C306 1.409 . S
C309 C307 1.415 . S
C310 H300 0.930 . S
C310 C308 1.419 . S
C310 C311 1.362 . S
C311 H301 0.930 . S
C311 C304 1.409 . S
C311 C310 1.362 . S
C132 C56 1.503 . S
C127 N41 1.506 . S
C143 N2 1.507 . S
C148 C99 1.497 . S
C159 N15 1.509 . S
C164 C65 1.506 . S
C175 N28 1.499 . S
C180 C90 1.511 1_556 S
C196 C52 1.514 . S
C191 N5 1.499 . S
C212 C94 1.515 . S
C207 N14 1.491 . S
C223 N27 1.505 . S
C228 C60 1.502 . S
C239 N44 1.510 . S
C244 C86 1.509 . S
C260 C115 1.511 . S
C255 N18 1.501 . S
C276 C81 1.512 . S
C271 N31 1.503 . S
C292 C103 1.501 . S
C287 N40 1.509 . S
C303 N1 1.497 . S
C308 C69 1.517 . S
