# Generated by pormake.
# Topology zzz, (3,6)-cn, num edge types: 1
# Building blocks:
#     Node 0, Type 0, BuildingBlock: PAMTOO_clean_linker_0, # of connection points: 3
#     Node 1, Type 0, BuildingBlock: PAMTOO_clean_linker_0, # of connection points: 3
#     Node 2, Type 0, BuildingBlock: PAMTOO_clean_linker_0, # of connection points: 3
#     Node 3, Type 0, BuildingBlock: PAMTOO_clean_linker_0, # of connection points: 3
#     Node 4, Type 0, BuildingBlock: PAMTOO_clean_linker_0, # of connection points: 3
#     Node 5, Type 0, BuildingBlock: PAMTOO_clean_linker_0, # of connection points: 3
#     Node 6, Type 0, BuildingBlock: PAMTOO_clean_linker_0, # of connection points: 3
#     Node 7, Type 0, BuildingBlock: PAMTOO_clean_linker_0, # of connection points: 3
#     Node 8, Type 1, BuildingBlock: MIFKUJ_clean_sbu_0, # of connection points: 6
#     Node 9, Type 1, BuildingBlock: MIFKUJ_clean_sbu_0, # of connection points: 6
#     Node 10, Type 1, BuildingBlock: MIFKUJ_clean_sbu_0, # of connection points: 6
#     Node 11, Type 1, BuildingBlock: MIFKUJ_clean_sbu_0, # of connection points: 6
#     Edge 12, Type (0, 1), BuildingBlock: ZUJKAS_clean_linker_0, # of connection points: 2
#     Edge 13, Type (0, 1), BuildingBlock: ZUJKAS_clean_linker_0, # of connection points: 2
#     Edge 14, Type (0, 1), BuildingBlock: ZUJKAS_clean_linker_0, # of connection points: 2
#     Edge 15, Type (0, 1), BuildingBlock: ZUJKAS_clean_linker_0, # of connection points: 2
#     Edge 16, Type (0, 1), BuildingBlock: ZUJKAS_clean_linker_0, # of connection points: 2
#     Edge 17, Type (0, 1), BuildingBlock: ZUJKAS_clean_linker_0, # of connection points: 2
#     Edge 18, Type (0, 1), BuildingBlock: ZUJKAS_clean_linker_0, # of connection points: 2
#     Edge 19, Type (0, 1), BuildingBlock: ZUJKAS_clean_linker_0, # of connection points: 2
#     Edge 20, Type (0, 1), BuildingBlock: ZUJKAS_clean_linker_0, # of connection points: 2
#     Edge 21, Type (0, 1), BuildingBlock: ZUJKAS_clean_linker_0, # of connection points: 2
#     Edge 22, Type (0, 1), BuildingBlock: ZUJKAS_clean_linker_0, # of connection points: 2
#     Edge 23, Type (0, 1), BuildingBlock: ZUJKAS_clean_linker_0, # of connection points: 2
#     Edge 24, Type (0, 1), BuildingBlock: ZUJKAS_clean_linker_0, # of connection points: 2
#     Edge 25, Type (0, 1), BuildingBlock: ZUJKAS_clean_linker_0, # of connection points: 2
#     Edge 26, Type (0, 1), BuildingBlock: ZUJKAS_clean_linker_0, # of connection points: 2
#     Edge 27, Type (0, 1), BuildingBlock: ZUJKAS_clean_linker_0, # of connection points: 2
#     Edge 28, Type (0, 1), BuildingBlock: ZUJKAS_clean_linker_0, # of connection points: 2
#     Edge 29, Type (0, 1), BuildingBlock: ZUJKAS_clean_linker_0, # of connection points: 2
#     Edge 30, Type (0, 1), BuildingBlock: ZUJKAS_clean_linker_0, # of connection points: 2
#     Edge 31, Type (0, 1), BuildingBlock: ZUJKAS_clean_linker_0, # of connection points: 2
#     Edge 32, Type (0, 1), BuildingBlock: ZUJKAS_clean_linker_0, # of connection points: 2
#     Edge 33, Type (0, 1), BuildingBlock: ZUJKAS_clean_linker_0, # of connection points: 2
#     Edge 34, Type (0, 1), BuildingBlock: ZUJKAS_clean_linker_0, # of connection points: 2
#     Edge 35, Type (0, 1), BuildingBlock: ZUJKAS_clean_linker_0, # of connection points: 2
# Relax obj value: 0.112
# Max RMSD: 0.116
# Mean RMSD: 0.084
data_MOF--net-zzz--node1-MIFKUJ_clean_sbu_0--node2-PAMTOO_clean_linker_0--edge1-ZUJKAS_clean_linker_0
_symmetry_space_group_name_H-M    P1
_symmetry_Int_Tables_number       1
_symmetry_cell_setting            triclinic
loop_
_symmetry_equiv_pos_as_xyz
'x, y, z'
_cell_length_a     65.649597
_cell_length_b     65.254615
_cell_length_c     20.493258
_cell_angle_alpha  90.142092
_cell_angle_beta   89.997435
_cell_angle_gamma 90.043614
loop_
_atom_site_label
_atom_site_type_symbol
_atom_site_fract_x
_atom_site_fract_y
_atom_site_fract_z
_atom_type_partial_charge
H0 H 0.80141 0.48297 0.09252 0.0
H1 H 0.74347 0.49417 0.00122 0.0
H2 H 0.75294 0.5109 0.20205 0.0
H3 H 0.70237 0.50503 0.16349 0.0
C4 C 0.70972 0.49861 0.11914 0.0
O5 O 0.72666 0.51034 0.1044 0.0
H6 H 0.71417 0.48254 0.13077 0.0
C7 C 0.78564 0.48781 0.09585 0.0
C8 C 0.77861 0.49638 0.15444 0.0
C9 C 0.77325 0.48701 0.04011 0.0
C10 C 0.75323 0.49444 0.04388 0.0
C11 C 0.74581 0.5027 0.10241 0.0
C12 C 0.75857 0.50395 0.15751 0.0
H13 H 0.01925 0.79287 0.11282 0.0
H14 H 0.00798 0.73552 0.01551 0.0
H15 H 0.99481 0.74195 0.22026 0.0
H16 H 1.0039 0.69338 0.17933 0.0
C17 C 0.00793 0.70027 0.13149 0.0
O18 O 0.99497 0.71654 0.11966 0.0
H19 H 0.02408 0.70543 0.13544 0.0
C20 C 0.01482 0.77686 0.11484 0.0
C21 C 0.00746 0.76883 0.17363 0.0
C22 C 0.01497 0.7651 0.05751 0.0
C23 C 0.00818 0.74474 0.05957 0.0
C24 C 1.00138 0.73625 0.11847 0.0
C25 C 1.00065 0.74839 0.17532 0.0
H26 H 0.70908 0.02762 0.0991 0.0
H27 H 0.76599 0.02031 0.99745 0.0
H28 H 0.76017 1.00011 0.19619 0.0
H29 H 0.80766 0.01202 0.15749 0.0
C30 C 0.80154 0.01602 0.1086 0.0
O31 O 0.78505 0.00351 0.0952 0.0
H32 H 0.79695 0.03246 0.11087 0.0
C33 C 0.72506 0.02341 0.09908 0.0
C34 C 0.73329 0.01422 0.15484 0.0
C35 C 0.73656 0.02558 0.04178 0.0
C36 C 0.7569 0.01897 0.04136 0.0
C37 C 0.76554 0.01019 0.09726 0.0
C38 C 0.75365 0.00751 0.1538 0.0
H39 H 0.52481 0.71325 0.08212 0.0
H40 H 0.51827 0.77328 0.99883 0.0
H41 H 0.52709 0.76653 0.20602 0.0
H42 H 0.50485 0.81134 0.16351 0.0
C43 C 0.50592 0.80491 0.11337 0.0
O44 O 0.52326 0.79299 0.10902 0.0
H45 H 0.49189 0.79561 0.10532 0.0
C46 C 0.5245 0.72978 0.08799 0.0
C47 C 0.52648 0.73829 0.15041 0.0
C48 C 0.52126 0.74221 0.03341 0.0
C49 C 0.52054 0.76353 0.04094 0.0
C50 C 0.52286 0.77234 0.103 0.0
C51 C 0.52547 0.7597 0.15806 0.0
H52 H 0.21876 0.53585 0.1021 0.0
H53 H 0.27578 0.53087 0.20399 0.0
H54 H 0.27089 0.51013 0.00507 0.0
H55 H 0.30545 0.48588 0.08554 0.0
C56 C 0.30207 0.49583 0.12831 0.0
O57 O 0.29563 0.51474 0.1061 0.0
H58 H 0.2899 0.48804 0.15699 0.0
C59 C 0.23487 0.53214 0.10219 0.0
C60 C 0.2435 0.52332 0.04629 0.0
C61 C 0.24622 0.5347 0.15957 0.0
C62 C 0.26681 0.529 0.16003 0.0
C63 C 0.27576 0.52027 0.10439 0.0
C64 C 0.26403 0.51718 0.04764 0.0
H65 H 0.02227 0.21136 0.11839 0.0
H66 H 0.00977 0.2709 0.19917 0.0
H67 H 0.02131 0.2642 0.99336 0.0
H68 H 0.03287 0.31116 0.0452 0.0
C69 C 0.03056 0.30373 0.09336 0.0
O70 O 0.01412 0.29054 0.08882 0.0
H71 H 0.04493 0.2953 0.10436 0.0
C72 C 0.02087 0.22781 0.11215 0.0
C73 C 0.02261 0.23621 0.04962 0.0
C74 C 0.01605 0.24011 0.16609 0.0
C75 C 0.01352 0.26125 0.15778 0.0
C76 C 0.01594 0.27001 0.09585 0.0
C77 C 0.02003 0.25744 0.04142 0.0
H78 H 0.29568 0.96874 0.09795 0.0
H79 H 0.24048 0.97499 0.20911 0.0
H80 H 0.2459 0.00417 0.02176 0.0
H81 H 0.21441 0.02736 0.11771 0.0
C82 C 0.21691 0.01507 0.15432 0.0
O83 O 0.22148 0.99703 0.122 0.0
H84 H 0.22981 0.02011 0.18589 0.0
C85 C 0.28009 0.97412 0.10194 0.0
C86 C 0.27206 0.98645 0.05239 0.0
C87 C 0.269 0.97012 0.15894 0.0
C88 C 0.24918 0.97787 0.16515 0.0
C89 C 0.24072 0.98989 0.11542 0.0
C90 C 0.25229 0.99448 0.0594 0.0
H91 H 0.48117 0.2957 0.12091 0.0
H92 H 0.49311 0.23509 0.19302 0.0
H93 H 0.48102 0.24437 0.98872 0.0
H94 H 0.46947 0.19654 0.0357 0.0
C95 C 0.47208 0.20354 0.08448 0.0
O96 O 0.48843 0.21686 0.08022 0.0
H97 H 0.45776 0.21177 0.09744 0.0
C98 C 0.48223 0.27931 0.11237 0.0
C99 C 0.48019 0.27171 0.04871 0.0
C100 C 0.48705 0.26633 0.16446 0.0
C101 C 0.48931 0.24528 0.15315 0.0
C102 C 0.48663 0.23729 0.09016 0.0
C103 C 0.48248 0.25054 0.03761 0.0
Zn104 Zn 0.99735 0.02622 0.5799 0.0
Zn105 Zn 0.01035 0.98105 0.6351 0.0
C106 C 0.99554 0.05462 0.6807 0.0
O107 O 0.97667 0.0535 0.65951 0.0
C108 C 0.01464 0.95433 0.53015 0.0
O109 O 0.03337 0.95681 0.55138 0.0
O110 O 0.98907 0.04995 0.52341 0.0
O111 O 0.01964 0.01184 0.52872 0.0
O112 O 0.03547 0.99753 0.61132 0.0
C113 C 1.00398 0.06185 0.51189 0.0
O114 O 0.02231 0.05622 0.53038 0.0
O115 O 0.00854 0.04203 0.65775 0.0
C116 C 0.00469 0.94386 0.69421 0.0
O117 O 0.98677 0.94834 0.66946 0.0
O118 O 0.0189 0.95708 0.69051 0.0
O119 O 0.98707 0.99396 0.68579 0.0
O120 O 0.97179 0.01126 0.60775 0.0
O121 O 1.00065 0.96552 0.55447 0.0
C122 C 0.03598 0.00527 0.55449 0.0
C123 C 0.97117 1.0024 0.66288 0.0
Zn124 Zn 0.47863 0.99403 0.57184 0.0
Zn125 Zn 0.52435 0.01245 0.61403 0.0
C126 C 0.45313 0.99078 0.68254 0.0
O127 O 0.4575 0.97146 0.67116 0.0
C128 C 0.54783 0.01296 0.49944 0.0
O129 O 0.5441 0.03254 0.50861 0.0
O130 O 0.4569 0.97964 0.5199 0.0
O131 O 0.48803 0.01765 0.51478 0.0
O132 O 0.50631 0.03578 0.58453 0.0
C133 C 0.44081 0.99012 0.51128 0.0
O134 O 0.4405 0.00928 0.53114 0.0
O135 O 0.46208 0.00451 0.64902 0.0
C136 C 0.56316 0.01179 0.66494 0.0
O137 O 0.56005 0.99276 0.64636 0.0
O138 O 0.54861 0.02458 0.66051 0.0
O139 O 0.51352 0.99083 0.67599 0.0
O140 O 0.49807 0.97193 0.60213 0.0
O141 O 0.53862 0.99996 0.53515 0.0
C142 C 0.49581 0.03464 0.5325 0.0
C143 C 0.50672 0.97355 0.65736 0.0
Zn144 Zn 0.51656 0.47877 0.57783 0.0
Zn145 Zn 0.50562 0.5281 0.6207 0.0
C146 C 0.51454 0.45332 0.68674 0.0
O147 O 0.53412 0.45393 0.67367 0.0
C148 C 0.50199 0.55568 0.518 0.0
O149 O 0.48329 0.55395 0.54027 0.0
O150 O 0.52396 0.45343 0.52708 0.0
O151 O 0.49662 0.49398 0.51978 0.0
O152 O 0.48067 0.51149 0.59605 0.0
C153 C 0.50844 0.4423 0.51564 0.0
O154 O 0.49032 0.44943 0.53077 0.0
O155 O 0.50267 0.46516 0.65524 0.0
C156 C 0.51116 0.56463 0.68467 0.0
O157 O 0.52952 0.55946 0.66504 0.0
O158 O 0.49659 0.55209 0.67546 0.0
O159 O 0.52901 0.51571 0.67218 0.0
O160 O 0.54271 0.49217 0.60812 0.0
O161 O 0.51558 0.54371 0.54075 0.0
C162 C 0.48052 0.50252 0.54092 0.0
C163 C 0.54388 0.50418 0.65692 0.0
Zn164 Zn 0.03347 0.51173 0.58628 0.0
Zn165 Zn 0.98586 0.49566 0.62413 0.0
C166 C 0.05915 0.51756 0.69338 0.0
O167 O 0.05524 0.53634 0.67414 0.0
C168 C 0.96368 0.49323 0.50794 0.0
O169 O 0.96644 0.47386 0.52288 0.0
O170 O 0.05644 0.52324 0.53239 0.0
O171 O 0.02345 0.48737 0.53339 0.0
O172 O 1.00328 0.47109 0.60204 0.0
C173 C 0.07138 0.51088 0.52899 0.0
O174 O 0.06932 0.49242 0.55366 0.0
O175 O 0.04931 0.50288 0.66697 0.0
C176 C 0.9461 0.4984 0.66803 0.0
O177 O 0.94965 0.5168 0.64474 0.0
O178 O 0.96057 0.48545 0.6696 0.0
O179 O 0.99673 0.51814 0.68294 0.0
O180 O 0.01481 0.53524 0.61075 0.0
O181 O 0.97317 0.5068 0.54086 0.0
C182 C 0.01449 0.47106 0.55148 0.0
C183 C 0.00493 0.53475 0.66407 0.0
H184 H 0.21439 0.99809 0.27618 0.0
H185 H 0.18411 0.99424 0.34565 0.0
H186 H 0.14718 0.02192 0.19576 0.0
H187 H 0.17734 0.02542 0.12604 0.0
H188 H 0.15896 0.02449 0.39394 0.0
H189 H 0.11458 0.9709 0.23931 0.0
H190 H 0.14133 0.97577 0.22611 0.0
H191 H 0.12251 0.99351 0.1966 0.0
C192 C 0.19975 1.0032 0.25812 0.0
C193 C 0.19818 0.01221 0.19612 0.0
C194 C 0.18249 1.00103 0.29774 0.0
C195 C 0.1633 0.00759 0.27575 0.0
C196 C 0.16172 0.01638 0.2134 0.0
H197 H 0.04207 0.02094 0.43241 0.0
H198 H 0.0734 0.02096 0.36818 0.0
C199 C 0.17896 0.01852 0.17377 0.0
C200 C 0.1451 0.00602 0.31888 0.0
H201 H 0.09658 0.98712 0.32639 0.0
C202 C 0.14539 0.01615 0.37947 0.0
C203 C 0.12738 0.99513 0.30006 0.0
C204 C 0.12644 0.98304 0.23727 0.0
C205 C 0.12825 0.01624 0.42069 0.0
C206 C 0.11041 0.00567 0.40126 0.0
C207 C 0.11023 0.99528 0.34116 0.0
C208 C 0.09154 0.00572 0.44153 0.0
C209 C 0.12914 0.02821 0.48372 0.0
C210 C 0.09124 0.99702 0.50419 0.0
C211 C 0.07329 0.99699 0.54127 0.0
C212 C 0.05525 0.00557 0.51626 0.0
C213 C 0.05564 0.0142 0.45337 0.0
C214 C 0.07356 0.01421 0.41643 0.0
H215 H 0.14211 0.03916 0.48451 0.0
H216 H 0.1148 0.03687 0.4917 0.0
H217 H 0.13109 0.01742 0.525 0.0
H218 H 0.10484 0.99006 0.52415 0.0
H219 H 0.07352 0.99009 0.58927 0.0
H220 H 0.48899 0.16556 0.06512 0.0
H221 H 0.49377 0.13806 0.14523 0.0
H222 H 0.47008 0.1774 0.29666 0.0
H223 H 0.46503 0.20481 0.2163 0.0
H224 H 0.51622 0.13617 0.26063 0.0
H225 H 0.43354 0.1266 0.30927 0.0
H226 H 0.44308 0.14108 0.24085 0.0
H227 H 0.44296 0.15219 0.3212 0.0
C228 C 0.48483 0.16828 0.11555 0.0
C229 C 0.47624 0.1871 0.13444 0.0
C230 C 0.4876 0.15262 0.16127 0.0
C231 C 0.48188 0.1555 0.22672 0.0
C232 C 0.47414 0.17464 0.24617 0.0
H233 H 0.51309 0.07272 0.54795 0.0
H234 H 0.50994 0.10241 0.47581 0.0
C235 C 0.47135 0.1903 0.20042 0.0
C236 C 0.48378 0.13837 0.27416 0.0
H237 H 0.45609 0.10713 0.37433 0.0
C238 C 0.50309 0.12985 0.28563 0.0
C239 C 0.4666 0.12994 0.30611 0.0
C240 C 0.44533 0.13776 0.29347 0.0
C241 C 0.50569 0.11322 0.32842 0.0
C242 C 0.48855 0.10506 0.36133 0.0
C243 C 0.46924 0.11352 0.34958 0.0
C244 C 0.4902 0.08725 0.40624 0.0
C245 C 0.52668 0.1042 0.33673 0.0
C246 C 0.47971 0.06901 0.39219 0.0
C247 C 0.48137 0.05205 0.43348 0.0
C248 C 0.49348 0.05297 0.49011 0.0
C249 C 0.50368 0.07142 0.50473 0.0
C250 C 0.50202 0.08838 0.46327 0.0
H251 H 0.53713 0.10891 0.29685 0.0
H252 H 0.53325 0.1096 0.3836 0.0
H253 H 0.526 0.0872 0.33802 0.0
H254 H 0.47041 0.06781 0.34865 0.0
H255 H 0.47323 0.03816 0.42071 0.0
H256 H 0.34182 0.48567 0.10075 0.0
H257 H 0.37156 0.48806 0.17284 0.0
H258 H 0.33394 0.51461 0.32347 0.0
H259 H 0.30408 0.5116 0.25211 0.0
H260 H 0.39011 0.52055 0.23098 0.0
H261 H 0.36037 0.46801 0.42099 0.0
H262 H 0.34848 0.47055 0.34207 0.0
H263 H 0.34396 0.48937 0.40474 0.0
C264 C 0.33994 0.49197 0.14931 0.0
C265 C 0.32064 0.49826 0.17119 0.0
C266 C 0.35692 0.49337 0.19044 0.0
C267 C 0.35495 0.50112 0.25417 0.0
C268 C 0.33578 0.50806 0.27523 0.0
H269 H 0.44319 0.51941 0.56919 0.0
H270 H 0.41275 0.51992 0.49991 0.0
C271 C 0.31877 0.50654 0.23426 0.0
C272 C 0.37299 0.50198 0.29824 0.0
H273 H 0.39121 0.48535 0.44526 0.0
C274 C 0.39034 0.51281 0.27775 0.0
C275 C 0.37334 0.49189 0.3594 0.0
C276 C 0.35563 0.47913 0.38296 0.0
C277 C 0.40792 0.51395 0.31681 0.0
C278 C 0.40826 0.50381 0.37774 0.0
C279 C 0.39088 0.49317 0.39863 0.0
C280 C 0.42674 0.50358 0.41966 0.0
C281 C 0.42593 0.52619 0.2929 0.0
C282 C 0.44462 0.49397 0.39793 0.0
C283 C 0.462 0.49357 0.43742 0.0
C284 C 0.46188 0.50275 0.49967 0.0
C285 C 0.44385 0.51222 0.52155 0.0
C286 C 0.42643 0.51253 0.48203 0.0
H287 H 0.42156 0.53704 0.25363 0.0
H288 H 0.43301 0.53497 0.33349 0.0
H289 H 0.43756 0.51556 0.2729 0.0
H290 H 0.4451 0.48664 0.35047 0.0
H291 H 0.47553 0.48604 0.41902 0.0
H292 H 0.01558 0.34271 0.07903 0.0
H293 H 0.01185 0.36935 0.16291 0.0
H294 H 0.03278 0.32689 0.30929 0.0
H295 H 0.03687 0.30035 0.22509 0.0
H296 H 0.98919 0.37135 0.27686 0.0
H297 H 0.07201 0.37504 0.33103 0.0
H298 H 0.06199 0.36183 0.26055 0.0
H299 H 0.06091 0.35003 0.33964 0.0
C300 C 0.01935 0.33911 0.12916 0.0
C301 C 0.0269 0.31966 0.14556 0.0
C302 C 0.01718 0.35429 0.17704 0.0
C303 C 0.02244 0.35027 0.24221 0.0
C304 C 0.0291 0.33052 0.25912 0.0
H305 H 0.99465 0.43423 0.56662 0.0
H306 H 0.9963 0.40415 0.49501 0.0
C307 C 0.03132 0.31535 0.21118 0.0
C308 C 0.02133 0.3669 0.29189 0.0
H309 H 0.05041 0.39545 0.39652 0.0
C310 C 1.00255 0.37657 0.30325 0.0
C311 C 0.03883 0.37389 0.3257 0.0
C312 C 0.05963 0.36482 0.31337 0.0
C313 C 1.0008 0.39303 0.34736 0.0
C314 C 0.01825 0.39981 0.38184 0.0
C315 C 0.03701 0.39011 0.37057 0.0
C316 C 0.01763 0.41768 0.42705 0.0
C317 C 0.98042 0.40344 0.35513 0.0
C318 C 0.02954 0.43505 0.41387 0.0
C319 C 0.02875 0.45218 0.45488 0.0
C320 C 0.01609 0.45233 0.51032 0.0
C321 C 1.00452 0.4347 0.5243 0.0
C322 C 0.00532 0.41753 0.48312 0.0
H323 H 0.96985 0.39955 0.31457 0.0
H324 H 0.97329 0.39836 0.40146 0.0
H325 H 0.98223 0.42035 0.35723 0.0
H326 H 0.03923 0.43548 0.3711 0.0
H327 H 0.03794 0.46542 0.44262 0.0
H328 H 0.80403 0.0347 0.98925 0.0
H329 H 0.83092 0.03127 0.90651 0.0
H330 H 0.86225 0.98795 0.02942 0.0
H331 H 0.83523 0.99114 0.11148 0.0
H332 H 0.8717 0.04022 0.91983 0.0
H333 H 0.86196 0.95832 0.85504 0.0
H334 H 0.843 0.97251 0.90017 0.0
H335 H 0.8651 0.9625 0.94103 0.0
C336 C 0.81661 0.02436 0.99816 0.0
C337 C 0.81771 0.01334 0.05688 0.0
C338 C 0.83195 0.0224 0.95101 0.0
C339 C 0.84853 0.00919 0.96134 0.0
C340 C 0.84945 0.99794 0.01968 0.0
H341 H 0.96384 0.98268 0.77819 0.0
H342 H 0.93346 0.98466 0.84676 0.0
C343 C 0.8341 0.99988 0.06676 0.0
C344 C 0.86535 0.00792 0.91271 0.0
H345 H 0.89262 0.97437 0.8187 0.0
C346 C 0.87613 0.02586 0.89717 0.0
C347 C 0.87116 0.98918 0.88313 0.0
C348 C 0.85958 0.96957 0.89513 0.0
C349 C 0.89295 0.02546 0.85465 0.0
C350 C 0.89898 0.00666 0.82601 0.0
C351 C 0.88801 0.98877 0.84075 0.0
C352 C 0.91709 0.00511 0.78257 0.0
C353 C 0.90456 0.04506 0.84251 0.0
C354 C 0.91788 0.01566 0.72294 0.0
C355 C 0.93528 0.01456 0.68342 0.0
C356 C 0.95223 1.00284 0.70273 0.0
C357 C 0.95116 0.99194 0.76185 0.0
C358 C 0.93376 0.99302 0.80115 0.0
H359 H 0.90086 0.05705 0.8792 0.0
H360 H 0.92125 0.04226 0.84339 0.0
H361 H 0.90052 0.05106 0.79358 0.0
H362 H 0.90505 0.0248 0.70703 0.0
H363 H 0.93554 0.02311 0.63819 0.0
H364 H 0.4912 0.80514 0.9881 0.0
H365 H 0.4926 0.83307 0.90804 0.0
H366 H 0.52464 0.87083 0.04737 0.0
H367 H 0.52341 0.84284 0.12711 0.0
H368 H 0.47638 0.87261 0.9204 0.0
H369 H 0.56006 0.87568 0.88388 0.0
H370 H 0.54753 0.85423 0.92234 0.0
H371 H 0.55227 0.87736 0.96771 0.0
C372 C 0.49855 0.81942 0.00139 0.0
C373 C 0.50694 0.822 0.06395 0.0
C374 C 0.49936 0.83534 0.95574 0.0
C375 C 0.50887 0.854 0.97145 0.0
C376 C 0.5175 0.85648 0.03373 0.0
H377 H 0.52419 0.97141 0.77867 0.0
H378 H 0.52454 0.94223 0.85342 0.0
C379 C 0.51667 0.84057 0.07939 0.0
C380 C 0.50911 0.87112 0.92358 0.0
H381 H 0.54075 0.90289 0.83815 0.0
C382 C 0.49045 0.87914 0.90206 0.0
C383 C 0.52748 0.87969 0.89984 0.0
C384 C 0.54799 0.87121 0.91908 0.0
C385 C 0.48964 0.89577 0.8586 0.0
C386 C 0.50801 0.90437 0.83495 0.0
C387 C 0.52668 0.8963 0.8563 0.0
C388 C 0.50816 0.92187 0.78852 0.0
C389 C 0.46912 0.90433 0.83981 0.0
C390 C 0.49917 0.92005 0.7266 0.0
C391 C 0.49891 0.93672 0.68371 0.0
C392 C 0.50776 0.95556 0.70168 0.0
C393 C 0.51716 0.95718 0.76323 0.0
C394 C 0.5174 0.9405 0.80607 0.0
H395 H 0.45702 0.89963 0.87461 0.0
H396 H 0.46955 0.92133 0.83769 0.0
H397 H 0.46488 0.8985 0.79075 0.0
H398 H 0.49231 0.90571 0.71142 0.0
H399 H 0.49162 0.93486 0.63666 0.0
H400 H 0.69704 0.53158 0.046 0.0
H401 H 0.67022 0.53244 0.96239 0.0
H402 H 0.66051 0.46757 0.98673 0.0
H403 H 0.68733 0.46661 0.06998 0.0
H404 H 0.66589 0.50833 0.84083 0.0
H405 H 0.6039 0.49512 0.02077 0.0
H406 H 0.62905 0.50355 0.04448 0.0
H407 H 0.62468 0.47719 0.02338 0.0
C408 C 0.68938 0.51746 0.03269 0.0
C409 C 0.69449 0.49896 0.06373 0.0
C410 C 0.67407 0.51798 0.9851 0.0
C411 C 0.66331 0.50009 0.96861 0.0
C412 C 0.66853 0.48157 0.99901 0.0
H413 H 0.57768 0.47941 0.64787 0.0
H414 H 0.60724 0.47867 0.72082 0.0
C415 C 0.68391 0.48102 0.04628 0.0
C416 C 0.64618 0.50091 0.92129 0.0
H417 H 0.59455 0.49543 0.90947 0.0
C418 C 0.65028 0.50551 0.8557 0.0
C419 C 0.62582 0.49744 0.94101 0.0
C420 C 0.62046 0.4932 0.0113 0.0
C421 C 0.63455 0.50649 0.80911 0.0
C422 C 0.61422 0.50263 0.82864 0.0
C423 C 0.61014 0.49825 0.89442 0.0
C424 C 0.59681 0.50356 0.78221 0.0
C425 C 0.63975 0.51204 0.73967 0.0
C426 C 0.58099 0.51763 0.79277 0.0
C427 C 0.56405 0.51805 0.7514 0.0
C428 C 0.56246 0.5043 0.69856 0.0
C429 C 0.57844 0.49031 0.68772 0.0
C430 C 0.59541 0.48992 0.72926 0.0
H431 H 0.65507 0.51918 0.73591 0.0
H432 H 0.63971 0.49794 0.70929 0.0
H433 H 0.6283 0.52277 0.7192 0.0
H434 H 0.5817 0.52827 0.83339 0.0
H435 H 0.5521 0.52905 0.76137 0.0
H436 H 0.02758 0.69961 0.01358 0.0
H437 H 0.02568 0.67335 0.92767 0.0
H438 H 0.98242 0.63933 0.04316 0.0
H439 H 0.98406 0.66574 0.12836 0.0
H440 H 0.03572 0.63257 0.93811 0.0
H441 H 0.95474 0.64025 0.86612 0.0
H442 H 0.96775 0.65936 0.91451 0.0
H443 H 0.95815 0.63641 0.9521 0.0
C444 C 0.01756 0.68659 0.02014 0.0
C445 C 0.00612 0.68454 0.0777 0.0
C446 C 0.01649 0.67161 0.9712 0.0
C447 C 1.00376 0.65444 0.97859 0.0
C448 C 0.99206 0.6526 0.03571 0.0
H449 H 0.98374 0.53958 0.77814 0.0
H450 H 0.98366 0.56924 0.85126 0.0
C451 C 0.99311 0.66759 0.08458 0.0
C452 C 1.00352 0.63796 0.92825 0.0
H453 H 0.97212 0.61043 0.82781 0.0
C454 C 0.02186 0.62787 0.91349 0.0
C455 C 0.98541 0.63179 0.8962 0.0
C456 C 0.96543 0.64264 0.90749 0.0
C457 C 0.02247 0.61142 0.8691 0.0
C458 C 1.00431 0.60507 0.83778 0.0
C459 C 0.98602 0.6153 0.85192 0.0
C460 C 1.00391 0.58746 0.79164 0.0
C461 C 0.04244 0.60055 0.85766 0.0
C462 C 0.01502 0.58797 0.7331 0.0
C463 C 0.01509 0.57102 0.69102 0.0
C464 C 1.00402 0.55321 0.70663 0.0
C465 C 0.99253 0.55297 0.76464 0.0
C466 C 0.99243 0.56994 0.80652 0.0
H467 H 0.05381 0.6042 0.89615 0.0
H468 H 0.04021 0.58368 0.85602 0.0
H469 H 0.04883 0.60542 0.81004 0.0
H470 H 0.0237 0.60147 0.72006 0.0
H471 H 0.02405 0.57179 0.64672 0.0
H472 H 0.04231 0.21635 0.23397 0.0
H473 H 0.03334 0.19191 0.31952 0.0
H474 H 0.97208 0.21573 0.32358 0.0
H475 H 0.98109 0.24034 0.23757 0.0
H476 H 0.01285 0.19323 0.44979 0.0
H477 H 0.96863 0.15543 0.25024 0.0
H478 H 0.98716 0.17513 0.23317 0.0
H479 H 0.96326 0.18178 0.2699 0.0
C480 C 0.02716 0.21685 0.25491 0.0
C481 C 0.01234 0.23005 0.22931 0.0
C482 C 0.02205 0.20293 0.30367 0.0
C483 C 1.002 0.20189 0.32704 0.0
C484 C 0.98761 0.21629 0.30575 0.0
H485 H 0.96774 0.08174 0.48975 0.0
H486 H 0.96319 0.11754 0.456 0.0
C487 C 0.99278 0.23038 0.2571 0.0
C488 C 0.99586 0.18372 0.36512 0.0
H489 H 0.97576 0.13598 0.34286 0.0
C490 C 1.0043 0.18087 0.42727 0.0
C491 C 0.98461 0.16769 0.33557 0.0
C492 C 0.9754 0.16996 0.26846 0.0
C493 C 1.0028 0.16191 0.45904 0.0
C494 C 0.99312 0.14534 0.42686 0.0
C495 C 0.98329 0.14869 0.36712 0.0
C496 C 0.99547 0.12397 0.44955 0.0
C497 C 0.01228 0.15958 0.52569 0.0
C498 C 0.01507 0.11563 0.45496 0.0
C499 C 0.0177 0.0953 0.47361 0.0
C500 C 1.00077 0.08279 0.48673 0.0
C501 C 0.98108 0.09099 0.47976 0.0
C502 C 0.97846 0.11144 0.46103 0.0
H503 H 0.01221 0.17437 0.55269 0.0
H504 H 1.00415 0.1479 0.55521 0.0
H505 H 0.02838 0.15473 0.52011 0.0
H506 H 0.02839 0.12481 0.44413 0.0
H507 H 0.03307 0.08944 0.4781 0.0
H508 H 0.28993 0.93402 0.16009 0.0
H509 H 0.31633 0.92453 0.23875 0.0
H510 H 0.29994 0.97654 0.35819 0.0
H511 H 0.27325 0.98556 0.28099 0.0
H512 H 0.34683 0.9495 0.24954 0.0
H513 H 0.3171 0.938 0.49768 0.0
H514 H 0.30084 0.93658 0.42666 0.0
H515 H 0.30642 0.96095 0.46448 0.0
C516 C 0.29139 0.94279 0.20481 0.0
C517 C 0.27969 0.96056 0.21453 0.0
C518 C 0.30647 0.9374 0.24964 0.0
C519 C 0.31018 0.94979 0.30452 0.0
C520 C 0.29715 0.96641 0.31723 0.0
H521 H 0.40333 0.00754 0.50107 0.0
H522 H 0.37243 0.99247 0.45577 0.0
C523 C 0.28188 0.97164 0.27285 0.0
C524 C 0.32989 0.94834 0.33965 0.0
H525 H 0.35112 0.95393 0.49066 0.0
C526 C 0.34781 0.94976 0.30236 0.0
C527 C 0.33124 0.94872 0.40852 0.0
C528 C 0.31283 0.94575 0.45145 0.0
C529 C 0.36675 0.95333 0.33177 0.0
C530 C 0.3678 0.95538 0.40028 0.0
C531 C 0.35019 0.95249 0.438 0.0
C532 C 0.38636 0.96335 0.43227 0.0
C533 C 0.38524 0.95647 0.2891 0.0
C534 C 0.4044 0.95186 0.43432 0.0
C535 C 0.42222 0.96048 0.46 0.0
C536 C 0.42219 0.98073 0.48377 0.0
C537 C 0.40395 0.99199 0.48259 0.0
C538 C 0.38621 0.98335 0.45725 0.0
H539 H 0.38137 0.95643 0.23631 0.0
H540 H 0.39276 0.97124 0.30125 0.0
H541 H 0.39638 0.94402 0.29815 0.0
H542 H 0.40473 0.93634 0.41545 0.0
H543 H 0.436 0.95138 0.46078 0.0
H544 H 0.46192 0.29056 0.23562 0.0
H545 H 0.4721 0.31384 0.32337 0.0
H546 H 0.53223 0.28724 0.32386 0.0
H547 H 0.52203 0.26383 0.23553 0.0
H548 H 0.49265 0.31106 0.45274 0.0
H549 H 0.53846 0.34753 0.25492 0.0
H550 H 0.51906 0.32876 0.23703 0.0
H551 H 0.54271 0.3209 0.27295 0.0
C552 C 0.47707 0.28919 0.25617 0.0
C553 C 0.49126 0.2756 0.2288 0.0
C554 C 0.48287 0.30245 0.30624 0.0
C555 C 0.50298 0.30241 0.32925 0.0
C556 C 0.51667 0.28753 0.3063 0.0
H557 H 0.54356 0.42035 0.49425 0.0
H558 H 0.54622 0.38423 0.46139 0.0
C559 C 0.51081 0.27412 0.25629 0.0
C560 C 0.51004 0.32006 0.36847 0.0
H561 H 0.5326 0.36677 0.34908 0.0
C562 C 0.50182 0.32306 0.43091 0.0
C563 C 0.52209 0.33563 0.33984 0.0
C564 C 0.53108 0.33324 0.27242 0.0
C565 C 0.50434 0.34176 0.46392 0.0
C566 C 0.51487 0.35794 0.43273 0.0
C567 C 0.52445 0.35436 0.37264 0.0
C568 C 0.51364 0.37933 0.45663 0.0
C569 C 0.49509 0.34425 0.53086 0.0
C570 C 0.4945 0.38863 0.46313 0.0
C571 C 0.49294 0.40914 0.48131 0.0
C572 C 0.51052 0.42091 0.49282 0.0
C573 C 0.52975 0.41169 0.48548 0.0
C574 C 0.53129 0.39105 0.46722 0.0
H575 H 0.49457 0.32937 0.55704 0.0
H576 H 0.50376 0.35545 0.56087 0.0
H577 H 0.4792 0.34981 0.5259 0.0
H578 H 0.4807 0.38009 0.45302 0.0
H579 H 0.47789 0.41576 0.48625 0.0
H580 H 0.21925 0.56609 0.17737 0.0
H581 H 0.19325 0.56775 0.2625 0.0
H582 H 0.22216 0.51759 0.36295 0.0
H583 H 0.24796 0.51558 0.27726 0.0
H584 H 0.18306 0.5095 0.31283 0.0
H585 H 0.18312 0.5817 0.45682 0.0
H586 H 0.18631 0.58486 0.37029 0.0
H587 H 0.20564 0.57194 0.41654 0.0
C588 C 0.2205 0.55597 0.21901 0.0
C589 C 0.23539 0.54049 0.22026 0.0
C590 C 0.20573 0.55705 0.2679 0.0
C591 C 0.20577 0.54277 0.31892 0.0
C592 C 0.22195 0.52881 0.32406 0.0
H593 H 0.10783 0.4926 0.54992 0.0
H594 H 0.14084 0.50193 0.50453 0.0
C595 C 0.23674 0.52773 0.27518 0.0
C596 C 0.18691 0.53928 0.35669 0.0
H597 H 0.15263 0.56163 0.45996 0.0
C598 C 0.17656 0.52079 0.34577 0.0
C599 C 0.17827 0.55425 0.39817 0.0
C600 C 0.18895 0.57427 0.41171 0.0
C601 C 0.15763 0.5169 0.37446 0.0
C602 C 0.14903 0.53173 0.41667 0.0
C603 C 0.15934 0.55029 0.42772 0.0
C604 C 0.12944 0.52783 0.44997 0.0
C605 C 0.14674 0.49717 0.35771 0.0
C606 C 0.11224 0.53987 0.43639 0.0
C607 C 0.09326 0.53466 0.46283 0.0
C608 C 0.0913 0.51728 0.50273 0.0
C609 C 0.10875 0.50581 0.51812 0.0
C610 C 0.12765 0.51114 0.49244 0.0
H611 H 0.1526 0.49029 0.31175 0.0
H612 H 0.14919 0.48593 0.39747 0.0
H613 H 0.1301 0.4997 0.35242 0.0
H614 H 0.11338 0.55287 0.40383 0.0
H615 H 0.08008 0.54388 0.45073 0.0
H616 H 0.99193 0.76585 0.94726 0.0
H617 H 0.99408 0.79157 0.86084 0.0
H618 H 0.05011 0.81439 0.94358 0.0
H619 H 0.04815 0.78856 0.02941 0.0
H620 H 0.99246 0.83165 0.9101 0.0
H621 H 0.05908 0.8224 0.74608 0.0
H622 H 0.04802 0.80126 0.79065 0.0
H623 H 0.06465 0.81907 0.83126 0.0
C624 C 0.00522 0.77567 0.94502 0.0
C625 C 0.01978 0.77541 0.99521 0.0
C626 C 0.0064 0.79041 0.89583 0.0
C627 C 0.02224 0.80488 0.89588 0.0
C628 C 0.03793 0.8032 0.942 0.0
H629 H 0.03726 0.93016 0.76618 0.0
H630 H 0.04217 0.89555 0.81057 0.0
C631 C 0.03673 0.78852 0.99126 0.0
C632 C 0.02003 0.82408 0.85845 0.0
H633 H 0.04376 0.85572 0.74984 0.0
C634 C 1.0035 0.83676 0.87424 0.0
C635 C 0.03472 0.83087 0.81294 0.0
C636 C 0.05255 0.81763 0.79371 0.0
C637 C 1.00145 0.85627 0.8469 0.0
C638 C 0.01609 0.8631 0.80122 0.0
C639 C 0.03258 0.85039 0.78488 0.0
C640 C 0.01421 0.8834 0.77 0.0
C641 C 0.98397 0.86966 0.86889 0.0
C642 C 0.99712 0.8878 0.73162 0.0
C643 C 0.99414 0.90747 0.7073 0.0
C644 C 0.00836 0.9231 0.72005 0.0
C645 C 0.02596 0.91847 0.7562 0.0
C646 C 0.02883 0.89873 0.78118 0.0
H647 H 0.97746 0.8644 0.91602 0.0
H648 H 0.98889 0.88586 0.87444 0.0
H649 H 0.97168 0.86907 0.83177 0.0
H650 H 0.98587 0.87606 0.72142 0.0
H651 H 0.98063 0.9104 0.67845 0.0
H652 H 0.70983 0.05733 0.02614 0.0
H653 H 0.68468 0.06042 0.93874 0.0
H654 H 0.71436 0.01173 0.83278 0.0
H655 H 0.73914 0.00803 0.92092 0.0
H656 H 0.68211 0.06315 0.79473 0.0
H657 H 0.65905 0.98811 0.90051 0.0
H658 H 0.67716 0.00482 0.93998 0.0
H659 H 0.6848 0.98953 0.87119 0.0
C660 C 0.71134 0.04768 0.98331 0.0
C661 C 0.7261 0.03207 0.98112 0.0
C662 C 0.69706 0.04958 0.93324 0.0
C663 C 0.69746 0.036 0.88021 0.0
C664 C 0.71373 0.02219 0.87386 0.0
H665 H 0.59871 0.9922 0.64058 0.0
H666 H 0.63243 1.00048 0.68285 0.0
C667 C 0.72795 0.02018 0.92414 0.0
C668 C 0.67901 0.03352 0.83968 0.0
H669 H 0.6392 1.00085 0.81498 0.0
C670 C 0.67276 0.04949 0.79853 0.0
C671 C 0.66673 0.01581 0.84587 0.0
C672 C 0.6721 0.99863 0.89212 0.0
C673 C 0.65458 0.04802 0.76249 0.0
C674 C 0.64235 0.03028 0.76887 0.0
C675 C 0.64871 0.01436 0.80988 0.0
C676 C 0.62267 0.02767 0.73473 0.0
C677 C 0.64866 0.06528 0.7176 0.0
C678 C 0.60604 0.04046 0.74896 0.0
C679 C 0.58665 0.03578 0.72465 0.0
C680 C 0.58364 0.01805 0.68682 0.0
C681 C 0.60048 0.00576 0.67069 0.0
C682 C 0.6198 0.01055 0.69431 0.0
H683 H 0.66187 0.07525 0.7058 0.0
H684 H 0.64209 0.05925 0.67144 0.0
H685 H 0.63691 0.07487 0.74182 0.0
H686 H 0.60787 0.05353 0.78114 0.0
H687 H 0.57392 0.04553 0.73757 0.0
H688 H 0.48668 0.74305 0.96042 0.0
H689 H 0.47769 0.71861 0.87342 0.0
H690 H 0.53856 0.69385 0.87985 0.0
H691 H 0.54745 0.71804 0.96669 0.0
H692 H 0.51773 0.69628 0.74709 0.0
H693 H 0.47423 0.65769 0.94619 0.0
H694 H 0.46931 0.68426 0.92868 0.0
H695 H 0.49318 0.67694 0.9641 0.0
C696 C 0.49829 0.73291 0.9412 0.0
C697 C 0.51771 0.73226 0.96988 0.0
C698 C 0.49314 0.71894 0.89195 0.0
C699 C 0.50743 0.70437 0.87092 0.0
C700 C 0.52736 0.70505 0.89542 0.0
H701 H 0.53967 0.5932 0.71517 0.0
H702 H 0.53428 0.62853 0.74878 0.0
C703 C 0.53244 0.71882 0.94487 0.0
C704 C 0.50122 0.68635 0.83206 0.0
H705 H 0.48173 0.63836 0.85323 0.0
C706 C 0.50939 0.68378 0.7694 0.0
C707 C 0.49021 0.67015 0.86132 0.0
C708 C 0.48122 0.6722 0.92884 0.0
C709 C 0.50794 0.66489 0.73686 0.0
C710 C 0.49862 0.64812 0.76884 0.0
C711 C 0.48898 0.65121 0.8291 0.0
C712 C 0.50136 0.6268 0.74565 0.0
C713 C 0.5171 0.66287 0.66963 0.0
C714 C 0.48461 0.61377 0.73553 0.0
C715 C 0.48765 0.59332 0.71707 0.0
C716 C 0.50751 0.58563 0.70901 0.0
C717 C 0.52418 0.59865 0.72053 0.0
C718 C 0.52113 0.61897 0.73894 0.0
H719 H 0.51644 0.67767 0.64302 0.0
H720 H 0.53337 0.65851 0.67416 0.0
H721 H 0.50915 0.65098 0.64027 0.0
H722 H 0.46923 0.61946 0.7416 0.0
H723 H 0.47451 0.58366 0.70828 0.0
H724 H 0.77025 0.50676 0.92329 0.0
H725 H 0.79361 0.50317 0.83121 0.0
H726 H 0.82177 0.45122 0.92456 0.0
H727 H 0.79796 0.45423 0.01534 0.0
H728 H 0.83266 0.50997 0.8624 0.0
H729 H 0.82774 0.43536 0.73503 0.0
H730 H 0.80712 0.44539 0.78402 0.0
H731 H 0.8282 0.43241 0.822 0.0
C732 C 0.78071 0.49393 0.92262 0.0
C733 C 0.78254 0.48098 0.97698 0.0
C734 C 0.79413 0.49194 0.87006 0.0
C735 C 0.80949 0.47698 0.87105 0.0
C736 C 0.80988 0.46269 0.92207 0.0
H737 H 0.93414 0.46804 0.75204 0.0
H738 H 0.89944 0.46159 0.79208 0.0
C739 C 0.79641 0.46458 0.97438 0.0
C740 C 0.82753 0.47914 0.82818 0.0
H741 H 0.8604 0.45269 0.73002 0.0
C742 C 0.83847 0.49759 0.83226 0.0
C743 C 0.83528 0.46285 0.78992 0.0
C744 C 0.82385 0.44296 0.78197 0.0
C745 C 0.85732 0.49995 0.80139 0.0
C746 C 0.8653 0.48354 0.76421 0.0
C747 C 0.8542 0.46522 0.75865 0.0
C748 C 0.88552 0.48519 0.73296 0.0
C749 C 0.86896 0.5197 0.8114 0.0
C750 C 0.88897 0.50012 0.68519 0.0
C751 C 0.90868 0.50406 0.66338 0.0
C752 C 0.92526 0.49289 0.68816 0.0
C753 C 0.92164 0.47699 0.73272 0.0
C754 C 0.90186 0.47323 0.75526 0.0
H755 H 0.86288 0.52877 0.853 0.0
H756 H 0.88535 0.51661 0.8204 0.0
H757 H 0.86772 0.52921 0.76678 0.0
H758 H 0.87648 0.50923 0.66651 0.0
H759 H 0.91097 0.51608 0.6277 0.0
H760 H 0.05437 0.21029 0.02994 0.0
H761 H 0.05531 0.18087 0.95558 0.0
H762 H 0.99738 0.19919 0.87516 0.0
H763 H 0.99687 0.22901 0.94798 0.0
H764 H 0.0293 0.15064 0.96291 0.0
H765 H 0.02529 0.18111 0.71188 0.0
H766 H 0.03156 0.19713 0.78099 0.0
H767 H 0.00537 0.19139 0.76194 0.0
C768 C 0.04228 0.20843 0.99444 0.0
C769 C 0.02567 0.222 0.99401 0.0
C770 C 0.04273 0.19155 0.95231 0.0
C771 C 0.02648 0.18777 0.90928 0.0
C772 C 0.01037 0.20196 0.90652 0.0
H773 H 0.97099 0.08429 0.73101 0.0
H774 H 0.98103 0.11599 0.78542 0.0
C775 C 0.01006 0.21903 0.94816 0.0
C776 C 0.02512 0.16779 0.87407 0.0
H777 H 0.01462 0.14594 0.72599 0.0
C778 C 0.02651 0.14965 0.91084 0.0
C779 C 0.02144 0.16638 0.80609 0.0
C780 C 0.02105 0.18505 0.76288 0.0
C781 C 0.02347 0.13032 0.88212 0.0
C782 C 0.01889 0.12904 0.815 0.0
C783 C 0.01809 0.14702 0.77765 0.0
C784 C 0.01325 0.1093 0.78396 0.0
C785 C 0.02432 0.11137 0.92401 0.0
C786 C 0.02809 0.09486 0.76604 0.0
C787 C 0.02241 0.07658 0.73462 0.0
C788 C 1.00179 0.07251 0.7209 0.0
C789 C 0.98701 0.08686 0.74075 0.0
C790 C 0.9927 0.10507 0.77163 0.0
H791 H 0.02733 0.11501 0.97611 0.0
H792 H 0.0097 0.10288 0.9204 0.0
H793 H 0.03654 0.10106 0.90594 0.0
H794 H 0.04406 0.0979 0.77529 0.0
H795 H 0.03418 0.06594 0.71962 0.0
H796 H 0.28959 0.96037 0.9658 0.0
H797 H 0.31876 0.96762 0.89493 0.0
H798 H 0.31552 0.03155 0.94745 0.0
H799 H 0.28612 0.02432 0.01829 0.0
H800 H 0.32681 0.99831 0.78803 0.0
H801 H 0.37236 0.00855 0.01535 0.0
H802 H 0.34794 0.99582 0.01533 0.0
H803 H 0.34924 0.02314 0.0071 0.0
C804 C 0.29467 0.97608 0.96032 0.0
C805 C 0.28557 0.99182 0.99704 0.0
C806 C 0.31136 0.9802 0.92011 0.0
C807 C 0.31943 1.00007 0.91654 0.0
C808 C 0.30956 0.01609 0.94979 0.0
H809 H 0.42963 0.0256 0.68153 0.0
H810 H 0.39718 0.03101 0.73885 0.0
C811 C 0.29267 0.012 0.98966 0.0
C812 C 0.33934 1.00332 0.88371 0.0
H813 H 0.39017 0.00881 0.91601 0.0
C814 C 0.34063 1.00099 0.81574 0.0
C815 C 0.35737 0.00652 0.92025 0.0
C816 C 0.35686 0.00856 0.99361 0.0
C817 C 0.35956 1.00138 0.78349 0.0
C818 C 0.3776 0.00413 0.82025 0.0
C819 C 0.37627 0.00689 0.888 0.0
C820 C 0.39804 1.00206 0.78997 0.0
C821 C 0.36029 0.99793 0.71071 0.0
C822 C 0.40952 0.98432 0.80133 0.0
C823 C 0.42795 0.98116 0.76867 0.0
C824 C 0.43541 0.99582 0.72451 0.0
C825 C 0.42438 0.01409 0.71562 0.0
C826 C 0.40577 0.01714 0.7479 0.0
H827 H 0.34509 0.99414 0.69014 0.0
H828 H 0.36602 0.01199 0.68643 0.0
H829 H 0.37101 0.98529 0.69893 0.0
H830 H 0.40385 0.97253 0.83378 0.0
H831 H 0.43608 0.96694 0.77663 0.0
H832 H 0.50423 0.27753 0.94151 0.0
H833 H 0.50486 0.30814 0.87193 0.0
H834 H 0.45078 0.3307 0.96739 0.0
H835 H 0.45033 0.30037 0.03754 0.0
H836 H 0.47735 0.32982 0.78688 0.0
H837 H 0.495 0.37314 0.0139 0.0
H838 H 0.49559 0.34552 0.01017 0.0
H839 H 0.47167 0.35877 0.01603 0.0
C840 C 0.4921 0.28869 0.94597 0.0
C841 C 0.4773 0.28667 0.99506 0.0
C842 C 0.49252 0.30622 0.9065 0.0
C843 C 0.47813 0.32192 0.91553 0.0
C844 C 0.46226 0.31898 0.96044 0.0
H845 H 0.47593 0.43686 0.68803 0.0
H846 H 0.46497 0.40532 0.74331 0.0
C847 C 0.46192 0.30159 0.00012 0.0
C848 C 0.481 0.34217 0.88362 0.0
H849 H 0.49214 0.39229 0.91719 0.0
C850 C 0.48043 0.34353 0.81526 0.0
C851 C 0.48531 0.35999 0.9208 0.0
C852 C 0.48713 0.35936 0.99423 0.0
C853 C 0.4841 0.36224 0.78313 0.0
C854 C 0.48826 0.38005 0.82047 0.0
C855 C 0.4887 0.37868 0.88874 0.0
C856 C 0.49406 0.39984 0.78979 0.0
C857 C 0.48424 0.36267 0.70952 0.0
C858 C 0.51374 0.40765 0.79964 0.0
C859 C 0.51996 0.42562 0.76861 0.0
C860 C 0.50658 0.43635 0.72744 0.0
C861 C 0.48654 0.42904 0.71985 0.0
C862 C 0.48035 0.41089 0.75071 0.0
H863 H 0.48428 0.34702 0.68806 0.0
H864 H 0.47045 0.37078 0.6919 0.0
H865 H 0.49778 0.37112 0.69129 0.0
H866 H 0.52453 0.39947 0.82995 0.0
H867 H 0.53549 0.43082 0.77552 0.0
H868 H 0.23341 0.48667 0.98992 0.0
H869 H 0.20448 0.48029 0.91619 0.0
H870 H 0.19313 0.54531 0.90639 0.0
H871 H 0.22193 0.55163 0.97906 0.0
H872 H 0.16499 0.49042 0.94825 0.0
H873 H 0.18572 0.52869 0.71758 0.0
H874 H 0.20442 0.52218 0.77877 0.0
H875 H 0.1896 0.54529 0.7863 0.0
C876 C 0.2252 0.49958 0.96973 0.0
C877 C 0.23 0.51965 0.98944 0.0
C878 C 0.20857 0.49593 0.92822 0.0
C879 C 0.1967 0.51233 0.90519 0.0
C880 C 0.20226 0.53243 0.92218 0.0
H881 H 0.08112 0.54565 0.7618 0.0
H882 H 0.11449 0.54113 0.81202 0.0
C883 C 0.21873 0.53604 0.96377 0.0
C884 C 0.1772 0.50866 0.86996 0.0
H885 H 0.14963 0.52481 0.73843 0.0
C886 C 0.16175 0.49753 0.90161 0.0
C887 C 0.17295 0.51792 0.80911 0.0
C888 C 0.18914 0.52901 0.77068 0.0
C889 C 0.14187 0.49654 0.87606 0.0
C890 C 0.13738 0.50684 0.81722 0.0
C891 C 0.15306 0.51707 0.78393 0.0
C892 C 0.11627 0.50865 0.79185 0.0
C893 C 0.12551 0.48547 0.91376 0.0
C894 C 0.10594 0.49174 0.76508 0.0
C895 C 0.0867 0.49426 0.73623 0.0
C896 C 0.07757 0.51376 0.73356 0.0
C897 C 0.08768 0.53043 0.76288 0.0
C898 C 0.10682 0.5279 0.79144 0.0
H899 H 0.13095 0.4802 0.96223 0.0
H900 H 0.11212 0.49562 0.92089 0.0
H901 H 0.12036 0.47189 0.88549 0.0
H902 H 0.11305 0.47677 0.76444 0.0
H903 H 0.07944 0.48116 0.7135 0.0
H904 H 0.97324 0.77877 0.24301 0.0
H905 H 0.96919 0.80829 0.31684 0.0
H906 H 0.03351 0.82089 0.30186 0.0
H907 H 0.03758 0.79148 0.22886 0.0
H908 H 0.01699 0.82684 0.42964 0.0
H909 H 0.97218 0.86656 0.23674 0.0
H910 H 0.96303 0.84199 0.2635 0.0
H911 H 0.98672 0.84366 0.22013 0.0
C912 C 0.98657 0.78747 0.25734 0.0
C913 C 0.00572 0.78289 0.23035 0.0
C914 C 0.98421 0.80446 0.29875 0.0
C915 C 1.00099 0.81703 0.31375 0.0
C916 C 0.02034 0.81149 0.29069 0.0
H917 H 0.04125 0.93083 0.46159 0.0
H918 H 0.03503 0.89734 0.41239 0.0
C919 C 0.02268 0.79465 0.2492 0.0
C920 C 0.9985 0.8368 0.34904 0.0
H921 H 0.98112 0.88582 0.3293 0.0
C922 C 0.00889 0.83965 0.4082 0.0
C923 C 0.98791 0.85352 0.32098 0.0
C924 C 0.9769 0.85147 0.25665 0.0
C925 C 0.00951 0.85889 0.439 0.0
C926 C 0.99982 0.87583 0.40923 0.0
C927 C 0.98859 0.87281 0.3518 0.0
C928 C 1.0028 0.89701 0.43416 0.0
C929 C 0.02091 0.86107 0.50258 0.0
C930 C 0.98651 0.90841 0.45988 0.0
C931 C 0.99 0.92775 0.48791 0.0
C932 C 0.00983 0.93596 0.49025 0.0
C933 C 0.02582 0.92493 0.46104 0.0
C934 C 0.02233 0.9057 0.43325 0.0
H935 H 0.02254 0.84609 0.52774 0.0
H936 H 0.03641 0.86709 0.49263 0.0
H937 H 0.01307 0.87197 0.53587 0.0
H938 H 0.97128 0.90203 0.46046 0.0
H939 H 0.97739 0.93581 0.51035 0.0
H940 H 0.72139 0.97724 0.20365 0.0
H941 H 0.6914 0.97089 0.27279 0.0
H942 H 0.683 0.036 0.29632 0.0
H943 H 0.71275 0.04236 0.22698 0.0
H944 H 0.67518 0.00843 0.41514 0.0
H945 H 0.63444 0.98785 0.18538 0.0
H946 H 0.6584 0.97553 0.20227 0.0
H947 H 0.65782 1.00243 0.18489 0.0
C948 C 0.71358 0.99013 0.22575 0.0
C949 C 0.71941 0.01028 0.2105 0.0
C950 C 0.69637 0.9865 0.26466 0.0
C951 C 0.6849 1.00299 0.28915 0.0
C952 C 0.69166 0.02307 0.27803 0.0
H953 H 0.56492 0.03421 0.39954 0.0
H954 H 0.59815 0.02829 0.34891 0.0
C955 C 0.70869 0.0267 0.2387 0.0
C956 C 0.66466 0.99965 0.31968 0.0
H957 H 0.61487 0.99014 0.28095 0.0
C958 C 0.66204 0.00405 0.38623 0.0
C959 C 0.64751 0.9942 0.28148 0.0
C960 C 0.64948 0.9898 0.20943 0.0
C961 C 0.64261 0.00353 0.41527 0.0
C962 C 0.62542 0.99858 0.37661 0.0
C963 C 0.62811 0.99375 0.31047 0.0
C964 C 0.60439 1.0005 0.40249 0.0
C965 C 0.64037 0.00918 0.48636 0.0
C966 C 0.59657 0.9864 0.44771 0.0
C967 C 0.57738 0.98958 0.47609 0.0
C968 C 0.56586 0.00705 0.46017 0.0
C969 C 0.5734 0.0206 0.41271 0.0
C970 C 0.59241 0.01727 0.38387 0.0
H971 H 0.65499 0.01431 0.5083 0.0
H972 H 0.62895 0.0216 0.49206 0.0
H973 H 0.63477 0.99571 0.51404 0.0
H974 H 0.60556 0.97328 0.46241 0.0
H975 H 0.57211 0.97898 0.51302 0.0
H976 H 0.49917 0.73026 0.24697 0.0
H977 H 0.49916 0.7003 0.31891 0.0
H978 H 0.55878 0.68353 0.24803 0.0
H979 H 0.55839 0.71309 0.17459 0.0
H980 H 0.53358 0.65256 0.23618 0.0
H981 H 0.52513 0.68313 0.48656 0.0
H982 H 0.50578 0.6928 0.4332 0.0
H983 H 0.53208 0.69921 0.41854 0.0
C984 C 0.51256 0.7206 0.24882 0.0
C985 C 0.5289 0.72408 0.20609 0.0
C986 C 0.51258 0.70344 0.2899 0.0
C987 C 0.52907 0.68966 0.28955 0.0
C988 C 0.54591 0.69391 0.24947 0.0
H989 H 0.53994 0.56799 0.47536 0.0
H990 H 0.54848 0.60017 0.41936 0.0
C991 C 0.54578 0.71088 0.20795 0.0
C992 C 0.52771 0.66965 0.32439 0.0
H993 H 0.51625 0.6476 0.47111 0.0
C994 C 0.53015 0.65153 0.28783 0.0
C995 C 0.5232 0.66818 0.39182 0.0
C996 C 0.52161 0.68688 0.43492 0.0
C997 C 0.52747 0.63212 0.31617 0.0
C998 C 0.52221 0.63073 0.38278 0.0
C999 C 0.52024 0.64874 0.41987 0.0
C1000 C 0.51732 0.61079 0.41367 0.0
C1001 C 0.5295 0.61318 0.27434 0.0
C1002 C 0.49701 0.60601 0.42794 0.0
C1003 C 0.49208 0.58765 0.45903 0.0
C1004 C 0.5074 0.57369 0.47728 0.0
C1005 C 0.52777 0.5783 0.46163 0.0
C1006 C 0.53268 0.59671 0.42994 0.0
H1007 H 0.53205 0.61692 0.22211 0.0
H1008 H 0.54252 0.60386 0.29191 0.0
H1009 H 0.51556 0.60363 0.27851 0.0
H1010 H 0.48494 0.61663 0.41553 0.0
H1011 H 0.47623 0.58468 0.4703 0.0
H1012 H 0.78959 0.53151 0.21896 0.0
H1013 H 0.82007 0.53625 0.28741 0.0
H1014 H 0.83201 0.47139 0.27763 0.0
H1015 H 0.80172 0.46658 0.20962 0.0
H1016 H 0.83695 0.50766 0.4148 0.0
H1017 H 0.87991 0.51001 0.18054 0.0
H1018 H 0.85372 0.5183 0.18663 0.0
H1019 H 0.85967 0.4915 0.18833 0.0
C1020 C 0.79831 0.5182 0.23356 0.0
C1021 C 0.79333 0.49868 0.20904 0.0
C1022 C 0.81575 0.52094 0.27224 0.0
C1023 C 0.82831 0.50417 0.28706 0.0
C1024 C 0.8225 0.4845 0.26665 0.0
H1025 H 0.94537 0.46931 0.41648 0.0
H1026 H 0.91277 0.47533 0.36241 0.0
C1027 C 0.80519 0.48177 0.22798 0.0
C1028 C 0.84868 0.50718 0.31686 0.0
H1029 H 0.89922 0.50735 0.27734 0.0
C1030 C 0.85059 0.50798 0.38498 0.0
C1031 C 0.86638 0.50748 0.27759 0.0
C1032 C 0.86499 0.50689 0.20412 0.0
C1033 C 0.86991 0.50822 0.41497 0.0
C1034 C 0.88764 0.50786 0.37556 0.0
C1035 C 0.88563 0.50773 0.30741 0.0
C1036 C 0.90833 0.5055 0.40398 0.0
C1037 C 0.87124 0.50781 0.48849 0.0
C1038 C 0.91706 0.52081 0.44337 0.0
C1039 C 0.9359 0.51749 0.47389 0.0
C1040 C 0.9462 0.49874 0.46577 0.0
C1041 C 0.93783 0.4839 0.42374 0.0
C1042 C 0.91916 0.48729 0.39295 0.0
H1043 H 0.85619 0.50496 0.51159 0.0
H1044 H 0.88204 0.49577 0.50472 0.0
H1045 H 0.87706 0.52278 0.50635 0.0
H1046 H 0.90909 0.5351 0.45175 0.0
H1047 H 0.94185 0.52916 0.50637 0.0
loop_
_geom_bond_atom_site_label_1
_geom_bond_atom_site_label_2
_geom_bond_distance
_geom_bond_site_symmetry_2
_ccdc_geom_bond_type
H0 C7 0.929 . S
H1 C10 0.930 . S
H2 C12 0.929 . S
H3 C4 0.969 . S
C4 H3 0.969 . S
C4 O5 1.550 1_556 S
C4 H6 0.973 . S
O5 C4 1.550 1_554 S
O5 C11 1.412 . S
H6 C4 0.973 . S
C7 H0 0.929 . S
C7 C8 1.400 . S
C7 C9 1.356 1_554 S
C8 C7 1.400 . S
C8 C12 1.377 . S
C9 C7 1.356 1_556 S
C9 C10 1.375 . S
C10 H1 0.930 . S
C10 C9 1.375 . S
C10 C11 1.383 1_556 S
C11 O5 1.412 . S
C11 C10 1.383 1_554 S
C11 C12 1.394 . S
C12 H2 0.929 . S
C12 C8 1.377 . S
C12 C11 1.394 . S
H13 C20 0.929 . S
H14 C23 0.930 . S
H15 C25 0.929 . S
H16 C17 0.969 . S
C17 H16 0.969 . S
C17 O18 1.550 1_556 S
C17 H19 0.973 . S
O18 C17 1.550 1_554 S
O18 C24 1.412 . S
H19 C17 0.973 . S
C20 H13 0.929 . S
C20 C21 1.400 . S
C20 C22 1.364 1_554 S
C21 C20 1.400 . S
C21 C25 1.377 . S
C22 C20 1.364 1_556 S
C22 C23 1.374 . S
C23 H14 0.930 . S
C23 C22 1.374 . S
C23 C24 1.383 1_556 S
C24 O18 1.412 . S
C24 C23 1.383 1_554 S
C24 C25 1.394 . S
C25 H15 0.929 . S
C25 C21 1.377 . S
C25 C24 1.394 . S
H26 C33 0.928 . S
H27 C36 0.930 . S
H28 C38 0.928 1_565 S
H29 C30 0.969 . S
C30 H29 0.969 . S
C30 O31 1.550 1_546 S
C30 H32 0.973 1_545 S
O31 C30 1.550 1_564 S
O31 C37 1.405 1_565 S
H32 C30 0.973 1_565 S
C33 H26 0.928 . S
C33 C34 1.400 1_565 S
C33 C35 1.364 1_564 S
C34 C33 1.400 1_545 S
C34 C38 1.377 . S
C35 C33 1.364 1_546 S
C35 C36 1.374 1_545 S
C36 H27 0.930 . S
C36 C35 1.374 1_565 S
C36 C37 1.382 1_566 S
C37 O31 1.405 1_545 S
C37 C36 1.382 1_544 S
C37 C38 1.394 . S
C38 H28 0.928 1_545 S
C38 C34 1.377 . S
C38 C37 1.394 . S
H39 C46 0.929 . S
H40 C49 0.930 . S
H41 C51 0.929 . S
H42 C43 0.969 . S
C43 H42 0.969 . S
C43 O44 1.550 1_556 S
C43 H45 0.973 . S
O44 C43 1.550 1_554 S
O44 C50 1.412 . S
H45 C43 0.973 . S
C46 H39 0.929 . S
C46 C47 1.400 . S
C46 C48 1.364 1_554 S
C47 C46 1.400 . S
C47 C51 1.377 . S
C48 C46 1.364 1_556 S
C48 C49 1.374 . S
C49 H40 0.930 . S
C49 C48 1.374 . S
C49 C50 1.383 1_556 S
C50 O44 1.412 . S
C50 C49 1.383 1_554 S
C50 C51 1.394 . S
C51 H41 0.929 . S
C51 C47 1.377 . S
C51 C50 1.394 . S
H52 C59 0.929 . S
H53 C62 0.930 . S
H54 C64 0.929 . S
H55 C56 0.969 . S
C56 H55 0.969 . S
C56 O57 1.550 . S
C56 H58 0.973 . S
O57 C56 1.550 . S
O57 C63 1.412 . S
H58 C56 0.973 . S
C59 H52 0.929 . S
C59 C60 1.400 . S
C59 C61 1.364 . S
C60 C59 1.400 . S
C60 C64 1.377 . S
C61 C59 1.364 . S
C61 C62 1.374 . S
C62 H53 0.930 . S
C62 C61 1.374 . S
C62 C63 1.383 . S
C63 O57 1.412 . S
C63 C62 1.383 . S
C63 C64 1.394 . S
C64 H54 0.929 . S
C64 C60 1.377 . S
C64 C63 1.394 . S
H65 C72 0.929 . S
H66 C75 0.930 . S
H67 C77 0.929 . S
H68 C69 0.969 . S
C69 H68 0.969 . S
C69 O70 1.550 . S
C69 H71 0.973 . S
O70 C69 1.550 . S
O70 C76 1.412 . S
H71 C69 0.973 . S
C72 H65 0.929 . S
C72 C73 1.400 . S
C72 C74 1.364 . S
C73 C72 1.400 . S
C73 C77 1.377 . S
C74 C72 1.364 . S
C74 C75 1.374 . S
C75 H66 0.930 . S
C75 C74 1.374 . S
C75 C76 1.383 . S
C76 O70 1.412 . S
C76 C75 1.383 . S
C76 C77 1.394 . S
C77 H67 0.929 . S
C77 C73 1.377 . S
C77 C76 1.394 . S
H78 C85 0.929 1_565 S
H79 C88 0.930 . S
H80 C90 0.928 1_565 S
H81 C82 0.969 . S
C82 H81 0.969 . S
C82 O83 1.550 1_545 S
C82 H84 0.973 1_545 S
O83 C82 1.550 1_565 S
O83 C89 1.402 1_565 S
H84 C82 0.973 1_565 S
C85 H78 0.929 1_545 S
C85 C86 1.400 . S
C85 C87 1.364 . S
C86 C85 1.400 . S
C86 C90 1.377 . S
C87 C85 1.364 . S
C87 C88 1.374 1_545 S
C88 H79 0.930 . S
C88 C87 1.374 1_565 S
C88 C89 1.382 1_565 S
C89 O83 1.402 1_545 S
C89 C88 1.382 1_545 S
C89 C90 1.394 . S
C90 H80 0.928 1_545 S
C90 C86 1.377 . S
C90 C89 1.394 . S
H91 C98 0.929 . S
H92 C101 0.930 . S
H93 C103 0.929 . S
H94 C95 0.969 . S
C95 H94 0.969 . S
C95 O96 1.550 . S
C95 H97 0.973 . S
O96 C95 1.550 . S
O96 C102 1.412 . S
H97 C95 0.973 . S
C98 H91 0.929 . S
C98 C99 1.400 . S
C98 C100 1.364 . S
C99 C98 1.400 . S
C99 C103 1.377 . S
C100 C98 1.364 . S
C100 C101 1.374 . S
C101 H92 0.930 . S
C101 C100 1.374 . S
C101 C102 1.383 . S
C102 O96 1.412 . S
C102 C101 1.383 . S
C102 C103 1.394 . S
C103 H93 0.929 . S
C103 C99 1.377 . S
C103 C102 1.394 . S
Zn104 O110 1.969 1_455 S
Zn104 O111 1.965 . S
Zn104 O115 2.024 . S
Zn104 O120 1.969 1_455 S
Zn105 O112 1.943 1_655 S
Zn105 O118 1.959 1_655 S
Zn105 O119 1.977 . S
Zn105 O121 2.040 . S
C106 O107 1.238 . S
C106 O115 1.058 . S
O107 C106 1.238 . S
C108 O109 1.229 1_655 S
C108 O121 1.058 . S
O109 C108 1.229 1_455 S
O110 Zn104 1.969 1_655 S
O110 C113 1.267 1_655 S
O111 Zn104 1.965 . S
O111 C122 1.260 1_545 S
O112 Zn105 1.943 1_455 S
O112 C122 1.258 . S
C113 O110 1.267 1_455 S
C113 O114 1.228 . S
O114 C113 1.228 . S
O115 Zn104 2.024 . S
O115 C106 1.058 . S
C116 O117 1.228 . S
C116 O118 1.267 1_655 S
O117 C116 1.228 . S
O118 Zn105 1.959 1_455 S
O118 C116 1.267 1_455 S
O119 Zn105 1.977 . S
O119 C123 1.260 1_565 S
O120 Zn104 1.969 1_655 S
O120 C123 1.258 . S
O121 Zn105 2.040 . S
O121 C108 1.058 . S
C122 O111 1.260 1_565 S
C122 O112 1.258 . S
C123 O119 1.260 1_545 S
C123 O120 1.258 . S
Zn124 O130 1.969 . S
Zn124 O131 1.965 1_565 S
Zn124 O135 2.024 1_565 S
Zn124 O140 1.969 . S
Zn125 O132 1.969 . S
Zn125 O138 1.969 . S
Zn125 O139 1.965 1_545 S
Zn125 O141 2.024 1_545 S
C126 O127 1.229 1_545 S
C126 O135 1.058 . S
O127 C126 1.229 1_565 S
C128 O129 1.229 1_565 S
C128 O141 1.058 . S
O129 C128 1.229 1_545 S
O130 Zn124 1.969 . S
O130 C133 1.267 . S
O131 Zn124 1.965 1_545 S
O131 C142 1.260 . S
O132 Zn125 1.969 . S
O132 C142 1.258 . S
C133 O130 1.267 . S
C133 O134 1.228 1_565 S
O134 C133 1.228 1_545 S
O135 Zn124 2.024 1_545 S
O135 C126 1.058 . S
C136 O137 1.228 1_545 S
C136 O138 1.267 . S
O137 C136 1.228 1_565 S
O138 Zn125 1.969 . S
O138 C136 1.267 . S
O139 Zn125 1.965 1_565 S
O139 C143 1.260 . S
O140 Zn124 1.969 . S
O140 C143 1.258 . S
O141 Zn125 2.024 1_565 S
O141 C128 1.058 . S
C142 O131 1.260 . S
C142 O132 1.258 . S
C143 O139 1.260 . S
C143 O140 1.258 . S
Zn144 O150 1.969 . S
Zn144 O151 1.965 . S
Zn144 O155 2.024 . S
Zn144 O160 1.969 . S
Zn145 O152 1.969 . S
Zn145 O158 1.969 . S
Zn145 O159 1.965 . S
Zn145 O161 2.024 . S
C146 O147 1.229 . S
C146 O155 1.058 . S
O147 C146 1.229 . S
C148 O149 1.229 . S
C148 O161 1.058 . S
O149 C148 1.229 . S
O150 Zn144 1.969 . S
O150 C153 1.267 . S
O151 Zn144 1.965 . S
O151 C162 1.260 . S
O152 Zn145 1.969 . S
O152 C162 1.258 . S
C153 O150 1.267 . S
C153 O154 1.228 . S
O154 C153 1.228 . S
O155 Zn144 2.024 . S
O155 C146 1.058 . S
C156 O157 1.228 . S
C156 O158 1.267 . S
O157 C156 1.228 . S
O158 Zn145 1.969 . S
O158 C156 1.267 . S
O159 Zn145 1.965 . S
O159 C163 1.260 . S
O160 Zn144 1.969 . S
O160 C163 1.258 . S
O161 Zn145 2.024 . S
O161 C148 1.058 . S
C162 O151 1.260 . S
C162 O152 1.258 . S
C163 O159 1.260 . S
C163 O160 1.258 . S
Zn164 O170 1.969 . S
Zn164 O171 1.965 . S
Zn164 O175 2.024 . S
Zn164 O180 1.969 . S
Zn165 O172 1.969 . S
Zn165 O178 1.969 . S
Zn165 O179 1.965 . S
Zn165 O181 2.024 . S
C166 O167 1.229 . S
C166 O175 1.058 . S
O167 C166 1.229 . S
C168 O169 1.229 . S
C168 O181 1.058 . S
O169 C168 1.229 . S
O170 Zn164 1.969 . S
O170 C173 1.267 . S
O171 Zn164 1.965 . S
O171 C182 1.260 . S
O172 Zn165 1.969 . S
O172 C182 1.258 1_655 S
C173 O170 1.267 . S
C173 O174 1.228 . S
O174 C173 1.228 . S
O175 Zn164 2.024 . S
O175 C166 1.058 . S
C176 O177 1.228 . S
C176 O178 1.267 . S
O177 C176 1.228 . S
O178 Zn165 1.969 . S
O178 C176 1.267 . S
O179 Zn165 1.965 . S
O179 C183 1.246 1_655 S
O180 Zn164 1.969 . S
O180 C183 1.282 . S
O181 Zn165 2.024 . S
O181 C168 1.058 . S
C182 O171 1.260 . S
C182 O172 1.258 1_455 S
C183 O179 1.246 1_455 S
C183 O180 1.282 . S
H184 C192 0.929 . S
H185 C194 0.930 . S
H186 C196 0.930 . S
H187 C199 0.929 . S
H188 C202 0.930 . S
H189 C204 0.960 . S
H190 C204 0.960 . S
H191 C204 0.960 . S
C192 H184 0.929 . S
C192 C193 1.380 . S
C192 C194 1.384 . S
C193 C192 1.380 . S
C193 C199 1.388 1_565 S
C194 H185 0.930 . S
C194 C192 1.384 . S
C194 C195 1.381 . S
C195 C194 1.381 . S
C195 C196 1.392 1_565 S
C195 C200 1.490 . S
C196 H186 0.930 . S
C196 C195 1.392 1_545 S
C196 C199 1.386 . S
H197 C213 0.930 . S
H198 C214 0.931 . S
C199 H187 0.929 . S
C199 C193 1.388 1_545 S
C199 C196 1.386 . S
C200 C195 1.490 . S
C200 C202 1.384 1_565 S
C200 C203 1.413 . S
H201 C207 0.930 . S
C202 H188 0.930 . S
C202 C200 1.384 1_545 S
C202 C205 1.403 . S
C203 C200 1.413 . S
C203 C204 1.524 . S
C203 C207 1.400 . S
C204 H189 0.960 . S
C204 H190 0.960 . S
C204 H191 0.960 . S
C204 C203 1.524 . S
C205 C202 1.403 . S
C205 C206 1.392 . S
C205 C209 1.495 . S
C206 C205 1.392 . S
C206 C207 1.385 1_545 S
C206 C208 1.478 . S
C207 H201 0.930 . S
C207 C203 1.400 . S
C207 C206 1.385 1_565 S
C208 C206 1.478 . S
C208 C210 1.381 1_545 S
C208 C214 1.383 . S
C209 C205 1.495 . S
C209 H215 0.959 . S
C209 H216 0.961 . S
C209 H217 0.960 . S
C210 C208 1.381 1_565 S
C210 C211 1.394 . S
C210 H218 0.930 . S
C211 C210 1.394 . S
C211 C212 1.384 1_565 S
C211 H219 0.929 . S
C212 C211 1.384 1_545 S
C212 C213 1.376 . S
C213 H197 0.930 . S
C213 C212 1.376 . S
C213 C214 1.379 . S
C214 H198 0.931 . S
C214 C208 1.383 . S
C214 C213 1.379 . S
H215 C209 0.959 . S
H216 C209 0.961 . S
H217 C209 0.960 . S
H218 C210 0.930 . S
H219 C211 0.929 . S
H220 C228 0.929 . S
H221 C230 0.930 . S
H222 C232 0.930 . S
H223 C235 0.929 . S
H224 C238 0.930 . S
H225 C240 0.960 . S
H226 C240 0.960 . S
H227 C240 0.960 . S
C228 H220 0.929 . S
C228 C229 1.377 . S
C228 C230 1.384 . S
C229 C228 1.377 . S
C229 C235 1.390 . S
C230 H221 0.930 . S
C230 C228 1.384 . S
C230 C231 1.372 . S
C231 C230 1.372 . S
C231 C232 1.400 . S
C231 C236 1.490 . S
C232 H222 0.930 . S
C232 C231 1.400 . S
C232 C235 1.386 . S
H233 C249 0.930 . S
H234 C250 0.931 . S
C235 H223 0.929 . S
C235 C229 1.390 . S
C235 C232 1.386 . S
C236 C231 1.490 . S
C236 C238 1.395 . S
C236 C239 1.403 . S
H237 C243 0.930 . S
C238 H224 0.930 . S
C238 C236 1.395 . S
C238 C241 1.403 . S
C239 C236 1.403 . S
C239 C240 1.524 . S
C239 C243 1.400 . S
C240 H225 0.960 . S
C240 H226 0.960 . S
C240 H227 0.960 . S
C240 C239 1.524 . S
C241 C238 1.403 . S
C241 C242 1.392 . S
C241 C245 1.495 . S
C242 C241 1.392 . S
C242 C243 1.385 . S
C242 C244 1.478 . S
C243 H237 0.930 . S
C243 C239 1.400 . S
C243 C242 1.385 . S
C244 C242 1.478 . S
C244 C246 1.381 . S
C244 C250 1.383 . S
C245 C241 1.495 . S
C245 H251 0.959 . S
C245 H252 0.961 . S
C245 H253 0.960 . S
C246 C244 1.381 . S
C246 C247 1.394 . S
C246 H254 0.930 . S
C247 C246 1.394 . S
C247 C248 1.383 . S
C247 H255 0.929 . S
C248 C247 1.383 . S
C248 C249 1.377 . S
C249 H233 0.930 . S
C249 C248 1.377 . S
C249 C250 1.379 . S
C250 H234 0.931 . S
C250 C244 1.383 . S
C250 C249 1.379 . S
H251 C245 0.959 . S
H252 C245 0.961 . S
H253 C245 0.960 . S
H254 C246 0.930 . S
H255 C247 0.929 . S
H256 C264 0.929 . S
H257 C266 0.930 . S
H258 C268 0.930 . S
H259 C271 0.929 . S
H260 C274 0.930 . S
H261 C276 0.960 . S
H262 C276 0.960 . S
H263 C276 0.960 . S
C264 H256 0.929 . S
C264 C265 1.377 . S
C264 C266 1.384 . S
C265 C264 1.377 . S
C265 C271 1.390 . S
C266 H257 0.930 . S
C266 C264 1.384 . S
C266 C267 1.372 . S
C267 C266 1.372 . S
C267 C268 1.400 . S
C267 C272 1.490 . S
C268 H258 0.930 . S
C268 C267 1.400 . S
C268 C271 1.386 . S
H269 C285 0.930 . S
H270 C286 0.931 . S
C271 H259 0.929 . S
C271 C265 1.390 . S
C271 C268 1.386 . S
C272 C267 1.490 . S
C272 C274 1.395 . S
C272 C275 1.403 . S
H273 C279 0.930 . S
C274 H260 0.930 . S
C274 C272 1.395 . S
C274 C277 1.403 . S
C275 C272 1.403 . S
C275 C276 1.524 . S
C275 C279 1.400 . S
C276 H261 0.960 . S
C276 H262 0.960 . S
C276 H263 0.960 . S
C276 C275 1.524 . S
C277 C274 1.403 . S
C277 C278 1.392 . S
C277 C281 1.495 . S
C278 C277 1.392 . S
C278 C279 1.385 . S
C278 C280 1.478 . S
C279 H273 0.930 . S
C279 C275 1.400 . S
C279 C278 1.385 . S
C280 C278 1.478 . S
C280 C282 1.381 . S
C280 C286 1.383 . S
C281 C277 1.495 . S
C281 H287 0.959 . S
C281 H288 0.961 . S
C281 H289 0.960 . S
C282 C280 1.381 . S
C282 C283 1.394 . S
C282 H290 0.930 . S
C283 C282 1.394 . S
C283 C284 1.383 . S
C283 H291 0.929 . S
C284 C283 1.383 . S
C284 C285 1.377 . S
C285 H269 0.930 . S
C285 C284 1.377 . S
C285 C286 1.379 . S
C286 H270 0.931 . S
C286 C280 1.383 . S
C286 C285 1.379 . S
H287 C281 0.959 . S
H288 C281 0.961 . S
H289 C281 0.960 . S
H290 C282 0.930 . S
H291 C283 0.929 . S
H292 C300 0.929 . S
H293 C302 0.930 . S
H294 C304 0.930 . S
H295 C307 0.929 . S
H296 C310 0.930 . S
H297 C312 0.960 . S
H298 C312 0.960 . S
H299 C312 0.960 . S
C300 H292 0.929 . S
C300 C301 1.377 . S
C300 C302 1.384 . S
C301 C300 1.377 . S
C301 C307 1.390 . S
C302 H293 0.930 . S
C302 C300 1.384 . S
C302 C303 1.372 . S
C303 C302 1.372 . S
C303 C304 1.400 . S
C303 C308 1.490 . S
C304 H294 0.930 . S
C304 C303 1.400 . S
C304 C307 1.386 . S
H305 C321 0.930 . S
H306 C322 0.931 . S
C307 H295 0.929 . S
C307 C301 1.390 . S
C307 C304 1.386 . S
C308 C303 1.490 . S
C308 C310 1.395 . S
C308 C311 1.403 . S
H309 C315 0.930 . S
C310 H296 0.930 . S
C310 C308 1.395 . S
C310 C313 1.403 . S
C311 C308 1.403 . S
C311 C312 1.524 . S
C311 C315 1.400 . S
C312 H297 0.960 . S
C312 H298 0.960 . S
C312 H299 0.960 . S
C312 C311 1.524 . S
C313 C310 1.403 . S
C313 C314 1.392 . S
C313 C317 1.495 1_455 S
C314 C313 1.392 . S
C314 C315 1.385 . S
C314 C316 1.478 . S
C315 H309 0.930 . S
C315 C311 1.400 . S
C315 C314 1.385 . S
C316 C314 1.478 . S
C316 C318 1.381 . S
C316 C322 1.383 . S
C317 C313 1.495 1_655 S
C317 H323 0.959 . S
C317 H324 0.961 . S
C317 H325 0.960 . S
C318 C316 1.381 . S
C318 C319 1.394 . S
C318 H326 0.930 . S
C319 C318 1.394 . S
C319 C320 1.383 . S
C319 H327 0.929 . S
C320 C319 1.383 . S
C320 C321 1.377 . S
C321 H305 0.930 . S
C321 C320 1.377 . S
C321 C322 1.379 . S
C322 H306 0.931 . S
C322 C316 1.383 . S
C322 C321 1.379 . S
H323 C317 0.959 . S
H324 C317 0.961 . S
H325 C317 0.960 . S
H326 C318 0.930 . S
H327 C319 0.929 . S
H328 C336 0.929 . S
H329 C338 0.930 . S
H330 C340 0.930 . S
H331 C343 0.929 1_554 S
H332 C346 0.930 . S
H333 C348 0.960 . S
H334 C348 0.960 . S
H335 C348 0.960 . S
C336 H328 0.929 . S
C336 C337 1.379 1_545 S
C336 C338 1.384 . S
C337 C336 1.379 1_565 S
C337 C343 1.389 . S
C338 H329 0.930 . S
C338 C336 1.384 . S
C338 C339 1.379 . S
C339 C338 1.379 . S
C339 C340 1.393 1_545 S
C339 C344 1.491 . S
C340 H330 0.930 . S
C340 C339 1.393 1_565 S
C340 C343 1.386 . S
H341 C357 0.924 1_565 S
H342 C358 0.933 . S
C343 H331 0.929 1_556 S
C343 C337 1.389 . S
C343 C340 1.386 . S
C344 C339 1.491 . S
C344 C346 1.395 . S
C344 C347 1.403 1_545 S
H345 C351 0.930 . S
C346 H332 0.930 . S
C346 C344 1.395 . S
C346 C349 1.403 . S
C347 C344 1.403 1_565 S
C347 C348 1.524 . S
C347 C351 1.400 . S
C348 H333 0.960 . S
C348 H334 0.960 . S
C348 H335 0.960 . S
C348 C347 1.524 . S
C349 C346 1.403 . S
C349 C350 1.392 . S
C349 C353 1.495 . S
C350 C349 1.392 . S
C350 C351 1.385 1_545 S
C350 C352 1.478 . S
C351 H345 0.930 . S
C351 C347 1.400 . S
C351 C350 1.385 1_565 S
C352 C350 1.478 . S
C352 C354 1.381 . S
C352 C358 1.383 . S
C353 C349 1.495 . S
C353 H359 0.959 . S
C353 H360 0.961 . S
C353 H361 0.960 . S
C354 C352 1.381 . S
C354 C355 1.394 . S
C354 H362 0.930 . S
C355 C354 1.394 . S
C355 C356 1.383 . S
C355 H363 0.929 . S
C356 C355 1.383 . S
C356 C357 1.381 . S
C357 H341 0.924 1_545 S
C357 C356 1.381 . S
C357 C358 1.382 . S
C358 H342 0.933 . S
C358 C352 1.383 . S
C358 C357 1.382 . S
H359 C353 0.959 . S
H360 C353 0.961 . S
H361 C353 0.960 . S
H362 C354 0.930 . S
H363 C355 0.929 . S
H364 C372 0.929 . S
H365 C374 0.930 . S
H366 C376 0.930 . S
H367 C379 0.929 1_554 S
H368 C382 0.930 . S
H369 C384 0.960 . S
H370 C384 0.960 . S
H371 C384 0.960 . S
C372 H364 0.929 . S
C372 C373 1.377 . S
C372 C374 1.384 . S
C373 C372 1.377 . S
C373 C379 1.390 . S
C374 H365 0.930 . S
C374 C372 1.384 . S
C374 C375 1.372 . S
C375 C374 1.372 . S
C375 C376 1.400 . S
C375 C380 1.490 . S
C376 H366 0.930 . S
C376 C375 1.400 . S
C376 C379 1.386 . S
H377 C393 0.930 . S
H378 C394 0.931 . S
C379 H367 0.929 1_556 S
C379 C373 1.390 . S
C379 C376 1.386 . S
C380 C375 1.490 . S
C380 C382 1.395 . S
C380 C383 1.403 . S
H381 C387 0.930 . S
C382 H368 0.930 . S
C382 C380 1.395 . S
C382 C385 1.403 . S
C383 C380 1.403 . S
C383 C384 1.524 . S
C383 C387 1.400 . S
C384 H369 0.960 . S
C384 H370 0.960 . S
C384 H371 0.960 . S
C384 C383 1.524 . S
C385 C382 1.403 . S
C385 C386 1.392 . S
C385 C389 1.495 . S
C386 C385 1.392 . S
C386 C387 1.385 . S
C386 C388 1.478 . S
C387 H381 0.930 . S
C387 C383 1.400 . S
C387 C386 1.385 . S
C388 C386 1.478 . S
C388 C390 1.381 . S
C388 C394 1.383 . S
C389 C385 1.495 . S
C389 H395 0.959 . S
C389 H396 0.961 . S
C389 H397 0.960 . S
C390 C388 1.381 . S
C390 C391 1.394 . S
C390 H398 0.930 . S
C391 C390 1.394 . S
C391 C392 1.383 . S
C391 H399 0.929 . S
C392 C391 1.383 . S
C392 C393 1.377 . S
C393 H377 0.930 . S
C393 C392 1.377 . S
C393 C394 1.379 . S
C394 H378 0.931 . S
C394 C388 1.383 . S
C394 C393 1.379 . S
H395 C389 0.959 . S
H396 C389 0.961 . S
H397 C389 0.960 . S
H398 C390 0.930 . S
H399 C391 0.929 . S
H400 C408 0.929 . S
H401 C410 0.930 . S
H402 C412 0.930 . S
H403 C415 0.929 1_554 S
H404 C418 0.930 . S
H405 C420 0.960 . S
H406 C420 0.960 . S
H407 C420 0.960 . S
C408 H400 0.929 . S
C408 C409 1.377 . S
C408 C410 1.384 . S
C409 C408 1.377 . S
C409 C415 1.390 . S
C410 H401 0.930 . S
C410 C408 1.384 . S
C410 C411 1.372 . S
C411 C410 1.372 . S
C411 C412 1.400 . S
C411 C416 1.490 . S
C412 H402 0.930 . S
C412 C411 1.400 . S
C412 C415 1.386 . S
H413 C429 0.930 . S
H414 C430 0.931 . S
C415 H403 0.929 1_556 S
C415 C409 1.390 . S
C415 C412 1.386 . S
C416 C411 1.490 . S
C416 C418 1.395 . S
C416 C419 1.403 . S
H417 C423 0.930 . S
C418 H404 0.930 . S
C418 C416 1.395 . S
C418 C421 1.403 . S
C419 C416 1.403 . S
C419 C420 1.524 . S
C419 C423 1.400 . S
C420 H405 0.960 . S
C420 H406 0.960 . S
C420 H407 0.960 . S
C420 C419 1.524 . S
C421 C418 1.403 . S
C421 C422 1.392 . S
C421 C425 1.495 . S
C422 C421 1.392 . S
C422 C423 1.385 . S
C422 C424 1.478 . S
C423 H417 0.930 . S
C423 C419 1.400 . S
C423 C422 1.385 . S
C424 C422 1.478 . S
C424 C426 1.381 . S
C424 C430 1.383 . S
C425 C421 1.495 . S
C425 H431 0.959 . S
C425 H432 0.961 . S
C425 H433 0.960 . S
C426 C424 1.381 . S
C426 C427 1.394 . S
C426 H434 0.930 . S
C427 C426 1.394 . S
C427 C428 1.383 . S
C427 H435 0.929 . S
C428 C427 1.383 . S
C428 C429 1.377 . S
C429 H413 0.930 . S
C429 C428 1.377 . S
C429 C430 1.379 . S
C430 H414 0.931 . S
C430 C424 1.383 . S
C430 C429 1.379 . S
H431 C425 0.959 . S
H432 C425 0.961 . S
H433 C425 0.960 . S
H434 C426 0.930 . S
H435 C427 0.929 . S
H436 C444 0.929 . S
H437 C446 0.930 . S
H438 C448 0.930 . S
H439 C451 0.929 1_554 S
H440 C454 0.930 1_455 S
H441 C456 0.960 . S
H442 C456 0.960 . S
H443 C456 0.960 . S
C444 H436 0.929 . S
C444 C445 1.377 . S
C444 C446 1.384 . S
C445 C444 1.377 . S
C445 C451 1.390 . S
C446 H437 0.930 . S
C446 C444 1.384 . S
C446 C447 1.372 . S
C447 C446 1.372 . S
C447 C448 1.400 . S
C447 C452 1.490 . S
C448 H438 0.930 . S
C448 C447 1.400 . S
C448 C451 1.386 . S
H449 C465 0.930 . S
H450 C466 0.931 . S
C451 H439 0.929 1_556 S
C451 C445 1.390 . S
C451 C448 1.386 . S
C452 C447 1.490 . S
C452 C454 1.395 . S
C452 C455 1.403 . S
H453 C459 0.930 . S
C454 H440 0.930 1_655 S
C454 C452 1.395 . S
C454 C457 1.403 . S
C455 C452 1.403 . S
C455 C456 1.524 . S
C455 C459 1.400 . S
C456 H441 0.960 . S
C456 H442 0.960 . S
C456 H443 0.960 . S
C456 C455 1.524 . S
C457 C454 1.403 . S
C457 C458 1.392 . S
C457 C461 1.495 1_655 S
C458 C457 1.392 . S
C458 C459 1.385 . S
C458 C460 1.478 . S
C459 H453 0.930 . S
C459 C455 1.400 . S
C459 C458 1.385 . S
C460 C458 1.478 . S
C460 C462 1.381 . S
C460 C466 1.383 . S
C461 C457 1.495 1_455 S
C461 H467 0.959 . S
C461 H468 0.961 . S
C461 H469 0.960 . S
C462 C460 1.381 . S
C462 C463 1.394 . S
C462 H470 0.930 . S
C463 C462 1.394 . S
C463 C464 1.383 . S
C463 H471 0.929 . S
C464 C463 1.383 . S
C464 C465 1.377 . S
C465 H449 0.930 . S
C465 C464 1.377 . S
C465 C466 1.379 . S
C466 H450 0.931 . S
C466 C460 1.383 . S
C466 C465 1.379 . S
H467 C461 0.959 . S
H468 C461 0.961 . S
H469 C461 0.960 . S
H470 C462 0.930 . S
H471 C463 0.929 . S
H472 C480 0.929 . S
H473 C482 0.930 . S
H474 C484 0.930 . S
H475 C487 0.929 . S
H476 C490 0.930 . S
H477 C492 0.960 . S
H478 C492 0.960 . S
H479 C492 0.948 1_455 S
C480 H472 0.929 . S
C480 C481 1.377 . S
C480 C482 1.384 . S
C481 C480 1.377 . S
C481 C487 1.390 . S
C482 H473 0.930 . S
C482 C480 1.384 . S
C482 C483 1.372 . S
C483 C482 1.372 . S
C483 C484 1.400 . S
C483 C488 1.490 . S
C484 H474 0.930 . S
C484 C483 1.400 . S
C484 C487 1.386 . S
H485 C501 0.930 . S
H486 C502 0.931 . S
C487 H475 0.929 . S
C487 C481 1.390 . S
C487 C484 1.386 . S
C488 C483 1.490 . S
C488 C490 1.395 . S
C488 C491 1.403 . S
H489 C495 0.930 1_655 S
C490 H476 0.930 . S
C490 C488 1.395 . S
C490 C493 1.403 . S
C491 C488 1.403 . S
C491 C492 1.524 1_455 S
C491 C495 1.400 . S
C492 H477 0.960 . S
C492 H478 0.960 . S
C492 H479 0.948 1_655 S
C492 C491 1.524 1_655 S
C493 C490 1.403 . S
C493 C494 1.392 . S
C493 C497 1.495 . S
C494 C493 1.392 . S
C494 C495 1.385 . S
C494 C496 1.478 . S
C495 H489 0.930 1_455 S
C495 C491 1.400 . S
C495 C494 1.385 . S
C496 C494 1.478 . S
C496 C498 1.381 . S
C496 C502 1.383 . S
C497 C493 1.495 . S
C497 H503 0.959 . S
C497 H504 0.961 . S
C497 H505 0.960 . S
C498 C496 1.381 . S
C498 C499 1.394 . S
C498 H506 0.930 . S
C499 C498 1.394 . S
C499 C500 1.383 . S
C499 H507 0.929 . S
C500 C499 1.383 . S
C500 C501 1.377 . S
C501 H485 0.930 . S
C501 C500 1.377 . S
C501 C502 1.379 . S
C502 H486 0.931 . S
C502 C496 1.383 . S
C502 C501 1.379 . S
H503 C497 0.959 . S
H504 C497 0.961 . S
H505 C497 0.960 . S
H506 C498 0.930 . S
H507 C499 0.929 . S
H508 C516 0.929 . S
H509 C518 0.930 . S
H510 C520 0.930 . S
H511 C523 0.929 . S
H512 C526 0.930 . S
H513 C528 0.960 . S
H514 C528 0.960 . S
H515 C528 0.960 . S
C516 H508 0.929 . S
C516 C517 1.379 . S
C516 C518 1.384 . S
C517 C516 1.379 . S
C517 C523 1.388 1_565 S
C518 H509 0.930 . S
C518 C516 1.384 . S
C518 C519 1.372 . S
C519 C518 1.372 . S
C519 C520 1.400 1_565 S
C519 C524 1.490 . S
C520 H510 0.930 . S
C520 C519 1.400 1_545 S
C520 C523 1.386 . S
H521 C537 0.930 . S
H522 C538 0.931 . S
C523 H511 0.929 . S
C523 C517 1.388 1_545 S
C523 C520 1.386 . S
C524 C519 1.490 . S
C524 C526 1.395 1_565 S
C524 C527 1.403 . S
H525 C531 0.930 . S
C526 H512 0.930 . S
C526 C524 1.395 1_545 S
C526 C529 1.403 . S
C527 C524 1.403 . S
C527 C528 1.524 . S
C527 C531 1.400 . S
C528 H513 0.960 . S
C528 H514 0.960 . S
C528 H515 0.960 . S
C528 C527 1.524 . S
C529 C526 1.403 . S
C529 C530 1.392 1_545 S
C529 C533 1.495 . S
C530 C529 1.392 1_565 S
C530 C531 1.385 . S
C530 C532 1.478 . S
C531 H525 0.930 . S
C531 C527 1.400 . S
C531 C530 1.385 . S
C532 C530 1.478 . S
C532 C534 1.381 . S
C532 C538 1.383 1_565 S
C533 C529 1.495 . S
C533 H539 0.959 . S
C533 H540 0.961 . S
C533 H541 0.960 1_545 S
C534 C532 1.381 . S
C534 C535 1.394 . S
C534 H542 0.930 . S
C535 C534 1.394 . S
C535 C536 1.383 . S
C535 H543 0.929 . S
C536 C535 1.383 . S
C536 C537 1.377 1_565 S
C537 H521 0.930 . S
C537 C536 1.377 1_545 S
C537 C538 1.379 . S
C538 H522 0.931 . S
C538 C532 1.383 1_545 S
C538 C537 1.379 . S
H539 C533 0.959 . S
H540 C533 0.961 . S
H541 C533 0.960 1_565 S
H542 C534 0.930 . S
H543 C535 0.929 . S
H544 C552 0.929 . S
H545 C554 0.930 . S
H546 C556 0.930 . S
H547 C559 0.929 . S
H548 C562 0.930 . S
H549 C564 0.960 . S
H550 C564 0.960 . S
H551 C564 0.960 . S
C552 H544 0.929 . S
C552 C553 1.377 . S
C552 C554 1.384 . S
C553 C552 1.377 . S
C553 C559 1.390 . S
C554 H545 0.930 . S
C554 C552 1.384 . S
C554 C555 1.372 . S
C555 C554 1.372 . S
C555 C556 1.400 . S
C555 C560 1.490 . S
C556 H546 0.930 . S
C556 C555 1.400 . S
C556 C559 1.386 . S
H557 C573 0.930 . S
H558 C574 0.931 . S
C559 H547 0.929 . S
C559 C553 1.390 . S
C559 C556 1.386 . S
C560 C555 1.490 . S
C560 C562 1.395 . S
C560 C563 1.403 . S
H561 C567 0.930 . S
C562 H548 0.930 . S
C562 C560 1.395 . S
C562 C565 1.403 . S
C563 C560 1.403 . S
C563 C564 1.524 . S
C563 C567 1.400 . S
C564 H549 0.960 . S
C564 H550 0.960 . S
C564 H551 0.960 . S
C564 C563 1.524 . S
C565 C562 1.403 . S
C565 C566 1.392 . S
C565 C569 1.495 . S
C566 C565 1.392 . S
C566 C567 1.385 . S
C566 C568 1.478 . S
C567 H561 0.930 . S
C567 C563 1.400 . S
C567 C566 1.385 . S
C568 C566 1.478 . S
C568 C570 1.381 . S
C568 C574 1.383 . S
C569 C565 1.495 . S
C569 H575 0.959 . S
C569 H576 0.961 . S
C569 H577 0.960 . S
C570 C568 1.381 . S
C570 C571 1.394 . S
C570 H578 0.930 . S
C571 C570 1.394 . S
C571 C572 1.383 . S
C571 H579 0.929 . S
C572 C571 1.383 . S
C572 C573 1.377 . S
C573 H557 0.930 . S
C573 C572 1.377 . S
C573 C574 1.379 . S
C574 H558 0.931 . S
C574 C568 1.383 . S
C574 C573 1.379 . S
H575 C569 0.959 . S
H576 C569 0.961 . S
H577 C569 0.960 . S
H578 C570 0.930 . S
H579 C571 0.929 . S
H580 C588 0.929 . S
H581 C590 0.930 . S
H582 C592 0.930 . S
H583 C595 0.929 . S
H584 C598 0.930 . S
H585 C600 0.960 . S
H586 C600 0.960 . S
H587 C600 0.960 . S
C588 H580 0.929 . S
C588 C589 1.377 . S
C588 C590 1.384 . S
C589 C588 1.377 . S
C589 C595 1.390 . S
C590 H581 0.930 . S
C590 C588 1.384 . S
C590 C591 1.372 . S
C591 C590 1.372 . S
C591 C592 1.400 . S
C591 C596 1.490 . S
C592 H582 0.930 . S
C592 C591 1.400 . S
C592 C595 1.386 . S
H593 C609 0.930 . S
H594 C610 0.931 . S
C595 H583 0.929 . S
C595 C589 1.390 . S
C595 C592 1.386 . S
C596 C591 1.490 . S
C596 C598 1.395 . S
C596 C599 1.403 . S
H597 C603 0.930 . S
C598 H584 0.930 . S
C598 C596 1.395 . S
C598 C601 1.403 . S
C599 C596 1.403 . S
C599 C600 1.524 . S
C599 C603 1.400 . S
C600 H585 0.960 . S
C600 H586 0.960 . S
C600 H587 0.960 . S
C600 C599 1.524 . S
C601 C598 1.403 . S
C601 C602 1.392 . S
C601 C605 1.495 . S
C602 C601 1.392 . S
C602 C603 1.385 . S
C602 C604 1.478 . S
C603 H597 0.930 . S
C603 C599 1.400 . S
C603 C602 1.385 . S
C604 C602 1.478 . S
C604 C606 1.381 . S
C604 C610 1.383 . S
C605 C601 1.495 . S
C605 H611 0.959 . S
C605 H612 0.961 . S
C605 H613 0.960 . S
C606 C604 1.381 . S
C606 C607 1.394 . S
C606 H614 0.930 . S
C607 C606 1.394 . S
C607 C608 1.383 . S
C607 H615 0.929 . S
C608 C607 1.383 . S
C608 C609 1.377 . S
C609 H593 0.930 . S
C609 C608 1.377 . S
C609 C610 1.379 . S
C610 H594 0.931 . S
C610 C604 1.383 . S
C610 C609 1.379 . S
H611 C605 0.959 . S
H612 C605 0.961 . S
H613 C605 0.960 . S
H614 C606 0.930 . S
H615 C607 0.929 . S
H616 C624 0.929 . S
H617 C626 0.930 . S
H618 C628 0.930 . S
H619 C631 0.929 1_554 S
H620 C634 0.930 . S
H621 C636 0.960 . S
H622 C636 0.960 1_655 S
H623 C636 0.960 . S
C624 H616 0.929 . S
C624 C625 1.377 . S
C624 C626 1.384 . S
C625 C624 1.377 . S
C625 C631 1.390 . S
C626 H617 0.930 . S
C626 C624 1.384 . S
C626 C627 1.372 . S
C627 C626 1.372 . S
C627 C628 1.400 . S
C627 C632 1.490 . S
C628 H618 0.930 . S
C628 C627 1.400 . S
C628 C631 1.386 . S
H629 C645 0.930 . S
H630 C646 0.931 . S
C631 H619 0.929 1_556 S
C631 C625 1.390 . S
C631 C628 1.386 . S
C632 C627 1.490 . S
C632 C634 1.395 . S
C632 C635 1.403 . S
H633 C639 0.930 1_455 S
C634 H620 0.930 . S
C634 C632 1.395 . S
C634 C637 1.403 . S
C635 C632 1.403 . S
C635 C636 1.524 1_655 S
C635 C639 1.400 . S
C636 H621 0.960 . S
C636 H622 0.960 1_455 S
C636 H623 0.960 . S
C636 C635 1.524 1_455 S
C637 C634 1.403 . S
C637 C638 1.392 . S
C637 C641 1.495 . S
C638 C637 1.392 . S
C638 C639 1.385 . S
C638 C640 1.478 . S
C639 H633 0.930 1_655 S
C639 C635 1.400 . S
C639 C638 1.385 . S
C640 C638 1.478 . S
C640 C642 1.381 . S
C640 C646 1.383 1_655 S
C641 C637 1.495 . S
C641 H647 0.959 . S
C641 H648 0.961 . S
C641 H649 0.960 . S
C642 C640 1.381 . S
C642 C643 1.394 . S
C642 H650 0.930 . S
C643 C642 1.394 . S
C643 C644 1.383 . S
C643 H651 0.929 . S
C644 C643 1.383 . S
C644 C645 1.377 1_655 S
C645 H629 0.930 . S
C645 C644 1.377 1_455 S
C645 C646 1.379 . S
C646 H630 0.931 . S
C646 C640 1.383 1_455 S
C646 C645 1.379 . S
H647 C641 0.959 . S
H648 C641 0.961 . S
H649 C641 0.960 . S
H650 C642 0.930 . S
H651 C643 0.929 . S
H652 C660 0.929 . S
H653 C662 0.930 1_554 S
H654 C664 0.930 . S
H655 C667 0.929 . S
H656 C670 0.930 . S
H657 C672 0.960 . S
H658 C672 0.960 . S
H659 C672 0.960 . S
C660 H652 0.929 . S
C660 C661 1.376 1_544 S
C660 C662 1.384 1_554 S
C661 C660 1.376 1_566 S
C661 C667 1.391 . S
C662 H653 0.930 1_556 S
C662 C660 1.384 1_556 S
C662 C663 1.372 . S
C663 C662 1.372 . S
C663 C664 1.400 1_545 S
C663 C668 1.490 . S
C664 H654 0.930 . S
C664 C663 1.400 1_565 S
C664 C667 1.386 . S
H665 C681 0.930 . S
H666 C682 0.931 . S
C667 H655 0.929 . S
C667 C661 1.391 . S
C667 C664 1.386 . S
C668 C663 1.490 . S
C668 C670 1.395 . S
C668 C671 1.403 1_545 S
H669 C675 0.930 . S
C670 H656 0.930 . S
C670 C668 1.395 . S
C670 C673 1.403 . S
C671 C668 1.403 1_565 S
C671 C672 1.524 . S
C671 C675 1.400 . S
C672 H657 0.960 . S
C672 H658 0.960 . S
C672 H659 0.960 . S
C672 C671 1.524 . S
C673 C670 1.403 . S
C673 C674 1.392 . S
C673 C677 1.495 . S
C674 C673 1.392 . S
C674 C675 1.385 1_545 S
C674 C676 1.478 . S
C675 H669 0.930 . S
C675 C671 1.400 . S
C675 C674 1.385 1_565 S
C676 C674 1.478 . S
C676 C678 1.381 . S
C676 C682 1.383 . S
C677 C673 1.495 . S
C677 H683 0.959 . S
C677 H684 0.961 . S
C677 H685 0.960 . S
C678 C676 1.381 . S
C678 C679 1.394 . S
C678 H686 0.930 . S
C679 C678 1.394 . S
C679 C680 1.383 . S
C679 H687 0.929 . S
C680 C679 1.383 . S
C680 C681 1.377 . S
C681 H665 0.930 . S
C681 C680 1.377 . S
C681 C682 1.379 . S
C682 H666 0.931 . S
C682 C676 1.383 . S
C682 C681 1.379 . S
H683 C677 0.959 . S
H684 C677 0.961 . S
H685 C677 0.960 . S
H686 C678 0.930 . S
H687 C679 0.929 . S
H688 C696 0.929 1_554 S
H689 C698 0.930 . S
H690 C700 0.930 . S
H691 C703 0.929 . S
H692 C706 0.930 . S
H693 C708 0.960 . S
H694 C708 0.960 . S
H695 C708 0.960 . S
C696 H688 0.929 1_556 S
C696 C697 1.377 . S
C696 C698 1.384 . S
C697 C696 1.377 . S
C697 C703 1.390 . S
C698 H689 0.930 . S
C698 C696 1.384 . S
C698 C699 1.372 . S
C699 C698 1.372 . S
C699 C700 1.400 . S
C699 C704 1.490 . S
C700 H690 0.930 . S
C700 C699 1.400 . S
C700 C703 1.386 . S
H701 C717 0.930 . S
H702 C718 0.931 . S
C703 H691 0.929 . S
C703 C697 1.390 . S
C703 C700 1.386 . S
C704 C699 1.490 . S
C704 C706 1.395 . S
C704 C707 1.403 . S
H705 C711 0.930 . S
C706 H692 0.930 . S
C706 C704 1.395 . S
C706 C709 1.403 . S
C707 C704 1.403 . S
C707 C708 1.524 . S
C707 C711 1.400 . S
C708 H693 0.960 . S
C708 H694 0.960 . S
C708 H695 0.960 . S
C708 C707 1.524 . S
C709 C706 1.403 . S
C709 C710 1.392 . S
C709 C713 1.495 . S
C710 C709 1.392 . S
C710 C711 1.385 . S
C710 C712 1.478 . S
C711 H705 0.930 . S
C711 C707 1.400 . S
C711 C710 1.385 . S
C712 C710 1.478 . S
C712 C714 1.381 . S
C712 C718 1.383 . S
C713 C709 1.495 . S
C713 H719 0.959 . S
C713 H720 0.961 . S
C713 H721 0.960 . S
C714 C712 1.381 . S
C714 C715 1.394 . S
C714 H722 0.930 . S
C715 C714 1.394 . S
C715 C716 1.383 . S
C715 H723 0.929 . S
C716 C715 1.383 . S
C716 C717 1.377 . S
C717 H701 0.930 . S
C717 C716 1.377 . S
C717 C718 1.379 . S
C718 H702 0.931 . S
C718 C712 1.383 . S
C718 C717 1.379 . S
H719 C713 0.959 . S
H720 C713 0.961 . S
H721 C713 0.960 . S
H722 C714 0.930 . S
H723 C715 0.929 . S
H724 C732 0.929 . S
H725 C734 0.930 . S
H726 C736 0.930 . S
H727 C739 0.929 . S
H728 C742 0.930 . S
H729 C744 0.960 . S
H730 C744 0.960 . S
H731 C744 0.960 . S
C732 H724 0.929 . S
C732 C733 1.377 . S
C732 C734 1.384 . S
C733 C732 1.377 . S
C733 C739 1.390 . S
C734 H725 0.930 . S
C734 C732 1.384 . S
C734 C735 1.372 . S
C735 C734 1.372 . S
C735 C736 1.400 . S
C735 C740 1.490 . S
C736 H726 0.930 . S
C736 C735 1.400 . S
C736 C739 1.386 . S
H737 C753 0.930 . S
H738 C754 0.931 . S
C739 H727 0.929 . S
C739 C733 1.390 . S
C739 C736 1.386 . S
C740 C735 1.490 . S
C740 C742 1.395 . S
C740 C743 1.403 . S
H741 C747 0.930 . S
C742 H728 0.930 . S
C742 C740 1.395 . S
C742 C745 1.403 . S
C743 C740 1.403 . S
C743 C744 1.524 . S
C743 C747 1.400 . S
C744 H729 0.960 . S
C744 H730 0.960 . S
C744 H731 0.960 . S
C744 C743 1.524 . S
C745 C742 1.403 . S
C745 C746 1.392 . S
C745 C749 1.495 . S
C746 C745 1.392 . S
C746 C747 1.385 . S
C746 C748 1.478 . S
C747 H741 0.930 . S
C747 C743 1.400 . S
C747 C746 1.385 . S
C748 C746 1.478 . S
C748 C750 1.381 . S
C748 C754 1.383 . S
C749 C745 1.495 . S
C749 H755 0.959 . S
C749 H756 0.961 . S
C749 H757 0.960 . S
C750 C748 1.381 . S
C750 C751 1.394 . S
C750 H758 0.930 . S
C751 C750 1.394 . S
C751 C752 1.383 . S
C751 H759 0.929 . S
C752 C751 1.383 . S
C752 C753 1.377 . S
C753 H737 0.930 . S
C753 C752 1.377 . S
C753 C754 1.379 . S
C754 H738 0.931 . S
C754 C748 1.383 . S
C754 C753 1.379 . S
H755 C749 0.959 . S
H756 C749 0.961 . S
H757 C749 0.960 . S
H758 C750 0.930 . S
H759 C751 0.929 . S
H760 C768 0.931 . S
H761 C770 0.930 . S
H762 C772 0.930 . S
H763 C775 0.929 . S
H764 C778 0.930 . S
H765 C780 0.960 1_655 S
H766 C780 0.960 . S
H767 C780 0.935 1_655 S
C768 H760 0.931 . S
C768 C769 1.371 1_556 S
C768 C770 1.389 . S
C769 C768 1.371 1_554 S
C769 C775 1.390 . S
C770 H761 0.930 . S
C770 C768 1.389 . S
C770 C771 1.372 . S
C771 C770 1.372 . S
C771 C772 1.400 1_556 S
C771 C776 1.490 . S
C772 H762 0.930 . S
C772 C771 1.400 1_554 S
C772 C775 1.386 . S
H773 C789 0.930 1_655 S
H774 C790 0.931 . S
C775 H763 0.929 . S
C775 C769 1.390 . S
C775 C772 1.386 . S
C776 C771 1.490 . S
C776 C778 1.395 . S
C776 C779 1.403 . S
H777 C783 0.930 . S
C778 H764 0.930 . S
C778 C776 1.395 . S
C778 C781 1.403 . S
C779 C776 1.403 . S
C779 C780 1.524 . S
C779 C783 1.400 . S
C780 H765 0.960 1_455 S
C780 H766 0.960 . S
C780 H767 0.935 1_455 S
C780 C779 1.524 . S
C781 C778 1.403 . S
C781 C782 1.392 . S
C781 C785 1.495 . S
C782 C781 1.392 . S
C782 C783 1.385 . S
C782 C784 1.478 . S
C783 H777 0.930 . S
C783 C779 1.400 . S
C783 C782 1.385 . S
C784 C782 1.478 . S
C784 C786 1.381 . S
C784 C790 1.383 . S
C785 C781 1.495 . S
C785 H791 0.959 . S
C785 H792 0.961 . S
C785 H793 0.960 . S
C786 C784 1.381 . S
C786 C787 1.394 . S
C786 H794 0.930 . S
C787 C786 1.394 . S
C787 C788 1.383 . S
C787 H795 0.929 . S
C788 C787 1.383 . S
C788 C789 1.377 . S
C789 H773 0.930 1_455 S
C789 C788 1.377 . S
C789 C790 1.379 . S
C790 H774 0.931 . S
C790 C784 1.383 . S
C790 C789 1.379 . S
H791 C785 0.959 . S
H792 C785 0.961 . S
H793 C785 0.960 . S
H794 C786 0.930 . S
H795 C787 0.929 . S
H796 C804 0.929 . S
H797 C806 0.930 . S
H798 C808 0.930 . S
H799 C811 0.929 . S
H800 C814 0.930 . S
H801 C816 0.960 . S
H802 C816 0.960 1_556 S
H803 C816 0.960 . S
C804 H796 0.929 . S
C804 C805 1.375 1_566 S
C804 C806 1.384 . S
C805 C804 1.375 1_544 S
C805 C811 1.392 . S
C806 H797 0.930 . S
C806 C804 1.384 . S
C806 C807 1.372 1_565 S
C807 C806 1.372 1_545 S
C807 C808 1.400 1_556 S
C807 C812 1.490 . S
C808 H798 0.930 . S
C808 C807 1.400 1_554 S
C808 C811 1.386 . S
H809 C825 0.930 . S
H810 C826 0.931 . S
C811 H799 0.929 . S
C811 C805 1.392 . S
C811 C808 1.386 . S
C812 C807 1.490 . S
C812 C814 1.395 . S
C812 C815 1.403 1_545 S
H813 C819 0.930 . S
C814 H800 0.930 . S
C814 C812 1.395 . S
C814 C817 1.403 . S
C815 C812 1.403 1_565 S
C815 C816 1.524 1_556 S
C815 C819 1.400 . S
C816 H801 0.960 . S
C816 H802 0.960 1_554 S
C816 H803 0.960 . S
C816 C815 1.524 1_554 S
C817 C814 1.403 . S
C817 C818 1.392 . S
C817 C821 1.495 . S
C818 C817 1.392 . S
C818 C819 1.385 1_545 S
C818 C820 1.478 . S
C819 H813 0.930 . S
C819 C815 1.400 . S
C819 C818 1.385 1_565 S
C820 C818 1.478 . S
C820 C822 1.370 1_545 S
C820 C826 1.383 . S
C821 C817 1.495 . S
C821 H827 0.959 . S
C821 H828 0.961 . S
C821 H829 0.960 . S
C822 C820 1.370 1_565 S
C822 C823 1.394 . S
C822 H830 0.942 . S
C823 C822 1.394 . S
C823 C824 1.366 1_565 S
C823 H831 0.949 . S
C824 C823 1.366 1_545 S
C824 C825 1.377 . S
C825 H809 0.930 . S
C825 C824 1.377 . S
C825 C826 1.379 . S
C826 H810 0.931 . S
C826 C820 1.383 . S
C826 C825 1.379 . S
H827 C821 0.959 . S
H828 C821 0.961 . S
H829 C821 0.960 . S
H830 C822 0.942 . S
H831 C823 0.949 . S
H832 C840 0.929 . S
H833 C842 0.930 . S
H834 C844 0.930 . S
H835 C847 0.929 . S
H836 C850 0.930 . S
H837 C852 0.960 . S
H838 C852 0.960 . S
H839 C852 0.960 . S
C840 H832 0.929 . S
C840 C841 1.377 . S
C840 C842 1.384 . S
C841 C840 1.377 . S
C841 C847 1.390 1_554 S
C842 H833 0.930 . S
C842 C840 1.384 . S
C842 C843 1.372 1_554 S
C843 C842 1.372 1_556 S
C843 C844 1.400 . S
C843 C848 1.490 . S
C844 H834 0.930 . S
C844 C843 1.400 . S
C844 C847 1.386 . S
H845 C861 0.930 . S
H846 C862 0.931 . S
C847 H835 0.929 . S
C847 C841 1.390 1_556 S
C847 C844 1.386 . S
C848 C843 1.490 . S
C848 C850 1.395 . S
C848 C851 1.403 . S
H849 C855 0.930 . S
C850 H836 0.930 . S
C850 C848 1.395 . S
C850 C853 1.403 . S
C851 C848 1.403 . S
C851 C852 1.524 . S
C851 C855 1.400 . S
C852 H837 0.960 . S
C852 H838 0.960 . S
C852 H839 0.960 . S
C852 C851 1.524 . S
C853 C850 1.403 . S
C853 C854 1.392 . S
C853 C857 1.495 . S
C854 C853 1.392 . S
C854 C855 1.385 . S
C854 C856 1.478 . S
C855 H849 0.930 . S
C855 C851 1.400 . S
C855 C854 1.385 . S
C856 C854 1.478 . S
C856 C858 1.381 . S
C856 C862 1.383 . S
C857 C853 1.495 . S
C857 H863 0.959 . S
C857 H864 0.961 . S
C857 H865 0.960 . S
C858 C856 1.381 . S
C858 C859 1.394 . S
C858 H866 0.930 . S
C859 C858 1.394 . S
C859 C860 1.383 . S
C859 H867 0.929 . S
C860 C859 1.383 . S
C860 C861 1.377 . S
C861 H845 0.930 . S
C861 C860 1.377 . S
C861 C862 1.379 . S
C862 H846 0.931 . S
C862 C856 1.383 . S
C862 C861 1.379 . S
H863 C857 0.959 . S
H864 C857 0.961 . S
H865 C857 0.960 . S
H866 C858 0.930 . S
H867 C859 0.929 . S
H868 C876 0.929 . S
H869 C878 0.930 . S
H870 C880 0.930 . S
H871 C883 0.929 1_556 S
H872 C886 0.930 1_554 S
H873 C888 0.960 . S
H874 C888 0.960 . S
H875 C888 0.960 . S
C876 H868 0.929 . S
C876 C877 1.377 . S
C876 C878 1.384 . S
C877 C876 1.377 . S
C877 C883 1.389 . S
C878 H869 0.930 . S
C878 C876 1.384 . S
C878 C879 1.372 1_554 S
C879 C878 1.372 1_556 S
C879 C880 1.400 . S
C879 C884 1.490 . S
C880 H870 0.930 . S
C880 C879 1.400 . S
C880 C883 1.386 1_556 S
H881 C897 0.930 . S
H882 C898 0.931 . S
C883 H871 0.929 1_554 S
C883 C877 1.389 . S
C883 C880 1.386 1_554 S
C884 C879 1.490 . S
C884 C886 1.395 . S
C884 C887 1.403 . S
H885 C891 0.930 . S
C886 H872 0.930 1_556 S
C886 C884 1.395 . S
C886 C889 1.403 . S
C887 C884 1.403 . S
C887 C888 1.524 . S
C887 C891 1.400 . S
C888 H873 0.960 . S
C888 H874 0.960 . S
C888 H875 0.960 . S
C888 C887 1.524 . S
C889 C886 1.403 . S
C889 C890 1.392 . S
C889 C893 1.495 . S
C890 C889 1.392 . S
C890 C891 1.385 . S
C890 C892 1.478 . S
C891 H885 0.930 . S
C891 C887 1.400 . S
C891 C890 1.385 . S
C892 C890 1.478 . S
C892 C894 1.381 . S
C892 C898 1.383 . S
C893 C889 1.495 . S
C893 H899 0.959 1_556 S
C893 H900 0.961 . S
C893 H901 0.960 . S
C894 C892 1.381 . S
C894 C895 1.394 . S
C894 H902 0.930 . S
C895 C894 1.394 . S
C895 C896 1.383 . S
C895 H903 0.929 . S
C896 C895 1.383 . S
C896 C897 1.377 . S
C897 H881 0.930 . S
C897 C896 1.377 . S
C897 C898 1.379 . S
C898 H882 0.931 . S
C898 C892 1.383 . S
C898 C897 1.379 . S
H899 C893 0.959 1_554 S
H900 C893 0.961 . S
H901 C893 0.960 . S
H902 C894 0.930 . S
H903 C895 0.929 . S
H904 C912 0.929 . S
H905 C914 0.930 . S
H906 C916 0.930 . S
H907 C919 0.929 . S
H908 C922 0.930 . S
H909 C924 0.960 . S
H910 C924 0.960 . S
H911 C924 0.960 . S
C912 H904 0.929 . S
C912 C913 1.377 . S
C912 C914 1.384 . S
C913 C912 1.377 . S
C913 C919 1.390 . S
C914 H905 0.930 . S
C914 C912 1.384 . S
C914 C915 1.372 . S
C915 C914 1.372 . S
C915 C916 1.400 . S
C915 C920 1.490 . S
C916 H906 0.930 . S
C916 C915 1.400 . S
C916 C919 1.386 . S
H917 C933 0.930 . S
H918 C934 0.931 . S
C919 H907 0.929 . S
C919 C913 1.390 . S
C919 C916 1.386 . S
C920 C915 1.490 . S
C920 C922 1.395 . S
C920 C923 1.403 . S
H921 C927 0.930 . S
C922 H908 0.930 . S
C922 C920 1.395 . S
C922 C925 1.403 . S
C923 C920 1.403 . S
C923 C924 1.524 . S
C923 C927 1.400 . S
C924 H909 0.960 . S
C924 H910 0.960 . S
C924 H911 0.960 . S
C924 C923 1.524 . S
C925 C922 1.403 . S
C925 C926 1.392 . S
C925 C929 1.495 1_655 S
C926 C925 1.392 . S
C926 C927 1.385 . S
C926 C928 1.478 . S
C927 H921 0.930 . S
C927 C923 1.400 . S
C927 C926 1.385 . S
C928 C926 1.478 . S
C928 C930 1.381 . S
C928 C934 1.383 . S
C929 C925 1.495 1_455 S
C929 H935 0.959 . S
C929 H936 0.961 . S
C929 H937 0.960 . S
C930 C928 1.381 . S
C930 C931 1.394 . S
C930 H938 0.930 . S
C931 C930 1.394 . S
C931 C932 1.383 . S
C931 H939 0.929 . S
C932 C931 1.383 . S
C932 C933 1.377 . S
C933 H917 0.930 . S
C933 C932 1.377 . S
C933 C934 1.379 . S
C934 H918 0.931 . S
C934 C928 1.383 . S
C934 C933 1.379 . S
H935 C929 0.959 . S
H936 C929 0.961 . S
H937 C929 0.960 . S
H938 C930 0.930 . S
H939 C931 0.929 . S
H940 C948 0.929 . S
H941 C950 0.930 . S
H942 C952 0.930 . S
H943 C955 0.929 . S
H944 C958 0.930 . S
H945 C960 0.960 . S
H946 C960 0.960 . S
H947 C960 0.960 . S
C948 H940 0.929 . S
C948 C949 1.399 . S
C948 C950 1.384 . S
C949 C948 1.399 . S
C949 C955 1.369 1_565 S
C950 H941 0.930 . S
C950 C948 1.384 . S
C950 C951 1.372 . S
C951 C950 1.372 . S
C951 C952 1.400 1_565 S
C951 C956 1.490 . S
C952 H942 0.930 . S
C952 C951 1.400 1_545 S
C952 C955 1.386 . S
H953 C969 0.930 . S
H954 C970 0.931 . S
C955 H943 0.929 . S
C955 C949 1.369 1_545 S
C955 C952 1.386 . S
C956 C951 1.490 . S
C956 C958 1.395 . S
C956 C959 1.403 1_565 S
H957 C963 0.930 . S
C958 H944 0.930 . S
C958 C956 1.395 . S
C958 C961 1.403 . S
C959 C956 1.403 1_545 S
C959 C960 1.524 . S
C959 C963 1.400 . S
C960 H945 0.960 . S
C960 H946 0.960 . S
C960 H947 0.960 . S
C960 C959 1.524 . S
C961 C958 1.403 . S
C961 C962 1.392 . S
C961 C965 1.495 . S
C962 C961 1.392 . S
C962 C963 1.385 1_565 S
C962 C964 1.478 . S
C963 H957 0.930 . S
C963 C959 1.400 . S
C963 C962 1.385 1_545 S
C964 C962 1.478 . S
C964 C966 1.381 . S
C964 C970 1.383 1_565 S
C965 C961 1.495 . S
C965 H971 0.959 . S
C965 H972 0.961 . S
C965 H973 0.960 . S
C966 C964 1.381 . S
C966 C967 1.394 . S
C966 H974 0.930 . S
C967 C966 1.394 . S
C967 C968 1.383 . S
C967 H975 0.929 . S
C968 C967 1.383 . S
C968 C969 1.377 1_565 S
C969 H953 0.930 . S
C969 C968 1.377 1_545 S
C969 C970 1.379 . S
C970 H954 0.931 . S
C970 C964 1.383 1_545 S
C970 C969 1.379 . S
H971 C965 0.959 . S
H972 C965 0.961 . S
H973 C965 0.960 . S
H974 C966 0.930 . S
H975 C967 0.929 . S
H976 C984 0.929 . S
H977 C986 0.930 . S
H978 C988 0.930 . S
H979 C991 0.929 . S
H980 C994 0.930 . S
H981 C996 0.960 . S
H982 C996 0.960 . S
H983 C996 0.960 . S
C984 H976 0.929 . S
C984 C985 1.377 . S
C984 C986 1.384 . S
C985 C984 1.377 . S
C985 C991 1.390 . S
C986 H977 0.930 . S
C986 C984 1.384 . S
C986 C987 1.372 . S
C987 C986 1.372 . S
C987 C988 1.400 . S
C987 C992 1.490 . S
C988 H978 0.930 . S
C988 C987 1.400 . S
C988 C991 1.386 . S
H989 C1005 0.930 . S
H990 C1006 0.931 . S
C991 H979 0.929 . S
C991 C985 1.390 . S
C991 C988 1.386 . S
C992 C987 1.490 . S
C992 C994 1.395 . S
C992 C995 1.403 . S
H993 C999 0.930 . S
C994 H980 0.930 . S
C994 C992 1.395 . S
C994 C997 1.403 . S
C995 C992 1.403 . S
C995 C996 1.524 . S
C995 C999 1.400 . S
C996 H981 0.960 . S
C996 H982 0.960 . S
C996 H983 0.960 . S
C996 C995 1.524 . S
C997 C994 1.403 . S
C997 C998 1.392 . S
C997 C1001 1.495 . S
C998 C997 1.392 . S
C998 C999 1.385 . S
C998 C1000 1.478 . S
C999 H993 0.930 . S
C999 C995 1.400 . S
C999 C998 1.385 . S
C1000 C998 1.478 . S
C1000 C1002 1.381 . S
C1000 C1006 1.383 . S
C1001 C997 1.495 . S
C1001 H1007 0.959 . S
C1001 H1008 0.961 . S
C1001 H1009 0.960 . S
C1002 C1000 1.381 . S
C1002 C1003 1.394 . S
C1002 H1010 0.930 . S
C1003 C1002 1.394 . S
C1003 C1004 1.383 . S
C1003 H1011 0.929 . S
C1004 C1003 1.383 . S
C1004 C1005 1.377 . S
C1005 H989 0.930 . S
C1005 C1004 1.377 . S
C1005 C1006 1.379 . S
C1006 H990 0.931 . S
C1006 C1000 1.383 . S
C1006 C1005 1.379 . S
H1007 C1001 0.959 . S
H1008 C1001 0.961 . S
H1009 C1001 0.960 . S
H1010 C1002 0.930 . S
H1011 C1003 0.929 . S
H1012 C1020 0.929 . S
H1013 C1022 0.930 . S
H1014 C1024 0.930 . S
H1015 C1027 0.929 . S
H1016 C1030 0.930 . S
H1017 C1032 0.960 . S
H1018 C1032 0.960 . S
H1019 C1032 0.960 . S
C1020 H1012 0.929 . S
C1020 C1021 1.377 . S
C1020 C1022 1.384 . S
C1021 C1020 1.377 . S
C1021 C1027 1.390 . S
C1022 H1013 0.930 . S
C1022 C1020 1.384 . S
C1022 C1023 1.372 . S
C1023 C1022 1.372 . S
C1023 C1024 1.400 . S
C1023 C1028 1.490 . S
C1024 H1014 0.930 . S
C1024 C1023 1.400 . S
C1024 C1027 1.386 . S
H1025 C1041 0.930 . S
H1026 C1042 0.931 . S
C1027 H1015 0.929 . S
C1027 C1021 1.390 . S
C1027 C1024 1.386 . S
C1028 C1023 1.490 . S
C1028 C1030 1.395 . S
C1028 C1031 1.403 . S
H1029 C1035 0.930 . S
C1030 H1016 0.930 . S
C1030 C1028 1.395 . S
C1030 C1033 1.403 . S
C1031 C1028 1.403 . S
C1031 C1032 1.524 . S
C1031 C1035 1.400 . S
C1032 H1017 0.960 . S
C1032 H1018 0.960 . S
C1032 H1019 0.960 . S
C1032 C1031 1.524 . S
C1033 C1030 1.403 . S
C1033 C1034 1.392 . S
C1033 C1037 1.495 . S
C1034 C1033 1.392 . S
C1034 C1035 1.385 . S
C1034 C1036 1.478 . S
C1035 H1029 0.930 . S
C1035 C1031 1.400 . S
C1035 C1034 1.385 . S
C1036 C1034 1.478 . S
C1036 C1038 1.381 . S
C1036 C1042 1.383 . S
C1037 C1033 1.495 . S
C1037 H1043 0.959 . S
C1037 H1044 0.961 . S
C1037 H1045 0.960 . S
C1038 C1036 1.381 . S
C1038 C1039 1.394 . S
C1038 H1046 0.930 . S
C1039 C1038 1.394 . S
C1039 C1040 1.383 . S
C1039 H1047 0.929 . S
C1040 C1039 1.383 . S
C1040 C1041 1.377 . S
C1041 H1025 0.930 . S
C1041 C1040 1.377 . S
C1041 C1042 1.379 . S
C1042 H1026 0.931 . S
C1042 C1036 1.383 . S
C1042 C1041 1.379 . S
H1043 C1037 0.959 . S
H1044 C1037 0.961 . S
H1045 C1037 0.960 . S
H1046 C1038 0.930 . S
H1047 C1039 0.929 . S
C193 C82 1.354 1_565 S
C212 C122 1.458 1_545 S
C248 C142 1.525 . S
C229 C95 1.457 . S
C284 C162 1.412 . S
C265 C56 1.345 . S
C320 C182 1.507 . S
C301 C69 1.457 . S
C356 C123 1.428 . S
C337 C30 1.349 1_565 S
C373 C43 1.406 . S
C392 C143 1.527 . S
C409 C4 1.360 . S
C428 C163 1.453 . S
C445 C17 1.405 . S
C464 C183 1.514 1_655 S
C500 C113 0.661 . S
C481 C74 0.677 . S
C536 C133 0.710 . S
C517 C87 0.678 1_565 S
C572 C153 0.639 . S
C553 C100 0.689 . S
C589 C61 0.679 . S
C608 C173 0.677 . S
C625 C22 0.703 . S
C644 C116 0.692 . S
C680 C136 0.736 . S
C661 C35 0.670 1_565 S
C716 C156 0.713 . S
C697 C48 0.689 . S
C733 C9 0.703 . S
C752 C176 0.700 . S
C769 C73 1.554 . S
C788 C106 1.523 . S
C805 C86 1.490 . S
C824 C126 1.426 . S
C860 C146 1.474 . S
C841 C99 1.535 . S
C896 C166 1.458 . S
C877 C60 1.481 . S
C913 C21 1.550 . S
C932 C108 1.473 . S
C968 C128 1.419 . S
C949 C34 1.482 1_565 S
C1004 C148 1.520 . S
C985 C47 1.533 . S
C1021 C8 1.475 . S
C1040 C168 1.401 . S
