# Generated by pormake.
# Topology zzz, (3,6)-cn, num edge types: 1
# Building blocks:
#     Node 0, Type 0, BuildingBlock: BELTOD_clean_linker_0, # of connection points: 3
#     Node 1, Type 0, BuildingBlock: BELTOD_clean_linker_0, # of connection points: 3
#     Node 2, Type 0, BuildingBlock: BELTOD_clean_linker_0, # of connection points: 3
#     Node 3, Type 0, BuildingBlock: BELTOD_clean_linker_0, # of connection points: 3
#     Node 4, Type 0, BuildingBlock: BELTOD_clean_linker_0, # of connection points: 3
#     Node 5, Type 0, BuildingBlock: BELTOD_clean_linker_0, # of connection points: 3
#     Node 6, Type 0, BuildingBlock: BELTOD_clean_linker_0, # of connection points: 3
#     Node 7, Type 0, BuildingBlock: BELTOD_clean_linker_0, # of connection points: 3
#     Node 8, Type 1, BuildingBlock: KUMBUR_clean_sbu_0, # of connection points: 6
#     Node 9, Type 1, BuildingBlock: KUMBUR_clean_sbu_0, # of connection points: 6
#     Node 10, Type 1, BuildingBlock: KUMBUR_clean_sbu_0, # of connection points: 6
#     Node 11, Type 1, BuildingBlock: KUMBUR_clean_sbu_0, # of connection points: 6
#     Edge 12, Type (0, 1), BuildingBlock: XIVTED_clean_linker_0, # of connection points: 2
#     Edge 13, Type (0, 1), BuildingBlock: XIVTED_clean_linker_0, # of connection points: 2
#     Edge 14, Type (0, 1), BuildingBlock: XIVTED_clean_linker_0, # of connection points: 2
#     Edge 15, Type (0, 1), BuildingBlock: XIVTED_clean_linker_0, # of connection points: 2
#     Edge 16, Type (0, 1), BuildingBlock: XIVTED_clean_linker_0, # of connection points: 2
#     Edge 17, Type (0, 1), BuildingBlock: XIVTED_clean_linker_0, # of connection points: 2
#     Edge 18, Type (0, 1), BuildingBlock: XIVTED_clean_linker_0, # of connection points: 2
#     Edge 19, Type (0, 1), BuildingBlock: XIVTED_clean_linker_0, # of connection points: 2
#     Edge 20, Type (0, 1), BuildingBlock: XIVTED_clean_linker_0, # of connection points: 2
#     Edge 21, Type (0, 1), BuildingBlock: XIVTED_clean_linker_0, # of connection points: 2
#     Edge 22, Type (0, 1), BuildingBlock: XIVTED_clean_linker_0, # of connection points: 2
#     Edge 23, Type (0, 1), BuildingBlock: XIVTED_clean_linker_0, # of connection points: 2
#     Edge 24, Type (0, 1), BuildingBlock: XIVTED_clean_linker_0, # of connection points: 2
#     Edge 25, Type (0, 1), BuildingBlock: XIVTED_clean_linker_0, # of connection points: 2
#     Edge 26, Type (0, 1), BuildingBlock: XIVTED_clean_linker_0, # of connection points: 2
#     Edge 27, Type (0, 1), BuildingBlock: XIVTED_clean_linker_0, # of connection points: 2
#     Edge 28, Type (0, 1), BuildingBlock: XIVTED_clean_linker_0, # of connection points: 2
#     Edge 29, Type (0, 1), BuildingBlock: XIVTED_clean_linker_0, # of connection points: 2
#     Edge 30, Type (0, 1), BuildingBlock: XIVTED_clean_linker_0, # of connection points: 2
#     Edge 31, Type (0, 1), BuildingBlock: XIVTED_clean_linker_0, # of connection points: 2
#     Edge 32, Type (0, 1), BuildingBlock: XIVTED_clean_linker_0, # of connection points: 2
#     Edge 33, Type (0, 1), BuildingBlock: XIVTED_clean_linker_0, # of connection points: 2
#     Edge 34, Type (0, 1), BuildingBlock: XIVTED_clean_linker_0, # of connection points: 2
#     Edge 35, Type (0, 1), BuildingBlock: XIVTED_clean_linker_0, # of connection points: 2
# Relax obj value: 0.287
# Max RMSD: 0.211
# Mean RMSD: 0.202
data_MOF--net-zzz--node1-KUMBUR_clean_sbu_0--node2-BELTOD_clean_linker_0--edge1-XIVTED_clean_linker_0
_symmetry_space_group_name_H-M    P1
_symmetry_Int_Tables_number       1
_symmetry_cell_setting            triclinic
loop_
_symmetry_equiv_pos_as_xyz
'x, y, z'
_cell_length_a     53.77923
_cell_length_b     53.712999
_cell_length_c     18.586156
_cell_angle_alpha  90.609233
_cell_angle_beta   90.115696
_cell_angle_gamma 89.949616
loop_
_atom_site_label
_atom_site_type_symbol
_atom_site_fract_x
_atom_site_fract_y
_atom_site_fract_z
_atom_type_partial_charge
P0 P 0.7342 0.53589 0.22309 0.0
H1 H 0.7397 0.5128 0.36449 0.0
H2 H 0.77443 0.51621 0.44796 0.0
H3 H 0.79564 0.58579 0.35129 0.0
H4 H 0.76106 0.58193 0.26697 0.0
H5 H 0.6969 0.49774 0.19309 0.0
H6 H 0.65922 0.49802 0.12286 0.0
H7 H 0.6602 0.57832 0.12099 0.0
H8 H 0.69795 0.57805 0.1965 0.0
H9 H 0.78201 0.52018 0.16959 0.0
H10 H 0.73103 0.58056 0.12747 0.0
O11 O 0.74048 0.50542 0.22229 0.0
H12 H 0.81129 0.53788 0.08459 0.0
H13 H 0.76037 0.59794 0.04162 0.0
C14 C 0.74792 0.54669 0.30757 0.0
C15 C 0.7511 0.52939 0.36307 0.0
C16 C 0.77131 0.53129 0.41086 0.0
C17 C 0.78872 0.55077 0.40494 0.0
C18 C 0.78334 0.56995 0.35594 0.0
C19 C 0.76311 0.56799 0.30817 0.0
C20 C 0.70137 0.53788 0.19786 0.0
C21 C 0.68902 0.51562 0.1797 0.0
C22 C 0.6672 0.51574 0.13886 0.0
C23 C 0.65694 0.53815 0.11422 0.0
C24 C 0.66803 0.56066 0.13726 0.0
C25 C 0.68973 0.56051 0.18023 0.0
C26 C 0.7537 0.54831 0.15331 0.0
C27 C 0.77672 0.53684 0.14101 0.0
C28 C 0.79355 0.54705 0.09305 0.0
C29 C 0.78777 0.56906 0.05686 0.0
C30 C 0.76492 0.58079 0.06883 0.0
C31 C 0.74803 0.57059 0.11748 0.0
P32 P 0.98512 0.74511 0.21245 0.0
H33 H 0.02302 0.75693 0.32067 0.0
H34 H 0.02455 0.79158 0.40433 0.0
H35 H 0.94466 0.79916 0.39064 0.0
H36 H 0.94354 0.76439 0.30435 0.0
H37 H 0.0243 0.71167 0.16008 0.0
H38 H 0.02274 0.6738 0.08777 0.0
H39 H 0.94477 0.66595 0.13457 0.0
H40 H 0.94604 0.70501 0.20618 0.0
H41 H 0.97152 0.79715 0.21216 0.0
H42 H 0.9537 0.73178 0.08491 0.0
O43 O 0.01246 0.75552 0.18278 0.0
H44 H 0.95035 0.82284 0.12699 0.0
H45 H 0.9325 0.75785 0.99803 0.0
C46 C 0.98329 0.75816 0.30391 0.0
C47 C 0.00561 0.76523 0.33765 0.0
C48 C 0.00644 0.78553 0.38588 0.0
C49 C 0.98481 0.79924 0.40347 0.0
C50 C 0.96193 0.7899 0.37705 0.0
C51 C 0.96117 0.76942 0.32869 0.0
C52 C 0.98518 0.71184 0.18837 0.0
C53 C 0.00681 0.7018 0.15678 0.0
C54 C 0.00595 0.68005 0.1146 0.0
C55 C 0.98357 0.66715 0.10391 0.0
C56 C 0.9623 0.6756 0.14132 0.0
C57 C 0.9631 0.69779 0.18319 0.0
C58 C 0.96346 0.76219 0.15758 0.0
C59 C 0.96177 0.78799 0.16833 0.0
C60 C 0.94952 0.80286 0.11895 0.0
C61 C 0.93943 0.79242 0.05576 0.0
C62 C 0.93988 0.7664 0.04659 0.0
C63 C 0.952 0.75141 0.09682 0.0
P64 P 0.77769 0.98637 0.24275 0.0
H65 H 0.77103 0.01574 0.37523 0.0
H66 H 0.73498 0.01672 0.45418 0.0
H67 H 0.71305 0.94409 0.37551 0.0
H68 H 0.7499 0.94281 0.29869 0.0
H69 H 0.8208 0.01922 0.22797 0.0
H70 H 0.85883 0.01439 0.15889 0.0
H71 H 0.84526 0.93552 0.1388 0.0
H72 H 0.80724 0.94028 0.21138 0.0
H73 H 0.72445 0.98849 0.22654 0.0
H74 H 0.78565 0.95756 0.10467 0.0
O75 O 0.77411 0.01703 0.23271 0.0
H76 H 0.69568 0.97344 0.13594 0.0
H77 H 0.7568 0.94149 0.01572 0.0
C78 C 0.76295 0.97959 0.32877 0.0
C79 C 0.75926 0.99942 0.37735 0.0
C80 C 0.73818 1.00018 0.42167 0.0
C81 C 0.72024 0.98105 0.41875 0.0
C82 C 0.72609 0.95941 0.37862 0.0
C83 C 0.74746 0.95856 0.33486 0.0
C84 C 0.81045 0.98023 0.22322 0.0
C85 C 0.82624 1.00064 0.21129 0.0
C86 C 0.84813 0.99791 0.1712 0.0
C87 C 0.85476 0.9747 0.14135 0.0
C88 C 0.8404 0.95376 0.1598 0.0
C89 C 0.8188 0.95643 0.20216 0.0
C90 C 0.7573 0.9733 0.17501 0.0
C91 C 0.73172 0.97764 0.18183 0.0
C92 C 0.71517 0.96875 0.13013 0.0
C93 C 0.72388 0.95566 0.06936 0.0
C94 C 0.7495 0.95118 0.06253 0.0
C95 C 0.76611 0.96023 0.11437 0.0
P96 P 0.53339 0.78746 0.2537 0.0
H97 H 0.51172 0.78094 0.39641 0.0
H98 H 0.51661 0.74594 0.47669 0.0
H99 H 0.58617 0.72716 0.37362 0.0
H100 H 0.58072 0.76188 0.29191 0.0
H101 H 0.49799 0.82441 0.2063 0.0
H102 H 0.50201 0.86116 0.13616 0.0
H103 H 0.58177 0.85961 0.16581 0.0
H104 H 0.57745 0.82144 0.23688 0.0
H105 H 0.50989 0.7462 0.17736 0.0
H106 H 0.58039 0.78462 0.17099 0.0
O107 O 0.50267 0.78321 0.25894 0.0
H108 H 0.5244 0.71748 0.08448 0.0
H109 H 0.59504 0.75528 0.07824 0.0
C110 C 0.54529 0.77367 0.33575 0.0
C111 C 0.52858 0.76996 0.39265 0.0
C112 C 0.53137 0.74967 0.43882 0.0
C113 C 0.55125 0.73284 0.42995 0.0
C114 C 0.57 0.73899 0.38021 0.0
C115 C 0.56708 0.75923 0.33375 0.0
C116 C 0.53739 0.8197 0.22722 0.0
C117 C 0.51644 0.8321 0.2003 0.0
C118 C 0.51879 0.85357 0.15956 0.0
C119 C 0.54227 0.86371 0.14429 0.0
C120 C 0.56335 0.85223 0.17519 0.0
C121 C 0.56091 0.83045 0.2165 0.0
C122 C 0.54376 0.76805 0.18011 0.0
C123 C 0.52827 0.74889 0.15515 0.0
C124 C 0.53655 0.73244 0.10216 0.0
C125 C 0.5606 0.73462 0.07401 0.0
C126 C 0.57628 0.75365 0.09876 0.0
C127 C 0.56781 0.77043 0.15136 0.0
P128 P 0.29137 0.42588 0.02 0.0
H129 H 0.2738 0.4158 0.87286 0.0
H130 H 0.23655 0.42906 0.80913 0.0
H131 H 0.22303 0.4848 0.9734 0.0
H132 H 0.26046 0.47128 0.03739 0.0
H133 H 0.33842 0.40481 0.0643 0.0
H134 H 0.36995 0.41871 0.14707 0.0
H135 H 0.33803 0.49281 0.14543 0.0
H136 H 0.30491 0.47757 0.06676 0.0
H137 H 0.24006 0.40849 0.02911 0.0
H138 H 0.29995 0.42405 0.17824 0.0
O139 O 0.29979 0.39943 0.9789 0.0
H140 H 0.21032 0.41265 0.12652 0.0
H141 H 0.2704 0.42717 0.27585 0.0
C142 C 0.27052 0.44275 0.95979 0.0
C143 C 0.26346 0.4315 0.89421 0.0
C144 C 0.24173 0.43885 0.85814 0.0
C145 C 0.22634 0.45778 0.88638 0.0
C146 C 0.23436 0.47026 0.94949 0.0
C147 C 0.2561 0.46275 0.98588 0.0
C148 C 0.31935 0.44016 0.05751 0.0
C149 C 0.33857 0.4243 0.07984 0.0
C150 C 0.35688 0.43247 0.12827 0.0
C151 C 0.35709 0.45714 0.15525 0.0
C152 C 0.33857 0.47349 0.12873 0.0
C153 C 0.31972 0.46499 0.08166 0.0
C154 C 0.27205 0.41767 0.09516 0.0
C155 C 0.24697 0.41193 0.08308 0.0
C156 C 0.22994 0.41396 0.13926 0.0
C157 C 0.23801 0.42125 0.20833 0.0
C158 C 0.26363 0.42241 0.2225 0.0
C159 C 0.28058 0.42078 0.16612 0.0
P160 P 0.07916 0.28863 0.02265 0.0
H161 H 0.09384 0.26574 0.88573 0.0
H162 H 0.08215 0.22714 0.82778 0.0
H163 H 0.01822 0.22223 0.96804 0.0
H164 H 0.03164 0.26012 0.0298 0.0
H165 H 0.08841 0.34256 0.02664 0.0
H166 H 0.07518 0.37539 0.1095 0.0
H167 H 0.02186 0.32535 0.20309 0.0
H168 H 0.03529 0.29232 0.11967 0.0
H169 H 0.09772 0.23713 0.0263 0.0
H170 H 0.08897 0.29787 0.17811 0.0
O171 O 0.10371 0.30009 0.97937 0.0
H172 H 0.09642 0.20772 0.12338 0.0
H173 H 0.08833 0.26834 0.27648 0.0
C174 C 0.06347 0.26654 0.96188 0.0
C175 C 0.0768 0.25689 0.90279 0.0
C176 C 0.07001 0.2343 0.86936 0.0
C177 C 0.04921 0.22055 0.89271 0.0
C178 C 0.03481 0.23132 0.94884 0.0
C179 C 0.04205 0.2537 0.98349 0.0
C180 C 0.06263 0.31478 0.06517 0.0
C181 C 0.07322 0.33872 0.06295 0.0
C182 C 0.06572 0.35762 0.11115 0.0
C183 C 0.04758 0.35312 0.16396 0.0
C184 C 0.03609 0.3295 0.1639 0.0
C185 C 0.0434 0.31065 0.11489 0.0
C186 C 0.09091 0.26949 0.09427 0.0
C187 C 0.09607 0.2443 0.08065 0.0
C188 C 0.09578 0.22737 0.13684 0.0
C189 C 0.0909 0.23563 0.20744 0.0
C190 C 0.09094 0.26137 0.22211 0.0
C191 C 0.09106 0.27827 0.16563 0.0
P192 P 0.23551 0.08653 1.00546 0.0
H193 H 0.25799 0.10209 0.87011 0.0
H194 H 0.29529 0.08845 0.80919 0.0
H195 H 0.296 0.02166 0.93718 0.0
H196 H 0.25956 0.03664 1.00183 0.0
H197 H 0.18449 0.10461 0.02283 0.0
H198 H 0.15101 0.09218 0.10183 0.0
H199 H 0.19088 0.02461 0.15133 0.0
H200 H 0.22501 0.03792 0.07457 0.0
H201 H 0.2892 0.09588 0.0176 0.0
H202 H 0.22625 0.09349 0.16126 0.0
O203 O 0.22747 0.11387 0.97044 0.0
H204 H 0.3172 0.0934 0.11888 0.0
H205 H 0.25436 0.09246 0.26384 0.0
C206 C 0.25532 0.07032 0.94039 0.0
C207 C 0.26555 0.08406 0.88369 0.0
C208 C 0.2873 0.07616 0.8486 0.0
C209 C 0.29947 0.05398 0.8683 0.0
C210 C 0.28794 0.03922 0.92126 0.0
C211 C 0.2664 0.04743 0.95733 0.0
C212 C 0.2074 0.07209 0.04094 0.0
C213 C 0.18582 0.08669 0.04859 0.0
C214 C 0.16648 0.07952 0.0945 0.0
C215 C 0.16806 0.05744 0.13448 0.0
C216 C 0.18902 0.04201 0.12303 0.0
C217 C 0.20848 0.04934 0.07739 0.0
C218 C 0.25557 0.09301 0.08124 0.0
C219 C 0.28129 0.09519 0.07099 0.0
C220 C 0.29744 0.09424 0.12958 0.0
C221 C 0.28809 0.09183 0.19977 0.0
C222 C 0.26221 0.09326 0.21031 0.0
C223 C 0.24606 0.09383 0.15144 0.0
P224 P 0.42113 0.23122 1.00173 0.0
H225 H 0.41207 0.24814 0.85394 0.0
H226 H 0.42797 0.28397 0.78889 0.0
H227 H 0.4844 0.29453 0.95189 0.0
H228 H 0.46801 0.25903 0.0176 0.0
H229 H 0.39873 0.18321 0.03209 0.0
H230 H 0.41202 0.14921 0.10802 0.0
H231 H 0.48567 0.18112 0.12018 0.0
H232 H 0.47184 0.21568 0.04541 0.0
H233 H 0.40751 0.28343 0.01971 0.0
H234 H 0.4233 0.22143 0.15881 0.0
O235 O 0.39336 0.22552 0.96488 0.0
H236 H 0.41171 0.31191 0.12163 0.0
H237 H 0.42694 0.24975 0.26084 0.0
C238 C 0.43894 0.25052 0.94065 0.0
C239 C 0.42845 0.25752 0.87454 0.0
C240 C 0.43754 0.27821 0.83725 0.0
C241 C 0.45727 0.2925 0.86551 0.0
C242 C 0.46893 0.28426 0.92898 0.0
C243 C 0.45986 0.26354 0.96606 0.0
C244 C 0.43433 0.20198 0.03166 0.0
C245 C 0.41804 0.18247 0.04853 0.0
C246 C 0.42569 0.16293 0.09266 0.0
C247 C 0.4499 0.16238 0.12148 0.0
C248 C 0.46673 0.18108 0.10034 0.0
C249 C 0.45898 0.20073 0.05626 0.0
C250 C 0.41626 0.25043 0.08059 0.0
C251 C 0.41123 0.27584 0.07241 0.0
C252 C 0.41339 0.29212 0.13107 0.0
C253 C 0.42023 0.28311 0.19909 0.0
C254 C 0.42228 0.25728 0.20868 0.0
C255 C 0.42027 0.24105 0.14989 0.0
Tb256 Tb 0.03994 1.00373 0.70464 0.0
C257 C 0.94106 0.98886 0.53433 0.0
C258 C 0.95305 0.96356 0.43167 0.0
C259 C 0.90973 0.96528 0.4681 0.0
C260 C 0.95927 0.98008 0.4885 0.0
C261 C 0.91599 0.9819 0.52407 0.0
C262 C 0.92824 0.95607 0.42212 0.0
C263 C 0.90487 0.0098 0.62148 0.0
N264 N 0.94775 0.00507 0.58721 0.0
C265 C 0.92991 0.01626 0.62912 0.0
C266 C 0.89788 0.99239 0.56902 0.0
Tb267 Tb 0.98852 0.01744 0.58885 0.0
N268 N 0.98296 0.98811 0.49868 0.0
C269 C 1.00122 0.98065 0.45166 0.0
C270 C 0.97184 0.95537 0.38531 0.0
C271 C 0.99601 0.964 0.39536 0.0
H272 H 0.93513 0.03001 0.6693 0.0
H273 H 0.0107 0.9579 0.35955 0.0
H274 H 0.92313 0.94346 0.37866 0.0
H275 H 0.89096 0.0184 0.65565 0.0
H276 H 0.02019 0.98663 0.4577 0.0
H277 H 0.01039 0.05791 0.93896 0.0
H278 H 0.96784 0.94263 0.34121 0.0
H279 H 0.09713 0.99569 0.64063 0.0
H280 H 0.00566 0.02731 0.84383 0.0
H281 H 0.13782 0.01655 0.64744 0.0
H282 H 0.89059 0.95972 0.45931 0.0
H283 H 0.04857 0.0832 0.94798 0.0
H284 H 0.09123 0.09245 0.90255 0.0
H285 H 0.87843 0.98758 0.56268 0.0
H286 H 0.12577 0.08176 0.82146 0.0
N287 N 0.04143 0.03346 0.79614 0.0
C288 C 0.02298 0.03708 0.84624 0.0
C289 C 0.04683 0.06928 0.90562 0.0
C290 C 0.06602 0.0651 0.85656 0.0
C291 C 0.02536 0.05496 0.90096 0.0
C292 C 0.06282 0.04673 0.80227 0.0
H293 H 0.14336 0.05348 0.72634 0.0
N294 N 0.07876 0.02206 0.70874 0.0
C295 C 0.12223 0.02393 0.67764 0.0
C296 C 0.08206 0.04099 0.75642 0.0
C297 C 0.09902 0.01234 0.67337 0.0
C298 C 0.12526 0.04474 0.72211 0.0
C299 C 0.10528 0.05307 0.76388 0.0
O300 O 0.06675 0.97624 0.72253 0.0
O301 O 0.01144 0.98852 0.63406 0.0
O302 O 0.97204 0.99551 0.67592 0.0
O303 O 1.00419 0.99642 0.76045 0.0
O304 O 0.04593 0.97333 0.62667 0.0
O305 O 0.03841 0.98357 0.80127 0.0
O306 O 0.96649 0.04968 0.57726 0.0
O307 O 0.01745 0.03285 0.65855 0.0
O308 O 0.0565 0.01986 0.60723 0.0
O309 O 0.02314 0.02236 0.527 0.0
O310 O 0.98203 0.04586 0.67219 0.0
O311 O 0.99022 0.03583 0.48936 0.0
C312 C 0.02353 0.97126 0.6032 0.0
C313 C 0.05324 0.94203 0.78699 0.0
C314 C 0.02686 0.90558 0.7992 0.0
C315 C 0.0297 0.93153 0.79833 0.0
C316 C 0.04774 0.89021 0.78826 0.0
C317 C 0.07392 0.92642 0.77685 0.0
C318 C 0.07113 0.90064 0.77725 0.0
C319 C 0.98052 0.99256 0.74242 0.0
C320 C 0.05673 0.96906 0.78205 0.0
C321 C 0.10817 0.07216 0.81533 0.0
C322 C 0.08855 0.07818 0.8616 0.0
C323 C 0.00465 0.04885 0.69259 0.0
C324 C 0.96576 0.07281 0.46656 0.0
C325 C 0.98319 0.08968 0.44036 0.0
C326 C 0.97537 0.11089 0.40314 0.0
C327 C 0.94982 0.11453 0.39044 0.0
C328 C 0.94034 0.07672 0.45454 0.0
C329 C 0.93244 0.09741 0.41579 0.0
C330 C 0.04722 0.02369 0.54206 0.0
C331 C 0.97417 0.05241 0.51161 0.0
H332 H 0.01358 0.94341 0.80594 0.0
H333 H 0.04608 0.87013 0.79 0.0
H334 H 0.09222 0.93422 0.76785 0.0
H335 H 0.08715 0.88871 0.76938 0.0
H336 H 1.00274 0.08691 0.45238 0.0
H337 H 0.94331 0.13062 0.36123 0.0
H338 H 0.92668 0.06387 0.47544 0.0
H339 H 0.91281 0.1004 0.40629 0.0
Tb340 Tb 0.51388 0.03982 0.68907 0.0
C341 C 0.54154 0.94811 0.52274 0.0
C342 C 0.56353 0.96585 0.4221 0.0
C343 C 0.57412 0.92435 0.46218 0.0
C344 C 0.54528 0.96765 0.4766 0.0
C345 C 0.55551 0.92594 0.51484 0.0
C346 C 0.57815 0.9443 0.41598 0.0
C347 C 0.52977 0.90731 0.60534 0.0
N348 N 0.52321 0.9502 0.57239 0.0
C349 C 0.51629 0.92947 0.61045 0.0
C350 C 0.54974 0.90564 0.55806 0.0
Tb351 Tb 0.50088 0.98715 0.57348 0.0
N352 N 0.53074 0.9882 0.48399 0.0
C353 C 0.53298 0.00715 0.43538 0.0
C354 C 0.5663 0.98556 0.37447 0.0
C355 C 0.5508 0.0062 0.38082 0.0
H356 H 0.50025 0.92998 0.64553 0.0
H357 H 0.55261 0.02151 0.34382 0.0
H358 H 0.59228 0.94267 0.37471 0.0
H359 H 0.52446 0.89139 0.63706 0.0
H360 H 0.52175 0.02359 0.43824 0.0
H361 H 0.46556 0.00486 0.92452 0.0
H362 H 0.5801 0.98489 0.33209 0.0
H363 H 0.51519 0.09772 0.62558 0.0
H364 H 0.49568 1.0035 0.82822 0.0
H365 H 0.49068 0.13619 0.63574 0.0
H366 H 0.58507 0.90754 0.45562 0.0
H367 H 0.43711 0.04069 0.93738 0.0
H368 H 0.42351 0.08254 0.89508 0.0
H369 H 0.55997 0.88831 0.55339 0.0
H370 H 0.42979 0.11805 0.81486 0.0
N371 N 0.48514 0.03827 0.78172 0.0
C372 C 0.48385 0.01944 0.83091 0.0
C373 C 0.45052 0.04027 0.89394 0.0
C374 C 0.45235 0.05994 0.8458 0.0
C375 C 0.46655 0.02008 0.88692 0.0
C376 C 0.47017 0.05849 0.79004 0.0
H377 H 0.45472 0.13823 0.71813 0.0
N378 N 0.4917 0.07669 0.69464 0.0
C379 C 0.48526 0.11991 0.66574 0.0
C380 C 0.47339 0.07824 0.74442 0.0
C381 C 0.49888 0.09786 0.65939 0.0
C382 C 0.46503 0.12099 0.71227 0.0
C383 C 0.45931 0.10027 0.75394 0.0
O384 O 0.53983 0.06866 0.70006 0.0
O385 O 0.52969 0.01047 0.62113 0.0
O386 O 0.51252 0.97195 0.67678 0.0
O387 O 0.5273 0.00589 0.74363 0.0
O388 O 0.54349 0.04586 0.61101 0.0
O389 O 0.53327 0.04341 0.78714 0.0
O390 O 0.47685 0.9571 0.55398 0.0
O391 O 0.48536 0.01623 0.64202 0.0
O392 O 0.49873 0.05544 0.5896 0.0
O393 O 0.48884 0.02107 0.51687 0.0
O394 O 0.46985 0.98152 0.64771 0.0
O395 O 0.48118 0.98595 0.4755 0.0
C396 C 0.54625 0.02316 0.59002 0.0
C397 C 0.57379 0.06013 0.7733 0.0
C398 C 0.61176 0.03612 0.78777 0.0
C399 C 0.58584 0.03712 0.78017 0.0
C400 C 0.62559 0.05833 0.78689 0.0
C401 C 0.58779 0.08214 0.77295 0.0
C402 C 0.61361 0.0812 0.77944 0.0
C403 C 0.52337 0.98169 0.73415 0.0
C404 C 0.5468 0.06174 0.76354 0.0
C405 C 0.44087 0.10138 0.80715 0.0
C406 C 0.43737 0.08122 0.85298 0.0
C407 C 0.46822 1.00396 0.67184 0.0
C408 C 0.44275 0.96402 0.47826 0.0
C409 C 0.42798 0.98531 0.46837 0.0
C410 C 0.40254 0.98282 0.45202 0.0
C411 C 0.39209 0.95885 0.44674 0.0
C412 C 0.43193 0.94033 0.47293 0.0
C413 C 0.40671 0.93779 0.45749 0.0
C414 C 0.49045 0.04543 0.52877 0.0
C415 C 0.46956 0.96556 0.49237 0.0
H416 H 0.57515 0.02006 0.77977 0.0
H417 H 0.64558 0.05807 0.79412 0.0
H418 H 0.57874 0.10005 0.76725 0.0
H419 H 0.62433 0.09824 0.77945 0.0
H420 H 0.43619 1.00366 0.47323 0.0
H421 H 0.3727 0.95631 0.43262 0.0
H422 H 0.4431 0.92373 0.48023 0.0
H423 H 0.39854 0.91943 0.45286 0.0
Tb424 Tb 0.53076 0.50031 0.58072 0.0
C425 C 0.42194 0.50926 0.64636 0.0
C426 C 0.40824 0.5383 0.55591 0.0
C427 C 0.37881 0.50901 0.60582 0.0
C428 C 0.42723 0.52828 0.5997 0.0
C429 C 0.39748 0.49976 0.65107 0.0
C430 C 0.38418 0.52827 0.55835 0.0
C431 C 0.41056 0.47535 0.7522 0.0
N432 N 0.44018 0.50152 0.69132 0.0
C433 C 0.43424 0.48574 0.74661 0.0
C434 C 0.39214 0.48215 0.70359 0.0
Tb435 Tb 0.47813 0.5216 0.68302 0.0
N436 N 0.45056 0.53794 0.6001 0.0
C437 C 0.45565 0.55828 0.5585 0.0
C438 C 0.41367 0.55871 0.51288 0.0
C439 C 0.43743 0.56885 0.51467 0.0
H440 H 0.44783 0.48122 0.78739 0.0
H441 H 0.44184 0.58478 0.4819 0.0
H442 H 0.36942 0.53575 0.52516 0.0
H443 H 0.4064 0.46256 0.79514 0.0
H444 H 0.4737 0.56662 0.55686 0.0
H445 H 0.5708 0.44272 0.79023 0.0
H446 H 0.39956 0.56701 0.47899 0.0
H447 H 0.55973 0.53725 0.46391 0.0
H448 H 0.53864 0.45593 0.70724 0.0
H449 H 0.60011 0.55824 0.45284 0.0
H450 H 0.35998 0.50196 0.60877 0.0
H451 H 0.61109 0.46466 0.79512 0.0
H452 H 0.63909 0.49736 0.74546 0.0
H453 H 0.3736 0.47451 0.709 0.0
H454 H 0.64688 0.52937 0.65474 0.0
N455 N 0.55952 0.48611 0.66331 0.0
C456 C 0.5558 0.46603 0.70703 0.0
C457 C 0.59686 0.47074 0.75784 0.0
C458 C 0.60117 0.49041 0.71101 0.0
C459 C 0.5742 0.45828 0.75508 0.0
C460 C 0.582 0.49764 0.66347 0.0
H461 H 0.63256 0.55209 0.54531 0.0
N462 N 0.56792 0.52117 0.56591 0.0
C463 C 0.59639 0.54672 0.49901 0.0
C464 C 0.58626 0.51591 0.61346 0.0
C465 C 0.57342 0.53489 0.50593 0.0
C466 C 0.61461 0.54322 0.55126 0.0
C467 C 0.60997 0.52708 0.6082 0.0
O468 O 0.541 0.49545 0.47292 0.0
O469 O 0.4905 0.5039 0.58431 0.0
O470 O 0.47862 0.48102 0.69243 0.0
O471 O 0.51065 0.46684 0.6177 0.0
O472 O 0.50771 0.51278 0.49046 0.0
O473 O 0.54371 0.465 0.5473 0.0
O474 O 0.46399 0.52592 0.78737 0.0
O475 O 0.51831 0.51737 0.68103 0.0
O476 O 0.53263 0.54098 0.57818 0.0
O477 O 0.49946 0.55478 0.64913 0.0
O478 O 0.49992 0.50809 0.7735 0.0
O479 O 0.47008 0.55782 0.72064 0.0
C480 C 0.48636 0.51067 0.52058 0.0
C481 C 0.54065 0.45545 0.4218 0.0
C482 C 0.51964 0.41928 0.37174 0.0
C483 C 0.52346 0.436 0.42915 0.0
C484 C 0.53249 0.42243 0.30679 0.0
C485 C 0.5532 0.45852 0.35633 0.0
C486 C 0.54904 0.44213 0.29901 0.0
C487 C 0.49216 0.463 0.66353 0.0
C488 C 0.54711 0.47232 0.48134 0.0
C489 C 0.62867 0.52082 0.65754 0.0
C490 C 0.62426 0.50254 0.70898 0.0
C491 C 0.52156 0.51021 0.74511 0.0
C492 C 0.4741 0.56291 0.84719 0.0
C493 C 0.49642 0.57642 0.84391 0.0
C494 C 0.50554 0.58868 0.90564 0.0
C495 C 0.49234 0.58688 0.97072 0.0
C496 C 0.46118 0.5614 0.91244 0.0
C497 C 0.47034 0.57327 0.97396 0.0
C498 C 0.51889 0.5589 0.60683 0.0
C499 C 0.46374 0.54999 0.78413 0.0
H500 H 0.51365 0.4335 0.47934 0.0
H501 H 0.52966 0.40962 0.26209 0.0
H502 H 0.5665 0.47349 0.3499 0.0
H503 H 0.55888 0.44453 0.24881 0.0
H504 H 0.50656 0.57758 0.79373 0.0
H505 H 0.4986 0.59668 0.01866 0.0
H506 H 0.44394 0.55105 0.9157 0.0
H507 H 0.46016 0.57222 0.02403 0.0
Tb508 Tb 0.01996 0.53249 0.59643 0.0
C509 C 0.0086 0.42262 0.67049 0.0
C510 C 0.98305 0.40645 0.5733 0.0
C511 C 0.00962 0.37842 0.64041 0.0
C512 C 0.99129 0.42657 0.61671 0.0
C513 C 0.01762 0.3984 0.68383 0.0
C514 C 0.99245 0.38245 0.58508 0.0
C515 C 0.04022 0.41497 0.78586 0.0
N516 N 0.01585 0.44231 0.71165 0.0
C517 C 0.03067 0.43855 0.77092 0.0
C518 C 0.03385 0.39483 0.74172 0.0
Tb519 Tb 0.99649 0.47956 0.68838 0.0
N520 N 0.98231 0.44998 0.60745 0.0
C521 C 0.96433 0.45416 0.55645 0.0
C522 C 0.96535 0.41094 0.51987 0.0
C523 C 0.95594 0.43489 0.51156 0.0
H524 H 0.03541 0.45402 0.80612 0.0
H525 H 0.94214 0.43856 0.47055 0.0
H526 H 0.98628 0.36681 0.55237 0.0
H527 H 0.05231 0.41234 0.83179 0.0
H528 H 0.95671 0.47237 0.54754 0.0
H529 H 0.06488 0.58309 0.81641 0.0
H530 H 0.95866 0.39602 0.48527 0.0
H531 H 0.99036 0.55303 0.45378 0.0
H532 H 0.05372 0.54644 0.74671 0.0
H533 H 0.97467 0.59287 0.40712 0.0
H534 H 0.01635 0.35971 0.64982 0.0
H535 H 0.04885 0.62445 0.7827 0.0
H536 H 0.02421 0.65037 0.69687 0.0
H537 H 0.04109 0.3765 0.75378 0.0
H538 H 0.99933 0.65308 0.58595 0.0
N539 N 0.03088 0.56575 0.67053 0.0
C540 C 0.04658 0.56397 0.72866 0.0
C541 C 0.0438 0.60821 0.75085 0.0
C542 C 0.02859 0.61028 0.69025 0.0
C543 C 0.05294 0.58495 0.76981 0.0
C544 C 0.02249 0.58851 0.65076 0.0
H545 H 0.98073 0.63175 0.47754 0.0
N546 N 1.00393 0.56878 0.55186 0.0
C547 C 0.98399 0.59236 0.45876 0.0
C548 C 0.00841 0.59004 0.58928 0.0
C549 C 0.99286 0.5698 0.48558 0.0
C550 C 0.9874 0.61424 0.49866 0.0
C551 C 1.00015 0.61334 0.56422 0.0
O552 O 0.03297 0.53269 0.49051 0.0
O553 O 0.01474 0.49227 0.59323 0.0
O554 O 0.03718 0.4746 0.67909 0.0
O555 O 0.04931 0.51551 0.66315 0.0
O556 O 0.0049 0.51166 0.50413 0.0
O557 O 0.05839 0.53896 0.58001 0.0
O558 O 0.98948 0.46802 0.79319 0.0
O559 O 1.00108 0.51961 0.69174 0.0
O560 O 0.97955 0.53854 0.59538 0.0
O561 O 0.96499 0.50035 0.63885 0.0
O562 O 0.00925 0.50072 0.783 0.0
O563 O 0.9595 0.47106 0.71612 0.0
C564 C 0.00734 0.48956 0.52898 0.0
C565 C 0.07329 0.54623 0.46006 0.0
C566 C 0.10888 0.53708 0.38457 0.0
C567 C 0.09369 0.53139 0.44292 0.0
C568 C 0.10433 0.55888 0.34555 0.0
C569 C 0.06831 0.56772 0.42037 0.0
C570 C 0.08413 0.5742 0.36377 0.0
C571 C 0.05435 0.49229 0.68132 0.0
C572 C 0.05581 0.53574 0.51088 0.0
C573 C 0.00557 0.63502 0.60413 0.0
C574 C 0.01976 0.63348 0.66716 0.0
C575 C 0.00711 0.52268 0.75705 0.0
C576 C 0.95082 0.47745 0.84038 0.0
C577 C 0.93966 0.50095 0.83378 0.0
C578 C 0.92709 0.51155 0.89268 0.0
C579 C 0.926 0.49854 0.95798 0.0
C580 C 0.94941 0.46466 0.90562 0.0
C581 C 0.93709 0.47522 0.96422 0.0
C582 C 0.96136 0.52239 0.60796 0.0
C583 C 0.96568 0.46639 0.78269 0.0
H584 H 0.09708 0.51457 0.47335 0.0
H585 H 0.11585 0.56361 0.29995 0.0
H586 H 0.05205 0.57898 0.43194 0.0
H587 H 0.08032 0.59069 0.33264 0.0
H588 H 0.94084 0.51096 0.78357 0.0
H589 H 0.9159 0.50609 1.00365 0.0
H590 H 0.95816 0.4466 0.91143 0.0
H591 H 0.93601 0.46526 0.01443 0.0
H592 H 0.11729 0.06777 0.13653 0.0
H593 H 0.09666 0.01129 0.52975 0.0
H594 H 0.1751 0.03426 0.26488 0.0
H595 H 0.03784 0.04747 0.41311 0.0
H596 H 0.12503 0.01947 0.43184 0.0
H597 H 0.08771 0.06039 0.23416 0.0
C598 C 0.1239 0.05885 0.18489 0.0
C599 C 0.14903 0.05162 0.1915 0.0
C600 C 0.10598 0.02586 0.42749 0.0
C601 C 0.1148 0.04285 0.30401 0.0
C602 C 0.08971 0.02144 0.48448 0.0
C603 C 0.06479 0.02917 0.48159 0.0
C604 C 0.09748 0.03807 0.3657 0.0
C605 C 0.05689 0.04124 0.41849 0.0
C606 C 0.10685 0.05455 0.24067 0.0
C607 C 0.15603 0.03981 0.25575 0.0
N608 N 0.07315 0.04536 0.3633 0.0
N609 N 0.13913 0.03588 0.30898 0.0
H610 H 0.43529 0.11307 0.13323 0.0
H611 H 0.50604 0.09331 0.50825 0.0
H612 H 0.4795 0.16928 0.24097 0.0
H613 H 0.46058 0.03631 0.40996 0.0
H614 H 0.4961 0.12102 0.41019 0.0
H615 H 0.44414 0.08449 0.23195 0.0
C616 C 0.44691 0.11947 0.17732 0.0
C617 C 0.45669 0.1438 0.17805 0.0
C618 C 0.48803 0.10256 0.41009 0.0
C619 C 0.46703 0.11088 0.29152 0.0
C620 C 0.49343 0.08674 0.46712 0.0
C621 C 0.48357 0.06257 0.46922 0.0
C622 C 0.47273 0.09425 0.35348 0.0
C623 C 0.46838 0.05486 0.41139 0.0
C624 C 0.45201 0.10304 0.23366 0.0
C625 C 0.47186 0.1507 0.23669 0.0
N626 N 0.46339 0.07064 0.35602 0.0
N627 N 0.47647 0.13442 0.29073 0.0
H628 H 0.40326 0.4362 0.19086 0.0
H629 H 0.46508 0.53775 0.4143 0.0
H630 H 0.35443 0.49674 0.25403 0.0
H631 H 0.45922 0.46717 0.52063 0.0
H632 H 0.43152 0.52504 0.33173 0.0
H633 H 0.43142 0.44816 0.28788 0.0
C634 C 0.398 0.4518 0.22467 0.0
C635 C 0.3757 0.46516 0.2127 0.0
C636 C 0.43741 0.51249 0.37372 0.0
C637 C 0.40925 0.47958 0.32304 0.0
C638 C 0.45635 0.51978 0.42118 0.0
C639 C 0.46421 0.50394 0.47632 0.0
C640 C 0.42737 0.4885 0.37815 0.0
C641 C 0.45309 0.4803 0.48048 0.0
C642 C 0.41442 0.45865 0.28016 0.0
C643 C 0.37127 0.48589 0.2585 0.0
N644 N 0.43556 0.47308 0.43113 0.0
N645 N 0.38798 0.49261 0.31057 0.0
H646 H 0.04044 0.34729 0.31022 0.0
H647 H 0.99365 0.48517 0.38901 0.0
H648 H 0.04127 0.40378 0.14712 0.0
H649 H 0.03507 0.44607 0.5512 0.0
H650 H 1.0041 0.45239 0.3018 0.0
H651 H 0.0314 0.3797 0.40127 0.0
C652 C 0.03856 0.36642 0.29328 0.0
C653 C 0.04151 0.37263 0.22028 0.0
C654 C 0.01066 0.45079 0.35669 0.0
C655 C 0.03107 0.40989 0.32484 0.0
C656 C 0.00463 0.46947 0.40679 0.0
C657 C 0.01284 0.46819 0.47855 0.0
C658 C 0.0247 0.43012 0.3781 0.0
C659 C 0.02752 0.44751 0.49745 0.0
C660 C 0.03364 0.38493 0.34554 0.0
C661 C 0.03923 0.39794 0.20235 0.0
N662 N 0.03266 0.42913 0.44794 0.0
N663 N 0.03391 0.41548 0.25385 0.0
H664 H 0.90219 0.99381 0.14903 0.0
H665 H 0.93129 0.97781 0.73053 0.0
H666 H 0.85318 0.95325 1.00652 0.0
H667 H 0.98888 0.9903 0.88872 0.0
H668 H 0.90155 0.97106 0.82825 0.0
H669 H 0.93333 0.99527 0.05278 0.0
C670 C 0.89808 0.98497 0.09772 0.0
C671 C 0.87506 0.9732 0.08623 0.0
C672 C 0.92073 0.97525 0.84145 0.0
C673 C 0.91053 0.97532 0.97475 0.0
C674 C 0.93775 0.97929 0.78553 0.0
C675 C 0.96266 0.98547 0.80072 0.0
C676 C 0.9285 0.97755 0.91353 0.0
C677 C 0.96987 0.98627 0.87365 0.0
C678 C 0.91588 0.9858 0.04272 0.0
C679 C 0.87077 0.9622 0.01824 0.0
N680 N 0.95289 0.98273 0.92698 0.0
N681 N 0.88815 0.96378 0.96497 0.0
H682 H 0.57932 0.87343 0.04416 0.0
H683 H 0.49335 0.94605 0.7876 0.0
H684 H 0.50937 0.90238 0.12284 0.0
H685 H 0.56589 0.97851 0.81706 0.0
H686 H 0.50085 0.91949 0.892 0.0
H687 H 0.57757 0.90365 0.94559 0.0
C688 C 0.56382 0.88626 0.04184 0.0
C689 C 0.54415 0.88471 0.09167 0.0
C690 C 0.51516 0.93237 0.87531 0.0
C691 C 0.54179 0.91859 0.9774 0.0
C692 C 0.51099 0.94738 0.81567 0.0
C693 C 0.52899 0.96462 0.79422 0.0
C694 C 0.53778 0.93402 0.91269 0.0
C695 C 0.55147 0.9657 0.83279 0.0
C696 C 0.56282 0.90337 0.98517 0.0
C697 C 0.52453 0.90195 0.08471 0.0
N698 N 0.5554 0.95042 0.89005 0.0
N699 N 0.52357 0.91765 0.02791 0.0
H700 H 0.61519 0.50924 0.12096 0.0
H701 H 0.55927 0.54561 0.73387 0.0
H702 H 0.65005 0.56446 0.9882 0.0
H703 H 0.53232 0.48655 0.86781 0.0
H704 H 0.59208 0.55444 0.82407 0.0
H705 H 0.58343 0.50312 0.02908 0.0
C706 C 0.61609 0.52024 0.07252 0.0
C707 C 0.63552 0.53727 0.06243 0.0
C708 C 0.57907 0.53945 0.83333 0.0
C709 C 0.59889 0.53022 0.95537 0.0
C710 C 0.56051 0.53428 0.78159 0.0
C711 C 0.54341 0.51491 0.79269 0.0
C712 C 0.58014 0.52544 0.897 0.0
C713 C 0.54531 0.5014 0.85658 0.0
C714 C 0.59791 0.51669 0.01969 0.0
C715 C 0.63537 0.55122 0.9986 0.0
N716 N 0.56324 0.50685 0.90583 0.0
N717 N 0.61747 0.54727 0.94727 0.0
H718 H 0.99188 0.66927 0.95901 0.0
H719 H 0.01717 0.52694 0.8995 0.0
H720 H 0.97415 0.61722 0.12583 0.0
H721 H 0.98231 0.56747 0.72769 0.0
H722 H 0.00773 0.56132 0.98237 0.0
H723 H 0.99463 0.63443 0.87198 0.0
C724 C 0.98827 0.65051 0.97713 0.0
C725 C 0.98265 0.64619 0.04988 0.0
C726 C 1.00229 0.5628 0.92644 0.0
C727 C 0.9864 0.60615 0.95071 0.0
C728 C 0.00776 0.54321 0.87878 0.0
C729 C 1.00131 0.54449 0.80552 0.0
C730 C 0.99071 0.58438 0.90101 0.0
C731 C 0.98857 0.56596 0.78281 0.0
C732 C 0.98979 0.63069 0.92737 0.0
C733 C 0.97837 0.62146 0.07037 0.0
N734 N 0.98418 0.58528 0.82992 0.0
N735 N 0.98074 0.60239 0.02146 0.0
H736 H 0.10357 0.18676 0.23378 0.0
H737 H 0.97171 0.16148 0.4154 0.0
H738 H 0.05133 0.24426 0.29539 0.0
H739 H 0.02136 0.1031 0.3438 0.0
H740 H 1.00304 0.19225 0.38389 0.0
H741 H 0.07674 0.15596 0.29064 0.0
C742 C 0.08681 0.193 0.2607 0.0
C743 C 0.07961 0.21812 0.259 0.0
C744 C 0.00714 0.17271 0.37529 0.0
C745 C 0.04877 0.18306 0.32328 0.0
C746 C 0.98914 0.15516 0.39248 0.0
C747 C 0.99387 0.12973 0.38162 0.0
C748 C 0.03004 0.16479 0.34687 0.0
C749 C 0.01701 0.12254 0.35334 0.0
C750 C 0.07145 0.17541 0.29283 0.0
C751 C 0.05784 0.2252 0.2956 0.0
N752 N 0.03422 0.14001 0.33663 0.0
N753 N 0.04303 0.20771 0.32521 0.0
H754 H 0.33703 0.10502 0.22556 0.0
H755 H 0.3549 0.99202 0.49564 0.0
H756 H 0.27768 0.05916 0.30744 0.0
H757 H 0.41469 0.02374 0.37214 0.0
H758 H 0.32723 0.02462 0.45239 0.0
H759 H 0.36622 0.08326 0.30415 0.0
C760 C 0.33001 0.09074 0.2608 0.0
C761 C 0.30484 0.08368 0.2587 0.0
C762 C 0.3465 0.02468 0.4356 0.0
C763 C 0.33807 0.05907 0.34932 0.0
C764 C 0.36227 0.00603 0.46003 0.0
C765 C 0.38698 0.00488 0.4363 0.0
C766 C 0.35548 0.04233 0.38698 0.0
C767 C 0.39574 0.02388 0.39164 0.0
C768 C 0.34668 0.0784 0.30576 0.0
C769 C 0.29677 0.06547 0.30708 0.0
N770 N 0.37988 0.04166 0.36749 0.0
N771 N 0.31338 0.05361 0.34961 0.0
H772 H 0.40106 0.32869 0.23966 0.0
H773 H 0.53247 0.37074 0.37627 0.0
H774 H 0.46124 0.2778 0.2839 0.0
H775 H 0.46906 0.41979 0.37971 0.0
H776 H 0.50466 0.33517 0.36144 0.0
H777 H 0.4229 0.36096 0.30877 0.0
C778 C 0.41857 0.32414 0.26529 0.0
C779 C 0.4295 0.30064 0.25503 0.0
C780 C 0.49665 0.35359 0.36711 0.0
C781 C 0.45461 0.33739 0.33359 0.0
C782 C 0.51255 0.37382 0.37562 0.0
C783 C 0.50285 0.39796 0.37868 0.0
C784 C 0.47096 0.3577 0.35978 0.0
C785 C 0.47705 0.40128 0.37737 0.0
C786 C 0.43099 0.34253 0.30492 0.0
C787 C 0.45203 0.29561 0.29034 0.0
N788 N 0.46191 0.38133 0.36649 0.0
N789 N 0.46404 0.31398 0.32683 0.0
H790 H 0.19019 0.40749 0.24308 0.0
H791 H 0.15748 0.5468 0.3532 0.0
H792 H 0.24526 0.46462 0.28167 0.0
H793 H 0.1046 0.48676 0.36973 0.0
H794 H 0.19007 0.51626 0.32644 0.0
H795 H 0.15856 0.43509 0.2951 0.0
C796 C 0.19573 0.42554 0.26416 0.0
C797 C 0.22033 0.43382 0.25746 0.0
C798 C 0.17135 0.50977 0.33647 0.0
C799 C 0.1844 0.46553 0.31524 0.0
C800 C 0.15278 0.52721 0.35076 0.0
C801 C 0.12847 0.51923 0.36369 0.0
C802 C 0.16543 0.48426 0.33434 0.0
C803 C 0.12325 0.49361 0.36065 0.0
C804 C 0.1777 0.44131 0.29353 0.0
C805 C 0.22659 0.45731 0.28606 0.0
N806 N 0.14158 0.477 0.34602 0.0
N807 N 0.20865 0.4725 0.3125 0.0
H808 H 0.9156 0.83786 0.05463 0.0
H809 H 0.99556 0.91814 0.90884 0.0
H810 H 0.95389 0.78546 0.9164 0.0
H811 H 1.00346 0.86721 0.72943 0.0
H812 H 0.96075 0.89377 0.95217 0.0
H813 H 0.92597 0.87111 0.97119 0.0
C814 C 0.92551 0.83321 1.00558 0.0
C815 C 0.9349 0.80908 0.99413 0.0
C816 C 0.96923 0.88837 0.90165 0.0
C817 C 0.94753 0.84695 0.9002 0.0
C818 C 0.98932 0.90228 0.87717 0.0
C819 C 1.00261 0.89432 0.81636 0.0
C820 C 0.96251 0.86632 0.8649 0.0
C821 C 0.99398 0.87354 0.77761 0.0
C822 C 0.93175 0.85227 0.95851 0.0
C823 C 0.94678 0.80388 0.92855 0.0
N824 N 0.97478 0.85994 0.8034 0.0
N825 N 0.9534 0.82282 0.88504 0.0
H826 H 0.67559 0.93902 0.07341 0.0
H827 H 0.65395 0.01715 0.72638 0.0
H828 H 0.73281 0.96239 0.92631 0.0
H829 H 0.59824 1.00147 0.88614 0.0
H830 H 0.6794 0.98332 0.77369 0.0
H831 H 0.64443 0.94682 0.98061 0.0
C832 C 0.68167 0.94506 0.02087 0.0
C833 C 0.70669 0.95104 0.00846 0.0
C834 C 0.66129 0.98679 0.79713 0.0
C835 C 0.67129 0.9601 0.90261 0.0
C836 C 0.64686 0.00615 0.77035 0.0
C837 C 0.6243 0.01236 0.80355 0.0
C838 C 0.65324 0.97395 0.85832 0.0
C839 C 0.61562 0.99732 0.8593 0.0
C840 C 0.66389 0.94948 0.96789 0.0
C841 C 0.71368 0.95797 0.93885 0.0
N842 N 0.63038 0.97913 0.88608 0.0
N843 N 0.69598 0.96298 0.8891 0.0
H844 H 0.59086 0.69554 0.10146 0.0
H845 H 0.5146 0.62439 0.80558 0.0
H846 H 0.54775 0.72957 0.93365 0.0
H847 H 0.54515 0.59187 0.99765 0.0
H848 H 0.54252 0.65987 0.82122 0.0
H849 H 0.59043 0.65622 0.03354 0.0
C850 C 0.58237 0.69496 0.04855 0.0
C851 C 0.56911 0.71548 0.02293 0.0
C852 C 0.54367 0.64463 0.85877 0.0
C853 C 0.56776 0.67076 0.94654 0.0
C854 C 0.52783 0.62429 0.8496 0.0
C855 C 0.52711 0.60562 0.90174 0.0
C856 C 0.55858 0.6463 0.92082 0.0
C857 C 0.54465 0.60635 0.95759 0.0
C858 C 0.58191 0.67253 0.01008 0.0
C859 C 0.55804 0.71394 0.95489 0.0
N860 N 0.55928 0.62671 0.96671 0.0
N861 N 0.55711 0.69173 0.9196 0.0
H862 H 0.82734 0.59798 0.09061 0.0
H863 H 0.89322 0.52302 0.78885 0.0
H864 H 0.7909 0.56091 0.9132 0.0
H865 H 0.92789 0.55246 0.98093 0.0
H866 H 0.85966 0.55334 0.80298 0.0
H867 H 0.86592 0.59878 0.02139 0.0
C868 C 0.82726 0.59111 0.03557 0.0
C869 C 0.80628 0.57911 0.00735 0.0
C870 C 0.87502 0.55378 0.84073 0.0
C871 C 0.85028 0.57879 0.92951 0.0
C872 C 0.89425 0.53655 0.83242 0.0
C873 C 0.91272 0.53477 0.88543 0.0
C874 C 0.87429 0.56893 0.90286 0.0
C875 C 0.91341 0.5528 0.94036 0.0
C876 C 0.84928 0.59136 0.99622 0.0
C877 C 0.80692 0.57019 0.93646 0.0
N878 N 0.89405 0.56874 0.94884 0.0
N879 N 0.82885 0.56956 0.90047 0.0
H880 H 0.0628 0.19949 0.75937 0.0
H881 H 0.98046 0.07747 0.79044 0.0
H882 H 0.02243 0.18141 0.953 0.0
H883 H 0.04708 0.07682 0.66226 0.0
H884 H 0.99211 0.11835 0.83926 0.0
H885 H 0.05453 0.15759 0.71342 0.0
C886 C 0.05234 0.18702 0.79304 0.0
C887 C 0.0434 0.19485 0.86124 0.0
C888 C 0.00432 0.10927 0.80083 0.0
C889 C 0.03307 0.14633 0.80597 0.0
C890 C 0.99765 0.08593 0.77275 0.0
C891 C 0.01307 0.07335 0.72346 0.0
C892 C 0.02621 0.12091 0.77766 0.0
C893 C 0.0349 0.08554 0.7014 0.0
C894 C 0.04753 0.16292 0.76597 0.0
C895 C 0.02937 0.1772 0.89976 0.0
N896 N 0.04076 0.10868 0.72832 0.0
N897 N 0.02452 0.15414 0.87147 0.0
H898 H 0.31992 0.06598 0.73498 0.0
H899 H 0.44052 0.98175 0.77346 0.0
H900 H 0.33767 0.02679 0.93053 0.0
H901 H 0.44104 0.04629 0.63799 0.0
H902 H 0.40015 0.99471 0.82165 0.0
H903 H 0.3615 0.05627 0.68969 0.0
C904 C 0.33234 0.05545 0.76893 0.0
C905 C 0.32465 0.04721 0.83732 0.0
C906 C 0.40912 0.00621 0.78187 0.0
C907 C 0.37254 0.03542 0.78368 0.0
C908 C 0.43216 0.99882 0.75433 0.0
C909 C 0.44451 0.01336 0.70339 0.0
C910 C 0.39763 0.02787 0.75632 0.0
C911 C 0.43248 0.03493 0.67883 0.0
C912 C 0.35618 0.04986 0.74251 0.0
C913 C 0.34197 0.03314 0.87699 0.0
N914 N 0.40964 0.0415 0.70532 0.0
N915 N 0.36482 0.02759 0.84947 0.0
H916 H 0.46813 0.33617 0.93615 0.0
H917 H 0.49498 0.41843 0.5874 0.0
H918 H 0.46095 0.30547 0.72166 0.0
H919 H 0.47853 0.44879 0.79749 0.0
H920 H 0.48696 0.37632 0.63374 0.0
H921 H 0.47697 0.37677 0.88493 0.0
C922 C 0.46874 0.33782 0.87816 0.0
C923 C 0.46396 0.31712 0.83339 0.0
C924 C 0.48501 0.39226 0.66945 0.0
C925 C 0.47379 0.36414 0.77384 0.0
C926 C 0.48967 0.41626 0.64308 0.0
C927 C 0.48711 0.43723 0.68834 0.0
C928 C 0.47834 0.3892 0.74204 0.0
C929 C 0.48017 0.43329 0.76013 0.0
C930 C 0.47354 0.36118 0.84886 0.0
C931 C 0.46444 0.32083 0.75843 0.0
N932 N 0.4762 0.40988 0.78467 0.0
N933 N 0.46935 0.34382 0.73102 0.0
H934 H 0.20321 0.50333 0.86738 0.0
H935 H 0.07649 0.4463 0.70326 0.0
H936 H 0.19212 0.42479 0.82884 0.0
H937 H 0.09199 0.52498 0.71633 0.0
H938 H 0.11812 0.43788 0.75142 0.0
H939 H 0.16212 0.51147 0.81524 0.0
C940 C 0.1922 0.48776 0.84811 0.0
C941 C 0.20144 0.46331 0.85261 0.0
C942 C 0.11238 0.457 0.74389 0.0
C943 C 0.15394 0.47256 0.79245 0.0
C944 C 0.08844 0.46184 0.71685 0.0
C945 C 0.08019 0.48644 0.70708 0.0
C946 C 0.12844 0.47687 0.76146 0.0
C947 C 0.09712 0.50571 0.72363 0.0
C948 C 0.16869 0.49244 0.81792 0.0
C949 C 0.18614 0.444 0.8258 0.0
N950 N 0.1202 0.50053 0.75021 0.0
N951 N 0.16326 0.44901 0.79738 0.0
H952 H 0.01944 0.81418 0.50628 0.0
H953 H 0.97542 0.95057 0.60539 0.0
H954 H 0.95478 0.84166 0.39384 0.0
H955 H 0.05078 0.93451 0.54167 0.0
H956 H 0.96287 0.90896 0.55957 0.0
H957 H 0.02639 0.85589 0.5554 0.0
C958 C 0.00659 0.82878 0.49157 0.0
C959 C 0.98677 0.82398 0.44362 0.0
C960 C 0.9821 0.91474 0.55541 0.0
C961 C 0.99434 0.87222 0.50332 0.0
C962 C 0.98924 0.93859 0.58089 0.0
C963 C 0.01412 0.94659 0.5752 0.0
C964 C 1.00019 0.89829 0.52769 0.0
C965 C 0.03135 0.92952 0.54621 0.0
C966 C 0.01055 0.85267 0.5204 0.0
C967 C 0.97032 0.84403 0.43027 0.0
N968 N 0.02417 0.90631 0.52445 0.0
N969 N 0.97451 0.86719 0.45959 0.0
H970 H 0.68785 0.94779 0.48565 0.0
H971 H 0.57659 0.0476 0.50019 0.0
H972 H 0.69314 0.02415 0.41757 0.0
H973 H 0.57281 0.97982 0.62142 0.0
H974 H 0.61822 0.03627 0.46021 0.0
H975 H 0.64502 0.95615 0.52718 0.0
C976 C 0.68019 0.9663 0.47973 0.0
C977 C 0.69455 0.98536 0.4488 0.0
C978 C 0.60839 0.02368 0.49523 0.0
C979 C 0.64536 0.99493 0.49558 0.0
C980 C 0.58451 0.03014 0.51793 0.0
C981 C 0.57091 0.01441 0.56283 0.0
C982 C 0.61928 1.00131 0.51804 0.0
C983 C 0.58238 0.9922 0.5852 0.0
C984 C 0.65574 0.97105 0.50368 0.0
C985 C 0.68335 0.00893 0.44253 0.0
N986 N 0.60587 0.98622 0.56229 0.0
N987 N 0.65965 0.01292 0.46526 0.0
H988 H 0.56659 0.68809 0.37254 0.0
H989 H 0.50919 0.60258 0.68254 0.0
H990 H 0.53324 0.71935 0.56444 0.0
H991 H 0.542 0.57527 0.48576 0.0
H992 H 0.51968 0.64533 0.64655 0.0
H993 H 0.56079 0.64671 0.42064 0.0
C994 C 0.55849 0.68643 0.42553 0.0
C995 C 0.55048 0.70761 0.46418 0.0
C996 C 0.52484 0.62988 0.61177 0.0
C997 C 0.54295 0.65946 0.51926 0.0
C998 C 0.51886 0.60547 0.63232 0.0
C999 C 0.52535 0.58507 0.58815 0.0
C1000 C 0.53713 0.63393 0.54606 0.0
C1001 C 0.53752 0.59008 0.52312 0.0
C1002 C 0.55487 0.66257 0.45274 0.0
C1003 C 0.53945 0.70372 0.53195 0.0
N1004 N 0.54293 0.61381 0.5042 0.0
N1005 N 0.53588 0.68018 0.55706 0.0
H1006 H 0.80012 0.53218 0.5404 0.0
H1007 H 0.94719 0.55238 0.49661 0.0
H1008 H 0.8346 0.56574 0.35567 0.0
H1009 H 0.91626 0.50645 0.66239 0.0
H1010 H 0.90554 0.56121 0.45292 0.0
H1011 H 0.84149 0.52638 0.59371 0.0
C1012 C 0.81625 0.53845 0.51096 0.0
C1013 C 0.81351 0.5495 0.44292 0.0
C1014 C 0.90772 0.54938 0.49934 0.0
C1015 C 0.86123 0.54295 0.50449 0.0
C1016 C 0.9317 0.54449 0.52491 0.0
C1017 C 0.93555 0.52888 0.58402 0.0
C1018 C 0.88701 0.53875 0.53318 0.0
C1019 C 0.91433 0.51864 0.61671 0.0
C1020 C 0.83993 0.53514 0.54169 0.0
C1021 C 0.83537 0.55753 0.40853 0.0
N1022 N 0.89104 0.52379 0.59107 0.0
N1023 N 0.8581 0.55403 0.43941 0.0
loop_
_geom_bond_atom_site_label_1
_geom_bond_atom_site_label_2
_geom_bond_distance
_geom_bond_site_symmetry_2
_ccdc_geom_bond_type
P0 O11 1.490 . S
P0 C14 1.812 . S
P0 C20 1.803 . S
P0 C26 1.819 . S
H1 C15 0.941 . S
H2 C16 0.939 . S
H3 C18 0.940 . S
H4 C19 0.940 . S
H5 C21 0.939 . S
H6 C22 0.942 . S
H7 C24 0.940 . S
H8 C25 0.939 . S
H9 C27 0.941 . S
H10 C31 0.939 . S
O11 P0 1.490 . S
H12 C28 0.939 . S
H13 C30 0.940 . S
C14 P0 1.812 . S
C14 C15 1.389 . S
C14 C19 1.391 . S
C15 H1 0.941 . S
C15 C14 1.389 . S
C15 C16 1.397 . S
C16 H2 0.939 . S
C16 C15 1.397 . S
C16 C17 1.378 . S
C17 C16 1.378 . S
C17 C18 1.378 . S
C18 H3 0.940 . S
C18 C17 1.378 . S
C18 C19 1.396 . S
C19 H4 0.940 . S
C19 C14 1.391 . S
C19 C18 1.396 . S
C20 P0 1.803 . S
C20 C21 1.378 . S
C20 C25 1.400 . S
C21 H5 0.939 . S
C21 C20 1.378 . S
C21 C22 1.361 . S
C22 H6 0.942 . S
C22 C21 1.361 . S
C22 C23 1.369 . S
C23 C22 1.369 . S
C23 C24 1.404 . S
C24 H7 0.940 . S
C24 C23 1.404 . S
C24 C25 1.389 . S
C25 H8 0.939 . S
C25 C20 1.400 . S
C25 C24 1.389 . S
C26 P0 1.819 . S
C26 C27 1.391 . S
C26 C31 1.391 . S
C27 H9 0.941 . S
C27 C26 1.391 . S
C27 C28 1.396 . S
C28 H12 0.939 . S
C28 C27 1.396 . S
C28 C29 1.397 . S
C29 C28 1.397 . S
C29 C30 1.385 . S
C30 H13 0.940 . S
C30 C29 1.385 . S
C30 C31 1.388 . S
C31 H10 0.939 . S
C31 C26 1.391 . S
C31 C30 1.388 . S
P32 O43 1.457 1_655 S
P32 C46 1.812 . S
P32 C52 1.803 . S
P32 C58 1.819 . S
H33 C47 0.941 . S
H34 C48 0.939 . S
H35 C50 0.940 . S
H36 C51 0.940 . S
H37 C53 0.939 . S
H38 C54 0.942 . S
H39 C56 0.940 . S
H40 C57 0.939 . S
H41 C59 0.941 . S
H42 C63 0.939 . S
O43 P32 1.457 1_455 S
H44 C60 0.939 . S
H45 C62 0.940 . S
C46 P32 1.812 . S
C46 C47 1.389 . S
C46 C51 1.391 . S
C47 H33 0.941 . S
C47 C46 1.389 . S
C47 C48 1.397 . S
C48 H34 0.939 . S
C48 C47 1.397 . S
C48 C49 1.378 . S
C49 C48 1.378 . S
C49 C50 1.378 . S
C50 H35 0.940 . S
C50 C49 1.378 . S
C50 C51 1.396 . S
C51 H36 0.940 . S
C51 C46 1.391 . S
C51 C50 1.396 . S
C52 P32 1.803 . S
C52 C53 1.378 . S
C52 C57 1.400 . S
C53 H37 0.939 . S
C53 C52 1.378 . S
C53 C54 1.361 . S
C54 H38 0.942 . S
C54 C53 1.361 . S
C54 C55 1.369 . S
C55 C54 1.369 . S
C55 C56 1.404 . S
C56 H39 0.940 . S
C56 C55 1.404 . S
C56 C57 1.389 . S
C57 H40 0.939 . S
C57 C52 1.400 . S
C57 C56 1.389 . S
C58 P32 1.819 . S
C58 C59 1.391 . S
C58 C63 1.391 . S
C59 H41 0.941 . S
C59 C58 1.391 . S
C59 C60 1.396 . S
C60 H44 0.939 . S
C60 C59 1.396 . S
C60 C61 1.397 . S
C61 C60 1.397 . S
C61 C62 1.385 . S
C62 H45 0.940 . S
C62 C61 1.385 . S
C62 C63 1.388 . S
C63 H42 0.939 . S
C63 C58 1.391 . S
C63 C62 1.388 . S
P64 O75 1.490 1_565 S
P64 C78 1.812 . S
P64 C84 1.803 . S
P64 C90 1.819 . S
H65 C79 0.941 . S
H66 C80 0.939 . S
H67 C82 0.940 . S
H68 C83 0.940 . S
H69 C85 0.939 . S
H70 C86 0.942 . S
H71 C88 0.940 . S
H72 C89 0.939 . S
H73 C91 0.941 . S
H74 C95 0.939 . S
O75 P64 1.490 1_545 S
H76 C92 0.939 . S
H77 C94 0.940 . S
C78 P64 1.812 . S
C78 C79 1.389 . S
C78 C83 1.391 . S
C79 H65 0.941 . S
C79 C78 1.389 . S
C79 C80 1.397 . S
C80 H66 0.939 . S
C80 C79 1.397 . S
C80 C81 1.378 . S
C81 C80 1.378 . S
C81 C82 1.378 . S
C82 H67 0.940 . S
C82 C81 1.378 . S
C82 C83 1.396 . S
C83 H68 0.940 . S
C83 C78 1.391 . S
C83 C82 1.396 . S
C84 P64 1.803 . S
C84 C85 1.378 . S
C84 C89 1.400 . S
C85 H69 0.939 . S
C85 C84 1.378 . S
C85 C86 1.361 . S
C86 H70 0.942 . S
C86 C85 1.361 . S
C86 C87 1.369 . S
C87 C86 1.369 . S
C87 C88 1.404 . S
C88 H71 0.940 . S
C88 C87 1.404 . S
C88 C89 1.389 . S
C89 H72 0.939 . S
C89 C84 1.400 . S
C89 C88 1.389 . S
C90 P64 1.819 . S
C90 C91 1.391 . S
C90 C95 1.391 . S
C91 H73 0.941 . S
C91 C90 1.391 . S
C91 C92 1.396 . S
C92 H76 0.939 . S
C92 C91 1.396 . S
C92 C93 1.397 . S
C93 C92 1.397 . S
C93 C94 1.385 . S
C94 H77 0.940 . S
C94 C93 1.385 . S
C94 C95 1.388 . S
C95 H74 0.939 . S
C95 C90 1.391 . S
C95 C94 1.388 . S
P96 O107 1.490 . S
P96 C110 1.812 . S
P96 C116 1.803 . S
P96 C122 1.819 . S
H97 C111 0.941 . S
H98 C112 0.939 . S
H99 C114 0.940 . S
H100 C115 0.940 . S
H101 C117 0.939 . S
H102 C118 0.942 . S
H103 C120 0.940 . S
H104 C121 0.939 . S
H105 C123 0.941 . S
H106 C127 0.939 . S
O107 P96 1.490 . S
H108 C124 0.939 . S
H109 C126 0.940 . S
C110 P96 1.812 . S
C110 C111 1.389 . S
C110 C115 1.391 . S
C111 H97 0.941 . S
C111 C110 1.389 . S
C111 C112 1.397 . S
C112 H98 0.939 . S
C112 C111 1.397 . S
C112 C113 1.378 . S
C113 C112 1.378 . S
C113 C114 1.378 . S
C114 H99 0.940 . S
C114 C113 1.378 . S
C114 C115 1.396 . S
C115 H100 0.940 . S
C115 C110 1.391 . S
C115 C114 1.396 . S
C116 P96 1.803 . S
C116 C117 1.378 . S
C116 C121 1.400 . S
C117 H101 0.939 . S
C117 C116 1.378 . S
C117 C118 1.361 . S
C118 H102 0.942 . S
C118 C117 1.361 . S
C118 C119 1.369 . S
C119 C118 1.369 . S
C119 C120 1.404 . S
C120 H103 0.940 . S
C120 C119 1.404 . S
C120 C121 1.389 . S
C121 H104 0.939 . S
C121 C116 1.400 . S
C121 C120 1.389 . S
C122 P96 1.819 . S
C122 C123 1.391 . S
C122 C127 1.391 . S
C123 H105 0.941 . S
C123 C122 1.391 . S
C123 C124 1.396 . S
C124 H108 0.939 . S
C124 C123 1.396 . S
C124 C125 1.397 . S
C125 C124 1.397 . S
C125 C126 1.385 . S
C126 H109 0.940 . S
C126 C125 1.385 . S
C126 C127 1.388 . S
C127 H106 0.939 . S
C127 C122 1.391 . S
C127 C126 1.388 . S
P128 O139 1.490 . S
P128 C142 1.812 1_554 S
P128 C148 1.803 . S
P128 C154 1.819 . S
H129 C143 0.941 . S
H130 C144 0.939 . S
H131 C146 0.940 . S
H132 C147 0.940 . S
H133 C149 0.939 . S
H134 C150 0.942 . S
H135 C152 0.940 . S
H136 C153 0.939 1_556 S
H137 C155 0.941 . S
H138 C159 0.939 . S
O139 P128 1.490 . S
H140 C156 0.939 . S
H141 C158 0.940 . S
C142 P128 1.812 1_556 S
C142 C143 1.389 . S
C142 C147 1.391 . S
C143 H129 0.941 . S
C143 C142 1.389 . S
C143 C144 1.397 . S
C144 H130 0.939 . S
C144 C143 1.397 . S
C144 C145 1.378 . S
C145 C144 1.378 . S
C145 C146 1.378 . S
C146 H131 0.940 . S
C146 C145 1.378 . S
C146 C147 1.396 . S
C147 H132 0.940 . S
C147 C142 1.391 . S
C147 C146 1.396 . S
C148 P128 1.803 . S
C148 C149 1.378 . S
C148 C153 1.400 . S
C149 H133 0.939 . S
C149 C148 1.378 . S
C149 C150 1.361 . S
C150 H134 0.942 . S
C150 C149 1.361 . S
C150 C151 1.369 . S
C151 C150 1.369 . S
C151 C152 1.404 . S
C152 H135 0.940 . S
C152 C151 1.404 . S
C152 C153 1.389 . S
C153 H136 0.939 1_554 S
C153 C148 1.400 . S
C153 C152 1.389 . S
C154 P128 1.819 . S
C154 C155 1.391 . S
C154 C159 1.391 . S
C155 H137 0.941 . S
C155 C154 1.391 . S
C155 C156 1.396 . S
C156 H140 0.939 . S
C156 C155 1.396 . S
C156 C157 1.397 . S
C157 C156 1.397 . S
C157 C158 1.385 . S
C158 H141 0.940 . S
C158 C157 1.385 . S
C158 C159 1.388 . S
C159 H138 0.939 . S
C159 C154 1.391 . S
C159 C158 1.388 . S
P160 O171 1.490 . S
P160 C174 1.812 1_554 S
P160 C180 1.803 . S
P160 C186 1.819 . S
H161 C175 0.941 . S
H162 C176 0.939 . S
H163 C178 0.940 . S
H164 C179 0.940 . S
H165 C181 0.939 . S
H166 C182 0.942 . S
H167 C184 0.940 . S
H168 C185 0.939 1_556 S
H169 C187 0.941 . S
H170 C191 0.939 . S
O171 P160 1.490 . S
H172 C188 0.939 . S
H173 C190 0.940 . S
C174 P160 1.812 1_556 S
C174 C175 1.389 . S
C174 C179 1.391 . S
C175 H161 0.941 . S
C175 C174 1.389 . S
C175 C176 1.397 . S
C176 H162 0.939 . S
C176 C175 1.397 . S
C176 C177 1.378 . S
C177 C176 1.378 . S
C177 C178 1.378 . S
C178 H163 0.940 . S
C178 C177 1.378 . S
C178 C179 1.396 . S
C179 H164 0.940 . S
C179 C174 1.391 . S
C179 C178 1.396 . S
C180 P160 1.803 . S
C180 C181 1.378 . S
C180 C185 1.400 . S
C181 H165 0.939 . S
C181 C180 1.378 . S
C181 C182 1.361 . S
C182 H166 0.942 . S
C182 C181 1.361 . S
C182 C183 1.369 . S
C183 C182 1.369 . S
C183 C184 1.404 . S
C184 H167 0.940 . S
C184 C183 1.404 . S
C184 C185 1.389 . S
C185 H168 0.939 1_554 S
C185 C180 1.400 . S
C185 C184 1.389 . S
C186 P160 1.819 . S
C186 C187 1.391 . S
C186 C191 1.391 . S
C187 H169 0.941 . S
C187 C186 1.391 . S
C187 C188 1.396 . S
C188 H172 0.939 . S
C188 C187 1.396 . S
C188 C189 1.397 . S
C189 C188 1.397 . S
C189 C190 1.385 . S
C190 H173 0.940 . S
C190 C189 1.385 . S
C190 C191 1.388 . S
C191 H170 0.939 . S
C191 C186 1.391 . S
C191 C190 1.388 . S
P192 O203 1.490 . S
P192 C206 1.812 1_554 S
P192 C212 1.803 . S
P192 C218 1.819 . S
H193 C207 0.941 . S
H194 C208 0.939 . S
H195 C210 0.940 . S
H196 C211 0.940 . S
H197 C213 0.939 . S
H198 C214 0.942 . S
H199 C216 0.940 . S
H200 C217 0.939 1_556 S
H201 C219 0.941 . S
H202 C223 0.939 . S
O203 P192 1.490 . S
H204 C220 0.939 . S
H205 C222 0.940 . S
C206 P192 1.812 1_556 S
C206 C207 1.389 . S
C206 C211 1.391 . S
C207 H193 0.941 . S
C207 C206 1.389 . S
C207 C208 1.397 . S
C208 H194 0.939 . S
C208 C207 1.397 . S
C208 C209 1.378 . S
C209 C208 1.378 . S
C209 C210 1.378 . S
C210 H195 0.940 . S
C210 C209 1.378 . S
C210 C211 1.396 . S
C211 H196 0.940 . S
C211 C206 1.391 . S
C211 C210 1.396 . S
C212 P192 1.803 . S
C212 C213 1.378 . S
C212 C217 1.400 . S
C213 H197 0.939 . S
C213 C212 1.378 . S
C213 C214 1.361 . S
C214 H198 0.942 . S
C214 C213 1.361 . S
C214 C215 1.369 . S
C215 C214 1.369 . S
C215 C216 1.404 . S
C216 H199 0.940 . S
C216 C215 1.404 . S
C216 C217 1.389 . S
C217 H200 0.939 1_554 S
C217 C212 1.400 . S
C217 C216 1.389 . S
C218 P192 1.819 . S
C218 C219 1.391 . S
C218 C223 1.391 . S
C219 H201 0.941 . S
C219 C218 1.391 . S
C219 C220 1.396 . S
C220 H204 0.939 . S
C220 C219 1.396 . S
C220 C221 1.397 . S
C221 C220 1.397 . S
C221 C222 1.385 . S
C222 H205 0.940 . S
C222 C221 1.385 . S
C222 C223 1.388 . S
C223 H202 0.939 . S
C223 C218 1.391 . S
C223 C222 1.388 . S
P224 O235 1.490 . S
P224 C238 1.812 1_554 S
P224 C244 1.803 . S
P224 C250 1.819 . S
H225 C239 0.941 . S
H226 C240 0.939 . S
H227 C242 0.940 . S
H228 C243 0.940 . S
H229 C245 0.939 . S
H230 C246 0.942 . S
H231 C248 0.940 . S
H232 C249 0.939 1_556 S
H233 C251 0.941 . S
H234 C255 0.939 . S
O235 P224 1.490 . S
H236 C252 0.939 . S
H237 C254 0.940 . S
C238 P224 1.812 1_556 S
C238 C239 1.389 . S
C238 C243 1.391 . S
C239 H225 0.941 . S
C239 C238 1.389 . S
C239 C240 1.397 . S
C240 H226 0.939 . S
C240 C239 1.397 . S
C240 C241 1.378 . S
C241 C240 1.378 . S
C241 C242 1.378 . S
C242 H227 0.940 . S
C242 C241 1.378 . S
C242 C243 1.396 . S
C243 H228 0.940 . S
C243 C238 1.391 . S
C243 C242 1.396 . S
C244 P224 1.803 . S
C244 C245 1.378 . S
C244 C249 1.400 . S
C245 H229 0.939 . S
C245 C244 1.378 . S
C245 C246 1.361 . S
C246 H230 0.942 . S
C246 C245 1.361 . S
C246 C247 1.369 . S
C247 C246 1.369 . S
C247 C248 1.404 . S
C248 H231 0.940 . S
C248 C247 1.404 . S
C248 C249 1.389 . S
C249 H232 0.939 1_554 S
C249 C244 1.400 . S
C249 C248 1.389 . S
C250 P224 1.819 . S
C250 C251 1.391 . S
C250 C255 1.391 . S
C251 H233 0.941 . S
C251 C250 1.391 . S
C251 C252 1.396 . S
C252 H236 0.939 . S
C252 C251 1.396 . S
C252 C253 1.397 . S
C253 C252 1.397 . S
C253 C254 1.385 . S
C254 H237 0.940 . S
C254 C253 1.385 . S
C254 C255 1.388 . S
C255 H234 0.939 . S
C255 C250 1.391 . S
C255 C254 1.388 . S
Tb256 N287 2.660 1_565 S
Tb256 N294 2.600 . S
Tb256 O300 2.546 . S
Tb256 O301 2.610 1_455 S
Tb256 O303 2.320 1_455 S
Tb256 O304 2.552 . S
Tb256 O305 2.413 . S
Tb256 O307 2.362 1_565 S
Tb256 O308 2.421 . S
Tb256 C320 2.833 . S
C257 C260 1.432 1_545 S
C257 C261 1.419 . S
C257 N264 1.359 . S
C258 C260 1.417 . S
C258 C262 1.432 . S
C258 C270 1.410 . S
C259 C261 1.425 1_565 S
C259 C262 1.317 . S
C259 H282 0.929 . S
C260 C257 1.432 1_565 S
C260 C258 1.417 . S
C260 N268 1.369 . S
C261 C257 1.419 . S
C261 C259 1.425 1_545 S
C261 C266 1.400 . S
C262 C258 1.432 . S
C262 C259 1.317 . S
C262 H274 0.930 . S
C263 C265 1.392 . S
C263 C266 1.370 . S
C263 H275 0.931 . S
N264 C257 1.359 . S
N264 C265 1.327 . S
N264 Tb267 2.600 . S
C265 C263 1.392 . S
C265 N264 1.327 . S
C265 H272 0.930 . S
C266 C261 1.400 . S
C266 C263 1.370 . S
C266 H285 0.930 . S
Tb267 N264 2.600 . S
Tb267 N268 2.635 1_545 S
Tb267 O301 2.362 1_545 S
Tb267 O302 2.421 . S
Tb267 O306 2.546 . S
Tb267 O307 2.610 1_655 S
Tb267 O309 2.320 1_655 S
Tb267 O310 2.552 1_655 S
Tb267 O311 2.413 . S
Tb267 C331 2.833 . S
N268 C260 1.369 . S
N268 Tb267 2.635 1_565 S
N268 C269 1.303 1_655 S
C269 N268 1.303 1_455 S
C269 C271 1.406 1_455 S
C269 H276 0.954 . S
C270 C258 1.410 . S
C270 C271 1.372 . S
C270 H278 0.930 . S
C271 C269 1.406 1_655 S
C271 C270 1.372 . S
C271 H273 0.905 1_655 S
H272 C265 0.930 . S
H273 C271 0.905 1_455 S
H274 C262 0.930 . S
H275 C263 0.931 . S
H276 C269 0.954 . S
H277 C291 0.930 1_655 S
H278 C270 0.930 . S
H279 C297 0.930 . S
H280 C288 0.930 1_655 S
H281 C295 0.931 . S
H282 C259 0.929 . S
H283 C289 0.930 . S
H284 C322 0.930 . S
H285 C266 0.930 . S
H286 C321 0.929 . S
N287 Tb256 2.660 1_545 S
N287 C288 1.305 . S
N287 C292 1.360 . S
C288 H280 0.930 1_455 S
C288 N287 1.305 . S
C288 C291 1.407 . S
C289 H283 0.930 . S
C289 C290 1.410 . S
C289 C291 1.345 . S
C290 C289 1.410 . S
C290 C292 1.417 . S
C290 C322 1.432 . S
C291 H277 0.930 1_455 S
C291 C288 1.407 . S
C291 C289 1.345 . S
C292 N287 1.360 . S
C292 C290 1.417 . S
C292 C296 1.432 . S
H293 C298 0.932 . S
N294 Tb256 2.600 . S
N294 C296 1.359 1_565 S
N294 C297 1.327 . S
C295 H281 0.931 . S
C295 C297 1.392 . S
C295 C298 1.358 1_565 S
C296 C292 1.432 . S
C296 N294 1.359 1_545 S
C296 C299 1.414 . S
C297 H279 0.930 . S
C297 N294 1.327 . S
C297 C295 1.392 . S
C298 H293 0.932 . S
C298 C295 1.358 1_545 S
C298 C299 1.394 . S
C299 C296 1.414 . S
C299 C298 1.394 . S
C299 C321 1.444 . S
O300 Tb256 2.546 . S
O300 C320 1.251 . S
O301 Tb256 2.610 1_655 S
O301 Tb267 2.362 1_565 S
O301 C312 1.283 . S
O302 Tb267 2.421 . S
O302 C319 1.262 . S
O303 Tb256 2.320 1_655 S
O303 C319 1.260 1_565 S
O304 Tb256 2.552 . S
O304 C312 1.243 1_455 S
O305 Tb256 2.413 . S
O305 C320 1.256 . S
O306 Tb267 2.546 . S
O306 C331 1.251 . S
O307 Tb256 2.362 1_545 S
O307 Tb267 2.610 1_455 S
O307 C323 1.283 . S
O308 Tb256 2.421 . S
O308 C330 1.262 1_565 S
O309 Tb267 2.320 1_455 S
O309 C330 1.260 . S
O310 Tb267 2.552 1_455 S
O310 C323 1.243 . S
O311 Tb267 2.413 . S
O311 C331 1.256 . S
C312 O301 1.283 . S
C312 O304 1.243 1_655 S
C313 C315 1.382 . S
C313 C317 1.393 . S
C313 C320 1.500 . S
C314 C315 1.400 . S
C314 C316 1.384 . S
C315 C313 1.382 . S
C315 C314 1.400 . S
C315 H332 0.928 . S
C316 C314 1.384 . S
C316 C318 1.392 . S
C316 H333 0.931 . S
C317 C313 1.393 . S
C317 C318 1.401 . S
C317 H334 0.930 . S
C318 C316 1.392 . S
C318 C317 1.401 . S
C318 H335 0.930 . S
C319 O302 1.262 . S
C319 O303 1.260 1_545 S
C320 Tb256 2.833 . S
C320 O300 1.251 . S
C320 O305 1.256 . S
C320 C313 1.500 . S
C321 H286 0.929 . S
C321 C299 1.444 . S
C321 C322 1.317 . S
C322 H284 0.930 . S
C322 C290 1.432 . S
C322 C321 1.317 . S
C323 O307 1.283 . S
C323 O310 1.243 . S
C324 C325 1.382 . S
C324 C328 1.393 . S
C324 C331 1.500 . S
C325 C324 1.382 . S
C325 C326 1.400 . S
C325 H336 0.930 1_655 S
C326 C325 1.400 . S
C326 C327 1.384 . S
C327 C326 1.384 . S
C327 C329 1.392 . S
C327 H337 0.931 . S
C328 C324 1.393 . S
C328 C329 1.401 . S
C328 H338 0.930 . S
C329 C327 1.392 . S
C329 C328 1.401 . S
C329 H339 0.930 . S
C330 O308 1.262 1_545 S
C330 O309 1.260 . S
C331 Tb267 2.833 . S
C331 O306 1.251 . S
C331 O311 1.256 . S
C331 C324 1.500 . S
H332 C315 0.928 . S
H333 C316 0.931 . S
H334 C317 0.930 . S
H335 C318 0.930 . S
H336 C325 0.930 1_455 S
H337 C327 0.931 . S
H338 C328 0.930 . S
H339 C329 0.930 . S
Tb340 N371 2.660 . S
Tb340 N378 2.600 . S
Tb340 O384 2.546 . S
Tb340 O385 2.610 1_545 S
Tb340 O387 2.320 1_545 S
Tb340 O388 2.552 . S
Tb340 O389 2.413 . S
Tb340 O391 2.362 . S
Tb340 O392 2.421 . S
Tb340 C404 2.833 . S
C341 C344 1.432 . S
C341 C345 1.414 . S
C341 N348 1.359 . S
C342 C344 1.417 . S
C342 C346 1.432 . S
C342 C354 1.410 . S
C343 C345 1.444 . S
C343 C346 1.317 . S
C343 H366 0.929 . S
C344 C341 1.432 . S
C344 C342 1.417 . S
C344 N352 1.360 . S
C345 C341 1.414 . S
C345 C343 1.444 . S
C345 C350 1.385 . S
C346 C342 1.432 . S
C346 C343 1.317 . S
C346 H358 0.930 . S
C347 C349 1.392 . S
C347 C350 1.370 . S
C347 H359 0.931 . S
N348 C341 1.359 . S
N348 C349 1.327 . S
N348 Tb351 2.600 . S
C349 C347 1.392 . S
C349 N348 1.327 . S
C349 H356 0.930 . S
C350 C345 1.385 . S
C350 C347 1.370 . S
C350 H369 0.930 . S
Tb351 N348 2.600 . S
Tb351 N352 2.660 . S
Tb351 O385 2.362 . S
Tb351 O386 2.421 . S
Tb351 O390 2.546 . S
Tb351 O391 2.610 1_565 S
Tb351 O393 2.320 1_565 S
Tb351 O394 2.552 1_565 S
Tb351 O395 2.413 . S
Tb351 C415 2.833 . S
N352 C344 1.360 . S
N352 Tb351 2.660 . S
N352 C353 1.305 1_565 S
C353 N352 1.305 1_545 S
C353 C355 1.407 . S
C353 H360 0.930 . S
C354 C342 1.410 . S
C354 C355 1.345 1_565 S
C354 H362 0.930 . S
C355 C353 1.407 . S
C355 C354 1.345 1_545 S
C355 H357 0.930 . S
H356 C349 0.930 . S
H357 C355 0.930 . S
H358 C346 0.930 . S
H359 C347 0.931 . S
H360 C353 0.930 . S
H361 C375 0.930 1_565 S
H362 C354 0.930 . S
H363 C381 0.930 . S
H364 C372 0.930 1_565 S
H365 C379 0.931 . S
H366 C343 0.929 . S
H367 C373 0.930 . S
H368 C406 0.930 . S
H369 C350 0.930 . S
H370 C405 0.929 . S
N371 Tb340 2.660 . S
N371 C372 1.305 . S
N371 C376 1.360 . S
C372 H364 0.930 1_545 S
C372 N371 1.305 . S
C372 C375 1.407 . S
C373 H367 0.930 . S
C373 C374 1.410 . S
C373 C375 1.345 . S
C374 C373 1.410 . S
C374 C376 1.417 . S
C374 C406 1.432 . S
C375 H361 0.930 1_545 S
C375 C372 1.407 . S
C375 C373 1.345 . S
C376 N371 1.360 . S
C376 C374 1.417 . S
C376 C380 1.432 . S
H377 C382 0.930 . S
N378 Tb340 2.600 . S
N378 C380 1.359 . S
N378 C381 1.327 . S
C379 H365 0.931 . S
C379 C381 1.392 . S
C379 C382 1.370 . S
C380 C376 1.432 . S
C380 N378 1.359 . S
C380 C383 1.414 . S
C381 H363 0.930 . S
C381 N378 1.327 . S
C381 C379 1.392 . S
C382 H377 0.930 . S
C382 C379 1.370 . S
C382 C383 1.385 . S
C383 C380 1.414 . S
C383 C382 1.385 . S
C383 C405 1.444 . S
O384 Tb340 2.546 . S
O384 C404 1.251 . S
O385 Tb340 2.610 1_565 S
O385 Tb351 2.362 . S
O385 C396 1.283 . S
O386 Tb351 2.421 . S
O386 C403 1.262 . S
O387 Tb340 2.320 1_565 S
O387 C403 1.260 . S
O388 Tb340 2.552 . S
O388 C396 1.243 1_545 S
O389 Tb340 2.413 . S
O389 C404 1.256 . S
O390 Tb351 2.546 . S
O390 C415 1.251 . S
O391 Tb340 2.362 . S
O391 Tb351 2.610 1_545 S
O391 C407 1.283 . S
O392 Tb340 2.421 . S
O392 C414 1.262 . S
O393 Tb351 2.320 1_545 S
O393 C414 1.260 . S
O394 Tb351 2.552 1_545 S
O394 C407 1.243 . S
O395 Tb351 2.413 . S
O395 C415 1.256 . S
C396 O385 1.283 . S
C396 O388 1.243 1_565 S
C397 C399 1.382 . S
C397 C401 1.393 . S
C397 C404 1.500 . S
C398 C399 1.400 . S
C398 C400 1.384 . S
C399 C397 1.382 . S
C399 C398 1.400 . S
C399 H416 0.930 . S
C400 C398 1.384 . S
C400 C402 1.392 . S
C400 H417 0.931 . S
C401 C397 1.393 . S
C401 C402 1.401 . S
C401 H418 0.930 . S
C402 C400 1.392 . S
C402 C401 1.401 . S
C402 H419 0.930 . S
C403 O386 1.262 . S
C403 O387 1.260 . S
C404 Tb340 2.833 . S
C404 O384 1.251 . S
C404 O389 1.256 . S
C404 C397 1.500 . S
C405 H370 0.929 . S
C405 C383 1.444 . S
C405 C406 1.317 . S
C406 H368 0.930 . S
C406 C374 1.432 . S
C406 C405 1.317 . S
C407 O391 1.283 . S
C407 O394 1.243 . S
C408 C409 1.382 . S
C408 C412 1.393 . S
C408 C415 1.500 . S
C409 C408 1.382 . S
C409 C410 1.400 . S
C409 H420 0.930 1_565 S
C410 C409 1.400 . S
C410 C411 1.384 . S
C411 C410 1.384 . S
C411 C413 1.392 . S
C411 H421 0.931 . S
C412 C408 1.393 . S
C412 C413 1.401 . S
C412 H422 0.930 . S
C413 C411 1.392 . S
C413 C412 1.401 . S
C413 H423 0.930 . S
C414 O392 1.262 . S
C414 O393 1.260 . S
C415 Tb351 2.833 . S
C415 O390 1.251 . S
C415 O395 1.256 . S
C415 C408 1.500 . S
H416 C399 0.930 . S
H417 C400 0.931 . S
H418 C401 0.930 . S
H419 C402 0.930 . S
H420 C409 0.930 1_545 S
H421 C411 0.931 . S
H422 C412 0.930 . S
H423 C413 0.930 . S
Tb424 N455 2.660 . S
Tb424 N462 2.600 . S
Tb424 O468 2.546 . S
Tb424 O469 2.610 . S
Tb424 O471 2.320 . S
Tb424 O472 2.552 . S
Tb424 O473 2.413 . S
Tb424 O475 2.362 . S
Tb424 O476 2.421 . S
Tb424 C488 2.833 . S
C425 C428 1.432 . S
C425 C429 1.414 . S
C425 N432 1.359 . S
C426 C428 1.417 . S
C426 C430 1.432 . S
C426 C438 1.410 . S
C427 C429 1.444 . S
C427 C430 1.317 . S
C427 H450 0.929 . S
C428 C425 1.432 . S
C428 C426 1.417 . S
C428 N436 1.360 . S
C429 C425 1.414 . S
C429 C427 1.444 . S
C429 C434 1.385 . S
C430 C426 1.432 . S
C430 C427 1.317 . S
C430 H442 0.930 . S
C431 C433 1.392 . S
C431 C434 1.370 . S
C431 H443 0.931 . S
N432 C425 1.359 . S
N432 C433 1.327 . S
N432 Tb435 2.600 . S
C433 C431 1.392 . S
C433 N432 1.327 . S
C433 H440 0.930 . S
C434 C429 1.385 . S
C434 C431 1.370 . S
C434 H453 0.930 . S
Tb435 N432 2.600 . S
Tb435 N436 2.660 . S
Tb435 O469 2.362 . S
Tb435 O470 2.421 . S
Tb435 O474 2.546 . S
Tb435 O475 2.610 . S
Tb435 O477 2.320 . S
Tb435 O478 2.552 . S
Tb435 O479 2.413 . S
Tb435 C499 2.833 . S
N436 C428 1.360 . S
N436 Tb435 2.660 . S
N436 C437 1.305 . S
C437 N436 1.305 . S
C437 C439 1.407 . S
C437 H444 0.930 . S
C438 C426 1.410 . S
C438 C439 1.345 . S
C438 H446 0.930 . S
C439 C437 1.407 . S
C439 C438 1.345 . S
C439 H441 0.930 . S
H440 C433 0.930 . S
H441 C439 0.930 . S
H442 C430 0.930 . S
H443 C431 0.931 . S
H444 C437 0.930 . S
H445 C459 0.930 . S
H446 C438 0.930 . S
H447 C465 0.930 . S
H448 C456 0.930 . S
H449 C463 0.931 . S
H450 C427 0.929 . S
H451 C457 0.930 . S
H452 C490 0.930 . S
H453 C434 0.930 . S
H454 C489 0.929 . S
N455 Tb424 2.660 . S
N455 C456 1.305 . S
N455 C460 1.360 . S
C456 H448 0.930 . S
C456 N455 1.305 . S
C456 C459 1.407 . S
C457 H451 0.930 . S
C457 C458 1.410 . S
C457 C459 1.345 . S
C458 C457 1.410 . S
C458 C460 1.417 . S
C458 C490 1.432 . S
C459 H445 0.930 . S
C459 C456 1.407 . S
C459 C457 1.345 . S
C460 N455 1.360 . S
C460 C458 1.417 . S
C460 C464 1.432 . S
H461 C466 0.930 . S
N462 Tb424 2.600 . S
N462 C464 1.359 . S
N462 C465 1.327 . S
C463 H449 0.931 . S
C463 C465 1.392 . S
C463 C466 1.370 . S
C464 C460 1.432 . S
C464 N462 1.359 . S
C464 C467 1.414 . S
C465 H447 0.930 . S
C465 N462 1.327 . S
C465 C463 1.392 . S
C466 H461 0.930 . S
C466 C463 1.370 . S
C466 C467 1.385 . S
C467 C464 1.414 . S
C467 C466 1.385 . S
C467 C489 1.444 . S
O468 Tb424 2.546 . S
O468 C488 1.251 . S
O469 Tb424 2.610 . S
O469 Tb435 2.362 . S
O469 C480 1.283 . S
O470 Tb435 2.421 . S
O470 C487 1.262 . S
O471 Tb424 2.320 . S
O471 C487 1.260 . S
O472 Tb424 2.552 . S
O472 C480 1.243 . S
O473 Tb424 2.413 . S
O473 C488 1.256 . S
O474 Tb435 2.546 . S
O474 C499 1.251 . S
O475 Tb424 2.362 . S
O475 Tb435 2.610 . S
O475 C491 1.283 . S
O476 Tb424 2.421 . S
O476 C498 1.262 . S
O477 Tb435 2.320 . S
O477 C498 1.260 . S
O478 Tb435 2.552 . S
O478 C491 1.243 . S
O479 Tb435 2.413 . S
O479 C499 1.256 . S
C480 O469 1.283 . S
C480 O472 1.243 . S
C481 C483 1.382 . S
C481 C485 1.393 . S
C481 C488 1.500 . S
C482 C483 1.400 . S
C482 C484 1.384 . S
C483 C481 1.382 . S
C483 C482 1.400 . S
C483 H500 0.930 . S
C484 C482 1.384 . S
C484 C486 1.392 . S
C484 H501 0.931 . S
C485 C481 1.393 . S
C485 C486 1.401 . S
C485 H502 0.930 . S
C486 C484 1.392 . S
C486 C485 1.401 . S
C486 H503 0.930 . S
C487 O470 1.262 . S
C487 O471 1.260 . S
C488 Tb424 2.833 . S
C488 O468 1.251 . S
C488 O473 1.256 . S
C488 C481 1.500 . S
C489 H454 0.929 . S
C489 C467 1.444 . S
C489 C490 1.317 . S
C490 H452 0.930 . S
C490 C458 1.432 . S
C490 C489 1.317 . S
C491 O475 1.283 . S
C491 O478 1.243 . S
C492 C493 1.382 . S
C492 C496 1.393 . S
C492 C499 1.500 . S
C493 C492 1.382 . S
C493 C494 1.400 . S
C493 H504 0.930 . S
C494 C493 1.400 . S
C494 C495 1.384 . S
C495 C494 1.384 . S
C495 C497 1.392 . S
C495 H505 0.931 1_556 S
C496 C492 1.393 . S
C496 C497 1.401 . S
C496 H506 0.930 . S
C497 C495 1.392 . S
C497 C496 1.401 . S
C497 H507 0.930 1_556 S
C498 O476 1.262 . S
C498 O477 1.260 . S
C499 Tb435 2.833 . S
C499 O474 1.251 . S
C499 O479 1.256 . S
C499 C492 1.500 . S
H500 C483 0.930 . S
H501 C484 0.931 . S
H502 C485 0.930 . S
H503 C486 0.930 . S
H504 C493 0.930 . S
H505 C495 0.931 1_554 S
H506 C496 0.930 . S
H507 C497 0.930 1_554 S
Tb508 N539 2.660 . S
Tb508 N546 2.600 . S
Tb508 O552 2.546 . S
Tb508 O553 2.610 . S
Tb508 O555 2.320 . S
Tb508 O556 2.552 . S
Tb508 O557 2.413 . S
Tb508 O559 2.360 . S
Tb508 O560 2.421 1_455 S
Tb508 C572 2.833 . S
C509 C512 1.432 . S
C509 C513 1.414 . S
C509 N516 1.359 . S
C510 C512 1.417 . S
C510 C514 1.432 . S
C510 C522 1.410 . S
C511 C513 1.444 . S
C511 C514 1.317 . S
C511 H534 0.929 . S
C512 C509 1.432 . S
C512 C510 1.417 . S
C512 N520 1.360 . S
C513 C509 1.414 . S
C513 C511 1.444 . S
C513 C518 1.385 . S
C514 C510 1.432 . S
C514 C511 1.317 . S
C514 H526 0.930 . S
C515 C517 1.392 . S
C515 C518 1.370 1_455 S
C515 H527 0.931 . S
N516 C509 1.359 . S
N516 C517 1.327 1_655 S
N516 Tb519 2.600 . S
C517 C515 1.392 . S
C517 N516 1.327 1_455 S
C517 H524 0.930 . S
C518 C513 1.385 . S
C518 C515 1.370 1_655 S
C518 H537 0.930 . S
Tb519 N516 2.600 . S
Tb519 N520 2.660 . S
Tb519 O553 2.362 1_655 S
Tb519 O554 2.421 1_655 S
Tb519 O558 2.546 . S
Tb519 O559 2.611 1_655 S
Tb519 O561 2.320 . S
Tb519 O562 2.552 . S
Tb519 O563 2.413 . S
Tb519 C583 2.833 . S
N520 C512 1.360 . S
N520 Tb519 2.660 . S
N520 C521 1.305 . S
C521 N520 1.305 . S
C521 C523 1.407 . S
C521 H528 0.930 . S
C522 C510 1.410 . S
C522 C523 1.345 . S
C522 H530 0.930 . S
C523 C521 1.407 . S
C523 C522 1.345 . S
C523 H525 0.930 . S
H524 C517 0.930 . S
H525 C523 0.930 . S
H526 C514 0.930 . S
H527 C515 0.931 . S
H528 C521 0.930 . S
H529 C543 0.930 . S
H530 C522 0.930 . S
H531 C549 0.930 1_655 S
H532 C540 0.930 . S
H533 C547 0.931 . S
H534 C511 0.929 . S
H535 C541 0.930 . S
H536 C574 0.930 . S
H537 C518 0.930 . S
H538 C573 0.929 . S
N539 Tb508 2.660 . S
N539 C540 1.305 . S
N539 C544 1.360 . S
C540 H532 0.930 . S
C540 N539 1.305 . S
C540 C543 1.407 . S
C541 H535 0.930 . S
C541 C542 1.410 . S
C541 C543 1.345 . S
C542 C541 1.410 . S
C542 C544 1.417 . S
C542 C574 1.432 . S
C543 H529 0.930 . S
C543 C540 1.407 . S
C543 C541 1.345 . S
C544 N539 1.360 . S
C544 C542 1.417 . S
C544 C548 1.432 . S
H545 C550 0.930 . S
N546 Tb508 2.600 . S
N546 C548 1.359 . S
N546 C549 1.327 . S
C547 H533 0.931 . S
C547 C549 1.392 1_655 S
C547 C550 1.370 1_655 S
C548 C544 1.432 . S
C548 N546 1.359 . S
C548 C551 1.414 . S
C549 H531 0.930 1_455 S
C549 N546 1.327 . S
C549 C547 1.392 1_455 S
C550 H545 0.930 . S
C550 C547 1.370 1_455 S
C550 C551 1.385 . S
C551 C548 1.414 . S
C551 C550 1.385 . S
C551 C573 1.444 . S
O552 Tb508 2.546 . S
O552 C572 1.251 . S
O553 Tb508 2.610 . S
O553 Tb519 2.362 1_455 S
O553 C564 1.283 . S
O554 Tb519 2.421 1_455 S
O554 C571 1.262 . S
O555 Tb508 2.320 . S
O555 C571 1.260 . S
O556 Tb508 2.552 . S
O556 C564 1.243 . S
O557 Tb508 2.413 . S
O557 C572 1.256 . S
O558 Tb519 2.546 . S
O558 C583 1.251 . S
O559 Tb508 2.360 . S
O559 Tb519 2.611 1_455 S
O559 C575 1.284 1_455 S
O560 Tb508 2.421 1_655 S
O560 C582 1.262 . S
O561 Tb519 2.320 . S
O561 C582 1.260 . S
O562 Tb519 2.552 . S
O562 C575 1.243 . S
O563 Tb519 2.413 . S
O563 C583 1.256 . S
C564 O553 1.283 . S
C564 O556 1.243 . S
C565 C567 1.382 . S
C565 C569 1.393 . S
C565 C572 1.500 . S
C566 C567 1.400 . S
C566 C568 1.384 . S
C567 C565 1.382 . S
C567 C566 1.400 . S
C567 H584 0.930 . S
C568 C566 1.384 . S
C568 C570 1.392 . S
C568 H585 0.931 . S
C569 C565 1.393 . S
C569 C570 1.401 . S
C569 H586 0.930 . S
C570 C568 1.392 . S
C570 C569 1.401 . S
C570 H587 0.930 . S
C571 O554 1.262 . S
C571 O555 1.260 . S
C572 Tb508 2.833 . S
C572 O552 1.251 . S
C572 O557 1.256 . S
C572 C565 1.500 . S
C573 H538 0.929 . S
C573 C551 1.444 . S
C573 C574 1.317 . S
C574 H536 0.930 . S
C574 C542 1.432 . S
C574 C573 1.317 . S
C575 O559 1.284 1_655 S
C575 O562 1.243 . S
C576 C577 1.382 . S
C576 C580 1.393 . S
C576 C583 1.500 . S
C577 C576 1.382 . S
C577 C578 1.400 . S
C577 H588 0.930 . S
C578 C577 1.400 . S
C578 C579 1.384 . S
C579 C578 1.384 . S
C579 C581 1.392 . S
C579 H589 0.931 1_556 S
C580 C576 1.393 . S
C580 C581 1.401 . S
C580 H590 0.930 . S
C581 C579 1.392 . S
C581 C580 1.401 . S
C581 H591 0.930 1_556 S
C582 O560 1.262 . S
C582 O561 1.260 . S
C583 Tb519 2.833 . S
C583 O558 1.251 . S
C583 O563 1.256 . S
C583 C576 1.500 . S
H584 C567 0.930 . S
H585 C568 0.931 . S
H586 C569 0.930 . S
H587 C570 0.930 . S
H588 C577 0.930 . S
H589 C579 0.931 1_554 S
H590 C580 0.930 . S
H591 C581 0.930 1_554 S
H592 C598 0.930 . S
H593 C602 0.930 1_565 S
H594 C607 0.929 . S
H595 C605 0.929 . S
H596 C600 0.929 . S
H597 C606 0.929 . S
C598 H592 0.930 . S
C598 C599 1.367 . S
C598 C606 1.378 . S
C599 C598 1.367 . S
C599 C607 1.433 . S
C600 H596 0.929 . S
C600 C602 1.378 . S
C600 C604 1.350 . S
C601 C604 1.463 . S
C601 C606 1.350 . S
C601 N609 1.427 . S
C602 H593 0.930 1_545 S
C602 C600 1.378 . S
C602 C603 1.367 . S
C603 C602 1.367 . S
C603 C605 1.433 . S
C604 C600 1.350 . S
C604 C601 1.463 . S
C604 N608 1.427 . S
C605 H595 0.929 . S
C605 C603 1.433 . S
C605 N608 1.384 . S
C606 H597 0.929 . S
C606 C598 1.378 . S
C606 C601 1.350 . S
C607 H594 0.929 . S
C607 C599 1.433 . S
C607 N609 1.384 . S
N608 C604 1.427 . S
N608 C605 1.384 . S
N609 C601 1.427 . S
N609 C607 1.384 . S
H610 C616 0.930 . S
H611 C620 0.930 . S
H612 C625 0.929 . S
H613 C623 0.929 . S
H614 C618 0.929 . S
H615 C624 0.929 . S
C616 H610 0.930 . S
C616 C617 1.367 . S
C616 C624 1.378 . S
C617 C616 1.367 . S
C617 C625 1.433 . S
C618 H614 0.929 . S
C618 C620 1.378 . S
C618 C622 1.350 . S
C619 C622 1.463 . S
C619 C624 1.350 . S
C619 N627 1.427 . S
C620 H611 0.930 . S
C620 C618 1.378 . S
C620 C621 1.367 . S
C621 C620 1.367 . S
C621 C623 1.433 . S
C622 C618 1.350 . S
C622 C619 1.463 . S
C622 N626 1.427 . S
C623 H613 0.929 . S
C623 C621 1.433 . S
C623 N626 1.384 . S
C624 H615 0.929 . S
C624 C616 1.378 . S
C624 C619 1.350 . S
C625 H612 0.929 . S
C625 C617 1.433 . S
C625 N627 1.384 . S
N626 C622 1.427 . S
N626 C623 1.384 . S
N627 C619 1.427 . S
N627 C625 1.384 . S
H628 C634 0.930 . S
H629 C638 0.930 . S
H630 C643 0.929 . S
H631 C641 0.929 . S
H632 C636 0.929 . S
H633 C642 0.929 . S
C634 H628 0.930 . S
C634 C635 1.367 . S
C634 C642 1.378 . S
C635 C634 1.367 . S
C635 C643 1.433 . S
C636 H632 0.929 . S
C636 C638 1.378 . S
C636 C640 1.350 . S
C637 C640 1.463 . S
C637 C642 1.350 . S
C637 N645 1.427 . S
C638 H629 0.930 . S
C638 C636 1.378 . S
C638 C639 1.367 . S
C639 C638 1.367 . S
C639 C641 1.433 . S
C640 C636 1.350 . S
C640 C637 1.463 . S
C640 N644 1.427 . S
C641 H631 0.929 . S
C641 C639 1.433 . S
C641 N644 1.384 . S
C642 H633 0.929 . S
C642 C634 1.378 . S
C642 C637 1.350 . S
C643 H630 0.929 . S
C643 C635 1.433 . S
C643 N645 1.384 . S
N644 C640 1.427 . S
N644 C641 1.384 . S
N645 C637 1.427 . S
N645 C643 1.384 . S
H646 C652 0.930 . S
H647 C656 0.930 . S
H648 C661 0.929 . S
H649 C659 0.929 . S
H650 C654 0.929 . S
H651 C660 0.929 . S
C652 H646 0.930 . S
C652 C653 1.367 . S
C652 C660 1.378 . S
C653 C652 1.367 . S
C653 C661 1.433 . S
C654 H650 0.929 . S
C654 C656 1.378 . S
C654 C658 1.350 . S
C655 C658 1.463 . S
C655 C660 1.350 . S
C655 N663 1.427 . S
C656 H647 0.930 . S
C656 C654 1.378 . S
C656 C657 1.367 . S
C657 C656 1.367 . S
C657 C659 1.433 . S
C658 C654 1.350 . S
C658 C655 1.463 . S
C658 N662 1.427 . S
C659 H649 0.929 . S
C659 C657 1.433 . S
C659 N662 1.384 . S
C660 H651 0.929 . S
C660 C652 1.378 . S
C660 C655 1.350 . S
C661 H648 0.929 . S
C661 C653 1.433 . S
C661 N663 1.384 . S
N662 C658 1.427 . S
N662 C659 1.384 . S
N663 C655 1.427 . S
N663 C661 1.384 . S
H664 C670 0.930 . S
H665 C674 0.930 . S
H666 C679 0.929 . S
H667 C677 0.929 1_545 S
H668 C672 0.929 . S
H669 C678 0.929 . S
C670 H664 0.930 . S
C670 C671 1.367 . S
C670 C678 1.378 . S
C671 C670 1.367 . S
C671 C679 1.433 . S
C672 H668 0.929 . S
C672 C674 1.378 . S
C672 C676 1.350 . S
C673 C676 1.463 . S
C673 C678 1.350 1_556 S
C673 N681 1.427 . S
C674 H665 0.930 . S
C674 C672 1.378 . S
C674 C675 1.367 . S
C675 C674 1.367 . S
C675 C677 1.433 . S
C676 C672 1.350 . S
C676 C673 1.463 . S
C676 N680 1.427 . S
C677 H667 0.929 1_565 S
C677 C675 1.433 . S
C677 N680 1.384 . S
C678 H669 0.929 . S
C678 C670 1.378 . S
C678 C673 1.350 1_554 S
C679 H666 0.929 . S
C679 C671 1.433 . S
C679 N681 1.384 1_554 S
N680 C676 1.427 . S
N680 C677 1.384 . S
N681 C673 1.427 . S
N681 C679 1.384 1_556 S
H682 C688 0.930 . S
H683 C692 0.930 . S
H684 C697 0.929 . S
H685 C695 0.929 . S
H686 C690 0.929 . S
H687 C696 0.929 . S
C688 H682 0.930 . S
C688 C689 1.367 . S
C688 C696 1.378 1_554 S
C689 C688 1.367 . S
C689 C697 1.433 . S
C690 H686 0.929 . S
C690 C692 1.378 . S
C690 C694 1.350 . S
C691 C694 1.463 . S
C691 C696 1.350 . S
C691 N699 1.427 1_556 S
C692 H683 0.930 . S
C692 C690 1.378 . S
C692 C693 1.367 . S
C693 C692 1.367 . S
C693 C695 1.433 . S
C694 C690 1.350 . S
C694 C691 1.463 . S
C694 N698 1.427 . S
C695 H685 0.929 . S
C695 C693 1.433 . S
C695 N698 1.384 . S
C696 H687 0.929 . S
C696 C688 1.378 1_556 S
C696 C691 1.350 . S
C697 H684 0.929 . S
C697 C689 1.433 . S
C697 N699 1.384 . S
N698 C694 1.427 . S
N698 C695 1.384 . S
N699 C691 1.427 1_554 S
N699 C697 1.384 . S
H700 C706 0.930 . S
H701 C710 0.930 . S
H702 C715 0.929 . S
H703 C713 0.929 . S
H704 C708 0.929 . S
H705 C714 0.929 . S
C706 H700 0.930 . S
C706 C707 1.367 . S
C706 C714 1.378 . S
C707 C706 1.367 . S
C707 C715 1.433 . S
C708 H704 0.929 . S
C708 C710 1.378 . S
C708 C712 1.350 . S
C709 C712 1.463 . S
C709 C714 1.350 1_556 S
C709 N717 1.427 . S
C710 H701 0.930 . S
C710 C708 1.378 . S
C710 C711 1.367 . S
C711 C710 1.367 . S
C711 C713 1.433 . S
C712 C708 1.350 . S
C712 C709 1.463 . S
C712 N716 1.427 . S
C713 H703 0.929 . S
C713 C711 1.433 . S
C713 N716 1.384 . S
C714 H705 0.929 . S
C714 C706 1.378 . S
C714 C709 1.350 1_554 S
C715 H702 0.929 . S
C715 C707 1.433 . S
C715 N717 1.384 1_554 S
N716 C712 1.427 . S
N716 C713 1.384 . S
N717 C709 1.427 . S
N717 C715 1.384 1_556 S
H718 C724 0.930 . S
H719 C728 0.930 . S
H720 C733 0.929 . S
H721 C731 0.929 . S
H722 C726 0.929 . S
H723 C732 0.929 . S
C724 H718 0.930 . S
C724 C725 1.367 . S
C724 C732 1.378 1_554 S
C725 C724 1.367 . S
C725 C733 1.433 . S
C726 H722 0.929 . S
C726 C728 1.378 . S
C726 C730 1.350 . S
C727 C730 1.463 . S
C727 C732 1.350 . S
C727 N735 1.427 1_556 S
C728 H719 0.930 . S
C728 C726 1.378 . S
C728 C729 1.367 . S
C729 C728 1.367 . S
C729 C731 1.433 . S
C730 C726 1.350 . S
C730 C727 1.463 . S
C730 N734 1.427 . S
C731 H721 0.929 . S
C731 C729 1.433 . S
C731 N734 1.384 . S
C732 H723 0.929 . S
C732 C724 1.378 1_556 S
C732 C727 1.350 . S
C733 H720 0.929 . S
C733 C725 1.433 . S
C733 N735 1.384 . S
N734 C730 1.427 . S
N734 C731 1.384 . S
N735 C727 1.427 1_554 S
N735 C733 1.384 . S
H736 C742 0.930 . S
H737 C746 0.930 . S
H738 C751 0.929 . S
H739 C749 0.929 . S
H740 C744 0.929 1_655 S
H741 C750 0.929 . S
C742 H736 0.930 . S
C742 C743 1.367 . S
C742 C750 1.378 . S
C743 C742 1.367 . S
C743 C751 1.433 . S
C744 H740 0.929 1_455 S
C744 C746 1.378 1_455 S
C744 C748 1.350 . S
C745 C748 1.463 . S
C745 C750 1.350 . S
C745 N753 1.427 . S
C746 H737 0.930 . S
C746 C744 1.378 1_655 S
C746 C747 1.370 . S
C747 C746 1.370 . S
C747 C749 1.426 1_655 S
C748 C744 1.350 . S
C748 C745 1.463 . S
C748 N752 1.427 . S
C749 H739 0.929 . S
C749 C747 1.426 1_455 S
C749 N752 1.384 . S
C750 H741 0.929 . S
C750 C742 1.378 . S
C750 C745 1.350 . S
C751 H738 0.929 . S
C751 C743 1.433 . S
C751 N753 1.384 . S
N752 C748 1.427 . S
N752 C749 1.384 . S
N753 C745 1.427 . S
N753 C751 1.384 . S
H754 C760 0.930 . S
H755 C764 0.930 . S
H756 C769 0.929 . S
H757 C767 0.929 . S
H758 C762 0.922 1_565 S
H759 C768 0.929 . S
C760 H754 0.930 . S
C760 C761 1.367 . S
C760 C768 1.378 . S
C761 C760 1.367 . S
C761 C769 1.433 . S
C762 H758 0.922 1_545 S
C762 C764 1.378 1_545 S
C762 C766 1.350 . S
C763 C766 1.463 . S
C763 C768 1.350 . S
C763 N771 1.427 . S
C764 H755 0.930 . S
C764 C762 1.378 1_565 S
C764 C765 1.376 . S
C765 C764 1.376 . S
C765 C767 1.410 1_565 S
C766 C762 1.350 . S
C766 C763 1.463 . S
C766 N770 1.427 . S
C767 H757 0.929 . S
C767 C765 1.410 1_545 S
C767 N770 1.384 . S
C768 H759 0.929 . S
C768 C760 1.378 . S
C768 C763 1.350 . S
C769 H756 0.929 . S
C769 C761 1.433 . S
C769 N771 1.384 . S
N770 C766 1.427 . S
N770 C767 1.384 . S
N771 C763 1.427 . S
N771 C769 1.384 . S
H772 C778 0.930 . S
H773 C782 0.930 . S
H774 C787 0.929 . S
H775 C785 0.929 . S
H776 C780 0.929 . S
H777 C786 0.929 . S
C778 H772 0.930 . S
C778 C779 1.367 . S
C778 C786 1.378 . S
C779 C778 1.367 . S
C779 C787 1.433 . S
C780 H776 0.929 . S
C780 C782 1.378 . S
C780 C784 1.350 . S
C781 C784 1.463 . S
C781 C786 1.350 . S
C781 N789 1.427 . S
C782 H773 0.930 . S
C782 C780 1.378 . S
C782 C783 1.367 . S
C783 C782 1.367 . S
C783 C785 1.433 . S
C784 C780 1.350 . S
C784 C781 1.463 . S
C784 N788 1.427 . S
C785 H775 0.929 . S
C785 C783 1.433 . S
C785 N788 1.384 . S
C786 H777 0.929 . S
C786 C778 1.378 . S
C786 C781 1.350 . S
C787 H774 0.929 . S
C787 C779 1.433 . S
C787 N789 1.384 . S
N788 C784 1.427 . S
N788 C785 1.384 . S
N789 C781 1.427 . S
N789 C787 1.384 . S
H790 C796 0.930 . S
H791 C800 0.930 . S
H792 C805 0.929 . S
H793 C803 0.929 . S
H794 C798 0.929 . S
H795 C804 0.929 . S
C796 H790 0.930 . S
C796 C797 1.367 . S
C796 C804 1.378 . S
C797 C796 1.367 . S
C797 C805 1.433 . S
C798 H794 0.929 . S
C798 C800 1.378 . S
C798 C802 1.350 . S
C799 C802 1.463 . S
C799 C804 1.350 . S
C799 N807 1.427 . S
C800 H791 0.930 . S
C800 C798 1.378 . S
C800 C801 1.367 . S
C801 C800 1.367 . S
C801 C803 1.433 . S
C802 C798 1.350 . S
C802 C799 1.463 . S
C802 N806 1.427 . S
C803 H793 0.929 . S
C803 C801 1.433 . S
C803 N806 1.384 . S
C804 H795 0.929 . S
C804 C796 1.378 . S
C804 C799 1.350 . S
C805 H792 0.929 . S
C805 C797 1.433 . S
C805 N807 1.384 . S
N806 C802 1.427 . S
N806 C803 1.384 . S
N807 C799 1.427 . S
N807 C805 1.384 . S
H808 C814 0.930 . S
H809 C818 0.930 . S
H810 C823 0.929 . S
H811 C821 0.929 . S
H812 C816 0.929 1_554 S
H813 C822 0.929 . S
C814 H808 0.930 . S
C814 C815 1.367 1_556 S
C814 C822 1.378 . S
C815 C814 1.367 1_554 S
C815 C823 1.433 . S
C816 H812 0.929 1_556 S
C816 C818 1.378 . S
C816 C820 1.350 1_455 S
C817 C820 1.463 . S
C817 C822 1.350 . S
C817 N825 1.427 1_556 S
C818 H809 0.930 . S
C818 C816 1.378 . S
C818 C819 1.367 . S
C819 C818 1.367 . S
C819 C821 1.433 1_455 S
C820 C816 1.350 1_655 S
C820 C817 1.463 . S
C820 N824 1.427 . S
C821 H811 0.929 . S
C821 C819 1.433 1_655 S
C821 N824 1.384 . S
C822 H813 0.929 . S
C822 C814 1.378 . S
C822 C817 1.350 . S
C823 H810 0.929 . S
C823 C815 1.433 . S
C823 N825 1.384 . S
N824 C820 1.427 . S
N824 C821 1.384 . S
N825 C817 1.427 1_554 S
N825 C823 1.384 . S
H826 C832 0.930 . S
H827 C836 0.930 . S
H828 C841 0.929 . S
H829 C839 0.929 . S
H830 C834 0.929 . S
H831 C840 0.929 . S
C832 H826 0.930 . S
C832 C833 1.367 . S
C832 C840 1.378 . S
C833 C832 1.367 . S
C833 C841 1.433 . S
C834 H830 0.929 . S
C834 C836 1.378 . S
C834 C838 1.350 1_545 S
C835 C838 1.463 . S
C835 C840 1.350 1_556 S
C835 N843 1.427 . S
C836 H827 0.930 . S
C836 C834 1.378 . S
C836 C837 1.367 . S
C837 C836 1.367 . S
C837 C839 1.433 1_545 S
C838 C834 1.350 1_565 S
C838 C835 1.463 . S
C838 N842 1.427 . S
C839 H829 0.929 . S
C839 C837 1.433 1_565 S
C839 N842 1.384 . S
C840 H831 0.929 . S
C840 C832 1.378 . S
C840 C835 1.350 1_554 S
C841 H828 0.929 . S
C841 C833 1.433 . S
C841 N843 1.384 1_554 S
N842 C838 1.427 . S
N842 C839 1.384 . S
N843 C835 1.427 . S
N843 C841 1.384 1_556 S
H844 C850 0.930 . S
H845 C854 0.930 . S
H846 C859 0.929 . S
H847 C857 0.929 . S
H848 C852 0.929 . S
H849 C858 0.929 . S
C850 H844 0.930 . S
C850 C851 1.367 . S
C850 C858 1.378 . S
C851 C850 1.367 . S
C851 C859 1.433 1_554 S
C852 H848 0.929 . S
C852 C854 1.378 . S
C852 C856 1.350 . S
C853 C856 1.463 . S
C853 C858 1.350 1_556 S
C853 N861 1.427 . S
C854 H845 0.930 . S
C854 C852 1.378 . S
C854 C855 1.367 . S
C855 C854 1.367 . S
C855 C857 1.433 . S
C856 C852 1.350 . S
C856 C853 1.463 . S
C856 N860 1.427 1_556 S
C857 H847 0.929 . S
C857 C855 1.433 . S
C857 N860 1.384 1_556 S
C858 H849 0.929 . S
C858 C850 1.378 . S
C858 C853 1.350 1_554 S
C859 H846 0.929 . S
C859 C851 1.433 1_556 S
C859 N861 1.384 . S
N860 C856 1.427 1_554 S
N860 C857 1.384 1_554 S
N861 C853 1.427 . S
N861 C859 1.384 . S
H862 C868 0.930 . S
H863 C872 0.930 . S
H864 C877 0.929 . S
H865 C875 0.929 1_554 S
H866 C870 0.929 . S
H867 C876 0.929 . S
C868 H862 0.930 . S
C868 C869 1.367 . S
C868 C876 1.378 . S
C869 C868 1.367 . S
C869 C877 1.433 1_554 S
C870 H866 0.929 . S
C870 C872 1.378 . S
C870 C874 1.350 . S
C871 C874 1.463 . S
C871 C876 1.350 1_556 S
C871 N879 1.427 . S
C872 H863 0.930 . S
C872 C870 1.378 . S
C872 C873 1.367 . S
C873 C872 1.367 . S
C873 C875 1.433 . S
C874 C870 1.350 . S
C874 C871 1.463 . S
C874 N878 1.427 1_556 S
C875 H865 0.929 1_556 S
C875 C873 1.433 . S
C875 N878 1.384 1_556 S
C876 H867 0.929 . S
C876 C868 1.378 . S
C876 C871 1.350 1_554 S
C877 H864 0.929 . S
C877 C869 1.433 1_556 S
C877 N879 1.384 . S
N878 C874 1.427 1_554 S
N878 C875 1.384 1_554 S
N879 C871 1.427 . S
N879 C877 1.384 . S
H880 C886 0.930 . S
H881 C890 0.930 . S
H882 C895 0.929 . S
H883 C893 0.929 . S
H884 C888 0.929 . S
H885 C894 0.929 . S
C886 H880 0.930 . S
C886 C887 1.367 . S
C886 C894 1.378 . S
C887 C886 1.367 . S
C887 C895 1.433 . S
C888 H884 0.929 . S
C888 C890 1.378 . S
C888 C892 1.350 . S
C889 C892 1.463 . S
C889 C894 1.350 . S
C889 N897 1.427 . S
C890 H881 0.930 . S
C890 C888 1.378 . S
C890 C891 1.367 . S
C891 C890 1.367 . S
C891 C893 1.433 . S
C892 C888 1.350 . S
C892 C889 1.463 . S
C892 N896 1.427 . S
C893 H883 0.929 . S
C893 C891 1.433 . S
C893 N896 1.384 . S
C894 H885 0.929 . S
C894 C886 1.378 . S
C894 C889 1.350 . S
C895 H882 0.929 . S
C895 C887 1.433 . S
C895 N897 1.384 . S
N896 C892 1.427 . S
N896 C893 1.384 . S
N897 C889 1.427 . S
N897 C895 1.384 . S
H898 C904 0.930 . S
H899 C908 0.930 . S
H900 C913 0.929 . S
H901 C911 0.929 . S
H902 C906 0.929 . S
H903 C912 0.929 . S
C904 H898 0.930 . S
C904 C905 1.367 . S
C904 C912 1.378 . S
C905 C904 1.367 . S
C905 C913 1.433 . S
C906 H902 0.929 . S
C906 C908 1.378 . S
C906 C910 1.350 . S
C907 C910 1.463 . S
C907 C912 1.350 . S
C907 N915 1.427 . S
C908 H899 0.930 . S
C908 C906 1.378 . S
C908 C909 1.367 . S
C909 C908 1.367 . S
C909 C911 1.433 . S
C910 C906 1.350 . S
C910 C907 1.463 . S
C910 N914 1.427 . S
C911 H901 0.929 . S
C911 C909 1.433 . S
C911 N914 1.384 . S
C912 H903 0.929 . S
C912 C904 1.378 . S
C912 C907 1.350 . S
C913 H900 0.929 . S
C913 C905 1.433 . S
C913 N915 1.384 . S
N914 C910 1.427 . S
N914 C911 1.384 . S
N915 C907 1.427 . S
N915 C913 1.384 . S
H916 C922 0.930 . S
H917 C926 0.930 . S
H918 C931 0.929 . S
H919 C929 0.929 . S
H920 C924 0.929 . S
H921 C930 0.929 . S
C922 H916 0.930 . S
C922 C923 1.367 . S
C922 C930 1.378 . S
C923 C922 1.367 . S
C923 C931 1.433 . S
C924 H920 0.929 . S
C924 C926 1.378 . S
C924 C928 1.350 . S
C925 C928 1.463 . S
C925 C930 1.350 . S
C925 N933 1.427 . S
C926 H917 0.930 . S
C926 C924 1.378 . S
C926 C927 1.367 . S
C927 C926 1.367 . S
C927 C929 1.433 . S
C928 C924 1.350 . S
C928 C925 1.463 . S
C928 N932 1.427 . S
C929 H919 0.929 . S
C929 C927 1.433 . S
C929 N932 1.384 . S
C930 H921 0.929 . S
C930 C922 1.378 . S
C930 C925 1.350 . S
C931 H918 0.929 . S
C931 C923 1.433 . S
C931 N933 1.384 . S
N932 C928 1.427 . S
N932 C929 1.384 . S
N933 C925 1.427 . S
N933 C931 1.384 . S
H934 C940 0.930 . S
H935 C944 0.930 . S
H936 C949 0.929 . S
H937 C947 0.929 . S
H938 C942 0.929 . S
H939 C948 0.929 . S
C940 H934 0.930 . S
C940 C941 1.367 . S
C940 C948 1.378 . S
C941 C940 1.367 . S
C941 C949 1.433 . S
C942 H938 0.929 . S
C942 C944 1.378 . S
C942 C946 1.350 . S
C943 C946 1.463 . S
C943 C948 1.350 . S
C943 N951 1.427 . S
C944 H935 0.930 . S
C944 C942 1.378 . S
C944 C945 1.367 . S
C945 C944 1.367 . S
C945 C947 1.433 . S
C946 C942 1.350 . S
C946 C943 1.463 . S
C946 N950 1.427 . S
C947 H937 0.929 . S
C947 C945 1.433 . S
C947 N950 1.384 . S
C948 H939 0.929 . S
C948 C940 1.378 . S
C948 C943 1.350 . S
C949 H936 0.929 . S
C949 C941 1.433 . S
C949 N951 1.384 . S
N950 C946 1.427 . S
N950 C947 1.384 . S
N951 C943 1.427 . S
N951 C949 1.384 . S
H952 C958 0.930 . S
H953 C962 0.930 . S
H954 C967 0.929 . S
H955 C965 0.929 1_455 S
H956 C960 0.929 . S
H957 C966 0.929 . S
C958 H952 0.930 . S
C958 C959 1.367 . S
C958 C966 1.378 . S
C959 C958 1.367 . S
C959 C967 1.433 . S
C960 H956 0.929 . S
C960 C962 1.378 . S
C960 C964 1.350 . S
C961 C964 1.463 . S
C961 C966 1.350 . S
C961 N969 1.427 . S
C962 H953 0.930 . S
C962 C960 1.378 . S
C962 C963 1.367 . S
C963 C962 1.367 . S
C963 C965 1.433 . S
C964 C960 1.350 . S
C964 C961 1.463 . S
C964 N968 1.427 . S
C965 H955 0.929 1_655 S
C965 C963 1.433 . S
C965 N968 1.384 . S
C966 H957 0.929 . S
C966 C958 1.378 . S
C966 C961 1.350 . S
C967 H954 0.929 . S
C967 C959 1.433 . S
C967 N969 1.384 . S
N968 C964 1.427 . S
N968 C965 1.384 . S
N969 C961 1.427 . S
N969 C967 1.384 . S
H970 C976 0.930 . S
H971 C980 0.930 1_545 S
H972 C985 0.929 . S
H973 C983 0.929 . S
H974 C978 0.929 . S
H975 C984 0.929 . S
C976 H970 0.930 . S
C976 C977 1.367 . S
C976 C984 1.378 . S
C977 C976 1.367 . S
C977 C985 1.433 . S
C978 H974 0.929 . S
C978 C980 1.378 . S
C978 C982 1.350 . S
C979 C982 1.463 . S
C979 C984 1.350 . S
C979 N987 1.427 . S
C980 H971 0.930 1_565 S
C980 C978 1.378 . S
C980 C981 1.367 . S
C981 C980 1.367 . S
C981 C983 1.433 . S
C982 C978 1.350 . S
C982 C979 1.463 . S
C982 N986 1.427 . S
C983 H973 0.929 . S
C983 C981 1.433 . S
C983 N986 1.384 . S
C984 H975 0.929 . S
C984 C976 1.378 . S
C984 C979 1.350 . S
C985 H972 0.929 . S
C985 C977 1.433 . S
C985 N987 1.384 . S
N986 C982 1.427 . S
N986 C983 1.384 . S
N987 C979 1.427 . S
N987 C985 1.384 . S
H988 C994 0.930 . S
H989 C998 0.930 . S
H990 C1003 0.929 . S
H991 C1001 0.929 . S
H992 C996 0.929 . S
H993 C1002 0.929 . S
C994 H988 0.930 . S
C994 C995 1.367 . S
C994 C1002 1.378 . S
C995 C994 1.367 . S
C995 C1003 1.433 . S
C996 H992 0.929 . S
C996 C998 1.378 . S
C996 C1000 1.350 . S
C997 C1000 1.463 . S
C997 C1002 1.350 . S
C997 N1005 1.427 . S
C998 H989 0.930 . S
C998 C996 1.378 . S
C998 C999 1.367 . S
C999 C998 1.367 . S
C999 C1001 1.433 . S
C1000 C996 1.350 . S
C1000 C997 1.463 . S
C1000 N1004 1.427 . S
C1001 H991 0.929 . S
C1001 C999 1.433 . S
C1001 N1004 1.384 . S
C1002 H993 0.929 . S
C1002 C994 1.378 . S
C1002 C997 1.350 . S
C1003 H990 0.929 . S
C1003 C995 1.433 . S
C1003 N1005 1.384 . S
N1004 C1000 1.427 . S
N1004 C1001 1.384 . S
N1005 C997 1.427 . S
N1005 C1003 1.384 . S
H1006 C1012 0.930 . S
H1007 C1016 0.930 . S
H1008 C1021 0.929 . S
H1009 C1019 0.929 . S
H1010 C1014 0.929 . S
H1011 C1020 0.929 . S
C1012 H1006 0.930 . S
C1012 C1013 1.367 . S
C1012 C1020 1.378 . S
C1013 C1012 1.367 . S
C1013 C1021 1.433 . S
C1014 H1010 0.929 . S
C1014 C1016 1.378 . S
C1014 C1018 1.350 . S
C1015 C1018 1.463 . S
C1015 C1020 1.350 . S
C1015 N1023 1.427 . S
C1016 H1007 0.930 . S
C1016 C1014 1.378 . S
C1016 C1017 1.367 . S
C1017 C1016 1.367 . S
C1017 C1019 1.433 . S
C1018 C1014 1.350 . S
C1018 C1015 1.463 . S
C1018 N1022 1.427 . S
C1019 H1009 0.929 . S
C1019 C1017 1.433 . S
C1019 N1022 1.384 . S
C1020 H1011 0.929 . S
C1020 C1012 1.378 . S
C1020 C1015 1.350 . S
C1021 H1008 0.929 . S
C1021 C1013 1.433 . S
C1021 N1023 1.384 . S
N1022 C1018 1.427 . S
N1022 C1019 1.384 . S
N1023 C1015 1.427 . S
N1023 C1021 1.384 . S
C599 C215 2.148 . S
C603 C330 2.164 . S
C621 C414 2.182 . S
C617 C247 2.166 . S
C639 C480 2.115 . S
C635 C151 2.276 . S
C657 C564 2.086 . S
C653 C183 2.252 . S
C675 C319 2.170 1_565 S
C671 C87 2.041 . S
C689 C119 2.056 . S
C693 C403 2.181 . S
C707 C23 2.144 . S
C711 C491 2.107 . S
C725 C55 2.132 . S
C729 C575 2.086 . S
C747 C326 0.630 . S
C743 C189 0.634 . S
C765 C410 0.601 . S
C761 C221 0.575 . S
C783 C482 0.560 . S
C779 C253 0.537 . S
C797 C157 0.589 . S
C801 C566 0.596 . S
C815 C61 0.717 . S
C819 C314 0.624 . S
C837 C398 0.579 . S
C833 C93 0.682 . S
C855 C494 0.583 . S
C851 C125 0.637 . S
C869 C29 0.666 . S
C873 C578 0.621 . S
C887 C177 2.518 . S
C891 C323 2.567 . S
C905 C209 2.479 . S
C909 C407 2.532 . S
C927 C487 2.578 . S
C923 C241 2.365 . S
C945 C571 2.610 . S
C941 C145 2.401 . S
C959 C49 2.421 . S
C963 C312 2.572 . S
C981 C396 2.532 . S
C977 C81 2.400 . S
C999 C498 2.577 . S
C995 C113 2.270 . S
C1013 C17 2.311 . S
C1017 C582 2.606 . S
