# Generated by pormake.
# Topology csq, (4,8)-cn, num edge types: 1
# Building blocks:
#     Node 0, Type 0, BuildingBlock: NAWXER_clean_linker_0, # of connection points: 4
#     Node 1, Type 0, BuildingBlock: NAWXER_clean_linker_0, # of connection points: 4
#     Node 2, Type 0, BuildingBlock: NAWXER_clean_linker_0, # of connection points: 4
#     Node 3, Type 0, BuildingBlock: NAWXER_clean_linker_0, # of connection points: 4
#     Node 4, Type 0, BuildingBlock: NAWXER_clean_linker_0, # of connection points: 4
#     Node 5, Type 0, BuildingBlock: NAWXER_clean_linker_0, # of connection points: 4
#     Node 6, Type 1, BuildingBlock: TAGTUT_clean_sbu_3, # of connection points: 8
#     Node 7, Type 1, BuildingBlock: TAGTUT_clean_sbu_3, # of connection points: 8
#     Node 8, Type 1, BuildingBlock: TAGTUT_clean_sbu_3, # of connection points: 8
#     Edge 9, Type (0, 1), BuildingBlock: TEMPAE_clean_linker_10, # of connection points: 2
#     Edge 10, Type (0, 1), BuildingBlock: TEMPAE_clean_linker_10, # of connection points: 2
#     Edge 11, Type (0, 1), BuildingBlock: TEMPAE_clean_linker_10, # of connection points: 2
#     Edge 12, Type (0, 1), BuildingBlock: TEMPAE_clean_linker_10, # of connection points: 2
#     Edge 13, Type (0, 1), BuildingBlock: TEMPAE_clean_linker_10, # of connection points: 2
#     Edge 14, Type (0, 1), BuildingBlock: TEMPAE_clean_linker_10, # of connection points: 2
#     Edge 15, Type (0, 1), BuildingBlock: TEMPAE_clean_linker_10, # of connection points: 2
#     Edge 16, Type (0, 1), BuildingBlock: TEMPAE_clean_linker_10, # of connection points: 2
#     Edge 17, Type (0, 1), BuildingBlock: TEMPAE_clean_linker_10, # of connection points: 2
#     Edge 18, Type (0, 1), BuildingBlock: TEMPAE_clean_linker_10, # of connection points: 2
#     Edge 19, Type (0, 1), BuildingBlock: TEMPAE_clean_linker_10, # of connection points: 2
#     Edge 20, Type (0, 1), BuildingBlock: TEMPAE_clean_linker_10, # of connection points: 2
#     Edge 21, Type (0, 1), BuildingBlock: TEMPAE_clean_linker_10, # of connection points: 2
#     Edge 22, Type (0, 1), BuildingBlock: TEMPAE_clean_linker_10, # of connection points: 2
#     Edge 23, Type (0, 1), BuildingBlock: TEMPAE_clean_linker_10, # of connection points: 2
#     Edge 24, Type (0, 1), BuildingBlock: TEMPAE_clean_linker_10, # of connection points: 2
#     Edge 25, Type (0, 1), BuildingBlock: TEMPAE_clean_linker_10, # of connection points: 2
#     Edge 26, Type (0, 1), BuildingBlock: TEMPAE_clean_linker_10, # of connection points: 2
#     Edge 27, Type (0, 1), BuildingBlock: TEMPAE_clean_linker_10, # of connection points: 2
#     Edge 28, Type (0, 1), BuildingBlock: TEMPAE_clean_linker_10, # of connection points: 2
#     Edge 29, Type (0, 1), BuildingBlock: TEMPAE_clean_linker_10, # of connection points: 2
#     Edge 30, Type (0, 1), BuildingBlock: TEMPAE_clean_linker_10, # of connection points: 2
#     Edge 31, Type (0, 1), BuildingBlock: TEMPAE_clean_linker_10, # of connection points: 2
#     Edge 32, Type (0, 1), BuildingBlock: TEMPAE_clean_linker_10, # of connection points: 2
# Relax obj value: 0.028
# Max RMSD: 0.110
# Mean RMSD: 0.042
data_MOF--net-csq--node1-TAGTUT_clean_sbu_3--node2-NAWXER_clean_linker_0--edge1-TEMPAE_clean_linker_10
_symmetry_space_group_name_H-M    P1
_symmetry_Int_Tables_number       1
_symmetry_cell_setting            triclinic
loop_
_symmetry_equiv_pos_as_xyz
'x, y, z'
_cell_length_a     62.563404
_cell_length_b     61.75138
_cell_length_c     22.063075
_cell_angle_alpha  91.939511
_cell_angle_beta   92.560684
_cell_angle_gamma 120.01907
loop_
_atom_site_label
_atom_site_type_symbol
_atom_site_fract_x
_atom_site_fract_y
_atom_site_fract_z
_atom_type_partial_charge
C0 C 0.32023 0.50543 0.05551 0.0
C1 C 0.31787 0.48462 0.02157 0.0
C2 C 0.29996 0.50382 0.08342 0.0
C3 C 0.27703 0.48144 0.07758 0.0
C4 C 0.29455 0.46271 0.01288 0.0
C5 C 0.27417 0.46123 0.04018 0.0
C6 C 0.25727 0.47819 0.1168 0.0
C7 C 0.31376 0.46971 0.21948 0.0
C8 C 0.32812 0.48887 0.26462 0.0
C9 C 0.29148 0.46663 0.19502 0.0
C10 C 0.28368 0.48353 0.21208 0.0
C11 C 0.31957 0.50502 0.28408 0.0
C12 C 0.29759 0.50245 0.25772 0.0
C13 C 0.26134 0.48157 0.18069 0.0
C14 C 0.16196 0.4601 0.26196 0.0
C15 C 0.16919 0.48198 0.29905 0.0
C16 C 0.17898 0.45805 0.22682 0.0
C17 C 0.20348 0.47796 0.22753 0.0
C18 C 0.19394 0.50154 0.30107 0.0
C19 C 0.21093 0.49949 0.26583 0.0
C20 C 0.22144 0.47684 0.18806 0.0
C21 C 0.16198 0.47585 0.06213 0.0
C22 C 0.1489 0.45342 0.02535 0.0
C23 C 0.18394 0.48167 0.09509 0.0
C24 C 0.19303 0.46504 0.09204 0.0
C25 C 0.15794 0.43671 0.02285 0.0
C26 C 0.17997 0.4426 0.05562 0.0
C27 C 0.21667 0.47133 0.12446 0.0
H28 H 0.33799 0.52252 0.06271 0.0
H29 H 0.30245 0.51966 0.11194 0.0
H30 H 0.29225 0.44657 0.98605 0.0
H31 H 0.25661 0.44383 0.03523 0.0
H32 H 0.31967 0.45704 0.20251 0.0
H33 H 0.28054 0.45117 0.16176 0.0
H34 H 0.32969 0.51953 0.32002 0.0
H35 H 0.29167 0.51543 0.27232 0.0
H36 H 0.14316 0.44449 0.26042 0.0
H37 H 0.17297 0.44097 0.19885 0.0
H38 H 0.20006 0.51868 0.32888 0.0
H39 H 0.22977 0.51502 0.26728 0.0
H40 H 0.1553 0.48898 0.06502 0.0
H41 H 0.19398 0.49927 0.12223 0.0
H42 H 0.14834 0.41946 0.99429 0.0
H43 H 0.18687 0.42966 0.05248 0.0
N44 N 0.23487 0.47251 0.09096 0.0
N45 N 0.24358 0.48149 0.21407 0.0
C46 C 0.68759 0.17553 0.1991 0.0
C47 C 0.69491 0.15918 0.2225 0.0
C48 C 0.70452 0.19709 0.17215 0.0
C49 C 0.72907 0.20269 0.16827 0.0
C50 C 0.71965 0.1651 0.21978 0.0
C51 C 0.73669 0.18688 0.19339 0.0
C52 C 0.74633 0.22433 0.13515 0.0
C53 C 0.69299 0.16352 0.00186 0.0
C54 C 0.67811 0.17 0.96666 0.0
C55 C 0.71396 0.18205 0.03562 0.0
C56 C 0.71981 0.2072 0.03613 0.0
C57 C 0.68436 0.19514 0.9651 0.0
C58 C 0.70509 0.21366 0.99988 0.0
C59 C 0.74137 0.22688 0.0737 0.0
C60 C 0.83392 0.3216 0.01514 0.0
C61 C 0.82294 0.32821 0.96751 0.0
C62 C 0.81943 0.30221 0.0518 0.0
C63 C 0.79347 0.28962 0.04386 0.0
C64 C 0.79695 0.31552 0.95953 0.0
C65 C 0.78247 0.29667 0.99744 0.0
C66 C 0.77749 0.26745 0.07834 0.0
C67 C 0.82028 0.32528 0.23539 0.0
C68 C 0.83909 0.32186 0.26272 0.0
C69 C 0.80226 0.30702 0.19387 0.0
C70 C 0.80244 0.28484 0.17984 0.0
C71 C 0.83921 0.29958 0.24772 0.0
C72 C 0.82079 0.28107 0.20745 0.0
C73 C 0.78242 0.26475 0.14007 0.0
H74 H 0.66862 0.17136 0.20045 0.0
H75 H 0.69835 0.20918 0.15333 0.0
H76 H 0.72579 0.15292 0.23814 0.0
H77 H 0.7556 0.19097 0.19084 0.0
H78 H 0.68862 0.14419 0.00224 0.0
H79 H 0.72561 0.17672 0.0611 0.0
H80 H 0.67314 0.20036 0.9373 0.0
H81 H 0.70948 0.23299 0.99903 0.0
H82 H 0.85382 0.3311 0.02383 0.0
H83 H 0.82878 0.29665 0.08468 0.0
H84 H 0.78763 0.31952 0.92286 0.0
H85 H 0.76252 0.28716 0.98939 0.0
H86 H 0.81916 0.34186 0.2467 0.0
H87 H 0.78784 0.30993 0.17381 0.0
H88 H 0.85362 0.29643 0.26662 0.0
H89 H 0.82103 0.2639 0.19724 0.0
N90 N 0.76675 0.24328 0.16603 0.0
N91 N 0.75702 0.2483 0.04781 0.0
C92 C 0.56146 0.71084 0.9319 0.0
C93 C 0.54517 0.70335 0.87949 0.0
C94 C 0.55955 0.72503 0.97967 0.0
C95 C 0.54121 0.73177 0.97592 0.0
C96 C 0.52689 0.71017 0.87579 0.0
C97 C 0.52499 0.72432 0.9235 0.0
C98 C 0.54084 0.74932 0.02214 0.0
C99 C 0.51852 0.68196 0.13406 0.0
C100 C 0.53556 0.68547 0.18245 0.0
C101 C 0.52214 0.70204 0.09976 0.0
C102 C 0.54273 0.72606 0.11373 0.0
C103 C 0.55661 0.7093 0.1949 0.0
C104 C 0.55998 0.72946 0.16134 0.0
C105 C 0.54428 0.74815 0.08531 0.0
C106 C 0.52091 0.8183 0.20603 0.0
C107 C 0.5408 0.83024 0.25019 0.0
C108 C 0.52265 0.80544 0.15496 0.0
C109 C 0.5442 0.80423 0.14811 0.0
C110 C 0.5627 0.82989 0.24215 0.0
C111 C 0.56427 0.81664 0.19172 0.0
C112 C 0.54423 0.78651 0.10221 0.0
C113 C 0.55145 0.84969 0.98668 0.0
C114 C 0.53236 0.84196 0.94042 0.0
C115 C 0.55322 0.83204 0.0217 0.0
C116 C 0.53596 0.80639 0.01078 0.0
C117 C 0.51479 0.81634 0.93096 0.0
C118 C 0.51666 0.79879 0.9655 0.0
C119 C 0.53951 0.78697 0.03934 0.0
H120 H 0.5755 0.70552 0.93623 0.0
H121 H 0.57283 0.73126 0.01868 0.0
H122 H 0.51417 0.7047 0.83581 0.0
H123 H 0.51096 0.72968 0.9192 0.0
H124 H 0.50219 0.66376 0.12345 0.0
H125 H 0.50825 0.69905 0.06421 0.0
H126 H 0.56993 0.71256 0.23224 0.0
H127 H 0.57579 0.74788 0.17351 0.0
H128 H 0.50394 0.8186 0.21163 0.0
H129 H 0.50677 0.79546 0.12248 0.0
H130 H 0.57822 0.83915 0.27585 0.0
H131 H 0.58087 0.81549 0.18751 0.0
H132 H 0.56516 0.86935 0.99531 0.0
H133 H 0.56861 0.83835 0.05539 0.0
H134 H 0.50002 0.80973 0.89535 0.0
H135 H 0.50328 0.77908 0.95575 0.0
N136 N 0.53833 0.76849 0.0019 0.0
N137 N 0.54619 0.76703 0.12277 0.0
C138 C 0.85968 0.5692 0.9363 0.0
C139 C 0.85079 0.54759 0.89725 0.0
C140 C 0.84376 0.57226 0.97317 0.0
C141 C 0.81879 0.55346 0.97279 0.0
C142 C 0.82543 0.52965 0.89347 0.0
C143 C 0.80951 0.53256 0.93116 0.0
C144 C 0.80314 0.55454 0.01972 0.0
C145 C 0.85486 0.53414 0.10967 0.0
C146 C 0.87567 0.55546 0.13755 0.0
C147 C 0.8336 0.53497 0.09261 0.0
C148 C 0.83279 0.55705 0.1037 0.0
C149 C 0.87488 0.57759 0.14856 0.0
C150 C 0.85342 0.5783 0.13225 0.0
C151 C 0.81074 0.55801 0.08208 0.0
C152 C 0.71777 0.53673 0.19856 0.0
C153 C 0.72609 0.5579 0.23871 0.0
C154 C 0.73355 0.5356 0.15751 0.0
C155 C 0.75762 0.55598 0.15482 0.0
C156 C 0.75062 0.57759 0.23893 0.0
C157 C 0.76634 0.57662 0.19714 0.0
C158 C 0.77335 0.55623 0.1066 0.0
C159 C 0.70705 0.55615 0.02102 0.0
C160 C 0.69256 0.53543 0.97958 0.0
C161 C 0.73102 0.56217 0.04085 0.0
C162 C 0.74064 0.54708 0.02122 0.0
C163 C 0.70267 0.52094 0.95855 0.0
C164 C 0.72639 0.52666 0.9793 0.0
C165 C 0.76535 0.55202 0.04401 0.0
H166 H 0.87907 0.58353 0.93902 0.0
H167 H 0.85116 0.58888 0.00375 0.0
H168 H 0.81816 0.51289 0.86341 0.0
H169 H 0.79027 0.51792 0.92998 0.0
H170 H 0.85509 0.51687 0.10122 0.0
H171 H 0.81777 0.51841 0.07052 0.0
H172 H 0.89067 0.5941 0.17097 0.0
H173 H 0.85304 0.59549 0.14079 0.0
H174 H 0.69892 0.52128 0.1983 0.0
H175 H 0.72668 0.51918 0.12642 0.0
H176 H 0.75729 0.59402 0.26989 0.0
H177 H 0.78497 0.59238 0.19626 0.0
H178 H 0.69991 0.56774 0.0382 0.0
H179 H 0.74194 0.57848 0.07186 0.0
H180 H 0.69246 0.50537 0.9251 0.0
H181 H 0.73352 0.51494 0.96292 0.0
N182 N 0.78057 0.55129 0.00286 0.0
N183 N 0.7958 0.55905 0.1234 0.0
C184 C 0.2756 0.87792 0.00012 0.0
C185 C 0.27805 0.86998 0.94164 0.0
C186 C 0.26081 0.86042 0.04048 0.0
C187 C 0.24852 0.83465 0.02341 0.0
C188 C 0.26459 0.8443 0.92359 0.0
C189 C 0.25001 0.82684 0.96401 0.0
C190 C 0.23396 0.81554 0.06638 0.0
C191 C 0.31176 0.85048 0.15055 0.0
C192 C 0.31594 0.86563 0.20356 0.0
C193 C 0.28772 0.83511 0.12463 0.0
C194 C 0.26756 0.83453 0.15173 0.0
C195 C 0.29578 0.86539 0.22993 0.0
C196 C 0.2717 0.84969 0.20457 0.0
C197 C 0.24214 0.81653 0.12749 0.0
C198 C 0.18902 0.72206 0.23499 0.0
C199 C 0.17108 0.7223 0.27071 0.0
C200 C 0.19961 0.7395 0.19093 0.0
C201 C 0.19257 0.75753 0.18232 0.0
C202 C 0.16397 0.7403 0.26166 0.0
C203 C 0.17494 0.75804 0.21846 0.0
C204 C 0.20574 0.77757 0.14092 0.0
C205 C 0.13628 0.7178 0.02981 0.0
C206 C 0.14153 0.71123 0.97315 0.0
C207 C 0.15464 0.73863 0.06541 0.0
C208 C 0.17859 0.75256 0.04533 0.0
C209 C 0.16532 0.72514 0.95314 0.0
C210 C 0.18368 0.74546 0.98897 0.0
C211 C 0.19846 0.77563 0.07852 0.0
H212 H 0.28577 0.89757 0.01549 0.0
H213 H 0.25928 0.86705 0.08523 0.0
H214 H 0.26571 0.83762 0.87846 0.0
H215 H 0.24042 0.80712 0.94926 0.0
H216 H 0.32704 0.85031 0.12973 0.0
H217 H 0.28479 0.82314 0.08437 0.0
H218 H 0.29859 0.87668 0.27139 0.0
H219 H 0.25631 0.84921 0.22641 0.0
H220 H 0.19471 0.70829 0.24099 0.0
H221 H 0.2136 0.73921 0.16424 0.0
H222 H 0.15031 0.74097 0.28894 0.0
H223 H 0.16974 0.77222 0.21334 0.0
H224 H 0.11788 0.70721 0.04569 0.0
H225 H 0.14983 0.74417 0.10725 0.0
H226 H 0.16976 0.72014 0.90982 0.0
H227 H 0.20195 0.7558 0.97223 0.0
N228 N 0.21267 0.79496 0.0443 0.0
N229 N 0.22752 0.7978 0.16282 0.0
C230 C 0.48772 0.17647 0.05439 0.0
C231 C 0.47324 0.16266 0.00165 0.0
C232 C 0.47938 0.18853 0.09319 0.0
C233 C 0.45646 0.18692 0.07969 0.0
C234 C 0.45011 0.1607 0.98883 0.0
C235 C 0.4419 0.17296 0.02731 0.0
C236 C 0.44947 0.20273 0.11501 0.0
C237 C 0.4438 0.14453 0.24138 0.0
C238 C 0.45962 0.15409 0.29481 0.0
C239 C 0.44082 0.16062 0.20322 0.0
C240 C 0.45374 0.18662 0.2175 0.0
C241 C 0.47228 0.18007 0.3093 0.0
C242 C 0.46929 0.19611 0.27122 0.0
C243 C 0.45027 0.20405 0.17909 0.0
C244 C 0.4278 0.28524 0.24618 0.0
C245 C 0.44631 0.29704 0.2939 0.0
C246 C 0.42784 0.26718 0.20617 0.0
C247 C 0.4463 0.26072 0.21399 0.0
C248 C 0.46473 0.29055 0.30121 0.0
C249 C 0.46466 0.27251 0.26179 0.0
C250 C 0.44571 0.24013 0.17718 0.0
C251 C 0.46727 0.29888 0.03587 0.0
C252 C 0.44866 0.2921 0.98906 0.0
C253 C 0.46495 0.28186 0.07895 0.0
C254 C 0.44414 0.25764 0.07533 0.0
C255 C 0.42741 0.26823 0.98682 0.0
C256 C 0.42536 0.25099 0.02911 0.0
C257 C 0.44397 0.23825 0.1131 0.0
H258 H 0.50555 0.17812 0.06525 0.0
H259 H 0.49125 0.19985 0.13247 0.0
H260 H 0.43873 0.15031 0.94807 0.0
H261 H 0.4244 0.17195 0.01562 0.0
H262 H 0.43392 0.12462 0.22868 0.0
H263 H 0.42818 0.15268 0.16303 0.0
H264 H 0.48435 0.188 0.35045 0.0
H265 H 0.47929 0.21605 0.2837 0.0
H266 H 0.41351 0.29013 0.23963 0.0
H267 H 0.41321 0.25788 0.17028 0.0
H268 H 0.47909 0.29928 0.33791 0.0
H269 H 0.47895 0.26762 0.2689 0.0
H270 H 0.48378 0.31724 0.03847 0.0
H271 H 0.47992 0.28719 0.11339 0.0
H272 H 0.41288 0.26262 0.95098 0.0
H273 H 0.40938 0.23225 0.02491 0.0
N274 N 0.446 0.21962 0.08452 0.0
N275 N 0.44853 0.22285 0.20748 0.0
C276 C 0.04223 0.48846 0.55418 0.0
C277 C 0.01661 0.45449 0.77173 0.0
C278 C 0.95069 0.45659 0.72474 0.0
Mg279 Mg 0.02657 0.52255 0.477 0.0
Mg280 Mg 0.01448 0.56239 0.54891 0.0
O281 O 0.00616 0.52888 0.53533 0.0
Mg282 Mg 0.00977 0.51168 0.60634 0.0
O283 O 0.01347 0.49254 0.67307 0.0
Mg284 Mg 0.99375 0.45755 0.63368 0.0
Mg285 Mg 0.00436 0.49672 0.75008 0.0
C286 C 0.97796 0.5374 0.65354 0.0
O287 O 0.03717 0.54817 0.66287 0.0
O288 O 0.01073 0.53852 0.40479 0.0
O289 O 0.0244 0.53723 0.75723 0.0
O290 O 0.06036 0.56237 0.49387 0.0
O291 O 0.00267 0.56504 0.45835 0.0
O292 O 0.054 0.58696 0.55736 0.0
O293 O 0.98172 0.47455 0.55704 0.0
O294 O 0.99302 0.48292 0.46207 0.0
C295 C 0.97924 0.46788 0.50049 0.0
C296 C 0.00285 0.55418 0.40793 0.0
O297 O 0.9804 0.5179 0.65036 0.0
O298 O 0.00912 0.44574 0.71631 0.0
O299 O 0.99076 0.55674 0.62333 0.0
O300 O 0.95819 0.44701 0.68447 0.0
O301 O 0.01659 0.47397 0.79375 0.0
O302 O 0.96529 0.47785 0.75197 0.0
O303 O 0.03899 0.50738 0.55763 0.0
O304 O 0.02853 0.46861 0.58159 0.0
C305 C 0.06815 0.58336 0.52375 0.0
C306 C 0.0369 0.5536 0.71955 0.0
C307 C 0.49448 0.03041 0.49582 0.0
C308 C 0.56771 0.01627 0.43839 0.0
C309 C 0.52346 0.94513 0.52066 0.0
Mg310 Mg 0.46021 0.01015 0.61043 0.0
Mg311 Mg 0.4807 0.99672 0.73379 0.0
O312 O 0.47291 0.98947 0.65024 0.0
Mg313 Mg 0.50119 0.99746 0.5993 0.0
O314 O 0.5281 0.00568 0.54408 0.0
Mg315 Mg 0.50738 0.98637 0.4683 0.0
Mg316 Mg 0.55338 -0.00079 0.56926 0.0
C317 C 0.50731 0.96547 0.70971 0.0
O318 O 0.53094 0.02646 0.66841 0.0
O319 O 0.4278 0.99211 0.67491 0.0
O320 O 0.5632 0.02022 0.65696 0.0
O321 O 0.48132 0.04434 0.67979 0.0
O322 O 0.44381 0.98396 0.75873 0.0
O323 O 0.50148 0.036 0.75238 0.0
O324 O 0.47338 0.96949 0.52655 0.0
O325 O 0.44199 0.97653 0.54075 0.0
C326 C 0.45132 0.96497 0.51282 0.0
C327 C 0.4258 0.98389 0.72845 0.0
O328 O 0.50753 0.96863 0.65218 0.0
O329 O 0.54462 0.00648 0.42084 0.0
O330 O 0.4994 0.97579 0.74706 0.0
O331 O 0.5127 0.953 0.48456 0.0
O332 O 0.57498 0.01542 0.49309 0.0
O333 O 0.53926 0.95952 0.56303 0.0
O334 O 0.49385 0.02575 0.55217 0.0
O335 O 0.50077 0.01912 0.45694 0.0
C336 C 0.49646 0.05122 0.72684 0.0
C337 C 0.55267 0.03057 0.68487 0.0
C338 C 0.52765 0.55128 0.69808 0.0
C339 C 0.44855 0.47765 0.79038 0.0
C340 C 0.47768 0.43224 0.72607 0.0
Mg341 Mg 0.55543 0.54876 0.58027 0.0
Mg342 Mg 0.52568 0.50612 0.4688 0.0
O343 O 0.53471 0.51236 0.55204 0.0
Mg344 Mg 0.50854 0.50103 0.61153 0.0
O345 O 0.48421 0.4914 0.67501 0.0
Mg346 Mg 0.50595 0.49571 0.74937 0.0
Mg347 Mg 0.45554 0.45982 0.66234 0.0
C348 C 0.48854 0.45264 0.51608 0.0
O349 O 0.47905 0.50024 0.54499 0.0
O350 O 0.5839 0.55048 0.51276 0.0
O351 O 0.44429 0.46674 0.57385 0.0
O352 O 0.53844 0.56282 0.50597 0.0
O353 O 0.56242 0.51851 0.4421 0.0
O354 O 0.51456 0.53165 0.43746 0.0
O355 O 0.53575 0.50088 0.68295 0.0
O356 O 0.57044 0.53384 0.65477 0.0
C357 C 0.55916 0.51591 0.68985 0.0
C358 C 0.58283 0.53701 0.4656 0.0
O359 O 0.49305 0.46057 0.57242 0.0
O360 O 0.47213 0.48974 0.80383 0.0
O361 O 0.49771 0.46711 0.47238 0.0
O362 O 0.49233 0.4537 0.75287 0.0
O363 O 0.43894 0.46515 0.73935 0.0
O364 O 0.46282 0.4298 0.68133 0.0
O365 O 0.52456 0.54174 0.64382 0.0
O366 O 0.52044 0.53747 0.74337 0.0
C367 C 0.52362 0.55426 0.45811 0.0
C368 C 0.45572 0.48446 0.53814 0.0
C369 C 0.12708 0.47652 0.30976 0.0
C370 C 0.15098 0.48442 0.33534 0.0
C371 C 0.10954 0.47832 0.34379 0.0
C372 C 0.11606 0.48823 0.4049 0.0
C373 C 0.14027 0.49663 0.43069 0.0
C374 C 0.15743 0.49461 0.3956 0.0
C375 C 0.08393 0.46926 0.31465 0.0
C376 C 0.14787 0.50721 0.49578 0.0
C377 C 0.07603 0.50953 0.48285 0.0
C378 C 0.06124 0.48872 0.51583 0.0
C379 C 0.09391 0.50964 0.44627 0.0
C380 C 0.09714 0.48852 0.4429 0.0
C381 C 0.0823 0.46751 0.47608 0.0
C382 C 0.06456 0.46787 0.51204 0.0
C383 C 0.10943 0.53238 0.41148 0.0
C384 C 0.08517 0.44462 0.47365 0.0
H385 H 0.12211 0.46902 0.26289 0.0
H386 H 0.17578 0.50052 0.41583 0.0
H387 H 0.07006 0.45335 0.33899 0.0
H388 H 0.07931 0.4844 0.31832 0.0
H389 H 0.08214 0.46304 0.26592 0.0
H390 H 0.16774 0.51405 0.50805 0.0
H391 H 0.14431 0.52294 0.50358 0.0
H392 H 0.1366 0.49259 0.52689 0.0
H393 H 0.07366 0.52574 0.48551 0.0
H394 H 0.05328 0.45168 0.5373 0.0
H395 H 0.10809 0.52683 0.36249 0.0
H396 H 0.12917 0.54107 0.42813 0.0
H397 H 0.1037 0.54668 0.41623 0.0
H398 H 0.08187 0.43663 0.42609 0.0
H399 H 0.07217 0.42983 0.50222 0.0
H400 H 0.10435 0.44991 0.48936 0.0
C401 C 0.67422 0.11281 0.2322 0.0
C402 C 0.67664 0.13602 0.24966 0.0
C403 C 0.6565 0.0907 0.25674 0.0
C404 C 0.64117 0.09201 0.30029 0.0
C405 C 0.64367 0.11546 0.31819 0.0
C406 C 0.66128 0.13715 0.29238 0.0
C407 C 0.65414 0.066 0.23606 0.0
C408 C 0.62793 0.11772 0.36518 0.0
C409 C 0.58012 0.03721 0.34011 0.0
C410 C 0.58683 0.03187 0.39682 0.0
C411 C 0.59795 0.05567 0.3059 0.0
C412 C 0.623 0.06915 0.32917 0.0
C413 C 0.63012 0.06258 0.38413 0.0
C414 C 0.61199 0.04394 0.41707 0.0
C415 C 0.58973 0.06186 0.24685 0.0
C416 C 0.65663 0.07649 0.41055 0.0
H417 H 0.68593 0.11191 0.1986 0.0
H418 H 0.6633 0.15513 0.30625 0.0
H419 H 0.65795 0.05738 0.27532 0.0
H420 H 0.63492 0.05279 0.21746 0.0
H421 H 0.66704 0.06812 0.20073 0.0
H422 H 0.63214 0.13733 0.37386 0.0
H423 H 0.60804 0.1059 0.34999 0.0
H424 H 0.63095 0.1108 0.40867 0.0
H425 H 0.56079 0.02788 0.32371 0.0
H426 H 0.6175 0.03981 0.46045 0.0
H427 H 0.6023 0.06366 0.211 0.0
H428 H 0.59051 0.08015 0.25327 0.0
H429 H 0.57052 0.04742 0.23071 0.0
H430 H 0.66939 0.07789 0.37561 0.0
H431 H 0.65959 0.06731 0.44993 0.0
H432 H 0.66171 0.09588 0.42593 0.0
C433 C 0.54953 0.6589 0.23479 0.0
C434 C 0.53094 0.66473 0.22179 0.0
C435 C 0.54577 0.63997 0.27375 0.0
C436 C 0.52303 0.62688 0.3014 0.0
C437 C 0.50415 0.63268 0.28836 0.0
C438 C 0.50826 0.6514 0.24823 0.0
C439 C 0.5662 0.63404 0.28549 0.0
C440 C 0.47987 0.61951 0.3178 0.0
C441 C 0.50931 0.56456 0.36114 0.0
C442 C 0.51943 0.57172 0.42148 0.0
C443 C 0.50931 0.58208 0.32219 0.0
C444 C 0.51932 0.60732 0.34429 0.0
C445 C 0.5278 0.61424 0.40635 0.0
C446 C 0.52794 0.59641 0.44407 0.0
C447 C 0.50011 0.57387 0.25638 0.0
C448 C 0.53794 0.64078 0.4322 0.0
H449 H 0.56701 0.6691 0.2141 0.0
H450 H 0.49397 0.65611 0.23878 0.0
H451 H 0.57252 0.6378 0.33446 0.0
H452 H 0.55917 0.61385 0.27396 0.0
H453 H 0.58238 0.64526 0.25867 0.0
H454 H 0.46688 0.6258 0.30185 0.0
H455 H 0.47084 0.59895 0.30812 0.0
H456 H 0.48327 0.62313 0.3679 0.0
H457 H 0.50258 0.54553 0.34316 0.0
H458 H 0.53552 0.60206 0.49076 0.0
H459 H 0.51604 0.58233 0.22745 0.0
H460 H 0.48731 0.58052 0.24173 0.0
H461 H 0.49042 0.55317 0.24801 0.0
H462 H 0.55623 0.6531 0.4144 0.0
H463 H 0.5403 0.64227 0.48264 0.0
H464 H 0.52553 0.64797 0.41795 0.0
C465 C 0.92114 0.57131 0.14416 0.0
C466 C 0.89737 0.55397 0.16007 0.0
C467 C 0.94202 0.57167 0.17141 0.0
C468 C 0.93886 0.55489 0.2169 0.0
C469 C 0.91474 0.53641 0.23033 0.0
C470 C 0.89425 0.53604 0.20118 0.0
C471 C 0.9674 0.59093 0.15413 0.0
C472 C 0.91052 0.51835 0.27912 0.0
C473 C 0.98677 0.54395 0.29817 0.0
C474 C 0.99118 0.55823 0.35298 0.0
C475 C 0.9715 0.54444 0.25019 0.0
C476 C 0.96014 0.55913 0.25807 0.0
C477 C 0.96631 0.57519 0.3111 0.0
C478 C 0.98198 0.57475 0.35752 0.0
C479 C 0.96617 0.52791 0.19307 0.0
C480 C 0.95459 0.59116 0.32147 0.0
H481 H 0.9234 0.58492 0.11153 0.0
H482 H 0.87578 0.52268 0.2133 0.0
H483 H 0.97557 0.60718 0.18805 0.0
H484 H 0.97996 0.58309 0.15371 0.0
H485 H 0.96657 0.59785 0.10875 0.0
H486 H 0.89065 0.50405 0.28081 0.0
H487 H 0.92106 0.50858 0.2714 0.0
H488 H 0.91731 0.52888 0.32415 0.0
H489 H 0.99417 0.53146 0.29374 0.0
H490 H 0.98572 0.58632 0.39907 0.0
H491 H 0.96484 0.53732 0.15227 0.0
H492 H 0.94816 0.5104 0.19526 0.0
H493 H 0.98066 0.52275 0.18761 0.0
H494 H 0.95675 0.60263 0.28218 0.0
H495 H 0.96274 0.60392 0.36318 0.0
H496 H 0.93445 0.57888 0.32596 0.0
C497 C 0.35053 0.90571 0.25161 0.0
C498 C 0.34096 0.88037 0.23425 0.0
C499 C 0.37233 0.9189 0.2894 0.0
C500 C 0.38445 0.90621 0.31121 0.0
C501 C 0.37582 0.88111 0.29014 0.0
C502 C 0.35415 0.86847 0.25148 0.0
C503 C 0.38125 0.94584 0.30985 0.0
C504 C 0.38817 0.86693 0.31251 0.0
C505 C 0.44481 0.94742 0.40576 0.0
C506 C 0.4359 0.94654 0.46322 0.0
C507 C 0.42848 0.93325 0.35551 0.0
C508 C 0.40296 0.91776 0.36388 0.0
C509 C 0.39442 0.91541 0.42298 0.0
C510 C 0.41098 0.93008 0.4718 0.0
C511 C 0.43822 0.93633 0.29318 0.0
C512 C 0.36746 0.89867 0.4342 0.0
H513 H 0.34042 0.91493 0.23747 0.0
H514 H 0.34665 0.84881 0.238 0.0
H515 H 0.37716 0.9469 0.35794 0.0
H516 H 0.40157 0.95748 0.30738 0.0
H517 H 0.37212 0.95399 0.28195 0.0
H518 H 0.38221 0.84949 0.28369 0.0
H519 H 0.40861 0.87875 0.31359 0.0
H520 H 0.38324 0.86175 0.35965 0.0
H521 H 0.46412 0.96037 0.39933 0.0
H522 H 0.40426 0.92939 0.51659 0.0
H523 H 0.43322 0.94862 0.26804 0.0
H524 H 0.42978 0.91804 0.26658 0.0
H525 H 0.45868 0.94498 0.29571 0.0
H526 H 0.3564 0.90648 0.41398 0.0
H527 H 0.36443 0.8969 0.48345 0.0
H528 H 0.36031 0.87967 0.41214 0.0
C529 C 0.46958 0.33951 0.34537 0.0
C530 C 0.4473 0.31682 0.33516 0.0
C531 C 0.47142 0.35865 0.38457 0.0
C532 C 0.4504 0.35494 0.41464 0.0
C533 C 0.42794 0.33179 0.40576 0.0
C534 C 0.42656 0.313 0.36534 0.0
C535 C 0.49571 0.38317 0.39215 0.0
C536 C 0.40523 0.32704 0.43739 0.0
C537 C 0.47313 0.40765 0.53443 0.0
C538 C 0.47252 0.42579 0.49921 0.0
C539 C 0.46285 0.38287 0.51016 0.0
C540 C 0.45193 0.37655 0.44982 0.0
C541 C 0.44827 0.39403 0.41793 0.0
C542 C 0.45871 0.41854 0.44306 0.0
C543 C 0.46611 0.36428 0.54626 0.0
C544 C 0.43621 0.3879 0.35407 0.0
H545 H 0.48554 0.34245 0.3216 0.0
H546 H 0.40939 0.29527 0.35777 0.0
H547 H 0.49315 0.3985 0.37518 0.0
H548 H 0.50219 0.38797 0.44094 0.0
H549 H 0.51044 0.38256 0.36713 0.0
H550 H 0.39216 0.30666 0.43984 0.0
H551 H 0.41018 0.33611 0.48411 0.0
H552 H 0.39546 0.33503 0.41157 0.0
H553 H 0.48337 0.4132 0.57852 0.0
H554 H 0.45752 0.43249 0.4168 0.0
H555 H 0.48134 0.36215 0.52865 0.0
H556 H 0.44904 0.3456 0.54124 0.0
H557 H 0.47077 0.37047 0.5953 0.0
H558 H 0.44927 0.38766 0.32198 0.0
H559 H 0.43111 0.40192 0.33991 0.0
H560 H 0.41934 0.36909 0.35009 0.0
C561 C 0.50799 0.85861 0.88691 0.0
C562 C 0.53087 0.86029 0.901 0.0
C563 C 0.50609 0.87557 0.84947 0.0
C564 C 0.5276 0.8947 0.8253 0.0
C565 C 0.55068 0.89617 0.83817 0.0
C566 C 0.55206 0.879 0.87613 0.0
C567 C 0.48115 0.87349 0.83745 0.0
C568 C 0.57398 0.91623 0.81307 0.0
C569 C 0.51502 0.92916 0.70111 0.0
C570 C 0.51598 0.94915 0.73566 0.0
C571 C 0.51995 0.91177 0.729 0.0
C572 C 0.52612 0.91467 0.79258 0.0
C573 C 0.52859 0.93571 0.82664 0.0
C574 C 0.52353 0.95264 0.79781 0.0
C575 C 0.51755 0.88977 0.69106 0.0
C576 C 0.53523 0.93965 0.8944 0.0
H577 H 0.49158 0.84431 0.90631 0.0
H578 H 0.56973 0.88011 0.88603 0.0
H579 H 0.48152 0.89028 0.85843 0.0
H580 H 0.47689 0.87287 0.78786 0.0
H581 H 0.46599 0.85655 0.85609 0.0
H582 H 0.59 0.91344 0.82269 0.0
H583 H 0.57109 0.9165 0.7632 0.0
H584 H 0.57865 0.93488 0.83341 0.0
H585 H 0.50929 0.92643 0.65305 0.0
H586 H 0.52481 0.96833 0.82464 0.0
H587 H 0.50311 0.87198 0.70818 0.0
H588 H 0.53522 0.88964 0.69499 0.0
H589 H 0.51263 0.89021 0.64229 0.0
H590 H 0.52007 0.92454 0.91795 0.0
H591 H 0.53832 0.95798 0.91327 0.0
H592 H 0.55221 0.93866 0.90502 0.0
C593 C 0.64897 0.50492 0.93962 0.0
C594 C 0.66772 0.5298 0.95462 0.0
C595 C 0.62738 0.49953 0.90487 0.0
C596 C 0.62429 0.51949 0.88594 0.0
C597 C 0.6418 0.54444 0.90672 0.0
C598 C 0.66348 0.54934 0.9402 0.0
C599 C 0.60908 0.47267 0.88378 0.0
C600 C 0.63878 0.5662 0.88885 0.0
C601 C 0.59728 0.51692 0.72803 0.0
C602 C 0.57393 0.51324 0.73936 0.0
C603 C 0.61322 0.5175 0.77524 0.0
C604 C 0.60581 0.51502 0.83553 0.0
C605 C 0.5818 0.5103 0.84699 0.0
C606 C 0.56594 0.5092 0.79833 0.0
C607 C 0.63842 0.52189 0.76077 0.0
C608 C 0.57342 0.50796 0.91071 0.0
H609 H 0.6517 0.48964 0.95243 0.0
H610 H 0.67774 0.56864 0.95145 0.0
H611 H 0.58979 0.46864 0.88654 0.0
H612 H 0.61155 0.46943 0.83545 0.0
H613 H 0.61172 0.45923 0.91087 0.0
H614 H 0.65146 0.58365 0.91711 0.0
H615 H 0.64287 0.56969 0.84057 0.0
H616 H 0.61946 0.56188 0.8932 0.0
H617 H 0.60326 0.51979 0.68212 0.0
H618 H 0.54789 0.50655 0.80692 0.0
H619 H 0.64193 0.50771 0.78135 0.0
H620 H 0.65296 0.54061 0.78045 0.0
H621 H 0.64032 0.52104 0.71104 0.0
H622 H 0.57901 0.49639 0.93705 0.0
H623 H 0.55303 0.49961 0.91078 0.0
H624 H 0.58237 0.52686 0.93457 0.0
C625 C 0.1139 0.66541 0.95316 0.0
C626 C 0.12268 0.68963 0.93444 0.0
C627 C 0.09904 0.64451 0.91301 0.0
C628 C 0.09251 0.64812 0.85338 0.0
C629 C 0.10043 0.67261 0.83534 0.0
C630 C 0.11576 0.69317 0.87599 0.0
C631 C 0.09115 0.61865 0.9336 0.0
C632 C 0.09322 0.6771 0.77279 0.0
C633 C 0.0762 0.59414 0.73879 0.0
C634 C 0.05068 0.57976 0.74342 0.0
C635 C 0.09009 0.61723 0.77239 0.0
C636 C 0.07788 0.62612 0.80984 0.0
C637 C 0.0518 0.61251 0.81023 0.0
C638 C 0.03852 0.58923 0.77765 0.0
C639 C 0.11792 0.63114 0.77132 0.0
C640 C 0.03803 0.62177 0.84781 0.0
H641 H 0.11963 0.66288 0.99824 0.0
H642 H 0.12276 0.71207 0.86186 0.0
H643 H 0.07068 0.60693 0.92959 0.0
H644 H 0.09845 0.60935 0.90387 0.0
H645 H 0.09783 0.61913 0.98142 0.0
H646 H 0.09913 0.69714 0.76788 0.0
H647 H 0.1018 0.67115 0.73795 0.0
H648 H 0.07286 0.6657 0.76307 0.0
H649 H 0.08543 0.58658 0.71228 0.0
H650 H 0.01864 0.57801 0.78039 0.0
H651 H 0.12626 0.63057 0.81629 0.0
H652 H 0.12496 0.65112 0.76301 0.0
H653 H 0.12432 0.6229 0.7359 0.0
H654 H 0.04126 0.61984 0.89668 0.0
H655 H 0.01777 0.61104 0.83567 0.0
H656 H 0.04492 0.64192 0.8418 0.0
C657 C 0.50608 0.16397 0.93881 0.0
C658 C 0.48226 0.1505 0.95949 0.0
C659 C 0.51446 0.15263 0.89732 0.0
C660 C 0.49857 0.12729 0.87664 0.0
C661 C 0.47459 0.1136 0.89803 0.0
C662 C 0.46672 0.12543 0.93904 0.0
C663 C 0.53995 0.16788 0.87475 0.0
C664 C 0.45719 0.08637 0.87776 0.0
C665 C 0.49826 0.09251 0.73404 0.0
C666 C 0.50479 0.07582 0.75872 0.0
C667 C 0.49913 0.11191 0.77082 0.0
C668 C 0.50659 0.11441 0.83335 0.0
C669 C 0.51651 0.09992 0.85619 0.0
C670 C 0.5155 0.08073 0.81846 0.0
C671 C 0.48925 0.12766 0.74437 0.0
C672 C 0.52534 0.10254 0.92227 0.0
H673 H 0.51797 0.18351 0.9542 0.0
H674 H 0.4484 0.11502 0.95563 0.0
H675 H 0.54981 0.15714 0.87465 0.0
H676 H 0.53822 0.1724 0.82719 0.0
H677 H 0.55139 0.18575 0.90271 0.0
H678 H 0.43931 0.07843 0.89937 0.0
H679 H 0.4533 0.08435 0.8277 0.0
H680 H 0.46593 0.07506 0.88918 0.0
H681 H 0.49059 0.08924 0.68739 0.0
H682 H 0.52129 0.06836 0.83749 0.0
H683 H 0.50039 0.14741 0.76284 0.0
H684 H 0.46996 0.12038 0.75702 0.0
H685 H 0.48916 0.12715 0.69396 0.0
H686 H 0.53674 0.12257 0.93843 0.0
H687 H 0.53635 0.09319 0.93021 0.0
H688 H 0.50907 0.09384 0.95011 0.0
C689 C 0.34503 0.46625 0.00763 0.0
C690 C 0.33986 0.48547 0.99708 0.0
C691 C 0.36518 0.46616 0.98256 0.0
C692 C 0.38022 0.48556 0.9453 0.0
C693 C 0.37569 0.50558 0.9367 0.0
C694 C 0.35561 0.50537 0.96307 0.0
C695 C 0.36962 0.44467 0.99345 0.0
C696 C 0.39109 0.52642 0.89659 0.0
C697 C 0.4398 0.49175 0.8903 0.0
C698 C 0.4314 0.47889 0.83282 0.0
C699 C 0.42331 0.49376 0.92835 0.0
C700 C 0.39803 0.4829 0.90796 0.0
C701 C 0.38947 0.46966 0.85046 0.0
C702 C 0.40616 0.4677 0.81395 0.0
C703 C 0.43292 0.5077 0.98989 0.0
C704 C 0.36268 0.45792 0.82676 0.0
H705 H 0.33311 0.45113 0.03508 0.0
H706 H 0.35162 0.52026 0.95511 0.0
H707 H 0.36438 0.43238 0.95113 0.0
H708 H 0.38952 0.45175 0.00558 0.0
H709 H 0.35865 0.43317 0.03022 0.0
H710 H 0.38696 0.54193 0.90002 0.0
H711 H 0.4111 0.53413 0.90873 0.0
H712 H 0.38735 0.51887 0.84853 0.0
H713 H 0.45922 0.50039 0.90534 0.0
H714 H 0.39932 0.45769 0.76972 0.0
H715 H 0.422 0.49563 0.02586 0.0
H716 H 0.43069 0.52443 0.99163 0.0
H717 H 0.45276 0.51389 0.00039 0.0
H718 H 0.3505 0.4441 0.8583 0.0
H719 H 0.35905 0.44826 0.7809 0.0
H720 H 0.35735 0.47253 0.82425 0.0
C721 C 0.8615 0.35051 0.91097 0.0
C722 C 0.83854 0.34752 0.92512 0.0
C723 C 0.87684 0.36903 0.87313 0.0
C724 C 0.86871 0.38443 0.84641 0.0
C725 C 0.84516 0.38088 0.85803 0.0
C726 C 0.83057 0.36284 0.89812 0.0
C727 C 0.90205 0.37245 0.86283 0.0
C728 C 0.83551 0.39638 0.82884 0.0
C729 C 0.92222 0.44652 0.80806 0.0
C730 C 0.92623 0.44076 0.74905 0.0
C731 C 0.90241 0.4289 0.83899 0.0
C732 C 0.88579 0.40514 0.80964 0.0
C733 C 0.88811 0.40028 0.74777 0.0
C734 C 0.90854 0.41804 0.71836 0.0
C735 C 0.90089 0.43488 0.90507 0.0
C736 C 0.87009 0.37563 0.71394 0.0
H737 H 0.86765 0.33837 0.92944 0.0
H738 H 0.81306 0.36106 0.90885 0.0
H739 H 0.90355 0.36947 0.81372 0.0
H740 H 0.91666 0.39192 0.87744 0.0
H741 H 0.90581 0.35931 0.88809 0.0
H742 H 0.81562 0.38903 0.83575 0.0
H743 H 0.84618 0.41599 0.84848 0.0
H744 H 0.83797 0.39683 0.77931 0.0
H745 H 0.93565 0.4641 0.83214 0.0
H746 H 0.91129 0.41359 0.67243 0.0
H747 H 0.90654 0.42395 0.93389 0.0
H748 H 0.88167 0.42945 0.91466 0.0
H749 H 0.91313 0.45511 0.91874 0.0
H750 H 0.87428 0.36098 0.72798 0.0
H751 H 0.87126 0.37678 0.66394 0.0
H752 H 0.85083 0.36957 0.72491 0.0
C753 C 0.88957 0.54577 0.89272 0.0
C754 C 0.86827 0.5435 0.8626 0.0
C755 C 0.90696 0.543 0.86055 0.0
C756 C 0.9031 0.53826 0.79668 0.0
C757 C 0.8813 0.53536 0.76622 0.0
C758 C 0.86401 0.53783 0.79972 0.0
C759 C 0.92967 0.5456 0.89472 0.0
C760 C 0.87659 0.53026 0.69813 0.0
C761 C 0.95976 0.56008 0.70673 0.0
C762 C 0.95928 0.53754 0.6922 0.0
C763 C 0.94162 0.56051 0.74088 0.0
C764 C 0.92254 0.53786 0.76126 0.0
C765 C 0.92203 0.51505 0.74733 0.0
C766 C 0.94044 0.51518 0.71298 0.0
C767 C 0.94272 0.5852 0.75457 0.0
C768 C 0.9022 0.49051 0.76892 0.0
H769 H 0.89261 0.54974 0.9416 0.0
H770 H 0.84751 0.53608 0.77657 0.0
H771 H 0.93126 0.52877 0.88441 0.0
H772 H 0.94652 0.56199 0.87976 0.0
H773 H 0.92928 0.54805 0.94471 0.0
H774 H 0.85836 0.52766 0.68165 0.0
H775 H 0.89131 0.54611 0.67534 0.0
H776 H 0.87727 0.51319 0.6842 0.0
H777 H 0.97432 0.57748 0.69119 0.0
H778 H 0.93973 0.49765 0.70135 0.0
H779 H 0.94406 0.58914 0.80446 0.0
H780 H 0.92546 0.58419 0.73583 0.0
H781 H 0.95874 0.60111 0.73518 0.0
H782 H 0.90623 0.4897 0.81802 0.0
H783 H 0.90137 0.47415 0.74398 0.0
H784 H 0.88371 0.48882 0.76348 0.0
C785 C 0.31153 0.88187 0.87053 0.0
C786 C 0.29605 0.88811 0.90142 0.0
C787 C 0.33034 0.89937 0.83704 0.0
C788 C 0.33388 0.92382 0.83451 0.0
C789 C 0.31761 0.92994 0.86313 0.0
C790 C 0.29889 0.912 0.8965 0.0
C791 C 0.34733 0.89208 0.80733 0.0
C792 C 0.32069 0.95574 0.8609 0.0
C793 C 0.40108 0.97062 0.819 0.0
C794 C 0.40171 0.97256 0.75589 0.0
C795 C 0.37874 0.95628 0.8457 0.0
C796 C 0.35644 0.94346 0.80833 0.0
C797 C 0.35668 0.9469 0.74516 0.0
C798 C 0.3794 0.96152 0.71956 0.0
C799 C 0.37931 0.95333 0.91337 0.0
C800 C 0.33321 0.93373 0.70403 0.0
H801 H 0.30971 0.86359 0.87476 0.0
H802 H 0.28675 0.91681 0.91959 0.0
H803 H 0.34897 0.89684 0.7591 0.0
H804 H 0.36613 0.90277 0.83073 0.0
H805 H 0.34076 0.87175 0.80906 0.0
H806 H 0.30446 0.95636 0.87731 0.0
H807 H 0.33737 0.96933 0.88991 0.0
H808 H 0.32349 0.962 0.81391 0.0
H809 H 0.41824 0.97953 0.84748 0.0
H810 H 0.37977 0.96306 0.67077 0.0
H811 H 0.37505 0.93399 0.92172 0.0
H812 H 0.36503 0.9562 0.93416 0.0
H813 H 0.39764 0.9667 0.93676 0.0
H814 H 0.32741 0.9136 0.69716 0.0
H815 H 0.33578 0.94176 0.65882 0.0
H816 H 0.31797 0.93486 0.72494 0.0
C817 C 0.43559 0.31884 0.93446 0.0
C818 C 0.4519 0.30966 0.94156 0.0
C819 C 0.4396 0.33698 0.89266 0.0
C820 C 0.46007 0.3456 0.85609 0.0
C821 C 0.47578 0.33528 0.86093 0.0
C822 C 0.47173 0.31771 0.90431 0.0
C823 C 0.4227 0.34784 0.88995 0.0
C824 C 0.49737 0.34343 0.82175 0.0
C825 C 0.46042 0.38552 0.72724 0.0
C826 C 0.47574 0.4098 0.75412 0.0
C827 C 0.45605 0.3643 0.75855 0.0
C828 C 0.46668 0.36749 0.81865 0.0
C829 C 0.48285 0.39195 0.84493 0.0
C830 C 0.48743 0.4127 0.81213 0.0
C831 C 0.43941 0.33853 0.7281 0.0
C832 C 0.4944 0.39633 0.90909 0.0
H833 H 0.42026 0.31255 0.96336 0.0
H834 H 0.48415 0.31031 0.90945 0.0
H835 H 0.43332 0.368 0.90557 0.0
H836 H 0.4154 0.34661 0.84246 0.0
H837 H 0.40685 0.33813 0.91875 0.0
H838 H 0.50563 0.33118 0.82494 0.0
H839 H 0.49147 0.34328 0.77349 0.0
H840 H 0.51192 0.36291 0.83618 0.0
H841 H 0.45138 0.38306 0.68241 0.0
H842 H 0.49933 0.43131 0.83358 0.0
H843 H 0.42151 0.32941 0.7496 0.0
H844 H 0.44785 0.32657 0.73405 0.0
H845 H 0.43563 0.33922 0.67872 0.0
H846 H 0.47964 0.38851 0.94146 0.0
H847 H 0.50696 0.41654 0.92239 0.0
H848 H 0.50508 0.38651 0.91395 0.0
C849 C 0.10499 0.42461 0.9853 0.0
C850 C 0.12659 0.44817 0.98733 0.0
C851 C 0.08365 0.41988 0.95008 0.0
C852 C 0.08416 0.43916 0.91622 0.0
C853 C 0.10616 0.46275 0.91706 0.0
C854 C 0.12707 0.46695 0.95271 0.0
C855 C 0.06048 0.39457 0.95035 0.0
C856 C 0.10753 0.48376 0.8811 0.0
C857 C 0.04088 0.43269 0.78364 0.0
C858 C 0.02845 0.4438 0.8101 0.0
C859 C 0.05758 0.42861 0.81904 0.0
C860 C 0.0616 0.43564 0.88207 0.0
C861 C 0.0469 0.44406 0.90987 0.0
C862 C 0.03055 0.44816 0.87342 0.0
C863 C 0.07275 0.41933 0.78787 0.0
C864 C 0.0503 0.45132 0.97715 0.0
H865 H 0.10463 0.41009 0.01226 0.0
H866 H 0.14392 0.485 0.95337 0.0
H867 H 0.04616 0.39656 0.97369 0.0
H868 H 0.05283 0.38695 0.90318 0.0
H869 H 0.06388 0.38085 0.97392 0.0
H870 H 0.12634 0.5006 0.88491 0.0
H871 H 0.10217 0.47739 0.83236 0.0
H872 H 0.09431 0.48928 0.89754 0.0
H873 H 0.03919 0.42912 0.7347 0.0
H874 H 0.02055 0.45628 0.89416 0.0
H875 H 0.07518 0.406 0.81571 0.0
H876 H 0.09142 0.43547 0.782 0.0
H877 H 0.06414 0.41003 0.74228 0.0
H878 H 0.05205 0.43731 0.00377 0.0
H879 H 0.03467 0.45319 0.99316 0.0
H880 H 0.06761 0.4696 0.98673 0.0
C881 C 0.63574 0.13294 0.95584 0.0
C882 C 0.65686 0.15051 0.92892 0.0
C883 C 0.61611 0.11312 0.92039 0.0
C884 C 0.61823 0.11068 0.85727 0.0
C885 C 0.63946 0.12876 0.82997 0.0
C886 C 0.6585 0.14868 0.86627 0.0
C887 C 0.59353 0.09443 0.95063 0.0
C888 C 0.64245 0.12661 0.76283 0.0
C889 C 0.58543 0.04771 0.76958 0.0
C890 C 0.56701 0.04933 0.73512 0.0
C891 C 0.60145 0.06706 0.81217 0.0
C892 C 0.59904 0.08857 0.8198 0.0
C893 C 0.57981 0.08986 0.78699 0.0
C894 C 0.56386 0.07007 0.74514 0.0
C895 C 0.6218 0.0651 0.84643 0.0
C896 C 0.57685 0.11262 0.79409 0.0
H897 H 0.63476 0.13461 0.0046 0.0
H898 H 0.67507 0.16236 0.84613 0.0
H899 H 0.5764 0.09092 0.92454 0.0
H900 H 0.59317 0.0763 0.95141 0.0
H901 H 0.59331 0.10088 0.99811 0.0
H902 H 0.65975 0.14271 0.74857 0.0
H903 H 0.64273 0.1091 0.75157 0.0
H904 H 0.6265 0.12549 0.73581 0.0
H905 H 0.58773 0.03156 0.76208 0.0
H906 H 0.54983 0.07149 0.71788 0.0
H907 H 0.62185 0.06898 0.8959 0.0
H908 H 0.64002 0.07937 0.83154 0.0
H909 H 0.61988 0.04631 0.83887 0.0
H910 H 0.57286 0.11497 0.8416 0.0
H911 H 0.56175 0.11125 0.76281 0.0
H912 H 0.59429 0.12978 0.78508 0.0
C913 C 0.52429 0.66529 0.80866 0.0
C914 C 0.54614 0.68686 0.83097 0.0
C915 C 0.52508 0.64691 0.77178 0.0
C916 C 0.54831 0.65026 0.75718 0.0
C917 C 0.57017 0.67327 0.77349 0.0
C918 C 0.56888 0.69131 0.81099 0.0
C919 C 0.50124 0.62281 0.75383 0.0
C920 C 0.59504 0.67797 0.7555 0.0
C921 C 0.54593 0.58885 0.76958 0.0
C922 C 0.53854 0.57851 0.7097 0.0
C923 C 0.55142 0.61329 0.78468 0.0
C924 C 0.54976 0.62784 0.73848 0.0
C925 C 0.5451 0.61855 0.67692 0.0
C926 C 0.53937 0.59377 0.66315 0.0
C927 C 0.55662 0.62254 0.85101 0.0
C928 C 0.54424 0.63376 0.62581 0.0
H929 H 0.50666 0.66188 0.82371 0.0
H930 H 0.58575 0.70839 0.82677 0.0
H931 H 0.50025 0.61761 0.70475 0.0
H932 H 0.50065 0.60743 0.77968 0.0
H933 H 0.48468 0.62426 0.76309 0.0
H934 H 0.60908 0.69827 0.75946 0.0
H935 H 0.60161 0.66816 0.78567 0.0
H936 H 0.59362 0.67049 0.70811 0.0
H937 H 0.54605 0.57735 0.80551 0.0
H938 H 0.53412 0.58601 0.61651 0.0
H939 H 0.54095 0.62435 0.86676 0.0
H940 H 0.5735 0.6413 0.85734 0.0
H941 H 0.55918 0.60965 0.88045 0.0
H942 H 0.52465 0.6274 0.61152 0.0
H943 H 0.55279 0.63066 0.58585 0.0
H944 H 0.55392 0.65413 0.63893 0.0
C945 C 0.48723 0.14376 0.35806 0.0
C946 C 0.46337 0.1371 0.33455 0.0
C947 C 0.49137 0.12721 0.39192 0.0
C948 C 0.47118 0.10338 0.40249 0.0
C949 C 0.4469 0.09702 0.3814 0.0
C950 C 0.44329 0.11393 0.34755 0.0
C951 C 0.51756 0.13468 0.41334 0.0
C952 C 0.42488 0.07188 0.39213 0.0
C953 C 0.48597 0.05113 0.41062 0.0
C954 C 0.48738 0.0485 0.47342 0.0
C955 C 0.48035 0.06861 0.38735 0.0
C956 C 0.47591 0.08399 0.4277 0.0
C957 C 0.47676 0.08119 0.49114 0.0
C958 C 0.48254 0.06346 0.51335 0.0
C959 C 0.47959 0.07091 0.31937 0.0
C960 C 0.4721 0.09725 0.53555 0.0
H961 H 0.50287 0.16154 0.34788 0.0
H962 H 0.42475 0.10887 0.33054 0.0
H963 H 0.51859 0.13104 0.46196 0.0
H964 H 0.52351 0.1232 0.38708 0.0
H965 H 0.53079 0.15477 0.40751 0.0
H966 H 0.40706 0.07097 0.37933 0.0
H967 H 0.42573 0.05694 0.36482 0.0
H968 H 0.42519 0.06777 0.44062 0.0
H969 H 0.4895 0.0396 0.37916 0.0
H970 H 0.48361 0.0616 0.56188 0.0
H971 H 0.49378 0.09005 0.30851 0.0
H972 H 0.4613 0.06799 0.30258 0.0
H973 H 0.48299 0.05716 0.29415 0.0
H974 H 0.48755 0.1169 0.53656 0.0
H975 H 0.47053 0.09078 0.58237 0.0
H976 H 0.45489 0.09723 0.52098 0.0
C977 C 0.35278 0.46947 0.30143 0.0
C978 C 0.3512 0.49109 0.29312 0.0
C979 C 0.37346 0.47084 0.33227 0.0
C980 C 0.39265 0.49427 0.35777 0.0
C981 C 0.39195 0.51636 0.34703 0.0
C982 C 0.37132 0.51453 0.31415 0.0
C983 C 0.37383 0.44689 0.34152 0.0
C984 C 0.41197 0.54166 0.37411 0.0
C985 C 0.41836 0.48621 0.50722 0.0
C986 C 0.4407 0.48832 0.49166 0.0
C987 C 0.40336 0.4897 0.46466 0.0
C988 C 0.41058 0.49465 0.40448 0.0
C989 C 0.43344 0.49731 0.38867 0.0
C990 C 0.44851 0.49446 0.43304 0.0
C991 C 0.37939 0.48727 0.48377 0.0
C992 C 0.44154 0.50233 0.32475 0.0
H993 H 0.33737 0.45116 0.28646 0.0
H994 H 0.37069 0.53145 0.30653 0.0
H995 H 0.39241 0.44952 0.3343 0.0
H996 H 0.3697 0.4416 0.38895 0.0
H997 H 0.35992 0.43111 0.31029 0.0
H998 H 0.41115 0.55725 0.35251 0.0
H999 H 0.40965 0.54311 0.4234 0.0
H1000 H 0.43059 0.54404 0.36955 0.0
H1001 H 0.41266 0.48197 0.5531 0.0
H1002 H 0.46589 0.49611 0.42143 0.0
H1003 H 0.36349 0.47015 0.46077 0.0
H1004 H 0.37779 0.50355 0.46997 0.0
H1005 H 0.37786 0.48605 0.53366 0.0
H1006 H 0.42724 0.48754 0.29216 0.0
H1007 H 0.45942 0.50296 0.31952 0.0
H1008 H 0.44357 0.52046 0.31213 0.0
C1009 C 0.86752 0.367 0.29734 0.0
C1010 C 0.85866 0.34156 0.30596 0.0
C1011 C 0.88639 0.3858 0.33654 0.0
C1012 C 0.8973 0.37909 0.38441 0.0
C1013 C 0.8884 0.35354 0.39398 0.0
C1014 C 0.86893 0.33507 0.35519 0.0
C1015 C 0.89511 0.41291 0.32557 0.0
C1016 C 0.89996 0.34574 0.44386 0.0
C1017 C 0.96265 0.43099 0.42671 0.0
C1018 C 0.9594 0.4428 0.47784 0.0
C1019 C 0.94285 0.40896 0.39864 0.0
C1020 C 0.91915 0.39902 0.42133 0.0
C1021 C 0.9161 0.41007 0.47511 0.0
C1022 C 0.93645 0.43176 0.50329 0.0
C1023 C 0.94703 0.3972 0.3426 0.0
C1024 C 0.89105 0.40025 0.50021 0.0
H1025 H 0.86017 0.37235 0.25901 0.0
H1026 H 0.8619 0.31552 0.3633 0.0
H1027 H 0.89551 0.42316 0.3683 0.0
H1028 H 0.91424 0.42206 0.31069 0.0
H1029 H 0.88309 0.41491 0.29025 0.0
H1030 H 0.89008 0.3251 0.4472 0.0
H1031 H 0.91951 0.35217 0.4351 0.0
H1032 H 0.90011 0.35474 0.48836 0.0
H1033 H 0.98056 0.43938 0.40766 0.0
H1034 H 0.93398 0.44097 0.54288 0.0
H1035 H 0.93833 0.40058 0.30184 0.0
H1036 H 0.93825 0.37662 0.34539 0.0
H1037 H 0.96702 0.40503 0.33613 0.0
H1038 H 0.87959 0.40522 0.47042 0.0
H1039 H 0.8925 0.40832 0.54702 0.0
H1040 H 0.88118 0.37954 0.50075 0.0
C1041 C 0.5513 0.8692 0.31036 0.0
C1042 C 0.53861 0.84307 0.30466 0.0
C1043 C 0.54754 0.88185 0.35875 0.0
C1044 C 0.53106 0.86789 0.40296 0.0
C1045 C 0.51952 0.84143 0.39944 0.0
C1046 C 0.52312 0.82926 0.34945 0.0
C1047 C 0.56008 0.91011 0.36046 0.0
C1048 C 0.50254 0.82589 0.44656 0.0
C1049 C 0.53737 0.91367 0.52873 0.0
C1050 C 0.52019 0.92012 0.50569 0.0
C1051 C 0.53914 0.89403 0.50011 0.0
C1052 C 0.5237 0.88115 0.44706 0.0
C1053 C 0.50412 0.8853 0.4292 0.0
C1054 C 0.50242 0.90458 0.45935 0.0
C1055 C 0.55917 0.8889 0.52281 0.0
C1056 C 0.4869 0.87167 0.37351 0.0
H1057 H 0.56333 0.87966 0.27543 0.0
H1058 H 0.51356 0.80895 0.34485 0.0
H1059 H 0.54591 0.91586 0.35548 0.0
H1060 H 0.57068 0.91842 0.40484 0.0
H1061 H 0.57293 0.91808 0.32374 0.0
H1062 H 0.50189 0.80762 0.44884 0.0
H1063 H 0.50841 0.83583 0.49234 0.0
H1064 H 0.4835 0.82194 0.43411 0.0
H1065 H 0.55073 0.92514 0.56577 0.0
H1066 H 0.4885 0.90892 0.44269 0.0
H1067 H 0.57564 0.89923 0.49635 0.0
H1068 H 0.55294 0.86864 0.51676 0.0
H1069 H 0.56484 0.89519 0.5716 0.0
H1070 H 0.49728 0.8782 0.33215 0.0
H1071 H 0.47102 0.875 0.36998 0.0
H1072 H 0.47962 0.85122 0.37403 0.0
C1073 C 0.69029 0.56398 0.25119 0.0
C1074 C 0.70853 0.55978 0.27753 0.0
C1075 C 0.67166 0.56319 0.28561 0.0
C1076 C 0.67111 0.55757 0.34743 0.0
C1077 C 0.69013 0.55427 0.37474 0.0
C1078 C 0.70879 0.55555 0.33933 0.0
C1079 C 0.65191 0.56714 0.255 0.0
C1080 C 0.68999 0.54795 0.44027 0.0
C1081 C 0.62694 0.56645 0.44434 0.0
C1082 C 0.60593 0.54243 0.4378 0.0
C1083 C 0.64852 0.57171 0.41579 0.0
C1084 C 0.64914 0.55235 0.38104 0.0
C1085 C 0.62821 0.52792 0.37587 0.0
C1086 C 0.60681 0.52333 0.40383 0.0
C1087 C 0.67038 0.59806 0.42143 0.0
C1088 C 0.62826 0.50666 0.34001 0.0
H1089 H 0.6903 0.56727 0.20321 0.0
H1090 H 0.72298 0.55222 0.35919 0.0
H1091 H 0.63407 0.54916 0.25055 0.0
H1092 H 0.64912 0.58068 0.28295 0.0
H1093 H 0.65659 0.57415 0.20896 0.0
H1094 H 0.70737 0.54854 0.45627 0.0
H1095 H 0.68736 0.56113 0.4701 0.0
H1096 H 0.67423 0.52885 0.44537 0.0
H1097 H 0.6263 0.58128 0.47045 0.0
H1098 H 0.59074 0.50464 0.39927 0.0
H1099 H 0.67391 0.60581 0.37594 0.0
H1100 H 0.68729 0.598 0.4386 0.0
H1101 H 0.66737 0.61071 0.45236 0.0
H1102 H 0.63037 0.51075 0.29137 0.0
H1103 H 0.61098 0.48847 0.34341 0.0
H1104 H 0.6442 0.50472 0.35644 0.0
C1105 C 0.17431 0.7005 0.36156 0.0
C1106 C 0.15961 0.70367 0.31692 0.0
C1107 C 0.16349 0.68272 0.40524 0.0
C1108 C 0.13741 0.66736 0.40306 0.0
C1109 C 0.12254 0.67064 0.35807 0.0
C1110 C 0.13382 0.68894 0.31602 0.0
C1111 C 0.17992 0.68023 0.45335 0.0
C1112 C 0.09468 0.65438 0.35336 0.0
C1113 C 0.10401 0.60209 0.45886 0.0
C1114 C 0.09148 0.60524 0.5066 0.0
C1115 C 0.12064 0.62254 0.42748 0.0
C1116 C 0.12538 0.64687 0.4452 0.0
C1117 C 0.11528 0.65056 0.49815 0.0
C1118 C 0.0983 0.62967 0.5281 0.0
C1119 C 0.13093 0.61762 0.37135 0.0
C1120 C 0.1206 0.67632 0.51997 0.0
H1121 H 0.19428 0.71212 0.36258 0.0
H1122 H 0.12248 0.69132 0.28128 0.0
H1123 H 0.17385 0.6815 0.49918 0.0
H1124 H 0.17836 0.66158 0.44719 0.0
H1125 H 0.19967 0.69489 0.45176 0.0
H1126 H 0.08582 0.65934 0.31576 0.0
H1127 H 0.08935 0.6344 0.34563 0.0
H1128 H 0.08716 0.65625 0.39657 0.0
H1129 H 0.09922 0.58339 0.44227 0.0
H1130 H 0.08907 0.63242 0.56551 0.0
H1131 H 0.15089 0.63149 0.37003 0.0
H1132 H 0.1212 0.61951 0.33033 0.0
H1133 H 0.12849 0.59849 0.36881 0.0
H1134 H 0.14041 0.69042 0.51681 0.0
H1135 H 0.11577 0.67677 0.56768 0.0
H1136 H 0.10951 0.68189 0.49071 0.0
loop_
_geom_bond_atom_site_label_1
_geom_bond_atom_site_label_2
_geom_bond_distance
_geom_bond_site_symmetry_2
_ccdc_geom_bond_type
C0 C1 1.384 . S
C0 C2 1.384 . S
C0 H28 0.931 . S
C1 C0 1.384 . S
C1 C4 1.382 . S
C2 C0 1.384 . S
C2 C3 1.381 . S
C2 H29 0.930 . S
C3 C2 1.381 . S
C3 C5 1.381 . S
C3 C6 1.487 . S
C4 C1 1.382 . S
C4 C5 1.387 . S
C4 H30 0.930 1_554 S
C5 C3 1.381 . S
C5 C4 1.387 . S
C5 H31 0.931 . S
C6 C3 1.487 . S
C6 C13 1.399 . S
C6 N44 1.343 . S
C7 C8 1.384 . S
C7 C9 1.384 . S
C7 H32 0.931 . S
C8 C7 1.384 . S
C8 C11 1.382 . S
C9 C7 1.384 . S
C9 C10 1.381 . S
C9 H33 0.930 . S
C10 C9 1.381 . S
C10 C12 1.381 . S
C10 C13 1.487 . S
C11 C8 1.382 . S
C11 C12 1.387 . S
C11 H34 0.930 . S
C12 C10 1.381 . S
C12 C11 1.387 . S
C12 H35 0.931 . S
C13 C6 1.399 . S
C13 C10 1.487 . S
C13 N45 1.343 . S
C14 C15 1.384 . S
C14 C16 1.384 . S
C14 H36 0.931 . S
C15 C14 1.384 . S
C15 C18 1.382 . S
C16 C14 1.384 . S
C16 C17 1.381 . S
C16 H37 0.930 . S
C17 C16 1.381 . S
C17 C19 1.381 . S
C17 C20 1.487 . S
C18 C15 1.382 . S
C18 C19 1.387 . S
C18 H38 0.930 . S
C19 C17 1.381 . S
C19 C18 1.387 . S
C19 H39 0.931 . S
C20 C17 1.487 . S
C20 C27 1.399 . S
C20 N45 1.343 . S
C21 C22 1.384 . S
C21 C23 1.384 . S
C21 H40 0.931 . S
C22 C21 1.384 . S
C22 C25 1.382 . S
C23 C21 1.384 . S
C23 C24 1.381 . S
C23 H41 0.930 . S
C24 C23 1.381 . S
C24 C26 1.381 . S
C24 C27 1.487 . S
C25 C22 1.382 . S
C25 C26 1.387 . S
C25 H42 0.930 1_554 S
C26 C24 1.381 . S
C26 C25 1.387 . S
C26 H43 0.931 . S
C27 C20 1.399 . S
C27 C24 1.487 . S
C27 N44 1.343 . S
H28 C0 0.931 . S
H29 C2 0.930 . S
H30 C4 0.930 1_556 S
H31 C5 0.931 . S
H32 C7 0.931 . S
H33 C9 0.930 . S
H34 C11 0.930 . S
H35 C12 0.931 . S
H36 C14 0.931 . S
H37 C16 0.930 . S
H38 C18 0.930 . S
H39 C19 0.931 . S
H40 C21 0.931 . S
H41 C23 0.930 . S
H42 C25 0.930 1_556 S
H43 C26 0.931 . S
N44 C6 1.343 . S
N44 C27 1.343 . S
N45 C13 1.343 . S
N45 C20 1.343 . S
C46 C47 1.384 . S
C46 C48 1.384 . S
C46 H74 0.931 . S
C47 C46 1.384 . S
C47 C50 1.382 . S
C48 C46 1.384 . S
C48 C49 1.381 . S
C48 H75 0.930 . S
C49 C48 1.381 . S
C49 C51 1.381 . S
C49 C52 1.487 . S
C50 C47 1.382 . S
C50 C51 1.387 . S
C50 H76 0.930 . S
C51 C49 1.381 . S
C51 C50 1.387 . S
C51 H77 0.931 . S
C52 C49 1.487 . S
C52 C59 1.399 . S
C52 N90 1.343 . S
C53 C54 1.384 . S
C53 C55 1.384 1_556 S
C53 H78 0.931 . S
C54 C53 1.384 . S
C54 C57 1.382 . S
C55 C53 1.384 1_554 S
C55 C56 1.381 . S
C55 H79 0.930 . S
C56 C55 1.381 . S
C56 C58 1.381 1_554 S
C56 C59 1.487 . S
C57 C54 1.382 . S
C57 C58 1.387 . S
C57 H80 0.930 . S
C58 C56 1.381 1_556 S
C58 C57 1.387 . S
C58 H81 0.931 . S
C59 C52 1.399 . S
C59 C56 1.487 . S
C59 N91 1.343 . S
C60 C61 1.384 1_554 S
C60 C62 1.384 . S
C60 H82 0.931 . S
C61 C60 1.384 1_556 S
C61 C64 1.382 . S
C62 C60 1.384 . S
C62 C63 1.381 . S
C62 H83 0.930 . S
C63 C62 1.381 . S
C63 C65 1.381 1_554 S
C63 C66 1.487 . S
C64 C61 1.382 . S
C64 C65 1.387 . S
C64 H84 0.930 . S
C65 C63 1.381 1_556 S
C65 C64 1.387 . S
C65 H85 0.931 . S
C66 C63 1.487 . S
C66 C73 1.399 . S
C66 N91 1.343 . S
C67 C68 1.384 . S
C67 C69 1.384 . S
C67 H86 0.931 . S
C68 C67 1.384 . S
C68 C71 1.382 . S
C69 C67 1.384 . S
C69 C70 1.381 . S
C69 H87 0.930 . S
C70 C69 1.381 . S
C70 C72 1.381 . S
C70 C73 1.487 . S
C71 C68 1.382 . S
C71 C72 1.387 . S
C71 H88 0.930 . S
C72 C70 1.381 . S
C72 C71 1.387 . S
C72 H89 0.931 . S
C73 C66 1.399 . S
C73 C70 1.487 . S
C73 N90 1.343 . S
H74 C46 0.931 . S
H75 C48 0.930 . S
H76 C50 0.930 . S
H77 C51 0.931 . S
H78 C53 0.931 . S
H79 C55 0.930 . S
H80 C57 0.930 . S
H81 C58 0.931 . S
H82 C60 0.931 . S
H83 C62 0.930 . S
H84 C64 0.930 . S
H85 C65 0.931 . S
H86 C67 0.931 . S
H87 C69 0.930 . S
H88 C71 0.930 . S
H89 C72 0.931 . S
N90 C52 1.343 . S
N90 C73 1.343 . S
N91 C59 1.343 . S
N91 C66 1.343 . S
C92 C93 1.384 . S
C92 C94 1.384 . S
C92 H120 0.931 . S
C93 C92 1.384 . S
C93 C96 1.382 . S
C94 C92 1.384 . S
C94 C95 1.381 . S
C94 H121 0.930 1_556 S
C95 C94 1.381 . S
C95 C97 1.381 . S
C95 C98 1.487 1_556 S
C96 C93 1.382 . S
C96 C97 1.387 . S
C96 H122 0.930 . S
C97 C95 1.381 . S
C97 C96 1.387 . S
C97 H123 0.931 . S
C98 C95 1.487 1_554 S
C98 C105 1.399 . S
C98 N136 1.343 1_554 S
C99 C100 1.384 . S
C99 C101 1.384 . S
C99 H124 0.931 . S
C100 C99 1.384 . S
C100 C103 1.382 . S
C101 C99 1.384 . S
C101 C102 1.381 . S
C101 H125 0.930 . S
C102 C101 1.381 . S
C102 C104 1.381 . S
C102 C105 1.487 . S
C103 C100 1.382 . S
C103 C104 1.387 . S
C103 H126 0.930 . S
C104 C102 1.381 . S
C104 C103 1.387 . S
C104 H127 0.931 . S
C105 C98 1.399 . S
C105 C102 1.487 . S
C105 N137 1.343 . S
C106 C107 1.384 . S
C106 C108 1.384 . S
C106 H128 0.931 . S
C107 C106 1.384 . S
C107 C110 1.382 . S
C108 C106 1.384 . S
C108 C109 1.381 . S
C108 H129 0.930 . S
C109 C108 1.381 . S
C109 C111 1.381 . S
C109 C112 1.487 . S
C110 C107 1.382 . S
C110 C111 1.387 . S
C110 H130 0.930 . S
C111 C109 1.381 . S
C111 C110 1.387 . S
C111 H131 0.931 . S
C112 C109 1.487 . S
C112 C119 1.399 . S
C112 N137 1.343 . S
C113 C114 1.384 . S
C113 C115 1.384 . S
C113 H132 0.931 . S
C114 C113 1.384 . S
C114 C117 1.382 . S
C115 C113 1.384 . S
C115 C116 1.381 . S
C115 H133 0.930 1_556 S
C116 C115 1.381 . S
C116 C118 1.381 . S
C116 C119 1.487 1_556 S
C117 C114 1.382 . S
C117 C118 1.387 . S
C117 H134 0.930 . S
C118 C116 1.381 . S
C118 C117 1.387 . S
C118 H135 0.931 . S
C119 C112 1.399 . S
C119 C116 1.487 1_554 S
C119 N136 1.343 1_554 S
H120 C92 0.931 . S
H121 C94 0.930 1_554 S
H122 C96 0.930 . S
H123 C97 0.931 . S
H124 C99 0.931 . S
H125 C101 0.930 . S
H126 C103 0.930 . S
H127 C104 0.931 . S
H128 C106 0.931 . S
H129 C108 0.930 . S
H130 C110 0.930 . S
H131 C111 0.931 . S
H132 C113 0.931 . S
H133 C115 0.930 1_554 S
H134 C117 0.930 . S
H135 C118 0.931 . S
N136 C98 1.343 1_556 S
N136 C119 1.343 1_556 S
N137 C105 1.343 . S
N137 C112 1.343 . S
C138 C139 1.384 . S
C138 C140 1.384 . S
C138 H166 0.931 . S
C139 C138 1.384 . S
C139 C142 1.382 . S
C140 C138 1.384 . S
C140 C141 1.381 . S
C140 H167 0.942 . S
C141 C140 1.381 . S
C141 C143 1.381 . S
C141 C144 1.487 . S
C142 C139 1.382 . S
C142 C143 1.387 . S
C142 H168 0.930 . S
C143 C141 1.381 . S
C143 C142 1.387 . S
C143 H169 0.931 . S
C144 C141 1.487 . S
C144 C151 1.399 1_556 S
C144 N182 1.343 . S
C145 C146 1.384 . S
C145 C147 1.384 . S
C145 H170 0.931 . S
C146 C145 1.384 . S
C146 C149 1.382 . S
C147 C145 1.384 . S
C147 C148 1.381 . S
C147 H171 0.930 . S
C148 C147 1.381 . S
C148 C150 1.381 . S
C148 C151 1.487 . S
C149 C146 1.382 . S
C149 C150 1.387 . S
C149 H172 0.930 . S
C150 C148 1.381 . S
C150 C149 1.387 . S
C150 H173 0.931 . S
C151 C144 1.399 1_554 S
C151 C148 1.487 . S
C151 N183 1.343 . S
C152 C153 1.384 . S
C152 C154 1.384 . S
C152 H174 0.931 . S
C153 C152 1.384 . S
C153 C156 1.382 . S
C154 C152 1.384 . S
C154 C155 1.381 . S
C154 H175 0.930 . S
C155 C154 1.381 . S
C155 C157 1.381 . S
C155 C158 1.487 . S
C156 C153 1.382 . S
C156 C157 1.387 . S
C156 H176 0.930 . S
C157 C155 1.381 . S
C157 C156 1.387 . S
C157 H177 0.931 . S
C158 C155 1.487 . S
C158 C165 1.399 1_554 S
C158 N183 1.343 . S
C159 C160 1.384 . S
C159 C161 1.384 . S
C159 H178 0.931 . S
C160 C159 1.384 . S
C160 C163 1.382 . S
C161 C159 1.384 . S
C161 C162 1.381 . S
C161 H179 0.930 . S
C162 C161 1.381 . S
C162 C164 1.381 . S
C162 C165 1.487 . S
C163 C160 1.382 . S
C163 C164 1.387 . S
C163 H180 0.930 . S
C164 C162 1.381 . S
C164 C163 1.387 . S
C164 H181 0.931 . S
C165 C158 1.399 1_556 S
C165 C162 1.487 . S
C165 N182 1.343 . S
H166 C138 0.931 . S
H167 C140 0.942 . S
H168 C142 0.930 . S
H169 C143 0.931 . S
H170 C145 0.931 . S
H171 C147 0.930 . S
H172 C149 0.930 . S
H173 C150 0.931 . S
H174 C152 0.931 . S
H175 C154 0.930 . S
H176 C156 0.930 . S
H177 C157 0.931 . S
H178 C159 0.931 . S
H179 C161 0.930 . S
H180 C163 0.930 . S
H181 C164 0.931 . S
N182 C144 1.343 . S
N182 C165 1.343 . S
N183 C151 1.343 . S
N183 C158 1.343 . S
C184 C185 1.384 1_554 S
C184 C186 1.384 . S
C184 H212 0.931 . S
C185 C184 1.384 1_556 S
C185 C188 1.382 . S
C186 C184 1.384 . S
C186 C187 1.381 . S
C186 H213 0.930 . S
C187 C186 1.381 . S
C187 C189 1.381 1_554 S
C187 C190 1.487 . S
C188 C185 1.382 . S
C188 C189 1.387 . S
C188 H214 0.930 . S
C189 C187 1.381 1_556 S
C189 C188 1.387 . S
C189 H215 0.931 . S
C190 C187 1.487 . S
C190 C197 1.399 . S
C190 N228 1.343 . S
C191 C192 1.384 . S
C191 C193 1.384 . S
C191 H216 0.931 . S
C192 C191 1.384 . S
C192 C195 1.382 . S
C193 C191 1.384 . S
C193 C194 1.381 . S
C193 H217 0.930 . S
C194 C193 1.381 . S
C194 C196 1.381 . S
C194 C197 1.487 . S
C195 C192 1.382 . S
C195 C196 1.387 . S
C195 H218 0.930 . S
C196 C194 1.381 . S
C196 C195 1.387 . S
C196 H219 0.931 . S
C197 C190 1.399 . S
C197 C194 1.487 . S
C197 N229 1.343 . S
C198 C199 1.384 . S
C198 C200 1.384 . S
C198 H220 0.931 . S
C199 C198 1.384 . S
C199 C202 1.382 . S
C200 C198 1.384 . S
C200 C201 1.381 . S
C200 H221 0.930 . S
C201 C200 1.381 . S
C201 C203 1.381 . S
C201 C204 1.487 . S
C202 C199 1.382 . S
C202 C203 1.387 . S
C202 H222 0.930 . S
C203 C201 1.381 . S
C203 C202 1.387 . S
C203 H223 0.931 . S
C204 C201 1.487 . S
C204 C211 1.399 . S
C204 N229 1.343 . S
C205 C206 1.384 1_554 S
C205 C207 1.384 . S
C205 H224 0.931 . S
C206 C205 1.384 1_556 S
C206 C209 1.382 . S
C207 C205 1.384 . S
C207 C208 1.381 . S
C207 H225 0.930 . S
C208 C207 1.381 . S
C208 C210 1.381 1_554 S
C208 C211 1.487 . S
C209 C206 1.382 . S
C209 C210 1.387 . S
C209 H226 0.930 . S
C210 C208 1.381 1_556 S
C210 C209 1.387 . S
C210 H227 0.931 . S
C211 C204 1.399 . S
C211 C208 1.487 . S
C211 N228 1.343 . S
H212 C184 0.931 . S
H213 C186 0.930 . S
H214 C188 0.930 . S
H215 C189 0.931 . S
H216 C191 0.931 . S
H217 C193 0.930 . S
H218 C195 0.930 . S
H219 C196 0.931 . S
H220 C198 0.931 . S
H221 C200 0.930 . S
H222 C202 0.930 . S
H223 C203 0.931 . S
H224 C205 0.931 . S
H225 C207 0.930 . S
H226 C209 0.930 . S
H227 C210 0.931 . S
N228 C190 1.343 . S
N228 C211 1.343 . S
N229 C197 1.343 . S
N229 C204 1.343 . S
C230 C231 1.384 . S
C230 C232 1.384 . S
C230 H258 0.931 . S
C231 C230 1.384 . S
C231 C234 1.382 . S
C232 C230 1.384 . S
C232 C233 1.381 . S
C232 H259 0.930 . S
C233 C232 1.381 . S
C233 C235 1.381 . S
C233 C236 1.487 . S
C234 C231 1.382 . S
C234 C235 1.387 . S
C234 H260 0.930 1_554 S
C235 C233 1.381 . S
C235 C234 1.387 . S
C235 H261 0.931 . S
C236 C233 1.487 . S
C236 C243 1.399 . S
C236 N274 1.343 . S
C237 C238 1.384 . S
C237 C239 1.384 . S
C237 H262 0.931 . S
C238 C237 1.384 . S
C238 C241 1.382 . S
C239 C237 1.384 . S
C239 C240 1.381 . S
C239 H263 0.930 . S
C240 C239 1.381 . S
C240 C242 1.381 . S
C240 C243 1.487 . S
C241 C238 1.382 . S
C241 C242 1.387 . S
C241 H264 0.930 . S
C242 C240 1.381 . S
C242 C241 1.387 . S
C242 H265 0.931 . S
C243 C236 1.399 . S
C243 C240 1.487 . S
C243 N275 1.343 . S
C244 C245 1.384 . S
C244 C246 1.384 . S
C244 H266 0.931 . S
C245 C244 1.384 . S
C245 C248 1.382 . S
C246 C244 1.384 . S
C246 C247 1.381 . S
C246 H267 0.930 . S
C247 C246 1.381 . S
C247 C249 1.381 . S
C247 C250 1.487 . S
C248 C245 1.382 . S
C248 C249 1.387 . S
C248 H268 0.930 . S
C249 C247 1.381 . S
C249 C248 1.387 . S
C249 H269 0.931 . S
C250 C247 1.487 . S
C250 C257 1.399 . S
C250 N275 1.343 . S
C251 C252 1.384 . S
C251 C253 1.384 . S
C251 H270 0.931 . S
C252 C251 1.384 . S
C252 C255 1.382 . S
C253 C251 1.384 . S
C253 C254 1.381 . S
C253 H271 0.930 . S
C254 C253 1.381 . S
C254 C256 1.381 . S
C254 C257 1.487 . S
C255 C252 1.382 . S
C255 C256 1.387 . S
C255 H272 0.930 1_554 S
C256 C254 1.381 . S
C256 C255 1.387 . S
C256 H273 0.931 . S
C257 C250 1.399 . S
C257 C254 1.487 . S
C257 N274 1.343 . S
H258 C230 0.931 . S
H259 C232 0.930 . S
H260 C234 0.930 1_556 S
H261 C235 0.931 . S
H262 C237 0.931 . S
H263 C239 0.930 . S
H264 C241 0.930 . S
H265 C242 0.931 . S
H266 C244 0.931 . S
H267 C246 0.930 . S
H268 C248 0.930 . S
H269 C249 0.931 . S
H270 C251 0.931 . S
H271 C253 0.930 . S
H272 C255 0.930 1_556 S
H273 C256 0.931 . S
N274 C236 1.343 . S
N274 C257 1.343 . S
N275 C243 1.343 . S
N275 C250 1.343 . S
C276 O303 1.312 . S
C276 O304 1.208 . S
C277 O298 1.331 . S
C277 O301 1.244 . S
C278 O300 1.264 . S
C278 O302 1.273 . S
Mg279 O281 1.936 1_455 S
Mg279 O288 2.081 1_455 S
Mg279 O290 2.023 . S
Mg279 O294 2.031 1_455 S
Mg279 O303 2.291 . S
Mg280 O281 1.963 . S
Mg280 O291 1.942 . S
Mg280 O292 1.955 1_655 S
Mg280 O299 1.986 . S
O281 Mg279 1.936 1_655 S
O281 Mg280 1.963 . S
O281 Mg282 1.915 1_655 S
Mg282 O281 1.915 1_455 S
Mg282 O283 1.915 . S
Mg282 O287 2.013 . S
Mg282 O293 2.114 1_455 S
Mg282 O297 2.013 1_455 S
Mg282 O303 2.114 . S
O283 Mg282 1.915 . S
O283 Mg284 1.936 . S
O283 Mg285 1.963 . S
Mg284 O283 1.936 . S
Mg284 O293 2.291 1_455 S
Mg284 O298 2.081 . S
Mg284 O300 2.023 1_455 S
Mg284 O304 2.031 . S
Mg285 O283 1.963 . S
Mg285 O289 1.986 . S
Mg285 O301 1.942 . S
Mg285 O302 1.955 1_455 S
C286 O297 1.191 . S
C286 O299 1.307 . S
O287 Mg282 2.013 . S
O287 C306 1.191 . S
O288 Mg279 2.081 1_655 S
O288 C296 1.331 . S
O289 Mg285 1.986 . S
O289 C306 1.307 . S
O290 Mg279 2.023 . S
O290 C305 1.264 . S
O291 Mg280 1.942 . S
O291 C296 1.244 . S
O292 Mg280 1.955 1_455 S
O292 C305 1.273 . S
O293 Mg282 2.114 1_655 S
O293 Mg284 2.291 1_655 S
O293 C295 1.312 . S
O294 Mg279 2.031 1_655 S
O294 C295 1.208 . S
C295 O293 1.312 . S
C295 O294 1.208 . S
C296 O288 1.331 . S
C296 O291 1.244 . S
O297 Mg282 2.013 1_655 S
O297 C286 1.191 . S
O298 C277 1.331 . S
O298 Mg284 2.081 . S
O299 Mg280 1.986 . S
O299 C286 1.307 . S
O300 C278 1.264 . S
O300 Mg284 2.023 1_655 S
O301 C277 1.244 . S
O301 Mg285 1.942 . S
O302 C278 1.273 . S
O302 Mg285 1.955 1_655 S
O303 C276 1.312 . S
O303 Mg279 2.291 . S
O303 Mg282 2.114 . S
O304 C276 1.208 . S
O304 Mg284 2.031 . S
C305 O290 1.264 . S
C305 O292 1.273 . S
C306 O287 1.191 . S
C306 O289 1.307 . S
C307 O334 1.312 . S
C307 O335 1.208 . S
C308 O329 1.331 . S
C308 O332 1.244 . S
C309 O331 1.264 . S
C309 O333 1.273 . S
Mg310 O312 1.936 1_545 S
Mg310 O319 2.081 1_545 S
Mg310 O321 2.023 . S
Mg310 O325 2.031 1_545 S
Mg310 O334 2.291 . S
Mg311 O312 1.963 1_545 S
Mg311 O322 1.943 1_545 S
Mg311 O323 1.949 . S
Mg311 O330 1.991 1_545 S
O312 Mg310 1.936 1_565 S
O312 Mg311 1.963 1_565 S
O312 Mg313 1.915 1_565 S
Mg313 O312 1.915 1_545 S
Mg313 O314 1.915 . S
Mg313 O318 2.013 . S
Mg313 O324 2.114 1_545 S
Mg313 O328 2.013 1_545 S
Mg313 O334 2.114 . S
O314 Mg313 1.915 . S
O314 Mg315 1.936 . S
O314 Mg316 1.963 . S
Mg315 O314 1.936 . S
Mg315 O324 2.291 1_545 S
Mg315 O329 2.081 . S
Mg315 O331 2.023 1_545 S
Mg315 O335 2.031 . S
Mg316 O314 1.963 . S
Mg316 O320 1.986 . S
Mg316 O332 1.942 . S
Mg316 O333 1.955 1_545 S
C317 O328 1.191 . S
C317 O330 1.307 . S
O318 Mg313 2.013 . S
O318 C337 1.191 . S
O319 Mg310 2.081 1_565 S
O319 C327 1.331 . S
O320 Mg316 1.986 . S
O320 C337 1.307 . S
O321 Mg310 2.023 . S
O321 C336 1.264 . S
O322 Mg311 1.943 1_565 S
O322 C327 1.244 . S
O323 Mg311 1.949 . S
O323 C336 1.273 . S
O324 Mg313 2.114 1_565 S
O324 Mg315 2.291 1_565 S
O324 C326 1.312 . S
O325 Mg310 2.031 1_565 S
O325 C326 1.208 . S
C326 O324 1.312 . S
C326 O325 1.208 . S
C327 O319 1.331 . S
C327 O322 1.244 . S
O328 Mg313 2.013 1_565 S
O328 C317 1.191 . S
O329 C308 1.331 . S
O329 Mg315 2.081 . S
O330 Mg311 1.991 1_565 S
O330 C317 1.307 . S
O331 C309 1.264 . S
O331 Mg315 2.023 1_565 S
O332 C308 1.244 . S
O332 Mg316 1.942 . S
O333 C309 1.273 . S
O333 Mg316 1.955 1_565 S
O334 C307 1.312 . S
O334 Mg310 2.291 . S
O334 Mg313 2.114 . S
O335 C307 1.208 . S
O335 Mg315 2.031 . S
C336 O321 1.264 . S
C336 O323 1.273 . S
C337 O318 1.191 . S
C337 O320 1.307 . S
C338 O365 1.312 . S
C338 O366 1.208 . S
C339 O360 1.331 . S
C339 O363 1.244 . S
C340 O362 1.264 . S
C340 O364 1.273 . S
Mg341 O343 1.936 . S
Mg341 O350 2.081 . S
Mg341 O352 2.023 . S
Mg341 O356 2.031 . S
Mg341 O365 2.291 . S
Mg342 O343 1.963 . S
Mg342 O353 1.942 . S
Mg342 O354 1.955 . S
Mg342 O361 1.986 . S
O343 Mg341 1.936 . S
O343 Mg342 1.963 . S
O343 Mg344 1.915 . S
Mg344 O343 1.915 . S
Mg344 O345 1.915 . S
Mg344 O349 2.013 . S
Mg344 O355 2.114 . S
Mg344 O359 2.013 . S
Mg344 O365 2.114 . S
O345 Mg344 1.915 . S
O345 Mg346 1.936 . S
O345 Mg347 1.963 . S
Mg346 O345 1.936 . S
Mg346 O355 2.291 . S
Mg346 O360 2.081 . S
Mg346 O362 2.023 . S
Mg346 O366 2.031 . S
Mg347 O345 1.963 . S
Mg347 O351 1.986 . S
Mg347 O363 1.942 . S
Mg347 O364 1.955 . S
C348 O359 1.191 . S
C348 O361 1.307 . S
O349 Mg344 2.013 . S
O349 C368 1.191 . S
O350 Mg341 2.081 . S
O350 C358 1.331 . S
O351 Mg347 1.986 . S
O351 C368 1.307 . S
O352 Mg341 2.023 . S
O352 C367 1.264 . S
O353 Mg342 1.942 . S
O353 C358 1.244 . S
O354 Mg342 1.955 . S
O354 C367 1.273 . S
O355 Mg344 2.114 . S
O355 Mg346 2.291 . S
O355 C357 1.312 . S
O356 Mg341 2.031 . S
O356 C357 1.208 . S
C357 O355 1.312 . S
C357 O356 1.208 . S
C358 O350 1.331 . S
C358 O353 1.244 . S
O359 Mg344 2.013 . S
O359 C348 1.191 . S
O360 C339 1.331 . S
O360 Mg346 2.081 . S
O361 Mg342 1.986 . S
O361 C348 1.307 . S
O362 C340 1.264 . S
O362 Mg346 2.023 . S
O363 C339 1.244 . S
O363 Mg347 1.942 . S
O364 C340 1.273 . S
O364 Mg347 1.955 . S
O365 C338 1.312 . S
O365 Mg341 2.291 . S
O365 Mg344 2.114 . S
O366 C338 1.208 . S
O366 Mg346 2.031 . S
C367 O352 1.264 . S
C367 O354 1.273 . S
C368 O349 1.191 . S
C368 O351 1.307 . S
C369 C370 1.391 . S
C369 C371 1.394 . S
C369 H385 0.931 . S
C370 C369 1.391 . S
C370 C374 1.376 . S
C371 C369 1.394 . S
C371 C372 1.369 . S
C371 C375 1.531 . S
C372 C371 1.369 . S
C372 C373 1.410 . S
C372 C380 1.503 . S
C373 C372 1.410 . S
C373 C374 1.392 . S
C373 C376 1.511 . S
C374 C370 1.376 . S
C374 C373 1.392 . S
C374 H386 0.929 . S
C375 C371 1.531 . S
C375 H387 0.960 . S
C375 H388 0.962 . S
C375 H389 0.960 . S
C376 C373 1.511 . S
C376 H390 0.961 . S
C376 H391 0.961 . S
C376 H392 0.961 . S
C377 C378 1.370 . S
C377 C379 1.363 . S
C377 H393 0.931 . S
C378 C377 1.370 . S
C378 C382 1.408 . S
C379 C377 1.363 . S
C379 C380 1.370 . S
C379 C383 1.524 . S
C380 C372 1.503 . S
C380 C379 1.370 . S
C380 C381 1.403 . S
C381 C380 1.403 . S
C381 C382 1.404 . S
C381 C384 1.539 . S
C382 C378 1.408 . S
C382 C381 1.404 . S
C382 H394 0.930 . S
C383 C379 1.524 . S
C383 H395 0.956 . S
C383 H396 0.961 . S
C383 H397 0.961 . S
C384 C381 1.539 . S
C384 H398 0.958 . S
C384 H399 0.961 . S
C384 H400 0.960 . S
H385 C369 0.931 . S
H386 C374 0.929 . S
H387 C375 0.960 . S
H388 C375 0.962 . S
H389 C375 0.960 . S
H390 C376 0.961 . S
H391 C376 0.961 . S
H392 C376 0.961 . S
H393 C377 0.931 . S
H394 C382 0.930 . S
H395 C383 0.956 . S
H396 C383 0.961 . S
H397 C383 0.961 . S
H398 C384 0.958 . S
H399 C384 0.961 . S
H400 C384 0.960 . S
C401 C402 1.391 . S
C401 C403 1.394 . S
C401 H417 0.931 . S
C402 C401 1.391 . S
C402 C406 1.376 . S
C403 C401 1.394 . S
C403 C404 1.369 . S
C403 C407 1.531 . S
C404 C403 1.369 . S
C404 C405 1.410 . S
C404 C412 1.503 . S
C405 C404 1.410 . S
C405 C406 1.392 . S
C405 C408 1.511 . S
C406 C402 1.376 . S
C406 C405 1.392 . S
C406 H418 0.929 . S
C407 C403 1.531 . S
C407 H419 0.960 . S
C407 H420 0.962 . S
C407 H421 0.960 . S
C408 C405 1.511 . S
C408 H422 0.961 . S
C408 H423 0.961 . S
C408 H424 0.961 . S
C409 C410 1.370 . S
C409 C411 1.363 . S
C409 H425 0.931 . S
C410 C409 1.370 . S
C410 C414 1.408 . S
C411 C409 1.363 . S
C411 C412 1.370 . S
C411 C415 1.524 . S
C412 C404 1.503 . S
C412 C411 1.370 . S
C412 C413 1.403 . S
C413 C412 1.403 . S
C413 C414 1.404 . S
C413 C416 1.539 . S
C414 C410 1.408 . S
C414 C413 1.404 . S
C414 H426 0.930 . S
C415 C411 1.524 . S
C415 H427 0.956 . S
C415 H428 0.961 . S
C415 H429 0.961 . S
C416 C413 1.539 . S
C416 H430 0.958 . S
C416 H431 0.961 . S
C416 H432 0.960 . S
H417 C401 0.931 . S
H418 C406 0.929 . S
H419 C407 0.960 . S
H420 C407 0.962 . S
H421 C407 0.960 . S
H422 C408 0.961 . S
H423 C408 0.961 . S
H424 C408 0.961 . S
H425 C409 0.931 . S
H426 C414 0.930 . S
H427 C415 0.956 . S
H428 C415 0.961 . S
H429 C415 0.961 . S
H430 C416 0.958 . S
H431 C416 0.961 . S
H432 C416 0.960 . S
C433 C434 1.391 . S
C433 C435 1.394 . S
C433 H449 0.931 . S
C434 C433 1.391 . S
C434 C438 1.376 . S
C435 C433 1.394 . S
C435 C436 1.369 . S
C435 C439 1.531 . S
C436 C435 1.369 . S
C436 C437 1.410 . S
C436 C444 1.503 . S
C437 C436 1.410 . S
C437 C438 1.392 . S
C437 C440 1.511 . S
C438 C434 1.376 . S
C438 C437 1.392 . S
C438 H450 0.929 . S
C439 C435 1.531 . S
C439 H451 0.960 . S
C439 H452 0.962 . S
C439 H453 0.960 . S
C440 C437 1.511 . S
C440 H454 0.961 . S
C440 H455 0.961 . S
C440 H456 0.961 . S
C441 C442 1.370 . S
C441 C443 1.363 . S
C441 H457 0.931 . S
C442 C441 1.370 . S
C442 C446 1.408 . S
C443 C441 1.363 . S
C443 C444 1.370 . S
C443 C447 1.524 . S
C444 C436 1.503 . S
C444 C443 1.370 . S
C444 C445 1.403 . S
C445 C444 1.403 . S
C445 C446 1.404 . S
C445 C448 1.539 . S
C446 C442 1.408 . S
C446 C445 1.404 . S
C446 H458 0.930 . S
C447 C443 1.524 . S
C447 H459 0.956 . S
C447 H460 0.961 . S
C447 H461 0.961 . S
C448 C445 1.539 . S
C448 H462 0.958 . S
C448 H463 0.961 . S
C448 H464 0.960 . S
H449 C433 0.931 . S
H450 C438 0.929 . S
H451 C439 0.960 . S
H452 C439 0.962 . S
H453 C439 0.960 . S
H454 C440 0.961 . S
H455 C440 0.961 . S
H456 C440 0.961 . S
H457 C441 0.931 . S
H458 C446 0.930 . S
H459 C447 0.956 . S
H460 C447 0.961 . S
H461 C447 0.961 . S
H462 C448 0.958 . S
H463 C448 0.961 . S
H464 C448 0.960 . S
C465 C466 1.391 . S
C465 C467 1.394 . S
C465 H481 0.931 . S
C466 C465 1.391 . S
C466 C470 1.376 . S
C467 C465 1.394 . S
C467 C468 1.369 . S
C467 C471 1.531 . S
C468 C467 1.369 . S
C468 C469 1.410 . S
C468 C476 1.503 . S
C469 C468 1.410 . S
C469 C470 1.392 . S
C469 C472 1.511 . S
C470 C466 1.376 . S
C470 C469 1.392 . S
C470 H482 0.929 . S
C471 C467 1.531 . S
C471 H483 0.960 . S
C471 H484 0.962 . S
C471 H485 0.960 . S
C472 C469 1.511 . S
C472 H486 0.961 . S
C472 H487 0.961 . S
C472 H488 0.961 . S
C473 C474 1.370 . S
C473 C475 1.363 . S
C473 H489 0.931 . S
C474 C473 1.370 . S
C474 C478 1.408 . S
C475 C473 1.363 . S
C475 C476 1.370 . S
C475 C479 1.524 . S
C476 C468 1.503 . S
C476 C475 1.370 . S
C476 C477 1.403 . S
C477 C476 1.403 . S
C477 C478 1.404 . S
C477 C480 1.539 . S
C478 C474 1.408 . S
C478 C477 1.404 . S
C478 H490 0.930 . S
C479 C475 1.524 . S
C479 H491 0.956 . S
C479 H492 0.961 . S
C479 H493 0.961 . S
C480 C477 1.539 . S
C480 H494 0.958 . S
C480 H495 0.961 . S
C480 H496 0.960 . S
H481 C465 0.931 . S
H482 C470 0.929 . S
H483 C471 0.960 . S
H484 C471 0.962 . S
H485 C471 0.960 . S
H486 C472 0.961 . S
H487 C472 0.961 . S
H488 C472 0.961 . S
H489 C473 0.931 . S
H490 C478 0.930 . S
H491 C479 0.956 . S
H492 C479 0.961 . S
H493 C479 0.961 . S
H494 C480 0.958 . S
H495 C480 0.961 . S
H496 C480 0.960 . S
C497 C498 1.391 . S
C497 C499 1.394 . S
C497 H513 0.931 . S
C498 C497 1.391 . S
C498 C502 1.376 . S
C499 C497 1.394 . S
C499 C500 1.369 . S
C499 C503 1.531 . S
C500 C499 1.369 . S
C500 C501 1.410 . S
C500 C508 1.503 . S
C501 C500 1.410 . S
C501 C502 1.392 . S
C501 C504 1.511 . S
C502 C498 1.376 . S
C502 C501 1.392 . S
C502 H514 0.929 . S
C503 C499 1.531 . S
C503 H515 0.960 . S
C503 H516 0.962 . S
C503 H517 0.960 . S
C504 C501 1.511 . S
C504 H518 0.961 . S
C504 H519 0.961 . S
C504 H520 0.961 . S
C505 C506 1.370 . S
C505 C507 1.363 . S
C505 H521 0.931 . S
C506 C505 1.370 . S
C506 C510 1.408 . S
C507 C505 1.363 . S
C507 C508 1.370 . S
C507 C511 1.524 . S
C508 C500 1.503 . S
C508 C507 1.370 . S
C508 C509 1.403 . S
C509 C508 1.403 . S
C509 C510 1.404 . S
C509 C512 1.539 . S
C510 C506 1.408 . S
C510 C509 1.404 . S
C510 H522 0.930 . S
C511 C507 1.524 . S
C511 H523 0.956 . S
C511 H524 0.961 . S
C511 H525 0.961 . S
C512 C509 1.539 . S
C512 H526 0.958 . S
C512 H527 0.961 . S
C512 H528 0.960 . S
H513 C497 0.931 . S
H514 C502 0.929 . S
H515 C503 0.960 . S
H516 C503 0.962 . S
H517 C503 0.960 . S
H518 C504 0.961 . S
H519 C504 0.961 . S
H520 C504 0.961 . S
H521 C505 0.931 . S
H522 C510 0.930 . S
H523 C511 0.956 . S
H524 C511 0.961 . S
H525 C511 0.961 . S
H526 C512 0.958 . S
H527 C512 0.961 . S
H528 C512 0.960 . S
C529 C530 1.391 . S
C529 C531 1.394 . S
C529 H545 0.931 . S
C530 C529 1.391 . S
C530 C534 1.376 . S
C531 C529 1.394 . S
C531 C532 1.369 . S
C531 C535 1.531 . S
C532 C531 1.369 . S
C532 C533 1.410 . S
C532 C540 1.503 . S
C533 C532 1.410 . S
C533 C534 1.392 . S
C533 C536 1.511 . S
C534 C530 1.376 . S
C534 C533 1.392 . S
C534 H546 0.929 . S
C535 C531 1.531 . S
C535 H547 0.960 . S
C535 H548 0.962 . S
C535 H549 0.960 . S
C536 C533 1.511 . S
C536 H550 0.961 . S
C536 H551 0.961 . S
C536 H552 0.961 . S
C537 C538 1.370 . S
C537 C539 1.363 . S
C537 H553 0.931 . S
C538 C537 1.370 . S
C538 C542 1.408 . S
C539 C537 1.363 . S
C539 C540 1.370 . S
C539 C543 1.524 . S
C540 C532 1.503 . S
C540 C539 1.370 . S
C540 C541 1.403 . S
C541 C540 1.403 . S
C541 C542 1.404 . S
C541 C544 1.539 . S
C542 C538 1.408 . S
C542 C541 1.404 . S
C542 H554 0.930 . S
C543 C539 1.524 . S
C543 H555 0.956 . S
C543 H556 0.961 . S
C543 H557 0.961 . S
C544 C541 1.539 . S
C544 H558 0.958 . S
C544 H559 0.961 . S
C544 H560 0.960 . S
H545 C529 0.931 . S
H546 C534 0.929 . S
H547 C535 0.960 . S
H548 C535 0.962 . S
H549 C535 0.960 . S
H550 C536 0.961 . S
H551 C536 0.961 . S
H552 C536 0.961 . S
H553 C537 0.931 . S
H554 C542 0.930 . S
H555 C543 0.956 . S
H556 C543 0.961 . S
H557 C543 0.961 . S
H558 C544 0.958 . S
H559 C544 0.961 . S
H560 C544 0.960 . S
C561 C562 1.391 . S
C561 C563 1.394 . S
C561 H577 0.931 . S
C562 C561 1.391 . S
C562 C566 1.376 . S
C563 C561 1.394 . S
C563 C564 1.369 . S
C563 C567 1.531 . S
C564 C563 1.369 . S
C564 C565 1.410 . S
C564 C572 1.503 . S
C565 C564 1.410 . S
C565 C566 1.392 . S
C565 C568 1.511 . S
C566 C562 1.376 . S
C566 C565 1.392 . S
C566 H578 0.929 . S
C567 C563 1.531 . S
C567 H579 0.960 . S
C567 H580 0.962 . S
C567 H581 0.960 . S
C568 C565 1.511 . S
C568 H582 0.961 . S
C568 H583 0.961 . S
C568 H584 0.961 . S
C569 C570 1.370 . S
C569 C571 1.363 . S
C569 H585 0.931 . S
C570 C569 1.370 . S
C570 C574 1.408 . S
C571 C569 1.363 . S
C571 C572 1.370 . S
C571 C575 1.524 . S
C572 C564 1.503 . S
C572 C571 1.370 . S
C572 C573 1.403 . S
C573 C572 1.403 . S
C573 C574 1.404 . S
C573 C576 1.539 . S
C574 C570 1.408 . S
C574 C573 1.404 . S
C574 H586 0.930 . S
C575 C571 1.524 . S
C575 H587 0.956 . S
C575 H588 0.961 . S
C575 H589 0.961 . S
C576 C573 1.539 . S
C576 H590 0.958 . S
C576 H591 0.961 . S
C576 H592 0.960 . S
H577 C561 0.931 . S
H578 C566 0.929 . S
H579 C567 0.960 . S
H580 C567 0.962 . S
H581 C567 0.960 . S
H582 C568 0.961 . S
H583 C568 0.961 . S
H584 C568 0.961 . S
H585 C569 0.931 . S
H586 C574 0.930 . S
H587 C575 0.956 . S
H588 C575 0.961 . S
H589 C575 0.961 . S
H590 C576 0.958 . S
H591 C576 0.961 . S
H592 C576 0.960 . S
C593 C594 1.391 . S
C593 C595 1.394 . S
C593 H609 0.931 . S
C594 C593 1.391 . S
C594 C598 1.376 . S
C595 C593 1.394 . S
C595 C596 1.369 . S
C595 C599 1.531 . S
C596 C595 1.369 . S
C596 C597 1.410 . S
C596 C604 1.503 . S
C597 C596 1.410 . S
C597 C598 1.392 . S
C597 C600 1.511 . S
C598 C594 1.376 . S
C598 C597 1.392 . S
C598 H610 0.929 . S
C599 C595 1.531 . S
C599 H611 0.960 . S
C599 H612 0.962 . S
C599 H613 0.960 . S
C600 C597 1.511 . S
C600 H614 0.961 . S
C600 H615 0.961 . S
C600 H616 0.961 . S
C601 C602 1.370 . S
C601 C603 1.363 . S
C601 H617 0.931 . S
C602 C601 1.370 . S
C602 C606 1.408 . S
C603 C601 1.363 . S
C603 C604 1.370 . S
C603 C607 1.524 . S
C604 C596 1.503 . S
C604 C603 1.370 . S
C604 C605 1.403 . S
C605 C604 1.403 . S
C605 C606 1.404 . S
C605 C608 1.539 . S
C606 C602 1.408 . S
C606 C605 1.404 . S
C606 H618 0.930 . S
C607 C603 1.524 . S
C607 H619 0.956 . S
C607 H620 0.961 . S
C607 H621 0.961 . S
C608 C605 1.539 . S
C608 H622 0.958 . S
C608 H623 0.961 . S
C608 H624 0.960 . S
H609 C593 0.931 . S
H610 C598 0.929 . S
H611 C599 0.960 . S
H612 C599 0.962 . S
H613 C599 0.960 . S
H614 C600 0.961 . S
H615 C600 0.961 . S
H616 C600 0.961 . S
H617 C601 0.931 . S
H618 C606 0.930 . S
H619 C607 0.956 . S
H620 C607 0.961 . S
H621 C607 0.961 . S
H622 C608 0.958 . S
H623 C608 0.961 . S
H624 C608 0.960 . S
C625 C626 1.391 . S
C625 C627 1.394 . S
C625 H641 0.931 . S
C626 C625 1.391 . S
C626 C630 1.376 . S
C627 C625 1.394 . S
C627 C628 1.369 . S
C627 C631 1.531 . S
C628 C627 1.369 . S
C628 C629 1.410 . S
C628 C636 1.503 . S
C629 C628 1.410 . S
C629 C630 1.392 . S
C629 C632 1.511 . S
C630 C626 1.376 . S
C630 C629 1.392 . S
C630 H642 0.929 . S
C631 C627 1.531 . S
C631 H643 0.960 . S
C631 H644 0.962 . S
C631 H645 0.960 . S
C632 C629 1.511 . S
C632 H646 0.961 . S
C632 H647 0.961 . S
C632 H648 0.961 . S
C633 C634 1.370 . S
C633 C635 1.363 . S
C633 H649 0.931 . S
C634 C633 1.370 . S
C634 C638 1.408 . S
C635 C633 1.363 . S
C635 C636 1.370 . S
C635 C639 1.524 . S
C636 C628 1.503 . S
C636 C635 1.370 . S
C636 C637 1.403 . S
C637 C636 1.403 . S
C637 C638 1.404 . S
C637 C640 1.539 . S
C638 C634 1.408 . S
C638 C637 1.404 . S
C638 H650 0.930 . S
C639 C635 1.524 . S
C639 H651 0.956 . S
C639 H652 0.961 . S
C639 H653 0.961 . S
C640 C637 1.539 . S
C640 H654 0.958 . S
C640 H655 0.961 . S
C640 H656 0.960 . S
H641 C625 0.931 . S
H642 C630 0.929 . S
H643 C631 0.960 . S
H644 C631 0.962 . S
H645 C631 0.960 . S
H646 C632 0.961 . S
H647 C632 0.961 . S
H648 C632 0.961 . S
H649 C633 0.931 . S
H650 C638 0.930 . S
H651 C639 0.956 . S
H652 C639 0.961 . S
H653 C639 0.961 . S
H654 C640 0.958 . S
H655 C640 0.961 . S
H656 C640 0.960 . S
C657 C658 1.391 . S
C657 C659 1.394 . S
C657 H673 0.931 1_556 S
C658 C657 1.391 . S
C658 C662 1.376 . S
C659 C657 1.394 . S
C659 C660 1.369 . S
C659 C663 1.531 . S
C660 C659 1.369 . S
C660 C661 1.410 . S
C660 C668 1.503 . S
C661 C660 1.410 . S
C661 C662 1.392 . S
C661 C664 1.511 . S
C662 C658 1.376 . S
C662 C661 1.392 . S
C662 H674 0.929 . S
C663 C659 1.531 . S
C663 H675 0.960 . S
C663 H676 0.962 . S
C663 H677 0.960 . S
C664 C661 1.511 . S
C664 H678 0.961 . S
C664 H679 0.961 . S
C664 H680 0.961 . S
C665 C666 1.370 . S
C665 C667 1.363 . S
C665 H681 0.931 . S
C666 C665 1.370 . S
C666 C670 1.408 . S
C667 C665 1.363 . S
C667 C668 1.370 . S
C667 C671 1.524 . S
C668 C660 1.503 . S
C668 C667 1.370 . S
C668 C669 1.403 . S
C669 C668 1.403 . S
C669 C670 1.404 . S
C669 C672 1.539 . S
C670 C666 1.408 . S
C670 C669 1.404 . S
C670 H682 0.930 . S
C671 C667 1.524 . S
C671 H683 0.956 . S
C671 H684 0.961 . S
C671 H685 0.961 . S
C672 C669 1.539 . S
C672 H686 0.958 . S
C672 H687 0.961 . S
C672 H688 0.960 . S
H673 C657 0.931 1_554 S
H674 C662 0.929 . S
H675 C663 0.960 . S
H676 C663 0.962 . S
H677 C663 0.960 . S
H678 C664 0.961 . S
H679 C664 0.961 . S
H680 C664 0.961 . S
H681 C665 0.931 . S
H682 C670 0.930 . S
H683 C671 0.956 . S
H684 C671 0.961 . S
H685 C671 0.961 . S
H686 C672 0.958 . S
H687 C672 0.961 . S
H688 C672 0.960 . S
C689 C690 1.391 . S
C689 C691 1.394 . S
C689 H705 0.931 1_556 S
C690 C689 1.391 . S
C690 C694 1.376 . S
C691 C689 1.394 . S
C691 C692 1.369 . S
C691 C695 1.531 . S
C692 C691 1.369 . S
C692 C693 1.410 . S
C692 C700 1.503 . S
C693 C692 1.410 . S
C693 C694 1.392 . S
C693 C696 1.511 . S
C694 C690 1.376 . S
C694 C693 1.392 . S
C694 H706 0.929 . S
C695 C691 1.531 . S
C695 H707 0.960 . S
C695 H708 0.962 . S
C695 H709 0.960 . S
C696 C693 1.511 . S
C696 H710 0.961 . S
C696 H711 0.961 . S
C696 H712 0.961 . S
C697 C698 1.370 . S
C697 C699 1.363 . S
C697 H713 0.931 . S
C698 C697 1.370 . S
C698 C702 1.408 . S
C699 C697 1.363 . S
C699 C700 1.370 . S
C699 C703 1.524 . S
C700 C692 1.503 . S
C700 C699 1.370 . S
C700 C701 1.403 . S
C701 C700 1.403 . S
C701 C702 1.404 . S
C701 C704 1.539 . S
C702 C698 1.408 . S
C702 C701 1.404 . S
C702 H714 0.930 . S
C703 C699 1.524 . S
C703 H715 0.956 . S
C703 H716 0.961 . S
C703 H717 0.961 . S
C704 C701 1.539 . S
C704 H718 0.958 . S
C704 H719 0.961 . S
C704 H720 0.960 . S
H705 C689 0.931 1_554 S
H706 C694 0.929 . S
H707 C695 0.960 . S
H708 C695 0.962 . S
H709 C695 0.960 . S
H710 C696 0.961 . S
H711 C696 0.961 . S
H712 C696 0.961 . S
H713 C697 0.931 . S
H714 C702 0.930 . S
H715 C703 0.956 . S
H716 C703 0.961 . S
H717 C703 0.961 . S
H718 C704 0.958 . S
H719 C704 0.961 . S
H720 C704 0.960 . S
C721 C722 1.391 . S
C721 C723 1.394 . S
C721 H737 0.931 . S
C722 C721 1.391 . S
C722 C726 1.376 . S
C723 C721 1.394 . S
C723 C724 1.369 . S
C723 C727 1.531 . S
C724 C723 1.369 . S
C724 C725 1.410 . S
C724 C732 1.503 . S
C725 C724 1.410 . S
C725 C726 1.392 . S
C725 C728 1.511 . S
C726 C722 1.376 . S
C726 C725 1.392 . S
C726 H738 0.929 . S
C727 C723 1.531 . S
C727 H739 0.960 . S
C727 H740 0.962 . S
C727 H741 0.960 . S
C728 C725 1.511 . S
C728 H742 0.961 . S
C728 H743 0.961 . S
C728 H744 0.961 . S
C729 C730 1.370 . S
C729 C731 1.363 . S
C729 H745 0.931 . S
C730 C729 1.370 . S
C730 C734 1.408 . S
C731 C729 1.363 . S
C731 C732 1.370 . S
C731 C735 1.524 . S
C732 C724 1.503 . S
C732 C731 1.370 . S
C732 C733 1.403 . S
C733 C732 1.403 . S
C733 C734 1.404 . S
C733 C736 1.539 . S
C734 C730 1.408 . S
C734 C733 1.404 . S
C734 H746 0.930 . S
C735 C731 1.524 . S
C735 H747 0.956 . S
C735 H748 0.961 . S
C735 H749 0.961 . S
C736 C733 1.539 . S
C736 H750 0.958 . S
C736 H751 0.961 . S
C736 H752 0.960 . S
H737 C721 0.931 . S
H738 C726 0.929 . S
H739 C727 0.960 . S
H740 C727 0.962 . S
H741 C727 0.960 . S
H742 C728 0.961 . S
H743 C728 0.961 . S
H744 C728 0.961 . S
H745 C729 0.931 . S
H746 C734 0.930 . S
H747 C735 0.956 . S
H748 C735 0.961 . S
H749 C735 0.961 . S
H750 C736 0.958 . S
H751 C736 0.961 . S
H752 C736 0.960 . S
C753 C754 1.391 . S
C753 C755 1.394 . S
C753 H769 0.931 . S
C754 C753 1.391 . S
C754 C758 1.376 . S
C755 C753 1.394 . S
C755 C756 1.369 . S
C755 C759 1.531 . S
C756 C755 1.369 . S
C756 C757 1.410 . S
C756 C764 1.503 . S
C757 C756 1.410 . S
C757 C758 1.392 . S
C757 C760 1.511 . S
C758 C754 1.376 . S
C758 C757 1.392 . S
C758 H770 0.929 . S
C759 C755 1.531 . S
C759 H771 0.960 . S
C759 H772 0.962 . S
C759 H773 0.960 . S
C760 C757 1.511 . S
C760 H774 0.961 . S
C760 H775 0.961 . S
C760 H776 0.961 . S
C761 C762 1.370 . S
C761 C763 1.363 . S
C761 H777 0.931 . S
C762 C761 1.370 . S
C762 C766 1.408 . S
C763 C761 1.363 . S
C763 C764 1.370 . S
C763 C767 1.524 . S
C764 C756 1.503 . S
C764 C763 1.370 . S
C764 C765 1.403 . S
C765 C764 1.403 . S
C765 C766 1.404 . S
C765 C768 1.539 . S
C766 C762 1.408 . S
C766 C765 1.404 . S
C766 H778 0.930 . S
C767 C763 1.524 . S
C767 H779 0.956 . S
C767 H780 0.961 . S
C767 H781 0.961 . S
C768 C765 1.539 . S
C768 H782 0.958 . S
C768 H783 0.961 . S
C768 H784 0.960 . S
H769 C753 0.931 . S
H770 C758 0.929 . S
H771 C759 0.960 . S
H772 C759 0.962 . S
H773 C759 0.960 . S
H774 C760 0.961 . S
H775 C760 0.961 . S
H776 C760 0.961 . S
H777 C761 0.931 . S
H778 C766 0.930 . S
H779 C767 0.956 . S
H780 C767 0.961 . S
H781 C767 0.961 . S
H782 C768 0.958 . S
H783 C768 0.961 . S
H784 C768 0.960 . S
C785 C786 1.391 . S
C785 C787 1.394 . S
C785 H801 0.931 . S
C786 C785 1.391 . S
C786 C790 1.376 . S
C787 C785 1.394 . S
C787 C788 1.369 . S
C787 C791 1.531 . S
C788 C787 1.369 . S
C788 C789 1.410 . S
C788 C796 1.503 . S
C789 C788 1.410 . S
C789 C790 1.392 . S
C789 C792 1.511 . S
C790 C786 1.376 . S
C790 C789 1.392 . S
C790 H802 0.929 . S
C791 C787 1.531 . S
C791 H803 0.960 . S
C791 H804 0.962 . S
C791 H805 0.960 . S
C792 C789 1.511 . S
C792 H806 0.961 . S
C792 H807 0.961 . S
C792 H808 0.961 . S
C793 C794 1.370 . S
C793 C795 1.363 . S
C793 H809 0.931 . S
C794 C793 1.370 . S
C794 C798 1.408 . S
C795 C793 1.363 . S
C795 C796 1.370 . S
C795 C799 1.524 . S
C796 C788 1.503 . S
C796 C795 1.370 . S
C796 C797 1.403 . S
C797 C796 1.403 . S
C797 C798 1.404 . S
C797 C800 1.539 . S
C798 C794 1.408 . S
C798 C797 1.404 . S
C798 H810 0.930 . S
C799 C795 1.524 . S
C799 H811 0.956 . S
C799 H812 0.961 . S
C799 H813 0.961 . S
C800 C797 1.539 . S
C800 H814 0.958 . S
C800 H815 0.961 . S
C800 H816 0.960 . S
H801 C785 0.931 . S
H802 C790 0.929 . S
H803 C791 0.960 . S
H804 C791 0.962 . S
H805 C791 0.960 . S
H806 C792 0.961 . S
H807 C792 0.961 . S
H808 C792 0.961 . S
H809 C793 0.931 . S
H810 C798 0.930 . S
H811 C799 0.956 . S
H812 C799 0.961 . S
H813 C799 0.961 . S
H814 C800 0.958 . S
H815 C800 0.961 . S
H816 C800 0.960 . S
C817 C818 1.391 . S
C817 C819 1.394 . S
C817 H833 0.931 . S
C818 C817 1.391 . S
C818 C822 1.376 . S
C819 C817 1.394 . S
C819 C820 1.369 . S
C819 C823 1.531 . S
C820 C819 1.369 . S
C820 C821 1.410 . S
C820 C828 1.503 . S
C821 C820 1.410 . S
C821 C822 1.392 . S
C821 C824 1.511 . S
C822 C818 1.376 . S
C822 C821 1.392 . S
C822 H834 0.929 . S
C823 C819 1.531 . S
C823 H835 0.960 . S
C823 H836 0.962 . S
C823 H837 0.960 . S
C824 C821 1.511 . S
C824 H838 0.961 . S
C824 H839 0.961 . S
C824 H840 0.961 . S
C825 C826 1.370 . S
C825 C827 1.363 . S
C825 H841 0.931 . S
C826 C825 1.370 . S
C826 C830 1.408 . S
C827 C825 1.363 . S
C827 C828 1.370 . S
C827 C831 1.524 . S
C828 C820 1.503 . S
C828 C827 1.370 . S
C828 C829 1.403 . S
C829 C828 1.403 . S
C829 C830 1.404 . S
C829 C832 1.539 . S
C830 C826 1.408 . S
C830 C829 1.404 . S
C830 H842 0.930 . S
C831 C827 1.524 . S
C831 H843 0.956 . S
C831 H844 0.961 . S
C831 H845 0.961 . S
C832 C829 1.539 . S
C832 H846 0.958 . S
C832 H847 0.961 . S
C832 H848 0.960 . S
H833 C817 0.931 . S
H834 C822 0.929 . S
H835 C823 0.960 . S
H836 C823 0.962 . S
H837 C823 0.960 . S
H838 C824 0.961 . S
H839 C824 0.961 . S
H840 C824 0.961 . S
H841 C825 0.931 . S
H842 C830 0.930 . S
H843 C831 0.956 . S
H844 C831 0.961 . S
H845 C831 0.961 . S
H846 C832 0.958 . S
H847 C832 0.961 . S
H848 C832 0.960 . S
C849 C850 1.391 . S
C849 C851 1.394 . S
C849 H865 0.931 . S
C850 C849 1.391 . S
C850 C854 1.376 . S
C851 C849 1.394 . S
C851 C852 1.369 . S
C851 C855 1.531 . S
C852 C851 1.369 . S
C852 C853 1.410 . S
C852 C860 1.503 . S
C853 C852 1.410 . S
C853 C854 1.392 . S
C853 C856 1.511 . S
C854 C850 1.376 . S
C854 C853 1.392 . S
C854 H866 0.929 . S
C855 C851 1.531 . S
C855 H867 0.960 . S
C855 H868 0.962 . S
C855 H869 0.960 . S
C856 C853 1.511 . S
C856 H870 0.961 . S
C856 H871 0.961 . S
C856 H872 0.961 . S
C857 C858 1.370 . S
C857 C859 1.363 . S
C857 H873 0.931 . S
C858 C857 1.370 . S
C858 C862 1.408 . S
C859 C857 1.363 . S
C859 C860 1.370 . S
C859 C863 1.524 . S
C860 C852 1.503 . S
C860 C859 1.370 . S
C860 C861 1.403 . S
C861 C860 1.403 . S
C861 C862 1.404 . S
C861 C864 1.539 . S
C862 C858 1.408 . S
C862 C861 1.404 . S
C862 H874 0.930 . S
C863 C859 1.524 . S
C863 H875 0.956 . S
C863 H876 0.961 . S
C863 H877 0.961 . S
C864 C861 1.539 . S
C864 H878 0.958 . S
C864 H879 0.961 . S
C864 H880 0.960 . S
H865 C849 0.931 . S
H866 C854 0.929 . S
H867 C855 0.960 . S
H868 C855 0.962 . S
H869 C855 0.960 . S
H870 C856 0.961 . S
H871 C856 0.961 . S
H872 C856 0.961 . S
H873 C857 0.931 . S
H874 C862 0.930 . S
H875 C863 0.956 . S
H876 C863 0.961 . S
H877 C863 0.961 . S
H878 C864 0.958 . S
H879 C864 0.961 . S
H880 C864 0.960 . S
C881 C882 1.391 . S
C881 C883 1.394 . S
C881 H897 0.931 . S
C882 C881 1.391 . S
C882 C886 1.376 . S
C883 C881 1.394 . S
C883 C884 1.369 . S
C883 C887 1.531 . S
C884 C883 1.369 . S
C884 C885 1.410 . S
C884 C892 1.503 . S
C885 C884 1.410 . S
C885 C886 1.392 . S
C885 C888 1.511 . S
C886 C882 1.376 . S
C886 C885 1.392 . S
C886 H898 0.929 . S
C887 C883 1.531 . S
C887 H899 0.960 . S
C887 H900 0.962 . S
C887 H901 0.960 . S
C888 C885 1.511 . S
C888 H902 0.961 . S
C888 H903 0.961 . S
C888 H904 0.961 . S
C889 C890 1.370 . S
C889 C891 1.363 . S
C889 H905 0.931 . S
C890 C889 1.370 . S
C890 C894 1.408 . S
C891 C889 1.363 . S
C891 C892 1.370 . S
C891 C895 1.524 . S
C892 C884 1.503 . S
C892 C891 1.370 . S
C892 C893 1.403 . S
C893 C892 1.403 . S
C893 C894 1.404 . S
C893 C896 1.539 . S
C894 C890 1.408 . S
C894 C893 1.404 . S
C894 H906 0.930 . S
C895 C891 1.524 . S
C895 H907 0.956 . S
C895 H908 0.961 . S
C895 H909 0.961 . S
C896 C893 1.539 . S
C896 H910 0.958 . S
C896 H911 0.961 . S
C896 H912 0.960 . S
H897 C881 0.931 . S
H898 C886 0.929 . S
H899 C887 0.960 . S
H900 C887 0.962 . S
H901 C887 0.960 . S
H902 C888 0.961 . S
H903 C888 0.961 . S
H904 C888 0.961 . S
H905 C889 0.931 . S
H906 C894 0.930 . S
H907 C895 0.956 . S
H908 C895 0.961 . S
H909 C895 0.961 . S
H910 C896 0.958 . S
H911 C896 0.961 . S
H912 C896 0.960 . S
C913 C914 1.391 . S
C913 C915 1.394 . S
C913 H929 0.931 . S
C914 C913 1.391 . S
C914 C918 1.376 . S
C915 C913 1.394 . S
C915 C916 1.369 . S
C915 C919 1.531 . S
C916 C915 1.369 . S
C916 C917 1.410 . S
C916 C924 1.503 . S
C917 C916 1.410 . S
C917 C918 1.392 . S
C917 C920 1.511 . S
C918 C914 1.376 . S
C918 C917 1.392 . S
C918 H930 0.929 . S
C919 C915 1.531 . S
C919 H931 0.960 . S
C919 H932 0.962 . S
C919 H933 0.960 . S
C920 C917 1.511 . S
C920 H934 0.961 . S
C920 H935 0.961 . S
C920 H936 0.961 . S
C921 C922 1.370 . S
C921 C923 1.363 . S
C921 H937 0.931 . S
C922 C921 1.370 . S
C922 C926 1.408 . S
C923 C921 1.363 . S
C923 C924 1.370 . S
C923 C927 1.524 . S
C924 C916 1.503 . S
C924 C923 1.370 . S
C924 C925 1.403 . S
C925 C924 1.403 . S
C925 C926 1.404 . S
C925 C928 1.539 . S
C926 C922 1.408 . S
C926 C925 1.404 . S
C926 H938 0.930 . S
C927 C923 1.524 . S
C927 H939 0.956 . S
C927 H940 0.961 . S
C927 H941 0.961 . S
C928 C925 1.539 . S
C928 H942 0.958 . S
C928 H943 0.961 . S
C928 H944 0.960 . S
H929 C913 0.931 . S
H930 C918 0.929 . S
H931 C919 0.960 . S
H932 C919 0.962 . S
H933 C919 0.960 . S
H934 C920 0.961 . S
H935 C920 0.961 . S
H936 C920 0.961 . S
H937 C921 0.931 . S
H938 C926 0.930 . S
H939 C927 0.956 . S
H940 C927 0.961 . S
H941 C927 0.961 . S
H942 C928 0.958 . S
H943 C928 0.961 . S
H944 C928 0.960 . S
C945 C946 1.391 . S
C945 C947 1.394 . S
C945 H961 0.931 . S
C946 C945 1.391 . S
C946 C950 1.376 . S
C947 C945 1.394 . S
C947 C948 1.369 . S
C947 C951 1.531 . S
C948 C947 1.369 . S
C948 C949 1.410 . S
C948 C956 1.503 . S
C949 C948 1.410 . S
C949 C950 1.392 . S
C949 C952 1.511 . S
C950 C946 1.376 . S
C950 C949 1.392 . S
C950 H962 0.929 . S
C951 C947 1.531 . S
C951 H963 0.960 . S
C951 H964 0.962 . S
C951 H965 0.960 . S
C952 C949 1.511 . S
C952 H966 0.961 . S
C952 H967 0.961 . S
C952 H968 0.961 . S
C953 C954 1.370 . S
C953 C955 1.363 . S
C953 H969 0.931 . S
C954 C953 1.370 . S
C954 C958 1.408 . S
C955 C953 1.363 . S
C955 C956 1.370 . S
C955 C959 1.524 . S
C956 C948 1.503 . S
C956 C955 1.370 . S
C956 C957 1.403 . S
C957 C956 1.403 . S
C957 C958 1.404 . S
C957 C960 1.539 . S
C958 C954 1.408 . S
C958 C957 1.404 . S
C958 H970 0.930 . S
C959 C955 1.524 . S
C959 H971 0.956 . S
C959 H972 0.961 . S
C959 H973 0.961 . S
C960 C957 1.539 . S
C960 H974 0.958 . S
C960 H975 0.961 . S
C960 H976 0.960 . S
H961 C945 0.931 . S
H962 C950 0.929 . S
H963 C951 0.960 . S
H964 C951 0.962 . S
H965 C951 0.960 . S
H966 C952 0.961 . S
H967 C952 0.961 . S
H968 C952 0.961 . S
H969 C953 0.931 . S
H970 C958 0.930 . S
H971 C959 0.956 . S
H972 C959 0.961 . S
H973 C959 0.961 . S
H974 C960 0.958 . S
H975 C960 0.961 . S
H976 C960 0.960 . S
C977 C978 1.391 . S
C977 C979 1.394 . S
C977 H993 0.931 . S
C978 C977 1.391 . S
C978 C982 1.376 . S
C979 C977 1.394 . S
C979 C980 1.369 . S
C979 C983 1.531 . S
C980 C979 1.369 . S
C980 C981 1.410 . S
C980 C988 1.503 . S
C981 C980 1.410 . S
C981 C982 1.392 . S
C981 C984 1.511 . S
C982 C978 1.376 . S
C982 C981 1.392 . S
C982 H994 0.929 . S
C983 C979 1.531 . S
C983 H995 0.960 . S
C983 H996 0.962 . S
C983 H997 0.960 . S
C984 C981 1.511 . S
C984 H998 0.961 . S
C984 H999 0.961 . S
C984 H1000 0.961 . S
C985 C986 1.370 . S
C985 C987 1.363 . S
C985 H1001 0.931 . S
C986 C985 1.370 . S
C986 C990 1.408 . S
C987 C985 1.363 . S
C987 C988 1.370 . S
C987 C991 1.524 . S
C988 C980 1.503 . S
C988 C987 1.370 . S
C988 C989 1.403 . S
C989 C988 1.403 . S
C989 C990 1.404 . S
C989 C992 1.539 . S
C990 C986 1.408 . S
C990 C989 1.404 . S
C990 H1002 0.930 . S
C991 C987 1.524 . S
C991 H1003 0.956 . S
C991 H1004 0.961 . S
C991 H1005 0.961 . S
C992 C989 1.539 . S
C992 H1006 0.958 . S
C992 H1007 0.961 . S
C992 H1008 0.960 . S
H993 C977 0.931 . S
H994 C982 0.929 . S
H995 C983 0.960 . S
H996 C983 0.962 . S
H997 C983 0.960 . S
H998 C984 0.961 . S
H999 C984 0.961 . S
H1000 C984 0.961 . S
H1001 C985 0.931 . S
H1002 C990 0.930 . S
H1003 C991 0.956 . S
H1004 C991 0.961 . S
H1005 C991 0.961 . S
H1006 C992 0.958 . S
H1007 C992 0.961 . S
H1008 C992 0.960 . S
C1009 C1010 1.391 . S
C1009 C1011 1.394 . S
C1009 H1025 0.931 . S
C1010 C1009 1.391 . S
C1010 C1014 1.376 . S
C1011 C1009 1.394 . S
C1011 C1012 1.369 . S
C1011 C1015 1.531 . S
C1012 C1011 1.369 . S
C1012 C1013 1.410 . S
C1012 C1020 1.503 . S
C1013 C1012 1.410 . S
C1013 C1014 1.392 . S
C1013 C1016 1.511 . S
C1014 C1010 1.376 . S
C1014 C1013 1.392 . S
C1014 H1026 0.929 . S
C1015 C1011 1.531 . S
C1015 H1027 0.960 . S
C1015 H1028 0.962 . S
C1015 H1029 0.960 . S
C1016 C1013 1.511 . S
C1016 H1030 0.961 . S
C1016 H1031 0.961 . S
C1016 H1032 0.961 . S
C1017 C1018 1.370 . S
C1017 C1019 1.363 . S
C1017 H1033 0.931 . S
C1018 C1017 1.370 . S
C1018 C1022 1.408 . S
C1019 C1017 1.363 . S
C1019 C1020 1.370 . S
C1019 C1023 1.524 . S
C1020 C1012 1.503 . S
C1020 C1019 1.370 . S
C1020 C1021 1.403 . S
C1021 C1020 1.403 . S
C1021 C1022 1.404 . S
C1021 C1024 1.539 . S
C1022 C1018 1.408 . S
C1022 C1021 1.404 . S
C1022 H1034 0.930 . S
C1023 C1019 1.524 . S
C1023 H1035 0.956 . S
C1023 H1036 0.961 . S
C1023 H1037 0.961 . S
C1024 C1021 1.539 . S
C1024 H1038 0.958 . S
C1024 H1039 0.961 . S
C1024 H1040 0.960 . S
H1025 C1009 0.931 . S
H1026 C1014 0.929 . S
H1027 C1015 0.960 . S
H1028 C1015 0.962 . S
H1029 C1015 0.960 . S
H1030 C1016 0.961 . S
H1031 C1016 0.961 . S
H1032 C1016 0.961 . S
H1033 C1017 0.931 . S
H1034 C1022 0.930 . S
H1035 C1023 0.956 . S
H1036 C1023 0.961 . S
H1037 C1023 0.961 . S
H1038 C1024 0.958 . S
H1039 C1024 0.961 . S
H1040 C1024 0.960 . S
C1041 C1042 1.391 . S
C1041 C1043 1.394 . S
C1041 H1057 0.931 . S
C1042 C1041 1.391 . S
C1042 C1046 1.376 . S
C1043 C1041 1.394 . S
C1043 C1044 1.369 . S
C1043 C1047 1.531 . S
C1044 C1043 1.369 . S
C1044 C1045 1.410 . S
C1044 C1052 1.503 . S
C1045 C1044 1.410 . S
C1045 C1046 1.392 . S
C1045 C1048 1.511 . S
C1046 C1042 1.376 . S
C1046 C1045 1.392 . S
C1046 H1058 0.929 . S
C1047 C1043 1.531 . S
C1047 H1059 0.960 . S
C1047 H1060 0.962 . S
C1047 H1061 0.960 . S
C1048 C1045 1.511 . S
C1048 H1062 0.961 . S
C1048 H1063 0.961 . S
C1048 H1064 0.961 . S
C1049 C1050 1.370 . S
C1049 C1051 1.363 . S
C1049 H1065 0.931 . S
C1050 C1049 1.370 . S
C1050 C1054 1.408 . S
C1051 C1049 1.363 . S
C1051 C1052 1.370 . S
C1051 C1055 1.524 . S
C1052 C1044 1.503 . S
C1052 C1051 1.370 . S
C1052 C1053 1.403 . S
C1053 C1052 1.403 . S
C1053 C1054 1.404 . S
C1053 C1056 1.539 . S
C1054 C1050 1.408 . S
C1054 C1053 1.404 . S
C1054 H1066 0.930 . S
C1055 C1051 1.524 . S
C1055 H1067 0.956 . S
C1055 H1068 0.961 . S
C1055 H1069 0.961 . S
C1056 C1053 1.539 . S
C1056 H1070 0.958 . S
C1056 H1071 0.961 . S
C1056 H1072 0.960 . S
H1057 C1041 0.931 . S
H1058 C1046 0.929 . S
H1059 C1047 0.960 . S
H1060 C1047 0.962 . S
H1061 C1047 0.960 . S
H1062 C1048 0.961 . S
H1063 C1048 0.961 . S
H1064 C1048 0.961 . S
H1065 C1049 0.931 . S
H1066 C1054 0.930 . S
H1067 C1055 0.956 . S
H1068 C1055 0.961 . S
H1069 C1055 0.961 . S
H1070 C1056 0.958 . S
H1071 C1056 0.961 . S
H1072 C1056 0.960 . S
C1073 C1074 1.391 . S
C1073 C1075 1.394 . S
C1073 H1089 0.931 . S
C1074 C1073 1.391 . S
C1074 C1078 1.376 . S
C1075 C1073 1.394 . S
C1075 C1076 1.369 . S
C1075 C1079 1.531 . S
C1076 C1075 1.369 . S
C1076 C1077 1.410 . S
C1076 C1084 1.503 . S
C1077 C1076 1.410 . S
C1077 C1078 1.392 . S
C1077 C1080 1.511 . S
C1078 C1074 1.376 . S
C1078 C1077 1.392 . S
C1078 H1090 0.929 . S
C1079 C1075 1.531 . S
C1079 H1091 0.960 . S
C1079 H1092 0.962 . S
C1079 H1093 0.960 . S
C1080 C1077 1.511 . S
C1080 H1094 0.961 . S
C1080 H1095 0.961 . S
C1080 H1096 0.961 . S
C1081 C1082 1.370 . S
C1081 C1083 1.363 . S
C1081 H1097 0.931 . S
C1082 C1081 1.370 . S
C1082 C1086 1.408 . S
C1083 C1081 1.363 . S
C1083 C1084 1.370 . S
C1083 C1087 1.524 . S
C1084 C1076 1.503 . S
C1084 C1083 1.370 . S
C1084 C1085 1.403 . S
C1085 C1084 1.403 . S
C1085 C1086 1.404 . S
C1085 C1088 1.539 . S
C1086 C1082 1.408 . S
C1086 C1085 1.404 . S
C1086 H1098 0.930 . S
C1087 C1083 1.524 . S
C1087 H1099 0.956 . S
C1087 H1100 0.961 . S
C1087 H1101 0.961 . S
C1088 C1085 1.539 . S
C1088 H1102 0.958 . S
C1088 H1103 0.961 . S
C1088 H1104 0.960 . S
H1089 C1073 0.931 . S
H1090 C1078 0.929 . S
H1091 C1079 0.960 . S
H1092 C1079 0.962 . S
H1093 C1079 0.960 . S
H1094 C1080 0.961 . S
H1095 C1080 0.961 . S
H1096 C1080 0.961 . S
H1097 C1081 0.931 . S
H1098 C1086 0.930 . S
H1099 C1087 0.956 . S
H1100 C1087 0.961 . S
H1101 C1087 0.961 . S
H1102 C1088 0.958 . S
H1103 C1088 0.961 . S
H1104 C1088 0.960 . S
C1105 C1106 1.391 . S
C1105 C1107 1.394 . S
C1105 H1121 0.931 . S
C1106 C1105 1.391 . S
C1106 C1110 1.376 . S
C1107 C1105 1.394 . S
C1107 C1108 1.369 . S
C1107 C1111 1.531 . S
C1108 C1107 1.369 . S
C1108 C1109 1.410 . S
C1108 C1116 1.503 . S
C1109 C1108 1.410 . S
C1109 C1110 1.392 . S
C1109 C1112 1.511 . S
C1110 C1106 1.376 . S
C1110 C1109 1.392 . S
C1110 H1122 0.929 . S
C1111 C1107 1.531 . S
C1111 H1123 0.960 . S
C1111 H1124 0.962 . S
C1111 H1125 0.960 . S
C1112 C1109 1.511 . S
C1112 H1126 0.961 . S
C1112 H1127 0.961 . S
C1112 H1128 0.961 . S
C1113 C1114 1.370 . S
C1113 C1115 1.363 . S
C1113 H1129 0.931 . S
C1114 C1113 1.370 . S
C1114 C1118 1.408 . S
C1115 C1113 1.363 . S
C1115 C1116 1.370 . S
C1115 C1119 1.524 . S
C1116 C1108 1.503 . S
C1116 C1115 1.370 . S
C1116 C1117 1.403 . S
C1117 C1116 1.403 . S
C1117 C1118 1.404 . S
C1117 C1120 1.539 . S
C1118 C1114 1.408 . S
C1118 C1117 1.404 . S
C1118 H1130 0.930 . S
C1119 C1115 1.524 . S
C1119 H1131 0.956 . S
C1119 H1132 0.961 . S
C1119 H1133 0.961 . S
C1120 C1117 1.539 . S
C1120 H1134 0.958 . S
C1120 H1135 0.961 . S
C1120 H1136 0.960 . S
H1121 C1105 0.931 . S
H1122 C1110 0.929 . S
H1123 C1111 0.960 . S
H1124 C1111 0.962 . S
H1125 C1111 0.960 . S
H1126 C1112 0.961 . S
H1127 C1112 0.961 . S
H1128 C1112 0.961 . S
H1129 C1113 0.931 . S
H1130 C1118 0.930 . S
H1131 C1119 0.956 . S
H1132 C1119 0.961 . S
H1133 C1119 0.961 . S
H1134 C1120 0.958 . S
H1135 C1120 0.961 . S
H1136 C1120 0.960 . S
C370 C15 1.777 . S
C378 C276 1.675 . S
C402 C47 1.587 . S
C410 C308 1.548 . S
C442 C367 1.909 . S
C434 C100 1.953 . S
C474 C296 1.447 . S
C466 C146 1.475 . S
C498 C192 1.685 . S
C506 C326 1.582 . S
C538 C348 1.219 . S
C530 C245 1.226 . S
C570 C317 1.670 . S
C562 C114 1.689 . S
C594 C160 1.282 . S
C602 C357 1.260 . S
C634 C306 1.574 . S
C626 C206 1.619 . S
C658 C231 1.544 1_556 S
C666 C336 1.496 . S
C690 C1 1.887 1_556 S
C698 C339 1.828 . S
C730 C278 1.625 . S
C722 C61 1.629 . S
C762 C286 1.640 . S
C754 C139 1.639 . S
C794 C327 1.544 . S
C786 C185 1.555 . S
C826 C340 1.917 . S
C818 C252 1.968 1_556 S
C858 C277 1.461 . S
C850 C22 1.504 1_556 S
C890 C337 1.544 . S
C882 C54 1.570 . S
C914 C93 1.269 . S
C922 C338 1.234 . S
C954 C307 1.632 . S
C946 C238 1.685 . S
C986 C368 1.244 . S
C978 C8 1.224 . S
C1018 C295 1.562 . S
C1010 C68 1.606 . S
C1050 C309 1.545 . S
C1042 C107 1.582 . S
C1074 C153 1.873 . S
C1082 C358 1.841 . S
C1106 C199 1.666 . S
C1114 C305 1.634 . S
