# Generated by pormake.
# Topology zzz, (3,6)-cn, num edge types: 1
# Building blocks:
#     Node 0, Type 0, BuildingBlock: MIDCAF_clean_linker_0, # of connection points: 3
#     Node 1, Type 0, BuildingBlock: MIDCAF_clean_linker_0, # of connection points: 3
#     Node 2, Type 0, BuildingBlock: MIDCAF_clean_linker_0, # of connection points: 3
#     Node 3, Type 0, BuildingBlock: MIDCAF_clean_linker_0, # of connection points: 3
#     Node 4, Type 0, BuildingBlock: MIDCAF_clean_linker_0, # of connection points: 3
#     Node 5, Type 0, BuildingBlock: MIDCAF_clean_linker_0, # of connection points: 3
#     Node 6, Type 0, BuildingBlock: MIDCAF_clean_linker_0, # of connection points: 3
#     Node 7, Type 0, BuildingBlock: MIDCAF_clean_linker_0, # of connection points: 3
#     Node 8, Type 1, BuildingBlock: CUKXOW_clean_sbu_0, # of connection points: 6
#     Node 9, Type 1, BuildingBlock: CUKXOW_clean_sbu_0, # of connection points: 6
#     Node 10, Type 1, BuildingBlock: CUKXOW_clean_sbu_0, # of connection points: 6
#     Node 11, Type 1, BuildingBlock: CUKXOW_clean_sbu_0, # of connection points: 6
#     Edge 12, Type (0, 1), BuildingBlock: OJICUG_clean_linker_0, # of connection points: 2
#     Edge 13, Type (0, 1), BuildingBlock: OJICUG_clean_linker_0, # of connection points: 2
#     Edge 14, Type (0, 1), BuildingBlock: OJICUG_clean_linker_0, # of connection points: 2
#     Edge 15, Type (0, 1), BuildingBlock: OJICUG_clean_linker_0, # of connection points: 2
#     Edge 16, Type (0, 1), BuildingBlock: OJICUG_clean_linker_0, # of connection points: 2
#     Edge 17, Type (0, 1), BuildingBlock: OJICUG_clean_linker_0, # of connection points: 2
#     Edge 18, Type (0, 1), BuildingBlock: OJICUG_clean_linker_0, # of connection points: 2
#     Edge 19, Type (0, 1), BuildingBlock: OJICUG_clean_linker_0, # of connection points: 2
#     Edge 20, Type (0, 1), BuildingBlock: OJICUG_clean_linker_0, # of connection points: 2
#     Edge 21, Type (0, 1), BuildingBlock: OJICUG_clean_linker_0, # of connection points: 2
#     Edge 22, Type (0, 1), BuildingBlock: OJICUG_clean_linker_0, # of connection points: 2
#     Edge 23, Type (0, 1), BuildingBlock: OJICUG_clean_linker_0, # of connection points: 2
#     Edge 24, Type (0, 1), BuildingBlock: OJICUG_clean_linker_0, # of connection points: 2
#     Edge 25, Type (0, 1), BuildingBlock: OJICUG_clean_linker_0, # of connection points: 2
#     Edge 26, Type (0, 1), BuildingBlock: OJICUG_clean_linker_0, # of connection points: 2
#     Edge 27, Type (0, 1), BuildingBlock: OJICUG_clean_linker_0, # of connection points: 2
#     Edge 28, Type (0, 1), BuildingBlock: OJICUG_clean_linker_0, # of connection points: 2
#     Edge 29, Type (0, 1), BuildingBlock: OJICUG_clean_linker_0, # of connection points: 2
#     Edge 30, Type (0, 1), BuildingBlock: OJICUG_clean_linker_0, # of connection points: 2
#     Edge 31, Type (0, 1), BuildingBlock: OJICUG_clean_linker_0, # of connection points: 2
#     Edge 32, Type (0, 1), BuildingBlock: OJICUG_clean_linker_0, # of connection points: 2
#     Edge 33, Type (0, 1), BuildingBlock: OJICUG_clean_linker_0, # of connection points: 2
#     Edge 34, Type (0, 1), BuildingBlock: OJICUG_clean_linker_0, # of connection points: 2
#     Edge 35, Type (0, 1), BuildingBlock: OJICUG_clean_linker_0, # of connection points: 2
# Relax obj value: 0.213
# Max RMSD: 0.230
# Mean RMSD: 0.186
data_MOF--net-zzz--node1-CUKXOW_clean_sbu_0--node2-MIDCAF_clean_linker_0--edge1-OJICUG_clean_linker_0
_symmetry_space_group_name_H-M    P1
_symmetry_Int_Tables_number       1
_symmetry_cell_setting            triclinic
loop_
_symmetry_equiv_pos_as_xyz
'x, y, z'
_cell_length_a     44.889616
_cell_length_b     44.526989
_cell_length_c     16.126717
_cell_angle_alpha  92.976045
_cell_angle_beta   87.929821
_cell_angle_gamma 95.666184
loop_
_atom_site_label
_atom_site_type_symbol
_atom_site_fract_x
_atom_site_fract_y
_atom_site_fract_z
_atom_type_partial_charge
C0 C 0.81298 0.43999 0.37824 0.0
C1 C 0.81749 0.47081 0.40292 0.0
C2 C 0.80163 0.4914 0.36287 0.0
C3 C 0.7839 0.48172 0.29481 0.0
H4 H 0.70406 0.48539 0.11819 0.0
H5 H 0.65875 0.497 0.05023 0.0
H6 H 0.6732 0.42874 0.85702 0.0
H7 H 0.71819 0.4173 0.9237 0.0
H8 H 0.80168 0.43677 0.88419 0.0
H9 H 0.85085 0.43819 0.81385 0.0
H10 H 0.88513 0.39507 0.01923 0.0
H11 H 0.83622 0.3939 0.08997 0.0
H12 H 0.7947 0.40697 0.28811 0.0
H13 H 0.82495 0.42348 0.4068 0.0
H14 H 0.80434 0.51525 0.38102 0.0
H15 H 0.77401 0.49836 0.26069 0.0
N16 N 0.74805 0.4504 0.14633 0.0
N17 N 0.76418 0.43134 0.01492 0.0
N18 N 0.79428 0.43003 0.12941 0.0
C19 C 0.74288 0.4438 0.06405 0.0
C20 C 0.78992 0.42439 0.04736 0.0
C21 C 0.77372 0.44295 0.17923 0.0
C22 C 0.71478 0.45049 0.0263 0.0
C23 C 0.69743 0.4728 0.06147 0.0
C24 C 0.67166 0.47957 0.02237 0.0
C25 C 0.66249 0.46372 0.94843 0.0
C26 C 0.67959 0.44115 0.91424 0.0
C27 C 0.70548 0.43475 0.95234 0.0
C28 C 0.81537 0.41596 0.99352 0.0
C29 C 0.81937 0.42648 0.91281 0.0
C30 C 0.84754 0.42729 0.87245 0.0
C31 C 0.8719 0.41744 0.91227 0.0
C32 C 0.86683 0.4034 0.9881 0.0
C33 C 0.83882 0.40269 0.02845 0.0
C34 C 0.78201 0.45138 0.26553 0.0
C35 C 0.79558 0.43045 0.3101 0.0
C36 C 0.89885 0.82416 0.37039 0.0
C37 C 0.91791 0.81593 0.43094 0.0
C38 C 0.93028 0.78805 0.41927 0.0
C39 C 0.92712 0.77109 0.34386 0.0
H40 H 0.94864 0.69075 0.17909 0.0
H41 H 0.96003 0.64029 0.12537 0.0
H42 H 0.93629 0.66197 0.87993 0.0
H43 H 0.92537 0.71196 0.93261 0.0
H44 H 0.97997 0.79086 0.94605 0.0
H45 H 0.00423 0.83623 0.885 0.0
H46 H 0.9339 0.88741 0.99107 0.0
H47 H 0.91065 0.84233 0.05548 0.0
H48 H 0.88313 0.81579 0.24723 0.0
H49 H 0.88885 0.84534 0.37636 0.0
H50 H 0.94439 0.78055 0.46559 0.0
H51 H 0.93945 0.75146 0.33308 0.0
N52 N 0.92261 0.74332 0.16862 0.0
N53 N 0.93737 0.75905 0.03474 0.0
N54 N 0.92312 0.79424 0.13713 0.0
C55 C 0.93162 0.73654 0.08871 0.0
C56 C 0.93313 0.78796 0.05876 0.0
C57 C 0.9178 0.77228 0.19237 0.0
C58 C 0.93625 0.70527 0.0599 0.0
C59 C 0.94557 0.68449 0.11393 0.0
C60 C 0.95222 0.65578 0.08327 0.0
C61 C 0.94891 0.64729 -0.00132 0.0
C62 C 0.93873 0.66781 0.94557 0.0
C63 C 0.93268 0.69651 0.97567 0.0
C64 C 0.94361 0.81319 0.00609 0.0
C65 C 0.96938 0.81168 0.95466 0.0
C66 C 0.98331 0.83776 0.91977 0.0
C67 C 0.97143 0.86572 0.93465 0.0
C68 C 0.94427 0.86653 0.98068 0.0
C69 C 0.9307 0.84063 0.01673 0.0
C70 C 0.91145 0.7818 0.27955 0.0
C71 C 0.89563 0.80723 0.29567 0.0
C72 C 0.69214 0.98737 0.4247 0.0
C73 C 0.68354 0.0145 0.4625 0.0
C74 C 0.69986 0.04186 0.44237 0.0
C75 C 0.72165 0.04243 0.37819 0.0
H76 H 0.81437 0.98935 0.18024 0.0
H77 H 0.86384 0.98612 0.11185 0.0
H78 H 0.83993 0.04303 0.92114 0.0
H79 H 0.79067 0.04589 0.98789 0.0
H80 H 0.71414 0.02468 0.94198 0.0
H81 H 0.66997 0.02984 0.86098 0.0
H82 H 0.6182 0.04429 0.08803 0.0
H83 H 0.66159 0.03881 0.16842 0.0
H84 H 0.71726 0.96719 0.32473 0.0
H85 H 0.67991 0.96593 0.43872 0.0
H86 H 0.69399 0.06307 0.47132 0.0
H87 H 0.73131 0.06411 0.35727 0.0
N88 N 0.76302 0.01588 0.21103 0.0
N89 N 0.74509 0.02423 0.07907 0.0
N90 N 0.71251 0.02303 0.19504 0.0
C91 C 0.76817 0.01916 0.12773 0.0
C92 C 0.71713 0.0261 0.11266 0.0
C93 C 0.73497 0.01798 0.24435 0.0
C94 C 0.79857 0.01782 0.0894 0.0
C95 C 0.81978 0.00126 0.12395 0.0
C96 C 0.84798 -0.00072 0.08471 0.0
C97 C 0.85568 0.01442 0.01145 0.0
C98 C 0.83467 0.03135 0.97792 0.0
C99 C 0.80639 0.03282 0.01598 0.0
C100 C 0.69143 0.03104 0.06169 0.0
C101 C 0.69337 0.02912 0.97443 0.0
C102 C 0.66811 0.03214 0.92811 0.0
C103 C 0.64056 0.03714 0.96832 0.0
C104 C 0.63892 0.0398 0.0553 0.0
C105 C 0.66397 0.03679 0.10134 0.0
C106 C 0.72735 0.0157 0.33305 0.0
C107 C 0.71383 0.988 0.36006 0.0
C108 C 0.57058 0.63023 0.09793 0.0
C109 C 0.56073 0.63086 0.01649 0.0
C110 C 0.56449 0.65822 0.97587 0.0
C111 C 0.57712 0.68459 0.01654 0.0
H112 H 0.5976 0.77367 0.9902 0.0
H113 H 0.58782 0.81839 0.9223 0.0
H114 H 0.59073 0.86942 0.15781 0.0
H115 H 0.59958 0.82364 0.22753 0.0
H116 H 0.56506 0.74514 0.38895 0.0
H117 H 0.55752 0.71242 0.50473 0.0
H118 H 0.64905 0.69026 0.47294 0.0
H119 H 0.65559 0.72178 0.35322 0.0
H120 H 0.5901 0.65539 0.20202 0.0
H121 H 0.56842 0.60936 0.13026 0.0
H122 H 0.55691 0.65947 0.91323 0.0
H123 H 0.57899 0.70539 0.98394 0.0
N124 N 0.59591 0.73966 0.11033 0.0
N125 N 0.60724 0.76553 0.23792 0.0
N126 N 0.60278 0.71242 0.22636 0.0
C127 C 0.60157 0.76614 0.15545 0.0
C128 C 0.6085 0.73847 0.27266 0.0
C129 C 0.59634 0.71273 0.1453 0.0
C130 C 0.59909 0.79487 0.11475 0.0
C131 C 0.59638 0.79435 0.02808 0.0
C132 C 0.59107 0.82025 0.98865 0.0
C133 C 0.58857 0.84765 0.03436 0.0
C134 C 0.59225 0.84858 0.12085 0.0
C135 C 0.59754 0.82242 0.16071 0.0
C136 C 0.61077 0.73568 0.36213 0.0
C137 C 0.58408 0.73473 0.41006 0.0
C138 C 0.57975 0.71563 0.47637 0.0
C139 C 0.60232 0.69757 0.49625 0.0
C140 C 0.6308 0.70289 0.45726 0.0
C141 C 0.63485 0.7215 0.38981 0.0
C142 C 0.58622 0.68421 0.09889 0.0
C143 C 0.58326 0.6566 0.13866 0.0
C144 C 0.2063 0.56629 0.00909 0.0
C145 C 0.20169 0.53536 0.98546 0.0
C146 C 0.21781 0.51502 0.02572 0.0
C147 C 0.23549 0.52499 0.09366 0.0
H148 H 0.31371 0.52289 0.27732 0.0
H149 H 0.35795 0.51141 0.35037 0.0
H150 H 0.3404 0.57912 0.54242 0.0
H151 H 0.29638 0.59043 0.47062 0.0
H152 H 0.21824 0.58126 0.50899 0.0
H153 H 0.17038 0.57906 0.58583 0.0
H154 H 0.12603 0.59627 0.36207 0.0
H155 H 0.17368 0.59972 0.28648 0.0
H156 H 0.22459 0.59967 0.0981 0.0
H157 H 0.19421 0.58272 0.9806 0.0
H158 H 0.21524 0.49112 0.00822 0.0
H159 H 0.24532 0.5085 0.1285 0.0
N160 N 0.26982 0.55716 0.24461 0.0
N161 N 0.25169 0.57596 0.37419 0.0
N162 N 0.22288 0.57625 0.25687 0.0
C163 C 0.27386 0.56395 0.32734 0.0
C164 C 0.22607 0.5821 0.33927 0.0
C165 C 0.24438 0.56396 0.20916 0.0
C166 C 0.30148 0.55753 0.36815 0.0
C167 C 0.31942 0.53541 0.33486 0.0
C168 C 0.34459 0.52869 0.3769 0.0
C169 C 0.35257 0.54439 0.45205 0.0
C170 C 0.33491 0.56681 0.48438 0.0
C171 C 0.30959 0.57315 0.44331 0.0
C172 C 0.19966 0.58968 0.39096 0.0
C173 C 0.19845 0.58563 0.47687 0.0
C174 C 0.17096 0.58413 0.52079 0.0
C175 C 0.14425 0.58652 0.47947 0.0
C176 C 0.14606 0.59418 0.39596 0.0
C177 C 0.17349 0.59589 0.35229 0.0
C178 C 0.23723 0.5554 0.12221 0.0
C179 C 0.22381 0.57613 0.07668 0.0
C180 C 0.12994 0.18055 0.04118 0.0
C181 C 0.11153 0.18859 0.97879 0.0
C182 C 0.09994 0.21693 0.98736 0.0
C183 C 0.1028 0.23444 0.06189 0.0
H184 H 0.04058 0.28023 0.40744 0.0
H185 H 0.0265 0.32934 0.45821 0.0
H186 H 0.10223 0.37309 0.32388 0.0
H187 H 0.1163 0.32335 0.27139 0.0
H188 H 0.04284 0.21353 0.45672 0.0
H189 H 0.01919 0.16821 0.51912 0.0
H190 H 0.0894 0.11726 0.41155 0.0
H191 H 0.11233 0.16232 0.34646 0.0
H192 H 0.14469 0.18962 0.16514 0.0
H193 H 0.13944 0.15909 0.03747 0.0
H194 H 0.08646 0.22435 0.93942 0.0
H195 H 0.09075 0.25435 0.07028 0.0
N196 N 0.10183 0.26179 0.23562 0.0
N197 N 0.08259 0.24519 0.36492 0.0
N198 N 0.10334 0.21135 0.26956 0.0
C199 C 0.08895 0.26783 0.31178 0.0
C200 C 0.08998 0.21695 0.34444 0.0
C201 C 0.10929 0.23339 0.21469 0.0
C202 C 0.07962 0.29801 0.33578 0.0
C203 C 0.05413 0.30028 0.38796 0.0
C204 C 0.04592 0.32841 0.41658 0.0
C205 C 0.06324 0.35495 0.39472 0.0
C206 C 0.08855 0.35287 0.34152 0.0
C207 C 0.09648 0.32454 0.31131 0.0
C208 C 0.07925 0.19138 0.39591 0.0
C209 C 0.05354 0.19278 0.44775 0.0
C210 C 0.03995 0.16676 0.48352 0.0
C211 C 0.05204 0.13893 0.46893 0.0
C212 C 0.07896 0.13811 0.42189 0.0
C213 C 0.0923 0.164 0.38529 0.0
C214 C 0.11741 0.22386 0.12849 0.0
C215 C 0.13294 0.19809 0.11504 0.0
C216 C 0.32823 0.94782 0.96511 0.0
C217 C 0.33473 0.97515 0.92476 0.0
C218 C 0.31588 0.99839 0.94352 0.0
C219 C 0.29479 0.99617 0.0099 0.0
H220 H 0.19738 0.97013 0.19844 0.0
H221 H 0.14884 0.97593 0.2694 0.0
H222 H 0.19437 0.01348 0.48805 0.0
H223 H 0.24243 0.0078 0.41806 0.0
H224 H 0.30658 0.97658 0.45141 0.0
H225 H 0.3508 0.97259 0.53356 0.0
H226 H 0.40446 0.96339 0.30762 0.0
H227 H 0.36115 0.96773 0.22624 0.0
H228 H 0.30484 0.92531 0.06523 0.0
H229 H 0.34169 0.9291 0.954 0.0
H230 H 0.3189 0.0193 0.91162 0.0
H231 H 0.28356 0.01585 0.03011 0.0
N232 N 0.25732 0.97947 0.17926 0.0
N233 N 0.27688 0.98056 0.31363 0.0
N234 N 0.30741 0.97118 0.19724 0.0
C235 C 0.25336 0.98283 0.26371 0.0
C236 C 0.30403 0.97476 0.2804 0.0
C237 C 0.2846 0.97344 0.1464 0.0
C238 C 0.2238 0.9884 0.30261 0.0
C239 C 0.19697 0.97994 0.26129 0.0
C240 C 0.1692 0.98306 0.30205 0.0
C241 C 0.16779 0.99518 0.38428 0.0
C242 C 0.19465 0.00437 0.42445 0.0
C243 C 0.22225 0.0009 0.38436 0.0
C244 C 0.3302 0.9725 0.33224 0.0
C245 C 0.32784 0.97377 0.41947 0.0
C246 C 0.35308 0.97134 0.4664 0.0
C247 C 0.38107 0.96781 0.42682 0.0
C248 C 0.38332 0.96655 0.33989 0.0
C249 C 0.35829 0.96885 0.29326 0.0
C250 C 0.29167 0.97038 0.05688 0.0
C251 C 0.3067 0.9454 0.02944 0.0
C252 C 0.44594 0.37637 0.30836 0.0
C253 C 0.4554 0.37606 0.39024 0.0
C254 C 0.45203 0.34874 0.4311 0.0
C255 C 0.44018 0.32209 0.39016 0.0
H256 H 0.42435 0.2327 0.41458 0.0
H257 H 0.43457 0.18794 0.48164 0.0
H258 H 0.42947 0.1368 0.2465 0.0
H259 H 0.42009 0.18259 0.17753 0.0
H260 H 0.45347 0.26219 0.01557 0.0
H261 H 0.45985 0.29534 0.9005 0.0
H262 H 0.36782 0.31552 0.93586 0.0
H263 H 0.3624 0.28352 0.05467 0.0
H264 H 0.42742 0.35073 0.20373 0.0
H265 H 0.44782 0.39719 0.27585 0.0
H266 H 0.45932 0.34778 0.49413 0.0
H267 H 0.43859 0.30134 0.4229 0.0
N268 N 0.42341 0.26661 0.29532 0.0
N269 N 0.4124 0.24067 0.16758 0.0
N270 N 0.41538 0.29373 0.17991 0.0
C271 C 0.41837 0.2401 0.2499 0.0
C272 C 0.41027 0.26767 0.13332 0.0
C273 C 0.4221 0.29349 0.26078 0.0
C274 C 0.42162 0.21144 0.29021 0.0
C275 C 0.4252 0.212 0.37657 0.0
C276 C 0.43078 0.18608 0.41556 0.0
C277 C 0.43271 0.15862 0.36972 0.0
C278 C 0.42836 0.15768 0.28353 0.0
C279 C 0.42279 0.18385 0.24411 0.0
C280 C 0.40756 0.27057 0.04401 0.0
C281 C 0.4341 0.27224 0.99534 0.0
C282 C 0.43776 0.29159 0.92948 0.0
C283 C 0.41468 0.30921 0.9108 0.0
C284 C 0.38643 0.30322 0.95056 0.0
C285 C 0.38303 0.28433 0.01748 0.0
C286 C 0.43145 0.32218 0.30739 0.0
C287 C 0.43399 0.34974 0.26742 0.0
Tb288 Tb 0.99639 0.97508 0.65761 0.0
C289 C 0.06005 -1e-05 0.59143 0.0
Tb290 Tb 0.02972 0.03015 0.75304 0.0
O291 O 0.99246 0.00173 0.54849 0.0
O292 O 0.9952 0.0223 0.66678 0.0
O293 O 0.04022 0.9758 0.59455 0.0
C294 C 0.05823 0.08349 0.8 0.0
O295 O 0.05784 0.02469 0.64046 0.0
C296 C 0.03035 0.97756 0.81945 0.0
C297 C 0.96543 0.00659 0.81602 0.0
O298 O 0.07013 0.05803 0.79338 0.0
O299 O 0.03022 0.07878 0.78159 0.0
O300 O 0.03253 0.00319 0.86227 0.0
O301 O 0.0309 0.98292 0.74374 0.0
O302 O 0.98536 0.03064 0.81161 0.0
O303 O 0.96785 0.98126 0.76968 0.0
C304 C 0.969 0.92106 0.61248 0.0
O305 O 0.95636 0.94611 0.6195 0.0
O306 O 0.99708 0.92658 0.62943 0.0
C307 C 0.99518 0.02743 0.59095 0.0
Tb308 Tb 0.50163 0.02892 0.65083 0.0
C309 C 0.56595 0.00783 0.62385 0.0
Tb310 Tb 0.51821 0.97488 0.7487 0.0
O311 O 0.53407 0.06039 0.71697 0.0
O312 O 0.51486 0.02164 0.772 0.0
O313 O 0.54463 0.02152 0.59005 0.0
C314 C 0.54378 0.93883 0.84576 0.0
O315 O 0.56103 0.99165 0.69079 0.0
C316 C 0.48563 0.96035 0.61819 0.0
C317 C 0.45343 0.99469 0.77258 0.0
O318 O 0.54536 0.9377 0.76519 0.0
O319 O 0.52735 0.96 0.87207 0.0
O320 O 0.48638 0.94311 0.68053 0.0
O321 O 0.50532 0.98229 0.62771 0.0
O322 O 0.47435 0.98041 0.80597 0.0
O323 O 0.45861 0.01202 0.70801 0.0
C324 C 0.47648 0.06595 0.55544 0.0
O325 O 0.4745 0.06628 0.63591 0.0
O326 O 0.49302 0.04499 0.52834 0.0
C327 C 0.5349 0.0434 0.77975 0.0
Tb328 Tb 0.52497 0.53093 0.65827 0.0
C329 C 0.45566 0.51846 0.63218 0.0
Tb330 Tb 0.48856 0.47705 0.74892 0.0
O331 O 0.51891 0.50802 0.53479 0.0
O332 O 0.51633 0.48372 0.6418 0.0
O333 O 0.47933 0.53889 0.63174 0.0
C334 C 0.46004 0.42359 0.78453 0.0
O335 O 0.4553 0.49206 0.66757 0.0
C336 C 0.5019 0.5263 0.8421 0.0
C337 C 0.55788 0.48964 0.77525 0.0
O338 O 0.44987 0.44964 0.8018 0.0
O339 O 0.48629 0.42771 0.74834 0.0
O340 O 0.49457 0.50002 0.87249 0.0
O341 O 0.49729 0.52418 0.76544 0.0
O342 O 0.53421 0.46922 0.77599 0.0
O343 O 0.55822 0.51598 0.73962 0.0
C344 C 0.55413 0.58401 0.622 0.0
O345 O 0.56409 0.5578 0.606 0.0
O346 O 0.52768 0.58028 0.65723 0.0
C347 C 0.51165 0.48174 0.56518 0.0
Tb348 Tb 0.98016 0.50289 0.64714 0.0
C349 C 0.02747 0.45891 0.58511 0.0
Tb350 Tb 0.0368 0.50025 0.75293 0.0
O351 O 0.0074 0.52582 0.54881 0.0
O352 O 0.0205 0.52982 0.67195 0.0
O353 O 0.99909 0.4649 0.58275 0.0
C354 C 0.09247 0.50642 0.8098 0.0
O355 O 0.04643 0.47205 0.64085 0.0
C356 C 0.9887 0.46753 0.80216 0.0
C357 C 0.98796 0.54317 0.81592 0.0
O358 O 0.07356 0.48253 0.81573 0.0
O359 O 0.07991 0.52683 0.77285 0.0
O360 O 0.00969 0.47847 0.85192 0.0
O361 O 0.99666 0.4729 0.72827 0.0
O362 O 0.01625 0.53701 0.82069 0.0
O363 O 0.96966 0.53046 0.75824 0.0
C364 C 0.92463 0.4989 0.5889 0.0
O365 O 0.94632 0.51907 0.56981 0.0
O366 O 0.93424 0.48104 0.64074 0.0
C367 C 0.02862 0.53575 0.59874 0.0
C368 C 0.11645 0.97282 0.42962 0.0
C369 C 0.13867 0.99741 0.43012 0.0
H370 H 0.07426 0.95417 0.4804 0.0
C371 C 0.13382 0.02346 0.47973 0.0
H372 H 0.11964 0.95237 0.3924 0.0
C373 C 0.10793 0.02453 0.53007 0.0
C374 C 0.08625 -0.00052 0.53256 0.0
H375 H 0.15033 0.04293 0.48057 0.0
H376 H 0.1053 0.04486 0.56843 0.0
C377 C 0.09054 0.97381 0.48049 0.0
C378 C 0.46152 0.11301 0.37553 0.0
C379 C 0.44084 0.13187 0.41239 0.0
H380 H 0.489 0.07707 0.39217 0.0
C381 C 0.43009 0.12672 0.49399 0.0
H382 H 0.47042 0.11645 0.31307 0.0
C383 C 0.44123 0.10475 0.53954 0.0
C384 C 0.46292 0.08702 0.50406 0.0
H385 H 0.4136 0.14025 0.52365 0.0
H386 H 0.43324 0.10202 0.60316 0.0
C387 C 0.47235 0.09064 0.42093 0.0
C388 C 0.39978 0.5611 0.52684 0.0
C389 C 0.37912 0.53754 0.49733 0.0
H390 H 0.44012 0.57357 0.59231 0.0
C391 C 0.38359 0.50762 0.51341 0.0
H392 H 0.39696 0.58436 0.51497 0.0
C393 C 0.4081 0.50143 0.5588 0.0
C394 C 0.42888 0.52501 0.58785 0.0
H395 H 0.36788 0.48906 0.49192 0.0
H396 H 0.41102 0.47813 0.56996 0.0
C397 C 0.4245 0.55489 0.57101 0.0
C398 C 0.07664 0.40366 0.4755 0.0
C399 C 0.05535 0.38429 0.43203 0.0
H400 H 0.08455 0.44254 0.55856 0.0
C401 C 0.02555 0.39134 0.43276 0.0
H402 H 0.09974 0.39858 0.47627 0.0
C403 C 0.01682 0.41639 0.47957 0.0
C404 C 0.03767 0.43479 0.52741 0.0
H405 H 0.00877 0.37685 0.3992 0.0
H406 H 0.99343 0.42054 0.48078 0.0
C407 C 0.06786 0.42865 0.52311 0.0
C408 C 0.90243 0.03863 0.94368 0.0
C409 C 0.88523 0.01233 0.96834 0.0
H410 H 0.94144 0.05745 0.87738 0.0
C411 C 0.89553 0.98408 0.9468 0.0
H412 H 0.89506 0.06069 0.9599 0.0
C413 C 0.9219 0.98215 0.89846 0.0
C414 C 0.93872 0.00848 0.87204 0.0
H415 H 0.88261 0.96346 0.96476 0.0
H416 H 0.92894 0.96005 0.88102 0.0
C417 C 0.92902 0.03675 0.89671 0.0
C418 C 0.5592 0.89278 0.02724 0.0
C419 C 0.58033 0.87426 0.99125 0.0
H420 H 0.53108 0.92807 0.00912 0.0
C421 C 0.5913 0.87945 0.90987 0.0
H422 H 0.5501 0.88931 0.08949 0.0
C423 C 0.57987 0.90102 0.86355 0.0
C424 C 0.55769 0.91834 0.89809 0.0
H425 H 0.60816 0.8662 0.88091 0.0
H426 H 0.588 0.90374 0.80004 0.0
C427 C 0.54811 0.9148 0.98111 0.0
C428 C 0.63086 0.5005 0.88978 0.0
C429 C 0.63534 0.47061 0.90607 0.0
H430 H 0.60309 0.52995 0.83441 0.0
C431 C 0.61422 0.44708 0.87889 0.0
H432 H 0.64691 0.51904 0.9095 0.0
C433 C 0.58911 0.45328 0.83637 0.0
C434 C 0.5848 0.48311 0.81894 0.0
H435 H 0.61704 0.42384 0.89102 0.0
H436 H 0.57322 0.43462 0.81657 0.0
C437 C 0.60595 0.50668 0.84607 0.0
C438 C 0.93792 0.60038 0.90926 0.0
C439 C 0.95723 0.61779 0.96345 0.0
H440 H 0.93224 0.56298 0.82138 0.0
C441 C 0.9857 0.60857 0.97596 0.0
H442 H 0.91574 0.60685 0.89926 0.0
C443 C 0.9954 0.58345 0.9307 0.0
C444 C 0.97668 0.56707 0.87263 0.0
H445 H 1.00104 0.62174 0.01721 0.0
H446 H 0.01794 0.57766 0.93887 0.0
C447 C 0.94747 0.57524 0.86463 0.0
C448 C 0.02084 0.11018 0.57685 0.0
C449 C 0.03598 0.11058 0.49897 0.0
H450 H 0.99464 0.08349 0.66497 0.0
C451 C 0.03534 0.08365 0.44899 0.0
H452 H 0.02082 0.13045 0.61696 0.0
C453 C 0.02096 0.05676 0.47753 0.0
C454 C 0.00683 0.0563 0.5564 0.0
H455 H 0.04604 0.08328 0.38772 0.0
H456 H 0.02168 0.03619 0.43886 0.0
C457 C 0.00618 0.08329 0.60488 0.0
C458 C 0.4356 0.98095 0.452 0.0
C459 C 0.40803 0.96532 0.47518 0.0
H460 H 0.48219 0.99039 0.47738 0.0
C461 C 0.40671 0.94658 0.54285 0.0
H462 H 0.43733 0.99555 0.40001 0.0
C463 C 0.43238 0.94388 0.58716 0.0
C464 C 0.45963 0.96025 0.56538 0.0
H465 H 0.38591 0.93382 0.56105 0.0
H466 H 0.43074 0.92946 0.63945 0.0
C467 C 0.46119 0.97829 0.49654 0.0
C468 C 0.49042 0.42383 0.39218 0.0
C469 C 0.46904 0.404 0.43312 0.0
H470 H 0.52084 0.46417 0.40268 0.0
C471 C 0.46111 0.41071 0.51637 0.0
H472 H 0.49702 0.4192 0.32789 0.0
C473 C 0.47481 0.43614 0.55845 0.0
C474 C 0.49687 0.45532 0.51907 0.0
H475 H 0.44407 0.39644 0.54892 0.0
H476 H 0.46738 0.44115 0.62104 0.0
C477 C 0.50414 0.44941 0.43488 0.0
C478 C 0.08862 0.58954 0.50146 0.0
C479 C 0.11476 0.5761 0.51817 0.0
H480 H 0.04057 0.58692 0.51379 0.0
C481 C 0.11207 0.54986 0.56372 0.0
H482 H 0.08988 0.60975 0.46645 0.0
C483 C 0.08406 0.53702 0.59028 0.0
C484 C 0.05809 0.55016 0.57291 0.0
H485 H 0.13147 0.53821 0.57533 0.0
H486 H 0.08284 0.51605 0.6212 0.0
C487 C 0.06046 0.57651 0.52823 0.0
C488 C 0.98794 0.92104 0.95663 0.0
C489 C 0.98799 0.89417 0.90649 0.0
H490 H 1.00148 0.96851 0.96846 0.0
C491 C 0.00439 0.89474 0.83051 0.0
H492 H 0.97635 0.92135 0.01667 0.0
C493 C 0.01962 0.92167 0.80448 0.0
C494 C 0.0182 0.94861 0.85277 0.0
H495 H 0.00501 0.87457 0.79023 0.0
H496 H 0.0322 0.92156 0.74594 0.0
C497 C 0.0028 0.948 0.92988 0.0
C498 C 0.61472 0.056 0.84878 0.0
C499 C 0.61333 0.03925 0.92047 0.0
H500 H 0.59069 0.0708 0.74868 0.0
C501 C 0.58558 0.02486 0.94722 0.0
H502 H 0.6357 0.0676 0.82725 0.0
C503 C 0.55981 0.02699 0.90283 0.0
C504 C 0.56135 0.04338 0.8308 0.0
H505 H 0.58383 0.01159 0.00192 0.0
H506 H 0.5387 0.0158 0.92469 0.0
C507 C 0.58891 0.05815 0.80454 0.0
C508 C 0.52505 0.58351 0.01529 0.0
C509 C 0.54636 0.60322 0.97371 0.0
H510 H 0.49409 0.54353 0.00548 0.0
C511 C 0.55351 0.59671 0.88982 0.0
H512 H 0.51902 0.58798 0.08006 0.0
C513 C 0.53912 0.57163 0.84784 0.0
C514 C 0.5172 0.55253 0.88795 0.0
H515 H 0.57048 0.61085 0.85663 0.0
H516 H 0.54596 0.56678 0.78472 0.0
C517 C 0.51068 0.55824 0.9727 0.0
C518 C 0.91189 0.42401 0.79933 0.0
C519 C 0.90291 0.4269 0.88349 0.0
H520 H 0.94707 0.43343 0.7079 0.0
C521 C 0.92305 0.44166 0.94055 0.0
H522 H 0.89683 0.41259 0.75425 0.0
C523 C 0.95115 0.45423 0.91382 0.0
C524 C 0.95977 0.45224 0.82954 0.0
H525 H 0.91659 0.44467 0.00561 0.0
H526 H 0.96578 0.46629 0.95895 0.0
C527 C 0.94037 0.43622 0.77277 0.0
C528 C 0.06932 0.16254 0.89615 0.0
C529 C 0.09985 0.16507 0.91567 0.0
H530 H 0.03238 0.13478 0.8437 0.0
C531 C 0.11733 0.14195 0.88603 0.0
H532 H 0.0549 0.17952 0.91846 0.0
C533 C 0.10405 0.1158 0.84512 0.0
C534 C 0.07319 0.11255 0.8316 0.0
H535 H 0.14101 0.14334 0.89806 0.0
H536 H 0.11772 0.09769 0.8269 0.0
C537 C 0.05621 0.13665 0.8541 0.0
C538 C 0.37825 0.95634 0.83882 0.0
C539 C 0.36347 0.98067 0.87453 0.0
H540 H 0.41882 0.94161 0.78341 0.0
C541 C 0.37844 0.01005 0.87082 0.0
H542 H 0.36754 0.93348 0.83671 0.0
C543 C 0.40737 0.01467 0.83546 0.0
C544 C 0.42249 0.99004 0.80599 0.0
H545 H 0.3686 0.02956 0.89833 0.0
H546 H 0.41843 0.03742 0.83444 0.0
C547 C 0.40767 0.9609 0.80718 0.0
C548 C 0.44449 0.33923 0.80207 0.0
C549 C 0.42197 0.33744 0.86514 0.0
H550 H 0.47435 0.36809 0.72752 0.0
C551 C 0.40978 0.36424 0.89384 0.0
H552 H 0.45404 0.31911 0.77725 0.0
C553 C 0.42112 0.39216 0.8643 0.0
C554 C 0.44514 0.39397 0.80638 0.0
H555 H 0.39281 0.36411 0.94327 0.0
H556 H 0.4122 0.41247 0.89033 0.0
C557 C 0.45612 0.36726 0.77349 0.0
C558 C 0.16957 0.54217 0.86399 0.0
C559 C 0.17685 0.52448 0.92891 0.0
H560 H 0.137 0.55038 0.77593 0.0
C561 C 0.15751 0.4986 0.94703 0.0
H562 H 0.18416 0.56186 0.84694 0.0
C563 C 0.13071 0.49178 0.90517 0.0
C564 C 0.12254 0.51088 0.84516 0.0
H565 H 0.16204 0.48459 0.99712 0.0
H566 H 0.11565 0.4725 0.92303 0.0
C567 C 0.14258 0.53559 0.82313 0.0
C568 C 0.95987 0.8424 0.51352 0.0
C569 C 0.92921 0.83903 0.49552 0.0
H570 H 0.99637 0.871 0.56536 0.0
C571 C 0.91105 0.8612 0.52788 0.0
H572 H 0.97476 0.82613 0.48924 0.0
C573 C 0.92377 0.88745 0.56947 0.0
C574 C 0.95473 0.89168 0.58109 0.0
H575 H 0.88725 0.85908 0.51716 0.0
H576 H 0.90957 0.90493 0.5895 0.0
C577 C 0.97243 0.86837 0.55636 0.0
C578 C 0.6337 0.03431 0.49007 0.0
C579 C 0.65468 0.01462 0.51059 0.0
H580 H 0.58925 0.04745 0.50882 0.0
C581 C 0.64659 0.99338 0.57078 0.0
H582 H 0.63907 0.05058 0.44281 0.0
C583 C 0.61797 0.99161 0.60875 0.0
C584 C 0.59666 0.01068 0.58624 0.0
H585 H 0.66226 0.97791 0.58767 0.0
H586 H 0.61235 0.97476 0.65434 0.0
C587 C 0.60499 0.03228 0.52716 0.0
C588 C 0.60604 0.64241 0.5143 0.0
C589 C 0.59423 0.66951 0.54209 0.0
H590 H 0.60267 0.59417 0.51829 0.0
C591 C 0.57131 0.6682 0.60409 0.0
H592 H 0.62329 0.64216 0.46568 0.0
C593 C 0.55895 0.64037 0.63238 0.0
C594 C 0.5696 0.61339 0.60033 0.0
H595 H 0.56202 0.68854 0.62823 0.0
H596 H 0.54044 0.63992 0.67749 0.0
C597 C 0.59398 0.6147 0.54361 0.0
C598 C 0.86227 0.50641 0.44208 0.0
C599 C 0.8419 0.4814 0.46094 0.0
H600 H 0.90442 0.53154 0.46797 0.0
C601 C 0.84761 0.46429 0.52863 0.0
H602 H 0.85887 0.51987 0.38981 0.0
C603 C 0.87394 0.47083 0.57278 0.0
C604 C 0.89505 0.49466 0.55034 0.0
H605 H 0.83224 0.44512 0.54553 0.0
H606 H 0.87827 0.45653 0.62246 0.0
C607 C 0.88855 0.51297 0.48637 0.0
loop_
_geom_bond_atom_site_label_1
_geom_bond_atom_site_label_2
_geom_bond_distance
_geom_bond_site_symmetry_2
_ccdc_geom_bond_type
C0 C1 1.384 . S
C0 H13 0.947 . S
C0 C35 1.382 . S
C1 C0 1.384 . S
C1 C2 1.378 . S
C2 C1 1.378 . S
C2 C3 1.378 . S
C2 H14 0.952 . S
C3 C2 1.378 . S
C3 H15 0.950 . S
C3 C34 1.383 . S
H4 C23 0.947 . S
H5 C24 0.946 . S
H6 C26 0.953 . S
H7 C27 0.945 . S
H8 C29 0.952 . S
H9 C30 0.949 . S
H10 C32 0.950 . S
H11 C33 0.948 1_554 S
H12 C35 0.951 . S
H13 C0 0.947 . S
H14 C2 0.952 . S
H15 C3 0.950 . S
N16 C19 1.382 . S
N16 C21 1.363 . S
N17 C19 1.371 1_556 S
N17 C20 1.372 . S
N18 C20 1.361 1_554 S
N18 C21 1.377 . S
C19 N16 1.382 . S
C19 N17 1.371 1_554 S
C19 C22 1.480 . S
C20 N17 1.372 . S
C20 N18 1.361 1_556 S
C20 C28 1.457 . S
C21 N16 1.363 . S
C21 N18 1.377 . S
C21 C34 1.479 . S
C22 C19 1.480 . S
C22 C23 1.383 . S
C22 C27 1.385 1_554 S
C23 H4 0.947 . S
C23 C22 1.383 . S
C23 C24 1.388 . S
C24 H5 0.946 . S
C24 C23 1.388 . S
C24 C25 1.384 1_554 S
C25 C24 1.384 1_556 S
C25 C26 1.377 . S
C26 H6 0.953 . S
C26 C25 1.377 . S
C26 C27 1.369 . S
C27 H7 0.945 . S
C27 C22 1.385 1_556 S
C27 C26 1.369 . S
C28 C20 1.457 . S
C28 C29 1.372 . S
C28 C33 1.364 . S
C29 H8 0.952 . S
C29 C28 1.372 . S
C29 C30 1.389 . S
C30 H9 0.949 . S
C30 C29 1.389 . S
C30 C31 1.387 . S
C31 C30 1.387 . S
C31 C32 1.372 . S
C32 H10 0.950 . S
C32 C31 1.372 . S
C32 C33 1.379 . S
C33 H11 0.948 1_556 S
C33 C28 1.364 . S
C33 C32 1.379 . S
C34 C3 1.383 . S
C34 C21 1.479 . S
C34 C35 1.398 . S
C35 C0 1.382 . S
C35 H12 0.951 . S
C35 C34 1.398 . S
C36 C37 1.384 . S
C36 H49 0.947 . S
C36 C71 1.382 . S
C37 C36 1.384 . S
C37 C38 1.378 . S
C38 C37 1.378 . S
C38 C39 1.378 . S
C38 H50 0.952 . S
C39 C38 1.378 . S
C39 H51 0.950 . S
C39 C70 1.383 . S
H40 C59 0.947 . S
H41 C60 0.946 . S
H42 C62 0.953 . S
H43 C63 0.945 . S
H44 C65 0.952 . S
H45 C66 0.949 . S
H46 C68 0.950 . S
H47 C69 0.948 . S
H48 C71 0.951 . S
H49 C36 0.947 . S
H50 C38 0.952 . S
H51 C39 0.950 . S
N52 C55 1.384 . S
N52 C57 1.363 . S
N53 C55 1.370 1_556 S
N53 C56 1.372 . S
N54 C56 1.361 1_554 S
N54 C57 1.377 . S
C55 N52 1.384 . S
C55 N53 1.370 1_554 S
C55 C58 1.479 1_554 S
C56 N53 1.372 . S
C56 N54 1.361 1_556 S
C56 C64 1.457 . S
C57 N52 1.363 . S
C57 N54 1.377 . S
C57 C70 1.479 . S
C58 C55 1.479 1_556 S
C58 C59 1.383 1_556 S
C58 C63 1.385 . S
C59 H40 0.947 . S
C59 C58 1.383 1_554 S
C59 C60 1.388 . S
C60 H41 0.946 . S
C60 C59 1.388 . S
C60 C61 1.384 1_554 S
C61 C60 1.384 1_556 S
C61 C62 1.377 . S
C62 H42 0.953 . S
C62 C61 1.377 . S
C62 C63 1.369 . S
C63 H43 0.945 . S
C63 C58 1.385 . S
C63 C62 1.369 . S
C64 C56 1.457 . S
C64 C65 1.372 . S
C64 C69 1.364 . S
C65 H44 0.952 . S
C65 C64 1.372 . S
C65 C66 1.389 . S
C66 H45 0.949 . S
C66 C65 1.389 . S
C66 C67 1.387 . S
C67 C66 1.387 . S
C67 C68 1.372 . S
C68 H46 0.950 . S
C68 C67 1.372 . S
C68 C69 1.379 . S
C69 H47 0.948 . S
C69 C64 1.364 . S
C69 C68 1.379 . S
C70 C39 1.383 . S
C70 C57 1.479 . S
C70 C71 1.398 . S
C71 C36 1.382 . S
C71 H48 0.951 . S
C71 C70 1.398 . S
C72 C73 1.384 1_565 S
C72 H85 0.947 . S
C72 C107 1.382 1_565 S
C73 C72 1.384 1_545 S
C73 C74 1.378 . S
C74 C73 1.378 . S
C74 C75 1.378 . S
C74 H86 0.952 . S
C75 C74 1.378 . S
C75 H87 0.950 . S
C75 C106 1.383 . S
H76 C95 0.947 . S
H77 C96 0.955 . S
H78 C98 0.953 . S
H79 C99 0.945 . S
H80 C101 0.947 1_565 S
H81 C102 0.949 . S
H82 C104 0.950 . S
H83 C105 0.948 . S
H84 C107 0.951 1_565 S
H85 C72 0.947 . S
H86 C74 0.952 . S
H87 C75 0.950 . S
N88 C91 1.382 . S
N88 C93 1.363 . S
N89 C91 1.371 . S
N89 C92 1.372 . S
N90 C92 1.361 . S
N90 C93 1.377 . S
C91 N88 1.382 . S
C91 N89 1.371 . S
C91 C94 1.480 . S
C92 N89 1.372 . S
C92 N90 1.361 . S
C92 C100 1.457 1_554 S
C93 N88 1.363 . S
C93 N90 1.377 . S
C93 C106 1.479 . S
C94 C91 1.480 . S
C94 C95 1.383 . S
C94 C99 1.385 1_554 S
C95 H76 0.947 . S
C95 C94 1.383 . S
C95 C96 1.383 1_545 S
C96 H77 0.955 . S
C96 C95 1.383 1_565 S
C96 C97 1.381 1_565 S
C97 C96 1.381 1_545 S
C97 C98 1.377 1_554 S
C98 H78 0.953 . S
C98 C97 1.377 1_556 S
C98 C99 1.369 . S
C99 H79 0.945 . S
C99 C94 1.385 1_556 S
C99 C98 1.369 . S
C100 C92 1.457 1_556 S
C100 C101 1.377 . S
C100 C105 1.364 1_556 S
C101 H80 0.947 1_545 S
C101 C100 1.377 . S
C101 C102 1.390 1_545 S
C102 H81 0.949 . S
C102 C101 1.390 1_565 S
C102 C103 1.387 1_565 S
C103 C102 1.387 1_545 S
C103 C104 1.372 . S
C104 H82 0.950 . S
C104 C103 1.372 . S
C104 C105 1.379 1_556 S
C105 H83 0.948 . S
C105 C100 1.364 1_554 S
C105 C104 1.379 1_554 S
C106 C75 1.383 . S
C106 C93 1.479 . S
C106 C107 1.398 . S
C107 C72 1.382 1_545 S
C107 H84 0.951 1_545 S
C107 C106 1.398 . S
C108 C109 1.384 . S
C108 H121 0.947 . S
C108 C143 1.382 . S
C109 C108 1.384 . S
C109 C110 1.378 . S
C110 C109 1.378 . S
C110 C111 1.378 . S
C110 H122 0.952 . S
C111 C110 1.378 . S
C111 H123 0.950 . S
C111 C142 1.383 . S
H112 C131 0.947 . S
H113 C132 0.946 . S
H114 C134 0.953 . S
H115 C135 0.945 . S
H116 C137 0.952 . S
H117 C138 0.949 . S
H118 C140 0.950 . S
H119 C141 0.948 . S
H120 C143 0.951 1_554 S
H121 C108 0.947 . S
H122 C110 0.952 . S
H123 C111 0.950 . S
N124 C127 1.382 . S
N124 C129 1.363 . S
N125 C127 1.371 . S
N125 C128 1.372 . S
N126 C128 1.361 . S
N126 C129 1.377 . S
C127 N124 1.382 . S
C127 N125 1.371 . S
C127 C130 1.480 . S
C128 N125 1.372 . S
C128 N126 1.361 . S
C128 C136 1.457 . S
C129 N124 1.363 . S
C129 N126 1.377 . S
C129 C142 1.479 1_554 S
C130 C127 1.480 . S
C130 C131 1.383 1_554 S
C130 C135 1.385 . S
C131 H112 0.947 . S
C131 C130 1.383 1_556 S
C131 C132 1.388 . S
C132 H113 0.946 . S
C132 C131 1.388 . S
C132 C133 1.384 1_556 S
C133 C132 1.384 1_554 S
C133 C134 1.377 . S
C134 H114 0.953 . S
C134 C133 1.377 . S
C134 C135 1.369 . S
C135 H115 0.945 . S
C135 C130 1.385 . S
C135 C134 1.369 . S
C136 C128 1.457 . S
C136 C137 1.372 . S
C136 C141 1.364 . S
C137 H116 0.952 . S
C137 C136 1.372 . S
C137 C138 1.389 . S
C138 H117 0.949 . S
C138 C137 1.389 . S
C138 C139 1.387 . S
C139 C138 1.387 . S
C139 C140 1.372 . S
C140 H118 0.950 . S
C140 C139 1.372 . S
C140 C141 1.379 . S
C141 H119 0.948 . S
C141 C136 1.364 . S
C141 C140 1.379 . S
C142 C111 1.383 . S
C142 C129 1.479 1_556 S
C142 C143 1.398 . S
C143 C108 1.382 . S
C143 H120 0.951 1_556 S
C143 C142 1.398 . S
C144 C145 1.384 . S
C144 H157 0.947 . S
C144 C179 1.382 . S
C145 C144 1.384 . S
C145 C146 1.378 . S
C146 C145 1.378 . S
C146 C147 1.378 . S
C146 H158 0.952 1_554 S
C147 C146 1.378 . S
C147 H159 0.950 . S
C147 C178 1.383 . S
H148 C167 0.947 . S
H149 C168 0.946 . S
H150 C170 0.953 . S
H151 C171 0.945 . S
H152 C173 0.952 . S
H153 C174 0.949 . S
H154 C176 0.950 . S
H155 C177 0.948 . S
H156 C179 0.951 . S
H157 C144 0.947 . S
H158 C146 0.952 1_556 S
H159 C147 0.950 . S
N160 C163 1.382 . S
N160 C165 1.363 . S
N161 C163 1.371 . S
N161 C164 1.372 . S
N162 C164 1.361 . S
N162 C165 1.377 . S
C163 N160 1.382 . S
C163 N161 1.371 . S
C163 C166 1.480 . S
C164 N161 1.372 . S
C164 N162 1.361 . S
C164 C172 1.457 . S
C165 N160 1.363 . S
C165 N162 1.377 . S
C165 C178 1.479 . S
C166 C163 1.480 . S
C166 C167 1.383 . S
C166 C171 1.385 . S
C167 H148 0.947 . S
C167 C166 1.383 . S
C167 C168 1.388 . S
C168 H149 0.946 . S
C168 C167 1.388 . S
C168 C169 1.384 . S
C169 C168 1.384 . S
C169 C170 1.377 . S
C170 H150 0.953 . S
C170 C169 1.377 . S
C170 C171 1.369 . S
C171 H151 0.945 . S
C171 C166 1.385 . S
C171 C170 1.369 . S
C172 C164 1.457 . S
C172 C173 1.372 . S
C172 C177 1.364 . S
C173 H152 0.952 . S
C173 C172 1.372 . S
C173 C174 1.389 . S
C174 H153 0.949 . S
C174 C173 1.389 . S
C174 C175 1.387 . S
C175 C174 1.387 . S
C175 C176 1.372 . S
C176 H154 0.950 . S
C176 C175 1.372 . S
C176 C177 1.379 . S
C177 H155 0.948 . S
C177 C172 1.364 . S
C177 C176 1.379 . S
C178 C147 1.383 . S
C178 C165 1.479 . S
C178 C179 1.398 . S
C179 C144 1.382 . S
C179 H156 0.951 . S
C179 C178 1.398 . S
C180 C181 1.384 . S
C180 H193 0.947 . S
C180 C215 1.382 . S
C181 C180 1.384 . S
C181 C182 1.378 . S
C182 C181 1.378 . S
C182 C183 1.378 . S
C182 H194 0.952 . S
C183 C182 1.378 . S
C183 H195 0.950 . S
C183 C214 1.383 . S
H184 C203 0.947 . S
H185 C204 0.946 . S
H186 C206 0.953 . S
H187 C207 0.945 . S
H188 C209 0.952 . S
H189 C210 0.949 . S
H190 C212 0.950 . S
H191 C213 0.948 . S
H192 C215 0.951 . S
H193 C180 0.947 . S
H194 C182 0.952 . S
H195 C183 0.950 . S
N196 C199 1.382 . S
N196 C201 1.363 . S
N197 C199 1.371 . S
N197 C200 1.372 . S
N198 C200 1.361 . S
N198 C201 1.377 . S
C199 N196 1.382 . S
C199 N197 1.371 . S
C199 C202 1.480 . S
C200 N197 1.372 . S
C200 N198 1.361 . S
C200 C208 1.457 . S
C201 N196 1.363 . S
C201 N198 1.377 . S
C201 C214 1.479 . S
C202 C199 1.480 . S
C202 C203 1.383 . S
C202 C207 1.385 . S
C203 H184 0.947 . S
C203 C202 1.383 . S
C203 C204 1.388 . S
C204 H185 0.946 . S
C204 C203 1.388 . S
C204 C205 1.384 . S
C205 C204 1.384 . S
C205 C206 1.377 . S
C206 H186 0.953 . S
C206 C205 1.377 . S
C206 C207 1.369 . S
C207 H187 0.945 . S
C207 C202 1.385 . S
C207 C206 1.369 . S
C208 C200 1.457 . S
C208 C209 1.372 . S
C208 C213 1.364 . S
C209 H188 0.952 . S
C209 C208 1.372 . S
C209 C210 1.389 . S
C210 H189 0.949 . S
C210 C209 1.389 . S
C210 C211 1.387 . S
C211 C210 1.387 . S
C211 C212 1.372 . S
C212 H190 0.950 . S
C212 C211 1.372 . S
C212 C213 1.379 . S
C213 H191 0.948 . S
C213 C208 1.364 . S
C213 C212 1.379 . S
C214 C183 1.383 . S
C214 C201 1.479 . S
C214 C215 1.398 . S
C215 C180 1.382 . S
C215 H192 0.951 . S
C215 C214 1.398 . S
C216 C217 1.384 1_554 S
C216 H229 0.947 . S
C216 C251 1.382 . S
C217 C216 1.384 1_556 S
C217 C218 1.378 . S
C218 C217 1.378 . S
C218 C219 1.378 1_556 S
C218 H230 0.952 . S
C219 C218 1.378 1_554 S
C219 H231 0.950 . S
C219 C250 1.383 . S
H220 C239 0.947 . S
H221 C240 0.946 . S
H222 C242 0.953 . S
H223 C243 0.945 . S
H224 C245 0.952 . S
H225 C246 0.949 . S
H226 C248 0.950 . S
H227 C249 0.948 . S
H228 C251 0.951 . S
H229 C216 0.947 . S
H230 C218 0.952 . S
H231 C219 0.950 . S
N232 C235 1.382 . S
N232 C237 1.363 . S
N233 C235 1.371 . S
N233 C236 1.372 . S
N234 C236 1.361 . S
N234 C237 1.377 . S
C235 N232 1.382 . S
C235 N233 1.371 . S
C235 C238 1.480 . S
C236 N233 1.372 . S
C236 N234 1.361 . S
C236 C244 1.457 . S
C237 N232 1.363 . S
C237 N234 1.377 . S
C237 C250 1.479 . S
C238 C235 1.480 . S
C238 C239 1.383 . S
C238 C243 1.385 . S
C239 H220 0.947 . S
C239 C238 1.383 . S
C239 C240 1.388 . S
C240 H221 0.946 . S
C240 C239 1.388 . S
C240 C241 1.384 . S
C241 C240 1.384 . S
C241 C242 1.377 . S
C242 H222 0.953 . S
C242 C241 1.377 . S
C242 C243 1.369 . S
C243 H223 0.945 . S
C243 C238 1.385 . S
C243 C242 1.369 . S
C244 C236 1.457 . S
C244 C245 1.372 . S
C244 C249 1.364 . S
C245 H224 0.952 . S
C245 C244 1.372 . S
C245 C246 1.389 . S
C246 H225 0.949 . S
C246 C245 1.389 . S
C246 C247 1.387 . S
C247 C246 1.387 . S
C247 C248 1.372 . S
C248 H226 0.950 . S
C248 C247 1.372 . S
C248 C249 1.379 . S
C249 H227 0.948 . S
C249 C244 1.364 . S
C249 C248 1.379 . S
C250 C219 1.383 . S
C250 C237 1.479 . S
C250 C251 1.398 . S
C251 C216 1.382 . S
C251 H228 0.951 . S
C251 C250 1.398 . S
C252 C253 1.384 . S
C252 H265 0.947 . S
C252 C287 1.382 . S
C253 C252 1.384 . S
C253 C254 1.378 . S
C254 C253 1.378 . S
C254 C255 1.378 . S
C254 H266 0.952 . S
C255 C254 1.378 . S
C255 H267 0.950 . S
C255 C286 1.383 . S
H256 C275 0.947 . S
H257 C276 0.946 . S
H258 C278 0.953 . S
H259 C279 0.945 . S
H260 C281 0.952 . S
H261 C282 0.949 1_556 S
H262 C284 0.950 . S
H263 C285 0.948 . S
H264 C287 0.951 . S
H265 C252 0.947 . S
H266 C254 0.952 . S
H267 C255 0.950 . S
N268 C271 1.382 . S
N268 C273 1.363 . S
N269 C271 1.371 . S
N269 C272 1.372 . S
N270 C272 1.361 . S
N270 C273 1.377 . S
C271 N268 1.382 . S
C271 N269 1.371 . S
C271 C274 1.480 . S
C272 N269 1.372 . S
C272 N270 1.361 . S
C272 C280 1.457 . S
C273 N268 1.363 . S
C273 N270 1.377 . S
C273 C286 1.479 . S
C274 C271 1.480 . S
C274 C275 1.383 . S
C274 C279 1.385 . S
C275 H256 0.947 . S
C275 C274 1.383 . S
C275 C276 1.388 . S
C276 H257 0.946 . S
C276 C275 1.388 . S
C276 C277 1.384 . S
C277 C276 1.384 . S
C277 C278 1.377 . S
C278 H258 0.953 . S
C278 C277 1.377 . S
C278 C279 1.369 . S
C279 H259 0.945 . S
C279 C274 1.385 . S
C279 C278 1.369 . S
C280 C272 1.457 . S
C280 C281 1.372 . S
C280 C285 1.364 . S
C281 H260 0.952 . S
C281 C280 1.372 . S
C281 C282 1.389 . S
C282 H261 0.949 1_554 S
C282 C281 1.389 . S
C282 C283 1.387 1_554 S
C283 C282 1.387 1_556 S
C283 C284 1.372 1_556 S
C284 H262 0.950 . S
C284 C283 1.372 1_554 S
C284 C285 1.379 . S
C285 H263 0.948 . S
C285 C280 1.364 . S
C285 C284 1.379 . S
C286 C255 1.383 . S
C286 C273 1.479 . S
C286 C287 1.398 . S
C287 C252 1.382 . S
C287 H264 0.951 . S
C287 C286 1.398 . S
Tb288 O291 2.453 1_665 S
Tb288 O292 2.596 1_665 S
Tb288 O293 2.374 1_655 S
Tb288 O301 2.343 . S
Tb288 O303 2.353 1_565 S
Tb288 O305 2.427 . S
Tb288 O306 2.513 . S
C289 O293 1.251 . S
C289 O295 1.263 . S
Tb290 O292 2.343 . S
Tb290 O295 2.353 1_545 S
Tb290 O298 2.427 . S
Tb290 O299 2.513 . S
Tb290 O300 2.453 1_545 S
Tb290 O301 2.596 1_445 S
Tb290 O302 2.374 1_455 S
O291 Tb288 2.453 1_445 S
O291 C307 1.245 . S
O292 Tb288 2.596 1_445 S
O292 Tb290 2.343 . S
O292 C307 1.259 . S
O293 Tb288 2.374 1_455 S
O293 C289 1.251 . S
C294 O298 1.275 . S
C294 O299 1.246 . S
O295 C289 1.263 . S
O295 Tb290 2.353 1_565 S
C296 O300 1.245 1_655 S
C296 O301 1.259 . S
C297 O302 1.250 . S
C297 O303 1.263 . S
O298 Tb290 2.427 . S
O298 C294 1.275 . S
O299 Tb290 2.513 . S
O299 C294 1.246 . S
O300 Tb290 2.453 1_565 S
O300 C296 1.245 1_455 S
O301 Tb288 2.343 . S
O301 Tb290 2.596 1_665 S
O301 C296 1.259 . S
O302 Tb290 2.374 1_655 S
O302 C297 1.250 . S
O303 Tb288 2.353 1_545 S
O303 C297 1.263 . S
C304 O305 1.275 . S
C304 O306 1.246 . S
O305 Tb288 2.427 . S
O305 C304 1.275 . S
O306 Tb288 2.513 . S
O306 C304 1.246 . S
C307 O291 1.245 . S
C307 O292 1.259 . S
Tb308 O311 2.453 . S
Tb308 O312 2.596 1_545 S
Tb308 O313 2.374 . S
Tb308 O321 2.343 . S
Tb308 O323 2.353 . S
Tb308 O325 2.427 . S
Tb308 O326 2.513 . S
C309 O313 1.251 . S
C309 O315 1.263 1_545 S
Tb310 O312 2.343 . S
Tb310 O315 2.353 . S
Tb310 O318 2.427 . S
Tb310 O319 2.513 . S
Tb310 O320 2.453 . S
Tb310 O321 2.596 1_565 S
Tb310 O322 2.374 . S
O311 Tb308 2.453 . S
O311 C327 1.245 . S
O312 Tb308 2.596 1_565 S
O312 Tb310 2.343 . S
O312 C327 1.259 1_565 S
O313 Tb308 2.374 . S
O313 C309 1.251 . S
C314 O318 1.275 . S
C314 O319 1.246 . S
O315 C309 1.263 1_565 S
O315 Tb310 2.353 . S
C316 O320 1.245 . S
C316 O321 1.259 1_565 S
C317 O322 1.250 1_545 S
C317 O323 1.263 . S
O318 Tb310 2.427 . S
O318 C314 1.275 . S
O319 Tb310 2.513 . S
O319 C314 1.246 . S
O320 Tb310 2.453 . S
O320 C316 1.245 . S
O321 Tb308 2.343 . S
O321 Tb310 2.596 1_545 S
O321 C316 1.259 1_545 S
O322 Tb310 2.374 . S
O322 C317 1.250 1_565 S
O323 Tb308 2.353 . S
O323 C317 1.263 . S
C324 O325 1.275 . S
C324 O326 1.246 . S
O325 Tb308 2.427 . S
O325 C324 1.275 . S
O326 Tb308 2.513 . S
O326 C324 1.246 . S
C327 O311 1.245 . S
C327 O312 1.259 1_545 S
Tb328 O331 2.453 . S
Tb328 O332 2.596 . S
Tb328 O333 2.374 . S
Tb328 O341 2.343 . S
Tb328 O343 2.353 . S
Tb328 O345 2.427 . S
Tb328 O346 2.513 . S
C329 O333 1.251 . S
C329 O335 1.263 . S
Tb330 O332 2.343 . S
Tb330 O335 2.353 . S
Tb330 O338 2.427 . S
Tb330 O339 2.513 . S
Tb330 O340 2.453 . S
Tb330 O341 2.596 . S
Tb330 O342 2.374 . S
O331 Tb328 2.453 . S
O331 C347 1.245 . S
O332 Tb328 2.596 . S
O332 Tb330 2.343 . S
O332 C347 1.259 . S
O333 Tb328 2.374 . S
O333 C329 1.251 . S
C334 O338 1.275 . S
C334 O339 1.246 . S
O335 C329 1.263 . S
O335 Tb330 2.353 . S
C336 O340 1.245 . S
C336 O341 1.259 . S
C337 O342 1.250 . S
C337 O343 1.263 . S
O338 Tb330 2.427 . S
O338 C334 1.275 . S
O339 Tb330 2.513 . S
O339 C334 1.246 . S
O340 Tb330 2.453 . S
O340 C336 1.245 . S
O341 Tb328 2.343 . S
O341 Tb330 2.596 . S
O341 C336 1.259 . S
O342 Tb330 2.374 . S
O342 C337 1.250 . S
O343 Tb328 2.353 . S
O343 C337 1.263 . S
C344 O345 1.275 . S
C344 O346 1.246 . S
O345 Tb328 2.427 . S
O345 C344 1.275 . S
O346 Tb328 2.513 . S
O346 C344 1.246 . S
C347 O331 1.245 . S
C347 O332 1.259 . S
Tb348 O351 2.453 1_655 S
Tb348 O352 2.596 1_655 S
Tb348 O353 2.374 1_655 S
Tb348 O361 2.343 . S
Tb348 O363 2.353 . S
Tb348 O365 2.427 . S
Tb348 O366 2.513 . S
C349 O353 1.251 . S
C349 O355 1.263 . S
Tb350 O352 2.343 . S
Tb350 O355 2.353 . S
Tb350 O358 2.427 . S
Tb350 O359 2.513 . S
Tb350 O360 2.453 1_455 S
Tb350 O361 2.596 1_455 S
Tb350 O362 2.386 . S
O351 Tb348 2.453 1_455 S
O351 C367 1.245 . S
O352 Tb348 2.596 1_455 S
O352 Tb350 2.343 . S
O352 C367 1.259 . S
O353 Tb348 2.374 1_455 S
O353 C349 1.251 . S
C354 O358 1.275 . S
C354 O359 1.246 . S
O355 C349 1.263 . S
O355 Tb350 2.353 . S
C356 O360 1.245 . S
C356 O361 1.259 . S
C357 O362 1.235 1_655 S
C357 O363 1.263 . S
O358 Tb350 2.427 . S
O358 C354 1.275 . S
O359 Tb350 2.513 . S
O359 C354 1.246 . S
O360 Tb350 2.453 1_655 S
O360 C356 1.245 . S
O361 Tb348 2.343 . S
O361 Tb350 2.596 1_655 S
O361 C356 1.259 . S
O362 Tb350 2.386 . S
O362 C357 1.235 1_455 S
O363 Tb348 2.353 . S
O363 C357 1.263 . S
C364 O365 1.275 . S
C364 O366 1.246 . S
O365 Tb348 2.427 . S
O365 C364 1.275 . S
O366 Tb348 2.513 . S
O366 C364 1.246 . S
C367 O351 1.245 . S
C367 O352 1.259 . S
C368 C369 1.387 1_565 S
C368 H372 0.950 . S
C368 C377 1.390 . S
C369 C368 1.387 1_545 S
C369 C371 1.387 . S
H370 C377 0.950 . S
C371 C369 1.387 . S
C371 C373 1.390 . S
C371 H375 0.950 . S
H372 C368 0.950 . S
C373 C371 1.390 . S
C373 C374 1.372 1_545 S
C373 H376 0.950 . S
C374 C373 1.372 1_565 S
C374 C377 1.402 . S
H375 C371 0.950 . S
H376 C373 0.950 . S
C377 C368 1.390 . S
C377 H370 0.950 . S
C377 C374 1.402 . S
C378 C379 1.387 . S
C378 H382 0.950 . S
C378 C387 1.390 . S
C379 C378 1.387 . S
C379 C381 1.387 . S
H380 C387 0.950 . S
C381 C379 1.387 . S
C381 C383 1.390 . S
C381 H385 0.950 . S
H382 C378 0.950 . S
C383 C381 1.390 . S
C383 C384 1.387 . S
C383 H386 0.950 . S
C384 C383 1.387 . S
C384 C387 1.387 . S
H385 C381 0.950 . S
H386 C383 0.950 . S
C387 C378 1.390 . S
C387 H380 0.950 . S
C387 C384 1.387 . S
C388 C389 1.387 . S
C388 H392 0.950 . S
C388 C397 1.390 . S
C389 C388 1.387 . S
C389 C391 1.387 . S
H390 C397 0.950 . S
C391 C389 1.387 . S
C391 C393 1.390 . S
C391 H395 0.950 . S
H392 C388 0.950 . S
C393 C391 1.390 . S
C393 C394 1.387 . S
C393 H396 0.950 . S
C394 C393 1.387 . S
C394 C397 1.387 . S
H395 C391 0.950 . S
H396 C393 0.950 . S
C397 C388 1.390 . S
C397 H390 0.950 . S
C397 C394 1.387 . S
C398 C399 1.387 . S
C398 H402 0.950 . S
C398 C407 1.390 . S
C399 C398 1.387 . S
C399 C401 1.387 . S
H400 C407 0.950 . S
C401 C399 1.387 . S
C401 C403 1.390 . S
C401 H405 0.950 . S
H402 C398 0.950 . S
C403 C401 1.390 . S
C403 C404 1.387 . S
C403 H406 0.950 . S
C404 C403 1.387 . S
C404 C407 1.387 . S
H405 C401 0.950 . S
H406 C403 0.950 . S
C407 C398 1.390 . S
C407 H400 0.950 . S
C407 C404 1.387 . S
C408 C409 1.387 . S
C408 H412 0.950 . S
C408 C417 1.390 . S
C409 C408 1.387 . S
C409 C411 1.387 1_545 S
H410 C417 0.950 . S
C411 C409 1.387 1_565 S
C411 C413 1.390 . S
C411 H415 0.950 . S
H412 C408 0.950 . S
C413 C411 1.390 . S
C413 C414 1.387 1_565 S
C413 H416 0.950 . S
C414 C413 1.387 1_545 S
C414 C417 1.387 . S
H415 C411 0.950 . S
H416 C413 0.950 . S
C417 C408 1.390 . S
C417 H410 0.950 . S
C417 C414 1.387 . S
C418 C419 1.387 . S
C418 H422 0.950 . S
C418 C427 1.390 . S
C419 C418 1.387 . S
C419 C421 1.387 . S
H420 C427 0.950 . S
C421 C419 1.387 . S
C421 C423 1.390 . S
C421 H425 0.950 . S
H422 C418 0.950 . S
C423 C421 1.390 . S
C423 C424 1.387 . S
C423 H426 0.950 . S
C424 C423 1.387 . S
C424 C427 1.387 . S
H425 C421 0.950 . S
H426 C423 0.950 . S
C427 C418 1.390 . S
C427 H420 0.950 . S
C427 C424 1.387 . S
C428 C429 1.387 . S
C428 H432 0.950 . S
C428 C437 1.390 . S
C429 C428 1.387 . S
C429 C431 1.387 . S
H430 C437 0.950 . S
C431 C429 1.387 . S
C431 C433 1.390 . S
C431 H435 0.950 . S
H432 C428 0.950 . S
C433 C431 1.390 . S
C433 C434 1.387 . S
C433 H436 0.950 . S
C434 C433 1.387 . S
C434 C437 1.387 . S
H435 C431 0.950 . S
H436 C433 0.950 . S
C437 C428 1.390 . S
C437 H430 0.950 . S
C437 C434 1.387 . S
C438 C439 1.387 . S
C438 H442 0.950 . S
C438 C447 1.390 . S
C439 C438 1.387 . S
C439 C441 1.387 . S
H440 C447 0.950 . S
C441 C439 1.387 . S
C441 C443 1.390 . S
C441 H445 0.950 . S
H442 C438 0.950 . S
C443 C441 1.390 . S
C443 C444 1.387 . S
C443 H446 0.950 . S
C444 C443 1.387 . S
C444 C447 1.387 . S
H445 C441 0.950 . S
H446 C443 0.950 . S
C447 C438 1.390 . S
C447 H440 0.950 . S
C447 C444 1.387 . S
C448 C449 1.387 . S
C448 H452 0.950 . S
C448 C457 1.390 . S
C449 C448 1.387 . S
C449 C451 1.387 . S
H450 C457 0.950 . S
C451 C449 1.387 . S
C451 C453 1.390 . S
C451 H455 0.950 . S
H452 C448 0.950 . S
C453 C451 1.390 . S
C453 C454 1.387 . S
C453 H456 0.950 . S
C454 C453 1.387 . S
C454 C457 1.387 . S
H455 C451 0.950 . S
H456 C453 0.950 . S
C457 C448 1.390 . S
C457 H450 0.950 . S
C457 C454 1.387 . S
C458 C459 1.387 . S
C458 H462 0.950 . S
C458 C467 1.390 . S
C459 C458 1.387 . S
C459 C461 1.387 1_545 S
H460 C467 0.950 . S
C461 C459 1.387 1_565 S
C461 C463 1.390 . S
C461 H465 0.950 . S
H462 C458 0.950 . S
C463 C461 1.390 . S
C463 C464 1.369 1_565 S
C463 H466 0.950 . S
C464 C463 1.369 1_545 S
C464 C467 1.413 . S
H465 C461 0.950 . S
H466 C463 0.950 . S
C467 C458 1.390 . S
C467 H460 0.950 . S
C467 C464 1.413 . S
C468 C469 1.387 . S
C468 H472 0.950 . S
C468 C477 1.390 . S
C469 C468 1.387 . S
C469 C471 1.387 . S
H470 C477 0.950 . S
C471 C469 1.387 . S
C471 C473 1.390 . S
C471 H475 0.950 . S
H472 C468 0.950 . S
C473 C471 1.390 . S
C473 C474 1.387 . S
C473 H476 0.950 . S
C474 C473 1.387 . S
C474 C477 1.387 . S
H475 C471 0.950 . S
H476 C473 0.950 . S
C477 C468 1.390 . S
C477 H470 0.950 . S
C477 C474 1.387 . S
C478 C479 1.387 . S
C478 H482 0.950 . S
C478 C487 1.390 . S
C479 C478 1.387 . S
C479 C481 1.387 . S
H480 C487 0.950 . S
C481 C479 1.387 . S
C481 C483 1.390 . S
C481 H485 0.950 . S
H482 C478 0.950 . S
C483 C481 1.390 . S
C483 C484 1.387 . S
C483 H486 0.950 . S
C484 C483 1.387 . S
C484 C487 1.387 . S
H485 C481 0.950 . S
H486 C483 0.950 . S
C487 C478 1.390 . S
C487 H480 0.950 . S
C487 C484 1.387 . S
C488 C489 1.387 . S
C488 H492 0.950 . S
C488 C497 1.390 . S
C489 C488 1.387 . S
C489 C491 1.387 . S
H490 C497 0.950 . S
C491 C489 1.387 . S
C491 C493 1.390 . S
C491 H495 0.950 . S
H492 C488 0.950 . S
C493 C491 1.390 . S
C493 C494 1.387 . S
C493 H496 0.950 . S
C494 C493 1.387 . S
C494 C497 1.387 . S
H495 C491 0.950 . S
H496 C493 0.950 . S
C497 C488 1.390 . S
C497 H490 0.950 . S
C497 C494 1.387 . S
C498 C499 1.393 . S
C498 H502 0.950 . S
C498 C507 1.390 . S
C499 C498 1.393 . S
C499 C501 1.385 1_545 S
H500 C507 0.950 . S
C501 C499 1.385 1_565 S
C501 C503 1.390 . S
C501 H505 0.950 . S
H502 C498 0.950 . S
C503 C501 1.390 . S
C503 C504 1.387 1_565 S
C503 H506 0.950 . S
C504 C503 1.387 1_545 S
C504 C507 1.387 . S
H505 C501 0.950 . S
H506 C503 0.950 . S
C507 C498 1.390 . S
C507 H500 0.950 . S
C507 C504 1.387 . S
C508 C509 1.387 . S
C508 H512 0.950 . S
C508 C517 1.390 . S
C509 C508 1.387 . S
C509 C511 1.387 . S
H510 C517 0.950 . S
C511 C509 1.387 . S
C511 C513 1.390 . S
C511 H515 0.950 . S
H512 C508 0.950 . S
C513 C511 1.390 . S
C513 C514 1.387 . S
C513 H516 0.950 . S
C514 C513 1.387 . S
C514 C517 1.387 . S
H515 C511 0.950 . S
H516 C513 0.950 . S
C517 C508 1.390 . S
C517 H510 0.950 . S
C517 C514 1.387 . S
C518 C519 1.387 . S
C518 H522 0.950 . S
C518 C527 1.390 . S
C519 C518 1.387 . S
C519 C521 1.387 . S
H520 C527 0.950 . S
C521 C519 1.387 . S
C521 C523 1.390 . S
C521 H525 0.950 . S
H522 C518 0.950 . S
C523 C521 1.390 . S
C523 C524 1.387 . S
C523 H526 0.950 . S
C524 C523 1.387 . S
C524 C527 1.387 . S
H525 C521 0.950 . S
H526 C523 0.950 . S
C527 C518 1.390 . S
C527 H520 0.950 . S
C527 C524 1.387 . S
C528 C529 1.387 1_554 S
C528 H532 0.950 . S
C528 C537 1.390 1_554 S
C529 C528 1.387 1_556 S
C529 C531 1.387 . S
H530 C537 0.950 1_554 S
C531 C529 1.387 . S
C531 C533 1.390 . S
C531 H535 0.950 . S
H532 C528 0.950 . S
C533 C531 1.390 . S
C533 C534 1.387 . S
C533 H536 0.950 . S
C534 C533 1.387 . S
C534 C537 1.387 . S
H535 C531 0.950 . S
H536 C533 0.950 . S
C537 C528 1.390 1_556 S
C537 H530 0.950 1_556 S
C537 C534 1.387 . S
C538 C539 1.387 1_565 S
C538 H542 0.950 . S
C538 C547 1.390 . S
C539 C538 1.387 1_545 S
C539 C541 1.387 . S
H540 C547 0.950 . S
C541 C539 1.387 . S
C541 C543 1.390 . S
C541 H545 0.950 . S
H542 C538 0.950 . S
C543 C541 1.390 . S
C543 C544 1.387 . S
C543 H546 0.950 . S
C544 C543 1.387 . S
C544 C547 1.387 1_545 S
H545 C541 0.950 . S
H546 C543 0.950 . S
C547 C538 1.390 . S
C547 H540 0.950 . S
C547 C544 1.387 1_565 S
C548 C549 1.387 . S
C548 H552 0.950 . S
C548 C557 1.390 . S
C549 C548 1.387 . S
C549 C551 1.387 . S
H550 C557 0.950 . S
C551 C549 1.387 . S
C551 C553 1.390 . S
C551 H555 0.950 1_556 S
H552 C548 0.950 . S
C553 C551 1.390 . S
C553 C554 1.387 . S
C553 H556 0.950 1_556 S
C554 C553 1.387 . S
C554 C557 1.387 . S
H555 C551 0.950 1_554 S
H556 C553 0.950 1_554 S
C557 C548 1.390 . S
C557 H550 0.950 . S
C557 C554 1.387 . S
C558 C559 1.387 . S
C558 H562 0.950 . S
C558 C567 1.390 . S
C559 C558 1.387 . S
C559 C561 1.387 . S
H560 C567 0.950 . S
C561 C559 1.387 . S
C561 C563 1.390 . S
C561 H565 0.950 . S
H562 C558 0.950 . S
C563 C561 1.390 . S
C563 C564 1.387 . S
C563 H566 0.950 . S
C564 C563 1.387 . S
C564 C567 1.387 . S
H565 C561 0.950 . S
H566 C563 0.950 . S
C567 C558 1.390 . S
C567 H560 0.950 . S
C567 C564 1.387 . S
C568 C569 1.387 . S
C568 H572 0.950 . S
C568 C577 1.390 . S
C569 C568 1.387 . S
C569 C571 1.387 . S
H570 C577 0.950 . S
C571 C569 1.387 . S
C571 C573 1.390 . S
C571 H575 0.950 . S
H572 C568 0.950 . S
C573 C571 1.390 . S
C573 C574 1.387 . S
C573 H576 0.950 . S
C574 C573 1.387 . S
C574 C577 1.387 . S
H575 C571 0.950 . S
H576 C573 0.950 . S
C577 C568 1.390 . S
C577 H570 0.950 . S
C577 C574 1.387 . S
C578 C579 1.396 . S
C578 H582 0.950 . S
C578 C587 1.390 . S
C579 C578 1.396 . S
C579 C581 1.380 1_545 S
H580 C587 0.950 . S
C581 C579 1.380 1_565 S
C581 C583 1.390 . S
C581 H585 0.950 . S
H582 C578 0.950 . S
C583 C581 1.390 . S
C583 C584 1.362 1_565 S
C583 H586 0.950 . S
C584 C583 1.362 1_545 S
C584 C587 1.411 . S
H585 C581 0.950 . S
H586 C583 0.950 . S
C587 C578 1.390 . S
C587 H580 0.950 . S
C587 C584 1.411 . S
C588 C589 1.387 . S
C588 H592 0.950 . S
C588 C597 1.390 . S
C589 C588 1.387 . S
C589 C591 1.387 . S
H590 C597 0.950 . S
C591 C589 1.387 . S
C591 C593 1.390 . S
C591 H595 0.950 . S
H592 C588 0.950 . S
C593 C591 1.390 . S
C593 C594 1.387 . S
C593 H596 0.950 . S
C594 C593 1.387 . S
C594 C597 1.387 . S
H595 C591 0.950 . S
H596 C593 0.950 . S
C597 C588 1.390 . S
C597 H590 0.950 . S
C597 C594 1.387 . S
C598 C599 1.387 . S
C598 H602 0.950 . S
C598 C607 1.390 . S
C599 C598 1.387 . S
C599 C601 1.387 . S
H600 C607 0.950 . S
C601 C599 1.387 . S
C601 C603 1.390 . S
C601 H605 0.950 . S
H602 C598 0.950 . S
C603 C601 1.390 . S
C603 C604 1.387 . S
C603 H606 0.950 . S
C604 C603 1.387 . S
C604 C607 1.387 . S
H605 C601 0.950 . S
H606 C603 0.950 . S
C607 C598 1.390 . S
C607 H600 0.950 . S
C607 C604 1.387 . S
C369 C241 1.581 . S
C374 C289 1.637 . S
C384 C324 2.352 . S
C379 C277 2.066 . S
C394 C329 1.530 . S
C389 C169 1.467 . S
C404 C349 2.094 . S
C399 C205 1.954 . S
C414 C297 1.634 . S
C409 C97 1.567 1_556 S
C419 C133 2.181 1_556 S
C424 C314 2.351 . S
C429 C25 1.513 . S
C434 C337 1.530 . S
C439 C61 1.843 . S
C444 C357 2.095 . S
C454 C307 1.982 . S
C449 C211 1.716 . S
C464 C316 0.967 1_545 S
C459 C247 0.949 . S
C474 C347 2.064 . S
C469 C253 1.706 . S
C479 C175 1.107 . S
C484 C367 1.230 . S
C489 C67 1.591 . S
C494 C296 1.982 . S
C504 C327 0.983 . S
C499 C103 0.947 . S
C514 C336 2.066 . S
C509 C109 1.816 . S
C519 C31 1.143 . S
C524 C356 1.230 . S
C529 C181 2.105 1_556 S
C534 C294 2.294 . S
C539 C217 1.896 . S
C544 C317 2.116 . S
C554 C334 2.492 . S
C549 C283 2.106 . S
C564 C354 2.212 . S
C559 C145 1.982 1_556 S
C569 C37 2.039 . S
C574 C304 2.293 . S
C584 C309 2.121 . S
C579 C73 1.899 . S
C594 C344 2.492 . S
C589 C139 2.202 . S
C599 C1 2.017 . S
C604 C364 2.212 . S
