# Generated by pormake.
# Topology ssa, (4,4)-cn, num edge types: 1
# Building blocks:
#     Node 0, Type 0, BuildingBlock: KOZSID_clean_sbu_0, # of connection points: 4
#     Node 1, Type 0, BuildingBlock: KOZSID_clean_sbu_0, # of connection points: 4
#     Node 2, Type 0, BuildingBlock: KOZSID_clean_sbu_0, # of connection points: 4
#     Node 3, Type 0, BuildingBlock: KOZSID_clean_sbu_0, # of connection points: 4
#     Node 4, Type 0, BuildingBlock: KOZSID_clean_sbu_0, # of connection points: 4
#     Node 5, Type 0, BuildingBlock: KOZSID_clean_sbu_0, # of connection points: 4
#     Node 6, Type 1, BuildingBlock: KUFVIS_clean_linker_0, # of connection points: 4
#     Node 7, Type 1, BuildingBlock: KUFVIS_clean_linker_0, # of connection points: 4
#     Node 8, Type 1, BuildingBlock: KUFVIS_clean_linker_0, # of connection points: 4
#     Node 9, Type 1, BuildingBlock: KUFVIS_clean_linker_0, # of connection points: 4
#     Node 10, Type 1, BuildingBlock: KUFVIS_clean_linker_0, # of connection points: 4
#     Node 11, Type 1, BuildingBlock: KUFVIS_clean_linker_0, # of connection points: 4
#     Edge 12, Type (0, 1), BuildingBlock: XUDNAN_clean_linker_2, # of connection points: 2
#     Edge 13, Type (0, 1), BuildingBlock: XUDNAN_clean_linker_2, # of connection points: 2
#     Edge 14, Type (0, 1), BuildingBlock: XUDNAN_clean_linker_2, # of connection points: 2
#     Edge 15, Type (0, 1), BuildingBlock: XUDNAN_clean_linker_2, # of connection points: 2
#     Edge 16, Type (0, 1), BuildingBlock: XUDNAN_clean_linker_2, # of connection points: 2
#     Edge 17, Type (0, 1), BuildingBlock: XUDNAN_clean_linker_2, # of connection points: 2
#     Edge 18, Type (0, 1), BuildingBlock: XUDNAN_clean_linker_2, # of connection points: 2
#     Edge 19, Type (0, 1), BuildingBlock: XUDNAN_clean_linker_2, # of connection points: 2
#     Edge 20, Type (0, 1), BuildingBlock: XUDNAN_clean_linker_2, # of connection points: 2
#     Edge 21, Type (0, 1), BuildingBlock: XUDNAN_clean_linker_2, # of connection points: 2
#     Edge 22, Type (0, 1), BuildingBlock: XUDNAN_clean_linker_2, # of connection points: 2
#     Edge 23, Type (0, 1), BuildingBlock: XUDNAN_clean_linker_2, # of connection points: 2
#     Edge 24, Type (0, 1), BuildingBlock: XUDNAN_clean_linker_2, # of connection points: 2
#     Edge 25, Type (0, 1), BuildingBlock: XUDNAN_clean_linker_2, # of connection points: 2
#     Edge 26, Type (0, 1), BuildingBlock: XUDNAN_clean_linker_2, # of connection points: 2
#     Edge 27, Type (0, 1), BuildingBlock: XUDNAN_clean_linker_2, # of connection points: 2
#     Edge 28, Type (0, 1), BuildingBlock: XUDNAN_clean_linker_2, # of connection points: 2
#     Edge 29, Type (0, 1), BuildingBlock: XUDNAN_clean_linker_2, # of connection points: 2
#     Edge 30, Type (0, 1), BuildingBlock: XUDNAN_clean_linker_2, # of connection points: 2
#     Edge 31, Type (0, 1), BuildingBlock: XUDNAN_clean_linker_2, # of connection points: 2
#     Edge 32, Type (0, 1), BuildingBlock: XUDNAN_clean_linker_2, # of connection points: 2
#     Edge 33, Type (0, 1), BuildingBlock: XUDNAN_clean_linker_2, # of connection points: 2
#     Edge 34, Type (0, 1), BuildingBlock: XUDNAN_clean_linker_2, # of connection points: 2
#     Edge 35, Type (0, 1), BuildingBlock: XUDNAN_clean_linker_2, # of connection points: 2
# Relax obj value: 0.005
# Max RMSD: 0.054
# Mean RMSD: 0.030
data_MOF--net-ssa--node1-KOZSID_clean_sbu_0--node2-KUFVIS_clean_linker_0--edge1-XUDNAN_clean_linker_2
_symmetry_space_group_name_H-M    P1
_symmetry_Int_Tables_number       1
_symmetry_cell_setting            triclinic
loop_
_symmetry_equiv_pos_as_xyz
'x, y, z'
_cell_length_a     58.376271
_cell_length_b     59.747507
_cell_length_c     32.747035
_cell_angle_alpha  87.021349
_cell_angle_beta   89.909932
_cell_angle_gamma 122.29131
loop_
_atom_site_label
_atom_site_type_symbol
_atom_site_fract_x
_atom_site_fract_y
_atom_site_fract_z
_atom_type_partial_charge
C0 C 0.96021 0.5134 0.01672 0.0
C1 C 0.94303 0.51038 0.04884 0.0
C2 C 0.94933 0.50012 0.08197 0.0
C3 C 0.97011 0.49777 0.06839 0.0
N4 N 0.97796 0.50651 0.02887 0.0
Co5 Co 0.00733 0.50653 0.99693 0.0
N6 N 0.01503 0.4892 0.04457 0.0
C7 C 1.00171 0.481 0.08144 0.0
C8 C 0.01296 0.47203 0.10925 0.0
C9 C 0.03515 0.47522 0.08939 0.0
C10 C 0.03611 0.48583 0.05018 0.0
N11 N 0.03685 0.50669 0.96514 0.0
C12 C 0.0555 0.5012 0.97804 0.0
C13 C 0.07332 0.50494 0.94645 0.0
C14 C 0.06633 0.51411 0.91274 0.0
C15 C 0.04465 0.51526 0.92557 0.0
N16 N 0.99959 0.52382 0.94925 0.0
C17 C 0.01251 0.53137 0.91205 0.0
C18 C 1.00124 0.54024 0.88416 0.0
C19 C 0.97952 0.53781 0.90437 0.0
C20 C 0.97888 0.52781 0.94393 0.0
N21 N 0.03487 0.54191 0.01632 0.0
C22 C 0.078 0.58927 0.04619 0.0
C23 C 0.07654 0.58486 0.0045 0.0
C24 C 0.05482 0.56136 0.99028 0.0
C25 C 0.05689 0.57004 0.0723 0.0
C26 C 0.03574 0.54679 0.05689 0.0
N27 N 0.97975 0.47107 0.97747 0.0
C28 C 0.95809 0.44263 0.92158 0.0
C29 C 0.93684 0.42342 0.94756 0.0
C30 C 0.93811 0.42804 0.98917 0.0
C31 C 0.95963 0.45169 0.00338 0.0
C32 C 0.97913 0.46598 0.93702 0.0
H33 H 0.95924 0.45402 0.03532 0.0
H34 H 0.99427 0.47987 0.9153 0.0
H35 H 0.05491 0.55912 0.95822 0.0
H36 H 0.02074 0.53274 0.07868 0.0
C37 C 0.98139 0.48573 0.091 0.0
C38 C 0.95735 0.52079 0.97463 0.0
C39 C 0.05847 0.49442 0.02037 0.0
C40 C 0.03299 0.52681 0.90267 0.0
H41 H 0.92691 0.51425 0.04798 0.0
H42 H 0.93932 0.49421 0.11194 0.0
H43 H 0.00679 0.46557 0.14106 0.0
H44 H 0.04955 0.47131 0.10321 0.0
H45 H 0.09028 0.50234 0.94812 0.0
H46 H 0.07666 0.5204 0.88298 0.0
H47 H 0.00718 0.54634 0.85222 0.0
H48 H 0.96527 0.54196 0.89059 0.0
H49 H 0.09214 0.5994 0.9829 0.0
H50 H 0.05709 0.57239 0.1049 0.0
H51 H 0.95811 0.44021 0.88904 0.0
H52 H 0.92248 0.41356 0.01078 0.0
C53 C 0.54819 0.03296 0.56333 0.0
C54 C 0.55301 0.03159 0.60465 0.0
C55 C 0.53023 0.00984 0.62213 0.0
C56 C 0.51274 0.99923 0.59082 0.0
N57 N 0.52321 0.01252 0.55407 0.0
Co58 Co 0.50363 0.00548 0.50127 0.0
N59 N 0.46867 0.97646 0.52852 0.0
C60 C 0.46406 0.96871 0.56878 0.0
C61 C 0.43839 0.94738 0.5781 0.0
C62 C 0.42607 0.94067 0.54145 0.0
C63 C 0.44509 0.95827 0.5118 0.0
N64 N 0.48411 0.99821 0.44837 0.0
C65 C 0.45919 0.97764 0.43916 0.0
C66 C 0.45451 0.97861 0.39771 0.0
C67 C 0.47732 1.00027 0.38008 0.0
C68 C 0.49469 0.01118 0.41146 0.0
N69 N 0.53853 0.03469 0.47411 0.0
C70 C 0.54299 0.04286 0.43399 0.0
C71 C 0.56852 0.06447 0.42483 0.0
C72 C 0.58087 0.07098 0.46147 0.0
C73 C 0.56202 0.05297 0.49096 0.0
N74 N 0.51271 0.97868 0.48932 0.0
C75 C 0.5167 0.93568 0.46806 0.0
C76 C 0.52303 0.95652 0.43947 0.0
C77 C 0.52131 0.97781 0.4508 0.0
C78 C 0.51004 0.93753 0.50817 0.0
C79 C 0.50813 0.95903 0.51806 0.0
N80 N 0.49456 0.03231 0.51316 0.0
C81 C 0.49552 0.0724 0.49267 0.0
C82 C 0.4911 0.0758 0.53313 0.0
C83 C 0.48667 0.05621 0.56297 0.0
C84 C 0.48801 0.03459 0.55229 0.0
C85 C 0.49725 0.05071 0.48343 0.0
H86 H 0.48445 0.0204 0.57649 0.0
H87 H 0.50162 0.04973 0.45225 0.0
H88 H 0.52629 0.99295 0.4275 0.0
H89 H 0.50209 0.95888 0.54882 0.0
C90 C 0.48522 0.97951 0.59605 0.0
C91 C 0.56673 0.0552 0.53476 0.0
C92 C 0.44049 0.95569 0.46803 0.0
C93 C 0.522 0.03153 0.40648 0.0
H94 H 0.57052 0.04549 0.62114 0.0
H95 H 0.52624 1.00356 0.65433 0.0
H96 H 0.43011 0.93703 0.60769 0.0
H97 H 0.4058 0.92402 0.53678 0.0
H98 H 0.43702 0.96457 0.38133 0.0
H99 H 0.48134 0.00641 0.34784 0.0
H100 H 0.57672 0.075 0.39533 0.0
H101 H 0.60107 0.08772 0.46625 0.0
H102 H 0.52901 0.95626 0.40824 0.0
H103 H 0.50522 0.92194 0.53144 0.0
H104 H 0.49879 0.087 0.4685 0.0
H105 H 0.48248 0.05773 0.59461 0.0
C106 C 0.55776 0.52977 0.95538 0.0
C107 C 0.56999 0.54294 0.918 0.0
C108 C 0.55099 0.54492 0.89671 0.0
C109 C 0.52837 0.53299 0.92225 0.0
N110 N 0.53199 0.52409 0.959 0.0
Co111 Co 0.50393 0.50368 0.00411 0.0
N112 N 0.4746 0.5023 0.97016 0.0
C113 C 0.47723 0.51222 0.93114 0.0
C114 C 0.45398 0.5098 0.91685 0.0
C115 C 0.43556 0.49818 0.94892 0.0
C116 C 0.4487 0.49416 0.98103 0.0
N117 N 0.47591 0.4834 0.04933 0.0
C118 C 0.44998 0.47729 0.05266 0.0
C119 C 0.43787 0.4645 0.09029 0.0
C120 C 0.45706 0.4631 0.11198 0.0
C121 C 0.47967 0.47502 0.08643 0.0
N122 N 0.53322 0.50485 0.03792 0.0
C123 C 0.53055 0.49478 0.07685 0.0
C124 C 0.55355 0.49657 0.09083 0.0
C125 C 0.57182 0.50781 0.05859 0.0
C126 C 0.55889 0.51235 0.0267 0.0
N127 N 0.51124 0.53733 0.02592 0.0
C128 C 0.5137 0.58135 0.05862 0.0
C129 C 0.51556 0.56279 0.08378 0.0
C130 C 0.51435 0.54117 0.06694 0.0
C131 C 0.51189 0.57816 0.01659 0.0
C132 C 0.51102 0.55638 0.00098 0.0
N133 N 0.49665 0.47009 0.98229 0.0
C134 C 0.49485 0.42871 0.99202 0.0
C135 C 0.49529 0.4266 0.94977 0.0
C136 C 0.49477 0.4458 0.92427 0.0
C137 C 0.49525 0.46705 0.94102 0.0
C138 C 0.4954 0.45039 0.00751 0.0
H139 H 0.49517 0.48112 0.91984 0.0
H140 H 0.49556 0.45114 0.03993 0.0
H141 H 0.51525 0.52748 0.08791 0.0
H142 H 0.50958 0.55512 0.96872 0.0
C143 C 0.50259 0.5266 0.91064 0.0
C144 C 0.57083 0.5216 0.98534 0.0
C145 C 0.4366 0.48472 0.02221 0.0
C146 C 0.50534 0.481 0.09772 0.0
H147 H 0.59019 0.54946 0.90672 0.0
H148 H 0.55297 0.55278 0.86547 0.0
H149 H 0.4512 0.51694 0.88738 0.0
H150 H 0.41516 0.49417 0.9492 0.0
H151 H 0.41757 0.45774 0.10137 0.0
H152 H 0.45513 0.45541 0.14331 0.0
H153 H 0.55622 0.4892 0.12018 0.0
H154 H 0.59194 0.51113 0.05813 0.0
H155 H 0.51701 0.56439 0.1166 0.0
H156 H 0.51105 0.59237 0.99575 0.0
H157 H 0.495 0.41421 0.01311 0.0
H158 H 0.49417 0.44459 0.89136 0.0
C159 C 0.95627 0.4506 0.48587 0.0
C160 C 0.93878 0.4362 0.45547 0.0
C161 C 0.94571 0.45335 0.42187 0.0
C162 C 0.96711 0.47706 0.43347 0.0
N163 N 0.97467 0.47594 0.47217 0.0
Co164 Co 1.00476 0.50578 0.50141 0.0
N165 N 0.01216 0.532 0.45446 0.0
C166 C 0.99829 0.52718 0.41957 0.0
C167 C 0.00832 0.549 0.39272 0.0
C168 C 0.03011 0.56888 0.4113 0.0
C169 C 0.0322 0.55794 0.44847 0.0
N170 N 0.03541 0.53559 0.5302 0.0
C171 C 0.05363 0.56105 0.51659 0.0
C172 C 0.07292 0.57471 0.54542 0.0
C173 C 0.0669 0.55721 0.57821 0.0
C174 C 0.04446 0.53394 0.56752 0.0
N175 N 0.9967 0.47962 0.54887 0.0
C176 C 0.00992 0.48473 0.58441 0.0
C177 C 0.99804 0.46392 0.61321 0.0
C178 C 0.97552 0.44447 0.59548 0.0
C179 C 0.97509 0.45441 0.55633 0.0
N180 N 0.03114 0.49838 0.47678 0.0
C181 C 0.07126 0.49219 0.44052 0.0
C182 C 0.06866 0.4919 0.483 0.0
C183 C 0.04866 0.49506 0.50035 0.0
C184 C 0.05286 0.49472 0.4167 0.0
C185 C 0.03312 0.49761 0.43523 0.0
N186 N 0.97838 0.51307 0.52597 0.0
C187 C 0.95913 0.52036 0.58553 0.0
C188 C 0.93708 0.51692 0.56347 0.0
C189 C 0.93676 0.51269 0.52183 0.0
C190 C 0.95747 0.51099 0.50383 0.0
C191 C 0.97942 0.51849 0.56633 0.0
H192 H 0.95583 0.50742 0.47213 0.0
H193 H 0.99538 0.52082 0.58502 0.0
H194 H 0.04807 0.49515 0.53284 0.0
H195 H 0.01993 0.4995 0.4151 0.0
C196 C 0.9781 0.50134 0.41089 0.0
C197 C 0.95306 0.43999 0.52814 0.0
C198 C 0.05443 0.57262 0.47588 0.0
C199 C 0.03191 0.51005 0.59127 0.0
H200 H 0.922 0.41573 0.45798 0.0
H201 H 0.93545 0.44935 0.39316 0.0
H202 H 1.00134 0.55005 0.3625 0.0
H203 H 0.04348 0.58896 0.39845 0.0
H204 H 0.08998 0.59504 0.54265 0.0
H205 H 0.07798 0.56082 0.6061 0.0
H206 H 1.00424 0.46342 0.64421 0.0
H207 H 0.96072 0.4256 0.6107 0.0
H208 H 0.08244 0.48996 0.50278 0.0
H209 H 0.05361 0.49444 0.38368 0.0
H210 H 0.96036 0.52359 0.6179 0.0
H211 H 0.92048 0.51051 0.50313 0.0
C212 C 0.45723 0.98051 0.06447 0.0
C213 C 0.45002 0.9827 0.10382 0.0
C214 C 0.47274 1.0031 0.11979 0.0
C215 C 0.49238 0.01227 0.08934 0.0
N216 N 0.4835 0.99926 0.05459 0.0
Co217 Co 0.50542 0.00587 0.00304 0.0
N218 N 0.53937 0.03462 0.02756 0.0
C219 C 0.54197 0.04285 0.06594 0.0
C220 C 0.56735 0.06391 0.07331 0.0
C221 C 0.58176 0.06982 0.0373 0.0
C222 C 0.56429 0.05185 0.00996 0.0
N223 N 0.52735 0.01249 0.95145 0.0
C224 C 0.55346 0.03161 0.94133 0.0
C225 C 0.5607 0.0295 0.90196 0.0
C226 C 0.53814 0.00878 0.88621 0.0
C227 C 0.51856 0.99935 0.91679 0.0
N228 N 0.47146 0.97714 0.97846 0.0
C229 C 0.46893 0.96877 0.94016 0.0
C230 C 0.44347 0.94789 0.93266 0.0
C231 C 0.42891 0.9423 0.96843 0.0
C232 C 0.44637 0.96025 0.9958 0.0
N233 N 0.49751 0.03289 0.98236 0.0
C234 C 0.49143 0.07411 0.95051 0.0
C235 C 0.48882 0.05465 0.92567 0.0
C236 C 0.49154 0.03421 0.94219 0.0
C237 C 0.49609 0.07211 0.9919 0.0
C238 C 0.49925 0.05159 0.00704 0.0
N239 N 0.51342 0.97886 0.02366 0.0
C240 C 0.51568 0.94025 0.01308 0.0
C241 C 0.52131 0.93833 0.05413 0.0
C242 C 0.52363 0.9576 0.07937 0.0
C243 C 0.51987 0.97759 0.06359 0.0
C244 C 0.51171 0.96033 0.99873 0.0
H245 H 0.52184 0.99153 0.0845 0.0
H246 H 0.50697 0.96018 0.96741 0.0
H247 H 0.48918 0.01996 0.92165 0.0
H248 H 0.50363 0.0516 0.03858 0.0
C249 C 0.51962 0.03206 0.09314 0.0
C250 C 0.43873 0.95945 0.03856 0.0
C251 C 0.57166 0.05299 0.96696 0.0
C252 C 0.49131 0.9795 0.91298 0.0
H253 H 0.4305 0.97039 0.11968 0.0
H254 H 0.47487 0.00998 0.1503 0.0
H255 H 0.57422 0.07444 0.10103 0.0
H256 H 0.60251 0.08608 0.03154 0.0
H257 H 0.5801 0.04213 0.88592 0.0
H258 H 0.53604 1.00194 0.85567 0.0
H259 H 0.43659 0.93737 0.90493 0.0
H260 H 0.40802 0.9263 0.974 0.0
H261 H 0.48475 0.05523 0.89349 0.0
H262 H 0.49822 0.08681 0.01222 0.0
H263 H 0.51422 0.92626 0.99186 0.0
H264 H 0.52765 0.957 0.11155 0.0
C265 C 0.51643 0.56149 0.52566 0.0
C266 C 0.51257 0.57424 0.55666 0.0
C267 C 0.49999 0.55584 0.58868 0.0
C268 C 0.49685 0.533 0.57543 0.0
N269 N 0.50723 0.53583 0.53718 0.0
Co270 Co 0.50516 0.50727 0.50462 0.0
N271 N 0.48341 0.47941 0.54951 0.0
C272 C 0.47468 0.48284 0.58558 0.0
C273 C 0.46139 0.46025 0.61102 0.0
C274 C 0.46217 0.44139 0.59036 0.0
C275 C 0.476 0.45367 0.55342 0.0
N276 N 0.50308 0.47868 0.4721 0.0
C277 C 0.49373 0.45296 0.48353 0.0
C278 C 0.49754 0.4402 0.4525 0.0
C279 C 0.51023 0.45863 0.42054 0.0
C280 C 0.51346 0.48151 0.43384 0.0
N281 N 0.5269 0.5351 0.45974 0.0
C282 C 0.53566 0.53169 0.42369 0.0
C283 C 0.54885 0.55426 0.39819 0.0
C284 C 0.54796 0.57307 0.4188 0.0
C285 C 0.53415 0.56078 0.45575 0.0
N286 N 0.53904 0.5132 0.52905 0.0
C287 C 0.58547 0.51811 0.56461 0.0
C288 C 0.58229 0.51692 0.52234 0.0
C289 C 0.55918 0.51455 0.50537 0.0
C290 C 0.56519 0.5173 0.58863 0.0
C291 C 0.54245 0.51495 0.5704 0.0
N292 N 0.47138 0.50156 0.48014 0.0
C293 C 0.44684 0.5006 0.4201 0.0
C294 C 0.4273 0.50116 0.44397 0.0
C295 C 0.42952 0.50061 0.48643 0.0
C296 C 0.45149 0.50075 0.50372 0.0
C297 C 0.46836 0.50059 0.43865 0.0
H298 H 0.45225 0.50083 0.53617 0.0
H299 H 0.4826 0.50033 0.41868 0.0
H300 H 0.55797 0.51356 0.47304 0.0
H301 H 0.52769 0.51418 0.59054 0.0
C302 C 0.48171 0.50804 0.59629 0.0
C303 C 0.52675 0.57379 0.48472 0.0
C304 C 0.48319 0.44054 0.52436 0.0
C305 C 0.52862 0.50647 0.41297 0.0
H306 H 0.51736 0.59444 0.55565 0.0
H307 H 0.49277 0.55846 0.61741 0.0
H308 H 0.45319 0.45805 0.64168 0.0
H309 H 0.45431 0.42114 0.60171 0.0
H310 H 0.4926 0.41995 0.45345 0.0
H311 H 0.51741 0.456 0.39179 0.0
H312 H 0.55702 0.55645 0.36752 0.0
H313 H 0.55568 0.59328 0.40738 0.0
H314 H 0.59761 0.51787 0.50228 0.0
H315 H 0.56645 0.51781 0.6216 0.0
H316 H 0.44559 0.5002 0.38712 0.0
H317 H 0.41482 0.50088 0.50629 0.0
H318 H 0.33412 0.50306 0.2162 0.0
H319 H 0.27237 0.50889 0.27455 0.0
H320 H 0.26725 0.49168 0.14639 0.0
H321 H 0.23838 0.50451 0.14312 0.0
H322 H 0.16811 0.49127 0.20776 0.0
H323 H 0.2294 0.48917 0.27533 0.0
C324 C 0.31561 0.50312 0.21422 0.0
C325 C 0.30294 0.49893 0.17672 0.0
C326 C 0.30441 0.5062 0.24954 0.0
C327 C 0.27979 0.50508 0.24723 0.0
C328 C 0.26539 0.49951 0.21038 0.0
C329 C 0.27743 0.49629 0.17512 0.0
C330 C 0.23804 0.49694 0.20928 0.0
C331 C 0.22721 0.49986 0.1719 0.0
C332 C 0.20161 0.49694 0.17145 0.0
C333 C 0.18746 0.49275 0.20829 0.0
C334 C 0.19804 0.49119 0.24576 0.0
C335 C 0.22255 0.492 0.24604 0.0
H336 H 0.67269 0.16053 0.73661 0.0
H337 H 0.73943 0.22067 0.79911 0.0
H338 H 0.735 0.2282 0.66666 0.0
H339 H 0.77464 0.26149 0.66444 0.0
H340 H 0.83971 0.32283 0.72756 0.0
H341 H 0.77282 0.25926 0.79763 0.0
C342 C 0.69179 0.17957 0.7356 0.0
C343 C 0.70309 0.19317 0.69791 0.0
C344 C 0.70461 0.18995 0.77193 0.0
C345 C 0.72988 0.21408 0.77035 0.0
C346 C 0.74198 0.22907 0.73266 0.0
C347 C 0.72759 0.21809 0.69642 0.0
C348 C 0.76925 0.25552 0.7313 0.0
C349 C 0.78296 0.2691 0.69352 0.0
C350 C 0.80828 0.29312 0.69246 0.0
C351 C 0.82053 0.30388 0.7289 0.0
C352 C 0.80784 0.29154 0.76677 0.0
C353 C 0.78217 0.26774 0.76783 0.0
H354 H 0.51657 0.67661 0.27909 0.0
H355 H 0.51541 0.73864 0.21073 0.0
H356 H 0.52542 0.74144 0.34231 0.0
H357 H 0.51167 0.76875 0.3394 0.0
H358 H 0.52674 0.83811 0.26975 0.0
H359 H 0.53405 0.78053 0.2098 0.0
C360 C 0.51757 0.69529 0.27839 0.0
C361 C 0.51969 0.70713 0.31502 0.0
C362 C 0.51704 0.70708 0.24081 0.0
C363 C 0.51742 0.73081 0.24002 0.0
C364 C 0.52073 0.74417 0.27636 0.0
C365 C 0.52228 0.73198 0.31385 0.0
C366 C 0.52272 0.77059 0.27493 0.0
C367 C 0.51768 0.78026 0.31047 0.0
C368 C 0.51934 0.8047 0.30874 0.0
C369 C 0.52577 0.81946 0.27129 0.0
C370 C 0.53027 0.8104 0.23558 0.0
C371 C 0.5293 0.78637 0.23763 0.0
H372 H 0.84515 0.52509 0.79571 0.0
H373 H 0.78209 0.5245 0.86277 0.0
H374 H 0.77866 0.51803 0.73089 0.0
H375 H 0.75081 0.52972 0.73008 0.0
H376 H 0.68116 0.51823 0.79275 0.0
H377 H 0.74117 0.51484 0.86241 0.0
C378 C 0.82646 0.52492 0.79566 0.0
C379 C 0.81365 0.52289 0.75889 0.0
C380 C 0.81483 0.52495 0.83286 0.0
C381 C 0.79011 0.52386 0.83345 0.0
C382 C 0.77647 0.52217 0.79661 0.0
C383 C 0.78849 0.52083 0.75964 0.0
C384 C 0.74996 0.52152 0.79625 0.0
C385 C 0.73966 0.52507 0.75877 0.0
C386 C 0.71482 0.52351 0.75739 0.0
C387 C 0.70025 0.51923 0.7938 0.0
C388 C 0.7099 0.51661 0.8316 0.0
C389 C 0.73461 0.51758 0.83283 0.0
H390 H 0.17205 0.68604 0.26773 0.0
H391 H 0.23999 0.75152 0.20264 0.0
H392 H 0.23107 0.75027 0.3349 0.0
H393 H 0.27273 0.78167 0.3347 0.0
H394 H 0.33361 0.85227 0.26793 0.0
H395 H 0.26804 0.79251 0.20307 0.0
C396 C 0.19087 0.70523 0.26806 0.0
C397 C 0.20083 0.71628 0.30544 0.0
C398 C 0.20448 0.71832 0.23107 0.0
C399 C 0.22935 0.74273 0.23165 0.0
C400 C 0.23979 0.7554 0.26883 0.0
C401 C 0.22467 0.74169 0.30571 0.0
C402 C 0.266 0.78257 0.26891 0.0
C403 C 0.27994 0.79292 0.30564 0.0
C404 C 0.30371 0.81841 0.30535 0.0
C405 C 0.31484 0.83298 0.2682 0.0
C406 C 0.30248 0.82312 0.2314 0.0
C407 C 0.27764 0.79865 0.23196 0.0
H408 H 0.49685 0.33688 0.7286 0.0
H409 H 0.50442 0.27693 0.79117 0.0
H410 H 0.48754 0.27328 0.66156 0.0
H411 H 0.5012 0.24611 0.66014 0.0
H412 H 0.4914 0.17794 0.72658 0.0
H413 H 0.48776 0.23557 0.7924 0.0
C414 C 0.49735 0.31901 0.72781 0.0
C415 C 0.49371 0.30721 0.69067 0.0
C416 C 0.5007 0.30789 0.76405 0.0
C417 C 0.50034 0.28422 0.76306 0.0
C418 C 0.49537 0.27077 0.72642 0.0
C419 C 0.49176 0.28267 0.69025 0.0
C420 C 0.49422 0.24476 0.72618 0.0
C421 C 0.49738 0.23504 0.68915 0.0
C422 C 0.49656 0.21105 0.68932 0.0
C423 C 0.49288 0.19683 0.72651 0.0
C424 C 0.49116 0.20631 0.76366 0.0
C425 C 0.49065 0.22956 0.76333 0.0
H426 H 0.06944 0.4577 0.05262 0.0
H427 H 0.10734 0.54128 0.01734 0.0
H428 H 0.15141 0.54965 0.04106 0.0
H429 H 0.10235 0.46796 0.14567 0.0
H430 H 0.10508 0.43934 0.1445 0.0
H431 H 0.07815 0.43968 0.11853 0.0
H432 H 0.0935 0.42973 0.05112 0.0
H433 H 0.12082 0.42984 0.07689 0.0
H434 H 0.12795 0.45148 0.03181 0.0
H435 H 0.19032 0.54951 0.07486 0.0
H436 H 0.21872 0.54182 0.12256 0.0
H437 H 0.1548 0.45892 0.13919 0.0
C438 C 0.08711 0.47771 0.04969 0.0
C439 C 0.08507 0.4989 0.03338 0.0
C440 C 0.10859 0.5248 0.02972 0.0
C441 C 0.13368 0.52969 0.04294 0.0
C442 C 0.13493 0.50844 0.05981 0.0
C443 C 0.11216 0.48299 0.06355 0.0
C444 C 0.11804 0.46422 0.08714 0.0
C445 C 0.09984 0.4521 0.12628 0.0
C446 C 0.11489 0.44254 0.06011 0.0
C447 C 0.14748 0.48315 0.09697 0.0
C448 C 0.1571 0.50846 0.08012 0.0
C449 C 0.18315 0.52968 0.08759 0.0
C450 C 0.1993 0.52513 0.11434 0.0
C451 C 0.18918 0.49968 0.13361 0.0
C452 C 0.1633 0.47836 0.12373 0.0
H453 H 0.61194 0.06512 0.57598 0.0
H454 H 0.57074 0.10286 0.52827 0.0
H455 H 0.60585 0.14519 0.55638 0.0
H456 H 0.62635 0.09476 0.67021 0.0
H457 H 0.65857 0.09766 0.67503 0.0
H458 H 0.63251 0.07192 0.64609 0.0
H459 H 0.66576 0.08866 0.58308 0.0
H460 H 0.69187 0.11469 0.61179 0.0
H461 H 0.68203 0.12278 0.56384 0.0
H462 H 0.64376 0.18251 0.59479 0.0
H463 H 0.67798 0.2097 0.6451 0.0
H464 H 0.69272 0.14669 0.67024 0.0
C465 C 0.61054 0.08242 0.57118 0.0
C466 C 0.58871 0.08086 0.55011 0.0
C467 C 0.58744 0.10381 0.54427 0.0
C468 C 0.60731 0.12789 0.56001 0.0
C469 C 0.62836 0.12869 0.58147 0.0
C470 C 0.62994 0.10645 0.58727 0.0
C471 C 0.65283 0.11164 0.61494 0.0
C472 C 0.64191 0.09289 0.65387 0.0
C473 C 0.6744 0.10931 0.59203 0.0
C474 C 0.66362 0.14009 0.62445 0.0
C475 C 0.64963 0.14983 0.60427 0.0
C476 C 0.65509 0.17521 0.61026 0.0
C477 C 0.67468 0.19062 0.63858 0.0
C478 C 0.68825 0.18044 0.66081 0.0
C479 C 0.68305 0.15513 0.65283 0.0
H480 H 0.54528 0.61298 0.11868 0.0
H481 H 0.48006 0.59907 0.03937 0.0
H482 H 0.47693 0.6338 0.07213 0.0
H483 H 0.51749 0.62083 0.20745 0.0
H484 H 0.54951 0.64624 0.22628 0.0
H485 H 0.54822 0.62232 0.19366 0.0
H486 H 0.58347 0.66045 0.14336 0.0
H487 H 0.58477 0.68452 0.17584 0.0
H488 H 0.57683 0.68494 0.12275 0.0
H489 H 0.47831 0.6675 0.11872 0.0
H490 H 0.48356 0.6958 0.17535 0.0
H491 H 0.54862 0.688 0.22187 0.0
C492 C 0.5305 0.61741 0.10792 0.0
C493 C 0.51301 0.60341 0.07634 0.0
C494 C 0.49397 0.60984 0.0631 0.0
C495 C 0.492 0.62949 0.08159 0.0
C496 C 0.50941 0.64275 0.11299 0.0
C497 C 0.52839 0.637 0.12585 0.0
C498 C 0.5437 0.65287 0.16164 0.0
C499 C 0.53946 0.63446 0.19948 0.0
C500 C 0.57399 0.67182 0.15019 0.0
C501 C 0.52994 0.66795 0.16769 0.0
C502 C 0.51036 0.66211 0.13924 0.0
C503 C 0.49387 0.67249 0.14078 0.0
C504 C 0.49707 0.68866 0.17286 0.0
C505 C 0.51645 0.69406 0.20297 0.0
C506 C 0.53356 0.68416 0.19934 0.0
H507 H 0.93948 0.54879 0.62335 0.0
H508 H 0.88262 0.484 0.55115 0.0
H509 H 0.84446 0.48165 0.58821 0.0
H510 H 0.90271 0.52247 0.71672 0.0
H511 H 0.91121 0.55398 0.73456 0.0
H512 H 0.93391 0.55241 0.69934 0.0
H513 H 0.9322 0.58646 0.64914 0.0
H514 H 0.90939 0.58808 0.68425 0.0
H515 H 0.89987 0.57983 0.63225 0.0
H516 H 0.81231 0.48361 0.63792 0.0
H517 H 0.78944 0.48933 0.69649 0.0
H518 H 0.86736 0.55326 0.73498 0.0
C519 C 0.91903 0.53421 0.61508 0.0
C520 C 0.91414 0.51669 0.58408 0.0
C521 C 0.88698 0.49799 0.5742 0.0
C522 C 0.86512 0.49642 0.59522 0.0
C523 C 0.87068 0.51379 0.62592 0.0
C524 C 0.897 0.5324 0.63569 0.0
C525 C 0.89756 0.54773 0.67146 0.0
C526 C 0.91221 0.5439 0.70765 0.0
C527 C 0.91052 0.57728 0.65848 0.0
C528 C 0.86749 0.53437 0.68101 0.0
C529 C 0.85224 0.51501 0.65423 0.0
C530 C 0.82404 0.499 0.6587 0.0
C531 C 0.81118 0.5025 0.69192 0.0
C532 C 0.82655 0.52177 0.72034 0.0
C533 C 0.855 0.53828 0.71392 0.0
H534 H 0.43457 0.92298 0.09608 0.0
H535 H 0.38626 0.94467 0.02456 0.0
H536 H 0.34445 0.90804 0.06085 0.0
H537 H 0.38542 0.85057 0.10503 0.0
H538 H 0.39398 0.84771 0.15709 0.0
H539 H 0.41922 0.87321 0.1217 0.0
H540 H 0.4274 0.909 0.17139 0.0
H541 H 0.40224 0.88368 0.20687 0.0
H542 H 0.39915 0.91089 0.18854 0.0
H543 H 0.30839 0.87111 0.10979 0.0
H544 H 0.28216 0.83932 0.16866 0.0
H545 H 0.35487 0.843 0.20803 0.0
C546 C 0.41507 0.91955 0.08755 0.0
C547 C 0.41335 0.93615 0.05723 0.0
C548 C 0.38772 0.93171 0.04732 0.0
C549 C 0.36398 0.91101 0.06775 0.0
C550 C 0.36634 0.89508 0.098 0.0
C551 C 0.39132 0.89919 0.10781 0.0
C552 C 0.38887 0.88104 0.14377 0.0
C553 C 0.39737 0.862 0.13113 0.0
C554 C 0.40538 0.89711 0.17976 0.0
C555 C 0.35871 0.86641 0.15334 0.0
C556 C 0.34589 0.87442 0.12637 0.0
C557 C 0.31819 0.86448 0.13077 0.0
C558 C 0.30341 0.84638 0.1641 0.0
C559 C 0.31652 0.83875 0.19272 0.0
C560 C 0.34435 0.84849 0.18652 0.0
H561 H 0.51896 0.43778 0.57377 0.0
H562 H 0.44604 0.38906 0.50772 0.0
H563 H 0.44375 0.34849 0.53622 0.0
H564 H 0.54784 0.39608 0.56486 0.0
H565 H 0.56066 0.40222 0.61578 0.0
H566 H 0.55791 0.42705 0.58657 0.0
H567 H 0.5285 0.42777 0.64521 0.0
H568 H 0.53122 0.40309 0.67464 0.0
H569 H 0.49827 0.39722 0.66366 0.0
H570 H 0.44719 0.31321 0.57846 0.0
H571 H 0.45518 0.2871 0.6315 0.0
H572 H 0.52689 0.3595 0.66706 0.0
C573 C 0.50288 0.41853 0.56475 0.0
C574 C 0.48284 0.41629 0.53834 0.0
C575 C 0.46171 0.39094 0.52762 0.0
C576 C 0.46032 0.36791 0.54359 0.0
C577 C 0.48035 0.3707 0.56998 0.0
C578 C 0.5013 0.39546 0.58028 0.0
C579 C 0.51919 0.39323 0.61142 0.0
C580 C 0.54811 0.40536 0.59357 0.0
C581 C 0.51928 0.40607 0.65106 0.0
C582 C 0.50469 0.36337 0.61796 0.0
C583 C 0.48246 0.35059 0.59364 0.0
C584 C 0.46482 0.32301 0.59712 0.0
C585 C 0.46958 0.30828 0.6271 0.0
C586 C 0.49168 0.32125 0.65327 0.0
C587 C 0.50988 0.34901 0.64737 0.0
H588 H 0.49163 0.90689 0.4025 0.0
H589 H 0.54037 0.91085 0.50482 0.0
H590 H 0.54125 0.87265 0.48044 0.0
H591 H 0.45172 0.83394 0.39948 0.0
H592 H 0.45121 0.83553 0.34439 0.0
H593 H 0.45252 0.86139 0.37231 0.0
H594 H 0.49596 0.8967 0.33045 0.0
H595 H 0.49464 0.87101 0.30233 0.0
H596 H 0.52479 0.89323 0.32892 0.0
H597 H 0.54129 0.83738 0.43905 0.0
H598 H 0.54058 0.80933 0.38517 0.0
H599 H 0.48886 0.82668 0.31371 0.0
C600 C 0.50228 0.89954 0.41998 0.0
C601 C 0.51606 0.91185 0.45538 0.0
C602 C 0.52959 0.90158 0.47768 0.0
C603 C 0.53016 0.8799 0.46407 0.0
C604 C 0.51661 0.86841 0.42861 0.0
C605 C 0.5027 0.87779 0.40719 0.0
C606 C 0.49089 0.86305 0.36899 0.0
C607 C 0.45973 0.84756 0.37146 0.0
C608 C 0.50226 0.88213 0.33042 0.0
C609 C 0.50112 0.84451 0.3713 0.0
C610 C 0.51579 0.84766 0.40596 0.0
C611 C 0.52936 0.83438 0.41226 0.0
C612 C 0.52871 0.81831 0.38167 0.0
C613 C 0.51467 0.8158 0.34529 0.0
C614 C 0.49977 0.82818 0.34121 0.0
H615 H 0.57383 0.48899 0.93323 0.0
H616 H 0.62305 0.55483 0.00835 0.0
H617 H 0.6642 0.55602 0.98514 0.0
H618 H 0.61296 0.45678 0.94631 0.0
H619 H 0.60894 0.44751 0.8941 0.0
H620 H 0.58301 0.44985 0.91979 0.0
H621 H 0.5865 0.48307 0.86249 0.0
H622 H 0.61192 0.4805 0.83603 0.0
H623 H 0.61905 0.51256 0.84884 0.0
H624 H 0.70041 0.55253 0.94847 0.0
H625 H 0.72843 0.54723 0.89771 0.0
H626 H 0.65542 0.48303 0.84766 0.0
C627 C 0.59328 0.50332 0.94521 0.0
C628 C 0.59542 0.52159 0.97297 0.0
C629 C 0.62112 0.54046 0.98752 0.0
C630 C 0.6445 0.54119 0.97459 0.0
C631 C 0.64179 0.52285 0.94716 0.0
C632 C 0.61678 0.50429 0.9326 0.0
C633 C 0.61953 0.48817 0.90095 0.0
C634 C 0.60526 0.45884 0.91622 0.0
C635 C 0.60862 0.49129 0.85965 0.0
C636 C 0.65007 0.50122 0.89877 0.0
C637 C 0.66258 0.52085 0.92616 0.0
C638 C 0.69081 0.53692 0.92738 0.0
C639 C 0.70663 0.53362 0.89871 0.0
C640 C 0.69415 0.5146 0.86899 0.0
C641 C 0.66554 0.49753 0.87036 0.0
H642 H 0.0931 0.57974 0.42106 0.0
H643 H 0.06999 0.62272 0.49563 0.0
H644 H 0.10942 0.66542 0.46662 0.0
H645 H 0.16728 0.6257 0.42545 0.0
H646 H 0.17292 0.62154 0.37301 0.0
H647 H 0.14465 0.59475 0.4028 0.0
H648 H 0.11165 0.59255 0.34806 0.0
H649 H 0.13974 0.61914 0.31799 0.0
H650 H 0.1118 0.62209 0.33303 0.0
H651 H 0.14906 0.70337 0.42373 0.0
H652 H 0.18349 0.73247 0.36942 0.0
H653 H 0.1813 0.6642 0.32546 0.0
C654 C 0.09675 0.59821 0.4317 0.0
C655 C 0.07891 0.59821 0.46071 0.0
C656 C 0.08377 0.62256 0.47364 0.0
C657 C 0.10609 0.64679 0.45742 0.0
C658 C 0.12337 0.64621 0.42855 0.0
C659 C 0.11893 0.62247 0.41595 0.0
C660 C 0.13917 0.62707 0.38254 0.0
C661 C 0.15707 0.61665 0.39683 0.0
C662 C 0.12472 0.61448 0.34309 0.0
C663 C 0.15531 0.65707 0.37747 0.0
C664 C 0.14615 0.66788 0.40444 0.0
C665 C 0.15669 0.69514 0.40295 0.0
C666 C 0.17638 0.71158 0.37223 0.0
C667 C 0.18513 0.70062 0.34338 0.0
C668 C 0.17509 0.67317 0.34724 0.0
H669 H 0.52068 0.10703 0.88472 0.0
H670 H 0.45938 0.09196 0.97584 0.0
H671 H 0.45537 0.12787 0.94213 0.0
H672 H 0.55301 0.17952 0.87436 0.0
H673 H 0.55956 0.18096 0.82017 0.0
H674 H 0.55877 0.15555 0.8534 0.0
H675 H 0.52221 0.11933 0.80951 0.0
H676 H 0.52289 0.14452 0.77603 0.0
H677 H 0.49133 0.11852 0.80029 0.0
H678 H 0.45482 0.16246 0.89266 0.0
H679 H 0.4587 0.1925 0.83398 0.0
H680 H 0.52284 0.18643 0.77963 0.0
C681 C 0.50661 0.11149 0.89777 0.0
C682 C 0.49022 0.09674 0.93264 0.0
C683 C 0.47217 0.10319 0.94916 0.0
C684 C 0.46978 0.12351 0.93021 0.0
C685 C 0.48599 0.13747 0.89534 0.0
C686 C 0.50431 0.13188 0.8797 0.0
C687 C 0.5188 0.14895 0.84126 0.0
C688 C 0.54935 0.16734 0.84771 0.0
C689 C 0.51347 0.1318 0.80463 0.0
C690 C 0.50516 0.16444 0.8368 0.0
C691 C 0.48635 0.15775 0.8682 0.0
C692 C 0.46985 0.16817 0.86832 0.0
C693 C 0.47225 0.18531 0.83501 0.0
C694 C 0.49096 0.19173 0.80213 0.0
C695 C 0.50816 0.18177 0.8041 0.0
H696 H 0.43051 0.53107 0.37519 0.0
H697 H 0.37348 0.47381 0.46845 0.0
H698 H 0.33606 0.47414 0.43381 0.0
H699 H 0.39677 0.56813 0.35791 0.0
H700 H 0.40424 0.57277 0.30358 0.0
H701 H 0.4269 0.57047 0.33836 0.0
H702 H 0.4227 0.53183 0.29963 0.0
H703 H 0.40027 0.53407 0.26451 0.0
H704 H 0.38955 0.503 0.29231 0.0
H705 H 0.30422 0.47678 0.38449 0.0
H706 H 0.28088 0.48018 0.32377 0.0
H707 H 0.35882 0.53647 0.26373 0.0
C708 C 0.41017 0.51872 0.38852 0.0
C709 C 0.40493 0.50239 0.42455 0.0
C710 C 0.37806 0.48672 0.44116 0.0
C711 C 0.35666 0.48678 0.42168 0.0
C712 C 0.36249 0.50283 0.38585 0.0
C713 C 0.38864 0.51859 0.36954 0.0
C714 C 0.38935 0.53255 0.3292 0.0
C715 C 0.40525 0.56278 0.33248 0.0
C716 C 0.40115 0.52489 0.29438 0.0
C717 C 0.35937 0.52135 0.32448 0.0
C718 C 0.34421 0.50457 0.35773 0.0
C719 C 0.31591 0.49025 0.35863 0.0
C720 C 0.30279 0.49243 0.3241 0.0
C721 C 0.31798 0.50863 0.28902 0.0
C722 C 0.34662 0.52396 0.29009 0.0
H723 H 0.93702 0.39325 0.88688 0.0
H724 H 0.88289 0.39967 0.96952 0.0
H725 H 0.84348 0.36244 0.93777 0.0
H726 H 0.89877 0.38236 0.80001 0.0
H727 H 0.90605 0.35936 0.77931 0.0
H728 H 0.92981 0.38413 0.81197 0.0
H729 H 0.92794 0.34739 0.86035 0.0
H730 H 0.90407 0.32246 0.82779 0.0
H731 H 0.89567 0.32052 0.88138 0.0
H732 H 0.80972 0.32754 0.89148 0.0
H733 H 0.78531 0.2991 0.83465 0.0
H734 H 0.86164 0.31512 0.78359 0.0
C735 C 0.9169 0.3867 0.89865 0.0
C736 C 0.91316 0.39941 0.93091 0.0
C737 C 0.8864 0.39003 0.94537 0.0
C738 C 0.86384 0.36892 0.92739 0.0
C739 C 0.86828 0.35717 0.89516 0.0
C740 C 0.8942 0.36567 0.88111 0.0
C741 C 0.89359 0.35101 0.84436 0.0
C742 C 0.90789 0.37037 0.8067 0.0
C743 C 0.90605 0.33435 0.85407 0.0
C744 C 0.86331 0.33351 0.8391 0.0
C745 C 0.84896 0.33707 0.86888 0.0
C746 C 0.82076 0.32429 0.86842 0.0
C747 C 0.80701 0.30801 0.83614 0.0
C748 C 0.82149 0.30479 0.80464 0.0
C749 C 0.84993 0.31718 0.8071 0.0
H750 H 0.94958 0.55936 0.93989 0.0
H751 H 0.90644 0.47651 0.9829 0.0
H752 H 0.86306 0.47146 0.96338 0.0
H753 H 0.89689 0.57341 0.96264 0.0
H754 H 0.90349 0.59309 0.91541 0.0
H755 H 0.9305 0.59159 0.93922 0.0
H756 H 0.93991 0.57573 0.87255 0.0
H757 H 0.91338 0.57779 0.84846 0.0
H758 H 0.91246 0.54711 0.84991 0.0
H759 H 0.8248 0.4745 0.93439 0.0
H760 H 0.79637 0.48299 0.88821 0.0
H761 H 0.86482 0.56249 0.858 0.0
C762 C 0.93097 0.54018 0.94522 0.0
C763 C 0.93133 0.51829 0.96286 0.0
C764 C 0.90655 0.49356 0.96964 0.0
C765 C 0.88182 0.49057 0.95884 0.0
C766 C 0.88218 0.51243 0.94083 0.0
C767 C 0.9062 0.53664 0.93337 0.0
C768 C 0.90155 0.5559 0.90849 0.0
C769 C 0.90852 0.57992 0.93291 0.0
C770 C 0.91777 0.56463 0.86743 0.0
C771 C 0.87127 0.53861 0.90243 0.0
C772 C 0.86032 0.51385 0.92236 0.0
C773 C 0.83306 0.49393 0.91913 0.0
C774 C 0.81694 0.49899 0.89324 0.0
C775 C 0.82826 0.52357 0.87043 0.0
C776 C 0.85551 0.54386 0.87621 0.0
H777 H 0.39529 0.946 0.42713 0.0
H778 H 0.43598 0.90781 0.4751 0.0
H779 H 0.40048 0.86545 0.44751 0.0
H780 H 0.32491 0.88857 0.44048 0.0
H781 H 0.31493 0.89662 0.39265 0.0
H782 H 0.34129 0.92266 0.42104 0.0
H783 H 0.37423 0.93904 0.35766 0.0
H784 H 0.3479 0.91331 0.32905 0.0
H785 H 0.38004 0.91598 0.33351 0.0
H786 H 0.36249 0.82826 0.40892 0.0
H787 H 0.32838 0.80134 0.35831 0.0
H788 H 0.31375 0.86449 0.33403 0.0
C789 C 0.39647 0.92858 0.43215 0.0
C790 C 0.41828 0.93003 0.45308 0.0
C791 C 0.41929 0.90695 0.45917 0.0
C792 C 0.3992 0.88285 0.44373 0.0
C793 C 0.37816 0.88215 0.42241 0.0
C794 C 0.37679 0.90451 0.41648 0.0
C795 C 0.35381 0.89939 0.38908 0.0
C796 C 0.33247 0.90196 0.41221 0.0
C797 C 0.36465 0.91802 0.35002 0.0
C798 C 0.34279 0.87087 0.37973 0.0
C799 C 0.35671 0.86103 0.39979 0.0
C800 C 0.35118 0.83564 0.39359 0.0
C801 C 0.33163 0.82036 0.36511 0.0
C802 C 0.31816 0.83069 0.34296 0.0
C803 C 0.32334 0.85593 0.35134 0.0
H804 H 0.52556 0.43011 0.88289 0.0
H805 H 0.4678 0.37384 0.97636 0.0
H806 H 0.46825 0.3375 0.9443 0.0
H807 H 0.49602 0.38991 0.80119 0.0
H808 H 0.52762 0.40088 0.77432 0.0
H809 H 0.52527 0.42254 0.80779 0.0
H810 H 0.56559 0.42734 0.84767 0.0
H811 H 0.56791 0.40514 0.81523 0.0
H812 H 0.5639 0.39823 0.86991 0.0
H813 H 0.47097 0.30664 0.89712 0.0
H814 H 0.47445 0.28425 0.83809 0.0
H815 H 0.53118 0.36094 0.77674 0.0
C816 C 0.51311 0.41017 0.89682 0.0
C817 C 0.4966 0.40483 0.93213 0.0
C818 C 0.48085 0.37848 0.9496 0.0
C819 C 0.48097 0.3577 0.93157 0.0
C820 C 0.49716 0.36362 0.89635 0.0
C821 C 0.51301 0.38927 0.87928 0.0
C822 C 0.52697 0.39023 0.83966 0.0
C823 C 0.51845 0.40154 0.80364 0.0
C824 C 0.55793 0.40617 0.84338 0.0
C825 C 0.51586 0.36101 0.83638 0.0
C826 C 0.49895 0.34595 0.86955 0.0
C827 C 0.48455 0.31827 0.87137 0.0
C828 C 0.48678 0.30569 0.83782 0.0
C829 C 0.50311 0.32082 0.80285 0.0
C830 C 0.51855 0.34882 0.80306 0.0
H831 H 0.10315 0.52145 0.37338 0.0
H832 H 0.08858 0.45857 0.46255 0.0
H833 H 0.12285 0.45378 0.42612 0.0
H834 H 0.10887 0.49235 0.28715 0.0
H835 H 0.13509 0.52311 0.26168 0.0
H836 H 0.11146 0.52301 0.2971 0.0
H837 H 0.15133 0.55747 0.33899 0.0
H838 H 0.17515 0.5577 0.30362 0.0
H839 H 0.17606 0.55044 0.35749 0.0
H840 H 0.15635 0.45357 0.37528 0.0
H841 H 0.18517 0.45803 0.31564 0.0
H842 H 0.17763 0.52157 0.26191 0.0
C843 C 0.10724 0.50673 0.38542 0.0
C844 C 0.0931 0.4903 0.42071 0.0
C845 C 0.09932 0.47152 0.43573 0.0
C846 C 0.11871 0.46863 0.41518 0.0
C847 C 0.13193 0.48489 0.37996 0.0
C848 C 0.12651 0.5037 0.36548 0.0
C849 C 0.14241 0.51799 0.32615 0.0
C850 C 0.12332 0.51385 0.29096 0.0
C851 C 0.16243 0.54766 0.33193 0.0
C852 C 0.15711 0.50382 0.31999 0.0
C853 C 0.15109 0.48493 0.35138 0.0
C854 C 0.16142 0.46853 0.35081 0.0
C855 C 0.17784 0.47124 0.31695 0.0
C856 C 0.18354 0.49004 0.28407 0.0
C857 C 0.17348 0.50686 0.2864 0.0
H858 H 0.57425 0.08891 0.90976 0.0
H859 H 0.62458 0.06921 0.97991 0.0
H860 H 0.66566 0.10658 0.94328 0.0
H861 H 0.60918 0.10193 0.81682 0.0
H862 H 0.60517 0.12864 0.79885 0.0
H863 H 0.5806 0.10308 0.83465 0.0
H864 H 0.58827 0.13849 0.88474 0.0
H865 H 0.6127 0.16422 0.84876 0.0
H866 H 0.6221 0.1619 0.90049 0.0
H867 H 0.70068 0.14365 0.89414 0.0
H868 H 0.72596 0.17511 0.83465 0.0
H869 H 0.65218 0.16971 0.79655 0.0
C870 C 0.59403 0.09295 0.91793 0.0
C871 C 0.59654 0.0767 0.948 0.0
C872 C 0.62252 0.08191 0.9574 0.0
C873 C 0.64585 0.10303 0.93679 0.0
C874 C 0.64273 0.11862 0.90687 0.0
C875 C 0.61741 0.11377 0.89748 0.0
C876 C 0.61913 0.13168 0.86164 0.0
C877 C 0.60255 0.11536 0.82589 0.0
C878 C 0.61002 0.15018 0.8747 0.0
C879 C 0.64928 0.14693 0.85153 0.0
C880 C 0.66268 0.13948 0.87827 0.0
C881 C 0.69044 0.14988 0.87336 0.0
C882 C 0.70469 0.16781 0.83966 0.0
C883 C 0.69102 0.17484 0.81117 0.0
C884 C 0.66314 0.16472 0.81796 0.0
H885 H 0.49135 0.5764 0.43417 0.0
H886 H 0.5632 0.62513 0.50242 0.0
H887 H 0.56541 0.66562 0.47395 0.0
H888 H 0.51305 0.61706 0.34505 0.0
H889 H 0.48034 0.61133 0.33254 0.0
H890 H 0.48248 0.58651 0.36259 0.0
H891 H 0.45214 0.58705 0.41948 0.0
H892 H 0.44995 0.61211 0.38995 0.0
H893 H 0.46181 0.61787 0.44143 0.0
H894 H 0.56262 0.70077 0.4313 0.0
H895 H 0.55621 0.72703 0.3766 0.0
H896 H 0.48506 0.655 0.33874 0.0
C897 C 0.50713 0.59564 0.44372 0.0
C898 C 0.52693 0.59792 0.47072 0.0
C899 C 0.54772 0.62322 0.48209 0.0
C900 C 0.54904 0.64621 0.46617 0.0
C901 C 0.52928 0.6434 0.43921 0.0
C902 C 0.50864 0.61868 0.42823 0.0
C903 C 0.49128 0.62099 0.39615 0.0
C904 C 0.49185 0.60823 0.35677 0.0
C905 C 0.46207 0.60879 0.41278 0.0
C906 C 0.50585 0.65088 0.38976 0.0
C907 C 0.52753 0.66355 0.41513 0.0
C908 C 0.54538 0.69109 0.41186 0.0
C909 C 0.54151 0.70591 0.38092 0.0
C910 C 0.5201 0.69308 0.35361 0.0
C911 C 0.50152 0.66537 0.35938 0.0
H912 H 0.52152 0.10868 0.59191 0.0
H913 H 0.46317 0.09737 0.50072 0.0
H914 H 0.46324 0.13632 0.52392 0.0
H915 H 0.49443 0.12527 0.67043 0.0
H916 H 0.52663 0.14968 0.6901 0.0
H917 H 0.52364 0.12285 0.66315 0.0
H918 H 0.56256 0.15676 0.61255 0.0
H919 H 0.56545 0.18374 0.63928 0.0
H920 H 0.55986 0.18216 0.5851 0.0
H921 H 0.46528 0.17289 0.56443 0.0
H922 H 0.46907 0.20266 0.61773 0.0
H923 H 0.5291 0.19212 0.67753 0.0
C924 C 0.509 0.11463 0.57654 0.0
C925 C 0.49222 0.10004 0.54473 0.0
C926 C 0.47622 0.10842 0.52509 0.0
C927 C 0.4762 0.13051 0.53803 0.0
C928 C 0.49277 0.14433 0.56997 0.0
C929 C 0.50911 0.1368 0.58857 0.0
C930 C 0.52401 0.15386 0.62354 0.0
C931 C 0.51672 0.1369 0.66418 0.0
C932 C 0.5548 0.17009 0.61456 0.0
C933 C 0.51272 0.17151 0.62294 0.0
C934 C 0.49485 0.16597 0.59174 0.0
C935 C 0.47972 0.17784 0.58834 0.0
C936 C 0.48212 0.1949 0.61852 0.0
C937 C 0.49946 0.19979 0.65158 0.0
C938 C 0.51584 0.18892 0.65238 0.0
H939 H 0.43489 0.52058 0.06785 0.0
H940 H 0.38359 0.44876 0.0057 0.0
H941 H 0.34274 0.44743 0.03126 0.0
H942 H 0.39411 0.50179 0.15672 0.0
H943 H 0.40075 0.53436 0.16446 0.0
H944 H 0.42545 0.53091 0.13752 0.0
H945 H 0.42482 0.55933 0.07561 0.0
H946 H 0.39997 0.56282 0.10227 0.0
H947 H 0.39311 0.5497 0.05232 0.0
H948 H 0.30741 0.45181 0.07021 0.0
H949 H 0.28152 0.46068 0.11998 0.0
H950 H 0.35639 0.5308 0.15351 0.0
C951 C 0.41501 0.50492 0.05905 0.0
C952 C 0.41216 0.48492 0.03455 0.0
C953 C 0.38598 0.46438 0.02411 0.0
C954 C 0.36277 0.46353 0.03844 0.0
C955 C 0.36618 0.4835 0.06291 0.0
C956 C 0.39173 0.50388 0.07293 0.0
C957 C 0.39003 0.52194 0.10182 0.0
C958 C 0.40336 0.52224 0.14253 0.0
C959 C 0.40273 0.55012 0.08179 0.0
C960 C 0.35955 0.50822 0.10742 0.0
C961 C 0.34603 0.48619 0.08458 0.0
C962 C 0.31779 0.46929 0.08767 0.0
C963 C 0.30318 0.47455 0.11578 0.0
C964 C 0.31687 0.49646 0.14055 0.0
C965 C 0.3453 0.51393 0.13492 0.0
H966 H 0.9424 0.39208 0.56263 0.0
H967 H 0.90374 0.43468 0.52699 0.0
H968 H 0.85957 0.39655 0.55399 0.0
H969 H 0.88496 0.3237 0.54987 0.0
H970 H 0.89192 0.31078 0.5959 0.0
H971 H 0.91926 0.33895 0.56671 0.0
H972 H 0.93339 0.36641 0.63104 0.0
H973 H 0.90642 0.33825 0.66041 0.0
H974 H 0.90854 0.36952 0.65851 0.0
H975 H 0.82053 0.35561 0.5905 0.0
H976 H 0.79171 0.31879 0.64171 0.0
H977 H 0.85679 0.30511 0.65983 0.0
C978 C 0.92456 0.39326 0.56037 0.0
C979 C 0.92641 0.41631 0.54294 0.0
C980 C 0.90265 0.4171 0.54013 0.0
C981 C 0.8775 0.39551 0.55522 0.0
C982 C 0.87647 0.37333 0.57336 0.0
C983 C 0.89949 0.37224 0.57652 0.0
C984 C 0.89381 0.34798 0.60255 0.0
C985 C 0.89772 0.32924 0.57723 0.0
C986 C 0.91158 0.35603 0.64036 0.0
C987 C 0.86417 0.33588 0.61433 0.0
C988 C 0.85431 0.35036 0.59618 0.0
C989 C 0.82791 0.34391 0.60441 0.0
C990 C 0.81159 0.32285 0.63322 0.0
C991 C 0.82192 0.30889 0.65388 0.0
C992 C 0.84825 0.31505 0.64347 0.0
H993 H 0.5547 0.93899 0.11442 0.0
H994 H 0.49283 0.88652 0.03255 0.0
H995 H 0.49493 0.84903 0.06246 0.0
H996 H 0.59307 0.90573 0.11942 0.0
H997 H 0.59887 0.91059 0.17319 0.0
H998 H 0.59586 0.93423 0.14096 0.0
H999 H 0.55709 0.9279 0.18879 0.0
H1000 H 0.56024 0.90456 0.22126 0.0
H1001 H 0.52794 0.89498 0.20024 0.0
H1002 H 0.49953 0.8161 0.10679 0.0
H1003 H 0.50372 0.79059 0.16497 0.0
H1004 H 0.56219 0.86413 0.21827 0.0
C1005 C 0.54173 0.9197 0.10242 0.0
C1006 C 0.52381 0.91596 0.07068 0.0
C1007 C 0.50727 0.89024 0.05605 0.0
C1008 C 0.50825 0.86871 0.07296 0.0
C1009 C 0.5259 0.87308 0.10449 0.0
C1010 C 0.5423 0.89795 0.11915 0.0
C1011 C 0.55737 0.8969 0.15605 0.0
C1012 C 0.58812 0.91281 0.14684 0.0
C1013 C 0.55022 0.90665 0.1938 0.0
C1014 C 0.54612 0.86741 0.1608 0.0
C1015 C 0.5284 0.85404 0.13031 0.0
C1016 C 0.51374 0.8264 0.1304 0.0
C1017 C 0.5164 0.81204 0.16341 0.0
C1018 C 0.53335 0.82536 0.19605 0.0
C1019 C 0.54921 0.85342 0.19362 0.0
H1020 H 0.61417 0.54711 0.62905 0.0
H1021 H 0.61037 0.49186 0.54421 0.0
H1022 H 0.64806 0.49213 0.57887 0.0
H1023 H 0.68806 0.58468 0.64172 0.0
H1024 H 0.68466 0.58789 0.69547 0.0
H1025 H 0.65981 0.58597 0.66076 0.0
H1026 H 0.62154 0.54587 0.70487 0.0
H1027 H 0.64621 0.54779 0.73973 0.0
H1028 H 0.62374 0.51722 0.71605 0.0
H1029 H 0.68306 0.49486 0.62755 0.0
H1030 H 0.71046 0.49836 0.68736 0.0
H1031 H 0.69134 0.55195 0.73958 0.0
C1032 C 0.62138 0.53522 0.61747 0.0
C1033 C 0.60935 0.51958 0.58371 0.0
C1034 C 0.61954 0.5044 0.56953 0.0
C1035 C 0.64092 0.50437 0.5891 0.0
C1036 C 0.65206 0.51976 0.62265 0.0
C1037 C 0.64262 0.53494 0.63664 0.0
C1038 C 0.65649 0.54811 0.67513 0.0
C1039 C 0.67325 0.57847 0.66781 0.0
C1040 C 0.63576 0.5392 0.71105 0.0
C1041 C 0.6746 0.53733 0.68139 0.0
C1042 C 0.6721 0.52131 0.65056 0.0
C1043 C 0.6855 0.50771 0.65151 0.0
C1044 C 0.70115 0.50992 0.68545 0.0
C1045 C 0.70304 0.52542 0.71808 0.0
C1046 C 0.69027 0.53993 0.71512 0.0
H1047 H 0.07763 0.62 0.1053 0.0
H1048 H 0.13201 0.61198 0.02583 0.0
H1049 H 0.17139 0.64868 0.05876 0.0
H1050 H 0.12039 0.69281 0.11109 0.0
H1051 H 0.11097 0.69089 0.1642 0.0
H1052 H 0.08744 0.66643 0.13075 0.0
H1053 H 0.08344 0.62894 0.1799 0.0
H1054 H 0.10687 0.65323 0.21341 0.0
H1055 H 0.11373 0.6297 0.19369 0.0
H1056 H 0.20482 0.68292 0.10672 0.0
H1057 H 0.22833 0.71064 0.16486 0.0
H1058 H 0.15175 0.69653 0.21093 0.0
C1059 C 0.09782 0.62617 0.09441 0.0
C1060 C 0.1017 0.61314 0.06287 0.0
C1061 C 0.1285 0.62192 0.0495 0.0
C1062 C 0.15101 0.64271 0.06813 0.0
C1063 C 0.14642 0.65475 0.09979 0.0
C1064 C 0.12042 0.64687 0.11253 0.0
C1065 C 0.1207 0.66158 0.14893 0.0
C1066 C 0.1092 0.67896 0.13808 0.0
C1067 C 0.10528 0.64221 0.18616 0.0
C1068 C 0.15084 0.67836 0.15561 0.0
C1069 C 0.16549 0.67444 0.12683 0.0
C1070 C 0.19356 0.68646 0.12898 0.0
C1071 C 0.20681 0.70229 0.16196 0.0
C1072 C 0.1919 0.70575 0.1924 0.0
C1073 C 0.16372 0.69424 0.18818 0.0
loop_
_geom_bond_atom_site_label_1
_geom_bond_atom_site_label_2
_geom_bond_distance
_geom_bond_site_symmetry_2
_ccdc_geom_bond_type
C0 C1 1.443 1_556 S
C0 N4 1.376 1_556 S
C0 C38 1.389 . S
C1 C0 1.443 1_554 S
C1 C2 1.340 . S
C1 H41 0.951 . S
C2 C1 1.340 . S
C2 C3 1.439 . S
C2 H42 0.950 . S
C3 C2 1.439 . S
C3 N4 1.374 . S
C3 C37 1.395 . S
N4 C0 1.376 1_554 S
N4 C3 1.374 . S
N4 Co5 2.015 1_655 S
Co5 N4 2.015 1_455 S
Co5 N6 2.004 . S
Co5 N11 2.002 1_554 S
Co5 N16 1.976 1_554 S
Co5 N21 2.295 . S
Co5 N27 2.270 1_454 S
N6 Co5 2.004 . S
N6 C7 1.359 1_455 S
N6 C10 1.413 . S
C7 N6 1.359 1_655 S
C7 C8 1.446 . S
C7 C37 1.391 . S
C8 C7 1.446 . S
C8 C9 1.339 1_655 S
C8 H43 0.949 . S
C9 C8 1.339 1_455 S
C9 C10 1.439 . S
C9 H44 0.950 . S
C10 N6 1.413 . S
C10 C9 1.439 . S
C10 C39 1.392 . S
N11 Co5 2.002 1_556 S
N11 C12 1.376 1_556 S
N11 C15 1.374 . S
C12 N11 1.376 1_554 S
C12 C13 1.443 1_554 S
C12 C39 1.389 . S
C13 C12 1.443 1_556 S
C13 C14 1.340 . S
C13 H45 0.951 . S
C14 C13 1.340 . S
C14 C15 1.439 . S
C14 H46 0.950 . S
C15 N11 1.374 . S
C15 C14 1.439 . S
C15 C40 1.395 . S
N16 Co5 1.976 1_556 S
N16 C17 1.376 . S
N16 C20 1.383 1_455 S
C17 N16 1.376 . S
C17 C18 1.446 . S
C17 C40 1.391 . S
C18 C17 1.446 . S
C18 C19 1.339 1_455 S
C18 H47 0.949 . S
C19 C18 1.339 1_655 S
C19 C20 1.439 . S
C19 H48 0.950 . S
C20 N16 1.383 1_655 S
C20 C19 1.439 . S
C20 C38 1.392 . S
N21 Co5 2.295 . S
N21 C24 1.332 . S
N21 C26 1.332 . S
C22 C23 1.386 . S
C22 C25 1.388 . S
C23 C22 1.386 . S
C23 C24 1.382 . S
C23 H49 0.950 . S
C24 N21 1.332 . S
C24 C23 1.382 . S
C24 H35 0.952 1_554 S
C25 C22 1.388 . S
C25 C26 1.382 . S
C25 H50 0.950 . S
C26 N21 1.332 . S
C26 C25 1.382 . S
C26 H36 0.948 . S
N27 Co5 2.270 1_656 S
N27 C31 1.332 . S
N27 C32 1.332 . S
C28 C29 1.388 . S
C28 C32 1.382 . S
C28 H51 0.950 . S
C29 C28 1.388 . S
C29 C30 1.386 . S
C30 C29 1.386 . S
C30 C31 1.382 . S
C30 H52 0.950 . S
C31 N27 1.332 . S
C31 C30 1.382 . S
C31 H33 0.952 1_556 S
C32 N27 1.332 . S
C32 C28 1.382 . S
C32 H34 0.948 . S
H33 C31 0.952 1_554 S
H34 C32 0.948 . S
H35 C24 0.952 1_556 S
H36 C26 0.948 . S
C37 C3 1.395 . S
C37 C7 1.391 . S
C38 C0 1.389 . S
C38 C20 1.392 . S
C39 C10 1.392 . S
C39 C12 1.389 . S
C40 C15 1.395 . S
C40 C17 1.391 . S
H41 C1 0.951 . S
H42 C2 0.950 . S
H43 C8 0.949 . S
H44 C9 0.950 . S
H45 C13 0.951 . S
H46 C14 0.950 . S
H47 C18 0.949 . S
H48 C19 0.950 . S
H49 C23 0.950 . S
H50 C25 0.950 . S
H51 C28 0.950 . S
H52 C30 0.950 . S
C53 C54 1.443 . S
C53 N57 1.376 . S
C53 C91 1.389 . S
C54 C53 1.443 . S
C54 C55 1.340 1_545 S
C54 H94 0.951 . S
C55 C54 1.340 1_565 S
C55 C56 1.439 . S
C55 H95 0.950 . S
C56 C55 1.439 . S
C56 N57 1.374 1_565 S
C56 C90 1.395 . S
N57 C53 1.376 . S
N57 C56 1.374 1_545 S
N57 Co58 2.008 . S
Co58 N57 2.008 . S
Co58 N59 1.995 1_545 S
Co58 N64 2.008 . S
Co58 N69 1.995 . S
Co58 N74 2.282 1_545 S
Co58 N80 2.282 . S
N59 Co58 1.995 1_565 S
N59 C60 1.376 . S
N59 C63 1.383 . S
C60 N59 1.376 . S
C60 C61 1.446 . S
C60 C90 1.391 . S
C61 C60 1.446 . S
C61 C62 1.339 . S
C61 H96 0.949 . S
C62 C61 1.339 . S
C62 C63 1.439 . S
C62 H97 0.950 . S
C63 N59 1.383 . S
C63 C62 1.439 . S
C63 C92 1.392 . S
N64 Co58 2.008 . S
N64 C65 1.376 1_545 S
N64 C68 1.374 . S
C65 N64 1.376 1_565 S
C65 C66 1.443 . S
C65 C92 1.389 . S
C66 C65 1.443 . S
C66 C67 1.340 1_565 S
C66 H98 0.951 . S
C67 C66 1.340 1_545 S
C67 C68 1.439 . S
C67 H99 0.950 . S
C68 N64 1.374 . S
C68 C67 1.439 . S
C68 C93 1.395 . S
N69 Co58 1.995 . S
N69 C70 1.376 . S
N69 C73 1.383 . S
C70 N69 1.376 . S
C70 C71 1.446 . S
C70 C93 1.391 . S
C71 C70 1.446 . S
C71 C72 1.339 . S
C71 H100 0.949 . S
C72 C71 1.339 . S
C72 C73 1.439 . S
C72 H101 0.950 . S
C73 N69 1.383 . S
C73 C72 1.439 . S
C73 C91 1.392 . S
N74 Co58 2.282 1_565 S
N74 C77 1.332 . S
N74 C79 1.332 . S
C75 C76 1.386 . S
C75 C78 1.388 . S
C76 C75 1.386 . S
C76 C77 1.382 . S
C76 H102 0.950 . S
C77 N74 1.332 . S
C77 C76 1.382 . S
C77 H88 0.952 1_565 S
C78 C75 1.388 . S
C78 C79 1.382 . S
C78 H103 0.950 . S
C79 N74 1.332 . S
C79 C78 1.382 . S
C79 H89 0.948 . S
N80 Co58 2.282 . S
N80 C84 1.332 . S
N80 C85 1.332 . S
C81 C82 1.388 . S
C81 C85 1.382 . S
C81 H104 0.950 . S
C82 C81 1.388 . S
C82 C83 1.386 . S
C83 C82 1.386 . S
C83 C84 1.382 . S
C83 H105 0.950 . S
C84 N80 1.332 . S
C84 C83 1.382 . S
C84 H86 0.952 . S
C85 N80 1.332 . S
C85 C81 1.382 . S
C85 H87 0.948 . S
H86 C84 0.952 . S
H87 C85 0.948 . S
H88 C77 0.952 1_545 S
H89 C79 0.948 . S
C90 C56 1.395 . S
C90 C60 1.391 . S
C91 C53 1.389 . S
C91 C73 1.392 . S
C92 C63 1.392 . S
C92 C65 1.389 . S
C93 C68 1.395 . S
C93 C70 1.391 . S
H94 C54 0.951 . S
H95 C55 0.950 . S
H96 C61 0.949 . S
H97 C62 0.950 . S
H98 C66 0.951 . S
H99 C67 0.950 . S
H100 C71 0.949 . S
H101 C72 0.950 . S
H102 C76 0.950 . S
H103 C78 0.950 . S
H104 C81 0.950 . S
H105 C83 0.950 . S
C106 C107 1.443 . S
C106 N110 1.376 . S
C106 C144 1.389 . S
C107 C106 1.443 . S
C107 C108 1.340 . S
C107 H147 0.951 . S
C108 C107 1.340 . S
C108 C109 1.439 . S
C108 H148 0.950 . S
C109 C108 1.439 . S
C109 N110 1.374 . S
C109 C143 1.395 . S
N110 C106 1.376 . S
N110 C109 1.374 . S
N110 Co111 1.985 1_556 S
Co111 N110 1.985 1_554 S
Co111 N112 1.986 1_554 S
Co111 N117 2.031 . S
Co111 N122 2.004 . S
Co111 N127 2.295 . S
Co111 N133 2.270 1_554 S
N112 Co111 1.986 1_556 S
N112 C113 1.376 . S
N112 C116 1.383 1_556 S
C113 N112 1.376 . S
C113 C114 1.446 . S
C113 C143 1.391 . S
C114 C113 1.446 . S
C114 C115 1.339 . S
C114 H149 0.949 . S
C115 C114 1.339 . S
C115 C116 1.439 1_556 S
C115 H150 0.950 . S
C116 N112 1.383 1_554 S
C116 C115 1.439 1_554 S
C116 C145 1.392 . S
N117 Co111 2.031 . S
N117 C118 1.376 . S
N117 C121 1.374 . S
C118 N117 1.376 . S
C118 C119 1.443 . S
C118 C145 1.389 . S
C119 C118 1.443 . S
C119 C120 1.340 . S
C119 H151 0.951 . S
C120 C119 1.340 . S
C120 C121 1.439 . S
C120 H152 0.950 . S
C121 N117 1.374 . S
C121 C120 1.439 . S
C121 C146 1.395 . S
N122 Co111 2.004 . S
N122 C123 1.376 . S
N122 C126 1.383 1_554 S
C123 N122 1.376 . S
C123 C124 1.446 . S
C123 C146 1.391 . S
C124 C123 1.446 . S
C124 C125 1.339 . S
C124 H153 0.949 . S
C125 C124 1.339 . S
C125 C126 1.439 1_554 S
C125 H154 0.950 . S
C126 N122 1.383 1_556 S
C126 C125 1.439 1_556 S
C126 C144 1.392 . S
N127 Co111 2.295 . S
N127 C130 1.332 . S
N127 C132 1.332 . S
C128 C129 1.386 . S
C128 C131 1.388 . S
C129 C128 1.386 . S
C129 C130 1.382 . S
C129 H155 0.950 . S
C130 N127 1.332 . S
C130 C129 1.382 . S
C130 H141 0.952 . S
C131 C128 1.388 . S
C131 C132 1.382 . S
C131 H156 0.950 . S
C132 N127 1.332 . S
C132 C131 1.382 . S
C132 H142 0.948 1_554 S
N133 Co111 2.270 1_556 S
N133 C137 1.332 . S
N133 C138 1.332 . S
C134 C135 1.388 . S
C134 C138 1.382 . S
C134 H157 0.950 . S
C135 C134 1.388 . S
C135 C136 1.386 . S
C136 C135 1.386 . S
C136 C137 1.382 . S
C136 H158 0.950 . S
C137 N133 1.332 . S
C137 C136 1.382 . S
C137 H139 0.952 . S
C138 N133 1.332 . S
C138 C134 1.382 . S
C138 H140 0.948 1_556 S
H139 C137 0.952 . S
H140 C138 0.948 1_554 S
H141 C130 0.952 . S
H142 C132 0.948 1_556 S
C143 C109 1.395 . S
C143 C113 1.391 . S
C144 C106 1.389 . S
C144 C126 1.392 . S
C145 C116 1.392 . S
C145 C118 1.389 . S
C146 C121 1.395 . S
C146 C123 1.391 . S
H147 C107 0.951 . S
H148 C108 0.950 . S
H149 C114 0.949 . S
H150 C115 0.950 . S
H151 C119 0.951 . S
H152 C120 0.950 . S
H153 C124 0.949 . S
H154 C125 0.950 . S
H155 C129 0.950 . S
H156 C131 0.950 . S
H157 C134 0.950 . S
H158 C136 0.950 . S
C159 C160 1.443 . S
C159 N163 1.376 . S
C159 C197 1.389 . S
C160 C159 1.443 . S
C160 C161 1.340 . S
C160 H200 0.951 . S
C161 C160 1.340 . S
C161 C162 1.439 . S
C161 H201 0.950 . S
C162 C161 1.439 . S
C162 N163 1.374 . S
C162 C196 1.395 . S
N163 C159 1.376 . S
N163 C162 1.374 . S
N163 Co164 1.990 1_655 S
Co164 N163 1.990 1_455 S
Co164 N165 1.986 . S
Co164 N170 2.027 . S
Co164 N175 2.010 1_455 S
Co164 N180 2.308 . S
Co164 N186 2.257 1_455 S
N165 Co164 1.986 . S
N165 C166 1.376 1_455 S
N165 C169 1.383 . S
C166 N165 1.376 1_655 S
C166 C167 1.446 . S
C166 C196 1.391 . S
C167 C166 1.446 . S
C167 C168 1.339 1_655 S
C167 H202 0.949 . S
C168 C167 1.339 1_455 S
C168 C169 1.439 . S
C168 H203 0.950 . S
C169 N165 1.383 . S
C169 C168 1.439 . S
C169 C198 1.392 . S
N170 Co164 2.027 . S
N170 C171 1.376 . S
N170 C174 1.374 . S
C171 N170 1.376 . S
C171 C172 1.443 . S
C171 C198 1.389 . S
C172 C171 1.443 . S
C172 C173 1.340 . S
C172 H204 0.951 . S
C173 C172 1.340 . S
C173 C174 1.439 . S
C173 H205 0.950 . S
C174 N170 1.374 . S
C174 C173 1.439 . S
C174 C199 1.395 . S
N175 Co164 2.010 1_655 S
N175 C176 1.364 1_655 S
N175 C179 1.390 . S
C176 N175 1.364 1_455 S
C176 C177 1.446 . S
C176 C199 1.391 . S
C177 C176 1.446 . S
C177 C178 1.339 1_455 S
C177 H206 0.949 . S
C178 C177 1.339 1_655 S
C178 C179 1.439 . S
C178 H207 0.950 . S
C179 N175 1.390 . S
C179 C178 1.439 . S
C179 C197 1.392 . S
N180 Co164 2.308 . S
N180 C183 1.332 . S
N180 C185 1.332 . S
C181 C182 1.386 . S
C181 C184 1.388 . S
C182 C181 1.386 . S
C182 C183 1.382 . S
C182 H208 0.950 . S
C183 N180 1.332 . S
C183 C182 1.382 . S
C183 H194 0.952 . S
C184 C181 1.388 . S
C184 C185 1.382 . S
C184 H209 0.950 . S
C185 N180 1.332 . S
C185 C184 1.382 . S
C185 H195 0.948 . S
N186 Co164 2.257 1_655 S
N186 C190 1.332 . S
N186 C191 1.332 . S
C187 C188 1.388 . S
C187 C191 1.382 . S
C187 H210 0.950 . S
C188 C187 1.388 . S
C188 C189 1.386 . S
C189 C188 1.386 . S
C189 C190 1.382 . S
C189 H211 0.950 . S
C190 N186 1.332 . S
C190 C189 1.382 . S
C190 H192 0.952 . S
C191 N186 1.332 . S
C191 C187 1.382 . S
C191 H193 0.948 . S
H192 C190 0.952 . S
H193 C191 0.948 . S
H194 C183 0.952 . S
H195 C185 0.948 . S
C196 C162 1.395 . S
C196 C166 1.391 . S
C197 C159 1.389 . S
C197 C179 1.392 . S
C198 C169 1.392 . S
C198 C171 1.389 . S
C199 C174 1.395 . S
C199 C176 1.391 . S
H200 C160 0.951 . S
H201 C161 0.950 . S
H202 C167 0.949 . S
H203 C168 0.950 . S
H204 C172 0.951 . S
H205 C173 0.950 . S
H206 C177 0.949 . S
H207 C178 0.950 . S
H208 C182 0.950 . S
H209 C184 0.950 . S
H210 C187 0.950 . S
H211 C189 0.950 . S
C212 C213 1.443 . S
C212 N216 1.376 1_565 S
C212 C250 1.389 . S
C213 C212 1.443 . S
C213 C214 1.340 1_565 S
C213 H253 0.951 . S
C214 C213 1.340 1_545 S
C214 C215 1.439 . S
C214 H254 0.950 . S
C215 C214 1.439 . S
C215 N216 1.374 . S
C215 C249 1.395 . S
N216 C212 1.376 1_545 S
N216 C215 1.374 . S
N216 Co217 2.008 . S
Co217 N216 2.008 . S
Co217 N218 1.995 . S
Co217 N223 2.008 1_554 S
Co217 N228 1.995 1_544 S
Co217 N233 2.282 1_554 S
Co217 N239 2.282 1_545 S
N218 Co217 1.995 . S
N218 C219 1.376 . S
N218 C222 1.383 1_554 S
C219 N218 1.376 . S
C219 C220 1.446 . S
C219 C249 1.391 . S
C220 C219 1.446 . S
C220 C221 1.339 . S
C220 H255 0.949 . S
C221 C220 1.339 . S
C221 C222 1.439 1_554 S
C221 H256 0.950 1_554 S
C222 N218 1.383 1_556 S
C222 C221 1.439 1_556 S
C222 C251 1.392 . S
N223 Co217 2.008 1_556 S
N223 C224 1.376 . S
N223 C227 1.374 1_545 S
C224 N223 1.376 . S
C224 C225 1.443 . S
C224 C251 1.389 . S
C225 C224 1.443 . S
C225 C226 1.363 . S
C225 H257 0.951 . S
C226 C225 1.363 . S
C226 C227 1.437 1_545 S
C226 H258 0.934 1_545 S
C227 N223 1.374 1_565 S
C227 C226 1.437 1_565 S
C227 C252 1.395 . S
N228 Co217 1.995 1_566 S
N228 C229 1.376 . S
N228 C232 1.383 1_556 S
C229 N228 1.376 . S
C229 C230 1.446 . S
C229 C252 1.391 . S
C230 C229 1.446 . S
C230 C231 1.339 . S
C230 H259 0.949 . S
C231 C230 1.339 . S
C231 C232 1.439 1_556 S
C231 H260 0.950 1_556 S
C232 N228 1.383 1_554 S
C232 C231 1.439 1_554 S
C232 C250 1.392 . S
N233 Co217 2.282 1_556 S
N233 C236 1.332 . S
N233 C238 1.332 . S
C234 C235 1.386 . S
C234 C237 1.388 . S
C235 C234 1.386 . S
C235 C236 1.382 . S
C235 H261 0.950 . S
C236 N233 1.332 . S
C236 C235 1.382 . S
C236 H247 0.952 . S
C237 C234 1.388 . S
C237 C238 1.382 . S
C237 H262 0.950 . S
C238 N233 1.332 . S
C238 C237 1.382 . S
C238 H248 0.948 1_556 S
N239 Co217 2.282 1_565 S
N239 C243 1.332 . S
N239 C244 1.332 . S
C240 C241 1.388 . S
C240 C244 1.382 . S
C240 H263 0.950 . S
C241 C240 1.388 . S
C241 C242 1.386 . S
C242 C241 1.386 . S
C242 C243 1.382 . S
C242 H264 0.950 . S
C243 N239 1.332 . S
C243 C242 1.382 . S
C243 H245 0.952 1_565 S
C244 N239 1.332 . S
C244 C240 1.382 . S
C244 H246 0.948 1_554 S
H245 C243 0.952 1_545 S
H246 C244 0.948 1_556 S
H247 C236 0.952 . S
H248 C238 0.948 1_554 S
C249 C215 1.395 . S
C249 C219 1.391 . S
C250 C212 1.389 . S
C250 C232 1.392 . S
C251 C222 1.392 . S
C251 C224 1.389 . S
C252 C227 1.395 . S
C252 C229 1.391 . S
H253 C213 0.951 . S
H254 C214 0.950 . S
H255 C220 0.949 . S
H256 C221 0.950 1_556 S
H257 C225 0.951 . S
H258 C226 0.934 1_565 S
H259 C230 0.949 . S
H260 C231 0.950 1_554 S
H261 C235 0.950 . S
H262 C237 0.950 . S
H263 C240 0.950 . S
H264 C242 0.950 . S
C265 C266 1.443 . S
C265 N269 1.376 . S
C265 C303 1.389 . S
C266 C265 1.443 . S
C266 C267 1.340 . S
C266 H306 0.951 . S
C267 C266 1.340 . S
C267 C268 1.439 . S
C267 H307 0.950 . S
C268 C267 1.439 . S
C268 N269 1.374 . S
C268 C302 1.395 . S
N269 C265 1.376 . S
N269 C268 1.374 . S
N269 Co270 2.008 . S
Co270 N269 2.008 . S
Co270 N271 1.995 . S
Co270 N276 2.008 . S
Co270 N281 1.995 . S
Co270 N286 2.282 . S
Co270 N292 2.282 . S
N271 Co270 1.995 . S
N271 C272 1.376 . S
N271 C275 1.383 . S
C272 N271 1.376 . S
C272 C273 1.446 . S
C272 C302 1.391 . S
C273 C272 1.446 . S
C273 C274 1.339 . S
C273 H308 0.949 . S
C274 C273 1.339 . S
C274 C275 1.439 . S
C274 H309 0.950 . S
C275 N271 1.383 . S
C275 C274 1.439 . S
C275 C304 1.392 . S
N276 Co270 2.008 . S
N276 C277 1.376 . S
N276 C280 1.374 . S
C277 N276 1.376 . S
C277 C278 1.443 . S
C277 C304 1.389 . S
C278 C277 1.443 . S
C278 C279 1.340 . S
C278 H310 0.951 . S
C279 C278 1.340 . S
C279 C280 1.439 . S
C279 H311 0.950 . S
C280 N276 1.374 . S
C280 C279 1.439 . S
C280 C305 1.395 . S
N281 Co270 1.995 . S
N281 C282 1.376 . S
N281 C285 1.383 . S
C282 N281 1.376 . S
C282 C283 1.446 . S
C282 C305 1.391 . S
C283 C282 1.446 . S
C283 C284 1.339 . S
C283 H312 0.949 . S
C284 C283 1.339 . S
C284 C285 1.439 . S
C284 H313 0.950 . S
C285 N281 1.383 . S
C285 C284 1.439 . S
C285 C303 1.392 . S
N286 Co270 2.282 . S
N286 C289 1.332 . S
N286 C291 1.332 . S
C287 C288 1.386 . S
C287 C290 1.388 . S
C288 C287 1.386 . S
C288 C289 1.382 . S
C288 H314 0.950 . S
C289 N286 1.332 . S
C289 C288 1.382 . S
C289 H300 0.952 . S
C290 C287 1.388 . S
C290 C291 1.382 . S
C290 H315 0.950 . S
C291 N286 1.332 . S
C291 C290 1.382 . S
C291 H301 0.948 . S
N292 Co270 2.282 . S
N292 C296 1.332 . S
N292 C297 1.332 . S
C293 C294 1.388 . S
C293 C297 1.382 . S
C293 H316 0.950 . S
C294 C293 1.388 . S
C294 C295 1.386 . S
C295 C294 1.386 . S
C295 C296 1.382 . S
C295 H317 0.950 . S
C296 N292 1.332 . S
C296 C295 1.382 . S
C296 H298 0.952 . S
C297 N292 1.332 . S
C297 C293 1.382 . S
C297 H299 0.948 . S
H298 C296 0.952 . S
H299 C297 0.948 . S
H300 C289 0.952 . S
H301 C291 0.948 . S
C302 C268 1.395 . S
C302 C272 1.391 . S
C303 C265 1.389 . S
C303 C285 1.392 . S
C304 C275 1.392 . S
C304 C277 1.389 . S
C305 C280 1.395 . S
C305 C282 1.391 . S
H306 C266 0.951 . S
H307 C267 0.950 . S
H308 C273 0.949 . S
H309 C274 0.950 . S
H310 C278 0.951 . S
H311 C279 0.950 . S
H312 C283 0.949 . S
H313 C284 0.950 . S
H314 C288 0.950 . S
H315 C290 0.950 . S
H316 C293 0.950 . S
H317 C295 0.950 . S
H318 C324 0.930 . S
H319 C327 0.931 . S
H320 C329 0.931 . S
H321 C331 0.930 . S
H322 C333 0.930 . S
H323 C335 0.931 . S
C324 H318 0.930 . S
C324 C325 1.380 . S
C324 C326 1.394 . S
C325 C324 1.380 . S
C325 C329 1.382 . S
C326 C324 1.394 . S
C326 C327 1.400 . S
C327 H319 0.931 . S
C327 C326 1.400 . S
C327 C328 1.375 . S
C328 C327 1.375 . S
C328 C329 1.415 . S
C328 C330 1.501 . S
C329 H320 0.931 . S
C329 C325 1.382 . S
C329 C328 1.415 . S
C330 C328 1.501 . S
C330 C331 1.384 . S
C330 C335 1.408 . S
C331 H321 0.930 . S
C331 C330 1.384 . S
C331 C332 1.389 . S
C332 C331 1.389 . S
C332 C333 1.405 . S
C333 H322 0.930 . S
C333 C332 1.405 . S
C333 C334 1.364 . S
C334 C333 1.364 . S
C334 C335 1.400 . S
C335 H323 0.931 . S
C335 C330 1.408 . S
C335 C334 1.400 . S
H336 C342 0.930 . S
H337 C345 0.931 . S
H338 C347 0.931 . S
H339 C349 0.930 . S
H340 C351 0.930 . S
H341 C353 0.931 . S
C342 H336 0.930 . S
C342 C343 1.380 . S
C342 C344 1.394 . S
C343 C342 1.380 . S
C343 C347 1.382 . S
C344 C342 1.394 . S
C344 C345 1.400 . S
C345 H337 0.931 . S
C345 C344 1.400 . S
C345 C346 1.375 . S
C346 C345 1.375 . S
C346 C347 1.415 . S
C346 C348 1.501 . S
C347 H338 0.931 . S
C347 C343 1.382 . S
C347 C346 1.415 . S
C348 C346 1.501 . S
C348 C349 1.384 . S
C348 C353 1.408 . S
C349 H339 0.930 . S
C349 C348 1.384 . S
C349 C350 1.389 . S
C350 C349 1.389 . S
C350 C351 1.405 . S
C351 H340 0.930 . S
C351 C350 1.405 . S
C351 C352 1.364 . S
C352 C351 1.364 . S
C352 C353 1.400 . S
C353 H341 0.931 . S
C353 C348 1.408 . S
C353 C352 1.400 . S
H354 C360 0.930 . S
H355 C363 0.931 . S
H356 C365 0.931 . S
H357 C367 0.930 . S
H358 C369 0.930 . S
H359 C371 0.931 . S
C360 H354 0.930 . S
C360 C361 1.380 . S
C360 C362 1.394 . S
C361 C360 1.380 . S
C361 C365 1.382 . S
C362 C360 1.394 . S
C362 C363 1.400 . S
C363 H355 0.931 . S
C363 C362 1.400 . S
C363 C364 1.375 . S
C364 C363 1.375 . S
C364 C365 1.415 . S
C364 C366 1.501 . S
C365 H356 0.931 . S
C365 C361 1.382 . S
C365 C364 1.415 . S
C366 C364 1.501 . S
C366 C367 1.384 . S
C366 C371 1.408 . S
C367 H357 0.930 . S
C367 C366 1.384 . S
C367 C368 1.389 . S
C368 C367 1.389 . S
C368 C369 1.405 . S
C369 H358 0.930 . S
C369 C368 1.405 . S
C369 C370 1.364 . S
C370 C369 1.364 . S
C370 C371 1.400 . S
C371 H359 0.931 . S
C371 C366 1.408 . S
C371 C370 1.400 . S
H372 C378 0.930 . S
H373 C381 0.931 . S
H374 C383 0.931 . S
H375 C385 0.930 . S
H376 C387 0.930 . S
H377 C389 0.931 . S
C378 H372 0.930 . S
C378 C379 1.380 . S
C378 C380 1.394 . S
C379 C378 1.380 . S
C379 C383 1.382 . S
C380 C378 1.394 . S
C380 C381 1.400 . S
C381 H373 0.931 . S
C381 C380 1.400 . S
C381 C382 1.375 . S
C382 C381 1.375 . S
C382 C383 1.415 . S
C382 C384 1.501 . S
C383 H374 0.931 . S
C383 C379 1.382 . S
C383 C382 1.415 . S
C384 C382 1.501 . S
C384 C385 1.384 . S
C384 C389 1.408 . S
C385 H375 0.930 . S
C385 C384 1.384 . S
C385 C386 1.389 . S
C386 C385 1.389 . S
C386 C387 1.405 . S
C387 H376 0.930 . S
C387 C386 1.405 . S
C387 C388 1.364 . S
C388 C387 1.364 . S
C388 C389 1.400 . S
C389 H377 0.931 . S
C389 C384 1.408 . S
C389 C388 1.400 . S
H390 C396 0.930 . S
H391 C399 0.931 . S
H392 C401 0.931 . S
H393 C403 0.930 . S
H394 C405 0.930 . S
H395 C407 0.931 . S
C396 H390 0.930 . S
C396 C397 1.380 . S
C396 C398 1.394 . S
C397 C396 1.380 . S
C397 C401 1.382 . S
C398 C396 1.394 . S
C398 C399 1.400 . S
C399 H391 0.931 . S
C399 C398 1.400 . S
C399 C400 1.375 . S
C400 C399 1.375 . S
C400 C401 1.415 . S
C400 C402 1.501 . S
C401 H392 0.931 . S
C401 C397 1.382 . S
C401 C400 1.415 . S
C402 C400 1.501 . S
C402 C403 1.384 . S
C402 C407 1.408 . S
C403 H393 0.930 . S
C403 C402 1.384 . S
C403 C404 1.389 . S
C404 C403 1.389 . S
C404 C405 1.405 . S
C405 H394 0.930 . S
C405 C404 1.405 . S
C405 C406 1.364 . S
C406 C405 1.364 . S
C406 C407 1.400 . S
C407 H395 0.931 . S
C407 C402 1.408 . S
C407 C406 1.400 . S
H408 C414 0.930 . S
H409 C417 0.931 . S
H410 C419 0.931 . S
H411 C421 0.930 . S
H412 C423 0.930 . S
H413 C425 0.931 . S
C414 H408 0.930 . S
C414 C415 1.380 . S
C414 C416 1.394 . S
C415 C414 1.380 . S
C415 C419 1.382 . S
C416 C414 1.394 . S
C416 C417 1.400 . S
C417 H409 0.931 . S
C417 C416 1.400 . S
C417 C418 1.375 . S
C418 C417 1.375 . S
C418 C419 1.415 . S
C418 C420 1.501 . S
C419 H410 0.931 . S
C419 C415 1.382 . S
C419 C418 1.415 . S
C420 C418 1.501 . S
C420 C421 1.384 . S
C420 C425 1.408 . S
C421 H411 0.930 . S
C421 C420 1.384 . S
C421 C422 1.389 . S
C422 C421 1.389 . S
C422 C423 1.405 . S
C423 H412 0.930 . S
C423 C422 1.405 . S
C423 C424 1.364 . S
C424 C423 1.364 . S
C424 C425 1.400 . S
C425 H413 0.931 . S
C425 C420 1.408 . S
C425 C424 1.400 . S
H426 C438 0.930 . S
H427 C440 0.930 . S
H428 C441 0.930 . S
H429 C445 0.959 . S
H430 C445 0.959 . S
H431 C445 0.961 . S
H432 C446 0.960 . S
H433 C446 0.961 . S
H434 C446 0.959 . S
H435 C449 0.929 . S
H436 C450 0.931 . S
H437 C452 0.930 . S
C438 H426 0.930 . S
C438 C439 1.399 . S
C438 C443 1.399 . S
C439 C438 1.399 . S
C439 C440 1.376 . S
C440 H427 0.930 . S
C440 C439 1.376 . S
C440 C441 1.388 . S
C441 H428 0.930 . S
C441 C440 1.388 . S
C441 C442 1.390 . S
C442 C441 1.390 . S
C442 C443 1.394 . S
C442 C448 1.465 . S
C443 C438 1.399 . S
C443 C442 1.394 . S
C443 C444 1.516 . S
C444 C443 1.516 . S
C444 C445 1.502 . S
C444 C446 1.561 . S
C444 C447 1.526 . S
C445 H429 0.959 . S
C445 H430 0.959 . S
C445 H431 0.961 . S
C445 C444 1.502 . S
C446 H432 0.960 . S
C446 H433 0.961 . S
C446 H434 0.959 . S
C446 C444 1.561 . S
C447 C444 1.526 . S
C447 C448 1.396 . S
C447 C452 1.390 . S
C448 C442 1.465 . S
C448 C447 1.396 . S
C448 C449 1.399 . S
C449 H435 0.929 . S
C449 C448 1.399 . S
C449 C450 1.385 . S
C450 H436 0.931 . S
C450 C449 1.385 . S
C450 C451 1.389 . S
C451 C450 1.389 . S
C451 C452 1.387 . S
C452 H437 0.930 . S
C452 C447 1.390 . S
C452 C451 1.387 . S
H453 C465 0.930 . S
H454 C467 0.930 . S
H455 C468 0.930 . S
H456 C472 0.959 . S
H457 C472 0.959 . S
H458 C472 0.961 . S
H459 C473 0.960 . S
H460 C473 0.961 . S
H461 C473 0.959 . S
H462 C476 0.929 . S
H463 C477 0.931 . S
H464 C479 0.930 . S
C465 H453 0.930 . S
C465 C466 1.399 . S
C465 C470 1.399 . S
C466 C465 1.399 . S
C466 C467 1.376 . S
C467 H454 0.930 . S
C467 C466 1.376 . S
C467 C468 1.388 . S
C468 H455 0.930 . S
C468 C467 1.388 . S
C468 C469 1.390 . S
C469 C468 1.390 . S
C469 C470 1.394 . S
C469 C475 1.465 . S
C470 C465 1.399 . S
C470 C469 1.394 . S
C470 C471 1.516 . S
C471 C470 1.516 . S
C471 C472 1.502 . S
C471 C473 1.561 . S
C471 C474 1.526 . S
C472 H456 0.959 . S
C472 H457 0.959 . S
C472 H458 0.961 . S
C472 C471 1.502 . S
C473 H459 0.960 . S
C473 H460 0.961 . S
C473 H461 0.959 . S
C473 C471 1.561 . S
C474 C471 1.526 . S
C474 C475 1.396 . S
C474 C479 1.390 . S
C475 C469 1.465 . S
C475 C474 1.396 . S
C475 C476 1.399 . S
C476 H462 0.929 . S
C476 C475 1.399 . S
C476 C477 1.385 . S
C477 H463 0.931 . S
C477 C476 1.385 . S
C477 C478 1.389 . S
C478 C477 1.389 . S
C478 C479 1.387 . S
C479 H464 0.930 . S
C479 C474 1.390 . S
C479 C478 1.387 . S
H480 C492 0.930 . S
H481 C494 0.930 . S
H482 C495 0.930 . S
H483 C499 0.959 . S
H484 C499 0.959 . S
H485 C499 0.961 . S
H486 C500 0.960 . S
H487 C500 0.961 . S
H488 C500 0.959 . S
H489 C503 0.929 . S
H490 C504 0.931 . S
H491 C506 0.930 . S
C492 H480 0.930 . S
C492 C493 1.399 . S
C492 C497 1.399 . S
C493 C492 1.399 . S
C493 C494 1.376 . S
C494 H481 0.930 . S
C494 C493 1.376 . S
C494 C495 1.388 . S
C495 H482 0.930 . S
C495 C494 1.388 . S
C495 C496 1.390 . S
C496 C495 1.390 . S
C496 C497 1.394 . S
C496 C502 1.465 . S
C497 C492 1.399 . S
C497 C496 1.394 . S
C497 C498 1.516 . S
C498 C497 1.516 . S
C498 C499 1.502 . S
C498 C500 1.561 . S
C498 C501 1.526 . S
C499 H483 0.959 . S
C499 H484 0.959 . S
C499 H485 0.961 . S
C499 C498 1.502 . S
C500 H486 0.960 . S
C500 H487 0.961 . S
C500 H488 0.959 . S
C500 C498 1.561 . S
C501 C498 1.526 . S
C501 C502 1.396 . S
C501 C506 1.390 . S
C502 C496 1.465 . S
C502 C501 1.396 . S
C502 C503 1.399 . S
C503 H489 0.929 . S
C503 C502 1.399 . S
C503 C504 1.385 . S
C504 H490 0.931 . S
C504 C503 1.385 . S
C504 C505 1.389 . S
C505 C504 1.389 . S
C505 C506 1.387 . S
C506 H491 0.930 . S
C506 C501 1.390 . S
C506 C505 1.387 . S
H507 C519 0.930 . S
H508 C521 0.930 . S
H509 C522 0.930 . S
H510 C526 0.959 . S
H511 C526 0.959 . S
H512 C526 0.961 . S
H513 C527 0.960 . S
H514 C527 0.961 . S
H515 C527 0.959 . S
H516 C530 0.929 . S
H517 C531 0.931 . S
H518 C533 0.930 . S
C519 H507 0.930 . S
C519 C520 1.399 . S
C519 C524 1.399 . S
C520 C519 1.399 . S
C520 C521 1.376 . S
C521 H508 0.930 . S
C521 C520 1.376 . S
C521 C522 1.388 . S
C522 H509 0.930 . S
C522 C521 1.388 . S
C522 C523 1.390 . S
C523 C522 1.390 . S
C523 C524 1.394 . S
C523 C529 1.465 . S
C524 C519 1.399 . S
C524 C523 1.394 . S
C524 C525 1.516 . S
C525 C524 1.516 . S
C525 C526 1.502 . S
C525 C527 1.561 . S
C525 C528 1.526 . S
C526 H510 0.959 . S
C526 H511 0.959 . S
C526 H512 0.961 . S
C526 C525 1.502 . S
C527 H513 0.960 . S
C527 H514 0.961 . S
C527 H515 0.959 . S
C527 C525 1.561 . S
C528 C525 1.526 . S
C528 C529 1.396 . S
C528 C533 1.390 . S
C529 C523 1.465 . S
C529 C528 1.396 . S
C529 C530 1.399 . S
C530 H516 0.929 . S
C530 C529 1.399 . S
C530 C531 1.385 . S
C531 H517 0.931 . S
C531 C530 1.385 . S
C531 C532 1.389 . S
C532 C531 1.389 . S
C532 C533 1.387 . S
C533 H518 0.930 . S
C533 C528 1.390 . S
C533 C532 1.387 . S
H534 C546 0.930 . S
H535 C548 0.930 . S
H536 C549 0.930 . S
H537 C553 0.959 . S
H538 C553 0.959 . S
H539 C553 0.961 . S
H540 C554 0.960 . S
H541 C554 0.961 . S
H542 C554 0.959 . S
H543 C557 0.929 . S
H544 C558 0.931 . S
H545 C560 0.930 . S
C546 H534 0.930 . S
C546 C547 1.399 . S
C546 C551 1.399 . S
C547 C546 1.399 . S
C547 C548 1.376 . S
C548 H535 0.930 . S
C548 C547 1.376 . S
C548 C549 1.388 . S
C549 H536 0.930 . S
C549 C548 1.388 . S
C549 C550 1.390 . S
C550 C549 1.390 . S
C550 C551 1.394 . S
C550 C556 1.465 . S
C551 C546 1.399 . S
C551 C550 1.394 . S
C551 C552 1.516 . S
C552 C551 1.516 . S
C552 C553 1.502 . S
C552 C554 1.561 . S
C552 C555 1.526 . S
C553 H537 0.959 . S
C553 H538 0.959 . S
C553 H539 0.961 . S
C553 C552 1.502 . S
C554 H540 0.960 . S
C554 H541 0.961 . S
C554 H542 0.959 . S
C554 C552 1.561 . S
C555 C552 1.526 . S
C555 C556 1.396 . S
C555 C560 1.390 . S
C556 C550 1.465 . S
C556 C555 1.396 . S
C556 C557 1.399 . S
C557 H543 0.929 . S
C557 C556 1.399 . S
C557 C558 1.385 . S
C558 H544 0.931 . S
C558 C557 1.385 . S
C558 C559 1.389 . S
C559 C558 1.389 . S
C559 C560 1.387 . S
C560 H545 0.930 . S
C560 C555 1.390 . S
C560 C559 1.387 . S
H561 C573 0.930 . S
H562 C575 0.930 . S
H563 C576 0.930 . S
H564 C580 0.959 . S
H565 C580 0.959 . S
H566 C580 0.961 . S
H567 C581 0.960 . S
H568 C581 0.961 . S
H569 C581 0.959 . S
H570 C584 0.929 . S
H571 C585 0.931 . S
H572 C587 0.930 . S
C573 H561 0.930 . S
C573 C574 1.399 . S
C573 C578 1.399 . S
C574 C573 1.399 . S
C574 C575 1.376 . S
C575 H562 0.930 . S
C575 C574 1.376 . S
C575 C576 1.388 . S
C576 H563 0.930 . S
C576 C575 1.388 . S
C576 C577 1.390 . S
C577 C576 1.390 . S
C577 C578 1.394 . S
C577 C583 1.465 . S
C578 C573 1.399 . S
C578 C577 1.394 . S
C578 C579 1.516 . S
C579 C578 1.516 . S
C579 C580 1.502 . S
C579 C581 1.561 . S
C579 C582 1.526 . S
C580 H564 0.959 . S
C580 H565 0.959 . S
C580 H566 0.961 . S
C580 C579 1.502 . S
C581 H567 0.960 . S
C581 H568 0.961 . S
C581 H569 0.959 . S
C581 C579 1.561 . S
C582 C579 1.526 . S
C582 C583 1.396 . S
C582 C587 1.390 . S
C583 C577 1.465 . S
C583 C582 1.396 . S
C583 C584 1.399 . S
C584 H570 0.929 . S
C584 C583 1.399 . S
C584 C585 1.385 . S
C585 H571 0.931 . S
C585 C584 1.385 . S
C585 C586 1.389 . S
C586 C585 1.389 . S
C586 C587 1.387 . S
C587 H572 0.930 . S
C587 C582 1.390 . S
C587 C586 1.387 . S
H588 C600 0.930 . S
H589 C602 0.930 . S
H590 C603 0.930 . S
H591 C607 0.959 . S
H592 C607 0.959 . S
H593 C607 0.961 . S
H594 C608 0.960 . S
H595 C608 0.961 . S
H596 C608 0.959 . S
H597 C611 0.929 . S
H598 C612 0.931 . S
H599 C614 0.930 . S
C600 H588 0.930 . S
C600 C601 1.399 . S
C600 C605 1.399 . S
C601 C600 1.399 . S
C601 C602 1.376 . S
C602 H589 0.930 . S
C602 C601 1.376 . S
C602 C603 1.388 . S
C603 H590 0.930 . S
C603 C602 1.388 . S
C603 C604 1.390 . S
C604 C603 1.390 . S
C604 C605 1.394 . S
C604 C610 1.465 . S
C605 C600 1.399 . S
C605 C604 1.394 . S
C605 C606 1.516 . S
C606 C605 1.516 . S
C606 C607 1.502 . S
C606 C608 1.561 . S
C606 C609 1.526 . S
C607 H591 0.959 . S
C607 H592 0.959 . S
C607 H593 0.961 . S
C607 C606 1.502 . S
C608 H594 0.960 . S
C608 H595 0.961 . S
C608 H596 0.959 . S
C608 C606 1.561 . S
C609 C606 1.526 . S
C609 C610 1.396 . S
C609 C614 1.390 . S
C610 C604 1.465 . S
C610 C609 1.396 . S
C610 C611 1.399 . S
C611 H597 0.929 . S
C611 C610 1.399 . S
C611 C612 1.385 . S
C612 H598 0.931 . S
C612 C611 1.385 . S
C612 C613 1.389 . S
C613 C612 1.389 . S
C613 C614 1.387 . S
C614 H599 0.930 . S
C614 C609 1.390 . S
C614 C613 1.387 . S
H615 C627 0.930 . S
H616 C629 0.930 . S
H617 C630 0.930 . S
H618 C634 0.959 . S
H619 C634 0.959 . S
H620 C634 0.961 . S
H621 C635 0.960 . S
H622 C635 0.961 . S
H623 C635 0.959 . S
H624 C638 0.929 . S
H625 C639 0.931 . S
H626 C641 0.930 . S
C627 H615 0.930 . S
C627 C628 1.399 . S
C627 C632 1.399 . S
C628 C627 1.399 . S
C628 C629 1.376 . S
C629 H616 0.930 . S
C629 C628 1.376 . S
C629 C630 1.388 . S
C630 H617 0.930 . S
C630 C629 1.388 . S
C630 C631 1.390 . S
C631 C630 1.390 . S
C631 C632 1.394 . S
C631 C637 1.465 . S
C632 C627 1.399 . S
C632 C631 1.394 . S
C632 C633 1.516 . S
C633 C632 1.516 . S
C633 C634 1.502 . S
C633 C635 1.561 . S
C633 C636 1.526 . S
C634 H618 0.959 . S
C634 H619 0.959 . S
C634 H620 0.961 . S
C634 C633 1.502 . S
C635 H621 0.960 . S
C635 H622 0.961 . S
C635 H623 0.959 . S
C635 C633 1.561 . S
C636 C633 1.526 . S
C636 C637 1.396 . S
C636 C641 1.390 . S
C637 C631 1.465 . S
C637 C636 1.396 . S
C637 C638 1.399 . S
C638 H624 0.929 . S
C638 C637 1.399 . S
C638 C639 1.385 . S
C639 H625 0.931 . S
C639 C638 1.385 . S
C639 C640 1.389 . S
C640 C639 1.389 . S
C640 C641 1.387 . S
C641 H626 0.930 . S
C641 C636 1.390 . S
C641 C640 1.387 . S
H642 C654 0.930 . S
H643 C656 0.930 . S
H644 C657 0.930 . S
H645 C661 0.959 . S
H646 C661 0.959 . S
H647 C661 0.961 . S
H648 C662 0.960 . S
H649 C662 0.961 . S
H650 C662 0.959 . S
H651 C665 0.929 . S
H652 C666 0.931 . S
H653 C668 0.930 . S
C654 H642 0.930 . S
C654 C655 1.399 . S
C654 C659 1.399 . S
C655 C654 1.399 . S
C655 C656 1.376 . S
C656 H643 0.930 . S
C656 C655 1.376 . S
C656 C657 1.388 . S
C657 H644 0.930 . S
C657 C656 1.388 . S
C657 C658 1.390 . S
C658 C657 1.390 . S
C658 C659 1.394 . S
C658 C664 1.465 . S
C659 C654 1.399 . S
C659 C658 1.394 . S
C659 C660 1.516 . S
C660 C659 1.516 . S
C660 C661 1.502 . S
C660 C662 1.561 . S
C660 C663 1.526 . S
C661 H645 0.959 . S
C661 H646 0.959 . S
C661 H647 0.961 . S
C661 C660 1.502 . S
C662 H648 0.960 . S
C662 H649 0.961 . S
C662 H650 0.959 . S
C662 C660 1.561 . S
C663 C660 1.526 . S
C663 C664 1.396 . S
C663 C668 1.390 . S
C664 C658 1.465 . S
C664 C663 1.396 . S
C664 C665 1.399 . S
C665 H651 0.929 . S
C665 C664 1.399 . S
C665 C666 1.385 . S
C666 H652 0.931 . S
C666 C665 1.385 . S
C666 C667 1.389 . S
C667 C666 1.389 . S
C667 C668 1.387 . S
C668 H653 0.930 . S
C668 C663 1.390 . S
C668 C667 1.387 . S
H669 C681 0.930 . S
H670 C683 0.930 . S
H671 C684 0.930 . S
H672 C688 0.959 . S
H673 C688 0.959 . S
H674 C688 0.961 . S
H675 C689 0.960 . S
H676 C689 0.961 . S
H677 C689 0.959 . S
H678 C692 0.929 . S
H679 C693 0.931 . S
H680 C695 0.930 . S
C681 H669 0.930 . S
C681 C682 1.399 . S
C681 C686 1.399 . S
C682 C681 1.399 . S
C682 C683 1.376 . S
C683 H670 0.930 . S
C683 C682 1.376 . S
C683 C684 1.388 . S
C684 H671 0.930 . S
C684 C683 1.388 . S
C684 C685 1.390 . S
C685 C684 1.390 . S
C685 C686 1.394 . S
C685 C691 1.465 . S
C686 C681 1.399 . S
C686 C685 1.394 . S
C686 C687 1.516 . S
C687 C686 1.516 . S
C687 C688 1.502 . S
C687 C689 1.561 . S
C687 C690 1.526 . S
C688 H672 0.959 . S
C688 H673 0.959 . S
C688 H674 0.961 . S
C688 C687 1.502 . S
C689 H675 0.960 . S
C689 H676 0.961 . S
C689 H677 0.959 . S
C689 C687 1.561 . S
C690 C687 1.526 . S
C690 C691 1.396 . S
C690 C695 1.390 . S
C691 C685 1.465 . S
C691 C690 1.396 . S
C691 C692 1.399 . S
C692 H678 0.929 . S
C692 C691 1.399 . S
C692 C693 1.385 . S
C693 H679 0.931 . S
C693 C692 1.385 . S
C693 C694 1.389 . S
C694 C693 1.389 . S
C694 C695 1.387 . S
C695 H680 0.930 . S
C695 C690 1.390 . S
C695 C694 1.387 . S
H696 C708 0.930 . S
H697 C710 0.930 . S
H698 C711 0.930 . S
H699 C715 0.959 . S
H700 C715 0.959 . S
H701 C715 0.961 . S
H702 C716 0.960 . S
H703 C716 0.961 . S
H704 C716 0.959 . S
H705 C719 0.929 . S
H706 C720 0.931 . S
H707 C722 0.930 . S
C708 H696 0.930 . S
C708 C709 1.399 . S
C708 C713 1.399 . S
C709 C708 1.399 . S
C709 C710 1.376 . S
C710 H697 0.930 . S
C710 C709 1.376 . S
C710 C711 1.388 . S
C711 H698 0.930 . S
C711 C710 1.388 . S
C711 C712 1.390 . S
C712 C711 1.390 . S
C712 C713 1.394 . S
C712 C718 1.465 . S
C713 C708 1.399 . S
C713 C712 1.394 . S
C713 C714 1.516 . S
C714 C713 1.516 . S
C714 C715 1.502 . S
C714 C716 1.561 . S
C714 C717 1.526 . S
C715 H699 0.959 . S
C715 H700 0.959 . S
C715 H701 0.961 . S
C715 C714 1.502 . S
C716 H702 0.960 . S
C716 H703 0.961 . S
C716 H704 0.959 . S
C716 C714 1.561 . S
C717 C714 1.526 . S
C717 C718 1.396 . S
C717 C722 1.390 . S
C718 C712 1.465 . S
C718 C717 1.396 . S
C718 C719 1.399 . S
C719 H705 0.929 . S
C719 C718 1.399 . S
C719 C720 1.385 . S
C720 H706 0.931 . S
C720 C719 1.385 . S
C720 C721 1.389 . S
C721 C720 1.389 . S
C721 C722 1.387 . S
C722 H707 0.930 . S
C722 C717 1.390 . S
C722 C721 1.387 . S
H723 C735 0.930 . S
H724 C737 0.930 . S
H725 C738 0.930 . S
H726 C742 0.959 . S
H727 C742 0.959 . S
H728 C742 0.961 . S
H729 C743 0.960 . S
H730 C743 0.961 . S
H731 C743 0.959 . S
H732 C746 0.929 . S
H733 C747 0.931 . S
H734 C749 0.930 . S
C735 H723 0.930 . S
C735 C736 1.399 . S
C735 C740 1.399 . S
C736 C735 1.399 . S
C736 C737 1.376 . S
C737 H724 0.930 . S
C737 C736 1.376 . S
C737 C738 1.388 . S
C738 H725 0.930 . S
C738 C737 1.388 . S
C738 C739 1.390 . S
C739 C738 1.390 . S
C739 C740 1.394 . S
C739 C745 1.465 . S
C740 C735 1.399 . S
C740 C739 1.394 . S
C740 C741 1.516 . S
C741 C740 1.516 . S
C741 C742 1.502 . S
C741 C743 1.561 . S
C741 C744 1.526 . S
C742 H726 0.959 . S
C742 H727 0.959 . S
C742 H728 0.961 . S
C742 C741 1.502 . S
C743 H729 0.960 . S
C743 H730 0.961 . S
C743 H731 0.959 . S
C743 C741 1.561 . S
C744 C741 1.526 . S
C744 C745 1.396 . S
C744 C749 1.390 . S
C745 C739 1.465 . S
C745 C744 1.396 . S
C745 C746 1.399 . S
C746 H732 0.929 . S
C746 C745 1.399 . S
C746 C747 1.385 . S
C747 H733 0.931 . S
C747 C746 1.385 . S
C747 C748 1.389 . S
C748 C747 1.389 . S
C748 C749 1.387 . S
C749 H734 0.930 . S
C749 C744 1.390 . S
C749 C748 1.387 . S
H750 C762 0.930 . S
H751 C764 0.930 . S
H752 C765 0.930 . S
H753 C769 0.959 . S
H754 C769 0.959 . S
H755 C769 0.961 . S
H756 C770 0.960 . S
H757 C770 0.961 . S
H758 C770 0.959 . S
H759 C773 0.929 . S
H760 C774 0.931 . S
H761 C776 0.930 . S
C762 H750 0.930 . S
C762 C763 1.399 . S
C762 C767 1.399 . S
C763 C762 1.399 . S
C763 C764 1.376 . S
C764 H751 0.930 . S
C764 C763 1.376 . S
C764 C765 1.388 . S
C765 H752 0.930 . S
C765 C764 1.388 . S
C765 C766 1.390 . S
C766 C765 1.390 . S
C766 C767 1.394 . S
C766 C772 1.465 . S
C767 C762 1.399 . S
C767 C766 1.394 . S
C767 C768 1.516 . S
C768 C767 1.516 . S
C768 C769 1.502 . S
C768 C770 1.561 . S
C768 C771 1.526 . S
C769 H753 0.959 . S
C769 H754 0.959 . S
C769 H755 0.961 . S
C769 C768 1.502 . S
C770 H756 0.960 . S
C770 H757 0.961 . S
C770 H758 0.959 . S
C770 C768 1.561 . S
C771 C768 1.526 . S
C771 C772 1.396 . S
C771 C776 1.390 . S
C772 C766 1.465 . S
C772 C771 1.396 . S
C772 C773 1.399 . S
C773 H759 0.929 . S
C773 C772 1.399 . S
C773 C774 1.385 . S
C774 H760 0.931 . S
C774 C773 1.385 . S
C774 C775 1.389 . S
C775 C774 1.389 . S
C775 C776 1.387 . S
C776 H761 0.930 . S
C776 C771 1.390 . S
C776 C775 1.387 . S
H777 C789 0.930 . S
H778 C791 0.930 . S
H779 C792 0.930 . S
H780 C796 0.959 . S
H781 C796 0.959 . S
H782 C796 0.961 . S
H783 C797 0.960 . S
H784 C797 0.961 . S
H785 C797 0.959 . S
H786 C800 0.929 . S
H787 C801 0.931 . S
H788 C803 0.930 . S
C789 H777 0.930 . S
C789 C790 1.399 . S
C789 C794 1.399 . S
C790 C789 1.399 . S
C790 C791 1.376 . S
C791 H778 0.930 . S
C791 C790 1.376 . S
C791 C792 1.388 . S
C792 H779 0.930 . S
C792 C791 1.388 . S
C792 C793 1.390 . S
C793 C792 1.390 . S
C793 C794 1.394 . S
C793 C799 1.465 . S
C794 C789 1.399 . S
C794 C793 1.394 . S
C794 C795 1.516 . S
C795 C794 1.516 . S
C795 C796 1.502 . S
C795 C797 1.561 . S
C795 C798 1.526 . S
C796 H780 0.959 . S
C796 H781 0.959 . S
C796 H782 0.961 . S
C796 C795 1.502 . S
C797 H783 0.960 . S
C797 H784 0.961 . S
C797 H785 0.959 . S
C797 C795 1.561 . S
C798 C795 1.526 . S
C798 C799 1.396 . S
C798 C803 1.390 . S
C799 C793 1.465 . S
C799 C798 1.396 . S
C799 C800 1.399 . S
C800 H786 0.929 . S
C800 C799 1.399 . S
C800 C801 1.385 . S
C801 H787 0.931 . S
C801 C800 1.385 . S
C801 C802 1.389 . S
C802 C801 1.389 . S
C802 C803 1.387 . S
C803 H788 0.930 . S
C803 C798 1.390 . S
C803 C802 1.387 . S
H804 C816 0.930 . S
H805 C818 0.930 . S
H806 C819 0.930 . S
H807 C823 0.959 . S
H808 C823 0.959 . S
H809 C823 0.961 . S
H810 C824 0.960 . S
H811 C824 0.961 . S
H812 C824 0.959 . S
H813 C827 0.929 . S
H814 C828 0.931 . S
H815 C830 0.930 . S
C816 H804 0.930 . S
C816 C817 1.399 . S
C816 C821 1.399 . S
C817 C816 1.399 . S
C817 C818 1.376 . S
C818 H805 0.930 . S
C818 C817 1.376 . S
C818 C819 1.388 . S
C819 H806 0.930 . S
C819 C818 1.388 . S
C819 C820 1.390 . S
C820 C819 1.390 . S
C820 C821 1.394 . S
C820 C826 1.465 . S
C821 C816 1.399 . S
C821 C820 1.394 . S
C821 C822 1.516 . S
C822 C821 1.516 . S
C822 C823 1.502 . S
C822 C824 1.561 . S
C822 C825 1.526 . S
C823 H807 0.959 . S
C823 H808 0.959 . S
C823 H809 0.961 . S
C823 C822 1.502 . S
C824 H810 0.960 . S
C824 H811 0.961 . S
C824 H812 0.959 . S
C824 C822 1.561 . S
C825 C822 1.526 . S
C825 C826 1.396 . S
C825 C830 1.390 . S
C826 C820 1.465 . S
C826 C825 1.396 . S
C826 C827 1.399 . S
C827 H813 0.929 . S
C827 C826 1.399 . S
C827 C828 1.385 . S
C828 H814 0.931 . S
C828 C827 1.385 . S
C828 C829 1.389 . S
C829 C828 1.389 . S
C829 C830 1.387 . S
C830 H815 0.930 . S
C830 C825 1.390 . S
C830 C829 1.387 . S
H831 C843 0.930 . S
H832 C845 0.930 . S
H833 C846 0.930 . S
H834 C850 0.959 . S
H835 C850 0.959 . S
H836 C850 0.961 . S
H837 C851 0.960 . S
H838 C851 0.961 . S
H839 C851 0.959 . S
H840 C854 0.929 . S
H841 C855 0.931 . S
H842 C857 0.930 . S
C843 H831 0.930 . S
C843 C844 1.399 . S
C843 C848 1.399 . S
C844 C843 1.399 . S
C844 C845 1.376 . S
C845 H832 0.930 . S
C845 C844 1.376 . S
C845 C846 1.388 . S
C846 H833 0.930 . S
C846 C845 1.388 . S
C846 C847 1.390 . S
C847 C846 1.390 . S
C847 C848 1.394 . S
C847 C853 1.465 . S
C848 C843 1.399 . S
C848 C847 1.394 . S
C848 C849 1.516 . S
C849 C848 1.516 . S
C849 C850 1.502 . S
C849 C851 1.561 . S
C849 C852 1.526 . S
C850 H834 0.959 . S
C850 H835 0.959 . S
C850 H836 0.961 . S
C850 C849 1.502 . S
C851 H837 0.960 . S
C851 H838 0.961 . S
C851 H839 0.959 . S
C851 C849 1.561 . S
C852 C849 1.526 . S
C852 C853 1.396 . S
C852 C857 1.390 . S
C853 C847 1.465 . S
C853 C852 1.396 . S
C853 C854 1.399 . S
C854 H840 0.929 . S
C854 C853 1.399 . S
C854 C855 1.385 . S
C855 H841 0.931 . S
C855 C854 1.385 . S
C855 C856 1.389 . S
C856 C855 1.389 . S
C856 C857 1.387 . S
C857 H842 0.930 . S
C857 C852 1.390 . S
C857 C856 1.387 . S
H858 C870 0.930 . S
H859 C872 0.930 . S
H860 C873 0.930 . S
H861 C877 0.959 . S
H862 C877 0.959 . S
H863 C877 0.961 . S
H864 C878 0.960 . S
H865 C878 0.961 . S
H866 C878 0.959 . S
H867 C881 0.929 . S
H868 C882 0.931 . S
H869 C884 0.930 . S
C870 H858 0.930 . S
C870 C871 1.399 . S
C870 C875 1.399 . S
C871 C870 1.399 . S
C871 C872 1.376 . S
C872 H859 0.930 . S
C872 C871 1.376 . S
C872 C873 1.388 . S
C873 H860 0.930 . S
C873 C872 1.388 . S
C873 C874 1.390 . S
C874 C873 1.390 . S
C874 C875 1.394 . S
C874 C880 1.465 . S
C875 C870 1.399 . S
C875 C874 1.394 . S
C875 C876 1.516 . S
C876 C875 1.516 . S
C876 C877 1.502 . S
C876 C878 1.561 . S
C876 C879 1.526 . S
C877 H861 0.959 . S
C877 H862 0.959 . S
C877 H863 0.961 . S
C877 C876 1.502 . S
C878 H864 0.960 . S
C878 H865 0.961 . S
C878 H866 0.959 . S
C878 C876 1.561 . S
C879 C876 1.526 . S
C879 C880 1.396 . S
C879 C884 1.390 . S
C880 C874 1.465 . S
C880 C879 1.396 . S
C880 C881 1.399 . S
C881 H867 0.929 . S
C881 C880 1.399 . S
C881 C882 1.385 . S
C882 H868 0.931 . S
C882 C881 1.385 . S
C882 C883 1.389 . S
C883 C882 1.389 . S
C883 C884 1.387 . S
C884 H869 0.930 . S
C884 C879 1.390 . S
C884 C883 1.387 . S
H885 C897 0.930 . S
H886 C899 0.930 . S
H887 C900 0.930 . S
H888 C904 0.959 . S
H889 C904 0.959 . S
H890 C904 0.961 . S
H891 C905 0.960 . S
H892 C905 0.961 . S
H893 C905 0.959 . S
H894 C908 0.929 . S
H895 C909 0.931 . S
H896 C911 0.930 . S
C897 H885 0.930 . S
C897 C898 1.399 . S
C897 C902 1.399 . S
C898 C897 1.399 . S
C898 C899 1.376 . S
C899 H886 0.930 . S
C899 C898 1.376 . S
C899 C900 1.388 . S
C900 H887 0.930 . S
C900 C899 1.388 . S
C900 C901 1.390 . S
C901 C900 1.390 . S
C901 C902 1.394 . S
C901 C907 1.465 . S
C902 C897 1.399 . S
C902 C901 1.394 . S
C902 C903 1.516 . S
C903 C902 1.516 . S
C903 C904 1.502 . S
C903 C905 1.561 . S
C903 C906 1.526 . S
C904 H888 0.959 . S
C904 H889 0.959 . S
C904 H890 0.961 . S
C904 C903 1.502 . S
C905 H891 0.960 . S
C905 H892 0.961 . S
C905 H893 0.959 . S
C905 C903 1.561 . S
C906 C903 1.526 . S
C906 C907 1.396 . S
C906 C911 1.390 . S
C907 C901 1.465 . S
C907 C906 1.396 . S
C907 C908 1.399 . S
C908 H894 0.929 . S
C908 C907 1.399 . S
C908 C909 1.385 . S
C909 H895 0.931 . S
C909 C908 1.385 . S
C909 C910 1.389 . S
C910 C909 1.389 . S
C910 C911 1.387 . S
C911 H896 0.930 . S
C911 C906 1.390 . S
C911 C910 1.387 . S
H912 C924 0.930 . S
H913 C926 0.930 . S
H914 C927 0.930 . S
H915 C931 0.959 . S
H916 C931 0.959 . S
H917 C931 0.961 . S
H918 C932 0.960 . S
H919 C932 0.961 . S
H920 C932 0.959 . S
H921 C935 0.929 . S
H922 C936 0.931 . S
H923 C938 0.930 . S
C924 H912 0.930 . S
C924 C925 1.399 . S
C924 C929 1.399 . S
C925 C924 1.399 . S
C925 C926 1.376 . S
C926 H913 0.930 . S
C926 C925 1.376 . S
C926 C927 1.388 . S
C927 H914 0.930 . S
C927 C926 1.388 . S
C927 C928 1.390 . S
C928 C927 1.390 . S
C928 C929 1.394 . S
C928 C934 1.465 . S
C929 C924 1.399 . S
C929 C928 1.394 . S
C929 C930 1.516 . S
C930 C929 1.516 . S
C930 C931 1.502 . S
C930 C932 1.561 . S
C930 C933 1.526 . S
C931 H915 0.959 . S
C931 H916 0.959 . S
C931 H917 0.961 . S
C931 C930 1.502 . S
C932 H918 0.960 . S
C932 H919 0.961 . S
C932 H920 0.959 . S
C932 C930 1.561 . S
C933 C930 1.526 . S
C933 C934 1.396 . S
C933 C938 1.390 . S
C934 C928 1.465 . S
C934 C933 1.396 . S
C934 C935 1.399 . S
C935 H921 0.929 . S
C935 C934 1.399 . S
C935 C936 1.385 . S
C936 H922 0.931 . S
C936 C935 1.385 . S
C936 C937 1.389 . S
C937 C936 1.389 . S
C937 C938 1.387 . S
C938 H923 0.930 . S
C938 C933 1.390 . S
C938 C937 1.387 . S
H939 C951 0.930 . S
H940 C953 0.930 . S
H941 C954 0.930 . S
H942 C958 0.959 . S
H943 C958 0.959 . S
H944 C958 0.961 . S
H945 C959 0.960 . S
H946 C959 0.961 . S
H947 C959 0.959 . S
H948 C962 0.929 . S
H949 C963 0.931 . S
H950 C965 0.930 . S
C951 H939 0.930 . S
C951 C952 1.399 . S
C951 C956 1.399 . S
C952 C951 1.399 . S
C952 C953 1.376 . S
C953 H940 0.930 . S
C953 C952 1.376 . S
C953 C954 1.388 . S
C954 H941 0.930 . S
C954 C953 1.388 . S
C954 C955 1.390 . S
C955 C954 1.390 . S
C955 C956 1.394 . S
C955 C961 1.465 . S
C956 C951 1.399 . S
C956 C955 1.394 . S
C956 C957 1.516 . S
C957 C956 1.516 . S
C957 C958 1.502 . S
C957 C959 1.561 . S
C957 C960 1.526 . S
C958 H942 0.959 . S
C958 H943 0.959 . S
C958 H944 0.961 . S
C958 C957 1.502 . S
C959 H945 0.960 . S
C959 H946 0.961 . S
C959 H947 0.959 . S
C959 C957 1.561 . S
C960 C957 1.526 . S
C960 C961 1.396 . S
C960 C965 1.390 . S
C961 C955 1.465 . S
C961 C960 1.396 . S
C961 C962 1.399 . S
C962 H948 0.929 . S
C962 C961 1.399 . S
C962 C963 1.385 . S
C963 H949 0.931 . S
C963 C962 1.385 . S
C963 C964 1.389 . S
C964 C963 1.389 . S
C964 C965 1.387 . S
C965 H950 0.930 . S
C965 C960 1.390 . S
C965 C964 1.387 . S
H966 C978 0.930 . S
H967 C980 0.930 . S
H968 C981 0.930 . S
H969 C985 0.959 . S
H970 C985 0.959 . S
H971 C985 0.961 . S
H972 C986 0.960 . S
H973 C986 0.961 . S
H974 C986 0.959 . S
H975 C989 0.929 . S
H976 C990 0.931 . S
H977 C992 0.930 . S
C978 H966 0.930 . S
C978 C979 1.399 . S
C978 C983 1.399 . S
C979 C978 1.399 . S
C979 C980 1.376 . S
C980 H967 0.930 . S
C980 C979 1.376 . S
C980 C981 1.388 . S
C981 H968 0.930 . S
C981 C980 1.388 . S
C981 C982 1.390 . S
C982 C981 1.390 . S
C982 C983 1.394 . S
C982 C988 1.465 . S
C983 C978 1.399 . S
C983 C982 1.394 . S
C983 C984 1.516 . S
C984 C983 1.516 . S
C984 C985 1.502 . S
C984 C986 1.561 . S
C984 C987 1.526 . S
C985 H969 0.959 . S
C985 H970 0.959 . S
C985 H971 0.961 . S
C985 C984 1.502 . S
C986 H972 0.960 . S
C986 H973 0.961 . S
C986 H974 0.959 . S
C986 C984 1.561 . S
C987 C984 1.526 . S
C987 C988 1.396 . S
C987 C992 1.390 . S
C988 C982 1.465 . S
C988 C987 1.396 . S
C988 C989 1.399 . S
C989 H975 0.929 . S
C989 C988 1.399 . S
C989 C990 1.385 . S
C990 H976 0.931 . S
C990 C989 1.385 . S
C990 C991 1.389 . S
C991 C990 1.389 . S
C991 C992 1.387 . S
C992 H977 0.930 . S
C992 C987 1.390 . S
C992 C991 1.387 . S
H993 C1005 0.930 . S
H994 C1007 0.930 . S
H995 C1008 0.930 . S
H996 C1012 0.959 . S
H997 C1012 0.959 . S
H998 C1012 0.961 . S
H999 C1013 0.960 . S
H1000 C1013 0.961 . S
H1001 C1013 0.959 . S
H1002 C1016 0.929 . S
H1003 C1017 0.931 . S
H1004 C1019 0.930 . S
C1005 H993 0.930 . S
C1005 C1006 1.399 . S
C1005 C1010 1.399 . S
C1006 C1005 1.399 . S
C1006 C1007 1.376 . S
C1007 H994 0.930 . S
C1007 C1006 1.376 . S
C1007 C1008 1.388 . S
C1008 H995 0.930 . S
C1008 C1007 1.388 . S
C1008 C1009 1.390 . S
C1009 C1008 1.390 . S
C1009 C1010 1.394 . S
C1009 C1015 1.465 . S
C1010 C1005 1.399 . S
C1010 C1009 1.394 . S
C1010 C1011 1.516 . S
C1011 C1010 1.516 . S
C1011 C1012 1.502 . S
C1011 C1013 1.561 . S
C1011 C1014 1.526 . S
C1012 H996 0.959 . S
C1012 H997 0.959 . S
C1012 H998 0.961 . S
C1012 C1011 1.502 . S
C1013 H999 0.960 . S
C1013 H1000 0.961 . S
C1013 H1001 0.959 . S
C1013 C1011 1.561 . S
C1014 C1011 1.526 . S
C1014 C1015 1.396 . S
C1014 C1019 1.390 . S
C1015 C1009 1.465 . S
C1015 C1014 1.396 . S
C1015 C1016 1.399 . S
C1016 H1002 0.929 . S
C1016 C1015 1.399 . S
C1016 C1017 1.385 . S
C1017 H1003 0.931 . S
C1017 C1016 1.385 . S
C1017 C1018 1.389 . S
C1018 C1017 1.389 . S
C1018 C1019 1.387 . S
C1019 H1004 0.930 . S
C1019 C1014 1.390 . S
C1019 C1018 1.387 . S
H1020 C1032 0.930 . S
H1021 C1034 0.930 . S
H1022 C1035 0.930 . S
H1023 C1039 0.959 . S
H1024 C1039 0.959 . S
H1025 C1039 0.961 . S
H1026 C1040 0.960 . S
H1027 C1040 0.961 . S
H1028 C1040 0.959 . S
H1029 C1043 0.929 . S
H1030 C1044 0.931 . S
H1031 C1046 0.930 . S
C1032 H1020 0.930 . S
C1032 C1033 1.399 . S
C1032 C1037 1.399 . S
C1033 C1032 1.399 . S
C1033 C1034 1.376 . S
C1034 H1021 0.930 . S
C1034 C1033 1.376 . S
C1034 C1035 1.388 . S
C1035 H1022 0.930 . S
C1035 C1034 1.388 . S
C1035 C1036 1.390 . S
C1036 C1035 1.390 . S
C1036 C1037 1.394 . S
C1036 C1042 1.465 . S
C1037 C1032 1.399 . S
C1037 C1036 1.394 . S
C1037 C1038 1.516 . S
C1038 C1037 1.516 . S
C1038 C1039 1.502 . S
C1038 C1040 1.561 . S
C1038 C1041 1.526 . S
C1039 H1023 0.959 . S
C1039 H1024 0.959 . S
C1039 H1025 0.961 . S
C1039 C1038 1.502 . S
C1040 H1026 0.960 . S
C1040 H1027 0.961 . S
C1040 H1028 0.959 . S
C1040 C1038 1.561 . S
C1041 C1038 1.526 . S
C1041 C1042 1.396 . S
C1041 C1046 1.390 . S
C1042 C1036 1.465 . S
C1042 C1041 1.396 . S
C1042 C1043 1.399 . S
C1043 H1029 0.929 . S
C1043 C1042 1.399 . S
C1043 C1044 1.385 . S
C1044 H1030 0.931 . S
C1044 C1043 1.385 . S
C1044 C1045 1.389 . S
C1045 C1044 1.389 . S
C1045 C1046 1.387 . S
C1046 H1031 0.930 . S
C1046 C1041 1.390 . S
C1046 C1045 1.387 . S
H1047 C1059 0.930 . S
H1048 C1061 0.930 . S
H1049 C1062 0.930 . S
H1050 C1066 0.959 . S
H1051 C1066 0.959 . S
H1052 C1066 0.961 . S
H1053 C1067 0.960 . S
H1054 C1067 0.961 . S
H1055 C1067 0.959 . S
H1056 C1070 0.929 . S
H1057 C1071 0.931 . S
H1058 C1073 0.930 . S
C1059 H1047 0.930 . S
C1059 C1060 1.399 . S
C1059 C1064 1.399 . S
C1060 C1059 1.399 . S
C1060 C1061 1.376 . S
C1061 H1048 0.930 . S
C1061 C1060 1.376 . S
C1061 C1062 1.388 . S
C1062 H1049 0.930 . S
C1062 C1061 1.388 . S
C1062 C1063 1.390 . S
C1063 C1062 1.390 . S
C1063 C1064 1.394 . S
C1063 C1069 1.465 . S
C1064 C1059 1.399 . S
C1064 C1063 1.394 . S
C1064 C1065 1.516 . S
C1065 C1064 1.516 . S
C1065 C1066 1.502 . S
C1065 C1067 1.561 . S
C1065 C1068 1.526 . S
C1066 H1050 0.959 . S
C1066 H1051 0.959 . S
C1066 H1052 0.961 . S
C1066 C1065 1.502 . S
C1067 H1053 0.960 . S
C1067 H1054 0.961 . S
C1067 H1055 0.959 . S
C1067 C1065 1.561 . S
C1068 C1065 1.526 . S
C1068 C1069 1.396 . S
C1068 C1073 1.390 . S
C1069 C1063 1.465 . S
C1069 C1068 1.396 . S
C1069 C1070 1.399 . S
C1070 H1056 0.929 . S
C1070 C1069 1.399 . S
C1070 C1071 1.385 . S
C1071 H1057 0.931 . S
C1071 C1070 1.385 . S
C1071 C1072 1.389 . S
C1072 C1071 1.389 . S
C1072 C1073 1.387 . S
C1073 H1058 0.930 . S
C1073 C1068 1.390 . S
C1073 C1072 1.387 . S
C439 C39 1.676 . S
C451 C332 1.547 . S
C466 C91 1.628 . S
C478 C343 1.592 . S
C505 C362 1.424 . S
C493 C128 1.485 . S
C532 C379 1.390 . S
C520 C188 1.450 . S
C559 C406 1.464 . S
C547 C250 1.522 . S
C586 C415 1.590 . S
C574 C304 1.621 . S
C601 C75 1.559 . S
C613 C368 1.483 . S
C628 C144 1.658 . S
C640 C388 1.605 . S
C667 C397 1.573 . S
C655 C198 1.599 . S
C694 C424 1.458 . S
C682 C234 1.466 . S
C709 C294 1.427 . S
C721 C326 1.423 . S
C748 C352 1.410 . S
C736 C29 1.477 . S
C775 C380 1.571 . S
C763 C38 1.713 . S
C790 C92 1.676 . S
C802 C404 1.579 . S
C829 C416 1.498 . S
C817 C135 1.525 . S
C844 C181 1.482 . S
C856 C334 1.463 . S
C871 C251 1.559 . S
C883 C344 1.498 . S
C898 C303 1.673 . S
C910 C361 1.567 . S
C925 C82 1.609 . S
C937 C422 1.560 . S
C964 C325 1.638 . S
C952 C145 1.701 . S
C979 C197 1.650 . S
C991 C350 1.533 . S
C1006 C241 1.522 . S
C1018 C370 1.451 . S
C1033 C287 1.478 . S
C1045 C386 1.444 . S
C1060 C22 1.504 . S
C1072 C398 1.416 . S
