# Generated by pormake.
# Topology dag, (6,3)-cn, num edge types: 1
# Building blocks:
#     Node 0, Type 0, BuildingBlock: IZENUY_clean_sbu_0, # of connection points: 6
#     Node 1, Type 0, BuildingBlock: IZENUY_clean_sbu_0, # of connection points: 6
#     Node 2, Type 0, BuildingBlock: IZENUY_clean_sbu_0, # of connection points: 6
#     Node 3, Type 0, BuildingBlock: IZENUY_clean_sbu_0, # of connection points: 6
#     Node 4, Type 1, BuildingBlock: BELTOD_clean_linker_0, # of connection points: 3
#     Node 5, Type 1, BuildingBlock: BELTOD_clean_linker_0, # of connection points: 3
#     Node 6, Type 1, BuildingBlock: BELTOD_clean_linker_0, # of connection points: 3
#     Node 7, Type 1, BuildingBlock: BELTOD_clean_linker_0, # of connection points: 3
#     Node 8, Type 1, BuildingBlock: BELTOD_clean_linker_0, # of connection points: 3
#     Node 9, Type 1, BuildingBlock: BELTOD_clean_linker_0, # of connection points: 3
#     Node 10, Type 1, BuildingBlock: BELTOD_clean_linker_0, # of connection points: 3
#     Node 11, Type 1, BuildingBlock: BELTOD_clean_linker_0, # of connection points: 3
#     Edge 12, Type (0, 1), BuildingBlock: ZUJKAS_clean_linker_0, # of connection points: 2
#     Edge 13, Type (0, 1), BuildingBlock: ZUJKAS_clean_linker_0, # of connection points: 2
#     Edge 14, Type (0, 1), BuildingBlock: ZUJKAS_clean_linker_0, # of connection points: 2
#     Edge 15, Type (0, 1), BuildingBlock: ZUJKAS_clean_linker_0, # of connection points: 2
#     Edge 16, Type (0, 1), BuildingBlock: ZUJKAS_clean_linker_0, # of connection points: 2
#     Edge 17, Type (0, 1), BuildingBlock: ZUJKAS_clean_linker_0, # of connection points: 2
#     Edge 18, Type (0, 1), BuildingBlock: ZUJKAS_clean_linker_0, # of connection points: 2
#     Edge 19, Type (0, 1), BuildingBlock: ZUJKAS_clean_linker_0, # of connection points: 2
#     Edge 20, Type (0, 1), BuildingBlock: ZUJKAS_clean_linker_0, # of connection points: 2
#     Edge 21, Type (0, 1), BuildingBlock: ZUJKAS_clean_linker_0, # of connection points: 2
#     Edge 22, Type (0, 1), BuildingBlock: ZUJKAS_clean_linker_0, # of connection points: 2
#     Edge 23, Type (0, 1), BuildingBlock: ZUJKAS_clean_linker_0, # of connection points: 2
#     Edge 24, Type (0, 1), BuildingBlock: ZUJKAS_clean_linker_0, # of connection points: 2
#     Edge 25, Type (0, 1), BuildingBlock: ZUJKAS_clean_linker_0, # of connection points: 2
#     Edge 26, Type (0, 1), BuildingBlock: ZUJKAS_clean_linker_0, # of connection points: 2
#     Edge 27, Type (0, 1), BuildingBlock: ZUJKAS_clean_linker_0, # of connection points: 2
#     Edge 28, Type (0, 1), BuildingBlock: ZUJKAS_clean_linker_0, # of connection points: 2
#     Edge 29, Type (0, 1), BuildingBlock: ZUJKAS_clean_linker_0, # of connection points: 2
#     Edge 30, Type (0, 1), BuildingBlock: ZUJKAS_clean_linker_0, # of connection points: 2
#     Edge 31, Type (0, 1), BuildingBlock: ZUJKAS_clean_linker_0, # of connection points: 2
#     Edge 32, Type (0, 1), BuildingBlock: ZUJKAS_clean_linker_0, # of connection points: 2
#     Edge 33, Type (0, 1), BuildingBlock: ZUJKAS_clean_linker_0, # of connection points: 2
#     Edge 34, Type (0, 1), BuildingBlock: ZUJKAS_clean_linker_0, # of connection points: 2
#     Edge 35, Type (0, 1), BuildingBlock: ZUJKAS_clean_linker_0, # of connection points: 2
# Relax obj value: 0.240
# Max RMSD: 0.186
# Mean RMSD: 0.154
data_MOF--net-dag--node1-IZENUY_clean_sbu_0--node2-BELTOD_clean_linker_0--edge1-ZUJKAS_clean_linker_0
_symmetry_space_group_name_H-M    P1
_symmetry_Int_Tables_number       1
_symmetry_cell_setting            triclinic
loop_
_symmetry_equiv_pos_as_xyz
'x, y, z'
_cell_length_a     53.857323
_cell_length_b     57.22249
_cell_length_c     47.986003
_cell_angle_alpha  94.900234
_cell_angle_beta   90.367087
_cell_angle_gamma 90.191298
loop_
_atom_site_label
_atom_site_type_symbol
_atom_site_fract_x
_atom_site_fract_y
_atom_site_fract_z
_atom_type_partial_charge
Fe0 Fe 0.18371 0.85429 0.07386 0.0
Fe1 Fe 0.13665 0.86721 0.04239 0.0
O2 O 0.15646 0.84568 0.05469 0.0
Fe3 Fe 0.14882 0.81558 0.04793 0.0
O4 O 0.16216 0.80676 0.08072 0.0
O5 O 0.17328 0.83994 0.10387 0.0
O6 O 0.17023 0.88137 0.09079 0.0
C7 C 0.14776 0.88728 0.09472 0.0
C8 C 0.1989 0.81439 0.03894 0.0
O9 O 0.13103 0.87993 0.07763 0.0
C10 C 0.13636 0.83492 0.99721 0.0
O11 O 0.196 0.86948 0.04522 0.0
O12 O 0.16155 0.88824 0.03718 0.0
O13 O 0.17747 0.80978 0.02922 0.0
O14 O 0.20199 0.82868 0.06039 0.0
C15 C 0.10301 0.83371 0.06043 0.0
O16 O 0.14108 0.85577 0.00643 0.0
O17 O 0.13411 0.81897 0.01382 0.0
C18 C 0.18472 0.8856 0.03408 0.0
O19 O 0.10797 0.85021 0.04538 0.0
O20 O 0.1196 0.81941 0.06632 0.0
C21 C 0.16684 0.81874 0.10357 0.0
Fe22 Fe 0.66637 0.64486 0.46983 0.0
Fe23 Fe 0.62835 0.68033 0.4953 0.0
O24 O 0.63788 0.65098 0.48708 0.0
Fe25 Fe 0.61881 0.62765 0.49607 0.0
O26 O 0.64287 0.61705 0.51823 0.0
O27 O 0.67254 0.61791 0.4871 0.0
O28 O 0.68375 0.66061 0.49793 0.0
C29 C 0.68017 0.68178 0.50648 0.0
C30 C 0.6365 0.61159 0.44261 0.0
O31 O 0.66002 0.69192 0.50106 0.0
C32 C 0.5839 0.65692 0.47728 0.0
O33 O 0.66522 0.67061 0.44954 0.0
O34 O 0.62859 0.68614 0.45876 0.0
O35 O 0.62787 0.60738 0.46616 0.0
O36 O 0.65078 0.62882 0.44051 0.0
C37 C 0.61451 0.66099 0.54282 0.0
O38 O 0.59489 0.67396 0.49088 0.0
O39 O 0.59377 0.63694 0.47441 0.0
C40 C 0.64704 0.68302 0.44284 0.0
O41 O 0.62753 0.67638 0.53246 0.0
O42 O 0.60607 0.6436 0.52754 0.0
C43 C 0.66426 0.61119 0.50978 0.0
Fe44 Fe 0.8635 0.19756 0.01096 0.0
Fe45 Fe 0.87492 0.145 0.00911 0.0
O46 O 0.85528 0.16804 0.00062 0.0
Fe47 Fe 0.82743 0.16148 0.98173 0.0
O48 O 0.83758 0.17811 0.95357 0.0
O49 O 0.84944 0.20948 0.98002 0.0
O50 O 0.89236 0.19515 0.99158 0.0
C51 C 0.90888 0.1801 0.99519 0.0
C52 C 0.81365 0.19852 0.02147 0.0
O53 O 0.90379 0.16186 0.00725 0.0
C54 C 0.82676 0.12703 0.01752 0.0
O55 O 0.87904 0.19085 0.04369 0.0
O56 O 0.87175 0.15326 0.04612 0.0
O57 O 0.81008 0.18644 0.99841 0.0
O58 O 0.83531 0.20197 0.03111 0.0
C59 C 0.86183 0.1294 0.95576 0.0
O60 O 0.84965 0.12388 0.0127 0.0
O61 O 0.81555 0.1443 0.00878 0.0
C62 C 0.87732 0.17316 0.05782 0.0
O63 O 0.8793 0.13534 0.97253 0.0
O64 O 0.83968 0.13533 0.96152 0.0
C65 C 0.84388 0.19941 0.95621 0.0
Fe66 Fe 0.37356 0.36134 0.559 0.0
Fe67 Fe 0.32762 0.3445 0.58894 0.0
O68 O 0.35498 0.33816 0.56951 0.0
Fe69 Fe 0.36382 0.30869 0.56058 0.0
O70 O 0.39311 0.3129 0.57924 0.0
O71 O 0.40305 0.34548 0.56089 0.0
O72 O 0.37902 0.37262 0.5949 0.0
C73 C 0.36214 0.37841 0.61219 0.0
C74 C 0.37512 0.33141 0.51175 0.0
O75 O 0.33995 0.37152 0.60773 0.0
C76 C 0.31375 0.30558 0.55137 0.0
O77 O 0.34754 0.38149 0.55511 0.0
O78 O 0.3143 0.36033 0.56138 0.0
O79 O 0.37802 0.31453 0.52696 0.0
O80 O 0.36924 0.35149 0.52248 0.0
C81 C 0.34595 0.30812 0.61599 0.0
O82 O 0.31041 0.31855 0.57378 0.0
O83 O 0.3352 0.30258 0.54136 0.0
C84 C 0.32454 0.37758 0.55143 0.0
O85 O 0.33911 0.32921 0.61772 0.0
O86 O 0.35123 0.2975 0.59252 0.0
C87 C 0.40905 0.3281 0.57413 0.0
P88 P 0.053 0.11881 0.3805 0.0
H89 H 0.04814 0.06746 0.37666 0.0
H90 H 0.06261 0.03675 0.34199 0.0
H91 H 0.10043 0.08912 0.29801 0.0
H92 H 0.08569 0.11971 0.3326 0.0
H93 H 0.05226 0.16671 0.40708 0.0
H94 H 0.08464 0.19233 0.42899 0.0
H95 H 0.13837 0.13695 0.41295 0.0
H96 H 0.10609 0.1117 0.39072 0.0
H97 H 0.00171 0.11029 0.36325 0.0
H98 H 0.0596 0.15985 0.34849 0.0
O99 O 0.03692 0.10746 0.40574 0.0
H100 H 0.97593 0.12622 0.32751 0.0
H101 H 0.03356 0.17666 0.31361 0.0
C102 C 0.06601 0.09581 0.35725 0.0
C103 C 0.05983 0.07228 0.35978 0.0
C104 C 0.06816 0.05474 0.33998 0.0
C105 C 0.08259 0.06052 0.3172 0.0
C106 C 0.08909 0.08413 0.31511 0.0
C107 C 0.08084 0.1016 0.33495 0.0
C108 C 0.07692 0.1376 0.3965 0.0
C109 C 0.07108 0.16021 0.40807 0.0
C110 C 0.08956 0.17475 0.42079 0.0
C111 C 0.11417 0.16677 0.42246 0.0
C112 C 0.11975 0.14384 0.41143 0.0
C113 C 0.10126 0.12935 0.39873 0.0
C114 C 0.0323 0.13425 0.35902 0.0
C115 C 0.00851 0.12518 0.353 0.0
C116 C 0.99375 0.13438 0.33256 0.0
C117 C 0.00262 0.15278 0.31761 0.0
C118 C 0.02622 0.16235 0.32447 0.0
C119 C 0.04103 0.15296 0.34473 0.0
P120 P 0.45769 0.62488 0.87735 0.0
H121 H 0.50892 0.64295 0.87913 0.0
H122 H 0.53515 0.65865 0.84368 0.0
H123 H 0.47383 0.65157 0.7848 0.0
H124 H 0.44765 0.63732 0.82067 0.0
H125 H 0.41081 0.61685 0.90507 0.0
H126 H 0.3789 0.64328 0.92539 0.0
H127 H 0.42165 0.70282 0.90302 0.0
H128 H 0.45354 0.67627 0.88279 0.0
H129 H 0.47359 0.57596 0.86971 0.0
H130 H 0.4122 0.61743 0.84391 0.0
O131 O 0.47546 0.61698 0.90354 0.0
H132 H 0.45745 0.54189 0.84073 0.0
H133 H 0.39601 0.58351 0.81494 0.0
C134 C 0.4765 0.63848 0.85233 0.0
C135 C 0.50112 0.64506 0.85865 0.0
C136 C 0.51614 0.65392 0.83827 0.0
C137 C 0.50679 0.65622 0.81115 0.0
C138 C 0.48173 0.65041 0.80544 0.0
C139 C 0.46672 0.64188 0.8259 0.0
C140 C 0.4342 0.64457 0.89177 0.0
C141 C 0.41319 0.63558 0.90429 0.0
C142 C 0.39496 0.6507 0.91586 0.0
C143 C 0.39767 0.67512 0.91556 0.0
C144 C 0.41908 0.68409 0.9036 0.0
C145 C 0.43723 0.66892 0.89184 0.0
C146 C 0.44388 0.59909 0.85933 0.0
C147 C 0.45638 0.5776 0.85827 0.0
C148 C 0.44714 0.55815 0.84172 0.0
C149 C 0.42548 0.56006 0.82556 0.0
C150 C 0.41283 0.58157 0.82702 0.0
C151 C 0.42196 0.6009 0.84375 0.0
P152 P 0.78673 0.87895 0.21434 0.0
H153 H 0.76925 0.92711 0.22546 0.0
H154 H 0.7567 0.95666 0.19466 0.0
H155 H 0.76162 0.90523 0.12347 0.0
H156 H 0.77483 0.87577 0.15462 0.0
H157 H 0.79421 0.83622 0.24138 0.0
H158 H 0.7657 0.80677 0.25649 0.0
H159 H 0.70478 0.84067 0.21705 0.0
H160 H 0.73348 0.87047 0.20256 0.0
H161 H 0.8354 0.90036 0.21247 0.0
H162 H 0.8005 0.83556 0.18034 0.0
O163 O 0.79359 0.89294 0.2454 0.0
H164 H 0.8743 0.88783 0.19002 0.0
H165 H 0.83952 0.82282 0.15786 0.0
C166 C 0.77334 0.8994 0.19221 0.0
C167 C 0.76731 0.92208 0.20329 0.0
C168 C 0.75989 0.93894 0.18562 0.0
C169 C 0.75829 0.93337 0.15653 0.0
C170 C 0.76301 0.91017 0.14572 0.0
C171 C 0.77047 0.89331 0.16347 0.0
C172 C 0.76603 0.85533 0.22061 0.0
C173 C 0.7748 0.83701 0.23546 0.0
C174 C 0.75845 0.8201 0.24396 0.0
C175 C 0.73291 0.82129 0.2379 0.0
C176 C 0.7243 0.83934 0.22221 0.0
C177 C 0.74073 0.8563 0.21373 0.0
C178 C 0.81531 0.86866 0.19862 0.0
C179 C 0.83621 0.88332 0.20079 0.0
C180 C 0.85835 0.87622 0.18777 0.0
C181 C 0.85994 0.85432 0.17225 0.0
C182 C 0.83889 0.83965 0.17001 0.0
C183 C 0.81663 0.8469 0.18287 0.0
P184 P 0.75572 0.32256 0.61907 0.0
H185 H 0.79094 0.35407 0.59444 0.0
H186 H 0.79008 0.39628 0.58923 0.0
H187 H 0.72092 0.40162 0.63463 0.0
H188 H 0.72245 0.35985 0.64051 0.0
H189 H 0.77231 0.27779 0.63647 0.0
H190 H 0.78819 0.26563 0.68088 0.0
H191 H 0.78345 0.33721 0.71717 0.0
H192 H 0.76776 0.34925 0.67277 0.0
H193 H 0.72011 0.32455 0.57388 0.0
H194 H 0.72058 0.30184 0.65729 0.0
O195 O 0.77154 0.3096 0.59228 0.0
H196 H 0.6754 0.31813 0.57076 0.0
H197 H 0.67606 0.2943 0.65392 0.0
C198 C 0.75647 0.35382 0.61728 0.0
C199 C 0.77575 0.36444 0.60345 0.0
C200 C 0.77518 0.38854 0.60042 0.0
C201 C 0.75533 0.40236 0.61131 0.0
C202 C 0.73664 0.39166 0.62623 0.0
C203 C 0.73732 0.36767 0.62932 0.0
C204 C 0.76916 0.31442 0.65122 0.0
C205 C 0.77498 0.29088 0.65391 0.0
C206 C 0.78386 0.28395 0.67933 0.0
C207 C 0.78707 0.30049 0.70249 0.0
C208 C 0.78148 0.32414 0.69958 0.0
C209 C 0.77243 0.33102 0.67419 0.0
C210 C 0.72372 0.31352 0.61566 0.0
C211 C 0.71066 0.31755 0.59123 0.0
C212 C 0.68505 0.31376 0.58946 0.0
C213 C 0.67199 0.3057 0.61211 0.0
C214 C 0.6854 0.30085 0.63623 0.0
C215 C 0.711 0.30491 0.63807 0.0
P216 P 0.53822 0.3665 0.1784 0.0
H217 H 0.55083 0.41408 0.16446 0.0
H218 H 0.56539 0.4491 0.19298 0.0
H219 H 0.56774 0.40932 0.26556 0.0
H220 H 0.55286 0.3748 0.23726 0.0
H221 H 0.54414 0.33453 0.12823 0.0
H222 H 0.57861 0.30998 0.11039 0.0
H223 H 0.62146 0.33175 0.1846 0.0
H224 H 0.58686 0.35588 0.20245 0.0
H225 H 0.48561 0.37372 0.18883 0.0
H226 H 0.54366 0.32941 0.21676 0.0
O227 O 0.52304 0.37513 0.15066 0.0
H228 H 0.45812 0.36095 0.22481 0.0
H229 H 0.51668 0.31725 0.25359 0.0
C230 C 0.5502 0.39197 0.19884 0.0
C231 C 0.55444 0.41297 0.18653 0.0
C232 C 0.56292 0.43291 0.2028 0.0
C233 C 0.56739 0.43207 0.23162 0.0
C234 C 0.56389 0.41073 0.24358 0.0
C235 C 0.55541 0.39091 0.22735 0.0
C236 C 0.56312 0.3474 0.16637 0.0
C237 C 0.56094 0.33396 0.14067 0.0
C238 C 0.58069 0.32001 0.13045 0.0
C239 C 0.60288 0.31911 0.14595 0.0
C240 C 0.60459 0.33196 0.17221 0.0
C241 C 0.58486 0.34595 0.18235 0.0
C242 C 0.51657 0.35233 0.19993 0.0
C243 C 0.49224 0.36078 0.20228 0.0
C244 C 0.47663 0.35367 0.22312 0.0
C245 C 0.48527 0.33831 0.2424 0.0
C246 C 0.50928 0.32888 0.23897 0.0
C247 C 0.52479 0.33585 0.21789 0.0
P248 P 0.25493 0.1857 0.95103 0.0
H249 H 0.27435 0.1573 0.99432 0.0
H250 H 0.27527 0.11499 0.99814 0.0
H251 H 0.24224 0.10337 0.91576 0.0
H252 H 0.24098 0.14572 0.91237 0.0
H253 H 0.24823 0.22748 0.92122 0.0
H254 H 0.26513 0.23963 0.87759 0.0
H255 H 0.30815 0.17584 0.86768 0.0
H256 H 0.29178 0.16421 0.91177 0.0
H257 H 0.22184 0.20115 0.99701 0.0
H258 H 0.21605 0.18342 0.90806 0.0
O259 O 0.2695 0.20016 0.97809 0.0
H260 H 0.17691 0.20703 0.99939 0.0
H261 H 0.17123 0.18967 0.91012 0.0
C262 C 0.25772 0.15459 0.95299 0.0
C263 C 0.26756 0.14564 0.97698 0.0
C264 C 0.26819 0.12142 0.97907 0.0
C265 C 0.25884 0.1058 0.95724 0.0
C266 C 0.24934 0.11493 0.93306 0.0
C267 C 0.24871 0.13911 0.93103 0.0
C268 C 0.26816 0.19464 0.91927 0.0
C269 C 0.26127 0.21611 0.9096 0.0
C270 C 0.27086 0.22297 0.88459 0.0
C271 C 0.28771 0.20853 0.8689 0.0
C272 C 0.29525 0.18739 0.87925 0.0
C273 C 0.28568 0.18059 0.90434 0.0
C274 C 0.2223 0.19229 0.9523 0.0
C275 C 0.21095 0.19895 0.97792 0.0
C276 C 0.18527 0.20237 0.97922 0.0
C277 C 0.17048 0.19892 0.95492 0.0
C278 C 0.18204 0.19231 0.92925 0.0
C279 C 0.20769 0.18892 0.928 0.0
P280 P 0.25766 0.61361 0.34436 0.0
H281 H 0.24551 0.56385 0.33444 0.0
H282 H 0.235 0.53448 0.36617 0.0
H283 H 0.2288 0.58884 0.43405 0.0
H284 H 0.23962 0.61831 0.40191 0.0
H285 H 0.27022 0.662 0.33553 0.0
H286 H 0.24568 0.69432 0.32076 0.0
H287 H 0.1791 0.65242 0.32413 0.0
H288 H 0.20391 0.62 0.33977 0.0
H289 H 0.30743 0.59459 0.33601 0.0
H290 H 0.2724 0.64946 0.38891 0.0
O291 O 0.26273 0.60035 0.31257 0.0
H292 H 0.34761 0.60502 0.35768 0.0
H293 H 0.31269 0.66017 0.41051 0.0
C294 C 0.24343 0.59323 0.36588 0.0
C295 C 0.2412 0.56959 0.35594 0.0
C296 C 0.23503 0.55277 0.37414 0.0
C297 C 0.23119 0.55929 0.40271 0.0
C298 C 0.23188 0.58325 0.41221 0.0
C299 C 0.23795 0.6001 0.39388 0.0
C300 C 0.23881 0.63882 0.33964 0.0
C301 C 0.25024 0.66001 0.33436 0.0
C302 C 0.23616 0.67853 0.32583 0.0
C303 C 0.21044 0.67596 0.32157 0.0
C304 C 0.19888 0.6549 0.32747 0.0
C305 C 0.213 0.63644 0.33649 0.0
C306 C 0.28712 0.62172 0.36027 0.0
C307 C 0.30842 0.60901 0.35213 0.0
C308 C 0.33132 0.61486 0.36467 0.0
C309 C 0.33325 0.63352 0.38561 0.0
C310 C 0.31176 0.64595 0.39412 0.0
C311 C 0.28879 0.63986 0.38179 0.0
P312 P 0.89912 0.85037 0.7491 0.0
H313 H 0.85905 0.87862 0.775 0.0
H314 H 0.85459 0.92075 0.7858 0.0
H315 H 0.92067 0.93261 0.73822 0.0
H316 H 0.92523 0.89017 0.72793 0.0
H317 H 0.88858 0.80141 0.73319 0.0
H318 H 0.86815 0.78122 0.69251 0.0
H319 H 0.86546 0.84631 0.65301 0.0
H320 H 0.88563 0.8665 0.69416 0.0
H321 H 0.93247 0.87372 0.78978 0.0
H322 H 0.93693 0.81734 0.72434 0.0
O323 O 0.88391 0.83893 0.77494 0.0
H324 H 0.97496 0.86639 0.80365 0.0
H325 H 0.97989 0.80984 0.73821 0.0
C326 C 0.89278 0.88132 0.75125 0.0
C327 C 0.87233 0.89028 0.76647 0.0
C328 C 0.8697 0.91444 0.77245 0.0
C329 C 0.88747 0.93006 0.76316 0.0
C330 C 0.90693 0.92102 0.74609 0.0
C331 C 0.9095 0.89681 0.74009 0.0
C332 C 0.88825 0.83546 0.71684 0.0
C333 C 0.88394 0.81126 0.71558 0.0
C334 C 0.87242 0.7997 0.69218 0.0
C335 C 0.865 0.81219 0.66956 0.0
C336 C 0.87062 0.83628 0.67027 0.0
C337 C 0.88223 0.84783 0.69375 0.0
C338 C 0.93164 0.84635 0.75578 0.0
C339 C 0.94284 0.86011 0.77792 0.0
C340 C 0.96724 0.85595 0.78575 0.0
C341 C 0.98094 0.83768 0.77183 0.0
C342 C 0.96981 0.82406 0.7493 0.0
C343 C 0.94528 0.82837 0.74132 0.0
H344 H 0.10255 0.90737 0.10675 0.0
H345 H 0.0924 0.93636 0.14534 0.0
H346 H 0.16794 0.93464 0.1754 0.0
H347 H 0.17844 0.90596 0.13662 0.0
H348 H 0.09551 0.93359 0.20241 0.0
H349 H 0.15654 0.00444 0.16947 0.0
H350 H 0.14905 0.97857 0.14676 0.0
H351 H 0.17234 0.97737 0.1736 0.0
C352 C 0.11706 0.9132 0.12149 0.0
C353 C 0.14139 0.90451 0.11839 0.0
C354 C 0.1112 0.92973 0.14357 0.0
C355 C 0.12951 0.93793 0.16295 0.0
C356 C 0.15366 0.92894 0.16031 0.0
H357 H 0.10068 0.01658 0.32369 0.0
H358 H 0.11228 0.98634 0.28688 0.0
C359 C 0.15959 0.91247 0.13818 0.0
C360 C 0.12323 0.95579 0.18602 0.0
H361 H 0.13739 0.0112 0.21375 0.0
C362 C 0.10464 0.95057 0.20492 0.0
C363 C 0.13498 0.97802 0.189 0.0
C364 C 0.15418 0.98509 0.1685 0.0
C365 C 0.09756 0.96695 0.22686 0.0
C366 C 0.10975 0.98897 0.23025 0.0
C367 C 0.12825 0.99422 0.21126 0.0
C368 C 0.10297 0.00718 0.25273 0.0
C369 C 0.07667 0.96076 0.24575 0.0
C370 C 0.09452 0.02911 0.24577 0.0
C371 C 0.08806 0.04643 0.26671 0.0
C372 C 0.08999 0.04218 0.29508 0.0
C373 C 0.09868 0.02025 0.30203 0.0
C374 C 0.10525 0.00295 0.28103 0.0
H375 H 0.06524 0.94597 0.23614 0.0
H376 H 0.08458 0.95539 0.26562 0.0
H377 H 0.06439 0.97606 0.25079 0.0
H378 H 0.09264 0.03275 0.22406 0.0
H379 H 0.08113 0.06302 0.26066 0.0
H380 H 0.57545 0.64036 0.56672 0.0
H381 H 0.56293 0.64448 0.6155 0.0
H382 H 0.6241 0.69203 0.6353 0.0
H383 H 0.63631 0.68861 0.58591 0.0
H384 H 0.58795 0.6325 0.65974 0.0
H385 H 0.56749 0.72792 0.67308 0.0
H386 H 0.57235 0.71247 0.6392 0.0
H387 H 0.59839 0.72064 0.66159 0.0
C388 C 0.5862 0.65183 0.58136 0.0
C389 C 0.60686 0.66419 0.57244 0.0
C390 C 0.57901 0.65417 0.60928 0.0
C391 C 0.59242 0.66872 0.62908 0.0
C392 C 0.61314 0.6811 0.62033 0.0
H393 H 0.55602 0.64529 0.80263 0.0
H394 H 0.58104 0.65172 0.7618 0.0
C395 C 0.62017 0.67903 0.59215 0.0
C396 C 0.58486 0.66992 0.65886 0.0
H397 H 0.56256 0.70668 0.7127 0.0
C398 C 0.58255 0.64875 0.67141 0.0
C399 C 0.57775 0.69113 0.67399 0.0
C400 C 0.57889 0.71433 0.66128 0.0
C401 C 0.57232 0.64798 0.6981 0.0
C402 C 0.56511 0.66918 0.71326 0.0
C403 C 0.56828 0.69049 0.70116 0.0
C404 C 0.55193 0.66921 0.74036 0.0
C405 C 0.56805 0.6243 0.70897 0.0
C406 C 0.52792 0.67854 0.74289 0.0
C407 C 0.5138 0.6756 0.76666 0.0
C408 C 0.52326 0.66297 0.78828 0.0
C409 C 0.548 0.65509 0.7865 0.0
C410 C 0.56228 0.65844 0.76292 0.0
H411 H 0.56888 0.60984 0.692 0.0
H412 H 0.58268 0.62108 0.72454 0.0
H413 H 0.5497 0.62353 0.71928 0.0
H414 H 0.51963 0.68721 0.72593 0.0
H415 H 0.49514 0.6826 0.76762 0.0
H416 H 0.77617 0.12104 0.02016 0.0
H417 H 0.75375 0.09025 0.04255 0.0
H418 H 0.82338 0.06193 0.06862 0.0
H419 H 0.84588 0.09229 0.04635 0.0
H420 H 0.76282 0.03757 0.031 0.0
H421 H 0.77824 0.07328 0.14097 0.0
H422 H 0.7793 0.09134 0.11186 0.0
H423 H 0.80532 0.07324 0.11923 0.0
C424 C 0.78668 0.10829 0.03077 0.0
C425 C 0.81281 0.10906 0.03144 0.0
C426 C 0.77385 0.09074 0.04345 0.0
C427 C 0.78697 0.07402 0.05733 0.0
C428 C 0.81297 0.07485 0.05817 0.0
H429 H 0.78223 0.93927 0.10766 0.0
H430 H 0.78168 0.97369 0.08119 0.0
C431 C 0.82578 0.09216 0.04534 0.0
C432 C 0.77394 0.05518 0.07059 0.0
H433 H 0.76791 0.03253 0.13359 0.0
C434 C 0.76338 0.03662 0.05348 0.0
C435 C 0.77446 0.0542 0.09988 0.0
C436 C 0.78474 0.07416 0.11915 0.0
C437 C 0.75489 0.01627 0.06487 0.0
C438 C 0.7573 0.01451 0.09399 0.0
C439 C 0.76618 0.03383 0.11123 0.0
C440 C 0.75373 0.99206 0.10671 0.0
C441 C 0.74412 0.99658 0.04557 0.0
C442 C 0.73797 0.99079 0.1297 0.0
C443 C 0.73821 0.97103 0.14494 0.0
C444 C 0.75443 0.9523 0.13761 0.0
C445 C 0.7692 0.95315 0.11365 0.0
C446 C 0.7689 0.97286 0.09842 0.0
H447 H 0.73573 0.00333 0.02663 0.0
H448 H 0.75919 0.9843 0.03859 0.0
H449 H 0.72979 0.98666 0.05625 0.0
H450 H 0.72621 0.00549 0.13652 0.0
H451 H 0.72638 0.97079 0.16308 0.0
H452 H 0.4492 0.35105 0.55517 0.0
H453 H 0.49294 0.34418 0.56467 0.0
H454 H 0.47291 0.29035 0.61819 0.0
H455 H 0.42891 0.29664 0.60808 0.0
H456 H 0.51849 0.34884 0.61259 0.0
H457 H 0.52304 0.25631 0.56759 0.0
H458 H 0.49668 0.27483 0.56231 0.0
H459 H 0.50039 0.26147 0.59467 0.0
C460 C 0.45403 0.3377 0.56893 0.0
C461 C 0.43554 0.32428 0.58072 0.0
C462 C 0.47908 0.33379 0.57435 0.0
C463 C 0.48625 0.31649 0.59178 0.0
C464 C 0.46786 0.30338 0.6041 0.0
H465 H 0.6391 0.31637 0.65476 0.0
H466 H 0.59388 0.31664 0.65212 0.0
C467 C 0.44271 0.3071 0.59845 0.0
C468 C 0.51302 0.31271 0.59727 0.0
H469 H 0.55933 0.27202 0.59023 0.0
C470 C 0.52742 0.33203 0.60778 0.0
C471 C 0.52467 0.29081 0.59068 0.0
C472 C 0.51048 0.26971 0.57794 0.0
C473 C 0.55316 0.33018 0.6115 0.0
C474 C 0.56477 0.30819 0.6054 0.0
C475 C 0.55035 0.28879 0.59518 0.0
C476 C 0.59204 0.30536 0.60795 0.0
C477 C 0.56775 0.35207 0.62088 0.0
C478 C 0.606 0.29761 0.58437 0.0
C479 C 0.6319 0.29683 0.58596 0.0
C480 C 0.64439 0.30391 0.61115 0.0
C481 C 0.63022 0.31065 0.63504 0.0
C482 C 0.60431 0.31116 0.63349 0.0
H483 H 0.55722 0.36824 0.61741 0.0
H484 H 0.57179 0.35227 0.6436 0.0
H485 H 0.58567 0.35258 0.60962 0.0
H486 H 0.5969 0.29281 0.5645 0.0
H487 H 0.64214 0.29103 0.5673 0.0
H488 H 0.65605 0.61132 0.38984 0.0
H489 H 0.64551 0.58451 0.34879 0.0
H490 H 0.59336 0.54856 0.39805 0.0
H491 H 0.60364 0.57509 0.43901 0.0
H492 H 0.64855 0.5334 0.3441 0.0
H493 H 0.55293 0.56571 0.32848 0.0
H494 H 0.57616 0.5827 0.3487 0.0
H495 H 0.55974 0.55951 0.3638 0.0
C496 C 0.64233 0.59771 0.39192 0.0
C497 C 0.6307 0.59534 0.41773 0.0
C498 C 0.63635 0.58245 0.36846 0.0
C499 C 0.61843 0.56483 0.37037 0.0
C500 C 0.60695 0.56232 0.39608 0.0
H501 H 0.55073 0.44665 0.28373 0.0
H502 H 0.56459 0.4805 0.31427 0.0
C503 C 0.61299 0.57742 0.41952 0.0
C504 C 0.612 0.54847 0.34584 0.0
H505 H 0.56283 0.52819 0.30551 0.0
C506 C 0.62996 0.53244 0.33525 0.0
C507 C 0.58773 0.54742 0.33441 0.0
C508 C 0.56806 0.56488 0.34422 0.0
C509 C 0.62385 0.51442 0.31459 0.0
C510 C 0.59926 0.51276 0.304 0.0
C511 C 0.58164 0.52947 0.31374 0.0
C512 C 0.59084 0.49267 0.28473 0.0
C513 C 0.64336 0.49658 0.30538 0.0
C514 C 0.60078 0.48846 0.2578 0.0
C515 C 0.59303 0.46893 0.24031 0.0
C516 C 0.57517 0.45335 0.24949 0.0
C517 C 0.56487 0.45802 0.27623 0.0
C518 C 0.57262 0.47747 0.29364 0.0
H519 H 0.65994 0.49785 0.31932 0.0
H520 H 0.63568 0.47852 0.3049 0.0
H521 H 0.64945 0.49955 0.28391 0.0
H522 H 0.61458 0.50022 0.25037 0.0
H523 H 0.60135 0.46578 0.21986 0.0
H524 H 0.94868 0.15147 0.0005 0.0
H525 H 0.99224 0.15986 0.99213 0.0
H526 H 0.9726 0.22778 0.96633 0.0
H527 H 0.92862 0.21949 0.97449 0.0
H528 H 0.00794 0.20262 0.9312 0.0
H529 H 0.03481 0.20601 0.04315 0.0
H530 H 0.01812 0.1798 0.03122 0.0
H531 H 0.00291 0.20777 0.03168 0.0
C532 C 0.9535 0.16822 0.99302 0.0
C533 C 0.93512 0.18492 0.98846 0.0
C534 C 0.97847 0.17301 0.98837 0.0
C535 C 0.98566 0.19461 0.97918 0.0
C536 C 0.96739 0.21107 0.97369 0.0
H537 H 0.14345 0.23251 0.98543 0.0
H538 H 0.09822 0.23479 0.98991 0.0
C539 C 0.9423 0.2063 0.97836 0.0
C540 C 0.01233 0.19974 0.97541 0.0
H541 H 0.06789 0.20206 0.0101 0.0
C542 C 0.02106 0.2028 0.94847 0.0
C543 C 0.02932 0.20038 0.99806 0.0
C544 C 0.02083 0.19855 0.02771 0.0
C545 C 0.04655 0.20533 0.94338 0.0
C546 C 0.06367 0.20441 0.96576 0.0
C547 C 0.05478 0.20252 0.9929 0.0
C548 C 0.0909 0.20414 0.96139 0.0
C549 C 0.0549 0.2088 0.91407 0.0
C550 C 0.10178 0.1861 0.944 0.0
C551 C 0.12756 0.1847 0.9415 0.0
C552 C 0.14303 0.20122 0.95653 0.0
C553 C 0.13207 0.2194 0.97378 0.0
C554 C 0.10624 0.2208 0.97623 0.0
H555 H 0.03988 0.21641 0.90173 0.0
H556 H 0.07143 0.22047 0.91425 0.0
H557 H 0.05992 0.19155 0.90328 0.0
H558 H 0.09035 0.17266 0.93297 0.0
H559 H 0.1354 0.17021 0.92847 0.0
H560 H 0.34092 0.41517 0.52539 0.0
H561 H 0.31618 0.4436 0.50237 0.0
H562 H 0.24911 0.40728 0.52202 0.0
H563 H 0.27377 0.37858 0.54534 0.0
H564 H 0.28131 0.43251 0.45631 0.0
H565 H 0.23831 0.47829 0.55112 0.0
H566 H 0.26618 0.461 0.55304 0.0
H567 H 0.23675 0.44673 0.54674 0.0
C568 C 0.32091 0.41319 0.52496 0.0
C569 C 0.30933 0.39463 0.53733 0.0
C570 C 0.30682 0.42946 0.51175 0.0
C571 C 0.28087 0.42761 0.51076 0.0
C572 C 0.26913 0.40911 0.52291 0.0
H573 H 0.20547 0.51759 0.39747 0.0
H574 H 0.2116 0.48411 0.42539 0.0
C575 C 0.28326 0.3927 0.53609 0.0
C576 C 0.26647 0.44497 0.49631 0.0
H577 H 0.23043 0.49376 0.50805 0.0
C578 C 0.26982 0.44569 0.46747 0.0
C579 C 0.25168 0.46214 0.51111 0.0
C580 C 0.24799 0.46225 0.54225 0.0
C581 C 0.25956 0.46371 0.4531 0.0
C582 C 0.24526 0.48128 0.46799 0.0
C583 C 0.24118 0.48011 0.49671 0.0
C584 C 0.23718 0.50238 0.45466 0.0
C585 C 0.26531 0.46453 0.42244 0.0
C586 C 0.2484 0.52404 0.46289 0.0
C587 C 0.24492 0.54315 0.44708 0.0
C588 C 0.23013 0.54091 0.42273 0.0
C589 C 0.21729 0.51972 0.41586 0.0
C590 C 0.22075 0.50061 0.43177 0.0
H591 H 0.28001 0.45186 0.4153 0.0
H592 H 0.2483 0.46016 0.40988 0.0
H593 H 0.27143 0.4824 0.41807 0.0
H594 H 0.26116 0.52575 0.48051 0.0
H595 H 0.25527 0.55911 0.45283 0.0
H596 H 0.12396 0.79246 0.97 0.0
H597 H 0.1074 0.78504 0.92253 0.0
H598 H 0.11615 0.8583 0.90969 0.0
H599 H 0.13311 0.86582 0.95683 0.0
H600 H 0.0647 0.80492 0.9076 0.0
H601 H 0.13824 0.82766 0.83479 0.0
H602 H 0.14472 0.82206 0.87061 0.0
H603 H 0.1339 0.85043 0.86238 0.0
C604 C 0.12286 0.80692 0.95688 0.0
C605 C 0.12957 0.8298 0.96736 0.0
C606 C 0.11348 0.80261 0.92971 0.0
C607 C 0.11079 0.82105 0.91244 0.0
C608 C 0.11861 0.84368 0.92236 0.0
H609 H 0.01828 0.86784 0.78993 0.0
H610 H 0.05361 0.85901 0.81932 0.0
C611 C 0.12805 0.84801 0.94949 0.0
C612 C 0.09632 0.81752 0.88605 0.0
H613 H 0.09584 0.82991 0.81769 0.0
C614 C 0.07168 0.80979 0.88774 0.0
C615 C 0.10546 0.82399 0.86022 0.0
C616 C 0.13213 0.83128 0.85681 0.0
C617 C 0.05539 0.80991 0.86489 0.0
C618 C 0.06418 0.81747 0.83938 0.0
C619 C 0.08919 0.82405 0.83722 0.0
C620 C 0.04677 0.8216 0.81633 0.0
C621 C 0.02848 0.80353 0.86892 0.0
C622 C 0.03211 0.80332 0.80359 0.0
C623 C 0.01161 0.80836 0.78712 0.0
C624 C 0.00569 0.83175 0.78298 0.0
C625 C 0.02204 0.84971 0.7933 0.0
C626 C 0.04237 0.84467 0.8099 0.0
H627 H 0.02393 0.80221 0.89128 0.0
H628 H 0.01603 0.81674 0.86059 0.0
H629 H 0.02447 0.78628 0.8574 0.0
H630 H 0.03552 0.78533 0.80789 0.0
H631 H 0.99942 0.79412 0.77943 0.0
H632 H 0.82798 0.10788 0.91928 0.0
H633 H 0.8359 0.07809 0.88086 0.0
H634 H 0.91462 0.08411 0.89702 0.0
H635 H 0.9069 0.11363 0.9359 0.0
H636 H 0.86449 0.07759 0.83192 0.0
H637 H 0.90007 0.01477 0.9048 0.0
H638 H 0.88395 0.04127 0.91684 0.0
H639 H 0.91596 0.0425 0.9067 0.0
C640 C 0.84701 0.10299 0.91462 0.0
C641 C 0.86679 0.11287 0.93099 0.0
C642 C 0.85149 0.08602 0.89257 0.0
C643 C 0.8758 0.07863 0.88643 0.0
C644 C 0.89568 0.08925 0.90181 0.0
H645 H 0.92695 0.95727 0.78169 0.0
H646 H 0.92584 0.99601 0.8072 0.0
C647 C 0.89122 0.10614 0.92398 0.0
C648 C 0.88009 0.05892 0.86496 0.0
H649 H 0.90049 0.0024 0.85683 0.0
C650 C 0.87248 0.06117 0.83727 0.0
C651 C 0.89044 0.03752 0.87209 0.0
C652 C 0.8979 0.03368 0.90174 0.0
C653 C 0.87494 0.0425 0.81648 0.0
C654 C 0.88495 0.02102 0.82374 0.0
C655 C 0.89297 0.01896 0.8513 0.0
C656 C 0.88603 -0.00015 0.80375 0.0
C657 C 0.86685 0.04592 0.78696 0.0
C658 C 0.86406 0.98943 0.79271 0.0
C659 C 0.86463 0.96731 0.77791 0.0
C660 C 0.88718 0.95516 0.77408 0.0
C661 C 0.9093 0.96624 0.78389 0.0
C662 C 0.9087 0.98833 0.79866 0.0
H663 H 0.86654 0.06479 0.7831 0.0
H664 H 0.8793 0.03648 0.77149 0.0
H665 H 0.84777 0.03883 0.78349 0.0
H666 H 0.8463 0.99781 0.7968 0.0
H667 H 0.84731 0.95934 0.77041 0.0
H668 H 0.37314 0.3644 0.47384 0.0
H669 H 0.3891 0.36127 0.42621 0.0
H670 H 0.40979 0.28943 0.43421 0.0
H671 H 0.39376 0.29229 0.48204 0.0
H672 H 0.4402 0.34967 0.41455 0.0
H673 H 0.37418 0.28799 0.35637 0.0
H674 H 0.36621 0.30416 0.38907 0.0
H675 H 0.38644 0.27932 0.3889 0.0
C676 C 0.38076 0.3478 0.46543 0.0
C677 C 0.38233 0.32864 0.48189 0.0
C678 C 0.38985 0.34605 0.43817 0.0
C679 C 0.40048 0.3251 0.42668 0.0
C680 C 0.40133 0.30566 0.44259 0.0
H681 H 0.47994 0.29746 0.26838 0.0
H682 H 0.45925 0.29262 0.31296 0.0
C683 C 0.39227 0.30738 0.46997 0.0
C684 C 0.41261 0.32445 0.39904 0.0
H685 H 0.40858 0.30089 0.33129 0.0
C686 C 0.43331 0.33899 0.39635 0.0
C687 C 0.40372 0.31027 0.37549 0.0
C688 C 0.38132 0.29462 0.37735 0.0
C689 C 0.44525 0.33996 0.37062 0.0
C690 C 0.4359 0.3264 0.34681 0.0
C691 C 0.41558 0.31135 0.34959 0.0
C692 C 0.44651 0.3285 0.31874 0.0
C693 C 0.46787 0.35546 0.36919 0.0
C694 C 0.44557 0.35007 0.30696 0.0
C695 C 0.4575 0.35295 0.28177 0.0
C696 C 0.47043 0.33423 0.26761 0.0
C697 C 0.47043 0.31231 0.2789 0.0
C698 C 0.45849 0.30946 0.30425 0.0
H699 H 0.47658 0.35943 0.39012 0.0
H700 H 0.48195 0.34712 0.35479 0.0
H701 H 0.46229 0.37232 0.36123 0.0
H702 H 0.43614 0.36489 0.31766 0.0
H703 H 0.45736 0.37017 0.274 0.0
H704 H 0.23511 0.89373 0.03554 0.0
H705 H 0.25714 0.92688 0.01756 0.0
H706 H 0.18826 0.95154 0.98463 0.0
H707 H 0.16622 0.91862 0.0022 0.0
H708 H 0.23107 0.95374 0.94813 0.0
H709 H 0.24733 0.9943 0.05661 0.0
H710 H 0.25764 0.96466 0.0483 0.0
H711 H 0.22504 0.97097 0.04905 0.0
C712 C 0.22474 0.90604 0.02413 0.0
C713 C 0.19885 0.90373 0.02063 0.0
C714 C 0.23734 0.92499 0.01398 0.0
C715 C 0.22423 0.94176 0.00012 0.0
C716 C 0.19868 0.93879 0.99535 0.0
H717 H 0.22065 0.07568 0.94271 0.0
H718 H 0.21743 0.03425 0.95042 0.0
C719 C 0.1861 0.92002 0.00554 0.0
C720 C 0.23637 0.96339 0.99212 0.0
H721 H 0.25649 0.01709 0.01977 0.0
C722 C 0.23708 0.96747 0.96372 0.0
C723 C 0.24427 0.98119 0.01255 0.0
C724 C 0.2435 0.97778 0.04338 0.0
C725 C 0.24449 0.98929 0.95526 0.0
C726 C 0.25082 0.00759 0.9758 0.0
C727 C 0.25155 0.00305 0.00408 0.0
C728 C 0.25408 0.03214 0.96882 0.0
C729 C 0.24496 0.99267 0.92443 0.0
C730 C 0.27559 0.04488 0.97705 0.0
C731 C 0.27745 0.0687 0.97276 0.0
C732 C 0.25775 0.0802 0.9603 0.0
C733 C 0.23637 0.06727 0.95181 0.0
C734 C 0.23452 0.04353 0.95614 0.0
H735 H 0.24831 0.97581 0.91178 0.0
H736 H 0.22667 0.99939 0.91802 0.0
H737 H 0.25952 0.00545 0.91954 0.0
H738 H 0.2908 0.03646 0.98711 0.0
H739 H 0.29424 0.07815 0.97934 0.0
H740 H 0.55841 0.62767 0.43945 0.0
H741 H 0.51497 0.63045 0.42521 0.0
H742 H 0.50725 0.69441 0.47876 0.0
H743 H 0.55093 0.69192 0.49306 0.0
H744 H 0.47033 0.65554 0.48471 0.0
H745 H 0.48178 0.68022 0.376 0.0
H746 H 0.50147 0.65689 0.3858 0.0
H747 H 0.50536 0.68589 0.40275 0.0
C748 C 0.54757 0.64245 0.44806 0.0
C749 C 0.55808 0.65954 0.46745 0.0
C750 C 0.5228 0.64406 0.43979 0.0
C751 C 0.50807 0.66271 0.45081 0.0
C752 C 0.51847 0.67997 0.46994 0.0
H753 H 0.35386 0.67725 0.39412 0.0
H754 H 0.39551 0.68752 0.41256 0.0
C755 C 0.54338 0.67853 0.47802 0.0
C756 C 0.48144 0.6632 0.44343 0.0
H757 H 0.44196 0.66575 0.3879 0.0
C758 C 0.46402 0.65814 0.46369 0.0
C759 C 0.47339 0.66674 0.41604 0.0
C760 C 0.49141 0.67293 0.39387 0.0
C761 C 0.43876 0.65534 0.45681 0.0
C762 C 0.43092 0.65764 0.42904 0.0
C763 C 0.44814 0.6639 0.40915 0.0
C764 C 0.40529 0.65188 0.41969 0.0
C765 C 0.4207 0.64938 0.47905 0.0
C766 C 0.39719 0.62848 0.41764 0.0
C767 C 0.37361 0.62257 0.40697 0.0
C768 C 0.35771 0.64001 0.3983 0.0
C769 C 0.36569 0.66352 0.40089 0.0
C770 C 0.38943 0.66939 0.41129 0.0
H771 H 0.42851 0.65334 0.50043 0.0
H772 H 0.4031 0.65922 0.47726 0.0
H773 H 0.41626 0.63037 0.4762 0.0
H774 H 0.40932 0.61472 0.42377 0.0
H775 H 0.36785 0.60435 0.40537 0.0
H776 H 0.40418 0.4049 0.62183 0.0
H777 H 0.41309 0.43338 0.66142 0.0
H778 H 0.34255 0.41799 0.69795 0.0
H779 H 0.33312 0.38991 0.65789 0.0
H780 H 0.34998 0.46388 0.69979 0.0
H781 H 0.43446 0.42295 0.73953 0.0
H782 H 0.43743 0.42809 0.70337 0.0
H783 H 0.41427 0.40782 0.71375 0.0
C784 C 0.39061 0.40743 0.63836 0.0
C785 C 0.36793 0.39512 0.63669 0.0
C786 C 0.39583 0.42361 0.66113 0.0
C787 C 0.37872 0.4275 0.68297 0.0
C788 C 0.3561 0.41518 0.68142 0.0
H789 H 0.42093 0.51388 0.83589 0.0
H790 H 0.40751 0.48095 0.8031 0.0
C791 C 0.35073 0.39916 0.65849 0.0
C792 C 0.38393 0.44533 0.70664 0.0
H793 H 0.42788 0.46342 0.75544 0.0
C794 C 0.36688 0.46362 0.71218 0.0
C795 C 0.40573 0.44478 0.72321 0.0
C796 C 0.42387 0.4247 0.71987 0.0
C797 C 0.3715 0.48186 0.73304 0.0
C798 C 0.39413 0.48217 0.74825 0.0
C799 C 0.4107 0.46338 0.74351 0.0
C800 C 0.40136 0.50217 0.76846 0.0
C801 C 0.35199 0.50052 0.73862 0.0
C802 C 0.40261 0.52497 0.75982 0.0
C803 C 0.41005 0.54376 0.77852 0.0
C804 C 0.41681 0.54008 0.80614 0.0
C805 C 0.41587 0.51721 0.81471 0.0
C806 C 0.40817 0.49842 0.79603 0.0
H807 H 0.33319 0.49375 0.73251 0.0
H808 H 0.35171 0.50717 0.76104 0.0
H809 H 0.35607 0.51541 0.72599 0.0
H810 H 0.39824 0.52821 0.73844 0.0
H811 H 0.4111 0.56111 0.77116 0.0
H812 H 0.08424 0.79914 0.09082 0.0
H813 H 0.04151 0.79517 0.10716 0.0
H814 H 0.02099 0.85767 0.06844 0.0
H815 H 0.06323 0.86157 0.05169 0.0
H816 H 0.01553 0.82607 0.14227 0.0
H817 H 0.96626 0.81283 0.04075 0.0
H818 H 0.99952 0.80985 0.04385 0.0
H819 H 0.98575 0.83839 0.04246 0.0
C820 C 0.07055 0.81188 0.08551 0.0
C821 C 0.07714 0.83058 0.06976 0.0
C822 C 0.04616 0.80958 0.09486 0.0
C823 C 0.02795 0.82584 0.0885 0.0
C824 C 0.03453 0.84452 0.0729 0.0
H825 H 0.88965 0.88046 0.14116 0.0
H826 H 0.92982 0.86957 0.12046 0.0
C827 C 0.0588 0.84682 0.06351 0.0
C828 C 0.00243 0.82444 0.09964 0.0
H829 H 0.94141 0.82703 0.08042 0.0
C830 C 0.99929 0.82575 0.12875 0.0
C831 C 0.98127 0.82391 0.08195 0.0
C832 C 0.98335 0.82091 0.05051 0.0
C833 C 0.97559 0.82805 0.14067 0.0
C834 C 0.9546 0.82893 0.12298 0.0
C835 C 0.95762 0.82649 0.09388 0.0
C836 C 0.9297 0.83459 0.13434 0.0
C837 C 0.97317 0.83078 0.17208 0.0
C838 C 0.91625 0.81834 0.14858 0.0
C839 C 0.89325 0.82451 0.16041 0.0
C840 C 0.88352 0.84708 0.1583 0.0
C841 C 0.89686 0.86307 0.14345 0.0
C842 C 0.91969 0.85684 0.13149 0.0
H843 H 0.99151 0.83192 0.18286 0.0
H844 H 0.96237 0.8468 0.17862 0.0
H845 H 0.96289 0.81552 0.1791 0.0
H846 H 0.92369 0.80102 0.15081 0.0
H847 H 0.8834 0.81187 0.17184 0.0
H848 H 0.70218 0.58319 0.48938 0.0
H849 H 0.72185 0.55114 0.51176 0.0
H850 H 0.67818 0.56779 0.5858 0.0
H851 H 0.65777 0.59936 0.5632 0.0
H852 H 0.74906 0.54756 0.55908 0.0
H853 H 0.65935 0.50026 0.56569 0.0
H854 H 0.66272 0.52559 0.54612 0.0
H855 H 0.65933 0.52911 0.58353 0.0
C856 C 0.69687 0.58014 0.5105 0.0
C857 C 0.67811 0.59354 0.52436 0.0
C858 C 0.70817 0.56184 0.52328 0.0
C859 C 0.70106 0.55674 0.55019 0.0
C860 C 0.68343 0.571 0.56471 0.0
H861 H 0.73864 0.4393 0.64642 0.0
H862 H 0.72831 0.47872 0.63401 0.0
C863 C 0.67186 0.58908 0.55182 0.0
C864 C 0.71122 0.5358 0.56237 0.0
H865 H 0.69424 0.48357 0.58624 0.0
C866 C 0.73709 0.5336 0.5651 0.0
C867 C 0.69555 0.5175 0.57002 0.0
C868 C 0.66773 0.51805 0.56597 0.0
C869 C 0.74767 0.51357 0.57529 0.0
C870 C 0.73197 0.4954 0.58289 0.0
C871 C 0.70616 0.49773 0.58061 0.0
C872 C 0.74174 0.47305 0.59163 0.0
C873 C 0.77551 0.51186 0.57781 0.0
C874 C 0.753 0.45701 0.57196 0.0
C875 C 0.75856 0.43435 0.5788 0.0
C876 C 0.75293 0.42736 0.60547 0.0
C877 C 0.74282 0.44396 0.62556 0.0
C878 C 0.73709 0.46654 0.61861 0.0
H879 H 0.78473 0.52913 0.57652 0.0
H880 H 0.7808 0.50486 0.5979 0.0
H881 H 0.78257 0.49955 0.56057 0.0
H882 H 0.75632 0.46162 0.55086 0.0
H883 H 0.76599 0.42198 0.56267 0.0
H884 H 0.90223 0.20948 0.08686 0.0
H885 H 0.92106 0.20959 0.13345 0.0
H886 H 0.89027 0.14099 0.14226 0.0
H887 H 0.87173 0.1405 0.09563 0.0
H888 H 0.90263 0.20377 0.18782 0.0
H889 H 0.96555 0.13155 0.14945 0.0
H890 H 0.94729 0.14783 0.12616 0.0
H891 H 0.93317 0.12493 0.14413 0.0
C892 C 0.89919 0.19454 0.09884 0.0
C893 C 0.88583 0.17481 0.08734 0.0
C894 C 0.90995 0.19465 0.12547 0.0
C895 C 0.90746 0.1751 0.141 0.0
C896 C 0.89284 0.15604 0.13032 0.0
H897 H 0.95205 0.1579 0.31243 0.0
H898 H 0.92868 0.16547 0.27029 0.0
C899 C 0.88221 0.15583 0.10369 0.0
C900 C 0.92145 0.17392 0.16751 0.0
H901 H 0.96618 0.14248 0.19812 0.0
C902 C 0.91658 0.19044 0.19014 0.0
C903 C 0.93994 0.15675 0.17023 0.0
C904 C 0.94702 0.13939 0.14615 0.0
C905 C 0.92943 0.18992 0.21568 0.0
C906 C 0.94731 0.17223 0.21867 0.0
C907 C 0.95238 0.15597 0.19586 0.0
C908 C 0.96124 0.17008 0.24508 0.0
C909 C 0.92405 0.20853 0.23903 0.0
C910 C 0.98728 0.17 0.2449 0.0
C911 C 0.00067 0.1652 0.26873 0.0
C912 C 0.9883 0.16042 0.29337 0.0
C913 C 0.96218 0.16129 0.29377 0.0
C914 C 0.94878 0.16594 0.2698 0.0
H915 H 0.9154 0.22426 0.23103 0.0
H916 H 0.9109 0.20136 0.25386 0.0
H917 H 0.94127 0.214 0.25071 0.0
H918 H 0.99728 0.17298 0.22599 0.0
H919 H 0.02071 0.16428 0.26739 0.0
H920 H 0.15238 0.77392 0.11129 0.0
H921 H 0.15308 0.75461 0.15473 0.0
H922 H 0.18063 0.81813 0.19934 0.0
H923 H 0.18017 0.83766 0.15593 0.0
H924 H 0.20863 0.77802 0.2071 0.0
H925 H 0.10861 0.76188 0.2244 0.0
H926 H 0.11882 0.75249 0.18969 0.0
H927 H 0.1196 0.78316 0.20154 0.0
C928 C 0.15843 0.78388 0.13035 0.0
C929 C 0.16639 0.80729 0.13008 0.0
C930 C 0.15855 0.77287 0.15522 0.0
C931 C 0.16651 0.78508 0.18029 0.0
C932 C 0.17419 0.80851 0.18021 0.0
H933 H 0.21125 0.72355 0.3338 0.0
H934 H 0.19672 0.75316 0.30352 0.0
C935 C 0.174 0.81959 0.15537 0.0
C936 C 0.16909 0.77262 0.20591 0.0
H937 H 0.13728 0.73954 0.24978 0.0
C938 C 0.19301 0.76994 0.2168 0.0
C939 C 0.14863 0.76208 0.21833 0.0
C940 C 0.12242 0.7652 0.20808 0.0
C941 C 0.19727 0.75595 0.23891 0.0
C942 C 0.1769 0.74483 0.25091 0.0
C943 C 0.15282 0.74817 0.24063 0.0
C944 C 0.18071 0.72794 0.27223 0.0
C945 C 0.22373 0.75214 0.2481 0.0
C946 C 0.17492 0.70419 0.26562 0.0
C947 C 0.18287 0.68732 0.28303 0.0
C948 C 0.19683 0.69399 0.30727 0.0
C949 C 0.20078 0.71796 0.31505 0.0
C950 C 0.19259 0.73484 0.29774 0.0
H951 H 0.23739 0.75785 0.23279 0.0
H952 H 0.22724 0.76246 0.26839 0.0
H953 H 0.22705 0.73336 0.25101 0.0
H954 H 0.16568 0.69852 0.24606 0.0
H955 H 0.17971 0.66897 0.27642 0.0
H956 H 0.67986 0.72819 0.52553 0.0
H957 H 0.71342 0.75099 0.54918 0.0
H958 H 0.7599 0.68958 0.54427 0.0
H959 H 0.72654 0.6666 0.52026 0.0
H960 H 0.73602 0.74249 0.59969 0.0
H961 H 0.80483 0.73952 0.51372 0.0
H962 H 0.77247 0.7322 0.50781 0.0
H963 H 0.79314 0.71141 0.52163 0.0
C964 C 0.69725 0.71951 0.5293 0.0
C965 C 0.70053 0.69557 0.52088 0.0
C966 C 0.71641 0.73259 0.5428 0.0
C967 C 0.73925 0.72206 0.54804 0.0
C968 C 0.74259 0.69816 0.53984 0.0
H969 H 0.87014 0.76798 0.64326 0.0
H970 H 0.84015 0.74673 0.61186 0.0
C971 C 0.72343 0.68503 0.52631 0.0
C972 C 0.75905 0.73587 0.5634 0.0
H973 H 0.81867 0.75559 0.55848 0.0
C974 C 0.75404 0.74548 0.59064 0.0
C975 C 0.78255 0.73961 0.55152 0.0
C976 C 0.78859 0.73033 0.52198 0.0
C977 C 0.77203 0.75848 0.60653 0.0
C978 C 0.79551 0.76233 0.59463 0.0
C979 C 0.8006 0.75266 0.56743 0.0
C980 C 0.81504 0.77603 0.61055 0.0
C981 C 0.76596 0.76755 0.63617 0.0
C982 C 0.81124 0.79976 0.61926 0.0
C983 C 0.8282 0.81189 0.63732 0.0
C984 C 0.84933 0.8005 0.64686 0.0
C985 C 0.85384 0.77712 0.63664 0.0
C986 C 0.83683 0.765 0.61859 0.0
H987 H 0.74954 0.75851 0.64422 0.0
H988 H 0.78197 0.7653 0.65038 0.0
H989 H 0.76173 0.78656 0.63679 0.0
H990 H 0.79468 0.80865 0.6129 0.0
H991 H 0.82405 0.8298 0.64492 0.0
H992 H 0.81432 0.22829 0.06939 0.0
H993 H 0.77889 0.24757 0.09318 0.0
H994 H 0.72937 0.21456 0.03061 0.0
H995 H 0.76454 0.19505 0.0068 0.0
H996 H 0.74507 0.27849 0.07112 0.0
H997 H 0.69741 0.19958 0.10467 0.0
H998 H 0.72936 0.19925 0.09342 0.0
H999 H 0.70458 0.19782 0.06804 0.0
C1000 C 0.79589 0.22503 0.06074 0.0
C1001 C 0.79229 0.21011 0.03616 0.0
C1002 C 0.77568 0.23606 0.07437 0.0
C1003 C 0.75151 0.23223 0.06386 0.0
C1004 C 0.74784 0.21739 0.03936 0.0
H1005 H 0.62027 0.31653 0.0924 0.0
H1006 H 0.65657 0.29521 0.07357 0.0
C1007 C 0.76801 0.20639 0.02568 0.0
C1008 C 0.73019 0.24447 0.07782 0.0
H1009 H 0.67439 0.23522 0.10854 0.0
C1010 C 0.72968 0.26906 0.07948 0.0
C1011 C 0.71031 0.2321 0.08898 0.0
C1012 C 0.71045 0.20574 0.08898 0.0
C1013 C 0.70946 0.28162 0.0913 0.0
C1014 C 0.68911 0.26921 0.10139 0.0
C1015 C 0.68992 0.24465 0.1005 0.0
C1016 C 0.66669 0.28146 0.11267 0.0
C1017 C 0.71008 0.30807 0.09301 0.0
C1018 C 0.65997 0.2802 0.1407 0.0
C1019 C 0.63909 0.29221 0.15149 0.0
C1020 C 0.62446 0.30551 0.13434 0.0
C1021 C 0.63101 0.30628 0.1061 0.0
C1022 C 0.65189 0.29433 0.09538 0.0
H1023 H 0.72927 0.31489 0.09106 0.0
H1024 H 0.69875 0.31419 0.07568 0.0
H1025 H 0.70216 0.31569 0.11307 0.0
H1026 H 0.67106 0.27018 0.15431 0.0
H1027 H 0.63436 0.29103 0.17323 0.0
H1028 H 0.33461 0.32549 0.66909 0.0
H1029 H 0.33094 0.30403 0.71052 0.0
H1030 H 0.35215 0.24013 0.66253 0.0
H1031 H 0.35549 0.26147 0.62054 0.0
H1032 H 0.31056 0.23463 0.6935 0.0
H1033 H 0.38358 0.27871 0.76041 0.0
H1034 H 0.3628 0.29951 0.74698 0.0
H1035 H 0.38175 0.28133 0.72321 0.0
C1036 C 0.33873 0.30691 0.66728 0.0
C1037 C 0.34528 0.29519 0.64142 0.0
C1038 C 0.33683 0.2947 0.69111 0.0
C1039 C 0.3417 0.27058 0.68973 0.0
C1040 C 0.34852 0.2588 0.66406 0.0
H1041 H 0.33495 0.20414 0.84797 0.0
H1042 H 0.34993 0.21557 0.80298 0.0
C1043 C 0.35041 0.27103 0.64011 0.0
C1044 C 0.33776 0.25756 0.71472 0.0
H1045 H 0.3513 0.25909 0.7844 0.0
C1046 C 0.31978 0.23968 0.71327 0.0
C1047 C 0.3501 0.26386 0.74039 0.0
C1048 C 0.37083 0.28173 0.74279 0.0
C1049 C 0.31274 0.22893 0.73722 0.0
C1050 C 0.32362 0.23663 0.76333 0.0
C1051 C 0.34269 0.25346 0.76445 0.0
C1052 C 0.3144 0.22858 0.78992 0.0
C1053 C 0.29348 0.20965 0.73435 0.0
C1054 C 0.28955 0.23232 0.79759 0.0
C1055 C 0.2809 0.22566 0.82309 0.0
C1056 C 0.29702 0.21537 0.84166 0.0
C1057 C 0.32198 0.21173 0.83399 0.0
C1058 C 0.3306 0.21836 0.80837 0.0
H1059 H 0.2933 0.20064 0.7129 0.0
H1060 H 0.29681 0.19643 0.74959 0.0
H1061 H 0.27482 0.21737 0.73831 0.0
H1062 H 0.27686 0.24069 0.78397 0.0
H1063 H 0.26152 0.22849 0.82819 0.0
H1064 H 0.68257 0.67853 0.4025 0.0
H1065 H 0.68706 0.70131 0.36209 0.0
H1066 H 0.61989 0.73892 0.38455 0.0
H1067 H 0.61521 0.71626 0.4253 0.0
H1068 H 0.65244 0.70878 0.31571 0.0
H1069 H 0.6761 0.78966 0.384 0.0
H1070 H 0.67706 0.76088 0.3967 0.0
H1071 H 0.64776 0.77459 0.3911 0.0
C1072 C 0.66865 0.69156 0.39885 0.0
C1073 C 0.64872 0.69581 0.41738 0.0
C1074 C 0.67118 0.70445 0.37564 0.0
C1075 C 0.65392 0.72187 0.37055 0.0
C1076 C 0.6335 0.72565 0.38834 0.0
H1077 H 0.68775 0.83178 0.26151 0.0
H1078 H 0.66241 0.8069 0.289 0.0
C1079 C 0.63089 0.71269 0.41159 0.0
C1080 C 0.6585 0.73702 0.34766 0.0
H1081 H 0.67971 0.79141 0.33574 0.0
C1082 C 0.65805 0.72696 0.31995 0.0
C1083 C 0.66566 0.76073 0.35336 0.0
C1084 C 0.66687 0.7722 0.38287 0.0
C1085 C 0.66537 0.73986 0.29777 0.0
C1086 C 0.67388 0.76319 0.30364 0.0
C1087 C 0.67315 0.77354 0.33124 0.0
C1088 C 0.6861 0.7765 0.28232 0.0
C1089 C 0.6642 0.72827 0.26836 0.0
C1090 C 0.70747 0.76747 0.26875 0.0
C1091 C 0.72182 0.78156 0.25272 0.0
C1092 C 0.71532 0.80508 0.25031 0.0
C1093 C 0.69317 0.81369 0.26266 0.0
C1094 C 0.67872 0.79952 0.27854 0.0
H1095 H 0.6493 0.71474 0.26619 0.0
H1096 H 0.66083 0.74125 0.25284 0.0
H1097 H 0.68209 0.71935 0.26339 0.0
H1098 H 0.71387 0.74995 0.27182 0.0
H1099 H 0.7386 0.77431 0.24319 0.0
H1100 H 0.84461 0.24729 0.95475 0.0
H1101 H 0.83881 0.26946 0.91361 0.0
H1102 H 0.83344 0.20471 0.86094 0.0
H1103 H 0.83919 0.18245 0.90164 0.0
H1104 H 0.8652 0.24226 0.8407 0.0
H1105 H 0.76935 0.26983 0.87161 0.0
H1106 H 0.79386 0.27486 0.89715 0.0
H1107 H 0.78457 0.24541 0.88594 0.0
C1108 C 0.84239 0.23779 0.93437 0.0
C1109 C 0.84211 0.21311 0.9315 0.0
C1110 C 0.83903 0.25048 0.91096 0.0
C1111 C 0.83551 0.23865 0.88439 0.0
C1112 C 0.83609 0.2141 0.88134 0.0
H1113 H 0.77098 0.26265 0.72826 0.0
H1114 H 0.78447 0.25015 0.77341 0.0
C1115 C 0.83927 0.20144 0.90465 0.0
C1116 C 0.83012 0.25157 0.85969 0.0
H1117 H 0.78348 0.27985 0.82796 0.0
C1118 C 0.84752 0.25083 0.83801 0.0
C1119 C 0.80691 0.26246 0.85631 0.0
C1120 C 0.78744 0.26319 0.87884 0.0
C1121 C 0.84204 0.26028 0.81264 0.0
C1122 C 0.81861 0.27067 0.80903 0.0
C1123 C 0.80146 0.27193 0.83097 0.0
C1124 C 0.81077 0.27856 0.78184 0.0
C1125 C 0.86084 0.25822 0.7894 0.0
C1126 C 0.82107 0.29873 0.77181 0.0
C1127 C 0.81341 0.30592 0.74599 0.0
C1128 C 0.79542 0.29295 0.72981 0.0
C1129 C 0.78513 0.27279 0.74005 0.0
C1130 C 0.79268 0.26572 0.76589 0.0
H1131 H 0.87704 0.24736 0.79449 0.0
H1132 H 0.85207 0.25039 0.76975 0.0
H1133 H 0.86764 0.27597 0.7855 0.0
H1134 H 0.83496 0.30891 0.78399 0.0
H1135 H 0.82173 0.32146 0.73855 0.0
H1136 H 0.26552 0.30456 0.56916 0.0
H1137 H 0.23104 0.28143 0.54769 0.0
H1138 H 0.27935 0.25357 0.48176 0.0
H1139 H 0.31399 0.27632 0.50318 0.0
H1140 H 0.21015 0.2817 0.49403 0.0
H1141 H 0.2496 0.19454 0.51103 0.0
H1142 H 0.26151 0.22144 0.52862 0.0
H1143 H 0.27001 0.21294 0.49303 0.0
C1144 C 0.26885 0.29348 0.55012 0.0
C1145 C 0.29261 0.29213 0.53806 0.0
C1146 C 0.24911 0.2803 0.53788 0.0
C1147 C 0.25276 0.26548 0.51343 0.0
C1148 C 0.27628 0.26449 0.50098 0.0
H1149 H 0.16188 0.17192 0.40466 0.0
H1150 H 0.19477 0.19655 0.42705 0.0
C1151 C 0.29603 0.27761 0.51321 0.0
C1152 C 0.23195 0.25119 0.50076 0.0
H1153 H 0.21389 0.1948 0.48175 0.0
C1154 C 0.21086 0.26269 0.49148 0.0
C1155 C 0.23296 0.22641 0.49754 0.0
C1156 C 0.25462 0.21305 0.5083 0.0
C1157 C 0.19097 0.25006 0.47839 0.0
C1158 C 0.19213 0.2253 0.47488 0.0
C1159 C 0.21312 0.21381 0.48438 0.0
C1160 C 0.17187 0.21091 0.46117 0.0
C1161 C 0.16919 0.26332 0.46776 0.0
C1162 C 0.14816 0.21071 0.47308 0.0
C1163 C 0.12934 0.19654 0.46042 0.0
C1164 C 0.13396 0.18221 0.4357 0.0
C1165 C 0.15778 0.18251 0.42386 0.0
C1166 C 0.17656 0.19666 0.43654 0.0
H1167 H 0.17372 0.28211 0.46615 0.0
H1168 H 0.16297 0.25545 0.44692 0.0
H1169 H 0.15347 0.2624 0.48247 0.0
H1170 H 0.14431 0.22122 0.49241 0.0
H1171 H 0.11133 0.19645 0.47031 0.0
H1172 H 0.19842 0.77832 0.99767 0.0
H1173 H 0.23385 0.75665 0.97743 0.0
H1174 H 0.28367 0.79993 0.03045 0.0
H1175 H 0.24826 0.82144 0.05134 0.0
H1176 H 0.27356 0.77206 0.94878 0.0
H1177 H 0.30545 0.73437 0.04569 0.0
H1178 H 0.2756 0.74826 0.04301 0.0
H1179 H 0.30324 0.76578 0.04868 0.0
C1180 C 0.21689 0.78322 0.00516 0.0
C1181 C 0.22047 0.80151 0.02634 0.0
C1182 C 0.23713 0.77081 0.99351 0.0
C1183 C 0.26136 0.77641 0.00275 0.0
C1184 C 0.26508 0.79494 0.02349 0.0
H1185 H 0.40389 0.7155 0.94984 0.0
H1186 H 0.37148 0.74148 0.97041 0.0
C1187 C 0.24482 0.8073 0.0353 0.0
C1188 C 0.28264 0.76297 0.99027 0.0
H1189 H 0.33074 0.72738 0.0057 0.0
C1190 C 0.28606 0.7623 0.96123 0.0
C1191 C 0.29895 0.75026 0.00657 0.0
C1192 C 0.29557 0.74947 0.03768 0.0
C1193 C 0.30533 0.74923 0.94803 0.0
C1194 C 0.32144 0.73637 0.96429 0.0
C1195 C 0.31834 0.73734 0.99336 0.0
C1196 C 0.34102 0.72106 0.95134 0.0
C1197 C 0.3084 0.74932 0.91681 0.0
C1198 C 0.33454 0.70095 0.93403 0.0
C1199 C 0.35294 0.6861 0.92234 0.0
C1200 C 0.37818 0.69112 0.92774 0.0
C1201 C 0.38461 0.71133 0.94506 0.0
C1202 C 0.36616 0.7261 0.95692 0.0
H1203 H 0.29835 0.76415 0.90839 0.0
H1204 H 0.32833 0.75045 0.91128 0.0
H1205 H 0.30081 0.73272 0.90642 0.0
H1206 H 0.31521 0.69662 0.92978 0.0
H1207 H 0.34743 0.67075 0.90892 0.0
loop_
_geom_bond_atom_site_label_1
_geom_bond_atom_site_label_2
_geom_bond_distance
_geom_bond_site_symmetry_2
_ccdc_geom_bond_type
Fe0 O2 1.918 . S
Fe0 O5 1.997 . S
Fe0 O6 2.002 . S
Fe0 O11 1.976 . S
Fe0 O14 1.996 . S
Fe1 O2 1.918 . S
Fe1 O9 1.997 . S
Fe1 O12 1.996 . S
Fe1 O16 1.976 . S
Fe1 O19 2.002 . S
O2 Fe0 1.918 . S
O2 Fe1 1.918 . S
O2 Fe3 1.918 . S
Fe3 O2 1.918 . S
Fe3 O4 2.002 . S
Fe3 O13 1.976 . S
Fe3 O17 1.996 . S
Fe3 O20 1.997 . S
O4 Fe3 2.002 . S
O4 C21 1.295 . S
O5 Fe0 1.997 . S
O5 C21 1.235 . S
O6 Fe0 2.002 . S
O6 C7 1.295 . S
C7 O6 1.295 . S
C7 O9 1.235 . S
C8 O13 1.287 . S
C8 O14 1.255 . S
O9 Fe1 1.997 . S
O9 C7 1.235 . S
C10 O16 1.287 1_556 S
C10 O17 1.255 1_556 S
O11 Fe0 1.976 . S
O11 C18 1.287 . S
O12 Fe1 1.996 . S
O12 C18 1.255 . S
O13 Fe3 1.976 . S
O13 C8 1.287 . S
O14 Fe0 1.996 . S
O14 C8 1.255 . S
C15 O19 1.295 . S
C15 O20 1.235 . S
O16 Fe1 1.976 . S
O16 C10 1.287 1_554 S
O17 Fe3 1.996 . S
O17 C10 1.255 1_554 S
C18 O11 1.287 . S
C18 O12 1.255 . S
O19 Fe1 2.002 . S
O19 C15 1.295 . S
O20 Fe3 1.997 . S
O20 C15 1.235 . S
C21 O4 1.295 . S
C21 O5 1.235 . S
Fe22 O24 1.918 . S
Fe22 O27 1.997 . S
Fe22 O28 2.002 . S
Fe22 O33 1.976 . S
Fe22 O36 1.996 . S
Fe23 O24 1.918 . S
Fe23 O31 1.997 . S
Fe23 O34 1.996 . S
Fe23 O38 1.976 . S
Fe23 O41 2.002 . S
O24 Fe22 1.918 . S
O24 Fe23 1.918 . S
O24 Fe25 1.918 . S
Fe25 O24 1.918 . S
Fe25 O26 2.002 . S
Fe25 O35 1.976 . S
Fe25 O39 1.996 . S
Fe25 O42 1.997 . S
O26 Fe25 2.002 . S
O26 C43 1.295 . S
O27 Fe22 1.997 . S
O27 C43 1.235 . S
O28 Fe22 2.002 . S
O28 C29 1.295 . S
C29 O28 1.295 . S
C29 O31 1.235 . S
C30 O35 1.287 . S
C30 O36 1.255 . S
O31 Fe23 1.997 . S
O31 C29 1.235 . S
C32 O38 1.287 . S
C32 O39 1.255 . S
O33 Fe22 1.976 . S
O33 C40 1.287 . S
O34 Fe23 1.996 . S
O34 C40 1.255 . S
O35 Fe25 1.976 . S
O35 C30 1.287 . S
O36 Fe22 1.996 . S
O36 C30 1.255 . S
C37 O41 1.295 . S
C37 O42 1.235 . S
O38 Fe23 1.976 . S
O38 C32 1.287 . S
O39 Fe25 1.996 . S
O39 C32 1.255 . S
C40 O33 1.287 . S
C40 O34 1.255 . S
O41 Fe23 2.002 . S
O41 C37 1.295 . S
O42 Fe25 1.997 . S
O42 C37 1.235 . S
C43 O26 1.295 . S
C43 O27 1.235 . S
Fe44 O46 1.918 . S
Fe44 O49 1.997 1_554 S
Fe44 O50 2.002 1_554 S
Fe44 O55 1.976 . S
Fe44 O58 1.996 . S
Fe45 O46 1.918 . S
Fe45 O53 1.997 1_554 S
Fe45 O56 1.996 . S
Fe45 O60 1.976 . S
Fe45 O63 2.002 1_554 S
O46 Fe44 1.918 . S
O46 Fe45 1.918 . S
O46 Fe47 1.918 1_554 S
Fe47 O46 1.918 1_556 S
Fe47 O48 2.002 . S
Fe47 O57 1.976 1_556 S
Fe47 O61 1.996 1_556 S
Fe47 O64 1.997 . S
O48 Fe47 2.002 . S
O48 C65 1.295 . S
O49 Fe44 1.997 1_556 S
O49 C65 1.235 . S
O50 Fe44 2.002 1_556 S
O50 C51 1.295 . S
C51 O50 1.295 . S
C51 O53 1.235 . S
C52 O57 1.287 . S
C52 O58 1.255 . S
O53 Fe45 1.997 1_556 S
O53 C51 1.235 . S
C54 O60 1.287 . S
C54 O61 1.255 . S
O55 Fe44 1.976 . S
O55 C62 1.287 . S
O56 Fe45 1.996 . S
O56 C62 1.255 . S
O57 Fe47 1.976 1_554 S
O57 C52 1.287 . S
O58 Fe44 1.996 . S
O58 C52 1.255 . S
C59 O63 1.295 . S
C59 O64 1.235 . S
O60 Fe45 1.976 . S
O60 C54 1.287 . S
O61 Fe47 1.996 1_554 S
O61 C54 1.255 . S
C62 O55 1.287 . S
C62 O56 1.255 . S
O63 Fe45 2.002 1_556 S
O63 C59 1.295 . S
O64 Fe47 1.997 . S
O64 C59 1.235 . S
C65 O48 1.295 . S
C65 O49 1.235 . S
Fe66 O68 1.918 . S
Fe66 O71 1.997 . S
Fe66 O72 2.002 . S
Fe66 O77 1.976 . S
Fe66 O80 1.996 . S
Fe67 O68 1.918 . S
Fe67 O75 1.997 . S
Fe67 O78 1.996 . S
Fe67 O82 1.976 . S
Fe67 O85 2.002 . S
O68 Fe66 1.918 . S
O68 Fe67 1.918 . S
O68 Fe69 1.918 . S
Fe69 O68 1.918 . S
Fe69 O70 2.002 . S
Fe69 O79 1.976 . S
Fe69 O83 1.996 . S
Fe69 O86 1.997 . S
O70 Fe69 2.002 . S
O70 C87 1.295 . S
O71 Fe66 1.997 . S
O71 C87 1.235 . S
O72 Fe66 2.002 . S
O72 C73 1.295 . S
C73 O72 1.295 . S
C73 O75 1.235 . S
C74 O79 1.287 . S
C74 O80 1.255 . S
O75 Fe67 1.997 . S
O75 C73 1.235 . S
C76 O82 1.287 . S
C76 O83 1.255 . S
O77 Fe66 1.976 . S
O77 C84 1.287 . S
O78 Fe67 1.996 . S
O78 C84 1.255 . S
O79 Fe69 1.976 . S
O79 C74 1.287 . S
O80 Fe66 1.996 . S
O80 C74 1.255 . S
C81 O85 1.295 . S
C81 O86 1.235 . S
O82 Fe67 1.976 . S
O82 C76 1.287 . S
O83 Fe69 1.996 . S
O83 C76 1.255 . S
C84 O77 1.287 . S
C84 O78 1.255 . S
O85 Fe67 2.002 . S
O85 C81 1.295 . S
O86 Fe69 1.997 . S
O86 C81 1.235 . S
C87 O70 1.295 . S
C87 O71 1.235 . S
P88 O99 1.490 . S
P88 C102 1.812 . S
P88 C108 1.803 . S
P88 C114 1.819 . S
H89 C103 0.941 . S
H90 C104 0.939 . S
H91 C106 0.940 . S
H92 C107 0.940 . S
H93 C109 0.939 . S
H94 C110 0.942 . S
H95 C112 0.940 . S
H96 C113 0.939 . S
H97 C115 0.941 . S
H98 C119 0.939 . S
O99 P88 1.490 . S
H100 C116 0.939 1_655 S
H101 C118 0.940 . S
C102 P88 1.812 . S
C102 C103 1.389 . S
C102 C107 1.391 . S
C103 H89 0.941 . S
C103 C102 1.389 . S
C103 C104 1.397 . S
C104 H90 0.939 . S
C104 C103 1.397 . S
C104 C105 1.378 . S
C105 C104 1.378 . S
C105 C106 1.378 . S
C106 H91 0.940 . S
C106 C105 1.378 . S
C106 C107 1.396 . S
C107 H92 0.940 . S
C107 C102 1.391 . S
C107 C106 1.396 . S
C108 P88 1.803 . S
C108 C109 1.378 . S
C108 C113 1.400 . S
C109 H93 0.939 . S
C109 C108 1.378 . S
C109 C110 1.361 . S
C110 H94 0.942 . S
C110 C109 1.361 . S
C110 C111 1.369 . S
C111 C110 1.369 . S
C111 C112 1.404 . S
C112 H95 0.940 . S
C112 C111 1.404 . S
C112 C113 1.389 . S
C113 H96 0.939 . S
C113 C108 1.400 . S
C113 C112 1.389 . S
C114 P88 1.819 . S
C114 C115 1.391 . S
C114 C119 1.391 . S
C115 H97 0.941 . S
C115 C114 1.391 . S
C115 C116 1.396 . S
C116 H100 0.939 1_455 S
C116 C115 1.396 . S
C116 C117 1.397 . S
C117 C116 1.397 . S
C117 C118 1.385 . S
C118 H101 0.940 . S
C118 C117 1.385 . S
C118 C119 1.388 . S
C119 H98 0.939 . S
C119 C114 1.391 . S
C119 C118 1.388 . S
P120 O131 1.490 . S
P120 C134 1.812 . S
P120 C140 1.803 . S
P120 C146 1.819 . S
H121 C135 0.941 . S
H122 C136 0.939 . S
H123 C138 0.940 . S
H124 C139 0.940 . S
H125 C141 0.939 . S
H126 C142 0.942 . S
H127 C144 0.940 . S
H128 C145 0.939 . S
H129 C147 0.941 . S
H130 C151 0.939 . S
O131 P120 1.490 . S
H132 C148 0.939 . S
H133 C150 0.940 . S
C134 P120 1.812 . S
C134 C135 1.389 . S
C134 C139 1.391 . S
C135 H121 0.941 . S
C135 C134 1.389 . S
C135 C136 1.397 . S
C136 H122 0.939 . S
C136 C135 1.397 . S
C136 C137 1.378 . S
C137 C136 1.378 . S
C137 C138 1.378 . S
C138 H123 0.940 . S
C138 C137 1.378 . S
C138 C139 1.396 . S
C139 H124 0.940 . S
C139 C134 1.391 . S
C139 C138 1.396 . S
C140 P120 1.803 . S
C140 C141 1.378 . S
C140 C145 1.400 . S
C141 H125 0.939 . S
C141 C140 1.378 . S
C141 C142 1.361 . S
C142 H126 0.942 . S
C142 C141 1.361 . S
C142 C143 1.369 . S
C143 C142 1.369 . S
C143 C144 1.404 . S
C144 H127 0.940 . S
C144 C143 1.404 . S
C144 C145 1.389 . S
C145 H128 0.939 . S
C145 C140 1.400 . S
C145 C144 1.389 . S
C146 P120 1.819 . S
C146 C147 1.391 . S
C146 C151 1.391 . S
C147 H129 0.941 . S
C147 C146 1.391 . S
C147 C148 1.396 . S
C148 H132 0.939 . S
C148 C147 1.396 . S
C148 C149 1.397 . S
C149 C148 1.397 . S
C149 C150 1.385 . S
C150 H133 0.940 . S
C150 C149 1.385 . S
C150 C151 1.388 . S
C151 H130 0.939 . S
C151 C146 1.391 . S
C151 C150 1.388 . S
P152 O163 1.490 . S
P152 C166 1.812 . S
P152 C172 1.803 . S
P152 C178 1.819 . S
H153 C167 0.941 . S
H154 C168 0.939 . S
H155 C170 0.940 . S
H156 C171 0.940 . S
H157 C173 0.939 . S
H158 C174 0.942 . S
H159 C176 0.940 . S
H160 C177 0.939 . S
H161 C179 0.941 . S
H162 C183 0.939 . S
O163 P152 1.490 . S
H164 C180 0.939 . S
H165 C182 0.940 . S
C166 P152 1.812 . S
C166 C167 1.389 . S
C166 C171 1.391 . S
C167 H153 0.941 . S
C167 C166 1.389 . S
C167 C168 1.397 . S
C168 H154 0.939 . S
C168 C167 1.397 . S
C168 C169 1.378 . S
C169 C168 1.378 . S
C169 C170 1.378 . S
C170 H155 0.940 . S
C170 C169 1.378 . S
C170 C171 1.396 . S
C171 H156 0.940 . S
C171 C166 1.391 . S
C171 C170 1.396 . S
C172 P152 1.803 . S
C172 C173 1.378 . S
C172 C177 1.400 . S
C173 H157 0.939 . S
C173 C172 1.378 . S
C173 C174 1.361 . S
C174 H158 0.942 . S
C174 C173 1.361 . S
C174 C175 1.369 . S
C175 C174 1.369 . S
C175 C176 1.404 . S
C176 H159 0.940 . S
C176 C175 1.404 . S
C176 C177 1.389 . S
C177 H160 0.939 . S
C177 C172 1.400 . S
C177 C176 1.389 . S
C178 P152 1.819 . S
C178 C179 1.391 . S
C178 C183 1.391 . S
C179 H161 0.941 . S
C179 C178 1.391 . S
C179 C180 1.396 . S
C180 H164 0.939 . S
C180 C179 1.396 . S
C180 C181 1.397 . S
C181 C180 1.397 . S
C181 C182 1.385 . S
C182 H165 0.940 . S
C182 C181 1.385 . S
C182 C183 1.388 . S
C183 H162 0.939 . S
C183 C178 1.391 . S
C183 C182 1.388 . S
P184 O195 1.490 . S
P184 C198 1.812 . S
P184 C204 1.803 . S
P184 C210 1.819 . S
H185 C199 0.941 . S
H186 C200 0.939 . S
H187 C202 0.940 . S
H188 C203 0.940 . S
H189 C205 0.939 . S
H190 C206 0.942 . S
H191 C208 0.940 . S
H192 C209 0.939 . S
H193 C211 0.941 . S
H194 C215 0.939 . S
O195 P184 1.490 . S
H196 C212 0.939 . S
H197 C214 0.940 . S
C198 P184 1.812 . S
C198 C199 1.389 . S
C198 C203 1.391 . S
C199 H185 0.941 . S
C199 C198 1.389 . S
C199 C200 1.397 . S
C200 H186 0.939 . S
C200 C199 1.397 . S
C200 C201 1.378 . S
C201 C200 1.378 . S
C201 C202 1.378 . S
C202 H187 0.940 . S
C202 C201 1.378 . S
C202 C203 1.396 . S
C203 H188 0.940 . S
C203 C198 1.391 . S
C203 C202 1.396 . S
C204 P184 1.803 . S
C204 C205 1.378 . S
C204 C209 1.400 . S
C205 H189 0.939 . S
C205 C204 1.378 . S
C205 C206 1.361 . S
C206 H190 0.942 . S
C206 C205 1.361 . S
C206 C207 1.369 . S
C207 C206 1.369 . S
C207 C208 1.404 . S
C208 H191 0.940 . S
C208 C207 1.404 . S
C208 C209 1.389 . S
C209 H192 0.939 . S
C209 C204 1.400 . S
C209 C208 1.389 . S
C210 P184 1.819 . S
C210 C211 1.391 . S
C210 C215 1.391 . S
C211 H193 0.941 . S
C211 C210 1.391 . S
C211 C212 1.396 . S
C212 H196 0.939 . S
C212 C211 1.396 . S
C212 C213 1.397 . S
C213 C212 1.397 . S
C213 C214 1.385 . S
C214 H197 0.940 . S
C214 C213 1.385 . S
C214 C215 1.388 . S
C215 H194 0.939 . S
C215 C210 1.391 . S
C215 C214 1.388 . S
P216 O227 1.490 . S
P216 C230 1.812 . S
P216 C236 1.803 . S
P216 C242 1.819 . S
H217 C231 0.941 . S
H218 C232 0.939 . S
H219 C234 0.940 . S
H220 C235 0.940 . S
H221 C237 0.939 . S
H222 C238 0.942 . S
H223 C240 0.940 . S
H224 C241 0.939 . S
H225 C243 0.941 . S
H226 C247 0.939 . S
O227 P216 1.490 . S
H228 C244 0.939 . S
H229 C246 0.940 . S
C230 P216 1.812 . S
C230 C231 1.389 . S
C230 C235 1.391 . S
C231 H217 0.941 . S
C231 C230 1.389 . S
C231 C232 1.397 . S
C232 H218 0.939 . S
C232 C231 1.397 . S
C232 C233 1.378 . S
C233 C232 1.378 . S
C233 C234 1.378 . S
C234 H219 0.940 . S
C234 C233 1.378 . S
C234 C235 1.396 . S
C235 H220 0.940 . S
C235 C230 1.391 . S
C235 C234 1.396 . S
C236 P216 1.803 . S
C236 C237 1.378 . S
C236 C241 1.400 . S
C237 H221 0.939 . S
C237 C236 1.378 . S
C237 C238 1.361 . S
C238 H222 0.942 . S
C238 C237 1.361 . S
C238 C239 1.369 . S
C239 C238 1.369 . S
C239 C240 1.404 . S
C240 H223 0.940 . S
C240 C239 1.404 . S
C240 C241 1.389 . S
C241 H224 0.939 . S
C241 C236 1.400 . S
C241 C240 1.389 . S
C242 P216 1.819 . S
C242 C243 1.391 . S
C242 C247 1.391 . S
C243 H225 0.941 . S
C243 C242 1.391 . S
C243 C244 1.396 . S
C244 H228 0.939 . S
C244 C243 1.396 . S
C244 C245 1.397 . S
C245 C244 1.397 . S
C245 C246 1.385 . S
C246 H229 0.940 . S
C246 C245 1.385 . S
C246 C247 1.388 . S
C247 H226 0.939 . S
C247 C242 1.391 . S
C247 C246 1.388 . S
P248 O259 1.490 . S
P248 C262 1.812 . S
P248 C268 1.803 . S
P248 C274 1.819 . S
H249 C263 0.941 . S
H250 C264 0.939 . S
H251 C266 0.940 . S
H252 C267 0.940 . S
H253 C269 0.939 . S
H254 C270 0.942 . S
H255 C272 0.940 . S
H256 C273 0.939 . S
H257 C275 0.941 . S
H258 C279 0.939 . S
O259 P248 1.490 . S
H260 C276 0.939 . S
H261 C278 0.940 . S
C262 P248 1.812 . S
C262 C263 1.389 . S
C262 C267 1.391 . S
C263 H249 0.941 . S
C263 C262 1.389 . S
C263 C264 1.397 . S
C264 H250 0.939 . S
C264 C263 1.397 . S
C264 C265 1.378 . S
C265 C264 1.378 . S
C265 C266 1.378 . S
C266 H251 0.940 . S
C266 C265 1.378 . S
C266 C267 1.396 . S
C267 H252 0.940 . S
C267 C262 1.391 . S
C267 C266 1.396 . S
C268 P248 1.803 . S
C268 C269 1.378 . S
C268 C273 1.400 . S
C269 H253 0.939 . S
C269 C268 1.378 . S
C269 C270 1.361 . S
C270 H254 0.942 . S
C270 C269 1.361 . S
C270 C271 1.369 . S
C271 C270 1.369 . S
C271 C272 1.404 . S
C272 H255 0.940 . S
C272 C271 1.404 . S
C272 C273 1.389 . S
C273 H256 0.939 . S
C273 C268 1.400 . S
C273 C272 1.389 . S
C274 P248 1.819 . S
C274 C275 1.391 . S
C274 C279 1.391 . S
C275 H257 0.941 . S
C275 C274 1.391 . S
C275 C276 1.396 . S
C276 H260 0.939 . S
C276 C275 1.396 . S
C276 C277 1.397 . S
C277 C276 1.397 . S
C277 C278 1.385 . S
C278 H261 0.940 . S
C278 C277 1.385 . S
C278 C279 1.388 . S
C279 H258 0.939 . S
C279 C274 1.391 . S
C279 C278 1.388 . S
P280 O291 1.490 . S
P280 C294 1.812 . S
P280 C300 1.803 . S
P280 C306 1.819 . S
H281 C295 0.941 . S
H282 C296 0.939 . S
H283 C298 0.940 . S
H284 C299 0.940 . S
H285 C301 0.939 . S
H286 C302 0.942 . S
H287 C304 0.940 . S
H288 C305 0.939 . S
H289 C307 0.941 . S
H290 C311 0.939 . S
O291 P280 1.490 . S
H292 C308 0.939 . S
H293 C310 0.940 . S
C294 P280 1.812 . S
C294 C295 1.389 . S
C294 C299 1.391 . S
C295 H281 0.941 . S
C295 C294 1.389 . S
C295 C296 1.397 . S
C296 H282 0.939 . S
C296 C295 1.397 . S
C296 C297 1.378 . S
C297 C296 1.378 . S
C297 C298 1.378 . S
C298 H283 0.940 . S
C298 C297 1.378 . S
C298 C299 1.396 . S
C299 H284 0.940 . S
C299 C294 1.391 . S
C299 C298 1.396 . S
C300 P280 1.803 . S
C300 C301 1.378 . S
C300 C305 1.400 . S
C301 H285 0.939 . S
C301 C300 1.378 . S
C301 C302 1.361 . S
C302 H286 0.942 . S
C302 C301 1.361 . S
C302 C303 1.369 . S
C303 C302 1.369 . S
C303 C304 1.404 . S
C304 H287 0.940 . S
C304 C303 1.404 . S
C304 C305 1.389 . S
C305 H288 0.939 . S
C305 C300 1.400 . S
C305 C304 1.389 . S
C306 P280 1.819 . S
C306 C307 1.391 . S
C306 C311 1.391 . S
C307 H289 0.941 . S
C307 C306 1.391 . S
C307 C308 1.396 . S
C308 H292 0.939 . S
C308 C307 1.396 . S
C308 C309 1.397 . S
C309 C308 1.397 . S
C309 C310 1.385 . S
C310 H293 0.940 . S
C310 C309 1.385 . S
C310 C311 1.388 . S
C311 H290 0.939 . S
C311 C306 1.391 . S
C311 C310 1.388 . S
P312 O323 1.490 . S
P312 C326 1.812 . S
P312 C332 1.803 . S
P312 C338 1.819 . S
H313 C327 0.941 . S
H314 C328 0.939 . S
H315 C330 0.940 . S
H316 C331 0.940 . S
H317 C333 0.939 . S
H318 C334 0.942 . S
H319 C336 0.940 . S
H320 C337 0.939 . S
H321 C339 0.941 . S
H322 C343 0.939 . S
O323 P312 1.490 . S
H324 C340 0.939 . S
H325 C342 0.940 . S
C326 P312 1.812 . S
C326 C327 1.389 . S
C326 C331 1.391 . S
C327 H313 0.941 . S
C327 C326 1.389 . S
C327 C328 1.397 . S
C328 H314 0.939 . S
C328 C327 1.397 . S
C328 C329 1.378 . S
C329 C328 1.378 . S
C329 C330 1.378 . S
C330 H315 0.940 . S
C330 C329 1.378 . S
C330 C331 1.396 . S
C331 H316 0.940 . S
C331 C326 1.391 . S
C331 C330 1.396 . S
C332 P312 1.803 . S
C332 C333 1.378 . S
C332 C337 1.400 . S
C333 H317 0.939 . S
C333 C332 1.378 . S
C333 C334 1.361 . S
C334 H318 0.942 . S
C334 C333 1.361 . S
C334 C335 1.369 . S
C335 C334 1.369 . S
C335 C336 1.404 . S
C336 H319 0.940 . S
C336 C335 1.404 . S
C336 C337 1.389 . S
C337 H320 0.939 . S
C337 C332 1.400 . S
C337 C336 1.389 . S
C338 P312 1.819 . S
C338 C339 1.391 . S
C338 C343 1.391 . S
C339 H321 0.941 . S
C339 C338 1.391 . S
C339 C340 1.396 . S
C340 H324 0.939 . S
C340 C339 1.396 . S
C340 C341 1.397 . S
C341 C340 1.397 . S
C341 C342 1.385 . S
C342 H325 0.940 . S
C342 C341 1.385 . S
C342 C343 1.388 . S
C343 H322 0.939 . S
C343 C338 1.391 . S
C343 C342 1.388 . S
H344 C352 0.929 . S
H345 C354 0.930 . S
H346 C356 0.930 . S
H347 C359 0.929 . S
H348 C362 0.930 . S
H349 C364 0.960 . S
H350 C364 0.960 . S
H351 C364 0.960 . S
C352 H344 0.929 . S
C352 C353 1.377 . S
C352 C354 1.384 . S
C353 C352 1.377 . S
C353 C359 1.390 . S
C354 H345 0.930 . S
C354 C352 1.384 . S
C354 C355 1.372 . S
C355 C354 1.372 . S
C355 C356 1.400 . S
C355 C360 1.490 . S
C356 H346 0.930 . S
C356 C355 1.400 . S
C356 C359 1.386 . S
H357 C373 0.930 . S
H358 C374 0.943 . S
C359 H347 0.929 . S
C359 C353 1.390 . S
C359 C356 1.386 . S
C360 C355 1.490 . S
C360 C362 1.395 . S
C360 C363 1.403 . S
H361 C367 0.930 . S
C362 H348 0.930 . S
C362 C360 1.395 . S
C362 C365 1.403 . S
C363 C360 1.403 . S
C363 C364 1.524 . S
C363 C367 1.400 . S
C364 H349 0.960 . S
C364 H350 0.960 . S
C364 H351 0.960 . S
C364 C363 1.524 . S
C365 C362 1.403 . S
C365 C366 1.392 . S
C365 C369 1.495 . S
C366 C365 1.392 . S
C366 C367 1.385 . S
C366 C368 1.478 1_565 S
C367 H361 0.930 . S
C367 C363 1.400 . S
C367 C366 1.385 . S
C368 C366 1.478 1_545 S
C368 C370 1.381 . S
C368 C374 1.381 1_545 S
C369 C365 1.495 . S
C369 H375 0.959 . S
C369 H376 0.961 . S
C369 H377 0.960 . S
C370 C368 1.381 . S
C370 C371 1.394 . S
C370 H378 0.930 . S
C371 C370 1.394 . S
C371 C372 1.383 . S
C371 H379 0.929 . S
C372 C371 1.383 . S
C372 C373 1.377 . S
C373 H357 0.930 . S
C373 C372 1.377 . S
C373 C374 1.370 1_545 S
C374 H358 0.943 . S
C374 C368 1.381 1_565 S
C374 C373 1.370 1_565 S
H375 C369 0.959 . S
H376 C369 0.961 . S
H377 C369 0.960 . S
H378 C370 0.930 . S
H379 C371 0.929 . S
H380 C388 0.929 . S
H381 C390 0.930 . S
H382 C392 0.930 . S
H383 C395 0.929 . S
H384 C398 0.930 . S
H385 C400 0.960 . S
H386 C400 0.960 . S
H387 C400 0.960 . S
C388 H380 0.929 . S
C388 C389 1.377 . S
C388 C390 1.384 . S
C389 C388 1.377 . S
C389 C395 1.390 . S
C390 H381 0.930 . S
C390 C388 1.384 . S
C390 C391 1.372 . S
C391 C390 1.372 . S
C391 C392 1.400 . S
C391 C396 1.490 . S
C392 H382 0.930 . S
C392 C391 1.400 . S
C392 C395 1.386 . S
H393 C409 0.930 . S
H394 C410 0.931 . S
C395 H383 0.929 . S
C395 C389 1.390 . S
C395 C392 1.386 . S
C396 C391 1.490 . S
C396 C398 1.395 . S
C396 C399 1.403 . S
H397 C403 0.930 . S
C398 H384 0.930 . S
C398 C396 1.395 . S
C398 C401 1.403 . S
C399 C396 1.403 . S
C399 C400 1.524 . S
C399 C403 1.400 . S
C400 H385 0.960 . S
C400 H386 0.960 . S
C400 H387 0.960 . S
C400 C399 1.524 . S
C401 C398 1.403 . S
C401 C402 1.392 . S
C401 C405 1.495 . S
C402 C401 1.392 . S
C402 C403 1.385 . S
C402 C404 1.478 . S
C403 H397 0.930 . S
C403 C399 1.400 . S
C403 C402 1.385 . S
C404 C402 1.478 . S
C404 C406 1.381 . S
C404 C410 1.383 . S
C405 C401 1.495 . S
C405 H411 0.959 . S
C405 H412 0.961 . S
C405 H413 0.960 . S
C406 C404 1.381 . S
C406 C407 1.394 . S
C406 H414 0.930 . S
C407 C406 1.394 . S
C407 C408 1.383 . S
C407 H415 0.929 . S
C408 C407 1.383 . S
C408 C409 1.377 . S
C409 H393 0.930 . S
C409 C408 1.377 . S
C409 C410 1.379 . S
C410 H394 0.931 . S
C410 C404 1.383 . S
C410 C409 1.379 . S
H411 C405 0.959 . S
H412 C405 0.961 . S
H413 C405 0.960 . S
H414 C406 0.930 . S
H415 C407 0.929 . S
H416 C424 0.929 . S
H417 C426 0.930 . S
H418 C428 0.930 . S
H419 C431 0.929 . S
H420 C434 0.930 . S
H421 C436 0.960 . S
H422 C436 0.960 . S
H423 C436 0.960 . S
C424 H416 0.929 . S
C424 C425 1.377 . S
C424 C426 1.384 . S
C425 C424 1.377 . S
C425 C431 1.390 . S
C426 H417 0.930 . S
C426 C424 1.384 . S
C426 C427 1.372 . S
C427 C426 1.372 . S
C427 C428 1.400 . S
C427 C432 1.490 . S
C428 H418 0.930 . S
C428 C427 1.400 . S
C428 C431 1.386 . S
H429 C445 0.930 . S
H430 C446 0.931 . S
C431 H419 0.929 . S
C431 C425 1.390 . S
C431 C428 1.386 . S
C432 C427 1.490 . S
C432 C434 1.395 . S
C432 C435 1.403 . S
H433 C439 0.930 . S
C434 H420 0.930 . S
C434 C432 1.395 . S
C434 C437 1.403 . S
C435 C432 1.403 . S
C435 C436 1.524 . S
C435 C439 1.400 1_545 S
C436 H421 0.960 . S
C436 H422 0.960 . S
C436 H423 0.960 . S
C436 C435 1.524 . S
C437 C434 1.403 . S
C437 C438 1.392 1_545 S
C437 C441 1.495 1_545 S
C438 C437 1.392 1_565 S
C438 C439 1.385 . S
C438 C440 1.478 . S
C439 H433 0.930 . S
C439 C435 1.400 1_565 S
C439 C438 1.385 . S
C440 C438 1.478 . S
C440 C442 1.381 . S
C440 C446 1.383 . S
C441 C437 1.495 1_565 S
C441 H447 0.959 1_565 S
C441 H448 0.961 . S
C441 H449 0.960 . S
C442 C440 1.381 . S
C442 C443 1.394 . S
C442 H450 0.930 . S
C443 C442 1.394 . S
C443 C444 1.383 . S
C443 H451 0.929 . S
C444 C443 1.383 . S
C444 C445 1.377 . S
C445 H429 0.930 . S
C445 C444 1.377 . S
C445 C446 1.379 . S
C446 H430 0.931 . S
C446 C440 1.383 . S
C446 C445 1.379 . S
H447 C441 0.959 1_545 S
H448 C441 0.961 . S
H449 C441 0.960 . S
H450 C442 0.930 . S
H451 C443 0.929 . S
H452 C460 0.929 . S
H453 C462 0.930 . S
H454 C464 0.930 . S
H455 C467 0.929 . S
H456 C470 0.930 . S
H457 C472 0.960 . S
H458 C472 0.960 . S
H459 C472 0.960 . S
C460 H452 0.929 . S
C460 C461 1.377 . S
C460 C462 1.384 . S
C461 C460 1.377 . S
C461 C467 1.390 . S
C462 H453 0.930 . S
C462 C460 1.384 . S
C462 C463 1.372 . S
C463 C462 1.372 . S
C463 C464 1.400 . S
C463 C468 1.490 . S
C464 H454 0.930 . S
C464 C463 1.400 . S
C464 C467 1.386 . S
H465 C481 0.930 . S
H466 C482 0.931 . S
C467 H455 0.929 . S
C467 C461 1.390 . S
C467 C464 1.386 . S
C468 C463 1.490 . S
C468 C470 1.395 . S
C468 C471 1.403 . S
H469 C475 0.930 . S
C470 H456 0.930 . S
C470 C468 1.395 . S
C470 C473 1.403 . S
C471 C468 1.403 . S
C471 C472 1.524 . S
C471 C475 1.400 . S
C472 H457 0.960 . S
C472 H458 0.960 . S
C472 H459 0.960 . S
C472 C471 1.524 . S
C473 C470 1.403 . S
C473 C474 1.392 . S
C473 C477 1.495 . S
C474 C473 1.392 . S
C474 C475 1.385 . S
C474 C476 1.478 . S
C475 H469 0.930 . S
C475 C471 1.400 . S
C475 C474 1.385 . S
C476 C474 1.478 . S
C476 C478 1.381 . S
C476 C482 1.383 . S
C477 C473 1.495 . S
C477 H483 0.959 . S
C477 H484 0.961 . S
C477 H485 0.960 . S
C478 C476 1.381 . S
C478 C479 1.394 . S
C478 H486 0.930 . S
C479 C478 1.394 . S
C479 C480 1.383 . S
C479 H487 0.929 . S
C480 C479 1.383 . S
C480 C481 1.377 . S
C481 H465 0.930 . S
C481 C480 1.377 . S
C481 C482 1.379 . S
C482 H466 0.931 . S
C482 C476 1.383 . S
C482 C481 1.379 . S
H483 C477 0.959 . S
H484 C477 0.961 . S
H485 C477 0.960 . S
H486 C478 0.930 . S
H487 C479 0.929 . S
H488 C496 0.929 . S
H489 C498 0.930 . S
H490 C500 0.930 . S
H491 C503 0.929 . S
H492 C506 0.930 . S
H493 C508 0.960 . S
H494 C508 0.960 . S
H495 C508 0.960 . S
C496 H488 0.929 . S
C496 C497 1.377 . S
C496 C498 1.384 . S
C497 C496 1.377 . S
C497 C503 1.390 . S
C498 H489 0.930 . S
C498 C496 1.384 . S
C498 C499 1.372 . S
C499 C498 1.372 . S
C499 C500 1.400 . S
C499 C504 1.490 . S
C500 H490 0.930 . S
C500 C499 1.400 . S
C500 C503 1.386 . S
H501 C517 0.930 . S
H502 C518 0.931 . S
C503 H491 0.929 . S
C503 C497 1.390 . S
C503 C500 1.386 . S
C504 C499 1.490 . S
C504 C506 1.395 . S
C504 C507 1.403 . S
H505 C511 0.930 . S
C506 H492 0.930 . S
C506 C504 1.395 . S
C506 C509 1.403 . S
C507 C504 1.403 . S
C507 C508 1.524 . S
C507 C511 1.400 . S
C508 H493 0.960 . S
C508 H494 0.960 . S
C508 H495 0.960 . S
C508 C507 1.524 . S
C509 C506 1.403 . S
C509 C510 1.392 . S
C509 C513 1.495 . S
C510 C509 1.392 . S
C510 C511 1.385 . S
C510 C512 1.478 . S
C511 H505 0.930 . S
C511 C507 1.400 . S
C511 C510 1.385 . S
C512 C510 1.478 . S
C512 C514 1.381 . S
C512 C518 1.383 . S
C513 C509 1.495 . S
C513 H519 0.959 . S
C513 H520 0.961 . S
C513 H521 0.960 . S
C514 C512 1.381 . S
C514 C515 1.394 . S
C514 H522 0.930 . S
C515 C514 1.394 . S
C515 C516 1.383 . S
C515 H523 0.929 . S
C516 C515 1.383 . S
C516 C517 1.377 . S
C517 H501 0.930 . S
C517 C516 1.377 . S
C517 C518 1.379 . S
C518 H502 0.931 . S
C518 C512 1.383 . S
C518 C517 1.379 . S
H519 C513 0.959 . S
H520 C513 0.961 . S
H521 C513 0.960 . S
H522 C514 0.930 . S
H523 C515 0.929 . S
H524 C532 0.929 . S
H525 C534 0.930 . S
H526 C536 0.930 1_554 S
H527 C539 0.929 1_554 S
H528 C542 0.930 . S
H529 C544 0.960 . S
H530 C544 0.960 . S
H531 C544 0.960 . S
C532 H524 0.929 . S
C532 C533 1.377 . S
C532 C534 1.384 . S
C533 C532 1.377 . S
C533 C539 1.390 . S
C534 H525 0.930 . S
C534 C532 1.384 . S
C534 C535 1.372 . S
C535 C534 1.372 . S
C535 C536 1.400 . S
C535 C540 1.490 1_655 S
C536 H526 0.930 1_556 S
C536 C535 1.400 . S
C536 C539 1.386 . S
H537 C553 0.930 . S
H538 C554 0.931 . S
C539 H527 0.929 1_556 S
C539 C533 1.390 . S
C539 C536 1.386 . S
C540 C535 1.490 1_455 S
C540 C542 1.395 . S
C540 C543 1.403 . S
H541 C547 0.930 . S
C542 H528 0.930 . S
C542 C540 1.395 . S
C542 C545 1.403 . S
C543 C540 1.403 . S
C543 C544 1.524 1_556 S
C543 C547 1.400 . S
C544 H529 0.960 . S
C544 H530 0.960 . S
C544 H531 0.960 . S
C544 C543 1.524 1_554 S
C545 C542 1.403 . S
C545 C546 1.392 . S
C545 C549 1.495 . S
C546 C545 1.392 . S
C546 C547 1.385 . S
C546 C548 1.478 . S
C547 H541 0.930 . S
C547 C543 1.400 . S
C547 C546 1.385 . S
C548 C546 1.478 . S
C548 C550 1.381 . S
C548 C554 1.383 . S
C549 C545 1.495 . S
C549 H555 0.959 . S
C549 H556 0.961 . S
C549 H557 0.960 . S
C550 C548 1.381 . S
C550 C551 1.394 . S
C550 H558 0.930 . S
C551 C550 1.394 . S
C551 C552 1.383 . S
C551 H559 0.929 . S
C552 C551 1.383 . S
C552 C553 1.377 . S
C553 H537 0.930 . S
C553 C552 1.377 . S
C553 C554 1.379 . S
C554 H538 0.931 . S
C554 C548 1.383 . S
C554 C553 1.379 . S
H555 C549 0.959 . S
H556 C549 0.961 . S
H557 C549 0.960 . S
H558 C550 0.930 . S
H559 C551 0.929 . S
H560 C568 0.929 . S
H561 C570 0.930 . S
H562 C572 0.930 . S
H563 C575 0.929 . S
H564 C578 0.930 . S
H565 C580 0.960 . S
H566 C580 0.960 . S
H567 C580 0.960 . S
C568 H560 0.929 . S
C568 C569 1.377 . S
C568 C570 1.384 . S
C569 C568 1.377 . S
C569 C575 1.390 . S
C570 H561 0.930 . S
C570 C568 1.384 . S
C570 C571 1.372 . S
C571 C570 1.372 . S
C571 C572 1.400 . S
C571 C576 1.490 . S
C572 H562 0.930 . S
C572 C571 1.400 . S
C572 C575 1.386 . S
H573 C589 0.930 . S
H574 C590 0.931 . S
C575 H563 0.929 . S
C575 C569 1.390 . S
C575 C572 1.386 . S
C576 C571 1.490 . S
C576 C578 1.395 . S
C576 C579 1.403 . S
H577 C583 0.930 . S
C578 H564 0.930 . S
C578 C576 1.395 . S
C578 C581 1.403 . S
C579 C576 1.403 . S
C579 C580 1.524 . S
C579 C583 1.400 . S
C580 H565 0.960 . S
C580 H566 0.960 . S
C580 H567 0.960 . S
C580 C579 1.524 . S
C581 C578 1.403 . S
C581 C582 1.392 . S
C581 C585 1.495 . S
C582 C581 1.392 . S
C582 C583 1.385 . S
C582 C584 1.478 . S
C583 H577 0.930 . S
C583 C579 1.400 . S
C583 C582 1.385 . S
C584 C582 1.478 . S
C584 C586 1.381 . S
C584 C590 1.383 . S
C585 C581 1.495 . S
C585 H591 0.959 . S
C585 H592 0.961 . S
C585 H593 0.960 . S
C586 C584 1.381 . S
C586 C587 1.394 . S
C586 H594 0.930 . S
C587 C586 1.394 . S
C587 C588 1.383 . S
C587 H595 0.929 . S
C588 C587 1.383 . S
C588 C589 1.377 . S
C589 H573 0.930 . S
C589 C588 1.377 . S
C589 C590 1.379 . S
C590 H574 0.931 . S
C590 C584 1.383 . S
C590 C589 1.379 . S
H591 C585 0.959 . S
H592 C585 0.961 . S
H593 C585 0.960 . S
H594 C586 0.930 . S
H595 C587 0.929 . S
H596 C604 0.929 . S
H597 C606 0.930 . S
H598 C608 0.930 . S
H599 C611 0.929 . S
H600 C614 0.930 . S
H601 C616 0.960 . S
H602 C616 0.960 . S
H603 C616 0.960 . S
C604 H596 0.929 . S
C604 C605 1.377 . S
C604 C606 1.384 . S
C605 C604 1.377 . S
C605 C611 1.390 . S
C606 H597 0.930 . S
C606 C604 1.384 . S
C606 C607 1.372 . S
C607 C606 1.372 . S
C607 C608 1.400 . S
C607 C612 1.490 . S
C608 H598 0.930 . S
C608 C607 1.400 . S
C608 C611 1.386 . S
H609 C625 0.930 . S
H610 C626 0.931 . S
C611 H599 0.929 . S
C611 C605 1.390 . S
C611 C608 1.386 . S
C612 C607 1.490 . S
C612 C614 1.395 . S
C612 C615 1.403 . S
H613 C619 0.930 . S
C614 H600 0.930 . S
C614 C612 1.395 . S
C614 C617 1.403 . S
C615 C612 1.403 . S
C615 C616 1.524 . S
C615 C619 1.400 . S
C616 H601 0.960 . S
C616 H602 0.960 . S
C616 H603 0.960 . S
C616 C615 1.524 . S
C617 C614 1.403 . S
C617 C618 1.392 . S
C617 C621 1.495 1_455 S
C618 C617 1.392 . S
C618 C619 1.385 . S
C618 C620 1.478 . S
C619 H613 0.930 . S
C619 C615 1.400 . S
C619 C618 1.385 . S
C620 C618 1.478 . S
C620 C622 1.381 . S
C620 C626 1.383 . S
C621 C617 1.495 1_655 S
C621 H627 0.959 . S
C621 H628 0.961 . S
C621 H629 0.960 . S
C622 C620 1.381 . S
C622 C623 1.394 1_455 S
C622 H630 0.930 . S
C623 C622 1.394 1_655 S
C623 C624 1.383 . S
C623 H631 0.929 . S
C624 C623 1.383 . S
C624 C625 1.377 1_655 S
C625 H609 0.930 . S
C625 C624 1.377 1_455 S
C625 C626 1.379 . S
C626 H610 0.931 . S
C626 C620 1.383 . S
C626 C625 1.379 . S
H627 C621 0.959 . S
H628 C621 0.961 . S
H629 C621 0.960 . S
H630 C622 0.930 . S
H631 C623 0.929 . S
H632 C640 0.929 . S
H633 C642 0.930 . S
H634 C644 0.930 . S
H635 C647 0.929 . S
H636 C650 0.930 . S
H637 C652 0.960 . S
H638 C652 0.960 . S
H639 C652 0.960 . S
C640 H632 0.929 . S
C640 C641 1.377 . S
C640 C642 1.384 . S
C641 C640 1.377 . S
C641 C647 1.390 . S
C642 H633 0.930 . S
C642 C640 1.384 . S
C642 C643 1.372 . S
C643 C642 1.372 . S
C643 C644 1.400 . S
C643 C648 1.490 . S
C644 H634 0.930 . S
C644 C643 1.400 . S
C644 C647 1.386 . S
H645 C661 0.930 . S
H646 C662 0.931 1_545 S
C647 H635 0.929 . S
C647 C641 1.390 . S
C647 C644 1.386 . S
C648 C643 1.490 . S
C648 C650 1.395 . S
C648 C651 1.403 . S
H649 C655 0.930 . S
C650 H636 0.930 . S
C650 C648 1.395 . S
C650 C653 1.403 . S
C651 C648 1.403 . S
C651 C652 1.524 . S
C651 C655 1.400 . S
C652 H637 0.960 . S
C652 H638 0.960 . S
C652 H639 0.960 . S
C652 C651 1.524 . S
C653 C650 1.403 . S
C653 C654 1.392 . S
C653 C657 1.495 . S
C654 C653 1.392 . S
C654 C655 1.385 . S
C654 C656 1.478 1_545 S
C655 H649 0.930 . S
C655 C651 1.400 . S
C655 C654 1.385 . S
C656 C654 1.478 1_565 S
C656 C658 1.381 . S
C656 C662 1.383 . S
C657 C653 1.495 . S
C657 H663 0.959 . S
C657 H664 0.961 . S
C657 H665 0.960 . S
C658 C656 1.381 . S
C658 C659 1.394 . S
C658 H666 0.930 . S
C659 C658 1.394 . S
C659 C660 1.383 . S
C659 H667 0.929 . S
C660 C659 1.383 . S
C660 C661 1.377 . S
C661 H645 0.930 . S
C661 C660 1.377 . S
C661 C662 1.379 . S
C662 H646 0.931 1_565 S
C662 C656 1.383 . S
C662 C661 1.379 . S
H663 C657 0.959 . S
H664 C657 0.961 . S
H665 C657 0.960 . S
H666 C658 0.930 . S
H667 C659 0.929 . S
H668 C676 0.929 . S
H669 C678 0.930 . S
H670 C680 0.930 . S
H671 C683 0.929 . S
H672 C686 0.930 . S
H673 C688 0.960 . S
H674 C688 0.960 . S
H675 C688 0.960 . S
C676 H668 0.929 . S
C676 C677 1.377 . S
C676 C678 1.384 . S
C677 C676 1.377 . S
C677 C683 1.390 . S
C678 H669 0.930 . S
C678 C676 1.384 . S
C678 C679 1.372 . S
C679 C678 1.372 . S
C679 C680 1.400 . S
C679 C684 1.490 . S
C680 H670 0.930 . S
C680 C679 1.400 . S
C680 C683 1.386 . S
H681 C697 0.930 . S
H682 C698 0.931 . S
C683 H671 0.929 . S
C683 C677 1.390 . S
C683 C680 1.386 . S
C684 C679 1.490 . S
C684 C686 1.395 . S
C684 C687 1.403 . S
H685 C691 0.930 . S
C686 H672 0.930 . S
C686 C684 1.395 . S
C686 C689 1.403 . S
C687 C684 1.403 . S
C687 C688 1.524 . S
C687 C691 1.400 . S
C688 H673 0.960 . S
C688 H674 0.960 . S
C688 H675 0.960 . S
C688 C687 1.524 . S
C689 C686 1.403 . S
C689 C690 1.392 . S
C689 C693 1.495 . S
C690 C689 1.392 . S
C690 C691 1.385 . S
C690 C692 1.478 . S
C691 H685 0.930 . S
C691 C687 1.400 . S
C691 C690 1.385 . S
C692 C690 1.478 . S
C692 C694 1.381 . S
C692 C698 1.383 . S
C693 C689 1.495 . S
C693 H699 0.959 . S
C693 H700 0.961 . S
C693 H701 0.960 . S
C694 C692 1.381 . S
C694 C695 1.394 . S
C694 H702 0.930 . S
C695 C694 1.394 . S
C695 C696 1.383 . S
C695 H703 0.929 . S
C696 C695 1.383 . S
C696 C697 1.377 . S
C697 H681 0.930 . S
C697 C696 1.377 . S
C697 C698 1.379 . S
C698 H682 0.931 . S
C698 C692 1.383 . S
C698 C697 1.379 . S
H699 C693 0.959 . S
H700 C693 0.961 . S
H701 C693 0.960 . S
H702 C694 0.930 . S
H703 C695 0.929 . S
H704 C712 0.929 . S
H705 C714 0.920 1_556 S
H706 C716 0.930 . S
H707 C719 0.929 . S
H708 C722 0.930 . S
H709 C724 0.960 1_545 S
H710 C724 0.960 . S
H711 C724 0.960 . S
C712 H704 0.929 . S
C712 C713 1.377 . S
C712 C714 1.392 . S
C713 C712 1.377 . S
C713 C719 1.390 . S
C714 H705 0.920 1_554 S
C714 C712 1.392 . S
C714 C715 1.374 . S
C715 C714 1.374 . S
C715 C716 1.400 . S
C715 C720 1.490 1_554 S
C716 H706 0.930 . S
C716 C715 1.400 . S
C716 C719 1.386 . S
H717 C733 0.930 . S
H718 C734 0.931 . S
C719 H707 0.929 . S
C719 C713 1.390 . S
C719 C716 1.386 . S
C720 C715 1.490 1_556 S
C720 C722 1.395 . S
C720 C723 1.403 1_556 S
H721 C727 0.930 . S
C722 H708 0.930 . S
C722 C720 1.395 . S
C722 C725 1.403 . S
C723 C720 1.403 1_554 S
C723 C724 1.524 . S
C723 C727 1.400 1_565 S
C724 H709 0.960 1_565 S
C724 H710 0.960 . S
C724 H711 0.960 . S
C724 C723 1.524 . S
C725 C722 1.403 . S
C725 C726 1.392 1_565 S
C725 C729 1.495 . S
C726 C725 1.392 1_545 S
C726 C727 1.385 1_556 S
C726 C728 1.478 . S
C727 H721 0.930 . S
C727 C723 1.400 1_545 S
C727 C726 1.385 1_554 S
C728 C726 1.478 . S
C728 C730 1.381 . S
C728 C734 1.383 . S
C729 C725 1.495 . S
C729 H735 0.959 . S
C729 H736 0.961 1_565 S
C729 H737 0.960 . S
C730 C728 1.381 . S
C730 C731 1.394 . S
C730 H738 0.930 . S
C731 C730 1.394 . S
C731 C732 1.383 . S
C731 H739 0.929 . S
C732 C731 1.383 . S
C732 C733 1.377 . S
C733 H717 0.930 . S
C733 C732 1.377 . S
C733 C734 1.379 . S
C734 H718 0.931 . S
C734 C728 1.383 . S
C734 C733 1.379 . S
H735 C729 0.959 . S
H736 C729 0.961 1_545 S
H737 C729 0.960 . S
H738 C730 0.930 . S
H739 C731 0.929 . S
H740 C748 0.929 . S
H741 C750 0.930 . S
H742 C752 0.930 . S
H743 C755 0.929 . S
H744 C758 0.930 . S
H745 C760 0.960 . S
H746 C760 0.960 . S
H747 C760 0.960 . S
C748 H740 0.929 . S
C748 C749 1.377 . S
C748 C750 1.384 . S
C749 C748 1.377 . S
C749 C755 1.390 . S
C750 H741 0.930 . S
C750 C748 1.384 . S
C750 C751 1.372 . S
C751 C750 1.372 . S
C751 C752 1.400 . S
C751 C756 1.490 . S
C752 H742 0.930 . S
C752 C751 1.400 . S
C752 C755 1.386 . S
H753 C769 0.930 . S
H754 C770 0.931 . S
C755 H743 0.929 . S
C755 C749 1.390 . S
C755 C752 1.386 . S
C756 C751 1.490 . S
C756 C758 1.395 . S
C756 C759 1.403 . S
H757 C763 0.930 . S
C758 H744 0.930 . S
C758 C756 1.395 . S
C758 C761 1.403 . S
C759 C756 1.403 . S
C759 C760 1.524 . S
C759 C763 1.400 . S
C760 H745 0.960 . S
C760 H746 0.960 . S
C760 H747 0.960 . S
C760 C759 1.524 . S
C761 C758 1.403 . S
C761 C762 1.392 . S
C761 C765 1.495 . S
C762 C761 1.392 . S
C762 C763 1.385 . S
C762 C764 1.478 . S
C763 H757 0.930 . S
C763 C759 1.400 . S
C763 C762 1.385 . S
C764 C762 1.478 . S
C764 C766 1.381 . S
C764 C770 1.383 . S
C765 C761 1.495 . S
C765 H771 0.959 . S
C765 H772 0.961 . S
C765 H773 0.960 . S
C766 C764 1.381 . S
C766 C767 1.394 . S
C766 H774 0.930 . S
C767 C766 1.394 . S
C767 C768 1.383 . S
C767 H775 0.929 . S
C768 C767 1.383 . S
C768 C769 1.377 . S
C769 H753 0.930 . S
C769 C768 1.377 . S
C769 C770 1.379 . S
C770 H754 0.931 . S
C770 C764 1.383 . S
C770 C769 1.379 . S
H771 C765 0.959 . S
H772 C765 0.961 . S
H773 C765 0.960 . S
H774 C766 0.930 . S
H775 C767 0.929 . S
H776 C784 0.929 . S
H777 C786 0.930 . S
H778 C788 0.930 . S
H779 C791 0.929 . S
H780 C794 0.930 . S
H781 C796 0.960 . S
H782 C796 0.960 . S
H783 C796 0.960 . S
C784 H776 0.929 . S
C784 C785 1.377 . S
C784 C786 1.384 . S
C785 C784 1.377 . S
C785 C791 1.390 . S
C786 H777 0.930 . S
C786 C784 1.384 . S
C786 C787 1.372 . S
C787 C786 1.372 . S
C787 C788 1.400 . S
C787 C792 1.490 . S
C788 H778 0.930 . S
C788 C787 1.400 . S
C788 C791 1.386 . S
H789 C805 0.930 . S
H790 C806 0.931 . S
C791 H779 0.929 . S
C791 C785 1.390 . S
C791 C788 1.386 . S
C792 C787 1.490 . S
C792 C794 1.395 . S
C792 C795 1.403 . S
H793 C799 0.930 . S
C794 H780 0.930 . S
C794 C792 1.395 . S
C794 C797 1.403 . S
C795 C792 1.403 . S
C795 C796 1.524 . S
C795 C799 1.400 . S
C796 H781 0.960 . S
C796 H782 0.960 . S
C796 H783 0.960 . S
C796 C795 1.524 . S
C797 C794 1.403 . S
C797 C798 1.392 . S
C797 C801 1.495 . S
C798 C797 1.392 . S
C798 C799 1.385 . S
C798 C800 1.478 . S
C799 H793 0.930 . S
C799 C795 1.400 . S
C799 C798 1.385 . S
C800 C798 1.478 . S
C800 C802 1.381 . S
C800 C806 1.383 . S
C801 C797 1.495 . S
C801 H807 0.959 . S
C801 H808 0.961 . S
C801 H809 0.960 . S
C802 C800 1.381 . S
C802 C803 1.394 . S
C802 H810 0.930 . S
C803 C802 1.394 . S
C803 C804 1.383 . S
C803 H811 0.929 . S
C804 C803 1.383 . S
C804 C805 1.377 . S
C805 H789 0.930 . S
C805 C804 1.377 . S
C805 C806 1.379 . S
C806 H790 0.931 . S
C806 C800 1.383 . S
C806 C805 1.379 . S
H807 C801 0.959 . S
H808 C801 0.961 . S
H809 C801 0.960 . S
H810 C802 0.930 . S
H811 C803 0.929 . S
H812 C820 0.929 . S
H813 C822 0.930 . S
H814 C824 0.930 . S
H815 C827 0.929 . S
H816 C830 0.930 . S
H817 C832 0.960 . S
H818 C832 0.960 . S
H819 C832 0.960 . S
C820 H812 0.929 . S
C820 C821 1.377 . S
C820 C822 1.384 . S
C821 C820 1.377 . S
C821 C827 1.390 . S
C822 H813 0.930 . S
C822 C820 1.384 . S
C822 C823 1.372 . S
C823 C822 1.372 . S
C823 C824 1.400 . S
C823 C828 1.490 1_455 S
C824 H814 0.930 . S
C824 C823 1.400 . S
C824 C827 1.386 . S
H825 C841 0.930 . S
H826 C842 0.931 . S
C827 H815 0.929 . S
C827 C821 1.390 . S
C827 C824 1.386 . S
C828 C823 1.490 1_655 S
C828 C830 1.395 . S
C828 C831 1.403 . S
H829 C835 0.930 . S
C830 H816 0.930 . S
C830 C828 1.395 . S
C830 C833 1.403 . S
C831 C828 1.403 . S
C831 C832 1.524 . S
C831 C835 1.400 . S
C832 H817 0.960 . S
C832 H818 0.960 . S
C832 H819 0.960 . S
C832 C831 1.524 . S
C833 C830 1.403 . S
C833 C834 1.392 . S
C833 C837 1.495 . S
C834 C833 1.392 . S
C834 C835 1.385 . S
C834 C836 1.478 . S
C835 H829 0.930 . S
C835 C831 1.400 . S
C835 C834 1.385 . S
C836 C834 1.478 . S
C836 C838 1.381 . S
C836 C842 1.383 . S
C837 C833 1.495 . S
C837 H843 0.959 . S
C837 H844 0.961 . S
C837 H845 0.960 . S
C838 C836 1.381 . S
C838 C839 1.394 . S
C838 H846 0.930 . S
C839 C838 1.394 . S
C839 C840 1.383 . S
C839 H847 0.929 . S
C840 C839 1.383 . S
C840 C841 1.377 . S
C841 H825 0.930 . S
C841 C840 1.377 . S
C841 C842 1.379 . S
C842 H826 0.931 . S
C842 C836 1.383 . S
C842 C841 1.379 . S
H843 C837 0.959 . S
H844 C837 0.961 . S
H845 C837 0.960 . S
H846 C838 0.930 . S
H847 C839 0.929 . S
H848 C856 0.929 . S
H849 C858 0.930 . S
H850 C860 0.930 . S
H851 C863 0.929 . S
H852 C866 0.930 . S
H853 C868 0.960 . S
H854 C868 0.960 . S
H855 C868 0.960 . S
C856 H848 0.929 . S
C856 C857 1.377 . S
C856 C858 1.384 . S
C857 C856 1.377 . S
C857 C863 1.390 . S
C858 H849 0.930 . S
C858 C856 1.384 . S
C858 C859 1.372 . S
C859 C858 1.372 . S
C859 C860 1.400 . S
C859 C864 1.490 . S
C860 H850 0.930 . S
C860 C859 1.400 . S
C860 C863 1.386 . S
H861 C877 0.930 . S
H862 C878 0.931 . S
C863 H851 0.929 . S
C863 C857 1.390 . S
C863 C860 1.386 . S
C864 C859 1.490 . S
C864 C866 1.395 . S
C864 C867 1.403 . S
H865 C871 0.930 . S
C866 H852 0.930 . S
C866 C864 1.395 . S
C866 C869 1.403 . S
C867 C864 1.403 . S
C867 C868 1.524 . S
C867 C871 1.400 . S
C868 H853 0.960 . S
C868 H854 0.960 . S
C868 H855 0.960 . S
C868 C867 1.524 . S
C869 C866 1.403 . S
C869 C870 1.392 . S
C869 C873 1.495 . S
C870 C869 1.392 . S
C870 C871 1.385 . S
C870 C872 1.478 . S
C871 H865 0.930 . S
C871 C867 1.400 . S
C871 C870 1.385 . S
C872 C870 1.478 . S
C872 C874 1.381 . S
C872 C878 1.383 . S
C873 C869 1.495 . S
C873 H879 0.959 . S
C873 H880 0.961 . S
C873 H881 0.960 . S
C874 C872 1.381 . S
C874 C875 1.394 . S
C874 H882 0.930 . S
C875 C874 1.394 . S
C875 C876 1.383 . S
C875 H883 0.929 . S
C876 C875 1.383 . S
C876 C877 1.377 . S
C877 H861 0.930 . S
C877 C876 1.377 . S
C877 C878 1.379 . S
C878 H862 0.931 . S
C878 C872 1.383 . S
C878 C877 1.379 . S
H879 C873 0.959 . S
H880 C873 0.961 . S
H881 C873 0.960 . S
H882 C874 0.930 . S
H883 C875 0.929 . S
H884 C892 0.929 . S
H885 C894 0.930 . S
H886 C896 0.930 . S
H887 C899 0.929 . S
H888 C902 0.930 . S
H889 C904 0.960 . S
H890 C904 0.960 . S
H891 C904 0.960 . S
C892 H884 0.929 . S
C892 C893 1.377 . S
C892 C894 1.384 . S
C893 C892 1.377 . S
C893 C899 1.390 . S
C894 H885 0.930 . S
C894 C892 1.384 . S
C894 C895 1.372 . S
C895 C894 1.372 . S
C895 C896 1.400 . S
C895 C900 1.490 . S
C896 H886 0.930 . S
C896 C895 1.400 . S
C896 C899 1.386 . S
H897 C913 0.930 . S
H898 C914 0.931 . S
C899 H887 0.929 . S
C899 C893 1.390 . S
C899 C896 1.386 . S
C900 C895 1.490 . S
C900 C902 1.395 . S
C900 C903 1.403 . S
H901 C907 0.930 . S
C902 H888 0.930 . S
C902 C900 1.395 . S
C902 C905 1.403 . S
C903 C900 1.403 . S
C903 C904 1.524 . S
C903 C907 1.400 . S
C904 H889 0.960 . S
C904 H890 0.960 . S
C904 H891 0.960 . S
C904 C903 1.524 . S
C905 C902 1.403 . S
C905 C906 1.392 . S
C905 C909 1.495 . S
C906 C905 1.392 . S
C906 C907 1.385 . S
C906 C908 1.478 . S
C907 H901 0.930 . S
C907 C903 1.400 . S
C907 C906 1.385 . S
C908 C906 1.478 . S
C908 C910 1.381 . S
C908 C914 1.383 . S
C909 C905 1.495 . S
C909 H915 0.959 . S
C909 H916 0.961 . S
C909 H917 0.960 . S
C910 C908 1.381 . S
C910 C911 1.394 1_655 S
C910 H918 0.930 1_655 S
C911 C910 1.394 1_455 S
C911 C912 1.369 1_455 S
C911 H919 0.929 . S
C912 C911 1.369 1_655 S
C912 C913 1.407 . S
C913 H897 0.930 . S
C913 C912 1.407 . S
C913 C914 1.379 . S
C914 H898 0.931 . S
C914 C908 1.383 . S
C914 C913 1.379 . S
H915 C909 0.959 . S
H916 C909 0.961 . S
H917 C909 0.960 . S
H918 C910 0.930 1_455 S
H919 C911 0.929 . S
H920 C928 0.929 . S
H921 C930 0.930 . S
H922 C932 0.930 . S
H923 C935 0.929 . S
H924 C938 0.930 . S
H925 C940 0.960 . S
H926 C940 0.960 . S
H927 C940 0.960 . S
C928 H920 0.929 . S
C928 C929 1.377 . S
C928 C930 1.384 . S
C929 C928 1.377 . S
C929 C935 1.390 . S
C930 H921 0.930 . S
C930 C928 1.384 . S
C930 C931 1.372 . S
C931 C930 1.372 . S
C931 C932 1.400 . S
C931 C936 1.490 . S
C932 H922 0.930 . S
C932 C931 1.400 . S
C932 C935 1.386 . S
H933 C949 0.930 . S
H934 C950 0.931 . S
C935 H923 0.929 . S
C935 C929 1.390 . S
C935 C932 1.386 . S
C936 C931 1.490 . S
C936 C938 1.395 . S
C936 C939 1.403 . S
H937 C943 0.930 . S
C938 H924 0.930 . S
C938 C936 1.395 . S
C938 C941 1.403 . S
C939 C936 1.403 . S
C939 C940 1.524 . S
C939 C943 1.400 . S
C940 H925 0.960 . S
C940 H926 0.960 . S
C940 H927 0.960 . S
C940 C939 1.524 . S
C941 C938 1.403 . S
C941 C942 1.392 . S
C941 C945 1.495 . S
C942 C941 1.392 . S
C942 C943 1.385 . S
C942 C944 1.478 . S
C943 H937 0.930 . S
C943 C939 1.400 . S
C943 C942 1.385 . S
C944 C942 1.478 . S
C944 C946 1.381 . S
C944 C950 1.383 . S
C945 C941 1.495 . S
C945 H951 0.959 . S
C945 H952 0.961 . S
C945 H953 0.960 . S
C946 C944 1.381 . S
C946 C947 1.394 . S
C946 H954 0.930 . S
C947 C946 1.394 . S
C947 C948 1.383 . S
C947 H955 0.929 . S
C948 C947 1.383 . S
C948 C949 1.377 . S
C949 H933 0.930 . S
C949 C948 1.377 . S
C949 C950 1.379 . S
C950 H934 0.931 . S
C950 C944 1.383 . S
C950 C949 1.379 . S
H951 C945 0.959 . S
H952 C945 0.961 . S
H953 C945 0.960 . S
H954 C946 0.930 . S
H955 C947 0.929 . S
H956 C964 0.929 . S
H957 C966 0.930 . S
H958 C968 0.930 . S
H959 C971 0.929 . S
H960 C974 0.930 . S
H961 C976 0.960 . S
H962 C976 0.960 . S
H963 C976 0.960 . S
C964 H956 0.929 . S
C964 C965 1.377 . S
C964 C966 1.384 . S
C965 C964 1.377 . S
C965 C971 1.390 . S
C966 H957 0.930 . S
C966 C964 1.384 . S
C966 C967 1.372 . S
C967 C966 1.372 . S
C967 C968 1.400 . S
C967 C972 1.490 . S
C968 H958 0.930 . S
C968 C967 1.400 . S
C968 C971 1.386 . S
H969 C985 0.930 . S
H970 C986 0.931 . S
C971 H959 0.929 . S
C971 C965 1.390 . S
C971 C968 1.386 . S
C972 C967 1.490 . S
C972 C974 1.395 . S
C972 C975 1.403 . S
H973 C979 0.930 . S
C974 H960 0.930 . S
C974 C972 1.395 . S
C974 C977 1.403 . S
C975 C972 1.403 . S
C975 C976 1.524 . S
C975 C979 1.400 . S
C976 H961 0.960 . S
C976 H962 0.960 . S
C976 H963 0.960 . S
C976 C975 1.524 . S
C977 C974 1.403 . S
C977 C978 1.392 . S
C977 C981 1.495 . S
C978 C977 1.392 . S
C978 C979 1.385 . S
C978 C980 1.478 . S
C979 H973 0.930 . S
C979 C975 1.400 . S
C979 C978 1.385 . S
C980 C978 1.478 . S
C980 C982 1.381 . S
C980 C986 1.383 . S
C981 C977 1.495 . S
C981 H987 0.959 . S
C981 H988 0.961 . S
C981 H989 0.960 . S
C982 C980 1.381 . S
C982 C983 1.394 . S
C982 H990 0.930 . S
C983 C982 1.394 . S
C983 C984 1.383 . S
C983 H991 0.929 . S
C984 C983 1.383 . S
C984 C985 1.377 . S
C985 H969 0.930 . S
C985 C984 1.377 . S
C985 C986 1.379 . S
C986 H970 0.931 . S
C986 C980 1.383 . S
C986 C985 1.379 . S
H987 C981 0.959 . S
H988 C981 0.961 . S
H989 C981 0.960 . S
H990 C982 0.930 . S
H991 C983 0.929 . S
H992 C1000 0.929 . S
H993 C1002 0.930 . S
H994 C1004 0.930 . S
H995 C1007 0.929 . S
H996 C1010 0.930 . S
H997 C1012 0.960 . S
H998 C1012 0.960 . S
H999 C1012 0.960 . S
C1000 H992 0.929 . S
C1000 C1001 1.377 . S
C1000 C1002 1.384 . S
C1001 C1000 1.377 . S
C1001 C1007 1.390 . S
C1002 H993 0.930 . S
C1002 C1000 1.384 . S
C1002 C1003 1.372 . S
C1003 C1002 1.372 . S
C1003 C1004 1.400 . S
C1003 C1008 1.490 . S
C1004 H994 0.930 . S
C1004 C1003 1.400 . S
C1004 C1007 1.386 . S
H1005 C1021 0.930 . S
H1006 C1022 0.931 . S
C1007 H995 0.929 . S
C1007 C1001 1.390 . S
C1007 C1004 1.386 . S
C1008 C1003 1.490 . S
C1008 C1010 1.395 . S
C1008 C1011 1.403 . S
H1009 C1015 0.930 . S
C1010 H996 0.930 . S
C1010 C1008 1.395 . S
C1010 C1013 1.403 . S
C1011 C1008 1.403 . S
C1011 C1012 1.524 . S
C1011 C1015 1.400 . S
C1012 H997 0.960 . S
C1012 H998 0.960 . S
C1012 H999 0.960 . S
C1012 C1011 1.524 . S
C1013 C1010 1.403 . S
C1013 C1014 1.392 . S
C1013 C1017 1.495 . S
C1014 C1013 1.392 . S
C1014 C1015 1.385 . S
C1014 C1016 1.478 . S
C1015 H1009 0.930 . S
C1015 C1011 1.400 . S
C1015 C1014 1.385 . S
C1016 C1014 1.478 . S
C1016 C1018 1.381 . S
C1016 C1022 1.383 . S
C1017 C1013 1.495 . S
C1017 H1023 0.959 . S
C1017 H1024 0.961 . S
C1017 H1025 0.960 . S
C1018 C1016 1.381 . S
C1018 C1019 1.394 . S
C1018 H1026 0.930 . S
C1019 C1018 1.394 . S
C1019 C1020 1.383 . S
C1019 H1027 0.929 . S
C1020 C1019 1.383 . S
C1020 C1021 1.377 . S
C1021 H1005 0.930 . S
C1021 C1020 1.377 . S
C1021 C1022 1.379 . S
C1022 H1006 0.931 . S
C1022 C1016 1.383 . S
C1022 C1021 1.379 . S
H1023 C1017 0.959 . S
H1024 C1017 0.961 . S
H1025 C1017 0.960 . S
H1026 C1018 0.930 . S
H1027 C1019 0.929 . S
H1028 C1036 0.929 . S
H1029 C1038 0.930 . S
H1030 C1040 0.930 . S
H1031 C1043 0.929 . S
H1032 C1046 0.930 . S
H1033 C1048 0.960 . S
H1034 C1048 0.960 . S
H1035 C1048 0.960 . S
C1036 H1028 0.929 . S
C1036 C1037 1.377 . S
C1036 C1038 1.384 . S
C1037 C1036 1.377 . S
C1037 C1043 1.390 . S
C1038 H1029 0.930 . S
C1038 C1036 1.384 . S
C1038 C1039 1.372 . S
C1039 C1038 1.372 . S
C1039 C1040 1.400 . S
C1039 C1044 1.490 . S
C1040 H1030 0.930 . S
C1040 C1039 1.400 . S
C1040 C1043 1.386 . S
H1041 C1057 0.930 . S
H1042 C1058 0.931 . S
C1043 H1031 0.929 . S
C1043 C1037 1.390 . S
C1043 C1040 1.386 . S
C1044 C1039 1.490 . S
C1044 C1046 1.395 . S
C1044 C1047 1.403 . S
H1045 C1051 0.930 . S
C1046 H1032 0.930 . S
C1046 C1044 1.395 . S
C1046 C1049 1.403 . S
C1047 C1044 1.403 . S
C1047 C1048 1.524 . S
C1047 C1051 1.400 . S
C1048 H1033 0.960 . S
C1048 H1034 0.960 . S
C1048 H1035 0.960 . S
C1048 C1047 1.524 . S
C1049 C1046 1.403 . S
C1049 C1050 1.392 . S
C1049 C1053 1.495 . S
C1050 C1049 1.392 . S
C1050 C1051 1.385 . S
C1050 C1052 1.478 . S
C1051 H1045 0.930 . S
C1051 C1047 1.400 . S
C1051 C1050 1.385 . S
C1052 C1050 1.478 . S
C1052 C1054 1.381 . S
C1052 C1058 1.383 . S
C1053 C1049 1.495 . S
C1053 H1059 0.959 . S
C1053 H1060 0.961 . S
C1053 H1061 0.960 . S
C1054 C1052 1.381 . S
C1054 C1055 1.394 . S
C1054 H1062 0.930 . S
C1055 C1054 1.394 . S
C1055 C1056 1.383 . S
C1055 H1063 0.929 . S
C1056 C1055 1.383 . S
C1056 C1057 1.377 . S
C1057 H1041 0.930 . S
C1057 C1056 1.377 . S
C1057 C1058 1.379 . S
C1058 H1042 0.931 . S
C1058 C1052 1.383 . S
C1058 C1057 1.379 . S
H1059 C1053 0.959 . S
H1060 C1053 0.961 . S
H1061 C1053 0.960 . S
H1062 C1054 0.930 . S
H1063 C1055 0.929 . S
H1064 C1072 0.929 . S
H1065 C1074 0.930 . S
H1066 C1076 0.930 . S
H1067 C1079 0.929 . S
H1068 C1082 0.930 . S
H1069 C1084 0.960 . S
H1070 C1084 0.960 . S
H1071 C1084 0.960 . S
C1072 H1064 0.929 . S
C1072 C1073 1.377 . S
C1072 C1074 1.384 . S
C1073 C1072 1.377 . S
C1073 C1079 1.390 . S
C1074 H1065 0.930 . S
C1074 C1072 1.384 . S
C1074 C1075 1.372 . S
C1075 C1074 1.372 . S
C1075 C1076 1.400 . S
C1075 C1080 1.490 . S
C1076 H1066 0.930 . S
C1076 C1075 1.400 . S
C1076 C1079 1.386 . S
H1077 C1093 0.930 . S
H1078 C1094 0.931 . S
C1079 H1067 0.929 . S
C1079 C1073 1.390 . S
C1079 C1076 1.386 . S
C1080 C1075 1.490 . S
C1080 C1082 1.395 . S
C1080 C1083 1.403 . S
H1081 C1087 0.930 . S
C1082 H1068 0.930 . S
C1082 C1080 1.395 . S
C1082 C1085 1.403 . S
C1083 C1080 1.403 . S
C1083 C1084 1.524 . S
C1083 C1087 1.400 . S
C1084 H1069 0.960 . S
C1084 H1070 0.960 . S
C1084 H1071 0.960 . S
C1084 C1083 1.524 . S
C1085 C1082 1.403 . S
C1085 C1086 1.392 . S
C1085 C1089 1.495 . S
C1086 C1085 1.392 . S
C1086 C1087 1.385 . S
C1086 C1088 1.478 . S
C1087 H1081 0.930 . S
C1087 C1083 1.400 . S
C1087 C1086 1.385 . S
C1088 C1086 1.478 . S
C1088 C1090 1.381 . S
C1088 C1094 1.383 . S
C1089 C1085 1.495 . S
C1089 H1095 0.959 . S
C1089 H1096 0.961 . S
C1089 H1097 0.960 . S
C1090 C1088 1.381 . S
C1090 C1091 1.394 . S
C1090 H1098 0.930 . S
C1091 C1090 1.394 . S
C1091 C1092 1.383 . S
C1091 H1099 0.929 . S
C1092 C1091 1.383 . S
C1092 C1093 1.377 . S
C1093 H1077 0.930 . S
C1093 C1092 1.377 . S
C1093 C1094 1.379 . S
C1094 H1078 0.931 . S
C1094 C1088 1.383 . S
C1094 C1093 1.379 . S
H1095 C1089 0.959 . S
H1096 C1089 0.961 . S
H1097 C1089 0.960 . S
H1098 C1090 0.930 . S
H1099 C1091 0.929 . S
H1100 C1108 0.929 . S
H1101 C1110 0.930 . S
H1102 C1112 0.930 . S
H1103 C1115 0.929 . S
H1104 C1118 0.930 . S
H1105 C1120 0.960 . S
H1106 C1120 0.960 . S
H1107 C1120 0.960 . S
C1108 H1100 0.929 . S
C1108 C1109 1.377 . S
C1108 C1110 1.384 . S
C1109 C1108 1.377 . S
C1109 C1115 1.390 . S
C1110 H1101 0.930 . S
C1110 C1108 1.384 . S
C1110 C1111 1.372 . S
C1111 C1110 1.372 . S
C1111 C1112 1.400 . S
C1111 C1116 1.490 . S
C1112 H1102 0.930 . S
C1112 C1111 1.400 . S
C1112 C1115 1.386 . S
H1113 C1129 0.930 . S
H1114 C1130 0.931 . S
C1115 H1103 0.929 . S
C1115 C1109 1.390 . S
C1115 C1112 1.386 . S
C1116 C1111 1.490 . S
C1116 C1118 1.395 . S
C1116 C1119 1.403 . S
H1117 C1123 0.930 . S
C1118 H1104 0.930 . S
C1118 C1116 1.395 . S
C1118 C1121 1.403 . S
C1119 C1116 1.403 . S
C1119 C1120 1.524 . S
C1119 C1123 1.400 . S
C1120 H1105 0.960 . S
C1120 H1106 0.960 . S
C1120 H1107 0.960 . S
C1120 C1119 1.524 . S
C1121 C1118 1.403 . S
C1121 C1122 1.392 . S
C1121 C1125 1.495 . S
C1122 C1121 1.392 . S
C1122 C1123 1.385 . S
C1122 C1124 1.478 . S
C1123 H1117 0.930 . S
C1123 C1119 1.400 . S
C1123 C1122 1.385 . S
C1124 C1122 1.478 . S
C1124 C1126 1.381 . S
C1124 C1130 1.383 . S
C1125 C1121 1.495 . S
C1125 H1131 0.959 . S
C1125 H1132 0.961 . S
C1125 H1133 0.960 . S
C1126 C1124 1.381 . S
C1126 C1127 1.394 . S
C1126 H1134 0.930 . S
C1127 C1126 1.394 . S
C1127 C1128 1.383 . S
C1127 H1135 0.929 . S
C1128 C1127 1.383 . S
C1128 C1129 1.377 . S
C1129 H1113 0.930 . S
C1129 C1128 1.377 . S
C1129 C1130 1.379 . S
C1130 H1114 0.931 . S
C1130 C1124 1.383 . S
C1130 C1129 1.379 . S
H1131 C1125 0.959 . S
H1132 C1125 0.961 . S
H1133 C1125 0.960 . S
H1134 C1126 0.930 . S
H1135 C1127 0.929 . S
H1136 C1144 0.929 . S
H1137 C1146 0.930 . S
H1138 C1148 0.930 . S
H1139 C1151 0.929 . S
H1140 C1154 0.930 . S
H1141 C1156 0.960 . S
H1142 C1156 0.960 . S
H1143 C1156 0.960 . S
C1144 H1136 0.929 . S
C1144 C1145 1.377 . S
C1144 C1146 1.384 . S
C1145 C1144 1.377 . S
C1145 C1151 1.390 . S
C1146 H1137 0.930 . S
C1146 C1144 1.384 . S
C1146 C1147 1.372 . S
C1147 C1146 1.372 . S
C1147 C1148 1.400 . S
C1147 C1152 1.490 . S
C1148 H1138 0.930 . S
C1148 C1147 1.400 . S
C1148 C1151 1.386 . S
H1149 C1165 0.930 . S
H1150 C1166 0.931 . S
C1151 H1139 0.929 . S
C1151 C1145 1.390 . S
C1151 C1148 1.386 . S
C1152 C1147 1.490 . S
C1152 C1154 1.395 . S
C1152 C1155 1.403 . S
H1153 C1159 0.930 . S
C1154 H1140 0.930 . S
C1154 C1152 1.395 . S
C1154 C1157 1.403 . S
C1155 C1152 1.403 . S
C1155 C1156 1.524 . S
C1155 C1159 1.400 . S
C1156 H1141 0.960 . S
C1156 H1142 0.960 . S
C1156 H1143 0.960 . S
C1156 C1155 1.524 . S
C1157 C1154 1.403 . S
C1157 C1158 1.392 . S
C1157 C1161 1.495 . S
C1158 C1157 1.392 . S
C1158 C1159 1.385 . S
C1158 C1160 1.478 . S
C1159 H1153 0.930 . S
C1159 C1155 1.400 . S
C1159 C1158 1.385 . S
C1160 C1158 1.478 . S
C1160 C1162 1.381 . S
C1160 C1166 1.383 . S
C1161 C1157 1.495 . S
C1161 H1167 0.959 . S
C1161 H1168 0.961 . S
C1161 H1169 0.960 . S
C1162 C1160 1.381 . S
C1162 C1163 1.394 . S
C1162 H1170 0.930 . S
C1163 C1162 1.394 . S
C1163 C1164 1.383 . S
C1163 H1171 0.929 . S
C1164 C1163 1.383 . S
C1164 C1165 1.377 . S
C1165 H1149 0.930 . S
C1165 C1164 1.377 . S
C1165 C1166 1.379 . S
C1166 H1150 0.931 . S
C1166 C1160 1.383 . S
C1166 C1165 1.379 . S
H1167 C1161 0.959 . S
H1168 C1161 0.961 . S
H1169 C1161 0.960 . S
H1170 C1162 0.930 . S
H1171 C1163 0.929 . S
H1172 C1180 0.929 . S
H1173 C1182 0.930 1_556 S
H1174 C1184 0.930 . S
H1175 C1187 0.929 . S
H1176 C1190 0.930 . S
H1177 C1192 0.960 . S
H1178 C1192 0.960 . S
H1179 C1192 0.960 . S
C1180 H1172 0.929 . S
C1180 C1181 1.377 . S
C1180 C1182 1.389 . S
C1181 C1180 1.377 . S
C1181 C1187 1.390 . S
C1182 H1173 0.930 1_554 S
C1182 C1180 1.389 . S
C1182 C1183 1.368 1_554 S
C1183 C1182 1.368 1_556 S
C1183 C1184 1.400 . S
C1183 C1188 1.490 . S
C1184 H1174 0.930 . S
C1184 C1183 1.400 . S
C1184 C1187 1.386 1_556 S
H1185 C1201 0.930 . S
H1186 C1202 0.931 . S
C1187 H1175 0.929 . S
C1187 C1181 1.390 . S
C1187 C1184 1.386 1_554 S
C1188 C1183 1.490 . S
C1188 C1190 1.395 . S
C1188 C1191 1.403 . S
H1189 C1195 0.930 . S
C1190 H1176 0.930 . S
C1190 C1188 1.395 . S
C1190 C1193 1.403 . S
C1191 C1188 1.403 . S
C1191 C1192 1.524 1_556 S
C1191 C1195 1.400 . S
C1192 H1177 0.960 . S
C1192 H1178 0.960 . S
C1192 H1179 0.960 . S
C1192 C1191 1.524 1_554 S
C1193 C1190 1.403 . S
C1193 C1194 1.392 . S
C1193 C1197 1.495 . S
C1194 C1193 1.392 . S
C1194 C1195 1.385 . S
C1194 C1196 1.478 . S
C1195 H1189 0.930 . S
C1195 C1191 1.400 . S
C1195 C1194 1.385 . S
C1196 C1194 1.478 . S
C1196 C1198 1.381 . S
C1196 C1202 1.383 . S
C1197 C1193 1.495 . S
C1197 H1203 0.959 . S
C1197 H1204 0.961 . S
C1197 H1205 0.960 . S
C1198 C1196 1.381 . S
C1198 C1199 1.394 . S
C1198 H1206 0.930 . S
C1199 C1198 1.394 . S
C1199 C1200 1.383 . S
C1199 H1207 0.929 . S
C1200 C1199 1.383 . S
C1200 C1201 1.377 . S
C1201 H1185 0.930 . S
C1201 C1200 1.377 . S
C1201 C1202 1.379 . S
C1202 H1186 0.931 . S
C1202 C1196 1.383 . S
C1202 C1201 1.379 . S
H1203 C1197 0.959 . S
H1204 C1197 0.961 . S
H1205 C1197 0.960 . S
H1206 C1198 0.930 . S
H1207 C1199 0.929 . S
C353 C7 1.411 . S
C372 C105 1.401 . S
C389 C37 1.194 . S
C408 C137 1.159 . S
C425 C54 1.449 . S
C444 C169 1.370 . S
C480 C213 1.374 . S
C461 C87 1.367 . S
C516 C233 1.312 . S
C497 C30 1.319 . S
C533 C51 1.398 . S
C552 C277 1.427 . S
C569 C84 1.467 . S
C588 C297 1.307 . S
C605 C10 1.182 . S
C624 C341 1.026 . S
C641 C59 1.422 . S
C660 C329 1.360 . S
C696 C245 1.193 . S
C677 C74 1.220 . S
C732 C265 1.490 . S
C713 C18 1.511 . S
C749 C32 1.369 . S
C768 C309 1.308 . S
C804 C149 1.454 . S
C785 C73 1.442 . S
C821 C15 1.372 . S
C840 C181 1.275 . S
C876 C201 1.490 . S
C857 C43 1.491 . S
C912 C117 1.191 1_655 S
C893 C62 1.194 . S
C948 C303 1.288 . S
C929 C21 1.421 . S
C984 C335 1.131 . S
C965 C29 1.247 . S
C1001 C52 1.210 . S
C1020 C239 1.188 . S
C1056 C271 1.430 . S
C1037 C81 1.441 . S
C1092 C175 1.328 . S
C1073 C40 1.391 . S
C1109 C65 1.404 . S
C1128 C207 1.400 . S
C1164 C111 1.240 . S
C1145 C76 1.240 . S
C1200 C143 1.252 . S
C1181 C8 1.252 . S
