# Generated by pormake.
# Topology zzz, (3,6)-cn, num edge types: 1
# Building blocks:
#     Node 0, Type 0, BuildingBlock: BETDIP_clean_linker_0, # of connection points: 3
#     Node 1, Type 0, BuildingBlock: BETDIP_clean_linker_0, # of connection points: 3
#     Node 2, Type 0, BuildingBlock: BETDIP_clean_linker_0, # of connection points: 3
#     Node 3, Type 0, BuildingBlock: BETDIP_clean_linker_0, # of connection points: 3
#     Node 4, Type 0, BuildingBlock: BETDIP_clean_linker_0, # of connection points: 3
#     Node 5, Type 0, BuildingBlock: BETDIP_clean_linker_0, # of connection points: 3
#     Node 6, Type 0, BuildingBlock: BETDIP_clean_linker_0, # of connection points: 3
#     Node 7, Type 0, BuildingBlock: BETDIP_clean_linker_0, # of connection points: 3
#     Node 8, Type 1, BuildingBlock: MIFKUJ_clean_sbu_0, # of connection points: 6
#     Node 9, Type 1, BuildingBlock: MIFKUJ_clean_sbu_0, # of connection points: 6
#     Node 10, Type 1, BuildingBlock: MIFKUJ_clean_sbu_0, # of connection points: 6
#     Node 11, Type 1, BuildingBlock: MIFKUJ_clean_sbu_0, # of connection points: 6
#     Edge 12, Type (0, 1), BuildingBlock: XIVTED_clean_linker_0, # of connection points: 2
#     Edge 13, Type (0, 1), BuildingBlock: XIVTED_clean_linker_0, # of connection points: 2
#     Edge 14, Type (0, 1), BuildingBlock: XIVTED_clean_linker_0, # of connection points: 2
#     Edge 15, Type (0, 1), BuildingBlock: XIVTED_clean_linker_0, # of connection points: 2
#     Edge 16, Type (0, 1), BuildingBlock: XIVTED_clean_linker_0, # of connection points: 2
#     Edge 17, Type (0, 1), BuildingBlock: XIVTED_clean_linker_0, # of connection points: 2
#     Edge 18, Type (0, 1), BuildingBlock: XIVTED_clean_linker_0, # of connection points: 2
#     Edge 19, Type (0, 1), BuildingBlock: XIVTED_clean_linker_0, # of connection points: 2
#     Edge 20, Type (0, 1), BuildingBlock: XIVTED_clean_linker_0, # of connection points: 2
#     Edge 21, Type (0, 1), BuildingBlock: XIVTED_clean_linker_0, # of connection points: 2
#     Edge 22, Type (0, 1), BuildingBlock: XIVTED_clean_linker_0, # of connection points: 2
#     Edge 23, Type (0, 1), BuildingBlock: XIVTED_clean_linker_0, # of connection points: 2
#     Edge 24, Type (0, 1), BuildingBlock: XIVTED_clean_linker_0, # of connection points: 2
#     Edge 25, Type (0, 1), BuildingBlock: XIVTED_clean_linker_0, # of connection points: 2
#     Edge 26, Type (0, 1), BuildingBlock: XIVTED_clean_linker_0, # of connection points: 2
#     Edge 27, Type (0, 1), BuildingBlock: XIVTED_clean_linker_0, # of connection points: 2
#     Edge 28, Type (0, 1), BuildingBlock: XIVTED_clean_linker_0, # of connection points: 2
#     Edge 29, Type (0, 1), BuildingBlock: XIVTED_clean_linker_0, # of connection points: 2
#     Edge 30, Type (0, 1), BuildingBlock: XIVTED_clean_linker_0, # of connection points: 2
#     Edge 31, Type (0, 1), BuildingBlock: XIVTED_clean_linker_0, # of connection points: 2
#     Edge 32, Type (0, 1), BuildingBlock: XIVTED_clean_linker_0, # of connection points: 2
#     Edge 33, Type (0, 1), BuildingBlock: XIVTED_clean_linker_0, # of connection points: 2
#     Edge 34, Type (0, 1), BuildingBlock: XIVTED_clean_linker_0, # of connection points: 2
#     Edge 35, Type (0, 1), BuildingBlock: XIVTED_clean_linker_0, # of connection points: 2
# Relax obj value: 0.116
# Max RMSD: 0.118
# Mean RMSD: 0.085
data_MOF--net-zzz--node1-MIFKUJ_clean_sbu_0--node2-BETDIP_clean_linker_0--edge1-XIVTED_clean_linker_0
_symmetry_space_group_name_H-M    P1
_symmetry_Int_Tables_number       1
_symmetry_cell_setting            triclinic
loop_
_symmetry_equiv_pos_as_xyz
'x, y, z'
_cell_length_a     51.219437
_cell_length_b     50.637983
_cell_length_c     15.945286
_cell_angle_alpha  90.021016
_cell_angle_beta   90.432169
_cell_angle_gamma 89.97008
loop_
_atom_site_label
_atom_site_type_symbol
_atom_site_fract_x
_atom_site_fract_y
_atom_site_fract_z
_atom_type_partial_charge
H0 H 0.73746 0.50598 0.22628 0.0
H1 H 0.74091 0.4694 0.98236 0.0
H2 H 0.80661 0.46463 0.15027 0.0
H3 H 0.72388 0.51626 0.96206 0.0
C4 C 0.70699 0.50991 -0.00224 0.0
C5 C 0.74767 0.49399 0.18079 0.0
C6 C 0.77313 0.48483 0.19827 0.0
C7 C 0.73604 0.48861 0.10207 0.0
C8 C 0.74979 0.47355 0.04281 0.0
C9 C 0.77529 0.46488 0.05925 0.0
C10 C 0.7865 0.47023 0.13772 0.0
N11 N 0.71129 0.49951 0.07983 0.0
H12 H 0.97625 0.73373 0.26446 0.0
H13 H 1.00107 0.73718 0.00659 0.0
H14 H 0.01366 0.80342 0.1695 0.0
H15 H 0.95357 0.71822 0.01093 0.0
C16 C 0.96318 0.7017 0.04199 0.0
C17 C 0.98587 0.74405 0.21387 0.0
C18 C 0.99532 0.7699 0.22623 0.0
C19 C 0.98778 0.73219 0.13401 0.0
C20 C 0.9997 0.74611 0.06818 0.0
C21 C 0.00934 0.77166 0.08075 0.0
C22 C 0.00729 0.78318 0.16006 0.0
N23 N 0.97693 0.70678 0.11827 0.0
H24 H 0.77435 0.00831 0.23473 0.0
H25 H 0.77627 0.0356 0.97905 0.0
H26 H 0.70907 0.05062 0.1312 0.0
H27 H 0.78958 0.98536 0.98451 0.0
C28 C 0.80655 0.99331 0.01728 0.0
C29 C 0.76556 0.01927 0.18347 0.0
C30 C 0.74071 0.0307 0.19274 0.0
C31 C 0.77837 0.02096 0.10588 0.0
C32 C 0.76638 0.03444 0.03876 0.0
C33 C 0.74127 0.04509 0.04668 0.0
C34 C 0.72897 0.04364 0.12468 0.0
N35 N 0.80242 0.00764 0.09282 0.0
H36 H 0.52584 0.76863 0.27672 0.0
H37 H 0.52998 0.77039 0.00642 0.0
H38 H 0.53247 0.69635 0.13621 0.0
H39 H 0.56745 0.80748 0.0976 0.0
C40 C 0.5477 0.81538 0.09875 0.0
C41 C 0.52773 0.7584 0.21741 0.0
C42 C 0.52987 0.73063 0.21554 0.0
C43 C 0.52886 0.77287 0.1418 0.0
C44 C 0.5303 0.75944 0.06483 0.0
C45 C 0.5315 0.73193 0.06333 0.0
C46 C 0.53191 0.71779 0.1383 0.0
N47 N 0.52822 0.80089 0.14199 0.0
H48 H 0.26231 0.51399 0.96824 0.0
H49 H 0.25637 0.54842 0.21534 0.0
H50 H 0.18753 0.53657 0.06588 0.0
H51 H 0.29684 0.56756 0.1606 0.0
C52 C 0.30465 0.54771 0.1537 0.0
C53 C 0.25068 0.52252 0.01786 0.0
C54 C 0.22336 0.52448 0.0085 0.0
C55 C 0.26288 0.53174 0.09206 0.0
C56 C 0.24743 0.54233 0.15666 0.0
C57 C 0.22034 0.54438 0.14714 0.0
C58 C 0.20861 0.53559 0.07287 0.0
N59 N 0.2904 0.52929 0.10363 0.0
H60 H 0.0143 0.27076 0.93303 0.0
H61 H 0.01081 0.27063 0.20348 0.0
H62 H 0.03564 0.20129 0.07342 0.0
H63 H 0.96861 0.29519 0.13969 0.0
C64 C 0.98387 0.30925 0.12415 0.0
C65 C 0.01781 0.26097 0.99244 0.0
C66 C 0.02632 0.23444 0.99404 0.0
C67 C 0.01257 0.27432 0.06822 0.0
C68 C 0.01551 0.2609 0.14494 0.0
C69 C 0.0243 0.23484 0.14641 0.0
C70 C 0.03021 0.22202 0.07149 0.0
N71 N 0.00363 0.30091 0.06775 0.0
H72 H 0.23492 0.99831 0.95487 0.0
H73 H 0.24516 0.96002 0.19496 0.0
H74 H 0.31186 0.97996 0.04763 0.0
H75 H 0.20541 0.93964 0.14095 0.0
C76 C 0.19639 0.95901 0.13528 0.0
C77 C 0.24751 0.98992 0.00285 0.0
C78 C 0.27477 0.99046 0.99324 0.0
C79 C 0.23659 0.97843 0.075 0.0
C80 C 0.2532 0.96792 0.13756 0.0
C81 C 0.28029 0.96813 0.12735 0.0
C82 C 0.29082 0.97932 0.05511 0.0
N83 N 0.20908 0.97861 0.08642 0.0
H84 H 0.49705 0.23077 0.93551 0.0
H85 H 0.49831 0.23223 0.20629 0.0
H86 H 0.47402 0.3007 0.06983 0.0
H87 H 0.54064 0.20734 0.1521 0.0
C88 C 0.52582 0.19314 0.13303 0.0
C89 C 0.49304 0.24084 0.99396 0.0
C90 C 0.48428 0.26728 0.99318 0.0
C91 C 0.4978 0.2279 0.071 0.0
C92 C 0.49407 0.24164 0.1467 0.0
C93 C 0.48501 0.26761 0.14577 0.0
C94 C 0.47967 0.28003 0.06952 0.0
N95 N 0.50684 0.20134 0.07282 0.0
Zn96 Zn 0.00228 0.02941 0.56306 0.0
Zn97 Zn 0.01943 0.97524 0.65497 0.0
C98 C 0.99719 0.06919 0.67852 0.0
O99 O 0.97374 0.06559 0.64652 0.0
C100 C 0.02162 0.9314 0.5513 0.0
O101 O 0.04548 0.9342 0.58078 0.0
O102 O 0.99422 0.0588 0.48213 0.0
O103 O 0.03022 0.00892 0.50238 0.0
O104 O 0.05197 0.99197 0.60884 0.0
C105 C 0.01526 0.07179 0.47191 0.0
O106 O 0.03703 0.0625 0.50458 0.0
O107 O 0.015 0.05255 0.66028 0.0
C108 C 0.01112 0.93402 0.75938 0.0
O109 O 0.98784 0.94022 0.73023 0.0
O110 O 0.03021 0.94912 0.74297 0.0
O111 O 0.9914 0.99721 0.71098 0.0
O112 O 0.96968 0.01014 0.5989 0.0
O113 O 0.005 0.9495 0.56685 0.0
C114 C 0.05122 0.99967 0.53312 0.0
C115 C 0.9699 1.00309 0.67539 0.0
Zn116 Zn 0.4754 0.99123 0.57595 0.0
Zn117 Zn 0.54119 0.01646 0.63231 0.0
C118 C 0.43111 0.98887 0.67173 0.0
O119 O 0.43686 0.96415 0.65491 0.0
C120 C 0.57637 0.03115 0.50964 0.0
O121 O 0.56924 0.0537 0.54316 0.0
O122 O 0.45274 0.97196 0.4923 0.0
O123 O 0.49312 0.01972 0.50635 0.0
O124 O 0.51277 0.04267 0.60519 0.0
C125 C 0.43534 0.98771 0.46487 0.0
O126 O 0.43743 0.013 0.48224 0.0
O127 O 0.44732 0.00678 0.65133 0.0
C128 C 0.58791 0.02001 0.71286 0.0
O129 O 0.58784 0.99637 0.67877 0.0
O130 O 0.5672 0.03381 0.70933 0.0
O131 O 0.53231 0.98215 0.68872 0.0
O132 O 0.49498 0.96428 0.64661 0.0
O133 O 0.56398 0.01036 0.53014 0.0
C134 C 0.50315 0.04124 0.5318 0.0
C135 C 0.51581 0.96345 0.69037 0.0
Zn136 Zn 0.50343 0.47348 0.56376 0.0
Zn137 Zn 0.49101 0.52917 0.65359 0.0
C138 C 0.51004 0.43188 0.67373 0.0
O139 O 0.53298 0.43499 0.6387 0.0
C140 C 0.48871 0.56958 0.53994 0.0
O141 O 0.46559 0.56843 0.5749 0.0
O142 O 0.51022 0.44522 0.47838 0.0
O143 O 0.47335 0.49416 0.5114 0.0
O144 O 0.45571 0.51538 0.61758 0.0
C145 C 0.48936 0.4319 0.46812 0.0
O146 O 0.46777 0.44033 0.50319 0.0
O147 O 0.49244 0.44918 0.65944 0.0
C148 C 0.51012 0.56935 0.74554 0.0
O149 O 0.53039 0.5577 0.71162 0.0
O150 O 0.48769 0.55883 0.73655 0.0
O151 O 0.51679 0.50436 0.71052 0.0
O152 O 0.53729 0.49172 0.59749 0.0
O153 O 0.50511 0.55126 0.55649 0.0
C154 C 0.45392 0.50582 0.54401 0.0
C155 C 0.53791 0.49805 0.67458 0.0
Zn156 Zn 0.02207 0.51568 0.56307 0.0
Zn157 Zn 0.97436 0.48663 0.64979 0.0
C158 C 0.06268 0.52342 0.67744 0.0
O159 O 0.05611 0.54738 0.65369 0.0
C160 C 0.93318 0.47952 0.53745 0.0
O161 O 0.93983 0.45554 0.56084 0.0
O162 O 0.04649 0.53446 0.48532 0.0
O163 O 0.00839 0.48497 0.49384 0.0
O164 O 0.99759 0.45899 0.59827 0.0
C165 C 0.06596 0.51972 0.46996 0.0
O166 O 0.06529 0.49489 0.49381 0.0
O167 O 0.04819 0.50421 0.65438 0.0
C168 C 0.93098 0.48296 0.74504 0.0
O169 O 0.93185 0.50782 0.7216 0.0
O170 O 0.95026 0.46805 0.7291 0.0
O171 O 0.98938 0.51692 0.71836 0.0
O172 O 0.9972 0.54276 0.61107 0.0
O173 O 0.94772 0.4987 0.56044 0.0
C174 C 0.00386 0.46197 0.52195 0.0
C175 C 0.99139 0.53998 0.68787 0.0
H176 H 0.17834 0.9291 0.26232 0.0
H177 H 0.0609 0.02413 0.38399 0.0
H178 H 0.1657 0.00387 0.13914 0.0
H179 H 0.09301 0.96633 0.55489 0.0
H180 H 0.09663 0.0152 0.28705 0.0
H181 H 0.14407 0.94011 0.36255 0.0
C182 C 0.16821 0.9478 0.25626 0.0
C183 C 0.1748 0.9656 0.19258 0.0
C184 C 0.09594 0.00462 0.34601 0.0
C185 C 0.13561 0.97833 0.30676 0.0
C186 C 0.07555 0.00965 0.40135 0.0
C187 C 0.07393 0.99589 0.47762 0.0
C188 C 0.11462 0.98535 0.36633 0.0
C189 C 0.09351 0.97743 0.49693 0.0
C190 C 0.14881 0.95414 0.31373 0.0
C191 C 0.16121 0.98961 0.18747 0.0
N192 N 0.1129 0.9725 0.44122 0.0
N193 N 0.14211 0.99524 0.2437 0.0
H194 H 0.49068 0.15193 0.11408 0.0
H195 H 0.52727 0.08884 0.55967 0.0
H196 H 0.55254 0.18094 0.2742 0.0
H197 H 0.48425 0.04561 0.37053 0.0
H198 H 0.53272 0.12509 0.4605 0.0
H199 H 0.48449 0.11467 0.21098 0.0
C200 C 0.50302 0.15038 0.16933 0.0
C201 C 0.52218 0.16948 0.18632 0.0
C202 C 0.52212 0.10765 0.4406 0.0
C203 C 0.51498 0.12734 0.29754 0.0
C204 C 0.51894 0.08693 0.49733 0.0
C205 C 0.50553 0.06394 0.47331 0.0
C206 C 0.51148 0.10567 0.35937 0.0
C207 C 0.49492 0.06285 0.39172 0.0
C208 C 0.49948 0.12916 0.22454 0.0
C209 C 0.53759 0.16658 0.25878 0.0
N210 N 0.49809 0.08341 0.33773 0.0
N211 N 0.53356 0.14605 0.31191 0.0
H212 H 0.33308 0.50111 0.15606 0.0
H213 H 0.41419 0.54147 0.56882 0.0
H214 H 0.32556 0.5764 0.27995 0.0
H215 H 0.43955 0.48018 0.39973 0.0
H216 H 0.37725 0.55058 0.47465 0.0
H217 H 0.36844 0.48945 0.25473 0.0
C218 C 0.33888 0.51515 0.2039 0.0
C219 C 0.3265 0.53979 0.20983 0.0
C220 C 0.39086 0.53506 0.45842 0.0
C221 C 0.36647 0.5265 0.32326 0.0
C222 C 0.41187 0.52975 0.51243 0.0
C223 C 0.43011 0.51013 0.49204 0.0
C224 C 0.38784 0.52043 0.38396 0.0
C225 C 0.42609 0.49562 0.41778 0.0
C226 C 0.35902 0.50852 0.26013 0.0
C227 C 0.33472 0.55724 0.27308 0.0
N228 N 0.40541 0.50105 0.36652 0.0
N229 N 0.35406 0.55024 0.32748 0.0
H230 H 0.95595 0.32064 0.26222 0.0
H231 H 0.02412 0.45866 0.36341 0.0
H232 H 0.01929 0.35046 0.11298 0.0
H233 H 0.98183 0.41333 0.5469 0.0
H234 H 0.0201 0.4217 0.26466 0.0
H235 H 0.96201 0.35734 0.35992 0.0
C236 C 0.97107 0.33506 0.24984 0.0
C237 C 0.98714 0.33252 0.17957 0.0
C238 C 0.01186 0.41983 0.32673 0.0
C239 C 0.99422 0.37466 0.29122 0.0
C240 C 0.0141 0.44091 0.38311 0.0
C241 C 0.00325 0.43913 0.46364 0.0
C242 C 0.99829 0.39698 0.3505 0.0
C243 C 0.99056 0.4156 0.48571 0.0
C244 C 0.97462 0.3559 0.3059 0.0
C245 C 0.00649 0.35169 0.16654 0.0
N246 N 0.98823 0.39559 0.42927 0.0
N247 N 0.00944 0.37207 0.22178 0.0
H248 H 0.85525 0.00894 0.074 0.0
H249 H 0.91917 0.00386 0.61831 0.0
H250 H 0.814 0.981 0.85458 0.0
H251 H 0.96528 1.00161 0.84593 0.0
H252 H 0.87947 1.00175 0.70298 0.0
H253 H 0.89527 0.01216 0.99036 0.0
C254 C 0.85466 0.00345 0.00837 0.0
C255 C 0.8314 0.99463 0.97094 0.0
C256 C 0.89831 1.00174 0.73424 0.0
C257 C 0.87672 0.99864 0.87507 0.0
C258 C 0.92095 1.00306 0.68599 0.0
C259 C 0.94558 1.0028 0.72503 0.0
C260 C 0.90032 1.00055 0.82214 0.0
C261 C 0.94671 1.0017 0.8131 0.0
C262 C 0.87744 0.00526 0.96075 0.0
C263 C 0.83162 0.98778 0.88572 0.0
N264 N 0.92442 1.0007 0.85868 0.0
N265 N 0.85386 0.99008 0.84048 0.0
H266 H 0.49943 0.83436 0.04761 0.0
H267 H 0.56128 0.9504 0.77143 0.0
H268 H 0.58215 0.8478 0.02358 0.0
H269 H 0.48107 0.92552 0.74344 0.0
H270 H 0.56831 0.91515 0.87321 0.0
H271 H 0.49123 0.87026 0.94691 0.0
C272 C 0.51583 0.84506 0.02191 0.0
C273 C 0.54153 0.83824 0.04409 0.0
C274 C 0.54918 0.91729 0.84464 0.0
C275 C 0.53233 0.87907 0.92893 0.0
C276 C 0.54513 0.93746 0.78635 0.0
C277 C 0.52054 0.94096 0.7484 0.0
C278 C 0.52846 0.90053 0.86627 0.0
C279 C 0.5004 0.92349 0.77061 0.0
C280 C 0.51115 0.86539 0.96404 0.0
C281 C 0.56205 0.85252 0.00826 0.0
N282 N 0.50476 0.90412 0.8284 0.0
N283 N 0.55703 0.87224 0.95269 0.0
H284 H 0.69856 0.51817 0.83284 0.0
H285 H 0.54396 0.50074 0.84493 0.0
H286 H 0.658 0.49717 0.05914 0.0
H287 H 0.58836 0.49597 0.61648 0.0
H288 H 0.58473 0.50293 0.92533 0.0
H289 H 0.65768 0.51407 0.75389 0.0
C290 C 0.68095 0.51277 0.86595 0.0
C291 C 0.68165 0.508 0.95259 0.0
C292 C 0.58556 0.50126 0.85768 0.0
C293 C 0.63467 0.50334 0.86253 0.0
C294 C 0.56229 0.50007 0.81155 0.0
C295 C 0.56269 0.49819 0.72356 0.0
C296 C 0.60952 0.50096 0.81569 0.0
C297 C 0.58707 0.49734 0.68406 0.0
C298 C 0.65766 0.51031 0.82074 0.0
C299 C 0.65831 0.501 0.99238 0.0
N300 N 0.60948 0.49894 0.73034 0.0
N301 N 0.6357 0.499 0.94704 0.0
H302 H 0.94968 0.69379 0.88024 0.0
H303 H 0.98999 0.54182 0.85972 0.0
H304 H 0.98442 0.65377 0.09204 0.0
H305 H 0.98382 0.59152 0.64065 0.0
H306 H 0.98308 0.58068 0.94857 0.0
H307 H 0.95666 0.65442 0.79459 0.0
C308 C 0.95867 0.67659 0.9088 0.0
C309 C 0.96653 0.67703 0.9932 0.0
C310 C 0.98331 0.58304 0.88108 0.0
C311 C 0.97452 0.6318 0.89554 0.0
C312 C 0.98716 0.56088 0.83022 0.0
C313 C 0.98748 0.56339 0.74242 0.0
C314 C 0.97931 0.60785 0.84394 0.0
C315 C 0.98379 0.58862 0.7079 0.0
C316 C 0.96277 0.65419 0.85977 0.0
C317 C 0.97812 0.65425 0.02711 0.0
N318 N 0.97969 0.6098 0.75867 0.0
N319 N 0.98169 0.63246 0.97816 0.0
H320 H 0.0654 0.2124 0.22733 0.0
H321 H 0.97348 0.10256 0.42284 0.0
H322 H 0.98166 0.21975 0.23353 0.0
H323 H 0.0577 0.10174 0.43798 0.0
H324 H 0.97546 0.14753 0.36585 0.0
H325 H 0.06278 0.17502 0.32348 0.0
C326 C 0.04655 0.20661 0.25163 0.0
C327 C 0.02373 0.21897 0.2233 0.0
C328 C 0.99346 0.1375 0.38226 0.0
C329 C 0.0203 0.1756 0.32937 0.0
C330 C 0.99233 0.11177 0.41383 0.0
C331 C 0.01545 0.09829 0.43403 0.0
C332 C 0.01787 0.14961 0.37073 0.0
C333 C 0.03936 0.11126 0.42259 0.0
C334 C 0.04495 0.18512 0.30562 0.0
C335 C 0.99966 0.21067 0.25496 0.0
N336 N 0.03993 0.13609 0.39135 0.0
N337 N 0.99848 0.18906 0.30517 0.0
H338 H 0.3224 0.93527 0.11469 0.0
H339 H 0.38744 0.00746 0.49449 0.0
H340 H 0.27946 0.98228 0.29205 0.0
H341 H 0.42677 0.94498 0.36182 0.0
H342 H 0.34621 0.99358 0.43256 0.0
H343 H 0.35862 0.93237 0.21506 0.0
C344 C 0.32037 0.94433 0.17587 0.0
C345 C 0.29824 0.95949 0.1948 0.0
C346 C 0.36372 0.98263 0.41734 0.0
C347 C 0.33957 0.95669 0.30884 0.0
C348 C 0.38732 0.99076 0.45197 0.0
C349 C 0.41052 0.97775 0.4311 0.0
C350 C 0.36335 0.96173 0.35958 0.0
C351 C 0.40925 0.95573 0.37808 0.0
C352 C 0.34101 0.94269 0.23306 0.0
C353 C 0.29629 0.97057 0.27493 0.0
N354 N 0.38604 0.94871 0.34245 0.0
N355 N 0.31699 0.96948 0.32839 0.0
H356 H 0.44282 0.29002 0.21882 0.0
H357 H 0.53163 0.40188 0.42178 0.0
H358 H 0.52648 0.28357 0.23904 0.0
H359 H 0.44736 0.40161 0.42881 0.0
H360 H 0.53055 0.35687 0.36514 0.0
H361 H 0.44403 0.32809 0.31282 0.0
C362 C 0.46133 0.29615 0.24581 0.0
C363 C 0.48456 0.28383 0.22198 0.0
C364 C 0.51233 0.36667 0.37956 0.0
C365 C 0.4864 0.32794 0.32563 0.0
C366 C 0.51294 0.39244 0.41086 0.0
C367 C 0.48955 0.40558 0.42895 0.0
C368 C 0.48816 0.35416 0.36601 0.0
C369 C 0.46588 0.3923 0.41514 0.0
C370 C 0.46212 0.31803 0.29855 0.0
C371 C 0.50817 0.29259 0.25697 0.0
N372 N 0.4658 0.36741 0.38415 0.0
N373 N 0.50859 0.31454 0.30589 0.0
H374 H 0.22266 0.52747 0.30928 0.0
H375 H 0.07331 0.56439 0.37511 0.0
H376 H 0.17911 0.57875 0.14363 0.0
H377 H 0.11462 0.50068 0.49741 0.0
H378 H 0.11496 0.58008 0.3178 0.0
H379 H 0.18701 0.52958 0.40969 0.0
C380 C 0.20597 0.53991 0.29533 0.0
C381 C 0.20343 0.5524 0.21733 0.0
C382 C 0.11485 0.56287 0.35811 0.0
C383 C 0.16235 0.55422 0.33028 0.0
C384 C 0.09115 0.55388 0.39029 0.0
C385 C 0.09054 0.53079 0.43864 0.0
C386 C 0.13792 0.54879 0.37566 0.0
C387 C 0.11415 0.5181 0.45805 0.0
C388 C 0.18549 0.54089 0.35222 0.0
C389 C 0.1814 0.56828 0.20241 0.0
N390 N 0.13684 0.52714 0.42594 0.0
N391 N 0.16136 0.56825 0.25756 0.0
H392 H 0.98555 0.77686 0.92823 0.0
H393 H 0.05418 0.91556 0.84524 0.0
H394 H 0.05138 0.80506 0.07302 0.0
H395 H 0.97827 0.89212 0.75212 0.0
H396 H 0.0602 0.87094 0.90286 0.0
H397 H 0.99113 0.81365 0.83161 0.0
C398 C 0.00173 0.7903 0.93816 0.0
C399 C 0.01766 0.78832 0.00971 0.0
C400 C 0.04235 0.87563 0.86919 0.0
C401 C 0.02358 0.83089 0.90124 0.0
C402 C 0.03884 0.90106 0.83695 0.0
C403 C 0.01546 0.90766 0.79569 0.0
C404 C 0.02246 0.85677 0.85884 0.0
C405 C 0.99636 0.88808 0.78526 0.0
C406 C 0.00471 0.81151 0.88358 0.0
C407 C 0.03829 0.80635 0.01954 0.0
N408 N 1.00026 0.86359 0.8169 0.0
N409 N 0.04033 0.82729 0.96688 0.0
H410 H 0.74222 0.02258 0.89046 0.0
H411 H 0.59544 0.06343 0.81406 0.0
H412 H 0.704 0.08427 0.03102 0.0
H413 H 0.6367 1.0023 0.68063 0.0
H414 H 0.63727 0.07901 0.87183 0.0
H415 H 0.7076 0.02461 0.78678 0.0
C416 C 0.72702 0.03721 0.89855 0.0
C417 C 0.72561 0.05262 0.97158 0.0
C418 C 0.63713 0.06241 0.82899 0.0
C419 C 0.68501 0.05403 0.85438 0.0
C420 C 0.61329 0.05344 0.79657 0.0
C421 C 0.61261 0.03107 0.74476 0.0
C422 C 0.66026 0.04893 0.80881 0.0
C423 C 0.63625 0.01912 0.72253 0.0
C424 C 0.70693 0.03809 0.83948 0.0
C425 C 0.70529 0.07119 0.9775 0.0
N426 N 0.65904 0.02803 0.75533 0.0
N427 N 0.6853 0.07083 0.92103 0.0
H428 H 0.48831 0.72251 0.96957 0.0
H429 H 0.55578 0.59501 0.77467 0.0
H430 H 0.57051 0.70531 0.987 0.0
H431 H 0.47226 0.60454 0.79502 0.0
H432 H 0.56176 0.63973 0.82622 0.0
H433 H 0.48272 0.68479 0.87458 0.0
C434 C 0.50533 0.71142 0.95017 0.0
C435 C 0.52991 0.71686 0.98509 0.0
C436 C 0.5421 0.63212 0.81934 0.0
C437 C 0.52364 0.67348 0.8801 0.0
C438 C 0.53864 0.60649 0.79039 0.0
C439 C 0.51346 0.5959 0.78168 0.0
C440 C 0.52025 0.64737 0.84018 0.0
C441 C 0.49202 0.61182 0.80211 0.0
C442 C 0.5021 0.68972 0.89725 0.0
C443 C 0.55133 0.70171 0.96036 0.0
N444 N 0.49592 0.6368 0.83094 0.0
N445 N 0.54765 0.68041 0.91013 0.0
H446 H 0.81308 0.42611 0.06612 0.0
H447 H 0.88307 0.49732 0.69121 0.0
H448 H 0.77658 0.48167 0.89654 0.0
H449 H 0.92229 0.44281 0.85735 0.0
H450 H 0.84122 0.48228 0.74365 0.0
H451 H 0.84954 0.42193 0.96887 0.0
C452 C 0.81238 0.43688 0.00747 0.0
C453 C 0.79217 0.45498 0.99088 0.0
C454 C 0.85887 0.47336 0.76849 0.0
C455 C 0.83367 0.45027 0.87975 0.0
C456 C 0.88278 0.48214 0.7391 0.0
C457 C 0.90603 0.47187 0.77237 0.0
C458 C 0.85819 0.45463 0.83331 0.0
C459 C 0.90467 0.45155 0.8317 0.0
C460 C 0.83319 0.43447 0.952 0.0
C461 C 0.79182 0.46774 0.91282 0.0
N462 N 0.88105 0.44397 0.86193 0.0
N463 N 0.81257 0.46559 0.8611 0.0
H464 H 0.06606 0.20292 0.93901 0.0
H465 H 0.96293 0.10838 0.71633 0.0
H466 H 0.98653 0.225 0.88403 0.0
H467 H 0.04486 0.08889 0.73321 0.0
H468 H 0.97234 0.15197 0.77209 0.0
H469 H 0.06055 0.1633 0.85241 0.0
C470 C 0.04776 0.19993 0.90586 0.0
C471 C 0.0267 0.21726 0.91866 0.0
C472 C 0.98835 0.13827 0.76361 0.0
C473 C 0.01992 0.17148 0.82228 0.0
C474 C 0.98297 0.11316 0.73233 0.0
C475 C 0.00311 0.09473 0.72043 0.0
C476 C 0.01411 0.14523 0.78422 0.0
C477 C 0.02867 0.10232 0.74207 0.0
C478 C 0.0445 0.17713 0.8574 0.0
C479 C 0.00332 0.21231 0.87531 0.0
N480 N 0.03343 0.12698 0.77328 0.0
N481 N 1.00039 0.18963 0.83044 0.0
H482 H 0.30523 0.03423 0.98492 0.0
H483 H 0.3872 0.96072 0.64163 0.0
H484 H 0.27615 0.96941 0.83671 0.0
H485 H 0.41413 0.03186 0.76323 0.0
H486 H 0.34357 0.96878 0.69458 0.0
H487 H 0.34093 0.04008 0.88551 0.0
C488 C 0.3057 0.02208 0.929 0.0
C489 C 0.28783 1.0013 0.91867 0.0
C490 C 0.35886 0.98283 0.70941 0.0
C491 C 0.32915 0.00702 0.80699 0.0
C492 C 0.3839 0.97809 0.67983 0.0
C493 C 0.40446 0.9953 0.70004 0.0
C494 C 0.35427 0.00469 0.76137 0.0
C495 C 0.39887 0.01791 0.74739 0.0
C496 C 0.32628 0.02516 0.87289 0.0
C497 C 0.28948 0.98573 0.84643 0.0
N498 N 0.37435 0.0217 0.77796 0.0
N499 N 0.31018 0.9885 0.7943 0.0
H500 H 0.52406 0.2756 0.88381 0.0
H501 H 0.46286 0.41366 0.73382 0.0
H502 H 0.44478 0.29878 0.9345 0.0
H503 H 0.54367 0.39138 0.70556 0.0
H504 H 0.45388 0.36966 0.79177 0.0
H505 H 0.52893 0.31463 0.79488 0.0
C506 C 0.50734 0.28834 0.87343 0.0
C507 C 0.48403 0.28402 0.91678 0.0
C508 C 0.47356 0.37446 0.77268 0.0
C509 C 0.48973 0.32937 0.81814 0.0
C510 C 0.47873 0.39965 0.74035 0.0
C511 C 0.5041 0.40639 0.71546 0.0
C512 C 0.49388 0.35584 0.7798 0.0
C513 C 0.52383 0.38724 0.72431 0.0
C514 C 0.51025 0.31093 0.82393 0.0
C515 C 0.46312 0.30148 0.90225 0.0
N516 N 0.51831 0.36297 0.75566 0.0
N517 N 0.46659 0.32364 0.85546 0.0
H518 H 0.21878 0.55008 0.85952 0.0
H519 H 0.08213 0.47905 0.75835 0.0
H520 H 0.19236 0.48118 0.99208 0.0
H521 H 0.10333 0.55782 0.68137 0.0
H522 H 0.1261 0.4737 0.82008 0.0
H523 H 0.18131 0.54605 0.76394 0.0
C524 C 0.20575 0.53335 0.86586 0.0
C525 C 0.20875 0.51578 0.93302 0.0
C526 C 0.12106 0.49206 0.78916 0.0
C527 C 0.16514 0.51172 0.82688 0.0
C528 C 0.09596 0.49516 0.75436 0.0
C529 C 0.08882 0.51909 0.71609 0.0
C530 C 0.1392 0.51288 0.78418 0.0
C531 C 0.10768 0.53919 0.7117 0.0
C532 C 0.18407 0.53132 0.81243 0.0
C533 C 0.19084 0.4949 0.9402 0.0
N534 N 0.13186 0.53564 0.74529 0.0
N535 N 0.16953 0.49368 0.88877 0.0
H536 H 0.02829 0.77294 0.35987 0.0
H537 H 0.97446 0.91677 0.47848 0.0
H538 H 0.95608 0.80405 0.26171 0.0
H539 H 0.0513 0.88706 0.53935 0.0
H540 H 0.96323 0.87322 0.41961 0.0
H541 H 0.03178 0.81112 0.4534 0.0
C542 C 0.01253 0.78721 0.36109 0.0
C543 C 0.99169 0.78519 0.30419 0.0
C544 C 0.98249 0.8763 0.44631 0.0
C545 C 0.99619 0.82977 0.40719 0.0
C546 C 0.98895 0.90119 0.47938 0.0
C547 C 0.01399 0.90577 0.51284 0.0
C548 C 1.00112 0.85584 0.44764 0.0
C549 C 0.03187 0.8847 0.5133 0.0
C550 C 0.01474 0.80932 0.41317 0.0
C551 C 0.97221 0.80473 0.30598 0.0
N552 N 0.02511 0.86082 0.48122 0.0
N553 N 0.97514 0.82646 0.35548 0.0
H554 H 0.71685 0.9855 0.24382 0.0
H555 H 0.6085 0.07194 0.47013 0.0
H556 H 0.72533 0.06796 0.30374 0.0
H557 H 0.60274 0.98706 0.45264 0.0
H558 H 0.65222 0.06973 0.41307 0.0
H559 H 0.67733 0.98388 0.33009 0.0
C560 C 0.71103 1.00293 0.27842 0.0
C561 C 0.72442 0.02684 0.2677 0.0
C562 C 0.6415 0.05151 0.42162 0.0
C563 C 0.67878 0.02552 0.36273 0.0
C564 C 0.61633 0.05278 0.45359 0.0
C565 C 0.60176 0.02965 0.46584 0.0
C566 C 0.65238 0.02695 0.40071 0.0
C567 C 0.61316 0.00541 0.44354 0.0
C568 C 0.68825 1.00214 0.3264 0.0
C569 C 0.71568 0.0491 0.31144 0.0
N570 N 0.63779 0.00469 0.41172 0.0
N571 N 0.69322 0.04801 0.35592 0.0
H572 H 0.56666 0.69717 0.27828 0.0
H573 H 0.45676 0.61015 0.49539 0.0
H574 H 0.48765 0.72343 0.31581 0.0
H575 H 0.53742 0.58569 0.48544 0.0
H576 H 0.46871 0.6525 0.43564 0.0
H577 H 0.55801 0.65838 0.36553 0.0
C578 C 0.54779 0.69525 0.30789 0.0
C579 C 0.52789 0.71362 0.29066 0.0
C580 C 0.48388 0.63797 0.44642 0.0
C581 C 0.51746 0.66874 0.38731 0.0
C582 C 0.47705 0.61358 0.48009 0.0
C583 C 0.4961 0.59414 0.4952 0.0
C584 C 0.51002 0.64319 0.42686 0.0
C585 C 0.52205 0.59995 0.47414 0.0
C586 C 0.54273 0.67292 0.3566 0.0
C587 C 0.5036 0.70995 0.32865 0.0
N588 N 0.52824 0.62394 0.44083 0.0
N589 N 0.49894 0.68772 0.37407 0.0
H590 H 0.80257 0.5287 0.22615 0.0
H591 H 0.89293 0.44476 0.53207 0.0
H592 H 0.78019 0.45475 0.33724 0.0
H593 H 0.91332 0.52391 0.45687 0.0
H594 H 0.84993 0.45058 0.47036 0.0
H595 H 0.84027 0.53081 0.32204 0.0
C596 C 0.80491 0.51358 0.27369 0.0
C597 C 0.78803 0.49174 0.27499 0.0
C598 C 0.86365 0.46681 0.46729 0.0
C599 C 0.83174 0.49328 0.38179 0.0
C600 C 0.88845 0.46341 0.50199 0.0
C601 C 0.90706 0.48373 0.49845 0.0
C602 C 0.8572 0.49062 0.42719 0.0
C603 C 0.8997 0.50762 0.46019 0.0
C604 C 0.82667 0.51455 0.32744 0.0
C605 C 0.79246 0.47215 0.33541 0.0
N606 N 0.87542 0.51031 0.42506 0.0
N607 N 0.81406 0.47318 0.3854 0.0
loop_
_geom_bond_atom_site_label_1
_geom_bond_atom_site_label_2
_geom_bond_distance
_geom_bond_site_symmetry_2
_ccdc_geom_bond_type
H0 C5 0.930 . S
H1 C8 0.930 . S
H2 C10 0.930 . S
H3 C4 1.016 . S
C4 H3 1.016 . S
C4 N11 1.286 1_556 S
C5 H0 0.930 . S
C5 C6 1.397 . S
C5 C7 1.361 . S
C6 C5 1.397 . S
C6 C10 1.390 . S
C7 C5 1.361 . S
C7 C8 1.393 1_554 S
C7 N11 1.413 . S
C8 H1 0.930 . S
C8 C7 1.393 1_556 S
C8 C9 1.399 . S
C9 C8 1.399 . S
C9 C10 1.381 1_556 S
C10 H2 0.930 . S
C10 C6 1.390 . S
C10 C9 1.381 1_554 S
N11 C4 1.286 1_554 S
N11 C7 1.413 . S
H12 C17 0.930 . S
H13 C20 0.930 . S
H14 C22 0.930 . S
H15 C16 1.016 . S
C16 H15 1.016 . S
C16 N23 1.286 1_556 S
C17 H12 0.930 . S
C17 C18 1.397 . S
C17 C19 1.361 . S
C18 C17 1.397 . S
C18 C22 1.390 . S
C19 C17 1.361 . S
C19 C20 1.393 1_554 S
C19 N23 1.413 . S
C20 H13 0.930 . S
C20 C19 1.393 1_556 S
C20 C21 1.399 . S
C21 C20 1.399 . S
C21 C22 1.381 1_556 S
C22 H14 0.930 . S
C22 C18 1.390 . S
C22 C21 1.381 1_554 S
N23 C16 1.286 1_554 S
N23 C19 1.413 . S
H24 C29 0.930 . S
H25 C32 0.930 . S
H26 C34 0.930 . S
H27 C28 1.029 . S
C28 H27 1.029 . S
C28 N35 1.268 1_566 S
C29 H24 0.930 . S
C29 C30 1.397 . S
C29 C31 1.361 . S
C30 C29 1.397 . S
C30 C34 1.390 1_545 S
C31 C29 1.361 . S
C31 C32 1.393 1_554 S
C31 N35 1.413 . S
C32 H25 0.930 . S
C32 C31 1.393 1_556 S
C32 C33 1.402 . S
C33 C32 1.402 . S
C33 C34 1.379 1_546 S
C34 H26 0.930 . S
C34 C30 1.390 1_565 S
C34 C33 1.379 1_564 S
N35 C28 1.268 1_544 S
N35 C31 1.413 . S
H36 C41 0.930 . S
H37 C44 0.930 . S
H38 C46 0.930 . S
H39 C40 1.016 . S
C40 H39 1.016 . S
C40 N47 1.286 1_556 S
C41 H36 0.930 . S
C41 C42 1.397 . S
C41 C43 1.361 . S
C42 C41 1.397 . S
C42 C46 1.390 . S
C43 C41 1.361 . S
C43 C44 1.393 1_554 S
C43 N47 1.413 . S
C44 H37 0.930 . S
C44 C43 1.393 1_556 S
C44 C45 1.399 . S
C45 C44 1.399 . S
C45 C46 1.381 1_556 S
C46 H38 0.930 . S
C46 C42 1.390 . S
C46 C45 1.381 1_554 S
N47 C40 1.286 1_554 S
N47 C43 1.413 . S
H48 C53 0.930 . S
H49 C56 0.930 . S
H50 C58 0.930 . S
H51 C52 1.016 . S
C52 H51 1.016 . S
C52 N59 1.286 . S
C53 H48 0.930 . S
C53 C54 1.397 . S
C53 C55 1.361 . S
C54 C53 1.397 . S
C54 C58 1.390 . S
C55 C53 1.361 . S
C55 C56 1.393 . S
C55 N59 1.413 . S
C56 H49 0.930 . S
C56 C55 1.393 . S
C56 C57 1.399 . S
C57 C56 1.399 . S
C57 C58 1.381 . S
C58 H50 0.930 . S
C58 C54 1.390 . S
C58 C57 1.381 . S
N59 C52 1.286 . S
N59 C55 1.413 . S
H60 C65 0.930 . S
H61 C68 0.930 . S
H62 C70 0.930 . S
H63 C64 1.016 . S
C64 H63 1.016 . S
C64 N71 1.286 . S
C65 H60 0.930 . S
C65 C66 1.397 . S
C65 C67 1.361 . S
C66 C65 1.397 . S
C66 C70 1.390 . S
C67 C65 1.361 . S
C67 C68 1.393 . S
C67 N71 1.413 . S
C68 H61 0.930 . S
C68 C67 1.393 . S
C68 C69 1.399 . S
C69 C68 1.399 . S
C69 C70 1.381 . S
C70 H62 0.930 . S
C70 C66 1.390 . S
C70 C69 1.381 . S
N71 C64 1.286 . S
N71 C67 1.413 . S
H72 C77 0.930 . S
H73 C80 0.930 . S
H74 C82 0.930 . S
H75 C76 1.026 . S
C76 H75 1.026 . S
C76 N83 1.273 1_565 S
C77 H72 0.930 . S
C77 C78 1.397 . S
C77 C79 1.361 . S
C78 C77 1.397 . S
C78 C82 1.390 1_545 S
C79 C77 1.361 . S
C79 C80 1.393 . S
C79 N83 1.413 . S
C80 H73 0.930 . S
C80 C79 1.393 . S
C80 C81 1.404 . S
C81 C80 1.404 . S
C81 C82 1.378 1_545 S
C82 H74 0.930 . S
C82 C78 1.390 1_565 S
C82 C81 1.378 1_565 S
N83 C76 1.273 1_545 S
N83 C79 1.413 . S
H84 C89 0.930 . S
H85 C92 0.930 . S
H86 C94 0.930 . S
H87 C88 1.016 . S
C88 H87 1.016 . S
C88 N95 1.286 . S
C89 H84 0.930 . S
C89 C90 1.397 . S
C89 C91 1.361 . S
C90 C89 1.397 . S
C90 C94 1.390 . S
C91 C89 1.361 . S
C91 C92 1.393 . S
C91 N95 1.413 . S
C92 H85 0.930 . S
C92 C91 1.393 . S
C92 C93 1.399 . S
C93 C92 1.399 . S
C93 C94 1.381 . S
C94 H86 0.930 . S
C94 C90 1.390 . S
C94 C93 1.381 . S
N95 C88 1.286 . S
N95 C91 1.413 . S
Zn96 O102 1.969 1_455 S
Zn96 O103 1.965 . S
Zn96 O107 2.024 . S
Zn96 O112 1.969 1_455 S
Zn97 O104 1.989 . S
Zn97 O110 1.977 . S
Zn97 O111 1.955 1_455 S
Zn97 O113 2.011 1_455 S
C98 O99 1.229 . S
C98 O107 1.058 . S
O99 C98 1.229 . S
C100 O101 1.229 1_655 S
C100 O113 1.058 . S
O101 C100 1.229 1_455 S
O102 Zn96 1.969 1_655 S
O102 C105 1.267 1_655 S
O103 Zn96 1.965 . S
O103 C114 1.260 1_545 S
O104 Zn97 1.989 . S
O104 C114 1.258 . S
C105 O102 1.267 1_455 S
C105 O106 1.228 . S
O106 C105 1.228 . S
O107 Zn96 2.024 . S
O107 C98 1.058 . S
C108 O109 1.228 . S
C108 O110 1.267 1_655 S
O109 C108 1.228 . S
O110 Zn97 1.977 . S
O110 C108 1.267 1_455 S
O111 Zn97 1.955 1_655 S
O111 C115 1.260 1_565 S
O112 Zn96 1.969 1_655 S
O112 C115 1.258 . S
O113 Zn97 2.011 1_655 S
O113 C100 1.058 . S
C114 O103 1.260 1_565 S
C114 O104 1.258 . S
C115 O111 1.260 1_545 S
C115 O112 1.258 . S
Zn116 O122 1.969 . S
Zn116 O123 1.965 1_565 S
Zn116 O127 2.024 1_565 S
Zn116 O132 1.969 . S
Zn117 O124 1.969 . S
Zn117 O130 1.969 . S
Zn117 O131 1.965 1_545 S
Zn117 O133 2.024 1_545 S
C118 O119 1.229 1_545 S
C118 O127 1.058 . S
O119 C118 1.229 1_565 S
C120 O121 1.229 1_565 S
C120 O133 1.058 . S
O121 C120 1.229 1_545 S
O122 Zn116 1.969 . S
O122 C125 1.267 . S
O123 Zn116 1.965 1_545 S
O123 C134 1.260 . S
O124 Zn117 1.969 . S
O124 C134 1.258 . S
C125 O122 1.267 . S
C125 O126 1.228 1_565 S
O126 C125 1.228 1_545 S
O127 Zn116 2.024 1_545 S
O127 C118 1.058 . S
C128 O129 1.228 1_545 S
C128 O130 1.267 . S
O129 C128 1.228 1_565 S
O130 Zn117 1.969 . S
O130 C128 1.267 . S
O131 Zn117 1.965 1_565 S
O131 C135 1.260 . S
O132 Zn116 1.969 . S
O132 C135 1.258 . S
O133 Zn117 2.024 1_565 S
O133 C120 1.058 . S
C134 O123 1.260 . S
C134 O124 1.258 . S
C135 O131 1.260 . S
C135 O132 1.258 . S
Zn136 O142 1.969 . S
Zn136 O143 1.965 . S
Zn136 O147 2.024 . S
Zn136 O152 1.969 . S
Zn137 O144 1.969 . S
Zn137 O150 1.969 . S
Zn137 O151 1.965 . S
Zn137 O153 2.024 . S
C138 O139 1.229 . S
C138 O147 1.058 . S
O139 C138 1.229 . S
C140 O141 1.229 . S
C140 O153 1.058 . S
O141 C140 1.229 . S
O142 Zn136 1.969 . S
O142 C145 1.267 . S
O143 Zn136 1.965 . S
O143 C154 1.260 . S
O144 Zn137 1.969 . S
O144 C154 1.258 . S
C145 O142 1.267 . S
C145 O146 1.228 . S
O146 C145 1.228 . S
O147 Zn136 2.024 . S
O147 C138 1.058 . S
C148 O149 1.228 . S
C148 O150 1.267 . S
O149 C148 1.228 . S
O150 Zn137 1.969 . S
O150 C148 1.267 . S
O151 Zn137 1.965 . S
O151 C155 1.260 . S
O152 Zn136 1.969 . S
O152 C155 1.258 . S
O153 Zn137 2.024 . S
O153 C140 1.058 . S
C154 O143 1.260 . S
C154 O144 1.258 . S
C155 O151 1.260 . S
C155 O152 1.258 . S
Zn156 O162 1.969 . S
Zn156 O163 1.965 . S
Zn156 O167 2.024 . S
Zn156 O172 1.969 . S
Zn157 O164 1.969 . S
Zn157 O170 1.969 . S
Zn157 O171 1.965 . S
Zn157 O173 2.024 . S
C158 O159 1.229 . S
C158 O167 1.058 . S
O159 C158 1.229 . S
C160 O161 1.229 . S
C160 O173 1.058 . S
O161 C160 1.229 . S
O162 Zn156 1.969 . S
O162 C165 1.267 . S
O163 Zn156 1.965 . S
O163 C174 1.260 . S
O164 Zn157 1.969 . S
O164 C174 1.258 1_655 S
C165 O162 1.267 . S
C165 O166 1.228 . S
O166 C165 1.228 . S
O167 Zn156 2.024 . S
O167 C158 1.058 . S
C168 O169 1.228 . S
C168 O170 1.267 . S
O169 C168 1.228 . S
O170 Zn157 1.969 . S
O170 C168 1.267 . S
O171 Zn157 1.965 . S
O171 C175 1.260 1_655 S
O172 Zn156 1.969 . S
O172 C175 1.258 . S
O173 Zn157 2.024 . S
O173 C160 1.058 . S
C174 O163 1.260 . S
C174 O164 1.258 1_455 S
C175 O171 1.260 1_455 S
C175 O172 1.258 . S
H176 C182 0.930 . S
H177 C186 0.930 . S
H178 C191 0.929 . S
H179 C189 0.929 . S
H180 C184 0.929 . S
H181 C190 0.929 . S
C182 H176 0.930 . S
C182 C183 1.389 . S
C182 C190 1.378 . S
C183 C182 1.389 . S
C183 C191 1.411 1_565 S
C184 H180 0.929 . S
C184 C186 1.378 . S
C184 C188 1.354 1_545 S
C185 C188 1.462 . S
C185 C190 1.350 . S
C185 N193 1.427 1_565 S
C186 H177 0.930 . S
C186 C184 1.378 . S
C186 C187 1.338 1_545 S
C187 C186 1.338 1_565 S
C187 C189 1.463 . S
C188 C184 1.354 1_565 S
C188 C185 1.462 . S
C188 N192 1.423 . S
C189 H179 0.929 . S
C189 C187 1.463 . S
C189 N192 1.384 . S
C190 H181 0.929 . S
C190 C182 1.378 . S
C190 C185 1.350 . S
C191 H178 0.929 . S
C191 C183 1.411 1_545 S
C191 N193 1.384 . S
N192 C188 1.423 . S
N192 C189 1.384 . S
N193 C185 1.427 1_545 S
N193 C191 1.384 . S
H194 C200 0.930 . S
H195 C204 0.930 . S
H196 C209 0.929 . S
H197 C207 0.929 . S
H198 C202 0.929 . S
H199 C208 0.929 . S
C200 H194 0.930 . S
C200 C201 1.367 . S
C200 C208 1.378 . S
C201 C200 1.367 . S
C201 C209 1.433 . S
C202 H198 0.929 . S
C202 C204 1.378 . S
C202 C206 1.350 . S
C203 C206 1.463 . S
C203 C208 1.350 . S
C203 N211 1.427 . S
C204 H195 0.930 . S
C204 C202 1.378 . S
C204 C205 1.367 . S
C205 C204 1.367 . S
C205 C207 1.433 . S
C206 C202 1.350 . S
C206 C203 1.463 . S
C206 N210 1.427 . S
C207 H197 0.929 . S
C207 C205 1.433 . S
C207 N210 1.384 . S
C208 H199 0.929 . S
C208 C200 1.378 . S
C208 C203 1.350 . S
C209 H196 0.929 . S
C209 C201 1.433 . S
C209 N211 1.384 . S
N210 C206 1.427 . S
N210 C207 1.384 . S
N211 C203 1.427 . S
N211 C209 1.384 . S
H212 C218 0.930 . S
H213 C222 0.930 . S
H214 C227 0.929 . S
H215 C225 0.929 . S
H216 C220 0.929 . S
H217 C226 0.929 . S
C218 H212 0.930 . S
C218 C219 1.367 . S
C218 C226 1.378 . S
C219 C218 1.367 . S
C219 C227 1.433 . S
C220 H216 0.929 . S
C220 C222 1.378 . S
C220 C224 1.350 . S
C221 C224 1.463 . S
C221 C226 1.350 . S
C221 N229 1.427 . S
C222 H213 0.930 . S
C222 C220 1.378 . S
C222 C223 1.367 . S
C223 C222 1.367 . S
C223 C225 1.433 . S
C224 C220 1.350 . S
C224 C221 1.463 . S
C224 N228 1.427 . S
C225 H215 0.929 . S
C225 C223 1.433 . S
C225 N228 1.384 . S
C226 H217 0.929 . S
C226 C218 1.378 . S
C226 C221 1.350 . S
C227 H214 0.929 . S
C227 C219 1.433 . S
C227 N229 1.384 . S
N228 C224 1.427 . S
N228 C225 1.384 . S
N229 C221 1.427 . S
N229 C227 1.384 . S
H230 C236 0.930 . S
H231 C240 0.930 . S
H232 C245 0.929 . S
H233 C243 0.929 . S
H234 C238 0.929 . S
H235 C244 0.929 1_655 S
C236 H230 0.930 . S
C236 C237 1.367 . S
C236 C244 1.378 . S
C237 C236 1.367 . S
C237 C245 1.433 . S
C238 H234 0.929 . S
C238 C240 1.378 . S
C238 C242 1.350 . S
C239 C242 1.463 . S
C239 C244 1.350 . S
C239 N247 1.427 . S
C240 H231 0.930 . S
C240 C238 1.378 . S
C240 C241 1.367 . S
C241 C240 1.367 . S
C241 C243 1.433 1_455 S
C242 C238 1.350 . S
C242 C239 1.463 . S
C242 N246 1.441 . S
C243 H233 0.929 . S
C243 C241 1.433 1_655 S
C243 N246 1.380 1_655 S
C244 H235 0.929 1_455 S
C244 C236 1.378 . S
C244 C239 1.350 . S
C245 H232 0.929 . S
C245 C237 1.433 . S
C245 N247 1.384 . S
N246 C242 1.441 . S
N246 C243 1.380 1_455 S
N247 C239 1.427 . S
N247 C245 1.384 . S
H248 C254 0.930 1_554 S
H249 C258 0.930 . S
H250 C263 0.929 . S
H251 C261 0.929 . S
H252 C256 0.929 . S
H253 C262 0.929 . S
C254 H248 0.930 1_556 S
C254 C255 1.371 . S
C254 C262 1.378 . S
C255 C254 1.371 . S
C255 C263 1.429 1_545 S
C256 H252 0.929 . S
C256 C258 1.378 . S
C256 C260 1.342 1_565 S
C257 C260 1.462 . S
C257 C262 1.362 . S
C257 N265 1.416 1_545 S
C258 H249 0.930 . S
C258 C256 1.378 . S
C258 C259 1.367 1_565 S
C259 C258 1.367 1_545 S
C259 C261 1.433 . S
C260 C256 1.342 1_545 S
C260 C257 1.462 . S
C260 N264 1.437 . S
C261 H251 0.929 . S
C261 C259 1.433 . S
C261 N264 1.384 . S
C262 H253 0.929 . S
C262 C254 1.378 . S
C262 C257 1.362 . S
C263 H250 0.929 . S
C263 C255 1.429 1_565 S
C263 N265 1.384 . S
N264 C260 1.437 . S
N264 C261 1.384 . S
N265 C257 1.416 1_565 S
N265 C263 1.384 . S
H266 C272 0.930 . S
H267 C276 0.930 . S
H268 C281 0.929 . S
H269 C279 0.929 . S
H270 C274 0.929 . S
H271 C280 0.929 . S
C272 H266 0.930 . S
C272 C273 1.367 . S
C272 C280 1.378 . S
C273 C272 1.367 . S
C273 C281 1.433 . S
C274 H270 0.929 . S
C274 C276 1.378 . S
C274 C278 1.350 . S
C275 C278 1.463 . S
C275 C280 1.350 . S
C275 N283 1.427 . S
C276 H267 0.930 . S
C276 C274 1.378 . S
C276 C277 1.367 . S
C277 C276 1.367 . S
C277 C279 1.433 . S
C278 C274 1.350 . S
C278 C275 1.463 . S
C278 N282 1.427 . S
C279 H269 0.929 . S
C279 C277 1.433 . S
C279 N282 1.384 . S
C280 H271 0.929 . S
C280 C272 1.378 . S
C280 C275 1.350 . S
C281 H268 0.929 . S
C281 C273 1.433 . S
C281 N283 1.384 . S
N282 C278 1.427 . S
N282 C279 1.384 . S
N283 C275 1.427 . S
N283 C281 1.384 . S
H284 C290 0.930 . S
H285 C294 0.930 . S
H286 C299 0.929 1_554 S
H287 C297 0.929 . S
H288 C292 0.929 . S
H289 C298 0.929 . S
C290 H284 0.930 . S
C290 C291 1.367 . S
C290 C298 1.378 . S
C291 C290 1.367 . S
C291 C299 1.433 . S
C292 H288 0.929 . S
C292 C294 1.378 . S
C292 C296 1.350 . S
C293 C296 1.463 . S
C293 C298 1.350 . S
C293 N301 1.427 . S
C294 H285 0.930 . S
C294 C292 1.378 . S
C294 C295 1.367 . S
C295 C294 1.367 . S
C295 C297 1.433 . S
C296 C292 1.350 . S
C296 C293 1.463 . S
C296 N300 1.427 . S
C297 H287 0.929 . S
C297 C295 1.433 . S
C297 N300 1.384 . S
C298 H289 0.929 . S
C298 C290 1.378 . S
C298 C293 1.350 . S
C299 H286 0.929 1_556 S
C299 C291 1.433 . S
C299 N301 1.384 . S
N300 C296 1.427 . S
N300 C297 1.384 . S
N301 C293 1.427 . S
N301 C299 1.384 . S
H302 C308 0.930 . S
H303 C312 0.930 . S
H304 C317 0.929 1_554 S
H305 C315 0.929 . S
H306 C310 0.929 . S
H307 C316 0.929 . S
C308 H302 0.930 . S
C308 C309 1.367 . S
C308 C316 1.378 . S
C309 C308 1.367 . S
C309 C317 1.433 . S
C310 H306 0.929 . S
C310 C312 1.378 . S
C310 C314 1.350 . S
C311 C314 1.463 . S
C311 C316 1.350 . S
C311 N319 1.427 . S
C312 H303 0.930 . S
C312 C310 1.378 . S
C312 C313 1.367 . S
C313 C312 1.367 . S
C313 C315 1.433 . S
C314 C310 1.350 . S
C314 C311 1.463 . S
C314 N318 1.427 . S
C315 H305 0.929 . S
C315 C313 1.433 . S
C315 N318 1.384 . S
C316 H307 0.929 . S
C316 C308 1.378 . S
C316 C311 1.350 . S
C317 H304 0.929 1_556 S
C317 C309 1.433 . S
C317 N319 1.384 . S
N318 C314 1.427 . S
N318 C315 1.384 . S
N319 C311 1.427 . S
N319 C317 1.384 . S
H320 C326 0.930 . S
H321 C330 0.930 . S
H322 C335 0.929 . S
H323 C333 0.929 . S
H324 C328 0.955 . S
H325 C334 0.929 . S
C326 H320 0.930 . S
C326 C327 1.367 . S
C326 C334 1.378 . S
C327 C326 1.367 . S
C327 C335 1.433 . S
C328 H324 0.955 . S
C328 C330 1.391 . S
C328 C332 1.311 1_655 S
C329 C332 1.463 . S
C329 C334 1.350 . S
C329 N337 1.427 . S
C330 H321 0.930 . S
C330 C328 1.391 . S
C330 C331 1.367 1_655 S
C331 C330 1.367 1_455 S
C331 C333 1.433 . S
C332 C328 1.311 1_455 S
C332 C329 1.463 . S
C332 N336 1.427 . S
C333 H323 0.929 . S
C333 C331 1.433 . S
C333 N336 1.384 . S
C334 H325 0.929 . S
C334 C326 1.378 . S
C334 C329 1.350 . S
C335 H322 0.929 . S
C335 C327 1.433 . S
C335 N337 1.384 . S
N336 C332 1.427 . S
N336 C333 1.384 . S
N337 C329 1.427 . S
N337 C335 1.384 . S
H338 C344 0.930 . S
H339 C348 0.930 . S
H340 C353 0.929 . S
H341 C351 0.929 . S
H342 C346 0.929 . S
H343 C352 0.929 . S
C344 H338 0.930 . S
C344 C345 1.367 . S
C344 C352 1.378 . S
C345 C344 1.367 . S
C345 C353 1.433 1_565 S
C346 H342 0.929 . S
C346 C348 1.378 . S
C346 C350 1.350 . S
C347 C350 1.463 . S
C347 C352 1.350 . S
C347 N355 1.429 . S
C348 H339 0.930 . S
C348 C346 1.378 . S
C348 C349 1.367 . S
C349 C348 1.367 . S
C349 C351 1.433 . S
C350 C346 1.350 . S
C350 C347 1.463 . S
C350 N354 1.427 . S
C351 H341 0.929 . S
C351 C349 1.433 . S
C351 N354 1.384 . S
C352 H343 0.929 . S
C352 C344 1.378 . S
C352 C347 1.350 . S
C353 H340 0.929 . S
C353 C345 1.433 1_545 S
C353 N355 1.383 1_545 S
N354 C350 1.427 . S
N354 C351 1.384 . S
N355 C347 1.429 . S
N355 C353 1.383 1_565 S
H356 C362 0.930 . S
H357 C366 0.930 . S
H358 C371 0.929 . S
H359 C369 0.929 . S
H360 C364 0.929 . S
H361 C370 0.929 . S
C362 H356 0.930 . S
C362 C363 1.367 . S
C362 C370 1.378 . S
C363 C362 1.367 . S
C363 C371 1.433 . S
C364 H360 0.929 . S
C364 C366 1.378 . S
C364 C368 1.350 . S
C365 C368 1.463 . S
C365 C370 1.350 . S
C365 N373 1.427 . S
C366 H357 0.930 . S
C366 C364 1.378 . S
C366 C367 1.367 . S
C367 C366 1.367 . S
C367 C369 1.433 . S
C368 C364 1.350 . S
C368 C365 1.463 . S
C368 N372 1.427 . S
C369 H359 0.929 . S
C369 C367 1.433 . S
C369 N372 1.384 . S
C370 H361 0.929 . S
C370 C362 1.378 . S
C370 C365 1.350 . S
C371 H358 0.929 . S
C371 C363 1.433 . S
C371 N373 1.384 . S
N372 C368 1.427 . S
N372 C369 1.384 . S
N373 C365 1.427 . S
N373 C371 1.384 . S
H374 C380 0.930 . S
H375 C384 0.930 . S
H376 C389 0.929 . S
H377 C387 0.929 . S
H378 C382 0.929 . S
H379 C388 0.929 . S
C380 H374 0.930 . S
C380 C381 1.367 . S
C380 C388 1.378 . S
C381 C380 1.367 . S
C381 C389 1.433 . S
C382 H378 0.929 . S
C382 C384 1.378 . S
C382 C386 1.350 . S
C383 C386 1.463 . S
C383 C388 1.350 . S
C383 N391 1.427 . S
C384 H375 0.930 . S
C384 C382 1.378 . S
C384 C385 1.367 . S
C385 C384 1.367 . S
C385 C387 1.433 . S
C386 C382 1.350 . S
C386 C383 1.463 . S
C386 N390 1.427 . S
C387 H377 0.929 . S
C387 C385 1.433 . S
C387 N390 1.384 . S
C388 H379 0.929 . S
C388 C380 1.378 . S
C388 C383 1.350 . S
C389 H376 0.929 . S
C389 C381 1.433 . S
C389 N391 1.384 . S
N390 C386 1.427 . S
N390 C387 1.384 . S
N391 C383 1.427 . S
N391 C389 1.384 . S
H392 C398 0.930 . S
H393 C402 0.930 . S
H394 C407 0.929 1_554 S
H395 C405 0.929 . S
H396 C400 0.929 . S
H397 C406 0.929 . S
C398 H392 0.930 . S
C398 C399 1.367 . S
C398 C406 1.378 . S
C399 C398 1.367 . S
C399 C407 1.433 . S
C400 H396 0.929 . S
C400 C402 1.378 . S
C400 C404 1.350 1_455 S
C401 C404 1.463 . S
C401 C406 1.350 . S
C401 N409 1.427 . S
C402 H393 0.930 . S
C402 C400 1.378 . S
C402 C403 1.370 . S
C403 C402 1.370 . S
C403 C405 1.428 1_455 S
C404 C400 1.350 1_655 S
C404 C401 1.463 . S
C404 N408 1.427 . S
C405 H395 0.929 . S
C405 C403 1.428 1_655 S
C405 N408 1.384 . S
C406 H397 0.929 . S
C406 C398 1.378 . S
C406 C401 1.350 . S
C407 H394 0.929 1_556 S
C407 C399 1.433 . S
C407 N409 1.384 . S
N408 C404 1.427 . S
N408 C405 1.384 . S
N409 C401 1.427 . S
N409 C407 1.384 . S
H410 C416 0.930 . S
H411 C420 0.930 . S
H412 C425 0.932 . S
H413 C423 0.929 . S
H414 C418 0.929 . S
H415 C424 0.929 . S
C416 H410 0.930 . S
C416 C417 1.368 . S
C416 C424 1.378 . S
C417 C416 1.368 . S
C417 C425 1.433 1_546 S
C418 H414 0.929 . S
C418 C420 1.378 . S
C418 C422 1.350 . S
C419 C422 1.463 . S
C419 C424 1.350 . S
C419 N427 1.427 . S
C420 H411 0.930 . S
C420 C418 1.378 . S
C420 C421 1.367 . S
C421 C420 1.367 . S
C421 C423 1.433 . S
C422 C418 1.350 . S
C422 C419 1.463 . S
C422 N426 1.427 . S
C423 H413 0.929 . S
C423 C421 1.433 . S
C423 N426 1.384 . S
C424 H415 0.929 . S
C424 C416 1.378 . S
C424 C419 1.350 . S
C425 H412 0.932 . S
C425 C417 1.433 1_564 S
C425 N427 1.382 1_564 S
N426 C422 1.427 . S
N426 C423 1.384 . S
N427 C419 1.427 . S
N427 C425 1.382 1_546 S
H428 C434 0.930 1_554 S
H429 C438 0.930 . S
H430 C443 0.929 . S
H431 C441 0.929 . S
H432 C436 0.929 . S
H433 C442 0.929 . S
C434 H428 0.930 1_556 S
C434 C435 1.367 . S
C434 C442 1.378 . S
C435 C434 1.367 . S
C435 C443 1.433 . S
C436 H432 0.929 . S
C436 C438 1.378 . S
C436 C440 1.350 . S
C437 C440 1.463 . S
C437 C442 1.350 . S
C437 N445 1.427 . S
C438 H429 0.930 . S
C438 C436 1.378 . S
C438 C439 1.367 . S
C439 C438 1.367 . S
C439 C441 1.433 . S
C440 C436 1.350 . S
C440 C437 1.463 . S
C440 N444 1.427 . S
C441 H431 0.929 . S
C441 C439 1.433 . S
C441 N444 1.384 . S
C442 H433 0.929 . S
C442 C434 1.378 . S
C442 C437 1.350 . S
C443 H430 0.929 . S
C443 C435 1.433 . S
C443 N445 1.384 . S
N444 C440 1.427 . S
N444 C441 1.384 . S
N445 C437 1.427 . S
N445 C443 1.384 . S
H446 C452 0.930 . S
H447 C456 0.930 . S
H448 C461 0.929 . S
H449 C459 0.929 . S
H450 C454 0.929 . S
H451 C460 0.929 . S
C452 H446 0.930 . S
C452 C453 1.367 . S
C452 C460 1.378 . S
C453 C452 1.367 . S
C453 C461 1.433 . S
C454 H450 0.929 . S
C454 C456 1.378 . S
C454 C458 1.350 . S
C455 C458 1.463 . S
C455 C460 1.350 . S
C455 N463 1.427 . S
C456 H447 0.930 . S
C456 C454 1.378 . S
C456 C457 1.367 . S
C457 C456 1.367 . S
C457 C459 1.433 . S
C458 C454 1.350 . S
C458 C455 1.463 . S
C458 N462 1.427 . S
C459 H449 0.929 . S
C459 C457 1.433 . S
C459 N462 1.384 . S
C460 H451 0.929 . S
C460 C452 1.378 . S
C460 C455 1.350 . S
C461 H448 0.929 . S
C461 C453 1.433 . S
C461 N463 1.384 . S
N462 C458 1.427 . S
N462 C459 1.384 . S
N463 C455 1.427 . S
N463 C461 1.384 . S
H464 C470 0.930 . S
H465 C474 0.930 . S
H466 C479 0.929 . S
H467 C477 0.929 . S
H468 C472 0.929 . S
H469 C478 0.929 . S
C470 H464 0.930 . S
C470 C471 1.367 1_556 S
C470 C478 1.378 . S
C471 C470 1.367 1_554 S
C471 C479 1.433 . S
C472 H468 0.929 . S
C472 C474 1.378 . S
C472 C476 1.350 . S
C473 C476 1.463 . S
C473 C478 1.350 . S
C473 N481 1.427 . S
C474 H465 0.930 . S
C474 C472 1.378 . S
C474 C475 1.367 . S
C475 C474 1.367 . S
C475 C477 1.433 . S
C476 C472 1.350 . S
C476 C473 1.463 . S
C476 N480 1.427 . S
C477 H467 0.929 . S
C477 C475 1.433 . S
C477 N480 1.384 . S
C478 H469 0.929 . S
C478 C470 1.378 . S
C478 C473 1.350 . S
C479 H466 0.929 . S
C479 C471 1.433 . S
C479 N481 1.384 1_554 S
N480 C476 1.427 . S
N480 C477 1.384 . S
N481 C473 1.427 . S
N481 C479 1.384 1_556 S
H482 C488 0.930 . S
H483 C492 0.930 . S
H484 C497 0.928 1_565 S
H485 C495 0.929 . S
H486 C490 0.929 . S
H487 C496 0.929 . S
C488 H482 0.930 . S
C488 C489 1.367 . S
C488 C496 1.378 . S
C489 C488 1.367 . S
C489 C497 1.434 1_554 S
C490 H486 0.929 . S
C490 C492 1.378 . S
C490 C494 1.350 . S
C491 C494 1.463 . S
C491 C496 1.350 1_556 S
C491 N499 1.427 . S
C492 H483 0.930 . S
C492 C490 1.378 . S
C492 C493 1.367 . S
C493 C492 1.367 . S
C493 C495 1.433 . S
C494 C490 1.350 . S
C494 C491 1.463 . S
C494 N498 1.427 . S
C495 H485 0.929 . S
C495 C493 1.433 . S
C495 N498 1.384 . S
C496 H487 0.929 . S
C496 C488 1.378 . S
C496 C491 1.350 1_554 S
C497 H484 0.928 1_545 S
C497 C489 1.434 1_556 S
C497 N499 1.384 . S
N498 C494 1.427 . S
N498 C495 1.384 . S
N499 C491 1.427 . S
N499 C497 1.384 . S
H500 C506 0.930 . S
H501 C510 0.930 . S
H502 C515 0.929 . S
H503 C513 0.929 . S
H504 C508 0.929 . S
H505 C514 0.929 1_554 S
C506 H500 0.930 . S
C506 C507 1.367 . S
C506 C514 1.378 1_554 S
C507 C506 1.367 . S
C507 C515 1.433 1_554 S
C508 H504 0.929 . S
C508 C510 1.378 . S
C508 C512 1.350 . S
C509 C512 1.463 . S
C509 C514 1.350 . S
C509 N517 1.427 . S
C510 H501 0.930 . S
C510 C508 1.378 . S
C510 C511 1.367 . S
C511 C510 1.367 . S
C511 C513 1.433 . S
C512 C508 1.350 . S
C512 C509 1.463 . S
C512 N516 1.427 . S
C513 H503 0.929 . S
C513 C511 1.433 . S
C513 N516 1.384 . S
C514 H505 0.929 1_556 S
C514 C506 1.378 1_556 S
C514 C509 1.350 . S
C515 H502 0.929 . S
C515 C507 1.433 1_556 S
C515 N517 1.384 . S
N516 C512 1.427 . S
N516 C513 1.384 . S
N517 C509 1.427 . S
N517 C515 1.384 . S
H518 C524 0.930 . S
H519 C528 0.930 . S
H520 C533 0.929 1_554 S
H521 C531 0.929 . S
H522 C526 0.929 . S
H523 C532 0.929 . S
C524 H518 0.930 . S
C524 C525 1.366 1_556 S
C524 C532 1.378 . S
C525 C524 1.366 1_554 S
C525 C533 1.433 1_554 S
C526 H522 0.929 . S
C526 C528 1.378 . S
C526 C530 1.350 . S
C527 C530 1.463 . S
C527 C532 1.350 . S
C527 N535 1.427 . S
C528 H519 0.930 . S
C528 C526 1.378 . S
C528 C529 1.367 . S
C529 C528 1.367 . S
C529 C531 1.433 . S
C530 C526 1.350 . S
C530 C527 1.463 . S
C530 N534 1.427 . S
C531 H521 0.929 . S
C531 C529 1.433 . S
C531 N534 1.384 . S
C532 H523 0.929 . S
C532 C524 1.378 . S
C532 C527 1.350 . S
C533 H520 0.929 1_556 S
C533 C525 1.433 1_556 S
C533 N535 1.384 . S
N534 C530 1.427 . S
N534 C531 1.384 . S
N535 C527 1.427 . S
N535 C533 1.384 . S
H536 C542 0.930 . S
H537 C546 0.930 . S
H538 C551 0.929 . S
H539 C549 0.929 1_455 S
H540 C544 0.929 . S
H541 C550 0.929 . S
C542 H536 0.930 . S
C542 C543 1.367 . S
C542 C550 1.378 . S
C543 C542 1.367 . S
C543 C551 1.433 . S
C544 H540 0.929 . S
C544 C546 1.378 . S
C544 C548 1.350 . S
C545 C548 1.463 . S
C545 C550 1.350 . S
C545 N553 1.427 . S
C546 H537 0.930 . S
C546 C544 1.378 . S
C546 C547 1.367 . S
C547 C546 1.367 . S
C547 C549 1.433 . S
C548 C544 1.350 . S
C548 C545 1.463 . S
C548 N552 1.427 . S
C549 H539 0.929 1_655 S
C549 C547 1.433 . S
C549 N552 1.384 . S
C550 H541 0.929 . S
C550 C542 1.378 . S
C550 C545 1.350 . S
C551 H538 0.929 . S
C551 C543 1.433 . S
C551 N553 1.384 . S
N552 C548 1.427 . S
N552 C549 1.384 . S
N553 C545 1.427 . S
N553 C551 1.384 . S
H554 C560 0.930 . S
H555 C564 0.930 . S
H556 C569 0.929 . S
H557 C567 0.929 . S
H558 C562 0.929 . S
H559 C568 0.929 . S
C560 H554 0.930 . S
C560 C561 1.367 . S
C560 C568 1.378 . S
C561 C560 1.367 . S
C561 C569 1.433 1_565 S
C562 H558 0.929 . S
C562 C564 1.378 . S
C562 C566 1.350 1_545 S
C563 C566 1.463 . S
C563 C568 1.350 . S
C563 N571 1.427 1_565 S
C564 H555 0.930 . S
C564 C562 1.378 . S
C564 C565 1.367 1_545 S
C565 C564 1.367 1_565 S
C565 C567 1.433 . S
C566 C562 1.350 1_565 S
C566 C563 1.463 . S
C566 N570 1.427 . S
C567 H557 0.929 . S
C567 C565 1.433 . S
C567 N570 1.384 . S
C568 H559 0.929 . S
C568 C560 1.378 . S
C568 C563 1.350 . S
C569 H556 0.929 . S
C569 C561 1.433 1_545 S
C569 N571 1.384 . S
N570 C566 1.427 . S
N570 C567 1.384 . S
N571 C563 1.427 1_545 S
N571 C569 1.384 . S
H572 C578 0.930 . S
H573 C582 0.930 . S
H574 C587 0.929 . S
H575 C585 0.929 . S
H576 C580 0.929 . S
H577 C586 0.929 . S
C578 H572 0.930 . S
C578 C579 1.367 . S
C578 C586 1.378 . S
C579 C578 1.367 . S
C579 C587 1.433 . S
C580 H576 0.929 . S
C580 C582 1.378 . S
C580 C584 1.350 . S
C581 C584 1.463 . S
C581 C586 1.350 . S
C581 N589 1.427 . S
C582 H573 0.930 . S
C582 C580 1.378 . S
C582 C583 1.367 . S
C583 C582 1.367 . S
C583 C585 1.433 . S
C584 C580 1.350 . S
C584 C581 1.463 . S
C584 N588 1.427 . S
C585 H575 0.929 . S
C585 C583 1.433 . S
C585 N588 1.384 . S
C586 H577 0.929 . S
C586 C578 1.378 . S
C586 C581 1.350 . S
C587 H574 0.929 . S
C587 C579 1.433 . S
C587 N589 1.384 . S
N588 C584 1.427 . S
N588 C585 1.384 . S
N589 C581 1.427 . S
N589 C587 1.384 . S
H590 C596 0.930 . S
H591 C600 0.930 . S
H592 C605 0.929 . S
H593 C603 0.929 . S
H594 C598 0.929 . S
H595 C604 0.929 . S
C596 H590 0.930 . S
C596 C597 1.367 . S
C596 C604 1.378 . S
C597 C596 1.367 . S
C597 C605 1.433 . S
C598 H594 0.929 . S
C598 C600 1.378 . S
C598 C602 1.350 . S
C599 C602 1.463 . S
C599 C604 1.350 . S
C599 N607 1.427 . S
C600 H591 0.930 . S
C600 C598 1.378 . S
C600 C601 1.367 . S
C601 C600 1.367 . S
C601 C603 1.433 . S
C602 C598 1.350 . S
C602 C599 1.463 . S
C602 N606 1.427 . S
C603 H593 0.929 . S
C603 C601 1.433 . S
C603 N606 1.384 . S
C604 H595 0.929 . S
C604 C596 1.378 . S
C604 C599 1.350 . S
C605 H592 0.929 . S
C605 C597 1.433 . S
C605 N607 1.384 . S
N606 C602 1.427 . S
N606 C603 1.384 . S
N607 C599 1.427 . S
N607 C605 1.384 . S
C183 C76 1.464 . S
C187 C114 1.487 . S
C205 C134 1.566 . S
C201 C88 1.525 . S
C223 C154 1.476 . S
C219 C52 1.467 . S
C241 C174 1.561 . S
C237 C64 1.521 . S
C259 C115 1.487 . S
C255 C28 1.473 1_545 S
C273 C40 1.533 . S
C277 C135 1.566 . S
C291 C4 1.459 . S
C295 C155 1.472 . S
C309 C16 1.527 . S
C313 C175 1.552 1_655 S
C331 C105 0.857 . S
C327 C69 0.858 . S
C349 C125 0.842 . S
C345 C81 0.851 1_565 S
C367 C145 0.864 . S
C363 C93 0.868 . S
C381 C57 0.843 . S
C385 C165 0.845 . S
C399 C21 0.871 . S
C403 C108 0.867 1_455 S
C421 C128 0.842 . S
C417 C33 0.851 . S
C439 C148 0.841 . S
C435 C45 0.850 . S
C453 C9 0.840 . S
C457 C168 0.824 . S
C471 C66 1.562 . S
C475 C98 1.500 . S
C489 C78 1.498 . S
C493 C118 1.444 . S
C511 C138 1.490 . S
C507 C90 1.544 . S
C529 C158 1.455 . S
C525 C54 1.505 . S
C543 C18 1.550 . S
C547 C100 1.512 . S
C565 C120 1.453 . S
C561 C30 1.514 1_565 S
C583 C140 1.484 . S
C579 C42 1.535 . S
C597 C6 1.512 . S
C601 C160 1.451 . S
