# Generated by pormake.
# Topology zzz, (3,6)-cn, num edge types: 1
# Building blocks:
#     Node 0, Type 0, BuildingBlock: PAMTOO_clean_linker_0, # of connection points: 3
#     Node 1, Type 0, BuildingBlock: PAMTOO_clean_linker_0, # of connection points: 3
#     Node 2, Type 0, BuildingBlock: PAMTOO_clean_linker_0, # of connection points: 3
#     Node 3, Type 0, BuildingBlock: PAMTOO_clean_linker_0, # of connection points: 3
#     Node 4, Type 0, BuildingBlock: PAMTOO_clean_linker_0, # of connection points: 3
#     Node 5, Type 0, BuildingBlock: PAMTOO_clean_linker_0, # of connection points: 3
#     Node 6, Type 0, BuildingBlock: PAMTOO_clean_linker_0, # of connection points: 3
#     Node 7, Type 0, BuildingBlock: PAMTOO_clean_linker_0, # of connection points: 3
#     Node 8, Type 1, BuildingBlock: KUMJIN_clean_sbu_1, # of connection points: 6
#     Node 9, Type 1, BuildingBlock: KUMJIN_clean_sbu_1, # of connection points: 6
#     Node 10, Type 1, BuildingBlock: KUMJIN_clean_sbu_1, # of connection points: 6
#     Node 11, Type 1, BuildingBlock: KUMJIN_clean_sbu_1, # of connection points: 6
#     Edge 12, Type (0, 1), BuildingBlock: XUDNAN_clean_linker_2, # of connection points: 2
#     Edge 13, Type (0, 1), BuildingBlock: XUDNAN_clean_linker_2, # of connection points: 2
#     Edge 14, Type (0, 1), BuildingBlock: XUDNAN_clean_linker_2, # of connection points: 2
#     Edge 15, Type (0, 1), BuildingBlock: XUDNAN_clean_linker_2, # of connection points: 2
#     Edge 16, Type (0, 1), BuildingBlock: XUDNAN_clean_linker_2, # of connection points: 2
#     Edge 17, Type (0, 1), BuildingBlock: XUDNAN_clean_linker_2, # of connection points: 2
#     Edge 18, Type (0, 1), BuildingBlock: XUDNAN_clean_linker_2, # of connection points: 2
#     Edge 19, Type (0, 1), BuildingBlock: XUDNAN_clean_linker_2, # of connection points: 2
#     Edge 20, Type (0, 1), BuildingBlock: XUDNAN_clean_linker_2, # of connection points: 2
#     Edge 21, Type (0, 1), BuildingBlock: XUDNAN_clean_linker_2, # of connection points: 2
#     Edge 22, Type (0, 1), BuildingBlock: XUDNAN_clean_linker_2, # of connection points: 2
#     Edge 23, Type (0, 1), BuildingBlock: XUDNAN_clean_linker_2, # of connection points: 2
#     Edge 24, Type (0, 1), BuildingBlock: XUDNAN_clean_linker_2, # of connection points: 2
#     Edge 25, Type (0, 1), BuildingBlock: XUDNAN_clean_linker_2, # of connection points: 2
#     Edge 26, Type (0, 1), BuildingBlock: XUDNAN_clean_linker_2, # of connection points: 2
#     Edge 27, Type (0, 1), BuildingBlock: XUDNAN_clean_linker_2, # of connection points: 2
#     Edge 28, Type (0, 1), BuildingBlock: XUDNAN_clean_linker_2, # of connection points: 2
#     Edge 29, Type (0, 1), BuildingBlock: XUDNAN_clean_linker_2, # of connection points: 2
#     Edge 30, Type (0, 1), BuildingBlock: XUDNAN_clean_linker_2, # of connection points: 2
#     Edge 31, Type (0, 1), BuildingBlock: XUDNAN_clean_linker_2, # of connection points: 2
#     Edge 32, Type (0, 1), BuildingBlock: XUDNAN_clean_linker_2, # of connection points: 2
#     Edge 33, Type (0, 1), BuildingBlock: XUDNAN_clean_linker_2, # of connection points: 2
#     Edge 34, Type (0, 1), BuildingBlock: XUDNAN_clean_linker_2, # of connection points: 2
#     Edge 35, Type (0, 1), BuildingBlock: XUDNAN_clean_linker_2, # of connection points: 2
# Relax obj value: 0.177
# Max RMSD: 0.104
# Mean RMSD: 0.078
data_MOF--net-zzz--node1-KUMJIN_clean_sbu_1--node2-PAMTOO_clean_linker_0--edge1-XUDNAN_clean_linker_2
_symmetry_space_group_name_H-M    P1
_symmetry_Int_Tables_number       1
_symmetry_cell_setting            triclinic
loop_
_symmetry_equiv_pos_as_xyz
'x, y, z'
_cell_length_a     49.486211
_cell_length_b     49.681764
_cell_length_c     15.678381
_cell_angle_alpha  90.161761
_cell_angle_beta   90.355483
_cell_angle_gamma 90.254909
loop_
_atom_site_label
_atom_site_type_symbol
_atom_site_fract_x
_atom_site_fract_y
_atom_site_fract_z
_atom_type_partial_charge
H0 H 0.82157 0.58831 0.34463 0.0
H1 H 0.75495 0.56305 0.18901 0.0
H2 H 0.75566 0.54408 0.45697 0.0
H3 H 0.70739 0.58214 0.28595 0.0
C4 C 0.70175 0.56055 0.29366 0.0
O5 O 0.72493 0.54514 0.30984 0.0
H6 H 0.68847 0.55935 0.35034 0.0
C7 C 0.80142 0.57957 0.34081 0.0
C8 C 0.79127 0.56581 0.41123 0.0
C9 C 0.78989 0.57633 0.26008 0.0
C10 C 0.76391 0.56565 0.2518 0.0
C11 C 0.75027 0.55581 0.32315 0.0
C12 C 0.76469 0.55429 0.40327 0.0
H13 H 0.9787 0.82765 0.31708 0.0
H14 H 0.97203 0.74785 0.21312 0.0
H15 H 0.03043 0.76528 0.41049 0.0
H16 H 0.04759 0.71266 0.26513 0.0
C17 C 0.02841 0.71903 0.23424 0.0
O18 O 1.0106 0.72695 0.29896 0.0
H19 H 0.03385 0.73661 0.19379 0.0
C20 C 0.98388 0.80651 0.31813 0.0
C21 C 1.00355 0.79852 0.37721 0.0
C22 C 0.97518 0.78932 0.25171 0.0
C23 C 0.98078 0.76181 0.25863 0.0
C24 C 1.00177 0.75291 0.31096 0.0
C25 C 1.01369 0.77156 0.37062 0.0
H26 H 0.72996 0.97767 0.33405 0.0
H27 H 0.80686 0.96446 0.23534 0.0
H28 H 0.79466 0.03003 0.41539 0.0
H29 H 0.83098 0.99601 0.17281 0.0
C30 C 0.84496 0.99779 0.22846 0.0
O31 O 0.83079 1.00908 0.29795 0.0
H32 H 0.85106 0.97712 0.24759 0.0
C33 C 0.75147 0.982 0.33764 0.0
C34 C 0.76067 1.00215 0.39373 0.0
C35 C 0.7675 0.97428 0.26919 0.0
C36 C 0.79516 0.9759 0.2805 0.0
C37 C 0.80595 0.99856 0.32378 0.0
C38 C 0.78793 1.01211 0.38194 0.0
H39 H 0.59148 0.74186 0.37746 0.0
H40 H 0.58447 0.8123 0.22476 0.0
H41 H 0.51896 0.78941 0.38774 0.0
H42 H 0.50562 0.83058 0.20991 0.0
C43 C 0.52781 0.83344 0.2043 0.0
O44 O 0.5396 0.82897 0.28459 0.0
H45 H 0.53487 0.81794 0.15815 0.0
C46 C 0.57983 0.75905 0.35743 0.0
C47 C 0.55383 0.76246 0.39088 0.0
C48 C 0.58763 0.77297 0.28356 0.0
C49 C 0.57635 0.79863 0.2717 0.0
C50 C 0.55149 0.8051 0.30822 0.0
C51 C 0.53918 0.78592 0.36438 0.0
H52 H 0.23575 0.4675 0.04358 0.0
H53 H 0.31196 0.47112 0.16639 0.0
H54 H 0.29697 0.52173 0.94908 0.0
H55 H 0.32316 0.52451 0.18328 0.0
C56 C 0.34044 0.52364 0.13853 0.0
O57 O 0.33464 0.50584 0.07061 0.0
H58 H 0.34278 0.54416 0.11161 0.0
C59 C 0.25665 0.47417 0.0414 0.0
C60 C 0.26384 0.49408 0.98194 0.0
C61 C 0.27165 0.47212 0.11685 0.0
C62 C 0.29954 0.47602 0.11144 0.0
C63 C 0.30929 0.49525 0.05417 0.0
C64 C 0.29081 0.50528 0.98979 0.0
H65 H 0.09347 0.24245 0.05695 0.0
H66 H 0.05835 0.30608 0.19836 0.0
H67 H 0.0404 0.2988 0.93161 0.0
H68 H 0.05464 0.3708 0.03107 0.0
C69 C 0.05642 0.35752 0.08769 0.0
O70 O 0.04172 0.33377 0.07046 0.0
H71 H 0.0783 0.35293 0.09528 0.0
C72 C 0.08166 0.26076 0.05595 0.0
C73 C 0.06517 0.26618 0.98492 0.0
C74 C 0.07391 0.27132 0.13489 0.0
C75 C 0.06274 0.29686 0.13736 0.0
C76 C 0.05329 0.30875 0.06246 0.0
C77 C 0.05224 0.29225 0.98589 0.0
H78 H 0.32758 0.07087 0.08648 0.0
H79 H 0.25046 0.06676 0.21059 0.0
H80 H 0.2602 0.03349 0.95849 0.0
H81 H 0.18976 0.05244 0.0462 0.0
C82 C 0.20267 0.05514 0.10379 0.0
O83 O 0.2261 0.03975 0.09356 0.0
H84 H 0.2079 0.07694 0.10767 0.0
C85 C 0.30624 0.06592 0.08472 0.0
C86 C 0.29634 0.05229 1.01295 0.0
C87 C 0.29003 0.07138 0.15604 0.0
C88 C 0.26291 0.06346 0.15495 0.0
C89 C 0.25168 0.05008 0.08469 0.0
C90 C 0.2684 0.04466 1.01214 0.0
H91 H 0.5417 0.32165 0.99165 0.0
H92 H 0.54076 0.25409 0.1597 0.0
H93 H 0.47661 0.26424 0.97542 0.0
H94 H 0.46765 0.22602 0.16975 0.0
C95 C 0.48997 0.22374 0.17202 0.0
O96 O 0.50017 0.22911 0.09039 0.0
H97 H 0.49738 0.23908 0.21855 0.0
C98 C 0.53311 0.3023 1.00911 0.0
C99 C 0.50842 0.29504 0.97256 0.0
C100 C 0.54223 0.28991 0.08363 0.0
C101 C 0.53254 0.26434 0.10446 0.0
C102 C 0.50932 0.25403 0.06454 0.0
C103 C 0.49596 0.27047 1.00146 0.0
Eu104 Eu 1.00128 0.0415 0.60814 0.0
C105 C 0.0989 0.05645 0.85878 0.0
N106 N 0.09505 0.04169 0.78629 0.0
C107 C 0.14121 0.04937 0.74637 0.0
C108 C 0.12418 0.06848 0.87704 0.0
C109 C 0.11602 0.03741 0.73156 0.0
C110 C 0.14528 0.0651 0.81912 0.0
C111 C 0.08202 0.07208 0.99556 0.0
C112 C 0.07808 0.05814 0.9179 0.0
C113 C 0.10701 0.08441 1.01281 0.0
C114 C 0.12802 0.08262 0.95384 0.0
Eu115 Eu 0.05277 1.01941 0.77518 0.0
N116 N 0.05432 0.04532 0.90105 0.0
C117 C 0.06095 0.0726 0.05477 0.0
C118 C 0.0345 0.04418 0.96109 0.0
C119 C 0.03717 0.05835 0.03772 0.0
H120 H 0.11408 0.02377 0.67843 0.0
H121 H 0.02118 0.0577 0.08448 0.0
H122 H 0.94488 0.02382 0.70814 0.0
H123 H 0.0368 1.01436 0.28708 0.0
H124 H 1.01693 0.03176 0.95149 0.0
H125 H 0.06315 0.08324 0.11483 0.0
H126 H 0.0377 0.03939 0.42102 0.0
H127 H 0.1577 0.04583 0.70279 0.0
H128 H 0.1104 0.0952 0.07196 0.0
H129 H 0.14735 0.09184 0.96899 0.0
H130 H 0.90363 0.99754 0.67942 0.0
H131 H 0.16503 0.07385 0.83129 0.0
H132 H 0.99923 0.98297 0.2553 0.0
N133 N 0.96418 1.01232 0.59303 0.0
C134 C 0.96147 0.99985 0.51624 0.0
C135 C 0.91994 0.99753 0.63374 0.0
C136 C 0.93804 0.9847 0.49682 0.0
C137 C 0.94363 1.012 0.65064 0.0
C138 C 0.91718 0.98366 0.5567 0.0
N139 N 1.00305 1.01972 0.4731 0.0
C140 C 0.02215 0.02448 0.41222 0.0
C141 C 0.97958 0.9896 0.37649 0.0
C142 C 0.98179 1.00296 0.45582 0.0
C143 C 1.00006 0.99314 0.31649 0.0
C144 C 0.02134 1.01077 0.33431 0.0
H145 H 0.89867 0.97266 0.54337 0.0
H146 H 0.91796 0.95991 0.40167 0.0
H147 H 0.95483 0.96314 0.29837 0.0
O148 O 0.9813 0.06521 0.50986 0.0
O149 O 1.00315 0.99575 0.63808 0.0
O150 O 0.04819 0.99162 0.65976 0.0
O151 O 0.96852 0.06848 0.6413 0.0
O152 O 0.04493 0.0505 0.56327 0.0
O153 O 0.06865 1.01848 0.63814 0.0
O154 O 0.04431 0.98424 0.85331 0.0
O155 O 0.03958 0.06383 0.78545 0.0
O156 O 0.03187 0.07446 0.64587 0.0
O157 O 0.08628 0.99701 0.83099 0.0
O158 O 1.00842 1.0106 0.80803 0.0
O159 O 0.98986 0.04737 0.74701 0.0
C160 C 0.02524 0.98115 0.63304 0.0
C161 C 0.96766 0.10756 0.56166 0.0
C162 C 0.99104 0.14797 0.51841 0.0
C163 C 0.97088 0.16376 0.55585 0.0
C164 C 0.94724 0.1232 0.59827 0.0
C165 C 0.9491 0.15129 0.5964 0.0
C166 C 0.98991 0.12006 0.52492 0.0
C167 C 0.06669 0.0354 0.57359 0.0
C168 C 0.96651 0.07827 0.56485 0.0
C169 C 0.93582 0.97162 0.41775 0.0
C170 C 0.95673 0.97366 0.35852 0.0
C171 C 0.03785 0.08202 0.7246 0.0
C172 C 0.07972 0.95801 0.91999 0.0
C173 C 0.07134 0.9144 0.98225 0.0
C174 C 0.09838 0.91306 1.00929 0.0
C175 C 0.10672 0.95692 0.94773 0.0
C176 C 0.06208 0.93696 0.93869 0.0
C177 C 0.11595 0.9345 0.99278 0.0
C178 C 0.98918 0.0287 0.80558 0.0
C179 C 0.06998 0.98017 0.86771 0.0
H180 H 0.97124 0.18547 0.54982 0.0
H181 H 0.93 0.1137 0.62823 0.0
H182 H 0.93326 0.16339 0.62406 0.0
H183 H 1.00592 0.10809 0.49713 0.0
H184 H 0.10577 0.89556 0.04307 0.0
H185 H 0.12067 0.97318 0.93394 0.0
H186 H 0.04127 0.93753 0.91637 0.0
H187 H 0.13679 0.93361 1.01387 0.0
Eu188 Eu 0.53763 0.05605 0.76652 0.0
C189 C 0.53173 0.93869 0.62152 0.0
N190 N 0.54353 0.96186 0.59359 0.0
C191 C 0.57814 0.93669 0.52345 0.0
C192 C 0.5428 0.91346 0.60008 0.0
C193 C 0.56632 0.96124 0.54496 0.0
C194 C 0.56625 0.9127 0.55061 0.0
C195 C 0.49605 0.91619 0.70088 0.0
C196 C 0.5082 0.94002 0.67075 0.0
C197 C 0.50652 0.89113 0.67654 0.0
C198 C 0.52986 0.88977 0.62675 0.0
Eu199 Eu 0.51623 0.99993 0.61019 0.0
N200 N 0.49725 0.96448 0.68916 0.0
C201 C 0.47359 0.91818 0.75435 0.0
C202 C 0.47508 0.9665 0.73999 0.0
C203 C 0.46331 0.94347 0.77491 0.0
H204 H 0.57464 0.97942 0.51826 0.0
H205 H 0.44586 0.9452 0.81582 0.0
H206 H 0.48372 0.07396 0.88722 0.0
H207 H 0.61102 0.11849 0.60213 0.0
H208 H 0.46607 0.98558 0.75296 0.0
H209 H 0.464 0.90032 0.77991 0.0
H210 H 0.59097 0.0764 0.65611 0.0
H211 H 0.59595 0.93626 0.48373 0.0
H212 H 0.49705 0.87263 0.69761 0.0
H213 H 0.53784 0.87024 0.60958 0.0
H214 H 0.46162 0.11542 0.93447 0.0
H215 H 0.57516 0.89369 0.53219 0.0
H216 H 0.58902 0.16195 0.63422 0.0
N217 N 0.51153 0.09401 0.8051 0.0
C218 C 0.52144 0.11821 0.77877 0.0
C219 C 0.47811 0.11646 0.88954 0.0
C220 C 0.50982 0.14253 0.80688 0.0
C221 C 0.49036 0.09287 0.86078 0.0
C222 C 0.48781 0.14138 0.86238 0.0
N223 N 0.55612 0.09516 0.70549 0.0
C224 C 0.58037 0.09495 0.66467 0.0
C225 C 0.5559 0.14358 0.70305 0.0
C226 C 0.54439 0.11881 0.72792 0.0
C227 C 0.57966 0.14335 0.6549 0.0
C228 C 0.59208 0.11889 0.63627 0.0
H229 H 0.47859 0.15963 0.88625 0.0
H230 H 0.51245 0.18607 0.80274 0.0
H231 H 0.55258 0.18695 0.71114 0.0
O232 O 0.57668 0.05417 0.8294 0.0
O233 O 0.52858 0.07395 0.63354 0.0
O234 O 0.51025 0.04077 0.54688 0.0
O235 O 0.54331 0.07405 0.89219 0.0
O236 O 0.57183 0.03019 0.70822 0.0
O237 O 0.5557 0.02087 0.57492 0.0
O238 O 0.48269 0.98011 0.54552 0.0
O239 O 0.5374 0.98636 0.73569 0.0
O240 O 0.52192 1.01768 0.82915 0.0
O241 O 0.51979 0.98755 0.47705 0.0
O242 O 0.48059 0.02551 0.6576 0.0
O243 O 0.49507 0.03916 0.79013 0.0
C244 C 0.51741 0.066 0.561 0.0
C245 C 0.57738 0.05514 0.97836 0.0
C246 C 0.6155 0.04065 0.06179 0.0
C247 C 0.59822 0.03196 0.1268 0.0
C248 C 0.55974 0.0468 0.04319 0.0
C249 C 0.57029 0.03537 0.11774 0.0
C250 C 0.60509 0.05245 0.98885 0.0
C251 C 0.5762 0.02483 0.62698 0.0
C252 C 0.56827 0.06642 0.89788 0.0
C253 C 0.52105 0.16722 0.78133 0.0
C254 C 0.54394 0.16774 0.72927 0.0
C255 C 0.53099 0.99328 0.81444 0.0
C256 C 0.47941 0.99034 0.39967 0.0
C257 C 0.44268 1.01765 0.34553 0.0
C258 C 0.45091 1.01203 0.26167 0.0
C259 C 0.48748 0.98468 0.31598 0.0
C260 C 0.45716 1.00698 0.414 0.0
C261 C 0.47328 0.99562 0.24718 0.0
C262 C 0.47551 0.03548 0.73391 0.0
C263 C 0.49475 0.97964 0.47182 0.0
H264 H 0.60629 0.02246 0.18354 0.0
H265 H 0.53807 0.04887 0.03606 0.0
H266 H 0.55683 0.02879 0.16775 0.0
H267 H 0.61868 0.05865 0.9383 0.0
H268 H 0.43978 1.01989 0.20755 0.0
H269 H 0.50481 0.97199 0.30403 0.0
H270 H 0.45113 1.01193 0.47856 0.0
H271 H 0.47949 0.99125 0.18258 0.0
Eu272 Eu 0.55417 0.51822 0.6261 0.0
C273 C 0.4528 0.5151 0.87384 0.0
N274 N 0.45741 0.52691 0.79704 0.0
C275 C 0.4112 0.51918 0.75592 0.0
C276 C 0.42722 0.50414 0.89342 0.0
C277 C 0.43679 0.52982 0.73934 0.0
C278 C 0.40644 0.50605 0.83289 0.0
C279 C 0.46918 0.50249 1.01462 0.0
C280 C 0.4735 0.51449 0.9342 0.0
C281 C 0.44389 0.49118 0.03344 0.0
C282 C 0.42296 0.49206 0.97313 0.0
Eu283 Eu 0.50128 0.54506 0.77729 0.0
N284 N 0.4979 0.52531 0.91416 0.0
C285 C 0.49037 0.50235 0.07411 0.0
C286 C 0.51807 0.5266 0.97399 0.0
C287 C 0.51484 0.51469 0.05392 0.0
H288 H 0.43949 0.54117 0.68153 0.0
H289 H 0.53111 0.51544 0.10038 0.0
H290 H 0.61173 0.53288 0.72736 0.0
H291 H 0.51879 0.54842 0.30618 0.0
H292 H 0.53652 0.53723 0.96188 0.0
H293 H 0.48785 0.49329 0.13637 0.0
H294 H 0.51685 0.52334 0.43916 0.0
H295 H 0.39502 0.52152 0.7098 0.0
H296 H 0.44023 0.48193 0.09484 0.0
H297 H 0.40344 0.48357 0.98911 0.0
H298 H 0.65409 0.55739 0.69991 0.0
H299 H 0.38649 0.49802 0.84577 0.0
H300 H 0.55814 0.5774 0.2753 0.0
N301 N 0.59272 0.54545 0.61252 0.0
C302 C 0.59572 0.55801 0.53614 0.0
C303 C 0.63766 0.55819 0.65409 0.0
C304 C 0.61982 0.57205 0.51734 0.0
C305 C 0.6134 0.54476 0.67032 0.0
C306 C 0.64085 0.57204 0.57749 0.0
N307 N 0.55287 0.54053 0.49191 0.0
C308 C 0.53326 0.53718 0.43096 0.0
C309 C 0.57775 0.56946 0.3964 0.0
C310 C 0.57505 0.55609 0.47533 0.0
C311 C 0.5569 0.56723 0.33621 0.0
C312 C 0.53463 0.55095 0.35352 0.0
H313 H 0.65982 0.58218 0.56466 0.0
H314 H 0.64092 0.59581 0.42292 0.0
H315 H 0.6038 0.59436 0.31867 0.0
O316 O 0.57494 0.49623 0.5267 0.0
O317 O 0.55181 0.56448 0.64845 0.0
O318 O 0.50666 0.56616 0.65071 0.0
O319 O 0.58514 0.48896 0.65933 0.0
O320 O 0.51172 0.50639 0.57785 0.0
O321 O 0.48471 0.53855 0.64005 0.0
O322 O 0.51217 0.58429 0.82916 0.0
O323 O 0.51191 0.5006 0.80178 0.0
O324 O 0.52516 0.48437 0.67121 0.0
O325 O 0.4696 0.57228 0.81981 0.0
O326 O 0.54586 0.55256 0.81913 0.0
O327 O 0.56474 0.51474 0.76597 0.0
C328 C 0.52952 0.57799 0.63273 0.0
C329 C 0.58016 0.45175 0.57099 0.0
C330 C 0.55273 0.41746 0.50329 0.0
C331 C 0.56832 0.39752 0.54357 0.0
C332 C 0.59573 0.43198 0.61117 0.0
C333 C 0.58947 0.40484 0.59844 0.0
C334 C 0.55768 0.44435 0.52172 0.0
C335 C 0.48864 0.51968 0.58167 0.0
C336 C 0.58656 0.48017 0.5813 0.0
C337 C 0.62251 0.58505 0.43855 0.0
C338 C 0.60141 0.58409 0.3789 0.0
C339 C 0.51548 0.48019 0.74873 0.0
C340 C 0.47945 0.61378 0.89355 0.0
C341 C 0.49247 0.65647 0.9563 0.0
C342 C 0.46524 0.66275 0.96972 0.0
C343 C 0.45215 0.61988 0.90802 0.0
C344 C 0.4995 0.63198 0.91932 0.0
C345 C 0.44513 0.64427 0.94641 0.0
C346 C 0.56523 0.53441 0.82129 0.0
C347 C 0.48692 0.59111 0.8391 0.0
H348 H 0.56533 0.37644 0.52824 0.0
H349 H 0.61275 0.43752 0.6514 0.0
H350 H 0.60169 0.38947 0.6283 0.0
H351 H 0.54541 0.45946 0.49023 0.0
H352 H 0.45965 0.68177 0.99842 0.0
H353 H 0.43625 0.60626 0.88724 0.0
H354 H 0.52064 0.62772 0.90746 0.0
H355 H 0.42408 0.64906 0.95654 0.0
Eu356 Eu 0.03746 0.5549 0.6144 0.0
C357 C 0.06226 0.46431 0.86455 0.0
N358 N 0.04677 0.46437 0.7926 0.0
C359 C 0.06053 0.41927 0.76022 0.0
C360 C 0.0783 0.44179 0.8853 0.0
C361 C 0.04543 0.44219 0.74136 0.0
C362 C 0.07721 0.41912 0.83219 0.0
C363 C 0.07728 0.48663 0.99441 0.0
C364 C 0.06132 0.48639 0.91937 0.0
C365 C 0.09415 0.46476 1.01298 0.0
C366 C 0.0943 0.44223 0.9594 0.0
Eu367 Eu 1.01735 0.50123 0.77622 0.0
N368 N 0.04371 0.50677 0.90228 0.0
C369 C 0.07479 0.5082 0.05112 0.0
C370 C 0.03923 0.52614 0.96232 0.0
C371 C 0.05527 0.52772 0.03585 0.0
H372 H 0.0318 0.44161 0.68817 0.0
H373 H 0.05193 0.54343 0.08231 0.0
H374 H 0.041 0.61667 0.70673 0.0
H375 H 0.97719 0.52112 0.33884 0.0
H376 H 0.02243 0.53961 0.9566 0.0
H377 H 0.08671 0.50911 0.10929 0.0
H378 H 1.00349 0.5151 0.46917 0.0
H379 H 0.05892 0.40158 0.71999 0.0
H380 H 0.10649 0.46469 0.07028 0.0
H381 H 0.10673 0.42512 0.97622 0.0
H382 H 0.02682 0.66287 0.67371 0.0
H383 H 0.08875 0.40124 0.84706 0.0
H384 H 0.96508 0.56682 0.29077 0.0
N385 N 0.02147 0.59936 0.59797 0.0
C386 C 1.00671 0.60392 0.52592 0.0
C387 C 1.02093 0.64647 0.63189 0.0
C388 C 0.99926 0.6303 0.50285 0.0
C389 C 0.02845 0.62011 0.65134 0.0
C390 C 1.00652 0.65163 0.55695 0.0
N391 N 1.00628 0.55684 0.49883 0.0
C392 C 0.99836 0.53512 0.45103 0.0
C393 C 0.98433 0.58653 0.39869 0.0
C394 C 0.99928 0.58219 0.47439 0.0
C395 C 0.9765 0.56429 0.34938 0.0
C396 C 0.98328 0.53848 0.37627 0.0
H397 H 1.00118 0.67217 0.54129 0.0
H398 H 0.97964 0.65484 0.40684 0.0
H399 H 0.96668 0.61655 0.31562 0.0
O400 O 0.06947 0.5451 0.52554 0.0
O401 O 0.9919 0.55394 0.6291 0.0
O402 O 0.97925 0.51591 0.70375 0.0
O403 O 0.06158 0.58676 0.55863 0.0
O404 O 0.04395 0.51108 0.56606 0.0
O405 O 1.01321 0.48577 0.63978 0.0
O406 O 0.99556 0.49048 0.89143 0.0
O407 O 0.06286 0.50422 0.73989 0.0
O408 O 0.06632 0.54934 0.72697 0.0
O409 O 0.99298 0.46462 0.78086 0.0
O410 O 1.00623 0.54517 0.81486 0.0
O411 O 0.03968 0.57022 0.75218 0.0
C412 C 0.97332 0.53719 0.65678 0.0
C413 C 0.10628 0.574 0.54051 0.0
C414 C 0.1519 0.56547 0.49909 0.0
C415 C 0.1616 0.58002 0.56972 0.0
C416 C 0.1156 0.58822 0.6128 0.0
C417 C 0.14334 0.59119 0.62714 0.0
C418 C 0.12443 0.56245 0.48476 0.0
C419 C 0.02978 0.48863 0.57511 0.0
C420 C 0.07785 0.57001 0.5223 0.0
C421 C 0.98508 0.63466 0.42631 0.0
C422 C 0.97771 0.61285 0.37432 0.0
C423 C 0.07761 0.52632 0.74681 0.0
C424 C 0.95392 0.46972 0.86042 0.0
C425 C 0.91179 0.49327 0.88023 0.0
C426 C 0.8975 0.46915 0.86732 0.0
C427 C 0.93965 0.4456 0.8473 0.0
C428 C 0.93984 0.49363 0.87537 0.0
C429 C 0.91145 0.4454 0.85017 0.0
C430 C 1.02083 0.56759 0.8105 0.0
C431 C 0.98335 0.47005 0.85568 0.0
H432 H 0.18311 0.58273 0.57997 0.0
H433 H 0.1016 0.59694 0.65777 0.0
H434 H 0.15066 0.60225 0.68224 0.0
H435 H 0.11715 0.55151 0.42896 0.0
H436 H 0.87575 0.4685 0.87464 0.0
H437 H 0.95032 0.427 0.83512 0.0
H438 H 0.95063 0.51234 0.88731 0.0
H439 H 0.90044 0.42672 0.84141 0.0
H440 H 0.16559 0.08623 0.19222 0.0
H441 H 0.19983 1.0061 0.19074 0.0
H442 H 0.16961 0.99319 0.3093 0.0
H443 H 0.15632 0.09084 0.42626 0.0
H444 H 0.12508 0.10913 0.4169 0.0
H445 H 0.15057 0.11247 0.33591 0.0
H446 H 0.11522 0.09907 0.22303 0.0
H447 H 0.08957 0.09415 0.30234 0.0
H448 H 0.09796 0.06708 0.23046 0.0
H449 H 0.13529 0.98897 0.42986 0.0
H450 H 0.09951 0.99296 0.53724 0.0
H451 H 0.08453 0.07514 0.45809 0.0
C452 C 0.16707 0.06608 0.21788 0.0
C453 C 0.18584 0.04742 0.18281 0.0
C454 C 0.18634 0.02103 0.217 0.0
C455 C 0.16906 1.01349 0.28448 0.0
C456 C 0.15094 0.03238 0.31747 0.0
C457 C 0.14985 0.05819 0.28535 0.0
C458 C 0.12803 0.07442 0.33108 0.0
C459 C 0.14076 0.09812 0.38045 0.0
C460 C 0.1064 0.08424 0.2679 0.0
C461 C 0.11648 0.05357 0.39233 0.0
C462 C 0.13039 0.0296 0.38422 0.0
C463 C 0.12426 1.00763 0.43587 0.0
C464 C 0.10365 1.01012 0.49697 0.0
C465 C 0.08853 0.03421 0.50624 0.0
C466 C 0.09521 0.05626 0.4524 0.0
H467 H 0.52573 0.2085 0.30397 0.0
H468 H 0.4678 0.17481 0.12459 0.0
H469 H 0.47018 0.13109 0.19975 0.0
H470 H 0.56567 0.14325 0.3299 0.0
H471 H 0.57263 0.15004 0.44086 0.0
H472 H 0.56916 0.1775 0.36663 0.0
H473 H 0.53206 0.19808 0.46182 0.0
H474 H 0.53526 0.17049 0.53521 0.0
H475 H 0.50279 0.17812 0.48869 0.0
H476 H 0.47519 0.09192 0.30398 0.0
H477 H 0.48427 0.06023 0.42104 0.0
H478 H 0.53917 0.11817 0.53686 0.0
C479 C 0.51416 0.19168 0.27889 0.0
C480 C 0.49661 0.19534 0.20708 0.0
C481 C 0.48158 0.17271 0.17804 0.0
C482 C 0.48272 0.14773 0.22101 0.0
C483 C 0.49932 0.14513 0.29316 0.0
C484 C 0.51529 0.16635 0.32094 0.0
C485 C 0.53089 0.15823 0.40166 0.0
C486 C 0.5614 0.15721 0.3837 0.0
C487 C 0.52486 0.17738 0.47625 0.0
C488 C 0.51978 0.12993 0.41823 0.0
C489 C 0.50208 0.12261 0.35355 0.0
C490 C 0.4892 0.09752 0.35431 0.0
C491 C 0.49451 0.07951 0.42182 0.0
C492 C 0.5124 0.08629 0.48995 0.0
C493 C 0.5252 0.1121 0.4872 0.0
H494 H 0.36804 0.55747 0.24857 0.0
H495 H 0.36878 0.47479 0.16073 0.0
H496 H 0.40645 0.46512 0.26157 0.0
H497 H 0.44155 0.56453 0.28127 0.0
H498 H 0.43796 0.58535 0.37478 0.0
H499 H 0.4124 0.58585 0.29239 0.0
H500 H 0.37596 0.57388 0.40403 0.0
H501 H 0.40147 0.57327 0.48643 0.0
H502 H 0.38012 0.54426 0.46893 0.0
H503 H 0.44523 0.46485 0.3757 0.0
H504 H 0.47856 0.47319 0.49137 0.0
H505 H 0.45106 0.55562 0.51159 0.0
C506 C 0.37648 0.5374 0.24925 0.0
C507 C 0.36572 0.51713 0.19375 0.0
C508 C 0.37688 0.49094 0.19982 0.0
C509 C 0.39831 0.48526 0.25769 0.0
C510 C 0.40843 0.50579 0.31094 0.0
C511 C 0.39774 0.53139 0.30712 0.0
C512 C 0.41157 0.54981 0.37263 0.0
C513 C 0.42676 0.57275 0.3276 0.0
C514 C 0.39105 0.56096 0.4368 0.0
C515 C 0.43132 0.53056 0.41574 0.0
C516 C 0.42954 0.50534 0.37823 0.0
C517 C 0.44646 0.48451 0.40536 0.0
C518 C 0.46545 0.48944 0.47159 0.0
C519 C 0.46747 0.51492 0.51247 0.0
C520 C 0.44991 0.53571 0.48351 0.0
H521 H 0.06779 0.41074 0.1295 0.0
H522 H 0.02653 0.34081 0.23109 0.0
H523 H 1.01588 0.3666 0.36191 0.0
H524 H 0.09777 0.43448 0.3256 0.0
H525 H 0.09277 0.46964 0.30238 0.0
H526 H 0.09631 0.44578 0.21656 0.0
H527 H 0.05034 0.4613 0.15291 0.0
H528 H 0.04734 0.48532 0.23873 0.0
H529 H 1.02081 0.46105 0.21935 0.0
H530 H 1.00637 0.40158 0.47816 0.0
H531 H 1.00357 0.43966 0.57724 0.0
H532 H 0.05574 0.4868 0.41314 0.0
C533 C 0.0562 0.40091 0.17893 0.0
C534 C 0.04756 0.37359 0.16793 0.0
C535 C 0.03307 0.36156 0.23579 0.0
C536 C 0.0269 0.37621 0.31087 0.0
C537 C 0.03544 0.40307 0.31883 0.0
C538 C 0.04997 0.41529 0.25479 0.0
C539 C 0.05705 0.44436 0.28012 0.0
C540 C 0.0878 0.44882 0.28127 0.0
C541 C 0.04307 0.4642 0.21918 0.0
C542 C 0.04508 0.44635 0.36992 0.0
C543 C 0.03204 0.42246 0.38935 0.0
C544 C 1.01732 0.41996 0.46446 0.0
C545 C 1.01618 0.4419 0.52162 0.0
C546 C 0.03074 0.46624 0.50759 0.0
C547 C 0.04513 0.46839 0.42886 0.0
H548 H 0.89208 0.97429 0.17912 0.0
H549 H 0.85178 0.05144 0.17813 0.0
H550 H 0.88541 0.06834 0.07359 0.0
H551 H 0.96133 0.99636 0.14987 0.0
H552 H 0.96996 0.97019 0.07495 0.0
H553 H 0.94495 0.96383 0.15505 0.0
H554 H 0.90908 0.95048 0.04593 0.0
H555 H 0.9336 0.95483 0.96277 0.0
H556 H 0.90188 0.97246 0.95748 0.0
H557 H 0.92127 0.07474 0.955 0.0
H558 H 0.95643 0.07137 0.8445 0.0
H559 H 0.9724 0.98905 0.92007 0.0
C560 C 0.89106 0.99525 0.16064 0.0
C561 C 0.86985 1.01197 0.1913 0.0
C562 C 0.86846 0.03866 0.15993 0.0
C563 C 0.88729 0.04822 0.09909 0.0
C564 C 0.90728 0.03076 0.06849 0.0
C565 C 0.90928 1.00481 0.09892 0.0
C566 C 0.93078 0.98908 0.05066 0.0
C567 C 0.95312 0.97934 0.11134 0.0
C568 C 0.91807 0.96532 1.0013 0.0
C569 C 0.94131 1.01035 0.98971 0.0
C570 C 0.92726 0.03417 1.00009 0.0
C571 C 0.93248 0.05624 0.94768 0.0
C572 C 0.95256 0.05405 0.88449 0.0
C573 C 0.96764 0.03002 0.87338 0.0
C574 C 0.96169 1.00787 0.92719 0.0
H575 H 0.5464 0.8472 0.04256 0.0
H576 H 0.5187 0.88382 0.27688 0.0
H577 H 0.51864 0.9285 0.20606 0.0
H578 H 0.5898 0.90511 0.97275 0.0
H579 H 0.58136 0.89989 0.86195 0.0
H580 H 0.58212 0.8717 0.93408 0.0
H581 H 0.53213 0.8594 0.89475 0.0
H582 H 0.53367 0.88665 0.82037 0.0
H583 H 0.50698 0.88559 0.89835 0.0
H584 H 0.51799 0.96933 0.10262 0.0
H585 H 0.51789 1.00146 0.98291 0.0
H586 H 0.54621 0.93854 0.8136 0.0
C587 C 0.54107 0.86472 0.07993 0.0
C588 C 0.53305 0.86176 0.16662 0.0
C589 C 0.52548 0.88535 0.21154 0.0
C590 C 0.52524 0.9109 0.17128 0.0
C591 C 0.53262 0.91291 0.08526 0.0
C592 C 0.5408 0.8904 0.04063 0.0
C593 C 0.54675 0.89766 0.94802 0.0
C594 C 0.5768 0.89333 0.92806 0.0
C595 C 0.5287 0.88134 0.8869 0.0
C596 C 0.5397 0.92755 0.94586 0.0
C597 C 0.53191 0.93604 0.02615 0.0
C598 C 0.52413 0.96271 0.0399 0.0
C599 C 0.52417 0.98096 0.97079 0.0
C600 C 0.53194 0.97298 0.88724 0.0
C601 C 0.53999 0.94567 0.87567 0.0
H602 H 0.66353 0.58979 0.20362 0.0
H603 H 0.70041 0.51085 0.20747 0.0
H604 H 0.67034 0.49654 0.0885 0.0
H605 H 0.59642 0.56824 0.1635 0.0
H606 H 0.58706 0.59478 0.09104 0.0
H607 H 0.61255 0.60085 0.1712 0.0
H608 H 0.64738 0.61516 0.06 0.0
H609 H 0.62202 0.61082 0.97807 0.0
H610 H 0.65389 0.59359 0.96983 0.0
H611 H 0.63514 0.49048 0.96924 0.0
H612 H 0.59857 0.49268 0.86268 0.0
H613 H 0.5828 0.5755 0.93472 0.0
C614 C 0.66561 0.5696 0.17844 0.0
C615 C 0.68505 0.5517 0.21451 0.0
C616 C 0.68635 0.52522 0.18075 0.0
C617 C 0.66916 0.51689 0.113 0.0
C618 C 0.65036 0.53506 0.07916 0.0
C619 C 0.64854 0.56095 0.11064 0.0
C620 C 0.6262 0.57637 0.06391 0.0
C621 C 0.60424 0.58558 0.1262 0.0
C622 C 0.63809 0.60041 1.01505 0.0
C623 C 0.61528 0.55502 1.00233 0.0
C624 C 0.62976 0.53143 1.01185 0.0
C625 C 0.62379 0.50891 0.96177 0.0
C626 C 0.60277 0.51042 0.90089 0.0
C627 C 0.58729 0.53423 0.88931 0.0
C628 C 0.59385 0.55687 0.94157 0.0
H629 H 0.04592 0.66558 0.22012 0.0
H630 H 0.98921 0.72114 0.10635 0.0
H631 H 0.97932 0.68825 0.99201 0.0
H632 H 0.07482 0.64135 0.03446 0.0
H633 H 0.07739 0.60668 0.06725 0.0
H634 H 0.07717 0.63304 0.14617 0.0
H635 H 0.03623 0.61081 0.22085 0.0
H636 H 0.03669 0.5841 0.14302 0.0
H637 H 1.00626 0.60306 0.15961 0.0
H638 H 0.97813 0.64929 0.8806 0.0
H639 H 0.98537 0.6092 0.78876 0.0
H640 H 0.04618 0.58087 0.96617 0.0
C641 C 0.03081 0.67057 0.17261 0.0
C642 C 1.01797 0.69621 0.17449 0.0
C643 C 0.99888 0.70177 0.10897 0.0
C644 C 0.99329 0.68309 0.0427 0.0
C645 C 1.00685 0.65843 0.04153 0.0
C646 C 0.02505 0.65206 0.10555 0.0
C647 C 0.03763 0.62458 0.08816 0.0
C648 C 0.06859 0.62655 0.08371 0.0
C649 C 0.02869 0.60445 0.15694 0.0
C650 C 0.02519 0.61729 1.00151 0.0
C651 C 1.00676 0.63665 0.97704 0.0
C652 C 0.99237 0.634 0.90015 0.0
C653 C 0.99663 0.61107 0.84797 0.0
C654 C 1.01566 0.59104 0.87063 0.0
C655 C 0.03051 0.5948 0.94807 0.0
H656 H 0.08149 0.26324 0.31086 0.0
H657 H 0.03239 0.23871 0.09541 0.0
H658 H 0.02097 0.19663 0.1656 0.0
H659 H 0.09618 0.20012 0.42507 0.0
H660 H 0.08225 0.21094 0.52544 0.0
H661 H 0.09681 0.23529 0.45377 0.0
H662 H 0.05214 0.26264 0.45138 0.0
H663 H 0.03825 0.23908 0.52632 0.0
H664 H 1.02087 0.24543 0.42702 0.0
H665 H 0.02166 0.15479 0.24402 0.0
H666 H 0.9978 0.13114 0.35761 0.0
H667 H 0.02465 0.1919 0.53923 0.0
C668 C 0.06931 0.24828 0.27796 0.0
C669 C 0.06188 0.25134 0.1918 0.0
C670 C 0.04197 0.23417 0.15584 0.0
C671 C 0.0356 0.21012 0.19451 0.0
C672 C 0.04667 0.2052 0.27402 0.0
C673 C 0.05981 0.22525 0.31992 0.0
C674 C 0.057 0.22029 0.41469 0.0
C675 C 0.08473 0.21642 0.45724 0.0
C676 C 0.04111 0.24321 0.45735 0.0
C677 C 0.04089 0.1942 0.41271 0.0
C678 C 0.03783 0.18485 0.33043 0.0
C679 C 0.02352 0.16171 0.30937 0.0
C680 C 1.01002 0.14857 0.37412 0.0
C681 C 1.00996 0.15951 0.45747 0.0
C682 C 0.0257 0.18243 0.47739 0.0
H683 H 0.33096 0.10767 0.17621 0.0
H684 H 0.28017 0.05269 0.31732 0.0
H685 H 0.31578 0.04695 0.42303 0.0
H686 H 0.37474 0.06461 0.15584 0.0
H687 H 0.40537 0.08437 0.15836 0.0
H688 H 0.3743 0.09985 0.12832 0.0
H689 H 0.37978 0.13546 0.24837 0.0
H690 H 0.41162 0.12043 0.27769 0.0
H691 H 0.3857 0.12483 0.35675 0.0
H692 H 0.35831 0.02921 0.46736 0.0
H693 H 0.40166 1.00566 0.45428 0.0
H694 H 0.429 0.06515 0.27263 0.0
C695 C 0.32707 0.09561 0.23226 0.0
C696 C 0.30337 0.07988 0.23674 0.0
C697 C 0.29824 0.06488 0.31147 0.0
C698 C 0.31868 0.06132 0.37211 0.0
C699 C 0.34407 0.07249 0.35614 0.0
C700 C 0.34829 0.08992 0.28833 0.0
C701 C 0.37804 0.09189 0.2663 0.0
C702 C 0.38337 0.08473 0.17176 0.0
C703 C 0.38945 0.11982 0.28869 0.0
C704 C 0.38932 0.07077 0.32528 0.0
C705 C 0.36973 0.06074 0.37943 0.0
C706 C 0.37411 0.0377 0.42817 0.0
C707 C 0.39871 0.02431 0.41987 0.0
C708 C 0.41847 0.03382 0.36242 0.0
C709 C 0.4141 0.05777 0.31721 0.0
H710 H 0.51766 0.29601 0.2373 0.0
H711 H 0.58251 0.32789 0.08141 0.0
H712 H 0.57649 0.37243 0.14797 0.0
H713 H 0.47679 0.3581 0.24682 0.0
H714 H 0.46802 0.35344 0.35714 0.0
H715 H 0.47351 0.32459 0.28939 0.0
H716 H 0.51045 0.3063 0.39258 0.0
H717 H 0.50327 0.33402 0.46216 0.0
H718 H 0.53742 0.32848 0.42667 0.0
H719 H 0.56206 0.413 0.21974 0.0
H720 H 0.56344 0.43932 0.35089 0.0
H721 H 0.51248 0.38045 0.47549 0.0
C722 C 0.53134 0.31206 0.21919 0.0
C723 C 0.54999 0.30882 0.1519 0.0
C724 C 0.56784 0.33018 0.13189 0.0
C725 C 0.56377 0.35572 0.16664 0.0
C726 C 0.54265 0.35908 0.22393 0.0
C727 C 0.52803 0.33753 0.25467 0.0
C728 C 0.51055 0.34562 0.32917 0.0
C729 C 0.48044 0.34541 0.30406 0.0
C730 C 0.51579 0.32756 0.40726 0.0
C731 C 0.52048 0.37419 0.34195 0.0
C732 C 0.53644 0.38232 0.2743 0.0
C733 C 0.54978 0.40693 0.27331 0.0
C734 C 0.55028 0.42184 0.34829 0.0
C735 C 0.53874 0.41108 0.42326 0.0
C736 C 0.52145 0.38863 0.41839 0.0
H737 H 0.23346 0.4558 0.23506 0.0
H738 H 0.27862 0.52555 0.14523 0.0
H739 H 0.24848 0.55527 0.21707 0.0
H740 H 0.1673 0.48499 0.2328 0.0
H741 H 0.1568 0.47179 0.33441 0.0
H742 H 0.18117 0.4538 0.27145 0.0
H743 H 0.21553 0.45459 0.39708 0.0
H744 H 0.19087 0.4717 0.46124 0.0
H745 H 0.22397 0.48626 0.44723 0.0
H746 H 0.2138 0.57863 0.28629 0.0
H747 H 0.18229 0.59524 0.39514 0.0
H748 H 0.15997 0.51304 0.45695 0.0
C749 C 0.23733 0.47726 0.23301 0.0
C750 C 0.2587 0.48797 0.18452 0.0
C751 C 0.26307 0.51629 0.18289 0.0
C752 C 0.24546 0.53374 0.22179 0.0
C753 C 0.22394 0.52277 0.26482 0.0
C754 C 0.22033 0.49536 0.27498 0.0
C755 C 0.19731 0.48972 0.33554 0.0
C756 C 0.17428 0.47417 0.29083 0.0
C757 C 0.20753 0.47468 0.41498 0.0
C758 C 0.18918 0.51835 0.3571 0.0
C759 C 0.20436 0.53687 0.31261 0.0
C760 C 0.20195 0.56454 0.32311 0.0
C761 C 0.18443 0.57376 0.3852 0.0
C762 C 0.17001 0.55522 0.43509 0.0
C763 C 0.17151 0.52729 0.41957 0.0
H764 H 0.95371 0.83891 0.20656 0.0
H765 H 0.98967 0.76734 0.0965 0.0
H766 H 1.01067 0.79417 0.98786 0.0
H767 H 0.95704 0.88475 1.0014 0.0
H768 H 0.96757 0.91257 0.06799 0.0
H769 H 0.94371 0.88816 0.10762 0.0
H770 H 0.97496 0.88045 0.23841 0.0
H771 H 0.99931 0.90385 0.19799 0.0
H772 H 1.00933 0.86982 0.22165 0.0
H773 H 0.04342 0.82626 0.93808 0.0
H774 H 0.07645 0.86339 0.92326 0.0
H775 H 0.02417 0.91575 0.06867 0.0
C776 C 0.96502 0.82876 0.15729 0.0
C777 C 0.97135 0.80114 0.16481 0.0
C778 C 0.98474 0.78845 0.09561 0.0
C779 C 0.99723 0.80375 0.03278 0.0
C780 C 0.99553 0.83157 0.03845 0.0
C781 C 0.97891 0.84414 0.09706 0.0
C782 C 0.98543 0.87394 0.10356 0.0
C783 C 0.96205 0.89086 0.06795 0.0
C784 C 0.99269 0.88245 0.19579 0.0
C785 C 1.00983 0.87535 0.04621 0.0
C786 C 1.01499 0.85083 1.00793 0.0
C787 C 0.03897 0.84591 0.96423 0.0
C788 C 0.05784 0.86679 0.95763 0.0
C789 C 0.05254 0.89204 0.99488 0.0
C790 C 0.02823 0.8965 0.03883 0.0
H791 H 0.73338 0.95034 0.15546 0.0
H792 H 0.77816 0.02385 0.20426 0.0
H793 H 0.74822 0.04859 0.11101 0.0
H794 H 0.70834 0.97933 0.91647 0.0
H795 H 0.67757 0.9604 0.93031 0.0
H796 H 0.70956 0.94613 0.96208 0.0
H797 H 0.69034 0.93786 0.1132 0.0
H798 H 0.65887 0.95248 0.08276 0.0
H799 H 0.67719 0.96597 0.17326 0.0
H800 H 0.70502 0.06747 0.0801 0.0
H801 H 0.65605 0.07696 0.08195 0.0
H802 H 0.63864 0.99266 0.03941 0.0
C803 C 0.7379 0.97111 0.14043 0.0
C804 C 0.75779 0.985 0.18703 0.0
C805 C 0.76315 1.0125 0.16886 0.0
C806 C 0.74623 0.02692 0.11505 0.0
C807 C 0.72474 1.01338 0.077 0.0
C808 C 0.72148 0.98566 0.08413 0.0
C809 C 0.6943 0.97696 0.04907 0.0
C810 C 0.69763 0.965 0.95917 0.0
C811 C 0.67933 0.95722 0.10831 0.0
C812 C 0.6807 1.00402 0.04413 0.0
C813 C 0.69903 0.02492 0.05442 0.0
C814 C 0.69065 0.05141 0.06791 0.0
C815 C 0.66297 0.05657 0.07122 0.0
C816 C 0.6443 0.03521 0.0633 0.0
C817 C 0.65308 1.00895 0.04695 0.0
H818 H 0.59778 0.71739 0.27067 0.0
H819 H 0.59531 0.78933 0.113 0.0
H820 H 0.57685 0.76255 0.99608 0.0
H821 H 0.60123 0.66367 0.09694 0.0
H822 H 0.5774 0.64347 0.15554 0.0
H823 H 0.60146 0.66434 0.21199 0.0
H824 H 0.5618 0.68657 0.29319 0.0
H825 H 0.53778 0.6665 0.23505 0.0
H826 H 0.53524 0.70266 0.23321 0.0
H827 H 0.54367 0.73413 0.91841 0.0
H828 H 0.50649 0.70301 0.87683 0.0
H829 H 0.52658 0.65122 0.08921 0.0
C830 C 0.59413 0.72798 0.21187 0.0
C831 C 0.59521 0.75652 0.20618 0.0
C832 C 0.59269 0.76801 0.12349 0.0
C833 C 0.58221 0.75281 0.05545 0.0
C834 C 0.57561 0.72596 0.06999 0.0
C835 C 0.58226 0.71333 0.14562 0.0
C836 C 0.56796 0.68642 0.15393 0.0
C837 C 0.58824 0.6631 0.15453 0.0
C838 C 0.54965 0.68553 0.23345 0.0
C839 C 0.55134 0.68657 0.07301 0.0
C840 C 0.55625 0.70933 0.02471 0.0
C841 C 0.54032 0.71579 0.95393 0.0
C842 C 0.51907 0.69838 0.9316 0.0
C843 C 0.51404 0.67513 0.98053 0.0
C844 C 0.53052 0.66892 0.05091 0.0
H845 H 0.83313 0.54536 0.26359 0.0
H846 H 0.78842 0.59892 0.09737 0.0
H847 H 0.82151 0.58964 0.98138 0.0
H848 H 0.90134 0.5609 0.19027 0.0
H849 H 0.91131 0.52623 0.20202 0.0
H850 H 0.88621 0.5403 0.27164 0.0
H851 H 0.85241 0.50254 0.22938 0.0
H852 H 0.87733 0.48807 0.16093 0.0
H853 H 0.84467 0.49691 0.11823 0.0
H854 H 0.85568 0.56822 0.88075 0.0
H855 H 0.88543 0.53579 0.8051 0.0
H856 H 0.90777 0.50007 0.04647 0.0
C857 C 0.83078 0.55611 0.20391 0.0
C858 C 0.80897 0.57356 0.1896 0.0
C859 C 0.80552 0.58591 0.10932 0.0
C860 C 0.82425 0.58091 0.04396 0.0
C861 C 0.84595 0.56375 0.06141 0.0
C862 C 0.84909 0.55166 0.14001 0.0
C863 C 0.87158 0.53153 0.14231 0.0
C864 C 0.89395 0.54029 0.20519 0.0
C865 C 0.86084 0.50312 0.16389 0.0
C866 C 0.88053 0.53342 0.05123 0.0
C867 C 0.86576 0.55213 1.00504 0.0
C868 C 0.86777 0.55401 0.91645 0.0
C869 C 0.8844 0.53554 0.87404 0.0
C870 C 0.8984 0.51582 0.92115 0.0
C871 C 0.8974 0.51551 1.01027 0.0
H872 H 0.06345 0.21108 0.02476 0.0
H873 H 0.05202 0.26418 0.80806 0.0
H874 H 0.04459 0.22348 0.71688 0.0
H875 H 0.0969 0.1579 0.92703 0.0
H876 H 0.07962 0.13246 0.98787 0.0
H877 H 0.08443 0.16552 0.03224 0.0
H878 H 0.03332 0.1679 0.05694 0.0
H879 H 0.02786 0.13548 1.00895 0.0
H880 H 1.0101 0.16443 0.96849 0.0
H881 H 0.04428 0.17395 0.64895 0.0
H882 H 0.03965 0.12545 0.61442 0.0
H883 H 0.04597 0.10684 0.8834 0.0
C884 C 0.05898 0.2151 0.95886 0.0
C885 C 0.05866 0.24202 0.92542 0.0
C886 C 0.05269 0.24444 0.837 0.0
C887 C 0.04848 0.22119 0.78447 0.0
C888 C 0.04942 0.19528 0.82095 0.0
C889 C 0.05377 0.19245 0.90713 0.0
C890 C 0.05293 0.16286 0.93353 0.0
C891 C 0.08012 0.15421 0.9724 0.0
C892 C 0.02963 0.15738 0.99557 0.0
C893 C 0.04782 0.14898 0.84852 0.0
C894 C 0.04628 0.16787 0.78395 0.0
C895 C 0.0437 0.15938 0.69934 0.0
C896 C 0.04132 0.13153 0.68051 0.0
C897 C 0.04154 0.11176 0.74584 0.0
C898 C 0.04522 0.121 0.8312 0.0
H899 H 0.34187 1.02081 0.02761 0.0
H900 H 0.30005 0.07261 0.84952 0.0
H901 H 0.34068 0.07311 0.75725 0.0
H902 H 0.40483 0.05103 0.02075 0.0
H903 H 0.42442 1.02056 0.02506 0.0
H904 H 0.39103 0.02118 0.06962 0.0
H905 H 0.37702 0.98074 0.97379 0.0
H906 H 0.41062 0.98006 0.92995 0.0
H907 H 0.38174 0.98285 0.86012 0.0
H908 H 0.38815 0.06982 0.68741 0.0
H909 H 0.43615 0.06311 0.64829 0.0
H910 H 0.44852 1.01639 0.87786 0.0
C911 C 0.34084 0.03135 0.96731 0.0
C912 C 0.31708 0.04596 0.94485 0.0
C913 C 0.31728 0.0604 0.86699 0.0
C914 C 0.34056 0.06106 0.81465 0.0
C915 C 0.36384 0.04715 0.84027 0.0
C916 C 0.36396 0.03223 0.9145 0.0
C917 C 0.39184 1.01993 0.92986 0.0
C918 C 0.40371 0.02872 0.01647 0.0
C919 C 0.39021 0.98907 0.92307 0.0
C920 C 0.40794 0.03154 0.85572 0.0
C921 C 0.39121 0.04651 0.80322 0.0
C922 C 0.40123 0.05816 0.72854 0.0
C923 C 0.42865 0.05427 0.70667 0.0
C924 C 0.4464 0.03948 0.75996 0.0
C925 C 0.43572 0.02817 0.83609 0.0
H926 H 0.52538 0.31769 0.82028 0.0
H927 H 0.46637 0.32701 0.02048 0.0
H928 H 0.4602 0.3746 0.97902 0.0
H929 H 0.55736 0.37661 0.84767 0.0
H930 H 0.56318 0.38626 0.73904 0.0
H931 H 0.55963 0.35122 0.76559 0.0
H932 H 0.52079 0.34438 0.66036 0.0
H933 H 0.5232 0.37899 0.62682 0.0
H934 H 0.4916 0.36593 0.66446 0.0
H935 H 0.46606 0.42338 0.93083 0.0
H936 H 0.47868 0.46689 0.8707 0.0
H937 H 0.5342 0.42817 0.69799 0.0
C938 C 0.50978 0.3292 0.85168 0.0
C939 C 0.49553 0.31773 0.92206 0.0
C940 C 0.47662 0.33442 0.96432 0.0
C941 C 0.47342 0.36186 0.94206 0.0
C942 C 0.48892 0.37274 0.87592 0.0
C943 C 0.50619 0.3567 0.82966 0.0
C944 C 0.52165 0.3738 0.76481 0.0
C945 C 0.55227 0.37182 0.78014 0.0
C946 C 0.51388 0.36522 0.6737 0.0
C947 C 0.51137 0.40221 0.78388 0.0
C948 C 0.49235 0.4009 0.84809 0.0
C949 C 0.48067 0.42431 0.87982 0.0
C950 C 0.48827 0.44938 0.84536 0.0
C951 C 0.50759 0.45193 0.77924 0.0
C952 C 0.51914 0.42752 0.74766 0.0
H953 H 0.22441 0.46639 0.88883 0.0
H954 H 0.24789 0.54726 0.96288 0.0
H955 H 0.2038 0.56413 0.90934 0.0
H956 H 0.18499 0.48547 0.69491 0.0
H957 H 0.16006 0.45951 0.71192 0.0
H958 H 0.19442 0.45464 0.74741 0.0
H959 H 0.17745 0.4455 0.90125 0.0
H960 H 0.14331 0.45008 0.86423 0.0
H961 H 0.15607 0.46996 0.95228 0.0
H962 H 0.15445 0.57161 0.85537 0.0
H963 H 0.10739 0.56952 0.80339 0.0
H964 H 0.1145 0.48326 0.76788 0.0
C965 C 0.22071 0.48783 0.89156 0.0
C966 C 0.24048 0.50547 0.92888 0.0
C967 C 0.234 0.53327 0.93249 0.0
C968 C 0.20861 0.54299 0.90317 0.0
C969 C 0.18943 0.52484 0.86966 0.0
C970 C 0.19539 0.49782 0.8629 0.0
C971 C 0.17106 0.48225 0.82695 0.0
C972 C 0.17805 0.46972 0.74015 0.0
C973 C 0.16141 0.46068 0.89003 0.0
C974 C 0.15003 0.50446 0.81656 0.0
C975 C 0.16119 0.52896 0.84068 0.0
C976 C 0.14582 0.55245 0.83625 0.0
C977 C 0.11884 0.55102 0.80622 0.0
C978 C 0.10664 0.52627 0.78054 0.0
C979 C 0.12276 0.5026 0.78674 0.0
H980 H 0.98112 0.82709 0.51242 0.0
H981 H 0.05147 0.82435 0.35012 0.0
H982 H 0.06415 0.87032 0.39723 0.0
H983 H 0.9628 0.89326 0.48208 0.0
H984 H 0.95407 0.90131 0.59065 0.0
H985 H 0.95199 0.86701 0.55366 0.0
H986 H 0.98398 0.85173 0.67522 0.0
H987 H 0.9857 0.88594 0.71374 0.0
H988 H 1.01628 0.86812 0.68875 0.0
H989 H 0.06668 0.91895 0.45068 0.0
H990 H 0.06184 0.96372 0.51725 0.0
H991 H 0.99006 0.93647 0.64852 0.0
C992 C 0.99995 0.83564 0.49015 0.0
C993 C 1.01587 0.82127 0.4295 0.0
C994 C 0.03957 0.83406 0.39904 0.0
C995 C 0.04668 0.86051 0.4246 0.0
C996 C 0.03017 0.8743 0.48216 0.0
C997 C 1.00765 0.86202 0.51653 0.0
C998 C 0.99325 0.88156 0.57681 0.0
C999 C 0.96377 0.88604 0.54907 0.0
C1000 C 0.99488 0.87122 0.66909 0.0
C1001 C 1.0101 0.90724 0.56677 0.0
C1002 C 0.03156 0.90235 0.51279 0.0
C1003 C 0.05011 0.9227 0.49375 0.0
C1004 C 0.04718 0.94825 0.53206 0.0
C1005 C 0.02568 0.954 0.58863 0.0
C1006 C 1.00663 0.93306 0.6051 0.0
H1007 H 0.73122 0.98054 0.52759 0.0
H1008 H 0.73692 0.05093 0.3666 0.0
H1009 H 0.69092 0.06438 0.41037 0.0
H1010 H 0.66355 0.96528 0.48768 0.0
H1011 H 0.65471 0.95513 0.59421 0.0
H1012 H 0.6891 0.95216 0.55851 0.0
H1013 H 0.70583 0.98115 0.68552 0.0
H1014 H 0.67155 0.98371 0.72282 0.0
H1015 H 0.6911 1.01378 0.70375 0.0
H1016 H 0.6407 0.06503 0.44892 0.0
H1017 H 0.59459 0.05958 0.50638 0.0
H1018 H 0.62173 0.99259 0.66033 0.0
C1019 C 0.72338 0.99959 0.50526 0.0
C1020 C 0.73851 1.0152 0.44552 0.0
C1021 C 0.7266 0.0392 0.41467 0.0
C1022 C 0.70012 0.0467 0.43816 0.0
C1023 C 0.68549 0.03036 0.49421 0.0
C1024 C 0.69706 1.00775 0.5299 0.0
C1025 C 0.67665 0.99348 0.58773 0.0
C1026 C 0.67066 0.96482 0.55507 0.0
C1027 C 0.68689 0.99301 0.68047 0.0
C1028 C 0.65175 1.01142 0.57842 0.0
C1029 C 0.65718 0.03215 0.5222 0.0
C1030 C 0.63666 0.04949 0.49543 0.0
C1031 C 0.61037 0.0462 0.52837 0.0
C1032 C 0.60451 0.0265 0.59091 0.0
C1033 C 0.62565 1.00863 0.61542 0.0
H1034 H 0.57797 0.73021 0.51555 0.0
H1035 H 0.50392 0.73816 0.36875 0.0
H1036 H 0.48983 0.69269 0.41585 0.0
H1037 H 0.59052 0.66269 0.46311 0.0
H1038 H 0.60372 0.6531 0.56599 0.0
H1039 H 0.60646 0.68751 0.53107 0.0
H1040 H 0.58179 0.70383 0.66672 0.0
H1041 H 0.5794 0.6695 0.70297 0.0
H1042 H 0.54933 0.6896 0.69299 0.0
H1043 H 0.48537 0.64414 0.47099 0.0
H1044 H 0.48947 0.59887 0.53369 0.0
H1045 H 0.56799 0.6203 0.63837 0.0
C1046 C 0.55844 0.72274 0.49464 0.0
C1047 C 0.54198 0.73844 0.43841 0.0
C1048 C 0.51671 0.72734 0.41308 0.0
C1049 C 0.50871 0.70117 0.43874 0.0
C1050 C 0.52605 0.68593 0.49043 0.0
C1051 C 0.55028 0.69651 0.519 0.0
C1052 C 0.5658 0.67558 0.57122 0.0
C1053 C 0.59325 0.66936 0.53039 0.0
C1054 C 0.56929 0.6852 0.66397 0.0
C1055 C 0.54687 0.65124 0.5661 0.0
C1056 C 0.5239 0.65785 0.51996 0.0
C1057 C 0.50327 0.63899 0.50731 0.0
C1058 C 0.50584 0.61312 0.54339 0.0
C1059 C 0.52906 0.60556 0.5913 0.0
C1060 C 0.55004 0.62506 0.6017 0.0
H1061 H 0.81873 0.52019 0.47634 0.0
H1062 H 0.81249 0.60678 0.5035 0.0
H1063 H 0.85779 0.60829 0.5685 0.0
H1064 H 0.85635 0.51452 0.6944 0.0
H1065 H 0.8765 0.48642 0.66026 0.0
H1066 H 0.84253 0.49049 0.61973 0.0
H1067 H 0.85983 0.48955 0.46521 0.0
H1068 H 0.89389 0.48517 0.50362 0.0
H1069 H 0.88601 0.51274 0.43328 0.0
H1070 H 0.90714 0.60201 0.60102 0.0
H1071 H 0.95297 0.5875 0.64007 0.0
H1072 H 0.92769 0.50395 0.62061 0.0
C1073 C 0.82616 0.53925 0.50069 0.0
C1074 C 0.81131 0.56345 0.48487 0.0
C1075 C 0.82271 0.58793 0.5159 0.0
C1076 C 0.84885 0.58906 0.55176 0.0
C1077 C 0.86341 0.56531 0.56181 0.0
C1078 C 0.85202 0.54063 0.54182 0.0
C1079 C 0.87215 0.51822 0.56464 0.0
C1080 C 0.86125 0.50139 0.63912 0.0
C1081 C 0.87833 0.50038 0.487 0.0
C1082 C 0.89717 0.53434 0.5932 0.0
C1083 C 0.89145 0.56152 0.59038 0.0
C1084 C 0.91147 0.58075 0.60664 0.0
C1085 C 0.93768 0.57222 0.62861 0.0
C1086 C 0.94426 0.54451 0.63607 0.0
C1087 C 0.92341 0.52528 0.61807 0.0
loop_
_geom_bond_atom_site_label_1
_geom_bond_atom_site_label_2
_geom_bond_distance
_geom_bond_site_symmetry_2
_ccdc_geom_bond_type
H0 C7 0.929 . S
H1 C10 0.930 . S
H2 C12 0.929 . S
H3 C4 0.969 . S
C4 H3 0.969 . S
C4 O5 1.550 . S
C4 H6 0.973 . S
O5 C4 1.550 . S
O5 C11 1.412 . S
H6 C4 0.973 . S
C7 H0 0.929 . S
C7 C8 1.400 . S
C7 C9 1.364 . S
C8 C7 1.400 . S
C8 C12 1.377 . S
C9 C7 1.364 . S
C9 C10 1.374 . S
C10 H1 0.930 . S
C10 C9 1.374 . S
C10 C11 1.383 . S
C11 O5 1.412 . S
C11 C10 1.383 . S
C11 C12 1.394 . S
C12 H2 0.929 . S
C12 C8 1.377 . S
C12 C11 1.394 . S
H13 C20 0.929 . S
H14 C23 0.930 . S
H15 C25 0.929 . S
H16 C17 0.969 1_455 S
C17 H16 0.969 1_655 S
C17 O18 1.550 . S
C17 H19 0.973 . S
O18 C17 1.550 . S
O18 C24 1.412 . S
H19 C17 0.973 . S
C20 H13 0.929 . S
C20 C21 1.400 . S
C20 C22 1.364 . S
C21 C20 1.400 . S
C21 C25 1.377 . S
C22 C20 1.364 . S
C22 C23 1.374 . S
C23 H14 0.930 . S
C23 C22 1.374 . S
C23 C24 1.383 . S
C24 O18 1.412 . S
C24 C23 1.383 . S
C24 C25 1.394 . S
C25 H15 0.929 . S
C25 C21 1.377 . S
C25 C24 1.394 . S
H26 C33 0.929 . S
H27 C36 0.930 . S
H28 C38 0.929 . S
H29 C30 0.969 1_545 S
C30 H29 0.969 1_565 S
C30 O31 1.550 . S
C30 H32 0.973 . S
O31 C30 1.550 . S
O31 C37 1.412 . S
H32 C30 0.973 . S
C33 H26 0.929 . S
C33 C34 1.400 . S
C33 C35 1.364 . S
C34 C33 1.400 . S
C34 C38 1.377 . S
C35 C33 1.364 . S
C35 C36 1.374 . S
C36 H27 0.930 . S
C36 C35 1.374 . S
C36 C37 1.383 . S
C37 O31 1.412 . S
C37 C36 1.383 . S
C37 C38 1.394 . S
C38 H28 0.929 . S
C38 C34 1.377 . S
C38 C37 1.394 . S
H39 C46 0.929 . S
H40 C49 0.930 . S
H41 C51 0.929 . S
H42 C43 0.969 . S
C43 H42 0.969 . S
C43 O44 1.550 . S
C43 H45 0.973 . S
O44 C43 1.550 . S
O44 C50 1.412 . S
H45 C43 0.973 . S
C46 H39 0.929 . S
C46 C47 1.400 . S
C46 C48 1.364 . S
C47 C46 1.400 . S
C47 C51 1.377 . S
C48 C46 1.364 . S
C48 C49 1.374 . S
C49 H40 0.930 . S
C49 C48 1.374 . S
C49 C50 1.383 . S
C50 O44 1.412 . S
C50 C49 1.383 . S
C50 C51 1.394 . S
C51 H41 0.929 . S
C51 C47 1.377 . S
C51 C50 1.394 . S
H52 C59 0.929 . S
H53 C62 0.930 . S
H54 C64 0.929 . S
H55 C56 0.969 . S
C56 H55 0.969 . S
C56 O57 1.550 . S
C56 H58 0.973 . S
O57 C56 1.550 . S
O57 C63 1.412 . S
H58 C56 0.973 . S
C59 H52 0.929 . S
C59 C60 1.400 1_554 S
C59 C61 1.364 . S
C60 C59 1.400 1_556 S
C60 C64 1.377 . S
C61 C59 1.364 . S
C61 C62 1.374 . S
C62 H53 0.930 . S
C62 C61 1.374 . S
C62 C63 1.383 . S
C63 O57 1.412 . S
C63 C62 1.383 . S
C63 C64 1.394 1_554 S
C64 H54 0.929 . S
C64 C60 1.377 . S
C64 C63 1.394 1_556 S
H65 C72 0.929 . S
H66 C75 0.930 . S
H67 C77 0.929 . S
H68 C69 0.969 . S
C69 H68 0.969 . S
C69 O70 1.550 . S
C69 H71 0.973 . S
O70 C69 1.550 . S
O70 C76 1.412 . S
H71 C69 0.973 . S
C72 H65 0.929 . S
C72 C73 1.400 1_554 S
C72 C74 1.364 . S
C73 C72 1.400 1_556 S
C73 C77 1.377 . S
C74 C72 1.364 . S
C74 C75 1.374 . S
C75 H66 0.930 . S
C75 C74 1.374 . S
C75 C76 1.383 . S
C76 O70 1.412 . S
C76 C75 1.383 . S
C76 C77 1.394 1_554 S
C77 H67 0.929 . S
C77 C73 1.377 . S
C77 C76 1.394 1_556 S
H78 C85 0.929 . S
H79 C88 0.930 . S
H80 C90 0.929 . S
H81 C82 0.969 . S
C82 H81 0.969 . S
C82 O83 1.550 . S
C82 H84 0.973 . S
O83 C82 1.550 . S
O83 C89 1.412 . S
H84 C82 0.973 . S
C85 H78 0.929 . S
C85 C86 1.400 1_554 S
C85 C87 1.364 . S
C86 C85 1.400 1_556 S
C86 C90 1.377 . S
C87 C85 1.364 . S
C87 C88 1.374 . S
C88 H79 0.930 . S
C88 C87 1.374 . S
C88 C89 1.383 . S
C89 O83 1.412 . S
C89 C88 1.383 . S
C89 C90 1.394 1_554 S
C90 H80 0.929 . S
C90 C86 1.377 . S
C90 C89 1.394 1_556 S
H91 C98 0.929 . S
H92 C101 0.930 . S
H93 C103 0.929 . S
H94 C95 0.969 . S
C95 H94 0.969 . S
C95 O96 1.550 . S
C95 H97 0.973 . S
O96 C95 1.550 . S
O96 C102 1.412 . S
H97 C95 0.973 . S
C98 H91 0.929 . S
C98 C99 1.400 1_554 S
C98 C100 1.364 . S
C99 C98 1.400 1_556 S
C99 C103 1.377 . S
C100 C98 1.364 . S
C100 C101 1.374 . S
C101 H92 0.930 . S
C101 C100 1.374 . S
C101 C102 1.383 . S
C102 O96 1.412 . S
C102 C101 1.383 . S
C102 C103 1.394 1_554 S
C103 H93 0.929 . S
C103 C99 1.377 . S
C103 C102 1.394 1_556 S
Eu104 N133 2.600 . S
Eu104 N139 2.562 . S
Eu104 O148 2.462 1_655 S
Eu104 O149 2.373 1_545 S
Eu104 O151 2.432 . S
Eu104 O152 2.291 1_655 S
Eu104 O156 2.335 1_655 S
Eu104 O159 2.372 . S
Eu104 C168 2.787 . S
C105 N106 1.365 . S
C105 C108 1.405 . S
C105 C112 1.448 . S
N106 C105 1.365 . S
N106 C109 1.319 . S
N106 Eu115 2.600 1_545 S
C107 C109 1.397 . S
C107 C110 1.367 . S
C107 H127 0.931 . S
C108 C105 1.405 . S
C108 C110 1.403 . S
C108 C114 1.439 1_556 S
C109 N106 1.319 . S
C109 C107 1.397 . S
C109 H120 0.930 1_545 S
C110 C107 1.367 . S
C110 C108 1.403 . S
C110 H131 0.929 . S
C111 C112 1.430 1_554 S
C111 C113 1.387 . S
C111 C117 1.404 . S
C112 C105 1.448 . S
C112 C111 1.430 1_556 S
C112 N116 1.351 . S
C113 C111 1.387 . S
C113 C114 1.374 . S
C113 H128 0.931 . S
C114 C108 1.439 1_554 S
C114 C113 1.374 . S
C114 H129 0.931 . S
Eu115 N106 2.600 1_565 S
Eu115 N116 2.562 1_565 S
Eu115 O150 2.335 . S
Eu115 O153 2.372 . S
Eu115 O154 2.462 . S
Eu115 O155 2.373 1_565 S
Eu115 O157 2.432 . S
Eu115 O158 2.291 1_465 S
Eu115 C179 2.787 . S
N116 C112 1.351 . S
N116 Eu115 2.562 1_545 S
N116 C118 1.325 . S
C117 C111 1.404 . S
C117 C119 1.366 . S
C117 H125 0.930 . S
C118 N116 1.325 . S
C118 C119 1.416 1_556 S
C118 H124 0.929 1_455 S
C119 C117 1.366 . S
C119 C118 1.416 1_554 S
C119 H121 0.930 1_455 S
H120 C109 0.930 1_565 S
H121 C119 0.930 1_655 S
H122 C137 0.930 . S
H123 C144 0.930 . S
H124 C118 0.929 1_655 S
H125 C117 0.930 . S
H126 C140 0.929 . S
H127 C107 0.931 . S
H128 C113 0.931 . S
H129 C114 0.931 . S
H130 C135 0.931 . S
H131 C110 0.929 . S
H132 C143 0.930 . S
N133 Eu104 2.600 . S
N133 C134 1.365 . S
N133 C137 1.319 . S
C134 N133 1.365 . S
C134 C136 1.405 1_545 S
C134 C142 1.448 . S
C135 H130 0.931 . S
C135 C137 1.397 . S
C135 C138 1.367 1_545 S
C136 C134 1.405 1_565 S
C136 C138 1.403 . S
C136 C169 1.439 . S
C137 H122 0.930 . S
C137 N133 1.319 . S
C137 C135 1.397 . S
C138 C135 1.367 1_565 S
C138 C136 1.403 . S
C138 H145 0.929 . S
N139 Eu104 2.562 . S
N139 C140 1.325 1_655 S
N139 C142 1.351 . S
C140 H126 0.929 . S
C140 N139 1.325 1_455 S
C140 C144 1.416 1_545 S
C141 C142 1.430 1_565 S
C141 C143 1.404 . S
C141 C170 1.387 . S
C142 C134 1.448 . S
C142 N139 1.351 . S
C142 C141 1.430 1_545 S
C143 H132 0.930 . S
C143 C141 1.404 . S
C143 C144 1.366 1_655 S
C144 H123 0.930 . S
C144 C140 1.416 1_565 S
C144 C143 1.366 1_455 S
H145 C138 0.929 . S
H146 C169 0.931 . S
H147 C170 0.931 . S
O148 Eu104 2.462 1_455 S
O148 C168 1.252 1_455 S
O149 Eu104 2.373 1_565 S
O149 C160 1.249 . S
O150 Eu115 2.335 . S
O150 C160 1.264 1_455 S
O151 Eu104 2.432 . S
O151 C168 1.268 . S
O152 Eu104 2.291 1_455 S
O152 C167 1.255 . S
O153 Eu115 2.372 . S
O153 C167 1.257 1_565 S
O154 Eu115 2.462 . S
O154 C179 1.252 . S
O155 Eu115 2.373 1_545 S
O155 C171 1.249 . S
O156 Eu104 2.335 1_455 S
O156 C171 1.264 . S
O157 Eu115 2.432 . S
O157 C179 1.268 . S
O158 Eu115 2.291 1_645 S
O158 C178 1.255 . S
O159 Eu104 2.372 . S
O159 C178 1.257 . S
C160 O149 1.249 . S
C160 O150 1.264 1_655 S
C161 C164 1.382 . S
C161 C166 1.390 . S
C161 C168 1.506 . S
C162 C163 1.398 . S
C162 C166 1.392 . S
C163 C162 1.398 . S
C163 C165 1.372 . S
C163 H180 0.931 . S
C164 C161 1.382 . S
C164 C165 1.390 . S
C164 H181 0.931 . S
C165 C163 1.372 . S
C165 C164 1.390 . S
C165 H182 0.929 . S
C166 C161 1.390 . S
C166 C162 1.392 . S
C166 H183 0.930 1_655 S
C167 O152 1.255 . S
C167 O153 1.257 1_545 S
C168 Eu104 2.787 . S
C168 O148 1.252 1_655 S
C168 O151 1.268 . S
C168 C161 1.506 . S
C169 C136 1.439 . S
C169 H146 0.931 . S
C169 C170 1.374 . S
C170 C141 1.387 . S
C170 H147 0.931 . S
C170 C169 1.374 . S
C171 O155 1.249 . S
C171 O156 1.264 . S
C172 C175 1.382 . S
C172 C176 1.390 . S
C172 C179 1.506 . S
C173 C174 1.398 . S
C173 C176 1.392 . S
C174 C173 1.398 . S
C174 C177 1.372 . S
C174 H184 0.931 1_556 S
C175 C172 1.382 . S
C175 C177 1.390 . S
C175 H185 0.931 . S
C176 C172 1.390 . S
C176 C173 1.392 . S
C176 H186 0.930 . S
C177 C174 1.372 . S
C177 C175 1.390 . S
C177 H187 0.929 . S
C178 O158 1.255 . S
C178 O159 1.257 . S
C179 Eu115 2.787 . S
C179 O154 1.252 . S
C179 O157 1.268 . S
C179 C172 1.506 . S
H180 C163 0.931 . S
H181 C164 0.931 . S
H182 C165 0.929 . S
H183 C166 0.930 1_455 S
H184 C174 0.931 1_554 S
H185 C175 0.931 . S
H186 C176 0.930 . S
H187 C177 0.929 . S
Eu188 N217 2.600 . S
Eu188 N223 2.562 . S
Eu188 O232 2.462 . S
Eu188 O233 2.373 . S
Eu188 O235 2.432 . S
Eu188 O236 2.291 . S
Eu188 O240 2.335 1_545 S
Eu188 O243 2.372 . S
Eu188 C252 2.787 . S
C189 N190 1.365 . S
C189 C192 1.405 . S
C189 C196 1.448 . S
N190 C189 1.365 . S
N190 C193 1.319 . S
N190 Eu199 2.600 . S
C191 C193 1.397 . S
C191 C194 1.367 . S
C191 H211 0.931 . S
C192 C189 1.405 . S
C192 C194 1.403 . S
C192 C198 1.439 . S
C193 N190 1.319 . S
C193 C191 1.397 . S
C193 H204 0.930 . S
C194 C191 1.367 . S
C194 C192 1.403 . S
C194 H215 0.929 . S
C195 C196 1.430 . S
C195 C197 1.387 . S
C195 C201 1.404 . S
C196 C189 1.448 . S
C196 C195 1.430 . S
C196 N200 1.351 . S
C197 C195 1.387 . S
C197 C198 1.374 . S
C197 H212 0.931 . S
C198 C192 1.439 . S
C198 C197 1.374 . S
C198 H213 0.931 . S
Eu199 N190 2.600 . S
Eu199 N200 2.562 . S
Eu199 O234 2.335 1_565 S
Eu199 O237 2.372 . S
Eu199 O238 2.462 . S
Eu199 O239 2.373 . S
Eu199 O241 2.432 . S
Eu199 O242 2.291 1_565 S
Eu199 C263 2.787 . S
N200 C196 1.351 . S
N200 Eu199 2.562 . S
N200 C202 1.325 . S
C201 C195 1.404 . S
C201 C203 1.366 . S
C201 H209 0.930 . S
C202 N200 1.325 . S
C202 C203 1.416 . S
C202 H208 0.929 . S
C203 C201 1.366 . S
C203 C202 1.416 . S
C203 H205 0.930 . S
H204 C193 0.930 . S
H205 C203 0.930 . S
H206 C221 0.930 . S
H207 C228 0.930 . S
H208 C202 0.929 . S
H209 C201 0.930 . S
H210 C224 0.929 . S
H211 C191 0.931 . S
H212 C197 0.931 . S
H213 C198 0.931 . S
H214 C219 0.931 . S
H215 C194 0.929 . S
H216 C227 0.930 . S
N217 Eu188 2.600 . S
N217 C218 1.365 . S
N217 C221 1.319 . S
C218 N217 1.365 . S
C218 C220 1.405 . S
C218 C226 1.448 . S
C219 H214 0.931 . S
C219 C221 1.397 . S
C219 C222 1.367 . S
C220 C218 1.405 . S
C220 C222 1.403 . S
C220 C253 1.439 . S
C221 H206 0.930 . S
C221 N217 1.319 . S
C221 C219 1.397 . S
C222 C219 1.367 . S
C222 C220 1.403 . S
C222 H229 0.929 . S
N223 Eu188 2.562 . S
N223 C224 1.325 . S
N223 C226 1.351 . S
C224 H210 0.929 . S
C224 N223 1.325 . S
C224 C228 1.416 . S
C225 C226 1.430 . S
C225 C227 1.404 . S
C225 C254 1.387 . S
C226 C218 1.448 . S
C226 N223 1.351 . S
C226 C225 1.430 . S
C227 H216 0.930 . S
C227 C225 1.404 . S
C227 C228 1.366 . S
C228 H207 0.930 . S
C228 C224 1.416 . S
C228 C227 1.366 . S
H229 C222 0.929 . S
H230 C253 0.931 . S
H231 C254 0.931 . S
O232 Eu188 2.462 . S
O232 C252 1.252 . S
O233 Eu188 2.373 . S
O233 C244 1.249 . S
O234 Eu199 2.335 1_545 S
O234 C244 1.264 . S
O235 Eu188 2.432 . S
O235 C252 1.268 . S
O236 Eu188 2.291 . S
O236 C251 1.255 . S
O237 Eu199 2.372 . S
O237 C251 1.257 1_565 S
O238 Eu199 2.462 . S
O238 C263 1.252 . S
O239 Eu199 2.373 . S
O239 C255 1.249 . S
O240 Eu188 2.335 1_565 S
O240 C255 1.264 . S
O241 Eu199 2.432 . S
O241 C263 1.268 . S
O242 Eu199 2.291 1_545 S
O242 C262 1.255 . S
O243 Eu188 2.372 . S
O243 C262 1.257 . S
C244 O233 1.249 . S
C244 O234 1.264 . S
C245 C248 1.382 1_556 S
C245 C250 1.390 . S
C245 C252 1.506 . S
C246 C247 1.398 . S
C246 C250 1.392 1_554 S
C247 C246 1.398 . S
C247 C249 1.372 . S
C247 H264 0.931 . S
C248 C245 1.382 1_554 S
C248 C249 1.390 . S
C248 H265 0.931 . S
C249 C247 1.372 . S
C249 C248 1.390 . S
C249 H266 0.929 . S
C250 C245 1.390 . S
C250 C246 1.392 1_556 S
C250 H267 0.930 . S
C251 O236 1.255 . S
C251 O237 1.257 1_545 S
C252 Eu188 2.787 . S
C252 O232 1.252 . S
C252 O235 1.268 . S
C252 C245 1.506 . S
C253 C220 1.439 . S
C253 H230 0.931 . S
C253 C254 1.374 . S
C254 C225 1.387 . S
C254 H231 0.931 . S
C254 C253 1.374 . S
C255 O239 1.249 . S
C255 O240 1.264 . S
C256 C259 1.382 . S
C256 C260 1.390 1_565 S
C256 C263 1.506 . S
C257 C258 1.398 1_545 S
C257 C260 1.392 . S
C258 C257 1.398 1_565 S
C258 C261 1.372 . S
C258 H268 0.931 . S
C259 C256 1.382 . S
C259 C261 1.390 . S
C259 H269 0.931 . S
C260 C256 1.390 1_545 S
C260 C257 1.392 . S
C260 H270 0.930 . S
C261 C258 1.372 . S
C261 C259 1.390 . S
C261 H271 0.929 . S
C262 O242 1.255 . S
C262 O243 1.257 . S
C263 Eu199 2.787 . S
C263 O238 1.252 . S
C263 O241 1.268 . S
C263 C256 1.506 . S
H264 C247 0.931 . S
H265 C248 0.931 . S
H266 C249 0.929 . S
H267 C250 0.930 . S
H268 C258 0.931 . S
H269 C259 0.931 . S
H270 C260 0.930 . S
H271 C261 0.929 . S
Eu272 N301 2.600 . S
Eu272 N307 2.562 . S
Eu272 O316 2.462 . S
Eu272 O317 2.373 . S
Eu272 O319 2.432 . S
Eu272 O320 2.291 . S
Eu272 O324 2.335 . S
Eu272 O327 2.372 . S
Eu272 C336 2.787 . S
C273 N274 1.365 . S
C273 C276 1.405 . S
C273 C280 1.448 . S
N274 C273 1.365 . S
N274 C277 1.319 . S
N274 Eu283 2.600 . S
C275 C277 1.397 . S
C275 C278 1.367 . S
C275 H295 0.931 . S
C276 C273 1.405 . S
C276 C278 1.403 . S
C276 C282 1.439 1_556 S
C277 N274 1.319 . S
C277 C275 1.397 . S
C277 H288 0.930 . S
C278 C275 1.367 . S
C278 C276 1.403 . S
C278 H299 0.929 . S
C279 C280 1.430 1_554 S
C279 C281 1.387 . S
C279 C285 1.404 . S
C280 C273 1.448 . S
C280 C279 1.430 1_556 S
C280 N284 1.351 . S
C281 C279 1.387 . S
C281 C282 1.374 . S
C281 H296 0.931 . S
C282 C276 1.439 1_554 S
C282 C281 1.374 . S
C282 H297 0.931 . S
Eu283 N274 2.600 . S
Eu283 N284 2.562 . S
Eu283 O318 2.335 . S
Eu283 O321 2.372 . S
Eu283 O322 2.462 . S
Eu283 O323 2.373 . S
Eu283 O325 2.432 . S
Eu283 O326 2.291 . S
Eu283 C347 2.787 . S
N284 C280 1.351 . S
N284 Eu283 2.562 . S
N284 C286 1.325 . S
C285 C279 1.404 . S
C285 C287 1.366 . S
C285 H293 0.930 . S
C286 N284 1.325 . S
C286 C287 1.416 1_556 S
C286 H292 0.929 . S
C287 C285 1.366 . S
C287 C286 1.416 1_554 S
C287 H289 0.930 . S
H288 C277 0.930 . S
H289 C287 0.930 . S
H290 C305 0.930 . S
H291 C312 0.930 . S
H292 C286 0.929 . S
H293 C285 0.930 . S
H294 C308 0.929 . S
H295 C275 0.931 . S
H296 C281 0.931 . S
H297 C282 0.931 . S
H298 C303 0.931 . S
H299 C278 0.929 . S
H300 C311 0.930 . S
N301 Eu272 2.600 . S
N301 C302 1.365 . S
N301 C305 1.319 . S
C302 N301 1.365 . S
C302 C304 1.405 . S
C302 C310 1.448 . S
C303 H298 0.931 . S
C303 C305 1.397 . S
C303 C306 1.367 . S
C304 C302 1.405 . S
C304 C306 1.403 . S
C304 C337 1.439 . S
C305 H290 0.930 . S
C305 N301 1.319 . S
C305 C303 1.397 . S
C306 C303 1.367 . S
C306 C304 1.403 . S
C306 H313 0.929 . S
N307 Eu272 2.562 . S
N307 C308 1.325 . S
N307 C310 1.351 . S
C308 H294 0.929 . S
C308 N307 1.325 . S
C308 C312 1.416 . S
C309 C310 1.430 . S
C309 C311 1.404 . S
C309 C338 1.387 . S
C310 C302 1.448 . S
C310 N307 1.351 . S
C310 C309 1.430 . S
C311 H300 0.930 . S
C311 C309 1.404 . S
C311 C312 1.366 . S
C312 H291 0.930 . S
C312 C308 1.416 . S
C312 C311 1.366 . S
H313 C306 0.929 . S
H314 C337 0.931 . S
H315 C338 0.931 . S
O316 Eu272 2.462 . S
O316 C336 1.252 . S
O317 Eu272 2.373 . S
O317 C328 1.249 . S
O318 Eu283 2.335 . S
O318 C328 1.264 . S
O319 Eu272 2.432 . S
O319 C336 1.268 . S
O320 Eu272 2.291 . S
O320 C335 1.255 . S
O321 Eu283 2.372 . S
O321 C335 1.257 . S
O322 Eu283 2.462 . S
O322 C347 1.252 . S
O323 Eu283 2.373 . S
O323 C339 1.249 . S
O324 Eu272 2.335 . S
O324 C339 1.264 . S
O325 Eu283 2.432 . S
O325 C347 1.268 . S
O326 Eu283 2.291 . S
O326 C346 1.255 . S
O327 Eu272 2.372 . S
O327 C346 1.257 . S
C328 O317 1.249 . S
C328 O318 1.264 . S
C329 C332 1.382 . S
C329 C334 1.390 . S
C329 C336 1.506 . S
C330 C331 1.398 . S
C330 C334 1.392 . S
C331 C330 1.398 . S
C331 C333 1.372 . S
C331 H348 0.931 . S
C332 C329 1.382 . S
C332 C333 1.390 . S
C332 H349 0.931 . S
C333 C331 1.372 . S
C333 C332 1.390 . S
C333 H350 0.929 . S
C334 C329 1.390 . S
C334 C330 1.392 . S
C334 H351 0.930 . S
C335 O320 1.255 . S
C335 O321 1.257 . S
C336 Eu272 2.787 . S
C336 O316 1.252 . S
C336 O319 1.268 . S
C336 C329 1.506 . S
C337 C304 1.439 . S
C337 H314 0.931 . S
C337 C338 1.374 . S
C338 C309 1.387 . S
C338 H315 0.931 . S
C338 C337 1.374 . S
C339 O323 1.249 . S
C339 O324 1.264 . S
C340 C343 1.382 . S
C340 C344 1.390 . S
C340 C347 1.506 . S
C341 C342 1.398 . S
C341 C344 1.392 . S
C342 C341 1.398 . S
C342 C345 1.372 . S
C342 H352 0.931 1_556 S
C343 C340 1.382 . S
C343 C345 1.390 . S
C343 H353 0.931 . S
C344 C340 1.390 . S
C344 C341 1.392 . S
C344 H354 0.930 . S
C345 C342 1.372 . S
C345 C343 1.390 . S
C345 H355 0.929 . S
C346 O326 1.255 . S
C346 O327 1.257 . S
C347 Eu283 2.787 . S
C347 O322 1.252 . S
C347 O325 1.268 . S
C347 C340 1.506 . S
H348 C331 0.931 . S
H349 C332 0.931 . S
H350 C333 0.929 . S
H351 C334 0.930 . S
H352 C342 0.931 1_554 S
H353 C343 0.931 . S
H354 C344 0.930 . S
H355 C345 0.929 . S
Eu356 N385 2.600 . S
Eu356 N391 2.562 . S
Eu356 O400 2.462 . S
Eu356 O401 2.373 1_455 S
Eu356 O403 2.432 . S
Eu356 O404 2.291 . S
Eu356 O408 2.335 . S
Eu356 O411 2.372 . S
Eu356 C420 2.787 . S
C357 N358 1.365 . S
C357 C360 1.405 . S
C357 C364 1.448 . S
N358 C357 1.365 . S
N358 C361 1.315 1_455 S
N358 Eu367 2.600 1_455 S
C359 C361 1.385 1_455 S
C359 C362 1.367 . S
C359 H379 0.931 . S
C360 C357 1.405 . S
C360 C362 1.403 . S
C360 C366 1.439 1_556 S
C361 N358 1.315 1_655 S
C361 C359 1.385 1_655 S
C361 H372 0.948 . S
C362 C359 1.367 . S
C362 C360 1.403 . S
C362 H383 0.929 . S
C363 C364 1.430 1_554 S
C363 C365 1.387 . S
C363 C369 1.404 . S
C364 C357 1.448 . S
C364 C363 1.430 1_556 S
C364 N368 1.351 . S
C365 C363 1.387 . S
C365 C366 1.374 . S
C365 H380 0.931 . S
C366 C360 1.439 1_554 S
C366 C365 1.374 . S
C366 H381 0.931 . S
Eu367 N358 2.600 1_655 S
Eu367 N368 2.562 1_655 S
Eu367 O402 2.335 . S
Eu367 O405 2.372 . S
Eu367 O406 2.462 . S
Eu367 O407 2.373 1_655 S
Eu367 O409 2.432 . S
Eu367 O410 2.291 1_655 S
Eu367 C431 2.787 . S
N368 C364 1.351 . S
N368 Eu367 2.562 1_455 S
N368 C370 1.325 . S
C369 C363 1.404 . S
C369 C371 1.366 . S
C369 H377 0.930 . S
C370 N368 1.325 . S
C370 C371 1.416 1_556 S
C370 H376 0.929 . S
C371 C369 1.366 . S
C371 C370 1.416 1_554 S
C371 H373 0.930 . S
H372 C361 0.948 . S
H373 C371 0.930 . S
H374 C389 0.930 . S
H375 C396 0.930 . S
H376 C370 0.929 . S
H377 C369 0.930 . S
H378 C392 0.929 . S
H379 C359 0.931 . S
H380 C365 0.931 . S
H381 C366 0.931 . S
H382 C387 0.931 . S
H383 C362 0.929 . S
H384 C395 0.930 . S
N385 Eu356 2.600 . S
N385 C386 1.365 . S
N385 C389 1.319 . S
C386 N385 1.365 . S
C386 C388 1.405 1_455 S
C386 C394 1.448 . S
C387 H382 0.931 . S
C387 C389 1.397 . S
C387 C390 1.367 1_455 S
C388 C386 1.405 1_655 S
C388 C390 1.403 . S
C388 C421 1.439 . S
C389 H374 0.930 . S
C389 N385 1.319 . S
C389 C387 1.397 . S
C390 C387 1.367 1_655 S
C390 C388 1.403 . S
C390 H397 0.929 . S
N391 Eu356 2.562 . S
N391 C392 1.325 . S
N391 C394 1.354 . S
C392 H378 0.929 . S
C392 N391 1.325 . S
C392 C396 1.416 1_455 S
C393 C394 1.427 1_655 S
C393 C395 1.404 . S
C393 C422 1.387 . S
C394 C386 1.448 . S
C394 N391 1.354 . S
C394 C393 1.427 1_455 S
C395 H384 0.930 . S
C395 C393 1.404 . S
C395 C396 1.366 . S
C396 H375 0.930 . S
C396 C392 1.416 1_655 S
C396 C395 1.366 . S
H397 C390 0.929 . S
H398 C421 0.931 . S
H399 C422 0.931 . S
O400 Eu356 2.462 . S
O400 C420 1.252 . S
O401 Eu356 2.373 1_655 S
O401 C412 1.249 . S
O402 Eu367 2.335 . S
O402 C412 1.264 . S
O403 Eu356 2.432 . S
O403 C420 1.268 . S
O404 Eu356 2.291 . S
O404 C419 1.255 . S
O405 Eu367 2.372 . S
O405 C419 1.257 1_655 S
O406 Eu367 2.462 . S
O406 C431 1.252 . S
O407 Eu367 2.373 1_455 S
O407 C423 1.249 . S
O408 Eu356 2.335 . S
O408 C423 1.264 . S
O409 Eu367 2.432 . S
O409 C431 1.268 . S
O410 Eu367 2.291 1_455 S
O410 C430 1.255 . S
O411 Eu356 2.372 . S
O411 C430 1.257 . S
C412 O401 1.249 . S
C412 O402 1.264 . S
C413 C416 1.382 . S
C413 C418 1.390 . S
C413 C420 1.506 . S
C414 C415 1.398 . S
C414 C418 1.392 . S
C415 C414 1.398 . S
C415 C417 1.372 . S
C415 H432 0.931 . S
C416 C413 1.382 . S
C416 C417 1.390 . S
C416 H433 0.931 . S
C417 C415 1.372 . S
C417 C416 1.390 . S
C417 H434 0.929 . S
C418 C413 1.390 . S
C418 C414 1.392 . S
C418 H435 0.930 . S
C419 O404 1.255 . S
C419 O405 1.257 1_455 S
C420 Eu356 2.787 . S
C420 O400 1.252 . S
C420 O403 1.268 . S
C420 C413 1.506 . S
C421 C388 1.439 . S
C421 H398 0.931 . S
C421 C422 1.374 . S
C422 C393 1.387 . S
C422 H399 0.931 . S
C422 C421 1.374 . S
C423 O407 1.249 . S
C423 O408 1.264 . S
C424 C427 1.382 . S
C424 C428 1.390 . S
C424 C431 1.506 . S
C425 C426 1.398 . S
C425 C428 1.392 . S
C426 C425 1.398 . S
C426 C429 1.372 . S
C426 H436 0.931 1_556 S
C427 C424 1.382 . S
C427 C429 1.390 . S
C427 H437 0.931 . S
C428 C424 1.390 . S
C428 C425 1.392 . S
C428 H438 0.930 . S
C429 C426 1.372 . S
C429 C427 1.390 . S
C429 H439 0.929 . S
C430 O410 1.255 . S
C430 O411 1.257 . S
C431 Eu367 2.787 . S
C431 O406 1.252 . S
C431 O409 1.268 . S
C431 C424 1.506 . S
H432 C415 0.931 . S
H433 C416 0.931 . S
H434 C417 0.929 . S
H435 C418 0.930 . S
H436 C426 0.931 1_554 S
H437 C427 0.931 . S
H438 C428 0.930 . S
H439 C429 0.929 . S
H440 C452 0.930 . S
H441 C454 0.930 1_565 S
H442 C455 0.946 . S
H443 C459 0.959 . S
H444 C459 0.959 . S
H445 C459 0.961 . S
H446 C460 0.960 . S
H447 C460 0.961 . S
H448 C460 0.959 . S
H449 C463 0.929 . S
H450 C464 0.931 . S
H451 C466 0.930 . S
C452 H440 0.930 . S
C452 C453 1.399 . S
C452 C457 1.399 . S
C453 C452 1.399 . S
C453 C454 1.376 . S
C454 H441 0.930 1_545 S
C454 C453 1.376 . S
C454 C455 1.383 1_545 S
C455 H442 0.946 . S
C455 C454 1.383 1_565 S
C455 C456 1.379 1_565 S
C456 C455 1.379 1_545 S
C456 C457 1.394 . S
C456 C462 1.465 . S
C457 C452 1.399 . S
C457 C456 1.394 . S
C457 C458 1.516 . S
C458 C457 1.516 . S
C458 C459 1.502 . S
C458 C460 1.561 . S
C458 C461 1.526 . S
C459 H443 0.959 . S
C459 H444 0.959 . S
C459 H445 0.961 . S
C459 C458 1.502 . S
C460 H446 0.960 . S
C460 H447 0.961 . S
C460 H448 0.959 . S
C460 C458 1.561 . S
C461 C458 1.526 . S
C461 C462 1.396 . S
C461 C466 1.390 . S
C462 C456 1.465 . S
C462 C461 1.396 . S
C462 C463 1.399 1_545 S
C463 H449 0.929 . S
C463 C462 1.399 1_565 S
C463 C464 1.385 . S
C464 H450 0.931 . S
C464 C463 1.385 . S
C464 C465 1.389 1_565 S
C465 C464 1.389 1_545 S
C465 C466 1.387 . S
C466 H451 0.930 . S
C466 C461 1.390 . S
C466 C465 1.387 . S
H467 C479 0.930 . S
H468 C481 0.930 . S
H469 C482 0.930 . S
H470 C486 0.959 . S
H471 C486 0.959 . S
H472 C486 0.961 . S
H473 C487 0.960 . S
H474 C487 0.961 . S
H475 C487 0.959 . S
H476 C490 0.929 . S
H477 C491 0.931 . S
H478 C493 0.930 . S
C479 H467 0.930 . S
C479 C480 1.399 . S
C479 C484 1.399 . S
C480 C479 1.399 . S
C480 C481 1.376 . S
C481 H468 0.930 . S
C481 C480 1.376 . S
C481 C482 1.388 . S
C482 H469 0.930 . S
C482 C481 1.388 . S
C482 C483 1.390 . S
C483 C482 1.390 . S
C483 C484 1.394 . S
C483 C489 1.465 . S
C484 C479 1.399 . S
C484 C483 1.394 . S
C484 C485 1.516 . S
C485 C484 1.516 . S
C485 C486 1.502 . S
C485 C487 1.561 . S
C485 C488 1.526 . S
C486 H470 0.959 . S
C486 H471 0.959 . S
C486 H472 0.961 . S
C486 C485 1.502 . S
C487 H473 0.960 . S
C487 H474 0.961 . S
C487 H475 0.959 . S
C487 C485 1.561 . S
C488 C485 1.526 . S
C488 C489 1.396 . S
C488 C493 1.390 . S
C489 C483 1.465 . S
C489 C488 1.396 . S
C489 C490 1.399 . S
C490 H476 0.929 . S
C490 C489 1.399 . S
C490 C491 1.385 . S
C491 H477 0.931 . S
C491 C490 1.385 . S
C491 C492 1.389 . S
C492 C491 1.389 . S
C492 C493 1.387 . S
C493 H478 0.930 . S
C493 C488 1.390 . S
C493 C492 1.387 . S
H494 C506 0.930 . S
H495 C508 0.930 . S
H496 C509 0.930 . S
H497 C513 0.959 . S
H498 C513 0.959 . S
H499 C513 0.961 . S
H500 C514 0.960 . S
H501 C514 0.961 . S
H502 C514 0.959 . S
H503 C517 0.929 . S
H504 C518 0.931 . S
H505 C520 0.930 . S
C506 H494 0.930 . S
C506 C507 1.399 . S
C506 C511 1.399 . S
C507 C506 1.399 . S
C507 C508 1.376 . S
C508 H495 0.930 . S
C508 C507 1.376 . S
C508 C509 1.388 . S
C509 H496 0.930 . S
C509 C508 1.388 . S
C509 C510 1.390 . S
C510 C509 1.390 . S
C510 C511 1.394 . S
C510 C516 1.465 . S
C511 C506 1.399 . S
C511 C510 1.394 . S
C511 C512 1.516 . S
C512 C511 1.516 . S
C512 C513 1.502 . S
C512 C514 1.561 . S
C512 C515 1.526 . S
C513 H497 0.959 . S
C513 H498 0.959 . S
C513 H499 0.961 . S
C513 C512 1.502 . S
C514 H500 0.960 . S
C514 H501 0.961 . S
C514 H502 0.959 . S
C514 C512 1.561 . S
C515 C512 1.526 . S
C515 C516 1.396 . S
C515 C520 1.390 . S
C516 C510 1.465 . S
C516 C515 1.396 . S
C516 C517 1.399 . S
C517 H503 0.929 . S
C517 C516 1.399 . S
C517 C518 1.385 . S
C518 H504 0.931 . S
C518 C517 1.385 . S
C518 C519 1.389 . S
C519 C518 1.389 . S
C519 C520 1.387 . S
C520 H505 0.930 . S
C520 C515 1.390 . S
C520 C519 1.387 . S
H521 C533 0.930 . S
H522 C535 0.930 . S
H523 C536 0.930 . S
H524 C540 0.959 . S
H525 C540 0.959 . S
H526 C540 0.961 . S
H527 C541 0.960 . S
H528 C541 0.961 . S
H529 C541 0.959 1_655 S
H530 C544 0.929 . S
H531 C545 0.931 . S
H532 C547 0.930 . S
C533 H521 0.930 . S
C533 C534 1.399 . S
C533 C538 1.399 . S
C534 C533 1.399 . S
C534 C535 1.376 . S
C535 H522 0.930 . S
C535 C534 1.376 . S
C535 C536 1.388 . S
C536 H523 0.930 . S
C536 C535 1.388 . S
C536 C537 1.390 . S
C537 C536 1.390 . S
C537 C538 1.394 . S
C537 C543 1.465 . S
C538 C533 1.399 . S
C538 C537 1.394 . S
C538 C539 1.516 . S
C539 C538 1.516 . S
C539 C540 1.502 . S
C539 C541 1.561 . S
C539 C542 1.526 . S
C540 H524 0.959 . S
C540 H525 0.959 . S
C540 H526 0.961 . S
C540 C539 1.502 . S
C541 H527 0.960 . S
C541 H528 0.961 . S
C541 H529 0.959 1_455 S
C541 C539 1.561 . S
C542 C539 1.526 . S
C542 C543 1.396 . S
C542 C547 1.390 . S
C543 C537 1.465 . S
C543 C542 1.396 . S
C543 C544 1.399 . S
C544 H530 0.929 . S
C544 C543 1.399 . S
C544 C545 1.385 . S
C545 H531 0.931 . S
C545 C544 1.385 . S
C545 C546 1.389 . S
C546 C545 1.389 . S
C546 C547 1.387 . S
C547 H532 0.930 . S
C547 C542 1.390 . S
C547 C546 1.387 . S
H548 C560 0.930 . S
H549 C562 0.930 . S
H550 C563 0.930 . S
H551 C567 0.959 . S
H552 C567 0.959 . S
H553 C567 0.961 . S
H554 C568 0.960 1_554 S
H555 C568 0.961 . S
H556 C568 0.959 . S
H557 C571 0.929 . S
H558 C572 0.931 . S
H559 C574 0.930 . S
C560 H548 0.930 . S
C560 C561 1.399 . S
C560 C565 1.399 . S
C561 C560 1.399 . S
C561 C562 1.376 1_565 S
C562 H549 0.930 . S
C562 C561 1.376 1_545 S
C562 C563 1.388 . S
C563 H550 0.930 . S
C563 C562 1.388 . S
C563 C564 1.404 . S
C564 C563 1.404 . S
C564 C565 1.374 1_545 S
C564 C570 1.468 1_554 S
C565 C560 1.399 . S
C565 C564 1.374 1_565 S
C565 C566 1.516 . S
C566 C565 1.516 . S
C566 C567 1.502 . S
C566 C568 1.561 1_554 S
C566 C569 1.526 1_554 S
C567 H551 0.959 . S
C567 H552 0.959 . S
C567 H553 0.961 . S
C567 C566 1.502 . S
C568 H554 0.960 1_556 S
C568 H555 0.961 . S
C568 H556 0.959 . S
C568 C566 1.561 1_556 S
C569 C566 1.526 1_556 S
C569 C570 1.396 1_565 S
C569 C574 1.390 . S
C570 C564 1.468 1_556 S
C570 C569 1.396 1_545 S
C570 C571 1.399 . S
C571 H557 0.929 . S
C571 C570 1.399 . S
C571 C572 1.385 . S
C572 H558 0.931 . S
C572 C571 1.385 . S
C572 C573 1.389 . S
C573 C572 1.389 . S
C573 C574 1.387 1_545 S
C574 H559 0.930 . S
C574 C569 1.390 . S
C574 C573 1.387 1_565 S
H575 C587 0.930 . S
H576 C589 0.930 . S
H577 C590 0.930 . S
H578 C594 0.959 . S
H579 C594 0.959 . S
H580 C594 0.961 . S
H581 C595 0.960 . S
H582 C595 0.961 . S
H583 C595 0.959 . S
H584 C598 0.929 . S
H585 C599 0.931 . S
H586 C601 0.930 . S
C587 H575 0.930 . S
C587 C588 1.399 . S
C587 C592 1.399 . S
C588 C587 1.399 . S
C588 C589 1.376 . S
C589 H576 0.930 . S
C589 C588 1.376 . S
C589 C590 1.388 . S
C590 H577 0.930 . S
C590 C589 1.388 . S
C590 C591 1.390 . S
C591 C590 1.390 . S
C591 C592 1.394 . S
C591 C597 1.465 . S
C592 C587 1.399 . S
C592 C591 1.394 . S
C592 C593 1.516 1_554 S
C593 C592 1.516 1_556 S
C593 C594 1.502 . S
C593 C595 1.561 . S
C593 C596 1.526 . S
C594 H578 0.959 . S
C594 H579 0.959 . S
C594 H580 0.961 . S
C594 C593 1.502 . S
C595 H581 0.960 . S
C595 H582 0.961 . S
C595 H583 0.959 . S
C595 C593 1.561 . S
C596 C593 1.526 . S
C596 C597 1.396 1_556 S
C596 C601 1.390 . S
C597 C591 1.465 . S
C597 C596 1.396 1_554 S
C597 C598 1.399 . S
C598 H584 0.929 . S
C598 C597 1.399 . S
C598 C599 1.385 1_554 S
C599 H585 0.931 . S
C599 C598 1.385 1_556 S
C599 C600 1.389 . S
C600 C599 1.389 . S
C600 C601 1.387 . S
C601 H586 0.930 . S
C601 C596 1.390 . S
C601 C600 1.387 . S
H602 C614 0.930 . S
H603 C616 0.930 . S
H604 C617 0.930 . S
H605 C621 0.959 . S
H606 C621 0.959 . S
H607 C621 0.961 . S
H608 C622 0.960 1_554 S
H609 C622 0.961 . S
H610 C622 0.959 . S
H611 C625 0.929 . S
H612 C626 0.931 . S
H613 C628 0.930 . S
C614 H602 0.930 . S
C614 C615 1.399 . S
C614 C619 1.399 . S
C615 C614 1.399 . S
C615 C616 1.376 . S
C616 H603 0.930 . S
C616 C615 1.376 . S
C616 C617 1.388 . S
C617 H604 0.930 . S
C617 C616 1.388 . S
C617 C618 1.390 . S
C618 C617 1.390 . S
C618 C619 1.394 . S
C618 C624 1.465 1_554 S
C619 C614 1.399 . S
C619 C618 1.394 . S
C619 C620 1.516 . S
C620 C619 1.516 . S
C620 C621 1.502 . S
C620 C622 1.561 1_554 S
C620 C623 1.526 1_554 S
C621 H605 0.959 . S
C621 H606 0.959 . S
C621 H607 0.961 . S
C621 C620 1.502 . S
C622 H608 0.960 1_556 S
C622 H609 0.961 . S
C622 H610 0.959 . S
C622 C620 1.561 1_556 S
C623 C620 1.526 1_556 S
C623 C624 1.396 . S
C623 C628 1.390 . S
C624 C618 1.465 1_556 S
C624 C623 1.396 . S
C624 C625 1.399 . S
C625 H611 0.929 . S
C625 C624 1.399 . S
C625 C626 1.385 . S
C626 H612 0.931 . S
C626 C625 1.385 . S
C626 C627 1.389 . S
C627 C626 1.389 . S
C627 C628 1.387 . S
C628 H613 0.930 . S
C628 C623 1.390 . S
C628 C627 1.387 . S
H629 C641 0.921 1_455 S
H630 C643 0.930 . S
H631 C644 0.930 1_556 S
H632 C648 0.959 . S
H633 C648 0.959 . S
H634 C648 0.961 . S
H635 C649 0.960 . S
H636 C649 0.961 . S
H637 C649 0.959 . S
H638 C652 0.929 . S
H639 C653 0.931 . S
H640 C655 0.930 . S
C641 H629 0.921 1_655 S
C641 C642 1.399 . S
C641 C646 1.399 . S
C642 C641 1.399 . S
C642 C643 1.376 . S
C643 H630 0.930 . S
C643 C642 1.376 . S
C643 C644 1.388 . S
C644 H631 0.930 1_554 S
C644 C643 1.388 . S
C644 C645 1.390 . S
C645 C644 1.390 . S
C645 C646 1.394 . S
C645 C651 1.465 1_554 S
C646 C641 1.399 . S
C646 C645 1.394 . S
C646 C647 1.516 1_655 S
C647 C646 1.516 1_455 S
C647 C648 1.502 . S
C647 C649 1.561 1_455 S
C647 C650 1.526 1_454 S
C648 H632 0.959 . S
C648 H633 0.959 . S
C648 H634 0.961 . S
C648 C647 1.502 . S
C649 H635 0.960 . S
C649 H636 0.961 . S
C649 H637 0.959 . S
C649 C647 1.561 1_655 S
C650 C647 1.526 1_656 S
C650 C651 1.396 . S
C650 C655 1.390 1_655 S
C651 C645 1.465 1_556 S
C651 C650 1.396 . S
C651 C652 1.399 . S
C652 H638 0.929 . S
C652 C651 1.399 . S
C652 C653 1.385 . S
C653 H639 0.931 . S
C653 C652 1.385 . S
C653 C654 1.389 . S
C654 C653 1.389 . S
C654 C655 1.387 1_655 S
C655 H640 0.930 . S
C655 C650 1.390 1_455 S
C655 C654 1.387 1_455 S
H656 C668 0.930 . S
H657 C670 0.930 . S
H658 C671 0.930 . S
H659 C675 0.959 . S
H660 C675 0.959 . S
H661 C675 0.961 . S
H662 C676 0.960 . S
H663 C676 0.961 . S
H664 C676 0.959 . S
H665 C679 0.929 . S
H666 C680 0.931 . S
H667 C682 0.930 . S
C668 H656 0.930 . S
C668 C669 1.399 . S
C668 C673 1.399 . S
C669 C668 1.399 . S
C669 C670 1.376 . S
C670 H657 0.930 . S
C670 C669 1.376 . S
C670 C671 1.388 . S
C671 H658 0.930 . S
C671 C670 1.388 . S
C671 C672 1.390 . S
C672 C671 1.390 . S
C672 C673 1.394 . S
C672 C678 1.465 . S
C673 C668 1.399 . S
C673 C672 1.394 . S
C673 C674 1.516 . S
C674 C673 1.516 . S
C674 C675 1.502 . S
C674 C676 1.561 1_455 S
C674 C677 1.526 . S
C675 H659 0.959 . S
C675 H660 0.959 . S
C675 H661 0.961 . S
C675 C674 1.502 . S
C676 H662 0.960 . S
C676 H663 0.961 . S
C676 H664 0.959 . S
C676 C674 1.561 1_655 S
C677 C674 1.526 . S
C677 C678 1.396 . S
C677 C682 1.390 . S
C678 C672 1.465 . S
C678 C677 1.396 . S
C678 C679 1.399 . S
C679 H665 0.929 . S
C679 C678 1.399 . S
C679 C680 1.385 . S
C680 H666 0.931 . S
C680 C679 1.385 . S
C680 C681 1.389 . S
C681 C680 1.389 . S
C681 C682 1.387 . S
C682 H667 0.930 . S
C682 C677 1.390 . S
C682 C681 1.387 . S
H683 C695 0.930 . S
H684 C697 0.930 . S
H685 C698 0.930 . S
H686 C702 0.959 . S
H687 C702 0.959 . S
H688 C702 0.961 . S
H689 C703 0.960 . S
H690 C703 0.961 . S
H691 C703 0.959 . S
H692 C706 0.929 1_565 S
H693 C707 0.931 . S
H694 C709 0.930 . S
C695 H683 0.930 . S
C695 C696 1.399 . S
C695 C700 1.399 . S
C696 C695 1.399 . S
C696 C697 1.376 . S
C697 H684 0.930 . S
C697 C696 1.376 . S
C697 C698 1.388 . S
C698 H685 0.930 . S
C698 C697 1.388 . S
C698 C699 1.390 . S
C699 C698 1.390 . S
C699 C700 1.394 . S
C699 C705 1.465 . S
C700 C695 1.399 . S
C700 C699 1.394 . S
C700 C701 1.516 . S
C701 C700 1.516 . S
C701 C702 1.502 . S
C701 C703 1.561 . S
C701 C704 1.526 . S
C702 H686 0.959 . S
C702 H687 0.959 . S
C702 H688 0.961 . S
C702 C701 1.502 . S
C703 H689 0.960 . S
C703 H690 0.961 . S
C703 H691 0.959 . S
C703 C701 1.561 . S
C704 C701 1.526 . S
C704 C705 1.396 . S
C704 C709 1.390 . S
C705 C699 1.465 . S
C705 C704 1.396 . S
C705 C706 1.399 . S
C706 H692 0.929 1_545 S
C706 C705 1.399 . S
C706 C707 1.385 1_545 S
C707 H693 0.931 . S
C707 C706 1.385 1_565 S
C707 C708 1.389 1_565 S
C708 C707 1.389 1_545 S
C708 C709 1.387 . S
C709 H694 0.930 . S
C709 C704 1.390 . S
C709 C708 1.387 . S
H710 C722 0.930 . S
H711 C724 0.930 . S
H712 C725 0.930 . S
H713 C729 0.959 . S
H714 C729 0.959 . S
H715 C729 0.961 . S
H716 C730 0.960 . S
H717 C730 0.961 . S
H718 C730 0.959 . S
H719 C733 0.929 . S
H720 C734 0.931 . S
H721 C736 0.930 . S
C722 H710 0.930 . S
C722 C723 1.399 . S
C722 C727 1.399 . S
C723 C722 1.399 . S
C723 C724 1.376 . S
C724 H711 0.930 . S
C724 C723 1.376 . S
C724 C725 1.388 . S
C725 H712 0.930 . S
C725 C724 1.388 . S
C725 C726 1.390 . S
C726 C725 1.390 . S
C726 C727 1.394 . S
C726 C732 1.465 . S
C727 C722 1.399 . S
C727 C726 1.394 . S
C727 C728 1.516 . S
C728 C727 1.516 . S
C728 C729 1.502 . S
C728 C730 1.561 . S
C728 C731 1.526 . S
C729 H713 0.959 . S
C729 H714 0.959 . S
C729 H715 0.961 . S
C729 C728 1.502 . S
C730 H716 0.960 . S
C730 H717 0.961 . S
C730 H718 0.959 . S
C730 C728 1.561 . S
C731 C728 1.526 . S
C731 C732 1.396 . S
C731 C736 1.390 . S
C732 C726 1.465 . S
C732 C731 1.396 . S
C732 C733 1.399 . S
C733 H719 0.929 . S
C733 C732 1.399 . S
C733 C734 1.385 . S
C734 H720 0.931 . S
C734 C733 1.385 . S
C734 C735 1.389 . S
C735 C734 1.389 . S
C735 C736 1.387 . S
C736 H721 0.930 . S
C736 C731 1.390 . S
C736 C735 1.387 . S
H737 C749 0.930 . S
H738 C751 0.930 . S
H739 C752 0.930 . S
H740 C756 0.959 . S
H741 C756 0.959 . S
H742 C756 0.961 . S
H743 C757 0.960 . S
H744 C757 0.961 . S
H745 C757 0.959 . S
H746 C760 0.929 . S
H747 C761 0.931 . S
H748 C763 0.930 . S
C749 H737 0.930 . S
C749 C750 1.399 . S
C749 C754 1.399 . S
C750 C749 1.399 . S
C750 C751 1.376 . S
C751 H738 0.930 . S
C751 C750 1.376 . S
C751 C752 1.388 . S
C752 H739 0.930 . S
C752 C751 1.388 . S
C752 C753 1.390 . S
C753 C752 1.390 . S
C753 C754 1.394 . S
C753 C759 1.465 . S
C754 C749 1.399 . S
C754 C753 1.394 . S
C754 C755 1.516 . S
C755 C754 1.516 . S
C755 C756 1.502 . S
C755 C757 1.561 . S
C755 C758 1.526 . S
C756 H740 0.959 . S
C756 H741 0.959 . S
C756 H742 0.961 . S
C756 C755 1.502 . S
C757 H743 0.960 . S
C757 H744 0.961 . S
C757 H745 0.959 . S
C757 C755 1.561 . S
C758 C755 1.526 . S
C758 C759 1.396 . S
C758 C763 1.390 . S
C759 C753 1.465 . S
C759 C758 1.396 . S
C759 C760 1.399 . S
C760 H746 0.929 . S
C760 C759 1.399 . S
C760 C761 1.385 . S
C761 H747 0.931 . S
C761 C760 1.385 . S
C761 C762 1.389 . S
C762 C761 1.389 . S
C762 C763 1.387 . S
C763 H748 0.930 . S
C763 C758 1.390 . S
C763 C762 1.387 . S
H764 C776 0.930 . S
H765 C778 0.930 . S
H766 C779 0.930 . S
H767 C783 0.959 . S
H768 C783 0.959 . S
H769 C783 0.961 . S
H770 C784 0.960 . S
H771 C784 0.961 . S
H772 C784 0.959 . S
H773 C787 0.929 . S
H774 C788 0.931 1_556 S
H775 C790 0.930 . S
C776 H764 0.930 . S
C776 C777 1.399 . S
C776 C781 1.399 . S
C777 C776 1.399 . S
C777 C778 1.376 1_655 S
C778 H765 0.930 . S
C778 C777 1.376 1_455 S
C778 C779 1.388 . S
C779 H766 0.930 . S
C779 C778 1.388 . S
C779 C780 1.390 . S
C780 C779 1.390 . S
C780 C781 1.394 1_455 S
C780 C786 1.465 . S
C781 C776 1.399 . S
C781 C780 1.394 1_655 S
C781 C782 1.516 . S
C782 C781 1.516 . S
C782 C783 1.502 . S
C782 C784 1.561 . S
C782 C785 1.526 . S
C783 H767 0.959 . S
C783 H768 0.959 . S
C783 H769 0.961 . S
C783 C782 1.502 . S
C784 H770 0.960 . S
C784 H771 0.961 . S
C784 H772 0.959 . S
C784 C782 1.561 . S
C785 C782 1.526 . S
C785 C786 1.396 1_655 S
C785 C790 1.390 . S
C786 C780 1.465 . S
C786 C785 1.396 1_455 S
C786 C787 1.399 . S
C787 H773 0.929 . S
C787 C786 1.399 . S
C787 C788 1.385 . S
C788 H774 0.931 1_554 S
C788 C787 1.385 . S
C788 C789 1.389 . S
C789 C788 1.389 . S
C789 C790 1.387 1_455 S
C790 H775 0.930 . S
C790 C785 1.390 . S
C790 C789 1.387 1_655 S
H791 C803 0.930 . S
H792 C805 0.930 . S
H793 C806 0.930 . S
H794 C810 0.959 . S
H795 C810 0.959 . S
H796 C810 0.963 . S
H797 C811 0.960 . S
H798 C811 0.961 . S
H799 C811 0.959 . S
H800 C814 0.929 . S
H801 C815 0.931 . S
H802 C817 0.930 1_556 S
C803 H791 0.930 . S
C803 C804 1.399 . S
C803 C808 1.399 . S
C804 C803 1.399 . S
C804 C805 1.376 1_565 S
C805 H792 0.930 . S
C805 C804 1.376 1_545 S
C805 C806 1.388 . S
C806 H793 0.930 . S
C806 C805 1.388 . S
C806 C807 1.390 . S
C807 C806 1.390 . S
C807 C808 1.394 1_545 S
C807 C813 1.465 . S
C808 C803 1.399 . S
C808 C807 1.394 1_565 S
C808 C809 1.516 . S
C809 C808 1.516 . S
C809 C810 1.502 1_554 S
C809 C811 1.561 . S
C809 C812 1.526 . S
C810 H794 0.959 . S
C810 H795 0.959 . S
C810 H796 0.963 . S
C810 C809 1.502 1_556 S
C811 H797 0.960 . S
C811 H798 0.961 . S
C811 H799 0.959 . S
C811 C809 1.561 . S
C812 C809 1.526 . S
C812 C813 1.396 1_565 S
C812 C817 1.390 . S
C813 C807 1.465 . S
C813 C812 1.396 1_545 S
C813 C814 1.399 . S
C814 H800 0.929 . S
C814 C813 1.399 . S
C814 C815 1.385 . S
C815 H801 0.931 . S
C815 C814 1.385 . S
C815 C816 1.389 . S
C816 C815 1.389 . S
C816 C817 1.387 1_545 S
C817 H802 0.930 1_554 S
C817 C812 1.390 . S
C817 C816 1.387 1_565 S
H818 C830 0.930 . S
H819 C832 0.930 . S
H820 C833 0.930 . S
H821 C837 0.959 . S
H822 C837 0.959 . S
H823 C837 0.961 . S
H824 C838 0.960 . S
H825 C838 0.961 . S
H826 C838 0.959 . S
H827 C841 0.929 . S
H828 C842 0.931 . S
H829 C844 0.930 . S
C830 H818 0.930 . S
C830 C831 1.399 . S
C830 C835 1.399 . S
C831 C830 1.399 . S
C831 C832 1.376 . S
C832 H819 0.930 . S
C832 C831 1.376 . S
C832 C833 1.388 . S
C833 H820 0.930 . S
C833 C832 1.388 . S
C833 C834 1.390 . S
C834 C833 1.390 . S
C834 C835 1.394 . S
C834 C840 1.465 . S
C835 C830 1.399 . S
C835 C834 1.394 . S
C835 C836 1.516 . S
C836 C835 1.516 . S
C836 C837 1.502 . S
C836 C838 1.561 . S
C836 C839 1.526 . S
C837 H821 0.959 . S
C837 H822 0.959 . S
C837 H823 0.961 . S
C837 C836 1.502 . S
C838 H824 0.960 . S
C838 H825 0.961 . S
C838 H826 0.959 . S
C838 C836 1.561 . S
C839 C836 1.526 . S
C839 C840 1.396 . S
C839 C844 1.390 . S
C840 C834 1.465 . S
C840 C839 1.396 . S
C840 C841 1.399 1_554 S
C841 H827 0.929 . S
C841 C840 1.399 1_556 S
C841 C842 1.385 . S
C842 H828 0.931 . S
C842 C841 1.385 . S
C842 C843 1.389 . S
C843 C842 1.389 . S
C843 C844 1.387 1_556 S
C844 H829 0.930 . S
C844 C839 1.390 . S
C844 C843 1.387 1_554 S
H845 C857 0.930 . S
H846 C859 0.930 . S
H847 C860 0.930 . S
H848 C864 0.959 . S
H849 C864 0.959 . S
H850 C864 0.961 . S
H851 C865 0.960 . S
H852 C865 0.961 . S
H853 C865 0.959 . S
H854 C868 0.929 . S
H855 C869 0.931 . S
H856 C871 0.930 . S
C857 H845 0.930 . S
C857 C858 1.399 . S
C857 C862 1.399 . S
C858 C857 1.399 . S
C858 C859 1.376 . S
C859 H846 0.930 . S
C859 C858 1.376 . S
C859 C860 1.388 . S
C860 H847 0.930 . S
C860 C859 1.388 . S
C860 C861 1.390 . S
C861 C860 1.390 . S
C861 C862 1.394 . S
C861 C867 1.465 . S
C862 C857 1.399 . S
C862 C861 1.394 . S
C862 C863 1.516 . S
C863 C862 1.516 . S
C863 C864 1.502 . S
C863 C865 1.561 . S
C863 C866 1.526 . S
C864 H848 0.959 . S
C864 H849 0.959 . S
C864 H850 0.961 . S
C864 C863 1.502 . S
C865 H851 0.960 . S
C865 H852 0.961 . S
C865 H853 0.959 . S
C865 C863 1.561 . S
C866 C863 1.526 . S
C866 C867 1.396 . S
C866 C871 1.390 . S
C867 C861 1.465 . S
C867 C866 1.396 . S
C867 C868 1.399 1_554 S
C868 H854 0.929 . S
C868 C867 1.399 1_556 S
C868 C869 1.385 . S
C869 H855 0.931 . S
C869 C868 1.385 . S
C869 C870 1.389 . S
C870 C869 1.389 . S
C870 C871 1.387 1_556 S
C871 H856 0.930 . S
C871 C866 1.390 . S
C871 C870 1.387 1_554 S
H872 C884 0.930 . S
H873 C886 0.930 . S
H874 C887 0.930 . S
H875 C891 0.959 . S
H876 C891 0.959 1_554 S
H877 C891 0.961 1_554 S
H878 C892 0.960 1_554 S
H879 C892 0.961 1_554 S
H880 C892 0.959 1_655 S
H881 C895 0.929 . S
H882 C896 0.931 . S
H883 C898 0.930 . S
C884 H872 0.930 . S
C884 C885 1.399 . S
C884 C889 1.399 . S
C885 C884 1.399 . S
C885 C886 1.376 . S
C886 H873 0.930 . S
C886 C885 1.376 . S
C886 C887 1.388 . S
C887 H874 0.930 . S
C887 C886 1.388 . S
C887 C888 1.390 . S
C888 C887 1.390 . S
C888 C889 1.394 . S
C888 C894 1.465 . S
C889 C884 1.399 . S
C889 C888 1.394 . S
C889 C890 1.516 . S
C890 C889 1.516 . S
C890 C891 1.502 . S
C890 C892 1.561 . S
C890 C893 1.526 . S
C891 H875 0.959 . S
C891 H876 0.959 1_556 S
C891 H877 0.961 1_556 S
C891 C890 1.502 . S
C892 H878 0.960 1_556 S
C892 H879 0.961 1_556 S
C892 H880 0.959 1_455 S
C892 C890 1.561 . S
C893 C890 1.526 . S
C893 C894 1.396 . S
C893 C898 1.390 . S
C894 C888 1.465 . S
C894 C893 1.396 . S
C894 C895 1.399 . S
C895 H881 0.929 . S
C895 C894 1.399 . S
C895 C896 1.385 . S
C896 H882 0.931 . S
C896 C895 1.385 . S
C896 C897 1.389 . S
C897 C896 1.389 . S
C897 C898 1.387 . S
C898 H883 0.930 . S
C898 C893 1.390 . S
C898 C897 1.387 . S
H899 C911 0.930 . S
H900 C913 0.930 . S
H901 C914 0.930 . S
H902 C918 0.959 1_554 S
H903 C918 0.982 1_554 S
H904 C918 0.961 1_554 S
H905 C919 0.960 . S
H906 C919 0.961 . S
H907 C919 0.959 . S
H908 C922 0.929 . S
H909 C923 0.931 . S
H910 C925 0.930 . S
C911 H899 0.930 . S
C911 C912 1.399 . S
C911 C916 1.399 . S
C912 C911 1.399 . S
C912 C913 1.376 . S
C913 H900 0.930 . S
C913 C912 1.376 . S
C913 C914 1.388 . S
C914 H901 0.930 . S
C914 C913 1.388 . S
C914 C915 1.390 . S
C915 C914 1.390 . S
C915 C916 1.394 . S
C915 C921 1.465 . S
C916 C911 1.399 . S
C916 C915 1.394 . S
C916 C917 1.516 . S
C917 C916 1.516 . S
C917 C918 1.502 . S
C917 C919 1.561 1_545 S
C917 C920 1.526 . S
C918 H902 0.959 1_556 S
C918 H903 0.982 1_556 S
C918 H904 0.961 1_556 S
C918 C917 1.502 . S
C919 H905 0.960 . S
C919 H906 0.961 . S
C919 H907 0.959 . S
C919 C917 1.561 1_565 S
C920 C917 1.526 . S
C920 C921 1.396 . S
C920 C925 1.390 . S
C921 C915 1.465 . S
C921 C920 1.396 . S
C921 C922 1.399 . S
C922 H908 0.929 . S
C922 C921 1.399 . S
C922 C923 1.385 . S
C923 H909 0.931 . S
C923 C922 1.385 . S
C923 C924 1.389 . S
C924 C923 1.389 . S
C924 C925 1.387 . S
C925 H910 0.930 . S
C925 C920 1.390 . S
C925 C924 1.387 . S
H926 C938 0.930 . S
H927 C940 0.930 1_554 S
H928 C941 0.930 1_554 S
H929 C945 0.959 . S
H930 C945 0.959 . S
H931 C945 0.961 . S
H932 C946 0.960 . S
H933 C946 0.961 . S
H934 C946 0.959 . S
H935 C949 0.929 . S
H936 C950 0.931 . S
H937 C952 0.930 . S
C938 H926 0.930 . S
C938 C939 1.399 . S
C938 C943 1.399 . S
C939 C938 1.399 . S
C939 C940 1.376 . S
C940 H927 0.930 1_556 S
C940 C939 1.376 . S
C940 C941 1.388 . S
C941 H928 0.930 1_556 S
C941 C940 1.388 . S
C941 C942 1.390 . S
C942 C941 1.390 . S
C942 C943 1.394 . S
C942 C948 1.465 . S
C943 C938 1.399 . S
C943 C942 1.394 . S
C943 C944 1.516 . S
C944 C943 1.516 . S
C944 C945 1.502 . S
C944 C946 1.561 . S
C944 C947 1.526 . S
C945 H929 0.959 . S
C945 H930 0.959 . S
C945 H931 0.961 . S
C945 C944 1.502 . S
C946 H932 0.960 . S
C946 H933 0.961 . S
C946 H934 0.959 . S
C946 C944 1.561 . S
C947 C944 1.526 . S
C947 C948 1.396 . S
C947 C952 1.390 . S
C948 C942 1.465 . S
C948 C947 1.396 . S
C948 C949 1.399 . S
C949 H935 0.929 . S
C949 C948 1.399 . S
C949 C950 1.385 . S
C950 H936 0.931 . S
C950 C949 1.385 . S
C950 C951 1.389 . S
C951 C950 1.389 . S
C951 C952 1.387 . S
C952 H937 0.930 . S
C952 C947 1.390 . S
C952 C951 1.387 . S
H953 C965 0.930 . S
H954 C967 0.930 . S
H955 C968 0.930 . S
H956 C972 0.959 . S
H957 C972 0.959 . S
H958 C972 0.961 . S
H959 C973 0.960 . S
H960 C973 0.961 . S
H961 C973 0.959 . S
H962 C976 0.929 . S
H963 C977 0.931 . S
H964 C979 0.930 . S
C965 H953 0.930 . S
C965 C966 1.399 . S
C965 C970 1.399 . S
C966 C965 1.399 . S
C966 C967 1.376 . S
C967 H954 0.930 . S
C967 C966 1.376 . S
C967 C968 1.388 . S
C968 H955 0.930 . S
C968 C967 1.388 . S
C968 C969 1.390 . S
C969 C968 1.390 . S
C969 C970 1.394 . S
C969 C975 1.465 . S
C970 C965 1.399 . S
C970 C969 1.394 . S
C970 C971 1.516 . S
C971 C970 1.516 . S
C971 C972 1.502 . S
C971 C973 1.561 . S
C971 C974 1.526 . S
C972 H956 0.959 . S
C972 H957 0.959 . S
C972 H958 0.961 . S
C972 C971 1.502 . S
C973 H959 0.960 . S
C973 H960 0.961 . S
C973 H961 0.959 . S
C973 C971 1.561 . S
C974 C971 1.526 . S
C974 C975 1.396 . S
C974 C979 1.390 . S
C975 C969 1.465 . S
C975 C974 1.396 . S
C975 C976 1.399 . S
C976 H962 0.929 . S
C976 C975 1.399 . S
C976 C977 1.385 . S
C977 H963 0.931 . S
C977 C976 1.385 . S
C977 C978 1.389 . S
C978 C977 1.389 . S
C978 C979 1.387 . S
C979 H964 0.930 . S
C979 C974 1.390 . S
C979 C978 1.387 . S
H980 C992 0.930 . S
H981 C994 0.930 . S
H982 C995 0.930 . S
H983 C999 0.959 . S
H984 C999 0.959 . S
H985 C999 0.961 . S
H986 C1000 0.960 . S
H987 C1000 0.961 . S
H988 C1000 0.959 1_455 S
H989 C1003 0.929 . S
H990 C1004 0.931 . S
H991 C1006 0.930 . S
C992 H980 0.930 . S
C992 C993 1.399 . S
C992 C997 1.399 . S
C993 C992 1.399 . S
C993 C994 1.376 1_655 S
C994 H981 0.930 . S
C994 C993 1.376 1_455 S
C994 C995 1.388 . S
C995 H982 0.930 . S
C995 C994 1.388 . S
C995 C996 1.390 1_455 S
C996 C995 1.390 1_655 S
C996 C997 1.394 . S
C996 C1002 1.468 . S
C997 C992 1.399 . S
C997 C996 1.394 . S
C997 C998 1.516 . S
C998 C997 1.516 . S
C998 C999 1.502 . S
C998 C1000 1.561 . S
C998 C1001 1.526 . S
C999 H983 0.959 . S
C999 H984 0.959 . S
C999 H985 0.961 . S
C999 C998 1.502 . S
C1000 H986 0.960 . S
C1000 H987 0.961 . S
C1000 H988 0.959 1_655 S
C1000 C998 1.561 . S
C1001 C998 1.526 . S
C1001 C1002 1.417 . S
C1001 C1006 1.390 . S
C1002 C996 1.468 . S
C1002 C1001 1.417 . S
C1002 C1003 1.380 1_655 S
C1003 H989 0.929 . S
C1003 C1002 1.380 1_455 S
C1003 C1004 1.385 . S
C1004 H990 0.931 . S
C1004 C1003 1.385 . S
C1004 C1005 1.389 1_455 S
C1005 C1004 1.389 1_655 S
C1005 C1006 1.387 . S
C1006 H991 0.930 . S
C1006 C1001 1.390 . S
C1006 C1005 1.387 . S
H1007 C1019 0.930 . S
H1008 C1021 0.930 . S
H1009 C1022 0.930 . S
H1010 C1026 0.959 . S
H1011 C1026 0.959 . S
H1012 C1026 0.961 . S
H1013 C1027 0.960 . S
H1014 C1027 0.961 . S
H1015 C1027 0.959 . S
H1016 C1030 0.929 . S
H1017 C1031 0.931 . S
H1018 C1033 0.930 . S
C1019 H1007 0.930 . S
C1019 C1020 1.399 . S
C1019 C1024 1.399 . S
C1020 C1019 1.399 . S
C1020 C1021 1.376 1_565 S
C1021 H1008 0.930 . S
C1021 C1020 1.376 1_545 S
C1021 C1022 1.388 . S
C1022 H1009 0.930 . S
C1022 C1021 1.388 . S
C1022 C1023 1.405 . S
C1023 C1022 1.405 . S
C1023 C1024 1.371 1_545 S
C1023 C1029 1.468 . S
C1024 C1019 1.399 . S
C1024 C1023 1.371 1_565 S
C1024 C1025 1.516 . S
C1025 C1024 1.516 . S
C1025 C1026 1.502 . S
C1025 C1027 1.561 . S
C1025 C1028 1.526 . S
C1026 H1010 0.959 . S
C1026 H1011 0.959 . S
C1026 H1012 0.961 . S
C1026 C1025 1.502 . S
C1027 H1013 0.960 . S
C1027 H1014 0.961 . S
C1027 H1015 0.959 . S
C1027 C1025 1.561 . S
C1028 C1025 1.526 . S
C1028 C1029 1.396 1_565 S
C1028 C1033 1.390 . S
C1029 C1023 1.468 . S
C1029 C1028 1.396 1_545 S
C1029 C1030 1.399 . S
C1030 H1016 0.929 . S
C1030 C1029 1.399 . S
C1030 C1031 1.385 . S
C1031 H1017 0.931 . S
C1031 C1030 1.385 . S
C1031 C1032 1.389 1_545 S
C1032 C1031 1.389 1_565 S
C1032 C1033 1.387 . S
C1033 H1018 0.930 . S
C1033 C1028 1.390 . S
C1033 C1032 1.387 . S
H1034 C1046 0.930 . S
H1035 C1048 0.930 . S
H1036 C1049 0.930 . S
H1037 C1053 0.959 . S
H1038 C1053 0.959 . S
H1039 C1053 0.961 . S
H1040 C1054 0.960 . S
H1041 C1054 0.961 . S
H1042 C1054 0.959 . S
H1043 C1057 0.929 . S
H1044 C1058 0.931 . S
H1045 C1060 0.930 . S
C1046 H1034 0.930 . S
C1046 C1047 1.399 . S
C1046 C1051 1.399 . S
C1047 C1046 1.399 . S
C1047 C1048 1.376 . S
C1048 H1035 0.930 . S
C1048 C1047 1.376 . S
C1048 C1049 1.388 . S
C1049 H1036 0.930 . S
C1049 C1048 1.388 . S
C1049 C1050 1.390 . S
C1050 C1049 1.390 . S
C1050 C1051 1.394 . S
C1050 C1056 1.465 . S
C1051 C1046 1.399 . S
C1051 C1050 1.394 . S
C1051 C1052 1.516 . S
C1052 C1051 1.516 . S
C1052 C1053 1.502 . S
C1052 C1054 1.561 . S
C1052 C1055 1.526 . S
C1053 H1037 0.959 . S
C1053 H1038 0.959 . S
C1053 H1039 0.961 . S
C1053 C1052 1.502 . S
C1054 H1040 0.960 . S
C1054 H1041 0.961 . S
C1054 H1042 0.959 . S
C1054 C1052 1.561 . S
C1055 C1052 1.526 . S
C1055 C1056 1.396 . S
C1055 C1060 1.390 . S
C1056 C1050 1.465 . S
C1056 C1055 1.396 . S
C1056 C1057 1.399 . S
C1057 H1043 0.929 . S
C1057 C1056 1.399 . S
C1057 C1058 1.385 . S
C1058 H1044 0.931 . S
C1058 C1057 1.385 . S
C1058 C1059 1.389 . S
C1059 C1058 1.389 . S
C1059 C1060 1.387 . S
C1060 H1045 0.930 . S
C1060 C1055 1.390 . S
C1060 C1059 1.387 . S
H1061 C1073 0.930 . S
H1062 C1075 0.930 . S
H1063 C1076 0.930 . S
H1064 C1080 0.959 . S
H1065 C1080 0.959 . S
H1066 C1080 0.961 . S
H1067 C1081 0.960 . S
H1068 C1081 0.961 . S
H1069 C1081 0.959 . S
H1070 C1084 0.929 . S
H1071 C1085 0.931 . S
H1072 C1087 0.930 . S
C1073 H1061 0.930 . S
C1073 C1074 1.399 . S
C1073 C1078 1.399 . S
C1074 C1073 1.399 . S
C1074 C1075 1.376 . S
C1075 H1062 0.930 . S
C1075 C1074 1.376 . S
C1075 C1076 1.388 . S
C1076 H1063 0.930 . S
C1076 C1075 1.388 . S
C1076 C1077 1.390 . S
C1077 C1076 1.390 . S
C1077 C1078 1.394 . S
C1077 C1083 1.465 . S
C1078 C1073 1.399 . S
C1078 C1077 1.394 . S
C1078 C1079 1.516 . S
C1079 C1078 1.516 . S
C1079 C1080 1.502 . S
C1079 C1081 1.561 . S
C1079 C1082 1.526 . S
C1080 H1064 0.959 . S
C1080 H1065 0.959 . S
C1080 H1066 0.961 . S
C1080 C1079 1.502 . S
C1081 H1067 0.960 . S
C1081 H1068 0.961 . S
C1081 H1069 0.959 . S
C1081 C1079 1.561 . S
C1082 C1079 1.526 . S
C1082 C1083 1.396 . S
C1082 C1087 1.390 . S
C1083 C1077 1.465 . S
C1083 C1082 1.396 . S
C1083 C1084 1.399 . S
C1084 H1070 0.929 . S
C1084 C1083 1.399 . S
C1084 C1085 1.385 . S
C1085 H1071 0.931 . S
C1085 C1084 1.385 . S
C1085 C1086 1.389 . S
C1086 C1085 1.389 . S
C1086 C1087 1.387 . S
C1087 H1072 0.930 . S
C1087 C1082 1.390 . S
C1087 C1086 1.387 . S
C453 C82 1.785 . S
C465 C167 1.988 . S
C492 C244 2.001 . S
C480 C95 1.752 . S
C519 C335 2.015 . S
C507 C56 1.714 . S
C546 C419 1.994 . S
C534 C69 1.706 . S
C573 C178 1.996 . S
C561 C30 1.660 . S
C588 C43 1.735 . S
C600 C255 2.009 . S
C615 C4 1.654 . S
C627 C346 1.990 . S
C642 C17 1.689 . S
C654 C430 2.007 1_655 S
C681 C162 0.658 1_455 S
C669 C74 0.526 . S
C708 C257 0.712 . S
C696 C87 0.642 . S
C735 C330 0.573 . S
C723 C100 0.544 . S
C750 C61 0.558 . S
C762 C414 0.522 . S
C777 C22 0.552 . S
C789 C173 0.519 1_554 S
C816 C246 0.535 . S
C804 C35 0.501 . S
C843 C341 0.541 . S
C831 C48 0.614 . S
C858 C9 0.647 . S
C870 C425 0.599 . S
C885 C73 1.955 . S
C897 C171 2.087 . S
C912 C86 1.967 . S
C924 C262 2.126 . S
C951 C339 2.127 . S
C939 C99 1.894 . S
C978 C423 2.130 . S
C966 C60 1.899 . S
C993 C21 1.889 . S
C1005 C160 2.111 . S
C1032 C251 2.107 1_565 S
C1020 C34 1.911 . S
C1059 C328 2.123 . S
C1047 C47 1.910 . S
C1074 C8 1.893 . S
C1086 C412 2.129 . S
