# Generated by pormake.
# Topology anh, (6,3)-cn, num edge types: 1
# Building blocks:
#     Node 0, Type 0, BuildingBlock: BETDAH_clean_sbu_0, # of connection points: 6
#     Node 1, Type 0, BuildingBlock: BETDAH_clean_sbu_0, # of connection points: 6
#     Node 2, Type 0, BuildingBlock: BETDAH_clean_sbu_0, # of connection points: 6
#     Node 3, Type 1, BuildingBlock: CUQRIR_clean_linker_1, # of connection points: 3
#     Node 4, Type 1, BuildingBlock: CUQRIR_clean_linker_1, # of connection points: 3
#     Node 5, Type 1, BuildingBlock: CUQRIR_clean_linker_1, # of connection points: 3
#     Node 6, Type 1, BuildingBlock: CUQRIR_clean_linker_1, # of connection points: 3
#     Node 7, Type 1, BuildingBlock: CUQRIR_clean_linker_1, # of connection points: 3
#     Node 8, Type 1, BuildingBlock: CUQRIR_clean_linker_1, # of connection points: 3
#     Edge 9, Type (0, 1), BuildingBlock: KIFKEQ_clean_linker_1, # of connection points: 2
#     Edge 10, Type (0, 1), BuildingBlock: KIFKEQ_clean_linker_1, # of connection points: 2
#     Edge 11, Type (0, 1), BuildingBlock: KIFKEQ_clean_linker_1, # of connection points: 2
#     Edge 12, Type (0, 1), BuildingBlock: KIFKEQ_clean_linker_1, # of connection points: 2
#     Edge 13, Type (0, 1), BuildingBlock: KIFKEQ_clean_linker_1, # of connection points: 2
#     Edge 14, Type (0, 1), BuildingBlock: KIFKEQ_clean_linker_1, # of connection points: 2
#     Edge 15, Type (0, 1), BuildingBlock: KIFKEQ_clean_linker_1, # of connection points: 2
#     Edge 16, Type (0, 1), BuildingBlock: KIFKEQ_clean_linker_1, # of connection points: 2
#     Edge 17, Type (0, 1), BuildingBlock: KIFKEQ_clean_linker_1, # of connection points: 2
#     Edge 18, Type (0, 1), BuildingBlock: KIFKEQ_clean_linker_1, # of connection points: 2
#     Edge 19, Type (0, 1), BuildingBlock: KIFKEQ_clean_linker_1, # of connection points: 2
#     Edge 20, Type (0, 1), BuildingBlock: KIFKEQ_clean_linker_1, # of connection points: 2
#     Edge 21, Type (0, 1), BuildingBlock: KIFKEQ_clean_linker_1, # of connection points: 2
#     Edge 22, Type (0, 1), BuildingBlock: KIFKEQ_clean_linker_1, # of connection points: 2
#     Edge 23, Type (0, 1), BuildingBlock: KIFKEQ_clean_linker_1, # of connection points: 2
#     Edge 24, Type (0, 1), BuildingBlock: KIFKEQ_clean_linker_1, # of connection points: 2
#     Edge 25, Type (0, 1), BuildingBlock: KIFKEQ_clean_linker_1, # of connection points: 2
#     Edge 26, Type (0, 1), BuildingBlock: KIFKEQ_clean_linker_1, # of connection points: 2
# Relax obj value: 0.201
# Max RMSD: 0.217
# Mean RMSD: 0.165
data_MOF--net-anh--node1-BETDAH_clean_sbu_0--node2-CUQRIR_clean_linker_1--edge1-KIFKEQ_clean_linker_1
_symmetry_space_group_name_H-M    P1
_symmetry_Int_Tables_number       1
_symmetry_cell_setting            triclinic
loop_
_symmetry_equiv_pos_as_xyz
'x, y, z'
_cell_length_a     30.276955
_cell_length_b     35.725175
_cell_length_c     47.548228
_cell_angle_alpha  88.121038
_cell_angle_beta   90.811233
_cell_angle_gamma 130.33462
loop_
_atom_site_label
_atom_site_type_symbol
_atom_site_fract_x
_atom_site_fract_y
_atom_site_fract_z
_atom_type_partial_charge
Ho0 Ho 0.12247 0.47917 0.1475 0.0
Ho1 Ho 1.05457 0.50778 0.14811 0.0
C2 C 0.18724 0.59608 0.15519 0.0
C3 C 0.2034 0.4749 0.14151 0.0
C4 C 0.26037 0.5043 0.15522 0.0
C5 C 0.30012 0.55579 0.15219 0.0
C6 C 0.35042 0.58368 0.16828 0.0
C7 C 0.36256 0.56056 0.18738 0.0
C8 C 0.3229 0.50889 0.19006 0.0
C9 C 0.27236 0.48115 0.17422 0.0
C10 C 0.0851 0.47423 0.20002 0.0
C11 C 0.98868 0.39081 0.14449 0.0
C12 C 0.97298 0.51134 0.15398 0.0
C13 C 0.91299 0.47863 0.14351 0.0
C14 C 0.87055 0.43103 0.15522 0.0
C15 C 0.81491 0.39967 0.14389 0.0
C16 C 0.8008 0.41535 0.12066 0.0
C17 C 0.84348 0.46281 0.10892 0.0
C18 C 0.89879 0.4941 0.12028 0.0
C19 C 0.09461 0.51441 0.09586 0.0
O20 O 0.19197 0.56349 0.14729 0.0
O21 O 0.13564 0.58141 0.1611 0.0
O22 O 0.1594 0.44547 0.15858 0.0
O23 O 0.19486 0.49792 0.12334 0.0
O24 O 0.08639 0.44193 0.18981 0.0
O25 O 0.10507 0.50872 0.18211 0.0
O26 O 0.98561 0.42435 0.15202 0.0
O27 O 1.03912 0.40456 0.13674 0.0
O28 O 1.01327 0.53679 0.13463 0.0
O29 O 0.98574 0.49308 0.17344 0.0
O30 O 0.09426 0.54694 0.10658 0.0
O31 O 0.07275 0.47869 0.1132 0.0
H32 H 0.29215 0.57462 0.13755 0.0
H33 H 0.38006 0.6233 0.16554 0.0
H34 H 0.33158 0.48955 0.20377 0.0
H35 H 0.2423 0.4415 0.177 0.0
H36 H 0.88016 0.41796 0.17316 0.0
H37 H 0.78268 0.36351 0.15354 0.0
H38 H 0.83353 0.47667 0.0916 0.0
H39 H 0.93052 0.53059 0.11089 0.0
Ho40 Ho 0.69813 0.05569 0.46728 0.0
Ho41 Ho 0.62492 0.08259 0.455 0.0
C42 C 0.55878 0.96872 0.45685 0.0
C43 C 0.74121 0.01791 0.48874 0.0
C44 C 0.72127 0.96884 0.49755 0.0
C45 C 0.6968 0.94817 0.5244 0.0
C46 C 0.68154 0.90329 0.53314 0.0
C47 C 0.69046 0.87808 0.51527 0.0
C48 C 0.71435 0.89852 0.48834 0.0
C49 C 0.7298 0.94343 0.47964 0.0
C50 C 0.69405 0.07422 0.4122 0.0
C51 C 0.76618 0.17065 0.46117 0.0
C52 C 0.58213 0.12247 0.43739 0.0
C53 C 0.59243 0.16653 0.4463 0.0
C54 C 0.57133 0.18571 0.43046 0.0
C55 C 0.57889 0.22626 0.43989 0.0
C56 C 0.60722 0.24783 0.46543 0.0
C57 C 0.62944 0.22908 0.48085 0.0
C58 C 0.62234 0.18895 0.47131 0.0
C59 C 0.6307 0.06553 0.5103 0.0
O60 O 0.60602 0.98136 0.46941 0.0
O61 O 0.55874 1.00269 0.44493 0.0
O62 O 0.74137 0.02638 0.46177 0.0
O63 O 0.72368 0.03619 0.50381 0.0
O64 O 0.73996 0.08639 0.42466 0.0
O65 O 0.6516 0.05051 0.42916 0.0
O66 O 0.71579 0.15735 0.45309 0.0
O67 O 0.77006 0.13752 0.47046 0.0
O68 O 0.55678 0.08655 0.45621 0.0
O69 O 0.62586 0.13023 0.42507 0.0
O70 O 0.585 0.05384 0.49814 0.0
O71 O 0.67237 0.08878 0.49297 0.0
H72 H 0.69003 0.9669 0.53885 0.0
H73 H 0.66282 0.88835 0.55393 0.0
H74 H 0.72268 0.88049 0.47422 0.0
H75 H 0.74937 0.95867 0.45901 0.0
H76 H 0.54827 0.16887 0.41107 0.0
H77 H 0.5611 0.23982 0.42766 0.0
H78 H 0.65214 0.24537 0.50039 0.0
H79 H 0.63938 0.17485 0.4837 0.0
Ho80 Ho 0.62998 0.60889 0.83806 0.0
Ho81 Ho 0.54788 0.50184 0.84659 0.0
C82 C 0.48594 0.55198 0.84696 0.0
C83 C 0.68244 0.69657 0.81686 0.0
C84 C 0.6699 0.72946 0.8086 0.0
C85 C 0.65826 0.73322 0.78037 0.0
C86 C 0.65041 0.76653 0.77197 0.0
C87 C 0.65433 0.79728 0.79154 0.0
C88 C 0.66559 0.79325 0.81983 0.0
C89 C 0.67344 0.75992 0.82823 0.0
C90 C 0.6169 0.57954 0.89199 0.0
C91 C 0.69265 0.55892 0.84299 0.0
C92 C 0.49627 0.41109 0.86035 0.0
C93 C 0.50756 0.37756 0.85367 0.0
C94 C 0.56103 0.38961 0.85961 0.0
C95 C 0.57241 0.35936 0.85105 0.0
C96 C 0.53051 0.31616 0.83643 0.0
C97 C 0.47653 0.30365 0.83114 0.0
C98 C 0.46526 0.33395 0.83966 0.0
C99 C 0.5663 0.53357 0.79232 0.0
O100 O 0.53946 0.59208 0.83807 0.0
O101 O 0.47964 0.51208 0.85446 0.0
O102 O 0.68238 0.68717 0.84371 0.0
O103 O 0.65904 0.65794 0.80168 0.0
O104 O 0.66608 0.61696 0.8808 0.0
O105 O 0.57618 0.56094 0.87455 0.0
O106 O 0.63753 0.51786 0.84846 0.0
O107 O 0.70085 0.60007 0.83656 0.0
O108 O 0.48065 0.42425 0.83913 0.0
O109 O 0.53308 0.44774 0.87673 0.0
O110 O 0.51588 0.49728 0.80268 0.0
O111 O 0.60419 0.5499 0.81091 0.0
H112 H 0.65587 0.71077 0.7646 0.0
H113 H 0.64113 0.76807 0.75009 0.0
H114 H 0.66982 0.81676 0.83545 0.0
H115 H 0.68325 0.75867 0.85006 0.0
H116 H 0.59444 0.42275 0.87056 0.0
H117 H 0.61412 0.36988 0.85591 0.0
H118 H 0.4434 0.27108 0.81968 0.0
H119 H 0.42372 0.32379 0.83474 0.0
C120 C 0.58925 0.99526 0.16551 0.0
N121 N 0.63059 0.03211 0.18263 0.0
N122 N 0.54831 0.95308 0.18076 0.0
C123 C 0.58815 1.00078 0.13416 0.0
C124 C 0.56662 0.96572 0.20759 0.0
N125 N 0.61606 1.01308 0.20874 0.0
C126 C 0.53561 0.93176 0.23295 0.0
H127 H 0.56777 0.01712 0.12917 0.0
H128 H 0.56255 0.96476 0.12402 0.0
H129 H 0.6329 0.02584 0.12541 0.0
H130 H 0.51204 0.89304 0.22747 0.0
H131 H 0.50371 0.93481 0.24074 0.0
H132 H 0.56627 0.94175 0.25018 0.0
C133 C 0.64686 0.55661 0.54209 0.0
N134 N 0.6461 0.58023 0.56357 0.0
N135 N 0.64285 0.51854 0.55209 0.0
C136 C 0.64683 0.56842 0.51145 0.0
C137 C 0.63967 0.51999 0.58035 0.0
N138 N 0.64181 0.55751 0.58737 0.0
C139 C 0.6339 0.48437 0.60116 0.0
H140 H 0.6016 0.54958 0.505 0.0
H141 H 0.66419 0.55569 0.49806 0.0
H142 H 0.67266 0.60854 0.50788 0.0
H143 H 0.6544 0.4701 0.59284 0.0
H144 H 0.58724 0.45293 0.60503 0.0
H145 H 0.65401 0.50213 0.62149 0.0
C146 C 0.09069 0.5555 0.84748 0.0
N147 N 0.12162 0.54671 0.86482 0.0
N148 N 1.04449 0.54842 0.86119 0.0
C149 C 0.10416 0.56929 0.81691 0.0
C150 C 1.05011 0.53585 0.88748 0.0
N151 N 0.09411 0.53426 0.88957 0.0
C152 C 1.01402 0.52796 0.91231 0.0
H153 H 0.14178 0.60916 0.81468 0.0
H154 H 0.06666 0.56158 0.8058 0.0
H155 H 0.1162 0.54905 0.80729 0.0
H156 H 0.99707 0.5475 0.90906 0.0
H157 H 1.03958 0.54106 0.93196 0.0
H158 H 0.97679 0.48809 0.91516 0.0
C159 C 0.1604 0.5686 0.44599 0.0
N160 N 0.12577 0.53003 0.42853 0.0
N161 N 0.20411 0.61034 0.43126 0.0
C162 C 0.15028 0.56579 0.47706 0.0
C163 C 0.19469 0.59542 0.40439 0.0
N164 N 0.14774 0.54724 0.40275 0.0
C165 C 0.2313 0.6281 0.37946 0.0
H166 H 0.11609 0.56823 0.48066 0.0
H167 H 0.19005 0.59632 0.48797 0.0
H168 H 0.1348 0.53006 0.48615 0.0
H169 H 0.27675 0.65801 0.38576 0.0
H170 H 0.21332 0.64477 0.37044 0.0
H171 H 0.23083 0.60676 0.36285 0.0
C172 C 0.61088 0.07416 0.76229 0.0
N173 N 0.62191 0.05563 0.74169 0.0
N174 N 0.61327 0.1112 0.75193 0.0
C175 C 0.59829 0.05659 0.79258 0.0
C176 C 0.62643 0.11484 0.72436 0.0
N177 N 0.63254 0.08159 0.71814 0.0
C178 C 0.6308 0.14947 0.70324 0.0
H179 H 0.55126 0.02507 0.79512 0.0
H180 H 0.60983 0.08595 0.80658 0.0
H181 H 0.62245 0.04417 0.79904 0.0
H182 H 0.61075 0.16428 0.71124 0.0
H183 H 0.60972 0.13059 0.68327 0.0
H184 H 0.67719 0.18076 0.69863 0.0
C185 C 0.58714 0.49808 0.14281 0.0
N186 N 0.58167 0.4881 0.11513 0.0
N187 N 0.59152 0.53771 0.14661 0.0
C188 C 0.59333 0.47195 0.1659 0.0
C189 C 0.58774 0.55111 0.12028 0.0
N190 N 0.58302 0.5216 0.10109 0.0
C191 C 0.58275 0.58977 0.11363 0.0
H192 H 0.54983 0.43688 0.17165 0.0
H193 H 0.61318 0.4945 0.18489 0.0
H194 H 0.62037 0.46323 0.15865 0.0
H195 H 0.55743 0.58985 0.13024 0.0
H196 H 0.56146 0.58358 0.09308 0.0
H197 H 0.62675 0.62642 0.11279 0.0
H198 H 0.38806 0.5467 0.24063 0.0
H199 H 0.46816 0.63903 0.16543 0.0
H200 H 0.47871 0.5648 0.25226 0.0
H201 H 0.55753 0.6576 0.17714 0.0
H202 H 0.51471 0.48508 0.18872 0.0
H203 H 0.48758 0.51733 0.22152 0.0
H204 H 0.63724 0.6654 0.19584 0.0
H205 H 0.66433 0.63193 0.16289 0.0
C206 C 0.42558 0.57248 0.22721 0.0
C207 C 0.41993 0.5887 0.20111 0.0
C208 C 0.47777 0.58339 0.23409 0.0
C209 C 0.52402 0.60972 0.21462 0.0
C210 C 0.52228 0.63559 0.19226 0.0
C211 C 0.47025 0.62459 0.1853 0.0
C212 C 0.54351 0.52442 0.19126 0.0
C213 C 0.58986 0.55619 0.17256 0.0
C214 C 0.52833 0.5433 0.21029 0.0
C215 C 0.55854 0.5942 0.21016 0.0
C216 C 0.6119 0.62599 0.19566 0.0
C217 C 0.62716 0.60696 0.17663 0.0
H218 H 0.77349 0.25011 0.44777 0.0
H219 H 0.88061 0.21327 0.46912 0.0
H220 H 0.85991 0.33632 0.44151 0.0
H221 H 0.96718 0.29975 0.46318 0.0
H222 H 0.11131 0.44884 0.41826 0.0
H223 H 1.02526 0.36293 0.4273 0.0
H224 H 0.93969 0.41006 0.46453 0.0
H225 H 1.02591 0.49611 0.45462 0.0
C226 C 0.81543 0.2603 0.45135 0.0
C227 C 0.81955 0.22414 0.45893 0.0
C228 C 0.86529 0.31012 0.4479 0.0
C229 C 0.92121 0.32567 0.45171 0.0
C230 C 0.92525 0.28954 0.45964 0.0
C231 C 0.87532 0.23971 0.46327 0.0
C232 C 0.07399 0.44072 0.4283 0.0
C233 C 0.07545 0.4793 0.43565 0.0
C234 C 1.02467 0.39137 0.4338 0.0
C235 C 0.97484 0.37887 0.44674 0.0
C236 C 0.97665 0.41778 0.4543 0.0
C237 C 1.0263 0.46725 0.44892 0.0
H238 H 0.59909 0.82309 0.81946 0.0
H239 H 0.69455 0.85485 0.74295 0.0
H240 H 0.59054 0.88427 0.80534 0.0
H241 H 0.68387 0.91468 0.72826 0.0
H242 H 0.71073 0.05871 0.72864 0.0
H243 H 0.71767 0.99499 0.7392 0.0
H244 H 0.54274 0.89961 0.77244 0.0
H245 H 0.5368 0.96373 0.76204 0.0
C246 C 0.61824 0.84305 0.79959 0.0
C247 C 0.64762 0.83388 0.78243 0.0
C248 C 0.61267 0.8778 0.79129 0.0
C249 C 0.63627 0.90448 0.76554 0.0
C250 C 0.66552 0.89523 0.74832 0.0
C251 C 0.67105 0.8604 0.75662 0.0
C252 C 0.6737 0.02376 0.73782 0.0
C253 C 0.62352 0.01616 0.74484 0.0
C254 C 0.6775 0.98721 0.74389 0.0
C255 C 0.63101 0.94219 0.75707 0.0
C256 C 0.57993 0.93412 0.76295 0.0
C257 C 0.57629 0.97066 0.7569 0.0
H258 H 0.70452 0.3681 0.15363 0.0
H259 H 0.76008 0.39864 0.06668 0.0
H260 H 0.61949 0.35689 0.14046 0.0
H261 H 0.67412 0.38734 0.05331 0.0
H262 H 0.5113 0.39028 0.12548 0.0
H263 H 0.53539 0.3382 0.11597 0.0
H264 H 0.68521 0.45862 0.06783 0.0
H265 H 0.66161 0.50982 0.07803 0.0
C266 C 0.6969 0.3696 0.13146 0.0
C267 C 0.74016 0.3866 0.11133 0.0
C268 C 0.64766 0.36291 0.12379 0.0
C269 C 0.6416 0.37359 0.09597 0.0
C270 C 0.67876 0.38041 0.07505 0.0
C271 C 0.72811 0.38717 0.08273 0.0
C272 C 0.54813 0.40456 0.11208 0.0
C273 C 0.5855 0.45404 0.10295 0.0
C274 C 0.56163 0.37481 0.10644 0.0
C275 C 0.61267 0.39443 0.09155 0.0
C276 C 0.6453 0.44197 0.0792 0.0
C277 C 0.63212 0.47166 0.08513 0.0
H278 H 0.447 0.9303 0.44765 0.0
H279 H 0.54836 0.88632 0.46396 0.0
H280 H 0.35955 0.8447 0.44597 0.0
H281 H 0.46139 0.80028 0.46052 0.0
H282 H 0.29118 0.6435 0.46826 0.0
H283 H 0.37478 0.72934 0.47746 0.0
H284 H 0.30502 0.77623 0.42051 0.0
H285 H 0.22054 0.69087 0.41339 0.0
C286 C 0.45077 0.90227 0.45056 0.0
C287 C 0.50514 0.9156 0.45578 0.0
C288 C 0.40026 0.85267 0.44939 0.0
C289 C 0.40221 0.81431 0.45276 0.0
C290 C 0.4569 0.8279 0.4582 0.0
C291 C 0.50733 0.87763 0.45994 0.0
C292 C 0.29315 0.6724 0.45856 0.0
C293 C 0.24885 0.66035 0.44038 0.0
C294 C 0.3418 0.72191 0.4633 0.0
C295 C 0.34809 0.76096 0.44963 0.0
C296 C 0.30247 0.74826 0.43203 0.0
C297 C 0.25371 0.69898 0.42771 0.0
H298 H 0.63213 0.34606 0.81356 0.0
H299 H 0.45811 0.21534 0.83563 0.0
H300 H 0.65192 0.29545 0.79491 0.0
H301 H 0.47791 0.16472 0.81693 0.0
H302 H 0.51356 0.09518 0.75056 0.0
H303 H 0.4935 0.14413 0.77239 0.0
H304 H 0.66566 0.23743 0.80749 0.0
H305 H 0.68518 0.18844 0.78499 0.0
C306 C 0.59827 0.3065 0.81481 0.0
C307 C 0.5434 0.28495 0.82609 0.0
C308 C 0.60965 0.27739 0.80407 0.0
C309 C 0.56651 0.22585 0.80428 0.0
C310 C 0.51192 0.20427 0.81594 0.0
C311 C 0.50054 0.23337 0.82669 0.0
C312 C 0.54661 0.12598 0.76318 0.0
C313 C 0.60069 0.13826 0.76629 0.0
C314 C 0.53526 0.15393 0.77578 0.0
C315 C 0.57795 0.19491 0.79176 0.0
C316 C 0.63199 0.20661 0.79509 0.0
C317 C 0.64317 0.17852 0.78246 0.0
H318 H 0.71243 0.8565 0.56666 0.0
H319 H 0.63849 0.79459 0.48563 0.0
H320 H 0.69571 0.78209 0.58148 0.0
H321 H 0.62328 0.72085 0.50014 0.0
H322 H 0.56207 0.57801 0.54172 0.0
H323 H 0.56696 0.6486 0.53229 0.0
H324 H 0.73719 0.74394 0.56935 0.0
H325 H 0.73166 0.67313 0.57842 0.0
C326 C 0.69204 0.82681 0.55212 0.0
C327 C 0.67698 0.83157 0.52492 0.0
C328 C 0.68298 0.78437 0.56052 0.0
C329 C 0.65834 0.74558 0.54198 0.0
C330 C 0.64184 0.74981 0.51505 0.0
C331 C 0.65115 0.79231 0.50661 0.0
C332 C 0.59992 0.61411 0.54815 0.0
C333 C 0.64617 0.62048 0.5611 0.0
C334 C 0.603 0.65446 0.54265 0.0
C335 C 0.65252 0.70195 0.55005 0.0
C336 C 0.69805 0.70782 0.56381 0.0
C337 C 0.69495 0.66743 0.56914 0.0
H338 H 0.81633 0.63532 0.83472 0.0
H339 H 0.69465 0.48053 0.85381 0.0
H340 H 0.89614 0.63354 0.83677 0.0
H341 H 0.7735 0.47824 0.8559 0.0
H342 H 0.9248 0.47388 0.86422 0.0
H343 H 0.84639 0.47651 0.85984 0.0
H344 H 0.97068 0.63067 0.83772 0.0
H345 H 1.04944 0.62741 0.84233 0.0
C346 C 0.80545 0.60033 0.8394 0.0
C347 C 0.74563 0.55814 0.84408 0.0
C348 C 0.85284 0.59918 0.84062 0.0
C349 C 0.84543 0.55566 0.84665 0.0
C350 C 0.78531 0.51353 0.85123 0.0
C351 C 0.73811 0.51474 0.85001 0.0
C352 C 0.93625 0.50853 0.8577 0.0
C353 C 0.99628 0.54983 0.85285 0.0
C354 C 0.88972 0.51036 0.85537 0.0
C355 C 0.89807 0.55395 0.84826 0.0
C356 C 0.95851 0.59544 0.84318 0.0
C357 C 1.00535 0.59356 0.8455 0.0
H358 H 0.19296 0.67597 0.15779 0.0
H359 H 0.30221 0.63817 0.15767 0.0
H360 H 0.27837 0.76266 0.16029 0.0
H361 H 0.38778 0.72454 0.16099 0.0
H362 H 0.53968 0.88795 0.14773 0.0
H363 H 0.45258 0.80283 0.13948 0.0
H364 H 0.35175 0.82403 0.18871 0.0
H365 H 0.43838 0.90921 0.19556 0.0
C366 C 0.23523 0.68601 0.15847 0.0
C367 C 0.24019 0.6495 0.15736 0.0
C368 C 0.28465 0.7361 0.16003 0.0
C369 C 0.34104 0.75167 0.16084 0.0
C370 C 0.34579 0.71493 0.15981 0.0
C371 C 0.29633 0.66488 0.15803 0.0
C372 C 0.49843 0.87459 0.156 0.0
C373 C 0.4958 0.90558 0.17192 0.0
C374 C 0.4484 0.82538 0.15176 0.0
C375 C 0.39418 0.80545 0.16355 0.0
C376 C 0.39177 0.83735 0.17882 0.0
C377 C 0.44162 0.88644 0.18287 0.0
H378 H 0.58346 0.25597 0.51876 0.0
H379 H 0.64081 0.33115 0.43746 0.0
H380 H 0.59107 0.32249 0.5378 0.0
H381 H 0.64811 0.39793 0.45657 0.0
H382 H 0.7193 0.53007 0.51617 0.0
H383 H 0.70953 0.46453 0.493 0.0
H384 H 0.54041 0.35663 0.53139 0.0
H385 H 0.55032 0.42234 0.55397 0.0
C386 C 0.59789 0.28685 0.50499 0.0
C387 C 0.61172 0.28846 0.47665 0.0
C388 C 0.60173 0.3247 0.51582 0.0
C389 C 0.61997 0.3653 0.49863 0.0
C390 C 0.63416 0.36716 0.47031 0.0
C391 C 0.62962 0.32887 0.45935 0.0
C392 C 0.67977 0.49235 0.51906 0.0
C393 C 0.63544 0.4809 0.53665 0.0
C394 C 0.67413 0.45494 0.50593 0.0
C395 C 0.62433 0.40547 0.51054 0.0
C396 C 0.57955 0.39435 0.52772 0.0
C397 C 0.58503 0.43174 0.54056 0.0
H398 H 0.47597 0.62524 0.83166 0.0
H399 H 0.36854 0.47821 0.86651 0.0
H400 H 0.39428 0.62444 0.83444 0.0
H401 H 0.28698 0.47701 0.86934 0.0
H402 H 0.13574 0.47964 0.88308 0.0
H403 H 0.21753 0.48179 0.8793 0.0
H404 H 0.31134 0.617 0.83046 0.0
H405 H 0.22871 0.61504 0.83488 0.0
C406 C 0.43522 0.5922 0.84002 0.0
C407 C 0.43232 0.55182 0.84878 0.0
C408 C 0.38657 0.59161 0.84163 0.0
C409 C 0.32988 0.55064 0.8523 0.0
C410 C 0.32737 0.51036 0.86105 0.0
C411 C 0.37585 0.5109 0.85932 0.0
C412 C 0.17344 0.51046 0.8715 0.0
C413 C 0.1721 0.54708 0.85953 0.0
C414 C 0.22215 0.51161 0.86905 0.0
C415 C 0.27531 0.54968 0.85444 0.0
C416 C 0.2738 0.58632 0.84218 0.0
C417 C 0.22461 0.58505 0.84451 0.0
H418 H 0.97945 0.30887 0.14045 0.0
H419 H 0.87608 0.35052 0.15429 0.0
H420 H 0.89342 0.22236 0.1478 0.0
H421 H 0.79051 0.26451 0.16198 0.0
H422 H 0.63412 0.10047 0.15289 0.0
H423 H 0.71966 0.18591 0.14127 0.0
H424 H 0.82804 0.16368 0.18422 0.0
H425 H 0.74253 0.07819 0.19497 0.0
C426 C 0.93839 0.29972 0.14485 0.0
C427 C 0.93528 0.33725 0.14674 0.0
C428 C 0.88886 0.24988 0.14934 0.0
C429 C 0.83431 0.23572 0.1557 0.0
C430 C 0.83112 0.27331 0.1569 0.0
C431 C 0.88064 0.32305 0.1526 0.0
C432 C 0.67636 0.11382 0.15952 0.0
C433 C 0.68142 0.08244 0.17487 0.0
C434 C 0.72556 0.16307 0.15313 0.0
C435 C 0.78152 0.18245 0.16175 0.0
C436 C 0.78628 0.15053 0.17684 0.0
C437 C 0.73707 0.10147 0.18334 0.0
H438 H 0.07398 0.44084 0.0643 0.0
H439 H 0.14206 0.59066 0.05865 0.0
H440 H 0.08692 0.44287 0.01319 0.0
H441 H 0.15378 0.59259 0.00818 0.0
H442 H 0.19111 0.60016 0.91891 0.0
H443 H 0.20305 0.59358 0.96945 0.0
H444 H 1.04219 0.44332 0.97118 0.0
H445 H 1.03219 0.45015 0.92063 0.0
C446 C 0.0922 0.47428 0.0522 0.0
C447 C 0.10653 0.51543 0.06548 0.0
C448 C 0.09945 0.47547 0.0229 0.0
C449 C 0.12155 0.51796 0.00631 0.0
C450 C 0.13772 0.55948 0.02003 0.0
C451 C 0.13035 0.55822 0.04909 0.0
C452 C 0.15998 0.56521 0.93 0.0
C453 C 0.11083 0.52568 0.91602 0.0
C454 C 0.16606 0.56152 0.95904 0.0
C455 C 0.12278 0.51824 0.97475 0.0
C456 C 0.07654 0.47719 0.96002 0.0
C457 C 0.07075 0.48093 0.931 0.0
H458 H 0.59809 0.04114 0.38182 0.0
H459 H 0.77899 0.11208 0.3728 0.0
H460 H 0.58826 0.03785 0.33065 0.0
H461 H 0.76946 0.10935 0.32164 0.0
H462 H 0.69584 0.01893 0.23875 0.0
H463 H 0.72131 0.04335 0.28774 0.0
H464 H 0.61621 0.08585 0.28624 0.0
H465 H 0.59104 0.06095 0.23713 0.0
C466 C 0.6359 0.0566 0.36887 0.0
C467 C 0.68912 0.07637 0.38129 0.0
C468 C 0.63044 0.05507 0.33954 0.0
C469 C 0.67807 0.0732 0.322 0.0
C470 C 0.73179 0.09456 0.33452 0.0
C471 C 0.73728 0.09625 0.36382 0.0
C472 C 0.68036 0.03542 0.2487 0.0
C473 C 0.6426 0.03912 0.23429 0.0
C474 C 0.69452 0.04916 0.27675 0.0
C475 C 0.67044 0.06625 0.29103 0.0
C476 C 0.635 0.07235 0.27597 0.0
C477 C 0.62123 0.05887 0.24785 0.0
H478 H 0.66978 0.58312 0.76495 0.0
H479 H 0.49043 0.51357 0.7516 0.0
H480 H 0.68748 0.5963 0.71436 0.0
H481 H 0.50842 0.52937 0.70105 0.0
H482 H 0.54026 0.49664 0.61449 0.0
H483 H 0.52218 0.49751 0.66407 0.0
H484 H 0.69735 0.63514 0.67177 0.0
H485 H 0.71562 0.63149 0.62237 0.0
C486 C 0.63442 0.57158 0.75113 0.0
C487 C 0.57856 0.54664 0.76205 0.0
C488 C 0.64459 0.57952 0.72207 0.0
C489 C 0.59928 0.56352 0.70332 0.0
C490 C 0.5441 0.54106 0.71462 0.0
C491 C 0.53375 0.53223 0.74362 0.0
C492 C 0.57422 0.52744 0.62683 0.0
C493 C 0.62894 0.56425 0.61478 0.0
C494 C 0.56401 0.52827 0.65524 0.0
C495 C 0.60833 0.56639 0.67225 0.0
C496 C 0.66238 0.60476 0.65958 0.0
C497 C 0.67272 0.60337 0.63116 0.0
H498 H 0.7277 0.10296 0.5418 0.0
H499 H 0.54304 0.01863 0.54847 0.0
H500 H 0.73349 0.10002 0.59324 0.0
H501 H 0.54867 0.01658 0.59942 0.0
H502 H 0.56116 0.99685 0.69054 0.0
H503 H 0.56497 0.98628 0.64021 0.0
H504 H 0.7254 0.13638 0.63241 0.0
H505 H 0.72207 0.14558 0.68285 0.0
C506 C 0.68836 0.08352 0.55425 0.0
C507 C 0.635 0.06136 0.54114 0.0
C508 C 0.69163 0.08196 0.58371 0.0
C509 C 0.64154 0.05806 0.60063 0.0
C510 C 0.58805 0.03461 0.58725 0.0
C511 C 0.58486 0.03622 0.55795 0.0
C512 C 0.59803 0.02682 0.6781 0.0
C513 C 0.64105 0.0721 0.69033 0.0
C514 C 0.59998 0.02115 0.64923 0.0
C515 C 0.64495 0.06079 0.63201 0.0
C516 C 0.69021 0.10495 0.64487 0.0
C517 C 0.68825 0.11044 0.67371 0.0
H518 H 0.51549 0.51754 0.9221 0.0
H519 H 0.70133 0.61106 0.92973 0.0
H520 H 0.50489 0.50115 0.97306 0.0
H521 H 0.69096 0.59355 0.98017 0.0
H522 H 0.66089 0.60463 0.07083 0.0
H523 H 0.66612 0.61583 0.01984 0.0
H524 H 0.51611 0.46218 0.01215 0.0
H525 H 0.50964 0.4521 0.06365 0.0
C526 C 0.55392 0.53409 0.93467 0.0
C527 C 0.60925 0.56609 0.92217 0.0
C528 C 0.54791 0.52454 0.96378 0.0
C529 C 0.59715 0.54661 0.98075 0.0
C530 C 0.65223 0.57698 0.96786 0.0
C531 C 0.6582 0.58681 0.93894 0.0
C532 C 0.62859 0.57359 0.05816 0.0
C533 C 0.58461 0.5277 0.07095 0.0
C534 C 0.63198 0.57968 0.02898 0.0
C535 C 0.59184 0.53976 0.01186 0.0
C536 C 0.54743 0.49374 0.02473 0.0
C537 C 0.54389 0.4878 0.05408 0.0
H538 H 0.10113 0.54814 0.22786 0.0
H539 H 1.05919 0.40807 0.24119 0.0
H540 H 0.10399 0.55706 0.27886 0.0
H541 H 1.0618 0.41683 0.29199 0.0
H542 H 0.16865 0.49677 0.37395 0.0
H543 H 0.14228 0.47224 0.32499 0.0
H544 H 1.04546 0.52269 0.32341 0.0
H545 H 0.07209 0.54676 0.37259 0.0
C546 C 0.0917 0.51899 0.24169 0.0
C547 C 0.08057 0.4777 0.23059 0.0
C548 C 0.09302 0.52392 0.27087 0.0
C549 C 0.08346 0.48773 0.28947 0.0
C550 C 0.07005 0.44558 0.27825 0.0
C551 C 0.0684 0.44055 0.24915 0.0
C552 C 0.1398 0.50057 0.36335 0.0
C553 C 0.12113 0.52242 0.37692 0.0
C554 C 0.12496 0.48694 0.33533 0.0
C555 C 0.09195 0.49575 0.32026 0.0
C556 C 0.07125 0.51577 0.33438 0.0
C557 C 0.0857 0.5289 0.3625 0.0
loop_
_geom_bond_atom_site_label_1
_geom_bond_atom_site_label_2
_geom_bond_distance
_geom_bond_site_symmetry_2
_ccdc_geom_bond_type
Ho0 C3 2.811 . S
Ho0 O20 2.322 . S
Ho0 O22 2.378 . S
Ho0 O23 2.524 . S
Ho0 O24 2.381 . S
Ho0 O25 2.669 1_455 S
Ho0 O27 2.346 1_455 S
Ho0 O31 2.305 . S
Ho1 C12 2.811 . S
Ho1 O21 2.346 1_655 S
Ho1 O25 2.305 . S
Ho1 O26 2.322 . S
Ho1 O28 2.378 . S
Ho1 O29 2.524 . S
Ho1 O30 2.381 . S
Ho1 O31 2.669 1_655 S
C2 O20 1.259 . S
C2 O21 1.268 . S
C3 Ho0 2.811 . S
C3 C4 1.488 . S
C3 O22 1.215 . S
C3 O23 1.289 . S
C4 C3 1.488 . S
C4 C5 1.348 . S
C4 C9 1.413 . S
C5 C4 1.348 . S
C5 C6 1.442 . S
C5 H32 0.930 . S
C6 C5 1.442 . S
C6 C7 1.381 . S
C6 H33 0.931 . S
C7 C6 1.381 . S
C7 C8 1.321 . S
C8 C7 1.321 . S
C8 C9 1.403 . S
C8 H34 0.934 . S
C9 C4 1.413 . S
C9 C8 1.403 . S
C9 H35 0.930 . S
C10 O24 1.275 . S
C10 O25 1.256 1_455 S
C11 O26 1.259 . S
C11 O27 1.268 . S
C12 Ho1 2.811 . S
C12 C13 1.488 . S
C12 O28 1.215 . S
C12 O29 1.289 . S
C13 C12 1.488 . S
C13 C14 1.348 . S
C13 C18 1.413 . S
C14 C13 1.348 . S
C14 C15 1.442 . S
C14 H36 0.930 . S
C15 C14 1.442 . S
C15 C16 1.381 . S
C15 H37 0.931 . S
C16 C15 1.381 . S
C16 C17 1.321 . S
C17 C16 1.321 . S
C17 C18 1.403 . S
C17 H38 0.934 . S
C18 C13 1.413 . S
C18 C17 1.403 . S
C18 H39 0.930 . S
C19 O30 1.275 1_455 S
C19 O31 1.256 . S
O20 Ho0 2.322 . S
O20 C2 1.259 . S
O21 Ho1 2.346 1_455 S
O21 C2 1.268 . S
O22 Ho0 2.378 . S
O22 C3 1.215 . S
O23 Ho0 2.524 . S
O23 C3 1.289 . S
O24 Ho0 2.381 . S
O24 C10 1.275 . S
O25 Ho0 2.669 1_655 S
O25 Ho1 2.305 . S
O25 C10 1.256 1_655 S
O26 Ho1 2.322 . S
O26 C11 1.259 . S
O27 Ho0 2.346 1_655 S
O27 C11 1.268 . S
O28 Ho1 2.378 . S
O28 C12 1.215 . S
O29 Ho1 2.524 . S
O29 C12 1.289 . S
O30 Ho1 2.381 . S
O30 C19 1.275 1_655 S
O31 Ho0 2.305 . S
O31 Ho1 2.669 1_455 S
O31 C19 1.256 . S
H32 C5 0.930 . S
H33 C6 0.931 . S
H34 C8 0.934 . S
H35 C9 0.930 . S
H36 C14 0.930 . S
H37 C15 0.931 . S
H38 C17 0.934 . S
H39 C18 0.930 . S
Ho40 C43 2.811 1_545 S
Ho40 O60 2.322 1_545 S
Ho40 O62 2.378 1_545 S
Ho40 O63 2.524 1_545 S
Ho40 O64 2.381 . S
Ho40 O65 2.669 . S
Ho40 O67 2.346 . S
Ho40 O71 2.305 . S
Ho41 C52 2.811 . S
Ho41 O61 2.346 1_545 S
Ho41 O65 2.305 . S
Ho41 O66 2.322 . S
Ho41 O68 2.378 . S
Ho41 O69 2.524 . S
Ho41 O70 2.381 . S
Ho41 O71 2.669 . S
C42 O60 1.259 . S
C42 O61 1.268 . S
C43 Ho40 2.811 1_565 S
C43 C44 1.488 . S
C43 O62 1.215 . S
C43 O63 1.289 . S
C44 C43 1.488 . S
C44 C45 1.348 . S
C44 C49 1.413 . S
C45 C44 1.348 . S
C45 C46 1.442 . S
C45 H72 0.930 . S
C46 C45 1.442 . S
C46 C47 1.381 . S
C46 H73 0.931 . S
C47 C46 1.381 . S
C47 C48 1.321 . S
C48 C47 1.321 . S
C48 C49 1.403 . S
C48 H74 0.934 . S
C49 C44 1.413 . S
C49 C48 1.403 . S
C49 H75 0.930 . S
C50 O64 1.275 . S
C50 O65 1.256 . S
C51 O66 1.259 . S
C51 O67 1.268 . S
C52 Ho41 2.811 . S
C52 C53 1.488 . S
C52 O68 1.215 . S
C52 O69 1.289 . S
C53 C52 1.488 . S
C53 C54 1.348 . S
C53 C58 1.413 . S
C54 C53 1.348 . S
C54 C55 1.442 . S
C54 H76 0.930 . S
C55 C54 1.442 . S
C55 C56 1.381 . S
C55 H77 0.931 . S
C56 C55 1.381 . S
C56 C57 1.321 . S
C57 C56 1.321 . S
C57 C58 1.403 . S
C57 H78 0.934 . S
C58 C53 1.413 . S
C58 C57 1.403 . S
C58 H79 0.930 . S
C59 O70 1.275 . S
C59 O71 1.256 . S
O60 Ho40 2.322 1_565 S
O60 C42 1.259 . S
O61 Ho41 2.346 1_565 S
O61 C42 1.268 . S
O62 Ho40 2.378 1_565 S
O62 C43 1.215 . S
O63 Ho40 2.524 1_565 S
O63 C43 1.289 . S
O64 Ho40 2.381 . S
O64 C50 1.275 . S
O65 Ho40 2.669 . S
O65 Ho41 2.305 . S
O65 C50 1.256 . S
O66 Ho41 2.322 . S
O66 C51 1.259 . S
O67 Ho40 2.346 . S
O67 C51 1.268 . S
O68 Ho41 2.378 . S
O68 C52 1.215 . S
O69 Ho41 2.524 . S
O69 C52 1.289 . S
O70 Ho41 2.381 . S
O70 C59 1.275 . S
O71 Ho40 2.305 . S
O71 Ho41 2.669 . S
O71 C59 1.256 . S
H72 C45 0.930 . S
H73 C46 0.931 . S
H74 C48 0.934 . S
H75 C49 0.930 . S
H76 C54 0.930 . S
H77 C55 0.931 . S
H78 C57 0.934 . S
H79 C58 0.930 . S
Ho80 C83 2.811 . S
Ho80 O100 2.322 . S
Ho80 O102 2.378 . S
Ho80 O103 2.524 . S
Ho80 O104 2.381 . S
Ho80 O105 2.669 . S
Ho80 O107 2.346 . S
Ho80 O111 2.305 . S
Ho81 C92 2.811 . S
Ho81 O101 2.346 . S
Ho81 O105 2.305 . S
Ho81 O106 2.322 . S
Ho81 O108 2.378 . S
Ho81 O109 2.524 . S
Ho81 O110 2.381 . S
Ho81 O111 2.669 . S
C82 O100 1.259 . S
C82 O101 1.268 . S
C83 Ho80 2.811 . S
C83 C84 1.488 . S
C83 O102 1.215 . S
C83 O103 1.289 . S
C84 C83 1.488 . S
C84 C85 1.348 . S
C84 C89 1.413 . S
C85 C84 1.348 . S
C85 C86 1.442 . S
C85 H112 0.930 . S
C86 C85 1.442 . S
C86 C87 1.381 . S
C86 H113 0.931 . S
C87 C86 1.381 . S
C87 C88 1.321 . S
C88 C87 1.321 . S
C88 C89 1.403 . S
C88 H114 0.934 . S
C89 C84 1.413 . S
C89 C88 1.403 . S
C89 H115 0.930 . S
C90 O104 1.275 . S
C90 O105 1.256 . S
C91 O106 1.259 . S
C91 O107 1.268 . S
C92 Ho81 2.811 . S
C92 C93 1.488 . S
C92 O108 1.215 . S
C92 O109 1.289 . S
C93 C92 1.488 . S
C93 C94 1.348 . S
C93 C98 1.413 . S
C94 C93 1.348 . S
C94 C95 1.442 . S
C94 H116 0.930 . S
C95 C94 1.442 . S
C95 C96 1.381 . S
C95 H117 0.931 . S
C96 C95 1.381 . S
C96 C97 1.321 . S
C97 C96 1.321 . S
C97 C98 1.403 . S
C97 H118 0.934 . S
C98 C93 1.413 . S
C98 C97 1.403 . S
C98 H119 0.930 . S
C99 O110 1.275 . S
C99 O111 1.256 . S
O100 Ho80 2.322 . S
O100 C82 1.259 . S
O101 Ho81 2.346 . S
O101 C82 1.268 . S
O102 Ho80 2.378 . S
O102 C83 1.215 . S
O103 Ho80 2.524 . S
O103 C83 1.289 . S
O104 Ho80 2.381 . S
O104 C90 1.275 . S
O105 Ho80 2.669 . S
O105 Ho81 2.305 . S
O105 C90 1.256 . S
O106 Ho81 2.322 . S
O106 C91 1.259 . S
O107 Ho80 2.346 . S
O107 C91 1.268 . S
O108 Ho81 2.378 . S
O108 C92 1.215 . S
O109 Ho81 2.524 . S
O109 C92 1.289 . S
O110 Ho81 2.381 . S
O110 C99 1.275 . S
O111 Ho80 2.305 . S
O111 Ho81 2.669 . S
O111 C99 1.256 . S
H112 C85 0.930 . S
H113 C86 0.931 . S
H114 C88 0.934 . S
H115 C89 0.930 . S
H116 C94 0.930 . S
H117 C95 0.931 . S
H118 C97 0.934 . S
H119 C98 0.930 . S
C120 N121 1.317 1_565 S
C120 N122 1.348 . S
C120 C123 1.485 1_565 S
N121 C120 1.317 1_545 S
N121 N125 1.370 . S
N122 C120 1.348 . S
N122 C124 1.346 . S
C123 C120 1.485 1_545 S
C123 H127 0.960 . S
C123 H128 0.961 1_545 S
C123 H129 0.960 . S
C124 N122 1.346 . S
C124 N125 1.307 1_565 S
C124 C126 1.486 . S
N125 N121 1.370 . S
N125 C124 1.307 1_545 S
C126 C124 1.486 . S
C126 H130 0.960 . S
C126 H131 0.960 . S
C126 H132 0.959 . S
H127 C123 0.960 . S
H128 C123 0.961 1_565 S
H129 C123 0.960 . S
H130 C126 0.960 . S
H131 C126 0.960 . S
H132 C126 0.959 . S
C133 N134 1.317 . S
C133 N135 1.348 . S
C133 C136 1.485 . S
N134 C133 1.317 . S
N134 N138 1.370 . S
N135 C133 1.348 . S
N135 C137 1.346 . S
C136 C133 1.485 . S
C136 H140 0.960 . S
C136 H141 0.961 . S
C136 H142 0.960 . S
C137 N135 1.346 . S
C137 N138 1.307 . S
C137 C139 1.486 . S
N138 N134 1.370 . S
N138 C137 1.307 . S
C139 C137 1.486 . S
C139 H143 0.960 . S
C139 H144 0.960 . S
C139 H145 0.959 . S
H140 C136 0.960 . S
H141 C136 0.961 . S
H142 C136 0.960 . S
H143 C139 0.960 . S
H144 C139 0.960 . S
H145 C139 0.959 . S
C146 N147 1.317 . S
C146 N148 1.348 . S
C146 C149 1.485 . S
N147 C146 1.317 . S
N147 N151 1.370 . S
N148 C146 1.348 . S
N148 C150 1.346 . S
C149 C146 1.485 . S
C149 H153 0.960 . S
C149 H154 0.961 . S
C149 H155 0.960 . S
C150 N148 1.346 . S
C150 N151 1.307 . S
C150 C152 1.486 1_455 S
N151 N147 1.370 . S
N151 C150 1.307 . S
C152 C150 1.486 1_655 S
C152 H156 0.960 . S
C152 H157 0.960 . S
C152 H158 0.959 1_655 S
H153 C149 0.960 . S
H154 C149 0.961 . S
H155 C149 0.960 . S
H156 C152 0.960 . S
H157 C152 0.960 . S
H158 C152 0.959 1_455 S
C159 N160 1.317 . S
C159 N161 1.348 . S
C159 C162 1.485 . S
N160 C159 1.317 . S
N160 N164 1.370 . S
N161 C159 1.348 . S
N161 C163 1.346 . S
C162 C159 1.485 . S
C162 H166 0.960 . S
C162 H167 0.961 . S
C162 H168 0.960 . S
C163 N161 1.346 . S
C163 N164 1.307 . S
C163 C165 1.486 . S
N164 N160 1.370 . S
N164 C163 1.307 . S
C165 C163 1.486 . S
C165 H169 0.960 . S
C165 H170 0.960 . S
C165 H171 0.959 . S
H166 C162 0.960 . S
H167 C162 0.961 . S
H168 C162 0.960 . S
H169 C165 0.960 . S
H170 C165 0.960 . S
H171 C165 0.959 . S
C172 N173 1.317 . S
C172 N174 1.348 . S
C172 C175 1.485 . S
N173 C172 1.317 . S
N173 N177 1.370 . S
N174 C172 1.348 . S
N174 C176 1.346 . S
C175 C172 1.485 . S
C175 H179 0.960 . S
C175 H180 0.961 . S
C175 H181 0.960 . S
C176 N174 1.346 . S
C176 N177 1.307 . S
C176 C178 1.486 . S
N177 N173 1.370 . S
N177 C176 1.307 . S
C178 C176 1.486 . S
C178 H182 0.960 . S
C178 H183 0.960 . S
C178 H184 0.959 . S
H179 C175 0.960 . S
H180 C175 0.961 . S
H181 C175 0.960 . S
H182 C178 0.960 . S
H183 C178 0.960 . S
H184 C178 0.959 . S
C185 N186 1.317 . S
C185 N187 1.348 . S
C185 C188 1.485 . S
N186 C185 1.317 . S
N186 N190 1.370 . S
N187 C185 1.348 . S
N187 C189 1.346 . S
C188 C185 1.485 . S
C188 H192 0.960 . S
C188 H193 0.961 . S
C188 H194 0.960 . S
C189 N187 1.346 . S
C189 N190 1.307 . S
C189 C191 1.486 . S
N190 N186 1.370 . S
N190 C189 1.307 . S
C191 C189 1.486 . S
C191 H195 0.960 . S
C191 H196 0.960 . S
C191 H197 0.959 . S
H192 C188 0.960 . S
H193 C188 0.961 . S
H194 C188 0.960 . S
H195 C191 0.960 . S
H196 C191 0.960 . S
H197 C191 0.959 . S
H198 C206 0.950 . S
H199 C211 0.950 . S
H200 C208 0.950 . S
H201 C210 0.950 . S
H202 C212 0.950 . S
H203 C214 0.950 . S
H204 C216 0.950 . S
H205 C217 0.950 . S
C206 H198 0.950 . S
C206 C207 1.386 . S
C206 C208 1.391 . S
C207 C206 1.386 . S
C207 C211 1.393 . S
C208 H200 0.950 . S
C208 C206 1.391 . S
C208 C209 1.400 . S
C209 C208 1.400 . S
C209 C210 1.398 . S
C209 C215 1.491 . S
C210 H201 0.950 . S
C210 C209 1.398 . S
C210 C211 1.391 . S
C211 H199 0.950 . S
C211 C207 1.393 . S
C211 C210 1.391 . S
C212 H202 0.950 . S
C212 C213 1.386 . S
C212 C214 1.391 . S
C213 C212 1.386 . S
C213 C217 1.393 . S
C214 H203 0.950 . S
C214 C212 1.391 . S
C214 C215 1.400 . S
C215 C209 1.491 . S
C215 C214 1.400 . S
C215 C216 1.398 . S
C216 H204 0.950 . S
C216 C215 1.398 . S
C216 C217 1.391 . S
C217 H205 0.950 . S
C217 C213 1.393 . S
C217 C216 1.391 . S
H218 C226 0.950 . S
H219 C231 0.950 . S
H220 C228 0.950 . S
H221 C230 0.950 . S
H222 C232 0.950 . S
H223 C234 0.950 . S
H224 C236 0.950 . S
H225 C237 0.950 . S
C226 H218 0.950 . S
C226 C227 1.386 . S
C226 C228 1.391 . S
C227 C226 1.386 . S
C227 C231 1.393 . S
C228 H220 0.950 . S
C228 C226 1.391 . S
C228 C229 1.400 . S
C229 C228 1.400 . S
C229 C230 1.398 . S
C229 C235 1.491 . S
C230 H221 0.950 . S
C230 C229 1.398 . S
C230 C231 1.391 . S
C231 H219 0.950 . S
C231 C227 1.393 . S
C231 C230 1.391 . S
C232 H222 0.950 . S
C232 C233 1.386 . S
C232 C234 1.391 . S
C233 C232 1.386 . S
C233 C237 1.393 . S
C234 H223 0.950 . S
C234 C232 1.391 . S
C234 C235 1.400 . S
C235 C229 1.491 . S
C235 C234 1.400 . S
C235 C236 1.398 . S
C236 H224 0.950 . S
C236 C235 1.398 . S
C236 C237 1.391 . S
C237 H225 0.950 . S
C237 C233 1.393 . S
C237 C236 1.391 . S
H238 C246 0.950 . S
H239 C251 0.950 . S
H240 C248 0.950 . S
H241 C250 0.950 . S
H242 C252 0.947 1_545 S
H243 C254 0.950 . S
H244 C256 0.950 . S
H245 C257 0.950 . S
C246 H238 0.950 . S
C246 C247 1.386 . S
C246 C248 1.391 . S
C247 C246 1.386 . S
C247 C251 1.393 . S
C248 H240 0.950 . S
C248 C246 1.391 . S
C248 C249 1.400 . S
C249 C248 1.400 . S
C249 C250 1.398 . S
C249 C255 1.491 . S
C250 H241 0.950 . S
C250 C249 1.398 . S
C250 C251 1.391 . S
C251 H239 0.950 . S
C251 C247 1.393 . S
C251 C250 1.391 . S
C252 H242 0.947 1_565 S
C252 C253 1.382 . S
C252 C254 1.398 . S
C253 C252 1.382 . S
C253 C257 1.393 . S
C254 H243 0.950 . S
C254 C252 1.398 . S
C254 C255 1.400 . S
C255 C249 1.491 . S
C255 C254 1.400 . S
C255 C256 1.398 . S
C256 H244 0.950 . S
C256 C255 1.398 . S
C256 C257 1.391 . S
C257 H245 0.950 . S
C257 C253 1.393 . S
C257 C256 1.391 . S
H258 C266 0.950 . S
H259 C271 0.950 . S
H260 C268 0.950 . S
H261 C270 0.950 . S
H262 C272 0.950 . S
H263 C274 0.950 . S
H264 C276 0.950 . S
H265 C277 0.950 . S
C266 H258 0.950 . S
C266 C267 1.386 . S
C266 C268 1.391 . S
C267 C266 1.386 . S
C267 C271 1.393 . S
C268 H260 0.950 . S
C268 C266 1.391 . S
C268 C269 1.400 . S
C269 C268 1.400 . S
C269 C270 1.398 . S
C269 C275 1.491 . S
C270 H261 0.950 . S
C270 C269 1.398 . S
C270 C271 1.391 . S
C271 H259 0.950 . S
C271 C267 1.393 . S
C271 C270 1.391 . S
C272 H262 0.950 . S
C272 C273 1.386 . S
C272 C274 1.391 . S
C273 C272 1.386 . S
C273 C277 1.393 . S
C274 H263 0.950 . S
C274 C272 1.391 . S
C274 C275 1.400 . S
C275 C269 1.491 . S
C275 C274 1.400 . S
C275 C276 1.398 . S
C276 H264 0.950 . S
C276 C275 1.398 . S
C276 C277 1.391 . S
C277 H265 0.950 . S
C277 C273 1.393 . S
C277 C276 1.391 . S
H278 C286 0.950 . S
H279 C291 0.950 . S
H280 C288 0.950 . S
H281 C290 0.950 . S
H282 C292 0.950 . S
H283 C294 0.950 . S
H284 C296 0.950 . S
H285 C297 0.950 . S
C286 H278 0.950 . S
C286 C287 1.386 . S
C286 C288 1.391 . S
C287 C286 1.386 . S
C287 C291 1.393 . S
C288 H280 0.950 . S
C288 C286 1.391 . S
C288 C289 1.400 . S
C289 C288 1.400 . S
C289 C290 1.398 . S
C289 C295 1.491 . S
C290 H281 0.950 . S
C290 C289 1.398 . S
C290 C291 1.391 . S
C291 H279 0.950 . S
C291 C287 1.393 . S
C291 C290 1.391 . S
C292 H282 0.950 . S
C292 C293 1.386 . S
C292 C294 1.391 . S
C293 C292 1.386 . S
C293 C297 1.393 . S
C294 H283 0.950 . S
C294 C292 1.391 . S
C294 C295 1.400 . S
C295 C289 1.491 . S
C295 C294 1.400 . S
C295 C296 1.398 . S
C296 H284 0.950 . S
C296 C295 1.398 . S
C296 C297 1.391 . S
C297 H285 0.950 . S
C297 C293 1.393 . S
C297 C296 1.391 . S
H298 C306 0.950 . S
H299 C311 0.950 . S
H300 C308 0.950 . S
H301 C310 0.950 . S
H302 C312 0.950 . S
H303 C314 0.950 . S
H304 C316 0.950 . S
H305 C317 0.950 . S
C306 H298 0.950 . S
C306 C307 1.386 . S
C306 C308 1.391 . S
C307 C306 1.386 . S
C307 C311 1.393 . S
C308 H300 0.950 . S
C308 C306 1.391 . S
C308 C309 1.400 . S
C309 C308 1.400 . S
C309 C310 1.398 . S
C309 C315 1.491 . S
C310 H301 0.950 . S
C310 C309 1.398 . S
C310 C311 1.391 . S
C311 H299 0.950 . S
C311 C307 1.393 . S
C311 C310 1.391 . S
C312 H302 0.950 . S
C312 C313 1.386 . S
C312 C314 1.391 . S
C313 C312 1.386 . S
C313 C317 1.393 . S
C314 H303 0.950 . S
C314 C312 1.391 . S
C314 C315 1.400 . S
C315 C309 1.491 . S
C315 C314 1.400 . S
C315 C316 1.398 . S
C316 H304 0.950 . S
C316 C315 1.398 . S
C316 C317 1.391 . S
C317 H305 0.950 . S
C317 C313 1.393 . S
C317 C316 1.391 . S
H318 C326 0.950 . S
H319 C331 0.950 . S
H320 C328 0.950 . S
H321 C330 0.950 . S
H322 C332 0.950 . S
H323 C334 0.950 . S
H324 C336 0.950 . S
H325 C337 0.950 . S
C326 H318 0.950 . S
C326 C327 1.386 . S
C326 C328 1.391 . S
C327 C326 1.386 . S
C327 C331 1.393 . S
C328 H320 0.950 . S
C328 C326 1.391 . S
C328 C329 1.400 . S
C329 C328 1.400 . S
C329 C330 1.398 . S
C329 C335 1.491 . S
C330 H321 0.950 . S
C330 C329 1.398 . S
C330 C331 1.391 . S
C331 H319 0.950 . S
C331 C327 1.393 . S
C331 C330 1.391 . S
C332 H322 0.950 . S
C332 C333 1.386 . S
C332 C334 1.391 . S
C333 C332 1.386 . S
C333 C337 1.393 . S
C334 H323 0.950 . S
C334 C332 1.391 . S
C334 C335 1.400 . S
C335 C329 1.491 . S
C335 C334 1.400 . S
C335 C336 1.398 . S
C336 H324 0.950 . S
C336 C335 1.398 . S
C336 C337 1.391 . S
C337 H325 0.950 . S
C337 C333 1.393 . S
C337 C336 1.391 . S
H338 C346 0.950 . S
H339 C351 0.950 . S
H340 C348 0.950 . S
H341 C350 0.950 . S
H342 C352 0.950 . S
H343 C354 0.950 . S
H344 C356 0.950 . S
H345 C357 0.950 . S
C346 H338 0.950 . S
C346 C347 1.386 . S
C346 C348 1.391 . S
C347 C346 1.386 . S
C347 C351 1.393 . S
C348 H340 0.950 . S
C348 C346 1.391 . S
C348 C349 1.400 . S
C349 C348 1.400 . S
C349 C350 1.398 . S
C349 C355 1.491 . S
C350 H341 0.950 . S
C350 C349 1.398 . S
C350 C351 1.391 . S
C351 H339 0.950 . S
C351 C347 1.393 . S
C351 C350 1.391 . S
C352 H342 0.950 . S
C352 C353 1.386 . S
C352 C354 1.391 . S
C353 C352 1.386 . S
C353 C357 1.393 . S
C354 H343 0.950 . S
C354 C352 1.391 . S
C354 C355 1.400 . S
C355 C349 1.491 . S
C355 C354 1.400 . S
C355 C356 1.398 . S
C356 H344 0.950 . S
C356 C355 1.398 . S
C356 C357 1.391 . S
C357 H345 0.950 . S
C357 C353 1.393 . S
C357 C356 1.391 . S
H358 C366 0.950 . S
H359 C371 0.950 . S
H360 C368 0.950 . S
H361 C370 0.950 . S
H362 C372 0.950 . S
H363 C374 0.950 . S
H364 C376 0.950 . S
H365 C377 0.950 . S
C366 H358 0.950 . S
C366 C367 1.386 . S
C366 C368 1.391 . S
C367 C366 1.386 . S
C367 C371 1.393 . S
C368 H360 0.950 . S
C368 C366 1.391 . S
C368 C369 1.400 . S
C369 C368 1.400 . S
C369 C370 1.398 . S
C369 C375 1.491 . S
C370 H361 0.950 . S
C370 C369 1.398 . S
C370 C371 1.391 . S
C371 H359 0.950 . S
C371 C367 1.393 . S
C371 C370 1.391 . S
C372 H362 0.950 . S
C372 C373 1.386 . S
C372 C374 1.391 . S
C373 C372 1.386 . S
C373 C377 1.393 . S
C374 H363 0.950 . S
C374 C372 1.391 . S
C374 C375 1.400 . S
C375 C369 1.491 . S
C375 C374 1.400 . S
C375 C376 1.398 . S
C376 H364 0.950 . S
C376 C375 1.398 . S
C376 C377 1.391 . S
C377 H365 0.950 . S
C377 C373 1.393 . S
C377 C376 1.391 . S
H378 C386 0.950 . S
H379 C391 0.950 . S
H380 C388 0.950 . S
H381 C390 0.950 . S
H382 C392 0.950 . S
H383 C394 0.950 . S
H384 C396 0.950 . S
H385 C397 0.950 . S
C386 H378 0.950 . S
C386 C387 1.386 . S
C386 C388 1.391 . S
C387 C386 1.386 . S
C387 C391 1.393 . S
C388 H380 0.950 . S
C388 C386 1.391 . S
C388 C389 1.400 . S
C389 C388 1.400 . S
C389 C390 1.398 . S
C389 C395 1.491 . S
C390 H381 0.950 . S
C390 C389 1.398 . S
C390 C391 1.391 . S
C391 H379 0.950 . S
C391 C387 1.393 . S
C391 C390 1.391 . S
C392 H382 0.950 . S
C392 C393 1.386 . S
C392 C394 1.391 . S
C393 C392 1.386 . S
C393 C397 1.393 . S
C394 H383 0.950 . S
C394 C392 1.391 . S
C394 C395 1.400 . S
C395 C389 1.491 . S
C395 C394 1.400 . S
C395 C396 1.398 . S
C396 H384 0.950 . S
C396 C395 1.398 . S
C396 C397 1.391 . S
C397 H385 0.950 . S
C397 C393 1.393 . S
C397 C396 1.391 . S
H398 C406 0.950 . S
H399 C411 0.950 . S
H400 C408 0.950 . S
H401 C410 0.950 . S
H402 C412 0.950 . S
H403 C414 0.950 . S
H404 C416 0.950 . S
H405 C417 0.950 . S
C406 H398 0.950 . S
C406 C407 1.386 . S
C406 C408 1.391 . S
C407 C406 1.386 . S
C407 C411 1.393 . S
C408 H400 0.950 . S
C408 C406 1.391 . S
C408 C409 1.400 . S
C409 C408 1.400 . S
C409 C410 1.398 . S
C409 C415 1.491 . S
C410 H401 0.950 . S
C410 C409 1.398 . S
C410 C411 1.391 . S
C411 H399 0.950 . S
C411 C407 1.393 . S
C411 C410 1.391 . S
C412 H402 0.950 . S
C412 C413 1.386 . S
C412 C414 1.391 . S
C413 C412 1.386 . S
C413 C417 1.393 . S
C414 H403 0.950 . S
C414 C412 1.391 . S
C414 C415 1.400 . S
C415 C409 1.491 . S
C415 C414 1.400 . S
C415 C416 1.398 . S
C416 H404 0.950 . S
C416 C415 1.398 . S
C416 C417 1.391 . S
C417 H405 0.950 . S
C417 C413 1.393 . S
C417 C416 1.391 . S
H418 C426 0.950 . S
H419 C431 0.950 . S
H420 C428 0.950 . S
H421 C430 0.950 . S
H422 C432 0.950 . S
H423 C434 0.950 . S
H424 C436 0.950 . S
H425 C437 0.950 . S
C426 H418 0.950 . S
C426 C427 1.386 . S
C426 C428 1.391 . S
C427 C426 1.386 . S
C427 C431 1.393 . S
C428 H420 0.950 . S
C428 C426 1.391 . S
C428 C429 1.400 . S
C429 C428 1.400 . S
C429 C430 1.398 . S
C429 C435 1.491 . S
C430 H421 0.950 . S
C430 C429 1.398 . S
C430 C431 1.391 . S
C431 H419 0.950 . S
C431 C427 1.393 . S
C431 C430 1.391 . S
C432 H422 0.950 . S
C432 C433 1.386 . S
C432 C434 1.391 . S
C433 C432 1.386 . S
C433 C437 1.393 . S
C434 H423 0.950 . S
C434 C432 1.391 . S
C434 C435 1.400 . S
C435 C429 1.491 . S
C435 C434 1.400 . S
C435 C436 1.398 . S
C436 H424 0.950 . S
C436 C435 1.398 . S
C436 C437 1.391 . S
C437 H425 0.950 . S
C437 C433 1.393 . S
C437 C436 1.391 . S
H438 C446 0.938 . S
H439 C451 0.950 . S
H440 C448 0.950 . S
H441 C450 0.950 . S
H442 C452 0.950 . S
H443 C454 0.950 . S
H444 C456 0.950 . S
H445 C457 0.950 . S
C446 H438 0.938 . S
C446 C447 1.386 . S
C446 C448 1.391 . S
C447 C446 1.386 . S
C447 C451 1.393 . S
C448 H440 0.950 . S
C448 C446 1.391 . S
C448 C449 1.400 . S
C449 C448 1.400 . S
C449 C450 1.398 . S
C449 C455 1.491 1_554 S
C450 H441 0.950 . S
C450 C449 1.398 . S
C450 C451 1.391 . S
C451 H439 0.950 . S
C451 C447 1.393 . S
C451 C450 1.391 . S
C452 H442 0.950 . S
C452 C453 1.386 . S
C452 C454 1.391 . S
C453 C452 1.386 . S
C453 C457 1.393 . S
C454 H443 0.950 . S
C454 C452 1.391 . S
C454 C455 1.400 . S
C455 C449 1.491 1_556 S
C455 C454 1.400 . S
C455 C456 1.398 . S
C456 H444 0.950 . S
C456 C455 1.398 . S
C456 C457 1.391 . S
C457 H445 0.950 . S
C457 C453 1.393 . S
C457 C456 1.391 . S
H458 C466 0.950 1_565 S
H459 C471 0.950 . S
H460 C468 0.949 1_565 S
H461 C470 0.950 . S
H462 C472 0.950 . S
H463 C474 0.950 . S
H464 C476 0.950 . S
H465 C477 0.950 . S
C466 H458 0.950 1_545 S
C466 C467 1.386 . S
C466 C468 1.391 . S
C467 C466 1.386 . S
C467 C471 1.393 . S
C468 H460 0.949 1_545 S
C468 C466 1.391 . S
C468 C469 1.402 . S
C469 C468 1.402 . S
C469 C470 1.398 . S
C469 C475 1.491 . S
C470 H461 0.950 . S
C470 C469 1.398 . S
C470 C471 1.391 . S
C471 H459 0.950 . S
C471 C467 1.393 . S
C471 C470 1.391 . S
C472 H462 0.950 . S
C472 C473 1.386 . S
C472 C474 1.391 . S
C473 C472 1.386 . S
C473 C477 1.393 1_545 S
C474 H463 0.950 . S
C474 C472 1.391 . S
C474 C475 1.400 . S
C475 C469 1.491 . S
C475 C474 1.400 . S
C475 C476 1.398 1_545 S
C476 H464 0.950 . S
C476 C475 1.398 1_565 S
C476 C477 1.391 . S
C477 H465 0.950 . S
C477 C473 1.393 1_565 S
C477 C476 1.391 . S
H478 C486 0.950 . S
H479 C491 0.950 . S
H480 C488 0.950 . S
H481 C490 0.950 . S
H482 C492 0.950 . S
H483 C494 0.950 . S
H484 C496 0.950 . S
H485 C497 0.950 . S
C486 H478 0.950 . S
C486 C487 1.386 . S
C486 C488 1.391 . S
C487 C486 1.386 . S
C487 C491 1.393 . S
C488 H480 0.950 . S
C488 C486 1.391 . S
C488 C489 1.400 . S
C489 C488 1.400 . S
C489 C490 1.398 . S
C489 C495 1.491 . S
C490 H481 0.950 . S
C490 C489 1.398 . S
C490 C491 1.391 . S
C491 H479 0.950 . S
C491 C487 1.393 . S
C491 C490 1.391 . S
C492 H482 0.950 . S
C492 C493 1.386 . S
C492 C494 1.391 . S
C493 C492 1.386 . S
C493 C497 1.393 . S
C494 H483 0.950 . S
C494 C492 1.391 . S
C494 C495 1.400 . S
C495 C489 1.491 . S
C495 C494 1.400 . S
C495 C496 1.398 . S
C496 H484 0.950 . S
C496 C495 1.398 . S
C496 C497 1.391 . S
C497 H485 0.950 . S
C497 C493 1.393 . S
C497 C496 1.391 . S
H498 C506 0.950 . S
H499 C511 0.950 . S
H500 C508 0.950 . S
H501 C510 0.950 . S
H502 C512 0.950 . S
H503 C514 0.950 . S
H504 C516 0.950 . S
H505 C517 0.950 . S
C506 H498 0.950 . S
C506 C507 1.386 . S
C506 C508 1.391 . S
C507 C506 1.386 . S
C507 C511 1.393 . S
C508 H500 0.950 . S
C508 C506 1.391 . S
C508 C509 1.400 . S
C509 C508 1.400 . S
C509 C510 1.398 . S
C509 C515 1.491 . S
C510 H501 0.950 . S
C510 C509 1.398 . S
C510 C511 1.391 . S
C511 H499 0.950 . S
C511 C507 1.393 . S
C511 C510 1.391 . S
C512 H502 0.950 . S
C512 C513 1.386 . S
C512 C514 1.391 . S
C513 C512 1.386 . S
C513 C517 1.393 . S
C514 H503 0.950 . S
C514 C512 1.391 . S
C514 C515 1.400 . S
C515 C509 1.491 . S
C515 C514 1.400 . S
C515 C516 1.398 . S
C516 H504 0.950 . S
C516 C515 1.398 . S
C516 C517 1.391 . S
C517 H505 0.950 . S
C517 C513 1.393 . S
C517 C516 1.391 . S
H518 C526 0.950 . S
H519 C531 0.950 . S
H520 C528 0.950 . S
H521 C530 0.950 . S
H522 C532 0.950 . S
H523 C534 0.950 . S
H524 C536 0.950 1_556 S
H525 C537 0.950 . S
C526 H518 0.950 . S
C526 C527 1.386 . S
C526 C528 1.391 . S
C527 C526 1.386 . S
C527 C531 1.393 . S
C528 H520 0.950 . S
C528 C526 1.391 . S
C528 C529 1.400 . S
C529 C528 1.400 . S
C529 C530 1.398 . S
C529 C535 1.491 . S
C530 H521 0.950 . S
C530 C529 1.398 . S
C530 C531 1.391 . S
C531 H519 0.950 . S
C531 C527 1.393 . S
C531 C530 1.391 . S
C532 H522 0.950 . S
C532 C533 1.386 . S
C532 C534 1.391 . S
C533 C532 1.386 . S
C533 C537 1.393 . S
C534 H523 0.950 . S
C534 C532 1.391 . S
C534 C535 1.400 1_554 S
C535 C529 1.491 . S
C535 C534 1.400 1_556 S
C535 C536 1.398 1_556 S
C536 H524 0.950 1_554 S
C536 C535 1.398 1_554 S
C536 C537 1.391 . S
C537 H525 0.950 . S
C537 C533 1.393 . S
C537 C536 1.391 . S
H538 C546 0.950 . S
H539 C551 0.950 . S
H540 C548 0.950 . S
H541 C550 0.950 . S
H542 C552 0.950 . S
H543 C554 0.950 . S
H544 C556 0.950 . S
H545 C557 0.950 1_655 S
C546 H538 0.950 . S
C546 C547 1.386 . S
C546 C548 1.391 . S
C547 C546 1.386 . S
C547 C551 1.393 1_655 S
C548 H540 0.950 . S
C548 C546 1.391 . S
C548 C549 1.400 1_655 S
C549 C548 1.400 1_455 S
C549 C550 1.398 . S
C549 C555 1.491 . S
C550 H541 0.950 . S
C550 C549 1.398 . S
C550 C551 1.391 . S
C551 H539 0.950 . S
C551 C547 1.393 1_455 S
C551 C550 1.391 . S
C552 H542 0.950 . S
C552 C553 1.386 . S
C552 C554 1.391 . S
C553 C552 1.386 . S
C553 C557 1.393 . S
C554 H543 0.950 . S
C554 C552 1.391 . S
C554 C555 1.400 . S
C555 C549 1.491 . S
C555 C554 1.400 . S
C555 C556 1.398 1_455 S
C556 H544 0.950 . S
C556 C555 1.398 1_655 S
C556 C557 1.391 1_655 S
C557 H545 0.950 1_455 S
C557 C553 1.393 . S
C557 C556 1.391 1_455 S
C207 C7 0.352 . S
C213 N187 0.278 . S
C227 C51 1.805 . S
C233 N160 1.809 1_655 S
C247 C87 1.174 . S
C253 N173 1.172 1_565 S
C267 C16 0.741 . S
C273 N186 0.725 . S
C293 N161 1.994 . S
C287 C42 1.980 . S
C313 N174 1.359 . S
C307 C96 1.350 . S
C327 C47 1.083 . S
C333 N134 1.077 . S
C347 C91 2.838 . S
C353 N148 2.797 1_655 S
C367 C2 2.007 . S
C373 N122 2.023 . S
C393 N135 1.424 . S
C387 C56 1.382 . S
C413 N147 3.286 . S
C407 C82 3.249 . S
C427 C11 1.812 . S
C433 N121 1.820 . S
C453 N151 1.746 . S
C447 C19 1.723 . S
C467 C50 1.476 . S
C473 N125 1.469 . S
C487 C99 1.490 . S
C493 N138 1.585 . S
C513 N177 1.545 . S
C507 C59 1.471 . S
C533 N190 1.249 . S
C527 C90 1.275 . S
C547 C10 1.440 1_655 S
C553 N164 1.452 . S
