# Generated by pormake.
# Topology anh, (6,3)-cn, num edge types: 1
# Building blocks:
#     Node 0, Type 0, BuildingBlock: MIFKUJ_clean_sbu_0, # of connection points: 6
#     Node 1, Type 0, BuildingBlock: MIFKUJ_clean_sbu_0, # of connection points: 6
#     Node 2, Type 0, BuildingBlock: MIFKUJ_clean_sbu_0, # of connection points: 6
#     Node 3, Type 1, BuildingBlock: KAKCAD_clean_linker_0, # of connection points: 3
#     Node 4, Type 1, BuildingBlock: KAKCAD_clean_linker_0, # of connection points: 3
#     Node 5, Type 1, BuildingBlock: KAKCAD_clean_linker_0, # of connection points: 3
#     Node 6, Type 1, BuildingBlock: KAKCAD_clean_linker_0, # of connection points: 3
#     Node 7, Type 1, BuildingBlock: KAKCAD_clean_linker_0, # of connection points: 3
#     Node 8, Type 1, BuildingBlock: KAKCAD_clean_linker_0, # of connection points: 3
#     Edge 9, Type (0, 1), BuildingBlock: KIFKEQ_clean_linker_1, # of connection points: 2
#     Edge 10, Type (0, 1), BuildingBlock: KIFKEQ_clean_linker_1, # of connection points: 2
#     Edge 11, Type (0, 1), BuildingBlock: KIFKEQ_clean_linker_1, # of connection points: 2
#     Edge 12, Type (0, 1), BuildingBlock: KIFKEQ_clean_linker_1, # of connection points: 2
#     Edge 13, Type (0, 1), BuildingBlock: KIFKEQ_clean_linker_1, # of connection points: 2
#     Edge 14, Type (0, 1), BuildingBlock: KIFKEQ_clean_linker_1, # of connection points: 2
#     Edge 15, Type (0, 1), BuildingBlock: KIFKEQ_clean_linker_1, # of connection points: 2
#     Edge 16, Type (0, 1), BuildingBlock: KIFKEQ_clean_linker_1, # of connection points: 2
#     Edge 17, Type (0, 1), BuildingBlock: KIFKEQ_clean_linker_1, # of connection points: 2
#     Edge 18, Type (0, 1), BuildingBlock: KIFKEQ_clean_linker_1, # of connection points: 2
#     Edge 19, Type (0, 1), BuildingBlock: KIFKEQ_clean_linker_1, # of connection points: 2
#     Edge 20, Type (0, 1), BuildingBlock: KIFKEQ_clean_linker_1, # of connection points: 2
#     Edge 21, Type (0, 1), BuildingBlock: KIFKEQ_clean_linker_1, # of connection points: 2
#     Edge 22, Type (0, 1), BuildingBlock: KIFKEQ_clean_linker_1, # of connection points: 2
#     Edge 23, Type (0, 1), BuildingBlock: KIFKEQ_clean_linker_1, # of connection points: 2
#     Edge 24, Type (0, 1), BuildingBlock: KIFKEQ_clean_linker_1, # of connection points: 2
#     Edge 25, Type (0, 1), BuildingBlock: KIFKEQ_clean_linker_1, # of connection points: 2
#     Edge 26, Type (0, 1), BuildingBlock: KIFKEQ_clean_linker_1, # of connection points: 2
# Relax obj value: 0.134
# Max RMSD: 0.183
# Mean RMSD: 0.144
data_MOF--net-anh--node1-MIFKUJ_clean_sbu_0--node2-KAKCAD_clean_linker_0--edge1-KIFKEQ_clean_linker_1
_symmetry_space_group_name_H-M    P1
_symmetry_Int_Tables_number       1
_symmetry_cell_setting            triclinic
loop_
_symmetry_equiv_pos_as_xyz
'x, y, z'
_cell_length_a     37.766816
_cell_length_b     37.844138
_cell_length_c     65.085029
_cell_angle_alpha  93.880021
_cell_angle_beta   90.742735
_cell_angle_gamma 119.96344
loop_
_atom_site_label
_atom_site_type_symbol
_atom_site_fract_x
_atom_site_fract_y
_atom_site_fract_z
_atom_type_partial_charge
Zn0 Zn 0.03785 0.57292 0.16554 0.0
Zn1 Zn 0.93664 0.48322 0.15959 0.0
C2 C 0.09397 0.5418 0.16945 0.0
O3 O 0.08734 0.54462 0.18909 0.0
C4 C 0.88054 0.50694 0.143 0.0
O5 O 0.88717 0.49206 0.12558 0.0
O6 O 0.07634 0.63342 0.16845 0.0
O7 O 0.996 0.56317 0.14324 0.0
O8 O 0.97219 0.49789 0.13523 0.0
C9 C 0.09606 0.64838 0.15261 0.0
O10 O 0.08849 0.62411 0.13572 0.0
O11 O 0.07435 0.54989 0.15626 0.0
C12 C 0.90124 0.39578 0.16303 0.0
O13 O 0.93472 0.40645 0.1743 0.0
O14 O 0.89684 0.42317 0.15508 0.0
O15 O 0.96216 0.49327 0.18837 0.0
O16 O 0.01789 0.55483 0.19348 0.0
O17 O 0.9001 0.50852 0.15944 0.0
C18 C 0.9889 0.53414 0.12992 0.0
C19 C 0.99049 0.52184 0.20021 0.0
Zn20 Zn 0.54324 0.06382 0.50633 0.0
Zn21 Zn 0.51949 0.95395 0.50326 0.0
C22 C 0.62654 0.11662 0.51332 0.0
O23 O 0.61067 0.12202 0.53027 0.0
C24 C 0.43109 0.89802 0.4926 0.0
O25 O 0.43192 0.92942 0.48466 0.0
O26 O 0.53665 0.11315 0.50759 0.0
O27 O 0.50351 0.0248 0.48373 0.0
O28 O 0.5274 0.98287 0.47725 0.0
C29 C 0.53575 0.12874 0.49103 0.0
O30 O 0.53505 0.10985 0.47321 0.0
O31 O 0.6029 0.08848 0.49965 0.0
C32 C 0.583 0.93579 0.51672 0.0
O33 O 0.58442 0.95496 0.53458 0.0
O34 O 0.55903 0.93331 0.50213 0.0
O35 O 0.52402 0.98142 0.53174 0.0
O36 O 0.53509 0.04492 0.53464 0.0
O37 O 0.46381 0.90216 0.50085 0.0
C38 C 0.51491 0.00605 0.47107 0.0
C39 C 0.52892 0.01283 0.54268 0.0
Zn40 Zn 0.55693 0.50439 0.82691 0.0
Zn41 Zn 0.47129 0.52687 0.8255 0.0
C42 C 0.55652 0.43622 0.8442 0.0
O43 O 0.58408 0.46598 0.85701 0.0
C44 C 0.52225 0.61528 0.82221 0.0
O45 O 0.53267 0.604 0.80487 0.0
O46 O 0.61788 0.53234 0.82606 0.0
O47 O 0.53757 0.50733 0.79864 0.0
O48 O 0.48445 0.51684 0.79682 0.0
C49 C 0.63225 0.5205 0.81132 0.0
O50 O 0.60677 0.49167 0.79746 0.0
O51 O 0.53882 0.44492 0.83029 0.0
C52 C 0.38304 0.48405 0.83205 0.0
O53 O 0.39013 0.46225 0.8446 0.0
O54 O 0.41234 0.51113 0.82274 0.0
O55 O 0.47699 0.49637 0.84854 0.0
O56 O 0.5443 0.52916 0.85221 0.0
O57 O 0.49921 0.58801 0.83383 0.0
C58 C 0.51114 0.51091 0.78819 0.0
C59 C 0.50956 0.51123 0.85997 0.0
C60 C 0.52526 0.0653 0.30908 0.0
C61 C 0.50584 0.02822 0.31834 0.0
C62 C 0.52448 0.06539 0.28762 0.0
C63 C 0.50485 0.02833 0.27498 0.0
C64 C 0.48577 0.99124 0.28439 0.0
C65 C 0.48597 0.99122 0.30583 0.0
C66 C 0.50414 0.02826 0.25211 0.0
C67 C 0.53806 0.05741 0.24225 0.0
C68 C 0.53744 0.05742 0.22066 0.0
C69 C 0.50259 0.02776 0.2088 0.0
C70 C 0.46872 0.99829 0.21841 0.0
C71 C 0.46954 0.99882 0.23998 0.0
C72 C 0.43234 0.96637 0.20609 0.0
C73 C 0.41106 0.97692 0.19221 0.0
C74 C 0.41769 0.92503 0.20893 0.0
C75 C 0.38192 0.89463 0.19833 0.0
C76 C 0.35983 0.90509 0.18492 0.0
C77 C 0.57339 0.0885 0.21062 0.0
C78 C 0.592 0.12989 0.21801 0.0
C79 C 0.58976 0.07704 0.1939 0.0
C80 C 0.62458 0.10649 0.18495 0.0
C81 C 0.64317 0.1479 0.19239 0.0
C82 C 0.62644 0.15931 0.20894 0.0
C83 C 0.37474 0.94646 0.18184 0.0
H84 H 0.54055 0.09423 0.31847 0.0
H85 H 0.53886 0.09455 0.28097 0.0
H86 H 0.47112 0.96209 0.27522 0.0
H87 H 0.47127 0.96222 0.31265 0.0
H88 H 0.56548 0.0796 0.25131 0.0
H89 H 0.4427 0.97658 0.24726 0.0
H90 H 0.50184 0.0275 0.19213 0.0
H91 H 0.42185 0.00873 0.18989 0.0
H92 H 0.43376 0.91629 0.21954 0.0
H93 H 0.37078 0.86297 0.20113 0.0
H94 H 0.57981 0.13953 0.2308 0.0
H95 H 0.57608 0.04523 0.18803 0.0
H96 H 0.35816 0.95516 0.17156 0.0
H97 H 0.64044 0.19097 0.21513 0.0
H98 H 0.63683 0.09697 0.17215 0.0
C99 C 0.53275 0.5444 0.62279 0.0
C100 C 0.55161 0.5301 0.63604 0.0
C101 C 0.54373 0.55034 0.60235 0.0
C102 C 0.57377 0.54208 0.59477 0.0
C103 C 0.59276 0.52803 0.60807 0.0
C104 C 0.58181 0.52212 0.62846 0.0
C105 C 0.58518 0.54771 0.57303 0.0
C106 C 0.5906 0.58226 0.56371 0.0
C107 C 0.60198 0.58778 0.54321 0.0
C108 C 0.60781 0.55837 0.53189 0.0
C109 C 0.60196 0.52335 0.54096 0.0
C110 C 0.59072 0.51835 0.56151 0.0
C111 C 0.60561 0.49069 0.52906 0.0
C112 C 0.58578 0.47481 0.50945 0.0
C113 C 0.62541 0.47228 0.53827 0.0
C114 C 0.62306 0.43704 0.52876 0.0
C115 C 0.60107 0.41948 0.50972 0.0
C116 C 0.60727 0.62436 0.53382 0.0
C117 C 0.57538 0.63319 0.53399 0.0
C118 C 0.64479 0.6519 0.52596 0.0
C119 C 0.65082 0.6887 0.51913 0.0
C120 C 0.61909 0.69788 0.5197 0.0
C121 C 0.58113 0.66948 0.52686 0.0
C122 C 0.58348 0.43945 0.49986 0.0
H123 H 0.50908 0.55044 0.62812 0.0
H124 H 0.52822 0.56073 0.59238 0.0
H125 H 0.61651 0.52207 0.60278 0.0
H126 H 0.59751 0.51187 0.6384 0.0
H127 H 0.58683 0.60543 0.57252 0.0
H128 H 0.58502 0.49081 0.5684 0.0
H129 H 0.61643 0.56254 0.51603 0.0
H130 H 0.57019 0.4884 0.50203 0.0
H131 H 0.64134 0.4842 0.55328 0.0
H132 H 0.63661 0.42236 0.53696 0.0
H133 H 0.54621 0.61228 0.53999 0.0
H134 H 0.66983 0.64565 0.52583 0.0
H135 H 0.5668 0.42699 0.48506 0.0
H136 H 0.55634 0.67605 0.5277 0.0
H137 H 0.68032 0.71018 0.51367 0.0
C138 C 0.07028 0.59428 0.97039 0.0
C139 C 0.03237 0.57531 0.9795 0.0
C140 C 0.07199 0.59489 0.94897 0.0
C141 C 0.03579 0.57602 0.93624 0.0
C142 C 0.99789 0.55714 0.94548 0.0
C143 C 0.99623 0.55704 0.96687 0.0
C144 C 0.03732 0.57473 0.9134 0.0
C145 C 0.06685 0.56848 0.90353 0.0
C146 C 0.06669 0.56438 0.88191 0.0
C147 C 0.03684 0.56683 0.87005 0.0
C148 C 0.00712 0.57289 0.87968 0.0
C149 C 0.0078 0.57731 0.90127 0.0
C150 C 0.97329 0.5713 0.86732 0.0
C151 C 0.98097 0.59647 0.8511 0.0
C152 C 0.93277 0.54398 0.87176 0.0
C153 C 0.90036 0.54184 0.86023 0.0
C154 C 0.90784 0.56731 0.84419 0.0
C155 C 0.09625 0.555 0.87188 0.0
C156 C 0.13787 0.57742 0.87831 0.0
C157 C 0.08275 0.52228 0.85658 0.0
C158 C 0.11029 0.51152 0.84823 0.0
C159 C 0.15183 0.53361 0.85489 0.0
C160 C 0.16543 0.56693 0.86984 0.0
C161 C 0.94838 0.59482 0.83974 0.0
H162 H 0.09858 0.60885 0.97985 0.0
H163 H 0.10168 0.61022 0.9424 0.0
H164 H 0.96939 0.54147 0.9362 0.0
H165 H 0.9666 0.54167 0.97352 0.0
H166 H 0.08886 0.56481 0.91263 0.0
H167 H 0.98495 0.58246 0.90858 0.0
H168 H 0.03606 0.56292 0.85336 0.0
H169 H 0.01209 0.61777 0.84746 0.0
H170 H 0.92617 0.52406 0.88409 0.0
H171 H 0.86934 0.52074 0.86412 0.0
H172 H 0.14901 0.60285 0.89004 0.0
H173 H 0.0507 0.50428 0.8515 0.0
H174 H 0.95476 0.61476 0.82744 0.0
H175 H 0.19723 0.58421 0.87541 0.0
H176 H 0.09911 0.48583 0.83665 0.0
C177 C 0.97359 0.48718 0.36518 0.0
C178 C 0.00355 0.48906 0.352 0.0
C179 C 0.97797 0.48519 0.38635 0.0
C180 C 0.01269 0.48569 0.39473 0.0
C181 C 0.04251 0.48732 0.38154 0.0
C182 C 0.03784 0.48869 0.36034 0.0
C183 C 0.01839 0.48563 0.41727 0.0
C184 C 0.98687 0.457 0.42843 0.0
C185 C 0.99223 0.45676 0.4498 0.0
C186 C 0.02951 0.48628 0.46016 0.0
C187 C 0.06124 0.51565 0.44911 0.0
C188 C 0.05539 0.51468 0.42767 0.0
C189 C 0.10006 0.54888 0.45954 0.0
C190 C 0.09962 0.57382 0.47641 0.0
C191 C 0.13761 0.55905 0.45096 0.0
C192 C 0.17353 0.59458 0.45827 0.0
C193 C 0.17288 0.62093 0.47438 0.0
C194 C 0.95853 0.42485 0.46081 0.0
C195 C 0.91886 0.41894 0.45852 0.0
C196 C 0.96469 0.39742 0.47172 0.0
C197 C 0.93139 0.36366 0.47945 0.0
C198 C 0.89151 0.35721 0.47671 0.0
C199 C 0.88576 0.38568 0.46651 0.0
C200 C 0.13566 0.60959 0.48372 0.0
H201 H 0.94677 0.4872 0.35908 0.0
H202 H 0.95468 0.48417 0.39624 0.0
H203 H 0.06944 0.48751 0.38764 0.0
H204 H 0.06149 0.4904 0.35052 0.0
H205 H 0.95838 0.43412 0.42036 0.0
H206 H 0.07927 0.53763 0.41908 0.0
H207 H 0.03369 0.48653 0.47668 0.0
H208 H 0.07108 0.56685 0.48325 0.0
H209 H 0.13891 0.54026 0.438 0.0
H210 H 0.20144 0.60238 0.45057 0.0
H211 H 0.91333 0.43962 0.4501 0.0
H212 H 0.99496 0.40114 0.4735 0.0
H213 H 0.13417 0.62889 0.49635 0.0
H214 H 0.8554 0.38139 0.46402 0.0
H215 H 0.93673 0.34235 0.48739 0.0
C216 C 0.50867 0.97893 0.70806 0.0
C217 C 0.53217 0.01456 0.69803 0.0
C218 C 0.50984 0.98048 0.72959 0.0
C219 C 0.53502 0.0176 0.74156 0.0
C220 C 0.559 0.05308 0.7314 0.0
C221 C 0.55734 0.05162 0.70989 0.0
C222 C 0.53613 0.01945 0.76452 0.0
C223 C 0.53356 0.98699 0.7749 0.0
C224 C 0.53456 0.98849 0.79655 0.0
C225 C 0.53864 0.02337 0.80803 0.0
C226 C 0.54143 0.05627 0.79784 0.0
C227 C 0.53985 0.05382 0.77619 0.0
C228 C 0.54557 0.09354 0.80928 0.0
C229 C 0.51651 0.09095 0.82326 0.0
C230 C 0.57626 0.13231 0.80437 0.0
C231 C 0.57695 0.16772 0.81255 0.0
C232 C 0.54675 0.16526 0.82574 0.0
C233 C 0.532 0.95335 0.80666 0.0
C234 C 0.50085 0.91339 0.80017 0.0
C235 C 0.56279 0.95887 0.82104 0.0
C236 C 0.56354 0.92489 0.82792 0.0
C237 C 0.53317 0.88484 0.82077 0.0
C238 C 0.50131 0.87957 0.8072 0.0
C239 C 0.51692 0.12651 0.83132 0.0
H240 H 0.48874 0.95004 0.69924 0.0
H241 H 0.49043 0.95267 0.73683 0.0
H242 H 0.57944 0.08203 0.74003 0.0
H243 H 0.57617 0.07942 0.7025 0.0
H244 H 0.53178 0.9607 0.76614 0.0
H245 H 0.54065 0.07863 0.76842 0.0
H246 H 0.53967 0.02491 0.82473 0.0
H247 H 0.49236 0.06138 0.82717 0.0
H248 H 0.59903 0.13512 0.79362 0.0
H249 H 0.60011 0.19695 0.80775 0.0
H250 H 0.47674 0.90832 0.7891 0.0
H251 H 0.5873 0.98937 0.82616 0.0
H252 H 0.49345 0.12364 0.84159 0.0
H253 H 0.47768 0.84923 0.80122 0.0
H254 H 0.58832 0.92993 0.83849 0.0
C255 C 0.4952 0.48209 0.02577 0.0
C256 C 0.49033 0.50978 0.01438 0.0
C257 C 0.49313 0.48389 0.04722 0.0
C258 C 0.48564 0.51307 0.05764 0.0
C259 C 0.48018 0.54033 0.0462 0.0
C260 C 0.48267 0.53882 0.02481 0.0
C261 C 0.48452 0.51597 0.08043 0.0
C262 C 0.51521 0.51608 0.09275 0.0
C263 C 0.51586 0.52141 0.11431 0.0
C264 C 0.48497 0.52626 0.12374 0.0
C265 C 0.45347 0.52572 0.1115 0.0
C266 C 0.45365 0.52031 0.08989 0.0
C267 C 0.41993 0.53056 0.12067 0.0
C268 C 0.3997 0.5097 0.13775 0.0
C269 C 0.40547 0.55352 0.11106 0.0
C270 C 0.37028 0.55347 0.11741 0.0
C271 C 0.34885 0.53101 0.13377 0.0
C272 C 0.5506 0.52364 0.12624 0.0
C273 C 0.55256 0.48792 0.12808 0.0
C274 C 0.58549 0.56183 0.13174 0.0
C275 C 0.62242 0.56433 0.1379 0.0
C276 C 0.62507 0.52864 0.13874 0.0
C277 C 0.58933 0.49035 0.13444 0.0
C278 C 0.36455 0.51006 0.14429 0.0
H279 H 0.50138 0.45956 0.01812 0.0
H280 H 0.49725 0.46238 0.05567 0.0
H281 H 0.47473 0.56338 0.05385 0.0
H282 H 0.47844 0.56029 0.0164 0.0
H283 H 0.5396 0.51338 0.08555 0.0
H284 H 0.42926 0.51891 0.08027 0.0
H285 H 0.48582 0.53094 0.14039 0.0
H286 H 0.40991 0.49164 0.14546 0.0
H287 H 0.42086 0.57088 0.09822 0.0
H288 H 0.35949 0.57068 0.10931 0.0
H289 H 0.52623 0.45819 0.12346 0.0
H290 H 0.58483 0.58978 0.13002 0.0
H291 H 0.34867 0.49254 0.157 0.0
H292 H 0.59037 0.4623 0.1347 0.0
H293 H 0.64931 0.59425 0.14126 0.0
H294 H 0.13331 0.55797 0.13327 0.0
H295 H 0.13141 0.50989 0.19179 0.0
H296 H 0.19359 0.5534 0.12487 0.0
H297 H 0.19055 0.50343 0.18307 0.0
H298 H 0.3244 0.54253 0.17193 0.0
H299 H 0.26132 0.54227 0.18009 0.0
H300 H 0.22061 0.51153 0.11563 0.0
H301 H 0.28434 0.5136 0.10757 0.0
C302 C 0.14526 0.54559 0.14417 0.0
C303 C 0.12757 0.5344 0.16322 0.0
C304 C 0.17989 0.54281 0.13933 0.0
C305 C 0.19743 0.52821 0.1533 0.0
C306 C 0.1787 0.51569 0.17207 0.0
C307 C 0.14444 0.51901 0.17701 0.0
C308 C 0.30178 0.53553 0.15958 0.0
C309 C 0.30948 0.52848 0.13911 0.0
C310 C 0.26544 0.53515 0.16422 0.0
C311 C 0.23559 0.52707 0.14853 0.0
C312 C 0.24304 0.51887 0.12811 0.0
C313 C 0.27956 0.51984 0.12347 0.0
H314 H 0.66796 0.1224 0.47799 0.0
H315 H 0.68167 0.18096 0.53925 0.0
H316 H 0.73479 0.17915 0.47014 0.0
H317 H 0.74786 0.23719 0.53137 0.0
H318 H 0.82839 0.35359 0.49817 0.0
H319 H 0.76698 0.29274 0.50764 0.0
H320 H 0.81155 0.21623 0.48025 0.0
H321 H 0.87319 0.2774 0.47066 0.0
C322 C 0.68544 0.14692 0.48988 0.0
C323 C 0.66925 0.14725 0.50918 0.0
C324 C 0.72372 0.17938 0.48539 0.0
C325 C 0.7463 0.21287 0.50007 0.0
C326 C 0.73089 0.21217 0.51963 0.0
C327 C 0.69297 0.17975 0.52416 0.0
C328 C 0.82517 0.3238 0.49425 0.0
C329 C 0.85561 0.32027 0.48371 0.0
C330 C 0.79014 0.28896 0.49978 0.0
C331 C 0.78447 0.24968 0.49472 0.0
C332 C 0.81501 0.24608 0.48427 0.0
C333 C 0.8504 0.28107 0.47897 0.0
H334 H 0.49332 0.64646 0.85261 0.0
H335 H 0.57112 0.68118 0.80093 0.0
H336 H 0.50024 0.7143 0.85608 0.0
H337 H 0.57763 0.74869 0.80428 0.0
H338 H 0.60087 0.87607 0.82145 0.0
H339 H 0.60356 0.81373 0.82558 0.0
H340 H 0.47398 0.74878 0.83518 0.0
H341 H 0.47152 0.81123 0.83153 0.0
C342 C 0.51243 0.66872 0.84219 0.0
C343 C 0.53139 0.65819 0.82637 0.0
C344 C 0.51616 0.70754 0.8441 0.0
C345 C 0.53918 0.73685 0.83035 0.0
C346 C 0.55992 0.72702 0.81525 0.0
C347 C 0.55601 0.68816 0.81326 0.0
C348 C 0.57317 0.84872 0.82493 0.0
C349 C 0.53592 0.84857 0.82605 0.0
C350 C 0.57463 0.81289 0.82709 0.0
C351 C 0.53895 0.77615 0.83056 0.0
C352 C 0.50213 0.77656 0.83268 0.0
C353 C 0.50062 0.81228 0.8304 0.0
H354 H 0.84181 0.51869 0.11068 0.0
H355 H 0.84313 0.51695 0.17697 0.0
H356 H 0.78252 0.52821 0.11138 0.0
H357 H 0.78353 0.52632 0.17762 0.0
H358 H 0.64446 0.48338 0.16298 0.0
H359 H 0.70899 0.48293 0.16526 0.0
H360 H 0.76129 0.57871 0.1238 0.0
H361 H 0.69683 0.57893 0.12137 0.0
C362 C 0.82974 0.52078 0.12544 0.0
C363 C 0.84722 0.51698 0.14376 0.0
C364 C 0.79583 0.52641 0.12584 0.0
C365 C 0.77822 0.52789 0.14456 0.0
C366 C 0.7962 0.52497 0.16295 0.0
C367 C 0.83051 0.51989 0.16258 0.0
C368 C 0.66987 0.50457 0.15451 0.0
C369 C 0.66547 0.53118 0.142 0.0
C370 C 0.70692 0.50452 0.15592 0.0
C371 C 0.74022 0.53069 0.14464 0.0
C372 C 0.73612 0.55797 0.13255 0.0
C373 C 0.69929 0.55836 0.13133 0.0
H374 H 0.35748 0.87618 0.47303 0.0
H375 H 0.41746 0.8288 0.51009 0.0
H376 H 0.29506 0.80955 0.47055 0.0
H377 H 0.35473 0.76249 0.50807 0.0
H378 H 0.25258 0.63832 0.47818 0.0
H379 H 0.31413 0.70533 0.48356 0.0
H380 H 0.23961 0.76217 0.48973 0.0
H381 H 0.17806 0.69525 0.48339 0.0
C382 C 0.35727 0.85167 0.48081 0.0
C383 C 0.39259 0.85785 0.49168 0.0
C384 C 0.32133 0.81346 0.47951 0.0
C385 C 0.31974 0.7805 0.48911 0.0
C386 C 0.35495 0.78693 0.50023 0.0
C387 C 0.39092 0.82507 0.50147 0.0
C388 C 0.24929 0.6651 0.48069 0.0
C389 C 0.21028 0.6613 0.48022 0.0
C390 C 0.28464 0.70357 0.48399 0.0
C391 C 0.28196 0.73932 0.48697 0.0
C392 C 0.2429 0.7354 0.48718 0.0
C393 C 0.20753 0.6969 0.48385 0.0
H394 H 0.59255 0.40883 0.87064 0.0
H395 H 0.50578 0.3683 0.81832 0.0
H396 H 0.58702 0.34171 0.86909 0.0
H397 H 0.50075 0.30133 0.8166 0.0
H398 H 0.4796 0.175 0.82673 0.0
H399 H 0.4782 0.23853 0.83385 0.0
H400 H 0.60934 0.30446 0.84587 0.0
H401 H 0.61053 0.24092 0.83932 0.0
C402 C 0.57201 0.38552 0.85891 0.0
C403 C 0.54982 0.3941 0.84451 0.0
C404 C 0.56903 0.34707 0.85796 0.0
C405 C 0.54371 0.31618 0.84263 0.0
C406 C 0.52027 0.32425 0.82873 0.0
C407 C 0.52331 0.36276 0.82966 0.0
C408 C 0.50799 0.20292 0.83133 0.0
C409 C 0.54521 0.2029 0.83239 0.0
C410 C 0.50725 0.23941 0.83518 0.0
C411 C 0.54367 0.27669 0.8403 0.0
C412 C 0.58064 0.27632 0.84214 0.0
C413 C 0.5814 0.23992 0.8382 0.0
H414 H 0.59025 0.89756 0.48133 0.0
H415 H 0.62145 0.91792 0.54685 0.0
H416 H 0.61069 0.84582 0.47845 0.0
H417 H 0.64129 0.86567 0.54398 0.0
H418 H 0.6817 0.77366 0.53345 0.0
H419 H 0.6853 0.83936 0.52978 0.0
H420 H 0.57385 0.77732 0.49092 0.0
H421 H 0.57072 0.71221 0.49438 0.0
C422 C 0.60218 0.89155 0.49507 0.0
C423 C 0.60339 0.91117 0.51442 0.0
C424 C 0.61384 0.86188 0.49339 0.0
C425 C 0.62691 0.8512 0.51103 0.0
C426 C 0.63151 0.87334 0.53008 0.0
C427 C 0.61991 0.90315 0.53176 0.0
C428 C 0.65874 0.77442 0.52364 0.0
C429 C 0.62574 0.73798 0.51431 0.0
C430 C 0.66062 0.81189 0.52168 0.0
C431 C 0.62975 0.81347 0.51018 0.0
C432 C 0.59836 0.77726 0.49971 0.0
C433 C 0.59632 0.7399 0.50181 0.0
H434 H 0.67167 0.49572 0.78418 0.0
H435 H 0.69305 0.57899 0.83789 0.0
H436 H 0.74316 0.51316 0.78673 0.0
H437 H 0.76432 0.59602 0.8405 0.0
H438 H 0.89564 0.63087 0.83748 0.0
H439 H 0.83206 0.62609 0.82445 0.0
H440 H 0.77774 0.49494 0.81321 0.0
H441 H 0.8411 0.4999 0.82599 0.0
C442 C 0.69173 0.51821 0.79633 0.0
C443 C 0.67658 0.53547 0.81105 0.0
C444 C 0.73264 0.52815 0.79778 0.0
C445 C 0.75918 0.55567 0.8139 0.0
C446 C 0.74468 0.57497 0.82779 0.0
C447 C 0.70374 0.56493 0.8264 0.0
C448 C 0.8704 0.60127 0.83165 0.0
C449 C 0.8729 0.56568 0.83287 0.0
C450 C 0.83404 0.59849 0.82435 0.0
C451 C 0.79992 0.56013 0.81796 0.0
C452 C 0.8036 0.52497 0.81785 0.0
C453 C 0.8397 0.52771 0.82531 0.0
H454 H 0.11779 0.70797 0.18423 0.0
H455 H 0.15249 0.68487 0.12394 0.0
H456 H 0.18005 0.77484 0.18823 0.0
H457 H 0.21469 0.75177 0.12802 0.0
H458 H 0.28663 0.90287 0.18522 0.0
H459 H 0.21924 0.84451 0.17402 0.0
H460 H 0.27661 0.7758 0.15233 0.0
H461 H 0.3437 0.834 0.16346 0.0
C462 C 0.13833 0.71744 0.1717 0.0
C463 C 0.1305 0.69095 0.15389 0.0
C464 C 0.17382 0.75583 0.17393 0.0
C465 C 0.20224 0.76829 0.15847 0.0
C466 C 0.19341 0.7427 0.14023 0.0
C467 C 0.15775 0.70447 0.13791 0.0
C468 C 0.28475 0.87559 0.1776 0.0
C469 C 0.32015 0.87268 0.17527 0.0
C470 C 0.2463 0.84221 0.17134 0.0
C471 C 0.24278 0.80568 0.1624 0.0
C472 C 0.27845 0.80372 0.15901 0.0
C473 C 0.31677 0.83684 0.16549 0.0
H474 H 0.52106 0.16626 0.46021 0.0
H475 H 0.56554 0.18586 0.52386 0.0
H476 H 0.53757 0.23791 0.46126 0.0
H477 H 0.58256 0.25711 0.52465 0.0
H478 H 0.65407 0.38986 0.50985 0.0
H479 H 0.63666 0.31858 0.50343 0.0
H480 H 0.51319 0.28474 0.48429 0.0
H481 H 0.52981 0.35573 0.4915 0.0
C482 C 0.53408 0.18574 0.47441 0.0
C483 C 0.54197 0.17051 0.49196 0.0
C484 C 0.54351 0.22658 0.47497 0.0
C485 C 0.56178 0.25285 0.49294 0.0
C486 C 0.56898 0.23744 0.51054 0.0
C487 C 0.55887 0.1966 0.51013 0.0
C488 C 0.62327 0.36736 0.50414 0.0
C489 C 0.59316 0.37843 0.50155 0.0
C490 C 0.61342 0.32667 0.50041 0.0
C491 C 0.57352 0.29639 0.49366 0.0
C492 C 0.5442 0.30771 0.48947 0.0
C493 C 0.55386 0.3484 0.49349 0.0
H494 H 0.35703 0.51933 0.80506 0.0
H495 H 0.31833 0.44375 0.85633 0.0
H496 H 0.29594 0.52541 0.8066 0.0
H497 H 0.25742 0.45047 0.85805 0.0
H498 H 0.14132 0.45661 0.85054 0.0
H499 H 0.19228 0.43741 0.84091 0.0
H500 H 0.279 0.56392 0.83259 0.0
H501 H 0.22798 0.58279 0.84174 0.0
C502 C 0.3352 0.50354 0.81649 0.0
C503 C 0.34283 0.48165 0.83083 0.0
C504 C 0.30028 0.50713 0.81738 0.0
C505 C 0.27229 0.48898 0.83264 0.0
C506 C 0.27839 0.46466 0.84605 0.0
C507 C 0.31337 0.46096 0.84513 0.0
C508 C 0.17103 0.48007 0.84622 0.0
C509 C 0.18089 0.52122 0.84698 0.0
C510 C 0.20022 0.46914 0.84088 0.0
C511 C 0.23959 0.49915 0.83604 0.0
C512 C 0.24877 0.54 0.836 0.0
C513 C 0.21974 0.55092 0.84145 0.0
H514 H 0.89224 0.33304 0.18515 0.0
H515 H 0.83069 0.36318 0.13893 0.0
H516 H 0.82947 0.26814 0.18815 0.0
H517 H 0.7683 0.29809 0.1417 0.0
H518 H 0.65794 0.22174 0.18116 0.0
H519 H 0.7217 0.27694 0.16997 0.0
H520 H 0.77632 0.20037 0.17174 0.0
H521 H 0.71232 0.14512 0.1834 0.0
C522 C 0.86566 0.3254 0.17527 0.0
C523 C 0.86618 0.35355 0.1621 0.0
C524 C 0.82974 0.28812 0.17692 0.0
C525 C 0.79381 0.27835 0.16538 0.0
C526 C 0.79531 0.30518 0.15108 0.0
C527 C 0.8311 0.3424 0.14947 0.0
C528 C 0.68347 0.21661 0.179 0.0
C529 C 0.68038 0.17937 0.18331 0.0
C530 C 0.71985 0.24803 0.17237 0.0
C531 C 0.75403 0.24296 0.16996 0.0
C532 C 0.75053 0.20517 0.17358 0.0
C533 C 0.7139 0.17353 0.1801 0.0
H534 H 0.99187 0.48293 0.09923 0.0
H535 H 0.00826 0.60401 0.11172 0.0
H536 H 0.00617 0.496 0.06316 0.0
H537 H 0.02237 0.61685 0.07564 0.0
H538 H 0.98632 0.59421 0.00484 0.0
H539 H 0.97895 0.58639 0.04179 0.0
H540 H 0.06575 0.54369 0.0419 0.0
H541 H 0.0731 0.5515 0.00489 0.0
C542 C 0.99863 0.51233 0.09429 0.0
C543 C 0.99876 0.54237 0.10827 0.0
C544 C 0.00708 0.51988 0.07371 0.0
C545 C 0.01531 0.5574 0.06668 0.0
C546 C 0.01583 0.58757 0.08067 0.0
C547 C 0.00788 0.58023 0.1013 0.0
C548 C 0.00396 0.58338 0.01282 0.0
C549 C 0.0302 0.57337 0.00208 0.0
C550 C 0.99996 0.57917 0.03393 0.0
C551 C 0.02173 0.56436 0.04462 0.0
C552 C 0.04845 0.55492 0.03395 0.0
C553 C 0.05287 0.55967 0.01287 0.0
H554 H 0.46788 0.02987 0.45038 0.0
H555 H 0.55826 0.99277 0.44154 0.0
H556 H 0.46555 0.0374 0.41337 0.0
H557 H 0.55627 0.00095 0.40472 0.0
H558 H 0.57266 0.06693 0.34513 0.0
H559 H 0.57481 0.06324 0.38254 0.0
H560 H 0.44345 0.98524 0.3799 0.0
H561 H 0.44134 0.98851 0.34245 0.0
C562 C 0.48729 0.02347 0.44056 0.0
C563 C 0.51315 0.0106 0.4488 0.0
C564 C 0.48585 0.02767 0.41944 0.0
C565 C 0.51084 0.01987 0.40633 0.0
C566 C 0.53697 0.00744 0.41459 0.0
C567 C 0.53786 0.0025 0.4356 0.0
C568 C 0.54428 0.04933 0.35262 0.0
C569 C 0.50685 0.02791 0.34101 0.0
C570 C 0.54553 0.04705 0.37392 0.0
C571 C 0.5093 0.02392 0.38398 0.0
C572 C 0.47174 0.00343 0.37246 0.0
C573 C 0.47057 0.0051 0.3511 0.0
H574 H 0.46662 0.5272 0.76072 0.0
H575 H 0.55935 0.4923 0.76418 0.0
H576 H 0.47209 0.52872 0.72342 0.0
H577 H 0.56513 0.49444 0.72709 0.0
H578 H 0.5401 0.46656 0.65806 0.0
H579 H 0.5263 0.45878 0.69446 0.0
H580 H 0.52386 0.57194 0.69958 0.0
H581 H 0.53784 0.57985 0.66318 0.0
C582 C 0.48799 0.51963 0.75354 0.0
C583 C 0.51264 0.50973 0.76546 0.0
C584 C 0.49126 0.52075 0.7322 0.0
C585 C 0.51905 0.51175 0.72235 0.0
C586 C 0.54306 0.50105 0.7342 0.0
C587 C 0.53994 0.50009 0.75551 0.0
C588 C 0.53669 0.48982 0.66697 0.0
C589 C 0.5404 0.524 0.65779 0.0
C590 C 0.52873 0.48532 0.68779 0.0
C591 C 0.52424 0.51487 0.69989 0.0
C592 C 0.52671 0.54843 0.69059 0.0
C593 C 0.53473 0.55296 0.66975 0.0
H594 H 0.55834 0.07837 0.57137 0.0
H595 H 0.49833 0.94631 0.56535 0.0
H596 H 0.55907 0.07813 0.60869 0.0
H597 H 0.49726 0.94583 0.60275 0.0
H598 H 0.53984 0.96149 0.67045 0.0
H599 H 0.53892 0.96075 0.63293 0.0
H600 H 0.51749 0.06308 0.63685 0.0
H601 H 0.52024 0.06465 0.67434 0.0
C602 C 0.54482 0.04921 0.57803 0.0
C603 C 0.52822 0.01236 0.56539 0.0
C604 C 0.54501 0.04903 0.59948 0.0
C605 C 0.52805 0.01194 0.60885 0.0
C606 C 0.5112 0.97503 0.59615 0.0
C607 C 0.51154 0.97525 0.57467 0.0
C608 C 0.53483 0.98368 0.6632 0.0
C609 C 0.53031 0.01324 0.67524 0.0
C610 C 0.53409 0.98319 0.6417 0.0
C611 C 0.52822 0.01193 0.63175 0.0
C612 C 0.52299 0.04104 0.64391 0.0
C613 C 0.52435 0.04188 0.6654 0.0
H614 H 0.44122 0.46891 0.8817 0.0
H615 H 0.57229 0.54923 0.88948 0.0
H616 H 0.43715 0.46744 0.91907 0.0
H617 H 0.56803 0.54761 0.92679 0.0
H618 H 0.53358 0.5745 0.99158 0.0
H619 H 0.53838 0.57357 0.95419 0.0
H620 H 0.46006 0.44214 0.94862 0.0
H621 H 0.45492 0.44313 0.9861 0.0
C622 C 0.46916 0.48616 0.89135 0.0
C623 C 0.50706 0.50936 0.88259 0.0
C624 C 0.46682 0.4851 0.91274 0.0
C625 C 0.50226 0.5075 0.92581 0.0
C626 C 0.54017 0.53039 0.91707 0.0
C627 C 0.54259 0.53116 0.8957 0.0
C628 C 0.51728 0.54545 0.98235 0.0
C629 C 0.49378 0.5089 0.99171 0.0
C630 C 0.52032 0.54487 0.96099 0.0
C631 C 0.49961 0.50778 0.94852 0.0
C632 C 0.47611 0.47119 0.95787 0.0
C633 C 0.47343 0.47172 0.97929 0.0
H634 H 0.95083 0.45066 0.21911 0.0
H635 H 0.0326 0.58096 0.23169 0.0
H636 H 0.95294 0.44197 0.25588 0.0
H637 H 0.03429 0.57208 0.26843 0.0
H638 H 0.98636 0.5419 0.33381 0.0
H639 H 0.98235 0.54936 0.29692 0.0
H640 H 0.00829 0.45164 0.28305 0.0
H641 H 0.01241 0.44424 0.31996 0.0
C642 C 0.96913 0.47744 0.2297 0.0
C643 C 0.99153 0.51652 0.22248 0.0
C644 C 0.97046 0.47239 0.25071 0.0
C645 C 0.9937 0.50637 0.26494 0.0
C646 C 0.01586 0.54544 0.25778 0.0
C647 C 0.01504 0.55045 0.23674 0.0
C648 C 0.99088 0.52184 0.32284 0.0
C649 C 0.99968 0.4925 0.32967 0.0
C650 C 0.9889 0.52631 0.3018 0.0
C651 C 0.99509 0.50111 0.2872 0.0
C652 C 0.00318 0.47128 0.29401 0.0
C653 C 0.00577 0.46722 0.31507 0.0
loop_
_geom_bond_atom_site_label_1
_geom_bond_atom_site_label_2
_geom_bond_distance
_geom_bond_site_symmetry_2
_ccdc_geom_bond_type
Zn0 O6 1.969 . S
Zn0 O7 1.965 . S
Zn0 O11 2.024 . S
Zn0 O16 1.969 . S
Zn1 O8 1.969 . S
Zn1 O14 1.969 . S
Zn1 O15 1.965 . S
Zn1 O17 2.024 . S
C2 O3 1.229 . S
C2 O11 1.058 . S
O3 C2 1.229 . S
C4 O5 1.229 . S
C4 O17 1.058 . S
O5 C4 1.229 . S
O6 Zn0 1.969 . S
O6 C9 1.267 . S
O7 Zn0 1.965 . S
O7 C18 1.260 1_455 S
O8 Zn1 1.969 . S
O8 C18 1.258 . S
C9 O6 1.267 . S
C9 O10 1.228 . S
O10 C9 1.228 . S
O11 Zn0 2.024 . S
O11 C2 1.058 . S
C12 O13 1.228 . S
C12 O14 1.267 . S
O13 C12 1.228 . S
O14 Zn1 1.969 . S
O14 C12 1.267 . S
O15 Zn1 1.965 . S
O15 C19 1.260 1_655 S
O16 Zn0 1.969 . S
O16 C19 1.258 . S
O17 Zn1 2.024 . S
O17 C4 1.058 . S
C18 O7 1.260 1_655 S
C18 O8 1.258 . S
C19 O15 1.260 1_455 S
C19 O16 1.258 . S
Zn20 O26 1.969 . S
Zn20 O27 1.965 . S
Zn20 O31 2.024 . S
Zn20 O36 1.969 . S
Zn21 O28 1.969 . S
Zn21 O34 1.969 . S
Zn21 O35 1.965 . S
Zn21 O37 2.024 . S
C22 O23 1.229 . S
C22 O31 1.058 . S
O23 C22 1.229 . S
C24 O25 1.229 . S
C24 O37 1.058 . S
O25 C24 1.229 . S
O26 Zn20 1.969 . S
O26 C29 1.267 . S
O27 Zn20 1.965 . S
O27 C38 1.260 . S
O28 Zn21 1.969 . S
O28 C38 1.258 1_565 S
C29 O26 1.267 . S
C29 O30 1.228 . S
O30 C29 1.228 . S
O31 Zn20 2.024 . S
O31 C22 1.058 . S
C32 O33 1.228 . S
C32 O34 1.267 . S
O33 C32 1.228 . S
O34 Zn21 1.969 . S
O34 C32 1.267 . S
O35 Zn21 1.965 . S
O35 C39 1.260 1_565 S
O36 Zn20 1.969 . S
O36 C39 1.258 . S
O37 Zn21 2.024 . S
O37 C24 1.058 . S
C38 O27 1.260 . S
C38 O28 1.258 1_545 S
C39 O35 1.260 1_545 S
C39 O36 1.258 . S
Zn40 O46 1.969 . S
Zn40 O47 1.965 . S
Zn40 O51 2.024 . S
Zn40 O56 1.969 . S
Zn41 O48 1.969 . S
Zn41 O54 1.969 . S
Zn41 O55 1.965 . S
Zn41 O57 2.024 . S
C42 O43 1.229 . S
C42 O51 1.058 . S
O43 C42 1.229 . S
C44 O45 1.229 . S
C44 O57 1.058 . S
O45 C44 1.229 . S
O46 Zn40 1.969 . S
O46 C49 1.267 . S
O47 Zn40 1.965 . S
O47 C58 1.260 . S
O48 Zn41 1.969 . S
O48 C58 1.258 . S
C49 O46 1.267 . S
C49 O50 1.228 . S
O50 C49 1.228 . S
O51 Zn40 2.024 . S
O51 C42 1.058 . S
C52 O53 1.228 . S
C52 O54 1.267 . S
O53 C52 1.228 . S
O54 Zn41 1.969 . S
O54 C52 1.267 . S
O55 Zn41 1.965 . S
O55 C59 1.260 . S
O56 Zn40 1.969 . S
O56 C59 1.258 . S
O57 Zn41 2.024 . S
O57 C44 1.058 . S
C58 O47 1.260 . S
C58 O48 1.258 . S
C59 O55 1.260 . S
C59 O56 1.258 . S
C60 C61 1.386 . S
C60 C62 1.397 . S
C60 H84 0.931 . S
C61 C60 1.386 . S
C61 C65 1.397 1_545 S
C62 C60 1.397 . S
C62 C63 1.384 . S
C62 H85 0.930 . S
C63 C62 1.384 . S
C63 C64 1.354 1_545 S
C63 C66 1.481 . S
C64 C63 1.354 1_565 S
C64 C65 1.392 . S
C64 H86 0.949 . S
C65 C61 1.397 1_565 S
C65 C64 1.392 . S
C65 H87 0.931 . S
C66 C63 1.481 . S
C66 C67 1.387 . S
C66 C71 1.390 . S
C67 C66 1.387 . S
C67 C68 1.401 . S
C67 H88 0.930 . S
C68 C67 1.401 . S
C68 C69 1.376 . S
C68 C77 1.511 . S
C69 C68 1.376 . S
C69 C70 1.400 . S
C69 H90 0.931 . S
C70 C69 1.400 . S
C70 C71 1.360 . S
C70 C72 1.493 1_545 S
C71 C66 1.390 . S
C71 C70 1.360 . S
C71 H89 0.931 1_545 S
C72 C70 1.493 1_565 S
C72 C73 1.371 . S
C72 C74 1.365 . S
C73 C72 1.371 . S
C73 C83 1.386 . S
C73 H91 0.931 . S
C74 C72 1.365 . S
C74 C75 1.409 . S
C74 H92 0.929 . S
C75 C74 1.409 . S
C75 C76 1.380 . S
C75 H93 0.930 . S
C76 C75 1.380 . S
C76 C83 1.357 . S
C77 C68 1.511 . S
C77 C78 1.341 . S
C77 C79 1.371 . S
C78 C77 1.341 . S
C78 C82 1.394 . S
C78 H94 0.930 . S
C79 C77 1.371 . S
C79 C80 1.392 . S
C79 H95 0.931 . S
C80 C79 1.392 . S
C80 C81 1.331 . S
C80 H98 0.932 . S
C81 C80 1.331 . S
C81 C82 1.336 . S
C82 C78 1.394 . S
C82 C81 1.336 . S
C82 H97 0.929 . S
C83 C73 1.386 . S
C83 C76 1.357 . S
C83 H96 0.928 . S
H84 C60 0.931 . S
H85 C62 0.930 . S
H86 C64 0.949 . S
H87 C65 0.931 . S
H88 C67 0.930 . S
H89 C71 0.931 1_565 S
H90 C69 0.931 . S
H91 C73 0.931 . S
H92 C74 0.929 . S
H93 C75 0.930 . S
H94 C78 0.930 . S
H95 C79 0.931 . S
H96 C83 0.928 . S
H97 C82 0.929 . S
H98 C80 0.932 . S
C99 C100 1.386 . S
C99 C101 1.397 . S
C99 H123 0.931 . S
C100 C99 1.386 . S
C100 C104 1.397 . S
C101 C99 1.397 . S
C101 C102 1.384 . S
C101 H124 0.930 . S
C102 C101 1.384 . S
C102 C103 1.377 . S
C102 C105 1.481 . S
C103 C102 1.377 . S
C103 C104 1.389 . S
C103 H125 0.929 . S
C104 C100 1.397 . S
C104 C103 1.389 . S
C104 H126 0.931 . S
C105 C102 1.481 . S
C105 C106 1.387 . S
C105 C110 1.390 . S
C106 C105 1.387 . S
C106 C107 1.401 . S
C106 H127 0.930 . S
C107 C106 1.401 . S
C107 C108 1.376 . S
C107 C116 1.511 . S
C108 C107 1.376 . S
C108 C109 1.392 . S
C108 H129 0.931 . S
C109 C108 1.392 . S
C109 C110 1.361 . S
C109 C111 1.500 . S
C110 C105 1.390 . S
C110 C109 1.361 . S
C110 H128 0.931 . S
C111 C109 1.500 . S
C111 C112 1.371 . S
C111 C113 1.365 . S
C112 C111 1.371 . S
C112 C122 1.386 . S
C112 H130 0.931 . S
C113 C111 1.365 . S
C113 C114 1.409 . S
C113 H131 0.929 . S
C114 C113 1.409 . S
C114 C115 1.380 . S
C114 H132 0.930 . S
C115 C114 1.380 . S
C115 C122 1.357 . S
C116 C107 1.511 . S
C116 C117 1.341 . S
C116 C118 1.371 . S
C117 C116 1.341 . S
C117 C121 1.394 . S
C117 H133 0.930 . S
C118 C116 1.371 . S
C118 C119 1.392 . S
C118 H134 0.931 . S
C119 C118 1.392 . S
C119 C120 1.331 . S
C119 H137 0.932 . S
C120 C119 1.331 . S
C120 C121 1.336 . S
C121 C117 1.394 . S
C121 C120 1.336 . S
C121 H136 0.929 . S
C122 C112 1.386 . S
C122 C115 1.357 . S
C122 H135 0.928 . S
H123 C99 0.931 . S
H124 C101 0.930 . S
H125 C103 0.929 . S
H126 C104 0.931 . S
H127 C106 0.930 . S
H128 C110 0.931 . S
H129 C108 0.931 . S
H130 C112 0.931 . S
H131 C113 0.929 . S
H132 C114 0.930 . S
H133 C117 0.930 . S
H134 C118 0.931 . S
H135 C122 0.928 . S
H136 C121 0.929 . S
H137 C119 0.932 . S
C138 C139 1.386 . S
C138 C140 1.397 . S
C138 H162 0.931 . S
C139 C138 1.386 . S
C139 C143 1.397 1_455 S
C140 C138 1.397 . S
C140 C141 1.384 . S
C140 H163 0.930 . S
C141 C140 1.384 . S
C141 C142 1.377 1_455 S
C141 C144 1.481 . S
C142 C141 1.377 1_655 S
C142 C143 1.389 . S
C142 H164 0.929 . S
C143 C139 1.397 1_655 S
C143 C142 1.389 . S
C143 H165 0.931 . S
C144 C141 1.481 . S
C144 C145 1.387 . S
C144 C149 1.390 . S
C145 C144 1.387 . S
C145 C146 1.401 . S
C145 H166 0.930 . S
C146 C145 1.401 . S
C146 C147 1.376 . S
C146 C155 1.511 . S
C147 C146 1.376 . S
C147 C148 1.392 . S
C147 H168 0.931 . S
C148 C147 1.392 . S
C148 C149 1.361 . S
C148 C150 1.500 1_455 S
C149 C144 1.390 . S
C149 C148 1.361 . S
C149 H167 0.931 1_455 S
C150 C148 1.500 1_655 S
C150 C151 1.371 . S
C150 C152 1.365 . S
C151 C150 1.371 . S
C151 C161 1.386 . S
C151 H169 0.931 . S
C152 C150 1.365 . S
C152 C153 1.409 . S
C152 H170 0.929 . S
C153 C152 1.409 . S
C153 C154 1.380 . S
C153 H171 0.930 . S
C154 C153 1.380 . S
C154 C161 1.357 . S
C155 C146 1.511 . S
C155 C156 1.341 . S
C155 C157 1.371 . S
C156 C155 1.341 . S
C156 C160 1.394 . S
C156 H172 0.930 . S
C157 C155 1.371 . S
C157 C158 1.392 . S
C157 H173 0.931 . S
C158 C157 1.392 . S
C158 C159 1.331 . S
C158 H176 0.932 . S
C159 C158 1.331 . S
C159 C160 1.336 . S
C160 C156 1.394 . S
C160 C159 1.336 . S
C160 H175 0.929 . S
C161 C151 1.386 . S
C161 C154 1.357 . S
C161 H174 0.928 . S
H162 C138 0.931 . S
H163 C140 0.930 . S
H164 C142 0.929 . S
H165 C143 0.931 . S
H166 C145 0.930 . S
H167 C149 0.931 1_655 S
H168 C147 0.931 . S
H169 C151 0.931 . S
H170 C152 0.929 . S
H171 C153 0.930 . S
H172 C156 0.930 . S
H173 C157 0.931 . S
H174 C161 0.928 . S
H175 C160 0.929 . S
H176 C158 0.932 . S
C177 C178 1.386 1_655 S
C177 C179 1.397 . S
C177 H201 0.931 . S
C178 C177 1.386 1_455 S
C178 C182 1.397 . S
C179 C177 1.397 . S
C179 C180 1.384 1_655 S
C179 H202 0.930 . S
C180 C179 1.384 1_455 S
C180 C181 1.377 . S
C180 C183 1.481 . S
C181 C180 1.377 . S
C181 C182 1.389 . S
C181 H203 0.929 . S
C182 C178 1.397 . S
C182 C181 1.389 . S
C182 H204 0.931 . S
C183 C180 1.481 . S
C183 C184 1.387 1_455 S
C183 C188 1.390 . S
C184 C183 1.387 1_655 S
C184 C185 1.401 . S
C184 H205 0.930 . S
C185 C184 1.401 . S
C185 C186 1.376 1_655 S
C185 C194 1.511 . S
C186 C185 1.376 1_455 S
C186 C187 1.392 . S
C186 H207 0.931 . S
C187 C186 1.392 . S
C187 C188 1.361 . S
C187 C189 1.500 . S
C188 C183 1.390 . S
C188 C187 1.361 . S
C188 H206 0.931 . S
C189 C187 1.500 . S
C189 C190 1.371 . S
C189 C191 1.365 . S
C190 C189 1.371 . S
C190 C200 1.386 . S
C190 H208 0.931 . S
C191 C189 1.365 . S
C191 C192 1.409 . S
C191 H209 0.929 . S
C192 C191 1.409 . S
C192 C193 1.380 . S
C192 H210 0.930 . S
C193 C192 1.380 . S
C193 C200 1.357 . S
C194 C185 1.511 . S
C194 C195 1.341 . S
C194 C196 1.371 . S
C195 C194 1.341 . S
C195 C199 1.394 . S
C195 H211 0.930 . S
C196 C194 1.371 . S
C196 C197 1.392 . S
C196 H212 0.931 . S
C197 C196 1.392 . S
C197 C198 1.331 . S
C197 H215 0.932 . S
C198 C197 1.331 . S
C198 C199 1.336 . S
C199 C195 1.394 . S
C199 C198 1.336 . S
C199 H214 0.929 . S
C200 C190 1.386 . S
C200 C193 1.357 . S
C200 H213 0.928 . S
H201 C177 0.931 . S
H202 C179 0.930 . S
H203 C181 0.929 . S
H204 C182 0.931 . S
H205 C184 0.930 . S
H206 C188 0.931 . S
H207 C186 0.931 . S
H208 C190 0.931 . S
H209 C191 0.929 . S
H210 C192 0.930 . S
H211 C195 0.930 . S
H212 C196 0.931 . S
H213 C200 0.928 . S
H214 C199 0.929 . S
H215 C197 0.932 . S
C216 C217 1.386 1_565 S
C216 C218 1.397 . S
C216 H240 0.931 . S
C217 C216 1.386 1_545 S
C217 C221 1.397 . S
C218 C216 1.397 . S
C218 C219 1.384 1_565 S
C218 H241 0.930 . S
C219 C218 1.384 1_545 S
C219 C220 1.377 . S
C219 C222 1.481 . S
C220 C219 1.377 . S
C220 C221 1.389 . S
C220 H242 0.929 . S
C221 C217 1.397 . S
C221 C220 1.389 . S
C221 H243 0.931 . S
C222 C219 1.481 . S
C222 C223 1.387 1_545 S
C222 C227 1.390 . S
C223 C222 1.387 1_565 S
C223 C224 1.401 . S
C223 H244 0.930 . S
C224 C223 1.401 . S
C224 C225 1.376 1_565 S
C224 C233 1.511 . S
C225 C224 1.376 1_545 S
C225 C226 1.392 . S
C225 H246 0.931 . S
C226 C225 1.392 . S
C226 C227 1.361 . S
C226 C228 1.500 . S
C227 C222 1.390 . S
C227 C226 1.361 . S
C227 H245 0.931 . S
C228 C226 1.500 . S
C228 C229 1.371 . S
C228 C230 1.365 . S
C229 C228 1.371 . S
C229 C239 1.386 . S
C229 H247 0.931 . S
C230 C228 1.365 . S
C230 C231 1.409 . S
C230 H248 0.929 . S
C231 C230 1.409 . S
C231 C232 1.380 . S
C231 H249 0.930 . S
C232 C231 1.380 . S
C232 C239 1.357 . S
C233 C224 1.511 . S
C233 C234 1.341 . S
C233 C235 1.371 . S
C234 C233 1.341 . S
C234 C238 1.394 . S
C234 H250 0.930 . S
C235 C233 1.371 . S
C235 C236 1.392 . S
C235 H251 0.931 . S
C236 C235 1.392 . S
C236 C237 1.331 . S
C236 H254 0.932 . S
C237 C236 1.331 . S
C237 C238 1.336 . S
C238 C234 1.394 . S
C238 C237 1.336 . S
C238 H253 0.929 . S
C239 C229 1.386 . S
C239 C232 1.357 . S
C239 H252 0.928 . S
H240 C216 0.931 . S
H241 C218 0.930 . S
H242 C220 0.929 . S
H243 C221 0.931 . S
H244 C223 0.930 . S
H245 C227 0.931 . S
H246 C225 0.931 . S
H247 C229 0.931 . S
H248 C230 0.929 . S
H249 C231 0.930 . S
H250 C234 0.930 . S
H251 C235 0.931 . S
H252 C239 0.928 . S
H253 C238 0.929 . S
H254 C236 0.932 . S
C255 C256 1.386 . S
C255 C257 1.397 . S
C255 H279 0.931 . S
C256 C255 1.386 . S
C256 C260 1.397 . S
C257 C255 1.397 . S
C257 C258 1.384 . S
C257 H280 0.930 . S
C258 C257 1.384 . S
C258 C259 1.377 . S
C258 C261 1.481 . S
C259 C258 1.377 . S
C259 C260 1.389 . S
C259 H281 0.929 . S
C260 C256 1.397 . S
C260 C259 1.389 . S
C260 H282 0.931 . S
C261 C258 1.481 . S
C261 C262 1.387 . S
C261 C266 1.390 . S
C262 C261 1.387 . S
C262 C263 1.401 . S
C262 H283 0.930 . S
C263 C262 1.401 . S
C263 C264 1.376 . S
C263 C272 1.511 . S
C264 C263 1.376 . S
C264 C265 1.392 . S
C264 H285 0.931 . S
C265 C264 1.392 . S
C265 C266 1.361 . S
C265 C267 1.500 . S
C266 C261 1.390 . S
C266 C265 1.361 . S
C266 H284 0.931 . S
C267 C265 1.500 . S
C267 C268 1.371 . S
C267 C269 1.365 . S
C268 C267 1.371 . S
C268 C278 1.386 . S
C268 H286 0.931 . S
C269 C267 1.365 . S
C269 C270 1.409 . S
C269 H287 0.929 . S
C270 C269 1.409 . S
C270 C271 1.380 . S
C270 H288 0.930 . S
C271 C270 1.380 . S
C271 C278 1.357 . S
C272 C263 1.511 . S
C272 C273 1.341 . S
C272 C274 1.371 . S
C273 C272 1.341 . S
C273 C277 1.394 . S
C273 H289 0.930 . S
C274 C272 1.371 . S
C274 C275 1.392 . S
C274 H290 0.931 . S
C275 C274 1.392 . S
C275 C276 1.331 . S
C275 H293 0.932 . S
C276 C275 1.331 . S
C276 C277 1.336 . S
C277 C273 1.394 . S
C277 C276 1.336 . S
C277 H292 0.929 . S
C278 C268 1.386 . S
C278 C271 1.357 . S
C278 H291 0.928 . S
H279 C255 0.931 . S
H280 C257 0.930 . S
H281 C259 0.929 . S
H282 C260 0.931 . S
H283 C262 0.930 . S
H284 C266 0.931 . S
H285 C264 0.931 . S
H286 C268 0.931 . S
H287 C269 0.929 . S
H288 C270 0.930 . S
H289 C273 0.930 . S
H290 C274 0.931 . S
H291 C278 0.928 . S
H292 C277 0.929 . S
H293 C275 0.932 . S
H294 C302 0.950 . S
H295 C307 0.950 . S
H296 C304 0.950 . S
H297 C306 0.950 . S
H298 C308 0.950 . S
H299 C310 0.950 . S
H300 C312 0.950 . S
H301 C313 0.950 . S
C302 H294 0.950 . S
C302 C303 1.386 . S
C302 C304 1.391 . S
C303 C302 1.386 . S
C303 C307 1.393 . S
C304 H296 0.950 . S
C304 C302 1.391 . S
C304 C305 1.400 . S
C305 C304 1.400 . S
C305 C306 1.398 . S
C305 C311 1.491 . S
C306 H297 0.950 . S
C306 C305 1.398 . S
C306 C307 1.391 . S
C307 H295 0.950 . S
C307 C303 1.393 . S
C307 C306 1.391 . S
C308 H298 0.950 . S
C308 C309 1.386 . S
C308 C310 1.391 . S
C309 C308 1.386 . S
C309 C313 1.393 . S
C310 H299 0.950 . S
C310 C308 1.391 . S
C310 C311 1.400 . S
C311 C305 1.491 . S
C311 C310 1.400 . S
C311 C312 1.398 . S
C312 H300 0.950 . S
C312 C311 1.398 . S
C312 C313 1.391 . S
C313 H301 0.950 . S
C313 C309 1.393 . S
C313 C312 1.391 . S
H314 C322 0.950 . S
H315 C327 0.950 . S
H316 C324 0.950 . S
H317 C326 0.950 . S
H318 C328 0.950 . S
H319 C330 0.950 . S
H320 C332 0.950 . S
H321 C333 0.950 . S
C322 H314 0.950 . S
C322 C323 1.386 . S
C322 C324 1.391 . S
C323 C322 1.386 . S
C323 C327 1.393 . S
C324 H316 0.950 . S
C324 C322 1.391 . S
C324 C325 1.400 . S
C325 C324 1.400 . S
C325 C326 1.398 . S
C325 C331 1.491 . S
C326 H317 0.950 . S
C326 C325 1.398 . S
C326 C327 1.391 . S
C327 H315 0.950 . S
C327 C323 1.393 . S
C327 C326 1.391 . S
C328 H318 0.950 . S
C328 C329 1.386 . S
C328 C330 1.391 . S
C329 C328 1.386 . S
C329 C333 1.393 . S
C330 H319 0.950 . S
C330 C328 1.391 . S
C330 C331 1.400 . S
C331 C325 1.491 . S
C331 C330 1.400 . S
C331 C332 1.398 . S
C332 H320 0.950 . S
C332 C331 1.398 . S
C332 C333 1.391 . S
C333 H321 0.950 . S
C333 C329 1.393 . S
C333 C332 1.391 . S
H334 C342 0.950 . S
H335 C347 0.950 . S
H336 C344 0.950 . S
H337 C346 0.950 . S
H338 C348 0.950 . S
H339 C350 0.950 . S
H340 C352 0.950 . S
H341 C353 0.950 . S
C342 H334 0.950 . S
C342 C343 1.386 . S
C342 C344 1.391 . S
C343 C342 1.386 . S
C343 C347 1.393 . S
C344 H336 0.950 . S
C344 C342 1.391 . S
C344 C345 1.400 . S
C345 C344 1.400 . S
C345 C346 1.398 . S
C345 C351 1.491 . S
C346 H337 0.950 . S
C346 C345 1.398 . S
C346 C347 1.391 . S
C347 H335 0.950 . S
C347 C343 1.393 . S
C347 C346 1.391 . S
C348 H338 0.950 . S
C348 C349 1.386 . S
C348 C350 1.391 . S
C349 C348 1.386 . S
C349 C353 1.393 . S
C350 H339 0.950 . S
C350 C348 1.391 . S
C350 C351 1.400 . S
C351 C345 1.491 . S
C351 C350 1.400 . S
C351 C352 1.398 . S
C352 H340 0.950 . S
C352 C351 1.398 . S
C352 C353 1.391 . S
C353 H341 0.950 . S
C353 C349 1.393 . S
C353 C352 1.391 . S
H354 C362 0.950 . S
H355 C367 0.950 . S
H356 C364 0.950 . S
H357 C366 0.950 . S
H358 C368 0.950 . S
H359 C370 0.950 . S
H360 C372 0.950 . S
H361 C373 0.950 . S
C362 H354 0.950 . S
C362 C363 1.386 . S
C362 C364 1.391 . S
C363 C362 1.386 . S
C363 C367 1.393 . S
C364 H356 0.950 . S
C364 C362 1.391 . S
C364 C365 1.400 . S
C365 C364 1.400 . S
C365 C366 1.398 . S
C365 C371 1.491 . S
C366 H357 0.950 . S
C366 C365 1.398 . S
C366 C367 1.391 . S
C367 H355 0.950 . S
C367 C363 1.393 . S
C367 C366 1.391 . S
C368 H358 0.950 . S
C368 C369 1.386 . S
C368 C370 1.391 . S
C369 C368 1.386 . S
C369 C373 1.393 . S
C370 H359 0.950 . S
C370 C368 1.391 . S
C370 C371 1.400 . S
C371 C365 1.491 . S
C371 C370 1.400 . S
C371 C372 1.398 . S
C372 H360 0.950 . S
C372 C371 1.398 . S
C372 C373 1.391 . S
C373 H361 0.950 . S
C373 C369 1.393 . S
C373 C372 1.391 . S
H374 C382 0.950 . S
H375 C387 0.950 . S
H376 C384 0.950 . S
H377 C386 0.950 . S
H378 C388 0.950 . S
H379 C390 0.950 . S
H380 C392 0.950 . S
H381 C393 0.950 . S
C382 H374 0.950 . S
C382 C383 1.386 . S
C382 C384 1.391 . S
C383 C382 1.386 . S
C383 C387 1.393 . S
C384 H376 0.950 . S
C384 C382 1.391 . S
C384 C385 1.400 . S
C385 C384 1.400 . S
C385 C386 1.398 . S
C385 C391 1.491 . S
C386 H377 0.950 . S
C386 C385 1.398 . S
C386 C387 1.391 . S
C387 H375 0.950 . S
C387 C383 1.393 . S
C387 C386 1.391 . S
C388 H378 0.950 . S
C388 C389 1.386 . S
C388 C390 1.391 . S
C389 C388 1.386 . S
C389 C393 1.393 . S
C390 H379 0.950 . S
C390 C388 1.391 . S
C390 C391 1.400 . S
C391 C385 1.491 . S
C391 C390 1.400 . S
C391 C392 1.398 . S
C392 H380 0.950 . S
C392 C391 1.398 . S
C392 C393 1.391 . S
C393 H381 0.950 . S
C393 C389 1.393 . S
C393 C392 1.391 . S
H394 C402 0.950 . S
H395 C407 0.950 . S
H396 C404 0.950 . S
H397 C406 0.950 . S
H398 C408 0.950 . S
H399 C410 0.950 . S
H400 C412 0.950 . S
H401 C413 0.950 . S
C402 H394 0.950 . S
C402 C403 1.386 . S
C402 C404 1.391 . S
C403 C402 1.386 . S
C403 C407 1.393 . S
C404 H396 0.950 . S
C404 C402 1.391 . S
C404 C405 1.400 . S
C405 C404 1.400 . S
C405 C406 1.398 . S
C405 C411 1.491 . S
C406 H397 0.950 . S
C406 C405 1.398 . S
C406 C407 1.391 . S
C407 H395 0.950 . S
C407 C403 1.393 . S
C407 C406 1.391 . S
C408 H398 0.950 . S
C408 C409 1.386 . S
C408 C410 1.391 . S
C409 C408 1.386 . S
C409 C413 1.393 . S
C410 H399 0.950 . S
C410 C408 1.391 . S
C410 C411 1.400 . S
C411 C405 1.491 . S
C411 C410 1.400 . S
C411 C412 1.398 . S
C412 H400 0.950 . S
C412 C411 1.398 . S
C412 C413 1.391 . S
C413 H401 0.950 . S
C413 C409 1.393 . S
C413 C412 1.391 . S
H414 C422 0.950 . S
H415 C427 0.950 . S
H416 C424 0.950 . S
H417 C426 0.950 . S
H418 C428 0.950 . S
H419 C430 0.950 . S
H420 C432 0.950 . S
H421 C433 0.950 . S
C422 H414 0.950 . S
C422 C423 1.386 . S
C422 C424 1.391 . S
C423 C422 1.386 . S
C423 C427 1.393 . S
C424 H416 0.950 . S
C424 C422 1.391 . S
C424 C425 1.400 . S
C425 C424 1.400 . S
C425 C426 1.398 . S
C425 C431 1.491 . S
C426 H417 0.950 . S
C426 C425 1.398 . S
C426 C427 1.391 . S
C427 H415 0.950 . S
C427 C423 1.393 . S
C427 C426 1.391 . S
C428 H418 0.950 . S
C428 C429 1.386 . S
C428 C430 1.391 . S
C429 C428 1.386 . S
C429 C433 1.393 . S
C430 H419 0.950 . S
C430 C428 1.391 . S
C430 C431 1.400 . S
C431 C425 1.491 . S
C431 C430 1.400 . S
C431 C432 1.398 . S
C432 H420 0.950 . S
C432 C431 1.398 . S
C432 C433 1.391 . S
C433 H421 0.950 . S
C433 C429 1.393 . S
C433 C432 1.391 . S
H434 C442 0.950 . S
H435 C447 0.950 . S
H436 C444 0.950 . S
H437 C446 0.950 . S
H438 C448 0.950 . S
H439 C450 0.950 . S
H440 C452 0.950 . S
H441 C453 0.950 . S
C442 H434 0.950 . S
C442 C443 1.386 . S
C442 C444 1.391 . S
C443 C442 1.386 . S
C443 C447 1.393 . S
C444 H436 0.950 . S
C444 C442 1.391 . S
C444 C445 1.400 . S
C445 C444 1.400 . S
C445 C446 1.398 . S
C445 C451 1.491 . S
C446 H437 0.950 . S
C446 C445 1.398 . S
C446 C447 1.391 . S
C447 H435 0.950 . S
C447 C443 1.393 . S
C447 C446 1.391 . S
C448 H438 0.950 . S
C448 C449 1.386 . S
C448 C450 1.391 . S
C449 C448 1.386 . S
C449 C453 1.393 . S
C450 H439 0.950 . S
C450 C448 1.391 . S
C450 C451 1.400 . S
C451 C445 1.491 . S
C451 C450 1.400 . S
C451 C452 1.398 . S
C452 H440 0.950 . S
C452 C451 1.398 . S
C452 C453 1.391 . S
C453 H441 0.950 . S
C453 C449 1.393 . S
C453 C452 1.391 . S
H454 C462 0.950 . S
H455 C467 0.950 . S
H456 C464 0.950 . S
H457 C466 0.950 . S
H458 C468 0.950 . S
H459 C470 0.950 . S
H460 C472 0.950 . S
H461 C473 0.950 . S
C462 H454 0.950 . S
C462 C463 1.386 . S
C462 C464 1.391 . S
C463 C462 1.386 . S
C463 C467 1.393 . S
C464 H456 0.950 . S
C464 C462 1.391 . S
C464 C465 1.400 . S
C465 C464 1.400 . S
C465 C466 1.398 . S
C465 C471 1.491 . S
C466 H457 0.950 . S
C466 C465 1.398 . S
C466 C467 1.391 . S
C467 H455 0.950 . S
C467 C463 1.393 . S
C467 C466 1.391 . S
C468 H458 0.950 . S
C468 C469 1.386 . S
C468 C470 1.391 . S
C469 C468 1.386 . S
C469 C473 1.393 . S
C470 H459 0.950 . S
C470 C468 1.391 . S
C470 C471 1.400 . S
C471 C465 1.491 . S
C471 C470 1.400 . S
C471 C472 1.398 . S
C472 H460 0.950 . S
C472 C471 1.398 . S
C472 C473 1.391 . S
C473 H461 0.950 . S
C473 C469 1.393 . S
C473 C472 1.391 . S
H474 C482 0.950 . S
H475 C487 0.950 . S
H476 C484 0.950 . S
H477 C486 0.950 . S
H478 C488 0.950 . S
H479 C490 0.950 . S
H480 C492 0.950 . S
H481 C493 0.950 . S
C482 H474 0.950 . S
C482 C483 1.386 . S
C482 C484 1.391 . S
C483 C482 1.386 . S
C483 C487 1.393 . S
C484 H476 0.950 . S
C484 C482 1.391 . S
C484 C485 1.400 . S
C485 C484 1.400 . S
C485 C486 1.398 . S
C485 C491 1.491 . S
C486 H477 0.950 . S
C486 C485 1.398 . S
C486 C487 1.391 . S
C487 H475 0.950 . S
C487 C483 1.393 . S
C487 C486 1.391 . S
C488 H478 0.950 . S
C488 C489 1.386 . S
C488 C490 1.391 . S
C489 C488 1.386 . S
C489 C493 1.393 . S
C490 H479 0.950 . S
C490 C488 1.391 . S
C490 C491 1.400 . S
C491 C485 1.491 . S
C491 C490 1.400 . S
C491 C492 1.398 . S
C492 H480 0.950 . S
C492 C491 1.398 . S
C492 C493 1.391 . S
C493 H481 0.950 . S
C493 C489 1.393 . S
C493 C492 1.391 . S
H494 C502 0.950 . S
H495 C507 0.950 . S
H496 C504 0.950 . S
H497 C506 0.950 . S
H498 C508 0.950 . S
H499 C510 0.950 . S
H500 C512 0.950 . S
H501 C513 0.950 . S
C502 H494 0.950 . S
C502 C503 1.386 . S
C502 C504 1.391 . S
C503 C502 1.386 . S
C503 C507 1.393 . S
C504 H496 0.950 . S
C504 C502 1.391 . S
C504 C505 1.400 . S
C505 C504 1.400 . S
C505 C506 1.398 . S
C505 C511 1.491 . S
C506 H497 0.950 . S
C506 C505 1.398 . S
C506 C507 1.391 . S
C507 H495 0.950 . S
C507 C503 1.393 . S
C507 C506 1.391 . S
C508 H498 0.950 . S
C508 C509 1.386 . S
C508 C510 1.391 . S
C509 C508 1.386 . S
C509 C513 1.393 . S
C510 H499 0.950 . S
C510 C508 1.391 . S
C510 C511 1.400 . S
C511 C505 1.491 . S
C511 C510 1.400 . S
C511 C512 1.398 . S
C512 H500 0.950 . S
C512 C511 1.398 . S
C512 C513 1.391 . S
C513 H501 0.950 . S
C513 C509 1.393 . S
C513 C512 1.391 . S
H514 C522 0.950 . S
H515 C527 0.950 . S
H516 C524 0.950 . S
H517 C526 0.950 . S
H518 C528 0.950 . S
H519 C530 0.950 . S
H520 C532 0.950 . S
H521 C533 0.950 . S
C522 H514 0.950 . S
C522 C523 1.386 . S
C522 C524 1.391 . S
C523 C522 1.386 . S
C523 C527 1.393 . S
C524 H516 0.950 . S
C524 C522 1.391 . S
C524 C525 1.400 . S
C525 C524 1.400 . S
C525 C526 1.398 . S
C525 C531 1.491 . S
C526 H517 0.950 . S
C526 C525 1.398 . S
C526 C527 1.391 . S
C527 H515 0.950 . S
C527 C523 1.393 . S
C527 C526 1.391 . S
C528 H518 0.950 . S
C528 C529 1.386 . S
C528 C530 1.391 . S
C529 C528 1.386 . S
C529 C533 1.393 . S
C530 H519 0.950 . S
C530 C528 1.391 . S
C530 C531 1.400 . S
C531 C525 1.491 . S
C531 C530 1.400 . S
C531 C532 1.398 . S
C532 H520 0.950 . S
C532 C531 1.398 . S
C532 C533 1.391 . S
C533 H521 0.950 . S
C533 C529 1.393 . S
C533 C532 1.391 . S
H534 C542 0.950 . S
H535 C547 0.950 . S
H536 C544 0.950 . S
H537 C546 0.950 . S
H538 C548 0.950 . S
H539 C550 0.950 1_655 S
H540 C552 0.950 . S
H541 C553 0.950 . S
C542 H534 0.950 . S
C542 C543 1.386 . S
C542 C544 1.391 . S
C543 C542 1.386 . S
C543 C547 1.393 1_455 S
C544 H536 0.950 . S
C544 C542 1.391 . S
C544 C545 1.400 . S
C545 C544 1.400 . S
C545 C546 1.398 1_455 S
C545 C551 1.491 . S
C546 H537 0.950 . S
C546 C545 1.398 1_655 S
C546 C547 1.391 . S
C547 H535 0.950 . S
C547 C543 1.393 1_655 S
C547 C546 1.391 . S
C548 H538 0.950 . S
C548 C549 1.386 . S
C548 C550 1.391 . S
C549 C548 1.386 . S
C549 C553 1.393 . S
C550 H539 0.950 1_455 S
C550 C548 1.391 . S
C550 C551 1.400 . S
C551 C545 1.491 . S
C551 C550 1.400 . S
C551 C552 1.398 . S
C552 H540 0.950 . S
C552 C551 1.398 . S
C552 C553 1.391 . S
C553 H541 0.950 . S
C553 C549 1.393 . S
C553 C552 1.391 . S
H554 C562 0.950 . S
H555 C567 0.950 . S
H556 C564 0.953 . S
H557 C566 0.950 . S
H558 C568 0.950 . S
H559 C570 0.950 . S
H560 C572 0.950 1_565 S
H561 C573 0.950 1_565 S
C562 H554 0.950 . S
C562 C563 1.386 1_565 S
C562 C564 1.397 . S
C563 C562 1.386 1_545 S
C563 C567 1.393 . S
C564 H556 0.953 . S
C564 C562 1.397 . S
C564 C565 1.392 1_565 S
C565 C564 1.392 1_545 S
C565 C566 1.398 . S
C565 C571 1.491 . S
C566 H557 0.950 . S
C566 C565 1.398 . S
C566 C567 1.391 . S
C567 H555 0.950 . S
C567 C563 1.393 . S
C567 C566 1.391 . S
C568 H558 0.950 . S
C568 C569 1.386 . S
C568 C570 1.391 . S
C569 C568 1.386 . S
C569 C573 1.393 . S
C570 H559 0.950 . S
C570 C568 1.391 . S
C570 C571 1.400 . S
C571 C565 1.491 . S
C571 C570 1.400 . S
C571 C572 1.398 . S
C572 H560 0.950 1_545 S
C572 C571 1.398 . S
C572 C573 1.391 . S
C573 H561 0.950 1_545 S
C573 C569 1.393 . S
C573 C572 1.391 . S
H574 C582 0.950 . S
H575 C587 0.950 . S
H576 C584 0.950 . S
H577 C586 0.950 . S
H578 C588 0.950 . S
H579 C590 0.950 . S
H580 C592 0.950 . S
H581 C593 0.950 . S
C582 H574 0.950 . S
C582 C583 1.386 . S
C582 C584 1.391 . S
C583 C582 1.386 . S
C583 C587 1.393 . S
C584 H576 0.950 . S
C584 C582 1.391 . S
C584 C585 1.400 . S
C585 C584 1.400 . S
C585 C586 1.398 . S
C585 C591 1.491 . S
C586 H577 0.950 . S
C586 C585 1.398 . S
C586 C587 1.391 . S
C587 H575 0.950 . S
C587 C583 1.393 . S
C587 C586 1.391 . S
C588 H578 0.950 . S
C588 C589 1.386 . S
C588 C590 1.391 . S
C589 C588 1.386 . S
C589 C593 1.393 . S
C590 H579 0.950 . S
C590 C588 1.391 . S
C590 C591 1.400 . S
C591 C585 1.491 . S
C591 C590 1.400 . S
C591 C592 1.398 . S
C592 H580 0.950 . S
C592 C591 1.398 . S
C592 C593 1.391 . S
C593 H581 0.950 . S
C593 C589 1.393 . S
C593 C592 1.391 . S
H594 C602 0.950 . S
H595 C607 0.950 . S
H596 C604 0.950 . S
H597 C606 0.950 . S
H598 C608 0.950 . S
H599 C610 0.950 . S
H600 C612 0.950 . S
H601 C613 0.950 . S
C602 H594 0.950 . S
C602 C603 1.386 . S
C602 C604 1.391 . S
C603 C602 1.386 . S
C603 C607 1.393 1_545 S
C604 H596 0.950 . S
C604 C602 1.391 . S
C604 C605 1.400 . S
C605 C604 1.400 . S
C605 C606 1.398 1_545 S
C605 C611 1.491 . S
C606 H597 0.950 . S
C606 C605 1.398 1_565 S
C606 C607 1.391 . S
C607 H595 0.950 . S
C607 C603 1.393 1_565 S
C607 C606 1.391 . S
C608 H598 0.950 . S
C608 C609 1.386 1_565 S
C608 C610 1.391 . S
C609 C608 1.386 1_545 S
C609 C613 1.393 . S
C610 H599 0.950 . S
C610 C608 1.391 . S
C610 C611 1.400 1_565 S
C611 C605 1.491 . S
C611 C610 1.400 1_545 S
C611 C612 1.398 . S
C612 H600 0.950 . S
C612 C611 1.398 . S
C612 C613 1.391 . S
C613 H601 0.950 . S
C613 C609 1.393 . S
C613 C612 1.391 . S
H614 C622 0.950 . S
H615 C627 0.950 . S
H616 C624 0.950 . S
H617 C626 0.950 . S
H618 C628 0.950 . S
H619 C630 0.950 . S
H620 C632 0.950 . S
H621 C633 0.950 . S
C622 H614 0.950 . S
C622 C623 1.386 . S
C622 C624 1.391 . S
C623 C622 1.386 . S
C623 C627 1.393 . S
C624 H616 0.950 . S
C624 C622 1.391 . S
C624 C625 1.400 . S
C625 C624 1.400 . S
C625 C626 1.398 . S
C625 C631 1.491 . S
C626 H617 0.950 . S
C626 C625 1.398 . S
C626 C627 1.391 . S
C627 H615 0.950 . S
C627 C623 1.393 . S
C627 C626 1.391 . S
C628 H618 0.950 . S
C628 C629 1.386 . S
C628 C630 1.391 . S
C629 C628 1.386 . S
C629 C633 1.393 . S
C630 H619 0.950 . S
C630 C628 1.391 . S
C630 C631 1.400 . S
C631 C625 1.491 . S
C631 C630 1.400 . S
C631 C632 1.398 . S
C632 H620 0.950 . S
C632 C631 1.398 . S
C632 C633 1.391 . S
C633 H621 0.950 . S
C633 C629 1.393 . S
C633 C632 1.391 . S
H634 C642 0.950 . S
H635 C647 0.950 . S
H636 C644 0.950 . S
H637 C646 0.950 . S
H638 C648 0.950 . S
H639 C650 0.950 . S
H640 C652 0.950 . S
H641 C653 0.950 . S
C642 H634 0.950 . S
C642 C643 1.399 . S
C642 C644 1.391 . S
C643 C642 1.399 . S
C643 C647 1.381 1_455 S
C644 H636 0.950 . S
C644 C642 1.391 . S
C644 C645 1.400 . S
C645 C644 1.400 . S
C645 C646 1.398 1_455 S
C645 C651 1.491 . S
C646 H637 0.950 . S
C646 C645 1.398 1_655 S
C646 C647 1.391 . S
C647 H635 0.950 . S
C647 C643 1.381 1_655 S
C647 C646 1.391 . S
C648 H638 0.950 . S
C648 C649 1.386 1_655 S
C648 C650 1.391 . S
C649 C648 1.386 1_455 S
C649 C653 1.393 . S
C650 H639 0.950 . S
C650 C648 1.391 . S
C650 C651 1.400 1_655 S
C651 C645 1.491 . S
C651 C650 1.400 1_455 S
C651 C652 1.398 . S
C652 H640 0.950 . S
C652 C651 1.398 . S
C652 C653 1.391 . S
C653 H641 0.950 . S
C653 C649 1.393 . S
C653 C652 1.391 . S
C303 C2 1.352 . S
C309 C271 1.439 . S
C323 C22 1.334 . S
C329 C198 1.435 . S
C343 C44 1.419 . S
C349 C237 1.469 . S
C363 C4 1.536 . S
C369 C276 1.631 . S
C389 C193 1.655 . S
C383 C24 1.582 . S
C409 C232 1.572 . S
C403 C42 1.515 . S
C423 C32 1.355 . S
C429 C120 1.343 . S
C443 C49 1.308 . S
C449 C154 1.295 . S
C463 C9 1.259 . S
C469 C76 1.260 . S
C489 C115 1.279 . S
C483 C29 1.239 . S
C509 C159 1.304 . S
C503 C52 1.283 . S
C523 C12 1.259 . S
C529 C81 1.316 . S
C549 C139 1.442 1_554 S
C543 C18 1.425 1_455 S
C563 C38 1.425 . S
C569 C61 1.439 . S
C583 C58 1.418 . S
C589 C100 1.440 . S
C609 C217 1.503 . S
C603 C39 1.487 . S
C629 C256 1.497 1_556 S
C623 C59 1.465 . S
C643 C19 1.466 . S
C649 C178 1.497 . S
