# Generated by pormake.
# Topology rtl, (3,6)-cn, num edge types: 1
# Building blocks:
#     Node 0, Type 0, BuildingBlock: KAKCAD_clean_linker_0, # of connection points: 3
#     Node 1, Type 0, BuildingBlock: KAKCAD_clean_linker_0, # of connection points: 3
#     Node 2, Type 0, BuildingBlock: KAKCAD_clean_linker_0, # of connection points: 3
#     Node 3, Type 0, BuildingBlock: KAKCAD_clean_linker_0, # of connection points: 3
#     Node 4, Type 1, BuildingBlock: LEVNOQ01_clean_sbu_1, # of connection points: 6
#     Node 5, Type 1, BuildingBlock: LEVNOQ01_clean_sbu_1, # of connection points: 6
#     Edge 6, Type (0, 1), BuildingBlock: KIFKEQ_clean_linker_1, # of connection points: 2
#     Edge 7, Type (0, 1), BuildingBlock: KIFKEQ_clean_linker_1, # of connection points: 2
#     Edge 8, Type (0, 1), BuildingBlock: KIFKEQ_clean_linker_1, # of connection points: 2
#     Edge 9, Type (0, 1), BuildingBlock: KIFKEQ_clean_linker_1, # of connection points: 2
#     Edge 10, Type (0, 1), BuildingBlock: KIFKEQ_clean_linker_1, # of connection points: 2
#     Edge 11, Type (0, 1), BuildingBlock: KIFKEQ_clean_linker_1, # of connection points: 2
#     Edge 12, Type (0, 1), BuildingBlock: KIFKEQ_clean_linker_1, # of connection points: 2
#     Edge 13, Type (0, 1), BuildingBlock: KIFKEQ_clean_linker_1, # of connection points: 2
#     Edge 14, Type (0, 1), BuildingBlock: KIFKEQ_clean_linker_1, # of connection points: 2
#     Edge 15, Type (0, 1), BuildingBlock: KIFKEQ_clean_linker_1, # of connection points: 2
#     Edge 16, Type (0, 1), BuildingBlock: KIFKEQ_clean_linker_1, # of connection points: 2
#     Edge 17, Type (0, 1), BuildingBlock: KIFKEQ_clean_linker_1, # of connection points: 2
# Relax obj value: 0.026
# Max RMSD: 0.060
# Mean RMSD: 0.046
data_MOF--net-rtl--node1-LEVNOQ01_clean_sbu_1--node2-KAKCAD_clean_linker_0--edge1-KIFKEQ_clean_linker_1
_symmetry_space_group_name_H-M    P1
_symmetry_Int_Tables_number       1
_symmetry_cell_setting            triclinic
loop_
_symmetry_equiv_pos_as_xyz
'x, y, z'
_cell_length_a     38.159502
_cell_length_b     43.436995
_cell_length_c     30.406717
_cell_angle_alpha  89.909278
_cell_angle_beta   97.703118
_cell_angle_gamma 89.871618
loop_
_atom_site_label
_atom_site_type_symbol
_atom_site_fract_x
_atom_site_fract_y
_atom_site_fract_z
_atom_type_partial_charge
C0 C 0.18399 0.88683 0.93418 0.0
C1 C 0.18049 0.91868 0.92637 0.0
C2 C 0.20085 0.87564 0.97488 0.0
C3 C 0.21466 0.89605 0.00874 0.0
C4 C 0.21165 0.92787 0.00058 0.0
C5 C 0.19484 0.93903 0.95999 0.0
C6 C 0.23185 0.88438 0.05259 0.0
C7 C 0.25442 0.85858 0.05521 0.0
C8 C 0.27087 0.84776 0.09647 0.0
C9 C 0.26474 0.86302 0.13536 0.0
C10 C 0.24114 0.88806 0.13385 0.0
C11 C 0.22513 0.89873 0.09216 0.0
C12 C 0.23134 0.90148 0.17583 0.0
C13 C 0.22841 0.88234 0.21252 0.0
C14 C 0.22351 0.93303 0.17927 0.0
C15 C 0.21205 0.94484 0.21784 0.0
C16 C 0.20838 0.92543 0.25404 0.0
C17 C 0.29261 0.81926 0.09951 0.0
C18 C 0.27893 0.79219 0.07873 0.0
C19 C 0.32615 0.8184 0.12511 0.0
C20 C 0.34561 0.79093 0.12983 0.0
C21 C 0.33152 0.76371 0.10982 0.0
C22 C 0.29806 0.76466 0.08411 0.0
C23 C 0.21751 0.89418 0.2511 0.0
H24 H 0.17296 0.8705 0.90924 0.0
H25 H 0.20235 0.85099 0.98018 0.0
H26 H 0.22256 0.94425 0.02553 0.0
H27 H 0.19332 0.9637 0.95485 0.0
H28 H 0.25964 0.84709 0.02514 0.0
H29 H 0.20619 0.91745 0.09043 0.0
H30 H 0.27762 0.85459 0.16702 0.0
H31 H 0.23356 0.85786 0.21124 0.0
H32 H 0.22593 0.94863 0.15204 0.0
H33 H 0.20514 0.969 0.21873 0.0
H34 H 0.25301 0.79215 0.05918 0.0
H35 H 0.33729 0.83898 0.14145 0.0
H36 H 0.21583 0.87857 0.27854 0.0
H37 H 0.28678 0.7441 0.06785 0.0
H38 H 0.37137 0.79081 0.14975 0.0
C39 C 0.69024 0.63878 0.73437 0.0
C40 C 0.68963 0.60647 0.73716 0.0
C41 C 0.69874 0.65341 0.69635 0.0
C42 C 0.70676 0.63616 0.65994 0.0
C43 C 0.70639 0.60384 0.66262 0.0
C44 C 0.69796 0.58914 0.70087 0.0
C45 C 0.71491 0.65215 0.61926 0.0
C46 C 0.73665 0.6783 0.62292 0.0
C47 C 0.74278 0.6951 0.5852 0.0
C48 C 0.72764 0.68466 0.5431 0.0
C49 C 0.70624 0.65817 0.53846 0.0
C50 C 0.69989 0.64221 0.57697 0.0
C51 C 0.69041 0.64732 0.49352 0.0
C52 C 0.67937 0.6684 0.45918 0.0
C53 C 0.68653 0.61568 0.4844 0.0
C54 C 0.67215 0.60544 0.44228 0.0
C55 C 0.6618 0.62649 0.40766 0.0
C56 C 0.7644 0.72381 0.58994 0.0
C57 C 0.76305 0.74369 0.62632 0.0
C58 C 0.78627 0.73185 0.55796 0.0
C59 C 0.80568 0.75917 0.56184 0.0
C60 C 0.80426 0.77878 0.5982 0.0
C61 C 0.78308 0.7707 0.63064 0.0
C62 C 0.66556 0.65814 0.4168 0.0
H63 H 0.68308 0.65292 0.7611 0.0
H64 H 0.69814 0.67833 0.69505 0.0
H65 H 0.7128 0.58993 0.63525 0.0
H66 H 0.69799 0.56422 0.70202 0.0
H67 H 0.74907 0.68541 0.65544 0.0
H68 H 0.68226 0.62259 0.57426 0.0
H69 H 0.73242 0.69729 0.5138 0.0
H70 H 0.6812 0.69297 0.46493 0.0
H71 H 0.69504 0.59864 0.50963 0.0
H72 H 0.66905 0.5809 0.43708 0.0
H73 H 0.74605 0.73871 0.65121 0.0
H74 H 0.78875 0.71694 0.53005 0.0
H75 H 0.65831 0.67513 0.3911 0.0
H76 H 0.78148 0.7856 0.65884 0.0
H77 H 0.82225 0.7648 0.53669 0.0
C78 C 0.7958 0.11862 0.15887 0.0
C79 C 0.82936 0.10481 0.16246 0.0
C80 C 0.7791 0.12903 0.11757 0.0
C81 C 0.79594 0.12627 0.07921 0.0
C82 C 0.83022 0.11349 0.08366 0.0
C83 C 0.84648 0.10257 0.12459 0.0
C84 C 0.77794 0.13599 0.03454 0.0
C85 C 0.75555 0.16199 0.02941 0.0
C86 C 0.73979 0.17166 0.98698 0.0
C87 C 0.74681 0.15497 0.94948 0.0
C88 C 0.76951 0.12938 0.95382 0.0
C89 C 0.78419 0.11968 0.99637 0.0
C90 C 0.78073 0.11466 0.91386 0.0
C91 C 0.7562 0.10779 0.87636 0.0
C92 C 0.81684 0.1093 0.91213 0.0
C93 C 0.82836 0.09854 0.87332 0.0
C94 C 0.80404 0.09263 0.83541 0.0
C95 C 0.71726 0.19991 0.98148 0.0
C96 C 0.69334 0.20669 0.0115 0.0
C97 C 0.7196 0.22044 0.9461 0.0
C98 C 0.69858 0.24696 0.94085 0.0
C99 C 0.67479 0.25385 0.971 0.0
C100 C 0.67244 0.23331 0.00638 0.0
C101 C 0.76777 0.09661 0.83751 0.0
H102 H 0.78208 0.1205 0.18772 0.0
H103 H 0.75266 0.13849 0.11559 0.0
H104 H 0.8447 0.11184 0.05548 0.0
H105 H 0.8726 0.09237 0.12671 0.0
H106 H 0.75149 0.17545 0.05825 0.0
H107 H 0.80078 0.09932 -0.00052 0.0
H108 H 0.73537 0.16238 0.91663 0.0
H109 H 0.72819 0.11155 0.87687 0.0
H110 H 0.83643 0.11465 0.94025 0.0
H111 H 0.85647 0.09553 0.87255 0.0
H112 H 0.69058 0.19132 0.03889 0.0
H113 H 0.73809 0.21631 0.92267 0.0
H114 H 0.74856 0.09233 0.8086 0.0
H115 H 0.65487 0.23804 0.03072 0.0
H116 H 0.70095 0.26202 0.913 0.0
C117 C 0.26594 0.42061 0.33833 0.0
C118 C 0.30091 0.43019 0.33712 0.0
C119 C 0.25648 0.40613 0.37611 0.0
C120 C 0.28192 0.40054 0.4133 0.0
C121 C 0.31658 0.41127 0.4126 0.0
C122 C 0.32592 0.42603 0.37502 0.0
C123 C 0.27297 0.38183 0.45135 0.0
C124 C 0.25079 0.35604 0.44361 0.0
C125 C 0.24361 0.33706 0.47871 0.0
C126 C 0.25846 0.34429 0.52226 0.0
C127 C 0.28083 0.3698 0.5306 0.0
C128 C 0.288 0.38845 0.49514 0.0
C129 C 0.29764 0.37642 0.57627 0.0
C130 C 0.27695 0.38321 0.60979 0.0
C131 C 0.33456 0.37586 0.58651 0.0
C132 C 0.35062 0.38199 0.62967 0.0
C133 C 0.33013 0.38959 0.66342 0.0
C134 C 0.2219 0.30894 0.46943 0.0
C135 C 0.1899 0.31001 0.44055 0.0
C136 C 0.23349 0.28066 0.48868 0.0
C137 C 0.21341 0.25403 0.47948 0.0
C138 C 0.18115 0.25515 0.45114 0.0
C139 C 0.16961 0.28341 0.43172 0.0
C140 C 0.29299 0.39008 0.65276 0.0
H141 H 0.24606 0.42381 0.30973 0.0
H142 H 0.22935 0.39878 0.37583 0.0
H143 H 0.33701 0.40703 0.44027 0.0
H144 H 0.35322 0.43276 0.37485 0.0
H145 H 0.24029 0.34981 0.40992 0.0
H146 H 0.30509 0.40825 0.50188 0.0
H147 H 0.25311 0.3298 0.54965 0.0
H148 H 0.24838 0.38387 0.60246 0.0
H149 H 0.35097 0.37031 0.56116 0.0
H150 H 0.37915 0.3806 0.63646 0.0
H151 H 0.18032 0.33153 0.42532 0.0
H152 H 0.25825 0.27909 0.51064 0.0
H153 H 0.27616 0.39641 0.67725 0.0
H154 H 0.14486 0.28494 0.40973 0.0
H155 H 0.22274 0.23267 0.49544 0.0
O156 O 0.96608 0.07685 0.60456 0.0
Mg157 Mg 0.02034 0.07358 0.60151 0.0
O158 O 0.95807 0.02906 0.58028 0.0
Mg159 Mg 0.0067 0.01455 0.54372 0.0
O160 O 0.0305 0.06317 0.5393 0.0
O161 O 0.04369 0.10864 0.57161 0.0
O162 O 0.05631 0.00217 0.50636 0.0
O163 O 0.97186 0.02643 0.47666 0.0
Mg164 Mg 0.00265 0.95992 0.49203 0.0
O165 O 0.98082 0.96565 0.54924 0.0
O166 O 0.05691 0.9521 0.49931 0.0
O167 O 0.97757 0.98503 0.43615 0.0
O168 O 0.97683 0.92218 0.50869 0.0
C169 C 0.05571 0.01716 0.64609 0.0
C170 C 0.9467 0.05332 0.59757 0.0
C171 C 0.04362 0.09063 0.53791 0.0
C172 C 0.07228 0.97756 0.49739 0.0
C173 C 0.96597 0.01219 0.43973 0.0
C174 C 0.96993 0.9374 0.5429 0.0
O175 O 0.05136 0.04601 0.64926 0.0
O176 O 0.04176 0.00251 0.61163 0.0
O177 O 0.55847 0.49595 0.13778 0.0
Mg178 Mg 0.52751 0.46225 0.10213 0.0
O179 O 0.53123 0.53199 0.09446 0.0
Mg180 Mg 0.49661 0.50762 0.03409 0.0
O181 O 0.53053 0.46179 0.03535 0.0
O182 O 0.55509 0.42613 0.08394 0.0
O183 O 0.462 0.48308 0.9738 0.0
O184 O 0.5378 0.52575 0.98905 0.0
Mg185 Mg 0.46297 0.55265 0.96571 0.0
O186 O 0.46289 0.55329 0.03294 0.0
O187 O 0.43155 0.51832 0.93229 0.0
O188 O 0.51227 0.56283 0.94613 0.0
O189 O 0.43607 0.58873 0.98583 0.0
C190 C 0.45201 0.46876 0.10698 0.0
C191 C 0.55303 0.52401 0.12818 0.0
C192 C 0.54889 0.43657 0.04391 0.0
C193 C 0.43873 0.49041 0.94121 0.0
C194 C 0.5392 0.54676 0.95992 0.0
C195 C 0.44423 0.57843 0.02572 0.0
O196 O 0.47794 0.45146 0.12035 0.0
O197 O 0.45499 0.49008 0.07882 0.0
H198 H 0.11052 0.25091 0.45524 0.0
H199 H 0.20112 0.19645 0.43272 0.0
H200 H 0.07558 0.20451 0.45707 0.0
H201 H 0.16581 0.14962 0.43314 0.0
H202 H 0.11244 0.08506 0.52941 0.0
H203 H 0.14518 0.12211 0.4912 0.0
H204 H 0.0467 0.16016 0.42639 0.0
H205 H 0.01418 0.12362 0.46675 0.0
C206 C 0.12265 0.22901 0.44925 0.0
C207 C 0.15867 0.22727 0.4445 0.0
C208 C 0.10252 0.20226 0.44997 0.0
C209 C 0.11785 0.17308 0.44557 0.0
C210 C 0.15328 0.17159 0.43748 0.0
C211 C 0.17353 0.19839 0.43725 0.0
C212 C 0.09794 0.10031 0.50519 0.0
C213 C 0.06097 0.10158 0.50077 0.0
C214 C 0.11667 0.12174 0.48327 0.0
C215 C 0.09861 0.14482 0.45653 0.0
C216 C 0.06146 0.14329 0.44769 0.0
C217 C 0.04276 0.12204 0.47011 0.0
H218 H 0.39999 0.75365 0.09659 0.0
H219 H 0.30841 0.70761 0.13405 0.0
H220 H 0.42998 0.70424 0.0936 0.0
H221 H 0.33875 0.65815 0.13296 0.0
H222 H 0.37654 0.58382 0.03893 0.0
H223 H 0.35146 0.62716 0.07402 0.0
H224 H 0.45671 0.65813 0.12509 0.0
H225 H 0.48165 0.61455 0.08843 0.0
C226 C 0.38668 0.73297 0.10539 0.0
C227 C 0.35168 0.73436 0.11475 0.0
C228 C 0.40395 0.70459 0.10405 0.0
C229 C 0.38671 0.67697 0.11257 0.0
C230 C 0.3526 0.67878 0.12521 0.0
C231 C 0.33518 0.7071 0.12589 0.0
C232 C 0.3942 0.59908 0.0595 0.0
C233 C 0.43089 0.59583 0.06136 0.0
C234 C 0.37987 0.62411 0.07963 0.0
C235 C 0.40201 0.64664 0.10187 0.0
C236 C 0.43887 0.64157 0.10751 0.0
C237 C 0.45321 0.61635 0.08726 0.0
H238 H 0.85331 0.79696 0.6668 0.0
H239 H 0.80213 0.82502 0.53778 0.0
H240 H 0.89272 0.84173 0.66862 0.0
H241 H 0.84083 0.86991 0.53987 0.0
H242 H 0.90443 0.95498 0.55857 0.0
H243 H 0.86018 0.92056 0.58387 0.0
H244 H 0.94055 0.85091 0.61544 0.0
H245 H 0.98419 0.88489 0.58908 0.0
C246 C 0.85002 0.81312 0.63938 0.0
C247 C 0.82502 0.80757 0.60197 0.0
C248 C 0.87244 0.83866 0.64045 0.0
C249 C 0.86959 0.85936 0.60456 0.0
C250 C 0.84322 0.85461 0.5683 0.0
C251 C 0.82136 0.82881 0.56685 0.0
C252 C 0.91279 0.93284 0.57284 0.0
C253 C 0.94753 0.92245 0.57218 0.0
C254 C 0.88752 0.91311 0.58693 0.0
C255 C 0.89697 0.88304 0.60127 0.0
C256 C 0.9326 0.87402 0.60492 0.0
C257 C 0.95758 0.89344 0.58994 0.0
H258 H 0.6947 0.31115 0.94514 0.0
H259 H 0.60619 0.26228 0.98661 0.0
H260 H 0.66154 0.35914 0.94401 0.0
H261 H 0.57387 0.31045 0.98797 0.0
H262 H 0.51526 0.39698 0.98328 0.0
H263 H 0.54403 0.35368 0.9508 0.0
H264 H 0.6462 0.39162 0.00115 0.0
H265 H 0.61728 0.43475 0.03226 0.0
C266 C 0.668 0.3105 0.95344 0.0
C267 C 0.65337 0.28277 0.96654 0.0
C268 C 0.64905 0.33814 0.95315 0.0
C269 C 0.61506 0.33887 0.96622 0.0
C270 C 0.59978 0.31089 0.9772 0.0
C271 C 0.61863 0.28324 0.97724 0.0
C272 C 0.54382 0.39675 0.98511 0.0
C273 C 0.56416 0.41925 0.00967 0.0
C274 C 0.56036 0.37171 0.96729 0.0
C275 C 0.59749 0.36873 0.97412 0.0
C276 C 0.61764 0.39307 0.99482 0.0
C277 C 0.6011 0.41798 0.01254 0.0
H278 H 0.21857 0.9819 0.29597 0.0
H279 H 0.16343 0.89546 0.30208 0.0
H280 H 0.19341 -0.00024 0.3617 0.0
H281 H 0.13975 0.91283 0.36771 0.0
H282 H 0.12403 0.93456 0.50227 0.0
H283 H 0.1636 0.92559 0.44705 0.0
H284 H 0.1304 0.01153 0.38297 0.0
H285 H 0.09096 0.0208 0.43903 0.0
C286 C 0.20122 0.9667 0.3112 0.0
C287 C 0.19353 0.93699 0.29394 0.0
C288 C 0.18702 0.9769 0.34894 0.0
C289 C 0.16525 0.95745 0.37038 0.0
C290 C 0.15729 0.92804 0.35276 0.0
C291 C 0.17101 0.91804 0.31504 0.0
C292 C 0.12619 0.95212 0.47743 0.0
C293 C 0.10411 0.97815 0.47458 0.0
C294 C 0.14863 0.94688 0.4456 0.0
C295 C 0.14931 0.96744 0.41003 0.0
C296 C 0.13029 0.99523 0.40995 0.0
C297 C 0.10784 0.00061 0.44216 0.0
H298 H 0.70593 0.62297 0.82448 0.0
H299 H 0.64706 0.55584 0.73979 0.0
H300 H 0.67807 0.60457 0.88726 0.0
H301 H 0.62007 0.53699 0.80296 0.0
H302 H 0.58351 0.50379 0.93129 0.0
H303 H 0.62917 0.51346 0.88299 0.0
H304 H 0.61229 0.61133 0.89415 0.0
H305 H 0.56656 0.60165 0.9411 0.0
C306 C 0.6875 0.60399 0.81936 0.0
C307 C 0.67816 0.59135 0.77683 0.0
C308 C 0.6718 0.59332 0.85541 0.0
C309 C 0.64676 0.56954 0.84986 0.0
C310 C 0.63956 0.55518 0.80827 0.0
C311 C 0.65502 0.56604 0.77205 0.0
C312 C 0.59042 0.52732 0.92432 0.0
C313 C 0.57161 0.55203 0.93966 0.0
C314 C 0.61628 0.53283 0.89656 0.0
C315 C 0.6242 0.56313 0.88486 0.0
C316 C 0.60705 0.58776 0.90297 0.0
C317 C 0.58078 0.58225 0.92969 0.0
H318 H 0.84909 0.04557 0.17893 0.0
H319 H 0.84807 0.13448 0.24141 0.0
H320 H 0.88 0.02366 0.24703 0.0
H321 H 0.88113 0.11324 0.30931 0.0
H322 H 0.91781 0.05948 0.43741 0.0
H323 H 0.8825 0.0818 0.37204 0.0
H324 H 0.93516 0.02199 0.28786 0.0
H325 H 0.96853 -0.00125 0.35297 0.0
C326 C 0.85574 0.06042 0.20742 0.0
C327 C 0.84639 0.09166 0.20503 0.0
C328 C 0.87382 0.048 0.24642 0.0
C329 C 0.88384 0.06669 0.28384 0.0
C330 C 0.8737 0.09796 0.28156 0.0
C331 C 0.8549 0.11025 0.24264 0.0
C332 C 0.92169 0.05116 0.40483 0.0
C333 C 0.94569 0.02714 0.40038 0.0
C334 C 0.90158 0.06406 0.36725 0.0
C335 C 0.90548 0.05357 0.3243 0.0
C336 C 0.93038 0.03013 0.32016 0.0
C337 C 0.94987 0.0169 0.35761 0.0
H338 H 0.39381 0.41888 0.68704 0.0
H339 H 0.3058 0.37964 0.74388 0.0
H340 H 0.42037 0.43492 0.76051 0.0
H341 H 0.33171 0.39776 0.81702 0.0
H342 H 0.3699 0.48822 0.90563 0.0
H343 H 0.34404 0.45702 0.84276 0.0
H344 H 0.44393 0.41041 0.8419 0.0
H345 H 0.46961 0.44106 0.90612 0.0
C346 C 0.3803 0.4131 0.71503 0.0
C347 C 0.34739 0.39793 0.70897 0.0
C348 C 0.3956 0.42243 0.75721 0.0
C349 C 0.37814 0.41743 0.79433 0.0
C350 C 0.34567 0.40187 0.78881 0.0
C351 C 0.33068 0.39186 0.74672 0.0
C352 C 0.38597 0.47058 0.89293 0.0
C353 C 0.42167 0.46694 0.91063 0.0
C354 C 0.37118 0.45274 0.85704 0.0
C355 C 0.39208 0.43149 0.83746 0.0
C356 C 0.42733 0.4267 0.85653 0.0
C357 C 0.44191 0.44402 0.89332 0.0
H358 H 0.61057 0.65319 0.34655 0.0
H359 H 0.68056 0.57447 0.36519 0.0
H360 H 0.58741 0.63462 0.27302 0.0
H361 H 0.65518 0.55452 0.29402 0.0
H362 H 0.62305 0.52847 0.1559 0.0
H363 H 0.65154 0.55816 0.21846 0.0
H364 H 0.55027 0.59794 0.23613 0.0
H365 H 0.52263 0.56979 0.17114 0.0
C366 C 0.62115 0.63197 0.3351 0.0
C367 C 0.64747 0.61536 0.36229 0.0
C368 C 0.60742 0.62104 0.29297 0.0
C369 C 0.61926 0.59298 0.27708 0.0
C370 C 0.64572 0.57654 0.30427 0.0
C371 C 0.65985 0.58771 0.34589 0.0
C372 C 0.60724 0.54439 0.17243 0.0
C373 C 0.57079 0.54701 0.15885 0.0
C374 C 0.62338 0.56105 0.20879 0.0
C375 C 0.60317 0.57989 0.23353 0.0
C376 C 0.5669 0.58389 0.21803 0.0
C377 C 0.55094 0.56778 0.18074 0.0
H378 H 0.8521 0.12441 0.79626 0.0
H379 H 0.7857 0.04386 0.77937 0.0
H380 H 0.87687 0.11177 0.72894 0.0
H381 H 0.81091 0.03086 0.71115 0.0
H382 H 0.90086 0.10086 0.59621 0.0
H383 H 0.85727 0.10839 0.64684 0.0
H384 H 0.87406 0.01504 0.69403 0.0
H385 H 0.91742 0.00728 0.64228 0.0
C386 C 0.84271 0.10401 0.77788 0.0
C387 C 0.81718 0.08502 0.79305 0.0
C388 C 0.85661 0.09691 0.73907 0.0
C389 C 0.84556 0.07047 0.7145 0.0
C390 C 0.81978 0.05143 0.7294 0.0
C391 C 0.80535 0.05887 0.76819 0.0
C392 C 0.89421 0.08156 0.61612 0.0
C393 C 0.9128 0.05365 0.61586 0.0
C394 C 0.86942 0.08592 0.64528 0.0
C395 C 0.86301 0.06257 0.67517 0.0
C396 C 0.87856 0.03345 0.6714 0.0
C397 C 0.9033 0.02897 0.64172 0.0
H398 H 0.28542 0.40592 0.25424 0.0
H399 H 0.34301 0.47977 0.32596 0.0
H400 H 0.31286 0.41864 0.18844 0.0
H401 H 0.37063 0.49237 0.26015 0.0
H402 H 0.40767 0.51426 0.12846 0.0
H403 H 0.36176 0.5091 0.17743 0.0
H404 H 0.37814 0.41068 0.18179 0.0
H405 H 0.42408 0.41589 0.13392 0.0
C406 C 0.30314 0.42543 0.25555 0.0
C407 C 0.31238 0.44167 0.29536 0.0
C408 C 0.31895 0.4326 0.21796 0.0
C409 C 0.34399 0.45635 0.21931 0.0
C410 C 0.3512 0.4741 0.25806 0.0
C411 C 0.33569 0.46671 0.29583 0.0
C412 C 0.40064 0.4915 0.13895 0.0
C413 C 0.41946 0.46546 0.12775 0.0
C414 C 0.3746 0.48859 0.1671 0.0
C415 C 0.3665 0.45951 0.18345 0.0
C416 C 0.38355 0.43334 0.16939 0.0
C417 C 0.40997 0.43631 0.14216 0.0
H418 H 0.1344 0.96713 0.91495 0.0
H419 H 0.18301 0.89769 0.84133 0.0
H420 H 0.1052 0.9889 0.8459 0.0
H421 H 0.15344 0.91958 0.77176 0.0
H422 H 0.06406 0.95451 0.66028 0.0
H423 H 0.09409 0.92884 0.72693 0.0
H424 H 0.1239 0.01744 0.78415 0.0
H425 H 0.09396 0.04286 0.71871 0.0
C426 C 0.13908 0.9566 0.884 0.0
C427 C 0.16148 0.93089 0.88379 0.0
C428 C 0.12227 0.96908 0.84432 0.0
C429 C 0.12732 0.95623 0.8032 0.0
C430 C 0.14885 0.92993 0.80287 0.0
C431 C 0.16579 0.91741 0.84274 0.0
C432 C 0.07727 0.96843 0.687 0.0
C433 C 0.0762 0.00078 0.68422 0.0
C434 C 0.09452 0.95373 0.72513 0.0
C435 C 0.11091 0.97111 0.76119 0.0
C436 C 0.11084 0.00334 0.75753 0.0
C437 C 0.09376 0.01794 0.71971 0.0
loop_
_geom_bond_atom_site_label_1
_geom_bond_atom_site_label_2
_geom_bond_distance
_geom_bond_site_symmetry_2
_ccdc_geom_bond_type
C0 C1 1.386 . S
C0 C2 1.397 . S
C0 H24 0.931 . S
C1 C0 1.386 . S
C1 C5 1.397 . S
C2 C0 1.397 . S
C2 C3 1.384 1_556 S
C2 H25 0.930 . S
C3 C2 1.384 1_554 S
C3 C4 1.377 1_554 S
C3 C6 1.481 . S
C4 C3 1.377 1_556 S
C4 C5 1.389 . S
C4 H26 0.929 1_556 S
C5 C1 1.397 . S
C5 C4 1.389 . S
C5 H27 0.931 . S
C6 C3 1.481 . S
C6 C7 1.387 . S
C6 C11 1.390 . S
C7 C6 1.387 . S
C7 C8 1.401 . S
C7 H28 0.930 . S
C8 C7 1.401 . S
C8 C9 1.376 . S
C8 C17 1.511 . S
C9 C8 1.376 . S
C9 C10 1.392 . S
C9 H30 0.931 . S
C10 C9 1.392 . S
C10 C11 1.361 . S
C10 C12 1.500 . S
C11 C6 1.390 . S
C11 C10 1.361 . S
C11 H29 0.931 . S
C12 C10 1.500 . S
C12 C13 1.371 . S
C12 C14 1.365 . S
C13 C12 1.371 . S
C13 C23 1.386 . S
C13 H31 0.931 . S
C14 C12 1.365 . S
C14 C15 1.409 . S
C14 H32 0.929 . S
C15 C14 1.409 . S
C15 C16 1.380 . S
C15 H33 0.930 . S
C16 C15 1.380 . S
C16 C23 1.357 . S
C17 C8 1.511 . S
C17 C18 1.341 . S
C17 C19 1.371 . S
C18 C17 1.341 . S
C18 C22 1.394 . S
C18 H34 0.930 . S
C19 C17 1.371 . S
C19 C20 1.392 . S
C19 H35 0.931 . S
C20 C19 1.392 . S
C20 C21 1.331 . S
C20 H38 0.932 . S
C21 C20 1.331 . S
C21 C22 1.336 . S
C22 C18 1.394 . S
C22 C21 1.336 . S
C22 H37 0.929 . S
C23 C13 1.386 . S
C23 C16 1.357 . S
C23 H36 0.928 . S
H24 C0 0.931 . S
H25 C2 0.930 . S
H26 C4 0.929 1_554 S
H27 C5 0.931 . S
H28 C7 0.930 . S
H29 C11 0.931 . S
H30 C9 0.931 . S
H31 C13 0.931 . S
H32 C14 0.929 . S
H33 C15 0.930 . S
H34 C18 0.930 . S
H35 C19 0.931 . S
H36 C23 0.928 . S
H37 C22 0.929 . S
H38 C20 0.932 . S
C39 C40 1.386 . S
C39 C41 1.397 . S
C39 H63 0.931 . S
C40 C39 1.386 . S
C40 C44 1.397 . S
C41 C39 1.397 . S
C41 C42 1.384 . S
C41 H64 0.930 . S
C42 C41 1.384 . S
C42 C43 1.377 . S
C42 C45 1.481 . S
C43 C42 1.377 . S
C43 C44 1.389 . S
C43 H65 0.929 . S
C44 C40 1.397 . S
C44 C43 1.389 . S
C44 H66 0.931 . S
C45 C42 1.481 . S
C45 C46 1.387 . S
C45 C50 1.390 . S
C46 C45 1.387 . S
C46 C47 1.401 . S
C46 H67 0.930 . S
C47 C46 1.401 . S
C47 C48 1.376 . S
C47 C56 1.511 . S
C48 C47 1.376 . S
C48 C49 1.392 . S
C48 H69 0.931 . S
C49 C48 1.392 . S
C49 C50 1.361 . S
C49 C51 1.500 . S
C50 C45 1.390 . S
C50 C49 1.361 . S
C50 H68 0.931 . S
C51 C49 1.500 . S
C51 C52 1.371 . S
C51 C53 1.365 . S
C52 C51 1.371 . S
C52 C62 1.386 . S
C52 H70 0.931 . S
C53 C51 1.365 . S
C53 C54 1.409 . S
C53 H71 0.929 . S
C54 C53 1.409 . S
C54 C55 1.380 . S
C54 H72 0.930 . S
C55 C54 1.380 . S
C55 C62 1.357 . S
C56 C47 1.511 . S
C56 C57 1.341 . S
C56 C58 1.371 . S
C57 C56 1.341 . S
C57 C61 1.394 . S
C57 H73 0.930 . S
C58 C56 1.371 . S
C58 C59 1.392 . S
C58 H74 0.931 . S
C59 C58 1.392 . S
C59 C60 1.331 . S
C59 H77 0.932 . S
C60 C59 1.331 . S
C60 C61 1.336 . S
C61 C57 1.394 . S
C61 C60 1.336 . S
C61 H76 0.929 . S
C62 C52 1.386 . S
C62 C55 1.357 . S
C62 H75 0.928 . S
H63 C39 0.931 . S
H64 C41 0.930 . S
H65 C43 0.929 . S
H66 C44 0.931 . S
H67 C46 0.930 . S
H68 C50 0.931 . S
H69 C48 0.931 . S
H70 C52 0.931 . S
H71 C53 0.929 . S
H72 C54 0.930 . S
H73 C57 0.930 . S
H74 C58 0.931 . S
H75 C62 0.928 . S
H76 C61 0.929 . S
H77 C59 0.932 . S
C78 C79 1.386 . S
C78 C80 1.397 . S
C78 H102 0.931 . S
C79 C78 1.386 . S
C79 C83 1.397 . S
C80 C78 1.397 . S
C80 C81 1.384 . S
C80 H103 0.930 . S
C81 C80 1.384 . S
C81 C82 1.377 . S
C81 C84 1.481 . S
C82 C81 1.377 . S
C82 C83 1.389 . S
C82 H104 0.929 . S
C83 C79 1.397 . S
C83 C82 1.389 . S
C83 H105 0.931 . S
C84 C81 1.481 . S
C84 C85 1.387 . S
C84 C89 1.390 . S
C85 C84 1.387 . S
C85 C86 1.401 1_554 S
C85 H106 0.930 . S
C86 C85 1.401 1_556 S
C86 C87 1.376 . S
C86 C95 1.511 . S
C87 C86 1.376 . S
C87 C88 1.392 . S
C87 H108 0.931 . S
C88 C87 1.392 . S
C88 C89 1.361 1_556 S
C88 C90 1.500 . S
C89 C84 1.390 . S
C89 C88 1.361 1_554 S
C89 H107 0.931 . S
C90 C88 1.500 . S
C90 C91 1.371 . S
C90 C92 1.365 . S
C91 C90 1.371 . S
C91 C101 1.386 . S
C91 H109 0.931 . S
C92 C90 1.365 . S
C92 C93 1.409 . S
C92 H110 0.929 . S
C93 C92 1.409 . S
C93 C94 1.380 . S
C93 H111 0.930 . S
C94 C93 1.380 . S
C94 C101 1.357 . S
C95 C86 1.511 . S
C95 C96 1.341 1_556 S
C95 C97 1.371 . S
C96 C95 1.341 1_554 S
C96 C100 1.394 . S
C96 H112 0.930 . S
C97 C95 1.371 . S
C97 C98 1.392 . S
C97 H113 0.931 . S
C98 C97 1.392 . S
C98 C99 1.331 . S
C98 H116 0.932 . S
C99 C98 1.331 . S
C99 C100 1.336 1_556 S
C100 C96 1.394 . S
C100 C99 1.336 1_554 S
C100 H115 0.929 . S
C101 C91 1.386 . S
C101 C94 1.357 . S
C101 H114 0.928 . S
H102 C78 0.931 . S
H103 C80 0.930 . S
H104 C82 0.929 . S
H105 C83 0.931 . S
H106 C85 0.930 . S
H107 C89 0.931 . S
H108 C87 0.931 . S
H109 C91 0.931 . S
H110 C92 0.929 . S
H111 C93 0.930 . S
H112 C96 0.930 . S
H113 C97 0.931 . S
H114 C101 0.928 . S
H115 C100 0.929 . S
H116 C98 0.932 . S
C117 C118 1.386 . S
C117 C119 1.397 . S
C117 H141 0.931 . S
C118 C117 1.386 . S
C118 C122 1.397 . S
C119 C117 1.397 . S
C119 C120 1.384 . S
C119 H142 0.930 . S
C120 C119 1.384 . S
C120 C121 1.377 . S
C120 C123 1.481 . S
C121 C120 1.377 . S
C121 C122 1.389 . S
C121 H143 0.929 . S
C122 C118 1.397 . S
C122 C121 1.389 . S
C122 H144 0.931 . S
C123 C120 1.481 . S
C123 C124 1.387 . S
C123 C128 1.390 . S
C124 C123 1.387 . S
C124 C125 1.401 . S
C124 H145 0.930 . S
C125 C124 1.401 . S
C125 C126 1.376 . S
C125 C134 1.511 . S
C126 C125 1.376 . S
C126 C127 1.392 . S
C126 H147 0.931 . S
C127 C126 1.392 . S
C127 C128 1.361 . S
C127 C129 1.500 . S
C128 C123 1.390 . S
C128 C127 1.361 . S
C128 H146 0.931 . S
C129 C127 1.500 . S
C129 C130 1.371 . S
C129 C131 1.365 . S
C130 C129 1.371 . S
C130 C140 1.386 . S
C130 H148 0.931 . S
C131 C129 1.365 . S
C131 C132 1.409 . S
C131 H149 0.929 . S
C132 C131 1.409 . S
C132 C133 1.380 . S
C132 H150 0.930 . S
C133 C132 1.380 . S
C133 C140 1.357 . S
C134 C125 1.511 . S
C134 C135 1.341 . S
C134 C136 1.371 . S
C135 C134 1.341 . S
C135 C139 1.394 . S
C135 H151 0.930 . S
C136 C134 1.371 . S
C136 C137 1.392 . S
C136 H152 0.931 . S
C137 C136 1.392 . S
C137 C138 1.331 . S
C137 H155 0.932 . S
C138 C137 1.331 . S
C138 C139 1.336 . S
C139 C135 1.394 . S
C139 C138 1.336 . S
C139 H154 0.929 . S
C140 C130 1.386 . S
C140 C133 1.357 . S
C140 H153 0.928 . S
H141 C117 0.931 . S
H142 C119 0.930 . S
H143 C121 0.929 . S
H144 C122 0.931 . S
H145 C124 0.930 . S
H146 C128 0.931 . S
H147 C126 0.931 . S
H148 C130 0.931 . S
H149 C131 0.929 . S
H150 C132 0.930 . S
H151 C135 0.930 . S
H152 C136 0.931 . S
H153 C140 0.928 . S
H154 C139 0.929 . S
H155 C137 0.932 . S
O156 Mg157 1.990 1_655 S
O156 C170 1.253 . S
Mg157 O156 1.990 1_455 S
Mg157 O160 2.180 . S
Mg157 O161 2.117 . S
Mg157 O175 2.030 . S
O158 Mg159 2.072 1_655 S
O158 C170 1.260 . S
Mg159 O158 2.072 1_455 S
Mg159 O160 2.099 . S
Mg159 O162 2.079 1_545 S
Mg159 O163 2.072 1_455 S
Mg159 O165 2.099 1_445 S
Mg159 O176 2.079 1_545 S
O160 Mg157 2.180 . S
O160 Mg159 2.099 . S
O160 C171 1.279 . S
O161 Mg157 2.117 . S
O161 C171 1.250 . S
O162 Mg159 2.079 1_565 S
O162 C172 1.264 . S
O163 Mg159 2.072 1_655 S
O163 C173 1.260 . S
Mg164 O165 2.180 . S
Mg164 O166 2.030 1_655 S
Mg164 O167 1.990 1_565 S
Mg164 O168 2.117 . S
O165 Mg159 2.099 1_665 S
O165 Mg164 2.180 . S
O165 C174 1.279 . S
O166 Mg164 2.030 1_455 S
O166 C172 1.248 . S
O167 Mg164 1.990 1_545 S
O167 C173 1.253 . S
O168 Mg164 2.117 . S
O168 C174 1.250 . S
C169 O175 1.248 1_565 S
C169 O176 1.264 . S
C170 O156 1.253 . S
C170 O158 1.260 . S
C171 O160 1.279 . S
C171 O161 1.250 . S
C172 O162 1.264 . S
C172 O166 1.248 . S
C173 O163 1.260 . S
C173 O167 1.253 . S
C174 O165 1.279 . S
C174 O168 1.250 . S
O175 Mg157 2.030 . S
O175 C169 1.248 1_545 S
O176 Mg159 2.079 1_565 S
O176 C169 1.264 . S
O177 Mg178 1.990 . S
O177 C191 1.253 . S
Mg178 O177 1.990 . S
Mg178 O181 2.180 . S
Mg178 O182 2.117 . S
Mg178 O196 2.030 . S
O179 Mg180 2.072 . S
O179 C191 1.260 . S
Mg180 O179 2.072 . S
Mg180 O181 2.099 . S
Mg180 O183 2.079 1_554 S
Mg180 O184 2.072 1_554 S
Mg180 O186 2.099 . S
Mg180 O197 2.079 . S
O181 Mg178 2.180 . S
O181 Mg180 2.099 . S
O181 C192 1.279 . S
O182 Mg178 2.117 . S
O182 C192 1.250 . S
O183 Mg180 2.079 1_556 S
O183 C193 1.264 . S
O184 Mg180 2.072 1_556 S
O184 C194 1.260 . S
Mg185 O186 2.180 1_556 S
Mg185 O187 2.030 . S
Mg185 O188 1.990 . S
Mg185 O189 2.125 . S
O186 Mg180 2.099 . S
O186 Mg185 2.180 1_554 S
O186 C195 1.279 . S
O187 Mg185 2.030 . S
O187 C193 1.248 . S
O188 Mg185 1.990 . S
O188 C194 1.253 . S
O189 Mg185 2.125 . S
O189 C195 1.242 1_556 S
C190 O196 1.248 . S
C190 O197 1.264 . S
C191 O177 1.253 . S
C191 O179 1.260 . S
C192 O181 1.279 . S
C192 O182 1.250 . S
C193 O183 1.264 . S
C193 O187 1.248 . S
C194 O184 1.260 . S
C194 O188 1.253 . S
C195 O186 1.279 . S
C195 O189 1.242 1_554 S
O196 Mg178 2.030 . S
O196 C190 1.248 . S
O197 Mg180 2.079 . S
O197 C190 1.264 . S
H198 C206 0.950 . S
H199 C211 0.950 . S
H200 C208 0.950 . S
H201 C210 0.950 . S
H202 C212 0.950 . S
H203 C214 0.950 . S
H204 C216 0.950 . S
H205 C217 0.950 . S
C206 H198 0.950 . S
C206 C207 1.386 . S
C206 C208 1.391 . S
C207 C206 1.386 . S
C207 C211 1.393 . S
C208 H200 0.950 . S
C208 C206 1.391 . S
C208 C209 1.400 . S
C209 C208 1.400 . S
C209 C210 1.398 . S
C209 C215 1.491 . S
C210 H201 0.950 . S
C210 C209 1.398 . S
C210 C211 1.391 . S
C211 H199 0.950 . S
C211 C207 1.393 . S
C211 C210 1.391 . S
C212 H202 0.950 . S
C212 C213 1.386 . S
C212 C214 1.391 . S
C213 C212 1.386 . S
C213 C217 1.393 . S
C214 H203 0.950 . S
C214 C212 1.391 . S
C214 C215 1.400 . S
C215 C209 1.491 . S
C215 C214 1.400 . S
C215 C216 1.398 . S
C216 H204 0.950 . S
C216 C215 1.398 . S
C216 C217 1.391 . S
C217 H205 0.950 . S
C217 C213 1.393 . S
C217 C216 1.391 . S
H218 C226 0.950 . S
H219 C231 0.950 . S
H220 C228 0.950 . S
H221 C230 0.950 . S
H222 C232 0.950 . S
H223 C234 0.950 . S
H224 C236 0.950 . S
H225 C237 0.950 . S
C226 H218 0.950 . S
C226 C227 1.386 . S
C226 C228 1.391 . S
C227 C226 1.386 . S
C227 C231 1.393 . S
C228 H220 0.950 . S
C228 C226 1.391 . S
C228 C229 1.400 . S
C229 C228 1.400 . S
C229 C230 1.398 . S
C229 C235 1.491 . S
C230 H221 0.950 . S
C230 C229 1.398 . S
C230 C231 1.391 . S
C231 H219 0.950 . S
C231 C227 1.393 . S
C231 C230 1.391 . S
C232 H222 0.950 . S
C232 C233 1.386 . S
C232 C234 1.391 . S
C233 C232 1.386 . S
C233 C237 1.393 . S
C234 H223 0.950 . S
C234 C232 1.391 . S
C234 C235 1.400 . S
C235 C229 1.491 . S
C235 C234 1.400 . S
C235 C236 1.398 . S
C236 H224 0.950 . S
C236 C235 1.398 . S
C236 C237 1.391 . S
C237 H225 0.950 . S
C237 C233 1.393 . S
C237 C236 1.391 . S
H238 C246 0.950 . S
H239 C251 0.950 . S
H240 C248 0.950 . S
H241 C250 0.950 . S
H242 C252 0.950 . S
H243 C254 0.950 . S
H244 C256 0.950 . S
H245 C257 0.950 . S
C246 H238 0.950 . S
C246 C247 1.386 . S
C246 C248 1.391 . S
C247 C246 1.386 . S
C247 C251 1.393 . S
C248 H240 0.950 . S
C248 C246 1.391 . S
C248 C249 1.400 . S
C249 C248 1.400 . S
C249 C250 1.398 . S
C249 C255 1.491 . S
C250 H241 0.950 . S
C250 C249 1.398 . S
C250 C251 1.391 . S
C251 H239 0.950 . S
C251 C247 1.393 . S
C251 C250 1.391 . S
C252 H242 0.950 . S
C252 C253 1.386 . S
C252 C254 1.391 . S
C253 C252 1.386 . S
C253 C257 1.393 . S
C254 H243 0.950 . S
C254 C252 1.391 . S
C254 C255 1.400 . S
C255 C249 1.491 . S
C255 C254 1.400 . S
C255 C256 1.398 . S
C256 H244 0.950 . S
C256 C255 1.398 . S
C256 C257 1.391 . S
C257 H245 0.950 . S
C257 C253 1.393 . S
C257 C256 1.391 . S
H258 C266 0.950 . S
H259 C271 0.950 . S
H260 C268 0.950 . S
H261 C270 0.950 . S
H262 C272 0.950 . S
H263 C274 0.950 . S
H264 C276 0.950 . S
H265 C277 0.950 . S
C266 H258 0.950 . S
C266 C267 1.386 . S
C266 C268 1.391 . S
C267 C266 1.386 . S
C267 C271 1.393 1_556 S
C268 H260 0.950 . S
C268 C266 1.391 . S
C268 C269 1.400 1_556 S
C269 C268 1.400 1_554 S
C269 C270 1.398 . S
C269 C275 1.491 . S
C270 H261 0.950 . S
C270 C269 1.398 . S
C270 C271 1.391 . S
C271 H259 0.950 . S
C271 C267 1.393 1_554 S
C271 C270 1.391 . S
C272 H262 0.950 . S
C272 C273 1.386 . S
C272 C274 1.391 . S
C273 C272 1.386 . S
C273 C277 1.393 . S
C274 H263 0.950 . S
C274 C272 1.391 . S
C274 C275 1.400 . S
C275 C269 1.491 . S
C275 C274 1.400 . S
C275 C276 1.398 . S
C276 H264 0.950 . S
C276 C275 1.398 . S
C276 C277 1.391 . S
C277 H265 0.950 . S
C277 C273 1.393 . S
C277 C276 1.391 . S
H278 C286 0.950 . S
H279 C291 0.950 . S
H280 C288 0.950 1_545 S
H281 C290 0.950 . S
H282 C292 0.950 . S
H283 C294 0.950 . S
H284 C296 0.950 1_545 S
H285 C297 0.950 . S
C286 H278 0.950 . S
C286 C287 1.386 . S
C286 C288 1.391 . S
C287 C286 1.386 . S
C287 C291 1.393 . S
C288 H280 0.950 1_565 S
C288 C286 1.391 . S
C288 C289 1.400 . S
C289 C288 1.400 . S
C289 C290 1.398 . S
C289 C295 1.491 . S
C290 H281 0.950 . S
C290 C289 1.398 . S
C290 C291 1.391 . S
C291 H279 0.950 . S
C291 C287 1.393 . S
C291 C290 1.391 . S
C292 H282 0.950 . S
C292 C293 1.386 . S
C292 C294 1.391 . S
C293 C292 1.386 . S
C293 C297 1.393 1_565 S
C294 H283 0.950 . S
C294 C292 1.391 . S
C294 C295 1.400 . S
C295 C289 1.491 . S
C295 C294 1.400 . S
C295 C296 1.398 . S
C296 H284 0.950 1_565 S
C296 C295 1.398 . S
C296 C297 1.391 1_565 S
C297 H285 0.950 . S
C297 C293 1.393 1_545 S
C297 C296 1.391 1_545 S
H298 C306 0.950 . S
H299 C311 0.950 . S
H300 C308 0.950 . S
H301 C310 0.950 . S
H302 C312 0.950 . S
H303 C314 0.950 . S
H304 C316 0.950 . S
H305 C317 0.950 . S
C306 H298 0.950 . S
C306 C307 1.386 . S
C306 C308 1.391 . S
C307 C306 1.386 . S
C307 C311 1.393 . S
C308 H300 0.950 . S
C308 C306 1.391 . S
C308 C309 1.400 . S
C309 C308 1.400 . S
C309 C310 1.398 . S
C309 C315 1.491 . S
C310 H301 0.950 . S
C310 C309 1.398 . S
C310 C311 1.391 . S
C311 H299 0.950 . S
C311 C307 1.393 . S
C311 C310 1.391 . S
C312 H302 0.950 . S
C312 C313 1.386 . S
C312 C314 1.391 . S
C313 C312 1.386 . S
C313 C317 1.393 . S
C314 H303 0.950 . S
C314 C312 1.391 . S
C314 C315 1.400 . S
C315 C309 1.491 . S
C315 C314 1.400 . S
C315 C316 1.398 . S
C316 H304 0.950 . S
C316 C315 1.398 . S
C316 C317 1.391 . S
C317 H305 0.950 . S
C317 C313 1.393 . S
C317 C316 1.391 . S
H318 C326 0.950 . S
H319 C331 0.950 . S
H320 C328 0.950 . S
H321 C330 0.950 . S
H322 C332 0.950 . S
H323 C334 0.950 . S
H324 C336 0.950 . S
H325 C337 0.950 . S
C326 H318 0.950 . S
C326 C327 1.386 . S
C326 C328 1.391 . S
C327 C326 1.386 . S
C327 C331 1.393 . S
C328 H320 0.950 . S
C328 C326 1.391 . S
C328 C329 1.400 . S
C329 C328 1.400 . S
C329 C330 1.398 . S
C329 C335 1.491 . S
C330 H321 0.950 . S
C330 C329 1.398 . S
C330 C331 1.391 . S
C331 H319 0.950 . S
C331 C327 1.393 . S
C331 C330 1.391 . S
C332 H322 0.950 . S
C332 C333 1.386 . S
C332 C334 1.391 . S
C333 C332 1.386 . S
C333 C337 1.393 . S
C334 H323 0.950 . S
C334 C332 1.391 . S
C334 C335 1.400 . S
C335 C329 1.491 . S
C335 C334 1.400 . S
C335 C336 1.398 . S
C336 H324 0.950 . S
C336 C335 1.398 . S
C336 C337 1.391 . S
C337 H325 0.950 . S
C337 C333 1.393 . S
C337 C336 1.391 . S
H338 C346 0.950 . S
H339 C351 0.950 . S
H340 C348 0.950 . S
H341 C350 0.950 . S
H342 C352 0.950 . S
H343 C354 0.950 . S
H344 C356 0.950 . S
H345 C357 0.950 . S
C346 H338 0.950 . S
C346 C347 1.386 . S
C346 C348 1.391 . S
C347 C346 1.386 . S
C347 C351 1.393 . S
C348 H340 0.950 . S
C348 C346 1.391 . S
C348 C349 1.400 . S
C349 C348 1.400 . S
C349 C350 1.398 . S
C349 C355 1.491 . S
C350 H341 0.950 . S
C350 C349 1.398 . S
C350 C351 1.391 . S
C351 H339 0.950 . S
C351 C347 1.393 . S
C351 C350 1.391 . S
C352 H342 0.950 . S
C352 C353 1.386 . S
C352 C354 1.391 . S
C353 C352 1.386 . S
C353 C357 1.393 . S
C354 H343 0.950 . S
C354 C352 1.391 . S
C354 C355 1.400 . S
C355 C349 1.491 . S
C355 C354 1.400 . S
C355 C356 1.398 . S
C356 H344 0.950 . S
C356 C355 1.398 . S
C356 C357 1.391 . S
C357 H345 0.950 . S
C357 C353 1.393 . S
C357 C356 1.391 . S
H358 C366 0.950 . S
H359 C371 0.950 . S
H360 C368 0.950 . S
H361 C370 0.950 . S
H362 C372 0.950 . S
H363 C374 0.950 . S
H364 C376 0.950 . S
H365 C377 0.950 . S
C366 H358 0.950 . S
C366 C367 1.386 . S
C366 C368 1.391 . S
C367 C366 1.386 . S
C367 C371 1.393 . S
C368 H360 0.950 . S
C368 C366 1.391 . S
C368 C369 1.400 . S
C369 C368 1.400 . S
C369 C370 1.398 . S
C369 C375 1.491 . S
C370 H361 0.950 . S
C370 C369 1.398 . S
C370 C371 1.391 . S
C371 H359 0.950 . S
C371 C367 1.393 . S
C371 C370 1.391 . S
C372 H362 0.950 . S
C372 C373 1.386 . S
C372 C374 1.391 . S
C373 C372 1.386 . S
C373 C377 1.393 . S
C374 H363 0.950 . S
C374 C372 1.391 . S
C374 C375 1.400 . S
C375 C369 1.491 . S
C375 C374 1.400 . S
C375 C376 1.398 . S
C376 H364 0.950 . S
C376 C375 1.398 . S
C376 C377 1.391 . S
C377 H365 0.950 . S
C377 C373 1.393 . S
C377 C376 1.391 . S
H378 C386 0.950 . S
H379 C391 0.950 . S
H380 C388 0.950 . S
H381 C390 0.950 . S
H382 C392 0.950 . S
H383 C394 0.950 . S
H384 C396 0.950 . S
H385 C397 0.950 . S
C386 H378 0.950 . S
C386 C387 1.386 . S
C386 C388 1.391 . S
C387 C386 1.386 . S
C387 C391 1.393 . S
C388 H380 0.950 . S
C388 C386 1.391 . S
C388 C389 1.400 . S
C389 C388 1.400 . S
C389 C390 1.398 . S
C389 C395 1.491 . S
C390 H381 0.950 . S
C390 C389 1.398 . S
C390 C391 1.391 . S
C391 H379 0.950 . S
C391 C387 1.393 . S
C391 C390 1.391 . S
C392 H382 0.950 . S
C392 C393 1.386 . S
C392 C394 1.391 . S
C393 C392 1.386 . S
C393 C397 1.393 . S
C394 H383 0.950 . S
C394 C392 1.391 . S
C394 C395 1.400 . S
C395 C389 1.491 . S
C395 C394 1.400 . S
C395 C396 1.398 . S
C396 H384 0.950 . S
C396 C395 1.398 . S
C396 C397 1.391 . S
C397 H385 0.950 . S
C397 C393 1.393 . S
C397 C396 1.391 . S
H398 C406 0.950 . S
H399 C411 0.950 . S
H400 C408 0.950 . S
H401 C410 0.950 . S
H402 C412 0.950 . S
H403 C414 0.950 . S
H404 C416 0.950 . S
H405 C417 0.950 . S
C406 H398 0.950 . S
C406 C407 1.386 . S
C406 C408 1.391 . S
C407 C406 1.386 . S
C407 C411 1.393 . S
C408 H400 0.950 . S
C408 C406 1.391 . S
C408 C409 1.400 . S
C409 C408 1.400 . S
C409 C410 1.398 . S
C409 C415 1.491 . S
C410 H401 0.950 . S
C410 C409 1.398 . S
C410 C411 1.391 . S
C411 H399 0.950 . S
C411 C407 1.393 . S
C411 C410 1.391 . S
C412 H402 0.950 . S
C412 C413 1.386 . S
C412 C414 1.391 . S
C413 C412 1.386 . S
C413 C417 1.393 . S
C414 H403 0.950 . S
C414 C412 1.391 . S
C414 C415 1.400 . S
C415 C409 1.491 . S
C415 C414 1.400 . S
C415 C416 1.398 . S
C416 H404 0.950 . S
C416 C415 1.398 . S
C416 C417 1.391 . S
C417 H405 0.950 . S
C417 C413 1.393 . S
C417 C416 1.391 . S
H418 C426 0.940 1_545 S
H419 C431 0.950 . S
H420 C428 0.950 1_545 S
H421 C430 0.950 . S
H422 C432 0.950 . S
H423 C434 0.950 . S
H424 C436 0.921 1_545 S
H425 C437 0.950 . S
C426 H418 0.940 1_565 S
C426 C427 1.386 . S
C426 C428 1.391 . S
C427 C426 1.386 . S
C427 C431 1.393 . S
C428 H420 0.950 1_565 S
C428 C426 1.391 . S
C428 C429 1.400 . S
C429 C428 1.400 . S
C429 C430 1.398 . S
C429 C435 1.491 . S
C430 H421 0.950 . S
C430 C429 1.398 . S
C430 C431 1.391 . S
C431 H419 0.950 . S
C431 C427 1.393 . S
C431 C430 1.391 . S
C432 H422 0.950 . S
C432 C433 1.386 . S
C432 C434 1.391 . S
C433 C432 1.386 . S
C433 C437 1.393 1_565 S
C434 H423 0.950 . S
C434 C432 1.391 . S
C434 C435 1.400 . S
C435 C429 1.491 . S
C435 C434 1.400 . S
C435 C436 1.433 . S
C436 H424 0.921 1_565 S
C436 C435 1.433 . S
C436 C437 1.385 1_565 S
C437 H425 0.950 . S
C437 C433 1.393 1_545 S
C437 C436 1.385 1_545 S
C213 C171 1.339 . S
C207 C138 1.536 . S
C227 C21 1.524 . S
C233 C195 1.334 . S
C247 C60 1.658 . S
C253 C174 1.490 . S
C267 C99 1.674 . S
C273 C192 1.449 . S
C293 C172 1.620 . S
C287 C16 1.603 . S
C313 C194 1.590 . S
C307 C40 1.602 . S
C327 C79 1.583 . S
C333 C173 1.504 . S
C347 C133 1.601 . S
C353 C193 1.543 . S
C373 C191 1.510 . S
C367 C55 1.589 . S
C393 C170 1.571 . S
C387 C94 1.606 . S
C413 C190 1.608 . S
C407 C118 1.619 . S
C427 C1 1.598 . S
C433 C169 1.530 . S
