# Generated by pormake.
# Topology eea, (3,6)-cn, num edge types: 1
# Building blocks:
#     Node 0, Type 0, BuildingBlock: VETTIZ_charged_linker_0, # of connection points: 3
#     Node 1, Type 0, BuildingBlock: VETTIZ_charged_linker_0, # of connection points: 3
#     Node 2, Type 0, BuildingBlock: VETTIZ_charged_linker_0, # of connection points: 3
#     Node 3, Type 0, BuildingBlock: VETTIZ_charged_linker_0, # of connection points: 3
#     Node 4, Type 0, BuildingBlock: VETTIZ_charged_linker_0, # of connection points: 3
#     Node 5, Type 0, BuildingBlock: VETTIZ_charged_linker_0, # of connection points: 3
#     Node 6, Type 0, BuildingBlock: VETTIZ_charged_linker_0, # of connection points: 3
#     Node 7, Type 0, BuildingBlock: VETTIZ_charged_linker_0, # of connection points: 3
#     Node 8, Type 0, BuildingBlock: VETTIZ_charged_linker_0, # of connection points: 3
#     Node 9, Type 0, BuildingBlock: VETTIZ_charged_linker_0, # of connection points: 3
#     Node 10, Type 0, BuildingBlock: VETTIZ_charged_linker_0, # of connection points: 3
#     Node 11, Type 0, BuildingBlock: VETTIZ_charged_linker_0, # of connection points: 3
#     Node 12, Type 0, BuildingBlock: VETTIZ_charged_linker_0, # of connection points: 3
#     Node 13, Type 0, BuildingBlock: VETTIZ_charged_linker_0, # of connection points: 3
#     Node 14, Type 0, BuildingBlock: VETTIZ_charged_linker_0, # of connection points: 3
#     Node 15, Type 0, BuildingBlock: VETTIZ_charged_linker_0, # of connection points: 3
#     Node 16, Type 0, BuildingBlock: VETTIZ_charged_linker_0, # of connection points: 3
#     Node 17, Type 0, BuildingBlock: VETTIZ_charged_linker_0, # of connection points: 3
#     Node 18, Type 1, BuildingBlock: KUMBUR_clean_sbu_0, # of connection points: 6
#     Node 19, Type 1, BuildingBlock: KUMBUR_clean_sbu_0, # of connection points: 6
#     Node 20, Type 1, BuildingBlock: KUMBUR_clean_sbu_0, # of connection points: 6
#     Node 21, Type 1, BuildingBlock: KUMBUR_clean_sbu_0, # of connection points: 6
#     Node 22, Type 1, BuildingBlock: KUMBUR_clean_sbu_0, # of connection points: 6
#     Node 23, Type 1, BuildingBlock: KUMBUR_clean_sbu_0, # of connection points: 6
#     Node 24, Type 1, BuildingBlock: KUMBUR_clean_sbu_0, # of connection points: 6
#     Node 25, Type 1, BuildingBlock: KUMBUR_clean_sbu_0, # of connection points: 6
#     Node 26, Type 1, BuildingBlock: KUMBUR_clean_sbu_0, # of connection points: 6
#     Edge 27, Type (0, 1), BuildingBlock: OJICUG_clean_linker_0, # of connection points: 2
#     Edge 28, Type (0, 1), BuildingBlock: OJICUG_clean_linker_0, # of connection points: 2
#     Edge 29, Type (0, 1), BuildingBlock: OJICUG_clean_linker_0, # of connection points: 2
#     Edge 30, Type (0, 1), BuildingBlock: OJICUG_clean_linker_0, # of connection points: 2
#     Edge 31, Type (0, 1), BuildingBlock: OJICUG_clean_linker_0, # of connection points: 2
#     Edge 32, Type (0, 1), BuildingBlock: OJICUG_clean_linker_0, # of connection points: 2
#     Edge 33, Type (0, 1), BuildingBlock: OJICUG_clean_linker_0, # of connection points: 2
#     Edge 34, Type (0, 1), BuildingBlock: OJICUG_clean_linker_0, # of connection points: 2
#     Edge 35, Type (0, 1), BuildingBlock: OJICUG_clean_linker_0, # of connection points: 2
#     Edge 36, Type (0, 1), BuildingBlock: OJICUG_clean_linker_0, # of connection points: 2
#     Edge 37, Type (0, 1), BuildingBlock: OJICUG_clean_linker_0, # of connection points: 2
#     Edge 38, Type (0, 1), BuildingBlock: OJICUG_clean_linker_0, # of connection points: 2
#     Edge 39, Type (0, 1), BuildingBlock: OJICUG_clean_linker_0, # of connection points: 2
#     Edge 40, Type (0, 1), BuildingBlock: OJICUG_clean_linker_0, # of connection points: 2
#     Edge 41, Type (0, 1), BuildingBlock: OJICUG_clean_linker_0, # of connection points: 2
#     Edge 42, Type (0, 1), BuildingBlock: OJICUG_clean_linker_0, # of connection points: 2
#     Edge 43, Type (0, 1), BuildingBlock: OJICUG_clean_linker_0, # of connection points: 2
#     Edge 44, Type (0, 1), BuildingBlock: OJICUG_clean_linker_0, # of connection points: 2
#     Edge 45, Type (0, 1), BuildingBlock: OJICUG_clean_linker_0, # of connection points: 2
#     Edge 46, Type (0, 1), BuildingBlock: OJICUG_clean_linker_0, # of connection points: 2
#     Edge 47, Type (0, 1), BuildingBlock: OJICUG_clean_linker_0, # of connection points: 2
#     Edge 48, Type (0, 1), BuildingBlock: OJICUG_clean_linker_0, # of connection points: 2
#     Edge 49, Type (0, 1), BuildingBlock: OJICUG_clean_linker_0, # of connection points: 2
#     Edge 50, Type (0, 1), BuildingBlock: OJICUG_clean_linker_0, # of connection points: 2
#     Edge 51, Type (0, 1), BuildingBlock: OJICUG_clean_linker_0, # of connection points: 2
#     Edge 52, Type (0, 1), BuildingBlock: OJICUG_clean_linker_0, # of connection points: 2
#     Edge 53, Type (0, 1), BuildingBlock: OJICUG_clean_linker_0, # of connection points: 2
#     Edge 54, Type (0, 1), BuildingBlock: OJICUG_clean_linker_0, # of connection points: 2
#     Edge 55, Type (0, 1), BuildingBlock: OJICUG_clean_linker_0, # of connection points: 2
#     Edge 56, Type (0, 1), BuildingBlock: OJICUG_clean_linker_0, # of connection points: 2
#     Edge 57, Type (0, 1), BuildingBlock: OJICUG_clean_linker_0, # of connection points: 2
#     Edge 58, Type (0, 1), BuildingBlock: OJICUG_clean_linker_0, # of connection points: 2
#     Edge 59, Type (0, 1), BuildingBlock: OJICUG_clean_linker_0, # of connection points: 2
#     Edge 60, Type (0, 1), BuildingBlock: OJICUG_clean_linker_0, # of connection points: 2
#     Edge 61, Type (0, 1), BuildingBlock: OJICUG_clean_linker_0, # of connection points: 2
#     Edge 62, Type (0, 1), BuildingBlock: OJICUG_clean_linker_0, # of connection points: 2
#     Edge 63, Type (0, 1), BuildingBlock: OJICUG_clean_linker_0, # of connection points: 2
#     Edge 64, Type (0, 1), BuildingBlock: OJICUG_clean_linker_0, # of connection points: 2
#     Edge 65, Type (0, 1), BuildingBlock: OJICUG_clean_linker_0, # of connection points: 2
#     Edge 66, Type (0, 1), BuildingBlock: OJICUG_clean_linker_0, # of connection points: 2
#     Edge 67, Type (0, 1), BuildingBlock: OJICUG_clean_linker_0, # of connection points: 2
#     Edge 68, Type (0, 1), BuildingBlock: OJICUG_clean_linker_0, # of connection points: 2
#     Edge 69, Type (0, 1), BuildingBlock: OJICUG_clean_linker_0, # of connection points: 2
#     Edge 70, Type (0, 1), BuildingBlock: OJICUG_clean_linker_0, # of connection points: 2
#     Edge 71, Type (0, 1), BuildingBlock: OJICUG_clean_linker_0, # of connection points: 2
#     Edge 72, Type (0, 1), BuildingBlock: OJICUG_clean_linker_0, # of connection points: 2
#     Edge 73, Type (0, 1), BuildingBlock: OJICUG_clean_linker_0, # of connection points: 2
#     Edge 74, Type (0, 1), BuildingBlock: OJICUG_clean_linker_0, # of connection points: 2
#     Edge 75, Type (0, 1), BuildingBlock: OJICUG_clean_linker_0, # of connection points: 2
#     Edge 76, Type (0, 1), BuildingBlock: OJICUG_clean_linker_0, # of connection points: 2
#     Edge 77, Type (0, 1), BuildingBlock: OJICUG_clean_linker_0, # of connection points: 2
#     Edge 78, Type (0, 1), BuildingBlock: OJICUG_clean_linker_0, # of connection points: 2
#     Edge 79, Type (0, 1), BuildingBlock: OJICUG_clean_linker_0, # of connection points: 2
#     Edge 80, Type (0, 1), BuildingBlock: OJICUG_clean_linker_0, # of connection points: 2
# Relax obj value: 0.008
# Max RMSD: 0.091
# Mean RMSD: 0.072
data_MOF--net-eea--node1-KUMBUR_clean_sbu_0--node2-VETTIZ_charged_linker_0--edge1-OJICUG_clean_linker_0
_symmetry_space_group_name_H-M    P1
_symmetry_Int_Tables_number       1
_symmetry_cell_setting            triclinic
loop_
_symmetry_equiv_pos_as_xyz
'x, y, z'
_cell_length_a     47.352473
_cell_length_b     48.992605
_cell_length_c     71.258911
_cell_angle_alpha  89.836
_cell_angle_beta   89.914711
_cell_angle_gamma 119.90451
loop_
_atom_site_label
_atom_site_type_symbol
_atom_site_fract_x
_atom_site_fract_y
_atom_site_fract_z
_atom_type_partial_charge
C0 C 0.21654 0.17787 0.3929 0.0
C1 C 0.22579 0.20818 0.39952 0.0
C2 C 0.24434 0.21874 0.41615 0.0
C3 C 0.24313 0.16895 0.41942 0.0
C4 C 0.22565 0.15891 0.40292 0.0
C5 C 0.21847 0.12653 0.39743 0.0
H6 H 0.23479 -0.00042 0.41443 0.0
C7 C 0.2482 0.14333 0.42647 0.0
C8 C 0.23399 0.11854 0.41353 0.0
H9 H 0.18663 0.01578 0.36768 0.0
H10 H 0.19895 0.06576 0.38066 0.0
H11 H 0.29589 0.07035 0.41759 0.0
H12 H 0.20269 0.02086 0.445 0.0
H13 H 0.22925 0.04752 0.46167 0.0
H14 H 0.23656 0.01708 0.45277 0.0
H15 H 0.28457 0.03847 0.43387 0.0
H16 H 0.30195 0.0785 0.44177 0.0
C17 C 0.23584 0.12922 0.37847 0.0
C18 C 0.18098 0.10466 0.39706 0.0
C19 C 0.30449 0.15395 0.48906 0.0
C20 C 0.31069 0.13304 0.49945 0.0
C21 C 0.30164 0.10323 0.49196 0.0
C22 C 0.28658 0.09426 0.47442 0.0
C23 C 0.28027 0.11522 0.46425 0.0
C24 C 0.28903 0.14445 0.4716 0.0
C25 C 0.27941 0.16314 0.45897 0.0
C26 C 0.26326 0.14016 0.44293 0.0
C27 C 0.26415 0.1123 0.44608 0.0
C28 C 0.3108 0.19321 0.45254 0.0
C29 C 0.25492 0.16955 0.46977 0.0
C30 C 0.22661 0.01371 0.40704 0.0
C31 C 0.20999 0.00374 0.38986 0.0
C32 C 0.20008 0.02313 0.38071 0.0
C33 C 0.20709 0.05211 0.38834 0.0
C34 C 0.22408 0.06188 0.40538 0.0
C35 C 0.23319 0.04262 0.41454 0.0
C36 C 0.25012 0.0564 0.4328 0.0
C37 C 0.25054 0.08758 0.43277 0.0
C38 C 0.23537 0.09065 0.41666 0.0
C39 C 0.28494 0.0611 0.43164 0.0
C40 C 0.22886 0.0344 0.44897 0.0
H41 H 0.26696 0.20867 0.43868 0.0
H42 H 0.20213 0.16877 0.38029 0.0
H43 H 0.16905 0.11122 0.40825 0.0
H44 H 0.17334 0.07976 0.39995 0.0
H45 H 0.17067 0.10631 0.38339 0.0
H46 H 0.2592 0.15192 0.37744 0.0
H47 H 0.22045 0.12815 0.36643 0.0
H48 H 0.24285 0.111 0.3767 0.0
H49 H 0.31093 0.17691 0.49457 0.0
H50 H 0.30651 0.0869 0.49963 0.0
H51 H 0.28043 0.0713 0.46948 0.0
H52 H 0.33141 0.18857 0.45097 0.0
H53 H 0.31821 0.21249 0.46289 0.0
H54 H 0.30833 0.20165 0.43858 0.0
H55 H 0.23748 0.14839 0.47796 0.0
H56 H 0.23963 0.1748 0.46047 0.0
H57 H 0.26773 0.1893 0.47979 0.0
H58 H 0.25254 0.24223 0.4214 0.0
C59 C 0.25294 0.19929 0.42614 0.0
C60 C 0.98105 0.18812 0.384 0.0
C61 C 1.00364 0.21855 0.39007 0.0
C62 C 0.99805 0.22939 0.40725 0.0
C63 C 0.94891 0.17916 0.41242 0.0
C64 C 0.95388 0.16905 0.39525 0.0
C65 C 0.92742 0.13627 0.39067 0.0
H66 H 0.7891 0.00389 0.41549 0.0
C67 C 0.91906 0.15299 0.42098 0.0
C68 C 0.90633 0.12793 0.40815 0.0
H69 H 0.84201 0.02462 0.36299 0.0
H70 H 0.88177 0.07562 0.37455 0.0
H71 H 0.85028 0.03191 0.44177 0.0
H72 H 0.79473 0.07215 0.41962 0.0
H73 H 0.80268 0.08321 0.4433 0.0
H74 H 0.77954 0.04206 0.43738 0.0
H75 H 0.81189 0.02328 0.45175 0.0
H76 H 0.84976 0.05656 0.4594 0.0
C77 C 0.94315 0.11525 0.38854 0.0
C78 C 0.90936 0.13797 0.37293 0.0
C79 C 0.88225 0.16265 0.48697 0.0
C80 C 0.8565 0.14117 0.49859 0.0
C81 C 0.83536 0.11062 0.4918 0.0
C82 C 0.83949 0.10158 0.47386 0.0
C83 C 0.86512 0.12321 0.46241 0.0
C84 C 0.88623 0.15308 0.46902 0.0
C85 C 0.9126 0.17243 0.45489 0.0
C86 C 0.90354 0.14929 0.43872 0.0
C87 C 0.87554 0.1206 0.44325 0.0
C88 C 0.94581 0.1807 0.46362 0.0
C89 C 0.90951 0.20142 0.44941 0.0
C90 C 0.80909 0.01953 0.40642 0.0
C91 C 0.81235 0.0101 0.38829 0.0
C92 C 0.83909 0.03106 0.37709 0.0
C93 C 0.86207 0.06083 0.38379 0.0
C94 C 0.85839 0.06994 0.4019 0.0
C95 C 0.83224 0.04942 0.41288 0.0
C96 C 0.8322 0.06319 0.43171 0.0
C97 C 0.86235 0.09557 0.43008 0.0
C98 C 0.87762 0.09929 0.41263 0.0
C99 C 0.83598 0.04272 0.44706 0.0
C100 C 0.80063 0.06517 0.43329 0.0
H101 H 0.96825 0.21929 0.43149 0.0
H102 H 0.98452 0.1793 0.37077 0.0
H103 H 0.91043 0.16113 0.37181 0.0
H104 H 0.88303 0.12054 0.37321 0.0
H105 H 0.92033 0.13475 0.35993 0.0
H106 H 0.96232 0.1213 0.39933 0.0
H107 H 0.95476 0.11855 0.37453 0.0
H108 H 0.92571 0.08998 0.39069 0.0
H109 H 0.89908 0.18622 0.49181 0.0
H110 H 0.81509 0.09377 0.50028 0.0
H111 H 0.82236 0.07807 0.46959 0.0
H112 H 0.94398 0.1601 0.47135 0.0
H113 H 0.95396 0.20043 0.47373 0.0
H114 H 0.96514 0.18691 0.45307 0.0
H115 H 0.88347 0.19507 0.44866 0.0
H116 H 0.91956 0.21076 0.43534 0.0
H117 H 0.92164 0.22055 0.45988 0.0
H118 H 0.01528 0.2527 0.41229 0.0
C119 C 0.97089 0.20986 0.41846 0.0
C120 C 0.9821 0.7941 0.38728 0.0
C121 C 1.00498 0.78619 0.39426 0.0
C122 C 1.00038 0.77323 0.41246 0.0
C123 C 0.95033 0.77491 0.4162 0.0
C124 C 0.9548 0.78794 0.39841 0.0
C125 C 0.92687 0.79295 0.39295 0.0
H126 H 0.77609 0.77096 0.41334 0.0
C127 C 0.91909 0.77025 0.42391 0.0
C128 C 0.90501 0.78063 0.41027 0.0
H129 H 0.83349 0.81454 0.36365 0.0
H130 H 0.87771 0.80834 0.37622 0.0
H131 H 0.7941 0.716 0.41818 0.0
H132 H 0.83331 0.8087 0.44141 0.0
H133 H 0.8366 0.78562 0.45918 0.0
H134 H 0.79682 0.77583 0.45049 0.0
H135 H 0.77275 0.72643 0.43493 0.0
H136 H 0.80041 0.71329 0.44226 0.0
C137 C 0.91032 0.7728 0.37539 0.0
C138 C 0.94042 0.82863 0.38999 0.0
C139 C 0.88018 0.72071 0.48903 0.0
C140 C 0.85147 0.71208 0.4994 0.0
C141 C 0.82823 0.71894 0.49174 0.0
C142 C 0.83287 0.73319 0.47406 0.0
C143 C 0.86111 0.74085 0.46365 0.0
C144 C 0.88441 0.73495 0.47123 0.0
C145 C 0.91274 0.74457 0.45794 0.0
C146 C 0.90263 0.75736 0.44127 0.0
C147 C 0.87226 0.75491 0.44471 0.0
C148 C 0.9144 0.71468 0.45275 0.0
C149 C 0.94378 0.77065 0.46753 0.0
C150 C 0.79808 0.77891 0.40509 0.0
C151 C 0.80112 0.79278 0.38737 0.0
C152 C 0.83053 0.80365 0.37731 0.0
C153 C 0.85609 0.7999 0.38462 0.0
C154 C 0.8524 0.78543 0.40228 0.0
C155 C 0.82388 0.77579 0.41229 0.0
C156 C 0.8245 0.76245 0.4312 0.0
C157 C 0.85767 0.76475 0.4308 0.0
C158 C 0.87399 0.77793 0.41376 0.0
C159 C 0.79643 0.72778 0.43188 0.0
C160 C 0.82248 0.78397 0.44646 0.0
H161 H 0.9715 0.75771 0.4371 0.0
H162 H 0.98486 0.80386 0.3733 0.0
H163 H 0.95943 0.84251 0.40059 0.0
H164 H 0.92167 0.83553 0.39181 0.0
H165 H 0.95167 0.83626 0.37586 0.0
H166 H 0.9077 0.74903 0.37687 0.0
H167 H 0.92502 0.78397 0.36257 0.0
H168 H 0.88546 0.76862 0.37315 0.0
H169 H 0.89847 0.71563 0.49437 0.0
H170 H 0.8062 0.71316 0.49946 0.0
H171 H 0.81397 0.73736 0.4691 0.0
H172 H 0.88967 0.69346 0.45265 0.0
H173 H 0.92937 0.71029 0.46298 0.0
H174 H 0.92397 0.71577 0.43845 0.0
H175 H 0.93836 0.78732 0.47514 0.0
H176 H 0.96327 0.78536 0.45746 0.0
H177 H 0.95346 0.76043 0.4779 0.0
H178 H 0.01772 0.76715 0.41819 0.0
C179 C 0.97346 0.76774 0.42344 0.0
C180 C 0.19197 0.20731 0.63817 0.0
C181 C 0.22315 0.21579 0.63104 0.0
C182 C 0.23214 0.23013 0.6132 0.0
C183 C 0.18031 0.22845 0.61004 0.0
C184 C 0.17109 0.21417 0.6275 0.0
C185 C 0.13774 0.20853 0.63309 0.0
H186 H 0.00859 0.22959 0.61381 0.0
C187 C 0.15382 0.23326 0.60268 0.0
C188 C 0.12869 0.22179 0.61616 0.0
H189 H 0.02129 0.18454 0.66265 0.0
H190 H 0.07227 0.19193 0.64987 0.0
H191 H 0.0836 0.28575 0.60939 0.0
H192 H 0.02922 0.19372 0.58466 0.0
H193 H 0.05571 0.21884 0.56723 0.0
H194 H 0.02477 0.22618 0.57678 0.0
H195 H 0.05094 0.27526 0.59306 0.0
H196 H 0.09203 0.28923 0.58515 0.0
C197 C 0.14148 0.22751 0.65113 0.0
C198 C 0.11469 0.17266 0.6353 0.0
C199 C 0.16753 0.28557 0.53863 0.0
C200 C 0.14769 0.29362 0.52792 0.0
C201 C 0.11699 0.28631 0.53529 0.0
C202 C 0.10648 0.27175 0.55294 0.0
C203 C 0.12673 0.26418 0.56353 0.0
C204 C 0.15656 0.27086 0.55622 0.0
C205 C 0.17472 0.26083 0.56931 0.0
C206 C 0.15088 0.24697 0.58565 0.0
C207 C 0.12289 0.24918 0.58226 0.0
C208 C 0.20681 0.29068 0.57511 0.0
C209 C 0.17953 0.23546 0.55921 0.0
C210 C 0.02249 0.22156 0.62183 0.0
C211 C 0.01112 0.2069 0.6394 0.0
C212 C 0.02955 0.19599 0.64913 0.0
C213 C 0.05922 0.20046 0.64171 0.0
C214 C 0.07057 0.21575 0.62425 0.0
C215 C 0.05184 0.22546 0.61451 0.0
C216 C 0.06653 0.23985 0.59579 0.0
C217 C 0.0977 0.23818 0.59604 0.0
C218 C 0.10027 0.22425 0.61282 0.0
C219 C 0.07356 0.2743 0.59564 0.0
C220 C 0.04291 0.21886 0.58021 0.0
H221 H 0.2196 0.24735 0.58927 0.0
H222 H 0.18444 0.19643 0.65188 0.0
H223 H 0.1195 0.1596 0.62417 0.0
H224 H 0.08878 0.16571 0.63374 0.0
H225 H 0.11819 0.16419 0.64911 0.0
H226 H 0.16332 0.25142 0.65012 0.0
H227 H 0.14449 0.21559 0.66363 0.0
H228 H 0.12079 0.2314 0.65361 0.0
H229 H 0.19107 0.29043 0.5334 0.0
H230 H 0.10127 0.29247 0.52756 0.0
H231 H 0.08304 0.26721 0.55775 0.0
H232 H 0.20372 0.31175 0.57545 0.0
H233 H 0.22682 0.29573 0.56508 0.0
H234 H 0.21468 0.28904 0.58945 0.0
H235 H 0.15769 0.21967 0.55075 0.0
H236 H 0.18255 0.21961 0.569 0.0
H237 H 0.20078 0.24643 0.54953 0.0
H238 H 0.25579 0.23659 0.60731 0.0
C239 C 0.211 0.23634 0.6027 0.0
C240 C 0.80037 0.81888 0.63179 0.0
C241 C 0.7931 0.78931 0.62478 0.0
C242 C 0.7759 0.77898 0.60769 0.0
C243 C 0.7743 0.82751 0.60489 0.0
C244 C 0.79061 0.83731 0.62178 0.0
C245 C 0.79582 0.86883 0.62771 0.0
H246 H 0.78185 0.99665 0.60951 0.0
C247 C 0.76825 0.85262 0.59797 0.0
C248 C 0.78073 0.87677 0.61137 0.0
H249 H 0.81917 0.9756 0.6596 0.0
H250 H 0.80904 0.92658 0.64616 0.0
H251 H 0.81438 0.97265 0.58012 0.0
H252 H 0.7196 0.92741 0.60593 0.0
H253 H 0.71395 0.91637 0.58222 0.0
H254 H 0.73159 0.95738 0.58825 0.0
H255 H 0.78293 0.98062 0.57286 0.0
H256 H 0.7869 0.94891 0.56278 0.0
C257 C 0.83301 0.89184 0.62902 0.0
C258 C 0.77683 0.86442 0.64631 0.0
C259 C 0.7131 0.84229 0.53492 0.0
C260 C 0.70623 0.86292 0.5247 0.0
C261 C 0.71505 0.89264 0.53227 0.0
C262 C 0.73029 0.9017 0.54974 0.0
C263 C 0.73694 0.8809 0.55983 0.0
C264 C 0.72866 0.85185 0.55236 0.0
C265 C 0.73871 0.83339 0.56493 0.0
C266 C 0.7539 0.85601 0.58125 0.0
C267 C 0.75257 0.88367 0.57816 0.0
C268 C 0.76406 0.82811 0.55423 0.0
C269 C 0.70768 0.80269 0.57097 0.0
C270 C 0.78755 0.98137 0.61769 0.0
C271 C 0.80143 0.99016 0.63565 0.0
C272 C 0.80894 0.9697 0.64563 0.0
C273 C 0.80277 0.94105 0.63785 0.0
C274 C 0.78874 0.93257 0.61994 0.0
C275 C 0.78124 0.95252 0.61022 0.0
C276 C 0.76567 0.93924 0.59158 0.0
C277 C 0.7649 0.9079 0.5918 0.0
C278 C 0.77867 0.90431 0.60836 0.0
C279 C 0.78834 0.96145 0.57592 0.0
C280 C 0.73095 0.93498 0.5918 0.0
H281 H 0.75358 0.78876 0.58483 0.0
H282 H 0.81374 0.82781 0.64475 0.0
H283 H 0.75562 0.84016 0.6476 0.0
H284 H 0.76605 0.87988 0.64717 0.0
H285 H 0.79263 0.86855 0.65871 0.0
H286 H 0.84603 0.88796 0.61723 0.0
H287 H 0.84299 0.88837 0.64234 0.0
H288 H 0.83964 0.91681 0.62788 0.0
H289 H 0.70692 0.81944 0.52935 0.0
H290 H 0.70974 0.90879 0.52474 0.0
H291 H 0.73622 0.92457 0.55472 0.0
H292 H 0.78081 0.8494 0.54591 0.0
H293 H 0.75191 0.80806 0.54434 0.0
H294 H 0.78005 0.82398 0.56362 0.0
H295 H 0.68702 0.80704 0.57336 0.0
H296 H 0.71063 0.79312 0.5844 0.0
H297 H 0.70013 0.78433 0.55998 0.0
H298 H 0.76929 0.75604 0.60209 0.0
C299 C 0.76657 0.79793 0.59771 0.0
C300 C 0.02787 0.81081 0.63851 0.0
C301 C 0.00679 0.78014 0.63203 0.0
C302 C 0.01237 0.77125 0.61422 0.0
C303 C 0.05967 0.82291 0.60967 0.0
C304 C 0.05432 0.83164 0.62719 0.0
C305 C 0.08037 0.8645 0.63227 0.0
H306 H 0.22088 0.99734 0.60928 0.0
C307 C 0.08936 0.84973 0.60155 0.0
C308 C 0.10173 0.87418 0.61478 0.0
H309 H 0.16632 0.97645 0.66116 0.0
H310 H 0.12573 0.92617 0.64886 0.0
H311 H 0.21322 0.92843 0.60445 0.0
H312 H 0.16041 0.97163 0.58232 0.0
H313 H 0.16103 0.94731 0.56448 0.0
H314 H 0.19893 0.97984 0.57274 0.0
H315 H 0.22992 0.95961 0.58737 0.0
H316 H 0.20635 0.91897 0.5805 0.0
C317 C 0.09853 0.86237 0.64981 0.0
C318 C 0.06402 0.88481 0.63502 0.0
C319 C 0.12875 0.84084 0.53639 0.0
C320 C 0.15514 0.86213 0.52513 0.0
C321 C 0.17592 0.89277 0.53191 0.0
C322 C 0.17092 0.90193 0.54965 0.0
C323 C 0.14481 0.8803 0.56085 0.0
C324 C 0.12396 0.85048 0.55408 0.0
C325 C 0.09707 0.83097 0.56782 0.0
C326 C 0.10548 0.85392 0.58401 0.0
C327 C 0.13363 0.88264 0.57988 0.0
C328 C 0.10006 0.80193 0.57344 0.0
C329 C 0.06421 0.82288 0.5586 0.0
C330 C 0.20038 0.98183 0.61808 0.0
C331 C 0.197 0.99092 0.63628 0.0
C332 C 0.16946 0.97021 0.64705 0.0
C333 C 0.14599 0.94089 0.63993 0.0
C334 C 0.15002 0.93199 0.62182 0.0
C335 C 0.17679 0.95246 0.6112 0.0
C336 C 0.17713 0.93923 0.59225 0.0
C337 C 0.1465 0.90718 0.59336 0.0
C338 C 0.13066 0.90302 0.6107 0.0
C339 C 0.2083 0.9365 0.59087 0.0
C340 C 0.17448 0.96056 0.57705 0.0
H341 H 0.04137 0.78416 0.58961 0.0
H342 H 0.02433 0.81809 0.65223 0.0
H343 H 0.04498 0.8791 0.6242 0.0
H344 H 0.0812 0.91027 0.63341 0.0
H345 H 0.05212 0.88043 0.64901 0.0
H346 H 0.09968 0.84023 0.64976 0.0
H347 H 0.08601 0.86264 0.66294 0.0
H348 H 0.12423 0.88135 0.65035 0.0
H349 H 0.11212 0.81724 0.53151 0.0
H350 H 0.1966 0.90953 0.52365 0.0
H351 H 0.18785 0.92546 0.55402 0.0
H352 H 0.12603 0.80795 0.5738 0.0
H353 H 0.08724 0.78242 0.56327 0.0
H354 H 0.09077 0.79318 0.58771 0.0
H355 H 0.06668 0.84317 0.55022 0.0
H356 H 0.04481 0.8179 0.56892 0.0
H357 H 0.05576 0.80248 0.549 0.0
H358 H 0.99628 0.74779 0.60893 0.0
C359 C 0.03852 0.79244 0.603 0.0
C360 C 0.87916 0.51055 0.72696 0.0
C361 C 0.88684 0.54019 0.73405 0.0
C362 C 0.90377 0.55014 0.75123 0.0
C363 C 0.90437 0.50113 0.75396 0.0
C364 C 0.88829 0.49167 0.737 0.0
C365 C 0.88264 0.45999 0.73103 0.0
H366 H 0.89517 0.33129 0.74922 0.0
C367 C 0.90981 0.47567 0.7609 0.0
C368 C 0.89721 0.4516 0.74745 0.0
H369 H 0.85863 0.35296 0.69904 0.0
H370 H 0.86874 0.40193 0.71259 0.0
H371 H 0.95756 0.40052 0.75324 0.0
H372 H 0.8623 0.355 0.77848 0.0
H373 H 0.88939 0.37879 0.79596 0.0
H374 H 0.89365 0.34713 0.78607 0.0
H375 H 0.94493 0.36994 0.77056 0.0
H376 H 0.96268 0.41072 0.77709 0.0
C377 C 0.90181 0.46425 0.71253 0.0
C378 C 0.84539 0.43741 0.72954 0.0
C379 C 0.96431 0.48534 0.82399 0.0
C380 C 0.97075 0.46451 0.83427 0.0
C381 C 0.96141 0.43459 0.82683 0.0
C382 C 0.94616 0.42559 0.80936 0.0
C383 C 0.94004 0.44667 0.79917 0.0
C384 C 0.94873 0.47585 0.80657 0.0
C385 C 0.93915 0.49459 0.79396 0.0
C386 C 0.9238 0.472 0.77767 0.0
C387 C 0.92464 0.44411 0.7808 0.0
C388 C 0.97049 0.52504 0.78795 0.0
C389 C 0.91402 0.5003 0.8046 0.0
C390 C 0.88963 0.3467 0.74105 0.0
C391 C 0.87604 0.33814 0.72302 0.0
C392 C 0.86869 0.35872 0.71306 0.0
C393 C 0.87484 0.38732 0.7209 0.0
C394 C 0.88867 0.39561 0.73886 0.0
C395 C 0.89591 0.37548 0.7486 0.0
C396 C 0.91123 0.38851 0.76731 0.0
C397 C 0.91224 0.41995 0.76712 0.0
C398 C 0.8988 0.42382 0.7505 0.0
C399 C 0.94585 0.39254 0.76726 0.0
C400 C 0.88825 0.36626 0.78286 0.0
H401 H 0.9253 0.53967 0.77418 0.0
H402 H 0.86598 0.50193 0.71392 0.0
H403 H 0.83238 0.44141 0.74128 0.0
H404 H 0.83838 0.41233 0.7306 0.0
H405 H 0.83575 0.44122 0.71619 0.0
H406 H 0.92336 0.48832 0.71139 0.0
H407 H 0.88629 0.46058 0.70005 0.0
H408 H 0.9121 0.44838 0.71168 0.0
H409 H 0.97085 0.50834 0.82949 0.0
H410 H 0.96637 0.41827 0.83445 0.0
H411 H 0.93985 0.40258 0.80445 0.0
H412 H 0.99097 0.52037 0.78573 0.0
H413 H 0.97813 0.54352 0.79886 0.0
H414 H 0.96788 0.53461 0.77443 0.0
H415 H 0.89727 0.47928 0.81311 0.0
H416 H 0.89795 0.50425 0.79516 0.0
H417 H 0.92635 0.52059 0.8143 0.0
H418 H 0.91067 0.57312 0.75688 0.0
C419 C 0.91247 0.53076 0.76123 0.0
C420 C 0.65499 0.52086 0.72094 0.0
C421 C 0.67586 0.55166 0.72726 0.0
C422 C 0.66987 0.56083 0.74489 0.0
C423 C 0.62246 0.50922 0.74946 0.0
C424 C 0.62829 0.50021 0.73215 0.0
C425 C 0.60239 0.46729 0.72709 0.0
H426 H 0.45788 0.33775 0.74774 0.0
C427 C 0.59238 0.4826 0.75741 0.0
C428 C 0.58038 0.45799 0.74428 0.0
H429 H 0.51836 0.35451 0.69861 0.0
H430 H 0.55857 0.40464 0.71107 0.0
H431 H 0.51512 0.35913 0.77621 0.0
H432 H 0.46936 0.40784 0.75228 0.0
H433 H 0.47397 0.41577 0.77651 0.0
H434 H 0.44977 0.37576 0.76866 0.0
H435 H 0.47803 0.35482 0.7857 0.0
H436 H 0.51745 0.3855 0.79355 0.0
C437 C 0.61873 0.44684 0.72502 0.0
C438 C 0.585 0.46924 0.70916 0.0
C439 C 0.55077 0.49182 0.82195 0.0
C440 C 0.52382 0.47056 0.83289 0.0
C441 C 0.50267 0.44031 0.82572 0.0
C442 C 0.50797 0.43138 0.80801 0.0
C443 C 0.53481 0.45284 0.7972 0.0
C444 C 0.55591 0.48238 0.80426 0.0
C445 C 0.58349 0.50168 0.79083 0.0
C446 C 0.57545 0.47877 0.77464 0.0
C447 C 0.5467 0.45037 0.77843 0.0
C448 C 0.61583 0.50928 0.80053 0.0
C449 C 0.5813 0.53106 0.78498 0.0
C450 C 0.47986 0.35193 0.73967 0.0
C451 C 0.48447 0.34202 0.72197 0.0
C452 C 0.51357 0.36169 0.71204 0.0
C453 C 0.5371 0.39081 0.71936 0.0
C454 C 0.53173 0.40053 0.73689 0.0
C455 C 0.50374 0.38091 0.74685 0.0
C456 C 0.50264 0.39439 0.76558 0.0
C457 C 0.53411 0.42581 0.76497 0.0
C458 C 0.55098 0.42944 0.74808 0.0
C459 C 0.5031 0.37238 0.78115 0.0
C460 C 0.4723 0.39858 0.76598 0.0
H461 H 0.64029 0.54827 0.76928 0.0
H462 H 0.65884 0.51333 0.70736 0.0
H463 H 0.58223 0.4905 0.70945 0.0
H464 H 0.55998 0.44928 0.70773 0.0
H465 H 0.59913 0.47073 0.69636 0.0
H466 H 0.63859 0.4538 0.73547 0.0
H467 H 0.62959 0.44957 0.71083 0.0
H468 H 0.60178 0.42161 0.72779 0.0
H469 H 0.56762 0.51517 0.8271 0.0
H470 H 0.48152 0.42363 0.8337 0.0
H471 H 0.49073 0.40814 0.80335 0.0
H472 H 0.61289 0.48853 0.80859 0.0
H473 H 0.6237 0.52914 0.8105 0.0
H474 H 0.6358 0.51491 0.79051 0.0
H475 H 0.55549 0.52552 0.78436 0.0
H476 H 0.59101 0.53962 0.77075 0.0
H477 H 0.59418 0.55055 0.79515 0.0
H478 H 0.6858 0.5844 0.75008 0.0
C479 C 0.64347 0.5398 0.75603 0.0
C480 C 0.64816 0.12663 0.71971 0.0
C481 C 0.6709 0.11824 0.72631 0.0
C482 C 0.66626 0.10461 0.74432 0.0
C483 C 0.61663 0.10685 0.74867 0.0
C484 C 0.62102 0.1204 0.73105 0.0
C485 C 0.59326 0.12597 0.72604 0.0
H486 H 0.44398 0.10632 0.74837 0.0
C487 C 0.58578 0.10259 0.75677 0.0
C488 C 0.57174 0.11362 0.74352 0.0
H489 H 0.50011 0.14894 0.69814 0.0
H490 H 0.54423 0.14215 0.71017 0.0
H491 H 0.46146 0.05038 0.75305 0.0
H492 H 0.50261 0.14362 0.77594 0.0
H493 H 0.50622 0.12038 0.79349 0.0
H494 H 0.46624 0.11117 0.78549 0.0
H495 H 0.44052 0.06189 0.76946 0.0
H496 H 0.4675 0.04828 0.77727 0.0
C497 C 0.57611 0.10617 0.70847 0.0
C498 C 0.60722 0.16176 0.72333 0.0
C499 C 0.54894 0.05316 0.82194 0.0
C500 C 0.52162 0.04624 0.83323 0.0
C501 C 0.49854 0.05392 0.82627 0.0
C502 C 0.50223 0.06768 0.80846 0.0
C503 C 0.5294 0.07412 0.79729 0.0
C504 C 0.55241 0.06722 0.80418 0.0
C505 C 0.58002 0.07631 0.79046 0.0
C506 C 0.56978 0.08977 0.77423 0.0
C507 C 0.53993 0.08812 0.77825 0.0
C508 C 0.58044 0.04599 0.78479 0.0
C509 C 0.61181 0.10178 0.7998 0.0
C510 C 0.46569 0.11397 0.7399 0.0
C511 C 0.46838 0.12776 0.72218 0.0
C512 C 0.49742 0.13817 0.71182 0.0
C513 C 0.52292 0.13405 0.71879 0.0
C514 C 0.51956 0.1196 0.73643 0.0
C515 C 0.49146 0.11042 0.74678 0.0
C516 C 0.4925 0.09703 0.76561 0.0
C517 C 0.52531 0.09857 0.76471 0.0
C518 C 0.54114 0.11157 0.74751 0.0
C519 C 0.46396 0.06263 0.76659 0.0
C520 C 0.49163 0.11889 0.78103 0.0
H521 H 0.63759 0.08853 0.769 0.0
H522 H 0.65093 0.13693 0.70589 0.0
H523 H 0.6264 0.17528 0.73392 0.0
H524 H 0.58874 0.16894 0.72536 0.0
H525 H 0.61838 0.16951 0.70919 0.0
H526 H 0.57339 0.08232 0.70963 0.0
H527 H 0.59045 0.11752 0.69557 0.0
H528 H 0.55121 0.10212 0.70661 0.0
H529 H 0.56735 0.04791 0.82685 0.0
H530 H 0.47709 0.04857 0.83446 0.0
H531 H 0.48351 0.07249 0.804 0.0
H532 H 0.55536 0.02528 0.78466 0.0
H533 H 0.59507 0.0407 0.79479 0.0
H534 H 0.58972 0.04714 0.77041 0.0
H535 H 0.60716 0.11824 0.80822 0.0
H536 H 0.63071 0.1169 0.78954 0.0
H537 H 0.62197 0.09095 0.80939 0.0
H538 H 0.6835 0.09818 0.74979 0.0
C539 C 0.63953 0.09904 0.75549 0.0
C540 C 0.85783 0.53766 0.97094 0.0
C541 C 0.88874 0.54556 0.96368 0.0
C542 C 0.89717 0.55853 0.94547 0.0
C543 C 0.8453 0.55681 0.94226 0.0
C544 C 0.83667 0.54382 0.96007 0.0
C545 C 0.80363 0.53878 0.96581 0.0
H546 H 0.67519 0.56083 0.94666 0.0
C547 C 0.81877 0.56151 0.93484 0.0
C548 C 0.79423 0.5512 0.94865 0.0
H549 H 0.68817 0.51672 0.99588 0.0
H550 H 0.73872 0.52321 0.98293 0.0
H551 H 0.7493 0.61585 0.94183 0.0
H552 H 0.69467 0.52345 0.91777 0.0
H553 H 0.72027 0.5483 0.89996 0.0
H554 H 0.68976 0.55573 0.91006 0.0
H555 H 0.71795 0.6059 0.92468 0.0
H556 H 0.75951 0.61921 0.91789 0.0
C557 C 0.8081 0.55882 0.98346 0.0
C558 C 0.78041 0.50308 0.96875 0.0
C559 C 0.83011 0.61017 0.86968 0.0
C560 C 0.81075 0.61952 0.85956 0.0
C561 C 0.78112 0.61405 0.86761 0.0
C562 C 0.77113 0.60001 0.88538 0.0
C563 C 0.79097 0.59136 0.89549 0.0
C564 C 0.81987 0.59637 0.88759 0.0
C565 C 0.83827 0.5866 0.90069 0.0
C566 C 0.8154 0.57441 0.91758 0.0
C567 C 0.78775 0.5773 0.91444 0.0
C568 C 0.87121 0.61627 0.90552 0.0
C569 C 0.84156 0.55999 0.89111 0.0
C570 C 0.68906 0.55279 0.95473 0.0
C571 C 0.67793 0.53868 0.97244 0.0
C572 C 0.69628 0.52777 0.98224 0.0
C573 C 0.72568 0.53169 0.97472 0.0
C574 C 0.73676 0.54639 0.95709 0.0
C575 C 0.71807 0.55609 0.94731 0.0
C576 C 0.73239 0.56977 0.92841 0.0
C577 C 0.76318 0.56746 0.92852 0.0
C578 C 0.76602 0.55406 0.94544 0.0
C579 C 0.74008 0.60444 0.92798 0.0
C580 C 0.7081 0.54851 0.91315 0.0
H581 H 0.88381 0.57397 0.92104 0.0
H582 H 0.85075 0.52783 0.98493 0.0
H583 H 0.78501 0.48926 0.95804 0.0
H584 H 0.75453 0.49618 0.96707 0.0
H585 H 0.78393 0.4954 0.98281 0.0
H586 H 0.82987 0.58266 0.98189 0.0
H587 H 0.81164 0.54767 0.99616 0.0
H588 H 0.78748 0.56282 0.98598 0.0
H589 H 0.85322 0.6144 0.86406 0.0
H590 H 0.76557 0.6207 0.86011 0.0
H591 H 0.74841 0.59675 0.89065 0.0
H592 H 0.86936 0.63802 0.90476 0.0
H593 H 0.89074 0.6193 0.89564 0.0
H594 H 0.87912 0.6159 0.92006 0.0
H595 H 0.81842 0.54316 0.88403 0.0
H596 H 0.84643 0.54562 0.90112 0.0
H597 H 0.86112 0.5697 0.88029 0.0
H598 H 0.92063 0.56454 0.9395 0.0
C599 C 0.87569 0.564 0.93475 0.0
C600 C 0.464 0.15103 0.96519 0.0
C601 C 0.45626 0.12127 0.95828 0.0
C602 C 0.43886 0.11094 0.94125 0.0
C603 C 0.43809 0.15988 0.9383 0.0
C604 C 0.45451 0.16964 0.95514 0.0
C605 C 0.46017 0.20136 0.96101 0.0
H606 H 0.448 0.33012 0.94262 0.0
C607 C 0.43249 0.18524 0.9313 0.0
C608 C 0.44526 0.20947 0.94465 0.0
H609 H 0.48487 0.30861 0.99273 0.0
H610 H 0.47417 0.25939 0.97934 0.0
H611 H 0.48015 0.3057 0.91334 0.0
H612 H 0.38518 0.26092 0.93893 0.0
H613 H 0.37973 0.25037 0.91512 0.0
H614 H 0.39773 0.29128 0.92145 0.0
H615 H 0.44889 0.31379 0.90585 0.0
H616 H 0.45277 0.2819 0.89598 0.0
C617 C 0.49744 0.22403 0.96227 0.0
C618 C 0.44131 0.19729 0.97961 0.0
C619 C 0.37819 0.17555 0.86803 0.0
C620 C 0.37189 0.19645 0.85769 0.0
C621 C 0.381 0.22626 0.86522 0.0
C622 C 0.39599 0.23516 0.88277 0.0
C623 C 0.40212 0.2141 0.89296 0.0
C624 C 0.39354 0.18495 0.88554 0.0
C625 C 0.40306 0.16621 0.89822 0.0
C626 C 0.41837 0.18881 0.91453 0.0
C627 C 0.41751 0.21669 0.91136 0.0
C628 C 0.4282 0.16045 0.88764 0.0
C629 C 0.37171 0.13577 0.90421 0.0
C630 C 0.45348 0.31469 0.95081 0.0
C631 C 0.4674 0.32341 0.96877 0.0
C632 C 0.47461 0.30276 0.97876 0.0
C633 C 0.4681 0.274 0.97102 0.0
C634 C 0.45403 0.26558 0.95312 0.0
C635 C 0.44684 0.28572 0.94336 0.0
C636 C 0.43128 0.27253 0.92471 0.0
C637 C 0.43008 0.24098 0.92497 0.0
C638 C 0.44366 0.23723 0.94157 0.0
C639 C 0.45415 0.29457 0.90906 0.0
C640 C 0.39673 0.26867 0.92485 0.0
H641 H 0.4167 0.12092 0.91838 0.0
H642 H 0.47753 0.15999 0.97809 0.0
H643 H 0.41995 0.17313 0.98098 0.0
H644 H 0.43076 0.21295 0.98041 0.0
H645 H 0.45711 0.20139 0.99201 0.0
H646 H 0.51028 0.21987 0.95049 0.0
H647 H 0.50734 0.22047 0.9756 0.0
H648 H 0.50439 0.24907 0.96108 0.0
H649 H 0.37178 0.15262 0.86249 0.0
H650 H 0.37611 0.24262 0.85759 0.0
H651 H 0.40217 0.25812 0.88771 0.0
H652 H 0.44538 0.18169 0.87943 0.0
H653 H 0.41591 0.14054 0.87768 0.0
H654 H 0.44376 0.15584 0.89711 0.0
H655 H 0.35124 0.14045 0.90641 0.0
H656 H 0.37432 0.1262 0.91773 0.0
H657 H 0.3641 0.1173 0.89329 0.0
H658 H 0.43186 0.08787 0.93573 0.0
C659 C 0.42984 0.13009 0.93122 0.0
C660 C 0.69331 0.14551 0.97118 0.0
C661 C 0.67198 0.11499 0.96459 0.0
C662 C 0.67751 0.10616 0.94675 0.0
C663 C 0.72534 0.15754 0.94243 0.0
C664 C 0.71998 0.16623 0.95996 0.0
C665 C 0.74633 0.19886 0.96521 0.0
H666 H 0.88803 0.33094 0.94305 0.0
C667 C 0.75538 0.18418 0.93447 0.0
C668 C 0.7679 0.20846 0.94781 0.0
H669 H 0.83293 0.30979 0.99476 0.0
H670 H 0.79213 0.25991 0.98217 0.0
H671 H 0.87957 0.26167 0.93804 0.0
H672 H 0.82806 0.30612 0.91581 0.0
H673 H 0.82864 0.28188 0.89791 0.0
H674 H 0.86659 0.31403 0.90642 0.0
H675 H 0.89685 0.29305 0.9211 0.0
H676 H 0.87297 0.25253 0.91404 0.0
C677 C 0.76406 0.1962 0.9828 0.0
C678 C 0.73045 0.21958 0.96795 0.0
C679 C 0.79553 0.1754 0.86946 0.0
C680 C 0.82222 0.19662 0.85835 0.0
C681 C 0.84314 0.22712 0.86529 0.0
C682 C 0.83801 0.23619 0.88302 0.0
C683 C 0.8116 0.21462 0.89407 0.0
C684 C 0.79059 0.18496 0.88715 0.0
C685 C 0.76335 0.16555 0.90073 0.0
C686 C 0.77174 0.18836 0.917 0.0
C687 C 0.80021 0.21693 0.91305 0.0
C688 C 0.76576 0.13619 0.90633 0.0
C689 C 0.73077 0.15796 0.89133 0.0
C690 C 0.86737 0.31546 0.95176 0.0
C691 C 0.8639 0.3244 0.96998 0.0
C692 C 0.83615 0.30371 0.98062 0.0
C693 C 0.81255 0.2746 0.97333 0.0
C694 C 0.81664 0.26587 0.95519 0.0
C695 C 0.84364 0.28628 0.94471 0.0
C696 C 0.84407 0.27318 0.92573 0.0
C697 C 0.81317 0.2413 0.92664 0.0
C698 C 0.79714 0.23712 0.94392 0.0
C699 C 0.875 0.27003 0.92446 0.0
C700 C 0.84197 0.29488 0.91058 0.0
H701 H 0.70671 0.11901 0.92221 0.0
H702 H 0.68984 0.15273 0.98494 0.0
H703 H 0.71165 0.21431 0.95703 0.0
H704 H 0.74796 0.24499 0.9665 0.0
H705 H 0.71832 0.21515 0.98188 0.0
H706 H 0.76456 0.17373 0.98279 0.0
H707 H 0.75167 0.19682 0.9959 0.0
H708 H 0.78995 0.21473 0.98337 0.0
H709 H 0.77877 0.15191 0.86446 0.0
H710 H 0.86405 0.24382 0.85716 0.0
H711 H 0.85507 0.25961 0.88751 0.0
H712 H 0.79164 0.142 0.90707 0.0
H713 H 0.75327 0.11699 0.89594 0.0
H714 H 0.75577 0.12712 0.92045 0.0
H715 H 0.73369 0.1784 0.88294 0.0
H716 H 0.71129 0.1532 0.90155 0.0
H717 H 0.7222 0.13756 0.8817 0.0
H718 H 0.66124 0.08279 0.94138 0.0
C719 C 0.70389 0.12725 0.93562 0.0
C720 C 0.54604 0.84457 0.05998 0.0
C721 C 0.55066 0.87268 0.068 0.0
C722 C 0.56312 0.88037 0.08642 0.0
C723 C 0.56679 0.83286 0.08821 0.0
C724 C 0.55406 0.82508 0.07032 0.0
C725 C 0.55019 0.79423 0.06388 0.0
H726 H 0.56329 0.66566 0.08205 0.0
C727 C 0.57259 0.80758 0.09503 0.0
C728 C 0.56261 0.78476 0.08088 0.0
H729 H 0.52947 0.68849 0.03119 0.0
H730 H 0.53857 0.73705 0.04492 0.0
H731 H 0.62477 0.73507 0.08723 0.0
H732 H 0.52824 0.688 0.11084 0.0
H733 H 0.55476 0.71031 0.12896 0.0
H734 H 0.55918 0.67935 0.11817 0.0
H735 H 0.61227 0.70494 0.10484 0.0
H736 H 0.6287 0.74578 0.11096 0.0
C737 C 0.5723 0.8006 0.04645 0.0
C738 C 0.51345 0.77129 0.06041 0.0
C739 C 0.62588 0.81686 0.1585 0.0
C740 C 0.6337 0.79668 0.16844 0.0
C741 C 0.62541 0.76717 0.16074 0.0
C742 C 0.61013 0.75809 0.14326 0.0
C743 C 0.60293 0.77868 0.13333 0.0
C744 C 0.61035 0.80732 0.14106 0.0
C745 C 0.59976 0.82556 0.1287 0.0
C746 C 0.58578 0.80355 0.11203 0.0
C747 C 0.5879 0.77625 0.11483 0.0
C748 C 0.63035 0.85703 0.12323 0.0
C749 C 0.57331 0.82936 0.13931 0.0
C750 C 0.55813 0.68123 0.07378 0.0
C751 C 0.54549 0.67308 0.05552 0.0
C752 C 0.53871 0.69392 0.04539 0.0
C753 C 0.5442 0.72224 0.05336 0.0
C754 C 0.55671 0.72995 0.07165 0.0
C755 C 0.56365 0.70969 0.08148 0.0
C756 C 0.57754 0.72209 0.10055 0.0
C757 C 0.57746 0.75301 0.10062 0.0
C758 C 0.56512 0.75739 0.0837 0.0
C759 C 0.61257 0.72712 0.10114 0.0
C760 C 0.55401 0.69878 0.11552 0.0
H761 H 0.58073 0.8679 0.1104 0.0
H762 H 0.53683 0.83801 0.04584 0.0
H763 H 0.49822 0.77501 0.07087 0.0
H764 H 0.50652 0.7463 0.06206 0.0
H765 H 0.50611 0.77489 0.04624 0.0
H766 H 0.59487 0.82396 0.04743 0.0
H767 H 0.55957 0.8005 0.03335 0.0
H768 H 0.58106 0.7836 0.04508 0.0
H769 H 0.6315 0.83947 0.16423 0.0
H770 H 0.63136 0.75132 0.16809 0.0
H771 H 0.60473 0.73545 0.13811 0.0
H772 H 0.6509 0.85311 0.11955 0.0
H773 H 0.63838 0.87397 0.13506 0.0
H774 H 0.62666 0.86826 0.11077 0.0
H775 H 0.55914 0.80926 0.14906 0.0
H776 H 0.55485 0.82929 0.1298 0.0
H777 H 0.58436 0.85126 0.14777 0.0
H778 H 0.56637 0.90155 0.09312 0.0
C779 C 0.57126 0.86068 0.09652 0.0
C780 C 0.32239 0.85382 0.05575 0.0
C781 C 0.34306 0.88464 0.0621 0.0
C782 C 0.33702 0.89359 0.07979 0.0
C783 C 0.28981 0.8418 0.08429 0.0
C784 C 0.29578 0.83299 0.06694 0.0
C785 C 0.27007 0.80007 0.06178 0.0
H786 H 0.1253 0.67043 0.08154 0.0
C787 C 0.25967 0.81505 0.09212 0.0
C788 C 0.24789 0.79057 0.07889 0.0
H789 H 0.18676 0.68728 0.03287 0.0
H790 H 0.22682 0.73735 0.04555 0.0
H791 H 0.18193 0.69168 0.1105 0.0
H792 H 0.1363 0.73972 0.08562 0.0
H793 H 0.14106 0.74896 0.10964 0.0
H794 H 0.11674 0.70851 0.10254 0.0
H795 H 0.14436 0.68702 0.11944 0.0
H796 H 0.18336 0.71773 0.1278 0.0
C797 C 0.28659 0.77977 0.05975 0.0
C798 C 0.25281 0.80203 0.0438 0.0
C799 C 0.21555 0.82368 0.15613 0.0
C800 C 0.1873 0.80272 0.16629 0.0
C801 C 0.16663 0.77252 0.1589 0.0
C802 C 0.17323 0.76356 0.14158 0.0
C803 C 0.20087 0.78494 0.13132 0.0
C804 C 0.22178 0.8143 0.13867 0.0
C805 C 0.24986 0.83376 0.12552 0.0
C806 C 0.24233 0.81105 0.10923 0.0
C807 C 0.21344 0.78265 0.11275 0.0
C808 C 0.28182 0.84114 0.13557 0.0
C809 C 0.24801 0.86329 0.11962 0.0
C810 C 0.14748 0.68459 0.07362 0.0
C811 C 0.15244 0.67474 0.056 0.0
C812 C 0.18174 0.69441 0.04625 0.0
C813 C 0.20517 0.72348 0.0537 0.0
C814 C 0.19944 0.73314 0.07116 0.0
C815 C 0.17122 0.71349 0.08093 0.0
C816 C 0.16962 0.72688 0.09957 0.0
C817 C 0.20114 0.75825 0.0992 0.0
C818 C 0.21842 0.76198 0.08247 0.0
C819 C 0.16958 0.70474 0.11522 0.0
C820 C 0.1393 0.73115 0.09955 0.0
H821 H 0.30746 0.88064 0.10423 0.0
H822 H 0.32628 0.84643 0.04214 0.0
H823 H 0.24972 0.82311 0.04415 0.0
H824 H 0.22794 0.7819 0.0422 0.0
H825 H 0.26721 0.8039 0.03105 0.0
H826 H 0.30648 0.78685 0.07019 0.0
H827 H 0.29745 0.7825 0.04556 0.0
H828 H 0.26975 0.75453 0.06256 0.0
H829 H 0.23186 0.84711 0.16137 0.0
H830 H 0.1451 0.7557 0.16655 0.0
H831 H 0.15622 0.74036 0.13676 0.0
H832 H 0.27875 0.82003 0.14327 0.0
H833 H 0.28899 0.86039 0.14592 0.0
H834 H 0.3023 0.8476 0.12579 0.0
H835 H 0.22226 0.85787 0.11874 0.0
H836 H 0.25816 0.872 0.10548 0.0
H837 H 0.26066 0.88264 0.1299 0.0
H838 H 0.35282 0.91717 0.08502 0.0
C839 C 0.31071 0.87235 0.09094 0.0
C840 C 0.317 0.4619 0.05356 0.0
C841 C 0.33983 0.45375 0.06032 0.0
C842 C 0.33535 0.44059 0.07845 0.0
C843 C 0.28554 0.44257 0.08256 0.0
C844 C 0.28987 0.45578 0.06484 0.0
C845 C 0.262 0.46107 0.05964 0.0
H846 H 0.1119 0.43991 0.08117 0.0
C847 C 0.25449 0.43804 0.09049 0.0
C848 C 0.24035 0.4487 0.07705 0.0
H849 H 0.16855 0.48334 0.03122 0.0
H850 H 0.21283 0.47692 0.04343 0.0
H851 H 0.1293 0.38468 0.08539 0.0
H852 H 0.17007 0.47722 0.10913 0.0
H853 H 0.17271 0.45346 0.1267 0.0
H854 H 0.1332 0.44458 0.11804 0.0
H855 H 0.10857 0.39511 0.10257 0.0
H856 H 0.13616 0.38156 0.10934 0.0
C857 C 0.24511 0.44112 0.04207 0.0
C858 C 0.27573 0.4968 0.05683 0.0
C859 C 0.21641 0.38798 0.15553 0.0
C860 C 0.18788 0.37932 0.16608 0.0
C861 C 0.16457 0.38631 0.15868 0.0
C862 C 0.169 0.40079 0.14109 0.0
C863 C 0.19709 0.40851 0.13049 0.0
C864 C 0.22041 0.40241 0.13781 0.0
C865 C 0.24851 0.41203 0.12436 0.0
C866 C 0.23825 0.42506 0.10789 0.0
C867 C 0.20802 0.42276 0.11157 0.0
C868 C 0.24992 0.3821 0.11892 0.0
C869 C 0.27975 0.43794 0.13388 0.0
C870 C 0.13376 0.44783 0.0728 0.0
C871 C 0.13656 0.46173 0.05511 0.0
C872 C 0.16578 0.47248 0.04488 0.0
C873 C 0.19137 0.46858 0.05196 0.0
C874 C 0.18788 0.45402 0.06957 0.0
C875 C 0.15958 0.44451 0.07977 0.0
C876 C 0.16035 0.43089 0.09855 0.0
C877 C 0.19337 0.43291 0.09788 0.0
C878 C 0.20949 0.44619 0.08079 0.0
C879 C 0.13207 0.3963 0.0992 0.0
C880 C 0.15878 0.45235 0.11401 0.0
H881 H 0.30675 0.42498 0.10318 0.0
H882 H 0.31967 0.47185 0.03964 0.0
H883 H 0.29485 0.51049 0.06742 0.0
H884 H 0.25711 0.50383 0.0588 0.0
H885 H 0.28689 0.50451 0.04269 0.0
H886 H 0.24236 0.41728 0.04339 0.0
H887 H 0.25965 0.45236 0.02921 0.0
H888 H 0.22026 0.43708 0.04002 0.0
H889 H 0.23474 0.38278 0.16065 0.0
H890 H 0.14266 0.38048 0.16655 0.0
H891 H 0.15008 0.40507 0.13632 0.0
H892 H 0.22517 0.3609 0.11899 0.0
H893 H 0.26518 0.37765 0.1289 0.0
H894 H 0.25903 0.38319 0.10449 0.0
H895 H 0.27454 0.45459 0.14169 0.0
H896 H 0.29911 0.45272 0.12376 0.0
H897 H 0.28953 0.42755 0.14407 0.0
H898 H 0.35268 0.43438 0.08403 0.0
C899 C 0.30861 0.43515 0.08958 0.0
C900 C 0.52186 0.86955 0.3049 0.0
C901 C 0.5531 0.87796 0.29794 0.0
C902 C 0.56202 0.89133 0.27987 0.0
C903 C 0.50997 0.88896 0.27614 0.0
C904 C 0.50083 0.87559 0.29382 0.0
C905 C 0.46741 0.86998 0.29917 0.0
H906 H 0.33822 0.88999 0.27849 0.0
C907 C 0.48339 0.89324 0.2684 0.0
C908 C 0.45829 0.88233 0.28186 0.0
H909 H 0.35116 0.84668 0.3281 0.0
H910 H 0.40201 0.85354 0.3155 0.0
H911 H 0.41306 0.94588 0.27363 0.0
H912 H 0.3594 0.85298 0.24983 0.0
H913 H 0.38522 0.87816 0.23218 0.0
H914 H 0.35389 0.88479 0.24187 0.0
H915 H 0.38057 0.93486 0.25711 0.0
H916 H 0.42174 0.94857 0.24944 0.0
C917 C 0.47103 0.88977 0.31682 0.0
C918 C 0.44455 0.83418 0.30192 0.0
C919 C 0.49735 0.94286 0.20358 0.0
C920 C 0.47793 0.95109 0.19261 0.0
C921 C 0.44728 0.94434 0.1998 0.0
C922 C 0.43649 0.93023 0.21755 0.0
C923 C 0.45644 0.92263 0.22842 0.0
C924 C 0.48619 0.92876 0.22128 0.0
C925 C 0.50428 0.91925 0.23472 0.0
C926 C 0.48044 0.9062 0.25109 0.0
C927 C 0.45249 0.90834 0.2474 0.0
C928 C 0.53647 0.94929 0.24021 0.0
C929 C 0.50891 0.89334 0.22521 0.0
C930 C 0.35213 0.88217 0.28669 0.0
C931 C 0.34089 0.86817 0.30443 0.0
C932 C 0.35932 0.85758 0.31443 0.0
C933 C 0.38892 0.86176 0.30712 0.0
C934 C 0.40018 0.87645 0.28951 0.0
C935 C 0.38142 0.88579 0.27947 0.0
C936 C 0.39612 0.89956 0.26063 0.0
C937 C 0.42729 0.89789 0.26114 0.0
C938 C 0.42986 0.88459 0.27818 0.0
C939 C 0.40315 0.93399 0.25997 0.0
C940 C 0.37251 0.87805 0.24522 0.0
H941 H 0.54925 0.90701 0.25537 0.0
H942 H 0.51442 0.85938 0.31879 0.0
H943 H 0.44983 0.82066 0.29133 0.0
H944 H 0.41863 0.8269 0.29991 0.0
H945 H 0.44773 0.82648 0.31605 0.0
H946 H 0.49278 0.91368 0.31551 0.0
H947 H 0.47411 0.8785 0.32961 0.0
H948 H 0.45025 0.89365 0.31899 0.0
H949 H 0.52083 0.94726 0.19852 0.0
H950 H 0.43188 0.95067 0.19188 0.0
H951 H 0.41314 0.92613 0.22224 0.0
H952 H 0.53381 0.9706 0.23962 0.0
H953 H 0.55667 0.95335 0.23057 0.0
H954 H 0.54387 0.94859 0.25483 0.0
H955 H 0.48689 0.87705 0.21704 0.0
H956 H 0.51223 0.8781 0.23536 0.0
H957 H 0.52994 0.90378 0.21536 0.0
H958 H 0.58575 0.89771 0.27414 0.0
C959 C 0.54072 0.8967 0.26896 0.0
C960 C 0.11681 0.47613 0.30442 0.0
C961 C 0.11131 0.44738 0.29704 0.0
C962 C 0.09565 0.43739 0.27951 0.0
C963 C 0.09317 0.48543 0.27654 0.0
C964 C 0.10776 0.49473 0.29395 0.0
C965 C 0.11384 0.52677 0.29933 0.0
H966 H 0.10412 0.65621 0.27879 0.0
C967 C 0.0886 0.51108 0.26892 0.0
C968 C 0.10075 0.53533 0.28227 0.0
H969 H 0.14582 0.63791 0.32797 0.0
H970 H 0.13207 0.58711 0.31588 0.0
H971 H 0.13719 0.63274 0.25029 0.0
H972 H 0.04143 0.58615 0.2748 0.0
H973 H 0.03717 0.57684 0.25077 0.0
H974 H 0.0547 0.61736 0.25784 0.0
H975 H 0.10526 0.63885 0.24156 0.0
H976 H 0.11126 0.60749 0.2329 0.0
C977 C 0.15113 0.54881 0.30163 0.0
C978 C 0.09347 0.5231 0.31719 0.0
C979 C 0.03922 0.50223 0.20406 0.0
C980 C 0.03379 0.52333 0.19329 0.0
C981 C 0.04196 0.55287 0.20089 0.0
C982 C 0.05531 0.56138 0.21885 0.0
C983 C 0.06084 0.54026 0.22941 0.0
C984 C 0.05297 0.51127 0.222 0.0
C985 C 0.06164 0.49243 0.23516 0.0
C986 C 0.07571 0.51482 0.25168 0.0
C987 C 0.07501 0.54271 0.24818 0.0
C988 C 0.08757 0.48684 0.22541 0.0
C989 C 0.02993 0.4619 0.24055 0.0
C990 C 0.11057 0.64143 0.28692 0.0
C991 C 0.12589 0.65119 0.30448 0.0
C992 C 0.13342 0.63086 0.31461 0.0
C993 C 0.12564 0.60136 0.30748 0.0
C994 C 0.11041 0.59203 0.28992 0.0
C995 C 0.10332 0.61201 0.27989 0.0
C996 C 0.08817 0.59857 0.26119 0.0
C997 C 0.08697 0.56703 0.26178 0.0
C998 C 0.09986 0.56334 0.27867 0.0
C999 C 0.11136 0.62048 0.24558 0.0
C1000 C 0.05361 0.59462 0.26093 0.0
H1001 H 0.07497 0.44747 0.25595 0.0
H1002 H 0.12917 0.48466 0.3177 0.0
H1003 H 0.06934 0.50116 0.31655 0.0
H1004 H 0.08776 0.54222 0.31887 0.0
H1005 H 0.10607 0.52175 0.32999 0.0
H1006 H 0.16509 0.54146 0.29238 0.0
H1007 H 0.15888 0.54855 0.3163 0.0
H1008 H 0.15937 0.57338 0.29738 0.0
H1009 H 0.03343 0.47946 0.19851 0.0
H1010 H 0.03762 0.56933 0.19297 0.0
H1011 H 0.06084 0.58415 0.2238 0.0
H1012 H 0.10465 0.50775 0.21692 0.0
H1013 H 0.07599 0.46632 0.21582 0.0
H1014 H 0.10324 0.48334 0.23543 0.0
H1015 H 0.00959 0.46679 0.24272 0.0
H1016 H 0.03193 0.45153 0.25389 0.0
H1017 H 0.02254 0.44399 0.22929 0.0
H1018 H 0.09082 0.41511 0.27363 0.0
C1019 C 0.08647 0.4562 0.26926 0.0
C1020 C 0.36259 0.47781 0.30442 0.0
C1021 C 0.34165 0.44705 0.29813 0.0
C1022 C 0.34748 0.4377 0.28054 0.0
C1023 C 0.39473 0.48934 0.27577 0.0
C1024 C 0.38914 0.49838 0.29314 0.0
C1025 C 0.41513 0.53122 0.29819 0.0
H1026 H 0.55564 0.66385 0.27565 0.0
C1027 C 0.42455 0.51606 0.26768 0.0
C1028 C 0.43672 0.54061 0.28083 0.0
H1029 H 0.50052 0.64243 0.32736 0.0
H1030 H 0.46022 0.59226 0.31491 0.0
H1031 H 0.54836 0.59507 0.27094 0.0
H1032 H 0.49566 0.63809 0.24843 0.0
H1033 H 0.49624 0.61363 0.23068 0.0
H1034 H 0.53417 0.64618 0.23892 0.0
H1035 H 0.56514 0.62624 0.25385 0.0
H1036 H 0.5418 0.58557 0.24698 0.0
C1037 C 0.43298 0.52924 0.31594 0.0
C1038 C 0.39881 0.55163 0.30057 0.0
C1039 C 0.46477 0.50728 0.2027 0.0
C1040 C 0.49118 0.52872 0.19151 0.0
C1041 C 0.51179 0.55935 0.19835 0.0
C1042 C 0.50658 0.5684 0.21605 0.0
C1043 C 0.48043 0.54665 0.22717 0.0
C1044 C 0.45974 0.51681 0.22037 0.0
C1045 C 0.43275 0.49723 0.23406 0.0
C1046 C 0.44089 0.52019 0.25022 0.0
C1047 C 0.46903 0.54896 0.24612 0.0
C1048 C 0.43581 0.46828 0.23978 0.0
C1049 C 0.39994 0.48896 0.22472 0.0
C1050 C 0.53507 0.64824 0.28438 0.0
C1051 C 0.53142 0.65717 0.30256 0.0
C1052 C 0.50384 0.63633 0.31325 0.0
C1053 C 0.48053 0.60706 0.30604 0.0
C1054 C 0.48479 0.59834 0.28795 0.0
C1055 C 0.51164 0.61888 0.27742 0.0
C1056 C 0.51228 0.60567 0.25851 0.0
C1057 C 0.4817 0.57356 0.25956 0.0
C1058 C 0.46566 0.56941 0.27681 0.0
C1059 C 0.54355 0.60309 0.2573 0.0
C1060 C 0.5097 0.62695 0.24324 0.0
H1061 H 0.37684 0.45013 0.25605 0.0
H1062 H 0.35888 0.48536 0.31803 0.0
H1063 H 0.38017 0.54603 0.2895 0.0
H1064 H 0.41611 0.57708 0.29907 0.0
H1065 H 0.38641 0.54723 0.3144 0.0
H1066 H 0.43293 0.50652 0.31655 0.0
H1067 H 0.42108 0.53104 0.32896 0.0
H1068 H 0.45905 0.5474 0.31615 0.0
H1069 H 0.44828 0.48368 0.19778 0.0
H1070 H 0.5325 0.57622 0.19014 0.0
H1071 H 0.52338 0.59194 0.22046 0.0
H1072 H 0.46181 0.47443 0.24031 0.0
H1073 H 0.42324 0.44879 0.22958 0.0
H1074 H 0.42628 0.45949 0.25401 0.0
H1075 H 0.40224 0.50939 0.21657 0.0
H1076 H 0.38025 0.48329 0.23495 0.0
H1077 H 0.392 0.46892 0.21487 0.0
H1078 H 0.33152 0.41405 0.27547 0.0
C1079 C 0.37374 0.45869 0.26929 0.0
Tb1080 Tb 0.49318 0.97534 0.99206 0.0
C1081 C 0.56272 0.0972 0.03891 0.0
C1082 C 0.61951 0.11239 0.03611 0.0
C1083 C 0.60424 0.15245 0.04081 0.0
C1084 C 0.58627 0.08909 0.03617 0.0
C1085 C 0.57132 0.12886 0.0418 0.0
C1086 C 0.62834 0.14422 0.03793 0.0
C1087 C 0.51469 0.111 0.04832 0.0
N1088 N 0.53139 0.07365 0.03997 0.0
C1089 C 0.5075 0.07995 0.0454 0.0
C1090 C 0.54668 0.13564 0.04622 0.0
Tb1091 Tb 0.52127 0.02356 0.03406 0.0
N1092 N 0.57657 0.05808 0.03477 0.0
C1093 C 0.59936 0.04865 0.03492 0.0
C1094 C 0.64281 0.10288 0.03489 0.0
C1095 C 0.63266 0.07082 0.03463 0.0
H1096 H 0.48265 0.06117 0.04702 0.0
H1097 H 0.65047 0.06313 0.03414 0.0
H1098 H 0.65373 0.16251 0.03772 0.0
H1099 H 0.49553 0.11589 0.05217 0.0
H1100 H 0.59225 0.02408 0.03459 0.0
H1101 H 0.3644 0.9369 0.99072 0.0
H1102 H 0.6686 0.12001 0.03473 0.0
H1103 H 0.53242 0.93664 0.98269 0.0
H1104 H 0.42284 0.9757 0.99081 0.0
H1105 H 0.51913 0.88151 0.97886 0.0
H1106 H 0.61137 0.17698 0.04279 0.0
H1107 H 0.34588 0.87993 0.99028 0.0
H1108 H 0.36036 0.83707 0.98824 0.0
H1109 H 0.55223 0.15966 0.04857 0.0
H1110 H 0.40254 0.82194 0.98486 0.0
N1111 N 0.43798 0.94132 0.991 0.0
C1112 C 0.41543 0.95103 0.99057 0.0
C1113 C 0.37171 0.89691 0.99033 0.0
C1114 C 0.39485 0.88714 0.98962 0.0
C1115 C 0.38208 0.92903 0.99054 0.0
C1116 C 0.42815 0.91024 0.98982 0.0
H1117 H 0.46187 0.8384 0.9811 0.0
N1118 N 0.48322 0.925 0.98751 0.0
C1119 C 0.4999 0.88686 0.9815 0.0
C1120 C 0.45166 0.90175 0.98797 0.0
C1121 C 0.50732 0.91812 0.98364 0.0
C1122 C 0.46757 0.86259 0.98281 0.0
C1123 C 0.44288 0.86991 0.98582 0.0
O1124 O 0.51862 0.98227 0.96659 0.0
O1125 O 0.5316 0.01676 1.00546 0.0
O1126 O 0.51355 0.05197 0.0131 0.0
O1127 O 0.48009 0.01256 0.99179 0.0
O1128 O 0.54495 0.99071 0.98938 0.0
O1129 O 0.47484 0.98515 0.96755 0.0
O1130 O 0.49604 0.01532 0.05978 0.0
O1131 O 0.48268 0.9827 0.02042 0.0
O1132 O 0.49826 0.94678 0.014 0.0
O1133 O 0.5356 0.98714 0.03319 0.0
O1134 O 0.46949 0.00834 0.03682 0.0
O1135 O 0.53925 0.01175 0.05793 0.0
C1136 C 0.5561 0.01607 0.99906 0.0
C1137 C 0.48899 0.97195 0.93834 0.0
C1138 C 0.49156 0.97684 0.90397 0.0
C1139 C 0.49871 0.99077 0.92195 0.0
C1140 C 0.47417 0.94376 0.90279 0.0
C1141 C 0.47161 0.9391 0.93672 0.0
C1142 C 0.46424 0.92514 0.91902 0.0
C1143 C 0.49358 0.04162 0.99848 0.0
C1144 C 0.49816 0.98701 0.95693 0.0
C1145 C 0.40982 0.84659 0.98633 0.0
C1146 C 0.38582 0.8552 0.98825 0.0
C1147 C 0.45815 0.98335 0.02678 0.0
C1148 C 0.52676 0.02492 0.08754 0.0
C1149 C 0.51498 0.00646 0.104 0.0
C1150 C 0.52485 0.0203 0.12191 0.0
C1151 C 0.5464 0.05301 0.12294 0.0
C1152 C 0.54828 0.05735 0.08901 0.0
C1153 C 0.55795 0.07127 0.10663 0.0
C1154 C 0.52017 0.95738 0.02762 0.0
C1155 C 0.51647 0.00997 0.06897 0.0
H1156 H 0.51237 0.0162 0.92322 0.0
H1157 H 0.46783 0.93221 0.88927 0.0
H1158 H 0.46392 0.92428 0.94911 0.0
H1159 H 0.45079 0.89974 0.91786 0.0
H1160 H 0.49859 0.98131 0.10281 0.0
H1161 H 0.55409 0.06463 0.13638 0.0
H1162 H 0.55762 0.07188 0.07656 0.0
H1163 H 0.57448 0.09638 0.10768 0.0
Tb1164 Tb 0.03206 0.50655 0.99153 0.0
C1165 C 0.90785 0.46246 0.03724 0.0
C1166 C 0.89475 0.50394 0.03333 0.0
C1167 C 0.85136 0.44998 0.03831 0.0
C1168 C 0.91779 0.49373 0.0341 0.0
C1169 C 0.87462 0.44028 0.03987 0.0
C1170 C 0.86141 0.48178 0.03501 0.0
C1171 C 0.89028 0.4014 0.04705 0.0
N1172 N 0.93111 0.45414 0.03876 0.0
C1173 C 0.92296 0.42435 0.04439 0.0
C1174 C 0.86595 0.40929 0.04454 0.0
Tb1175 Tb 0.9838 0.49314 0.03362 0.0
N1176 N 0.95022 0.51437 0.03274 0.0
C1177 C 0.96134 0.54604 0.03194 0.0
C1178 C 0.90597 0.53617 0.0314 0.0
C1179 C 0.93944 0.55733 0.03098 0.0
H1180 H 0.94161 0.41803 0.04626 0.0
H1181 H 0.94841 0.58237 0.02984 0.0
H1182 H 0.8433 0.4891 0.03426 0.0
H1183 H 0.88388 0.37766 0.05102 0.0
H1184 H 0.98708 0.56277 0.03146 0.0
H1185 H 0.06801 0.41767 0.99672 0.0
H1186 H 0.88907 0.54498 0.03066 0.0
H1187 H 0.07348 0.57936 0.97504 0.0
H1188 H 0.02932 0.43704 0.99471 0.0
H1189 H 0.13086 0.6194 0.96909 0.0
H1190 H 0.82565 0.43325 0.04009 0.0
H1191 H 0.12731 0.45505 0.99545 0.0
H1192 H 0.17294 0.51075 0.99088 0.0
H1193 H 0.84067 0.3915 0.04667 0.0
H1194 H 0.19022 0.56606 0.98344 0.0
N1195 N 0.066 0.48551 0.99276 0.0
C1196 C 0.05499 0.45387 0.99401 0.0
C1197 C 0.11037 0.4638 0.99452 0.0
C1198 C 0.12149 0.49589 0.99202 0.0
C1199 C 0.07694 0.44265 0.99519 0.0
C1200 C 0.09838 0.50601 0.99103 0.0
H1201 H 0.17461 0.60676 0.97491 0.0
N1202 N 0.08462 0.54476 0.98495 0.0
C1203 C 0.12484 0.59634 0.9743 0.0
C1204 C 0.1081 0.53691 0.98706 0.0
C1205 C 0.09232 0.57355 0.97767 0.0
C1206 C 0.14947 0.58916 0.97766 0.0
C1207 C 0.14118 0.55887 0.98371 0.0
O1208 O 0.02464 0.52025 0.96482 0.0
O1209 O 0.9905 0.5062 1.00439 0.0
O1210 O 0.95282 0.4578 0.01321 0.0
O1211 O 0.99259 0.4569 0.9944 0.0
O1212 O 0.01683 0.54133 0.98576 0.0
O1213 O 0.02093 0.4751 0.96903 0.0
O1214 O 0.98872 0.47704 0.06012 0.0
O1215 O 0.02586 0.49454 0.02091 0.0
O1216 O 0.06276 0.54499 1.01041 0.0
O1217 O 0.02417 0.54246 0.03216 0.0
O1218 O 0.99994 0.45891 0.03934 0.0
O1219 O 0.99309 0.52277 0.05692 0.0
C1220 C 0.99146 0.52965 0.99637 0.0
C1221 C 0.03864 0.49911 0.93932 0.0
C1222 C 0.03867 0.49751 0.90514 0.0
C1223 C 0.02193 0.49254 0.92224 0.0
C1224 C 0.0725 0.50934 0.90535 0.0
C1225 C 0.07229 0.5104 0.93931 0.0
C1226 C 0.08913 0.51561 0.92238 0.0
C1227 C 0.96207 0.4442 1.00051 0.0
C1228 C 0.02053 0.49472 0.95685 0.0
C1229 C 0.16461 0.54946 0.98571 0.0
C1230 C 0.15476 0.51797 0.98991 0.0
C1231 C 0.02572 0.47162 0.02906 0.0
C1232 C 0.97386 0.49659 0.08611 0.0
C1233 C 0.98978 0.50158 0.10342 0.0
C1234 C 0.97224 0.49508 0.12037 0.0
C1235 C 0.93845 0.48342 0.11973 0.0
C1236 C 0.94024 0.48537 0.08577 0.0
C1237 C 0.92264 0.47875 0.10251 0.0
C1238 C 0.05362 0.55681 0.02431 0.0
C1239 C 0.99264 0.50211 0.06868 0.0
H1240 H 0.99591 0.4839 0.92226 0.0
H1241 H 0.08594 0.51316 0.89237 0.0
H1242 H 0.08553 0.5152 0.95229 0.0
H1243 H 0.11512 0.52441 0.92246 0.0
H1244 H 0.01577 0.51012 0.10367 0.0
H1245 H 0.92437 0.47852 0.13254 0.0
H1246 H 0.92758 0.48166 0.07264 0.0
H1247 H 0.89668 0.47004 0.10214 0.0
Tb1248 Tb 0.52209 0.49048 0.03388 0.0
C1249 C 0.45064 0.53979 0.98522 0.0
C1250 C 0.39375 0.50029 0.9881 0.0
C1251 C 0.40917 0.555 0.98264 0.0
C1252 C 0.42697 0.50895 0.9882 0.0
C1253 C 0.44212 0.56315 0.98201 0.0
C1254 C 0.38501 0.52359 0.98571 0.0
C1255 C 0.49906 0.60018 0.9764 0.0
N1256 N 0.4821 0.54658 0.98465 0.0
C1257 C 0.50624 0.5761 0.9796 0.0
C1258 C 0.4669 0.59378 0.97782 0.0
Tb1259 Tb 0.49162 0.50591 0.99091 0.0
N1260 N 0.4365 0.48721 0.99028 0.0
C1261 C 0.41369 0.45587 0.99097 0.0
C1262 C 0.37038 0.46841 0.98992 0.0
C1263 C 0.38041 0.44607 0.99109 0.0
H1264 H 0.53121 0.58141 0.97856 0.0
H1265 H 0.36254 0.42129 0.99214 0.0
H1266 H 0.35963 0.51746 0.98576 0.0
H1267 H 0.51834 0.62366 0.97285 0.0
H1268 H 0.42086 0.43823 0.99199 0.0
H1269 H 0.65082 0.57664 0.03357 0.0
H1270 H 0.34461 0.46076 0.98999 0.0
H1271 H 0.48342 0.41475 0.04576 0.0
H1272 H 0.59236 0.55884 0.03315 0.0
H1273 H 0.4971 0.37305 0.0514 0.0
H1274 H 0.40209 0.57264 0.98038 0.0
H1275 H 0.66963 0.53786 0.036 0.0
H1276 H 0.65548 0.48139 0.04002 0.0
H1277 H 0.46139 0.61244 0.97528 0.0
H1278 H 0.61358 0.42586 0.04489 0.0
N1279 N 0.57739 0.50998 0.03494 0.0
C1280 C 0.59985 0.54145 0.03434 0.0
C1281 C 0.64377 0.52982 0.03587 0.0
C1282 C 0.62076 0.49781 0.03751 0.0
C1283 C 0.63324 0.55176 0.03454 0.0
C1284 C 0.58741 0.48863 0.03714 0.0
H1285 H 0.5544 0.38525 0.04939 0.0
N1286 N 0.53243 0.45029 0.04009 0.0
C1287 C 0.51618 0.39673 0.04806 0.0
C1288 C 0.56405 0.4576 0.03978 0.0
C1289 C 0.50854 0.42051 0.0449 0.0
C1290 C 0.54854 0.40368 0.04688 0.0
C1291 C 0.57304 0.43455 0.04298 0.0
O1292 O 0.49809 0.47529 0.05989 0.0
O1293 O 0.4823 0.49217 0.02005 0.0
O1294 O 0.49654 0.54107 1.01122 0.0
O1295 O 0.53537 0.54045 0.03105 0.0
O1296 O 0.47042 0.45599 0.03817 0.0
O1297 O 0.54119 0.52076 0.05711 0.0
O1298 O 0.51552 0.52036 0.96483 0.0
O1299 O 0.53112 0.50411 1.00483 0.0
O1300 O 0.51713 0.45536 0.01346 0.0
O1301 O 0.47821 0.45596 0.99369 0.0
O1302 O 0.54364 0.53965 0.9862 0.0
O1303 O 0.4713 0.47579 0.96769 0.0
C1304 C 0.45824 0.46859 0.02747 0.0
C1305 C 0.53058 0.49564 0.08678 0.0
C1306 C 0.52836 0.49631 0.12105 0.0
C1307 C 0.51896 0.50205 0.10339 0.0
C1308 C 0.54964 0.48407 0.12177 0.0
C1309 C 0.55193 0.48367 0.08782 0.0
C1310 C 0.56137 0.4779 0.10526 0.0
C1311 C 0.51909 0.55393 0.02435 0.0
C1312 C 0.51918 0.5006 0.06858 0.0
C1313 C 0.60615 0.44325 0.04264 0.0
C1314 C 0.62999 0.47486 0.03988 0.0
C1315 C 0.55544 0.52705 0.99719 0.0
C1316 C 0.48282 0.50101 0.93796 0.0
C1317 C 0.49479 0.49503 0.92134 0.0
C1318 C 0.48611 0.50161 0.90368 0.0
C1319 C 0.46519 0.51426 0.90298 0.0
C1320 C 0.46181 0.51339 0.93693 0.0
C1321 C 0.45309 0.51998 0.91951 0.0
C1322 C 0.49453 0.44251 1.00033 0.0
C1323 C 0.49368 0.49541 0.95617 0.0
H1324 H 0.5022 0.51104 0.10254 0.0
H1325 H 0.55766 0.47976 0.13512 0.0
H1326 H 0.56121 0.47869 0.07523 0.0
H1327 H 0.57787 0.46865 0.10598 0.0
H1328 H 0.51128 0.48572 0.92217 0.0
H1329 H 0.45771 0.51922 0.88965 0.0
H1330 H 0.45228 0.51806 0.94953 0.0
H1331 H 0.43687 0.52955 0.9188 0.0
Tb1332 Tb 0.16503 0.3111 0.32473 0.0
C1333 C 0.23012 0.42786 0.36896 0.0
C1334 C 0.28674 0.44206 0.36591 0.0
C1335 C 0.27219 0.48305 0.36689 0.0
C1336 C 0.25344 0.419 0.36724 0.0
C1337 C 0.23941 0.46006 0.36968 0.0
C1338 C 0.29585 0.47404 0.36497 0.0
C1339 C 0.18454 0.44464 0.37917 0.0
N1340 N 0.19885 0.405 0.37198 0.0
C1341 C 0.17668 0.41311 0.37852 0.0
C1342 C 0.21586 0.46822 0.37426 0.0
Tb1343 Tb 0.18837 0.35383 0.36875 0.0
N1344 N 0.24374 0.3879 0.36845 0.0
C1345 C 0.26657 0.3787 0.37054 0.0
C1346 C 0.30996 0.4324 0.36639 0.0
C1347 C 0.29984 0.40065 0.36918 0.0
H1348 H 0.15221 0.39508 0.38223 0.0
H1349 H 0.31764 0.39301 0.37023 0.0
H1350 H 0.32123 0.49204 0.36361 0.0
H1351 H 0.16644 0.4507 0.38348 0.0
H1352 H 0.25963 0.3544 0.37278 0.0
H1353 H 0.04204 0.2908 0.32348 0.0
H1354 H 0.33574 0.44935 0.36536 0.0
H1355 H 0.19408 0.26453 0.3135 0.0
H1356 H 0.10185 0.32283 0.3245 0.0
H1357 H 0.17285 0.20761 0.30845 0.0
H1358 H 0.27969 0.50786 0.36705 0.0
H1359 H 0.01535 0.23271 0.32177 0.0
H1360 H 0.0211 0.18441 0.31905 0.0
H1361 H 0.22201 0.49267 0.37495 0.0
H1362 H 0.05685 0.1616 0.31521 0.0
N1363 N 0.10931 0.28346 0.32369 0.0
C1364 C 0.09069 0.29761 0.32369 0.0
C1365 C 0.04169 0.24671 0.32218 0.0
C1366 C 0.06094 0.23246 0.32131 0.0
C1367 C 0.05667 0.27948 0.32311 0.0
C1368 C 0.09509 0.2518 0.32198 0.0
H1369 H 0.11362 0.17013 0.311 0.0
N1370 N 0.14758 0.25891 0.31989 0.0
C1371 C 0.1563 0.21607 0.31191 0.0
C1372 C 0.11499 0.239 0.32012 0.0
C1373 C 0.16824 0.24823 0.3148 0.0
C1374 C 0.12286 0.19499 0.31339 0.0
C1375 C 0.10165 0.20646 0.31714 0.0
O1376 O 0.19072 0.31513 0.29965 0.0
O1377 O 0.20243 0.35097 0.33995 0.0
O1378 O 0.1622 0.37235 0.35224 0.0
O1379 O 0.16341 0.3546 0.32211 0.0
O1380 O 0.21613 0.32421 0.32439 0.0
O1381 O 0.14958 0.32211 0.29952 0.0
O1382 O 0.1638 0.35303 0.39362 0.0
O1383 O 0.14855 0.31988 0.35114 0.0
O1384 O 0.1722 0.28158 0.34532 0.0
O1385 O 0.20456 0.31921 0.36769 0.0
O1386 O 0.14649 0.31113 0.37917 0.0
O1387 O 0.20665 0.34798 0.39438 0.0
C1388 C 0.22698 0.34953 0.33417 0.0
C1389 C 0.16199 0.30583 0.27097 0.0
C1390 C 0.16032 0.30955 0.23665 0.0
C1391 C 0.17059 0.32409 0.25436 0.0
C1392 C 0.1419 0.27646 0.23592 0.0
C1393 C 0.14338 0.27297 0.26978 0.0
C1394 C 0.13359 0.25842 0.25234 0.0
C1395 C 0.15922 0.37315 0.33379 0.0
C1396 C 0.17208 0.32151 0.28938 0.0
C1397 C 0.06764 0.18675 0.31726 0.0
C1398 C 0.04729 0.19974 0.31939 0.0
C1399 C 0.13197 0.2999 0.3637 0.0
C1400 C 0.19311 0.36511 0.42237 0.0
C1401 C 0.1822 0.34739 0.43913 0.0
C1402 C 0.19156 0.36218 0.45681 0.0
C1403 C 0.21177 0.39513 0.4573 0.0
C1404 C 0.21328 0.39782 0.42326 0.0
C1405 C 0.22243 0.41271 0.44068 0.0
C1406 C 0.19121 0.29068 0.36035 0.0
C1407 C 0.18371 0.34867 0.40421 0.0
H1408 H 0.18456 0.34954 0.25527 0.0
H1409 H 0.13398 0.26445 0.22259 0.0
H1410 H 0.13631 0.25854 0.28229 0.0
H1411 H 0.11932 0.233 0.25153 0.0
H1412 H 0.16695 0.32201 0.43837 0.0
H1413 H 0.2191 0.40743 0.47057 0.0
H1414 H 0.22202 0.41177 0.41055 0.0
H1415 H 0.23794 0.43802 0.44131 0.0
Tb1416 Tb 0.69756 0.84029 0.3252 0.0
C1417 C 0.57185 0.79153 0.37067 0.0
C1418 C 0.55643 0.83146 0.3672 0.0
C1419 C 0.51468 0.77675 0.37182 0.0
C1420 C 0.58049 0.82252 0.36778 0.0
C1421 C 0.53894 0.76831 0.37317 0.0
C1422 C 0.52342 0.8083 0.36881 0.0
C1423 C 0.5568 0.73086 0.37965 0.0
N1424 N 0.59606 0.78447 0.37198 0.0
C1425 C 0.58911 0.7548 0.37714 0.0
C1426 C 0.53155 0.73753 0.37742 0.0
Tb1427 Tb 0.64812 0.825 0.36696 0.0
N1428 N 0.61264 0.84412 0.36645 0.0
C1429 C 0.62246 0.87554 0.3659 0.0
C1430 C 0.56634 0.86344 0.36552 0.0
C1431 C 0.59953 0.8856 0.36515 0.0
H1432 H 0.6084 0.74932 0.37877 0.0
H1433 H 0.60751 0.91046 0.36419 0.0
H1434 H 0.50454 0.81464 0.36821 0.0
H1435 H 0.55139 0.70726 0.38327 0.0
H1436 H 0.64796 0.89305 0.36547 0.0
H1437 H 0.7365 0.75352 0.32762 0.0
H1438 H 0.54865 0.8713 0.36494 0.0
H1439 H 0.73816 0.91594 0.31328 0.0
H1440 H 0.6967 0.7717 0.32682 0.0
H1441 H 0.7953 0.95739 0.3085 0.0
H1442 H 0.4892 0.75921 0.3735 0.0
H1443 H 0.79551 0.79202 0.32627 0.0
H1444 H 0.84015 0.8484 0.32277 0.0
H1445 H 0.50656 0.71897 0.37943 0.0
H1446 H 0.85623 0.90404 0.31759 0.0
N1447 N 0.7325 0.82048 0.32541 0.0
C1448 C 0.72224 0.78897 0.3261 0.0
C1449 C 0.77809 0.80022 0.32585 0.0
C1450 C 0.78843 0.83229 0.32412 0.0
C1451 C 0.74481 0.77844 0.32658 0.0
C1452 C 0.76472 0.8417 0.32379 0.0
H1453 H 0.83962 0.94488 0.31198 0.0
N1454 N 0.74986 0.88029 0.31993 0.0
C1455 C 0.7896 0.9337 0.3121 0.0
C1456 C 0.77376 0.87279 0.32101 0.0
C1457 C 0.75719 0.91008 0.31478 0.0
C1458 C 0.81455 0.92657 0.31412 0.0
C1459 C 0.80676 0.89568 0.31833 0.0
O1460 O 0.69164 0.85567 0.2987 0.0
O1461 O 0.65539 0.83889 0.33789 0.0
O1462 O 0.61809 0.79017 0.34611 0.0
O1463 O 0.65866 0.79031 0.32748 0.0
O1464 O 0.68163 0.87467 0.31966 0.0
O1465 O 0.68676 0.8098 0.30221 0.0
O1466 O 0.6539 0.80976 0.39352 0.0
O1467 O 0.6903 0.8267 0.35424 0.0
O1468 O 0.72746 0.8756 0.34591 0.0
O1469 O 0.68687 0.87499 0.36484 0.0
O1470 O 0.66517 0.7914 0.37285 0.0
O1471 O 0.6577 0.85521 0.38997 0.0
C1472 C 0.65602 0.86231 0.33006 0.0
C1473 C 0.70491 0.83479 0.27274 0.0
C1474 C 0.70411 0.83219 0.23857 0.0
C1475 C 0.68764 0.82671 0.25581 0.0
C1476 C 0.7382 0.84587 0.2385 0.0
C1477 C 0.73887 0.8481 0.27246 0.0
C1478 C 0.7554 0.85362 0.25539 0.0
C1479 C 0.62797 0.77714 0.33338 0.0
C1480 C 0.68698 0.83018 0.29035 0.0
C1481 C 0.83069 0.88677 0.31942 0.0
C1482 C 0.82153 0.8551 0.32234 0.0
C1483 C 0.6906 0.80394 0.3623 0.0
C1484 C 0.63923 0.82973 0.41934 0.0
C1485 C 0.65584 0.83648 0.43647 0.0
C1486 C 0.63881 0.83039 0.45356 0.0
C1487 C 0.6048 0.81735 0.45326 0.0
C1488 C 0.60536 0.81706 0.41927 0.0
C1489 C 0.58825 0.81087 0.43618 0.0
C1490 C 0.71746 0.88846 0.35872 0.0
C1491 C 0.65771 0.83495 0.40186 0.0
H1492 H 0.6614 0.81667 0.25605 0.0
H1493 H 0.75146 0.85015 0.22542 0.0
H1494 H 0.75258 0.85438 0.28533 0.0
H1495 H 0.78163 0.86397 0.25524 0.0
H1496 H 0.68201 0.84603 0.43649 0.0
H1497 H 0.5911 0.81266 0.4662 0.0
H1498 H 0.59216 0.81183 0.40624 0.0
H1499 H 0.56209 0.80104 0.43604 0.0
Tb1500 Tb 0.18622 0.82183 0.36756 0.0
C1501 C 0.11171 0.86711 0.319 0.0
C1502 C 0.05582 0.8259 0.32315 0.0
C1503 C 0.06816 0.87959 0.31708 0.0
C1504 C 0.08941 0.83609 0.32264 0.0
C1505 C 0.10139 0.8891 0.31551 0.0
C1506 C 0.04538 0.848 0.32095 0.0
C1507 C 0.15678 0.92679 0.30678 0.0
N1508 N 0.14341 0.87509 0.31733 0.0
C1509 C 0.1657 0.90399 0.31031 0.0
C1510 C 0.12459 0.91951 0.30974 0.0
Tb1511 Tb 0.15623 0.83682 0.32413 0.0
N1512 N 0.10058 0.81554 0.32431 0.0
C1513 C 0.07897 0.78385 0.32493 0.0
C1514 C 0.03377 0.7937 0.32515 0.0
C1515 C 0.04539 0.77254 0.32569 0.0
H1516 H 0.19066 0.90982 0.30807 0.0
H1517 H 0.02851 0.7475 0.32676 0.0
H1518 H 0.01971 0.84071 0.32153 0.0
H1519 H 0.17474 0.94995 0.3018 0.0
H1520 H 0.08733 0.76704 0.32549 0.0
H1521 H 0.31413 0.91073 0.36503 0.0
H1522 H 0.00776 0.78488 0.32569 0.0
H1523 H 0.15119 0.74891 0.38387 0.0
H1524 H 0.25537 0.89141 0.36568 0.0
H1525 H 0.16672 0.70874 0.39075 0.0
H1526 H 0.05973 0.8962 0.31469 0.0
H1527 H 0.3347 0.8733 0.36732 0.0
H1528 H 0.32248 0.81756 0.37232 0.0
H1529 H 0.11768 0.93713 0.30688 0.0
H1530 H 0.28215 0.76221 0.3793 0.0
N1531 N 0.24188 0.8429 0.36776 0.0
C1532 C 0.2636 0.87455 0.36678 0.0
C1533 C 0.3087 0.86457 0.36762 0.0
C1534 C 0.28652 0.83247 0.36991 0.0
C1535 C 0.29718 0.88575 0.36638 0.0
C1536 C 0.25294 0.82237 0.37008 0.0
H1537 H 0.22391 0.72144 0.38656 0.0
N1538 N 0.19877 0.78357 0.37502 0.0
C1539 C 0.18489 0.73186 0.38584 0.0
C1540 C 0.23048 0.79146 0.3738 0.0
C1541 C 0.17619 0.7547 0.38193 0.0
C1542 C 0.21717 0.73908 0.3834 0.0
C1543 C 0.24061 0.76944 0.37772 0.0
O1544 O 0.1617 0.80723 0.39352 0.0
O1545 O 0.14672 0.82373 0.35345 0.0
O1546 O 0.16381 0.87474 0.34303 0.0
O1547 O 0.19814 0.87128 0.36541 0.0
O1548 O 0.13472 0.78708 0.3714 0.0
O1549 O 0.20544 0.85205 0.3908 0.0
O1550 O 0.18036 0.8522 0.29811 0.0
O1551 O 0.19543 0.83466 0.33826 0.0
O1552 O 0.17832 0.78358 0.34886 0.0
O1553 O 0.1448 0.78746 0.32601 0.0
O1554 O 0.20802 0.87098 0.31999 0.0
O1555 O 0.13679 0.80721 0.30065 0.0
C1556 C 0.12267 0.79993 0.36078 0.0
C1557 C 0.19395 0.82725 0.42057 0.0
C1558 C 0.1915 0.82833 0.45483 0.0
C1559 C 0.18224 0.83389 0.43707 0.0
C1560 C 0.21267 0.81598 0.45576 0.0
C1561 C 0.2153 0.81528 0.42184 0.0
C1562 C 0.2245 0.80961 0.43936 0.0
C1563 C 0.18421 0.88598 0.35733 0.0
C1564 C 0.18303 0.83234 0.40224 0.0
C1565 C 0.27386 0.77885 0.37658 0.0
C1566 C 0.29681 0.81035 0.37263 0.0
C1567 C 0.2197 0.85792 0.33074 0.0
C1568 C 0.14738 0.83321 0.27127 0.0
C1569 C 0.15919 0.82814 0.25425 0.0
C1570 C 0.14851 0.83365 0.23692 0.0
C1571 C 0.12639 0.84496 0.23696 0.0
C1572 C 0.12497 0.84398 0.2709 0.0
C1573 C 0.11475 0.85004 0.25384 0.0
C1574 C 0.1581 0.77245 0.33446 0.0
C1575 C 0.15887 0.82738 0.28922 0.0
H1576 H 0.16562 0.84303 0.43607 0.0
H1577 H 0.22057 0.81179 0.46918 0.0
H1578 H 0.22484 0.81034 0.40935 0.0
H1579 H 0.24099 0.80035 0.44024 0.0
H1580 H 0.17608 0.81928 0.25454 0.0
H1581 H 0.11807 0.84992 0.22392 0.0
H1582 H 0.11531 0.84765 0.28375 0.0
H1583 H 0.09761 0.85856 0.25369 0.0
Tb1584 Tb 0.82752 0.64195 0.6581 0.0
C1585 C 0.8986 0.76252 0.70553 0.0
C1586 C 0.95488 0.77565 0.70329 0.0
C1587 C 0.9416 0.81717 0.70766 0.0
C1588 C 0.92135 0.75326 0.70308 0.0
C1589 C 0.90833 0.79445 0.70841 0.0
C1590 C 0.96487 0.80777 0.70506 0.0
C1591 C 0.85201 0.77852 0.71454 0.0
N1592 N 0.86688 0.73978 0.70638 0.0
C1593 C 0.84368 0.74714 0.71166 0.0
C1594 C 0.88444 0.80237 0.71261 0.0
Tb1595 Tb 0.85502 0.68916 0.70064 0.0
N1596 N 0.91056 0.72201 0.70172 0.0
C1597 C 0.93239 0.71141 0.7022 0.0
C1598 C 0.97727 0.76498 0.70238 0.0
C1599 C 0.96594 0.73267 0.70218 0.0
H1600 H 0.81854 0.72891 0.71314 0.0
H1601 H 0.98303 0.72408 0.70196 0.0
H1602 H 0.99051 0.82539 0.70504 0.0
H1603 H 0.83342 0.78428 0.71823 0.0
H1604 H 0.92428 0.68658 0.70196 0.0
H1605 H 0.69974 0.60793 0.65665 0.0
H1606 H 1.00325 0.78139 0.70243 0.0
H1607 H 0.86351 0.60161 0.64598 0.0
H1608 H 0.75855 0.64511 0.65661 0.0
H1609 H 0.8482 0.54605 0.64112 0.0
H1610 H 0.94961 0.8419 0.70962 0.0
H1611 H 0.6791 0.55055 0.65637 0.0
H1612 H 0.6914 0.50624 0.65402 0.0
H1613 H 0.89087 0.82663 0.71494 0.0
H1614 H 0.73197 0.48926 0.64966 0.0
N1615 N 0.77192 0.60943 0.65702 0.0
C1616 C 0.75028 0.62025 0.65646 0.0
C1617 C 0.70512 0.56682 0.65641 0.0
C1618 C 0.72732 0.55591 0.65561 0.0
C1619 C 0.71668 0.59917 0.6565 0.0
C1620 C 0.76091 0.57812 0.65579 0.0
H1621 H 0.79061 0.50403 0.64446 0.0
N1622 N 0.81528 0.59114 0.65266 0.0
C1623 C 0.82973 0.55203 0.64473 0.0
C1624 C 0.78348 0.56859 0.6535 0.0
C1625 C 0.83831 0.58351 0.64747 0.0
C1626 C 0.79723 0.52838 0.64668 0.0
C1627 C 0.7735 0.53657 0.65076 0.0
O1628 O 0.85333 0.64885 0.63273 0.0
O1629 O 0.86597 0.68241 0.67218 0.0
O1630 O 0.84879 0.71857 0.67975 0.0
O1631 O 0.81586 0.68011 0.65785 0.0
O1632 O 0.8791 0.65629 0.65601 0.0
O1633 O 0.81073 0.65358 0.63364 0.0
O1634 O 0.82922 0.68159 0.7261 0.0
O1635 O 0.81654 0.64879 0.68654 0.0
O1636 O 0.83343 0.61254 0.6791 0.0
O1637 O 0.86693 0.65115 0.70074 0.0
O1638 O 0.80345 0.67484 0.70277 0.0
O1639 O 0.87216 0.67747 0.72492 0.0
C1640 C 0.89039 0.68133 0.66603 0.0
C1641 C 0.82346 0.639 0.60456 0.0
C1642 C 0.82243 0.64274 0.57021 0.0
C1643 C 0.8324 0.65728 0.58795 0.0
C1644 C 0.80395 0.60965 0.56948 0.0
C1645 C 0.80483 0.60613 0.60335 0.0
C1646 C 0.7953 0.5916 0.5859 0.0
C1647 C 0.82948 0.70895 0.66485 0.0
C1648 C 0.83355 0.65448 0.62302 0.0
C1649 C 0.74017 0.51405 0.65152 0.0
C1650 C 0.71708 0.52372 0.65398 0.0
C1651 C 0.79211 0.64987 0.69269 0.0
C1652 C 0.85922 0.69131 0.75419 0.0
C1653 C 0.84756 0.67304 0.77074 0.0
C1654 C 0.85596 0.68745 0.78856 0.0
C1655 C 0.87655 0.72029 0.78948 0.0
C1656 C 0.87985 0.72394 0.75555 0.0
C1657 C 0.88847 0.73828 0.77311 0.0
C1658 C 0.85296 0.6222 0.69388 0.0
C1659 C 0.84924 0.67611 0.73566 0.0
H1660 H 0.84646 0.68273 0.58888 0.0
H1661 H 0.79627 0.59763 0.55614 0.0
H1662 H 0.7976 0.59171 0.61588 0.0
H1663 H 0.78103 0.56619 0.58508 0.0
H1664 H 0.83147 0.64781 0.76973 0.0
H1665 H 0.88369 0.73207 0.80291 0.0
H1666 H 0.88923 0.73831 0.74306 0.0
H1667 H 0.9044 0.76351 0.77404 0.0
Tb1668 Tb 0.36527 0.17333 0.65773 0.0
C1669 C 0.2403 0.12919 0.70297 0.0
C1670 C 0.22723 0.17073 0.6993 0.0
C1671 C 0.1838 0.11671 0.70401 0.0
C1672 C 0.25026 0.1605 0.69999 0.0
C1673 C 0.20705 0.10697 0.7055 0.0
C1674 C 0.19388 0.14855 0.70088 0.0
C1675 C 0.22264 0.06797 0.71243 0.0
N1676 N 0.26354 0.12085 0.70444 0.0
C1677 C 0.25534 0.09095 0.70988 0.0
C1678 C 0.19833 0.07591 0.70998 0.0
Tb1679 Tb 0.3163 0.15991 0.69952 0.0
N1680 N 0.2827 0.18114 0.6987 0.0
C1681 C 0.29382 0.21282 0.69807 0.0
C1682 C 0.23847 0.20298 0.69754 0.0
C1683 C 0.27193 0.22414 0.69721 0.0
H1684 H 0.27394 0.08456 0.71169 0.0
H1685 H 0.28092 0.24919 0.6962 0.0
H1686 H 0.17578 0.15589 0.70019 0.0
H1687 H 0.2162 0.04417 0.71625 0.0
H1688 H 0.31957 0.22957 0.69766 0.0
H1689 H 0.40062 0.0841 0.66356 0.0
H1690 H 0.22158 0.21181 0.69687 0.0
H1691 H 0.40733 0.2462 0.64142 0.0
H1692 H 0.36215 0.10369 0.66107 0.0
H1693 H 0.46494 0.28618 0.636 0.0
H1694 H 0.15808 0.09996 0.70571 0.0
H1695 H 0.45998 0.12133 0.6628 0.0
H1696 H 0.50588 0.177 0.65857 0.0
H1697 H 0.17304 0.0581 0.71203 0.0
H1698 H 0.52357 0.23242 0.65118 0.0
N1699 N 0.39902 0.15212 0.65937 0.0
C1700 C 0.38786 0.12045 0.6606 0.0
C1701 C 0.44315 0.13017 0.66166 0.0
C1702 C 0.45445 0.1623 0.65919 0.0
C1703 C 0.40968 0.1091 0.66204 0.0
C1704 C 0.43146 0.17254 0.65793 0.0
H1705 H 0.50839 0.27333 0.64236 0.0
N1706 N 0.41806 0.21147 0.65159 0.0
C1707 C 0.4587 0.26307 0.64121 0.0
C1708 C 0.4414 0.2035 0.654 0.0
C1709 C 0.42606 0.24032 0.64429 0.0
C1710 C 0.48315 0.25576 0.64488 0.0
C1711 C 0.47459 0.2254 0.65093 0.0
O1712 O 0.35869 0.18722 0.63087 0.0
O1713 O 0.32365 0.17317 0.67034 0.0
O1714 O 0.28554 0.12498 0.67886 0.0
O1715 O 0.32553 0.12376 0.66044 0.0
O1716 O 0.35011 0.2081 0.65161 0.0
O1717 O 0.35458 0.14194 0.63524 0.0
O1718 O 0.32049 0.14357 0.72608 0.0
O1719 O 0.35854 0.1612 0.68711 0.0
O1720 O 0.39559 0.21174 0.67674 0.0
O1721 O 0.35658 0.20926 0.69814 0.0
O1722 O 0.33216 0.12553 0.70542 0.0
O1723 O 0.32603 0.18978 0.72272 0.0
C1724 C 0.32476 0.19661 0.66222 0.0
C1725 C 0.37345 0.16613 0.60565 0.0
C1726 C 0.37495 0.16497 0.57147 0.0
C1727 C 0.35748 0.15988 0.58832 0.0
C1728 C 0.40872 0.17658 0.57219 0.0
C1729 C 0.40704 0.17717 0.60612 0.0
C1730 C 0.42458 0.1825 0.58945 0.0
C1731 C 0.29491 0.11123 0.66633 0.0
C1732 C 0.35471 0.16169 0.62295 0.0
C1733 C 0.49787 0.21586 0.65322 0.0
C1734 C 0.4878 0.18432 0.65738 0.0
C1735 C 0.35816 0.13819 0.69532 0.0
C1736 C 0.30641 0.16405 0.75194 0.0
C1737 C 0.3228 0.17054 0.76914 0.0
C1738 C 0.30564 0.16477 0.78617 0.0
C1739 C 0.27171 0.15232 0.78572 0.0
C1740 C 0.27264 0.15201 0.75174 0.0
C1741 C 0.2554 0.14613 0.76858 0.0
C1742 C 0.38618 0.22359 0.69049 0.0
C1743 C 0.325 0.16895 0.73454 0.0
H1744 H 0.33151 0.15139 0.58795 0.0
H1745 H 0.4227 0.18047 0.55942 0.0
H1746 H 0.41971 0.18168 0.61928 0.0
H1747 H 0.45053 0.19111 0.58992 0.0
H1748 H 0.3489 0.17964 0.76927 0.0
H1749 H 0.25791 0.1479 0.79861 0.0
H1750 H 0.2596 0.14704 0.73867 0.0
H1751 H 0.22931 0.13677 0.76834 0.0
Tb1752 Tb 0.85403 0.15664 0.70077 0.0
C1753 C 0.78253 0.20551 0.65204 0.0
C1754 C 0.72576 0.16552 0.65452 0.0
C1755 C 0.74066 0.22019 0.64946 0.0
C1756 C 0.75906 0.17452 0.65476 0.0
C1757 C 0.77372 0.2287 0.64896 0.0
C1758 C 0.7167 0.18862 0.65226 0.0
C1759 C 0.83061 0.26627 0.64369 0.0
N1760 N 0.81411 0.21264 0.65158 0.0
C1761 C 0.83809 0.24236 0.64675 0.0
C1762 C 0.79832 0.25951 0.64502 0.0
Tb1763 Tb 0.8241 0.17222 0.65764 0.0
N1764 N 0.76889 0.15298 0.65672 0.0
C1765 C 0.74633 0.12155 0.65715 0.0
C1766 C 0.70263 0.13353 0.65606 0.0
C1767 C 0.71298 0.11142 0.65711 0.0
H1768 H 0.86315 0.24794 0.6458 0.0
H1769 H 0.6953 0.08656 0.65797 0.0
H1770 H 0.69125 0.18223 0.65221 0.0
H1771 H 0.84977 0.28991 0.64033 0.0
H1772 H 0.75376 0.10408 0.65809 0.0
H1773 H 0.98269 0.24297 0.70097 0.0
H1774 H 0.67679 0.12562 0.65602 0.0
H1775 H 0.81531 0.08083 0.71255 0.0
H1776 H 0.92422 0.22506 0.70028 0.0
H1777 H 0.82903 0.03922 0.71836 0.0
H1778 H 0.73336 0.23769 0.64729 0.0
H1779 H 1.00158 0.20428 0.70363 0.0
H1780 H 0.9875 0.14785 0.70775 0.0
H1781 H 0.79258 0.27805 0.64258 0.0
H1782 H 0.94562 0.09227 0.71251 0.0
N1783 N 0.90933 0.17623 0.70212 0.0
C1784 C 0.93174 0.2077 0.70156 0.0
C1785 C 0.97571 0.19619 0.70338 0.0
C1786 C 0.95274 0.16417 0.70498 0.0
C1787 C 0.96514 0.21808 0.70192 0.0
C1788 C 0.91938 0.15492 0.70444 0.0
H1789 H 0.88641 0.05156 0.71672 0.0
N1790 N 0.86439 0.11651 0.70716 0.0
C1791 C 0.84813 0.06293 0.71511 0.0
C1792 C 0.89603 0.12388 0.70704 0.0
C1793 C 0.84047 0.08667 0.71185 0.0
C1794 C 0.88053 0.06996 0.71413 0.0
C1795 C 0.90504 0.10087 0.71034 0.0
O1796 O 0.82965 0.14143 0.72669 0.0
O1797 O 0.8143 0.15808 0.6867 0.0
O1798 O 0.82826 0.20688 0.67811 0.0
O1799 O 0.86721 0.20652 0.69791 0.0
O1800 O 0.80234 0.12187 0.70478 0.0
O1801 O 0.87269 0.18694 0.72403 0.0
O1802 O 0.84844 0.18745 0.63172 0.0
O1803 O 0.86356 0.17053 0.67173 0.0
O1804 O 0.84971 0.12178 0.68036 0.0
O1805 O 0.81116 0.12236 0.66023 0.0
O1806 O 0.87609 0.20635 0.6533 0.0
O1807 O 0.80449 0.14258 0.63415 0.0
C1808 C 0.79018 0.13436 0.69398 0.0
C1809 C 0.86158 0.16197 0.75379 0.0
C1810 C 0.85913 0.16317 0.78806 0.0
C1811 C 0.85007 0.1689 0.77028 0.0
C1812 C 0.88001 0.15051 0.78902 0.0
C1813 C 0.88254 0.14957 0.75509 0.0
C1814 C 0.89167 0.14387 0.77264 0.0
C1815 C 0.85069 0.21977 0.6913 0.0
C1816 C 0.8505 0.1668 0.73544 0.0
C1817 C 0.93817 0.10963 0.71018 0.0
C1818 C 0.962 0.14126 0.70748 0.0
C1819 C 0.8879 0.19371 0.66425 0.0
C1820 C 0.81618 0.16858 0.60464 0.0
C1821 C 0.82879 0.16363 0.58792 0.0
C1822 C 0.82006 0.17048 0.57034 0.0
C1823 C 0.79847 0.18238 0.56984 0.0
C1824 C 0.79453 0.18023 0.60377 0.0
C1825 C 0.78579 0.18712 0.58645 0.0
C1826 C 0.82742 0.10896 0.66707 0.0
C1827 C 0.82693 0.16263 0.62281 0.0
H1828 H 0.83364 0.17825 0.76925 0.0
H1829 H 0.88777 0.14619 0.80245 0.0
H1830 H 0.89172 0.14417 0.7426 0.0
H1831 H 0.90786 0.13428 0.77355 0.0
H1832 H 0.84575 0.15487 0.58862 0.0
H1833 H 0.79086 0.18747 0.55659 0.0
H1834 H 0.78448 0.18408 0.61643 0.0
H1835 H 0.76905 0.1961 0.58588 0.0
C1836 C 0.3737 0.93762 0.04696 0.0
C1837 C 0.37046 0.90796 0.05035 0.0
H1838 H 0.40373 0.98425 0.03619 0.0
C1839 C 0.39469 0.90182 0.04365 0.0
H1840 H 0.35523 0.94285 0.05181 0.0
C1841 C 0.42276 0.92572 0.03487 0.0
C1842 C 0.42655 0.95583 0.03223 0.0
H1843 H 0.39276 0.87912 0.04613 0.0
H1844 H 0.44203 0.92104 0.03102 0.0
C1845 C 0.40135 0.96121 0.03794 0.0
C1846 C 0.11306 0.49339 0.04092 0.0
C1847 C 0.10874 0.46443 0.04747 0.0
H1848 H 0.09017 0.51877 0.0305 0.0
C1849 C 0.07718 0.43807 0.04748 0.0
H1850 H 0.13701 0.51421 0.04098 0.0
C1851 C 0.05058 0.44053 0.04111 0.0
C1852 C 0.0548 0.4694 0.03456 0.0
H1853 H 0.07307 0.41545 0.05245 0.0
H1854 H 0.02657 0.41978 0.04134 0.0
C1855 C 0.08626 0.49597 0.03484 0.0
C1856 C 0.51115 0.62492 0.03629 0.0
C1857 C 0.53917 0.64287 0.04714 0.0
H1858 H 0.48274 0.58272 0.02072 0.0
C1859 C 0.56079 0.63148 0.0502 0.0
H1860 H 0.49371 0.63275 0.03392 0.0
C1861 C 0.55435 0.60262 0.04276 0.0
C1862 C 0.52629 0.58468 0.03197 0.0
H1863 H 0.58286 0.64496 0.05825 0.0
H1864 H 0.57145 0.59449 0.04542 0.0
C1865 C 0.50481 0.59617 0.02876 0.0
C1866 C 0.92247 0.36628 0.97459 0.0
C1867 C 0.88913 0.35508 0.97787 0.0
H1868 H 0.97158 0.40299 0.97917 0.0
C1869 C 0.88012 0.3735 0.98867 0.0
H1870 H 0.93031 0.35253 0.96653 0.0
C1871 C 0.90379 0.40236 0.99599 0.0
C1872 C 0.93711 0.4135 0.99277 0.0
H1873 H 0.85469 0.3659 0.99121 0.0
H1874 H 0.89586 0.41612 1.00396 0.0
C1875 C 0.94617 0.39517 0.98192 0.0
C1876 C 0.64276 0.56192 0.98069 0.0
C1877 C 0.64737 0.53571 0.98047 0.0
H1878 H 0.6104 0.5796 0.98658 0.0
C1879 C 0.62192 0.50657 0.98691 0.0
H1880 H 0.66191 0.58469 0.97586 0.0
C1881 C 0.59212 0.50355 0.99279 0.0
C1882 C 0.58758 0.52984 0.99296 0.0
H1883 H 0.6246 0.48587 0.98672 0.0
H1884 H 0.57251 0.48053 0.99675 0.0
C1885 C 0.61331 0.55902 0.98688 0.0
C1886 C 0.46701 0.10124 0.98853 0.0
C1887 C 0.46646 0.10129 0.96875 0.0
H1888 H 0.47614 0.08238 0.01347 0.0
C1889 C 0.47602 0.08224 0.95905 0.0
H1890 H 0.45921 0.11507 0.99653 0.0
C1891 C 0.48524 0.06325 0.96884 0.0
C1892 C 0.48571 0.06328 0.98853 0.0
H1893 H 0.47664 0.08213 0.94386 0.0
H1894 H 0.49223 0.04864 0.96098 0.0
C1895 C 0.4768 0.08258 0.99831 0.0
C1896 C 0.64096 0.06193 0.97946 0.0
C1897 C 0.64439 0.09169 0.97621 0.0
H1898 H 0.61052 0.01509 0.9898 0.0
C1899 C 0.61999 0.09777 0.98267 0.0
H1900 H 0.65954 0.05674 0.97475 0.0
C1901 C 0.59159 0.0737 0.99111 0.0
C1902 C 0.5877 0.04352 0.99362 0.0
H1903 H 0.62206 0.12053 0.98025 0.0
H1904 H 0.57221 0.07831 0.99487 0.0
C1905 C 0.61299 0.03817 0.98811 0.0
C1906 C 0.90639 0.512 0.98171 0.0
C1907 C 0.91315 0.54161 0.97481 0.0
H1908 H 0.92592 0.48453 0.99365 0.0
C1909 C 0.94485 0.56728 0.97682 0.0
H1910 H 0.88227 0.49173 0.98017 0.0
C1911 C 0.96954 0.56331 0.9848 0.0
C1912 C 0.96331 0.53358 0.99101 0.0
H1913 H 0.9508 0.59037 0.97167 0.0
H1914 H 0.99393 0.58343 0.98559 0.0
C1915 C 0.93137 0.50792 0.9895 0.0
C1916 C 0.50253 0.3718 0.9877 0.0
C1917 C 0.47417 0.35379 0.97711 0.0
H1918 H 0.53124 0.41396 1.0033 0.0
C1919 C 0.45236 0.36507 0.97447 0.0
H1920 H 0.5201 0.36405 0.98976 0.0
C1921 C 0.45893 0.39385 0.98206 0.0
C1922 C 0.48729 0.41183 0.99261 0.0
H1923 H 0.43 0.35153 0.96668 0.0
H1924 H 0.44165 0.40188 0.97973 0.0
C1925 C 0.50897 0.40047 0.99542 0.0
C1926 C 0.12131 0.64137 0.02834 0.0
C1927 C 0.12703 0.64433 0.04781 0.0
H1928 H 0.0931 0.61159 1.00574 0.0
C1929 C 0.10774 0.61814 0.05941 0.0
H1930 H 0.13498 0.66114 0.01897 0.0
C1931 C 0.08339 0.58992 0.05175 0.0
C1932 C 0.07823 0.58706 0.03232 0.0
H1933 H 0.11168 0.61919 0.07441 0.0
H1934 H 0.06909 0.57008 0.06098 0.0
C1935 C 0.09729 0.61298 0.02069 0.0
C1936 C 0.37247 0.43153 0.04631 0.0
C1937 C 0.36781 0.45746 0.0487 0.0
H1938 H 0.40438 0.41492 0.03729 0.0
C1939 C 0.39181 0.48704 0.04183 0.0
H1940 H 0.35438 0.40844 0.05138 0.0
C1941 C 0.42085 0.49085 0.03388 0.0
C1942 C 0.42596 0.46498 0.03229 0.0
H1943 H 0.38898 0.50749 0.04361 0.0
H1944 H 0.43979 0.5142 0.02983 0.0
C1945 C 0.40109 0.43524 0.03822 0.0
C1946 C 0.56318 0.92691 0.05861 0.0
C1947 C 0.54299 0.89415 0.05717 0.0
H1948 H 0.57194 0.97235 0.05044 0.0
C1949 C 0.51563 0.88223 0.04532 0.0
H1950 H 0.58484 0.93694 0.06724 0.0
C1951 C 0.50845 0.90267 0.03536 0.0
C1952 C 0.52838 0.93542 0.03716 0.0
H1953 H 0.49935 0.85711 0.04402 0.0
H1954 H 0.48692 0.89281 0.02661 0.0
C1955 C 0.55589 0.94726 0.04881 0.0
C1956 C 0.0449 0.27025 0.37587 0.0
C1957 C 0.03405 0.23826 0.37927 0.0
H1958 H 0.08474 0.31495 0.36725 0.0
C1959 C 0.05409 0.22593 0.37399 0.0
H1960 H 0.02991 0.28032 0.37977 0.0
C1961 C 0.08544 0.24577 0.36693 0.0
C1962 C 0.09675 0.27797 0.36431 0.0
H1963 H 0.04648 0.20142 0.37662 0.0
H1964 H 0.10154 0.23635 0.36456 0.0
C1965 C 0.076 0.28993 0.36847 0.0
C1966 C 0.77795 0.82486 0.37347 0.0
C1967 C 0.77349 0.79567 0.37962 0.0
H1968 H 0.75531 0.85079 0.36378 0.0
C1969 C 0.74191 0.76935 0.37934 0.0
H1970 H 0.80191 0.84565 0.37378 0.0
C1971 C 0.71539 0.77214 0.37316 0.0
C1972 C 0.7197 0.80131 0.36714 0.0
H1973 H 0.73769 0.74656 0.38403 0.0
H1974 H 0.69132 0.75146 0.37326 0.0
C1975 C 0.75124 0.82776 0.36762 0.0
C1976 C 0.20537 0.97071 0.36192 0.0
C1977 C 0.20323 0.9734 0.38145 0.0
H1978 H 0.20169 0.941 0.33903 0.0
C1979 C 0.19498 0.947 0.39289 0.0
H1980 H 0.21245 0.99075 0.35273 0.0
C1981 C 0.18917 0.91866 0.38497 0.0
C1982 C 0.19094 0.91605 0.36547 0.0
H1983 H 0.19262 0.94805 0.40795 0.0
H1984 H 0.18269 0.8986 0.39405 0.0
C1985 C 0.19914 0.94222 0.35401 0.0
C1986 C 0.5897 0.69955 0.30723 0.0
C1987 C 0.55627 0.688 0.31038 0.0
H1988 H 0.63856 0.73661 0.31205 0.0
C1989 C 0.54676 0.70616 0.32104 0.0
H1990 H 0.59788 0.68598 0.29926 0.0
C1991 C 0.57005 0.73507 0.32844 0.0
C1992 C 0.60347 0.74651 0.32542 0.0
H1993 H 0.52123 0.69827 0.32345 0.0
H1994 H 0.56175 0.74857 0.33635 0.0
C1995 C 0.61304 0.72851 0.31464 0.0
C1996 C 0.28513 0.83648 0.31937 0.0
C1997 C 0.3104 0.86537 0.31247 0.0
H1998 H 0.23614 0.81101 0.33012 0.0
C1999 C 0.30596 0.89167 0.31259 0.0
H2000 H 0.28772 0.81573 0.3193 0.0
C2001 C 0.2769 0.88914 0.3192 0.0
C2002 C 0.25139 0.86025 0.32582 0.0
H2003 H 0.325 0.91427 0.30746 0.0
H2004 H 0.27417 0.90982 0.3189 0.0
C2005 C 0.25568 0.83382 0.32568 0.0
C2006 C 0.12023 0.42393 0.32645 0.0
C2007 C 0.12393 0.429 0.30692 0.0
H2008 H 0.12817 0.40194 0.3504 0.0
C2009 C 0.14073 0.41708 0.29673 0.0
H2010 H 0.10734 0.43288 0.33465 0.0
C2011 C 0.15298 0.39995 0.30572 0.0
C2012 C 0.14864 0.39406 0.32515 0.0
H2013 H 0.14468 0.42125 0.28177 0.0
H2014 H 0.1657 0.39107 0.2973 0.0
C2015 C 0.13238 0.40647 0.33549 0.0
C2016 C 0.28885 0.42976 0.3151 0.0
C2017 C 0.31415 0.42416 0.30987 0.0
H2018 H 0.24069 0.41009 0.32676 0.0
C2019 C 0.31188 0.39534 0.31463 0.0
H2020 H 0.29005 0.45179 0.31144 0.0
C2021 C 0.28425 0.37198 0.32377 0.0
C2022 C 0.25822 0.37686 0.32823 0.0
H2023 H 0.33115 0.39058 0.31079 0.0
H2024 H 0.28262 0.34952 0.3267 0.0
C2025 C 0.26081 0.40606 0.32396 0.0
C2026 C 0.57088 0.84424 0.31556 0.0
C2027 C 0.57734 0.87402 0.3092 0.0
H2028 H 0.59084 0.81676 0.3269 0.0
C2029 C 0.6088 0.89989 0.31159 0.0
H2030 H 0.54695 0.82384 0.31369 0.0
C2031 C 0.63364 0.89596 0.31935 0.0
C2032 C 0.62774 0.86608 0.32497 0.0
H2033 H 0.61449 0.92311 0.30682 0.0
H2034 H 0.65789 0.91624 0.3204 0.0
C2035 C 0.596 0.84022 0.32317 0.0
C2036 C 0.14462 0.7087 0.30028 0.0
C2037 C 0.13417 0.68242 0.3122 0.0
H2038 H 0.16021 0.75788 0.29814 0.0
C2039 C 0.13165 0.68623 0.33159 0.0
H2040 H 0.14737 0.70682 0.28533 0.0
C2041 C 0.13972 0.71562 0.33888 0.0
C2042 C 0.1501 0.74164 0.32694 0.0
H2043 H 0.12289 0.6664 0.34114 0.0
H2044 H 0.13685 0.71772 0.35375 0.0
C2045 C 0.1522 0.73797 0.30758 0.0
C2046 C 0.75452 0.96637 0.38443 0.0
C2047 C 0.78797 0.97868 0.38098 0.0
H2048 H 0.70602 0.92837 0.38007 0.0
C2049 C 0.79797 0.96084 0.37036 0.0
H2050 H 0.74598 0.97966 0.39238 0.0
C2051 C 0.77508 0.93153 0.36323 0.0
C2052 C 0.74162 0.91938 0.36649 0.0
H2053 H 0.82356 0.96935 0.36773 0.0
H2054 H 0.78372 0.91832 0.35529 0.0
C2055 C 0.7316 0.93702 0.37728 0.0
C2056 C 0.05714 0.81924 0.37586 0.0
C2057 C 0.03299 0.78974 0.38275 0.0
H2058 H 0.10504 0.84604 0.36363 0.0
C2059 C 0.03738 0.76365 0.38035 0.0
H2060 H 0.05452 0.83981 0.37767 0.0
C2061 C 0.06578 0.76708 0.37211 0.0
C2062 C 0.09071 0.7967 0.36604 0.0
H2063 H 0.01919 0.74063 0.38544 0.0
H2064 H 0.0688 0.74662 0.37109 0.0
C2065 C 0.08598 0.82278 0.36778 0.0
C2066 C 0.20788 0.2485 0.39918 0.0
C2067 C 0.21596 0.22859 0.38924 0.0
H2068 H 0.19363 0.28355 0.39769 0.0
C2069 C 0.21455 0.22841 0.36948 0.0
H2070 H 0.20787 0.24877 0.41437 0.0
C2071 C 0.20558 0.24791 0.35993 0.0
C2072 C 0.19832 0.26821 0.36996 0.0
H2073 H 0.22112 0.21378 0.36132 0.0
H2074 H 0.20557 0.24793 0.34477 0.0
C2075 C 0.19945 0.26826 0.38963 0.0
C2076 C 0.72779 0.56847 0.70921 0.0
C2077 C 0.70352 0.5748 0.7156 0.0
H2078 H 0.7755 0.58753 0.69703 0.0
C2079 C 0.70711 0.60458 0.71216 0.0
H2080 H 0.72561 0.54569 0.71176 0.0
C2081 C 0.73512 0.62813 0.70342 0.0
C2082 C 0.76031 0.62254 0.69801 0.0
H2083 H 0.68862 0.60996 0.71679 0.0
H2084 H 0.73776 0.65126 0.70162 0.0
C2085 C 0.75622 0.59232 0.70068 0.0
C2086 C 0.40902 0.10441 0.71448 0.0
C2087 C 0.44065 0.13067 0.71456 0.0
H2088 H 0.35855 0.0863 0.70798 0.0
C2089 C 0.44519 0.15967 0.70792 0.0
H2090 H 0.40473 0.08177 0.71952 0.0
C2091 C 0.41858 0.16238 0.7016 0.0
C2092 C 0.38707 0.13589 0.70116 0.0
H2093 H 0.4692 0.18041 0.70803 0.0
H2094 H 0.42266 0.1852 0.69717 0.0
C2095 C 0.38261 0.10699 0.70785 0.0
C2096 C 0.89189 0.2971 0.71727 0.0
C2097 C 0.86977 0.308 0.7146 0.0
H2098 H 0.90323 0.26071 0.71202 0.0
C2099 C 0.84155 0.2898 0.70395 0.0
H2100 H 0.91415 0.31081 0.72511 0.0
C2101 C 0.83552 0.26128 0.69622 0.0
C2102 C 0.85751 0.25028 0.69907 0.0
H2103 H 0.82376 0.29727 0.70187 0.0
H2104 H 0.81332 0.2476 0.68832 0.0
C2105 C 0.88574 0.26846 0.70967 0.0
C2106 C 0.21304 0.04032 0.65459 0.0
C2107 C 0.22215 0.02177 0.64399 0.0
H2108 H 0.22866 0.08318 0.66958 0.0
C2109 C 0.25549 0.03301 0.64074 0.0
H2110 H 0.18759 0.03266 0.65709 0.0
C2111 C 0.27913 0.06203 0.64795 0.0
C2112 C 0.26999 0.08048 0.65862 0.0
H2113 H 0.26339 0.01916 0.63282 0.0
H2114 H 0.30456 0.06985 0.64526 0.0
C2115 C 0.23665 0.06934 0.66176 0.0
C2116 C 0.97529 0.22943 0.64769 0.0
C2117 C 0.98032 0.20348 0.64743 0.0
H2118 H 0.9425 0.24657 0.65366 0.0
C2119 C 0.95515 0.17422 0.65395 0.0
H2120 H 0.99422 0.25231 0.64284 0.0
C2121 C 0.92521 0.17084 0.65991 0.0
C2122 C 0.92024 0.19687 0.66007 0.0
H2123 H 0.95814 0.15371 0.65376 0.0
H2124 H 0.90581 0.14773 0.66392 0.0
C2125 C 0.94572 0.22617 0.65395 0.0
C2126 C 0.80335 0.7689 0.65502 0.0
C2127 C 0.80347 0.76947 0.63523 0.0
H2128 H 0.8116 0.74932 0.67993 0.0
C2129 C 0.81365 0.75093 0.62551 0.0
H2130 H 0.79509 0.78237 0.66301 0.0
C2131 C 0.8227 0.7318 0.63529 0.0
C2132 C 0.82233 0.73116 0.65498 0.0
H2133 H 0.81479 0.75125 0.61033 0.0
H2134 H 0.83009 0.7175 0.62741 0.0
C2135 C 0.81292 0.75007 0.66478 0.0
C2136 C 0.9756 0.72703 0.64686 0.0
C2137 C 0.97918 0.75686 0.64364 0.0
H2138 H 0.94485 0.68012 0.65704 0.0
C2139 C 0.95477 0.763 0.64999 0.0
H2140 H 0.99418 0.72179 0.64221 0.0
C2141 C 0.92624 0.73894 0.65828 0.0
C2142 C 0.92217 0.7087 0.66077 0.0
H2143 H 0.95694 0.7858 0.64756 0.0
H2144 H 0.90688 0.74363 0.66193 0.0
C2145 C 0.94746 0.70326 0.65538 0.0
C2146 C 0.27916 0.23616 0.64408 0.0
C2147 C 0.24725 0.21091 0.64189 0.0
H2148 H 0.32817 0.25122 0.65252 0.0
C2149 C 0.24007 0.18086 0.64819 0.0
H2150 H 0.28546 0.25959 0.63939 0.0
C2151 C 0.2648 0.17598 0.65556 0.0
C2152 C 0.29693 0.20125 0.65722 0.0
H2153 H 0.21579 0.16088 0.64649 0.0
H2154 H 0.25902 0.15232 0.65928 0.0
C2155 C 0.30362 0.23138 0.65159 0.0
C2156 C 0.83615 0.03862 0.65462 0.0
C2157 C 0.80788 0.02043 0.64399 0.0
H2158 H 0.86452 0.08086 0.67021 0.0
C2159 C 0.78587 0.03146 0.64128 0.0
H2160 H 0.85386 0.03106 0.65673 0.0
C2161 C 0.79219 0.0602 0.64881 0.0
C2162 C 0.82046 0.07835 0.65938 0.0
H2163 H 0.76357 0.01777 0.63347 0.0
H2164 H 0.77478 0.06804 0.64643 0.0
C2165 C 0.84231 0.06723 0.66229 0.0
C2166 C 0.45312 0.30846 0.69441 0.0
C2167 C 0.45901 0.31153 0.71387 0.0
H2168 H 0.425 0.27845 0.67187 0.0
C2169 C 0.43998 0.28532 0.72551 0.0
H2170 H 0.46654 0.32823 0.68501 0.0
C2171 C 0.4158 0.25695 0.7179 0.0
C2172 C 0.41056 0.25397 0.69848 0.0
H2173 H 0.44403 0.28646 0.74051 0.0
H2174 H 0.40171 0.23709 0.72715 0.0
C2175 C 0.42929 0.27993 0.68681 0.0
C2176 C 0.70394 0.09652 0.71217 0.0
C2177 C 0.69907 0.1223 0.71472 0.0
H2178 H 0.73623 0.08033 0.7032 0.0
C2179 C 0.72312 0.15207 0.70812 0.0
H2180 H 0.68584 0.07329 0.71702 0.0
C2181 C 0.75238 0.1562 0.7003 0.0
C2182 C 0.75769 0.13047 0.69858 0.0
H2183 H 0.72015 0.17242 0.71003 0.0
H2184 H 0.77133 0.17967 0.69648 0.0
C2185 C 0.73279 0.10055 0.70422 0.0
C2186 C 0.87799 0.56154 0.7038 0.0
C2187 C 0.87723 0.56056 0.72357 0.0
H2188 H 0.87093 0.5819 0.67889 0.0
C2189 C 0.8672 0.57924 0.73327 0.0
H2190 H 0.88619 0.54797 0.69586 0.0
C2191 C 0.85884 0.59886 0.72347 0.0
C2192 C 0.85978 0.59984 0.70379 0.0
H2193 H 0.86562 0.57864 0.74844 0.0
H2194 H 0.85148 0.61321 0.7313 0.0
C2195 C 0.86914 0.58087 0.69401 0.0
C2196 C 0.52291 0.99096 0.17181 0.0
C2197 C 0.49004 0.96762 0.17411 0.0
H2198 H 0.55963 0.02527 0.1537 0.0
C2199 C 0.46889 0.96086 0.15874 0.0
H2200 H 0.53993 0.99712 0.18331 0.0
C2201 C 0.48021 0.97732 0.14169 0.0
C2202 C 0.51294 0.00114 0.13958 0.0
H2203 H 0.44351 0.9428 0.15987 0.0
H2204 H 0.46309 0.9719 0.13032 0.0
C2205 C 0.53416 0.00743 0.15484 0.0
C2206 C 0.99114 0.48583 0.17101 0.0
C2207 C 0.01941 0.51487 0.17425 0.0
H2208 H 0.95395 0.45682 0.15138 0.0
C2209 C 0.03295 0.5366 0.1594 0.0
H2210 H 0.98012 0.46872 0.18223 0.0
C2211 C 0.0181 0.52979 0.14178 0.0
C2212 C 0.98919 0.50122 0.1387 0.0
H2213 H 0.05489 0.55906 0.16146 0.0
H2214 H 0.0287 0.54731 0.13074 0.0
C2215 C 0.97604 0.47916 0.15343 0.0
C2216 C 0.4973 0.49033 0.17098 0.0
C2217 C 0.49812 0.51925 0.17302 0.0
H2218 H 0.5061 0.46038 0.15298 0.0
C2219 C 0.50736 0.53982 0.15752 0.0
H2220 H 0.49049 0.47407 0.18268 0.0
C2221 C 0.51637 0.53203 0.14054 0.0
C2222 C 0.51659 0.50358 0.13868 0.0
H2223 H 0.50793 0.56214 0.15859 0.0
H2224 H 0.52412 0.54873 0.12902 0.0
C2225 C 0.50657 0.48265 0.15403 0.0
C2226 C 0.97535 0.45283 0.86796 0.0
C2227 C 0.98735 0.47374 0.85265 0.0
H2228 H 0.98222 0.44404 0.89655 0.0
C2229 C 0.0159 0.50296 0.85484 0.0
H2230 H 0.95324 0.43026 0.86667 0.0
C2231 C 0.03258 0.51079 0.87192 0.0
C2232 C 0.02072 0.48971 0.88716 0.0
H2233 H 0.02576 0.51941 0.84322 0.0
H2234 H 0.0547 0.53334 0.87322 0.0
C2235 C 0.99178 0.4608 0.88507 0.0
C2236 C 0.50704 0.45866 0.86676 0.0
C2237 C 0.51693 0.47976 0.8515 0.0
H2238 H 0.48964 0.44899 0.89513 0.0
C2239 C 0.51834 0.50888 0.85388 0.0
H2240 H 0.50602 0.43616 0.86543 0.0
C2241 C 0.50892 0.51622 0.87091 0.0
C2242 C 0.49819 0.49475 0.886 0.0
H2243 H 0.52567 0.52556 0.84237 0.0
H2244 H 0.50977 0.53865 0.87221 0.0
C2245 C 0.49791 0.46611 0.88383 0.0
C2246 C 0.50445 0.03914 0.86737 0.0
C2247 C 0.51638 0.03012 0.85186 0.0
H2248 H 0.48757 0.02974 0.89593 0.0
C2249 C 0.5218 0.00455 0.85405 0.0
H2250 H 0.5003 0.05892 0.86628 0.0
C2251 C 0.51445 0.98782 0.87104 0.0
C2252 C 0.50174 0.99633 0.8864 0.0
H2253 H 0.53076 0.99678 0.84243 0.0
H2254 H 0.51847 0.96796 0.87209 0.0
C2255 C 0.49741 0.02259 0.88445 0.0
C2256 C 0.13766 0.3025 0.49411 0.0
C2257 C 0.15914 0.31022 0.5094 0.0
H2258 H 0.13088 0.31256 0.46567 0.0
C2259 C 0.19157 0.33452 0.50698 0.0
H2260 H 0.11261 0.28372 0.49536 0.0
C2261 C 0.20206 0.351 0.48993 0.0
C2262 C 0.18051 0.34358 0.47472 0.0
H2263 H 0.20878 0.34135 0.51842 0.0
H2264 H 0.22719 0.36961 0.48867 0.0
C2265 C 0.14823 0.31885 0.47699 0.0
C2266 C 0.7015 0.87508 0.49111 0.0
C2267 C 0.68981 0.85377 0.50624 0.0
H2268 H 0.69449 0.88437 0.46264 0.0
C2269 C 0.66169 0.8243 0.5038 0.0
H2270 H 0.72327 0.89787 0.49256 0.0
C2271 C 0.64512 0.81661 0.48668 0.0
C2272 C 0.65662 0.8381 0.47162 0.0
H2273 H 0.65206 0.80752 0.51527 0.0
H2274 H 0.62334 0.79383 0.48519 0.0
C2275 C 0.68516 0.86728 0.47396 0.0
C2276 C 0.16065 0.82325 0.50473 0.0
C2277 C 0.1619 0.85238 0.50666 0.0
H2278 H 0.16888 0.79278 0.48686 0.0
C2279 C 0.17127 0.87279 0.49108 0.0
H2280 H 0.15374 0.80709 0.51649 0.0
C2281 C 0.17999 0.86461 0.47411 0.0
C2282 C 0.1798 0.83595 0.47238 0.0
H2283 H 0.17216 0.89526 0.49206 0.0
H2284 H 0.18785 0.88119 0.46253 0.0
C2285 C 0.16964 0.81519 0.48781 0.0
C2286 C 0.64046 0.7853 0.2019 0.0
C2287 C 0.65097 0.80634 0.18663 0.0
H2288 H 0.64908 0.77705 0.23029 0.0
C2289 C 0.67874 0.8362 0.18865 0.0
H2290 H 0.619 0.76221 0.20075 0.0
C2291 C 0.69606 0.84462 0.20551 0.0
C2292 C 0.68566 0.82349 0.22073 0.0
H2293 H 0.68749 0.85276 0.17705 0.0
H2294 H 0.7175 0.86772 0.20668 0.0
C2295 C 0.65754 0.79385 0.21881 0.0
C2296 C 0.20131 0.8276 0.19844 0.0
C2297 C 0.17828 0.81206 0.1842 0.0
H2298 H 0.21001 0.84649 0.22637 0.0
C2299 C 0.14581 0.80433 0.18736 0.0
H2300 H 0.22647 0.83372 0.19646 0.0
C2301 C 0.1364 0.81145 0.20438 0.0
C2302 C 0.15918 0.82655 0.21878 0.0
H2303 H 0.12752 0.79269 0.17662 0.0
H2304 H 0.11103 0.8046 0.20637 0.0
C2305 C 0.19181 0.8346 0.21562 0.0
C2306 C 0.15012 0.3365 0.18825 0.0
C2307 C 0.18139 0.36192 0.18432 0.0
H2308 H 0.119 0.30062 0.20767 0.0
C2309 C 0.20583 0.37044 0.19798 0.0
H2310 H 0.13075 0.32901 0.17803 0.0
C2311 C 0.19902 0.354 0.21514 0.0
C2312 C 0.16775 0.32837 0.2189 0.0
H2313 H 0.23012 0.39002 0.19549 0.0
H2314 H 0.21837 0.36096 0.22531 0.0
C2315 C 0.14343 0.32 0.20522 0.0
C2316 C 0.81942 0.66323 0.83751 0.0
C2317 C 0.82177 0.63618 0.84109 0.0
H2318 H 0.82816 0.70033 0.81826 0.0
C2319 C 0.83468 0.62548 0.82695 0.0
H2320 H 0.80987 0.6723 0.8481 0.0
C2321 C 0.84492 0.64147 0.80966 0.0
C2322 C 0.84308 0.66887 0.80629 0.0
H2323 H 0.83663 0.60461 0.8292 0.0
H2324 H 0.855 0.63286 0.79911 0.0
C2325 C 0.83009 0.67942 0.82042 0.0
C2326 C 0.36801 0.20877 0.82399 0.0
C2327 C 0.35577 0.18749 0.83913 0.0
H2328 H 0.36173 0.21822 0.79542 0.0
C2329 C 0.3274 0.15824 0.83659 0.0
H2330 H 0.38998 0.23138 0.82552 0.0
C2331 C 0.31114 0.15075 0.81937 0.0
C2332 C 0.3232 0.17222 0.80431 0.0
H2333 H 0.31735 0.14149 0.84806 0.0
H2334 H 0.28915 0.12816 0.81782 0.0
C2335 C 0.35198 0.20115 0.80674 0.0
C2336 C 0.8389 0.2076 0.82438 0.0
C2337 C 0.82912 0.18698 0.83988 0.0
H2338 H 0.85591 0.21624 0.7959 0.0
C2339 C 0.82765 0.15777 0.83786 0.0
H2340 H 0.83998 0.23015 0.82541 0.0
C2341 C 0.8368 0.14982 0.82096 0.0
C2342 C 0.84735 0.17076 0.80561 0.0
H2343 H 0.82042 0.14145 0.84956 0.0
H2344 H 0.83585 0.12732 0.81995 0.0
C2345 C 0.84776 0.19952 0.80742 0.0
C2346 C 0.35481 0.17117 0.5207 0.0
C2347 C 0.32642 0.14199 0.51808 0.0
H2348 H 0.39259 0.2013 0.53971 0.0
C2349 C 0.31359 0.12088 0.53326 0.0
H2350 H 0.36527 0.18779 0.50919 0.0
C2351 C 0.32906 0.12862 0.55067 0.0
C2352 C 0.35787 0.15749 0.5532 0.0
H2353 H 0.29156 0.09832 0.53165 0.0
H2354 H 0.31888 0.11171 0.56206 0.0
C2355 C 0.37054 0.17877 0.53808 0.0
C2356 C 0.84212 0.12934 0.53277 0.0
C2357 C 0.85068 0.15033 0.5175 0.0
H2358 H 0.8258 0.11919 0.56131 0.0
C2359 C 0.85133 0.17905 0.52017 0.0
H2360 H 0.84173 0.10717 0.53123 0.0
C2361 C 0.84222 0.18597 0.53745 0.0
C2362 C 0.83252 0.16445 0.55251 0.0
H2363 H 0.85767 0.19565 0.50869 0.0
H2364 H 0.84235 0.20802 0.53894 0.0
C2365 C 0.83325 0.13635 0.55006 0.0
C2366 C 0.81328 0.66944 0.52152 0.0
C2367 C 0.84464 0.6948 0.51771 0.0
H2368 H 0.78172 0.63376 0.54091 0.0
C2369 C 0.86881 0.70339 0.53156 0.0
H2370 H 0.79411 0.66188 0.51117 0.0
C2371 C 0.86162 0.68708 0.54878 0.0
C2372 C 0.83025 0.66152 0.55243 0.0
H2373 H 0.89316 0.72292 0.52916 0.0
H2374 H 0.88077 0.69408 0.55909 0.0
C2375 C 0.80622 0.65309 0.53856 0.0
loop_
_geom_bond_atom_site_label_1
_geom_bond_atom_site_label_2
_geom_bond_distance
_geom_bond_site_symmetry_2
_ccdc_geom_bond_type
C0 C1 1.391 . S
C0 C4 1.391 . S
C0 H42 0.948 . S
C1 C0 1.391 . S
C1 C2 1.391 . S
C2 C1 1.391 . S
C2 H58 0.947 . S
C2 C59 1.392 . S
C3 C4 1.391 . S
C3 C7 1.397 . S
C3 C59 1.419 . S
C4 C0 1.391 . S
C4 C3 1.391 . S
C4 C5 1.399 . S
C5 C4 1.399 . S
C5 C8 1.396 . S
C5 C17 1.453 . S
C5 C18 1.684 . S
H6 C30 0.948 . S
C7 C3 1.397 . S
C7 C8 1.394 . S
C7 C26 1.723 . S
C8 C5 1.396 . S
C8 C7 1.394 . S
C8 C38 1.723 . S
H9 C32 0.947 . S
H10 C33 0.948 . S
H11 C39 0.982 . S
H12 C40 0.979 . S
H13 C40 0.980 . S
H14 C40 0.983 . S
H15 C39 0.979 . S
H16 C39 0.977 . S
C17 C5 1.453 . S
C17 H46 0.982 . S
C17 H47 0.979 . S
C17 H48 0.977 . S
C18 C5 1.684 . S
C18 H43 0.979 . S
C18 H44 0.980 . S
C18 H45 0.983 . S
C19 C20 1.391 . S
C19 C24 1.391 . S
C19 H49 0.948 . S
C20 C19 1.391 . S
C20 C21 1.391 . S
C21 C20 1.391 . S
C21 C22 1.392 . S
C21 H50 0.947 . S
C22 C21 1.392 . S
C22 C23 1.419 . S
C22 H51 0.948 . S
C23 C22 1.419 . S
C23 C24 1.391 . S
C23 C27 1.397 . S
C24 C19 1.391 . S
C24 C23 1.391 . S
C24 C25 1.399 . S
C25 C24 1.399 . S
C25 C26 1.396 . S
C25 C28 1.453 . S
C25 C29 1.684 . S
C26 C7 1.723 . S
C26 C25 1.396 . S
C26 C27 1.394 . S
C27 C23 1.397 . S
C27 C26 1.394 . S
C27 C37 1.723 . S
C28 C25 1.453 . S
C28 H52 0.982 . S
C28 H53 0.979 . S
C28 H54 0.977 . S
C29 C25 1.684 . S
C29 H55 0.979 . S
C29 H56 0.980 . S
C29 H57 0.983 . S
C30 H6 0.948 . S
C30 C31 1.391 . S
C30 C35 1.391 . S
C31 C30 1.391 . S
C31 C32 1.391 . S
C32 H9 0.947 . S
C32 C31 1.391 . S
C32 C33 1.392 . S
C33 H10 0.948 . S
C33 C32 1.392 . S
C33 C34 1.419 . S
C34 C33 1.419 . S
C34 C35 1.391 . S
C34 C38 1.397 . S
C35 C30 1.391 . S
C35 C34 1.391 . S
C35 C36 1.399 . S
C36 C35 1.399 . S
C36 C37 1.396 . S
C36 C39 1.453 . S
C36 C40 1.684 . S
C37 C27 1.723 . S
C37 C36 1.396 . S
C37 C38 1.394 . S
C38 C8 1.723 . S
C38 C34 1.397 . S
C38 C37 1.394 . S
C39 H11 0.982 . S
C39 H15 0.979 . S
C39 H16 0.977 . S
C39 C36 1.453 . S
C40 H12 0.979 . S
C40 H13 0.980 . S
C40 H14 0.983 . S
C40 C36 1.684 . S
H41 C59 0.948 . S
H42 C0 0.948 . S
H43 C18 0.979 . S
H44 C18 0.980 . S
H45 C18 0.983 . S
H46 C17 0.982 . S
H47 C17 0.979 . S
H48 C17 0.977 . S
H49 C19 0.948 . S
H50 C21 0.947 . S
H51 C22 0.948 . S
H52 C28 0.982 . S
H53 C28 0.979 . S
H54 C28 0.977 . S
H55 C29 0.979 . S
H56 C29 0.980 . S
H57 C29 0.983 . S
H58 C2 0.947 . S
C59 C2 1.392 . S
C59 C3 1.419 . S
C59 H41 0.948 . S
C60 C61 1.391 . S
C60 C64 1.391 . S
C60 H102 0.948 . S
C61 C60 1.391 . S
C61 C62 1.391 . S
C62 C61 1.391 . S
C62 H118 0.947 1_655 S
C62 C119 1.392 . S
C63 C64 1.391 . S
C63 C67 1.397 . S
C63 C119 1.419 . S
C64 C60 1.391 . S
C64 C63 1.391 . S
C64 C65 1.399 . S
C65 C64 1.399 . S
C65 C68 1.396 . S
C65 C77 1.453 . S
C65 C78 1.684 . S
H66 C90 0.948 . S
C67 C63 1.397 . S
C67 C68 1.394 . S
C67 C86 1.723 . S
C68 C65 1.396 . S
C68 C67 1.394 . S
C68 C98 1.723 . S
H69 C92 0.947 . S
H70 C93 0.948 . S
H71 C99 0.982 . S
H72 C100 0.979 . S
H73 C100 0.980 . S
H74 C100 0.983 . S
H75 C99 0.979 . S
H76 C99 0.977 . S
C77 C65 1.453 . S
C77 H106 0.982 . S
C77 H107 0.979 . S
C77 H108 0.977 . S
C78 C65 1.684 . S
C78 H103 0.979 . S
C78 H104 0.980 . S
C78 H105 0.983 . S
C79 C80 1.391 . S
C79 C84 1.391 . S
C79 H109 0.948 . S
C80 C79 1.391 . S
C80 C81 1.391 . S
C81 C80 1.391 . S
C81 C82 1.392 . S
C81 H110 0.947 . S
C82 C81 1.392 . S
C82 C83 1.419 . S
C82 H111 0.948 . S
C83 C82 1.419 . S
C83 C84 1.391 . S
C83 C87 1.397 . S
C84 C79 1.391 . S
C84 C83 1.391 . S
C84 C85 1.399 . S
C85 C84 1.399 . S
C85 C86 1.396 . S
C85 C88 1.453 . S
C85 C89 1.684 . S
C86 C67 1.723 . S
C86 C85 1.396 . S
C86 C87 1.394 . S
C87 C83 1.397 . S
C87 C86 1.394 . S
C87 C97 1.723 . S
C88 C85 1.453 . S
C88 H112 0.982 . S
C88 H113 0.979 . S
C88 H114 0.977 . S
C89 C85 1.684 . S
C89 H115 0.979 . S
C89 H116 0.980 . S
C89 H117 0.983 . S
C90 H66 0.948 . S
C90 C91 1.391 . S
C90 C95 1.391 . S
C91 C90 1.391 . S
C91 C92 1.391 . S
C92 H69 0.947 . S
C92 C91 1.391 . S
C92 C93 1.392 . S
C93 H70 0.948 . S
C93 C92 1.392 . S
C93 C94 1.419 . S
C94 C93 1.419 . S
C94 C95 1.391 . S
C94 C98 1.397 . S
C95 C90 1.391 . S
C95 C94 1.391 . S
C95 C96 1.399 . S
C96 C95 1.399 . S
C96 C97 1.396 . S
C96 C99 1.453 . S
C96 C100 1.684 . S
C97 C87 1.723 . S
C97 C96 1.396 . S
C97 C98 1.394 . S
C98 C68 1.723 . S
C98 C94 1.397 . S
C98 C97 1.394 . S
C99 H71 0.982 . S
C99 H75 0.979 . S
C99 H76 0.977 . S
C99 C96 1.453 . S
C100 H72 0.979 . S
C100 H73 0.980 . S
C100 H74 0.983 . S
C100 C96 1.684 . S
H101 C119 0.948 . S
H102 C60 0.948 . S
H103 C78 0.979 . S
H104 C78 0.980 . S
H105 C78 0.983 . S
H106 C77 0.982 . S
H107 C77 0.979 . S
H108 C77 0.977 . S
H109 C79 0.948 . S
H110 C81 0.947 . S
H111 C82 0.948 . S
H112 C88 0.982 . S
H113 C88 0.979 . S
H114 C88 0.977 . S
H115 C89 0.979 . S
H116 C89 0.980 . S
H117 C89 0.983 . S
H118 C62 0.947 1_455 S
C119 C62 1.392 . S
C119 C63 1.419 . S
C119 H101 0.948 . S
C120 C121 1.402 . S
C120 C124 1.391 . S
C120 H162 0.948 . S
C121 C120 1.402 . S
C121 C122 1.390 . S
C122 C121 1.390 . S
C122 H178 0.947 1_655 S
C122 C179 1.392 . S
C123 C124 1.391 . S
C123 C127 1.397 . S
C123 C179 1.419 . S
C124 C120 1.391 . S
C124 C123 1.391 . S
C124 C125 1.399 . S
C125 C124 1.399 . S
C125 C128 1.396 . S
C125 C137 1.453 . S
C125 C138 1.684 . S
H126 C150 0.948 . S
C127 C123 1.397 . S
C127 C128 1.394 . S
C127 C146 1.723 . S
C128 C125 1.396 . S
C128 C127 1.394 . S
C128 C158 1.723 . S
H129 C152 0.947 . S
H130 C153 0.948 . S
H131 C159 0.982 . S
H132 C160 0.979 . S
H133 C160 0.980 . S
H134 C160 0.983 . S
H135 C159 0.979 . S
H136 C159 0.977 . S
C137 C125 1.453 . S
C137 H166 0.982 . S
C137 H167 0.979 . S
C137 H168 0.977 . S
C138 C125 1.684 . S
C138 H163 0.979 . S
C138 H164 0.980 . S
C138 H165 0.983 . S
C139 C140 1.391 . S
C139 C144 1.391 . S
C139 H169 0.948 . S
C140 C139 1.391 . S
C140 C141 1.391 . S
C141 C140 1.391 . S
C141 C142 1.392 . S
C141 H170 0.947 . S
C142 C141 1.392 . S
C142 C143 1.419 . S
C142 H171 0.948 . S
C143 C142 1.419 . S
C143 C144 1.391 . S
C143 C147 1.397 . S
C144 C139 1.391 . S
C144 C143 1.391 . S
C144 C145 1.399 . S
C145 C144 1.399 . S
C145 C146 1.396 . S
C145 C148 1.453 . S
C145 C149 1.684 . S
C146 C127 1.723 . S
C146 C145 1.396 . S
C146 C147 1.394 . S
C147 C143 1.397 . S
C147 C146 1.394 . S
C147 C157 1.723 . S
C148 C145 1.453 . S
C148 H172 0.982 . S
C148 H173 0.979 . S
C148 H174 0.977 . S
C149 C145 1.684 . S
C149 H175 0.979 . S
C149 H176 0.980 . S
C149 H177 0.983 . S
C150 H126 0.948 . S
C150 C151 1.391 . S
C150 C155 1.391 . S
C151 C150 1.391 . S
C151 C152 1.391 . S
C152 H129 0.947 . S
C152 C151 1.391 . S
C152 C153 1.392 . S
C153 H130 0.948 . S
C153 C152 1.392 . S
C153 C154 1.419 . S
C154 C153 1.419 . S
C154 C155 1.391 . S
C154 C158 1.397 . S
C155 C150 1.391 . S
C155 C154 1.391 . S
C155 C156 1.399 . S
C156 C155 1.399 . S
C156 C157 1.396 . S
C156 C159 1.453 . S
C156 C160 1.684 . S
C157 C147 1.723 . S
C157 C156 1.396 . S
C157 C158 1.394 . S
C158 C128 1.723 . S
C158 C154 1.397 . S
C158 C157 1.394 . S
C159 H131 0.982 . S
C159 H135 0.979 . S
C159 H136 0.977 . S
C159 C156 1.453 . S
C160 H132 0.979 . S
C160 H133 0.980 . S
C160 H134 0.983 . S
C160 C156 1.684 . S
H161 C179 0.948 . S
H162 C120 0.948 . S
H163 C138 0.979 . S
H164 C138 0.980 . S
H165 C138 0.983 . S
H166 C137 0.982 . S
H167 C137 0.979 . S
H168 C137 0.977 . S
H169 C139 0.948 . S
H170 C141 0.947 . S
H171 C142 0.948 . S
H172 C148 0.982 . S
H173 C148 0.979 . S
H174 C148 0.977 . S
H175 C149 0.979 . S
H176 C149 0.980 . S
H177 C149 0.983 . S
H178 C122 0.947 1_455 S
C179 C122 1.392 . S
C179 C123 1.419 . S
C179 H161 0.948 . S
C180 C181 1.391 . S
C180 C184 1.391 . S
C180 H222 0.948 . S
C181 C180 1.391 . S
C181 C182 1.391 . S
C182 C181 1.391 . S
C182 H238 0.947 . S
C182 C239 1.392 . S
C183 C184 1.391 . S
C183 C187 1.397 . S
C183 C239 1.419 . S
C184 C180 1.391 . S
C184 C183 1.391 . S
C184 C185 1.399 . S
C185 C184 1.399 . S
C185 C188 1.396 . S
C185 C197 1.453 . S
C185 C198 1.684 . S
H186 C210 0.948 1_655 S
C187 C183 1.397 . S
C187 C188 1.394 . S
C187 C206 1.723 . S
C188 C185 1.396 . S
C188 C187 1.394 . S
C188 C218 1.723 . S
H189 C212 0.947 . S
H190 C213 0.948 . S
H191 C219 0.982 . S
H192 C220 0.979 . S
H193 C220 0.980 . S
H194 C220 0.983 . S
H195 C219 0.979 . S
H196 C219 0.977 . S
C197 C185 1.453 . S
C197 H226 0.982 . S
C197 H227 0.979 . S
C197 H228 0.977 . S
C198 C185 1.684 . S
C198 H223 0.979 . S
C198 H224 0.980 . S
C198 H225 0.983 . S
C199 C200 1.391 . S
C199 C204 1.391 . S
C199 H229 0.948 . S
C200 C199 1.391 . S
C200 C201 1.391 . S
C201 C200 1.391 . S
C201 C202 1.392 . S
C201 H230 0.947 . S
C202 C201 1.392 . S
C202 C203 1.419 . S
C202 H231 0.948 . S
C203 C202 1.419 . S
C203 C204 1.391 . S
C203 C207 1.397 . S
C204 C199 1.391 . S
C204 C203 1.391 . S
C204 C205 1.399 . S
C205 C204 1.399 . S
C205 C206 1.396 . S
C205 C208 1.453 . S
C205 C209 1.684 . S
C206 C187 1.723 . S
C206 C205 1.396 . S
C206 C207 1.394 . S
C207 C203 1.397 . S
C207 C206 1.394 . S
C207 C217 1.723 . S
C208 C205 1.453 . S
C208 H232 0.982 . S
C208 H233 0.979 . S
C208 H234 0.977 . S
C209 C205 1.684 . S
C209 H235 0.979 . S
C209 H236 0.980 . S
C209 H237 0.983 . S
C210 H186 0.948 1_455 S
C210 C211 1.391 . S
C210 C215 1.391 . S
C211 C210 1.391 . S
C211 C212 1.391 . S
C212 H189 0.947 . S
C212 C211 1.391 . S
C212 C213 1.392 . S
C213 H190 0.948 . S
C213 C212 1.392 . S
C213 C214 1.419 . S
C214 C213 1.419 . S
C214 C215 1.391 . S
C214 C218 1.397 . S
C215 C210 1.391 . S
C215 C214 1.391 . S
C215 C216 1.399 . S
C216 C215 1.399 . S
C216 C217 1.396 . S
C216 C219 1.453 . S
C216 C220 1.684 . S
C217 C207 1.723 . S
C217 C216 1.396 . S
C217 C218 1.394 . S
C218 C188 1.723 . S
C218 C214 1.397 . S
C218 C217 1.394 . S
C219 H191 0.982 . S
C219 H195 0.979 . S
C219 H196 0.977 . S
C219 C216 1.453 . S
C220 H192 0.979 . S
C220 H193 0.980 . S
C220 H194 0.983 . S
C220 C216 1.684 . S
H221 C239 0.948 . S
H222 C180 0.948 . S
H223 C198 0.979 . S
H224 C198 0.980 . S
H225 C198 0.983 . S
H226 C197 0.982 . S
H227 C197 0.979 . S
H228 C197 0.977 . S
H229 C199 0.948 . S
H230 C201 0.947 . S
H231 C202 0.948 . S
H232 C208 0.982 . S
H233 C208 0.979 . S
H234 C208 0.977 . S
H235 C209 0.979 . S
H236 C209 0.980 . S
H237 C209 0.983 . S
H238 C182 0.947 . S
C239 C182 1.392 . S
C239 C183 1.419 . S
C239 H221 0.948 . S
C240 C241 1.391 . S
C240 C244 1.391 . S
C240 H282 0.948 . S
C241 C240 1.391 . S
C241 C242 1.391 . S
C242 C241 1.391 . S
C242 H298 0.947 . S
C242 C299 1.392 . S
C243 C244 1.391 . S
C243 C247 1.397 . S
C243 C299 1.419 . S
C244 C240 1.391 . S
C244 C243 1.391 . S
C244 C245 1.399 . S
C245 C244 1.399 . S
C245 C248 1.396 . S
C245 C257 1.453 . S
C245 C258 1.684 . S
H246 C270 0.948 . S
C247 C243 1.397 . S
C247 C248 1.394 . S
C247 C266 1.723 . S
C248 C245 1.396 . S
C248 C247 1.394 . S
C248 C278 1.723 . S
H249 C272 0.947 . S
H250 C273 0.948 . S
H251 C279 0.982 . S
H252 C280 0.979 . S
H253 C280 0.980 . S
H254 C280 0.983 . S
H255 C279 0.979 . S
H256 C279 0.977 . S
C257 C245 1.453 . S
C257 H286 0.982 . S
C257 H287 0.979 . S
C257 H288 0.977 . S
C258 C245 1.684 . S
C258 H283 0.979 . S
C258 H284 0.980 . S
C258 H285 0.983 . S
C259 C260 1.391 . S
C259 C264 1.391 . S
C259 H289 0.948 . S
C260 C259 1.391 . S
C260 C261 1.391 . S
C261 C260 1.391 . S
C261 C262 1.392 . S
C261 H290 0.947 . S
C262 C261 1.392 . S
C262 C263 1.419 . S
C262 H291 0.948 . S
C263 C262 1.419 . S
C263 C264 1.391 . S
C263 C267 1.397 . S
C264 C259 1.391 . S
C264 C263 1.391 . S
C264 C265 1.399 . S
C265 C264 1.399 . S
C265 C266 1.396 . S
C265 C268 1.453 . S
C265 C269 1.684 . S
C266 C247 1.723 . S
C266 C265 1.396 . S
C266 C267 1.394 . S
C267 C263 1.397 . S
C267 C266 1.394 . S
C267 C277 1.723 . S
C268 C265 1.453 . S
C268 H292 0.982 . S
C268 H293 0.979 . S
C268 H294 0.977 . S
C269 C265 1.684 . S
C269 H295 0.979 . S
C269 H296 0.980 . S
C269 H297 0.983 . S
C270 H246 0.948 . S
C270 C271 1.391 . S
C270 C275 1.391 . S
C271 C270 1.391 . S
C271 C272 1.391 . S
C272 H249 0.947 . S
C272 C271 1.391 . S
C272 C273 1.392 . S
C273 H250 0.948 . S
C273 C272 1.392 . S
C273 C274 1.419 . S
C274 C273 1.419 . S
C274 C275 1.391 . S
C274 C278 1.397 . S
C275 C270 1.391 . S
C275 C274 1.391 . S
C275 C276 1.399 . S
C276 C275 1.399 . S
C276 C277 1.396 . S
C276 C279 1.453 . S
C276 C280 1.684 . S
C277 C267 1.723 . S
C277 C276 1.396 . S
C277 C278 1.394 . S
C278 C248 1.723 . S
C278 C274 1.397 . S
C278 C277 1.394 . S
C279 H251 0.982 . S
C279 H255 0.979 . S
C279 H256 0.977 . S
C279 C276 1.453 . S
C280 H252 0.979 . S
C280 H253 0.980 . S
C280 H254 0.983 . S
C280 C276 1.684 . S
H281 C299 0.948 . S
H282 C240 0.948 . S
H283 C258 0.979 . S
H284 C258 0.980 . S
H285 C258 0.983 . S
H286 C257 0.982 . S
H287 C257 0.979 . S
H288 C257 0.977 . S
H289 C259 0.948 . S
H290 C261 0.947 . S
H291 C262 0.948 . S
H292 C268 0.982 . S
H293 C268 0.979 . S
H294 C268 0.977 . S
H295 C269 0.979 . S
H296 C269 0.980 . S
H297 C269 0.983 . S
H298 C242 0.947 . S
C299 C242 1.392 . S
C299 C243 1.419 . S
C299 H281 0.948 . S
C300 C301 1.391 . S
C300 C304 1.391 . S
C300 H342 0.948 . S
C301 C300 1.391 . S
C301 C302 1.391 . S
C302 C301 1.391 . S
C302 H358 0.947 1_455 S
C302 C359 1.392 . S
C303 C304 1.391 . S
C303 C307 1.397 . S
C303 C359 1.419 . S
C304 C300 1.391 . S
C304 C303 1.391 . S
C304 C305 1.399 . S
C305 C304 1.399 . S
C305 C308 1.396 . S
C305 C317 1.453 . S
C305 C318 1.684 . S
H306 C330 0.948 . S
C307 C303 1.397 . S
C307 C308 1.394 . S
C307 C326 1.723 . S
C308 C305 1.396 . S
C308 C307 1.394 . S
C308 C338 1.723 . S
H309 C332 0.947 . S
H310 C333 0.948 . S
H311 C339 0.982 . S
H312 C340 0.979 . S
H313 C340 0.980 . S
H314 C340 0.983 . S
H315 C339 0.979 . S
H316 C339 0.977 . S
C317 C305 1.453 . S
C317 H346 0.982 . S
C317 H347 0.979 . S
C317 H348 0.977 . S
C318 C305 1.684 . S
C318 H343 0.979 . S
C318 H344 0.980 . S
C318 H345 0.983 . S
C319 C320 1.391 . S
C319 C324 1.391 . S
C319 H349 0.948 . S
C320 C319 1.391 . S
C320 C321 1.391 . S
C321 C320 1.391 . S
C321 C322 1.392 . S
C321 H350 0.947 . S
C322 C321 1.392 . S
C322 C323 1.419 . S
C322 H351 0.948 . S
C323 C322 1.419 . S
C323 C324 1.391 . S
C323 C327 1.397 . S
C324 C319 1.391 . S
C324 C323 1.391 . S
C324 C325 1.399 . S
C325 C324 1.399 . S
C325 C326 1.396 . S
C325 C328 1.453 . S
C325 C329 1.684 . S
C326 C307 1.723 . S
C326 C325 1.396 . S
C326 C327 1.394 . S
C327 C323 1.397 . S
C327 C326 1.394 . S
C327 C337 1.723 . S
C328 C325 1.453 . S
C328 H352 0.982 . S
C328 H353 0.979 . S
C328 H354 0.977 . S
C329 C325 1.684 . S
C329 H355 0.979 . S
C329 H356 0.980 . S
C329 H357 0.983 . S
C330 H306 0.948 . S
C330 C331 1.391 . S
C330 C335 1.391 . S
C331 C330 1.391 . S
C331 C332 1.391 . S
C332 H309 0.947 . S
C332 C331 1.391 . S
C332 C333 1.392 . S
C333 H310 0.948 . S
C333 C332 1.392 . S
C333 C334 1.419 . S
C334 C333 1.419 . S
C334 C335 1.391 . S
C334 C338 1.397 . S
C335 C330 1.391 . S
C335 C334 1.391 . S
C335 C336 1.399 . S
C336 C335 1.399 . S
C336 C337 1.396 . S
C336 C339 1.453 . S
C336 C340 1.684 . S
C337 C327 1.723 . S
C337 C336 1.396 . S
C337 C338 1.394 . S
C338 C308 1.723 . S
C338 C334 1.397 . S
C338 C337 1.394 . S
C339 H311 0.982 . S
C339 H315 0.979 . S
C339 H316 0.977 . S
C339 C336 1.453 . S
C340 H312 0.979 . S
C340 H313 0.980 . S
C340 H314 0.983 . S
C340 C336 1.684 . S
H341 C359 0.948 . S
H342 C300 0.948 . S
H343 C318 0.979 . S
H344 C318 0.980 . S
H345 C318 0.983 . S
H346 C317 0.982 . S
H347 C317 0.979 . S
H348 C317 0.977 . S
H349 C319 0.948 . S
H350 C321 0.947 . S
H351 C322 0.948 . S
H352 C328 0.982 . S
H353 C328 0.979 . S
H354 C328 0.977 . S
H355 C329 0.979 . S
H356 C329 0.980 . S
H357 C329 0.983 . S
H358 C302 0.947 1_655 S
C359 C302 1.392 . S
C359 C303 1.419 . S
C359 H341 0.948 . S
C360 C361 1.391 . S
C360 C364 1.391 . S
C360 H402 0.948 . S
C361 C360 1.391 . S
C361 C362 1.391 . S
C362 C361 1.391 . S
C362 H418 0.947 . S
C362 C419 1.392 . S
C363 C364 1.391 . S
C363 C367 1.397 . S
C363 C419 1.419 . S
C364 C360 1.391 . S
C364 C363 1.391 . S
C364 C365 1.399 . S
C365 C364 1.399 . S
C365 C368 1.396 . S
C365 C377 1.453 . S
C365 C378 1.684 . S
H366 C390 0.948 . S
C367 C363 1.397 . S
C367 C368 1.394 . S
C367 C386 1.723 . S
C368 C365 1.396 . S
C368 C367 1.394 . S
C368 C398 1.723 . S
H369 C392 0.947 . S
H370 C393 0.948 . S
H371 C399 0.982 . S
H372 C400 0.979 . S
H373 C400 0.980 . S
H374 C400 0.983 . S
H375 C399 0.979 . S
H376 C399 0.977 . S
C377 C365 1.453 . S
C377 H406 0.982 . S
C377 H407 0.979 . S
C377 H408 0.977 . S
C378 C365 1.684 . S
C378 H403 0.979 . S
C378 H404 0.980 . S
C378 H405 0.983 . S
C379 C380 1.391 . S
C379 C384 1.391 . S
C379 H409 0.948 . S
C380 C379 1.391 . S
C380 C381 1.391 . S
C381 C380 1.391 . S
C381 C382 1.392 . S
C381 H410 0.947 . S
C382 C381 1.392 . S
C382 C383 1.419 . S
C382 H411 0.948 . S
C383 C382 1.419 . S
C383 C384 1.391 . S
C383 C387 1.397 . S
C384 C379 1.391 . S
C384 C383 1.391 . S
C384 C385 1.399 . S
C385 C384 1.399 . S
C385 C386 1.396 . S
C385 C388 1.453 . S
C385 C389 1.684 . S
C386 C367 1.723 . S
C386 C385 1.396 . S
C386 C387 1.394 . S
C387 C383 1.397 . S
C387 C386 1.394 . S
C387 C397 1.723 . S
C388 C385 1.453 . S
C388 H412 0.982 . S
C388 H413 0.979 . S
C388 H414 0.977 . S
C389 C385 1.684 . S
C389 H415 0.979 . S
C389 H416 0.980 . S
C389 H417 0.983 . S
C390 H366 0.948 . S
C390 C391 1.391 . S
C390 C395 1.391 . S
C391 C390 1.391 . S
C391 C392 1.391 . S
C392 H369 0.947 . S
C392 C391 1.391 . S
C392 C393 1.392 . S
C393 H370 0.948 . S
C393 C392 1.392 . S
C393 C394 1.419 . S
C394 C393 1.419 . S
C394 C395 1.391 . S
C394 C398 1.397 . S
C395 C390 1.391 . S
C395 C394 1.391 . S
C395 C396 1.399 . S
C396 C395 1.399 . S
C396 C397 1.396 . S
C396 C399 1.453 . S
C396 C400 1.684 . S
C397 C387 1.723 . S
C397 C396 1.396 . S
C397 C398 1.394 . S
C398 C368 1.723 . S
C398 C394 1.397 . S
C398 C397 1.394 . S
C399 H371 0.982 . S
C399 H375 0.979 . S
C399 H376 0.977 . S
C399 C396 1.453 . S
C400 H372 0.979 . S
C400 H373 0.980 . S
C400 H374 0.983 . S
C400 C396 1.684 . S
H401 C419 0.948 . S
H402 C360 0.948 . S
H403 C378 0.979 . S
H404 C378 0.980 . S
H405 C378 0.983 . S
H406 C377 0.982 . S
H407 C377 0.979 . S
H408 C377 0.977 . S
H409 C379 0.948 . S
H410 C381 0.947 . S
H411 C382 0.948 . S
H412 C388 0.982 . S
H413 C388 0.979 . S
H414 C388 0.977 . S
H415 C389 0.979 . S
H416 C389 0.980 . S
H417 C389 0.983 . S
H418 C362 0.947 . S
C419 C362 1.392 . S
C419 C363 1.419 . S
C419 H401 0.948 . S
C420 C421 1.391 . S
C420 C424 1.391 . S
C420 H462 0.948 . S
C421 C420 1.391 . S
C421 C422 1.391 . S
C422 C421 1.391 . S
C422 H478 0.947 . S
C422 C479 1.392 . S
C423 C424 1.391 . S
C423 C427 1.397 . S
C423 C479 1.419 . S
C424 C420 1.391 . S
C424 C423 1.391 . S
C424 C425 1.399 . S
C425 C424 1.399 . S
C425 C428 1.396 . S
C425 C437 1.453 . S
C425 C438 1.684 . S
H426 C450 0.948 . S
C427 C423 1.397 . S
C427 C428 1.394 . S
C427 C446 1.723 . S
C428 C425 1.396 . S
C428 C427 1.394 . S
C428 C458 1.723 . S
H429 C452 0.947 . S
H430 C453 0.948 . S
H431 C459 0.982 . S
H432 C460 0.979 . S
H433 C460 0.980 . S
H434 C460 0.983 . S
H435 C459 0.979 . S
H436 C459 0.977 . S
C437 C425 1.453 . S
C437 H466 0.982 . S
C437 H467 0.979 . S
C437 H468 0.977 . S
C438 C425 1.684 . S
C438 H463 0.979 . S
C438 H464 0.980 . S
C438 H465 0.983 . S
C439 C440 1.391 . S
C439 C444 1.391 . S
C439 H469 0.948 . S
C440 C439 1.391 . S
C440 C441 1.391 . S
C441 C440 1.391 . S
C441 C442 1.392 . S
C441 H470 0.947 . S
C442 C441 1.392 . S
C442 C443 1.419 . S
C442 H471 0.948 . S
C443 C442 1.419 . S
C443 C444 1.391 . S
C443 C447 1.397 . S
C444 C439 1.391 . S
C444 C443 1.391 . S
C444 C445 1.399 . S
C445 C444 1.399 . S
C445 C446 1.396 . S
C445 C448 1.453 . S
C445 C449 1.684 . S
C446 C427 1.723 . S
C446 C445 1.396 . S
C446 C447 1.394 . S
C447 C443 1.397 . S
C447 C446 1.394 . S
C447 C457 1.723 . S
C448 C445 1.453 . S
C448 H472 0.982 . S
C448 H473 0.979 . S
C448 H474 0.977 . S
C449 C445 1.684 . S
C449 H475 0.979 . S
C449 H476 0.980 . S
C449 H477 0.983 . S
C450 H426 0.948 . S
C450 C451 1.391 . S
C450 C455 1.391 . S
C451 C450 1.391 . S
C451 C452 1.391 . S
C452 H429 0.947 . S
C452 C451 1.391 . S
C452 C453 1.392 . S
C453 H430 0.948 . S
C453 C452 1.392 . S
C453 C454 1.419 . S
C454 C453 1.419 . S
C454 C455 1.391 . S
C454 C458 1.397 . S
C455 C450 1.391 . S
C455 C454 1.391 . S
C455 C456 1.399 . S
C456 C455 1.399 . S
C456 C457 1.396 . S
C456 C459 1.453 . S
C456 C460 1.684 . S
C457 C447 1.723 . S
C457 C456 1.396 . S
C457 C458 1.394 . S
C458 C428 1.723 . S
C458 C454 1.397 . S
C458 C457 1.394 . S
C459 H431 0.982 . S
C459 H435 0.979 . S
C459 H436 0.977 . S
C459 C456 1.453 . S
C460 H432 0.979 . S
C460 H433 0.980 . S
C460 H434 0.983 . S
C460 C456 1.684 . S
H461 C479 0.948 . S
H462 C420 0.948 . S
H463 C438 0.979 . S
H464 C438 0.980 . S
H465 C438 0.983 . S
H466 C437 0.982 . S
H467 C437 0.979 . S
H468 C437 0.977 . S
H469 C439 0.948 . S
H470 C441 0.947 . S
H471 C442 0.948 . S
H472 C448 0.982 . S
H473 C448 0.979 . S
H474 C448 0.977 . S
H475 C449 0.979 . S
H476 C449 0.980 . S
H477 C449 0.983 . S
H478 C422 0.947 . S
C479 C422 1.392 . S
C479 C423 1.419 . S
C479 H461 0.948 . S
C480 C481 1.391 . S
C480 C484 1.391 . S
C480 H522 0.948 . S
C481 C480 1.391 . S
C481 C482 1.391 . S
C482 C481 1.391 . S
C482 H538 0.947 . S
C482 C539 1.392 . S
C483 C484 1.391 . S
C483 C487 1.397 . S
C483 C539 1.419 . S
C484 C480 1.391 . S
C484 C483 1.391 . S
C484 C485 1.399 . S
C485 C484 1.399 . S
C485 C488 1.396 . S
C485 C497 1.453 . S
C485 C498 1.684 . S
H486 C510 0.948 . S
C487 C483 1.397 . S
C487 C488 1.394 . S
C487 C506 1.723 . S
C488 C485 1.396 . S
C488 C487 1.394 . S
C488 C518 1.723 . S
H489 C512 0.947 . S
H490 C513 0.948 . S
H491 C519 0.982 . S
H492 C520 0.979 . S
H493 C520 0.980 . S
H494 C520 0.983 . S
H495 C519 0.979 . S
H496 C519 0.977 . S
C497 C485 1.453 . S
C497 H526 0.982 . S
C497 H527 0.979 . S
C497 H528 0.977 . S
C498 C485 1.684 . S
C498 H523 0.979 . S
C498 H524 0.980 . S
C498 H525 0.983 . S
C499 C500 1.391 . S
C499 C504 1.391 . S
C499 H529 0.948 . S
C500 C499 1.391 . S
C500 C501 1.391 . S
C501 C500 1.391 . S
C501 C502 1.392 . S
C501 H530 0.947 . S
C502 C501 1.392 . S
C502 C503 1.419 . S
C502 H531 0.948 . S
C503 C502 1.419 . S
C503 C504 1.391 . S
C503 C507 1.397 . S
C504 C499 1.391 . S
C504 C503 1.391 . S
C504 C505 1.399 . S
C505 C504 1.399 . S
C505 C506 1.396 . S
C505 C508 1.453 . S
C505 C509 1.684 . S
C506 C487 1.723 . S
C506 C505 1.396 . S
C506 C507 1.394 . S
C507 C503 1.397 . S
C507 C506 1.394 . S
C507 C517 1.723 . S
C508 C505 1.453 . S
C508 H532 0.982 . S
C508 H533 0.979 . S
C508 H534 0.977 . S
C509 C505 1.684 . S
C509 H535 0.979 . S
C509 H536 0.980 . S
C509 H537 0.983 . S
C510 H486 0.948 . S
C510 C511 1.391 . S
C510 C515 1.391 . S
C511 C510 1.391 . S
C511 C512 1.391 . S
C512 H489 0.947 . S
C512 C511 1.391 . S
C512 C513 1.392 . S
C513 H490 0.948 . S
C513 C512 1.392 . S
C513 C514 1.419 . S
C514 C513 1.419 . S
C514 C515 1.391 . S
C514 C518 1.397 . S
C515 C510 1.391 . S
C515 C514 1.391 . S
C515 C516 1.399 . S
C516 C515 1.399 . S
C516 C517 1.396 . S
C516 C519 1.453 . S
C516 C520 1.684 . S
C517 C507 1.723 . S
C517 C516 1.396 . S
C517 C518 1.394 . S
C518 C488 1.723 . S
C518 C514 1.397 . S
C518 C517 1.394 . S
C519 H491 0.982 . S
C519 H495 0.979 . S
C519 H496 0.977 . S
C519 C516 1.453 . S
C520 H492 0.979 . S
C520 H493 0.980 . S
C520 H494 0.983 . S
C520 C516 1.684 . S
H521 C539 0.948 . S
H522 C480 0.948 . S
H523 C498 0.979 . S
H524 C498 0.980 . S
H525 C498 0.983 . S
H526 C497 0.982 . S
H527 C497 0.979 . S
H528 C497 0.977 . S
H529 C499 0.948 . S
H530 C501 0.947 . S
H531 C502 0.948 . S
H532 C508 0.982 . S
H533 C508 0.979 . S
H534 C508 0.977 . S
H535 C509 0.979 . S
H536 C509 0.980 . S
H537 C509 0.983 . S
H538 C482 0.947 . S
C539 C482 1.392 . S
C539 C483 1.419 . S
C539 H521 0.948 . S
C540 C541 1.391 . S
C540 C544 1.391 . S
C540 H582 0.948 . S
C541 C540 1.391 . S
C541 C542 1.391 . S
C542 C541 1.391 . S
C542 H598 0.947 . S
C542 C599 1.392 . S
C543 C544 1.391 . S
C543 C547 1.397 . S
C543 C599 1.419 . S
C544 C540 1.391 . S
C544 C543 1.391 . S
C544 C545 1.399 . S
C545 C544 1.399 . S
C545 C548 1.396 . S
C545 C557 1.453 . S
C545 C558 1.684 . S
H546 C570 0.948 . S
C547 C543 1.397 . S
C547 C548 1.394 . S
C547 C566 1.723 . S
C548 C545 1.396 . S
C548 C547 1.394 . S
C548 C578 1.723 . S
H549 C572 0.947 . S
H550 C573 0.948 . S
H551 C579 0.982 . S
H552 C580 0.979 . S
H553 C580 0.980 . S
H554 C580 0.983 . S
H555 C579 0.979 . S
H556 C579 0.977 . S
C557 C545 1.453 . S
C557 H586 0.982 . S
C557 H587 0.979 . S
C557 H588 0.977 . S
C558 C545 1.684 . S
C558 H583 0.979 . S
C558 H584 0.980 . S
C558 H585 0.983 . S
C559 C560 1.391 . S
C559 C564 1.391 . S
C559 H589 0.948 . S
C560 C559 1.391 . S
C560 C561 1.391 . S
C561 C560 1.391 . S
C561 C562 1.392 . S
C561 H590 0.947 . S
C562 C561 1.392 . S
C562 C563 1.419 . S
C562 H591 0.948 . S
C563 C562 1.419 . S
C563 C564 1.391 . S
C563 C567 1.397 . S
C564 C559 1.391 . S
C564 C563 1.391 . S
C564 C565 1.399 . S
C565 C564 1.399 . S
C565 C566 1.396 . S
C565 C568 1.453 . S
C565 C569 1.684 . S
C566 C547 1.723 . S
C566 C565 1.396 . S
C566 C567 1.394 . S
C567 C563 1.397 . S
C567 C566 1.394 . S
C567 C577 1.723 . S
C568 C565 1.453 . S
C568 H592 0.982 . S
C568 H593 0.979 . S
C568 H594 0.977 . S
C569 C565 1.684 . S
C569 H595 0.979 . S
C569 H596 0.980 . S
C569 H597 0.983 . S
C570 H546 0.948 . S
C570 C571 1.391 . S
C570 C575 1.391 . S
C571 C570 1.391 . S
C571 C572 1.391 . S
C572 H549 0.947 . S
C572 C571 1.391 . S
C572 C573 1.392 . S
C573 H550 0.948 . S
C573 C572 1.392 . S
C573 C574 1.419 . S
C574 C573 1.419 . S
C574 C575 1.391 . S
C574 C578 1.397 . S
C575 C570 1.391 . S
C575 C574 1.391 . S
C575 C576 1.399 . S
C576 C575 1.399 . S
C576 C577 1.396 . S
C576 C579 1.453 . S
C576 C580 1.684 . S
C577 C567 1.723 . S
C577 C576 1.396 . S
C577 C578 1.394 . S
C578 C548 1.723 . S
C578 C574 1.397 . S
C578 C577 1.394 . S
C579 H551 0.982 . S
C579 H555 0.979 . S
C579 H556 0.977 . S
C579 C576 1.453 . S
C580 H552 0.979 . S
C580 H553 0.980 . S
C580 H554 0.983 . S
C580 C576 1.684 . S
H581 C599 0.948 . S
H582 C540 0.948 . S
H583 C558 0.979 . S
H584 C558 0.980 . S
H585 C558 0.983 . S
H586 C557 0.982 . S
H587 C557 0.979 . S
H588 C557 0.977 . S
H589 C559 0.948 . S
H590 C561 0.947 . S
H591 C562 0.948 . S
H592 C568 0.982 . S
H593 C568 0.979 . S
H594 C568 0.977 . S
H595 C569 0.979 . S
H596 C569 0.980 . S
H597 C569 0.983 . S
H598 C542 0.947 . S
C599 C542 1.392 . S
C599 C543 1.419 . S
C599 H581 0.948 . S
C600 C601 1.391 . S
C600 C604 1.391 . S
C600 H642 0.948 . S
C601 C600 1.391 . S
C601 C602 1.391 . S
C602 C601 1.391 . S
C602 H658 0.947 . S
C602 C659 1.392 . S
C603 C604 1.391 . S
C603 C607 1.397 . S
C603 C659 1.419 . S
C604 C600 1.391 . S
C604 C603 1.391 . S
C604 C605 1.399 . S
C605 C604 1.399 . S
C605 C608 1.396 . S
C605 C617 1.453 . S
C605 C618 1.684 . S
H606 C630 0.948 . S
C607 C603 1.397 . S
C607 C608 1.394 . S
C607 C626 1.723 . S
C608 C605 1.396 . S
C608 C607 1.394 . S
C608 C638 1.723 . S
H609 C632 0.947 . S
H610 C633 0.948 . S
H611 C639 0.982 . S
H612 C640 0.979 . S
H613 C640 0.980 . S
H614 C640 0.983 . S
H615 C639 0.979 . S
H616 C639 0.977 . S
C617 C605 1.453 . S
C617 H646 0.982 . S
C617 H647 0.979 . S
C617 H648 0.977 . S
C618 C605 1.684 . S
C618 H643 0.979 . S
C618 H644 0.980 . S
C618 H645 0.983 . S
C619 C620 1.391 . S
C619 C624 1.391 . S
C619 H649 0.948 . S
C620 C619 1.391 . S
C620 C621 1.391 . S
C621 C620 1.391 . S
C621 C622 1.392 . S
C621 H650 0.947 . S
C622 C621 1.392 . S
C622 C623 1.419 . S
C622 H651 0.948 . S
C623 C622 1.419 . S
C623 C624 1.391 . S
C623 C627 1.397 . S
C624 C619 1.391 . S
C624 C623 1.391 . S
C624 C625 1.399 . S
C625 C624 1.399 . S
C625 C626 1.396 . S
C625 C628 1.453 . S
C625 C629 1.684 . S
C626 C607 1.723 . S
C626 C625 1.396 . S
C626 C627 1.394 . S
C627 C623 1.397 . S
C627 C626 1.394 . S
C627 C637 1.723 . S
C628 C625 1.453 . S
C628 H652 0.982 . S
C628 H653 0.979 . S
C628 H654 0.977 . S
C629 C625 1.684 . S
C629 H655 0.979 . S
C629 H656 0.980 . S
C629 H657 0.983 . S
C630 H606 0.948 . S
C630 C631 1.391 . S
C630 C635 1.391 . S
C631 C630 1.391 . S
C631 C632 1.391 . S
C632 H609 0.947 . S
C632 C631 1.391 . S
C632 C633 1.392 . S
C633 H610 0.948 . S
C633 C632 1.392 . S
C633 C634 1.419 . S
C634 C633 1.419 . S
C634 C635 1.391 . S
C634 C638 1.397 . S
C635 C630 1.391 . S
C635 C634 1.391 . S
C635 C636 1.399 . S
C636 C635 1.399 . S
C636 C637 1.396 . S
C636 C639 1.453 . S
C636 C640 1.684 . S
C637 C627 1.723 . S
C637 C636 1.396 . S
C637 C638 1.394 . S
C638 C608 1.723 . S
C638 C634 1.397 . S
C638 C637 1.394 . S
C639 H611 0.982 . S
C639 H615 0.979 . S
C639 H616 0.977 . S
C639 C636 1.453 . S
C640 H612 0.979 . S
C640 H613 0.980 . S
C640 H614 0.983 . S
C640 C636 1.684 . S
H641 C659 0.948 . S
H642 C600 0.948 . S
H643 C618 0.979 . S
H644 C618 0.980 . S
H645 C618 0.983 . S
H646 C617 0.982 . S
H647 C617 0.979 . S
H648 C617 0.977 . S
H649 C619 0.948 . S
H650 C621 0.947 . S
H651 C622 0.948 . S
H652 C628 0.982 . S
H653 C628 0.979 . S
H654 C628 0.977 . S
H655 C629 0.979 . S
H656 C629 0.980 . S
H657 C629 0.983 . S
H658 C602 0.947 . S
C659 C602 1.392 . S
C659 C603 1.419 . S
C659 H641 0.948 . S
C660 C661 1.391 . S
C660 C664 1.391 . S
C660 H702 0.948 . S
C661 C660 1.391 . S
C661 C662 1.391 . S
C662 C661 1.391 . S
C662 H718 0.947 . S
C662 C719 1.392 . S
C663 C664 1.391 . S
C663 C667 1.397 . S
C663 C719 1.419 . S
C664 C660 1.391 . S
C664 C663 1.391 . S
C664 C665 1.399 . S
C665 C664 1.399 . S
C665 C668 1.396 . S
C665 C677 1.453 . S
C665 C678 1.684 . S
H666 C690 0.948 . S
C667 C663 1.397 . S
C667 C668 1.394 . S
C667 C686 1.723 . S
C668 C665 1.396 . S
C668 C667 1.394 . S
C668 C698 1.723 . S
H669 C692 0.947 . S
H670 C693 0.948 . S
H671 C699 0.982 . S
H672 C700 0.979 . S
H673 C700 0.980 . S
H674 C700 0.983 . S
H675 C699 0.979 . S
H676 C699 0.977 . S
C677 C665 1.453 . S
C677 H706 0.982 . S
C677 H707 0.979 . S
C677 H708 0.977 . S
C678 C665 1.684 . S
C678 H703 0.979 . S
C678 H704 0.980 . S
C678 H705 0.983 . S
C679 C680 1.391 . S
C679 C684 1.391 . S
C679 H709 0.948 . S
C680 C679 1.391 . S
C680 C681 1.391 . S
C681 C680 1.391 . S
C681 C682 1.392 . S
C681 H710 0.947 . S
C682 C681 1.392 . S
C682 C683 1.419 . S
C682 H711 0.948 . S
C683 C682 1.419 . S
C683 C684 1.391 . S
C683 C687 1.397 . S
C684 C679 1.391 . S
C684 C683 1.391 . S
C684 C685 1.399 . S
C685 C684 1.399 . S
C685 C686 1.396 . S
C685 C688 1.453 . S
C685 C689 1.684 . S
C686 C667 1.723 . S
C686 C685 1.396 . S
C686 C687 1.394 . S
C687 C683 1.397 . S
C687 C686 1.394 . S
C687 C697 1.723 . S
C688 C685 1.453 . S
C688 H712 0.982 . S
C688 H713 0.979 . S
C688 H714 0.977 . S
C689 C685 1.684 . S
C689 H715 0.979 . S
C689 H716 0.980 . S
C689 H717 0.983 . S
C690 H666 0.948 . S
C690 C691 1.391 . S
C690 C695 1.391 . S
C691 C690 1.391 . S
C691 C692 1.391 . S
C692 H669 0.947 . S
C692 C691 1.391 . S
C692 C693 1.392 . S
C693 H670 0.948 . S
C693 C692 1.392 . S
C693 C694 1.419 . S
C694 C693 1.419 . S
C694 C695 1.391 . S
C694 C698 1.397 . S
C695 C690 1.391 . S
C695 C694 1.391 . S
C695 C696 1.399 . S
C696 C695 1.399 . S
C696 C697 1.396 . S
C696 C699 1.453 . S
C696 C700 1.684 . S
C697 C687 1.723 . S
C697 C696 1.396 . S
C697 C698 1.394 . S
C698 C668 1.723 . S
C698 C694 1.397 . S
C698 C697 1.394 . S
C699 H671 0.982 . S
C699 H675 0.979 . S
C699 H676 0.977 . S
C699 C696 1.453 . S
C700 H672 0.979 . S
C700 H673 0.980 . S
C700 H674 0.983 . S
C700 C696 1.684 . S
H701 C719 0.948 . S
H702 C660 0.948 . S
H703 C678 0.979 . S
H704 C678 0.980 . S
H705 C678 0.983 . S
H706 C677 0.982 . S
H707 C677 0.979 . S
H708 C677 0.977 . S
H709 C679 0.948 . S
H710 C681 0.947 . S
H711 C682 0.948 . S
H712 C688 0.982 . S
H713 C688 0.979 . S
H714 C688 0.977 . S
H715 C689 0.979 . S
H716 C689 0.980 . S
H717 C689 0.983 . S
H718 C662 0.947 . S
C719 C662 1.392 . S
C719 C663 1.419 . S
C719 H701 0.948 . S
C720 C721 1.391 . S
C720 C724 1.391 . S
C720 H762 0.948 . S
C721 C720 1.391 . S
C721 C722 1.391 . S
C722 C721 1.391 . S
C722 H778 0.947 . S
C722 C779 1.392 . S
C723 C724 1.391 . S
C723 C727 1.397 . S
C723 C779 1.419 . S
C724 C720 1.391 . S
C724 C723 1.391 . S
C724 C725 1.399 . S
C725 C724 1.399 . S
C725 C728 1.396 . S
C725 C737 1.453 . S
C725 C738 1.684 . S
H726 C750 0.948 . S
C727 C723 1.397 . S
C727 C728 1.394 . S
C727 C746 1.723 . S
C728 C725 1.396 . S
C728 C727 1.394 . S
C728 C758 1.723 . S
H729 C752 0.947 . S
H730 C753 0.948 . S
H731 C759 0.982 . S
H732 C760 0.979 . S
H733 C760 0.980 . S
H734 C760 0.983 . S
H735 C759 0.979 . S
H736 C759 0.977 . S
C737 C725 1.453 . S
C737 H766 0.982 . S
C737 H767 0.979 . S
C737 H768 0.977 . S
C738 C725 1.684 . S
C738 H763 0.979 . S
C738 H764 0.980 . S
C738 H765 0.983 . S
C739 C740 1.391 . S
C739 C744 1.391 . S
C739 H769 0.948 . S
C740 C739 1.391 . S
C740 C741 1.391 . S
C741 C740 1.391 . S
C741 C742 1.392 . S
C741 H770 0.947 . S
C742 C741 1.392 . S
C742 C743 1.419 . S
C742 H771 0.948 . S
C743 C742 1.419 . S
C743 C744 1.391 . S
C743 C747 1.397 . S
C744 C739 1.391 . S
C744 C743 1.391 . S
C744 C745 1.399 . S
C745 C744 1.399 . S
C745 C746 1.396 . S
C745 C748 1.453 . S
C745 C749 1.684 . S
C746 C727 1.723 . S
C746 C745 1.396 . S
C746 C747 1.394 . S
C747 C743 1.397 . S
C747 C746 1.394 . S
C747 C757 1.723 . S
C748 C745 1.453 . S
C748 H772 0.982 . S
C748 H773 0.979 . S
C748 H774 0.977 . S
C749 C745 1.684 . S
C749 H775 0.979 . S
C749 H776 0.980 . S
C749 H777 0.983 . S
C750 H726 0.948 . S
C750 C751 1.391 . S
C750 C755 1.391 . S
C751 C750 1.391 . S
C751 C752 1.391 . S
C752 H729 0.947 . S
C752 C751 1.391 . S
C752 C753 1.392 . S
C753 H730 0.948 . S
C753 C752 1.392 . S
C753 C754 1.419 . S
C754 C753 1.419 . S
C754 C755 1.391 . S
C754 C758 1.397 . S
C755 C750 1.391 . S
C755 C754 1.391 . S
C755 C756 1.399 . S
C756 C755 1.399 . S
C756 C757 1.396 . S
C756 C759 1.453 . S
C756 C760 1.684 . S
C757 C747 1.723 . S
C757 C756 1.396 . S
C757 C758 1.394 . S
C758 C728 1.723 . S
C758 C754 1.397 . S
C758 C757 1.394 . S
C759 H731 0.982 . S
C759 H735 0.979 . S
C759 H736 0.977 . S
C759 C756 1.453 . S
C760 H732 0.979 . S
C760 H733 0.980 . S
C760 H734 0.983 . S
C760 C756 1.684 . S
H761 C779 0.948 . S
H762 C720 0.948 . S
H763 C738 0.979 . S
H764 C738 0.980 . S
H765 C738 0.983 . S
H766 C737 0.982 . S
H767 C737 0.979 . S
H768 C737 0.977 . S
H769 C739 0.948 . S
H770 C741 0.947 . S
H771 C742 0.948 . S
H772 C748 0.982 . S
H773 C748 0.979 . S
H774 C748 0.977 . S
H775 C749 0.979 . S
H776 C749 0.980 . S
H777 C749 0.983 . S
H778 C722 0.947 . S
C779 C722 1.392 . S
C779 C723 1.419 . S
C779 H761 0.948 . S
C780 C781 1.391 . S
C780 C784 1.391 . S
C780 H822 0.948 . S
C781 C780 1.391 . S
C781 C782 1.391 . S
C782 C781 1.391 . S
C782 H838 0.947 . S
C782 C839 1.392 . S
C783 C784 1.391 . S
C783 C787 1.397 . S
C783 C839 1.419 . S
C784 C780 1.391 . S
C784 C783 1.391 . S
C784 C785 1.399 . S
C785 C784 1.399 . S
C785 C788 1.396 . S
C785 C797 1.453 . S
C785 C798 1.684 . S
H786 C810 0.948 . S
C787 C783 1.397 . S
C787 C788 1.394 . S
C787 C806 1.723 . S
C788 C785 1.396 . S
C788 C787 1.394 . S
C788 C818 1.723 . S
H789 C812 0.947 . S
H790 C813 0.948 . S
H791 C819 0.982 . S
H792 C820 0.979 . S
H793 C820 0.980 . S
H794 C820 0.983 . S
H795 C819 0.979 . S
H796 C819 0.977 . S
C797 C785 1.453 . S
C797 H826 0.982 . S
C797 H827 0.979 . S
C797 H828 0.977 . S
C798 C785 1.684 . S
C798 H823 0.979 . S
C798 H824 0.980 . S
C798 H825 0.983 . S
C799 C800 1.391 . S
C799 C804 1.391 . S
C799 H829 0.948 . S
C800 C799 1.391 . S
C800 C801 1.391 . S
C801 C800 1.391 . S
C801 C802 1.392 . S
C801 H830 0.947 . S
C802 C801 1.392 . S
C802 C803 1.419 . S
C802 H831 0.948 . S
C803 C802 1.419 . S
C803 C804 1.391 . S
C803 C807 1.397 . S
C804 C799 1.391 . S
C804 C803 1.391 . S
C804 C805 1.399 . S
C805 C804 1.399 . S
C805 C806 1.396 . S
C805 C808 1.453 . S
C805 C809 1.684 . S
C806 C787 1.723 . S
C806 C805 1.396 . S
C806 C807 1.394 . S
C807 C803 1.397 . S
C807 C806 1.394 . S
C807 C817 1.723 . S
C808 C805 1.453 . S
C808 H832 0.982 . S
C808 H833 0.979 . S
C808 H834 0.977 . S
C809 C805 1.684 . S
C809 H835 0.979 . S
C809 H836 0.980 . S
C809 H837 0.983 . S
C810 H786 0.948 . S
C810 C811 1.391 . S
C810 C815 1.391 . S
C811 C810 1.391 . S
C811 C812 1.391 . S
C812 H789 0.947 . S
C812 C811 1.391 . S
C812 C813 1.392 . S
C813 H790 0.948 . S
C813 C812 1.392 . S
C813 C814 1.419 . S
C814 C813 1.419 . S
C814 C815 1.391 . S
C814 C818 1.397 . S
C815 C810 1.391 . S
C815 C814 1.391 . S
C815 C816 1.399 . S
C816 C815 1.399 . S
C816 C817 1.396 . S
C816 C819 1.453 . S
C816 C820 1.684 . S
C817 C807 1.723 . S
C817 C816 1.396 . S
C817 C818 1.394 . S
C818 C788 1.723 . S
C818 C814 1.397 . S
C818 C817 1.394 . S
C819 H791 0.982 . S
C819 H795 0.979 . S
C819 H796 0.977 . S
C819 C816 1.453 . S
C820 H792 0.979 . S
C820 H793 0.980 . S
C820 H794 0.983 . S
C820 C816 1.684 . S
H821 C839 0.948 . S
H822 C780 0.948 . S
H823 C798 0.979 . S
H824 C798 0.980 . S
H825 C798 0.983 . S
H826 C797 0.982 . S
H827 C797 0.979 . S
H828 C797 0.977 . S
H829 C799 0.948 . S
H830 C801 0.947 . S
H831 C802 0.948 . S
H832 C808 0.982 . S
H833 C808 0.979 . S
H834 C808 0.977 . S
H835 C809 0.979 . S
H836 C809 0.980 . S
H837 C809 0.983 . S
H838 C782 0.947 . S
C839 C782 1.392 . S
C839 C783 1.419 . S
C839 H821 0.948 . S
C840 C841 1.391 . S
C840 C844 1.391 . S
C840 H882 0.948 . S
C841 C840 1.391 . S
C841 C842 1.391 . S
C842 C841 1.391 . S
C842 H898 0.947 . S
C842 C899 1.392 . S
C843 C844 1.391 . S
C843 C847 1.397 . S
C843 C899 1.419 . S
C844 C840 1.391 . S
C844 C843 1.391 . S
C844 C845 1.399 . S
C845 C844 1.399 . S
C845 C848 1.396 . S
C845 C857 1.453 . S
C845 C858 1.684 . S
H846 C870 0.948 . S
C847 C843 1.397 . S
C847 C848 1.394 . S
C847 C866 1.723 . S
C848 C845 1.396 . S
C848 C847 1.394 . S
C848 C878 1.723 . S
H849 C872 0.947 . S
H850 C873 0.948 . S
H851 C879 0.982 . S
H852 C880 0.979 . S
H853 C880 0.980 . S
H854 C880 0.983 . S
H855 C879 0.979 . S
H856 C879 0.977 . S
C857 C845 1.453 . S
C857 H886 0.982 . S
C857 H887 0.979 . S
C857 H888 0.977 . S
C858 C845 1.684 . S
C858 H883 0.979 . S
C858 H884 0.980 . S
C858 H885 0.983 . S
C859 C860 1.391 . S
C859 C864 1.391 . S
C859 H889 0.948 . S
C860 C859 1.391 . S
C860 C861 1.391 . S
C861 C860 1.391 . S
C861 C862 1.392 . S
C861 H890 0.947 . S
C862 C861 1.392 . S
C862 C863 1.419 . S
C862 H891 0.948 . S
C863 C862 1.419 . S
C863 C864 1.391 . S
C863 C867 1.397 . S
C864 C859 1.391 . S
C864 C863 1.391 . S
C864 C865 1.399 . S
C865 C864 1.399 . S
C865 C866 1.396 . S
C865 C868 1.453 . S
C865 C869 1.684 . S
C866 C847 1.723 . S
C866 C865 1.396 . S
C866 C867 1.394 . S
C867 C863 1.397 . S
C867 C866 1.394 . S
C867 C877 1.723 . S
C868 C865 1.453 . S
C868 H892 0.982 . S
C868 H893 0.979 . S
C868 H894 0.977 . S
C869 C865 1.684 . S
C869 H895 0.979 . S
C869 H896 0.980 . S
C869 H897 0.983 . S
C870 H846 0.948 . S
C870 C871 1.391 . S
C870 C875 1.391 . S
C871 C870 1.391 . S
C871 C872 1.391 . S
C872 H849 0.947 . S
C872 C871 1.391 . S
C872 C873 1.392 . S
C873 H850 0.948 . S
C873 C872 1.392 . S
C873 C874 1.419 . S
C874 C873 1.419 . S
C874 C875 1.391 . S
C874 C878 1.397 . S
C875 C870 1.391 . S
C875 C874 1.391 . S
C875 C876 1.399 . S
C876 C875 1.399 . S
C876 C877 1.396 . S
C876 C879 1.453 . S
C876 C880 1.684 . S
C877 C867 1.723 . S
C877 C876 1.396 . S
C877 C878 1.394 . S
C878 C848 1.723 . S
C878 C874 1.397 . S
C878 C877 1.394 . S
C879 H851 0.982 . S
C879 H855 0.979 . S
C879 H856 0.977 . S
C879 C876 1.453 . S
C880 H852 0.979 . S
C880 H853 0.980 . S
C880 H854 0.983 . S
C880 C876 1.684 . S
H881 C899 0.948 . S
H882 C840 0.948 . S
H883 C858 0.979 . S
H884 C858 0.980 . S
H885 C858 0.983 . S
H886 C857 0.982 . S
H887 C857 0.979 . S
H888 C857 0.977 . S
H889 C859 0.948 . S
H890 C861 0.947 . S
H891 C862 0.948 . S
H892 C868 0.982 . S
H893 C868 0.979 . S
H894 C868 0.977 . S
H895 C869 0.979 . S
H896 C869 0.980 . S
H897 C869 0.983 . S
H898 C842 0.947 . S
C899 C842 1.392 . S
C899 C843 1.419 . S
C899 H881 0.948 . S
C900 C901 1.391 . S
C900 C904 1.391 . S
C900 H942 0.948 . S
C901 C900 1.391 . S
C901 C902 1.391 . S
C902 C901 1.391 . S
C902 H958 0.947 . S
C902 C959 1.392 . S
C903 C904 1.391 . S
C903 C907 1.397 . S
C903 C959 1.419 . S
C904 C900 1.391 . S
C904 C903 1.391 . S
C904 C905 1.399 . S
C905 C904 1.399 . S
C905 C908 1.396 . S
C905 C917 1.453 . S
C905 C918 1.684 . S
H906 C930 0.948 . S
C907 C903 1.397 . S
C907 C908 1.394 . S
C907 C926 1.723 . S
C908 C905 1.396 . S
C908 C907 1.394 . S
C908 C938 1.723 . S
H909 C932 0.947 . S
H910 C933 0.948 . S
H911 C939 0.982 . S
H912 C940 0.979 . S
H913 C940 0.980 . S
H914 C940 0.983 . S
H915 C939 0.979 . S
H916 C939 0.977 . S
C917 C905 1.453 . S
C917 H946 0.982 . S
C917 H947 0.979 . S
C917 H948 0.977 . S
C918 C905 1.684 . S
C918 H943 0.979 . S
C918 H944 0.980 . S
C918 H945 0.983 . S
C919 C920 1.391 . S
C919 C924 1.391 . S
C919 H949 0.948 . S
C920 C919 1.391 . S
C920 C921 1.391 . S
C921 C920 1.391 . S
C921 C922 1.392 . S
C921 H950 0.947 . S
C922 C921 1.392 . S
C922 C923 1.419 . S
C922 H951 0.948 . S
C923 C922 1.419 . S
C923 C924 1.391 . S
C923 C927 1.397 . S
C924 C919 1.391 . S
C924 C923 1.391 . S
C924 C925 1.399 . S
C925 C924 1.399 . S
C925 C926 1.396 . S
C925 C928 1.453 . S
C925 C929 1.684 . S
C926 C907 1.723 . S
C926 C925 1.396 . S
C926 C927 1.394 . S
C927 C923 1.397 . S
C927 C926 1.394 . S
C927 C937 1.723 . S
C928 C925 1.453 . S
C928 H952 0.982 . S
C928 H953 0.979 . S
C928 H954 0.977 . S
C929 C925 1.684 . S
C929 H955 0.979 . S
C929 H956 0.980 . S
C929 H957 0.983 . S
C930 H906 0.948 . S
C930 C931 1.391 . S
C930 C935 1.391 . S
C931 C930 1.391 . S
C931 C932 1.391 . S
C932 H909 0.947 . S
C932 C931 1.391 . S
C932 C933 1.392 . S
C933 H910 0.948 . S
C933 C932 1.392 . S
C933 C934 1.419 . S
C934 C933 1.419 . S
C934 C935 1.391 . S
C934 C938 1.397 . S
C935 C930 1.391 . S
C935 C934 1.391 . S
C935 C936 1.399 . S
C936 C935 1.399 . S
C936 C937 1.396 . S
C936 C939 1.453 . S
C936 C940 1.684 . S
C937 C927 1.723 . S
C937 C936 1.396 . S
C937 C938 1.394 . S
C938 C908 1.723 . S
C938 C934 1.397 . S
C938 C937 1.394 . S
C939 H911 0.982 . S
C939 H915 0.979 . S
C939 H916 0.977 . S
C939 C936 1.453 . S
C940 H912 0.979 . S
C940 H913 0.980 . S
C940 H914 0.983 . S
C940 C936 1.684 . S
H941 C959 0.948 . S
H942 C900 0.948 . S
H943 C918 0.979 . S
H944 C918 0.980 . S
H945 C918 0.983 . S
H946 C917 0.982 . S
H947 C917 0.979 . S
H948 C917 0.977 . S
H949 C919 0.948 . S
H950 C921 0.947 . S
H951 C922 0.948 . S
H952 C928 0.982 . S
H953 C928 0.979 . S
H954 C928 0.977 . S
H955 C929 0.979 . S
H956 C929 0.980 . S
H957 C929 0.983 . S
H958 C902 0.947 . S
C959 C902 1.392 . S
C959 C903 1.419 . S
C959 H941 0.948 . S
C960 C961 1.391 . S
C960 C964 1.391 . S
C960 H1002 0.948 . S
C961 C960 1.391 . S
C961 C962 1.391 . S
C962 C961 1.391 . S
C962 H1018 0.947 . S
C962 C1019 1.392 . S
C963 C964 1.391 . S
C963 C967 1.397 . S
C963 C1019 1.419 . S
C964 C960 1.391 . S
C964 C963 1.391 . S
C964 C965 1.399 . S
C965 C964 1.399 . S
C965 C968 1.396 . S
C965 C977 1.453 . S
C965 C978 1.684 . S
H966 C990 0.948 . S
C967 C963 1.397 . S
C967 C968 1.394 . S
C967 C986 1.723 . S
C968 C965 1.396 . S
C968 C967 1.394 . S
C968 C998 1.723 . S
H969 C992 0.947 . S
H970 C993 0.948 . S
H971 C999 0.982 . S
H972 C1000 0.979 . S
H973 C1000 0.980 . S
H974 C1000 0.983 . S
H975 C999 0.979 . S
H976 C999 0.977 . S
C977 C965 1.453 . S
C977 H1006 0.982 . S
C977 H1007 0.979 . S
C977 H1008 0.977 . S
C978 C965 1.684 . S
C978 H1003 0.979 . S
C978 H1004 0.980 . S
C978 H1005 0.983 . S
C979 C980 1.391 . S
C979 C984 1.391 . S
C979 H1009 0.948 . S
C980 C979 1.391 . S
C980 C981 1.391 . S
C981 C980 1.391 . S
C981 C982 1.392 . S
C981 H1010 0.947 . S
C982 C981 1.392 . S
C982 C983 1.419 . S
C982 H1011 0.948 . S
C983 C982 1.419 . S
C983 C984 1.391 . S
C983 C987 1.397 . S
C984 C979 1.391 . S
C984 C983 1.391 . S
C984 C985 1.399 . S
C985 C984 1.399 . S
C985 C986 1.396 . S
C985 C988 1.453 . S
C985 C989 1.684 . S
C986 C967 1.723 . S
C986 C985 1.396 . S
C986 C987 1.394 . S
C987 C983 1.397 . S
C987 C986 1.394 . S
C987 C997 1.723 . S
C988 C985 1.453 . S
C988 H1012 0.982 . S
C988 H1013 0.979 . S
C988 H1014 0.977 . S
C989 C985 1.684 . S
C989 H1015 0.979 . S
C989 H1016 0.980 . S
C989 H1017 0.983 . S
C990 H966 0.948 . S
C990 C991 1.391 . S
C990 C995 1.391 . S
C991 C990 1.391 . S
C991 C992 1.391 . S
C992 H969 0.947 . S
C992 C991 1.391 . S
C992 C993 1.392 . S
C993 H970 0.948 . S
C993 C992 1.392 . S
C993 C994 1.419 . S
C994 C993 1.419 . S
C994 C995 1.391 . S
C994 C998 1.397 . S
C995 C990 1.391 . S
C995 C994 1.391 . S
C995 C996 1.399 . S
C996 C995 1.399 . S
C996 C997 1.396 . S
C996 C999 1.453 . S
C996 C1000 1.684 . S
C997 C987 1.723 . S
C997 C996 1.396 . S
C997 C998 1.394 . S
C998 C968 1.723 . S
C998 C994 1.397 . S
C998 C997 1.394 . S
C999 H971 0.982 . S
C999 H975 0.979 . S
C999 H976 0.977 . S
C999 C996 1.453 . S
C1000 H972 0.979 . S
C1000 H973 0.980 . S
C1000 H974 0.983 . S
C1000 C996 1.684 . S
H1001 C1019 0.948 . S
H1002 C960 0.948 . S
H1003 C978 0.979 . S
H1004 C978 0.980 . S
H1005 C978 0.983 . S
H1006 C977 0.982 . S
H1007 C977 0.979 . S
H1008 C977 0.977 . S
H1009 C979 0.948 . S
H1010 C981 0.947 . S
H1011 C982 0.948 . S
H1012 C988 0.982 . S
H1013 C988 0.979 . S
H1014 C988 0.977 . S
H1015 C989 0.979 . S
H1016 C989 0.980 . S
H1017 C989 0.983 . S
H1018 C962 0.947 . S
C1019 C962 1.392 . S
C1019 C963 1.419 . S
C1019 H1001 0.948 . S
C1020 C1021 1.391 . S
C1020 C1024 1.391 . S
C1020 H1062 0.948 . S
C1021 C1020 1.391 . S
C1021 C1022 1.391 . S
C1022 C1021 1.391 . S
C1022 H1078 0.947 . S
C1022 C1079 1.392 . S
C1023 C1024 1.391 . S
C1023 C1027 1.397 . S
C1023 C1079 1.419 . S
C1024 C1020 1.391 . S
C1024 C1023 1.391 . S
C1024 C1025 1.399 . S
C1025 C1024 1.399 . S
C1025 C1028 1.396 . S
C1025 C1037 1.453 . S
C1025 C1038 1.684 . S
H1026 C1050 0.948 . S
C1027 C1023 1.397 . S
C1027 C1028 1.394 . S
C1027 C1046 1.723 . S
C1028 C1025 1.396 . S
C1028 C1027 1.394 . S
C1028 C1058 1.723 . S
H1029 C1052 0.947 . S
H1030 C1053 0.948 . S
H1031 C1059 0.982 . S
H1032 C1060 0.979 . S
H1033 C1060 0.980 . S
H1034 C1060 0.983 . S
H1035 C1059 0.979 . S
H1036 C1059 0.977 . S
C1037 C1025 1.453 . S
C1037 H1066 0.982 . S
C1037 H1067 0.979 . S
C1037 H1068 0.977 . S
C1038 C1025 1.684 . S
C1038 H1063 0.979 . S
C1038 H1064 0.980 . S
C1038 H1065 0.983 . S
C1039 C1040 1.391 . S
C1039 C1044 1.391 . S
C1039 H1069 0.948 . S
C1040 C1039 1.391 . S
C1040 C1041 1.391 . S
C1041 C1040 1.391 . S
C1041 C1042 1.392 . S
C1041 H1070 0.947 . S
C1042 C1041 1.392 . S
C1042 C1043 1.419 . S
C1042 H1071 0.948 . S
C1043 C1042 1.419 . S
C1043 C1044 1.391 . S
C1043 C1047 1.397 . S
C1044 C1039 1.391 . S
C1044 C1043 1.391 . S
C1044 C1045 1.399 . S
C1045 C1044 1.399 . S
C1045 C1046 1.396 . S
C1045 C1048 1.453 . S
C1045 C1049 1.684 . S
C1046 C1027 1.723 . S
C1046 C1045 1.396 . S
C1046 C1047 1.394 . S
C1047 C1043 1.397 . S
C1047 C1046 1.394 . S
C1047 C1057 1.723 . S
C1048 C1045 1.453 . S
C1048 H1072 0.982 . S
C1048 H1073 0.979 . S
C1048 H1074 0.977 . S
C1049 C1045 1.684 . S
C1049 H1075 0.979 . S
C1049 H1076 0.980 . S
C1049 H1077 0.983 . S
C1050 H1026 0.948 . S
C1050 C1051 1.391 . S
C1050 C1055 1.391 . S
C1051 C1050 1.391 . S
C1051 C1052 1.391 . S
C1052 H1029 0.947 . S
C1052 C1051 1.391 . S
C1052 C1053 1.392 . S
C1053 H1030 0.948 . S
C1053 C1052 1.392 . S
C1053 C1054 1.419 . S
C1054 C1053 1.419 . S
C1054 C1055 1.391 . S
C1054 C1058 1.397 . S
C1055 C1050 1.391 . S
C1055 C1054 1.391 . S
C1055 C1056 1.399 . S
C1056 C1055 1.399 . S
C1056 C1057 1.396 . S
C1056 C1059 1.453 . S
C1056 C1060 1.684 . S
C1057 C1047 1.723 . S
C1057 C1056 1.396 . S
C1057 C1058 1.394 . S
C1058 C1028 1.723 . S
C1058 C1054 1.397 . S
C1058 C1057 1.394 . S
C1059 H1031 0.982 . S
C1059 H1035 0.979 . S
C1059 H1036 0.977 . S
C1059 C1056 1.453 . S
C1060 H1032 0.979 . S
C1060 H1033 0.980 . S
C1060 H1034 0.983 . S
C1060 C1056 1.684 . S
H1061 C1079 0.948 . S
H1062 C1020 0.948 . S
H1063 C1038 0.979 . S
H1064 C1038 0.980 . S
H1065 C1038 0.983 . S
H1066 C1037 0.982 . S
H1067 C1037 0.979 . S
H1068 C1037 0.977 . S
H1069 C1039 0.948 . S
H1070 C1041 0.947 . S
H1071 C1042 0.948 . S
H1072 C1048 0.982 . S
H1073 C1048 0.979 . S
H1074 C1048 0.977 . S
H1075 C1049 0.979 . S
H1076 C1049 0.980 . S
H1077 C1049 0.983 . S
H1078 C1022 0.947 . S
C1079 C1022 1.392 . S
C1079 C1023 1.419 . S
C1079 H1061 0.948 . S
Tb1080 N1111 2.660 . S
Tb1080 N1118 2.600 . S
Tb1080 O1124 2.546 . S
Tb1080 O1125 2.610 1_565 S
Tb1080 O1127 2.320 1_565 S
Tb1080 O1128 2.552 1_565 S
Tb1080 O1129 2.413 . S
Tb1080 O1131 2.362 1_556 S
Tb1080 O1132 2.421 . S
Tb1080 C1144 2.833 . S
C1081 C1084 1.432 . S
C1081 C1085 1.414 . S
C1081 N1088 1.359 . S
C1082 C1084 1.417 . S
C1082 C1086 1.432 . S
C1082 C1094 1.410 . S
C1083 C1085 1.444 . S
C1083 C1086 1.317 . S
C1083 H1106 0.929 . S
C1084 C1081 1.432 . S
C1084 C1082 1.417 . S
C1084 N1092 1.360 . S
C1085 C1081 1.414 . S
C1085 C1083 1.444 . S
C1085 C1090 1.385 . S
C1086 C1082 1.432 . S
C1086 C1083 1.317 . S
C1086 H1098 0.930 . S
C1087 C1089 1.392 . S
C1087 C1090 1.370 . S
C1087 H1099 0.931 . S
N1088 C1081 1.359 . S
N1088 C1089 1.327 . S
N1088 Tb1091 2.600 . S
C1089 C1087 1.392 . S
C1089 N1088 1.327 . S
C1089 H1096 0.930 . S
C1090 C1085 1.385 . S
C1090 C1087 1.370 . S
C1090 H1109 0.930 . S
Tb1091 N1088 2.600 . S
Tb1091 N1092 2.660 . S
Tb1091 O1125 2.362 1_554 S
Tb1091 O1126 2.421 . S
Tb1091 O1130 2.546 . S
Tb1091 O1131 2.610 1_545 S
Tb1091 O1133 2.320 1_545 S
Tb1091 O1134 2.552 1_545 S
Tb1091 O1135 2.413 . S
Tb1091 C1155 2.833 . S
N1092 C1084 1.360 . S
N1092 Tb1091 2.660 . S
N1092 C1093 1.305 . S
C1093 N1092 1.305 . S
C1093 C1095 1.407 . S
C1093 H1100 0.930 . S
C1094 C1082 1.410 . S
C1094 C1095 1.345 . S
C1094 H1102 0.930 . S
C1095 C1093 1.407 . S
C1095 C1094 1.345 . S
C1095 H1097 0.930 . S
H1096 C1089 0.930 . S
H1097 C1095 0.930 . S
H1098 C1086 0.930 . S
H1099 C1087 0.931 . S
H1100 C1093 0.930 . S
H1101 C1115 0.930 . S
H1102 C1094 0.930 . S
H1103 C1121 0.930 . S
H1104 C1112 0.930 . S
H1105 C1119 0.931 . S
H1106 C1083 0.929 . S
H1107 C1113 0.930 . S
H1108 C1146 0.930 . S
H1109 C1090 0.930 . S
H1110 C1145 0.929 . S
N1111 Tb1080 2.660 . S
N1111 C1112 1.305 . S
N1111 C1116 1.360 . S
C1112 H1104 0.930 . S
C1112 N1111 1.305 . S
C1112 C1115 1.407 . S
C1113 H1107 0.930 . S
C1113 C1114 1.410 . S
C1113 C1115 1.345 . S
C1114 C1113 1.410 . S
C1114 C1116 1.417 . S
C1114 C1146 1.432 . S
C1115 H1101 0.930 . S
C1115 C1112 1.407 . S
C1115 C1113 1.345 . S
C1116 N1111 1.360 . S
C1116 C1114 1.417 . S
C1116 C1120 1.432 . S
H1117 C1122 0.930 . S
N1118 Tb1080 2.600 . S
N1118 C1120 1.359 . S
N1118 C1121 1.327 . S
C1119 H1105 0.931 . S
C1119 C1121 1.392 . S
C1119 C1122 1.370 . S
C1120 C1116 1.432 . S
C1120 N1118 1.359 . S
C1120 C1123 1.414 . S
C1121 H1103 0.930 . S
C1121 N1118 1.327 . S
C1121 C1119 1.392 . S
C1122 H1117 0.930 . S
C1122 C1119 1.370 . S
C1122 C1123 1.385 . S
C1123 C1120 1.414 . S
C1123 C1122 1.385 . S
C1123 C1145 1.444 . S
O1124 Tb1080 2.546 . S
O1124 C1144 1.251 . S
O1125 Tb1080 2.610 1_545 S
O1125 Tb1091 2.362 1_556 S
O1125 C1136 1.283 . S
O1126 Tb1091 2.421 . S
O1126 C1143 1.262 1_554 S
O1127 Tb1080 2.320 1_545 S
O1127 C1143 1.260 . S
O1128 Tb1080 2.552 1_545 S
O1128 C1136 1.243 . S
O1129 Tb1080 2.413 . S
O1129 C1144 1.256 . S
O1130 Tb1091 2.546 . S
O1130 C1155 1.251 . S
O1131 Tb1080 2.362 1_554 S
O1131 Tb1091 2.610 1_565 S
O1131 C1147 1.283 . S
O1132 Tb1080 2.421 . S
O1132 C1154 1.262 1_556 S
O1133 Tb1091 2.320 1_565 S
O1133 C1154 1.260 . S
O1134 Tb1091 2.552 1_565 S
O1134 C1147 1.243 . S
O1135 Tb1091 2.413 . S
O1135 C1155 1.256 . S
C1136 O1125 1.283 . S
C1136 O1128 1.243 . S
C1137 C1139 1.382 1_565 S
C1137 C1141 1.393 . S
C1137 C1144 1.500 . S
C1138 C1139 1.400 . S
C1138 C1140 1.384 1_545 S
C1139 C1137 1.382 1_545 S
C1139 C1138 1.400 . S
C1139 H1156 0.930 . S
C1140 C1138 1.384 1_565 S
C1140 C1142 1.392 . S
C1140 H1157 0.931 . S
C1141 C1137 1.393 . S
C1141 C1142 1.401 . S
C1141 H1158 0.930 . S
C1142 C1140 1.392 . S
C1142 C1141 1.401 . S
C1142 H1159 0.930 . S
C1143 O1126 1.262 1_556 S
C1143 O1127 1.260 . S
C1144 Tb1080 2.833 . S
C1144 O1124 1.251 . S
C1144 O1129 1.256 . S
C1144 C1137 1.500 . S
C1145 H1110 0.929 . S
C1145 C1123 1.444 . S
C1145 C1146 1.317 . S
C1146 H1108 0.930 . S
C1146 C1114 1.432 . S
C1146 C1145 1.317 . S
C1147 O1131 1.283 . S
C1147 O1134 1.243 . S
C1148 C1149 1.382 1_545 S
C1148 C1152 1.393 . S
C1148 C1155 1.500 . S
C1149 C1148 1.382 1_565 S
C1149 C1150 1.400 . S
C1149 H1160 0.930 . S
C1150 C1149 1.400 . S
C1150 C1151 1.384 1_565 S
C1151 C1150 1.384 1_545 S
C1151 C1153 1.392 . S
C1151 H1161 0.931 . S
C1152 C1148 1.393 . S
C1152 C1153 1.401 . S
C1152 H1162 0.930 . S
C1153 C1151 1.392 . S
C1153 C1152 1.401 . S
C1153 H1163 0.930 . S
C1154 O1132 1.262 1_554 S
C1154 O1133 1.260 . S
C1155 Tb1091 2.833 . S
C1155 O1130 1.251 . S
C1155 O1135 1.256 . S
C1155 C1148 1.500 . S
H1156 C1139 0.930 . S
H1157 C1140 0.931 . S
H1158 C1141 0.930 . S
H1159 C1142 0.930 . S
H1160 C1149 0.930 . S
H1161 C1151 0.931 . S
H1162 C1152 0.930 . S
H1163 C1153 0.930 . S
Tb1164 N1195 2.660 . S
Tb1164 N1202 2.600 . S
Tb1164 O1208 2.546 . S
Tb1164 O1209 2.610 1_455 S
Tb1164 O1211 2.320 1_455 S
Tb1164 O1212 2.552 1_455 S
Tb1164 O1213 2.413 . S
Tb1164 O1215 2.362 1_556 S
Tb1164 O1216 2.421 . S
Tb1164 C1228 2.833 . S
C1165 C1168 1.432 . S
C1165 C1169 1.414 . S
C1165 N1172 1.359 . S
C1166 C1168 1.417 . S
C1166 C1170 1.432 . S
C1166 C1178 1.410 . S
C1167 C1169 1.444 . S
C1167 C1170 1.317 . S
C1167 H1190 0.929 . S
C1168 C1165 1.432 . S
C1168 C1166 1.417 . S
C1168 N1176 1.360 . S
C1169 C1165 1.414 . S
C1169 C1167 1.444 . S
C1169 C1174 1.385 . S
C1170 C1166 1.432 . S
C1170 C1167 1.317 . S
C1170 H1182 0.930 . S
C1171 C1173 1.392 . S
C1171 C1174 1.370 . S
C1171 H1183 0.931 . S
N1172 C1165 1.359 . S
N1172 C1173 1.327 . S
N1172 Tb1175 2.600 . S
C1173 C1171 1.392 . S
C1173 N1172 1.327 . S
C1173 H1180 0.930 . S
C1174 C1169 1.385 . S
C1174 C1171 1.370 . S
C1174 H1193 0.930 . S
Tb1175 N1172 2.600 . S
Tb1175 N1176 2.660 . S
Tb1175 O1209 2.362 1_554 S
Tb1175 O1210 2.421 . S
Tb1175 O1214 2.546 . S
Tb1175 O1215 2.610 1_655 S
Tb1175 O1217 2.320 1_655 S
Tb1175 O1218 2.552 1_655 S
Tb1175 O1219 2.413 . S
Tb1175 C1239 2.833 . S
N1176 C1168 1.360 . S
N1176 Tb1175 2.660 . S
N1176 C1177 1.305 . S
C1177 N1176 1.305 . S
C1177 C1179 1.407 . S
C1177 H1184 0.930 . S
C1178 C1166 1.410 . S
C1178 C1179 1.345 . S
C1178 H1186 0.930 . S
C1179 C1177 1.407 . S
C1179 C1178 1.345 . S
C1179 H1181 0.930 . S
H1180 C1173 0.930 . S
H1181 C1179 0.930 . S
H1182 C1170 0.930 . S
H1183 C1171 0.931 . S
H1184 C1177 0.930 . S
H1185 C1199 0.930 . S
H1186 C1178 0.930 . S
H1187 C1205 0.930 . S
H1188 C1196 0.930 . S
H1189 C1203 0.931 . S
H1190 C1167 0.929 . S
H1191 C1197 0.930 . S
H1192 C1230 0.930 . S
H1193 C1174 0.930 . S
H1194 C1229 0.929 . S
N1195 Tb1164 2.660 . S
N1195 C1196 1.305 . S
N1195 C1200 1.360 . S
C1196 H1188 0.930 . S
C1196 N1195 1.305 . S
C1196 C1199 1.407 . S
C1197 H1191 0.930 . S
C1197 C1198 1.410 . S
C1197 C1199 1.345 . S
C1198 C1197 1.410 . S
C1198 C1200 1.417 . S
C1198 C1230 1.432 . S
C1199 H1185 0.930 . S
C1199 C1196 1.407 . S
C1199 C1197 1.345 . S
C1200 N1195 1.360 . S
C1200 C1198 1.417 . S
C1200 C1204 1.432 . S
H1201 C1206 0.930 . S
N1202 Tb1164 2.600 . S
N1202 C1204 1.359 . S
N1202 C1205 1.327 . S
C1203 H1189 0.931 . S
C1203 C1205 1.392 . S
C1203 C1206 1.370 . S
C1204 C1200 1.432 . S
C1204 N1202 1.359 . S
C1204 C1207 1.414 . S
C1205 H1187 0.930 . S
C1205 N1202 1.327 . S
C1205 C1203 1.392 . S
C1206 H1201 0.930 . S
C1206 C1203 1.370 . S
C1206 C1207 1.385 . S
C1207 C1204 1.414 . S
C1207 C1206 1.385 . S
C1207 C1229 1.444 . S
O1208 Tb1164 2.546 . S
O1208 C1228 1.251 . S
O1209 Tb1164 2.610 1_655 S
O1209 Tb1175 2.362 1_556 S
O1209 C1220 1.283 . S
O1210 Tb1175 2.421 . S
O1210 C1227 1.262 1_554 S
O1211 Tb1164 2.320 1_655 S
O1211 C1227 1.260 . S
O1212 Tb1164 2.552 1_655 S
O1212 C1220 1.243 . S
O1213 Tb1164 2.413 . S
O1213 C1228 1.256 . S
O1214 Tb1175 2.546 . S
O1214 C1239 1.251 . S
O1215 Tb1164 2.362 1_554 S
O1215 Tb1175 2.610 1_455 S
O1215 C1231 1.283 . S
O1216 Tb1164 2.421 . S
O1216 C1238 1.262 1_556 S
O1217 Tb1175 2.320 1_455 S
O1217 C1238 1.260 . S
O1218 Tb1175 2.552 1_455 S
O1218 C1231 1.243 . S
O1219 Tb1175 2.413 . S
O1219 C1239 1.256 . S
C1220 O1209 1.283 . S
C1220 O1212 1.243 . S
C1221 C1223 1.382 1_455 S
C1221 C1225 1.393 . S
C1221 C1228 1.500 . S
C1222 C1223 1.400 . S
C1222 C1224 1.384 1_655 S
C1223 C1221 1.382 1_655 S
C1223 C1222 1.400 . S
C1223 H1240 0.930 . S
C1224 C1222 1.384 1_455 S
C1224 C1226 1.392 . S
C1224 H1241 0.931 . S
C1225 C1221 1.393 . S
C1225 C1226 1.401 . S
C1225 H1242 0.930 . S
C1226 C1224 1.392 . S
C1226 C1225 1.401 . S
C1226 H1243 0.930 . S
C1227 O1210 1.262 1_556 S
C1227 O1211 1.260 . S
C1228 Tb1164 2.833 . S
C1228 O1208 1.251 . S
C1228 O1213 1.256 . S
C1228 C1221 1.500 . S
C1229 H1194 0.929 . S
C1229 C1207 1.444 . S
C1229 C1230 1.317 . S
C1230 H1192 0.930 . S
C1230 C1198 1.432 . S
C1230 C1229 1.317 . S
C1231 O1215 1.283 . S
C1231 O1218 1.243 . S
C1232 C1233 1.382 1_655 S
C1232 C1236 1.393 . S
C1232 C1239 1.500 . S
C1233 C1232 1.382 1_455 S
C1233 C1234 1.400 . S
C1233 H1244 0.930 . S
C1234 C1233 1.400 . S
C1234 C1235 1.384 1_455 S
C1235 C1234 1.384 1_655 S
C1235 C1237 1.392 . S
C1235 H1245 0.931 . S
C1236 C1232 1.393 . S
C1236 C1237 1.401 . S
C1236 H1246 0.930 . S
C1237 C1235 1.392 . S
C1237 C1236 1.401 . S
C1237 H1247 0.930 . S
C1238 O1216 1.262 1_554 S
C1238 O1217 1.260 . S
C1239 Tb1175 2.833 . S
C1239 O1214 1.251 . S
C1239 O1219 1.256 . S
C1239 C1232 1.500 . S
H1240 C1223 0.930 . S
H1241 C1224 0.931 . S
H1242 C1225 0.930 . S
H1243 C1226 0.930 . S
H1244 C1233 0.930 . S
H1245 C1235 0.931 . S
H1246 C1236 0.930 . S
H1247 C1237 0.930 . S
Tb1248 N1279 2.660 . S
Tb1248 N1286 2.600 . S
Tb1248 O1292 2.546 . S
Tb1248 O1293 2.610 . S
Tb1248 O1295 2.320 . S
Tb1248 O1296 2.552 . S
Tb1248 O1297 2.413 . S
Tb1248 O1299 2.362 1_554 S
Tb1248 O1300 2.421 . S
Tb1248 C1312 2.833 . S
C1249 C1252 1.432 . S
C1249 C1253 1.414 . S
C1249 N1256 1.359 . S
C1250 C1252 1.417 . S
C1250 C1254 1.432 . S
C1250 C1262 1.410 . S
C1251 C1253 1.444 . S
C1251 C1254 1.317 . S
C1251 H1274 0.929 . S
C1252 C1249 1.432 . S
C1252 C1250 1.417 . S
C1252 N1260 1.360 . S
C1253 C1249 1.414 . S
C1253 C1251 1.444 . S
C1253 C1258 1.385 . S
C1254 C1250 1.432 . S
C1254 C1251 1.317 . S
C1254 H1266 0.930 . S
C1255 C1257 1.392 . S
C1255 C1258 1.370 . S
C1255 H1267 0.931 . S
N1256 C1249 1.359 . S
N1256 C1257 1.327 . S
N1256 Tb1259 2.600 . S
C1257 C1255 1.392 . S
C1257 N1256 1.327 . S
C1257 H1264 0.930 . S
C1258 C1253 1.385 . S
C1258 C1255 1.370 . S
C1258 H1277 0.930 . S
Tb1259 N1256 2.600 . S
Tb1259 N1260 2.660 . S
Tb1259 O1293 2.362 1_556 S
Tb1259 O1294 2.421 . S
Tb1259 O1298 2.546 . S
Tb1259 O1299 2.610 . S
Tb1259 O1301 2.320 . S
Tb1259 O1302 2.552 . S
Tb1259 O1303 2.413 . S
Tb1259 C1323 2.833 . S
N1260 C1252 1.360 . S
N1260 Tb1259 2.660 . S
N1260 C1261 1.305 . S
C1261 N1260 1.305 . S
C1261 C1263 1.407 . S
C1261 H1268 0.930 . S
C1262 C1250 1.410 . S
C1262 C1263 1.345 . S
C1262 H1270 0.930 . S
C1263 C1261 1.407 . S
C1263 C1262 1.345 . S
C1263 H1265 0.930 . S
H1264 C1257 0.930 . S
H1265 C1263 0.930 . S
H1266 C1254 0.930 . S
H1267 C1255 0.931 . S
H1268 C1261 0.930 . S
H1269 C1283 0.930 . S
H1270 C1262 0.930 . S
H1271 C1289 0.930 . S
H1272 C1280 0.930 . S
H1273 C1287 0.931 . S
H1274 C1251 0.929 . S
H1275 C1281 0.930 . S
H1276 C1314 0.930 . S
H1277 C1258 0.930 . S
H1278 C1313 0.929 . S
N1279 Tb1248 2.660 . S
N1279 C1280 1.305 . S
N1279 C1284 1.360 . S
C1280 H1272 0.930 . S
C1280 N1279 1.305 . S
C1280 C1283 1.407 . S
C1281 H1275 0.930 . S
C1281 C1282 1.410 . S
C1281 C1283 1.345 . S
C1282 C1281 1.410 . S
C1282 C1284 1.417 . S
C1282 C1314 1.432 . S
C1283 H1269 0.930 . S
C1283 C1280 1.407 . S
C1283 C1281 1.345 . S
C1284 N1279 1.360 . S
C1284 C1282 1.417 . S
C1284 C1288 1.432 . S
H1285 C1290 0.930 . S
N1286 Tb1248 2.600 . S
N1286 C1288 1.359 . S
N1286 C1289 1.327 . S
C1287 H1273 0.931 . S
C1287 C1289 1.392 . S
C1287 C1290 1.370 . S
C1288 C1284 1.432 . S
C1288 N1286 1.359 . S
C1288 C1291 1.414 . S
C1289 H1271 0.930 . S
C1289 N1286 1.327 . S
C1289 C1287 1.392 . S
C1290 H1285 0.930 . S
C1290 C1287 1.370 . S
C1290 C1291 1.385 . S
C1291 C1288 1.414 . S
C1291 C1290 1.385 . S
C1291 C1313 1.444 . S
O1292 Tb1248 2.546 . S
O1292 C1312 1.251 . S
O1293 Tb1248 2.610 . S
O1293 Tb1259 2.362 1_554 S
O1293 C1304 1.283 . S
O1294 Tb1259 2.421 . S
O1294 C1311 1.262 1_556 S
O1295 Tb1248 2.320 . S
O1295 C1311 1.260 . S
O1296 Tb1248 2.552 . S
O1296 C1304 1.243 . S
O1297 Tb1248 2.413 . S
O1297 C1312 1.256 . S
O1298 Tb1259 2.546 . S
O1298 C1323 1.251 . S
O1299 Tb1248 2.362 1_556 S
O1299 Tb1259 2.610 . S
O1299 C1315 1.283 . S
O1300 Tb1248 2.421 . S
O1300 C1322 1.262 1_554 S
O1301 Tb1259 2.320 . S
O1301 C1322 1.260 . S
O1302 Tb1259 2.552 . S
O1302 C1315 1.243 . S
O1303 Tb1259 2.413 . S
O1303 C1323 1.256 . S
C1304 O1293 1.283 . S
C1304 O1296 1.243 . S
C1305 C1307 1.382 . S
C1305 C1309 1.393 . S
C1305 C1312 1.500 . S
C1306 C1307 1.400 . S
C1306 C1308 1.384 . S
C1307 C1305 1.382 . S
C1307 C1306 1.400 . S
C1307 H1324 0.930 . S
C1308 C1306 1.384 . S
C1308 C1310 1.392 . S
C1308 H1325 0.931 . S
C1309 C1305 1.393 . S
C1309 C1310 1.401 . S
C1309 H1326 0.930 . S
C1310 C1308 1.392 . S
C1310 C1309 1.401 . S
C1310 H1327 0.930 . S
C1311 O1294 1.262 1_554 S
C1311 O1295 1.260 . S
C1312 Tb1248 2.833 . S
C1312 O1292 1.251 . S
C1312 O1297 1.256 . S
C1312 C1305 1.500 . S
C1313 H1278 0.929 . S
C1313 C1291 1.444 . S
C1313 C1314 1.317 . S
C1314 H1276 0.930 . S
C1314 C1282 1.432 . S
C1314 C1313 1.317 . S
C1315 O1299 1.283 . S
C1315 O1302 1.243 . S
C1316 C1317 1.382 . S
C1316 C1320 1.393 . S
C1316 C1323 1.500 . S
C1317 C1316 1.382 . S
C1317 C1318 1.400 . S
C1317 H1328 0.930 . S
C1318 C1317 1.400 . S
C1318 C1319 1.384 . S
C1319 C1318 1.384 . S
C1319 C1321 1.392 . S
C1319 H1329 0.931 . S
C1320 C1316 1.393 . S
C1320 C1321 1.401 . S
C1320 H1330 0.930 . S
C1321 C1319 1.392 . S
C1321 C1320 1.401 . S
C1321 H1331 0.930 . S
C1322 O1300 1.262 1_556 S
C1322 O1301 1.260 . S
C1323 Tb1259 2.833 . S
C1323 O1298 1.251 . S
C1323 O1303 1.256 . S
C1323 C1316 1.500 . S
H1324 C1307 0.930 . S
H1325 C1308 0.931 . S
H1326 C1309 0.930 . S
H1327 C1310 0.930 . S
H1328 C1317 0.930 . S
H1329 C1319 0.931 . S
H1330 C1320 0.930 . S
H1331 C1321 0.930 . S
Tb1332 N1363 2.660 . S
Tb1332 N1370 2.600 . S
Tb1332 O1376 2.546 . S
Tb1332 O1377 2.610 . S
Tb1332 O1379 2.320 . S
Tb1332 O1380 2.552 . S
Tb1332 O1381 2.413 . S
Tb1332 O1383 2.362 . S
Tb1332 O1384 2.421 . S
Tb1332 C1396 2.833 . S
C1333 C1336 1.432 . S
C1333 C1337 1.414 . S
C1333 N1340 1.359 . S
C1334 C1336 1.417 . S
C1334 C1338 1.432 . S
C1334 C1346 1.410 . S
C1335 C1337 1.444 . S
C1335 C1338 1.317 . S
C1335 H1358 0.929 . S
C1336 C1333 1.432 . S
C1336 C1334 1.417 . S
C1336 N1344 1.360 . S
C1337 C1333 1.414 . S
C1337 C1335 1.444 . S
C1337 C1342 1.385 . S
C1338 C1334 1.432 . S
C1338 C1335 1.317 . S
C1338 H1350 0.930 . S
C1339 C1341 1.392 . S
C1339 C1342 1.370 . S
C1339 H1351 0.931 . S
N1340 C1333 1.359 . S
N1340 C1341 1.327 . S
N1340 Tb1343 2.600 . S
C1341 C1339 1.392 . S
C1341 N1340 1.327 . S
C1341 H1348 0.930 . S
C1342 C1337 1.385 . S
C1342 C1339 1.370 . S
C1342 H1361 0.930 . S
Tb1343 N1340 2.600 . S
Tb1343 N1344 2.660 . S
Tb1343 O1377 2.362 . S
Tb1343 O1378 2.421 . S
Tb1343 O1382 2.546 . S
Tb1343 O1383 2.610 . S
Tb1343 O1385 2.320 . S
Tb1343 O1386 2.552 . S
Tb1343 O1387 2.413 . S
Tb1343 C1407 2.833 . S
N1344 C1336 1.360 . S
N1344 Tb1343 2.660 . S
N1344 C1345 1.305 . S
C1345 N1344 1.305 . S
C1345 C1347 1.407 . S
C1345 H1352 0.930 . S
C1346 C1334 1.410 . S
C1346 C1347 1.345 . S
C1346 H1354 0.930 . S
C1347 C1345 1.407 . S
C1347 C1346 1.345 . S
C1347 H1349 0.930 . S
H1348 C1341 0.930 . S
H1349 C1347 0.930 . S
H1350 C1338 0.930 . S
H1351 C1339 0.931 . S
H1352 C1345 0.930 . S
H1353 C1367 0.930 . S
H1354 C1346 0.930 . S
H1355 C1373 0.930 . S
H1356 C1364 0.930 . S
H1357 C1371 0.931 . S
H1358 C1335 0.929 . S
H1359 C1365 0.930 . S
H1360 C1398 0.930 . S
H1361 C1342 0.930 . S
H1362 C1397 0.929 . S
N1363 Tb1332 2.660 . S
N1363 C1364 1.305 . S
N1363 C1368 1.360 . S
C1364 H1356 0.930 . S
C1364 N1363 1.305 . S
C1364 C1367 1.407 . S
C1365 H1359 0.930 . S
C1365 C1366 1.410 . S
C1365 C1367 1.345 . S
C1366 C1365 1.410 . S
C1366 C1368 1.417 . S
C1366 C1398 1.432 . S
C1367 H1353 0.930 . S
C1367 C1364 1.407 . S
C1367 C1365 1.345 . S
C1368 N1363 1.360 . S
C1368 C1366 1.417 . S
C1368 C1372 1.432 . S
H1369 C1374 0.930 . S
N1370 Tb1332 2.600 . S
N1370 C1372 1.359 . S
N1370 C1373 1.327 . S
C1371 H1357 0.931 . S
C1371 C1373 1.392 . S
C1371 C1374 1.370 . S
C1372 C1368 1.432 . S
C1372 N1370 1.359 . S
C1372 C1375 1.414 . S
C1373 H1355 0.930 . S
C1373 N1370 1.327 . S
C1373 C1371 1.392 . S
C1374 H1369 0.930 . S
C1374 C1371 1.370 . S
C1374 C1375 1.385 . S
C1375 C1372 1.414 . S
C1375 C1374 1.385 . S
C1375 C1397 1.444 . S
O1376 Tb1332 2.546 . S
O1376 C1396 1.251 . S
O1377 Tb1332 2.610 . S
O1377 Tb1343 2.362 . S
O1377 C1388 1.283 . S
O1378 Tb1343 2.421 . S
O1378 C1395 1.262 . S
O1379 Tb1332 2.320 . S
O1379 C1395 1.260 . S
O1380 Tb1332 2.552 . S
O1380 C1388 1.243 . S
O1381 Tb1332 2.413 . S
O1381 C1396 1.256 . S
O1382 Tb1343 2.546 . S
O1382 C1407 1.251 . S
O1383 Tb1332 2.362 . S
O1383 Tb1343 2.610 . S
O1383 C1399 1.283 . S
O1384 Tb1332 2.421 . S
O1384 C1406 1.262 . S
O1385 Tb1343 2.320 . S
O1385 C1406 1.260 . S
O1386 Tb1343 2.552 . S
O1386 C1399 1.243 . S
O1387 Tb1343 2.413 . S
O1387 C1407 1.256 . S
C1388 O1377 1.283 . S
C1388 O1380 1.243 . S
C1389 C1391 1.382 . S
C1389 C1393 1.393 . S
C1389 C1396 1.500 . S
C1390 C1391 1.400 . S
C1390 C1392 1.384 . S
C1391 C1389 1.382 . S
C1391 C1390 1.400 . S
C1391 H1408 0.930 . S
C1392 C1390 1.384 . S
C1392 C1394 1.392 . S
C1392 H1409 0.931 . S
C1393 C1389 1.393 . S
C1393 C1394 1.401 . S
C1393 H1410 0.930 . S
C1394 C1392 1.392 . S
C1394 C1393 1.401 . S
C1394 H1411 0.930 . S
C1395 O1378 1.262 . S
C1395 O1379 1.260 . S
C1396 Tb1332 2.833 . S
C1396 O1376 1.251 . S
C1396 O1381 1.256 . S
C1396 C1389 1.500 . S
C1397 H1362 0.929 . S
C1397 C1375 1.444 . S
C1397 C1398 1.317 . S
C1398 H1360 0.930 . S
C1398 C1366 1.432 . S
C1398 C1397 1.317 . S
C1399 O1383 1.283 . S
C1399 O1386 1.243 . S
C1400 C1401 1.382 . S
C1400 C1404 1.393 . S
C1400 C1407 1.500 . S
C1401 C1400 1.382 . S
C1401 C1402 1.400 . S
C1401 H1412 0.930 . S
C1402 C1401 1.400 . S
C1402 C1403 1.384 . S
C1403 C1402 1.384 . S
C1403 C1405 1.392 . S
C1403 H1413 0.931 . S
C1404 C1400 1.393 . S
C1404 C1405 1.401 . S
C1404 H1414 0.930 . S
C1405 C1403 1.392 . S
C1405 C1404 1.401 . S
C1405 H1415 0.930 . S
C1406 O1384 1.262 . S
C1406 O1385 1.260 . S
C1407 Tb1343 2.833 . S
C1407 O1382 1.251 . S
C1407 O1387 1.256 . S
C1407 C1400 1.500 . S
H1408 C1391 0.930 . S
H1409 C1392 0.931 . S
H1410 C1393 0.930 . S
H1411 C1394 0.930 . S
H1412 C1401 0.930 . S
H1413 C1403 0.931 . S
H1414 C1404 0.930 . S
H1415 C1405 0.930 . S
Tb1416 N1447 2.660 . S
Tb1416 N1454 2.600 . S
Tb1416 O1460 2.546 . S
Tb1416 O1461 2.610 . S
Tb1416 O1463 2.320 . S
Tb1416 O1464 2.552 . S
Tb1416 O1465 2.413 . S
Tb1416 O1467 2.362 . S
Tb1416 O1468 2.421 . S
Tb1416 C1480 2.833 . S
C1417 C1420 1.432 . S
C1417 C1421 1.414 . S
C1417 N1424 1.359 . S
C1418 C1420 1.417 . S
C1418 C1422 1.432 . S
C1418 C1430 1.410 . S
C1419 C1421 1.444 . S
C1419 C1422 1.317 . S
C1419 H1442 0.929 . S
C1420 C1417 1.432 . S
C1420 C1418 1.417 . S
C1420 N1428 1.360 . S
C1421 C1417 1.414 . S
C1421 C1419 1.444 . S
C1421 C1426 1.385 . S
C1422 C1418 1.432 . S
C1422 C1419 1.317 . S
C1422 H1434 0.930 . S
C1423 C1425 1.392 . S
C1423 C1426 1.370 . S
C1423 H1435 0.931 . S
N1424 C1417 1.359 . S
N1424 C1425 1.327 . S
N1424 Tb1427 2.600 . S
C1425 C1423 1.392 . S
C1425 N1424 1.327 . S
C1425 H1432 0.930 . S
C1426 C1421 1.385 . S
C1426 C1423 1.370 . S
C1426 H1445 0.930 . S
Tb1427 N1424 2.600 . S
Tb1427 N1428 2.660 . S
Tb1427 O1461 2.362 . S
Tb1427 O1462 2.421 . S
Tb1427 O1466 2.546 . S
Tb1427 O1467 2.610 . S
Tb1427 O1469 2.320 . S
Tb1427 O1470 2.552 . S
Tb1427 O1471 2.413 . S
Tb1427 C1491 2.833 . S
N1428 C1420 1.360 . S
N1428 Tb1427 2.660 . S
N1428 C1429 1.305 . S
C1429 N1428 1.305 . S
C1429 C1431 1.407 . S
C1429 H1436 0.930 . S
C1430 C1418 1.410 . S
C1430 C1431 1.345 . S
C1430 H1438 0.930 . S
C1431 C1429 1.407 . S
C1431 C1430 1.345 . S
C1431 H1433 0.930 . S
H1432 C1425 0.930 . S
H1433 C1431 0.930 . S
H1434 C1422 0.930 . S
H1435 C1423 0.931 . S
H1436 C1429 0.930 . S
H1437 C1451 0.930 . S
H1438 C1430 0.930 . S
H1439 C1457 0.930 . S
H1440 C1448 0.930 . S
H1441 C1455 0.931 . S
H1442 C1419 0.929 . S
H1443 C1449 0.930 . S
H1444 C1482 0.930 . S
H1445 C1426 0.930 . S
H1446 C1481 0.929 . S
N1447 Tb1416 2.660 . S
N1447 C1448 1.305 . S
N1447 C1452 1.360 . S
C1448 H1440 0.930 . S
C1448 N1447 1.305 . S
C1448 C1451 1.407 . S
C1449 H1443 0.930 . S
C1449 C1450 1.410 . S
C1449 C1451 1.345 . S
C1450 C1449 1.410 . S
C1450 C1452 1.417 . S
C1450 C1482 1.432 . S
C1451 H1437 0.930 . S
C1451 C1448 1.407 . S
C1451 C1449 1.345 . S
C1452 N1447 1.360 . S
C1452 C1450 1.417 . S
C1452 C1456 1.432 . S
H1453 C1458 0.930 . S
N1454 Tb1416 2.600 . S
N1454 C1456 1.359 . S
N1454 C1457 1.327 . S
C1455 H1441 0.931 . S
C1455 C1457 1.392 . S
C1455 C1458 1.370 . S
C1456 C1452 1.432 . S
C1456 N1454 1.359 . S
C1456 C1459 1.414 . S
C1457 H1439 0.930 . S
C1457 N1454 1.327 . S
C1457 C1455 1.392 . S
C1458 H1453 0.930 . S
C1458 C1455 1.370 . S
C1458 C1459 1.385 . S
C1459 C1456 1.414 . S
C1459 C1458 1.385 . S
C1459 C1481 1.444 . S
O1460 Tb1416 2.546 . S
O1460 C1480 1.251 . S
O1461 Tb1416 2.610 . S
O1461 Tb1427 2.362 . S
O1461 C1472 1.283 . S
O1462 Tb1427 2.421 . S
O1462 C1479 1.262 . S
O1463 Tb1416 2.320 . S
O1463 C1479 1.260 . S
O1464 Tb1416 2.552 . S
O1464 C1472 1.243 . S
O1465 Tb1416 2.413 . S
O1465 C1480 1.256 . S
O1466 Tb1427 2.546 . S
O1466 C1491 1.251 . S
O1467 Tb1416 2.362 . S
O1467 Tb1427 2.610 . S
O1467 C1483 1.283 . S
O1468 Tb1416 2.421 . S
O1468 C1490 1.262 . S
O1469 Tb1427 2.320 . S
O1469 C1490 1.260 . S
O1470 Tb1427 2.552 . S
O1470 C1483 1.243 . S
O1471 Tb1427 2.413 . S
O1471 C1491 1.256 . S
C1472 O1461 1.283 . S
C1472 O1464 1.243 . S
C1473 C1475 1.382 . S
C1473 C1477 1.393 . S
C1473 C1480 1.500 . S
C1474 C1475 1.400 . S
C1474 C1476 1.384 . S
C1475 C1473 1.382 . S
C1475 C1474 1.400 . S
C1475 H1492 0.930 . S
C1476 C1474 1.384 . S
C1476 C1478 1.392 . S
C1476 H1493 0.931 . S
C1477 C1473 1.393 . S
C1477 C1478 1.401 . S
C1477 H1494 0.930 . S
C1478 C1476 1.392 . S
C1478 C1477 1.401 . S
C1478 H1495 0.930 . S
C1479 O1462 1.262 . S
C1479 O1463 1.260 . S
C1480 Tb1416 2.833 . S
C1480 O1460 1.251 . S
C1480 O1465 1.256 . S
C1480 C1473 1.500 . S
C1481 H1446 0.929 . S
C1481 C1459 1.444 . S
C1481 C1482 1.317 . S
C1482 H1444 0.930 . S
C1482 C1450 1.432 . S
C1482 C1481 1.317 . S
C1483 O1467 1.283 . S
C1483 O1470 1.243 . S
C1484 C1485 1.382 . S
C1484 C1488 1.393 . S
C1484 C1491 1.500 . S
C1485 C1484 1.382 . S
C1485 C1486 1.400 . S
C1485 H1496 0.930 . S
C1486 C1485 1.400 . S
C1486 C1487 1.384 . S
C1487 C1486 1.384 . S
C1487 C1489 1.392 . S
C1487 H1497 0.931 . S
C1488 C1484 1.393 . S
C1488 C1489 1.401 . S
C1488 H1498 0.930 . S
C1489 C1487 1.392 . S
C1489 C1488 1.401 . S
C1489 H1499 0.930 . S
C1490 O1468 1.262 . S
C1490 O1469 1.260 . S
C1491 Tb1427 2.833 . S
C1491 O1466 1.251 . S
C1491 O1471 1.256 . S
C1491 C1484 1.500 . S
H1492 C1475 0.930 . S
H1493 C1476 0.931 . S
H1494 C1477 0.930 . S
H1495 C1478 0.930 . S
H1496 C1485 0.930 . S
H1497 C1487 0.931 . S
H1498 C1488 0.930 . S
H1499 C1489 0.930 . S
Tb1500 N1531 2.660 . S
Tb1500 N1538 2.600 . S
Tb1500 O1544 2.546 . S
Tb1500 O1545 2.610 . S
Tb1500 O1547 2.320 . S
Tb1500 O1548 2.552 . S
Tb1500 O1549 2.413 . S
Tb1500 O1551 2.362 . S
Tb1500 O1552 2.421 . S
Tb1500 C1564 2.833 . S
C1501 C1504 1.432 . S
C1501 C1505 1.414 . S
C1501 N1508 1.359 . S
C1502 C1504 1.417 . S
C1502 C1506 1.432 . S
C1502 C1514 1.410 . S
C1503 C1505 1.444 . S
C1503 C1506 1.317 . S
C1503 H1526 0.929 . S
C1504 C1501 1.432 . S
C1504 C1502 1.417 . S
C1504 N1512 1.360 . S
C1505 C1501 1.414 . S
C1505 C1503 1.444 . S
C1505 C1510 1.385 . S
C1506 C1502 1.432 . S
C1506 C1503 1.317 . S
C1506 H1518 0.930 . S
C1507 C1509 1.392 . S
C1507 C1510 1.370 . S
C1507 H1519 0.931 . S
N1508 C1501 1.359 . S
N1508 C1509 1.327 . S
N1508 Tb1511 2.600 . S
C1509 C1507 1.392 . S
C1509 N1508 1.327 . S
C1509 H1516 0.930 . S
C1510 C1505 1.385 . S
C1510 C1507 1.370 . S
C1510 H1529 0.930 . S
Tb1511 N1508 2.600 . S
Tb1511 N1512 2.660 . S
Tb1511 O1545 2.362 . S
Tb1511 O1546 2.421 . S
Tb1511 O1550 2.546 . S
Tb1511 O1551 2.610 . S
Tb1511 O1553 2.320 . S
Tb1511 O1554 2.552 . S
Tb1511 O1555 2.413 . S
Tb1511 C1575 2.833 . S
N1512 C1504 1.360 . S
N1512 Tb1511 2.660 . S
N1512 C1513 1.305 . S
C1513 N1512 1.305 . S
C1513 C1515 1.407 . S
C1513 H1520 0.930 . S
C1514 C1502 1.410 . S
C1514 C1515 1.345 . S
C1514 H1522 0.930 . S
C1515 C1513 1.407 . S
C1515 C1514 1.345 . S
C1515 H1517 0.930 . S
H1516 C1509 0.930 . S
H1517 C1515 0.930 . S
H1518 C1506 0.930 . S
H1519 C1507 0.931 . S
H1520 C1513 0.930 . S
H1521 C1535 0.930 . S
H1522 C1514 0.930 . S
H1523 C1541 0.930 . S
H1524 C1532 0.930 . S
H1525 C1539 0.931 . S
H1526 C1503 0.929 . S
H1527 C1533 0.930 . S
H1528 C1566 0.930 . S
H1529 C1510 0.930 . S
H1530 C1565 0.929 . S
N1531 Tb1500 2.660 . S
N1531 C1532 1.305 . S
N1531 C1536 1.360 . S
C1532 H1524 0.930 . S
C1532 N1531 1.305 . S
C1532 C1535 1.407 . S
C1533 H1527 0.930 . S
C1533 C1534 1.410 . S
C1533 C1535 1.345 . S
C1534 C1533 1.410 . S
C1534 C1536 1.417 . S
C1534 C1566 1.432 . S
C1535 H1521 0.930 . S
C1535 C1532 1.407 . S
C1535 C1533 1.345 . S
C1536 N1531 1.360 . S
C1536 C1534 1.417 . S
C1536 C1540 1.432 . S
H1537 C1542 0.930 . S
N1538 Tb1500 2.600 . S
N1538 C1540 1.359 . S
N1538 C1541 1.327 . S
C1539 H1525 0.931 . S
C1539 C1541 1.392 . S
C1539 C1542 1.370 . S
C1540 C1536 1.432 . S
C1540 N1538 1.359 . S
C1540 C1543 1.414 . S
C1541 H1523 0.930 . S
C1541 N1538 1.327 . S
C1541 C1539 1.392 . S
C1542 H1537 0.930 . S
C1542 C1539 1.370 . S
C1542 C1543 1.385 . S
C1543 C1540 1.414 . S
C1543 C1542 1.385 . S
C1543 C1565 1.444 . S
O1544 Tb1500 2.546 . S
O1544 C1564 1.251 . S
O1545 Tb1500 2.610 . S
O1545 Tb1511 2.362 . S
O1545 C1556 1.283 . S
O1546 Tb1511 2.421 . S
O1546 C1563 1.262 . S
O1547 Tb1500 2.320 . S
O1547 C1563 1.260 . S
O1548 Tb1500 2.552 . S
O1548 C1556 1.243 . S
O1549 Tb1500 2.413 . S
O1549 C1564 1.256 . S
O1550 Tb1511 2.546 . S
O1550 C1575 1.251 . S
O1551 Tb1500 2.362 . S
O1551 Tb1511 2.610 . S
O1551 C1567 1.283 . S
O1552 Tb1500 2.421 . S
O1552 C1574 1.262 . S
O1553 Tb1511 2.320 . S
O1553 C1574 1.260 . S
O1554 Tb1511 2.552 . S
O1554 C1567 1.243 . S
O1555 Tb1511 2.413 . S
O1555 C1575 1.256 . S
C1556 O1545 1.283 . S
C1556 O1548 1.243 . S
C1557 C1559 1.382 . S
C1557 C1561 1.393 . S
C1557 C1564 1.500 . S
C1558 C1559 1.400 . S
C1558 C1560 1.384 . S
C1559 C1557 1.382 . S
C1559 C1558 1.400 . S
C1559 H1576 0.930 . S
C1560 C1558 1.384 . S
C1560 C1562 1.392 . S
C1560 H1577 0.931 . S
C1561 C1557 1.393 . S
C1561 C1562 1.401 . S
C1561 H1578 0.930 . S
C1562 C1560 1.392 . S
C1562 C1561 1.401 . S
C1562 H1579 0.930 . S
C1563 O1546 1.262 . S
C1563 O1547 1.260 . S
C1564 Tb1500 2.833 . S
C1564 O1544 1.251 . S
C1564 O1549 1.256 . S
C1564 C1557 1.500 . S
C1565 H1530 0.929 . S
C1565 C1543 1.444 . S
C1565 C1566 1.317 . S
C1566 H1528 0.930 . S
C1566 C1534 1.432 . S
C1566 C1565 1.317 . S
C1567 O1551 1.283 . S
C1567 O1554 1.243 . S
C1568 C1569 1.382 . S
C1568 C1572 1.393 . S
C1568 C1575 1.500 . S
C1569 C1568 1.382 . S
C1569 C1570 1.400 . S
C1569 H1580 0.930 . S
C1570 C1569 1.400 . S
C1570 C1571 1.384 . S
C1571 C1570 1.384 . S
C1571 C1573 1.392 . S
C1571 H1581 0.931 . S
C1572 C1568 1.393 . S
C1572 C1573 1.401 . S
C1572 H1582 0.930 . S
C1573 C1571 1.392 . S
C1573 C1572 1.401 . S
C1573 H1583 0.930 . S
C1574 O1552 1.262 . S
C1574 O1553 1.260 . S
C1575 Tb1511 2.833 . S
C1575 O1550 1.251 . S
C1575 O1555 1.256 . S
C1575 C1568 1.500 . S
H1576 C1559 0.930 . S
H1577 C1560 0.931 . S
H1578 C1561 0.930 . S
H1579 C1562 0.930 . S
H1580 C1569 0.930 . S
H1581 C1571 0.931 . S
H1582 C1572 0.930 . S
H1583 C1573 0.930 . S
Tb1584 N1615 2.660 . S
Tb1584 N1622 2.600 . S
Tb1584 O1628 2.546 . S
Tb1584 O1629 2.610 . S
Tb1584 O1631 2.320 . S
Tb1584 O1632 2.552 . S
Tb1584 O1633 2.413 . S
Tb1584 O1635 2.362 . S
Tb1584 O1636 2.421 . S
Tb1584 C1648 2.833 . S
C1585 C1588 1.432 . S
C1585 C1589 1.414 . S
C1585 N1592 1.359 . S
C1586 C1588 1.417 . S
C1586 C1590 1.432 . S
C1586 C1598 1.410 . S
C1587 C1589 1.444 . S
C1587 C1590 1.317 . S
C1587 H1610 0.929 . S
C1588 C1585 1.432 . S
C1588 C1586 1.417 . S
C1588 N1596 1.360 . S
C1589 C1585 1.414 . S
C1589 C1587 1.444 . S
C1589 C1594 1.385 . S
C1590 C1586 1.432 . S
C1590 C1587 1.317 . S
C1590 H1602 0.930 . S
C1591 C1593 1.392 . S
C1591 C1594 1.370 . S
C1591 H1603 0.931 . S
N1592 C1585 1.359 . S
N1592 C1593 1.327 . S
N1592 Tb1595 2.600 . S
C1593 C1591 1.392 . S
C1593 N1592 1.327 . S
C1593 H1600 0.930 . S
C1594 C1589 1.385 . S
C1594 C1591 1.370 . S
C1594 H1613 0.930 . S
Tb1595 N1592 2.600 . S
Tb1595 N1596 2.660 . S
Tb1595 O1629 2.362 . S
Tb1595 O1630 2.421 . S
Tb1595 O1634 2.546 . S
Tb1595 O1635 2.610 . S
Tb1595 O1637 2.320 . S
Tb1595 O1638 2.552 . S
Tb1595 O1639 2.413 . S
Tb1595 C1659 2.833 . S
N1596 C1588 1.360 . S
N1596 Tb1595 2.660 . S
N1596 C1597 1.305 . S
C1597 N1596 1.305 . S
C1597 C1599 1.407 . S
C1597 H1604 0.930 . S
C1598 C1586 1.410 . S
C1598 C1599 1.345 . S
C1598 H1606 0.930 . S
C1599 C1597 1.407 . S
C1599 C1598 1.345 . S
C1599 H1601 0.930 . S
H1600 C1593 0.930 . S
H1601 C1599 0.930 . S
H1602 C1590 0.930 . S
H1603 C1591 0.931 . S
H1604 C1597 0.930 . S
H1605 C1619 0.930 . S
H1606 C1598 0.930 . S
H1607 C1625 0.930 . S
H1608 C1616 0.930 . S
H1609 C1623 0.931 . S
H1610 C1587 0.929 . S
H1611 C1617 0.930 . S
H1612 C1650 0.930 . S
H1613 C1594 0.930 . S
H1614 C1649 0.929 . S
N1615 Tb1584 2.660 . S
N1615 C1616 1.305 . S
N1615 C1620 1.360 . S
C1616 H1608 0.930 . S
C1616 N1615 1.305 . S
C1616 C1619 1.407 . S
C1617 H1611 0.930 . S
C1617 C1618 1.410 . S
C1617 C1619 1.345 . S
C1618 C1617 1.410 . S
C1618 C1620 1.417 . S
C1618 C1650 1.432 . S
C1619 H1605 0.930 . S
C1619 C1616 1.407 . S
C1619 C1617 1.345 . S
C1620 N1615 1.360 . S
C1620 C1618 1.417 . S
C1620 C1624 1.432 . S
H1621 C1626 0.930 . S
N1622 Tb1584 2.600 . S
N1622 C1624 1.359 . S
N1622 C1625 1.327 . S
C1623 H1609 0.931 . S
C1623 C1625 1.392 . S
C1623 C1626 1.370 . S
C1624 C1620 1.432 . S
C1624 N1622 1.359 . S
C1624 C1627 1.414 . S
C1625 H1607 0.930 . S
C1625 N1622 1.327 . S
C1625 C1623 1.392 . S
C1626 H1621 0.930 . S
C1626 C1623 1.370 . S
C1626 C1627 1.385 . S
C1627 C1624 1.414 . S
C1627 C1626 1.385 . S
C1627 C1649 1.444 . S
O1628 Tb1584 2.546 . S
O1628 C1648 1.251 . S
O1629 Tb1584 2.610 . S
O1629 Tb1595 2.362 . S
O1629 C1640 1.283 . S
O1630 Tb1595 2.421 . S
O1630 C1647 1.262 . S
O1631 Tb1584 2.320 . S
O1631 C1647 1.260 . S
O1632 Tb1584 2.552 . S
O1632 C1640 1.243 . S
O1633 Tb1584 2.413 . S
O1633 C1648 1.256 . S
O1634 Tb1595 2.546 . S
O1634 C1659 1.251 . S
O1635 Tb1584 2.362 . S
O1635 Tb1595 2.610 . S
O1635 C1651 1.283 . S
O1636 Tb1584 2.421 . S
O1636 C1658 1.262 . S
O1637 Tb1595 2.320 . S
O1637 C1658 1.260 . S
O1638 Tb1595 2.552 . S
O1638 C1651 1.243 . S
O1639 Tb1595 2.413 . S
O1639 C1659 1.256 . S
C1640 O1629 1.283 . S
C1640 O1632 1.243 . S
C1641 C1643 1.382 . S
C1641 C1645 1.393 . S
C1641 C1648 1.500 . S
C1642 C1643 1.400 . S
C1642 C1644 1.384 . S
C1643 C1641 1.382 . S
C1643 C1642 1.400 . S
C1643 H1660 0.930 . S
C1644 C1642 1.384 . S
C1644 C1646 1.392 . S
C1644 H1661 0.931 . S
C1645 C1641 1.393 . S
C1645 C1646 1.401 . S
C1645 H1662 0.930 . S
C1646 C1644 1.392 . S
C1646 C1645 1.401 . S
C1646 H1663 0.930 . S
C1647 O1630 1.262 . S
C1647 O1631 1.260 . S
C1648 Tb1584 2.833 . S
C1648 O1628 1.251 . S
C1648 O1633 1.256 . S
C1648 C1641 1.500 . S
C1649 H1614 0.929 . S
C1649 C1627 1.444 . S
C1649 C1650 1.317 . S
C1650 H1612 0.930 . S
C1650 C1618 1.432 . S
C1650 C1649 1.317 . S
C1651 O1635 1.283 . S
C1651 O1638 1.243 . S
C1652 C1653 1.382 . S
C1652 C1656 1.393 . S
C1652 C1659 1.500 . S
C1653 C1652 1.382 . S
C1653 C1654 1.400 . S
C1653 H1664 0.930 . S
C1654 C1653 1.400 . S
C1654 C1655 1.384 . S
C1655 C1654 1.384 . S
C1655 C1657 1.392 . S
C1655 H1665 0.931 . S
C1656 C1652 1.393 . S
C1656 C1657 1.401 . S
C1656 H1666 0.930 . S
C1657 C1655 1.392 . S
C1657 C1656 1.401 . S
C1657 H1667 0.930 . S
C1658 O1636 1.262 . S
C1658 O1637 1.260 . S
C1659 Tb1595 2.833 . S
C1659 O1634 1.251 . S
C1659 O1639 1.256 . S
C1659 C1652 1.500 . S
H1660 C1643 0.930 . S
H1661 C1644 0.931 . S
H1662 C1645 0.930 . S
H1663 C1646 0.930 . S
H1664 C1653 0.930 . S
H1665 C1655 0.931 . S
H1666 C1656 0.930 . S
H1667 C1657 0.930 . S
Tb1668 N1699 2.660 . S
Tb1668 N1706 2.600 . S
Tb1668 O1712 2.546 . S
Tb1668 O1713 2.610 . S
Tb1668 O1715 2.320 . S
Tb1668 O1716 2.552 . S
Tb1668 O1717 2.413 . S
Tb1668 O1719 2.362 . S
Tb1668 O1720 2.421 . S
Tb1668 C1732 2.833 . S
C1669 C1672 1.432 . S
C1669 C1673 1.414 . S
C1669 N1676 1.359 . S
C1670 C1672 1.417 . S
C1670 C1674 1.432 . S
C1670 C1682 1.410 . S
C1671 C1673 1.444 . S
C1671 C1674 1.317 . S
C1671 H1694 0.929 . S
C1672 C1669 1.432 . S
C1672 C1670 1.417 . S
C1672 N1680 1.360 . S
C1673 C1669 1.414 . S
C1673 C1671 1.444 . S
C1673 C1678 1.385 . S
C1674 C1670 1.432 . S
C1674 C1671 1.317 . S
C1674 H1686 0.930 . S
C1675 C1677 1.392 . S
C1675 C1678 1.370 . S
C1675 H1687 0.931 . S
N1676 C1669 1.359 . S
N1676 C1677 1.327 . S
N1676 Tb1679 2.600 . S
C1677 C1675 1.392 . S
C1677 N1676 1.327 . S
C1677 H1684 0.930 . S
C1678 C1673 1.385 . S
C1678 C1675 1.370 . S
C1678 H1697 0.930 . S
Tb1679 N1676 2.600 . S
Tb1679 N1680 2.660 . S
Tb1679 O1713 2.362 . S
Tb1679 O1714 2.421 . S
Tb1679 O1718 2.546 . S
Tb1679 O1719 2.610 . S
Tb1679 O1721 2.320 . S
Tb1679 O1722 2.552 . S
Tb1679 O1723 2.413 . S
Tb1679 C1743 2.833 . S
N1680 C1672 1.360 . S
N1680 Tb1679 2.660 . S
N1680 C1681 1.305 . S
C1681 N1680 1.305 . S
C1681 C1683 1.407 . S
C1681 H1688 0.930 . S
C1682 C1670 1.410 . S
C1682 C1683 1.345 . S
C1682 H1690 0.930 . S
C1683 C1681 1.407 . S
C1683 C1682 1.345 . S
C1683 H1685 0.930 . S
H1684 C1677 0.930 . S
H1685 C1683 0.930 . S
H1686 C1674 0.930 . S
H1687 C1675 0.931 . S
H1688 C1681 0.930 . S
H1689 C1703 0.930 . S
H1690 C1682 0.930 . S
H1691 C1709 0.930 . S
H1692 C1700 0.930 . S
H1693 C1707 0.931 . S
H1694 C1671 0.929 . S
H1695 C1701 0.930 . S
H1696 C1734 0.930 . S
H1697 C1678 0.930 . S
H1698 C1733 0.929 . S
N1699 Tb1668 2.660 . S
N1699 C1700 1.305 . S
N1699 C1704 1.360 . S
C1700 H1692 0.930 . S
C1700 N1699 1.305 . S
C1700 C1703 1.407 . S
C1701 H1695 0.930 . S
C1701 C1702 1.410 . S
C1701 C1703 1.345 . S
C1702 C1701 1.410 . S
C1702 C1704 1.417 . S
C1702 C1734 1.432 . S
C1703 H1689 0.930 . S
C1703 C1700 1.407 . S
C1703 C1701 1.345 . S
C1704 N1699 1.360 . S
C1704 C1702 1.417 . S
C1704 C1708 1.432 . S
H1705 C1710 0.930 . S
N1706 Tb1668 2.600 . S
N1706 C1708 1.359 . S
N1706 C1709 1.327 . S
C1707 H1693 0.931 . S
C1707 C1709 1.392 . S
C1707 C1710 1.370 . S
C1708 C1704 1.432 . S
C1708 N1706 1.359 . S
C1708 C1711 1.414 . S
C1709 H1691 0.930 . S
C1709 N1706 1.327 . S
C1709 C1707 1.392 . S
C1710 H1705 0.930 . S
C1710 C1707 1.370 . S
C1710 C1711 1.385 . S
C1711 C1708 1.414 . S
C1711 C1710 1.385 . S
C1711 C1733 1.444 . S
O1712 Tb1668 2.546 . S
O1712 C1732 1.251 . S
O1713 Tb1668 2.610 . S
O1713 Tb1679 2.362 . S
O1713 C1724 1.283 . S
O1714 Tb1679 2.421 . S
O1714 C1731 1.262 . S
O1715 Tb1668 2.320 . S
O1715 C1731 1.260 . S
O1716 Tb1668 2.552 . S
O1716 C1724 1.243 . S
O1717 Tb1668 2.413 . S
O1717 C1732 1.256 . S
O1718 Tb1679 2.546 . S
O1718 C1743 1.251 . S
O1719 Tb1668 2.362 . S
O1719 Tb1679 2.610 . S
O1719 C1735 1.283 . S
O1720 Tb1668 2.421 . S
O1720 C1742 1.262 . S
O1721 Tb1679 2.320 . S
O1721 C1742 1.260 . S
O1722 Tb1679 2.552 . S
O1722 C1735 1.243 . S
O1723 Tb1679 2.413 . S
O1723 C1743 1.256 . S
C1724 O1713 1.283 . S
C1724 O1716 1.243 . S
C1725 C1727 1.382 . S
C1725 C1729 1.393 . S
C1725 C1732 1.500 . S
C1726 C1727 1.400 . S
C1726 C1728 1.384 . S
C1727 C1725 1.382 . S
C1727 C1726 1.400 . S
C1727 H1744 0.930 . S
C1728 C1726 1.384 . S
C1728 C1730 1.392 . S
C1728 H1745 0.931 . S
C1729 C1725 1.393 . S
C1729 C1730 1.401 . S
C1729 H1746 0.930 . S
C1730 C1728 1.392 . S
C1730 C1729 1.401 . S
C1730 H1747 0.930 . S
C1731 O1714 1.262 . S
C1731 O1715 1.260 . S
C1732 Tb1668 2.833 . S
C1732 O1712 1.251 . S
C1732 O1717 1.256 . S
C1732 C1725 1.500 . S
C1733 H1698 0.929 . S
C1733 C1711 1.444 . S
C1733 C1734 1.317 . S
C1734 H1696 0.930 . S
C1734 C1702 1.432 . S
C1734 C1733 1.317 . S
C1735 O1719 1.283 . S
C1735 O1722 1.243 . S
C1736 C1737 1.382 . S
C1736 C1740 1.393 . S
C1736 C1743 1.500 . S
C1737 C1736 1.382 . S
C1737 C1738 1.400 . S
C1737 H1748 0.930 . S
C1738 C1737 1.400 . S
C1738 C1739 1.384 . S
C1739 C1738 1.384 . S
C1739 C1741 1.392 . S
C1739 H1749 0.931 . S
C1740 C1736 1.393 . S
C1740 C1741 1.401 . S
C1740 H1750 0.930 . S
C1741 C1739 1.392 . S
C1741 C1740 1.401 . S
C1741 H1751 0.930 . S
C1742 O1720 1.262 . S
C1742 O1721 1.260 . S
C1743 Tb1679 2.833 . S
C1743 O1718 1.251 . S
C1743 O1723 1.256 . S
C1743 C1736 1.500 . S
H1744 C1727 0.930 . S
H1745 C1728 0.931 . S
H1746 C1729 0.930 . S
H1747 C1730 0.930 . S
H1748 C1737 0.930 . S
H1749 C1739 0.931 . S
H1750 C1740 0.930 . S
H1751 C1741 0.930 . S
Tb1752 N1783 2.660 . S
Tb1752 N1790 2.600 . S
Tb1752 O1796 2.546 . S
Tb1752 O1797 2.610 . S
Tb1752 O1799 2.320 . S
Tb1752 O1800 2.552 . S
Tb1752 O1801 2.413 . S
Tb1752 O1803 2.362 . S
Tb1752 O1804 2.421 . S
Tb1752 C1816 2.833 . S
C1753 C1756 1.432 . S
C1753 C1757 1.414 . S
C1753 N1760 1.359 . S
C1754 C1756 1.417 . S
C1754 C1758 1.432 . S
C1754 C1766 1.410 . S
C1755 C1757 1.444 . S
C1755 C1758 1.317 . S
C1755 H1778 0.929 . S
C1756 C1753 1.432 . S
C1756 C1754 1.417 . S
C1756 N1764 1.360 . S
C1757 C1753 1.414 . S
C1757 C1755 1.444 . S
C1757 C1762 1.385 . S
C1758 C1754 1.432 . S
C1758 C1755 1.317 . S
C1758 H1770 0.930 . S
C1759 C1761 1.392 . S
C1759 C1762 1.370 . S
C1759 H1771 0.931 . S
N1760 C1753 1.359 . S
N1760 C1761 1.327 . S
N1760 Tb1763 2.600 . S
C1761 C1759 1.392 . S
C1761 N1760 1.327 . S
C1761 H1768 0.930 . S
C1762 C1757 1.385 . S
C1762 C1759 1.370 . S
C1762 H1781 0.930 . S
Tb1763 N1760 2.600 . S
Tb1763 N1764 2.660 . S
Tb1763 O1797 2.362 . S
Tb1763 O1798 2.421 . S
Tb1763 O1802 2.546 . S
Tb1763 O1803 2.610 . S
Tb1763 O1805 2.320 . S
Tb1763 O1806 2.552 . S
Tb1763 O1807 2.413 . S
Tb1763 C1827 2.833 . S
N1764 C1756 1.360 . S
N1764 Tb1763 2.660 . S
N1764 C1765 1.305 . S
C1765 N1764 1.305 . S
C1765 C1767 1.407 . S
C1765 H1772 0.930 . S
C1766 C1754 1.410 . S
C1766 C1767 1.345 . S
C1766 H1774 0.930 . S
C1767 C1765 1.407 . S
C1767 C1766 1.345 . S
C1767 H1769 0.930 . S
H1768 C1761 0.930 . S
H1769 C1767 0.930 . S
H1770 C1758 0.930 . S
H1771 C1759 0.931 . S
H1772 C1765 0.930 . S
H1773 C1787 0.930 . S
H1774 C1766 0.930 . S
H1775 C1793 0.930 . S
H1776 C1784 0.930 . S
H1777 C1791 0.931 . S
H1778 C1755 0.929 . S
H1779 C1785 0.930 . S
H1780 C1818 0.930 . S
H1781 C1762 0.930 . S
H1782 C1817 0.929 . S
N1783 Tb1752 2.660 . S
N1783 C1784 1.305 . S
N1783 C1788 1.360 . S
C1784 H1776 0.930 . S
C1784 N1783 1.305 . S
C1784 C1787 1.407 . S
C1785 H1779 0.930 . S
C1785 C1786 1.410 . S
C1785 C1787 1.345 . S
C1786 C1785 1.410 . S
C1786 C1788 1.417 . S
C1786 C1818 1.432 . S
C1787 H1773 0.930 . S
C1787 C1784 1.407 . S
C1787 C1785 1.345 . S
C1788 N1783 1.360 . S
C1788 C1786 1.417 . S
C1788 C1792 1.432 . S
H1789 C1794 0.930 . S
N1790 Tb1752 2.600 . S
N1790 C1792 1.359 . S
N1790 C1793 1.327 . S
C1791 H1777 0.931 . S
C1791 C1793 1.392 . S
C1791 C1794 1.370 . S
C1792 C1788 1.432 . S
C1792 N1790 1.359 . S
C1792 C1795 1.414 . S
C1793 H1775 0.930 . S
C1793 N1790 1.327 . S
C1793 C1791 1.392 . S
C1794 H1789 0.930 . S
C1794 C1791 1.370 . S
C1794 C1795 1.385 . S
C1795 C1792 1.414 . S
C1795 C1794 1.385 . S
C1795 C1817 1.444 . S
O1796 Tb1752 2.546 . S
O1796 C1816 1.251 . S
O1797 Tb1752 2.610 . S
O1797 Tb1763 2.362 . S
O1797 C1808 1.283 . S
O1798 Tb1763 2.421 . S
O1798 C1815 1.262 . S
O1799 Tb1752 2.320 . S
O1799 C1815 1.260 . S
O1800 Tb1752 2.552 . S
O1800 C1808 1.243 . S
O1801 Tb1752 2.413 . S
O1801 C1816 1.256 . S
O1802 Tb1763 2.546 . S
O1802 C1827 1.251 . S
O1803 Tb1752 2.362 . S
O1803 Tb1763 2.610 . S
O1803 C1819 1.283 . S
O1804 Tb1752 2.421 . S
O1804 C1826 1.262 . S
O1805 Tb1763 2.320 . S
O1805 C1826 1.260 . S
O1806 Tb1763 2.552 . S
O1806 C1819 1.243 . S
O1807 Tb1763 2.413 . S
O1807 C1827 1.256 . S
C1808 O1797 1.283 . S
C1808 O1800 1.243 . S
C1809 C1811 1.382 . S
C1809 C1813 1.393 . S
C1809 C1816 1.500 . S
C1810 C1811 1.400 . S
C1810 C1812 1.384 . S
C1811 C1809 1.382 . S
C1811 C1810 1.400 . S
C1811 H1828 0.930 . S
C1812 C1810 1.384 . S
C1812 C1814 1.392 . S
C1812 H1829 0.931 . S
C1813 C1809 1.393 . S
C1813 C1814 1.401 . S
C1813 H1830 0.930 . S
C1814 C1812 1.392 . S
C1814 C1813 1.401 . S
C1814 H1831 0.930 . S
C1815 O1798 1.262 . S
C1815 O1799 1.260 . S
C1816 Tb1752 2.833 . S
C1816 O1796 1.251 . S
C1816 O1801 1.256 . S
C1816 C1809 1.500 . S
C1817 H1782 0.929 . S
C1817 C1795 1.444 . S
C1817 C1818 1.317 . S
C1818 H1780 0.930 . S
C1818 C1786 1.432 . S
C1818 C1817 1.317 . S
C1819 O1803 1.283 . S
C1819 O1806 1.243 . S
C1820 C1821 1.382 . S
C1820 C1824 1.393 . S
C1820 C1827 1.500 . S
C1821 C1820 1.382 . S
C1821 C1822 1.400 . S
C1821 H1832 0.930 . S
C1822 C1821 1.400 . S
C1822 C1823 1.384 . S
C1823 C1822 1.384 . S
C1823 C1825 1.392 . S
C1823 H1833 0.931 . S
C1824 C1820 1.393 . S
C1824 C1825 1.401 . S
C1824 H1834 0.930 . S
C1825 C1823 1.392 . S
C1825 C1824 1.401 . S
C1825 H1835 0.930 . S
C1826 O1804 1.262 . S
C1826 O1805 1.260 . S
C1827 Tb1763 2.833 . S
C1827 O1802 1.251 . S
C1827 O1807 1.256 . S
C1827 C1820 1.500 . S
H1828 C1811 0.930 . S
H1829 C1812 0.931 . S
H1830 C1813 0.930 . S
H1831 C1814 0.930 . S
H1832 C1821 0.930 . S
H1833 C1823 0.931 . S
H1834 C1824 0.930 . S
H1835 C1825 0.930 . S
C1836 C1837 1.387 . S
C1836 H1840 0.950 . S
C1836 C1845 1.390 . S
C1837 C1836 1.387 . S
C1837 C1839 1.387 . S
H1838 C1845 0.950 . S
C1839 C1837 1.387 . S
C1839 C1841 1.390 . S
C1839 H1843 0.950 . S
H1840 C1836 0.950 . S
C1841 C1839 1.390 . S
C1841 C1842 1.387 . S
C1841 H1844 0.950 1_554 S
C1842 C1841 1.387 . S
C1842 C1845 1.387 . S
H1843 C1839 0.950 . S
H1844 C1841 0.950 1_556 S
C1845 C1836 1.390 . S
C1845 H1838 0.950 . S
C1845 C1842 1.387 . S
C1846 C1847 1.387 . S
C1846 H1850 0.950 . S
C1846 C1855 1.390 . S
C1847 C1846 1.387 . S
C1847 C1849 1.387 . S
H1848 C1855 0.950 . S
C1849 C1847 1.387 . S
C1849 C1851 1.390 . S
C1849 H1853 0.950 . S
H1850 C1846 0.950 . S
C1851 C1849 1.390 . S
C1851 C1852 1.387 . S
C1851 H1854 0.895 1_554 S
C1852 C1851 1.387 . S
C1852 C1855 1.387 . S
H1853 C1849 0.950 . S
H1854 C1851 0.895 1_556 S
C1855 C1846 1.390 . S
C1855 H1848 0.950 . S
C1855 C1852 1.387 . S
C1856 C1857 1.387 . S
C1856 H1860 0.950 . S
C1856 C1865 1.390 . S
C1857 C1856 1.387 . S
C1857 C1859 1.387 . S
H1858 C1865 0.950 . S
C1859 C1857 1.387 . S
C1859 C1861 1.390 . S
C1859 H1863 0.950 . S
H1860 C1856 0.950 . S
C1861 C1859 1.390 . S
C1861 C1862 1.387 . S
C1861 H1864 0.950 . S
C1862 C1861 1.387 . S
C1862 C1865 1.387 . S
H1863 C1859 0.950 . S
H1864 C1861 0.950 . S
C1865 C1856 1.390 . S
C1865 H1858 0.950 . S
C1865 C1862 1.387 . S
C1866 C1867 1.387 . S
C1866 H1870 0.950 . S
C1866 C1875 1.390 . S
C1867 C1866 1.387 . S
C1867 C1869 1.387 . S
H1868 C1875 0.950 . S
C1869 C1867 1.387 . S
C1869 C1871 1.390 . S
C1869 H1873 0.950 . S
H1870 C1866 0.950 . S
C1871 C1869 1.390 . S
C1871 C1872 1.387 . S
C1871 H1874 0.950 . S
C1872 C1871 1.387 . S
C1872 C1875 1.387 . S
H1873 C1869 0.950 . S
H1874 C1871 0.950 . S
C1875 C1866 1.390 . S
C1875 H1868 0.950 . S
C1875 C1872 1.387 . S
C1876 C1877 1.387 . S
C1876 H1880 0.950 . S
C1876 C1885 1.390 . S
C1877 C1876 1.387 . S
C1877 C1879 1.387 . S
H1878 C1885 0.950 . S
C1879 C1877 1.387 . S
C1879 C1881 1.390 . S
C1879 H1883 0.950 . S
H1880 C1876 0.950 . S
C1881 C1879 1.390 . S
C1881 C1882 1.387 . S
C1881 H1884 0.950 . S
C1882 C1881 1.387 . S
C1882 C1885 1.387 . S
H1883 C1879 0.950 . S
H1884 C1881 0.950 . S
C1885 C1876 1.390 . S
C1885 H1878 0.950 . S
C1885 C1882 1.387 . S
C1886 C1887 1.387 . S
C1886 H1890 0.950 . S
C1886 C1895 1.390 . S
C1887 C1886 1.387 . S
C1887 C1889 1.387 . S
H1888 C1895 0.950 1_554 S
C1889 C1887 1.387 . S
C1889 C1891 1.390 . S
C1889 H1893 0.950 . S
H1890 C1886 0.950 . S
C1891 C1889 1.390 . S
C1891 C1892 1.387 . S
C1891 H1894 0.950 . S
C1892 C1891 1.387 . S
C1892 C1895 1.387 . S
H1893 C1889 0.950 . S
H1894 C1891 0.950 . S
C1895 C1886 1.390 . S
C1895 H1888 0.950 1_556 S
C1895 C1892 1.387 . S
C1896 C1897 1.387 . S
C1896 H1900 0.950 . S
C1896 C1905 1.390 . S
C1897 C1896 1.387 . S
C1897 C1899 1.387 . S
H1898 C1905 0.950 . S
C1899 C1897 1.387 . S
C1899 C1901 1.390 . S
C1899 H1903 0.950 . S
H1900 C1896 0.950 . S
C1901 C1899 1.390 . S
C1901 C1902 1.387 . S
C1901 H1904 0.950 . S
C1902 C1901 1.387 . S
C1902 C1905 1.387 . S
H1903 C1899 0.950 . S
H1904 C1901 0.950 . S
C1905 C1896 1.390 . S
C1905 H1898 0.950 . S
C1905 C1902 1.387 . S
C1906 C1907 1.387 . S
C1906 H1910 0.950 . S
C1906 C1915 1.390 . S
C1907 C1906 1.387 . S
C1907 C1909 1.387 . S
H1908 C1915 0.950 . S
C1909 C1907 1.387 . S
C1909 C1911 1.390 . S
C1909 H1913 0.950 . S
H1910 C1906 0.950 . S
C1911 C1909 1.390 . S
C1911 C1912 1.387 . S
C1911 H1914 0.950 1_556 S
C1912 C1911 1.387 . S
C1912 C1915 1.387 . S
H1913 C1909 0.950 . S
H1914 C1911 0.950 1_554 S
C1915 C1906 1.390 . S
C1915 H1908 0.950 . S
C1915 C1912 1.387 . S
C1916 C1917 1.387 . S
C1916 H1920 0.950 . S
C1916 C1925 1.390 . S
C1917 C1916 1.387 . S
C1917 C1919 1.387 . S
H1918 C1925 0.950 1_554 S
C1919 C1917 1.387 . S
C1919 C1921 1.390 . S
C1919 H1923 0.950 . S
H1920 C1916 0.950 . S
C1921 C1919 1.390 . S
C1921 C1922 1.387 . S
C1921 H1924 0.950 . S
C1922 C1921 1.387 . S
C1922 C1925 1.387 . S
H1923 C1919 0.950 . S
H1924 C1921 0.950 . S
C1925 C1916 1.390 . S
C1925 H1918 0.950 1_556 S
C1925 C1922 1.387 . S
C1926 C1927 1.387 . S
C1926 H1930 0.950 . S
C1926 C1935 1.390 . S
C1927 C1926 1.387 . S
C1927 C1929 1.387 . S
H1928 C1935 0.980 . S
C1929 C1927 1.387 . S
C1929 C1931 1.390 . S
C1929 H1933 0.950 . S
H1930 C1926 0.950 . S
C1931 C1929 1.390 . S
C1931 C1932 1.387 . S
C1931 H1934 0.950 . S
C1932 C1931 1.387 . S
C1932 C1935 1.387 . S
H1933 C1929 0.950 . S
H1934 C1931 0.950 . S
C1935 C1926 1.390 . S
C1935 H1928 0.980 . S
C1935 C1932 1.387 . S
C1936 C1937 1.387 . S
C1936 H1940 0.950 . S
C1936 C1945 1.390 . S
C1937 C1936 1.387 . S
C1937 C1939 1.387 . S
H1938 C1945 0.950 . S
C1939 C1937 1.387 . S
C1939 C1941 1.390 . S
C1939 H1943 0.950 . S
H1940 C1936 0.950 . S
C1941 C1939 1.390 . S
C1941 C1942 1.387 . S
C1941 H1944 0.950 . S
C1942 C1941 1.387 . S
C1942 C1945 1.387 . S
H1943 C1939 0.950 . S
H1944 C1941 0.950 . S
C1945 C1936 1.390 . S
C1945 H1938 0.950 . S
C1945 C1942 1.387 . S
C1946 C1947 1.387 . S
C1946 H1950 0.950 . S
C1946 C1955 1.390 . S
C1947 C1946 1.387 . S
C1947 C1949 1.387 . S
H1948 C1955 0.950 . S
C1949 C1947 1.387 . S
C1949 C1951 1.390 . S
C1949 H1953 0.950 . S
H1950 C1946 0.950 . S
C1951 C1949 1.390 . S
C1951 C1952 1.387 . S
C1951 H1954 0.950 . S
C1952 C1951 1.387 . S
C1952 C1955 1.387 . S
H1953 C1949 0.950 . S
H1954 C1951 0.950 . S
C1955 C1946 1.390 . S
C1955 H1948 0.950 . S
C1955 C1952 1.387 . S
C1956 C1957 1.387 . S
C1956 H1960 0.950 . S
C1956 C1965 1.390 . S
C1957 C1956 1.387 . S
C1957 C1959 1.387 . S
H1958 C1965 0.950 . S
C1959 C1957 1.387 . S
C1959 C1961 1.390 . S
C1959 H1963 0.950 . S
H1960 C1956 0.950 . S
C1961 C1959 1.390 . S
C1961 C1962 1.387 . S
C1961 H1964 0.950 . S
C1962 C1961 1.387 . S
C1962 C1965 1.387 . S
H1963 C1959 0.950 . S
H1964 C1961 0.950 . S
C1965 C1956 1.390 . S
C1965 H1958 0.950 . S
C1965 C1962 1.387 . S
C1966 C1967 1.387 . S
C1966 H1970 0.950 . S
C1966 C1975 1.390 . S
C1967 C1966 1.387 . S
C1967 C1969 1.387 . S
H1968 C1975 0.950 . S
C1969 C1967 1.387 . S
C1969 C1971 1.390 . S
C1969 H1973 0.950 . S
H1970 C1966 0.950 . S
C1971 C1969 1.390 . S
C1971 C1972 1.387 . S
C1971 H1974 0.950 . S
C1972 C1971 1.387 . S
C1972 C1975 1.387 . S
H1973 C1969 0.950 . S
H1974 C1971 0.950 . S
C1975 C1966 1.390 . S
C1975 H1968 0.950 . S
C1975 C1972 1.387 . S
C1976 C1977 1.387 . S
C1976 H1980 0.950 . S
C1976 C1985 1.390 . S
C1977 C1976 1.387 . S
C1977 C1979 1.387 . S
H1978 C1985 0.950 . S
C1979 C1977 1.387 . S
C1979 C1981 1.390 . S
C1979 H1983 0.950 . S
H1980 C1976 0.950 . S
C1981 C1979 1.390 . S
C1981 C1982 1.387 . S
C1981 H1984 0.950 . S
C1982 C1981 1.387 . S
C1982 C1985 1.387 . S
H1983 C1979 0.950 . S
H1984 C1981 0.950 . S
C1985 C1976 1.390 . S
C1985 H1978 0.950 . S
C1985 C1982 1.387 . S
C1986 C1987 1.387 . S
C1986 H1990 0.950 . S
C1986 C1995 1.390 . S
C1987 C1986 1.387 . S
C1987 C1989 1.387 . S
H1988 C1995 0.950 . S
C1989 C1987 1.387 . S
C1989 C1991 1.390 . S
C1989 H1993 0.950 . S
H1990 C1986 0.950 . S
C1991 C1989 1.390 . S
C1991 C1992 1.387 . S
C1991 H1994 0.950 . S
C1992 C1991 1.387 . S
C1992 C1995 1.387 . S
H1993 C1989 0.950 . S
H1994 C1991 0.950 . S
C1995 C1986 1.390 . S
C1995 H1988 0.950 . S
C1995 C1992 1.387 . S
C1996 C1997 1.387 . S
C1996 H2000 0.950 . S
C1996 C2005 1.390 . S
C1997 C1996 1.387 . S
C1997 C1999 1.387 . S
H1998 C2005 0.950 . S
C1999 C1997 1.387 . S
C1999 C2001 1.390 . S
C1999 H2003 0.950 . S
H2000 C1996 0.950 . S
C2001 C1999 1.390 . S
C2001 C2002 1.387 . S
C2001 H2004 0.950 . S
C2002 C2001 1.387 . S
C2002 C2005 1.387 . S
H2003 C1999 0.950 . S
H2004 C2001 0.950 . S
C2005 C1996 1.390 . S
C2005 H1998 0.950 . S
C2005 C2002 1.387 . S
C2006 C2007 1.387 . S
C2006 H2010 0.950 . S
C2006 C2015 1.390 . S
C2007 C2006 1.387 . S
C2007 C2009 1.387 . S
H2008 C2015 0.950 . S
C2009 C2007 1.387 . S
C2009 C2011 1.390 . S
C2009 H2013 0.950 . S
H2010 C2006 0.950 . S
C2011 C2009 1.390 . S
C2011 C2012 1.387 . S
C2011 H2014 0.950 . S
C2012 C2011 1.387 . S
C2012 C2015 1.387 . S
H2013 C2009 0.950 . S
H2014 C2011 0.950 . S
C2015 C2006 1.390 . S
C2015 H2008 0.950 . S
C2015 C2012 1.387 . S
C2016 C2017 1.387 . S
C2016 H2020 0.950 . S
C2016 C2025 1.390 . S
C2017 C2016 1.387 . S
C2017 C2019 1.387 . S
H2018 C2025 0.950 . S
C2019 C2017 1.387 . S
C2019 C2021 1.390 . S
C2019 H2023 0.950 . S
H2020 C2016 0.950 . S
C2021 C2019 1.390 . S
C2021 C2022 1.387 . S
C2021 H2024 0.950 . S
C2022 C2021 1.387 . S
C2022 C2025 1.387 . S
H2023 C2019 0.950 . S
H2024 C2021 0.950 . S
C2025 C2016 1.390 . S
C2025 H2018 0.950 . S
C2025 C2022 1.387 . S
C2026 C2027 1.387 . S
C2026 H2030 0.950 . S
C2026 C2035 1.390 . S
C2027 C2026 1.387 . S
C2027 C2029 1.387 . S
H2028 C2035 0.950 . S
C2029 C2027 1.387 . S
C2029 C2031 1.390 . S
C2029 H2033 0.950 . S
H2030 C2026 0.950 . S
C2031 C2029 1.390 . S
C2031 C2032 1.387 . S
C2031 H2034 0.950 . S
C2032 C2031 1.387 . S
C2032 C2035 1.387 . S
H2033 C2029 0.950 . S
H2034 C2031 0.950 . S
C2035 C2026 1.390 . S
C2035 H2028 0.950 . S
C2035 C2032 1.387 . S
C2036 C2037 1.387 . S
C2036 H2040 0.950 . S
C2036 C2045 1.390 . S
C2037 C2036 1.387 . S
C2037 C2039 1.387 . S
H2038 C2045 0.950 . S
C2039 C2037 1.387 . S
C2039 C2041 1.390 . S
C2039 H2043 0.950 . S
H2040 C2036 0.950 . S
C2041 C2039 1.390 . S
C2041 C2042 1.387 . S
C2041 H2044 0.950 . S
C2042 C2041 1.387 . S
C2042 C2045 1.387 . S
H2043 C2039 0.950 . S
H2044 C2041 0.950 . S
C2045 C2036 1.390 . S
C2045 H2038 0.950 . S
C2045 C2042 1.387 . S
C2046 C2047 1.387 . S
C2046 H2050 0.950 . S
C2046 C2055 1.390 . S
C2047 C2046 1.387 . S
C2047 C2049 1.387 . S
H2048 C2055 0.950 . S
C2049 C2047 1.387 . S
C2049 C2051 1.390 . S
C2049 H2053 0.950 . S
H2050 C2046 0.950 . S
C2051 C2049 1.390 . S
C2051 C2052 1.387 . S
C2051 H2054 0.950 . S
C2052 C2051 1.387 . S
C2052 C2055 1.387 . S
H2053 C2049 0.950 . S
H2054 C2051 0.950 . S
C2055 C2046 1.390 . S
C2055 H2048 0.950 . S
C2055 C2052 1.387 . S
C2056 C2057 1.387 . S
C2056 H2060 0.950 . S
C2056 C2065 1.390 . S
C2057 C2056 1.387 . S
C2057 C2059 1.387 . S
H2058 C2065 0.950 . S
C2059 C2057 1.387 . S
C2059 C2061 1.390 . S
C2059 H2063 0.950 . S
H2060 C2056 0.950 . S
C2061 C2059 1.390 . S
C2061 C2062 1.387 . S
C2061 H2064 0.950 . S
C2062 C2061 1.387 . S
C2062 C2065 1.387 . S
H2063 C2059 0.950 . S
H2064 C2061 0.950 . S
C2065 C2056 1.390 . S
C2065 H2058 0.950 . S
C2065 C2062 1.387 . S
C2066 C2067 1.387 . S
C2066 H2070 0.950 . S
C2066 C2075 1.390 . S
C2067 C2066 1.387 . S
C2067 C2069 1.387 . S
H2068 C2075 0.950 . S
C2069 C2067 1.387 . S
C2069 C2071 1.390 . S
C2069 H2073 0.950 . S
H2070 C2066 0.950 . S
C2071 C2069 1.390 . S
C2071 C2072 1.387 . S
C2071 H2074 0.950 . S
C2072 C2071 1.387 . S
C2072 C2075 1.387 . S
H2073 C2069 0.950 . S
H2074 C2071 0.950 . S
C2075 C2066 1.390 . S
C2075 H2068 0.950 . S
C2075 C2072 1.387 . S
C2076 C2077 1.387 . S
C2076 H2080 0.950 . S
C2076 C2085 1.390 . S
C2077 C2076 1.387 . S
C2077 C2079 1.387 . S
H2078 C2085 0.950 . S
C2079 C2077 1.387 . S
C2079 C2081 1.390 . S
C2079 H2083 0.950 . S
H2080 C2076 0.950 . S
C2081 C2079 1.390 . S
C2081 C2082 1.387 . S
C2081 H2084 0.950 . S
C2082 C2081 1.387 . S
C2082 C2085 1.387 . S
H2083 C2079 0.950 . S
H2084 C2081 0.950 . S
C2085 C2076 1.390 . S
C2085 H2078 0.950 . S
C2085 C2082 1.387 . S
C2086 C2087 1.387 . S
C2086 H2090 0.950 . S
C2086 C2095 1.390 . S
C2087 C2086 1.387 . S
C2087 C2089 1.387 . S
H2088 C2095 0.950 . S
C2089 C2087 1.387 . S
C2089 C2091 1.390 . S
C2089 H2093 0.950 . S
H2090 C2086 0.950 . S
C2091 C2089 1.390 . S
C2091 C2092 1.387 . S
C2091 H2094 0.950 . S
C2092 C2091 1.387 . S
C2092 C2095 1.387 . S
H2093 C2089 0.950 . S
H2094 C2091 0.950 . S
C2095 C2086 1.390 . S
C2095 H2088 0.950 . S
C2095 C2092 1.387 . S
C2096 C2097 1.387 . S
C2096 H2100 0.950 . S
C2096 C2105 1.390 . S
C2097 C2096 1.387 . S
C2097 C2099 1.387 . S
H2098 C2105 0.950 . S
C2099 C2097 1.387 . S
C2099 C2101 1.390 . S
C2099 H2103 0.950 . S
H2100 C2096 0.950 . S
C2101 C2099 1.390 . S
C2101 C2102 1.387 . S
C2101 H2104 0.950 . S
C2102 C2101 1.387 . S
C2102 C2105 1.387 . S
H2103 C2099 0.950 . S
H2104 C2101 0.950 . S
C2105 C2096 1.390 . S
C2105 H2098 0.950 . S
C2105 C2102 1.387 . S
C2106 C2107 1.387 . S
C2106 H2110 0.950 . S
C2106 C2115 1.390 . S
C2107 C2106 1.387 . S
C2107 C2109 1.387 . S
H2108 C2115 0.950 . S
C2109 C2107 1.387 . S
C2109 C2111 1.390 . S
C2109 H2113 0.950 . S
H2110 C2106 0.950 . S
C2111 C2109 1.390 . S
C2111 C2112 1.387 . S
C2111 H2114 0.950 . S
C2112 C2111 1.387 . S
C2112 C2115 1.387 . S
H2113 C2109 0.950 . S
H2114 C2111 0.950 . S
C2115 C2106 1.390 . S
C2115 H2108 0.950 . S
C2115 C2112 1.387 . S
C2116 C2117 1.387 . S
C2116 H2120 0.950 . S
C2116 C2125 1.390 . S
C2117 C2116 1.387 . S
C2117 C2119 1.387 . S
H2118 C2125 0.950 . S
C2119 C2117 1.387 . S
C2119 C2121 1.390 . S
C2119 H2123 0.950 . S
H2120 C2116 0.950 . S
C2121 C2119 1.390 . S
C2121 C2122 1.387 . S
C2121 H2124 0.950 . S
C2122 C2121 1.387 . S
C2122 C2125 1.387 . S
H2123 C2119 0.950 . S
H2124 C2121 0.950 . S
C2125 C2116 1.390 . S
C2125 H2118 0.950 . S
C2125 C2122 1.387 . S
C2126 C2127 1.387 . S
C2126 H2130 0.950 . S
C2126 C2135 1.390 . S
C2127 C2126 1.387 . S
C2127 C2129 1.387 . S
H2128 C2135 0.950 . S
C2129 C2127 1.387 . S
C2129 C2131 1.390 . S
C2129 H2133 0.950 . S
H2130 C2126 0.950 . S
C2131 C2129 1.390 . S
C2131 C2132 1.387 . S
C2131 H2134 0.950 . S
C2132 C2131 1.387 . S
C2132 C2135 1.387 . S
H2133 C2129 0.950 . S
H2134 C2131 0.950 . S
C2135 C2126 1.390 . S
C2135 H2128 0.950 . S
C2135 C2132 1.387 . S
C2136 C2137 1.387 . S
C2136 H2140 0.950 . S
C2136 C2145 1.390 . S
C2137 C2136 1.387 . S
C2137 C2139 1.387 . S
H2138 C2145 0.950 . S
C2139 C2137 1.387 . S
C2139 C2141 1.390 . S
C2139 H2143 0.950 . S
H2140 C2136 0.950 . S
C2141 C2139 1.390 . S
C2141 C2142 1.387 . S
C2141 H2144 0.950 . S
C2142 C2141 1.387 . S
C2142 C2145 1.387 . S
H2143 C2139 0.950 . S
H2144 C2141 0.950 . S
C2145 C2136 1.390 . S
C2145 H2138 0.950 . S
C2145 C2142 1.387 . S
C2146 C2147 1.387 . S
C2146 H2150 0.950 . S
C2146 C2155 1.390 . S
C2147 C2146 1.387 . S
C2147 C2149 1.387 . S
H2148 C2155 0.950 . S
C2149 C2147 1.387 . S
C2149 C2151 1.390 . S
C2149 H2153 0.950 . S
H2150 C2146 0.950 . S
C2151 C2149 1.390 . S
C2151 C2152 1.387 . S
C2151 H2154 0.950 . S
C2152 C2151 1.387 . S
C2152 C2155 1.387 . S
H2153 C2149 0.950 . S
H2154 C2151 0.950 . S
C2155 C2146 1.390 . S
C2155 H2148 0.950 . S
C2155 C2152 1.387 . S
C2156 C2157 1.387 . S
C2156 H2160 0.950 . S
C2156 C2165 1.390 . S
C2157 C2156 1.387 . S
C2157 C2159 1.387 . S
H2158 C2165 0.950 . S
C2159 C2157 1.387 . S
C2159 C2161 1.390 . S
C2159 H2163 0.950 . S
H2160 C2156 0.950 . S
C2161 C2159 1.390 . S
C2161 C2162 1.387 . S
C2161 H2164 0.950 . S
C2162 C2161 1.387 . S
C2162 C2165 1.387 . S
H2163 C2159 0.950 . S
H2164 C2161 0.950 . S
C2165 C2156 1.390 . S
C2165 H2158 0.950 . S
C2165 C2162 1.387 . S
C2166 C2167 1.387 . S
C2166 H2170 0.950 . S
C2166 C2175 1.390 . S
C2167 C2166 1.387 . S
C2167 C2169 1.387 . S
H2168 C2175 0.950 . S
C2169 C2167 1.387 . S
C2169 C2171 1.390 . S
C2169 H2173 0.950 . S
H2170 C2166 0.950 . S
C2171 C2169 1.390 . S
C2171 C2172 1.387 . S
C2171 H2174 0.950 . S
C2172 C2171 1.387 . S
C2172 C2175 1.387 . S
H2173 C2169 0.950 . S
H2174 C2171 0.950 . S
C2175 C2166 1.390 . S
C2175 H2168 0.950 . S
C2175 C2172 1.387 . S
C2176 C2177 1.387 . S
C2176 H2180 0.950 . S
C2176 C2185 1.390 . S
C2177 C2176 1.387 . S
C2177 C2179 1.387 . S
H2178 C2185 0.950 . S
C2179 C2177 1.387 . S
C2179 C2181 1.390 . S
C2179 H2183 0.950 . S
H2180 C2176 0.950 . S
C2181 C2179 1.390 . S
C2181 C2182 1.387 . S
C2181 H2184 0.950 . S
C2182 C2181 1.387 . S
C2182 C2185 1.387 . S
H2183 C2179 0.950 . S
H2184 C2181 0.950 . S
C2185 C2176 1.390 . S
C2185 H2178 0.950 . S
C2185 C2182 1.387 . S
C2186 C2187 1.387 . S
C2186 H2190 0.950 . S
C2186 C2195 1.390 . S
C2187 C2186 1.387 . S
C2187 C2189 1.387 . S
H2188 C2195 0.950 . S
C2189 C2187 1.387 . S
C2189 C2191 1.390 . S
C2189 H2193 0.950 . S
H2190 C2186 0.950 . S
C2191 C2189 1.390 . S
C2191 C2192 1.387 . S
C2191 H2194 0.950 . S
C2192 C2191 1.387 . S
C2192 C2195 1.387 . S
H2193 C2189 0.950 . S
H2194 C2191 0.950 . S
C2195 C2186 1.390 . S
C2195 H2188 0.950 . S
C2195 C2192 1.387 . S
C2196 C2197 1.387 . S
C2196 H2200 0.950 . S
C2196 C2205 1.390 . S
C2197 C2196 1.387 . S
C2197 C2199 1.387 . S
H2198 C2205 0.950 . S
C2199 C2197 1.387 . S
C2199 C2201 1.390 . S
C2199 H2203 0.950 . S
H2200 C2196 0.950 . S
C2201 C2199 1.390 . S
C2201 C2202 1.387 . S
C2201 H2204 0.950 . S
C2202 C2201 1.387 . S
C2202 C2205 1.387 . S
H2203 C2199 0.950 . S
H2204 C2201 0.950 . S
C2205 C2196 1.390 . S
C2205 H2198 0.950 . S
C2205 C2202 1.387 . S
C2206 C2207 1.387 . S
C2206 H2210 0.950 . S
C2206 C2215 1.390 . S
C2207 C2206 1.387 . S
C2207 C2209 1.387 . S
H2208 C2215 0.950 . S
C2209 C2207 1.387 . S
C2209 C2211 1.390 . S
C2209 H2213 0.950 . S
H2210 C2206 0.950 . S
C2211 C2209 1.390 . S
C2211 C2212 1.387 . S
C2211 H2214 0.950 . S
C2212 C2211 1.387 . S
C2212 C2215 1.387 . S
H2213 C2209 0.950 . S
H2214 C2211 0.950 . S
C2215 C2206 1.390 . S
C2215 H2208 0.950 . S
C2215 C2212 1.387 . S
C2216 C2217 1.387 . S
C2216 H2220 0.950 . S
C2216 C2225 1.390 . S
C2217 C2216 1.387 . S
C2217 C2219 1.387 . S
H2218 C2225 0.950 . S
C2219 C2217 1.387 . S
C2219 C2221 1.390 . S
C2219 H2223 0.950 . S
H2220 C2216 0.950 . S
C2221 C2219 1.390 . S
C2221 C2222 1.387 . S
C2221 H2224 0.950 . S
C2222 C2221 1.387 . S
C2222 C2225 1.387 . S
H2223 C2219 0.950 . S
H2224 C2221 0.950 . S
C2225 C2216 1.390 . S
C2225 H2218 0.950 . S
C2225 C2222 1.387 . S
C2226 C2227 1.387 . S
C2226 H2230 0.950 . S
C2226 C2235 1.390 . S
C2227 C2226 1.387 . S
C2227 C2229 1.387 . S
H2228 C2235 0.950 . S
C2229 C2227 1.387 . S
C2229 C2231 1.390 . S
C2229 H2233 0.950 . S
H2230 C2226 0.950 . S
C2231 C2229 1.390 . S
C2231 C2232 1.387 . S
C2231 H2234 0.950 . S
C2232 C2231 1.387 . S
C2232 C2235 1.387 . S
H2233 C2229 0.950 . S
H2234 C2231 0.950 . S
C2235 C2226 1.390 . S
C2235 H2228 0.950 . S
C2235 C2232 1.387 . S
C2236 C2237 1.387 . S
C2236 H2240 0.950 . S
C2236 C2245 1.390 . S
C2237 C2236 1.387 . S
C2237 C2239 1.387 . S
H2238 C2245 0.950 . S
C2239 C2237 1.387 . S
C2239 C2241 1.390 . S
C2239 H2243 0.950 . S
H2240 C2236 0.950 . S
C2241 C2239 1.390 . S
C2241 C2242 1.387 . S
C2241 H2244 0.950 . S
C2242 C2241 1.387 . S
C2242 C2245 1.387 . S
H2243 C2239 0.950 . S
H2244 C2241 0.950 . S
C2245 C2236 1.390 . S
C2245 H2238 0.950 . S
C2245 C2242 1.387 . S
C2246 C2247 1.387 . S
C2246 H2250 0.950 . S
C2246 C2255 1.390 . S
C2247 C2246 1.387 . S
C2247 C2249 1.387 . S
H2248 C2255 0.950 . S
C2249 C2247 1.387 . S
C2249 C2251 1.390 . S
C2249 H2253 0.950 . S
H2250 C2246 0.950 . S
C2251 C2249 1.390 . S
C2251 C2252 1.387 . S
C2251 H2254 0.950 . S
C2252 C2251 1.387 . S
C2252 C2255 1.387 . S
H2253 C2249 0.950 . S
H2254 C2251 0.950 . S
C2255 C2246 1.390 . S
C2255 H2248 0.950 . S
C2255 C2252 1.387 . S
C2256 C2257 1.387 . S
C2256 H2260 0.950 . S
C2256 C2265 1.390 . S
C2257 C2256 1.387 . S
C2257 C2259 1.387 . S
H2258 C2265 0.950 . S
C2259 C2257 1.387 . S
C2259 C2261 1.390 . S
C2259 H2263 0.950 . S
H2260 C2256 0.950 . S
C2261 C2259 1.390 . S
C2261 C2262 1.387 . S
C2261 H2264 0.950 . S
C2262 C2261 1.387 . S
C2262 C2265 1.387 . S
H2263 C2259 0.950 . S
H2264 C2261 0.950 . S
C2265 C2256 1.390 . S
C2265 H2258 0.950 . S
C2265 C2262 1.387 . S
C2266 C2267 1.387 . S
C2266 H2270 0.950 . S
C2266 C2275 1.390 . S
C2267 C2266 1.387 . S
C2267 C2269 1.387 . S
H2268 C2275 0.950 . S
C2269 C2267 1.387 . S
C2269 C2271 1.390 . S
C2269 H2273 0.950 . S
H2270 C2266 0.950 . S
C2271 C2269 1.390 . S
C2271 C2272 1.387 . S
C2271 H2274 0.950 . S
C2272 C2271 1.387 . S
C2272 C2275 1.387 . S
H2273 C2269 0.950 . S
H2274 C2271 0.950 . S
C2275 C2266 1.390 . S
C2275 H2268 0.950 . S
C2275 C2272 1.387 . S
C2276 C2277 1.387 . S
C2276 H2280 0.950 . S
C2276 C2285 1.390 . S
C2277 C2276 1.387 . S
C2277 C2279 1.387 . S
H2278 C2285 0.950 . S
C2279 C2277 1.387 . S
C2279 C2281 1.390 . S
C2279 H2283 0.950 . S
H2280 C2276 0.950 . S
C2281 C2279 1.390 . S
C2281 C2282 1.387 . S
C2281 H2284 0.950 . S
C2282 C2281 1.387 . S
C2282 C2285 1.387 . S
H2283 C2279 0.950 . S
H2284 C2281 0.950 . S
C2285 C2276 1.390 . S
C2285 H2278 0.950 . S
C2285 C2282 1.387 . S
C2286 C2287 1.387 . S
C2286 H2290 0.950 . S
C2286 C2295 1.390 . S
C2287 C2286 1.387 . S
C2287 C2289 1.387 . S
H2288 C2295 0.950 . S
C2289 C2287 1.387 . S
C2289 C2291 1.390 . S
C2289 H2293 0.950 . S
H2290 C2286 0.950 . S
C2291 C2289 1.390 . S
C2291 C2292 1.387 . S
C2291 H2294 0.950 . S
C2292 C2291 1.387 . S
C2292 C2295 1.387 . S
H2293 C2289 0.950 . S
H2294 C2291 0.950 . S
C2295 C2286 1.390 . S
C2295 H2288 0.950 . S
C2295 C2292 1.387 . S
C2296 C2297 1.387 . S
C2296 H2300 0.950 . S
C2296 C2305 1.390 . S
C2297 C2296 1.387 . S
C2297 C2299 1.387 . S
H2298 C2305 0.950 . S
C2299 C2297 1.387 . S
C2299 C2301 1.390 . S
C2299 H2303 0.950 . S
H2300 C2296 0.950 . S
C2301 C2299 1.390 . S
C2301 C2302 1.387 . S
C2301 H2304 0.950 . S
C2302 C2301 1.387 . S
C2302 C2305 1.387 . S
H2303 C2299 0.950 . S
H2304 C2301 0.950 . S
C2305 C2296 1.390 . S
C2305 H2298 0.950 . S
C2305 C2302 1.387 . S
C2306 C2307 1.387 . S
C2306 H2310 0.950 . S
C2306 C2315 1.390 . S
C2307 C2306 1.387 . S
C2307 C2309 1.387 . S
H2308 C2315 0.950 . S
C2309 C2307 1.387 . S
C2309 C2311 1.390 . S
C2309 H2313 0.950 . S
H2310 C2306 0.950 . S
C2311 C2309 1.390 . S
C2311 C2312 1.387 . S
C2311 H2314 0.950 . S
C2312 C2311 1.387 . S
C2312 C2315 1.387 . S
H2313 C2309 0.950 . S
H2314 C2311 0.950 . S
C2315 C2306 1.390 . S
C2315 H2308 0.950 . S
C2315 C2312 1.387 . S
C2316 C2317 1.387 . S
C2316 H2320 0.950 . S
C2316 C2325 1.390 . S
C2317 C2316 1.387 . S
C2317 C2319 1.387 . S
H2318 C2325 0.950 . S
C2319 C2317 1.387 . S
C2319 C2321 1.390 . S
C2319 H2323 0.950 . S
H2320 C2316 0.950 . S
C2321 C2319 1.390 . S
C2321 C2322 1.387 . S
C2321 H2324 0.950 . S
C2322 C2321 1.387 . S
C2322 C2325 1.387 . S
H2323 C2319 0.950 . S
H2324 C2321 0.950 . S
C2325 C2316 1.390 . S
C2325 H2318 0.950 . S
C2325 C2322 1.387 . S
C2326 C2327 1.387 . S
C2326 H2330 0.950 . S
C2326 C2335 1.390 . S
C2327 C2326 1.387 . S
C2327 C2329 1.387 . S
H2328 C2335 0.950 . S
C2329 C2327 1.387 . S
C2329 C2331 1.390 . S
C2329 H2333 0.950 . S
H2330 C2326 0.950 . S
C2331 C2329 1.390 . S
C2331 C2332 1.387 . S
C2331 H2334 0.950 . S
C2332 C2331 1.387 . S
C2332 C2335 1.387 . S
H2333 C2329 0.950 . S
H2334 C2331 0.950 . S
C2335 C2326 1.390 . S
C2335 H2328 0.950 . S
C2335 C2332 1.387 . S
C2336 C2337 1.387 . S
C2336 H2340 0.950 . S
C2336 C2345 1.390 . S
C2337 C2336 1.387 . S
C2337 C2339 1.387 . S
H2338 C2345 0.950 . S
C2339 C2337 1.387 . S
C2339 C2341 1.390 . S
C2339 H2343 0.950 . S
H2340 C2336 0.950 . S
C2341 C2339 1.390 . S
C2341 C2342 1.387 . S
C2341 H2344 0.950 . S
C2342 C2341 1.387 . S
C2342 C2345 1.387 . S
H2343 C2339 0.950 . S
H2344 C2341 0.950 . S
C2345 C2336 1.390 . S
C2345 H2338 0.950 . S
C2345 C2342 1.387 . S
C2346 C2347 1.387 . S
C2346 H2350 0.950 . S
C2346 C2355 1.390 . S
C2347 C2346 1.387 . S
C2347 C2349 1.387 . S
H2348 C2355 0.950 . S
C2349 C2347 1.387 . S
C2349 C2351 1.390 . S
C2349 H2353 0.950 . S
H2350 C2346 0.950 . S
C2351 C2349 1.390 . S
C2351 C2352 1.387 . S
C2351 H2354 0.950 . S
C2352 C2351 1.387 . S
C2352 C2355 1.387 . S
H2353 C2349 0.950 . S
H2354 C2351 0.950 . S
C2355 C2346 1.390 . S
C2355 H2348 0.950 . S
C2355 C2352 1.387 . S
C2356 C2357 1.387 . S
C2356 H2360 0.950 . S
C2356 C2365 1.390 . S
C2357 C2356 1.387 . S
C2357 C2359 1.387 . S
H2358 C2365 0.950 . S
C2359 C2357 1.387 . S
C2359 C2361 1.390 . S
C2359 H2363 0.950 . S
H2360 C2356 0.950 . S
C2361 C2359 1.390 . S
C2361 C2362 1.387 . S
C2361 H2364 0.950 . S
C2362 C2361 1.387 . S
C2362 C2365 1.387 . S
H2363 C2359 0.950 . S
H2364 C2361 0.950 . S
C2365 C2356 1.390 . S
C2365 H2358 0.950 . S
C2365 C2362 1.387 . S
C2366 C2367 1.387 . S
C2366 H2370 0.950 . S
C2366 C2375 1.390 . S
C2367 C2366 1.387 . S
C2367 C2369 1.387 . S
H2368 C2375 0.950 . S
C2369 C2367 1.387 . S
C2369 C2371 1.390 . S
C2369 H2373 0.950 . S
H2370 C2366 0.950 . S
C2371 C2369 1.390 . S
C2371 C2372 1.387 . S
C2371 H2374 0.950 . S
C2372 C2371 1.387 . S
C2372 C2375 1.387 . S
H2373 C2369 0.950 . S
H2374 C2371 0.950 . S
C2375 C2366 1.390 . S
C2375 H2368 0.950 . S
C2375 C2372 1.387 . S
C1837 C781 1.471 . S
C1842 C1147 1.406 . S
C1847 C871 1.461 . S
C1852 C1231 1.421 . S
C1857 C751 1.477 . S
C1862 C1311 1.457 . S
C1867 C691 1.435 . S
C1872 C1227 1.419 . S
C1882 C1315 1.359 . S
C1877 C571 1.402 . S
C1887 C601 1.457 . S
C1892 C1143 1.403 . S
C1902 C1136 1.404 . S
C1897 C661 1.428 . S
C1912 C1220 1.420 . S
C1907 C541 1.446 . S
C1917 C631 1.527 . S
C1922 C1322 1.460 . S
C1927 C811 1.475 . S
C1932 C1238 1.418 . S
C1937 C841 1.396 . S
C1942 C1304 1.363 . S
C1952 C1154 1.405 . S
C1947 C721 1.407 . S
C1962 C1399 1.405 . S
C1957 C61 1.472 1_455 S
C1967 C151 1.461 . S
C1972 C1483 1.423 . S
C1977 C31 1.475 1_565 S
C1982 C1563 1.456 . S
C1987 C1051 1.436 . S
C1992 C1479 1.420 . S
C1997 C931 1.405 . S
C2002 C1567 1.363 . S
C2007 C961 1.456 . S
C2012 C1395 1.405 . S
C2017 C1021 1.429 . S
C2022 C1388 1.403 . S
C2027 C901 1.446 . S
C2032 C1472 1.419 . S
C2042 C1574 1.457 . S
C2037 C991 1.525 . S
C2047 C91 1.474 1_565 S
C2052 C1490 1.417 . S
C2062 C1556 1.359 . S
C2057 C121 1.386 1_455 S
C2067 C1 1.406 . S
C2072 C1406 1.405 . S
C2082 C1651 1.406 . S
C2077 C421 1.471 . S
C2087 C511 1.459 . S
C2092 C1735 1.419 . S
C2102 C1815 1.459 . S
C2097 C391 1.477 . S
C2112 C1731 1.417 . S
C2107 C331 1.436 1_545 S
C2122 C1819 1.359 . S
C2117 C211 1.402 1_655 S
C2127 C241 1.457 . S
C2132 C1647 1.405 . S
C2137 C301 1.431 1_655 S
C2142 C1640 1.405 . S
C2147 C181 1.445 . S
C2152 C1724 1.423 . S
C2162 C1826 1.459 . S
C2157 C271 1.526 1_545 S
C2167 C451 1.475 . S
C2172 C1742 1.419 . S
C2177 C481 1.395 . S
C2182 C1808 1.360 . S
C2187 C361 1.409 . S
C2192 C1658 1.409 . S
C2197 C920 1.461 . S
C2202 C1150 1.381 . S
C2212 C1234 1.366 . S
C2207 C980 1.504 . S
C2217 C1040 1.469 . S
C2222 C1306 1.364 . S
C2227 C380 1.490 . S
C2232 C1222 1.366 . S
C2237 C440 1.471 . S
C2242 C1318 1.365 . S
C2252 C1138 1.376 . S
C2247 C500 1.465 . S
C2257 C200 1.461 . S
C2262 C1402 1.375 . S
C2267 C260 1.503 . S
C2272 C1486 1.369 . S
C2277 C320 1.470 . S
C2282 C1558 1.364 . S
C2287 C740 1.491 . S
C2292 C1474 1.367 . S
C2302 C1570 1.361 . S
C2297 C800 1.472 . S
C2307 C860 1.466 . S
C2312 C1390 1.375 . S
C2317 C560 1.461 . S
C2322 C1654 1.376 . S
C2327 C620 1.503 . S
C2332 C1738 1.369 . S
C2342 C1810 1.361 . S
C2337 C680 1.469 . S
C2347 C20 1.491 . S
C2352 C1726 1.369 . S
C2357 C80 1.470 . S
C2362 C1822 1.364 . S
C2367 C140 1.466 . S
C2372 C1642 1.375 . S
