# Generated by pormake.
# Topology pyr, (3,6)-cn, num edge types: 1
# Building blocks:
#     Node 0, Type 0, BuildingBlock: VETTIZ_charged_linker_0, # of connection points: 3
#     Node 1, Type 0, BuildingBlock: VETTIZ_charged_linker_0, # of connection points: 3
#     Node 2, Type 0, BuildingBlock: VETTIZ_charged_linker_0, # of connection points: 3
#     Node 3, Type 0, BuildingBlock: VETTIZ_charged_linker_0, # of connection points: 3
#     Node 4, Type 0, BuildingBlock: VETTIZ_charged_linker_0, # of connection points: 3
#     Node 5, Type 0, BuildingBlock: VETTIZ_charged_linker_0, # of connection points: 3
#     Node 6, Type 0, BuildingBlock: VETTIZ_charged_linker_0, # of connection points: 3
#     Node 7, Type 0, BuildingBlock: VETTIZ_charged_linker_0, # of connection points: 3
#     Node 8, Type 1, BuildingBlock: BETFAJ_clean_sbu_0, # of connection points: 6
#     Node 9, Type 1, BuildingBlock: BETFAJ_clean_sbu_0, # of connection points: 6
#     Node 10, Type 1, BuildingBlock: BETFAJ_clean_sbu_0, # of connection points: 6
#     Node 11, Type 1, BuildingBlock: BETFAJ_clean_sbu_0, # of connection points: 6
#     Edge 12, Type (0, 1), BuildingBlock: AJUNOK_clean_linker_0, # of connection points: 2
#     Edge 13, Type (0, 1), BuildingBlock: AJUNOK_clean_linker_0, # of connection points: 2
#     Edge 14, Type (0, 1), BuildingBlock: AJUNOK_clean_linker_0, # of connection points: 2
#     Edge 15, Type (0, 1), BuildingBlock: AJUNOK_clean_linker_0, # of connection points: 2
#     Edge 16, Type (0, 1), BuildingBlock: AJUNOK_clean_linker_0, # of connection points: 2
#     Edge 17, Type (0, 1), BuildingBlock: AJUNOK_clean_linker_0, # of connection points: 2
#     Edge 18, Type (0, 1), BuildingBlock: AJUNOK_clean_linker_0, # of connection points: 2
#     Edge 19, Type (0, 1), BuildingBlock: AJUNOK_clean_linker_0, # of connection points: 2
#     Edge 20, Type (0, 1), BuildingBlock: AJUNOK_clean_linker_0, # of connection points: 2
#     Edge 21, Type (0, 1), BuildingBlock: AJUNOK_clean_linker_0, # of connection points: 2
#     Edge 22, Type (0, 1), BuildingBlock: AJUNOK_clean_linker_0, # of connection points: 2
#     Edge 23, Type (0, 1), BuildingBlock: AJUNOK_clean_linker_0, # of connection points: 2
#     Edge 24, Type (0, 1), BuildingBlock: AJUNOK_clean_linker_0, # of connection points: 2
#     Edge 25, Type (0, 1), BuildingBlock: AJUNOK_clean_linker_0, # of connection points: 2
#     Edge 26, Type (0, 1), BuildingBlock: AJUNOK_clean_linker_0, # of connection points: 2
#     Edge 27, Type (0, 1), BuildingBlock: AJUNOK_clean_linker_0, # of connection points: 2
#     Edge 28, Type (0, 1), BuildingBlock: AJUNOK_clean_linker_0, # of connection points: 2
#     Edge 29, Type (0, 1), BuildingBlock: AJUNOK_clean_linker_0, # of connection points: 2
#     Edge 30, Type (0, 1), BuildingBlock: AJUNOK_clean_linker_0, # of connection points: 2
#     Edge 31, Type (0, 1), BuildingBlock: AJUNOK_clean_linker_0, # of connection points: 2
#     Edge 32, Type (0, 1), BuildingBlock: AJUNOK_clean_linker_0, # of connection points: 2
#     Edge 33, Type (0, 1), BuildingBlock: AJUNOK_clean_linker_0, # of connection points: 2
#     Edge 34, Type (0, 1), BuildingBlock: AJUNOK_clean_linker_0, # of connection points: 2
#     Edge 35, Type (0, 1), BuildingBlock: AJUNOK_clean_linker_0, # of connection points: 2
# Relax obj value: 0.135
# Max RMSD: 0.130
# Mean RMSD: 0.064
data_MOF--net-pyr--node1-BETFAJ_clean_sbu_0--node2-VETTIZ_charged_linker_0--edge1-AJUNOK_clean_linker_0
_symmetry_space_group_name_H-M    P1
_symmetry_Int_Tables_number       1
_symmetry_cell_setting            triclinic
loop_
_symmetry_equiv_pos_as_xyz
'x, y, z'
_cell_length_a     36.155816
_cell_length_b     38.856074
_cell_length_c     36.085297
_cell_angle_alpha  91.276505
_cell_angle_beta   88.661079
_cell_angle_gamma 100.0852
loop_
_atom_site_label
_atom_site_type_symbol
_atom_site_fract_x
_atom_site_fract_y
_atom_site_fract_z
_atom_type_partial_charge
C0 C 0.30822 0.2461 0.35633 0.0
C1 C 0.27662 0.25888 0.37088 0.0
C2 C 0.26779 0.28971 0.3562 0.0
C3 C 0.31367 0.28777 0.30679 0.0
C4 C 0.32572 0.26029 0.32365 0.0
C5 C 0.35342 0.24475 0.29948 0.0
H6 H 0.41154 0.21053 0.12669 0.0
C7 C 0.3292 0.29014 0.2686 0.0
C8 C 0.35283 0.26529 0.26407 0.0
H9 H 0.44714 0.17354 0.2298 0.0
H10 H 0.41435 0.21354 0.26422 0.0
H11 H 0.42637 0.29412 0.15422 0.0
H12 H 0.32637 0.21489 0.15175 0.0
H13 H 0.31601 0.25395 0.13421 0.0
H14 H 0.35011 0.23255 0.11027 0.0
H15 H 0.40433 0.27839 0.11155 0.0
H16 H 0.38891 0.31305 0.1386 0.0
C17 C 0.39237 0.25249 0.31795 0.0
C18 C 0.33792 0.20524 0.29352 0.0
C19 C 0.26813 0.35866 0.17774 0.0
C20 C 0.26739 0.35921 0.13896 0.0
C21 C 0.29164 0.34114 0.11811 0.0
C22 C 0.31533 0.3218 0.13593 0.0
C23 C 0.31421 0.32014 0.17493 0.0
C24 C 0.29116 0.33886 0.19499 0.0
C25 C 0.29102 0.3325 0.23577 0.0
C26 C 0.31858 0.30735 0.23732 0.0
C27 C 0.33208 0.3 0.20169 0.0
C28 C 0.30639 0.36763 0.2557 0.0
C29 C 0.25036 0.31557 0.24807 0.0
C30 C 0.41216 0.21115 0.1567 0.0
C31 C 0.43142 0.18867 0.17571 0.0
C32 C 0.43246 0.19063 0.21468 0.0
C33 C 0.41322 0.21358 0.23457 0.0
C34 C 0.39226 0.23435 0.21535 0.0
C35 C 0.39325 0.23414 0.17707 0.0
C36 C 0.37134 0.26004 0.16168 0.0
C37 C 0.3565 0.27517 0.19711 0.0
C38 C 0.36793 0.25905 0.22835 0.0
C39 C 0.39891 0.28786 0.14009 0.0
C40 C 0.33932 0.23957 0.13799 0.0
H41 H 0.27764 0.32707 0.31389 0.0
H42 H 0.31632 0.22304 0.36773 0.0
H43 H 0.30788 0.20121 0.28563 0.0
H44 H 0.35263 0.19287 0.27131 0.0
H45 H 0.33987 0.19054 0.31924 0.0
H46 H 0.39435 0.27456 0.3384 0.0
H47 H 0.39821 0.22939 0.3329 0.0
H48 H 0.41542 0.26075 0.29752 0.0
H49 H 0.24925 0.37164 0.19453 0.0
H50 H 0.29175 0.34146 0.0881 0.0
H51 H 0.33275 0.30809 0.1187 0.0
H52 H 0.33067 0.38237 0.23992 0.0
H53 H 0.28448 0.38438 0.25827 0.0
H54 H 0.31716 0.36407 0.28353 0.0
H55 H 0.23182 0.3072 0.22416 0.0
H56 H 0.24967 0.29127 0.26372 0.0
H57 H 0.23657 0.33405 0.2651 0.0
H58 H 0.24373 0.30041 0.36642 0.0
C59 C 0.28681 0.30464 0.32474 0.0
C60 C 0.16777 0.89223 0.56497 0.0
C61 C 0.14675 0.90919 0.59064 0.0
C62 C 0.1509 0.90453 0.62882 0.0
C63 C 0.20467 0.87725 0.61507 0.0
C64 C 0.19635 0.87588 0.5779 0.0
C65 C 0.22306 0.85791 0.55504 0.0
H66 H 0.39209 0.80659 0.54628 0.0
C67 C 0.24147 0.86692 0.61879 0.0
C68 C 0.25221 0.85481 0.58391 0.0
H69 H 0.29924 0.77408 0.47309 0.0
H70 H 0.26283 0.81219 0.50695 0.0
H71 H 0.37963 0.89041 0.56358 0.0
H72 H 0.34705 0.78934 0.61215 0.0
H73 H 0.35666 0.81919 0.64925 0.0
H74 H 0.39358 0.81424 0.61621 0.0
H75 H 0.41153 0.86978 0.58895 0.0
H76 H 0.38199 0.89711 0.61178 0.0
C77 C 0.24 0.88154 0.52277 0.0
C78 C 0.20177 0.82163 0.5419 0.0
C79 C 0.31593 0.90644 0.73401 0.0
C80 C 0.35397 0.90856 0.74239 0.0
C81 C 0.37823 0.89574 0.71656 0.0
C82 C 0.36469 0.88106 0.68271 0.0
C83 C 0.32662 0.87957 0.6745 0.0
C84 C 0.30299 0.89229 0.69989 0.0
C85 C 0.26413 0.89095 0.68547 0.0
C86 C 0.26803 0.87418 0.64746 0.0
C87 C 0.30469 0.86788 0.64128 0.0
C88 C 0.25758 0.92922 0.68322 0.0
C89 C 0.2356 0.86757 0.71103 0.0
C90 C 0.36467 0.80912 0.53624 0.0
C91 C 0.34863 0.78801 0.50676 0.0
C92 C 0.31219 0.79059 0.49549 0.0
C93 C 0.29098 0.81203 0.51551 0.0
C94 C 0.30627 0.83021 0.54729 0.0
C95 C 0.34268 0.82874 0.55697 0.0
C96 C 0.35219 0.84424 0.59476 0.0
C97 C 0.31494 0.85379 0.60686 0.0
C98 C 0.28863 0.84668 0.57857 0.0
C99 C 0.38311 0.87698 0.58987 0.0
C100 C 0.36324 0.81557 0.61954 0.0
H101 H 0.18348 0.88753 0.67056 0.0
H102 H 0.16404 0.89394 0.53545 0.0
H103 H 0.17339 0.81487 0.55514 0.0
H104 H 0.21679 0.80021 0.54924 0.0
H105 H 0.19763 0.82068 0.51146 0.0
H106 H 0.25206 0.90814 0.53336 0.0
H107 H 0.21824 0.88406 0.50228 0.0
H108 H 0.26274 0.87112 0.50773 0.0
H109 H 0.2967 0.91608 0.75348 0.0
H110 H 0.40783 0.89776 0.72219 0.0
H111 H 0.38453 0.87185 0.66411 0.0
H112 H 0.28129 0.94544 0.66799 0.0
H113 H 0.25568 0.94094 0.71141 0.0
H114 H 0.23198 0.93211 0.66872 0.0
H115 H 0.24927 0.84908 0.72676 0.0
H116 H 0.21336 0.85066 0.69512 0.0
H117 H 0.2223 0.88357 0.73157 0.0
H118 H 0.13323 0.91518 0.64912 0.0
C119 C 0.17998 0.88862 0.64121 0.0
C120 C 0.62877 0.25281 0.92564 0.0
C121 C 0.59496 0.22979 0.91677 0.0
C122 C 0.57391 0.24131 0.88791 0.0
C123 C 0.61992 0.29598 0.87824 0.0
C124 C 0.64028 0.28502 0.90662 0.0
C125 C 0.67494 0.31164 0.91461 0.0
H126 H 0.78816 0.46937 0.89413 0.0
C127 C 0.64033 0.33178 0.86463 0.0
C128 C 0.67261 0.34045 0.88696 0.0
H129 H 0.80155 0.38455 0.9658 0.0
H130 H 0.74572 0.35022 0.94209 0.0
H131 H 0.69494 0.46054 0.89842 0.0
H132 H 0.76756 0.41559 0.82179 0.0
H133 H 0.731 0.42812 0.79697 0.0
H134 H 0.76389 0.46105 0.82085 0.0
H135 H 0.72739 0.48653 0.86732 0.0
H136 H 0.68164 0.46561 0.85232 0.0
C137 C 0.67149 0.32476 0.95523 0.0
C138 C 0.70969 0.29406 0.90643 0.0
C139 C 0.5949 0.40132 0.75458 0.0
C140 C 0.6093 0.43442 0.73745 0.0
C141 C 0.64283 0.45301 0.75318 0.0
C142 C 0.66078 0.44051 0.78349 0.0
C143 C 0.64628 0.40812 0.79986 0.0
C144 C 0.61373 0.38879 0.78541 0.0
C145 C 0.60271 0.3547 0.80725 0.0
C146 C 0.6341 0.35648 0.83616 0.0
C147 C 0.6597 0.38855 0.83166 0.0
C148 C 0.56422 0.35482 0.82633 0.0
C149 C 0.60229 0.32333 0.7804 0.0
C150 C 0.77973 0.44329 0.90463 0.0
C151 C 0.80056 0.43088 0.93334 0.0
C152 C 0.78671 0.39638 0.94525 0.0
C153 C 0.7539 0.37581 0.93084 0.0
C154 C 0.7335 0.38865 0.90301 0.0
C155 C 0.7469 0.42169 0.88973 0.0
C156 C 0.72252 0.42972 0.85811 0.0
C157 C 0.69177 0.39681 0.85569 0.0
C158 C 0.69833 0.37286 0.88258 0.0
C159 C 0.70577 0.46247 0.8693 0.0
C160 C 0.74736 0.43417 0.82246 0.0
H161 H 0.5686 0.28 0.84725 0.0
H162 H 0.64584 0.24646 0.94787 0.0
H163 H 0.70421 0.27434 0.88348 0.0
H164 H 0.7345 0.31274 0.89674 0.0
H165 H 0.71726 0.28042 0.93113 0.0
H166 H 0.64193 0.32717 0.96235 0.0
H167 H 0.68026 0.30637 0.97501 0.0
H168 H 0.6878 0.35114 0.96038 0.0
H169 H 0.56918 0.38562 0.74482 0.0
H170 H 0.65609 0.47768 0.74164 0.0
H171 H 0.68582 0.45689 0.79319 0.0
H172 H 0.56448 0.37952 0.84256 0.0
H173 H 0.54174 0.35267 0.80548 0.0
H174 H 0.55681 0.33312 0.84586 0.0
H175 H 0.62954 0.3256 0.76492 0.0
H176 H 0.598 0.29832 0.79519 0.0
H177 H 0.57958 0.32215 0.75995 0.0
H178 H 0.54783 0.22508 0.87967 0.0
C179 C 0.58607 0.27352 0.86881 0.0
C180 C 0.93139 0.81297 0.38998 0.0
C181 C 0.91914 0.83002 0.42253 0.0
C182 C 0.88696 0.81207 0.44128 0.0
C183 C 0.88025 0.76253 0.39713 0.0
C184 C 0.91171 0.77923 0.37803 0.0
C185 C 0.92051 0.75652 0.34478 0.0
H186 H 0.88107 0.59926 0.24518 0.0
C187 C 0.86582 0.72786 0.37835 0.0
C188 C 0.88956 0.72368 0.34745 0.0
H189 H 0.96751 0.688 0.22017 0.0
H190 H 0.94777 0.71937 0.27319 0.0
H191 H 0.88463 0.60388 0.33782 0.0
H192 H 0.81607 0.64989 0.26273 0.0
H193 H 0.78856 0.62994 0.29995 0.0
H194 H 0.81074 0.60337 0.26784 0.0
H195 H 0.8509 0.57758 0.3084 0.0
H196 H 0.83673 0.59546 0.3518 0.0
C197 C 0.95994 0.74751 0.34966 0.0
C198 C 0.91719 0.77679 0.3091 0.0
C199 C 0.7466 0.65253 0.43308 0.0
C200 C 0.7245 0.6197 0.42394 0.0
C201 C 0.73721 0.60132 0.39306 0.0
C202 C 0.77008 0.61514 0.37207 0.0
C203 C 0.79141 0.64814 0.3814 0.0
C204 C 0.77927 0.66607 0.41167 0.0
C205 C 0.80493 0.70065 0.41815 0.0
C206 C 0.83424 0.70108 0.38683 0.0
C207 C 0.82667 0.6701 0.36499 0.0
C208 C 0.82266 0.6997 0.45677 0.0
C209 C 0.78143 0.73005 0.41396 0.0
C210 C 0.8961 0.6254 0.25072 0.0
C211 C 0.9277 0.63956 0.22782 0.0
C212 C 0.94491 0.67442 0.23726 0.0
C213 C 0.93285 0.69334 0.26823 0.0
C214 C 0.90208 0.67846 0.29087 0.0
C215 C 0.88381 0.64508 0.28137 0.0
C216 C 0.84997 0.63402 0.30698 0.0
C217 C 0.85138 0.66541 0.33386 0.0
C218 C 0.88244 0.6919 0.32466 0.0
C219 C 0.85553 0.60082 0.32732 0.0
C220 C 0.81429 0.62874 0.28331 0.0
H221 H 0.84361 0.7679 0.44514 0.0
H222 H 0.95604 0.82524 0.37458 0.0
H223 H 0.89104 0.78822 0.3101 0.0
H224 H 0.91546 0.75988 0.28403 0.0
H225 H 0.94141 0.79852 0.30581 0.0
H226 H 0.9625 0.7375 0.37795 0.0
H227 H 0.982 0.77103 0.34593 0.0
H228 H 0.96591 0.72693 0.33003 0.0
H229 H 0.73838 0.66781 0.45632 0.0
H230 H 0.72208 0.57571 0.38537 0.0
H231 H 0.77784 0.59941 0.34932 0.0
H232 H 0.82646 0.67273 0.46346 0.0
H233 H 0.80462 0.70864 0.47903 0.0
H234 H 0.85121 0.71542 0.45824 0.0
H235 H 0.76076 0.72339 0.39142 0.0
H236 H 0.79856 0.75523 0.40584 0.0
H237 H 0.76549 0.73401 0.43993 0.0
H238 H 0.87601 0.8238 0.46576 0.0
C239 C 0.86779 0.77918 0.42901 0.0
C240 C 0.74337 0.71122 0.91565 0.0
C241 C 0.75893 0.6841 0.89776 0.0
C242 C 0.745 0.67134 0.86289 0.0
C243 C 0.71148 0.71928 0.85938 0.0
C244 C 0.71857 0.72784 0.89599 0.0
C245 C 0.6981 0.75687 0.90896 0.0
H246 H 0.61554 0.89316 0.86131 0.0
C247 C 0.69337 0.74597 0.84325 0.0
C248 C 0.6828 0.76694 0.87231 0.0
H249 H 0.62436 0.85342 0.97098 0.0
H250 H 0.65258 0.80569 0.94491 0.0
H251 H 0.59131 0.81658 0.81547 0.0
H252 H 0.68882 0.89138 0.83638 0.0
H253 H 0.70627 0.86487 0.80247 0.0
H254 H 0.66907 0.8883 0.79151 0.0
H255 H 0.60354 0.86049 0.79885 0.0
H256 H 0.61838 0.82447 0.77388 0.0
C257 C 0.66618 0.7416 0.93653 0.0
C258 C 0.7267 0.78714 0.92568 0.0
C259 C 0.74409 0.78659 0.71816 0.0
C260 C 0.74614 0.81959 0.70252 0.0
C261 C 0.7179 0.8393 0.71148 0.0
C262 C 0.69165 0.82865 0.73999 0.0
C263 C 0.695 0.79907 0.76048 0.0
C264 C 0.71942 0.77739 0.74821 0.0
C265 C 0.72177 0.74874 0.77497 0.0
C266 C 0.69609 0.75824 0.80643 0.0
C267 C 0.68151 0.78835 0.79811 0.0
C268 C 0.70686 0.71289 0.75614 0.0
C269 C 0.76315 0.75214 0.78724 0.0
C270 C 0.62281 0.87373 0.87958 0.0
C271 C 0.61731 0.87661 0.91808 0.0
C272 C 0.62826 0.85152 0.94119 0.0
C273 C 0.64446 0.82389 0.92612 0.0
C274 C 0.65037 0.82172 0.88763 0.0
C275 C 0.63951 0.84627 0.86501 0.0
C276 C 0.65002 0.84093 0.82499 0.0
C277 C 0.66601 0.80729 0.82699 0.0
C278 C 0.66678 0.79664 0.8639 0.0
C279 C 0.61396 0.83546 0.80183 0.0
C280 C 0.67993 0.87286 0.81301 0.0
H281 H 0.71067 0.67871 0.81724 0.0
H282 H 0.75207 0.72072 0.94304 0.0
H283 H 0.75067 0.79493 0.90598 0.0
H284 H 0.71425 0.81067 0.93183 0.0
H285 H 0.73802 0.77918 0.95191 0.0
H286 H 0.65999 0.71253 0.93518 0.0
H287 H 0.67359 0.74933 0.96561 0.0
H288 H 0.63924 0.74993 0.93019 0.0
H289 H 0.76489 0.77064 0.71048 0.0
H290 H 0.71834 0.86448 0.69902 0.0
H291 H 0.67157 0.84513 0.74689 0.0
H292 H 0.70349 0.71502 0.72576 0.0
H293 H 0.72659 0.69428 0.75924 0.0
H294 H 0.67892 0.70098 0.76776 0.0
H295 H 0.77331 0.7786 0.79933 0.0
H296 H 0.76708 0.73284 0.80799 0.0
H297 H 0.78194 0.74775 0.76349 0.0
H298 H 0.75455 0.64913 0.84955 0.0
C299 C 0.72069 0.68862 0.84383 0.0
C300 C 0.85185 0.16645 0.48092 0.0
C301 C 0.87765 0.15165 0.45892 0.0
C302 C 0.88093 0.15876 0.42072 0.0
C303 C 0.83051 0.19225 0.42673 0.0
C304 C 0.82887 0.18667 0.46443 0.0
C305 C 0.79954 0.20345 0.48415 0.0
H306 H 0.65026 0.28387 0.47467 0.0
C307 C 0.80104 0.21255 0.41829 0.0
C308 C 0.78319 0.21951 0.45189 0.0
H309 H 0.70399 0.25774 0.57312 0.0
H310 H 0.75049 0.23442 0.53515 0.0
H311 H 0.66372 0.21364 0.41921 0.0
H312 H 0.71935 0.31957 0.43897 0.0
H313 H 0.73144 0.30915 0.39317 0.0
H314 H 0.6828 0.30962 0.40569 0.0
H315 H 0.64352 0.25204 0.41218 0.0
H316 H 0.67227 0.23623 0.37699 0.0
C317 C 0.7707 0.17414 0.50245 0.0
C318 C 0.81936 0.23163 0.51167 0.0
C319 C 0.76413 0.22471 0.28523 0.0
C320 C 0.73535 0.23947 0.26952 0.0
C321 C 0.716 0.26093 0.29195 0.0
C322 C 0.72245 0.26463 0.33003 0.0
C323 C 0.74853 0.24672 0.34581 0.0
C324 C 0.7705 0.229 0.32326 0.0
C325 C 0.79823 0.21318 0.34491 0.0
C326 C 0.78757 0.22267 0.38431 0.0
C327 C 0.75775 0.24142 0.38457 0.0
C328 C 0.79067 0.17312 0.33774 0.0
C329 C 0.83844 0.23146 0.33381 0.0
C330 C 0.6713 0.2718 0.48783 0.0
C331 C 0.67299 0.271 0.52655 0.0
C332 C 0.7018 0.25732 0.54322 0.0
C333 C 0.72889 0.24438 0.52112 0.0
C334 C 0.72724 0.24593 0.4822 0.0
C335 C 0.69899 0.25985 0.46627 0.0
C336 C 0.70373 0.263 0.42495 0.0
C337 C 0.73924 0.2478 0.41846 0.0
C338 C 0.75229 0.23727 0.45196 0.0
C339 C 0.66905 0.24018 0.40711 0.0
C340 C 0.7094 0.30226 0.41492 0.0
H341 H 0.86052 0.18305 0.37518 0.0
H342 H 0.84869 0.1615 0.51035 0.0
H343 H 0.84891 0.24158 0.5028 0.0
H344 H 0.80597 0.25518 0.5132 0.0
H345 H 0.82004 0.22099 0.53991 0.0
H346 H 0.76399 0.15121 0.48323 0.0
H347 H 0.78203 0.16506 0.52812 0.0
H348 H 0.74349 0.182 0.50938 0.0
H349 H 0.77938 0.20783 0.26905 0.0
H350 H 0.69425 0.27318 0.28039 0.0
H351 H 0.70568 0.27996 0.34596 0.0
H352 H 0.76 0.16269 0.33938 0.0
H353 H 0.80112 0.16651 0.30974 0.0
H354 H 0.80359 0.15855 0.35822 0.0
H355 H 0.8386 0.25835 0.32372 0.0
H356 H 0.85762 0.23512 0.35758 0.0
H357 H 0.8506 0.21669 0.3113 0.0
H358 H 0.9014 0.14838 0.4034 0.0
C359 C 0.85741 0.17903 0.40448 0.0
C360 C 0.43758 0.66748 0.32263 0.0
C361 C 0.42299 0.63426 0.3391 0.0
C362 C 0.39012 0.61544 0.32235 0.0
C363 C 0.3874 0.66089 0.27606 0.0
C364 C 0.41954 0.6801 0.29146 0.0
C365 C 0.43145 0.71421 0.27017 0.0
H366 H 0.39632 0.82596 0.13049 0.0
C367 C 0.37488 0.68093 0.24407 0.0
C368 C 0.40092 0.71284 0.24055 0.0
H369 H 0.49174 0.84245 0.20227 0.0
H370 H 0.46786 0.78761 0.23306 0.0
H371 H 0.33487 0.79776 0.19252 0.0
H372 H 0.39699 0.74297 0.11515 0.0
H373 H 0.34975 0.72213 0.11474 0.0
H374 H 0.36172 0.76715 0.10142 0.0
H375 H 0.32286 0.79239 0.14453 0.0
H376 H 0.30404 0.75999 0.17836 0.0
C377 C 0.43134 0.74532 0.29733 0.0
C378 C 0.47038 0.71371 0.25207 0.0
C379 C 0.25596 0.62887 0.16757 0.0
C380 C 0.23656 0.64199 0.13824 0.0
C381 C 0.2507 0.6769 0.12784 0.0
C382 C 0.28332 0.69686 0.14338 0.0
C383 C 0.303 0.68304 0.17111 0.0
C384 C 0.28874 0.64983 0.18358 0.0
C385 C 0.31219 0.64094 0.2156 0.0
C386 C 0.34336 0.67348 0.21919 0.0
C387 C 0.33787 0.69809 0.19248 0.0
C388 C 0.28657 0.63622 0.25066 0.0
C389 C 0.3286 0.60803 0.20436 0.0
C390 C 0.41223 0.81815 0.15292 0.0
C391 C 0.44663 0.83965 0.16305 0.0
C392 C 0.4657 0.82708 0.1927 0.0
C393 C 0.45165 0.79489 0.2109 0.0
C394 C 0.41771 0.77356 0.19985 0.0
C395 C 0.39883 0.78569 0.17105 0.0
C396 C 0.36369 0.75992 0.1618 0.0
C397 C 0.36429 0.73031 0.18908 0.0
C398 C 0.39594 0.738 0.2123 0.0
C399 C 0.32943 0.7783 0.16932 0.0
C400 C 0.36783 0.74738 0.1211 0.0
H401 H 0.3481 0.61176 0.28121 0.0
H402 H 0.46295 0.68319 0.33318 0.0
H403 H 0.47063 0.68846 0.23701 0.0
H404 H 0.47805 0.73445 0.23151 0.0
H405 H 0.49248 0.71681 0.27337 0.0
H406 H 0.40408 0.7425 0.31285 0.0
H407 H 0.45411 0.7467 0.31776 0.0
H408 H 0.435 0.77048 0.28292 0.0
H409 H 0.24613 0.60278 0.17767 0.0
H410 H 0.23613 0.68954 0.10775 0.0
H411 H 0.29192 0.72278 0.1331 0.0
H412 H 0.26801 0.65624 0.25204 0.0
H413 H 0.26832 0.61005 0.25057 0.0
H414 H 0.3025 0.63986 0.27656 0.0
H415 H 0.34031 0.61033 0.17556 0.0
H416 H 0.35202 0.6042 0.22196 0.0
H417 H 0.30656 0.58422 0.20541 0.0
H418 H 0.37706 0.59045 0.33333 0.0
C419 C 0.37274 0.62819 0.29173 0.0
C420 C 0.09684 0.25837 0.67759 0.0
C421 C 0.11043 0.24078 0.646 0.0
C422 C 0.14484 0.25722 0.62995 0.0
C423 C 0.15027 0.30716 0.67347 0.0
C424 C 0.11718 0.29157 0.69074 0.0
C425 C 0.10745 0.31508 0.72309 0.0
H426 H 0.15814 0.46674 0.83151 0.0
C427 C 0.16497 0.34157 0.69262 0.0
C428 C 0.14018 0.34669 0.7224 0.0
H429 H 0.05674 0.38986 0.84328 0.0
H430 H 0.07666 0.35657 0.79154 0.0
H431 H 0.15282 0.46827 0.73951 0.0
H432 H 0.21697 0.41241 0.80942 0.0
H433 H 0.24579 0.4336 0.77361 0.0
H434 H 0.22522 0.45935 0.80782 0.0
H435 H 0.19009 0.49064 0.76783 0.0
H436 H 0.1996 0.47266 0.72288 0.0
C437 C 0.06966 0.32629 0.71507 0.0
C438 C 0.10647 0.2947 0.75931 0.0
C439 C 0.28613 0.41496 0.63967 0.0
C440 C 0.30922 0.4471 0.64956 0.0
C441 C 0.29737 0.46504 0.68117 0.0
C442 C 0.26441 0.45147 0.70212 0.0
C443 C 0.242 0.41924 0.69187 0.0
C444 C 0.25339 0.40167 0.66101 0.0
C445 C 0.22713 0.36755 0.65405 0.0
C446 C 0.19766 0.36743 0.68516 0.0
C447 C 0.2061 0.39787 0.70764 0.0
C448 C 0.20984 0.3693 0.61537 0.0
C449 C 0.2499 0.33751 0.65808 0.0
C450 C 0.1398 0.44284 0.82336 0.0
C451 C 0.10588 0.43128 0.84405 0.0
C452 C 0.08377 0.39961 0.83055 0.0
C453 C 0.09513 0.38016 0.79954 0.0
C454 C 0.12907 0.39199 0.7799 0.0
C455 C 0.1505 0.42331 0.79187 0.0
C456 C 0.18491 0.43327 0.76687 0.0
C457 C 0.18128 0.40297 0.73847 0.0
C458 C 0.14829 0.37801 0.74599 0.0
C459 C 0.18209 0.46817 0.74833 0.0
C460 C 0.22028 0.43503 0.79052 0.0
H461 H 0.18989 0.29992 0.62855 0.0
H462 H 0.07074 0.24696 0.69123 0.0
H463 H 0.13271 0.28375 0.76183 0.0
H464 H 0.10434 0.31145 0.78408 0.0
H465 H 0.08232 0.27265 0.75983 0.0
H466 H 0.06985 0.33623 0.68639 0.0
H467 H 0.04611 0.30383 0.71772 0.0
H468 H 0.06385 0.34762 0.73378 0.0
H469 H 0.29291 0.40036 0.61532 0.0
H470 H 0.31398 0.48959 0.6902 0.0
H471 H 0.25767 0.4666 0.72581 0.0
H472 H 0.20385 0.39595 0.61047 0.0
H473 H 0.22934 0.36316 0.59292 0.0
H474 H 0.1825 0.35178 0.61235 0.0
H475 H 0.27332 0.34491 0.67777 0.0
H476 H 0.2329 0.3137 0.66995 0.0
H477 H 0.26241 0.3307 0.63108 0.0
H478 H 0.15717 0.24477 0.60676 0.0
C479 C 0.1643 0.28963 0.64306 0.0
Sm480 Sm 0.02653 0.05106 0.49565 0.0
Sm481 Sm 1.00185 1.02124 0.56936 0.0
C482 C 0.04566 0.09399 0.44049 0.0
C483 C 0.07946 0.12097 0.43759 0.0
C484 C 0.07964 0.15108 0.4169 0.0
C485 C 0.11261 0.17586 0.41357 0.0
C486 C 0.14555 0.17057 0.43082 0.0
C487 C 0.14489 0.14116 0.45266 0.0
C488 C 0.11194 0.11674 0.4564 0.0
C489 C 0.07651 1.01563 0.52668 0.0
C490 C 0.04596 0.10193 0.57349 0.0
C491 C 0.98225 0.98037 0.62635 0.0
C492 C 0.94843 0.95399 0.63368 0.0
C493 C 0.95185 0.91934 0.64065 0.0
C494 C 0.91981 0.89416 0.64716 0.0
C495 C 0.88387 0.90337 0.64724 0.0
C496 C 0.88048 0.93782 0.63916 0.0
C497 C 0.91239 0.96285 0.63232 0.0
C498 C 0.95104 0.0547 0.53595 0.0
C499 C 0.98304 0.97024 0.49153 0.0
O500 O 0.02127 0.09966 0.46626 0.0
O501 O 0.0519 0.06181 0.43978 0.0
O502 O 0.059 0.03651 0.54384 0.0
O503 O 0.07011 1.01486 0.49151 0.0
O504 O 0.04095 0.0998 0.53698 0.0
O505 O 0.03766 0.07294 0.59304 0.0
O506 O 1.0049 0.97264 0.59984 0.0
O507 O 0.9773 1.0129 0.62582 0.0
O508 O 0.96956 1.03396 0.52042 0.0
O509 O 0.95755 0.05743 0.5711 0.0
O510 O 0.98786 0.97209 0.52816 0.0
O511 O 0.991 0.99939 0.47213 0.0
H512 H 0.05465 0.15499 0.40274 0.0
H513 H 0.1129 0.19833 0.39625 0.0
H514 H 0.17015 0.13661 0.46588 0.0
H515 H 0.11212 0.09402 0.47325 0.0
H516 H 0.97929 0.91178 0.64117 0.0
H517 H 0.92315 0.86759 0.65264 0.0
H518 H 0.85318 0.9457 0.63925 0.0
H519 H 0.90872 0.98922 0.62634 0.0
Sm520 Sm 0.55579 0.03941 0.06036 0.0
Sm521 Sm 0.49407 1.03183 1.0269 0.0
C522 C 0.61796 0.06032 0.09843 0.0
C523 C 0.63924 0.09343 0.11217 0.0
C524 C 0.62513 0.12464 0.10917 0.0
C525 C 0.64347 0.15527 0.12635 0.0
C526 C 0.67645 0.15506 0.14608 0.0
C527 C 0.69167 0.12421 0.14697 0.0
C528 C 0.67308 0.09355 0.13019 0.0
C529 C 0.51301 0.974 0.08314 0.0
C530 C 0.49437 0.08061 0.09503 0.0
C531 C 0.43027 1.0102 0.99176 0.0
C532 C 0.42049 0.99971 0.95377 0.0
C533 C 0.38271 0.9905 0.9443 0.0
C534 C 0.37332 0.97771 0.90872 0.0
C535 C 0.40172 0.97366 0.88265 0.0
C536 C 0.43954 0.98379 0.8919 0.0
C537 C 0.44889 0.99704 0.92728 0.0
C538 C 0.5358 0.09666 1.00193 0.0
C539 C 0.55883 0.99202 0.99 0.0
O540 O 0.61773 0.05578 0.0626 0.0
O541 O 0.58498 0.05034 0.11389 0.0
O542 O 0.50059 1.00282 0.08099 0.0
O543 O 0.54743 0.97954 0.07104 0.0
O544 O 0.52995 0.08514 0.08535 0.0
O545 O 0.47217 0.05392 0.08043 0.0
O546 O 0.44847 0.98943 1.00891 0.0
O547 O 0.44445 0.04301 0.99715 0.0
O548 O 0.5491 0.06837 1.00588 0.0
O549 O 0.50095 0.09082 1.01278 0.0
O550 O 0.52267 0.99269 0.99166 0.0
O551 O 0.58094 1.01266 1.01212 0.0
H552 H 0.59925 0.125 0.09479 0.0
H553 H 0.63116 0.17874 0.12553 0.0
H554 H 0.71664 0.12324 0.16266 0.0
H555 H 0.68434 0.06963 0.13255 0.0
H556 H 0.36058 0.99252 0.96459 0.0
H557 H 0.34398 0.96996 0.90188 0.0
H558 H 0.46173 0.98111 0.87189 0.0
H559 H 0.47821 1.00454 0.93424 0.0
Sm560 Sm 0.51219 0.50513 0.51857 0.0
Sm561 Sm 0.5212 0.56522 0.5576 0.0
C562 C 0.52894 0.44733 0.4879 0.0
C563 C 0.54576 0.41973 0.50447 0.0
C564 C 0.57211 0.42821 0.53263 0.0
C565 C 0.58744 0.40229 0.54945 0.0
C566 C 0.57825 0.36736 0.53727 0.0
C567 C 0.55199 0.35894 0.50869 0.0
C568 C 0.53539 0.38487 0.4929 0.0
C569 C 0.44564 0.50636 0.55901 0.0
C570 C 0.54795 0.50378 0.6056 0.0
C571 C 0.50332 0.62291 0.58709 0.0
C572 C 0.47867 0.64454 0.57061 0.0
C573 C 0.44767 0.62846 0.54987 0.0
C574 C 0.42633 0.64848 0.53073 0.0
C575 C 0.43477 0.68507 0.53282 0.0
C576 C 0.46568 0.7012 0.55377 0.0
C577 C 0.48764 0.68105 0.57231 0.0
C578 C 0.58737 0.56457 0.51655 0.0
C579 C 0.48413 0.566 0.47125 0.0
O580 O 0.55097 0.47769 0.4858 0.0
O581 O 0.49503 0.44975 0.49954 0.0
O582 O 0.4789 0.51558 0.57101 0.0
O583 O 0.44736 0.49717 0.52418 0.0
O584 O 0.53775 0.48653 0.57415 0.0
O585 O 0.545 0.53732 0.60712 0.0
O586 O 0.48678 0.59176 0.59682 0.0
O587 O 0.53522 0.62255 0.56958 0.0
O588 O 0.554 0.55512 0.50476 0.0
O589 O 0.58605 0.57255 0.55177 0.0
O590 O 0.49192 0.58256 0.50356 0.0
O591 O 0.49005 0.53337 0.46862 0.0
H592 H 0.58162 0.45502 0.54134 0.0
H593 H 0.60744 0.4099 0.57129 0.0
H594 H 0.54546 0.3327 0.49716 0.0
H595 H 0.51534 0.37788 0.47097 0.0
H596 H 0.44023 0.60025 0.5478 0.0
H597 H 0.40338 0.63525 0.5141 0.0
H598 H 0.4726 0.72941 0.55623 0.0
H599 H 0.51164 0.69393 0.58779 0.0
Sm600 Sm 1.01601 0.50882 0.05706 0.0
Sm601 Sm 0.02066 0.56487 1.01477 0.0
C602 C 0.03208 0.45208 0.08808 0.0
C603 C 0.0674 0.43824 0.09158 0.0
C604 C 0.08814 0.43013 0.06001 0.0
C605 C 0.12227 0.41846 0.06374 0.0
C606 C 0.13646 0.41497 0.09904 0.0
C607 C 0.1158 0.42304 0.13055 0.0
C608 C 0.0815 0.4344 0.12685 0.0
C609 C 0.98011 0.55726 0.097 0.0
C610 C 0.09456 0.5692 0.06484 0.0
C611 C 1.00227 0.62134 0.98512 0.0
C612 C 0.96703 0.63021 0.97117 0.0
C613 C 0.95146 0.65704 0.98895 0.0
C614 C 0.91669 0.66419 0.97834 0.0
C615 C 0.89688 0.64473 0.94959 0.0
C616 C 0.91271 0.61827 0.93134 0.0
C617 C 0.94739 0.61095 0.94212 0.0
C618 C 0.05671 0.51675 0.97429 0.0
C619 C 0.94271 0.50424 1.00587 0.0
O620 O 0.01887 0.45225 0.05481 0.0
O621 O 0.02952 0.48065 0.10685 0.0
O622 O 1.01117 0.56401 0.07862 0.0
O623 O 0.96624 0.52427 0.09238 0.0
O624 O 0.07784 0.53682 0.07213 0.0
O625 O 0.07763 0.58752 0.04239 0.0
O626 O 1.00248 0.61638 1.0207 0.0
O627 O 0.01819 0.59875 0.96609 0.0
O628 O 0.02617 0.5094 0.99352 0.0
O629 O 0.06949 0.55014 0.97779 0.0
O630 O 0.96067 0.53559 0.99654 0.0
O631 O 0.95808 0.48702 1.03069 0.0
H632 H 0.07829 0.43312 0.03237 0.0
H633 H 0.13787 0.41267 0.03906 0.0
H634 H 0.1261 0.42029 0.15809 0.0
H635 H 0.06614 0.44052 0.15157 0.0
H636 H 0.96605 0.67224 1.01142 0.0
H637 H 0.90549 0.6852 0.99232 0.0
H638 H 0.89801 0.603 0.90898 0.0
H639 H 0.95856 0.59001 0.92799 0.0
C640 C 0.23868 0.20015 0.38297 0.0
C641 C 0.24785 0.23577 0.39343 0.0
C642 C 0.20636 0.17895 0.39681 0.0
C643 C 0.18172 0.19258 0.42128 0.0
H644 H 0.25509 0.18889 0.36196 0.0
H645 H 0.19952 0.15215 0.38675 0.0
S646 S 0.19512 0.28189 0.46228 0.0
N647 N 0.23183 0.28217 0.43405 0.0
N648 N 0.1699 0.24219 0.4588 0.0
C649 C 0.1913 0.22728 0.43388 0.0
C650 C 0.22471 0.24889 0.42029 0.0
C651 C 0.35813 0.95751 0.78867 0.0
C652 C 0.36822 0.9254 0.7775 0.0
C653 C 0.36952 0.97328 0.82265 0.0
C654 C 0.3917 0.95764 0.84626 0.0
H655 H 0.34115 0.97046 0.77107 0.0
H656 H 0.36088 0.99779 0.83058 0.0
S657 S 0.42487 0.87346 0.83064 0.0
N658 N 0.40097 0.87822 0.79321 0.0
N659 N 0.42305 0.90847 0.85695 0.0
C660 C 0.40246 0.92589 0.83536 0.0
C661 C 0.39059 0.90962 0.80093 0.0
C662 C 0.59522 0.48785 0.7001 0.0
C663 C 0.59116 0.45084 0.7041 0.0
C664 C 0.58134 0.5042 0.66923 0.0
C665 C 0.5622 0.48513 0.6393 0.0
H666 H 0.60923 0.50498 0.72143 0.0
H667 H 0.58609 0.53248 0.66882 0.0
S668 S 0.54047 0.38761 0.63532 0.0
N669 N 0.56419 0.3959 0.67402 0.0
N670 N 0.53794 0.426 0.61771 0.0
C671 C 0.55694 0.44813 0.64315 0.0
C672 C 0.57114 0.43138 0.67472 0.0
C673 C 0.91742 0.59303 0.17385 0.0
C674 C 0.942 0.6189 0.1942 0.0
C675 C 0.92975 0.5739 0.14293 0.0
C676 C 0.96746 0.57954 0.12942 0.0
H677 H 0.88792 0.58746 0.18155 0.0
H678 H 0.90918 0.55446 0.12921 0.0
S679 S 0.04511 0.64129 0.17314 0.0
N680 N 1.0079 0.64622 0.19877 0.0
N681 N 0.02972 0.6122 0.14053 0.0
C682 C 0.99246 0.60506 0.14929 0.0
C683 C 0.9802 0.62406 0.18133 0.0
C684 C 0.42612 0.13749 0.13198 0.0
C685 C 0.44847 0.16172 0.15524 0.0
C686 C 0.44098 0.11073 0.11347 0.0
C687 C 0.47891 0.10756 0.1171 0.0
H688 H 0.39677 0.13898 0.12842 0.0
H689 H 0.42272 0.09282 0.09562 0.0
S690 S 0.54917 0.16462 0.17481 0.0
N691 N 0.51022 0.18092 0.18118 0.0
N692 N 0.5384 0.13087 0.14605 0.0
C693 C 0.50157 0.13169 0.14031 0.0
C694 C 0.48628 0.15869 0.1595 0.0
C695 C 0.10389 0.92852 0.54508 0.0
C696 C 0.12493 0.93529 0.57754 0.0
C697 C 0.08823 0.95478 0.5288 0.0
C698 C 0.09247 0.98847 0.54483 0.0
H699 H 0.10024 0.90296 0.53167 0.0
H700 H 0.0727 0.94865 0.50347 0.0
S701 S 0.1439 1.01993 0.62986 0.0
N702 N 0.14916 0.97871 0.62495 0.0
N703 N 0.11759 1.0273 0.59513 0.0
C704 C 0.1119 0.99537 0.57795 0.0
C705 C 0.12864 0.96893 0.59418 0.0
C706 C 0.84543 0.44581 0.9886 0.0
C707 C 0.83618 0.45223 0.95152 0.0
C708 C 0.87917 0.46249 1.00562 0.0
C709 C 0.90579 0.48775 0.98735 0.0
H710 H 0.82634 0.42752 1.00523 0.0
H711 H 0.88425 0.45559 0.03373 0.0
S712 S 0.89704 0.51582 0.89051 0.0
N713 N 0.85861 0.48655 0.8973 0.0
N714 N 0.92012 0.51873 0.92971 0.0
C715 C 0.89677 0.49544 0.95079 0.0
C716 C 0.86271 0.47777 0.93298 0.0
C717 C 0.68846 0.60749 0.48599 0.0
C718 C 0.68909 0.60466 0.44679 0.0
C719 C 0.65614 0.594 0.50787 0.0
C720 C 0.62209 0.57705 0.49206 0.0
H721 H 0.71346 0.62005 0.50016 0.0
H722 H 0.65788 0.59724 0.53769 0.0
S723 S 0.60719 0.56357 0.39083 0.0
N724 N 0.65123 0.58386 0.39332 0.0
N725 N 0.59133 0.55886 0.43404 0.0
C726 C 0.62217 0.57405 0.45294 0.0
C727 C 0.6552 0.58764 0.43059 0.0
C728 C 0.23287 0.40921 0.13442 0.0
C729 C 0.23843 0.37598 0.12158 0.0
C730 C 0.20052 0.42229 0.12565 0.0
C731 C 0.17267 0.40276 0.10346 0.0
H732 H 0.25284 0.42447 0.15293 0.0
H733 H 0.19665 0.44738 0.13733 0.0
S734 S 0.17469 0.3154 0.06087 0.0
N735 N 0.21417 0.3246 0.08403 0.0
N736 N 0.15356 0.34955 0.06702 0.0
C737 C 0.17887 0.37049 0.08854 0.0
C738 C 0.21176 0.35703 0.09767 0.0
C739 C 0.54268 0.18415 0.94773 0.0
C740 C 0.58113 0.19502 0.93796 0.0
C741 C 0.52911 0.15302 0.96791 0.0
C742 C 0.55264 0.12967 0.97945 0.0
H743 H 0.52256 0.20032 0.94033 0.0
H744 H 0.49933 0.14719 0.9745 0.0
S745 S 0.65569 0.14383 0.9606 0.0
N746 N 0.64262 0.17804 0.94166 0.0
N747 N 0.61718 0.12029 0.97851 0.0
C748 C 0.5911 0.13978 0.96957 0.0
C749 C 0.60515 0.17191 0.94937 0.0
C750 C 0.94307 0.87101 0.47722 0.0
C751 C 0.93857 0.86573 0.4384 0.0
C752 C 0.95746 0.90417 0.49363 0.0
C753 C 0.96816 0.93472 0.47251 0.0
H754 H 0.93519 0.84909 0.49548 0.0
H755 H 0.95982 0.90579 0.5235 0.0
S756 S 0.96268 0.93639 0.36958 0.0
N757 N 0.94678 0.89502 0.37934 0.0
N758 N 0.97343 0.95666 0.40965 0.0
C759 C 0.96431 0.92987 0.43356 0.0
C760 C 0.94983 0.89586 0.41678 0.0
C761 C 0.40444 0.76234 0.48796 0.0
C762 C 0.36591 0.75724 0.49719 0.0
C763 C 0.42629 0.73742 0.49688 0.0
C764 C 0.41025 0.7066 0.51519 0.0
H765 H 0.41846 0.78734 0.47763 0.0
H766 H 0.45636 0.7435 0.49188 0.0
S767 S 0.30928 0.67863 0.53951 0.0
N768 N 0.31162 0.7172 0.5205 0.0
N769 N 0.35257 0.67048 0.53778 0.0
C770 C 0.37099 0.69948 0.52054 0.0
C771 C 0.34877 0.72475 0.51116 0.0
C772 C 0.78305 0.85473 0.65206 0.0
C773 C 0.78211 0.8369 0.6856 0.0
C774 C 0.81656 0.87496 0.63877 0.0
C775 C 0.85008 0.87822 0.65877 0.0
H776 H 0.75759 0.85366 0.63652 0.0
H777 H 0.81607 0.88885 0.61314 0.0
S778 S 0.86168 0.83835 0.74926 0.0
N779 N 0.81725 0.82463 0.73902 0.0
N780 N 0.87982 0.86269 0.71422 0.0
C781 C 0.8495 0.8601 0.69206 0.0
C782 C 0.8156 0.8395 0.70546 0.0
C783 C 0.6817 0.21519 0.22926 0.0
C784 C 0.72066 0.22674 0.2327 0.0
C785 C 0.66726 0.19454 0.19898 0.0
C786 C 0.69124 0.18447 0.17122 0.0
H787 H 0.66234 0.21954 0.25152 0.0
H788 H 0.63747 0.18398 0.199 0.0
S789 S 0.79413 0.21398 0.16278 0.0
N790 N 0.78212 0.23174 0.2023 0.0
N791 N 0.75483 0.19174 0.14577 0.0
C792 C 0.72972 0.19844 0.1724 0.0
C793 C 0.74446 0.2199 0.20305 0.0
C794 C 0.43889 0.58127 0.37563 0.0
C795 C 0.44061 0.6181 0.37275 0.0
C796 C 0.45284 0.56516 0.4066 0.0
C797 C 0.46938 0.58436 0.43776 0.0
H798 H 0.42678 0.56422 0.35331 0.0
H799 H 0.45025 0.53697 0.40609 0.0
S800 S 0.48318 0.68162 0.44539 0.0
N801 N 0.462 0.67311 0.40533 0.0
N802 N 0.48781 0.64345 0.46222 0.0
C803 C 0.47184 0.62122 0.43524 0.0
C804 C 0.45784 0.63773 0.40346 0.0
C805 C 0.10369 0.48928 0.88153 0.0
C806 C 0.09332 0.45231 0.8783 0.0
C807 C 0.09226 0.50928 0.91218 0.0
C808 C 0.06907 0.49408 0.94193 0.0
H809 H 0.12055 0.50341 0.85975 0.0
H810 H 0.10141 0.53735 0.91217 0.0
S811 S 0.03568 0.39852 0.95064 0.0
N812 N 0.05999 0.40156 0.91116 0.0
N813 N 0.03748 0.43896 0.96644 0.0
C814 C 0.05864 0.45729 0.9395 0.0
C815 C 0.07083 0.4367 0.90862 0.0
C816 C 0.62306 0.92839 0.96099 0.0
C817 C 0.60223 0.9068 0.93438 0.0
C818 C 0.60941 0.95679 0.97741 0.0
C819 C 0.57404 0.96447 0.96833 0.0
H820 H 0.65016 0.92323 0.96925 0.0
H821 H 0.62638 0.97216 0.99828 0.0
S822 S 0.50899 0.91612 0.89935 0.0
N823 N 0.54514 0.89533 0.89866 0.0
N824 N 0.51894 0.94837 0.93008 0.0
C825 C 0.55318 0.94334 0.94123 0.0
C826 C 0.56741 0.91463 0.9241 0.0
C827 C 0.91525 0.13635 0.51115 0.0
C828 C 0.89936 0.12763 0.4762 0.0
C829 C 0.93146 0.11233 0.53062 0.0
C830 C 0.93291 0.07904 0.5155 0.0
H831 H 0.91461 0.16179 0.52383 0.0
H832 H 0.94321 0.12002 0.55753 0.0
S833 S 0.89611 0.04331 0.42496 0.0
N834 N 0.88605 0.08316 0.42741 0.0
N835 N 0.91819 0.0385 0.46353 0.0
C836 C 0.91825 0.07023 0.48021 0.0
C837 C 0.90114 0.09447 0.46059 0.0
C838 C 0.17361 0.59716 0.13761 0.0
C839 C 0.20168 0.62088 0.11859 0.0
C840 C 0.14001 0.57988 0.12014 0.0
C841 C 0.13198 0.58555 0.08267 0.0
H842 H 0.17702 0.59249 0.16668 0.0
H843 H 0.11952 0.5627 0.13663 0.0
S844 S 0.19755 0.64025 1.01798 0.0
N845 N 0.21997 0.64464 0.05759 0.0
N846 N 0.15702 0.61448 1.02649 0.0
C847 C 0.16014 0.60815 0.06306 0.0
C848 C 0.19464 0.62503 0.08041 0.0
C849 C 0.35531 0.49838 0.62077 0.0
C850 C 0.34502 0.462 0.6272 0.0
C851 C 0.38791 0.51266 0.59955 0.0
C852 C 0.41216 0.49142 0.58351 0.0
H853 H 0.33758 0.51614 0.63164 0.0
H854 H 0.39382 0.54059 0.59518 0.0
S855 S 0.4012 0.39531 0.59374 0.0
N856 N 0.3647 0.40567 0.61703 0.0
N857 N 0.42445 0.43228 0.57699 0.0
C858 C 0.40279 0.45528 0.59012 0.0
C859 C 0.36982 0.44071 0.61184 0.0
C860 C 0.82291 0.66932 0.8876 0.0
C861 C 0.79267 0.67213 0.91224 0.0
C862 C 0.85607 0.65986 0.89988 0.0
C863 C 0.86064 0.65316 0.9374 0.0
H864 H 0.82137 0.67532 0.85856 0.0
H865 H 0.87872 0.65864 0.87996 0.0
S866 S 0.78953 0.65447 1.01296 0.0
N867 N 0.76891 0.66556 0.97575 0.0
N868 N 0.83177 0.64832 0.999 0.0
C869 C 0.83064 0.6554 0.96238 0.0
C870 C 0.79659 0.6648 0.94979 0.0
C871 C 0.44142 0.89994 0.13375 0.0
C872 C 0.46319 0.87408 0.14253 0.0
C873 C 0.45701 0.93196 0.11542 0.0
C874 C 0.49535 0.94008 0.10386 0.0
H875 H 0.41191 0.89566 0.14162 0.0
H876 H 0.43863 0.9504 0.10999 0.0
S877 S 0.5646 0.88085 0.11735 0.0
N878 N 0.52551 0.85941 0.13621 0.0
N879 N 0.55403 0.91759 0.1021 0.0
C880 C 0.51706 0.91406 0.1119 0.0
C881 C 0.50139 0.88194 0.13095 0.0
C882 C 0.07822 0.1753 0.64879 0.0
C883 C 0.09031 0.20606 0.62823 0.0
C884 C 0.06413 0.14219 0.63137 0.0
C885 C 0.06098 0.13769 0.59226 0.0
H886 H 0.08072 0.1765 0.67865 0.0
H887 H 0.05588 0.11978 0.64889 0.0
S888 S 0.08643 0.21007 0.52529 0.0
N889 N 0.09597 0.22935 0.56602 0.0
N890 N 0.07043 0.16856 0.53402 0.0
C891 C 0.07217 0.16851 0.5716 0.0
C892 C 0.08645 0.202 0.58924 0.0
C893 C 0.66377 0.3272 0.55262 0.0
C894 C 0.6493 0.29159 0.54766 0.0
C895 C 0.63993 0.35178 0.55315 0.0
C896 C 0.60077 0.34135 0.54957 0.0
H897 H 0.69383 0.33644 0.55087 0.0
H898 H 0.65295 0.37904 0.55213 0.0
S899 S 0.54918 0.25002 0.54899 0.0
N900 N 0.594 0.24623 0.54734 0.0
N901 N 0.54844 0.29242 0.55141 0.0
C902 C 0.58586 0.30542 0.55111 0.0
C903 C 0.61036 0.28044 0.5495 0.0
loop_
_geom_bond_atom_site_label_1
_geom_bond_atom_site_label_2
_geom_bond_distance
_geom_bond_site_symmetry_2
_ccdc_geom_bond_type
C0 C1 1.391 . S
C0 C4 1.391 . S
C0 H42 0.948 . S
C1 C0 1.391 . S
C1 C2 1.391 . S
C2 C1 1.391 . S
C2 H58 0.947 . S
C2 C59 1.392 . S
C3 C4 1.391 . S
C3 C7 1.397 . S
C3 C59 1.419 . S
C4 C0 1.391 . S
C4 C3 1.391 . S
C4 C5 1.399 . S
C5 C4 1.399 . S
C5 C8 1.396 . S
C5 C17 1.453 . S
C5 C18 1.684 . S
H6 C30 0.948 . S
C7 C3 1.397 . S
C7 C8 1.394 . S
C7 C26 1.723 . S
C8 C5 1.396 . S
C8 C7 1.394 . S
C8 C38 1.723 . S
H9 C32 0.947 . S
H10 C33 0.948 . S
H11 C39 0.982 . S
H12 C40 0.979 . S
H13 C40 0.980 . S
H14 C40 0.983 . S
H15 C39 0.979 . S
H16 C39 0.977 . S
C17 C5 1.453 . S
C17 H46 0.982 . S
C17 H47 0.979 . S
C17 H48 0.977 . S
C18 C5 1.684 . S
C18 H43 0.979 . S
C18 H44 0.980 . S
C18 H45 0.983 . S
C19 C20 1.391 . S
C19 C24 1.391 . S
C19 H49 0.948 . S
C20 C19 1.391 . S
C20 C21 1.391 . S
C21 C20 1.391 . S
C21 C22 1.392 . S
C21 H50 0.947 . S
C22 C21 1.392 . S
C22 C23 1.419 . S
C22 H51 0.948 . S
C23 C22 1.419 . S
C23 C24 1.391 . S
C23 C27 1.397 . S
C24 C19 1.391 . S
C24 C23 1.391 . S
C24 C25 1.399 . S
C25 C24 1.399 . S
C25 C26 1.396 . S
C25 C28 1.453 . S
C25 C29 1.684 . S
C26 C7 1.723 . S
C26 C25 1.396 . S
C26 C27 1.394 . S
C27 C23 1.397 . S
C27 C26 1.394 . S
C27 C37 1.723 . S
C28 C25 1.453 . S
C28 H52 0.982 . S
C28 H53 0.979 . S
C28 H54 0.977 . S
C29 C25 1.684 . S
C29 H55 0.979 . S
C29 H56 0.980 . S
C29 H57 0.983 . S
C30 H6 0.948 . S
C30 C31 1.391 . S
C30 C35 1.391 . S
C31 C30 1.391 . S
C31 C32 1.391 . S
C32 H9 0.947 . S
C32 C31 1.391 . S
C32 C33 1.392 . S
C33 H10 0.948 . S
C33 C32 1.392 . S
C33 C34 1.419 . S
C34 C33 1.419 . S
C34 C35 1.391 . S
C34 C38 1.397 . S
C35 C30 1.391 . S
C35 C34 1.391 . S
C35 C36 1.399 . S
C36 C35 1.399 . S
C36 C37 1.396 . S
C36 C39 1.453 . S
C36 C40 1.684 . S
C37 C27 1.723 . S
C37 C36 1.396 . S
C37 C38 1.394 . S
C38 C8 1.723 . S
C38 C34 1.397 . S
C38 C37 1.394 . S
C39 H11 0.982 . S
C39 H15 0.979 . S
C39 H16 0.977 . S
C39 C36 1.453 . S
C40 H12 0.979 . S
C40 H13 0.980 . S
C40 H14 0.983 . S
C40 C36 1.684 . S
H41 C59 0.948 . S
H42 C0 0.948 . S
H43 C18 0.979 . S
H44 C18 0.980 . S
H45 C18 0.983 . S
H46 C17 0.982 . S
H47 C17 0.979 . S
H48 C17 0.977 . S
H49 C19 0.948 . S
H50 C21 0.947 . S
H51 C22 0.948 . S
H52 C28 0.982 . S
H53 C28 0.979 . S
H54 C28 0.977 . S
H55 C29 0.979 . S
H56 C29 0.980 . S
H57 C29 0.983 . S
H58 C2 0.947 . S
C59 C2 1.392 . S
C59 C3 1.419 . S
C59 H41 0.948 . S
C60 C61 1.391 . S
C60 C64 1.391 . S
C60 H102 0.948 . S
C61 C60 1.391 . S
C61 C62 1.391 . S
C62 C61 1.391 . S
C62 H118 0.947 . S
C62 C119 1.392 . S
C63 C64 1.391 . S
C63 C67 1.397 . S
C63 C119 1.419 . S
C64 C60 1.391 . S
C64 C63 1.391 . S
C64 C65 1.399 . S
C65 C64 1.399 . S
C65 C68 1.396 . S
C65 C77 1.453 . S
C65 C78 1.684 . S
H66 C90 0.948 . S
C67 C63 1.397 . S
C67 C68 1.394 . S
C67 C86 1.723 . S
C68 C65 1.396 . S
C68 C67 1.394 . S
C68 C98 1.723 . S
H69 C92 0.947 . S
H70 C93 0.948 . S
H71 C99 0.982 . S
H72 C100 0.979 . S
H73 C100 0.980 . S
H74 C100 0.983 . S
H75 C99 0.979 . S
H76 C99 0.977 . S
C77 C65 1.453 . S
C77 H106 0.982 . S
C77 H107 0.979 . S
C77 H108 0.977 . S
C78 C65 1.684 . S
C78 H103 0.979 . S
C78 H104 0.980 . S
C78 H105 0.983 . S
C79 C80 1.391 . S
C79 C84 1.391 . S
C79 H109 0.948 . S
C80 C79 1.391 . S
C80 C81 1.391 . S
C81 C80 1.391 . S
C81 C82 1.392 . S
C81 H110 0.947 . S
C82 C81 1.392 . S
C82 C83 1.419 . S
C82 H111 0.948 . S
C83 C82 1.419 . S
C83 C84 1.391 . S
C83 C87 1.397 . S
C84 C79 1.391 . S
C84 C83 1.391 . S
C84 C85 1.399 . S
C85 C84 1.399 . S
C85 C86 1.396 . S
C85 C88 1.453 . S
C85 C89 1.684 . S
C86 C67 1.723 . S
C86 C85 1.396 . S
C86 C87 1.394 . S
C87 C83 1.397 . S
C87 C86 1.394 . S
C87 C97 1.723 . S
C88 C85 1.453 . S
C88 H112 0.982 . S
C88 H113 0.979 . S
C88 H114 0.977 . S
C89 C85 1.684 . S
C89 H115 0.979 . S
C89 H116 0.980 . S
C89 H117 0.983 . S
C90 H66 0.948 . S
C90 C91 1.391 . S
C90 C95 1.391 . S
C91 C90 1.391 . S
C91 C92 1.391 . S
C92 H69 0.947 . S
C92 C91 1.391 . S
C92 C93 1.392 . S
C93 H70 0.948 . S
C93 C92 1.392 . S
C93 C94 1.419 . S
C94 C93 1.419 . S
C94 C95 1.391 . S
C94 C98 1.397 . S
C95 C90 1.391 . S
C95 C94 1.391 . S
C95 C96 1.399 . S
C96 C95 1.399 . S
C96 C97 1.396 . S
C96 C99 1.453 . S
C96 C100 1.684 . S
C97 C87 1.723 . S
C97 C96 1.396 . S
C97 C98 1.394 . S
C98 C68 1.723 . S
C98 C94 1.397 . S
C98 C97 1.394 . S
C99 H71 0.982 . S
C99 H75 0.979 . S
C99 H76 0.977 . S
C99 C96 1.453 . S
C100 H72 0.979 . S
C100 H73 0.980 . S
C100 H74 0.983 . S
C100 C96 1.684 . S
H101 C119 0.948 . S
H102 C60 0.948 . S
H103 C78 0.979 . S
H104 C78 0.980 . S
H105 C78 0.983 . S
H106 C77 0.982 . S
H107 C77 0.979 . S
H108 C77 0.977 . S
H109 C79 0.948 . S
H110 C81 0.947 . S
H111 C82 0.948 . S
H112 C88 0.982 . S
H113 C88 0.979 . S
H114 C88 0.977 . S
H115 C89 0.979 . S
H116 C89 0.980 . S
H117 C89 0.983 . S
H118 C62 0.947 . S
C119 C62 1.392 . S
C119 C63 1.419 . S
C119 H101 0.948 . S
C120 C121 1.391 . S
C120 C124 1.391 . S
C120 H162 0.948 . S
C121 C120 1.391 . S
C121 C122 1.391 . S
C122 C121 1.391 . S
C122 H178 0.947 . S
C122 C179 1.392 . S
C123 C124 1.391 . S
C123 C127 1.397 . S
C123 C179 1.419 . S
C124 C120 1.391 . S
C124 C123 1.391 . S
C124 C125 1.399 . S
C125 C124 1.399 . S
C125 C128 1.396 . S
C125 C137 1.453 . S
C125 C138 1.684 . S
H126 C150 0.948 . S
C127 C123 1.397 . S
C127 C128 1.394 . S
C127 C146 1.723 . S
C128 C125 1.396 . S
C128 C127 1.394 . S
C128 C158 1.723 . S
H129 C152 0.947 . S
H130 C153 0.948 . S
H131 C159 0.982 . S
H132 C160 0.979 . S
H133 C160 0.980 . S
H134 C160 0.983 . S
H135 C159 0.979 . S
H136 C159 0.977 . S
C137 C125 1.453 . S
C137 H166 0.982 . S
C137 H167 0.979 . S
C137 H168 0.977 . S
C138 C125 1.684 . S
C138 H163 0.979 . S
C138 H164 0.980 . S
C138 H165 0.983 . S
C139 C140 1.391 . S
C139 C144 1.391 . S
C139 H169 0.948 . S
C140 C139 1.391 . S
C140 C141 1.391 . S
C141 C140 1.391 . S
C141 C142 1.392 . S
C141 H170 0.947 . S
C142 C141 1.392 . S
C142 C143 1.419 . S
C142 H171 0.948 . S
C143 C142 1.419 . S
C143 C144 1.391 . S
C143 C147 1.397 . S
C144 C139 1.391 . S
C144 C143 1.391 . S
C144 C145 1.399 . S
C145 C144 1.399 . S
C145 C146 1.396 . S
C145 C148 1.453 . S
C145 C149 1.684 . S
C146 C127 1.723 . S
C146 C145 1.396 . S
C146 C147 1.394 . S
C147 C143 1.397 . S
C147 C146 1.394 . S
C147 C157 1.723 . S
C148 C145 1.453 . S
C148 H172 0.982 . S
C148 H173 0.979 . S
C148 H174 0.977 . S
C149 C145 1.684 . S
C149 H175 0.979 . S
C149 H176 0.980 . S
C149 H177 0.983 . S
C150 H126 0.948 . S
C150 C151 1.391 . S
C150 C155 1.391 . S
C151 C150 1.391 . S
C151 C152 1.391 . S
C152 H129 0.947 . S
C152 C151 1.391 . S
C152 C153 1.392 . S
C153 H130 0.948 . S
C153 C152 1.392 . S
C153 C154 1.419 . S
C154 C153 1.419 . S
C154 C155 1.391 . S
C154 C158 1.397 . S
C155 C150 1.391 . S
C155 C154 1.391 . S
C155 C156 1.399 . S
C156 C155 1.399 . S
C156 C157 1.396 . S
C156 C159 1.453 . S
C156 C160 1.684 . S
C157 C147 1.723 . S
C157 C156 1.396 . S
C157 C158 1.394 . S
C158 C128 1.723 . S
C158 C154 1.397 . S
C158 C157 1.394 . S
C159 H131 0.982 . S
C159 H135 0.979 . S
C159 H136 0.977 . S
C159 C156 1.453 . S
C160 H132 0.979 . S
C160 H133 0.980 . S
C160 H134 0.983 . S
C160 C156 1.684 . S
H161 C179 0.948 . S
H162 C120 0.948 . S
H163 C138 0.979 . S
H164 C138 0.980 . S
H165 C138 0.983 . S
H166 C137 0.982 . S
H167 C137 0.979 . S
H168 C137 0.977 . S
H169 C139 0.948 . S
H170 C141 0.947 . S
H171 C142 0.948 . S
H172 C148 0.982 . S
H173 C148 0.979 . S
H174 C148 0.977 . S
H175 C149 0.979 . S
H176 C149 0.980 . S
H177 C149 0.983 . S
H178 C122 0.947 . S
C179 C122 1.392 . S
C179 C123 1.419 . S
C179 H161 0.948 . S
C180 C181 1.391 . S
C180 C184 1.391 . S
C180 H222 0.948 . S
C181 C180 1.391 . S
C181 C182 1.391 . S
C182 C181 1.391 . S
C182 H238 0.947 . S
C182 C239 1.392 . S
C183 C184 1.391 . S
C183 C187 1.397 . S
C183 C239 1.419 . S
C184 C180 1.391 . S
C184 C183 1.391 . S
C184 C185 1.399 . S
C185 C184 1.399 . S
C185 C188 1.396 . S
C185 C197 1.453 . S
C185 C198 1.684 . S
H186 C210 0.948 . S
C187 C183 1.397 . S
C187 C188 1.394 . S
C187 C206 1.723 . S
C188 C185 1.396 . S
C188 C187 1.394 . S
C188 C218 1.723 . S
H189 C212 0.947 . S
H190 C213 0.948 . S
H191 C219 0.982 . S
H192 C220 0.979 . S
H193 C220 0.980 . S
H194 C220 0.983 . S
H195 C219 0.979 . S
H196 C219 0.977 . S
C197 C185 1.453 . S
C197 H226 0.982 . S
C197 H227 0.979 . S
C197 H228 0.977 . S
C198 C185 1.684 . S
C198 H223 0.979 . S
C198 H224 0.980 . S
C198 H225 0.983 . S
C199 C200 1.391 . S
C199 C204 1.391 . S
C199 H229 0.948 . S
C200 C199 1.391 . S
C200 C201 1.391 . S
C201 C200 1.391 . S
C201 C202 1.392 . S
C201 H230 0.947 . S
C202 C201 1.392 . S
C202 C203 1.419 . S
C202 H231 0.948 . S
C203 C202 1.419 . S
C203 C204 1.391 . S
C203 C207 1.397 . S
C204 C199 1.391 . S
C204 C203 1.391 . S
C204 C205 1.399 . S
C205 C204 1.399 . S
C205 C206 1.396 . S
C205 C208 1.453 . S
C205 C209 1.684 . S
C206 C187 1.723 . S
C206 C205 1.396 . S
C206 C207 1.394 . S
C207 C203 1.397 . S
C207 C206 1.394 . S
C207 C217 1.723 . S
C208 C205 1.453 . S
C208 H232 0.982 . S
C208 H233 0.979 . S
C208 H234 0.977 . S
C209 C205 1.684 . S
C209 H235 0.979 . S
C209 H236 0.980 . S
C209 H237 0.983 . S
C210 H186 0.948 . S
C210 C211 1.391 . S
C210 C215 1.391 . S
C211 C210 1.391 . S
C211 C212 1.391 . S
C212 H189 0.947 . S
C212 C211 1.391 . S
C212 C213 1.392 . S
C213 H190 0.948 . S
C213 C212 1.392 . S
C213 C214 1.419 . S
C214 C213 1.419 . S
C214 C215 1.391 . S
C214 C218 1.397 . S
C215 C210 1.391 . S
C215 C214 1.391 . S
C215 C216 1.399 . S
C216 C215 1.399 . S
C216 C217 1.396 . S
C216 C219 1.453 . S
C216 C220 1.684 . S
C217 C207 1.723 . S
C217 C216 1.396 . S
C217 C218 1.394 . S
C218 C188 1.723 . S
C218 C214 1.397 . S
C218 C217 1.394 . S
C219 H191 0.982 . S
C219 H195 0.979 . S
C219 H196 0.977 . S
C219 C216 1.453 . S
C220 H192 0.979 . S
C220 H193 0.980 . S
C220 H194 0.983 . S
C220 C216 1.684 . S
H221 C239 0.948 . S
H222 C180 0.948 . S
H223 C198 0.979 . S
H224 C198 0.980 . S
H225 C198 0.983 . S
H226 C197 0.982 . S
H227 C197 0.979 . S
H228 C197 0.977 . S
H229 C199 0.948 . S
H230 C201 0.947 . S
H231 C202 0.948 . S
H232 C208 0.982 . S
H233 C208 0.979 . S
H234 C208 0.977 . S
H235 C209 0.979 . S
H236 C209 0.980 . S
H237 C209 0.983 . S
H238 C182 0.947 . S
C239 C182 1.392 . S
C239 C183 1.419 . S
C239 H221 0.948 . S
C240 C241 1.391 . S
C240 C244 1.391 . S
C240 H282 0.948 . S
C241 C240 1.391 . S
C241 C242 1.391 . S
C242 C241 1.391 . S
C242 H298 0.947 . S
C242 C299 1.392 . S
C243 C244 1.391 . S
C243 C247 1.397 . S
C243 C299 1.419 . S
C244 C240 1.391 . S
C244 C243 1.391 . S
C244 C245 1.399 . S
C245 C244 1.399 . S
C245 C248 1.396 . S
C245 C257 1.453 . S
C245 C258 1.684 . S
H246 C270 0.948 . S
C247 C243 1.397 . S
C247 C248 1.394 . S
C247 C266 1.723 . S
C248 C245 1.396 . S
C248 C247 1.394 . S
C248 C278 1.723 . S
H249 C272 0.947 . S
H250 C273 0.948 . S
H251 C279 0.982 . S
H252 C280 0.979 . S
H253 C280 0.980 . S
H254 C280 0.983 . S
H255 C279 0.979 . S
H256 C279 0.977 . S
C257 C245 1.453 . S
C257 H286 0.982 . S
C257 H287 0.979 . S
C257 H288 0.977 . S
C258 C245 1.684 . S
C258 H283 0.979 . S
C258 H284 0.980 . S
C258 H285 0.983 . S
C259 C260 1.391 . S
C259 C264 1.391 . S
C259 H289 0.948 . S
C260 C259 1.391 . S
C260 C261 1.391 . S
C261 C260 1.391 . S
C261 C262 1.392 . S
C261 H290 0.947 . S
C262 C261 1.392 . S
C262 C263 1.419 . S
C262 H291 0.948 . S
C263 C262 1.419 . S
C263 C264 1.391 . S
C263 C267 1.397 . S
C264 C259 1.391 . S
C264 C263 1.391 . S
C264 C265 1.399 . S
C265 C264 1.399 . S
C265 C266 1.396 . S
C265 C268 1.453 . S
C265 C269 1.684 . S
C266 C247 1.723 . S
C266 C265 1.396 . S
C266 C267 1.394 . S
C267 C263 1.397 . S
C267 C266 1.394 . S
C267 C277 1.723 . S
C268 C265 1.453 . S
C268 H292 0.982 . S
C268 H293 0.979 . S
C268 H294 0.977 . S
C269 C265 1.684 . S
C269 H295 0.979 . S
C269 H296 0.980 . S
C269 H297 0.983 . S
C270 H246 0.948 . S
C270 C271 1.391 . S
C270 C275 1.391 . S
C271 C270 1.391 . S
C271 C272 1.391 . S
C272 H249 0.947 . S
C272 C271 1.391 . S
C272 C273 1.392 . S
C273 H250 0.948 . S
C273 C272 1.392 . S
C273 C274 1.419 . S
C274 C273 1.419 . S
C274 C275 1.391 . S
C274 C278 1.397 . S
C275 C270 1.391 . S
C275 C274 1.391 . S
C275 C276 1.399 . S
C276 C275 1.399 . S
C276 C277 1.396 . S
C276 C279 1.453 . S
C276 C280 1.684 . S
C277 C267 1.723 . S
C277 C276 1.396 . S
C277 C278 1.394 . S
C278 C248 1.723 . S
C278 C274 1.397 . S
C278 C277 1.394 . S
C279 H251 0.982 . S
C279 H255 0.979 . S
C279 H256 0.977 . S
C279 C276 1.453 . S
C280 H252 0.979 . S
C280 H253 0.980 . S
C280 H254 0.983 . S
C280 C276 1.684 . S
H281 C299 0.948 . S
H282 C240 0.948 . S
H283 C258 0.979 . S
H284 C258 0.980 . S
H285 C258 0.983 . S
H286 C257 0.982 . S
H287 C257 0.979 . S
H288 C257 0.977 . S
H289 C259 0.948 . S
H290 C261 0.947 . S
H291 C262 0.948 . S
H292 C268 0.982 . S
H293 C268 0.979 . S
H294 C268 0.977 . S
H295 C269 0.979 . S
H296 C269 0.980 . S
H297 C269 0.983 . S
H298 C242 0.947 . S
C299 C242 1.392 . S
C299 C243 1.419 . S
C299 H281 0.948 . S
C300 C301 1.391 . S
C300 C304 1.391 . S
C300 H342 0.948 . S
C301 C300 1.391 . S
C301 C302 1.391 . S
C302 C301 1.391 . S
C302 H358 0.947 . S
C302 C359 1.392 . S
C303 C304 1.391 . S
C303 C307 1.397 . S
C303 C359 1.419 . S
C304 C300 1.391 . S
C304 C303 1.391 . S
C304 C305 1.399 . S
C305 C304 1.399 . S
C305 C308 1.396 . S
C305 C317 1.453 . S
C305 C318 1.684 . S
H306 C330 0.948 . S
C307 C303 1.397 . S
C307 C308 1.394 . S
C307 C326 1.723 . S
C308 C305 1.396 . S
C308 C307 1.394 . S
C308 C338 1.723 . S
H309 C332 0.947 . S
H310 C333 0.948 . S
H311 C339 0.982 . S
H312 C340 0.979 . S
H313 C340 0.980 . S
H314 C340 0.983 . S
H315 C339 0.979 . S
H316 C339 0.977 . S
C317 C305 1.453 . S
C317 H346 0.982 . S
C317 H347 0.979 . S
C317 H348 0.977 . S
C318 C305 1.684 . S
C318 H343 0.979 . S
C318 H344 0.980 . S
C318 H345 0.983 . S
C319 C320 1.391 . S
C319 C324 1.391 . S
C319 H349 0.948 . S
C320 C319 1.391 . S
C320 C321 1.391 . S
C321 C320 1.391 . S
C321 C322 1.392 . S
C321 H350 0.947 . S
C322 C321 1.392 . S
C322 C323 1.419 . S
C322 H351 0.948 . S
C323 C322 1.419 . S
C323 C324 1.391 . S
C323 C327 1.397 . S
C324 C319 1.391 . S
C324 C323 1.391 . S
C324 C325 1.399 . S
C325 C324 1.399 . S
C325 C326 1.396 . S
C325 C328 1.453 . S
C325 C329 1.684 . S
C326 C307 1.723 . S
C326 C325 1.396 . S
C326 C327 1.394 . S
C327 C323 1.397 . S
C327 C326 1.394 . S
C327 C337 1.723 . S
C328 C325 1.453 . S
C328 H352 0.982 . S
C328 H353 0.979 . S
C328 H354 0.977 . S
C329 C325 1.684 . S
C329 H355 0.979 . S
C329 H356 0.980 . S
C329 H357 0.983 . S
C330 H306 0.948 . S
C330 C331 1.391 . S
C330 C335 1.391 . S
C331 C330 1.391 . S
C331 C332 1.391 . S
C332 H309 0.947 . S
C332 C331 1.391 . S
C332 C333 1.392 . S
C333 H310 0.948 . S
C333 C332 1.392 . S
C333 C334 1.419 . S
C334 C333 1.419 . S
C334 C335 1.391 . S
C334 C338 1.397 . S
C335 C330 1.391 . S
C335 C334 1.391 . S
C335 C336 1.399 . S
C336 C335 1.399 . S
C336 C337 1.396 . S
C336 C339 1.453 . S
C336 C340 1.684 . S
C337 C327 1.723 . S
C337 C336 1.396 . S
C337 C338 1.394 . S
C338 C308 1.723 . S
C338 C334 1.397 . S
C338 C337 1.394 . S
C339 H311 0.982 . S
C339 H315 0.979 . S
C339 H316 0.977 . S
C339 C336 1.453 . S
C340 H312 0.979 . S
C340 H313 0.980 . S
C340 H314 0.983 . S
C340 C336 1.684 . S
H341 C359 0.948 . S
H342 C300 0.948 . S
H343 C318 0.979 . S
H344 C318 0.980 . S
H345 C318 0.983 . S
H346 C317 0.982 . S
H347 C317 0.979 . S
H348 C317 0.977 . S
H349 C319 0.948 . S
H350 C321 0.947 . S
H351 C322 0.948 . S
H352 C328 0.982 . S
H353 C328 0.979 . S
H354 C328 0.977 . S
H355 C329 0.979 . S
H356 C329 0.980 . S
H357 C329 0.983 . S
H358 C302 0.947 . S
C359 C302 1.392 . S
C359 C303 1.419 . S
C359 H341 0.948 . S
C360 C361 1.391 . S
C360 C364 1.391 . S
C360 H402 0.948 . S
C361 C360 1.391 . S
C361 C362 1.391 . S
C362 C361 1.391 . S
C362 H418 0.947 . S
C362 C419 1.392 . S
C363 C364 1.391 . S
C363 C367 1.397 . S
C363 C419 1.419 . S
C364 C360 1.391 . S
C364 C363 1.391 . S
C364 C365 1.399 . S
C365 C364 1.399 . S
C365 C368 1.396 . S
C365 C377 1.453 . S
C365 C378 1.684 . S
H366 C390 0.948 . S
C367 C363 1.397 . S
C367 C368 1.394 . S
C367 C386 1.723 . S
C368 C365 1.396 . S
C368 C367 1.394 . S
C368 C398 1.723 . S
H369 C392 0.947 . S
H370 C393 0.948 . S
H371 C399 0.982 . S
H372 C400 0.979 . S
H373 C400 0.980 . S
H374 C400 0.983 . S
H375 C399 0.979 . S
H376 C399 0.977 . S
C377 C365 1.453 . S
C377 H406 0.982 . S
C377 H407 0.979 . S
C377 H408 0.977 . S
C378 C365 1.684 . S
C378 H403 0.979 . S
C378 H404 0.980 . S
C378 H405 0.983 . S
C379 C380 1.391 . S
C379 C384 1.391 . S
C379 H409 0.948 . S
C380 C379 1.391 . S
C380 C381 1.391 . S
C381 C380 1.391 . S
C381 C382 1.392 . S
C381 H410 0.947 . S
C382 C381 1.392 . S
C382 C383 1.419 . S
C382 H411 0.948 . S
C383 C382 1.419 . S
C383 C384 1.391 . S
C383 C387 1.397 . S
C384 C379 1.391 . S
C384 C383 1.391 . S
C384 C385 1.399 . S
C385 C384 1.399 . S
C385 C386 1.396 . S
C385 C388 1.453 . S
C385 C389 1.684 . S
C386 C367 1.723 . S
C386 C385 1.396 . S
C386 C387 1.394 . S
C387 C383 1.397 . S
C387 C386 1.394 . S
C387 C397 1.723 . S
C388 C385 1.453 . S
C388 H412 0.982 . S
C388 H413 0.979 . S
C388 H414 0.977 . S
C389 C385 1.684 . S
C389 H415 0.979 . S
C389 H416 0.980 . S
C389 H417 0.983 . S
C390 H366 0.948 . S
C390 C391 1.391 . S
C390 C395 1.391 . S
C391 C390 1.391 . S
C391 C392 1.391 . S
C392 H369 0.947 . S
C392 C391 1.391 . S
C392 C393 1.392 . S
C393 H370 0.948 . S
C393 C392 1.392 . S
C393 C394 1.419 . S
C394 C393 1.419 . S
C394 C395 1.391 . S
C394 C398 1.397 . S
C395 C390 1.391 . S
C395 C394 1.391 . S
C395 C396 1.399 . S
C396 C395 1.399 . S
C396 C397 1.396 . S
C396 C399 1.453 . S
C396 C400 1.684 . S
C397 C387 1.723 . S
C397 C396 1.396 . S
C397 C398 1.394 . S
C398 C368 1.723 . S
C398 C394 1.397 . S
C398 C397 1.394 . S
C399 H371 0.982 . S
C399 H375 0.979 . S
C399 H376 0.977 . S
C399 C396 1.453 . S
C400 H372 0.979 . S
C400 H373 0.980 . S
C400 H374 0.983 . S
C400 C396 1.684 . S
H401 C419 0.948 . S
H402 C360 0.948 . S
H403 C378 0.979 . S
H404 C378 0.980 . S
H405 C378 0.983 . S
H406 C377 0.982 . S
H407 C377 0.979 . S
H408 C377 0.977 . S
H409 C379 0.948 . S
H410 C381 0.947 . S
H411 C382 0.948 . S
H412 C388 0.982 . S
H413 C388 0.979 . S
H414 C388 0.977 . S
H415 C389 0.979 . S
H416 C389 0.980 . S
H417 C389 0.983 . S
H418 C362 0.947 . S
C419 C362 1.392 . S
C419 C363 1.419 . S
C419 H401 0.948 . S
C420 C421 1.391 . S
C420 C424 1.391 . S
C420 H462 0.948 . S
C421 C420 1.391 . S
C421 C422 1.391 . S
C422 C421 1.391 . S
C422 H478 0.947 . S
C422 C479 1.392 . S
C423 C424 1.391 . S
C423 C427 1.397 . S
C423 C479 1.419 . S
C424 C420 1.391 . S
C424 C423 1.391 . S
C424 C425 1.399 . S
C425 C424 1.399 . S
C425 C428 1.396 . S
C425 C437 1.453 . S
C425 C438 1.684 . S
H426 C450 0.948 . S
C427 C423 1.397 . S
C427 C428 1.394 . S
C427 C446 1.723 . S
C428 C425 1.396 . S
C428 C427 1.394 . S
C428 C458 1.723 . S
H429 C452 0.947 . S
H430 C453 0.948 . S
H431 C459 0.982 . S
H432 C460 0.979 . S
H433 C460 0.980 . S
H434 C460 0.983 . S
H435 C459 0.979 . S
H436 C459 0.977 . S
C437 C425 1.453 . S
C437 H466 0.982 . S
C437 H467 0.979 . S
C437 H468 0.977 . S
C438 C425 1.684 . S
C438 H463 0.979 . S
C438 H464 0.980 . S
C438 H465 0.983 . S
C439 C440 1.391 . S
C439 C444 1.391 . S
C439 H469 0.948 . S
C440 C439 1.391 . S
C440 C441 1.391 . S
C441 C440 1.391 . S
C441 C442 1.392 . S
C441 H470 0.947 . S
C442 C441 1.392 . S
C442 C443 1.419 . S
C442 H471 0.948 . S
C443 C442 1.419 . S
C443 C444 1.391 . S
C443 C447 1.397 . S
C444 C439 1.391 . S
C444 C443 1.391 . S
C444 C445 1.399 . S
C445 C444 1.399 . S
C445 C446 1.396 . S
C445 C448 1.453 . S
C445 C449 1.684 . S
C446 C427 1.723 . S
C446 C445 1.396 . S
C446 C447 1.394 . S
C447 C443 1.397 . S
C447 C446 1.394 . S
C447 C457 1.723 . S
C448 C445 1.453 . S
C448 H472 0.982 . S
C448 H473 0.979 . S
C448 H474 0.977 . S
C449 C445 1.684 . S
C449 H475 0.979 . S
C449 H476 0.980 . S
C449 H477 0.983 . S
C450 H426 0.948 . S
C450 C451 1.391 . S
C450 C455 1.391 . S
C451 C450 1.391 . S
C451 C452 1.391 . S
C452 H429 0.947 . S
C452 C451 1.391 . S
C452 C453 1.392 . S
C453 H430 0.948 . S
C453 C452 1.392 . S
C453 C454 1.419 . S
C454 C453 1.419 . S
C454 C455 1.391 . S
C454 C458 1.397 . S
C455 C450 1.391 . S
C455 C454 1.391 . S
C455 C456 1.399 . S
C456 C455 1.399 . S
C456 C457 1.396 . S
C456 C459 1.453 . S
C456 C460 1.684 . S
C457 C447 1.723 . S
C457 C456 1.396 . S
C457 C458 1.394 . S
C458 C428 1.723 . S
C458 C454 1.397 . S
C458 C457 1.394 . S
C459 H431 0.982 . S
C459 H435 0.979 . S
C459 H436 0.977 . S
C459 C456 1.453 . S
C460 H432 0.979 . S
C460 H433 0.980 . S
C460 H434 0.983 . S
C460 C456 1.684 . S
H461 C479 0.948 . S
H462 C420 0.948 . S
H463 C438 0.979 . S
H464 C438 0.980 . S
H465 C438 0.983 . S
H466 C437 0.982 . S
H467 C437 0.979 . S
H468 C437 0.977 . S
H469 C439 0.948 . S
H470 C441 0.947 . S
H471 C442 0.948 . S
H472 C448 0.982 . S
H473 C448 0.979 . S
H474 C448 0.977 . S
H475 C449 0.979 . S
H476 C449 0.980 . S
H477 C449 0.983 . S
H478 C422 0.947 . S
C479 C422 1.392 . S
C479 C423 1.419 . S
C479 H461 0.948 . S
Sm480 C482 2.846 . S
Sm480 O500 2.543 . S
Sm480 O501 2.450 . S
Sm480 O502 2.681 1_545 S
Sm480 O503 2.464 1_545 S
Sm480 O504 2.396 . S
Sm480 O508 2.386 1_455 S
Sm480 O511 2.408 1_445 S
Sm481 C491 2.846 . S
Sm481 O502 2.386 1_655 S
Sm481 O505 2.408 1_665 S
Sm481 O506 2.543 . S
Sm481 O507 2.450 . S
Sm481 O508 2.681 1_565 S
Sm481 O509 2.464 1_565 S
Sm481 O510 2.396 . S
C482 Sm480 2.846 . S
C482 C483 1.506 . S
C482 O500 1.261 . S
C482 O501 1.242 . S
C483 C482 1.506 . S
C483 C484 1.358 . S
C483 C488 1.382 . S
C484 C483 1.358 . S
C484 C485 1.385 . S
C484 H512 0.930 . S
C485 C484 1.385 . S
C485 C486 1.395 . S
C485 H513 0.929 . S
C486 C485 1.395 . S
C486 C487 1.335 . S
C487 C486 1.335 . S
C487 C488 1.398 . S
C487 H514 0.930 . S
C488 C483 1.382 . S
C488 C487 1.398 . S
C488 H515 0.929 . S
C489 O502 1.271 . S
C489 O503 1.251 . S
C490 O504 1.252 . S
C490 O505 1.272 . S
C491 Sm481 2.846 . S
C491 C492 1.506 . S
C491 O506 1.261 . S
C491 O507 1.242 . S
C492 C491 1.506 . S
C492 C493 1.358 . S
C492 C497 1.382 . S
C493 C492 1.358 . S
C493 C494 1.385 . S
C493 H516 0.930 . S
C494 C493 1.385 . S
C494 C495 1.395 . S
C494 H517 0.929 . S
C495 C494 1.395 . S
C495 C496 1.335 . S
C496 C495 1.335 . S
C496 C497 1.398 . S
C496 H518 0.930 . S
C497 C492 1.382 . S
C497 C496 1.398 . S
C497 H519 0.929 . S
C498 O508 1.271 . S
C498 O509 1.251 . S
C499 O510 1.252 . S
C499 O511 1.272 . S
O500 Sm480 2.543 . S
O500 C482 1.261 . S
O501 Sm480 2.450 . S
O501 C482 1.242 . S
O502 Sm480 2.681 1_565 S
O502 Sm481 2.386 1_455 S
O502 C489 1.271 . S
O503 Sm480 2.464 1_565 S
O503 C489 1.251 . S
O504 Sm480 2.396 . S
O504 C490 1.252 . S
O505 Sm481 2.408 1_445 S
O505 C490 1.272 . S
O506 Sm481 2.543 . S
O506 C491 1.261 . S
O507 Sm481 2.450 . S
O507 C491 1.242 . S
O508 Sm480 2.386 1_655 S
O508 Sm481 2.681 1_545 S
O508 C498 1.271 . S
O509 Sm481 2.464 1_545 S
O509 C498 1.251 . S
O510 Sm481 2.396 . S
O510 C499 1.252 . S
O511 Sm480 2.408 1_665 S
O511 C499 1.272 . S
H512 C484 0.930 . S
H513 C485 0.929 . S
H514 C487 0.930 . S
H515 C488 0.929 . S
H516 C493 0.930 . S
H517 C494 0.929 . S
H518 C496 0.930 . S
H519 C497 0.929 . S
Sm520 C522 2.846 1_565 S
Sm520 O540 2.543 1_565 S
Sm520 O541 2.450 1_565 S
Sm520 O542 2.681 . S
Sm520 O543 2.464 . S
Sm520 O544 2.396 1_565 S
Sm520 O548 2.386 1_564 S
Sm520 O551 2.408 1_554 S
Sm521 C531 2.846 1_545 S
Sm521 O542 2.386 1_546 S
Sm521 O545 2.408 1_556 S
Sm521 O546 2.543 1_545 S
Sm521 O547 2.450 1_545 S
Sm521 O548 2.681 . S
Sm521 O549 2.464 . S
Sm521 O550 2.396 1_545 S
C522 Sm520 2.846 1_545 S
C522 C523 1.506 . S
C522 O540 1.261 . S
C522 O541 1.242 . S
C523 C522 1.506 . S
C523 C524 1.358 . S
C523 C528 1.382 . S
C524 C523 1.358 . S
C524 C525 1.385 . S
C524 H552 0.930 . S
C525 C524 1.385 . S
C525 C526 1.395 . S
C525 H553 0.929 . S
C526 C525 1.395 . S
C526 C527 1.335 . S
C527 C526 1.335 . S
C527 C528 1.398 . S
C527 H554 0.930 . S
C528 C523 1.382 . S
C528 C527 1.398 . S
C528 H555 0.929 . S
C529 O542 1.271 . S
C529 O543 1.251 . S
C530 O544 1.252 . S
C530 O545 1.272 . S
C531 Sm521 2.846 1_565 S
C531 C532 1.506 . S
C531 O546 1.261 . S
C531 O547 1.242 . S
C532 C531 1.506 . S
C532 C533 1.358 . S
C532 C537 1.382 . S
C533 C532 1.358 . S
C533 C534 1.385 . S
C533 H556 0.930 . S
C534 C533 1.385 . S
C534 C535 1.395 . S
C534 H557 0.929 . S
C535 C534 1.395 . S
C535 C536 1.335 . S
C536 C535 1.335 . S
C536 C537 1.398 . S
C536 H558 0.930 . S
C537 C532 1.382 . S
C537 C536 1.398 . S
C537 H559 0.929 . S
C538 O548 1.271 . S
C538 O549 1.251 . S
C539 O550 1.252 . S
C539 O551 1.272 . S
O540 Sm520 2.543 1_545 S
O540 C522 1.261 . S
O541 Sm520 2.450 1_545 S
O541 C522 1.242 . S
O542 Sm520 2.681 . S
O542 Sm521 2.386 1_564 S
O542 C529 1.271 . S
O543 Sm520 2.464 . S
O543 C529 1.251 . S
O544 Sm520 2.396 1_545 S
O544 C530 1.252 . S
O545 Sm521 2.408 1_554 S
O545 C530 1.272 . S
O546 Sm521 2.543 1_565 S
O546 C531 1.261 . S
O547 Sm521 2.450 1_565 S
O547 C531 1.242 . S
O548 Sm520 2.386 1_546 S
O548 Sm521 2.681 . S
O548 C538 1.271 . S
O549 Sm521 2.464 . S
O549 C538 1.251 . S
O550 Sm521 2.396 1_565 S
O550 C539 1.252 . S
O551 Sm520 2.408 1_556 S
O551 C539 1.272 . S
H552 C524 0.930 . S
H553 C525 0.929 . S
H554 C527 0.930 . S
H555 C528 0.929 . S
H556 C533 0.930 . S
H557 C534 0.929 . S
H558 C536 0.930 . S
H559 C537 0.929 . S
Sm560 C562 2.846 . S
Sm560 O580 2.543 . S
Sm560 O581 2.450 . S
Sm560 O582 2.681 . S
Sm560 O583 2.464 . S
Sm560 O584 2.396 . S
Sm560 O588 2.386 . S
Sm560 O591 2.408 . S
Sm561 C571 2.846 . S
Sm561 O582 2.386 . S
Sm561 O585 2.408 . S
Sm561 O586 2.543 . S
Sm561 O587 2.450 . S
Sm561 O588 2.681 . S
Sm561 O589 2.464 . S
Sm561 O590 2.396 . S
C562 Sm560 2.846 . S
C562 C563 1.506 . S
C562 O580 1.261 . S
C562 O581 1.242 . S
C563 C562 1.506 . S
C563 C564 1.358 . S
C563 C568 1.382 . S
C564 C563 1.358 . S
C564 C565 1.385 . S
C564 H592 0.930 . S
C565 C564 1.385 . S
C565 C566 1.395 . S
C565 H593 0.929 . S
C566 C565 1.395 . S
C566 C567 1.335 . S
C567 C566 1.335 . S
C567 C568 1.398 . S
C567 H594 0.930 . S
C568 C563 1.382 . S
C568 C567 1.398 . S
C568 H595 0.929 . S
C569 O582 1.271 . S
C569 O583 1.251 . S
C570 O584 1.252 . S
C570 O585 1.272 . S
C571 Sm561 2.846 . S
C571 C572 1.506 . S
C571 O586 1.261 . S
C571 O587 1.242 . S
C572 C571 1.506 . S
C572 C573 1.358 . S
C572 C577 1.382 . S
C573 C572 1.358 . S
C573 C574 1.385 . S
C573 H596 0.930 . S
C574 C573 1.385 . S
C574 C575 1.395 . S
C574 H597 0.929 . S
C575 C574 1.395 . S
C575 C576 1.335 . S
C576 C575 1.335 . S
C576 C577 1.398 . S
C576 H598 0.930 . S
C577 C572 1.382 . S
C577 C576 1.398 . S
C577 H599 0.929 . S
C578 O588 1.271 . S
C578 O589 1.251 . S
C579 O590 1.252 . S
C579 O591 1.272 . S
O580 Sm560 2.543 . S
O580 C562 1.261 . S
O581 Sm560 2.450 . S
O581 C562 1.242 . S
O582 Sm560 2.681 . S
O582 Sm561 2.386 . S
O582 C569 1.271 . S
O583 Sm560 2.464 . S
O583 C569 1.251 . S
O584 Sm560 2.396 . S
O584 C570 1.252 . S
O585 Sm561 2.408 . S
O585 C570 1.272 . S
O586 Sm561 2.543 . S
O586 C571 1.261 . S
O587 Sm561 2.450 . S
O587 C571 1.242 . S
O588 Sm560 2.386 . S
O588 Sm561 2.681 . S
O588 C578 1.271 . S
O589 Sm561 2.464 . S
O589 C578 1.251 . S
O590 Sm561 2.396 . S
O590 C579 1.252 . S
O591 Sm560 2.408 . S
O591 C579 1.272 . S
H592 C564 0.930 . S
H593 C565 0.929 . S
H594 C567 0.930 . S
H595 C568 0.929 . S
H596 C573 0.930 . S
H597 C574 0.929 . S
H598 C576 0.930 . S
H599 C577 0.929 . S
Sm600 C602 2.846 . S
Sm600 O620 2.543 . S
Sm600 O621 2.450 . S
Sm600 O622 2.681 1_455 S
Sm600 O623 2.464 1_455 S
Sm600 O624 2.396 . S
Sm600 O628 2.386 1_554 S
Sm600 O631 2.408 1_454 S
Sm601 C611 2.846 . S
Sm601 O622 2.386 1_556 S
Sm601 O625 2.408 1_656 S
Sm601 O626 2.543 . S
Sm601 O627 2.450 . S
Sm601 O628 2.681 1_655 S
Sm601 O629 2.464 1_655 S
Sm601 O630 2.396 . S
C602 Sm600 2.846 . S
C602 C603 1.506 . S
C602 O620 1.261 . S
C602 O621 1.242 . S
C603 C602 1.506 . S
C603 C604 1.358 . S
C603 C608 1.382 . S
C604 C603 1.358 . S
C604 C605 1.385 . S
C604 H632 0.930 . S
C605 C604 1.385 . S
C605 C606 1.395 . S
C605 H633 0.929 . S
C606 C605 1.395 . S
C606 C607 1.335 . S
C607 C606 1.335 . S
C607 C608 1.398 . S
C607 H634 0.930 . S
C608 C603 1.382 . S
C608 C607 1.398 . S
C608 H635 0.929 . S
C609 O622 1.271 . S
C609 O623 1.251 . S
C610 O624 1.252 . S
C610 O625 1.272 . S
C611 Sm601 2.846 . S
C611 C612 1.506 . S
C611 O626 1.261 . S
C611 O627 1.242 . S
C612 C611 1.506 . S
C612 C613 1.358 . S
C612 C617 1.382 . S
C613 C612 1.358 . S
C613 C614 1.385 . S
C613 H636 0.930 . S
C614 C613 1.385 . S
C614 C615 1.395 . S
C614 H637 0.929 . S
C615 C614 1.395 . S
C615 C616 1.335 . S
C616 C615 1.335 . S
C616 C617 1.398 . S
C616 H638 0.930 . S
C617 C612 1.382 . S
C617 C616 1.398 . S
C617 H639 0.929 . S
C618 O628 1.271 . S
C618 O629 1.251 . S
C619 O630 1.252 . S
C619 O631 1.272 . S
O620 Sm600 2.543 . S
O620 C602 1.261 . S
O621 Sm600 2.450 . S
O621 C602 1.242 . S
O622 Sm600 2.681 1_655 S
O622 Sm601 2.386 1_554 S
O622 C609 1.271 . S
O623 Sm600 2.464 1_655 S
O623 C609 1.251 . S
O624 Sm600 2.396 . S
O624 C610 1.252 . S
O625 Sm601 2.408 1_454 S
O625 C610 1.272 . S
O626 Sm601 2.543 . S
O626 C611 1.261 . S
O627 Sm601 2.450 . S
O627 C611 1.242 . S
O628 Sm600 2.386 1_556 S
O628 Sm601 2.681 1_455 S
O628 C618 1.271 . S
O629 Sm601 2.464 1_455 S
O629 C618 1.251 . S
O630 Sm601 2.396 . S
O630 C619 1.252 . S
O631 Sm600 2.408 1_656 S
O631 C619 1.272 . S
H632 C604 0.930 . S
H633 C605 0.929 . S
H634 C607 0.930 . S
H635 C608 0.929 . S
H636 C613 0.930 . S
H637 C614 0.929 . S
H638 C616 0.930 . S
H639 C617 0.929 . S
C640 C641 1.369 . S
C640 C642 1.419 . S
C640 H644 0.930 . S
C641 C640 1.369 . S
C641 C650 1.429 . S
C642 C640 1.419 . S
C642 C643 1.363 . S
C642 H645 0.929 . S
C643 C642 1.363 . S
C643 C649 1.428 . S
H644 C640 0.930 . S
H645 C642 0.929 . S
S646 N647 1.613 . S
S646 N648 1.610 . S
N647 S646 1.613 . S
N647 C650 1.350 . S
N648 S646 1.610 . S
N648 C649 1.351 . S
C649 C643 1.428 . S
C649 N648 1.351 . S
C649 C650 1.434 . S
C650 C641 1.429 . S
C650 N647 1.350 . S
C650 C649 1.434 . S
C651 C652 1.369 . S
C651 C653 1.419 . S
C651 H655 0.930 . S
C652 C651 1.369 . S
C652 C661 1.429 . S
C653 C651 1.419 . S
C653 C654 1.363 . S
C653 H656 0.929 . S
C654 C653 1.363 . S
C654 C660 1.428 . S
H655 C651 0.930 . S
H656 C653 0.929 . S
S657 N658 1.613 . S
S657 N659 1.610 . S
N658 S657 1.613 . S
N658 C661 1.350 . S
N659 S657 1.610 . S
N659 C660 1.351 . S
C660 C654 1.428 . S
C660 N659 1.351 . S
C660 C661 1.434 . S
C661 C652 1.429 . S
C661 N658 1.350 . S
C661 C660 1.434 . S
C662 C663 1.369 . S
C662 C664 1.419 . S
C662 H666 0.930 . S
C663 C662 1.369 . S
C663 C672 1.429 . S
C664 C662 1.419 . S
C664 C665 1.363 . S
C664 H667 0.929 . S
C665 C664 1.363 . S
C665 C671 1.428 . S
H666 C662 0.930 . S
H667 C664 0.929 . S
S668 N669 1.613 . S
S668 N670 1.610 . S
N669 S668 1.613 . S
N669 C672 1.350 . S
N670 S668 1.610 . S
N670 C671 1.351 . S
C671 C665 1.428 . S
C671 N670 1.351 . S
C671 C672 1.434 . S
C672 C663 1.429 . S
C672 N669 1.350 . S
C672 C671 1.434 . S
C673 C674 1.369 . S
C673 C675 1.419 . S
C673 H677 0.930 . S
C674 C673 1.369 . S
C674 C683 1.429 . S
C675 C673 1.419 . S
C675 C676 1.363 . S
C675 H678 0.929 . S
C676 C675 1.363 . S
C676 C682 1.428 . S
H677 C673 0.930 . S
H678 C675 0.929 . S
S679 N680 1.613 1_455 S
S679 N681 1.605 1_455 S
N680 S679 1.613 1_655 S
N680 C683 1.350 . S
N681 S679 1.605 1_655 S
N681 C682 1.372 . S
C682 C676 1.428 . S
C682 N681 1.372 . S
C682 C683 1.434 . S
C683 C674 1.429 . S
C683 N680 1.350 . S
C683 C682 1.434 . S
C684 C685 1.369 . S
C684 C686 1.419 . S
C684 H688 0.930 . S
C685 C684 1.369 . S
C685 C694 1.429 . S
C686 C684 1.419 . S
C686 C687 1.363 . S
C686 H689 0.929 . S
C687 C686 1.363 . S
C687 C693 1.428 . S
H688 C684 0.930 . S
H689 C686 0.929 . S
S690 N691 1.613 . S
S690 N692 1.610 . S
N691 S690 1.613 . S
N691 C694 1.350 . S
N692 S690 1.610 . S
N692 C693 1.351 . S
C693 C687 1.428 . S
C693 N692 1.351 . S
C693 C694 1.434 . S
C694 C685 1.429 . S
C694 N691 1.350 . S
C694 C693 1.434 . S
C695 C696 1.369 . S
C695 C697 1.419 . S
C695 H699 0.930 . S
C696 C695 1.369 . S
C696 C705 1.429 . S
C697 C695 1.419 . S
C697 C698 1.363 . S
C697 H700 0.929 . S
C698 C697 1.363 . S
C698 C704 1.428 . S
H699 C695 0.930 . S
H700 C697 0.929 . S
S701 N702 1.613 . S
S701 N703 1.610 . S
N702 S701 1.613 . S
N702 C705 1.350 . S
N703 S701 1.610 . S
N703 C704 1.351 . S
C704 C698 1.428 . S
C704 N703 1.351 . S
C704 C705 1.434 . S
C705 C696 1.429 . S
C705 N702 1.350 . S
C705 C704 1.434 . S
C706 C707 1.369 . S
C706 C708 1.419 . S
C706 H710 0.930 . S
C707 C706 1.369 . S
C707 C716 1.429 . S
C708 C706 1.419 . S
C708 C709 1.363 . S
C708 H711 0.929 . S
C709 C708 1.363 . S
C709 C715 1.428 . S
H710 C706 0.930 . S
H711 C708 0.929 . S
S712 N713 1.613 . S
S712 N714 1.610 . S
N713 S712 1.613 . S
N713 C716 1.350 . S
N714 S712 1.610 . S
N714 C715 1.351 . S
C715 C709 1.428 . S
C715 N714 1.351 . S
C715 C716 1.434 . S
C716 C707 1.429 . S
C716 N713 1.350 . S
C716 C715 1.434 . S
C717 C718 1.369 . S
C717 C719 1.419 . S
C717 H721 0.930 . S
C718 C717 1.369 . S
C718 C727 1.429 . S
C719 C717 1.419 . S
C719 C720 1.363 . S
C719 H722 0.929 . S
C720 C719 1.363 . S
C720 C726 1.428 . S
H721 C717 0.930 . S
H722 C719 0.929 . S
S723 N724 1.613 . S
S723 N725 1.610 . S
N724 S723 1.613 . S
N724 C727 1.350 . S
N725 S723 1.610 . S
N725 C726 1.351 . S
C726 C720 1.428 . S
C726 N725 1.351 . S
C726 C727 1.434 . S
C727 C718 1.429 . S
C727 N724 1.350 . S
C727 C726 1.434 . S
C728 C729 1.369 . S
C728 C730 1.419 . S
C728 H732 0.930 . S
C729 C728 1.369 . S
C729 C738 1.429 . S
C730 C728 1.419 . S
C730 C731 1.363 . S
C730 H733 0.929 . S
C731 C730 1.363 . S
C731 C737 1.428 . S
H732 C728 0.930 . S
H733 C730 0.929 . S
S734 N735 1.613 . S
S734 N736 1.610 . S
N735 S734 1.613 . S
N735 C738 1.350 . S
N736 S734 1.610 . S
N736 C737 1.351 . S
C737 C731 1.428 . S
C737 N736 1.351 . S
C737 C738 1.434 . S
C738 C729 1.429 . S
C738 N735 1.350 . S
C738 C737 1.434 . S
C739 C740 1.369 . S
C739 C741 1.419 . S
C739 H743 0.930 . S
C740 C739 1.369 . S
C740 C749 1.429 . S
C741 C739 1.419 . S
C741 C742 1.363 . S
C741 H744 0.929 . S
C742 C741 1.363 . S
C742 C748 1.428 . S
H743 C739 0.930 . S
H744 C741 0.929 . S
S745 N746 1.613 . S
S745 N747 1.610 . S
N746 S745 1.613 . S
N746 C749 1.350 . S
N747 S745 1.610 . S
N747 C748 1.351 . S
C748 C742 1.428 . S
C748 N747 1.351 . S
C748 C749 1.434 . S
C749 C740 1.429 . S
C749 N746 1.350 . S
C749 C748 1.434 . S
C750 C751 1.369 . S
C750 C752 1.419 . S
C750 H754 0.930 . S
C751 C750 1.369 . S
C751 C760 1.429 . S
C752 C750 1.419 . S
C752 C753 1.363 . S
C752 H755 0.929 . S
C753 C752 1.363 . S
C753 C759 1.428 . S
H754 C750 0.930 . S
H755 C752 0.929 . S
S756 N757 1.613 . S
S756 N758 1.610 . S
N757 S756 1.613 . S
N757 C760 1.350 . S
N758 S756 1.610 . S
N758 C759 1.351 . S
C759 C753 1.428 . S
C759 N758 1.351 . S
C759 C760 1.434 . S
C760 C751 1.429 . S
C760 N757 1.350 . S
C760 C759 1.434 . S
C761 C762 1.369 . S
C761 C763 1.419 . S
C761 H765 0.930 . S
C762 C761 1.369 . S
C762 C771 1.429 . S
C763 C761 1.419 . S
C763 C764 1.363 . S
C763 H766 0.929 . S
C764 C763 1.363 . S
C764 C770 1.428 . S
H765 C761 0.930 . S
H766 C763 0.929 . S
S767 N768 1.613 . S
S767 N769 1.610 . S
N768 S767 1.613 . S
N768 C771 1.350 . S
N769 S767 1.610 . S
N769 C770 1.351 . S
C770 C764 1.428 . S
C770 N769 1.351 . S
C770 C771 1.434 . S
C771 C762 1.429 . S
C771 N768 1.350 . S
C771 C770 1.434 . S
C772 C773 1.369 . S
C772 C774 1.419 . S
C772 H776 0.930 . S
C773 C772 1.369 . S
C773 C782 1.429 . S
C774 C772 1.419 . S
C774 C775 1.363 . S
C774 H777 0.929 . S
C775 C774 1.363 . S
C775 C781 1.428 . S
H776 C772 0.930 . S
H777 C774 0.929 . S
S778 N779 1.613 . S
S778 N780 1.610 . S
N779 S778 1.613 . S
N779 C782 1.350 . S
N780 S778 1.610 . S
N780 C781 1.351 . S
C781 C775 1.428 . S
C781 N780 1.351 . S
C781 C782 1.434 . S
C782 C773 1.429 . S
C782 N779 1.350 . S
C782 C781 1.434 . S
C783 C784 1.369 . S
C783 C785 1.419 . S
C783 H787 0.930 . S
C784 C783 1.369 . S
C784 C793 1.429 . S
C785 C783 1.419 . S
C785 C786 1.363 . S
C785 H788 0.929 . S
C786 C785 1.363 . S
C786 C792 1.428 . S
H787 C783 0.930 . S
H788 C785 0.929 . S
S789 N790 1.613 . S
S789 N791 1.610 . S
N790 S789 1.613 . S
N790 C793 1.350 . S
N791 S789 1.610 . S
N791 C792 1.351 . S
C792 C786 1.428 . S
C792 N791 1.351 . S
C792 C793 1.434 . S
C793 C784 1.429 . S
C793 N790 1.350 . S
C793 C792 1.434 . S
C794 C795 1.369 . S
C794 C796 1.419 . S
C794 H798 0.930 . S
C795 C794 1.369 . S
C795 C804 1.429 . S
C796 C794 1.419 . S
C796 C797 1.363 . S
C796 H799 0.929 . S
C797 C796 1.363 . S
C797 C803 1.428 . S
H798 C794 0.930 . S
H799 C796 0.929 . S
S800 N801 1.613 . S
S800 N802 1.610 . S
N801 S800 1.613 . S
N801 C804 1.350 . S
N802 S800 1.610 . S
N802 C803 1.351 . S
C803 C797 1.428 . S
C803 N802 1.351 . S
C803 C804 1.434 . S
C804 C795 1.429 . S
C804 N801 1.350 . S
C804 C803 1.434 . S
C805 C806 1.369 . S
C805 C807 1.419 . S
C805 H809 0.930 . S
C806 C805 1.369 . S
C806 C815 1.429 . S
C807 C805 1.419 . S
C807 C808 1.363 . S
C807 H810 0.929 . S
C808 C807 1.363 . S
C808 C814 1.428 . S
H809 C805 0.930 . S
H810 C807 0.929 . S
S811 N812 1.613 . S
S811 N813 1.610 . S
N812 S811 1.613 . S
N812 C815 1.350 . S
N813 S811 1.610 . S
N813 C814 1.351 . S
C814 C808 1.428 . S
C814 N813 1.351 . S
C814 C815 1.434 . S
C815 C806 1.429 . S
C815 N812 1.350 . S
C815 C814 1.434 . S
C816 C817 1.369 . S
C816 C818 1.419 . S
C816 H820 0.930 . S
C817 C816 1.369 . S
C817 C826 1.429 . S
C818 C816 1.419 . S
C818 C819 1.363 . S
C818 H821 0.929 . S
C819 C818 1.363 . S
C819 C825 1.428 . S
H820 C816 0.930 . S
H821 C818 0.929 . S
S822 N823 1.613 . S
S822 N824 1.610 . S
N823 S822 1.613 . S
N823 C826 1.350 . S
N824 S822 1.610 . S
N824 C825 1.351 . S
C825 C819 1.428 . S
C825 N824 1.351 . S
C825 C826 1.434 . S
C826 C817 1.429 . S
C826 N823 1.350 . S
C826 C825 1.434 . S
C827 C828 1.369 . S
C827 C829 1.419 . S
C827 H831 0.930 . S
C828 C827 1.369 . S
C828 C837 1.429 . S
C829 C827 1.419 . S
C829 C830 1.363 . S
C829 H832 0.929 . S
C830 C829 1.363 . S
C830 C836 1.428 . S
H831 C827 0.930 . S
H832 C829 0.929 . S
S833 N834 1.613 . S
S833 N835 1.610 . S
N834 S833 1.613 . S
N834 C837 1.350 . S
N835 S833 1.610 . S
N835 C836 1.351 . S
C836 C830 1.428 . S
C836 N835 1.351 . S
C836 C837 1.434 . S
C837 C828 1.429 . S
C837 N834 1.350 . S
C837 C836 1.434 . S
C838 C839 1.369 . S
C838 C840 1.419 . S
C838 H842 0.930 . S
C839 C838 1.369 . S
C839 C848 1.429 . S
C840 C838 1.419 . S
C840 C841 1.363 . S
C840 H843 0.929 . S
C841 C840 1.363 . S
C841 C847 1.428 . S
H842 C838 0.930 . S
H843 C840 0.929 . S
S844 N845 1.613 1_556 S
S844 N846 1.610 . S
N845 S844 1.613 1_554 S
N845 C848 1.350 . S
N846 S844 1.610 . S
N846 C847 1.351 1_556 S
C847 C841 1.428 . S
C847 N846 1.351 1_554 S
C847 C848 1.434 . S
C848 C839 1.429 . S
C848 N845 1.350 . S
C848 C847 1.434 . S
C849 C850 1.369 . S
C849 C851 1.419 . S
C849 H853 0.930 . S
C850 C849 1.369 . S
C850 C859 1.429 . S
C851 C849 1.419 . S
C851 C852 1.363 . S
C851 H854 0.929 . S
C852 C851 1.363 . S
C852 C858 1.428 . S
H853 C849 0.930 . S
H854 C851 0.929 . S
S855 N856 1.613 . S
S855 N857 1.610 . S
N856 S855 1.613 . S
N856 C859 1.350 . S
N857 S855 1.610 . S
N857 C858 1.351 . S
C858 C852 1.428 . S
C858 N857 1.351 . S
C858 C859 1.434 . S
C859 C850 1.429 . S
C859 N856 1.350 . S
C859 C858 1.434 . S
C860 C861 1.369 . S
C860 C862 1.419 . S
C860 H864 0.930 . S
C861 C860 1.369 . S
C861 C870 1.429 . S
C862 C860 1.419 . S
C862 C863 1.363 . S
C862 H865 0.929 . S
C863 C862 1.363 . S
C863 C869 1.428 . S
H864 C860 0.930 . S
H865 C862 0.929 . S
S866 N867 1.613 . S
S866 N868 1.610 . S
N867 S866 1.613 . S
N867 C870 1.350 . S
N868 S866 1.610 . S
N868 C869 1.351 . S
C869 C863 1.428 . S
C869 N868 1.351 . S
C869 C870 1.434 . S
C870 C861 1.429 . S
C870 N867 1.350 . S
C870 C869 1.434 . S
C871 C872 1.369 . S
C871 C873 1.419 . S
C871 H875 0.930 . S
C872 C871 1.369 . S
C872 C881 1.429 . S
C873 C871 1.419 . S
C873 C874 1.363 . S
C873 H876 0.929 . S
C874 C873 1.363 . S
C874 C880 1.428 . S
H875 C871 0.930 . S
H876 C873 0.929 . S
S877 N878 1.613 . S
S877 N879 1.610 . S
N878 S877 1.613 . S
N878 C881 1.350 . S
N879 S877 1.610 . S
N879 C880 1.351 . S
C880 C874 1.428 . S
C880 N879 1.351 . S
C880 C881 1.434 . S
C881 C872 1.429 . S
C881 N878 1.350 . S
C881 C880 1.434 . S
C882 C883 1.369 . S
C882 C884 1.419 . S
C882 H886 0.930 . S
C883 C882 1.369 . S
C883 C892 1.429 . S
C884 C882 1.419 . S
C884 C885 1.363 . S
C884 H887 0.929 . S
C885 C884 1.363 . S
C885 C891 1.428 . S
H886 C882 0.930 . S
H887 C884 0.929 . S
S888 N889 1.613 . S
S888 N890 1.610 . S
N889 S888 1.613 . S
N889 C892 1.350 . S
N890 S888 1.610 . S
N890 C891 1.351 . S
C891 C885 1.428 . S
C891 N890 1.351 . S
C891 C892 1.434 . S
C892 C883 1.429 . S
C892 N889 1.350 . S
C892 C891 1.434 . S
C893 C894 1.369 . S
C893 C895 1.419 . S
C893 H897 0.930 . S
C894 C893 1.369 . S
C894 C903 1.429 . S
C895 C893 1.419 . S
C895 C896 1.363 . S
C895 H898 0.929 . S
C896 C895 1.363 . S
C896 C902 1.428 . S
H897 C893 0.930 . S
H898 C895 0.929 . S
S899 N900 1.613 . S
S899 N901 1.610 . S
N900 S899 1.613 . S
N900 C903 1.350 . S
N901 S899 1.610 . S
N901 C902 1.351 . S
C902 C896 1.428 . S
C902 N901 1.351 . S
C902 C903 1.434 . S
C903 C894 1.429 . S
C903 N900 1.350 . S
C903 C902 1.434 . S
C641 C1 1.198 . S
C643 C486 1.401 . S
C652 C80 1.011 . S
C654 C535 1.087 . S
C665 C570 2.500 . S
C663 C140 2.497 . S
C674 C211 2.434 . S
C676 C609 2.406 . S
C687 C530 2.613 . S
C685 C31 2.236 . S
C698 C489 0.846 . S
C696 C61 0.822 . S
C709 C619 1.926 . S
C707 C151 1.961 . S
C720 C578 1.714 . S
C718 C200 1.713 . S
C729 C20 1.682 . S
C731 C606 1.817 . S
C742 C538 2.338 . S
C740 C121 2.434 . S
C751 C181 2.307 . S
C753 C499 2.353 . S
C762 C91 1.125 . S
C764 C575 1.114 . S
C775 C495 1.405 . S
C773 C260 1.280 . S
C784 C320 1.007 . S
C786 C526 1.086 . S
C795 C361 2.498 . S
C797 C579 2.502 . S
C806 C451 2.434 . S
C808 C618 2.409 . S
C817 C271 2.332 . S
C819 C539 2.614 . S
C830 C498 0.834 . S
C828 C301 0.836 . S
C841 C610 1.930 . S
C839 C380 1.928 . S
C852 C569 1.712 . S
C850 C440 1.715 . S
C861 C241 1.554 . S
C863 C615 1.818 . S
C874 C529 2.333 . S
C872 C391 2.429 . S
C885 C490 2.355 . S
C883 C421 2.304 . S
C894 C331 1.125 . S
C896 C566 1.118 . S
