# Generated by pormake.
# Topology zzz, (3,6)-cn, num edge types: 1
# Building blocks:
#     Node 0, Type 0, BuildingBlock: VETTIZ_charged_linker_0, # of connection points: 3
#     Node 1, Type 0, BuildingBlock: VETTIZ_charged_linker_0, # of connection points: 3
#     Node 2, Type 0, BuildingBlock: VETTIZ_charged_linker_0, # of connection points: 3
#     Node 3, Type 0, BuildingBlock: VETTIZ_charged_linker_0, # of connection points: 3
#     Node 4, Type 0, BuildingBlock: VETTIZ_charged_linker_0, # of connection points: 3
#     Node 5, Type 0, BuildingBlock: VETTIZ_charged_linker_0, # of connection points: 3
#     Node 6, Type 0, BuildingBlock: VETTIZ_charged_linker_0, # of connection points: 3
#     Node 7, Type 0, BuildingBlock: VETTIZ_charged_linker_0, # of connection points: 3
#     Node 8, Type 1, BuildingBlock: KUMBUR_clean_sbu_0, # of connection points: 6
#     Node 9, Type 1, BuildingBlock: KUMBUR_clean_sbu_0, # of connection points: 6
#     Node 10, Type 1, BuildingBlock: KUMBUR_clean_sbu_0, # of connection points: 6
#     Node 11, Type 1, BuildingBlock: KUMBUR_clean_sbu_0, # of connection points: 6
#     Edge 12, Type (0, 1), BuildingBlock: MIFKUJ_clean_linker_0, # of connection points: 2
#     Edge 13, Type (0, 1), BuildingBlock: MIFKUJ_clean_linker_0, # of connection points: 2
#     Edge 14, Type (0, 1), BuildingBlock: MIFKUJ_clean_linker_0, # of connection points: 2
#     Edge 15, Type (0, 1), BuildingBlock: MIFKUJ_clean_linker_0, # of connection points: 2
#     Edge 16, Type (0, 1), BuildingBlock: MIFKUJ_clean_linker_0, # of connection points: 2
#     Edge 17, Type (0, 1), BuildingBlock: MIFKUJ_clean_linker_0, # of connection points: 2
#     Edge 18, Type (0, 1), BuildingBlock: MIFKUJ_clean_linker_0, # of connection points: 2
#     Edge 19, Type (0, 1), BuildingBlock: MIFKUJ_clean_linker_0, # of connection points: 2
#     Edge 20, Type (0, 1), BuildingBlock: MIFKUJ_clean_linker_0, # of connection points: 2
#     Edge 21, Type (0, 1), BuildingBlock: MIFKUJ_clean_linker_0, # of connection points: 2
#     Edge 22, Type (0, 1), BuildingBlock: MIFKUJ_clean_linker_0, # of connection points: 2
#     Edge 23, Type (0, 1), BuildingBlock: MIFKUJ_clean_linker_0, # of connection points: 2
#     Edge 24, Type (0, 1), BuildingBlock: MIFKUJ_clean_linker_0, # of connection points: 2
#     Edge 25, Type (0, 1), BuildingBlock: MIFKUJ_clean_linker_0, # of connection points: 2
#     Edge 26, Type (0, 1), BuildingBlock: MIFKUJ_clean_linker_0, # of connection points: 2
#     Edge 27, Type (0, 1), BuildingBlock: MIFKUJ_clean_linker_0, # of connection points: 2
#     Edge 28, Type (0, 1), BuildingBlock: MIFKUJ_clean_linker_0, # of connection points: 2
#     Edge 29, Type (0, 1), BuildingBlock: MIFKUJ_clean_linker_0, # of connection points: 2
#     Edge 30, Type (0, 1), BuildingBlock: MIFKUJ_clean_linker_0, # of connection points: 2
#     Edge 31, Type (0, 1), BuildingBlock: MIFKUJ_clean_linker_0, # of connection points: 2
#     Edge 32, Type (0, 1), BuildingBlock: MIFKUJ_clean_linker_0, # of connection points: 2
#     Edge 33, Type (0, 1), BuildingBlock: MIFKUJ_clean_linker_0, # of connection points: 2
#     Edge 34, Type (0, 1), BuildingBlock: MIFKUJ_clean_linker_0, # of connection points: 2
#     Edge 35, Type (0, 1), BuildingBlock: MIFKUJ_clean_linker_0, # of connection points: 2
# Relax obj value: 0.279
# Max RMSD: 0.231
# Mean RMSD: 0.213
data_MOF--net-zzz--node1-KUMBUR_clean_sbu_0--node2-VETTIZ_charged_linker_0--edge1-MIFKUJ_clean_linker_0
_symmetry_space_group_name_H-M    P1
_symmetry_Int_Tables_number       1
_symmetry_cell_setting            triclinic
loop_
_symmetry_equiv_pos_as_xyz
'x, y, z'
_cell_length_a     70.670194
_cell_length_b     70.68875
_cell_length_c     24.732921
_cell_angle_alpha  90.347938
_cell_angle_beta   90.119005
_cell_angle_gamma 89.944069
loop_
_atom_site_label
_atom_site_type_symbol
_atom_site_fract_x
_atom_site_fract_y
_atom_site_fract_z
_atom_type_partial_charge
C0 C 0.78164 0.52531 0.23113 0.0
C1 C 0.79275 0.53478 0.27085 0.0
C2 C 0.78889 0.55395 0.28237 0.0
C3 C 0.76754 0.55524 0.20657 0.0
C4 C 0.76826 0.53588 0.20097 0.0
C5 C 0.75423 0.52938 0.15789 0.0
H6 H 0.70048 0.55416 0.94089 0.0
C7 C 0.75675 0.56322 0.16161 0.0
C8 C 0.74632 0.5484 0.13778 0.0
H9 H 0.67855 0.51902 0.06884 0.0
H10 H 0.70679 0.52607 0.12347 0.0
H11 H 0.70949 0.58728 0.02078 0.0
H12 H 0.74455 0.54475 0.94806 0.0
H13 H 0.76023 0.56326 0.96412 0.0
H14 H 0.74123 0.56723 0.91654 0.0
H15 H 0.71483 0.58534 0.94992 0.0
H16 H 0.73016 0.59803 0.99507 0.0
C17 C 0.73908 0.51673 0.18361 0.0
C18 C 0.7647 0.51877 0.11232 0.0
C19 C 0.79279 0.61575 0.07022 0.0
C20 C 0.79676 0.61769 0.01478 0.0
C21 C 0.78335 0.6107 0.97717 0.0
C22 C 0.76792 0.59991 0.99427 0.0
C23 C 0.76612 0.59546 0.04923 0.0
C24 C 0.77844 0.60336 0.08641 0.0
C25 C 0.77649 0.59462 0.14161 0.0
C26 C 0.76164 0.57933 0.13017 0.0
C27 C 0.7552 0.58058 0.07654 0.0
C28 C 0.76883 0.60991 0.18053 0.0
C29 C 0.79594 0.5865 0.1601 0.0
C30 C 0.70177 0.54736 0.97981 0.0
C31 C 0.68718 0.53575 0.99964 0.0
C32 C 0.68972 0.52742 0.05124 0.0
C33 C 0.70618 0.53101 0.08241 0.0
C34 C 0.72051 0.54252 0.06125 0.0
C35 C 0.71774 0.55114 0.01178 0.0
C36 C 0.73191 0.56665 1.00196 0.0
C37 C 0.74213 0.56714 0.05603 0.0
C38 C 0.73672 0.55187 0.08818 0.0
C39 C 0.72114 0.58537 0.99108 0.0
C40 C 0.74514 0.56029 0.95516 0.0
H41 H 0.77366 0.57884 0.25987 0.0
H42 H 0.78362 0.51036 0.22324 0.0
H43 H 0.77605 0.52776 0.09496 0.0
H44 H 0.75473 0.51488 0.07928 0.0
H45 H 0.77125 0.50556 0.12778 0.0
H46 H 0.7293 0.52521 0.20924 0.0
H47 H 0.74577 0.50574 0.20934 0.0
H48 H 0.73088 0.50908 0.15216 0.0
H49 H 0.80215 0.6218 0.10035 0.0
H50 H 0.78559 0.6119 0.93408 0.0
H51 H 0.75876 0.59431 0.96356 0.0
H52 H 0.77987 0.62072 0.18905 0.0
H53 H 0.76413 0.60388 0.2193 0.0
H54 H 0.75635 0.61718 0.16268 0.0
H55 H 0.79763 0.57149 0.14741 0.0
H56 H 0.79794 0.5878 0.20431 0.0
H57 H 0.80819 0.59419 0.14313 0.0
H58 H 0.79662 0.56135 0.31393 0.0
C59 C 0.77609 0.56416 0.25074 0.0
C60 C 0.91766 0.80382 0.94101 0.0
C61 C 0.90503 0.816 0.96814 0.0
C62 C 0.90269 0.81415 0.02442 0.0
C63 C 0.92948 0.79303 0.02717 0.0
C64 C 0.92977 0.79235 0.97149 0.0
C65 C 0.94582 0.78035 0.95045 0.0
H66 H 1.00119 0.70872 0.02081 0.0
C67 C 0.94672 0.78385 0.04739 0.0
C68 C 0.95596 0.77558 1.00318 0.0
H69 H 0.98291 0.72586 0.86085 0.0
H70 H 0.97359 0.75611 0.89607 0.0
H71 H 0.01937 0.7605 0.05749 0.0
H72 H 0.96759 0.73098 0.10114 0.0
H73 H 0.98327 0.74034 0.1522 0.0
H74 H 0.98997 0.71958 0.11425 0.0
H75 H 0.02135 0.73574 0.07351 0.0
H76 H 0.01536 0.75213 0.12565 0.0
C77 C 0.95852 0.79262 0.91372 0.0
C78 C 0.93741 0.76272 0.9212 0.0
C79 C 0.97426 0.81122 0.21747 0.0
C80 C 0.99322 0.81428 0.23241 0.0
C81 C 0.00725 0.80317 0.20598 0.0
C82 C 1.0023 0.7896 0.16567 0.0
C83 C 0.98318 0.78692 0.15171 0.0
C84 C 0.96972 0.79853 0.17562 0.0
C85 C 0.95124 0.79833 0.14543 0.0
C86 C 0.95632 0.78577 0.09745 0.0
C87 C 0.97426 0.77747 0.10402 0.0
C88 C 0.94572 0.81892 0.12873 0.0
C89 C 0.93636 0.78872 0.1818 0.0
C90 C 0.99513 0.71896 0.99338 0.0
C91 C 0.99136 0.71399 0.9383 0.0
C92 C 0.9845 0.72834 0.90386 0.0
C93 C 0.97893 0.74591 0.92408 0.0
C94 C 0.98047 0.74964 0.9793 0.0
C95 C 0.98999 0.73731 0.01273 0.0
C96 C 0.99219 0.74612 0.06915 0.0
C97 C 0.9814 0.76497 0.063 0.0
C98 C 0.97304 0.76544 0.01146 0.0
C99 C 0.01328 0.74891 0.08215 0.0
C100 C 0.98269 0.73349 0.11167 0.0
H101 H 0.91289 0.80172 0.09695 0.0
H102 H 0.91957 0.80475 0.89767 0.0
H103 H 0.92177 0.7636 0.91664 0.0
H104 H 0.94028 0.74951 0.94385 0.0
H105 H 0.943 0.76111 0.87953 0.0
H106 H 0.96097 0.80677 0.93238 0.0
H107 H 0.9518 0.79475 0.87355 0.0
H108 H 0.97268 0.78632 0.90751 0.0
H109 H 0.9631 0.81998 0.23411 0.0
H110 H 0.02206 0.80535 0.21523 0.0
H111 H 0.01341 0.78259 0.14354 0.0
H112 H 0.95478 0.82999 0.14737 0.0
H113 H 0.93107 0.82254 0.14105 0.0
H114 H 0.94723 0.82122 0.08462 0.0
H115 H 0.94235 0.77588 0.20127 0.0
H116 H 0.92387 0.78383 0.1587 0.0
H117 H 0.93163 0.79853 0.21434 0.0
H118 H 0.89264 0.823 0.04587 0.0
C119 C 0.91474 0.80238 0.05406 0.0
C120 C 0.80234 0.99344 1.00433 0.0
C121 C 0.80619 0.99565 0.94797 0.0
C122 C 0.79045 0.99648 0.91253 0.0
C123 C 0.76963 0.98631 0.98332 0.0
C124 C 0.78351 0.98962 0.02126 0.0
C125 C 0.77529 0.98753 0.07801 0.0
H126 H 0.69589 0.9596 0.2189 0.0
C127 C 0.75295 0.97844 0.00979 0.0
C128 C 0.75467 0.98181 0.06561 0.0
H129 H 0.72084 0.01487 0.24078 0.0
H130 H 0.74255 0.0083 0.16538 0.0
H131 H 0.69138 0.96623 0.09797 0.0
H132 H 0.73364 0.93418 0.18379 0.0
H133 H 0.73041 0.92288 0.12091 0.0
H134 H 0.71091 0.92432 0.16799 0.0
H135 H 0.68636 0.94559 0.13762 0.0
H136 H 0.69334 0.94349 0.06902 0.0
C137 C 0.77677 1.0064 0.10885 0.0
C138 C 0.78572 0.97171 0.10853 0.0
C139 C 0.71697 0.92781 0.90494 0.0
C140 C 0.70461 0.91336 0.92154 0.0
C141 C 0.70336 0.9091 0.97699 0.0
C142 C 0.71272 0.92033 0.01548 0.0
C143 C 0.72293 0.93623 0.99826 0.0
C144 C 0.72609 0.93897 0.9439 0.0
C145 C 0.7381 0.95615 0.93327 0.0
C146 C 0.7414 0.96333 0.99083 0.0
C147 C 0.73173 0.95203 0.02805 0.0
C148 C 0.72634 0.97037 0.89983 0.0
C149 C 0.75641 0.94968 0.90429 0.0
C150 C 0.70676 0.96994 0.21065 0.0
C151 C 0.7068 0.9875 0.23772 0.0
C152 C 0.72054 1.00103 0.22188 0.0
C153 C 0.73353 0.99712 0.17956 0.0
C154 C 0.73312 0.97942 0.15346 0.0
C155 C 0.71933 0.96648 0.16794 0.0
C156 C 0.71686 0.95115 0.126 0.0
C157 C 0.7305 0.9578 0.0828 0.0
C158 C 0.74128 0.97324 0.10099 0.0
C159 C 0.69595 0.95148 0.10646 0.0
C160 C 0.72313 0.93207 0.15074 0.0
H161 H 0.76094 0.99206 0.90112 0.0
H162 H 0.81359 0.99398 0.034 0.0
H163 H 0.78509 0.95819 0.08537 0.0
H164 H 0.77915 0.96939 0.14872 0.0
H165 H 0.80083 0.97548 0.11492 0.0
H166 H 0.76705 0.01712 0.09127 0.0
H167 H 0.79144 0.01201 0.10691 0.0
H168 H 0.77341 1.00446 0.15223 0.0
H169 H 0.71821 0.93154 0.86268 0.0
H170 H 0.69416 0.89786 0.99069 0.0
H171 H 0.71063 0.91703 0.0573 0.0
H172 H 0.71146 0.97096 0.9144 0.0
H173 H 0.72612 0.96626 0.85639 0.0
H174 H 0.73177 0.98496 0.90343 0.0
H175 H 0.76695 0.94421 0.93374 0.0
H176 H 0.76291 0.96108 0.88043 0.0
H177 H 0.75348 0.93822 0.87448 0.0
H178 H 0.79206 1.00036 0.87056 0.0
C179 C 0.77233 0.99164 0.92983 0.0
C180 C 0.54562 0.7263 0.18932 0.0
C181 C 0.55152 0.70781 0.20382 0.0
C182 C 0.56364 0.69788 0.16857 0.0
C183 C 0.56419 0.7242 0.10654 0.0
C184 C 0.55236 0.73434 0.14049 0.0
C185 C 0.5485 0.75398 0.11788 0.0
H186 H 0.56355 0.81566 0.90743 0.0
C187 C 0.56888 0.73595 0.05928 0.0
C188 C 0.56 0.7537 0.06535 0.0
H189 H 0.52864 0.82667 0.04692 0.0
H190 H 0.53721 0.79573 0.08404 0.0
H191 H 0.5983 0.79667 0.97074 0.0
H192 H 0.54927 0.77682 0.88585 0.0
H193 H 0.56639 0.75952 0.87308 0.0
H194 H 0.57043 0.78346 0.85108 0.0
H195 H 0.59603 0.79709 0.8985 0.0
H196 H 0.6058 0.77689 0.93316 0.0
C197 C 0.55603 0.76886 0.1583 0.0
C198 C 0.5271 0.75584 0.10684 0.0
C199 C 0.60435 0.70567 0.90238 0.0
C200 C 0.6089 0.7123 0.85047 0.0
C201 C 0.60714 0.73174 0.83956 0.0
C202 C 0.59961 0.74414 0.87826 0.0
C203 C 0.5935 0.73701 0.92827 0.0
C204 C 0.59659 0.71823 0.94043 0.0
C205 C 0.58902 0.71317 0.99529 0.0
C206 C 0.57984 0.73174 0.01259 0.0
C207 C 0.58251 0.74554 0.97317 0.0
C208 C 0.60613 0.70802 0.03187 0.0
C209 C 0.57424 0.69711 0.98785 0.0
C210 C 0.55769 0.81153 0.94606 0.0
C211 C 0.54522 0.82352 0.97372 0.0
C212 C 0.53825 0.81763 0.02452 0.0
C213 C 0.54315 0.79965 0.0458 0.0
C214 C 0.55522 0.78753 0.0161 0.0
C215 C 0.56234 0.7939 0.96736 0.0
C216 C 0.57445 0.77963 0.93925 0.0
C217 C 0.57375 0.76346 0.97875 0.0
C218 C 0.56249 0.7678 0.02431 0.0
C219 C 0.59471 0.78792 0.9346 0.0
C220 C 0.56485 0.77459 0.88433 0.0
H221 H 0.57901 0.69732 0.09595 0.0
H222 H 0.53633 0.73433 0.2156 0.0
H223 H 0.52186 0.74332 0.08385 0.0
H224 H 0.52365 0.76835 0.08232 0.0
H225 H 0.51909 0.75675 0.14537 0.0
H226 H 0.57067 0.76524 0.17118 0.0
H227 H 0.54699 0.76949 0.19499 0.0
H228 H 0.55671 0.78313 0.14063 0.0
H229 H 0.60535 0.69075 0.91178 0.0
H230 H 0.6107 0.73716 0.79998 0.0
H231 H 0.59801 0.75863 0.86658 0.0
H232 H 0.61928 0.71527 0.01854 0.0
H233 H 0.60899 0.69257 0.0311 0.0
H234 H 0.6042 0.71275 0.07425 0.0
H235 H 0.56624 0.69884 0.94939 0.0
H236 H 0.56327 0.69702 0.01954 0.0
H237 H 0.5812 0.68302 0.9866 0.0
H238 H 0.56815 0.68361 0.17793 0.0
C239 C 0.56996 0.7059 0.12058 0.0
C240 C 0.31927 0.48697 0.12653 0.0
C241 C 0.33084 0.48164 0.17086 0.0
C242 C 0.32441 0.46764 0.20625 0.0
C243 C 0.29532 0.46443 0.15523 0.0
C244 C 0.30143 0.47803 0.11933 0.0
C245 C 0.28679 0.48117 0.07487 0.0
H246 H 0.19739 0.45902 0.98255 0.0
C247 C 0.27648 0.4577 0.13817 0.0
C248 C 0.27116 0.4672 0.09047 0.0
H249 H 0.23598 0.49783 0.90563 0.0
H250 H 0.25961 0.49125 0.9754 0.0
H251 H 0.22656 0.42724 0.99459 0.0
H252 H 0.20542 0.47019 0.10147 0.0
H253 H 0.2064 0.44939 0.13953 0.0
H254 H 0.19187 0.45005 0.07985 0.0
H255 H 0.20471 0.42439 0.03025 0.0
H256 H 0.22701 0.41666 0.05851 0.0
C257 C 0.29575 0.47603 0.01997 0.0
C258 C 0.2799 0.50184 0.07789 0.0
C259 C 0.23995 0.41472 0.2644 0.0
C260 C 0.22156 0.40722 0.2615 0.0
C261 C 0.21179 0.40767 0.21183 0.0
C262 C 0.21933 0.41723 0.16755 0.0
C263 C 0.23683 0.42647 0.17288 0.0
C264 C 0.24732 0.42421 0.2195 0.0
C265 C 0.26589 0.4345 0.21692 0.0
C266 C 0.26415 0.44442 0.16259 0.0
C267 C 0.24697 0.43993 0.13774 0.0
C268 C 0.28194 0.41946 0.21698 0.0
C269 C 0.26662 0.44882 0.26473 0.0
C270 C 0.21097 0.46594 0.97899 0.0
C271 C 0.21459 0.47875 0.93714 0.0
C272 C 0.2325 0.48788 0.93715 0.0
C273 C 0.2463 0.48398 0.97759 0.0
C274 C 0.24228 0.47075 0.0185 0.0
C275 C 0.22481 0.46194 0.01763 0.0
C276 C 0.22244 0.44785 0.06172 0.0
C277 C 0.24121 0.44959 0.0905 0.0
C278 C 0.25307 0.46316 0.06611 0.0
C279 C 0.21991 0.42799 0.03531 0.0
C280 C 0.20563 0.45449 0.09757 0.0
H281 H 0.30297 0.44863 0.22774 0.0
H282 H 0.32397 0.49769 0.09855 0.0
H283 H 0.2756 0.50551 0.11989 0.0
H284 H 0.2675 0.50438 0.05183 0.0
H285 H 0.29134 0.5117 0.06569 0.0
H286 H 0.30286 0.462 0.02216 0.0
H287 H 0.3065 0.4867 0.00831 0.0
H288 H 0.28513 0.47498 0.98736 0.0
H289 H 0.24785 0.41438 0.30196 0.0
H290 H 0.19756 0.40209 0.20849 0.0
H291 H 0.21062 0.41805 0.13214 0.0
H292 H 0.27676 0.40526 0.20414 0.0
H293 H 0.28825 0.41787 0.25788 0.0
H294 H 0.2933 0.42282 0.18772 0.0
H295 H 0.25257 0.45565 0.2707 0.0
H296 H 0.27651 0.46063 0.2582 0.0
H297 H 0.27049 0.44166 0.30305 0.0
H298 H 0.33303 0.46338 0.2404 0.0
C299 C 0.30689 0.45904 0.19867 0.0
C300 C 0.11451 0.2211 0.22811 0.0
C301 C 0.12527 0.20639 0.20411 0.0
C302 C 0.12713 0.20624 0.14723 0.0
C303 C 0.10304 0.23033 0.14003 0.0
C304 C 0.10384 0.23315 0.195 0.0
C305 C 0.09169 0.24968 0.21218 0.0
H306 H 0.02762 0.31713 0.14436 0.0
C307 C 0.08754 0.24192 0.11824 0.0
C308 C 0.08129 0.25396 0.1594 0.0
H309 H 0.06285 0.31246 0.28736 0.0
H310 H 0.07479 0.28303 0.25604 0.0
H311 H 0.05485 0.2981 0.04566 0.0
H312 H 0.01878 0.2655 0.15306 0.0
H313 H 0.01561 0.26077 0.08319 0.0
H314 H 0.00885 0.28342 0.11012 0.0
H315 H 0.02993 0.30326 0.0508 0.0
H316 H 0.03788 0.28289 0.01354 0.0
C317 C 0.10507 0.266 0.23016 0.0
C318 C 0.07782 0.24315 0.25665 0.0
C319 C 0.05575 0.21407 0.95444 0.0
C320 C 0.03789 0.21586 0.93024 0.0
C321 C 0.02609 0.23086 0.94849 0.0
C322 C 0.03208 0.24347 0.99028 0.0
C323 C 0.0498 0.24076 0.01547 0.0
C324 C 0.06114 0.2261 0.9969 0.0
C325 C 0.07927 0.22434 0.02767 0.0
C326 C 0.07636 0.23919 0.07129 0.0
C327 C 0.05946 0.24956 0.06369 0.0
C328 C 0.09556 0.23003 0.98919 0.0
C329 C 0.08112 0.20386 0.05055 0.0
C330 C 0.03802 0.30976 0.16855 0.0
C331 C 0.04512 0.31807 0.21728 0.0
C332 C 0.05796 0.30738 0.24837 0.0
C333 C 0.06498 0.29008 0.23017 0.0
C334 C 0.05897 0.28267 0.18053 0.0
C335 C 0.04515 0.29185 0.15103 0.0
C336 C 0.03956 0.27985 0.10178 0.0
C337 C 0.05461 0.26411 0.1025 0.0
C338 C 0.06552 0.26595 0.15003 0.0
C339 C 0.04058 0.29168 0.04991 0.0
C340 C 0.01958 0.27195 0.1122 0.0
H341 H 0.11729 0.21677 0.07217 0.0
H342 H 0.11323 0.22247 0.27147 0.0
H343 H 0.07027 0.23015 0.24343 0.0
H344 H 0.06673 0.25371 0.26562 0.0
H345 H 0.08546 0.24006 0.29489 0.0
H346 H 0.12015 0.26311 0.22024 0.0
H347 H 0.10441 0.26841 0.27456 0.0
H348 H 0.10169 0.27944 0.20923 0.0
H349 H 0.06523 0.20275 0.9426 0.0
H350 H 0.01228 0.23288 0.93037 0.0
H351 H 0.0228 0.25484 1.00164 0.0
H352 H 0.09116 0.24173 0.96197 0.0
H353 H 0.09993 0.21789 0.96333 0.0
H354 H 0.10803 0.23557 0.01118 0.0
H355 H 0.06992 0.19412 0.03562 0.0
H356 H 0.07979 0.20355 0.09523 0.0
H357 H 0.09473 0.19715 0.03898 0.0
H358 H 0.1364 0.19625 0.12715 0.0
C359 C 0.11592 0.21801 0.11512 0.0
C360 C 0.30112 0.05132 0.96781 0.0
C361 C 0.31876 0.0584 0.94882 0.0
C362 C 0.32721 0.07347 0.9774 0.0
C363 C 0.30162 0.07413 0.0421 0.0
C364 C 0.29267 0.05962 0.01457 0.0
C365 C 0.27378 0.05495 0.04136 0.0
H366 H 0.21479 0.0726 0.2592 0.0
C367 C 0.29039 0.07926 0.09026 0.0
C368 C 0.2738 0.06823 0.09088 0.0
H369 H 0.20207 0.03557 0.1247 0.0
H370 H 0.23301 0.04256 0.08497 0.0
H371 H 0.25509 0.05855 0.27578 0.0
H372 H 0.23268 0.10659 0.19188 0.0
H373 H 0.25192 0.11444 0.23144 0.0
H374 H 0.23198 0.10363 0.26393 0.0
H375 H 0.24987 0.0802 0.31066 0.0
H376 H 0.27284 0.07577 0.28112 0.0
C377 C 0.27377 0.03399 0.05792 0.0
C378 C 0.25774 0.05987 1.00154 0.0
C379 C 0.32081 0.12329 0.22755 0.0
C380 C 0.31751 0.12598 0.28325 0.0
C381 C 0.29976 0.12046 0.30413 0.0
C382 C 0.28652 0.11093 0.2716 0.0
C383 C 0.29117 0.1063 0.21787 0.0
C384 C 0.30798 0.1127 0.19664 0.0
C385 C 0.31191 0.1044 0.14178 0.0
C386 C 0.29467 0.09184 0.13357 0.0
C387 C 0.28242 0.09334 0.17761 0.0
C388 C 0.33061 0.09275 0.14552 0.0
C389 C 0.31227 0.12089 0.10074 0.0
C390 C 0.21835 0.06618 0.22065 0.0
C391 C 0.20564 0.05389 0.19474 0.0
C392 C 0.21147 0.04526 0.1456 0.0
C393 C 0.22935 0.04944 0.12234 0.0
C394 C 0.24164 0.06229 0.14855 0.0
C395 C 0.23588 0.07019 0.19723 0.0
C396 C 0.25035 0.08309 0.22153 0.0
C397 C 0.26542 0.08275 0.17832 0.0
C398 C 0.26074 0.07033 0.13527 0.0
C399 C 0.25739 0.07412 0.27519 0.0
C400 C 0.24136 0.103 0.228 0.0
H401 H 0.32622 0.09278 0.04185 0.0
H402 H 0.29409 0.03986 0.94664 0.0
H403 H 0.25984 0.0743 0.98487 0.0
H404 H 0.24373 0.0599 0.02098 0.0
H405 H 0.25747 0.04969 0.96715 0.0
H406 H 0.28666 0.03066 0.08194 0.0
H407 H 0.27361 0.02464 0.02165 0.0
H408 H 0.26145 0.03041 0.08322 0.0
H409 H 0.33392 0.12774 0.20907 0.0
H410 H 0.29649 0.12214 0.34659 0.0
H411 H 0.27359 0.10667 0.29054 0.0
H412 H 0.33369 0.08826 0.18768 0.0
H413 H 0.34294 0.1011 0.13146 0.0
H414 H 0.33001 0.07928 0.12265 0.0
H415 H 0.30174 0.13198 0.11178 0.0
H416 H 0.30824 0.11643 0.05936 0.0
H417 H 0.3264 0.12773 0.09969 0.0
H418 H 0.34079 0.07907 0.96515 0.0
C419 C 0.31875 0.08139 0.02289 0.0
C420 C 0.4756 0.29818 0.94394 0.0
C421 C 0.46876 0.31637 0.92933 0.0
C422 C 0.45422 0.32462 0.96044 0.0
C423 C 0.45559 0.29884 0.02353 0.0
C424 C 0.46825 0.28936 0.99083 0.0
C425 C 0.47084 0.26908 0.01034 0.0
H426 H 0.44392 0.20293 0.19978 0.0
C427 C 0.45019 0.28674 0.06844 0.0
C428 C 0.45782 0.26861 0.06005 0.0
H429 H 0.48399 0.1937 0.0711 0.0
H430 H 0.47936 0.22631 0.04058 0.0
H431 H 0.45766 0.23266 0.2448 0.0
H432 H 0.41313 0.22963 0.13505 0.0
H433 H 0.40743 0.24721 0.18354 0.0
H434 H 0.41416 0.22388 0.20572 0.0
H435 H 0.43539 0.24094 0.26706 0.0
H436 H 0.45313 0.25714 0.24236 0.0
C437 C 0.49176 0.26621 0.02591 0.0
C438 C 0.46409 0.25541 0.96553 0.0
C439 C 0.43512 0.31569 0.25015 0.0
C440 C 0.42889 0.30765 0.29908 0.0
C441 C 0.42096 0.28934 0.29773 0.0
C442 C 0.42131 0.27852 0.25015 0.0
C443 C 0.42995 0.28594 0.20396 0.0
C444 C 0.43521 0.30466 0.2029 0.0
C445 C 0.44128 0.31069 0.14723 0.0
C446 C 0.44108 0.29157 0.1175 0.0
C447 C 0.43564 0.27711 0.15252 0.0
C448 C 0.46138 0.31919 0.14939 0.0
C449 C 0.4266 0.32514 0.12605 0.0
C450 C 0.45143 0.2077 0.16421 0.0
C451 C 0.46394 0.19559 0.13715 0.0
C452 C 0.47407 0.20272 0.0924 0.0
C453 C 0.47135 0.22159 0.07474 0.0
C454 C 0.45873 0.23355 0.10295 0.0
C455 C 0.44939 0.22644 0.14761 0.0
C456 C 0.43815 0.24106 0.17737 0.0
C457 C 0.44159 0.25824 0.14239 0.0
C458 C 0.45338 0.25394 0.09783 0.0
C459 C 0.44637 0.24315 0.23574 0.0
C460 C 0.41706 0.23516 0.17577 0.0
H461 H 0.43497 0.32135 0.02544 0.0
H462 H 0.4859 0.29094 0.91893 0.0
H463 H 0.44984 0.25963 0.95071 0.0
H464 H 0.46285 0.24073 0.97985 0.0
H465 H 0.47398 0.25559 0.93066 0.0
H466 H 0.49661 0.27783 0.05309 0.0
H467 H 0.50087 0.2662 0.98933 0.0
H468 H 0.49412 0.25288 0.04785 0.0
H469 H 0.44081 0.32988 0.24902 0.0
H470 H 0.41512 0.28312 0.33394 0.0
H471 H 0.41522 0.26466 0.25109 0.0
H472 H 0.47156 0.30894 0.16719 0.0
H473 H 0.46164 0.33236 0.17409 0.0
H474 H 0.46639 0.32287 0.10831 0.0
H475 H 0.41977 0.3332 0.15949 0.0
H476 H 0.41513 0.31799 0.10292 0.0
H477 H 0.43334 0.33616 0.10082 0.0
H478 H 0.448 0.33801 0.94876 0.0
C479 C 0.44731 0.31567 1.00643 0.0
Tb480 Tb 0.02912 0.00718 0.6425 0.0
C481 C 0.95721 0.99905 0.50165 0.0
C482 C 0.96595 0.97988 0.42453 0.0
C483 C 0.93353 0.9795 0.45691 0.0
C484 C 0.97078 0.99266 0.4664 0.0
C485 C 0.93829 0.99291 0.49679 0.0
C486 C 0.94735 0.97298 0.42079 0.0
C487 C 0.92999 0.01491 0.56786 0.0
N488 N 0.96241 0.01206 0.53918 0.0
C489 C 0.94893 0.02056 0.57094 0.0
C490 C 0.92468 1.00083 0.53111 0.0
Tb491 Tb 0.994 0.01986 0.54365 0.0
N492 N 0.98853 0.99973 0.4715 0.0
C493 C 1.00177 0.99563 0.43277 0.0
C494 C 0.9798 0.97483 0.38687 0.0
C495 C 0.99771 0.98298 0.39057 0.0
H496 H 0.95278 0.03129 0.60013 0.0
H497 H 0.00848 0.97943 0.36114 0.0
H498 H 0.94342 0.963 0.38931 0.0
H499 H 0.91954 0.02135 0.59409 0.0
H500 H 0.01577 1.00146 0.43463 0.0
H501 H 0.0162 0.05016 0.81933 0.0
H502 H 0.97671 0.96501 0.35423 0.0
H503 H 0.06977 0.99382 0.58603 0.0
H504 H 0.008 0.02794 0.74723 0.0
H505 H 0.10333 1.00293 0.59063 0.0
H506 H 0.91912 0.97445 0.45281 0.0
H507 H 0.04843 0.06401 0.82412 0.0
H508 H 0.08141 0.06533 0.78689 0.0
H509 H 0.91 0.99648 0.52874 0.0
H510 H 0.10523 0.05239 0.72417 0.0
N511 N 0.03508 0.02894 0.70953 0.0
C512 C 0.02209 0.03369 0.74823 0.0
C513 C 0.0448 0.05427 0.79181 0.0
C514 C 0.05832 0.0487 0.75378 0.0
C515 C 0.02668 0.04649 0.78942 0.0
C516 C 0.05302 0.03561 0.71325 0.0
H517 H 0.11362 0.0288 0.65143 0.0
N518 N 0.06077 0.01467 0.64323 0.0
C519 C 0.09307 0.01023 0.61539 0.0
C520 C 0.06636 0.02823 0.67872 0.0
C521 C 0.07397 1.00508 0.61312 0.0
C522 C 0.09881 0.02489 0.64967 0.0
C523 C 0.08546 0.03387 0.68269 0.0
O524 O 0.04276 0.98164 0.66205 0.0
O525 O 0.01063 0.99752 0.57817 0.0
O526 O 0.98032 1.00093 0.60177 0.0
O527 O 0.99995 1.00604 0.67606 0.0
O528 O 0.03644 0.98496 0.58335 0.0
O529 O 0.02335 0.99489 0.71779 0.0
O530 O 0.97963 0.0453 0.52806 0.0
O531 O 0.01239 0.02977 0.60861 0.0
O532 O 0.04314 0.0254 0.58297 0.0
O533 O 0.0231 0.02027 0.50958 0.0
O534 O 0.98568 0.04037 0.60626 0.0
O535 O 1.0018 0.03554 0.47521 0.0
C536 C 0.02092 0.98493 0.55657 0.0
C537 C 0.02494 0.96133 0.71743 0.0
C538 C 0.99793 0.94134 0.73869 0.0
C539 C 1.00542 0.95923 0.72734 0.0
C540 C 0.00998 0.92557 0.74051 0.0
C541 C 0.03673 0.94535 0.71874 0.0
C542 C 0.02926 0.92757 0.73024 0.0
C543 C 0.98343 1.00085 0.65466 0.0
C544 C 0.03353 0.97996 0.70723 0.0
C545 C 0.09067 0.04774 0.72078 0.0
C546 C 0.07711 0.05511 0.75643 0.0
C547 C 1.00145 0.04152 0.6317 0.0
C548 C 1.00217 0.0679 0.50123 0.0
C549 C 0.0207 0.07027 0.4818 0.0
C550 C 0.03142 0.08633 0.49591 0.0
C551 C 0.02328 0.10005 0.53026 0.0
C552 C 0.99431 0.08196 0.53484 0.0
C553 C 1.00488 0.09783 0.54948 0.0
C554 C 0.03969 0.02558 0.53021 0.0
C555 C 0.99177 0.05005 0.49108 0.0
H556 H 0.99613 0.97137 0.72728 0.0
H557 H 1.00443 0.91169 0.75 0.0
H558 H 0.05178 0.94667 0.71135 0.0
H559 H 0.03846 0.91533 0.73148 0.0
H560 H 0.02689 0.05945 0.45625 0.0
H561 H 0.03086 0.11282 0.54116 0.0
H562 H 0.98013 0.08051 0.55082 0.0
H563 H 0.99877 0.1085 0.57578 0.0
Tb564 Tb 0.50686 0.02864 0.60092 0.0
C565 C 0.51667 0.95384 0.47866 0.0
C566 C 0.53682 0.96154 0.40315 0.0
C567 C 0.53692 0.92963 0.43916 0.0
C568 C 0.52351 0.96694 0.44278 0.0
C569 C 0.52281 0.93486 0.47627 0.0
C570 C 0.54394 0.94297 0.40263 0.0
C571 C 0.49898 0.92726 0.5425 0.0
N572 N 0.50297 0.95946 0.51348 0.0
C573 C 0.49354 0.94631 0.5438 0.0
C574 C 0.51397 0.92158 0.50947 0.0
Tb575 Tb 0.49424 0.99076 0.5106 0.0
N576 N 0.51605 0.98463 0.44416 0.0
C577 C 0.52009 0.99708 0.4037 0.0
C578 C 0.54189 0.97468 0.36379 0.0
C579 C 0.53321 0.99242 0.3636 0.0
H580 H 0.48215 0.95057 0.57022 0.0
H581 H 0.53648 1.00254 0.3325 0.0
H582 H 0.55434 0.93862 0.37292 0.0
H583 H 0.49177 0.91704 0.5675 0.0
H584 H 0.51365 0.01086 0.40259 0.0
H585 H 0.47296 0.0162 0.79402 0.0
H586 H 0.55192 0.97104 0.33235 0.0
H587 H 0.51333 0.06874 0.53364 0.0
H588 H 0.49142 0.00767 0.71543 0.0
H589 H 0.502 0.10162 0.53736 0.0
H590 H 0.54201 0.91519 0.43712 0.0
H591 H 0.45856 0.04801 0.80204 0.0
H592 H 0.45379 0.08023 0.76297 0.0
H593 H 0.51822 0.90685 0.50869 0.0
H594 H 0.46148 0.10346 0.69264 0.0
N595 N 0.48844 0.03448 0.67622 0.0
C596 C 0.48568 0.02171 0.71694 0.0
C597 C 0.46684 0.04436 0.76668 0.0
C598 C 0.46997 0.05755 0.72595 0.0
C599 C 0.47491 0.02644 0.76231 0.0
C600 C 0.48121 0.05221 0.68123 0.0
H601 H 0.47959 0.11162 0.60871 0.0
N602 N 0.49712 0.05974 0.60155 0.0
C603 C 0.49719 0.09154 0.56706 0.0
C604 C 0.48555 0.06524 0.64218 0.0
C605 C 0.50361 0.07283 0.56524 0.0
C606 C 0.48451 0.0971 0.60724 0.0
C607 C 0.47877 0.084 0.64602 0.0
O608 O 0.52975 0.04696 0.61418 0.0
O609 O 0.51695 0.00878 0.53961 0.0
O610 O 0.51298 0.97862 0.57193 0.0
O611 O 0.50908 1.00075 0.64123 0.0
O612 O 0.52533 0.03619 0.53367 0.0
O613 O 0.52671 0.02178 0.66157 0.0
O614 O 0.47065 0.97381 0.49397 0.0
O615 O 0.48456 0.01077 0.57132 0.0
O616 O 0.48645 0.0398 0.54177 0.0
O617 O 0.49116 0.01862 0.47082 0.0
O618 O 0.47262 0.9848 0.57253 0.0
O619 O 0.48005 0.99451 0.43643 0.0
C620 C 0.52757 0.01971 0.51294 0.0
C621 C 0.5576 0.02963 0.63042 0.0
C622 C 0.58321 1.0063 0.62617 0.0
C623 C 0.56501 0.01175 0.64365 0.0
C624 C 0.59373 0.0189 0.59423 0.0
C625 C 0.56858 0.042 0.5991 0.0
C626 C 0.58641 0.03656 0.58076 0.0
C627 C 0.51406 0.98364 0.62359 0.0
C628 C 0.53816 0.03517 0.64637 0.0
C629 C 0.46695 0.08918 0.68917 0.0
C630 C 0.46259 0.07597 0.72919 0.0
C631 C 0.47236 1.00103 0.59583 0.0
C632 C 0.44726 0.98765 0.44145 0.0
C633 C 0.44135 1.00638 0.44984 0.0
C634 C 0.42207 0.01108 0.44704 0.0
C635 C 0.40878 0.99668 0.43639 0.0
C636 C 0.43387 0.97357 0.43012 0.0
C637 C 0.41469 0.97809 0.4277 0.0
C638 C 0.48575 0.03543 0.48959 0.0
C639 C 0.46707 0.98213 0.4485 0.0
H640 H 0.55657 1.00202 0.66716 0.0
H641 H 0.60788 0.01538 0.5808 0.0
H642 H 0.56329 0.05584 0.58809 0.0
H643 H 0.59467 0.04615 0.55638 0.0
H644 H 0.45173 0.01724 0.45817 0.0
H645 H 0.39376 0.99973 0.43519 0.0
H646 H 0.43824 0.95901 0.42413 0.0
H647 H 0.40437 0.96713 0.41955 0.0
Tb648 Tb 0.53103 0.50846 0.54132 0.0
C649 C 0.45073 0.4942 0.62461 0.0
C650 C 0.42814 0.50131 0.55403 0.0
C651 C 0.4205 0.4778 0.62182 0.0
C652 C 0.44608 0.50383 0.57818 0.0
C653 C 0.43795 0.48118 0.64738 0.0
C654 C 0.41556 0.48793 0.57536 0.0
C655 C 0.45997 0.47695 0.72109 0.0
N656 N 0.46759 0.4981 0.64848 0.0
C657 C 0.47208 0.4901 0.69724 0.0
C658 C 0.4429 0.47232 0.69581 0.0
Tb659 Tb 0.48646 0.51998 0.60617 0.0
N660 N 0.45863 0.5166 0.55882 0.0
C661 C 0.45338 0.52844 0.51778 0.0
C662 C 0.42308 0.51286 0.51069 0.0
C663 C 0.43567 0.52666 0.49292 0.0
H664 H 0.4853 0.49326 0.71715 0.0
H665 H 0.43176 0.53594 0.46009 0.0
H666 H 0.40181 0.48564 0.55699 0.0
H667 H 0.46382 0.47037 0.75895 0.0
H668 H 0.46289 0.53936 0.50407 0.0
H669 H 0.58182 0.48266 0.68758 0.0
H670 H 0.40929 0.51163 0.49179 0.0
H671 H 0.53907 0.5353 0.43124 0.0
H672 H 0.5523 0.48202 0.63596 0.0
H673 H 0.56278 0.55856 0.40304 0.0
H674 H 0.41054 0.46777 0.63848 0.0
H675 H 0.60497 0.50834 0.6734 0.0
H676 H 0.61463 0.53705 0.62138 0.0
H677 H 0.43351 0.46218 0.71451 0.0
H678 H 0.60924 0.55801 0.54388 0.0
N679 N 0.55761 0.50782 0.59437 0.0
C680 C 0.56183 0.4936 0.62973 0.0
C681 C 0.59184 0.50825 0.65071 0.0
C682 C 0.58815 0.52196 0.61158 0.0
C683 C 0.57881 0.49375 0.65885 0.0
C684 C 0.57093 0.52106 0.58263 0.0
H685 H 0.59019 0.56578 0.4613 0.0
N686 N 0.55245 0.52965 0.50707 0.0
C687 C 0.56437 0.55141 0.44113 0.0
C688 C 0.56814 0.53251 0.53801 0.0
C689 C 0.55096 0.5381 0.45744 0.0
C690 C 0.57981 0.55552 0.47436 0.0
C691 C 0.58215 0.54563 0.52269 0.0
O692 O 0.5535 0.49397 0.50352 0.0
O693 O 0.50076 0.50999 0.53397 0.0
O694 O 0.48921 0.48915 0.59794 0.0
O695 O 0.52204 0.48705 0.60128 0.0
O696 O 0.51598 0.51377 0.46459 0.0
O697 O 0.52546 0.48261 0.50158 0.0
O698 O 0.48094 0.53452 0.67919 0.0
O699 O 0.51702 0.51942 0.61139 0.0
O700 O 0.52805 0.53941 0.54314 0.0
O701 O 0.49535 0.54313 0.55162 0.0
O702 O 0.50293 0.51924 0.68247 0.0
O703 O 0.47065 0.545 0.6031 0.0
C704 C 0.49904 0.51295 0.48374 0.0
C705 C 0.55038 0.46087 0.51497 0.0
C706 C 0.54429 0.42785 0.53774 0.0
C707 C 0.53833 0.44514 0.5157 0.0
C708 C 0.56252 0.42647 0.56006 0.0
C709 C 0.56876 0.4591 0.53637 0.0
C710 C 0.57468 0.44204 0.55912 0.0
C711 C 0.50495 0.47939 0.607 0.0
C712 C 0.54328 0.47909 0.49384 0.0
C713 C 0.59847 0.5478 0.55458 0.0
C714 C 0.60153 0.53588 0.59875 0.0
C715 C 0.51953 0.51932 0.66186 0.0
C716 C 0.4789 0.56755 0.66739 0.0
C717 C 0.4977 0.57285 0.65773 0.0
C718 C 0.50326 0.59184 0.66297 0.0
C719 C 0.48985 0.60534 0.68004 0.0
C720 C 0.46572 0.58114 0.68421 0.0
C721 C 0.47124 0.59996 0.6909 0.0
C722 C 0.51244 0.54979 0.53972 0.0
C723 C 0.47247 0.54839 0.65446 0.0
H724 H 0.52409 0.44646 0.49973 0.0
H725 H 0.56749 0.4133 0.57711 0.0
H726 H 0.57848 0.47094 0.53625 0.0
H727 H 0.58878 0.44086 0.57594 0.0
H728 H 0.50783 0.56227 0.64479 0.0
H729 H 0.49379 0.62002 0.68576 0.0
H730 H 0.45111 0.57726 0.69129 0.0
H731 H 0.46102 0.61044 0.70398 0.0
Tb732 Tb 0.01795 0.52875 0.53472 0.0
C733 C 0.0124 0.45972 0.67698 0.0
C734 C 1.00363 0.43486 0.6141 0.0
C735 C 0.02254 0.42735 0.69325 0.0
C736 C 1.00387 0.45415 0.62901 0.0
C737 C 0.02117 0.44625 0.71064 0.0
C738 C 0.01375 0.42166 0.64503 0.0
C739 C 0.02373 0.47036 0.77979 0.0
N740 N 0.01046 0.47803 0.69305 0.0
C741 C 0.01496 0.48322 0.74501 0.0
C742 C 0.02731 0.45193 0.76203 0.0
Tb743 Tb 0.99668 0.49776 0.63105 0.0
N744 N 0.99384 0.46722 0.6007 0.0
C745 C 0.9811 0.46139 0.56232 0.0
C746 C 0.99219 0.42921 0.57085 0.0
C747 C 0.98046 0.44243 0.54585 0.0
H748 H 0.01207 0.49728 0.75997 0.0
H749 H 0.97093 0.43809 0.51387 0.0
H750 H 0.01403 0.40684 0.63352 0.0
H751 H 0.02772 0.47468 0.82029 0.0
H752 H 0.97176 0.47126 0.54266 0.0
H753 H 0.05646 0.58119 0.65424 0.0
H754 H 0.9916 0.41453 0.55859 0.0
H755 H 0.99514 0.53546 0.41918 0.0
H756 H 0.04962 0.54973 0.6202 0.0
H757 H 0.97851 0.56136 0.37245 0.0
H758 H 0.0295 0.41686 0.7181 0.0
H759 H 0.03834 0.60874 0.62146 0.0
H760 H 0.01403 0.62165 0.55741 0.0
H761 H 0.03404 0.44198 0.78916 0.0
H762 H 0.99245 0.61623 0.48058 0.0
N763 N 0.02686 0.55821 0.56821 0.0
C764 C 0.04132 0.56112 0.60447 0.0
C765 C 0.03516 0.59473 0.60588 0.0
C766 C 0.0214 0.59203 0.56603 0.0
C767 C 0.04542 0.57924 0.62435 0.0
C768 C 0.01776 0.57345 0.54738 0.0
H769 H 0.97935 0.5938 0.41057 0.0
N770 N 1.00416 0.55265 0.48534 0.0
C771 C 0.98595 0.56414 0.40994 0.0
C772 C 1.00577 0.5705 0.50459 0.0
C773 C 0.9953 0.54947 0.43674 0.0
C774 C 0.98643 0.5824 0.43162 0.0
C775 C 0.99687 0.58587 0.47874 0.0
O776 O 0.03013 0.53141 0.4576 0.0
O777 O 0.01124 0.4994 0.55351 0.0
O778 O 0.02721 0.49476 0.64482 0.0
O779 O 0.03902 0.52052 0.59669 0.0
O780 O 0.00749 0.50815 0.4756 0.0
O781 O 0.04693 0.52253 0.52475 0.0
O782 O 0.97399 0.51289 0.66613 0.0
O783 O 1.00333 0.52685 0.61082 0.0
O784 O 0.98671 0.53138 0.52818 0.0
O785 O 0.97624 0.50317 0.56623 0.0
O786 O 1.00642 0.51894 0.68995 0.0
O787 O 0.97485 0.48266 0.66921 0.0
C788 C 1.00674 0.49364 0.50633 0.0
C789 C 0.05161 0.5063 0.44184 0.0
C790 C 0.069 0.47642 0.43653 0.0
C791 C 0.06476 0.49342 0.46381 0.0
C792 C 0.06024 0.47256 0.38663 0.0
C793 C 0.04309 0.50207 0.39169 0.0
C794 C 0.04735 0.48528 0.36453 0.0
C795 C 0.04115 0.50628 0.6311 0.0
C796 C 0.04583 0.52344 0.47243 0.0
C797 C 0.99937 0.60425 0.49935 0.0
C798 C 0.01166 0.60733 0.54301 0.0
C799 C 0.00798 0.53298 0.65739 0.0
C800 C 0.9609 0.49878 0.74371 0.0
C801 C 0.94966 0.51394 0.76167 0.0
C802 C 0.94328 0.51496 0.81556 0.0
C803 C 0.94866 0.50056 0.85156 0.0
C804 C 0.96609 0.48459 0.7804 0.0
C805 C 0.96005 0.48558 0.83404 0.0
C806 C 0.97335 0.51855 0.53719 0.0
C807 C 0.96635 0.49784 0.68617 0.0
H808 H 0.07147 0.49644 0.50237 0.0
H809 H 0.06377 0.45991 0.36394 0.0
H810 H 0.03293 0.51163 0.37363 0.0
H811 H 0.0407 0.48216 0.32604 0.0
H812 H 0.94595 0.52496 0.73329 0.0
H813 H 0.94379 0.50062 0.89302 0.0
H814 H 0.97467 0.47267 0.7677 0.0
H815 H 0.96403 0.47454 0.86204 0.0
H816 H 0.18611 0.02022 0.20759 0.0
H817 H 0.15664 0.01509 0.25833 0.0
H818 H 0.15325 0.07486 0.29268 0.0
H819 H 0.18205 0.08009 0.24099 0.0
H820 H 0.14851 0.02084 0.36341 0.0
H821 H 0.11046 0.08937 0.30767 0.0
H822 H 0.10882 0.11153 0.23135 0.0
H823 H 0.11951 0.06595 0.12006 0.0
H824 H 0.1215 0.04355 0.19608 0.0
H825 H 0.07503 0.04013 0.55391 0.0
H826 H 0.10187 0.04412 0.49275 0.0
H827 H 0.06685 0.02751 0.35786 0.0
H828 H 0.04019 0.02284 0.41893 0.0
H829 H 0.08958 0.05734 0.33145 0.0
H830 H 0.09682 0.99629 0.40897 0.0
H831 H 0.09997 0.97204 0.47963 0.0
H832 H 0.14994 0.99949 0.54022 0.0
H833 H 0.14691 0.0241 0.47042 0.0
C834 C 0.17886 0.0323 0.22499 0.0
C835 C 0.1866 0.05057 0.22015 0.0
C836 C 0.16208 0.02934 0.25455 0.0
C837 C 0.1525 0.04458 0.27939 0.0
C838 C 0.16005 0.06283 0.27352 0.0
C839 C 0.17671 0.06579 0.24415 0.0
C840 C 0.13501 0.04152 0.3128 0.0
C841 C 0.13566 0.02888 0.3564 0.0
C842 C 0.118 0.0517 0.30363 0.0
C843 C 0.1161 0.06484 0.25754 0.0
C844 C 0.11229 0.08408 0.26693 0.0
C845 C 0.11137 0.09668 0.22373 0.0
C846 C 0.11394 0.09016 0.17083 0.0
C847 C 0.11751 0.07099 0.16106 0.0
C848 C 0.11862 0.05835 0.20421 0.0
C849 C 0.07306 0.037 0.51142 0.0
C850 C 0.05551 0.03032 0.49213 0.0
C851 C 0.08846 0.03946 0.47624 0.0
C852 C 0.08662 0.03574 0.42051 0.0
C853 C 0.0688 0.03026 0.40064 0.0
C854 C 0.0535 0.0275 0.43591 0.0
C855 C 0.1033 0.03712 0.38319 0.0
C856 C 0.10244 0.04936 0.33865 0.0
C857 C 0.12008 0.02647 0.39137 0.0
C858 C 0.12154 0.01213 0.43471 0.0
C859 C 0.10835 0.99729 0.43775 0.0
C860 C 0.11017 0.98343 0.47748 0.0
C861 C 0.12521 0.98416 0.51416 0.0
C862 C 0.13835 0.99889 0.51158 0.0
C863 C 0.13658 0.01281 0.47198 0.0
H864 H 0.12662 0.97339 0.54484 0.0
H865 H 0.11321 0.09996 0.13744 0.0
H866 H 0.43661 0.16988 0.16099 0.0
H867 H 0.43973 0.14145 0.21561 0.0
H868 H 0.50032 0.14881 0.21957 0.0
H869 H 0.49711 0.17768 0.16529 0.0
H870 H 0.4548 0.1085 0.21324 0.0
H871 H 0.51718 0.13471 0.34646 0.0
H872 H 0.53208 0.16467 0.37531 0.0
H873 H 0.47971 0.19412 0.34921 0.0
H874 H 0.4645 0.16437 0.32085 0.0
H875 H 0.4916 0.03557 0.38008 0.0
H876 H 0.48642 0.06144 0.31701 0.0
H877 H 0.46242 0.09531 0.44523 0.0
H878 H 0.46742 0.06926 0.50881 0.0
H879 H 0.48843 0.11544 0.38844 0.0
H880 H 0.43383 0.07857 0.34583 0.0
H881 H 0.41595 0.04976 0.32195 0.0
H882 H 0.44809 0.04372 0.17587 0.0
H883 H 0.46621 0.07251 0.19874 0.0
C884 C 0.45065 0.16525 0.17263 0.0
C885 C 0.4666 0.17612 0.15904 0.0
C886 C 0.45243 0.14895 0.20405 0.0
C887 C 0.47022 0.14311 0.22325 0.0
C888 C 0.48637 0.15319 0.20644 0.0
C889 C 0.48457 0.16956 0.17475 0.0
C890 C 0.4715 0.12723 0.26309 0.0
C891 C 0.46231 0.11004 0.2513 0.0
C892 C 0.48076 0.12924 0.31383 0.0
C893 C 0.48973 0.14728 0.33106 0.0
C894 C 0.50883 0.14757 0.34706 0.0
C895 C 0.51734 0.16453 0.3633 0.0
C896 C 0.50686 0.1813 0.36397 0.0
C897 C 0.48783 0.18114 0.34857 0.0
C898 C 0.47926 0.16421 0.3324 0.0
C899 C 0.48504 0.0484 0.39502 0.0
C900 C 0.48036 0.05041 0.45007 0.0
C901 C 0.48205 0.06325 0.35868 0.0
C902 C 0.47414 0.08047 0.37619 0.0
C903 C 0.46878 0.08229 0.43072 0.0
C904 C 0.4717 0.06738 0.46711 0.0
C905 C 0.47214 0.09667 0.33782 0.0
C906 C 0.48109 0.11391 0.3501 0.0
C907 C 0.46234 0.0949 0.28807 0.0
C908 C 0.45148 0.0776 0.2742 0.0
C909 C 0.43718 0.07103 0.30879 0.0
C910 C 0.42699 0.05472 0.29543 0.0
C911 C 0.43095 0.04486 0.24766 0.0
C912 C 0.44506 0.05135 0.21292 0.0
C913 C 0.45526 0.0677 0.22595 0.0
H914 H 0.42304 0.03222 0.23748 0.0
H915 H 0.51348 0.19442 0.37649 0.0
H916 H 0.36545 0.46818 0.1419 0.0
H917 H 0.39549 0.47491 0.18808 0.0
H918 H 0.36836 0.51934 0.2797 0.0
H919 H 0.33831 0.51244 0.23373 0.0
H920 H 0.42029 0.50346 0.20707 0.0
H921 H 0.38305 0.5156 0.41283 0.0
H922 H 0.35298 0.5076 0.4577 0.0
H923 H 0.34693 0.45876 0.35505 0.0
H924 H 0.37714 0.46623 0.31039 0.0
H925 H 0.48773 0.5352 0.40105 0.0
H926 H 0.46049 0.53088 0.34084 0.0
H927 H 0.44638 0.4791 0.42317 0.0
H928 H 0.47322 0.48402 0.48511 0.0
H929 H 0.41563 0.49636 0.40588 0.0
H930 H 0.46716 0.48108 0.29051 0.0
H931 H 0.4979 0.48559 0.24546 0.0
H932 H 0.47659 0.53524 0.16674 0.0
H933 H 0.44577 0.53116 0.21189 0.0
C934 C 0.36615 0.47996 0.17005 0.0
C935 C 0.34964 0.49008 0.18327 0.0
C936 C 0.3833 0.4837 0.1969 0.0
C937 C 0.38422 0.49744 0.23819 0.0
C938 C 0.36804 0.50852 0.24852 0.0
C939 C 0.35091 0.50479 0.22162 0.0
C940 C 0.4014 0.49886 0.2738 0.0
C941 C 0.41923 0.50213 0.25062 0.0
C942 C 0.40028 0.49647 0.33063 0.0
C943 C 0.38224 0.49164 0.3578 0.0
C944 C 0.37534 0.50311 0.4 0.0
C945 C 0.35827 0.49866 0.42542 0.0
C946 C 0.34801 0.48272 0.4091 0.0
C947 C 0.35485 0.47114 0.36753 0.0
C948 C 0.37195 0.47548 0.34215 0.0
C949 C 0.47871 0.52296 0.40634 0.0
C950 C 0.48223 0.51024 0.44862 0.0
C951 C 0.46323 0.52036 0.3715 0.0
C952 C 0.45131 0.50451 0.37656 0.0
C953 C 0.4552 0.49149 0.41815 0.0
C954 C 0.47052 0.49429 0.4537 0.0
C955 C 0.43452 0.50188 0.33972 0.0
C956 C 0.41673 0.49813 0.36257 0.0
C957 C 0.43577 0.50351 0.2826 0.0
C958 C 0.4542 0.5059 0.25494 0.0
C959 C 0.46906 0.49302 0.26384 0.0
C960 C 0.4865 0.4955 0.23826 0.0
C961 C 0.48921 0.51072 0.20336 0.0
C962 C 0.47447 0.52347 0.19383 0.0
C963 C 0.45701 0.52107 0.21934 0.0
H964 H 0.50272 0.51262 0.18362 0.0
H965 H 0.33478 0.47933 0.42874 0.0
H966 H 0.01049 0.33723 0.21404 0.0
H967 H 1.00254 0.3676 0.25765 0.0
H968 H 0.06002 0.37251 0.31509 0.0
H969 H 0.06832 0.34378 0.26761 0.0
H970 H 0.99978 0.3791 0.35222 0.0
H971 H 0.07396 0.41649 0.35008 0.0
H972 H 0.10138 0.41992 0.28939 0.0
H973 H 0.06681 0.40492 0.15297 0.0
H974 H 0.03902 0.40196 0.21235 0.0
H975 H 0.0304 0.46365 0.53399 0.0
H976 H 0.0343 0.43351 0.48412 0.0
H977 H 0.99219 0.45122 0.36891 0.0
H978 H 0.98766 0.48067 0.41954 0.0
H979 H 0.04264 0.43449 0.35747 0.0
H980 H 0.97146 0.42466 0.36133 0.0
H981 H 0.94115 0.42202 0.41008 0.0
H982 H 0.96679 0.38409 0.52371 0.0
H983 H 0.99732 0.38673 0.47582 0.0
C984 C 0.02154 0.34509 0.2346 0.0
C985 C 0.04002 0.33766 0.2376 0.0
C986 C 0.01693 0.36243 0.26032 0.0
C987 C 0.03064 0.3728 0.28987 0.0
C988 C 0.04911 0.36544 0.29183 0.0
C989 C 0.05378 0.34855 0.2652 0.0
C990 C 0.02572 0.39071 0.32075 0.0
C991 C 0.00918 0.39122 0.35246 0.0
C992 C 0.03775 0.4069 0.32207 0.0
C993 C 0.05442 0.40873 0.2859 0.0
C994 C 0.07217 0.41397 0.30712 0.0
C995 C 0.08779 0.41584 0.27296 0.0
C996 C 0.08588 0.41247 0.21752 0.0
C997 C 0.0683 0.40741 0.19599 0.0
C998 C 0.05259 0.40565 0.22987 0.0
C999 C 0.02157 0.46079 0.49905 0.0
C1000 C 0.00828 0.47432 0.48173 0.0
C1001 C 0.02391 0.44364 0.47021 0.0
C1002 C 0.01321 0.43975 0.42319 0.0
C1003 C 1.00011 0.45339 0.40591 0.0
C1004 C 0.99767 0.47035 0.43476 0.0
C1005 C 0.01709 0.42258 0.38881 0.0
C1006 C 0.03344 0.42227 0.35677 0.0
C1007 C 1.00461 0.40696 0.38539 0.0
C1008 C 0.98675 0.40639 0.41617 0.0
C1009 C 0.97073 0.41615 0.3975 0.0
C1010 C 0.95349 0.41454 0.4247 0.0
C1011 C 0.95209 0.40306 0.47031 0.0
C1012 C 0.96791 0.39307 0.48857 0.0
C1013 C 0.98519 0.39466 0.46151 0.0
H1014 H 0.93873 0.40182 0.49129 0.0
H1015 H 0.09802 0.41387 0.19122 0.0
H1016 H 0.81738 0.9847 0.8455 0.0
H1017 H 0.84807 0.98605 0.80425 0.0
H1018 H 0.87231 1.00611 0.95386 0.0
H1019 H 0.84067 0.00693 0.99494 0.0
H1020 H 0.88882 0.02326 0.86792 0.0
H1021 H 0.87021 0.95969 0.90821 0.0
H1022 H 0.84695 0.93402 0.90103 0.0
H1023 H 0.85916 0.92758 0.73213 0.0
H1024 H 0.88051 0.95499 0.73631 0.0
H1025 H 0.98087 0.00761 0.76405 0.0
H1026 H 0.95316 1.00435 0.82207 0.0
H1027 H 0.92129 0.98175 0.68763 0.0
H1028 H 0.94927 0.98417 0.62999 0.0
H1029 H 0.91079 0.96457 0.77646 0.0
H1030 H 0.91963 0.02949 0.72654 0.0
H1031 H 0.93808 0.05895 0.71898 0.0
H1032 H 0.94293 0.06204 0.89195 0.0
H1033 H 0.9249 0.03241 0.90042 0.0
C1034 C 0.82885 0.99017 0.86996 0.0
C1035 C 0.82594 0.99616 0.92405 0.0
C1036 C 0.84673 0.99052 0.84604 0.0
C1037 C 0.8628 0.99574 0.87588 0.0
C1038 C 0.86021 1.00185 0.92978 0.0
C1039 C 0.84203 1.00209 0.95356 0.0
C1040 C 0.88213 0.99415 0.85067 0.0
C1041 C 0.8937 0.0103 0.84882 0.0
C1042 C 0.88847 0.97734 0.82405 0.0
C1043 C 0.87685 0.95975 0.82253 0.0
C1044 C 0.86778 0.95306 0.86925 0.0
C1045 C 0.85474 0.93827 0.86559 0.0
C1046 C 0.85176 0.92897 0.81637 0.0
C1047 C 0.86149 0.93477 0.77032 0.0
C1048 C 0.8738 0.9502 0.77311 0.0
C1049 C 0.96806 1.00175 0.74679 0.0
C1050 C 0.96722 0.99672 0.69163 0.0
C1051 C 0.95212 0.99997 0.78014 0.0
C1052 C 0.93482 0.99333 0.75916 0.0
C1053 C 0.93431 0.98716 0.70496 0.0
C1054 C 0.95032 0.98875 0.67174 0.0
C1055 C 0.91704 0.9938 0.79245 0.0
C1056 C 0.90588 0.97743 0.79608 0.0
C1057 C 0.91073 0.01049 0.81913 0.0
C1058 C 0.92108 0.02863 0.81412 0.0
C1059 C 0.92472 0.03642 0.76295 0.0
C1060 C 0.93513 0.05314 0.75847 0.0
C1061 C 0.94176 0.06235 0.80491 0.0
C1062 C 0.93789 0.0549 0.85593 0.0
C1063 C 0.92757 0.03813 0.86062 0.0
H1064 H 0.94983 0.07528 0.8013 0.0
H1065 H 0.84189 0.9173 0.81393 0.0
H1066 H 0.54565 0.86015 0.01417 0.0
H1067 H 0.54118 0.88955 0.96238 0.0
H1068 H 0.52784 0.85659 0.82009 0.0
H1069 H 0.53217 0.82754 0.87122 0.0
H1070 H 0.55448 0.88237 0.79842 0.0
H1071 H 0.49399 0.88136 0.88923 0.0
H1072 H 0.47289 0.88121 0.96853 0.0
H1073 H 0.49675 0.9338 0.02335 0.0
H1074 H 0.51817 0.93412 0.94467 0.0
H1075 H 0.52381 0.94669 0.60481 0.0
H1076 H 0.52581 0.92127 0.66913 0.0
H1077 H 0.52523 0.96209 0.79975 0.0
H1078 H 0.51839 0.98717 0.73469 0.0
H1079 H 0.50914 0.93429 0.83598 0.0
H1080 H 0.56576 0.93707 0.72791 0.0
H1081 H 0.58219 0.93662 0.64005 0.0
H1082 H 0.56633 0.8787 0.61546 0.0
H1083 H 0.54826 0.87921 0.70033 0.0
C1084 C 0.54133 0.85926 0.97219 0.0
C1085 C 0.53937 0.8415 0.94676 0.0
C1086 C 0.53889 0.87606 0.94249 0.0
C1087 C 0.53435 0.87536 0.88697 0.0
C1088 C 0.53157 0.8576 0.86253 0.0
C1089 C 0.53397 0.84096 0.89196 0.0
C1090 C 0.53321 0.89278 0.85291 0.0
C1091 C 0.54455 0.89375 0.80645 0.0
C1092 C 0.52064 0.90789 0.86408 0.0
C1093 C 0.50785 0.90763 0.91149 0.0
C1094 C 0.49487 0.89279 0.91849 0.0
C1095 C 0.48282 0.89269 0.96325 0.0
C1096 C 0.48353 0.90745 1.00106 0.0
C1097 C 0.49625 0.92235 0.9941 0.0
C1098 C 0.50834 0.9225 0.94943 0.0
C1099 C 0.52287 0.9502 0.64709 0.0
C1100 C 0.51953 0.9689 0.66396 0.0
C1101 C 0.52495 0.93561 0.68442 0.0
C1102 C 0.52639 0.93948 0.74013 0.0
C1103 C 0.52417 0.95843 0.75728 0.0
C1104 C 0.52045 0.97289 0.7198 0.0
C1105 C 0.53014 0.92384 0.77998 0.0
C1106 C 0.5194 0.92321 0.82794 0.0
C1107 C 0.54331 0.90892 0.76989 0.0
C1108 C 0.55549 0.90825 0.72076 0.0
C1109 C 0.56565 0.92425 0.70372 0.0
C1110 C 0.57511 0.92405 0.6541 0.0
C1111 C 0.57549 0.90762 0.62256 0.0
C1112 C 0.5661 0.89142 0.64005 0.0
C1113 C 0.55604 0.89173 0.68863 0.0
H1114 H 0.58299 0.90747 0.58446 0.0
H1115 H 0.47418 0.90736 0.03567 0.0
H1116 H 0.66337 0.5047 0.99067 0.0
H1117 H 0.63429 0.50176 0.93721 0.0
H1118 H 0.64098 0.55909 0.88184 0.0
H1119 H 0.66911 0.56253 0.93758 0.0
H1120 H 0.60603 0.55428 0.89752 0.0
H1121 H 0.65237 0.51746 0.80268 0.0
H1122 H 0.67661 0.49272 0.78993 0.0
H1123 H 0.63599 0.44995 0.83022 0.0
H1124 H 0.61156 0.47447 0.84391 0.0
H1125 H 0.54801 0.54542 0.65632 0.0
H1126 H 0.57517 0.54888 0.71836 0.0
H1127 H 0.55736 0.49898 0.80375 0.0
H1128 H 0.52971 0.49624 0.74381 0.0
H1129 H 0.59702 0.49952 0.77398 0.0
H1130 H 0.55003 0.53767 0.85938 0.0
H1131 H 0.52622 0.56301 0.86607 0.0
H1132 H 0.56912 0.60471 0.83887 0.0
H1133 H 0.59317 0.57955 0.82914 0.0
C1134 C 0.65857 0.51676 0.96761 0.0
C1135 C 0.66901 0.53374 0.96805 0.0
C1136 C 0.64198 0.51499 0.93635 0.0
C1137 C 0.63547 0.53005 0.90407 0.0
C1138 C 0.6456 0.54714 0.90571 0.0
C1139 C 0.66199 0.54899 0.93729 0.0
C1140 C 0.61825 0.52817 0.86845 0.0
C1141 C 0.60428 0.54242 0.86995 0.0
C1142 C 0.61554 0.51258 0.8328 0.0
C1143 C 0.63021 0.49782 0.82499 0.0
C1144 C 0.64866 0.50279 0.80929 0.0
C1145 C 0.66242 0.48881 0.80181 0.0
C1146 C 0.65786 0.46978 0.80945 0.0
C1147 C 0.63951 0.4647 0.82445 0.0
C1148 C 0.6257 0.47863 0.83206 0.0
C1149 C 0.54992 0.53531 0.68857 0.0
C1150 C 0.53705 0.52036 0.69466 0.0
C1151 C 0.56538 0.53728 0.72404 0.0
C1152 C 0.5684 0.52412 0.76568 0.0
C1153 C 0.55545 0.50921 0.77178 0.0
C1154 C 0.53971 0.50762 0.73743 0.0
C1155 C 0.58513 0.52573 0.80256 0.0
C1156 C 0.59892 0.51142 0.80133 0.0
C1157 C 0.58782 0.54142 0.83761 0.0
C1158 C 0.57339 0.55664 0.84259 0.0
C1159 C 0.55438 0.5522 0.85365 0.0
C1160 C 0.54083 0.56655 0.85794 0.0
C1161 C 0.54615 0.58545 0.85227 0.0
C1162 C 0.56504 0.59004 0.84246 0.0
C1163 C 0.57862 0.57574 0.83738 0.0
H1164 H 0.53566 0.59655 0.85588 0.0
H1165 H 0.66854 0.45897 0.8036 0.0
H1166 H 0.01828 0.68588 0.96051 0.0
H1167 H 0.02208 0.65514 0.91467 0.0
H1168 H 0.97359 0.6674 0.81443 0.0
H1169 H 0.96868 0.69663 0.86309 0.0
H1170 H 0.9714 0.63409 0.82814 0.0
H1171 H 0.02523 0.67099 0.77549 0.0
H1172 H 0.05425 0.68986 0.78855 0.0
H1173 H 0.0811 0.64279 0.86652 0.0
H1174 H 0.05214 0.62371 0.85445 0.0
H1175 H 0.9874 0.56425 0.62432 0.0
H1176 H 0.98654 0.59566 0.66785 0.0
H1177 H 0.02738 0.5769 0.78583 0.0
H1178 H 0.02883 0.546 0.74099 0.0
H1179 H 0.03419 0.61307 0.76205 0.0
H1180 H 0.97841 0.576 0.80187 0.0
H1181 H 0.95052 0.55824 0.77166 0.0
H1182 H 0.92635 0.60885 0.70558 0.0
H1183 H 0.95478 0.6268 0.73267 0.0
C1184 C 0.00827 0.68187 0.92932 0.0
C1185 C 0.9935 0.69427 0.91484 0.0
C1186 C 0.01062 0.66432 0.90224 0.0
C1187 C 0.99851 0.65885 0.85923 0.0
C1188 C 0.98337 0.67095 0.84671 0.0
C1189 C 0.98075 0.68807 0.87438 0.0
C1190 C 1.0012 0.64077 0.82684 0.0
C1191 C 0.98518 0.6298 0.81329 0.0
C1192 C 0.01908 0.63458 0.80718 0.0
C1193 C 0.03646 0.64602 0.81466 0.0
C1194 C 0.03728 0.66472 0.79576 0.0
C1195 C 0.05372 0.67544 0.80293 0.0
C1196 C 0.06948 0.66755 0.82851 0.0
C1197 C 0.06886 0.6489 0.84683 0.0
C1198 C 0.05245 0.63812 0.83982 0.0
C1199 C 0.99655 0.56706 0.65862 0.0
C1200 C 0.00852 0.55279 0.67843 0.0
C1201 C 0.99593 0.58497 0.68397 0.0
C1202 C 1.00675 0.58878 0.7309 0.0
C1203 C 0.01895 0.57456 0.7498 0.0
C1204 C 0.01969 0.55681 0.72424 0.0
C1205 C 1.00441 0.60682 0.7631 0.0
C1206 C 0.02046 0.6176 0.77685 0.0
C1207 C 0.9865 0.61317 0.78159 0.0
C1208 C 0.96888 0.60269 0.76858 0.0
C1209 C 0.96722 0.58334 0.78057 0.0
C1210 C 0.95129 0.57322 0.7639 0.0
C1211 C 0.93659 0.58238 0.73673 0.0
C1212 C 0.93778 0.60175 0.72645 0.0
C1213 C 0.95386 0.61189 0.74219 0.0
H1214 H 0.92429 0.57448 0.72357 0.0
H1215 H 0.0822 0.67587 0.83401 0.0
H1216 H 0.12888 0.1695 0.16907 0.0
H1217 H 0.12636 0.14178 0.22418 0.0
H1218 H 0.13076 0.17593 0.36833 0.0
H1219 H 0.13481 0.20418 0.31327 0.0
H1220 H 0.14036 0.1333 0.37806 0.0
H1221 H 0.09154 0.17814 0.3212 0.0
H1222 H 0.07637 0.19782 0.25174 0.0
H1223 H 0.06416 0.1483 0.15673 0.0
H1224 H 0.07958 0.12831 0.22533 0.0
H1225 H 0.0626 0.10326 0.54254 0.0
H1226 H 0.09009 0.11573 0.4951 0.0
H1227 H 0.07156 0.08818 0.34827 0.0
H1228 H 0.04357 0.07667 0.39405 0.0
H1229 H 0.07209 0.12478 0.33708 0.0
H1230 H 0.11552 0.07909 0.40278 0.0
H1231 H 0.13249 0.05917 0.46834 0.0
H1232 H 0.15378 0.10886 0.5483 0.0
H1233 H 0.137 0.12908 0.48283 0.0
C1234 C 0.13053 0.17138 0.21222 0.0
C1235 C 0.13114 0.18951 0.23639 0.0
C1236 C 0.12906 0.15524 0.2439 0.0
C1237 C 0.12769 0.15691 0.30015 0.0
C1238 C 0.13151 0.17442 0.32477 0.0
C1239 C 0.13339 0.19064 0.29301 0.0
C1240 C 0.11676 0.14252 0.3298 0.0
C1241 C 0.12541 0.13141 0.36966 0.0
C1242 C 0.09734 0.13992 0.31782 0.0
C1243 C 0.0872 0.15179 0.27772 0.0
C1244 C 0.08582 0.17147 0.28521 0.0
C1245 C 0.07712 0.18268 0.24603 0.0
C1246 C 0.06943 0.17437 0.19959 0.0
C1247 C 0.07026 0.15476 0.19252 0.0
C1248 C 0.07902 0.14347 0.23152 0.0
C1249 C 0.06448 0.09964 0.50028 0.0
C1250 C 0.05044 0.08955 0.47174 0.0
C1251 C 0.08044 0.10648 0.47347 0.0
C1252 C 0.08277 0.10305 0.41796 0.0
C1253 C 0.06998 0.09105 0.39111 0.0
C1254 C 0.05393 0.08444 0.41758 0.0
C1255 C 0.09553 0.11522 0.3859 0.0
C1256 C 0.0871 0.12623 0.34549 0.0
C1257 C 0.115 0.11764 0.39787 0.0
C1258 C 0.12487 0.10559 0.43799 0.0
C1259 C 0.1237 0.08576 0.43449 0.0
C1260 C 0.13333 0.07442 0.47158 0.0
C1261 C 0.14412 0.08274 0.51266 0.0
C1262 C 0.14539 0.10243 0.51649 0.0
C1263 C 0.13589 0.11384 0.47923 0.0
H1264 H 0.15154 0.07393 0.54141 0.0
H1265 H 0.06271 0.1831 0.16929 0.0
H1266 H 0.31681 0.14329 0.38473 0.0
H1267 H 0.34117 0.14005 0.4544 0.0
H1268 H 0.37917 0.11623 0.3359 0.0
H1269 H 0.35528 0.11832 0.26818 0.0
H1270 H 0.34969 0.10566 0.47995 0.0
H1271 H 0.42205 0.1155 0.363 0.0
H1272 H 0.43829 0.14125 0.31621 0.0
H1273 H 0.40492 0.1823 0.40188 0.0
H1274 H 0.38852 0.15676 0.4503 0.0
H1275 H 0.39446 0.02919 0.39097 0.0
H1276 H 0.38289 0.06122 0.40388 0.0
H1277 H 0.42425 0.07072 0.52961 0.0
H1278 H 0.43583 0.03817 0.51777 0.0
H1279 H 0.41887 0.10144 0.4492 0.0
H1280 H 0.38504 0.06441 0.57115 0.0
H1281 H 0.3687 0.03544 0.5998 0.0
H1282 H 0.32334 0.04683 0.48927 0.0
H1283 H 0.33998 0.07499 0.45654 0.0
C1284 C 0.3305 0.13774 0.37318 0.0
C1285 C 0.33361 0.13051 0.32063 0.0
C1286 C 0.34454 0.1362 0.41307 0.0
C1287 C 0.36206 0.12785 0.40074 0.0
C1288 C 0.36599 0.12308 0.34677 0.0
C1289 C 0.35199 0.12428 0.3074 0.0
C1290 C 0.37386 0.11889 0.44331 0.0
C1291 C 0.36489 0.10501 0.47453 0.0
C1292 C 0.39385 0.11869 0.43905 0.0
C1293 C 0.40409 0.13413 0.41082 0.0
C1294 C 0.4183 0.12999 0.37271 0.0
C1295 C 0.42751 0.14458 0.34558 0.0
C1296 C 0.4227 0.16342 0.35602 0.0
C1297 C 0.40864 0.1677 0.39379 0.0
C1298 C 0.39935 0.15315 0.42108 0.0
C1299 C 0.40098 0.0379 0.42197 0.0
C1300 C 0.41579 0.03095 0.45407 0.0
C1301 C 0.39446 0.05627 0.42895 0.0
C1302 C 0.4025 0.06811 0.4684 0.0
C1303 C 0.41781 0.06166 0.49928 0.0
C1304 C 0.42438 0.0431 0.49235 0.0
C1305 C 0.39404 0.08697 0.47677 0.0
C1306 C 0.4038 0.10264 0.45672 0.0
C1307 C 0.3746 0.08857 0.4898 0.0
C1308 C 0.36384 0.0721 0.51154 0.0
C1309 C 0.37167 0.06072 0.55245 0.0
C1310 C 0.36239 0.04432 0.56921 0.0
C1311 C 0.34493 0.03941 0.54679 0.0
C1312 C 0.33682 0.05074 0.50693 0.0
C1313 C 0.34625 0.0669 0.489 0.0
H1314 H 0.3377 0.0268 0.56024 0.0
H1315 H 0.42982 0.17469 0.33476 0.0
H1316 H 0.43956 0.29143 0.39474 0.0
H1317 H 0.45288 0.30727 0.47361 0.0
H1318 H 0.44255 0.36141 0.39937 0.0
H1319 H 0.42785 0.34576 0.32235 0.0
H1320 H 0.48391 0.32461 0.46747 0.0
H1321 H 0.44468 0.39812 0.48575 0.0
H1322 H 0.41201 0.41016 0.48706 0.0
H1323 H 0.39159 0.35523 0.53124 0.0
H1324 H 0.42412 0.34283 0.53099 0.0
H1325 H 0.52219 0.41659 0.45367 0.0
H1326 H 0.49905 0.39115 0.45173 0.0
H1327 H 0.51447 0.37557 0.6142 0.0
H1328 H 0.53747 0.40163 0.61732 0.0
H1329 H 0.46807 0.38686 0.54872 0.0
H1330 H 0.51872 0.34211 0.59358 0.0
H1331 H 0.55179 0.33112 0.58815 0.0
H1332 H 0.54783 0.3289 0.41493 0.0
H1333 H 0.51478 0.34013 0.41947 0.0
C1334 C 0.43926 0.30673 0.39612 0.0
C1335 C 0.43287 0.3173 0.35153 0.0
C1336 C 0.44708 0.31578 0.44127 0.0
C1337 C 0.44884 0.33554 0.44259 0.0
C1338 C 0.44114 0.34616 0.4 0.0
C1339 C 0.43302 0.33715 0.35529 0.0
C1340 C 0.46155 0.34482 0.48259 0.0
C1341 C 0.48017 0.33792 0.48671 0.0
C1342 C 0.45677 0.36214 0.50831 0.0
C1343 C 0.43702 0.36953 0.50877 0.0
C1344 C 0.4333 0.3886 0.49643 0.0
C1345 C 0.41475 0.39549 0.49675 0.0
C1346 C 0.39974 0.38348 0.50933 0.0
C1347 C 0.40324 0.36453 0.52155 0.0
C1348 C 0.42175 0.35756 0.5213 0.0
C1349 C 0.52058 0.40791 0.48929 0.0
C1350 C 0.5314 0.41134 0.536 0.0
C1351 C 0.50742 0.39333 0.48799 0.0
C1352 C 0.50491 0.38174 0.53309 0.0
C1353 C 0.51611 0.38455 0.57926 0.0
C1354 C 0.5293 0.39932 0.58078 0.0
C1355 C 0.49018 0.36705 0.52997 0.0
C1356 C 0.47127 0.37301 0.53193 0.0
C1357 C 0.49456 0.3489 0.50989 0.0
C1358 C 0.51436 0.34208 0.50692 0.0
C1359 C 0.52495 0.33942 0.55437 0.0
C1360 C 0.54368 0.33312 0.55145 0.0
C1361 C 0.55193 0.32935 0.50122 0.0
C1362 C 0.54144 0.33184 0.45382 0.0
C1363 C 0.5227 0.33815 0.45656 0.0
H1364 H 0.56643 0.32447 0.49902 0.0
H1365 H 0.38539 0.38884 0.50951 0.0
H1366 H 0.19797 0.37724 0.28209 0.0
H1367 H 0.17213 0.37767 0.34798 0.0
H1368 H 0.1941 0.4296 0.41587 0.0
H1369 H 0.22007 0.42883 0.35202 0.0
H1370 H 0.17443 0.41282 0.48976 0.0
H1371 H 0.16487 0.42819 0.29922 0.0
H1372 H 0.16362 0.42157 0.20121 0.0
H1373 H 0.12351 0.37702 0.22823 0.0
H1374 H 0.12476 0.38323 0.32653 0.0
H1375 H 0.10475 0.48439 0.47163 0.0
H1376 H 0.13069 0.4618 0.48133 0.0
H1377 H 0.09166 0.4156 0.45769 0.0
H1378 H 0.06581 0.43817 0.44643 0.0
H1379 H 0.1168 0.41949 0.37698 0.0
H1380 H 0.13129 0.40264 0.57219 0.0
H1381 H 0.13637 0.40936 0.66923 0.0
H1382 H 0.16613 0.46033 0.62953 0.0
H1383 H 0.16189 0.45343 0.53214 0.0
C1384 C 0.19771 0.38823 0.31278 0.0
C1385 C 0.21078 0.4032 0.31131 0.0
C1386 C 0.18291 0.38853 0.35022 0.0
C1387 C 0.18079 0.40406 0.38545 0.0
C1388 C 0.19531 0.41755 0.38879 0.0
C1389 C 0.21024 0.41708 0.35215 0.0
C1390 C 0.16227 0.40852 0.41062 0.0
C1391 C 0.16176 0.41411 0.46518 0.0
C1392 C 0.14558 0.40996 0.37904 0.0
C1393 C 0.14517 0.40593 0.32017 0.0
C1394 C 0.15594 0.41686 0.28425 0.0
C1395 C 0.15521 0.4132 0.22868 0.0
C1396 C 0.14357 0.39881 0.20854 0.0
C1397 C 0.13262 0.38806 0.24393 0.0
C1398 C 0.13336 0.39162 0.29956 0.0
C1399 C 0.10159 0.4694 0.47085 0.0
C1400 C 0.08334 0.46301 0.45756 0.0
C1401 C 0.11641 0.45645 0.477 0.0
C1402 C 0.11313 0.43695 0.47077 0.0
C1403 C 0.0945 0.43054 0.46336 0.0
C1404 C 0.07975 0.44346 0.45649 0.0
C1405 C 0.12911 0.42445 0.45549 0.0
C1406 C 0.12917 0.41746 0.40231 0.0
C1407 C 0.14543 0.4222 0.48777 0.0
C1408 C 0.14595 0.42774 0.54528 0.0
C1409 C 0.13869 0.4154 0.5843 0.0
C1410 C 0.14167 0.41909 0.63924 0.0
C1411 C 0.15158 0.43525 0.6555 0.0
C1412 C 0.15848 0.44781 0.61685 0.0
C1413 C 0.15588 0.44397 0.5618 0.0
H1414 H 0.1539 0.43802 0.69804 0.0
H1415 H 0.14297 0.39604 0.16548 0.0
H1416 H 0.91022 0.85158 1.00412 0.0
H1417 H 0.91095 0.87974 0.9497 0.0
H1418 H 0.887 0.84873 0.81501 0.0
H1419 H 0.88752 0.8198 0.8693 0.0
H1420 H 0.91784 0.86272 0.78682 0.0
H1421 H 0.86664 0.88902 0.88063 0.0
H1422 H 0.84772 0.89647 0.96135 0.0
H1423 H 0.89046 0.93519 0.0163 0.0
H1424 H 0.91022 0.9272 0.93782 0.0
H1425 H 0.96895 0.93549 0.66782 0.0
H1426 H 0.93798 0.92182 0.69022 0.0
H1427 H 0.95104 0.92745 0.86011 0.0
H1428 H 0.98194 0.94072 0.83758 0.0
H1429 H 0.9127 0.93 0.84255 0.0
H1430 H 0.96573 0.88923 0.79377 0.0
H1431 H 0.99013 0.87388 0.73742 0.0
H1432 H 0.94802 0.85921 0.619 0.0
H1433 H 0.92339 0.87467 0.67457 0.0
C1434 C 0.90427 0.85088 0.96375 0.0
C1435 C 0.89883 0.83349 0.94087 0.0
C1436 C 0.9046 0.86715 0.93246 0.0
C1437 C 0.89886 0.86657 0.87808 0.0
C1438 C 0.89149 0.84957 0.85686 0.0
C1439 C 0.89169 0.83307 0.88785 0.0
C1440 C 0.90442 0.8823 0.84172 0.0
C1441 C 0.91599 0.8775 0.79777 0.0
C1442 C 0.90241 0.90162 0.85674 0.0
C1443 C 0.89002 0.90744 0.90275 0.0
C1444 C 0.87218 0.89896 0.91013 0.0
C1445 C 0.86134 0.90318 0.95585 0.0
C1446 C 0.8679 0.91628 0.99398 0.0
C1447 C 0.88538 0.92508 0.98665 0.0
C1448 C 0.89645 0.92065 0.94153 0.0
C1449 C 0.96483 0.93435 0.70983 0.0
C1450 C 0.97774 0.9388 0.75116 0.0
C1451 C 0.94717 0.92663 0.7226 0.0
C1452 C 0.9423 0.92337 0.77685 0.0
C1453 C 0.95443 0.92986 0.81802 0.0
C1454 C 0.97211 0.93737 0.80523 0.0
C1455 C 0.92702 0.90995 0.79125 0.0
C1456 C 0.91356 0.91527 0.83031 0.0
C1457 C 0.9278 0.89086 0.77377 0.0
C1458 C 0.94282 0.88347 0.73764 0.0
C1459 C 0.96175 0.88307 0.7552 0.0
C1460 C 0.97557 0.87417 0.72372 0.0
C1461 C 0.97062 0.86553 0.67474 0.0
C1462 C 0.95183 0.86589 0.65697 0.0
C1463 C 0.93795 0.87479 0.68832 0.0
H1464 H 0.98134 0.85865 0.65041 0.0
H1465 H 0.85941 0.91965 0.02911 0.0
H1466 H 0.66681 0.91044 0.93822 0.0
H1467 H 0.64294 0.91269 0.86837 0.0
H1468 H 0.68553 0.90345 0.74619 0.0
H1469 H 0.70974 0.90144 0.81667 0.0
H1470 H 0.67218 0.93768 0.74153 0.0
H1471 H 0.64291 0.87736 0.7497 0.0
H1472 H 0.6285 0.84904 0.79003 0.0
H1473 H 0.58436 0.88317 0.85906 0.0
H1474 H 0.59854 0.91174 0.81974 0.0
H1475 H 0.60658 0.98254 0.56854 0.0
H1476 H 0.6251 0.95609 0.60342 0.0
H1477 H 0.59723 0.96169 0.75762 0.0
H1478 H 0.57936 0.9887 0.72415 0.0
H1479 H 0.60373 0.92395 0.72766 0.0
H1480 H 0.63534 0.98304 0.74084 0.0
H1481 H 0.64954 0.01299 0.71119 0.0
H1482 H 0.69002 0.98242 0.6156 0.0
H1483 H 0.67531 0.95218 0.642 0.0
C1484 C 0.67102 0.90778 0.89678 0.0
C1485 C 0.69023 0.90628 0.88278 0.0
C1486 C 0.65724 0.90903 0.85656 0.0
C1487 C 0.66246 0.90856 0.80184 0.0
C1488 C 0.68122 0.90403 0.78819 0.0
C1489 C 0.69506 0.90293 0.82846 0.0
C1490 C 0.65003 0.91797 0.76179 0.0
C1491 C 0.65734 0.93414 0.73646 0.0
C1492 C 0.63047 0.91395 0.75749 0.0
C1493 C 0.62192 0.89677 0.78188 0.0
C1494 C 0.63023 0.87888 0.77385 0.0
C1495 C 0.62205 0.86276 0.79642 0.0
C1496 C 0.60552 0.8643 0.82704 0.0
C1497 C 0.59712 0.88198 0.83517 0.0
C1498 C 0.60522 0.89815 0.81264 0.0
C1499 C 0.60436 0.97817 0.60983 0.0
C1500 C 0.59179 0.98811 0.64382 0.0
C1501 C 0.61482 0.96293 0.6295 0.0
C1502 C 0.61268 0.95715 0.68325 0.0
C1503 C 0.59907 0.96598 0.71598 0.0
C1504 C 0.5888 0.98141 0.6966 0.0
C1505 C 0.62591 0.94334 0.70726 0.0
C1506 C 0.61871 0.92675 0.73015 0.0
C1507 C 0.64552 0.9471 0.71038 0.0
C1508 C 0.65385 0.9653 0.69226 0.0
C1509 C 0.64691 0.98266 0.71222 0.0
C1510 C 0.65506 0.99971 0.69599 0.0
C1511 C 0.6705 0.9996 0.66086 0.0
C1512 C 0.67783 0.98245 0.64199 0.0
C1513 C 0.66951 0.96535 0.65729 0.0
H1514 H 0.6769 0.0128 0.64869 0.0
H1515 H 0.59921 0.8518 0.84447 0.0
H1516 H 0.59108 0.71188 0.75351 0.0
H1517 H 0.58816 0.68508 0.69234 0.0
H1518 H 0.63035 0.65474 0.78384 0.0
H1519 H 0.63265 0.68147 0.84724 0.0
H1520 H 0.60432 0.66012 0.62772 0.0
H1521 H 0.61535 0.61137 0.8044 0.0
H1522 H 0.61752 0.61134 0.90413 0.0
H1523 H 0.57925 0.65852 0.91228 0.0
H1524 H 0.57677 0.65867 0.81275 0.0
H1525 H 0.53561 0.57345 0.69197 0.0
H1526 H 0.56801 0.58498 0.68589 0.0
H1527 H 0.54744 0.63604 0.61043 0.0
H1528 H 0.5156 0.62337 0.61025 0.0
H1529 H 0.57676 0.61072 0.74475 0.0
H1530 H 0.57546 0.66477 0.56689 0.0
H1531 H 0.56935 0.66447 0.46864 0.0
H1532 H 0.5845 0.60571 0.46049 0.0
H1533 H 0.59031 0.6055 0.55888 0.0
C1534 C 0.60028 0.6998 0.75957 0.0
C1535 C 0.61182 0.69858 0.80575 0.0
C1536 C 0.59866 0.68445 0.72427 0.0
C1537 C 0.60864 0.66765 0.73427 0.0
C1538 C 0.62216 0.6674 0.77608 0.0
C1539 C 0.62347 0.68264 0.8123 0.0
C1540 C 0.60157 0.64985 0.70917 0.0
C1541 C 0.59847 0.6491 0.65298 0.0
C1542 C 0.59455 0.63503 0.74171 0.0
C1543 C 0.59614 0.6352 0.80138 0.0
C1544 C 0.60749 0.62176 0.82761 0.0
C1545 C 0.60874 0.62171 0.88404 0.0
C1546 C 0.59862 0.635 0.91453 0.0
C1547 C 0.58715 0.6483 0.88867 0.0
C1548 C 0.5858 0.64836 0.83229 0.0
C1549 C 0.53822 0.58657 0.67102 0.0
C1550 C 0.52307 0.59755 0.65206 0.0
C1551 C 0.55676 0.59328 0.66798 0.0
C1552 C 0.56042 0.6115 0.64792 0.0
C1553 C 0.54538 0.6218 0.62507 0.0
C1554 C 0.52695 0.61478 0.62642 0.0
C1555 C 0.57811 0.6216 0.66358 0.0
C1556 C 0.58334 0.62094 0.71832 0.0
C1557 C 0.58685 0.63508 0.62963 0.0
C1558 C 0.58343 0.63515 0.57033 0.0
C1559 C 0.5776 0.6518 0.54413 0.0
C1560 C 0.57405 0.65169 0.48847 0.0
C1561 C 0.57655 0.6351 0.45838 0.0
C1562 C 0.58257 0.61856 0.48389 0.0
C1563 C 0.58581 0.61849 0.5397 0.0
H1564 H 0.57384 0.63507 0.4153 0.0
H1565 H 0.59962 0.63495 0.9582 0.0
H1566 H 0.80919 0.63288 0.91773 0.0
H1567 H 0.83968 0.6253 0.87664 0.0
H1568 H 0.86014 0.60475 0.02958 0.0
H1569 H 0.82996 0.6111 0.07021 0.0
H1570 H 0.88955 0.61685 0.96066 0.0
H1571 H 0.83474 0.57501 0.96394 0.0
H1572 H 0.8009 0.56857 0.94744 0.0
H1573 H 0.80827 0.5805 0.77873 0.0
H1574 H 0.84214 0.58731 0.79455 0.0
H1575 H 0.94231 0.53275 0.915 0.0
H1576 H 0.92122 0.55796 0.94452 0.0
H1577 H 0.89642 0.55989 0.78493 0.0
H1578 H 0.91567 0.53315 0.75739 0.0
H1579 H 0.87037 0.56183 0.84793 0.0
H1580 H 0.93058 0.59649 0.8518 0.0
H1581 H 0.96353 0.60247 0.88142 0.0
H1582 H 0.94598 0.60252 0.04707 0.0
H1583 H 0.91307 0.59637 0.01897 0.0
C1584 C 0.82029 0.62722 0.94315 0.0
C1585 C 0.81653 0.62171 0.99674 0.0
C1586 C 0.83783 0.62314 0.91963 0.0
C1587 C 0.85188 0.61392 0.94982 0.0
C1588 C 0.84939 0.61171 1.00548 0.0
C1589 C 0.83186 0.61545 0.02876 0.0
C1590 C 0.86641 0.60221 0.9227 0.0
C1591 C 0.88555 0.60495 0.93521 0.0
C1592 C 0.86102 0.58653 0.8905 0.0
C1593 C 0.84086 0.58184 0.88047 0.0
C1594 C 0.82911 0.57631 0.92337 0.0
C1595 C 0.80994 0.57261 0.91417 0.0
C1596 C 0.80243 0.57417 0.86209 0.0
C1597 C 0.8141 0.57934 0.81907 0.0
C1598 C 0.83328 0.58312 0.82812 0.0
C1599 C 0.93218 0.53833 0.88634 0.0
C1600 C 0.93084 0.53084 0.8336 0.0
C1601 C 0.92042 0.55319 0.90292 0.0
C1602 C 0.90754 0.56144 0.86658 0.0
C1603 C 0.90629 0.554 0.81388 0.0
C1604 C 0.91751 0.53874 0.7979 0.0
C1605 C 0.89408 0.5765 0.8843 0.0
C1606 C 0.87486 0.57414 0.871 0.0
C1607 C 0.8995 0.59229 0.91665 0.0
C1608 C 0.91938 0.59585 0.9332 0.0
C1609 C 0.93379 0.59764 0.8945 0.0
C1610 C 0.95243 0.60109 0.91098 0.0
C1611 C 0.95682 0.60283 0.96585 0.0
C1612 C 0.94258 0.60116 1.00454 0.0
C1613 C 0.92393 0.59773 0.98839 0.0
H1614 H 0.97126 0.60551 0.97836 0.0
H1615 H 0.78757 0.57135 0.85507 0.0
H1616 H 0.05944 0.19899 0.85068 0.0
H1617 H 0.05221 0.1709 0.79763 0.0
H1618 H 0.99517 0.17133 0.85942 0.0
H1619 H 1.00288 0.19883 0.9162 0.0
H1620 H 1.00621 0.13801 0.86476 0.0
H1621 H 0.00937 0.18086 0.71832 0.0
H1622 H 0.02243 0.20576 0.65991 0.0
H1623 H 0.07044 0.17067 0.62373 0.0
H1624 H 0.05782 0.14564 0.68257 0.0
H1625 H 0.97776 0.06058 0.69767 0.0
H1626 H 0.98244 0.09071 0.74377 0.0
H1627 H 0.03995 0.09253 0.68569 0.0
H1628 H 0.0347 0.06267 0.63617 0.0
H1629 H 0.02705 0.12541 0.6768 0.0
H1630 H 0.02552 0.08725 0.84688 0.0
H1631 H 0.01186 0.06475 0.91231 0.0
H1632 H 0.95848 0.09365 0.90316 0.0
H1633 H 0.97189 0.1161 0.83761 0.0
C1634 C 0.04528 0.19322 0.85311 0.0
C1635 C 0.03187 0.20121 0.8889 0.0
C1636 C 0.04104 0.17716 0.82174 0.0
C1637 C 0.02303 0.16873 0.82355 0.0
C1638 C 0.00924 0.17732 0.85698 0.0
C1639 C 0.01359 0.19329 0.88916 0.0
C1640 C 0.01917 0.15021 0.79451 0.0
C1641 C 0.01052 0.1355 0.82325 0.0
C1642 C 0.02502 0.14638 0.74054 0.0
C1643 C 0.03272 0.16144 0.70532 0.0
C1644 C 0.02279 0.17851 0.6983 0.0
C1645 C 0.0301 0.19264 0.66503 0.0
C1646 C 0.04727 0.18982 0.63824 0.0
C1647 C 0.05715 0.17284 0.64457 0.0
C1648 C 0.04992 0.15867 0.67784 0.0
C1649 C 0.99154 0.06725 0.69535 0.0
C1650 C 1.00603 0.05883 0.66448 0.0
C1651 C 0.99431 0.08452 0.72254 0.0
C1652 C 0.0118 0.094 0.72043 0.0
C1653 C 0.02634 0.08562 0.68906 0.0
C1654 C 0.02345 0.06836 0.6611 0.0
C1655 C 0.01443 0.11313 0.74756 0.0
C1656 C 0.02279 0.12799 0.7183 0.0
C1657 C 0.00803 0.11728 0.80083 0.0
C1658 C 0.99954 0.10288 0.83629 0.0
C1659 C 0.01077 0.08842 0.85795 0.0
C1660 C 1.00311 0.07581 0.89537 0.0
C1661 C 0.98422 0.07757 0.91126 0.0
C1662 C 0.97303 0.0921 0.8903 0.0
C1663 C 0.98065 0.10476 0.85307 0.0
H1664 H 0.97832 0.06779 0.94018 0.0
H1665 H 0.0529 0.20077 0.61248 0.0
H1666 H 0.33637 0.07839 0.86944 0.0
H1667 H 0.36038 0.0674 0.80718 0.0
H1668 H 0.34903 0.0097 0.85292 0.0
H1669 H 0.32595 0.02106 0.92004 0.0
H1670 H 0.38409 0.01284 0.85008 0.0
H1671 H 0.33894 0.03132 0.71565 0.0
H1672 H 0.3159 0.05235 0.67104 0.0
H1673 H 0.35898 0.09447 0.65054 0.0
H1674 H 0.38227 0.07371 0.69519 0.0
H1675 H 0.45193 0.9787 0.66172 0.0
H1676 H 0.4238 0.9863 0.71353 0.0
H1677 H 0.42842 0.04472 0.66528 0.0
H1678 H 0.45525 0.03629 0.60716 0.0
H1679 H 0.39508 0.03929 0.66776 0.0
H1680 H 0.43721 0.02262 0.82344 0.0
H1681 H 0.45902 1.00172 0.87397 0.0
H1682 H 0.42003 0.95559 0.85554 0.0
H1683 H 0.398 0.97634 0.80568 0.0
C1684 C 0.33876 0.06329 0.86604 0.0
C1685 C 0.32929 0.05067 0.90066 0.0
C1686 C 0.35245 0.05693 0.8294 0.0
C1687 C 0.35664 0.03757 0.82393 0.0
C1688 C 0.34627 0.02473 0.85596 0.0
C1689 C 0.3328 0.0312 0.89394 0.0
C1690 C 0.37287 0.0311 0.78853 0.0
C1691 C 0.38622 0.0184 0.80976 0.0
C1692 C 0.37624 0.03852 0.73616 0.0
C1693 C 0.36231 0.051 0.70904 0.0
C1694 C 0.34346 0.04511 0.7019 0.0
C1695 C 0.33037 0.05697 0.67658 0.0
C1696 C 0.33595 0.07476 0.65816 0.0
C1697 C 0.35465 0.08072 0.66504 0.0
C1698 C 0.36783 0.06888 0.69015 0.0
C1699 C 0.4471 0.99325 0.66266 0.0
C1700 C 0.4565 0.00707 0.63213 0.0
C1701 C 0.43103 0.99773 0.69348 0.0
C1702 C 0.42407 0.01639 0.6966 0.0
C1703 C 0.43335 0.03021 0.66507 0.0
C1704 C 0.44905 0.02551 0.63241 0.0
C1705 C 0.40661 0.02124 0.72968 0.0
C1706 C 0.39296 0.03365 0.70795 0.0
C1707 C 0.40286 0.01345 0.78158 0.0
C1708 C 0.41631 1.00086 0.80976 0.0
C1709 C 0.43353 0.00795 0.82949 0.0
C1710 C 0.44582 0.99618 0.85829 0.0
C1711 C 0.44102 0.97729 0.86731 0.0
C1712 C 0.4238 0.97019 0.84819 0.0
C1713 C 0.41138 0.98196 0.81994 0.0
H1714 H 0.45058 0.96819 0.88947 0.0
H1715 H 0.32581 0.08389 0.63837 0.0
H1716 H 0.44816 0.32951 0.84452 0.0
H1717 H 0.45718 0.354 0.78056 0.0
H1718 H 0.51408 0.35343 0.84405 0.0
H1719 H 0.50481 0.32899 0.90935 0.0
H1720 H 0.50201 0.38843 0.84055 0.0
H1721 H 0.50535 0.34053 0.7038 0.0
H1722 H 0.49527 0.31238 0.65181 0.0
H1723 H 0.44304 0.3399 0.61132 0.0
H1724 H 0.45305 0.36845 0.66156 0.0
H1725 H 0.53246 0.45733 0.65448 0.0
H1726 H 0.52859 0.42685 0.69877 0.0
H1727 H 0.46953 0.42639 0.65487 0.0
H1728 H 0.47342 0.45674 0.60928 0.0
H1729 H 0.48399 0.39133 0.64686 0.0
H1730 H 0.4836 0.44019 0.78074 0.0
H1731 H 0.49617 0.46862 0.8265 0.0
H1732 H 0.54622 0.43799 0.87164 0.0
H1733 H 0.53409 0.40946 0.82515 0.0
C1734 C 0.46276 0.33418 0.84372 0.0
C1735 C 0.4758 0.32719 0.88177 0.0
C1736 C 0.46795 0.34822 0.80693 0.0
C1737 C 0.4864 0.35566 0.80683 0.0
C1738 C 0.49976 0.34799 0.84303 0.0
C1739 C 0.49454 0.33384 0.87996 0.0
C1740 C 0.49096 0.37259 0.77277 0.0
C1741 C 0.49862 0.3888 0.79778 0.0
C1742 C 0.48604 0.37354 0.71723 0.0
C1743 C 0.47988 0.35653 0.68676 0.0
C1744 C 0.49169 0.34055 0.68383 0.0
C1745 C 0.48605 0.32458 0.65434 0.0
C1746 C 0.46854 0.32439 0.62804 0.0
C1747 C 0.45666 0.34016 0.63119 0.0
C1748 C 0.46236 0.35628 0.65986 0.0
C1749 C 0.51867 0.45077 0.65372 0.0
C1750 C 0.50317 0.45987 0.6293 0.0
C1751 C 0.51644 0.43328 0.67941 0.0
C1752 C 0.49864 0.42442 0.6815 0.0
C1753 C 0.48338 0.43293 0.65443 0.0
C1754 C 0.48561 0.45042 0.62865 0.0
C1755 C 0.49578 0.40684 0.71401 0.0
C1756 C 0.48799 0.39071 0.68914 0.0
C1757 C 0.50099 0.40585 0.76932 0.0
C1758 C 0.50802 0.42275 0.79907 0.0
C1759 C 0.49732 0.43955 0.80024 0.0
C1760 C 0.50437 0.45568 0.82626 0.0
C1761 C 0.522 0.45513 0.85186 0.0
C1762 C 0.53257 0.4384 0.85172 0.0
C1763 C 0.52562 0.42224 0.82556 0.0
H1764 H 0.52746 0.46764 0.87188 0.0
H1765 H 0.46417 0.31202 0.60526 0.0
H1766 H 0.20668 0.51134 0.87784 0.0
H1767 H 0.17991 0.51696 0.8172 0.0
H1768 H 0.16002 0.46015 0.84534 0.0
H1769 H 0.18782 0.45368 0.89842 0.0
H1770 H 0.1496 0.46561 0.75713 0.0
H1771 H 0.14249 0.50638 0.91107 0.0
H1772 H 0.15091 0.53134 0.97695 0.0
H1773 H 0.15353 0.5721 0.84913 0.0
H1774 H 0.14533 0.54731 0.78239 0.0
H1775 H 0.05206 0.47954 0.70532 0.0
H1776 H 0.082 0.47699 0.75362 0.0
H1777 H 0.10392 0.52429 0.66433 0.0
H1778 H 0.07369 0.52734 0.61706 0.0
H1779 H 0.11351 0.5254 0.7768 0.0
H1780 H 0.11558 0.47917 0.62697 0.0
H1781 H 0.0987 0.4534 0.57955 0.0
H1782 H 0.09873 0.42041 0.7245 0.0
H1783 H 0.11521 0.44614 0.77328 0.0
C1784 C 0.19688 0.49988 0.87011 0.0
C1785 C 0.19937 0.48221 0.89526 0.0
C1786 C 0.18119 0.50325 0.83608 0.0
C1787 C 0.16714 0.4893 0.8278 0.0
C1788 C 0.17022 0.47142 0.85078 0.0
C1789 C 0.18617 0.46784 0.88269 0.0
C1790 C 0.14913 0.49303 0.79638 0.0
C1791 C 0.14183 0.4787 0.76219 0.0
C1792 C 0.13849 0.51005 0.80184 0.0
C1793 C 0.14356 0.52495 0.8417 0.0
C1794 C 0.145 0.52064 0.89699 0.0
C1795 C 0.14971 0.53476 0.93448 0.0
C1796 C 0.15282 0.55328 0.91721 0.0
C1797 C 0.15117 0.55773 0.86242 0.0
C1798 C 0.14649 0.54366 0.82475 0.0
C1799 C 0.063 0.48968 0.69658 0.0
C1800 C 0.05999 0.50401 0.65826 0.0
C1801 C 0.0803 0.48809 0.72399 0.0
C1802 C 0.09534 0.50046 0.71278 0.0
C1803 C 0.09252 0.51469 0.67423 0.0
C1804 C 0.07512 0.51638 0.6471 0.0
C1805 C 0.11424 0.49792 0.73932 0.0
C1806 C 0.12162 0.51246 0.77196 0.0
C1807 C 0.12447 0.48078 0.73475 0.0
C1808 C 0.11667 0.46455 0.70371 0.0
C1809 C 0.11214 0.46635 0.64858 0.0
C1810 C 0.10257 0.4518 0.62152 0.0
C1811 C 0.09768 0.43529 0.64889 0.0
C1812 C 0.10248 0.43323 0.70336 0.0
C1813 C 0.11201 0.44775 0.73071 0.0
H1814 H 0.09024 0.42408 0.62782 0.0
H1815 H 0.15646 0.56419 0.94629 0.0
H1816 H 0.9729 0.82696 0.32078 0.0
H1817 H 0.97666 0.85631 0.37123 0.0
H1818 H 0.02846 0.86766 0.28546 0.0
H1819 H 0.02384 0.83898 0.2312 0.0
H1820 H 0.99732 0.87122 0.43892 0.0
H1821 H 0.03846 0.91428 0.27788 0.0
H1822 H 0.04138 0.91624 0.17866 0.0
H1823 H 0.98587 0.89239 0.15982 0.0
H1824 H 0.98253 0.89052 0.25888 0.0
H1825 H 0.044 0.96878 0.48287 0.0
H1826 H 0.03842 0.94074 0.42652 0.0
H1827 H 0.98151 0.93712 0.48818 0.0
H1828 H 0.98736 0.96497 0.54607 0.0
H1829 H 0.01381 0.93085 0.34547 0.0
H1830 H 0.96858 0.89636 0.49881 0.0
H1831 H 0.96248 0.89921 0.59678 0.0
H1832 H 0.02176 0.90786 0.62622 0.0
H1833 H 0.02807 0.90576 0.52824 0.0
C1834 C 0.98504 0.83573 0.3119 0.0
C1835 C 0.99779 0.83053 0.27045 0.0
C1836 C 0.9873 0.85259 0.34153 0.0
C1837 C 1.00258 0.86484 0.3317 0.0
C1838 C 0.01611 0.85903 0.29302 0.0
C1839 C 0.01365 0.84228 0.26248 0.0
C1840 C 1.00407 0.88356 0.36161 0.0
C1841 C 1.00072 0.88418 0.4178 0.0
C1842 C 0.00853 0.90086 0.33537 0.0
C1843 C 0.01035 0.90206 0.27577 0.0
C1844 C 0.02686 0.90951 0.25254 0.0
C1845 C 0.02859 0.9106 0.19634 0.0
C1846 C 0.01385 0.90438 0.16296 0.0
C1847 C 0.99731 0.89713 0.18571 0.0
C1848 C 0.9955 0.89604 0.24188 0.0
C1849 C 0.03021 0.96211 0.48397 0.0
C1850 C 0.016 0.96935 0.51814 0.0
C1851 C 0.02701 0.94607 0.45153 0.0
C1852 C 0.0096 0.93651 0.45304 0.0
C1853 C 0.9952 0.94394 0.4866 0.0
C1854 C 0.99843 0.96004 0.51925 0.0
C1855 C 0.00713 0.91825 0.42197 0.0
C1856 C 0.01037 0.91776 0.36591 0.0
C1857 C 1.00215 0.90116 0.44779 0.0
C1858 C 0.99878 0.90072 0.50661 0.0
C1859 C 0.98031 0.89861 0.52638 0.0
C1860 C 0.9768 0.90028 0.58176 0.0
C1861 C 0.99174 0.90357 0.61767 0.0
C1862 C 0.01021 0.90529 0.59836 0.0
C1863 C 0.01376 0.90396 0.54293 0.0
H1864 H 0.98897 0.90483 0.66043 0.0
H1865 H 0.01523 0.90522 0.11946 0.0
H1866 H 0.68839 0.02163 0.25573 0.0
H1867 H 0.65995 0.02744 0.30922 0.0
H1868 H 0.65928 0.96889 0.35719 0.0
H1869 H 0.68855 0.96345 0.3083 0.0
H1870 H 0.62684 0.01566 0.29511 0.0
H1871 H 0.63079 0.96097 0.46782 0.0
H1872 H 0.65505 0.94457 0.52186 0.0
H1873 H 0.69331 0.99099 0.49944 0.0
H1874 H 0.66913 0.0079 0.44631 0.0
H1875 H 0.54936 0.98677 0.51538 0.0
H1876 H 0.57987 0.98124 0.47022 0.0
H1877 H 0.57888 0.03854 0.41096 0.0
H1878 H 0.54789 0.04322 0.45081 0.0
H1879 H 0.61248 0.99269 0.47926 0.0
H1880 H 0.60449 0.04909 0.31869 0.0
H1881 H 0.58129 0.06276 0.25508 0.0
H1882 H 0.5522 0.00954 0.24625 0.0
H1883 H 0.57504 0.99574 0.31089 0.0
C1884 C 0.68266 0.01011 0.27917 0.0
C1885 C 0.69097 0.99199 0.27683 0.0
C1886 C 0.6661 0.0134 0.30938 0.0
C1887 C 0.65719 0.99868 0.33795 0.0
C1888 C 0.66579 0.98073 0.33688 0.0
C1889 C 0.68254 0.97754 0.30777 0.0
C1890 C 0.63831 1.00179 0.36514 0.0
C1891 C 0.62391 0.01087 0.33584 0.0
C1892 C 0.63391 0.99503 0.4177 0.0
C1893 C 0.64824 0.98555 0.45217 0.0
C1894 C 0.64433 0.96775 0.47467 0.0
C1895 C 0.65808 0.95834 0.50507 0.0
C1896 C 0.6758 0.9666 0.51328 0.0
C1897 C 0.67965 0.98451 0.49238 0.0
C1898 C 0.66591 0.99403 0.46222 0.0
C1899 C 0.55537 0.99786 0.49082 0.0
C1900 C 0.54573 0.01514 0.48469 0.0
C1901 C 0.57301 0.99484 0.46551 0.0
C1902 C 0.58174 0.00921 0.43476 0.0
C1903 C 0.57235 0.02671 0.43114 0.0
C1904 C 0.55459 0.02951 0.45489 0.0
C1905 C 0.60096 1.00638 0.40904 0.0
C1906 C 0.61544 0.99745 0.43864 0.0
C1907 C 0.60548 0.01308 0.35652 0.0
C1908 C 0.59117 0.02151 0.32022 0.0
C1909 C 0.59301 0.04039 0.30355 0.0
C1910 C 0.57992 0.04817 0.26749 0.0
C1911 C 0.56516 0.03707 0.24709 0.0
C1912 C 0.56347 0.01819 0.26274 0.0
C1913 C 0.57636 0.01043 0.29945 0.0
H1914 H 0.55512 0.04306 0.21887 0.0
H1915 H 0.68651 0.95918 0.53622 0.0
H1916 H 0.5154 0.70157 0.24252 0.0
H1917 H 0.50625 0.67838 0.31188 0.0
H1918 H 0.5651 0.66765 0.34593 0.0
H1919 H 0.57421 0.69087 0.27808 0.0
H1920 H 0.54359 0.6353 0.3118 0.0
H1921 H 0.54101 0.68672 0.4403 0.0
H1922 H 0.52994 0.71742 0.47598 0.0
H1923 H 0.47281 0.69681 0.47838 0.0
H1924 H 0.48352 0.66604 0.44199 0.0
H1925 H 0.54456 0.5711 0.52996 0.0
H1926 H 0.54847 0.60059 0.48067 0.0
H1927 H 0.48836 0.60357 0.45385 0.0
H1928 H 0.48435 0.57321 0.50048 0.0
H1929 H 0.5079 0.64018 0.48377 0.0
H1930 H 0.50928 0.58925 0.35796 0.0
H1931 H 0.51841 0.55926 0.31408 0.0
H1932 H 0.57543 0.57928 0.29742 0.0
H1933 H 0.56682 0.60913 0.34323 0.0
C1934 C 0.52633 0.69478 0.26628 0.0
C1935 C 0.54554 0.69799 0.25448 0.0
C1936 C 0.5211 0.68143 0.3057 0.0
C1937 C 0.535 0.67108 0.33381 0.0
C1938 C 0.55411 0.67532 0.32465 0.0
C1939 C 0.5593 0.68866 0.28588 0.0
C1940 C 0.53002 0.65433 0.36767 0.0
C1941 C 0.53599 0.63642 0.34975 0.0
C1942 C 0.51949 0.65566 0.4162 0.0
C1943 C 0.51303 0.67416 0.43778 0.0
C1944 C 0.52606 0.6888 0.44787 0.0
C1945 C 0.51986 0.7062 0.46837 0.0
C1946 C 0.50067 0.70909 0.47926 0.0
C1947 C 0.48766 0.69457 0.46982 0.0
C1948 C 0.49379 0.67714 0.4493 0.0
C1949 C 0.53214 0.57783 0.51308 0.0
C1950 C 0.51423 0.5693 0.5174 0.0
C1951 C 0.53441 0.59489 0.48545 0.0
C1952 C 0.5188 0.60424 0.46285 0.0
C1953 C 0.50066 0.59658 0.47067 0.0
C1954 C 0.4984 0.57919 0.49734 0.0
C1955 C 0.52178 0.62121 0.42813 0.0
C1956 C 0.51548 0.63909 0.4458 0.0
C1957 C 0.53185 0.61988 0.37877 0.0
C1958 C 0.53744 0.60137 0.35487 0.0
C1959 C 0.52387 0.58712 0.34616 0.0
C1960 C 0.52893 0.57016 0.32061 0.0
C1961 C 0.54747 0.5674 0.30273 0.0
C1962 C 0.56105 0.58148 0.31106 0.0
C1963 C 0.55611 0.59836 0.33718 0.0
H1964 H 0.55134 0.55431 0.28269 0.0
H1965 H 0.4959 0.72257 0.49516 0.0
H1966 H 0.79799 0.52828 0.3786 0.0
H1967 H 0.8281 0.5223 0.42472 0.0
H1968 H 0.85616 0.51811 0.27039 0.0
H1969 H 0.82579 0.52324 0.22433 0.0
H1970 H 0.87366 0.49559 0.33786 0.0
H1971 H 0.85421 0.5603 0.34622 0.0
H1972 H 0.83259 0.58688 0.3656 0.0
H1973 H 0.83302 0.5728 0.53426 0.0
H1974 H 0.8544 0.54592 0.51572 0.0
H1975 H 0.96541 0.52343 0.42962 0.0
H1976 H 0.93435 0.52427 0.38574 0.0
H1977 H 0.90745 0.51728 0.54058 0.0
H1978 H 0.93867 0.5166 0.58465 0.0
H1979 H 0.88965 0.54501 0.47382 0.0
H1980 H 0.91175 0.48078 0.46183 0.0
H1981 H 0.93563 0.45665 0.43883 0.0
H1982 H 0.93204 0.47199 0.2714 0.0
H1983 H 0.9085 0.49663 0.29365 0.0
C1984 C 0.81047 0.52537 0.35457 0.0
C1985 C 0.80948 0.52603 0.29783 0.0
C1986 C 0.82778 0.52223 0.38095 0.0
C1987 C 0.84469 0.5203 0.35132 0.0
C1988 C 0.84347 0.51964 0.29448 0.0
C1989 C 0.82605 0.52245 0.26805 0.0
C1990 C 0.86362 0.52054 0.37937 0.0
C1991 C 0.87714 0.50651 0.36721 0.0
C1992 C 0.86842 0.5347 0.41809 0.0
C1993 C 0.85575 0.55099 0.4295 0.0
C1994 C 0.8496 0.56281 0.3874 0.0
C1995 C 0.83739 0.57792 0.39823 0.0
C1996 C 0.8314 0.5815 0.45111 0.0
C1997 C 0.83765 0.56999 0.4933 0.0
C1998 C 0.84981 0.55481 0.48266 0.0
C1999 C 0.95292 0.5227 0.45453 0.0
C2000 C 0.95452 0.52052 0.51079 0.0
C2001 C 0.93512 0.52286 0.42927 0.0
C2002 C 0.91846 0.52081 0.45972 0.0
C2003 C 0.92003 0.51896 0.51614 0.0
C2004 C 0.93787 0.51856 0.54129 0.0
C2005 C 0.8995 0.52004 0.43256 0.0
C2006 C 0.88605 0.53403 0.44474 0.0
C2007 C 0.89494 0.50605 0.39332 0.0
C2008 C 0.90847 0.49068 0.37949 0.0
C2009 C 0.91612 0.47909 0.42013 0.0
C2010 C 0.92961 0.46532 0.40724 0.0
C2011 C 0.93537 0.46279 0.35368 0.0
C2012 C 0.92758 0.47398 0.31288 0.0
C2013 C 0.91417 0.48787 0.32563 0.0
H2014 H 0.94585 0.45216 0.34376 0.0
H2015 H 0.82195 0.59321 0.45942 0.0
loop_
_geom_bond_atom_site_label_1
_geom_bond_atom_site_label_2
_geom_bond_distance
_geom_bond_site_symmetry_2
_ccdc_geom_bond_type
C0 C1 1.391 . S
C0 C4 1.391 . S
C0 H42 0.948 . S
C1 C0 1.391 . S
C1 C2 1.391 . S
C2 C1 1.391 . S
C2 H58 0.947 . S
C2 C59 1.392 . S
C3 C4 1.391 . S
C3 C7 1.397 . S
C3 C59 1.419 . S
C4 C0 1.391 . S
C4 C3 1.391 . S
C4 C5 1.399 . S
C5 C4 1.399 . S
C5 C8 1.396 . S
C5 C17 1.453 . S
C5 C18 1.684 . S
H6 C30 0.948 . S
C7 C3 1.397 . S
C7 C8 1.394 . S
C7 C26 1.723 . S
C8 C5 1.396 . S
C8 C7 1.394 . S
C8 C38 1.723 . S
H9 C32 0.947 . S
H10 C33 0.948 . S
H11 C39 0.982 . S
H12 C40 0.979 1_554 S
H13 C40 0.980 . S
H14 C40 0.983 . S
H15 C39 0.979 1_556 S
H16 C39 0.977 1_556 S
C17 C5 1.453 . S
C17 H46 0.982 . S
C17 H47 0.979 . S
C17 H48 0.977 . S
C18 C5 1.684 . S
C18 H43 0.979 . S
C18 H44 0.980 . S
C18 H45 0.983 . S
C19 C20 1.391 1_554 S
C19 C24 1.391 . S
C19 H49 0.948 . S
C20 C19 1.391 1_556 S
C20 C21 1.391 . S
C21 C20 1.391 . S
C21 C22 1.392 . S
C21 H50 0.947 . S
C22 C21 1.392 . S
C22 C23 1.419 1_556 S
C22 H51 0.948 . S
C23 C22 1.419 1_554 S
C23 C24 1.391 . S
C23 C27 1.397 . S
C24 C19 1.391 . S
C24 C23 1.391 . S
C24 C25 1.399 . S
C25 C24 1.399 . S
C25 C26 1.396 . S
C25 C28 1.453 . S
C25 C29 1.684 . S
C26 C7 1.723 . S
C26 C25 1.396 . S
C26 C27 1.394 . S
C27 C23 1.397 . S
C27 C26 1.394 . S
C27 C37 1.723 . S
C28 C25 1.453 . S
C28 H52 0.982 . S
C28 H53 0.979 . S
C28 H54 0.977 . S
C29 C25 1.684 . S
C29 H55 0.979 . S
C29 H56 0.980 . S
C29 H57 0.983 . S
C30 H6 0.948 . S
C30 C31 1.391 . S
C30 C35 1.391 . S
C31 C30 1.391 . S
C31 C32 1.391 . S
C32 H9 0.947 . S
C32 C31 1.391 . S
C32 C33 1.392 . S
C33 H10 0.948 . S
C33 C32 1.392 . S
C33 C34 1.419 . S
C34 C33 1.419 . S
C34 C35 1.391 . S
C34 C38 1.397 . S
C35 C30 1.391 . S
C35 C34 1.391 . S
C35 C36 1.399 . S
C36 C35 1.399 . S
C36 C37 1.396 . S
C36 C39 1.453 . S
C36 C40 1.684 1_554 S
C37 C27 1.723 . S
C37 C36 1.396 . S
C37 C38 1.394 . S
C38 C8 1.723 . S
C38 C34 1.397 . S
C38 C37 1.394 . S
C39 H11 0.982 . S
C39 H15 0.979 1_554 S
C39 H16 0.977 1_554 S
C39 C36 1.453 . S
C40 H12 0.979 1_556 S
C40 H13 0.980 . S
C40 H14 0.983 . S
C40 C36 1.684 1_556 S
H41 C59 0.948 . S
H42 C0 0.948 . S
H43 C18 0.979 . S
H44 C18 0.980 . S
H45 C18 0.983 . S
H46 C17 0.982 . S
H47 C17 0.979 . S
H48 C17 0.977 . S
H49 C19 0.948 . S
H50 C21 0.947 . S
H51 C22 0.948 . S
H52 C28 0.982 . S
H53 C28 0.979 . S
H54 C28 0.977 . S
H55 C29 0.979 . S
H56 C29 0.980 . S
H57 C29 0.983 . S
H58 C2 0.947 . S
C59 C2 1.392 . S
C59 C3 1.419 . S
C59 H41 0.948 . S
C60 C61 1.391 . S
C60 C64 1.391 1_556 S
C60 H102 0.948 . S
C61 C60 1.391 . S
C61 C62 1.391 1_556 S
C62 C61 1.391 1_554 S
C62 H118 0.947 . S
C62 C119 1.392 . S
C63 C64 1.391 . S
C63 C67 1.397 . S
C63 C119 1.419 . S
C64 C60 1.391 1_554 S
C64 C63 1.391 . S
C64 C65 1.399 . S
C65 C64 1.399 . S
C65 C68 1.396 . S
C65 C77 1.458 . S
C65 C78 1.684 1_554 S
H66 C90 0.948 . S
C67 C63 1.397 . S
C67 C68 1.394 . S
C67 C86 1.723 . S
C68 C65 1.396 . S
C68 C67 1.394 . S
C68 C98 1.723 . S
H69 C92 0.947 . S
H70 C93 0.948 . S
H71 C99 0.982 . S
H72 C100 0.979 . S
H73 C100 0.980 . S
H74 C100 0.983 . S
H75 C99 0.979 . S
H76 C99 0.977 . S
C77 C65 1.458 . S
C77 H106 0.986 . S
C77 H107 0.968 1_554 S
C77 H108 0.978 . S
C78 C65 1.684 1_556 S
C78 H103 0.979 . S
C78 H104 0.980 . S
C78 H105 0.983 . S
C79 C80 1.391 . S
C79 C84 1.391 . S
C79 H109 0.948 . S
C80 C79 1.391 . S
C80 C81 1.391 . S
C81 C80 1.391 . S
C81 C82 1.392 . S
C81 H110 0.947 . S
C82 C81 1.392 . S
C82 C83 1.419 . S
C82 H111 0.948 . S
C83 C82 1.419 . S
C83 C84 1.391 . S
C83 C87 1.397 . S
C84 C79 1.391 . S
C84 C83 1.391 . S
C84 C85 1.399 . S
C85 C84 1.399 . S
C85 C86 1.396 . S
C85 C88 1.453 . S
C85 C89 1.684 . S
C86 C67 1.723 . S
C86 C85 1.396 . S
C86 C87 1.394 . S
C87 C83 1.397 . S
C87 C86 1.394 . S
C87 C97 1.723 . S
C88 C85 1.453 . S
C88 H112 0.982 . S
C88 H113 0.979 . S
C88 H114 0.977 . S
C89 C85 1.684 . S
C89 H115 0.979 . S
C89 H116 0.980 . S
C89 H117 0.983 . S
C90 H66 0.948 . S
C90 C91 1.391 . S
C90 C95 1.391 . S
C91 C90 1.391 . S
C91 C92 1.391 . S
C92 H69 0.947 . S
C92 C91 1.391 . S
C92 C93 1.392 . S
C93 H70 0.948 . S
C93 C92 1.392 . S
C93 C94 1.419 . S
C94 C93 1.419 . S
C94 C95 1.391 . S
C94 C98 1.397 . S
C95 C90 1.391 . S
C95 C94 1.391 . S
C95 C96 1.399 . S
C96 C95 1.399 . S
C96 C97 1.396 . S
C96 C99 1.453 . S
C96 C100 1.684 . S
C97 C87 1.723 . S
C97 C96 1.396 . S
C97 C98 1.394 . S
C98 C68 1.723 . S
C98 C94 1.397 . S
C98 C97 1.394 . S
C99 H71 0.982 . S
C99 H75 0.979 . S
C99 H76 0.977 . S
C99 C96 1.453 . S
C100 H72 0.979 . S
C100 H73 0.980 . S
C100 H74 0.983 . S
C100 C96 1.684 . S
H101 C119 0.948 . S
H102 C60 0.948 . S
H103 C78 0.979 . S
H104 C78 0.980 . S
H105 C78 0.983 . S
H106 C77 0.986 . S
H107 C77 0.968 1_556 S
H108 C77 0.978 . S
H109 C79 0.948 . S
H110 C81 0.947 . S
H111 C82 0.948 . S
H112 C88 0.982 . S
H113 C88 0.979 . S
H114 C88 0.977 . S
H115 C89 0.979 . S
H116 C89 0.980 . S
H117 C89 0.983 . S
H118 C62 0.947 . S
C119 C62 1.392 . S
C119 C63 1.419 . S
C119 H101 0.948 . S
C120 C121 1.391 . S
C120 C124 1.391 . S
C120 H162 0.948 . S
C121 C120 1.391 . S
C121 C122 1.391 . S
C122 C121 1.391 . S
C122 H178 0.947 . S
C122 C179 1.392 . S
C123 C124 1.391 . S
C123 C127 1.397 . S
C123 C179 1.419 . S
C124 C120 1.391 . S
C124 C123 1.391 . S
C124 C125 1.399 . S
C125 C124 1.399 . S
C125 C128 1.396 . S
C125 C137 1.453 . S
C125 C138 1.684 . S
H126 C150 0.948 . S
C127 C123 1.397 . S
C127 C128 1.394 . S
C127 C146 1.723 . S
C128 C125 1.396 . S
C128 C127 1.394 . S
C128 C158 1.723 . S
H129 C152 0.947 . S
H130 C153 0.948 . S
H131 C159 0.982 . S
H132 C160 0.979 . S
H133 C160 0.980 . S
H134 C160 0.983 . S
H135 C159 0.979 . S
H136 C159 0.977 . S
C137 C125 1.453 . S
C137 H166 0.982 . S
C137 H167 0.979 . S
C137 H168 0.977 . S
C138 C125 1.684 . S
C138 H163 0.979 . S
C138 H164 0.980 . S
C138 H165 0.983 . S
C139 C140 1.391 . S
C139 C144 1.391 1_556 S
C139 H169 0.948 . S
C140 C139 1.391 . S
C140 C141 1.391 1_556 S
C141 C140 1.391 1_554 S
C141 C142 1.392 . S
C141 H170 0.947 . S
C142 C141 1.392 . S
C142 C143 1.419 . S
C142 H171 0.948 . S
C143 C142 1.419 . S
C143 C144 1.391 . S
C143 C147 1.397 . S
C144 C139 1.391 1_554 S
C144 C143 1.391 . S
C144 C145 1.399 . S
C145 C144 1.399 . S
C145 C146 1.396 . S
C145 C148 1.453 . S
C145 C149 1.684 1_554 S
C146 C127 1.723 . S
C146 C145 1.396 . S
C146 C147 1.394 . S
C147 C143 1.397 . S
C147 C146 1.394 . S
C147 C157 1.723 . S
C148 C145 1.453 . S
C148 H172 0.982 . S
C148 H173 0.979 1_554 S
C148 H174 0.977 . S
C149 C145 1.684 1_556 S
C149 H175 0.979 . S
C149 H176 0.980 . S
C149 H177 0.983 . S
C150 H126 0.948 . S
C150 C151 1.391 . S
C150 C155 1.391 . S
C151 C150 1.391 . S
C151 C152 1.391 . S
C152 H129 0.947 . S
C152 C151 1.391 . S
C152 C153 1.392 . S
C153 H130 0.948 . S
C153 C152 1.392 . S
C153 C154 1.419 . S
C154 C153 1.419 . S
C154 C155 1.391 . S
C154 C158 1.397 . S
C155 C150 1.391 . S
C155 C154 1.391 . S
C155 C156 1.399 . S
C156 C155 1.399 . S
C156 C157 1.396 . S
C156 C159 1.453 . S
C156 C160 1.684 . S
C157 C147 1.723 . S
C157 C156 1.396 . S
C157 C158 1.394 . S
C158 C128 1.723 . S
C158 C154 1.397 . S
C158 C157 1.394 . S
C159 H131 0.982 . S
C159 H135 0.979 . S
C159 H136 0.977 . S
C159 C156 1.453 . S
C160 H132 0.979 . S
C160 H133 0.980 . S
C160 H134 0.983 . S
C160 C156 1.684 . S
H161 C179 0.948 . S
H162 C120 0.948 . S
H163 C138 0.979 . S
H164 C138 0.980 . S
H165 C138 0.983 . S
H166 C137 0.982 . S
H167 C137 0.979 . S
H168 C137 0.977 . S
H169 C139 0.948 . S
H170 C141 0.947 . S
H171 C142 0.948 . S
H172 C148 0.982 . S
H173 C148 0.979 1_556 S
H174 C148 0.977 . S
H175 C149 0.979 . S
H176 C149 0.980 . S
H177 C149 0.983 . S
H178 C122 0.947 . S
C179 C122 1.392 . S
C179 C123 1.419 . S
C179 H161 0.948 . S
C180 C181 1.391 . S
C180 C184 1.391 . S
C180 H222 0.948 . S
C181 C180 1.391 . S
C181 C182 1.391 . S
C182 C181 1.391 . S
C182 H238 0.947 . S
C182 C239 1.392 . S
C183 C184 1.391 . S
C183 C187 1.397 . S
C183 C239 1.419 . S
C184 C180 1.391 . S
C184 C183 1.391 . S
C184 C185 1.399 . S
C185 C184 1.399 . S
C185 C188 1.396 . S
C185 C197 1.453 . S
C185 C198 1.684 . S
H186 C210 0.948 . S
C187 C183 1.397 . S
C187 C188 1.394 . S
C187 C206 1.723 . S
C188 C185 1.396 . S
C188 C187 1.394 . S
C188 C218 1.723 . S
H189 C212 0.947 . S
H190 C213 0.948 . S
H191 C219 0.982 . S
H192 C220 0.979 1_554 S
H193 C220 0.980 . S
H194 C220 0.983 . S
H195 C219 0.979 1_556 S
H196 C219 0.977 1_556 S
C197 C185 1.453 . S
C197 H226 0.982 . S
C197 H227 0.979 . S
C197 H228 0.977 . S
C198 C185 1.684 . S
C198 H223 0.979 . S
C198 H224 0.980 . S
C198 H225 0.983 . S
C199 C200 1.391 1_554 S
C199 C204 1.391 . S
C199 H229 0.948 . S
C200 C199 1.391 1_556 S
C200 C201 1.391 . S
C201 C200 1.391 . S
C201 C202 1.392 . S
C201 H230 0.947 . S
C202 C201 1.392 . S
C202 C203 1.419 1_556 S
C202 H231 0.948 . S
C203 C202 1.419 1_554 S
C203 C204 1.391 . S
C203 C207 1.397 . S
C204 C199 1.391 . S
C204 C203 1.391 . S
C204 C205 1.399 . S
C205 C204 1.399 . S
C205 C206 1.396 . S
C205 C208 1.453 . S
C205 C209 1.684 . S
C206 C187 1.723 . S
C206 C205 1.396 . S
C206 C207 1.394 . S
C207 C203 1.397 . S
C207 C206 1.394 . S
C207 C217 1.723 . S
C208 C205 1.453 . S
C208 H232 0.982 . S
C208 H233 0.979 . S
C208 H234 0.977 . S
C209 C205 1.684 . S
C209 H235 0.979 . S
C209 H236 0.980 . S
C209 H237 0.983 . S
C210 H186 0.948 . S
C210 C211 1.391 . S
C210 C215 1.391 . S
C211 C210 1.391 . S
C211 C212 1.391 . S
C212 H189 0.947 . S
C212 C211 1.391 . S
C212 C213 1.392 . S
C213 H190 0.948 . S
C213 C212 1.392 . S
C213 C214 1.419 . S
C214 C213 1.419 . S
C214 C215 1.391 . S
C214 C218 1.397 . S
C215 C210 1.391 . S
C215 C214 1.391 . S
C215 C216 1.399 . S
C216 C215 1.399 . S
C216 C217 1.396 . S
C216 C219 1.453 . S
C216 C220 1.684 1_554 S
C217 C207 1.723 . S
C217 C216 1.396 . S
C217 C218 1.394 . S
C218 C188 1.723 . S
C218 C214 1.397 . S
C218 C217 1.394 . S
C219 H191 0.982 . S
C219 H195 0.979 1_554 S
C219 H196 0.977 1_554 S
C219 C216 1.453 . S
C220 H192 0.979 1_556 S
C220 H193 0.980 . S
C220 H194 0.983 . S
C220 C216 1.684 1_556 S
H221 C239 0.948 . S
H222 C180 0.948 . S
H223 C198 0.979 . S
H224 C198 0.980 . S
H225 C198 0.983 . S
H226 C197 0.982 . S
H227 C197 0.979 . S
H228 C197 0.977 . S
H229 C199 0.948 . S
H230 C201 0.947 . S
H231 C202 0.948 . S
H232 C208 0.982 . S
H233 C208 0.979 . S
H234 C208 0.977 . S
H235 C209 0.979 . S
H236 C209 0.980 . S
H237 C209 0.983 . S
H238 C182 0.947 . S
C239 C182 1.392 . S
C239 C183 1.419 . S
C239 H221 0.948 . S
C240 C241 1.391 . S
C240 C244 1.391 . S
C240 H282 0.948 1_554 S
C241 C240 1.391 . S
C241 C242 1.391 . S
C242 C241 1.391 . S
C242 H298 0.947 . S
C242 C299 1.392 . S
C243 C244 1.391 . S
C243 C247 1.397 . S
C243 C299 1.419 . S
C244 C240 1.391 . S
C244 C243 1.391 . S
C244 C245 1.399 1_554 S
C245 C244 1.399 1_556 S
C245 C248 1.396 . S
C245 C257 1.453 . S
C245 C258 1.684 . S
H246 C270 0.948 . S
C247 C243 1.397 . S
C247 C248 1.394 1_554 S
C247 C266 1.723 . S
C248 C245 1.396 . S
C248 C247 1.394 1_556 S
C248 C278 1.723 . S
H249 C272 0.947 . S
H250 C273 0.948 . S
H251 C279 0.982 . S
H252 C280 0.979 . S
H253 C280 0.980 . S
H254 C280 0.983 . S
H255 C279 0.979 . S
H256 C279 0.977 . S
C257 C245 1.453 . S
C257 H286 0.982 . S
C257 H287 0.979 . S
C257 H288 0.977 . S
C258 C245 1.684 . S
C258 H283 0.979 . S
C258 H284 0.980 . S
C258 H285 0.983 . S
C259 C260 1.391 . S
C259 C264 1.391 . S
C259 H289 0.948 . S
C260 C259 1.391 . S
C260 C261 1.391 . S
C261 C260 1.391 . S
C261 C262 1.392 . S
C261 H290 0.947 . S
C262 C261 1.392 . S
C262 C263 1.419 . S
C262 H291 0.948 . S
C263 C262 1.419 . S
C263 C264 1.391 . S
C263 C267 1.397 . S
C264 C259 1.391 . S
C264 C263 1.391 . S
C264 C265 1.399 . S
C265 C264 1.399 . S
C265 C266 1.396 . S
C265 C268 1.453 . S
C265 C269 1.684 . S
C266 C247 1.723 . S
C266 C265 1.396 . S
C266 C267 1.394 . S
C267 C263 1.397 . S
C267 C266 1.394 . S
C267 C277 1.723 1_554 S
C268 C265 1.453 . S
C268 H292 0.982 . S
C268 H293 0.979 . S
C268 H294 0.977 . S
C269 C265 1.684 . S
C269 H295 0.979 . S
C269 H296 0.980 . S
C269 H297 0.983 . S
C270 H246 0.948 . S
C270 C271 1.391 . S
C270 C275 1.391 . S
C271 C270 1.391 . S
C271 C272 1.391 . S
C272 H249 0.947 . S
C272 C271 1.391 . S
C272 C273 1.392 . S
C273 H250 0.948 . S
C273 C272 1.392 . S
C273 C274 1.419 . S
C274 C273 1.419 . S
C274 C275 1.391 . S
C274 C278 1.397 . S
C275 C270 1.391 . S
C275 C274 1.391 . S
C275 C276 1.399 . S
C276 C275 1.399 . S
C276 C277 1.396 . S
C276 C279 1.453 . S
C276 C280 1.684 . S
C277 C267 1.723 1_556 S
C277 C276 1.396 . S
C277 C278 1.394 . S
C278 C248 1.723 . S
C278 C274 1.397 . S
C278 C277 1.394 . S
C279 H251 0.982 . S
C279 H255 0.979 . S
C279 H256 0.977 . S
C279 C276 1.453 . S
C280 H252 0.979 . S
C280 H253 0.980 . S
C280 H254 0.983 . S
C280 C276 1.684 . S
H281 C299 0.948 . S
H282 C240 0.948 1_556 S
H283 C258 0.979 . S
H284 C258 0.980 . S
H285 C258 0.983 . S
H286 C257 0.982 . S
H287 C257 0.979 . S
H288 C257 0.977 . S
H289 C259 0.948 . S
H290 C261 0.947 . S
H291 C262 0.948 . S
H292 C268 0.982 . S
H293 C268 0.979 . S
H294 C268 0.977 . S
H295 C269 0.979 . S
H296 C269 0.980 . S
H297 C269 0.983 . S
H298 C242 0.947 . S
C299 C242 1.392 . S
C299 C243 1.419 . S
C299 H281 0.948 . S
C300 C301 1.391 . S
C300 C304 1.391 . S
C300 H342 0.948 . S
C301 C300 1.391 . S
C301 C302 1.391 . S
C302 C301 1.391 . S
C302 H358 0.947 . S
C302 C359 1.392 . S
C303 C304 1.391 . S
C303 C307 1.397 . S
C303 C359 1.419 . S
C304 C300 1.391 . S
C304 C303 1.391 . S
C304 C305 1.399 . S
C305 C304 1.399 . S
C305 C308 1.396 . S
C305 C317 1.453 . S
C305 C318 1.684 . S
H306 C330 0.948 1_556 S
C307 C303 1.397 . S
C307 C308 1.394 . S
C307 C326 1.723 1_554 S
C308 C305 1.396 . S
C308 C307 1.394 . S
C308 C338 1.723 . S
H309 C332 0.947 . S
H310 C333 0.948 . S
H311 C339 0.982 . S
H312 C340 0.979 . S
H313 C340 0.980 . S
H314 C340 0.983 . S
H315 C339 0.979 . S
H316 C339 0.977 . S
C317 C305 1.453 . S
C317 H346 0.982 . S
C317 H347 0.979 . S
C317 H348 0.977 . S
C318 C305 1.684 . S
C318 H343 0.979 . S
C318 H344 0.980 . S
C318 H345 0.983 . S
C319 C320 1.391 . S
C319 C324 1.391 . S
C319 H349 0.948 . S
C320 C319 1.391 . S
C320 C321 1.391 . S
C321 C320 1.391 . S
C321 C322 1.392 . S
C321 H350 0.947 . S
C322 C321 1.392 . S
C322 C323 1.419 . S
C322 H351 0.948 . S
C323 C322 1.419 . S
C323 C324 1.391 . S
C323 C327 1.397 . S
C324 C319 1.391 . S
C324 C323 1.391 . S
C324 C325 1.399 . S
C325 C324 1.399 . S
C325 C326 1.396 . S
C325 C328 1.453 . S
C325 C329 1.684 . S
C326 C307 1.723 1_556 S
C326 C325 1.396 . S
C326 C327 1.394 . S
C327 C323 1.397 . S
C327 C326 1.394 . S
C327 C337 1.723 . S
C328 C325 1.453 . S
C328 H352 0.982 . S
C328 H353 0.979 . S
C328 H354 0.977 . S
C329 C325 1.684 . S
C329 H355 0.979 . S
C329 H356 0.980 . S
C329 H357 0.983 . S
C330 H306 0.948 1_554 S
C330 C331 1.391 . S
C330 C335 1.391 . S
C331 C330 1.391 . S
C331 C332 1.391 . S
C332 H309 0.947 . S
C332 C331 1.391 . S
C332 C333 1.392 . S
C333 H310 0.948 . S
C333 C332 1.392 . S
C333 C334 1.419 . S
C334 C333 1.419 . S
C334 C335 1.391 . S
C334 C338 1.397 . S
C335 C330 1.391 . S
C335 C334 1.391 . S
C335 C336 1.399 1_554 S
C336 C335 1.399 1_556 S
C336 C337 1.396 . S
C336 C339 1.453 . S
C336 C340 1.684 . S
C337 C327 1.723 . S
C337 C336 1.396 . S
C337 C338 1.394 1_556 S
C338 C308 1.723 . S
C338 C334 1.397 . S
C338 C337 1.394 1_554 S
C339 H311 0.982 . S
C339 H315 0.979 . S
C339 H316 0.977 . S
C339 C336 1.453 . S
C340 H312 0.979 . S
C340 H313 0.980 . S
C340 H314 0.983 . S
C340 C336 1.684 . S
H341 C359 0.948 . S
H342 C300 0.948 . S
H343 C318 0.979 . S
H344 C318 0.980 . S
H345 C318 0.983 . S
H346 C317 0.982 . S
H347 C317 0.979 . S
H348 C317 0.977 . S
H349 C319 0.948 . S
H350 C321 0.947 . S
H351 C322 0.948 . S
H352 C328 0.982 . S
H353 C328 0.979 . S
H354 C328 0.977 . S
H355 C329 0.979 . S
H356 C329 0.980 . S
H357 C329 0.983 . S
H358 C302 0.947 . S
C359 C302 1.392 . S
C359 C303 1.419 . S
C359 H341 0.948 . S
C360 C361 1.391 . S
C360 C364 1.391 . S
C360 H402 0.948 . S
C361 C360 1.391 . S
C361 C362 1.391 . S
C362 C361 1.391 . S
C362 H418 0.947 . S
C362 C419 1.392 . S
C363 C364 1.391 . S
C363 C367 1.397 . S
C363 C419 1.419 . S
C364 C360 1.391 . S
C364 C363 1.391 . S
C364 C365 1.399 . S
C365 C364 1.399 . S
C365 C368 1.396 . S
C365 C377 1.453 . S
C365 C378 1.684 . S
H366 C390 0.948 . S
C367 C363 1.397 . S
C367 C368 1.394 . S
C367 C386 1.723 1_556 S
C368 C365 1.396 . S
C368 C367 1.394 . S
C368 C398 1.723 1_556 S
H369 C392 0.947 . S
H370 C393 0.948 . S
H371 C399 0.982 . S
H372 C400 0.979 . S
H373 C400 0.980 . S
H374 C400 0.983 . S
H375 C399 0.979 . S
H376 C399 0.977 . S
C377 C365 1.453 . S
C377 H406 0.982 . S
C377 H407 0.979 . S
C377 H408 0.977 . S
C378 C365 1.684 . S
C378 H403 0.979 . S
C378 H404 0.980 . S
C378 H405 0.983 . S
C379 C380 1.391 . S
C379 C384 1.391 . S
C379 H409 0.948 . S
C380 C379 1.391 . S
C380 C381 1.391 . S
C381 C380 1.391 . S
C381 C382 1.392 . S
C381 H410 0.947 . S
C382 C381 1.392 . S
C382 C383 1.419 . S
C382 H411 0.948 . S
C383 C382 1.419 . S
C383 C384 1.391 . S
C383 C387 1.397 . S
C384 C379 1.391 . S
C384 C383 1.391 . S
C384 C385 1.399 . S
C385 C384 1.399 . S
C385 C386 1.396 . S
C385 C388 1.453 . S
C385 C389 1.678 1_554 S
C386 C367 1.723 1_554 S
C386 C385 1.396 . S
C386 C387 1.394 . S
C387 C383 1.397 . S
C387 C386 1.394 . S
C387 C397 1.723 . S
C388 C385 1.453 . S
C388 H412 0.982 . S
C388 H413 0.979 . S
C388 H414 0.977 1_554 S
C389 C385 1.678 1_556 S
C389 H415 0.976 1_556 S
C389 H416 0.992 . S
C389 H417 0.979 1_556 S
C390 H366 0.948 . S
C390 C391 1.391 . S
C390 C395 1.391 . S
C391 C390 1.391 . S
C391 C392 1.391 1_554 S
C392 H369 0.947 . S
C392 C391 1.391 1_556 S
C392 C393 1.392 . S
C393 H370 0.948 . S
C393 C392 1.392 . S
C393 C394 1.419 1_556 S
C394 C393 1.419 1_554 S
C394 C395 1.391 . S
C394 C398 1.397 . S
C395 C390 1.391 . S
C395 C394 1.391 . S
C395 C396 1.399 . S
C396 C395 1.399 . S
C396 C397 1.396 . S
C396 C399 1.453 . S
C396 C400 1.684 . S
C397 C387 1.723 . S
C397 C396 1.396 . S
C397 C398 1.394 . S
C398 C368 1.723 1_554 S
C398 C394 1.397 . S
C398 C397 1.394 . S
C399 H371 0.982 . S
C399 H375 0.979 . S
C399 H376 0.977 . S
C399 C396 1.453 . S
C400 H372 0.979 . S
C400 H373 0.980 . S
C400 H374 0.983 . S
C400 C396 1.684 . S
H401 C419 0.948 . S
H402 C360 0.948 . S
H403 C378 0.979 . S
H404 C378 0.980 . S
H405 C378 0.983 . S
H406 C377 0.982 . S
H407 C377 0.979 . S
H408 C377 0.977 . S
H409 C379 0.948 . S
H410 C381 0.947 . S
H411 C382 0.948 . S
H412 C388 0.982 . S
H413 C388 0.979 . S
H414 C388 0.977 1_556 S
H415 C389 0.976 1_554 S
H416 C389 0.992 . S
H417 C389 0.979 1_554 S
H418 C362 0.947 . S
C419 C362 1.392 . S
C419 C363 1.419 . S
C419 H401 0.948 . S
C420 C421 1.391 . S
C420 C424 1.391 . S
C420 H462 0.948 . S
C421 C420 1.391 . S
C421 C422 1.391 . S
C422 C421 1.391 . S
C422 H478 0.947 . S
C422 C479 1.392 . S
C423 C424 1.391 . S
C423 C427 1.397 . S
C423 C479 1.419 . S
C424 C420 1.391 . S
C424 C423 1.391 . S
C424 C425 1.399 . S
C425 C424 1.399 . S
C425 C428 1.396 . S
C425 C437 1.453 . S
C425 C438 1.684 . S
H426 C450 0.948 . S
C427 C423 1.397 . S
C427 C428 1.394 . S
C427 C446 1.723 1_556 S
C428 C425 1.396 . S
C428 C427 1.394 . S
C428 C458 1.723 1_556 S
H429 C452 0.947 1_556 S
H430 C453 0.948 . S
H431 C459 0.982 . S
H432 C460 0.979 . S
H433 C460 0.980 . S
H434 C460 0.983 . S
H435 C459 0.979 . S
H436 C459 0.977 . S
C437 C425 1.453 . S
C437 H466 0.982 . S
C437 H467 0.979 . S
C437 H468 0.977 . S
C438 C425 1.684 . S
C438 H463 0.979 . S
C438 H464 0.980 . S
C438 H465 0.983 . S
C439 C440 1.391 . S
C439 C444 1.391 . S
C439 H469 0.948 . S
C440 C439 1.391 . S
C440 C441 1.391 . S
C441 C440 1.391 . S
C441 C442 1.392 . S
C441 H470 0.947 . S
C442 C441 1.392 . S
C442 C443 1.419 . S
C442 H471 0.948 . S
C443 C442 1.419 . S
C443 C444 1.391 . S
C443 C447 1.397 . S
C444 C439 1.391 . S
C444 C443 1.391 . S
C444 C445 1.399 . S
C445 C444 1.399 . S
C445 C446 1.396 . S
C445 C448 1.453 . S
C445 C449 1.684 . S
C446 C427 1.723 1_554 S
C446 C445 1.396 . S
C446 C447 1.394 . S
C447 C443 1.397 . S
C447 C446 1.394 . S
C447 C457 1.723 . S
C448 C445 1.453 . S
C448 H472 0.982 . S
C448 H473 0.979 . S
C448 H474 0.977 1_554 S
C449 C445 1.684 . S
C449 H475 0.979 . S
C449 H476 0.980 1_554 S
C449 H477 0.983 . S
C450 H426 0.948 . S
C450 C451 1.391 . S
C450 C455 1.391 . S
C451 C450 1.391 . S
C451 C452 1.391 . S
C452 H429 0.947 1_554 S
C452 C451 1.391 . S
C452 C453 1.392 1_554 S
C453 H430 0.948 . S
C453 C452 1.392 1_556 S
C453 C454 1.419 1_556 S
C454 C453 1.419 1_554 S
C454 C455 1.391 . S
C454 C458 1.397 . S
C455 C450 1.391 . S
C455 C454 1.391 . S
C455 C456 1.399 . S
C456 C455 1.399 . S
C456 C457 1.396 . S
C456 C459 1.453 . S
C456 C460 1.684 . S
C457 C447 1.723 . S
C457 C456 1.396 . S
C457 C458 1.394 . S
C458 C428 1.723 1_554 S
C458 C454 1.397 . S
C458 C457 1.394 . S
C459 H431 0.982 . S
C459 H435 0.979 . S
C459 H436 0.977 . S
C459 C456 1.453 . S
C460 H432 0.979 . S
C460 H433 0.980 . S
C460 H434 0.983 . S
C460 C456 1.684 . S
H461 C479 0.948 . S
H462 C420 0.948 . S
H463 C438 0.979 . S
H464 C438 0.980 . S
H465 C438 0.983 . S
H466 C437 0.982 . S
H467 C437 0.979 . S
H468 C437 0.977 . S
H469 C439 0.948 . S
H470 C441 0.947 . S
H471 C442 0.948 . S
H472 C448 0.982 . S
H473 C448 0.979 . S
H474 C448 0.977 1_556 S
H475 C449 0.979 . S
H476 C449 0.980 1_556 S
H477 C449 0.983 . S
H478 C422 0.947 . S
C479 C422 1.392 . S
C479 C423 1.419 . S
C479 H461 0.948 . S
Tb480 N511 2.660 1_565 S
Tb480 N518 2.600 . S
Tb480 O524 2.546 . S
Tb480 O525 2.610 1_455 S
Tb480 O527 2.320 1_455 S
Tb480 O528 2.552 . S
Tb480 O529 2.413 . S
Tb480 O531 2.362 1_565 S
Tb480 O532 2.421 . S
Tb480 C544 2.833 . S
C481 C484 1.418 1_545 S
C481 C485 1.414 . S
C481 N488 1.359 . S
C482 C484 1.437 . S
C482 C486 1.432 . S
C482 C494 1.410 . S
C483 C485 1.444 1_565 S
C483 C486 1.317 . S
C483 H506 0.929 . S
C484 C481 1.418 1_565 S
C484 C482 1.437 . S
C484 N492 1.354 1_565 S
C485 C481 1.414 . S
C485 C483 1.444 1_545 S
C485 C490 1.385 . S
C486 C482 1.432 . S
C486 C483 1.317 . S
C486 H498 0.930 . S
C487 C489 1.392 . S
C487 C490 1.370 . S
C487 H499 0.931 . S
N488 C481 1.359 . S
N488 C489 1.327 . S
N488 Tb491 2.600 . S
C489 C487 1.392 . S
C489 N488 1.327 . S
C489 H496 0.930 . S
C490 C485 1.385 . S
C490 C487 1.370 . S
C490 H509 0.930 . S
Tb491 N488 2.600 . S
Tb491 N492 2.660 . S
Tb491 O525 2.362 1_545 S
Tb491 O526 2.421 . S
Tb491 O530 2.546 . S
Tb491 O531 2.610 1_655 S
Tb491 O533 2.320 1_655 S
Tb491 O534 2.552 1_655 S
Tb491 O535 2.413 . S
Tb491 C555 2.833 . S
N492 C484 1.354 1_545 S
N492 Tb491 2.660 . S
N492 C493 1.305 1_645 S
C493 N492 1.305 1_465 S
C493 C495 1.407 . S
C493 H500 0.930 . S
C494 C482 1.410 . S
C494 C495 1.345 1_655 S
C494 H502 0.930 . S
C495 C493 1.407 . S
C495 C494 1.345 1_455 S
C495 H497 0.930 . S
H496 C489 0.930 . S
H497 C495 0.930 . S
H498 C486 0.930 . S
H499 C487 0.931 . S
H500 C493 0.930 . S
H501 C515 0.930 1_655 S
H502 C494 0.930 . S
H503 C521 0.930 . S
H504 C512 0.930 1_655 S
H505 C519 0.931 . S
H506 C483 0.929 . S
H507 C513 0.930 . S
H508 C546 0.930 . S
H509 C490 0.930 . S
H510 C545 0.929 . S
N511 Tb480 2.660 1_545 S
N511 C512 1.305 . S
N511 C516 1.360 . S
C512 H504 0.930 1_455 S
C512 N511 1.305 . S
C512 C515 1.407 . S
C513 H507 0.930 . S
C513 C514 1.410 . S
C513 C515 1.345 . S
C514 C513 1.410 . S
C514 C516 1.417 . S
C514 C546 1.432 . S
C515 H501 0.930 1_455 S
C515 C512 1.407 . S
C515 C513 1.345 . S
C516 N511 1.360 . S
C516 C514 1.417 . S
C516 C520 1.432 . S
H517 C522 0.930 . S
N518 Tb480 2.600 . S
N518 C520 1.359 1_565 S
N518 C521 1.327 . S
C519 H505 0.931 . S
C519 C521 1.392 . S
C519 C522 1.370 . S
C520 C516 1.432 . S
C520 N518 1.359 1_545 S
C520 C523 1.414 . S
C521 H503 0.930 . S
C521 N518 1.327 . S
C521 C519 1.392 . S
C522 H517 0.930 . S
C522 C519 1.370 . S
C522 C523 1.385 1_565 S
C523 C520 1.414 . S
C523 C522 1.385 1_545 S
C523 C545 1.444 . S
O524 Tb480 2.546 . S
O524 C544 1.251 . S
O525 Tb480 2.610 1_655 S
O525 Tb491 2.362 1_565 S
O525 C536 1.283 . S
O526 Tb491 2.421 . S
O526 C543 1.262 . S
O527 Tb480 2.320 1_655 S
O527 C543 1.260 1_565 S
O528 Tb480 2.552 . S
O528 C536 1.243 1_455 S
O529 Tb480 2.413 . S
O529 C544 1.256 . S
O530 Tb491 2.546 . S
O530 C555 1.251 . S
O531 Tb480 2.362 1_545 S
O531 Tb491 2.610 1_455 S
O531 C547 1.283 . S
O532 Tb480 2.421 . S
O532 C554 1.262 1_565 S
O533 Tb491 2.320 1_455 S
O533 C554 1.260 . S
O534 Tb491 2.552 1_455 S
O534 C547 1.243 . S
O535 Tb491 2.413 . S
O535 C555 1.256 . S
C536 O525 1.283 . S
C536 O528 1.243 1_655 S
C537 C539 1.382 . S
C537 C541 1.393 . S
C537 C544 1.500 . S
C538 C539 1.400 . S
C538 C540 1.384 . S
C539 C537 1.382 . S
C539 C538 1.400 . S
C539 H556 0.930 1_455 S
C540 C538 1.384 . S
C540 C542 1.392 . S
C540 H557 0.931 . S
C541 C537 1.393 . S
C541 C542 1.401 . S
C541 H558 0.930 . S
C542 C540 1.392 . S
C542 C541 1.401 . S
C542 H559 0.930 . S
C543 O526 1.262 . S
C543 O527 1.260 1_545 S
C544 Tb480 2.833 . S
C544 O524 1.251 . S
C544 O529 1.256 . S
C544 C537 1.500 . S
C545 H510 0.929 . S
C545 C523 1.444 . S
C545 C546 1.317 . S
C546 H508 0.930 . S
C546 C514 1.432 . S
C546 C545 1.317 . S
C547 O531 1.283 . S
C547 O534 1.243 . S
C548 C549 1.382 . S
C548 C552 1.393 . S
C548 C555 1.500 . S
C549 C548 1.382 . S
C549 C550 1.400 . S
C549 H560 0.930 1_655 S
C550 C549 1.400 . S
C550 C551 1.384 . S
C551 C550 1.384 . S
C551 C553 1.392 . S
C551 H561 0.931 . S
C552 C548 1.393 . S
C552 C553 1.401 . S
C552 H562 0.930 . S
C553 C551 1.392 . S
C553 C552 1.401 . S
C553 H563 0.930 . S
C554 O532 1.262 1_545 S
C554 O533 1.260 . S
C555 Tb491 2.833 . S
C555 O530 1.251 . S
C555 O535 1.256 . S
C555 C548 1.500 . S
H556 C539 0.930 1_655 S
H557 C540 0.931 . S
H558 C541 0.930 . S
H559 C542 0.930 . S
H560 C549 0.930 1_455 S
H561 C551 0.931 . S
H562 C552 0.930 . S
H563 C553 0.930 . S
Tb564 N595 2.660 . S
Tb564 N602 2.600 . S
Tb564 O608 2.546 . S
Tb564 O609 2.610 1_545 S
Tb564 O611 2.320 1_545 S
Tb564 O612 2.552 . S
Tb564 O613 2.413 . S
Tb564 O615 2.362 . S
Tb564 O616 2.421 . S
Tb564 C628 2.833 . S
C565 C568 1.432 . S
C565 C569 1.414 . S
C565 N572 1.359 . S
C566 C568 1.417 . S
C566 C570 1.432 . S
C566 C578 1.410 . S
C567 C569 1.444 . S
C567 C570 1.317 . S
C567 H590 0.929 . S
C568 C565 1.432 . S
C568 C566 1.417 . S
C568 N576 1.360 . S
C569 C565 1.414 . S
C569 C567 1.444 . S
C569 C574 1.385 . S
C570 C566 1.432 . S
C570 C567 1.317 . S
C570 H582 0.930 . S
C571 C573 1.392 . S
C571 C574 1.370 . S
C571 H583 0.931 . S
N572 C565 1.359 . S
N572 C573 1.327 . S
N572 Tb575 2.600 . S
C573 C571 1.392 . S
C573 N572 1.327 . S
C573 H580 0.930 . S
C574 C569 1.385 . S
C574 C571 1.370 . S
C574 H593 0.930 . S
Tb575 N572 2.600 . S
Tb575 N576 2.660 . S
Tb575 O609 2.362 . S
Tb575 O610 2.421 . S
Tb575 O614 2.546 . S
Tb575 O615 2.610 1_565 S
Tb575 O617 2.320 1_565 S
Tb575 O618 2.552 1_565 S
Tb575 O619 2.413 . S
Tb575 C639 2.833 . S
N576 C568 1.360 . S
N576 Tb575 2.660 . S
N576 C577 1.305 1_565 S
C577 N576 1.305 1_545 S
C577 C579 1.407 . S
C577 H584 0.930 . S
C578 C566 1.410 . S
C578 C579 1.345 1_565 S
C578 H586 0.930 . S
C579 C577 1.407 . S
C579 C578 1.345 1_545 S
C579 H581 0.930 . S
H580 C573 0.930 . S
H581 C579 0.930 . S
H582 C570 0.930 . S
H583 C571 0.931 . S
H584 C577 0.930 . S
H585 C599 0.930 1_565 S
H586 C578 0.930 . S
H587 C605 0.930 . S
H588 C596 0.930 1_565 S
H589 C603 0.931 . S
H590 C567 0.929 . S
H591 C597 0.930 . S
H592 C630 0.930 . S
H593 C574 0.930 . S
H594 C629 0.929 . S
N595 Tb564 2.660 . S
N595 C596 1.305 . S
N595 C600 1.360 . S
C596 H588 0.930 1_545 S
C596 N595 1.305 . S
C596 C599 1.407 . S
C597 H591 0.930 . S
C597 C598 1.410 . S
C597 C599 1.345 . S
C598 C597 1.410 . S
C598 C600 1.417 . S
C598 C630 1.432 . S
C599 H585 0.930 1_545 S
C599 C596 1.407 . S
C599 C597 1.345 . S
C600 N595 1.360 . S
C600 C598 1.417 . S
C600 C604 1.432 . S
H601 C606 0.930 . S
N602 Tb564 2.600 . S
N602 C604 1.359 . S
N602 C605 1.327 . S
C603 H589 0.931 . S
C603 C605 1.392 . S
C603 C606 1.370 . S
C604 C600 1.432 . S
C604 N602 1.359 . S
C604 C607 1.414 . S
C605 H587 0.930 . S
C605 N602 1.327 . S
C605 C603 1.392 . S
C606 H601 0.930 . S
C606 C603 1.370 . S
C606 C607 1.385 . S
C607 C604 1.414 . S
C607 C606 1.385 . S
C607 C629 1.444 . S
O608 Tb564 2.546 . S
O608 C628 1.251 . S
O609 Tb564 2.610 1_565 S
O609 Tb575 2.362 . S
O609 C620 1.283 . S
O610 Tb575 2.421 . S
O610 C627 1.262 . S
O611 Tb564 2.320 1_565 S
O611 C627 1.260 . S
O612 Tb564 2.552 . S
O612 C620 1.243 1_545 S
O613 Tb564 2.413 . S
O613 C628 1.256 . S
O614 Tb575 2.546 . S
O614 C639 1.251 . S
O615 Tb564 2.362 . S
O615 Tb575 2.610 1_545 S
O615 C631 1.283 . S
O616 Tb564 2.421 . S
O616 C638 1.262 . S
O617 Tb575 2.320 1_545 S
O617 C638 1.260 . S
O618 Tb575 2.552 1_545 S
O618 C631 1.243 . S
O619 Tb575 2.413 . S
O619 C639 1.256 . S
C620 O609 1.283 . S
C620 O612 1.243 1_565 S
C621 C623 1.382 . S
C621 C625 1.393 . S
C621 C628 1.500 . S
C622 C623 1.400 . S
C622 C624 1.384 . S
C623 C621 1.382 . S
C623 C622 1.400 . S
C623 H640 0.942 . S
C624 C622 1.384 . S
C624 C626 1.392 . S
C624 H641 0.931 . S
C625 C621 1.393 . S
C625 C626 1.401 . S
C625 H642 0.930 . S
C626 C624 1.392 . S
C626 C625 1.401 . S
C626 H643 0.930 . S
C627 O610 1.262 . S
C627 O611 1.260 . S
C628 Tb564 2.833 . S
C628 O608 1.251 . S
C628 O613 1.256 . S
C628 C621 1.500 . S
C629 H594 0.929 . S
C629 C607 1.444 . S
C629 C630 1.317 . S
C630 H592 0.930 . S
C630 C598 1.432 . S
C630 C629 1.317 . S
C631 O615 1.283 . S
C631 O618 1.243 . S
C632 C633 1.382 . S
C632 C636 1.393 . S
C632 C639 1.500 . S
C633 C632 1.382 . S
C633 C634 1.400 . S
C633 H644 0.930 1_565 S
C634 C633 1.400 . S
C634 C635 1.384 . S
C635 C634 1.384 . S
C635 C637 1.392 . S
C635 H645 0.931 . S
C636 C632 1.393 . S
C636 C637 1.401 . S
C636 H646 0.930 . S
C637 C635 1.392 . S
C637 C636 1.401 . S
C637 H647 0.930 . S
C638 O616 1.262 . S
C638 O617 1.260 . S
C639 Tb575 2.833 . S
C639 O614 1.251 . S
C639 O619 1.256 . S
C639 C632 1.500 . S
H640 C623 0.942 . S
H641 C624 0.931 . S
H642 C625 0.930 . S
H643 C626 0.930 . S
H644 C633 0.930 1_545 S
H645 C635 0.931 . S
H646 C636 0.930 . S
H647 C637 0.930 . S
Tb648 N679 2.660 . S
Tb648 N686 2.600 . S
Tb648 O692 2.546 . S
Tb648 O693 2.610 . S
Tb648 O695 2.320 . S
Tb648 O696 2.552 . S
Tb648 O697 2.413 . S
Tb648 O699 2.362 . S
Tb648 O700 2.421 . S
Tb648 C712 2.833 . S
C649 C652 1.432 . S
C649 C653 1.414 . S
C649 N656 1.359 . S
C650 C652 1.417 . S
C650 C654 1.432 . S
C650 C662 1.410 . S
C651 C653 1.444 . S
C651 C654 1.317 . S
C651 H674 0.929 . S
C652 C649 1.432 . S
C652 C650 1.417 . S
C652 N660 1.360 . S
C653 C649 1.414 . S
C653 C651 1.444 . S
C653 C658 1.385 . S
C654 C650 1.432 . S
C654 C651 1.317 . S
C654 H666 0.930 . S
C655 C657 1.392 . S
C655 C658 1.370 . S
C655 H667 0.931 . S
N656 C649 1.359 . S
N656 C657 1.327 . S
N656 Tb659 2.600 . S
C657 C655 1.392 . S
C657 N656 1.327 . S
C657 H664 0.930 . S
C658 C653 1.385 . S
C658 C655 1.370 . S
C658 H677 0.930 . S
Tb659 N656 2.600 . S
Tb659 N660 2.660 . S
Tb659 O693 2.362 . S
Tb659 O694 2.421 . S
Tb659 O698 2.546 . S
Tb659 O699 2.610 . S
Tb659 O701 2.320 . S
Tb659 O702 2.552 . S
Tb659 O703 2.413 . S
Tb659 C723 2.833 . S
N660 C652 1.360 . S
N660 Tb659 2.660 . S
N660 C661 1.305 . S
C661 N660 1.305 . S
C661 C663 1.407 . S
C661 H668 0.930 . S
C662 C650 1.410 . S
C662 C663 1.345 . S
C662 H670 0.930 . S
C663 C661 1.407 . S
C663 C662 1.345 . S
C663 H665 0.930 . S
H664 C657 0.930 . S
H665 C663 0.930 . S
H666 C654 0.930 . S
H667 C655 0.931 . S
H668 C661 0.930 . S
H669 C683 0.930 . S
H670 C662 0.930 . S
H671 C689 0.930 . S
H672 C680 0.930 . S
H673 C687 0.931 . S
H674 C651 0.929 . S
H675 C681 0.930 . S
H676 C714 0.930 . S
H677 C658 0.930 . S
H678 C713 0.929 . S
N679 Tb648 2.660 . S
N679 C680 1.305 . S
N679 C684 1.360 . S
C680 H672 0.930 . S
C680 N679 1.305 . S
C680 C683 1.407 . S
C681 H675 0.930 . S
C681 C682 1.410 . S
C681 C683 1.345 . S
C682 C681 1.410 . S
C682 C684 1.417 . S
C682 C714 1.432 . S
C683 H669 0.930 . S
C683 C680 1.407 . S
C683 C681 1.345 . S
C684 N679 1.360 . S
C684 C682 1.417 . S
C684 C688 1.432 . S
H685 C690 0.930 . S
N686 Tb648 2.600 . S
N686 C688 1.359 . S
N686 C689 1.327 . S
C687 H673 0.931 . S
C687 C689 1.392 . S
C687 C690 1.370 . S
C688 C684 1.432 . S
C688 N686 1.359 . S
C688 C691 1.414 . S
C689 H671 0.930 . S
C689 N686 1.327 . S
C689 C687 1.392 . S
C690 H685 0.930 . S
C690 C687 1.370 . S
C690 C691 1.385 . S
C691 C688 1.414 . S
C691 C690 1.385 . S
C691 C713 1.444 . S
O692 Tb648 2.546 . S
O692 C712 1.251 . S
O693 Tb648 2.610 . S
O693 Tb659 2.362 . S
O693 C704 1.283 . S
O694 Tb659 2.421 . S
O694 C711 1.262 . S
O695 Tb648 2.320 . S
O695 C711 1.260 . S
O696 Tb648 2.552 . S
O696 C704 1.243 . S
O697 Tb648 2.413 . S
O697 C712 1.256 . S
O698 Tb659 2.546 . S
O698 C723 1.251 . S
O699 Tb648 2.362 . S
O699 Tb659 2.610 . S
O699 C715 1.283 . S
O700 Tb648 2.421 . S
O700 C722 1.262 . S
O701 Tb659 2.320 . S
O701 C722 1.260 . S
O702 Tb659 2.552 . S
O702 C715 1.243 . S
O703 Tb659 2.413 . S
O703 C723 1.256 . S
C704 O693 1.283 . S
C704 O696 1.243 . S
C705 C707 1.382 . S
C705 C709 1.393 . S
C705 C712 1.500 . S
C706 C707 1.400 . S
C706 C708 1.384 . S
C707 C705 1.382 . S
C707 C706 1.400 . S
C707 H724 0.930 . S
C708 C706 1.384 . S
C708 C710 1.392 . S
C708 H725 0.931 . S
C709 C705 1.393 . S
C709 C710 1.401 . S
C709 H726 0.930 . S
C710 C708 1.392 . S
C710 C709 1.401 . S
C710 H727 0.930 . S
C711 O694 1.262 . S
C711 O695 1.260 . S
C712 Tb648 2.833 . S
C712 O692 1.251 . S
C712 O697 1.256 . S
C712 C705 1.500 . S
C713 H678 0.929 . S
C713 C691 1.444 . S
C713 C714 1.317 . S
C714 H676 0.930 . S
C714 C682 1.432 . S
C714 C713 1.317 . S
C715 O699 1.283 . S
C715 O702 1.243 . S
C716 C717 1.382 . S
C716 C720 1.393 . S
C716 C723 1.500 . S
C717 C716 1.382 . S
C717 C718 1.400 . S
C717 H728 0.930 . S
C718 C717 1.400 . S
C718 C719 1.384 . S
C719 C718 1.384 . S
C719 C721 1.392 . S
C719 H729 0.931 . S
C720 C716 1.393 . S
C720 C721 1.401 . S
C720 H730 0.930 . S
C721 C719 1.392 . S
C721 C720 1.401 . S
C721 H731 0.930 . S
C722 O700 1.262 . S
C722 O701 1.260 . S
C723 Tb659 2.833 . S
C723 O698 1.251 . S
C723 O703 1.256 . S
C723 C716 1.500 . S
H724 C707 0.930 . S
H725 C708 0.931 . S
H726 C709 0.930 . S
H727 C710 0.930 . S
H728 C717 0.930 . S
H729 C719 0.931 . S
H730 C720 0.930 . S
H731 C721 0.930 . S
Tb732 N763 2.660 . S
Tb732 N770 2.600 . S
Tb732 O776 2.546 . S
Tb732 O777 2.610 . S
Tb732 O779 2.320 . S
Tb732 O780 2.552 . S
Tb732 O781 2.413 . S
Tb732 O783 2.392 . S
Tb732 O784 2.421 1_455 S
Tb732 C796 2.833 . S
C733 C736 1.432 . S
C733 C737 1.414 . S
C733 N740 1.359 . S
C734 C736 1.417 . S
C734 C738 1.432 . S
C734 C746 1.410 . S
C735 C737 1.444 . S
C735 C738 1.317 . S
C735 H758 0.929 . S
C736 C733 1.432 . S
C736 C734 1.417 . S
C736 N744 1.360 . S
C737 C733 1.414 . S
C737 C735 1.444 . S
C737 C742 1.385 . S
C738 C734 1.432 . S
C738 C735 1.317 . S
C738 H750 0.930 . S
C739 C741 1.392 . S
C739 C742 1.370 1_455 S
C739 H751 0.931 . S
N740 C733 1.359 . S
N740 C741 1.327 1_655 S
N740 Tb743 2.600 . S
C741 C739 1.392 . S
C741 N740 1.327 1_455 S
C741 H748 0.930 . S
C742 C737 1.385 . S
C742 C739 1.370 1_655 S
C742 H761 0.930 . S
Tb743 N740 2.600 . S
Tb743 N744 2.660 . S
Tb743 O777 2.362 1_655 S
Tb743 O778 2.421 1_655 S
Tb743 O782 2.546 . S
Tb743 O783 2.591 1_655 S
Tb743 O785 2.320 . S
Tb743 O786 2.552 . S
Tb743 O787 2.413 . S
Tb743 C807 2.833 . S
N744 C736 1.360 . S
N744 Tb743 2.660 . S
N744 C745 1.305 . S
C745 N744 1.305 . S
C745 C747 1.407 . S
C745 H752 0.930 . S
C746 C734 1.410 . S
C746 C747 1.345 . S
C746 H754 0.930 . S
C747 C745 1.407 . S
C747 C746 1.345 . S
C747 H749 0.930 . S
H748 C741 0.930 . S
H749 C747 0.930 . S
H750 C738 0.930 . S
H751 C739 0.931 . S
H752 C745 0.930 . S
H753 C767 0.930 . S
H754 C746 0.930 . S
H755 C773 0.930 1_655 S
H756 C764 0.930 . S
H757 C771 0.931 1_655 S
H758 C735 0.929 . S
H759 C765 0.930 . S
H760 C798 0.930 . S
H761 C742 0.930 . S
H762 C797 0.929 . S
N763 Tb732 2.660 . S
N763 C764 1.305 . S
N763 C768 1.360 . S
C764 H756 0.930 . S
C764 N763 1.305 . S
C764 C767 1.407 . S
C765 H759 0.930 . S
C765 C766 1.410 . S
C765 C767 1.345 . S
C766 C765 1.410 . S
C766 C768 1.417 . S
C766 C798 1.432 . S
C767 H753 0.930 . S
C767 C764 1.407 . S
C767 C765 1.345 . S
C768 N763 1.360 . S
C768 C766 1.417 . S
C768 C772 1.432 . S
H769 C774 0.930 . S
N770 Tb732 2.600 . S
N770 C772 1.359 . S
N770 C773 1.327 . S
C771 H757 0.931 1_455 S
C771 C773 1.392 . S
C771 C774 1.370 . S
C772 C768 1.432 . S
C772 N770 1.359 . S
C772 C775 1.414 . S
C773 H755 0.930 1_455 S
C773 N770 1.327 . S
C773 C771 1.392 . S
C774 H769 0.930 . S
C774 C771 1.370 . S
C774 C775 1.385 . S
C775 C772 1.414 . S
C775 C774 1.385 . S
C775 C797 1.444 . S
O776 Tb732 2.546 . S
O776 C796 1.251 . S
O777 Tb732 2.610 . S
O777 Tb743 2.362 1_455 S
O777 C788 1.283 . S
O778 Tb743 2.421 1_455 S
O778 C795 1.262 . S
O779 Tb732 2.320 . S
O779 C795 1.260 . S
O780 Tb732 2.552 . S
O780 C788 1.243 . S
O781 Tb732 2.413 . S
O781 C796 1.256 . S
O782 Tb743 2.546 . S
O782 C807 1.251 . S
O783 Tb732 2.392 . S
O783 Tb743 2.591 1_455 S
O783 C799 1.262 1_455 S
O784 Tb732 2.421 1_655 S
O784 C806 1.262 . S
O785 Tb743 2.320 . S
O785 C806 1.260 . S
O786 Tb743 2.552 . S
O786 C799 1.243 . S
O787 Tb743 2.413 . S
O787 C807 1.256 . S
C788 O777 1.283 . S
C788 O780 1.243 . S
C789 C791 1.382 . S
C789 C793 1.393 . S
C789 C796 1.500 . S
C790 C791 1.400 . S
C790 C792 1.384 . S
C791 C789 1.382 . S
C791 C790 1.400 . S
C791 H808 0.930 . S
C792 C790 1.384 . S
C792 C794 1.392 . S
C792 H809 0.931 . S
C793 C789 1.393 . S
C793 C794 1.401 . S
C793 H810 0.930 . S
C794 C792 1.392 . S
C794 C793 1.401 . S
C794 H811 0.930 . S
C795 O778 1.262 . S
C795 O779 1.260 . S
C796 Tb732 2.833 . S
C796 O776 1.251 . S
C796 O781 1.256 . S
C796 C789 1.500 . S
C797 H762 0.929 . S
C797 C775 1.444 . S
C797 C798 1.317 . S
C798 H760 0.930 . S
C798 C766 1.432 . S
C798 C797 1.317 . S
C799 O783 1.262 1_655 S
C799 O786 1.243 . S
C800 C801 1.382 . S
C800 C804 1.393 . S
C800 C807 1.500 . S
C801 C800 1.382 . S
C801 C802 1.400 . S
C801 H812 0.930 . S
C802 C801 1.400 . S
C802 C803 1.384 . S
C803 C802 1.384 . S
C803 C805 1.392 . S
C803 H813 0.931 . S
C804 C800 1.393 . S
C804 C805 1.401 . S
C804 H814 0.930 . S
C805 C803 1.392 . S
C805 C804 1.401 . S
C805 H815 0.930 . S
C806 O784 1.262 . S
C806 O785 1.260 . S
C807 Tb743 2.833 . S
C807 O782 1.251 . S
C807 O787 1.256 . S
C807 C800 1.500 . S
H808 C791 0.930 . S
H809 C792 0.931 . S
H810 C793 0.930 . S
H811 C794 0.930 . S
H812 C801 0.930 . S
H813 C803 0.931 . S
H814 C804 0.930 . S
H815 C805 0.930 . S
H816 C834 0.951 . S
H817 C836 0.951 . S
H818 C838 0.950 . S
H819 C839 0.950 . S
H820 C841 0.950 . S
H821 C844 0.950 . S
H822 C845 0.950 . S
H823 C847 0.950 . S
H824 C848 0.950 . S
H825 C849 0.951 . S
H826 C851 0.951 . S
H827 C853 0.950 . S
H828 C854 0.950 . S
H829 C856 0.950 . S
H830 C859 0.950 . S
H831 C860 0.950 1_565 S
H832 C862 0.950 . S
H833 C863 0.950 . S
C834 H816 0.951 . S
C834 C835 1.366 . S
C834 C836 1.388 . S
C835 C834 1.366 . S
C835 C839 1.385 . S
C836 H817 0.951 . S
C836 C834 1.388 . S
C836 C837 1.366 . S
C837 C836 1.366 . S
C837 C838 1.414 . S
C837 C840 1.499 . S
C838 H818 0.950 . S
C838 C837 1.414 . S
C838 C839 1.374 . S
C839 H819 0.950 . S
C839 C835 1.385 . S
C839 C838 1.374 . S
C840 C837 1.499 . S
C840 C841 1.373 . S
C840 C842 1.389 . S
C841 H820 0.950 . S
C841 C840 1.373 . S
C841 C857 1.377 . S
C842 C840 1.389 . S
C842 C843 1.524 . S
C842 C856 1.377 . S
C843 C842 1.524 . S
C843 C844 1.397 . S
C843 C848 1.363 . S
C844 H821 0.950 . S
C844 C843 1.397 . S
C844 C845 1.334 . S
C845 H822 0.950 . S
C845 C844 1.334 . S
C845 C846 1.287 . S
C846 C845 1.287 . S
C846 C847 1.524 . S
C846 H865 0.913 . S
C847 H823 0.950 . S
C847 C846 1.524 . S
C847 C848 1.415 . S
C848 H824 0.950 . S
C848 C843 1.363 . S
C848 C847 1.415 . S
C849 H825 0.951 . S
C849 C850 1.366 . S
C849 C851 1.388 . S
C850 C849 1.366 . S
C850 C854 1.385 . S
C851 H826 0.951 . S
C851 C849 1.388 . S
C851 C852 1.366 . S
C852 C851 1.366 . S
C852 C853 1.414 . S
C852 C855 1.499 . S
C853 H827 0.950 . S
C853 C852 1.414 . S
C853 C854 1.374 . S
C854 H828 0.950 . S
C854 C850 1.385 . S
C854 C853 1.374 . S
C855 C852 1.499 . S
C855 C856 1.373 . S
C855 C857 1.389 . S
C856 H829 0.950 . S
C856 C842 1.377 . S
C856 C855 1.373 . S
C857 C841 1.377 . S
C857 C855 1.389 . S
C857 C858 1.524 . S
C858 C857 1.524 . S
C858 C859 1.397 . S
C858 C863 1.363 . S
C859 H830 0.950 . S
C859 C858 1.397 . S
C859 C860 1.334 . S
C860 H831 0.950 1_545 S
C860 C859 1.334 . S
C860 C861 1.287 . S
C861 C860 1.287 . S
C861 C862 1.524 . S
C861 H864 0.999 . S
C862 H832 0.950 . S
C862 C861 1.524 . S
C862 C863 1.415 . S
C863 H833 0.950 . S
C863 C858 1.363 . S
C863 C862 1.415 . S
H864 C861 0.999 . S
H865 C846 0.913 . S
H866 C884 0.951 . S
H867 C886 0.951 . S
H868 C888 0.950 . S
H869 C889 0.950 . S
H870 C891 0.950 . S
H871 C894 0.950 . S
H872 C895 0.950 . S
H873 C897 0.950 . S
H874 C898 0.950 . S
H875 C899 0.951 . S
H876 C901 0.951 . S
H877 C903 0.950 . S
H878 C904 0.950 . S
H879 C906 0.950 . S
H880 C909 0.950 . S
H881 C910 0.950 . S
H882 C912 0.950 . S
H883 C913 0.950 . S
C884 H866 0.951 . S
C884 C885 1.366 . S
C884 C886 1.388 . S
C885 C884 1.366 . S
C885 C889 1.385 . S
C886 H867 0.951 . S
C886 C884 1.388 . S
C886 C887 1.366 . S
C887 C886 1.366 . S
C887 C888 1.414 . S
C887 C890 1.499 . S
C888 H868 0.950 . S
C888 C887 1.414 . S
C888 C889 1.374 . S
C889 H869 0.950 . S
C889 C885 1.385 . S
C889 C888 1.374 . S
C890 C887 1.499 . S
C890 C891 1.373 . S
C890 C892 1.389 . S
C891 H870 0.950 . S
C891 C890 1.373 . S
C891 C907 1.377 . S
C892 C890 1.389 . S
C892 C893 1.524 . S
C892 C906 1.377 . S
C893 C892 1.524 . S
C893 C894 1.397 . S
C893 C898 1.363 . S
C894 H871 0.950 . S
C894 C893 1.397 . S
C894 C895 1.334 . S
C895 H872 0.950 . S
C895 C894 1.334 . S
C895 C896 1.287 . S
C896 C895 1.287 . S
C896 C897 1.524 . S
C896 H915 0.913 . S
C897 H873 0.950 . S
C897 C896 1.524 . S
C897 C898 1.415 . S
C898 H874 0.950 . S
C898 C893 1.363 . S
C898 C897 1.415 . S
C899 H875 0.951 . S
C899 C900 1.366 . S
C899 C901 1.388 . S
C900 C899 1.366 . S
C900 C904 1.385 . S
C901 H876 0.951 . S
C901 C899 1.388 . S
C901 C902 1.366 . S
C902 C901 1.366 . S
C902 C903 1.414 . S
C902 C905 1.499 . S
C903 H877 0.950 . S
C903 C902 1.414 . S
C903 C904 1.374 . S
C904 H878 0.950 . S
C904 C900 1.385 . S
C904 C903 1.374 . S
C905 C902 1.499 . S
C905 C906 1.373 . S
C905 C907 1.389 . S
C906 H879 0.950 . S
C906 C892 1.377 . S
C906 C905 1.373 . S
C907 C891 1.377 . S
C907 C905 1.389 . S
C907 C908 1.524 . S
C908 C907 1.524 . S
C908 C909 1.397 . S
C908 C913 1.363 . S
C909 H880 0.950 . S
C909 C908 1.397 . S
C909 C910 1.334 . S
C910 H881 0.950 . S
C910 C909 1.334 . S
C910 C911 1.287 . S
C911 C910 1.287 . S
C911 C912 1.524 . S
C911 H914 0.999 . S
C912 H882 0.950 . S
C912 C911 1.524 . S
C912 C913 1.415 . S
C913 H883 0.950 . S
C913 C908 1.363 . S
C913 C912 1.415 . S
H914 C911 0.999 . S
H915 C896 0.913 . S
H916 C934 0.951 . S
H917 C936 0.951 . S
H918 C938 0.950 . S
H919 C939 0.950 . S
H920 C941 0.950 . S
H921 C944 0.950 . S
H922 C945 0.950 . S
H923 C947 0.950 . S
H924 C948 0.950 . S
H925 C949 0.951 . S
H926 C951 0.951 . S
H927 C953 0.950 . S
H928 C954 0.950 . S
H929 C956 0.950 . S
H930 C959 0.950 . S
H931 C960 0.950 . S
H932 C962 0.950 . S
H933 C963 0.950 . S
C934 H916 0.951 . S
C934 C935 1.366 . S
C934 C936 1.388 . S
C935 C934 1.366 . S
C935 C939 1.385 . S
C936 H917 0.951 . S
C936 C934 1.388 . S
C936 C937 1.366 . S
C937 C936 1.366 . S
C937 C938 1.414 . S
C937 C940 1.499 . S
C938 H918 0.950 . S
C938 C937 1.414 . S
C938 C939 1.374 . S
C939 H919 0.950 . S
C939 C935 1.385 . S
C939 C938 1.374 . S
C940 C937 1.499 . S
C940 C941 1.373 . S
C940 C942 1.389 . S
C941 H920 0.950 . S
C941 C940 1.373 . S
C941 C957 1.377 . S
C942 C940 1.389 . S
C942 C943 1.524 . S
C942 C956 1.377 . S
C943 C942 1.524 . S
C943 C944 1.397 . S
C943 C948 1.363 . S
C944 H921 0.950 . S
C944 C943 1.397 . S
C944 C945 1.334 . S
C945 H922 0.950 . S
C945 C944 1.334 . S
C945 C946 1.287 . S
C946 C945 1.287 . S
C946 C947 1.524 . S
C946 H965 0.913 . S
C947 H923 0.950 . S
C947 C946 1.524 . S
C947 C948 1.415 . S
C948 H924 0.950 . S
C948 C943 1.363 . S
C948 C947 1.415 . S
C949 H925 0.951 . S
C949 C950 1.366 . S
C949 C951 1.388 . S
C950 C949 1.366 . S
C950 C954 1.385 . S
C951 H926 0.951 . S
C951 C949 1.388 . S
C951 C952 1.366 . S
C952 C951 1.366 . S
C952 C953 1.414 . S
C952 C955 1.499 . S
C953 H927 0.950 . S
C953 C952 1.414 . S
C953 C954 1.374 . S
C954 H928 0.950 . S
C954 C950 1.385 . S
C954 C953 1.374 . S
C955 C952 1.499 . S
C955 C956 1.373 . S
C955 C957 1.389 . S
C956 H929 0.950 . S
C956 C942 1.377 . S
C956 C955 1.373 . S
C957 C941 1.377 . S
C957 C955 1.389 . S
C957 C958 1.524 . S
C958 C957 1.524 . S
C958 C959 1.397 . S
C958 C963 1.363 . S
C959 H930 0.950 . S
C959 C958 1.397 . S
C959 C960 1.334 . S
C960 H931 0.950 . S
C960 C959 1.334 . S
C960 C961 1.287 . S
C961 C960 1.287 . S
C961 C962 1.524 . S
C961 H964 0.999 . S
C962 H932 0.950 . S
C962 C961 1.524 . S
C962 C963 1.415 . S
C963 H933 0.950 . S
C963 C958 1.363 . S
C963 C962 1.415 . S
H964 C961 0.999 . S
H965 C946 0.913 . S
H966 C984 0.951 . S
H967 C986 0.951 . S
H968 C988 0.950 . S
H969 C989 0.950 . S
H970 C991 0.950 . S
H971 C994 0.950 . S
H972 C995 0.950 . S
H973 C997 0.950 . S
H974 C998 0.950 . S
H975 C999 0.951 . S
H976 C1001 0.951 . S
H977 C1003 0.950 . S
H978 C1004 0.950 . S
H979 C1006 0.950 . S
H980 C1009 0.945 1_655 S
H981 C1010 0.950 . S
H982 C1012 0.950 . S
H983 C1013 0.950 . S
C984 H966 0.951 . S
C984 C985 1.366 . S
C984 C986 1.388 . S
C985 C984 1.366 . S
C985 C989 1.385 . S
C986 H967 0.951 . S
C986 C984 1.388 . S
C986 C987 1.366 . S
C987 C986 1.366 . S
C987 C988 1.414 . S
C987 C990 1.499 . S
C988 H968 0.950 . S
C988 C987 1.414 . S
C988 C989 1.374 . S
C989 H969 0.950 . S
C989 C985 1.385 . S
C989 C988 1.374 . S
C990 C987 1.499 . S
C990 C991 1.373 . S
C990 C992 1.389 . S
C991 H970 0.950 . S
C991 C990 1.373 . S
C991 C1007 1.377 . S
C992 C990 1.389 . S
C992 C993 1.524 . S
C992 C1006 1.377 . S
C993 C992 1.524 . S
C993 C994 1.397 . S
C993 C998 1.363 . S
C994 H971 0.950 . S
C994 C993 1.397 . S
C994 C995 1.334 . S
C995 H972 0.950 . S
C995 C994 1.334 . S
C995 C996 1.287 . S
C996 C995 1.287 . S
C996 C997 1.524 . S
C996 H1015 0.913 . S
C997 H973 0.950 . S
C997 C996 1.524 . S
C997 C998 1.415 . S
C998 H974 0.950 . S
C998 C993 1.363 . S
C998 C997 1.415 . S
C999 H975 0.951 . S
C999 C1000 1.366 . S
C999 C1001 1.388 . S
C1000 C999 1.366 . S
C1000 C1004 1.385 . S
C1001 H976 0.951 . S
C1001 C999 1.388 . S
C1001 C1002 1.366 . S
C1002 C1001 1.366 . S
C1002 C1003 1.414 . S
C1002 C1005 1.499 . S
C1003 H977 0.950 . S
C1003 C1002 1.414 . S
C1003 C1004 1.374 . S
C1004 H978 0.950 . S
C1004 C1000 1.385 . S
C1004 C1003 1.374 . S
C1005 C1002 1.499 . S
C1005 C1006 1.373 . S
C1005 C1007 1.389 . S
C1006 H979 0.950 . S
C1006 C992 1.377 . S
C1006 C1005 1.373 . S
C1007 C991 1.377 . S
C1007 C1005 1.389 . S
C1007 C1008 1.524 . S
C1008 C1007 1.524 . S
C1008 C1009 1.410 . S
C1008 C1013 1.363 . S
C1009 H980 0.945 1_455 S
C1009 C1008 1.410 . S
C1009 C1010 1.323 1_455 S
C1010 H981 0.950 . S
C1010 C1009 1.323 1_655 S
C1010 C1011 1.287 . S
C1011 C1010 1.287 . S
C1011 C1012 1.524 1_655 S
C1011 H1014 0.999 . S
C1012 H982 0.950 . S
C1012 C1011 1.524 1_455 S
C1012 C1013 1.415 . S
C1013 H983 0.950 . S
C1013 C1008 1.363 . S
C1013 C1012 1.415 . S
H1014 C1011 0.999 . S
H1015 C996 0.913 . S
H1016 C1034 0.951 . S
H1017 C1036 0.951 . S
H1018 C1038 0.950 . S
H1019 C1039 0.950 . S
H1020 C1041 0.950 . S
H1021 C1044 0.950 . S
H1022 C1045 0.950 . S
H1023 C1047 0.950 . S
H1024 C1048 0.950 . S
H1025 C1049 0.951 1_545 S
H1026 C1051 0.951 . S
H1027 C1053 0.950 . S
H1028 C1054 0.950 . S
H1029 C1056 0.950 . S
H1030 C1059 0.950 . S
H1031 C1060 0.950 . S
H1032 C1062 0.950 . S
H1033 C1063 0.950 . S
C1034 H1016 0.951 . S
C1034 C1035 1.366 1_556 S
C1034 C1036 1.388 . S
C1035 C1034 1.366 1_554 S
C1035 C1039 1.385 . S
C1036 H1017 0.951 . S
C1036 C1034 1.388 . S
C1036 C1037 1.366 . S
C1037 C1036 1.366 . S
C1037 C1038 1.414 1_556 S
C1037 C1040 1.499 . S
C1038 H1018 0.950 . S
C1038 C1037 1.414 1_554 S
C1038 C1039 1.374 . S
C1039 H1019 0.950 . S
C1039 C1035 1.385 . S
C1039 C1038 1.374 . S
C1040 C1037 1.499 . S
C1040 C1041 1.373 . S
C1040 C1042 1.389 . S
C1041 H1020 0.950 . S
C1041 C1040 1.373 . S
C1041 C1057 1.377 . S
C1042 C1040 1.389 . S
C1042 C1043 1.524 . S
C1042 C1056 1.377 . S
C1043 C1042 1.524 . S
C1043 C1044 1.397 . S
C1043 C1048 1.363 . S
C1044 H1021 0.950 . S
C1044 C1043 1.397 . S
C1044 C1045 1.334 . S
C1045 H1022 0.950 . S
C1045 C1044 1.334 . S
C1045 C1046 1.287 . S
C1046 C1045 1.287 . S
C1046 C1047 1.524 . S
C1046 H1065 0.913 . S
C1047 H1023 0.950 . S
C1047 C1046 1.524 . S
C1047 C1048 1.415 . S
C1048 H1024 0.950 . S
C1048 C1043 1.363 . S
C1048 C1047 1.415 . S
C1049 H1025 0.951 1_565 S
C1049 C1050 1.366 . S
C1049 C1051 1.388 . S
C1050 C1049 1.366 . S
C1050 C1054 1.385 . S
C1051 H1026 0.951 . S
C1051 C1049 1.388 . S
C1051 C1052 1.366 . S
C1052 C1051 1.366 . S
C1052 C1053 1.414 . S
C1052 C1055 1.499 . S
C1053 H1027 0.950 . S
C1053 C1052 1.414 . S
C1053 C1054 1.374 . S
C1054 H1028 0.950 . S
C1054 C1050 1.385 . S
C1054 C1053 1.374 . S
C1055 C1052 1.499 . S
C1055 C1056 1.373 . S
C1055 C1057 1.389 . S
C1056 H1029 0.950 . S
C1056 C1042 1.377 . S
C1056 C1055 1.373 . S
C1057 C1041 1.377 . S
C1057 C1055 1.389 . S
C1057 C1058 1.524 1_565 S
C1058 C1057 1.524 1_545 S
C1058 C1059 1.397 . S
C1058 C1063 1.363 . S
C1059 H1030 0.950 . S
C1059 C1058 1.397 . S
C1059 C1060 1.334 . S
C1060 H1031 0.950 . S
C1060 C1059 1.334 . S
C1060 C1061 1.287 . S
C1061 C1060 1.287 . S
C1061 C1062 1.524 . S
C1061 H1064 0.999 . S
C1062 H1032 0.950 . S
C1062 C1061 1.524 . S
C1062 C1063 1.415 . S
C1063 H1033 0.950 . S
C1063 C1058 1.363 . S
C1063 C1062 1.415 . S
H1064 C1061 0.999 . S
H1065 C1046 0.913 . S
H1066 C1084 0.951 . S
H1067 C1086 0.952 . S
H1068 C1088 0.950 . S
H1069 C1089 0.950 . S
H1070 C1091 0.950 . S
H1071 C1094 0.950 . S
H1072 C1095 0.950 . S
H1073 C1097 0.950 . S
H1074 C1098 0.950 . S
H1075 C1099 0.951 . S
H1076 C1101 0.951 . S
H1077 C1103 0.950 . S
H1078 C1104 0.950 . S
H1079 C1106 0.950 . S
H1080 C1109 0.950 . S
H1081 C1110 0.950 . S
H1082 C1112 0.950 . S
H1083 C1113 0.950 . S
C1084 H1066 0.951 . S
C1084 C1085 1.366 . S
C1084 C1086 1.394 . S
C1085 C1084 1.366 . S
C1085 C1089 1.385 1_554 S
C1086 H1067 0.952 . S
C1086 C1084 1.394 . S
C1086 C1087 1.358 1_554 S
C1087 C1086 1.358 1_556 S
C1087 C1088 1.414 . S
C1087 C1090 1.499 . S
C1088 H1068 0.950 . S
C1088 C1087 1.414 . S
C1088 C1089 1.374 . S
C1089 H1069 0.950 . S
C1089 C1085 1.385 1_556 S
C1089 C1088 1.374 . S
C1090 C1087 1.499 . S
C1090 C1091 1.373 . S
C1090 C1092 1.389 . S
C1091 H1070 0.950 . S
C1091 C1090 1.373 . S
C1091 C1107 1.377 . S
C1092 C1090 1.389 . S
C1092 C1093 1.524 . S
C1092 C1106 1.377 . S
C1093 C1092 1.524 . S
C1093 C1094 1.397 . S
C1093 C1098 1.363 . S
C1094 H1071 0.950 . S
C1094 C1093 1.397 . S
C1094 C1095 1.334 1_556 S
C1095 H1072 0.950 . S
C1095 C1094 1.334 1_554 S
C1095 C1096 1.287 . S
C1096 C1095 1.287 . S
C1096 C1097 1.524 . S
C1096 H1115 0.913 . S
C1097 H1073 0.950 . S
C1097 C1096 1.524 . S
C1097 C1098 1.415 1_554 S
C1098 H1074 0.950 . S
C1098 C1093 1.363 . S
C1098 C1097 1.415 1_556 S
C1099 H1075 0.951 . S
C1099 C1100 1.366 . S
C1099 C1101 1.388 . S
C1100 C1099 1.366 . S
C1100 C1104 1.385 . S
C1101 H1076 0.951 . S
C1101 C1099 1.388 . S
C1101 C1102 1.366 . S
C1102 C1101 1.366 . S
C1102 C1103 1.414 . S
C1102 C1105 1.499 . S
C1103 H1077 0.950 . S
C1103 C1102 1.414 . S
C1103 C1104 1.374 . S
C1104 H1078 0.950 . S
C1104 C1100 1.385 . S
C1104 C1103 1.374 . S
C1105 C1102 1.499 . S
C1105 C1106 1.373 . S
C1105 C1107 1.389 . S
C1106 H1079 0.950 . S
C1106 C1092 1.377 . S
C1106 C1105 1.373 . S
C1107 C1091 1.377 . S
C1107 C1105 1.389 . S
C1107 C1108 1.524 . S
C1108 C1107 1.524 . S
C1108 C1109 1.397 . S
C1108 C1113 1.363 . S
C1109 H1080 0.950 . S
C1109 C1108 1.397 . S
C1109 C1110 1.334 . S
C1110 H1081 0.950 . S
C1110 C1109 1.334 . S
C1110 C1111 1.287 . S
C1111 C1110 1.287 . S
C1111 C1112 1.524 . S
C1111 H1114 0.999 . S
C1112 H1082 0.950 . S
C1112 C1111 1.524 . S
C1112 C1113 1.415 . S
C1113 H1083 0.950 . S
C1113 C1108 1.363 . S
C1113 C1112 1.415 . S
H1114 C1111 0.999 . S
H1115 C1096 0.913 . S
H1116 C1134 0.951 . S
H1117 C1136 0.951 . S
H1118 C1138 0.950 . S
H1119 C1139 0.950 . S
H1120 C1141 0.950 . S
H1121 C1144 0.950 . S
H1122 C1145 0.950 . S
H1123 C1147 0.950 . S
H1124 C1148 0.950 . S
H1125 C1149 0.951 . S
H1126 C1151 0.951 . S
H1127 C1153 0.950 . S
H1128 C1154 0.950 . S
H1129 C1156 0.950 . S
H1130 C1159 0.950 . S
H1131 C1160 0.950 . S
H1132 C1162 0.950 . S
H1133 C1163 0.950 . S
C1134 H1116 0.951 . S
C1134 C1135 1.366 . S
C1134 C1136 1.388 1_554 S
C1135 C1134 1.366 . S
C1135 C1139 1.385 1_554 S
C1136 H1117 0.951 . S
C1136 C1134 1.388 1_556 S
C1136 C1137 1.366 . S
C1137 C1136 1.366 . S
C1137 C1138 1.414 . S
C1137 C1140 1.499 . S
C1138 H1118 0.950 . S
C1138 C1137 1.414 . S
C1138 C1139 1.374 . S
C1139 H1119 0.950 . S
C1139 C1135 1.385 1_556 S
C1139 C1138 1.374 . S
C1140 C1137 1.499 . S
C1140 C1141 1.373 . S
C1140 C1142 1.389 . S
C1141 H1120 0.950 . S
C1141 C1140 1.373 . S
C1141 C1157 1.377 . S
C1142 C1140 1.389 . S
C1142 C1143 1.524 . S
C1142 C1156 1.377 . S
C1143 C1142 1.524 . S
C1143 C1144 1.397 . S
C1143 C1148 1.363 . S
C1144 H1121 0.950 . S
C1144 C1143 1.397 . S
C1144 C1145 1.334 . S
C1145 H1122 0.950 . S
C1145 C1144 1.334 . S
C1145 C1146 1.287 . S
C1146 C1145 1.287 . S
C1146 C1147 1.524 . S
C1146 H1165 0.913 . S
C1147 H1123 0.950 . S
C1147 C1146 1.524 . S
C1147 C1148 1.415 . S
C1148 H1124 0.950 . S
C1148 C1143 1.363 . S
C1148 C1147 1.415 . S
C1149 H1125 0.951 . S
C1149 C1150 1.366 . S
C1149 C1151 1.388 . S
C1150 C1149 1.366 . S
C1150 C1154 1.385 . S
C1151 H1126 0.951 . S
C1151 C1149 1.388 . S
C1151 C1152 1.366 . S
C1152 C1151 1.366 . S
C1152 C1153 1.414 . S
C1152 C1155 1.499 . S
C1153 H1127 0.950 . S
C1153 C1152 1.414 . S
C1153 C1154 1.374 . S
C1154 H1128 0.950 . S
C1154 C1150 1.385 . S
C1154 C1153 1.374 . S
C1155 C1152 1.499 . S
C1155 C1156 1.373 . S
C1155 C1157 1.389 . S
C1156 H1129 0.950 . S
C1156 C1142 1.377 . S
C1156 C1155 1.373 . S
C1157 C1141 1.377 . S
C1157 C1155 1.389 . S
C1157 C1158 1.524 . S
C1158 C1157 1.524 . S
C1158 C1159 1.397 . S
C1158 C1163 1.363 . S
C1159 H1130 0.950 . S
C1159 C1158 1.397 . S
C1159 C1160 1.334 . S
C1160 H1131 0.950 . S
C1160 C1159 1.334 . S
C1160 C1161 1.287 . S
C1161 C1160 1.287 . S
C1161 C1162 1.524 . S
C1161 H1164 0.999 . S
C1162 H1132 0.950 . S
C1162 C1161 1.524 . S
C1162 C1163 1.415 . S
C1163 H1133 0.950 . S
C1163 C1158 1.363 . S
C1163 C1162 1.415 . S
H1164 C1161 0.999 . S
H1165 C1146 0.913 . S
H1166 C1184 0.951 . S
H1167 C1186 0.951 . S
H1168 C1188 0.950 . S
H1169 C1189 0.950 . S
H1170 C1191 0.950 . S
H1171 C1194 0.950 . S
H1172 C1195 0.950 1_655 S
H1173 C1197 0.950 . S
H1174 C1198 0.950 . S
H1175 C1199 0.951 . S
H1176 C1201 0.951 . S
H1177 C1203 0.950 . S
H1178 C1204 0.950 1_455 S
H1179 C1206 0.950 . S
H1180 C1209 0.950 . S
H1181 C1210 0.950 . S
H1182 C1212 0.950 . S
H1183 C1213 0.950 . S
C1184 H1166 0.951 . S
C1184 C1185 1.366 . S
C1184 C1186 1.388 . S
C1185 C1184 1.366 . S
C1185 C1189 1.385 1_554 S
C1186 H1167 0.951 . S
C1186 C1184 1.388 . S
C1186 C1187 1.366 1_554 S
C1187 C1186 1.366 1_556 S
C1187 C1188 1.414 . S
C1187 C1190 1.499 . S
C1188 H1168 0.950 . S
C1188 C1187 1.414 . S
C1188 C1189 1.374 . S
C1189 H1169 0.950 . S
C1189 C1185 1.385 1_556 S
C1189 C1188 1.374 . S
C1190 C1187 1.499 . S
C1190 C1191 1.373 . S
C1190 C1192 1.389 . S
C1191 H1170 0.950 . S
C1191 C1190 1.373 . S
C1191 C1207 1.377 . S
C1192 C1190 1.389 . S
C1192 C1193 1.524 . S
C1192 C1206 1.377 . S
C1193 C1192 1.524 . S
C1193 C1194 1.397 . S
C1193 C1198 1.363 1_655 S
C1194 H1171 0.950 . S
C1194 C1193 1.397 . S
C1194 C1195 1.331 1_655 S
C1195 H1172 0.950 1_455 S
C1195 C1194 1.331 1_455 S
C1195 C1196 1.291 . S
C1196 C1195 1.291 . S
C1196 C1197 1.524 . S
C1196 H1215 0.913 . S
C1197 H1173 0.950 . S
C1197 C1196 1.524 . S
C1197 C1198 1.415 . S
C1198 H1174 0.950 . S
C1198 C1193 1.363 1_455 S
C1198 C1197 1.415 . S
C1199 H1175 0.951 . S
C1199 C1200 1.366 . S
C1199 C1201 1.388 . S
C1200 C1199 1.366 . S
C1200 C1204 1.385 . S
C1201 H1176 0.951 . S
C1201 C1199 1.388 . S
C1201 C1202 1.366 . S
C1202 C1201 1.366 . S
C1202 C1203 1.414 . S
C1202 C1205 1.499 . S
C1203 H1177 0.950 . S
C1203 C1202 1.414 . S
C1203 C1204 1.374 . S
C1204 H1178 0.950 1_655 S
C1204 C1200 1.385 . S
C1204 C1203 1.374 . S
C1205 C1202 1.499 . S
C1205 C1206 1.373 . S
C1205 C1207 1.389 . S
C1206 H1179 0.950 . S
C1206 C1192 1.377 . S
C1206 C1205 1.373 . S
C1207 C1191 1.377 . S
C1207 C1205 1.389 . S
C1207 C1208 1.524 . S
C1208 C1207 1.524 . S
C1208 C1209 1.397 . S
C1208 C1213 1.363 . S
C1209 H1180 0.950 . S
C1209 C1208 1.397 . S
C1209 C1210 1.334 . S
C1210 H1181 0.950 . S
C1210 C1209 1.334 . S
C1210 C1211 1.287 . S
C1211 C1210 1.287 . S
C1211 C1212 1.524 . S
C1211 H1214 0.999 . S
C1212 H1182 0.950 . S
C1212 C1211 1.524 . S
C1212 C1213 1.415 . S
C1213 H1183 0.950 . S
C1213 C1208 1.363 . S
C1213 C1212 1.415 . S
H1214 C1211 0.999 . S
H1215 C1196 0.913 . S
H1216 C1234 0.951 . S
H1217 C1236 0.951 . S
H1218 C1238 0.950 . S
H1219 C1239 0.950 . S
H1220 C1241 0.950 . S
H1221 C1244 0.950 . S
H1222 C1245 0.950 . S
H1223 C1247 0.950 . S
H1224 C1248 0.950 . S
H1225 C1249 0.951 . S
H1226 C1251 0.951 . S
H1227 C1253 0.950 . S
H1228 C1254 0.957 . S
H1229 C1256 0.950 . S
H1230 C1259 0.950 . S
H1231 C1260 0.950 . S
H1232 C1262 0.950 . S
H1233 C1263 0.950 . S
C1234 H1216 0.951 . S
C1234 C1235 1.366 . S
C1234 C1236 1.388 . S
C1235 C1234 1.366 . S
C1235 C1239 1.385 . S
C1236 H1217 0.951 . S
C1236 C1234 1.388 . S
C1236 C1237 1.366 . S
C1237 C1236 1.366 . S
C1237 C1238 1.414 . S
C1237 C1240 1.499 . S
C1238 H1218 0.950 . S
C1238 C1237 1.414 . S
C1238 C1239 1.374 . S
C1239 H1219 0.950 . S
C1239 C1235 1.385 . S
C1239 C1238 1.374 . S
C1240 C1237 1.499 . S
C1240 C1241 1.373 . S
C1240 C1242 1.389 . S
C1241 H1220 0.950 . S
C1241 C1240 1.373 . S
C1241 C1257 1.377 . S
C1242 C1240 1.389 . S
C1242 C1243 1.524 . S
C1242 C1256 1.377 . S
C1243 C1242 1.524 . S
C1243 C1244 1.397 . S
C1243 C1248 1.363 . S
C1244 H1221 0.950 . S
C1244 C1243 1.397 . S
C1244 C1245 1.334 . S
C1245 H1222 0.950 . S
C1245 C1244 1.334 . S
C1245 C1246 1.287 1_455 S
C1246 C1245 1.287 1_655 S
C1246 C1247 1.524 . S
C1246 H1265 0.913 . S
C1247 H1223 0.950 . S
C1247 C1246 1.524 . S
C1247 C1248 1.415 1_655 S
C1248 H1224 0.950 . S
C1248 C1243 1.363 . S
C1248 C1247 1.415 1_455 S
C1249 H1225 0.951 . S
C1249 C1250 1.366 . S
C1249 C1251 1.388 . S
C1250 C1249 1.366 . S
C1250 C1254 1.383 1_455 S
C1251 H1226 0.951 . S
C1251 C1249 1.388 . S
C1251 C1252 1.366 . S
C1252 C1251 1.366 . S
C1252 C1253 1.414 . S
C1252 C1255 1.499 . S
C1253 H1227 0.950 . S
C1253 C1252 1.414 . S
C1253 C1254 1.368 1_455 S
C1254 H1228 0.957 . S
C1254 C1250 1.383 1_655 S
C1254 C1253 1.368 1_655 S
C1255 C1252 1.499 . S
C1255 C1256 1.373 . S
C1255 C1257 1.389 . S
C1256 H1229 0.950 . S
C1256 C1242 1.377 . S
C1256 C1255 1.373 . S
C1257 C1241 1.377 . S
C1257 C1255 1.389 . S
C1257 C1258 1.524 . S
C1258 C1257 1.524 . S
C1258 C1259 1.397 . S
C1258 C1263 1.363 . S
C1259 H1230 0.950 . S
C1259 C1258 1.397 . S
C1259 C1260 1.334 . S
C1260 H1231 0.950 . S
C1260 C1259 1.334 . S
C1260 C1261 1.287 . S
C1261 C1260 1.287 . S
C1261 C1262 1.524 . S
C1261 H1264 0.999 . S
C1262 H1232 0.950 . S
C1262 C1261 1.524 . S
C1262 C1263 1.415 . S
C1263 H1233 0.950 . S
C1263 C1258 1.363 . S
C1263 C1262 1.415 . S
H1264 C1261 0.999 . S
H1265 C1246 0.913 . S
H1266 C1284 0.951 . S
H1267 C1286 0.951 . S
H1268 C1288 0.950 . S
H1269 C1289 0.950 . S
H1270 C1291 0.950 . S
H1271 C1294 0.950 . S
H1272 C1295 0.950 . S
H1273 C1297 0.950 . S
H1274 C1298 0.950 . S
H1275 C1299 0.951 . S
H1276 C1301 0.951 . S
H1277 C1303 0.950 . S
H1278 C1304 0.950 . S
H1279 C1306 0.950 . S
H1280 C1309 0.950 1_545 S
H1281 C1310 0.950 . S
H1282 C1312 0.950 . S
H1283 C1313 0.950 . S
C1284 H1266 0.951 . S
C1284 C1285 1.366 . S
C1284 C1286 1.388 . S
C1285 C1284 1.366 . S
C1285 C1289 1.385 . S
C1286 H1267 0.951 . S
C1286 C1284 1.388 . S
C1286 C1287 1.366 . S
C1287 C1286 1.366 . S
C1287 C1288 1.414 . S
C1287 C1290 1.499 . S
C1288 H1268 0.950 . S
C1288 C1287 1.414 . S
C1288 C1289 1.374 . S
C1289 H1269 0.950 . S
C1289 C1285 1.385 . S
C1289 C1288 1.374 . S
C1290 C1287 1.499 . S
C1290 C1291 1.373 . S
C1290 C1292 1.389 . S
C1291 H1270 0.950 . S
C1291 C1290 1.373 . S
C1291 C1307 1.377 . S
C1292 C1290 1.389 . S
C1292 C1293 1.524 . S
C1292 C1306 1.377 . S
C1293 C1292 1.524 . S
C1293 C1294 1.397 . S
C1293 C1298 1.363 . S
C1294 H1271 0.950 . S
C1294 C1293 1.397 . S
C1294 C1295 1.334 . S
C1295 H1272 0.950 . S
C1295 C1294 1.334 . S
C1295 C1296 1.287 . S
C1296 C1295 1.287 . S
C1296 C1297 1.524 . S
C1296 H1315 0.913 . S
C1297 H1273 0.950 . S
C1297 C1296 1.524 . S
C1297 C1298 1.415 . S
C1298 H1274 0.950 . S
C1298 C1293 1.363 . S
C1298 C1297 1.415 . S
C1299 H1275 0.951 . S
C1299 C1300 1.366 1_565 S
C1299 C1301 1.388 1_565 S
C1300 C1299 1.366 1_545 S
C1300 C1304 1.385 . S
C1301 H1276 0.951 . S
C1301 C1299 1.388 1_545 S
C1301 C1302 1.366 . S
C1302 C1301 1.366 . S
C1302 C1303 1.414 . S
C1302 C1305 1.499 . S
C1303 H1277 0.950 . S
C1303 C1302 1.414 . S
C1303 C1304 1.374 . S
C1304 H1278 0.950 . S
C1304 C1300 1.385 . S
C1304 C1303 1.374 . S
C1305 C1302 1.499 . S
C1305 C1306 1.373 . S
C1305 C1307 1.389 . S
C1306 H1279 0.950 . S
C1306 C1292 1.377 . S
C1306 C1305 1.373 . S
C1307 C1291 1.377 . S
C1307 C1305 1.389 . S
C1307 C1308 1.521 . S
C1308 C1307 1.521 . S
C1308 C1309 1.398 1_545 S
C1308 C1313 1.365 1_545 S
C1309 H1280 0.950 1_565 S
C1309 C1308 1.398 1_565 S
C1309 C1310 1.334 . S
C1310 H1281 0.950 . S
C1310 C1309 1.334 . S
C1310 C1311 1.287 . S
C1311 C1310 1.287 . S
C1311 C1312 1.524 . S
C1311 H1314 0.999 . S
C1312 H1282 0.950 . S
C1312 C1311 1.524 . S
C1312 C1313 1.415 . S
C1313 H1283 0.950 . S
C1313 C1308 1.365 1_565 S
C1313 C1312 1.415 . S
H1314 C1311 0.999 . S
H1315 C1296 0.913 . S
H1316 C1334 0.951 . S
H1317 C1336 0.951 . S
H1318 C1338 0.950 . S
H1319 C1339 0.950 . S
H1320 C1341 0.950 . S
H1321 C1344 0.950 . S
H1322 C1345 0.950 . S
H1323 C1347 0.950 . S
H1324 C1348 0.950 . S
H1325 C1349 0.951 . S
H1326 C1351 0.951 . S
H1327 C1353 0.950 . S
H1328 C1354 0.950 . S
H1329 C1356 0.950 . S
H1330 C1359 0.950 . S
H1331 C1360 0.950 . S
H1332 C1362 0.950 . S
H1333 C1363 0.950 . S
C1334 H1316 0.951 . S
C1334 C1335 1.366 . S
C1334 C1336 1.388 . S
C1335 C1334 1.366 . S
C1335 C1339 1.385 . S
C1336 H1317 0.951 . S
C1336 C1334 1.388 . S
C1336 C1337 1.366 . S
C1337 C1336 1.366 . S
C1337 C1338 1.414 . S
C1337 C1340 1.499 . S
C1338 H1318 0.950 . S
C1338 C1337 1.414 . S
C1338 C1339 1.374 . S
C1339 H1319 0.950 . S
C1339 C1335 1.385 . S
C1339 C1338 1.374 . S
C1340 C1337 1.499 . S
C1340 C1341 1.373 . S
C1340 C1342 1.389 . S
C1341 H1320 0.950 . S
C1341 C1340 1.373 . S
C1341 C1357 1.377 . S
C1342 C1340 1.389 . S
C1342 C1343 1.524 . S
C1342 C1356 1.377 . S
C1343 C1342 1.524 . S
C1343 C1344 1.397 . S
C1343 C1348 1.363 . S
C1344 H1321 0.950 . S
C1344 C1343 1.397 . S
C1344 C1345 1.334 . S
C1345 H1322 0.950 . S
C1345 C1344 1.334 . S
C1345 C1346 1.287 . S
C1346 C1345 1.287 . S
C1346 C1347 1.524 . S
C1346 H1365 0.913 . S
C1347 H1323 0.950 . S
C1347 C1346 1.524 . S
C1347 C1348 1.415 . S
C1348 H1324 0.950 . S
C1348 C1343 1.363 . S
C1348 C1347 1.415 . S
C1349 H1325 0.951 . S
C1349 C1350 1.366 . S
C1349 C1351 1.388 . S
C1350 C1349 1.366 . S
C1350 C1354 1.385 . S
C1351 H1326 0.951 . S
C1351 C1349 1.388 . S
C1351 C1352 1.366 . S
C1352 C1351 1.366 . S
C1352 C1353 1.414 . S
C1352 C1355 1.499 . S
C1353 H1327 0.950 . S
C1353 C1352 1.414 . S
C1353 C1354 1.374 . S
C1354 H1328 0.950 . S
C1354 C1350 1.385 . S
C1354 C1353 1.374 . S
C1355 C1352 1.499 . S
C1355 C1356 1.373 . S
C1355 C1357 1.389 . S
C1356 H1329 0.950 . S
C1356 C1342 1.377 . S
C1356 C1355 1.373 . S
C1357 C1341 1.377 . S
C1357 C1355 1.389 . S
C1357 C1358 1.524 . S
C1358 C1357 1.524 . S
C1358 C1359 1.397 . S
C1358 C1363 1.363 . S
C1359 H1330 0.950 . S
C1359 C1358 1.397 . S
C1359 C1360 1.334 . S
C1360 H1331 0.950 . S
C1360 C1359 1.334 . S
C1360 C1361 1.287 . S
C1361 C1360 1.287 . S
C1361 C1362 1.524 . S
C1361 H1364 0.999 . S
C1362 H1332 0.950 . S
C1362 C1361 1.524 . S
C1362 C1363 1.415 . S
C1363 H1333 0.950 . S
C1363 C1358 1.363 . S
C1363 C1362 1.415 . S
H1364 C1361 0.999 . S
H1365 C1346 0.913 . S
H1366 C1384 0.951 . S
H1367 C1386 0.951 . S
H1368 C1388 0.950 . S
H1369 C1389 0.950 . S
H1370 C1391 0.950 . S
H1371 C1394 0.950 . S
H1372 C1395 0.950 . S
H1373 C1397 0.950 . S
H1374 C1398 0.950 . S
H1375 C1399 0.951 . S
H1376 C1401 0.951 . S
H1377 C1403 0.950 . S
H1378 C1404 0.950 . S
H1379 C1406 0.950 . S
H1380 C1409 0.950 . S
H1381 C1410 0.950 . S
H1382 C1412 0.950 . S
H1383 C1413 0.950 . S
C1384 H1366 0.951 . S
C1384 C1385 1.366 . S
C1384 C1386 1.388 . S
C1385 C1384 1.366 . S
C1385 C1389 1.385 . S
C1386 H1367 0.951 . S
C1386 C1384 1.388 . S
C1386 C1387 1.366 . S
C1387 C1386 1.366 . S
C1387 C1388 1.414 . S
C1387 C1390 1.499 . S
C1388 H1368 0.950 . S
C1388 C1387 1.414 . S
C1388 C1389 1.374 . S
C1389 H1369 0.950 . S
C1389 C1385 1.385 . S
C1389 C1388 1.374 . S
C1390 C1387 1.499 . S
C1390 C1391 1.373 . S
C1390 C1392 1.389 . S
C1391 H1370 0.950 . S
C1391 C1390 1.373 . S
C1391 C1407 1.377 . S
C1392 C1390 1.389 . S
C1392 C1393 1.524 . S
C1392 C1406 1.377 . S
C1393 C1392 1.524 . S
C1393 C1394 1.397 . S
C1393 C1398 1.363 . S
C1394 H1371 0.950 . S
C1394 C1393 1.397 . S
C1394 C1395 1.334 . S
C1395 H1372 0.950 . S
C1395 C1394 1.334 . S
C1395 C1396 1.287 . S
C1396 C1395 1.287 . S
C1396 C1397 1.524 . S
C1396 H1415 0.913 . S
C1397 H1373 0.950 . S
C1397 C1396 1.524 . S
C1397 C1398 1.415 . S
C1398 H1374 0.950 . S
C1398 C1393 1.363 . S
C1398 C1397 1.415 . S
C1399 H1375 0.951 . S
C1399 C1400 1.366 . S
C1399 C1401 1.388 . S
C1400 C1399 1.366 . S
C1400 C1404 1.385 . S
C1401 H1376 0.951 . S
C1401 C1399 1.388 . S
C1401 C1402 1.366 . S
C1402 C1401 1.366 . S
C1402 C1403 1.414 . S
C1402 C1405 1.499 . S
C1403 H1377 0.950 . S
C1403 C1402 1.414 . S
C1403 C1404 1.374 . S
C1404 H1378 0.950 . S
C1404 C1400 1.385 . S
C1404 C1403 1.374 . S
C1405 C1402 1.499 . S
C1405 C1406 1.373 . S
C1405 C1407 1.389 . S
C1406 H1379 0.950 . S
C1406 C1392 1.377 . S
C1406 C1405 1.373 . S
C1407 C1391 1.377 . S
C1407 C1405 1.389 . S
C1407 C1408 1.524 . S
C1408 C1407 1.524 . S
C1408 C1409 1.397 . S
C1408 C1413 1.363 . S
C1409 H1380 0.950 . S
C1409 C1408 1.397 . S
C1409 C1410 1.334 . S
C1410 H1381 0.950 . S
C1410 C1409 1.334 . S
C1410 C1411 1.287 . S
C1411 C1410 1.287 . S
C1411 C1412 1.524 . S
C1411 H1414 0.999 . S
C1412 H1382 0.950 . S
C1412 C1411 1.524 . S
C1412 C1413 1.415 . S
C1413 H1383 0.950 . S
C1413 C1408 1.363 . S
C1413 C1412 1.415 . S
H1414 C1411 0.999 . S
H1415 C1396 0.913 . S
H1416 C1434 0.951 1_554 S
H1417 C1436 0.951 . S
H1418 C1438 0.950 . S
H1419 C1439 0.950 . S
H1420 C1441 0.950 . S
H1421 C1444 0.950 . S
H1422 C1445 0.950 . S
H1423 C1447 0.950 . S
H1424 C1448 0.950 1_556 S
H1425 C1449 0.951 . S
H1426 C1451 0.951 . S
H1427 C1453 0.969 . S
H1428 C1454 0.950 . S
H1429 C1456 0.950 . S
H1430 C1459 0.950 1_455 S
H1431 C1460 0.950 . S
H1432 C1462 0.950 . S
H1433 C1463 0.950 . S
C1434 H1416 0.951 1_556 S
C1434 C1435 1.366 . S
C1434 C1436 1.388 . S
C1435 C1434 1.366 . S
C1435 C1439 1.385 . S
C1436 H1417 0.951 . S
C1436 C1434 1.388 . S
C1436 C1437 1.366 . S
C1437 C1436 1.366 . S
C1437 C1438 1.414 . S
C1437 C1440 1.499 . S
C1438 H1418 0.950 . S
C1438 C1437 1.414 . S
C1438 C1439 1.374 . S
C1439 H1419 0.950 . S
C1439 C1435 1.385 . S
C1439 C1438 1.374 . S
C1440 C1437 1.499 . S
C1440 C1441 1.373 . S
C1440 C1442 1.389 . S
C1441 H1420 0.950 . S
C1441 C1440 1.373 . S
C1441 C1457 1.377 . S
C1442 C1440 1.389 . S
C1442 C1443 1.524 . S
C1442 C1456 1.377 . S
C1443 C1442 1.524 . S
C1443 C1444 1.397 . S
C1443 C1448 1.363 1_556 S
C1444 H1421 0.950 . S
C1444 C1443 1.397 . S
C1444 C1445 1.334 1_556 S
C1445 H1422 0.950 . S
C1445 C1444 1.334 1_554 S
C1445 C1446 1.287 . S
C1446 C1445 1.287 . S
C1446 C1447 1.524 . S
C1446 H1465 0.913 . S
C1447 H1423 0.950 . S
C1447 C1446 1.524 . S
C1447 C1448 1.415 . S
C1448 H1424 0.950 1_554 S
C1448 C1443 1.363 1_554 S
C1448 C1447 1.415 . S
C1449 H1425 0.951 . S
C1449 C1450 1.366 1_655 S
C1449 C1451 1.388 . S
C1450 C1449 1.366 1_455 S
C1450 C1454 1.385 . S
C1451 H1426 0.951 . S
C1451 C1449 1.388 . S
C1451 C1452 1.366 . S
C1452 C1451 1.366 . S
C1452 C1453 1.369 1_655 S
C1452 C1455 1.499 . S
C1453 H1427 0.969 . S
C1453 C1452 1.369 1_455 S
C1453 C1454 1.403 . S
C1454 H1428 0.950 . S
C1454 C1450 1.385 . S
C1454 C1453 1.403 . S
C1455 C1452 1.499 . S
C1455 C1456 1.373 . S
C1455 C1457 1.389 . S
C1456 H1429 0.950 . S
C1456 C1442 1.377 . S
C1456 C1455 1.373 . S
C1457 C1441 1.377 . S
C1457 C1455 1.389 . S
C1457 C1458 1.524 . S
C1458 C1457 1.524 . S
C1458 C1459 1.397 . S
C1458 C1463 1.363 . S
C1459 H1430 0.950 1_655 S
C1459 C1458 1.397 . S
C1459 C1460 1.334 1_655 S
C1460 H1431 0.950 . S
C1460 C1459 1.334 1_455 S
C1460 C1461 1.287 1_455 S
C1461 C1460 1.287 1_655 S
C1461 C1462 1.524 . S
C1461 H1464 1.022 . S
C1462 H1432 0.950 . S
C1462 C1461 1.524 . S
C1462 C1463 1.415 . S
C1463 H1433 0.950 . S
C1463 C1458 1.363 . S
C1463 C1462 1.415 . S
H1464 C1461 1.022 . S
H1465 C1446 0.913 . S
H1466 C1484 0.951 1_554 S
H1467 C1486 0.951 . S
H1468 C1488 0.950 . S
H1469 C1489 0.950 . S
H1470 C1491 0.950 . S
H1471 C1494 0.950 . S
H1472 C1495 0.950 . S
H1473 C1497 0.950 . S
H1474 C1498 0.950 . S
H1475 C1499 0.951 . S
H1476 C1501 0.951 . S
H1477 C1503 0.950 . S
H1478 C1504 0.959 . S
H1479 C1506 0.950 . S
H1480 C1509 0.950 . S
H1481 C1510 0.950 . S
H1482 C1512 0.950 . S
H1483 C1513 0.962 . S
C1484 H1466 0.951 1_556 S
C1484 C1485 1.366 . S
C1484 C1486 1.388 . S
C1485 C1484 1.366 . S
C1485 C1489 1.385 . S
C1486 H1467 0.951 . S
C1486 C1484 1.388 . S
C1486 C1487 1.366 . S
C1487 C1486 1.366 . S
C1487 C1488 1.414 . S
C1487 C1490 1.499 . S
C1488 H1468 0.950 . S
C1488 C1487 1.414 . S
C1488 C1489 1.374 . S
C1489 H1469 0.950 . S
C1489 C1485 1.385 . S
C1489 C1488 1.374 . S
C1490 C1487 1.499 . S
C1490 C1491 1.373 . S
C1490 C1492 1.389 . S
C1491 H1470 0.950 . S
C1491 C1490 1.373 . S
C1491 C1507 1.377 . S
C1492 C1490 1.389 . S
C1492 C1493 1.524 . S
C1492 C1506 1.377 . S
C1493 C1492 1.524 . S
C1493 C1494 1.397 . S
C1493 C1498 1.363 . S
C1494 H1471 0.950 . S
C1494 C1493 1.397 . S
C1494 C1495 1.334 . S
C1495 H1472 0.950 . S
C1495 C1494 1.334 . S
C1495 C1496 1.287 . S
C1496 C1495 1.287 . S
C1496 C1497 1.524 . S
C1496 H1515 0.913 . S
C1497 H1473 0.950 . S
C1497 C1496 1.524 . S
C1497 C1498 1.415 . S
C1498 H1474 0.950 . S
C1498 C1493 1.363 . S
C1498 C1497 1.415 . S
C1499 H1475 0.951 . S
C1499 C1500 1.366 . S
C1499 C1501 1.388 1_545 S
C1500 C1499 1.366 . S
C1500 C1504 1.407 . S
C1501 H1476 0.951 . S
C1501 C1499 1.388 1_565 S
C1501 C1502 1.366 . S
C1502 C1501 1.366 . S
C1502 C1503 1.414 . S
C1502 C1505 1.499 . S
C1503 H1477 0.950 . S
C1503 C1502 1.414 . S
C1503 C1504 1.347 1_565 S
C1504 H1478 0.959 . S
C1504 C1500 1.407 . S
C1504 C1503 1.347 1_545 S
C1505 C1502 1.499 . S
C1505 C1506 1.373 . S
C1505 C1507 1.389 . S
C1506 H1479 0.950 . S
C1506 C1492 1.377 . S
C1506 C1505 1.373 . S
C1507 C1491 1.377 . S
C1507 C1505 1.389 . S
C1507 C1508 1.524 1_565 S
C1508 C1507 1.524 1_545 S
C1508 C1509 1.397 . S
C1508 C1513 1.363 . S
C1509 H1480 0.950 . S
C1509 C1508 1.397 . S
C1509 C1510 1.334 . S
C1510 H1481 0.950 . S
C1510 C1509 1.334 . S
C1510 C1511 1.287 . S
C1511 C1510 1.287 . S
C1511 C1512 1.524 . S
C1511 H1514 0.999 . S
C1512 H1482 0.950 . S
C1512 C1511 1.524 . S
C1512 C1513 1.415 . S
C1513 H1483 0.962 . S
C1513 C1508 1.363 . S
C1513 C1512 1.415 . S
H1514 C1511 0.999 . S
H1515 C1496 0.913 . S
H1516 C1534 0.951 1_554 S
H1517 C1536 0.951 . S
H1518 C1538 0.950 . S
H1519 C1539 0.950 . S
H1520 C1541 0.950 . S
H1521 C1544 0.950 . S
H1522 C1545 0.950 . S
H1523 C1547 0.950 . S
H1524 C1548 0.950 1_556 S
H1525 C1549 0.951 . S
H1526 C1551 0.951 . S
H1527 C1553 0.950 . S
H1528 C1554 0.950 . S
H1529 C1556 0.950 . S
H1530 C1559 0.950 . S
H1531 C1560 0.950 . S
H1532 C1562 0.950 . S
H1533 C1563 0.950 . S
C1534 H1516 0.951 1_556 S
C1534 C1535 1.366 . S
C1534 C1536 1.388 . S
C1535 C1534 1.366 . S
C1535 C1539 1.385 . S
C1536 H1517 0.951 . S
C1536 C1534 1.388 . S
C1536 C1537 1.366 . S
C1537 C1536 1.366 . S
C1537 C1538 1.414 . S
C1537 C1540 1.499 . S
C1538 H1518 0.950 . S
C1538 C1537 1.414 . S
C1538 C1539 1.374 . S
C1539 H1519 0.950 . S
C1539 C1535 1.385 . S
C1539 C1538 1.374 . S
C1540 C1537 1.499 . S
C1540 C1541 1.373 . S
C1540 C1542 1.389 . S
C1541 H1520 0.950 . S
C1541 C1540 1.373 . S
C1541 C1557 1.377 . S
C1542 C1540 1.389 . S
C1542 C1543 1.524 . S
C1542 C1556 1.377 . S
C1543 C1542 1.524 . S
C1543 C1544 1.397 . S
C1543 C1548 1.363 1_556 S
C1544 H1521 0.950 . S
C1544 C1543 1.397 . S
C1544 C1545 1.334 1_556 S
C1545 H1522 0.950 . S
C1545 C1544 1.334 1_554 S
C1545 C1546 1.287 . S
C1546 C1545 1.287 . S
C1546 C1547 1.524 . S
C1546 H1565 0.913 . S
C1547 H1523 0.950 . S
C1547 C1546 1.524 . S
C1547 C1548 1.415 . S
C1548 H1524 0.950 1_554 S
C1548 C1543 1.363 1_554 S
C1548 C1547 1.415 . S
C1549 H1525 0.951 . S
C1549 C1550 1.366 . S
C1549 C1551 1.388 . S
C1550 C1549 1.366 . S
C1550 C1554 1.385 . S
C1551 H1526 0.951 . S
C1551 C1549 1.388 . S
C1551 C1552 1.366 . S
C1552 C1551 1.366 . S
C1552 C1553 1.414 . S
C1552 C1555 1.499 . S
C1553 H1527 0.950 . S
C1553 C1552 1.414 . S
C1553 C1554 1.374 . S
C1554 H1528 0.950 . S
C1554 C1550 1.385 . S
C1554 C1553 1.374 . S
C1555 C1552 1.499 . S
C1555 C1556 1.373 . S
C1555 C1557 1.389 . S
C1556 H1529 0.950 . S
C1556 C1542 1.377 . S
C1556 C1555 1.373 . S
C1557 C1541 1.377 . S
C1557 C1555 1.389 . S
C1557 C1558 1.524 . S
C1558 C1557 1.524 . S
C1558 C1559 1.397 . S
C1558 C1563 1.363 . S
C1559 H1530 0.950 . S
C1559 C1558 1.397 . S
C1559 C1560 1.334 . S
C1560 H1531 0.950 . S
C1560 C1559 1.334 . S
C1560 C1561 1.287 . S
C1561 C1560 1.287 . S
C1561 C1562 1.524 . S
C1561 H1564 0.999 . S
C1562 H1532 0.950 . S
C1562 C1561 1.524 . S
C1562 C1563 1.415 . S
C1563 H1533 0.950 . S
C1563 C1558 1.363 . S
C1563 C1562 1.415 . S
H1564 C1561 0.999 . S
H1565 C1546 0.913 . S
H1566 C1584 0.951 . S
H1567 C1586 0.951 . S
H1568 C1588 0.950 . S
H1569 C1589 0.950 1_554 S
H1570 C1591 0.950 . S
H1571 C1594 0.950 . S
H1572 C1595 0.950 . S
H1573 C1597 0.950 . S
H1574 C1598 0.950 . S
H1575 C1599 0.951 . S
H1576 C1601 0.951 . S
H1577 C1603 0.950 . S
H1578 C1604 0.950 . S
H1579 C1606 0.950 . S
H1580 C1609 0.950 . S
H1581 C1610 0.950 . S
H1582 C1612 0.950 1_554 S
H1583 C1613 0.950 . S
C1584 H1566 0.951 . S
C1584 C1585 1.366 . S
C1584 C1586 1.388 . S
C1585 C1584 1.366 . S
C1585 C1589 1.385 . S
C1586 H1567 0.951 . S
C1586 C1584 1.388 . S
C1586 C1587 1.366 . S
C1587 C1586 1.366 . S
C1587 C1588 1.414 . S
C1587 C1590 1.499 . S
C1588 H1568 0.950 . S
C1588 C1587 1.414 . S
C1588 C1589 1.374 . S
C1589 H1569 0.950 1_556 S
C1589 C1585 1.385 . S
C1589 C1588 1.374 . S
C1590 C1587 1.499 . S
C1590 C1591 1.373 . S
C1590 C1592 1.389 . S
C1591 H1570 0.950 . S
C1591 C1590 1.373 . S
C1591 C1607 1.377 . S
C1592 C1590 1.389 . S
C1592 C1593 1.524 . S
C1592 C1606 1.377 . S
C1593 C1592 1.524 . S
C1593 C1594 1.397 . S
C1593 C1598 1.363 . S
C1594 H1571 0.950 . S
C1594 C1593 1.397 . S
C1594 C1595 1.334 . S
C1595 H1572 0.950 . S
C1595 C1594 1.334 . S
C1595 C1596 1.287 . S
C1596 C1595 1.287 . S
C1596 C1597 1.524 . S
C1596 H1615 0.913 . S
C1597 H1573 0.950 . S
C1597 C1596 1.524 . S
C1597 C1598 1.415 . S
C1598 H1574 0.950 . S
C1598 C1593 1.363 . S
C1598 C1597 1.415 . S
C1599 H1575 0.951 . S
C1599 C1600 1.366 . S
C1599 C1601 1.388 . S
C1600 C1599 1.366 . S
C1600 C1604 1.385 . S
C1601 H1576 0.951 . S
C1601 C1599 1.388 . S
C1601 C1602 1.366 . S
C1602 C1601 1.366 . S
C1602 C1603 1.414 . S
C1602 C1605 1.499 . S
C1603 H1577 0.950 . S
C1603 C1602 1.414 . S
C1603 C1604 1.374 . S
C1604 H1578 0.950 . S
C1604 C1600 1.385 . S
C1604 C1603 1.374 . S
C1605 C1602 1.499 . S
C1605 C1606 1.373 . S
C1605 C1607 1.389 . S
C1606 H1579 0.950 . S
C1606 C1592 1.377 . S
C1606 C1605 1.373 . S
C1607 C1591 1.377 . S
C1607 C1605 1.389 . S
C1607 C1608 1.524 . S
C1608 C1607 1.524 . S
C1608 C1609 1.397 . S
C1608 C1613 1.363 . S
C1609 H1580 0.950 . S
C1609 C1608 1.397 . S
C1609 C1610 1.334 . S
C1610 H1581 0.950 . S
C1610 C1609 1.334 . S
C1610 C1611 1.287 . S
C1611 C1610 1.287 . S
C1611 C1612 1.524 . S
C1611 H1614 0.999 . S
C1612 H1582 0.950 1_556 S
C1612 C1611 1.524 . S
C1612 C1613 1.415 . S
C1613 H1583 0.950 . S
C1613 C1608 1.363 . S
C1613 C1612 1.415 . S
H1614 C1611 0.999 . S
H1615 C1596 0.913 . S
H1616 C1634 0.951 . S
H1617 C1636 0.951 . S
H1618 C1638 0.950 . S
H1619 C1639 0.950 . S
H1620 C1641 0.950 . S
H1621 C1644 0.950 . S
H1622 C1645 0.950 . S
H1623 C1647 0.950 . S
H1624 C1648 0.950 . S
H1625 C1649 0.951 . S
H1626 C1651 0.951 . S
H1627 C1653 0.950 . S
H1628 C1654 0.950 . S
H1629 C1656 0.950 . S
H1630 C1659 0.950 . S
H1631 C1660 0.950 . S
H1632 C1662 0.950 . S
H1633 C1663 0.950 . S
C1634 H1616 0.951 . S
C1634 C1635 1.366 . S
C1634 C1636 1.388 . S
C1635 C1634 1.366 . S
C1635 C1639 1.385 . S
C1636 H1617 0.951 . S
C1636 C1634 1.388 . S
C1636 C1637 1.366 . S
C1637 C1636 1.366 . S
C1637 C1638 1.414 . S
C1637 C1640 1.499 . S
C1638 H1618 0.950 . S
C1638 C1637 1.414 . S
C1638 C1639 1.374 . S
C1639 H1619 0.950 . S
C1639 C1635 1.385 . S
C1639 C1638 1.374 . S
C1640 C1637 1.499 . S
C1640 C1641 1.373 . S
C1640 C1642 1.389 . S
C1641 H1620 0.950 . S
C1641 C1640 1.373 . S
C1641 C1657 1.377 . S
C1642 C1640 1.389 . S
C1642 C1643 1.524 . S
C1642 C1656 1.377 . S
C1643 C1642 1.524 . S
C1643 C1644 1.397 . S
C1643 C1648 1.363 . S
C1644 H1621 0.950 . S
C1644 C1643 1.397 . S
C1644 C1645 1.334 . S
C1645 H1622 0.950 . S
C1645 C1644 1.334 . S
C1645 C1646 1.287 . S
C1646 C1645 1.287 . S
C1646 C1647 1.524 . S
C1646 H1665 0.913 . S
C1647 H1623 0.950 . S
C1647 C1646 1.524 . S
C1647 C1648 1.415 . S
C1648 H1624 0.950 . S
C1648 C1643 1.363 . S
C1648 C1647 1.415 . S
C1649 H1625 0.951 . S
C1649 C1650 1.366 . S
C1649 C1651 1.388 . S
C1650 C1649 1.366 . S
C1650 C1654 1.385 . S
C1651 H1626 0.951 . S
C1651 C1649 1.388 . S
C1651 C1652 1.366 . S
C1652 C1651 1.366 . S
C1652 C1653 1.414 . S
C1652 C1655 1.499 . S
C1653 H1627 0.950 . S
C1653 C1652 1.414 . S
C1653 C1654 1.374 . S
C1654 H1628 0.950 . S
C1654 C1650 1.385 . S
C1654 C1653 1.374 . S
C1655 C1652 1.499 . S
C1655 C1656 1.373 . S
C1655 C1657 1.389 . S
C1656 H1629 0.950 . S
C1656 C1642 1.377 . S
C1656 C1655 1.373 . S
C1657 C1641 1.377 . S
C1657 C1655 1.389 . S
C1657 C1658 1.524 . S
C1658 C1657 1.524 . S
C1658 C1659 1.397 . S
C1658 C1663 1.363 1_455 S
C1659 H1630 0.950 . S
C1659 C1658 1.397 . S
C1659 C1660 1.334 1_455 S
C1660 H1631 0.950 . S
C1660 C1659 1.334 1_655 S
C1660 C1661 1.287 . S
C1661 C1660 1.287 . S
C1661 C1662 1.524 . S
C1661 H1664 0.999 . S
C1662 H1632 0.950 . S
C1662 C1661 1.524 . S
C1662 C1663 1.415 . S
C1663 H1633 0.950 . S
C1663 C1658 1.363 1_655 S
C1663 C1662 1.415 . S
H1664 C1661 0.999 . S
H1665 C1646 0.913 . S
H1666 C1684 0.951 . S
H1667 C1686 0.951 . S
H1668 C1688 0.950 . S
H1669 C1689 0.950 . S
H1670 C1691 0.950 . S
H1671 C1694 0.950 . S
H1672 C1695 0.950 . S
H1673 C1697 0.950 . S
H1674 C1698 0.950 . S
H1675 C1699 0.951 . S
H1676 C1701 0.951 . S
H1677 C1703 0.950 . S
H1678 C1704 0.950 . S
H1679 C1706 0.950 . S
H1680 C1709 0.976 . S
H1681 C1710 0.950 . S
H1682 C1712 0.950 . S
H1683 C1713 0.950 1_545 S
C1684 H1666 0.951 . S
C1684 C1685 1.366 . S
C1684 C1686 1.388 . S
C1685 C1684 1.366 . S
C1685 C1689 1.385 . S
C1686 H1667 0.951 . S
C1686 C1684 1.388 . S
C1686 C1687 1.366 . S
C1687 C1686 1.366 . S
C1687 C1688 1.414 . S
C1687 C1690 1.499 . S
C1688 H1668 0.950 . S
C1688 C1687 1.414 . S
C1688 C1689 1.374 . S
C1689 H1669 0.950 . S
C1689 C1685 1.385 . S
C1689 C1688 1.374 . S
C1690 C1687 1.499 . S
C1690 C1691 1.373 . S
C1690 C1692 1.389 . S
C1691 H1670 0.950 . S
C1691 C1690 1.373 . S
C1691 C1707 1.377 . S
C1692 C1690 1.389 . S
C1692 C1693 1.524 . S
C1692 C1706 1.377 . S
C1693 C1692 1.524 . S
C1693 C1694 1.397 . S
C1693 C1698 1.363 . S
C1694 H1671 0.950 . S
C1694 C1693 1.397 . S
C1694 C1695 1.334 . S
C1695 H1672 0.950 . S
C1695 C1694 1.334 . S
C1695 C1696 1.287 . S
C1696 C1695 1.287 . S
C1696 C1697 1.524 . S
C1696 H1715 0.913 . S
C1697 H1673 0.950 . S
C1697 C1696 1.524 . S
C1697 C1698 1.415 . S
C1698 H1674 0.950 . S
C1698 C1693 1.363 . S
C1698 C1697 1.415 . S
C1699 H1675 0.951 . S
C1699 C1700 1.366 . S
C1699 C1701 1.388 . S
C1700 C1699 1.366 . S
C1700 C1704 1.385 . S
C1701 H1676 0.951 . S
C1701 C1699 1.388 . S
C1701 C1702 1.366 . S
C1702 C1701 1.366 . S
C1702 C1703 1.414 . S
C1702 C1705 1.499 . S
C1703 H1677 0.950 . S
C1703 C1702 1.414 . S
C1703 C1704 1.374 . S
C1704 H1678 0.950 . S
C1704 C1700 1.385 . S
C1704 C1703 1.374 . S
C1705 C1702 1.499 . S
C1705 C1706 1.373 . S
C1705 C1707 1.389 . S
C1706 H1679 0.950 . S
C1706 C1692 1.377 . S
C1706 C1705 1.373 . S
C1707 C1691 1.377 . S
C1707 C1705 1.389 . S
C1707 C1708 1.524 . S
C1708 C1707 1.524 . S
C1708 C1709 1.413 . S
C1708 C1713 1.363 1_545 S
C1709 H1680 0.976 . S
C1709 C1708 1.413 . S
C1709 C1710 1.293 1_545 S
C1710 H1681 0.950 . S
C1710 C1709 1.293 1_565 S
C1710 C1711 1.287 . S
C1711 C1710 1.287 . S
C1711 C1712 1.524 . S
C1711 H1714 0.999 . S
C1712 H1682 0.950 . S
C1712 C1711 1.524 . S
C1712 C1713 1.415 . S
C1713 H1683 0.950 1_565 S
C1713 C1708 1.363 1_565 S
C1713 C1712 1.415 . S
H1714 C1711 0.999 . S
H1715 C1696 0.913 . S
H1716 C1734 0.951 . S
H1717 C1736 0.951 . S
H1718 C1738 0.950 . S
H1719 C1739 0.950 . S
H1720 C1741 0.950 . S
H1721 C1744 0.950 . S
H1722 C1745 0.950 . S
H1723 C1747 0.950 . S
H1724 C1748 0.950 . S
H1725 C1749 0.951 . S
H1726 C1751 0.951 . S
H1727 C1753 0.950 . S
H1728 C1754 0.950 . S
H1729 C1756 0.950 . S
H1730 C1759 0.950 . S
H1731 C1760 0.950 . S
H1732 C1762 0.950 . S
H1733 C1763 0.950 . S
C1734 H1716 0.951 . S
C1734 C1735 1.366 . S
C1734 C1736 1.388 . S
C1735 C1734 1.366 . S
C1735 C1739 1.385 . S
C1736 H1717 0.951 . S
C1736 C1734 1.388 . S
C1736 C1737 1.366 . S
C1737 C1736 1.366 . S
C1737 C1738 1.414 . S
C1737 C1740 1.499 . S
C1738 H1718 0.950 . S
C1738 C1737 1.414 . S
C1738 C1739 1.374 . S
C1739 H1719 0.950 . S
C1739 C1735 1.385 . S
C1739 C1738 1.374 . S
C1740 C1737 1.499 . S
C1740 C1741 1.373 . S
C1740 C1742 1.389 . S
C1741 H1720 0.950 . S
C1741 C1740 1.373 . S
C1741 C1757 1.377 . S
C1742 C1740 1.389 . S
C1742 C1743 1.524 . S
C1742 C1756 1.377 . S
C1743 C1742 1.524 . S
C1743 C1744 1.397 . S
C1743 C1748 1.363 . S
C1744 H1721 0.950 . S
C1744 C1743 1.397 . S
C1744 C1745 1.334 . S
C1745 H1722 0.950 . S
C1745 C1744 1.334 . S
C1745 C1746 1.287 . S
C1746 C1745 1.287 . S
C1746 C1747 1.524 . S
C1746 H1765 0.913 . S
C1747 H1723 0.950 . S
C1747 C1746 1.524 . S
C1747 C1748 1.415 . S
C1748 H1724 0.950 . S
C1748 C1743 1.363 . S
C1748 C1747 1.415 . S
C1749 H1725 0.951 . S
C1749 C1750 1.366 . S
C1749 C1751 1.388 . S
C1750 C1749 1.366 . S
C1750 C1754 1.385 . S
C1751 H1726 0.951 . S
C1751 C1749 1.388 . S
C1751 C1752 1.366 . S
C1752 C1751 1.366 . S
C1752 C1753 1.414 . S
C1752 C1755 1.499 . S
C1753 H1727 0.950 . S
C1753 C1752 1.414 . S
C1753 C1754 1.374 . S
C1754 H1728 0.950 . S
C1754 C1750 1.385 . S
C1754 C1753 1.374 . S
C1755 C1752 1.499 . S
C1755 C1756 1.373 . S
C1755 C1757 1.389 . S
C1756 H1729 0.950 . S
C1756 C1742 1.377 . S
C1756 C1755 1.373 . S
C1757 C1741 1.377 . S
C1757 C1755 1.389 . S
C1757 C1758 1.524 . S
C1758 C1757 1.524 . S
C1758 C1759 1.397 . S
C1758 C1763 1.363 . S
C1759 H1730 0.950 . S
C1759 C1758 1.397 . S
C1759 C1760 1.334 . S
C1760 H1731 0.950 . S
C1760 C1759 1.334 . S
C1760 C1761 1.287 . S
C1761 C1760 1.287 . S
C1761 C1762 1.524 . S
C1761 H1764 0.999 . S
C1762 H1732 0.950 . S
C1762 C1761 1.524 . S
C1762 C1763 1.415 . S
C1763 H1733 0.950 . S
C1763 C1758 1.363 . S
C1763 C1762 1.415 . S
H1764 C1761 0.999 . S
H1765 C1746 0.913 . S
H1766 C1784 0.951 . S
H1767 C1786 0.951 . S
H1768 C1788 0.950 . S
H1769 C1789 0.950 . S
H1770 C1791 0.950 . S
H1771 C1794 0.950 . S
H1772 C1795 0.950 . S
H1773 C1797 0.950 . S
H1774 C1798 0.950 . S
H1775 C1799 0.951 . S
H1776 C1801 0.951 . S
H1777 C1803 0.950 . S
H1778 C1804 0.950 . S
H1779 C1806 0.950 . S
H1780 C1809 0.950 . S
H1781 C1810 0.950 . S
H1782 C1812 0.950 . S
H1783 C1813 0.950 . S
C1784 H1766 0.951 . S
C1784 C1785 1.366 . S
C1784 C1786 1.388 . S
C1785 C1784 1.366 . S
C1785 C1789 1.385 . S
C1786 H1767 0.951 . S
C1786 C1784 1.388 . S
C1786 C1787 1.366 . S
C1787 C1786 1.366 . S
C1787 C1788 1.414 . S
C1787 C1790 1.499 . S
C1788 H1768 0.950 . S
C1788 C1787 1.414 . S
C1788 C1789 1.374 . S
C1789 H1769 0.950 . S
C1789 C1785 1.385 . S
C1789 C1788 1.374 . S
C1790 C1787 1.499 . S
C1790 C1791 1.373 . S
C1790 C1792 1.389 . S
C1791 H1770 0.950 . S
C1791 C1790 1.373 . S
C1791 C1807 1.377 . S
C1792 C1790 1.389 . S
C1792 C1793 1.524 . S
C1792 C1806 1.377 . S
C1793 C1792 1.524 . S
C1793 C1794 1.397 . S
C1793 C1798 1.363 . S
C1794 H1771 0.950 . S
C1794 C1793 1.397 . S
C1794 C1795 1.334 . S
C1795 H1772 0.950 . S
C1795 C1794 1.334 . S
C1795 C1796 1.287 . S
C1796 C1795 1.287 . S
C1796 C1797 1.524 . S
C1796 H1815 0.913 . S
C1797 H1773 0.950 . S
C1797 C1796 1.524 . S
C1797 C1798 1.415 . S
C1798 H1774 0.950 . S
C1798 C1793 1.363 . S
C1798 C1797 1.415 . S
C1799 H1775 0.951 . S
C1799 C1800 1.366 . S
C1799 C1801 1.388 . S
C1800 C1799 1.366 . S
C1800 C1804 1.385 . S
C1801 H1776 0.951 . S
C1801 C1799 1.388 . S
C1801 C1802 1.366 . S
C1802 C1801 1.366 . S
C1802 C1803 1.414 . S
C1802 C1805 1.499 . S
C1803 H1777 0.950 . S
C1803 C1802 1.414 . S
C1803 C1804 1.374 . S
C1804 H1778 0.950 . S
C1804 C1800 1.385 . S
C1804 C1803 1.374 . S
C1805 C1802 1.499 . S
C1805 C1806 1.373 . S
C1805 C1807 1.389 . S
C1806 H1779 0.950 . S
C1806 C1792 1.377 . S
C1806 C1805 1.373 . S
C1807 C1791 1.377 . S
C1807 C1805 1.389 . S
C1807 C1808 1.524 . S
C1808 C1807 1.524 . S
C1808 C1809 1.397 . S
C1808 C1813 1.363 . S
C1809 H1780 0.950 . S
C1809 C1808 1.397 . S
C1809 C1810 1.334 . S
C1810 H1781 0.950 . S
C1810 C1809 1.334 . S
C1810 C1811 1.287 . S
C1811 C1810 1.287 . S
C1811 C1812 1.524 . S
C1811 H1814 0.999 . S
C1812 H1782 0.950 . S
C1812 C1811 1.524 . S
C1812 C1813 1.415 . S
C1813 H1783 0.950 . S
C1813 C1808 1.363 . S
C1813 C1812 1.415 . S
H1814 C1811 0.999 . S
H1815 C1796 0.913 . S
H1816 C1834 0.951 . S
H1817 C1836 0.951 . S
H1818 C1838 0.950 . S
H1819 C1839 0.950 . S
H1820 C1841 0.950 . S
H1821 C1844 0.950 . S
H1822 C1845 0.950 . S
H1823 C1847 0.950 . S
H1824 C1848 0.950 . S
H1825 C1849 0.928 1_455 S
H1826 C1851 0.951 . S
H1827 C1853 0.950 . S
H1828 C1854 0.950 . S
H1829 C1856 0.950 . S
H1830 C1859 0.950 . S
H1831 C1860 0.950 . S
H1832 C1862 0.950 . S
H1833 C1863 0.950 . S
C1834 H1816 0.951 . S
C1834 C1835 1.366 . S
C1834 C1836 1.388 . S
C1835 C1834 1.366 . S
C1835 C1839 1.385 . S
C1836 H1817 0.951 . S
C1836 C1834 1.388 . S
C1836 C1837 1.366 . S
C1837 C1836 1.366 . S
C1837 C1838 1.414 . S
C1837 C1840 1.499 . S
C1838 H1818 0.950 . S
C1838 C1837 1.414 . S
C1838 C1839 1.374 . S
C1839 H1819 0.950 . S
C1839 C1835 1.385 . S
C1839 C1838 1.374 . S
C1840 C1837 1.499 . S
C1840 C1841 1.373 . S
C1840 C1842 1.389 . S
C1841 H1820 0.950 . S
C1841 C1840 1.373 . S
C1841 C1857 1.377 . S
C1842 C1840 1.389 . S
C1842 C1843 1.524 . S
C1842 C1856 1.377 . S
C1843 C1842 1.524 . S
C1843 C1844 1.397 . S
C1843 C1848 1.363 . S
C1844 H1821 0.950 . S
C1844 C1843 1.397 . S
C1844 C1845 1.334 . S
C1845 H1822 0.950 . S
C1845 C1844 1.334 . S
C1845 C1846 1.287 . S
C1846 C1845 1.287 . S
C1846 C1847 1.524 . S
C1846 H1865 0.913 . S
C1847 H1823 0.950 . S
C1847 C1846 1.524 . S
C1847 C1848 1.415 . S
C1848 H1824 0.950 . S
C1848 C1843 1.363 . S
C1848 C1847 1.415 . S
C1849 H1825 0.928 1_655 S
C1849 C1850 1.366 . S
C1849 C1851 1.388 . S
C1850 C1849 1.366 . S
C1850 C1854 1.385 . S
C1851 H1826 0.951 . S
C1851 C1849 1.388 . S
C1851 C1852 1.366 . S
C1852 C1851 1.366 . S
C1852 C1853 1.414 . S
C1852 C1855 1.499 . S
C1853 H1827 0.950 . S
C1853 C1852 1.414 . S
C1853 C1854 1.374 . S
C1854 H1828 0.950 . S
C1854 C1850 1.385 . S
C1854 C1853 1.374 . S
C1855 C1852 1.499 . S
C1855 C1856 1.373 . S
C1855 C1857 1.389 . S
C1856 H1829 0.950 . S
C1856 C1842 1.377 . S
C1856 C1855 1.373 . S
C1857 C1841 1.377 . S
C1857 C1855 1.389 . S
C1857 C1858 1.524 . S
C1858 C1857 1.524 . S
C1858 C1859 1.397 . S
C1858 C1863 1.363 . S
C1859 H1830 0.950 . S
C1859 C1858 1.397 . S
C1859 C1860 1.334 . S
C1860 H1831 0.950 . S
C1860 C1859 1.334 . S
C1860 C1861 1.287 . S
C1861 C1860 1.287 . S
C1861 C1862 1.524 . S
C1861 H1864 0.999 . S
C1862 H1832 0.950 . S
C1862 C1861 1.524 . S
C1862 C1863 1.415 . S
C1863 H1833 0.950 . S
C1863 C1858 1.363 . S
C1863 C1862 1.415 . S
H1864 C1861 0.999 . S
H1865 C1846 0.913 . S
H1866 C1884 0.951 . S
H1867 C1886 0.951 . S
H1868 C1888 0.950 . S
H1869 C1889 0.950 . S
H1870 C1891 0.950 . S
H1871 C1894 0.950 . S
H1872 C1895 0.950 . S
H1873 C1897 0.950 . S
H1874 C1898 0.950 . S
H1875 C1899 0.951 . S
H1876 C1901 0.951 . S
H1877 C1903 0.950 . S
H1878 C1904 0.950 1_545 S
H1879 C1906 0.950 . S
H1880 C1909 0.950 . S
H1881 C1910 0.950 1_545 S
H1882 C1912 0.950 . S
H1883 C1913 0.950 . S
C1884 H1866 0.951 . S
C1884 C1885 1.366 . S
C1884 C1886 1.388 . S
C1885 C1884 1.366 . S
C1885 C1889 1.385 . S
C1886 H1867 0.951 . S
C1886 C1884 1.388 . S
C1886 C1887 1.366 . S
C1887 C1886 1.366 . S
C1887 C1888 1.414 . S
C1887 C1890 1.499 . S
C1888 H1868 0.950 . S
C1888 C1887 1.414 . S
C1888 C1889 1.374 . S
C1889 H1869 0.950 . S
C1889 C1885 1.385 . S
C1889 C1888 1.374 . S
C1890 C1887 1.499 . S
C1890 C1891 1.373 . S
C1890 C1892 1.389 . S
C1891 H1870 0.950 . S
C1891 C1890 1.373 . S
C1891 C1907 1.377 . S
C1892 C1890 1.389 . S
C1892 C1893 1.524 . S
C1892 C1906 1.377 . S
C1893 C1892 1.524 . S
C1893 C1894 1.397 . S
C1893 C1898 1.363 . S
C1894 H1871 0.950 . S
C1894 C1893 1.397 . S
C1894 C1895 1.334 . S
C1895 H1872 0.950 . S
C1895 C1894 1.334 . S
C1895 C1896 1.287 . S
C1896 C1895 1.287 . S
C1896 C1897 1.524 . S
C1896 H1915 0.913 . S
C1897 H1873 0.950 . S
C1897 C1896 1.524 . S
C1897 C1898 1.415 . S
C1898 H1874 0.950 . S
C1898 C1893 1.363 . S
C1898 C1897 1.415 . S
C1899 H1875 0.951 . S
C1899 C1900 1.366 . S
C1899 C1901 1.388 . S
C1900 C1899 1.366 . S
C1900 C1904 1.385 . S
C1901 H1876 0.951 . S
C1901 C1899 1.388 . S
C1901 C1902 1.366 . S
C1902 C1901 1.366 . S
C1902 C1903 1.414 . S
C1902 C1905 1.499 . S
C1903 H1877 0.950 . S
C1903 C1902 1.414 . S
C1903 C1904 1.374 . S
C1904 H1878 0.950 1_565 S
C1904 C1900 1.385 . S
C1904 C1903 1.374 . S
C1905 C1902 1.499 . S
C1905 C1906 1.373 . S
C1905 C1907 1.389 . S
C1906 H1879 0.950 . S
C1906 C1892 1.377 . S
C1906 C1905 1.373 . S
C1907 C1891 1.377 . S
C1907 C1905 1.389 . S
C1907 C1908 1.524 . S
C1908 C1907 1.524 . S
C1908 C1909 1.397 . S
C1908 C1913 1.363 . S
C1909 H1880 0.950 . S
C1909 C1908 1.397 . S
C1909 C1910 1.334 . S
C1910 H1881 0.950 1_565 S
C1910 C1909 1.334 . S
C1910 C1911 1.287 . S
C1911 C1910 1.287 . S
C1911 C1912 1.524 . S
C1911 H1914 0.999 . S
C1912 H1882 0.950 . S
C1912 C1911 1.524 . S
C1912 C1913 1.415 . S
C1913 H1883 0.950 . S
C1913 C1908 1.363 . S
C1913 C1912 1.415 . S
H1914 C1911 0.999 . S
H1915 C1896 0.913 . S
H1916 C1934 0.951 . S
H1917 C1936 0.951 . S
H1918 C1938 0.950 . S
H1919 C1939 0.950 . S
H1920 C1941 0.950 . S
H1921 C1944 0.950 . S
H1922 C1945 0.950 . S
H1923 C1947 0.950 . S
H1924 C1948 0.950 . S
H1925 C1949 0.951 . S
H1926 C1951 0.951 . S
H1927 C1953 0.950 . S
H1928 C1954 0.950 . S
H1929 C1956 0.950 . S
H1930 C1959 0.950 . S
H1931 C1960 0.950 . S
H1932 C1962 0.950 . S
H1933 C1963 0.950 . S
C1934 H1916 0.951 . S
C1934 C1935 1.366 . S
C1934 C1936 1.388 . S
C1935 C1934 1.366 . S
C1935 C1939 1.385 . S
C1936 H1917 0.951 . S
C1936 C1934 1.388 . S
C1936 C1937 1.366 . S
C1937 C1936 1.366 . S
C1937 C1938 1.414 . S
C1937 C1940 1.499 . S
C1938 H1918 0.950 . S
C1938 C1937 1.414 . S
C1938 C1939 1.374 . S
C1939 H1919 0.950 . S
C1939 C1935 1.385 . S
C1939 C1938 1.374 . S
C1940 C1937 1.499 . S
C1940 C1941 1.373 . S
C1940 C1942 1.389 . S
C1941 H1920 0.950 . S
C1941 C1940 1.373 . S
C1941 C1957 1.377 . S
C1942 C1940 1.389 . S
C1942 C1943 1.524 . S
C1942 C1956 1.377 . S
C1943 C1942 1.524 . S
C1943 C1944 1.397 . S
C1943 C1948 1.363 . S
C1944 H1921 0.950 . S
C1944 C1943 1.397 . S
C1944 C1945 1.334 . S
C1945 H1922 0.950 . S
C1945 C1944 1.334 . S
C1945 C1946 1.287 . S
C1946 C1945 1.287 . S
C1946 C1947 1.524 . S
C1946 H1965 0.913 . S
C1947 H1923 0.950 . S
C1947 C1946 1.524 . S
C1947 C1948 1.415 . S
C1948 H1924 0.950 . S
C1948 C1943 1.363 . S
C1948 C1947 1.415 . S
C1949 H1925 0.951 . S
C1949 C1950 1.366 . S
C1949 C1951 1.388 . S
C1950 C1949 1.366 . S
C1950 C1954 1.385 . S
C1951 H1926 0.951 . S
C1951 C1949 1.388 . S
C1951 C1952 1.366 . S
C1952 C1951 1.366 . S
C1952 C1953 1.414 . S
C1952 C1955 1.499 . S
C1953 H1927 0.950 . S
C1953 C1952 1.414 . S
C1953 C1954 1.374 . S
C1954 H1928 0.950 . S
C1954 C1950 1.385 . S
C1954 C1953 1.374 . S
C1955 C1952 1.499 . S
C1955 C1956 1.373 . S
C1955 C1957 1.389 . S
C1956 H1929 0.950 . S
C1956 C1942 1.377 . S
C1956 C1955 1.373 . S
C1957 C1941 1.377 . S
C1957 C1955 1.389 . S
C1957 C1958 1.524 . S
C1958 C1957 1.524 . S
C1958 C1959 1.397 . S
C1958 C1963 1.363 . S
C1959 H1930 0.950 . S
C1959 C1958 1.397 . S
C1959 C1960 1.334 . S
C1960 H1931 0.950 . S
C1960 C1959 1.334 . S
C1960 C1961 1.287 . S
C1961 C1960 1.287 . S
C1961 C1962 1.524 . S
C1961 H1964 0.999 . S
C1962 H1932 0.950 . S
C1962 C1961 1.524 . S
C1962 C1963 1.415 . S
C1963 H1933 0.950 . S
C1963 C1958 1.363 . S
C1963 C1962 1.415 . S
H1964 C1961 0.999 . S
H1965 C1946 0.913 . S
H1966 C1984 0.951 . S
H1967 C1986 0.951 . S
H1968 C1988 0.950 . S
H1969 C1989 0.950 . S
H1970 C1991 0.950 . S
H1971 C1994 0.950 . S
H1972 C1995 0.950 . S
H1973 C1997 0.950 . S
H1974 C1998 0.950 . S
H1975 C1999 0.951 . S
H1976 C2001 0.951 . S
H1977 C2003 0.950 . S
H1978 C2004 0.950 . S
H1979 C2006 0.950 . S
H1980 C2009 0.950 . S
H1981 C2010 0.950 . S
H1982 C2012 0.950 . S
H1983 C2013 0.950 . S
C1984 H1966 0.951 . S
C1984 C1985 1.366 . S
C1984 C1986 1.388 . S
C1985 C1984 1.366 . S
C1985 C1989 1.385 . S
C1986 H1967 0.951 . S
C1986 C1984 1.388 . S
C1986 C1987 1.366 . S
C1987 C1986 1.366 . S
C1987 C1988 1.414 . S
C1987 C1990 1.499 . S
C1988 H1968 0.950 . S
C1988 C1987 1.414 . S
C1988 C1989 1.374 . S
C1989 H1969 0.950 . S
C1989 C1985 1.385 . S
C1989 C1988 1.374 . S
C1990 C1987 1.499 . S
C1990 C1991 1.373 . S
C1990 C1992 1.389 . S
C1991 H1970 0.950 . S
C1991 C1990 1.373 . S
C1991 C2007 1.377 . S
C1992 C1990 1.389 . S
C1992 C1993 1.524 . S
C1992 C2006 1.377 . S
C1993 C1992 1.524 . S
C1993 C1994 1.397 . S
C1993 C1998 1.363 . S
C1994 H1971 0.950 . S
C1994 C1993 1.397 . S
C1994 C1995 1.334 . S
C1995 H1972 0.950 . S
C1995 C1994 1.334 . S
C1995 C1996 1.287 . S
C1996 C1995 1.287 . S
C1996 C1997 1.524 . S
C1996 H2015 0.913 . S
C1997 H1973 0.950 . S
C1997 C1996 1.524 . S
C1997 C1998 1.415 . S
C1998 H1974 0.950 . S
C1998 C1993 1.363 . S
C1998 C1997 1.415 . S
C1999 H1975 0.951 . S
C1999 C2000 1.366 . S
C1999 C2001 1.388 . S
C2000 C1999 1.366 . S
C2000 C2004 1.385 . S
C2001 H1976 0.951 . S
C2001 C1999 1.388 . S
C2001 C2002 1.366 . S
C2002 C2001 1.366 . S
C2002 C2003 1.414 . S
C2002 C2005 1.499 . S
C2003 H1977 0.950 . S
C2003 C2002 1.414 . S
C2003 C2004 1.374 . S
C2004 H1978 0.950 . S
C2004 C2000 1.385 . S
C2004 C2003 1.374 . S
C2005 C2002 1.499 . S
C2005 C2006 1.373 . S
C2005 C2007 1.389 . S
C2006 H1979 0.950 . S
C2006 C1992 1.377 . S
C2006 C2005 1.373 . S
C2007 C1991 1.377 . S
C2007 C2005 1.389 . S
C2007 C2008 1.524 . S
C2008 C2007 1.524 . S
C2008 C2009 1.397 . S
C2008 C2013 1.363 . S
C2009 H1980 0.950 . S
C2009 C2008 1.397 . S
C2009 C2010 1.334 . S
C2010 H1981 0.950 . S
C2010 C2009 1.334 . S
C2010 C2011 1.287 . S
C2011 C2010 1.287 . S
C2011 C2012 1.524 . S
C2011 H2014 0.999 . S
C2012 H1982 0.950 . S
C2012 C2011 1.524 . S
C2012 C2013 1.415 . S
C2013 H1983 0.950 . S
C2013 C2008 1.363 . S
C2013 C2012 1.415 . S
H2014 C2011 0.999 . S
H2015 C1996 0.913 . S
C835 C391 2.155 . S
C850 C554 2.106 . S
C900 C638 2.143 . S
C885 C451 2.189 . S
C950 C704 2.116 . S
C935 C241 2.055 . S
C1000 C788 2.090 . S
C985 C331 2.029 . S
C1050 C543 2.105 1_565 S
C1035 C121 1.947 . S
C1085 C211 2.129 . S
C1100 C627 2.144 . S
C1135 C31 2.265 . S
C1150 C715 2.116 . S
C1185 C91 2.097 . S
C1200 C799 2.090 . S
C1250 C550 0.426 1_455 S
C1235 C301 0.580 . S
C1300 C634 0.405 1_545 S
C1285 C380 0.316 . S
C1350 C706 0.447 . S
C1335 C440 0.285 . S
C1385 C260 0.596 . S
C1400 C790 0.449 . S
C1435 C61 0.472 . S
C1450 C538 0.428 . S
C1500 C622 0.405 . S
C1485 C140 0.443 . S
C1550 C718 0.443 . S
C1535 C200 0.478 . S
C1585 C20 0.497 . S
C1600 C802 0.452 . S
C1635 C320 2.685 . S
C1650 C547 2.706 . S
C1685 C361 2.383 . S
C1700 C631 2.656 . S
C1750 C711 2.654 . S
C1735 C421 2.255 . S
C1800 C795 2.697 . S
C1785 C271 2.539 . S
C1835 C80 2.743 . S
C1850 C536 2.706 . S
C1900 C620 2.655 . S
C1885 C151 2.691 . S
C1950 C722 2.655 . S
C1935 C181 2.192 . S
C1985 C1 2.230 . S
C2000 C806 2.698 . S
