# Generated by pormake.
# Topology tsx, (6,3)-cn, num edge types: 1
# Building blocks:
#     Node 0, Type 0, BuildingBlock: VOLQOD_clean_sbu_1, # of connection points: 6
#     Node 1, Type 0, BuildingBlock: VOLQOD_clean_sbu_1, # of connection points: 6
#     Node 2, Type 1, BuildingBlock: BETDIP_clean_linker_0, # of connection points: 3
#     Node 3, Type 1, BuildingBlock: BETDIP_clean_linker_0, # of connection points: 3
#     Node 4, Type 1, BuildingBlock: BETDIP_clean_linker_0, # of connection points: 3
#     Node 5, Type 1, BuildingBlock: BETDIP_clean_linker_0, # of connection points: 3
#     Edge 6, Type (0, 1), BuildingBlock: KIFKEQ_clean_linker_1, # of connection points: 2
#     Edge 7, Type (0, 1), BuildingBlock: KIFKEQ_clean_linker_1, # of connection points: 2
#     Edge 8, Type (0, 1), BuildingBlock: KIFKEQ_clean_linker_1, # of connection points: 2
#     Edge 9, Type (0, 1), BuildingBlock: KIFKEQ_clean_linker_1, # of connection points: 2
#     Edge 10, Type (0, 1), BuildingBlock: KIFKEQ_clean_linker_1, # of connection points: 2
#     Edge 11, Type (0, 1), BuildingBlock: KIFKEQ_clean_linker_1, # of connection points: 2
#     Edge 12, Type (0, 1), BuildingBlock: KIFKEQ_clean_linker_1, # of connection points: 2
#     Edge 13, Type (0, 1), BuildingBlock: KIFKEQ_clean_linker_1, # of connection points: 2
#     Edge 14, Type (0, 1), BuildingBlock: KIFKEQ_clean_linker_1, # of connection points: 2
#     Edge 15, Type (0, 1), BuildingBlock: KIFKEQ_clean_linker_1, # of connection points: 2
#     Edge 16, Type (0, 1), BuildingBlock: KIFKEQ_clean_linker_1, # of connection points: 2
#     Edge 17, Type (0, 1), BuildingBlock: KIFKEQ_clean_linker_1, # of connection points: 2
# Relax obj value: 0.057
# Max RMSD: 0.118
# Mean RMSD: 0.105
data_MOF--net-tsx--node1-VOLQOD_clean_sbu_1--node2-BETDIP_clean_linker_0--edge1-KIFKEQ_clean_linker_1
_symmetry_space_group_name_H-M    P1
_symmetry_Int_Tables_number       1
_symmetry_cell_setting            triclinic
loop_
_symmetry_equiv_pos_as_xyz
'x, y, z'
_cell_length_a     21.595447
_cell_length_b     22.314228
_cell_length_c     38.297844
_cell_angle_alpha  90.358149
_cell_angle_beta   98.735922
_cell_angle_gamma 90.417167
loop_
_atom_site_label
_atom_site_type_symbol
_atom_site_fract_x
_atom_site_fract_y
_atom_site_fract_z
_atom_type_partial_charge
O0 O 0.05496 0.99384 0.08957 0.0
Zn1 Zn 0.0744 -6e-05 0.03963 0.0
O2 O -0.00337 0.00334 0.00584 0.0
Zn3 Zn 0.98917 0.93129 0.97607 0.0
Zn4 Zn 0.92389 0.00791 0.03063 0.0
Zn5 Zn -0.00106 0.07438 0.97658 0.0
O6 O 0.97856 0.95333 0.92454 0.0
O7 O 0.99543 0.05173 0.92539 0.0
O8 O 0.12792 0.93024 0.02888 0.0
O9 O 0.06762 0.88193 0.98539 0.0
O10 O 0.91601 0.87936 0.9843 0.0
O11 O 0.86801 0.93501 0.02014 0.0
O12 O 0.87166 0.08145 0.01703 0.0
O13 O 0.12727 0.0746 0.03701 0.0
O14 O 0.92615 0.12807 0.98047 0.0
O15 O 0.07599 0.12429 0.99171 0.0
C16 C 0.00474 0.00155 0.10274 0.0
C17 C 0.98491 0.00239 0.90856 0.0
C18 C 0.87129 0.88741 0.00197 0.0
C19 C 0.11884 0.8872 0.00662 0.0
C20 C 0.87951 0.12548 0.99712 0.0
C21 C 0.1223 0.11941 0.01633 0.0
O22 O 0.95229 0.01011 0.08324 0.0
O23 O 0.5705 0.50291 0.58788 0.0
Zn24 Zn 0.5858 0.50435 0.53685 0.0
O25 O 0.50651 0.51051 0.50419 0.0
Zn26 Zn 0.49456 0.43924 0.4739 0.0
Zn27 Zn 0.43702 0.5168 0.53107 0.0
Zn28 Zn 0.50747 0.58172 0.47472 0.0
O29 O 0.48699 0.46109 0.42251 0.0
O30 O 0.4994 0.55998 0.42304 0.0
O31 O 0.63439 0.43062 0.52635 0.0
O32 O 0.56989 0.38674 0.48289 0.0
O33 O 0.41852 0.39076 0.48184 0.0
O34 O 0.37955 0.44561 0.52177 0.0
O35 O 0.38515 0.59013 0.51833 0.0
O36 O 0.64121 0.57617 0.53141 0.0
O37 O 0.43665 0.63702 0.48049 0.0
O38 O 0.58721 0.62846 0.48806 0.0
C39 C 0.52156 0.51228 0.60199 0.0
C40 C 0.49105 0.51033 0.40636 0.0
C41 C 0.37732 0.39953 0.50183 0.0
C42 C 0.62169 0.38839 0.50377 0.0
C43 C 0.39149 0.63426 0.49826 0.0
C44 C 0.63581 0.62129 0.51094 0.0
O45 O 0.46834 0.52025 0.58324 0.0
H46 H 0.05079 0.9892 0.4709 0.0
H47 H 0.96668 0.06683 0.37277 0.0
H48 H 0.08956 0.916 0.3727 0.0
H49 H 0.97884 0.15195 0.40737 0.0
C50 C 0.96159 0.13558 0.43081 0.0
C51 C 0.0442 0.98992 0.4423 0.0
C52 C 0.07309 0.94671 0.4237 0.0
C53 C 0.00726 0.0344 0.42417 0.0
C54 C -0.00218 0.03444 0.38693 0.0
C55 C 0.02707 0.99177 0.36785 0.0
C56 C 0.06479 0.94811 0.38668 0.0
N57 N 0.97891 0.07773 0.44388 0.0
H58 H 0.97825 0.98684 0.54267 0.0
H59 H 0.04305 0.06668 0.64458 0.0
H60 H 0.91156 0.91981 0.63507 0.0
H61 H 0.04155 0.05167 0.52195 0.0
C62 C 0.06432 0.08113 0.54264 0.0
C63 C 0.9788 0.98901 0.57092 0.0
C64 C 0.94113 0.94885 0.5866 0.0
C65 C 0.01555 0.03198 0.59201 0.0
C66 C 0.01433 0.0338 0.62845 0.0
C67 C 0.97756 0.9932 0.64431 0.0
C68 C 0.94094 0.95088 0.62316 0.0
N69 N 0.05431 0.07462 0.57823 0.0
H70 H 0.54696 0.48839 0.96895 0.0
H71 H 0.48038 0.58112 0.8724 0.0
H72 H 0.60334 0.43092 0.87109 0.0
H73 H 0.48799 0.66133 0.91512 0.0
C74 C 0.46181 0.63853 0.93328 0.0
C75 C 0.54592 0.49374 0.94075 0.0
C76 C 0.57931 0.45423 0.92206 0.0
C77 C 0.51081 0.54008 0.92316 0.0
C78 C 0.50857 0.54635 0.88641 0.0
C79 C 0.54222 0.50728 0.86752 0.0
C80 C 0.57752 0.46144 0.88556 0.0
N81 N 0.47607 0.57818 0.94266 0.0
H82 H 0.47886 0.46768 0.04197 0.0
H83 H 0.56679 0.54603 0.14019 0.0
H84 H 0.40264 0.435 0.13768 0.0
H85 H 0.50926 0.56931 0.02497 0.0
C86 C 0.5574 0.56928 0.03836 0.0
C87 C 0.48002 0.47503 0.07006 0.0
C88 C 0.43521 0.44704 0.08763 0.0
C89 C 0.52689 0.5117 0.089 0.0
C90 C 0.52999 0.51848 0.12561 0.0
C91 C 0.48439 0.4921 0.14319 0.0
C92 C 0.43684 0.45695 0.12397 0.0
N93 N 0.57171 0.54223 0.07205 0.0
H94 H 0.11121 0.23398 0.99167 0.0
H95 H 0.24116 0.1146 0.05309 0.0
H96 H 0.18759 0.31573 0.00318 0.0
H97 H 0.31771 0.19645 0.06414 0.0
H98 H 0.45811 0.34701 0.05088 0.0
H99 H 0.38307 0.2673 0.02893 0.0
H100 H 0.23346 0.37056 0.0618 0.0
H101 H 0.30856 0.44961 0.08416 0.0
C102 C 0.15629 0.22498 0.00728 0.0
C103 C 0.17004 0.16786 0.02164 0.0
C104 C 0.19985 0.27183 0.0139 0.0
C105 C 0.25843 0.26225 0.03445 0.0
C106 C 0.27303 0.20479 0.04791 0.0
C107 C 0.22906 0.15814 0.04181 0.0
C108 C 0.40894 0.35303 0.05265 0.0
C109 C 0.38883 0.4042 0.06911 0.0
C110 C 0.36625 0.30739 0.0404 0.0
C111 C 0.30268 0.31281 0.04386 0.0
C112 C 0.28215 0.36548 0.05863 0.0
C113 C 0.32497 0.41055 0.07145 0.0
H114 H 0.1108 0.7766 0.97509 0.0
H115 H 0.24405 0.90401 0.0294 0.0
H116 H 0.19703 0.71366 0.96261 0.0
H117 H 0.33016 0.84118 0.01647 0.0
H118 H 0.44587 0.7585 0.93267 0.0
H119 H 0.36529 0.81576 0.9564 0.0
H120 H 0.29108 0.65213 0.99387 0.0
H121 H 0.37238 0.59488 0.97058 0.0
C122 C 0.15843 0.79077 0.98477 0.0
C123 C 0.17058 0.84546 0.00307 0.0
C124 C 0.20774 0.75459 0.97777 0.0
C125 C 0.27017 0.77279 0.98842 0.0
C126 C 0.2824 0.82637 0.00778 0.0
C127 C 0.23308 0.8621 0.01531 0.0
C128 C 0.41269 0.73495 0.94631 0.0
C129 C 0.4151 0.67244 0.94968 0.0
C130 C 0.36691 0.76766 0.96005 0.0
C131 C 0.32203 0.73831 0.97696 0.0
C132 C 0.32502 0.67576 0.98083 0.0
C133 C 0.37157 0.64311 0.96759 0.0
H134 H 0.877 0.77007 0.98143 0.0
H135 H 0.75659 0.89708 0.02331 0.0
H136 H 0.79981 0.69058 0.98518 0.0
H137 H 0.67957 0.81766 0.0268 0.0
H138 H 0.53192 0.67096 0.00089 0.0
H139 H 0.6065 0.74708 0.98687 0.0
H140 H 0.75972 0.6394 0.03705 0.0
H141 H 0.68498 0.56333 0.05074 0.0
C142 C 0.83387 0.78119 0.9911 0.0
C143 C 0.82309 0.83988 0.00224 0.0
C144 C 0.78986 0.73561 0.99335 0.0
C145 C 0.73375 0.748 0.00625 0.0
C146 C 0.72216 0.80696 0.01642 0.0
C147 C 0.76649 0.85233 0.01466 0.0
C148 C 0.58159 0.6631 0.00807 0.0
C149 C 0.60286 0.6115 0.02673 0.0
C150 C 0.62418 0.70681 0.00044 0.0
C151 C 0.68886 0.69922 0.01102 0.0
C152 C 0.71017 0.64624 0.02837 0.0
C153 C 0.66749 0.60294 0.03639 0.0
H154 H 0.89972 0.24108 0.97941 0.0
H155 H 0.75552 0.12072 0.00465 0.0
H156 H 0.82279 0.32095 0.96802 0.0
H157 H 0.67814 0.20078 0.99247 0.0
H158 H 0.56863 0.33528 0.907 0.0
H159 H 0.63873 0.25538 0.93175 0.0
H160 H 0.7458 0.38364 0.00168 0.0
H161 H 0.67461 0.46354 0.97733 0.0
C162 C 0.85165 0.23183 0.98274 0.0
C163 C 0.83349 0.17458 0.9927 0.0
C164 C 0.80782 0.27767 0.97651 0.0
C165 C 0.74473 0.2669 0.97947 0.0
C166 C 0.72661 0.21006 0.99006 0.0
C167 C 0.77081 0.16444 0.99705 0.0
C168 C 0.60648 0.346 0.92813 0.0
C169 C 0.61666 0.40528 0.94024 0.0
C170 C 0.64626 0.3004 0.94238 0.0
C171 C 0.69758 0.31355 0.96851 0.0
C172 C 0.70653 0.37254 0.98149 0.0
C173 C 0.66589 0.41802 0.96771 0.0
H174 H 0.75203 0.61719 0.55113 0.0
H175 H 0.63226 0.73116 0.47954 0.0
H176 H 0.82965 0.69786 0.56157 0.0
H177 H 0.71007 0.81149 0.49002 0.0
H178 H 0.97475 0.8444 0.55805 0.0
H179 H 0.90397 0.76318 0.53286 0.0
H180 H 0.74475 0.87374 0.54439 0.0
H181 H 0.81552 0.95411 0.56955 0.0
C182 C 0.74254 0.65912 0.53729 0.0
C183 C 0.6856 0.66791 0.51481 0.0
C184 C 0.78727 0.70512 0.54305 0.0
C185 C 0.77575 0.76095 0.52666 0.0
C186 C 0.71992 0.76901 0.50318 0.0
C187 C 0.67544 0.72291 0.49717 0.0
C188 C 0.9246 0.85147 0.55421 0.0
C189 C 0.90009 0.90508 0.56535 0.0
C190 C 0.88423 0.80511 0.54014 0.0
C191 C 0.81892 0.81216 0.53678 0.0
C192 C 0.79481 0.86726 0.54626 0.0
C193 C 0.8351 0.91317 0.56066 0.0
H194 H 0.61778 0.30633 0.45052 0.0
H195 H 0.73591 0.3701 0.54507 0.0
H196 H 0.70242 0.24341 0.43676 0.0
H197 H 0.82063 0.3055 0.53118 0.0
H198 H 0.9211 0.12302 0.49529 0.0
H199 H 0.83872 0.18126 0.51749 0.0
H200 H 0.81545 0.28656 0.42234 0.0
H201 H 0.89812 0.22966 0.40053 0.0
C202 C 0.66131 0.30619 0.46877 0.0
C203 C 0.6702 0.34383 0.49876 0.0
C204 C 0.70977 0.27021 0.46076 0.0
C205 C 0.76785 0.27022 0.48279 0.0
C206 C 0.77601 0.30489 0.51388 0.0
C207 C 0.72764 0.34182 0.5217 0.0
C208 C 0.89858 0.15892 0.47932 0.0
C209 C 0.91533 0.17176 0.44606 0.0
C210 C 0.85185 0.1922 0.49207 0.0
C211 C 0.82073 0.23778 0.47139 0.0
C212 C 0.83856 0.25123 0.43857 0.0
C213 C 0.88582 0.21888 0.42618 0.0
H214 H 0.27423 0.41073 0.53443 0.0
H215 H 0.36558 0.28702 0.47182 0.0
H216 H 0.19515 0.33526 0.5406 0.0
H217 H 0.28662 0.21069 0.47875 0.0
H218 H 0.10207 0.10304 0.479 0.0
H219 H 0.17398 0.18192 0.46504 0.0
H220 H 0.19728 0.24295 0.57358 0.0
H221 H 0.12515 0.16609 0.58712 0.0
C222 C 0.27744 0.36745 0.5219 0.0
C223 C 0.32677 0.3547 0.50301 0.0
C224 C 0.23214 0.32409 0.52555 0.0
C225 C 0.23514 0.26671 0.5106 0.0
C226 C 0.2829 0.25458 0.49044 0.0
C227 C 0.32829 0.29821 0.48665 0.0
C228 C 0.12231 0.13373 0.49966 0.0
C229 C 0.10763 0.12855 0.534 0.0
C230 C 0.16372 0.17856 0.49178 0.0
C231 C 0.19088 0.21901 0.51815 0.0
C232 C 0.17622 0.21335 0.55248 0.0
C233 C 0.13509 0.16882 0.5603 0.0
H234 H 0.27112 0.62838 0.51207 0.0
H235 H 0.40526 0.74849 0.47562 0.0
H236 H 0.19057 0.70538 0.50065 0.0
H237 H 0.32494 0.82543 0.46478 0.0
H238 H 0.06444 0.82601 0.41498 0.0
H239 H 0.14047 0.75116 0.44002 0.0
H240 H 0.25179 0.89036 0.49873 0.0
H241 H 0.17494 0.96526 0.47401 0.0
C242 C 0.28364 0.67147 0.50216 0.0
C243 C 0.34433 0.6823 0.49446 0.0
C244 C 0.23757 0.71535 0.49561 0.0
C245 C 0.25177 0.77116 0.48194 0.0
C246 C 0.31306 0.78291 0.47566 0.0
C247 C 0.3588 0.73873 0.48159 0.0
C248 C 0.10459 0.84025 0.43377 0.0
C249 C 0.11427 0.9011 0.44256 0.0
C250 C 0.14779 0.79757 0.4482 0.0
C251 C 0.2019 0.81521 0.47116 0.0
C252 C 0.21043 0.87584 0.48098 0.0
C253 C 0.16654 0.91846 0.46703 0.0
H254 H 0.92319 0.05344 0.14151 0.0
H255 H 0.09163 0.94753 0.15159 0.0
H256 H 0.92692 0.05174 0.20568 0.0
H257 H 0.09432 0.9449 0.2157 0.0
H258 H 0.02067 0.8967 0.32133 0.0
H259 H 0.01629 0.89981 0.25738 0.0
H260 H 0.0092 0.09281 0.26051 0.0
H261 H 0.01718 0.09053 0.32474 0.0
C262 C 0.96083 0.02963 0.1574 0.0
C263 C 0.00714 0.0006 0.14153 0.0
C264 C 0.96303 0.02892 0.19406 0.0
C265 C 0.01079 -0.00191 0.21545 0.0
C266 C 0.05684 0.96869 0.19966 0.0
C267 C 0.05543 0.97046 0.16306 0.0
C268 C 0.0191 0.93998 0.30862 0.0
C269 C 0.01983 0.99341 0.32849 0.0
C270 C 0.01623 0.94159 0.27195 0.0
C271 C 0.01264 0.99651 0.2542 0.0
C272 C 0.01156 0.04987 0.27367 0.0
C273 C 0.01568 0.0484 0.31045 0.0
H274 H 0.93521 0.91516 0.86196 0.0
H275 H 0.02706 0.08836 0.86731 0.0
H276 H 0.93077 0.91383 0.79806 0.0
H277 H 0.02531 0.08594 0.80369 0.0
H278 H 0.96142 0.09044 0.68532 0.0
H279 H 0.96005 0.09316 0.74888 0.0
H280 H 0.9945 0.90242 0.75385 0.0
H281 H 0.99326 0.8998 0.69012 0.0
C282 C 0.95482 0.95279 0.84949 0.0
C283 C 0.98143 0.00187 0.86969 0.0
C284 C 0.95268 0.95189 0.81285 0.0
C285 C 0.9779 -0.00032 0.79558 0.0
C286 C 0.00442 0.04881 0.81589 0.0
C287 C 0.00576 0.05007 0.85246 0.0
C288 C 0.96876 0.04924 0.70014 0.0
C289 C 0.97738 0.99492 0.68292 0.0
C290 C 0.96824 0.05072 0.73657 0.0
C291 C 0.97724 -0.00199 0.75665 0.0
C292 C 0.98618 0.94371 0.73925 0.0
C293 C 0.98582 0.94215 0.70277 0.0
H294 H 0.61184 0.46325 0.65124 0.0
H295 H 0.44164 0.56626 0.64082 0.0
H296 H 0.61674 0.46378 0.7152 0.0
H297 H 0.44812 0.56985 0.7047 0.0
H298 H 0.4385 0.51105 0.81732 0.0
H299 H 0.43423 0.51288 0.75336 0.0
H300 H 0.63677 0.52059 0.76686 0.0
H301 H 0.64037 0.51549 0.83074 0.0
C302 C 0.5759 0.48666 0.66268 0.0
C303 C 0.52618 0.51436 0.64096 0.0
C304 C 0.57886 0.48739 0.69944 0.0
C305 C 0.53276 0.51682 0.71543 0.0
C306 C 0.48374 0.54554 0.69354 0.0
C307 C 0.48019 0.54384 0.65681 0.0
C308 C 0.48193 0.51354 0.80646 0.0
C309 C 0.53971 0.51303 0.82883 0.0
C310 C 0.47966 0.51487 0.76978 0.0
C311 C 0.5352 0.51679 0.75463 0.0
C312 C 0.59301 0.51777 0.77732 0.0
C313 C 0.5952 0.51535 0.81395 0.0
H314 H 0.51708 0.41661 0.36511 0.0
H315 H 0.46049 0.60213 0.36005 0.0
H316 H 0.51725 0.41583 0.30131 0.0
H317 H 0.45949 0.60067 0.29597 0.0
H318 H 0.39164 0.53173 0.17811 0.0
H319 H 0.39352 0.53891 0.2422 0.0
H320 H 0.58379 0.47494 0.25895 0.0
H321 H 0.5823 0.46886 0.19485 0.0
C322 C 0.50422 0.45706 0.35035 0.0
C323 C 0.4887 0.50944 0.36757 0.0
C324 C 0.50477 0.45666 0.31393 0.0
C325 C 0.48862 0.50824 0.29392 0.0
C326 C 0.47203 0.56034 0.31092 0.0
C327 C 0.47274 0.56115 0.34751 0.0
C328 C 0.43394 0.51973 0.19558 0.0
C329 C 0.48685 0.49979 0.18174 0.0
C330 C 0.43508 0.52404 0.23209 0.0
C331 C 0.48871 0.50727 0.25533 0.0
C332 C 0.54182 0.48782 0.24148 0.0
C333 C 0.54111 0.48469 0.20496 0.0
loop_
_geom_bond_atom_site_label_1
_geom_bond_atom_site_label_2
_geom_bond_distance
_geom_bond_site_symmetry_2
_ccdc_geom_bond_type
O0 Zn1 1.953 . S
O0 C16 1.225 1_565 S
Zn1 O0 1.953 . S
Zn1 O2 1.949 1_565 S
Zn1 O8 1.919 . S
Zn1 O13 1.924 1_565 S
O2 Zn1 1.949 1_545 S
O2 Zn3 1.923 1_444 S
O2 Zn4 1.950 1_455 S
O2 Zn5 1.945 1_554 S
Zn3 O2 1.923 1_666 S
Zn3 O6 1.933 . S
Zn3 O9 1.941 1_655 S
Zn3 O10 1.965 . S
Zn4 O2 1.950 1_655 S
Zn4 O11 1.938 1_545 S
Zn4 O12 1.906 . S
Zn4 O22 1.953 . S
Zn5 O2 1.945 1_556 S
Zn5 O7 1.932 . S
Zn5 O14 1.977 1_455 S
Zn5 O15 1.910 . S
O6 Zn3 1.933 . S
O6 C17 1.226 1_565 S
O7 Zn5 1.932 . S
O7 C17 1.307 1_455 S
O8 Zn1 1.919 . S
O8 C19 1.253 1_554 S
O9 Zn3 1.941 1_455 S
O9 C19 1.283 . S
O10 Zn3 1.965 . S
O10 C18 1.303 1_556 S
O11 Zn4 1.938 1_565 S
O11 C18 1.247 . S
O12 Zn4 1.906 . S
O12 C20 1.304 1_554 S
O13 Zn1 1.924 1_545 S
O13 C21 1.311 . S
O14 Zn5 1.977 1_655 S
O14 C20 1.272 . S
O15 Zn5 1.910 . S
O15 C21 1.231 1_556 S
C16 O0 1.225 1_545 S
C16 O22 1.298 1_455 S
C17 O6 1.226 1_545 S
C17 O7 1.307 1_655 S
C18 O10 1.303 1_554 S
C18 O11 1.247 . S
C19 O8 1.253 1_556 S
C19 O9 1.283 . S
C20 O12 1.304 1_556 S
C20 O14 1.272 . S
C21 O13 1.311 . S
C21 O15 1.231 1_554 S
O22 Zn4 1.953 . S
O22 C16 1.298 1_655 S
O23 Zn24 1.953 . S
O23 C39 1.225 . S
Zn24 O23 1.953 . S
Zn24 O25 1.949 . S
Zn24 O31 1.919 . S
Zn24 O36 1.924 . S
O25 Zn24 1.949 . S
O25 Zn26 1.923 . S
O25 Zn27 1.950 . S
O25 Zn28 1.945 . S
Zn26 O25 1.923 . S
Zn26 O29 1.933 . S
Zn26 O32 1.941 . S
Zn26 O33 1.965 . S
Zn27 O25 1.950 . S
Zn27 O34 1.938 . S
Zn27 O35 1.906 . S
Zn27 O45 1.953 . S
Zn28 O25 1.945 . S
Zn28 O30 1.932 . S
Zn28 O37 1.977 . S
Zn28 O38 1.910 . S
O29 Zn26 1.933 . S
O29 C40 1.226 . S
O30 Zn28 1.932 . S
O30 C40 1.307 . S
O31 Zn24 1.919 . S
O31 C42 1.253 . S
O32 Zn26 1.941 . S
O32 C42 1.283 . S
O33 Zn26 1.965 . S
O33 C41 1.303 . S
O34 Zn27 1.938 . S
O34 C41 1.247 . S
O35 Zn27 1.906 . S
O35 C43 1.304 . S
O36 Zn24 1.924 . S
O36 C44 1.311 . S
O37 Zn28 1.977 . S
O37 C43 1.272 . S
O38 Zn28 1.910 . S
O38 C44 1.231 . S
C39 O23 1.225 . S
C39 O45 1.298 . S
C40 O29 1.226 . S
C40 O30 1.307 . S
C41 O33 1.303 . S
C41 O34 1.247 . S
C42 O31 1.253 . S
C42 O32 1.283 . S
C43 O35 1.304 . S
C43 O37 1.272 . S
C44 O36 1.311 . S
C44 O38 1.231 . S
O45 Zn27 1.953 . S
O45 C39 1.298 . S
H46 C51 0.930 . S
H47 C54 0.930 . S
H48 C56 0.930 . S
H49 C50 1.016 . S
C50 H49 1.016 . S
C50 N57 1.286 . S
C51 H46 0.930 . S
C51 C52 1.397 . S
C51 C53 1.361 1_465 S
C52 C51 1.397 . S
C52 C56 1.390 . S
C53 C51 1.361 1_645 S
C53 C54 1.393 . S
C53 N57 1.413 . S
C54 H47 0.930 . S
C54 C53 1.393 . S
C54 C55 1.399 1_655 S
C55 C54 1.399 1_455 S
C55 C56 1.381 1_545 S
C56 H48 0.930 . S
C56 C52 1.390 . S
C56 C55 1.381 1_565 S
N57 C50 1.286 . S
N57 C53 1.413 . S
H58 C63 0.930 . S
H59 C66 0.930 . S
H60 C68 0.930 . S
H61 C62 1.016 . S
C62 H61 1.016 . S
C62 N69 1.286 . S
C63 H58 0.930 . S
C63 C64 1.397 . S
C63 C65 1.361 1_665 S
C64 C63 1.397 . S
C64 C68 1.390 . S
C65 C63 1.361 1_445 S
C65 C66 1.393 . S
C65 N69 1.413 . S
C66 H59 0.930 . S
C66 C65 1.393 . S
C66 C67 1.399 1_455 S
C67 C66 1.399 1_655 S
C67 C68 1.381 1_545 S
C68 H60 0.930 . S
C68 C64 1.390 . S
C68 C67 1.381 1_565 S
N69 C62 1.286 . S
N69 C65 1.413 . S
H70 C75 0.930 . S
H71 C78 0.930 . S
H72 C80 0.930 . S
H73 C74 1.016 . S
C74 H73 1.016 . S
C74 N81 1.286 . S
C75 H70 0.930 . S
C75 C76 1.397 . S
C75 C77 1.361 . S
C76 C75 1.397 . S
C76 C80 1.390 . S
C77 C75 1.361 . S
C77 C78 1.393 . S
C77 N81 1.413 . S
C78 H71 0.930 . S
C78 C77 1.393 . S
C78 C79 1.399 . S
C79 C78 1.399 . S
C79 C80 1.381 . S
C80 H72 0.930 . S
C80 C76 1.390 . S
C80 C79 1.381 . S
N81 C74 1.286 . S
N81 C77 1.413 . S
H82 C87 0.930 . S
H83 C90 0.930 . S
H84 C92 0.930 . S
H85 C86 1.016 . S
C86 H85 1.016 . S
C86 N93 1.286 . S
C87 H82 0.930 . S
C87 C88 1.397 . S
C87 C89 1.361 . S
C88 C87 1.397 . S
C88 C92 1.390 . S
C89 C87 1.361 . S
C89 C90 1.393 . S
C89 N93 1.413 . S
C90 H83 0.930 . S
C90 C89 1.393 . S
C90 C91 1.399 . S
C91 C90 1.399 . S
C91 C92 1.381 . S
C92 H84 0.930 . S
C92 C88 1.390 . S
C92 C91 1.381 . S
N93 C86 1.286 . S
N93 C89 1.413 . S
H94 C102 0.950 . S
H95 C107 0.950 . S
H96 C104 0.950 . S
H97 C106 0.950 . S
H98 C108 0.950 . S
H99 C110 0.950 . S
H100 C112 0.950 . S
H101 C113 0.950 . S
C102 H94 0.950 . S
C102 C103 1.386 . S
C102 C104 1.391 . S
C103 C102 1.386 . S
C103 C107 1.393 . S
C104 H96 0.950 . S
C104 C102 1.391 . S
C104 C105 1.400 . S
C105 C104 1.400 . S
C105 C106 1.398 . S
C105 C111 1.491 . S
C106 H97 0.950 . S
C106 C105 1.398 . S
C106 C107 1.391 . S
C107 H95 0.950 . S
C107 C103 1.393 . S
C107 C106 1.391 . S
C108 H98 0.950 . S
C108 C109 1.386 . S
C108 C110 1.391 . S
C109 C108 1.386 . S
C109 C113 1.393 . S
C110 H99 0.950 . S
C110 C108 1.391 . S
C110 C111 1.400 . S
C111 C105 1.491 . S
C111 C110 1.400 . S
C111 C112 1.398 . S
C112 H100 0.950 . S
C112 C111 1.398 . S
C112 C113 1.391 . S
C113 H101 0.950 . S
C113 C109 1.393 . S
C113 C112 1.391 . S
H114 C122 0.950 . S
H115 C127 0.951 . S
H116 C124 0.950 . S
H117 C126 0.945 1_554 S
H118 C128 0.950 . S
H119 C130 0.950 . S
H120 C132 0.950 . S
H121 C133 0.950 . S
C122 H114 0.950 . S
C122 C123 1.386 . S
C122 C124 1.391 . S
C123 C122 1.386 . S
C123 C127 1.392 1_556 S
C124 H116 0.950 . S
C124 C122 1.391 . S
C124 C125 1.400 . S
C125 C124 1.400 . S
C125 C126 1.398 . S
C125 C131 1.491 . S
C126 H117 0.945 1_556 S
C126 C125 1.398 . S
C126 C127 1.390 1_556 S
C127 H115 0.951 . S
C127 C123 1.392 1_554 S
C127 C126 1.390 1_554 S
C128 H118 0.950 . S
C128 C129 1.386 . S
C128 C130 1.391 . S
C129 C128 1.386 . S
C129 C133 1.393 . S
C130 H119 0.950 . S
C130 C128 1.391 . S
C130 C131 1.400 . S
C131 C125 1.491 . S
C131 C130 1.400 . S
C131 C132 1.398 . S
C132 H120 0.950 . S
C132 C131 1.398 . S
C132 C133 1.391 . S
C133 H121 0.950 . S
C133 C129 1.393 . S
C133 C132 1.391 . S
H134 C142 0.950 1_556 S
H135 C147 0.950 . S
H136 C144 0.950 1_556 S
H137 C146 0.950 . S
H138 C148 0.950 . S
H139 C150 0.950 . S
H140 C152 0.950 . S
H141 C153 0.950 . S
C142 H134 0.950 1_554 S
C142 C143 1.386 . S
C142 C144 1.391 . S
C143 C142 1.386 . S
C143 C147 1.393 . S
C144 H136 0.950 1_554 S
C144 C142 1.391 . S
C144 C145 1.400 . S
C145 C144 1.400 . S
C145 C146 1.398 . S
C145 C151 1.491 . S
C146 H137 0.950 . S
C146 C145 1.398 . S
C146 C147 1.391 . S
C147 H135 0.950 . S
C147 C143 1.393 . S
C147 C146 1.391 . S
C148 H138 0.950 . S
C148 C149 1.386 . S
C148 C150 1.391 . S
C149 C148 1.386 . S
C149 C153 1.393 . S
C150 H139 0.950 . S
C150 C148 1.391 . S
C150 C151 1.400 . S
C151 C145 1.491 . S
C151 C150 1.400 . S
C151 C152 1.398 . S
C152 H140 0.950 . S
C152 C151 1.398 . S
C152 C153 1.391 . S
C153 H141 0.950 . S
C153 C149 1.393 . S
C153 C152 1.391 . S
H154 C162 0.950 . S
H155 C167 0.950 . S
H156 C164 0.950 . S
H157 C166 0.950 . S
H158 C168 0.950 . S
H159 C170 0.950 . S
H160 C172 0.950 . S
H161 C173 0.950 . S
C162 H154 0.950 . S
C162 C163 1.386 . S
C162 C164 1.391 . S
C163 C162 1.386 . S
C163 C167 1.393 . S
C164 H156 0.950 . S
C164 C162 1.391 . S
C164 C165 1.400 . S
C165 C164 1.400 . S
C165 C166 1.398 . S
C165 C171 1.491 . S
C166 H157 0.950 . S
C166 C165 1.398 . S
C166 C167 1.391 . S
C167 H155 0.950 . S
C167 C163 1.393 . S
C167 C166 1.391 . S
C168 H158 0.950 . S
C168 C169 1.386 . S
C168 C170 1.391 . S
C169 C168 1.386 . S
C169 C173 1.393 . S
C170 H159 0.950 . S
C170 C168 1.391 . S
C170 C171 1.400 . S
C171 C165 1.491 . S
C171 C170 1.400 . S
C171 C172 1.398 . S
C172 H160 0.950 . S
C172 C171 1.398 . S
C172 C173 1.391 . S
C173 H161 0.950 . S
C173 C169 1.393 . S
C173 C172 1.391 . S
H174 C182 0.950 . S
H175 C187 0.950 . S
H176 C184 0.950 . S
H177 C186 0.950 . S
H178 C188 0.950 . S
H179 C190 0.950 . S
H180 C192 0.950 . S
H181 C193 0.950 . S
C182 H174 0.950 . S
C182 C183 1.386 . S
C182 C184 1.391 . S
C183 C182 1.386 . S
C183 C187 1.393 . S
C184 H176 0.950 . S
C184 C182 1.391 . S
C184 C185 1.400 . S
C185 C184 1.400 . S
C185 C186 1.398 . S
C185 C191 1.491 . S
C186 H177 0.950 . S
C186 C185 1.398 . S
C186 C187 1.391 . S
C187 H175 0.950 . S
C187 C183 1.393 . S
C187 C186 1.391 . S
C188 H178 0.950 . S
C188 C189 1.386 . S
C188 C190 1.391 . S
C189 C188 1.386 . S
C189 C193 1.393 . S
C190 H179 0.950 . S
C190 C188 1.391 . S
C190 C191 1.400 . S
C191 C185 1.491 . S
C191 C190 1.400 . S
C191 C192 1.398 . S
C192 H180 0.950 . S
C192 C191 1.398 . S
C192 C193 1.391 . S
C193 H181 0.950 . S
C193 C189 1.393 . S
C193 C192 1.391 . S
H194 C202 0.950 . S
H195 C207 0.950 . S
H196 C204 0.950 . S
H197 C206 0.950 . S
H198 C208 0.950 . S
H199 C210 0.950 . S
H200 C212 0.950 . S
H201 C213 0.950 . S
C202 H194 0.950 . S
C202 C203 1.386 . S
C202 C204 1.391 . S
C203 C202 1.386 . S
C203 C207 1.393 . S
C204 H196 0.950 . S
C204 C202 1.391 . S
C204 C205 1.400 . S
C205 C204 1.400 . S
C205 C206 1.398 . S
C205 C211 1.491 . S
C206 H197 0.950 . S
C206 C205 1.398 . S
C206 C207 1.391 . S
C207 H195 0.950 . S
C207 C203 1.393 . S
C207 C206 1.391 . S
C208 H198 0.950 . S
C208 C209 1.386 . S
C208 C210 1.391 . S
C209 C208 1.386 . S
C209 C213 1.393 . S
C210 H199 0.950 . S
C210 C208 1.391 . S
C210 C211 1.400 . S
C211 C205 1.491 . S
C211 C210 1.400 . S
C211 C212 1.398 . S
C212 H200 0.950 . S
C212 C211 1.398 . S
C212 C213 1.391 . S
C213 H201 0.950 . S
C213 C209 1.393 . S
C213 C212 1.391 . S
H214 C222 0.950 . S
H215 C227 0.950 . S
H216 C224 0.950 . S
H217 C226 0.950 . S
H218 C228 0.950 . S
H219 C230 0.950 . S
H220 C232 0.950 . S
H221 C233 0.950 . S
C222 H214 0.950 . S
C222 C223 1.386 . S
C222 C224 1.391 . S
C223 C222 1.386 . S
C223 C227 1.393 . S
C224 H216 0.950 . S
C224 C222 1.391 . S
C224 C225 1.400 . S
C225 C224 1.400 . S
C225 C226 1.398 . S
C225 C231 1.491 . S
C226 H217 0.950 . S
C226 C225 1.398 . S
C226 C227 1.391 . S
C227 H215 0.950 . S
C227 C223 1.393 . S
C227 C226 1.391 . S
C228 H218 0.950 . S
C228 C229 1.386 . S
C228 C230 1.391 . S
C229 C228 1.386 . S
C229 C233 1.393 . S
C230 H219 0.950 . S
C230 C228 1.391 . S
C230 C231 1.400 . S
C231 C225 1.491 . S
C231 C230 1.400 . S
C231 C232 1.398 . S
C232 H220 0.950 . S
C232 C231 1.398 . S
C232 C233 1.391 . S
C233 H221 0.950 . S
C233 C229 1.393 . S
C233 C232 1.391 . S
H234 C242 0.950 . S
H235 C247 0.950 . S
H236 C244 0.950 . S
H237 C246 0.950 . S
H238 C248 0.950 . S
H239 C250 0.950 . S
H240 C252 0.950 . S
H241 C253 0.950 . S
C242 H234 0.950 . S
C242 C243 1.386 . S
C242 C244 1.391 . S
C243 C242 1.386 . S
C243 C247 1.393 . S
C244 H236 0.950 . S
C244 C242 1.391 . S
C244 C245 1.400 . S
C245 C244 1.400 . S
C245 C246 1.398 . S
C245 C251 1.491 . S
C246 H237 0.950 . S
C246 C245 1.398 . S
C246 C247 1.391 . S
C247 H235 0.950 . S
C247 C243 1.393 . S
C247 C246 1.391 . S
C248 H238 0.950 . S
C248 C249 1.386 . S
C248 C250 1.391 . S
C249 C248 1.386 . S
C249 C253 1.393 . S
C250 H239 0.950 . S
C250 C248 1.391 . S
C250 C251 1.400 . S
C251 C245 1.491 . S
C251 C250 1.400 . S
C251 C252 1.398 . S
C252 H240 0.950 . S
C252 C251 1.398 . S
C252 C253 1.391 . S
C253 H241 0.950 . S
C253 C249 1.393 . S
C253 C252 1.391 . S
H254 C262 0.950 . S
H255 C267 0.950 . S
H256 C264 0.950 . S
H257 C266 0.950 . S
H258 C268 0.950 . S
H259 C270 0.950 . S
H260 C272 0.950 . S
H261 C273 0.950 . S
C262 H254 0.950 . S
C262 C263 1.386 . S
C262 C264 1.391 . S
C263 C262 1.386 . S
C263 C267 1.393 1_545 S
C264 H256 0.950 . S
C264 C262 1.391 . S
C264 C265 1.400 . S
C265 C264 1.400 . S
C265 C266 1.398 1_545 S
C265 C271 1.491 . S
C266 H257 0.950 . S
C266 C265 1.398 1_565 S
C266 C267 1.391 . S
C267 H255 0.950 . S
C267 C263 1.393 1_565 S
C267 C266 1.391 . S
C268 H258 0.950 . S
C268 C269 1.386 1_565 S
C268 C270 1.391 . S
C269 C268 1.386 1_545 S
C269 C273 1.393 . S
C270 H259 0.950 . S
C270 C268 1.391 . S
C270 C271 1.400 1_565 S
C271 C265 1.491 . S
C271 C270 1.400 1_545 S
C271 C272 1.398 . S
C272 H260 0.950 . S
C272 C271 1.398 . S
C272 C273 1.391 . S
C273 H261 0.950 . S
C273 C269 1.393 . S
C273 C272 1.391 . S
H274 C282 0.950 . S
H275 C287 0.950 . S
H276 C284 0.950 . S
H277 C286 0.950 . S
H278 C288 0.950 . S
H279 C290 0.950 . S
H280 C292 0.950 . S
H281 C293 0.950 . S
C282 H274 0.950 . S
C282 C283 1.386 1_565 S
C282 C284 1.391 . S
C283 C282 1.386 1_545 S
C283 C287 1.393 1_655 S
C284 H276 0.950 . S
C284 C282 1.391 . S
C284 C285 1.400 1_565 S
C285 C284 1.400 1_545 S
C285 C286 1.398 1_655 S
C285 C291 1.490 1_655 S
C286 H277 0.950 . S
C286 C285 1.398 1_455 S
C286 C287 1.391 . S
C287 H275 0.950 . S
C287 C283 1.393 1_455 S
C287 C286 1.391 . S
C288 H278 0.950 . S
C288 C289 1.386 . S
C288 C290 1.391 . S
C289 C288 1.386 . S
C289 C293 1.393 1_445 S
C290 H279 0.950 . S
C290 C288 1.391 . S
C290 C291 1.401 . S
C291 C285 1.490 1_455 S
C291 C290 1.401 . S
C291 C292 1.398 1_445 S
C292 H280 0.950 . S
C292 C291 1.398 1_665 S
C292 C293 1.391 . S
C293 H281 0.950 . S
C293 C289 1.393 1_665 S
C293 C292 1.391 . S
H294 C302 0.950 . S
H295 C307 0.950 . S
H296 C304 0.950 . S
H297 C306 0.950 . S
H298 C308 0.950 . S
H299 C310 0.950 . S
H300 C312 0.950 . S
H301 C313 0.950 . S
C302 H294 0.950 . S
C302 C303 1.386 . S
C302 C304 1.391 . S
C303 C302 1.386 . S
C303 C307 1.393 . S
C304 H296 0.950 . S
C304 C302 1.391 . S
C304 C305 1.400 . S
C305 C304 1.400 . S
C305 C306 1.398 . S
C305 C311 1.491 . S
C306 H297 0.950 . S
C306 C305 1.398 . S
C306 C307 1.391 . S
C307 H295 0.950 . S
C307 C303 1.393 . S
C307 C306 1.391 . S
C308 H298 0.950 . S
C308 C309 1.386 . S
C308 C310 1.391 . S
C309 C308 1.386 . S
C309 C313 1.393 . S
C310 H299 0.950 . S
C310 C308 1.391 . S
C310 C311 1.400 . S
C311 C305 1.491 . S
C311 C310 1.400 . S
C311 C312 1.398 . S
C312 H300 0.950 . S
C312 C311 1.398 . S
C312 C313 1.391 . S
C313 H301 0.950 . S
C313 C309 1.393 . S
C313 C312 1.391 . S
H314 C322 0.950 . S
H315 C327 0.950 . S
H316 C324 0.950 . S
H317 C326 0.950 . S
H318 C328 0.950 . S
H319 C330 0.950 . S
H320 C332 0.950 . S
H321 C333 0.950 . S
C322 H314 0.950 . S
C322 C323 1.386 . S
C322 C324 1.391 . S
C323 C322 1.386 . S
C323 C327 1.393 . S
C324 H316 0.950 . S
C324 C322 1.391 . S
C324 C325 1.400 . S
C325 C324 1.400 . S
C325 C326 1.398 . S
C325 C331 1.491 . S
C326 H317 0.950 . S
C326 C325 1.398 . S
C326 C327 1.391 . S
C327 H315 0.950 . S
C327 C323 1.393 . S
C327 C326 1.391 . S
C328 H318 0.950 . S
C328 C329 1.386 . S
C328 C330 1.391 . S
C329 C328 1.386 . S
C329 C333 1.393 . S
C330 H319 0.950 . S
C330 C328 1.391 . S
C330 C331 1.400 . S
C331 C325 1.491 . S
C331 C330 1.400 . S
C331 C332 1.398 . S
C332 H320 0.950 . S
C332 C331 1.398 . S
C332 C333 1.391 . S
C333 H321 0.950 . S
C333 C329 1.393 . S
C333 C332 1.391 . S
C109 C88 1.527 . S
C103 C21 1.524 . S
C123 C19 1.412 . S
C129 C74 1.392 . S
C143 C18 1.382 . S
C149 C86 1.371 . S
C163 C20 1.506 . S
C169 C76 1.513 . S
C183 C44 1.520 . S
C189 C64 1.525 . S
C203 C42 1.410 . S
C209 C50 1.386 . S
C229 C62 1.372 . S
C223 C41 1.369 . S
C249 C52 1.509 . S
C243 C43 1.500 . S
C263 C16 1.529 . S
C269 C55 1.525 . S
C283 C17 1.493 . S
C289 C67 1.490 1_455 S
C309 C79 1.523 . S
C303 C39 1.531 . S
C323 C40 1.493 . S
C329 C91 1.493 . S
