# Generated by pormake.
# Topology ptr, (4,4)-cn, num edge types: 1
# Building blocks:
#     Node 0, Type 0, BuildingBlock: GALJAG_clean_sbu_0, # of connection points: 4
#     Node 1, Type 0, BuildingBlock: GALJAG_clean_sbu_0, # of connection points: 4
#     Node 2, Type 0, BuildingBlock: GALJAG_clean_sbu_0, # of connection points: 4
#     Node 3, Type 0, BuildingBlock: GALJAG_clean_sbu_0, # of connection points: 4
#     Node 4, Type 0, BuildingBlock: GALJAG_clean_sbu_0, # of connection points: 4
#     Node 5, Type 0, BuildingBlock: GALJAG_clean_sbu_0, # of connection points: 4
#     Node 6, Type 0, BuildingBlock: GALJAG_clean_sbu_0, # of connection points: 4
#     Node 7, Type 0, BuildingBlock: GALJAG_clean_sbu_0, # of connection points: 4
#     Node 8, Type 0, BuildingBlock: GALJAG_clean_sbu_0, # of connection points: 4
#     Node 9, Type 0, BuildingBlock: GALJAG_clean_sbu_0, # of connection points: 4
#     Node 10, Type 0, BuildingBlock: GALJAG_clean_sbu_0, # of connection points: 4
#     Node 11, Type 0, BuildingBlock: GALJAG_clean_sbu_0, # of connection points: 4
#     Node 12, Type 0, BuildingBlock: GALJAG_clean_sbu_0, # of connection points: 4
#     Node 13, Type 0, BuildingBlock: GALJAG_clean_sbu_0, # of connection points: 4
#     Node 14, Type 0, BuildingBlock: GALJAG_clean_sbu_0, # of connection points: 4
#     Node 15, Type 0, BuildingBlock: GALJAG_clean_sbu_0, # of connection points: 4
#     Node 16, Type 0, BuildingBlock: GALJAG_clean_sbu_0, # of connection points: 4
#     Node 17, Type 0, BuildingBlock: GALJAG_clean_sbu_0, # of connection points: 4
#     Node 18, Type 1, BuildingBlock: KUFVIS_clean_linker_0, # of connection points: 4
#     Node 19, Type 1, BuildingBlock: KUFVIS_clean_linker_0, # of connection points: 4
#     Node 20, Type 1, BuildingBlock: KUFVIS_clean_linker_0, # of connection points: 4
#     Node 21, Type 1, BuildingBlock: KUFVIS_clean_linker_0, # of connection points: 4
#     Node 22, Type 1, BuildingBlock: KUFVIS_clean_linker_0, # of connection points: 4
#     Node 23, Type 1, BuildingBlock: KUFVIS_clean_linker_0, # of connection points: 4
#     Node 24, Type 1, BuildingBlock: KUFVIS_clean_linker_0, # of connection points: 4
#     Node 25, Type 1, BuildingBlock: KUFVIS_clean_linker_0, # of connection points: 4
#     Node 26, Type 1, BuildingBlock: KUFVIS_clean_linker_0, # of connection points: 4
#     Node 27, Type 1, BuildingBlock: KUFVIS_clean_linker_0, # of connection points: 4
#     Node 28, Type 1, BuildingBlock: KUFVIS_clean_linker_0, # of connection points: 4
#     Node 29, Type 1, BuildingBlock: KUFVIS_clean_linker_0, # of connection points: 4
#     Node 30, Type 1, BuildingBlock: KUFVIS_clean_linker_0, # of connection points: 4
#     Node 31, Type 1, BuildingBlock: KUFVIS_clean_linker_0, # of connection points: 4
#     Node 32, Type 1, BuildingBlock: KUFVIS_clean_linker_0, # of connection points: 4
#     Node 33, Type 1, BuildingBlock: KUFVIS_clean_linker_0, # of connection points: 4
#     Node 34, Type 1, BuildingBlock: KUFVIS_clean_linker_0, # of connection points: 4
#     Node 35, Type 1, BuildingBlock: KUFVIS_clean_linker_0, # of connection points: 4
#     Edge 36, Type (0, 1), BuildingBlock: TEMPAE_clean_linker_10, # of connection points: 2
#     Edge 37, Type (0, 1), BuildingBlock: TEMPAE_clean_linker_10, # of connection points: 2
#     Edge 38, Type (0, 1), BuildingBlock: TEMPAE_clean_linker_10, # of connection points: 2
#     Edge 39, Type (0, 1), BuildingBlock: TEMPAE_clean_linker_10, # of connection points: 2
#     Edge 40, Type (0, 1), BuildingBlock: TEMPAE_clean_linker_10, # of connection points: 2
#     Edge 41, Type (0, 1), BuildingBlock: TEMPAE_clean_linker_10, # of connection points: 2
#     Edge 42, Type (0, 1), BuildingBlock: TEMPAE_clean_linker_10, # of connection points: 2
#     Edge 43, Type (0, 1), BuildingBlock: TEMPAE_clean_linker_10, # of connection points: 2
#     Edge 44, Type (0, 1), BuildingBlock: TEMPAE_clean_linker_10, # of connection points: 2
#     Edge 45, Type (0, 1), BuildingBlock: TEMPAE_clean_linker_10, # of connection points: 2
#     Edge 46, Type (0, 1), BuildingBlock: TEMPAE_clean_linker_10, # of connection points: 2
#     Edge 47, Type (0, 1), BuildingBlock: TEMPAE_clean_linker_10, # of connection points: 2
#     Edge 48, Type (0, 1), BuildingBlock: TEMPAE_clean_linker_10, # of connection points: 2
#     Edge 49, Type (0, 1), BuildingBlock: TEMPAE_clean_linker_10, # of connection points: 2
#     Edge 50, Type (0, 1), BuildingBlock: TEMPAE_clean_linker_10, # of connection points: 2
#     Edge 51, Type (0, 1), BuildingBlock: TEMPAE_clean_linker_10, # of connection points: 2
#     Edge 52, Type (0, 1), BuildingBlock: TEMPAE_clean_linker_10, # of connection points: 2
#     Edge 53, Type (0, 1), BuildingBlock: TEMPAE_clean_linker_10, # of connection points: 2
#     Edge 54, Type (0, 1), BuildingBlock: TEMPAE_clean_linker_10, # of connection points: 2
#     Edge 55, Type (0, 1), BuildingBlock: TEMPAE_clean_linker_10, # of connection points: 2
#     Edge 56, Type (0, 1), BuildingBlock: TEMPAE_clean_linker_10, # of connection points: 2
#     Edge 57, Type (0, 1), BuildingBlock: TEMPAE_clean_linker_10, # of connection points: 2
#     Edge 58, Type (0, 1), BuildingBlock: TEMPAE_clean_linker_10, # of connection points: 2
#     Edge 59, Type (0, 1), BuildingBlock: TEMPAE_clean_linker_10, # of connection points: 2
#     Edge 60, Type (0, 1), BuildingBlock: TEMPAE_clean_linker_10, # of connection points: 2
#     Edge 61, Type (0, 1), BuildingBlock: TEMPAE_clean_linker_10, # of connection points: 2
#     Edge 62, Type (0, 1), BuildingBlock: TEMPAE_clean_linker_10, # of connection points: 2
#     Edge 63, Type (0, 1), BuildingBlock: TEMPAE_clean_linker_10, # of connection points: 2
#     Edge 64, Type (0, 1), BuildingBlock: TEMPAE_clean_linker_10, # of connection points: 2
#     Edge 65, Type (0, 1), BuildingBlock: TEMPAE_clean_linker_10, # of connection points: 2
#     Edge 66, Type (0, 1), BuildingBlock: TEMPAE_clean_linker_10, # of connection points: 2
#     Edge 67, Type (0, 1), BuildingBlock: TEMPAE_clean_linker_10, # of connection points: 2
#     Edge 68, Type (0, 1), BuildingBlock: TEMPAE_clean_linker_10, # of connection points: 2
#     Edge 69, Type (0, 1), BuildingBlock: TEMPAE_clean_linker_10, # of connection points: 2
#     Edge 70, Type (0, 1), BuildingBlock: TEMPAE_clean_linker_10, # of connection points: 2
#     Edge 71, Type (0, 1), BuildingBlock: TEMPAE_clean_linker_10, # of connection points: 2
#     Edge 72, Type (0, 1), BuildingBlock: TEMPAE_clean_linker_10, # of connection points: 2
#     Edge 73, Type (0, 1), BuildingBlock: TEMPAE_clean_linker_10, # of connection points: 2
#     Edge 74, Type (0, 1), BuildingBlock: TEMPAE_clean_linker_10, # of connection points: 2
#     Edge 75, Type (0, 1), BuildingBlock: TEMPAE_clean_linker_10, # of connection points: 2
#     Edge 76, Type (0, 1), BuildingBlock: TEMPAE_clean_linker_10, # of connection points: 2
#     Edge 77, Type (0, 1), BuildingBlock: TEMPAE_clean_linker_10, # of connection points: 2
#     Edge 78, Type (0, 1), BuildingBlock: TEMPAE_clean_linker_10, # of connection points: 2
#     Edge 79, Type (0, 1), BuildingBlock: TEMPAE_clean_linker_10, # of connection points: 2
#     Edge 80, Type (0, 1), BuildingBlock: TEMPAE_clean_linker_10, # of connection points: 2
#     Edge 81, Type (0, 1), BuildingBlock: TEMPAE_clean_linker_10, # of connection points: 2
#     Edge 82, Type (0, 1), BuildingBlock: TEMPAE_clean_linker_10, # of connection points: 2
#     Edge 83, Type (0, 1), BuildingBlock: TEMPAE_clean_linker_10, # of connection points: 2
#     Edge 84, Type (0, 1), BuildingBlock: TEMPAE_clean_linker_10, # of connection points: 2
#     Edge 85, Type (0, 1), BuildingBlock: TEMPAE_clean_linker_10, # of connection points: 2
#     Edge 86, Type (0, 1), BuildingBlock: TEMPAE_clean_linker_10, # of connection points: 2
#     Edge 87, Type (0, 1), BuildingBlock: TEMPAE_clean_linker_10, # of connection points: 2
#     Edge 88, Type (0, 1), BuildingBlock: TEMPAE_clean_linker_10, # of connection points: 2
#     Edge 89, Type (0, 1), BuildingBlock: TEMPAE_clean_linker_10, # of connection points: 2
#     Edge 90, Type (0, 1), BuildingBlock: TEMPAE_clean_linker_10, # of connection points: 2
#     Edge 91, Type (0, 1), BuildingBlock: TEMPAE_clean_linker_10, # of connection points: 2
#     Edge 92, Type (0, 1), BuildingBlock: TEMPAE_clean_linker_10, # of connection points: 2
#     Edge 93, Type (0, 1), BuildingBlock: TEMPAE_clean_linker_10, # of connection points: 2
#     Edge 94, Type (0, 1), BuildingBlock: TEMPAE_clean_linker_10, # of connection points: 2
#     Edge 95, Type (0, 1), BuildingBlock: TEMPAE_clean_linker_10, # of connection points: 2
#     Edge 96, Type (0, 1), BuildingBlock: TEMPAE_clean_linker_10, # of connection points: 2
#     Edge 97, Type (0, 1), BuildingBlock: TEMPAE_clean_linker_10, # of connection points: 2
#     Edge 98, Type (0, 1), BuildingBlock: TEMPAE_clean_linker_10, # of connection points: 2
#     Edge 99, Type (0, 1), BuildingBlock: TEMPAE_clean_linker_10, # of connection points: 2
#     Edge 100, Type (0, 1), BuildingBlock: TEMPAE_clean_linker_10, # of connection points: 2
#     Edge 101, Type (0, 1), BuildingBlock: TEMPAE_clean_linker_10, # of connection points: 2
#     Edge 102, Type (0, 1), BuildingBlock: TEMPAE_clean_linker_10, # of connection points: 2
#     Edge 103, Type (0, 1), BuildingBlock: TEMPAE_clean_linker_10, # of connection points: 2
#     Edge 104, Type (0, 1), BuildingBlock: TEMPAE_clean_linker_10, # of connection points: 2
#     Edge 105, Type (0, 1), BuildingBlock: TEMPAE_clean_linker_10, # of connection points: 2
#     Edge 106, Type (0, 1), BuildingBlock: TEMPAE_clean_linker_10, # of connection points: 2
#     Edge 107, Type (0, 1), BuildingBlock: TEMPAE_clean_linker_10, # of connection points: 2
# Relax obj value: 0.068
# Max RMSD: 0.101
# Mean RMSD: 0.096
data_MOF--net-ptr--node1-GALJAG_clean_sbu_0--node2-KUFVIS_clean_linker_0--edge1-TEMPAE_clean_linker_10
_symmetry_space_group_name_H-M    P1
_symmetry_Int_Tables_number       1
_symmetry_cell_setting            triclinic
loop_
_symmetry_equiv_pos_as_xyz
'x, y, z'
_cell_length_a     78.516373
_cell_length_b     78.602745
_cell_length_c     52.035109
_cell_angle_alpha  90.005722
_cell_angle_beta   90.075632
_cell_angle_gamma 120.10368
loop_
_atom_site_label
_atom_site_type_symbol
_atom_site_fract_x
_atom_site_fract_y
_atom_site_fract_z
_atom_type_partial_charge
In0 In 0.01281 0.37474 0.01347 0.0
O1 O 0.995 0.38263 0.04092 0.0
O2 O 0.02587 0.39644 0.04688 0.0
C3 C 0.98333 0.33795 0.00073 0.0
C4 C 0.04426 0.3705 0.0247 0.0
C5 C 0.0159 0.39954 0.97519 0.0
O6 O 0.98641 0.34429 0.02349 0.0
O7 O 0.99506 0.35007 0.98456 0.0
O8 O 0.02624 0.39137 0.97587 0.0
O9 O 1.00402 0.39508 0.99363 0.0
C10 C 1.0097 0.39467 0.054 0.0
O11 O 0.04449 0.38141 0.00674 0.0
O12 O 0.02817 0.36164 0.03673 0.0
In13 In 0.65769 0.64751 0.0153 0.0
O14 O 0.65226 0.62921 0.05186 0.0
O15 O 0.62846 0.6317 0.03655 0.0
C16 C 0.69438 0.65507 0.00244 0.0
C17 C 0.66308 0.6835 0.02777 0.0
C18 C 0.63571 0.62343 0.97671 0.0
O19 O 0.68648 0.64734 0.02363 0.0
O20 O 0.6839 0.65905 0.98812 0.0
O21 O 0.63853 0.64065 0.97928 0.0
O22 O 0.6442 0.61855 0.99332 0.0
C23 C 0.63436 0.62449 0.05371 0.0
O24 O 0.66721 0.67345 0.04269 0.0
O25 O 0.6562 0.67546 0.00632 0.0
In26 In 0.37446 0.01269 0.01455 0.0
O27 O 0.36397 0.02848 0.98771 0.0
O28 O 0.37551 0.0419 0.02378 0.0
C29 C 0.3966 0.01041 0.05274 0.0
C30 C 0.39821 0.01454 0.97581 0.0
C31 C 0.33797 0.98297 0.02699 0.0
O32 O 0.39352 0.02468 0.05073 0.0
O33 O 0.38827 0.99727 0.03579 0.0
O34 O 0.34606 0.98346 0.00584 0.0
O35 O 0.34819 0.99742 0.04152 0.0
C36 C 0.36816 0.04273 0.00255 0.0
O37 O 0.38059 1.00067 0.97777 0.0
O38 O 0.40364 0.0275 0.99309 0.0
In39 In 0.01704 0.65078 0.01284 0.0
O40 O 0.02787 0.64432 0.97531 0.0
O41 O 1.00163 0.62142 0.99208 0.0
C42 C 0.0474 0.68675 0.02559 0.0
C43 C 0.98753 0.65727 0.99895 0.0
C44 C 0.01882 0.62917 0.05193 0.0
O45 O 0.04812 0.67718 0.00654 0.0
O46 O 0.03138 0.6783 0.03778 0.0
O47 O 1.00556 0.63379 0.05055 0.0
O48 O 0.03117 0.63569 0.03388 0.0
C49 C 0.01394 0.6267 0.97399 0.0
O50 O 1.00305 0.66313 0.98599 0.0
O51 O 0.98694 0.64834 0.01942 0.0
In52 In 0.37287 0.37384 0.00887 0.0
O53 O 0.37776 0.39146 0.97183 0.0
O54 O 0.40205 0.39017 0.98771 0.0
C55 C 0.33609 0.36592 0.02147 0.0
C56 C 0.36914 0.33847 0.99687 0.0
C57 C 0.39364 0.39824 0.04772 0.0
O58 O 0.34392 0.37337 0.00015 0.0
O59 O 0.34668 0.36228 0.0361 0.0
O60 O 0.38982 0.38059 0.04679 0.0
O61 O 0.3867 0.40337 0.02935 0.0
C62 C 0.39582 0.39678 0.97024 0.0
O63 O 0.37886 0.34839 0.01609 0.0
O64 O 0.36123 0.34628 0.98405 0.0
In65 In 0.65169 0.00742 0.00838 0.0
O66 O 0.64921 0.0213 0.04602 0.0
O67 O 0.62283 1.00047 0.02748 0.0
C68 C 0.68778 0.03803 0.99647 0.0
C69 C 0.65711 0.97695 0.02184 0.0
C70 C 0.6284 1.0043 0.96821 0.0
O71 O 0.68004 0.0218 0.98467 0.0
O72 O 0.67741 0.03878 0.01445 0.0
O73 O 0.62549 0.98972 0.98166 0.0
O74 O 0.64331 0.02036 0.97464 0.0
C75 C 0.63063 0.01207 0.04612 0.0
O76 O 0.6533 0.97958 0.99915 0.0
O77 O 0.65841 0.98975 0.03755 0.0
In78 In 0.67542 0.70478 0.35216 0.0
O79 O 0.65886 0.7124 0.38187 0.0
O80 O 0.69013 0.72907 0.38234 0.0
C81 C 0.64547 0.6686 0.33882 0.0
C82 C 0.70513 0.6978 0.36351 0.0
C83 C 0.67726 0.72928 0.31424 0.0
O84 O 0.64739 0.67537 0.36127 0.0
O85 O 0.65873 0.67989 0.32345 0.0
O86 O 0.69021 0.72437 0.31698 0.0
O87 O 0.66357 0.72186 0.3305 0.0
C88 C 0.67417 0.72627 0.39196 0.0
O89 O 0.70475 0.70626 0.34307 0.0
O90 O 0.69053 0.69282 0.37809 0.0
In91 In 0.3242 0.98339 0.35039 0.0
O92 O 0.31775 0.95924 0.37976 0.0
O93 O 0.30058 0.97321 0.38149 0.0
C94 C 0.36085 0.99137 0.33646 0.0
C95 C 0.32922 0.01942 0.36105 0.0
C96 C 0.29925 0.95985 0.3134 0.0
O97 O 0.35513 0.98836 0.35949 0.0
O98 O 0.34824 0.9905 0.32074 0.0
O99 O 0.30451 0.97786 0.3151 0.0
O100 O 0.30664 0.95389 0.33016 0.0
C101 C 0.30387 0.96023 0.39052 0.0
O102 O 0.32051 0.00994 0.34104 0.0
O103 O 0.33541 0.01078 0.37549 0.0
In104 In 0.04244 0.34516 0.34974 0.0
O105 O 0.03091 0.36089 0.3242 0.0
O106 O 0.04781 0.37642 0.35666 0.0
C107 C 0.0644 0.34395 0.38896 0.0
C108 C 0.065 0.34475 0.31087 0.0
C109 C 1.00587 0.31513 0.36157 0.0
O110 O 0.05869 0.35638 0.38801 0.0
O111 O 0.05859 0.33188 0.37053 0.0
O112 O 0.01429 0.31597 0.34062 0.0
O113 O 0.01579 0.32945 0.37642 0.0
C114 C 0.03843 0.37657 0.33708 0.0
O115 O 0.047 0.33197 0.31299 0.0
O116 O 0.07145 0.35787 0.32801 0.0
In117 In 0.68517 0.98387 0.34178 0.0
O118 O 0.69854 0.98121 0.30369 0.0
O119 O 0.67827 0.95499 0.32291 0.0
C120 C 0.71464 0.02047 0.35393 0.0
C121 C 0.65388 0.988 0.32864 0.0
C122 C 0.6841 0.96239 0.38298 0.0
O123 O 0.71682 0.00961 0.33794 0.0
O124 O 0.69756 0.01298 0.36334 0.0
O125 O 0.66903 0.95818 0.36969 0.0
O126 O 0.69958 0.97762 0.37583 0.0
C127 C 0.68946 0.96264 0.3039 0.0
O128 O 0.65614 0.98312 0.35091 0.0
O129 O 0.66742 0.99093 0.31316 0.0
In130 In 0.03854 0.70629 0.34463 0.0
O131 O 0.04999 0.73577 0.32365 0.0
O132 O 0.05512 0.71427 0.30655 0.0
C133 C 1.00179 0.69965 0.3547 0.0
C134 C 0.03229 0.66976 0.33403 0.0
C135 C 0.06335 0.72559 0.38426 0.0
O136 O 0.01204 0.71049 0.3364 0.0
O137 O 1.00992 0.69195 0.36731 0.0
O138 O 0.06861 0.71973 0.3649 0.0
O139 O 0.04559 0.72127 0.38387 0.0
C140 C 0.05757 0.73137 0.30531 0.0
O141 O 0.04094 0.67897 0.35423 0.0
O142 O 0.0267 0.67888 0.31949 0.0
In143 In 0.31805 0.34193 0.34541 0.0
O144 O 0.31296 0.31078 0.33832 0.0
O145 O 0.33113 0.32716 0.36962 0.0
C146 C 0.29715 0.34568 0.30676 0.0
C147 C 0.29452 0.33972 0.38465 0.0
C148 C 0.35461 0.37149 0.33311 0.0
O149 O 0.30117 0.33198 0.30732 0.0
O150 O 0.30389 0.35749 0.32544 0.0
O151 O 0.34633 0.37117 0.35405 0.0
O152 O 0.34456 0.35688 0.31872 0.0
C153 C 0.32331 0.31124 0.3572 0.0
O154 O 0.31217 0.35351 0.38282 0.0
O155 O 0.28895 0.32708 0.36694 0.0
In156 In 0.34387 0.03635 0.68149 0.0
O157 O 0.37077 0.03334 0.67133 0.0
O158 O 0.36067 0.02802 0.70983 0.0
C159 C 0.345 0.05834 0.64091 0.0
C160 C 0.34398 0.05995 0.71939 0.0
C161 C 0.31258 1.00054 0.67079 0.0
O162 O 0.36037 0.06078 0.65198 0.0
O163 O 0.32914 0.04456 0.64986 0.0
O164 O 0.31206 0.01157 0.68806 0.0
O165 O 0.32891 0.00747 0.65937 0.0
C166 C 0.37312 0.02889 0.69383 0.0
O167 O 0.33215 0.04162 0.71931 0.0
O168 O 0.35561 0.06616 0.70058 0.0
In169 In 0.98809 0.31728 0.68218 0.0
O170 O 0.98914 0.34608 0.67075 0.0
O171 O 0.99663 0.34332 0.70902 0.0
C172 C 0.96626 0.29496 0.6423 0.0
C173 C 0.96479 0.29397 0.72048 0.0
C174 C 0.02432 0.32266 0.67221 0.0
O175 O 0.96359 0.30802 0.65244 0.0
O176 O 0.98021 0.29344 0.65184 0.0
O177 O 0.01403 0.31252 0.69096 0.0
O178 O 0.01646 0.3303 0.65886 0.0
C179 C 0.99426 0.35381 0.69271 0.0
O180 O 0.98314 0.30057 0.7202 0.0
O181 O 0.95841 0.29923 0.70169 0.0
In182 In 0.70946 0.68231 0.68192 0.0
O183 O 0.71557 0.71359 0.69065 0.0
O184 O 0.69762 0.6986 0.65853 0.0
C185 C 0.72995 0.6772 0.71978 0.0
C186 C 0.73286 0.68442 0.6427 0.0
C187 C 0.67262 0.65291 0.69314 0.0
O188 O 0.72579 0.69079 0.72041 0.0
O189 O 0.72345 0.66609 0.7004 0.0
O190 O 0.68091 0.65373 0.67203 0.0
O191 O 0.68279 0.66697 0.70826 0.0
C192 C 0.70573 0.71413 0.67178 0.0
O193 O 0.71492 0.67121 0.64391 0.0
O194 O 0.73875 0.69664 0.66094 0.0
In195 In 0.35064 0.31684 0.67805 0.0
O196 O 0.36857 0.30553 0.65648 0.0
O197 O 0.34071 0.29848 0.64137 0.0
C198 C 0.3814 0.35328 0.68814 0.0
C199 C 0.32159 0.32492 0.66727 0.0
C200 C 0.34392 0.2915 0.71734 0.0
O201 O 0.38062 0.34384 0.66811 0.0
O202 O 0.3666 0.34451 0.70259 0.0
O203 O 0.33156 0.28775 0.69961 0.0
O204 O 0.35936 0.308 0.71539 0.0
C205 C 0.3558 0.29683 0.6392 0.0
O206 O 0.32243 0.31739 0.68833 0.0
O207 O 0.33548 0.32858 0.652 0.0
In208 In 0.70898 0.04254 0.68164 0.0
O209 O 0.7213 0.07232 0.66113 0.0
O210 O 0.72511 0.05023 0.64323 0.0
C211 C 0.67278 0.03725 0.69224 0.0
C212 C 0.70126 1.00556 0.67078 0.0
C213 C 0.73473 0.06071 0.72079 0.0
O214 O 0.68281 0.0472 0.67324 0.0
O215 O 0.68085 0.02979 0.70544 0.0
O216 O 0.7389 0.05374 0.70155 0.0
O217 O 0.71759 0.05822 0.72042 0.0
C218 C 0.7282 0.06758 0.64234 0.0
O219 O 0.71029 0.01461 0.69087 0.0
O220 O 0.69593 0.01503 0.65652 0.0
In221 In 0.98457 0.67624 0.67397 0.0
O222 O 0.97606 0.64806 0.69639 0.0
O223 O 0.99579 0.65471 0.6654 0.0
C224 C 0.95842 0.66967 0.63564 0.0
C225 C 0.97025 0.68722 0.71416 0.0
C226 C 0.02196 0.7053 0.66355 0.0
O227 O 0.95578 0.6565 0.65166 0.0
O228 O 0.97412 0.68577 0.6389 0.0
O229 O 0.01416 0.70362 0.6853 0.0
O230 O 0.01107 0.69231 0.6476 0.0
C231 C 0.98659 0.64321 0.68366 0.0
O232 O 0.9683 0.691 0.69114 0.0
O233 O 0.98008 0.67865 0.71693 0.0
H234 H 0.24466 0.35707 0.13368 0.0
H235 H 0.1967 0.35459 0.09176 0.0
H236 H 0.19961 0.36061 0.17495 0.0
H237 H 0.16866 0.34839 0.17382 0.0
H238 H 0.12653 0.35852 0.13535 0.0
H239 H 0.17644 0.36576 0.09344 0.0
C240 C 0.23095 0.35729 0.13377 0.0
C241 C 0.22269 0.35828 0.15706 0.0
C242 C 0.22186 0.35655 0.11043 0.0
C243 C 0.20366 0.35591 0.11016 0.0
C244 C 0.19483 0.35704 0.13342 0.0
C245 C 0.20496 0.35861 0.15676 0.0
C246 C 0.1755 0.35696 0.13357 0.0
C247 C 0.1642 0.3526 0.15645 0.0
C248 C 0.14708 0.35401 0.15751 0.0
C249 C 0.14021 0.35822 0.13502 0.0
C250 C 0.15061 0.36216 0.11203 0.0
C251 C 0.16831 0.36178 0.11127 0.0
H252 H 0.67995 0.90091 0.1285 0.0
H253 H 0.66878 0.84818 0.09028 0.0
H254 H 0.68695 0.85819 0.17046 0.0
H255 H 0.67251 0.82711 0.17354 0.0
H256 H 0.67281 0.77885 0.13639 0.0
H257 H 0.6782 0.82635 0.09054 0.0
C258 C 0.67944 0.88685 0.12912 0.0
C259 C 0.68303 0.88023 0.15225 0.0
C260 C 0.67479 0.87554 0.10683 0.0
C261 C 0.67345 0.85703 0.10754 0.0
C262 C 0.67777 0.85012 0.13051 0.0
C263 C 0.68311 0.86241 0.15259 0.0
C264 C 0.67618 0.83012 0.13188 0.0
C265 C 0.67403 0.82072 0.15595 0.0
C266 C 0.67318 0.80248 0.1578 0.0
C267 C 0.67345 0.79295 0.1353 0.0
C268 C 0.67462 0.80127 0.11122 0.0
C269 C 0.67652 0.81999 0.10943 0.0
H270 H 0.24512 0.89995 0.13937 0.0
H271 H 0.19589 0.85725 0.09592 0.0
H272 H 0.19609 0.85371 0.17913 0.0
H273 H 0.16418 0.84003 0.17505 0.0
H274 H 0.12172 0.78655 0.13861 0.0
H275 H 0.17528 0.82482 0.09916 0.0
C276 C 0.23073 0.88675 0.13902 0.0
C277 C 0.22135 0.87793 0.16207 0.0
C278 C 0.22183 0.87903 0.11532 0.0
C279 C 0.20276 0.86255 0.11447 0.0
C280 C 0.19287 0.85313 0.13749 0.0
C281 C 0.20265 0.86095 0.16118 0.0
C282 C 0.17267 0.83507 0.13713 0.0
C283 C 0.16003 0.83025 0.15869 0.0
C284 C 0.14177 0.81273 0.15948 0.0
C285 C 0.13566 0.80028 0.13811 0.0
C286 C 0.14752 0.80483 0.11632 0.0
C287 C 0.16603 0.82206 0.11581 0.0
H288 H 0.35486 0.12348 0.89315 0.0
H289 H 0.35057 0.16816 0.93464 0.0
H290 H 0.3526 0.16904 0.85124 0.0
H291 H 0.33575 0.18381 0.85412 0.0
H292 H 0.34822 0.23848 0.88779 0.0
H293 H 0.36162 0.20012 0.93032 0.0
C294 C 0.354 0.13684 0.89292 0.0
C295 C 0.35318 0.14506 0.86951 0.0
C296 C 0.3536 0.14543 0.91622 0.0
C297 C 0.35155 0.16221 0.91633 0.0
C298 C 0.35079 0.17102 0.89286 0.0
C299 C 0.35203 0.16232 0.86958 0.0
C300 C 0.34909 0.18932 0.89226 0.0
C301 C 0.34161 0.19393 0.87012 0.0
C302 C 0.34153 0.2117 0.86819 0.0
C303 C 0.34798 0.22458 0.88911 0.0
C304 C 0.35474 0.22019 0.91158 0.0
C305 C 0.35549 0.20273 0.91315 0.0
H306 H 0.79042 0.11695 0.89058 0.0
H307 H 0.82795 0.16933 0.93292 0.0
H308 H 0.84398 0.16079 0.85614 0.0
H309 H 0.85749 0.19242 0.85351 0.0
H310 H 0.90383 0.24036 0.89464 0.0
H311 H 0.86022 0.19088 0.93675 0.0
C312 C 0.80409 0.13091 0.89181 0.0
C313 C 0.81664 0.13787 0.87062 0.0
C314 C 0.80836 0.142 0.91431 0.0
C315 C 0.82543 0.16064 0.91572 0.0
C316 C 0.83859 0.16809 0.89461 0.0
C317 C 0.83408 0.15612 0.87238 0.0
C318 C 0.85652 0.18841 0.89506 0.0
C319 C 0.8646 0.19856 0.8717 0.0
C320 C 0.88175 0.21709 0.87136 0.0
C321 C 0.89051 0.22605 0.89463 0.0
C322 C 0.88252 0.21688 0.91806 0.0
C323 C 0.86575 0.19797 0.9184 0.0
H324 H 0.78466 0.66277 0.88791 0.0
H325 H 0.83625 0.67399 0.92947 0.0
H326 H 0.83413 0.66842 0.84633 0.0
H327 H 0.86564 0.68726 0.84818 0.0
H328 H 0.91282 0.68458 0.88524 0.0
H329 H 0.85902 0.66529 0.92624 0.0
C330 C 0.79943 0.6649 0.88775 0.0
C331 C 0.80858 0.66585 0.86438 0.0
C332 C 0.80914 0.66723 0.91109 0.0
C333 C 0.82875 0.67135 0.9112 0.0
C334 C 0.8384 0.67204 0.88782 0.0
C335 C 0.82778 0.66887 0.86455 0.0
C336 C 0.8593 0.67599 0.88746 0.0
C337 C 0.87107 0.6835 0.86508 0.0
C338 C 0.89019 0.68632 0.86407 0.0
C339 C 0.89814 0.68267 0.88597 0.0
C340 C 0.88702 0.67543 0.90837 0.0
C341 C 0.86758 0.67178 0.90906 0.0
H342 H 0.90314 0.67661 0.46765 0.0
H343 H 0.86534 0.6924 0.42795 0.0
H344 H 0.84991 0.66638 0.50393 0.0
H345 H 0.83833 0.68653 0.50823 0.0
H346 H 0.79237 0.69063 0.46979 0.0
H347 H 0.83255 0.68097 0.42526 0.0
C348 C 0.8895 0.67696 0.46712 0.0
C349 C 0.87707 0.67079 0.48851 0.0
C350 C 0.88507 0.68429 0.4452 0.0
C351 C 0.86802 0.68586 0.44464 0.0
C352 C 0.85516 0.67986 0.46603 0.0
C353 C 0.85973 0.67183 0.4876 0.0
C354 C 0.83765 0.68285 0.46668 0.0
C355 C 0.83078 0.6858 0.4905 0.0
C356 C 0.8144 0.68842 0.49179 0.0
C357 C 0.80519 0.68884 0.46903 0.0
C358 C 0.81197 0.68668 0.44515 0.0
C359 C 0.8279 0.68325 0.44388 0.0
H360 H 0.34676 0.23543 0.47011 0.0
H361 H 0.33284 0.18302 0.42891 0.0
H362 H 0.36051 0.19436 0.50416 0.0
H363 H 0.34621 0.16328 0.50792 0.0
H364 H 0.33848 0.11299 0.46655 0.0
H365 H 0.34278 0.16166 0.42454 0.0
C366 C 0.34707 0.22181 0.46903 0.0
C367 C 0.35406 0.21588 0.48987 0.0
C368 C 0.33994 0.21023 0.44695 0.0
C369 C 0.33932 0.19206 0.44575 0.0
C370 C 0.34628 0.18552 0.46656 0.0
C371 C 0.35415 0.19809 0.48826 0.0
C372 C 0.34467 0.1655 0.46628 0.0
C373 C 0.34494 0.15627 0.48964 0.0
C374 C 0.34361 0.13776 0.48983 0.0
C375 C 0.3405 0.1277 0.46662 0.0
C376 C 0.33992 0.13615 0.44332 0.0
C377 C 0.34253 0.15519 0.44296 0.0
H378 H 0.91168 0.2325 0.46762 0.0
H379 H 0.86192 0.18859 0.42632 0.0
H380 H 0.86151 0.19036 0.50974 0.0
H381 H 0.83025 0.17437 0.50634 0.0
H382 H 0.78801 0.11951 0.47313 0.0
H383 H 0.84045 0.1571 0.43118 0.0
C384 C 0.89685 0.21995 0.46792 0.0
C385 C 0.88706 0.21307 0.49131 0.0
C386 C 0.88793 0.21103 0.44472 0.0
C387 C 0.86874 0.19475 0.44464 0.0
C388 C 0.85869 0.18667 0.46812 0.0
C389 C 0.86836 0.19606 0.49136 0.0
C390 C 0.83848 0.16848 0.46869 0.0
C391 C 0.82615 0.16414 0.49052 0.0
C392 C 0.80817 0.14643 0.49242 0.0
C393 C 0.80181 0.13331 0.47176 0.0
C394 C 0.81321 0.13737 0.44958 0.0
C395 C 0.83154 0.1548 0.44807 0.0
H396 H 0.02007 0.45564 0.22666 0.0
H397 H 0.0324 0.50778 0.26749 0.0
H398 H 1.00754 0.49711 0.19068 0.0
H399 H 0.02557 0.52892 0.18696 0.0
H400 H 0.02721 0.57745 0.22624 0.0
H401 H 0.02076 0.52853 0.27009 0.0
C402 C 0.01965 0.46922 0.22731 0.0
C403 C 0.01331 0.47522 0.20583 0.0
C404 C 0.02594 0.48062 0.24962 0.0
C405 C 0.0266 0.49881 0.25042 0.0
C406 C 0.02051 0.5055 0.2289 0.0
C407 C 0.01328 0.49307 0.20701 0.0
C408 C 0.02237 0.52555 0.22855 0.0
C409 C 0.02454 0.53534 0.20485 0.0
C410 C 0.02604 0.55388 0.20383 0.0
C411 C 0.02621 0.56318 0.22676 0.0
C412 C 0.02488 0.55435 0.25053 0.0
C413 C 0.02246 0.53537 0.25152 0.0
H414 H 0.44523 0.45922 0.22027 0.0
H415 H 0.49448 0.49982 0.26524 0.0
H416 H 0.49376 0.50727 0.18253 0.0
H417 H 0.52503 0.52385 0.18496 0.0
H418 H 0.56918 0.57226 0.22797 0.0
H419 H 0.51609 0.53109 0.26573 0.0
C420 C 0.45957 0.47246 0.22119 0.0
C421 C 0.46887 0.48229 0.1986 0.0
C422 C 0.46853 0.47914 0.2451 0.0
C423 C 0.48761 0.49555 0.24654 0.0
C424 C 0.4974 0.5062 0.22402 0.0
C425 C 0.48748 0.49934 0.20015 0.0
C426 C 0.51759 0.52444 0.22527 0.0
C427 C 0.52968 0.5316 0.20302 0.0
C428 C 0.54785 0.54929 0.20358 0.0
C429 C 0.55485 0.55899 0.22703 0.0
C430 C 0.54356 0.55221 0.24931 0.0
C431 C 0.52485 0.53531 0.24842 0.0
H432 H 0.45453 1.00622 0.22455 0.0
H433 H 0.50292 0.00908 0.26577 0.0
H434 H 0.49836 1.00065 0.18296 0.0
H435 H 0.52958 0.01341 0.18331 0.0
H436 H 0.57253 1.00454 0.22183 0.0
H437 H 0.52297 0.99763 0.26426 0.0
C438 C 0.46815 1.00582 0.22429 0.0
C439 C 0.47575 1.0038 0.20098 0.0
C440 C 0.47766 0.00714 0.24747 0.0
C441 C 0.49564 0.00734 0.24752 0.0
C442 C 0.50396 1.00548 0.22421 0.0
C443 C 0.49339 1.00329 0.20108 0.0
C444 C 0.52329 1.00558 0.22386 0.0
C445 C 0.53432 0.00963 0.20079 0.0
C446 C 0.55157 0.00843 0.19973 0.0
C447 C 0.55884 1.0048 0.22228 0.0
C448 C 0.54876 1.00135 0.24545 0.0
C449 C 0.53086 1.00131 0.24626 0.0
H450 H 0.57455 0.01658 0.80078 0.0
H451 H 0.53423 0.02899 0.76134 0.0
H452 H 0.52051 1.00324 0.83759 0.0
H453 H 0.50625 0.02124 0.8416 0.0
H454 H 0.45765 0.01972 0.80205 0.0
H455 H 0.50128 0.01493 0.75867 0.0
C456 C 0.56049 0.01609 0.80042 0.0
C457 C 0.54816 0.00927 0.82187 0.0
C458 C 0.55531 0.02273 0.77853 0.0
C459 C 0.53758 0.02306 0.77811 0.0
C460 C 0.5248 0.01644 0.79964 0.0
C461 C 0.53022 0.00917 0.82121 0.0
C462 C 0.50619 0.0175 0.80011 0.0
C463 C 0.49848 0.01962 0.82377 0.0
C464 C 0.48094 0.0203 0.82468 0.0
C465 C 0.47129 0.01937 0.80168 0.0
C466 C 0.47883 0.01791 0.77804 0.0
C467 C 0.49604 0.01666 0.77717 0.0
H468 H 1.00663 0.56785 0.79958 0.0
H469 H 0.01055 0.52385 0.75589 0.0
H470 H 1.00057 0.51733 0.83831 0.0
H471 H 0.01448 0.50007 0.83754 0.0
H472 H 1.00691 0.44932 0.79758 0.0
H473 H 0.99962 0.49221 0.75626 0.0
C474 C 1.00632 0.5539 0.79891 0.0
C475 C 1.00398 0.54355 0.82164 0.0
C476 C 1.0082 0.54662 0.77524 0.0
C477 C 1.00837 0.52879 0.77433 0.0
C478 C 1.00626 0.51797 0.79716 0.0
C479 C 1.0035 0.52549 0.8206 0.0
C480 C 1.00689 0.49904 0.79692 0.0
C481 C 0.01094 0.49183 0.81983 0.0
C482 C 0.01012 0.47356 0.82044 0.0
C483 C 1.00687 0.46311 0.79756 0.0
C484 C 1.00353 0.47005 0.77452 0.0
C485 C 1.00315 0.48772 0.77417 0.0
H486 H 0.58222 0.56452 0.80304 0.0
H487 H 0.53368 0.52222 0.7585 0.0
H488 H 0.53535 0.51504 0.8411 0.0
H489 H 0.50387 0.49809 0.83858 0.0
H490 H 0.46147 0.44775 0.7967 0.0
H491 H 0.51357 0.49036 0.75828 0.0
C492 C 0.56822 0.55088 0.80228 0.0
C493 C 0.55945 0.54077 0.82495 0.0
C494 C 0.55923 0.54386 0.77846 0.0
C495 C 0.54061 0.52683 0.77713 0.0
C496 C 0.5313 0.51599 0.79969 0.0
C497 C 0.54126 0.52317 0.8235 0.0
C498 C 0.5116 0.4972 0.79854 0.0
C499 C 0.49957 0.48995 0.82076 0.0
C500 C 0.48194 0.47176 0.8205 0.0
C501 C 0.47543 0.46145 0.79738 0.0
C502 C 0.48665 0.46828 0.77504 0.0
C503 C 0.5048 0.48593 0.77559 0.0
H504 H 0.69011 0.79305 0.56145 0.0
H505 H 0.69988 0.84468 0.60114 0.0
H506 H 0.67237 0.83066 0.52571 0.0
H507 H 0.68542 0.86167 0.52086 0.0
H508 H 0.68999 0.91143 0.56031 0.0
H509 H 0.68844 0.86478 0.60422 0.0
C510 C 0.68869 0.80608 0.56192 0.0
C511 C 0.68085 0.81076 0.54076 0.0
C512 C 0.6949 0.81794 0.58382 0.0
C513 C 0.6941 0.83538 0.58436 0.0
C514 C 0.68657 0.84086 0.56309 0.0
C515 C 0.67936 0.82785 0.54173 0.0
C516 C 0.68683 0.86024 0.56261 0.0
C517 C 0.68614 0.8688 0.53887 0.0
C518 C 0.68642 0.8868 0.53795 0.0
C519 C 0.68878 0.89706 0.56082 0.0
C520 C 0.68983 0.88929 0.58447 0.0
C521 C 0.6883 0.87071 0.58554 0.0
H522 H 0.12219 0.78268 0.557 0.0
H523 H 0.16592 0.83125 0.60017 0.0
H524 H 0.16889 0.83083 0.51682 0.0
H525 H 0.19991 0.85031 0.52163 0.0
H526 H 0.23578 0.90621 0.55729 0.0
H527 H 0.1847 0.86294 0.59673 0.0
C528 C 0.1358 0.79673 0.55735 0.0
C529 C 0.14539 0.80533 0.53433 0.0
C530 C 0.14295 0.80628 0.58082 0.0
C531 C 0.16044 0.82457 0.58159 0.0
C532 C 0.17053 0.83388 0.55858 0.0
C533 C 0.16233 0.82407 0.53497 0.0
C534 C 0.18918 0.85375 0.55886 0.0
C535 C 0.20227 0.86005 0.53759 0.0
C536 C 0.21894 0.87898 0.53672 0.0
C537 C 0.22304 0.89151 0.55774 0.0
C538 C 0.21105 0.88551 0.57949 0.0
C539 C 0.19407 0.86681 0.58002 0.0
H540 H 0.11632 0.33155 0.56256 0.0
H541 H 0.16024 0.32551 0.60322 0.0
H542 H 0.16742 0.34073 0.52204 0.0
H543 H 0.18622 0.32876 0.5205 0.0
H544 H 0.23564 0.33241 0.55981 0.0
H545 H 0.19149 0.33581 0.60354 0.0
C546 C 0.13031 0.33188 0.56241 0.0
C547 C 0.14072 0.3355 0.53945 0.0
C548 C 0.13749 0.32861 0.58528 0.0
C549 C 0.15557 0.32898 0.58541 0.0
C550 C 0.1669 0.33314 0.56257 0.0
C551 C 0.15929 0.33695 0.53982 0.0
C552 C 0.18611 0.33293 0.56204 0.0
C553 C 0.19401 0.33096 0.5384 0.0
C554 C 0.21196 0.33111 0.53739 0.0
C555 C 0.22178 0.33232 0.56028 0.0
C556 C 0.21407 0.33339 0.58396 0.0
C557 C 0.19662 0.33423 0.58492 0.0
C558 C 0.02377 0.41555 0.0931 0.0
C559 C 1.00826 0.40622 0.07549 0.0
C560 C 0.02278 0.42671 0.11349 0.0
C561 C 1.00603 0.42894 0.11604 0.0
C562 C 0.99041 0.41973 0.0981 0.0
C563 C 0.99162 0.4083 0.07818 0.0
C564 C 0.0396 0.43599 0.13246 0.0
C565 C 0.9725 0.42207 0.09988 0.0
C566 C 0.99819 0.44265 0.18311 0.0
C567 C 1.00818 0.46328 0.18179 0.0
C568 C 0.99664 0.43122 0.16156 0.0
C569 C 1.00487 0.44059 0.13788 0.0
C570 C 0.01357 0.46128 0.13588 0.0
C571 C 0.01525 0.4724 0.1579 0.0
C572 C 0.98732 0.40923 0.16461 0.0
C573 C 0.02213 0.47179 0.11084 0.0
H574 H 0.03663 0.41394 0.09113 0.0
H575 H 0.97966 0.40123 0.06444 0.0
H576 H 0.04607 0.45218 0.13254 0.0
H577 H 0.03411 0.43066 0.15216 0.0
H578 H 0.05143 0.43262 0.12798 0.0
H579 H 0.96186 0.41437 0.08404 0.0
H580 H 0.96491 0.41618 0.11847 0.0
H581 H 0.97704 0.4379 0.0993 0.0
H582 H 0.99225 0.43543 0.20133 0.0
H583 H 0.02306 0.48831 0.15665 0.0
H584 H 0.99876 0.40498 0.1624 0.0
H585 H 0.97612 0.40145 0.14943 0.0
H586 H 0.98023 0.40406 0.18368 0.0
H587 H 0.03572 0.47135 0.10644 0.0
H588 H 0.02586 0.48741 0.11154 0.0
H589 H 0.01163 0.46434 0.09482 0.0
C590 C 0.62887 0.60684 0.09564 0.0
C591 C 0.62118 0.61146 0.07417 0.0
C592 C 0.61651 0.59519 0.11566 0.0
C593 C 0.59596 0.58778 0.11397 0.0
C594 C 0.58806 0.59181 0.09185 0.0
C595 C 0.60078 0.60372 0.07232 0.0
C596 C 0.62554 0.59145 0.13907 0.0
C597 C 0.56623 0.58402 0.08914 0.0
C598 C 0.56223 0.54756 0.16085 0.0
C599 C 0.55933 0.55858 0.17976 0.0
C600 C 0.57393 0.55678 0.13909 0.0
C601 C 0.58299 0.57747 0.13633 0.0
C602 C 0.57979 0.58856 0.15513 0.0
C603 C 0.56789 0.57898 0.17638 0.0
C604 C 0.57679 0.54445 0.11923 0.0
C605 C 0.58914 0.61063 0.15299 0.0
H606 H 0.64463 0.61275 0.09713 0.0
H607 H 0.59472 0.60708 0.05562 0.0
H608 H 0.62335 0.59867 0.15607 0.0
H609 H 0.61814 0.57547 0.14318 0.0
H610 H 0.64156 0.59714 0.13672 0.0
H611 H 0.56225 0.58688 0.06976 0.0
H612 H 0.55789 0.56796 0.0928 0.0
H613 H 0.56142 0.59108 0.10366 0.0
H614 H 0.55573 0.53182 0.16333 0.0
H615 H 0.56533 0.58757 0.19054 0.0
H616 H 0.59258 0.5488 0.11824 0.0
H617 H 0.5725 0.54706 0.09996 0.0
H618 H 0.56805 0.52848 0.12359 0.0
H619 H 0.6054 0.61751 0.15212 0.0
H620 H 0.58533 0.61711 0.16943 0.0
H621 H 0.58432 0.61451 0.13496 0.0
C622 C 0.41578 0.02243 0.0937 0.0
C623 C 0.40915 0.00917 0.07307 0.0
C624 C 0.42739 0.02112 0.11332 0.0
C625 C 0.43267 1.00634 0.11211 0.0
C626 C 0.42634 0.99317 0.09103 0.0
C627 C 0.41456 0.99467 0.07185 0.0
C628 C 0.43367 0.03531 0.13562 0.0
C629 C 0.43182 0.97736 0.0889 0.0
C630 C 0.47514 0.01388 0.15528 0.0
C631 C 0.46505 1.00248 0.17673 0.0
C632 C 0.46483 0.01477 0.13366 0.0
C633 C 0.44396 1.00409 0.1336 0.0
C634 C 0.43376 0.99188 0.15472 0.0
C635 C 0.44442 0.99113 0.1759 0.0
C636 C 0.47623 0.02775 0.11134 0.0
C637 C 0.41154 0.98021 0.15544 0.0
H638 H 0.41166 0.03367 0.09473 0.0
H639 H 0.40959 0.98447 0.05584 0.0
H640 H 0.42745 0.02709 0.15375 0.0
H641 H 0.44993 0.04328 0.13758 0.0
H642 H 0.42877 0.04626 0.13337 0.0
H643 H 0.42664 0.96899 0.07061 0.0
H644 H 0.44803 0.98397 0.09018 0.0
H645 H 0.42532 0.9669 0.10514 0.0
H646 H 0.49106 0.02277 0.15582 0.0
H647 H 0.43653 0.98198 0.19221 0.0
H648 H 0.47354 0.04029 0.11002 0.0
H649 H 0.47115 0.01944 0.09303 0.0
H650 H 0.49233 0.03366 0.11331 0.0
H651 H 0.40561 0.99039 0.15521 0.0
H652 H 0.40588 0.97078 0.17281 0.0
H653 H 0.40575 0.97073 0.13815 0.0
C654 C 0.43178 0.02935 0.95638 0.0
C655 C 0.4116 0.01551 0.95512 0.0
C656 C 0.44469 0.03063 0.93683 0.0
C657 C 0.43719 0.01794 0.91532 0.0
C658 C 0.41685 1.0038 0.91407 0.0
C659 C 0.40432 1.00268 0.93407 0.0
C660 C 0.4663 0.04574 0.93902 0.0
C661 C 0.40824 0.99014 0.89132 0.0
C662 C 0.46374 0.03366 0.85134 0.0
C663 C 0.47213 0.02159 0.84943 0.0
C664 C 0.45277 0.03296 0.87296 0.0
C665 C 0.45035 0.02009 0.89343 0.0
C666 C 0.4597 0.00868 0.89231 0.0
C667 C 0.47044 0.00951 0.87025 0.0
C668 C 0.44309 0.04541 0.87337 0.0
C669 C 0.45769 0.995 0.91393 0.0
H670 H 0.43752 0.03921 0.97272 0.0
H671 H 0.38874 0.99195 0.933 0.0
H672 H 0.4753 0.03855 0.93694 0.0
H673 H 0.47058 0.05663 0.92327 0.0
H674 H 0.46997 0.05369 0.95767 0.0
H675 H 0.39224 0.97963 0.89359 0.0
H676 H 0.41048 0.99885 0.87358 0.0
H677 H 0.41592 0.98167 0.8886 0.0
H678 H 0.46533 0.04333 0.83554 0.0
H679 H 0.4768 1.00008 0.86887 0.0
H680 H 0.44731 0.05453 0.89104 0.0
H681 H 0.42685 0.03575 0.87368 0.0
H682 H 0.44712 0.05527 0.85641 0.0
H683 H 0.46136 1.00291 0.93258 0.0
H684 H 0.46736 0.98858 0.91122 0.0
H685 H 0.44221 0.98282 0.91511 0.0
C686 C 1.00621 0.42249 0.95559 0.0
C687 C 0.01713 0.41284 0.95421 0.0
C688 C 1.00625 0.43424 0.93524 0.0
C689 C 0.01736 0.43627 0.91287 0.0
C690 C 0.02892 0.42708 0.91171 0.0
C691 C 0.02871 0.41551 0.93244 0.0
C692 C 0.99382 0.44388 0.93731 0.0
C693 C 0.04088 0.4288 0.88815 0.0
C694 C 0.99864 0.4446 0.8496 0.0
C695 C 0.01172 0.46463 0.84492 0.0
C696 C 1.00032 0.43532 0.87164 0.0
C697 C 0.01534 0.44633 0.88976 0.0
C698 C 0.02831 0.46668 0.88558 0.0
C699 C 0.02636 0.47561 0.86316 0.0
C700 C 0.98612 0.41361 0.87535 0.0
C701 C 0.0444 0.47892 0.90458 0.0
H702 H 0.99734 0.42061 0.97245 0.0
H703 H 0.03723 0.40814 0.9313 0.0
H704 H 1.00267 0.45972 0.93242 0.0
H705 H 0.98148 0.43702 0.92334 0.0
H706 H 0.98758 0.44244 0.95686 0.0
H707 H 0.05027 0.42209 0.89106 0.0
H708 H 0.03086 0.42135 0.87169 0.0
H709 H 0.05042 0.44447 0.88281 0.0
H710 H 0.98703 0.4361 0.83588 0.0
H711 H 0.03656 0.49106 0.85962 0.0
H712 H 0.97802 0.41113 0.89368 0.0
H713 H 0.99435 0.40556 0.87657 0.0
H714 H 0.97524 0.40718 0.85945 0.0
H715 H 0.03804 0.47767 0.92398 0.0
H716 H 0.05274 0.4947 0.89908 0.0
H717 H 0.05483 0.47333 0.90597 0.0
C718 C 0.61729 0.61688 0.93521 0.0
C719 C 0.62331 0.60988 0.95607 0.0
C720 C 0.60598 0.60423 0.91518 0.0
C721 C 0.6003 0.58405 0.91625 0.0
C722 C 0.60592 0.57682 0.93762 0.0
C723 C 0.61749 0.58985 0.95717 0.0
C724 C 0.60051 0.61257 0.89257 0.0
C725 C 0.59992 0.55537 0.93966 0.0
C726 C 0.55884 0.55043 0.87087 0.0
C727 C 0.56942 0.54921 0.84994 0.0
C728 C 0.56862 0.56107 0.8931 0.0
C729 C 0.58945 0.57082 0.89429 0.0
C730 C 0.6001 0.56882 0.87373 0.0
C731 C 0.58996 0.55791 0.85196 0.0
C732 C 0.55673 0.56257 0.91483 0.0
C733 C 0.62231 0.57897 0.87417 0.0
H734 H 0.62175 0.63234 0.93428 0.0
H735 H 0.62196 0.58433 0.97338 0.0
H736 H 0.60707 0.6106 0.87474 0.0
H737 H 0.58431 0.60453 0.88991 0.0
H738 H 0.60564 0.62847 0.89496 0.0
H739 H 0.60439 0.55185 0.95828 0.0
H740 H 0.58373 0.54603 0.93753 0.0
H741 H 0.60675 0.55138 0.92387 0.0
H742 H 0.543 0.54384 0.86942 0.0
H743 H 0.5982 0.55668 0.83608 0.0
H744 H 0.55953 0.57785 0.91609 0.0
H745 H 0.56127 0.55915 0.93342 0.0
H746 H 0.54067 0.55248 0.91216 0.0
H747 H 0.62857 0.59514 0.87459 0.0
H748 H 0.62832 0.5752 0.85716 0.0
H749 H 0.62741 0.57491 0.89179 0.0
C750 C 0.02476 0.62008 0.93184 0.0
C751 C 0.01208 0.61317 0.95302 0.0
C752 C 0.02281 0.60742 0.91159 0.0
C753 C 1.00791 0.58736 0.91267 0.0
C754 C 0.99529 0.58024 0.93424 0.0
C755 C 0.99747 0.59326 0.95411 0.0
C756 C 0.03648 0.61559 0.88881 0.0
C757 C 0.97933 0.55893 0.93617 0.0
C758 C 0.9915 0.5615 0.84832 0.0
C759 C 1.00281 0.55228 0.84645 0.0
C760 C 0.99257 0.57246 0.87013 0.0
C761 C 1.0051 0.57409 0.89071 0.0
C762 C 0.01572 0.56391 0.88957 0.0
C763 C 0.01447 0.55314 0.86739 0.0
C764 C 0.98094 0.58301 0.87063 0.0
C765 C 0.02906 0.56512 0.91127 0.0
H766 H 0.03607 0.63546 0.93093 0.0
H767 H 0.98768 0.58781 0.97053 0.0
H768 H 0.04431 0.60728 0.88591 0.0
H769 H 0.02783 0.61381 0.87112 0.0
H770 H 0.04757 0.63142 0.89119 0.0
H771 H 0.97132 0.55554 0.95474 0.0
H772 H 0.96858 0.55523 0.92031 0.0
H773 H 0.98578 0.54926 0.93406 0.0
H774 H 0.9822 0.56059 0.83234 0.0
H775 H 0.02334 0.54615 0.86599 0.0
H776 H 0.99119 0.59914 0.87089 0.0
H777 H 0.97193 0.57921 0.88835 0.0
H778 H 0.97105 0.57934 0.85372 0.0
H779 H 0.04173 0.58033 0.91266 0.0
H780 H 0.03481 0.5549 0.90848 0.0
H781 H 0.0211 0.56168 0.92985 0.0
C782 C 0.40091 0.41364 0.9278 0.0
C783 C 0.40883 0.40991 0.9498 0.0
C784 C 0.41319 0.42534 0.90779 0.0
C785 C 0.43386 0.43373 0.91006 0.0
C786 C 0.44194 0.43065 0.93271 0.0
C787 C 0.42932 0.41864 0.95222 0.0
C788 C 0.404 0.42806 0.88378 0.0
C789 C 0.4639 0.43953 0.93601 0.0
C790 C 0.46286 0.44246 0.84861 0.0
C791 C 0.47052 0.46265 0.84436 0.0
C792 C 0.45094 0.43297 0.86985 0.0
C793 C 0.44684 0.44397 0.88775 0.0
C794 C 0.45503 0.46449 0.88415 0.0
C795 C 0.46674 0.4736 0.8624 0.0
C796 C 0.44251 0.41107 0.87291 0.0
C797 C 0.45119 0.47672 0.90309 0.0
H798 H 0.38508 0.40695 0.92591 0.0
H799 H 0.43552 0.41599 0.96934 0.0
H800 H 0.4108 0.44391 0.87907 0.0
H801 H 0.40679 0.42081 0.86732 0.0
H802 H 0.38785 0.42175 0.88574 0.0
H803 H 0.46791 0.43742 0.95577 0.0
H804 H 0.4694 0.43264 0.92223 0.0
H805 H 0.47159 0.4555 0.93173 0.0
H806 H 0.46612 0.43397 0.83512 0.0
H807 H 0.47256 0.48918 0.85922 0.0
H808 H 0.42619 0.40351 0.87343 0.0
H809 H 0.44746 0.40794 0.89138 0.0
H810 H 0.44695 0.40463 0.85707 0.0
H811 H 0.43523 0.47169 0.90354 0.0
H812 H 0.45939 0.49262 0.8982 0.0
H813 H 0.45547 0.47478 0.92273 0.0
C814 C 0.62075 0.01829 0.92981 0.0
C815 C 0.6149 1.00289 0.94743 0.0
C816 C 0.60797 0.0174 0.91032 0.0
C817 C 0.58873 1.00086 0.90871 0.0
C818 C 0.58267 0.98534 0.92662 0.0
C819 C 0.59591 0.98645 0.94565 0.0
C820 C 0.61511 0.03413 0.89132 0.0
C821 C 0.56219 0.96764 0.92578 0.0
C822 C 0.55376 0.01072 0.86952 0.0
C823 C 0.55506 1.00363 0.84529 0.0
C824 C 0.56365 0.00879 0.89087 0.0
C825 C 0.57527 0.99979 0.88779 0.0
C826 C 0.57553 0.99144 0.86381 0.0
C827 C 0.56525 0.99327 0.84295 0.0
C828 C 0.56266 0.0175 0.91629 0.0
C829 C 0.58777 0.98176 0.85965 0.0
H830 H 0.63542 0.031 0.93112 0.0
H831 H 0.59128 0.97459 0.95942 0.0
H832 H 0.61416 0.02849 0.8715 0.0
H833 H 0.60557 0.04079 0.89213 0.0
H834 H 0.63056 0.04581 0.89506 0.0
H835 H 0.55962 0.95704 0.94147 0.0
H836 H 0.55111 0.97241 0.92736 0.0
H837 H 0.55968 0.95995 0.90709 0.0
H838 H 0.54597 0.01878 0.8715 0.0
H839 H 0.56595 0.98737 0.82441 0.0
H840 H 0.57695 0.03102 0.92012 0.0
H841 H 0.56001 0.00706 0.93219 0.0
H842 H 0.55088 0.0214 0.91652 0.0
H843 H 0.60362 0.99302 0.86094 0.0
H844 H 0.58497 0.97445 0.84059 0.0
H845 H 0.58472 0.97069 0.87482 0.0
C846 C 0.62788 0.0253 0.08872 0.0
C847 C 0.6188 0.01413 0.06667 0.0
C848 C 0.6166 0.02606 0.10914 0.0
C849 C 0.59578 0.01548 0.10738 0.0
C850 C 0.58659 1.00496 0.08465 0.0
C851 C 0.59821 1.00435 0.06461 0.0
C852 C 0.62693 0.0374 0.13311 0.0
C853 C 0.56446 0.99357 0.08196 0.0
C854 C 0.56785 0.99627 0.16978 0.0
C855 C 0.56179 0.00993 0.17509 0.0
C856 C 0.57879 0.99792 0.14777 0.0
C857 C 0.58364 0.0135 0.13035 0.0
C858 C 0.57707 0.02703 0.1351 0.0
C859 C 0.56619 0.02509 0.15749 0.0
C860 C 0.58541 0.9831 0.14341 0.0
C861 C 0.58185 0.04372 0.11681 0.0
H862 H 0.64378 0.03297 0.09034 0.0
H863 H 0.59111 0.99585 0.0475 0.0
H864 H 0.62131 0.04729 0.13877 0.0
H865 H 0.62383 0.02699 0.14921 0.0
H866 H 0.64314 0.04634 0.13052 0.0
H867 H 0.55971 0.98802 0.06208 0.0
H868 H 0.55821 0.98082 0.09525 0.0
H869 H 0.55813 1.00291 0.08733 0.0
H870 H 0.56414 0.98428 0.18306 0.0
H871 H 0.56158 0.0357 0.16157 0.0
H872 H 0.60172 0.99072 0.14259 0.0
H873 H 0.57974 0.97557 0.1247 0.0
H874 H 0.58029 0.97179 0.15879 0.0
H875 H 0.59802 0.05372 0.11602 0.0
H876 H 0.57483 0.05239 0.12259 0.0
H877 H 0.57689 0.03795 0.0971 0.0
C878 C 1.0078 0.61244 0.09454 0.0
C879 C 0.01983 0.61696 0.07281 0.0
C880 C 1.00905 0.60125 0.11472 0.0
C881 C 0.0225 0.59424 0.11294 0.0
C882 C 0.03435 0.5984 0.09078 0.0
C883 C 0.03296 0.60981 0.07104 0.0
C884 C 0.9963 0.59728 0.13817 0.0
C885 C 0.04869 0.59101 0.08806 0.0
C886 C 0.03957 0.58397 0.17623 0.0
C887 C 0.02691 0.56363 0.17898 0.0
C888 C 0.03859 0.59401 0.15454 0.0
C889 C 0.02481 0.58343 0.13489 0.0
C890 C 0.01274 0.56275 0.13685 0.0
C891 C 0.01388 0.55308 0.15895 0.0
C892 C 0.05177 0.61607 0.15317 0.0
C893 C 0.99806 0.55094 0.11611 0.0
H894 H 0.99763 0.61792 0.09597 0.0
H895 H 0.04219 0.61313 0.05418 0.0
H896 H 0.98735 0.58122 0.14164 0.0
H897 H 1.00572 0.60394 0.15537 0.0
H898 H 0.98623 0.60331 0.13627 0.0
H899 H 0.05603 0.59459 0.069 0.0
H900 H 0.06017 0.59765 0.10319 0.0
H901 H 0.04097 0.57484 0.09079 0.0
H902 H 0.04994 0.59215 0.19144 0.0
H903 H 1.00399 0.53739 0.16102 0.0
H904 H 0.04266 0.62321 0.15321 0.0
H905 H 0.06029 0.62026 0.135 0.0
H906 H 0.06226 0.62198 0.16954 0.0
H907 H 0.98633 0.55488 0.11542 0.0
H908 H 0.99107 0.53485 0.11941 0.0
H909 H 1.00532 0.55447 0.09703 0.0
C910 C 0.41056 0.40514 0.09037 0.0
C911 C 0.40559 0.41202 0.06839 0.0
C912 C 0.42168 0.41807 0.11024 0.0
C913 C 0.42819 0.43839 0.1079 0.0
C914 C 0.42353 0.44546 0.08551 0.0
C915 C 0.41218 0.43216 0.06609 0.0
C916 C 0.42617 0.40993 0.13394 0.0
C917 C 0.4304 0.46704 0.08219 0.0
C918 C 0.43873 0.46616 0.17086 0.0
C919 C 0.45911 0.47395 0.17352 0.0
C920 C 0.4286 0.45511 0.14919 0.0
C921 C 0.43912 0.45202 0.12944 0.0
C922 C 0.45987 0.46092 0.13119 0.0
C923 C 0.46963 0.47174 0.15329 0.0
C924 C 0.40648 0.4459 0.14808 0.0
C925 C 0.47164 0.45821 0.11033 0.0
H926 H 0.40551 0.38959 0.09221 0.0
H927 H 0.4085 0.43758 0.04903 0.0
H928 H 0.44232 0.41737 0.13706 0.0
H929 H 0.41966 0.41288 0.15109 0.0
H930 H 0.42033 0.39383 0.13258 0.0
H931 H 0.42635 0.4703 0.0631 0.0
H932 H 0.42382 0.4719 0.09731 0.0
H933 H 0.44662 0.47589 0.08447 0.0
H934 H 0.43058 0.46814 0.18624 0.0
H935 H 0.48535 0.47763 0.15527 0.0
H936 H 0.39951 0.42965 0.14878 0.0
H937 H 0.40197 0.44968 0.12972 0.0
H938 H 0.40065 0.45072 0.16424 0.0
H939 H 0.46817 0.44268 0.11007 0.0
H940 H 0.48775 0.46782 0.11322 0.0
H941 H 0.46761 0.46141 0.09122 0.0
C942 C 0.68997 0.74962 0.4285 0.0
C943 C 0.67346 0.73864 0.41287 0.0
C944 C 0.68952 0.76138 0.44849 0.0
C945 C 0.6723 0.76258 0.45252 0.0
C946 C 0.65571 0.75182 0.43643 0.0
C947 C 0.65641 0.73976 0.41699 0.0
C948 C 0.70738 0.77229 0.46556 0.0
C949 C 0.63728 0.75307 0.43972 0.0
C950 C 0.66665 0.77763 0.51979 0.0
C951 C 0.67538 0.79812 0.51735 0.0
C952 C 0.66492 0.76579 0.49866 0.0
C953 C 0.67156 0.77455 0.47424 0.0
C954 C 0.67892 0.79498 0.47119 0.0
C955 C 0.6809 0.80657 0.49283 0.0
C956 C 0.65711 0.7441 0.50284 0.0
C957 C 0.68567 0.80478 0.44533 0.0
H958 H 0.70316 0.74874 0.42538 0.0
H959 H 0.64368 0.73144 0.40473 0.0
H960 H 0.71287 0.78831 0.46472 0.0
H961 H 0.70332 0.76761 0.48582 0.0
H962 H 0.71954 0.76969 0.45998 0.0
H963 H 0.62601 0.74452 0.42485 0.0
H964 H 0.63078 0.74744 0.45893 0.0
H965 H 0.64092 0.76864 0.43872 0.0
H966 H 0.66186 0.77089 0.53854 0.0
H967 H 0.68772 0.82237 0.4907 0.0
H968 H 0.66904 0.74071 0.49935 0.0
H969 H 0.64511 0.73527 0.48901 0.0
H970 H 0.65144 0.73937 0.52265 0.0
H971 H 0.6995 0.80516 0.43981 0.0
H972 H 0.68843 0.8201 0.44547 0.0
H973 H 0.67453 0.7963 0.43034 0.0
C974 C 0.29119 0.92871 0.41483 0.0
C975 C 0.29182 0.9467 0.41128 0.0
C976 C 0.27918 0.91541 0.43387 0.0
C977 C 0.26793 0.92047 0.45009 0.0
C978 C 0.26867 0.93872 0.44667 0.0
C979 C 0.28043 0.95151 0.42711 0.0
C980 C 0.27844 0.89593 0.43654 0.0
C981 C 0.25723 0.94487 0.46389 0.0
C982 C 0.22371 0.88365 0.48893 0.0
C983 C 0.23186 0.88647 0.51364 0.0
C984 C 0.23551 0.89372 0.46765 0.0
C985 C 0.25586 0.90712 0.47128 0.0
C986 C 0.26436 0.90906 0.49588 0.0
C987 C 0.25231 0.89852 0.51664 0.0
C988 C 0.226 0.89087 0.44159 0.0
C989 C 0.28594 0.92326 0.50067 0.0
H990 H 0.29981 0.92486 0.40241 0.0
H991 H 0.28091 0.96542 0.42442 0.0
H992 H 0.2838 0.89479 0.45584 0.0
H993 H 0.263 0.8837 0.43483 0.0
H994 H 0.28749 0.8939 0.42179 0.0
H995 H 0.25955 0.95962 0.45885 0.0
H996 H 0.24127 0.93402 0.46255 0.0
H997 H 0.26169 0.94515 0.48421 0.0
H998 H 0.20794 0.8744 0.48641 0.0
H999 H 0.25881 0.90041 0.53557 0.0
H1000 H 0.23488 0.88883 0.42665 0.0
H1001 H 0.22529 0.9042 0.43641 0.0
H1002 H 0.21081 0.87802 0.44121 0.0
H1003 H 0.29513 0.92075 0.48673 0.0
H1004 H 0.29053 0.92196 0.52044 0.0
H1005 H 0.28903 0.93854 0.49787 0.0
C1006 C 0.08063 0.35504 0.43192 0.0
C1007 C 0.07727 0.34378 0.40962 0.0
C1008 C 0.09243 0.35458 0.45191 0.0
C1009 C 0.1013 0.34279 0.44936 0.0
C1010 C 0.09846 0.3319 0.42651 0.0
C1011 C 0.08636 0.33241 0.407 0.0
C1012 C 0.09487 0.36618 0.47613 0.0
C1013 C 0.10784 0.31934 0.42292 0.0
C1014 C 0.14191 0.35158 0.49696 0.0
C1015 C 0.13137 0.33685 0.51519 0.0
C1016 C 0.13245 0.35349 0.47505 0.0
C1017 C 0.112 0.34046 0.47149 0.0
C1018 C 0.10147 0.32527 0.4895 0.0
C1019 C 0.1113 0.32355 0.51091 0.0
C1020 C 0.14421 0.36968 0.45601 0.0
C1021 C 0.07966 0.31107 0.4865 0.0
H1022 H 0.07368 0.3639 0.434 0.0
H1023 H 0.08399 0.32385 0.38966 0.0
H1024 H 0.08811 0.35595 0.49255 0.0
H1025 H 0.11071 0.3758 0.48064 0.0
H1026 H 0.08792 0.37545 0.47454 0.0
H1027 H 0.10565 0.31321 0.40317 0.0
H1028 H 0.12387 0.32807 0.42692 0.0
H1029 H 0.10141 0.30695 0.43676 0.0
H1030 H 0.15739 0.36194 0.50016 0.0
H1031 H 0.10316 0.31181 0.52458 0.0
H1032 H 0.13885 0.38032 0.45586 0.0
H1033 H 0.14214 0.36351 0.43633 0.0
H1034 H 0.16018 0.37773 0.46061 0.0
H1035 H 0.07155 0.31927 0.48637 0.0
H1036 H 0.07367 0.30001 0.50219 0.0
H1037 H 0.07669 0.30321 0.46788 0.0
C1038 C 0.06923 0.33281 0.26815 0.0
C1039 C 0.07762 0.34438 0.29009 0.0
C1040 C 0.08108 0.33318 0.24772 0.0
C1041 C 0.10181 0.34516 0.24953 0.0
C1042 C 0.11038 0.3562 0.27215 0.0
C1043 C 0.09817 0.35583 0.29207 0.0
C1044 C 0.07137 0.32145 0.22374 0.0
C1045 C 0.13242 0.3689 0.27499 0.0
C1046 C 0.13284 0.33724 0.19989 0.0
C1047 C 0.13656 0.35211 0.18208 0.0
C1048 C 0.12188 0.33499 0.22231 0.0
C1049 C 0.11433 0.34776 0.22676 0.0
C1050 C 0.11843 0.36302 0.20912 0.0
C1051 C 0.12966 0.36514 0.18725 0.0
C1052 C 0.11809 0.31877 0.24098 0.0
C1053 C 0.11063 0.37692 0.21306 0.0
H1054 H 0.05335 0.32391 0.2666 0.0
H1055 H 0.10472 0.36462 0.30917 0.0
H1056 H 0.07416 0.33162 0.20744 0.0
H1057 H 0.07776 0.31214 0.21855 0.0
H1058 H 0.0552 0.31186 0.22605 0.0
H1059 H 0.13681 0.37481 0.29479 0.0
H1060 H 0.13974 0.36037 0.27007 0.0
H1061 H 0.13799 0.38145 0.26144 0.0
H1062 H 0.13807 0.32709 0.19603 0.0
H1063 H 0.13292 0.377 0.17395 0.0
H1064 H 0.1021 0.30795 0.24166 0.0
H1065 H 0.12265 0.32488 0.26063 0.0
H1066 H 0.12606 0.31095 0.23562 0.0
H1067 H 0.09431 0.36849 0.21405 0.0
H1068 H 0.11505 0.38793 0.19738 0.0
H1069 H 0.11607 0.38486 0.23156 0.0
C1070 C 0.69064 0.7469 0.27258 0.0
C1071 C 0.67759 0.74213 0.29324 0.0
C1072 C 0.69008 0.75797 0.25173 0.0
C1073 C 0.6763 0.7646 0.25171 0.0
C1074 C 0.66358 0.76042 0.27297 0.0
C1075 C 0.6643 0.74913 0.2934 0.0
C1076 C 0.70378 0.76198 0.22931 0.0
C1077 C 0.64887 0.76744 0.27384 0.0
C1078 C 0.68484 0.80444 0.20331 0.0
C1079 C 0.67237 0.79326 0.18311 0.0
C1080 C 0.68588 0.79541 0.22612 0.0
C1081 C 0.6743 0.77472 0.22868 0.0
C1082 C 0.66116 0.76347 0.20875 0.0
C1083 C 0.66025 0.77288 0.18635 0.0
C1084 C 0.69986 0.80793 0.24711 0.0
C1085 C 0.64852 0.74138 0.21071 0.0
H1086 H 0.70094 0.74152 0.27238 0.0
H1087 H 0.65427 0.74561 0.30943 0.0
H1088 H 0.69506 0.75466 0.21182 0.0
H1089 H 0.71231 0.77798 0.22529 0.0
H1090 H 0.71425 0.75662 0.23282 0.0
H1091 H 0.64116 0.76432 0.29262 0.0
H1092 H 0.65632 0.78349 0.27018 0.0
H1093 H 0.6377 0.76008 0.25848 0.0
H1094 H 0.69434 0.82017 0.2009 0.0
H1095 H 0.65029 0.76419 0.17104 0.0
H1096 H 0.71182 0.80439 0.24916 0.0
H1097 H 0.69206 0.80467 0.2658 0.0
H1098 H 0.7066 0.8239 0.24308 0.0
H1099 H 0.65804 0.73473 0.21233 0.0
H1100 H 0.6387 0.73485 0.19379 0.0
H1101 H 0.63932 0.73732 0.22828 0.0
C1102 C 0.27826 0.92635 0.29471 0.0
C1103 C 0.28588 0.94673 0.29314 0.0
C1104 C 0.26631 0.91372 0.27511 0.0
C1105 C 0.26209 0.92168 0.25325 0.0
C1106 C 0.2694 0.9422 0.25182 0.0
C1107 C 0.28111 0.95448 0.27188 0.0
C1108 C 0.25858 0.8919 0.27751 0.0
C1109 C 0.26538 0.95128 0.2287 0.0
C1110 C 0.25156 0.89465 0.18964 0.0
C1111 C 0.23121 0.88698 0.18687 0.0
C1112 C 0.26168 0.90563 0.21137 0.0
C1113 C 0.25118 0.90878 0.2311 0.0
C1114 C 0.23048 0.90023 0.22909 0.0
C1115 C 0.22074 0.88948 0.20693 0.0
C1116 C 0.28375 0.91446 0.21275 0.0
C1117 C 0.21874 0.90302 0.24992 0.0
H1118 H 0.28178 0.92027 0.31122 0.0
H1119 H 0.28697 0.97021 0.27059 0.0
H1120 H 0.24242 0.8836 0.27445 0.0
H1121 H 0.26528 0.88712 0.26247 0.0
H1122 H 0.26188 0.88789 0.2966 0.0
H1123 H 0.2714 0.96734 0.23104 0.0
H1124 H 0.27207 0.94881 0.21135 0.0
H1125 H 0.2493 0.94413 0.2252 0.0
H1126 H 0.2597 0.89243 0.17446 0.0
H1127 H 0.20504 0.8837 0.20487 0.0
H1128 H 0.28789 0.90981 0.2307 0.0
H1129 H 0.291 0.93074 0.21321 0.0
H1130 H 0.28964 0.91014 0.19614 0.0
H1131 H 0.22219 0.89906 0.26892 0.0
H1132 H 0.20262 0.89401 0.24653 0.0
H1133 H 0.22284 0.91872 0.25087 0.0
C1134 C 0.70227 0.95942 0.26115 0.0
C1135 C 0.69118 0.9506 0.2833 0.0
C1136 C 0.70274 0.94791 0.24079 0.0
C1137 C 0.6919 0.92712 0.2427 0.0
C1138 C 0.68137 0.9182 0.26549 0.0
C1139 C 0.68111 0.93004 0.28548 0.0
C1140 C 0.71413 0.95797 0.21679 0.0
C1141 C 0.66963 0.89611 0.26831 0.0
C1142 C 0.6721 0.89837 0.18084 0.0
C1143 C 0.68527 0.89157 0.17613 0.0
C1144 C 0.67416 0.90992 0.20238 0.0
C1145 C 0.68973 0.91474 0.2199 0.0
C1146 C 0.70289 0.90762 0.21561 0.0
C1147 C 0.70048 0.89606 0.19374 0.0
C1148 C 0.65969 0.91703 0.20629 0.0
C1149 C 0.71961 0.91243 0.23395 0.0
H1150 H 0.71015 0.9753 0.25943 0.0
H1151 H 0.67263 0.92313 0.30264 0.0
H1152 H 0.72382 0.95208 0.21124 0.0
H1153 H 0.70373 0.95493 0.20066 0.0
H1154 H 0.7233 0.97416 0.21927 0.0
H1155 H 0.66391 0.89153 0.28813 0.0
H1156 H 0.65695 0.88998 0.25484 0.0
H1157 H 0.67879 0.88951 0.26326 0.0
H1158 H 0.66007 0.89462 0.16755 0.0
H1159 H 0.71072 0.89089 0.19013 0.0
H1160 H 0.66762 0.93334 0.20692 0.0
H1161 H 0.65204 0.91165 0.22497 0.0
H1162 H 0.64843 0.912 0.1908 0.0
H1163 H 0.7296 0.92858 0.23483 0.0
H1164 H 0.7283 0.90543 0.2282 0.0
H1165 H 0.71381 0.90746 0.25363 0.0
C1166 C 0.0734 0.76491 0.28523 0.0
C1167 C 0.06919 0.74533 0.28461 0.0
C1168 C 0.08519 0.7784 0.2662 0.0
C1169 C 0.09289 0.77211 0.24609 0.0
C1170 C 0.08849 0.75229 0.24527 0.0
C1171 C 0.07674 0.73918 0.26454 0.0
C1172 C 0.08957 0.79939 0.26771 0.0
C1173 C 0.09631 0.74493 0.22409 0.0
C1174 C 0.10901 0.79745 0.18146 0.0
C1175 C 0.12955 0.8062 0.18317 0.0
C1176 C 0.09688 0.78736 0.20241 0.0
C1177 C 0.1055 0.78601 0.22567 0.0
C1178 C 0.12628 0.79612 0.22813 0.0
C1179 C 0.13808 0.80611 0.20682 0.0
C1180 C 0.07481 0.77696 0.199 0.0
C1181 C 0.13607 0.79517 0.25264 0.0
H1182 H 0.06766 0.76976 0.30076 0.0
H1183 H 0.07355 0.72407 0.26394 0.0
H1184 H 0.10569 0.8095 0.26932 0.0
H1185 H 0.08462 0.80333 0.24984 0.0
H1186 H 0.08226 0.80189 0.28437 0.0
H1187 H 0.09144 0.72907 0.22617 0.0
H1188 H 0.09128 0.74721 0.20513 0.0
H1189 H 0.11264 0.75342 0.22408 0.0
H1190 H 0.10236 0.79772 0.1633 0.0
H1191 H 0.15393 0.81273 0.20823 0.0
H1192 H 0.06779 0.77988 0.21559 0.0
H1193 H 0.0689 0.76084 0.19817 0.0
H1194 H 0.07048 0.78152 0.18109 0.0
H1195 H 0.1293 0.79805 0.26955 0.0
H1196 H 0.15213 0.8059 0.25269 0.0
H1197 H 0.13392 0.78018 0.25489 0.0
C1198 C 0.27959 0.36196 0.28808 0.0
C1199 C 0.28535 0.34776 0.28608 0.0
C1200 C 0.26852 0.36427 0.26859 0.0
C1201 C 0.26323 0.3522 0.24646 0.0
C1202 C 0.26887 0.33772 0.24443 0.0
C1203 C 0.2798 0.33562 0.26432 0.0
C1204 C 0.26268 0.37978 0.27155 0.0
C1205 C 0.26363 0.32465 0.22104 0.0
C1206 C 0.22203 0.34615 0.20192 0.0
C1207 C 0.23271 0.3586 0.18152 0.0
C1208 C 0.23172 0.34437 0.22363 0.0
C1209 C 0.25255 0.35524 0.22487 0.0
C1210 C 0.26333 0.36846 0.20484 0.0
C1211 C 0.25328 0.37005 0.18351 0.0
C1212 C 0.21971 0.33028 0.24474 0.0
C1213 C 0.28554 0.38039 0.20543 0.0
H1214 H 0.28374 0.37133 0.30493 0.0
H1215 H 0.28419 0.32461 0.26268 0.0
H1216 H 0.26958 0.39094 0.25614 0.0
H1217 H 0.2465 0.37304 0.26948 0.0
H1218 H 0.26718 0.38736 0.29045 0.0
H1219 H 0.2687 0.31379 0.2227 0.0
H1220 H 0.24746 0.31659 0.21806 0.0
H1221 H 0.27041 0.33377 0.20368 0.0
H1222 H 0.20615 0.33718 0.20044 0.0
H1223 H 0.2616 0.37996 0.16801 0.0
H1224 H 0.224 0.33775 0.26369 0.0
H1225 H 0.22268 0.3179 0.24535 0.0
H1226 H 0.20365 0.32419 0.24194 0.0
H1227 H 0.29065 0.38902 0.22349 0.0
H1228 H 0.29166 0.39065 0.1889 0.0
H1229 H 0.29168 0.37038 0.20506 0.0
C1230 C 0.28856 0.35112 0.42685 0.0
C1231 C 0.28125 0.33842 0.40567 0.0
C1232 C 0.27613 0.34963 0.44717 0.0
C1233 C 0.25586 0.33523 0.44614 0.0
C1234 C 0.24833 0.32266 0.42453 0.0
C1235 C 0.26113 0.32434 0.40462 0.0
C1236 C 0.28476 0.36319 0.47 0.0
C1237 C 0.2268 0.30726 0.42261 0.0
C1238 C 0.2298 0.31868 0.51033 0.0
C1239 C 0.22093 0.33031 0.51258 0.0
C1240 C 0.2408 0.31982 0.48855 0.0
C1241 C 0.24282 0.33271 0.4683 0.0
C1242 C 0.23307 0.34373 0.46982 0.0
C1243 C 0.22227 0.34244 0.492 0.0
C1244 C 0.2509 0.30776 0.48768 0.0
C1245 C 0.23468 0.35746 0.44847 0.0
H1246 H 0.30409 0.36203 0.42773 0.0
H1247 H 0.25536 0.31456 0.3882 0.0
H1248 H 0.27683 0.37138 0.47317 0.0
H1249 H 0.28287 0.35444 0.48759 0.0
H1250 H 0.30068 0.37396 0.46752 0.0
H1251 H 0.22307 0.29938 0.4039 0.0
H1252 H 0.22285 0.29633 0.43826 0.0
H1253 H 0.21756 0.31416 0.42507 0.0
H1254 H 0.22851 0.309 0.52597 0.0
H1255 H 0.21556 0.35154 0.49367 0.0
H1256 H 0.2671 0.31769 0.48718 0.0
H1257 H 0.2467 0.29874 0.46992 0.0
H1258 H 0.24719 0.29785 0.50453 0.0
H1259 H 0.25009 0.36978 0.44712 0.0
H1260 H 0.22488 0.36367 0.45158 0.0
H1261 H 0.23092 0.34965 0.42974 0.0
C1262 C 0.66874 0.93052 0.40678 0.0
C1263 C 0.68385 0.95014 0.40463 0.0
C1264 C 0.66861 0.9186 0.42698 0.0
C1265 C 0.68371 0.92669 0.44576 0.0
C1266 C 0.69899 0.94653 0.44366 0.0
C1267 C 0.699 0.95795 0.42293 0.0
C1268 C 0.6523 0.89741 0.42829 0.0
C1269 C 0.71511 0.95582 0.4636 0.0
C1270 C 0.67326 0.90481 0.51268 0.0
C1271 C 0.68437 0.89531 0.51333 0.0
C1272 C 0.67268 0.91479 0.4907 0.0
C1273 C 0.68301 0.91483 0.46844 0.0
C1274 C 0.69339 0.90439 0.4684 0.0
C1275 C 0.69411 0.8949 0.49095 0.0
C1276 C 0.66159 0.92589 0.49165 0.0
C1277 C 0.70422 0.90376 0.44481 0.0
H1278 H 0.65713 0.92439 0.39247 0.0
H1279 H 0.71069 0.97313 0.42131 0.0
H1280 H 0.65863 0.88759 0.42959 0.0
H1281 H 0.64339 0.895 0.44586 0.0
H1282 H 0.64239 0.89304 0.41131 0.0
H1283 H 0.72602 0.97136 0.459 0.0
H1284 H 0.7086 0.95536 0.48269 0.0
H1285 H 0.72294 0.94741 0.46522 0.0
H1286 H 0.66524 0.90477 0.52965 0.0
H1287 H 0.7028 0.8877 0.49124 0.0
H1288 H 0.65046 0.92081 0.47606 0.0
H1289 H 0.67195 0.94179 0.48852 0.0
H1290 H 0.65402 0.92406 0.51032 0.0
H1291 H 0.69439 0.89929 0.42777 0.0
H1292 H 0.70987 0.89341 0.44706 0.0
H1293 H 0.71684 0.91864 0.44088 0.0
C1294 C 0.09725 0.74445 0.40322 0.0
C1295 C 0.07696 0.73731 0.40523 0.0
C1296 C 0.11029 0.75625 0.42268 0.0
C1297 C 0.10281 0.76086 0.44471 0.0
C1298 C 0.08231 0.75358 0.44686 0.0
C1299 C 0.06967 0.74197 0.42707 0.0
C1300 C 0.13205 0.76383 0.41965 0.0
C1301 C 0.07371 0.758 0.47015 0.0
C1302 C 0.13011 0.7744 0.50829 0.0
C1303 C 0.13698 0.79465 0.50978 0.0
C1304 C 0.1197 0.76337 0.48673 0.0
C1305 C 0.11618 0.77284 0.46598 0.0
C1306 C 0.12404 0.79348 0.4667 0.0
C1307 C 0.13433 0.80415 0.48865 0.0
C1308 C 0.11162 0.74142 0.48675 0.0
C1309 C 0.12073 0.80412 0.44485 0.0
H1310 H 0.10297 0.74098 0.3863 0.0
H1311 H 0.054 0.73651 0.42874 0.0
H1312 H 0.1403 0.78013 0.42063 0.0
H1313 H 0.1374 0.75841 0.43566 0.0
H1314 H 0.13555 0.75918 0.40118 0.0
H1315 H 0.05747 0.75129 0.4688 0.0
H1316 H 0.07724 0.75237 0.48773 0.0
H1317 H 0.08035 0.77413 0.47248 0.0
H1318 H 0.13243 0.76704 0.5244 0.0
H1319 H 0.13949 0.81977 0.48972 0.0
H1320 H 0.11574 0.73679 0.46878 0.0
H1321 H 0.0953 0.73368 0.48751 0.0
H1322 H 0.11701 0.73657 0.50338 0.0
H1323 H 0.12452 0.79998 0.42624 0.0
H1324 H 0.12957 0.82036 0.44708 0.0
H1325 H 0.10493 0.79975 0.444 0.0
C1326 C 0.35718 0.09362 0.73767 0.0
C1327 C 0.34461 0.07324 0.73997 0.0
C1328 C 0.35863 0.10649 0.75734 0.0
C1329 C 0.34732 0.09878 0.77993 0.0
C1330 C 0.33432 0.07825 0.78217 0.0
C1331 C 0.33308 0.06571 0.7621 0.0
C1332 C 0.37256 0.1283 0.75416 0.0
C1333 C 0.32208 0.06947 0.80603 0.0
C1334 C 0.36565 0.12737 0.84227 0.0
C1335 C 0.3531 0.13513 0.84515 0.0
C1336 C 0.36414 0.11582 0.82091 0.0
C1337 C 0.34983 0.11206 0.80179 0.0
C1338 C 0.33767 0.12053 0.804 0.0
C1339 C 0.33943 0.13196 0.8257 0.0
C1340 C 0.37748 0.10717 0.81921 0.0
C1341 C 0.32237 0.11698 0.78388 0.0
H1342 H 0.36607 0.09955 0.72052 0.0
H1343 H 0.32333 0.04998 0.76395 0.0
H1344 H 0.36465 0.1365 0.75728 0.0
H1345 H 0.38441 0.13348 0.76882 0.0
H1346 H 0.37946 0.13203 0.73482 0.0
H1347 H 0.31212 0.05333 0.80435 0.0
H1348 H 0.33188 0.07245 0.82286 0.0
H1349 H 0.31306 0.07644 0.80995 0.0
H1350 H 0.37647 0.13005 0.85704 0.0
H1351 H 0.3296 0.13779 0.82791 0.0
H1352 H 0.38569 0.11143 0.80081 0.0
H1353 H 0.36852 0.09087 0.8195 0.0
H1354 H 0.38824 0.11201 0.83529 0.0
H1355 H 0.32921 0.1208 0.76454 0.0
H1356 H 0.315 0.12567 0.78755 0.0
H1357 H 0.31101 0.10115 0.78351 0.0
C1358 C 0.95945 0.27732 0.76312 0.0
C1359 C 0.95169 0.28132 0.7412 0.0
C1360 C 0.9471 0.26592 0.78326 0.0
C1361 C 0.92652 0.25827 0.78131 0.0
C1362 C 0.91857 0.26192 0.75896 0.0
C1363 C 0.93126 0.27345 0.7392 0.0
C1364 C 0.95611 0.2624 0.80687 0.0
C1365 C 0.89671 0.25394 0.75611 0.0
C1366 C 0.89406 0.21679 0.827 0.0
C1367 C 0.89112 0.22711 0.84686 0.0
C1368 C 0.90512 0.22665 0.80516 0.0
C1369 C 0.91344 0.24729 0.80322 0.0
C1370 C 0.90985 0.25764 0.82273 0.0
C1371 C 0.89867 0.24742 0.84424 0.0
C1372 C 0.9085 0.2151 0.78463 0.0
C1373 C 0.91836 0.27963 0.82131 0.0
H1374 H 0.97521 0.28336 0.76473 0.0
H1375 H 0.92517 0.27641 0.72222 0.0
H1376 H 0.95319 0.26904 0.82391 0.0
H1377 H 0.94926 0.24639 0.81055 0.0
H1378 H 0.97228 0.26876 0.805 0.0
H1379 H 0.8928 0.25723 0.73695 0.0
H1380 H 0.88857 0.23778 0.75899 0.0
H1381 H 0.89162 0.26041 0.77108 0.0
H1382 H 0.88838 0.20113 0.82902 0.0
H1383 H 0.89617 0.25541 0.85935 0.0
H1384 H 0.92435 0.21964 0.784 0.0
H1385 H 0.90452 0.21827 0.76547 0.0
H1386 H 0.89984 0.19899 0.78808 0.0
H1387 H 0.93467 0.28713 0.82147 0.0
H1388 H 0.91354 0.28535 0.8376 0.0
H1389 H 0.91392 0.28363 0.80306 0.0
C1390 C 0.74905 0.66171 0.73566 0.0
C1391 C 0.74195 0.6747 0.73973 0.0
C1392 C 0.7607 0.65935 0.75419 0.0
C1393 C 0.76513 0.67004 0.77748 0.0
C1394 C 0.75798 0.68316 0.78171 0.0
C1395 C 0.74657 0.68542 0.7627 0.0
C1396 C 0.76824 0.6454 0.74888 0.0
C1397 C 0.76221 0.69466 0.80644 0.0
C1398 C 0.77788 0.65153 0.83764 0.0
C1399 C 0.79816 0.66478 0.84 0.0
C1400 C 0.76706 0.65266 0.81692 0.0
C1401 C 0.7768 0.66718 0.79783 0.0
C1402 C 0.79747 0.67975 0.79916 0.0
C1403 C 0.80791 0.67845 0.82031 0.0
C1404 C 0.74505 0.63896 0.8162 0.0
C1405 C 0.80842 0.69522 0.77894 0.0
H1406 H 0.74563 0.65349 0.71784 0.0
H1407 H 0.7411 0.69547 0.76592 0.0
H1408 H 0.78453 0.6533 0.75045 0.0
H1409 H 0.7624 0.63349 0.76343 0.0
H1410 H 0.76396 0.63863 0.72948 0.0
H1411 H 0.75563 0.7043 0.80669 0.0
H1412 H 0.75632 0.6844 0.82297 0.0
H1413 H 0.77834 0.70393 0.80929 0.0
H1414 H 0.77032 0.64067 0.85254 0.0
H1415 H 0.82355 0.68882 0.82206 0.0
H1416 H 0.74049 0.6314 0.79734 0.0
H1417 H 0.73747 0.64758 0.81854 0.0
H1418 H 0.73992 0.62767 0.8316 0.0
H1419 H 0.80437 0.68866 0.75945 0.0
H1420 H 0.82464 0.70234 0.78127 0.0
H1421 H 0.80422 0.70673 0.78017 0.0
C1422 C 0.73854 0.67357 0.60001 0.0
C1423 C 0.74613 0.68535 0.62196 0.0
C1424 C 0.75104 0.67454 0.58009 0.0
C1425 C 0.77162 0.68742 0.58237 0.0
C1426 C 0.77939 0.69906 0.60473 0.0
C1427 C 0.76652 0.69798 0.6242 0.0
C1428 C 0.74219 0.66205 0.55639 0.0
C1429 C 0.80125 0.71278 0.60799 0.0
C1430 C 0.80314 0.67702 0.53686 0.0
C1431 C 0.80618 0.69012 0.51675 0.0
C1432 C 0.7926 0.67652 0.55893 0.0
C1433 C 0.78484 0.68931 0.56077 0.0
C1434 C 0.78875 0.70324 0.54112 0.0
C1435 C 0.7995 0.70357 0.51947 0.0
C1436 C 0.78899 0.66168 0.57971 0.0
C1437 C 0.78077 0.71716 0.54234 0.0
H1438 H 0.72279 0.66377 0.59823 0.0
H1439 H 0.77247 0.70701 0.64125 0.0
H1440 H 0.74563 0.67164 0.53926 0.0
H1441 H 0.74873 0.65257 0.55317 0.0
H1442 H 0.72595 0.65253 0.55782 0.0
H1443 H 0.805 0.72007 0.6271 0.0
H1444 H 0.80922 0.70456 0.60559 0.0
H1445 H 0.80669 0.7243 0.59291 0.0
H1446 H 0.80818 0.66653 0.53483 0.0
H1447 H 0.80216 0.714 0.50421 0.0
H1448 H 0.77315 0.6503 0.58001 0.0
H1449 H 0.79268 0.66889 0.59885 0.0
H1450 H 0.79774 0.6543 0.57671 0.0
H1451 H 0.76444 0.70864 0.54178 0.0
H1452 H 0.78605 0.72781 0.52616 0.0
H1453 H 0.78511 0.72548 0.56068 0.0
C1454 C 0.32961 0.06428 0.60259 0.0
C1455 C 0.3454 0.0711 0.61985 0.0
C1456 C 0.32975 0.07622 0.58246 0.0
C1457 C 0.34583 0.09564 0.58001 0.0
C1458 C 0.36158 0.10277 0.59783 0.0
C1459 C 0.36131 0.0903 0.61734 0.0
C1460 C 0.31294 0.06788 0.56343 0.0
C1461 C 0.37872 0.12354 0.59624 0.0
C1462 C 0.35563 0.11804 0.51343 0.0
C1463 C 0.34555 0.1286 0.51393 0.0
C1464 C 0.356 0.10747 0.53486 0.0
C1465 C 0.34666 0.10797 0.55782 0.0
C1466 C 0.33741 0.11948 0.55904 0.0
C1467 C 0.33677 0.1295 0.53698 0.0
C1468 C 0.3658 0.09518 0.5326 0.0
C1469 C 0.32775 0.12078 0.58343 0.0
H1470 H 0.31731 0.04942 0.60453 0.0
H1471 H 0.37342 0.09567 0.63091 0.0
H1472 H 0.30597 0.07714 0.56286 0.0
H1473 H 0.31861 0.06802 0.54386 0.0
H1474 H 0.30148 0.05256 0.56819 0.0
H1475 H 0.38904 0.12727 0.61268 0.0
H1476 H 0.38697 0.12551 0.57817 0.0
H1477 H 0.37329 0.13414 0.59581 0.0
H1478 H 0.36299 0.11772 0.49598 0.0
H1479 H 0.32889 0.13753 0.53762 0.0
H1480 H 0.35483 0.07948 0.53605 0.0
H1481 H 0.37745 0.09967 0.5474 0.0
H1482 H 0.37251 0.09649 0.51338 0.0
H1483 H 0.31462 0.10629 0.58762 0.0
H1484 H 0.32304 0.13193 0.58206 0.0
H1485 H 0.338 0.12456 0.59993 0.0
C1486 C 0.93437 0.27847 0.61848 0.0
C1487 C 0.95362 0.28201 0.6215 0.0
C1488 C 0.92209 0.26598 0.59898 0.0
C1489 C 0.92947 0.25734 0.58167 0.0
C1490 C 0.94891 0.26085 0.58473 0.0
C1491 C 0.96066 0.27293 0.60487 0.0
C1492 C 0.90129 0.2622 0.59674 0.0
C1493 C 0.9575 0.25234 0.56625 0.0
C1494 C 0.89563 0.21443 0.53838 0.0
C1495 C 0.89663 0.22415 0.51532 0.0
C1496 C 0.90573 0.22506 0.56046 0.0
C1497 C 0.91743 0.24582 0.55925 0.0
C1498 C 0.91817 0.25571 0.53622 0.0
C1499 C 0.9075 0.24481 0.51477 0.0
C1500 C 0.90419 0.21406 0.58492 0.0
C1501 C 0.93066 0.27781 0.53397 0.0
H1502 H 0.92883 0.28529 0.63157 0.0
H1503 H 0.97556 0.27569 0.6072 0.0
H1504 H 0.8996 0.2686 0.5786 0.0
H1505 H 0.89073 0.24614 0.59602 0.0
H1506 H 0.89727 0.26863 0.61304 0.0
H1507 H 0.9727 0.25613 0.57163 0.0
H1508 H 0.94813 0.2361 0.56553 0.0
H1509 H 0.9578 0.25796 0.54659 0.0
H1510 H 0.88737 0.19851 0.53905 0.0
H1511 H 0.90791 0.25254 0.49733 0.0
H1512 H 0.90011 0.22042 0.60121 0.0
H1513 H 0.91869 0.21561 0.58958 0.0
H1514 H 0.89314 0.19815 0.58339 0.0
H1515 H 0.92593 0.28502 0.54834 0.0
H1516 H 0.92979 0.28321 0.51456 0.0
H1517 H 0.94628 0.28251 0.53812 0.0
C1518 C 0.37404 0.28206 0.61787 0.0
C1519 C 0.358 0.28527 0.61832 0.0
C1520 C 0.37589 0.2707 0.59833 0.0
C1521 C 0.36141 0.2625 0.57876 0.0
C1522 C 0.34525 0.26579 0.57912 0.0
C1523 C 0.34373 0.27707 0.5989 0.0
C1524 C 0.39327 0.26745 0.59864 0.0
C1525 C 0.32954 0.25742 0.55854 0.0
C1526 C 0.37054 0.24835 0.51273 0.0
C1527 C 0.35962 0.22774 0.51392 0.0
C1528 C 0.37233 0.25991 0.53423 0.0
C1529 C 0.36306 0.25065 0.55756 0.0
C1530 C 0.35335 0.22988 0.55944 0.0
C1531 C 0.35172 0.21866 0.53757 0.0
C1532 C 0.38293 0.282 0.53141 0.0
C1533 C 0.34342 0.21943 0.58401 0.0
H1534 H 0.38508 0.2883 0.63289 0.0
H1535 H 0.3313 0.2795 0.59912 0.0
H1536 H 0.38805 0.25147 0.59939 0.0
H1537 H 0.40188 0.2732 0.58068 0.0
H1538 H 0.40317 0.27472 0.61529 0.0
H1539 H 0.31793 0.26134 0.56161 0.0
H1540 H 0.33628 0.26294 0.5394 0.0
H1541 H 0.3225 0.24116 0.55813 0.0
H1542 H 0.37694 0.25545 0.49458 0.0
H1543 H 0.34318 0.20275 0.5386 0.0
H1544 H 0.39319 0.2892 0.54772 0.0
H1545 H 0.37205 0.28707 0.53167 0.0
H1546 H 0.39137 0.28698 0.51317 0.0
H1547 H 0.3533 0.22641 0.60072 0.0
H1548 H 0.33897 0.2036 0.58348 0.0
H1549 H 0.33005 0.22058 0.58713 0.0
C1550 C 0.74354 0.10084 0.62154 0.0
C1551 C 0.73951 0.08131 0.6213 0.0
C1552 C 0.75475 0.11403 0.60191 0.0
C1553 C 0.76205 0.10749 0.5816 0.0
C1554 C 0.75791 0.08775 0.58125 0.0
C1555 C 0.74671 0.07493 0.60107 0.0
C1556 C 0.75884 0.13494 0.60291 0.0
C1557 C 0.76536 0.08015 0.55992 0.0
C1558 C 0.77601 0.13132 0.51589 0.0
C1559 C 0.79661 0.14039 0.51666 0.0
C1560 C 0.76455 0.12166 0.53751 0.0
C1561 C 0.77393 0.12104 0.56046 0.0
C1562 C 0.79476 0.13148 0.56194 0.0
C1563 C 0.80587 0.14106 0.54 0.0
C1564 C 0.7424 0.11091 0.53516 0.0
C1565 C 0.80534 0.13127 0.58608 0.0
H1566 H 0.73804 0.10586 0.63717 0.0
H1567 H 0.74366 0.05987 0.60076 0.0
H1568 H 0.77495 0.14528 0.60351 0.0
H1569 H 0.75314 0.13832 0.58528 0.0
H1570 H 0.75202 0.13769 0.61992 0.0
H1571 H 0.76087 0.06442 0.5625 0.0
H1572 H 0.75967 0.08184 0.54113 0.0
H1573 H 0.78167 0.0889 0.55907 0.0
H1574 H 0.76881 0.131 0.49795 0.0
H1575 H 0.82177 0.14793 0.54067 0.0
H1576 H 0.73574 0.11404 0.55197 0.0
H1577 H 0.7367 0.09482 0.53482 0.0
H1578 H 0.73746 0.11497 0.51736 0.0
H1579 H 0.79891 0.13435 0.60319 0.0
H1580 H 0.82133 0.14221 0.58532 0.0
H1581 H 0.80355 0.11645 0.58866 0.0
C1582 C 0.9498 0.68112 0.59565 0.0
C1583 C 0.94423 0.66692 0.61501 0.0
C1584 C 0.93661 0.6793 0.57619 0.0
C1585 C 0.91721 0.66296 0.5762 0.0
C1586 C 0.91145 0.64853 0.5957 0.0
C1587 C 0.92509 0.65061 0.61482 0.0
C1588 C 0.94348 0.69492 0.5556 0.0
C1589 C 0.89086 0.63104 0.59649 0.0
C1590 C 0.88264 0.67287 0.53623 0.0
C1591 C 0.88348 0.66503 0.51236 0.0
C1592 C 0.89234 0.67099 0.55785 0.0
C1593 C 0.90326 0.66119 0.55548 0.0
C1594 C 0.90287 0.65194 0.53196 0.0
C1595 C 0.89289 0.65386 0.51077 0.0
C1596 C 0.89211 0.6808 0.58269 0.0
C1597 C 0.91428 0.64133 0.52854 0.0
H1598 H 0.96458 0.69373 0.59563 0.0
H1599 H 0.92068 0.63965 0.62984 0.0
H1600 H 0.94179 0.68813 0.53637 0.0
H1601 H 0.93426 0.70195 0.55581 0.0
H1602 H 0.95912 0.70654 0.55815 0.0
H1603 H 0.8887 0.62108 0.61287 0.0
H1604 H 0.88003 0.63612 0.59811 0.0
H1605 H 0.88759 0.62253 0.57836 0.0
H1606 H 0.87548 0.68157 0.53767 0.0
H1607 H 0.89326 0.64741 0.49252 0.0
H1608 H 0.90664 0.69426 0.58558 0.0
H1609 H 0.88957 0.67093 0.59926 0.0
H1610 H 0.88059 0.68507 0.58267 0.0
H1611 H 0.93028 0.65222 0.52835 0.0
H1612 H 0.91044 0.63283 0.51031 0.0
H1613 H 0.91154 0.63116 0.5448 0.0
C1614 C 0.95836 0.68145 0.75952 0.0
C1615 C 0.96021 0.69074 0.73586 0.0
C1616 C 0.9471 0.68281 0.77949 0.0
C1617 C 0.93773 0.69405 0.77593 0.0
C1618 C 0.94021 0.70414 0.75244 0.0
C1619 C 0.95125 0.7022 0.73257 0.0
C1620 C 0.94467 0.67162 0.80411 0.0
C1621 C 0.93084 0.71663 0.74812 0.0
C1622 C 0.89297 0.67847 0.81836 0.0
C1623 C 0.90131 0.69094 0.83958 0.0
C1624 C 0.90447 0.67993 0.79691 0.0
C1625 C 0.92472 0.69443 0.79652 0.0
C1626 C 0.93284 0.70797 0.81713 0.0
C1627 C 0.92109 0.7059 0.83857 0.0
C1628 C 0.89526 0.66503 0.77553 0.0
C1629 C 0.95421 0.72394 0.81721 0.0
H1630 H 0.96515 0.67249 0.76214 0.0
H1631 H 0.95269 0.70946 0.71434 0.0
H1632 H 0.94962 0.68183 0.82074 0.0
H1633 H 0.92888 0.6607 0.80713 0.0
H1634 H 0.95312 0.66376 0.80395 0.0
H1635 H 0.93553 0.72483 0.72969 0.0
H1636 H 0.91458 0.70717 0.74795 0.0
H1637 H 0.93468 0.72731 0.76409 0.0
H1638 H 0.87774 0.66674 0.81926 0.0
H1639 H 0.92754 0.71557 0.85499 0.0
H1640 H 0.90169 0.65527 0.77544 0.0
H1641 H 0.89851 0.6725 0.7566 0.0
H1642 H 0.87904 0.65579 0.77767 0.0
H1643 H 0.96363 0.7173 0.82013 0.0
H1644 H 0.95749 0.7349 0.83269 0.0
H1645 H 0.9583 0.73167 0.79844 0.0
C1646 C 0.32474 0.25843 0.73842 0.0
C1647 C 0.34094 0.27763 0.73843 0.0
C1648 C 0.32224 0.2451 0.75811 0.0
C1649 C 0.33619 0.25118 0.77831 0.0
C1650 C 0.35248 0.2706 0.77846 0.0
C1651 C 0.35467 0.28353 0.7585 0.0
C1652 C 0.30475 0.2245 0.75724 0.0
C1653 C 0.36764 0.27775 0.79973 0.0
C1654 C 0.32548 0.22764 0.84425 0.0
C1655 C 0.33643 0.21798 0.84376 0.0
C1656 C 0.32416 0.23746 0.82248 0.0
C1657 C 0.33393 0.23752 0.7996 0.0
C1658 C 0.34363 0.22644 0.79837 0.0
C1659 C 0.34479 0.21682 0.8205 0.0
C1660 C 0.31357 0.24897 0.82461 0.0
C1661 C 0.35406 0.22597 0.77428 0.0
H1662 H 0.31411 0.25377 0.72289 0.0
H1663 H 0.36721 0.29835 0.75865 0.0
H1664 H 0.30987 0.21366 0.75676 0.0
H1665 H 0.29577 0.22154 0.77487 0.0
H1666 H 0.29523 0.22206 0.74023 0.0
H1667 H 0.37938 0.29331 0.79706 0.0
H1668 H 0.36043 0.27642 0.81853 0.0
H1669 H 0.3746 0.26849 0.80061 0.0
H1670 H 0.31871 0.22831 0.86208 0.0
H1671 H 0.35335 0.20947 0.82 0.0
H1672 H 0.30377 0.24608 0.80782 0.0
H1673 H 0.32451 0.26494 0.82473 0.0
H1674 H 0.30465 0.24538 0.84244 0.0
H1675 H 0.34458 0.2232 0.75716 0.0
H1676 H 0.35837 0.2145 0.77519 0.0
H1677 H 0.36756 0.24047 0.77157 0.0
C1678 C 0.74293 0.07823 0.76291 0.0
C1679 C 0.74888 0.07147 0.74174 0.0
C1680 C 0.75618 0.08897 0.78265 0.0
C1681 C 0.77592 0.09313 0.78121 0.0
C1682 C 0.78202 0.08625 0.75996 0.0
C1683 C 0.7684 0.07545 0.74047 0.0
C1684 C 0.74903 0.09596 0.80504 0.0
C1685 C 0.80293 0.09041 0.75777 0.0
C1686 C 0.81027 0.1363 0.8233 0.0
C1687 C 0.8102 0.12671 0.84605 0.0
C1688 C 0.80026 0.12553 0.8013 0.0
C1689 C 0.78997 0.1047 0.80213 0.0
C1690 C 0.7912 0.09502 0.82439 0.0
C1691 C 0.80132 0.10615 0.84607 0.0
C1692 C 0.79943 0.13643 0.77789 0.0
C1693 C 0.78061 0.07286 0.82603 0.0
H1694 H 0.72788 0.07519 0.76402 0.0
H1695 H 0.77308 0.0703 0.72411 0.0
H1696 H 0.75125 0.09001 0.82328 0.0
H1697 H 0.75771 0.11223 0.80635 0.0
H1698 H 0.7332 0.09139 0.80332 0.0
H1699 H 0.80527 0.08381 0.7402 0.0
H1700 H 0.81322 0.10652 0.75736 0.0
H1701 H 0.80679 0.08456 0.77482 0.0
H1702 H 0.81699 0.15218 0.82319 0.0
H1703 H 0.80147 0.09869 0.86353 0.0
H1704 H 0.78451 0.1346 0.77622 0.0
H1705 H 0.80214 0.13032 0.76017 0.0
H1706 H 0.81034 0.15241 0.77893 0.0
H1707 H 0.76451 0.06707 0.8272 0.0
H1708 H 0.78519 0.06769 0.84316 0.0
H1709 H 0.78335 0.06652 0.80855 0.0
C1710 C 0.07883 0.37765 0.01696 0.0
C1711 C 0.06173 0.36903 0.03208 0.0
C1712 C 0.09581 0.37726 0.02476 0.0
C1713 C 0.09576 0.36832 0.04842 0.0
C1714 C 0.07836 0.35922 0.06342 0.0
C1715 C 0.06156 0.35957 0.05498 0.0
C1716 C 0.11393 0.38682 0.00804 0.0
C1717 C 0.07766 0.34965 0.08889 0.0
C1718 C 0.13157 0.35242 0.07112 0.0
C1719 C 0.14229 0.36694 0.0895 0.0
C1720 C 0.11753 0.35359 0.05552 0.0
C1721 C 0.11408 0.36953 0.05874 0.0
C1722 C 0.12635 0.38517 0.07547 0.0
C1723 C 0.14033 0.38368 0.09062 0.0
C1724 C 0.10508 0.33681 0.03755 0.0
C1725 C 0.12327 0.40246 0.07957 0.0
H1726 H 0.07902 0.38489 0.99915 0.0
H1727 H 0.04841 0.35288 0.06676 0.0
H1728 H 0.12565 0.40013 0.01776 0.0
H1729 H 0.11973 0.37667 0.00506 0.0
H1730 H 0.11095 0.39119 0.98901 0.0
H1731 H 0.06285 0.34277 0.09788 0.0
H1732 H 0.0818 0.33818 0.08628 0.0
H1733 H 0.08847 0.36079 0.10237 0.0
H1734 H 0.1329 0.33934 0.07053 0.0
H1735 H 0.14848 0.39477 0.1051 0.0
H1736 H 0.10245 0.34233 0.01921 0.0
H1737 H 0.09053 0.32713 0.04654 0.0
H1738 H 0.11204 0.32782 0.03331 0.0
H1739 H 0.12143 0.40821 0.06096 0.0
H1740 H 0.13573 0.4146 0.09018 0.0
H1741 H 0.10961 0.39761 0.09085 0.0
C1742 C 0.66968 0.70902 0.06095 0.0
C1743 C 0.66568 0.70288 0.03527 0.0
C1744 C 0.67154 0.72694 0.06886 0.0
C1745 C 0.66966 0.73927 0.05058 0.0
C1746 C 0.6661 0.7334 0.02447 0.0
C1747 C 0.66398 0.71517 0.01714 0.0
C1748 C 0.67509 0.73246 0.09698 0.0
C1749 C 0.66433 0.74626 0.00437 0.0
C1750 C 0.65464 0.77281 0.08294 0.0
C1751 C 0.67301 0.78922 0.08854 0.0
C1752 C 0.65316 0.75704 0.06852 0.0
C1753 C 0.67051 0.75775 0.05946 0.0
C1754 C 0.68893 0.77518 0.0629 0.0
C1755 C 0.68999 0.79069 0.07766 0.0
C1756 C 0.63323 0.7388 0.06548 0.0
C1757 C 0.70774 0.77672 0.05316 0.0
H1758 H 0.67099 0.69959 0.07507 0.0
H1759 H 0.661 0.71055 0.99722 0.0
H1760 H 0.68883 0.74682 0.09934 0.0
H1761 H 0.66284 0.73412 0.10471 0.0
H1762 H 0.67633 0.72131 0.1087 0.0
H1763 H 0.66287 0.74023 0.98466 0.0
H1764 H 0.65127 0.74774 0.00842 0.0
H1765 H 0.67742 0.76125 0.00502 0.0
H1766 H 0.64157 0.77158 0.0918 0.0
H1767 H 0.70422 0.80324 0.08241 0.0
H1768 H 0.63221 0.72719 0.07861 0.0
H1769 H 0.63115 0.73299 0.04561 0.0
H1770 H 0.62105 0.74162 0.0701 0.0
H1771 H 0.71199 0.76813 0.06588 0.0
H1772 H 0.72004 0.79221 0.05289 0.0
H1773 H 0.70569 0.77051 0.03351 0.0
C1774 C 0.3122 0.96536 0.06031 0.0
C1775 C 0.31848 0.9665 0.03485 0.0
C1776 C 0.29435 0.94944 0.06878 0.0
C1777 C 0.28224 0.93433 0.05128 0.0
C1778 C 0.28818 0.93568 0.0253 0.0
C1779 C 0.30633 0.95169 0.01742 0.0
C1780 C 0.28875 0.94854 0.09673 0.0
C1781 C 0.27554 0.92006 0.006 0.0
C1782 C 0.25021 0.88708 0.08721 0.0
C1783 C 0.23349 0.8886 0.09206 0.0
C1784 C 0.26556 0.90094 0.07181 0.0
C1785 C 0.2641 0.9167 0.061 0.0
C1786 C 0.24632 0.91708 0.06369 0.0
C1787 C 0.23122 0.90306 0.07942 0.0
C1788 C 0.28419 0.8999 0.06959 0.0
C1789 C 0.24399 0.93338 0.05209 0.0
H1790 H 0.3215 0.97673 0.07389 0.0
H1791 H 0.31106 0.95255 0.99767 0.0
H1792 H 0.27412 0.9474 0.09836 0.0
H1793 H 0.28759 0.93523 0.10583 0.0
H1794 H 0.29961 0.96165 0.10773 0.0
H1795 H 0.28127 0.92418 0.98611 0.0
H1796 H 0.2749 0.90603 0.01099 0.0
H1797 H 0.26024 0.91732 0.00655 0.0
H1798 H 0.25203 0.87602 0.09734 0.0
H1799 H 0.21841 0.9044 0.08351 0.0
H1800 H 0.29574 0.91136 0.08204 0.0
H1801 H 0.28979 0.90282 0.04959 0.0
H1802 H 0.28192 0.88535 0.07563 0.0
H1803 H 0.25221 0.94688 0.06389 0.0
H1804 H 0.2283 0.9295 0.05138 0.0
H1805 H 0.25015 0.93686 0.03237 0.0
C1806 C 0.36727 0.07355 0.01294 0.0
C1807 C 0.36521 0.05928 0.99504 0.0
C1808 C 0.3649 0.08948 0.0055 0.0
C1809 C 0.36072 0.09132 0.97949 0.0
C1810 C 0.35847 0.07682 0.96144 0.0
C1811 C 0.36059 0.06095 0.96948 0.0
C1812 C 0.36707 0.10444 0.02535 0.0
C1813 C 0.35423 0.07826 0.93343 0.0
C1814 C 0.33938 0.12122 0.95187 0.0
C1815 C 0.35599 0.13641 0.93983 0.0
C1816 C 0.34096 0.10741 0.96737 0.0
C1817 C 0.35954 0.10871 0.97039 0.0
C1818 C 0.37658 0.12519 0.9603 0.0
C1819 C 0.37458 0.13886 0.94515 0.0
C1820 C 0.32247 0.09032 0.9782 0.0
C1821 C 0.39666 0.1272 0.96287 0.0
H1822 H 0.37074 0.07228 0.03277 0.0
H1823 H 0.35901 0.05 0.95552 0.0
H1824 H 0.38007 0.11893 0.02076 0.0
H1825 H 0.35399 0.10634 0.02501 0.0
H1826 H 0.36889 0.10017 0.04507 0.0
H1827 H 0.35281 0.06571 0.9219 0.0
H1828 H 0.34038 0.0787 0.93153 0.0
H1829 H 0.36623 0.0921 0.92511 0.0
H1830 H 0.32497 0.11915 0.94736 0.0
H1831 H 0.38736 0.15043 0.93542 0.0
H1832 H 0.32509 0.08663 0.99785 0.0
H1833 H 0.31789 0.07719 0.96591 0.0
H1834 H 0.31018 0.09348 0.97886 0.0
H1835 H 0.39917 0.12385 0.98275 0.0
H1836 H 0.40863 0.1422 0.95772 0.0
H1837 H 0.39758 0.11649 0.94987 0.0
C1838 C 0.95543 0.30433 0.0121 0.0
C1839 C 0.96721 0.31808 0.99338 0.0
C1840 C 0.94004 0.28552 0.00507 0.0
C1841 C 0.93626 0.28045 0.97873 0.0
C1842 C 0.94816 0.29431 0.95981 0.0
C1843 C 0.9635 0.31287 0.96737 0.0
C1844 C 0.92781 0.27112 0.02577 0.0
C1845 C 0.94461 0.2896 0.93147 0.0
C1846 C 0.90973 0.22936 0.94982 0.0
C1847 C 0.89221 0.2282 0.94152 0.0
C1848 C 0.92352 0.24547 0.96444 0.0
C1849 C 0.91976 0.26087 0.97045 0.0
C1850 C 0.9012 0.25872 0.96426 0.0
C1851 C 0.88763 0.24237 0.94984 0.0
C1852 C 0.94296 0.24697 0.97096 0.0
C1853 C 0.89651 0.27471 0.97024 0.0
H1854 H 0.95826 0.30825 0.03225 0.0
H1855 H 0.97251 0.32341 0.9528 0.0
H1856 H 0.91219 0.26719 0.02373 0.0
H1857 H 0.92832 0.25733 0.02368 0.0
H1858 H 0.93294 0.27712 0.04538 0.0
H1859 H 0.95513 0.30201 0.91921 0.0
H1860 H 0.94596 0.27653 0.92695 0.0
H1861 H 0.92943 0.28595 0.92629 0.0
H1862 H 0.91343 0.21859 0.94292 0.0
H1863 H 0.87425 0.24167 0.94292 0.0
H1864 H 0.94775 0.25288 0.99065 0.0
H1865 H 0.95438 0.25727 0.95739 0.0
H1866 H 0.94217 0.23249 0.96953 0.0
H1867 H 0.90124 0.28044 0.99001 0.0
H1868 H 0.88053 0.26945 0.96824 0.0
H1869 H 0.90466 0.28716 0.95675 0.0
C1870 C 0.72623 0.65576 0.01138 0.0
C1871 C 0.71392 0.65842 0.99428 0.0
C1872 C 0.74435 0.65804 0.00313 0.0
C1873 C 0.75006 0.66274 0.97711 0.0
C1874 C 0.73783 0.66583 0.95996 0.0
C1875 C 0.72003 0.66377 0.96881 0.0
C1876 C 0.75713 0.65498 0.02207 0.0
C1877 C 0.7432 0.67066 0.93197 0.0
C1878 C 0.80062 0.68206 0.9477 0.0
C1879 C 0.79792 0.66526 0.93479 0.0
C1880 C 0.78584 0.68114 0.96393 0.0
C1881 C 0.76797 0.66306 0.96688 0.0
C1882 C 0.76613 0.64574 0.95584 0.0
C1883 C 0.78116 0.64707 0.93995 0.0
C1884 C 0.78859 0.69986 0.97579 0.0
C1885 C 0.7474 0.62615 0.95834 0.0
H1886 H 0.72164 0.65174 0.03115 0.0
H1887 H 0.71061 0.66586 0.95548 0.0
H1888 H 0.75736 0.64137 0.01712 0.0
H1889 H 0.77253 0.66736 0.02105 0.0
H1890 H 0.75177 0.65367 0.04212 0.0
H1891 H 0.73232 0.67309 0.92133 0.0
H1892 H 0.75788 0.68409 0.93024 0.0
H1893 H 0.74411 0.65847 0.92256 0.0
H1894 H 0.81348 0.69617 0.94342 0.0
H1895 H 0.77903 0.63414 0.92967 0.0
H1896 H 0.78261 0.6972 0.99561 0.0
H1897 H 0.78043 0.70535 0.96426 0.0
H1898 H 0.80435 0.71152 0.97632 0.0
H1899 H 0.74212 0.6235 0.97849 0.0
H1900 H 0.74939 0.61377 0.95196 0.0
H1901 H 0.73574 0.62622 0.94633 0.0
C1902 C 0.95447 0.65444 0.00546 0.0
C1903 C 0.97107 0.6599 0.99001 0.0
C1904 C 0.93855 0.65628 0.99645 0.0
C1905 C 0.9392 0.66353 0.97134 0.0
C1906 C 0.95602 0.66921 0.95581 0.0
C1907 C 0.97175 0.66743 0.96538 0.0
C1908 C 0.92099 0.6503 0.01364 0.0
C1909 C 0.9573 0.67691 0.92884 0.0
C1910 C 0.89472 0.65223 0.93068 0.0
C1911 C 0.89595 0.67061 0.93007 0.0
C1912 C 0.90773 0.64916 0.94586 0.0
C1913 C 0.92229 0.66489 0.96067 0.0
C1914 C 0.92241 0.68297 0.96174 0.0
C1915 C 0.90931 0.68567 0.9462 0.0
C1916 C 0.9071 0.62968 0.94406 0.0
C1917 C 0.9375 0.70004 0.97746 0.0
H1918 H 0.95389 0.64864 0.02454 0.0
H1919 H 0.98449 0.67164 0.9533 0.0
H1920 H 0.91809 0.66267 0.01573 0.0
H1921 H 0.90769 0.63788 0.00482 0.0
H1922 H 0.92312 0.64577 0.03305 0.0
H1923 H 0.97143 0.68074 0.9193 0.0
H1924 H 0.94504 0.66569 0.91698 0.0
H1925 H 0.95579 0.6902 0.92923 0.0
H1926 H 0.88458 0.64075 0.91779 0.0
H1927 H 0.91041 0.69997 0.94532 0.0
H1928 H 0.90851 0.62455 0.96338 0.0
H1929 H 0.9197 0.63149 0.93234 0.0
H1930 H 0.89326 0.61816 0.93499 0.0
H1931 H 0.93921 0.69505 0.99674 0.0
H1932 H 0.93351 0.71166 0.97985 0.0
H1933 H 0.952 0.70663 0.96772 0.0
C1934 C 0.35712 0.30985 0.96704 0.0
C1935 C 0.36764 0.31958 0.98924 0.0
C1936 C 0.35629 0.29252 0.95854 0.0
C1937 C 0.36618 0.2846 0.97261 0.0
C1938 C 0.37643 0.29407 0.99541 0.0
C1939 C 0.37709 0.3115 0.00344 0.0
C1940 C 0.34517 0.28293 0.9341 0.0
C1941 C 0.38705 0.28603 0.01096 0.0
C1942 C 0.34812 0.23185 0.95275 0.0
C1943 C 0.36117 0.23467 0.93273 0.0
C1944 C 0.35058 0.24782 0.96775 0.0
C1945 C 0.36639 0.26697 0.96238 0.0
C1946 C 0.38063 0.26945 0.9438 0.0
C1947 C 0.37779 0.25325 0.92912 0.0
C1948 C 0.33517 0.24447 0.98752 0.0
C1949 C 0.39776 0.28952 0.9375 0.0
H1950 H 0.34975 0.31597 0.95599 0.0
H1951 H 0.38521 0.31894 0.02065 0.0
H1952 H 0.35544 0.28285 0.91952 0.0
H1953 H 0.33385 0.26739 0.93785 0.0
H1954 H 0.3378 0.29061 0.92585 0.0
H1955 H 0.39306 0.29423 0.02922 0.0
H1956 H 0.37697 0.27029 0.01549 0.0
H1957 H 0.3994 0.2869 -0.00043 0.0
H1958 H 0.3351 0.21751 0.95522 0.0
H1959 H 0.38771 0.25542 0.91336 0.0
H1960 H 0.32521 0.24937 0.97961 0.0
H1961 H 0.34206 0.25318 0.00515 0.0
H1962 H 0.32616 0.22869 0.99282 0.0
H1963 H 0.39235 0.29798 0.92653 0.0
H1964 H 0.40906 0.28858 0.92573 0.0
H1965 H 0.40481 0.29788 0.9553 0.0
C1966 C 0.71597 0.07221 0.00405 0.0
C1967 C 0.70703 0.05506 0.98902 0.0
C1968 C 0.73381 0.08874 0.99645 0.0
C1969 C 0.74276 0.08816 0.97312 0.0
C1970 C 0.73392 0.07076 0.95809 0.0
C1971 C 0.71625 0.05441 0.9663 0.0
C1972 C 0.7429 0.1069 0.01313 0.0
C1973 C 0.74288 0.06953 0.93297 0.0
C1974 C 0.77573 0.13264 0.93253 0.0
C1975 C 0.79391 0.13357 0.93539 0.0
C1976 C 0.75918 0.11896 0.94645 0.0
C1977 C 0.7609 0.10586 0.96352 0.0
C1978 C 0.77969 0.10803 0.9682 0.0
C1979 C 0.796 0.12184 0.95392 0.0
C1980 C 0.7395 0.11723 0.94086 0.0
C1981 C 0.78224 0.09455 0.98644 0.0
H1982 H 0.70895 0.07278 0.0217 0.0
H1983 H 0.70942 0.04123 0.95457 0.0
H1984 H 0.75845 0.11146 0.01751 0.0
H1985 H 0.74296 0.11923 0.00268 0.0
H1986 H 0.73482 0.10456 0.03151 0.0
H1987 H 0.73435 0.05483 0.92379 0.0
H1988 H 0.74357 0.08075 0.9194 0.0
H1989 H 0.75818 0.07272 0.93616 0.0
H1990 H 0.7741 0.14149 0.91781 0.0
H1991 H 0.80999 0.12231 0.95572 0.0
H1992 H 0.73134 0.11563 0.95892 0.0
H1993 H 0.73046 0.10388 0.92909 0.0
H1994 H 0.74108 0.13018 0.93017 0.0
H1995 H 0.7738 0.09244 0.00439 0.0
H1996 H 0.79796 0.10031 0.99142 0.0
H1997 H 0.77645 0.0799 0.97732 0.0
C1998 C 0.66365 0.95818 0.05532 0.0
C1999 C 0.65943 0.96008 0.02966 0.0
C2000 C 0.66553 0.94217 0.06339 0.0
C2001 C 0.66312 0.92759 0.04535 0.0
C2002 C 0.65894 0.92944 0.01936 0.0
C2003 C 0.65714 0.94568 0.0118 0.0
C2004 C 0.67005 0.94083 0.09131 0.0
C2005 C 0.65628 0.91424 -0.00039 0.0
C2006 C 0.68656 0.899 0.07054 0.0
C2007 C 0.6707 0.88368 0.08359 0.0
C2008 C 0.68397 0.91246 0.05571 0.0
C2009 C 0.66508 0.91058 0.05416 0.0
C2010 C 0.64869 0.89392 0.06517 0.0
C2011 C 0.65173 0.88067 0.07988 0.0
C2012 C 0.70183 0.92987 0.04417 0.0
C2013 C 0.62829 0.89123 0.06385 0.0
H2014 H 0.66544 0.96923 0.06923 0.0
H2015 H 0.65385 0.94705 0.99193 0.0
H2016 H 0.65818 0.927 0.09981 0.0
H2017 H 0.68395 0.94046 0.09292 0.0
H2018 H 0.67154 0.9534 0.10285 0.0
H2019 H 0.65329 0.91791 0.98012 0.0
H2020 H 0.66967 0.9129 0.99877 0.0
H2021 H 0.64387 0.89964 0.00524 0.0
H2022 H 0.70129 0.90151 0.07387 0.0
H2023 H 0.63955 0.86905 0.09044 0.0
H2024 H 0.70618 0.94304 0.05631 0.0
H2025 H 0.69854 0.93315 0.02466 0.0
H2026 H 0.71454 0.92738 0.04296 0.0
H2027 H 0.6273 0.90161 0.07739 0.0
H2028 H 0.61681 0.87604 0.06914 0.0
H2029 H 0.6251 0.89454 0.0443 0.0
C2030 C 0.08218 0.71463 0.02066 0.0
C2031 C 0.06421 0.70588 0.03393 0.0
C2032 C 0.09848 0.73218 0.02957 0.0
C2033 C 0.09674 0.74109 0.05233 0.0
C2034 C 0.07847 0.73253 0.06539 0.0
C2035 C 0.06246 0.7151 0.05602 0.0
C2036 C 0.11766 0.74092 0.01504 0.0
C2037 C 0.07593 0.7415 0.08975 0.0
C2038 C 0.13823 0.77216 0.09822 0.0
C2039 C 0.14001 0.79064 0.09482 0.0
C2040 C 0.12546 0.75614 0.08277 0.0
C2041 C 0.11409 0.75871 0.06363 0.0
C2042 C 0.11726 0.77781 0.05859 0.0
C2043 C 0.13018 0.7936 0.07438 0.0
C2044 C 0.12266 0.7361 0.08877 0.0
C2045 C 0.10561 0.78124 0.03825 0.0
H2046 H 0.08362 0.70759 0.00354 0.0
H2047 H 0.04862 0.70846 0.06635 0.0
H2048 H 0.12324 0.75672 0.01109 0.0
H2049 H 0.12891 0.74001 0.02694 0.0
H2050 H 0.11615 0.73323 0.99655 0.0
H2051 H 0.06059 0.7334 0.09709 0.0
H2052 H 0.0859 0.74154 0.10491 0.0
H2053 H 0.07999 0.75702 0.0863 0.0
H2054 H 0.14566 0.76989 0.11432 0.0
H2055 H 0.13134 0.80785 0.07207 0.0
H2056 H 0.12213 0.72821 0.07086 0.0
H2057 H 0.10842 0.72718 0.09884 0.0
H2058 H 0.1346 0.73706 0.10126 0.0
H2059 H 0.10448 0.77295 0.02047 0.0
H2060 H 0.11229 0.79709 0.03345 0.0
H2061 H 0.09043 0.77588 0.04534 0.0
C2062 C 0.31086 0.35861 0.05523 0.0
C2063 C 0.31658 0.36267 0.02944 0.0
C2064 C 0.29311 0.35685 0.06377 0.0
C2065 C 0.28054 0.35887 0.046 0.0
C2066 C 0.28586 0.36223 0.01972 0.0
C2067 C 0.30395 0.3643 0.01177 0.0
C2068 C 0.28816 0.35349 0.09205 0.0
C2069 C 0.27268 0.36405 0.00014 0.0
C2070 C 0.23029 0.3402 0.07581 0.0
C2071 C 0.2327 0.35752 0.08682 0.0
C2072 C 0.24499 0.3406 0.05998 0.0
C2073 C 0.26258 0.3587 0.05567 0.0
C2074 C 0.26415 0.3764 0.06484 0.0
C2075 C 0.24913 0.37557 0.08027 0.0
C2076 C 0.24252 0.32146 0.05007 0.0
C2077 C 0.28263 0.396 0.06092 0.0
H2078 H 0.32055 0.35736 0.06899 0.0
H2079 H 0.30826 0.36732 0.99176 0.0
H2080 H 0.28704 0.36597 0.10008 0.0
H2081 H 0.27366 0.33999 0.09479 0.0
H2082 H 0.29937 0.35196 0.10327 0.0
H2083 H 0.27787 0.36453 0.98016 0.0
H2084 H 0.25741 0.35152 0.00188 0.0
H2085 H 0.27215 0.37769 0.00377 0.0
H2086 H 0.21771 0.32622 0.08127 0.0
H2087 H 0.25108 0.3889 0.08922 0.0
H2088 H 0.25104 0.31686 0.0624 0.0
H2089 H 0.24826 0.32317 0.0302 0.0
H2090 H 0.22685 0.30957 0.0503 0.0
H2091 H 0.29453 0.39682 0.07333 0.0
H2092 H 0.28041 0.4085 0.06587 0.0
H2093 H 0.28772 0.39769 0.04073 0.0
C2094 C 0.72351 0.68953 0.39566 0.0
C2095 C 0.7217 0.69468 0.37044 0.0
C2096 C 0.73968 0.68766 0.40314 0.0
C2097 C 0.7543 0.69066 0.38485 0.0
C2098 C 0.7522 0.69517 0.3591 0.0
C2099 C 0.73602 0.69733 0.35225 0.0
C2100 C 0.74142 0.68308 0.43091 0.0
C2101 C 0.76723 0.6981 0.33894 0.0
C2102 C 0.80305 0.7066 0.41758 0.0
C2103 C 0.80179 0.68845 0.42224 0.0
C2104 C 0.78847 0.70778 0.4034 0.0
C2105 C 0.77231 0.69037 0.39348 0.0
C2106 C 0.77215 0.67231 0.39576 0.0
C2107 C 0.78686 0.67152 0.41037 0.0
C2108 C 0.78928 0.72735 0.40163 0.0
C2109 C 0.75548 0.65348 0.38495 0.0
H2110 H 0.71252 0.68747 0.40982 0.0
H2111 H 0.73463 0.70119 0.33267 0.0
H2112 H 0.74261 0.66963 0.43215 0.0
H2113 H 0.75501 0.69532 0.43947 0.0
H2114 H 0.72863 0.68083 0.44262 0.0
H2115 H 0.76245 0.69951 0.31933 0.0
H2116 H 0.7814 0.71159 0.34329 0.0
H2117 H 0.77002 0.68559 0.33912 0.0
H2118 H 0.81446 0.71963 0.42712 0.0
H2119 H 0.78572 0.65744 0.41432 0.0
H2120 H 0.77816 0.72734 0.41478 0.0
H2121 H 0.78569 0.72989 0.3819 0.0
H2122 H 0.80398 0.73978 0.40704 0.0
H2123 H 0.74243 0.64817 0.39761 0.0
H2124 H 0.75943 0.64178 0.38365 0.0
H2125 H 0.7512 0.65596 0.36558 0.0
C2126 C 0.32665 0.04919 0.34991 0.0
C2127 C 0.33138 0.03876 0.36771 0.0
C2128 C 0.32804 0.06721 0.35659 0.0
C2129 C 0.33395 0.07477 0.38176 0.0
C2130 C 0.339 0.06439 0.39964 0.0
C2131 C 0.33779 0.04663 0.39233 0.0
C2132 C 0.32287 0.07799 0.33689 0.0
C2133 C 0.34519 0.07177 0.4268 0.0
C2134 C 0.35286 0.12673 0.40566 0.0
C2135 C 0.33666 0.12419 0.41995 0.0
C2136 C 0.35164 0.11127 0.39063 0.0
C2137 C 0.3339 0.09286 0.39034 0.0
C2138 C 0.31696 0.09105 0.40256 0.0
C2139 C 0.31855 0.10679 0.41717 0.0
C2140 C 0.36992 0.114 0.37739 0.0
C2141 C 0.29775 0.07177 0.40288 0.0
H2142 H 0.32179 0.04323 0.33079 0.0
H2143 H 0.34145 0.03866 0.40618 0.0
H2144 H 0.30934 0.07802 0.34288 0.0
H2145 H 0.33482 0.09356 0.33556 0.0
H2146 H 0.32035 0.07116 0.31753 0.0
H2147 H 0.34885 0.06208 0.43823 0.0
H2148 H 0.35825 0.08678 0.42654 0.0
H2149 H 0.33318 0.07271 0.4367 0.0
H2150 H 0.36694 0.14008 0.40813 0.0
H2151 H 0.30611 0.10477 0.42856 0.0
H2152 H 0.36628 0.10665 0.35834 0.0
H2153 H 0.37671 0.1072 0.38919 0.0
H2154 H 0.38096 0.12981 0.37477 0.0
H2155 H 0.29416 0.06496 0.38352 0.0
H2156 H 0.28533 0.07362 0.40956 0.0
H2157 H 0.29909 0.06141 0.41607 0.0
C2158 C 0.97922 0.29682 0.39371 0.0
C2159 C 0.98626 0.29845 0.36858 0.0
C2160 C 0.96118 0.28066 0.40121 0.0
C2161 C 0.9497 0.2658 0.38305 0.0
C2162 C 0.95645 0.26763 0.35742 0.0
C2163 C 0.97474 0.28386 0.35053 0.0
C2164 C 0.95464 0.27926 0.42882 0.0
C2165 C 0.94452 0.25228 0.33745 0.0
C2166 C 0.91631 0.21806 0.41721 0.0
C2167 C 0.89957 0.21973 0.42116 0.0
C2168 C 0.93219 0.23204 0.40259 0.0
C2169 C 0.9312 0.24803 0.39165 0.0
C2170 C 0.91339 0.24845 0.39315 0.0
C2171 C 0.89777 0.23432 0.40811 0.0
C2172 C 0.95082 0.23094 0.40155 0.0
C2173 C 0.91154 0.26498 0.38133 0.0
H2174 H 0.98804 0.30802 0.40775 0.0
H2175 H 0.98006 0.28509 0.33103 0.0
H2176 H 0.93998 0.27812 0.42962 0.0
H2177 H 0.95316 0.26578 0.43781 0.0
H2178 H 0.96514 0.29217 0.44045 0.0
H2179 H 0.951 0.25665 0.31793 0.0
H2180 H 0.94362 0.23815 0.34256 0.0
H2181 H 0.92924 0.2496 0.33695 0.0
H2182 H 0.91779 0.20694 0.4277 0.0
H2183 H 0.88495 0.2358 0.41155 0.0
H2184 H 0.96187 0.24204 0.41485 0.0
H2185 H 0.95724 0.23434 0.38197 0.0
H2186 H 0.94822 0.21621 0.40728 0.0
H2187 H 0.9193 0.27825 0.39364 0.0
H2188 H 0.8959 0.26113 0.37956 0.0
H2189 H 0.91847 0.26881 0.36205 0.0
C2190 C 0.02745 0.3934 0.3061 0.0
C2191 C 0.037 0.39394 0.32911 0.0
C2192 C 0.02681 0.40996 0.29736 0.0
C2193 C 0.03588 0.42753 0.31202 0.0
C2194 C 0.04515 0.42804 0.33561 0.0
C2195 C 0.04565 0.41124 0.34385 0.0
C2196 C 0.01679 0.40874 0.27205 0.0
C2197 C 0.05484 0.44644 0.35184 0.0
C2198 C 0.04878 0.47121 0.26926 0.0
C2199 C 0.03183 0.47273 0.27151 0.0
C2200 C 0.05123 0.45775 0.28425 0.0
C2201 C 0.03625 0.44543 0.30172 0.0
C2202 C 0.02004 0.44834 0.30582 0.0
C2203 C 0.01799 0.46196 0.29054 0.0
C2204 C 0.06881 0.45528 0.27933 0.0
C2205 C 1.00384 0.43568 0.32439 0.0
H2206 H 0.02072 0.3801 0.29462 0.0
H2207 H 0.05303 0.41173 0.36169 0.0
H2208 H 1.00513 0.41261 0.27482 0.0
H2209 H 0.02762 0.41949 0.25828 0.0
H2210 H 1.01002 0.39385 0.26331 0.0
H2211 H 0.06017 0.44403 0.37053 0.0
H2212 H 0.06754 0.45828 0.34132 0.0
H2213 H 0.04437 0.45173 0.35559 0.0
H2214 H 0.05931 0.47936 0.25422 0.0
H2215 H 1.00471 0.46291 0.29192 0.0
H2216 H 0.06411 0.44168 0.26797 0.0
H2217 H 0.07511 0.45371 0.29767 0.0
H2218 H 0.08052 0.46789 0.26847 0.0
H2219 H 0.99442 0.42092 0.31577 0.0
H2220 H 0.99441 0.4421 0.32892 0.0
H2221 H 1.01001 0.43363 0.34254 0.0
C2222 C 0.61369 0.63744 0.3479 0.0
C2223 C 0.62872 0.64939 0.33066 0.0
C2224 C 0.59738 0.6196 0.33976 0.0
C2225 C 0.59609 0.61368 0.31378 0.0
C2226 C 0.61138 0.62561 0.29644 0.0
C2227 C 0.62748 0.64326 0.3051 0.0
C2228 C 0.58143 0.60723 0.35879 0.0
C2229 C 0.61065 0.61987 0.26856 0.0
C2230 C 0.56618 0.56235 0.28662 0.0
C2231 C 0.55181 0.56406 0.27281 0.0
C2232 C 0.57963 0.57775 0.30245 0.0
C2233 C 0.57874 0.59528 0.30411 0.0
C2234 C 0.56297 0.59618 0.2922 0.0
C2235 C 0.54968 0.58052 0.27658 0.0
C2236 C 0.59604 0.57604 0.31502 0.0
C2237 C 0.56139 0.61452 0.2935 0.0
H2238 H 0.61458 0.64211 0.3677 0.0
H2239 H 0.63903 0.65241 0.29168 0.0
H2240 H 0.56738 0.60622 0.35282 0.0
H2241 H 0.57894 0.59204 0.3591 0.0
H2242 H 0.58508 0.61338 0.37856 0.0
H2243 H 0.62383 0.63067 0.25766 0.0
H2244 H 0.60954 0.60526 0.26716 0.0
H2245 H 0.59737 0.61864 0.25918 0.0
H2246 H 0.56799 0.54973 0.28328 0.0
H2247 H 0.53877 0.58194 0.26546 0.0
H2248 H 0.59904 0.58239 0.33467 0.0
H2249 H 0.60971 0.58444 0.30361 0.0
H2250 H 0.59255 0.56051 0.31617 0.0
H2251 H 0.56425 0.62058 0.31329 0.0
H2252 H 0.54666 0.61169 0.28723 0.0
H2253 H 0.57265 0.62591 0.28074 0.0
C2254 C 0.38456 0.99538 0.30193 0.0
C2255 C 0.38048 0.99507 0.32819 0.0
C2256 C 0.40275 0.99826 0.29344 0.0
C2257 C 0.41741 1.00114 0.31163 0.0
C2258 C 0.41353 1.00116 0.33821 0.0
C2259 C 0.39503 0.99799 0.3462 0.0
C2260 C 0.40616 0.99797 0.26489 0.0
C2261 C 0.42888 1.00444 0.35812 0.0
C2262 C 0.4537 0.98876 0.28177 0.0
C2263 C 0.46735 0.00695 0.27125 0.0
C2264 C 0.43822 0.98689 0.29726 0.0
C2265 C 0.43652 1.00369 0.30235 0.0
C2266 C 0.45158 0.02244 0.29408 0.0
C2267 C 0.46675 0.02381 0.27833 0.0
C2268 C 0.42249 0.96661 0.30552 0.0
C2269 C 0.45058 0.04077 0.29948 0.0
H2270 H 0.37337 0.9931 0.28792 0.0
H2271 H 0.39197 0.99782 0.36653 0.0
H2272 H 0.419 0.01215 0.25887 0.0
H2273 H 0.4096 0.98622 0.26035 0.0
H2274 H 0.39319 0.99541 0.2533 0.0
H2275 H 0.42387 1.00485 0.37795 0.0
H2276 H 0.4325 0.99252 0.35696 0.0
H2277 H 0.44265 0.01848 0.35428 0.0
H2278 H 0.454 0.97568 0.27582 0.0
H2279 H 0.47715 0.03782 0.26979 0.0
H2280 H 0.40936 0.96162 0.29302 0.0
H2281 H 0.41783 0.96677 0.32558 0.0
H2282 H 0.42756 0.95575 0.30401 0.0
H2283 H 0.43969 0.04129 0.28637 0.0
H2284 H 0.46504 0.0543 0.29646 0.0
H2285 H 0.44567 0.04073 0.31948 0.0
C2286 C 0.62171 0.98621 0.33874 0.0
C2287 C 0.63663 0.98979 0.32103 0.0
C2288 C 0.60511 0.98746 0.33137 0.0
C2289 C 0.60339 0.99238 0.30568 0.0
C2290 C 0.61851 0.99616 0.28782 0.0
C2291 C 0.63491 0.99484 0.29571 0.0
C2292 C 0.58935 0.98338 0.35094 0.0
C2293 C 0.61731 1.00146 0.26022 0.0
C2294 C 0.55601 0.97903 0.27072 0.0
C2295 C 0.55765 0.99752 0.26814 0.0
C2296 C 0.56985 0.9767 0.2851 0.0
C2297 C 0.58578 0.99333 0.29693 0.0
C2298 C 0.58632 0.01163 0.29643 0.0
C2299 C 0.57225 0.01352 0.2819 0.0
C2300 C 0.56859 0.9569 0.28526 0.0
C2301 C 0.6029 0.0297 0.30889 0.0
H2302 H 0.62296 0.98231 0.35835 0.0
H2303 H 0.64636 0.99764 0.28192 0.0
H2304 H 0.58699 0.99613 0.35234 0.0
H2305 H 0.57519 0.97055 0.34475 0.0
H2306 H 0.59314 0.9803 0.37031 0.0
H2307 H 0.63039 1.00416 0.24883 0.0
H2308 H 0.60397 0.98942 0.25093 0.0
H2309 H 0.61601 0.01488 0.25951 0.0
H2310 H 0.54494 0.96678 0.2596 0.0
H2311 H 0.57373 0.0279 0.27943 0.0
H2312 H 0.57187 0.95343 0.30466 0.0
H2313 H 0.5797 0.9572 0.27183 0.0
H2314 H 0.55382 0.94494 0.27917 0.0
H2315 H 0.60634 0.0262 0.32818 0.0
H2316 H 0.59935 0.04166 0.31082 0.0
H2317 H 0.61635 0.03521 0.29696 0.0
C2318 C 0.03345 0.63918 0.34501 0.0
C2319 C 0.02973 0.6503 0.32711 0.0
C2320 C 0.03194 0.62116 0.33799 0.0
C2321 C 0.02701 0.61434 0.31235 0.0
C2322 C 0.02289 0.62537 0.2944 0.0
C2323 C 0.02413 0.64307 0.30206 0.0
C2324 C 0.03604 0.60965 0.35781 0.0
C2325 C 0.01781 0.61882 0.26676 0.0
C2326 C 0.04438 0.58348 0.27795 0.0
C2327 C 0.02655 0.56605 0.27364 0.0
C2328 C 0.04509 0.5988 0.2926 0.0
C2329 C 0.02751 0.59655 0.30337 0.0
C2330 C 1.00988 0.57812 0.30143 0.0
C2331 C 1.00956 0.56308 0.28633 0.0
C2332 C 0.0642 0.61814 0.29397 0.0
C2333 C 0.99093 0.57491 0.31315 0.0
H2334 H 0.03766 0.64463 0.36447 0.0
H2335 H 0.02125 0.65158 0.28812 0.0
H2336 H 0.02412 0.59403 0.35774 0.0
H2337 H 0.04994 0.60994 0.35301 0.0
H2338 H 0.03741 0.61571 0.37748 0.0
H2339 H 0.01465 0.62887 0.25534 0.0
H2340 H 0.03023 0.61817 0.25758 0.0
H2341 H 1.00476 0.60383 0.26589 0.0
H2342 H 0.05744 0.58583 0.2678 0.0
H2343 H 0.99571 0.54972 0.28268 0.0
H2344 H 0.06693 0.62422 0.31373 0.0
H2345 H 0.0633 0.62894 0.28113 0.0
H2346 H 0.07696 0.61666 0.28789 0.0
H2347 H 0.99358 0.58164 0.33255 0.0
H2348 H 0.97983 0.55901 0.31465 0.0
H2349 H 0.98471 0.58205 0.30095 0.0
C2350 C 0.38595 0.40305 0.34263 0.0
C2351 C 0.37404 0.38806 0.32527 0.0
C2352 C 0.40386 0.41935 0.33468 0.0
C2353 C 0.40977 0.42084 0.30868 0.0
C2354 C 0.39801 0.40548 0.29129 0.0
C2355 C 0.38041 0.38925 0.29984 0.0
C2356 C 0.41617 0.4352 0.3539 0.0
C2357 C 0.40359 0.40652 0.26331 0.0
C2358 C 0.43955 0.46876 0.27306 0.0
C2359 C 0.45694 0.46851 0.268 0.0
C2360 C 0.42465 0.45419 0.28827 0.0
C2361 C 0.42726 0.43902 0.29875 0.0
C2362 C 0.44564 0.43987 0.29582 0.0
C2363 C 0.46028 0.45459 0.28025 0.0
C2364 C 0.40535 0.4539 0.29074 0.0
C2365 C 0.4492 0.42426 0.30713 0.0
H2366 H 0.38117 0.40214 0.36237 0.0
H2367 H 0.37131 0.37773 0.28632 0.0
H2368 H 0.43177 0.4389 0.35283 0.0
H2369 H 0.41576 0.44877 0.3493 0.0
H2370 H 0.41084 0.43075 0.3739 0.0
H2371 H 0.39317 0.39308 0.25248 0.0
H2372 H 0.40389 0.4194 0.25411 0.0
H2373 H 0.41858 0.40854 0.2616 0.0
H2374 H 0.43695 0.47944 0.2633 0.0
H2375 H 0.47363 0.45426 0.27603 0.0
H2376 H 0.40002 0.45092 0.31086 0.0
H2377 H 0.39408 0.44191 0.27861 0.0
H2378 H 0.40659 0.468 0.28453 0.0
H2379 H 0.44313 0.42038 0.32687 0.0
H2380 H 0.46513 0.42906 0.3077 0.0
H2381 H 0.44159 0.41074 0.29522 0.0
C2382 C 0.31535 0.27615 0.35225 0.0
C2383 C 0.32538 0.29425 0.36519 0.0
C2384 C 0.31628 0.25968 0.36103 0.0
C2385 C 0.32744 0.26137 0.38329 0.0
C2386 C 0.33802 0.27977 0.39594 0.0
C2387 C 0.33687 0.29594 0.38673 0.0
C2388 C 0.3049 0.24037 0.34696 0.0
C2389 C 0.35013 0.28229 0.41973 0.0
C2390 C 0.31686 0.22032 0.4298 0.0
C2391 C 0.33308 0.2178 0.42572 0.0
C2392 C 0.31374 0.23317 0.41441 0.0
C2393 C 0.32731 0.24387 0.39462 0.0
C2394 C 0.34265 0.23992 0.38892 0.0
C2395 C 0.34539 0.22692 0.40463 0.0
C2396 C 0.29711 0.23677 0.42112 0.0
C2397 C 0.35734 0.25086 0.36789 0.0
H2398 H 0.30646 0.27475 0.33556 0.0
H2399 H 0.34472 0.30987 0.39678 0.0
H2400 H 0.31456 0.23418 0.34273 0.0
H2401 H 0.29275 0.2296 0.3593 0.0
H2402 H 0.29851 0.24192 0.32865 0.0
H2403 H 0.35808 0.29774 0.42669 0.0
H2404 H 0.34042 0.27279 0.43538 0.0
H2405 H 0.36106 0.27762 0.41578 0.0
H2406 H 0.3075 0.2134 0.44633 0.0
H2407 H 0.3581 0.22517 0.40175 0.0
H2408 H 0.2894 0.23729 0.40351 0.0
H2409 H 0.30317 0.25122 0.43088 0.0
H2410 H 0.28621 0.22525 0.43412 0.0
H2411 H 0.34986 0.25203 0.35043 0.0
H2412 H 0.36589 0.24359 0.36269 0.0
H2413 H 0.36781 0.26602 0.37451 0.0
C2414 C 0.72801 0.05007 0.38225 0.0
C2415 C 0.73108 0.03973 0.36258 0.0
C2416 C 0.74371 0.06733 0.39258 0.0
C2417 C 0.763 0.07454 0.38292 0.0
C2418 C 0.76608 0.06465 0.36227 0.0
C2419 C 0.75008 0.04729 0.3524 0.0
C2420 C 0.73974 0.07737 0.41462 0.0
C2421 C 0.78636 0.07197 0.35128 0.0
C2422 C 0.79833 0.12649 0.406 0.0
C2423 C 0.8054 0.12262 0.42867 0.0
C2424 C 0.78564 0.11104 0.38956 0.0
C2425 C 0.77994 0.09139 0.39614 0.0
C2426 C 0.78851 0.08772 0.41786 0.0
C2427 C 0.80111 0.10339 0.43388 0.0
C2428 C 0.77704 0.11562 0.36644 0.0
C2429 C 0.78298 0.06705 0.42558 0.0
H2430 H 0.71338 0.04436 0.39016 0.0
H2431 H 0.75255 0.03941 0.33712 0.0
H2432 H 0.74742 0.07663 0.43215 0.0
H2433 H 0.7456 0.09314 0.41016 0.0
H2434 H 0.72379 0.07053 0.41895 0.0
H2435 H 0.78593 0.0641 0.33335 0.0
H2436 H 0.7936 0.08795 0.34715 0.0
H2437 H 0.79563 0.06986 0.36557 0.0
H2438 H 0.80149 0.14135 0.40215 0.0
H2439 H 0.80653 0.10044 0.45153 0.0
H2440 H 0.76164 0.1117 0.37065 0.0
H2441 H 0.77668 0.1068 0.34958 0.0
H2442 H 0.7855 0.13147 0.36133 0.0
H2443 H 0.76761 0.05924 0.43279 0.0
H2444 H 0.79275 0.06689 0.44092 0.0
H2445 H 0.78364 0.05871 0.4088 0.0
C2446 C 0.97452 0.70735 0.34937 0.0
C2447 C 0.98249 0.69723 0.36223 0.0
C2448 C 0.95711 0.70644 0.35811 0.0
C2449 C 0.94757 0.69525 0.38027 0.0
C2450 C 0.95521 0.68446 0.39272 0.0
C2451 C 0.97251 0.68556 0.38352 0.0
C2452 C 0.94933 0.71799 0.3442 0.0
C2453 C 0.94554 0.67231 0.41642 0.0
C2454 C 0.91821 0.70674 0.42747 0.0
C2455 C 0.89923 0.69073 0.42369 0.0
C2456 C 0.93389 0.70947 0.41178 0.0
C2457 C 0.93049 0.69577 0.39195 0.0
C2458 C 0.91097 0.68067 0.38654 0.0
C2459 C 0.89551 0.67828 0.40261 0.0
C2460 C 0.9544 0.72583 0.41821 0.0
C2461 C 0.90664 0.6659 0.36542 0.0
H2462 H 0.98215 0.71638 0.33287 0.0
H2463 H 0.97852 0.67763 0.39351 0.0
H2464 H 0.93331 0.70862 0.3405 0.0
H2465 H 0.95136 0.73044 0.35641 0.0
H2466 H 0.95697 0.72396 0.32562 0.0
H2467 H 0.95281 0.66409 0.42311 0.0
H2468 H 0.94606 0.68203 0.43224 0.0
H2469 H 0.92982 0.66162 0.4125 0.0
H2470 H 0.92105 0.71621 0.444 0.0
H2471 H 0.88086 0.66574 0.39996 0.0
H2472 H 0.96248 0.73347 0.40052 0.0
H2473 H 0.96271 0.71952 0.42757 0.0
H2474 H 0.95422 0.73682 0.43146 0.0
H2475 H 0.91524 0.67323 0.34789 0.0
H2476 H 0.89074 0.65767 0.36043 0.0
H2477 H 0.91103 0.65518 0.37183 0.0
C2478 C 0.40226 0.02519 0.68277 0.0
C2479 C 0.38954 0.0257 0.70128 0.0
C2480 C 0.41828 0.0229 0.69003 0.0
C2481 C 0.42175 0.02135 0.71641 0.0
C2482 C 0.40876 0.0216 0.7351 0.0
C2483 C 0.39279 0.02366 0.72729 0.0
C2484 C 0.43164 0.02242 0.66957 0.0
C2485 C 0.41196 0.02013 0.76348 0.0
C2486 C 0.45203 1.00114 0.74594 0.0
C2487 C 0.46837 0.01847 0.75479 0.0
C2488 C 0.43751 1.00183 0.73087 0.0
C2489 C 0.43932 0.02028 0.72505 0.0
C2490 C 0.45678 0.0378 0.7319 0.0
C2491 C 0.47112 0.03666 0.74672 0.0
C2492 C 0.41933 0.98281 0.72356 0.0
C2493 C 0.45935 0.05779 0.7262 0.0
H2494 H 0.39977 0.02669 0.66262 0.0
H2495 H 0.38303 0.02405 0.7417 0.0
H2496 H 0.44657 0.03545 0.67157 0.0
H2497 H 0.43312 0.00919 0.67197 0.0
H2498 H 0.42612 0.02234 0.64987 0.0
H2499 H 0.40041 0.02038 0.77551 0.0
H2500 H 0.41208 1.00633 0.76753 0.0
H2501 H 0.4265 0.03255 0.76941 0.0
H2502 H 0.44978 0.98709 0.75262 0.0
H2503 H 0.48361 0.05004 0.75403 0.0
H2504 H 0.41448 0.98363 0.7038 0.0
H2505 H 0.40717 0.98005 0.73686 0.0
H2506 H 0.42186 0.97013 0.72474 0.0
H2507 H 0.4548 0.05847 0.70623 0.0
H2508 H 0.47483 0.06974 0.72899 0.0
H2509 H 0.44983 0.06053 0.73929 0.0
C2510 C 0.99231 0.38384 0.68121 0.0
C2511 C 0.99634 0.3731 0.69935 0.0
C2512 C 0.99311 0.40157 0.68802 0.0
C2513 C 0.99799 0.40863 0.71355 0.0
C2514 C 1.00248 0.39802 0.73174 0.0
C2515 C 1.00161 0.38044 0.72441 0.0
C2516 C 0.98833 0.41251 0.6681 0.0
C2517 C 1.00781 0.40501 0.75919 0.0
C2518 C 0.01663 0.46044 0.73749 0.0
C2519 C 1.00029 0.45791 0.75142 0.0
C2520 C 0.01559 0.44501 0.72263 0.0
C2521 C 0.99781 0.42667 0.72199 0.0
C2522 C 0.98074 0.42486 0.73384 0.0
C2523 C 0.98222 0.44052 0.74854 0.0
C2524 C 0.03409 0.44768 0.71009 0.0
C2525 C 0.96145 0.40566 0.73354 0.0
H2526 H 0.98822 0.37824 0.66179 0.0
H2527 H 1.00477 0.37224 0.73851 0.0
H2528 H 0.97463 0.4124 0.67357 0.0
H2529 H 1.00024 0.42811 0.66722 0.0
H2530 H 0.98628 0.4059 0.64866 0.0
H2531 H 0.01134 0.39531 0.77077 0.0
H2532 H 0.02071 0.42013 0.75959 0.0
H2533 H 0.99538 0.40556 0.76851 0.0
H2534 H 0.03069 0.47379 0.74015 0.0
H2535 H 0.96969 0.4385 0.75974 0.0
H2536 H 0.03083 0.44056 0.69091 0.0
H2537 H 0.04046 0.4406 0.72215 0.0
H2538 H 0.04532 0.46348 0.7079 0.0
H2539 H 0.9583 0.39895 0.71411 0.0
H2540 H 0.94897 0.4076 0.73959 0.0
H2541 H 0.96239 0.39518 0.74696 0.0
C2542 C 0.64666 0.63437 0.72589 0.0
C2543 C 0.65309 0.63626 0.7004 0.0
C2544 C 0.62904 0.61793 0.73388 0.0
C2545 C 0.61732 0.60309 0.71585 0.0
C2546 C 0.62326 0.60533 0.6898 0.0
C2547 C 0.64121 0.62182 0.68241 0.0
C2548 C 0.62339 0.61608 0.76193 0.0
C2549 C 0.61099 0.59005 0.66993 0.0
C2550 C 0.58771 0.5544 0.74965 0.0
C2551 C 0.57043 0.55465 0.75547 0.0
C2552 C 0.60249 0.56924 0.73462 0.0
C2553 C 0.59985 0.58465 0.72512 0.0
C2554 C 0.58151 0.58376 0.72869 0.0
C2555 C 0.56701 0.5688 0.7441 0.0
C2556 C 0.62176 0.56956 0.73144 0.0
C2557 C 0.57791 0.59962 0.71838 0.0
H2558 H 0.65576 0.64547 0.73989 0.0
H2559 H 0.64604 0.62328 0.66262 0.0
H2560 H 0.60842 0.61403 0.76395 0.0
H2561 H 0.62306 0.60293 0.77031 0.0
H2562 H 0.63381 0.62918 0.77332 0.0
H2563 H 0.61624 0.59517 0.65007 0.0
H2564 H 0.61158 0.57644 0.67346 0.0
H2565 H 0.59534 0.58615 0.67138 0.0
H2566 H 0.59037 0.54355 0.75878 0.0
H2567 H 0.55374 0.56911 0.74893 0.0
H2568 H 0.63308 0.58119 0.74395 0.0
H2569 H 0.62706 0.5731 0.71134 0.0
H2570 H 0.62051 0.55528 0.73676 0.0
H2571 H 0.58549 0.61283 0.73084 0.0
H2572 H 0.56197 0.59478 0.71799 0.0
H2573 H 0.58398 0.60401 0.6987 0.0
C2574 C 0.71482 0.74936 0.67871 0.0
C2575 C 0.70465 0.73181 0.66463 0.0
C2576 C 0.71491 0.76652 0.67072 0.0
C2577 C 0.70469 0.76609 0.64806 0.0
C2578 C 0.69395 0.74824 0.63423 0.0
C2579 C 0.69404 0.73136 0.64271 0.0
C2580 C 0.72639 0.78521 0.68605 0.0
C2581 C 0.68282 0.74707 0.60994 0.0
C2582 C 0.68874 0.80195 0.6266 0.0
C2583 C 0.70156 0.81097 0.60593 0.0
C2584 C 0.69079 0.78864 0.64255 0.0
C2585 C 0.70597 0.78433 0.63749 0.0
C2586 C 0.72024 0.79519 0.61848 0.0
C2587 C 0.71781 0.80836 0.60286 0.0
C2588 C 0.67543 0.77763 0.66284 0.0
C2589 C 0.73675 0.79123 0.61253 0.0
H2590 H 0.72303 0.74979 0.69571 0.0
H2591 H 0.68609 0.71785 0.63177 0.0
H2592 H 0.73938 0.79594 0.67484 0.0
H2593 H 0.71724 0.79205 0.6898 0.0
H2594 H 0.7316 0.78259 0.7047 0.0
H2595 H 0.67466 0.73192 0.60198 0.0
H2596 H 0.67216 0.75212 0.61377 0.0
H2597 H 0.69323 0.75693 0.5951 0.0
H2598 H 0.67603 0.80381 0.62875 0.0
H2599 H 0.72761 0.81525 0.58669 0.0
H2600 H 0.6822 0.77559 0.68044 0.0
H2601 H 0.66464 0.76282 0.65544 0.0
H2602 H 0.66734 0.78536 0.66803 0.0
H2603 H 0.74359 0.78982 0.63046 0.0
H2604 H 0.74834 0.80304 0.60053 0.0
H2605 H 0.73074 0.77712 0.60191 0.0
C2606 C 0.27709 0.97434 0.67591 0.0
C2607 C 0.29516 0.98162 0.66314 0.0
C2608 C 0.2602 0.95715 0.66735 0.0
C2609 C 0.26141 0.94719 0.64537 0.0
C2610 C 0.27978 0.9542 0.63291 0.0
C2611 C 0.2964 0.97124 0.64201 0.0
C2612 C 0.24096 0.95002 0.68132 0.0
C2613 C 0.28178 0.94409 0.60934 0.0
C2614 C 0.22579 0.89534 0.62312 0.0
C2615 C 0.21755 0.89921 0.60159 0.0
C2616 C 0.23871 0.9107 0.63948 0.0
C2617 C 0.24348 0.93026 0.63394 0.0
C2618 C 0.23338 0.93377 0.61392 0.0
C2619 C 0.22053 0.91817 0.59798 0.0
C2620 C 0.24883 0.90625 0.6609 0.0
C2621 C 0.23786 0.95432 0.60737 0.0
H2622 H 0.27605 0.98226 0.69233 0.0
H2623 H 0.31031 0.97674 0.63206 0.0
H2624 H 0.23076 0.9524 0.66912 0.0
H2625 H 0.23383 0.934 0.68511 0.0
H2626 H 0.24297 0.95783 0.69986 0.0
H2627 H 0.29722 0.95102 0.60245 0.0
H2628 H 0.27648 0.92839 0.61354 0.0
H2629 H 0.27252 0.9446 0.59356 0.0
H2630 H 0.22363 0.88071 0.62576 0.0
H2631 H 0.21422 0.92114 0.5812 0.0
H2632 H 0.25037 0.91513 0.67823 0.0
H2633 H 0.26385 0.91011 0.65463 0.0
H2634 H 0.24072 0.89041 0.66614 0.0
H2635 H 0.23862 0.9626 0.625 0.0
H2636 H 0.22664 0.95422 0.59423 0.0
H2637 H 0.25242 0.96233 0.59779 0.0
C2638 C 0.05229 0.33279 0.64173 0.0
C2639 C 0.0434 0.32431 0.66523 0.0
C2640 C 0.0694 0.33297 0.63357 0.0
C2641 C 0.07806 0.3247 0.64945 0.0
C2642 C 0.06964 0.31686 0.67372 0.0
C2643 C 0.0523 0.31661 0.68125 0.0
C2644 C 0.07779 0.34138 0.60744 0.0
C2645 C 0.0786 0.30822 0.69136 0.0
C2646 C 0.10645 0.30771 0.60867 0.0
C2647 C 0.12513 0.32461 0.6084 0.0
C2648 C 0.09131 0.30676 0.62399 0.0
C2649 C 0.09501 0.32311 0.63944 0.0
C2650 C 0.11447 0.33927 0.6414 0.0
C2651 C 0.12934 0.33989 0.62566 0.0
C2652 C 0.07086 0.28921 0.62125 0.0
C2653 C 0.11916 0.35681 0.65803 0.0
H2654 H 0.04552 0.33877 0.62926 0.0
H2655 H 0.04555 0.31012 0.69952 0.0
H2656 H 0.09347 0.35301 0.60927 0.0
H2657 H 0.07722 0.32968 0.59492 0.0
H2658 H 0.06965 0.34778 0.59779 0.0
H2659 H 0.07178 0.30497 0.71075 0.0
H2660 H 0.0766 0.29435 0.68298 0.0
H2661 H 0.09467 0.31844 0.6934 0.0
H2662 H 0.10318 0.29603 0.59503 0.0
H2663 H 0.14372 0.35307 0.62516 0.0
H2664 H 0.06171 0.29339 0.60952 0.0
H2665 H 0.06369 0.28433 0.64028 0.0
H2666 H 0.07099 0.27663 0.61172 0.0
H2667 H 0.11411 0.36603 0.64823 0.0
H2668 H 0.13523 0.36601 0.66166 0.0
H2669 H 0.11138 0.3521 0.67672 0.0
C2670 C 0.30285 0.33228 0.63469 0.0
C2671 C 0.3051 0.32812 0.66024 0.0
C2672 C 0.2866 0.33392 0.62701 0.0
C2673 C 0.27234 0.3317 0.64543 0.0
C2674 C 0.27491 0.32827 0.67149 0.0
C2675 C 0.29117 0.32631 0.67856 0.0
C2676 C 0.28437 0.33736 0.59894 0.0
C2677 C 0.26028 0.32623 0.69176 0.0
C2678 C 0.23965 0.34991 0.61784 0.0
C2679 C 0.22451 0.33253 0.60712 0.0
C2680 C 0.25444 0.34966 0.63287 0.0
C2681 C 0.25421 0.33168 0.63665 0.0
C2682 C 0.23789 0.3139 0.62782 0.0
C2683 C 0.2232 0.31457 0.61323 0.0
C2684 C 0.27129 0.36887 0.64249 0.0
C2685 C 0.23703 0.2944 0.63117 0.0
H2686 H 0.31353 0.33368 0.62042 0.0
H2687 H 0.2929 0.32322 0.69839 0.0
H2688 H 0.2706 0.32482 0.5912 0.0
H2689 H 0.2832 0.35077 0.59669 0.0
H2690 H 0.29692 0.33908 0.58714 0.0
H2691 H 0.2655 0.32582 0.71147 0.0
H2692 H 0.25734 0.33862 0.69047 0.0
H2693 H 0.24608 0.31248 0.68849 0.0
H2694 H 0.24082 0.36383 0.61273 0.0
H2695 H 0.21165 0.30119 0.6045 0.0
H2696 H 0.28415 0.37365 0.62962 0.0
H2697 H 0.27582 0.36717 0.66208 0.0
H2698 H 0.26737 0.38063 0.64283 0.0
H2699 H 0.24792 0.2938 0.61819 0.0
H2700 H 0.22222 0.2818 0.62656 0.0
H2701 H 0.2409 0.2927 0.65112 0.0
C2702 C 0.70319 0.97523 0.6805 0.0
C2703 C 0.69819 0.98595 0.66358 0.0
C2704 C 0.70151 0.95724 0.67296 0.0
C2705 C 0.69499 0.95001 0.6478 0.0
C2706 C 0.68944 0.96056 0.63092 0.0
C2707 C 0.69099 0.97829 0.63908 0.0
C2708 C 0.70724 0.94628 0.69163 0.0
C2709 C 0.68254 0.9535 0.60383 0.0
C2710 C 0.71074 0.91931 0.60978 0.0
C2711 C 0.69291 0.90157 0.60745 0.0
C2712 C 0.71214 0.93474 0.62488 0.0
C2713 C 0.69527 0.9323 0.63803 0.0
C2714 C 0.67781 0.91365 0.63788 0.0
C2715 C 0.67678 0.89849 0.62236 0.0
C2716 C 0.73105 0.95431 0.62438 0.0
C2717 C 0.65963 0.91028 0.65205 0.0
H2718 H 0.70866 0.98102 0.69953 0.0
H2719 H 0.68708 0.98648 0.6259 0.0
H2720 H 0.69564 0.93054 0.69241 0.0
H2721 H 0.72097 0.94691 0.68503 0.0
H2722 H 0.70972 0.95255 0.71133 0.0
H2723 H 0.67823 0.96309 0.5934 0.0
H2724 H 0.69445 0.95308 0.59289 0.0
H2725 H 0.66974 0.93832 0.60414 0.0
H2726 H 0.72311 0.92173 0.59791 0.0
H2727 H 0.66291 0.88485 0.62024 0.0
H2728 H 0.73505 0.96071 0.64395 0.0
H2729 H 0.72899 0.96474 0.61222 0.0
H2730 H 0.74349 0.95303 0.61645 0.0
H2731 H 0.6635 0.91734 0.67128 0.0
H2732 H 0.6489 0.89435 0.65443 0.0
H2733 H 0.65237 0.91699 0.64106 0.0
C2734 C 0.04823 0.72351 0.63106 0.0
C2735 C 0.04188 0.7215 0.65662 0.0
C2736 C 0.0666 0.73909 0.62348 0.0
C2737 C 0.07916 0.753 0.64196 0.0
C2738 C 0.07304 0.75087 0.66794 0.0
C2739 C 0.05439 0.73519 0.67496 0.0
C2740 C 0.0724 0.74082 0.59549 0.0
C2741 C 0.08612 0.76523 0.68822 0.0
C2742 C 0.13089 0.78103 0.61531 0.0
C2743 C 0.1307 0.79702 0.60376 0.0
C2744 C 0.11496 0.76755 0.63041 0.0
C2745 C 0.09834 0.76994 0.6334 0.0
C2746 C 0.09898 0.7871 0.62369 0.0
C2747 C 0.11521 0.80047 0.609 0.0
C2748 C 0.1151 0.74971 0.64083 0.0
C2749 C 0.0816 0.79024 0.62623 0.0
H2750 H 0.03866 0.71303 0.61675 0.0
H2751 H 0.04959 0.73369 0.69477 0.0
H2752 H 0.07507 0.75508 0.58766 0.0
H2753 H 0.08632 0.74052 0.59355 0.0
H2754 H 0.06094 0.72879 0.58357 0.0
H2755 H 0.07974 0.76089 0.70779 0.0
H2756 H 0.10079 0.76638 0.68806 0.0
H2757 H 0.08846 0.78008 0.68394 0.0
H2758 H 0.14275 0.77822 0.61086 0.0
H2759 H 0.11494 0.81265 0.5996 0.0
H2760 H 0.10598 0.73688 0.62826 0.0
H2761 H 0.10867 0.74606 0.6604 0.0
H2762 H 0.13023 0.75195 0.64152 0.0
H2763 H 0.06979 0.78019 0.61285 0.0
H2764 H 0.08559 0.80559 0.62153 0.0
H2765 H 0.0755 0.78678 0.64597 0.0
C2766 C 0.9817 0.61692 0.71465 0.0
C2767 C 0.98916 0.6264 0.6911 0.0
C2768 C 0.98562 0.60238 0.72354 0.0
C2769 C 0.99705 0.59688 0.70834 0.0
C2770 C 1.00384 0.60571 0.68395 0.0
C2771 C 0.99998 0.62053 0.67572 0.0
C2772 C 0.97822 0.59352 0.74979 0.0
C2773 C 0.01571 0.59999 0.66696 0.0
C2774 C 0.02298 0.57805 0.75095 0.0
C2775 C 1.00908 0.55792 0.75195 0.0
C2776 C 0.02017 0.59077 0.73493 0.0
C2777 C 1.0031 0.58313 0.71932 0.0
C2778 C 0.99025 0.5625 0.71803 0.0
C2779 C 0.99335 0.55009 0.73451 0.0
C2780 C 0.03431 0.61262 0.73697 0.0
C2781 C 0.97218 0.55368 0.70116 0.0
H2782 H 0.97333 0.62137 0.72666 0.0
H2783 H 1.00572 0.62774 0.65743 0.0
H2784 H 0.96938 0.57727 0.74837 0.0
H2785 H 0.99088 0.59717 0.76266 0.0
H2786 H 0.96901 0.59893 0.75883 0.0
H2787 H 0.01736 0.60598 0.6472 0.0
H2788 H 0.0306 0.60567 0.67531 0.0
H2789 H 1.0087 0.58375 0.6658 0.0
H2790 H 0.03516 0.58409 0.76447 0.0
H2791 H 0.98251 0.53454 0.73536 0.0
H2792 H 0.02724 0.61955 0.7479 0.0
H2793 H 0.03806 0.61949 0.71767 0.0
H2794 H 0.04815 0.61594 0.747 0.0
H2795 H 0.96061 0.55575 0.71041 0.0
H2796 H 0.96617 0.53768 0.69815 0.0
H2797 H 0.9755 0.56111 0.68219 0.0
C2798 C 0.39917 0.38101 0.719 0.0
C2799 C 0.39871 0.37249 0.69517 0.0
C2800 C 0.4159 0.39837 0.72712 0.0
C2801 C 0.43263 0.40762 0.71093 0.0
C2802 C 0.43205 0.39949 0.68643 0.0
C2803 C 0.41511 0.38193 0.67888 0.0
C2804 C 0.41585 0.40647 0.75346 0.0
C2805 C 0.44947 0.40903 0.66853 0.0
C2806 C 0.46704 0.45932 0.73476 0.0
C2807 C 0.47876 0.45589 0.75186 0.0
C2808 C 0.45317 0.44413 0.71898 0.0
C2809 C 0.45092 0.4251 0.72072 0.0
C2810 C 0.46423 0.42225 0.73599 0.0
C2811 C 0.478 0.43771 0.75141 0.0
C2812 C 0.43954 0.44792 0.70263 0.0
C2813 C 0.46245 0.40228 0.73845 0.0
H2814 H 0.38656 0.37384 0.73169 0.0
H2815 H 0.41483 0.37544 0.66039 0.0
H2816 H 0.42748 0.40644 0.76561 0.0
H2817 H 0.41923 0.42192 0.75189 0.0
H2818 H 0.40149 0.3978 0.7634 0.0
H2819 H 0.44594 0.40214 0.64916 0.0
H2820 H 0.45464 0.42494 0.66649 0.0
H2821 H 0.46184 0.40775 0.67669 0.0
H2822 H 0.46743 0.4733 0.73544 0.0
H2823 H 0.48688 0.43501 0.76499 0.0
H2824 H 0.4252 0.44215 0.7126 0.0
H2825 H 0.43669 0.44025 0.68387 0.0
H2826 H 0.44565 0.46389 0.69914 0.0
H2827 H 0.44947 0.39268 0.7505 0.0
H2828 H 0.4757 0.40321 0.74754 0.0
H2829 H 0.46016 0.39516 0.71938 0.0
C2830 C 0.6454 0.04457 0.6851 0.0
C2831 C 0.65362 0.03534 0.69948 0.0
C2832 C 0.6279 0.04385 0.69303 0.0
C2833 C 0.61852 0.03377 0.71591 0.0
C2834 C 0.62652 0.02399 0.73007 0.0
C2835 C 0.6439 0.02487 0.72166 0.0
C2836 C 0.61977 0.0543 0.67732 0.0
C2837 C 0.61702 0.01306 0.75461 0.0
C2838 C 0.58778 0.04593 0.75973 0.0
C2839 C 0.56916 0.02922 0.75668 0.0
C2840 C 0.60377 0.04863 0.74468 0.0
C2841 C 0.60102 0.03418 0.72626 0.0
C2842 C 0.58177 0.01836 0.72131 0.0
C2843 C 0.56602 0.01602 0.73672 0.0
C2844 C 0.62396 0.06578 0.75055 0.0
C2845 C 0.57811 1.00278 0.70166 0.0
H2846 H 0.65283 0.05265 0.6679 0.0
H2847 H 0.65012 0.01766 0.73283 0.0
H2848 H 0.60388 0.04432 0.67335 0.0
H2849 H 0.62109 0.06699 0.68836 0.0
H2850 H 0.62763 0.05979 0.65877 0.0
H2851 H 0.62472 1.0057 0.76288 0.0
H2852 H 0.61707 0.02343 0.76913 0.0
H2853 H 0.60144 1.00176 0.75099 0.0
H2854 H 0.59021 0.05596 0.77545 0.0
H2855 H 0.55167 1.00294 0.73468 0.0
H2856 H 0.63211 0.07261 0.73258 0.0
H2857 H 0.63253 0.06046 0.76147 0.0
H2858 H 0.62318 0.07721 0.76222 0.0
H2859 H 0.58674 0.00947 0.68393 0.0
H2860 H 0.56227 0.99388 0.69652 0.0
H2861 H 0.58291 0.99275 0.70962 0.0
loop_
_geom_bond_atom_site_label_1
_geom_bond_atom_site_label_2
_geom_bond_distance
_geom_bond_site_symmetry_2
_ccdc_geom_bond_type
In0 O1 2.294 1_455 S
In0 O2 2.326 . S
In0 O6 2.266 1_455 S
In0 O7 2.326 1_454 S
In0 O8 2.266 1_554 S
In0 O9 2.326 1_454 S
In0 O11 2.294 . S
In0 O12 2.326 . S
O1 In0 2.294 1_655 S
O1 C10 1.240 1_655 S
O2 In0 2.326 . S
O2 C10 1.252 . S
C3 O6 1.252 1_556 S
C3 O7 1.260 . S
C4 O11 1.240 . S
C4 O12 1.252 . S
C5 O8 1.252 . S
C5 O9 1.260 1_455 S
O6 In0 2.266 1_655 S
O6 C3 1.252 1_554 S
O7 In0 2.326 1_656 S
O7 C3 1.260 . S
O8 In0 2.266 1_556 S
O8 C5 1.252 . S
O9 In0 2.326 1_656 S
O9 C5 1.260 1_655 S
C10 O1 1.240 1_455 S
C10 O2 1.252 . S
O11 In0 2.294 . S
O11 C4 1.240 . S
O12 In0 2.326 . S
O12 C4 1.252 . S
In13 O14 2.294 . S
In13 O15 2.326 . S
In13 O19 2.266 . S
In13 O20 2.326 1_554 S
In13 O21 2.266 1_554 S
In13 O22 2.326 1_554 S
In13 O24 2.294 . S
In13 O25 2.326 . S
O14 In13 2.294 . S
O14 C23 1.240 . S
O15 In13 2.326 . S
O15 C23 1.252 . S
C16 O19 1.252 1_556 S
C16 O20 1.260 . S
C17 O24 1.240 . S
C17 O25 1.252 . S
C18 O21 1.252 . S
C18 O22 1.260 . S
O19 In13 2.266 . S
O19 C16 1.252 1_554 S
O20 In13 2.326 1_556 S
O20 C16 1.260 . S
O21 In13 2.266 1_556 S
O21 C18 1.252 . S
O22 In13 2.326 1_556 S
O22 C18 1.260 . S
C23 O14 1.240 . S
C23 O15 1.252 . S
O24 In13 2.294 . S
O24 C17 1.240 . S
O25 In13 2.326 . S
O25 C17 1.252 . S
In26 O27 2.294 . S
In26 O28 2.326 1_554 S
In26 O32 2.266 . S
In26 O33 2.326 1_545 S
In26 O34 2.266 1_545 S
In26 O35 2.326 1_545 S
In26 O37 2.294 1_544 S
In26 O38 2.326 1_554 S
O27 In26 2.294 . S
O27 C36 1.240 1_554 S
O28 In26 2.326 1_556 S
O28 C36 1.252 . S
C29 O32 1.252 . S
C29 O33 1.260 1_545 S
C30 O37 1.240 1_545 S
C30 O38 1.252 . S
C31 O34 1.252 . S
C31 O35 1.260 . S
O32 In26 2.266 . S
O32 C29 1.252 . S
O33 In26 2.326 1_565 S
O33 C29 1.260 1_565 S
O34 In26 2.266 1_565 S
O34 C31 1.252 . S
O35 In26 2.326 1_565 S
O35 C31 1.260 . S
C36 O27 1.240 1_556 S
C36 O28 1.252 . S
O37 In26 2.294 1_566 S
O37 C30 1.240 1_565 S
O38 In26 2.326 1_556 S
O38 C30 1.252 . S
In39 O40 2.294 1_554 S
In39 O41 2.326 1_454 S
In39 O45 2.266 . S
In39 O46 2.326 . S
In39 O47 2.266 1_455 S
In39 O48 2.326 . S
In39 O50 2.294 1_455 S
In39 O51 2.326 1_454 S
O40 In39 2.294 1_556 S
O40 C49 1.240 . S
O41 In39 2.326 1_656 S
O41 C49 1.252 1_655 S
C42 O45 1.252 . S
C42 O46 1.260 . S
C43 O50 1.240 1_556 S
C43 O51 1.252 . S
C44 O47 1.252 1_455 S
C44 O48 1.260 . S
O45 In39 2.266 . S
O45 C42 1.252 . S
O46 In39 2.326 . S
O46 C42 1.260 . S
O47 In39 2.266 1_655 S
O47 C44 1.252 1_655 S
O48 In39 2.326 . S
O48 C44 1.260 . S
C49 O40 1.240 . S
C49 O41 1.252 1_455 S
O50 In39 2.294 1_655 S
O50 C43 1.240 1_554 S
O51 In39 2.326 1_656 S
O51 C43 1.252 . S
In52 O53 2.294 1_554 S
In52 O54 2.326 1_554 S
In52 O58 2.266 . S
In52 O59 2.326 . S
In52 O60 2.266 . S
In52 O61 2.326 . S
In52 O63 2.294 . S
In52 O64 2.326 1_554 S
O53 In52 2.294 1_556 S
O53 C62 1.240 . S
O54 In52 2.326 1_556 S
O54 C62 1.252 . S
C55 O58 1.252 . S
C55 O59 1.260 . S
C56 O63 1.240 1_556 S
C56 O64 1.252 . S
C57 O60 1.252 . S
C57 O61 1.260 . S
O58 In52 2.266 . S
O58 C55 1.252 . S
O59 In52 2.326 . S
O59 C55 1.260 . S
O60 In52 2.266 . S
O60 C57 1.252 . S
O61 In52 2.326 . S
O61 C57 1.260 . S
C62 O53 1.240 . S
C62 O54 1.252 . S
O63 In52 2.294 . S
O63 C56 1.240 1_554 S
O64 In52 2.326 1_556 S
O64 C56 1.252 . S
In65 O66 2.294 . S
In65 O67 2.326 1_545 S
In65 O71 2.266 . S
In65 O72 2.326 1_554 S
In65 O73 2.266 1_544 S
In65 O74 2.326 1_554 S
In65 O76 2.294 1_545 S
In65 O77 2.326 1_545 S
O66 In65 2.294 . S
O66 C75 1.240 . S
O67 In65 2.326 1_565 S
O67 C75 1.252 1_565 S
C68 O71 1.252 1_556 S
C68 O72 1.260 . S
C69 O76 1.240 . S
C69 O77 1.252 . S
C70 O73 1.252 1_545 S
C70 O74 1.260 . S
O71 In65 2.266 . S
O71 C68 1.252 1_554 S
O72 In65 2.326 1_556 S
O72 C68 1.260 . S
O73 In65 2.266 1_566 S
O73 C70 1.252 1_565 S
O74 In65 2.326 1_556 S
O74 C70 1.260 . S
C75 O66 1.240 . S
C75 O67 1.252 1_545 S
O76 In65 2.294 1_565 S
O76 C69 1.240 . S
O77 In65 2.326 1_565 S
O77 C69 1.252 . S
In78 O79 2.294 . S
In78 O80 2.326 . S
In78 O84 2.266 . S
In78 O85 2.326 . S
In78 O86 2.266 . S
In78 O87 2.326 . S
In78 O89 2.294 . S
In78 O90 2.326 . S
O79 In78 2.294 . S
O79 C88 1.240 . S
O80 In78 2.326 . S
O80 C88 1.252 . S
C81 O84 1.252 . S
C81 O85 1.260 . S
C82 O89 1.240 . S
C82 O90 1.252 . S
C83 O86 1.252 . S
C83 O87 1.260 . S
O84 In78 2.266 . S
O84 C81 1.252 . S
O85 In78 2.326 . S
O85 C81 1.260 . S
O86 In78 2.266 . S
O86 C83 1.252 . S
O87 In78 2.326 . S
O87 C83 1.260 . S
C88 O79 1.240 . S
C88 O80 1.252 . S
O89 In78 2.294 . S
O89 C82 1.240 . S
O90 In78 2.326 . S
O90 C82 1.252 . S
In91 O92 2.294 . S
In91 O93 2.326 . S
In91 O97 2.266 . S
In91 O98 2.328 . S
In91 O99 2.266 . S
In91 O100 2.326 . S
In91 O102 2.294 1_565 S
In91 O103 2.326 1_565 S
O92 In91 2.294 . S
O92 C101 1.240 . S
O93 In91 2.326 . S
O93 C101 1.252 . S
C94 O97 1.252 . S
C94 O98 1.282 . S
C95 O102 1.240 . S
C95 O103 1.252 . S
C96 O99 1.252 . S
C96 O100 1.260 . S
O97 In91 2.266 . S
O97 C94 1.252 . S
O98 In91 2.328 . S
O98 C94 1.282 . S
O99 In91 2.266 . S
O99 C96 1.252 . S
O100 In91 2.326 . S
O100 C96 1.260 . S
C101 O92 1.240 . S
C101 O93 1.252 . S
O102 In91 2.294 1_545 S
O102 C95 1.240 . S
O103 In91 2.326 1_545 S
O103 C95 1.252 . S
In104 O105 2.294 . S
In104 O106 2.326 . S
In104 O110 2.266 . S
In104 O111 2.326 . S
In104 O112 2.266 1_455 S
In104 O113 2.334 . S
In104 O115 2.294 . S
In104 O116 2.326 . S
O105 In104 2.294 . S
O105 C114 1.240 . S
O106 In104 2.326 . S
O106 C114 1.252 . S
C107 O110 1.252 . S
C107 O111 1.260 . S
C108 O115 1.240 . S
C108 O116 1.252 . S
C109 O112 1.252 . S
C109 O113 1.260 1_655 S
O110 In104 2.266 . S
O110 C107 1.252 . S
O111 In104 2.326 . S
O111 C107 1.260 . S
O112 In104 2.266 1_655 S
O112 C109 1.252 . S
O113 In104 2.334 . S
O113 C109 1.260 1_455 S
C114 O105 1.240 . S
C114 O106 1.252 . S
O115 In104 2.294 . S
O115 C108 1.240 . S
O116 In104 2.326 . S
O116 C108 1.252 . S
In117 O118 2.294 . S
In117 O119 2.326 . S
In117 O123 2.266 1_565 S
In117 O124 2.326 1_565 S
In117 O125 2.266 . S
In117 O126 2.326 . S
In117 O128 2.294 . S
In117 O129 2.326 . S
O118 In117 2.294 . S
O118 C127 1.240 . S
O119 In117 2.326 . S
O119 C127 1.252 . S
C120 O123 1.252 . S
C120 O124 1.260 . S
C121 O128 1.240 . S
C121 O129 1.252 . S
C122 O125 1.252 . S
C122 O126 1.260 . S
O123 In117 2.266 1_545 S
O123 C120 1.252 . S
O124 In117 2.326 1_545 S
O124 C120 1.260 . S
O125 In117 2.266 . S
O125 C122 1.252 . S
O126 In117 2.326 . S
O126 C122 1.260 . S
C127 O118 1.240 . S
C127 O119 1.252 . S
O128 In117 2.294 . S
O128 C121 1.240 . S
O129 In117 2.326 . S
O129 C121 1.252 . S
In130 O131 2.294 . S
In130 O132 2.326 . S
In130 O136 2.266 1_455 S
In130 O137 2.322 . S
In130 O138 2.266 . S
In130 O139 2.326 . S
In130 O141 2.294 . S
In130 O142 2.326 . S
O131 In130 2.294 . S
O131 C140 1.240 . S
O132 In130 2.326 . S
O132 C140 1.252 . S
C133 O136 1.252 . S
C133 O137 1.266 1_655 S
C134 O141 1.240 . S
C134 O142 1.252 . S
C135 O138 1.252 . S
C135 O139 1.260 . S
O136 In130 2.266 1_655 S
O136 C133 1.252 . S
O137 In130 2.322 . S
O137 C133 1.266 1_455 S
O138 In130 2.266 . S
O138 C135 1.252 . S
O139 In130 2.326 . S
O139 C135 1.260 . S
C140 O131 1.240 . S
C140 O132 1.252 . S
O141 In130 2.294 . S
O141 C134 1.240 . S
O142 In130 2.326 . S
O142 C134 1.252 . S
In143 O144 2.294 . S
In143 O145 2.326 . S
In143 O149 2.266 . S
In143 O150 2.326 . S
In143 O151 2.266 . S
In143 O152 2.326 . S
In143 O154 2.294 . S
In143 O155 2.326 . S
O144 In143 2.294 . S
O144 C153 1.240 . S
O145 In143 2.326 . S
O145 C153 1.252 . S
C146 O149 1.252 . S
C146 O150 1.260 . S
C147 O154 1.240 . S
C147 O155 1.252 . S
C148 O151 1.252 . S
C148 O152 1.260 . S
O149 In143 2.266 . S
O149 C146 1.252 . S
O150 In143 2.326 . S
O150 C146 1.260 . S
O151 In143 2.266 . S
O151 C148 1.252 . S
O152 In143 2.326 . S
O152 C148 1.260 . S
C153 O144 1.240 . S
C153 O145 1.252 . S
O154 In143 2.294 . S
O154 C147 1.240 . S
O155 In143 2.326 . S
O155 C147 1.252 . S
In156 O157 2.294 . S
In156 O158 2.326 . S
In156 O162 2.266 . S
In156 O163 2.326 . S
In156 O164 2.266 1_545 S
In156 O165 2.353 . S
In156 O167 2.294 . S
In156 O168 2.326 . S
O157 In156 2.294 . S
O157 C166 1.240 . S
O158 In156 2.326 . S
O158 C166 1.252 . S
C159 O162 1.252 . S
C159 O163 1.260 . S
C160 O167 1.240 . S
C160 O168 1.252 . S
C161 O164 1.252 . S
C161 O165 1.260 1_565 S
O162 In156 2.266 . S
O162 C159 1.252 . S
O163 In156 2.326 . S
O163 C159 1.260 . S
O164 In156 2.266 1_565 S
O164 C161 1.252 . S
O165 In156 2.353 . S
O165 C161 1.260 1_545 S
C166 O157 1.240 . S
C166 O158 1.252 . S
O167 In156 2.294 . S
O167 C160 1.240 . S
O168 In156 2.326 . S
O168 C160 1.252 . S
In169 O170 2.294 . S
In169 O171 2.326 . S
In169 O175 2.266 . S
In169 O176 2.326 . S
In169 O177 2.266 1_655 S
In169 O178 2.326 1_655 S
In169 O180 2.294 . S
In169 O181 2.326 . S
O170 In169 2.294 . S
O170 C179 1.240 . S
O171 In169 2.326 . S
O171 C179 1.252 . S
C172 O175 1.252 . S
C172 O176 1.260 . S
C173 O180 1.240 . S
C173 O181 1.252 . S
C174 O177 1.252 . S
C174 O178 1.260 . S
O175 In169 2.266 . S
O175 C172 1.252 . S
O176 In169 2.326 . S
O176 C172 1.260 . S
O177 In169 2.266 1_455 S
O177 C174 1.252 . S
O178 In169 2.326 1_455 S
O178 C174 1.260 . S
C179 O170 1.240 . S
C179 O171 1.252 . S
O180 In169 2.294 . S
O180 C173 1.240 . S
O181 In169 2.326 . S
O181 C173 1.252 . S
In182 O183 2.294 . S
In182 O184 2.326 . S
In182 O188 2.266 . S
In182 O189 2.326 . S
In182 O190 2.266 . S
In182 O191 2.326 . S
In182 O193 2.294 . S
In182 O194 2.326 . S
O183 In182 2.294 . S
O183 C192 1.240 . S
O184 In182 2.326 . S
O184 C192 1.252 . S
C185 O188 1.252 . S
C185 O189 1.260 . S
C186 O193 1.240 . S
C186 O194 1.252 . S
C187 O190 1.252 . S
C187 O191 1.260 . S
O188 In182 2.266 . S
O188 C185 1.252 . S
O189 In182 2.326 . S
O189 C185 1.260 . S
O190 In182 2.266 . S
O190 C187 1.252 . S
O191 In182 2.326 . S
O191 C187 1.260 . S
C192 O183 1.240 . S
C192 O184 1.252 . S
O193 In182 2.294 . S
O193 C186 1.240 . S
O194 In182 2.326 . S
O194 C186 1.252 . S
In195 O196 2.294 . S
In195 O197 2.326 . S
In195 O201 2.266 . S
In195 O202 2.326 . S
In195 O203 2.266 . S
In195 O204 2.326 . S
In195 O206 2.294 . S
In195 O207 2.326 . S
O196 In195 2.294 . S
O196 C205 1.240 . S
O197 In195 2.326 . S
O197 C205 1.252 . S
C198 O201 1.252 . S
C198 O202 1.260 . S
C199 O206 1.240 . S
C199 O207 1.252 . S
C200 O203 1.252 . S
C200 O204 1.260 . S
O201 In195 2.266 . S
O201 C198 1.252 . S
O202 In195 2.326 . S
O202 C198 1.260 . S
O203 In195 2.266 . S
O203 C200 1.252 . S
O204 In195 2.326 . S
O204 C200 1.260 . S
C205 O196 1.240 . S
C205 O197 1.252 . S
O206 In195 2.294 . S
O206 C199 1.240 . S
O207 In195 2.326 . S
O207 C199 1.252 . S
In208 O209 2.294 . S
In208 O210 2.326 . S
In208 O214 2.266 . S
In208 O215 2.326 . S
In208 O216 2.266 . S
In208 O217 2.326 . S
In208 O219 2.294 1_545 S
In208 O220 2.341 . S
O209 In208 2.294 . S
O209 C218 1.240 . S
O210 In208 2.326 . S
O210 C218 1.252 . S
C211 O214 1.252 . S
C211 O215 1.260 . S
C212 O219 1.240 . S
C212 O220 1.231 1_565 S
C213 O216 1.252 . S
C213 O217 1.260 . S
O214 In208 2.266 . S
O214 C211 1.252 . S
O215 In208 2.326 . S
O215 C211 1.260 . S
O216 In208 2.266 . S
O216 C213 1.252 . S
O217 In208 2.326 . S
O217 C213 1.260 . S
C218 O209 1.240 . S
C218 O210 1.252 . S
O219 In208 2.294 1_565 S
O219 C212 1.240 . S
O220 In208 2.341 . S
O220 C212 1.231 1_545 S
In221 O222 2.294 . S
In221 O223 2.326 . S
In221 O227 2.266 . S
In221 O228 2.326 . S
In221 O229 2.266 1_655 S
In221 O230 2.326 1_655 S
In221 O232 2.294 . S
In221 O233 2.326 . S
O222 In221 2.294 . S
O222 C231 1.240 . S
O223 In221 2.326 . S
O223 C231 1.252 . S
C224 O227 1.252 . S
C224 O228 1.260 . S
C225 O232 1.240 . S
C225 O233 1.252 . S
C226 O229 1.252 . S
C226 O230 1.260 . S
O227 In221 2.266 . S
O227 C224 1.252 . S
O228 In221 2.326 . S
O228 C224 1.260 . S
O229 In221 2.266 1_455 S
O229 C226 1.252 . S
O230 In221 2.326 1_455 S
O230 C226 1.260 . S
C231 O222 1.240 . S
C231 O223 1.252 . S
O232 In221 2.294 . S
O232 C225 1.240 . S
O233 In221 2.326 . S
O233 C225 1.252 . S
H234 C240 0.930 . S
H235 C243 0.931 . S
H236 C245 0.931 . S
H237 C247 0.930 . S
H238 C249 0.930 . S
H239 C251 0.931 . S
C240 H234 0.930 . S
C240 C241 1.380 . S
C240 C242 1.394 . S
C241 C240 1.380 . S
C241 C245 1.382 . S
C242 C240 1.394 . S
C242 C243 1.400 . S
C243 H235 0.931 . S
C243 C242 1.400 . S
C243 C244 1.375 . S
C244 C243 1.375 . S
C244 C245 1.415 . S
C244 C246 1.501 . S
C245 H236 0.931 . S
C245 C241 1.382 . S
C245 C244 1.415 . S
C246 C244 1.501 . S
C246 C247 1.384 . S
C246 C251 1.408 . S
C247 H237 0.930 . S
C247 C246 1.384 . S
C247 C248 1.389 . S
C248 C247 1.389 . S
C248 C249 1.405 . S
C249 H238 0.930 . S
C249 C248 1.405 . S
C249 C250 1.364 . S
C250 C249 1.364 . S
C250 C251 1.400 . S
C251 H239 0.931 . S
C251 C246 1.408 . S
C251 C250 1.400 . S
H252 C258 0.930 . S
H253 C261 0.931 . S
H254 C263 0.931 . S
H255 C265 0.930 . S
H256 C267 0.930 . S
H257 C269 0.931 . S
C258 H252 0.930 . S
C258 C259 1.380 . S
C258 C260 1.394 . S
C259 C258 1.380 . S
C259 C263 1.382 . S
C260 C258 1.394 . S
C260 C261 1.400 . S
C261 H253 0.931 . S
C261 C260 1.400 . S
C261 C262 1.375 . S
C262 C261 1.375 . S
C262 C263 1.415 . S
C262 C264 1.501 . S
C263 H254 0.931 . S
C263 C259 1.382 . S
C263 C262 1.415 . S
C264 C262 1.501 . S
C264 C265 1.384 . S
C264 C269 1.408 . S
C265 H255 0.930 . S
C265 C264 1.384 . S
C265 C266 1.389 . S
C266 C265 1.389 . S
C266 C267 1.405 . S
C267 H256 0.930 . S
C267 C266 1.405 . S
C267 C268 1.364 . S
C268 C267 1.364 . S
C268 C269 1.400 . S
C269 H257 0.931 . S
C269 C264 1.408 . S
C269 C268 1.400 . S
H270 C276 0.930 . S
H271 C279 0.931 . S
H272 C281 0.931 . S
H273 C283 0.930 . S
H274 C285 0.930 . S
H275 C287 0.931 . S
C276 H270 0.930 . S
C276 C277 1.380 . S
C276 C278 1.394 . S
C277 C276 1.380 . S
C277 C281 1.382 . S
C278 C276 1.394 . S
C278 C279 1.400 . S
C279 H271 0.931 . S
C279 C278 1.400 . S
C279 C280 1.375 . S
C280 C279 1.375 . S
C280 C281 1.415 . S
C280 C282 1.501 . S
C281 H272 0.931 . S
C281 C277 1.382 . S
C281 C280 1.415 . S
C282 C280 1.501 . S
C282 C283 1.384 . S
C282 C287 1.408 . S
C283 H273 0.930 . S
C283 C282 1.384 . S
C283 C284 1.389 . S
C284 C283 1.389 . S
C284 C285 1.405 . S
C285 H274 0.930 . S
C285 C284 1.405 . S
C285 C286 1.364 . S
C286 C285 1.364 . S
C286 C287 1.400 . S
C287 H275 0.931 . S
C287 C282 1.408 . S
C287 C286 1.400 . S
H288 C294 0.930 . S
H289 C297 0.931 . S
H290 C299 0.931 . S
H291 C301 0.930 . S
H292 C303 0.930 . S
H293 C305 0.931 . S
C294 H288 0.930 . S
C294 C295 1.380 . S
C294 C296 1.394 . S
C295 C294 1.380 . S
C295 C299 1.382 . S
C296 C294 1.394 . S
C296 C297 1.400 . S
C297 H289 0.931 . S
C297 C296 1.400 . S
C297 C298 1.375 . S
C298 C297 1.375 . S
C298 C299 1.415 . S
C298 C300 1.501 . S
C299 H290 0.931 . S
C299 C295 1.382 . S
C299 C298 1.415 . S
C300 C298 1.501 . S
C300 C301 1.384 . S
C300 C305 1.408 . S
C301 H291 0.930 . S
C301 C300 1.384 . S
C301 C302 1.389 . S
C302 C301 1.389 . S
C302 C303 1.405 . S
C303 H292 0.930 . S
C303 C302 1.405 . S
C303 C304 1.364 . S
C304 C303 1.364 . S
C304 C305 1.400 . S
C305 H293 0.931 . S
C305 C300 1.408 . S
C305 C304 1.400 . S
H306 C312 0.930 . S
H307 C315 0.931 . S
H308 C317 0.931 . S
H309 C319 0.930 . S
H310 C321 0.930 . S
H311 C323 0.931 . S
C312 H306 0.930 . S
C312 C313 1.380 . S
C312 C314 1.394 . S
C313 C312 1.380 . S
C313 C317 1.382 . S
C314 C312 1.394 . S
C314 C315 1.400 . S
C315 H307 0.931 . S
C315 C314 1.400 . S
C315 C316 1.375 . S
C316 C315 1.375 . S
C316 C317 1.415 . S
C316 C318 1.501 . S
C317 H308 0.931 . S
C317 C313 1.382 . S
C317 C316 1.415 . S
C318 C316 1.501 . S
C318 C319 1.384 . S
C318 C323 1.408 . S
C319 H309 0.930 . S
C319 C318 1.384 . S
C319 C320 1.389 . S
C320 C319 1.389 . S
C320 C321 1.405 . S
C321 H310 0.930 . S
C321 C320 1.405 . S
C321 C322 1.364 . S
C322 C321 1.364 . S
C322 C323 1.400 . S
C323 H311 0.931 . S
C323 C318 1.408 . S
C323 C322 1.400 . S
H324 C330 0.930 . S
H325 C333 0.931 . S
H326 C335 0.931 . S
H327 C337 0.930 . S
H328 C339 0.930 . S
H329 C341 0.931 . S
C330 H324 0.930 . S
C330 C331 1.380 . S
C330 C332 1.394 . S
C331 C330 1.380 . S
C331 C335 1.382 . S
C332 C330 1.394 . S
C332 C333 1.400 . S
C333 H325 0.931 . S
C333 C332 1.400 . S
C333 C334 1.375 . S
C334 C333 1.375 . S
C334 C335 1.415 . S
C334 C336 1.501 . S
C335 H326 0.931 . S
C335 C331 1.382 . S
C335 C334 1.415 . S
C336 C334 1.501 . S
C336 C337 1.384 . S
C336 C341 1.408 . S
C337 H327 0.930 . S
C337 C336 1.384 . S
C337 C338 1.389 . S
C338 C337 1.389 . S
C338 C339 1.405 . S
C339 H328 0.930 . S
C339 C338 1.405 . S
C339 C340 1.364 . S
C340 C339 1.364 . S
C340 C341 1.400 . S
C341 H329 0.931 . S
C341 C336 1.408 . S
C341 C340 1.400 . S
H342 C348 0.930 . S
H343 C351 0.931 . S
H344 C353 0.931 . S
H345 C355 0.930 . S
H346 C357 0.930 . S
H347 C359 0.931 . S
C348 H342 0.930 . S
C348 C349 1.380 . S
C348 C350 1.394 . S
C349 C348 1.380 . S
C349 C353 1.382 . S
C350 C348 1.394 . S
C350 C351 1.400 . S
C351 H343 0.931 . S
C351 C350 1.400 . S
C351 C352 1.375 . S
C352 C351 1.375 . S
C352 C353 1.415 . S
C352 C354 1.501 . S
C353 H344 0.931 . S
C353 C349 1.382 . S
C353 C352 1.415 . S
C354 C352 1.501 . S
C354 C355 1.384 . S
C354 C359 1.408 . S
C355 H345 0.930 . S
C355 C354 1.384 . S
C355 C356 1.389 . S
C356 C355 1.389 . S
C356 C357 1.405 . S
C357 H346 0.930 . S
C357 C356 1.405 . S
C357 C358 1.364 . S
C358 C357 1.364 . S
C358 C359 1.400 . S
C359 H347 0.931 . S
C359 C354 1.408 . S
C359 C358 1.400 . S
H360 C366 0.930 . S
H361 C369 0.931 . S
H362 C371 0.931 . S
H363 C373 0.930 . S
H364 C375 0.930 . S
H365 C377 0.931 . S
C366 H360 0.930 . S
C366 C367 1.380 . S
C366 C368 1.394 . S
C367 C366 1.380 . S
C367 C371 1.382 . S
C368 C366 1.394 . S
C368 C369 1.400 . S
C369 H361 0.931 . S
C369 C368 1.400 . S
C369 C370 1.375 . S
C370 C369 1.375 . S
C370 C371 1.415 . S
C370 C372 1.501 . S
C371 H362 0.931 . S
C371 C367 1.382 . S
C371 C370 1.415 . S
C372 C370 1.501 . S
C372 C373 1.384 . S
C372 C377 1.408 . S
C373 H363 0.930 . S
C373 C372 1.384 . S
C373 C374 1.389 . S
C374 C373 1.389 . S
C374 C375 1.405 . S
C375 H364 0.930 . S
C375 C374 1.405 . S
C375 C376 1.364 . S
C376 C375 1.364 . S
C376 C377 1.400 . S
C377 H365 0.931 . S
C377 C372 1.408 . S
C377 C376 1.400 . S
H378 C384 0.930 . S
H379 C387 0.931 . S
H380 C389 0.931 . S
H381 C391 0.930 . S
H382 C393 0.930 . S
H383 C395 0.931 . S
C384 H378 0.930 . S
C384 C385 1.380 . S
C384 C386 1.394 . S
C385 C384 1.380 . S
C385 C389 1.382 . S
C386 C384 1.394 . S
C386 C387 1.400 . S
C387 H379 0.931 . S
C387 C386 1.400 . S
C387 C388 1.375 . S
C388 C387 1.375 . S
C388 C389 1.415 . S
C388 C390 1.501 . S
C389 H380 0.931 . S
C389 C385 1.382 . S
C389 C388 1.415 . S
C390 C388 1.501 . S
C390 C391 1.384 . S
C390 C395 1.408 . S
C391 H381 0.930 . S
C391 C390 1.384 . S
C391 C392 1.389 . S
C392 C391 1.389 . S
C392 C393 1.405 . S
C393 H382 0.930 . S
C393 C392 1.405 . S
C393 C394 1.364 . S
C394 C393 1.364 . S
C394 C395 1.400 . S
C395 H383 0.931 . S
C395 C390 1.408 . S
C395 C394 1.400 . S
H396 C402 0.930 . S
H397 C405 0.931 . S
H398 C407 0.931 . S
H399 C409 0.930 . S
H400 C411 0.930 . S
H401 C413 0.931 . S
C402 H396 0.930 . S
C402 C403 1.380 . S
C402 C404 1.394 . S
C403 C402 1.380 . S
C403 C407 1.382 . S
C404 C402 1.394 . S
C404 C405 1.400 . S
C405 H397 0.931 . S
C405 C404 1.400 . S
C405 C406 1.375 . S
C406 C405 1.375 . S
C406 C407 1.415 . S
C406 C408 1.501 . S
C407 H398 0.931 . S
C407 C403 1.382 . S
C407 C406 1.415 . S
C408 C406 1.501 . S
C408 C409 1.384 . S
C408 C413 1.408 . S
C409 H399 0.930 . S
C409 C408 1.384 . S
C409 C410 1.389 . S
C410 C409 1.389 . S
C410 C411 1.405 . S
C411 H400 0.930 . S
C411 C410 1.405 . S
C411 C412 1.364 . S
C412 C411 1.364 . S
C412 C413 1.400 . S
C413 H401 0.931 . S
C413 C408 1.408 . S
C413 C412 1.400 . S
H414 C420 0.930 . S
H415 C423 0.931 . S
H416 C425 0.931 . S
H417 C427 0.930 . S
H418 C429 0.930 . S
H419 C431 0.931 . S
C420 H414 0.930 . S
C420 C421 1.380 . S
C420 C422 1.394 . S
C421 C420 1.380 . S
C421 C425 1.382 . S
C422 C420 1.394 . S
C422 C423 1.400 . S
C423 H415 0.931 . S
C423 C422 1.400 . S
C423 C424 1.375 . S
C424 C423 1.375 . S
C424 C425 1.415 . S
C424 C426 1.501 . S
C425 H416 0.931 . S
C425 C421 1.382 . S
C425 C424 1.415 . S
C426 C424 1.501 . S
C426 C427 1.384 . S
C426 C431 1.408 . S
C427 H417 0.930 . S
C427 C426 1.384 . S
C427 C428 1.389 . S
C428 C427 1.389 . S
C428 C429 1.405 . S
C429 H418 0.930 . S
C429 C428 1.405 . S
C429 C430 1.364 . S
C430 C429 1.364 . S
C430 C431 1.400 . S
C431 H419 0.931 . S
C431 C426 1.408 . S
C431 C430 1.400 . S
H432 C438 0.937 . S
H433 C441 0.931 . S
H434 C443 0.931 . S
H435 C445 0.930 . S
H436 C447 0.930 . S
H437 C449 0.916 . S
C438 H432 0.937 . S
C438 C439 1.378 . S
C438 C440 1.389 1_545 S
C439 C438 1.378 . S
C439 C443 1.382 . S
C440 C438 1.389 1_565 S
C440 C441 1.400 . S
C441 H433 0.931 . S
C441 C440 1.400 . S
C441 C442 1.375 . S
C442 C441 1.375 . S
C442 C443 1.415 1_565 S
C442 C444 1.501 . S
C443 H434 0.931 . S
C443 C439 1.382 . S
C443 C442 1.415 1_545 S
C444 C442 1.501 . S
C444 C445 1.384 . S
C444 C449 1.396 . S
C445 H435 0.930 . S
C445 C444 1.384 . S
C445 C446 1.389 . S
C446 C445 1.389 . S
C446 C447 1.405 . S
C447 H436 0.930 . S
C447 C446 1.405 . S
C447 C448 1.380 . S
C448 C447 1.380 . S
C448 C449 1.406 . S
C449 H437 0.916 . S
C449 C444 1.396 . S
C449 C448 1.406 . S
H450 C456 0.930 . S
H451 C459 0.931 . S
H452 C461 0.931 . S
H453 C463 0.930 . S
H454 C465 0.930 . S
H455 C467 0.931 . S
C456 H450 0.930 . S
C456 C457 1.380 . S
C456 C458 1.394 . S
C457 C456 1.380 . S
C457 C461 1.382 . S
C458 C456 1.394 . S
C458 C459 1.400 . S
C459 H451 0.931 . S
C459 C458 1.400 . S
C459 C460 1.375 . S
C460 C459 1.375 . S
C460 C461 1.415 . S
C460 C462 1.501 . S
C461 H452 0.931 . S
C461 C457 1.382 . S
C461 C460 1.415 . S
C462 C460 1.501 . S
C462 C463 1.384 . S
C462 C467 1.408 . S
C463 H453 0.930 . S
C463 C462 1.384 . S
C463 C464 1.389 . S
C464 C463 1.389 . S
C464 C465 1.405 . S
C465 H454 0.930 . S
C465 C464 1.405 . S
C465 C466 1.364 . S
C466 C465 1.364 . S
C466 C467 1.400 . S
C467 H455 0.931 . S
C467 C462 1.408 . S
C467 C466 1.400 . S
H468 C474 0.966 . S
H469 C477 0.931 . S
H470 C479 0.933 1_655 S
H471 C481 0.930 . S
H472 C483 0.966 . S
H473 C485 0.931 . S
C474 H468 0.966 . S
C474 C475 1.377 . S
C474 C476 1.368 1_655 S
C475 C474 1.377 . S
C475 C479 1.361 1_655 S
C476 C474 1.368 1_455 S
C476 C477 1.419 . S
C477 H469 0.931 . S
C477 C476 1.419 . S
C477 C478 1.375 . S
C478 C477 1.375 . S
C478 C479 1.412 . S
C478 C480 1.501 . S
C479 H470 0.933 1_455 S
C479 C475 1.361 1_455 S
C479 C478 1.412 . S
C480 C478 1.501 . S
C480 C481 1.384 . S
C480 C485 1.408 1_455 S
C481 H471 0.930 . S
C481 C480 1.384 . S
C481 C482 1.389 . S
C482 C481 1.389 . S
C482 C483 1.398 . S
C483 H472 0.966 . S
C483 C482 1.398 . S
C483 C484 1.339 1_455 S
C484 C483 1.339 1_655 S
C484 C485 1.400 . S
C485 H473 0.931 . S
C485 C480 1.408 1_655 S
C485 C484 1.400 . S
H486 C492 0.930 . S
H487 C495 0.931 . S
H488 C497 0.931 . S
H489 C499 0.930 . S
H490 C501 0.930 . S
H491 C503 0.931 . S
C492 H486 0.930 . S
C492 C493 1.380 . S
C492 C494 1.394 . S
C493 C492 1.380 . S
C493 C497 1.382 . S
C494 C492 1.394 . S
C494 C495 1.400 . S
C495 H487 0.931 . S
C495 C494 1.400 . S
C495 C496 1.375 . S
C496 C495 1.375 . S
C496 C497 1.415 . S
C496 C498 1.501 . S
C497 H488 0.931 . S
C497 C493 1.382 . S
C497 C496 1.415 . S
C498 C496 1.501 . S
C498 C499 1.384 . S
C498 C503 1.408 . S
C499 H489 0.930 . S
C499 C498 1.384 . S
C499 C500 1.389 . S
C500 C499 1.389 . S
C500 C501 1.405 . S
C501 H490 0.930 . S
C501 C500 1.405 . S
C501 C502 1.364 . S
C502 C501 1.364 . S
C502 C503 1.400 . S
C503 H491 0.931 . S
C503 C498 1.408 . S
C503 C502 1.400 . S
H504 C510 0.930 . S
H505 C513 0.931 . S
H506 C515 0.931 . S
H507 C517 0.930 . S
H508 C519 0.930 . S
H509 C521 0.931 . S
C510 H504 0.930 . S
C510 C511 1.380 . S
C510 C512 1.394 . S
C511 C510 1.380 . S
C511 C515 1.382 . S
C512 C510 1.394 . S
C512 C513 1.400 . S
C513 H505 0.931 . S
C513 C512 1.400 . S
C513 C514 1.375 . S
C514 C513 1.375 . S
C514 C515 1.415 . S
C514 C516 1.501 . S
C515 H506 0.931 . S
C515 C511 1.382 . S
C515 C514 1.415 . S
C516 C514 1.501 . S
C516 C517 1.384 . S
C516 C521 1.408 . S
C517 H507 0.930 . S
C517 C516 1.384 . S
C517 C518 1.389 . S
C518 C517 1.389 . S
C518 C519 1.405 . S
C519 H508 0.930 . S
C519 C518 1.405 . S
C519 C520 1.364 . S
C520 C519 1.364 . S
C520 C521 1.400 . S
C521 H509 0.931 . S
C521 C516 1.408 . S
C521 C520 1.400 . S
H522 C528 0.930 . S
H523 C531 0.931 . S
H524 C533 0.931 . S
H525 C535 0.930 . S
H526 C537 0.930 . S
H527 C539 0.931 . S
C528 H522 0.930 . S
C528 C529 1.380 . S
C528 C530 1.394 . S
C529 C528 1.380 . S
C529 C533 1.382 . S
C530 C528 1.394 . S
C530 C531 1.400 . S
C531 H523 0.931 . S
C531 C530 1.400 . S
C531 C532 1.375 . S
C532 C531 1.375 . S
C532 C533 1.415 . S
C532 C534 1.501 . S
C533 H524 0.931 . S
C533 C529 1.382 . S
C533 C532 1.415 . S
C534 C532 1.501 . S
C534 C535 1.384 . S
C534 C539 1.408 . S
C535 H525 0.930 . S
C535 C534 1.384 . S
C535 C536 1.389 . S
C536 C535 1.389 . S
C536 C537 1.405 . S
C537 H526 0.930 . S
C537 C536 1.405 . S
C537 C538 1.364 . S
C538 C537 1.364 . S
C538 C539 1.400 . S
C539 H527 0.931 . S
C539 C534 1.408 . S
C539 C538 1.400 . S
H540 C546 0.930 . S
H541 C549 0.931 . S
H542 C551 0.931 . S
H543 C553 0.930 . S
H544 C555 0.930 . S
H545 C557 0.931 . S
C546 H540 0.930 . S
C546 C547 1.380 . S
C546 C548 1.394 . S
C547 C546 1.380 . S
C547 C551 1.382 . S
C548 C546 1.394 . S
C548 C549 1.400 . S
C549 H541 0.931 . S
C549 C548 1.400 . S
C549 C550 1.375 . S
C550 C549 1.375 . S
C550 C551 1.415 . S
C550 C552 1.501 . S
C551 H542 0.931 . S
C551 C547 1.382 . S
C551 C550 1.415 . S
C552 C550 1.501 . S
C552 C553 1.384 . S
C552 C557 1.408 . S
C553 H543 0.930 . S
C553 C552 1.384 . S
C553 C554 1.389 . S
C554 C553 1.389 . S
C554 C555 1.405 . S
C555 H544 0.930 . S
C555 C554 1.405 . S
C555 C556 1.364 . S
C556 C555 1.364 . S
C556 C557 1.400 . S
C557 H545 0.931 . S
C557 C552 1.408 . S
C557 C556 1.400 . S
C558 C559 1.391 . S
C558 C560 1.394 . S
C558 H574 0.931 . S
C559 C558 1.391 . S
C559 C563 1.376 1_455 S
C560 C558 1.394 . S
C560 C561 1.369 . S
C560 C564 1.531 . S
C561 C560 1.369 . S
C561 C562 1.410 1_455 S
C561 C569 1.503 . S
C562 C561 1.410 1_655 S
C562 C563 1.392 . S
C562 C565 1.511 . S
C563 C559 1.376 1_655 S
C563 C562 1.392 . S
C563 H575 0.929 . S
C564 C560 1.531 . S
C564 H576 0.960 . S
C564 H577 0.962 . S
C564 H578 0.960 . S
C565 C562 1.511 . S
C565 H579 0.961 . S
C565 H580 0.961 . S
C565 H581 0.961 . S
C566 C567 1.370 . S
C566 C568 1.363 . S
C566 H582 0.931 . S
C567 C566 1.370 . S
C567 C571 1.415 . S
C568 C566 1.363 . S
C568 C569 1.370 . S
C568 C572 1.524 . S
C569 C561 1.503 . S
C569 C568 1.370 . S
C569 C570 1.438 . S
C570 C569 1.438 . S
C570 C571 1.391 . S
C570 C573 1.521 1_455 S
C571 C567 1.415 . S
C571 C570 1.391 . S
C571 H583 0.916 1_455 S
C572 C568 1.524 . S
C572 H584 0.956 . S
C572 H585 0.961 . S
C572 H586 0.961 . S
C573 C570 1.521 1_655 S
C573 H587 0.958 1_655 S
C573 H588 0.961 . S
C573 H589 0.960 . S
H574 C558 0.931 . S
H575 C563 0.929 . S
H576 C564 0.960 . S
H577 C564 0.962 . S
H578 C564 0.960 . S
H579 C565 0.961 . S
H580 C565 0.961 . S
H581 C565 0.961 . S
H582 C566 0.931 . S
H583 C571 0.916 1_655 S
H584 C572 0.956 . S
H585 C572 0.961 . S
H586 C572 0.961 . S
H587 C573 0.958 1_455 S
H588 C573 0.961 . S
H589 C573 0.960 . S
C590 C591 1.391 . S
C590 C592 1.394 . S
C590 H606 0.931 . S
C591 C590 1.391 . S
C591 C595 1.376 . S
C592 C590 1.394 . S
C592 C593 1.369 . S
C592 C596 1.531 . S
C593 C592 1.369 . S
C593 C594 1.410 . S
C593 C601 1.503 . S
C594 C593 1.410 . S
C594 C595 1.392 . S
C594 C597 1.511 . S
C595 C591 1.376 . S
C595 C594 1.392 . S
C595 H607 0.929 . S
C596 C592 1.531 . S
C596 H608 0.960 . S
C596 H609 0.962 . S
C596 H610 0.960 . S
C597 C594 1.511 . S
C597 H611 0.961 . S
C597 H612 0.961 . S
C597 H613 0.961 . S
C598 C599 1.370 . S
C598 C600 1.363 . S
C598 H614 0.931 . S
C599 C598 1.370 . S
C599 C603 1.408 . S
C600 C598 1.363 . S
C600 C601 1.370 . S
C600 C604 1.524 . S
C601 C593 1.503 . S
C601 C600 1.370 . S
C601 C602 1.403 . S
C602 C601 1.403 . S
C602 C603 1.404 . S
C602 C605 1.539 . S
C603 C599 1.408 . S
C603 C602 1.404 . S
C603 H615 0.930 . S
C604 C600 1.524 . S
C604 H616 0.956 . S
C604 H617 0.961 . S
C604 H618 0.961 . S
C605 C602 1.539 . S
C605 H619 0.958 . S
C605 H620 0.961 . S
C605 H621 0.960 . S
H606 C590 0.931 . S
H607 C595 0.929 . S
H608 C596 0.960 . S
H609 C596 0.962 . S
H610 C596 0.960 . S
H611 C597 0.961 . S
H612 C597 0.961 . S
H613 C597 0.961 . S
H614 C598 0.931 . S
H615 C603 0.930 . S
H616 C604 0.956 . S
H617 C604 0.961 . S
H618 C604 0.961 . S
H619 C605 0.958 . S
H620 C605 0.961 . S
H621 C605 0.960 . S
C622 C623 1.396 1_565 S
C622 C624 1.393 . S
C622 H638 0.931 . S
C623 C622 1.396 1_545 S
C623 C627 1.343 . S
C624 C622 1.393 . S
C624 C625 1.369 . S
C624 C628 1.531 . S
C625 C624 1.369 . S
C625 C626 1.410 . S
C625 C633 1.509 1_565 S
C626 C625 1.410 . S
C626 C627 1.396 1_565 S
C626 C629 1.511 . S
C627 C623 1.343 . S
C627 C626 1.396 1_545 S
C627 H639 0.931 . S
C628 C624 1.531 . S
C628 H640 0.960 . S
C628 H641 0.962 1_565 S
C628 H642 0.960 . S
C629 C626 1.511 . S
C629 H643 0.961 1_565 S
C629 H644 0.961 1_565 S
C629 H645 0.961 . S
C630 C631 1.370 . S
C630 C632 1.363 . S
C630 H646 0.931 . S
C631 C630 1.370 . S
C631 C635 1.408 1_545 S
C632 C630 1.363 . S
C632 C633 1.382 . S
C632 C636 1.524 . S
C633 C625 1.509 1_545 S
C633 C632 1.382 . S
C633 C634 1.386 1_545 S
C634 C633 1.386 1_565 S
C634 C635 1.404 . S
C634 C637 1.539 . S
C635 C631 1.408 1_565 S
C635 C634 1.404 . S
C635 H647 0.930 . S
C636 C632 1.524 . S
C636 H648 0.956 . S
C636 H649 0.961 . S
C636 H650 0.961 . S
C637 C634 1.539 . S
C637 H651 0.958 . S
C637 H652 0.961 . S
C637 H653 0.960 . S
H638 C622 0.931 . S
H639 C627 0.931 . S
H640 C628 0.960 . S
H641 C628 0.962 1_545 S
H642 C628 0.960 . S
H643 C629 0.961 1_545 S
H644 C629 0.961 1_545 S
H645 C629 0.961 . S
H646 C630 0.931 . S
H647 C635 0.930 . S
H648 C636 0.956 . S
H649 C636 0.961 . S
H650 C636 0.961 . S
H651 C637 0.958 . S
H652 C637 0.961 . S
H653 C637 0.960 . S
C654 C655 1.391 . S
C654 C656 1.394 . S
C654 H670 0.931 . S
C655 C654 1.391 . S
C655 C659 1.376 . S
C656 C654 1.394 . S
C656 C657 1.369 . S
C656 C660 1.521 1_545 S
C657 C656 1.369 . S
C657 C658 1.410 . S
C657 C665 1.503 . S
C658 C657 1.410 . S
C658 C659 1.392 . S
C658 C661 1.511 . S
C659 C655 1.376 . S
C659 C658 1.392 . S
C659 H671 0.929 . S
C660 C656 1.521 1_565 S
C660 H672 0.973 . S
C660 H673 0.951 1_565 S
C660 H674 0.968 . S
C661 C658 1.511 . S
C661 H675 0.961 . S
C661 H676 0.961 . S
C661 H677 0.961 1_545 S
C662 C663 1.370 . S
C662 C664 1.363 . S
C662 H678 0.931 . S
C663 C662 1.370 . S
C663 C667 1.408 1_545 S
C664 C662 1.363 . S
C664 C665 1.370 . S
C664 C668 1.524 . S
C665 C657 1.503 . S
C665 C664 1.370 . S
C665 C666 1.403 1_545 S
C666 C665 1.403 1_565 S
C666 C667 1.404 . S
C666 C669 1.539 . S
C667 C663 1.408 1_565 S
C667 C666 1.404 . S
C667 H679 0.930 . S
C668 C664 1.524 . S
C668 H680 0.956 . S
C668 H681 0.961 . S
C668 H682 0.961 . S
C669 C666 1.539 . S
C669 H683 0.958 . S
C669 H684 0.961 . S
C669 H685 0.960 . S
H670 C654 0.931 . S
H671 C659 0.929 . S
H672 C660 0.973 . S
H673 C660 0.951 1_545 S
H674 C660 0.968 . S
H675 C661 0.961 . S
H676 C661 0.961 . S
H677 C661 0.961 1_565 S
H678 C662 0.931 . S
H679 C667 0.930 . S
H680 C668 0.956 . S
H681 C668 0.961 . S
H682 C668 0.961 . S
H683 C669 0.958 . S
H684 C669 0.961 . S
H685 C669 0.960 . S
C686 C687 1.391 1_655 S
C686 C688 1.394 . S
C686 H702 0.931 . S
C687 C686 1.391 1_455 S
C687 C691 1.376 . S
C688 C686 1.394 . S
C688 C689 1.369 1_655 S
C688 C692 1.531 . S
C689 C688 1.369 1_455 S
C689 C690 1.410 . S
C689 C697 1.503 . S
C690 C689 1.410 . S
C690 C691 1.392 . S
C690 C693 1.511 . S
C691 C687 1.376 . S
C691 C690 1.392 . S
C691 H703 0.929 . S
C692 C688 1.531 . S
C692 H704 0.960 . S
C692 H705 0.962 . S
C692 H706 0.960 . S
C693 C690 1.511 . S
C693 H707 0.961 . S
C693 H708 0.961 . S
C693 H709 0.961 . S
C694 C695 1.370 1_655 S
C694 C696 1.363 . S
C694 H710 0.931 . S
C695 C694 1.370 1_455 S
C695 C699 1.408 . S
C696 C694 1.363 . S
C696 C697 1.370 1_655 S
C696 C700 1.524 . S
C697 C689 1.503 . S
C697 C696 1.370 1_455 S
C697 C698 1.403 . S
C698 C697 1.403 . S
C698 C699 1.404 . S
C698 C701 1.539 . S
C699 C695 1.408 . S
C699 C698 1.404 . S
C699 H711 0.930 . S
C700 C696 1.524 . S
C700 H712 0.956 . S
C700 H713 0.961 . S
C700 H714 0.961 . S
C701 C698 1.539 . S
C701 H715 0.958 . S
C701 H716 0.961 . S
C701 H717 0.960 . S
H702 C686 0.931 . S
H703 C691 0.929 . S
H704 C692 0.960 . S
H705 C692 0.962 . S
H706 C692 0.960 . S
H707 C693 0.961 . S
H708 C693 0.961 . S
H709 C693 0.961 . S
H710 C694 0.931 . S
H711 C699 0.930 . S
H712 C700 0.956 . S
H713 C700 0.961 . S
H714 C700 0.961 . S
H715 C701 0.958 . S
H716 C701 0.961 . S
H717 C701 0.960 . S
C718 C719 1.391 . S
C718 C720 1.394 . S
C718 H734 0.931 . S
C719 C718 1.391 . S
C719 C723 1.376 . S
C720 C718 1.394 . S
C720 C721 1.369 . S
C720 C724 1.531 . S
C721 C720 1.369 . S
C721 C722 1.410 . S
C721 C729 1.503 . S
C722 C721 1.410 . S
C722 C723 1.392 . S
C722 C725 1.511 . S
C723 C719 1.376 . S
C723 C722 1.392 . S
C723 H735 0.929 . S
C724 C720 1.531 . S
C724 H736 0.960 . S
C724 H737 0.962 . S
C724 H738 0.960 . S
C725 C722 1.511 . S
C725 H739 0.961 . S
C725 H740 0.961 . S
C725 H741 0.961 . S
C726 C727 1.370 . S
C726 C728 1.363 . S
C726 H742 0.931 . S
C727 C726 1.370 . S
C727 C731 1.408 . S
C728 C726 1.363 . S
C728 C729 1.370 . S
C728 C732 1.524 . S
C729 C721 1.503 . S
C729 C728 1.370 . S
C729 C730 1.403 . S
C730 C729 1.403 . S
C730 C731 1.404 . S
C730 C733 1.539 . S
C731 C727 1.408 . S
C731 C730 1.404 . S
C731 H743 0.930 . S
C732 C728 1.524 . S
C732 H744 0.956 . S
C732 H745 0.961 . S
C732 H746 0.961 . S
C733 C730 1.539 . S
C733 H747 0.958 . S
C733 H748 0.961 . S
C733 H749 0.960 . S
H734 C718 0.931 . S
H735 C723 0.929 . S
H736 C724 0.960 . S
H737 C724 0.962 . S
H738 C724 0.960 . S
H739 C725 0.961 . S
H740 C725 0.961 . S
H741 C725 0.961 . S
H742 C726 0.931 . S
H743 C731 0.930 . S
H744 C732 0.956 . S
H745 C732 0.961 . S
H746 C732 0.961 . S
H747 C733 0.958 . S
H748 C733 0.961 . S
H749 C733 0.960 . S
C750 C751 1.391 . S
C750 C752 1.394 . S
C750 H766 0.931 . S
C751 C750 1.391 . S
C751 C755 1.376 . S
C752 C750 1.394 . S
C752 C753 1.369 . S
C752 C756 1.531 . S
C753 C752 1.369 . S
C753 C754 1.410 . S
C753 C761 1.503 . S
C754 C753 1.410 . S
C754 C755 1.392 . S
C754 C757 1.521 1_455 S
C755 C751 1.376 . S
C755 C754 1.392 . S
C755 H767 0.929 1_455 S
C756 C752 1.531 . S
C756 H768 0.960 . S
C756 H769 0.958 1_455 S
C756 H770 0.960 . S
C757 C754 1.521 1_655 S
C757 H771 0.974 . S
C757 H772 0.965 . S
C757 H773 0.934 1_655 S
C758 C759 1.366 . S
C758 C760 1.363 . S
C758 H774 0.931 . S
C759 C758 1.366 . S
C759 C763 1.412 1_655 S
C760 C758 1.363 . S
C760 C761 1.370 1_655 S
C760 C764 1.524 . S
C761 C753 1.503 . S
C761 C760 1.370 1_455 S
C761 C762 1.403 . S
C762 C761 1.403 . S
C762 C763 1.404 . S
C762 C765 1.539 . S
C763 C759 1.412 1_455 S
C763 C762 1.404 . S
C763 H775 0.930 . S
C764 C760 1.524 . S
C764 H776 0.956 . S
C764 H777 0.961 . S
C764 H778 0.961 . S
C765 C762 1.539 . S
C765 H779 0.958 . S
C765 H780 0.961 . S
C765 H781 0.960 . S
H766 C750 0.931 . S
H767 C755 0.929 1_655 S
H768 C756 0.960 . S
H769 C756 0.958 1_655 S
H770 C756 0.960 . S
H771 C757 0.974 . S
H772 C757 0.965 . S
H773 C757 0.934 1_455 S
H774 C758 0.931 . S
H775 C763 0.930 . S
H776 C764 0.956 . S
H777 C764 0.961 . S
H778 C764 0.961 . S
H779 C765 0.958 . S
H780 C765 0.961 . S
H781 C765 0.960 . S
C782 C783 1.391 . S
C782 C784 1.394 . S
C782 H798 0.931 . S
C783 C782 1.391 . S
C783 C787 1.376 . S
C784 C782 1.394 . S
C784 C785 1.369 . S
C784 C788 1.531 . S
C785 C784 1.369 . S
C785 C786 1.410 . S
C785 C793 1.503 . S
C786 C785 1.410 . S
C786 C787 1.392 . S
C786 C789 1.511 . S
C787 C783 1.376 . S
C787 C786 1.392 . S
C787 H799 0.929 . S
C788 C784 1.531 . S
C788 H800 0.960 . S
C788 H801 0.962 . S
C788 H802 0.960 . S
C789 C786 1.511 . S
C789 H803 0.961 . S
C789 H804 0.961 . S
C789 H805 0.961 . S
C790 C791 1.370 . S
C790 C792 1.363 . S
C790 H806 0.931 . S
C791 C790 1.370 . S
C791 C795 1.408 . S
C792 C790 1.363 . S
C792 C793 1.370 . S
C792 C796 1.524 . S
C793 C785 1.503 . S
C793 C792 1.370 . S
C793 C794 1.403 . S
C794 C793 1.403 . S
C794 C795 1.404 . S
C794 C797 1.539 . S
C795 C791 1.408 . S
C795 C794 1.404 . S
C795 H807 0.930 . S
C796 C792 1.524 . S
C796 H808 0.956 . S
C796 H809 0.961 . S
C796 H810 0.961 . S
C797 C794 1.539 . S
C797 H811 0.958 . S
C797 H812 0.961 . S
C797 H813 0.960 . S
H798 C782 0.931 . S
H799 C787 0.929 . S
H800 C788 0.960 . S
H801 C788 0.962 . S
H802 C788 0.960 . S
H803 C789 0.961 . S
H804 C789 0.961 . S
H805 C789 0.961 . S
H806 C790 0.931 . S
H807 C795 0.930 . S
H808 C796 0.956 . S
H809 C796 0.961 . S
H810 C796 0.961 . S
H811 C797 0.958 . S
H812 C797 0.961 . S
H813 C797 0.960 . S
C814 C815 1.391 . S
C814 C816 1.394 . S
C814 H830 0.931 . S
C815 C814 1.391 . S
C815 C819 1.376 1_545 S
C816 C814 1.394 . S
C816 C817 1.369 . S
C816 C820 1.531 . S
C817 C816 1.369 . S
C817 C818 1.410 1_545 S
C817 C825 1.503 . S
C818 C817 1.410 1_565 S
C818 C819 1.392 . S
C818 C821 1.511 . S
C819 C815 1.376 1_565 S
C819 C818 1.392 . S
C819 H831 0.929 . S
C820 C816 1.531 . S
C820 H832 0.960 . S
C820 H833 0.962 . S
C820 H834 0.960 . S
C821 C818 1.511 . S
C821 H835 0.961 . S
C821 H836 0.961 . S
C821 H837 0.961 . S
C822 C823 1.370 . S
C822 C824 1.363 . S
C822 H838 0.931 . S
C823 C822 1.370 . S
C823 C827 1.408 . S
C824 C822 1.363 . S
C824 C825 1.370 . S
C824 C828 1.524 . S
C825 C817 1.503 . S
C825 C824 1.370 . S
C825 C826 1.403 . S
C826 C825 1.403 . S
C826 C827 1.404 . S
C826 C829 1.539 1_545 S
C827 C823 1.408 . S
C827 C826 1.404 . S
C827 H839 0.931 . S
C828 C824 1.524 . S
C828 H840 0.956 . S
C828 H841 0.961 . S
C828 H842 0.961 . S
C829 C826 1.539 1_565 S
C829 H843 0.958 1_565 S
C829 H844 0.961 . S
C829 H845 0.960 . S
H830 C814 0.931 . S
H831 C819 0.929 . S
H832 C820 0.960 . S
H833 C820 0.962 . S
H834 C820 0.960 . S
H835 C821 0.961 . S
H836 C821 0.961 . S
H837 C821 0.961 . S
H838 C822 0.931 . S
H839 C827 0.931 . S
H840 C828 0.956 . S
H841 C828 0.961 . S
H842 C828 0.961 . S
H843 C829 0.958 1_545 S
H844 C829 0.961 . S
H845 C829 0.960 . S
C846 C847 1.391 . S
C846 C848 1.394 . S
C846 H862 0.931 . S
C847 C846 1.391 . S
C847 C851 1.376 1_545 S
C848 C846 1.394 . S
C848 C849 1.369 . S
C848 C852 1.531 . S
C849 C848 1.369 . S
C849 C850 1.410 1_545 S
C849 C857 1.503 . S
C850 C849 1.410 1_565 S
C850 C851 1.392 . S
C850 C853 1.511 . S
C851 C847 1.376 1_565 S
C851 C850 1.392 . S
C851 H863 0.929 . S
C852 C848 1.531 . S
C852 H864 0.960 . S
C852 H865 0.962 . S
C852 H866 0.960 . S
C853 C850 1.511 . S
C853 H867 0.961 . S
C853 H868 0.961 . S
C853 H869 0.961 . S
C854 C855 1.376 . S
C854 C856 1.363 . S
C854 H870 0.931 . S
C855 C854 1.376 . S
C855 C859 1.404 1_565 S
C856 C854 1.363 . S
C856 C857 1.370 1_565 S
C856 C860 1.524 . S
C857 C849 1.503 . S
C857 C856 1.370 1_545 S
C857 C858 1.403 . S
C858 C857 1.403 . S
C858 C859 1.404 . S
C858 C861 1.539 . S
C859 C855 1.404 1_545 S
C859 C858 1.404 . S
C859 H871 0.930 . S
C860 C856 1.524 . S
C860 H872 0.956 . S
C860 H873 0.961 . S
C860 H874 0.961 . S
C861 C858 1.539 . S
C861 H875 0.958 . S
C861 H876 0.961 . S
C861 H877 0.960 . S
H862 C846 0.931 . S
H863 C851 0.929 . S
H864 C852 0.960 . S
H865 C852 0.962 . S
H866 C852 0.960 . S
H867 C853 0.961 . S
H868 C853 0.961 . S
H869 C853 0.961 . S
H870 C854 0.931 . S
H871 C859 0.930 . S
H872 C860 0.956 . S
H873 C860 0.961 . S
H874 C860 0.961 . S
H875 C861 0.958 . S
H876 C861 0.961 . S
H877 C861 0.960 . S
C878 C879 1.391 . S
C878 C880 1.394 . S
C878 H894 0.931 . S
C879 C878 1.391 . S
C879 C883 1.376 . S
C880 C878 1.394 . S
C880 C881 1.369 . S
C880 C884 1.531 1_455 S
C881 C880 1.369 . S
C881 C882 1.410 . S
C881 C889 1.503 . S
C882 C881 1.410 . S
C882 C883 1.392 . S
C882 C885 1.511 . S
C883 C879 1.376 . S
C883 C882 1.392 . S
C883 H895 0.929 . S
C884 C880 1.531 1_655 S
C884 H896 0.960 . S
C884 H897 0.962 1_655 S
C884 H898 0.960 . S
C885 C882 1.511 . S
C885 H899 0.961 . S
C885 H900 0.961 . S
C885 H901 0.961 1_455 S
C886 C887 1.370 . S
C886 C888 1.363 . S
C886 H902 0.931 . S
C887 C886 1.370 . S
C887 C891 1.408 1_455 S
C888 C886 1.363 . S
C888 C889 1.370 . S
C888 C892 1.524 . S
C889 C881 1.503 . S
C889 C888 1.370 . S
C889 C890 1.403 1_455 S
C890 C889 1.403 1_655 S
C890 C891 1.404 . S
C890 C893 1.539 . S
C891 C887 1.408 1_655 S
C891 C890 1.404 . S
C891 H903 0.930 . S
C892 C888 1.524 . S
C892 H904 0.956 . S
C892 H905 0.961 . S
C892 H906 0.961 . S
C893 C890 1.539 . S
C893 H907 0.958 . S
C893 H908 0.961 . S
C893 H909 0.960 . S
H894 C878 0.931 . S
H895 C883 0.929 . S
H896 C884 0.960 . S
H897 C884 0.962 1_455 S
H898 C884 0.960 . S
H899 C885 0.961 . S
H900 C885 0.961 . S
H901 C885 0.961 1_655 S
H902 C886 0.931 . S
H903 C891 0.930 . S
H904 C892 0.956 . S
H905 C892 0.961 . S
H906 C892 0.961 . S
H907 C893 0.958 . S
H908 C893 0.961 . S
H909 C893 0.960 . S
C910 C911 1.391 . S
C910 C912 1.394 . S
C910 H926 0.931 . S
C911 C910 1.391 . S
C911 C915 1.376 . S
C912 C910 1.394 . S
C912 C913 1.369 . S
C912 C916 1.531 . S
C913 C912 1.369 . S
C913 C914 1.410 . S
C913 C921 1.503 . S
C914 C913 1.410 . S
C914 C915 1.392 . S
C914 C917 1.511 . S
C915 C911 1.376 . S
C915 C914 1.392 . S
C915 H927 0.929 . S
C916 C912 1.531 . S
C916 H928 0.960 . S
C916 H929 0.962 . S
C916 H930 0.960 . S
C917 C914 1.511 . S
C917 H931 0.961 . S
C917 H932 0.961 . S
C917 H933 0.961 . S
C918 C919 1.370 . S
C918 C920 1.363 . S
C918 H934 0.931 . S
C919 C918 1.370 . S
C919 C923 1.408 . S
C920 C918 1.363 . S
C920 C921 1.370 . S
C920 C924 1.524 . S
C921 C913 1.503 . S
C921 C920 1.370 . S
C921 C922 1.403 . S
C922 C921 1.403 . S
C922 C923 1.404 . S
C922 C925 1.539 . S
C923 C919 1.408 . S
C923 C922 1.404 . S
C923 H935 0.930 . S
C924 C920 1.524 . S
C924 H936 0.956 . S
C924 H937 0.961 . S
C924 H938 0.961 . S
C925 C922 1.539 . S
C925 H939 0.958 . S
C925 H940 0.961 . S
C925 H941 0.960 . S
H926 C910 0.931 . S
H927 C915 0.929 . S
H928 C916 0.960 . S
H929 C916 0.962 . S
H930 C916 0.960 . S
H931 C917 0.961 . S
H932 C917 0.961 . S
H933 C917 0.961 . S
H934 C918 0.931 . S
H935 C923 0.930 . S
H936 C924 0.956 . S
H937 C924 0.961 . S
H938 C924 0.961 . S
H939 C925 0.958 . S
H940 C925 0.961 . S
H941 C925 0.960 . S
C942 C943 1.391 . S
C942 C944 1.394 . S
C942 H958 0.931 . S
C943 C942 1.391 . S
C943 C947 1.376 . S
C944 C942 1.394 . S
C944 C945 1.369 . S
C944 C948 1.531 . S
C945 C944 1.369 . S
C945 C946 1.410 . S
C945 C953 1.503 . S
C946 C945 1.410 . S
C946 C947 1.392 . S
C946 C949 1.511 . S
C947 C943 1.376 . S
C947 C946 1.392 . S
C947 H959 0.929 . S
C948 C944 1.531 . S
C948 H960 0.960 . S
C948 H961 0.962 . S
C948 H962 0.960 . S
C949 C946 1.511 . S
C949 H963 0.961 . S
C949 H964 0.961 . S
C949 H965 0.961 . S
C950 C951 1.370 . S
C950 C952 1.363 . S
C950 H966 0.931 . S
C951 C950 1.370 . S
C951 C955 1.408 . S
C952 C950 1.363 . S
C952 C953 1.370 . S
C952 C956 1.524 . S
C953 C945 1.503 . S
C953 C952 1.370 . S
C953 C954 1.403 . S
C954 C953 1.403 . S
C954 C955 1.404 . S
C954 C957 1.539 . S
C955 C951 1.408 . S
C955 C954 1.404 . S
C955 H967 0.930 . S
C956 C952 1.524 . S
C956 H968 0.956 . S
C956 H969 0.961 . S
C956 H970 0.961 . S
C957 C954 1.539 . S
C957 H971 0.958 . S
C957 H972 0.961 . S
C957 H973 0.960 . S
H958 C942 0.931 . S
H959 C947 0.929 . S
H960 C948 0.960 . S
H961 C948 0.962 . S
H962 C948 0.960 . S
H963 C949 0.961 . S
H964 C949 0.961 . S
H965 C949 0.961 . S
H966 C950 0.931 . S
H967 C955 0.930 . S
H968 C956 0.956 . S
H969 C956 0.961 . S
H970 C956 0.961 . S
H971 C957 0.958 . S
H972 C957 0.961 . S
H973 C957 0.960 . S
C974 C975 1.391 . S
C974 C976 1.394 . S
C974 H990 0.931 . S
C975 C974 1.391 . S
C975 C979 1.376 . S
C976 C974 1.394 . S
C976 C977 1.369 . S
C976 C980 1.531 . S
C977 C976 1.369 . S
C977 C978 1.410 . S
C977 C985 1.503 . S
C978 C977 1.410 . S
C978 C979 1.392 . S
C978 C981 1.511 . S
C979 C975 1.376 . S
C979 C978 1.392 . S
C979 H991 0.929 . S
C980 C976 1.531 . S
C980 H992 0.960 . S
C980 H993 0.962 . S
C980 H994 0.960 . S
C981 C978 1.511 . S
C981 H995 0.961 . S
C981 H996 0.961 . S
C981 H997 0.961 . S
C982 C983 1.370 . S
C982 C984 1.363 . S
C982 H998 0.931 . S
C983 C982 1.370 . S
C983 C987 1.408 . S
C984 C982 1.363 . S
C984 C985 1.370 . S
C984 C988 1.524 . S
C985 C977 1.503 . S
C985 C984 1.370 . S
C985 C986 1.403 . S
C986 C985 1.403 . S
C986 C987 1.404 . S
C986 C989 1.539 . S
C987 C983 1.408 . S
C987 C986 1.404 . S
C987 H999 0.930 . S
C988 C984 1.524 . S
C988 H1000 0.956 . S
C988 H1001 0.961 . S
C988 H1002 0.961 . S
C989 C986 1.539 . S
C989 H1003 0.958 . S
C989 H1004 0.961 . S
C989 H1005 0.960 . S
H990 C974 0.931 . S
H991 C979 0.929 . S
H992 C980 0.960 . S
H993 C980 0.962 . S
H994 C980 0.960 . S
H995 C981 0.961 . S
H996 C981 0.961 . S
H997 C981 0.961 . S
H998 C982 0.931 . S
H999 C987 0.930 . S
H1000 C988 0.956 . S
H1001 C988 0.961 . S
H1002 C988 0.961 . S
H1003 C989 0.958 . S
H1004 C989 0.961 . S
H1005 C989 0.960 . S
C1006 C1007 1.391 . S
C1006 C1008 1.394 . S
C1006 H1022 0.931 . S
C1007 C1006 1.391 . S
C1007 C1011 1.376 . S
C1008 C1006 1.394 . S
C1008 C1009 1.369 . S
C1008 C1012 1.531 . S
C1009 C1008 1.369 . S
C1009 C1010 1.410 . S
C1009 C1017 1.503 . S
C1010 C1009 1.410 . S
C1010 C1011 1.392 . S
C1010 C1013 1.511 . S
C1011 C1007 1.376 . S
C1011 C1010 1.392 . S
C1011 H1023 0.929 . S
C1012 C1008 1.531 . S
C1012 H1024 0.960 . S
C1012 H1025 0.962 . S
C1012 H1026 0.960 . S
C1013 C1010 1.511 . S
C1013 H1027 0.961 . S
C1013 H1028 0.961 . S
C1013 H1029 0.961 . S
C1014 C1015 1.370 . S
C1014 C1016 1.363 . S
C1014 H1030 0.931 . S
C1015 C1014 1.370 . S
C1015 C1019 1.408 . S
C1016 C1014 1.363 . S
C1016 C1017 1.370 . S
C1016 C1020 1.524 . S
C1017 C1009 1.503 . S
C1017 C1016 1.370 . S
C1017 C1018 1.403 . S
C1018 C1017 1.403 . S
C1018 C1019 1.404 . S
C1018 C1021 1.539 . S
C1019 C1015 1.408 . S
C1019 C1018 1.404 . S
C1019 H1031 0.930 . S
C1020 C1016 1.524 . S
C1020 H1032 0.956 . S
C1020 H1033 0.961 . S
C1020 H1034 0.961 . S
C1021 C1018 1.539 . S
C1021 H1035 0.958 . S
C1021 H1036 0.961 . S
C1021 H1037 0.960 . S
H1022 C1006 0.931 . S
H1023 C1011 0.929 . S
H1024 C1012 0.960 . S
H1025 C1012 0.962 . S
H1026 C1012 0.960 . S
H1027 C1013 0.961 . S
H1028 C1013 0.961 . S
H1029 C1013 0.961 . S
H1030 C1014 0.931 . S
H1031 C1019 0.930 . S
H1032 C1020 0.956 . S
H1033 C1020 0.961 . S
H1034 C1020 0.961 . S
H1035 C1021 0.958 . S
H1036 C1021 0.961 . S
H1037 C1021 0.960 . S
C1038 C1039 1.391 . S
C1038 C1040 1.394 . S
C1038 H1054 0.931 . S
C1039 C1038 1.391 . S
C1039 C1043 1.376 . S
C1040 C1038 1.394 . S
C1040 C1041 1.369 . S
C1040 C1044 1.531 . S
C1041 C1040 1.369 . S
C1041 C1042 1.410 . S
C1041 C1049 1.503 . S
C1042 C1041 1.410 . S
C1042 C1043 1.392 . S
C1042 C1045 1.511 . S
C1043 C1039 1.376 . S
C1043 C1042 1.392 . S
C1043 H1055 0.929 . S
C1044 C1040 1.531 . S
C1044 H1056 0.960 . S
C1044 H1057 0.962 . S
C1044 H1058 0.960 . S
C1045 C1042 1.511 . S
C1045 H1059 0.961 . S
C1045 H1060 0.961 . S
C1045 H1061 0.961 . S
C1046 C1047 1.370 . S
C1046 C1048 1.363 . S
C1046 H1062 0.931 . S
C1047 C1046 1.370 . S
C1047 C1051 1.408 . S
C1048 C1046 1.363 . S
C1048 C1049 1.370 . S
C1048 C1052 1.524 . S
C1049 C1041 1.503 . S
C1049 C1048 1.370 . S
C1049 C1050 1.403 . S
C1050 C1049 1.403 . S
C1050 C1051 1.404 . S
C1050 C1053 1.539 . S
C1051 C1047 1.408 . S
C1051 C1050 1.404 . S
C1051 H1063 0.930 . S
C1052 C1048 1.524 . S
C1052 H1064 0.956 . S
C1052 H1065 0.961 . S
C1052 H1066 0.961 . S
C1053 C1050 1.539 . S
C1053 H1067 0.958 . S
C1053 H1068 0.961 . S
C1053 H1069 0.960 . S
H1054 C1038 0.931 . S
H1055 C1043 0.929 . S
H1056 C1044 0.960 . S
H1057 C1044 0.962 . S
H1058 C1044 0.960 . S
H1059 C1045 0.961 . S
H1060 C1045 0.961 . S
H1061 C1045 0.961 . S
H1062 C1046 0.931 . S
H1063 C1051 0.930 . S
H1064 C1052 0.956 . S
H1065 C1052 0.961 . S
H1066 C1052 0.961 . S
H1067 C1053 0.958 . S
H1068 C1053 0.961 . S
H1069 C1053 0.960 . S
C1070 C1071 1.391 . S
C1070 C1072 1.394 . S
C1070 H1086 0.931 . S
C1071 C1070 1.391 . S
C1071 C1075 1.376 . S
C1072 C1070 1.394 . S
C1072 C1073 1.369 . S
C1072 C1076 1.531 . S
C1073 C1072 1.369 . S
C1073 C1074 1.410 . S
C1073 C1081 1.503 . S
C1074 C1073 1.410 . S
C1074 C1075 1.392 . S
C1074 C1077 1.511 . S
C1075 C1071 1.376 . S
C1075 C1074 1.392 . S
C1075 H1087 0.929 . S
C1076 C1072 1.531 . S
C1076 H1088 0.960 . S
C1076 H1089 0.962 . S
C1076 H1090 0.960 . S
C1077 C1074 1.511 . S
C1077 H1091 0.961 . S
C1077 H1092 0.961 . S
C1077 H1093 0.961 . S
C1078 C1079 1.370 . S
C1078 C1080 1.363 . S
C1078 H1094 0.931 . S
C1079 C1078 1.370 . S
C1079 C1083 1.408 . S
C1080 C1078 1.363 . S
C1080 C1081 1.370 . S
C1080 C1084 1.524 . S
C1081 C1073 1.503 . S
C1081 C1080 1.370 . S
C1081 C1082 1.403 . S
C1082 C1081 1.403 . S
C1082 C1083 1.404 . S
C1082 C1085 1.539 . S
C1083 C1079 1.408 . S
C1083 C1082 1.404 . S
C1083 H1095 0.930 . S
C1084 C1080 1.524 . S
C1084 H1096 0.956 . S
C1084 H1097 0.961 . S
C1084 H1098 0.961 . S
C1085 C1082 1.539 . S
C1085 H1099 0.958 . S
C1085 H1100 0.961 . S
C1085 H1101 0.960 . S
H1086 C1070 0.931 . S
H1087 C1075 0.929 . S
H1088 C1076 0.960 . S
H1089 C1076 0.962 . S
H1090 C1076 0.960 . S
H1091 C1077 0.961 . S
H1092 C1077 0.961 . S
H1093 C1077 0.961 . S
H1094 C1078 0.931 . S
H1095 C1083 0.930 . S
H1096 C1084 0.956 . S
H1097 C1084 0.961 . S
H1098 C1084 0.961 . S
H1099 C1085 0.958 . S
H1100 C1085 0.961 . S
H1101 C1085 0.960 . S
C1102 C1103 1.391 . S
C1102 C1104 1.394 . S
C1102 H1118 0.931 . S
C1103 C1102 1.391 . S
C1103 C1107 1.376 . S
C1104 C1102 1.394 . S
C1104 C1105 1.369 . S
C1104 C1108 1.531 . S
C1105 C1104 1.369 . S
C1105 C1106 1.410 . S
C1105 C1113 1.503 . S
C1106 C1105 1.410 . S
C1106 C1107 1.392 . S
C1106 C1109 1.511 . S
C1107 C1103 1.376 . S
C1107 C1106 1.392 . S
C1107 H1119 0.929 . S
C1108 C1104 1.531 . S
C1108 H1120 0.960 . S
C1108 H1121 0.962 . S
C1108 H1122 0.960 . S
C1109 C1106 1.511 . S
C1109 H1123 0.961 . S
C1109 H1124 0.961 . S
C1109 H1125 0.961 . S
C1110 C1111 1.370 . S
C1110 C1112 1.363 . S
C1110 H1126 0.931 . S
C1111 C1110 1.370 . S
C1111 C1115 1.408 . S
C1112 C1110 1.363 . S
C1112 C1113 1.370 . S
C1112 C1116 1.524 . S
C1113 C1105 1.503 . S
C1113 C1112 1.370 . S
C1113 C1114 1.403 . S
C1114 C1113 1.403 . S
C1114 C1115 1.404 . S
C1114 C1117 1.539 . S
C1115 C1111 1.408 . S
C1115 C1114 1.404 . S
C1115 H1127 0.930 . S
C1116 C1112 1.524 . S
C1116 H1128 0.956 . S
C1116 H1129 0.961 . S
C1116 H1130 0.961 . S
C1117 C1114 1.539 . S
C1117 H1131 0.958 . S
C1117 H1132 0.961 . S
C1117 H1133 0.960 . S
H1118 C1102 0.931 . S
H1119 C1107 0.929 . S
H1120 C1108 0.960 . S
H1121 C1108 0.962 . S
H1122 C1108 0.960 . S
H1123 C1109 0.961 . S
H1124 C1109 0.961 . S
H1125 C1109 0.961 . S
H1126 C1110 0.931 . S
H1127 C1115 0.930 . S
H1128 C1116 0.956 . S
H1129 C1116 0.961 . S
H1130 C1116 0.961 . S
H1131 C1117 0.958 . S
H1132 C1117 0.961 . S
H1133 C1117 0.960 . S
C1134 C1135 1.391 . S
C1134 C1136 1.394 . S
C1134 H1150 0.931 . S
C1135 C1134 1.391 . S
C1135 C1139 1.376 . S
C1136 C1134 1.394 . S
C1136 C1137 1.369 . S
C1136 C1140 1.531 . S
C1137 C1136 1.369 . S
C1137 C1138 1.410 . S
C1137 C1145 1.503 . S
C1138 C1137 1.410 . S
C1138 C1139 1.392 . S
C1138 C1141 1.511 . S
C1139 C1135 1.376 . S
C1139 C1138 1.392 . S
C1139 H1151 0.929 . S
C1140 C1136 1.531 . S
C1140 H1152 0.960 . S
C1140 H1153 0.962 . S
C1140 H1154 0.960 . S
C1141 C1138 1.511 . S
C1141 H1155 0.961 . S
C1141 H1156 0.961 . S
C1141 H1157 0.961 . S
C1142 C1143 1.370 . S
C1142 C1144 1.363 . S
C1142 H1158 0.931 . S
C1143 C1142 1.370 . S
C1143 C1147 1.408 . S
C1144 C1142 1.363 . S
C1144 C1145 1.370 . S
C1144 C1148 1.524 . S
C1145 C1137 1.503 . S
C1145 C1144 1.370 . S
C1145 C1146 1.403 . S
C1146 C1145 1.403 . S
C1146 C1147 1.404 . S
C1146 C1149 1.539 . S
C1147 C1143 1.408 . S
C1147 C1146 1.404 . S
C1147 H1159 0.930 . S
C1148 C1144 1.524 . S
C1148 H1160 0.956 . S
C1148 H1161 0.961 . S
C1148 H1162 0.961 . S
C1149 C1146 1.539 . S
C1149 H1163 0.958 . S
C1149 H1164 0.961 . S
C1149 H1165 0.960 . S
H1150 C1134 0.931 . S
H1151 C1139 0.929 . S
H1152 C1140 0.960 . S
H1153 C1140 0.962 . S
H1154 C1140 0.960 . S
H1155 C1141 0.961 . S
H1156 C1141 0.961 . S
H1157 C1141 0.961 . S
H1158 C1142 0.931 . S
H1159 C1147 0.930 . S
H1160 C1148 0.956 . S
H1161 C1148 0.961 . S
H1162 C1148 0.961 . S
H1163 C1149 0.958 . S
H1164 C1149 0.961 . S
H1165 C1149 0.960 . S
C1166 C1167 1.391 . S
C1166 C1168 1.394 . S
C1166 H1182 0.931 . S
C1167 C1166 1.391 . S
C1167 C1171 1.376 . S
C1168 C1166 1.394 . S
C1168 C1169 1.369 . S
C1168 C1172 1.531 . S
C1169 C1168 1.369 . S
C1169 C1170 1.410 . S
C1169 C1177 1.503 . S
C1170 C1169 1.410 . S
C1170 C1171 1.392 . S
C1170 C1173 1.511 . S
C1171 C1167 1.376 . S
C1171 C1170 1.392 . S
C1171 H1183 0.929 . S
C1172 C1168 1.531 . S
C1172 H1184 0.960 . S
C1172 H1185 0.962 . S
C1172 H1186 0.960 . S
C1173 C1170 1.511 . S
C1173 H1187 0.961 . S
C1173 H1188 0.961 . S
C1173 H1189 0.961 . S
C1174 C1175 1.370 . S
C1174 C1176 1.363 . S
C1174 H1190 0.931 . S
C1175 C1174 1.370 . S
C1175 C1179 1.408 . S
C1176 C1174 1.363 . S
C1176 C1177 1.370 . S
C1176 C1180 1.524 . S
C1177 C1169 1.503 . S
C1177 C1176 1.370 . S
C1177 C1178 1.403 . S
C1178 C1177 1.403 . S
C1178 C1179 1.404 . S
C1178 C1181 1.539 . S
C1179 C1175 1.408 . S
C1179 C1178 1.404 . S
C1179 H1191 0.930 . S
C1180 C1176 1.524 . S
C1180 H1192 0.956 . S
C1180 H1193 0.961 . S
C1180 H1194 0.961 . S
C1181 C1178 1.539 . S
C1181 H1195 0.958 . S
C1181 H1196 0.961 . S
C1181 H1197 0.960 . S
H1182 C1166 0.931 . S
H1183 C1171 0.929 . S
H1184 C1172 0.960 . S
H1185 C1172 0.962 . S
H1186 C1172 0.960 . S
H1187 C1173 0.961 . S
H1188 C1173 0.961 . S
H1189 C1173 0.961 . S
H1190 C1174 0.931 . S
H1191 C1179 0.930 . S
H1192 C1180 0.956 . S
H1193 C1180 0.961 . S
H1194 C1180 0.961 . S
H1195 C1181 0.958 . S
H1196 C1181 0.961 . S
H1197 C1181 0.960 . S
C1198 C1199 1.391 . S
C1198 C1200 1.394 . S
C1198 H1214 0.931 . S
C1199 C1198 1.391 . S
C1199 C1203 1.376 . S
C1200 C1198 1.394 . S
C1200 C1201 1.369 . S
C1200 C1204 1.531 . S
C1201 C1200 1.369 . S
C1201 C1202 1.410 . S
C1201 C1209 1.503 . S
C1202 C1201 1.410 . S
C1202 C1203 1.392 . S
C1202 C1205 1.511 . S
C1203 C1199 1.376 . S
C1203 C1202 1.392 . S
C1203 H1215 0.929 . S
C1204 C1200 1.531 . S
C1204 H1216 0.960 . S
C1204 H1217 0.962 . S
C1204 H1218 0.960 . S
C1205 C1202 1.511 . S
C1205 H1219 0.961 . S
C1205 H1220 0.961 . S
C1205 H1221 0.961 . S
C1206 C1207 1.370 . S
C1206 C1208 1.363 . S
C1206 H1222 0.931 . S
C1207 C1206 1.370 . S
C1207 C1211 1.408 . S
C1208 C1206 1.363 . S
C1208 C1209 1.370 . S
C1208 C1212 1.524 . S
C1209 C1201 1.503 . S
C1209 C1208 1.370 . S
C1209 C1210 1.403 . S
C1210 C1209 1.403 . S
C1210 C1211 1.404 . S
C1210 C1213 1.539 . S
C1211 C1207 1.408 . S
C1211 C1210 1.404 . S
C1211 H1223 0.930 . S
C1212 C1208 1.524 . S
C1212 H1224 0.956 . S
C1212 H1225 0.961 . S
C1212 H1226 0.961 . S
C1213 C1210 1.539 . S
C1213 H1227 0.958 . S
C1213 H1228 0.961 . S
C1213 H1229 0.960 . S
H1214 C1198 0.931 . S
H1215 C1203 0.929 . S
H1216 C1204 0.960 . S
H1217 C1204 0.962 . S
H1218 C1204 0.960 . S
H1219 C1205 0.961 . S
H1220 C1205 0.961 . S
H1221 C1205 0.961 . S
H1222 C1206 0.931 . S
H1223 C1211 0.930 . S
H1224 C1212 0.956 . S
H1225 C1212 0.961 . S
H1226 C1212 0.961 . S
H1227 C1213 0.958 . S
H1228 C1213 0.961 . S
H1229 C1213 0.960 . S
C1230 C1231 1.391 . S
C1230 C1232 1.394 . S
C1230 H1246 0.931 . S
C1231 C1230 1.391 . S
C1231 C1235 1.376 . S
C1232 C1230 1.394 . S
C1232 C1233 1.369 . S
C1232 C1236 1.531 . S
C1233 C1232 1.369 . S
C1233 C1234 1.410 . S
C1233 C1241 1.503 . S
C1234 C1233 1.410 . S
C1234 C1235 1.392 . S
C1234 C1237 1.511 . S
C1235 C1231 1.376 . S
C1235 C1234 1.392 . S
C1235 H1247 0.929 . S
C1236 C1232 1.531 . S
C1236 H1248 0.960 . S
C1236 H1249 0.962 . S
C1236 H1250 0.960 . S
C1237 C1234 1.511 . S
C1237 H1251 0.961 . S
C1237 H1252 0.961 . S
C1237 H1253 0.961 . S
C1238 C1239 1.370 . S
C1238 C1240 1.363 . S
C1238 H1254 0.931 . S
C1239 C1238 1.370 . S
C1239 C1243 1.408 . S
C1240 C1238 1.363 . S
C1240 C1241 1.370 . S
C1240 C1244 1.524 . S
C1241 C1233 1.503 . S
C1241 C1240 1.370 . S
C1241 C1242 1.403 . S
C1242 C1241 1.403 . S
C1242 C1243 1.404 . S
C1242 C1245 1.539 . S
C1243 C1239 1.408 . S
C1243 C1242 1.404 . S
C1243 H1255 0.930 . S
C1244 C1240 1.524 . S
C1244 H1256 0.956 . S
C1244 H1257 0.961 . S
C1244 H1258 0.961 . S
C1245 C1242 1.539 . S
C1245 H1259 0.958 . S
C1245 H1260 0.961 . S
C1245 H1261 0.960 . S
H1246 C1230 0.931 . S
H1247 C1235 0.929 . S
H1248 C1236 0.960 . S
H1249 C1236 0.962 . S
H1250 C1236 0.960 . S
H1251 C1237 0.961 . S
H1252 C1237 0.961 . S
H1253 C1237 0.961 . S
H1254 C1238 0.931 . S
H1255 C1243 0.930 . S
H1256 C1244 0.956 . S
H1257 C1244 0.961 . S
H1258 C1244 0.961 . S
H1259 C1245 0.958 . S
H1260 C1245 0.961 . S
H1261 C1245 0.960 . S
C1262 C1263 1.391 . S
C1262 C1264 1.394 . S
C1262 H1278 0.931 . S
C1263 C1262 1.391 . S
C1263 C1267 1.376 . S
C1264 C1262 1.394 . S
C1264 C1265 1.369 . S
C1264 C1268 1.531 . S
C1265 C1264 1.369 . S
C1265 C1266 1.410 . S
C1265 C1273 1.503 . S
C1266 C1265 1.410 . S
C1266 C1267 1.392 . S
C1266 C1269 1.511 . S
C1267 C1263 1.376 . S
C1267 C1266 1.392 . S
C1267 H1279 0.929 . S
C1268 C1264 1.531 . S
C1268 H1280 0.960 . S
C1268 H1281 0.962 . S
C1268 H1282 0.960 . S
C1269 C1266 1.511 . S
C1269 H1283 0.961 . S
C1269 H1284 0.961 . S
C1269 H1285 0.961 . S
C1270 C1271 1.370 . S
C1270 C1272 1.363 . S
C1270 H1286 0.931 . S
C1271 C1270 1.370 . S
C1271 C1275 1.408 . S
C1272 C1270 1.363 . S
C1272 C1273 1.370 . S
C1272 C1276 1.524 . S
C1273 C1265 1.503 . S
C1273 C1272 1.370 . S
C1273 C1274 1.403 . S
C1274 C1273 1.403 . S
C1274 C1275 1.404 . S
C1274 C1277 1.539 . S
C1275 C1271 1.408 . S
C1275 C1274 1.404 . S
C1275 H1287 0.930 . S
C1276 C1272 1.524 . S
C1276 H1288 0.956 . S
C1276 H1289 0.961 . S
C1276 H1290 0.961 . S
C1277 C1274 1.539 . S
C1277 H1291 0.958 . S
C1277 H1292 0.961 . S
C1277 H1293 0.960 . S
H1278 C1262 0.931 . S
H1279 C1267 0.929 . S
H1280 C1268 0.960 . S
H1281 C1268 0.962 . S
H1282 C1268 0.960 . S
H1283 C1269 0.961 . S
H1284 C1269 0.961 . S
H1285 C1269 0.961 . S
H1286 C1270 0.931 . S
H1287 C1275 0.930 . S
H1288 C1276 0.956 . S
H1289 C1276 0.961 . S
H1290 C1276 0.961 . S
H1291 C1277 0.958 . S
H1292 C1277 0.961 . S
H1293 C1277 0.960 . S
C1294 C1295 1.391 . S
C1294 C1296 1.394 . S
C1294 H1310 0.931 . S
C1295 C1294 1.391 . S
C1295 C1299 1.376 . S
C1296 C1294 1.394 . S
C1296 C1297 1.369 . S
C1296 C1300 1.531 . S
C1297 C1296 1.369 . S
C1297 C1298 1.410 . S
C1297 C1305 1.503 . S
C1298 C1297 1.410 . S
C1298 C1299 1.392 . S
C1298 C1301 1.511 . S
C1299 C1295 1.376 . S
C1299 C1298 1.392 . S
C1299 H1311 0.929 . S
C1300 C1296 1.531 . S
C1300 H1312 0.960 . S
C1300 H1313 0.962 . S
C1300 H1314 0.960 . S
C1301 C1298 1.511 . S
C1301 H1315 0.961 . S
C1301 H1316 0.961 . S
C1301 H1317 0.961 . S
C1302 C1303 1.370 . S
C1302 C1304 1.363 . S
C1302 H1318 0.931 . S
C1303 C1302 1.370 . S
C1303 C1307 1.408 . S
C1304 C1302 1.363 . S
C1304 C1305 1.370 . S
C1304 C1308 1.524 . S
C1305 C1297 1.503 . S
C1305 C1304 1.370 . S
C1305 C1306 1.403 . S
C1306 C1305 1.403 . S
C1306 C1307 1.404 . S
C1306 C1309 1.539 . S
C1307 C1303 1.408 . S
C1307 C1306 1.404 . S
C1307 H1319 0.930 . S
C1308 C1304 1.524 . S
C1308 H1320 0.956 . S
C1308 H1321 0.961 . S
C1308 H1322 0.961 . S
C1309 C1306 1.539 . S
C1309 H1323 0.958 . S
C1309 H1324 0.961 . S
C1309 H1325 0.960 . S
H1310 C1294 0.931 . S
H1311 C1299 0.929 . S
H1312 C1300 0.960 . S
H1313 C1300 0.962 . S
H1314 C1300 0.960 . S
H1315 C1301 0.961 . S
H1316 C1301 0.961 . S
H1317 C1301 0.961 . S
H1318 C1302 0.931 . S
H1319 C1307 0.930 . S
H1320 C1308 0.956 . S
H1321 C1308 0.961 . S
H1322 C1308 0.961 . S
H1323 C1309 0.958 . S
H1324 C1309 0.961 . S
H1325 C1309 0.960 . S
C1326 C1327 1.391 . S
C1326 C1328 1.394 . S
C1326 H1342 0.931 . S
C1327 C1326 1.391 . S
C1327 C1331 1.376 . S
C1328 C1326 1.394 . S
C1328 C1329 1.369 . S
C1328 C1332 1.531 . S
C1329 C1328 1.369 . S
C1329 C1330 1.410 . S
C1329 C1337 1.503 . S
C1330 C1329 1.410 . S
C1330 C1331 1.392 . S
C1330 C1333 1.511 . S
C1331 C1327 1.376 . S
C1331 C1330 1.392 . S
C1331 H1343 0.929 . S
C1332 C1328 1.531 . S
C1332 H1344 0.960 . S
C1332 H1345 0.962 . S
C1332 H1346 0.960 . S
C1333 C1330 1.511 . S
C1333 H1347 0.961 . S
C1333 H1348 0.961 . S
C1333 H1349 0.961 . S
C1334 C1335 1.370 . S
C1334 C1336 1.363 . S
C1334 H1350 0.931 . S
C1335 C1334 1.370 . S
C1335 C1339 1.408 . S
C1336 C1334 1.363 . S
C1336 C1337 1.370 . S
C1336 C1340 1.524 . S
C1337 C1329 1.503 . S
C1337 C1336 1.370 . S
C1337 C1338 1.403 . S
C1338 C1337 1.403 . S
C1338 C1339 1.404 . S
C1338 C1341 1.539 . S
C1339 C1335 1.408 . S
C1339 C1338 1.404 . S
C1339 H1351 0.930 . S
C1340 C1336 1.524 . S
C1340 H1352 0.956 . S
C1340 H1353 0.961 . S
C1340 H1354 0.961 . S
C1341 C1338 1.539 . S
C1341 H1355 0.958 . S
C1341 H1356 0.961 . S
C1341 H1357 0.960 . S
H1342 C1326 0.931 . S
H1343 C1331 0.929 . S
H1344 C1332 0.960 . S
H1345 C1332 0.962 . S
H1346 C1332 0.960 . S
H1347 C1333 0.961 . S
H1348 C1333 0.961 . S
H1349 C1333 0.961 . S
H1350 C1334 0.931 . S
H1351 C1339 0.930 . S
H1352 C1340 0.956 . S
H1353 C1340 0.961 . S
H1354 C1340 0.961 . S
H1355 C1341 0.958 . S
H1356 C1341 0.961 . S
H1357 C1341 0.960 . S
C1358 C1359 1.391 . S
C1358 C1360 1.394 . S
C1358 H1374 0.931 . S
C1359 C1358 1.391 . S
C1359 C1363 1.376 . S
C1360 C1358 1.394 . S
C1360 C1361 1.369 . S
C1360 C1364 1.531 . S
C1361 C1360 1.369 . S
C1361 C1362 1.410 . S
C1361 C1369 1.503 . S
C1362 C1361 1.410 . S
C1362 C1363 1.392 . S
C1362 C1365 1.511 . S
C1363 C1359 1.376 . S
C1363 C1362 1.392 . S
C1363 H1375 0.929 . S
C1364 C1360 1.531 . S
C1364 H1376 0.960 . S
C1364 H1377 0.962 . S
C1364 H1378 0.960 . S
C1365 C1362 1.511 . S
C1365 H1379 0.961 . S
C1365 H1380 0.961 . S
C1365 H1381 0.961 . S
C1366 C1367 1.370 . S
C1366 C1368 1.363 . S
C1366 H1382 0.931 . S
C1367 C1366 1.370 . S
C1367 C1371 1.408 . S
C1368 C1366 1.363 . S
C1368 C1369 1.370 . S
C1368 C1372 1.524 . S
C1369 C1361 1.503 . S
C1369 C1368 1.370 . S
C1369 C1370 1.403 . S
C1370 C1369 1.403 . S
C1370 C1371 1.404 . S
C1370 C1373 1.539 . S
C1371 C1367 1.408 . S
C1371 C1370 1.404 . S
C1371 H1383 0.930 . S
C1372 C1368 1.524 . S
C1372 H1384 0.956 . S
C1372 H1385 0.961 . S
C1372 H1386 0.961 . S
C1373 C1370 1.539 . S
C1373 H1387 0.958 . S
C1373 H1388 0.961 . S
C1373 H1389 0.960 . S
H1374 C1358 0.931 . S
H1375 C1363 0.929 . S
H1376 C1364 0.960 . S
H1377 C1364 0.962 . S
H1378 C1364 0.960 . S
H1379 C1365 0.961 . S
H1380 C1365 0.961 . S
H1381 C1365 0.961 . S
H1382 C1366 0.931 . S
H1383 C1371 0.930 . S
H1384 C1372 0.956 . S
H1385 C1372 0.961 . S
H1386 C1372 0.961 . S
H1387 C1373 0.958 . S
H1388 C1373 0.961 . S
H1389 C1373 0.960 . S
C1390 C1391 1.391 . S
C1390 C1392 1.394 . S
C1390 H1406 0.931 . S
C1391 C1390 1.391 . S
C1391 C1395 1.376 . S
C1392 C1390 1.394 . S
C1392 C1393 1.369 . S
C1392 C1396 1.531 . S
C1393 C1392 1.369 . S
C1393 C1394 1.410 . S
C1393 C1401 1.503 . S
C1394 C1393 1.410 . S
C1394 C1395 1.392 . S
C1394 C1397 1.511 . S
C1395 C1391 1.376 . S
C1395 C1394 1.392 . S
C1395 H1407 0.929 . S
C1396 C1392 1.531 . S
C1396 H1408 0.960 . S
C1396 H1409 0.962 . S
C1396 H1410 0.960 . S
C1397 C1394 1.511 . S
C1397 H1411 0.961 . S
C1397 H1412 0.961 . S
C1397 H1413 0.961 . S
C1398 C1399 1.370 . S
C1398 C1400 1.363 . S
C1398 H1414 0.931 . S
C1399 C1398 1.370 . S
C1399 C1403 1.408 . S
C1400 C1398 1.363 . S
C1400 C1401 1.370 . S
C1400 C1404 1.524 . S
C1401 C1393 1.503 . S
C1401 C1400 1.370 . S
C1401 C1402 1.403 . S
C1402 C1401 1.403 . S
C1402 C1403 1.404 . S
C1402 C1405 1.539 . S
C1403 C1399 1.408 . S
C1403 C1402 1.404 . S
C1403 H1415 0.930 . S
C1404 C1400 1.524 . S
C1404 H1416 0.956 . S
C1404 H1417 0.961 . S
C1404 H1418 0.961 . S
C1405 C1402 1.539 . S
C1405 H1419 0.958 . S
C1405 H1420 0.961 . S
C1405 H1421 0.960 . S
H1406 C1390 0.931 . S
H1407 C1395 0.929 . S
H1408 C1396 0.960 . S
H1409 C1396 0.962 . S
H1410 C1396 0.960 . S
H1411 C1397 0.961 . S
H1412 C1397 0.961 . S
H1413 C1397 0.961 . S
H1414 C1398 0.931 . S
H1415 C1403 0.930 . S
H1416 C1404 0.956 . S
H1417 C1404 0.961 . S
H1418 C1404 0.961 . S
H1419 C1405 0.958 . S
H1420 C1405 0.961 . S
H1421 C1405 0.960 . S
C1422 C1423 1.391 . S
C1422 C1424 1.394 . S
C1422 H1438 0.931 . S
C1423 C1422 1.391 . S
C1423 C1427 1.376 . S
C1424 C1422 1.394 . S
C1424 C1425 1.369 . S
C1424 C1428 1.531 . S
C1425 C1424 1.369 . S
C1425 C1426 1.410 . S
C1425 C1433 1.503 . S
C1426 C1425 1.410 . S
C1426 C1427 1.392 . S
C1426 C1429 1.511 . S
C1427 C1423 1.376 . S
C1427 C1426 1.392 . S
C1427 H1439 0.929 . S
C1428 C1424 1.531 . S
C1428 H1440 0.960 . S
C1428 H1441 0.962 . S
C1428 H1442 0.960 . S
C1429 C1426 1.511 . S
C1429 H1443 0.961 . S
C1429 H1444 0.961 . S
C1429 H1445 0.961 . S
C1430 C1431 1.370 . S
C1430 C1432 1.363 . S
C1430 H1446 0.931 . S
C1431 C1430 1.370 . S
C1431 C1435 1.408 . S
C1432 C1430 1.363 . S
C1432 C1433 1.370 . S
C1432 C1436 1.524 . S
C1433 C1425 1.503 . S
C1433 C1432 1.370 . S
C1433 C1434 1.403 . S
C1434 C1433 1.403 . S
C1434 C1435 1.404 . S
C1434 C1437 1.539 . S
C1435 C1431 1.408 . S
C1435 C1434 1.404 . S
C1435 H1447 0.930 . S
C1436 C1432 1.524 . S
C1436 H1448 0.956 . S
C1436 H1449 0.961 . S
C1436 H1450 0.961 . S
C1437 C1434 1.539 . S
C1437 H1451 0.958 . S
C1437 H1452 0.961 . S
C1437 H1453 0.960 . S
H1438 C1422 0.931 . S
H1439 C1427 0.929 . S
H1440 C1428 0.960 . S
H1441 C1428 0.962 . S
H1442 C1428 0.960 . S
H1443 C1429 0.961 . S
H1444 C1429 0.961 . S
H1445 C1429 0.961 . S
H1446 C1430 0.931 . S
H1447 C1435 0.930 . S
H1448 C1436 0.956 . S
H1449 C1436 0.961 . S
H1450 C1436 0.961 . S
H1451 C1437 0.958 . S
H1452 C1437 0.961 . S
H1453 C1437 0.960 . S
C1454 C1455 1.391 . S
C1454 C1456 1.394 . S
C1454 H1470 0.931 . S
C1455 C1454 1.391 . S
C1455 C1459 1.376 . S
C1456 C1454 1.394 . S
C1456 C1457 1.369 . S
C1456 C1460 1.531 . S
C1457 C1456 1.369 . S
C1457 C1458 1.410 . S
C1457 C1465 1.503 . S
C1458 C1457 1.410 . S
C1458 C1459 1.392 . S
C1458 C1461 1.511 . S
C1459 C1455 1.376 . S
C1459 C1458 1.392 . S
C1459 H1471 0.929 . S
C1460 C1456 1.531 . S
C1460 H1472 0.960 . S
C1460 H1473 0.962 . S
C1460 H1474 0.960 . S
C1461 C1458 1.511 . S
C1461 H1475 0.961 . S
C1461 H1476 0.961 . S
C1461 H1477 0.961 . S
C1462 C1463 1.370 . S
C1462 C1464 1.363 . S
C1462 H1478 0.931 . S
C1463 C1462 1.370 . S
C1463 C1467 1.408 . S
C1464 C1462 1.363 . S
C1464 C1465 1.370 . S
C1464 C1468 1.524 . S
C1465 C1457 1.503 . S
C1465 C1464 1.370 . S
C1465 C1466 1.403 . S
C1466 C1465 1.403 . S
C1466 C1467 1.404 . S
C1466 C1469 1.539 . S
C1467 C1463 1.408 . S
C1467 C1466 1.404 . S
C1467 H1479 0.930 . S
C1468 C1464 1.524 . S
C1468 H1480 0.956 . S
C1468 H1481 0.961 . S
C1468 H1482 0.961 . S
C1469 C1466 1.539 . S
C1469 H1483 0.958 . S
C1469 H1484 0.961 . S
C1469 H1485 0.960 . S
H1470 C1454 0.931 . S
H1471 C1459 0.929 . S
H1472 C1460 0.960 . S
H1473 C1460 0.962 . S
H1474 C1460 0.960 . S
H1475 C1461 0.961 . S
H1476 C1461 0.961 . S
H1477 C1461 0.961 . S
H1478 C1462 0.931 . S
H1479 C1467 0.930 . S
H1480 C1468 0.956 . S
H1481 C1468 0.961 . S
H1482 C1468 0.961 . S
H1483 C1469 0.958 . S
H1484 C1469 0.961 . S
H1485 C1469 0.960 . S
C1486 C1487 1.391 . S
C1486 C1488 1.394 . S
C1486 H1502 0.931 . S
C1487 C1486 1.391 . S
C1487 C1491 1.376 . S
C1488 C1486 1.394 . S
C1488 C1489 1.369 . S
C1488 C1492 1.531 . S
C1489 C1488 1.369 . S
C1489 C1490 1.410 . S
C1489 C1497 1.503 . S
C1490 C1489 1.410 . S
C1490 C1491 1.392 . S
C1490 C1493 1.511 . S
C1491 C1487 1.376 . S
C1491 C1490 1.392 . S
C1491 H1503 0.929 . S
C1492 C1488 1.531 . S
C1492 H1504 0.960 . S
C1492 H1505 0.962 . S
C1492 H1506 0.960 . S
C1493 C1490 1.511 . S
C1493 H1507 0.961 . S
C1493 H1508 0.961 . S
C1493 H1509 0.961 . S
C1494 C1495 1.370 . S
C1494 C1496 1.363 . S
C1494 H1510 0.931 . S
C1495 C1494 1.370 . S
C1495 C1499 1.408 . S
C1496 C1494 1.363 . S
C1496 C1497 1.370 . S
C1496 C1500 1.524 . S
C1497 C1489 1.503 . S
C1497 C1496 1.370 . S
C1497 C1498 1.403 . S
C1498 C1497 1.403 . S
C1498 C1499 1.404 . S
C1498 C1501 1.539 . S
C1499 C1495 1.408 . S
C1499 C1498 1.404 . S
C1499 H1511 0.930 . S
C1500 C1496 1.524 . S
C1500 H1512 0.956 . S
C1500 H1513 0.961 . S
C1500 H1514 0.961 . S
C1501 C1498 1.539 . S
C1501 H1515 0.958 . S
C1501 H1516 0.961 . S
C1501 H1517 0.960 . S
H1502 C1486 0.931 . S
H1503 C1491 0.929 . S
H1504 C1492 0.960 . S
H1505 C1492 0.962 . S
H1506 C1492 0.960 . S
H1507 C1493 0.961 . S
H1508 C1493 0.961 . S
H1509 C1493 0.961 . S
H1510 C1494 0.931 . S
H1511 C1499 0.930 . S
H1512 C1500 0.956 . S
H1513 C1500 0.961 . S
H1514 C1500 0.961 . S
H1515 C1501 0.958 . S
H1516 C1501 0.961 . S
H1517 C1501 0.960 . S
C1518 C1519 1.391 . S
C1518 C1520 1.394 . S
C1518 H1534 0.931 . S
C1519 C1518 1.391 . S
C1519 C1523 1.376 . S
C1520 C1518 1.394 . S
C1520 C1521 1.369 . S
C1520 C1524 1.531 . S
C1521 C1520 1.369 . S
C1521 C1522 1.410 . S
C1521 C1529 1.503 . S
C1522 C1521 1.410 . S
C1522 C1523 1.392 . S
C1522 C1525 1.511 . S
C1523 C1519 1.376 . S
C1523 C1522 1.392 . S
C1523 H1535 0.929 . S
C1524 C1520 1.531 . S
C1524 H1536 0.960 . S
C1524 H1537 0.962 . S
C1524 H1538 0.960 . S
C1525 C1522 1.511 . S
C1525 H1539 0.961 . S
C1525 H1540 0.961 . S
C1525 H1541 0.961 . S
C1526 C1527 1.370 . S
C1526 C1528 1.363 . S
C1526 H1542 0.931 . S
C1527 C1526 1.370 . S
C1527 C1531 1.408 . S
C1528 C1526 1.363 . S
C1528 C1529 1.370 . S
C1528 C1532 1.524 . S
C1529 C1521 1.503 . S
C1529 C1528 1.370 . S
C1529 C1530 1.403 . S
C1530 C1529 1.403 . S
C1530 C1531 1.404 . S
C1530 C1533 1.539 . S
C1531 C1527 1.408 . S
C1531 C1530 1.404 . S
C1531 H1543 0.930 . S
C1532 C1528 1.524 . S
C1532 H1544 0.956 . S
C1532 H1545 0.961 . S
C1532 H1546 0.961 . S
C1533 C1530 1.539 . S
C1533 H1547 0.958 . S
C1533 H1548 0.961 . S
C1533 H1549 0.960 . S
H1534 C1518 0.931 . S
H1535 C1523 0.929 . S
H1536 C1524 0.960 . S
H1537 C1524 0.962 . S
H1538 C1524 0.960 . S
H1539 C1525 0.961 . S
H1540 C1525 0.961 . S
H1541 C1525 0.961 . S
H1542 C1526 0.931 . S
H1543 C1531 0.930 . S
H1544 C1532 0.956 . S
H1545 C1532 0.961 . S
H1546 C1532 0.961 . S
H1547 C1533 0.958 . S
H1548 C1533 0.961 . S
H1549 C1533 0.960 . S
C1550 C1551 1.391 . S
C1550 C1552 1.394 . S
C1550 H1566 0.931 . S
C1551 C1550 1.391 . S
C1551 C1555 1.376 . S
C1552 C1550 1.394 . S
C1552 C1553 1.369 . S
C1552 C1556 1.531 . S
C1553 C1552 1.369 . S
C1553 C1554 1.410 . S
C1553 C1561 1.503 . S
C1554 C1553 1.410 . S
C1554 C1555 1.392 . S
C1554 C1557 1.511 . S
C1555 C1551 1.376 . S
C1555 C1554 1.392 . S
C1555 H1567 0.929 . S
C1556 C1552 1.531 . S
C1556 H1568 0.960 . S
C1556 H1569 0.962 . S
C1556 H1570 0.960 . S
C1557 C1554 1.511 . S
C1557 H1571 0.961 . S
C1557 H1572 0.961 . S
C1557 H1573 0.961 . S
C1558 C1559 1.370 . S
C1558 C1560 1.363 . S
C1558 H1574 0.931 . S
C1559 C1558 1.370 . S
C1559 C1563 1.408 . S
C1560 C1558 1.363 . S
C1560 C1561 1.370 . S
C1560 C1564 1.524 . S
C1561 C1553 1.503 . S
C1561 C1560 1.370 . S
C1561 C1562 1.403 . S
C1562 C1561 1.403 . S
C1562 C1563 1.404 . S
C1562 C1565 1.539 . S
C1563 C1559 1.408 . S
C1563 C1562 1.404 . S
C1563 H1575 0.930 . S
C1564 C1560 1.524 . S
C1564 H1576 0.956 . S
C1564 H1577 0.961 . S
C1564 H1578 0.961 . S
C1565 C1562 1.539 . S
C1565 H1579 0.958 . S
C1565 H1580 0.961 . S
C1565 H1581 0.960 . S
H1566 C1550 0.931 . S
H1567 C1555 0.929 . S
H1568 C1556 0.960 . S
H1569 C1556 0.962 . S
H1570 C1556 0.960 . S
H1571 C1557 0.961 . S
H1572 C1557 0.961 . S
H1573 C1557 0.961 . S
H1574 C1558 0.931 . S
H1575 C1563 0.930 . S
H1576 C1564 0.956 . S
H1577 C1564 0.961 . S
H1578 C1564 0.961 . S
H1579 C1565 0.958 . S
H1580 C1565 0.961 . S
H1581 C1565 0.960 . S
C1582 C1583 1.391 . S
C1582 C1584 1.394 . S
C1582 H1598 0.931 . S
C1583 C1582 1.391 . S
C1583 C1587 1.376 . S
C1584 C1582 1.394 . S
C1584 C1585 1.369 . S
C1584 C1588 1.531 . S
C1585 C1584 1.369 . S
C1585 C1586 1.410 . S
C1585 C1593 1.503 . S
C1586 C1585 1.410 . S
C1586 C1587 1.392 . S
C1586 C1589 1.511 . S
C1587 C1583 1.376 . S
C1587 C1586 1.392 . S
C1587 H1599 0.929 . S
C1588 C1584 1.531 . S
C1588 H1600 0.960 . S
C1588 H1601 0.962 . S
C1588 H1602 0.960 . S
C1589 C1586 1.511 . S
C1589 H1603 0.961 . S
C1589 H1604 0.961 . S
C1589 H1605 0.961 . S
C1590 C1591 1.370 . S
C1590 C1592 1.363 . S
C1590 H1606 0.931 . S
C1591 C1590 1.370 . S
C1591 C1595 1.408 . S
C1592 C1590 1.363 . S
C1592 C1593 1.370 . S
C1592 C1596 1.524 . S
C1593 C1585 1.503 . S
C1593 C1592 1.370 . S
C1593 C1594 1.403 . S
C1594 C1593 1.403 . S
C1594 C1595 1.404 . S
C1594 C1597 1.539 . S
C1595 C1591 1.408 . S
C1595 C1594 1.404 . S
C1595 H1607 0.930 . S
C1596 C1592 1.524 . S
C1596 H1608 0.956 . S
C1596 H1609 0.961 . S
C1596 H1610 0.961 . S
C1597 C1594 1.539 . S
C1597 H1611 0.958 . S
C1597 H1612 0.961 . S
C1597 H1613 0.960 . S
H1598 C1582 0.931 . S
H1599 C1587 0.929 . S
H1600 C1588 0.960 . S
H1601 C1588 0.962 . S
H1602 C1588 0.960 . S
H1603 C1589 0.961 . S
H1604 C1589 0.961 . S
H1605 C1589 0.961 . S
H1606 C1590 0.931 . S
H1607 C1595 0.930 . S
H1608 C1596 0.956 . S
H1609 C1596 0.961 . S
H1610 C1596 0.961 . S
H1611 C1597 0.958 . S
H1612 C1597 0.961 . S
H1613 C1597 0.960 . S
C1614 C1615 1.391 . S
C1614 C1616 1.394 . S
C1614 H1630 0.931 . S
C1615 C1614 1.391 . S
C1615 C1619 1.376 . S
C1616 C1614 1.394 . S
C1616 C1617 1.369 . S
C1616 C1620 1.531 . S
C1617 C1616 1.369 . S
C1617 C1618 1.410 . S
C1617 C1625 1.503 . S
C1618 C1617 1.410 . S
C1618 C1619 1.392 . S
C1618 C1621 1.511 . S
C1619 C1615 1.376 . S
C1619 C1618 1.392 . S
C1619 H1631 0.929 . S
C1620 C1616 1.531 . S
C1620 H1632 0.960 . S
C1620 H1633 0.962 . S
C1620 H1634 0.960 . S
C1621 C1618 1.511 . S
C1621 H1635 0.961 . S
C1621 H1636 0.961 . S
C1621 H1637 0.961 . S
C1622 C1623 1.370 . S
C1622 C1624 1.363 . S
C1622 H1638 0.931 . S
C1623 C1622 1.370 . S
C1623 C1627 1.408 . S
C1624 C1622 1.363 . S
C1624 C1625 1.370 . S
C1624 C1628 1.524 . S
C1625 C1617 1.503 . S
C1625 C1624 1.370 . S
C1625 C1626 1.403 . S
C1626 C1625 1.403 . S
C1626 C1627 1.404 . S
C1626 C1629 1.539 . S
C1627 C1623 1.408 . S
C1627 C1626 1.404 . S
C1627 H1639 0.930 . S
C1628 C1624 1.524 . S
C1628 H1640 0.956 . S
C1628 H1641 0.961 . S
C1628 H1642 0.961 . S
C1629 C1626 1.539 . S
C1629 H1643 0.958 . S
C1629 H1644 0.961 . S
C1629 H1645 0.960 . S
H1630 C1614 0.931 . S
H1631 C1619 0.929 . S
H1632 C1620 0.960 . S
H1633 C1620 0.962 . S
H1634 C1620 0.960 . S
H1635 C1621 0.961 . S
H1636 C1621 0.961 . S
H1637 C1621 0.961 . S
H1638 C1622 0.931 . S
H1639 C1627 0.930 . S
H1640 C1628 0.956 . S
H1641 C1628 0.961 . S
H1642 C1628 0.961 . S
H1643 C1629 0.958 . S
H1644 C1629 0.961 . S
H1645 C1629 0.960 . S
C1646 C1647 1.391 . S
C1646 C1648 1.394 . S
C1646 H1662 0.931 . S
C1647 C1646 1.391 . S
C1647 C1651 1.376 . S
C1648 C1646 1.394 . S
C1648 C1649 1.369 . S
C1648 C1652 1.531 . S
C1649 C1648 1.369 . S
C1649 C1650 1.410 . S
C1649 C1657 1.503 . S
C1650 C1649 1.410 . S
C1650 C1651 1.392 . S
C1650 C1653 1.511 . S
C1651 C1647 1.376 . S
C1651 C1650 1.392 . S
C1651 H1663 0.929 . S
C1652 C1648 1.531 . S
C1652 H1664 0.960 . S
C1652 H1665 0.962 . S
C1652 H1666 0.960 . S
C1653 C1650 1.511 . S
C1653 H1667 0.961 . S
C1653 H1668 0.961 . S
C1653 H1669 0.961 . S
C1654 C1655 1.370 . S
C1654 C1656 1.363 . S
C1654 H1670 0.931 . S
C1655 C1654 1.370 . S
C1655 C1659 1.408 . S
C1656 C1654 1.363 . S
C1656 C1657 1.370 . S
C1656 C1660 1.524 . S
C1657 C1649 1.503 . S
C1657 C1656 1.370 . S
C1657 C1658 1.403 . S
C1658 C1657 1.403 . S
C1658 C1659 1.404 . S
C1658 C1661 1.539 . S
C1659 C1655 1.408 . S
C1659 C1658 1.404 . S
C1659 H1671 0.930 . S
C1660 C1656 1.524 . S
C1660 H1672 0.956 . S
C1660 H1673 0.961 . S
C1660 H1674 0.961 . S
C1661 C1658 1.539 . S
C1661 H1675 0.958 . S
C1661 H1676 0.961 . S
C1661 H1677 0.960 . S
H1662 C1646 0.931 . S
H1663 C1651 0.929 . S
H1664 C1652 0.960 . S
H1665 C1652 0.962 . S
H1666 C1652 0.960 . S
H1667 C1653 0.961 . S
H1668 C1653 0.961 . S
H1669 C1653 0.961 . S
H1670 C1654 0.931 . S
H1671 C1659 0.930 . S
H1672 C1660 0.956 . S
H1673 C1660 0.961 . S
H1674 C1660 0.961 . S
H1675 C1661 0.958 . S
H1676 C1661 0.961 . S
H1677 C1661 0.960 . S
C1678 C1679 1.391 . S
C1678 C1680 1.394 . S
C1678 H1694 0.931 . S
C1679 C1678 1.391 . S
C1679 C1683 1.376 . S
C1680 C1678 1.394 . S
C1680 C1681 1.369 . S
C1680 C1684 1.531 . S
C1681 C1680 1.369 . S
C1681 C1682 1.410 . S
C1681 C1689 1.503 . S
C1682 C1681 1.410 . S
C1682 C1683 1.392 . S
C1682 C1685 1.511 . S
C1683 C1679 1.376 . S
C1683 C1682 1.392 . S
C1683 H1695 0.929 . S
C1684 C1680 1.531 . S
C1684 H1696 0.960 . S
C1684 H1697 0.962 . S
C1684 H1698 0.960 . S
C1685 C1682 1.511 . S
C1685 H1699 0.961 . S
C1685 H1700 0.961 . S
C1685 H1701 0.961 . S
C1686 C1687 1.370 . S
C1686 C1688 1.363 . S
C1686 H1702 0.931 . S
C1687 C1686 1.370 . S
C1687 C1691 1.408 . S
C1688 C1686 1.363 . S
C1688 C1689 1.370 . S
C1688 C1692 1.524 . S
C1689 C1681 1.503 . S
C1689 C1688 1.370 . S
C1689 C1690 1.403 . S
C1690 C1689 1.403 . S
C1690 C1691 1.404 . S
C1690 C1693 1.539 . S
C1691 C1687 1.408 . S
C1691 C1690 1.404 . S
C1691 H1703 0.930 . S
C1692 C1688 1.524 . S
C1692 H1704 0.956 . S
C1692 H1705 0.961 . S
C1692 H1706 0.961 . S
C1693 C1690 1.539 . S
C1693 H1707 0.958 . S
C1693 H1708 0.961 . S
C1693 H1709 0.960 . S
H1694 C1678 0.931 . S
H1695 C1683 0.929 . S
H1696 C1684 0.960 . S
H1697 C1684 0.962 . S
H1698 C1684 0.960 . S
H1699 C1685 0.961 . S
H1700 C1685 0.961 . S
H1701 C1685 0.961 . S
H1702 C1686 0.931 . S
H1703 C1691 0.930 . S
H1704 C1692 0.956 . S
H1705 C1692 0.961 . S
H1706 C1692 0.961 . S
H1707 C1693 0.958 . S
H1708 C1693 0.961 . S
H1709 C1693 0.960 . S
C1710 C1711 1.391 . S
C1710 C1712 1.394 . S
C1710 H1726 0.931 . S
C1711 C1710 1.391 . S
C1711 C1715 1.376 . S
C1712 C1710 1.394 . S
C1712 C1713 1.369 . S
C1712 C1716 1.531 . S
C1713 C1712 1.369 . S
C1713 C1714 1.410 . S
C1713 C1721 1.503 . S
C1714 C1713 1.410 . S
C1714 C1715 1.392 . S
C1714 C1717 1.511 . S
C1715 C1711 1.376 . S
C1715 C1714 1.392 . S
C1715 H1727 0.929 . S
C1716 C1712 1.531 . S
C1716 H1728 0.960 . S
C1716 H1729 0.962 . S
C1716 H1730 0.960 . S
C1717 C1714 1.511 . S
C1717 H1731 0.961 . S
C1717 H1732 0.961 . S
C1717 H1733 0.961 . S
C1718 C1719 1.370 . S
C1718 C1720 1.363 . S
C1718 H1734 0.931 . S
C1719 C1718 1.370 . S
C1719 C1723 1.408 . S
C1720 C1718 1.363 . S
C1720 C1721 1.370 . S
C1720 C1724 1.524 . S
C1721 C1713 1.503 . S
C1721 C1720 1.370 . S
C1721 C1722 1.403 . S
C1722 C1721 1.403 . S
C1722 C1723 1.404 . S
C1722 C1725 1.539 . S
C1723 C1719 1.408 . S
C1723 C1722 1.404 . S
C1723 H1735 0.930 . S
C1724 C1720 1.524 . S
C1724 H1736 0.956 . S
C1724 H1737 0.961 . S
C1724 H1738 0.961 . S
C1725 C1722 1.539 . S
C1725 H1739 0.958 . S
C1725 H1740 0.961 . S
C1725 H1741 0.960 . S
H1726 C1710 0.931 . S
H1727 C1715 0.929 . S
H1728 C1716 0.960 . S
H1729 C1716 0.962 . S
H1730 C1716 0.960 . S
H1731 C1717 0.961 . S
H1732 C1717 0.961 . S
H1733 C1717 0.961 . S
H1734 C1718 0.931 . S
H1735 C1723 0.930 . S
H1736 C1724 0.956 . S
H1737 C1724 0.961 . S
H1738 C1724 0.961 . S
H1739 C1725 0.958 . S
H1740 C1725 0.961 . S
H1741 C1725 0.960 . S
C1742 C1743 1.391 . S
C1742 C1744 1.394 . S
C1742 H1758 0.931 . S
C1743 C1742 1.391 . S
C1743 C1747 1.376 . S
C1744 C1742 1.394 . S
C1744 C1745 1.369 . S
C1744 C1748 1.531 . S
C1745 C1744 1.369 . S
C1745 C1746 1.410 . S
C1745 C1753 1.503 . S
C1746 C1745 1.410 . S
C1746 C1747 1.392 . S
C1746 C1749 1.511 . S
C1747 C1743 1.376 . S
C1747 C1746 1.392 . S
C1747 H1759 0.929 . S
C1748 C1744 1.531 . S
C1748 H1760 0.960 . S
C1748 H1761 0.962 . S
C1748 H1762 0.960 . S
C1749 C1746 1.511 . S
C1749 H1763 0.961 . S
C1749 H1764 0.961 . S
C1749 H1765 0.961 . S
C1750 C1751 1.370 . S
C1750 C1752 1.363 . S
C1750 H1766 0.931 . S
C1751 C1750 1.370 . S
C1751 C1755 1.408 . S
C1752 C1750 1.363 . S
C1752 C1753 1.370 . S
C1752 C1756 1.524 . S
C1753 C1745 1.503 . S
C1753 C1752 1.370 . S
C1753 C1754 1.403 . S
C1754 C1753 1.403 . S
C1754 C1755 1.404 . S
C1754 C1757 1.539 . S
C1755 C1751 1.408 . S
C1755 C1754 1.404 . S
C1755 H1767 0.930 . S
C1756 C1752 1.524 . S
C1756 H1768 0.956 . S
C1756 H1769 0.961 . S
C1756 H1770 0.961 . S
C1757 C1754 1.539 . S
C1757 H1771 0.958 . S
C1757 H1772 0.961 . S
C1757 H1773 0.960 . S
H1758 C1742 0.931 . S
H1759 C1747 0.929 . S
H1760 C1748 0.960 . S
H1761 C1748 0.962 . S
H1762 C1748 0.960 . S
H1763 C1749 0.961 . S
H1764 C1749 0.961 . S
H1765 C1749 0.961 . S
H1766 C1750 0.931 . S
H1767 C1755 0.930 . S
H1768 C1756 0.956 . S
H1769 C1756 0.961 . S
H1770 C1756 0.961 . S
H1771 C1757 0.958 . S
H1772 C1757 0.961 . S
H1773 C1757 0.960 . S
C1774 C1775 1.391 . S
C1774 C1776 1.394 . S
C1774 H1790 0.931 . S
C1775 C1774 1.391 . S
C1775 C1779 1.376 . S
C1776 C1774 1.394 . S
C1776 C1777 1.369 . S
C1776 C1780 1.531 . S
C1777 C1776 1.369 . S
C1777 C1778 1.410 . S
C1777 C1785 1.503 . S
C1778 C1777 1.410 . S
C1778 C1779 1.392 . S
C1778 C1781 1.511 . S
C1779 C1775 1.376 . S
C1779 C1778 1.392 . S
C1779 H1791 0.929 . S
C1780 C1776 1.531 . S
C1780 H1792 0.960 . S
C1780 H1793 0.962 . S
C1780 H1794 0.960 . S
C1781 C1778 1.511 . S
C1781 H1795 0.961 . S
C1781 H1796 0.961 . S
C1781 H1797 0.961 . S
C1782 C1783 1.370 . S
C1782 C1784 1.363 . S
C1782 H1798 0.931 . S
C1783 C1782 1.370 . S
C1783 C1787 1.408 . S
C1784 C1782 1.363 . S
C1784 C1785 1.370 . S
C1784 C1788 1.524 . S
C1785 C1777 1.503 . S
C1785 C1784 1.370 . S
C1785 C1786 1.403 . S
C1786 C1785 1.403 . S
C1786 C1787 1.404 . S
C1786 C1789 1.539 . S
C1787 C1783 1.408 . S
C1787 C1786 1.404 . S
C1787 H1799 0.930 . S
C1788 C1784 1.524 . S
C1788 H1800 0.956 . S
C1788 H1801 0.961 . S
C1788 H1802 0.961 . S
C1789 C1786 1.539 . S
C1789 H1803 0.958 . S
C1789 H1804 0.961 . S
C1789 H1805 0.960 . S
H1790 C1774 0.931 . S
H1791 C1779 0.929 . S
H1792 C1780 0.960 . S
H1793 C1780 0.962 . S
H1794 C1780 0.960 . S
H1795 C1781 0.961 . S
H1796 C1781 0.961 . S
H1797 C1781 0.961 . S
H1798 C1782 0.931 . S
H1799 C1787 0.930 . S
H1800 C1788 0.956 . S
H1801 C1788 0.961 . S
H1802 C1788 0.961 . S
H1803 C1789 0.958 . S
H1804 C1789 0.961 . S
H1805 C1789 0.960 . S
C1806 C1807 1.391 . S
C1806 C1808 1.394 . S
C1806 H1822 0.931 . S
C1807 C1806 1.391 . S
C1807 C1811 1.376 . S
C1808 C1806 1.394 . S
C1808 C1809 1.369 . S
C1808 C1812 1.531 . S
C1809 C1808 1.369 . S
C1809 C1810 1.410 . S
C1809 C1817 1.503 . S
C1810 C1809 1.410 . S
C1810 C1811 1.392 . S
C1810 C1813 1.511 . S
C1811 C1807 1.376 . S
C1811 C1810 1.392 . S
C1811 H1823 0.929 . S
C1812 C1808 1.531 . S
C1812 H1824 0.960 . S
C1812 H1825 0.962 . S
C1812 H1826 0.960 . S
C1813 C1810 1.511 . S
C1813 H1827 0.961 . S
C1813 H1828 0.961 . S
C1813 H1829 0.961 . S
C1814 C1815 1.370 . S
C1814 C1816 1.363 . S
C1814 H1830 0.931 . S
C1815 C1814 1.370 . S
C1815 C1819 1.408 . S
C1816 C1814 1.363 . S
C1816 C1817 1.370 . S
C1816 C1820 1.524 . S
C1817 C1809 1.503 . S
C1817 C1816 1.370 . S
C1817 C1818 1.403 . S
C1818 C1817 1.403 . S
C1818 C1819 1.404 . S
C1818 C1821 1.539 . S
C1819 C1815 1.408 . S
C1819 C1818 1.404 . S
C1819 H1831 0.930 . S
C1820 C1816 1.524 . S
C1820 H1832 0.956 . S
C1820 H1833 0.961 . S
C1820 H1834 0.961 . S
C1821 C1818 1.539 . S
C1821 H1835 0.958 1_556 S
C1821 H1836 0.961 . S
C1821 H1837 0.960 . S
H1822 C1806 0.931 . S
H1823 C1811 0.929 . S
H1824 C1812 0.960 . S
H1825 C1812 0.962 . S
H1826 C1812 0.960 . S
H1827 C1813 0.961 . S
H1828 C1813 0.961 . S
H1829 C1813 0.961 . S
H1830 C1814 0.931 . S
H1831 C1819 0.930 . S
H1832 C1820 0.956 . S
H1833 C1820 0.961 . S
H1834 C1820 0.961 . S
H1835 C1821 0.958 1_554 S
H1836 C1821 0.961 . S
H1837 C1821 0.960 . S
C1838 C1839 1.391 . S
C1838 C1840 1.394 . S
C1838 H1854 0.931 1_556 S
C1839 C1838 1.391 . S
C1839 C1843 1.376 . S
C1840 C1838 1.394 . S
C1840 C1841 1.369 . S
C1840 C1844 1.531 . S
C1841 C1840 1.369 . S
C1841 C1842 1.410 . S
C1841 C1849 1.503 . S
C1842 C1841 1.410 . S
C1842 C1843 1.392 . S
C1842 C1845 1.511 . S
C1843 C1839 1.376 . S
C1843 C1842 1.392 . S
C1843 H1855 0.929 . S
C1844 C1840 1.531 . S
C1844 H1856 0.960 . S
C1844 H1857 0.962 . S
C1844 H1858 0.960 1_556 S
C1845 C1842 1.511 . S
C1845 H1859 0.961 . S
C1845 H1860 0.961 . S
C1845 H1861 0.961 . S
C1846 C1847 1.370 . S
C1846 C1848 1.363 . S
C1846 H1862 0.931 . S
C1847 C1846 1.370 . S
C1847 C1851 1.408 . S
C1848 C1846 1.363 . S
C1848 C1849 1.370 . S
C1848 C1852 1.524 . S
C1849 C1841 1.503 . S
C1849 C1848 1.370 . S
C1849 C1850 1.403 . S
C1850 C1849 1.403 . S
C1850 C1851 1.404 . S
C1850 C1853 1.539 . S
C1851 C1847 1.408 . S
C1851 C1850 1.404 . S
C1851 H1863 0.930 . S
C1852 C1848 1.524 . S
C1852 H1864 0.956 . S
C1852 H1865 0.961 . S
C1852 H1866 0.961 . S
C1853 C1850 1.539 . S
C1853 H1867 0.958 . S
C1853 H1868 0.961 . S
C1853 H1869 0.960 . S
H1854 C1838 0.931 1_554 S
H1855 C1843 0.929 . S
H1856 C1844 0.960 . S
H1857 C1844 0.962 . S
H1858 C1844 0.960 1_554 S
H1859 C1845 0.961 . S
H1860 C1845 0.961 . S
H1861 C1845 0.961 . S
H1862 C1846 0.931 . S
H1863 C1851 0.930 . S
H1864 C1852 0.956 . S
H1865 C1852 0.961 . S
H1866 C1852 0.961 . S
H1867 C1853 0.958 . S
H1868 C1853 0.961 . S
H1869 C1853 0.960 . S
C1870 C1871 1.391 . S
C1870 C1872 1.394 . S
C1870 H1886 0.931 1_556 S
C1871 C1870 1.391 . S
C1871 C1875 1.376 . S
C1872 C1870 1.394 . S
C1872 C1873 1.369 . S
C1872 C1876 1.531 1_556 S
C1873 C1872 1.369 . S
C1873 C1874 1.410 . S
C1873 C1881 1.503 . S
C1874 C1873 1.410 . S
C1874 C1875 1.392 . S
C1874 C1877 1.511 . S
C1875 C1871 1.376 . S
C1875 C1874 1.392 . S
C1875 H1887 0.929 . S
C1876 C1872 1.531 1_554 S
C1876 H1888 0.960 1_554 S
C1876 H1889 0.962 . S
C1876 H1890 0.960 . S
C1877 C1874 1.511 . S
C1877 H1891 0.961 . S
C1877 H1892 0.961 . S
C1877 H1893 0.961 . S
C1878 C1879 1.370 . S
C1878 C1880 1.363 . S
C1878 H1894 0.931 . S
C1879 C1878 1.370 . S
C1879 C1883 1.408 . S
C1880 C1878 1.363 . S
C1880 C1881 1.370 . S
C1880 C1884 1.524 . S
C1881 C1873 1.503 . S
C1881 C1880 1.370 . S
C1881 C1882 1.403 . S
C1882 C1881 1.403 . S
C1882 C1883 1.404 . S
C1882 C1885 1.539 . S
C1883 C1879 1.408 . S
C1883 C1882 1.404 . S
C1883 H1895 0.930 . S
C1884 C1880 1.524 . S
C1884 H1896 0.956 . S
C1884 H1897 0.961 . S
C1884 H1898 0.961 . S
C1885 C1882 1.539 . S
C1885 H1899 0.958 . S
C1885 H1900 0.961 . S
C1885 H1901 0.960 . S
H1886 C1870 0.931 1_554 S
H1887 C1875 0.929 . S
H1888 C1876 0.960 1_556 S
H1889 C1876 0.962 . S
H1890 C1876 0.960 . S
H1891 C1877 0.961 . S
H1892 C1877 0.961 . S
H1893 C1877 0.961 . S
H1894 C1878 0.931 . S
H1895 C1883 0.930 . S
H1896 C1884 0.956 . S
H1897 C1884 0.961 . S
H1898 C1884 0.961 . S
H1899 C1885 0.958 . S
H1900 C1885 0.961 . S
H1901 C1885 0.960 . S
C1902 C1903 1.391 . S
C1902 C1904 1.394 . S
C1902 H1918 0.931 . S
C1903 C1902 1.391 . S
C1903 C1907 1.376 . S
C1904 C1902 1.394 . S
C1904 C1905 1.369 . S
C1904 C1908 1.531 . S
C1905 C1904 1.369 . S
C1905 C1906 1.410 . S
C1905 C1913 1.503 . S
C1906 C1905 1.410 . S
C1906 C1907 1.392 . S
C1906 C1909 1.511 . S
C1907 C1903 1.376 . S
C1907 C1906 1.392 . S
C1907 H1919 0.929 . S
C1908 C1904 1.531 . S
C1908 H1920 0.960 . S
C1908 H1921 0.962 . S
C1908 H1922 0.960 . S
C1909 C1906 1.511 . S
C1909 H1923 0.961 . S
C1909 H1924 0.961 . S
C1909 H1925 0.961 . S
C1910 C1911 1.370 . S
C1910 C1912 1.363 . S
C1910 H1926 0.931 . S
C1911 C1910 1.370 . S
C1911 C1915 1.408 . S
C1912 C1910 1.363 . S
C1912 C1913 1.370 . S
C1912 C1916 1.524 . S
C1913 C1905 1.503 . S
C1913 C1912 1.370 . S
C1913 C1914 1.403 . S
C1914 C1913 1.403 . S
C1914 C1915 1.404 . S
C1914 C1917 1.539 . S
C1915 C1911 1.408 . S
C1915 C1914 1.404 . S
C1915 H1927 0.930 . S
C1916 C1912 1.524 . S
C1916 H1928 0.956 . S
C1916 H1929 0.961 . S
C1916 H1930 0.961 . S
C1917 C1914 1.539 . S
C1917 H1931 0.958 . S
C1917 H1932 0.961 . S
C1917 H1933 0.960 . S
H1918 C1902 0.931 . S
H1919 C1907 0.929 . S
H1920 C1908 0.960 . S
H1921 C1908 0.962 . S
H1922 C1908 0.960 . S
H1923 C1909 0.961 . S
H1924 C1909 0.961 . S
H1925 C1909 0.961 . S
H1926 C1910 0.931 . S
H1927 C1915 0.930 . S
H1928 C1916 0.956 . S
H1929 C1916 0.961 . S
H1930 C1916 0.961 . S
H1931 C1917 0.958 . S
H1932 C1917 0.961 . S
H1933 C1917 0.960 . S
C1934 C1935 1.391 . S
C1934 C1936 1.394 . S
C1934 H1950 0.931 . S
C1935 C1934 1.391 . S
C1935 C1939 1.376 . S
C1936 C1934 1.394 . S
C1936 C1937 1.369 . S
C1936 C1940 1.531 . S
C1937 C1936 1.369 . S
C1937 C1938 1.410 . S
C1937 C1945 1.503 . S
C1938 C1937 1.410 . S
C1938 C1939 1.392 . S
C1938 C1941 1.511 . S
C1939 C1935 1.376 . S
C1939 C1938 1.392 . S
C1939 H1951 0.929 . S
C1940 C1936 1.531 . S
C1940 H1952 0.960 . S
C1940 H1953 0.962 . S
C1940 H1954 0.960 . S
C1941 C1938 1.511 . S
C1941 H1955 0.961 . S
C1941 H1956 0.961 . S
C1941 H1957 0.961 . S
C1942 C1943 1.370 . S
C1942 C1944 1.363 . S
C1942 H1958 0.931 . S
C1943 C1942 1.370 . S
C1943 C1947 1.408 . S
C1944 C1942 1.363 . S
C1944 C1945 1.370 . S
C1944 C1948 1.524 . S
C1945 C1937 1.503 . S
C1945 C1944 1.370 . S
C1945 C1946 1.403 . S
C1946 C1945 1.403 . S
C1946 C1947 1.404 . S
C1946 C1949 1.539 . S
C1947 C1943 1.408 . S
C1947 C1946 1.404 . S
C1947 H1959 0.930 . S
C1948 C1944 1.524 . S
C1948 H1960 0.956 . S
C1948 H1961 0.961 . S
C1948 H1962 0.961 . S
C1949 C1946 1.539 . S
C1949 H1963 0.958 . S
C1949 H1964 0.961 . S
C1949 H1965 0.960 . S
H1950 C1934 0.931 . S
H1951 C1939 0.929 . S
H1952 C1940 0.960 . S
H1953 C1940 0.962 . S
H1954 C1940 0.960 . S
H1955 C1941 0.961 . S
H1956 C1941 0.961 . S
H1957 C1941 0.961 . S
H1958 C1942 0.931 . S
H1959 C1947 0.930 . S
H1960 C1948 0.956 . S
H1961 C1948 0.961 . S
H1962 C1948 0.961 . S
H1963 C1949 0.958 . S
H1964 C1949 0.961 . S
H1965 C1949 0.960 . S
C1966 C1967 1.391 . S
C1966 C1968 1.394 . S
C1966 H1982 0.931 . S
C1967 C1966 1.391 . S
C1967 C1971 1.376 . S
C1968 C1966 1.394 . S
C1968 C1969 1.369 . S
C1968 C1972 1.531 . S
C1969 C1968 1.369 . S
C1969 C1970 1.410 . S
C1969 C1977 1.503 . S
C1970 C1969 1.410 . S
C1970 C1971 1.392 . S
C1970 C1973 1.511 . S
C1971 C1967 1.376 . S
C1971 C1970 1.392 . S
C1971 H1983 0.929 . S
C1972 C1968 1.531 . S
C1972 H1984 0.960 . S
C1972 H1985 0.962 . S
C1972 H1986 0.960 . S
C1973 C1970 1.511 . S
C1973 H1987 0.961 . S
C1973 H1988 0.961 . S
C1973 H1989 0.961 . S
C1974 C1975 1.370 . S
C1974 C1976 1.363 . S
C1974 H1990 0.931 . S
C1975 C1974 1.370 . S
C1975 C1979 1.408 . S
C1976 C1974 1.363 . S
C1976 C1977 1.370 . S
C1976 C1980 1.524 . S
C1977 C1969 1.503 . S
C1977 C1976 1.370 . S
C1977 C1978 1.403 . S
C1978 C1977 1.403 . S
C1978 C1979 1.404 . S
C1978 C1981 1.539 . S
C1979 C1975 1.408 . S
C1979 C1978 1.404 . S
C1979 H1991 0.930 . S
C1980 C1976 1.524 . S
C1980 H1992 0.956 . S
C1980 H1993 0.961 . S
C1980 H1994 0.961 . S
C1981 C1978 1.539 . S
C1981 H1995 0.958 . S
C1981 H1996 0.961 . S
C1981 H1997 0.960 . S
H1982 C1966 0.931 . S
H1983 C1971 0.929 . S
H1984 C1972 0.960 . S
H1985 C1972 0.962 . S
H1986 C1972 0.960 . S
H1987 C1973 0.961 . S
H1988 C1973 0.961 . S
H1989 C1973 0.961 . S
H1990 C1974 0.931 . S
H1991 C1979 0.930 . S
H1992 C1980 0.956 . S
H1993 C1980 0.961 . S
H1994 C1980 0.961 . S
H1995 C1981 0.958 . S
H1996 C1981 0.961 . S
H1997 C1981 0.960 . S
C1998 C1999 1.391 . S
C1998 C2000 1.394 . S
C1998 H2014 0.931 . S
C1999 C1998 1.391 . S
C1999 C2003 1.376 . S
C2000 C1998 1.394 . S
C2000 C2001 1.369 . S
C2000 C2004 1.531 . S
C2001 C2000 1.369 . S
C2001 C2002 1.410 . S
C2001 C2009 1.503 . S
C2002 C2001 1.410 . S
C2002 C2003 1.392 . S
C2002 C2005 1.511 . S
C2003 C1999 1.376 . S
C2003 C2002 1.392 . S
C2003 H2015 0.929 . S
C2004 C2000 1.531 . S
C2004 H2016 0.960 . S
C2004 H2017 0.962 . S
C2004 H2018 0.960 . S
C2005 C2002 1.511 . S
C2005 H2019 0.961 . S
C2005 H2020 0.961 . S
C2005 H2021 0.961 . S
C2006 C2007 1.370 . S
C2006 C2008 1.363 . S
C2006 H2022 0.931 . S
C2007 C2006 1.370 . S
C2007 C2011 1.408 . S
C2008 C2006 1.363 . S
C2008 C2009 1.370 . S
C2008 C2012 1.524 . S
C2009 C2001 1.503 . S
C2009 C2008 1.370 . S
C2009 C2010 1.403 . S
C2010 C2009 1.403 . S
C2010 C2011 1.404 . S
C2010 C2013 1.539 . S
C2011 C2007 1.408 . S
C2011 C2010 1.404 . S
C2011 H2023 0.930 . S
C2012 C2008 1.524 . S
C2012 H2024 0.956 . S
C2012 H2025 0.961 . S
C2012 H2026 0.961 . S
C2013 C2010 1.539 . S
C2013 H2027 0.958 . S
C2013 H2028 0.961 . S
C2013 H2029 0.960 . S
H2014 C1998 0.931 . S
H2015 C2003 0.929 . S
H2016 C2004 0.960 . S
H2017 C2004 0.962 . S
H2018 C2004 0.960 . S
H2019 C2005 0.961 . S
H2020 C2005 0.961 . S
H2021 C2005 0.961 . S
H2022 C2006 0.931 . S
H2023 C2011 0.930 . S
H2024 C2012 0.956 . S
H2025 C2012 0.961 . S
H2026 C2012 0.961 . S
H2027 C2013 0.958 . S
H2028 C2013 0.961 . S
H2029 C2013 0.960 . S
C2030 C2031 1.391 . S
C2030 C2032 1.394 . S
C2030 H2046 0.931 . S
C2031 C2030 1.391 . S
C2031 C2035 1.376 . S
C2032 C2030 1.394 . S
C2032 C2033 1.369 . S
C2032 C2036 1.531 . S
C2033 C2032 1.369 . S
C2033 C2034 1.410 . S
C2033 C2041 1.503 . S
C2034 C2033 1.410 . S
C2034 C2035 1.392 . S
C2034 C2037 1.511 . S
C2035 C2031 1.376 . S
C2035 C2034 1.392 . S
C2035 H2047 0.929 . S
C2036 C2032 1.531 . S
C2036 H2048 0.960 . S
C2036 H2049 0.962 . S
C2036 H2050 0.960 . S
C2037 C2034 1.511 . S
C2037 H2051 0.961 . S
C2037 H2052 0.961 . S
C2037 H2053 0.961 . S
C2038 C2039 1.370 . S
C2038 C2040 1.363 . S
C2038 H2054 0.931 . S
C2039 C2038 1.370 . S
C2039 C2043 1.408 . S
C2040 C2038 1.363 . S
C2040 C2041 1.370 . S
C2040 C2044 1.524 . S
C2041 C2033 1.503 . S
C2041 C2040 1.370 . S
C2041 C2042 1.403 . S
C2042 C2041 1.403 . S
C2042 C2043 1.404 . S
C2042 C2045 1.539 . S
C2043 C2039 1.408 . S
C2043 C2042 1.404 . S
C2043 H2055 0.930 . S
C2044 C2040 1.524 . S
C2044 H2056 0.956 . S
C2044 H2057 0.961 . S
C2044 H2058 0.961 . S
C2045 C2042 1.539 . S
C2045 H2059 0.958 . S
C2045 H2060 0.961 . S
C2045 H2061 0.960 . S
H2046 C2030 0.931 . S
H2047 C2035 0.929 . S
H2048 C2036 0.960 . S
H2049 C2036 0.962 . S
H2050 C2036 0.960 . S
H2051 C2037 0.961 . S
H2052 C2037 0.961 . S
H2053 C2037 0.961 . S
H2054 C2038 0.931 . S
H2055 C2043 0.930 . S
H2056 C2044 0.956 . S
H2057 C2044 0.961 . S
H2058 C2044 0.961 . S
H2059 C2045 0.958 . S
H2060 C2045 0.961 . S
H2061 C2045 0.960 . S
C2062 C2063 1.391 . S
C2062 C2064 1.394 . S
C2062 H2078 0.931 . S
C2063 C2062 1.391 . S
C2063 C2067 1.376 . S
C2064 C2062 1.394 . S
C2064 C2065 1.369 . S
C2064 C2068 1.531 . S
C2065 C2064 1.369 . S
C2065 C2066 1.410 . S
C2065 C2073 1.503 . S
C2066 C2065 1.410 . S
C2066 C2067 1.392 . S
C2066 C2069 1.511 . S
C2067 C2063 1.376 . S
C2067 C2066 1.392 . S
C2067 H2079 0.929 . S
C2068 C2064 1.531 . S
C2068 H2080 0.960 . S
C2068 H2081 0.962 . S
C2068 H2082 0.960 . S
C2069 C2066 1.511 . S
C2069 H2083 0.961 . S
C2069 H2084 0.961 . S
C2069 H2085 0.961 . S
C2070 C2071 1.370 . S
C2070 C2072 1.363 . S
C2070 H2086 0.931 . S
C2071 C2070 1.370 . S
C2071 C2075 1.408 . S
C2072 C2070 1.363 . S
C2072 C2073 1.370 . S
C2072 C2076 1.524 . S
C2073 C2065 1.503 . S
C2073 C2072 1.370 . S
C2073 C2074 1.403 . S
C2074 C2073 1.403 . S
C2074 C2075 1.404 . S
C2074 C2077 1.539 . S
C2075 C2071 1.408 . S
C2075 C2074 1.404 . S
C2075 H2087 0.930 . S
C2076 C2072 1.524 . S
C2076 H2088 0.956 . S
C2076 H2089 0.961 . S
C2076 H2090 0.961 . S
C2077 C2074 1.539 . S
C2077 H2091 0.958 . S
C2077 H2092 0.961 . S
C2077 H2093 0.960 . S
H2078 C2062 0.931 . S
H2079 C2067 0.929 . S
H2080 C2068 0.960 . S
H2081 C2068 0.962 . S
H2082 C2068 0.960 . S
H2083 C2069 0.961 . S
H2084 C2069 0.961 . S
H2085 C2069 0.961 . S
H2086 C2070 0.931 . S
H2087 C2075 0.930 . S
H2088 C2076 0.956 . S
H2089 C2076 0.961 . S
H2090 C2076 0.961 . S
H2091 C2077 0.958 . S
H2092 C2077 0.961 . S
H2093 C2077 0.960 . S
C2094 C2095 1.391 . S
C2094 C2096 1.394 . S
C2094 H2110 0.931 . S
C2095 C2094 1.391 . S
C2095 C2099 1.376 . S
C2096 C2094 1.394 . S
C2096 C2097 1.369 . S
C2096 C2100 1.531 . S
C2097 C2096 1.369 . S
C2097 C2098 1.410 . S
C2097 C2105 1.503 . S
C2098 C2097 1.410 . S
C2098 C2099 1.392 . S
C2098 C2101 1.511 . S
C2099 C2095 1.376 . S
C2099 C2098 1.392 . S
C2099 H2111 0.929 . S
C2100 C2096 1.531 . S
C2100 H2112 0.960 . S
C2100 H2113 0.962 . S
C2100 H2114 0.960 . S
C2101 C2098 1.511 . S
C2101 H2115 0.961 . S
C2101 H2116 0.961 . S
C2101 H2117 0.961 . S
C2102 C2103 1.370 . S
C2102 C2104 1.363 . S
C2102 H2118 0.931 . S
C2103 C2102 1.370 . S
C2103 C2107 1.408 . S
C2104 C2102 1.363 . S
C2104 C2105 1.370 . S
C2104 C2108 1.524 . S
C2105 C2097 1.503 . S
C2105 C2104 1.370 . S
C2105 C2106 1.403 . S
C2106 C2105 1.403 . S
C2106 C2107 1.404 . S
C2106 C2109 1.539 . S
C2107 C2103 1.408 . S
C2107 C2106 1.404 . S
C2107 H2119 0.930 . S
C2108 C2104 1.524 . S
C2108 H2120 0.956 . S
C2108 H2121 0.961 . S
C2108 H2122 0.961 . S
C2109 C2106 1.539 . S
C2109 H2123 0.958 . S
C2109 H2124 0.961 . S
C2109 H2125 0.960 . S
H2110 C2094 0.931 . S
H2111 C2099 0.929 . S
H2112 C2100 0.960 . S
H2113 C2100 0.962 . S
H2114 C2100 0.960 . S
H2115 C2101 0.961 . S
H2116 C2101 0.961 . S
H2117 C2101 0.961 . S
H2118 C2102 0.931 . S
H2119 C2107 0.930 . S
H2120 C2108 0.956 . S
H2121 C2108 0.961 . S
H2122 C2108 0.961 . S
H2123 C2109 0.958 . S
H2124 C2109 0.961 . S
H2125 C2109 0.960 . S
C2126 C2127 1.391 . S
C2126 C2128 1.394 . S
C2126 H2142 0.931 . S
C2127 C2126 1.391 . S
C2127 C2131 1.376 . S
C2128 C2126 1.394 . S
C2128 C2129 1.369 . S
C2128 C2132 1.531 . S
C2129 C2128 1.369 . S
C2129 C2130 1.410 . S
C2129 C2137 1.503 . S
C2130 C2129 1.410 . S
C2130 C2131 1.392 . S
C2130 C2133 1.511 . S
C2131 C2127 1.376 . S
C2131 C2130 1.392 . S
C2131 H2143 0.929 . S
C2132 C2128 1.531 . S
C2132 H2144 0.960 . S
C2132 H2145 0.962 . S
C2132 H2146 0.960 . S
C2133 C2130 1.511 . S
C2133 H2147 0.961 . S
C2133 H2148 0.961 . S
C2133 H2149 0.961 . S
C2134 C2135 1.370 . S
C2134 C2136 1.363 . S
C2134 H2150 0.931 . S
C2135 C2134 1.370 . S
C2135 C2139 1.408 . S
C2136 C2134 1.363 . S
C2136 C2137 1.370 . S
C2136 C2140 1.524 . S
C2137 C2129 1.503 . S
C2137 C2136 1.370 . S
C2137 C2138 1.403 . S
C2138 C2137 1.403 . S
C2138 C2139 1.404 . S
C2138 C2141 1.539 . S
C2139 C2135 1.408 . S
C2139 C2138 1.404 . S
C2139 H2151 0.930 . S
C2140 C2136 1.524 . S
C2140 H2152 0.956 . S
C2140 H2153 0.961 . S
C2140 H2154 0.961 . S
C2141 C2138 1.539 . S
C2141 H2155 0.958 . S
C2141 H2156 0.961 . S
C2141 H2157 0.960 . S
H2142 C2126 0.931 . S
H2143 C2131 0.929 . S
H2144 C2132 0.960 . S
H2145 C2132 0.962 . S
H2146 C2132 0.960 . S
H2147 C2133 0.961 . S
H2148 C2133 0.961 . S
H2149 C2133 0.961 . S
H2150 C2134 0.931 . S
H2151 C2139 0.930 . S
H2152 C2140 0.956 . S
H2153 C2140 0.961 . S
H2154 C2140 0.961 . S
H2155 C2141 0.958 . S
H2156 C2141 0.961 . S
H2157 C2141 0.960 . S
C2158 C2159 1.391 . S
C2158 C2160 1.394 . S
C2158 H2174 0.931 . S
C2159 C2158 1.391 . S
C2159 C2163 1.376 . S
C2160 C2158 1.394 . S
C2160 C2161 1.369 . S
C2160 C2164 1.531 . S
C2161 C2160 1.369 . S
C2161 C2162 1.410 . S
C2161 C2169 1.503 . S
C2162 C2161 1.410 . S
C2162 C2163 1.392 . S
C2162 C2165 1.511 . S
C2163 C2159 1.376 . S
C2163 C2162 1.392 . S
C2163 H2175 0.929 . S
C2164 C2160 1.531 . S
C2164 H2176 0.960 . S
C2164 H2177 0.962 . S
C2164 H2178 0.960 . S
C2165 C2162 1.511 . S
C2165 H2179 0.961 . S
C2165 H2180 0.961 . S
C2165 H2181 0.961 . S
C2166 C2167 1.370 . S
C2166 C2168 1.363 . S
C2166 H2182 0.931 . S
C2167 C2166 1.370 . S
C2167 C2171 1.408 . S
C2168 C2166 1.363 . S
C2168 C2169 1.370 . S
C2168 C2172 1.524 . S
C2169 C2161 1.503 . S
C2169 C2168 1.370 . S
C2169 C2170 1.403 . S
C2170 C2169 1.403 . S
C2170 C2171 1.404 . S
C2170 C2173 1.539 . S
C2171 C2167 1.408 . S
C2171 C2170 1.404 . S
C2171 H2183 0.930 . S
C2172 C2168 1.524 . S
C2172 H2184 0.956 . S
C2172 H2185 0.961 . S
C2172 H2186 0.961 . S
C2173 C2170 1.539 . S
C2173 H2187 0.958 . S
C2173 H2188 0.961 . S
C2173 H2189 0.960 . S
H2174 C2158 0.931 . S
H2175 C2163 0.929 . S
H2176 C2164 0.960 . S
H2177 C2164 0.962 . S
H2178 C2164 0.960 . S
H2179 C2165 0.961 . S
H2180 C2165 0.961 . S
H2181 C2165 0.961 . S
H2182 C2166 0.931 . S
H2183 C2171 0.930 . S
H2184 C2172 0.956 . S
H2185 C2172 0.961 . S
H2186 C2172 0.961 . S
H2187 C2173 0.958 . S
H2188 C2173 0.961 . S
H2189 C2173 0.960 . S
C2190 C2191 1.391 . S
C2190 C2192 1.394 . S
C2190 H2206 0.931 . S
C2191 C2190 1.391 . S
C2191 C2195 1.376 1_455 S
C2192 C2190 1.394 . S
C2192 C2193 1.369 . S
C2192 C2196 1.531 . S
C2193 C2192 1.369 . S
C2193 C2194 1.410 1_455 S
C2193 C2201 1.503 . S
C2194 C2193 1.410 1_655 S
C2194 C2195 1.392 . S
C2194 C2197 1.511 . S
C2195 C2191 1.376 1_655 S
C2195 C2194 1.392 . S
C2195 H2207 0.929 . S
C2196 C2192 1.531 . S
C2196 H2208 0.960 . S
C2196 H2209 0.962 . S
C2196 H2210 0.960 . S
C2197 C2194 1.511 . S
C2197 H2211 0.961 . S
C2197 H2212 0.961 . S
C2197 H2213 0.961 . S
C2198 C2199 1.370 . S
C2198 C2200 1.363 . S
C2198 H2214 0.931 . S
C2199 C2198 1.370 . S
C2199 C2203 1.408 . S
C2200 C2198 1.363 . S
C2200 C2201 1.370 . S
C2200 C2204 1.524 . S
C2201 C2193 1.503 . S
C2201 C2200 1.370 . S
C2201 C2202 1.403 . S
C2202 C2201 1.403 . S
C2202 C2203 1.404 . S
C2202 C2205 1.543 1_455 S
C2203 C2199 1.408 . S
C2203 C2202 1.404 . S
C2203 H2215 0.930 . S
C2204 C2200 1.524 . S
C2204 H2216 0.956 . S
C2204 H2217 0.961 . S
C2204 H2218 0.961 . S
C2205 C2202 1.543 1_655 S
C2205 H2219 0.917 1_655 S
C2205 H2220 1.002 . S
C2205 H2221 0.959 . S
H2206 C2190 0.931 . S
H2207 C2195 0.929 . S
H2208 C2196 0.960 . S
H2209 C2196 0.962 . S
H2210 C2196 0.960 . S
H2211 C2197 0.961 . S
H2212 C2197 0.961 . S
H2213 C2197 0.961 . S
H2214 C2198 0.931 . S
H2215 C2203 0.930 . S
H2216 C2204 0.956 . S
H2217 C2204 0.961 . S
H2218 C2204 0.961 . S
H2219 C2205 0.917 1_455 S
H2220 C2205 1.002 . S
H2221 C2205 0.959 . S
C2222 C2223 1.391 . S
C2222 C2224 1.394 . S
C2222 H2238 0.931 . S
C2223 C2222 1.391 . S
C2223 C2227 1.376 . S
C2224 C2222 1.394 . S
C2224 C2225 1.369 . S
C2224 C2228 1.531 . S
C2225 C2224 1.369 . S
C2225 C2226 1.410 . S
C2225 C2233 1.503 . S
C2226 C2225 1.410 . S
C2226 C2227 1.392 . S
C2226 C2229 1.511 . S
C2227 C2223 1.376 . S
C2227 C2226 1.392 . S
C2227 H2239 0.929 . S
C2228 C2224 1.531 . S
C2228 H2240 0.960 . S
C2228 H2241 0.962 . S
C2228 H2242 0.960 . S
C2229 C2226 1.511 . S
C2229 H2243 0.961 . S
C2229 H2244 0.961 . S
C2229 H2245 0.961 . S
C2230 C2231 1.370 . S
C2230 C2232 1.363 . S
C2230 H2246 0.931 . S
C2231 C2230 1.370 . S
C2231 C2235 1.408 . S
C2232 C2230 1.363 . S
C2232 C2233 1.370 . S
C2232 C2236 1.524 . S
C2233 C2225 1.503 . S
C2233 C2232 1.370 . S
C2233 C2234 1.403 . S
C2234 C2233 1.403 . S
C2234 C2235 1.404 . S
C2234 C2237 1.539 . S
C2235 C2231 1.408 . S
C2235 C2234 1.404 . S
C2235 H2247 0.930 . S
C2236 C2232 1.524 . S
C2236 H2248 0.956 . S
C2236 H2249 0.961 . S
C2236 H2250 0.961 . S
C2237 C2234 1.539 . S
C2237 H2251 0.958 . S
C2237 H2252 0.961 . S
C2237 H2253 0.960 . S
H2238 C2222 0.931 . S
H2239 C2227 0.929 . S
H2240 C2228 0.960 . S
H2241 C2228 0.962 . S
H2242 C2228 0.960 . S
H2243 C2229 0.961 . S
H2244 C2229 0.961 . S
H2245 C2229 0.961 . S
H2246 C2230 0.931 . S
H2247 C2235 0.930 . S
H2248 C2236 0.956 . S
H2249 C2236 0.961 . S
H2250 C2236 0.961 . S
H2251 C2237 0.958 . S
H2252 C2237 0.961 . S
H2253 C2237 0.960 . S
C2254 C2255 1.391 1_545 S
C2254 C2256 1.394 . S
C2254 H2270 0.931 . S
C2255 C2254 1.391 1_565 S
C2255 C2259 1.376 . S
C2256 C2254 1.394 . S
C2256 C2257 1.369 1_545 S
C2256 C2260 1.531 . S
C2257 C2256 1.369 1_565 S
C2257 C2258 1.410 . S
C2257 C2265 1.503 . S
C2258 C2257 1.410 . S
C2258 C2259 1.392 . S
C2258 C2261 1.511 . S
C2259 C2255 1.376 . S
C2259 C2258 1.392 . S
C2259 H2271 0.929 . S
C2260 C2256 1.531 . S
C2260 H2272 0.960 . S
C2260 H2273 0.962 . S
C2260 H2274 0.960 . S
C2261 C2258 1.511 . S
C2261 H2275 0.961 . S
C2261 H2276 0.961 . S
C2261 H2277 0.961 . S
C2262 C2263 1.370 . S
C2262 C2264 1.363 . S
C2262 H2278 0.931 . S
C2263 C2262 1.370 . S
C2263 C2267 1.408 1_565 S
C2264 C2262 1.363 . S
C2264 C2265 1.370 . S
C2264 C2268 1.524 . S
C2265 C2257 1.503 . S
C2265 C2264 1.370 . S
C2265 C2266 1.403 1_565 S
C2266 C2265 1.403 1_545 S
C2266 C2267 1.404 . S
C2266 C2269 1.539 . S
C2267 C2263 1.408 1_545 S
C2267 C2266 1.404 . S
C2267 H2279 0.930 . S
C2268 C2264 1.524 . S
C2268 H2280 0.956 . S
C2268 H2281 0.961 . S
C2268 H2282 0.961 . S
C2269 C2266 1.539 . S
C2269 H2283 0.958 . S
C2269 H2284 0.961 . S
C2269 H2285 0.960 . S
H2270 C2254 0.931 . S
H2271 C2259 0.929 . S
H2272 C2260 0.960 . S
H2273 C2260 0.962 . S
H2274 C2260 0.960 . S
H2275 C2261 0.961 . S
H2276 C2261 0.961 . S
H2277 C2261 0.961 . S
H2278 C2262 0.931 . S
H2279 C2267 0.930 . S
H2280 C2268 0.956 . S
H2281 C2268 0.961 . S
H2282 C2268 0.961 . S
H2283 C2269 0.958 . S
H2284 C2269 0.961 . S
H2285 C2269 0.960 . S
C2286 C2287 1.391 . S
C2286 C2288 1.394 . S
C2286 H2302 0.931 . S
C2287 C2286 1.391 . S
C2287 C2291 1.376 1_565 S
C2288 C2286 1.394 . S
C2288 C2289 1.368 1_565 S
C2288 C2292 1.531 . S
C2289 C2288 1.368 1_545 S
C2289 C2290 1.409 . S
C2289 C2297 1.499 . S
C2290 C2289 1.409 . S
C2290 C2291 1.392 . S
C2290 C2293 1.511 . S
C2291 C2287 1.376 1_545 S
C2291 C2290 1.392 . S
C2291 H2303 0.929 . S
C2292 C2288 1.531 . S
C2292 H2304 0.960 . S
C2292 H2305 0.962 . S
C2292 H2306 0.960 . S
C2293 C2290 1.511 . S
C2293 H2307 0.961 . S
C2293 H2308 0.961 . S
C2293 H2309 0.961 . S
C2294 C2295 1.361 1_565 S
C2294 C2296 1.363 . S
C2294 H2310 0.931 . S
C2295 C2294 1.361 1_545 S
C2295 C2299 1.413 . S
C2296 C2294 1.363 . S
C2296 C2297 1.364 1_565 S
C2296 C2300 1.524 . S
C2297 C2289 1.499 . S
C2297 C2296 1.364 1_545 S
C2297 C2298 1.415 . S
C2298 C2297 1.415 . S
C2298 C2299 1.404 . S
C2298 C2301 1.539 . S
C2299 C2295 1.413 . S
C2299 C2298 1.404 . S
C2299 H2311 0.930 . S
C2300 C2296 1.524 . S
C2300 H2312 0.956 . S
C2300 H2313 0.961 . S
C2300 H2314 0.961 . S
C2301 C2298 1.539 . S
C2301 H2315 0.958 . S
C2301 H2316 0.961 . S
C2301 H2317 0.960 . S
H2302 C2286 0.931 . S
H2303 C2291 0.929 . S
H2304 C2292 0.960 . S
H2305 C2292 0.962 . S
H2306 C2292 0.960 . S
H2307 C2293 0.961 . S
H2308 C2293 0.961 . S
H2309 C2293 0.961 . S
H2310 C2294 0.931 . S
H2311 C2299 0.930 . S
H2312 C2300 0.956 . S
H2313 C2300 0.961 . S
H2314 C2300 0.961 . S
H2315 C2301 0.958 . S
H2316 C2301 0.961 . S
H2317 C2301 0.960 . S
C2318 C2319 1.391 . S
C2318 C2320 1.394 . S
C2318 H2334 0.931 . S
C2319 C2318 1.391 . S
C2319 C2323 1.376 1_455 S
C2320 C2318 1.394 . S
C2320 C2321 1.369 . S
C2320 C2324 1.531 . S
C2321 C2320 1.369 . S
C2321 C2322 1.410 1_455 S
C2321 C2329 1.503 . S
C2322 C2321 1.410 1_655 S
C2322 C2323 1.392 . S
C2322 C2325 1.511 . S
C2323 C2319 1.376 1_655 S
C2323 C2322 1.392 . S
C2323 H2335 0.929 . S
C2324 C2320 1.531 . S
C2324 H2336 0.960 . S
C2324 H2337 0.962 . S
C2324 H2338 0.960 . S
C2325 C2322 1.511 . S
C2325 H2339 0.961 . S
C2325 H2340 0.961 . S
C2325 H2341 0.961 . S
C2326 C2327 1.370 . S
C2326 C2328 1.363 . S
C2326 H2342 0.931 . S
C2327 C2326 1.370 . S
C2327 C2331 1.408 . S
C2328 C2326 1.363 . S
C2328 C2329 1.370 . S
C2328 C2332 1.524 . S
C2329 C2321 1.503 . S
C2329 C2328 1.370 . S
C2329 C2330 1.403 . S
C2330 C2329 1.403 . S
C2330 C2331 1.404 . S
C2330 C2333 1.539 . S
C2331 C2327 1.408 . S
C2331 C2330 1.404 . S
C2331 H2343 0.930 . S
C2332 C2328 1.524 . S
C2332 H2344 0.956 . S
C2332 H2345 0.961 . S
C2332 H2346 0.961 . S
C2333 C2330 1.539 . S
C2333 H2347 0.958 . S
C2333 H2348 0.961 1_455 S
C2333 H2349 0.960 1_455 S
H2334 C2318 0.931 . S
H2335 C2323 0.929 . S
H2336 C2324 0.960 . S
H2337 C2324 0.962 . S
H2338 C2324 0.960 . S
H2339 C2325 0.961 . S
H2340 C2325 0.961 . S
H2341 C2325 0.961 . S
H2342 C2326 0.931 . S
H2343 C2331 0.930 . S
H2344 C2332 0.956 . S
H2345 C2332 0.961 . S
H2346 C2332 0.961 . S
H2347 C2333 0.958 . S
H2348 C2333 0.961 1_655 S
H2349 C2333 0.960 1_655 S
C2350 C2351 1.391 . S
C2350 C2352 1.394 . S
C2350 H2366 0.931 . S
C2351 C2350 1.391 . S
C2351 C2355 1.376 . S
C2352 C2350 1.394 . S
C2352 C2353 1.369 . S
C2352 C2356 1.531 . S
C2353 C2352 1.369 . S
C2353 C2354 1.410 . S
C2353 C2361 1.503 . S
C2354 C2353 1.410 . S
C2354 C2355 1.392 . S
C2354 C2357 1.511 . S
C2355 C2351 1.376 . S
C2355 C2354 1.392 . S
C2355 H2367 0.929 . S
C2356 C2352 1.531 . S
C2356 H2368 0.960 . S
C2356 H2369 0.962 . S
C2356 H2370 0.960 . S
C2357 C2354 1.511 . S
C2357 H2371 0.961 . S
C2357 H2372 0.961 . S
C2357 H2373 0.961 . S
C2358 C2359 1.370 . S
C2358 C2360 1.363 . S
C2358 H2374 0.931 . S
C2359 C2358 1.370 . S
C2359 C2363 1.408 . S
C2360 C2358 1.363 . S
C2360 C2361 1.370 . S
C2360 C2364 1.524 . S
C2361 C2353 1.503 . S
C2361 C2360 1.370 . S
C2361 C2362 1.403 . S
C2362 C2361 1.403 . S
C2362 C2363 1.404 . S
C2362 C2365 1.539 . S
C2363 C2359 1.408 . S
C2363 C2362 1.404 . S
C2363 H2375 0.930 . S
C2364 C2360 1.524 . S
C2364 H2376 0.956 . S
C2364 H2377 0.961 . S
C2364 H2378 0.961 . S
C2365 C2362 1.539 . S
C2365 H2379 0.958 . S
C2365 H2380 0.961 . S
C2365 H2381 0.960 . S
H2366 C2350 0.931 . S
H2367 C2355 0.929 . S
H2368 C2356 0.960 . S
H2369 C2356 0.962 . S
H2370 C2356 0.960 . S
H2371 C2357 0.961 . S
H2372 C2357 0.961 . S
H2373 C2357 0.961 . S
H2374 C2358 0.931 . S
H2375 C2363 0.930 . S
H2376 C2364 0.956 . S
H2377 C2364 0.961 . S
H2378 C2364 0.961 . S
H2379 C2365 0.958 . S
H2380 C2365 0.961 . S
H2381 C2365 0.960 . S
C2382 C2383 1.391 . S
C2382 C2384 1.394 . S
C2382 H2398 0.931 . S
C2383 C2382 1.391 . S
C2383 C2387 1.376 . S
C2384 C2382 1.394 . S
C2384 C2385 1.369 . S
C2384 C2388 1.531 . S
C2385 C2384 1.369 . S
C2385 C2386 1.410 . S
C2385 C2393 1.503 . S
C2386 C2385 1.410 . S
C2386 C2387 1.392 . S
C2386 C2389 1.511 . S
C2387 C2383 1.376 . S
C2387 C2386 1.392 . S
C2387 H2399 0.929 . S
C2388 C2384 1.531 . S
C2388 H2400 0.960 . S
C2388 H2401 0.962 . S
C2388 H2402 0.960 . S
C2389 C2386 1.511 . S
C2389 H2403 0.961 . S
C2389 H2404 0.961 . S
C2389 H2405 0.961 . S
C2390 C2391 1.370 . S
C2390 C2392 1.363 . S
C2390 H2406 0.931 . S
C2391 C2390 1.370 . S
C2391 C2395 1.408 . S
C2392 C2390 1.363 . S
C2392 C2393 1.370 . S
C2392 C2396 1.524 . S
C2393 C2385 1.503 . S
C2393 C2392 1.370 . S
C2393 C2394 1.403 . S
C2394 C2393 1.403 . S
C2394 C2395 1.404 . S
C2394 C2397 1.539 . S
C2395 C2391 1.408 . S
C2395 C2394 1.404 . S
C2395 H2407 0.930 . S
C2396 C2392 1.524 . S
C2396 H2408 0.956 . S
C2396 H2409 0.961 . S
C2396 H2410 0.961 . S
C2397 C2394 1.539 . S
C2397 H2411 0.958 . S
C2397 H2412 0.961 . S
C2397 H2413 0.960 . S
H2398 C2382 0.931 . S
H2399 C2387 0.929 . S
H2400 C2388 0.960 . S
H2401 C2388 0.962 . S
H2402 C2388 0.960 . S
H2403 C2389 0.961 . S
H2404 C2389 0.961 . S
H2405 C2389 0.961 . S
H2406 C2390 0.931 . S
H2407 C2395 0.930 . S
H2408 C2396 0.956 . S
H2409 C2396 0.961 . S
H2410 C2396 0.961 . S
H2411 C2397 0.958 . S
H2412 C2397 0.961 . S
H2413 C2397 0.960 . S
C2414 C2415 1.391 . S
C2414 C2416 1.394 . S
C2414 H2430 0.931 . S
C2415 C2414 1.391 . S
C2415 C2419 1.376 . S
C2416 C2414 1.394 . S
C2416 C2417 1.369 . S
C2416 C2420 1.531 . S
C2417 C2416 1.369 . S
C2417 C2418 1.410 . S
C2417 C2425 1.503 . S
C2418 C2417 1.410 . S
C2418 C2419 1.392 . S
C2418 C2421 1.511 . S
C2419 C2415 1.376 . S
C2419 C2418 1.392 . S
C2419 H2431 0.929 . S
C2420 C2416 1.531 . S
C2420 H2432 0.960 . S
C2420 H2433 0.962 . S
C2420 H2434 0.960 . S
C2421 C2418 1.511 . S
C2421 H2435 0.961 . S
C2421 H2436 0.961 . S
C2421 H2437 0.961 . S
C2422 C2423 1.370 . S
C2422 C2424 1.363 . S
C2422 H2438 0.931 . S
C2423 C2422 1.370 . S
C2423 C2427 1.408 . S
C2424 C2422 1.363 . S
C2424 C2425 1.370 . S
C2424 C2428 1.524 . S
C2425 C2417 1.503 . S
C2425 C2424 1.370 . S
C2425 C2426 1.403 . S
C2426 C2425 1.403 . S
C2426 C2427 1.404 . S
C2426 C2429 1.539 . S
C2427 C2423 1.408 . S
C2427 C2426 1.404 . S
C2427 H2439 0.930 . S
C2428 C2424 1.524 . S
C2428 H2440 0.956 . S
C2428 H2441 0.961 . S
C2428 H2442 0.961 . S
C2429 C2426 1.539 . S
C2429 H2443 0.958 . S
C2429 H2444 0.961 . S
C2429 H2445 0.960 . S
H2430 C2414 0.931 . S
H2431 C2419 0.929 . S
H2432 C2420 0.960 . S
H2433 C2420 0.962 . S
H2434 C2420 0.960 . S
H2435 C2421 0.961 . S
H2436 C2421 0.961 . S
H2437 C2421 0.961 . S
H2438 C2422 0.931 . S
H2439 C2427 0.930 . S
H2440 C2428 0.956 . S
H2441 C2428 0.961 . S
H2442 C2428 0.961 . S
H2443 C2429 0.958 . S
H2444 C2429 0.961 . S
H2445 C2429 0.960 . S
C2446 C2447 1.391 . S
C2446 C2448 1.394 . S
C2446 H2462 0.931 . S
C2447 C2446 1.391 . S
C2447 C2451 1.376 . S
C2448 C2446 1.394 . S
C2448 C2449 1.369 . S
C2448 C2452 1.531 . S
C2449 C2448 1.369 . S
C2449 C2450 1.410 . S
C2449 C2457 1.503 . S
C2450 C2449 1.410 . S
C2450 C2451 1.392 . S
C2450 C2453 1.511 . S
C2451 C2447 1.376 . S
C2451 C2450 1.392 . S
C2451 H2463 0.929 . S
C2452 C2448 1.531 . S
C2452 H2464 0.960 . S
C2452 H2465 0.962 . S
C2452 H2466 0.960 . S
C2453 C2450 1.511 . S
C2453 H2467 0.961 . S
C2453 H2468 0.961 . S
C2453 H2469 0.961 . S
C2454 C2455 1.370 . S
C2454 C2456 1.363 . S
C2454 H2470 0.931 . S
C2455 C2454 1.370 . S
C2455 C2459 1.408 . S
C2456 C2454 1.363 . S
C2456 C2457 1.370 . S
C2456 C2460 1.524 . S
C2457 C2449 1.503 . S
C2457 C2456 1.370 . S
C2457 C2458 1.403 . S
C2458 C2457 1.403 . S
C2458 C2459 1.404 . S
C2458 C2461 1.539 . S
C2459 C2455 1.408 . S
C2459 C2458 1.404 . S
C2459 H2471 0.930 . S
C2460 C2456 1.524 . S
C2460 H2472 0.956 . S
C2460 H2473 0.961 . S
C2460 H2474 0.961 . S
C2461 C2458 1.539 . S
C2461 H2475 0.958 . S
C2461 H2476 0.961 . S
C2461 H2477 0.960 . S
H2462 C2446 0.931 . S
H2463 C2451 0.929 . S
H2464 C2452 0.960 . S
H2465 C2452 0.962 . S
H2466 C2452 0.960 . S
H2467 C2453 0.961 . S
H2468 C2453 0.961 . S
H2469 C2453 0.961 . S
H2470 C2454 0.931 . S
H2471 C2459 0.930 . S
H2472 C2460 0.956 . S
H2473 C2460 0.961 . S
H2474 C2460 0.961 . S
H2475 C2461 0.958 . S
H2476 C2461 0.961 . S
H2477 C2461 0.960 . S
C2478 C2479 1.391 . S
C2478 C2480 1.394 . S
C2478 H2494 0.931 . S
C2479 C2478 1.391 . S
C2479 C2483 1.376 . S
C2480 C2478 1.394 . S
C2480 C2481 1.369 . S
C2480 C2484 1.531 . S
C2481 C2480 1.369 . S
C2481 C2482 1.410 . S
C2481 C2489 1.503 . S
C2482 C2481 1.410 . S
C2482 C2483 1.392 . S
C2482 C2485 1.511 . S
C2483 C2479 1.376 . S
C2483 C2482 1.392 . S
C2483 H2495 0.929 . S
C2484 C2480 1.531 . S
C2484 H2496 0.960 . S
C2484 H2497 0.962 . S
C2484 H2498 0.960 . S
C2485 C2482 1.511 . S
C2485 H2499 0.961 . S
C2485 H2500 0.961 . S
C2485 H2501 0.961 . S
C2486 C2487 1.355 1_565 S
C2486 C2488 1.316 1_565 S
C2486 H2502 0.965 . S
C2487 C2486 1.355 1_545 S
C2487 C2491 1.408 . S
C2488 C2486 1.316 1_545 S
C2488 C2489 1.432 . S
C2488 C2492 1.495 1_545 S
C2489 C2481 1.503 . S
C2489 C2488 1.432 . S
C2489 C2490 1.403 . S
C2490 C2489 1.403 . S
C2490 C2491 1.404 . S
C2490 C2493 1.539 . S
C2491 C2487 1.408 . S
C2491 C2490 1.404 . S
C2491 H2503 0.930 . S
C2492 C2488 1.495 1_565 S
C2492 H2504 0.956 . S
C2492 H2505 0.961 . S
C2492 H2506 0.961 . S
C2493 C2490 1.539 . S
C2493 H2507 0.958 . S
C2493 H2508 0.961 . S
C2493 H2509 0.960 . S
H2494 C2478 0.931 . S
H2495 C2483 0.929 . S
H2496 C2484 0.960 . S
H2497 C2484 0.962 . S
H2498 C2484 0.960 . S
H2499 C2485 0.961 . S
H2500 C2485 0.961 . S
H2501 C2485 0.961 . S
H2502 C2486 0.965 . S
H2503 C2491 0.930 . S
H2504 C2492 0.956 . S
H2505 C2492 0.961 . S
H2506 C2492 0.961 . S
H2507 C2493 0.958 . S
H2508 C2493 0.961 . S
H2509 C2493 0.960 . S
C2510 C2511 1.391 . S
C2510 C2512 1.394 . S
C2510 H2526 0.931 1_655 S
C2511 C2510 1.391 . S
C2511 C2515 1.376 . S
C2512 C2510 1.394 . S
C2512 C2513 1.369 . S
C2512 C2516 1.531 1_655 S
C2513 C2512 1.369 . S
C2513 C2514 1.410 . S
C2513 C2521 1.503 . S
C2514 C2513 1.410 . S
C2514 C2515 1.392 . S
C2514 C2517 1.511 . S
C2515 C2511 1.376 . S
C2515 C2514 1.392 . S
C2515 H2527 0.929 . S
C2516 C2512 1.531 1_455 S
C2516 H2528 0.910 1_455 S
C2516 H2529 0.962 . S
C2516 H2530 0.960 . S
C2517 C2514 1.511 . S
C2517 H2531 0.961 . S
C2517 H2532 0.961 . S
C2517 H2533 0.961 . S
C2518 C2519 1.370 1_455 S
C2518 C2520 1.363 . S
C2518 H2534 0.931 . S
C2519 C2518 1.370 1_655 S
C2519 C2523 1.408 . S
C2520 C2518 1.363 . S
C2520 C2521 1.370 1_455 S
C2520 C2524 1.524 . S
C2521 C2513 1.503 . S
C2521 C2520 1.370 1_655 S
C2521 C2522 1.403 . S
C2522 C2521 1.403 . S
C2522 C2523 1.404 . S
C2522 C2525 1.539 . S
C2523 C2519 1.408 . S
C2523 C2522 1.404 . S
C2523 H2535 0.930 . S
C2524 C2520 1.524 . S
C2524 H2536 0.956 . S
C2524 H2537 0.961 . S
C2524 H2538 0.961 . S
C2525 C2522 1.539 . S
C2525 H2539 0.958 . S
C2525 H2540 0.961 . S
C2525 H2541 0.960 . S
H2526 C2510 0.931 1_455 S
H2527 C2515 0.929 . S
H2528 C2516 0.910 1_655 S
H2529 C2516 0.962 . S
H2530 C2516 0.960 . S
H2531 C2517 0.961 . S
H2532 C2517 0.961 . S
H2533 C2517 0.961 . S
H2534 C2518 0.931 . S
H2535 C2523 0.930 . S
H2536 C2524 0.956 . S
H2537 C2524 0.961 . S
H2538 C2524 0.961 . S
H2539 C2525 0.958 . S
H2540 C2525 0.961 . S
H2541 C2525 0.960 . S
C2542 C2543 1.391 . S
C2542 C2544 1.394 . S
C2542 H2558 0.931 . S
C2543 C2542 1.391 . S
C2543 C2547 1.376 . S
C2544 C2542 1.394 . S
C2544 C2545 1.369 . S
C2544 C2548 1.531 . S
C2545 C2544 1.369 . S
C2545 C2546 1.410 . S
C2545 C2553 1.503 . S
C2546 C2545 1.410 . S
C2546 C2547 1.392 . S
C2546 C2549 1.511 . S
C2547 C2543 1.376 . S
C2547 C2546 1.392 . S
C2547 H2559 0.929 . S
C2548 C2544 1.531 . S
C2548 H2560 0.960 . S
C2548 H2561 0.962 . S
C2548 H2562 0.960 . S
C2549 C2546 1.511 . S
C2549 H2563 0.961 . S
C2549 H2564 0.961 . S
C2549 H2565 0.961 . S
C2550 C2551 1.370 . S
C2550 C2552 1.363 . S
C2550 H2566 0.931 . S
C2551 C2550 1.370 . S
C2551 C2555 1.408 . S
C2552 C2550 1.363 . S
C2552 C2553 1.370 . S
C2552 C2556 1.524 . S
C2553 C2545 1.503 . S
C2553 C2552 1.370 . S
C2553 C2554 1.403 . S
C2554 C2553 1.403 . S
C2554 C2555 1.404 . S
C2554 C2557 1.539 . S
C2555 C2551 1.408 . S
C2555 C2554 1.404 . S
C2555 H2567 0.930 . S
C2556 C2552 1.524 . S
C2556 H2568 0.956 . S
C2556 H2569 0.961 . S
C2556 H2570 0.961 . S
C2557 C2554 1.539 . S
C2557 H2571 0.958 . S
C2557 H2572 0.961 . S
C2557 H2573 0.960 . S
H2558 C2542 0.931 . S
H2559 C2547 0.929 . S
H2560 C2548 0.960 . S
H2561 C2548 0.962 . S
H2562 C2548 0.960 . S
H2563 C2549 0.961 . S
H2564 C2549 0.961 . S
H2565 C2549 0.961 . S
H2566 C2550 0.931 . S
H2567 C2555 0.930 . S
H2568 C2556 0.956 . S
H2569 C2556 0.961 . S
H2570 C2556 0.961 . S
H2571 C2557 0.958 . S
H2572 C2557 0.961 . S
H2573 C2557 0.960 . S
C2574 C2575 1.391 . S
C2574 C2576 1.394 . S
C2574 H2590 0.931 . S
C2575 C2574 1.391 . S
C2575 C2579 1.376 . S
C2576 C2574 1.394 . S
C2576 C2577 1.369 . S
C2576 C2580 1.531 . S
C2577 C2576 1.369 . S
C2577 C2578 1.410 . S
C2577 C2585 1.503 . S
C2578 C2577 1.410 . S
C2578 C2579 1.392 . S
C2578 C2581 1.511 . S
C2579 C2575 1.376 . S
C2579 C2578 1.392 . S
C2579 H2591 0.929 . S
C2580 C2576 1.531 . S
C2580 H2592 0.960 . S
C2580 H2593 0.962 . S
C2580 H2594 0.960 . S
C2581 C2578 1.511 . S
C2581 H2595 0.961 . S
C2581 H2596 0.961 . S
C2581 H2597 0.961 . S
C2582 C2583 1.370 . S
C2582 C2584 1.363 . S
C2582 H2598 0.931 . S
C2583 C2582 1.370 . S
C2583 C2587 1.408 . S
C2584 C2582 1.363 . S
C2584 C2585 1.370 . S
C2584 C2588 1.524 . S
C2585 C2577 1.503 . S
C2585 C2584 1.370 . S
C2585 C2586 1.403 . S
C2586 C2585 1.403 . S
C2586 C2587 1.404 . S
C2586 C2589 1.539 . S
C2587 C2583 1.408 . S
C2587 C2586 1.404 . S
C2587 H2599 0.930 . S
C2588 C2584 1.524 . S
C2588 H2600 0.956 . S
C2588 H2601 0.961 . S
C2588 H2602 0.961 . S
C2589 C2586 1.539 . S
C2589 H2603 0.958 . S
C2589 H2604 0.961 . S
C2589 H2605 0.960 . S
H2590 C2574 0.931 . S
H2591 C2579 0.929 . S
H2592 C2580 0.960 . S
H2593 C2580 0.962 . S
H2594 C2580 0.960 . S
H2595 C2581 0.961 . S
H2596 C2581 0.961 . S
H2597 C2581 0.961 . S
H2598 C2582 0.931 . S
H2599 C2587 0.930 . S
H2600 C2588 0.956 . S
H2601 C2588 0.961 . S
H2602 C2588 0.961 . S
H2603 C2589 0.958 . S
H2604 C2589 0.961 . S
H2605 C2589 0.960 . S
C2606 C2607 1.391 . S
C2606 C2608 1.394 . S
C2606 H2622 0.931 . S
C2607 C2606 1.391 . S
C2607 C2611 1.376 . S
C2608 C2606 1.394 . S
C2608 C2609 1.369 . S
C2608 C2612 1.531 . S
C2609 C2608 1.369 . S
C2609 C2610 1.410 . S
C2609 C2617 1.503 . S
C2610 C2609 1.410 . S
C2610 C2611 1.392 . S
C2610 C2613 1.511 . S
C2611 C2607 1.376 . S
C2611 C2610 1.392 . S
C2611 H2623 0.929 . S
C2612 C2608 1.531 . S
C2612 H2624 0.960 . S
C2612 H2625 0.962 . S
C2612 H2626 0.960 . S
C2613 C2610 1.511 . S
C2613 H2627 0.961 . S
C2613 H2628 0.961 . S
C2613 H2629 0.961 . S
C2614 C2615 1.370 . S
C2614 C2616 1.363 . S
C2614 H2630 0.931 . S
C2615 C2614 1.370 . S
C2615 C2619 1.408 . S
C2616 C2614 1.363 . S
C2616 C2617 1.370 . S
C2616 C2620 1.524 . S
C2617 C2609 1.503 . S
C2617 C2616 1.370 . S
C2617 C2618 1.403 . S
C2618 C2617 1.403 . S
C2618 C2619 1.404 . S
C2618 C2621 1.539 . S
C2619 C2615 1.408 . S
C2619 C2618 1.404 . S
C2619 H2631 0.930 . S
C2620 C2616 1.524 . S
C2620 H2632 0.956 . S
C2620 H2633 0.961 . S
C2620 H2634 0.961 . S
C2621 C2618 1.539 . S
C2621 H2635 0.958 . S
C2621 H2636 0.961 . S
C2621 H2637 0.960 . S
H2622 C2606 0.931 . S
H2623 C2611 0.929 . S
H2624 C2612 0.960 . S
H2625 C2612 0.962 . S
H2626 C2612 0.960 . S
H2627 C2613 0.961 . S
H2628 C2613 0.961 . S
H2629 C2613 0.961 . S
H2630 C2614 0.931 . S
H2631 C2619 0.930 . S
H2632 C2620 0.956 . S
H2633 C2620 0.961 . S
H2634 C2620 0.961 . S
H2635 C2621 0.958 . S
H2636 C2621 0.961 . S
H2637 C2621 0.960 . S
C2638 C2639 1.391 . S
C2638 C2640 1.394 . S
C2638 H2654 0.931 . S
C2639 C2638 1.391 . S
C2639 C2643 1.376 . S
C2640 C2638 1.394 . S
C2640 C2641 1.369 . S
C2640 C2644 1.531 . S
C2641 C2640 1.369 . S
C2641 C2642 1.410 . S
C2641 C2649 1.503 . S
C2642 C2641 1.410 . S
C2642 C2643 1.392 . S
C2642 C2645 1.511 . S
C2643 C2639 1.376 . S
C2643 C2642 1.392 . S
C2643 H2655 0.929 . S
C2644 C2640 1.531 . S
C2644 H2656 0.960 . S
C2644 H2657 0.962 . S
C2644 H2658 0.960 . S
C2645 C2642 1.511 . S
C2645 H2659 0.961 . S
C2645 H2660 0.961 . S
C2645 H2661 0.961 . S
C2646 C2647 1.370 . S
C2646 C2648 1.363 . S
C2646 H2662 0.931 . S
C2647 C2646 1.370 . S
C2647 C2651 1.408 . S
C2648 C2646 1.363 . S
C2648 C2649 1.370 . S
C2648 C2652 1.524 . S
C2649 C2641 1.503 . S
C2649 C2648 1.370 . S
C2649 C2650 1.403 . S
C2650 C2649 1.403 . S
C2650 C2651 1.404 . S
C2650 C2653 1.539 . S
C2651 C2647 1.408 . S
C2651 C2650 1.404 . S
C2651 H2663 0.930 . S
C2652 C2648 1.524 . S
C2652 H2664 0.956 . S
C2652 H2665 0.961 . S
C2652 H2666 0.961 . S
C2653 C2650 1.539 . S
C2653 H2667 0.958 . S
C2653 H2668 0.961 . S
C2653 H2669 0.960 . S
H2654 C2638 0.931 . S
H2655 C2643 0.929 . S
H2656 C2644 0.960 . S
H2657 C2644 0.962 . S
H2658 C2644 0.960 . S
H2659 C2645 0.961 . S
H2660 C2645 0.961 . S
H2661 C2645 0.961 . S
H2662 C2646 0.931 . S
H2663 C2651 0.930 . S
H2664 C2652 0.956 . S
H2665 C2652 0.961 . S
H2666 C2652 0.961 . S
H2667 C2653 0.958 . S
H2668 C2653 0.961 . S
H2669 C2653 0.960 . S
C2670 C2671 1.391 . S
C2670 C2672 1.394 . S
C2670 H2686 0.931 . S
C2671 C2670 1.391 . S
C2671 C2675 1.376 . S
C2672 C2670 1.394 . S
C2672 C2673 1.369 . S
C2672 C2676 1.531 . S
C2673 C2672 1.369 . S
C2673 C2674 1.410 . S
C2673 C2681 1.503 . S
C2674 C2673 1.410 . S
C2674 C2675 1.392 . S
C2674 C2677 1.511 . S
C2675 C2671 1.376 . S
C2675 C2674 1.392 . S
C2675 H2687 0.929 . S
C2676 C2672 1.531 . S
C2676 H2688 0.960 . S
C2676 H2689 0.962 . S
C2676 H2690 0.960 . S
C2677 C2674 1.511 . S
C2677 H2691 0.961 . S
C2677 H2692 0.961 . S
C2677 H2693 0.961 . S
C2678 C2679 1.370 . S
C2678 C2680 1.363 . S
C2678 H2694 0.931 . S
C2679 C2678 1.370 . S
C2679 C2683 1.408 . S
C2680 C2678 1.363 . S
C2680 C2681 1.370 . S
C2680 C2684 1.524 . S
C2681 C2673 1.503 . S
C2681 C2680 1.370 . S
C2681 C2682 1.403 . S
C2682 C2681 1.403 . S
C2682 C2683 1.404 . S
C2682 C2685 1.539 . S
C2683 C2679 1.408 . S
C2683 C2682 1.404 . S
C2683 H2695 0.930 . S
C2684 C2680 1.524 . S
C2684 H2696 0.956 . S
C2684 H2697 0.961 . S
C2684 H2698 0.961 . S
C2685 C2682 1.539 . S
C2685 H2699 0.958 . S
C2685 H2700 0.961 . S
C2685 H2701 0.960 . S
H2686 C2670 0.931 . S
H2687 C2675 0.929 . S
H2688 C2676 0.960 . S
H2689 C2676 0.962 . S
H2690 C2676 0.960 . S
H2691 C2677 0.961 . S
H2692 C2677 0.961 . S
H2693 C2677 0.961 . S
H2694 C2678 0.931 . S
H2695 C2683 0.930 . S
H2696 C2684 0.956 . S
H2697 C2684 0.961 . S
H2698 C2684 0.961 . S
H2699 C2685 0.958 . S
H2700 C2685 0.961 . S
H2701 C2685 0.960 . S
C2702 C2703 1.391 . S
C2702 C2704 1.394 . S
C2702 H2718 0.931 . S
C2703 C2702 1.391 . S
C2703 C2707 1.376 . S
C2704 C2702 1.394 . S
C2704 C2705 1.369 . S
C2704 C2708 1.531 . S
C2705 C2704 1.369 . S
C2705 C2706 1.410 . S
C2705 C2713 1.503 . S
C2706 C2705 1.410 . S
C2706 C2707 1.392 . S
C2706 C2709 1.511 . S
C2707 C2703 1.376 . S
C2707 C2706 1.392 . S
C2707 H2719 0.929 . S
C2708 C2704 1.531 . S
C2708 H2720 0.960 . S
C2708 H2721 0.962 . S
C2708 H2722 0.960 . S
C2709 C2706 1.511 . S
C2709 H2723 0.961 . S
C2709 H2724 0.961 . S
C2709 H2725 0.961 . S
C2710 C2711 1.370 . S
C2710 C2712 1.363 . S
C2710 H2726 0.931 . S
C2711 C2710 1.370 . S
C2711 C2715 1.408 . S
C2712 C2710 1.363 . S
C2712 C2713 1.370 . S
C2712 C2716 1.524 . S
C2713 C2705 1.503 . S
C2713 C2712 1.370 . S
C2713 C2714 1.403 . S
C2714 C2713 1.403 . S
C2714 C2715 1.404 . S
C2714 C2717 1.539 . S
C2715 C2711 1.408 . S
C2715 C2714 1.404 . S
C2715 H2727 0.930 . S
C2716 C2712 1.524 . S
C2716 H2728 0.956 . S
C2716 H2729 0.961 . S
C2716 H2730 0.961 . S
C2717 C2714 1.539 . S
C2717 H2731 0.958 . S
C2717 H2732 0.961 . S
C2717 H2733 0.960 . S
H2718 C2702 0.931 . S
H2719 C2707 0.929 . S
H2720 C2708 0.960 . S
H2721 C2708 0.962 . S
H2722 C2708 0.960 . S
H2723 C2709 0.961 . S
H2724 C2709 0.961 . S
H2725 C2709 0.961 . S
H2726 C2710 0.931 . S
H2727 C2715 0.930 . S
H2728 C2716 0.956 . S
H2729 C2716 0.961 . S
H2730 C2716 0.961 . S
H2731 C2717 0.958 . S
H2732 C2717 0.961 . S
H2733 C2717 0.960 . S
C2734 C2735 1.391 . S
C2734 C2736 1.394 . S
C2734 H2750 0.931 . S
C2735 C2734 1.391 . S
C2735 C2739 1.376 . S
C2736 C2734 1.394 . S
C2736 C2737 1.369 . S
C2736 C2740 1.531 . S
C2737 C2736 1.369 . S
C2737 C2738 1.410 . S
C2737 C2745 1.503 . S
C2738 C2737 1.410 . S
C2738 C2739 1.392 . S
C2738 C2741 1.511 . S
C2739 C2735 1.376 . S
C2739 C2738 1.392 . S
C2739 H2751 0.929 . S
C2740 C2736 1.531 . S
C2740 H2752 0.960 . S
C2740 H2753 0.962 . S
C2740 H2754 0.960 . S
C2741 C2738 1.511 . S
C2741 H2755 0.961 . S
C2741 H2756 0.961 . S
C2741 H2757 0.961 . S
C2742 C2743 1.370 . S
C2742 C2744 1.363 . S
C2742 H2758 0.931 . S
C2743 C2742 1.370 . S
C2743 C2747 1.408 . S
C2744 C2742 1.363 . S
C2744 C2745 1.370 . S
C2744 C2748 1.524 . S
C2745 C2737 1.503 . S
C2745 C2744 1.370 . S
C2745 C2746 1.403 . S
C2746 C2745 1.403 . S
C2746 C2747 1.404 . S
C2746 C2749 1.539 . S
C2747 C2743 1.408 . S
C2747 C2746 1.404 . S
C2747 H2759 0.930 . S
C2748 C2744 1.524 . S
C2748 H2760 0.956 . S
C2748 H2761 0.961 . S
C2748 H2762 0.961 . S
C2749 C2746 1.539 . S
C2749 H2763 0.958 . S
C2749 H2764 0.961 . S
C2749 H2765 0.960 . S
H2750 C2734 0.931 . S
H2751 C2739 0.929 . S
H2752 C2740 0.960 . S
H2753 C2740 0.962 . S
H2754 C2740 0.960 . S
H2755 C2741 0.961 . S
H2756 C2741 0.961 . S
H2757 C2741 0.961 . S
H2758 C2742 0.931 . S
H2759 C2747 0.930 . S
H2760 C2748 0.956 . S
H2761 C2748 0.961 . S
H2762 C2748 0.961 . S
H2763 C2749 0.958 . S
H2764 C2749 0.961 . S
H2765 C2749 0.960 . S
C2766 C2767 1.391 . S
C2766 C2768 1.394 . S
C2766 H2782 0.931 . S
C2767 C2766 1.391 . S
C2767 C2771 1.376 1_655 S
C2768 C2766 1.394 . S
C2768 C2769 1.369 . S
C2768 C2772 1.531 . S
C2769 C2768 1.369 . S
C2769 C2770 1.410 1_655 S
C2769 C2777 1.503 . S
C2770 C2769 1.410 1_455 S
C2770 C2771 1.392 . S
C2770 C2773 1.511 . S
C2771 C2767 1.376 1_455 S
C2771 C2770 1.392 . S
C2771 H2783 0.929 . S
C2772 C2768 1.531 . S
C2772 H2784 0.960 . S
C2772 H2785 0.962 . S
C2772 H2786 0.960 . S
C2773 C2770 1.511 . S
C2773 H2787 0.961 . S
C2773 H2788 0.961 . S
C2773 H2789 0.961 . S
C2774 C2775 1.383 1_455 S
C2774 C2776 1.371 . S
C2774 H2790 0.931 . S
C2775 C2774 1.383 1_655 S
C2775 C2779 1.415 . S
C2776 C2774 1.371 . S
C2776 C2777 1.367 1_455 S
C2776 C2780 1.519 . S
C2777 C2769 1.503 . S
C2777 C2776 1.367 1_655 S
C2777 C2778 1.403 . S
C2778 C2777 1.403 . S
C2778 C2779 1.404 . S
C2778 C2781 1.539 . S
C2779 C2775 1.415 . S
C2779 C2778 1.404 . S
C2779 H2791 0.930 . S
C2780 C2776 1.519 . S
C2780 H2792 0.956 1_455 S
C2780 H2793 0.961 . S
C2780 H2794 0.961 . S
C2781 C2778 1.539 . S
C2781 H2795 0.958 . S
C2781 H2796 0.961 . S
C2781 H2797 0.960 . S
H2782 C2766 0.931 . S
H2783 C2771 0.929 . S
H2784 C2772 0.960 . S
H2785 C2772 0.962 . S
H2786 C2772 0.960 . S
H2787 C2773 0.961 . S
H2788 C2773 0.961 . S
H2789 C2773 0.961 . S
H2790 C2774 0.931 . S
H2791 C2779 0.930 . S
H2792 C2780 0.956 1_655 S
H2793 C2780 0.961 . S
H2794 C2780 0.961 . S
H2795 C2781 0.958 . S
H2796 C2781 0.961 . S
H2797 C2781 0.960 . S
C2798 C2799 1.391 . S
C2798 C2800 1.394 . S
C2798 H2814 0.931 . S
C2799 C2798 1.391 . S
C2799 C2803 1.376 . S
C2800 C2798 1.394 . S
C2800 C2801 1.369 . S
C2800 C2804 1.531 . S
C2801 C2800 1.369 . S
C2801 C2802 1.410 . S
C2801 C2809 1.503 . S
C2802 C2801 1.410 . S
C2802 C2803 1.392 . S
C2802 C2805 1.511 . S
C2803 C2799 1.376 . S
C2803 C2802 1.392 . S
C2803 H2815 0.929 . S
C2804 C2800 1.531 . S
C2804 H2816 0.960 . S
C2804 H2817 0.962 . S
C2804 H2818 0.960 . S
C2805 C2802 1.511 . S
C2805 H2819 0.961 . S
C2805 H2820 0.961 . S
C2805 H2821 0.961 . S
C2806 C2807 1.370 . S
C2806 C2808 1.363 . S
C2806 H2822 0.931 . S
C2807 C2806 1.370 . S
C2807 C2811 1.408 . S
C2808 C2806 1.363 . S
C2808 C2809 1.370 . S
C2808 C2812 1.524 . S
C2809 C2801 1.503 . S
C2809 C2808 1.370 . S
C2809 C2810 1.403 . S
C2810 C2809 1.403 . S
C2810 C2811 1.404 . S
C2810 C2813 1.539 . S
C2811 C2807 1.408 . S
C2811 C2810 1.404 . S
C2811 H2823 0.930 . S
C2812 C2808 1.524 . S
C2812 H2824 0.956 . S
C2812 H2825 0.961 . S
C2812 H2826 0.961 . S
C2813 C2810 1.539 . S
C2813 H2827 0.958 . S
C2813 H2828 0.961 . S
C2813 H2829 0.960 . S
H2814 C2798 0.931 . S
H2815 C2803 0.929 . S
H2816 C2804 0.960 . S
H2817 C2804 0.962 . S
H2818 C2804 0.960 . S
H2819 C2805 0.961 . S
H2820 C2805 0.961 . S
H2821 C2805 0.961 . S
H2822 C2806 0.931 . S
H2823 C2811 0.930 . S
H2824 C2812 0.956 . S
H2825 C2812 0.961 . S
H2826 C2812 0.961 . S
H2827 C2813 0.958 . S
H2828 C2813 0.961 . S
H2829 C2813 0.960 . S
C2830 C2831 1.391 . S
C2830 C2832 1.394 . S
C2830 H2846 0.931 . S
C2831 C2830 1.391 . S
C2831 C2835 1.376 . S
C2832 C2830 1.394 . S
C2832 C2833 1.369 . S
C2832 C2836 1.531 . S
C2833 C2832 1.369 . S
C2833 C2834 1.464 . S
C2833 C2841 1.503 . S
C2834 C2833 1.464 . S
C2834 C2835 1.369 . S
C2834 C2837 1.484 1_545 S
C2835 C2831 1.376 . S
C2835 C2834 1.369 . S
C2835 H2847 0.929 1_545 S
C2836 C2832 1.531 . S
C2836 H2848 0.960 . S
C2836 H2849 0.962 . S
C2836 H2850 0.960 . S
C2837 C2834 1.484 1_565 S
C2837 H2851 0.961 . S
C2837 H2852 0.961 . S
C2837 H2853 0.961 . S
C2838 C2839 1.370 . S
C2838 C2840 1.363 . S
C2838 H2854 0.931 . S
C2839 C2838 1.370 . S
C2839 C2843 1.408 1_545 S
C2840 C2838 1.363 . S
C2840 C2841 1.370 . S
C2840 C2844 1.524 . S
C2841 C2833 1.503 . S
C2841 C2840 1.370 . S
C2841 C2842 1.403 1_545 S
C2842 C2841 1.403 1_565 S
C2842 C2843 1.404 . S
C2842 C2845 1.539 . S
C2843 C2839 1.408 1_565 S
C2843 C2842 1.404 . S
C2843 H2855 0.930 . S
C2844 C2840 1.524 . S
C2844 H2856 0.956 . S
C2844 H2857 0.961 . S
C2844 H2858 0.961 . S
C2845 C2842 1.539 . S
C2845 H2859 0.958 . S
C2845 H2860 0.961 . S
C2845 H2861 0.960 . S
H2846 C2830 0.931 . S
H2847 C2835 0.929 1_565 S
H2848 C2836 0.960 . S
H2849 C2836 0.962 . S
H2850 C2836 0.960 . S
H2851 C2837 0.961 . S
H2852 C2837 0.961 . S
H2853 C2837 0.961 . S
H2854 C2838 0.931 . S
H2855 C2843 0.930 . S
H2856 C2844 0.956 . S
H2857 C2844 0.961 . S
H2858 C2844 0.961 . S
H2859 C2845 0.958 . S
H2860 C2845 0.961 . S
H2861 C2845 0.960 . S
C559 C10 1.619 . S
C567 C403 1.617 . S
C591 C23 1.627 . S
C599 C428 1.601 . S
C631 C439 1.605 . S
C623 C29 1.648 . S
C655 C30 1.625 . S
C663 C464 1.615 . S
C687 C5 1.621 . S
C695 C482 1.628 . S
C719 C18 1.631 . S
C727 C493 1.600 . S
C751 C49 1.617 . S
C759 C475 1.622 . S
C791 C500 1.602 . S
C783 C62 1.610 . S
C823 C457 1.596 . S
C815 C70 1.624 . S
C847 C75 1.613 . S
C855 C446 1.610 . S
C887 C410 1.616 . S
C879 C44 1.620 . S
C911 C57 1.603 . S
C919 C421 1.610 . S
C943 C88 1.620 . S
C951 C511 1.615 . S
C975 C101 1.625 . S
C983 C536 1.602 . S
C1015 C547 1.600 . S
C1007 C107 1.634 . S
C1039 C108 1.635 . S
C1047 C248 1.607 . S
C1071 C83 1.641 . S
C1079 C266 1.615 . S
C1103 C96 1.612 . S
C1111 C277 1.615 . S
C1135 C127 1.609 . S
C1143 C259 1.612 . S
C1167 C140 1.602 . S
C1175 C284 1.606 . S
C1207 C241 1.601 . S
C1199 C146 1.616 . S
C1239 C554 1.610 . S
C1231 C147 1.615 . S
C1271 C518 1.618 . S
C1263 C122 1.611 . S
C1303 C529 1.608 . S
C1295 C135 1.604 . S
C1327 C160 1.620 . S
C1335 C295 1.616 . S
C1359 C173 1.626 . S
C1367 C320 1.601 . S
C1391 C185 1.616 . S
C1399 C331 1.615 . S
C1423 C186 1.627 . S
C1431 C356 1.615 . S
C1463 C374 1.629 . S
C1455 C159 1.620 . S
C1495 C385 1.599 . S
C1487 C172 1.633 . S
C1527 C367 1.609 . S
C1519 C205 1.611 . S
C1559 C392 1.606 . S
C1551 C218 1.602 . S
C1583 C224 1.625 . S
C1591 C349 1.596 . S
C1623 C338 1.601 . S
C1615 C225 1.625 . S
C1647 C200 1.614 . S
C1655 C302 1.614 . S
C1687 C313 1.598 . S
C1679 C213 1.621 . S
C1719 C250 1.423 . S
C1711 C4 1.494 . S
C1743 C17 1.497 . S
C1751 C268 1.411 . S
C1783 C278 1.426 . S
C1775 C31 1.507 . S
C1815 C296 1.448 . S
C1807 C36 1.494 . S
C1847 C322 1.450 . S
C1839 C3 1.504 . S
C1879 C332 1.439 . S
C1871 C16 1.495 . S
C1903 C43 1.504 . S
C1911 C340 1.418 . S
C1935 C56 1.493 . S
C1943 C304 1.413 . S
C1967 C68 1.508 . S
C1975 C314 1.426 . S
C1999 C69 1.492 . S
C2007 C260 1.431 . S
C2039 C286 1.438 . S
C2031 C42 1.518 . S
C2063 C55 1.503 . S
C2071 C242 1.451 . S
C2103 C358 1.440 . S
C2095 C82 1.511 . S
C2127 C95 1.485 . S
C2135 C376 1.436 . S
C2159 C109 1.509 . S
C2167 C386 1.429 . S
C2199 C404 1.420 . S
C2191 C114 1.499 . S
C2223 C81 1.509 . S
C2231 C430 1.423 . S
C2255 C94 1.511 . S
C2263 C440 1.446 . S
C2287 C121 1.514 . S
C2295 C448 1.459 1_545 S
C2319 C134 1.502 . S
C2327 C412 1.443 . S
C2359 C422 1.439 . S
C2351 C148 1.512 . S
C2383 C153 1.507 . S
C2391 C368 1.445 . S
C2415 C120 1.508 . S
C2423 C394 1.444 . S
C2455 C350 1.447 . S
C2447 C133 1.511 . S
C2487 C466 1.433 . S
C2479 C166 1.491 . S
C2511 C179 1.486 . S
C2519 C484 1.436 . S
C2543 C187 1.504 . S
C2551 C494 1.454 . S
C2583 C512 1.431 . S
C2575 C192 1.485 . S
C2615 C538 1.424 . S
C2607 C161 1.507 . S
C2639 C174 1.505 . S
C2647 C548 1.453 . S
C2671 C199 1.497 . S
C2679 C556 1.429 . S
C2703 C212 1.507 . S
C2711 C520 1.433 . S
C2743 C530 1.452 . S
C2735 C226 1.503 . S
C2775 C476 1.423 1_655 S
C2767 C231 1.500 . S
C2807 C502 1.426 . S
C2799 C198 1.508 . S
C2831 C211 1.511 . S
C2839 C458 1.445 . S
